# Generated by pormake.
# Topology eea, (3,6)-cn, num edge types: 1
# Building blocks:
#     Node 0, Type 0, BuildingBlock: CUQRIR_clean_linker_1, # of connection points: 3
#     Node 1, Type 0, BuildingBlock: CUQRIR_clean_linker_1, # of connection points: 3
#     Node 2, Type 0, BuildingBlock: CUQRIR_clean_linker_1, # of connection points: 3
#     Node 3, Type 0, BuildingBlock: CUQRIR_clean_linker_1, # of connection points: 3
#     Node 4, Type 0, BuildingBlock: CUQRIR_clean_linker_1, # of connection points: 3
#     Node 5, Type 0, BuildingBlock: CUQRIR_clean_linker_1, # of connection points: 3
#     Node 6, Type 0, BuildingBlock: CUQRIR_clean_linker_1, # of connection points: 3
#     Node 7, Type 0, BuildingBlock: CUQRIR_clean_linker_1, # of connection points: 3
#     Node 8, Type 0, BuildingBlock: CUQRIR_clean_linker_1, # of connection points: 3
#     Node 9, Type 0, BuildingBlock: CUQRIR_clean_linker_1, # of connection points: 3
#     Node 10, Type 0, BuildingBlock: CUQRIR_clean_linker_1, # of connection points: 3
#     Node 11, Type 0, BuildingBlock: CUQRIR_clean_linker_1, # of connection points: 3
#     Node 12, Type 0, BuildingBlock: CUQRIR_clean_linker_1, # of connection points: 3
#     Node 13, Type 0, BuildingBlock: CUQRIR_clean_linker_1, # of connection points: 3
#     Node 14, Type 0, BuildingBlock: CUQRIR_clean_linker_1, # of connection points: 3
#     Node 15, Type 0, BuildingBlock: CUQRIR_clean_linker_1, # of connection points: 3
#     Node 16, Type 0, BuildingBlock: CUQRIR_clean_linker_1, # of connection points: 3
#     Node 17, Type 0, BuildingBlock: CUQRIR_clean_linker_1, # of connection points: 3
#     Node 18, Type 1, BuildingBlock: CUKXOW_clean_sbu_0, # of connection points: 6
#     Node 19, Type 1, BuildingBlock: CUKXOW_clean_sbu_0, # of connection points: 6
#     Node 20, Type 1, BuildingBlock: CUKXOW_clean_sbu_0, # of connection points: 6
#     Node 21, Type 1, BuildingBlock: CUKXOW_clean_sbu_0, # of connection points: 6
#     Node 22, Type 1, BuildingBlock: CUKXOW_clean_sbu_0, # of connection points: 6
#     Node 23, Type 1, BuildingBlock: CUKXOW_clean_sbu_0, # of connection points: 6
#     Node 24, Type 1, BuildingBlock: CUKXOW_clean_sbu_0, # of connection points: 6
#     Node 25, Type 1, BuildingBlock: CUKXOW_clean_sbu_0, # of connection points: 6
#     Node 26, Type 1, BuildingBlock: CUKXOW_clean_sbu_0, # of connection points: 6
#     Edge 27, Type (0, 1), BuildingBlock: TEMPAE_clean_linker_10, # of connection points: 2
#     Edge 28, Type (0, 1), BuildingBlock: TEMPAE_clean_linker_10, # of connection points: 2
#     Edge 29, Type (0, 1), BuildingBlock: TEMPAE_clean_linker_10, # of connection points: 2
#     Edge 30, Type (0, 1), BuildingBlock: TEMPAE_clean_linker_10, # of connection points: 2
#     Edge 31, Type (0, 1), BuildingBlock: TEMPAE_clean_linker_10, # of connection points: 2
#     Edge 32, Type (0, 1), BuildingBlock: TEMPAE_clean_linker_10, # of connection points: 2
#     Edge 33, Type (0, 1), BuildingBlock: TEMPAE_clean_linker_10, # of connection points: 2
#     Edge 34, Type (0, 1), BuildingBlock: TEMPAE_clean_linker_10, # of connection points: 2
#     Edge 35, Type (0, 1), BuildingBlock: TEMPAE_clean_linker_10, # of connection points: 2
#     Edge 36, Type (0, 1), BuildingBlock: TEMPAE_clean_linker_10, # of connection points: 2
#     Edge 37, Type (0, 1), BuildingBlock: TEMPAE_clean_linker_10, # of connection points: 2
#     Edge 38, Type (0, 1), BuildingBlock: TEMPAE_clean_linker_10, # of connection points: 2
#     Edge 39, Type (0, 1), BuildingBlock: TEMPAE_clean_linker_10, # of connection points: 2
#     Edge 40, Type (0, 1), BuildingBlock: TEMPAE_clean_linker_10, # of connection points: 2
#     Edge 41, Type (0, 1), BuildingBlock: TEMPAE_clean_linker_10, # of connection points: 2
#     Edge 42, Type (0, 1), BuildingBlock: TEMPAE_clean_linker_10, # of connection points: 2
#     Edge 43, Type (0, 1), BuildingBlock: TEMPAE_clean_linker_10, # of connection points: 2
#     Edge 44, Type (0, 1), BuildingBlock: TEMPAE_clean_linker_10, # of connection points: 2
#     Edge 45, Type (0, 1), BuildingBlock: TEMPAE_clean_linker_10, # of connection points: 2
#     Edge 46, Type (0, 1), BuildingBlock: TEMPAE_clean_linker_10, # of connection points: 2
#     Edge 47, Type (0, 1), BuildingBlock: TEMPAE_clean_linker_10, # of connection points: 2
#     Edge 48, Type (0, 1), BuildingBlock: TEMPAE_clean_linker_10, # of connection points: 2
#     Edge 49, Type (0, 1), BuildingBlock: TEMPAE_clean_linker_10, # of connection points: 2
#     Edge 50, Type (0, 1), BuildingBlock: TEMPAE_clean_linker_10, # of connection points: 2
#     Edge 51, Type (0, 1), BuildingBlock: TEMPAE_clean_linker_10, # of connection points: 2
#     Edge 52, Type (0, 1), BuildingBlock: TEMPAE_clean_linker_10, # of connection points: 2
#     Edge 53, Type (0, 1), BuildingBlock: TEMPAE_clean_linker_10, # of connection points: 2
#     Edge 54, Type (0, 1), BuildingBlock: TEMPAE_clean_linker_10, # of connection points: 2
#     Edge 55, Type (0, 1), BuildingBlock: TEMPAE_clean_linker_10, # of connection points: 2
#     Edge 56, Type (0, 1), BuildingBlock: TEMPAE_clean_linker_10, # of connection points: 2
#     Edge 57, Type (0, 1), BuildingBlock: TEMPAE_clean_linker_10, # of connection points: 2
#     Edge 58, Type (0, 1), BuildingBlock: TEMPAE_clean_linker_10, # of connection points: 2
#     Edge 59, Type (0, 1), BuildingBlock: TEMPAE_clean_linker_10, # of connection points: 2
#     Edge 60, Type (0, 1), BuildingBlock: TEMPAE_clean_linker_10, # of connection points: 2
#     Edge 61, Type (0, 1), BuildingBlock: TEMPAE_clean_linker_10, # of connection points: 2
#     Edge 62, Type (0, 1), BuildingBlock: TEMPAE_clean_linker_10, # of connection points: 2
#     Edge 63, Type (0, 1), BuildingBlock: TEMPAE_clean_linker_10, # of connection points: 2
#     Edge 64, Type (0, 1), BuildingBlock: TEMPAE_clean_linker_10, # of connection points: 2
#     Edge 65, Type (0, 1), BuildingBlock: TEMPAE_clean_linker_10, # of connection points: 2
#     Edge 66, Type (0, 1), BuildingBlock: TEMPAE_clean_linker_10, # of connection points: 2
#     Edge 67, Type (0, 1), BuildingBlock: TEMPAE_clean_linker_10, # of connection points: 2
#     Edge 68, Type (0, 1), BuildingBlock: TEMPAE_clean_linker_10, # of connection points: 2
#     Edge 69, Type (0, 1), BuildingBlock: TEMPAE_clean_linker_10, # of connection points: 2
#     Edge 70, Type (0, 1), BuildingBlock: TEMPAE_clean_linker_10, # of connection points: 2
#     Edge 71, Type (0, 1), BuildingBlock: TEMPAE_clean_linker_10, # of connection points: 2
#     Edge 72, Type (0, 1), BuildingBlock: TEMPAE_clean_linker_10, # of connection points: 2
#     Edge 73, Type (0, 1), BuildingBlock: TEMPAE_clean_linker_10, # of connection points: 2
#     Edge 74, Type (0, 1), BuildingBlock: TEMPAE_clean_linker_10, # of connection points: 2
#     Edge 75, Type (0, 1), BuildingBlock: TEMPAE_clean_linker_10, # of connection points: 2
#     Edge 76, Type (0, 1), BuildingBlock: TEMPAE_clean_linker_10, # of connection points: 2
#     Edge 77, Type (0, 1), BuildingBlock: TEMPAE_clean_linker_10, # of connection points: 2
#     Edge 78, Type (0, 1), BuildingBlock: TEMPAE_clean_linker_10, # of connection points: 2
#     Edge 79, Type (0, 1), BuildingBlock: TEMPAE_clean_linker_10, # of connection points: 2
#     Edge 80, Type (0, 1), BuildingBlock: TEMPAE_clean_linker_10, # of connection points: 2
# Relax obj value: 0.068
# Max RMSD: 0.210
# Mean RMSD: 0.143
data_MOF--net-eea--node1-CUKXOW_clean_sbu_0--node2-CUQRIR_clean_linker_1--edge1-TEMPAE_clean_linker_10
_symmetry_space_group_name_H-M    P1
_symmetry_Int_Tables_number       1
_symmetry_cell_setting            triclinic
loop_
_symmetry_equiv_pos_as_xyz
'x, y, z'
_cell_length_a     54.613613
_cell_length_b     52.401678
_cell_length_c     48.155766
_cell_angle_alpha  86.925292
_cell_angle_beta   93.251069
_cell_angle_gamma 118.99853
loop_
_atom_site_label
_atom_site_type_symbol
_atom_site_fract_x
_atom_site_fract_y
_atom_site_fract_z
_atom_type_partial_charge
C0 C 0.22582 0.12511 0.41967 0.0
N1 N 0.23201 0.14746 0.4368 0.0
N2 N 0.22763 0.10288 0.4337 0.0
C3 C 0.22126 0.12637 0.38861 0.0
C4 C 0.23522 0.11254 0.45998 0.0
N5 N 0.23802 0.13952 0.4619 0.0
C6 C 0.23969 0.09558 0.48414 0.0
H7 H 0.19846 0.11577 0.38343 0.0
H8 H 0.23011 0.11448 0.37809 0.0
H9 H 0.23112 0.14929 0.38049 0.0
H10 H 0.26209 0.1012 0.48563 0.0
H11 H 0.22669 0.07173 0.48139 0.0
H12 H 0.23448 0.10132 0.50399 0.0
C13 C 0.89119 0.12369 0.43211 0.0
N14 N 0.90613 0.14397 0.45154 0.0
N15 N 0.86913 0.1001 0.44364 0.0
C16 C 0.89774 0.12758 0.40171 0.0
C17 C 0.87149 0.10669 0.47086 0.0
N18 N 0.89404 0.13316 0.47577 0.0
C19 C 0.8511 0.08773 0.49262 0.0
H20 H 0.88566 0.10721 0.39018 0.0
H21 H 0.92047 0.13582 0.39937 0.0
H22 H 0.8925 0.14411 0.39206 0.0
H23 H 0.86228 0.08771 0.51253 0.0
H24 H 0.83841 0.06485 0.48603 0.0
H25 H 0.83691 0.09667 0.49645 0.0
C26 C 0.93054 0.8445 0.4627 0.0
N27 N 0.93996 0.8297 0.47992 0.0
N28 N 0.90816 0.84457 0.47324 0.0
C29 C 0.94101 0.85592 0.43402 0.0
C30 C 0.90471 0.82971 0.49786 0.0
N31 N 0.924 0.82057 0.50193 0.0
C32 C 0.87902 0.81881 0.51496 0.0
H33 H 0.93624 0.87367 0.42726 0.0
H34 H 0.93042 0.83796 0.41914 0.0
H35 H 0.96392 0.86407 0.43359 0.0
H36 H 0.86404 0.79593 0.50955 0.0
H37 H 0.86853 0.83228 0.51102 0.0
H38 H 0.88466 0.81902 0.53747 0.0
C39 C 0.11017 0.23384 0.61089 0.0
N40 N 0.13196 0.24968 0.59429 0.0
N41 N 0.09014 0.24171 0.606 0.0
C42 C 0.1099 0.21314 0.63391 0.0
C43 C 0.10066 0.26324 0.58631 0.0
N44 N 0.12636 0.26842 0.57949 0.0
C45 C 0.08579 0.2793 0.5742 0.0
H46 H 0.08988 0.20275 0.64492 0.0
H47 H 0.12753 0.22517 0.64898 0.0
H48 H 0.11315 0.19589 0.62518 0.0
H49 H 0.09235 0.29919 0.58624 0.0
H50 H 0.06276 0.26554 0.57551 0.0
H51 H 0.09116 0.28594 0.55214 0.0
C52 C 0.8014 0.90975 0.61559 0.0
N53 N 0.79064 0.88658 0.59852 0.0
N54 N 0.79479 0.93048 0.60569 0.0
C55 C 0.82052 0.91342 0.64061 0.0
C56 C 0.77984 0.91928 0.58181 0.0
N57 N 0.77753 0.89287 0.57731 0.0
C58 C 0.76627 0.93349 0.56348 0.0
H59 H 0.80784 0.9044 0.6594 0.0
H60 H 0.83541 0.93686 0.64383 0.0
H61 H 0.83252 0.90166 0.63816 0.0
H62 H 0.78138 0.94802 0.54779 0.0
H63 H 0.76034 0.94678 0.57585 0.0
H64 H 0.74732 0.91712 0.5522 0.0
C65 C 0.12222 0.92615 0.61403 0.0
N66 N 0.10946 0.90277 0.59739 0.0
N67 N 0.14645 0.94708 0.60302 0.0
C68 C 0.11017 0.92923 0.64016 0.0
C69 C 0.14783 0.93552 0.579 0.0
N70 N 0.12523 0.90885 0.57543 0.0
C71 C 0.17235 0.94917 0.56012 0.0
H72 H 0.08693 0.9174 0.63864 0.0
H73 H 0.11755 0.95255 0.64418 0.0
H74 H 0.11698 0.91963 0.65803 0.0
H75 H 0.19217 0.96265 0.57202 0.0
H76 H 0.16896 0.96342 0.54428 0.0
H77 H 0.17452 0.9324 0.54904 0.0
C78 C 0.88281 0.44982 0.75345 0.0
N79 N 0.89127 0.4732 0.77003 0.0
N80 N 0.88766 0.42895 0.7664 0.0
C81 C 0.87008 0.44729 0.72444 0.0
C82 C 0.89981 0.44052 0.79116 0.0
N83 N 0.90215 0.46728 0.79341 0.0
C84 C 0.90985 0.42583 0.81313 0.0
H85 H 0.84692 0.43509 0.72547 0.0
H86 H 0.87625 0.43504 0.71102 0.0
H87 H 0.87656 0.46911 0.71448 0.0
H88 H 0.91378 0.40919 0.80404 0.0
H89 H 0.89353 0.41492 0.82886 0.0
H90 H 0.9293 0.44203 0.82394 0.0
C91 C 0.56613 0.45306 0.77168 0.0
N92 N 0.57866 0.47525 0.78972 0.0
N93 N 0.54199 0.43117 0.7819 0.0
C94 C 0.57845 0.45197 0.74488 0.0
C95 C 0.5404 0.44084 0.80695 0.0
N96 N 0.56281 0.46735 0.81189 0.0
C97 C 0.51578 0.42556 0.82562 0.0
H98 H 0.57181 0.46279 0.72799 0.0
H99 H 0.57114 0.42909 0.73919 0.0
H100 H 0.60168 0.46373 0.74661 0.0
H101 H 0.49614 0.41215 0.81345 0.0
H102 H 0.51292 0.44139 0.83756 0.0
H103 H 0.51964 0.41104 0.84073 0.0
C104 C 0.58912 0.1579 0.78932 0.0
N105 N 0.59761 0.14227 0.80647 0.0
N106 N 0.56678 0.15834 0.79946 0.0
C107 C 0.60056 0.1699 0.76104 0.0
C108 C 0.56225 0.14268 0.82373 0.0
N109 N 0.58107 0.13297 0.82802 0.0
C110 C 0.53639 0.13214 0.84045 0.0
H111 H 0.59618 0.18791 0.75425 0.0
H112 H 0.59039 0.15228 0.74577 0.0
H113 H 0.62347 0.17787 0.76132 0.0
H114 H 0.52239 0.10855 0.83697 0.0
H115 H 0.52479 0.14421 0.83467 0.0
H116 H 0.54222 0.13468 0.86297 0.0
C117 C 0.76662 0.53268 0.92288 0.0
N118 N 0.78959 0.55251 0.90954 0.0
N119 N 0.74396 0.53546 0.9144 0.0
C120 C 0.76722 0.51379 0.94729 0.0
C121 C 0.75406 0.55757 0.89514 0.0
N122 N 0.78197 0.56852 0.89276 0.0
C123 C 0.73655 0.56924 0.87987 0.0
H124 H 0.74573 0.4974 0.95323 0.0
H125 H 0.77837 0.52778 0.96525 0.0
H126 H 0.77891 0.50238 0.94215 0.0
H127 H 0.73473 0.58484 0.89318 0.0
H128 H 0.71511 0.55123 0.8754 0.0
H129 H 0.74595 0.58043 0.85995 0.0
C130 C 0.46772 0.24107 0.95436 0.0
N131 N 0.45932 0.21887 0.93634 0.0
N132 N 0.46098 0.26158 0.9439 0.0
C133 C 0.48095 0.24226 0.98294 0.0
C134 C 0.4479 0.25095 0.91914 0.0
N135 N 0.44682 0.22515 0.91454 0.0
C136 C 0.43535 0.26535 0.89964 0.0
H137 H 0.46457 0.23523 0.99857 0.0
H138 H 0.49716 0.26499 0.98739 0.0
H139 H 0.49036 0.22778 0.98587 0.0
H140 H 0.45077 0.27866 0.8837 0.0
H141 H 0.42997 0.27976 0.91094 0.0
H142 H 0.4162 0.24891 0.88869 0.0
C143 C 0.79305 0.25244 0.95322 0.0
N144 N 0.78116 0.22942 0.93605 0.0
N145 N 0.81785 0.27354 0.94347 0.0
C146 C 0.77949 0.25525 0.97836 0.0
C147 C 0.82058 0.26252 0.91972 0.0
N148 N 0.79815 0.23595 0.91497 0.0
C149 C 0.84643 0.27643 0.90263 0.0
H150 H 0.78661 0.27851 0.98237 0.0
H151 H 0.78539 0.24551 0.99679 0.0
H152 H 0.75633 0.24347 0.97561 0.0
H153 H 0.86528 0.2906 0.91549 0.0
H154 H 0.8437 0.29002 0.88556 0.0
H155 H 0.84989 0.25961 0.89324 0.0
C156 C 0.55772 0.78641 0.08736 0.0
N157 N 0.5646 0.80873 0.10475 0.0
N158 N 0.55997 0.7641 0.10077 0.0
C159 C 0.55193 0.78778 0.05653 0.0
C160 C 0.56849 0.77372 0.12699 0.0
N161 N 0.57147 0.80073 0.1294 0.0
C162 C 0.57356 0.75665 0.15066 0.0
H163 H 0.52899 0.7775 0.05232 0.0
H164 H 0.56006 0.77573 0.04517 0.0
H165 H 0.56171 0.81073 0.0485 0.0
H166 H 0.59601 0.76245 0.1516 0.0
H167 H 0.56059 0.73281 0.14784 0.0
H168 H 0.56869 0.76208 0.17085 0.0
C169 C 0.23037 0.7864 0.10582 0.0
N170 N 0.24327 0.80829 0.12419 0.0
N171 N 0.20554 0.76509 0.11543 0.0
C172 C 0.24289 0.78494 0.07931 0.0
C173 C 0.20391 0.77482 0.14043 0.0
N174 N 0.22689 0.80077 0.14595 0.0
C175 C 0.17886 0.76008 0.15861 0.0
H176 H 0.23721 0.79649 0.06233 0.0
H177 H 0.23483 0.76198 0.0734 0.0
H178 H 0.26608 0.79578 0.08154 0.0
H179 H 0.18197 0.74522 0.1739 0.0
H180 H 0.15934 0.74712 0.14609 0.0
H181 H 0.17628 0.77622 0.17035 0.0
C182 C 0.24648 0.47919 0.11582 0.0
N183 N 0.2578 0.46689 0.13388 0.0
N184 N 0.22264 0.4765 0.12568 0.0
C185 C 0.25737 0.49165 0.08749 0.0
C186 C 0.21994 0.46212 0.15048 0.0
N187 N 0.24145 0.4564 0.15552 0.0
C188 C 0.19401 0.44919 0.16735 0.0
H189 H 0.25038 0.5076 0.08012 0.0
H190 H 0.24913 0.47367 0.07257 0.0
H191 H 0.2806 0.50235 0.08794 0.0
H192 H 0.18101 0.42575 0.16258 0.0
H193 H 0.18138 0.46036 0.1626 0.0
H194 H 0.19976 0.45063 0.1899 0.0
C195 C 0.426 0.85749 0.25385 0.0
N196 N 0.44696 0.87284 0.23627 0.0
N197 N 0.40312 0.8601 0.24599 0.0
C198 C 0.42906 0.84302 0.28066 0.0
C199 C 0.41093 0.87747 0.22274 0.0
N200 N 0.43759 0.88523 0.21689 0.0
C201 C 0.39475 0.89164 0.20937 0.0
H202 H 0.40826 0.82644 0.28817 0.0
H203 H 0.4397 0.85979 0.29667 0.0
H204 H 0.4422 0.8326 0.27774 0.0
H205 H 0.39936 0.91115 0.22124 0.0
H206 H 0.37191 0.87648 0.20978 0.0
H207 H 0.40076 0.89872 0.18755 0.0
C208 C 0.13232 0.57902 0.28995 0.0
N209 N 0.12365 0.55677 0.27205 0.0
N210 N 0.12801 0.60084 0.27854 0.0
C211 C 0.14766 0.58087 0.31739 0.0
C212 C 0.11664 0.5912 0.25297 0.0
N213 N 0.11449 0.56481 0.24879 0.0
C214 C 0.10507 0.6062 0.233 0.0
H215 H 0.13232 0.57146 0.33416 0.0
H216 H 0.16259 0.60392 0.32222 0.0
H217 H 0.15933 0.56847 0.31717 0.0
H218 H 0.12144 0.62041 0.2182 0.0
H219 H 0.09862 0.61983 0.24415 0.0
H220 H 0.0867 0.59 0.22084 0.0
C221 C 0.46148 0.58172 0.28687 0.0
N222 N 0.44714 0.5595 0.26911 0.0
N223 N 0.4841 0.60393 0.27451 0.0
C224 C 0.45341 0.58184 0.31622 0.0
C225 C 0.48264 0.59435 0.2485 0.0
N226 N 0.46019 0.56755 0.2452 0.0
C227 C 0.50304 0.6111 0.22604 0.0
H228 H 0.43967 0.59198 0.31606 0.0
H229 H 0.47223 0.59472 0.32968 0.0
H230 H 0.44173 0.55949 0.32536 0.0
H231 H 0.51954 0.6045 0.22667 0.0
H232 H 0.51301 0.63497 0.22894 0.0
H233 H 0.4924 0.6061 0.20518 0.0
Tb234 Tb 0.54314 0.03632 0.01668 0.0
C235 C 0.52842 0.97536 0.04485 0.0
Tb236 Tb 0.48063 0.99369 0.03169 0.0
O237 O 0.55609 0.04239 0.06065 0.0
O238 O 0.51539 0.03159 0.04795 0.0
O239 O 0.54584 0.99678 0.028 0.0
C240 C 0.43192 0.95737 0.05631 0.0
O241 O 0.5039 0.97262 0.05176 0.0
C242 C 0.49416 0.99448 0.97978 0.0
C243 C 0.49527 0.05385 1.00167 0.0
O244 O 0.44746 0.98502 0.06087 0.0
O245 O 0.44376 0.95033 0.03771 0.0
O246 O 0.46918 0.9883 0.98683 0.0
O247 O 0.5089 0.99777 1.00156 0.0
O248 O 0.47796 0.03311 0.01913 0.0
O249 O 0.5196 0.05613 0.99492 0.0
C250 C 0.59192 0.07364 0.99353 0.0
O251 O 0.57827 0.08039 0.01026 0.0
O252 O 0.57805 0.04568 0.98975 0.0
C253 C 0.53122 0.03474 0.06905 0.0
Tb254 Tb 0.98818 0.53552 0.02337 0.0
C255 C 0.05306 0.58002 0.03094 0.0
Tb256 Tb 0.03249 0.5146 0.01503 0.0
O257 O 0.9907 0.53592 0.06943 0.0
O258 O 0.01347 0.52287 0.04712 0.0
O259 O 0.02778 0.57686 0.02409 0.0
C260 C 0.06691 0.49239 0.02402 0.0
O261 O 0.05844 0.55782 0.03202 0.0
C262 C 0.01427 0.53218 0.96929 0.0
C263 C 0.96741 0.4677 0.01326 0.0
O264 O 0.07152 0.5146 0.00758 0.0
O265 O 0.04251 0.48218 0.03468 0.0
O266 O 0.03761 0.53108 0.97143 0.0
O267 O 1.00183 0.52017 0.99123 0.0
O268 O 0.99382 0.47265 0.01325 0.0
O269 O 0.96067 0.48878 0.016 0.0
C270 C 0.95447 0.55646 0.00592 0.0
O271 O 0.94914 0.53691 0.02592 0.0
O272 O 0.97897 0.56451 0.99625 0.0
C273 C 0.0091 0.52672 0.07148 0.0
Tb274 Tb 0.47502 0.49808 0.03074 0.0
C275 C 0.49429 0.45297 0.01741 0.0
Tb276 Tb 0.53808 0.51967 0.03 0.0
O277 O 0.46916 0.4892 0.9861 0.0
O278 O 0.50735 0.52101 1.00237 0.0
O279 O 0.47329 0.45613 0.02604 0.0
C280 C 0.58835 0.52978 0.0161 0.0
O281 O 0.52006 0.47514 0.01508 0.0
C282 C 0.51787 0.51226 0.07965 0.0
C283 C 0.51898 0.5655 0.03995 0.0
O284 O 0.57344 0.51125 0.03526 0.0
O285 O 0.57536 0.54335 0.00545 0.0
O286 O 0.54372 0.53047 0.07391 0.0
O287 O 0.50588 0.49717 0.05856 0.0
O288 O 0.53938 0.5619 0.03025 0.0
O289 O 0.49353 0.5433 0.04453 0.0
C290 C 0.42478 0.48213 0.04976 0.0
O291 O 0.43669 0.50171 0.03009 0.0
O292 O 0.44086 0.47129 0.05807 0.0
C293 C 0.4953 0.50694 0.98082 0.0
Tb294 Tb 0.20733 0.37551 0.35356 0.0
C295 C 0.19253 0.31142 0.37589 0.0
Tb296 Tb 0.14442 0.32804 0.36114 0.0
O297 O 0.20915 0.39567 0.39282 0.0
O298 O 0.18061 0.35241 0.38661 0.0
O299 O 0.21107 0.33582 0.3629 0.0
C300 C 0.09255 0.29402 0.38031 0.0
O301 O 0.16684 0.30639 0.38123 0.0
C302 C 0.16625 0.33089 0.31313 0.0
C303 C 0.15946 0.39265 0.33874 0.0
O304 O 0.10477 0.28659 0.36247 0.0
O305 O 0.10937 0.3209 0.38688 0.0
O306 O 0.14399 0.30787 0.32177 0.0
O307 O 0.17135 0.35123 0.3288 0.0
O308 O 0.14016 0.36718 0.3496 0.0
O309 O 0.18589 0.39887 0.33553 0.0
C310 C 0.25891 0.40893 0.33417 0.0
O311 O 0.24833 0.41499 0.35465 0.0
O312 O 0.24049 0.3837 0.32472 0.0
C313 C 0.18725 0.37309 0.40265 0.0
Tb314 Tb 0.6545 0.86681 0.34988 0.0
C315 C 0.71584 0.91109 0.36719 0.0
Tb316 Tb 0.69655 0.844 0.35683 0.0
O317 O 0.6587 0.87636 0.39434 0.0
O318 O 0.6649 0.84299 0.38068 0.0
O319 O 0.69268 0.90861 0.35429 0.0
C320 C 0.73836 0.83423 0.37431 0.0
O321 O 0.71981 0.88827 0.37295 0.0
C322 C 0.68281 0.85173 0.30515 0.0
C323 C 0.63484 0.79903 0.34209 0.0
O324 O 0.73872 0.85042 0.35285 0.0
O325 O 0.71407 0.82276 0.3855 0.0
O326 O 0.69093 0.83282 0.31301 0.0
O327 O 0.6856 0.8671 0.32564 0.0
O328 O 0.65836 0.80201 0.35468 0.0
O329 O 0.63071 0.82169 0.33552 0.0
C330 C 0.61605 0.88003 0.3279 0.0
O331 O 0.61237 0.86199 0.34883 0.0
O332 O 0.64159 0.89123 0.31998 0.0
C333 C 0.66689 0.85732 0.40165 0.0
Tb334 Tb 0.14194 0.83712 0.36528 0.0
C335 C 0.16028 0.79113 0.35257 0.0
Tb336 Tb 0.20494 0.8577 0.36396 0.0
O337 O 0.13547 0.8278 0.32068 0.0
O338 O 0.17412 0.85915 0.33646 0.0
O339 O 0.1396 0.79476 0.36138 0.0
C340 C 0.25515 0.86726 0.35037 0.0
O341 O 0.1861 0.813 0.34958 0.0
C342 C 0.18526 0.85068 0.41381 0.0
C343 C 0.18707 0.90422 0.37435 0.0
O344 O 0.24021 0.84916 0.36977 0.0
O345 O 0.24211 0.88055 0.33911 0.0
O346 O 0.21112 0.86858 0.40786 0.0
O347 O 0.17284 0.83573 0.39276 0.0
O348 O 0.20701 0.90022 0.36416 0.0
O349 O 0.16159 0.88231 0.37933 0.0
C350 C 0.09218 0.82368 0.3846 0.0
O351 O 0.10519 0.84363 0.36554 0.0
O352 O 0.10679 0.81086 0.39197 0.0
C353 C 0.16166 0.84489 0.31507 0.0
Tb354 Tb 0.87593 0.70516 0.68375 0.0
C355 C 0.85807 0.64215 0.70892 0.0
Tb356 Tb 0.81211 0.66258 0.69364 0.0
O357 O 0.88692 0.70964 0.7281 0.0
O358 O 0.84623 0.69842 0.71371 0.0
O359 O 0.87723 0.66462 0.69426 0.0
C360 C 0.7617 0.62695 0.71511 0.0
O361 O 0.83309 0.63934 0.71388 0.0
C362 C 0.82903 0.667 0.64245 0.0
C363 C 0.82955 0.72456 0.66608 0.0
O364 O 0.77573 0.61906 0.7 0.0
O365 O 0.77586 0.65507 0.71774 0.0
O366 O 0.80339 0.65946 0.64831 0.0
O367 O 0.84229 0.66864 0.66498 0.0
O368 O 0.81003 0.70198 0.6802 0.0
O369 O 0.85514 0.72824 0.66289 0.0
C370 C 0.92583 0.74271 0.66306 0.0
O371 O 0.91182 0.74902 0.67972 0.0
O372 O 0.91177 0.71502 0.65802 0.0
C373 C 0.86145 0.70086 0.73531 0.0
Tb374 Tb 0.32541 0.20405 0.68643 0.0
C375 C 0.38887 0.24672 0.69855 0.0
Tb376 Tb 0.36571 0.17915 0.68647 0.0
O377 O 0.33412 0.21404 0.73058 0.0
O378 O 0.33794 0.17984 0.71479 0.0
O379 O 0.3644 0.24484 0.69064 0.0
C380 C 0.40493 0.16448 0.70054 0.0
O381 O 0.3931 0.22377 0.70019 0.0
C382 C 0.34756 0.18728 0.63717 0.0
C383 C 0.30183 0.13587 0.67696 0.0
O384 O 0.40617 0.18206 0.67998 0.0
O385 O 0.3813 0.15462 0.71268 0.0
O386 O 0.35591 0.16812 0.64279 0.0
O387 O 0.35292 0.20295 0.65809 0.0
O388 O 0.32662 0.13811 0.6843 0.0
O389 O 0.29736 0.15872 0.67496 0.0
C390 C 0.29034 0.22301 0.66759 0.0
O391 O 0.28692 0.20669 0.68992 0.0
O392 O 0.31351 0.22882 0.65633 0.0
C393 C 0.34266 0.19496 0.736 0.0
Tb394 Tb 0.80233 0.16156 0.69402 0.0
C395 C 0.82487 0.11707 0.68755 0.0
Tb396 Tb 0.86462 0.18127 0.70379 0.0
O397 O 0.80133 0.15187 0.65008 0.0
O398 O 0.8384 0.1819 0.66985 0.0
O399 O 0.80373 0.12027 0.69582 0.0
C400 C 0.91968 0.2062 0.69869 0.0
O401 O 0.85035 0.13946 0.68514 0.0
C402 C 0.83357 0.15879 0.74847 0.0
C403 C 0.84435 0.2281 0.70966 0.0
O404 O 0.90515 0.18425 0.71522 0.0
O405 O 0.90325 0.2143 0.68532 0.0
O406 O 0.85706 0.15897 0.74502 0.0
O407 O 0.83079 0.1735 0.72835 0.0
O408 O 0.86558 0.22227 0.7122 0.0
O409 O 0.81827 0.20811 0.70231 0.0
C410 C 0.74992 0.1424 0.70827 0.0
O411 O 0.76331 0.16399 0.69063 0.0
O412 O 0.76577 0.13131 0.71679 0.0
C413 C 0.82835 0.16758 0.64796 0.0
C414 C 0.29338 0.83956 0.13714 0.0
C415 C 0.26977 0.83458 0.12034 0.0
C416 C 0.32051 0.86123 0.12963 0.0
C417 C 0.32407 0.87835 0.10475 0.0
C418 C 0.29996 0.87444 0.08873 0.0
C419 C 0.27323 0.85266 0.09671 0.0
C420 C 0.34546 0.86473 0.14752 0.0
C421 C 0.30245 0.89208 0.06219 0.0
C422 C 0.39299 0.94744 0.0882 0.0
C423 C 0.40501 0.93714 0.06978 0.0
C424 C 0.36719 0.9285 0.10049 0.0
C425 C 0.35281 0.89849 0.09405 0.0
C426 C 0.36519 0.88795 0.07581 0.0
C427 C 0.39104 0.90733 0.06398 0.0
C428 C 0.35502 0.94077 0.11988 0.0
C429 C 0.3508 0.85622 0.06829 0.0
H430 H 0.29075 0.82535 0.15523 0.0
H431 H 0.25495 0.84868 0.08369 0.0
H432 H 0.3582 0.85789 0.13594 0.0
H433 H 0.35906 0.888 0.15255 0.0
H434 H 0.33917 0.85153 0.16724 0.0
H435 H 0.28172 0.8882 0.05339 0.0
H436 H 0.31566 0.91572 0.06594 0.0
H437 H 0.31284 0.88625 0.04644 0.0
H438 H 0.4036 0.97044 0.09278 0.0
H439 H 0.40022 0.89913 0.04989 0.0
H440 H 0.34951 0.92777 0.13972 0.0
H441 H 0.33541 0.93928 0.11035 0.0
H442 H 0.36972 0.96394 0.12457 0.0
H443 H 0.36362 0.85118 0.05475 0.0
H444 H 0.33046 0.85042 0.05727 0.0
H445 H 0.34625 0.84214 0.08743 0.0
C446 C 0.18736 0.45883 0.08769 0.0
C447 C 0.20064 0.47805 0.10942 0.0
C448 C 0.16519 0.45926 0.07202 0.0
C449 C 0.15627 0.47941 0.07844 0.0
C450 C 0.16979 0.49898 0.10042 0.0
C451 C 0.19192 0.49799 0.11575 0.0
C452 C 0.15116 0.438 0.04887 0.0
C453 C 0.16068 0.52066 0.10792 0.0
C454 C 0.1158 0.50106 0.02488 0.0
C455 C 0.08863 0.48528 0.03472 0.0
C456 C 0.13798 0.49861 0.03841 0.0
C457 C 0.13268 0.47998 0.06229 0.0
C458 C 0.105 0.4629 0.07145 0.0
C459 C 0.08322 0.4657 0.05744 0.0
C460 C 0.16726 0.51707 0.02805 0.0
C461 C 0.0986 0.44279 0.09685 0.0
H462 H 0.19422 0.44326 0.0833 0.0
H463 H 0.20238 0.5126 0.13277 0.0
H464 H 0.12867 0.42374 0.05312 0.0
H465 H 0.15221 0.45002 0.0289 0.0
H466 H 0.16096 0.42402 0.04637 0.0
H467 H 0.17442 0.53539 0.12452 0.0
H468 H 0.16075 0.53414 0.08932 0.0
H469 H 0.13893 0.50884 0.11524 0.0
H470 H 0.11995 0.51628 0.00733 0.0
H471 H 0.06217 0.45359 0.0651 0.0
H472 H 0.17713 0.50327 0.02506 0.0
H473 H 0.18035 0.53335 0.04381 0.0
H474 H 0.16753 0.52886 0.0081 0.0
H475 H 0.1079 0.42824 0.09535 0.0
H476 H 0.07572 0.42914 0.0997 0.0
H477 H 0.1081 0.45591 0.11567 0.0
C478 C 0.57408 0.72628 0.09552 0.0
C479 C 0.55498 0.73672 0.08972 0.0
C480 C 0.56842 0.69864 0.08698 0.0
C481 C 0.5437 0.68153 0.07092 0.0
C482 C 0.525 0.6926 0.06378 0.0
C483 C 0.53058 0.71974 0.07374 0.0
C484 C 0.58853 0.68743 0.09584 0.0
C485 C 0.49886 0.67556 0.04598 0.0
C486 C 0.54238 0.61972 0.03109 0.0
C487 C 0.52501 0.59514 0.04737 0.0
C488 C 0.548 0.64787 0.03802 0.0
C489 C 0.53695 0.65166 0.06247 0.0
C490 C 0.5197 0.62686 0.07916 0.0
C491 C 0.51351 0.5989 0.07111 0.0
C492 C 0.56551 0.67352 0.01904 0.0
C493 C 0.5084 0.62988 0.10598 0.0
H494 H 0.59332 0.73961 0.10721 0.0
H495 H 0.5156 0.7275 0.06942 0.0
H496 H 0.57736 0.66647 0.1078 0.0
H497 H 0.59689 0.68302 0.0773 0.0
H498 H 0.60643 0.7031 0.10892 0.0
H499 H 0.48795 0.68837 0.04005 0.0
H500 H 0.50416 0.66882 0.02674 0.0
H501 H 0.48416 0.65538 0.0574 0.0
H502 H 0.55111 0.61684 0.01259 0.0
H503 H 0.50023 0.57996 0.08387 0.0
H504 H 0.58509 0.68897 0.03019 0.0
H505 H 0.55394 0.68554 0.01274 0.0
H506 H 0.57114 0.66673 1.0 0.0
H507 H 0.52608 0.64195 0.12098 0.0
H508 H 0.4939 0.6084 0.11562 0.0
H509 H 0.49715 0.64263 0.10234 0.0
C510 C 0.84778 0.32699 0.93913 0.0
C511 C 0.83725 0.3012 0.95552 0.0
C512 C 0.86819 0.35379 0.94986 0.0
C513 C 0.87802 0.35495 0.9779 0.0
C514 C 0.86676 0.32907 0.99482 0.0
C515 C 0.84666 0.30248 0.98336 0.0
C516 C 0.87972 0.38074 0.93099 0.0
C517 C 0.87639 0.32936 0.02486 0.0
C518 C 0.95067 0.41741 0.99572 0.0
C519 C 0.94449 0.43788 0.00667 0.0
C520 C 0.92926 0.39022 0.98675 0.0
C521 C 0.90086 0.38301 0.98905 0.0
C522 C 0.89445 0.40314 1.00092 0.0
C523 C 0.91629 0.43036 0.00941 0.0
C524 C 0.93707 0.36958 0.97395 0.0
C525 C 0.86448 0.39618 1.00408 0.0
H526 H 0.84023 0.32604 0.91771 0.0
H527 H 0.83873 0.28251 0.99596 0.0
H528 H 0.87673 0.39799 0.94009 0.0
H529 H 0.90259 0.38955 0.929 0.0
H530 H 0.86956 0.37626 0.90985 0.0
H531 H 0.86425 0.30786 0.03572 0.0
H532 H 0.89886 0.33528 0.02603 0.0
H533 H 0.87436 0.34614 0.0361 0.0
H534 H 0.97231 0.42295 0.99329 0.0
H535 H 0.91122 0.4459 0.01789 0.0
H536 H 0.92923 0.36602 0.95197 0.0
H537 H 0.92703 0.34803 0.98506 0.0
H538 H 0.96008 0.37799 0.97451 0.0
H539 H 0.85403 0.39413 0.98325 0.0
H540 H 0.86296 0.41324 0.01543 0.0
H541 H 0.85275 0.37492 0.01541 0.0
C542 C 0.72679 0.54383 0.95666 0.0
C543 C 0.72113 0.5295 0.93152 0.0
C544 C 0.70513 0.54226 0.97196 0.0
C545 C 0.67721 0.52601 0.96165 0.0
C546 C 0.67129 0.51052 0.93674 0.0
C547 C 0.69352 0.51254 0.92183 0.0
C548 C 0.71226 0.55925 0.9983 0.0
C549 C 0.64171 0.49301 0.9252 0.0
C550 C 0.61992 0.50874 0.01169 0.0
C551 C 0.6126 0.53038 1.00398 0.0
C552 C 0.64075 0.50677 0.9978 0.0
C553 C 0.65456 0.5271 0.97598 0.0
C554 C 0.64752 0.54929 0.96846 0.0
C555 C 0.62653 0.55064 0.98262 0.0
C556 C 0.64767 0.48274 0.00614 0.0
C557 C 0.66199 0.57145 0.94535 0.0
H558 H 0.74838 0.55736 0.96361 0.0
H559 H 0.68952 0.50181 0.90218 0.0
H560 H 0.70674 0.57701 0.99526 0.0
H561 H 0.69988 0.54489 0.01571 0.0
H562 H 0.73487 0.56909 0.00439 0.0
H563 H 0.64041 0.47952 0.90757 0.0
H564 H 0.62778 0.47849 0.9417 0.0
H565 H 0.63364 0.50803 0.91774 0.0
H566 H 0.60883 0.49285 0.02805 0.0
H567 H 0.62072 0.56728 0.97668 0.0
H568 H 0.67009 0.49227 0.01277 0.0
H569 H 0.64429 0.46905 0.98801 0.0
H570 H 0.63473 0.4685 0.02337 0.0
H571 H 0.68487 0.58367 0.95011 0.0
H572 H 0.654 0.58731 0.94217 0.0
H573 H 0.65892 0.5602 0.92556 0.0
C574 C 0.44116 0.16526 0.93936 0.0
C575 C 0.46376 0.19374 0.93977 0.0
C576 C 0.44514 0.14096 0.94629 0.0
C577 C 0.47212 0.14533 0.9551 0.0
C578 C 0.49516 0.17401 0.95412 0.0
C579 C 0.49078 0.19764 0.94568 0.0
C580 C 0.42045 0.11065 0.94443 0.0
C581 C 0.52439 0.17986 0.96274 0.0
C582 C 0.47591 0.08825 0.00549 0.0
C583 C 0.48757 0.07574 0.98926 0.0
C584 C 0.47085 0.11086 0.9946 0.0
C585 C 0.47627 0.12031 0.96631 0.0
C586 C 0.48726 0.10699 0.9496 0.0
C587 C 0.49322 0.08533 0.96143 0.0
C588 C 0.46101 0.12562 0.01382 0.0
C589 C 0.49296 0.11512 0.91917 0.0
H590 H 0.42029 0.16205 0.93444 0.0
H591 H 0.50838 0.21958 0.94505 0.0
H592 H 0.42619 0.09641 0.93325 0.0
H593 H 0.41438 0.10092 0.96561 0.0
H594 H 0.402 0.11068 0.93349 0.0
H595 H 0.53967 0.20356 0.96276 0.0
H596 H 0.52446 0.17036 0.9839 0.0
H597 H 0.5315 0.16922 0.94825 0.0
H598 H 0.47193 0.08124 0.02714 0.0
H599 H 0.5022 0.07575 0.94873 0.0
H600 H 0.4404 0.12303 0.00629 0.0
H601 H 0.47601 0.14939 0.01394 0.0
H602 H 0.45903 0.11667 0.03551 0.0
H603 H 0.49054 0.13423 0.91195 0.0
H604 H 0.47827 0.09625 0.90654 0.0
H605 H 0.51451 0.1197 0.91491 0.0
C606 C 0.75024 0.18664 0.96474 0.0
C607 C 0.75481 0.20307 0.93982 0.0
C608 C 0.7236 0.16353 0.97086 0.0
C609 C 0.70086 0.1566 0.95151 0.0
C610 C 0.70578 0.17207 0.92551 0.0
C611 C 0.73277 0.19518 0.91998 0.0
C612 C 0.71951 0.14756 0.99869 0.0
C613 C 0.68228 0.1653 0.90417 0.0
C614 C 0.63406 0.08504 0.96612 0.0
C615 C 0.61897 0.09465 0.98116 0.0
C616 C 0.66029 0.10498 0.95535 0.0
C617 C 0.67173 0.13523 0.95985 0.0
C618 C 0.65609 0.14502 0.97435 0.0
C619 C 0.62999 0.12464 0.98482 0.0
C620 C 0.67612 0.09361 0.93992 0.0
C621 C 0.66731 0.17702 0.9795 0.0
H622 H 0.76746 0.19264 0.97987 0.0
H623 H 0.73638 0.208 0.90073 0.0
H624 H 0.70614 0.15247 0.01151 0.0
H625 H 0.70858 0.12363 0.99586 0.0
H626 H 0.73968 0.15385 0.01034 0.0
H627 H 0.69015 0.17628 0.8837 0.0
H628 H 0.66976 0.14142 0.90127 0.0
H629 H 0.66797 0.17272 0.91161 0.0
H630 H 0.62563 0.06186 0.96326 0.0
H631 H 0.6183 0.13222 0.99623 0.0
H632 H 0.6951 0.09695 0.9524 0.0
H633 H 0.68325 0.10588 0.91987 0.0
H634 H 0.66324 0.06999 0.93569 0.0
H635 H 0.68666 0.18517 0.99293 0.0
H636 H 0.65195 0.18124 0.98975 0.0
H637 H 0.67298 0.18982 0.95956 0.0
C638 C 0.83349 0.58466 0.93423 0.0
C639 C 0.81775 0.56015 0.91814 0.0
C640 C 0.85893 0.58947 0.94717 0.0
C641 C 0.86845 0.5691 0.94379 0.0
C642 C 0.85348 0.54546 0.92578 0.0
C643 C 0.8281 0.54121 0.91323 0.0
C644 C 0.87445 0.61503 0.96599 0.0
C645 C 0.86321 0.52351 0.92133 0.0
C646 C 0.94025 0.58101 0.96785 0.0
C647 C 0.93387 0.56392 0.99252 0.0
C648 C 0.91941 0.58427 0.9523 0.0
C649 C 0.89172 0.56999 0.96175 0.0
C650 C 0.8856 0.55413 0.98749 0.0
C651 C 0.90684 0.5513 1.00262 0.0
C652 C 0.92667 0.60161 0.92511 0.0
C653 C 0.85626 0.53869 0.99827 0.0
H654 H 0.82504 0.59907 0.9379 0.0
H655 H 0.81559 0.52236 0.90061 0.0
H656 H 0.87128 0.60709 0.98801 0.0
H657 H 0.89728 0.62603 0.96259 0.0
H658 H 0.86696 0.63129 0.96269 0.0
H659 H 0.85083 0.50832 0.90449 0.0
H660 H 0.88563 0.5348 0.91604 0.0
H661 H 0.86121 0.51049 0.94086 0.0
H662 H 0.96124 0.5908 0.96008 0.0
H663 H 0.90198 0.53815 0.02173 0.0
H664 H 0.91775 0.6167 0.92361 0.0
H665 H 0.91737 0.58654 0.90755 0.0
H666 H 0.94966 0.61449 0.92259 0.0
H667 H 0.84774 0.55405 0.9986 0.0
H668 H 0.85547 0.5291 0.01956 0.0
H669 H 0.84232 0.5209 0.98415 0.0
C670 C 0.45837 0.28941 0.98261 0.0
C671 C 0.46675 0.28883 0.95578 0.0
C672 C 0.46309 0.31572 0.99389 0.0
C673 C 0.47568 0.34199 0.9776 0.0
C674 C 0.48403 0.34147 0.95039 0.0
C675 C 0.47987 0.31502 0.94004 0.0
C676 C 0.45447 0.31538 0.0232 0.0
C677 C 0.49695 0.36877 0.93203 0.0
C678 C 0.46302 0.40448 0.99618 0.0
C679 C 0.48886 0.42391 0.00865 0.0
C680 C 0.45847 0.37782 0.9859 0.0
C681 C 0.47999 0.36999 0.98888 0.0
C682 C 0.50587 0.38927 1.00213 0.0
C683 C 0.51013 0.41615 0.01144 0.0
C684 C 0.43089 0.35838 0.97115 0.0
C685 C 0.52914 0.38155 0.00637 0.0
H686 H 0.44767 0.26918 0.9946 0.0
H687 H 0.48656 0.31464 0.91938 0.0
H688 H 0.47256 0.33153 0.03571 0.0
H689 H 0.43787 0.32181 0.02292 0.0
H690 H 0.44649 0.29354 0.03369 0.0
H691 H 0.50139 0.36449 0.91106 0.0
H692 H 0.48268 0.37831 0.92957 0.0
H693 H 0.51682 0.38541 0.94185 0.0
H694 H 0.44666 0.41058 0.99359 0.0
H695 H 0.53014 0.43108 0.02112 0.0
H696 H 0.42057 0.33655 0.9817 0.0
H697 H 0.43462 0.35517 0.94951 0.0
H698 H 0.41634 0.36761 0.97045 0.0
H699 H 0.52129 0.36003 0.01744 0.0
H700 H 0.54735 0.3981 0.0185 0.0
H701 H 0.53642 0.37966 0.98594 0.0
C702 C 0.173 0.71185 0.11635 0.0
C703 C 0.18486 0.73886 0.10183 0.0
C704 C 0.15157 0.68649 0.10409 0.0
C705 C 0.14218 0.68795 0.07628 0.0
C706 C 0.15464 0.71504 0.06126 0.0
C707 C 0.17556 0.74019 0.07432 0.0
C708 C 0.13871 0.65822 0.12106 0.0
C709 C 0.14575 0.71752 0.03144 0.0
C710 C 0.10397 0.61579 0.03878 0.0
C711 C 0.0758 0.60881 0.04032 0.0
C712 C 0.12576 0.64181 0.04962 0.0
C713 C 0.1193 0.66113 0.06302 0.0
C714 C 0.09089 0.65433 0.06441 0.0
C715 C 0.06953 0.62846 0.05278 0.0
C716 C 0.15571 0.64841 0.04709 0.0
C717 C 0.08298 0.67393 0.07902 0.0
H718 H 0.18039 0.71067 0.13749 0.0
H719 H 0.18439 0.76106 0.06315 0.0
H720 H 0.11576 0.64958 0.12203 0.0
H721 H 0.14191 0.64158 0.11097 0.0
H722 H 0.14778 0.66091 0.14263 0.0
H723 H 0.15839 0.7398 0.02223 0.0
H724 H 0.14779 0.7017 0.01865 0.0
H725 H 0.12338 0.71198 0.03023 0.0
H726 H 0.10903 0.60077 0.02913 0.0
H727 H 0.04782 0.62308 0.05441 0.0
H728 H 0.16523 0.64845 0.06807 0.0
H729 H 0.16824 0.67047 0.03745 0.0
H730 H 0.15735 0.63223 0.03442 0.0
H731 H 0.09006 0.67544 0.10123 0.0
H732 H 0.06003 0.66588 0.07793 0.0
H733 H 0.09367 0.69633 0.06968 0.0
C734 C 0.30685 0.47897 0.14065 0.0
C735 C 0.28042 0.46168 0.12838 0.0
C736 C 0.33056 0.4793 0.13049 0.0
C737 C 0.32733 0.46184 0.10764 0.0
C738 C 0.30022 0.44246 0.09688 0.0
C739 C 0.27701 0.44273 0.1074 0.0
C740 C 0.35914 0.50005 0.14264 0.0
C741 C 0.2959 0.42326 0.07278 0.0
C742 C 0.38536 0.49206 0.05608 0.0
C743 C 0.39898 0.47582 0.06336 0.0
C744 C 0.362 0.48771 0.07049 0.0
C745 C 0.35218 0.46661 0.09261 0.0
C746 C 0.36575 0.44995 0.09985 0.0
C747 C 0.38901 0.45473 0.08502 0.0
C748 C 0.348 0.5059 0.06221 0.0
C749 C 0.35586 0.42735 0.12334 0.0
H750 H 0.30908 0.49363 0.15684 0.0
H751 H 0.25629 0.42947 0.09815 0.0
H752 H 0.37213 0.48912 0.14608 0.0
H753 H 0.37009 0.51866 0.12775 0.0
H754 H 0.3578 0.50881 0.16268 0.0
H755 H 0.27353 0.40673 0.0695 0.0
H756 H 0.30311 0.43697 0.05347 0.0
H757 H 0.30845 0.41183 0.07622 0.0
H758 H 0.39322 0.50848 0.03942 0.0
H759 H 0.39963 0.44218 0.09062 0.0
H760 H 0.34839 0.51849 0.0802 0.0
H761 H 0.3257 0.49149 0.05611 0.0
H762 H 0.35832 0.52142 0.04461 0.0
H763 H 0.35705 0.43788 0.14312 0.0
H764 H 0.36853 0.41596 0.12603 0.0
H765 H 0.33361 0.41089 0.11945 0.0
C766 C 0.53524 0.82993 0.08587 0.0
C767 C 0.56039 0.83383 0.09895 0.0
C768 C 0.53112 0.85379 0.07786 0.0
C769 C 0.55217 0.88243 0.08425 0.0
C770 C 0.57712 0.88649 0.09867 0.0
C771 C 0.58119 0.86222 0.10531 0.0
C772 C 0.50442 0.84831 0.06203 0.0
C773 C 0.59968 0.91649 0.1068 0.0
C774 C 0.55217 0.94516 0.04005 0.0
C775 C 0.53607 0.95295 0.05574 0.0
C776 C 0.55787 0.92254 0.04923 0.0
C777 C 0.54806 0.90795 0.0752 0.0
C778 C 0.53271 0.91654 0.09161 0.0
C779 C 0.52651 0.93854 0.08146 0.0
C780 C 0.57342 0.91345 0.03058 0.0
C781 C 0.52274 0.90239 0.11985 0.0
H782 H 0.51882 0.80803 0.08149 0.0
H783 H 0.60087 0.86565 0.11489 0.0
H784 H 0.49265 0.85607 0.07397 0.0
H785 H 0.50948 0.86077 0.04188 0.0
H786 H 0.49059 0.82483 0.05782 0.0
H787 H 0.61635 0.91565 0.12052 0.0
H788 H 0.60944 0.92985 0.08787 0.0
H789 H 0.59048 0.92779 0.11772 0.0
H790 H 0.55942 0.95602 0.02004 0.0
H791 H 0.51433 0.94463 0.09378 0.0
H792 H 0.55986 0.89035 0.02486 0.0
H793 H 0.59232 0.91482 0.04173 0.0
H794 H 0.57995 0.92718 0.01118 0.0
H795 H 0.541 0.90567 0.13358 0.0
H796 H 0.50904 0.87853 0.11801 0.0
H797 H 0.51096 0.91141 0.13 0.0
C798 C 0.93405 0.19119 0.42675 0.0
C799 C 0.93237 0.17043 0.44724 0.0
C800 C 0.96011 0.21347 0.41769 0.0
C801 C 0.98523 0.21523 0.42957 0.0
C802 C 0.98356 0.19552 0.45175 0.0
C803 C 0.95714 0.17336 0.46029 0.0
C804 C 0.96069 0.234 0.39421 0.0
C805 C 0.00965 0.19667 0.4653 0.0
C806 C 0.04856 0.24579 0.38326 0.0
C807 C 0.06489 0.27433 0.39258 0.0
C808 C 0.02273 0.2265 0.39513 0.0
C809 C 0.01291 0.23577 0.41708 0.0
C810 C 0.02939 0.2646 0.42661 0.0
C811 C 0.05509 0.28354 0.41419 0.0
C812 C 0.00593 0.19607 0.38414 0.0
C813 C 0.01992 0.27541 0.45001 0.0
H814 H 0.91486 0.18912 0.41692 0.0
H815 H 0.95581 0.1572 0.47602 0.0
H816 H 0.97525 0.25696 0.39961 0.0
H817 H 0.96852 0.22947 0.37533 0.0
H818 H 0.93963 0.23168 0.38911 0.0
H819 H 0.00501 0.18231 0.48429 0.0
H820 H 0.01976 0.1896 0.45036 0.0
H821 H 0.02498 0.21934 0.47096 0.0
H822 H 0.05601 0.23848 0.36663 0.0
H823 H 0.06763 0.30554 0.42156 0.0
H824 H 0.98495 0.19234 0.37643 0.0
H825 H 1.00263 0.1797 0.40115 0.0
H826 H 0.01636 0.19221 0.36695 0.0
H827 H 0.99956 0.27445 0.44409 0.0
H828 H 0.03533 0.29818 0.45541 0.0
H829 H 0.01658 0.26108 0.46882 0.0
C830 C 0.87731 0.86571 0.46147 0.0
C831 C 0.88576 0.84513 0.45679 0.0
C832 C 0.85351 0.8643 0.44739 0.0
C833 C 0.83801 0.84165 0.42847 0.0
C834 C 0.8469 0.82111 0.42344 0.0
C835 C 0.8707 0.82311 0.43777 0.0
C836 C 0.84443 0.88637 0.45343 0.0
C837 C 0.83083 0.79658 0.40356 0.0
C838 C 0.76171 0.81953 0.41269 0.0
C839 C 0.76327 0.8339 0.38699 0.0
C840 C 0.78596 0.82191 0.42654 0.0
C841 C 0.81221 0.83899 0.4142 0.0
C842 C 0.81377 0.85309 0.38797 0.0
C843 C 0.7892 0.85034 0.37463 0.0
C844 C 0.78354 0.80664 0.45457 0.0
C845 C 0.84145 0.87148 0.37426 0.0
H846 H 0.88898 0.88235 0.4766 0.0
H847 H 0.87725 0.80697 0.4348 0.0
H848 H 0.84024 0.89587 0.43378 0.0
H849 H 0.82465 0.8753 0.46479 0.0
H850 H 0.86036 0.90434 0.46629 0.0
H851 H 0.84111 0.783 0.40142 0.0
H852 H 0.80936 0.78233 0.411 0.0
H853 H 0.82875 0.80553 0.38269 0.0
H854 H 0.74162 0.80691 0.42222 0.0
H855 H 0.79038 0.86162 0.35479 0.0
H856 H 0.79416 0.8231 0.47085 0.0
H857 H 0.79411 0.79312 0.45473 0.0
H858 H 0.76139 0.79242 0.46022 0.0
H859 H 0.85562 0.88963 0.38791 0.0
H860 H 0.839 0.88086 0.35372 0.0
H861 H 0.8518 0.85815 0.3713 0.0
C862 C 0.24241 0.06553 0.42924 0.0
C863 C 0.22304 0.07552 0.42309 0.0
C864 C 0.23727 0.03805 0.42077 0.0
C865 C 0.21262 0.02054 0.40479 0.0
C866 C 0.19355 0.03108 0.3975 0.0
C867 C 0.19878 0.05822 0.40709 0.0
C868 C 0.25782 0.02741 0.42965 0.0
C869 C 0.16737 0.01349 0.37993 0.0
C870 C 0.2108 0.95836 0.36526 0.0
C871 C 0.19369 0.93398 0.38189 0.0
C872 C 0.21672 0.98662 0.37213 0.0
C873 C 0.20618 0.99068 0.39679 0.0
C874 C 0.18943 0.96611 0.41397 0.0
C875 C 0.18293 0.93803 0.40602 0.0
C876 C 0.23394 0.01208 0.35282 0.0
C877 C 0.17858 0.96953 0.4409 0.0
H878 H 0.26148 0.07913 0.44106 0.0
H879 H 0.18365 0.06574 0.40251 0.0
H880 H 0.24711 1.00683 0.44225 0.0
H881 H 0.2658 0.02248 0.41113 0.0
H882 H 0.27593 0.04363 0.44213 0.0
H883 H 0.15608 0.02589 0.37393 0.0
H884 H 0.1727 1.00671 0.36074 0.0
H885 H 0.153 0.99333 0.3916 0.0
H886 H 0.219 0.95523 0.34651 0.0
H887 H 0.16989 0.91924 0.41907 0.0
H888 H 0.25335 0.02801 0.36387 0.0
H889 H 0.22198 0.02359 0.34612 0.0
H890 H 0.23983 1.00517 0.33404 0.0
H891 H 0.16785 0.94864 0.45298 0.0
H892 H 0.1636 0.97795 0.43649 0.0
H893 H 0.19609 0.98563 0.45401 0.0
C894 C 0.53404 0.63964 0.28327 0.0
C895 C 0.50562 0.63081 0.28643 0.0
C896 C 0.55523 0.66664 0.2929 0.0
C897 C 0.54796 0.68475 0.30731 0.0
C898 C 0.51933 0.67533 0.31169 0.0
C899 C 0.49852 0.64881 0.30069 0.0
C900 C 0.58533 0.67613 0.28691 0.0
C901 C 0.51063 0.69349 0.32764 0.0
C902 C 0.60646 0.74481 0.3504 0.0
C903 C 0.61277 0.76971 0.33352 0.0
C904 C 0.58494 0.71711 0.34252 0.0
C905 C 0.57021 0.71409 0.31661 0.0
C906 C 0.57696 0.73919 0.2993 0.0
C907 C 0.59772 0.76671 0.30822 0.0
C908 C 0.57769 0.69114 0.36208 0.0
C909 C 0.56268 0.73692 0.27104 0.0
H910 H 0.53967 0.62553 0.27283 0.0
H911 H 0.47663 0.64231 0.30291 0.0
H912 H 0.59444 0.69712 0.27479 0.0
H913 H 0.59792 0.67987 0.30664 0.0
H914 H 0.58744 0.65975 0.275 0.0
H915 H 0.48788 0.6818 0.33168 0.0
H916 H 0.52255 0.6996 0.34784 0.0
H917 H 0.51557 0.71403 0.31572 0.0
H918 H 0.61788 0.74712 0.3701 0.0
H919 H 0.60261 0.78589 0.29503 0.0
H920 H 0.58145 0.67481 0.35215 0.0
H921 H 0.55509 0.68038 0.36667 0.0
H922 H 0.59014 0.69734 0.38201 0.0
H923 H 0.5674 0.72342 0.25758 0.0
H924 H 0.56956 0.75859 0.26059 0.0
H925 H 0.53963 0.72595 0.2729 0.0
C926 C 0.39055 0.87526 0.2875 0.0
C927 C 0.3823 0.85775 0.2642 0.0
C928 C 0.37067 0.87634 0.30368 0.0
C929 C 0.34196 0.8597 0.29604 0.0
C930 C 0.3335 0.84131 0.27291 0.0
C931 C 0.35393 0.84056 0.25719 0.0
C932 C 0.38044 0.89626 0.32813 0.0
C933 C 0.30305 0.82355 0.26401 0.0
C934 C 0.2877 0.8471 0.34817 0.0
C935 C 0.27958 0.86774 0.3388 0.0
C936 C 0.30829 0.84442 0.3346 0.0
C937 C 0.32094 0.8629 0.31128 0.0
C938 C 0.31341 0.88441 0.30231 0.0
C939 C 0.29279 0.88662 0.31631 0.0
C940 C 0.31586 0.82123 0.3446 0.0
C941 C 0.32656 0.90454 0.27751 0.0
H942 H 0.41268 0.88895 0.29232 0.0
H943 H 0.34793 0.82738 0.23888 0.0
H944 H 0.37521 0.91413 0.32394 0.0
H945 H 0.36945 0.88408 0.34711 0.0
H946 H 0.40338 0.9061 0.3324 0.0
H947 H 0.29982 0.808 0.24759 0.0
H948 H 0.29032 0.81112 0.28206 0.0
H949 H 0.29508 0.83842 0.25576 0.0
H950 H 0.27728 0.83238 0.36551 0.0
H951 H 0.28647 0.9026 0.30918 0.0
H952 H 0.33876 0.83119 0.349 0.0
H953 H 0.31045 0.80522 0.32803 0.0
H954 H 0.30478 0.80934 0.36368 0.0
H955 H 0.34968 0.91647 0.28052 0.0
H956 H 0.31898 0.9207 0.27387 0.0
H957 H 0.32166 0.89157 0.25853 0.0
C958 C 0.11292 0.51397 0.30307 0.0
C959 C 0.12328 0.52918 0.27786 0.0
C960 C 0.11656 0.48997 0.3117 0.0
C961 C 0.13 0.48007 0.29419 0.0
C962 C 0.13852 0.49392 0.26765 0.0
C963 C 0.13538 0.51857 0.25994 0.0
C964 C 0.10757 0.47641 0.34034 0.0
C965 C 0.1521 0.48353 0.24791 0.0
C966 C 0.17056 0.4444 0.32942 0.0
C967 C 0.15124 0.41458 0.32784 0.0
C968 C 0.16386 0.46579 0.31857 0.0
C969 C 0.13747 0.45724 0.3049 0.0
C970 C 0.11804 0.42708 0.30274 0.0
C971 C 0.12498 0.4061 0.31464 0.0
C972 C 0.18495 0.4976 0.32212 0.0
C973 C 0.09007 0.417 0.28759 0.0
H974 H 0.10294 0.52174 0.31664 0.0
H975 H 0.14345 0.53025 0.24045 0.0
H976 H 0.09393 0.45248 0.3391 0.0
H977 H 0.12631 0.48015 0.35349 0.0
H978 H 0.09614 0.48566 0.35081 0.0
H979 H 0.15341 0.49341 0.22667 0.0
H980 H 0.17362 0.48947 0.2558 0.0
H981 H 0.14024 0.45941 0.24658 0.0
H982 H 0.19088 0.45106 0.33962 0.0
H983 H 0.11016 0.38306 0.31295 0.0
H984 H 0.17553 0.50845 0.33341 0.0
H985 H 0.19088 0.50884 0.30147 0.0
H986 H 0.20427 0.50062 0.33378 0.0
H987 H 0.0775 0.42477 0.29817 0.0
H988 H 0.07788 0.39284 0.28652 0.0
H989 H 0.09323 0.42655 0.26611 0.0
C990 C 0.39634 0.5309 0.25978 0.0
C991 C 0.42066 0.53366 0.2737 0.0
C992 C 0.36974 0.5083 0.26707 0.0
C993 C 0.36753 0.48798 0.28879 0.0
C994 C 0.3923 0.48964 0.30154 0.0
C995 C 0.41859 0.51246 0.29378 0.0
C996 C 0.34401 0.50729 0.25271 0.0
C997 C 0.39102 0.46832 0.32451 0.0
C998 C 0.30311 0.45663 0.33309 0.0
C999 C 0.28682 0.42857 0.32272 0.0
C1000 C 0.32929 0.47605 0.32216 0.0
C1001 C 0.33958 0.46724 0.30027 0.0
C1002 C 0.32321 0.43884 0.28975 0.0
C1003 C 0.29705 0.41981 0.30117 0.0
C1004 C 0.34592 0.50611 0.334 0.0
C1005 C 0.3333 0.42859 0.26641 0.0
H1006 H 0.39815 0.54734 0.24415 0.0
H1007 H 0.43757 0.51455 0.30418 0.0
H1008 H 0.32893 0.48477 0.24643 0.0
H1009 H 0.33332 0.51396 0.26736 0.0
H1010 H 0.34923 0.52207 0.23397 0.0
H1011 H 0.41197 0.47052 0.33008 0.0
H1012 H 0.38256 0.47213 0.34333 0.0
H1013 H 0.37667 0.44558 0.31827 0.0
H1014 H 0.29528 0.46355 0.34972 0.0
H1015 H 0.28457 0.39808 0.29323 0.0
H1016 H 0.34988 0.52298 0.31732 0.0
H1017 H 0.3666 0.50945 0.34232 0.0
H1018 H 0.33498 0.50961 0.35096 0.0
H1019 H 0.33654 0.44301 0.24769 0.0
H1020 H 0.31826 0.40578 0.26079 0.0
H1021 H 0.3538 0.42998 0.27248 0.0
C1022 C 0.48723 0.86507 0.23182 0.0
C1023 C 0.47575 0.88106 0.24237 0.0
C1024 C 0.51289 0.86818 0.24268 0.0
C1025 C 0.52712 0.88785 0.26443 0.0
C1026 C 0.5165 0.90574 0.27345 0.0
C1027 C 0.49069 0.90184 0.26248 0.0
C1028 C 0.52362 0.84886 0.23245 0.0
C1029 C 0.53117 0.92723 0.2963 0.0
C1030 C 0.56586 0.86603 0.32001 0.0
C1031 C 0.59372 0.88353 0.31265 0.0
C1032 C 0.54403 0.86715 0.30426 0.0
C1033 C 0.55033 0.88643 0.28072 0.0
C1034 C 0.57851 0.90446 0.2734 0.0
C1035 C 0.59993 0.90273 0.28948 0.0
C1036 C 0.51419 0.84743 0.31264 0.0
C1037 C 0.58598 0.92539 0.24858 0.0
H1038 H 0.47522 0.84885 0.21641 0.0
H1039 H 0.48125 0.91373 0.27077 0.0
H1040 H 0.54579 0.86218 0.22667 0.0
H1041 H 0.52284 0.83329 0.24939 0.0
H1042 H 0.51117 0.83623 0.21416 0.0
H1043 H 0.52265 0.94253 0.29772 0.0
H1044 H 0.52845 0.91519 0.31655 0.0
H1045 H 0.55398 0.94007 0.29286 0.0
H1046 H 0.56106 0.851 0.3378 0.0
H1047 H 0.62154 0.91621 0.28378 0.0
H1048 H 0.50183 0.83322 0.29519 0.0
H1049 H 0.50422 0.86072 0.31733 0.0
H1050 H 0.51288 0.83335 0.3312 0.0
H1051 H 0.5769 0.91307 0.22927 0.0
H1052 H 0.60899 0.93885 0.24651 0.0
H1053 H 0.5769 0.94012 0.2503 0.0
C1054 C 0.12478 0.62787 0.31748 0.0
C1055 C 0.1336 0.62787 0.29071 0.0
C1056 C 0.12906 0.65386 0.32906 0.0
C1057 C 0.14174 0.68037 0.31315 0.0
C1058 C 0.15069 0.68047 0.28608 0.0
C1059 C 0.14696 0.65432 0.27543 0.0
C1060 C 0.1199 0.65294 0.35825 0.0
C1061 C 0.16387 0.70811 0.26819 0.0
C1062 C 0.12881 0.74259 0.33169 0.0
C1063 C 0.15455 0.76187 0.34439 0.0
C1064 C 0.1243 0.71593 0.32148 0.0
C1065 C 0.14577 0.70805 0.32477 0.0
C1066 C 0.17146 0.72709 0.33842 0.0
C1067 C 0.17568 0.75394 0.34767 0.0
C1068 C 0.09692 0.69665 0.30634 0.0
C1069 C 0.19465 0.71928 0.34297 0.0
H1070 H 0.11414 0.60742 0.32919 0.0
H1071 H 0.15419 0.65443 0.25492 0.0
H1072 H 0.13778 0.66881 0.37118 0.0
H1073 H 0.10333 0.65941 0.35788 0.0
H1074 H 0.11169 0.6309 0.36836 0.0
H1075 H 0.1686 0.70424 0.24718 0.0
H1076 H 0.14962 0.71768 0.26578 0.0
H1077 H 0.1836 0.72455 0.27838 0.0
H1078 H 0.1126 0.74887 0.32876 0.0
H1079 H 0.19561 0.76879 0.35755 0.0
H1080 H 0.08661 0.6746 0.31645 0.0
H1081 H 0.10095 0.694 0.28463 0.0
H1082 H 0.08224 0.70572 0.30581 0.0
H1083 H 0.18653 0.69748 0.35352 0.0
H1084 H 0.21253 0.73549 0.35569 0.0
H1085 H 0.2025 0.71799 0.32264 0.0
C1086 C 0.81895 0.06732 0.43271 0.0
C1087 C 0.84708 0.07465 0.43019 0.0
C1088 C 0.79709 0.04133 0.4219 0.0
C1089 C 0.80347 0.02262 0.40731 0.0
C1090 C 0.83193 0.03049 0.40387 0.0
C1091 C 0.85334 0.05609 0.41582 0.0
C1092 C 0.76716 0.03342 0.42694 0.0
C1093 C 0.83977 0.01164 0.38793 0.0
C1094 C 0.75097 0.94148 0.40347 0.0
C1095 C 0.73756 0.93986 0.37739 0.0
C1096 C 0.77187 0.96831 0.41368 0.0
C1097 C 0.78046 0.99413 0.39696 0.0
C1098 C 0.76714 0.99255 0.37044 0.0
C1099 C 0.74545 0.96551 0.3612 0.0
C1100 C 0.78467 0.96901 0.44246 0.0
C1101 C 0.77623 0.01932 0.3516 0.0
H1102 H 0.81413 0.08169 0.44383 0.0
H1103 H 0.87505 0.06149 0.41428 0.0
H1104 H 0.75519 0.03025 0.40687 0.0
H1105 H 0.75691 0.01245 0.43903 0.0
H1106 H 0.76571 0.05039 0.43851 0.0
H1107 H 0.86266 0.02223 0.38473 0.0
H1108 H 0.83332 0.99054 0.39939 0.0
H1109 H 0.82856 1.00668 0.36732 0.0
H1110 H 0.74478 0.92171 0.41614 0.0
H1111 H 0.73526 0.96426 0.34095 0.0
H1112 H 0.78316 0.98526 0.45509 0.0
H1113 H 0.80721 0.97581 0.44106 0.0
H1114 H 0.77428 0.94745 0.45354 0.0
H1115 H 0.77352 0.03616 0.3619 0.0
H1116 H 0.7642 0.01438 0.3314 0.0
H1117 H 0.79883 0.02887 0.34747 0.0
C1118 C 0.98656 0.83374 0.48431 0.0
C1119 C 0.95937 0.82029 0.47269 0.0
C1120 C 0.0078 0.83061 0.47241 0.0
C1121 C 1.00141 0.81371 0.44835 0.0
C1122 C 0.97332 0.79799 0.43822 0.0
C1123 C 0.9526 0.80154 0.45056 0.0
C1124 C 0.0374 0.84754 0.48403 0.0
C1125 C 0.9655 0.77943 0.41292 0.0
C1126 C 0.05725 0.83935 0.39444 0.0
C1127 C 0.06755 0.81967 0.39927 0.0
C1128 C 0.03574 0.8376 0.41038 0.0
C1129 C 0.0243 0.81561 0.43159 0.0
C1130 C 0.03437 0.79539 0.43624 0.0
C1131 C 0.05584 0.79761 0.4199 0.0
C1132 C 0.02551 0.85956 0.40476 0.0
C1133 C 0.02283 0.77181 0.45875 0.0
H1134 H 0.99152 0.84831 0.50139 0.0
H1135 H 0.93137 0.79122 0.44181 0.0
H1136 H 0.04828 0.83432 0.48432 0.0
H1137 H 0.0491 0.86716 0.47048 0.0
H1138 H 0.0381 0.85483 0.50544 0.0
H1139 H 0.94246 0.76557 0.41012 0.0
H1140 H 0.97342 0.79378 0.39408 0.0
H1141 H 0.97532 0.76516 0.41444 0.0
H1142 H 0.06644 0.85654 0.37862 0.0
H1143 H 0.06384 0.78237 0.42363 0.0
H1144 H 0.0287 0.87208 0.42373 0.0
H1145 H 1.0027 0.84813 0.39948 0.0
H1146 H 0.03651 0.87519 0.38743 0.0
H1147 H 0.02658 0.78188 0.47934 0.0
H1148 H 0.03256 0.75744 0.4593 0.0
H1149 H 0.99984 0.7582 0.45554 0.0
C1150 C 0.20332 0.16842 0.41553 0.0
C1151 C 0.22781 0.17244 0.43022 0.0
C1152 C 0.19918 0.19212 0.40702 0.0
C1153 C 0.21935 0.22069 0.41463 0.0
C1154 C 0.24356 0.22486 0.43064 0.0
C1155 C 0.24782 0.20078 0.43771 0.0
C1156 C 0.17307 0.1865 0.38997 0.0
C1157 C 0.26483 0.25472 0.44045 0.0
C1158 C 0.2191 0.284 0.37172 0.0
C1159 C 0.20119 0.28983 0.38668 0.0
C1160 C 0.22561 0.26191 0.38083 0.0
C1161 C 0.21463 0.24588 0.40597 0.0
C1162 C 0.1973 0.25248 0.42161 0.0
C1163 C 0.19065 0.27419 0.41168 0.0
C1164 C 0.24313 0.25479 0.36288 0.0
C1165 C 0.18578 0.23686 0.44898 0.0
H1166 H 0.18735 0.14653 0.41047 0.0
H1167 H 0.26696 0.2043 0.44869 0.0
H1168 H 0.15977 0.19222 0.40202 0.0
H1169 H 0.17874 0.20051 0.37073 0.0
H1170 H 0.1605 0.16333 0.38402 0.0
H1171 H 0.28179 0.25414 0.45388 0.0
H1172 H 0.27436 0.26967 0.42232 0.0
H1173 H 0.25432 0.26402 0.45233 0.0
H1174 H 0.22712 0.29592 0.3523 0.0
H1175 H 0.17719 0.279 0.42359 0.0
H1176 H 0.23057 0.23205 0.35576 0.0
H1177 H 0.26152 0.25608 0.37508 0.0
H1178 H 0.25067 0.26971 0.34432 0.0
H1179 H 0.16716 0.23858 0.45443 0.0
H1180 H 0.20221 0.24695 0.46564 0.0
H1181 H 0.17976 0.2134 0.44874 0.0
C1182 C 0.60567 0.51954 0.7611 0.0
C1183 C 0.60403 0.50242 0.785 0.0
C1184 C 0.63152 0.54206 0.75205 0.0
C1185 C 0.6565 0.54776 0.76736 0.0
C1186 C 0.6547 0.53186 0.79272 0.0
C1187 C 0.62842 0.5093 0.80121 0.0
C1188 C 0.63221 0.55841 0.72506 0.0
C1189 C 0.68066 0.53738 0.80994 0.0
C1190 C 0.72172 0.57683 0.72415 0.0
C1191 C 0.735 0.60686 0.72877 0.0
C1192 C 0.69658 0.5574 0.73708 0.0
C1193 C 0.68436 0.56815 0.75525 0.0
C1194 C 0.69798 0.59845 0.76037 0.0
C1195 C 0.72307 0.61743 0.74702 0.0
C1196 C 0.68285 0.52533 0.73093 0.0
C1197 C 0.68586 0.61084 0.77969 0.0
H1198 H 0.58672 0.51412 0.74863 0.0
H1199 H 0.62712 0.49585 0.81957 0.0
H1200 H 0.64491 0.58229 0.7278 0.0
H1201 H 0.64225 0.55242 0.70909 0.0
H1202 H 0.6109 0.55341 0.71711 0.0
H1203 H 0.67553 0.52632 0.83079 0.0
H1204 H 0.69267 0.52916 0.79899 0.0
H1205 H 0.6945 0.56113 0.81267 0.0
H1206 H 0.73092 0.56848 0.71024 0.0
H1207 H 0.7334 0.64059 0.75092 0.0
H1208 H 0.66185 0.51825 0.72088 0.0
H1209 H 0.67978 0.51226 0.75059 0.0
H1210 H 0.6954 0.52029 0.71703 0.0
H1211 H 0.66518 0.60733 0.7712 0.0
H1212 H 0.69969 0.63458 0.78265 0.0
H1213 H 0.68238 0.59933 0.80029 0.0
C1214 C 0.53093 0.14063 0.76217 0.0
C1215 C 0.54559 0.16095 0.78275 0.0
C1216 C 0.50855 0.141 0.747 0.0
C1217 C 0.50069 0.16212 0.75288 0.0
C1218 C 0.51583 0.18308 0.77339 0.0
C1219 C 0.53827 0.18222 0.78818 0.0
C1220 C 0.49277 0.11825 0.7254 0.0
C1221 C 0.50779 0.20577 0.78021 0.0
C1222 C 0.45496 0.17723 0.70018 0.0
C1223 C 0.42871 0.16125 0.71199 0.0
C1224 C 0.47867 0.1775 0.71316 0.0
C1225 C 0.47581 0.16139 0.73842 0.0
C1226 C 0.44915 0.14451 0.74996 0.0
C1227 C 0.42583 0.14463 0.73652 0.0
C1228 C 0.50685 0.19562 0.70031 0.0
C1229 C 0.44536 0.12702 0.77688 0.0
H1230 H 0.53666 0.12399 0.75855 0.0
H1231 H 0.54974 0.19761 0.80439 0.0
H1232 H 0.47091 0.10397 0.73179 0.0
H1233 H 0.49178 0.12888 0.70514 0.0
H1234 H 0.50258 0.10437 0.7224 0.0
H1235 H 0.52239 0.22116 0.79594 0.0
H1236 H 0.50743 0.21841 0.7611 0.0
H1237 H 0.48636 0.19483 0.78835 0.0
H1238 H 0.45712 0.19021 0.68125 0.0
H1239 H 0.40546 0.13233 0.74561 0.0
H1240 H 0.51656 0.18178 0.69685 0.0
H1241 H 0.52112 0.21287 0.71476 0.0
H1242 H 0.50531 0.20618 0.68014 0.0
H1243 H 0.42297 0.1137 0.7821 0.0
H1244 H 0.45665 0.14199 0.79417 0.0
H1245 H 0.45448 0.11227 0.7756 0.0
C1246 C 0.86161 0.37533 0.77248 0.0
C1247 C 0.88001 0.40016 0.75711 0.0
C1248 C 0.85494 0.34713 0.76462 0.0
C1249 C 0.86665 0.34364 0.74051 0.0
C1250 C 0.88504 0.36873 0.72476 0.0
C1251 C 0.89182 0.39668 0.73351 0.0
C1252 C 0.8358 0.32112 0.78242 0.0
C1253 C 0.89787 0.36609 0.69885 0.0
C1254 C 0.87319 0.27496 0.73443 0.0
C1255 C 0.84987 0.25767 0.71722 0.0
C1256 C 0.87865 0.30272 0.74238 0.0
C1257 C 0.86069 0.31389 0.73249 0.0
C1258 C 0.83717 0.29663 0.71497 0.0
C1259 C 0.83188 0.26862 0.70779 0.0
C1260 C 0.90359 0.32001 0.76158 0.0
C1261 C 0.81773 0.30787 0.70363 0.0
H1262 H 0.85273 0.37813 0.79088 0.0
H1263 H 0.90669 0.41592 0.72213 0.0
H1264 H 0.81741 0.3057 0.76976 0.0
H1265 H 0.84699 0.3092 0.79048 0.0
H1266 H 0.82823 0.3275 0.80036 0.0
H1267 H 0.91023 0.3875 0.68794 0.0
H1268 H 0.91183 0.35659 0.70437 0.0
H1269 H 0.88121 0.35108 0.68428 0.0
H1270 H 0.88705 0.2666 0.74216 0.0
H1271 H 0.81384 0.25547 0.69446 0.0
H1272 H 0.89662 0.3254 0.78055 0.0
H1273 H 0.91825 0.34095 0.75118 0.0
H1274 H 0.91516 0.30798 0.76795 0.0
H1275 H 0.80825 0.31265 0.72102 0.0
H1276 H 0.80065 0.29203 0.68991 0.0
H1277 H 0.82974 0.32863 0.69163 0.0
C1278 C 0.17862 1.00019 0.5988 0.0
C1279 C 0.16723 0.97423 0.61498 0.0
C1280 C 0.20033 0.02632 0.60946 0.0
C1281 C 0.21042 0.0267 0.6373 0.0
C1282 C 0.19838 1.00071 0.65401 0.0
C1283 C 0.17719 0.97473 0.64253 0.0
C1284 C 0.21291 0.05335 0.59074 0.0
C1285 C 0.20812 1.00025 0.68391 0.0
C1286 C 0.28392 0.08641 0.65727 0.0
C1287 C 0.27845 0.1071 0.66873 0.0
C1288 C 0.262 0.06018 0.64697 0.0
C1289 C 0.23387 0.05416 0.64874 0.0
C1290 C 0.22822 0.07466 0.66098 0.0
C1291 C 0.25057 0.10102 0.67049 0.0
C1292 C 0.269 0.03926 0.63348 0.0
C1293 C 0.19855 0.06888 0.66377 0.0
H1294 H 0.17071 0.99989 0.57761 0.0
H1295 H 0.16875 0.95462 0.65494 0.0
H1296 H 0.21136 0.07135 0.60016 0.0
H1297 H 0.2355 0.06079 0.58841 0.0
H1298 H 0.20248 0.04953 0.56973 0.0
H1299 H 0.19551 0.97874 0.69456 0.0
H1300 H 0.23038 1.00538 0.68481 0.0
H1301 H 0.20684 0.01726 0.69553 0.0
H1302 H 0.30543 0.09118 0.65543 0.0
H1303 H 0.24619 0.11692 0.67934 0.0
H1304 H 0.26112 0.03634 0.6115 0.0
H1305 H 0.25845 0.01752 0.64418 0.0
H1306 H 0.29189 0.04702 0.63394 0.0
H1307 H 0.18841 0.06731 0.64285 0.0
H1308 H 0.19763 0.08629 0.67512 0.0
H1309 H 0.18613 0.04768 0.67496 0.0
C1310 C 0.07243 0.25204 0.64677 0.0
C1311 C 0.06747 0.23556 0.62322 0.0
C1312 C 0.05017 0.24845 0.66246 0.0
C1313 C 0.02256 0.2279 0.65413 0.0
C1314 C 0.01762 0.21056 0.6307 0.0
C1315 C 0.04035 0.21473 0.61539 0.0
C1316 C 0.05607 0.26739 0.68719 0.0
C1317 C 0.98836 0.1884 0.62129 0.0
C1318 C 0.96213 0.20041 0.70218 0.0
C1319 C 0.94845 0.21561 0.69123 0.0
C1320 C 0.98718 0.20514 0.6911 0.0
C1321 C 0.99859 0.22563 0.66879 0.0
C1322 C 0.98576 0.2424 0.65895 0.0
C1323 C 0.96071 0.23713 0.67034 0.0
C1324 C 1.00039 0.18691 0.70201 0.0
C1325 C 0.99751 0.26458 0.63525 0.0
H1326 H 0.09372 0.26824 0.65229 0.0
H1327 H 0.03705 0.20234 0.59692 0.0
H1328 H 0.04706 0.28223 0.68295 0.0
H1329 H 0.04592 0.25372 0.70585 0.0
H1330 H 0.07888 0.2808 0.69199 0.0
H1331 H 0.98836 0.1756 0.60363 0.0
H1332 H 0.97737 0.17308 0.63877 0.0
H1333 H 0.97612 0.19963 0.61471 0.0
H1334 H 0.95252 0.18372 0.71836 0.0
H1335 H 0.95004 0.24887 0.66195 0.0
H1336 H 0.02316 0.20093 0.70634 0.0
H1337 H 0.99802 0.17136 0.68597 0.0
H1338 H 0.99063 0.17427 0.72131 0.0
H1339 H 0.02022 0.27941 0.63906 0.0
H1340 H 0.98672 0.27789 0.63215 0.0
H1341 H 0.99511 0.25317 0.61569 0.0
C1342 C 0.78488 0.84582 0.6304 0.0
C1343 C 0.79134 0.85945 0.60395 0.0
C1344 C 0.79016 0.82271 0.6383 0.0
C1345 C 0.80105 0.81182 0.61884 0.0
C1346 C 0.80563 0.82402 0.59131 0.0
C1347 C 0.80111 0.848 0.58431 0.0
C1348 C 0.78544 0.81101 0.66799 0.0
C1349 C 0.81623 0.81248 0.56952 0.0
C1350 C 0.84312 0.77591 0.65012 0.0
C1351 C 0.8225 0.74652 0.6526 0.0
C1352 C 0.83661 0.79724 0.63853 0.0
C1353 C 0.80901 0.78892 0.62813 0.0
C1354 C 0.78852 0.75898 0.62915 0.0
C1355 C 0.79535 0.73825 0.64185 0.0
C1356 C 0.85902 0.82887 0.6385 0.0
C1357 C 0.75926 0.74888 0.61713 0.0
H1358 H 0.7767 0.85419 0.64539 0.0
H1359 H 0.80626 0.85848 0.56388 0.0
H1360 H 0.77064 0.78723 0.66848 0.0
H1361 H 0.80551 0.81421 0.67799 0.0
H1362 H 0.77695 0.82192 0.68057 0.0
H1363 H 0.81336 0.82007 0.54821 0.0
H1364 H 0.8389 0.82014 0.57351 0.0
H1365 H 0.80532 0.78826 0.57038 0.0
H1366 H 0.86419 0.78242 0.65821 0.0
H1367 H 0.77949 0.71546 0.64308 0.0
H1368 H 0.85247 0.84149 0.65113 0.0
H1369 H 0.8619 0.83837 0.61704 0.0
H1370 H 0.8795 0.83173 0.64705 0.0
H1371 H 0.74813 0.75675 0.62988 0.0
H1372 H 0.74688 0.72471 0.61642 0.0
H1373 H 0.7601 0.75823 0.59574 0.0
C1374 C 0.06066 0.86684 0.58464 0.0
C1375 C 0.08409 0.87592 0.60286 0.0
C1376 C 0.03461 0.84311 0.5919 0.0
C1377 C 0.03218 0.82811 0.61789 0.0
C1378 C 0.05633 0.83629 0.63554 0.0
C1379 C 0.08194 0.86012 0.6278 0.0
C1380 C 0.00943 0.83503 0.57244 0.0
C1381 C 0.05482 0.82086 0.66329 0.0
C1382 C 0.96346 0.79399 0.65536 0.0
C1383 C 0.95284 0.76418 0.65104 0.0
C1384 C 0.98882 0.81497 0.64401 0.0
C1385 C 1.00413 0.80595 0.62804 0.0
C1386 C 0.99332 0.77584 0.62333 0.0
C1387 C 0.9678 0.75528 0.63498 0.0
C1388 C 0.99941 0.84682 0.64942 0.0
C1389 C 0.00894 0.76531 0.60646 0.0
H1390 H 0.06245 0.87919 0.56537 0.0
H1391 H 0.10025 0.86709 0.64164 0.0
H1392 H 0.99925 0.81149 0.56783 0.0
H1393 H 0.99372 0.83877 0.58254 0.0
H1394 H 0.01503 0.84792 0.55252 0.0
H1395 H 0.07588 0.82808 0.67335 0.0
H1396 H 0.04206 0.82527 0.67745 0.0
H1397 H 0.04441 0.79691 0.66075 0.0
H1398 H 0.95185 0.801 0.66758 0.0
H1399 H 0.95967 0.73223 0.63168 0.0
H1400 H 1.00316 0.85948 0.62942 0.0
H1401 H 0.01972 0.85577 0.66133 0.0
H1402 H 0.98449 0.85031 0.66131 0.0
H1403 H 0.01393 0.77702 0.58594 0.0
H1404 H 0.9968 0.74147 0.60304 0.0
H1405 H 0.02913 0.77018 0.61734 0.0
C1406 C 0.18099 0.27447 0.61025 0.0
C1407 C 0.15866 0.25082 0.59722 0.0
C1408 C 0.20522 0.27312 0.61908 0.0
C1409 C 0.20684 0.24754 0.61448 0.0
C1410 C 0.18519 0.22465 0.59912 0.0
C1411 C 0.16113 0.22652 0.59082 0.0
C1412 C 0.22803 0.29804 0.63515 0.0
C1413 C 0.18651 0.19733 0.59329 0.0
C1414 C 0.2747 0.24544 0.62886 0.0
C1415 C 0.26994 0.23119 0.65505 0.0
C1416 C 0.25456 0.25145 0.61545 0.0
C1417 C 0.22921 0.24304 0.62873 0.0
C1418 C 0.22465 0.22931 0.65553 0.0
C1419 C 0.24512 0.22345 0.66837 0.0
C1420 C 0.26002 0.2658 0.58677 0.0
C1421 C 0.19788 0.22023 0.67038 0.0
H1422 H 0.17863 0.29309 0.61515 0.0
H1423 H 0.14358 0.20844 0.5806 0.0
H1424 H 0.22794 0.29115 0.65735 0.0
H1425 H 0.24889 0.30403 0.62725 0.0
H1426 H 0.22518 0.31767 0.63389 0.0
H1427 H 0.16977 0.1834 0.57816 0.0
H1428 H 0.20714 0.20296 0.58503 0.0
H1429 H 0.18413 0.18441 0.61295 0.0
H1430 H 0.29395 0.25136 0.61857 0.0
H1431 H 0.24152 0.21242 0.68863 0.0
H1432 H 0.25393 0.28319 0.58497 0.0
H1433 H 0.24715 0.24928 0.57113 0.0
H1434 H 0.28238 0.27544 0.58151 0.0
H1435 H 0.19445 0.23929 0.67219 0.0
H1436 H 0.19811 0.21083 0.69157 0.0
H1437 H 0.17978 0.20372 0.65816 0.0
C1438 C 0.79392 0.95672 0.64646 0.0
C1439 C 0.80031 0.95716 0.6186 0.0
C1440 C 0.798 0.98219 0.65901 0.0
C1441 C 0.80811 1.00868 0.64312 0.0
C1442 C 0.81466 1.00926 0.61493 0.0
C1443 C 0.81102 0.9836 0.60316 0.0
C1444 C 0.79132 0.9807 0.68924 0.0
C1445 C 0.82516 0.03692 0.5971 0.0
C1446 C 0.79352 0.06813 0.66714 0.0
C1447 C 0.81975 0.08824 0.67838 0.0
C1448 C 0.7894 0.04213 0.65563 0.0
C1449 C 0.81189 0.03578 0.65594 0.0
C1450 C 0.83817 0.05565 0.66805 0.0
C1451 C 0.84186 0.08175 0.67879 0.0
C1452 C 0.76124 0.02188 0.64237 0.0
C1453 C 0.86253 0.04952 0.66936 0.0
H1454 H 0.78526 0.93625 0.65832 0.0
H1455 H 0.81633 0.98407 0.58174 0.0
H1456 H 0.80989 0.99709 0.70103 0.0
H1457 H 0.7742 0.98608 0.69116 0.0
H1458 H 0.78482 0.95877 0.69903 0.0
H1459 H 0.82849 0.03353 0.57535 0.0
H1460 H 0.80993 0.04525 0.59674 0.0
H1461 H 0.84522 0.05411 0.60607 0.0
H1462 H 0.77647 0.07321 0.66637 0.0
H1463 H 0.86219 0.0972 0.68748 0.0
H1464 H 0.75269 0.99977 0.65228 0.0
H1465 H 0.76364 0.01975 0.62002 0.0
H1466 H 0.74582 0.02975 0.64409 0.0
H1467 H 0.8563 0.02783 0.67953 0.0
H1468 H 0.88104 0.06629 0.68097 0.0
H1469 H 0.86875 0.04886 0.648 0.0
C1470 C 0.51033 0.37782 0.78317 0.0
C1471 C 0.52154 0.40475 0.76854 0.0
C1472 C 0.48891 0.35231 0.77121 0.0
C1473 C 0.47907 0.35356 0.74356 0.0
C1474 C 0.491 0.38054 0.72838 0.0
C1475 C 0.51178 0.40586 0.7412 0.0
C1476 C 0.47644 0.32414 0.78835 0.0
C1477 C 0.48157 0.38274 0.69869 0.0
C1478 C 0.43994 0.28148 0.70631 0.0
C1479 C 0.41196 0.275 0.70817 0.0
C1480 C 0.46201 0.30731 0.71707 0.0
C1481 C 0.45595 0.32676 0.73076 0.0
C1482 C 0.4277 0.3203 0.73268 0.0
C1483 C 0.40608 0.2947 0.72104 0.0
C1484 C 0.49182 0.31367 0.714 0.0
C1485 C 0.42026 0.34002 0.74774 0.0
H1486 H 0.51811 0.37687 0.80418 0.0
H1487 H 0.52009 0.42669 0.73 0.0
H1488 H 0.45355 0.31556 0.78993 0.0
H1489 H 0.4793 0.30739 0.77804 0.0
H1490 H 0.48604 0.32696 0.8097 0.0
H1491 H 0.49418 0.40489 0.68919 0.0
H1492 H 0.48316 0.36665 0.68588 0.0
H1493 H 0.45926 0.37743 0.69792 0.0
H1494 H 0.44459 0.26631 0.69637 0.0
H1495 H 0.38447 0.28955 0.72296 0.0
H1496 H 0.50174 0.31397 0.73481 0.0
H1497 H 0.50423 0.33557 0.70402 0.0
H1498 H 0.49308 0.29722 0.70139 0.0
H1499 H 0.42799 0.34173 0.76974 0.0
H1500 H 0.39731 0.33196 0.74736 0.0
H1501 H 0.43066 0.36234 0.7382 0.0
C1502 C 0.64426 0.14683 0.80938 0.0
C1503 C 0.61658 0.13237 0.79926 0.0
C1504 C 0.66515 0.14418 0.79624 0.0
C1505 C 0.6578 0.12654 0.77261 0.0
C1506 C 0.62931 0.10971 0.76413 0.0
C1507 C 0.60899 0.11294 0.77759 0.0
C1508 C 0.6952 0.16169 0.80653 0.0
C1509 C 0.62054 0.09043 0.73927 0.0
C1510 C 0.71172 0.15372 0.71675 0.0
C1511 C 0.72398 0.13583 0.72186 0.0
C1512 C 0.68978 0.15051 0.73291 0.0
C1513 C 0.67994 0.12883 0.75457 0.0
C1514 C 0.69154 0.10996 0.75907 0.0
C1515 C 0.71349 0.11371 0.74263 0.0
C1516 C 0.67785 0.17106 0.72752 0.0
C1517 C 0.68143 0.08648 0.78177 0.0
H1518 H 0.64976 0.16187 0.82615 0.0
H1519 H 0.58739 0.10207 0.76987 0.0
H1520 H 0.70323 0.14659 0.81371 0.0
H1521 H 0.70849 0.17573 0.78942 0.0
H1522 H 0.69751 0.17571 0.82408 0.0
H1523 H 0.59757 0.07549 0.73817 0.0
H1524 H 0.62645 0.10427 0.71993 0.0
H1525 H 0.63146 0.07724 0.73987 0.0
H1526 H 0.71997 0.17095 0.70084 0.0
H1527 H 0.72309 0.09993 0.74669 0.0
H1528 H 0.68163 0.18423 0.74617 0.0
H1529 H 0.65485 0.15848 0.72365 0.0
H1530 H 0.68728 0.18616 0.7094 0.0
H1531 H 0.68667 0.0967 0.80238 0.0
H1532 H 0.69106 0.07211 0.78103 0.0
H1533 H 0.65831 0.07285 0.7801 0.0
C1534 C 0.90726 0.52669 0.76963 0.0
C1535 C 0.88634 0.49798 0.7646 0.0
C1536 C 0.90274 0.55066 0.76301 0.0
C1537 C 0.87754 0.54619 0.74872 0.0
C1538 C 0.85649 0.51719 0.74327 0.0
C1539 C 0.8606 0.49366 0.75269 0.0
C1540 C 0.9254 0.58065 0.7711 0.0
C1541 C 0.82962 0.5102 0.72694 0.0
C1542 C 0.85068 0.6015 0.74327 0.0
C1543 C 0.86415 0.61858 0.71976 0.0
C1544 C 0.85537 0.57843 0.75329 0.0
C1545 C 0.87339 0.5716 0.73903 0.0
C1546 C 0.8866 0.58846 0.71491 0.0
C1547 C 0.88236 0.61213 0.70601 0.0
C1548 C 0.84098 0.5613 0.77913 0.0
C1549 C 0.90465 0.58116 0.69792 0.0
H1550 H 0.92745 0.53075 0.77823 0.0
H1551 H 0.84374 0.47166 0.74972 0.0
H1552 H 0.9413 0.58977 0.75485 0.0
H1553 H 0.91708 0.59593 0.77361 0.0
H1554 H 0.93629 0.57941 0.79091 0.0
H1555 H 0.82543 0.49367 0.71123 0.0
H1556 H 0.81185 0.50024 0.7412 0.0
H1557 H 0.82982 0.52946 0.716 0.0
H1558 H 0.83652 0.60629 0.75399 0.0
H1559 H 0.89254 0.62494 0.6876 0.0
H1560 H 0.85691 0.5623 0.79507 0.0
H1561 H 0.82724 0.53804 0.77441 0.0
H1562 H 0.82779 0.56941 0.78796 0.0
H1563 H 0.92578 0.58989 0.70806 0.0
H1564 H 0.90713 0.59097 0.67654 0.0
H1565 H 0.89567 0.55718 0.69639 0.0
C1566 C 0.45108 0.90412 0.16961 0.0
C1567 C 0.4546 0.90855 0.19816 0.0
C1568 C 0.46459 0.92748 0.15065 0.0
C1569 C 0.48238 0.95585 0.16081 0.0
C1570 C 0.48597 0.9603 0.18981 0.0
C1571 C 0.47186 0.93648 0.20819 0.0
C1572 C 0.45847 0.92118 0.12002 0.0
C1573 C 0.50405 0.99025 0.20136 0.0
C1574 C 0.53669 1.00859 0.11134 0.0
C1575 C 0.52131 0.01988 0.09608 0.0
C1576 C 0.52489 0.98875 0.13364 0.0
C1577 C 0.4973 0.9807 0.14108 0.0
C1578 C 0.48292 0.9945 0.12755 0.0
C1579 C 0.49513 0.01395 0.10503 0.0
C1580 C 0.54196 0.97604 0.14827 0.0
C1581 C 0.45406 0.98747 0.13594 0.0
H1582 H 0.43694 0.88246 0.16216 0.0
H1583 H 0.4735 0.93975 0.23037 0.0
H1584 H 0.47058 0.9402 0.10602 0.0
H1585 H 0.46263 0.90322 0.11503 0.0
H1586 H 0.43583 0.91333 0.11533 0.0
H1587 H 0.50248 0.99039 0.22425 0.0
H1588 H 0.52626 0.998 0.1967 0.0
H1589 H 0.49797 1.00601 0.19129 0.0
H1590 H 0.55728 0.0137 0.10478 0.0
H1591 H 0.48385 0.02374 0.09381 0.0
H1592 H 0.52896 0.95471 0.15894 0.0
H1593 H 0.55621 0.99151 0.1641 0.0
H1594 H 0.55531 0.97332 0.13341 0.0
H1595 H 0.43888 0.96462 0.1307 0.0
H1596 H 0.44693 1.00217 0.1253 0.0
H1597 H 0.45384 0.98922 0.15879 0.0
C1598 C 0.11716 0.56313 0.19851 0.0
C1599 C 0.10417 0.54921 0.22331 0.0
C1600 C 0.10287 0.55465 0.17268 0.0
C1601 C 0.07507 0.53128 0.17168 0.0
C1602 C 0.06337 0.51469 0.19636 0.0
C1603 C 0.07797 0.5241 0.22208 0.0
C1604 C 0.11644 0.57261 0.1469 0.0
C1605 C 0.03444 0.48858 0.19588 0.0
C1606 C 0.02543 0.54196 0.11999 0.0
C1607 C 0.02499 0.5262 0.09725 0.0
C1608 C 0.04141 0.5434 0.14429 0.0
C1609 C 0.05683 0.52798 0.14632 0.0
C1610 C 0.05581 0.51127 0.12363 0.0
C1611 C 0.04018 0.51094 0.09921 0.0
C1612 C 0.04263 0.56244 0.16741 0.0
C1613 C 0.07163 0.4943 0.1244 0.0
H1614 H 0.13752 0.5825 0.19968 0.0
H1615 H 0.068 0.51337 0.2413 0.0
H1616 H 0.11474 0.55816 0.13004 0.0
H1617 H 0.10536 0.58483 0.1394 0.0
H1618 H 0.1389 0.58852 0.1508 0.0
H1619 H 0.03045 0.47506 0.21539 0.0
H1620 H 0.01858 0.49608 0.19338 0.0
H1621 H 0.03161 0.47484 0.17794 0.0
H1622 H 0.01388 0.554 0.11848 0.0
H1623 H 0.03976 0.49859 0.08177 0.0
H1624 H 0.0645 0.58013 0.17071 0.0
H1625 H 0.0361 0.54946 0.18718 0.0
H1626 H 0.02902 0.57255 0.16277 0.0
H1627 H 0.09128 0.50709 0.11301 0.0
H1628 H 0.05918 0.47335 0.11362 0.0
H1629 H 0.07705 0.48952 0.14589 0.0
C1630 C 0.47045 0.53197 0.22556 0.0
C1631 C 0.45658 0.54849 0.22312 0.0
C1632 C 0.47528 0.52062 0.202 0.0
C1633 C 0.46586 0.52593 0.1754 0.0
C1634 C 0.44915 0.53993 0.17332 0.0
C1635 C 0.4449 0.55131 0.1973 0.0
C1636 C 0.49296 0.50564 0.20531 0.0
C1637 C 0.43806 0.54529 0.14548 0.0
C1638 C 0.51645 0.54132 0.11799 0.0
C1639 C 0.50385 0.51505 0.10385 0.0
C1640 C 0.50384 0.54523 0.14075 0.0
C1641 C 0.47804 0.52209 0.14999 0.0
C1642 C 0.46515 0.49541 0.13581 0.0
C1643 C 0.47827 0.4922 0.11287 0.0
C1644 C 0.51849 0.57406 0.15522 0.0
C1645 C 0.43768 0.4703 0.14499 0.0
H1646 H 0.47962 0.53015 0.24564 0.0
H1647 H 0.43432 0.5643 0.19561 0.0
H1648 H 0.48412 0.48603 0.19238 0.0
H1649 H 0.51435 0.52078 0.19813 0.0
H1650 H 0.49469 0.49901 0.22733 0.0
H1651 H 0.42324 0.55385 0.14766 0.0
H1652 H 0.45575 0.56132 0.13292 0.0
H1653 H 0.4273 0.52483 0.13376 0.0
H1654 H 0.53619 0.55911 0.11106 0.0
H1655 H 0.46886 0.47163 0.1024 0.0
H1656 H 0.52557 0.57075 0.17651 0.0
H1657 H 0.50389 0.58285 0.15738 0.0
H1658 H 0.53699 0.59066 0.14389 0.0
H1659 H 0.43884 0.46539 0.16757 0.0
H1660 H 0.43167 0.4502 0.13343 0.0
H1661 H 0.42089 0.47638 0.14161 0.0
C1662 C 0.90233 0.48059 0.84163 0.0
C1663 C 0.91602 0.486 0.81654 0.0
C1664 C 0.91751 0.49195 0.86671 0.0
C1665 C 0.94713 0.50902 0.86659 0.0
C1666 C 0.96072 0.51622 0.84089 0.0
C1667 C 0.94506 0.5042 0.81631 0.0
C1668 C 0.90207 0.48345 0.89354 0.0
C1669 C 0.99212 0.53465 0.83961 0.0
C1670 C 0.98927 0.54723 0.93217 0.0
C1671 C 0.99837 0.52763 0.94251 0.0
C1672 C 0.97247 0.54157 0.9075 0.0
C1673 C 0.96424 0.51545 0.89326 0.0
C1674 C 0.97312 0.49545 0.90407 0.0
C1675 C 0.99019 0.50189 0.92843 0.0
C1676 C 0.96333 0.56334 0.89683 0.0
C1677 C 0.96447 0.46707 0.89001 0.0
H1678 H 0.87999 0.46572 0.84187 0.0
H1679 H 0.95567 0.5075 0.79702 0.0
H1680 H 0.90488 0.46578 0.9044 0.0
H1681 H 0.91053 0.50213 0.90763 0.0
H1682 H 0.87927 0.4754 0.88978 0.0
H1683 H 0.99895 0.54181 0.81795 0.0
H1684 H 0.99971 0.55424 0.8524 0.0
H1685 H 1.00223 0.52185 0.84825 0.0
H1686 H 0.99531 0.56695 0.94332 0.0
H1687 H 0.99675 0.48645 0.93685 0.0
H1688 H 0.94033 0.5536 0.89853 0.0
H1689 H 0.96805 0.56884 0.87451 0.0
H1690 H 0.9737 0.58379 0.90866 0.0
H1691 H 0.94128 0.45426 0.8881 0.0
H1692 H 0.9724 0.45348 0.90158 0.0
H1693 H 0.9725 0.47159 0.86865 0.0
C1694 C 0.57148 0.47518 0.86185 0.0
C1695 C 0.56615 0.48455 0.83554 0.0
C1696 C 0.56413 0.48317 0.88619 0.0
C1697 C 0.551 0.50084 0.88405 0.0
C1698 C 0.54803 0.51255 0.85761 0.0
C1699 C 0.55572 0.50427 0.83365 0.0
C1700 C 0.56802 0.47048 0.91392 0.0
C1701 C 0.53404 0.53133 0.85426 0.0
C1702 C 0.49555 0.48338 0.93721 0.0
C1703 C 0.50935 0.50645 0.95552 0.0
C1704 C 0.50881 0.4816 0.91379 0.0
C1705 C 0.53672 0.50333 0.90856 0.0
C1706 C 0.55067 0.52688 0.92685 0.0
C1707 C 0.53668 0.52831 0.94994 0.0
C1708 C 0.49299 0.45616 0.89481 0.0
C1709 C 0.58048 0.55024 0.92229 0.0
H1710 H 0.57907 0.45949 0.86313 0.0
H1711 H 0.55103 0.51088 0.81321 0.0
H1712 H 0.57921 0.48809 0.92906 0.0
H1713 H 0.5473 0.45516 0.92246 0.0
H1714 H 0.5799 0.45845 0.91222 0.0
H1715 H 0.5371 0.54219 0.83331 0.0
H1716 H 0.51122 0.51751 0.85719 0.0
H1717 H 0.54223 0.54827 0.87024 0.0
H1718 H 0.47442 0.46641 0.94142 0.0
H1719 H 0.54708 0.54661 0.96358 0.0
H1720 H 0.50398 0.44307 0.89458 0.0
H1721 H 0.49226 0.46428 0.87319 0.0
H1722 H 0.4712 0.44158 0.90134 0.0
H1723 H 0.59455 0.54047 0.92476 0.0
H1724 H 0.58768 0.56818 0.93717 0.0
H1725 H 0.5826 0.5596 0.90079 0.0
C1726 C 0.56469 0.08119 0.83872 0.0
C1727 C 0.57781 0.11 0.84749 0.0
C1728 C 0.55293 0.05775 0.85805 0.0
C1729 C 0.55401 0.0636 0.88658 0.0
C1730 C 0.56956 0.09272 0.8956 0.0
C1731 C 0.58141 0.11559 0.87584 0.0
C1732 C 0.53728 0.02707 0.84758 0.0
C1733 C 0.57119 0.10018 0.92573 0.0
C1734 C 0.49386 0.01824 0.93368 0.0
C1735 C 0.50617 1.00612 0.95242 0.0
C1736 C 0.5086 0.03549 0.91078 0.0
C1737 C 0.53601 0.04027 0.90657 0.0
C1738 C 0.54729 0.02565 0.92394 0.0
C1739 C 0.53214 1.00865 0.94673 0.0
C1740 C 0.4956 0.05015 0.89216 0.0
C1741 C 0.57602 0.02948 0.91944 0.0
H1742 H 0.5616 0.0771 0.81664 0.0
H1743 H 0.59132 0.13803 0.88228 0.0
H1744 H 0.53956 0.01138 0.86246 0.0
H1745 H 0.51466 0.02035 0.84512 0.0
H1746 H 0.54472 0.02563 0.82702 0.0
H1747 H 0.58896 0.1222 0.93009 0.0
H1748 H 0.55149 0.09992 0.93076 0.0
H1749 H 0.57347 0.08395 0.93971 0.0
H1750 H 0.47363 0.016 0.93798 0.0
H1751 H 0.54124 0.99851 0.96094 0.0
H1752 H 0.49382 0.04323 0.87045 0.0
H1753 H 0.50922 0.07417 0.89215 0.0
H1754 H 0.47445 0.04486 0.89876 0.0
H1755 H 0.57677 0.02268 0.89823 0.0
H1756 H 0.58182 0.01662 0.93488 0.0
H1757 H 0.59194 0.05286 0.92084 0.0
C1758 C 0.1529 0.28035 0.53715 0.0
C1759 C 0.1441 0.28954 0.55937 0.0
C1760 C 0.16517 0.29921 0.51434 0.0
C1761 C 0.16831 0.3277 0.51389 0.0
C1762 C 0.16196 0.33792 0.53758 0.0
C1763 C 0.15001 0.31863 0.56023 0.0
C1764 C 0.17224 0.28763 0.48974 0.0
C1765 C 0.16544 0.36827 0.53806 0.0
C1766 C 0.20539 0.37476 0.45131 0.0
C1767 C 0.18261 0.36757 0.43252 0.0
C1768 C 0.20113 0.36337 0.47872 0.0
C1769 C 0.17349 0.34448 0.48717 0.0
C1770 C 0.15043 0.33909 0.46877 0.0
C1771 C 0.15537 0.3508 0.44162 0.0
C1772 C 0.22618 0.36971 0.4978 0.0
C1773 C 0.12057 0.31931 0.47708 0.0
H1774 H 0.1484 0.25781 0.53682 0.0
H1775 H 0.1438 0.32573 0.57798 0.0
H1776 H 0.15548 0.28193 0.4733 0.0
H1777 H 0.19222 0.30428 0.48074 0.0
H1778 H 0.17399 0.26777 0.49561 0.0
H1779 H 0.1646 0.37457 0.55951 0.0
H1780 H 0.18557 0.38455 0.52905 0.0
H1781 H 0.14833 0.36914 0.5252 0.0
H1782 H 0.22655 0.38765 0.44409 0.0
H1783 H 0.13794 0.34599 0.42721 0.0
H1784 H 0.22956 0.35043 0.49913 0.0
H1785 H 0.22264 0.37388 0.51916 0.0
H1786 H 0.24555 0.3888 0.49013 0.0
H1787 H 0.11678 0.29651 0.4796 0.0
H1788 H 0.10511 0.31978 0.46133 0.0
H1789 H 0.1168 0.32568 0.49734 0.0
C1790 C 0.77526 0.88217 0.5282 0.0
C1791 C 0.76248 0.87517 0.55394 0.0
C1792 C 0.75917 0.87442 0.50316 0.0
C1793 C 0.72953 0.85954 0.50398 0.0
C1794 C 0.71666 0.85006 0.53005 0.0
C1795 C 0.73335 0.85794 0.55474 0.0
C1796 C 0.77385 0.88413 0.47586 0.0
C1797 C 0.68521 0.83421 0.53202 0.0
C1798 C 0.69156 0.88054 0.44609 0.0
C1799 C 0.68151 0.85687 0.42844 0.0
C1800 C 0.70697 0.88145 0.47075 0.0
C1801 C 0.71233 0.85799 0.47815 0.0
C1802 C 0.70178 0.83377 0.46062 0.0
C1803 C 0.68635 0.83344 0.43604 0.0
C1804 C 0.71786 0.90778 0.48874 0.0
C1805 C 0.70685 0.80831 0.46782 0.0
H1806 H 0.79779 0.8959 0.52773 0.0
H1807 H 0.72355 0.8532 0.57469 0.0
H1808 H 0.76961 0.86469 0.46409 0.0
H1809 H 0.76572 0.89669 0.46284 0.0
H1810 H 0.79686 0.89793 0.47888 0.0
H1811 H 0.67859 0.82407 0.55303 0.0
H1812 H 0.67721 0.84991 0.52766 0.0
H1813 H 0.67531 0.817 0.51634 0.0
H1814 H 0.68791 0.89873 0.44029 0.0
H1815 H 0.67803 0.8148 0.42275 0.0
H1816 H 0.7409 0.91768 0.49202 0.0
H1817 H 0.70848 0.90099 0.50949 0.0
H1818 H 0.71297 0.92474 0.47946 0.0
H1819 H 0.72965 0.81607 0.47071 0.0
H1820 H 0.69817 0.79163 0.45152 0.0
H1821 H 0.69711 0.7978 0.48781 0.0
C1822 C 0.13326 0.87045 0.55864 0.0
C1823 C 0.12183 0.88915 0.5541 0.0
C1824 C 0.13909 0.85848 0.53616 0.0
C1825 C 0.13307 0.86532 0.50863 0.0
C1826 C 0.11877 0.88174 0.50424 0.0
C1827 C 0.11352 0.89371 0.52713 0.0
C1828 C 0.1544 0.84119 0.54184 0.0
C1829 C 0.11138 0.88886 0.47524 0.0
C1830 C 0.18568 0.8785 0.45408 0.0
C1831 C 0.17184 0.85316 0.43859 0.0
C1832 C 0.17332 0.88244 0.477 0.0
C1833 C 0.14637 0.86039 0.48478 0.0
C1834 C 0.13246 0.83444 0.46956 0.0
C1835 C 0.14548 0.83105 0.44666 0.0
C1836 C 0.1891 0.91038 0.49278 0.0
C1837 C 0.10381 0.81049 0.47734 0.0
H1838 H 0.13999 0.86745 0.5796 0.0
H1839 H 0.10488 0.90843 0.52387 0.0
H1840 H 0.14616 0.82228 0.52805 0.0
H1841 H 0.1769 0.85533 0.53752 0.0
H1842 H 0.15277 0.83316 0.56385 0.0
H1843 H 0.10048 0.90206 0.47533 0.0
H1844 H 0.13059 0.90111 0.46315 0.0
H1845 H 0.0978 0.86839 0.46414 0.0
H1846 H 0.20612 0.89563 0.44797 0.0
H1847 H 0.13519 0.81104 0.43528 0.0
H1848 H 0.19339 0.90529 0.51458 0.0
H1849 H 0.17625 0.92145 0.49349 0.0
H1850 H 0.20933 0.92583 0.48331 0.0
H1851 H 0.09675 0.79075 0.46487 0.0
H1852 H 0.08843 0.81854 0.47411 0.0
H1853 H 0.1038 0.80422 0.49971 0.0
C1854 C 0.61547 0.83437 0.15276 0.0
C1855 C 0.58618 0.81926 0.15238 0.0
C1856 C 0.63115 0.84499 0.1776 0.0
C1857 C 0.61712 0.83973 0.20285 0.0
C1858 C 0.58746 0.82644 0.20221 0.0
C1859 C 0.5723 0.81641 0.17685 0.0
C1860 C 0.66267 0.85928 0.17715 0.0
C1861 C 0.57176 0.82045 0.22865 0.0
C1862 C 0.65395 0.82328 0.26477 0.0
C1863 C 0.66599 0.84935 0.27921 0.0
C1864 C 0.6374 0.81974 0.24044 0.0
C1865 C 0.63309 0.84308 0.22987 0.0
C1866 C 0.64521 0.86955 0.24434 0.0
C1867 C 0.66159 0.87239 0.2689 0.0
C1868 C 0.62493 0.79106 0.2258 0.0
C1869 C 0.64114 0.8949 0.23372 0.0
H1870 H 0.62603 0.83593 0.13385 0.0
H1871 H 0.54962 0.80418 0.17649 0.0
H1872 H 0.67253 0.87865 0.19043 0.0
H1873 H 0.66961 0.84362 0.18563 0.0
H1874 H 0.67041 0.86613 0.15572 0.0
H1875 H 0.54874 0.80993 0.22465 0.0
H1876 H 0.57646 0.80597 0.24296 0.0
H1877 H 0.57876 0.84112 0.23953 0.0
H1878 H 0.65719 0.80534 0.27269 0.0
H1879 H 0.6714 0.89279 0.27969 0.0
H1880 H 0.63531 0.79438 0.20576 0.0
H1881 H 0.60229 0.7828 0.22094 0.0
H1882 H 0.62745 0.77405 0.23843 0.0
H1883 H 0.64796 0.90086 0.21196 0.0
H1884 H 0.65298 0.91443 0.24665 0.0
H1885 H 0.61858 0.88853 0.23358 0.0
C1886 C 0.22054 0.8382 0.16779 0.0
C1887 C 0.23028 0.81788 0.16975 0.0
C1888 C 0.21287 0.8467 0.19166 0.0
C1889 C 0.21519 0.83466 0.21816 0.0
C1890 C 0.22745 0.81617 0.2204 0.0
C1891 C 0.23474 0.80793 0.19615 0.0
C1892 C 0.19972 0.86625 0.18814 0.0
C1893 C 0.2306 0.80305 0.24816 0.0
C1894 C 0.20277 0.86436 0.2838 0.0
C1895 C 0.17522 0.84335 0.28974 0.0
C1896 C 0.2162 0.86189 0.2607 0.0
C1897 C 0.20147 0.83817 0.24272 0.0
C1898 C 0.17335 0.81731 0.24829 0.0
C1899 C 0.16066 0.82009 0.27173 0.0
C1900 C 0.24627 0.88433 0.25586 0.0
C1901 C 0.15665 0.79181 0.2296 0.0
H1902 H 0.2164 0.84522 0.14731 0.0
H1903 H 0.24168 0.79171 0.19752 0.0
H1904 H 0.17688 0.8531 0.19132 0.0
H1905 H 0.20851 0.88342 0.20391 0.0
H1906 H 0.20287 0.87687 0.16708 0.0
H1907 H 0.24234 0.79084 0.24669 0.0
H1908 H 0.24156 0.82042 0.26357 0.0
H1909 H 0.20962 0.78778 0.25621 0.0
H1910 H 0.21379 0.88283 0.29714 0.0
H1911 H 0.13935 0.80376 0.27616 0.0
H1912 H 0.24872 0.89298 0.23407 0.0
H1913 H 0.25972 0.87389 0.25914 0.0
H1914 H 0.25395 0.90289 0.27008 0.0
H1915 H 0.15619 0.79981 0.20787 0.0
H1916 H 0.13475 0.77809 0.23623 0.0
H1917 H 0.16676 0.77786 0.22958 0.0
C1918 C 0.22922 0.40595 0.16788 0.0
C1919 C 0.24118 0.43506 0.17551 0.0
C1920 C 0.21998 0.38338 0.18822 0.0
C1921 C 0.2227 0.39043 0.21657 0.0
C1922 C 0.23789 0.42004 0.22428 0.0
C1923 C 0.24685 0.44209 0.2035 0.0
C1924 C 0.2046 0.35216 0.17918 0.0
C1925 C 0.24183 0.42858 0.25432 0.0
C1926 C 0.16387 0.34879 0.26561 0.0
C1927 C 0.17599 0.33685 0.28471 0.0
C1928 C 0.17809 0.36443 0.24195 0.0
C1929 C 0.20506 0.36809 0.23746 0.0
C1930 C 0.21625 0.35378 0.25549 0.0
C1931 C 0.20153 0.33835 0.27917 0.0
C1932 C 0.16542 0.37949 0.22337 0.0
C1933 C 0.24445 0.35636 0.25074 0.0
H1934 H 0.22483 0.40084 0.14604 0.0
H1935 H 0.25606 0.46476 0.20904 0.0
H1936 H 0.20964 0.33794 0.19353 0.0
H1937 H 0.1817 0.34402 0.17962 0.0
H1938 H 0.20977 0.35018 0.15769 0.0
H1939 H 0.25854 0.45152 0.25708 0.0
H1940 H 0.22193 0.42634 0.2616 0.0
H1941 H 0.24723 0.41405 0.26774 0.0
H1942 H 0.14435 0.34802 0.27043 0.0
H1943 H 0.2109 0.3293 0.29434 0.0
H1944 H 0.16645 0.37557 0.20117 0.0
H1945 H 0.17754 0.40341 0.22627 0.0
H1946 H 0.14323 0.37199 0.22806 0.0
H1947 H 0.24321 0.34512 0.23142 0.0
H1948 H 0.25151 0.34654 0.26826 0.0
H1949 H 0.26051 0.37958 0.24775 0.0
C1950 C 0.8208 0.59467 0.86103 0.0
C1951 C 0.80078 0.59472 0.87783 0.0
C1952 C 0.83641 0.61865 0.84334 0.0
C1953 C 0.83067 0.64228 0.84159 0.0
C1954 C 0.81314 0.64397 0.86102 0.0
C1955 C 0.79867 0.62022 0.87933 0.0
C1956 C 0.85779 0.61804 0.82532 0.0
C1957 C 0.80797 0.66975 0.86092 0.0
C1958 C 0.87086 0.6998 0.78636 0.0
C1959 C 0.85196 0.68936 0.76348 0.0
C1960 C 0.86371 0.68603 0.81272 0.0
C1961 C 0.83738 0.66077 0.81584 0.0
C1962 C 0.81786 0.65096 0.79299 0.0
C1963 C 0.82542 0.66562 0.76721 0.0
C1964 C 0.885 0.69782 0.83652 0.0
C1965 C 0.7897 0.62371 0.79517 0.0
H1966 H 0.8232 0.57534 0.86072 0.0
H1967 H 0.78456 0.62096 0.89379 0.0
H1968 H 0.85202 0.61931 0.80304 0.0
H1969 H 0.87849 0.6374 0.82932 0.0
H1970 H 0.85995 0.59816 0.82942 0.0
H1971 H 0.79863 0.67058 0.88053 0.0
H1972 H 0.82779 0.69046 0.85792 0.0
H1973 H 0.7933 0.66812 0.84332 0.0
H1974 H 0.89155 0.71828 0.78349 0.0
H1975 H 0.81134 0.6571 0.74954 0.0
H1976 H 0.90014 0.68954 0.83536 0.0
H1977 H 0.87524 0.69126 0.85711 0.0
H1978 H 0.89707 0.72203 0.83492 0.0
H1979 H 0.79278 0.60448 0.80004 0.0
H1980 H 0.77673 0.61962 0.77564 0.0
H1981 H 0.77789 0.62548 0.81228 0.0
C1982 C 0.44901 0.21636 0.86554 0.0
C1983 C 0.43408 0.20833 0.89007 0.0
C1984 C 0.43496 0.20946 0.83932 0.0
C1985 C 0.40525 0.19461 0.83772 0.0
C1986 C 0.39028 0.18405 0.86259 0.0
C1987 C 0.40492 0.19099 0.88845 0.0
C1988 C 0.45182 0.22063 0.81342 0.0
C1989 C 0.35867 0.16826 0.86205 0.0
C1990 C 0.36979 0.21811 0.77936 0.0
C1991 C 0.35882 0.1944 0.76166 0.0
C1992 C 0.38523 0.21852 0.80382 0.0
C1993 C 0.38997 0.1946 0.81089 0.0
C1994 C 0.37918 0.17068 0.79292 0.0
C1995 C 0.36353 0.17077 0.76861 0.0
C1996 C 0.39608 0.24446 0.82235 0.0
C1997 C 0.38421 0.14507 0.79938 0.0
H1998 H 0.47152 0.2303 0.86686 0.0
H1999 H 0.39343 0.18551 0.90744 0.0
H2000 H 0.44352 0.20362 0.79748 0.0
H2001 H 0.45017 0.23969 0.8044 0.0
H2002 H 0.47432 0.22754 0.8179 0.0
H2003 H 0.35033 0.15775 0.88254 0.0
H2004 H 0.35103 0.18409 0.85652 0.0
H2005 H 0.35006 0.15134 0.84604 0.0
H2006 H 0.36633 0.23651 0.77405 0.0
H2007 H 0.35459 0.15214 0.7553 0.0
H2008 H 0.41905 0.25405 0.82606 0.0
H2009 H 0.38622 0.23728 0.84286 0.0
H2010 H 0.39162 0.26179 0.81329 0.0
H2011 H 0.37737 0.13599 0.82061 0.0
H2012 H 0.40697 0.15247 0.79895 0.0
H2013 H 0.37302 0.12739 0.78427 0.0
C2014 C 0.79678 0.22927 0.86476 0.0
C2015 C 0.79451 0.21775 0.89199 0.0
C2016 C 0.79973 0.21497 0.84242 0.0
C2017 C 0.80005 0.18825 0.84743 0.0
C2018 C 0.7953 0.17528 0.87458 0.0
C2019 C 0.79278 0.19033 0.89666 0.0
C2020 C 0.80409 0.22932 0.81374 0.0
C2021 C 0.7942 0.1462 0.88046 0.0
C2022 C 0.79609 0.14999 0.78107 0.0
C2023 C 0.82448 0.16047 0.77635 0.0
C2024 C 0.7875 0.1571 0.8051 0.0
C2025 C 0.80792 0.17559 0.82471 0.0
C2026 C 0.8366 0.18474 0.82084 0.0
C2027 C 0.8445 0.17694 0.79678 0.0
C2028 C 0.75666 0.1463 0.80809 0.0
C2029 C 0.85914 0.2046 0.84109 0.0
H2030 H 0.79776 0.25034 0.86128 0.0
H2031 H 0.79101 0.18149 0.91777 0.0
H2032 H 0.82522 0.23501 0.80678 0.0
H2033 H 0.78852 0.21394 0.79863 0.0
H2034 H 0.8022 0.24953 0.81316 0.0
H2035 H 0.78734 0.1376 0.90185 0.0
H2036 H 0.77961 0.13004 0.86527 0.0
H2037 H 0.81525 0.14847 0.878 0.0
H2038 H 0.78051 0.13689 0.76566 0.0
H2039 H 0.86654 0.18538 0.79308 0.0
H2040 H 0.75056 0.16072 0.79531 0.0
H2041 H 0.75114 0.14611 0.82994 0.0
H2042 H 0.74415 0.1239 0.80011 0.0
H2043 H 0.85998 0.22622 0.84037 0.0
H2044 H 0.88016 0.20787 0.83633 0.0
H2045 H 0.85426 0.19554 0.86265 0.0
C2046 C 0.28169 0.17121 0.48674 0.0
C2047 C 0.25248 0.15824 0.48481 0.0
C2048 C 0.29638 0.18126 0.51213 0.0
C2049 C 0.28139 0.17818 0.53629 0.0
C2050 C 0.25207 0.16773 0.53381 0.0
C2051 C 0.23786 0.15757 0.50804 0.0
C2052 C 0.32756 0.19216 0.51361 0.0
C2053 C 0.23536 0.16474 0.55883 0.0
C2054 C 0.31306 0.15837 0.60027 0.0
C2055 C 0.32886 0.18532 0.61294 0.0
C2056 C 0.29639 0.15558 0.5762 0.0
C2057 C 0.29561 0.18048 0.5642 0.0
C2058 C 0.31075 0.20763 0.57745 0.0
C2059 C 0.32727 0.20974 0.60175 0.0
C2060 C 0.28046 0.12609 0.56303 0.0
C2061 C 0.3101 0.2345 0.5655 0.0
H2062 H 0.29273 0.17116 0.46876 0.0
H2063 H 0.2152 0.14707 0.50652 0.0
H2064 H 0.33854 0.21206 0.52611 0.0
H2065 H 0.33179 0.17519 0.524 0.0
H2066 H 0.33657 0.19717 0.49262 0.0
H2067 H 0.21452 0.16252 0.55264 0.0
H2068 H 0.23205 0.145 0.57136 0.0
H2069 H 0.24676 0.18383 0.57234 0.0
H2070 H 0.31397 0.13934 0.60906 0.0
H2071 H 0.33969 0.23066 0.61136 0.0
H2072 H 0.28836 0.12726 0.542 0.0
H2073 H 0.25791 0.11964 0.56045 0.0
H2074 H 0.28248 0.10874 0.57558 0.0
H2075 H 0.31785 0.23928 0.54402 0.0
H2076 H 0.32305 0.25398 0.57819 0.0
H2077 H 0.2882 0.23056 0.56419 0.0
C2078 C 0.88783 0.1687 0.50123 0.0
C2079 C 0.8984 0.14919 0.50065 0.0
C2080 C 0.88197 0.17641 0.5266 0.0
C2081 C 0.88673 0.16418 0.55198 0.0
C2082 C 0.90035 0.14704 0.55152 0.0
C2083 C 0.90606 0.1398 0.52581 0.0
C2084 C 0.86789 0.1951 0.52596 0.0
C2085 C 0.90618 0.13375 0.57792 0.0
C2086 C 0.87212 0.18811 0.62015 0.0
C2087 C 0.84422 0.16679 0.62425 0.0
C2088 C 0.88665 0.18735 0.59713 0.0
C2089 C 0.87286 0.16477 0.57775 0.0
C2090 C 0.8449 0.1428 0.58233 0.0
C2091 C 0.83097 0.14418 0.60537 0.0
C2092 C 0.9165 0.21096 0.5933 0.0
C2093 C 0.82948 0.11789 0.56268 0.0
H2094 H 0.88169 0.17568 0.48173 0.0
H2095 H 0.91408 0.12455 0.52525 0.0
H2096 H 0.8453 0.18108 0.52994 0.0
H2097 H 0.87699 0.21143 0.54252 0.0
H2098 H 0.86983 0.2067 0.50553 0.0
H2099 H 0.92161 0.12619 0.5748 0.0
H2100 H 0.91418 0.1496 0.59492 0.0
H2101 H 0.88641 0.11468 0.58477 0.0
H2102 H 0.8824 0.20572 0.63456 0.0
H2103 H 0.80954 0.12741 0.60862 0.0
H2104 H 0.9175 0.22458 0.57449 0.0
H2105 H 0.9301 0.2012 0.58995 0.0
H2106 H 0.92509 0.22533 0.61147 0.0
H2107 H 0.82763 0.12656 0.54158 0.0
H2108 H 0.80812 0.10215 0.56961 0.0
H2109 H 0.84138 0.10592 0.5609 0.0
C2110 C 0.9239 0.80042 0.54876 0.0
C2111 C 0.92002 0.79642 0.52011 0.0
C2112 C 0.91093 0.77665 0.56746 0.0
C2113 C 0.8939 0.7483 0.55702 0.0
C2114 C 0.89226 0.74394 0.52808 0.0
C2115 C 0.90536 0.7682 0.50991 0.0
C2116 C 0.9132 0.78252 0.59808 0.0
C2117 C 0.87442 0.71415 0.51611 0.0
C2118 C 0.86863 0.68595 0.61059 0.0
C2119 C 0.84279 0.68325 0.61703 0.0
C2120 C 0.8851 0.70622 0.59015 0.0
C2121 C 0.87537 0.72413 0.57601 0.0
C2122 C 0.84854 0.72033 0.58146 0.0
C2123 C 0.83236 0.69957 0.6017 0.0
C2124 C 0.9134 0.70946 0.5846 0.0
C2125 C 0.83763 0.7394 0.56718 0.0
H2126 H 0.93493 0.82244 0.55637 0.0
H2127 H 0.902 0.76544 0.48762 0.0
H2128 H 0.89527 0.78546 0.60357 0.0
H2129 H 0.91246 0.76405 0.61098 0.0
H2130 H 0.93285 0.80273 0.6034 0.0
H2131 H 0.87891 0.71373 0.49397 0.0
H2132 H 0.87775 0.69742 0.52821 0.0
H2133 H 0.85198 0.70799 0.51735 0.0
H2134 H 0.87643 0.67299 0.62235 0.0
H2135 H 0.81242 0.69757 0.60684 0.0
H2136 H 0.92989 0.73253 0.58678 0.0
H2137 H 0.9136 0.70354 0.56288 0.0
H2138 H 0.91882 0.69544 0.59889 0.0
H2139 H 0.85071 0.76224 0.57386 0.0
H2140 H 0.81555 0.73215 0.57215 0.0
H2141 H 0.83907 0.73946 0.54429 0.0
loop_
_geom_bond_atom_site_label_1
_geom_bond_atom_site_label_2
_geom_bond_distance
_geom_bond_site_symmetry_2
_ccdc_geom_bond_type
C0 N1 1.317 . S
C0 N2 1.348 . S
C0 C3 1.485 . S
N1 C0 1.317 . S
N1 N5 1.370 . S
N2 C0 1.348 . S
N2 C4 1.346 . S
C3 C0 1.485 . S
C3 H7 0.960 . S
C3 H8 0.961 . S
C3 H9 0.960 . S
C4 N2 1.346 . S
C4 N5 1.307 . S
C4 C6 1.486 . S
N5 N1 1.370 . S
N5 C4 1.307 . S
C6 C4 1.486 . S
C6 H10 0.960 . S
C6 H11 0.960 . S
C6 H12 0.959 . S
H7 C3 0.960 . S
H8 C3 0.961 . S
H9 C3 0.960 . S
H10 C6 0.960 . S
H11 C6 0.960 . S
H12 C6 0.959 . S
C13 N14 1.317 . S
C13 N15 1.348 . S
C13 C16 1.485 . S
N14 C13 1.317 . S
N14 N18 1.370 . S
N15 C13 1.348 . S
N15 C17 1.346 . S
C16 C13 1.485 . S
C16 H20 0.960 . S
C16 H21 0.961 . S
C16 H22 0.960 . S
C17 N15 1.346 . S
C17 N18 1.307 . S
C17 C19 1.486 . S
N18 N14 1.370 . S
N18 C17 1.307 . S
C19 C17 1.486 . S
C19 H23 0.960 . S
C19 H24 0.960 . S
C19 H25 0.959 . S
H20 C16 0.960 . S
H21 C16 0.961 . S
H22 C16 0.960 . S
H23 C19 0.960 . S
H24 C19 0.960 . S
H25 C19 0.959 . S
C26 N27 1.317 . S
C26 N28 1.348 . S
C26 C29 1.485 . S
N27 C26 1.317 . S
N27 N31 1.370 . S
N28 C26 1.348 . S
N28 C30 1.346 . S
C29 C26 1.485 . S
C29 H33 0.960 . S
C29 H34 0.961 . S
C29 H35 0.960 . S
C30 N28 1.346 . S
C30 N31 1.307 . S
C30 C32 1.486 . S
N31 N27 1.370 . S
N31 C30 1.307 . S
C32 C30 1.486 . S
C32 H36 0.960 . S
C32 H37 0.960 . S
C32 H38 0.959 . S
H33 C29 0.960 . S
H34 C29 0.961 . S
H35 C29 0.960 . S
H36 C32 0.960 . S
H37 C32 0.960 . S
H38 C32 0.959 . S
C39 N40 1.317 . S
C39 N41 1.348 . S
C39 C42 1.485 . S
N40 C39 1.317 . S
N40 N44 1.370 . S
N41 C39 1.348 . S
N41 C43 1.346 . S
C42 C39 1.485 . S
C42 H46 0.960 . S
C42 H47 0.961 . S
C42 H48 0.960 . S
C43 N41 1.346 . S
C43 N44 1.307 . S
C43 C45 1.486 . S
N44 N40 1.370 . S
N44 C43 1.307 . S
C45 C43 1.486 . S
C45 H49 0.960 . S
C45 H50 0.960 . S
C45 H51 0.959 . S
H46 C42 0.960 . S
H47 C42 0.961 . S
H48 C42 0.960 . S
H49 C45 0.960 . S
H50 C45 0.960 . S
H51 C45 0.959 . S
C52 N53 1.317 . S
C52 N54 1.348 . S
C52 C55 1.485 . S
N53 C52 1.317 . S
N53 N57 1.370 . S
N54 C52 1.348 . S
N54 C56 1.346 . S
C55 C52 1.485 . S
C55 H59 0.960 . S
C55 H60 0.961 . S
C55 H61 0.960 . S
C56 N54 1.346 . S
C56 N57 1.307 . S
C56 C58 1.486 . S
N57 N53 1.370 . S
N57 C56 1.307 . S
C58 C56 1.486 . S
C58 H62 0.960 . S
C58 H63 0.960 . S
C58 H64 0.959 . S
H59 C55 0.960 . S
H60 C55 0.961 . S
H61 C55 0.960 . S
H62 C58 0.960 . S
H63 C58 0.960 . S
H64 C58 0.959 . S
C65 N66 1.317 . S
C65 N67 1.348 . S
C65 C68 1.485 . S
N66 C65 1.317 . S
N66 N70 1.370 . S
N67 C65 1.348 . S
N67 C69 1.346 . S
C68 C65 1.485 . S
C68 H72 0.960 . S
C68 H73 0.961 . S
C68 H74 0.960 . S
C69 N67 1.346 . S
C69 N70 1.307 . S
C69 C71 1.486 . S
N70 N66 1.370 . S
N70 C69 1.307 . S
C71 C69 1.486 . S
C71 H75 0.960 . S
C71 H76 0.960 . S
C71 H77 0.959 . S
H72 C68 0.960 . S
H73 C68 0.961 . S
H74 C68 0.960 . S
H75 C71 0.960 . S
H76 C71 0.960 . S
H77 C71 0.959 . S
C78 N79 1.317 . S
C78 N80 1.348 . S
C78 C81 1.485 . S
N79 C78 1.317 . S
N79 N83 1.370 . S
N80 C78 1.348 . S
N80 C82 1.346 . S
C81 C78 1.485 . S
C81 H85 0.960 . S
C81 H86 0.961 . S
C81 H87 0.960 . S
C82 N80 1.346 . S
C82 N83 1.307 . S
C82 C84 1.486 . S
N83 N79 1.370 . S
N83 C82 1.307 . S
C84 C82 1.486 . S
C84 H88 0.960 . S
C84 H89 0.960 . S
C84 H90 0.959 . S
H85 C81 0.960 . S
H86 C81 0.961 . S
H87 C81 0.960 . S
H88 C84 0.960 . S
H89 C84 0.960 . S
H90 C84 0.959 . S
C91 N92 1.317 . S
C91 N93 1.348 . S
C91 C94 1.485 . S
N92 C91 1.317 . S
N92 N96 1.370 . S
N93 C91 1.348 . S
N93 C95 1.346 . S
C94 C91 1.485 . S
C94 H98 0.960 . S
C94 H99 0.961 . S
C94 H100 0.960 . S
C95 N93 1.346 . S
C95 N96 1.307 . S
C95 C97 1.486 . S
N96 N92 1.370 . S
N96 C95 1.307 . S
C97 C95 1.486 . S
C97 H101 0.960 . S
C97 H102 0.960 . S
C97 H103 0.959 . S
H98 C94 0.960 . S
H99 C94 0.961 . S
H100 C94 0.960 . S
H101 C97 0.960 . S
H102 C97 0.960 . S
H103 C97 0.959 . S
C104 N105 1.317 . S
C104 N106 1.348 . S
C104 C107 1.485 . S
N105 C104 1.317 . S
N105 N109 1.370 . S
N106 C104 1.348 . S
N106 C108 1.346 . S
C107 C104 1.485 . S
C107 H111 0.960 . S
C107 H112 0.961 . S
C107 H113 0.960 . S
C108 N106 1.346 . S
C108 N109 1.307 . S
C108 C110 1.486 . S
N109 N105 1.370 . S
N109 C108 1.307 . S
C110 C108 1.486 . S
C110 H114 0.960 . S
C110 H115 0.960 . S
C110 H116 0.959 . S
H111 C107 0.960 . S
H112 C107 0.961 . S
H113 C107 0.960 . S
H114 C110 0.960 . S
H115 C110 0.960 . S
H116 C110 0.959 . S
C117 N118 1.317 . S
C117 N119 1.348 . S
C117 C120 1.485 . S
N118 C117 1.317 . S
N118 N122 1.370 . S
N119 C117 1.348 . S
N119 C121 1.346 . S
C120 C117 1.485 . S
C120 H124 0.960 . S
C120 H125 0.961 . S
C120 H126 0.960 . S
C121 N119 1.346 . S
C121 N122 1.307 . S
C121 C123 1.486 . S
N122 N118 1.370 . S
N122 C121 1.307 . S
C123 C121 1.486 . S
C123 H127 0.960 . S
C123 H128 0.960 . S
C123 H129 0.959 . S
H124 C120 0.960 . S
H125 C120 0.961 . S
H126 C120 0.960 . S
H127 C123 0.960 . S
H128 C123 0.960 . S
H129 C123 0.959 . S
C130 N131 1.317 . S
C130 N132 1.348 . S
C130 C133 1.485 1_556 S
N131 C130 1.317 . S
N131 N135 1.370 . S
N132 C130 1.348 . S
N132 C134 1.346 . S
C133 C130 1.485 1_554 S
C133 H137 0.960 . S
C133 H138 0.961 . S
C133 H139 0.960 . S
C134 N132 1.346 . S
C134 N135 1.307 . S
C134 C136 1.486 . S
N135 N131 1.370 . S
N135 C134 1.307 . S
C136 C134 1.486 . S
C136 H140 0.960 . S
C136 H141 0.960 . S
C136 H142 0.959 . S
H137 C133 0.960 . S
H138 C133 0.961 . S
H139 C133 0.960 . S
H140 C136 0.960 . S
H141 C136 0.960 . S
H142 C136 0.959 . S
C143 N144 1.317 . S
C143 N145 1.348 . S
C143 C146 1.485 1_556 S
N144 C143 1.317 . S
N144 N148 1.370 . S
N145 C143 1.348 . S
N145 C147 1.346 . S
C146 C143 1.485 1_554 S
C146 H150 0.960 . S
C146 H151 0.961 . S
C146 H152 0.960 . S
C147 N145 1.346 . S
C147 N148 1.307 . S
C147 C149 1.486 . S
N148 N144 1.370 . S
N148 C147 1.307 . S
C149 C147 1.486 . S
C149 H153 0.960 . S
C149 H154 0.960 . S
C149 H155 0.959 . S
H150 C146 0.960 . S
H151 C146 0.961 . S
H152 C146 0.960 . S
H153 C149 0.960 . S
H154 C149 0.960 . S
H155 C149 0.959 . S
C156 N157 1.317 . S
C156 N158 1.348 . S
C156 C159 1.485 . S
N157 C156 1.317 . S
N157 N161 1.370 . S
N158 C156 1.348 . S
N158 C160 1.346 . S
C159 C156 1.485 . S
C159 H163 0.960 . S
C159 H164 0.961 . S
C159 H165 0.960 . S
C160 N158 1.346 . S
C160 N161 1.307 . S
C160 C162 1.486 . S
N161 N157 1.370 . S
N161 C160 1.307 . S
C162 C160 1.486 . S
C162 H166 0.960 . S
C162 H167 0.960 . S
C162 H168 0.959 . S
H163 C159 0.960 . S
H164 C159 0.961 . S
H165 C159 0.960 . S
H166 C162 0.960 . S
H167 C162 0.960 . S
H168 C162 0.959 . S
C169 N170 1.317 . S
C169 N171 1.348 . S
C169 C172 1.485 . S
N170 C169 1.317 . S
N170 N174 1.370 . S
N171 C169 1.348 . S
N171 C173 1.346 . S
C172 C169 1.485 . S
C172 H176 0.960 . S
C172 H177 0.961 . S
C172 H178 0.960 . S
C173 N171 1.346 . S
C173 N174 1.307 . S
C173 C175 1.486 . S
N174 N170 1.370 . S
N174 C173 1.307 . S
C175 C173 1.486 . S
C175 H179 0.960 . S
C175 H180 0.960 . S
C175 H181 0.959 . S
H176 C172 0.960 . S
H177 C172 0.961 . S
H178 C172 0.960 . S
H179 C175 0.960 . S
H180 C175 0.960 . S
H181 C175 0.959 . S
C182 N183 1.317 . S
C182 N184 1.348 . S
C182 C185 1.485 . S
N183 C182 1.317 . S
N183 N187 1.370 . S
N184 C182 1.348 . S
N184 C186 1.346 . S
C185 C182 1.485 . S
C185 H189 0.960 . S
C185 H190 0.961 . S
C185 H191 0.960 . S
C186 N184 1.346 . S
C186 N187 1.307 . S
C186 C188 1.486 . S
N187 N183 1.370 . S
N187 C186 1.307 . S
C188 C186 1.486 . S
C188 H192 0.960 . S
C188 H193 0.960 . S
C188 H194 0.959 . S
H189 C185 0.960 . S
H190 C185 0.961 . S
H191 C185 0.960 . S
H192 C188 0.960 . S
H193 C188 0.960 . S
H194 C188 0.959 . S
C195 N196 1.317 . S
C195 N197 1.348 . S
C195 C198 1.485 . S
N196 C195 1.317 . S
N196 N200 1.370 . S
N197 C195 1.348 . S
N197 C199 1.346 . S
C198 C195 1.485 . S
C198 H202 0.960 . S
C198 H203 0.961 . S
C198 H204 0.960 . S
C199 N197 1.346 . S
C199 N200 1.307 . S
C199 C201 1.486 . S
N200 N196 1.370 . S
N200 C199 1.307 . S
C201 C199 1.486 . S
C201 H205 0.960 . S
C201 H206 0.960 . S
C201 H207 0.959 . S
H202 C198 0.960 . S
H203 C198 0.961 . S
H204 C198 0.960 . S
H205 C201 0.960 . S
H206 C201 0.960 . S
H207 C201 0.959 . S
C208 N209 1.317 . S
C208 N210 1.348 . S
C208 C211 1.485 . S
N209 C208 1.317 . S
N209 N213 1.370 . S
N210 C208 1.348 . S
N210 C212 1.346 . S
C211 C208 1.485 . S
C211 H215 0.960 . S
C211 H216 0.961 . S
C211 H217 0.960 . S
C212 N210 1.346 . S
C212 N213 1.307 . S
C212 C214 1.486 . S
N213 N209 1.370 . S
N213 C212 1.307 . S
C214 C212 1.486 . S
C214 H218 0.960 . S
C214 H219 0.960 . S
C214 H220 0.959 . S
H215 C211 0.960 . S
H216 C211 0.961 . S
H217 C211 0.960 . S
H218 C214 0.960 . S
H219 C214 0.960 . S
H220 C214 0.959 . S
C221 N222 1.317 . S
C221 N223 1.348 . S
C221 C224 1.485 . S
N222 C221 1.317 . S
N222 N226 1.370 . S
N223 C221 1.348 . S
N223 C225 1.346 . S
C224 C221 1.485 . S
C224 H228 0.960 . S
C224 H229 0.961 . S
C224 H230 0.960 . S
C225 N223 1.346 . S
C225 N226 1.307 . S
C225 C227 1.486 . S
N226 N222 1.370 . S
N226 C225 1.307 . S
C227 C225 1.486 . S
C227 H231 0.960 . S
C227 H232 0.960 . S
C227 H233 0.959 . S
H228 C224 0.960 . S
H229 C224 0.961 . S
H230 C224 0.960 . S
H231 C227 0.960 . S
H232 C227 0.960 . S
H233 C227 0.959 . S
Tb234 O237 2.453 . S
Tb234 O238 2.596 1_545 S
Tb234 O239 2.374 1_545 S
Tb234 O247 2.343 1_554 S
Tb234 O249 2.353 . S
Tb234 O251 2.427 . S
Tb234 O252 2.513 . S
C235 O239 1.251 . S
C235 O241 1.263 . S
Tb236 O238 2.343 . S
Tb236 O241 2.353 . S
Tb236 O244 2.427 . S
Tb236 O245 2.513 . S
Tb236 O246 2.456 1_554 S
Tb236 O247 2.596 1_564 S
Tb236 O248 2.374 1_565 S
O237 Tb234 2.453 . S
O237 C253 1.245 1_545 S
O238 Tb234 2.596 1_565 S
O238 Tb236 2.343 . S
O238 C253 1.259 . S
O239 Tb234 2.374 1_565 S
O239 C235 1.251 . S
C240 O244 1.275 . S
C240 O245 1.246 . S
O241 C235 1.263 . S
O241 Tb236 2.353 . S
C242 O246 1.236 1_545 S
C242 O247 1.259 . S
C243 O248 1.250 . S
C243 O249 1.263 . S
O244 Tb236 2.427 . S
O244 C240 1.275 . S
O245 Tb236 2.513 . S
O245 C240 1.246 . S
O246 Tb236 2.456 1_556 S
O246 C242 1.236 1_565 S
O247 Tb234 2.343 1_556 S
O247 Tb236 2.596 1_546 S
O247 C242 1.259 . S
O248 Tb236 2.374 1_545 S
O248 C243 1.250 . S
O249 Tb234 2.353 . S
O249 C243 1.263 . S
C250 O251 1.275 . S
C250 O252 1.246 . S
O251 Tb234 2.427 . S
O251 C250 1.275 . S
O252 Tb234 2.513 . S
O252 C250 1.246 . S
C253 O237 1.245 1_565 S
C253 O238 1.259 . S
Tb254 O257 2.453 . S
Tb254 O258 2.596 1_655 S
Tb254 O259 2.374 1_655 S
Tb254 O267 2.343 1_554 S
Tb254 O269 2.353 . S
Tb254 O271 2.427 1_554 S
Tb254 O272 2.513 1_554 S
C255 O259 1.251 . S
C255 O261 1.263 . S
Tb256 O258 2.343 1_556 S
Tb256 O261 2.353 1_556 S
Tb256 O264 2.427 1_556 S
Tb256 O265 2.513 1_556 S
Tb256 O266 2.453 . S
Tb256 O267 2.596 1_455 S
Tb256 O268 2.374 1_456 S
O257 Tb254 2.453 . S
O257 C273 1.245 1_655 S
O258 Tb254 2.596 1_455 S
O258 Tb256 2.343 1_554 S
O258 C273 1.259 . S
O259 Tb254 2.374 1_455 S
O259 C255 1.251 . S
C260 O264 1.275 . S
C260 O265 1.246 . S
O261 C255 1.263 . S
O261 Tb256 2.353 1_554 S
C262 O266 1.245 . S
C262 O267 1.259 1_455 S
C263 O268 1.250 . S
C263 O269 1.263 . S
O264 Tb256 2.427 1_554 S
O264 C260 1.275 . S
O265 Tb256 2.513 1_554 S
O265 C260 1.246 . S
O266 Tb256 2.453 . S
O266 C262 1.245 . S
O267 Tb254 2.343 1_556 S
O267 Tb256 2.596 1_655 S
O267 C262 1.259 1_655 S
O268 Tb256 2.374 1_654 S
O268 C263 1.250 . S
O269 Tb254 2.353 . S
O269 C263 1.263 . S
C270 O271 1.275 . S
C270 O272 1.246 . S
O271 Tb254 2.427 1_556 S
O271 C270 1.275 . S
O272 Tb254 2.513 1_556 S
O272 C270 1.246 . S
C273 O257 1.245 1_455 S
C273 O258 1.259 . S
Tb274 O277 2.453 1_554 S
Tb274 O278 2.596 . S
Tb274 O279 2.374 . S
Tb274 O287 2.343 . S
Tb274 O289 2.353 . S
Tb274 O291 2.427 . S
Tb274 O292 2.513 . S
C275 O279 1.251 . S
C275 O281 1.263 . S
Tb276 O278 2.343 . S
Tb276 O281 2.353 . S
Tb276 O284 2.427 . S
Tb276 O285 2.513 . S
Tb276 O286 2.453 . S
Tb276 O287 2.596 . S
Tb276 O288 2.374 . S
O277 Tb274 2.453 1_556 S
O277 C293 1.245 . S
O278 Tb274 2.596 . S
O278 Tb276 2.343 . S
O278 C293 1.259 1_554 S
O279 Tb274 2.374 . S
O279 C275 1.251 . S
C280 O284 1.275 . S
C280 O285 1.246 . S
O281 C275 1.263 . S
O281 Tb276 2.353 . S
C282 O286 1.245 . S
C282 O287 1.259 . S
C283 O288 1.250 . S
C283 O289 1.263 . S
O284 Tb276 2.427 . S
O284 C280 1.275 . S
O285 Tb276 2.513 . S
O285 C280 1.246 . S
O286 Tb276 2.453 . S
O286 C282 1.245 . S
O287 Tb274 2.343 . S
O287 Tb276 2.596 . S
O287 C282 1.259 . S
O288 Tb276 2.374 . S
O288 C283 1.250 . S
O289 Tb274 2.353 . S
O289 C283 1.263 . S
C290 O291 1.275 . S
C290 O292 1.246 . S
O291 Tb274 2.427 . S
O291 C290 1.275 . S
O292 Tb274 2.513 . S
O292 C290 1.246 . S
C293 O277 1.245 . S
C293 O278 1.259 1_556 S
Tb294 O297 2.453 . S
Tb294 O298 2.596 . S
Tb294 O299 2.374 . S
Tb294 O307 2.343 . S
Tb294 O309 2.353 . S
Tb294 O311 2.427 . S
Tb294 O312 2.513 . S
C295 O299 1.251 . S
C295 O301 1.263 . S
Tb296 O298 2.343 . S
Tb296 O301 2.353 . S
Tb296 O304 2.427 . S
Tb296 O305 2.513 . S
Tb296 O306 2.453 . S
Tb296 O307 2.596 . S
Tb296 O308 2.374 . S
O297 Tb294 2.453 . S
O297 C313 1.245 . S
O298 Tb294 2.596 . S
O298 Tb296 2.343 . S
O298 C313 1.259 . S
O299 Tb294 2.374 . S
O299 C295 1.251 . S
C300 O304 1.275 . S
C300 O305 1.246 . S
O301 C295 1.263 . S
O301 Tb296 2.353 . S
C302 O306 1.245 . S
C302 O307 1.259 . S
C303 O308 1.250 . S
C303 O309 1.263 . S
O304 Tb296 2.427 . S
O304 C300 1.275 . S
O305 Tb296 2.513 . S
O305 C300 1.246 . S
O306 Tb296 2.453 . S
O306 C302 1.245 . S
O307 Tb294 2.343 . S
O307 Tb296 2.596 . S
O307 C302 1.259 . S
O308 Tb296 2.374 . S
O308 C303 1.250 . S
O309 Tb294 2.353 . S
O309 C303 1.263 . S
C310 O311 1.275 . S
C310 O312 1.246 . S
O311 Tb294 2.427 . S
O311 C310 1.275 . S
O312 Tb294 2.513 . S
O312 C310 1.246 . S
C313 O297 1.245 . S
C313 O298 1.259 . S
Tb314 O317 2.453 . S
Tb314 O318 2.596 . S
Tb314 O319 2.374 . S
Tb314 O327 2.343 . S
Tb314 O329 2.353 . S
Tb314 O331 2.427 . S
Tb314 O332 2.513 . S
C315 O319 1.251 . S
C315 O321 1.263 . S
Tb316 O318 2.343 . S
Tb316 O321 2.353 . S
Tb316 O324 2.427 . S
Tb316 O325 2.513 . S
Tb316 O326 2.453 . S
Tb316 O327 2.596 . S
Tb316 O328 2.374 . S
O317 Tb314 2.453 . S
O317 C333 1.245 . S
O318 Tb314 2.596 . S
O318 Tb316 2.343 . S
O318 C333 1.259 . S
O319 Tb314 2.374 . S
O319 C315 1.251 . S
C320 O324 1.275 . S
C320 O325 1.246 . S
O321 C315 1.263 . S
O321 Tb316 2.353 . S
C322 O326 1.245 . S
C322 O327 1.259 . S
C323 O328 1.250 . S
C323 O329 1.263 . S
O324 Tb316 2.427 . S
O324 C320 1.275 . S
O325 Tb316 2.513 . S
O325 C320 1.246 . S
O326 Tb316 2.453 . S
O326 C322 1.245 . S
O327 Tb314 2.343 . S
O327 Tb316 2.596 . S
O327 C322 1.259 . S
O328 Tb316 2.374 . S
O328 C323 1.250 . S
O329 Tb314 2.353 . S
O329 C323 1.263 . S
C330 O331 1.275 . S
C330 O332 1.246 . S
O331 Tb314 2.427 . S
O331 C330 1.275 . S
O332 Tb314 2.513 . S
O332 C330 1.246 . S
C333 O317 1.245 . S
C333 O318 1.259 . S
Tb334 O337 2.453 . S
Tb334 O338 2.596 . S
Tb334 O339 2.374 . S
Tb334 O347 2.343 . S
Tb334 O349 2.353 . S
Tb334 O351 2.427 . S
Tb334 O352 2.513 . S
C335 O339 1.251 . S
C335 O341 1.263 . S
Tb336 O338 2.343 . S
Tb336 O341 2.353 . S
Tb336 O344 2.427 . S
Tb336 O345 2.513 . S
Tb336 O346 2.453 . S
Tb336 O347 2.596 . S
Tb336 O348 2.374 . S
O337 Tb334 2.453 . S
O337 C353 1.245 . S
O338 Tb334 2.596 . S
O338 Tb336 2.343 . S
O338 C353 1.259 . S
O339 Tb334 2.374 . S
O339 C335 1.251 . S
C340 O344 1.275 . S
C340 O345 1.246 . S
O341 C335 1.263 . S
O341 Tb336 2.353 . S
C342 O346 1.245 . S
C342 O347 1.259 . S
C343 O348 1.250 . S
C343 O349 1.263 . S
O344 Tb336 2.427 . S
O344 C340 1.275 . S
O345 Tb336 2.513 . S
O345 C340 1.246 . S
O346 Tb336 2.453 . S
O346 C342 1.245 . S
O347 Tb334 2.343 . S
O347 Tb336 2.596 . S
O347 C342 1.259 . S
O348 Tb336 2.374 . S
O348 C343 1.250 . S
O349 Tb334 2.353 . S
O349 C343 1.263 . S
C350 O351 1.275 . S
C350 O352 1.246 . S
O351 Tb334 2.427 . S
O351 C350 1.275 . S
O352 Tb334 2.513 . S
O352 C350 1.246 . S
C353 O337 1.245 . S
C353 O338 1.259 . S
Tb354 O357 2.453 . S
Tb354 O358 2.596 . S
Tb354 O359 2.374 . S
Tb354 O367 2.343 . S
Tb354 O369 2.353 . S
Tb354 O371 2.427 . S
Tb354 O372 2.513 . S
C355 O359 1.251 . S
C355 O361 1.263 . S
Tb356 O358 2.343 . S
Tb356 O361 2.353 . S
Tb356 O364 2.427 . S
Tb356 O365 2.513 . S
Tb356 O366 2.453 . S
Tb356 O367 2.596 . S
Tb356 O368 2.374 . S
O357 Tb354 2.453 . S
O357 C373 1.245 . S
O358 Tb354 2.596 . S
O358 Tb356 2.343 . S
O358 C373 1.259 . S
O359 Tb354 2.374 . S
O359 C355 1.251 . S
C360 O364 1.275 . S
C360 O365 1.246 . S
O361 C355 1.263 . S
O361 Tb356 2.353 . S
C362 O366 1.245 . S
C362 O367 1.259 . S
C363 O368 1.250 . S
C363 O369 1.263 . S
O364 Tb356 2.427 . S
O364 C360 1.275 . S
O365 Tb356 2.513 . S
O365 C360 1.246 . S
O366 Tb356 2.453 . S
O366 C362 1.245 . S
O367 Tb354 2.343 . S
O367 Tb356 2.596 . S
O367 C362 1.259 . S
O368 Tb356 2.374 . S
O368 C363 1.250 . S
O369 Tb354 2.353 . S
O369 C363 1.263 . S
C370 O371 1.275 . S
C370 O372 1.246 . S
O371 Tb354 2.427 . S
O371 C370 1.275 . S
O372 Tb354 2.513 . S
O372 C370 1.246 . S
C373 O357 1.245 . S
C373 O358 1.259 . S
Tb374 O377 2.453 . S
Tb374 O378 2.596 . S
Tb374 O379 2.374 . S
Tb374 O387 2.343 . S
Tb374 O389 2.353 . S
Tb374 O391 2.427 . S
Tb374 O392 2.513 . S
C375 O379 1.251 . S
C375 O381 1.263 . S
Tb376 O378 2.343 . S
Tb376 O381 2.353 . S
Tb376 O384 2.427 . S
Tb376 O385 2.513 . S
Tb376 O386 2.453 . S
Tb376 O387 2.596 . S
Tb376 O388 2.374 . S
O377 Tb374 2.453 . S
O377 C393 1.245 . S
O378 Tb374 2.596 . S
O378 Tb376 2.343 . S
O378 C393 1.259 . S
O379 Tb374 2.374 . S
O379 C375 1.251 . S
C380 O384 1.275 . S
C380 O385 1.246 . S
O381 C375 1.263 . S
O381 Tb376 2.353 . S
C382 O386 1.245 . S
C382 O387 1.259 . S
C383 O388 1.250 . S
C383 O389 1.263 . S
O384 Tb376 2.427 . S
O384 C380 1.275 . S
O385 Tb376 2.513 . S
O385 C380 1.246 . S
O386 Tb376 2.453 . S
O386 C382 1.245 . S
O387 Tb374 2.343 . S
O387 Tb376 2.596 . S
O387 C382 1.259 . S
O388 Tb376 2.374 . S
O388 C383 1.250 . S
O389 Tb374 2.353 . S
O389 C383 1.263 . S
C390 O391 1.275 . S
C390 O392 1.246 . S
O391 Tb374 2.427 . S
O391 C390 1.275 . S
O392 Tb374 2.513 . S
O392 C390 1.246 . S
C393 O377 1.245 . S
C393 O378 1.259 . S
Tb394 O397 2.453 . S
Tb394 O398 2.596 . S
Tb394 O399 2.374 . S
Tb394 O407 2.343 . S
Tb394 O409 2.353 . S
Tb394 O411 2.427 . S
Tb394 O412 2.513 . S
C395 O399 1.251 . S
C395 O401 1.263 . S
Tb396 O398 2.343 . S
Tb396 O401 2.353 . S
Tb396 O404 2.427 . S
Tb396 O405 2.513 . S
Tb396 O406 2.453 . S
Tb396 O407 2.596 . S
Tb396 O408 2.374 . S
O397 Tb394 2.453 . S
O397 C413 1.245 . S
O398 Tb394 2.596 . S
O398 Tb396 2.343 . S
O398 C413 1.259 . S
O399 Tb394 2.374 . S
O399 C395 1.251 . S
C400 O404 1.275 . S
C400 O405 1.246 . S
O401 C395 1.263 . S
O401 Tb396 2.353 . S
C402 O406 1.245 . S
C402 O407 1.259 . S
C403 O408 1.250 . S
C403 O409 1.263 . S
O404 Tb396 2.427 . S
O404 C400 1.275 . S
O405 Tb396 2.513 . S
O405 C400 1.246 . S
O406 Tb396 2.453 . S
O406 C402 1.245 . S
O407 Tb394 2.343 . S
O407 Tb396 2.596 . S
O407 C402 1.259 . S
O408 Tb396 2.374 . S
O408 C403 1.250 . S
O409 Tb394 2.353 . S
O409 C403 1.263 . S
C410 O411 1.275 . S
C410 O412 1.246 . S
O411 Tb394 2.427 . S
O411 C410 1.275 . S
O412 Tb394 2.513 . S
O412 C410 1.246 . S
C413 O397 1.245 . S
C413 O398 1.259 . S
C414 C415 1.391 . S
C414 C416 1.394 . S
C414 H430 0.931 . S
C415 C414 1.391 . S
C415 C419 1.376 . S
C416 C414 1.394 . S
C416 C417 1.369 . S
C416 C420 1.531 . S
C417 C416 1.369 . S
C417 C418 1.410 . S
C417 C425 1.503 . S
C418 C417 1.410 . S
C418 C419 1.392 . S
C418 C421 1.511 . S
C419 C415 1.376 . S
C419 C418 1.392 . S
C419 H431 0.929 . S
C420 C416 1.531 . S
C420 H432 0.960 . S
C420 H433 0.962 . S
C420 H434 0.960 . S
C421 C418 1.511 . S
C421 H435 0.961 . S
C421 H436 0.961 . S
C421 H437 0.961 . S
C422 C423 1.370 . S
C422 C424 1.363 . S
C422 H438 0.931 . S
C423 C422 1.370 . S
C423 C427 1.408 . S
C424 C422 1.363 . S
C424 C425 1.370 . S
C424 C428 1.524 . S
C425 C417 1.503 . S
C425 C424 1.370 . S
C425 C426 1.403 . S
C426 C425 1.403 . S
C426 C427 1.404 . S
C426 C429 1.539 . S
C427 C423 1.408 . S
C427 C426 1.404 . S
C427 H439 0.930 . S
C428 C424 1.524 . S
C428 H440 0.956 . S
C428 H441 0.961 . S
C428 H442 0.961 . S
C429 C426 1.539 . S
C429 H443 0.958 . S
C429 H444 0.961 . S
C429 H445 0.960 . S
H430 C414 0.931 . S
H431 C419 0.929 . S
H432 C420 0.960 . S
H433 C420 0.962 . S
H434 C420 0.960 . S
H435 C421 0.961 . S
H436 C421 0.961 . S
H437 C421 0.961 . S
H438 C422 0.931 . S
H439 C427 0.930 . S
H440 C428 0.956 . S
H441 C428 0.961 . S
H442 C428 0.961 . S
H443 C429 0.958 . S
H444 C429 0.961 . S
H445 C429 0.960 . S
C446 C447 1.391 . S
C446 C448 1.394 . S
C446 H462 0.931 . S
C447 C446 1.391 . S
C447 C451 1.376 . S
C448 C446 1.394 . S
C448 C449 1.369 . S
C448 C452 1.531 . S
C449 C448 1.369 . S
C449 C450 1.410 . S
C449 C457 1.503 . S
C450 C449 1.410 . S
C450 C451 1.392 . S
C450 C453 1.511 . S
C451 C447 1.376 . S
C451 C450 1.392 . S
C451 H463 0.929 . S
C452 C448 1.531 . S
C452 H464 0.960 . S
C452 H465 0.962 . S
C452 H466 0.960 . S
C453 C450 1.511 . S
C453 H467 0.961 . S
C453 H468 0.961 . S
C453 H469 0.961 . S
C454 C455 1.370 . S
C454 C456 1.363 . S
C454 H470 0.931 . S
C455 C454 1.370 . S
C455 C459 1.408 . S
C456 C454 1.363 . S
C456 C457 1.370 . S
C456 C460 1.524 . S
C457 C449 1.503 . S
C457 C456 1.370 . S
C457 C458 1.403 . S
C458 C457 1.403 . S
C458 C459 1.404 . S
C458 C461 1.539 . S
C459 C455 1.408 . S
C459 C458 1.404 . S
C459 H471 0.930 . S
C460 C456 1.524 . S
C460 H472 0.956 . S
C460 H473 0.961 . S
C460 H474 0.961 . S
C461 C458 1.539 . S
C461 H475 0.958 . S
C461 H476 0.961 . S
C461 H477 0.960 . S
H462 C446 0.931 . S
H463 C451 0.929 . S
H464 C452 0.960 . S
H465 C452 0.962 . S
H466 C452 0.960 . S
H467 C453 0.961 . S
H468 C453 0.961 . S
H469 C453 0.961 . S
H470 C454 0.931 . S
H471 C459 0.930 . S
H472 C460 0.956 . S
H473 C460 0.961 . S
H474 C460 0.961 . S
H475 C461 0.958 . S
H476 C461 0.961 . S
H477 C461 0.960 . S
C478 C479 1.391 . S
C478 C480 1.394 . S
C478 H494 0.931 . S
C479 C478 1.391 . S
C479 C483 1.376 . S
C480 C478 1.394 . S
C480 C481 1.369 . S
C480 C484 1.531 . S
C481 C480 1.369 . S
C481 C482 1.410 . S
C481 C489 1.503 . S
C482 C481 1.410 . S
C482 C483 1.392 . S
C482 C485 1.511 . S
C483 C479 1.376 . S
C483 C482 1.392 . S
C483 H495 0.929 . S
C484 C480 1.531 . S
C484 H496 0.960 . S
C484 H497 0.962 . S
C484 H498 0.960 . S
C485 C482 1.511 . S
C485 H499 0.961 1_554 S
C485 H500 0.961 . S
C485 H501 0.961 . S
C486 C487 1.370 . S
C486 C488 1.363 . S
C486 H502 0.931 . S
C487 C486 1.370 . S
C487 C491 1.408 . S
C488 C486 1.363 . S
C488 C489 1.370 . S
C488 C492 1.524 . S
C489 C481 1.503 . S
C489 C488 1.370 . S
C489 C490 1.403 . S
C490 C489 1.403 . S
C490 C491 1.404 . S
C490 C493 1.539 . S
C491 C487 1.408 . S
C491 C490 1.404 . S
C491 H503 0.930 . S
C492 C488 1.524 . S
C492 H504 0.956 . S
C492 H505 0.961 . S
C492 H506 0.961 . S
C493 C490 1.539 . S
C493 H507 0.958 . S
C493 H508 0.961 . S
C493 H509 0.960 . S
H494 C478 0.931 . S
H495 C483 0.929 . S
H496 C484 0.960 . S
H497 C484 0.962 . S
H498 C484 0.960 . S
H499 C485 0.961 1_556 S
H500 C485 0.961 . S
H501 C485 0.961 . S
H502 C486 0.931 . S
H503 C491 0.930 . S
H504 C492 0.956 . S
H505 C492 0.961 . S
H506 C492 0.961 . S
H507 C493 0.958 . S
H508 C493 0.961 . S
H509 C493 0.960 . S
C510 C511 1.391 . S
C510 C512 1.394 . S
C510 H526 0.931 . S
C511 C510 1.391 . S
C511 C515 1.374 . S
C512 C510 1.394 . S
C512 C513 1.369 . S
C512 C516 1.531 . S
C513 C512 1.369 . S
C513 C514 1.410 1_556 S
C513 C521 1.503 . S
C514 C513 1.410 1_554 S
C514 C515 1.393 1_554 S
C514 C517 1.511 . S
C515 C511 1.374 . S
C515 C514 1.393 1_556 S
C515 H527 0.931 1_556 S
C516 C512 1.531 . S
C516 H528 0.960 . S
C516 H529 0.962 . S
C516 H530 0.960 . S
C517 C514 1.511 . S
C517 H531 0.961 . S
C517 H532 0.961 . S
C517 H533 0.961 . S
C518 C519 1.370 1_554 S
C518 C520 1.363 1_554 S
C518 H534 0.931 . S
C519 C518 1.370 1_556 S
C519 C523 1.408 . S
C520 C518 1.363 1_556 S
C520 C521 1.370 . S
C520 C524 1.524 1_556 S
C521 C513 1.503 . S
C521 C520 1.370 . S
C521 C522 1.403 . S
C522 C521 1.403 . S
C522 C523 1.404 . S
C522 C525 1.539 . S
C523 C519 1.408 . S
C523 C522 1.404 . S
C523 H535 0.930 . S
C524 C520 1.524 1_554 S
C524 H536 0.956 1_554 S
C524 H537 0.961 . S
C524 H538 0.961 . S
C525 C522 1.539 . S
C525 H539 0.958 . S
C525 H540 0.961 . S
C525 H541 0.960 . S
H526 C510 0.931 . S
H527 C515 0.931 1_554 S
H528 C516 0.960 . S
H529 C516 0.962 . S
H530 C516 0.960 . S
H531 C517 0.961 . S
H532 C517 0.961 . S
H533 C517 0.961 . S
H534 C518 0.931 . S
H535 C523 0.930 . S
H536 C524 0.956 1_556 S
H537 C524 0.961 . S
H538 C524 0.961 . S
H539 C525 0.958 . S
H540 C525 0.961 . S
H541 C525 0.960 . S
C542 C543 1.391 . S
C542 C544 1.394 . S
C542 H558 0.931 . S
C543 C542 1.391 . S
C543 C547 1.376 . S
C544 C542 1.394 . S
C544 C545 1.369 . S
C544 C548 1.531 . S
C545 C544 1.369 . S
C545 C546 1.410 . S
C545 C553 1.503 . S
C546 C545 1.410 . S
C546 C547 1.392 . S
C546 C549 1.511 . S
C547 C543 1.376 . S
C547 C546 1.392 . S
C547 H559 0.929 . S
C548 C544 1.531 . S
C548 H560 0.960 . S
C548 H561 0.962 1_556 S
C548 H562 0.960 . S
C549 C546 1.511 . S
C549 H563 0.961 . S
C549 H564 0.961 . S
C549 H565 0.961 . S
C550 C551 1.365 1_554 S
C550 C552 1.350 1_554 S
C550 H566 0.950 . S
C551 C550 1.365 1_556 S
C551 C555 1.408 . S
C552 C550 1.350 1_556 S
C552 C553 1.370 . S
C552 C556 1.524 . S
C553 C545 1.503 . S
C553 C552 1.370 . S
C553 C554 1.403 . S
C554 C553 1.403 . S
C554 C555 1.404 . S
C554 C557 1.539 . S
C555 C551 1.408 . S
C555 C554 1.404 . S
C555 H567 0.930 . S
C556 C552 1.524 . S
C556 H568 0.956 1_556 S
C556 H569 0.961 . S
C556 H570 0.961 1_556 S
C557 C554 1.539 . S
C557 H571 0.958 . S
C557 H572 0.961 . S
C557 H573 0.960 . S
H558 C542 0.931 . S
H559 C547 0.929 . S
H560 C548 0.960 . S
H561 C548 0.962 1_554 S
H562 C548 0.960 . S
H563 C549 0.961 . S
H564 C549 0.961 . S
H565 C549 0.961 . S
H566 C550 0.950 . S
H567 C555 0.930 . S
H568 C556 0.956 1_554 S
H569 C556 0.961 . S
H570 C556 0.961 1_554 S
H571 C557 0.958 . S
H572 C557 0.961 . S
H573 C557 0.960 . S
C574 C575 1.391 . S
C574 C576 1.394 . S
C574 H590 0.931 . S
C575 C574 1.391 . S
C575 C579 1.376 . S
C576 C574 1.394 . S
C576 C577 1.369 . S
C576 C580 1.531 . S
C577 C576 1.369 . S
C577 C578 1.410 . S
C577 C585 1.503 . S
C578 C577 1.410 . S
C578 C579 1.392 . S
C578 C581 1.511 . S
C579 C575 1.376 . S
C579 C578 1.392 . S
C579 H591 0.929 . S
C580 C576 1.531 . S
C580 H592 0.960 . S
C580 H593 0.962 1_556 S
C580 H594 0.960 . S
C581 C578 1.511 . S
C581 H595 0.961 . S
C581 H596 0.961 . S
C581 H597 0.961 . S
C582 C583 1.370 . S
C582 C584 1.363 . S
C582 H598 0.931 . S
C583 C582 1.370 . S
C583 C587 1.408 1_554 S
C584 C582 1.363 . S
C584 C585 1.370 1_554 S
C584 C588 1.524 . S
C585 C577 1.503 . S
C585 C584 1.370 1_556 S
C585 C586 1.403 . S
C586 C585 1.403 . S
C586 C587 1.404 . S
C586 C589 1.539 . S
C587 C583 1.408 1_556 S
C587 C586 1.404 . S
C587 H599 0.930 . S
C588 C584 1.524 . S
C588 H600 0.956 . S
C588 H601 0.961 . S
C588 H602 0.961 . S
C589 C586 1.539 . S
C589 H603 0.958 . S
C589 H604 0.961 . S
C589 H605 0.960 . S
H590 C574 0.931 . S
H591 C579 0.929 . S
H592 C580 0.960 . S
H593 C580 0.962 1_554 S
H594 C580 0.960 . S
H595 C581 0.961 . S
H596 C581 0.961 . S
H597 C581 0.961 . S
H598 C582 0.931 . S
H599 C587 0.930 . S
H600 C588 0.956 . S
H601 C588 0.961 . S
H602 C588 0.961 . S
H603 C589 0.958 . S
H604 C589 0.961 . S
H605 C589 0.960 . S
C606 C607 1.391 . S
C606 C608 1.388 1_556 S
C606 H622 0.931 1_556 S
C607 C606 1.391 . S
C607 C611 1.376 . S
C608 C606 1.388 1_554 S
C608 C609 1.348 1_554 S
C608 C612 1.558 . S
C609 C608 1.348 1_556 S
C609 C610 1.410 . S
C609 C617 1.503 . S
C610 C609 1.410 . S
C610 C611 1.392 . S
C610 C613 1.511 . S
C611 C607 1.376 . S
C611 C610 1.392 . S
C611 H623 0.929 . S
C612 C608 1.558 . S
C612 H624 0.960 . S
C612 H625 0.962 . S
C612 H626 0.960 . S
C613 C610 1.511 . S
C613 H627 0.961 . S
C613 H628 0.961 . S
C613 H629 0.961 . S
C614 C615 1.370 . S
C614 C616 1.363 . S
C614 H630 0.931 . S
C615 C614 1.370 . S
C615 C619 1.408 . S
C616 C614 1.363 . S
C616 C617 1.370 . S
C616 C620 1.524 . S
C617 C609 1.503 . S
C617 C616 1.370 . S
C617 C618 1.403 . S
C618 C617 1.403 . S
C618 C619 1.404 . S
C618 C621 1.539 . S
C619 C615 1.408 . S
C619 C618 1.404 . S
C619 H631 0.928 1_556 S
C620 C616 1.524 . S
C620 H632 0.956 . S
C620 H633 0.961 . S
C620 H634 0.961 . S
C621 C618 1.539 . S
C621 H635 0.958 1_556 S
C621 H636 0.961 . S
C621 H637 0.960 . S
H622 C606 0.931 1_554 S
H623 C611 0.929 . S
H624 C612 0.960 . S
H625 C612 0.962 . S
H626 C612 0.960 . S
H627 C613 0.961 . S
H628 C613 0.961 . S
H629 C613 0.961 . S
H630 C614 0.931 . S
H631 C619 0.928 1_554 S
H632 C620 0.956 . S
H633 C620 0.961 . S
H634 C620 0.961 . S
H635 C621 0.958 1_554 S
H636 C621 0.961 . S
H637 C621 0.960 . S
C638 C639 1.391 . S
C638 C640 1.394 . S
C638 H654 0.931 . S
C639 C638 1.391 . S
C639 C643 1.376 . S
C640 C638 1.394 . S
C640 C641 1.369 . S
C640 C644 1.531 . S
C641 C640 1.369 . S
C641 C642 1.410 . S
C641 C649 1.503 . S
C642 C641 1.410 . S
C642 C643 1.392 . S
C642 C645 1.511 . S
C643 C639 1.376 . S
C643 C642 1.392 . S
C643 H655 0.929 . S
C644 C640 1.531 . S
C644 H656 0.960 . S
C644 H657 0.962 . S
C644 H658 0.960 1_556 S
C645 C642 1.511 . S
C645 H659 0.961 . S
C645 H660 0.961 . S
C645 H661 0.961 . S
C646 C647 1.370 . S
C646 C648 1.363 . S
C646 H662 0.931 . S
C647 C646 1.370 . S
C647 C651 1.408 . S
C648 C646 1.363 . S
C648 C649 1.370 . S
C648 C652 1.524 . S
C649 C641 1.503 . S
C649 C648 1.370 . S
C649 C650 1.403 . S
C650 C649 1.403 . S
C650 C651 1.404 . S
C650 C653 1.539 . S
C651 C647 1.408 . S
C651 C650 1.404 . S
C651 H663 0.930 . S
C652 C648 1.524 . S
C652 H664 0.956 . S
C652 H665 0.961 . S
C652 H666 0.961 . S
C653 C650 1.539 . S
C653 H667 0.958 . S
C653 H668 0.961 . S
C653 H669 0.960 . S
H654 C638 0.931 . S
H655 C643 0.929 . S
H656 C644 0.960 . S
H657 C644 0.962 . S
H658 C644 0.960 1_554 S
H659 C645 0.961 . S
H660 C645 0.961 . S
H661 C645 0.961 . S
H662 C646 0.931 . S
H663 C651 0.930 . S
H664 C652 0.956 . S
H665 C652 0.961 . S
H666 C652 0.961 . S
H667 C653 0.958 . S
H668 C653 0.961 . S
H669 C653 0.960 . S
C670 C671 1.391 1_554 S
C670 C672 1.394 . S
C670 H686 0.931 . S
C671 C670 1.391 1_556 S
C671 C675 1.376 . S
C672 C670 1.394 . S
C672 C673 1.369 1_554 S
C672 C676 1.531 . S
C673 C672 1.369 1_556 S
C673 C674 1.410 . S
C673 C681 1.503 1_556 S
C674 C673 1.410 . S
C674 C675 1.392 . S
C674 C677 1.511 . S
C675 C671 1.376 . S
C675 C674 1.392 . S
C675 H687 0.929 . S
C676 C672 1.531 . S
C676 H688 0.960 . S
C676 H689 0.962 . S
C676 H690 0.960 . S
C677 C674 1.511 . S
C677 H691 0.961 . S
C677 H692 0.961 . S
C677 H693 0.961 . S
C678 C679 1.370 . S
C678 C680 1.363 . S
C678 H694 0.931 . S
C679 C678 1.370 . S
C679 C683 1.408 . S
C680 C678 1.363 . S
C680 C681 1.370 . S
C680 C684 1.524 . S
C681 C673 1.503 1_554 S
C681 C680 1.370 . S
C681 C682 1.403 . S
C682 C681 1.403 . S
C682 C683 1.404 . S
C682 C685 1.539 1_554 S
C683 C679 1.408 . S
C683 C682 1.404 . S
C683 H695 0.930 . S
C684 C680 1.524 . S
C684 H696 0.956 . S
C684 H697 0.961 . S
C684 H698 0.961 . S
C685 C682 1.539 1_556 S
C685 H699 0.958 1_556 S
C685 H700 0.961 . S
C685 H701 0.960 . S
H686 C670 0.931 . S
H687 C675 0.929 . S
H688 C676 0.960 . S
H689 C676 0.962 . S
H690 C676 0.960 . S
H691 C677 0.961 . S
H692 C677 0.961 . S
H693 C677 0.961 . S
H694 C678 0.931 . S
H695 C683 0.930 . S
H696 C684 0.956 . S
H697 C684 0.961 . S
H698 C684 0.961 . S
H699 C685 0.958 1_554 S
H700 C685 0.961 . S
H701 C685 0.960 . S
C702 C703 1.391 . S
C702 C704 1.394 . S
C702 H718 0.931 . S
C703 C702 1.391 . S
C703 C707 1.376 . S
C704 C702 1.394 . S
C704 C705 1.369 . S
C704 C708 1.531 . S
C705 C704 1.369 . S
C705 C706 1.410 . S
C705 C713 1.503 . S
C706 C705 1.410 . S
C706 C707 1.392 . S
C706 C709 1.511 . S
C707 C703 1.376 . S
C707 C706 1.392 . S
C707 H719 0.929 . S
C708 C704 1.531 . S
C708 H720 0.960 . S
C708 H721 0.962 . S
C708 H722 0.960 . S
C709 C706 1.511 . S
C709 H723 0.961 . S
C709 H724 0.961 . S
C709 H725 0.961 . S
C710 C711 1.370 . S
C710 C712 1.363 . S
C710 H726 0.931 1_554 S
C711 C710 1.370 . S
C711 C715 1.408 . S
C712 C710 1.363 . S
C712 C713 1.370 . S
C712 C716 1.524 1_554 S
C713 C705 1.503 . S
C713 C712 1.370 . S
C713 C714 1.403 . S
C714 C713 1.403 . S
C714 C715 1.404 . S
C714 C717 1.539 . S
C715 C711 1.408 . S
C715 C714 1.404 . S
C715 H727 0.930 . S
C716 C712 1.524 1_556 S
C716 H728 0.956 1_556 S
C716 H729 0.961 . S
C716 H730 0.961 . S
C717 C714 1.539 . S
C717 H731 0.958 . S
C717 H732 0.961 . S
C717 H733 0.960 . S
H718 C702 0.931 . S
H719 C707 0.929 . S
H720 C708 0.960 . S
H721 C708 0.962 . S
H722 C708 0.960 . S
H723 C709 0.961 . S
H724 C709 0.961 . S
H725 C709 0.961 . S
H726 C710 0.931 1_556 S
H727 C715 0.930 . S
H728 C716 0.956 1_554 S
H729 C716 0.961 . S
H730 C716 0.961 . S
H731 C717 0.958 . S
H732 C717 0.961 . S
H733 C717 0.960 . S
C734 C735 1.391 . S
C734 C736 1.394 . S
C734 H750 0.931 . S
C735 C734 1.391 . S
C735 C739 1.376 . S
C736 C734 1.394 . S
C736 C737 1.369 . S
C736 C740 1.531 . S
C737 C736 1.369 . S
C737 C738 1.410 . S
C737 C745 1.503 . S
C738 C737 1.410 . S
C738 C739 1.392 . S
C738 C741 1.511 . S
C739 C735 1.376 . S
C739 C738 1.392 . S
C739 H751 0.929 . S
C740 C736 1.531 . S
C740 H752 0.960 . S
C740 H753 0.962 . S
C740 H754 0.960 . S
C741 C738 1.511 . S
C741 H755 0.961 . S
C741 H756 0.961 . S
C741 H757 0.961 . S
C742 C743 1.370 . S
C742 C744 1.363 . S
C742 H758 0.931 . S
C743 C742 1.370 . S
C743 C747 1.408 . S
C744 C742 1.363 . S
C744 C745 1.370 . S
C744 C748 1.524 . S
C745 C737 1.503 . S
C745 C744 1.370 . S
C745 C746 1.403 . S
C746 C745 1.403 . S
C746 C747 1.404 . S
C746 C749 1.539 . S
C747 C743 1.408 . S
C747 C746 1.404 . S
C747 H759 0.930 . S
C748 C744 1.524 . S
C748 H760 0.956 . S
C748 H761 0.961 . S
C748 H762 0.961 . S
C749 C746 1.539 . S
C749 H763 0.958 . S
C749 H764 0.961 . S
C749 H765 0.960 . S
H750 C734 0.931 . S
H751 C739 0.929 . S
H752 C740 0.960 . S
H753 C740 0.962 . S
H754 C740 0.960 . S
H755 C741 0.961 . S
H756 C741 0.961 . S
H757 C741 0.961 . S
H758 C742 0.931 . S
H759 C747 0.930 . S
H760 C748 0.956 . S
H761 C748 0.961 . S
H762 C748 0.961 . S
H763 C749 0.958 . S
H764 C749 0.961 . S
H765 C749 0.960 . S
C766 C767 1.391 . S
C766 C768 1.394 . S
C766 H782 0.931 . S
C767 C766 1.391 . S
C767 C771 1.376 . S
C768 C766 1.394 . S
C768 C769 1.369 . S
C768 C772 1.531 . S
C769 C768 1.369 . S
C769 C770 1.410 . S
C769 C777 1.503 . S
C770 C769 1.410 . S
C770 C771 1.392 . S
C770 C773 1.511 . S
C771 C767 1.376 . S
C771 C770 1.392 . S
C771 H783 0.929 . S
C772 C768 1.531 . S
C772 H784 0.960 . S
C772 H785 0.962 . S
C772 H786 0.960 . S
C773 C770 1.511 . S
C773 H787 0.961 . S
C773 H788 0.961 . S
C773 H789 0.961 . S
C774 C775 1.370 . S
C774 C776 1.363 . S
C774 H790 0.931 . S
C775 C774 1.370 . S
C775 C779 1.408 . S
C776 C774 1.363 . S
C776 C777 1.370 . S
C776 C780 1.524 . S
C777 C769 1.503 . S
C777 C776 1.370 . S
C777 C778 1.403 . S
C778 C777 1.403 . S
C778 C779 1.404 . S
C778 C781 1.539 . S
C779 C775 1.408 . S
C779 C778 1.404 . S
C779 H791 0.930 . S
C780 C776 1.524 . S
C780 H792 0.956 . S
C780 H793 0.961 . S
C780 H794 0.961 . S
C781 C778 1.539 . S
C781 H795 0.958 . S
C781 H796 0.961 . S
C781 H797 0.960 . S
H782 C766 0.931 . S
H783 C771 0.929 . S
H784 C772 0.960 . S
H785 C772 0.962 . S
H786 C772 0.960 . S
H787 C773 0.961 . S
H788 C773 0.961 . S
H789 C773 0.961 . S
H790 C774 0.931 . S
H791 C779 0.930 . S
H792 C780 0.956 . S
H793 C780 0.961 . S
H794 C780 0.961 . S
H795 C781 0.958 . S
H796 C781 0.961 . S
H797 C781 0.960 . S
C798 C799 1.391 . S
C798 C800 1.394 . S
C798 H814 0.931 . S
C799 C798 1.391 . S
C799 C803 1.376 . S
C800 C798 1.394 . S
C800 C801 1.369 . S
C800 C804 1.531 . S
C801 C800 1.369 . S
C801 C802 1.410 . S
C801 C809 1.503 1_655 S
C802 C801 1.410 . S
C802 C803 1.392 . S
C802 C805 1.511 . S
C803 C799 1.376 . S
C803 C802 1.392 . S
C803 H815 0.929 . S
C804 C800 1.531 . S
C804 H816 1.000 . S
C804 H817 0.962 . S
C804 H818 0.960 . S
C805 C802 1.511 . S
C805 H819 0.961 . S
C805 H820 0.976 . S
C805 H821 0.961 . S
C806 C807 1.370 . S
C806 C808 1.363 . S
C806 H822 0.931 . S
C807 C806 1.370 . S
C807 C811 1.408 . S
C808 C806 1.363 . S
C808 C809 1.370 . S
C808 C812 1.524 1_455 S
C809 C801 1.503 1_455 S
C809 C808 1.370 . S
C809 C810 1.403 . S
C810 C809 1.403 . S
C810 C811 1.404 . S
C810 C813 1.539 . S
C811 C807 1.408 . S
C811 C810 1.404 . S
C811 H823 0.930 . S
C812 C808 1.524 1_655 S
C812 H824 0.956 . S
C812 H825 0.961 . S
C812 H826 0.961 1_655 S
C813 C810 1.539 . S
C813 H827 0.958 . S
C813 H828 0.961 . S
C813 H829 0.960 . S
H814 C798 0.931 . S
H815 C803 0.929 . S
H816 C804 1.000 . S
H817 C804 0.962 . S
H818 C804 0.960 . S
H819 C805 0.961 . S
H820 C805 0.976 . S
H821 C805 0.961 . S
H822 C806 0.931 . S
H823 C811 0.930 . S
H824 C812 0.956 . S
H825 C812 0.961 . S
H826 C812 0.961 1_455 S
H827 C813 0.958 . S
H828 C813 0.961 . S
H829 C813 0.960 . S
C830 C831 1.391 . S
C830 C832 1.394 . S
C830 H846 0.931 . S
C831 C830 1.391 . S
C831 C835 1.376 . S
C832 C830 1.394 . S
C832 C833 1.369 . S
C832 C836 1.531 . S
C833 C832 1.369 . S
C833 C834 1.410 . S
C833 C841 1.503 . S
C834 C833 1.410 . S
C834 C835 1.392 . S
C834 C837 1.511 . S
C835 C831 1.376 . S
C835 C834 1.392 . S
C835 H847 0.929 . S
C836 C832 1.531 . S
C836 H848 0.960 . S
C836 H849 0.962 . S
C836 H850 0.960 . S
C837 C834 1.511 . S
C837 H851 0.961 . S
C837 H852 0.961 . S
C837 H853 0.961 . S
C838 C839 1.370 . S
C838 C840 1.363 . S
C838 H854 0.931 . S
C839 C838 1.370 . S
C839 C843 1.408 . S
C840 C838 1.363 . S
C840 C841 1.370 . S
C840 C844 1.524 . S
C841 C833 1.503 . S
C841 C840 1.370 . S
C841 C842 1.403 . S
C842 C841 1.403 . S
C842 C843 1.404 . S
C842 C845 1.539 . S
C843 C839 1.408 . S
C843 C842 1.404 . S
C843 H855 0.930 . S
C844 C840 1.524 . S
C844 H856 0.956 . S
C844 H857 0.961 . S
C844 H858 0.961 . S
C845 C842 1.539 . S
C845 H859 0.958 . S
C845 H860 0.961 . S
C845 H861 0.960 . S
H846 C830 0.931 . S
H847 C835 0.929 . S
H848 C836 0.960 . S
H849 C836 0.962 . S
H850 C836 0.960 . S
H851 C837 0.961 . S
H852 C837 0.961 . S
H853 C837 0.961 . S
H854 C838 0.931 . S
H855 C843 0.930 . S
H856 C844 0.956 . S
H857 C844 0.961 . S
H858 C844 0.961 . S
H859 C845 0.958 . S
H860 C845 0.961 . S
H861 C845 0.960 . S
C862 C863 1.391 . S
C862 C864 1.394 . S
C862 H878 0.931 . S
C863 C862 1.391 . S
C863 C867 1.376 . S
C864 C862 1.394 . S
C864 C865 1.369 . S
C864 C868 1.531 . S
C865 C864 1.369 . S
C865 C866 1.410 . S
C865 C873 1.503 1_545 S
C866 C865 1.410 . S
C866 C867 1.392 . S
C866 C869 1.504 1_545 S
C867 C863 1.376 . S
C867 C866 1.392 . S
C867 H879 0.929 . S
C868 C864 1.531 . S
C868 H880 0.960 1_545 S
C868 H881 0.962 . S
C868 H882 0.960 . S
C869 C866 1.504 1_565 S
C869 H883 0.929 1_565 S
C869 H884 1.001 . S
C869 H885 0.963 . S
C870 C871 1.370 . S
C870 C872 1.363 . S
C870 H886 0.931 . S
C871 C870 1.370 . S
C871 C875 1.408 . S
C872 C870 1.363 . S
C872 C873 1.370 . S
C872 C876 1.524 . S
C873 C865 1.503 1_565 S
C873 C872 1.370 . S
C873 C874 1.403 . S
C874 C873 1.403 . S
C874 C875 1.404 . S
C874 C877 1.539 . S
C875 C871 1.408 . S
C875 C874 1.404 . S
C875 H887 0.930 . S
C876 C872 1.524 . S
C876 H888 0.956 1_565 S
C876 H889 0.961 1_565 S
C876 H890 0.961 . S
C877 C874 1.539 . S
C877 H891 0.958 . S
C877 H892 0.961 . S
C877 H893 0.960 . S
H878 C862 0.931 . S
H879 C867 0.929 . S
H880 C868 0.960 1_565 S
H881 C868 0.962 . S
H882 C868 0.960 . S
H883 C869 0.929 1_545 S
H884 C869 1.001 . S
H885 C869 0.963 . S
H886 C870 0.931 . S
H887 C875 0.930 . S
H888 C876 0.956 1_545 S
H889 C876 0.961 1_545 S
H890 C876 0.961 . S
H891 C877 0.958 . S
H892 C877 0.961 . S
H893 C877 0.960 . S
C894 C895 1.391 . S
C894 C896 1.394 . S
C894 H910 0.931 . S
C895 C894 1.391 . S
C895 C899 1.376 . S
C896 C894 1.394 . S
C896 C897 1.369 . S
C896 C900 1.531 . S
C897 C896 1.369 . S
C897 C898 1.410 . S
C897 C905 1.503 . S
C898 C897 1.410 . S
C898 C899 1.392 . S
C898 C901 1.511 . S
C899 C895 1.376 . S
C899 C898 1.392 . S
C899 H911 0.929 . S
C900 C896 1.531 . S
C900 H912 0.960 . S
C900 H913 0.962 . S
C900 H914 0.960 . S
C901 C898 1.511 . S
C901 H915 0.961 . S
C901 H916 0.961 . S
C901 H917 0.961 . S
C902 C903 1.370 . S
C902 C904 1.363 . S
C902 H918 0.931 . S
C903 C902 1.370 . S
C903 C907 1.408 . S
C904 C902 1.363 . S
C904 C905 1.370 . S
C904 C908 1.524 . S
C905 C897 1.503 . S
C905 C904 1.370 . S
C905 C906 1.403 . S
C906 C905 1.403 . S
C906 C907 1.404 . S
C906 C909 1.539 . S
C907 C903 1.408 . S
C907 C906 1.404 . S
C907 H919 0.930 . S
C908 C904 1.524 . S
C908 H920 0.956 . S
C908 H921 0.961 . S
C908 H922 0.961 . S
C909 C906 1.539 . S
C909 H923 0.958 . S
C909 H924 0.961 . S
C909 H925 0.960 . S
H910 C894 0.931 . S
H911 C899 0.929 . S
H912 C900 0.960 . S
H913 C900 0.962 . S
H914 C900 0.960 . S
H915 C901 0.961 . S
H916 C901 0.961 . S
H917 C901 0.961 . S
H918 C902 0.931 . S
H919 C907 0.930 . S
H920 C908 0.956 . S
H921 C908 0.961 . S
H922 C908 0.961 . S
H923 C909 0.958 . S
H924 C909 0.961 . S
H925 C909 0.960 . S
C926 C927 1.391 . S
C926 C928 1.394 . S
C926 H942 0.931 . S
C927 C926 1.391 . S
C927 C931 1.376 . S
C928 C926 1.394 . S
C928 C929 1.369 . S
C928 C932 1.531 . S
C929 C928 1.369 . S
C929 C930 1.410 . S
C929 C937 1.503 . S
C930 C929 1.410 . S
C930 C931 1.392 . S
C930 C933 1.511 . S
C931 C927 1.376 . S
C931 C930 1.392 . S
C931 H943 0.929 . S
C932 C928 1.531 . S
C932 H944 0.960 . S
C932 H945 0.962 . S
C932 H946 0.960 . S
C933 C930 1.511 . S
C933 H947 0.961 . S
C933 H948 0.961 . S
C933 H949 0.961 . S
C934 C935 1.370 . S
C934 C936 1.363 . S
C934 H950 0.931 . S
C935 C934 1.370 . S
C935 C939 1.408 . S
C936 C934 1.363 . S
C936 C937 1.370 . S
C936 C940 1.524 . S
C937 C929 1.503 . S
C937 C936 1.370 . S
C937 C938 1.403 . S
C938 C937 1.403 . S
C938 C939 1.404 . S
C938 C941 1.539 . S
C939 C935 1.408 . S
C939 C938 1.404 . S
C939 H951 0.930 . S
C940 C936 1.524 . S
C940 H952 0.956 . S
C940 H953 0.961 . S
C940 H954 0.961 . S
C941 C938 1.539 . S
C941 H955 0.958 . S
C941 H956 0.961 . S
C941 H957 0.960 . S
H942 C926 0.931 . S
H943 C931 0.929 . S
H944 C932 0.960 . S
H945 C932 0.962 . S
H946 C932 0.960 . S
H947 C933 0.961 . S
H948 C933 0.961 . S
H949 C933 0.961 . S
H950 C934 0.931 . S
H951 C939 0.930 . S
H952 C940 0.956 . S
H953 C940 0.961 . S
H954 C940 0.961 . S
H955 C941 0.958 . S
H956 C941 0.961 . S
H957 C941 0.960 . S
C958 C959 1.391 . S
C958 C960 1.394 . S
C958 H974 0.931 . S
C959 C958 1.391 . S
C959 C963 1.376 . S
C960 C958 1.394 . S
C960 C961 1.369 . S
C960 C964 1.531 . S
C961 C960 1.369 . S
C961 C962 1.410 . S
C961 C969 1.503 . S
C962 C961 1.410 . S
C962 C963 1.392 . S
C962 C965 1.511 . S
C963 C959 1.376 . S
C963 C962 1.392 . S
C963 H975 0.929 . S
C964 C960 1.531 . S
C964 H976 0.960 . S
C964 H977 0.962 . S
C964 H978 0.960 . S
C965 C962 1.511 . S
C965 H979 0.961 . S
C965 H980 0.961 . S
C965 H981 0.961 . S
C966 C967 1.370 . S
C966 C968 1.363 . S
C966 H982 0.931 . S
C967 C966 1.370 . S
C967 C971 1.408 . S
C968 C966 1.363 . S
C968 C969 1.370 . S
C968 C972 1.524 . S
C969 C961 1.503 . S
C969 C968 1.370 . S
C969 C970 1.403 . S
C970 C969 1.403 . S
C970 C971 1.404 . S
C970 C973 1.539 . S
C971 C967 1.408 . S
C971 C970 1.404 . S
C971 H983 0.930 . S
C972 C968 1.524 . S
C972 H984 0.956 . S
C972 H985 0.961 . S
C972 H986 0.961 . S
C973 C970 1.539 . S
C973 H987 0.958 . S
C973 H988 0.961 . S
C973 H989 0.960 . S
H974 C958 0.931 . S
H975 C963 0.929 . S
H976 C964 0.960 . S
H977 C964 0.962 . S
H978 C964 0.960 . S
H979 C965 0.961 . S
H980 C965 0.961 . S
H981 C965 0.961 . S
H982 C966 0.931 . S
H983 C971 0.930 . S
H984 C972 0.956 . S
H985 C972 0.961 . S
H986 C972 0.961 . S
H987 C973 0.958 . S
H988 C973 0.961 . S
H989 C973 0.960 . S
C990 C991 1.391 . S
C990 C992 1.394 . S
C990 H1006 0.931 . S
C991 C990 1.391 . S
C991 C995 1.376 . S
C992 C990 1.394 . S
C992 C993 1.369 . S
C992 C996 1.531 . S
C993 C992 1.369 . S
C993 C994 1.410 . S
C993 C1001 1.503 . S
C994 C993 1.410 . S
C994 C995 1.392 . S
C994 C997 1.511 . S
C995 C991 1.376 . S
C995 C994 1.392 . S
C995 H1007 0.929 . S
C996 C992 1.531 . S
C996 H1008 0.960 . S
C996 H1009 0.962 . S
C996 H1010 0.960 . S
C997 C994 1.511 . S
C997 H1011 0.961 . S
C997 H1012 0.961 . S
C997 H1013 0.961 . S
C998 C999 1.370 . S
C998 C1000 1.363 . S
C998 H1014 0.931 . S
C999 C998 1.370 . S
C999 C1003 1.408 . S
C1000 C998 1.363 . S
C1000 C1001 1.370 . S
C1000 C1004 1.524 . S
C1001 C993 1.503 . S
C1001 C1000 1.370 . S
C1001 C1002 1.403 . S
C1002 C1001 1.403 . S
C1002 C1003 1.404 . S
C1002 C1005 1.539 . S
C1003 C999 1.408 . S
C1003 C1002 1.404 . S
C1003 H1015 0.930 . S
C1004 C1000 1.524 . S
C1004 H1016 0.956 . S
C1004 H1017 0.961 . S
C1004 H1018 0.961 . S
C1005 C1002 1.539 . S
C1005 H1019 0.958 . S
C1005 H1020 0.961 . S
C1005 H1021 0.960 . S
H1006 C990 0.931 . S
H1007 C995 0.929 . S
H1008 C996 0.960 . S
H1009 C996 0.962 . S
H1010 C996 0.960 . S
H1011 C997 0.961 . S
H1012 C997 0.961 . S
H1013 C997 0.961 . S
H1014 C998 0.931 . S
H1015 C1003 0.930 . S
H1016 C1004 0.956 . S
H1017 C1004 0.961 . S
H1018 C1004 0.961 . S
H1019 C1005 0.958 . S
H1020 C1005 0.961 . S
H1021 C1005 0.960 . S
C1022 C1023 1.391 . S
C1022 C1024 1.394 . S
C1022 H1038 0.931 . S
C1023 C1022 1.391 . S
C1023 C1027 1.376 . S
C1024 C1022 1.394 . S
C1024 C1025 1.369 . S
C1024 C1028 1.531 . S
C1025 C1024 1.369 . S
C1025 C1026 1.410 . S
C1025 C1033 1.503 . S
C1026 C1025 1.410 . S
C1026 C1027 1.392 . S
C1026 C1029 1.511 . S
C1027 C1023 1.376 . S
C1027 C1026 1.392 . S
C1027 H1039 0.929 . S
C1028 C1024 1.531 . S
C1028 H1040 0.960 . S
C1028 H1041 0.962 . S
C1028 H1042 0.960 . S
C1029 C1026 1.511 . S
C1029 H1043 0.961 . S
C1029 H1044 0.961 . S
C1029 H1045 0.961 . S
C1030 C1031 1.370 . S
C1030 C1032 1.363 . S
C1030 H1046 0.931 . S
C1031 C1030 1.370 . S
C1031 C1035 1.408 . S
C1032 C1030 1.363 . S
C1032 C1033 1.370 . S
C1032 C1036 1.524 . S
C1033 C1025 1.503 . S
C1033 C1032 1.370 . S
C1033 C1034 1.403 . S
C1034 C1033 1.403 . S
C1034 C1035 1.404 . S
C1034 C1037 1.539 . S
C1035 C1031 1.408 . S
C1035 C1034 1.404 . S
C1035 H1047 0.930 . S
C1036 C1032 1.524 . S
C1036 H1048 0.956 . S
C1036 H1049 0.961 . S
C1036 H1050 0.961 . S
C1037 C1034 1.539 . S
C1037 H1051 0.958 . S
C1037 H1052 0.961 . S
C1037 H1053 0.960 . S
H1038 C1022 0.931 . S
H1039 C1027 0.929 . S
H1040 C1028 0.960 . S
H1041 C1028 0.962 . S
H1042 C1028 0.960 . S
H1043 C1029 0.961 . S
H1044 C1029 0.961 . S
H1045 C1029 0.961 . S
H1046 C1030 0.931 . S
H1047 C1035 0.930 . S
H1048 C1036 0.956 . S
H1049 C1036 0.961 . S
H1050 C1036 0.961 . S
H1051 C1037 0.958 . S
H1052 C1037 0.961 . S
H1053 C1037 0.960 . S
C1054 C1055 1.391 . S
C1054 C1056 1.394 . S
C1054 H1070 0.931 . S
C1055 C1054 1.391 . S
C1055 C1059 1.376 . S
C1056 C1054 1.394 . S
C1056 C1057 1.369 . S
C1056 C1060 1.531 . S
C1057 C1056 1.369 . S
C1057 C1058 1.410 . S
C1057 C1065 1.503 . S
C1058 C1057 1.410 . S
C1058 C1059 1.392 . S
C1058 C1061 1.511 . S
C1059 C1055 1.376 . S
C1059 C1058 1.392 . S
C1059 H1071 0.929 . S
C1060 C1056 1.531 . S
C1060 H1072 0.960 . S
C1060 H1073 0.962 . S
C1060 H1074 0.960 . S
C1061 C1058 1.511 . S
C1061 H1075 0.961 . S
C1061 H1076 0.961 . S
C1061 H1077 0.961 . S
C1062 C1063 1.370 . S
C1062 C1064 1.363 . S
C1062 H1078 0.931 . S
C1063 C1062 1.370 . S
C1063 C1067 1.408 . S
C1064 C1062 1.363 . S
C1064 C1065 1.370 . S
C1064 C1068 1.524 . S
C1065 C1057 1.503 . S
C1065 C1064 1.370 . S
C1065 C1066 1.403 . S
C1066 C1065 1.403 . S
C1066 C1067 1.404 . S
C1066 C1069 1.539 . S
C1067 C1063 1.408 . S
C1067 C1066 1.404 . S
C1067 H1079 0.930 . S
C1068 C1064 1.524 . S
C1068 H1080 0.956 . S
C1068 H1081 0.961 . S
C1068 H1082 0.961 . S
C1069 C1066 1.539 . S
C1069 H1083 0.958 . S
C1069 H1084 0.961 . S
C1069 H1085 0.960 . S
H1070 C1054 0.931 . S
H1071 C1059 0.929 . S
H1072 C1060 0.960 . S
H1073 C1060 0.962 . S
H1074 C1060 0.960 . S
H1075 C1061 0.961 . S
H1076 C1061 0.961 . S
H1077 C1061 0.961 . S
H1078 C1062 0.931 . S
H1079 C1067 0.930 . S
H1080 C1068 0.956 . S
H1081 C1068 0.961 . S
H1082 C1068 0.961 . S
H1083 C1069 0.958 . S
H1084 C1069 0.961 . S
H1085 C1069 0.960 . S
C1086 C1087 1.391 . S
C1086 C1088 1.394 . S
C1086 H1102 0.931 . S
C1087 C1086 1.391 . S
C1087 C1091 1.376 . S
C1088 C1086 1.394 . S
C1088 C1089 1.369 . S
C1088 C1092 1.531 . S
C1089 C1088 1.369 . S
C1089 C1090 1.410 . S
C1089 C1097 1.503 1_545 S
C1090 C1089 1.410 . S
C1090 C1091 1.392 . S
C1090 C1093 1.511 . S
C1091 C1087 1.376 . S
C1091 C1090 1.392 . S
C1091 H1103 0.929 . S
C1092 C1088 1.531 . S
C1092 H1104 0.960 . S
C1092 H1105 0.962 . S
C1092 H1106 0.960 . S
C1093 C1090 1.511 . S
C1093 H1107 0.961 . S
C1093 H1108 0.961 1_545 S
C1093 H1109 0.961 . S
C1094 C1095 1.370 . S
C1094 C1096 1.363 . S
C1094 H1110 0.931 . S
C1095 C1094 1.370 . S
C1095 C1099 1.408 . S
C1096 C1094 1.363 . S
C1096 C1097 1.370 . S
C1096 C1100 1.524 . S
C1097 C1089 1.503 1_565 S
C1097 C1096 1.370 . S
C1097 C1098 1.403 . S
C1098 C1097 1.403 . S
C1098 C1099 1.404 . S
C1098 C1101 1.539 1_565 S
C1099 C1095 1.408 . S
C1099 C1098 1.404 . S
C1099 H1111 0.930 . S
C1100 C1096 1.524 . S
C1100 H1112 0.956 . S
C1100 H1113 0.961 . S
C1100 H1114 0.961 . S
C1101 C1098 1.539 1_545 S
C1101 H1115 0.958 . S
C1101 H1116 0.961 1_545 S
C1101 H1117 0.960 . S
H1102 C1086 0.931 . S
H1103 C1091 0.929 . S
H1104 C1092 0.960 . S
H1105 C1092 0.962 . S
H1106 C1092 0.960 . S
H1107 C1093 0.961 . S
H1108 C1093 0.961 1_565 S
H1109 C1093 0.961 . S
H1110 C1094 0.931 . S
H1111 C1099 0.930 . S
H1112 C1100 0.956 . S
H1113 C1100 0.961 . S
H1114 C1100 0.961 . S
H1115 C1101 0.958 . S
H1116 C1101 0.961 1_565 S
H1117 C1101 0.960 . S
C1118 C1119 1.391 . S
C1118 C1120 1.394 . S
C1118 H1134 0.931 . S
C1119 C1118 1.391 . S
C1119 C1123 1.376 . S
C1120 C1118 1.394 . S
C1120 C1121 1.369 . S
C1120 C1124 1.531 1_655 S
C1121 C1120 1.369 . S
C1121 C1122 1.410 . S
C1121 C1129 1.503 1_655 S
C1122 C1121 1.410 . S
C1122 C1123 1.392 . S
C1122 C1125 1.511 . S
C1123 C1119 1.376 . S
C1123 C1122 1.392 . S
C1123 H1135 0.929 . S
C1124 C1120 1.531 1_455 S
C1124 H1136 0.960 . S
C1124 H1137 0.962 . S
C1124 H1138 0.960 . S
C1125 C1122 1.511 . S
C1125 H1139 0.961 . S
C1125 H1140 0.961 . S
C1125 H1141 0.961 . S
C1126 C1127 1.370 . S
C1126 C1128 1.363 . S
C1126 H1142 0.931 . S
C1127 C1126 1.370 . S
C1127 C1131 1.408 . S
C1128 C1126 1.363 . S
C1128 C1129 1.370 . S
C1128 C1132 1.524 . S
C1129 C1121 1.503 1_455 S
C1129 C1128 1.370 . S
C1129 C1130 1.403 . S
C1130 C1129 1.403 . S
C1130 C1131 1.404 . S
C1130 C1133 1.539 . S
C1131 C1127 1.408 . S
C1131 C1130 1.404 . S
C1131 H1143 0.930 . S
C1132 C1128 1.524 . S
C1132 H1144 0.956 . S
C1132 H1145 0.961 . S
C1132 H1146 0.961 . S
C1133 C1130 1.539 . S
C1133 H1147 0.958 . S
C1133 H1148 0.961 . S
C1133 H1149 0.960 1_455 S
H1134 C1118 0.931 . S
H1135 C1123 0.929 . S
H1136 C1124 0.960 . S
H1137 C1124 0.962 . S
H1138 C1124 0.960 . S
H1139 C1125 0.961 . S
H1140 C1125 0.961 . S
H1141 C1125 0.961 . S
H1142 C1126 0.931 . S
H1143 C1131 0.930 . S
H1144 C1132 0.956 . S
H1145 C1132 0.961 . S
H1146 C1132 0.961 . S
H1147 C1133 0.958 . S
H1148 C1133 0.961 . S
H1149 C1133 0.960 1_655 S
C1150 C1151 1.391 . S
C1150 C1152 1.394 . S
C1150 H1166 0.931 . S
C1151 C1150 1.391 . S
C1151 C1155 1.376 . S
C1152 C1150 1.394 . S
C1152 C1153 1.369 . S
C1152 C1156 1.531 . S
C1153 C1152 1.369 . S
C1153 C1154 1.410 . S
C1153 C1161 1.503 . S
C1154 C1153 1.410 . S
C1154 C1155 1.392 . S
C1154 C1157 1.511 . S
C1155 C1151 1.376 . S
C1155 C1154 1.392 . S
C1155 H1167 0.929 . S
C1156 C1152 1.531 . S
C1156 H1168 0.960 . S
C1156 H1169 0.962 . S
C1156 H1170 0.960 . S
C1157 C1154 1.511 . S
C1157 H1171 0.961 . S
C1157 H1172 0.961 . S
C1157 H1173 0.961 . S
C1158 C1159 1.370 . S
C1158 C1160 1.363 . S
C1158 H1174 0.931 . S
C1159 C1158 1.370 . S
C1159 C1163 1.408 . S
C1160 C1158 1.363 . S
C1160 C1161 1.370 . S
C1160 C1164 1.524 . S
C1161 C1153 1.503 . S
C1161 C1160 1.370 . S
C1161 C1162 1.403 . S
C1162 C1161 1.403 . S
C1162 C1163 1.404 . S
C1162 C1165 1.539 . S
C1163 C1159 1.408 . S
C1163 C1162 1.404 . S
C1163 H1175 0.930 . S
C1164 C1160 1.524 . S
C1164 H1176 0.956 . S
C1164 H1177 0.961 . S
C1164 H1178 0.961 . S
C1165 C1162 1.539 . S
C1165 H1179 0.958 . S
C1165 H1180 0.961 . S
C1165 H1181 0.960 . S
H1166 C1150 0.931 . S
H1167 C1155 0.929 . S
H1168 C1156 0.960 . S
H1169 C1156 0.962 . S
H1170 C1156 0.960 . S
H1171 C1157 0.961 . S
H1172 C1157 0.961 . S
H1173 C1157 0.961 . S
H1174 C1158 0.931 . S
H1175 C1163 0.930 . S
H1176 C1164 0.956 . S
H1177 C1164 0.961 . S
H1178 C1164 0.961 . S
H1179 C1165 0.958 . S
H1180 C1165 0.961 . S
H1181 C1165 0.960 . S
C1182 C1183 1.391 . S
C1182 C1184 1.394 . S
C1182 H1198 0.931 . S
C1183 C1182 1.391 . S
C1183 C1187 1.376 . S
C1184 C1182 1.394 . S
C1184 C1185 1.369 . S
C1184 C1188 1.531 . S
C1185 C1184 1.369 . S
C1185 C1186 1.410 . S
C1185 C1193 1.503 . S
C1186 C1185 1.410 . S
C1186 C1187 1.392 . S
C1186 C1189 1.511 . S
C1187 C1183 1.376 . S
C1187 C1186 1.392 . S
C1187 H1199 0.929 . S
C1188 C1184 1.531 . S
C1188 H1200 0.960 . S
C1188 H1201 0.962 . S
C1188 H1202 0.960 . S
C1189 C1186 1.511 . S
C1189 H1203 0.961 . S
C1189 H1204 0.961 . S
C1189 H1205 0.961 . S
C1190 C1191 1.370 . S
C1190 C1192 1.363 . S
C1190 H1206 0.931 . S
C1191 C1190 1.370 . S
C1191 C1195 1.408 . S
C1192 C1190 1.363 . S
C1192 C1193 1.370 . S
C1192 C1196 1.524 . S
C1193 C1185 1.503 . S
C1193 C1192 1.370 . S
C1193 C1194 1.403 . S
C1194 C1193 1.403 . S
C1194 C1195 1.404 . S
C1194 C1197 1.539 . S
C1195 C1191 1.408 . S
C1195 C1194 1.404 . S
C1195 H1207 0.930 . S
C1196 C1192 1.524 . S
C1196 H1208 0.956 . S
C1196 H1209 0.961 . S
C1196 H1210 0.961 . S
C1197 C1194 1.539 . S
C1197 H1211 0.958 . S
C1197 H1212 0.961 . S
C1197 H1213 0.960 . S
H1198 C1182 0.931 . S
H1199 C1187 0.929 . S
H1200 C1188 0.960 . S
H1201 C1188 0.962 . S
H1202 C1188 0.960 . S
H1203 C1189 0.961 . S
H1204 C1189 0.961 . S
H1205 C1189 0.961 . S
H1206 C1190 0.931 . S
H1207 C1195 0.930 . S
H1208 C1196 0.956 . S
H1209 C1196 0.961 . S
H1210 C1196 0.961 . S
H1211 C1197 0.958 . S
H1212 C1197 0.961 . S
H1213 C1197 0.960 . S
C1214 C1215 1.391 . S
C1214 C1216 1.394 . S
C1214 H1230 0.931 . S
C1215 C1214 1.391 . S
C1215 C1219 1.376 . S
C1216 C1214 1.394 . S
C1216 C1217 1.369 . S
C1216 C1220 1.531 . S
C1217 C1216 1.369 . S
C1217 C1218 1.410 . S
C1217 C1225 1.503 . S
C1218 C1217 1.410 . S
C1218 C1219 1.392 . S
C1218 C1221 1.511 . S
C1219 C1215 1.376 . S
C1219 C1218 1.392 . S
C1219 H1231 0.929 . S
C1220 C1216 1.531 . S
C1220 H1232 0.960 . S
C1220 H1233 0.962 . S
C1220 H1234 0.960 . S
C1221 C1218 1.511 . S
C1221 H1235 0.961 . S
C1221 H1236 0.961 . S
C1221 H1237 0.961 . S
C1222 C1223 1.370 . S
C1222 C1224 1.363 . S
C1222 H1238 0.931 . S
C1223 C1222 1.370 . S
C1223 C1227 1.408 . S
C1224 C1222 1.363 . S
C1224 C1225 1.370 . S
C1224 C1228 1.524 . S
C1225 C1217 1.503 . S
C1225 C1224 1.370 . S
C1225 C1226 1.403 . S
C1226 C1225 1.403 . S
C1226 C1227 1.404 . S
C1226 C1229 1.539 . S
C1227 C1223 1.408 . S
C1227 C1226 1.404 . S
C1227 H1239 0.930 . S
C1228 C1224 1.524 . S
C1228 H1240 0.956 . S
C1228 H1241 0.961 . S
C1228 H1242 0.961 . S
C1229 C1226 1.539 . S
C1229 H1243 0.958 . S
C1229 H1244 0.961 . S
C1229 H1245 0.960 . S
H1230 C1214 0.931 . S
H1231 C1219 0.929 . S
H1232 C1220 0.960 . S
H1233 C1220 0.962 . S
H1234 C1220 0.960 . S
H1235 C1221 0.961 . S
H1236 C1221 0.961 . S
H1237 C1221 0.961 . S
H1238 C1222 0.931 . S
H1239 C1227 0.930 . S
H1240 C1228 0.956 . S
H1241 C1228 0.961 . S
H1242 C1228 0.961 . S
H1243 C1229 0.958 . S
H1244 C1229 0.961 . S
H1245 C1229 0.960 . S
C1246 C1247 1.391 . S
C1246 C1248 1.394 . S
C1246 H1262 0.931 . S
C1247 C1246 1.391 . S
C1247 C1251 1.376 . S
C1248 C1246 1.394 . S
C1248 C1249 1.369 . S
C1248 C1252 1.531 . S
C1249 C1248 1.369 . S
C1249 C1250 1.410 . S
C1249 C1257 1.503 . S
C1250 C1249 1.410 . S
C1250 C1251 1.392 . S
C1250 C1253 1.511 . S
C1251 C1247 1.376 . S
C1251 C1250 1.392 . S
C1251 H1263 0.929 . S
C1252 C1248 1.531 . S
C1252 H1264 0.960 . S
C1252 H1265 0.962 . S
C1252 H1266 0.960 . S
C1253 C1250 1.511 . S
C1253 H1267 0.961 . S
C1253 H1268 0.961 . S
C1253 H1269 0.961 . S
C1254 C1255 1.370 . S
C1254 C1256 1.363 . S
C1254 H1270 0.931 . S
C1255 C1254 1.370 . S
C1255 C1259 1.408 . S
C1256 C1254 1.363 . S
C1256 C1257 1.370 . S
C1256 C1260 1.524 . S
C1257 C1249 1.503 . S
C1257 C1256 1.370 . S
C1257 C1258 1.403 . S
C1258 C1257 1.403 . S
C1258 C1259 1.404 . S
C1258 C1261 1.539 . S
C1259 C1255 1.408 . S
C1259 C1258 1.404 . S
C1259 H1271 0.930 . S
C1260 C1256 1.524 . S
C1260 H1272 0.956 . S
C1260 H1273 0.961 . S
C1260 H1274 0.961 . S
C1261 C1258 1.539 . S
C1261 H1275 0.958 . S
C1261 H1276 0.961 . S
C1261 H1277 0.960 . S
H1262 C1246 0.931 . S
H1263 C1251 0.929 . S
H1264 C1252 0.960 . S
H1265 C1252 0.962 . S
H1266 C1252 0.960 . S
H1267 C1253 0.961 . S
H1268 C1253 0.961 . S
H1269 C1253 0.961 . S
H1270 C1254 0.931 . S
H1271 C1259 0.930 . S
H1272 C1260 0.956 . S
H1273 C1260 0.961 . S
H1274 C1260 0.961 . S
H1275 C1261 0.958 . S
H1276 C1261 0.961 . S
H1277 C1261 0.960 . S
C1278 C1279 1.391 . S
C1278 C1280 1.394 1_565 S
C1278 H1294 0.931 . S
C1279 C1278 1.391 . S
C1279 C1283 1.376 . S
C1280 C1278 1.394 1_545 S
C1280 C1281 1.369 . S
C1280 C1284 1.531 . S
C1281 C1280 1.369 . S
C1281 C1282 1.410 1_545 S
C1281 C1289 1.503 . S
C1282 C1281 1.410 1_565 S
C1282 C1283 1.392 . S
C1282 C1285 1.511 . S
C1283 C1279 1.376 . S
C1283 C1282 1.392 . S
C1283 H1295 0.929 . S
C1284 C1280 1.531 . S
C1284 H1296 0.960 . S
C1284 H1297 0.962 . S
C1284 H1298 0.960 . S
C1285 C1282 1.511 . S
C1285 H1299 0.961 . S
C1285 H1300 0.961 1_565 S
C1285 H1301 0.961 . S
C1286 C1287 1.370 . S
C1286 C1288 1.363 . S
C1286 H1302 0.931 . S
C1287 C1286 1.370 . S
C1287 C1291 1.408 . S
C1288 C1286 1.363 . S
C1288 C1289 1.370 . S
C1288 C1292 1.524 . S
C1289 C1281 1.503 . S
C1289 C1288 1.370 . S
C1289 C1290 1.403 . S
C1290 C1289 1.403 . S
C1290 C1291 1.404 . S
C1290 C1293 1.539 . S
C1291 C1287 1.408 . S
C1291 C1290 1.404 . S
C1291 H1303 0.930 . S
C1292 C1288 1.524 . S
C1292 H1304 0.956 . S
C1292 H1305 0.961 . S
C1292 H1306 0.961 . S
C1293 C1290 1.539 . S
C1293 H1307 0.958 . S
C1293 H1308 0.961 . S
C1293 H1309 0.960 . S
H1294 C1278 0.931 . S
H1295 C1283 0.929 . S
H1296 C1284 0.960 . S
H1297 C1284 0.962 . S
H1298 C1284 0.960 . S
H1299 C1285 0.961 . S
H1300 C1285 0.961 1_545 S
H1301 C1285 0.961 . S
H1302 C1286 0.931 . S
H1303 C1291 0.930 . S
H1304 C1292 0.956 . S
H1305 C1292 0.961 . S
H1306 C1292 0.961 . S
H1307 C1293 0.958 . S
H1308 C1293 0.961 . S
H1309 C1293 0.960 . S
C1310 C1311 1.391 . S
C1310 C1312 1.394 . S
C1310 H1326 0.931 . S
C1311 C1310 1.391 . S
C1311 C1315 1.376 . S
C1312 C1310 1.394 . S
C1312 C1313 1.369 . S
C1312 C1316 1.531 1_455 S
C1313 C1312 1.369 . S
C1313 C1314 1.410 . S
C1313 C1321 1.503 1_455 S
C1314 C1313 1.410 . S
C1314 C1315 1.392 . S
C1314 C1317 1.511 . S
C1315 C1311 1.376 . S
C1315 C1314 1.392 . S
C1315 H1327 0.929 . S
C1316 C1312 1.531 1_655 S
C1316 H1328 0.960 . S
C1316 H1329 0.962 . S
C1316 H1330 0.960 . S
C1317 C1314 1.511 . S
C1317 H1331 0.961 . S
C1317 H1332 0.961 . S
C1317 H1333 0.961 . S
C1318 C1319 1.370 . S
C1318 C1320 1.363 . S
C1318 H1334 0.931 . S
C1319 C1318 1.370 . S
C1319 C1323 1.408 . S
C1320 C1318 1.363 . S
C1320 C1321 1.370 . S
C1320 C1324 1.540 . S
C1321 C1313 1.503 1_655 S
C1321 C1320 1.370 . S
C1321 C1322 1.403 . S
C1322 C1321 1.403 . S
C1322 C1323 1.404 . S
C1322 C1325 1.539 . S
C1323 C1319 1.408 . S
C1323 C1322 1.404 . S
C1323 H1335 0.930 . S
C1324 C1320 1.540 . S
C1324 H1336 0.954 1_655 S
C1324 H1337 0.928 1_655 S
C1324 H1338 0.981 . S
C1325 C1322 1.539 . S
C1325 H1339 0.958 . S
C1325 H1340 0.961 . S
C1325 H1341 0.960 . S
H1326 C1310 0.931 . S
H1327 C1315 0.929 . S
H1328 C1316 0.960 . S
H1329 C1316 0.962 . S
H1330 C1316 0.960 . S
H1331 C1317 0.961 . S
H1332 C1317 0.961 . S
H1333 C1317 0.961 . S
H1334 C1318 0.931 . S
H1335 C1323 0.930 . S
H1336 C1324 0.954 1_455 S
H1337 C1324 0.928 1_455 S
H1338 C1324 0.981 . S
H1339 C1325 0.958 . S
H1340 C1325 0.961 . S
H1341 C1325 0.960 . S
C1342 C1343 1.391 . S
C1342 C1344 1.394 . S
C1342 H1358 0.931 . S
C1343 C1342 1.391 . S
C1343 C1347 1.376 . S
C1344 C1342 1.394 . S
C1344 C1345 1.369 . S
C1344 C1348 1.531 . S
C1345 C1344 1.369 . S
C1345 C1346 1.410 . S
C1345 C1353 1.503 . S
C1346 C1345 1.410 . S
C1346 C1347 1.392 . S
C1346 C1349 1.511 . S
C1347 C1343 1.376 . S
C1347 C1346 1.392 . S
C1347 H1359 0.929 . S
C1348 C1344 1.531 . S
C1348 H1360 0.960 . S
C1348 H1361 0.962 . S
C1348 H1362 0.960 . S
C1349 C1346 1.511 . S
C1349 H1363 0.961 . S
C1349 H1364 0.961 . S
C1349 H1365 0.961 . S
C1350 C1351 1.370 . S
C1350 C1352 1.363 . S
C1350 H1366 0.931 . S
C1351 C1350 1.370 . S
C1351 C1355 1.408 . S
C1352 C1350 1.363 . S
C1352 C1353 1.370 . S
C1352 C1356 1.524 . S
C1353 C1345 1.503 . S
C1353 C1352 1.370 . S
C1353 C1354 1.403 . S
C1354 C1353 1.403 . S
C1354 C1355 1.404 . S
C1354 C1357 1.539 . S
C1355 C1351 1.408 . S
C1355 C1354 1.404 . S
C1355 H1367 0.930 . S
C1356 C1352 1.524 . S
C1356 H1368 0.956 . S
C1356 H1369 0.961 . S
C1356 H1370 0.961 . S
C1357 C1354 1.539 . S
C1357 H1371 0.958 . S
C1357 H1372 0.961 . S
C1357 H1373 0.960 . S
H1358 C1342 0.931 . S
H1359 C1347 0.929 . S
H1360 C1348 0.960 . S
H1361 C1348 0.962 . S
H1362 C1348 0.960 . S
H1363 C1349 0.961 . S
H1364 C1349 0.961 . S
H1365 C1349 0.961 . S
H1366 C1350 0.931 . S
H1367 C1355 0.930 . S
H1368 C1356 0.956 . S
H1369 C1356 0.961 . S
H1370 C1356 0.961 . S
H1371 C1357 0.958 . S
H1372 C1357 0.961 . S
H1373 C1357 0.960 . S
C1374 C1375 1.391 . S
C1374 C1376 1.394 . S
C1374 H1390 0.931 . S
C1375 C1374 1.391 . S
C1375 C1379 1.376 . S
C1376 C1374 1.394 . S
C1376 C1377 1.369 . S
C1376 C1380 1.531 . S
C1377 C1376 1.369 . S
C1377 C1378 1.410 . S
C1377 C1385 1.503 . S
C1378 C1377 1.410 . S
C1378 C1379 1.392 . S
C1378 C1381 1.511 . S
C1379 C1375 1.376 . S
C1379 C1378 1.392 . S
C1379 H1391 0.929 . S
C1380 C1376 1.531 . S
C1380 H1392 0.960 . S
C1380 H1393 0.962 . S
C1380 H1394 0.960 . S
C1381 C1378 1.511 . S
C1381 H1395 0.961 . S
C1381 H1396 0.961 . S
C1381 H1397 0.961 . S
C1382 C1383 1.370 . S
C1382 C1384 1.363 1_655 S
C1382 H1398 0.931 . S
C1383 C1382 1.370 . S
C1383 C1387 1.408 . S
C1384 C1382 1.363 1_455 S
C1384 C1385 1.370 . S
C1384 C1388 1.524 . S
C1385 C1377 1.503 . S
C1385 C1384 1.370 . S
C1385 C1386 1.408 . S
C1386 C1385 1.408 . S
C1386 C1387 1.374 1_455 S
C1386 C1389 1.566 . S
C1387 C1383 1.408 . S
C1387 C1386 1.374 1_655 S
C1387 H1399 0.930 . S
C1388 C1384 1.524 . S
C1388 H1400 0.956 . S
C1388 H1401 0.961 . S
C1388 H1402 0.961 . S
C1389 C1386 1.566 . S
C1389 H1403 0.958 . S
C1389 H1404 0.961 . S
C1389 H1405 0.960 . S
H1390 C1374 0.931 . S
H1391 C1379 0.929 . S
H1392 C1380 0.960 . S
H1393 C1380 0.962 . S
H1394 C1380 0.960 . S
H1395 C1381 0.961 . S
H1396 C1381 0.961 . S
H1397 C1381 0.961 . S
H1398 C1382 0.931 . S
H1399 C1387 0.930 . S
H1400 C1388 0.956 . S
H1401 C1388 0.961 . S
H1402 C1388 0.961 . S
H1403 C1389 0.958 . S
H1404 C1389 0.961 . S
H1405 C1389 0.960 . S
C1406 C1407 1.391 . S
C1406 C1408 1.394 . S
C1406 H1422 0.931 . S
C1407 C1406 1.391 . S
C1407 C1411 1.376 . S
C1408 C1406 1.394 . S
C1408 C1409 1.369 . S
C1408 C1412 1.531 . S
C1409 C1408 1.369 . S
C1409 C1410 1.410 . S
C1409 C1417 1.503 . S
C1410 C1409 1.410 . S
C1410 C1411 1.392 . S
C1410 C1413 1.511 . S
C1411 C1407 1.376 . S
C1411 C1410 1.392 . S
C1411 H1423 0.929 . S
C1412 C1408 1.531 . S
C1412 H1424 0.960 . S
C1412 H1425 0.962 . S
C1412 H1426 0.960 . S
C1413 C1410 1.511 . S
C1413 H1427 0.961 . S
C1413 H1428 0.961 . S
C1413 H1429 0.961 . S
C1414 C1415 1.370 . S
C1414 C1416 1.363 . S
C1414 H1430 0.931 . S
C1415 C1414 1.370 . S
C1415 C1419 1.408 . S
C1416 C1414 1.363 . S
C1416 C1417 1.370 . S
C1416 C1420 1.524 . S
C1417 C1409 1.503 . S
C1417 C1416 1.370 . S
C1417 C1418 1.403 . S
C1418 C1417 1.403 . S
C1418 C1419 1.404 . S
C1418 C1421 1.539 . S
C1419 C1415 1.408 . S
C1419 C1418 1.404 . S
C1419 H1431 0.930 . S
C1420 C1416 1.524 . S
C1420 H1432 0.956 . S
C1420 H1433 0.961 . S
C1420 H1434 0.961 . S
C1421 C1418 1.539 . S
C1421 H1435 0.958 . S
C1421 H1436 0.961 . S
C1421 H1437 0.960 . S
H1422 C1406 0.931 . S
H1423 C1411 0.929 . S
H1424 C1412 0.960 . S
H1425 C1412 0.962 . S
H1426 C1412 0.960 . S
H1427 C1413 0.961 . S
H1428 C1413 0.961 . S
H1429 C1413 0.961 . S
H1430 C1414 0.931 . S
H1431 C1419 0.930 . S
H1432 C1420 0.956 . S
H1433 C1420 0.961 . S
H1434 C1420 0.961 . S
H1435 C1421 0.958 . S
H1436 C1421 0.961 . S
H1437 C1421 0.960 . S
C1438 C1439 1.391 . S
C1438 C1440 1.394 . S
C1438 H1454 0.931 . S
C1439 C1438 1.391 . S
C1439 C1443 1.376 . S
C1440 C1438 1.394 . S
C1440 C1441 1.369 . S
C1440 C1444 1.531 . S
C1441 C1440 1.369 . S
C1441 C1442 1.410 . S
C1441 C1449 1.503 1_565 S
C1442 C1441 1.410 . S
C1442 C1443 1.392 . S
C1442 C1445 1.511 1_565 S
C1443 C1439 1.376 . S
C1443 C1442 1.392 . S
C1443 H1455 0.929 . S
C1444 C1440 1.531 . S
C1444 H1456 0.960 . S
C1444 H1457 0.962 . S
C1444 H1458 0.960 . S
C1445 C1442 1.511 1_545 S
C1445 H1459 0.961 . S
C1445 H1460 0.961 . S
C1445 H1461 0.961 . S
C1446 C1447 1.370 . S
C1446 C1448 1.363 . S
C1446 H1462 0.931 . S
C1447 C1446 1.370 . S
C1447 C1451 1.408 . S
C1448 C1446 1.363 . S
C1448 C1449 1.370 . S
C1448 C1452 1.524 . S
C1449 C1441 1.503 1_545 S
C1449 C1448 1.370 . S
C1449 C1450 1.403 . S
C1450 C1449 1.403 . S
C1450 C1451 1.404 . S
C1450 C1453 1.539 . S
C1451 C1447 1.408 . S
C1451 C1450 1.404 . S
C1451 H1463 0.930 . S
C1452 C1448 1.524 . S
C1452 H1464 0.956 . S
C1452 H1465 0.961 . S
C1452 H1466 0.961 . S
C1453 C1450 1.539 . S
C1453 H1467 0.958 . S
C1453 H1468 0.961 . S
C1453 H1469 0.963 . S
H1454 C1438 0.931 . S
H1455 C1443 0.929 . S
H1456 C1444 0.960 . S
H1457 C1444 0.962 . S
H1458 C1444 0.960 . S
H1459 C1445 0.961 . S
H1460 C1445 0.961 . S
H1461 C1445 0.961 . S
H1462 C1446 0.931 . S
H1463 C1451 0.930 . S
H1464 C1452 0.956 . S
H1465 C1452 0.961 . S
H1466 C1452 0.961 . S
H1467 C1453 0.958 . S
H1468 C1453 0.961 . S
H1469 C1453 0.963 . S
C1470 C1471 1.391 . S
C1470 C1472 1.394 . S
C1470 H1486 0.931 . S
C1471 C1470 1.391 . S
C1471 C1475 1.376 . S
C1472 C1470 1.394 . S
C1472 C1473 1.369 . S
C1472 C1476 1.531 . S
C1473 C1472 1.369 . S
C1473 C1474 1.410 . S
C1473 C1481 1.503 . S
C1474 C1473 1.410 . S
C1474 C1475 1.392 . S
C1474 C1477 1.511 . S
C1475 C1471 1.376 . S
C1475 C1474 1.392 . S
C1475 H1487 0.929 . S
C1476 C1472 1.531 . S
C1476 H1488 0.960 . S
C1476 H1489 0.962 . S
C1476 H1490 0.960 . S
C1477 C1474 1.511 . S
C1477 H1491 0.961 . S
C1477 H1492 0.961 . S
C1477 H1493 0.961 . S
C1478 C1479 1.370 . S
C1478 C1480 1.363 . S
C1478 H1494 0.931 . S
C1479 C1478 1.370 . S
C1479 C1483 1.408 . S
C1480 C1478 1.363 . S
C1480 C1481 1.370 . S
C1480 C1484 1.524 . S
C1481 C1473 1.503 . S
C1481 C1480 1.370 . S
C1481 C1482 1.403 . S
C1482 C1481 1.403 . S
C1482 C1483 1.404 . S
C1482 C1485 1.539 . S
C1483 C1479 1.408 . S
C1483 C1482 1.404 . S
C1483 H1495 0.930 . S
C1484 C1480 1.524 . S
C1484 H1496 0.956 . S
C1484 H1497 0.961 . S
C1484 H1498 0.961 . S
C1485 C1482 1.539 . S
C1485 H1499 0.958 . S
C1485 H1500 0.961 . S
C1485 H1501 0.960 . S
H1486 C1470 0.931 . S
H1487 C1475 0.929 . S
H1488 C1476 0.960 . S
H1489 C1476 0.962 . S
H1490 C1476 0.960 . S
H1491 C1477 0.961 . S
H1492 C1477 0.961 . S
H1493 C1477 0.961 . S
H1494 C1478 0.931 . S
H1495 C1483 0.930 . S
H1496 C1484 0.956 . S
H1497 C1484 0.961 . S
H1498 C1484 0.961 . S
H1499 C1485 0.958 . S
H1500 C1485 0.961 . S
H1501 C1485 0.960 . S
C1502 C1503 1.391 . S
C1502 C1504 1.394 . S
C1502 H1518 0.931 . S
C1503 C1502 1.391 . S
C1503 C1507 1.376 . S
C1504 C1502 1.394 . S
C1504 C1505 1.369 . S
C1504 C1508 1.531 . S
C1505 C1504 1.369 . S
C1505 C1506 1.410 . S
C1505 C1513 1.503 . S
C1506 C1505 1.410 . S
C1506 C1507 1.392 . S
C1506 C1509 1.511 . S
C1507 C1503 1.376 . S
C1507 C1506 1.392 . S
C1507 H1519 0.929 . S
C1508 C1504 1.531 . S
C1508 H1520 0.960 . S
C1508 H1521 0.962 . S
C1508 H1522 0.960 . S
C1509 C1506 1.511 . S
C1509 H1523 0.961 . S
C1509 H1524 0.961 . S
C1509 H1525 0.961 . S
C1510 C1511 1.370 . S
C1510 C1512 1.363 . S
C1510 H1526 0.931 . S
C1511 C1510 1.370 . S
C1511 C1515 1.408 . S
C1512 C1510 1.363 . S
C1512 C1513 1.370 . S
C1512 C1516 1.524 . S
C1513 C1505 1.503 . S
C1513 C1512 1.370 . S
C1513 C1514 1.403 . S
C1514 C1513 1.403 . S
C1514 C1515 1.404 . S
C1514 C1517 1.539 . S
C1515 C1511 1.408 . S
C1515 C1514 1.404 . S
C1515 H1527 0.930 . S
C1516 C1512 1.524 . S
C1516 H1528 0.956 . S
C1516 H1529 0.961 . S
C1516 H1530 0.961 . S
C1517 C1514 1.539 . S
C1517 H1531 0.958 . S
C1517 H1532 0.961 . S
C1517 H1533 0.960 . S
H1518 C1502 0.931 . S
H1519 C1507 0.929 . S
H1520 C1508 0.960 . S
H1521 C1508 0.962 . S
H1522 C1508 0.960 . S
H1523 C1509 0.961 . S
H1524 C1509 0.961 . S
H1525 C1509 0.961 . S
H1526 C1510 0.931 . S
H1527 C1515 0.930 . S
H1528 C1516 0.956 . S
H1529 C1516 0.961 . S
H1530 C1516 0.961 . S
H1531 C1517 0.958 . S
H1532 C1517 0.961 . S
H1533 C1517 0.960 . S
C1534 C1535 1.391 . S
C1534 C1536 1.394 . S
C1534 H1550 0.931 . S
C1535 C1534 1.391 . S
C1535 C1539 1.376 . S
C1536 C1534 1.394 . S
C1536 C1537 1.369 . S
C1536 C1540 1.531 . S
C1537 C1536 1.369 . S
C1537 C1538 1.410 . S
C1537 C1545 1.503 . S
C1538 C1537 1.410 . S
C1538 C1539 1.392 . S
C1538 C1541 1.511 . S
C1539 C1535 1.376 . S
C1539 C1538 1.392 . S
C1539 H1551 0.929 . S
C1540 C1536 1.531 . S
C1540 H1552 0.960 . S
C1540 H1553 0.962 . S
C1540 H1554 0.960 . S
C1541 C1538 1.511 . S
C1541 H1555 0.961 . S
C1541 H1556 0.961 . S
C1541 H1557 0.961 . S
C1542 C1543 1.370 . S
C1542 C1544 1.363 . S
C1542 H1558 0.931 . S
C1543 C1542 1.370 . S
C1543 C1547 1.408 . S
C1544 C1542 1.363 . S
C1544 C1545 1.370 . S
C1544 C1548 1.524 . S
C1545 C1537 1.503 . S
C1545 C1544 1.370 . S
C1545 C1546 1.403 . S
C1546 C1545 1.403 . S
C1546 C1547 1.404 . S
C1546 C1549 1.539 . S
C1547 C1543 1.408 . S
C1547 C1546 1.404 . S
C1547 H1559 0.930 . S
C1548 C1544 1.524 . S
C1548 H1560 0.956 . S
C1548 H1561 0.961 . S
C1548 H1562 0.961 . S
C1549 C1546 1.539 . S
C1549 H1563 0.958 . S
C1549 H1564 0.961 . S
C1549 H1565 0.960 . S
H1550 C1534 0.931 . S
H1551 C1539 0.929 . S
H1552 C1540 0.960 . S
H1553 C1540 0.962 . S
H1554 C1540 0.960 . S
H1555 C1541 0.961 . S
H1556 C1541 0.961 . S
H1557 C1541 0.961 . S
H1558 C1542 0.931 . S
H1559 C1547 0.930 . S
H1560 C1548 0.956 . S
H1561 C1548 0.961 . S
H1562 C1548 0.961 . S
H1563 C1549 0.958 . S
H1564 C1549 0.961 . S
H1565 C1549 0.960 . S
C1566 C1567 1.391 . S
C1566 C1568 1.394 . S
C1566 H1582 0.931 . S
C1567 C1566 1.391 . S
C1567 C1571 1.376 . S
C1568 C1566 1.394 . S
C1568 C1569 1.369 . S
C1568 C1572 1.531 . S
C1569 C1568 1.369 . S
C1569 C1570 1.410 . S
C1569 C1577 1.503 . S
C1570 C1569 1.410 . S
C1570 C1571 1.392 . S
C1570 C1573 1.511 . S
C1571 C1567 1.376 . S
C1571 C1570 1.392 . S
C1571 H1583 0.929 . S
C1572 C1568 1.531 . S
C1572 H1584 0.960 . S
C1572 H1585 0.962 . S
C1572 H1586 0.960 . S
C1573 C1570 1.511 . S
C1573 H1587 0.961 . S
C1573 H1588 0.961 . S
C1573 H1589 0.961 . S
C1574 C1575 1.370 . S
C1574 C1576 1.363 . S
C1574 H1590 0.931 1_565 S
C1575 C1574 1.370 . S
C1575 C1579 1.408 . S
C1576 C1574 1.363 . S
C1576 C1577 1.370 . S
C1576 C1580 1.524 . S
C1577 C1569 1.503 . S
C1577 C1576 1.370 . S
C1577 C1578 1.403 . S
C1578 C1577 1.403 . S
C1578 C1579 1.404 . S
C1578 C1581 1.539 . S
C1579 C1575 1.408 . S
C1579 C1578 1.404 . S
C1579 H1591 0.930 . S
C1580 C1576 1.524 . S
C1580 H1592 0.956 . S
C1580 H1593 0.961 . S
C1580 H1594 0.941 1_565 S
C1581 C1578 1.539 . S
C1581 H1595 0.958 . S
C1581 H1596 0.961 . S
C1581 H1597 0.960 . S
H1582 C1566 0.931 . S
H1583 C1571 0.929 . S
H1584 C1572 0.960 . S
H1585 C1572 0.962 . S
H1586 C1572 0.960 . S
H1587 C1573 0.961 . S
H1588 C1573 0.961 . S
H1589 C1573 0.961 . S
H1590 C1574 0.931 1_545 S
H1591 C1579 0.930 . S
H1592 C1580 0.956 . S
H1593 C1580 0.961 . S
H1594 C1580 0.941 1_545 S
H1595 C1581 0.958 . S
H1596 C1581 0.961 . S
H1597 C1581 0.960 . S
C1598 C1599 1.391 . S
C1598 C1600 1.394 . S
C1598 H1614 0.931 . S
C1599 C1598 1.391 . S
C1599 C1603 1.376 . S
C1600 C1598 1.394 . S
C1600 C1601 1.369 . S
C1600 C1604 1.531 . S
C1601 C1600 1.369 . S
C1601 C1602 1.410 . S
C1601 C1609 1.503 . S
C1602 C1601 1.410 . S
C1602 C1603 1.392 . S
C1602 C1605 1.511 . S
C1603 C1599 1.376 . S
C1603 C1602 1.392 . S
C1603 H1615 0.929 . S
C1604 C1600 1.531 . S
C1604 H1616 0.960 . S
C1604 H1617 0.962 . S
C1604 H1618 0.960 . S
C1605 C1602 1.511 . S
C1605 H1619 0.961 . S
C1605 H1620 0.961 . S
C1605 H1621 0.961 . S
C1606 C1607 1.370 . S
C1606 C1608 1.363 . S
C1606 H1622 0.931 1_455 S
C1607 C1606 1.370 . S
C1607 C1611 1.408 . S
C1608 C1606 1.363 . S
C1608 C1609 1.370 . S
C1608 C1612 1.524 . S
C1609 C1601 1.503 . S
C1609 C1608 1.370 . S
C1609 C1610 1.403 . S
C1610 C1609 1.403 . S
C1610 C1611 1.404 . S
C1610 C1613 1.539 . S
C1611 C1607 1.408 . S
C1611 C1610 1.404 . S
C1611 H1623 0.930 . S
C1612 C1608 1.524 . S
C1612 H1624 0.956 . S
C1612 H1625 0.961 . S
C1612 H1626 0.961 1_455 S
C1613 C1610 1.539 . S
C1613 H1627 0.958 . S
C1613 H1628 0.961 . S
C1613 H1629 0.960 . S
H1614 C1598 0.931 . S
H1615 C1603 0.929 . S
H1616 C1604 0.960 . S
H1617 C1604 0.962 . S
H1618 C1604 0.960 . S
H1619 C1605 0.961 . S
H1620 C1605 0.961 . S
H1621 C1605 0.961 . S
H1622 C1606 0.931 1_655 S
H1623 C1611 0.930 . S
H1624 C1612 0.956 . S
H1625 C1612 0.961 . S
H1626 C1612 0.961 1_655 S
H1627 C1613 0.958 . S
H1628 C1613 0.961 . S
H1629 C1613 0.960 . S
C1630 C1631 1.391 . S
C1630 C1632 1.394 . S
C1630 H1646 0.931 . S
C1631 C1630 1.391 . S
C1631 C1635 1.376 . S
C1632 C1630 1.394 . S
C1632 C1633 1.369 . S
C1632 C1636 1.531 . S
C1633 C1632 1.369 . S
C1633 C1634 1.410 . S
C1633 C1641 1.503 . S
C1634 C1633 1.410 . S
C1634 C1635 1.392 . S
C1634 C1637 1.511 . S
C1635 C1631 1.376 . S
C1635 C1634 1.392 . S
C1635 H1647 0.929 . S
C1636 C1632 1.531 . S
C1636 H1648 0.960 . S
C1636 H1649 0.962 . S
C1636 H1650 0.960 . S
C1637 C1634 1.511 . S
C1637 H1651 0.961 . S
C1637 H1652 0.961 . S
C1637 H1653 0.961 . S
C1638 C1639 1.370 . S
C1638 C1640 1.363 . S
C1638 H1654 0.931 . S
C1639 C1638 1.370 . S
C1639 C1643 1.408 . S
C1640 C1638 1.363 . S
C1640 C1641 1.370 . S
C1640 C1644 1.524 . S
C1641 C1633 1.503 . S
C1641 C1640 1.370 . S
C1641 C1642 1.403 . S
C1642 C1641 1.403 . S
C1642 C1643 1.404 . S
C1642 C1645 1.539 . S
C1643 C1639 1.408 . S
C1643 C1642 1.404 . S
C1643 H1655 0.930 . S
C1644 C1640 1.524 . S
C1644 H1656 0.956 . S
C1644 H1657 0.961 . S
C1644 H1658 0.961 . S
C1645 C1642 1.539 . S
C1645 H1659 0.958 . S
C1645 H1660 0.961 . S
C1645 H1661 0.960 . S
H1646 C1630 0.931 . S
H1647 C1635 0.929 . S
H1648 C1636 0.960 . S
H1649 C1636 0.962 . S
H1650 C1636 0.960 . S
H1651 C1637 0.961 . S
H1652 C1637 0.961 . S
H1653 C1637 0.961 . S
H1654 C1638 0.931 . S
H1655 C1643 0.930 . S
H1656 C1644 0.956 . S
H1657 C1644 0.961 . S
H1658 C1644 0.961 . S
H1659 C1645 0.958 . S
H1660 C1645 0.961 . S
H1661 C1645 0.960 . S
C1662 C1663 1.391 . S
C1662 C1664 1.394 . S
C1662 H1678 0.931 . S
C1663 C1662 1.391 . S
C1663 C1667 1.376 . S
C1664 C1662 1.394 . S
C1664 C1665 1.369 . S
C1664 C1668 1.531 . S
C1665 C1664 1.369 . S
C1665 C1666 1.410 . S
C1665 C1673 1.503 . S
C1666 C1665 1.410 . S
C1666 C1667 1.392 . S
C1666 C1669 1.511 1_655 S
C1667 C1663 1.376 . S
C1667 C1666 1.392 . S
C1667 H1679 0.929 . S
C1668 C1664 1.531 . S
C1668 H1680 0.960 . S
C1668 H1681 0.962 . S
C1668 H1682 0.960 . S
C1669 C1666 1.511 1_455 S
C1669 H1683 0.961 . S
C1669 H1684 0.961 . S
C1669 H1685 0.961 . S
C1670 C1671 1.370 . S
C1670 C1672 1.363 . S
C1670 H1686 0.931 . S
C1671 C1670 1.370 . S
C1671 C1675 1.408 . S
C1672 C1670 1.363 . S
C1672 C1673 1.370 . S
C1672 C1676 1.524 . S
C1673 C1665 1.503 . S
C1673 C1672 1.370 . S
C1673 C1674 1.403 . S
C1674 C1673 1.403 . S
C1674 C1675 1.404 . S
C1674 C1677 1.539 . S
C1675 C1671 1.408 . S
C1675 C1674 1.404 . S
C1675 H1687 0.930 . S
C1676 C1672 1.524 . S
C1676 H1688 0.956 . S
C1676 H1689 0.961 . S
C1676 H1690 0.961 . S
C1677 C1674 1.539 . S
C1677 H1691 0.958 . S
C1677 H1692 0.961 1_655 S
C1677 H1693 0.960 . S
H1678 C1662 0.931 . S
H1679 C1667 0.929 . S
H1680 C1668 0.960 . S
H1681 C1668 0.962 . S
H1682 C1668 0.960 . S
H1683 C1669 0.961 . S
H1684 C1669 0.961 . S
H1685 C1669 0.961 . S
H1686 C1670 0.931 . S
H1687 C1675 0.930 . S
H1688 C1676 0.956 . S
H1689 C1676 0.961 . S
H1690 C1676 0.961 . S
H1691 C1677 0.958 . S
H1692 C1677 0.961 1_455 S
H1693 C1677 0.960 . S
C1694 C1695 1.391 . S
C1694 C1696 1.394 . S
C1694 H1710 0.931 . S
C1695 C1694 1.391 . S
C1695 C1699 1.376 . S
C1696 C1694 1.394 . S
C1696 C1697 1.369 . S
C1696 C1700 1.531 . S
C1697 C1696 1.369 . S
C1697 C1698 1.410 . S
C1697 C1705 1.503 . S
C1698 C1697 1.410 . S
C1698 C1699 1.392 . S
C1698 C1701 1.511 . S
C1699 C1695 1.376 . S
C1699 C1698 1.392 . S
C1699 H1711 0.929 . S
C1700 C1696 1.531 . S
C1700 H1712 0.960 . S
C1700 H1713 0.962 . S
C1700 H1714 0.960 . S
C1701 C1698 1.511 . S
C1701 H1715 0.961 . S
C1701 H1716 0.961 . S
C1701 H1717 0.961 . S
C1702 C1703 1.370 . S
C1702 C1704 1.363 . S
C1702 H1718 0.931 . S
C1703 C1702 1.370 . S
C1703 C1707 1.408 . S
C1704 C1702 1.363 . S
C1704 C1705 1.370 . S
C1704 C1708 1.524 . S
C1705 C1697 1.503 . S
C1705 C1704 1.370 . S
C1705 C1706 1.403 . S
C1706 C1705 1.403 . S
C1706 C1707 1.404 . S
C1706 C1709 1.539 . S
C1707 C1703 1.408 . S
C1707 C1706 1.404 . S
C1707 H1719 0.930 . S
C1708 C1704 1.524 . S
C1708 H1720 0.956 . S
C1708 H1721 0.961 . S
C1708 H1722 0.961 . S
C1709 C1706 1.539 . S
C1709 H1723 0.958 . S
C1709 H1724 0.961 . S
C1709 H1725 0.960 . S
H1710 C1694 0.931 . S
H1711 C1699 0.929 . S
H1712 C1700 0.960 . S
H1713 C1700 0.962 . S
H1714 C1700 0.960 . S
H1715 C1701 0.961 . S
H1716 C1701 0.961 . S
H1717 C1701 0.961 . S
H1718 C1702 0.931 . S
H1719 C1707 0.930 . S
H1720 C1708 0.956 . S
H1721 C1708 0.961 . S
H1722 C1708 0.961 . S
H1723 C1709 0.958 . S
H1724 C1709 0.961 . S
H1725 C1709 0.960 . S
C1726 C1727 1.391 . S
C1726 C1728 1.394 . S
C1726 H1742 0.931 . S
C1727 C1726 1.391 . S
C1727 C1731 1.376 . S
C1728 C1726 1.394 . S
C1728 C1729 1.369 . S
C1728 C1732 1.531 . S
C1729 C1728 1.369 . S
C1729 C1730 1.410 . S
C1729 C1737 1.503 . S
C1730 C1729 1.410 . S
C1730 C1731 1.392 . S
C1730 C1733 1.511 . S
C1731 C1727 1.376 . S
C1731 C1730 1.392 . S
C1731 H1743 0.929 . S
C1732 C1728 1.531 . S
C1732 H1744 0.960 . S
C1732 H1745 0.962 . S
C1732 H1746 0.960 . S
C1733 C1730 1.511 . S
C1733 H1747 0.961 . S
C1733 H1748 0.961 . S
C1733 H1749 0.961 . S
C1734 C1735 1.370 . S
C1734 C1736 1.363 . S
C1734 H1750 0.931 . S
C1735 C1734 1.370 . S
C1735 C1739 1.408 . S
C1736 C1734 1.363 . S
C1736 C1737 1.370 . S
C1736 C1740 1.524 . S
C1737 C1729 1.503 . S
C1737 C1736 1.370 . S
C1737 C1738 1.403 . S
C1738 C1737 1.403 . S
C1738 C1739 1.404 . S
C1738 C1741 1.539 . S
C1739 C1735 1.408 . S
C1739 C1738 1.404 . S
C1739 H1751 0.930 1_545 S
C1740 C1736 1.524 . S
C1740 H1752 0.956 . S
C1740 H1753 0.961 . S
C1740 H1754 0.961 . S
C1741 C1738 1.539 . S
C1741 H1755 0.958 . S
C1741 H1756 0.961 1_545 S
C1741 H1757 0.960 . S
H1742 C1726 0.931 . S
H1743 C1731 0.929 . S
H1744 C1732 0.960 . S
H1745 C1732 0.962 . S
H1746 C1732 0.960 . S
H1747 C1733 0.961 . S
H1748 C1733 0.961 . S
H1749 C1733 0.961 . S
H1750 C1734 0.931 . S
H1751 C1739 0.930 1_565 S
H1752 C1740 0.956 . S
H1753 C1740 0.961 . S
H1754 C1740 0.961 . S
H1755 C1741 0.958 . S
H1756 C1741 0.961 1_565 S
H1757 C1741 0.960 . S
C1758 C1759 1.391 . S
C1758 C1760 1.394 . S
C1758 H1774 0.931 . S
C1759 C1758 1.391 . S
C1759 C1763 1.376 . S
C1760 C1758 1.394 . S
C1760 C1761 1.369 . S
C1760 C1764 1.531 . S
C1761 C1760 1.369 . S
C1761 C1762 1.410 . S
C1761 C1769 1.503 . S
C1762 C1761 1.410 . S
C1762 C1763 1.392 . S
C1762 C1765 1.511 . S
C1763 C1759 1.376 . S
C1763 C1762 1.392 . S
C1763 H1775 0.929 . S
C1764 C1760 1.531 . S
C1764 H1776 0.960 . S
C1764 H1777 0.962 . S
C1764 H1778 0.960 . S
C1765 C1762 1.511 . S
C1765 H1779 0.961 . S
C1765 H1780 0.961 . S
C1765 H1781 0.961 . S
C1766 C1767 1.370 . S
C1766 C1768 1.363 . S
C1766 H1782 0.931 . S
C1767 C1766 1.370 . S
C1767 C1771 1.408 . S
C1768 C1766 1.363 . S
C1768 C1769 1.370 . S
C1768 C1772 1.524 . S
C1769 C1761 1.503 . S
C1769 C1768 1.370 . S
C1769 C1770 1.403 . S
C1770 C1769 1.403 . S
C1770 C1771 1.404 . S
C1770 C1773 1.539 . S
C1771 C1767 1.408 . S
C1771 C1770 1.404 . S
C1771 H1783 0.930 . S
C1772 C1768 1.524 . S
C1772 H1784 0.956 . S
C1772 H1785 0.961 . S
C1772 H1786 0.961 . S
C1773 C1770 1.539 . S
C1773 H1787 0.958 . S
C1773 H1788 0.961 . S
C1773 H1789 0.960 . S
H1774 C1758 0.931 . S
H1775 C1763 0.929 . S
H1776 C1764 0.960 . S
H1777 C1764 0.962 . S
H1778 C1764 0.960 . S
H1779 C1765 0.961 . S
H1780 C1765 0.961 . S
H1781 C1765 0.961 . S
H1782 C1766 0.931 . S
H1783 C1771 0.930 . S
H1784 C1772 0.956 . S
H1785 C1772 0.961 . S
H1786 C1772 0.961 . S
H1787 C1773 0.958 . S
H1788 C1773 0.961 . S
H1789 C1773 0.960 . S
C1790 C1791 1.391 . S
C1790 C1792 1.394 . S
C1790 H1806 0.931 . S
C1791 C1790 1.391 . S
C1791 C1795 1.376 . S
C1792 C1790 1.394 . S
C1792 C1793 1.369 . S
C1792 C1796 1.531 . S
C1793 C1792 1.369 . S
C1793 C1794 1.410 . S
C1793 C1801 1.503 . S
C1794 C1793 1.410 . S
C1794 C1795 1.392 . S
C1794 C1797 1.511 . S
C1795 C1791 1.376 . S
C1795 C1794 1.392 . S
C1795 H1807 0.929 . S
C1796 C1792 1.531 . S
C1796 H1808 0.960 . S
C1796 H1809 0.962 . S
C1796 H1810 0.960 . S
C1797 C1794 1.511 . S
C1797 H1811 0.961 . S
C1797 H1812 0.961 . S
C1797 H1813 0.961 . S
C1798 C1799 1.370 . S
C1798 C1800 1.363 . S
C1798 H1814 0.931 . S
C1799 C1798 1.370 . S
C1799 C1803 1.408 . S
C1800 C1798 1.363 . S
C1800 C1801 1.370 . S
C1800 C1804 1.524 . S
C1801 C1793 1.503 . S
C1801 C1800 1.370 . S
C1801 C1802 1.403 . S
C1802 C1801 1.403 . S
C1802 C1803 1.404 . S
C1802 C1805 1.539 . S
C1803 C1799 1.408 . S
C1803 C1802 1.404 . S
C1803 H1815 0.930 . S
C1804 C1800 1.524 . S
C1804 H1816 0.956 . S
C1804 H1817 0.961 . S
C1804 H1818 0.961 . S
C1805 C1802 1.539 . S
C1805 H1819 0.958 . S
C1805 H1820 0.961 . S
C1805 H1821 0.960 . S
H1806 C1790 0.931 . S
H1807 C1795 0.929 . S
H1808 C1796 0.960 . S
H1809 C1796 0.962 . S
H1810 C1796 0.960 . S
H1811 C1797 0.961 . S
H1812 C1797 0.961 . S
H1813 C1797 0.961 . S
H1814 C1798 0.931 . S
H1815 C1803 0.930 . S
H1816 C1804 0.956 . S
H1817 C1804 0.961 . S
H1818 C1804 0.961 . S
H1819 C1805 0.958 . S
H1820 C1805 0.961 . S
H1821 C1805 0.960 . S
C1822 C1823 1.391 . S
C1822 C1824 1.394 . S
C1822 H1838 0.931 . S
C1823 C1822 1.391 . S
C1823 C1827 1.376 . S
C1824 C1822 1.394 . S
C1824 C1825 1.369 . S
C1824 C1828 1.531 . S
C1825 C1824 1.369 . S
C1825 C1826 1.410 . S
C1825 C1833 1.503 . S
C1826 C1825 1.410 . S
C1826 C1827 1.392 . S
C1826 C1829 1.511 . S
C1827 C1823 1.376 . S
C1827 C1826 1.392 . S
C1827 H1839 0.929 . S
C1828 C1824 1.531 . S
C1828 H1840 0.960 . S
C1828 H1841 0.962 . S
C1828 H1842 0.960 . S
C1829 C1826 1.511 . S
C1829 H1843 0.961 . S
C1829 H1844 0.961 . S
C1829 H1845 0.961 . S
C1830 C1831 1.370 . S
C1830 C1832 1.363 . S
C1830 H1846 0.931 . S
C1831 C1830 1.370 . S
C1831 C1835 1.408 . S
C1832 C1830 1.363 . S
C1832 C1833 1.370 . S
C1832 C1836 1.524 . S
C1833 C1825 1.503 . S
C1833 C1832 1.370 . S
C1833 C1834 1.403 . S
C1834 C1833 1.403 . S
C1834 C1835 1.404 . S
C1834 C1837 1.539 . S
C1835 C1831 1.408 . S
C1835 C1834 1.404 . S
C1835 H1847 0.930 . S
C1836 C1832 1.524 . S
C1836 H1848 0.956 . S
C1836 H1849 0.961 . S
C1836 H1850 0.961 . S
C1837 C1834 1.539 . S
C1837 H1851 0.958 . S
C1837 H1852 0.961 . S
C1837 H1853 0.960 . S
H1838 C1822 0.931 . S
H1839 C1827 0.929 . S
H1840 C1828 0.960 . S
H1841 C1828 0.962 . S
H1842 C1828 0.960 . S
H1843 C1829 0.961 . S
H1844 C1829 0.961 . S
H1845 C1829 0.961 . S
H1846 C1830 0.931 . S
H1847 C1835 0.930 . S
H1848 C1836 0.956 . S
H1849 C1836 0.961 . S
H1850 C1836 0.961 . S
H1851 C1837 0.958 . S
H1852 C1837 0.961 . S
H1853 C1837 0.960 . S
C1854 C1855 1.391 . S
C1854 C1856 1.394 . S
C1854 H1870 0.931 . S
C1855 C1854 1.391 . S
C1855 C1859 1.376 . S
C1856 C1854 1.394 . S
C1856 C1857 1.369 . S
C1856 C1860 1.531 . S
C1857 C1856 1.369 . S
C1857 C1858 1.410 . S
C1857 C1865 1.503 . S
C1858 C1857 1.410 . S
C1858 C1859 1.392 . S
C1858 C1861 1.511 . S
C1859 C1855 1.376 . S
C1859 C1858 1.392 . S
C1859 H1871 0.929 . S
C1860 C1856 1.531 . S
C1860 H1872 0.960 . S
C1860 H1873 0.962 . S
C1860 H1874 0.960 . S
C1861 C1858 1.511 . S
C1861 H1875 0.961 . S
C1861 H1876 0.961 . S
C1861 H1877 0.961 . S
C1862 C1863 1.370 . S
C1862 C1864 1.363 . S
C1862 H1878 0.931 . S
C1863 C1862 1.370 . S
C1863 C1867 1.408 . S
C1864 C1862 1.363 . S
C1864 C1865 1.370 . S
C1864 C1868 1.524 . S
C1865 C1857 1.503 . S
C1865 C1864 1.370 . S
C1865 C1866 1.403 . S
C1866 C1865 1.403 . S
C1866 C1867 1.404 . S
C1866 C1869 1.539 . S
C1867 C1863 1.408 . S
C1867 C1866 1.404 . S
C1867 H1879 0.930 . S
C1868 C1864 1.524 . S
C1868 H1880 0.956 . S
C1868 H1881 0.961 . S
C1868 H1882 0.961 . S
C1869 C1866 1.539 . S
C1869 H1883 0.958 . S
C1869 H1884 0.961 . S
C1869 H1885 0.960 . S
H1870 C1854 0.931 . S
H1871 C1859 0.929 . S
H1872 C1860 0.960 . S
H1873 C1860 0.962 . S
H1874 C1860 0.960 . S
H1875 C1861 0.961 . S
H1876 C1861 0.961 . S
H1877 C1861 0.961 . S
H1878 C1862 0.931 . S
H1879 C1867 0.930 . S
H1880 C1868 0.956 . S
H1881 C1868 0.961 . S
H1882 C1868 0.961 . S
H1883 C1869 0.958 . S
H1884 C1869 0.961 . S
H1885 C1869 0.960 . S
C1886 C1887 1.391 . S
C1886 C1888 1.394 . S
C1886 H1902 0.931 . S
C1887 C1886 1.391 . S
C1887 C1891 1.376 . S
C1888 C1886 1.394 . S
C1888 C1889 1.369 . S
C1888 C1892 1.531 . S
C1889 C1888 1.369 . S
C1889 C1890 1.410 . S
C1889 C1897 1.503 . S
C1890 C1889 1.410 . S
C1890 C1891 1.392 . S
C1890 C1893 1.511 . S
C1891 C1887 1.376 . S
C1891 C1890 1.392 . S
C1891 H1903 0.929 . S
C1892 C1888 1.531 . S
C1892 H1904 0.960 . S
C1892 H1905 0.962 . S
C1892 H1906 0.960 . S
C1893 C1890 1.511 . S
C1893 H1907 0.961 . S
C1893 H1908 0.961 . S
C1893 H1909 0.961 . S
C1894 C1895 1.370 . S
C1894 C1896 1.363 . S
C1894 H1910 0.931 . S
C1895 C1894 1.370 . S
C1895 C1899 1.408 . S
C1896 C1894 1.363 . S
C1896 C1897 1.370 . S
C1896 C1900 1.524 . S
C1897 C1889 1.503 . S
C1897 C1896 1.370 . S
C1897 C1898 1.403 . S
C1898 C1897 1.403 . S
C1898 C1899 1.404 . S
C1898 C1901 1.539 . S
C1899 C1895 1.408 . S
C1899 C1898 1.404 . S
C1899 H1911 0.930 . S
C1900 C1896 1.524 . S
C1900 H1912 0.956 . S
C1900 H1913 0.961 . S
C1900 H1914 0.961 . S
C1901 C1898 1.539 . S
C1901 H1915 0.958 . S
C1901 H1916 0.961 . S
C1901 H1917 0.960 . S
H1902 C1886 0.931 . S
H1903 C1891 0.929 . S
H1904 C1892 0.960 . S
H1905 C1892 0.962 . S
H1906 C1892 0.960 . S
H1907 C1893 0.961 . S
H1908 C1893 0.961 . S
H1909 C1893 0.961 . S
H1910 C1894 0.931 . S
H1911 C1899 0.930 . S
H1912 C1900 0.956 . S
H1913 C1900 0.961 . S
H1914 C1900 0.961 . S
H1915 C1901 0.958 . S
H1916 C1901 0.961 . S
H1917 C1901 0.960 . S
C1918 C1919 1.391 . S
C1918 C1920 1.394 . S
C1918 H1934 0.931 . S
C1919 C1918 1.391 . S
C1919 C1923 1.376 . S
C1920 C1918 1.394 . S
C1920 C1921 1.369 . S
C1920 C1924 1.531 . S
C1921 C1920 1.369 . S
C1921 C1922 1.410 . S
C1921 C1929 1.503 . S
C1922 C1921 1.410 . S
C1922 C1923 1.392 . S
C1922 C1925 1.511 . S
C1923 C1919 1.376 . S
C1923 C1922 1.392 . S
C1923 H1935 0.929 . S
C1924 C1920 1.531 . S
C1924 H1936 0.960 . S
C1924 H1937 0.962 . S
C1924 H1938 0.960 . S
C1925 C1922 1.511 . S
C1925 H1939 0.961 . S
C1925 H1940 0.961 . S
C1925 H1941 0.961 . S
C1926 C1927 1.370 . S
C1926 C1928 1.363 . S
C1926 H1942 0.931 . S
C1927 C1926 1.370 . S
C1927 C1931 1.408 . S
C1928 C1926 1.363 . S
C1928 C1929 1.370 . S
C1928 C1932 1.524 . S
C1929 C1921 1.503 . S
C1929 C1928 1.370 . S
C1929 C1930 1.403 . S
C1930 C1929 1.403 . S
C1930 C1931 1.404 . S
C1930 C1933 1.539 . S
C1931 C1927 1.408 . S
C1931 C1930 1.404 . S
C1931 H1943 0.930 . S
C1932 C1928 1.524 . S
C1932 H1944 0.956 . S
C1932 H1945 0.961 . S
C1932 H1946 0.961 . S
C1933 C1930 1.539 . S
C1933 H1947 0.958 . S
C1933 H1948 0.961 . S
C1933 H1949 0.960 . S
H1934 C1918 0.931 . S
H1935 C1923 0.929 . S
H1936 C1924 0.960 . S
H1937 C1924 0.962 . S
H1938 C1924 0.960 . S
H1939 C1925 0.961 . S
H1940 C1925 0.961 . S
H1941 C1925 0.961 . S
H1942 C1926 0.931 . S
H1943 C1931 0.930 . S
H1944 C1932 0.956 . S
H1945 C1932 0.961 . S
H1946 C1932 0.961 . S
H1947 C1933 0.958 . S
H1948 C1933 0.961 . S
H1949 C1933 0.960 . S
C1950 C1951 1.391 . S
C1950 C1952 1.394 . S
C1950 H1966 0.931 . S
C1951 C1950 1.391 . S
C1951 C1955 1.376 . S
C1952 C1950 1.394 . S
C1952 C1953 1.369 . S
C1952 C1956 1.531 . S
C1953 C1952 1.369 . S
C1953 C1954 1.410 . S
C1953 C1961 1.503 . S
C1954 C1953 1.410 . S
C1954 C1955 1.392 . S
C1954 C1957 1.511 . S
C1955 C1951 1.376 . S
C1955 C1954 1.392 . S
C1955 H1967 0.929 . S
C1956 C1952 1.531 . S
C1956 H1968 0.960 . S
C1956 H1969 0.962 . S
C1956 H1970 0.960 . S
C1957 C1954 1.511 . S
C1957 H1971 0.961 . S
C1957 H1972 0.961 . S
C1957 H1973 0.961 . S
C1958 C1959 1.370 . S
C1958 C1960 1.363 . S
C1958 H1974 0.931 . S
C1959 C1958 1.370 . S
C1959 C1963 1.408 . S
C1960 C1958 1.363 . S
C1960 C1961 1.370 . S
C1960 C1964 1.524 . S
C1961 C1953 1.503 . S
C1961 C1960 1.370 . S
C1961 C1962 1.403 . S
C1962 C1961 1.403 . S
C1962 C1963 1.404 . S
C1962 C1965 1.539 . S
C1963 C1959 1.408 . S
C1963 C1962 1.404 . S
C1963 H1975 0.930 . S
C1964 C1960 1.524 . S
C1964 H1976 0.956 . S
C1964 H1977 0.961 . S
C1964 H1978 0.961 . S
C1965 C1962 1.539 . S
C1965 H1979 0.958 . S
C1965 H1980 0.961 . S
C1965 H1981 0.960 . S
H1966 C1950 0.931 . S
H1967 C1955 0.929 . S
H1968 C1956 0.960 . S
H1969 C1956 0.962 . S
H1970 C1956 0.960 . S
H1971 C1957 0.961 . S
H1972 C1957 0.961 . S
H1973 C1957 0.961 . S
H1974 C1958 0.931 . S
H1975 C1963 0.930 . S
H1976 C1964 0.956 . S
H1977 C1964 0.961 . S
H1978 C1964 0.961 . S
H1979 C1965 0.958 . S
H1980 C1965 0.961 . S
H1981 C1965 0.960 . S
C1982 C1983 1.391 . S
C1982 C1984 1.394 . S
C1982 H1998 0.931 . S
C1983 C1982 1.391 . S
C1983 C1987 1.376 . S
C1984 C1982 1.394 . S
C1984 C1985 1.369 . S
C1984 C1988 1.531 . S
C1985 C1984 1.369 . S
C1985 C1986 1.410 . S
C1985 C1993 1.503 . S
C1986 C1985 1.410 . S
C1986 C1987 1.392 . S
C1986 C1989 1.511 . S
C1987 C1983 1.376 . S
C1987 C1986 1.392 . S
C1987 H1999 0.929 . S
C1988 C1984 1.531 . S
C1988 H2000 0.960 . S
C1988 H2001 0.962 . S
C1988 H2002 0.960 . S
C1989 C1986 1.511 . S
C1989 H2003 0.961 . S
C1989 H2004 0.961 . S
C1989 H2005 0.961 . S
C1990 C1991 1.370 . S
C1990 C1992 1.363 . S
C1990 H2006 0.931 . S
C1991 C1990 1.370 . S
C1991 C1995 1.408 . S
C1992 C1990 1.363 . S
C1992 C1993 1.370 . S
C1992 C1996 1.524 . S
C1993 C1985 1.503 . S
C1993 C1992 1.370 . S
C1993 C1994 1.403 . S
C1994 C1993 1.403 . S
C1994 C1995 1.404 . S
C1994 C1997 1.539 . S
C1995 C1991 1.408 . S
C1995 C1994 1.404 . S
C1995 H2007 0.930 . S
C1996 C1992 1.524 . S
C1996 H2008 0.956 . S
C1996 H2009 0.961 . S
C1996 H2010 0.961 . S
C1997 C1994 1.539 . S
C1997 H2011 0.958 . S
C1997 H2012 0.961 . S
C1997 H2013 0.960 . S
H1998 C1982 0.931 . S
H1999 C1987 0.929 . S
H2000 C1988 0.960 . S
H2001 C1988 0.962 . S
H2002 C1988 0.960 . S
H2003 C1989 0.961 . S
H2004 C1989 0.961 . S
H2005 C1989 0.961 . S
H2006 C1990 0.931 . S
H2007 C1995 0.930 . S
H2008 C1996 0.956 . S
H2009 C1996 0.961 . S
H2010 C1996 0.961 . S
H2011 C1997 0.958 . S
H2012 C1997 0.961 . S
H2013 C1997 0.960 . S
C2014 C2015 1.391 . S
C2014 C2016 1.394 . S
C2014 H2030 0.931 . S
C2015 C2014 1.391 . S
C2015 C2019 1.376 . S
C2016 C2014 1.394 . S
C2016 C2017 1.369 . S
C2016 C2020 1.531 . S
C2017 C2016 1.369 . S
C2017 C2018 1.410 . S
C2017 C2025 1.503 . S
C2018 C2017 1.410 . S
C2018 C2019 1.392 . S
C2018 C2021 1.511 . S
C2019 C2015 1.376 . S
C2019 C2018 1.392 . S
C2019 H2031 0.929 . S
C2020 C2016 1.531 . S
C2020 H2032 0.960 . S
C2020 H2033 0.962 . S
C2020 H2034 0.960 . S
C2021 C2018 1.511 . S
C2021 H2035 0.961 . S
C2021 H2036 0.961 . S
C2021 H2037 0.961 . S
C2022 C2023 1.370 . S
C2022 C2024 1.363 . S
C2022 H2038 0.931 . S
C2023 C2022 1.370 . S
C2023 C2027 1.408 . S
C2024 C2022 1.363 . S
C2024 C2025 1.370 . S
C2024 C2028 1.524 . S
C2025 C2017 1.503 . S
C2025 C2024 1.370 . S
C2025 C2026 1.403 . S
C2026 C2025 1.403 . S
C2026 C2027 1.404 . S
C2026 C2029 1.539 . S
C2027 C2023 1.408 . S
C2027 C2026 1.404 . S
C2027 H2039 0.930 . S
C2028 C2024 1.524 . S
C2028 H2040 0.956 . S
C2028 H2041 0.961 . S
C2028 H2042 0.961 . S
C2029 C2026 1.539 . S
C2029 H2043 0.958 . S
C2029 H2044 0.961 . S
C2029 H2045 0.960 . S
H2030 C2014 0.931 . S
H2031 C2019 0.929 . S
H2032 C2020 0.960 . S
H2033 C2020 0.962 . S
H2034 C2020 0.960 . S
H2035 C2021 0.961 . S
H2036 C2021 0.961 . S
H2037 C2021 0.961 . S
H2038 C2022 0.931 . S
H2039 C2027 0.930 . S
H2040 C2028 0.956 . S
H2041 C2028 0.961 . S
H2042 C2028 0.961 . S
H2043 C2029 0.958 . S
H2044 C2029 0.961 . S
H2045 C2029 0.960 . S
C2046 C2047 1.391 . S
C2046 C2048 1.394 . S
C2046 H2062 0.931 . S
C2047 C2046 1.391 . S
C2047 C2051 1.376 . S
C2048 C2046 1.394 . S
C2048 C2049 1.369 . S
C2048 C2052 1.531 . S
C2049 C2048 1.369 . S
C2049 C2050 1.410 . S
C2049 C2057 1.503 . S
C2050 C2049 1.410 . S
C2050 C2051 1.392 . S
C2050 C2053 1.511 . S
C2051 C2047 1.376 . S
C2051 C2050 1.392 . S
C2051 H2063 0.929 . S
C2052 C2048 1.531 . S
C2052 H2064 0.960 . S
C2052 H2065 0.962 . S
C2052 H2066 0.960 . S
C2053 C2050 1.511 . S
C2053 H2067 0.961 . S
C2053 H2068 0.961 . S
C2053 H2069 0.961 . S
C2054 C2055 1.370 . S
C2054 C2056 1.363 . S
C2054 H2070 0.931 . S
C2055 C2054 1.370 . S
C2055 C2059 1.408 . S
C2056 C2054 1.363 . S
C2056 C2057 1.370 . S
C2056 C2060 1.524 . S
C2057 C2049 1.503 . S
C2057 C2056 1.370 . S
C2057 C2058 1.403 . S
C2058 C2057 1.403 . S
C2058 C2059 1.404 . S
C2058 C2061 1.539 . S
C2059 C2055 1.408 . S
C2059 C2058 1.404 . S
C2059 H2071 0.930 . S
C2060 C2056 1.524 . S
C2060 H2072 0.956 . S
C2060 H2073 0.961 . S
C2060 H2074 0.961 . S
C2061 C2058 1.539 . S
C2061 H2075 0.958 . S
C2061 H2076 0.961 . S
C2061 H2077 0.960 . S
H2062 C2046 0.931 . S
H2063 C2051 0.929 . S
H2064 C2052 0.960 . S
H2065 C2052 0.962 . S
H2066 C2052 0.960 . S
H2067 C2053 0.961 . S
H2068 C2053 0.961 . S
H2069 C2053 0.961 . S
H2070 C2054 0.931 . S
H2071 C2059 0.930 . S
H2072 C2060 0.956 . S
H2073 C2060 0.961 . S
H2074 C2060 0.961 . S
H2075 C2061 0.958 . S
H2076 C2061 0.961 . S
H2077 C2061 0.960 . S
C2078 C2079 1.391 . S
C2078 C2080 1.394 . S
C2078 H2094 0.931 . S
C2079 C2078 1.391 . S
C2079 C2083 1.376 . S
C2080 C2078 1.394 . S
C2080 C2081 1.369 . S
C2080 C2084 1.531 . S
C2081 C2080 1.369 . S
C2081 C2082 1.410 . S
C2081 C2089 1.503 . S
C2082 C2081 1.410 . S
C2082 C2083 1.392 . S
C2082 C2085 1.511 . S
C2083 C2079 1.376 . S
C2083 C2082 1.392 . S
C2083 H2095 0.929 . S
C2084 C2080 1.531 . S
C2084 H2096 0.960 . S
C2084 H2097 0.962 . S
C2084 H2098 0.960 . S
C2085 C2082 1.511 . S
C2085 H2099 0.961 . S
C2085 H2100 0.961 . S
C2085 H2101 0.961 . S
C2086 C2087 1.370 . S
C2086 C2088 1.363 . S
C2086 H2102 0.931 . S
C2087 C2086 1.370 . S
C2087 C2091 1.408 . S
C2088 C2086 1.363 . S
C2088 C2089 1.370 . S
C2088 C2092 1.524 . S
C2089 C2081 1.503 . S
C2089 C2088 1.370 . S
C2089 C2090 1.403 . S
C2090 C2089 1.403 . S
C2090 C2091 1.404 . S
C2090 C2093 1.539 . S
C2091 C2087 1.408 . S
C2091 C2090 1.404 . S
C2091 H2103 0.930 . S
C2092 C2088 1.524 . S
C2092 H2104 0.956 . S
C2092 H2105 0.961 . S
C2092 H2106 0.961 . S
C2093 C2090 1.539 . S
C2093 H2107 0.958 . S
C2093 H2108 0.961 . S
C2093 H2109 0.960 . S
H2094 C2078 0.931 . S
H2095 C2083 0.929 . S
H2096 C2084 0.960 . S
H2097 C2084 0.962 . S
H2098 C2084 0.960 . S
H2099 C2085 0.961 . S
H2100 C2085 0.961 . S
H2101 C2085 0.961 . S
H2102 C2086 0.931 . S
H2103 C2091 0.930 . S
H2104 C2092 0.956 . S
H2105 C2092 0.961 . S
H2106 C2092 0.961 . S
H2107 C2093 0.958 . S
H2108 C2093 0.961 . S
H2109 C2093 0.960 . S
C2110 C2111 1.391 . S
C2110 C2112 1.394 . S
C2110 H2126 0.931 . S
C2111 C2110 1.391 . S
C2111 C2115 1.376 . S
C2112 C2110 1.394 . S
C2112 C2113 1.369 . S
C2112 C2116 1.531 . S
C2113 C2112 1.369 . S
C2113 C2114 1.410 . S
C2113 C2121 1.503 . S
C2114 C2113 1.410 . S
C2114 C2115 1.392 . S
C2114 C2117 1.511 . S
C2115 C2111 1.376 . S
C2115 C2114 1.392 . S
C2115 H2127 0.929 . S
C2116 C2112 1.531 . S
C2116 H2128 0.960 . S
C2116 H2129 0.962 . S
C2116 H2130 0.960 . S
C2117 C2114 1.511 . S
C2117 H2131 0.961 . S
C2117 H2132 0.961 . S
C2117 H2133 0.961 . S
C2118 C2119 1.370 . S
C2118 C2120 1.363 . S
C2118 H2134 0.931 . S
C2119 C2118 1.370 . S
C2119 C2123 1.408 . S
C2120 C2118 1.363 . S
C2120 C2121 1.370 . S
C2120 C2124 1.524 . S
C2121 C2113 1.503 . S
C2121 C2120 1.370 . S
C2121 C2122 1.403 . S
C2122 C2121 1.403 . S
C2122 C2123 1.404 . S
C2122 C2125 1.539 . S
C2123 C2119 1.408 . S
C2123 C2122 1.404 . S
C2123 H2135 0.930 . S
C2124 C2120 1.524 . S
C2124 H2136 0.956 . S
C2124 H2137 0.961 . S
C2124 H2138 0.961 . S
C2125 C2122 1.539 . S
C2125 H2139 0.958 . S
C2125 H2140 0.961 . S
C2125 H2141 0.960 . S
H2126 C2110 0.931 . S
H2127 C2115 0.929 . S
H2128 C2116 0.960 . S
H2129 C2116 0.962 . S
H2130 C2116 0.960 . S
H2131 C2117 0.961 . S
H2132 C2117 0.961 . S
H2133 C2117 0.961 . S
H2134 C2118 0.931 . S
H2135 C2123 0.930 . S
H2136 C2124 0.956 . S
H2137 C2124 0.961 . S
H2138 C2124 0.961 . S
H2139 C2125 0.958 . S
H2140 C2125 0.961 . S
H2141 C2125 0.960 . S
C415 N170 1.918 . S
C423 C240 1.905 . S
C447 N184 1.082 . S
C455 C260 1.074 . S
C479 N158 1.563 . S
C487 C283 1.579 . S
C511 N145 1.487 . S
C519 C263 1.497 1_556 S
C551 C280 1.004 1_556 S
C543 N119 1.005 . S
C575 N131 1.877 . S
C583 C243 1.896 . S
C615 C250 1.630 1_556 S
C607 N144 1.633 . S
C647 C270 1.395 . S
C639 N118 1.422 . S
C671 N132 1.503 . S
C679 C275 1.531 . S
C703 N171 1.441 . S
C711 C255 1.465 . S
C735 N183 1.322 . S
C743 C290 1.302 . S
C775 C235 1.575 . S
C767 N157 1.567 . S
C807 C300 1.921 . S
C799 N14 1.908 . S
C831 N28 1.092 . S
C839 C320 1.060 . S
C863 N2 1.558 . S
C871 C343 1.581 . S
C895 N223 1.480 . S
C903 C323 1.499 . S
C927 N197 1.004 . S
C935 C340 0.994 . S
C959 N209 1.890 . S
C967 C303 1.888 . S
C991 N222 1.655 . S
C999 C310 1.631 . S
C1023 N196 1.431 . S
C1031 C330 1.401 . S
C1063 C335 1.527 . S
C1055 N210 1.523 . S
C1087 N15 1.464 . S
C1095 C315 1.461 . S
C1127 C350 1.307 . S
C1119 N27 1.329 . S
C1151 N1 1.571 . S
C1159 C295 1.574 . S
C1191 C360 1.916 . S
C1183 N92 1.924 . S
C1215 N106 1.077 . S
C1223 C380 1.078 . S
C1255 C403 1.572 . S
C1247 N80 1.581 . S
C1287 C383 1.489 . S
C1279 N67 1.503 . S
C1319 C400 1.005 . S
C1311 N41 1.011 . S
C1343 N53 1.890 . S
C1351 C363 1.890 . S
C1375 N66 1.656 . S
C1383 C370 1.628 . S
C1407 N40 1.411 . S
C1415 C390 1.383 . S
C1447 C395 1.527 . S
C1439 N54 1.524 . S
C1471 N93 1.444 . S
C1479 C375 1.464 . S
C1503 N105 1.320 . S
C1511 C410 1.301 . S
C1535 N79 1.576 . S
C1543 C355 1.564 . S
C1567 N200 0.960 . S
C1575 C253 0.976 . S
C1607 C273 1.901 . S
C1599 N213 1.902 . S
C1631 N226 1.522 . S
C1639 C282 1.477 . S
C1663 N83 1.584 . S
C1671 C262 1.552 1_655 S
C1695 N96 1.848 . S
C1703 C293 1.809 . S
C1735 C242 0.994 . S
C1727 N109 1.016 . S
C1759 N44 0.960 . S
C1767 C313 0.976 . S
C1791 N57 1.902 . S
C1799 C333 1.901 . S
C1823 N70 1.508 . S
C1831 C342 1.488 . S
C1855 N161 1.619 . S
C1863 C322 1.569 . S
C1895 C353 1.804 . S
C1887 N174 1.836 . S
C1919 N187 1.030 . S
C1927 C302 1.000 . S
C1951 N122 0.962 . S
C1959 C373 0.976 . S
C1983 N135 1.902 . S
C1991 C393 1.901 . S
C2023 C402 1.462 . S
C2015 N148 1.491 . S
C2047 N5 1.619 . S
C2055 C382 1.567 . S
C2079 N18 1.834 . S
C2087 C413 1.804 . S
C2111 N31 0.997 . S
C2119 C362 1.006 . S
