# Generated by pormake.
# Topology zzz, (3,6)-cn, num edge types: 1
# Building blocks:
#     Node 0, Type 0, BuildingBlock: QEWDON_clean_linker_0, # of connection points: 3
#     Node 1, Type 0, BuildingBlock: QEWDON_clean_linker_0, # of connection points: 3
#     Node 2, Type 0, BuildingBlock: QEWDON_clean_linker_0, # of connection points: 3
#     Node 3, Type 0, BuildingBlock: QEWDON_clean_linker_0, # of connection points: 3
#     Node 4, Type 0, BuildingBlock: QEWDON_clean_linker_0, # of connection points: 3
#     Node 5, Type 0, BuildingBlock: QEWDON_clean_linker_0, # of connection points: 3
#     Node 6, Type 0, BuildingBlock: QEWDON_clean_linker_0, # of connection points: 3
#     Node 7, Type 0, BuildingBlock: QEWDON_clean_linker_0, # of connection points: 3
#     Node 8, Type 1, BuildingBlock: KUMBUR_clean_sbu_1, # of connection points: 6
#     Node 9, Type 1, BuildingBlock: KUMBUR_clean_sbu_1, # of connection points: 6
#     Node 10, Type 1, BuildingBlock: KUMBUR_clean_sbu_1, # of connection points: 6
#     Node 11, Type 1, BuildingBlock: KUMBUR_clean_sbu_1, # of connection points: 6
#     Edge 12, Type (0, 1), BuildingBlock: TEMPAE_clean_linker_10, # of connection points: 2
#     Edge 13, Type (0, 1), BuildingBlock: TEMPAE_clean_linker_10, # of connection points: 2
#     Edge 14, Type (0, 1), BuildingBlock: TEMPAE_clean_linker_10, # of connection points: 2
#     Edge 15, Type (0, 1), BuildingBlock: TEMPAE_clean_linker_10, # of connection points: 2
#     Edge 16, Type (0, 1), BuildingBlock: TEMPAE_clean_linker_10, # of connection points: 2
#     Edge 17, Type (0, 1), BuildingBlock: TEMPAE_clean_linker_10, # of connection points: 2
#     Edge 18, Type (0, 1), BuildingBlock: TEMPAE_clean_linker_10, # of connection points: 2
#     Edge 19, Type (0, 1), BuildingBlock: TEMPAE_clean_linker_10, # of connection points: 2
#     Edge 20, Type (0, 1), BuildingBlock: TEMPAE_clean_linker_10, # of connection points: 2
#     Edge 21, Type (0, 1), BuildingBlock: TEMPAE_clean_linker_10, # of connection points: 2
#     Edge 22, Type (0, 1), BuildingBlock: TEMPAE_clean_linker_10, # of connection points: 2
#     Edge 23, Type (0, 1), BuildingBlock: TEMPAE_clean_linker_10, # of connection points: 2
#     Edge 24, Type (0, 1), BuildingBlock: TEMPAE_clean_linker_10, # of connection points: 2
#     Edge 25, Type (0, 1), BuildingBlock: TEMPAE_clean_linker_10, # of connection points: 2
#     Edge 26, Type (0, 1), BuildingBlock: TEMPAE_clean_linker_10, # of connection points: 2
#     Edge 27, Type (0, 1), BuildingBlock: TEMPAE_clean_linker_10, # of connection points: 2
#     Edge 28, Type (0, 1), BuildingBlock: TEMPAE_clean_linker_10, # of connection points: 2
#     Edge 29, Type (0, 1), BuildingBlock: TEMPAE_clean_linker_10, # of connection points: 2
#     Edge 30, Type (0, 1), BuildingBlock: TEMPAE_clean_linker_10, # of connection points: 2
#     Edge 31, Type (0, 1), BuildingBlock: TEMPAE_clean_linker_10, # of connection points: 2
#     Edge 32, Type (0, 1), BuildingBlock: TEMPAE_clean_linker_10, # of connection points: 2
#     Edge 33, Type (0, 1), BuildingBlock: TEMPAE_clean_linker_10, # of connection points: 2
#     Edge 34, Type (0, 1), BuildingBlock: TEMPAE_clean_linker_10, # of connection points: 2
#     Edge 35, Type (0, 1), BuildingBlock: TEMPAE_clean_linker_10, # of connection points: 2
# Relax obj value: 0.114
# Max RMSD: 0.095
# Mean RMSD: 0.038
data_MOF--net-zzz--node1-KUMBUR_clean_sbu_1--node2-QEWDON_clean_linker_0--edge1-TEMPAE_clean_linker_10
_symmetry_space_group_name_H-M    P1
_symmetry_Int_Tables_number       1
_symmetry_cell_setting            triclinic
loop_
_symmetry_equiv_pos_as_xyz
'x, y, z'
_cell_length_a     54.179685
_cell_length_b     54.097012
_cell_length_c     15.651417
_cell_angle_alpha  89.917585
_cell_angle_beta   90.005067
_cell_angle_gamma 90.250611
loop_
_atom_site_label
_atom_site_type_symbol
_atom_site_fract_x
_atom_site_fract_y
_atom_site_fract_z
_atom_type_partial_charge
H0 H 0.76912 0.57346 0.16121 0.0
C1 C 0.78081 0.56789 0.21387 0.0
C2 C 0.80622 0.57292 0.20899 0.0
C3 C 0.7705 0.55631 0.28643 0.0
H4 H 0.8414 0.56944 0.27238 0.0
C5 C 0.82164 0.56639 0.27725 0.0
C6 C 0.81266 0.55465 0.35009 0.0
C7 C 0.78695 0.5493 0.35452 0.0
C8 C 0.74258 0.5537 0.293 0.0
H9 H 0.77992 0.53997 0.41071 0.0
C10 C 0.72651 0.55076 0.22032 0.0
C11 C 0.70021 0.55052 0.22963 0.0
C12 C 0.73158 0.55627 0.37378 0.0
H13 H 0.74266 0.55927 0.43038 0.0
C14 C 0.70604 0.55634 0.38312 0.0
H15 H 0.73434 0.54834 0.15729 0.0
C16 C 0.69062 0.55378 0.31251 0.0
H17 H 0.67092 0.5548 0.32337 0.0
H18 H 0.69805 0.55887 0.44589 0.0
H19 H 0.98179 0.76614 0.19091 0.0
C20 C 0.98836 0.77914 0.23837 0.0
C21 C 0.98214 0.80407 0.22887 0.0
C22 C 1.00339 0.77105 0.30579 0.0
H23 H 0.9851 0.84057 0.28348 0.0
C24 C 0.98952 0.82118 0.2914 0.0
C25 C 1.00449 0.81442 0.36025 0.0
C26 C 1.0115 0.78909 0.36751 0.0
C27 C 1.00936 0.74364 0.31116 0.0
H28 H 0.02357 0.78369 0.4193 0.0
C29 C 1.01111 0.72787 0.23721 0.0
C30 C 1.01395 0.70168 0.24509 0.0
C31 C 1.01113 0.73257 0.39199 0.0
H32 H 1.00945 0.74347 0.44962 0.0
C33 C 1.01373 0.70708 0.40031 0.0
H34 H 1.01052 0.7359 0.17389 0.0
C35 C 1.01476 0.69187 0.32854 0.0
H36 H 1.0158 0.67214 0.33924 0.0
H37 H 1.01442 0.6989 0.46343 0.0
H38 H 0.78847 0.9979 0.15807 0.0
C39 C 0.77649 1.00032 0.21254 0.0
C40 C 0.75123 0.99896 0.19757 0.0
C41 C 0.78594 1.00618 0.29355 0.0
H42 H 0.71488 0.99992 0.25213 0.0
C43 C 0.73455 1.00054 0.26541 0.0
C44 C 0.74242 1.00573 0.34838 0.0
C45 C 0.76837 1.00911 0.36247 0.0
C46 C 0.81394 1.0087 0.30265 0.0
H47 H 0.77456 1.01412 0.42582 0.0
C48 C 0.83015 1.01321 0.23093 0.0
C49 C 0.85634 1.01191 0.23866 0.0
C50 C 0.82503 1.00464 0.38254 0.0
H51 H 0.81401 1.0008 0.43864 0.0
C52 C 0.85067 1.00457 0.39135 0.0
H53 H 0.82276 1.01727 0.16844 0.0
C54 C 0.86609 1.00788 0.3207 0.0
H55 H 0.88586 1.0074 0.33061 0.0
H56 H 0.8587 1.00137 0.45367 0.0
H57 H 0.56726 0.79209 0.16617 0.0
C58 C 0.56219 0.78005 0.21866 0.0
C59 C 0.56662 0.75468 0.2104 0.0
C60 C 0.55127 0.78978 0.29287 0.0
H61 H 0.56343 0.71891 0.27044 0.0
C62 C 0.56076 0.73865 0.27797 0.0
C63 C 0.54972 0.74714 0.35279 0.0
C64 C 0.54491 0.77289 0.36046 0.0
C65 C 0.54789 0.81755 0.2995 0.0
H66 H 0.53593 0.77952 0.41771 0.0
C67 C 0.54399 0.83318 0.2264 0.0
C68 C 0.54351 0.85949 0.2337 0.0
C69 C 0.55061 0.82893 0.37954 0.0
H70 H 0.5541 0.81811 0.43643 0.0
C71 C 0.55018 0.85457 0.38733 0.0
H72 H 0.5411 0.82494 0.16426 0.0
C73 C 0.54705 0.86961 0.3158 0.0
H74 H 0.54792 0.8894 0.32544 0.0
H75 H 0.55287 0.86294 0.44945 0.0
H76 H 0.28244 0.51299 0.17692 0.0
C77 C 0.27281 0.50852 0.11853 0.0
C78 C 0.24796 0.50194 0.12514 0.0
C79 C 0.28412 0.51208 0.03846 0.0
H80 H 0.21494 0.49163 0.06048 0.0
C81 C 0.23416 0.49694 0.05229 0.0
C82 C 0.24256 0.5039 0.97183 0.0
C83 C 0.26798 0.51121 0.96421 0.0
C84 C 0.31181 0.51863 0.03653 0.0
H85 H 0.27464 0.51599 0.90135 0.0
C86 C 0.32805 0.51584 0.10957 0.0
C87 C 0.3536 0.52253 0.10628 0.0
C88 C 0.32247 0.52808 0.96119 0.0
H89 H 0.31169 0.53105 0.90418 0.0
C90 C 0.34746 0.53437 0.95744 0.0
H91 H 0.32143 0.50793 0.16866 0.0
C92 C 0.36274 0.53174 0.02853 0.0
H93 H 0.3819 0.53731 0.02268 0.0
H94 H 0.35509 0.54163 0.89854 0.0
H95 H 0.06026 0.28664 0.17801 0.0
C96 C 0.06155 0.27833 0.11565 0.0
C97 C 0.07423 0.25579 0.10755 0.0
C98 C 0.04822 0.28831 0.04614 0.0
H99 H 0.08887 0.2298 0.01968 0.0
C100 C 0.07694 0.24571 0.02616 0.0
C101 C 0.05845 0.24981 0.96577 0.0
C102 C 0.04447 0.27194 0.97434 0.0
C103 C 0.03735 0.31446 0.05204 0.0
H104 H 0.03082 0.27568 0.92595 0.0
C105 C 0.04168 0.33098 0.12304 0.0
C106 C 0.03268 0.35576 0.12309 0.0
C107 C 0.02361 0.32397 0.98289 0.0
H108 H 0.01983 0.31325 0.92641 0.0
C109 C 1.01457 0.34805 0.98341 0.0
H110 H 0.05262 0.32537 0.17723 0.0
C111 C 1.01901 0.3637 0.05216 0.0
H112 H 1.01159 0.38226 0.04977 0.0
H113 H 1.00413 0.35475 0.92921 0.0
H114 H 0.26587 0.06597 0.16821 0.0
C115 C 0.27744 0.0621 0.11379 0.0
C116 C 0.30224 0.06897 0.11986 0.0
C117 C 0.26801 0.05074 0.03921 0.0
H118 H 0.3373 0.0706 0.05717 0.0
C119 C 0.31809 0.06534 0.05076 0.0
C120 C 0.31046 0.05349 0.97628 0.0
C121 C 0.28532 0.04569 0.97111 0.0
C122 C 0.24036 0.04498 0.03324 0.0
H123 H 0.27963 0.03595 0.9142 0.0
C124 C 0.22406 0.04504 0.106 0.0
C125 C 0.19824 0.04076 0.09735 0.0
C126 C 0.22953 0.04046 0.95277 0.0
H127 H 0.24026 0.04097 0.89469 0.0
C128 C 0.20428 0.03583 0.94449 0.0
H129 H 0.23099 0.04788 0.16987 0.0
C130 C 0.18883 0.03594 0.01563 0.0
H131 H 0.16926 0.03264 1.00648 0.0
H132 H 0.19651 0.03244 0.88183 0.0
H133 H 0.4831 0.26438 0.15271 0.0
C134 C 0.48894 0.27802 0.10628 0.0
C135 C 0.48219 0.3024 0.12124 0.0
C136 C 0.50491 0.27173 0.03927 0.0
H137 H 0.48257 0.33953 0.07324 0.0
C138 C 0.48753 0.32052 0.06005 0.0
C139 C 0.50161 0.31551 0.98715 0.0
C140 C 0.5112 0.29091 0.97829 0.0
C141 C 0.51426 0.24513 0.03687 0.0
H142 H 0.52333 0.28693 0.92522 0.0
C143 C 0.51532 0.22971 0.11214 0.0
C144 C 0.52064 0.20401 0.10728 0.0
C145 C 0.52035 0.23413 0.95845 0.0
H146 H 0.51969 0.24466 0.89967 0.0
C147 C 0.5264 0.20903 0.95388 0.0
H148 H 0.51177 0.23731 0.17476 0.0
C149 C 0.52622 0.1941 0.02694 0.0
H150 H 0.53039 0.17461 0.0206 0.0
H151 H 0.53075 0.20091 0.89255 0.0
Tb152 Tb 1.00228 0.04107 0.57931 0.0
C153 C 0.08973 0.05377 0.84826 0.0
N154 N 0.08848 0.03806 0.78087 0.0
C155 C 0.13175 0.04434 0.7544 0.0
C156 C 0.11176 0.06645 0.86869 0.0
C157 C 0.10954 0.03195 0.73813 0.0
C158 C 0.13271 0.0622 0.81864 0.0
C159 C 0.07082 0.06888 0.97801 0.0
C160 C 0.06954 0.0551 0.90172 0.0
C161 C 0.09207 0.08293 0.99585 0.0
C162 C 0.1125 0.08178 0.94106 0.0
Tb163 Tb 0.05051 1.02048 0.75427 0.0
N164 N 0.04929 0.04133 0.88176 0.0
C165 C 0.05115 0.0672 0.03563 0.0
C166 C 0.03125 0.03784 0.9414 0.0
C167 C 0.03156 0.05114 0.01813 0.0
H168 H 0.10945 1.01617 0.69635 0.0
H169 H 1.01689 0.04865 0.06431 0.0
H170 H 0.94596 0.03936 0.66946 0.0
H171 H 0.0413 0.98881 0.31577 0.0
H172 H 1.01694 0.0243 0.93164 0.0
H173 H 0.05143 0.07736 0.09524 0.0
H174 H 0.04326 1.0146 0.44274 0.0
H175 H 0.14827 0.03954 0.71936 0.0
H176 H 0.09324 0.09397 0.05344 0.0
H177 H 0.12915 0.0919 0.95728 0.0
H178 H 0.90577 1.02038 0.63757 0.0
H179 H 0.15004 0.07143 0.83244 0.0
H180 H 1.00121 0.97241 0.2658 0.0
N181 N 0.96436 0.0228 0.56359 0.0
C182 C 0.9618 1.00869 0.49216 0.0
C183 C 0.92143 1.01679 0.59654 0.0
C184 C 0.93878 0.99827 0.46983 0.0
C185 C 0.9445 0.02704 0.61563 0.0
C186 C 0.91853 1.00241 0.52326 0.0
N187 N 1.00466 1.01373 0.46754 0.0
C188 C 0.02559 1.0081 0.42301 0.0
C189 C 0.98053 0.9894 0.36828 0.0
C190 C 0.98247 1.00443 0.44171 0.0
C191 C 1.00192 0.984 0.32218 0.0
C192 C 0.02456 0.99318 0.35027 0.0
H193 H 0.9006 0.99463 0.50842 0.0
H194 H 0.9191 0.97605 0.37668 0.0
H195 H 0.95565 0.96826 0.28796 0.0
O196 O 1.00889 0.06809 0.48482 0.0
O197 O 1.00469 1.00102 0.61022 0.0
O198 O 0.04558 0.99699 0.64061 0.0
O199 O 0.97215 0.05988 0.52703 0.0
O200 O 0.04148 0.04874 0.5452 0.0
O201 O 0.06758 0.02403 0.62633 0.0
O202 O 0.03971 0.98813 0.81884 0.0
O203 O 0.04518 0.06099 0.74884 0.0
O204 O 1.00938 0.07061 0.67376 0.0
O205 O 0.07862 0.99799 0.80434 0.0
O206 O 1.01037 1.01538 0.78275 0.0
O207 O 0.98835 0.04529 0.71063 0.0
C208 C 0.0244 0.98696 0.61805 0.0
C209 C 0.98152 0.10152 0.50338 0.0
C210 C 0.99487 0.14423 0.49027 0.0
C211 C 0.97589 0.1515 0.54588 0.0
C212 C 0.96268 0.10899 0.55968 0.0
C213 C 0.95989 0.13389 0.58038 0.0
C214 C 0.9973 0.11929 0.46822 0.0
C215 C 0.06343 0.03896 0.5607 0.0
C216 C 0.98593 0.07523 0.48537 0.0
C217 C 0.93668 0.98403 0.39519 0.0
C218 C 0.95748 0.97967 0.34447 0.0
C219 C 0.02833 0.07681 0.72257 0.0
C220 C 0.06981 0.95979 0.8779 0.0
C221 C 0.05826 0.9196 0.93288 0.0
C222 C 0.083 0.91523 0.95546 0.0
C223 C 0.09451 0.95541 0.90025 0.0
C224 C 0.05185 0.94193 0.89458 0.0
C225 C 0.10103 0.93315 0.93916 0.0
C226 C 0.9909 0.02993 0.77532 0.0
C227 C 0.06267 0.98214 0.83235 0.0
H228 H 0.97382 0.17067 0.56425 0.0
H229 H 0.95028 0.09566 0.58868 0.0
H230 H 0.94552 0.13949 0.62419 0.0
H231 H 1.01177 0.11364 0.42459 0.0
H232 H 0.08834 0.89801 0.98548 0.0
H233 H 0.10872 0.96905 0.88717 0.0
H234 H 0.03272 0.94545 0.87823 0.0
H235 H 0.12006 0.92974 0.95641 0.0
Tb236 Tb 0.53344 0.04907 0.75295 0.0
C237 C 0.52789 0.94812 0.57728 0.0
N238 N 0.53851 0.96941 0.54876 0.0
C239 C 0.57318 0.94652 0.49611 0.0
C240 C 0.53982 0.92518 0.56779 0.0
C241 C 0.56063 0.96882 0.50693 0.0
C242 C 0.56281 0.92461 0.5271 0.0
C243 C 0.49302 0.92768 0.64448 0.0
C244 C 0.50492 0.94945 0.61616 0.0
C245 C 0.50501 0.90483 0.63656 0.0
C246 C 0.52837 0.90359 0.59842 0.0
Tb247 Tb 0.51589 1.00455 0.56763 0.0
N248 N 0.49406 0.97199 0.62442 0.0
C249 C 0.4692 0.92945 0.67824 0.0
C250 C 0.4702 0.97346 0.65218 0.0
C251 C 0.45762 0.95241 0.68091 0.0
H252 H 0.56833 0.98534 0.47919 0.0
H253 H 0.43882 0.95386 0.7037 0.0
H254 H 0.48282 0.06342 0.86341 0.0
H255 H 0.60413 0.10663 0.60826 0.0
H256 H 0.46015 0.99043 0.6485 0.0
H257 H 0.45939 0.91316 0.70037 0.0
H258 H 0.58588 0.06775 0.65712 0.0
H259 H 0.5907 0.94622 0.46291 0.0
H260 H 0.49624 0.88796 0.6587 0.0
H261 H 0.53728 0.8858 0.592 0.0
H262 H 0.45946 0.10084 0.89942 0.0
H263 H 0.57251 0.90733 0.51818 0.0
H264 H 0.58277 0.14614 0.63537 0.0
N265 N 0.51034 0.08252 0.79225 0.0
C266 C 0.51956 0.10496 0.76919 0.0
C267 C 0.47618 0.10226 0.86183 0.0
C268 C 0.50717 0.12698 0.79045 0.0
C269 C 0.48916 0.08096 0.83947 0.0
C270 C 0.48514 0.12539 0.83682 0.0
N271 N 0.55292 0.08411 0.70456 0.0
C272 C 0.57556 0.08438 0.66611 0.0
C273 C 0.55186 0.12874 0.69963 0.0
C274 C 0.54165 0.10581 0.72447 0.0
C275 C 0.57432 0.12892 0.65567 0.0
C276 C 0.58634 0.10665 0.63976 0.0
H277 H 0.47512 0.14188 0.85465 0.0
H278 H 0.50794 0.16696 0.78102 0.0
H279 H 0.54702 0.16849 0.70119 0.0
O280 O 0.56485 0.04114 0.82534 0.0
O281 O 0.51894 0.06788 0.63671 0.0
O282 O 0.5269 0.04179 0.52379 0.0
O283 O 0.53394 0.0599 0.88187 0.0
O284 O 0.56458 0.02954 0.68767 0.0
O285 O 0.55213 0.02209 0.54925 0.0
O286 O 0.48397 1.00061 0.49387 0.0
O287 O 0.53407 0.98824 0.6824 0.0
O288 O 0.51931 1.0125 0.78952 0.0
O289 O 0.51959 0.99519 0.43757 0.0
O290 O 0.48564 0.0274 0.62402 0.0
O291 O 0.497 0.03159 0.76409 0.0
C292 C 0.52215 0.06399 0.55419 0.0
C293 C 0.57372 0.07043 0.93223 0.0
C294 C 0.61557 0.07918 0.97802 0.0
C295 C 0.60748 0.10058 0.01982 0.0
C296 C 0.56563 0.09211 0.97296 0.0
C297 C 0.58256 0.10715 0.01635 0.0
C298 C 0.59868 0.0643 0.93464 0.0
C299 C 0.56975 0.02487 0.60642 0.0
C300 C 0.55658 0.05289 0.89207 0.0
C301 C 0.5172 0.14984 0.76532 0.0
C302 C 0.53947 0.15072 0.71991 0.0
C303 C 0.52878 0.99157 0.76365 0.0
C304 C 0.48973 1.01649 0.35584 0.0
C305 C 0.45988 0.0453 0.29686 0.0
C306 C 0.47703 0.05248 0.23429 0.0
C307 C 0.50682 0.02381 0.29297 0.0
C308 C 0.46626 0.02731 0.35687 0.0
C309 C 0.50044 0.04177 0.23264 0.0
C310 C 0.47977 0.03114 0.70502 0.0
C311 C 0.49626 0.99852 0.42297 0.0
H312 H 0.62034 0.11195 0.05552 0.0
H313 H 0.54632 0.09722 0.97257 0.0
H314 H 0.57627 0.12364 0.04865 0.0
H315 H 0.60492 0.04719 0.90574 0.0
H316 H 0.47222 0.06617 0.1866 0.0
H317 H 0.52512 1.01585 0.29077 0.0
H318 H 0.45266 1.0215 0.40373 0.0
H319 H 0.51364 0.04734 0.18435 0.0
Tb320 Tb 0.54791 0.52152 0.58728 0.0
C321 C 0.46828 0.50247 0.84567 0.0
N322 N 0.4689 0.51628 0.77292 0.0
C323 C 0.42888 0.50097 0.73339 0.0
C324 C 0.44836 0.48635 0.86269 0.0
C325 C 0.44901 0.51668 0.71933 0.0
C326 C 0.42868 0.48548 0.80479 0.0
C327 C 0.48733 0.49097 0.98013 0.0
C328 C 0.4876 0.50484 0.90368 0.0
C329 C 0.46791 0.47429 0.99596 0.0
C330 C 0.44843 0.47206 0.9376 0.0
Tb331 Tb 0.50121 0.54316 0.76156 0.0
N332 N 0.50618 0.52124 0.88635 0.0
C333 C 0.50638 0.49453 0.03914 0.0
C334 C 0.52409 0.52561 0.94623 0.0
C335 C 0.52471 0.51205 0.02236 0.0
H336 H 0.44809 0.52967 0.6673 0.0
H337 H 0.53908 0.5155 0.06894 0.0
H338 H 0.60336 0.53344 0.67833 0.0
H339 H 0.51332 0.54134 0.27168 0.0
H340 H 0.53739 0.5402 0.93836 0.0
H341 H 0.50681 0.48424 0.09857 0.0
H342 H 0.51274 0.52211 0.41373 0.0
H343 H 0.4133 0.50119 0.69005 0.0
H344 H 0.46755 0.46334 0.05397 0.0
H345 H 0.43333 0.45949 0.9516 0.0
H346 H 0.63992 0.55811 0.64584 0.0
H347 H 0.41293 0.47348 0.81592 0.0
H348 H 0.54879 0.5674 0.22807 0.0
N349 N 0.58342 0.54423 0.56692 0.0
C350 C 0.58532 0.55548 0.48926 0.0
C351 C 0.62451 0.55793 0.60182 0.0
C352 C 0.60671 0.56887 0.46587 0.0
C353 C 0.60317 0.54446 0.62144 0.0
C354 C 0.62621 0.57041 0.52407 0.0
N355 N 0.54593 0.53952 0.45561 0.0
C356 C 0.52755 0.53464 0.39821 0.0
C357 C 0.56776 0.56327 0.34902 0.0
C358 C 0.56614 0.5527 0.43134 0.0
C359 C 0.54824 0.5596 0.29185 0.0
C360 C 0.52814 0.54503 0.31639 0.0
H361 H 0.64296 0.58046 0.50846 0.0
H362 H 0.62459 0.58998 0.36538 0.0
H363 H 0.59049 0.58504 0.26304 0.0
O364 O 0.54026 0.48871 0.52111 0.0
O365 O 0.5345 0.56004 0.57379 0.0
O366 O 0.52524 0.57297 0.71059 0.0
O367 O 0.57824 0.50208 0.53672 0.0
O368 O 0.50799 0.51399 0.56551 0.0
O369 O 0.4885 0.5469 0.62788 0.0
O370 O 0.48819 0.56044 0.87211 0.0
O371 O 0.50416 0.50334 0.72677 0.0
O372 O 0.54491 0.49752 0.70068 0.0
O373 O 0.47198 0.56855 0.75 0.0
O374 O 0.54021 0.55229 0.79418 0.0
O375 O 0.56308 0.52357 0.7184 0.0
C376 C 0.53116 0.57787 0.6303 0.0
C377 C 0.57259 0.46409 0.45701 0.0
C378 C 0.56418 0.42416 0.39319 0.0
C379 C 0.58818 0.42383 0.35916 0.0
C380 C 0.59665 0.4636 0.42381 0.0
C381 C 0.60438 0.44347 0.37498 0.0
C382 C 0.55657 0.44431 0.44199 0.0
C383 C 0.48965 0.52998 0.5676 0.0
C384 C 0.56362 0.48537 0.50504 0.0
C385 C 0.60828 0.57968 0.38437 0.0
C386 C 0.58889 0.57682 0.326 0.0
C387 C 0.52404 0.48956 0.73335 0.0
C388 C 0.46983 0.59922 0.85631 0.0
C389 C 0.48812 0.63701 0.9108 0.0
C390 C 0.46437 0.64692 0.92148 0.0
C391 C 0.44624 0.60929 0.86693 0.0
C392 C 0.49082 0.61324 0.87696 0.0
C393 C 0.44356 0.63314 0.89904 0.0
C394 C 0.5608 0.53961 0.78164 0.0
C395 C 0.47186 0.57334 0.8313 0.0
H396 H 0.59436 0.40839 0.32082 0.0
H397 H 0.6093 0.47885 0.43455 0.0
H398 H 0.62287 0.44317 0.34886 0.0
H399 H 0.53787 0.44477 0.46677 0.0
H400 H 0.46195 0.6653 0.9475 0.0
H401 H 0.42991 0.59849 0.85202 0.0
H402 H 0.50908 0.60533 0.87006 0.0
H403 H 0.42532 0.64081 0.90788 0.0
Tb404 Tb 0.03642 0.5546 0.58452 0.0
C405 C 0.05719 0.47596 0.84782 0.0
N406 N 0.04355 0.47537 0.77491 0.0
C407 C 0.06173 0.4366 0.73654 0.0
C408 C 0.07464 0.45742 0.8657 0.0
C409 C 0.0447 0.45546 0.72154 0.0
C410 C 0.07701 0.43774 0.80833 0.0
C411 C 0.06702 0.49631 0.98136 0.0
C412 C 0.05344 0.49527 0.90449 0.0
C413 C 0.085 0.47831 0.99834 0.0
C414 C 0.08878 0.45889 0.94071 0.0
Tb415 Tb 1.01574 0.5065 0.75768 0.0
N416 N 0.03573 0.5123 0.88605 0.0
C417 C 0.06171 0.51505 0.03986 0.0
C418 C 0.02914 0.52923 0.94668 0.0
C419 C 0.04242 0.53132 0.02301 0.0
H420 H 0.03231 0.45383 0.66798 0.0
H421 H 0.03731 0.5451 0.06982 0.0
H422 H 0.0196 0.60736 0.6846 0.0
H423 H 1.01707 0.52165 0.26636 0.0
H424 H 1.01304 0.54048 0.93894 0.0
H425 H 0.07174 0.51651 0.09956 0.0
H426 H 0.03762 0.52137 0.40637 0.0
H427 H 0.06284 0.42105 0.69325 0.0
H428 H 0.09572 0.47895 0.05675 0.0
H429 H 0.10238 0.4449 0.95541 0.0
H430 H 0.98987 0.64044 0.66274 0.0
H431 H 0.09012 0.42305 0.81997 0.0
H432 H 0.98679 0.55425 0.23168 0.0
N433 N 1.00944 0.58715 0.57316 0.0
C434 C 0.99716 0.58857 0.49728 0.0
C435 C 0.99128 0.62565 0.61649 0.0
C436 C 0.98071 0.6081 0.47978 0.0
C437 C 1.00765 0.60616 0.63034 0.0
C438 C 0.97745 0.62644 0.54147 0.0
N439 N 1.0178 0.55236 0.45412 0.0
C440 C 0.02378 0.53515 0.39384 0.0
C441 C 0.99015 0.57215 0.35485 0.0
C442 C 1.00191 0.57094 0.43519 0.0
C443 C 0.99548 0.554 0.29404 0.0
C444 C 1.01245 0.53549 0.31354 0.0
H445 H 0.96507 0.64179 0.53038 0.0
H446 H 0.9559 0.62397 0.38612 0.0
H447 H 0.96409 0.59242 0.27689 0.0
O448 O 0.06778 0.5523 0.50686 0.0
O449 O 0.99935 0.53769 0.56995 0.0
O450 O 0.9866 0.5313 0.70758 0.0
O451 O 0.05269 0.58768 0.54154 0.0
O452 O 0.04554 0.51529 0.55795 0.0
O453 O 1.01387 0.49385 0.62376 0.0
O454 O 0.99746 0.49109 0.86317 0.0
O455 O 0.05523 0.50813 0.71848 0.0
O456 O 0.06215 0.54893 0.6926 0.0
O457 O 0.98972 0.47817 0.73626 0.0
O458 O 1.00715 0.54552 0.79108 0.0
O459 O 0.03634 0.56845 0.71761 0.0
C460 C 0.98142 0.53494 0.62608 0.0
C461 C 0.09585 0.58326 0.5434 0.0
C462 C 0.13937 0.57317 0.54821 0.0
C463 C 0.14224 0.58794 0.62123 0.0
C464 C 0.09863 0.59759 0.61777 0.0
C465 C 0.1219 0.60027 0.6554 0.0
C466 C 0.11642 0.57205 0.50747 0.0
C467 C 0.03079 0.49577 0.56355 0.0
C468 C 0.07156 0.57609 0.51024 0.0
C469 C 0.96864 0.60915 0.40042 0.0
C470 C 0.97339 0.59126 0.33805 0.0
C471 C 0.06998 0.52747 0.7208 0.0
C472 C 0.95688 0.47849 0.83369 0.0
C473 C 0.92116 0.50023 0.88865 0.0
C474 C 0.90646 0.47936 0.87148 0.0
C475 C 0.94201 0.45784 0.81625 0.0
C476 C 0.94631 0.4999 0.86873 0.0
C477 C 0.91684 0.45835 0.83474 0.0
C478 C 0.02061 0.56583 0.78161 0.0
C479 C 0.98337 0.47721 0.8162 0.0
H480 H 0.15993 0.58943 0.65297 0.0
H481 H 0.08285 0.60611 0.64812 0.0
H482 H 0.124 0.61122 0.71278 0.0
H483 H 0.11413 0.56114 0.44982 0.0
H484 H 0.88691 0.4794 0.88615 0.0
H485 H 0.94992 0.4413 0.78877 0.0
H486 H 0.95762 0.51604 0.882 0.0
H487 H 0.9054 0.44237 0.82129 0.0
C488 C 0.17666 0.06283 0.21968 0.0
C489 C 0.18039 0.04128 0.17142 0.0
C490 C 0.15743 0.06438 0.28105 0.0
C491 C 0.14157 0.04379 0.29597 0.0
C492 C 0.14569 1.02184 0.24849 0.0
C493 C 0.16473 1.02095 0.1868 0.0
C494 C 0.15385 0.08821 0.32926 0.0
C495 C 0.12982 0.99919 0.26243 0.0
C496 C 0.10807 0.03491 0.50988 0.0
C497 C 0.08363 0.04212 0.4934 0.0
C498 C 0.12703 0.0365 0.4483 0.0
C499 C 0.12165 0.04452 0.36431 0.0
C500 C 0.09704 0.05188 0.34575 0.0
C501 C 0.07858 0.05111 0.41048 0.0
C502 C 0.15288 0.02899 0.47319 0.0
C503 C 0.09002 0.05998 0.25676 0.0
H504 H 0.18828 0.07881 0.20735 0.0
H505 H 0.1673 1.00427 0.14962 0.0
H506 H 0.13505 0.09547 0.31708 0.0
H507 H 0.15537 0.08482 0.39899 0.0
H508 H 0.16757 0.10257 0.31075 0.0
H509 H 0.1351 0.98366 0.21994 0.0
H510 H 0.13138 0.99292 0.32974 0.0
H511 H 0.11015 1.00374 0.25085 0.0
H512 H 0.11273 0.02763 0.57084 0.0
H513 H 0.05994 0.05672 0.39491 0.0
H514 H 0.16616 0.04396 0.45709 0.0
H515 H 0.15841 1.01237 0.43659 0.0
H516 H 0.15452 0.02481 0.54248 0.0
H517 H 0.10155 0.07598 0.23694 0.0
H518 H 0.07026 0.06521 0.25203 0.0
H519 H 0.09364 0.04482 0.2108 0.0
C520 C 0.49907 0.17099 0.19523 0.0
C521 C 0.51953 0.18674 0.18345 0.0
C522 C 0.49892 0.15211 0.25832 0.0
C523 C 0.51992 0.14828 0.31117 0.0
C524 C 0.5405 0.16445 0.30036 0.0
C525 C 0.54005 0.18336 0.23715 0.0
C526 C 0.47642 0.13574 0.26677 0.0
C527 C 0.56349 0.16115 0.35345 0.0
C528 C 0.51344 0.10926 0.51807 0.0
C529 C 0.52154 0.08569 0.49251 0.0
C530 C 0.51298 0.12963 0.46072 0.0
C531 C 0.52074 0.12676 0.37446 0.0
C532 C 0.52899 0.10302 0.34837 0.0
C533 C 0.5292 0.08298 0.40697 0.0
C534 C 0.50394 0.15428 0.49257 0.0
C535 C 0.53761 0.09868 0.25793 0.0
H536 H 0.48328 0.1731 0.15336 0.0
H537 H 0.55615 0.195 0.22771 0.0
H538 H 0.48114 0.11655 0.24818 0.0
H539 H 0.47016 0.13518 0.33425 0.0
H540 H 0.4609 0.14212 0.22608 0.0
H541 H 0.57736 0.17593 0.34142 0.0
H542 H 0.55879 0.16105 0.42244 0.0
H543 H 0.57196 0.14301 0.33864 0.0
H544 H 0.50714 0.11182 0.58308 0.0
H545 H 0.53559 0.06509 0.38546 0.0
H546 H 0.48771 0.1602 0.45454 0.0
H547 H 0.51852 0.16853 0.48393 0.0
H548 H 0.49866 0.15369 0.56115 0.0
H549 H 0.52181 0.10065 0.21337 0.0
H550 H 0.54566 0.08 0.24937 0.0
H551 H 0.55165 0.1127 0.23951 0.0
C552 C 0.3661 0.52995 0.26287 0.0
C553 C 0.37147 0.52034 0.18137 0.0
C554 C 0.38431 0.53112 0.3286 0.0
C555 C 0.40873 0.52238 0.3138 0.0
C556 C 0.4139 0.51189 0.23264 0.0
C557 C 0.39547 0.51103 0.16839 0.0
C558 C 0.37756 0.54236 0.4135 0.0
C559 C 0.43933 0.50225 0.21221 0.0
C560 C 0.46335 0.54784 0.44832 0.0
C561 C 0.46886 0.52807 0.5034 0.0
C562 C 0.44416 0.5462 0.38664 0.0
C563 C 0.42903 0.52465 0.38149 0.0
C564 C 0.43418 0.50491 0.43897 0.0
C565 C 0.45422 0.50661 0.49729 0.0
C566 C 0.44038 0.56746 0.32566 0.0
C567 C 0.41841 0.48187 0.43905 0.0
H568 H 0.3479 0.53749 0.27432 0.0
H569 H 0.40007 0.50335 0.10649 0.0
H570 H 0.3824 0.52952 0.46622 0.0
H571 H 0.38834 0.5596 0.42343 0.0
H572 H 0.3576 0.54681 0.41776 0.0
H573 H 0.44008 0.4932 0.14866 0.0
H574 H 0.45281 0.51776 0.21293 0.0
H575 H 0.44527 0.48875 0.26137 0.0
H576 H 0.47458 0.56444 0.4519 0.0
H577 H 0.45811 0.49129 0.53986 0.0
H578 H 0.42137 0.57474 0.33218 0.0
H579 H 0.44249 0.56092 0.25888 0.0
H580 H 0.45371 0.58279 0.33679 0.0
H581 H 0.39867 0.48686 0.44618 0.0
H582 H 0.4235 0.46896 0.49137 0.0
H583 H 0.42036 0.47212 0.37713 0.0
C584 C 0.0308 0.36932 0.27956 0.0
C585 C 0.03725 0.37426 0.19416 0.0
C586 C 0.03103 0.38825 0.34259 0.0
C587 C 0.03793 0.41289 0.3205 0.0
C588 C 0.04548 0.41762 0.23518 0.0
C589 C 0.04508 0.39845 0.17386 0.0
C590 C 0.02299 0.38204 0.43236 0.0
C591 C 0.05304 0.4433 0.20734 0.0
C592 C 1.0124 0.46733 0.45258 0.0
C593 C 0.033 0.47504 0.50017 0.0
C594 C 1.01381 0.44743 0.39404 0.0
C595 C 0.03613 0.43398 0.38461 0.0
C596 C 0.05687 0.44144 0.43425 0.0
C597 C 0.05519 0.46205 0.4899 0.0
C598 C 0.99136 0.441 0.34136 0.0
C599 C 0.08083 0.42745 0.42923 0.0
H600 H 0.02448 0.35091 0.29633 0.0
H601 H 0.05026 0.40261 0.10848 0.0
H602 H 0.03679 0.38893 0.47912 0.0
H603 H 1.00528 0.3914 0.44653 0.0
H604 H 0.02043 0.36184 0.44187 0.0
H605 H 0.05946 0.44384 0.13994 0.0
H606 H 0.03718 0.45605 0.2141 0.0
H607 H 0.06806 0.45041 0.24887 0.0
H608 H 0.99517 0.47723 0.46009 0.0
H609 H 0.07109 0.46759 0.52745 0.0
H610 H 0.98561 0.42166 0.35436 0.0
H611 H 0.99592 0.44227 0.27235 0.0
H612 H 0.97554 0.4534 0.35478 0.0
H613 H 0.07753 0.40759 0.44319 0.0
H614 H 0.09485 0.43465 0.47478 0.0
H615 H 0.08845 0.42866 0.36358 0.0
C616 C 0.89449 0.99796 0.15726 0.0
C617 C 0.87399 1.01387 0.163 0.0
C618 C 0.91248 1.00034 0.09207 0.0
C619 C 0.91044 1.01922 0.02936 0.0
C620 C 0.88947 0.03499 0.03323 0.0
C621 C 0.87158 0.0321 0.09924 0.0
C622 C 0.93415 0.9829 0.0919 0.0
C623 C 0.88612 0.0553 0.96821 0.0
C624 C 0.96945 0.04211 0.91353 0.0
C625 C 0.97001 0.02762 0.83907 0.0
C626 C 0.9507 0.0392 0.97614 0.0
C627 C 0.93057 0.02275 0.96188 0.0
C628 C 0.93033 1.0091 0.8842 0.0
C629 C 0.95029 1.01108 0.82563 0.0
C630 C 0.9528 0.05337 0.05879 0.0
C631 C 0.90894 0.99229 0.86274 0.0
H632 H 0.8966 0.9835 0.20466 0.0
H633 H 0.85608 0.04465 0.10235 0.0
H634 H 0.93589 0.97382 0.02871 0.0
H635 H 0.95145 0.99346 0.10328 0.0
H636 H 0.93246 0.96832 0.14165 0.0
H637 H 0.86829 0.06509 0.97619 0.0
H638 H 0.90134 0.06897 0.97412 0.0
H639 H 0.887 0.04755 0.90266 0.0
H640 H 0.98399 0.05557 0.92371 0.0
H641 H 0.95033 0.99978 0.76856 0.0
H642 H 0.95336 0.04023 0.11332 0.0
H643 H 0.93636 0.06522 0.06775 0.0
H644 H 0.96961 0.06518 0.06106 0.0
H645 H 0.90867 0.9763 0.90717 0.0
H646 H 0.90999 0.98523 0.7962 0.0
H647 H 0.89124 1.00226 0.87082 0.0
C648 C 0.52853 0.90014 0.1699 0.0
C649 C 0.53995 0.87697 0.1581 0.0
C650 C 0.52737 0.91809 0.10439 0.0
C651 C 0.53691 0.91285 0.02208 0.0
C652 C 0.54744 0.88915 0.00792 0.0
C653 C 0.54905 0.8717 0.07575 0.0
C654 C 0.5162 0.94298 0.1241 0.0
C655 C 0.55729 0.88233 0.92101 0.0
C656 C 0.51205 0.95406 0.84065 0.0
C657 C 0.5315 0.97073 0.82627 0.0
C658 C 0.51396 0.93463 0.90091 0.0
C659 C 0.53557 0.93218 0.95156 0.0
C660 C 0.55518 0.94936 0.93827 0.0
C661 C 0.55299 0.96819 0.87555 0.0
C662 C 0.49265 0.91681 0.91086 0.0
C663 C 0.57824 0.9483 0.99208 0.0
H664 H 0.52048 0.90453 0.2313 0.0
H665 H 0.55799 0.85414 0.06448 0.0
H666 H 0.52967 0.9579 0.10942 0.0
H667 H 0.49976 0.94608 0.08332 0.0
H668 H 0.51057 0.94467 0.19209 0.0
H669 H 0.56368 0.86286 0.91838 0.0
H670 H 0.5428 0.88504 0.8718 0.0
H671 H 0.57297 0.89466 0.90412 0.0
H672 H 0.49508 0.95647 0.80561 0.0
H673 H 0.56795 0.98129 0.86618 0.0
H674 H 0.48547 0.91741 0.97717 0.0
H675 H 0.49908 0.89766 0.89902 0.0
H676 H 0.47727 0.92093 0.86627 0.0
H677 H 0.57341 0.95094 0.06036 0.0
H678 H 0.59197 0.96265 0.97343 0.0
H679 H 0.58693 0.92985 0.9863 0.0
C680 C 0.6594 0.5347 0.1701 0.0
C681 C 0.68193 0.54732 0.15621 0.0
C682 C 0.6403 0.53417 0.10865 0.0
C683 C 0.64356 0.54584 0.02827 0.0
C684 C 0.66664 0.55763 0.01163 0.0
C685 C 0.68539 0.55836 0.07548 0.0
C686 C 0.61627 0.52142 0.13085 0.0
C687 C 0.67137 0.56992 0.92662 0.0
C688 C 0.60034 0.52335 0.84833 0.0
C689 C 0.58205 0.54178 0.84451 0.0
C690 C 0.62064 0.52488 0.90508 0.0
C691 C 0.62291 0.54514 0.96211 0.0
C692 C 0.60445 0.56377 0.95927 0.0
C693 C 0.58445 0.56194 0.90075 0.0
C694 C 0.63957 0.5045 0.90461 0.0
C695 C 0.60559 0.58555 0.01924 0.0
H696 H 0.65641 0.52533 0.23046 0.0
H697 H 0.70245 0.56823 0.0629 0.0
H698 H 0.60084 0.53479 0.1268 0.0
H699 H 0.61238 0.50645 0.08432 0.0
H700 H 0.61646 0.51332 0.19614 0.0
H701 H 0.69043 0.57743 0.92162 0.0
H702 H 0.66834 0.55651 0.87403 0.0
H703 H 0.65811 0.58525 0.91715 0.0
H704 H 0.59879 0.50742 0.80675 0.0
H705 H 0.57061 0.57634 0.89925 0.0
H706 H 0.63938 0.49471 0.96693 0.0
H707 H 0.65834 0.51241 0.896 0.0
H708 H 0.63615 0.49078 0.85314 0.0
H709 H 0.60408 0.57899 0.08626 0.0
H710 H 0.59062 0.59907 1.00699 0.0
H711 H 0.62365 0.59513 0.01292 0.0
C712 C 0.02974 0.66201 0.17653 0.0
C713 C 1.01569 0.68387 0.16946 0.0
C714 C 0.0296 0.64347 0.1129 0.0
C715 C 1.01581 0.64671 0.03676 0.0
C716 C 1.00243 0.66915 0.02678 0.0
C717 C 1.00236 0.68725 0.09294 0.0
C718 C 0.04403 0.62005 0.12823 0.0
C719 C 0.98789 0.67393 0.94633 0.0
C720 C 0.03644 0.60591 0.84768 0.0
C721 C 1.01869 0.58676 0.8462 0.0
C722 C 0.03506 0.62586 0.90607 0.0
C723 C 1.01593 0.62671 0.96803 0.0
C724 C 0.99798 0.60741 0.96734 0.0
C725 C 0.99931 0.5881 0.90602 0.0
C726 C 0.05436 0.64602 0.90173 0.0
C727 C 0.97758 0.60682 0.03292 0.0
H728 H 0.04093 0.65911 0.23295 0.0
H729 H 0.99134 0.70377 0.08536 0.0
H730 H 0.03153 0.60378 0.12414 0.0
H731 H 0.05832 0.61786 0.07813 0.0
H732 H 0.05322 0.61988 0.19167 0.0
H733 H 0.97955 0.69266 0.94559 0.0
H734 H 1.0 0.67198 0.88957 0.0
H735 H 0.97292 0.66 0.94017 0.0
H736 H 0.05159 0.60543 0.80249 0.0
H737 H 0.9852 0.57384 0.90568 0.0
H738 H 0.06571 0.64583 0.9607 0.0
H739 H 0.04536 0.66438 0.89795 0.0
H740 H 0.06681 0.64391 0.84583 0.0
H741 H 0.98565 0.60518 0.09787 0.0
H742 H 0.96459 0.59115 0.0228 0.0
H743 H 0.96703 0.62434 0.03099 0.0
C744 C 0.06889 0.21358 0.16815 0.0
C745 C 0.07578 0.23845 0.18144 0.0
C746 C 0.06185 0.1984 0.23538 0.0
C747 C 0.06187 0.20814 0.31889 0.0
C748 C 0.07212 0.23179 0.33495 0.0
C749 C 0.07883 0.2469 0.26554 0.0
C750 C 0.05104 0.17319 0.21474 0.0
C751 C 0.07387 0.24193 0.4244 0.0
C752 C 1.00429 0.18484 0.42329 0.0
C753 C 1.01265 0.16243 0.45656 0.0
C754 C 0.02077 0.20139 0.38494 0.0
C755 C 0.04629 0.19561 0.38285 0.0
C756 C 0.05505 0.17412 0.4238 0.0
C757 C 0.038 0.15725 0.45725 0.0
C758 C 1.0105 0.2237 0.33909 0.0
C759 C 0.08219 0.168 0.42713 0.0
H760 H 0.06611 0.20636 0.10442 0.0
H761 H 0.08487 0.26572 0.27704 0.0
H762 H 0.05954 0.15871 0.25506 0.0
H763 H 0.03092 0.17315 0.22802 0.0
H764 H 0.05377 0.16795 0.14677 0.0
H765 H 0.08831 0.25652 0.42896 0.0
H766 H 0.05596 0.25028 0.44252 0.0
H767 H 0.07802 0.22705 0.47109 0.0
H768 H 0.98468 0.18872 0.42248 0.0
H769 H 0.04454 0.1401 0.48488 0.0
H770 H 1.01275 0.22131 0.26908 0.0
H771 H 0.0207 0.24064 0.35773 0.0
H772 H 0.99058 0.2265 0.35278 0.0
H773 H 0.08731 0.15706 0.37 0.0
H774 H 0.08654 0.15669 0.48444 0.0
H775 H 0.09376 0.18499 0.42804 0.0
C776 C 0.3292 0.09688 0.20253 0.0
C777 C 0.31364 0.07614 0.20174 0.0
C778 C 0.35155 0.09619 0.24735 0.0
C779 C 0.35782 0.07445 0.29265 0.0
C780 C 0.3395 0.0562 0.30786 0.0
C781 C 0.31728 0.05738 0.26205 0.0
C782 C 0.37019 0.1165 0.23208 0.0
C783 C 0.34511 0.03297 0.35741 0.0
C784 C 0.41999 0.05024 0.22339 0.0
C785 C 0.43441 0.05455 0.29557 0.0
C786 C 0.39491 0.056 0.22314 0.0
C787 C 0.38418 0.06725 0.29617 0.0
C788 C 0.39882 0.07199 0.36921 0.0
C789 C 0.42383 0.0652 0.3685 0.0
C790 C 0.38025 0.05024 0.14346 0.0
C791 C 0.38816 0.08424 0.44743 0.0
H792 H 0.32602 0.11166 0.15697 0.0
H793 H 0.30495 0.04152 0.26254 0.0
H794 H 0.38235 0.11913 0.28836 0.0
H795 H 0.38198 0.11144 0.17684 0.0
H796 H 0.36097 0.13428 0.21692 0.0
H797 H 0.32796 0.02455 0.38366 0.0
H798 H 0.35374 1.01933 0.31383 0.0
H799 H 0.35815 0.03657 0.41055 0.0
H800 H 0.42821 0.04157 0.16783 0.0
H801 H 0.43515 0.06821 0.42471 0.0
H802 H 0.37846 0.06737 0.10502 0.0
H803 H 0.36154 0.04321 0.15872 0.0
H804 H 0.3895 0.03613 0.10344 0.0
H805 H 0.38114 0.10284 0.43054 0.0
H806 H 0.40199 0.08622 0.49943 0.0
H807 H 0.37223 0.07341 0.47183 0.0
C808 C 0.49656 0.30446 0.2686 0.0
C809 C 0.47795 0.31056 0.20997 0.0
C810 C 0.50602 0.32259 0.32277 0.0
C811 C 0.49517 0.34626 0.32133 0.0
C812 C 0.47206 0.34974 0.28151 0.0
C813 C 0.46353 0.33158 0.22502 0.0
C814 C 0.53008 0.31779 0.36862 0.0
C815 C 0.45856 0.37396 0.28785 0.0
C816 C 0.53248 0.39373 0.44176 0.0
C817 C 0.5464 0.40423 0.37531 0.0
C818 C 0.51471 0.37551 0.42508 0.0
C819 C 0.51097 0.36777 0.3401 0.0
C820 C 0.52475 0.37864 0.27247 0.0
C821 C 0.54228 0.39684 0.29112 0.0
C822 C 0.50023 0.36461 0.49862 0.0
C823 C 0.52154 0.37066 0.18052 0.0
H824 H 0.50702 0.28758 0.26055 0.0
H825 H 0.44822 0.3357 0.18278 0.0
H826 H 0.54522 0.32806 0.3362 0.0
H827 H 0.52912 0.32445 0.43548 0.0
H828 H 0.53488 0.29784 0.36934 0.0
H829 H 0.43854 0.37147 0.27488 0.0
H830 H 0.46101 0.38225 0.35218 0.0
H831 H 0.46609 0.3871 0.23991 0.0
H832 H 0.53579 0.39959 0.50687 0.0
H833 H 0.55269 0.40545 0.23981 0.0
H834 H 0.49039 0.34722 0.48272 0.0
H835 H 0.48614 0.37815 0.51932 0.0
H836 H 0.51271 0.36077 0.55314 0.0
H837 H 0.52447 0.35045 0.17466 0.0
H838 H 0.53455 0.38027 0.13661 0.0
H839 H 0.50248 0.37468 0.15895 0.0
C840 C 0.24153 0.49869 0.2836 0.0
C841 C 0.23427 0.50756 0.20351 0.0
C842 C 0.22862 0.50582 0.35722 0.0
C843 C 0.20851 0.52228 0.34904 0.0
C844 C 0.20107 0.53095 0.26786 0.0
C845 C 0.21422 0.52367 0.19649 0.0
C846 C 0.23653 0.49609 0.44326 0.0
C847 C 0.1794 0.54823 0.25583 0.0
C848 C 0.15428 0.53383 0.48614 0.0
C849 C 0.15956 0.55782 0.51501 0.0
C850 C 0.17189 0.52009 0.44244 0.0
C851 C 0.19487 0.53117 0.42383 0.0
C852 C 0.20109 0.55454 0.45856 0.0
C853 C 0.18331 0.56758 0.50483 0.0
C854 C 0.16479 0.49503 0.40732 0.0
C855 C 0.2252 0.56718 0.43715 0.0
H856 H 0.2572 0.48637 0.28842 0.0
H857 H 0.20904 0.53108 0.1346 0.0
H858 H 0.24385 0.5115 0.48261 0.0
H859 H 0.22047 0.48817 0.47792 0.0
H860 H 0.25102 0.48172 0.43769 0.0
H861 H 0.17654 0.55342 0.18782 0.0
H862 H 0.16221 0.53934 0.27928 0.0
H863 H 0.18228 0.5654 0.29321 0.0
H864 H 0.13604 0.52599 0.49568 0.0
H865 H 0.18733 0.58618 0.52656 0.0
H866 H 0.18046 0.48196 0.41182 0.0
H867 H 0.15985 0.49686 0.33879 0.0
H868 H 0.14865 0.487 0.44142 0.0
H869 H 0.2291 0.5829 0.48077 0.0
H870 H 0.22431 0.57443 0.37082 0.0
H871 H 0.24075 0.55395 0.44022 0.0
C872 C 0.98736 0.80656 0.07253 0.0
C873 C 0.97376 0.81354 0.14484 0.0
C874 C 0.99255 0.82393 0.00879 0.0
C875 C 0.98358 0.84825 0.01876 0.0
C876 C 0.96432 0.85279 0.0774 0.0
C877 C 0.9595 0.83512 0.14087 0.0
C878 C 1.01193 0.81786 0.94294 0.0
C879 C 0.95262 0.87792 0.08426 0.0
C880 C 0.03776 0.8917 0.03546 0.0
C881 C 0.03867 0.90171 0.95357 0.0
C882 C 1.0191 0.87522 0.05839 0.0
C883 C 1.0007 0.8687 0.99758 0.0
C884 C 1.00078 0.8798 0.91584 0.0
C885 C 0.02004 0.89602 0.89426 0.0
C886 C 0.01956 0.86465 0.14773 0.0
C887 C 0.98107 0.87433 0.8504 0.0
H888 H 0.9976 0.78939 0.0727 0.0
H889 H 0.94776 0.83996 0.19433 0.0
H890 H 1.00756 0.82668 0.88087 0.0
H891 H 0.0301 0.82508 0.96467 0.0
H892 H 1.0136 0.7976 0.93331 0.0
H893 H 0.93366 0.87647 0.11091 0.0
H894 H 0.96374 0.88964 0.12805 0.0
H895 H 0.95187 0.88723 0.02107 0.0
H896 H 0.05166 0.89693 0.08202 0.0
H897 H 0.02063 0.90408 0.83079 0.0
H898 H 0.0206 0.84421 0.14545 0.0
H899 H 1.0025 0.86988 0.18216 0.0
H900 H 0.03554 0.87152 0.18534 0.0
H901 H 0.98729 0.85895 0.80911 0.0
H902 H 0.97787 0.89063 0.80862 0.0
H903 H 0.96333 0.86885 0.88047 0.0
C904 C 0.74694 0.02767 0.07893 0.0
C905 C 0.74188 1.00407 0.11153 0.0
C906 C 0.72916 0.04008 0.03112 0.0
C907 C 0.70679 0.02775 0.01221 0.0
C908 C 0.70439 1.00207 0.02786 0.0
C909 C 0.72192 0.99047 0.07962 0.0
C910 C 0.73237 0.06755 0.01731 0.0
C911 C 0.68145 0.98795 1.00289 0.0
C912 C 0.64926 0.06315 0.06764 0.0
C913 C 0.64086 0.07005 0.98683 0.0
C914 C 0.67084 0.04939 0.07647 0.0
C915 C 0.68431 0.04267 1.0023 0.0
C916 C 0.67645 0.0505 0.92081 0.0
C917 C 0.65451 0.06394 0.91381 0.0
C918 C 0.67865 0.04129 0.16501 0.0
C919 C 0.69068 0.0439 0.8413 0.0
H920 H 0.76262 0.03805 0.10322 0.0
H921 H 0.71839 0.972 0.10386 0.0
H922 H 0.72329 0.07387 0.95783 0.0
H923 H 0.72373 0.07752 0.0715 0.0
H924 H 0.7522 0.07282 0.01499 0.0
H925 H 0.68525 0.96784 0.99755 0.0
H926 H 0.66709 0.99052 0.05264 0.0
H927 H 0.67395 0.99474 0.94123 0.0
H928 H 0.63819 0.06735 0.12349 0.0
H929 H 0.64756 0.06899 0.85122 0.0
H930 H 0.69836 0.04582 0.17638 0.0
H931 H 0.67648 1.02096 0.17112 0.0
H932 H 0.66748 0.05015 0.21589 0.0
H933 H 0.71053 0.04843 0.84865 0.0
H934 H 0.68358 0.05374 0.78414 0.0
H935 H 0.68951 0.02366 0.83076 0.0
C936 C 0.58753 0.72272 0.12223 0.0
C937 C 0.57238 0.74366 0.12636 0.0
C938 C 0.58248 0.70404 0.06278 0.0
C939 C 0.56207 0.70686 0.00753 0.0
C940 C 0.55109 0.7304 0.99802 0.0
C941 C 0.55642 0.74875 0.05823 0.0
C942 C 0.59583 0.67975 0.07037 0.0
C943 C 0.53018 0.73461 0.93609 0.0
C944 C 0.52916 0.65671 0.88263 0.0
C945 C 0.50981 0.65128 0.93906 0.0
C946 C 0.54763 0.67373 0.90537 0.0
C947 C 0.54677 0.68494 0.98688 0.0
C948 C 0.52863 0.67735 0.0471 0.0
C949 C 0.51023 0.66077 0.02191 0.0
C950 C 0.56687 0.68072 0.83998 0.0
C951 C 0.5276 0.68782 0.13669 0.0
H952 H 0.60069 0.71927 0.17304 0.0
H953 H 0.54518 0.76528 0.05946 0.0
H954 H 0.58605 0.6678 0.11724 0.0
H955 H 0.59631 0.66989 0.00827 0.0
H956 H 0.61501 0.68259 0.09359 0.0
H957 H 0.52732 0.75462 0.92367 0.0
H958 H 0.53373 0.72513 0.87457 0.0
H959 H 0.51288 0.72689 0.96347 0.0
H960 H 0.52917 0.64866 0.81938 0.0
H961 H 0.49564 0.65579 0.06622 0.0
H962 H 0.58418 0.68745 0.87001 0.0
H963 H 0.55951 0.6957 0.79889 0.0
H964 H 0.5712 0.66475 0.7981 0.0
H965 H 0.54557 0.6852 0.16932 0.0
H966 H 0.51304 0.67892 0.17631 0.0
H967 H 0.52384 0.70795 0.13413 0.0
C968 C 0.81389 0.56757 0.0543 0.0
C969 C 0.81815 0.58126 0.1287 0.0
C970 C 0.83306 0.56399 0.99566 0.0
C971 C 0.85673 0.57382 0.01442 0.0
C972 C 0.85917 0.59219 0.07788 0.0
C973 C 0.83934 0.59627 0.13345 0.0
C974 C 0.8293 0.54572 0.92407 0.0
C975 C 0.88378 0.60389 0.09823 0.0
C976 C 0.89882 0.51907 0.00923 0.0
C977 C 0.90992 0.52192 0.92943 0.0
C978 C 0.88352 0.53745 0.04201 0.0
C979 C 0.87842 0.55866 0.99149 0.0
C980 C 0.89152 0.56268 0.91457 0.0
C981 C 0.90769 0.54435 0.88536 0.0
C982 C 0.87131 0.5331 0.12765 0.0
C983 C 0.88699 0.58506 0.85926 0.0
H984 H 0.79717 0.55662 0.04827 0.0
H985 H 0.84213 0.60791 0.18903 0.0
H986 H 0.84042 0.55093 0.86727 0.0
H987 H 0.83534 0.52713 0.94554 0.0
H988 H 0.80955 0.54445 0.90535 0.0
H989 H 0.89341 0.5924 0.14662 0.0
H990 H 0.89576 0.60519 0.04095 0.0
H991 H 0.88131 0.62264 0.12566 0.0
H992 H 0.90127 0.50193 0.04422 0.0
H993 H 0.91713 0.5469 0.82517 0.0
H994 H 0.85137 0.5292 0.11837 0.0
H995 H 0.87303 0.54977 0.1684 0.0
H996 H 0.87955 0.51724 0.1625 0.0
H997 H 0.87146 0.58106 0.81512 0.0
H998 H 0.90347 0.58957 0.81986 0.0
H999 H 0.88194 0.60148 0.89771 0.0
C1000 C 0.02739 0.2189 0.90514 0.0
C1001 C 0.05175 0.22803 0.90899 0.0
C1002 C 0.02206 0.19483 0.87359 0.0
C1003 C 0.04151 0.17887 0.84816 0.0
C1004 C 0.0659 0.18845 0.84791 0.0
C1005 C 0.07056 0.21284 0.87587 0.0
C1006 C 0.99558 0.18629 0.86841 0.0
C1007 C 0.08729 0.17272 0.81923 0.0
C1008 C 0.03232 0.10802 0.84267 0.0
C1009 C 0.03007 0.10304 0.75489 0.0
C1010 C 0.03542 0.13242 0.87406 0.0
C1011 C 0.03646 0.15275 0.81654 0.0
C1012 C 0.03412 0.14781 0.72789 0.0
C1013 C 0.03058 0.12325 0.69827 0.0
C1014 C 0.03857 0.13633 0.96884 0.0
C1015 C 0.03624 0.16824 0.66285 0.0
H1016 H 1.01257 0.23009 0.93055 0.0
H1017 H 0.08942 0.21961 0.87628 0.0
H1018 H 0.99138 0.18002 0.80241 0.0
H1019 H 0.99265 0.17024 0.91152 0.0
H1020 H 0.98241 0.2011 0.88615 0.0
H1021 H 0.10538 0.18195 0.82991 0.0
H1022 H 0.08716 0.15481 0.85398 0.0
H1023 H 0.08542 0.1686 0.7501 0.0
H1024 H 0.03144 0.09276 0.88713 0.0
H1025 H 0.02912 0.11982 0.63025 0.0
H1026 H 0.02591 0.15094 0.99185 0.0
H1027 H 0.05771 0.14271 0.98192 0.0
H1028 H 0.03506 0.11918 1.00603 0.0
H1029 H 1.01895 0.16912 0.62581 0.0
H1030 H 0.05178 0.16408 0.61926 0.0
H1031 H 0.03949 0.18687 0.6898 0.0
C1032 C 0.33744 0.02553 0.88386 0.0
C1033 C 0.33024 0.04936 0.90922 0.0
C1034 C 0.36021 1.02142 0.84082 0.0
C1035 C 0.37659 0.04149 0.82354 0.0
C1036 C 0.36873 0.06566 0.84504 0.0
C1037 C 0.3458 0.06926 0.88617 0.0
C1038 C 0.36734 0.99536 0.81788 0.0
C1039 C 0.38533 0.08774 0.83007 0.0
C1040 C 0.44674 0.03015 0.81986 0.0
C1041 C 0.45302 0.03287 0.73302 0.0
C1042 C 0.42224 0.03279 0.84941 0.0
C1043 C 0.40274 0.03725 0.79086 0.0
C1044 C 0.40872 0.03889 0.70244 0.0
C1045 C 0.43365 0.03698 0.67482 0.0
C1046 C 0.41739 0.03149 0.94424 0.0
C1047 C 0.38882 0.04308 0.63676 0.0
H1048 H 0.32601 1.0099 0.90217 0.0
H1049 H 0.34068 0.08777 0.90567 0.0
H1050 H 0.37439 0.99463 0.75134 0.0
H1051 H 0.38244 0.9891 0.86052 0.0
H1052 H 0.35159 0.98228 0.82428 0.0
H1053 H 0.37606 0.10547 0.84535 0.0
H1054 H 0.40207 0.08613 0.87054 0.0
H1055 H 0.39153 0.0883 0.76258 0.0
H1056 H 0.46113 0.02612 0.86579 0.0
H1057 H 0.43795 0.03884 0.60747 0.0
H1058 H 0.4033 1.01712 0.95823 0.0
H1059 H 0.40995 0.04945 0.96647 0.0
H1060 H 0.43431 0.02731 0.98161 0.0
H1061 H 0.39553 0.03962 0.57081 0.0
H1062 H 0.38238 0.06248 0.64067 0.0
H1063 H 0.37268 0.03092 0.64939 0.0
C1064 C 0.48661 0.35374 0.90986 0.0
C1065 C 0.50637 0.33761 0.92837 0.0
C1066 C 0.49028 0.37785 0.87687 0.0
C1067 C 0.51438 0.38643 0.85714 0.0
C1068 C 0.53436 0.36967 0.86939 0.0
C1069 C 0.53022 0.34577 0.90584 0.0
C1070 C 0.46823 0.39458 0.86655 0.0
C1071 C 0.56028 0.3773 0.8461 0.0
C1072 C 0.51706 0.44385 0.7085 0.0
C1073 C 0.52224 0.46326 0.76501 0.0
C1074 C 0.51518 0.419 0.7371 0.0
C1075 C 0.51831 0.41291 0.82485 0.0
C1076 C 0.52366 0.43262 0.88217 0.0
C1077 C 0.5261 0.45725 0.85138 0.0
C1078 C 0.51023 0.39919 0.67234 0.0
C1079 C 0.52605 0.42783 0.97676 0.0
H1080 H 0.46802 0.34791 0.9261 0.0
H1081 H 0.54579 0.33396 0.92012 0.0
H1082 H 0.4708 0.4115 0.9057 0.0
H1083 H 0.46649 0.40056 0.79902 0.0
H1084 H 0.4507 0.38545 0.88605 0.0
H1085 H 0.57349 0.36175 0.85176 0.0
H1086 H 0.56075 0.38446 0.77961 0.0
H1087 H 0.56648 0.3925 0.88861 0.0
H1088 H 0.51456 0.44812 0.64135 0.0
H1089 H 0.53092 0.47191 0.89524 0.0
H1090 H 0.49588 0.38603 0.69481 0.0
H1091 H 0.52746 0.38858 0.66216 0.0
H1092 H 0.50417 0.40725 0.61065 0.0
H1093 H 0.53154 0.44468 0.01263 0.0
H1094 H 0.53987 0.41317 0.98889 0.0
H1095 H 0.50811 0.42109 1.00218 0.0
C1096 C 0.20553 0.48635 0.89447 0.0
C1097 C 0.22231 0.50619 0.9049 0.0
C1098 C 0.1812 0.48979 0.86345 0.0
C1099 C 0.17321 0.51356 0.83694 0.0
C1100 C 0.1907 0.5333 0.84022 0.0
C1101 C 0.21468 0.52954 0.8753 0.0
C1102 C 0.16347 0.46816 0.86509 0.0
C1103 C 0.18372 0.55872 0.8094 0.0
C1104 C 0.11478 0.51577 0.69386 0.0
C1105 C 0.09646 0.52457 0.74965 0.0
C1106 C 0.13956 0.51223 0.72129 0.0
C1107 C 0.14664 0.51761 0.80673 0.0
C1108 C 0.12798 0.52603 0.86366 0.0
C1109 C 0.10346 0.52981 0.8342 0.0
C1110 C 0.15833 0.50265 0.65863 0.0
C1111 C 0.1337 0.53023 0.95682 0.0
H1112 H 0.21078 0.46831 0.9184 0.0
H1113 H 0.22687 0.54524 0.88456 0.0
H1114 H 0.14809 0.47218 0.90974 0.0
H1115 H 0.15516 0.46517 0.80123 0.0
H1116 H 0.17252 0.45075 0.88564 0.0
H1117 H 0.19972 0.57162 0.80863 0.0
H1118 H 0.17594 0.55746 0.744 0.0
H1119 H 0.16921 0.56652 0.85133 0.0
H1120 H 0.1097 0.51157 0.62846 0.0
H1121 H 0.08956 0.53653 0.87805 0.0
H1122 H 0.16971 0.48779 0.68684 0.0
H1123 H 0.17124 0.51785 0.64163 0.0
H1124 H 0.14946 0.49514 0.6003 0.0
H1125 H 0.14147 0.51312 0.98516 0.0
H1126 H 0.11708 0.53556 0.99395 0.0
H1127 H 0.14785 0.54497 0.96357 0.0
C1128 C 1.00216 0.84076 0.49501 0.0
C1129 C 1.0136 0.83535 0.41659 0.0
C1130 C 1.00544 0.86404 0.53598 0.0
C1131 C 0.01997 0.88297 0.49707 0.0
C1132 C 0.03228 0.87717 0.41952 0.0
C1133 C 0.02913 0.85362 0.38119 0.0
C1134 C 0.99227 0.86876 0.61914 0.0
C1135 C 0.04747 0.89645 0.37339 0.0
C1136 C 1.00292 0.951 0.54279 0.0
C1137 C 0.02298 0.95995 0.59108 0.0
C1138 C 1.002 0.9265 0.511 0.0
C1139 C 0.02068 0.90928 0.53284 0.0
C1140 C 0.04018 0.91764 0.58674 0.0
C1141 C 0.04145 0.94281 0.61309 0.0
C1142 C 0.98123 0.91932 0.45158 0.0
C1143 C 0.05971 0.89992 0.61709 0.0
H1144 H 0.98959 0.82725 0.52224 0.0
H1145 H 0.03777 0.84991 0.32019 0.0
H1146 H 1.00479 0.8781 0.66517 0.0
H1147 H 0.97638 0.88121 0.6079 0.0
H1148 H 0.98522 0.85138 0.64832 0.0
H1149 H 0.05801 0.88851 0.31916 0.0
H1150 H 0.03507 0.91103 0.34823 0.0
H1151 H 0.06064 0.90549 0.4178 0.0
H1152 H 0.98785 0.96324 0.52843 0.0
H1153 H 0.05677 0.94896 0.65234 0.0
H1154 H 0.97146 0.9027 0.47593 0.0
H1155 H 0.98892 0.91456 0.38798 0.0
H1156 H 0.96758 0.93438 0.44328 0.0
H1157 H 0.05088 0.88349 0.64696 0.0
H1158 H 0.07242 0.90854 0.66424 0.0
H1159 H 0.07067 0.8933 0.56192 0.0
C1160 C 0.70696 0.98833 0.43451 0.0
C1161 C 0.72198 1.00881 0.41383 0.0
C1162 C 0.68324 0.99102 0.47178 0.0
C1163 C 0.67365 1.0149 0.48924 0.0
C1164 C 0.68918 0.03565 0.47217 0.0
C1165 C 0.71287 0.0324 0.4344 0.0
C1166 C 0.66775 0.9682 0.48726 0.0
C1167 C 0.68025 0.06149 0.4899 0.0
C1168 C 0.60266 0.02358 0.48968 0.0
C1169 C 0.59647 0.02298 0.57719 0.0
C1170 C 0.62736 1.021 0.4607 0.0
C1171 C 0.64701 1.01812 0.52005 0.0
C1172 C 0.6409 1.0178 0.60847 0.0
C1173 C 0.61599 1.02025 0.63576 0.0
C1174 C 0.63236 1.02127 0.36586 0.0
C1175 C 0.6607 1.0144 0.67477 0.0
H1176 H 0.71322 0.97006 0.41646 0.0
H1177 H 0.72366 0.04848 0.41614 0.0
H1178 H 0.66035 0.96818 0.55332 0.0
H1179 H 0.65171 0.96821 0.44314 0.0
H1180 H 0.67835 0.95092 0.47719 0.0
H1181 H 0.69514 0.07549 0.48206 0.0
H1182 H 0.665 0.06609 0.44539 0.0
H1183 H 0.67281 0.06272 0.55583 0.0
H1184 H 0.58808 0.02597 0.44306 0.0
H1185 H 0.61179 1.01972 0.70345 0.0
H1186 H 0.64324 1.0048 0.34728 0.0
H1187 H 0.6435 0.03784 0.34931 0.0
H1188 H 0.6151 1.02158 0.32755 0.0
H1189 H 0.66799 0.99531 0.67128 0.0
H1190 H 0.65356 1.01754 0.74035 0.0
H1191 H 0.67634 0.02719 0.66217 0.0
C1192 C 0.52251 0.71173 0.39808 0.0
C1193 C 0.54239 0.72763 0.4169 0.0
C1194 C 0.51939 0.68874 0.44015 0.0
C1195 C 0.53668 0.68093 0.50281 0.0
C1196 C 0.55619 0.69743 0.52479 0.0
C1197 C 0.55888 0.72036 0.48147 0.0
C1198 C 0.4984 0.67206 0.41326 0.0
C1199 C 0.57537 0.69013 0.58973 0.0
C1200 C 0.52156 0.62401 0.64473 0.0
C1201 C 0.53311 0.60455 0.60055 0.0
C1202 C 0.52244 0.64879 0.61415 0.0
C1203 C 0.53571 0.65471 0.53835 0.0
C1204 C 0.54772 0.63523 0.49458 0.0
C1205 C 0.54604 0.6107 0.52548 0.0
C1206 C 0.50897 0.66865 0.66269 0.0
C1207 C 0.56231 0.64025 0.41414 0.0
H1208 H 0.51018 0.71664 0.34624 0.0
H1209 H 0.57483 0.73193 0.4944 0.0
H1210 H 0.50582 0.65602 0.37761 0.0
H1211 H 0.48856 0.66473 0.47015 0.0
H1212 H 0.48494 0.68176 0.37164 0.0
H1213 H 0.58628 0.7063 0.61218 0.0
H1214 H 0.56664 0.68102 0.64558 0.0
H1215 H 0.58822 0.67664 0.56052 0.0
H1216 H 0.51127 0.61982 0.70228 0.0
H1217 H 0.55512 0.59634 0.49039 0.0
H1218 H 0.49745 0.6798 0.61865 0.0
H1219 H 0.52259 0.68136 0.69247 0.0
H1220 H 0.49692 0.66087 0.71357 0.0
H1221 H 0.55003 0.64793 0.36407 0.0
H1222 H 0.57118 0.62335 0.38867 0.0
H1223 H 0.57687 0.65424 0.42691 0.0
C1224 C 0.84234 0.52495 0.42094 0.0
C1225 C 0.83163 0.54855 0.41742 0.0
C1226 C 0.86539 0.52092 0.46189 0.0
C1227 C 0.87851 0.541 0.49941 0.0
C1228 C 0.86709 0.56456 0.49995 0.0
C1229 C 0.84404 0.56802 0.45912 0.0
C1230 C 0.87632 0.49534 0.46119 0.0
C1231 C 0.87993 0.58654 0.5395 0.0
C1232 C 0.93461 0.53168 0.64961 0.0
C1233 C 0.95486 0.53531 0.59457 0.0
C1234 C 0.90984 0.53254 0.61949 0.0
C1235 C 0.9048 0.53791 0.53228 0.0
C1236 C 0.92515 0.54092 0.47613 0.0
C1237 C 0.94957 0.539 0.50737 0.0
C1238 C 0.88906 0.52797 0.68168 0.0
C1239 C 0.92121 0.54666 0.38267 0.0
H1240 H 0.83347 0.50991 0.38691 0.0
H1241 H 0.83639 0.58647 0.45488 0.0
H1242 H 0.89277 0.49509 0.41899 0.0
H1243 H 0.88254 0.49015 0.52634 0.0
H1244 H 0.86296 0.48123 0.43807 0.0
H1245 H 0.86828 0.60338 0.5385 0.0
H1246 H 0.88499 0.58235 0.60668 0.0
H1247 H 0.8973 0.5905 0.50431 0.0
H1248 H 0.93814 0.52791 0.71628 0.0
H1249 H 0.96459 0.54032 0.46255 0.0
H1250 H 0.87281 0.51932 0.6505 0.0
H1251 H 0.88314 0.54588 0.70913 0.0
H1252 H 0.89505 0.51575 0.73457 0.0
H1253 H 0.90817 0.53321 0.35375 0.0
H1254 H 0.93869 0.54635 0.34567 0.0
H1255 H 0.91288 0.56528 0.37624 0.0
loop_
_geom_bond_atom_site_label_1
_geom_bond_atom_site_label_2
_geom_bond_distance
_geom_bond_site_symmetry_2
_ccdc_geom_bond_type
H0 C1 0.949 . S
C1 H0 0.949 . S
C1 C2 1.395 . S
C1 C3 1.391 . S
C2 C1 1.395 . S
C2 C5 1.390 . S
C3 C1 1.391 . S
C3 C7 1.387 . S
C3 C8 1.491 . S
H4 C5 0.950 . S
C5 C2 1.390 . S
C5 H4 0.950 . S
C5 C6 1.378 . S
C6 C5 1.378 . S
C6 C7 1.409 . S
C7 C3 1.387 . S
C7 C6 1.409 . S
C7 H9 0.951 . S
C8 C3 1.491 . S
C8 C10 1.382 . S
C8 C12 1.404 . S
H9 C7 0.951 . S
C10 C8 1.382 . S
C10 C11 1.390 . S
C10 H15 0.949 . S
C11 C10 1.390 . S
C11 C16 1.399 . S
C12 C8 1.404 . S
C12 H13 0.950 . S
C12 C14 1.375 . S
H13 C12 0.950 . S
C14 C12 1.375 . S
C14 C16 1.382 . S
C14 H18 0.950 . S
H15 C10 0.949 . S
C16 C11 1.399 . S
C16 C14 1.382 . S
C16 H17 0.952 . S
H17 C16 0.952 . S
H18 C14 0.950 . S
H19 C20 0.949 . S
C20 H19 0.949 . S
C20 C21 1.395 . S
C20 C22 1.391 . S
C21 C20 1.395 . S
C21 C24 1.390 . S
C22 C20 1.391 . S
C22 C26 1.387 . S
C22 C27 1.491 . S
H23 C24 0.950 . S
C24 C21 1.390 . S
C24 H23 0.950 . S
C24 C25 1.378 . S
C25 C24 1.378 . S
C25 C26 1.409 . S
C26 C22 1.387 . S
C26 C25 1.409 . S
C26 H28 0.951 . S
C27 C22 1.491 . S
C27 C29 1.382 . S
C27 C31 1.404 . S
H28 C26 0.951 . S
C29 C27 1.382 . S
C29 C30 1.390 . S
C29 H34 0.949 . S
C30 C29 1.390 . S
C30 C35 1.399 . S
C31 C27 1.404 . S
C31 H32 0.950 . S
C31 C33 1.375 . S
H32 C31 0.950 . S
C33 C31 1.375 . S
C33 C35 1.382 . S
C33 H37 0.950 . S
H34 C29 0.949 . S
C35 C30 1.399 . S
C35 C33 1.382 . S
C35 H36 0.952 . S
H36 C35 0.952 . S
H37 C33 0.950 . S
H38 C39 0.949 . S
C39 H38 0.949 . S
C39 C40 1.395 . S
C39 C41 1.391 . S
C40 C39 1.395 . S
C40 C43 1.390 . S
C41 C39 1.391 . S
C41 C45 1.387 . S
C41 C46 1.491 . S
H42 C43 0.950 . S
C43 C40 1.390 . S
C43 H42 0.950 . S
C43 C44 1.378 . S
C44 C43 1.378 . S
C44 C45 1.409 . S
C45 C41 1.387 . S
C45 C44 1.409 . S
C45 H47 0.951 . S
C46 C41 1.491 . S
C46 C48 1.382 . S
C46 C50 1.404 . S
H47 C45 0.951 . S
C48 C46 1.382 . S
C48 C49 1.390 . S
C48 H53 0.949 . S
C49 C48 1.390 . S
C49 C54 1.399 . S
C50 C46 1.404 . S
C50 H51 0.950 . S
C50 C52 1.375 . S
H51 C50 0.950 . S
C52 C50 1.375 . S
C52 C54 1.382 . S
C52 H56 0.950 . S
H53 C48 0.949 . S
C54 C49 1.399 . S
C54 C52 1.382 . S
C54 H55 0.952 . S
H55 C54 0.952 . S
H56 C52 0.950 . S
H57 C58 0.949 . S
C58 H57 0.949 . S
C58 C59 1.395 . S
C58 C60 1.391 . S
C59 C58 1.395 . S
C59 C62 1.390 . S
C60 C58 1.391 . S
C60 C64 1.387 . S
C60 C65 1.491 . S
H61 C62 0.950 . S
C62 C59 1.390 . S
C62 H61 0.950 . S
C62 C63 1.378 . S
C63 C62 1.378 . S
C63 C64 1.409 . S
C64 C60 1.387 . S
C64 C63 1.409 . S
C64 H66 0.951 . S
C65 C60 1.491 . S
C65 C67 1.382 . S
C65 C69 1.404 . S
H66 C64 0.951 . S
C67 C65 1.382 . S
C67 C68 1.390 . S
C67 H72 0.949 . S
C68 C67 1.390 . S
C68 C73 1.399 . S
C69 C65 1.404 . S
C69 H70 0.950 . S
C69 C71 1.375 . S
H70 C69 0.950 . S
C71 C69 1.375 . S
C71 C73 1.382 . S
C71 H75 0.950 . S
H72 C67 0.949 . S
C73 C68 1.399 . S
C73 C71 1.382 . S
C73 H74 0.952 . S
H74 C73 0.952 . S
H75 C71 0.950 . S
H76 C77 0.949 . S
C77 H76 0.949 . S
C77 C78 1.395 . S
C77 C79 1.391 . S
C78 C77 1.395 . S
C78 C81 1.390 1_554 S
C79 C77 1.391 . S
C79 C83 1.387 1_554 S
C79 C84 1.491 . S
H80 C81 0.950 . S
C81 C78 1.390 1_556 S
C81 H80 0.950 . S
C81 C82 1.378 . S
C82 C81 1.378 . S
C82 C83 1.409 . S
C83 C79 1.387 1_556 S
C83 C82 1.409 . S
C83 H85 0.951 . S
C84 C79 1.491 . S
C84 C86 1.382 . S
C84 C88 1.404 1_554 S
H85 C83 0.951 . S
C86 C84 1.382 . S
C86 C87 1.390 . S
C86 H91 0.949 . S
C87 C86 1.390 . S
C87 C92 1.399 . S
C88 C84 1.404 1_556 S
C88 H89 0.950 . S
C88 C90 1.375 . S
H89 C88 0.950 . S
C90 C88 1.375 . S
C90 C92 1.382 1_556 S
C90 H94 0.950 . S
H91 C86 0.949 . S
C92 C87 1.399 . S
C92 C90 1.382 1_554 S
C92 H93 0.952 . S
H93 C92 0.952 . S
H94 C90 0.950 . S
H95 C96 0.949 . S
C96 H95 0.949 . S
C96 C97 1.395 . S
C96 C98 1.391 . S
C97 C96 1.395 . S
C97 C100 1.385 1_554 S
C98 C96 1.391 . S
C98 C102 1.387 1_554 S
C98 C103 1.491 . S
H99 C100 0.950 . S
C100 C97 1.385 1_556 S
C100 H99 0.950 . S
C100 C101 1.383 . S
C101 C100 1.383 . S
C101 C102 1.409 . S
C102 C98 1.387 1_556 S
C102 C101 1.409 . S
C102 H104 0.951 . S
C103 C98 1.491 . S
C103 C105 1.382 . S
C103 C107 1.404 1_554 S
H104 C102 0.951 . S
C105 C103 1.382 . S
C105 C106 1.390 . S
C105 H110 0.949 . S
C106 C105 1.390 . S
C106 C111 1.399 . S
C107 C103 1.404 1_556 S
C107 H108 0.953 . S
C107 C109 1.375 . S
H108 C107 0.953 . S
C109 C107 1.375 . S
C109 C111 1.382 1_556 S
C109 H113 0.950 1_455 S
H110 C105 0.949 . S
C111 C106 1.399 . S
C111 C109 1.382 1_554 S
C111 H112 0.952 . S
H112 C111 0.952 . S
H113 C109 0.950 1_655 S
H114 C115 0.949 . S
C115 H114 0.949 . S
C115 C116 1.395 . S
C115 C117 1.391 . S
C116 C115 1.395 . S
C116 C119 1.379 1_554 S
C117 C115 1.391 . S
C117 C121 1.387 1_554 S
C117 C122 1.491 . S
H118 C119 0.950 . S
C119 C116 1.379 1_556 S
C119 H118 0.950 . S
C119 C120 1.389 . S
C120 C119 1.389 . S
C120 C121 1.409 . S
C121 C117 1.387 1_556 S
C121 C120 1.409 . S
C121 H123 0.951 . S
C122 C117 1.491 . S
C122 C124 1.382 . S
C122 C126 1.404 1_554 S
H123 C121 0.951 . S
C124 C122 1.382 . S
C124 C125 1.390 . S
C124 H129 0.949 . S
C125 C124 1.390 . S
C125 C130 1.399 . S
C126 C122 1.404 1_556 S
C126 H127 0.950 . S
C126 C128 1.375 . S
H127 C126 0.950 . S
C128 C126 1.375 . S
C128 C130 1.382 1_556 S
C128 H132 0.950 1_545 S
H129 C124 0.949 . S
C130 C125 1.399 . S
C130 C128 1.382 1_554 S
C130 H131 0.952 . S
H131 C130 0.952 . S
H132 C128 0.950 1_565 S
H133 C134 0.949 . S
C134 H133 0.949 . S
C134 C135 1.395 . S
C134 C136 1.391 . S
C135 C134 1.395 . S
C135 C138 1.390 1_554 S
C136 C134 1.391 . S
C136 C140 1.387 1_554 S
C136 C141 1.491 . S
H137 C138 0.950 . S
C138 C135 1.390 1_556 S
C138 H137 0.950 . S
C138 C139 1.378 . S
C139 C138 1.378 . S
C139 C140 1.409 . S
C140 C136 1.387 1_556 S
C140 C139 1.409 . S
C140 H142 0.951 . S
C141 C136 1.491 . S
C141 C143 1.382 . S
C141 C145 1.404 1_554 S
H142 C140 0.951 . S
C143 C141 1.382 . S
C143 C144 1.390 . S
C143 H148 0.949 . S
C144 C143 1.390 . S
C144 C149 1.399 . S
C145 C141 1.404 1_556 S
C145 H146 0.950 . S
C145 C147 1.375 . S
H146 C145 0.950 . S
C147 C145 1.375 . S
C147 C149 1.382 1_556 S
C147 H151 0.950 . S
H148 C143 0.949 . S
C149 C144 1.399 . S
C149 C147 1.382 1_554 S
C149 H150 0.952 . S
H150 C149 0.952 . S
H151 C147 0.950 . S
Tb152 N181 2.617 . S
Tb152 N187 2.572 . S
Tb152 O196 2.465 1_655 S
Tb152 O197 2.387 1_545 S
Tb152 O199 2.428 . S
Tb152 O200 2.308 1_655 S
Tb152 O204 2.349 1_655 S
Tb152 O207 2.393 . S
Tb152 C216 2.802 . S
C153 N154 1.379 . S
C153 C156 1.416 . S
C153 C160 1.424 . S
N154 C153 1.379 . S
N154 C157 1.334 . S
N154 Tb163 2.617 1_545 S
C155 C157 1.390 . S
C155 C158 1.339 . S
C155 H175 0.930 . S
C156 C153 1.416 . S
C156 C158 1.416 . S
C156 C162 1.448 1_556 S
C157 N154 1.334 . S
C157 C155 1.390 . S
C157 H168 0.930 1_545 S
C158 C155 1.339 . S
C158 C156 1.416 . S
C158 H179 0.930 . S
C159 C160 1.413 1_554 S
C159 C161 1.427 . S
C159 C165 1.416 . S
C160 C153 1.424 . S
C160 C159 1.413 1_556 S
C160 N164 1.361 . S
C161 C159 1.427 . S
C161 C162 1.328 . S
C161 H176 0.929 . S
C162 C156 1.448 1_554 S
C162 C161 1.328 . S
C162 H177 0.930 . S
Tb163 N154 2.617 1_565 S
Tb163 N164 2.572 1_565 S
Tb163 O198 2.349 . S
Tb163 O201 2.398 . S
Tb163 O202 2.465 . S
Tb163 O203 2.387 1_565 S
Tb163 O205 2.428 . S
Tb163 O206 2.308 1_465 S
Tb163 C227 2.802 . S
N164 C160 1.361 . S
N164 Tb163 2.572 1_545 S
N164 C166 1.340 . S
C165 C159 1.416 . S
C165 C167 1.332 . S
C165 H173 0.931 . S
C166 N164 1.340 . S
C166 C167 1.407 1_556 S
C166 H172 0.930 1_455 S
C167 C165 1.332 . S
C167 C166 1.407 1_554 S
C167 H169 0.929 1_455 S
H168 C157 0.930 1_565 S
H169 C167 0.929 1_655 S
H170 C185 0.930 . S
H171 C192 0.929 . S
H172 C166 0.930 1_655 S
H173 C165 0.931 . S
H174 C188 0.930 . S
H175 C155 0.930 . S
H176 C161 0.929 . S
H177 C162 0.930 . S
H178 C183 0.930 . S
H179 C158 0.930 . S
H180 C191 0.931 . S
N181 Tb152 2.617 . S
N181 C182 1.379 . S
N181 C185 1.334 . S
C182 N181 1.379 . S
C182 C184 1.416 1_545 S
C182 C190 1.424 . S
C183 H178 0.930 . S
C183 C185 1.390 . S
C183 C186 1.339 1_545 S
C184 C182 1.416 1_565 S
C184 C186 1.416 . S
C184 C217 1.448 . S
C185 H170 0.930 . S
C185 N181 1.334 . S
C185 C183 1.390 . S
C186 C183 1.339 1_565 S
C186 C184 1.416 . S
C186 H193 0.930 . S
N187 Tb152 2.572 . S
N187 C188 1.340 1_655 S
N187 C190 1.361 . S
C188 H174 0.930 . S
C188 N187 1.340 1_455 S
C188 C192 1.407 1_545 S
C189 C190 1.413 1_565 S
C189 C191 1.416 . S
C189 C218 1.427 . S
C190 C182 1.424 . S
C190 N187 1.361 . S
C190 C189 1.413 1_545 S
C191 H180 0.931 . S
C191 C189 1.416 . S
C191 C192 1.332 1_655 S
C192 H171 0.929 . S
C192 C188 1.407 1_565 S
C192 C191 1.332 1_455 S
H193 C186 0.930 . S
H194 C217 0.930 . S
H195 C218 0.929 . S
O196 Tb152 2.465 1_455 S
O196 C216 1.264 1_455 S
O197 Tb152 2.387 1_565 S
O197 C208 1.264 . S
O198 Tb163 2.349 . S
O198 C208 1.243 1_455 S
O199 Tb152 2.428 . S
O199 C216 1.256 . S
O200 Tb152 2.308 1_455 S
O200 C215 1.266 . S
O201 Tb163 2.398 . S
O201 C215 1.225 1_565 S
O202 Tb163 2.465 . S
O202 C227 1.264 . S
O203 Tb163 2.387 1_545 S
O203 C219 1.264 . S
O204 Tb152 2.349 1_455 S
O204 C219 1.243 . S
O205 Tb163 2.428 . S
O205 C227 1.256 . S
O206 Tb163 2.308 1_645 S
O206 C226 1.266 . S
O207 Tb152 2.393 . S
O207 C226 1.248 . S
C208 O197 1.264 . S
C208 O198 1.243 1_655 S
C209 C212 1.399 . S
C209 C214 1.383 1_655 S
C209 C216 1.496 . S
C210 C211 1.399 . S
C210 C214 1.389 1_655 S
C211 C210 1.399 . S
C211 C213 1.380 . S
C211 H228 0.929 . S
C212 C209 1.399 . S
C212 C213 1.392 . S
C212 H229 0.929 . S
C213 C211 1.380 . S
C213 C212 1.392 . S
C213 H230 0.929 . S
C214 C209 1.383 1_455 S
C214 C210 1.389 1_455 S
C214 H231 0.931 . S
C215 O200 1.266 . S
C215 O201 1.225 1_545 S
C216 Tb152 2.802 . S
C216 O196 1.264 1_655 S
C216 O199 1.256 . S
C216 C209 1.496 . S
C217 C184 1.448 . S
C217 H194 0.930 . S
C217 C218 1.328 . S
C218 C189 1.427 . S
C218 H195 0.929 . S
C218 C217 1.328 . S
C219 O203 1.264 . S
C219 O204 1.243 . S
C220 C223 1.399 . S
C220 C224 1.383 . S
C220 C227 1.496 . S
C221 C222 1.399 . S
C221 C224 1.389 . S
C222 C221 1.399 . S
C222 C225 1.380 . S
C222 H232 0.931 . S
C223 C220 1.399 . S
C223 C225 1.392 . S
C223 H233 0.929 . S
C224 C220 1.383 . S
C224 C221 1.389 . S
C224 H234 0.895 1_455 S
C225 C222 1.380 . S
C225 C223 1.392 . S
C225 H235 0.929 . S
C226 O206 1.266 . S
C226 O207 1.248 . S
C227 Tb163 2.802 . S
C227 O202 1.264 . S
C227 O205 1.256 . S
C227 C220 1.496 . S
H228 C211 0.929 . S
H229 C212 0.929 . S
H230 C213 0.929 . S
H231 C214 0.931 . S
H232 C222 0.931 . S
H233 C223 0.929 . S
H234 C224 0.895 1_655 S
H235 C225 0.929 . S
Tb236 N265 2.617 . S
Tb236 N271 2.572 . S
Tb236 O280 2.465 . S
Tb236 O281 2.387 . S
Tb236 O283 2.428 . S
Tb236 O284 2.308 . S
Tb236 O288 2.349 1_545 S
Tb236 O291 2.393 . S
Tb236 C300 2.802 . S
C237 N238 1.379 . S
C237 C240 1.416 . S
C237 C244 1.424 . S
N238 C237 1.379 . S
N238 C241 1.334 . S
N238 Tb247 2.617 . S
C239 C241 1.390 . S
C239 C242 1.339 . S
C239 H259 0.930 . S
C240 C237 1.416 . S
C240 C242 1.416 . S
C240 C246 1.448 . S
C241 N238 1.334 . S
C241 C239 1.390 . S
C241 H252 0.930 . S
C242 C239 1.339 . S
C242 C240 1.416 . S
C242 H263 0.930 . S
C243 C244 1.413 . S
C243 C245 1.427 . S
C243 C249 1.416 . S
C244 C237 1.424 . S
C244 C243 1.413 . S
C244 N248 1.361 . S
C245 C243 1.427 . S
C245 C246 1.328 . S
C245 H260 0.929 . S
C246 C240 1.448 . S
C246 C245 1.328 . S
C246 H261 0.930 . S
Tb247 N238 2.617 . S
Tb247 N248 2.572 . S
Tb247 O282 2.349 1_565 S
Tb247 O285 2.393 . S
Tb247 O286 2.466 . S
Tb247 O287 2.387 . S
Tb247 O289 2.428 . S
Tb247 O290 2.308 1_565 S
Tb247 C311 2.802 . S
N248 C244 1.361 . S
N248 Tb247 2.572 . S
N248 C250 1.340 . S
C249 C243 1.416 . S
C249 C251 1.332 . S
C249 H257 0.931 . S
C250 N248 1.340 . S
C250 C251 1.407 . S
C250 H256 0.930 . S
C251 C249 1.332 . S
C251 C250 1.407 . S
C251 H253 0.929 . S
H252 C241 0.930 . S
H253 C251 0.929 . S
H254 C269 0.930 . S
H255 C276 0.929 . S
H256 C250 0.930 . S
H257 C249 0.931 . S
H258 C272 0.930 . S
H259 C239 0.930 . S
H260 C245 0.929 . S
H261 C246 0.930 . S
H262 C267 0.930 . S
H263 C242 0.930 . S
H264 C275 0.931 . S
N265 Tb236 2.617 . S
N265 C266 1.379 . S
N265 C269 1.334 . S
C266 N265 1.379 . S
C266 C268 1.416 . S
C266 C274 1.424 . S
C267 H262 0.930 . S
C267 C269 1.390 . S
C267 C270 1.339 . S
C268 C266 1.416 . S
C268 C270 1.416 . S
C268 C301 1.448 . S
C269 H254 0.930 . S
C269 N265 1.334 . S
C269 C267 1.390 . S
C270 C267 1.339 . S
C270 C268 1.416 . S
C270 H277 0.930 . S
N271 Tb236 2.572 . S
N271 C272 1.340 . S
N271 C274 1.361 . S
C272 H258 0.930 . S
C272 N271 1.340 . S
C272 C276 1.407 . S
C273 C274 1.413 . S
C273 C275 1.416 . S
C273 C302 1.427 . S
C274 C266 1.424 . S
C274 N271 1.361 . S
C274 C273 1.413 . S
C275 H264 0.931 . S
C275 C273 1.416 . S
C275 C276 1.332 . S
C276 H255 0.929 . S
C276 C272 1.407 . S
C276 C275 1.332 . S
H277 C270 0.930 . S
H278 C301 0.930 . S
H279 C302 0.929 . S
O280 Tb236 2.465 . S
O280 C300 1.264 . S
O281 Tb236 2.387 . S
O281 C292 1.264 . S
O282 Tb247 2.349 1_545 S
O282 C292 1.243 . S
O283 Tb236 2.428 . S
O283 C300 1.256 . S
O284 Tb236 2.308 . S
O284 C299 1.266 . S
O285 Tb247 2.393 . S
O285 C299 1.248 1_565 S
O286 Tb247 2.466 . S
O286 C311 1.264 . S
O287 Tb247 2.387 . S
O287 C303 1.264 . S
O288 Tb236 2.349 1_565 S
O288 C303 1.243 . S
O289 Tb247 2.428 . S
O289 C311 1.256 . S
O290 Tb247 2.308 1_545 S
O290 C310 1.266 . S
O291 Tb236 2.393 . S
O291 C310 1.248 . S
C292 O281 1.264 . S
C292 O282 1.243 . S
C293 C296 1.399 1_556 S
C293 C298 1.383 . S
C293 C300 1.496 . S
C294 C295 1.399 . S
C294 C298 1.389 1_554 S
C295 C294 1.399 . S
C295 C297 1.380 . S
C295 H312 0.929 . S
C296 C293 1.399 1_554 S
C296 C297 1.392 . S
C296 H313 0.929 . S
C297 C295 1.380 . S
C297 C296 1.392 . S
C297 H314 0.929 . S
C298 C293 1.383 . S
C298 C294 1.389 1_556 S
C298 H315 0.931 . S
C299 O284 1.266 . S
C299 O285 1.248 1_545 S
C300 Tb236 2.802 . S
C300 O280 1.264 . S
C300 O283 1.256 . S
C300 C293 1.496 . S
C301 C268 1.448 . S
C301 H278 0.930 . S
C301 C302 1.328 . S
C302 C273 1.427 . S
C302 H279 0.929 . S
C302 C301 1.328 . S
C303 O287 1.264 . S
C303 O288 1.243 . S
C304 C307 1.396 1_545 S
C304 C308 1.388 . S
C304 C311 1.494 1_545 S
C305 C306 1.399 . S
C305 C308 1.389 . S
C306 C305 1.399 . S
C306 C309 1.380 1_545 S
C306 H316 0.929 . S
C307 C304 1.396 1_565 S
C307 C309 1.392 . S
C307 H317 0.929 . S
C308 C304 1.388 . S
C308 C305 1.389 . S
C308 H318 0.931 . S
C309 C306 1.380 1_565 S
C309 C307 1.392 . S
C309 H319 0.929 . S
C310 O290 1.266 . S
C310 O291 1.248 . S
C311 Tb247 2.802 . S
C311 O286 1.264 . S
C311 O289 1.256 . S
C311 C304 1.494 1_565 S
H312 C295 0.929 . S
H313 C296 0.929 . S
H314 C297 0.929 . S
H315 C298 0.931 . S
H316 C306 0.929 . S
H317 C307 0.929 . S
H318 C308 0.931 . S
H319 C309 0.929 . S
Tb320 N349 2.617 . S
Tb320 N355 2.572 . S
Tb320 O364 2.465 . S
Tb320 O365 2.387 . S
Tb320 O367 2.428 . S
Tb320 O368 2.308 . S
Tb320 O372 2.349 . S
Tb320 O375 2.393 . S
Tb320 C384 2.802 . S
C321 N322 1.379 . S
C321 C324 1.416 . S
C321 C328 1.424 . S
N322 C321 1.379 . S
N322 C325 1.334 . S
N322 Tb331 2.617 . S
C323 C325 1.390 . S
C323 C326 1.339 . S
C323 H343 0.930 . S
C324 C321 1.416 . S
C324 C326 1.416 . S
C324 C330 1.448 1_556 S
C325 N322 1.334 . S
C325 C323 1.390 . S
C325 H336 0.930 . S
C326 C323 1.339 . S
C326 C324 1.416 . S
C326 H347 0.930 . S
C327 C328 1.413 1_554 S
C327 C329 1.427 . S
C327 C333 1.416 . S
C328 C321 1.424 . S
C328 C327 1.413 1_556 S
C328 N332 1.361 . S
C329 C327 1.427 . S
C329 C330 1.328 . S
C329 H344 0.929 . S
C330 C324 1.448 1_554 S
C330 C329 1.328 . S
C330 H345 0.930 . S
Tb331 N322 2.617 . S
Tb331 N332 2.572 . S
Tb331 O366 2.349 . S
Tb331 O369 2.393 . S
Tb331 O370 2.465 . S
Tb331 O371 2.387 . S
Tb331 O373 2.428 . S
Tb331 O374 2.308 . S
Tb331 C395 2.802 . S
N332 C328 1.361 . S
N332 Tb331 2.572 . S
N332 C334 1.340 . S
C333 C327 1.416 . S
C333 C335 1.332 . S
C333 H341 0.931 . S
C334 N332 1.340 . S
C334 C335 1.407 1_556 S
C334 H340 0.930 . S
C335 C333 1.332 . S
C335 C334 1.407 1_554 S
C335 H337 0.929 . S
H336 C325 0.930 . S
H337 C335 0.929 . S
H338 C353 0.930 . S
H339 C360 0.929 . S
H340 C334 0.930 . S
H341 C333 0.931 . S
H342 C356 0.930 . S
H343 C323 0.930 . S
H344 C329 0.929 . S
H345 C330 0.930 . S
H346 C351 0.930 . S
H347 C326 0.930 . S
H348 C359 0.931 . S
N349 Tb320 2.617 . S
N349 C350 1.379 . S
N349 C353 1.334 . S
C350 N349 1.379 . S
C350 C352 1.416 . S
C350 C358 1.424 . S
C351 H346 0.930 . S
C351 C353 1.390 . S
C351 C354 1.339 . S
C352 C350 1.416 . S
C352 C354 1.416 . S
C352 C385 1.448 . S
C353 H338 0.930 . S
C353 N349 1.334 . S
C353 C351 1.390 . S
C354 C351 1.339 . S
C354 C352 1.416 . S
C354 H361 0.930 . S
N355 Tb320 2.572 . S
N355 C356 1.340 . S
N355 C358 1.361 . S
C356 H342 0.930 . S
C356 N355 1.340 . S
C356 C360 1.407 . S
C357 C358 1.413 . S
C357 C359 1.416 . S
C357 C386 1.427 . S
C358 C350 1.424 . S
C358 N355 1.361 . S
C358 C357 1.413 . S
C359 H348 0.931 . S
C359 C357 1.416 . S
C359 C360 1.332 . S
C360 H339 0.929 . S
C360 C356 1.407 . S
C360 C359 1.332 . S
H361 C354 0.930 . S
H362 C385 0.930 . S
H363 C386 0.929 . S
O364 Tb320 2.465 . S
O364 C384 1.264 . S
O365 Tb320 2.387 . S
O365 C376 1.264 . S
O366 Tb331 2.349 . S
O366 C376 1.243 . S
O367 Tb320 2.428 . S
O367 C384 1.256 . S
O368 Tb320 2.308 . S
O368 C383 1.266 . S
O369 Tb331 2.393 . S
O369 C383 1.248 . S
O370 Tb331 2.465 . S
O370 C395 1.264 . S
O371 Tb331 2.387 . S
O371 C387 1.264 . S
O372 Tb320 2.349 . S
O372 C387 1.243 . S
O373 Tb331 2.428 . S
O373 C395 1.256 . S
O374 Tb331 2.308 . S
O374 C394 1.266 . S
O375 Tb320 2.393 . S
O375 C394 1.248 . S
C376 O365 1.264 . S
C376 O366 1.243 . S
C377 C380 1.399 . S
C377 C382 1.383 . S
C377 C384 1.496 . S
C378 C379 1.399 . S
C378 C382 1.389 . S
C379 C378 1.399 . S
C379 C381 1.380 . S
C379 H396 0.929 . S
C380 C377 1.399 . S
C380 C381 1.392 . S
C380 H397 0.929 . S
C381 C379 1.380 . S
C381 C380 1.392 . S
C381 H398 0.929 . S
C382 C377 1.383 . S
C382 C378 1.389 . S
C382 H399 0.931 . S
C383 O368 1.266 . S
C383 O369 1.248 . S
C384 Tb320 2.802 . S
C384 O364 1.264 . S
C384 O367 1.256 . S
C384 C377 1.496 . S
C385 C352 1.448 . S
C385 H362 0.930 . S
C385 C386 1.328 . S
C386 C357 1.427 . S
C386 H363 0.929 . S
C386 C385 1.328 . S
C387 O371 1.264 . S
C387 O372 1.243 . S
C388 C391 1.399 . S
C388 C392 1.383 . S
C388 C395 1.496 . S
C389 C390 1.399 . S
C389 C392 1.389 . S
C390 C389 1.399 . S
C390 C393 1.380 . S
C390 H400 0.929 1_556 S
C391 C388 1.399 . S
C391 C393 1.392 . S
C391 H401 0.929 . S
C392 C388 1.383 . S
C392 C389 1.389 . S
C392 H402 0.931 . S
C393 C390 1.380 . S
C393 C391 1.392 . S
C393 H403 0.929 . S
C394 O374 1.266 . S
C394 O375 1.248 . S
C395 Tb331 2.802 . S
C395 O370 1.264 . S
C395 O373 1.256 . S
C395 C388 1.496 . S
H396 C379 0.929 . S
H397 C380 0.929 . S
H398 C381 0.929 . S
H399 C382 0.931 . S
H400 C390 0.929 1_554 S
H401 C391 0.929 . S
H402 C392 0.931 . S
H403 C393 0.929 . S
Tb404 N433 2.617 . S
Tb404 N439 2.572 . S
Tb404 O448 2.465 . S
Tb404 O449 2.387 1_455 S
Tb404 O451 2.428 . S
Tb404 O452 2.308 . S
Tb404 O456 2.349 . S
Tb404 O459 2.393 . S
Tb404 C468 2.802 . S
C405 N406 1.379 . S
C405 C408 1.416 . S
C405 C412 1.424 . S
N406 C405 1.379 . S
N406 C409 1.334 1_455 S
N406 Tb415 2.617 1_455 S
C407 C409 1.390 1_455 S
C407 C410 1.339 . S
C407 H427 0.930 . S
C408 C405 1.416 . S
C408 C410 1.416 . S
C408 C414 1.448 1_556 S
C409 N406 1.334 1_655 S
C409 C407 1.390 1_655 S
C409 H420 0.930 . S
C410 C407 1.339 . S
C410 C408 1.416 . S
C410 H431 0.930 . S
C411 C412 1.413 1_554 S
C411 C413 1.427 . S
C411 C417 1.416 . S
C412 C405 1.424 . S
C412 C411 1.413 1_556 S
C412 N416 1.361 . S
C413 C411 1.427 . S
C413 C414 1.328 . S
C413 H428 0.929 . S
C414 C408 1.448 1_554 S
C414 C413 1.328 . S
C414 H429 0.930 . S
Tb415 N406 2.617 1_655 S
Tb415 N416 2.572 1_655 S
Tb415 O450 2.349 . S
Tb415 O453 2.393 . S
Tb415 O454 2.465 . S
Tb415 O455 2.387 1_655 S
Tb415 O457 2.428 . S
Tb415 O458 2.308 1_655 S
Tb415 C479 2.802 . S
N416 C412 1.361 . S
N416 Tb415 2.572 1_455 S
N416 C418 1.340 . S
C417 C411 1.416 . S
C417 C419 1.332 . S
C417 H425 0.931 . S
C418 N416 1.340 . S
C418 C419 1.407 1_556 S
C418 H424 0.930 . S
C419 C417 1.332 . S
C419 C418 1.407 1_554 S
C419 H421 0.929 . S
H420 C409 0.930 . S
H421 C419 0.929 . S
H422 C437 0.930 . S
H423 C444 0.929 . S
H424 C418 0.930 . S
H425 C417 0.931 . S
H426 C440 0.930 . S
H427 C407 0.930 . S
H428 C413 0.929 . S
H429 C414 0.930 . S
H430 C435 0.930 . S
H431 C410 0.930 . S
H432 C443 0.931 . S
N433 Tb404 2.617 . S
N433 C434 1.379 . S
N433 C437 1.334 . S
C434 N433 1.379 . S
C434 C436 1.416 1_455 S
C434 C442 1.423 . S
C435 H430 0.930 . S
C435 C437 1.390 . S
C435 C438 1.339 1_455 S
C436 C434 1.416 1_655 S
C436 C438 1.416 . S
C436 C469 1.448 . S
C437 H422 0.930 . S
C437 N433 1.334 . S
C437 C435 1.390 . S
C438 C435 1.339 1_655 S
C438 C436 1.416 . S
C438 H445 0.930 . S
N439 Tb404 2.572 . S
N439 C440 1.340 . S
N439 C442 1.360 . S
C440 H426 0.930 . S
C440 N439 1.340 . S
C440 C444 1.407 1_455 S
C441 C442 1.414 1_655 S
C441 C443 1.416 . S
C441 C470 1.427 . S
C442 C434 1.423 . S
C442 N439 1.360 . S
C442 C441 1.414 1_455 S
C443 H432 0.931 . S
C443 C441 1.416 . S
C443 C444 1.332 . S
C444 H423 0.929 . S
C444 C440 1.407 1_655 S
C444 C443 1.332 . S
H445 C438 0.930 . S
H446 C469 0.930 . S
H447 C470 0.929 . S
O448 Tb404 2.465 . S
O448 C468 1.264 . S
O449 Tb404 2.387 1_655 S
O449 C460 1.264 . S
O450 Tb415 2.349 . S
O450 C460 1.243 . S
O451 Tb404 2.428 . S
O451 C468 1.256 . S
O452 Tb404 2.308 . S
O452 C467 1.266 . S
O453 Tb415 2.393 . S
O453 C467 1.248 1_655 S
O454 Tb415 2.465 . S
O454 C479 1.264 . S
O455 Tb415 2.387 1_455 S
O455 C471 1.264 . S
O456 Tb404 2.349 . S
O456 C471 1.243 . S
O457 Tb415 2.428 . S
O457 C479 1.256 . S
O458 Tb415 2.308 1_455 S
O458 C478 1.266 . S
O459 Tb404 2.393 . S
O459 C478 1.248 . S
C460 O449 1.264 . S
C460 O450 1.243 . S
C461 C464 1.399 . S
C461 C466 1.383 . S
C461 C468 1.496 . S
C462 C463 1.399 . S
C462 C466 1.389 . S
C463 C462 1.399 . S
C463 C465 1.380 . S
C463 H480 0.929 . S
C464 C461 1.399 . S
C464 C465 1.392 . S
C464 H481 0.929 . S
C465 C463 1.380 . S
C465 C464 1.392 . S
C465 H482 0.929 . S
C466 C461 1.383 . S
C466 C462 1.389 . S
C466 H483 0.931 . S
C467 O452 1.266 . S
C467 O453 1.248 1_455 S
C468 Tb404 2.802 . S
C468 O448 1.264 . S
C468 O451 1.256 . S
C468 C461 1.496 . S
C469 C436 1.448 . S
C469 H446 0.930 . S
C469 C470 1.328 . S
C470 C441 1.427 . S
C470 H447 0.929 . S
C470 C469 1.328 . S
C471 O455 1.264 . S
C471 O456 1.243 . S
C472 C475 1.399 . S
C472 C476 1.383 . S
C472 C479 1.496 . S
C473 C474 1.399 . S
C473 C476 1.389 . S
C474 C473 1.399 . S
C474 C477 1.380 . S
C474 H484 0.929 1_556 S
C475 C472 1.399 . S
C475 C477 1.392 . S
C475 H485 0.929 . S
C476 C472 1.383 . S
C476 C473 1.389 . S
C476 H486 0.931 . S
C477 C474 1.380 . S
C477 C475 1.392 . S
C477 H487 0.929 . S
C478 O458 1.266 . S
C478 O459 1.248 . S
C479 Tb415 2.802 . S
C479 O454 1.264 . S
C479 O457 1.256 . S
C479 C472 1.496 . S
H480 C463 0.929 . S
H481 C464 0.929 . S
H482 C465 0.929 . S
H483 C466 0.931 . S
H484 C474 0.929 1_554 S
H485 C475 0.929 . S
H486 C476 0.931 . S
H487 C477 0.929 . S
C488 C489 1.391 . S
C488 C490 1.394 . S
C488 H504 0.931 . S
C489 C488 1.391 . S
C489 C493 1.376 . S
C490 C488 1.394 . S
C490 C491 1.369 . S
C490 C494 1.531 . S
C491 C490 1.369 . S
C491 C492 1.410 . S
C491 C499 1.503 . S
C492 C491 1.410 . S
C492 C493 1.392 . S
C492 C495 1.511 1_545 S
C493 C489 1.376 . S
C493 C492 1.392 . S
C493 H505 0.929 . S
C494 C490 1.531 . S
C494 H506 0.960 . S
C494 H507 0.962 . S
C494 H508 0.960 . S
C495 C492 1.511 1_565 S
C495 H509 0.961 . S
C495 H510 0.961 . S
C495 H511 0.961 . S
C496 C497 1.370 . S
C496 C498 1.363 . S
C496 H512 0.931 . S
C497 C496 1.370 . S
C497 C501 1.408 . S
C498 C496 1.363 . S
C498 C499 1.370 . S
C498 C502 1.524 . S
C499 C491 1.503 . S
C499 C498 1.370 . S
C499 C500 1.403 . S
C500 C499 1.403 . S
C500 C501 1.404 . S
C500 C503 1.539 . S
C501 C497 1.408 . S
C501 C500 1.404 . S
C501 H513 0.930 . S
C502 C498 1.524 . S
C502 H514 0.956 . S
C502 H515 0.961 . S
C502 H516 0.961 . S
C503 C500 1.539 . S
C503 H517 0.958 . S
C503 H518 0.961 . S
C503 H519 0.960 . S
H504 C488 0.931 . S
H505 C493 0.929 . S
H506 C494 0.960 . S
H507 C494 0.962 . S
H508 C494 0.960 . S
H509 C495 0.961 . S
H510 C495 0.961 . S
H511 C495 0.961 . S
H512 C496 0.931 . S
H513 C501 0.930 . S
H514 C502 0.956 . S
H515 C502 0.961 . S
H516 C502 0.961 . S
H517 C503 0.958 . S
H518 C503 0.961 . S
H519 C503 0.960 . S
C520 C521 1.391 . S
C520 C522 1.394 . S
C520 H536 0.931 . S
C521 C520 1.391 . S
C521 C525 1.376 . S
C522 C520 1.394 . S
C522 C523 1.369 . S
C522 C526 1.531 . S
C523 C522 1.369 . S
C523 C524 1.410 . S
C523 C531 1.503 . S
C524 C523 1.410 . S
C524 C525 1.392 . S
C524 C527 1.511 . S
C525 C521 1.376 . S
C525 C524 1.392 . S
C525 H537 0.929 . S
C526 C522 1.531 . S
C526 H538 0.960 . S
C526 H539 0.962 . S
C526 H540 0.960 . S
C527 C524 1.511 . S
C527 H541 0.961 . S
C527 H542 0.961 . S
C527 H543 0.961 . S
C528 C529 1.370 . S
C528 C530 1.363 . S
C528 H544 0.931 . S
C529 C528 1.370 . S
C529 C533 1.408 . S
C530 C528 1.363 . S
C530 C531 1.370 . S
C530 C534 1.524 . S
C531 C523 1.503 . S
C531 C530 1.370 . S
C531 C532 1.403 . S
C532 C531 1.403 . S
C532 C533 1.404 . S
C532 C535 1.539 . S
C533 C529 1.408 . S
C533 C532 1.404 . S
C533 H545 0.930 . S
C534 C530 1.524 . S
C534 H546 0.956 . S
C534 H547 0.961 . S
C534 H548 0.961 . S
C535 C532 1.539 . S
C535 H549 0.958 . S
C535 H550 0.961 . S
C535 H551 0.960 . S
H536 C520 0.931 . S
H537 C525 0.929 . S
H538 C526 0.960 . S
H539 C526 0.962 . S
H540 C526 0.960 . S
H541 C527 0.961 . S
H542 C527 0.961 . S
H543 C527 0.961 . S
H544 C528 0.931 . S
H545 C533 0.930 . S
H546 C534 0.956 . S
H547 C534 0.961 . S
H548 C534 0.961 . S
H549 C535 0.958 . S
H550 C535 0.961 . S
H551 C535 0.960 . S
C552 C553 1.391 . S
C552 C554 1.394 . S
C552 H568 0.931 . S
C553 C552 1.391 . S
C553 C557 1.376 . S
C554 C552 1.394 . S
C554 C555 1.369 . S
C554 C558 1.531 . S
C555 C554 1.369 . S
C555 C556 1.410 . S
C555 C563 1.503 . S
C556 C555 1.410 . S
C556 C557 1.392 . S
C556 C559 1.511 . S
C557 C553 1.376 . S
C557 C556 1.392 . S
C557 H569 0.929 . S
C558 C554 1.531 . S
C558 H570 0.960 . S
C558 H571 0.962 . S
C558 H572 0.960 . S
C559 C556 1.511 . S
C559 H573 0.961 . S
C559 H574 0.961 . S
C559 H575 0.961 . S
C560 C561 1.370 . S
C560 C562 1.363 . S
C560 H576 0.931 . S
C561 C560 1.370 . S
C561 C565 1.408 . S
C562 C560 1.363 . S
C562 C563 1.370 . S
C562 C566 1.524 . S
C563 C555 1.503 . S
C563 C562 1.370 . S
C563 C564 1.403 . S
C564 C563 1.403 . S
C564 C565 1.404 . S
C564 C567 1.539 . S
C565 C561 1.408 . S
C565 C564 1.404 . S
C565 H577 0.930 . S
C566 C562 1.524 . S
C566 H578 0.956 . S
C566 H579 0.961 . S
C566 H580 0.961 . S
C567 C564 1.539 . S
C567 H581 0.958 . S
C567 H582 0.961 . S
C567 H583 0.960 . S
H568 C552 0.931 . S
H569 C557 0.929 . S
H570 C558 0.960 . S
H571 C558 0.962 . S
H572 C558 0.960 . S
H573 C559 0.961 . S
H574 C559 0.961 . S
H575 C559 0.961 . S
H576 C560 0.931 . S
H577 C565 0.930 . S
H578 C566 0.956 . S
H579 C566 0.961 . S
H580 C566 0.961 . S
H581 C567 0.958 . S
H582 C567 0.961 . S
H583 C567 0.960 . S
C584 C585 1.391 . S
C584 C586 1.394 . S
C584 H600 0.931 . S
C585 C584 1.391 . S
C585 C589 1.376 . S
C586 C584 1.394 . S
C586 C587 1.369 . S
C586 C590 1.531 . S
C587 C586 1.369 . S
C587 C588 1.410 . S
C587 C595 1.503 . S
C588 C587 1.410 . S
C588 C589 1.392 . S
C588 C591 1.511 . S
C589 C585 1.376 . S
C589 C588 1.392 . S
C589 H601 0.929 . S
C590 C586 1.531 . S
C590 H602 0.960 . S
C590 H603 0.962 1_455 S
C590 H604 0.960 . S
C591 C588 1.511 . S
C591 H605 0.961 . S
C591 H606 0.961 . S
C591 H607 0.961 . S
C592 C593 1.370 . S
C592 C594 1.363 . S
C592 H608 0.931 1_455 S
C593 C592 1.370 . S
C593 C597 1.408 . S
C594 C592 1.363 . S
C594 C595 1.370 . S
C594 C598 1.524 1_455 S
C595 C587 1.503 . S
C595 C594 1.370 . S
C595 C596 1.403 . S
C596 C595 1.403 . S
C596 C597 1.404 . S
C596 C599 1.539 . S
C597 C593 1.408 . S
C597 C596 1.404 . S
C597 H609 0.930 . S
C598 C594 1.524 1_655 S
C598 H610 0.956 . S
C598 H611 0.979 . S
C598 H612 0.961 . S
C599 C596 1.539 . S
C599 H613 0.958 . S
C599 H614 0.961 . S
C599 H615 0.960 . S
H600 C584 0.931 . S
H601 C589 0.929 . S
H602 C590 0.960 . S
H603 C590 0.962 1_655 S
H604 C590 0.960 . S
H605 C591 0.961 . S
H606 C591 0.961 . S
H607 C591 0.961 . S
H608 C592 0.931 1_655 S
H609 C597 0.930 . S
H610 C598 0.956 . S
H611 C598 0.979 . S
H612 C598 0.961 . S
H613 C599 0.958 . S
H614 C599 0.961 . S
H615 C599 0.960 . S
C616 C617 1.391 . S
C616 C618 1.394 . S
C616 H632 0.931 . S
C617 C616 1.391 . S
C617 C621 1.376 1_565 S
C618 C616 1.394 . S
C618 C619 1.369 . S
C618 C622 1.531 . S
C619 C618 1.369 . S
C619 C620 1.410 1_565 S
C619 C627 1.503 1_554 S
C620 C619 1.410 1_545 S
C620 C621 1.392 . S
C620 C623 1.511 . S
C621 C617 1.376 1_545 S
C621 C620 1.392 . S
C621 H633 0.929 . S
C622 C618 1.531 . S
C622 H634 0.960 1_554 S
C622 H635 0.962 . S
C622 H636 0.960 . S
C623 C620 1.511 . S
C623 H637 0.961 . S
C623 H638 0.961 . S
C623 H639 0.961 1_554 S
C624 C625 1.368 1_565 S
C624 C626 1.365 . S
C624 H640 0.930 1_565 S
C625 C624 1.368 1_545 S
C625 C629 1.404 1_545 S
C626 C624 1.365 . S
C626 C627 1.370 . S
C626 C630 1.524 1_556 S
C627 C619 1.503 1_556 S
C627 C626 1.370 . S
C627 C628 1.403 . S
C628 C627 1.403 . S
C628 C629 1.404 . S
C628 C631 1.539 . S
C629 C625 1.404 1_565 S
C629 C628 1.404 . S
C629 H641 0.930 . S
C630 C626 1.524 1_554 S
C630 H642 0.956 . S
C630 H643 0.961 1_565 S
C630 H644 0.957 1_565 S
C631 C628 1.539 . S
C631 H645 0.958 . S
C631 H646 0.961 1_565 S
C631 H647 0.960 . S
H632 C616 0.931 . S
H633 C621 0.929 . S
H634 C622 0.960 1_556 S
H635 C622 0.962 . S
H636 C622 0.960 . S
H637 C623 0.961 . S
H638 C623 0.961 . S
H639 C623 0.961 1_556 S
H640 C624 0.930 1_545 S
H641 C629 0.930 . S
H642 C630 0.956 . S
H643 C630 0.961 1_545 S
H644 C630 0.957 1_545 S
H645 C631 0.958 . S
H646 C631 0.961 1_545 S
H647 C631 0.960 . S
C648 C649 1.391 . S
C648 C650 1.394 . S
C648 H664 0.931 . S
C649 C648 1.391 . S
C649 C653 1.376 . S
C650 C648 1.394 . S
C650 C651 1.369 . S
C650 C654 1.531 . S
C651 C650 1.369 . S
C651 C652 1.410 . S
C651 C659 1.503 1_554 S
C652 C651 1.410 . S
C652 C653 1.392 . S
C652 C655 1.511 1_554 S
C653 C649 1.376 . S
C653 C652 1.392 . S
C653 H665 0.929 . S
C654 C650 1.531 . S
C654 H666 0.960 . S
C654 H667 0.962 . S
C654 H668 0.960 . S
C655 C652 1.511 1_556 S
C655 H669 0.961 . S
C655 H670 0.961 . S
C655 H671 0.961 . S
C656 C657 1.370 . S
C656 C658 1.363 . S
C656 H672 0.931 . S
C657 C656 1.370 . S
C657 C661 1.408 . S
C658 C656 1.363 . S
C658 C659 1.370 . S
C658 C662 1.524 . S
C659 C651 1.503 1_556 S
C659 C658 1.370 . S
C659 C660 1.403 . S
C660 C659 1.403 . S
C660 C661 1.404 . S
C660 C663 1.539 . S
C661 C657 1.408 . S
C661 C660 1.404 . S
C661 H673 0.930 . S
C662 C658 1.524 . S
C662 H674 0.956 1_556 S
C662 H675 0.961 . S
C662 H676 0.961 . S
C663 C660 1.539 . S
C663 H677 0.958 1_556 S
C663 H678 0.961 . S
C663 H679 0.960 1_556 S
H664 C648 0.931 . S
H665 C653 0.929 . S
H666 C654 0.960 . S
H667 C654 0.962 . S
H668 C654 0.960 . S
H669 C655 0.961 . S
H670 C655 0.961 . S
H671 C655 0.961 . S
H672 C656 0.931 . S
H673 C661 0.930 . S
H674 C662 0.956 1_554 S
H675 C662 0.961 . S
H676 C662 0.961 . S
H677 C663 0.958 1_554 S
H678 C663 0.961 . S
H679 C663 0.960 1_554 S
C680 C681 1.391 . S
C680 C682 1.394 . S
C680 H696 0.931 . S
C681 C680 1.391 . S
C681 C685 1.376 . S
C682 C680 1.394 . S
C682 C683 1.369 . S
C682 C686 1.531 . S
C683 C682 1.369 . S
C683 C684 1.410 . S
C683 C691 1.503 1_554 S
C684 C683 1.410 . S
C684 C685 1.392 . S
C684 C687 1.511 1_554 S
C685 C681 1.376 . S
C685 C684 1.392 . S
C685 H697 0.929 . S
C686 C682 1.531 . S
C686 H698 0.960 . S
C686 H699 0.962 . S
C686 H700 0.960 . S
C687 C684 1.511 1_556 S
C687 H701 0.961 . S
C687 H702 0.961 . S
C687 H703 0.961 . S
C688 C689 1.370 . S
C688 C690 1.363 . S
C688 H704 0.931 . S
C689 C688 1.370 . S
C689 C693 1.408 . S
C690 C688 1.363 . S
C690 C691 1.370 . S
C690 C694 1.524 . S
C691 C683 1.503 1_556 S
C691 C690 1.370 . S
C691 C692 1.403 . S
C692 C691 1.403 . S
C692 C693 1.404 . S
C692 C695 1.539 . S
C693 C689 1.408 . S
C693 C692 1.404 . S
C693 H705 0.930 . S
C694 C690 1.524 . S
C694 H706 0.956 . S
C694 H707 0.961 . S
C694 H708 0.961 . S
C695 C692 1.539 . S
C695 H709 0.958 1_556 S
C695 H710 0.961 . S
C695 H711 0.960 1_556 S
H696 C680 0.931 . S
H697 C685 0.929 . S
H698 C686 0.960 . S
H699 C686 0.962 . S
H700 C686 0.960 . S
H701 C687 0.961 . S
H702 C687 0.961 . S
H703 C687 0.961 . S
H704 C688 0.931 . S
H705 C693 0.930 . S
H706 C694 0.956 . S
H707 C694 0.961 . S
H708 C694 0.961 . S
H709 C695 0.958 1_554 S
H710 C695 0.961 . S
H711 C695 0.960 1_554 S
C712 C713 1.390 1_455 S
C712 C714 1.394 . S
C712 H728 0.932 . S
C713 C712 1.390 1_655 S
C713 C717 1.376 . S
C714 C712 1.394 . S
C714 C715 1.369 1_455 S
C714 C718 1.531 . S
C715 C714 1.369 1_655 S
C715 C716 1.410 . S
C715 C723 1.503 1_554 S
C716 C715 1.410 . S
C716 C717 1.392 . S
C716 C719 1.511 1_554 S
C717 C713 1.376 . S
C717 C716 1.392 . S
C717 H729 0.929 . S
C718 C714 1.531 . S
C718 H730 0.960 . S
C718 H731 0.962 . S
C718 H732 0.960 . S
C719 C716 1.511 1_556 S
C719 H733 0.961 . S
C719 H734 0.961 . S
C719 H735 0.961 . S
C720 C721 1.370 1_455 S
C720 C722 1.363 . S
C720 H736 0.931 . S
C721 C720 1.370 1_655 S
C721 C725 1.408 . S
C722 C720 1.363 . S
C722 C723 1.370 1_455 S
C722 C726 1.524 . S
C723 C715 1.503 1_556 S
C723 C722 1.370 1_655 S
C723 C724 1.403 . S
C724 C723 1.403 . S
C724 C725 1.404 . S
C724 C727 1.539 1_556 S
C725 C721 1.408 . S
C725 C724 1.404 . S
C725 H737 0.930 . S
C726 C722 1.524 . S
C726 H738 0.956 . S
C726 H739 0.976 . S
C726 H740 0.961 . S
C727 C724 1.539 1_554 S
C727 H741 0.958 . S
C727 H742 0.961 . S
C727 H743 0.960 . S
H728 C712 0.932 . S
H729 C717 0.929 . S
H730 C718 0.960 . S
H731 C718 0.962 . S
H732 C718 0.960 . S
H733 C719 0.961 . S
H734 C719 0.961 . S
H735 C719 0.961 . S
H736 C720 0.931 . S
H737 C725 0.930 . S
H738 C726 0.956 . S
H739 C726 0.976 . S
H740 C726 0.961 . S
H741 C727 0.958 . S
H742 C727 0.961 . S
H743 C727 0.960 . S
C744 C745 1.391 . S
C744 C746 1.394 . S
C744 H760 0.931 . S
C745 C744 1.391 . S
C745 C749 1.376 . S
C746 C744 1.394 . S
C746 C747 1.369 . S
C746 C750 1.531 . S
C747 C746 1.369 . S
C747 C748 1.410 . S
C747 C755 1.503 . S
C748 C747 1.410 . S
C748 C749 1.392 . S
C748 C751 1.511 . S
C749 C745 1.376 . S
C749 C748 1.392 . S
C749 H761 0.929 . S
C750 C746 1.531 . S
C750 H762 0.960 . S
C750 H763 0.962 . S
C750 H764 0.960 . S
C751 C748 1.511 . S
C751 H765 0.961 . S
C751 H766 0.961 . S
C751 H767 0.961 . S
C752 C753 1.370 1_655 S
C752 C754 1.366 . S
C752 H768 0.931 . S
C753 C752 1.370 1_455 S
C753 C757 1.408 . S
C754 C752 1.366 . S
C754 C755 1.361 1_655 S
C754 C758 1.531 . S
C755 C747 1.503 . S
C755 C754 1.361 1_455 S
C755 C756 1.403 . S
C756 C755 1.403 . S
C756 C757 1.404 . S
C756 C759 1.539 . S
C757 C753 1.408 . S
C757 C756 1.404 . S
C757 H769 0.930 . S
C758 C754 1.531 . S
C758 H770 0.956 . S
C758 H771 0.961 . S
C758 H772 0.961 . S
C759 C756 1.539 . S
C759 H773 0.958 . S
C759 H774 0.961 . S
C759 H775 0.960 . S
H760 C744 0.931 . S
H761 C749 0.929 . S
H762 C750 0.960 . S
H763 C750 0.962 . S
H764 C750 0.960 . S
H765 C751 0.961 . S
H766 C751 0.961 . S
H767 C751 0.961 . S
H768 C752 0.931 . S
H769 C757 0.930 . S
H770 C758 0.956 . S
H771 C758 0.961 . S
H772 C758 0.961 . S
H773 C759 0.958 . S
H774 C759 0.961 . S
H775 C759 0.960 . S
C776 C777 1.391 . S
C776 C778 1.394 . S
C776 H792 0.931 . S
C777 C776 1.391 . S
C777 C781 1.376 . S
C778 C776 1.394 . S
C778 C779 1.369 . S
C778 C782 1.531 . S
C779 C778 1.369 . S
C779 C780 1.410 . S
C779 C787 1.503 . S
C780 C779 1.410 . S
C780 C781 1.392 . S
C780 C783 1.511 . S
C781 C777 1.376 . S
C781 C780 1.392 . S
C781 H793 0.929 . S
C782 C778 1.531 . S
C782 H794 0.960 . S
C782 H795 0.962 . S
C782 H796 0.960 . S
C783 C780 1.511 . S
C783 H797 0.961 1_545 S
C783 H798 0.961 1_545 S
C783 H799 0.961 . S
C784 C785 1.370 . S
C784 C786 1.363 . S
C784 H800 0.931 1_545 S
C785 C784 1.370 . S
C785 C789 1.408 . S
C786 C784 1.363 . S
C786 C787 1.370 . S
C786 C790 1.524 1_545 S
C787 C779 1.503 . S
C787 C786 1.370 . S
C787 C788 1.403 . S
C788 C787 1.403 . S
C788 C789 1.404 . S
C788 C791 1.539 . S
C789 C785 1.408 . S
C789 C788 1.404 . S
C789 H801 0.930 . S
C790 C786 1.524 1_565 S
C790 H802 0.956 1_565 S
C790 H803 0.961 . S
C790 H804 0.961 . S
C791 C788 1.539 . S
C791 H805 0.958 . S
C791 H806 0.961 . S
C791 H807 0.960 . S
H792 C776 0.931 . S
H793 C781 0.929 . S
H794 C782 0.960 . S
H795 C782 0.962 . S
H796 C782 0.960 . S
H797 C783 0.961 1_565 S
H798 C783 0.961 1_565 S
H799 C783 0.961 . S
H800 C784 0.931 1_565 S
H801 C789 0.930 . S
H802 C790 0.956 1_545 S
H803 C790 0.961 . S
H804 C790 0.961 . S
H805 C791 0.958 . S
H806 C791 0.961 . S
H807 C791 0.960 . S
C808 C809 1.391 . S
C808 C810 1.394 . S
C808 H824 0.931 . S
C809 C808 1.391 . S
C809 C813 1.376 . S
C810 C808 1.394 . S
C810 C811 1.369 . S
C810 C814 1.531 . S
C811 C810 1.369 . S
C811 C812 1.410 . S
C811 C819 1.503 . S
C812 C811 1.410 . S
C812 C813 1.392 . S
C812 C815 1.511 . S
C813 C809 1.376 . S
C813 C812 1.392 . S
C813 H825 0.929 . S
C814 C810 1.531 . S
C814 H826 0.960 . S
C814 H827 0.962 . S
C814 H828 0.960 . S
C815 C812 1.511 . S
C815 H829 0.961 . S
C815 H830 0.961 . S
C815 H831 0.961 . S
C816 C817 1.370 . S
C816 C818 1.363 . S
C816 H832 0.931 . S
C817 C816 1.370 . S
C817 C821 1.408 . S
C818 C816 1.363 . S
C818 C819 1.370 . S
C818 C822 1.524 . S
C819 C811 1.503 . S
C819 C818 1.370 . S
C819 C820 1.403 . S
C820 C819 1.403 . S
C820 C821 1.404 . S
C820 C823 1.539 . S
C821 C817 1.408 . S
C821 C820 1.404 . S
C821 H833 0.930 . S
C822 C818 1.524 . S
C822 H834 0.956 . S
C822 H835 0.961 . S
C822 H836 0.961 . S
C823 C820 1.539 . S
C823 H837 0.958 . S
C823 H838 0.961 . S
C823 H839 0.960 . S
H824 C808 0.931 . S
H825 C813 0.929 . S
H826 C814 0.960 . S
H827 C814 0.962 . S
H828 C814 0.960 . S
H829 C815 0.961 . S
H830 C815 0.961 . S
H831 C815 0.961 . S
H832 C816 0.931 . S
H833 C821 0.930 . S
H834 C822 0.956 . S
H835 C822 0.961 . S
H836 C822 0.961 . S
H837 C823 0.958 . S
H838 C823 0.961 . S
H839 C823 0.960 . S
C840 C841 1.391 . S
C840 C842 1.394 . S
C840 H856 0.931 . S
C841 C840 1.391 . S
C841 C845 1.376 . S
C842 C840 1.394 . S
C842 C843 1.369 . S
C842 C846 1.531 . S
C843 C842 1.369 . S
C843 C844 1.410 . S
C843 C851 1.503 . S
C844 C843 1.410 . S
C844 C845 1.392 . S
C844 C847 1.511 . S
C845 C841 1.376 . S
C845 C844 1.392 . S
C845 H857 0.929 . S
C846 C842 1.531 . S
C846 H858 0.960 . S
C846 H859 0.962 . S
C846 H860 0.960 . S
C847 C844 1.511 . S
C847 H861 0.961 . S
C847 H862 0.961 . S
C847 H863 0.961 . S
C848 C849 1.370 . S
C848 C850 1.363 . S
C848 H864 0.931 . S
C849 C848 1.370 . S
C849 C853 1.408 . S
C850 C848 1.363 . S
C850 C851 1.370 . S
C850 C854 1.524 . S
C851 C843 1.503 . S
C851 C850 1.370 . S
C851 C852 1.403 . S
C852 C851 1.403 . S
C852 C853 1.404 . S
C852 C855 1.539 . S
C853 C849 1.408 . S
C853 C852 1.404 . S
C853 H865 0.930 . S
C854 C850 1.524 . S
C854 H866 0.956 . S
C854 H867 0.961 . S
C854 H868 0.961 . S
C855 C852 1.539 . S
C855 H869 0.958 . S
C855 H870 0.961 . S
C855 H871 0.960 . S
H856 C840 0.931 . S
H857 C845 0.929 . S
H858 C846 0.960 . S
H859 C846 0.962 . S
H860 C846 0.960 . S
H861 C847 0.961 . S
H862 C847 0.961 . S
H863 C847 0.961 . S
H864 C848 0.931 . S
H865 C853 0.930 . S
H866 C854 0.956 . S
H867 C854 0.961 . S
H868 C854 0.961 . S
H869 C855 0.958 . S
H870 C855 0.961 . S
H871 C855 0.960 . S
C872 C873 1.391 . S
C872 C874 1.394 1_655 S
C872 H888 0.931 1_655 S
C873 C872 1.391 . S
C873 C877 1.376 . S
C874 C872 1.394 1_455 S
C874 C875 1.369 1_455 S
C874 C878 1.531 . S
C875 C874 1.369 1_655 S
C875 C876 1.410 . S
C875 C883 1.503 . S
C876 C875 1.410 . S
C876 C877 1.392 . S
C876 C879 1.511 . S
C877 C873 1.376 . S
C877 C876 1.392 . S
C877 H889 0.929 . S
C878 C874 1.531 . S
C878 H890 0.960 . S
C878 H891 0.962 . S
C878 H892 0.960 . S
C879 C876 1.511 . S
C879 H893 0.961 . S
C879 H894 0.961 . S
C879 H895 0.961 . S
C880 C881 1.370 1_554 S
C880 C882 1.363 . S
C880 H896 0.931 . S
C881 C880 1.370 1_556 S
C881 C885 1.408 1_455 S
C882 C880 1.363 . S
C882 C883 1.370 1_455 S
C882 C886 1.524 . S
C883 C875 1.503 . S
C883 C882 1.370 1_655 S
C883 C884 1.403 1_554 S
C884 C883 1.403 1_556 S
C884 C885 1.404 . S
C884 C887 1.539 . S
C885 C881 1.408 1_655 S
C885 C884 1.404 . S
C885 H897 0.930 . S
C886 C882 1.524 . S
C886 H898 0.956 . S
C886 H899 0.921 1_455 S
C886 H900 0.961 . S
C887 C884 1.539 . S
C887 H901 0.958 . S
C887 H902 0.961 . S
C887 H903 0.960 . S
H888 C872 0.931 1_455 S
H889 C877 0.929 . S
H890 C878 0.960 . S
H891 C878 0.962 . S
H892 C878 0.960 . S
H893 C879 0.961 . S
H894 C879 0.961 . S
H895 C879 0.961 . S
H896 C880 0.931 . S
H897 C885 0.930 . S
H898 C886 0.956 . S
H899 C886 0.921 1_655 S
H900 C886 0.961 . S
H901 C887 0.958 . S
H902 C887 0.961 . S
H903 C887 0.960 . S
C904 C905 1.391 1_545 S
C904 C906 1.394 . S
C904 H920 0.931 . S
C905 C904 1.391 1_565 S
C905 C909 1.376 . S
C906 C904 1.394 . S
C906 C907 1.369 1_545 S
C906 C910 1.531 . S
C907 C906 1.369 1_565 S
C907 C908 1.410 . S
C907 C915 1.503 . S
C908 C907 1.410 . S
C908 C909 1.392 . S
C908 C911 1.511 . S
C909 C905 1.376 . S
C909 C908 1.392 . S
C909 H921 0.929 . S
C910 C906 1.531 . S
C910 H922 0.960 . S
C910 H923 0.962 . S
C910 H924 0.960 . S
C911 C908 1.511 . S
C911 H925 0.961 . S
C911 H926 0.961 . S
C911 H927 0.961 . S
C912 C913 1.384 1_554 S
C912 C914 1.355 1_545 S
C912 H928 0.927 1_545 S
C913 C912 1.384 1_556 S
C913 C917 1.408 . S
C914 C912 1.355 1_565 S
C914 C915 1.370 . S
C914 C918 1.524 . S
C915 C907 1.503 . S
C915 C914 1.370 . S
C915 C916 1.403 1_564 S
C916 C915 1.403 1_546 S
C916 C917 1.404 . S
C916 C919 1.539 . S
C917 C913 1.408 . S
C917 C916 1.404 . S
C917 H929 0.930 . S
C918 C914 1.524 . S
C918 H930 0.956 . S
C918 H931 0.961 . S
C918 H932 0.961 . S
C919 C916 1.539 . S
C919 H933 0.958 . S
C919 H934 0.961 . S
C919 H935 0.960 1_545 S
H920 C904 0.931 . S
H921 C909 0.929 . S
H922 C910 0.960 . S
H923 C910 0.962 . S
H924 C910 0.960 . S
H925 C911 0.961 . S
H926 C911 0.961 . S
H927 C911 0.961 . S
H928 C912 0.927 1_565 S
H929 C917 0.930 . S
H930 C918 0.956 . S
H931 C918 0.961 . S
H932 C918 0.961 . S
H933 C919 0.958 . S
H934 C919 0.961 . S
H935 C919 0.960 1_565 S
C936 C937 1.391 . S
C936 C938 1.394 . S
C936 H952 0.931 . S
C937 C936 1.391 . S
C937 C941 1.376 . S
C938 C936 1.394 . S
C938 C939 1.369 . S
C938 C942 1.531 . S
C939 C938 1.369 . S
C939 C940 1.410 . S
C939 C947 1.503 . S
C940 C939 1.410 . S
C940 C941 1.392 . S
C940 C943 1.511 . S
C941 C937 1.376 . S
C941 C940 1.392 . S
C941 H953 0.929 . S
C942 C938 1.531 . S
C942 H954 0.960 . S
C942 H955 0.962 . S
C942 H956 0.960 . S
C943 C940 1.511 . S
C943 H957 0.961 . S
C943 H958 0.961 . S
C943 H959 0.961 . S
C944 C945 1.375 . S
C944 C946 1.363 1_556 S
C944 H960 0.931 . S
C945 C944 1.375 . S
C945 C949 1.396 1_556 S
C946 C944 1.363 1_554 S
C946 C947 1.370 . S
C946 C950 1.524 1_554 S
C947 C939 1.503 . S
C947 C946 1.370 . S
C947 C948 1.403 . S
C948 C947 1.403 . S
C948 C949 1.404 . S
C948 C951 1.539 . S
C949 C945 1.396 1_554 S
C949 C948 1.404 . S
C949 H961 0.930 . S
C950 C946 1.524 1_556 S
C950 H962 0.956 1_556 S
C950 H963 0.961 . S
C950 H964 0.961 . S
C951 C948 1.539 . S
C951 H965 0.958 . S
C951 H966 0.961 . S
C951 H967 0.960 . S
H952 C936 0.931 . S
H953 C941 0.929 . S
H954 C942 0.960 . S
H955 C942 0.962 . S
H956 C942 0.960 . S
H957 C943 0.961 . S
H958 C943 0.961 . S
H959 C943 0.961 . S
H960 C944 0.931 . S
H961 C949 0.930 . S
H962 C950 0.956 1_554 S
H963 C950 0.961 . S
H964 C950 0.961 . S
H965 C951 0.958 . S
H966 C951 0.961 . S
H967 C951 0.960 . S
C968 C969 1.391 . S
C968 C970 1.394 . S
C968 H984 0.931 . S
C969 C968 1.391 . S
C969 C973 1.376 . S
C970 C968 1.394 . S
C970 C971 1.369 . S
C970 C974 1.531 1_554 S
C971 C970 1.369 . S
C971 C972 1.410 . S
C971 C979 1.503 . S
C972 C971 1.410 . S
C972 C973 1.392 . S
C972 C975 1.511 . S
C973 C969 1.376 . S
C973 C972 1.392 . S
C973 H985 0.929 . S
C974 C970 1.531 1_556 S
C974 H986 0.960 . S
C974 H987 0.962 . S
C974 H988 0.960 . S
C975 C972 1.511 . S
C975 H989 0.961 . S
C975 H990 0.961 . S
C975 H991 0.961 . S
C976 C977 1.370 1_554 S
C976 C978 1.363 . S
C976 H992 0.931 . S
C977 C976 1.370 1_556 S
C977 C981 1.408 . S
C978 C976 1.363 . S
C978 C979 1.370 . S
C978 C982 1.524 . S
C979 C971 1.503 . S
C979 C978 1.370 . S
C979 C980 1.403 . S
C980 C979 1.403 . S
C980 C981 1.404 1_554 S
C980 C983 1.539 . S
C981 C977 1.408 . S
C981 C980 1.404 1_556 S
C981 H993 0.930 . S
C982 C978 1.524 . S
C982 H994 0.956 . S
C982 H995 0.961 . S
C982 H996 0.961 . S
C983 C980 1.539 . S
C983 H997 0.958 1_554 S
C983 H998 0.961 . S
C983 H999 0.960 . S
H984 C968 0.931 . S
H985 C973 0.929 . S
H986 C974 0.960 . S
H987 C974 0.962 . S
H988 C974 0.960 . S
H989 C975 0.961 . S
H990 C975 0.961 . S
H991 C975 0.961 . S
H992 C976 0.931 . S
H993 C981 0.930 . S
H994 C982 0.956 . S
H995 C982 0.961 . S
H996 C982 0.961 . S
H997 C983 0.958 1_556 S
H998 C983 0.961 . S
H999 C983 0.960 . S
C1000 C1001 1.391 . S
C1000 C1002 1.394 . S
C1000 H1016 0.931 . S
C1001 C1000 1.391 . S
C1001 C1005 1.376 . S
C1002 C1000 1.394 . S
C1002 C1003 1.369 . S
C1002 C1006 1.531 1_455 S
C1003 C1002 1.369 . S
C1003 C1004 1.410 . S
C1003 C1011 1.503 . S
C1004 C1003 1.410 . S
C1004 C1005 1.392 . S
C1004 C1007 1.511 . S
C1005 C1001 1.376 . S
C1005 C1004 1.392 . S
C1005 H1017 0.929 . S
C1006 C1002 1.531 1_655 S
C1006 H1018 0.955 1_655 S
C1006 H1019 0.962 . S
C1006 H1020 0.960 . S
C1007 C1004 1.511 . S
C1007 H1021 0.961 . S
C1007 H1022 0.961 . S
C1007 H1023 0.961 . S
C1008 C1009 1.370 . S
C1008 C1010 1.363 . S
C1008 H1024 0.948 . S
C1009 C1008 1.370 . S
C1009 C1013 1.408 . S
C1010 C1008 1.363 . S
C1010 C1011 1.370 . S
C1010 C1014 1.524 . S
C1011 C1003 1.503 . S
C1011 C1010 1.370 . S
C1011 C1012 1.403 . S
C1012 C1011 1.403 . S
C1012 C1013 1.404 . S
C1012 C1015 1.539 . S
C1013 C1009 1.408 . S
C1013 C1012 1.404 . S
C1013 H1025 0.930 . S
C1014 C1010 1.524 . S
C1014 H1026 0.956 1_455 S
C1014 H1027 0.961 . S
C1014 H1028 0.961 1_455 S
C1015 C1012 1.539 . S
C1015 H1029 0.958 . S
C1015 H1030 0.961 . S
C1015 H1031 0.960 . S
H1016 C1000 0.931 . S
H1017 C1005 0.929 . S
H1018 C1006 0.955 1_455 S
H1019 C1006 0.962 . S
H1020 C1006 0.960 . S
H1021 C1007 0.961 . S
H1022 C1007 0.961 . S
H1023 C1007 0.961 . S
H1024 C1008 0.948 . S
H1025 C1013 0.930 . S
H1026 C1014 0.956 1_655 S
H1027 C1014 0.961 . S
H1028 C1014 0.961 1_655 S
H1029 C1015 0.958 . S
H1030 C1015 0.961 . S
H1031 C1015 0.960 . S
C1032 C1033 1.391 . S
C1032 C1034 1.394 . S
C1032 H1048 0.931 . S
C1033 C1032 1.391 . S
C1033 C1037 1.376 . S
C1034 C1032 1.394 . S
C1034 C1035 1.369 . S
C1034 C1038 1.510 1_545 S
C1035 C1034 1.369 . S
C1035 C1036 1.410 . S
C1035 C1043 1.503 . S
C1036 C1035 1.410 . S
C1036 C1037 1.392 . S
C1036 C1039 1.511 . S
C1037 C1033 1.376 . S
C1037 C1036 1.392 . S
C1037 H1049 0.929 . S
C1038 C1034 1.510 1_565 S
C1038 H1050 0.952 1_565 S
C1038 H1051 0.985 . S
C1038 H1052 0.967 . S
C1039 C1036 1.511 . S
C1039 H1053 0.961 . S
C1039 H1054 0.961 . S
C1039 H1055 0.961 . S
C1040 C1041 1.370 . S
C1040 C1042 1.363 . S
C1040 H1056 0.931 . S
C1041 C1040 1.370 . S
C1041 C1045 1.408 . S
C1042 C1040 1.363 . S
C1042 C1043 1.370 . S
C1042 C1046 1.524 . S
C1043 C1035 1.503 . S
C1043 C1042 1.370 . S
C1043 C1044 1.403 . S
C1044 C1043 1.403 . S
C1044 C1045 1.404 . S
C1044 C1047 1.539 . S
C1045 C1041 1.408 . S
C1045 C1044 1.404 . S
C1045 H1057 0.930 . S
C1046 C1042 1.524 . S
C1046 H1058 0.956 1_545 S
C1046 H1059 0.961 . S
C1046 H1060 0.961 1_545 S
C1047 C1044 1.539 . S
C1047 H1061 0.958 . S
C1047 H1062 0.961 . S
C1047 H1063 0.960 . S
H1048 C1032 0.931 . S
H1049 C1037 0.929 . S
H1050 C1038 0.952 1_545 S
H1051 C1038 0.985 . S
H1052 C1038 0.967 . S
H1053 C1039 0.961 . S
H1054 C1039 0.961 . S
H1055 C1039 0.961 . S
H1056 C1040 0.931 . S
H1057 C1045 0.930 . S
H1058 C1046 0.956 1_565 S
H1059 C1046 0.961 . S
H1060 C1046 0.961 1_565 S
H1061 C1047 0.958 . S
H1062 C1047 0.961 . S
H1063 C1047 0.960 . S
C1064 C1065 1.391 . S
C1064 C1066 1.394 . S
C1064 H1080 0.931 . S
C1065 C1064 1.391 . S
C1065 C1069 1.376 . S
C1066 C1064 1.394 . S
C1066 C1067 1.369 . S
C1066 C1070 1.531 . S
C1067 C1066 1.369 . S
C1067 C1068 1.410 . S
C1067 C1075 1.503 . S
C1068 C1067 1.410 . S
C1068 C1069 1.392 . S
C1068 C1071 1.511 . S
C1069 C1065 1.376 . S
C1069 C1068 1.392 . S
C1069 H1081 0.929 . S
C1070 C1066 1.531 . S
C1070 H1082 0.960 . S
C1070 H1083 0.962 . S
C1070 H1084 0.960 . S
C1071 C1068 1.511 . S
C1071 H1085 0.961 . S
C1071 H1086 0.961 . S
C1071 H1087 0.961 . S
C1072 C1073 1.370 . S
C1072 C1074 1.363 . S
C1072 H1088 0.931 . S
C1073 C1072 1.370 . S
C1073 C1077 1.408 . S
C1074 C1072 1.363 . S
C1074 C1075 1.370 . S
C1074 C1078 1.524 . S
C1075 C1067 1.503 . S
C1075 C1074 1.370 . S
C1075 C1076 1.403 . S
C1076 C1075 1.403 . S
C1076 C1077 1.404 . S
C1076 C1079 1.539 . S
C1077 C1073 1.408 . S
C1077 C1076 1.404 . S
C1077 H1089 0.930 . S
C1078 C1074 1.524 . S
C1078 H1090 0.956 . S
C1078 H1091 0.961 . S
C1078 H1092 0.961 . S
C1079 C1076 1.539 . S
C1079 H1093 0.958 1_556 S
C1079 H1094 0.961 . S
C1079 H1095 0.960 . S
H1080 C1064 0.931 . S
H1081 C1069 0.929 . S
H1082 C1070 0.960 . S
H1083 C1070 0.962 . S
H1084 C1070 0.960 . S
H1085 C1071 0.961 . S
H1086 C1071 0.961 . S
H1087 C1071 0.961 . S
H1088 C1072 0.931 . S
H1089 C1077 0.930 . S
H1090 C1078 0.956 . S
H1091 C1078 0.961 . S
H1092 C1078 0.961 . S
H1093 C1079 0.958 1_554 S
H1094 C1079 0.961 . S
H1095 C1079 0.960 . S
C1096 C1097 1.391 . S
C1096 C1098 1.394 . S
C1096 H1112 0.931 . S
C1097 C1096 1.391 . S
C1097 C1101 1.376 . S
C1098 C1096 1.394 . S
C1098 C1099 1.369 . S
C1098 C1102 1.531 . S
C1099 C1098 1.369 . S
C1099 C1100 1.410 . S
C1099 C1107 1.503 . S
C1100 C1099 1.410 . S
C1100 C1101 1.392 . S
C1100 C1103 1.511 . S
C1101 C1097 1.376 . S
C1101 C1100 1.392 . S
C1101 H1113 0.929 . S
C1102 C1098 1.531 . S
C1102 H1114 0.960 . S
C1102 H1115 0.962 . S
C1102 H1116 0.960 . S
C1103 C1100 1.511 . S
C1103 H1117 0.961 . S
C1103 H1118 0.961 . S
C1103 H1119 0.961 . S
C1104 C1105 1.370 . S
C1104 C1106 1.363 . S
C1104 H1120 0.931 . S
C1105 C1104 1.370 . S
C1105 C1109 1.408 . S
C1106 C1104 1.363 . S
C1106 C1107 1.370 . S
C1106 C1110 1.524 . S
C1107 C1099 1.503 . S
C1107 C1106 1.370 . S
C1107 C1108 1.403 . S
C1108 C1107 1.403 . S
C1108 C1109 1.404 . S
C1108 C1111 1.539 . S
C1109 C1105 1.408 . S
C1109 C1108 1.404 . S
C1109 H1121 0.930 . S
C1110 C1106 1.524 . S
C1110 H1122 0.956 . S
C1110 H1123 0.961 . S
C1110 H1124 0.961 . S
C1111 C1108 1.539 . S
C1111 H1125 0.958 1_556 S
C1111 H1126 0.961 . S
C1111 H1127 0.960 . S
H1112 C1096 0.931 . S
H1113 C1101 0.929 . S
H1114 C1102 0.960 . S
H1115 C1102 0.962 . S
H1116 C1102 0.960 . S
H1117 C1103 0.961 . S
H1118 C1103 0.961 . S
H1119 C1103 0.961 . S
H1120 C1104 0.931 . S
H1121 C1109 0.930 . S
H1122 C1110 0.956 . S
H1123 C1110 0.961 . S
H1124 C1110 0.961 . S
H1125 C1111 0.958 1_554 S
H1126 C1111 0.961 . S
H1127 C1111 0.960 . S
C1128 C1129 1.391 . S
C1128 C1130 1.394 . S
C1128 H1144 0.931 . S
C1129 C1128 1.391 . S
C1129 C1133 1.376 1_655 S
C1130 C1128 1.394 . S
C1130 C1131 1.369 . S
C1130 C1134 1.531 . S
C1131 C1130 1.369 . S
C1131 C1132 1.410 1_655 S
C1131 C1139 1.503 . S
C1132 C1131 1.410 1_455 S
C1132 C1133 1.392 . S
C1132 C1135 1.511 . S
C1133 C1129 1.376 1_455 S
C1133 C1132 1.392 . S
C1133 H1145 0.929 . S
C1134 C1130 1.531 . S
C1134 H1146 0.960 . S
C1134 H1147 0.962 . S
C1134 H1148 0.960 . S
C1135 C1132 1.511 . S
C1135 H1149 0.961 . S
C1135 H1150 0.961 . S
C1135 H1151 0.961 . S
C1136 C1137 1.370 . S
C1136 C1138 1.363 . S
C1136 H1152 0.931 . S
C1137 C1136 1.370 . S
C1137 C1141 1.408 1_655 S
C1138 C1136 1.363 . S
C1138 C1139 1.370 . S
C1138 C1142 1.524 . S
C1139 C1131 1.503 . S
C1139 C1138 1.370 . S
C1139 C1140 1.403 1_655 S
C1140 C1139 1.403 1_455 S
C1140 C1141 1.404 . S
C1140 C1143 1.539 . S
C1141 C1137 1.408 1_455 S
C1141 C1140 1.404 . S
C1141 H1153 0.930 . S
C1142 C1138 1.524 . S
C1142 H1154 0.956 . S
C1142 H1155 0.961 . S
C1142 H1156 0.961 . S
C1143 C1140 1.539 . S
C1143 H1157 0.958 . S
C1143 H1158 0.961 . S
C1143 H1159 0.960 . S
H1144 C1128 0.931 . S
H1145 C1133 0.929 . S
H1146 C1134 0.960 . S
H1147 C1134 0.962 . S
H1148 C1134 0.960 . S
H1149 C1135 0.961 . S
H1150 C1135 0.961 . S
H1151 C1135 0.961 . S
H1152 C1136 0.931 . S
H1153 C1141 0.930 . S
H1154 C1142 0.956 . S
H1155 C1142 0.961 . S
H1156 C1142 0.961 . S
H1157 C1143 0.958 . S
H1158 C1143 0.961 . S
H1159 C1143 0.960 . S
C1160 C1161 1.391 . S
C1160 C1162 1.394 . S
C1160 H1176 0.931 . S
C1161 C1160 1.391 . S
C1161 C1165 1.376 1_565 S
C1162 C1160 1.394 . S
C1162 C1163 1.369 . S
C1162 C1166 1.531 . S
C1163 C1162 1.369 . S
C1163 C1164 1.410 1_565 S
C1163 C1171 1.503 . S
C1164 C1163 1.410 1_545 S
C1164 C1165 1.392 . S
C1164 C1167 1.511 . S
C1165 C1161 1.376 1_545 S
C1165 C1164 1.392 . S
C1165 H1177 0.929 . S
C1166 C1162 1.531 . S
C1166 H1178 0.960 . S
C1166 H1179 0.962 . S
C1166 H1180 0.960 . S
C1167 C1164 1.511 . S
C1167 H1181 0.961 . S
C1167 H1182 0.961 . S
C1167 H1183 0.961 . S
C1168 C1169 1.370 . S
C1168 C1170 1.363 . S
C1168 H1184 0.931 . S
C1169 C1168 1.370 . S
C1169 C1173 1.408 1_565 S
C1170 C1168 1.363 . S
C1170 C1171 1.370 . S
C1170 C1174 1.524 . S
C1171 C1163 1.503 . S
C1171 C1170 1.370 . S
C1171 C1172 1.408 . S
C1172 C1171 1.408 . S
C1172 C1173 1.402 1_565 S
C1172 C1175 1.535 1_565 S
C1173 C1169 1.408 1_545 S
C1173 C1172 1.402 1_545 S
C1173 H1185 0.930 . S
C1174 C1170 1.524 . S
C1174 H1186 0.956 . S
C1174 H1187 0.961 . S
C1174 H1188 0.961 . S
C1175 C1172 1.535 1_545 S
C1175 H1189 0.958 1_545 S
C1175 H1190 0.961 . S
C1175 H1191 0.960 . S
H1176 C1160 0.931 . S
H1177 C1165 0.929 . S
H1178 C1166 0.960 . S
H1179 C1166 0.962 . S
H1180 C1166 0.960 . S
H1181 C1167 0.961 . S
H1182 C1167 0.961 . S
H1183 C1167 0.961 . S
H1184 C1168 0.931 . S
H1185 C1173 0.930 . S
H1186 C1174 0.956 . S
H1187 C1174 0.961 . S
H1188 C1174 0.961 . S
H1189 C1175 0.958 1_565 S
H1190 C1175 0.961 . S
H1191 C1175 0.960 . S
C1192 C1193 1.391 . S
C1192 C1194 1.394 . S
C1192 H1208 0.931 . S
C1193 C1192 1.391 . S
C1193 C1197 1.376 . S
C1194 C1192 1.394 . S
C1194 C1195 1.369 . S
C1194 C1198 1.531 . S
C1195 C1194 1.369 . S
C1195 C1196 1.410 . S
C1195 C1203 1.503 . S
C1196 C1195 1.410 . S
C1196 C1197 1.392 . S
C1196 C1199 1.511 . S
C1197 C1193 1.376 . S
C1197 C1196 1.392 . S
C1197 H1209 0.929 . S
C1198 C1194 1.531 . S
C1198 H1210 0.960 . S
C1198 H1211 0.962 . S
C1198 H1212 0.960 . S
C1199 C1196 1.511 . S
C1199 H1213 0.961 . S
C1199 H1214 0.961 . S
C1199 H1215 0.961 . S
C1200 C1201 1.370 . S
C1200 C1202 1.363 . S
C1200 H1216 0.931 . S
C1201 C1200 1.370 . S
C1201 C1205 1.408 . S
C1202 C1200 1.363 . S
C1202 C1203 1.370 . S
C1202 C1206 1.524 . S
C1203 C1195 1.503 . S
C1203 C1202 1.370 . S
C1203 C1204 1.403 . S
C1204 C1203 1.403 . S
C1204 C1205 1.404 . S
C1204 C1207 1.539 . S
C1205 C1201 1.408 . S
C1205 C1204 1.404 . S
C1205 H1217 0.930 . S
C1206 C1202 1.524 . S
C1206 H1218 0.956 . S
C1206 H1219 0.961 . S
C1206 H1220 0.961 . S
C1207 C1204 1.539 . S
C1207 H1221 0.958 . S
C1207 H1222 0.961 . S
C1207 H1223 0.960 . S
H1208 C1192 0.931 . S
H1209 C1197 0.929 . S
H1210 C1198 0.960 . S
H1211 C1198 0.962 . S
H1212 C1198 0.960 . S
H1213 C1199 0.961 . S
H1214 C1199 0.961 . S
H1215 C1199 0.961 . S
H1216 C1200 0.931 . S
H1217 C1205 0.930 . S
H1218 C1206 0.956 . S
H1219 C1206 0.961 . S
H1220 C1206 0.961 . S
H1221 C1207 0.958 . S
H1222 C1207 0.961 . S
H1223 C1207 0.960 . S
C1224 C1225 1.391 . S
C1224 C1226 1.394 . S
C1224 H1240 0.931 . S
C1225 C1224 1.391 . S
C1225 C1229 1.376 . S
C1226 C1224 1.394 . S
C1226 C1227 1.369 . S
C1226 C1230 1.531 . S
C1227 C1226 1.369 . S
C1227 C1228 1.410 . S
C1227 C1235 1.503 . S
C1228 C1227 1.410 . S
C1228 C1229 1.392 . S
C1228 C1231 1.511 . S
C1229 C1225 1.376 . S
C1229 C1228 1.392 . S
C1229 H1241 0.929 . S
C1230 C1226 1.531 . S
C1230 H1242 0.960 . S
C1230 H1243 0.962 . S
C1230 H1244 0.960 . S
C1231 C1228 1.511 . S
C1231 H1245 0.961 . S
C1231 H1246 0.961 . S
C1231 H1247 0.961 . S
C1232 C1233 1.370 . S
C1232 C1234 1.363 . S
C1232 H1248 0.931 . S
C1233 C1232 1.370 . S
C1233 C1237 1.408 . S
C1234 C1232 1.363 . S
C1234 C1235 1.370 . S
C1234 C1238 1.524 . S
C1235 C1227 1.503 . S
C1235 C1234 1.370 . S
C1235 C1236 1.403 . S
C1236 C1235 1.403 . S
C1236 C1237 1.404 . S
C1236 C1239 1.539 . S
C1237 C1233 1.408 . S
C1237 C1236 1.404 . S
C1237 H1249 0.930 . S
C1238 C1234 1.524 . S
C1238 H1250 0.956 . S
C1238 H1251 0.961 . S
C1238 H1252 0.961 . S
C1239 C1236 1.539 . S
C1239 H1253 0.958 . S
C1239 H1254 0.961 . S
C1239 H1255 0.960 . S
H1240 C1224 0.931 . S
H1241 C1229 0.929 . S
H1242 C1230 0.960 . S
H1243 C1230 0.962 . S
H1244 C1230 0.960 . S
H1245 C1231 0.961 . S
H1246 C1231 0.961 . S
H1247 C1231 0.961 . S
H1248 C1232 0.931 . S
H1249 C1237 0.930 . S
H1250 C1238 0.956 . S
H1251 C1238 0.961 . S
H1252 C1238 0.961 . S
H1253 C1239 0.958 . S
H1254 C1239 0.961 . S
H1255 C1239 0.960 . S
C489 C125 1.948 . S
C497 C215 2.016 . S
C529 C292 2.032 . S
C521 C144 1.940 . S
C561 C383 2.018 . S
C553 C87 1.965 . S
C593 C467 2.008 . S
C585 C106 1.958 . S
C625 C226 2.032 . S
C617 C49 2.012 . S
C649 C68 2.001 . S
C657 C303 2.029 . S
C681 C11 1.989 . S
C689 C394 2.016 . S
C713 C30 1.983 . S
C721 C478 2.004 1_655 S
C753 C210 0.707 1_455 S
C745 C97 0.684 . S
C785 C305 0.685 . S
C777 C116 0.707 . S
C817 C378 0.698 . S
C809 C135 0.608 . S
C841 C78 0.626 . S
C849 C462 0.628 . S
C873 C21 0.725 . S
C881 C221 0.684 . S
C913 C294 0.687 1_556 S
C905 C40 0.696 . S
C945 C389 0.674 . S
C937 C59 0.596 . S
C969 C2 0.688 . S
C977 C473 0.693 . S
C1001 C101 1.971 . S
C1009 C219 2.103 . S
C1033 C120 1.971 . S
C1041 C310 2.132 . S
C1073 C387 2.132 . S
C1065 C139 1.922 . S
C1105 C471 2.136 . S
C1097 C82 1.928 . S
C1129 C25 1.968 . S
C1137 C208 2.106 . S
C1169 C299 2.131 1_565 S
C1161 C44 1.978 . S
C1201 C376 2.130 . S
C1193 C63 1.933 . S
C1225 C6 1.928 . S
C1233 C460 2.135 . S
