# Generated by pormake.
# Topology zzz, (3,6)-cn, num edge types: 1
# Building blocks:
#     Node 0, Type 0, BuildingBlock: VETTIZ_charged_linker_0, # of connection points: 3
#     Node 1, Type 0, BuildingBlock: VETTIZ_charged_linker_0, # of connection points: 3
#     Node 2, Type 0, BuildingBlock: VETTIZ_charged_linker_0, # of connection points: 3
#     Node 3, Type 0, BuildingBlock: VETTIZ_charged_linker_0, # of connection points: 3
#     Node 4, Type 0, BuildingBlock: VETTIZ_charged_linker_0, # of connection points: 3
#     Node 5, Type 0, BuildingBlock: VETTIZ_charged_linker_0, # of connection points: 3
#     Node 6, Type 0, BuildingBlock: VETTIZ_charged_linker_0, # of connection points: 3
#     Node 7, Type 0, BuildingBlock: VETTIZ_charged_linker_0, # of connection points: 3
#     Node 8, Type 1, BuildingBlock: MIFKUJ_clean_sbu_0, # of connection points: 6
#     Node 9, Type 1, BuildingBlock: MIFKUJ_clean_sbu_0, # of connection points: 6
#     Node 10, Type 1, BuildingBlock: MIFKUJ_clean_sbu_0, # of connection points: 6
#     Node 11, Type 1, BuildingBlock: MIFKUJ_clean_sbu_0, # of connection points: 6
#     Edge 12, Type (0, 1), BuildingBlock: CIFDUS_clean_linker_0, # of connection points: 2
#     Edge 13, Type (0, 1), BuildingBlock: CIFDUS_clean_linker_0, # of connection points: 2
#     Edge 14, Type (0, 1), BuildingBlock: CIFDUS_clean_linker_0, # of connection points: 2
#     Edge 15, Type (0, 1), BuildingBlock: CIFDUS_clean_linker_0, # of connection points: 2
#     Edge 16, Type (0, 1), BuildingBlock: CIFDUS_clean_linker_0, # of connection points: 2
#     Edge 17, Type (0, 1), BuildingBlock: CIFDUS_clean_linker_0, # of connection points: 2
#     Edge 18, Type (0, 1), BuildingBlock: CIFDUS_clean_linker_0, # of connection points: 2
#     Edge 19, Type (0, 1), BuildingBlock: CIFDUS_clean_linker_0, # of connection points: 2
#     Edge 20, Type (0, 1), BuildingBlock: CIFDUS_clean_linker_0, # of connection points: 2
#     Edge 21, Type (0, 1), BuildingBlock: CIFDUS_clean_linker_0, # of connection points: 2
#     Edge 22, Type (0, 1), BuildingBlock: CIFDUS_clean_linker_0, # of connection points: 2
#     Edge 23, Type (0, 1), BuildingBlock: CIFDUS_clean_linker_0, # of connection points: 2
#     Edge 24, Type (0, 1), BuildingBlock: CIFDUS_clean_linker_0, # of connection points: 2
#     Edge 25, Type (0, 1), BuildingBlock: CIFDUS_clean_linker_0, # of connection points: 2
#     Edge 26, Type (0, 1), BuildingBlock: CIFDUS_clean_linker_0, # of connection points: 2
#     Edge 27, Type (0, 1), BuildingBlock: CIFDUS_clean_linker_0, # of connection points: 2
#     Edge 28, Type (0, 1), BuildingBlock: CIFDUS_clean_linker_0, # of connection points: 2
#     Edge 29, Type (0, 1), BuildingBlock: CIFDUS_clean_linker_0, # of connection points: 2
#     Edge 30, Type (0, 1), BuildingBlock: CIFDUS_clean_linker_0, # of connection points: 2
#     Edge 31, Type (0, 1), BuildingBlock: CIFDUS_clean_linker_0, # of connection points: 2
#     Edge 32, Type (0, 1), BuildingBlock: CIFDUS_clean_linker_0, # of connection points: 2
#     Edge 33, Type (0, 1), BuildingBlock: CIFDUS_clean_linker_0, # of connection points: 2
#     Edge 34, Type (0, 1), BuildingBlock: CIFDUS_clean_linker_0, # of connection points: 2
#     Edge 35, Type (0, 1), BuildingBlock: CIFDUS_clean_linker_0, # of connection points: 2
# Relax obj value: 0.323
# Max RMSD: 0.215
# Mean RMSD: 0.195
data_MOF--net-zzz--node1-MIFKUJ_clean_sbu_0--node2-VETTIZ_charged_linker_0--edge1-CIFDUS_clean_linker_0
_symmetry_space_group_name_H-M    P1
_symmetry_Int_Tables_number       1
_symmetry_cell_setting            triclinic
loop_
_symmetry_equiv_pos_as_xyz
'x, y, z'
_cell_length_a     50.324446
_cell_length_b     51.93129
_cell_length_c     19.141283
_cell_angle_alpha  89.699215
_cell_angle_beta   89.756582
_cell_angle_gamma 91.721293
loop_
_atom_site_label
_atom_site_type_symbol
_atom_site_fract_x
_atom_site_fract_y
_atom_site_fract_z
_atom_type_partial_charge
C0 C 0.76887 0.55844 0.25993 0.0
C1 C 0.79448 0.56788 0.28162 0.0
C2 C 0.80472 0.59091 0.25085 0.0
C3 C 0.76986 0.58942 0.16563 0.0
C4 C 0.75637 0.57042 0.20245 0.0
C5 C 0.72879 0.56597 0.17069 0.0
H6 H 0.66107 0.56967 0.85875 0.0
C7 C 0.75685 0.59319 0.09866 0.0
C8 C 0.7317 0.5806 0.10081 0.0
H9 H 0.62404 0.55227 0.05778 0.0
H10 H 0.66709 0.56009 0.11621 0.0
H11 H 0.68982 0.61822 0.89785 0.0
H12 H 0.71194 0.5397 0.88771 0.0
H13 H 0.74175 0.55643 0.86879 0.0
H14 H 0.7134 0.56032 0.81259 0.0
H15 H 0.69726 0.60209 0.81779 0.0
H16 H 0.72258 0.61966 0.86596 0.0
C17 C 0.70859 0.5787 0.21927 0.0
C18 C 0.72258 0.53706 0.16063 0.0
C19 C 0.8206 0.6026 0.89679 0.0
C20 C 0.81749 0.596 0.82646 0.0
C21 C 0.79198 0.59457 0.79726 0.0
C22 C 0.76965 0.59733 0.83989 0.0
C23 C 0.77307 0.60028 0.91253 0.0
C24 C 0.79826 0.60372 0.93944 0.0
C25 C 0.79871 0.6037 0.01781 0.0
C26 C 0.76912 0.59962 0.03389 0.0
C27 C 0.75467 0.59676 0.97209 0.0
C28 C 0.81039 0.63003 0.04293 0.0
C29 C 0.81518 0.5805 0.04218 0.0
C30 C 0.66179 0.56792 0.91518 0.0
C31 C 0.63903 0.56111 0.95365 0.0
C32 C 0.64134 0.5579 0.02689 0.0
C33 C 0.66613 0.56256 0.06065 0.0
C34 C 0.68857 0.5703 0.02053 0.0
C35 C 0.68571 0.57283 0.94899 0.0
C36 C 0.71051 0.58154 0.91257 0.0
C37 C 0.72832 0.58679 0.97417 0.0
C38 C 0.71631 0.57906 0.03792 0.0
C39 C 0.70491 0.60657 0.87084 0.0
C40 C 0.71996 0.55856 0.86769 0.0
H41 H 0.80041 0.61944 0.17178 0.0
H42 H 0.75943 0.54192 0.28556 0.0
H43 H 0.73809 0.52833 0.12754 0.0
H44 H 0.70311 0.53379 0.13499 0.0
H45 H 0.72189 0.52685 0.21178 0.0
H46 H 0.71472 0.59909 0.22966 0.0
H47 H 0.70727 0.56835 0.2702 0.0
H48 H 0.68854 0.57901 0.19661 0.0
H49 H 0.84016 0.60367 0.92018 0.0
H50 H 0.78932 0.58964 0.74274 0.0
H51 H 0.75068 0.5951 0.81515 0.0
H52 H 0.81893 0.64197 0.99945 0.0
H53 H 0.82695 0.62749 0.08026 0.0
H54 H 0.7949 0.64173 0.06795 0.0
H55 H 0.80679 0.56218 0.02044 0.0
H56 H 0.81586 0.57828 0.0993 0.0
H57 H 0.83622 0.58268 0.02495 0.0
H58 H 0.82357 0.59945 0.26709 0.0
C59 C 0.7921 0.60202 0.19402 0.0
C60 C 0.99745 0.76736 0.83722 0.0
C61 C 0.00405 0.79365 0.83618 0.0
C62 C 0.00412 0.80791 0.89836 0.0
C63 C 0.99215 0.76946 0.96289 0.0
C64 C 0.99172 0.75555 0.90158 0.0
C65 C 0.98471 0.7276 0.91362 0.0
H66 H 0.01686 0.62971 0.07812 0.0
C67 C 0.98722 0.75153 0.02101 0.0
C68 C 0.98233 0.72715 0.99349 0.0
H69 H 0.96388 0.63393 0.90015 0.0
H70 H 0.95119 0.67663 0.9372 0.0
H71 H 0.04154 0.68957 0.10802 0.0
H72 H 0.96067 0.66885 0.17392 0.0
H73 H 0.98298 0.68141 0.23851 0.0
H74 H 0.98786 0.64993 0.20365 0.0
H75 H 0.03574 0.66249 0.16608 0.0
H76 H 0.03255 0.69481 0.1978 0.0
C77 C 0.008 0.71152 0.88673 0.0
C78 C 0.95817 0.72094 0.87586 0.0
C79 C 0.99395 0.78702 0.26211 0.0
C80 C 0.99848 0.77731 0.3287 0.0
C81 C 0.00255 0.75047 0.3361 0.0
C82 C 0.00092 0.73376 0.2771 0.0
C83 C 0.99591 0.74422 0.21044 0.0
C84 C 0.99332 0.77066 0.20488 0.0
C85 C 0.99295 0.78003 0.13162 0.0
C86 C 0.99093 0.75483 0.09336 0.0
C87 C 0.9931 0.73334 0.13818 0.0
C88 C 0.01994 0.79481 0.11775 0.0
C89 C 0.96783 0.79625 0.12099 0.0
C90 C 0.00294 0.64003 0.04633 0.0
C91 C 0.99281 0.62913 0.98288 0.0
C92 C 0.973 0.64221 0.94641 0.0
C93 C 0.96648 0.66705 0.96519 0.0
C94 C 0.9804 0.67898 0.01926 0.0
C95 C 0.99494 0.66509 0.06564 0.0
C96 C 0.9996 0.68126 0.13191 0.0
C97 C 0.9902 0.70795 0.10839 0.0
C98 C 0.98122 0.70575 0.03913 0.0
C99 C 0.0291 0.68207 0.1522 0.0
C100 C 0.98183 0.66979 0.19053 0.0
H101 H 0.99724 0.80816 0.00639 0.0
H102 H 0.99644 0.75647 0.78914 0.0
H103 H 0.9532 0.73539 0.83529 0.0
H104 H 0.9412 0.72007 0.91321 0.0
H105 H 0.95909 0.70238 0.84762 0.0
H106 H 0.02664 0.71671 0.91504 0.0
H107 H 0.01147 0.71495 0.83004 0.0
H108 H 0.0041 0.69061 0.89323 0.0
H109 H 0.99248 0.80761 0.25378 0.0
H110 H 0.00714 0.74256 0.38693 0.0
H111 H 0.0046 0.71362 0.28416 0.0
H112 H 0.03514 0.79076 0.15814 0.0
H113 H 0.01745 0.81599 0.11735 0.0
H114 H 0.02943 0.789 0.06817 0.0
H115 H 0.95044 0.78731 0.149 0.0
H116 H 0.96167 0.79753 0.06576 0.0
H117 H 0.97098 0.8161 0.14132 0.0
H118 H 0.00808 0.82855 0.89759 0.0
C119 C 0.99785 0.79601 0.96154 0.0
C120 C 0.84702 0.94254 0.01356 0.0
C121 C 0.85859 0.93639 0.94801 0.0
C122 C 0.84675 0.91662 0.90763 0.0
C123 C 0.80915 0.91506 0.98549 0.0
C124 C 0.82237 0.93054 0.03265 0.0
C125 C 0.80633 0.93192 0.10047 0.0
H126 H 0.67899 0.92054 0.23488 0.0
C127 C 0.78217 0.90991 0.01008 0.0
C128 C 0.77993 0.91845 0.07955 0.0
H129 H 0.74825 0.94078 0.35688 0.0
H130 H 0.77674 0.93438 0.25324 0.0
H131 H 0.69345 0.95037 0.10394 0.0
H132 H 0.69881 0.87418 0.17727 0.0
H133 H 0.69837 0.86887 0.087 0.0
H134 H 0.67072 0.88429 0.12857 0.0
H135 H 0.66694 0.92682 0.09801 0.0
H136 H 0.6896 0.93305 0.02676 0.0
C137 C 0.80295 0.96019 0.12139 0.0
C138 C 0.82072 0.91638 0.15683 0.0
C139 C 0.70908 0.91635 0.83395 0.0
C140 C 0.68119 0.91526 0.84331 0.0
C141 C 0.67069 0.90024 0.89932 0.0
C142 C 0.68707 0.89266 0.95372 0.0
C143 C 0.71426 0.899 0.9498 0.0
C144 C 0.72531 0.9073 0.88763 0.0
C145 C 0.75526 0.90813 0.89097 0.0
C146 C 0.75932 0.9041 0.96981 0.0
C147 C 0.73489 0.9006 0.00357 0.0
C148 C 0.76616 0.93466 0.86493 0.0
C149 C 0.76555 0.88564 0.84634 0.0
C150 C 0.7003 0.92359 0.24021 0.0
C151 C 0.71127 0.9308 0.30416 0.0
C152 C 0.7392 0.9351 0.30789 0.0
C153 C 0.75563 0.93141 0.24805 0.0
C154 C 0.74389 0.92363 0.18428 0.0
C155 C 0.71659 0.91965 0.18269 0.0
C156 C 0.7065 0.90994 0.11459 0.0
C157 C 0.73223 0.90774 0.07451 0.0
C158 C 0.75442 0.91659 0.11361 0.0
C159 C 0.68809 0.93081 0.08391 0.0
C160 C 0.69271 0.88307 0.12702 0.0
H161 H 0.81361 0.89035 0.89605 0.0
H162 H 0.85648 0.95669 0.04731 0.0
H163 H 0.8246 0.89662 0.13789 0.0
H164 H 0.80883 0.91424 0.20516 0.0
H165 H 0.84013 0.92586 0.17003 0.0
H166 H 0.79377 0.97109 0.07806 0.0
H167 H 0.82251 0.96953 0.13366 0.0
H168 H 0.79009 0.96183 0.16795 0.0
H169 H 0.71818 0.92585 0.78928 0.0
H170 H 0.64955 0.89621 0.90454 0.0
H171 H 0.67778 0.88379 0.9985 0.0
H172 H 0.75731 0.95048 0.89529 0.0
H173 H 0.76164 0.93754 0.80876 0.0
H174 H 0.788 0.93652 0.86958 0.0
H175 H 0.75061 0.87871 0.80753 0.0
H176 H 0.77046 0.86881 0.87952 0.0
H177 H 0.78329 0.89161 0.81497 0.0
H178 H 0.85576 0.91081 0.85888 0.0
C179 C 0.82215 0.90562 0.92689 0.0
C180 C 0.47415 0.73169 0.2936 0.0
C181 C 0.47305 0.70462 0.30687 0.0
C182 C 0.46507 0.68793 0.25325 0.0
C183 C 0.46189 0.72351 0.1727 0.0
C184 C 0.46836 0.74081 0.22495 0.0
C185 C 0.46827 0.76844 0.19617 0.0
H186 H 0.46574 0.84163 0.89131 0.0
C187 C 0.45908 0.73745 0.10635 0.0
C188 C 0.4629 0.76408 0.11784 0.0
H189 H 0.47015 0.87335 0.09841 0.0
H190 H 0.46748 0.82937 0.14889 0.0
H191 H 0.50404 0.79419 0.91648 0.0
H192 H 0.42023 0.8066 0.91998 0.0
H193 H 0.42255 0.7748 0.89129 0.0
H194 H 0.43753 0.80072 0.83993 0.0
H195 H 0.48464 0.80011 0.83992 0.0
H196 H 0.48907 0.76795 0.87275 0.0
C197 C 0.4955 0.7818 0.20885 0.0
C198 C 0.44541 0.78271 0.23112 0.0
C199 C 0.44679 0.68361 0.88903 0.0
C200 C 0.44626 0.68956 0.81747 0.0
C201 C 0.44736 0.71557 0.79623 0.0
C202 C 0.44983 0.73524 0.8457 0.0
C203 C 0.45107 0.72884 0.9172 0.0
C204 C 0.44921 0.7034 0.93743 0.0
C205 C 0.45176 0.69987 0.01467 0.0
C206 C 0.45516 0.72762 0.03821 0.0
C207 C 0.45494 0.74431 0.98115 0.0
C208 C 0.47719 0.68421 0.02794 0.0
C209 C 0.4253 0.68713 0.04189 0.0
C210 C 0.46641 0.83927 0.94764 0.0
C211 C 0.46842 0.86069 0.99065 0.0
C212 C 0.46879 0.85689 0.06401 0.0
C213 C 0.46732 0.83153 0.09303 0.0
C214 C 0.4654 0.81008 0.048 0.0
C215 C 0.46465 0.81471 0.97661 0.0
C216 C 0.4606 0.79108 0.93441 0.0
C217 C 0.45883 0.77099 0.99107 0.0
C218 C 0.46232 0.78145 0.05867 0.0
C219 C 0.4857 0.78808 0.88792 0.0
C220 C 0.43402 0.79329 0.89381 0.0
H221 H 0.45402 0.6828 0.14972 0.0
H222 H 0.4796 0.74507 0.33464 0.0
H223 H 0.42636 0.77149 0.22573 0.0
H224 H 0.44254 0.80179 0.20708 0.0
H225 H 0.44935 0.78545 0.28772 0.0
H226 H 0.51166 0.77017 0.18663 0.0
H227 H 0.49914 0.78417 0.26571 0.0
H228 H 0.49689 0.80106 0.18412 0.0
H229 H 0.44693 0.66384 0.90739 0.0
H230 H 0.44711 0.72066 0.74129 0.0
H231 H 0.45139 0.75456 0.82588 0.0
H232 H 0.49236 0.6878 0.98625 0.0
H233 H 0.47254 0.66317 0.02915 0.0
H234 H 0.48766 0.68971 0.0765 0.0
H235 H 0.40832 0.69132 0.00699 0.0
H236 H 0.41921 0.69468 0.09337 0.0
H237 H 0.42665 0.66585 0.04531 0.0
H238 H 0.46343 0.6673 0.26243 0.0
C239 C 0.45948 0.69709 0.18722 0.0
C240 C 0.34802 0.43697 0.18467 0.0
C241 C 0.35915 0.43129 0.25073 0.0
C242 C 0.34637 0.41268 0.29389 0.0
C243 C 0.30857 0.41199 0.21798 0.0
C244 C 0.32253 0.42631 0.16862 0.0
C245 C 0.3064 0.42822 0.10179 0.0
H246 H 0.18037 0.42463 0.96715 0.0
C247 C 0.28121 0.40799 0.19493 0.0
C248 C 0.27942 0.41639 0.12511 0.0
H249 H 0.25266 0.43959 0.84896 0.0
H250 H 0.27874 0.43149 0.95327 0.0
H251 H 0.19573 0.37634 0.03151 0.0
H252 H 0.20004 0.45353 0.1093 0.0
H253 H 0.18498 0.43376 0.17388 0.0
H254 H 0.16996 0.43558 0.08965 0.0
H255 H 0.16832 0.38942 0.07794 0.0
H256 H 0.19412 0.37229 0.12251 0.0
C257 C 0.31973 0.41152 0.04605 0.0
C258 C 0.30464 0.45669 0.07976 0.0
C259 C 0.2098 0.40581 0.38285 0.0
C260 C 0.18195 0.40488 0.37817 0.0
C261 C 0.16988 0.39828 0.31427 0.0
C262 C 0.18516 0.39549 0.25411 0.0
C263 C 0.21278 0.39944 0.25771 0.0
C264 C 0.22488 0.40246 0.32179 0.0
C265 C 0.25471 0.40287 0.31541 0.0
C266 C 0.25804 0.40281 0.23563 0.0
C267 C 0.23329 0.40198 0.20293 0.0
C268 C 0.26494 0.37812 0.35099 0.0
C269 C 0.26606 0.42794 0.34872 0.0
C270 C 0.20179 0.42563 0.96205 0.0
C271 C 0.21411 0.43262 0.89862 0.0
C272 C 0.2423 0.43446 0.89694 0.0
C273 C 0.25751 0.42963 0.95746 0.0
C274 C 0.24452 0.42277 0.02043 0.0
C275 C 0.21709 0.42048 0.02082 0.0
C276 C 0.20592 0.41222 0.08998 0.0
C277 C 0.23114 0.40883 0.13141 0.0
C278 C 0.25396 0.41584 0.09177 0.0
C279 C 0.19005 0.38635 0.08037 0.0
C280 C 0.18923 0.43473 0.11755 0.0
H281 H 0.3122 0.38872 0.31137 0.0
H282 H 0.35819 0.45011 0.14875 0.0
H283 H 0.29705 0.46831 0.12375 0.0
H284 H 0.29113 0.45926 0.03523 0.0
H285 H 0.32453 0.46473 0.06434 0.0
H286 H 0.32462 0.3924 0.06824 0.0
H287 H 0.33852 0.42096 0.02697 0.0
H288 H 0.30672 0.40751 0.00102 0.0
H289 H 0.21939 0.41027 0.43202 0.0
H290 H 0.14842 0.39754 0.3094 0.0
H291 H 0.17467 0.39208 0.20642 0.0
H292 H 0.24895 0.36681 0.37864 0.0
H293 H 0.28013 0.38276 0.39131 0.0
H294 H 0.27349 0.36483 0.31212 0.0
H295 H 0.25737 0.44511 0.32371 0.0
H296 H 0.28786 0.42988 0.34365 0.0
H297 H 0.26153 0.42842 0.40552 0.0
H298 H 0.35524 0.40695 0.34288 0.0
C299 C 0.32127 0.40273 0.27715 0.0
C300 C 0.98983 0.21517 0.34566 0.0
C301 C 0.98805 0.18848 0.33646 0.0
C302 C 0.9841 0.17819 0.26925 0.0
C303 C 0.98769 0.22048 0.21992 0.0
C304 C 0.9894 0.23087 0.28596 0.0
C305 C 0.9893 0.2597 0.28378 0.0
H306 H 0.01373 0.37013 0.1092 0.0
C307 C 0.98966 0.24139 0.16884 0.0
C308 C 0.99037 0.26451 0.20472 0.0
H309 H 0.98755 0.35652 0.3225 0.0
H310 H 0.98106 0.31222 0.29929 0.0
H311 H 0.04856 0.31437 0.08452 0.0
H312 H 0.96452 0.3231 0.03952 0.0
H313 H 0.98473 0.31255 0.96887 0.0
H314 H 0.98907 0.34484 0.00102 0.0
H315 H 0.03819 0.33916 0.0253 0.0
H316 H 0.03819 0.30612 0.99823 0.0
C317 C 0.01463 0.26999 0.32148 0.0
C318 C 0.96272 0.268 0.3176 0.0
C319 C 0.00238 0.21365 0.92276 0.0
C320 C 0.01013 0.22526 0.86023 0.0
C321 C 0.01414 0.25241 0.85833 0.0
C322 C 0.01049 0.26741 0.91983 0.0
C323 C 0.00319 0.25493 0.98321 0.0
C324 C 0.99947 0.22839 0.98235 0.0
C325 C 0.99367 0.21692 0.05173 0.0
C326 C 0.99367 0.2407 0.09607 0.0
C327 C 0.99899 0.26345 0.05736 0.0
C328 C 0.01701 0.19892 0.07009 0.0
C329 C 0.96557 0.20356 0.04852 0.0
C330 C 0.00675 0.35724 0.15041 0.0
C331 C 0.00238 0.36656 0.2191 0.0
C332 C 0.99211 0.34967 0.27047 0.0
C333 C 0.98826 0.32377 0.25695 0.0
C334 C 0.99473 0.31415 0.19137 0.0
C335 C 0.00243 0.33051 0.13746 0.0
C336 C 0.00548 0.31542 0.06963 0.0
C337 C 0.99936 0.28765 0.09396 0.0
C338 C 0.99393 0.2877 0.16641 0.0
C339 C 0.0342 0.31895 0.04259 0.0
C340 C 0.98485 0.32447 0.0165 0.0
H341 H 0.98193 0.1845 0.16218 0.0
H342 H 0.99159 0.22344 0.39732 0.0
H343 H 0.94864 0.25149 0.32822 0.0
H344 H 0.95164 0.28095 0.2826 0.0
H345 H 0.9662 0.27771 0.36848 0.0
H346 H 0.03253 0.26042 0.30104 0.0
H347 H 0.01327 0.2661 0.37854 0.0
H348 H 0.01841 0.29084 0.3144 0.0
H349 H 0.99939 0.19289 0.92604 0.0
H350 H 0.02018 0.26187 0.81006 0.0
H351 H 0.01374 0.28794 0.91658 0.0
H352 H 0.03552 0.20431 0.04077 0.0
H353 H 0.01194 0.17852 0.05737 0.0
H354 H 0.02314 0.20012 0.12539 0.0
H355 H 0.95267 0.21293 0.00937 0.0
H356 H 0.95436 0.20499 0.09822 0.0
H357 H 0.96683 0.18296 0.03388 0.0
H358 H 0.98124 0.15764 0.26118 0.0
C359 C 0.9842 0.19395 0.21126 0.0
C360 C 0.26784 0.06291 0.91249 0.0
C361 C 0.29491 0.06937 0.89465 0.0
C362 C 0.3098 0.08462 0.94189 0.0
C363 C 0.27405 0.08286 0.02578 0.0
C364 C 0.25757 0.07056 0.97863 0.0
C365 C 0.22978 0.06643 0.0109 0.0
H366 H 0.15794 0.06872 0.32122 0.0
C367 C 0.26068 0.08414 0.09379 0.0
C368 C 0.23407 0.07551 0.08676 0.0
H369 H 0.12561 0.04655 0.12115 0.0
H370 H 0.16882 0.05684 0.06565 0.0
H371 H 0.20255 0.03789 0.30907 0.0
H372 H 0.19517 0.11863 0.27343 0.0
H373 H 0.22424 0.11444 0.32295 0.0
H374 H 0.19268 0.10266 0.35678 0.0
H375 H 0.20862 0.06043 0.37775 0.0
H376 H 0.235 0.04984 0.32139 0.0
C377 C 0.22148 0.03772 0.00722 0.0
C378 C 0.21039 0.08377 0.97201 0.0
C379 C 0.32013 0.085 0.30257 0.0
C380 C 0.31549 0.07939 0.37357 0.0
C381 C 0.28948 0.08184 0.40005 0.0
C382 C 0.2683 0.08662 0.35467 0.0
C383 C 0.27319 0.08851 0.28223 0.0
C384 C 0.29895 0.08909 0.25827 0.0
C385 C 0.30106 0.09082 0.18042 0.0
C386 C 0.27191 0.08843 0.16054 0.0
C387 C 0.25583 0.08712 0.22009 0.0
C388 C 0.31734 0.06758 0.15481 0.0
C389 C 0.31358 0.11778 0.16205 0.0
C390 C 0.15938 0.06695 0.26498 0.0
C391 C 0.13789 0.05737 0.22601 0.0
C392 C 0.14176 0.05404 0.15304 0.0
C393 C 0.16679 0.05992 0.12084 0.0
C394 C 0.18831 0.06869 0.16219 0.0
C395 C 0.18392 0.07207 0.23306 0.0
C396 C 0.20858 0.07861 0.27248 0.0
C397 C 0.2285 0.08076 0.21372 0.0
C398 C 0.21718 0.0748 0.14797 0.0
C399 C 0.21406 0.05575 0.32308 0.0
C400 C 0.20509 0.10489 0.30889 0.0
H401 H 0.31238 0.10246 0.03911 0.0
H402 H 0.2554 0.05185 0.87694 0.0
H403 H 0.21803 0.1041 0.9715 0.0
H404 H 0.1906 0.08359 0.99711 0.0
H405 H 0.20796 0.07743 0.91698 0.0
H406 H 0.23712 0.02569 0.03038 0.0
H407 H 0.21847 0.03171 0.95213 0.0
H408 H 0.20285 0.03347 0.0363 0.0
H409 H 0.3395 0.08356 0.27887 0.0
H410 H 0.28523 0.07884 0.45502 0.0
H411 H 0.24883 0.08739 0.37736 0.0
H412 H 0.31183 0.04985 0.18512 0.0
H413 H 0.33901 0.0714 0.16134 0.0
H414 H 0.314 0.06231 0.09999 0.0
H415 H 0.3145 0.13093 0.20777 0.0
H416 H 0.30163 0.12809 0.12277 0.0
H417 H 0.33427 0.11628 0.14237 0.0
H418 H 0.33049 0.08981 0.93235 0.0
C419 C 0.29939 0.09174 0.0057 0.0
C420 C 0.52072 0.25998 0.89847 0.0
C421 C 0.52527 0.28649 0.88081 0.0
C422 C 0.53764 0.30279 0.92974 0.0
C423 C 0.53891 0.26829 0.01397 0.0
C424 C 0.52834 0.2511 0.96607 0.0
C425 C 0.5263 0.22401 0.99847 0.0
H426 H 0.53691 0.15477 0.30809 0.0
C427 C 0.54166 0.2553 0.08167 0.0
C428 C 0.53452 0.22905 0.07484 0.0
H429 H 0.51623 0.12148 0.10897 0.0
H430 H 0.52165 0.16431 0.05337 0.0
H431 H 0.58318 0.19645 0.25939 0.0
H432 H 0.49874 0.19691 0.29499 0.0
H433 H 0.51016 0.2284 0.31285 0.0
H434 H 0.52171 0.20189 0.36511 0.0
H435 H 0.56708 0.19014 0.34201 0.0
H436 H 0.5756 0.2224 0.31476 0.0
C437 C 0.54631 0.2069 0.96107 0.0
C438 C 0.49755 0.21334 0.99293 0.0
C439 C 0.56087 0.31305 0.28622 0.0
C440 C 0.55555 0.31046 0.3577 0.0
C441 C 0.55059 0.28565 0.38595 0.0
C442 C 0.54899 0.26406 0.34171 0.0
C443 C 0.55153 0.26765 0.26877 0.0
C444 C 0.55718 0.29197 0.24293 0.0
C445 C 0.55451 0.29379 0.16557 0.0
C446 C 0.54757 0.26608 0.14769 0.0
C447 C 0.54632 0.2508 0.20768 0.0
C448 C 0.58201 0.30275 0.13538 0.0
C449 C 0.53102 0.31196 0.15024 0.0
C450 C 0.53345 0.15637 0.25241 0.0
C451 C 0.52561 0.13477 0.21362 0.0
C452 C 0.52205 0.13791 0.14061 0.0
C453 C 0.52504 0.16269 0.10858 0.0
C454 C 0.53152 0.18437 0.15013 0.0
C455 C 0.53569 0.1805 0.22089 0.0
C456 C 0.54053 0.20477 0.26039 0.0
C457 C 0.54071 0.22414 0.20181 0.0
C458 C 0.53511 0.21274 0.13613 0.0
C459 C 0.56798 0.20349 0.29647 0.0
C460 C 0.51675 0.20826 0.31135 0.0
H461 H 0.55327 0.30801 0.02882 0.0
H462 H 0.51153 0.24686 0.86138 0.0
H463 H 0.48349 0.22721 0.01538 0.0
H464 H 0.4947 0.19496 0.02164 0.0
H465 H 0.49212 0.20999 0.93744 0.0
H466 H 0.56655 0.21611 0.9618 0.0
H467 H 0.54053 0.20392 0.90566 0.0
H468 H 0.54771 0.18786 0.98644 0.0
H469 H 0.56508 0.33181 0.26291 0.0
H470 H 0.5465 0.28313 0.4412 0.0
H471 H 0.5448 0.24567 0.36568 0.0
H472 H 0.59859 0.2974 0.17039 0.0
H473 H 0.58326 0.324 0.12837 0.0
H474 H 0.58665 0.29336 0.08512 0.0
H475 H 0.51636 0.3119 0.19399 0.0
H476 H 0.51891 0.30594 0.10483 0.0
H477 H 0.5382 0.3322 0.14241 0.0
H478 H 0.54124 0.32308 0.91829 0.0
C479 C 0.54456 0.29391 0.99499 0.0
Zn480 Zn 0.99689 0.0401 0.63257 0.0
Zn481 Zn 0.01144 0.96186 0.58271 0.0
C482 C 0.98899 0.09022 0.68468 0.0
O483 O 0.96505 0.07979 0.67737 0.0
C484 C 0.01123 0.91581 0.50113 0.0
O485 O 0.03661 0.92088 0.51201 0.0
O486 O 0.9714 0.05022 0.55998 0.0
O487 O 0.02254 0.01947 0.57008 0.0
O488 O 0.0377 0.98394 0.52688 0.0
C489 C 0.9869 0.06158 0.51696 0.0
O490 O 0.01204 0.06511 0.53313 0.0
O491 O 0.00886 0.07593 0.67391 0.0
C492 C 0.01313 0.92448 0.66739 0.0
O493 O 0.98825 0.93023 0.65606 0.0
O494 O 0.03151 0.93982 0.64592 0.0
O495 O 0.98788 0.98171 0.65381 0.0
O496 O 0.97518 0.01821 0.69946 0.0
O497 O 0.99453 0.93276 0.51936 0.0
C498 C 0.03887 0.00836 0.52978 0.0
C499 C 0.97344 0.99377 0.69735 0.0
Zn500 Zn 0.47083 0.00915 0.62174 0.0
Zn501 Zn 0.53362 0.98137 0.56709 0.0
C502 C 0.41853 0.01889 0.68195 0.0
O503 O 0.41464 -0.00486 0.66011 0.0
C504 C 0.58474 0.9814 0.5015 0.0
O505 O 0.58079 0.00574 0.51538 0.0
O506 O 0.44966 -0.00205 0.53833 0.0
O507 O 0.50112 0.03291 0.58115 0.0
O508 O 0.5169 0.00692 0.50103 0.0
C509 C 0.44367 0.01929 0.51082 0.0
O510 O 0.45219 0.04082 0.53968 0.0
O511 O 0.44188 0.02928 0.67592 0.0
C512 C 0.56633 0.98162 0.67083 0.0
O513 O 0.5628 0.95807 0.64748 0.0
O514 O 0.55397 -9e-05 0.64261 0.0
O515 O 0.51072 0.95522 0.62712 0.0
O516 O 0.48114 0.97916 0.68225 0.0
O517 O 0.56548 0.96519 0.51259 0.0
C518 C 0.50963 0.02919 0.51896 0.0
C519 C 0.4947 0.95892 0.67822 0.0
Zn520 Zn 0.49505 0.4633 0.63267 0.0
Zn521 Zn 0.50062 0.52588 0.57299 0.0
C522 C 0.51438 0.41698 0.68747 0.0
O523 O 0.53538 0.43236 0.67889 0.0
C524 C 0.48972 0.57621 0.50877 0.0
O525 O 0.46549 0.56891 0.52744 0.0
O526 O 0.5195 0.4557 0.55353 0.0
O527 O 0.46095 0.47634 0.58863 0.0
O528 O 0.48203 0.50018 0.50799 0.0
C529 C 0.50732 0.4399 0.51367 0.0
O530 O 0.48216 0.43409 0.52581 0.0
O531 O 0.49155 0.42634 0.67633 0.0
C532 C 0.48575 0.55643 0.6758 0.0
O533 O 0.5115 0.56013 0.66778 0.0
O534 O 0.47432 0.53796 0.64347 0.0
O535 O 0.53289 0.51533 0.63149 0.0
O536 O 0.51316 0.48657 0.7022 0.0
O537 O 0.5086 0.56047 0.51795 0.0
C538 C 0.46192 0.48648 0.52765 0.0
C539 C 0.53082 0.50418 0.69109 0.0
Zn540 Zn 0.04777 0.49536 0.5989 0.0
Zn541 Zn 0.96206 0.50133 0.58139 0.0
C542 C 0.09522 0.47789 0.65922 0.0
O543 O 0.10154 0.50168 0.64064 0.0
C544 C 0.91873 0.51363 0.49281 0.0
O545 O 0.91619 0.48854 0.50105 0.0
O546 O 0.07124 0.51352 0.52844 0.0
O547 O 0.01451 0.48017 0.55173 0.0
O548 O 0.97346 0.47225 0.51986 0.0
C549 C 0.07519 0.50011 0.47463 0.0
O550 O 0.05438 0.48947 0.44389 0.0
O551 O 0.0716 0.46932 0.64766 0.0
C552 C 0.93061 0.51389 0.67674 0.0
O553 O 0.94605 0.53322 0.65502 0.0
O554 O 0.93406 0.49159 0.65181 0.0
O555 O 0.99408 0.51628 0.64255 0.0
O556 O 0.03627 0.5209 0.67145 0.0
O557 O 0.93933 0.52519 0.51846 0.0
C558 C 0.99801 0.46785 0.51306 0.0
C559 C 0.01209 0.52616 0.68259 0.0
H560 H 0.11385 0.07988 0.33866 0.0
H561 H 0.10694 0.01368 0.20382 0.0
H562 H 0.07451 0.9936 0.28419 0.0
H563 H 0.05236 0.99239 0.39948 0.0
H564 H 0.06236 0.05686 0.539 0.0
H565 H 0.08964 0.07978 0.45092 0.0
C566 C 0.10517 0.06109 0.3264 0.0
C567 C 0.11338 0.04819 0.26524 0.0
C568 C 0.08742 0.04909 0.37464 0.0
C569 C 0.10113 0.02422 0.2498 0.0
C570 C 0.08282 0.01252 0.2965 0.0
C571 C 0.06047 0.01149 0.41077 0.0
C572 C 0.05512 0.0229 0.47611 0.0
C573 C 0.07659 0.02434 0.36024 0.0
C574 C 0.06568 0.04775 0.48911 0.0
C575 C 0.08144 0.0608 0.43875 0.0
H576 H 0.49751 0.12909 0.33316 0.0
H577 H 0.54226 0.08532 0.18537 0.0
H578 H 0.54031 0.04805 0.26569 0.0
H579 H 0.52899 0.02946 0.38345 0.0
H580 H 0.48981 0.0772 0.5342 0.0
H581 H 0.4871 0.11147 0.44796 0.0
C582 C 0.50681 0.11136 0.3181 0.0
C583 C 0.52024 0.11018 0.25338 0.0
C584 C 0.50697 0.09081 0.36593 0.0
C585 C 0.53164 0.08681 0.23444 0.0
C586 C 0.53083 0.06563 0.28093 0.0
C587 C 0.51983 0.04735 0.39746 0.0
C588 C 0.50924 0.0504 0.46564 0.0
C589 C 0.51912 0.06764 0.34777 0.0
C590 C 0.49779 0.07394 0.4825 0.0
C591 C 0.49622 0.09366 0.43303 0.0
H592 H 0.3567 0.46092 0.36326 0.0
H593 H 0.41202 0.43333 0.21092 0.0
H594 H 0.44946 0.45005 0.28179 0.0
H595 H 0.46605 0.46883 0.39396 0.0
H596 H 0.4094 0.49117 0.55027 0.0
H597 H 0.37275 0.48032 0.47129 0.0
C598 C 0.37699 0.45913 0.34485 0.0
C599 C 0.38169 0.44623 0.28181 0.0
C600 C 0.39808 0.46754 0.38731 0.0
C601 C 0.40797 0.44365 0.25864 0.0
C602 C 0.4293 0.4529 0.29967 0.0
C603 C 0.44564 0.47148 0.41012 0.0
C604 C 0.44027 0.48074 0.47776 0.0
C605 C 0.42458 0.46429 0.36509 0.0
C606 C 0.41387 0.48389 0.49872 0.0
C607 C 0.39298 0.47778 0.45353 0.0
H608 H 0.03893 0.38183 0.31269 0.0
H609 H 0.97543 0.40969 0.18563 0.0
H610 H 0.96989 0.44584 0.26573 0.0
H611 H 0.97748 0.4643 0.38297 0.0
H612 H 0.03719 0.43282 0.5165 0.0
H613 H 0.04975 0.40299 0.42385 0.0
C614 C 0.02479 0.3966 0.30085 0.0
C615 C 0.00779 0.3933 0.24292 0.0
C616 C 0.02037 0.416 0.35007 0.0
C617 C 0.98909 0.41211 0.22886 0.0
C618 C 0.9855 0.43239 0.27575 0.0
C619 C 0.99343 0.45104 0.39135 0.0
C620 C 0.00665 0.45079 0.45616 0.0
C621 C 1.00002 0.43364 0.33837 0.0
C622 C 0.02721 0.43362 0.46655 0.0
C623 C 0.03424 0.41654 0.41371 0.0
H624 H 0.90918 0.92258 0.91476 0.0
H625 H 0.85501 0.985 0.90017 0.0
H626 H 0.88526 0.00794 0.81923 0.0
H627 H 0.92593 0.00909 0.74691 0.0
H628 H 0.98262 0.94932 0.77127 0.0
H629 H 0.9527 0.92629 0.85266 0.0
C630 C 0.90448 0.94157 0.89547 0.0
C631 C 0.88016 0.95238 0.91465 0.0
C632 C 0.92209 0.95472 0.8489 0.0
C633 C 0.87396 0.97669 0.88788 0.0
C634 C 0.89109 0.98963 0.84078 0.0
C635 C 0.93173 0.99099 0.77 0.0
C636 C 0.95579 0.98004 0.74911 0.0
C637 C 0.915 0.97864 0.81995 0.0
C638 C 0.96332 0.95704 0.78142 0.0
C639 C 0.94647 0.94424 0.82971 0.0
H640 H 0.5121 0.88417 0.93569 0.0
H641 H 0.42743 0.89098 0.95461 0.0
H642 H 0.42774 0.92224 0.85803 0.0
H643 H 0.4519 0.94463 0.76042 0.0
H644 H 0.53603 0.93381 0.73652 0.0
H645 H 0.5363 0.90765 0.84225 0.0
C646 C 0.49394 0.89345 0.92066 0.0
C647 C 0.46995 0.88605 0.95422 0.0
C648 C 0.49412 0.91023 0.8625 0.0
C649 C 0.44631 0.89723 0.93186 0.0
C650 C 0.44644 0.91467 0.87549 0.0
C651 C 0.47024 0.93636 0.77816 0.0
C652 C 0.49388 0.94089 0.73927 0.0
C653 C 0.47014 0.92073 0.83896 0.0
C654 C 0.51746 0.93022 0.76368 0.0
C655 C 0.51767 0.9154 0.8249 0.0
H656 H 0.60386 0.51977 0.95739 0.0
H657 H 0.61852 0.59348 0.85753 0.0
H658 H 0.58704 0.58217 0.76554 0.0
H659 H 0.55941 0.54943 0.706 0.0
H660 H 0.54124 0.47706 0.80989 0.0
H661 H 0.57004 0.48965 0.90699 0.0
C662 C 0.59944 0.53364 0.91685 0.0
C663 C 0.61392 0.55719 0.91367 0.0
C664 C 0.58121 0.527 0.86359 0.0
C665 C 0.6079 0.57503 0.86068 0.0
C666 C 0.59007 0.56851 0.80759 0.0
C667 C 0.56151 0.53647 0.75004 0.0
C668 C 0.54842 0.51216 0.74985 0.0
C669 C 0.5774 0.54415 0.80701 0.0
C670 C 0.55131 0.49578 0.80802 0.0
C671 C 0.56771 0.503 0.86391 0.0
H672 H 0.96744 0.58385 0.94847 0.0
H673 H 0.04229 0.62559 0.92766 0.0
H674 H 0.05499 0.59751 0.83137 0.0
H675 H 0.04242 0.56429 0.74382 0.0
H676 H 0.96916 0.52045 0.77067 0.0
H677 H 0.9579 0.54631 0.87229 0.0
C678 C 0.98699 0.58609 0.92473 0.0
C679 C 0.00408 0.60658 0.94627 0.0
C680 C 0.99388 0.57021 0.86816 0.0
C681 C 0.02908 0.60959 0.91368 0.0
C682 C 0.0361 0.59384 0.8575 0.0
C683 C 0.02392 0.56045 0.77175 0.0
C684 C 0.00561 0.54163 0.74601 0.0
C685 C 0.01824 0.57468 0.8326 0.0
C686 C 0.98239 0.53625 0.78504 0.0
C687 C 0.97635 0.55059 0.84463 0.0
H688 H 0.01898 0.14844 0.34103 0.0
H689 H 0.95918 0.18728 0.45863 0.0
H690 H 0.94753 0.14684 0.52082 0.0
H691 H 0.95224 0.09946 0.53073 0.0
H692 H 0.00265 0.061 0.38433 0.0
H693 H 0.01712 0.10215 0.33403 0.0
C694 C 0.00354 0.14802 0.38093 0.0
C695 C 0.9894 0.1702 0.39431 0.0
C696 C 0.9936 0.12456 0.40531 0.0
C697 C 0.97013 0.17013 0.44745 0.0
C698 C 0.96282 0.14696 0.48076 0.0
C699 C 0.96505 0.10012 0.48494 0.0
C700 C 0.9773 0.07778 0.46226 0.0
C701 C 0.97343 0.12386 0.45701 0.0
C702 C 0.9933 0.07834 0.40223 0.0
C703 C 0.00245 0.10181 0.3757 0.0
H704 H 0.36926 0.08611 0.35772 0.0
H705 H 0.31043 0.04413 0.48252 0.0
H706 H 0.34517 0.01713 0.52854 0.0
H707 H 0.39242 0.00499 0.52992 0.0
H708 H 0.4477 0.04197 0.38603 0.0
H709 H 0.41261 0.06864 0.34087 0.0
C710 C 0.36339 0.07039 0.39241 0.0
C711 C 0.3368 0.06687 0.41411 0.0
C712 C 0.38244 0.05285 0.41145 0.0
C713 C 0.33062 0.04767 0.4645 0.0
C714 C 0.35035 0.03164 0.48948 0.0
C715 C 0.3963 0.01785 0.48596 0.0
C716 C 0.42237 0.02169 0.46091 0.0
C717 C 0.37617 0.03362 0.46174 0.0
C718 C 0.42754 0.0386 0.40494 0.0
C719 C 0.40775 0.05438 0.38085 0.0
H720 H 0.52842 0.351 0.31383 0.0
H721 H 0.57127 0.32276 0.49198 0.0
H722 H 0.564 0.36354 0.55305 0.0
H723 H 0.54366 0.40639 0.55559 0.0
H724 H 0.50035 0.43271 0.37645 0.0
H725 H 0.51169 0.39397 0.3125 0.0
C726 C 0.53693 0.35392 0.36528 0.0
C727 C 0.55098 0.33419 0.39776 0.0
C728 C 0.53332 0.37729 0.39852 0.0
C729 C 0.56054 0.33778 0.46589 0.0
C730 C 0.55662 0.36113 0.50031 0.0
C731 C 0.53766 0.40396 0.50167 0.0
C732 C 0.52173 0.42235 0.46966 0.0
C733 C 0.54308 0.38102 0.46688 0.0
C734 C 0.51318 0.41892 0.40084 0.0
C735 C 0.51923 0.39664 0.36502 0.0
H736 H 0.1866 0.453 0.42774 0.0
H737 H 0.13879 0.38296 0.444 0.0
H738 H 0.10094 0.40737 0.48429 0.0
H739 H 0.07953 0.44897 0.48753 0.0
H740 H 0.12606 0.51939 0.46561 0.0
H741 H 0.16671 0.49462 0.45473 0.0
C742 C 0.16827 0.44302 0.44345 0.0
C743 C 0.16516 0.41638 0.43208 0.0
C744 C 0.14624 0.45736 0.46241 0.0
C745 C 0.14142 0.40351 0.45229 0.0
C746 C 0.11971 0.4175 0.47403 0.0
C747 C 0.09854 0.45882 0.48019 0.0
C748 C 0.09986 0.48574 0.47353 0.0
C749 C 0.12148 0.4445 0.47425 0.0
C750 C 0.12469 0.49855 0.46815 0.0
C751 C 0.14782 0.48442 0.46252 0.0
H752 H 0.04747 0.81974 0.79076 0.0
H753 H 0.96578 0.80075 0.74176 0.0
H754 H 0.96242 0.84074 0.67566 0.0
H755 H 0.9794 0.88418 0.6576 0.0
H756 H 0.06001 0.90561 0.71434 0.0
H757 H 0.06741 0.86122 0.7523 0.0
C758 C 0.02952 0.82388 0.76209 0.0
C759 C 0.00682 0.80791 0.77095 0.0
C760 C 0.02729 0.84759 0.72863 0.0
C761 C 0.98346 0.81294 0.73455 0.0
C762 C 0.98139 0.83601 0.69832 0.0
C763 C 0.99867 0.8792 0.67813 0.0
C764 C 0.01886 0.89809 0.68633 0.0
C765 C 0.00259 0.85409 0.69957 0.0
C766 C 0.04401 0.89128 0.70993 0.0
C767 C 0.04826 0.866 0.73093 0.0
H768 H 0.63415 0.9347 0.88705 0.0
H769 H 0.68878 0.9373 0.71131 0.0
H770 H 0.661 0.96821 0.65327 0.0
H771 H 0.61778 0.98845 0.64358 0.0
H772 H 0.56042 0.97898 0.80968 0.0
H773 H 0.59278 0.95679 0.88075 0.0
C774 C 0.64 0.94119 0.83527 0.0
C775 C 0.66356 0.93273 0.80364 0.0
C776 C 0.62349 0.9582 0.80085 0.0
C777 C 0.67092 0.94305 0.73782 0.0
C778 C 0.655 0.96086 0.70425 0.0
C779 C 0.61308 0.98285 0.69706 0.0
C780 C 0.58708 0.98546 0.72218 0.0
C781 C 0.63097 0.96807 0.73461 0.0
C782 C 0.58065 0.97776 0.79052 0.0
C783 C 0.59889 0.96436 0.8301 0.0
H784 H 0.42118 0.64241 0.82013 0.0
H785 H 0.47782 0.68935 0.70163 0.0
H786 H 0.49251 0.65143 0.64047 0.0
H787 H 0.49579 0.605 0.63911 0.0
H788 H 0.44148 0.55674 0.75995 0.0
H789 H 0.41991 0.5953 0.80472 0.0
C790 C 0.43644 0.64433 0.78006 0.0
C791 C 0.44885 0.66852 0.76666 0.0
C792 C 0.44584 0.62226 0.74787 0.0
C793 C 0.46794 0.67099 0.71309 0.0
C794 C 0.47669 0.64926 0.67888 0.0
C795 C 0.47897 0.6029 0.67455 0.0
C796 C 0.47047 0.57839 0.69796 0.0
C797 C 0.46685 0.62481 0.69896 0.0
C798 C 0.44841 0.57565 0.74243 0.0
C799 C 0.43615 0.59759 0.76764 0.0
H800 H 0.81868 0.5495 0.76413 0.0
H801 H 0.8672 0.61672 0.81559 0.0
H802 H 0.9073 0.59304 0.79254 0.0
H803 H 0.92805 0.55425 0.75869 0.0
H804 H 0.88132 0.48912 0.68442 0.0
H805 H 0.84043 0.51024 0.7212 0.0
C806 C 0.83804 0.55916 0.76782 0.0
C807 C 0.84022 0.58479 0.79122 0.0
C808 C 0.86097 0.54548 0.75399 0.0
C809 C 0.86528 0.59706 0.79721 0.0
C810 C 0.88808 0.58344 0.78533 0.0
C811 C 0.90894 0.54443 0.7513 0.0
C812 C 0.90748 0.52046 0.71838 0.0
C813 C 0.88605 0.55766 0.76486 0.0
C814 C 0.88277 0.50763 0.7102 0.0
C815 C 0.8595 0.51996 0.72949 0.0
H816 H 0.97319 0.20597 0.77158 0.0
H817 H 0.05559 0.20124 0.82686 0.0
H818 H 0.05739 0.15851 0.77366 0.0
H819 H 0.03328 0.11948 0.72753 0.0
H820 H 0.9501 0.12497 0.67685 0.0
H821 H 0.95094 0.16984 0.71127 0.0
C822 C 0.9919 0.19618 0.76845 0.0
C823 C 0.01441 0.2072 0.80139 0.0
C824 C 0.9924 0.17108 0.74063 0.0
C825 C 0.03823 0.19367 0.79965 0.0
C826 C 0.03907 0.16889 0.77066 0.0
C827 C 0.01545 0.13059 0.7233 0.0
C828 C 0.99152 0.11838 0.70104 0.0
C829 C 0.01594 0.15687 0.74365 0.0
C830 C 0.96871 0.13338 0.69534 0.0
C831 C 0.96915 0.15927 0.71463 0.0
H832 H 0.33465 0.0929 0.81563 0.0
H833 H 0.28954 0.02118 0.83451 0.0
H834 H 0.32283 -8e-05 0.76307 0.0
H835 H 0.36852 -0.00012 0.71402 0.0
H836 H 0.4162 0.07039 0.71247 0.0
H837 H 0.37896 0.09346 0.76214 0.0
C838 C 0.33199 0.07252 0.80468 0.0
C839 C 0.30983 0.05855 0.83336 0.0
C840 C 0.35236 0.05993 0.76896 0.0
C841 C 0.30627 0.03255 0.81433 0.0
C842 C 0.32566 0.02023 0.77441 0.0
C843 C 0.37082 0.02033 0.72437 0.0
C844 C 0.39552 0.03322 0.71053 0.0
C845 C 0.34945 0.0334 0.75477 0.0
C846 C 0.39777 0.0598 0.72353 0.0
C847 C 0.37636 0.07306 0.75158 0.0
H848 H 0.55675 0.30948 0.78362 0.0
H849 H 0.47456 0.29601 0.83836 0.0
H850 H 0.46272 0.33536 0.77568 0.0
H851 H 0.47743 0.37844 0.7274 0.0
H852 H 0.56112 0.39252 0.68663 0.0
H853 H 0.5706 0.34904 0.7229 0.0
C854 C 0.53604 0.31448 0.77875 0.0
C855 C 0.5166 0.29971 0.81568 0.0
C856 C 0.52981 0.33827 0.74814 0.0
C857 C 0.48992 0.30673 0.80985 0.0
C858 C 0.48326 0.32971 0.77554 0.0
C859 C 0.49766 0.37188 0.7258 0.0
C860 C 0.51851 0.38924 0.70547 0.0
C861 C 0.50328 0.3465 0.74831 0.0
C862 C 0.54459 0.38008 0.70319 0.0
C863 C 0.55013 0.35497 0.72352 0.0
H864 H 0.1649 0.41205 0.86234 0.0
H865 H 0.22451 0.46866 0.79511 0.0
H866 H 0.19379 0.48496 0.70865 0.0
H867 H 0.14836 0.48746 0.66387 0.0
H868 H 0.08732 0.43393 0.73858 0.0
H869 H 0.12006 0.41271 0.81196 0.0
C870 C 0.17127 0.42815 0.82945 0.0
C871 C 0.19706 0.43948 0.83735 0.0
C872 C 0.15301 0.43836 0.782 0.0
C873 C 0.20502 0.45942 0.7911 0.0
C874 C 0.18727 0.46903 0.74194 0.0
C875 C 0.14218 0.47102 0.69585 0.0
C876 C 0.11528 0.46257 0.69655 0.0
C877 C 0.16096 0.45931 0.73885 0.0
C878 C 0.10782 0.44092 0.73719 0.0
C879 C 0.12654 0.42885 0.77934 0.0
H880 H 0.96267 0.81193 0.37367 0.0
H881 H 0.04319 0.78846 0.40385 0.0
H882 H 0.05398 0.82938 0.46182 0.0
H883 H 0.04202 0.87374 0.49024 0.0
H884 H 0.9616 0.89785 0.45924 0.0
H885 H 0.94924 0.85483 0.41534 0.0
C886 C 0.9823 0.81541 0.39544 0.0
C887 C 0.00203 0.7969 0.38519 0.0
C888 C 0.98855 0.83943 0.42665 0.0
C889 C 0.0275 0.80194 0.41244 0.0
C890 C 0.03378 0.82561 0.4444 0.0
C891 C 0.02172 0.86971 0.47396 0.0
C892 C 0.00292 0.88944 0.47646 0.0
C893 C 0.01474 0.84485 0.44935 0.0
C894 C 0.97661 0.88337 0.45674 0.0
C895 C 0.96953 0.85868 0.4319 0.0
H896 H 0.70199 0.97344 0.38339 0.0
H897 H 0.67619 0.89446 0.35415 0.0
H898 H 0.63455 0.90229 0.4153 0.0
H899 H 0.60243 0.93344 0.46159 0.0
H900 H 0.62917 0.01228 0.49281 0.0
H901 H 0.67297 0.00255 0.44841 0.0
C902 C 0.68773 0.95773 0.39299 0.0
C903 C 0.69217 0.93349 0.36356 0.0
C904 C 0.6634 0.96251 0.4272 0.0
C905 C 0.67329 0.91335 0.37623 0.0
C906 C 0.64924 0.9179 0.41043 0.0
C907 C 0.61786 0.94845 0.45898 0.0
C908 C 0.61191 0.97381 0.4784 0.0
C909 C 0.64348 0.94274 0.4333 0.0
C910 C 0.6326 0.99275 0.47621 0.0
C911 C 0.65791 0.98721 0.45112 0.0
H912 H 0.51691 0.67803 0.33691 0.0
H913 H 0.44125 0.69887 0.42162 0.0
H914 H 0.44073 0.66072 0.49743 0.0
H915 H 0.4576 0.61738 0.52161 0.0
H916 H 0.5326 0.59558 0.43328 0.0
H917 H 0.53754 0.63791 0.37667 0.0
C918 C 0.50102 0.67493 0.37478 0.0
C919 C 0.4793 0.69158 0.37412 0.0
C920 C 0.50019 0.65208 0.41522 0.0
C921 C 0.45848 0.68686 0.42211 0.0
C922 C 0.4579 0.66461 0.4642 0.0
C923 C 0.47518 0.6219 0.49042 0.0
C924 C 0.49441 0.6029 0.48028 0.0
C925 C 0.4779 0.64637 0.45814 0.0
C926 C 0.51732 0.60952 0.44121 0.0
C927 C 0.52016 0.63381 0.40891 0.0
H928 H 0.82858 0.58659 0.38287 0.0
H929 H 0.80194 0.51588 0.28453 0.0
H930 H 0.83787 0.49304 0.34106 0.0
H931 H 0.87902 0.49375 0.41085 0.0
H932 H 0.90719 0.56491 0.50383 0.0
H933 H 0.86897 0.58703 0.45556 0.0
C934 C 0.83046 0.56612 0.37402 0.0
C935 C 0.81239 0.5531 0.32887 0.0
C936 C 0.85189 0.55328 0.40458 0.0
C937 C 0.81508 0.52645 0.31955 0.0
C938 C 0.83596 0.51342 0.3511 0.0
C939 C 0.87692 0.51415 0.42045 0.0
C940 C 0.89636 0.5277 0.4602 0.0
C941 C 0.85487 0.52676 0.39229 0.0
C942 C 0.89301 0.55408 0.47232 0.0
C943 C 0.87096 0.56668 0.4452 0.0
loop_
_geom_bond_atom_site_label_1
_geom_bond_atom_site_label_2
_geom_bond_distance
_geom_bond_site_symmetry_2
_ccdc_geom_bond_type
C0 C1 1.391 . S
C0 C4 1.391 . S
C0 H42 0.948 . S
C1 C0 1.391 . S
C1 C2 1.391 . S
C2 C1 1.391 . S
C2 H58 0.947 . S
C2 C59 1.392 . S
C3 C4 1.391 . S
C3 C7 1.397 . S
C3 C59 1.419 . S
C4 C0 1.391 . S
C4 C3 1.391 . S
C4 C5 1.399 . S
C5 C4 1.399 . S
C5 C8 1.396 . S
C5 C17 1.453 . S
C5 C18 1.684 . S
H6 C30 0.948 . S
C7 C3 1.397 . S
C7 C8 1.394 . S
C7 C26 1.723 . S
C8 C5 1.396 . S
C8 C7 1.394 . S
C8 C38 1.723 . S
H9 C32 0.947 . S
H10 C33 0.948 . S
H11 C39 0.982 . S
H12 C40 0.979 . S
H13 C40 0.980 . S
H14 C40 0.983 . S
H15 C39 0.979 . S
H16 C39 0.977 . S
C17 C5 1.453 . S
C17 H46 0.982 . S
C17 H47 0.979 . S
C17 H48 0.977 . S
C18 C5 1.684 . S
C18 H43 0.979 . S
C18 H44 0.980 . S
C18 H45 0.983 . S
C19 C20 1.391 . S
C19 C24 1.391 . S
C19 H49 0.948 . S
C20 C19 1.391 . S
C20 C21 1.391 . S
C21 C20 1.391 . S
C21 C22 1.392 . S
C21 H50 0.947 . S
C22 C21 1.392 . S
C22 C23 1.419 . S
C22 H51 0.948 . S
C23 C22 1.419 . S
C23 C24 1.391 . S
C23 C27 1.397 . S
C24 C19 1.391 . S
C24 C23 1.391 . S
C24 C25 1.399 . S
C25 C24 1.399 . S
C25 C26 1.396 1_556 S
C25 C28 1.453 1_556 S
C25 C29 1.684 1_556 S
C26 C7 1.723 . S
C26 C25 1.396 1_554 S
C26 C27 1.394 1_554 S
C27 C23 1.397 . S
C27 C26 1.394 1_556 S
C27 C37 1.723 . S
C28 C25 1.453 1_554 S
C28 H52 0.982 . S
C28 H53 0.979 . S
C28 H54 0.977 . S
C29 C25 1.684 1_554 S
C29 H55 0.979 . S
C29 H56 0.980 . S
C29 H57 0.983 . S
C30 H6 0.948 . S
C30 C31 1.391 . S
C30 C35 1.391 . S
C31 C30 1.391 . S
C31 C32 1.391 1_556 S
C32 H9 0.947 . S
C32 C31 1.391 1_554 S
C32 C33 1.392 . S
C33 H10 0.948 . S
C33 C32 1.392 . S
C33 C34 1.419 . S
C34 C33 1.419 . S
C34 C35 1.391 1_554 S
C34 C38 1.397 . S
C35 C30 1.391 . S
C35 C34 1.391 1_556 S
C35 C36 1.399 . S
C36 C35 1.399 . S
C36 C37 1.396 . S
C36 C39 1.453 . S
C36 C40 1.684 . S
C37 C27 1.723 . S
C37 C36 1.396 . S
C37 C38 1.394 1_556 S
C38 C8 1.723 . S
C38 C34 1.397 . S
C38 C37 1.394 1_554 S
C39 H11 0.982 . S
C39 H15 0.979 . S
C39 H16 0.977 . S
C39 C36 1.453 . S
C40 H12 0.979 . S
C40 H13 0.980 . S
C40 H14 0.983 . S
C40 C36 1.684 . S
H41 C59 0.948 . S
H42 C0 0.948 . S
H43 C18 0.979 . S
H44 C18 0.980 . S
H45 C18 0.983 . S
H46 C17 0.982 . S
H47 C17 0.979 . S
H48 C17 0.977 . S
H49 C19 0.948 . S
H50 C21 0.947 . S
H51 C22 0.948 . S
H52 C28 0.982 . S
H53 C28 0.979 . S
H54 C28 0.977 . S
H55 C29 0.979 . S
H56 C29 0.980 . S
H57 C29 0.983 . S
H58 C2 0.947 . S
C59 C2 1.392 . S
C59 C3 1.419 . S
C59 H41 0.948 . S
C60 C61 1.391 . S
C60 C64 1.391 . S
C60 H102 0.948 . S
C61 C60 1.391 . S
C61 C62 1.391 . S
C62 C61 1.391 . S
C62 H118 0.947 . S
C62 C119 1.392 . S
C63 C64 1.391 . S
C63 C67 1.397 1_655 S
C63 C119 1.419 . S
C64 C60 1.391 . S
C64 C63 1.391 . S
C64 C65 1.399 . S
C65 C64 1.399 . S
C65 C68 1.396 1_655 S
C65 C77 1.453 1_655 S
C65 C78 1.684 . S
H66 C90 0.948 . S
C67 C63 1.397 1_455 S
C67 C68 1.394 . S
C67 C86 1.723 1_556 S
C68 C65 1.396 1_455 S
C68 C67 1.394 . S
C68 C98 1.723 1_556 S
H69 C92 0.947 . S
H70 C93 0.948 . S
H71 C99 0.982 . S
H72 C100 0.979 . S
H73 C100 0.980 . S
H74 C100 0.983 . S
H75 C99 0.979 . S
H76 C99 0.977 . S
C77 C65 1.453 1_455 S
C77 H106 0.982 . S
C77 H107 0.979 . S
C77 H108 0.977 . S
C78 C65 1.684 . S
C78 H103 0.979 . S
C78 H104 0.980 . S
C78 H105 0.983 . S
C79 C80 1.391 . S
C79 C84 1.391 . S
C79 H109 0.948 . S
C80 C79 1.391 . S
C80 C81 1.391 . S
C81 C80 1.391 . S
C81 C82 1.392 . S
C81 H110 0.947 . S
C82 C81 1.392 . S
C82 C83 1.419 . S
C82 H111 0.948 . S
C83 C82 1.419 . S
C83 C84 1.391 . S
C83 C87 1.397 1_655 S
C84 C79 1.391 . S
C84 C83 1.391 . S
C84 C85 1.399 . S
C85 C84 1.399 . S
C85 C86 1.396 1_655 S
C85 C88 1.453 1_655 S
C85 C89 1.684 . S
C86 C67 1.723 1_554 S
C86 C85 1.396 1_455 S
C86 C87 1.394 . S
C87 C83 1.397 1_455 S
C87 C86 1.394 . S
C87 C97 1.723 . S
C88 C85 1.453 1_455 S
C88 H112 0.982 . S
C88 H113 0.979 . S
C88 H114 0.977 . S
C89 C85 1.684 . S
C89 H115 0.979 . S
C89 H116 0.980 . S
C89 H117 0.983 . S
C90 H66 0.948 . S
C90 C91 1.391 1_554 S
C90 C95 1.391 . S
C91 C90 1.391 1_556 S
C91 C92 1.391 . S
C92 H69 0.947 . S
C92 C91 1.391 . S
C92 C93 1.392 . S
C93 H70 0.948 . S
C93 C92 1.392 . S
C93 C94 1.419 . S
C94 C93 1.419 . S
C94 C95 1.391 1_556 S
C94 C98 1.397 1_656 S
C95 C90 1.391 . S
C95 C94 1.391 1_554 S
C95 C96 1.399 . S
C96 C95 1.399 . S
C96 C97 1.396 1_655 S
C96 C99 1.453 1_655 S
C96 C100 1.684 . S
C97 C87 1.723 . S
C97 C96 1.396 1_455 S
C97 C98 1.394 . S
C98 C68 1.723 1_554 S
C98 C94 1.397 1_454 S
C98 C97 1.394 . S
C99 H71 0.982 . S
C99 H75 0.979 . S
C99 H76 0.977 . S
C99 C96 1.453 1_455 S
C100 H72 0.979 . S
C100 H73 0.980 . S
C100 H74 0.983 . S
C100 C96 1.684 . S
H101 C119 0.948 1_554 S
H102 C60 0.948 . S
H103 C78 0.979 . S
H104 C78 0.980 . S
H105 C78 0.983 . S
H106 C77 0.982 . S
H107 C77 0.979 . S
H108 C77 0.977 . S
H109 C79 0.948 . S
H110 C81 0.947 . S
H111 C82 0.948 . S
H112 C88 0.982 . S
H113 C88 0.979 . S
H114 C88 0.977 . S
H115 C89 0.979 . S
H116 C89 0.980 . S
H117 C89 0.983 . S
H118 C62 0.947 . S
C119 C62 1.392 . S
C119 C63 1.419 . S
C119 H101 0.948 1_556 S
C120 C121 1.391 1_554 S
C120 C124 1.391 . S
C120 H162 0.948 . S
C121 C120 1.391 1_556 S
C121 C122 1.391 . S
C122 C121 1.391 . S
C122 H178 0.947 . S
C122 C179 1.392 . S
C123 C124 1.391 1_556 S
C123 C127 1.397 1_556 S
C123 C179 1.419 . S
C124 C120 1.391 . S
C124 C123 1.391 1_554 S
C124 C125 1.399 . S
C125 C124 1.399 . S
C125 C128 1.396 . S
C125 C137 1.453 . S
C125 C138 1.684 . S
H126 C150 0.948 . S
C127 C123 1.397 1_554 S
C127 C128 1.394 . S
C127 C146 1.723 1_554 S
C128 C125 1.396 . S
C128 C127 1.394 . S
C128 C158 1.723 . S
H129 C152 0.947 . S
H130 C153 0.948 . S
H131 C159 0.982 . S
H132 C160 0.979 . S
H133 C160 0.980 . S
H134 C160 0.983 . S
H135 C159 0.979 . S
H136 C159 0.977 . S
C137 C125 1.453 . S
C137 H166 0.982 . S
C137 H167 0.979 . S
C137 H168 0.977 . S
C138 C125 1.684 . S
C138 H163 0.979 . S
C138 H164 0.980 . S
C138 H165 0.983 . S
C139 C140 1.391 . S
C139 C144 1.391 . S
C139 H169 0.948 . S
C140 C139 1.391 . S
C140 C141 1.391 . S
C141 C140 1.391 . S
C141 C142 1.392 . S
C141 H170 0.947 . S
C142 C141 1.392 . S
C142 C143 1.419 . S
C142 H171 0.948 1_556 S
C143 C142 1.419 . S
C143 C144 1.391 . S
C143 C147 1.397 . S
C144 C139 1.391 . S
C144 C143 1.391 . S
C144 C145 1.399 . S
C145 C144 1.399 . S
C145 C146 1.396 . S
C145 C148 1.453 . S
C145 C149 1.684 . S
C146 C127 1.723 1_556 S
C146 C145 1.396 . S
C146 C147 1.394 . S
C147 C143 1.397 . S
C147 C146 1.394 . S
C147 C157 1.723 1_556 S
C148 C145 1.453 . S
C148 H172 0.982 . S
C148 H173 0.979 . S
C148 H174 0.977 . S
C149 C145 1.684 . S
C149 H175 0.979 . S
C149 H176 0.980 . S
C149 H177 0.983 . S
C150 H126 0.948 . S
C150 C151 1.391 . S
C150 C155 1.391 . S
C151 C150 1.391 . S
C151 C152 1.391 . S
C152 H129 0.947 . S
C152 C151 1.391 . S
C152 C153 1.392 . S
C153 H130 0.948 . S
C153 C152 1.392 . S
C153 C154 1.419 . S
C154 C153 1.419 . S
C154 C155 1.391 . S
C154 C158 1.397 . S
C155 C150 1.391 . S
C155 C154 1.391 . S
C155 C156 1.399 . S
C156 C155 1.399 . S
C156 C157 1.396 . S
C156 C159 1.453 . S
C156 C160 1.684 . S
C157 C147 1.723 1_554 S
C157 C156 1.396 . S
C157 C158 1.394 . S
C158 C128 1.723 . S
C158 C154 1.397 . S
C158 C157 1.394 . S
C159 H131 0.982 . S
C159 H135 0.979 . S
C159 H136 0.977 . S
C159 C156 1.453 . S
C160 H132 0.979 . S
C160 H133 0.980 . S
C160 H134 0.983 . S
C160 C156 1.684 . S
H161 C179 0.948 . S
H162 C120 0.948 . S
H163 C138 0.979 . S
H164 C138 0.980 . S
H165 C138 0.983 . S
H166 C137 0.982 . S
H167 C137 0.979 . S
H168 C137 0.977 . S
H169 C139 0.948 . S
H170 C141 0.947 . S
H171 C142 0.948 1_554 S
H172 C148 0.982 . S
H173 C148 0.979 . S
H174 C148 0.977 . S
H175 C149 0.979 . S
H176 C149 0.980 . S
H177 C149 0.983 . S
H178 C122 0.947 . S
C179 C122 1.392 . S
C179 C123 1.419 . S
C179 H161 0.948 . S
C180 C181 1.391 . S
C180 C184 1.391 . S
C180 H222 0.948 . S
C181 C180 1.391 . S
C181 C182 1.391 . S
C182 C181 1.391 . S
C182 H238 0.947 . S
C182 C239 1.392 . S
C183 C184 1.391 . S
C183 C187 1.397 . S
C183 C239 1.419 . S
C184 C180 1.391 . S
C184 C183 1.391 . S
C184 C185 1.399 . S
C185 C184 1.399 . S
C185 C188 1.396 . S
C185 C197 1.453 . S
C185 C198 1.684 . S
H186 C210 0.948 . S
C187 C183 1.397 . S
C187 C188 1.394 . S
C187 C206 1.723 . S
C188 C185 1.396 . S
C188 C187 1.394 . S
C188 C218 1.723 . S
H189 C212 0.947 . S
H190 C213 0.948 . S
H191 C219 0.982 . S
H192 C220 0.979 . S
H193 C220 0.980 . S
H194 C220 0.983 . S
H195 C219 0.979 . S
H196 C219 0.977 . S
C197 C185 1.453 . S
C197 H226 0.982 . S
C197 H227 0.979 . S
C197 H228 0.977 . S
C198 C185 1.684 . S
C198 H223 0.979 . S
C198 H224 0.980 . S
C198 H225 0.983 . S
C199 C200 1.391 . S
C199 C204 1.391 . S
C199 H229 0.948 . S
C200 C199 1.391 . S
C200 C201 1.391 . S
C201 C200 1.391 . S
C201 C202 1.392 . S
C201 H230 0.947 . S
C202 C201 1.392 . S
C202 C203 1.419 . S
C202 H231 0.948 . S
C203 C202 1.419 . S
C203 C204 1.391 . S
C203 C207 1.397 . S
C204 C199 1.391 . S
C204 C203 1.391 . S
C204 C205 1.399 1_556 S
C205 C204 1.399 1_554 S
C205 C206 1.396 . S
C205 C208 1.453 . S
C205 C209 1.684 . S
C206 C187 1.723 . S
C206 C205 1.396 . S
C206 C207 1.394 1_554 S
C207 C203 1.397 . S
C207 C206 1.394 1_556 S
C207 C217 1.723 . S
C208 C205 1.453 . S
C208 H232 0.982 . S
C208 H233 0.979 . S
C208 H234 0.977 . S
C209 C205 1.684 . S
C209 H235 0.979 . S
C209 H236 0.980 . S
C209 H237 0.983 . S
C210 H186 0.948 . S
C210 C211 1.391 . S
C210 C215 1.391 . S
C211 C210 1.391 . S
C211 C212 1.391 1_556 S
C212 H189 0.947 . S
C212 C211 1.391 1_554 S
C212 C213 1.392 . S
C213 H190 0.948 . S
C213 C212 1.392 . S
C213 C214 1.419 . S
C214 C213 1.419 . S
C214 C215 1.391 1_554 S
C214 C218 1.397 . S
C215 C210 1.391 . S
C215 C214 1.391 1_556 S
C215 C216 1.399 . S
C216 C215 1.399 . S
C216 C217 1.396 . S
C216 C219 1.453 . S
C216 C220 1.684 . S
C217 C207 1.723 . S
C217 C216 1.396 . S
C217 C218 1.394 1_556 S
C218 C188 1.723 . S
C218 C214 1.397 . S
C218 C217 1.394 1_554 S
C219 H191 0.982 . S
C219 H195 0.979 . S
C219 H196 0.977 . S
C219 C216 1.453 . S
C220 H192 0.979 . S
C220 H193 0.980 . S
C220 H194 0.983 . S
C220 C216 1.684 . S
H221 C239 0.948 . S
H222 C180 0.948 . S
H223 C198 0.979 . S
H224 C198 0.980 . S
H225 C198 0.983 . S
H226 C197 0.982 . S
H227 C197 0.979 . S
H228 C197 0.977 . S
H229 C199 0.948 . S
H230 C201 0.947 . S
H231 C202 0.948 . S
H232 C208 0.982 . S
H233 C208 0.979 . S
H234 C208 0.977 . S
H235 C209 0.979 . S
H236 C209 0.980 . S
H237 C209 0.983 . S
H238 C182 0.947 . S
C239 C182 1.392 . S
C239 C183 1.419 . S
C239 H221 0.948 . S
C240 C241 1.391 . S
C240 C244 1.391 . S
C240 H282 0.948 . S
C241 C240 1.391 . S
C241 C242 1.391 . S
C242 C241 1.391 . S
C242 H298 0.947 . S
C242 C299 1.392 . S
C243 C244 1.391 . S
C243 C247 1.397 . S
C243 C299 1.419 . S
C244 C240 1.391 . S
C244 C243 1.391 . S
C244 C245 1.399 . S
C245 C244 1.399 . S
C245 C248 1.396 . S
C245 C257 1.453 . S
C245 C258 1.684 . S
H246 C270 0.948 . S
C247 C243 1.397 . S
C247 C248 1.394 . S
C247 C266 1.723 . S
C248 C245 1.396 . S
C248 C247 1.394 . S
C248 C278 1.723 . S
H249 C272 0.947 . S
H250 C273 0.948 . S
H251 C279 0.982 . S
H252 C280 0.979 . S
H253 C280 0.980 . S
H254 C280 0.983 . S
H255 C279 0.979 . S
H256 C279 0.977 . S
C257 C245 1.453 . S
C257 H286 0.982 . S
C257 H287 0.979 . S
C257 H288 0.977 . S
C258 C245 1.684 . S
C258 H283 0.979 . S
C258 H284 0.980 . S
C258 H285 0.983 . S
C259 C260 1.391 . S
C259 C264 1.391 . S
C259 H289 0.948 . S
C260 C259 1.391 . S
C260 C261 1.391 . S
C261 C260 1.391 . S
C261 C262 1.392 . S
C261 H290 0.947 . S
C262 C261 1.392 . S
C262 C263 1.419 . S
C262 H291 0.948 . S
C263 C262 1.419 . S
C263 C264 1.391 . S
C263 C267 1.397 . S
C264 C259 1.391 . S
C264 C263 1.391 . S
C264 C265 1.399 . S
C265 C264 1.399 . S
C265 C266 1.396 . S
C265 C268 1.453 . S
C265 C269 1.684 . S
C266 C247 1.723 . S
C266 C265 1.396 . S
C266 C267 1.394 . S
C267 C263 1.397 . S
C267 C266 1.394 . S
C267 C277 1.723 . S
C268 C265 1.453 . S
C268 H292 0.982 . S
C268 H293 0.979 . S
C268 H294 0.977 . S
C269 C265 1.684 . S
C269 H295 0.979 . S
C269 H296 0.980 . S
C269 H297 0.983 . S
C270 H246 0.948 . S
C270 C271 1.391 . S
C270 C275 1.391 1_556 S
C271 C270 1.391 . S
C271 C272 1.391 . S
C272 H249 0.947 . S
C272 C271 1.391 . S
C272 C273 1.392 . S
C273 H250 0.948 . S
C273 C272 1.392 . S
C273 C274 1.419 1_556 S
C274 C273 1.419 1_554 S
C274 C275 1.391 . S
C274 C278 1.397 . S
C275 C270 1.391 1_554 S
C275 C274 1.391 . S
C275 C276 1.399 . S
C276 C275 1.399 . S
C276 C277 1.396 . S
C276 C279 1.453 . S
C276 C280 1.684 . S
C277 C267 1.723 . S
C277 C276 1.396 . S
C277 C278 1.394 . S
C278 C248 1.723 . S
C278 C274 1.397 . S
C278 C277 1.394 . S
C279 H251 0.982 . S
C279 H255 0.979 . S
C279 H256 0.977 . S
C279 C276 1.453 . S
C280 H252 0.979 . S
C280 H253 0.980 . S
C280 H254 0.983 . S
C280 C276 1.684 . S
H281 C299 0.948 . S
H282 C240 0.948 . S
H283 C258 0.979 . S
H284 C258 0.980 . S
H285 C258 0.983 . S
H286 C257 0.982 . S
H287 C257 0.979 . S
H288 C257 0.977 . S
H289 C259 0.948 . S
H290 C261 0.947 . S
H291 C262 0.948 . S
H292 C268 0.982 . S
H293 C268 0.979 . S
H294 C268 0.977 . S
H295 C269 0.979 . S
H296 C269 0.980 . S
H297 C269 0.983 . S
H298 C242 0.947 . S
C299 C242 1.392 . S
C299 C243 1.419 . S
C299 H281 0.948 . S
C300 C301 1.391 . S
C300 C304 1.391 . S
C300 H342 0.948 . S
C301 C300 1.391 . S
C301 C302 1.391 . S
C302 C301 1.391 . S
C302 H358 0.947 . S
C302 C359 1.392 . S
C303 C304 1.391 . S
C303 C307 1.397 1_655 S
C303 C359 1.419 . S
C304 C300 1.391 . S
C304 C303 1.391 . S
C304 C305 1.399 . S
C305 C304 1.399 . S
C305 C308 1.396 1_655 S
C305 C317 1.453 1_655 S
C305 C318 1.684 . S
H306 C330 0.948 . S
C307 C303 1.397 1_455 S
C307 C308 1.394 . S
C307 C326 1.723 . S
C308 C305 1.396 1_455 S
C308 C307 1.394 . S
C308 C338 1.723 . S
H309 C332 0.947 . S
H310 C333 0.948 . S
H311 C339 0.982 . S
H312 C340 0.979 . S
H313 C340 0.980 1_556 S
H314 C340 0.983 . S
H315 C339 0.979 . S
H316 C339 0.977 1_556 S
C317 C305 1.453 1_455 S
C317 H346 0.982 . S
C317 H347 0.979 . S
C317 H348 0.977 . S
C318 C305 1.684 . S
C318 H343 0.979 . S
C318 H344 0.980 . S
C318 H345 0.983 . S
C319 C320 1.391 . S
C319 C324 1.391 . S
C319 H349 0.948 . S
C320 C319 1.391 . S
C320 C321 1.391 . S
C321 C320 1.391 . S
C321 C322 1.392 . S
C321 H350 0.947 . S
C322 C321 1.392 . S
C322 C323 1.419 1_556 S
C322 H351 0.948 . S
C323 C322 1.419 1_554 S
C323 C324 1.391 1_554 S
C323 C327 1.396 1_655 S
C324 C319 1.391 . S
C324 C323 1.391 1_556 S
C324 C325 1.399 1_556 S
C325 C324 1.399 1_554 S
C325 C326 1.396 1_655 S
C325 C328 1.453 1_655 S
C325 C329 1.684 . S
C326 C307 1.723 . S
C326 C325 1.396 1_455 S
C326 C327 1.395 . S
C327 C323 1.396 1_455 S
C327 C326 1.395 . S
C327 C337 1.723 . S
C328 C325 1.453 1_455 S
C328 H352 0.982 . S
C328 H353 0.979 . S
C328 H354 0.977 . S
C329 C325 1.684 . S
C329 H355 0.979 . S
C329 H356 0.980 . S
C329 H357 0.983 . S
C330 H306 0.948 . S
C330 C331 1.391 . S
C330 C335 1.391 . S
C331 C330 1.391 . S
C331 C332 1.391 . S
C332 H309 0.947 . S
C332 C331 1.391 . S
C332 C333 1.392 . S
C333 H310 0.948 . S
C333 C332 1.392 . S
C333 C334 1.419 . S
C334 C333 1.419 . S
C334 C335 1.391 . S
C334 C338 1.396 1_655 S
C335 C330 1.391 . S
C335 C334 1.391 . S
C335 C336 1.399 . S
C336 C335 1.399 . S
C336 C337 1.396 1_655 S
C336 C339 1.453 1_655 S
C336 C340 1.684 . S
C337 C327 1.723 . S
C337 C336 1.396 1_455 S
C337 C338 1.395 . S
C338 C308 1.723 . S
C338 C334 1.396 1_455 S
C338 C337 1.395 . S
C339 H311 0.982 . S
C339 H315 0.979 . S
C339 H316 0.977 1_554 S
C339 C336 1.453 1_455 S
C340 H312 0.979 . S
C340 H313 0.980 1_554 S
C340 H314 0.983 . S
C340 C336 1.684 . S
H341 C359 0.948 . S
H342 C300 0.948 . S
H343 C318 0.979 . S
H344 C318 0.980 . S
H345 C318 0.983 . S
H346 C317 0.982 . S
H347 C317 0.979 . S
H348 C317 0.977 . S
H349 C319 0.948 . S
H350 C321 0.947 . S
H351 C322 0.948 . S
H352 C328 0.982 . S
H353 C328 0.979 . S
H354 C328 0.977 . S
H355 C329 0.979 . S
H356 C329 0.980 . S
H357 C329 0.983 . S
H358 C302 0.947 . S
C359 C302 1.392 . S
C359 C303 1.419 . S
C359 H341 0.948 . S
C360 C361 1.391 . S
C360 C364 1.391 . S
C360 H402 0.948 . S
C361 C360 1.391 . S
C361 C362 1.391 . S
C362 C361 1.391 . S
C362 H418 0.947 . S
C362 C419 1.392 . S
C363 C364 1.391 1_554 S
C363 C367 1.397 . S
C363 C419 1.419 1_554 S
C364 C360 1.391 . S
C364 C363 1.391 1_556 S
C364 C365 1.399 1_556 S
C365 C364 1.399 1_554 S
C365 C368 1.396 . S
C365 C377 1.453 1_554 S
C365 C378 1.684 1_554 S
H366 C390 0.948 . S
C367 C363 1.397 . S
C367 C368 1.394 . S
C367 C386 1.723 . S
C368 C365 1.396 . S
C368 C367 1.394 . S
C368 C398 1.723 . S
H369 C392 0.947 . S
H370 C393 0.948 . S
H371 C399 0.982 . S
H372 C400 0.979 . S
H373 C400 0.980 . S
H374 C400 0.983 . S
H375 C399 0.979 . S
H376 C399 0.977 . S
C377 C365 1.453 1_556 S
C377 H406 0.982 1_556 S
C377 H407 0.979 . S
C377 H408 0.977 1_556 S
C378 C365 1.684 1_556 S
C378 H403 0.979 . S
C378 H404 0.980 1_556 S
C378 H405 0.983 . S
C379 C380 1.391 . S
C379 C384 1.391 . S
C379 H409 0.948 . S
C380 C379 1.391 . S
C380 C381 1.391 . S
C381 C380 1.391 . S
C381 C382 1.392 . S
C381 H410 0.947 . S
C382 C381 1.392 . S
C382 C383 1.419 . S
C382 H411 0.948 . S
C383 C382 1.419 . S
C383 C384 1.391 . S
C383 C387 1.397 . S
C384 C379 1.391 . S
C384 C383 1.391 . S
C384 C385 1.399 . S
C385 C384 1.399 . S
C385 C386 1.396 . S
C385 C388 1.453 . S
C385 C389 1.684 . S
C386 C367 1.723 . S
C386 C385 1.396 . S
C386 C387 1.394 . S
C387 C383 1.397 . S
C387 C386 1.394 . S
C387 C397 1.723 . S
C388 C385 1.453 . S
C388 H412 0.982 . S
C388 H413 0.979 . S
C388 H414 0.977 . S
C389 C385 1.684 . S
C389 H415 0.979 . S
C389 H416 0.980 . S
C389 H417 0.983 . S
C390 H366 0.948 . S
C390 C391 1.391 . S
C390 C395 1.391 . S
C391 C390 1.391 . S
C391 C392 1.391 . S
C392 H369 0.947 . S
C392 C391 1.391 . S
C392 C393 1.392 . S
C393 H370 0.948 . S
C393 C392 1.392 . S
C393 C394 1.419 . S
C394 C393 1.419 . S
C394 C395 1.391 . S
C394 C398 1.397 . S
C395 C390 1.391 . S
C395 C394 1.391 . S
C395 C396 1.399 . S
C396 C395 1.399 . S
C396 C397 1.396 . S
C396 C399 1.453 . S
C396 C400 1.684 . S
C397 C387 1.723 . S
C397 C396 1.396 . S
C397 C398 1.394 . S
C398 C368 1.723 . S
C398 C394 1.397 . S
C398 C397 1.394 . S
C399 H371 0.982 . S
C399 H375 0.979 . S
C399 H376 0.977 . S
C399 C396 1.453 . S
C400 H372 0.979 . S
C400 H373 0.980 . S
C400 H374 0.983 . S
C400 C396 1.684 . S
H401 C419 0.948 1_554 S
H402 C360 0.948 . S
H403 C378 0.979 . S
H404 C378 0.980 1_554 S
H405 C378 0.983 . S
H406 C377 0.982 1_554 S
H407 C377 0.979 . S
H408 C377 0.977 1_554 S
H409 C379 0.948 . S
H410 C381 0.947 . S
H411 C382 0.948 . S
H412 C388 0.982 . S
H413 C388 0.979 . S
H414 C388 0.977 . S
H415 C389 0.979 . S
H416 C389 0.980 . S
H417 C389 0.983 . S
H418 C362 0.947 . S
C419 C362 1.392 . S
C419 C363 1.419 1_556 S
C419 H401 0.948 1_556 S
C420 C421 1.391 . S
C420 C424 1.391 . S
C420 H462 0.948 . S
C421 C420 1.391 . S
C421 C422 1.391 . S
C422 C421 1.391 . S
C422 H478 0.947 . S
C422 C479 1.392 . S
C423 C424 1.391 1_554 S
C423 C427 1.397 . S
C423 C479 1.419 1_554 S
C424 C420 1.391 . S
C424 C423 1.391 1_556 S
C424 C425 1.399 1_556 S
C425 C424 1.399 1_554 S
C425 C428 1.396 . S
C425 C437 1.453 1_554 S
C425 C438 1.684 1_554 S
H426 C450 0.948 . S
C427 C423 1.397 . S
C427 C428 1.394 . S
C427 C446 1.723 . S
C428 C425 1.396 . S
C428 C427 1.394 . S
C428 C458 1.723 . S
H429 C452 0.947 . S
H430 C453 0.948 . S
H431 C459 0.982 . S
H432 C460 0.979 . S
H433 C460 0.980 . S
H434 C460 0.983 . S
H435 C459 0.979 . S
H436 C459 0.977 . S
C437 C425 1.453 1_556 S
C437 H466 0.982 . S
C437 H467 0.979 . S
C437 H468 0.977 1_556 S
C438 C425 1.684 1_556 S
C438 H463 0.979 . S
C438 H464 0.980 1_556 S
C438 H465 0.983 . S
C439 C440 1.391 . S
C439 C444 1.391 . S
C439 H469 0.948 . S
C440 C439 1.391 . S
C440 C441 1.391 . S
C441 C440 1.391 . S
C441 C442 1.392 . S
C441 H470 0.947 . S
C442 C441 1.392 . S
C442 C443 1.419 . S
C442 H471 0.948 . S
C443 C442 1.419 . S
C443 C444 1.391 . S
C443 C447 1.397 . S
C444 C439 1.391 . S
C444 C443 1.391 . S
C444 C445 1.399 . S
C445 C444 1.399 . S
C445 C446 1.396 . S
C445 C448 1.453 . S
C445 C449 1.684 . S
C446 C427 1.723 . S
C446 C445 1.396 . S
C446 C447 1.394 . S
C447 C443 1.397 . S
C447 C446 1.394 . S
C447 C457 1.723 . S
C448 C445 1.453 . S
C448 H472 0.982 . S
C448 H473 0.979 . S
C448 H474 0.977 . S
C449 C445 1.684 . S
C449 H475 0.979 . S
C449 H476 0.980 . S
C449 H477 0.983 . S
C450 H426 0.948 . S
C450 C451 1.391 . S
C450 C455 1.391 . S
C451 C450 1.391 . S
C451 C452 1.391 . S
C452 H429 0.947 . S
C452 C451 1.391 . S
C452 C453 1.392 . S
C453 H430 0.948 . S
C453 C452 1.392 . S
C453 C454 1.419 . S
C454 C453 1.419 . S
C454 C455 1.391 . S
C454 C458 1.397 . S
C455 C450 1.391 . S
C455 C454 1.391 . S
C455 C456 1.399 . S
C456 C455 1.399 . S
C456 C457 1.396 . S
C456 C459 1.453 . S
C456 C460 1.684 . S
C457 C447 1.723 . S
C457 C456 1.396 . S
C457 C458 1.394 . S
C458 C428 1.723 . S
C458 C454 1.397 . S
C458 C457 1.394 . S
C459 H431 0.982 . S
C459 H435 0.979 . S
C459 H436 0.977 . S
C459 C456 1.453 . S
C460 H432 0.979 . S
C460 H433 0.980 . S
C460 H434 0.983 . S
C460 C456 1.684 . S
H461 C479 0.948 1_554 S
H462 C420 0.948 . S
H463 C438 0.979 . S
H464 C438 0.980 1_554 S
H465 C438 0.983 . S
H466 C437 0.982 . S
H467 C437 0.979 . S
H468 C437 0.977 1_554 S
H469 C439 0.948 . S
H470 C441 0.947 . S
H471 C442 0.948 . S
H472 C448 0.982 . S
H473 C448 0.979 . S
H474 C448 0.977 . S
H475 C449 0.979 . S
H476 C449 0.980 . S
H477 C449 0.983 . S
H478 C422 0.947 . S
C479 C422 1.392 . S
C479 C423 1.419 1_556 S
C479 H461 0.948 1_556 S
Zn480 O486 1.969 . S
Zn480 O487 1.965 1_655 S
Zn480 O491 2.024 1_655 S
Zn480 O496 1.969 . S
Zn481 O488 1.969 . S
Zn481 O494 1.969 . S
Zn481 O495 1.965 1_455 S
Zn481 O497 2.024 1_455 S
C482 O483 1.229 1_455 S
C482 O491 1.058 . S
O483 C482 1.229 1_655 S
C484 O485 1.229 1_655 S
C484 O497 1.058 . S
O485 C484 1.229 1_455 S
O486 Zn480 1.969 . S
O486 C489 1.267 . S
O487 Zn480 1.965 1_455 S
O487 C498 1.260 . S
O488 Zn481 1.969 . S
O488 C498 1.258 1_565 S
C489 O486 1.267 . S
C489 O490 1.228 1_655 S
O490 C489 1.228 1_455 S
O491 Zn480 2.024 1_455 S
O491 C482 1.058 . S
C492 O493 1.228 1_455 S
C492 O494 1.267 . S
O493 C492 1.228 1_655 S
O494 Zn481 1.969 . S
O494 C492 1.267 . S
O495 Zn481 1.965 1_655 S
O495 C499 1.277 . S
O496 Zn480 1.969 . S
O496 C499 1.228 1_545 S
O497 Zn481 2.024 1_655 S
O497 C484 1.058 . S
C498 O487 1.260 . S
C498 O488 1.258 1_545 S
C499 O495 1.277 . S
C499 O496 1.228 1_565 S
Zn500 O506 1.969 1_545 S
Zn500 O507 1.965 . S
Zn500 O511 2.024 . S
Zn500 O516 1.969 1_545 S
Zn501 O508 1.969 1_565 S
Zn501 O514 1.969 1_565 S
Zn501 O515 1.965 . S
Zn501 O517 2.024 . S
C502 O503 1.229 . S
C502 O511 1.058 . S
O503 C502 1.229 . S
C504 O505 1.229 . S
C504 O517 1.058 . S
O505 C504 1.229 . S
O506 Zn500 1.969 1_565 S
O506 C509 1.267 1_565 S
O507 Zn500 1.965 . S
O507 C518 1.260 . S
O508 Zn501 1.969 1_545 S
O508 C518 1.258 . S
C509 O506 1.267 1_545 S
C509 O510 1.228 . S
O510 C509 1.228 . S
O511 Zn500 2.024 . S
O511 C502 1.058 . S
C512 O513 1.228 . S
C512 O514 1.267 1_565 S
O513 C512 1.228 . S
O514 Zn501 1.969 1_545 S
O514 C512 1.267 1_545 S
O515 Zn501 1.965 . S
O515 C519 1.260 . S
O516 Zn500 1.969 1_565 S
O516 C519 1.258 . S
O517 Zn501 2.024 . S
O517 C504 1.058 . S
C518 O507 1.260 . S
C518 O508 1.258 . S
C519 O515 1.260 . S
C519 O516 1.258 . S
Zn520 O526 1.969 . S
Zn520 O527 1.965 . S
Zn520 O531 2.024 . S
Zn520 O536 1.969 . S
Zn521 O528 1.969 . S
Zn521 O534 1.969 . S
Zn521 O535 1.965 . S
Zn521 O537 2.024 . S
C522 O523 1.229 . S
C522 O531 1.058 . S
O523 C522 1.229 . S
C524 O525 1.229 . S
C524 O537 1.058 . S
O525 C524 1.229 . S
O526 Zn520 1.969 . S
O526 C529 1.267 . S
O527 Zn520 1.965 . S
O527 C538 1.260 . S
O528 Zn521 1.969 . S
O528 C538 1.258 . S
C529 O526 1.267 . S
C529 O530 1.228 . S
O530 C529 1.228 . S
O531 Zn520 2.024 . S
O531 C522 1.058 . S
C532 O533 1.228 . S
C532 O534 1.267 . S
O533 C532 1.228 . S
O534 Zn521 1.969 . S
O534 C532 1.267 . S
O535 Zn521 1.965 . S
O535 C539 1.260 . S
O536 Zn520 1.969 . S
O536 C539 1.258 . S
O537 Zn521 2.024 . S
O537 C524 1.058 . S
C538 O527 1.260 . S
C538 O528 1.258 . S
C539 O535 1.260 . S
C539 O536 1.258 . S
Zn540 O546 1.969 . S
Zn540 O547 1.965 . S
Zn540 O551 2.024 . S
Zn540 O556 1.969 . S
Zn541 O548 1.969 . S
Zn541 O554 1.969 . S
Zn541 O555 1.965 . S
Zn541 O557 2.024 . S
C542 O543 1.229 . S
C542 O551 1.058 . S
O543 C542 1.229 . S
C544 O545 1.229 . S
C544 O557 1.058 . S
O545 C544 1.229 . S
O546 Zn540 1.969 . S
O546 C549 1.267 . S
O547 Zn540 1.965 . S
O547 C558 1.260 1_455 S
O548 Zn541 1.969 . S
O548 C558 1.258 . S
C549 O546 1.267 . S
C549 O550 1.228 . S
O550 C549 1.228 . S
O551 Zn540 2.024 . S
O551 C542 1.058 . S
C552 O553 1.228 . S
C552 O554 1.267 . S
O553 C552 1.228 . S
O554 Zn541 1.969 . S
O554 C552 1.267 . S
O555 Zn541 1.965 . S
O555 C559 1.260 1_655 S
O556 Zn540 1.969 . S
O556 C559 1.258 . S
O557 Zn541 2.024 . S
O557 C544 1.058 . S
C558 O547 1.260 1_655 S
C558 O548 1.258 . S
C559 O555 1.260 1_455 S
C559 O556 1.258 . S
H560 C566 0.930 . S
H561 C569 0.930 . S
H562 C570 0.930 . S
H563 C571 0.930 1_565 S
H564 C574 0.930 . S
H565 C575 0.930 . S
C566 H560 0.930 . S
C566 C567 1.355 . S
C566 C568 1.415 . S
C567 C566 1.355 . S
C567 C569 1.419 . S
C568 C566 1.415 . S
C568 C573 1.425 . S
C568 C575 1.409 . S
C569 H561 0.930 . S
C569 C567 1.419 . S
C569 C570 1.362 . S
C570 H562 0.930 . S
C570 C569 1.362 . S
C570 C573 1.409 . S
C571 H563 0.930 1_545 S
C571 C572 1.355 . S
C571 C573 1.415 . S
C572 C571 1.355 . S
C572 C574 1.419 . S
C573 C568 1.425 . S
C573 C570 1.409 . S
C573 C571 1.415 . S
C574 H564 0.930 . S
C574 C572 1.419 . S
C574 C575 1.362 . S
C575 H565 0.930 . S
C575 C568 1.409 . S
C575 C574 1.362 . S
H576 C582 0.930 . S
H577 C585 0.930 . S
H578 C586 0.930 . S
H579 C587 0.930 . S
H580 C590 0.930 . S
H581 C591 0.930 . S
C582 H576 0.930 . S
C582 C583 1.355 . S
C582 C584 1.415 . S
C583 C582 1.355 . S
C583 C585 1.419 . S
C584 C582 1.415 . S
C584 C589 1.425 . S
C584 C591 1.409 . S
C585 H577 0.930 . S
C585 C583 1.419 . S
C585 C586 1.362 . S
C586 H578 0.930 . S
C586 C585 1.362 . S
C586 C589 1.409 . S
C587 H579 0.930 . S
C587 C588 1.355 . S
C587 C589 1.415 . S
C588 C587 1.355 . S
C588 C590 1.419 . S
C589 C584 1.425 . S
C589 C586 1.409 . S
C589 C587 1.415 . S
C590 H580 0.930 . S
C590 C588 1.419 . S
C590 C591 1.362 . S
C591 H581 0.930 . S
C591 C584 1.409 . S
C591 C590 1.362 . S
H592 C598 0.930 . S
H593 C601 0.930 . S
H594 C602 0.930 . S
H595 C603 0.930 . S
H596 C606 0.930 . S
H597 C607 0.930 . S
C598 H592 0.930 . S
C598 C599 1.355 . S
C598 C600 1.415 . S
C599 C598 1.355 . S
C599 C601 1.419 . S
C600 C598 1.415 . S
C600 C605 1.425 . S
C600 C607 1.409 . S
C601 H593 0.930 . S
C601 C599 1.419 . S
C601 C602 1.362 . S
C602 H594 0.930 . S
C602 C601 1.362 . S
C602 C605 1.409 . S
C603 H595 0.930 . S
C603 C604 1.355 . S
C603 C605 1.415 . S
C604 C603 1.355 . S
C604 C606 1.419 . S
C605 C600 1.425 . S
C605 C602 1.409 . S
C605 C603 1.415 . S
C606 H596 0.930 . S
C606 C604 1.419 . S
C606 C607 1.362 . S
C607 H597 0.930 . S
C607 C600 1.409 . S
C607 C606 1.362 . S
H608 C614 0.930 . S
H609 C617 0.930 . S
H610 C618 0.930 . S
H611 C619 0.930 . S
H612 C622 0.930 . S
H613 C623 0.930 . S
C614 H608 0.930 . S
C614 C615 1.355 1_455 S
C614 C616 1.415 . S
C615 C614 1.355 1_655 S
C615 C617 1.419 . S
C616 C614 1.415 . S
C616 C621 1.425 1_455 S
C616 C623 1.409 . S
C617 H609 0.930 . S
C617 C615 1.419 . S
C617 C618 1.362 . S
C618 H610 0.930 . S
C618 C617 1.362 . S
C618 C621 1.409 . S
C619 H611 0.930 . S
C619 C620 1.355 . S
C619 C621 1.415 . S
C620 C619 1.355 . S
C620 C622 1.419 1_655 S
C621 C616 1.425 1_655 S
C621 C618 1.409 . S
C621 C619 1.415 . S
C622 H612 0.930 . S
C622 C620 1.419 1_455 S
C622 C623 1.362 . S
C623 H613 0.930 . S
C623 C616 1.409 . S
C623 C622 1.362 . S
H624 C630 0.930 . S
H625 C633 0.930 . S
H626 C634 0.930 . S
H627 C635 0.930 . S
H628 C638 0.930 . S
H629 C639 0.930 . S
C630 H624 0.930 . S
C630 C631 1.355 . S
C630 C632 1.415 . S
C631 C630 1.355 . S
C631 C633 1.419 . S
C632 C630 1.415 . S
C632 C637 1.425 . S
C632 C639 1.409 . S
C633 H625 0.930 . S
C633 C631 1.419 . S
C633 C634 1.362 . S
C634 H626 0.930 . S
C634 C633 1.362 . S
C634 C637 1.409 . S
C635 H627 0.930 . S
C635 C636 1.355 . S
C635 C637 1.415 . S
C636 C635 1.355 . S
C636 C638 1.419 . S
C637 C632 1.425 . S
C637 C634 1.409 . S
C637 C635 1.415 . S
C638 H628 0.930 . S
C638 C636 1.419 . S
C638 C639 1.362 . S
C639 H629 0.930 . S
C639 C632 1.409 . S
C639 C638 1.362 . S
H640 C646 0.930 . S
H641 C649 0.930 . S
H642 C650 0.930 . S
H643 C651 0.930 . S
H644 C654 0.930 . S
H645 C655 0.930 . S
C646 H640 0.930 . S
C646 C647 1.355 . S
C646 C648 1.415 . S
C647 C646 1.355 . S
C647 C649 1.419 . S
C648 C646 1.415 . S
C648 C653 1.425 . S
C648 C655 1.409 . S
C649 H641 0.930 . S
C649 C647 1.419 . S
C649 C650 1.362 . S
C650 H642 0.930 . S
C650 C649 1.362 . S
C650 C653 1.409 . S
C651 H643 0.930 . S
C651 C652 1.355 . S
C651 C653 1.415 . S
C652 C651 1.355 . S
C652 C654 1.419 . S
C653 C648 1.425 . S
C653 C650 1.409 . S
C653 C651 1.415 . S
C654 H644 0.930 . S
C654 C652 1.419 . S
C654 C655 1.362 . S
C655 H645 0.930 . S
C655 C648 1.409 . S
C655 C654 1.362 . S
H656 C662 0.930 . S
H657 C665 0.930 . S
H658 C666 0.930 . S
H659 C667 0.930 . S
H660 C670 0.930 . S
H661 C671 0.930 . S
C662 H656 0.930 . S
C662 C663 1.355 . S
C662 C664 1.415 . S
C663 C662 1.355 . S
C663 C665 1.419 . S
C664 C662 1.415 . S
C664 C669 1.425 . S
C664 C671 1.409 . S
C665 H657 0.930 . S
C665 C663 1.419 . S
C665 C666 1.362 . S
C666 H658 0.930 . S
C666 C665 1.362 . S
C666 C669 1.409 . S
C667 H659 0.930 . S
C667 C668 1.355 . S
C667 C669 1.415 . S
C668 C667 1.355 . S
C668 C670 1.419 . S
C669 C664 1.425 . S
C669 C666 1.409 . S
C669 C667 1.415 . S
C670 H660 0.930 . S
C670 C668 1.419 . S
C670 C671 1.362 . S
C671 H661 0.930 . S
C671 C664 1.409 . S
C671 C670 1.362 . S
H672 C678 0.930 . S
H673 C681 0.930 . S
H674 C682 0.930 . S
H675 C683 0.930 . S
H676 C686 0.930 . S
H677 C687 0.930 . S
C678 H672 0.930 . S
C678 C679 1.355 1_655 S
C678 C680 1.415 . S
C679 C678 1.355 1_455 S
C679 C681 1.419 . S
C680 C678 1.415 . S
C680 C685 1.425 1_655 S
C680 C687 1.409 . S
C681 H673 0.930 . S
C681 C679 1.419 . S
C681 C682 1.362 . S
C682 H674 0.930 . S
C682 C681 1.362 . S
C682 C685 1.409 . S
C683 H675 0.930 . S
C683 C684 1.355 . S
C683 C685 1.415 . S
C684 C683 1.355 . S
C684 C686 1.419 1_455 S
C685 C680 1.425 1_455 S
C685 C682 1.409 . S
C685 C683 1.415 . S
C686 H676 0.930 . S
C686 C684 1.419 1_655 S
C686 C687 1.362 . S
C687 H677 0.930 . S
C687 C680 1.409 . S
C687 C686 1.362 . S
H688 C694 0.930 . S
H689 C697 0.930 . S
H690 C698 0.930 . S
H691 C699 0.930 . S
H692 C702 0.930 . S
H693 C703 0.930 . S
C694 H688 0.930 . S
C694 C695 1.355 1_455 S
C694 C696 1.415 . S
C695 C694 1.355 1_655 S
C695 C697 1.419 . S
C696 C694 1.415 . S
C696 C701 1.425 1_455 S
C696 C703 1.409 . S
C697 H689 0.930 . S
C697 C695 1.419 . S
C697 C698 1.362 . S
C698 H690 0.930 . S
C698 C697 1.362 . S
C698 C701 1.409 . S
C699 H691 0.930 . S
C699 C700 1.355 . S
C699 C701 1.415 . S
C700 C699 1.355 . S
C700 C702 1.419 1_655 S
C701 C696 1.425 1_655 S
C701 C698 1.409 . S
C701 C699 1.415 . S
C702 H692 0.930 . S
C702 C700 1.419 1_455 S
C702 C703 1.362 . S
C703 H693 0.930 . S
C703 C696 1.409 . S
C703 C702 1.362 . S
H704 C710 0.930 . S
H705 C713 0.930 . S
H706 C714 0.930 . S
H707 C715 0.930 . S
H708 C718 0.930 . S
H709 C719 0.930 . S
C710 H704 0.930 . S
C710 C711 1.355 . S
C710 C712 1.415 . S
C711 C710 1.355 . S
C711 C713 1.419 . S
C712 C710 1.415 . S
C712 C717 1.425 . S
C712 C719 1.409 . S
C713 H705 0.930 . S
C713 C711 1.419 . S
C713 C714 1.362 . S
C714 H706 0.930 . S
C714 C713 1.362 . S
C714 C717 1.409 . S
C715 H707 0.930 . S
C715 C716 1.355 . S
C715 C717 1.415 . S
C716 C715 1.355 . S
C716 C718 1.419 . S
C717 C712 1.425 . S
C717 C714 1.409 . S
C717 C715 1.415 . S
C718 H708 0.930 . S
C718 C716 1.419 . S
C718 C719 1.362 . S
C719 H709 0.930 . S
C719 C712 1.409 . S
C719 C718 1.362 . S
H720 C726 0.930 . S
H721 C729 0.930 . S
H722 C730 0.930 . S
H723 C731 0.930 . S
H724 C734 0.930 . S
H725 C735 0.930 . S
C726 H720 0.930 . S
C726 C727 1.355 . S
C726 C728 1.415 . S
C727 C726 1.355 . S
C727 C729 1.419 . S
C728 C726 1.415 . S
C728 C733 1.425 . S
C728 C735 1.409 . S
C729 H721 0.930 . S
C729 C727 1.419 . S
C729 C730 1.362 . S
C730 H722 0.930 . S
C730 C729 1.362 . S
C730 C733 1.409 . S
C731 H723 0.930 . S
C731 C732 1.355 . S
C731 C733 1.415 . S
C732 C731 1.355 . S
C732 C734 1.419 . S
C733 C728 1.425 . S
C733 C730 1.409 . S
C733 C731 1.415 . S
C734 H724 0.930 . S
C734 C732 1.419 . S
C734 C735 1.362 . S
C735 H725 0.930 . S
C735 C728 1.409 . S
C735 C734 1.362 . S
H736 C742 0.930 . S
H737 C745 0.930 . S
H738 C746 0.930 . S
H739 C747 0.930 . S
H740 C750 0.930 . S
H741 C751 0.930 . S
C742 H736 0.930 . S
C742 C743 1.355 . S
C742 C744 1.415 . S
C743 C742 1.355 . S
C743 C745 1.419 . S
C744 C742 1.415 . S
C744 C749 1.425 . S
C744 C751 1.409 . S
C745 H737 0.930 . S
C745 C743 1.419 . S
C745 C746 1.362 . S
C746 H738 0.930 . S
C746 C745 1.362 . S
C746 C749 1.409 . S
C747 H739 0.930 . S
C747 C748 1.355 . S
C747 C749 1.415 . S
C748 C747 1.355 . S
C748 C750 1.419 . S
C749 C744 1.425 . S
C749 C746 1.409 . S
C749 C747 1.415 . S
C750 H740 0.930 . S
C750 C748 1.419 . S
C750 C751 1.362 . S
C751 H741 0.930 . S
C751 C744 1.409 . S
C751 C750 1.362 . S
H752 C758 0.930 . S
H753 C761 0.930 . S
H754 C762 0.930 . S
H755 C763 0.930 . S
H756 C766 0.930 . S
H757 C767 0.930 . S
C758 H752 0.930 . S
C758 C759 1.355 1_455 S
C758 C760 1.415 . S
C759 C758 1.355 1_655 S
C759 C761 1.419 . S
C760 C758 1.415 . S
C760 C765 1.425 1_455 S
C760 C767 1.409 . S
C761 H753 0.930 . S
C761 C759 1.419 . S
C761 C762 1.362 . S
C762 H754 0.930 . S
C762 C761 1.362 . S
C762 C765 1.409 . S
C763 H755 0.930 . S
C763 C764 1.355 1_655 S
C763 C765 1.415 . S
C764 C763 1.355 1_455 S
C764 C766 1.419 . S
C765 C760 1.425 1_655 S
C765 C762 1.409 . S
C765 C763 1.415 . S
C766 H756 0.930 . S
C766 C764 1.419 . S
C766 C767 1.362 . S
C767 H757 0.930 . S
C767 C760 1.409 . S
C767 C766 1.362 . S
H768 C774 0.930 . S
H769 C777 0.930 . S
H770 C778 0.930 . S
H771 C779 0.930 . S
H772 C782 0.930 . S
H773 C783 0.930 . S
C774 H768 0.930 . S
C774 C775 1.355 . S
C774 C776 1.415 . S
C775 C774 1.355 . S
C775 C777 1.419 . S
C776 C774 1.415 . S
C776 C781 1.425 . S
C776 C783 1.409 . S
C777 H769 0.930 . S
C777 C775 1.419 . S
C777 C778 1.362 . S
C778 H770 0.930 . S
C778 C777 1.362 . S
C778 C781 1.409 . S
C779 H771 0.930 . S
C779 C780 1.355 . S
C779 C781 1.415 . S
C780 C779 1.355 . S
C780 C782 1.419 . S
C781 C776 1.425 . S
C781 C778 1.409 . S
C781 C779 1.415 . S
C782 H772 0.930 . S
C782 C780 1.419 . S
C782 C783 1.362 . S
C783 H773 0.930 . S
C783 C776 1.409 . S
C783 C782 1.362 . S
H784 C790 0.930 . S
H785 C793 0.930 . S
H786 C794 0.930 . S
H787 C795 0.930 . S
H788 C798 0.930 . S
H789 C799 0.930 . S
C790 H784 0.930 . S
C790 C791 1.355 . S
C790 C792 1.415 . S
C791 C790 1.355 . S
C791 C793 1.419 . S
C792 C790 1.415 . S
C792 C797 1.425 . S
C792 C799 1.409 . S
C793 H785 0.930 . S
C793 C791 1.419 . S
C793 C794 1.362 . S
C794 H786 0.930 . S
C794 C793 1.362 . S
C794 C797 1.409 . S
C795 H787 0.930 . S
C795 C796 1.355 . S
C795 C797 1.415 . S
C796 C795 1.355 . S
C796 C798 1.419 . S
C797 C792 1.425 . S
C797 C794 1.409 . S
C797 C795 1.415 . S
C798 H788 0.930 . S
C798 C796 1.419 . S
C798 C799 1.362 . S
C799 H789 0.930 . S
C799 C792 1.409 . S
C799 C798 1.362 . S
H800 C806 0.930 . S
H801 C809 0.930 . S
H802 C810 0.930 . S
H803 C811 0.930 . S
H804 C814 0.930 . S
H805 C815 0.930 . S
C806 H800 0.930 . S
C806 C807 1.355 . S
C806 C808 1.415 . S
C807 C806 1.355 . S
C807 C809 1.419 . S
C808 C806 1.415 . S
C808 C813 1.425 . S
C808 C815 1.409 . S
C809 H801 0.930 . S
C809 C807 1.419 . S
C809 C810 1.362 . S
C810 H802 0.930 . S
C810 C809 1.362 . S
C810 C813 1.409 . S
C811 H803 0.930 . S
C811 C812 1.355 . S
C811 C813 1.415 . S
C812 C811 1.355 . S
C812 C814 1.419 . S
C813 C808 1.425 . S
C813 C810 1.409 . S
C813 C811 1.415 . S
C814 H804 0.930 . S
C814 C812 1.419 . S
C814 C815 1.362 . S
C815 H805 0.930 . S
C815 C808 1.409 . S
C815 C814 1.362 . S
H816 C822 0.930 . S
H817 C825 0.930 . S
H818 C826 0.930 . S
H819 C827 0.930 . S
H820 C830 0.930 . S
H821 C831 0.930 . S
C822 H816 0.930 . S
C822 C823 1.355 1_655 S
C822 C824 1.415 . S
C823 C822 1.355 1_455 S
C823 C825 1.419 . S
C824 C822 1.415 . S
C824 C829 1.425 1_655 S
C824 C831 1.409 . S
C825 H817 0.930 . S
C825 C823 1.419 . S
C825 C826 1.362 . S
C826 H818 0.930 . S
C826 C825 1.362 . S
C826 C829 1.409 . S
C827 H819 0.930 . S
C827 C828 1.355 . S
C827 C829 1.415 . S
C828 C827 1.355 . S
C828 C830 1.419 1_455 S
C829 C824 1.425 1_455 S
C829 C826 1.409 . S
C829 C827 1.415 . S
C830 H820 0.930 . S
C830 C828 1.419 1_655 S
C830 C831 1.362 . S
C831 H821 0.930 . S
C831 C824 1.409 . S
C831 C830 1.362 . S
H832 C838 0.930 . S
H833 C841 0.930 . S
H834 C842 0.930 . S
H835 C843 0.930 . S
H836 C846 0.930 . S
H837 C847 0.930 . S
C838 H832 0.930 . S
C838 C839 1.355 . S
C838 C840 1.415 . S
C839 C838 1.355 . S
C839 C841 1.419 . S
C840 C838 1.415 . S
C840 C845 1.425 . S
C840 C847 1.409 . S
C841 H833 0.930 . S
C841 C839 1.419 . S
C841 C842 1.362 . S
C842 H834 0.930 . S
C842 C841 1.362 . S
C842 C845 1.409 . S
C843 H835 0.930 . S
C843 C844 1.355 . S
C843 C845 1.415 . S
C844 C843 1.355 . S
C844 C846 1.419 . S
C845 C840 1.425 . S
C845 C842 1.409 . S
C845 C843 1.415 . S
C846 H836 0.930 . S
C846 C844 1.419 . S
C846 C847 1.362 . S
C847 H837 0.930 . S
C847 C840 1.409 . S
C847 C846 1.362 . S
H848 C854 0.930 . S
H849 C857 0.930 . S
H850 C858 0.930 . S
H851 C859 0.930 . S
H852 C862 0.930 . S
H853 C863 0.930 . S
C854 H848 0.930 . S
C854 C855 1.355 . S
C854 C856 1.415 . S
C855 C854 1.355 . S
C855 C857 1.419 . S
C856 C854 1.415 . S
C856 C861 1.425 . S
C856 C863 1.409 . S
C857 H849 0.930 . S
C857 C855 1.419 . S
C857 C858 1.362 . S
C858 H850 0.930 . S
C858 C857 1.362 . S
C858 C861 1.409 . S
C859 H851 0.930 . S
C859 C860 1.355 . S
C859 C861 1.415 . S
C860 C859 1.355 . S
C860 C862 1.419 . S
C861 C856 1.425 . S
C861 C858 1.409 . S
C861 C859 1.415 . S
C862 H852 0.930 . S
C862 C860 1.419 . S
C862 C863 1.362 . S
C863 H853 0.930 . S
C863 C856 1.409 . S
C863 C862 1.362 . S
H864 C870 0.930 . S
H865 C873 0.930 . S
H866 C874 0.930 . S
H867 C875 0.930 . S
H868 C878 0.930 . S
H869 C879 0.930 . S
C870 H864 0.930 . S
C870 C871 1.355 . S
C870 C872 1.415 . S
C871 C870 1.355 . S
C871 C873 1.419 . S
C872 C870 1.415 . S
C872 C877 1.425 . S
C872 C879 1.409 . S
C873 H865 0.930 . S
C873 C871 1.419 . S
C873 C874 1.362 . S
C874 H866 0.930 . S
C874 C873 1.362 . S
C874 C877 1.409 . S
C875 H867 0.930 . S
C875 C876 1.355 . S
C875 C877 1.415 . S
C876 C875 1.355 . S
C876 C878 1.419 . S
C877 C872 1.425 . S
C877 C874 1.409 . S
C877 C875 1.415 . S
C878 H868 0.930 . S
C878 C876 1.419 . S
C878 C879 1.362 . S
C879 H869 0.930 . S
C879 C872 1.409 . S
C879 C878 1.362 . S
H880 C886 0.930 . S
H881 C889 0.930 . S
H882 C890 0.930 . S
H883 C891 0.930 . S
H884 C894 0.930 . S
H885 C895 0.930 . S
C886 H880 0.930 . S
C886 C887 1.355 . S
C886 C888 1.415 . S
C887 C886 1.355 . S
C887 C889 1.418 1_655 S
C888 C886 1.415 . S
C888 C893 1.425 1_655 S
C888 C895 1.409 . S
C889 H881 0.930 . S
C889 C887 1.418 1_455 S
C889 C890 1.362 . S
C890 H882 0.930 . S
C890 C889 1.362 . S
C890 C893 1.409 . S
C891 H883 0.930 . S
C891 C892 1.355 1_455 S
C891 C893 1.415 . S
C892 C891 1.355 1_655 S
C892 C894 1.419 . S
C893 C888 1.425 1_455 S
C893 C890 1.409 . S
C893 C891 1.415 . S
C894 H884 0.930 . S
C894 C892 1.419 . S
C894 C895 1.362 . S
C895 H885 0.930 . S
C895 C888 1.409 . S
C895 C894 1.362 . S
H896 C902 0.930 . S
H897 C905 0.930 . S
H898 C906 0.930 . S
H899 C907 0.930 . S
H900 C910 0.930 . S
H901 C911 0.930 . S
C902 H896 0.930 . S
C902 C903 1.355 . S
C902 C904 1.415 . S
C903 C902 1.355 . S
C903 C905 1.419 . S
C904 C902 1.415 . S
C904 C909 1.425 . S
C904 C911 1.409 . S
C905 H897 0.930 . S
C905 C903 1.419 . S
C905 C906 1.362 . S
C906 H898 0.930 . S
C906 C905 1.362 . S
C906 C909 1.409 . S
C907 H899 0.930 . S
C907 C908 1.355 . S
C907 C909 1.415 . S
C908 C907 1.355 . S
C908 C910 1.419 . S
C909 C904 1.425 . S
C909 C906 1.409 . S
C909 C907 1.415 . S
C910 H900 0.930 . S
C910 C908 1.419 . S
C910 C911 1.362 . S
C911 H901 0.930 . S
C911 C904 1.409 . S
C911 C910 1.362 . S
H912 C918 0.930 . S
H913 C921 0.930 . S
H914 C922 0.930 . S
H915 C923 0.930 . S
H916 C926 0.930 . S
H917 C927 0.930 . S
C918 H912 0.930 . S
C918 C919 1.355 . S
C918 C920 1.415 . S
C919 C918 1.355 . S
C919 C921 1.419 . S
C920 C918 1.415 . S
C920 C925 1.425 . S
C920 C927 1.409 . S
C921 H913 0.930 . S
C921 C919 1.419 . S
C921 C922 1.362 . S
C922 H914 0.930 . S
C922 C921 1.362 . S
C922 C925 1.409 . S
C923 H915 0.930 . S
C923 C924 1.355 . S
C923 C925 1.415 . S
C924 C923 1.355 . S
C924 C926 1.419 . S
C925 C920 1.425 . S
C925 C922 1.409 . S
C925 C923 1.415 . S
C926 H916 0.930 . S
C926 C924 1.419 . S
C926 C927 1.362 . S
C927 H917 0.930 . S
C927 C920 1.409 . S
C927 C926 1.362 . S
H928 C934 0.930 . S
H929 C937 0.930 . S
H930 C938 0.930 . S
H931 C939 0.930 . S
H932 C942 0.930 . S
H933 C943 0.930 . S
C934 H928 0.930 . S
C934 C935 1.355 . S
C934 C936 1.415 . S
C935 C934 1.355 . S
C935 C937 1.419 . S
C936 C934 1.415 . S
C936 C941 1.425 . S
C936 C943 1.409 . S
C937 H929 0.930 . S
C937 C935 1.419 . S
C937 C938 1.362 . S
C938 H930 0.930 . S
C938 C937 1.362 . S
C938 C941 1.409 . S
C939 H931 0.930 . S
C939 C940 1.355 . S
C939 C941 1.415 . S
C940 C939 1.355 . S
C940 C942 1.419 . S
C941 C936 1.425 . S
C941 C938 1.409 . S
C941 C939 1.415 . S
C942 H932 0.930 . S
C942 C940 1.419 . S
C942 C943 1.362 . S
C943 H933 0.930 . S
C943 C936 1.409 . S
C943 C942 1.362 . S
C567 C391 1.971 . S
C572 C498 1.925 . S
C588 C518 1.672 . S
C583 C451 1.736 . S
C604 C538 1.929 . S
C599 C241 1.726 . S
C620 C558 1.645 . S
C615 C331 1.518 . S
C636 C499 1.928 . S
C631 C121 1.760 . S
C647 C211 1.718 . S
C652 C519 1.609 . S
C663 C31 1.838 . S
C668 C539 1.868 . S
C679 C91 1.475 1_455 S
C684 C559 1.592 . S
C700 C489 0.632 . S
C695 C301 0.661 . S
C716 C509 0.910 . S
C711 C380 0.963 . S
C732 C529 0.776 . S
C727 C440 0.802 . S
C743 C260 0.968 . S
C748 C549 0.991 . S
C759 C61 0.681 . S
C764 C492 0.765 . S
C780 C512 0.951 . S
C775 C140 1.002 . S
C796 C532 0.841 . S
C791 C200 0.781 . S
C807 C20 0.986 . S
C812 C552 0.943 . S
C823 C320 2.180 1_455 S
C828 C482 2.014 . S
C839 C361 2.021 . S
C844 C502 2.146 . S
C860 C522 1.953 . S
C855 C421 1.791 . S
C876 C542 2.216 . S
C871 C271 2.301 . S
C887 C80 2.178 . S
C892 C484 2.045 . S
C908 C504 2.065 . S
C903 C151 2.239 . S
C924 C524 2.013 . S
C919 C181 1.866 . S
C935 C1 1.944 . S
C940 C544 2.145 . S
