# Generated by pormake.
# Topology eea, (3,6)-cn, num edge types: 1
# Building blocks:
#     Node 0, Type 0, BuildingBlock: BELTOD_clean_linker_0, # of connection points: 3
#     Node 1, Type 0, BuildingBlock: BELTOD_clean_linker_0, # of connection points: 3
#     Node 2, Type 0, BuildingBlock: BELTOD_clean_linker_0, # of connection points: 3
#     Node 3, Type 0, BuildingBlock: BELTOD_clean_linker_0, # of connection points: 3
#     Node 4, Type 0, BuildingBlock: BELTOD_clean_linker_0, # of connection points: 3
#     Node 5, Type 0, BuildingBlock: BELTOD_clean_linker_0, # of connection points: 3
#     Node 6, Type 0, BuildingBlock: BELTOD_clean_linker_0, # of connection points: 3
#     Node 7, Type 0, BuildingBlock: BELTOD_clean_linker_0, # of connection points: 3
#     Node 8, Type 0, BuildingBlock: BELTOD_clean_linker_0, # of connection points: 3
#     Node 9, Type 0, BuildingBlock: BELTOD_clean_linker_0, # of connection points: 3
#     Node 10, Type 0, BuildingBlock: BELTOD_clean_linker_0, # of connection points: 3
#     Node 11, Type 0, BuildingBlock: BELTOD_clean_linker_0, # of connection points: 3
#     Node 12, Type 0, BuildingBlock: BELTOD_clean_linker_0, # of connection points: 3
#     Node 13, Type 0, BuildingBlock: BELTOD_clean_linker_0, # of connection points: 3
#     Node 14, Type 0, BuildingBlock: BELTOD_clean_linker_0, # of connection points: 3
#     Node 15, Type 0, BuildingBlock: BELTOD_clean_linker_0, # of connection points: 3
#     Node 16, Type 0, BuildingBlock: BELTOD_clean_linker_0, # of connection points: 3
#     Node 17, Type 0, BuildingBlock: BELTOD_clean_linker_0, # of connection points: 3
#     Node 18, Type 1, BuildingBlock: CUWYAW_clean_sbu_0, # of connection points: 6
#     Node 19, Type 1, BuildingBlock: CUWYAW_clean_sbu_0, # of connection points: 6
#     Node 20, Type 1, BuildingBlock: CUWYAW_clean_sbu_0, # of connection points: 6
#     Node 21, Type 1, BuildingBlock: CUWYAW_clean_sbu_0, # of connection points: 6
#     Node 22, Type 1, BuildingBlock: CUWYAW_clean_sbu_0, # of connection points: 6
#     Node 23, Type 1, BuildingBlock: CUWYAW_clean_sbu_0, # of connection points: 6
#     Node 24, Type 1, BuildingBlock: CUWYAW_clean_sbu_0, # of connection points: 6
#     Node 25, Type 1, BuildingBlock: CUWYAW_clean_sbu_0, # of connection points: 6
#     Node 26, Type 1, BuildingBlock: CUWYAW_clean_sbu_0, # of connection points: 6
#     Edge 27, Type (0, 1), BuildingBlock: TEMPAE_clean_linker_10, # of connection points: 2
#     Edge 28, Type (0, 1), BuildingBlock: TEMPAE_clean_linker_10, # of connection points: 2
#     Edge 29, Type (0, 1), BuildingBlock: TEMPAE_clean_linker_10, # of connection points: 2
#     Edge 30, Type (0, 1), BuildingBlock: TEMPAE_clean_linker_10, # of connection points: 2
#     Edge 31, Type (0, 1), BuildingBlock: TEMPAE_clean_linker_10, # of connection points: 2
#     Edge 32, Type (0, 1), BuildingBlock: TEMPAE_clean_linker_10, # of connection points: 2
#     Edge 33, Type (0, 1), BuildingBlock: TEMPAE_clean_linker_10, # of connection points: 2
#     Edge 34, Type (0, 1), BuildingBlock: TEMPAE_clean_linker_10, # of connection points: 2
#     Edge 35, Type (0, 1), BuildingBlock: TEMPAE_clean_linker_10, # of connection points: 2
#     Edge 36, Type (0, 1), BuildingBlock: TEMPAE_clean_linker_10, # of connection points: 2
#     Edge 37, Type (0, 1), BuildingBlock: TEMPAE_clean_linker_10, # of connection points: 2
#     Edge 38, Type (0, 1), BuildingBlock: TEMPAE_clean_linker_10, # of connection points: 2
#     Edge 39, Type (0, 1), BuildingBlock: TEMPAE_clean_linker_10, # of connection points: 2
#     Edge 40, Type (0, 1), BuildingBlock: TEMPAE_clean_linker_10, # of connection points: 2
#     Edge 41, Type (0, 1), BuildingBlock: TEMPAE_clean_linker_10, # of connection points: 2
#     Edge 42, Type (0, 1), BuildingBlock: TEMPAE_clean_linker_10, # of connection points: 2
#     Edge 43, Type (0, 1), BuildingBlock: TEMPAE_clean_linker_10, # of connection points: 2
#     Edge 44, Type (0, 1), BuildingBlock: TEMPAE_clean_linker_10, # of connection points: 2
#     Edge 45, Type (0, 1), BuildingBlock: TEMPAE_clean_linker_10, # of connection points: 2
#     Edge 46, Type (0, 1), BuildingBlock: TEMPAE_clean_linker_10, # of connection points: 2
#     Edge 47, Type (0, 1), BuildingBlock: TEMPAE_clean_linker_10, # of connection points: 2
#     Edge 48, Type (0, 1), BuildingBlock: TEMPAE_clean_linker_10, # of connection points: 2
#     Edge 49, Type (0, 1), BuildingBlock: TEMPAE_clean_linker_10, # of connection points: 2
#     Edge 50, Type (0, 1), BuildingBlock: TEMPAE_clean_linker_10, # of connection points: 2
#     Edge 51, Type (0, 1), BuildingBlock: TEMPAE_clean_linker_10, # of connection points: 2
#     Edge 52, Type (0, 1), BuildingBlock: TEMPAE_clean_linker_10, # of connection points: 2
#     Edge 53, Type (0, 1), BuildingBlock: TEMPAE_clean_linker_10, # of connection points: 2
#     Edge 54, Type (0, 1), BuildingBlock: TEMPAE_clean_linker_10, # of connection points: 2
#     Edge 55, Type (0, 1), BuildingBlock: TEMPAE_clean_linker_10, # of connection points: 2
#     Edge 56, Type (0, 1), BuildingBlock: TEMPAE_clean_linker_10, # of connection points: 2
#     Edge 57, Type (0, 1), BuildingBlock: TEMPAE_clean_linker_10, # of connection points: 2
#     Edge 58, Type (0, 1), BuildingBlock: TEMPAE_clean_linker_10, # of connection points: 2
#     Edge 59, Type (0, 1), BuildingBlock: TEMPAE_clean_linker_10, # of connection points: 2
#     Edge 60, Type (0, 1), BuildingBlock: TEMPAE_clean_linker_10, # of connection points: 2
#     Edge 61, Type (0, 1), BuildingBlock: TEMPAE_clean_linker_10, # of connection points: 2
#     Edge 62, Type (0, 1), BuildingBlock: TEMPAE_clean_linker_10, # of connection points: 2
#     Edge 63, Type (0, 1), BuildingBlock: TEMPAE_clean_linker_10, # of connection points: 2
#     Edge 64, Type (0, 1), BuildingBlock: TEMPAE_clean_linker_10, # of connection points: 2
#     Edge 65, Type (0, 1), BuildingBlock: TEMPAE_clean_linker_10, # of connection points: 2
#     Edge 66, Type (0, 1), BuildingBlock: TEMPAE_clean_linker_10, # of connection points: 2
#     Edge 67, Type (0, 1), BuildingBlock: TEMPAE_clean_linker_10, # of connection points: 2
#     Edge 68, Type (0, 1), BuildingBlock: TEMPAE_clean_linker_10, # of connection points: 2
#     Edge 69, Type (0, 1), BuildingBlock: TEMPAE_clean_linker_10, # of connection points: 2
#     Edge 70, Type (0, 1), BuildingBlock: TEMPAE_clean_linker_10, # of connection points: 2
#     Edge 71, Type (0, 1), BuildingBlock: TEMPAE_clean_linker_10, # of connection points: 2
#     Edge 72, Type (0, 1), BuildingBlock: TEMPAE_clean_linker_10, # of connection points: 2
#     Edge 73, Type (0, 1), BuildingBlock: TEMPAE_clean_linker_10, # of connection points: 2
#     Edge 74, Type (0, 1), BuildingBlock: TEMPAE_clean_linker_10, # of connection points: 2
#     Edge 75, Type (0, 1), BuildingBlock: TEMPAE_clean_linker_10, # of connection points: 2
#     Edge 76, Type (0, 1), BuildingBlock: TEMPAE_clean_linker_10, # of connection points: 2
#     Edge 77, Type (0, 1), BuildingBlock: TEMPAE_clean_linker_10, # of connection points: 2
#     Edge 78, Type (0, 1), BuildingBlock: TEMPAE_clean_linker_10, # of connection points: 2
#     Edge 79, Type (0, 1), BuildingBlock: TEMPAE_clean_linker_10, # of connection points: 2
#     Edge 80, Type (0, 1), BuildingBlock: TEMPAE_clean_linker_10, # of connection points: 2
# Relax obj value: 0.032
# Max RMSD: 0.129
# Mean RMSD: 0.080
data_MOF--net-eea--node1-CUWYAW_clean_sbu_0--node2-BELTOD_clean_linker_0--edge1-TEMPAE_clean_linker_10
_symmetry_space_group_name_H-M    P1
_symmetry_Int_Tables_number       1
_symmetry_cell_setting            triclinic
loop_
_symmetry_equiv_pos_as_xyz
'x, y, z'
_cell_length_a     59.1611
_cell_length_b     58.62339
_cell_length_c     84.946293
_cell_angle_alpha  93.915414
_cell_angle_beta   93.486332
_cell_angle_gamma 119.9255
loop_
_atom_site_label
_atom_site_type_symbol
_atom_site_fract_x
_atom_site_fract_y
_atom_site_fract_z
_atom_type_partial_charge
P0 P 0.27232 0.1486 0.40075 0.0
H1 H 0.28695 0.11953 0.37808 0.0
H2 H 0.26353 0.07391 0.36535 0.0
H3 H 0.19513 0.05918 0.38843 0.0
H4 H 0.21881 0.10492 0.40124 0.0
H5 H 0.28044 0.18176 0.37528 0.0
H6 H 0.2578 0.20411 0.36557 0.0
H7 H 0.20485 0.17445 0.40165 0.0
H8 H 0.22806 0.15251 0.41151 0.0
H9 H 0.26322 0.10708 0.4213 0.0
H10 H 0.28652 0.18987 0.42686 0.0
O11 O 0.30304 0.16407 0.39596 0.0
H12 H 0.26737 0.10742 0.44998 0.0
H13 H 0.29189 0.19069 0.45572 0.0
C14 C 0.25462 0.11551 0.39065 0.0
C15 C 0.26688 0.10657 0.38033 0.0
C16 C 0.25341 0.08053 0.37299 0.0
C17 C 0.2275 0.06298 0.37591 0.0
C18 C 0.21515 0.07219 0.38607 0.0
C19 C 0.22859 0.09831 0.39332 0.0
C20 C 0.25623 0.16597 0.39429 0.0
C21 C 0.26414 0.1803 0.38121 0.0
C22 C 0.251 0.19284 0.37558 0.0
C23 C 0.22948 0.191 0.38283 0.0
C24 C 0.22155 0.1765 0.39594 0.0
C25 C 0.23475 0.16394 0.40156 0.0
C26 C 0.27395 0.14832 0.42194 0.0
C27 C 0.26898 0.12531 0.42868 0.0
C28 C 0.27169 0.12561 0.44514 0.0
C29 C 0.27999 0.14909 0.45519 0.0
C30 C 0.28502 0.17216 0.44835 0.0
C31 C 0.28208 0.17176 0.43186 0.0
P32 P 0.91893 0.09331 0.43393 0.0
H33 H 0.91413 0.06049 0.40525 0.0
H34 H 0.87637 0.02575 0.3877 0.0
H35 H 0.82407 0.03715 0.41621 0.0
H36 H 0.86188 0.0723 0.43352 0.0
H37 H 0.96666 0.14284 0.44554 0.0
H38 H 0.99573 0.18177 0.43271 0.0
H39 H 0.94296 0.1481 0.38942 0.0
H40 H 0.91368 0.1096 0.40234 0.0
H41 H 0.89591 0.05934 0.45847 0.0
H42 H 0.91887 0.1395 0.45038 0.0
O43 O 0.93833 0.08077 0.43754 0.0
H44 H 0.88117 0.06557 0.48374 0.0
H45 H 0.90575 0.14654 0.4761 0.0
C46 C 0.89083 0.06874 0.42079 0.0
C47 C 0.89455 0.0556 0.40767 0.0
C48 C 0.873 0.03586 0.39764 0.0
C49 C 0.84734 0.02872 0.40067 0.0
C50 C 0.84366 0.04212 0.41372 0.0
C51 C 0.86527 0.0622 0.42361 0.0
C52 C 0.93796 0.12332 0.42496 0.0
C53 C 0.96108 0.14409 0.43339 0.0
C54 C 0.97764 0.16632 0.42607 0.0
C55 C 0.97159 0.16787 0.41007 0.0
C56 C 0.94813 0.1473 0.40174 0.0
C57 C 0.93138 0.12528 0.40915 0.0
C58 C 0.90887 0.09905 0.45267 0.0
C59 C 0.89814 0.07845 0.46228 0.0
C60 C 0.88991 0.08213 0.4768 0.0
C61 C 0.89252 0.10669 0.48214 0.0
C62 C 0.90319 0.12729 0.47237 0.0
C63 C 0.91104 0.1234 0.45769 0.0
P64 P 0.86029 0.72686 0.41954 0.0
H65 H 0.83705 0.72317 0.38766 0.0
H66 H 0.8149 0.74501 0.37612 0.0
H67 H 0.8312 0.79261 0.42093 0.0
H68 H 0.85422 0.77146 0.43228 0.0
H69 H 0.88446 0.70051 0.40304 0.0
H70 H 0.92727 0.71693 0.39345 0.0
H71 H 0.95057 0.79631 0.41351 0.0
H72 H 0.90715 0.77964 0.42279 0.0
H73 H 0.82077 0.7222 0.43992 0.0
H74 H 0.89841 0.73258 0.44578 0.0
O75 O 0.84129 0.69508 0.41229 0.0
H76 H 0.81843 0.72084 0.46847 0.0
H77 H 0.89591 0.7307 0.47443 0.0
C78 C 0.84644 0.74504 0.41096 0.0
C79 C 0.83606 0.73847 0.39496 0.0
C80 C 0.82355 0.75102 0.38836 0.0
C81 C 0.82112 0.77021 0.39772 0.0
C82 C 0.83255 0.7776 0.41356 0.0
C83 C 0.84554 0.76541 0.42006 0.0
C84 C 0.89262 0.73892 0.41354 0.0
C85 C 0.89877 0.72143 0.40545 0.0
C86 C 0.92339 0.73084 0.40006 0.0
C87 C 0.9424 0.75796 0.40271 0.0
C88 C 0.93627 0.77537 0.4111 0.0
C89 C 0.91156 0.76589 0.41649 0.0
C90 C 0.86009 0.72836 0.44078 0.0
C91 C 0.83755 0.72475 0.4474 0.0
C92 C 0.83621 0.72396 0.46371 0.0
C93 C 0.85712 0.72599 0.47367 0.0
C94 C 0.8796 0.72925 0.46701 0.0
C95 C 0.88107 0.73046 0.45067 0.0
P96 P 0.11837 0.26569 0.58761 0.0
H97 H 0.10095 0.25454 0.6189 0.0
H98 H 0.05789 0.23616 0.62868 0.0
H99 H 0.02183 0.22411 0.58079 0.0
H100 H 0.06485 0.24231 0.57105 0.0
H101 H 0.17082 0.27937 0.58124 0.0
H102 H 0.19945 0.26225 0.58877 0.0
H103 H 0.13828 0.20357 0.61322 0.0
H104 H 0.10926 0.21972 0.60472 0.0
H105 H 0.13512 0.30972 0.56831 0.0
H106 H 0.09986 0.22482 0.56053 0.0
O107 O 0.13404 0.29655 0.59678 0.0
H108 H 0.13774 0.31229 0.53999 0.0
H109 H 0.10141 0.22703 0.53187 0.0
C110 C 0.08613 0.24924 0.59421 0.0
C111 C 0.08371 0.2474 0.61046 0.0
C112 C 0.05911 0.2369 0.61603 0.0
C113 C 0.0365 0.22858 0.60548 0.0
C114 C 0.03894 0.2304 0.58919 0.0
C115 C 0.06356 0.24063 0.5836 0.0
C116 C 0.13804 0.25112 0.59259 0.0
C117 C 0.1635 0.26262 0.58809 0.0
C118 C 0.17995 0.25294 0.59254 0.0
C119 C 0.1714 0.23173 0.60183 0.0
C120 C 0.14553 0.21979 0.60597 0.0
C121 C 0.12894 0.22928 0.60129 0.0
C122 C 0.11729 0.26707 0.5665 0.0
C123 C 0.12749 0.29154 0.56046 0.0
C124 C 0.12879 0.29294 0.54418 0.0
C125 C 0.11971 0.26985 0.53357 0.0
C126 C 0.10886 0.24523 0.53969 0.0
C127 C 0.10777 0.24389 0.55603 0.0
P128 P 0.83406 0.915 0.58097 0.0
H129 H 0.86329 0.97271 0.58489 0.0
H130 H 0.85691 0.00584 0.59978 0.0
H131 H 0.78551 0.9434 0.61462 0.0
H132 H 0.79226 0.91033 0.59983 0.0
H133 H 0.80401 0.85788 0.56966 0.0
H134 H 0.79162 0.81853 0.58334 0.0
H135 H 0.82788 0.86865 0.62777 0.0
H136 H 0.83968 0.90767 0.61408 0.0
H137 H 0.85334 0.91592 0.54997 0.0
H138 H 0.78057 0.89856 0.5681 0.0
O139 O 0.86631 0.92786 0.5806 0.0
H140 H 0.83275 0.90823 0.52285 0.0
H141 H 0.75991 0.89139 0.54098 0.0
C142 C 0.82863 0.93912 0.59162 0.0
C143 C 0.8463 0.96616 0.59139 0.0
C144 C 0.84248 0.98508 0.59977 0.0
C145 C 0.82076 0.97724 0.60846 0.0
C146 C 0.80264 0.95005 0.60826 0.0
C147 C 0.80647 0.93115 0.59982 0.0
C148 C 0.82233 0.88567 0.59093 0.0
C149 C 0.80884 0.86035 0.58238 0.0
C150 C 0.80191 0.83787 0.5902 0.0
C151 C 0.80858 0.84041 0.60667 0.0
C152 C 0.82189 0.86588 0.61515 0.0
C153 C 0.82878 0.88826 0.60733 0.0
C154 C 0.81852 0.90808 0.56101 0.0
C155 C 0.83293 0.91049 0.54812 0.0
C156 C 0.82117 0.90622 0.53262 0.0
C157 C 0.79476 0.8994 0.52977 0.0
C158 C 0.78023 0.89641 0.54277 0.0
C159 C 0.79203 0.90069 0.55827 0.0
P160 P 0.11732 0.84532 0.59335 0.0
H161 H 0.12673 0.86972 0.62599 0.0
H162 H 0.15334 0.91536 0.63845 0.0
H163 H 0.17914 0.94072 0.59296 0.0
H164 H 0.15147 0.89555 0.58055 0.0
H165 H 0.07466 0.79145 0.58503 0.0
H166 H 0.02948 0.76745 0.59145 0.0
H167 H 0.0408 0.83921 0.6173 0.0
H168 H 0.08515 0.86333 0.60981 0.0
H169 H 0.14654 0.83028 0.57258 0.0
H170 H 0.09101 0.85733 0.56777 0.0
O171 O 0.13066 0.8287 0.60098 0.0
H172 H 0.15016 0.83065 0.5441 0.0
H173 H 0.09444 0.85764 0.53914 0.0
C174 C 0.13645 0.87924 0.60228 0.0
C175 C 0.13778 0.88524 0.61868 0.0
C176 C 0.15329 0.91134 0.62582 0.0
C177 C 0.16838 0.9319 0.61673 0.0
C178 C 0.16732 0.92562 0.60031 0.0
C179 C 0.1515 0.8996 0.59317 0.0
C180 C 0.0835 0.829 0.59725 0.0
C181 C 0.06726 0.80203 0.59194 0.0
C182 C 0.04147 0.78829 0.59574 0.0
C183 C 0.03149 0.8012 0.60517 0.0
C184 C 0.04763 0.82856 0.60996 0.0
C185 C 0.07329 0.84237 0.60589 0.0
C186 C 0.11825 0.84344 0.5722 0.0
C187 C 0.13482 0.83591 0.56534 0.0
C188 C 0.13682 0.83607 0.54905 0.0
C189 C 0.12249 0.84406 0.53938 0.0
C190 C 0.10579 0.8515 0.54631 0.0
C191 C 0.10368 0.85116 0.56261 0.0
P192 P 0.93984 0.48282 0.73328 0.0
H193 H 0.95408 0.4537 0.7104 0.0
H194 H 0.9316 0.40746 0.69884 0.0
H195 H 0.86675 0.3905 0.72614 0.0
H196 H 0.88954 0.43682 0.73779 0.0
H197 H 0.94046 0.53074 0.74587 0.0
H198 H 0.91789 0.55349 0.73649 0.0
H199 H 0.87637 0.49128 0.69759 0.0
H200 H 0.89942 0.46908 0.70679 0.0
H201 H 0.98414 0.49201 0.75528 0.0
H202 H 0.90521 0.47647 0.75795 0.0
O203 O 0.96914 0.49938 0.7266 0.0
H204 H 0.99006 0.4927 0.78407 0.0
H205 H 0.911 0.47714 0.78682 0.0
C206 C 0.92357 0.44861 0.72507 0.0
C207 C 0.93509 0.44004 0.71396 0.0
C208 C 0.92211 0.41363 0.70726 0.0
C209 C 0.89736 0.39533 0.71155 0.0
C210 C 0.88592 0.40405 0.72273 0.0
C211 C 0.89891 0.4305 0.72939 0.0
C212 C 0.92121 0.49796 0.72724 0.0
C213 C 0.92621 0.52184 0.73546 0.0
C214 C 0.91324 0.53477 0.73011 0.0
C215 C 0.89528 0.52415 0.71631 0.0
C216 C 0.89025 0.50009 0.70818 0.0
C217 C 0.90324 0.48723 0.71353 0.0
C218 C 0.94439 0.48458 0.75454 0.0
C219 C 0.96818 0.48904 0.76209 0.0
C220 C 0.97156 0.48949 0.77855 0.0
C221 C 0.95104 0.48513 0.7877 0.0
C222 C 0.92711 0.48045 0.78005 0.0
C223 C 0.92382 0.48017 0.76359 0.0
P224 P 0.58308 0.42328 0.76835 0.0
H225 H 0.57286 0.4081 0.73411 0.0
H226 H 0.53393 0.37486 0.71692 0.0
H227 H 0.4891 0.35642 0.75724 0.0
H228 H 0.52829 0.38904 0.77441 0.0
H229 H 0.63996 0.45362 0.76916 0.0
H230 H 0.66965 0.49156 0.75603 0.0
H231 H 0.60347 0.49523 0.73474 0.0
H232 H 0.57383 0.45738 0.74824 0.0
H233 H 0.59735 0.41854 0.80105 0.0
H234 H 0.55315 0.44876 0.77709 0.0
O235 O 0.59825 0.40613 0.77131 0.0
H236 H 0.58469 0.42774 0.82644 0.0
H237 H 0.53975 0.45746 0.80249 0.0
C238 C 0.55337 0.40161 0.75547 0.0
C239 C 0.55452 0.39729 0.73919 0.0
C240 C 0.53219 0.37828 0.72936 0.0
C241 C 0.50829 0.36302 0.73567 0.0
C242 C 0.50719 0.36768 0.75199 0.0
C243 C 0.52958 0.38661 0.76182 0.0
C244 C 0.60468 0.45233 0.75935 0.0
C245 C 0.63182 0.46258 0.76168 0.0
C246 C 0.64877 0.48422 0.7541 0.0
C247 C 0.6389 0.49616 0.74412 0.0
C248 C 0.6117 0.48649 0.74235 0.0
C249 C 0.59473 0.46479 0.74997 0.0
C250 C 0.57595 0.43274 0.78718 0.0
C251 C 0.58498 0.42726 0.80126 0.0
C252 C 0.57757 0.43238 0.81578 0.0
C253 C 0.56093 0.44303 0.8165 0.0
C254 C 0.55273 0.44942 0.80239 0.0
C255 C 0.56027 0.44438 0.78786 0.0
P256 P 0.5257 0.04792 0.75113 0.0
H257 H 0.48848 0.03227 0.72279 0.0
H258 H 0.46268 0.05073 0.71194 0.0
H259 H 0.49888 0.11526 0.74976 0.0
H260 H 0.52451 0.09647 0.76076 0.0
H261 H 0.55872 0.02655 0.74206 0.0
H262 H 0.60269 0.0465 0.73393 0.0
H263 H 0.61115 0.1241 0.74244 0.0
H264 H 0.56645 0.10369 0.74994 0.0
H265 H 0.48792 0.01 0.76983 0.0
H266 H 0.55822 0.08673 0.7787 0.0
O267 O 0.51061 0.01629 0.74326 0.0
H268 H 0.48365 0.0097 0.79813 0.0
H269 H 0.5536 0.08706 0.80718 0.0
C270 C 0.50821 0.06282 0.74269 0.0
C271 C 0.49091 0.05037 0.72879 0.0
C272 C 0.4761 0.06088 0.72261 0.0
C273 C 0.47862 0.08428 0.7301 0.0
C274 C 0.4966 0.09722 0.74375 0.0
C275 C 0.5112 0.08648 0.75005 0.0
C276 C 0.55908 0.06356 0.74634 0.0
C277 C 0.56998 0.04787 0.74217 0.0
C278 C 0.59534 0.05938 0.73767 0.0
C279 C 0.6106 0.08698 0.73748 0.0
C280 C 0.59985 0.10276 0.74217 0.0
C281 C 0.5743 0.09113 0.74655 0.0
C282 C 0.52365 0.04814 0.77219 0.0
C283 C 0.50251 0.0268 0.77789 0.0
C284 C 0.49992 0.0268 0.79411 0.0
C285 C 0.51822 0.04842 0.80497 0.0
C286 C 0.53935 0.06995 0.79917 0.0
C287 C 0.54199 0.06982 0.78289 0.0
P288 P 0.78592 0.60238 0.92286 0.0
H289 H 0.76736 0.58695 0.95333 0.0
H290 H 0.72378 0.56661 0.96245 0.0
H291 H 0.68924 0.55636 0.91432 0.0
H292 H 0.73287 0.57683 0.90531 0.0
H293 H 0.84117 0.62834 0.93504 0.0
H294 H 0.86984 0.61154 0.94317 0.0
H295 H 0.80472 0.53128 0.93261 0.0
H296 H 0.77591 0.54845 0.925 0.0
H297 H 0.77038 0.63016 0.90157 0.0
H298 H 0.8016 0.57764 0.89763 0.0
O299 O 0.7986 0.63326 0.93158 0.0
H300 H 0.77283 0.63473 0.87324 0.0
H301 H 0.80523 0.58301 0.86961 0.0
C302 C 0.75339 0.58342 0.92867 0.0
C303 C 0.75036 0.57988 0.94471 0.0
C304 C 0.72542 0.56818 0.94989 0.0
C305 C 0.70306 0.55997 0.93911 0.0
C306 C 0.70613 0.56277 0.92293 0.0
C307 C 0.7311 0.5744 0.91776 0.0
C308 C 0.80635 0.58964 0.92975 0.0
C309 C 0.83299 0.60714 0.93468 0.0
C310 C 0.84944 0.59746 0.93913 0.0
C311 C 0.83964 0.57002 0.93849 0.0
C312 C 0.81285 0.55252 0.93346 0.0
C313 C 0.79635 0.56227 0.92911 0.0
C314 C 0.78606 0.60383 0.90176 0.0
C315 C 0.77777 0.61962 0.8946 0.0
C316 C 0.77933 0.62233 0.87843 0.0
C317 C 0.78948 0.60944 0.86914 0.0
C318 C 0.79705 0.593 0.87632 0.0
C319 C 0.7952 0.5901 0.89245 0.0
P320 P 0.49573 0.2454 0.91504 0.0
H321 H 0.534 0.29894 0.92966 0.0
H322 H 0.52956 0.33335 0.94469 0.0
H323 H 0.44586 0.28061 0.94185 0.0
H324 H 0.45014 0.24654 0.92614 0.0
H325 H 0.52668 0.21999 0.921 0.0
H326 H 0.51994 0.18334 0.93589 0.0
H327 H 0.44603 0.17376 0.94793 0.0
H328 H 0.45275 0.21033 0.93287 0.0
H329 H 0.47328 0.27019 0.89582 0.0
H330 H 0.47082 0.19525 0.89432 0.0
O331 O 0.526 0.25952 0.90953 0.0
H332 H 0.44681 0.25599 0.87012 0.0
H333 H 0.44421 0.18089 0.86852 0.0
C334 C 0.49243 0.27005 0.9269 0.0
C335 C 0.51467 0.29469 0.93223 0.0
C336 C 0.51214 0.31437 0.94077 0.0
C337 C 0.48738 0.30951 0.94436 0.0
C338 C 0.46516 0.28468 0.93928 0.0
C339 C 0.46764 0.26518 0.93044 0.0
C340 C 0.49052 0.21838 0.92613 0.0
C341 C 0.50903 0.2101 0.92685 0.0
C342 C 0.50506 0.18897 0.93525 0.0
C343 C 0.48248 0.17574 0.94309 0.0
C344 C 0.46375 0.1838 0.94214 0.0
C345 C 0.46765 0.20481 0.9336 0.0
C346 C 0.47341 0.2335 0.89719 0.0
C347 C 0.4665 0.25042 0.89016 0.0
C348 C 0.45137 0.24228 0.87545 0.0
C349 C 0.4433 0.21725 0.86738 0.0
C350 C 0.45018 0.20029 0.87448 0.0
C351 C 0.4652 0.2084 0.88927 0.0
P352 P 0.79463 0.18241 0.92947 0.0
H353 H 0.80149 0.20679 0.96185 0.0
H354 H 0.8263 0.25261 0.97424 0.0
H355 H 0.85539 0.27811 0.9294 0.0
H356 H 0.82959 0.23267 0.91703 0.0
H357 H 0.75392 0.1271 0.9244 0.0
H358 H 0.70897 0.10301 0.93121 0.0
H359 H 0.7169 0.17684 0.95129 0.0
H360 H 0.76086 0.20076 0.94325 0.0
H361 H 0.82245 0.16654 0.90801 0.0
H362 H 0.76831 0.19545 0.90448 0.0
O363 O 0.80893 0.1665 0.93688 0.0
H364 H 0.82531 0.16712 0.87947 0.0
H365 H 0.77095 0.19595 0.87579 0.0
C366 C 0.81299 0.21634 0.93842 0.0
C367 C 0.81292 0.22235 0.95466 0.0
C368 C 0.82736 0.24855 0.96176 0.0
C369 C 0.84273 0.26921 0.95281 0.0
C370 C 0.84324 0.2629 0.93659 0.0
C371 C 0.82852 0.23676 0.92948 0.0
C372 C 0.76103 0.16559 0.93378 0.0
C373 C 0.74582 0.13805 0.93016 0.0
C374 C 0.72017 0.1243 0.93419 0.0
C375 C 0.70931 0.13782 0.94213 0.0
C376 C 0.72439 0.16565 0.94514 0.0
C377 C 0.74986 0.17941 0.94079 0.0
C378 C 0.79494 0.18068 0.90828 0.0
C379 C 0.81087 0.17264 0.90105 0.0
C380 C 0.81243 0.17291 0.88472 0.0
C381 C 0.79827 0.18148 0.87538 0.0
C382 C 0.78218 0.18938 0.88269 0.0
C383 C 0.78052 0.18894 0.89903 0.0
P384 P 0.61239 0.81932 0.06664 0.0
H385 H 0.61727 0.79093 0.0387 0.0
H386 H 0.593 0.74455 0.02749 0.0
H387 H 0.54134 0.72652 0.06444 0.0
H388 H 0.56649 0.77291 0.07593 0.0
H389 H 0.63034 0.86608 0.04962 0.0
H390 H 0.60825 0.8884 0.03894 0.0
H391 H 0.53684 0.83261 0.05714 0.0
H392 H 0.55891 0.80991 0.0676 0.0
H393 H 0.64223 0.80479 0.08764 0.0
H394 H 0.59097 0.8368 0.09254 0.0
O395 O 0.64232 0.83291 0.06064 0.0
H396 H 0.64748 0.80521 0.11646 0.0
H397 H 0.59598 0.83703 0.12132 0.0
C398 C 0.59393 0.78521 0.05827 0.0
C399 C 0.6008 0.77697 0.04442 0.0
C400 C 0.58669 0.75045 0.03793 0.0
C401 C 0.56518 0.73173 0.04506 0.0
C402 C 0.55803 0.74029 0.05878 0.0
C403 C 0.5723 0.76682 0.06532 0.0
C404 C 0.59629 0.83638 0.05947 0.0
C405 C 0.60995 0.85859 0.05135 0.0
C406 C 0.59731 0.87129 0.04519 0.0
C407 C 0.57087 0.86216 0.04721 0.0
C408 C 0.55728 0.84009 0.05551 0.0
C409 C 0.56985 0.82713 0.06145 0.0
C410 C 0.61633 0.82086 0.08793 0.0
C411 C 0.63222 0.81205 0.09492 0.0
C412 C 0.63526 0.81236 0.11137 0.0
C413 C 0.6222 0.82124 0.12112 0.0
C414 C 0.60614 0.82993 0.11407 0.0
C415 C 0.6033 0.82983 0.09759 0.0
P416 P 0.2538 0.76029 0.09994 0.0
H417 H 0.22871 0.70268 0.09587 0.0
H418 H 0.18974 0.66795 0.07936 0.0
H419 H 0.17455 0.72721 0.06208 0.0
H420 H 0.21395 0.76195 0.0785 0.0
H421 H 0.28607 0.81727 0.11056 0.0
H422 H 0.31501 0.85499 0.09688 0.0
H423 H 0.2902 0.80347 0.05277 0.0
H424 H 0.26187 0.76585 0.0666 0.0
H425 H 0.26449 0.75265 0.13263 0.0
H426 H 0.22222 0.78425 0.10797 0.0
O427 O 0.27382 0.74843 0.10349 0.0
H428 H 0.24953 0.7601 0.15755 0.0
H429 H 0.2065 0.79117 0.13289 0.0
C430 C 0.22455 0.73489 0.08808 0.0
C431 C 0.21704 0.70821 0.0885 0.0
C432 C 0.19459 0.68834 0.07917 0.0
C433 C 0.17909 0.69481 0.06934 0.0
C434 C 0.18629 0.72161 0.06934 0.0
C435 C 0.20875 0.74147 0.07872 0.0
C436 C 0.27134 0.78886 0.08953 0.0
C437 C 0.28641 0.81422 0.09788 0.0
C438 C 0.30296 0.83579 0.09003 0.0
C439 C 0.30495 0.83225 0.07372 0.0
C440 C 0.28932 0.80685 0.06536 0.0
C441 C 0.27287 0.78536 0.07322 0.0
C442 C 0.24452 0.768 0.11847 0.0
C443 C 0.25208 0.76134 0.13259 0.0
C444 C 0.24332 0.76541 0.14683 0.0
C445 C 0.22665 0.77605 0.14721 0.0
C446 C 0.21951 0.78317 0.13305 0.0
C447 C 0.22837 0.77913 0.11879 0.0
P448 P 0.19624 0.39073 0.08712 0.0
H449 H 0.19814 0.41396 0.05761 0.0
H450 H 0.17401 0.43394 0.04631 0.0
H451 H 0.13711 0.427 0.08948 0.0
H452 H 0.16087 0.4067 0.10057 0.0
H453 H 0.22591 0.36653 0.07599 0.0
H454 H 0.26959 0.38469 0.06747 0.0
H455 H 0.28435 0.46402 0.08021 0.0
H456 H 0.23993 0.44546 0.08813 0.0
H457 H 0.15897 0.3498 0.1047 0.0
H458 H 0.22787 0.42728 0.11559 0.0
O459 O 0.17877 0.3602 0.07754 0.0
H460 H 0.15335 0.34747 0.13283 0.0
H461 H 0.22216 0.42521 0.14394 0.0
C462 C 0.18167 0.40922 0.08002 0.0
C463 C 0.18524 0.41723 0.06475 0.0
C464 C 0.17146 0.42868 0.05832 0.0
C465 C 0.1536 0.43202 0.06699 0.0
C466 C 0.15052 0.42446 0.08243 0.0
C467 C 0.16432 0.41304 0.08885 0.0
C468 C 0.22956 0.40465 0.08245 0.0
C469 C 0.23855 0.38783 0.07699 0.0
C470 C 0.26371 0.3983 0.07225 0.0
C471 C 0.28058 0.42588 0.07308 0.0
C472 C 0.27176 0.4427 0.07914 0.0
C473 C 0.24645 0.43215 0.08378 0.0
C474 C 0.19413 0.38848 0.10808 0.0
C475 C 0.1731 0.36621 0.11317 0.0
C476 C 0.16974 0.36503 0.12926 0.0
C477 C 0.18724 0.38623 0.14061 0.0
C478 C 0.2085 0.40847 0.13549 0.0
C479 C 0.2118 0.40966 0.11931 0.0
P480 P 0.454 0.94231 0.25786 0.0
H481 H 0.43246 0.9143 0.28516 0.0
H482 H 0.3886 0.89369 0.29383 0.0
H483 H 0.35899 0.90821 0.25013 0.0
H484 H 0.40309 0.92972 0.24189 0.0
H485 H 0.50781 0.96682 0.27269 0.0
H486 H 0.53608 0.94905 0.27975 0.0
H487 H 0.47312 0.87013 0.26219 0.0
H488 H 0.44466 0.88815 0.2555 0.0
H489 H 0.48338 0.98674 0.23986 0.0
H490 H 0.42909 0.90277 0.22996 0.0
O491 O 0.46644 0.97261 0.26745 0.0
H492 H 0.48795 0.98983 0.21166 0.0
H493 H 0.43304 0.90576 0.20151 0.0
C494 C 0.42093 0.92296 0.26272 0.0
C495 C 0.4164 0.91253 0.27731 0.0
C496 C 0.39126 0.90068 0.28223 0.0
C497 C 0.3702 0.89924 0.27267 0.0
C498 C 0.37478 0.90921 0.25786 0.0
C499 C 0.39997 0.92123 0.25303 0.0
C500 C 0.47401 0.92871 0.2639 0.0
C501 C 0.49998 0.94566 0.27053 0.0
C502 C 0.51623 0.93549 0.27438 0.0
C503 C 0.50689 0.90816 0.27148 0.0
C504 C 0.48081 0.89122 0.26474 0.0
C505 C 0.46454 0.90147 0.26091 0.0
C506 C 0.45548 0.94463 0.23693 0.0
C507 C 0.47205 0.96903 0.23157 0.0
C508 C 0.47457 0.97077 0.21541 0.0
C509 C 0.46064 0.94808 0.2043 0.0
C510 C 0.44411 0.92358 0.20976 0.0
C511 C 0.44167 0.92187 0.22598 0.0
P512 P 0.16865 0.58164 0.24801 0.0
H513 H 0.20479 0.63336 0.26583 0.0
H514 H 0.19781 0.66642 0.28041 0.0
H515 H 0.11404 0.61451 0.2708 0.0
H516 H 0.12103 0.58181 0.25556 0.0
H517 H 0.19157 0.54778 0.24804 0.0
H518 H 0.18393 0.51035 0.26242 0.0
H519 H 0.12153 0.51434 0.28401 0.0
H520 H 0.12957 0.55203 0.2698 0.0
H521 H 0.15955 0.61314 0.22647 0.0
H522 H 0.13618 0.53087 0.22768 0.0
O523 O 0.20006 0.59651 0.24452 0.0
H524 H 0.13556 0.60255 0.20014 0.0
H525 H 0.11181 0.52005 0.20133 0.0
C526 C 0.16342 0.60506 0.25971 0.0
C527 C 0.18491 0.62901 0.26683 0.0
C528 C 0.18095 0.64791 0.27511 0.0
C529 C 0.15542 0.64287 0.27664 0.0
C530 C 0.13388 0.61869 0.26978 0.0
C531 C 0.13787 0.60003 0.26119 0.0
C532 C 0.16164 0.55319 0.25815 0.0
C533 C 0.17626 0.54063 0.25588 0.0
C534 C 0.17168 0.51903 0.26398 0.0
C535 C 0.15221 0.50946 0.27444 0.0
C536 C 0.13695 0.52152 0.27624 0.0
C537 C 0.14154 0.54312 0.26809 0.0
C538 C 0.14925 0.57275 0.22913 0.0
C539 C 0.14891 0.59272 0.22115 0.0
C540 C 0.13514 0.58663 0.20612 0.0
C541 C 0.12164 0.56044 0.19871 0.0
C542 C 0.12212 0.54043 0.20672 0.0
C543 C 0.13589 0.54657 0.22183 0.0
P544 P 0.45478 0.51945 0.26126 0.0
H545 H 0.50286 0.5481 0.28329 0.0
H546 H 0.52815 0.59391 0.29561 0.0
H547 H 0.4726 0.61096 0.2717 0.0
H548 H 0.44734 0.56496 0.25938 0.0
H549 H 0.40634 0.47575 0.24409 0.0
H550 H 0.36118 0.45174 0.25078 0.0
H551 H 0.38447 0.50388 0.29453 0.0
H552 H 0.42933 0.528 0.28763 0.0
H553 H 0.48666 0.50711 0.24134 0.0
H554 H 0.43001 0.53253 0.23523 0.0
O555 O 0.46713 0.50194 0.26886 0.0
H556 H 0.49204 0.50853 0.21308 0.0
H557 H 0.43534 0.53405 0.20686 0.0
C558 C 0.47319 0.55314 0.27046 0.0
C559 C 0.49604 0.56162 0.28074 0.0
C560 C 0.51042 0.5878 0.28783 0.0
C561 C 0.5023 0.60601 0.28467 0.0
C562 C 0.47945 0.59744 0.27426 0.0
C563 C 0.46499 0.57118 0.26724 0.0
C564 C 0.42104 0.50409 0.26516 0.0
C565 C 0.40157 0.48238 0.25494 0.0
C566 C 0.37582 0.46853 0.25884 0.0
C567 C 0.36919 0.47597 0.27316 0.0
C568 C 0.38877 0.49796 0.28327 0.0
C569 C 0.41448 0.51177 0.27934 0.0
C570 C 0.45772 0.51943 0.24032 0.0
C571 C 0.47518 0.51276 0.23388 0.0
C572 C 0.47819 0.51351 0.21772 0.0
C573 C 0.464 0.52126 0.20775 0.0
C574 C 0.44662 0.52813 0.21428 0.0
C575 C 0.44351 0.5272 0.23045 0.0
C576 C 0.53637 0.02429 0.05193 0.0
Eu577 Eu 0.51315 0.01951 0.02389 0.0
C578 C 0.52878 0.01168 0.06655 0.0
C579 C 0.54023 0.02709 0.0812 0.0
C580 C 0.53215 0.01609 0.0953 0.0
C581 C 0.51247 0.98938 0.095 0.0
C582 C 0.50129 0.97382 0.08025 0.0
C583 C 0.50936 0.9849 0.06613 0.0
C584 C 0.4979 0.05239 0.01299 0.0
C585 C 0.44999 0.97697 0.02225 0.0
C586 C 0.45632 0.99663 0.96373 0.0
Eu587 Eu 0.47818 0.99923 0.99183 0.0
C588 C 0.46604 0.00508 0.94838 0.0
C589 C 0.48649 0.00207 0.94298 0.0
C590 C 0.49533 0.01004 0.92834 0.0
C591 C 0.48411 0.02143 0.91893 0.0
C592 C 0.46421 0.02515 0.9246 0.0
C593 C 0.45521 0.01697 0.93919 0.0
C594 C 0.49521 0.96733 0.00227 0.0
C595 C 0.54208 0.03993 0.99318 0.0
O596 O 0.53664 0.00969 0.03966 0.0
O597 O 0.52601 0.03865 0.0482 0.0
O598 O 0.52067 0.06046 0.02072 0.0
O599 O 0.48372 0.02751 0.01221 0.0
O600 O 0.47386 0.9865 0.0296 0.0
O601 O 0.44613 0.98248 0.00784 0.0
O602 O 0.46258 0.01574 0.975 0.0
O603 O 0.45852 0.97713 0.96876 0.0
O604 O 0.47225 0.95833 0.99447 0.0
O605 O 0.50831 0.9922 0.0032 0.0
O606 O 0.51849 0.0288 0.98512 0.0
O607 O 0.54553 0.03706 0.00827 0.0
H608 H 0.55508 0.04784 0.08173 0.0
H609 H 0.54084 0.02874 0.10643 0.0
H610 H 0.48628 0.95314 0.07964 0.0
H611 H 0.50021 0.97265 0.0549 0.0
H612 H 0.49556 0.99346 0.95003 0.0
H613 H 0.51096 0.0073 0.92437 0.0
H614 H 0.45512 0.03377 0.91757 0.0
H615 H 0.43967 0.0198 0.94326 0.0
C616 C 0.99713 0.52977 0.04225 0.0
Eu617 Eu 0.99445 0.50921 0.01357 0.0
C618 C 0.01097 0.53259 0.05785 0.0
C619 C 0.99774 0.5295 0.07136 0.0
C620 C 0.01006 0.53108 0.08626 0.0
C621 C 0.03588 0.53578 0.08789 0.0
C622 C 0.04922 0.53913 0.07432 0.0
C623 C 0.03683 0.53748 0.05939 0.0
C624 C 0.95994 0.45878 0.00106 0.0
C625 C 0.03474 0.48655 0.01199 0.0
C626 C 0.00096 0.4689 0.95302 0.0
Eu627 Eu 0.00502 0.49167 0.98131 0.0
C628 C 0.99402 0.471 0.93651 0.0
C629 C 0.99664 0.49468 0.93193 0.0
C630 C 0.99071 0.49646 0.91603 0.0
C631 C 0.98193 0.47454 0.90449 0.0
C632 C 0.97875 0.45069 0.90928 0.0
C633 C 0.9848 0.44898 0.92515 0.0
C634 C 0.04044 0.54176 0.99384 0.0
C635 C 0.96566 0.51615 0.98306 0.0
O636 O 0.01147 0.54339 0.03149 0.0
O637 O 0.97921 0.50562 0.03656 0.0
O638 O 0.95307 0.47383 0.00877 0.0
O639 O 0.98441 0.47051 0.0009 0.0
O640 O 0.02863 0.50274 0.01976 0.0
O641 O 0.02411 0.47563 0.99734 0.0
O642 O 0.98185 0.46014 0.96206 0.0
O643 O 0.02292 0.48875 0.96022 0.0
O644 O 0.04648 0.52671 0.98536 0.0
O645 O 0.01597 0.53043 0.99416 0.0
O646 O 0.97344 0.50194 0.97463 0.0
O647 O 0.97381 0.52428 0.99828 0.0
H648 H 0.97779 0.52573 0.07037 0.0
H649 H 0.99944 0.52884 0.09653 0.0
H650 H 0.06907 0.54263 0.0752 0.0
H651 H 0.0474 0.53988 0.04908 0.0
H652 H 0.00357 0.51185 0.94061 0.0
H653 H 0.99358 0.51517 0.91274 0.0
H654 H 0.97154 0.43329 0.90077 0.0
H655 H 0.98241 0.43048 0.92854 0.0
C656 C 0.45384 0.46958 0.95976 0.0
Eu657 Eu 0.4751 0.4914 0.98853 0.0
C658 C 0.4637 0.46434 0.94527 0.0
C659 C 0.45464 0.46799 0.93057 0.0
C660 C 0.46527 0.4652 0.91681 0.0
C661 C 0.48519 0.45871 0.91752 0.0
C662 C 0.49396 0.45469 0.93228 0.0
C663 C 0.48333 0.4575 0.94603 0.0
C664 C 0.49002 0.54187 0.99945 0.0
C665 C 0.53835 0.51568 0.98972 0.0
C666 C 0.53244 0.54022 0.04797 0.0
Eu667 Eu 0.51014 0.51378 0.02026 0.0
C668 C 0.5239 0.53889 0.0639 0.0
C669 C 0.50106 0.51651 0.06738 0.0
C670 C 0.49316 0.51524 0.08262 0.0
C671 C 0.50796 0.5364 0.09463 0.0
C672 C 0.53058 0.55901 0.09094 0.0
C673 C 0.53847 0.56021 0.0757 0.0
C674 C 0.49727 0.46382 0.00992 0.0
C675 C 0.44571 0.48539 0.01933 0.0
O676 O 0.45314 0.45603 0.97152 0.0
O677 O 0.46276 0.49457 0.96446 0.0
O678 O 0.46657 0.52498 0.99278 0.0
O679 O 0.50427 0.53162 0.99971 0.0
O680 O 0.51477 0.49772 0.98279 0.0
O681 O 0.54148 0.52876 0.00373 0.0
O682 O 0.52111 0.54781 0.03754 0.0
O683 O 0.53441 0.52006 0.04223 0.0
O684 O 0.51937 0.48079 0.01818 0.0
O685 O 0.48221 0.47323 0.00876 0.0
O686 O 0.46925 0.50115 0.02718 0.0
O687 O 0.44259 0.47632 0.0042 0.0
H688 H 0.4397 0.47353 0.92977 0.0
H689 H 0.45832 0.46879 0.90569 0.0
H690 H 0.50903 0.44935 0.93319 0.0
H691 H 0.49068 0.45465 0.95728 0.0
H692 H 0.48948 0.4999 0.05835 0.0
H693 H 0.4758 0.49746 0.08507 0.0
H694 H 0.54214 0.57583 0.09983 0.0
H695 H 0.55599 0.57776 0.07313 0.0
C696 C 0.20224 0.35509 0.38358 0.0
Eu697 Eu 0.17815 0.35018 0.35586 0.0
C698 C 0.19446 0.34204 0.3981 0.0
C699 C 0.20241 0.35771 0.41276 0.0
C700 C 0.19361 0.34617 0.42662 0.0
C701 C 0.17676 0.31863 0.42611 0.0
C702 C 0.16916 0.30286 0.41138 0.0
C703 C 0.17786 0.31447 0.39747 0.0
C704 C 0.16489 0.38422 0.34445 0.0
C705 C 0.11501 0.30934 0.35616 0.0
C706 C 0.11656 0.32378 0.2969 0.0
Eu707 Eu 0.14075 0.32909 0.32473 0.0
C708 C 0.12476 0.33381 0.28161 0.0
C709 C 0.11149 0.31723 0.26751 0.0
C710 C 0.12016 0.32547 0.2529 0.0
C711 C 0.14234 0.35047 0.25211 0.0
C712 C 0.15528 0.36731 0.26626 0.0
C713 C 0.1466 0.35903 0.2809 0.0
C714 C 0.1561 0.29626 0.33578 0.0
C715 C 0.20457 0.36801 0.32429 0.0
O716 O 0.20264 0.34085 0.37114 0.0
O717 O 0.19196 0.36961 0.38007 0.0
O718 O 0.18774 0.3915 0.35181 0.0
O719 O 0.14959 0.35965 0.34447 0.0
O720 O 0.13923 0.31852 0.36279 0.0
O721 O 0.11014 0.31432 0.34179 0.0
O722 O 0.1196 0.34113 0.30861 0.0
O723 O 0.12358 0.30707 0.30132 0.0
O724 O 0.13264 0.28787 0.32893 0.0
O725 O 0.17022 0.32085 0.33568 0.0
O726 O 0.18053 0.35859 0.31716 0.0
O727 O 0.20886 0.36429 0.33908 0.0
H728 H 0.21498 0.37902 0.41346 0.0
H729 H 0.19946 0.35899 0.43768 0.0
H730 H 0.15644 0.28158 0.41059 0.0
H731 H 0.17129 0.30195 0.38624 0.0
H732 H 0.09463 0.2977 0.26783 0.0
H733 H 0.1095 0.31221 0.24219 0.0
H734 H 0.17247 0.38662 0.26604 0.0
H735 H 0.15718 0.37217 0.29167 0.0
C736 C 0.66094 0.86531 0.3756 0.0
Eu737 Eu 0.65782 0.84392 0.34709 0.0
C738 C 0.67689 0.87111 0.39083 0.0
C739 C 0.66601 0.87168 0.40491 0.0
C740 C 0.68027 0.87588 0.41957 0.0
C741 C 0.70574 0.8796 0.4204 0.0
C742 C 0.71664 0.87911 0.4062 0.0
C743 C 0.70233 0.87492 0.39151 0.0
C744 C 0.62192 0.79386 0.33457 0.0
C745 C 0.69682 0.81997 0.34597 0.0
C746 C 0.66322 0.80156 0.28694 0.0
Eu747 Eu 0.6679 0.82483 0.31514 0.0
C748 C 0.65727 0.80453 0.27036 0.0
C749 C 0.67055 0.8291 0.26434 0.0
C750 C 0.6651 0.83123 0.24844 0.0
C751 C 0.64612 0.8089 0.23828 0.0
C752 C 0.63249 0.78447 0.24448 0.0
C753 C 0.63808 0.78232 0.26034 0.0
C754 C 0.70477 0.87442 0.32764 0.0
C755 C 0.63019 0.85144 0.31628 0.0
O756 O 0.67291 0.87903 0.36417 0.0
O757 O 0.64506 0.8402 0.37076 0.0
O758 O 0.61572 0.80974 0.34197 0.0
O759 O 0.64638 0.80464 0.3347 0.0
O760 O 0.69212 0.83764 0.3532 0.0
O761 O 0.68504 0.80769 0.33173 0.0
O762 O 0.64389 0.79375 0.29581 0.0
O763 O 0.6857 0.82005 0.29446 0.0
O764 O 0.71002 0.85852 0.31938 0.0
O765 O 0.68035 0.86417 0.32774 0.0
O766 O 0.63794 0.83706 0.308 0.0
O767 O 0.6377 0.85917 0.33158 0.0
H768 H 0.6463 0.86852 0.40457 0.0
H769 H 0.67109 0.87562 0.43026 0.0
H770 H 0.73627 0.88212 0.40643 0.0
H771 H 0.71107 0.87452 0.38072 0.0
H772 H 0.68534 0.84662 0.27184 0.0
H773 H 0.67619 0.85028 0.24404 0.0
H774 H 0.61744 0.76698 0.23707 0.0
H775 H 0.62747 0.76322 0.26479 0.0
C776 C 0.11948 0.80143 0.29085 0.0
Eu777 Eu 0.13959 0.82286 0.31985 0.0
C778 C 0.12966 0.7969 0.27629 0.0
C779 C 0.12065 0.80097 0.26171 0.0
C780 C 0.13113 0.79836 0.24786 0.0
C781 C 0.15083 0.79155 0.24831 0.0
C782 C 0.15963 0.78719 0.26296 0.0
C783 C 0.14918 0.7899 0.27683 0.0
C784 C 0.15442 0.87325 0.3309 0.0
C785 C 0.20301 0.84736 0.32238 0.0
C786 C 0.19378 0.86966 0.38036 0.0
Eu787 Eu 0.17287 0.8442 0.35225 0.0
C788 C 0.18475 0.86729 0.39618 0.0
C789 C 0.16177 0.84456 0.39915 0.0
C790 C 0.15339 0.84234 0.41429 0.0
C791 C 0.16786 0.86285 0.4267 0.0
C792 C 0.19065 0.88579 0.42353 0.0
C793 C 0.19901 0.88796 0.40839 0.0
C794 C 0.15991 0.79428 0.34174 0.0
C795 C 0.1084 0.81631 0.34995 0.0
O796 O 0.11915 0.78781 0.30249 0.0
O797 O 0.12759 0.82618 0.29572 0.0
O798 O 0.1314 0.85672 0.32351 0.0
O799 O 0.16847 0.86278 0.33165 0.0
O800 O 0.17976 0.82976 0.31486 0.0
O801 O 0.2053 0.85973 0.3365 0.0
O802 O 0.18217 0.87711 0.37002 0.0
O803 O 0.19668 0.85021 0.37438 0.0
O804 O 0.18161 0.81088 0.35048 0.0
O805 O 0.14515 0.80398 0.3402 0.0
O806 O 0.1316 0.83155 0.35829 0.0
O807 O 0.10605 0.80777 0.3348 0.0
H808 H 0.10577 0.80662 0.26108 0.0
H809 H 0.12418 0.80225 0.23684 0.0
H810 H 0.17452 0.7816 0.2637 0.0
H811 H 0.15654 0.78677 0.28799 0.0
H812 H 0.15044 0.82844 0.3898 0.0
H813 H 0.1359 0.82432 0.41634 0.0
H814 H 0.20198 0.90213 0.43275 0.0
H815 H 0.21665 0.90575 0.40622 0.0
C816 C 0.86057 0.6905 0.7161 0.0
Eu817 Eu 0.83695 0.68248 0.6877 0.0
C818 C 0.85322 0.67825 0.73085 0.0
C819 C 0.8679 0.69236 0.74529 0.0
C820 C 0.86018 0.68165 0.75953 0.0
C821 C 0.83751 0.65673 0.75953 0.0
C822 C 0.82307 0.64243 0.74498 0.0
C823 C 0.83097 0.65306 0.73073 0.0
C824 C 0.82188 0.71347 0.6739 0.0
C825 C 0.77387 0.63915 0.68671 0.0
C826 C 0.77993 0.64882 0.62695 0.0
Eu827 Eu 0.80214 0.65756 0.6558 0.0
C828 C 0.78875 0.65944 0.61187 0.0
C829 C 0.78043 0.64191 0.59793 0.0
C830 C 0.78951 0.65119 0.58358 0.0
C831 C 0.807 0.67831 0.58284 0.0
C832 C 0.81534 0.69589 0.59689 0.0
C833 C 0.80636 0.68653 0.61129 0.0
C834 C 0.81928 0.62789 0.6695 0.0
C835 C 0.86526 0.70023 0.65661 0.0
O836 O 0.86209 0.67593 0.7043 0.0
O837 O 0.84866 0.70313 0.71166 0.0
O838 O 0.84437 0.72253 0.68227 0.0
O839 O 0.80763 0.68879 0.67421 0.0
O840 O 0.79774 0.65086 0.69441 0.0
O841 O 0.76978 0.64144 0.67159 0.0
O842 O 0.77899 0.66482 0.63808 0.0
O843 O 0.78971 0.63487 0.6324 0.0
O844 O 0.79614 0.61785 0.66177 0.0
O845 O 0.83241 0.65247 0.66887 0.0
O846 O 0.8415 0.68861 0.64874 0.0
O847 O 0.86904 0.69816 0.67181 0.0
H848 H 0.88508 0.71186 0.74558 0.0
H849 H 0.87152 0.69319 0.77059 0.0
H850 H 0.80566 0.62309 0.74464 0.0
H851 H 0.81956 0.64175 0.71966 0.0
H852 H 0.76715 0.6209 0.59818 0.0
H853 H 0.78313 0.63697 0.57311 0.0
H854 H 0.82865 0.71689 0.59676 0.0
H855 H 0.81329 0.70045 0.62196 0.0
C856 C 0.32493 0.18868 0.70979 0.0
Eu857 Eu 0.32316 0.16948 0.68091 0.0
C858 C 0.3374 0.18974 0.72549 0.0
C859 C 0.34162 0.16918 0.72944 0.0
C860 C 0.3535 0.17059 0.74448 0.0
C861 C 0.36153 0.19267 0.75572 0.0
C862 C 0.35762 0.21338 0.7516 0.0
C863 C 0.34564 0.21189 0.7366 0.0
C864 C 0.28923 0.11999 0.66685 0.0
C865 C 0.36343 0.14653 0.67923 0.0
C866 C 0.33528 0.13702 0.61983 0.0
Eu867 Eu 0.33633 0.15549 0.64877 0.0
C868 C 0.32818 0.14051 0.60363 0.0
C869 C 0.3454 0.14432 0.59214 0.0
C870 C 0.33924 0.14768 0.57667 0.0
C871 C 0.31564 0.14711 0.57238 0.0
C872 C 0.2984 0.14339 0.58391 0.0
C873 C 0.30468 0.14024 0.59945 0.0
C874 C 0.37069 0.20468 0.66308 0.0
C875 C 0.29551 0.17809 0.6505 0.0
O876 O 0.34086 0.20249 0.69972 0.0
O877 O 0.30622 0.16536 0.70329 0.0
O878 O 0.28205 0.13427 0.67511 0.0
O879 O 0.31383 0.13176 0.66712 0.0
O880 O 0.35589 0.16099 0.68757 0.0
O881 O 0.35499 0.13823 0.66404 0.0
O882 O 0.31614 0.12513 0.62864 0.0
O883 O 0.35614 0.15732 0.62767 0.0
O884 O 0.37756 0.19026 0.65471 0.0
O885 O 0.34607 0.1932 0.66265 0.0
O886 O 0.3047 0.16546 0.64189 0.0
O887 O 0.30233 0.18479 0.66593 0.0
H888 H 0.3357 0.15206 0.72091 0.0
H889 H 0.3566 0.15453 0.74727 0.0
H890 H 0.36343 0.23052 0.76008 0.0
H891 H 0.34269 0.228 0.73369 0.0
H892 H 0.36361 0.1446 0.59513 0.0
H893 H 0.35273 0.1502 0.56797 0.0
H894 H 0.28017 0.14307 0.58093 0.0
H895 H 0.29114 0.13755 0.60814 0.0
C896 C 0.78775 0.13059 0.62719 0.0
Eu897 Eu 0.80802 0.15482 0.65561 0.0
C898 C 0.79903 0.12856 0.6125 0.0
C899 C 0.81797 0.15128 0.6064 0.0
C900 C 0.82906 0.14895 0.59277 0.0
C901 C 0.82172 0.12386 0.58503 0.0
C902 C 0.80295 0.10115 0.5913 0.0
C903 C 0.79164 0.10351 0.60485 0.0
C904 C 0.82311 0.20573 0.66555 0.0
C905 C 0.87177 0.18117 0.65704 0.0
C906 C 0.86447 0.20492 0.71529 0.0
Eu907 Eu 0.84276 0.17832 0.68754 0.0
C908 C 0.85589 0.2032 0.73122 0.0
C909 C 0.83276 0.18089 0.73446 0.0
C910 C 0.82492 0.17913 0.74973 0.0
C911 C 0.84006 0.19971 0.762 0.0
C912 C 0.86296 0.22226 0.75855 0.0
C913 C 0.87079 0.22396 0.74328 0.0
C914 C 0.82988 0.12816 0.67769 0.0
C915 C 0.7782 0.14951 0.68611 0.0
O916 O 0.7917 0.11911 0.63884 0.0
O917 O 0.79072 0.15372 0.63199 0.0
O918 O 0.79993 0.18894 0.65841 0.0
O919 O 0.8371 0.19525 0.66648 0.0
O920 O 0.84836 0.16335 0.64982 0.0
O921 O 0.87455 0.1936 0.67124 0.0
O922 O 0.8526 0.21196 0.70486 0.0
O923 O 0.8672 0.18524 0.70954 0.0
O924 O 0.85202 0.14531 0.68583 0.0
O925 O 0.81492 0.13764 0.67638 0.0
O926 O 0.80159 0.16598 0.69396 0.0
O927 O 0.77544 0.13961 0.67121 0.0
H928 H 0.8243 0.1709 0.61216 0.0
H929 H 0.84314 0.16689 0.58819 0.0
H930 H 0.79719 0.0815 0.58588 0.0
H931 H 0.77735 0.08571 0.60948 0.0
H932 H 0.82094 0.1647 0.72523 0.0
H933 H 0.80734 0.1614 0.752 0.0
H934 H 0.87481 0.23864 0.76766 0.0
H935 H 0.88856 0.24143 0.7409 0.0
C936 C 0.32844 0.88014 0.0687 0.0
C937 C 0.32449 0.8545 0.06568 0.0
C938 C 0.34766 0.90139 0.06162 0.0
C939 C 0.36336 0.89689 0.05134 0.0
C940 C 0.35922 0.871 0.0481 0.0
C941 C 0.33988 0.85017 0.0553 0.0
C942 C 0.35145 0.92871 0.06532 0.0
C943 C 0.37567 0.86538 0.03731 0.0
C944 C 0.40169 0.94532 0.02234 0.0
C945 C 0.42724 0.9583 0.03019 0.0
C946 C 0.38048 0.92592 0.02932 0.0
C947 C 0.38495 0.91932 0.04448 0.0
C948 C 0.41052 0.933 0.05268 0.0
C949 C 0.4313 0.95231 0.04546 0.0
C950 C 0.35346 0.91184 0.02024 0.0
C951 C 0.41615 0.92659 0.06887 0.0
H952 H 0.31646 0.8836 0.07659 0.0
H953 H 0.3373 0.83053 0.05311 0.0
H954 H 0.37141 0.94228 0.07146 0.0
H955 H 0.34985 0.93685 0.05416 0.0
H956 H 0.33686 0.92869 0.07296 0.0
H957 H 0.36932 0.84399 0.03554 0.0
H958 H 0.37458 0.87214 0.02555 0.0
H959 H 0.39655 0.87658 0.04241 0.0
H960 H 0.3983 0.94982 0.01057 0.0
H961 H 0.45089 0.9623 0.05172 0.0
H962 H 0.33902 0.91241 0.02776 0.0
H963 H 0.34718 0.8907 0.01702 0.0
H964 H 0.35284 0.92071 0.00919 0.0
H965 H 0.40313 0.92817 0.07719 0.0
H966 H 0.43685 0.93995 0.07397 0.0
H967 H 0.41207 0.90588 0.06802 0.0
C968 C 0.11026 0.42936 0.06135 0.0
C969 C 0.13715 0.44189 0.05963 0.0
C970 C 0.0941 0.43753 0.05391 0.0
C971 C 0.10508 0.45877 0.0445 0.0
C972 C 0.13228 0.47181 0.04291 0.0
C973 C 0.14799 0.46318 0.05048 0.0
C974 C 0.06517 0.42305 0.05584 0.0
C975 C 0.14471 0.49465 0.03306 0.0
C976 C 0.05855 0.46125 0.01273 0.0
C977 C 0.0533 0.47999 0.02013 0.0
C978 C 0.07565 0.45445 0.02046 0.0
C979 C 0.08786 0.46672 0.03594 0.0
C980 C 0.08296 0.48594 0.04338 0.0
C981 C 0.06573 0.49232 0.0354 0.0
C982 C 0.08036 0.43383 0.01213 0.0
C983 C 0.09564 0.4995 0.05987 0.0
H984 H 0.10166 0.41264 0.0682 0.0
H985 H 0.16881 0.47312 0.04924 0.0
H986 H 0.0593 0.43724 0.06054 0.0
H987 H 0.0536 0.41359 0.04412 0.0
H988 H 0.05987 0.40751 0.06398 0.0
H989 H 0.16628 0.50324 0.03345 0.0
H990 H 0.13594 0.48789 0.02052 0.0
H991 H 0.14072 0.51048 0.03733 0.0
H992 H 0.0491 0.45164 0.00094 0.0
H993 H 0.06194 0.50692 0.04119 0.0
H994 H 0.07373 0.41665 0.01908 0.0
H995 H 0.10165 0.44213 0.01136 0.0
H996 H 0.06987 0.42663 0.99996 0.0
H997 H 0.08919 0.48464 0.06849 0.0
H998 H 0.09065 0.51481 0.06371 0.0
H999 H 0.11728 0.50903 0.06033 0.0
C1000 C 0.54276 0.6833 0.04848 0.0
C1001 C 0.55079 0.70334 0.03839 0.0
C1002 C 0.53078 0.65654 0.04232 0.0
C1003 C 0.52699 0.64967 0.02568 0.0
C1004 C 0.53435 0.66969 0.01543 0.0
C1005 C 0.54601 0.69625 0.0219 0.0
C1006 C 0.52302 0.6357 0.05364 0.0
C1007 C 0.53076 0.66316 0.99762 0.0
C1008 C 0.52592 0.58676 0.01056 0.0
C1009 C 0.4991 0.5693 0.00609 0.0
C1010 C 0.53519 0.61295 0.01694 0.0
C1011 C 0.51716 0.62182 0.01904 0.0
C1012 C 0.48999 0.60419 0.01464 0.0
C1013 C 0.48127 0.5781 0.00811 0.0
C1014 C 0.56433 0.63117 0.02136 0.0
C1015 C 0.47019 0.61288 0.0169 0.0
H1016 H 0.5466 0.68856 0.06123 0.0
H1017 H 0.55166 0.71154 0.014 0.0
H1018 H 0.50238 0.61966 0.05032 0.0
H1019 H 0.5355 0.62657 0.05287 0.0
H1020 H 0.52513 0.64402 0.06614 0.0
H1021 H 0.53624 0.68085 0.99127 0.0
H1022 H 0.54305 0.65462 0.99423 0.0
H1023 H 0.51006 0.64801 0.99353 0.0
H1024 H 0.53975 0.57998 0.00897 0.0
H1025 H 0.46051 0.56453 0.00473 0.0
H1026 H 0.56836 0.63858 0.03417 0.0
H1027 H 0.5715 0.64866 0.01465 0.0
H1028 H 0.57572 0.62119 0.01887 0.0
H1029 H 0.47165 0.61996 0.02958 0.0
H1030 H 0.44975 0.59665 0.01311 0.0
H1031 H 0.47445 0.62973 0.01 0.0
C1032 C 0.87125 0.30297 0.97581 0.0
C1033 C 0.85854 0.29713 0.96034 0.0
C1034 C 0.8868 0.32924 0.98287 0.0
C1035 C 0.89011 0.35024 0.97415 0.0
C1036 C 0.8772 0.34455 0.95861 0.0
C1037 C 0.8614 0.31809 0.95195 0.0
C1038 C 0.90007 0.33453 0.99954 0.0
C1039 C 0.88048 0.36643 0.94888 0.0
C1040 C 0.91514 0.41867 0.99604 0.0
C1041 C 0.94194 0.43112 0.9942 0.0
C1042 C 0.898 0.39223 0.98967 0.0
C1043 C 0.90791 0.37818 0.98107 0.0
C1044 C 0.93496 0.39081 0.9791 0.0
C1045 C 0.95169 0.41703 0.98586 0.0
C1046 C 0.86936 0.37927 0.99223 0.0
C1047 C 0.94623 0.37667 0.9698 0.0
H1048 H 0.86955 0.28703 0.98234 0.0
H1049 H 0.85128 0.31384 0.94012 0.0
H1050 H 0.92167 0.34527 0.9994 0.0
H1051 H 0.89526 0.34738 0.0071 0.0
H1052 H 0.89416 0.316 0.00508 0.0
H1053 H 0.86884 0.35868 0.93704 0.0
H1054 H 0.87439 0.37928 0.95527 0.0
H1055 H 0.90147 0.37911 0.94716 0.0
H1056 H 0.90761 0.42951 0.00256 0.0
H1057 H 0.97246 0.42654 0.98455 0.0
H1058 H 0.86366 0.3614 0.99841 0.0
H1059 H 0.85706 0.37264 0.98062 0.0
H1060 H 0.86483 0.39282 0.99935 0.0
H1061 H 0.94318 0.359 0.97548 0.0
H1062 H 0.96755 0.38959 0.96898 0.0
H1063 H 0.93589 0.36958 0.9576 0.0
C1064 C 0.6607 0.55981 0.93955 0.0
C1065 C 0.67696 0.55025 0.94494 0.0
C1066 C 0.63713 0.55286 0.94603 0.0
C1067 C 0.62963 0.53591 0.95817 0.0
C1068 C 0.64545 0.52539 0.96324 0.0
C1069 C 0.66897 0.53275 0.95659 0.0
C1070 C 0.62079 0.56448 0.94031 0.0
C1071 C 0.63789 0.50694 0.97599 0.0
C1072 C 0.58649 0.54233 0.98738 0.0
C1073 C 0.56166 0.52087 0.98161 0.0
C1074 C 0.60872 0.54741 0.97983 0.0
C1075 C 0.60612 0.53052 0.96624 0.0
C1076 C 0.58114 0.50871 0.96041 0.0
C1077 C 0.55919 0.50422 0.96812 0.0
C1078 C 0.63503 0.57095 0.98637 0.0
C1079 C 0.57756 0.4902 0.94598 0.0
H1080 H 0.66689 0.57358 0.93069 0.0
H1081 H 0.68129 0.52502 0.96064 0.0
H1082 H 0.60026 0.5485 0.93661 0.0
H1083 H 0.62032 0.57764 0.95016 0.0
H1084 H 0.62857 0.57613 0.93018 0.0
H1085 H 0.65139 0.49911 0.97785 0.0
H1086 H 0.6381 0.51757 0.98737 0.0
H1087 H 0.61763 0.49 0.97285 0.0
H1088 H 0.58857 0.55532 0.99777 0.0
H1089 H 0.54012 0.48749 0.96361 0.0
H1090 H 0.64329 0.58454 0.97715 0.0
H1091 H 0.64903 0.56424 0.98966 0.0
H1092 H 0.63371 0.5822 0.99699 0.0
H1093 H 0.58164 0.50098 0.93532 0.0
H1094 H 0.55737 0.47277 0.94388 0.0
H1095 H 0.59167 0.48303 0.94732 0.0
C1096 C 0.48432 0.13469 0.94686 0.0
C1097 C 0.47919 0.15438 0.95276 0.0
C1098 C 0.48398 0.11604 0.9565 0.0
C1099 C 0.47871 0.11739 0.97247 0.0
C1100 C 0.47228 0.13643 0.97825 0.0
C1101 C 0.47251 0.15467 0.9683 0.0
C1102 C 0.49055 0.09575 0.94982 0.0
C1103 C 0.46663 0.13853 0.99522 0.0
C1104 C 0.46685 0.06035 0.99616 0.0
C1105 C 0.49212 0.06944 0.00358 0.0
C1106 C 0.46201 0.07575 0.98601 0.0
C1107 C 0.48288 0.10098 0.98356 0.0
C1108 C 0.50821 0.11059 0.99153 0.0
C1109 C 0.51251 0.09467 0.00143 0.0
C1110 C 0.43483 0.06476 0.97757 0.0
C1111 C 0.53095 0.13747 0.98935 0.0
H1112 H 0.4891 0.13419 0.93476 0.0
H1113 H 0.46868 0.16996 0.97293 0.0
H1114 H 0.51023 0.10069 0.95523 0.0
H1115 H 0.47626 0.07575 0.95279 0.0
H1116 H 0.49067 0.095 0.93672 0.0
H1117 H 0.45931 0.1525 0.99738 0.0
H1118 H 0.45189 0.11883 0.99834 0.0
H1119 H 0.48484 0.14557 0.00332 0.0
H1120 H 0.45099 0.04097 0.99803 0.0
H1121 H 0.53207 0.10181 0.00721 0.0
H1122 H 0.43533 0.06172 0.96459 0.0
H1123 H 0.42792 0.07905 0.97963 0.0
H1124 H 0.42042 0.04556 0.98152 0.0
H1125 H 0.53498 0.13802 0.97675 0.0
H1126 H 0.54916 0.14239 0.99688 0.0
H1127 H 0.52597 0.15306 0.99228 0.0
C1128 C 0.6749 0.09842 0.95371 0.0
C1129 C 0.68298 0.12292 0.94793 0.0
C1130 C 0.65086 0.08474 0.96001 0.0
C1131 C 0.6347 0.0961 0.96096 0.0
C1132 C 0.64243 0.12059 0.95497 0.0
C1133 C 0.66632 0.13355 0.94837 0.0
C1134 C 0.6431 0.05844 0.96606 0.0
C1135 C 0.62584 0.13346 0.95597 0.0
C1136 C 0.56378 0.05109 0.96823 0.0
C1137 C 0.56538 0.05526 0.98482 0.0
C1138 C 0.5861 0.06453 0.96023 0.0
C1139 C 0.61044 0.08293 0.96902 0.0
C1140 C 0.61194 0.08788 0.98572 0.0
C1141 C 0.58944 0.07378 0.99343 0.0
C1142 C 0.5838 0.05838 0.94245 0.0
C1143 C 0.63742 0.10778 0.99547 0.0
H1144 H 0.68769 0.09015 0.95376 0.0
H1145 H 0.67202 0.15217 0.94367 0.0
H1146 H 0.64289 0.06032 0.97912 0.0
H1147 H 0.62298 0.04326 0.96081 0.0
H1148 H 0.65675 0.05127 0.96324 0.0
H1149 H 0.63419 0.15213 0.9503 0.0
H1150 H 0.60569 0.1197 0.95016 0.0
H1151 H 0.62416 0.13798 0.9686 0.0
H1152 H 0.54522 0.03673 0.96151 0.0
H1153 H 0.5907 0.07732 0.00623 0.0
H1154 H 0.59569 0.04914 0.93957 0.0
H1155 H 0.5917 0.07687 0.93667 0.0
H1156 H 0.56319 0.0447 0.93727 0.0
H1157 H 0.6519 0.10109 0.99473 0.0
H1158 H 0.63487 0.11063 0.00817 0.0
H1159 H 0.64584 0.12721 0.99069 0.0
C1160 C 0.88319 0.57229 0.93909 0.0
C1161 C 0.85739 0.5599 0.94318 0.0
C1162 C 0.90079 0.56428 0.94442 0.0
C1163 C 0.89233 0.54318 0.95393 0.0
C1164 C 0.86602 0.52985 0.95755 0.0
C1165 C 0.8489 0.53845 0.9522 0.0
C1166 C 0.9287 0.57903 0.94033 0.0
C1167 C 0.85622 0.50713 0.96757 0.0
C1168 C 0.93403 0.51116 0.96018 0.0
C1169 C 0.94743 0.52343 0.97527 0.0
C1170 C 0.91599 0.51735 0.95304 0.0
C1171 C 0.91149 0.53642 0.96111 0.0
C1172 C 0.92528 0.54914 0.97622 0.0
C1173 C 0.94296 0.54241 0.98313 0.0
C1174 C 0.90151 0.50325 0.93696 0.0
C1175 C 0.92128 0.56983 0.98513 0.0
H1176 H 0.88976 0.5885 0.93183 0.0
H1177 H 0.82909 0.52889 0.95553 0.0
H1178 H 0.94228 0.58939 0.95133 0.0
H1179 H 0.93415 0.56496 0.93488 0.0
H1180 H 0.93174 0.59391 0.93202 0.0
H1181 H 0.8347 0.49737 0.96813 0.0
H1182 H 0.86093 0.49209 0.96277 0.0
H1183 H 0.86625 0.51449 0.97983 0.0
H1184 H 0.9373 0.49641 0.95405 0.0
H1185 H 0.95333 0.55213 0.99474 0.0
H1186 H 0.905 0.51788 0.92842 0.0
H1187 H 0.88008 0.49203 0.93784 0.0
H1188 H 0.90758 0.48928 0.93213 0.0
H1189 H 0.92564 0.58623 0.97782 0.0
H1190 H 0.93392 0.57824 0.99663 0.0
H1191 H 0.90049 0.56104 0.9875 0.0
C1192 C 0.49456 0.3553 0.94796 0.0
C1193 C 0.48493 0.33044 0.95343 0.0
C1194 C 0.49386 0.3759 0.9569 0.0
C1195 C 0.48387 0.37165 0.97183 0.0
C1196 C 0.47358 0.34635 0.97723 0.0
C1197 C 0.47398 0.32591 0.96785 0.0
C1198 C 0.50435 0.4024 0.95056 0.0
C1199 C 0.46327 0.34121 0.99321 0.0
C1200 C 0.51285 0.43308 0.00153 0.0
C1201 C 0.49267 0.43905 0.00111 0.0
C1202 C 0.50988 0.41077 0.99238 0.0
C1203 C 0.48632 0.39429 0.98233 0.0
C1204 C 0.46565 0.39993 0.98209 0.0
C1205 C 0.46892 0.42203 0.99175 0.0
C1206 C 0.53222 0.40518 0.99321 0.0
C1207 C 0.44047 0.38314 0.97129 0.0
H1208 H 0.50278 0.35862 0.93671 0.0
H1209 H 0.46666 0.30665 0.97206 0.0
H1210 H 0.48952 0.40869 0.95071 0.0
H1211 H 0.52208 0.41767 0.95828 0.0
H1212 H 0.50957 0.40188 0.93825 0.0
H1213 H 0.45446 0.32005 0.99522 0.0
H1214 H 0.47954 0.3534 0.00274 0.0
H1215 H 0.44829 0.34715 0.99432 0.0
H1216 H 0.5312 0.4461 0.00886 0.0
H1217 H 0.45305 0.42621 0.99179 0.0
H1218 H 0.54013 0.40714 0.98156 0.0
H1219 H 0.52508 0.38454 0.99586 0.0
H1220 H 0.54849 0.4189 0.00241 0.0
H1221 H 0.44472 0.38434 0.95873 0.0
H1222 H 0.42593 0.38958 0.97298 0.0
H1223 H 0.43156 0.36206 0.9734 0.0
C1224 C 0.15224 0.67743 0.0428 0.0
C1225 C 0.15623 0.67371 0.05865 0.0
C1226 C 0.13214 0.65693 0.03217 0.0
C1227 C 0.11564 0.63209 0.0375 0.0
C1228 C 0.11893 0.62848 0.05362 0.0
C1229 C 0.1392 0.64934 0.064 0.0
C1230 C 0.12926 0.66153 0.01507 0.0
C1231 C 0.10153 0.60235 0.05978 0.0
C1232 C 0.05231 0.5824 0.01199 0.0
C1233 C 0.05977 0.56565 0.00435 0.0
C1234 C 0.07026 0.60418 0.02284 0.0
C1235 C 0.09628 0.60933 0.02596 0.0
C1236 C 0.10397 0.59268 0.01803 0.0
C1237 C 0.08562 0.57107 0.00729 0.0
C1238 C 0.06134 0.62148 0.03107 0.0
C1239 C 0.1315 0.59745 0.02105 0.0
H1240 H 0.16547 0.69609 0.03854 0.0
H1241 H 0.14192 0.64648 0.07629 0.0
H1242 H 0.13412 0.64891 0.00733 0.0
H1243 H 0.10866 0.65579 0.01128 0.0
H1244 H 0.14227 0.68253 0.01311 0.0
H1245 H 0.10583 0.60314 0.07279 0.0
H1246 H 0.08061 0.59643 0.05712 0.0
H1247 H 0.10419 0.58662 0.0537 0.0
H1248 H 0.03235 0.57834 0.00958 0.0
H1249 H 0.09141 0.55807 0.00143 0.0
H1250 H 0.07395 0.64236 0.0288 0.0
H1251 H 0.06336 0.62097 0.04409 0.0
H1252 H 0.04059 0.61509 0.02709 0.0
H1253 H 0.14591 0.61765 0.01841 0.0
H1254 H 0.13441 0.58286 0.01375 0.0
H1255 H 0.13588 0.5963 0.03376 0.0
C1256 C 0.32174 0.4246 0.06912 0.0
C1257 C 0.3067 0.43681 0.06696 0.0
C1258 C 0.34517 0.43313 0.06215 0.0
C1259 C 0.35403 0.45465 0.05294 0.0
C1260 C 0.33955 0.46777 0.05123 0.0
C1261 C 0.316 0.45861 0.05817 0.0
C1262 C 0.36003 0.41858 0.06423 0.0
C1263 C 0.34849 0.49098 0.04164 0.0
C1264 C 0.4249 0.48882 0.04355 0.0
C1265 C 0.42227 0.47748 0.02795 0.0
C1266 C 0.4029 0.48162 0.05184 0.0
C1267 C 0.37766 0.46253 0.0444 0.0
C1268 C 0.37488 0.45089 0.02871 0.0
C1269 C 0.39719 0.45857 0.02066 0.0
C1270 C 0.40668 0.49459 0.06853 0.0
C1271 C 0.34832 0.43024 0.02042 0.0
H1272 H 0.31504 0.40809 0.07614 0.0
H1273 H 0.30444 0.46802 0.05624 0.0
H1274 H 0.36038 0.40919 0.05252 0.0
H1275 H 0.38069 0.43267 0.06906 0.0
H1276 H 0.35113 0.40296 0.0723 0.0
H1277 H 0.33612 0.50026 0.04244 0.0
H1278 H 0.36915 0.50625 0.04578 0.0
H1279 H 0.34778 0.48432 0.02898 0.0
H1280 H 0.44417 0.5035 0.0493 0.0
H1281 H 0.39494 0.44961 0.00865 0.0
H1282 H 0.39853 0.47932 0.07684 0.0
H1283 H 0.3958 0.50547 0.06904 0.0
H1284 H 0.42767 0.50867 0.07274 0.0
H1285 H 0.33906 0.41319 0.02746 0.0
H1286 H 0.34954 0.42284 0.0083 0.0
H1287 H 0.33521 0.43866 0.01952 0.0
C1288 C 0.54409 0.8841 0.05011 0.0
C1289 C 0.55758 0.87563 0.04053 0.0
C1290 C 0.53271 0.89822 0.04408 0.0
C1291 C 0.53451 0.90351 0.02804 0.0
C1292 C 0.54745 0.89428 0.01821 0.0
C1293 C 0.55902 0.88064 0.02462 0.0
C1294 C 0.51945 0.90814 0.05498 0.0
C1295 C 0.54945 0.89921 0.001 0.0
C1296 C 0.4885 0.92343 0.00836 0.0
C1297 C 0.505 0.95087 0.00886 0.0
C1298 C 0.49777 0.90769 0.01464 0.0
C1299 C 0.52404 0.91982 0.0217 0.0
C1300 C 0.54066 0.94758 0.02233 0.0
C1301 C 0.53102 0.96271 0.01572 0.0
C1302 C 0.47959 0.8781 0.01357 0.0
C1303 C 0.5687 0.9613 0.02992 0.0
H1304 H 0.54315 0.88036 0.06244 0.0
H1305 H 0.56923 0.87382 0.01718 0.0
H1306 H 0.52994 0.93011 0.05618 0.0
H1307 H 0.49903 0.90097 0.04986 0.0
H1308 H 0.519 0.90164 0.067 0.0
H1309 H 0.55878 0.88935 0.99473 0.0
H1310 H 0.52965 0.89194 0.99475 0.0
H1311 H 0.56118 0.9208 0.00016 0.0
H1312 H 0.46837 0.91425 0.00302 0.0
H1313 H 0.54395 0.98387 0.01585 0.0
H1314 H 0.47778 0.87157 0.02561 0.0
H1315 H 0.48787 0.86777 0.00669 0.0
H1316 H 0.45968 0.87179 0.00781 0.0
H1317 H 0.56929 0.95649 0.04229 0.0
H1318 H 0.57863 0.98318 0.03011 0.0
H1319 H 0.58 0.95412 0.02333 0.0
C1320 C 0.99856 0.18451 0.38754 0.0
C1321 C 0.99058 0.18998 0.40182 0.0
C1322 C 0.018 0.20492 0.38013 0.0
C1323 C 0.02939 0.23152 0.38702 0.0
C1324 C 0.0208 0.23723 0.40118 0.0
C1325 C 0.00168 0.21634 0.40852 0.0
C1326 C 0.02703 0.19793 0.36525 0.0
C1327 C 0.03215 0.26535 0.40873 0.0
C1328 C 0.09804 0.27925 0.3773 0.0
C1329 C 0.09304 0.29098 0.36469 0.0
C1330 C 0.07755 0.26026 0.38484 0.0
C1331 C 0.05135 0.25307 0.37985 0.0
C1332 C 0.04619 0.26547 0.3675 0.0
C1333 C 0.06709 0.28411 0.35995 0.0
C1334 C 0.08393 0.2473 0.39781 0.0
C1335 C 0.01855 0.25868 0.36209 0.0
H1336 H 0.99024 0.1641 0.38246 0.0
H1337 H 0.9954 0.22058 0.41952 0.0
H1338 H 0.02512 0.20878 0.35554 0.0
H1339 H 0.04809 0.20407 0.36747 0.0
H1340 H 0.01567 0.17636 0.36117 0.0
H1341 H 0.0217 0.26663 0.41889 0.0
H1342 H 0.05313 0.2737 0.41307 0.0
H1343 H 0.03118 0.27793 0.39983 0.0
H1344 H 0.11799 0.28428 0.38101 0.0
H1345 H 0.06309 0.29319 0.35028 0.0
H1346 H 0.07386 0.22557 0.39445 0.0
H1347 H 0.07669 0.25066 0.40898 0.0
H1348 H 0.10534 0.25499 0.40018 0.0
H1349 H 0.00697 0.23775 0.35671 0.0
H1350 H 0.01801 0.27152 0.35322 0.0
H1351 H 0.00878 0.26071 0.3724 0.0
C1352 C 0.81013 0.7922 0.3768 0.0
C1353 C 0.80525 0.78117 0.39119 0.0
C1354 C 0.79382 0.80067 0.36988 0.0
C1355 C 0.77177 0.79734 0.37735 0.0
C1356 C 0.76711 0.78671 0.39207 0.0
C1357 C 0.7841 0.77899 0.3989 0.0
C1358 C 0.79981 0.81256 0.35438 0.0
C1359 C 0.74356 0.78239 0.40026 0.0
C1360 C 0.73629 0.83347 0.36503 0.0
C1361 C 0.71591 0.81419 0.354 0.0
C1362 C 0.7549 0.82846 0.37256 0.0
C1363 C 0.75263 0.80335 0.36927 0.0
C1364 C 0.73188 0.78373 0.35827 0.0
C1365 C 0.71396 0.78952 0.3506 0.0
C1366 C 0.77708 0.85011 0.38392 0.0
C1367 C 0.72845 0.75652 0.3547 0.0
H1368 H 0.82661 0.79401 0.37091 0.0
H1369 H 0.78022 0.7702 0.40996 0.0
H1370 H 0.78423 0.79908 0.3448 0.0
H1371 H 0.80002 0.83164 0.35527 0.0
H1372 H 0.819 0.81607 0.3509 0.0
H1373 H 0.74332 0.77488 0.41195 0.0
H1374 H 0.74325 0.80114 0.4021 0.0
H1375 H 0.72531 0.76788 0.39264 0.0
H1376 H 0.738 0.85269 0.36754 0.0
H1377 H 0.69812 0.77456 0.34215 0.0
H1378 H 0.7962 0.85419 0.38004 0.0
H1379 H 0.77615 0.84361 0.39594 0.0
H1380 H 0.77652 0.86882 0.38475 0.0
H1381 H 0.74598 0.75814 0.34965 0.0
H1382 H 0.71086 0.74329 0.34618 0.0
H1383 H 0.7266 0.74715 0.36583 0.0
C1384 C 0.20041 0.01446 0.37821 0.0
C1385 C 0.21385 0.03493 0.36881 0.0
C1386 C 0.18906 0.98782 0.37196 0.0
C1387 C 0.1911 0.98155 0.35591 0.0
C1388 C 0.20391 0.00212 0.34623 0.0
C1389 C 0.21521 0.02858 0.35281 0.0
C1390 C 0.17573 0.96643 0.38268 0.0
C1391 C 0.20632 0.99619 0.32903 0.0
C1392 C 0.18928 0.917 0.34441 0.0
C1393 C 0.16348 0.90081 0.33728 0.0
C1394 C 0.19841 0.94323 0.35063 0.0
C1395 C 0.18136 0.95361 0.34953 0.0
C1396 C 0.15528 0.93737 0.34227 0.0
C1397 C 0.1466 0.91106 0.33625 0.0
C1398 C 0.22631 0.95984 0.35837 0.0
C1399 C 0.13662 0.94783 0.34083 0.0
H1400 H 0.19955 0.01929 0.39062 0.0
H1401 H 0.2253 0.04437 0.34546 0.0
H1402 H 0.15565 0.95155 0.37723 0.0
H1403 H 0.1868 0.95589 0.38422 0.0
H1404 H 0.17439 0.9745 0.39458 0.0
H1405 H 0.21536 0.01433 0.32285 0.0
H1406 H 0.21853 0.98676 0.32825 0.0
H1407 H 0.18671 0.98197 0.32266 0.0
H1408 H 0.20242 0.90915 0.34515 0.0
H1409 H 0.12663 0.89855 0.33071 0.0
H1410 H 0.22646 0.96722 0.37078 0.0
H1411 H 0.23726 0.97741 0.35196 0.0
H1412 H 0.23687 0.94861 0.3585 0.0
H1413 H 0.13423 0.95469 0.35279 0.0
H1414 H 0.11697 0.93266 0.33487 0.0
H1415 H 0.14481 0.96519 0.33399 0.0
C1416 C 0.52738 0.63951 0.30826 0.0
C1417 C 0.51785 0.63388 0.29211 0.0
C1418 C 0.54313 0.66573 0.31532 0.0
C1419 C 0.54961 0.68684 0.30599 0.0
C1420 C 0.53963 0.68132 0.28975 0.0
C1421 C 0.52379 0.65488 0.28301 0.0
C1422 C 0.55327 0.67083 0.33269 0.0
C1423 C 0.54629 0.7033 0.2794 0.0
C1424 C 0.57613 0.75602 0.32726 0.0
C1425 C 0.60322 0.76671 0.32715 0.0
C1426 C 0.55835 0.73006 0.3203 0.0
C1427 C 0.56798 0.71461 0.31304 0.0
C1428 C 0.59534 0.72547 0.31279 0.0
C1429 C 0.61262 0.75134 0.31993 0.0
C1430 C 0.52931 0.7191 0.32083 0.0
C1431 C 0.6064 0.70972 0.30509 0.0
H1432 H 0.52253 0.62335 0.31538 0.0
H1433 H 0.51667 0.65062 0.27049 0.0
H1434 H 0.575 0.68074 0.33402 0.0
H1435 H 0.54799 0.68436 0.33908 0.0
H1436 H 0.54535 0.65229 0.33847 0.0
H1437 H 0.53589 0.69575 0.26721 0.0
H1438 H 0.54116 0.71768 0.28476 0.0
H1439 H 0.56773 0.71427 0.27854 0.0
H1440 H 0.56884 0.76791 0.33283 0.0
H1441 H 0.63358 0.75952 0.31986 0.0
H1442 H 0.52108 0.70133 0.32733 0.0
H1443 H 0.51902 0.71272 0.30861 0.0
H1444 H 0.52498 0.73379 0.32671 0.0
H1445 H 0.60087 0.69174 0.31113 0.0
H1446 H 0.62813 0.72135 0.30555 0.0
H1447 H 0.59797 0.70301 0.29249 0.0
C1448 C 0.33386 0.86718 0.28734 0.0
C1449 C 0.34408 0.88905 0.27861 0.0
C1450 C 0.31018 0.85874 0.29402 0.0
C1451 C 0.29633 0.8724 0.29185 0.0
C1452 C 0.30606 0.89391 0.28262 0.0
C1453 C 0.32986 0.90206 0.27619 0.0
C1454 C 0.30025 0.83555 0.30367 0.0
C1455 C 0.29171 0.90881 0.27991 0.0
C1456 C 0.22485 0.84062 0.29961 0.0
C1457 C 0.22689 0.85333 0.3147 0.0
C1458 C 0.24728 0.84623 0.29212 0.0
C1459 C 0.27236 0.86512 0.29987 0.0
C1460 C 0.27458 0.87775 0.31517 0.0
C1461 C 0.25183 0.87171 0.32239 0.0
C1462 C 0.24399 0.83237 0.27578 0.0
C1463 C 0.30102 0.89786 0.32386 0.0
H1464 H 0.34448 0.85675 0.28905 0.0
H1465 H 0.33774 0.91921 0.26967 0.0
H1466 H 0.2996 0.84216 0.31611 0.0
H1467 H 0.27993 0.8202 0.29888 0.0
H1468 H 0.31279 0.82641 0.30374 0.0
H1469 H 0.30116 0.92418 0.27175 0.0
H1470 H 0.27113 0.89485 0.27486 0.0
H1471 H 0.29109 0.91857 0.2914 0.0
H1472 H 0.20568 0.82636 0.29355 0.0
H1473 H 0.25365 0.88155 0.33406 0.0
H1474 H 0.25842 0.82563 0.27485 0.0
H1475 H 0.24756 0.84642 0.26684 0.0
H1476 H 0.22395 0.81497 0.27273 0.0
H1477 H 0.31369 0.88898 0.32506 0.0
H1478 H 0.29943 0.90531 0.33588 0.0
H1479 H 0.311 0.91496 0.31694 0.0
C1480 C 0.15022 0.46617 0.27733 0.0
C1481 C 0.14898 0.488 0.28407 0.0
C1482 C 0.15001 0.44728 0.28672 0.0
C1483 C 0.14855 0.45033 0.30324 0.0
C1484 C 0.14609 0.47164 0.30998 0.0
C1485 C 0.14635 0.49022 0.30032 0.0
C1486 C 0.15239 0.42466 0.27908 0.0
C1487 C 0.14457 0.47562 0.32755 0.0
C1488 C 0.1348 0.39381 0.32789 0.0
C1489 C 0.16021 0.40109 0.33421 0.0
C1490 C 0.13059 0.40947 0.31762 0.0
C1491 C 0.15234 0.43295 0.31373 0.0
C1492 C 0.17803 0.44034 0.32015 0.0
C1493 C 0.18162 0.42435 0.33034 0.0
C1494 C 0.10295 0.40094 0.31096 0.0
C1495 C 0.20178 0.46514 0.31622 0.0
H1496 H 0.15181 0.46411 0.26473 0.0
H1497 H 0.14566 0.50717 0.30565 0.0
H1498 H 0.1711 0.42636 0.28389 0.0
H1499 H 0.13624 0.4055 0.28196 0.0
H1500 H 0.15188 0.42426 0.26597 0.0
H1501 H 0.14019 0.49162 0.33067 0.0
H1502 H 0.12923 0.45702 0.33158 0.0
H1503 H 0.16356 0.48085 0.33422 0.0
H1504 H 0.11823 0.3759 0.331 0.0
H1505 H 0.20133 0.42993 0.33512 0.0
H1506 H 0.10123 0.39849 0.29779 0.0
H1507 H 0.0982 0.41647 0.31458 0.0
H1508 H 0.08822 0.382 0.31501 0.0
H1509 H 0.20272 0.46427 0.30321 0.0
H1510 H 0.22042 0.46794 0.32212 0.0
H1511 H 0.2002 0.48275 0.31995 0.0
C1512 C 0.33024 0.47217 0.28561 0.0
C1513 C 0.34252 0.45987 0.27813 0.0
C1514 C 0.30633 0.45721 0.29187 0.0
C1515 C 0.29445 0.42929 0.29062 0.0
C1516 C 0.30613 0.41668 0.28245 0.0
C1517 C 0.33004 0.43213 0.27632 0.0
C1518 C 0.29437 0.47135 0.30042 0.0
C1519 C 0.29401 0.38694 0.28083 0.0
C1520 C 0.25298 0.39408 0.32296 0.0
C1521 C 0.22741 0.38344 0.3155 0.0
C1522 C 0.27488 0.40905 0.31497 0.0
C1523 C 0.27119 0.41348 0.29909 0.0
C1524 C 0.24546 0.40275 0.29143 0.0
C1525 C 0.22386 0.3879 0.29975 0.0
C1526 C 0.30202 0.42014 0.32355 0.0
C1527 C 0.24076 0.40707 0.27451 0.0
H1528 H 0.33959 0.49359 0.28683 0.0
H1529 H 0.33953 0.42247 0.27071 0.0
H1530 H 0.27344 0.46261 0.29579 0.0
H1531 H 0.29506 0.46883 0.31323 0.0
H1532 H 0.30482 0.49289 0.29918 0.0
H1533 H 0.3042 0.38007 0.2729 0.0
H1534 H 0.2949 0.38041 0.29269 0.0
H1535 H 0.27301 0.37711 0.27608 0.0
H1536 H 0.25599 0.39082 0.33512 0.0
H1537 H 0.2042 0.37982 0.29387 0.0
H1538 H 0.31308 0.44204 0.32394 0.0
H1539 H 0.31304 0.41252 0.31705 0.0
H1540 H 0.30151 0.41492 0.3359 0.0
H1541 H 0.2481 0.42842 0.2738 0.0
H1542 H 0.21964 0.39569 0.26987 0.0
H1543 H 0.25177 0.40119 0.26667 0.0
C1544 C 0.55079 0.91122 0.2729 0.0
C1545 C 0.52434 0.89753 0.27573 0.0
C1546 C 0.56808 0.90275 0.27807 0.0
C1547 C 0.55868 0.87998 0.28621 0.0
C1548 C 0.53176 0.86538 0.28848 0.0
C1549 C 0.51491 0.87437 0.28323 0.0
C1550 C 0.59664 0.91882 0.2754 0.0
C1551 C 0.52098 0.84094 0.29706 0.0
C1552 C 0.60102 0.84868 0.29259 0.0
C1553 C 0.61249 0.85918 0.30825 0.0
C1554 C 0.58347 0.85528 0.28519 0.0
C1555 C 0.5774 0.87286 0.29364 0.0
C1556 C 0.58918 0.88375 0.30936 0.0
C1557 C 0.60651 0.87674 0.31647 0.0
C1558 C 0.57122 0.84324 0.26843 0.0
C1559 C 0.58337 0.90273 0.31873 0.0
H1560 H 0.55809 0.92883 0.26681 0.0
H1561 H 0.49455 0.86379 0.28556 0.0
H1562 H 0.60879 0.92807 0.28699 0.0
H1563 H 0.60326 0.90582 0.26981 0.0
H1564 H 0.60038 0.93473 0.26776 0.0
H1565 H 0.49924 0.83044 0.29651 0.0
H1566 H 0.52686 0.82702 0.29191 0.0
H1567 H 0.52929 0.84659 0.30971 0.0
H1568 H 0.60546 0.83503 0.28616 0.0
H1569 H 0.61532 0.88508 0.32854 0.0
H1570 H 0.57554 0.8591 0.26067 0.0
H1571 H 0.54957 0.83127 0.26819 0.0
H1572 H 0.57841 0.83036 0.26337 0.0
H1573 H 0.58845 0.92023 0.3123 0.0
H1574 H 0.59442 0.90969 0.33076 0.0
H1575 H 0.56209 0.89298 0.32001 0.0
C1576 C 0.1614 0.68812 0.28028 0.0
C1577 C 0.15148 0.663 0.2854 0.0
C1578 C 0.15958 0.70813 0.2891 0.0
C1579 C 0.14819 0.703 0.30358 0.0
C1580 C 0.13748 0.67737 0.30856 0.0
C1581 C 0.13902 0.65753 0.29928 0.0
C1582 C 0.17056 0.735 0.28319 0.0
C1583 C 0.12567 0.6713 0.32407 0.0
C1584 C 0.17548 0.76331 0.33399 0.0
C1585 C 0.15549 0.76954 0.333 0.0
C1586 C 0.17289 0.74117 0.32485 0.0
C1587 C 0.14995 0.72516 0.31422 0.0
C1588 C 0.12938 0.73097 0.31345 0.0
C1589 C 0.13222 0.75286 0.32312 0.0
C1590 C 0.19506 0.73535 0.32628 0.0
C1591 C 0.10485 0.71466 0.30204 0.0
H1592 H 0.17083 0.69214 0.26943 0.0
H1593 H 0.13147 0.63805 0.3032 0.0
H1594 H 0.15572 0.74129 0.28305 0.0
H1595 H 0.18786 0.74995 0.29134 0.0
H1596 H 0.17663 0.73507 0.27106 0.0
H1597 H 0.11637 0.64991 0.32561 0.0
H1598 H 0.14122 0.6828 0.33408 0.0
H1599 H 0.11074 0.67739 0.32482 0.0
H1600 H 0.19343 0.77603 0.34174 0.0
H1601 H 0.11644 0.75719 0.32276 0.0
H1602 H 0.20397 0.73789 0.31494 0.0
H1603 H 0.18748 0.7145 0.3286 0.0
H1604 H 0.21068 0.74858 0.33593 0.0
H1605 H 0.11 0.71677 0.28967 0.0
H1606 H 0.09009 0.72084 0.30357 0.0
H1607 H 0.09584 0.69336 0.30365 0.0
C1608 C 0.8044 0.98603 0.39703 0.0
C1609 C 0.82456 0.00697 0.39037 0.0
C1610 C 0.78368 0.96438 0.38734 0.0
C1611 C 0.78296 0.96394 0.37062 0.0
C1612 C 0.80285 0.98548 0.36387 0.0
C1613 C 0.82354 0.00663 0.37383 0.0
C1614 C 0.76311 0.94155 0.39496 0.0
C1615 C 0.80258 0.98592 0.34611 0.0
C1616 C 0.74805 0.89869 0.34398 0.0
C1617 C 0.72445 0.89725 0.33869 0.0
C1618 C 0.76687 0.91985 0.35479 0.0
C1619 C 0.76222 0.94043 0.36011 0.0
C1620 C 0.73827 0.93894 0.35487 0.0
C1621 C 0.7195 0.91716 0.34432 0.0
C1622 C 0.79178 0.92025 0.36045 0.0
C1623 C 0.73268 0.96056 0.3602 0.0
H1624 H 0.80532 0.98618 0.40983 0.0
H1625 H 0.83901 0.02295 0.36869 0.0
H1626 H 0.74321 0.93741 0.39063 0.0
H1627 H 0.76395 0.9234 0.39153 0.0
H1628 H 0.76582 0.9454 0.40812 0.0
H1629 H 0.81856 0.00487 0.3428 0.0
H1630 H 0.80482 0.96946 0.34074 0.0
H1631 H 0.78349 0.98285 0.34087 0.0
H1632 H 0.75166 0.883 0.33984 0.0
H1633 H 0.70113 0.91589 0.34027 0.0
H1634 H 0.79472 0.92268 0.37361 0.0
H1635 H 0.80888 0.9374 0.35635 0.0
H1636 H 0.79155 0.90185 0.35601 0.0
H1637 H 0.73408 0.9633 0.37335 0.0
H1638 H 0.71291 0.95616 0.35528 0.0
H1639 H 0.74761 0.9796 0.3564 0.0
C1640 C 0.98115 0.75346 0.39675 0.0
C1641 C 0.96812 0.76795 0.39624 0.0
C1642 C 0.00448 0.76166 0.38973 0.0
C1643 C 0.01518 0.78501 0.38207 0.0
C1644 C 0.00255 0.80012 0.38189 0.0
C1645 C 0.97915 0.79139 0.38894 0.0
C1646 C 0.01742 0.74506 0.39023 0.0
C1647 C 0.01343 0.8252 0.3739 0.0
C1648 C 0.08667 0.8174 0.37419 0.0
C1649 C 0.0845 0.80832 0.35811 0.0
C1650 C 0.06432 0.81001 0.38214 0.0
C1651 C 0.03913 0.79315 0.37383 0.0
C1652 C 0.03677 0.78391 0.35763 0.0
C1653 C 0.05946 0.79162 0.34996 0.0
C1654 C 0.06768 0.82029 0.39942 0.0
C1655 C 0.01023 0.76579 0.34839 0.0
H1656 H 0.973 0.73558 0.40259 0.0
H1657 H 0.96909 0.80255 0.38832 0.0
H1658 H 0.01791 0.73757 0.37797 0.0
H1659 H 0.03804 0.75731 0.39569 0.0
H1660 H 0.00702 0.72786 0.39705 0.0
H1661 H 0.00196 0.83535 0.37545 0.0
H1662 H 0.03411 0.83911 0.37879 0.0
H1663 H 0.01332 0.8205 0.36102 0.0
H1664 H 0.10589 0.83034 0.38062 0.0
H1665 H 0.05754 0.78448 0.33757 0.0
H1666 H 0.05832 0.80348 0.40662 0.0
H1667 H 0.05773 0.83197 0.40092 0.0
H1668 H 0.08865 0.83299 0.40422 0.0
H1669 H 0.99956 0.74737 0.35412 0.0
H1670 H 0.01175 0.76035 0.33587 0.0
H1671 H 0.99825 0.77552 0.34845 0.0
C1672 C 0.20812 0.21843 0.38693 0.0
C1673 C 0.21542 0.20412 0.37658 0.0
C1674 C 0.1964 0.23233 0.38104 0.0
C1675 C 0.19197 0.23191 0.36443 0.0
C1676 C 0.1985 0.21679 0.35395 0.0
C1677 C 0.21007 0.20304 0.36015 0.0
C1678 C 0.18961 0.24822 0.39256 0.0
C1679 C 0.19406 0.21585 0.33615 0.0
C1680 C 0.14675 0.25413 0.34646 0.0
C1681 C 0.16488 0.27984 0.34344 0.0
C1682 C 0.15518 0.23846 0.35374 0.0
C1683 C 0.18234 0.24877 0.35791 0.0
C1684 C 0.20064 0.2749 0.35508 0.0
C1685 C 0.19166 0.29011 0.34788 0.0
C1686 C 0.13511 0.21079 0.35675 0.0
C1687 C 0.22977 0.28661 0.35933 0.0
H1688 H 0.21234 0.21946 0.39964 0.0
H1689 H 0.21518 0.19158 0.3521 0.0
H1690 H 0.20233 0.26966 0.39159 0.0
H1691 H 0.16902 0.24327 0.38962 0.0
H1692 H 0.19218 0.24467 0.40505 0.0
H1693 H 0.19893 0.20204 0.32965 0.0
H1694 H 0.17329 0.20959 0.33245 0.0
H1695 H 0.20636 0.23593 0.33254 0.0
H1696 H 0.12599 0.24631 0.34315 0.0
H1697 H 0.2057 0.30999 0.3455 0.0
H1698 H 0.13762 0.20814 0.36942 0.0
H1699 H 0.13808 0.19613 0.34961 0.0
H1700 H 0.11468 0.20634 0.35368 0.0
H1701 H 0.23398 0.2856 0.37209 0.0
H1702 H 0.24128 0.30758 0.35691 0.0
H1703 H 0.23665 0.27492 0.35243 0.0
C1704 C 0.67707 0.5167 0.72815 0.0
C1705 C 0.65699 0.51813 0.73531 0.0
C1706 C 0.69475 0.53735 0.72008 0.0
C1707 C 0.69232 0.56006 0.71908 0.0
C1708 C 0.67191 0.56153 0.7261 0.0
C1709 C 0.65445 0.54052 0.73412 0.0
C1710 C 0.71621 0.53496 0.71272 0.0
C1711 C 0.66883 0.58551 0.72538 0.0
C1712 C 0.75509 0.62141 0.71168 0.0
C1713 C 0.75156 0.62112 0.69516 0.0
C1714 C 0.73548 0.60238 0.71972 0.0
C1715 C 0.71171 0.58244 0.71104 0.0
C1716 C 0.70749 0.58277 0.69448 0.0
C1717 C 0.72745 0.60216 0.68673 0.0
C1718 C 0.74082 0.6029 0.7374 0.0
C1719 C 0.68239 0.56188 0.68482 0.0
H1720 H 0.67889 0.49927 0.72876 0.0
H1721 H 0.63912 0.54186 0.73974 0.0
H1722 H 0.71503 0.53697 0.69985 0.0
H1723 H 0.73569 0.5512 0.71821 0.0
H1724 H 0.71504 0.51573 0.71424 0.0
H1725 H 0.65139 0.5832 0.73093 0.0
H1726 H 0.68657 0.60329 0.73158 0.0
H1727 H 0.66701 0.58921 0.71286 0.0
H1728 H 0.77351 0.63617 0.71834 0.0
H1729 H 0.72453 0.60175 0.67397 0.0
H1730 H 0.74428 0.58643 0.73972 0.0
H1731 H 0.7237 0.60002 0.74351 0.0
H1732 H 0.75833 0.62182 0.7427 0.0
H1733 H 0.68119 0.54235 0.68461 0.0
H1734 H 0.68113 0.56627 0.67239 0.0
H1735 H 0.66513 0.5601 0.69032 0.0
C1736 C 0.43504 0.07777 0.71992 0.0
C1737 C 0.46212 0.09476 0.72375 0.0
C1738 C 0.41916 0.087 0.7134 0.0
C1739 C 0.43071 0.11381 0.71043 0.0
C1740 C 0.45801 0.13117 0.71447 0.0
C1741 C 0.47338 0.12146 0.7212 0.0
C1742 C 0.39007 0.06796 0.70949 0.0
C1743 C 0.47107 0.1598 0.71131 0.0
C1744 C 0.39357 0.12821 0.6783 0.0
C1745 C 0.38118 0.13887 0.68725 0.0
C1746 C 0.41021 0.12056 0.68571 0.0
C1747 C 0.4143 0.1233 0.70249 0.0
C1748 C 0.40201 0.13423 0.71161 0.0
C1749 C 0.38574 0.14205 0.70388 0.0
C1750 C 0.42323 0.10931 0.67556 0.0
C1751 C 0.40562 0.13718 0.72953 0.0
H1752 H 0.42624 0.05719 0.72209 0.0
H1753 H 0.49435 0.13458 0.72407 0.0
H1754 H 0.37882 0.07598 0.71535 0.0
H1755 H 0.38463 0.06558 0.69651 0.0
H1756 H 0.38397 0.04812 0.71329 0.0
H1757 H 0.49233 0.17092 0.71563 0.0
H1758 H 0.46878 0.1609 0.69837 0.0
H1759 H 0.46148 0.16973 0.71713 0.0
H1760 H 0.39036 0.1259 0.66545 0.0
H1761 H 0.37624 0.15026 0.7109 0.0
H1762 H 0.41638 0.08854 0.67779 0.0
H1763 H 0.4448 0.12075 0.67876 0.0
H1764 H 0.41899 0.10962 0.66268 0.0
H1765 H 0.39802 0.1174 0.73375 0.0
H1766 H 0.39531 0.14677 0.73488 0.0
H1767 H 0.42678 0.14913 0.73394 0.0
C1768 C 0.88342 0.36096 0.68818 0.0
C1769 C 0.88372 0.36723 0.70446 0.0
C1770 C 0.87184 0.33454 0.68145 0.0
C1771 C 0.86031 0.31389 0.69124 0.0
C1772 C 0.85991 0.32005 0.70759 0.0
C1773 C 0.87161 0.34666 0.714 0.0
C1774 C 0.8726 0.32875 0.66395 0.0
C1775 C 0.84792 0.29857 0.71841 0.0
C1776 C 0.81512 0.24331 0.67179 0.0
C1777 C 0.83226 0.23333 0.67191 0.0
C1778 C 0.82392 0.26955 0.67807 0.0
C1779 C 0.85042 0.28602 0.68459 0.0
C1780 C 0.86775 0.27595 0.6847 0.0
C1781 C 0.85846 0.24978 0.6783 0.0
C1782 C 0.80492 0.27965 0.67775 0.0
C1783 C 0.89613 0.29283 0.69156 0.0
H1784 H 0.89237 0.37677 0.6807 0.0
H1785 H 0.87198 0.35139 0.72661 0.0
H1786 H 0.88479 0.31944 0.66233 0.0
H1787 H 0.85257 0.31448 0.65816 0.0
H1788 H 0.88083 0.34693 0.65781 0.0
H1789 H 0.8476 0.30653 0.7306 0.0
H1790 H 0.82755 0.28357 0.71351 0.0
H1791 H 0.85928 0.28821 0.71918 0.0
H1792 H 0.79484 0.23059 0.66685 0.0
H1793 H 0.87181 0.24215 0.67835 0.0
H1794 H 0.81219 0.2971 0.67101 0.0
H1795 H 0.80348 0.28628 0.69001 0.0
H1796 H 0.78497 0.26435 0.67226 0.0
H1797 H 0.90613 0.31056 0.68515 0.0
H1798 H 0.90695 0.28189 0.69083 0.0
H1799 H 0.89732 0.29994 0.7042 0.0
C1800 C 0.18875 0.98112 0.6163 0.0
C1801 C 0.18552 0.95967 0.62432 0.0
C1802 C 0.20554 0.00737 0.62306 0.0
C1803 C 0.21903 0.01238 0.63837 0.0
C1804 C 0.21554 0.99092 0.64667 0.0
C1805 C 0.19905 0.96486 0.6395 0.0
C1806 C 0.209 0.02976 0.61377 0.0
C1807 C 0.22936 0.99548 0.6631 0.0
C1808 C 0.28091 0.07887 0.65066 0.0
C1809 C 0.27129 0.09258 0.65952 0.0
C1810 C 0.26405 0.05287 0.64352 0.0
C1811 C 0.23705 0.04011 0.64564 0.0
C1812 C 0.22729 0.05379 0.65474 0.0
C1813 C 0.24452 0.07998 0.66146 0.0
C1814 C 0.27513 0.03911 0.63369 0.0
C1815 C 0.1987 0.04068 0.65748 0.0
H1816 H 0.17807 0.97743 0.60472 0.0
H1817 H 0.19712 0.94855 0.64572 0.0
H1818 H 0.20291 0.04236 0.62044 0.0
H1819 H 0.23002 0.04254 0.61214 0.0
H1820 H 0.19742 0.02253 0.60189 0.0
H1821 H 0.22369 0.97666 0.66823 0.0
H1822 H 0.25091 0.00633 0.6627 0.0
H1823 H 0.22477 0.00797 0.67117 0.0
H1824 H 0.30166 0.08849 0.64927 0.0
H1825 H 0.23705 0.09052 0.66837 0.0
H1826 H 0.26458 0.03252 0.62153 0.0
H1827 H 0.27218 0.02117 0.63898 0.0
H1828 H 0.29642 0.05212 0.6328 0.0
H1829 H 0.18625 0.03461 0.64596 0.0
H1830 H 0.19433 0.05392 0.66503 0.0
H1831 H 0.19306 0.02245 0.66327 0.0
C1832 C 0.00249 0.20115 0.62287 0.0
C1833 C 0.01072 0.21934 0.61162 0.0
C1834 C 0.97898 0.19362 0.62956 0.0
C1835 C 0.96354 0.20484 0.62505 0.0
C1836 C 0.97146 0.22276 0.61343 0.0
C1837 C 0.99491 0.2297 0.60679 0.0
C1838 C 0.97096 0.17411 0.64172 0.0
C1839 C 0.95564 0.23531 0.6084 0.0
C1840 C 0.89285 0.17217 0.63462 0.0
C1841 C 0.89521 0.1874 0.64879 0.0
C1842 C 0.91488 0.17761 0.62673 0.0
C1843 C 0.93985 0.19889 0.6331 0.0
C1844 C 0.94232 0.21447 0.6473 0.0
C1845 C 0.92 0.20847 0.65501 0.0
C1846 C 0.91142 0.16045 0.61164 0.0
C1847 C 0.96859 0.23753 0.65437 0.0
H1848 H 0.01455 0.19291 0.62649 0.0
H1849 H 0.00135 0.24397 0.59821 0.0
H1850 H 0.97105 0.18393 0.65338 0.0
H1851 H 0.95066 0.15744 0.63822 0.0
H1852 H 0.98425 0.16595 0.64319 0.0
H1853 H 0.96387 0.24795 0.59872 0.0
H1854 H 0.93507 0.2198 0.60431 0.0
H1855 H 0.95514 0.24769 0.61871 0.0
H1856 H 0.87378 0.15579 0.62972 0.0
H1857 H 0.92199 0.22041 0.6659 0.0
H1858 H 0.92347 0.15094 0.61316 0.0
H1859 H 0.91841 0.17279 0.60173 0.0
H1860 H 0.89064 0.14472 0.60823 0.0
H1861 H 0.98238 0.23044 0.65736 0.0
H1862 H 0.96708 0.24805 0.66528 0.0
H1863 H 0.97722 0.25188 0.64557 0.0
C1864 C 0.79558 0.81502 0.63028 0.0
C1865 C 0.80345 0.817 0.61495 0.0
C1866 C 0.79471 0.79545 0.63926 0.0
C1867 C 0.80173 0.7773 0.6327 0.0
C1868 C 0.80781 0.77794 0.61681 0.0
C1869 C 0.80868 0.79785 0.60813 0.0
C1870 C 0.78804 0.79538 0.65614 0.0
C1871 C 0.81507 0.75869 0.60935 0.0
C1872 C 0.83611 0.75495 0.6615 0.0
C1873 C 0.81604 0.72948 0.66353 0.0
C1874 C 0.83163 0.77054 0.65144 0.0
C1875 C 0.80642 0.76039 0.64314 0.0
C1876 C 0.78601 0.73463 0.64512 0.0
C1877 C 0.79104 0.71951 0.65544 0.0
C1878 C 0.85394 0.79794 0.6497 0.0
C1879 C 0.75897 0.72309 0.63637 0.0
H1880 H 0.79096 0.82941 0.63549 0.0
H1881 H 0.81488 0.79927 0.59631 0.0
H1882 H 0.7736 0.77503 0.6585 0.0
H1883 H 0.80601 0.80228 0.66444 0.0
H1884 H 0.77991 0.80852 0.65879 0.0
H1885 H 0.8162 0.75971 0.59638 0.0
H1886 H 0.83444 0.76313 0.61503 0.0
H1887 H 0.80055 0.73813 0.6113 0.0
H1888 H 0.85551 0.7627 0.66771 0.0
H1889 H 0.77541 0.69996 0.6572 0.0
H1890 H 0.8485 0.81297 0.65328 0.0
H1891 H 0.85784 0.79952 0.63709 0.0
H1892 H 0.87234 0.80284 0.657 0.0
H1893 H 0.7505 0.73567 0.63965 0.0
H1894 H 0.74542 0.70259 0.639 0.0
H1895 H 0.7602 0.72285 0.62339 0.0
C1896 C 0.98919 0.79731 0.61261 0.0
C1897 C 0.00501 0.78593 0.61072 0.0
C1898 C 0.96523 0.78384 0.6191 0.0
C1899 C 0.95667 0.75819 0.62357 0.0
C1900 C 0.97196 0.74615 0.6211 0.0
C1901 C 0.99601 0.76023 0.61487 0.0
C1902 C 0.94957 0.79743 0.62171 0.0
C1903 C 0.96334 0.71868 0.62553 0.0
C1904 C 0.91289 0.73318 0.65659 0.0
C1905 C 0.8883 0.71594 0.64808 0.0
C1906 C 0.93508 0.7477 0.64871 0.0
C1907 C 0.93274 0.74461 0.63191 0.0
C1908 C 0.9079 0.72757 0.62322 0.0
C1909 C 0.88591 0.71358 0.63142 0.0
C1910 C 0.96115 0.76603 0.6584 0.0
C1911 C 0.90466 0.72356 0.6053 0.0
H1912 H 0.99564 0.81692 0.60917 0.0
H1913 H 0.00816 0.75133 0.61377 0.0
H1914 H 0.92907 0.78461 0.61618 0.0
H1915 H 0.94878 0.80091 0.63462 0.0
H1916 H 0.95815 0.81675 0.61677 0.0
H1917 H 0.97624 0.7112 0.62154 0.0
H1918 H 0.96357 0.71886 0.63861 0.0
H1919 H 0.94292 0.7046 0.62024 0.0
H1920 H 0.91484 0.73537 0.66945 0.0
H1921 H 0.86696 0.70033 0.62475 0.0
H1922 H 0.96993 0.78617 0.65458 0.0
H1923 H 0.97499 0.75881 0.65641 0.0
H1924 H 0.95933 0.76748 0.67132 0.0
H1925 H 0.91168 0.74282 0.6005 0.0
H1926 H 0.88392 0.70991 0.60033 0.0
H1927 H 0.91679 0.71531 0.60108 0.0
C1928 C 0.21627 0.24147 0.61241 0.0
C1929 C 0.18972 0.22285 0.60766 0.0
C1930 C 0.23366 0.23368 0.61845 0.0
C1931 C 0.22425 0.20664 0.62009 0.0
C1932 C 0.1976 0.18766 0.61518 0.0
C1933 C 0.1807 0.19595 0.60892 0.0
C1934 C 0.262 0.25452 0.62344 0.0
C1935 C 0.1868 0.15866 0.61687 0.0
C1936 C 0.27404 0.1841 0.62602 0.0
C1937 C 0.27712 0.18507 0.64261 0.0
C1938 C 0.25678 0.1909 0.61848 0.0
C1939 C 0.24203 0.19853 0.62775 0.0
C1940 C 0.24476 0.19914 0.64447 0.0
C1941 C 0.26238 0.19257 0.65169 0.0
C1942 C 0.25465 0.19033 0.60064 0.0
C1943 C 0.22913 0.20683 0.65475 0.0
H1944 H 0.22342 0.26234 0.61179 0.0
H1945 H 0.16038 0.18133 0.60506 0.0
H1946 H 0.26644 0.25588 0.63646 0.0
H1947 H 0.27516 0.24893 0.61769 0.0
H1948 H 0.26663 0.27439 0.62033 0.0
H1949 H 0.16582 0.14629 0.61203 0.0
H1950 H 0.19827 0.15131 0.61064 0.0
H1951 H 0.18871 0.15597 0.62959 0.0
H1952 H 0.28541 0.17839 0.61891 0.0
H1953 H 0.26444 0.19313 0.6645 0.0
H1954 H 0.26091 0.21051 0.59741 0.0
H1955 H 0.23395 0.17729 0.5955 0.0
H1956 H 0.26689 0.18322 0.59512 0.0
H1957 H 0.23417 0.22748 0.65339 0.0
H1958 H 0.23283 0.20538 0.66752 0.0
H1959 H 0.20784 0.19387 0.65091 0.0
C1960 C 0.82283 0.02109 0.61226 0.0
C1961 C 0.81773 0.9974 0.61819 0.0
C1962 C 0.82232 0.04127 0.62184 0.0
C1963 C 0.81669 0.0377 0.63775 0.0
C1964 C 0.81055 0.01345 0.64362 0.0
C1965 C 0.81113 0.99359 0.63376 0.0
C1966 C 0.82889 0.06681 0.61513 0.0
C1967 C 0.80455 0.00896 0.66053 0.0
C1968 C 0.847 0.10005 0.66681 0.0
C1969 C 0.8257 0.10394 0.66839 0.0
C1970 C 0.84418 0.07834 0.65705 0.0
C1971 C 0.81944 0.06012 0.64863 0.0
C1972 C 0.79769 0.06363 0.65045 0.0
C1973 C 0.80104 0.08543 0.66047 0.0
C1974 C 0.86784 0.07524 0.65549 0.0
C1975 C 0.77111 0.04479 0.6415 0.0
H1976 H 0.82757 0.024 0.60016 0.0
H1977 H 0.80743 0.97545 0.63847 0.0
H1978 H 0.81472 0.07312 0.61818 0.0
H1979 H 0.84865 0.08272 0.62045 0.0
H1980 H 0.82885 0.06498 0.60202 0.0
H1981 H 0.79809 0.98828 0.66286 0.0
H1982 H 0.82234 0.02258 0.66878 0.0
H1983 H 0.78901 0.01347 0.66329 0.0
H1984 H 0.86611 0.11433 0.67295 0.0
H1985 H 0.78448 0.08824 0.6619 0.0
H1986 H 0.87257 0.0766 0.64303 0.0
H1987 H 0.86351 0.05543 0.65849 0.0
H1988 H 0.88542 0.0906 0.66332 0.0
H1989 H 0.77247 0.04523 0.62854 0.0
H1990 H 0.75604 0.04986 0.64459 0.0
H1991 H 0.76451 0.02422 0.64405 0.0
C1992 C 0.46968 0.31668 0.731 0.0
C1993 C 0.48516 0.34128 0.72541 0.0
C1994 C 0.44925 0.29525 0.72105 0.0
C1995 C 0.44429 0.29839 0.70506 0.0
C1996 C 0.45912 0.32341 0.69951 0.0
C1997 C 0.47934 0.34456 0.70976 0.0
C1998 C 0.43377 0.2689 0.72744 0.0
C1999 C 0.45433 0.32757 0.68256 0.0
C2000 C 0.41595 0.23685 0.67541 0.0
C2001 C 0.3894 0.22938 0.67321 0.0
C2002 C 0.43401 0.25944 0.6856 0.0
C2003 C 0.42528 0.27495 0.69381 0.0
C2004 C 0.39853 0.26776 0.69142 0.0
C2005 C 0.38089 0.24508 0.68105 0.0
C2006 C 0.46237 0.26646 0.68778 0.0
C2007 C 0.38849 0.28373 0.70002 0.0
H2008 H 0.47418 0.31381 0.74301 0.0
H2009 H 0.49087 0.36361 0.70542 0.0
H2010 H 0.4124 0.26095 0.72471 0.0
H2011 H 0.43831 0.25436 0.7216 0.0
H2012 H 0.43831 0.27037 0.74048 0.0
H2013 H 0.46605 0.3487 0.68046 0.0
H2014 H 0.45955 0.31572 0.67442 0.0
H2015 H 0.43324 0.3206 0.67942 0.0
H2016 H 0.4226 0.22476 0.66934 0.0
H2017 H 0.36041 0.23949 0.67919 0.0
H2018 H 0.46813 0.26599 0.70038 0.0
H2019 H 0.47524 0.28688 0.68483 0.0
H2020 H 0.46607 0.25267 0.68024 0.0
H2021 H 0.39127 0.28333 0.71301 0.0
H2022 H 0.36735 0.27607 0.6964 0.0
H2023 H 0.39984 0.30474 0.69771 0.0
C2024 C 0.65359 0.08863 0.73525 0.0
C2025 C 0.63711 0.0989 0.73179 0.0
C2026 C 0.67744 0.09785 0.72868 0.0
C2027 C 0.68529 0.11815 0.71859 0.0
C2028 C 0.6694 0.12947 0.71563 0.0
C2029 C 0.64544 0.1196 0.72216 0.0
C2030 C 0.69379 0.08519 0.73209 0.0
C2031 C 0.67726 0.15139 0.70509 0.0
C2032 C 0.75638 0.15419 0.70955 0.0
C2033 C 0.75449 0.14156 0.69446 0.0
C2034 C 0.73405 0.1469 0.71754 0.0
C2035 C 0.70926 0.12635 0.71034 0.0
C2036 C 0.70725 0.11342 0.69517 0.0
C2037 C 0.72984 0.12126 0.6874 0.0
C2038 C 0.73698 0.1613 0.73364 0.0
C2039 C 0.68122 0.09116 0.68718 0.0
H2040 H 0.64767 0.07306 0.74294 0.0
H2041 H 0.63281 0.12752 0.71925 0.0
H2042 H 0.6949 0.075 0.72091 0.0
H2043 H 0.71414 0.10055 0.73678 0.0
H2044 H 0.68558 0.07052 0.74078 0.0
H2045 H 0.66394 0.15964 0.70509 0.0
H2046 H 0.69758 0.16768 0.70903 0.0
H2047 H 0.67698 0.14374 0.69273 0.0
H2048 H 0.77532 0.16995 0.71511 0.0
H2049 H 0.72816 0.11128 0.6758 0.0
H2050 H 0.72949 0.14702 0.74257 0.0
H2051 H 0.72505 0.17108 0.7332 0.0
H2052 H 0.7577 0.17655 0.73772 0.0
H2053 H 0.67266 0.07495 0.69487 0.0
H2054 H 0.68304 0.0829 0.67548 0.0
H2055 H 0.6672 0.09835 0.68541 0.0
C2056 C 0.87317 0.5509 0.72027 0.0
C2057 C 0.8827 0.53865 0.71002 0.0
C2058 C 0.8619 0.56523 0.71441 0.0
C2059 C 0.86015 0.56733 0.69793 0.0
C2060 C 0.86953 0.55483 0.68753 0.0
C2061 C 0.88072 0.54069 0.6937 0.0
C2062 C 0.85208 0.57831 0.72585 0.0
C2063 C 0.86813 0.55674 0.66989 0.0
C2064 C 0.81258 0.58587 0.67903 0.0
C2065 C 0.82938 0.61262 0.67734 0.0
C2066 C 0.82219 0.57099 0.6861 0.0
C2067 C 0.84923 0.58321 0.69153 0.0
C2068 C 0.86615 0.61038 0.6901 0.0
C2069 C 0.85601 0.62474 0.68298 0.0
C2070 C 0.80356 0.54208 0.68747 0.0
C2071 C 0.89508 0.62415 0.69577 0.0
H2072 H 0.87441 0.54917 0.73287 0.0
H2073 H 0.88844 0.53167 0.68574 0.0
H2074 H 0.86291 0.60005 0.7254 0.0
H2075 H 0.83103 0.57113 0.72236 0.0
H2076 H 0.85443 0.57438 0.73828 0.0
H2077 H 0.87563 0.54525 0.66336 0.0
H2078 H 0.84755 0.54932 0.66496 0.0
H2079 H 0.87981 0.57776 0.66764 0.0
H2080 H 0.79194 0.57653 0.67474 0.0
H2081 H 0.86907 0.6454 0.68156 0.0
H2082 H 0.80476 0.53794 0.69995 0.0
H2083 H 0.80923 0.52968 0.68019 0.0
H2084 H 0.78289 0.53594 0.68346 0.0
H2085 H 0.89798 0.62158 0.70841 0.0
H2086 H 0.90527 0.64568 0.69453 0.0
H2087 H 0.90449 0.61507 0.68885 0.0
C2088 C 0.46712 0.93112 0.17801 0.0
C2089 C 0.46416 0.95011 0.18718 0.0
C2090 C 0.47283 0.93419 0.16222 0.0
C2091 C 0.47584 0.95687 0.15553 0.0
C2092 C 0.47186 0.97555 0.16453 0.0
C2093 C 0.46595 0.97187 0.18021 0.0
C2094 C 0.47667 0.91372 0.15293 0.0
C2095 C 0.47486 1.0 0.15781 0.0
C2096 C 0.521 0.98512 0.12356 0.0
C2097 C 0.50307 0.97837 0.11007 0.0
C2098 C 0.51236 0.9774 0.13832 0.0
C2099 C 0.48512 0.96232 0.13961 0.0
C2100 C 0.46694 0.95428 0.12589 0.0
C2101 C 0.47614 0.96251 0.11128 0.0
C2102 C 0.53239 0.98635 0.15268 0.0
C2103 C 0.43775 0.93797 0.12676 0.0
H2104 H 0.46595 0.91434 0.18335 0.0
H2105 H 0.46314 0.98633 0.18712 0.0
H2106 H 0.46504 0.90749 0.14111 0.0
H2107 H 0.49761 0.92246 0.15091 0.0
H2108 H 0.47091 0.89591 0.15921 0.0
H2109 H 0.46972 0.01185 0.16605 0.0
H2110 H 0.49544 0.01272 0.15531 0.0
H2111 H 0.46219 0.99439 0.1464 0.0
H2112 H 0.54186 0.99694 0.12264 0.0
H2113 H 0.46216 0.9574 0.10094 0.0
H2114 H 0.52926 0.96913 0.15889 0.0
H2115 H 0.53001 1.00004 0.16118 0.0
H2116 H 0.55284 0.99668 0.14951 0.0
H2117 H 0.43305 0.92061 0.13326 0.0
H2118 H 0.42645 0.93085 0.11479 0.0
H2119 H 0.43111 0.95009 0.13343 0.0
C2120 C 0.09263 0.56587 0.1785 0.0
C2121 C 0.10773 0.55435 0.18251 0.0
C2122 C 0.08069 0.5617 0.163 0.0
C2123 C 0.08389 0.54558 0.15122 0.0
C2124 C 0.09861 0.53339 0.15525 0.0
C2125 C 0.11037 0.53793 0.17087 0.0
C2126 C 0.06496 0.57487 0.15918 0.0
C2127 C 0.1024 0.51605 0.14299 0.0
C2128 C 0.03487 0.51909 0.11433 0.0
C2129 C 0.04877 0.53735 0.10378 0.0
C2130 C 0.04628 0.52115 0.1297 0.0
C2131 C 0.0722 0.54197 0.13462 0.0
C2132 C 0.08658 0.56008 0.1239 0.0
C2133 C 0.07468 0.55754 0.10858 0.0
C2134 C 0.0304 0.50138 0.14078 0.0
C2135 C 0.11427 0.58256 0.12875 0.0
H2136 H 0.09022 0.57826 0.18752 0.0
H2137 H 0.12224 0.5292 0.17387 0.0
H2138 H 0.07388 0.58848 0.15005 0.0
H2139 H 0.04469 0.55974 0.15416 0.0
H2140 H 0.06391 0.58635 0.16978 0.0
H2141 H 0.11348 0.50716 0.14819 0.0
H2142 H 0.08309 0.49985 0.13725 0.0
H2143 H 0.11319 0.52788 0.13353 0.0
H2144 H 0.01498 0.5032 0.11057 0.0
H2145 H 0.08542 0.57182 0.10051 0.0
H2146 H 0.02729 0.51172 0.15112 0.0
H2147 H 0.04123 0.4919 0.14544 0.0
H2148 H 0.01094 0.48565 0.13488 0.0
H2149 H 0.11433 0.59615 0.13853 0.0
H2150 H 0.12319 0.59414 0.11876 0.0
H2151 H 0.12678 0.57478 0.13328 0.0
C2152 C 0.47153 0.54498 0.18346 0.0
C2153 C 0.46785 0.52273 0.19067 0.0
C2154 C 0.4768 0.54733 0.16757 0.0
C2155 C 0.47826 0.52686 0.15869 0.0
C2156 C 0.47384 0.50402 0.16578 0.0
C2157 C 0.46877 0.50227 0.1817 0.0
C2158 C 0.48158 0.57206 0.16045 0.0
C2159 C 0.47501 0.48167 0.15665 0.0
C2160 C 0.47376 0.5233 0.11367 0.0
C2161 C 0.50025 0.53459 0.11104 0.0
C2162 C 0.46628 0.52078 0.12912 0.0
C2163 C 0.48576 0.5299 0.14224 0.0
C2164 C 0.51252 0.54159 0.13968 0.0
C2165 C 0.51942 0.5437 0.12412 0.0
C2166 C 0.43755 0.50818 0.13139 0.0
C2167 C 0.53387 0.55157 0.15337 0.0
H2168 H 0.47109 0.56095 0.19039 0.0
H2169 H 0.46559 0.48488 0.18719 0.0
H2170 H 0.50206 0.58299 0.1574 0.0
H2171 H 0.46844 0.56676 0.14927 0.0
H2172 H 0.47836 0.58549 0.16866 0.0
H2173 H 0.46978 0.4647 0.16364 0.0
H2174 H 0.46146 0.47453 0.14552 0.0
H2175 H 0.4951 0.48891 0.15324 0.0
H2176 H 0.45886 0.51654 0.10363 0.0
H2177 H 0.53987 0.55204 0.1222 0.0
H2178 H 0.43412 0.52214 0.13892 0.0
H2179 H 0.43145 0.49034 0.13766 0.0
H2180 H 0.42486 0.50228 0.11995 0.0
H2181 H 0.53278 0.56633 0.1617 0.0
H2182 H 0.55379 0.56088 0.14938 0.0
H2183 H 0.53105 0.53493 0.16009 0.0
C2184 C 0.97757 0.50439 0.81423 0.0
C2185 C 0.95448 0.48484 0.80512 0.0
C2186 C 0.98164 0.50366 0.83059 0.0
C2187 C 0.96221 0.48277 0.83799 0.0
C2188 C 0.93865 0.46323 0.82891 0.0
C2189 C 0.93504 0.46455 0.81259 0.0
C2190 C 0.00691 0.52498 0.83991 0.0
C2191 C 0.91758 0.44053 0.83635 0.0
C2192 C 0.98444 0.46487 0.87566 0.0
C2193 C 0.97667 0.47664 0.88746 0.0
C2194 C 0.97971 0.46661 0.85954 0.0
C2195 C 0.96708 0.48065 0.85506 0.0
C2196 C 0.95926 0.49269 0.86688 0.0
C2197 C 0.96408 0.49048 0.88294 0.0
C2198 C 0.98832 0.45348 0.84728 0.0
C2199 C 0.94582 0.5079 0.86255 0.0
H2200 H 0.9925 0.52029 0.80853 0.0
H2201 H 0.91728 0.44925 0.80556 0.0
H2202 H 0.00263 0.53446 0.85014 0.0
H2203 H 0.01817 0.51606 0.84476 0.0
H2204 H 0.01945 0.54055 0.83254 0.0
H2205 H 0.89992 0.42766 0.82781 0.0
H2206 H 0.9254 0.42825 0.84092 0.0
H2207 H 0.9116 0.44821 0.84662 0.0
H2208 H 0.9946 0.45455 0.87904 0.0
H2209 H 0.95773 0.49935 0.89196 0.0
H2210 H 0.00268 0.46855 0.84036 0.0
H2211 H 0.97125 0.43909 0.83879 0.0
H2212 H 0.99747 0.44289 0.85271 0.0
H2213 H 0.9585 0.52433 0.85576 0.0
H2214 H 0.94119 0.5163 0.87316 0.0
H2215 H 0.92731 0.49473 0.85477 0.0
C2216 C 0.54353 0.42663 0.8421 0.0
C2217 C 0.5513 0.44634 0.83179 0.0
C2218 C 0.53366 0.42895 0.85636 0.0
C2219 C 0.53134 0.45145 0.8604 0.0
C2220 C 0.53937 0.47156 0.85014 0.0
C2221 C 0.54927 0.46877 0.83596 0.0
C2222 C 0.52528 0.40706 0.86697 0.0
C2223 C 0.53719 0.49586 0.85405 0.0
C2224 C 0.48121 0.44435 0.88849 0.0
C2225 C 0.49705 0.4566 0.90294 0.0
C2226 C 0.49216 0.44271 0.87456 0.0
C2227 C 0.51962 0.45345 0.87508 0.0
C2228 C 0.53573 0.46572 0.88963 0.0
C2229 C 0.52426 0.4672 0.90337 0.0
C2230 C 0.4743 0.42939 0.85928 0.0
C2231 C 0.56508 0.47736 0.89067 0.0
H2232 H 0.54462 0.40903 0.83886 0.0
H2233 H 0.55551 0.48423 0.82816 0.0
H2234 H 0.53561 0.41529 0.87911 0.0
H2235 H 0.50395 0.39782 0.86796 0.0
H2236 H 0.52935 0.39138 0.86244 0.0
H2237 H 0.54493 0.51002 0.84505 0.0
H2238 H 0.51634 0.48994 0.85481 0.0
H2239 H 0.54811 0.50618 0.86582 0.0
H2240 H 0.46015 0.43579 0.88809 0.0
H2241 H 0.53668 0.47704 0.91443 0.0
H2242 H 0.47597 0.41219 0.85467 0.0
H2243 H 0.48033 0.44336 0.85013 0.0
H2244 H 0.45341 0.42238 0.86084 0.0
H2245 H 0.56966 0.4618 0.88677 0.0
H2246 H 0.57483 0.48615 0.9029 0.0
H2247 H 0.5736 0.49294 0.88257 0.0
C2248 C 0.53688 0.0573 0.83361 0.0
C2249 C 0.51509 0.04817 0.82224 0.0
C2250 C 0.5338 0.05541 0.84984 0.0
C2251 C 0.50832 0.04391 0.85479 0.0
C2252 C 0.48636 0.03538 0.84343 0.0
C2253 C 0.49003 0.03778 0.82734 0.0
C2254 C 0.55772 0.06496 0.86163 0.0
C2255 C 0.45884 0.02296 0.8482 0.0
C2256 C 0.49424 0.00996 0.89241 0.0
C2257 C 0.49222 0.02821 0.90291 0.0
C2258 C 0.50011 0.01514 0.87684 0.0
C2259 C 0.50429 0.03928 0.87167 0.0
C2260 C 0.50309 0.05817 0.88237 0.0
C2261 C 0.4969 0.05233 0.89785 0.0
C2262 C 0.50092 0.99435 0.86575 0.0
C2263 C 0.50781 0.08428 0.87737 0.0
H2264 H 0.5563 0.06518 0.8298 0.0
H2265 H 0.47314 0.03124 0.8187 0.0
H2266 H 0.55792 0.07847 0.87152 0.0
H2267 H 0.55707 0.04784 0.86686 0.0
H2268 H 0.57627 0.0755 0.85608 0.0
H2269 H 0.44396 0.01819 0.83799 0.0
H2270 H 0.45388 0.00442 0.85347 0.0
H2271 H 0.45752 0.03648 0.8574 0.0
H2272 H 0.49036 0.99117 0.89621 0.0
H2273 H 0.49563 0.06661 0.90601 0.0
H2274 H 0.51987 0.00303 0.86058 0.0
H2275 H 0.48514 0.98714 0.85576 0.0
H2276 H 0.49834 0.97713 0.8718 0.0
H2277 H 0.52678 0.09456 0.87227 0.0
H2278 H 0.50801 0.09757 0.88742 0.0
H2279 H 0.4922 0.08074 0.86797 0.0
C2280 C 0.11982 0.29068 0.50871 0.0
C2281 C 0.12301 0.27186 0.51639 0.0
C2282 C 0.12629 0.29536 0.49319 0.0
C2283 C 0.13578 0.28054 0.48501 0.0
C2284 C 0.13742 0.26032 0.49227 0.0
C2285 C 0.13121 0.25635 0.50792 0.0
C2286 C 0.12434 0.31718 0.48588 0.0
C2287 C 0.14702 0.2438 0.48383 0.0
C2288 C 0.14027 0.28709 0.44091 0.0
C2289 C 0.16664 0.30682 0.4409 0.0
C2290 C 0.13006 0.27753 0.4551 0.0
C2291 C 0.14656 0.28821 0.46962 0.0
C2292 C 0.17336 0.30749 0.46961 0.0
C2293 C 0.1831 0.31637 0.45526 0.0
C2294 C 0.10148 0.25666 0.4546 0.0
C2295 C 0.19162 0.31946 0.48485 0.0
H2296 H 0.11289 0.30231 0.515 0.0
H2297 H 0.13394 0.24188 0.51374 0.0
H2298 H 0.14429 0.33341 0.48433 0.0
H2299 H 0.11305 0.30971 0.47396 0.0
H2300 H 0.1148 0.32553 0.49332 0.0
H2301 H 0.14373 0.22661 0.49016 0.0
H2302 H 0.13701 0.23641 0.47157 0.0
H2303 H 0.16835 0.25621 0.48292 0.0
H2304 H 0.12733 0.27975 0.4299 0.0
H2305 H 0.20362 0.33117 0.45532 0.0
H2306 H 0.09078 0.26533 0.46046 0.0
H2307 H 0.09935 0.24017 0.46124 0.0
H2308 H 0.09201 0.24849 0.44226 0.0
H2309 H 0.18458 0.32993 0.49273 0.0
H2310 H 0.21208 0.33375 0.48274 0.0
H2311 H 0.1917 0.30365 0.49127 0.0
C2312 C 0.79652 0.91397 0.5026 0.0
C2313 C 0.78261 0.89606 0.51332 0.0
C2314 C 0.7851 0.91153 0.48716 0.0
C2315 C 0.75912 0.89074 0.48235 0.0
C2316 C 0.74506 0.87241 0.49304 0.0
C2317 C 0.75699 0.87529 0.5084 0.0
C2318 C 0.80068 0.93147 0.47609 0.0
C2319 C 0.71731 0.84997 0.48832 0.0
C2320 C 0.71946 0.89919 0.44886 0.0
C2321 C 0.72051 0.88342 0.43607 0.0
C2322 C 0.73208 0.90186 0.46395 0.0
C2323 C 0.74631 0.88863 0.46629 0.0
C2324 C 0.74796 0.87314 0.45337 0.0
C2325 C 0.73496 0.87065 0.43841 0.0
C2326 C 0.7299 0.91858 0.47745 0.0
C2327 C 0.76308 0.85885 0.4554 0.0
H2328 H 0.81619 0.93028 0.50639 0.0
H2329 H 0.74628 0.86118 0.51657 0.0
H2330 H 0.80163 0.92115 0.46492 0.0
H2331 H 0.79077 0.9426 0.47286 0.0
H2332 H 0.821 0.94586 0.48145 0.0
H2333 H 0.70929 0.83708 0.49792 0.0
H2334 H 0.70438 0.85805 0.48526 0.0
H2335 H 0.71658 0.83762 0.47759 0.0
H2336 H 0.70872 0.90949 0.44708 0.0
H2337 H 0.73562 0.85818 0.42864 0.0
H2338 H 0.74973 0.93451 0.48263 0.0
H2339 H 0.72041 0.90621 0.48701 0.0
H2340 H 0.71832 0.9278 0.47361 0.0
H2341 H 0.78365 0.87312 0.46034 0.0
H2342 H 0.76323 0.84839 0.44403 0.0
H2343 H 0.75429 0.84416 0.464 0.0
C2344 C 0.12978 0.86812 0.51526 0.0
C2345 C 0.12588 0.84561 0.52225 0.0
C2346 C 0.13504 0.87077 0.49939 0.0
C2347 C 0.13632 0.85036 0.4903 0.0
C2348 C 0.13154 0.82721 0.49713 0.0
C2349 C 0.12645 0.82515 0.51305 0.0
C2350 C 0.14019 0.89582 0.49254 0.0
C2351 C 0.13251 0.80493 0.48777 0.0
C2352 C 0.13305 0.84869 0.44536 0.0
C2353 C 0.15964 0.86006 0.44298 0.0
C2354 C 0.12512 0.84546 0.4607 0.0
C2355 C 0.14424 0.85391 0.47396 0.0
C2356 C 0.1711 0.86558 0.47164 0.0
C2357 C 0.17845 0.86842 0.4562 0.0
C2358 C 0.09629 0.83292 0.46271 0.0
C2359 C 0.19209 0.87485 0.48549 0.0
H2360 H 0.12962 0.8841 0.52237 0.0
H2361 H 0.12311 0.80757 0.51836 0.0
H2362 H 0.16081 0.90683 0.48975 0.0
H2363 H 0.12739 0.89094 0.48127 0.0
H2364 H 0.1368 0.90903 0.50083 0.0
H2365 H 0.12674 0.7876 0.49451 0.0
H2366 H 0.11929 0.79837 0.47653 0.0
H2367 H 0.15268 0.81201 0.48457 0.0
H2368 H 0.11842 0.84248 0.43522 0.0
H2369 H 0.19898 0.8768 0.45446 0.0
H2370 H 0.09281 0.84677 0.47031 0.0
H2371 H 0.08988 0.81485 0.46879 0.0
H2372 H 0.0839 0.82742 0.45118 0.0
H2373 H 0.19105 0.8895 0.49394 0.0
H2374 H 0.21214 0.88406 0.48169 0.0
H2375 H 0.1888 0.85787 0.49201 0.0
C2376 C 0.60304 0.81038 0.14693 0.0
C2377 C 0.62515 0.82105 0.13856 0.0
C2378 C 0.60549 0.80879 0.16331 0.0
C2379 C 0.63067 0.81834 0.1715 0.0
C2380 C 0.65311 0.82974 0.16316 0.0
C2381 C 0.65007 0.83085 0.14678 0.0
C2382 C 0.58109 0.79628 0.17177 0.0
C2383 C 0.68032 0.84042 0.17151 0.0
C2384 C 0.64082 0.83327 0.21644 0.0
C2385 C 0.64112 0.81095 0.22119 0.0
C2386 C 0.63719 0.83586 0.20031 0.0
C2387 C 0.63354 0.81553 0.18866 0.0
C2388 C 0.63333 0.79273 0.19337 0.0
C2389 C 0.63725 0.79078 0.20956 0.0
C2390 C 0.63762 0.8605 0.19573 0.0
C2391 C 0.62938 0.77057 0.18129 0.0
H2392 H 0.58373 0.80257 0.14058 0.0
H2393 H 0.66722 0.83941 0.14036 0.0
H2394 H 0.57882 0.77819 0.17655 0.0
H2395 H 0.58284 0.81008 0.182 0.0
H2396 H 0.56308 0.79077 0.16382 0.0
H2397 H 0.69581 0.84969 0.16345 0.0
H2398 H 0.68416 0.85537 0.18161 0.0
H2399 H 0.68186 0.82415 0.17646 0.0
H2400 H 0.64339 0.84876 0.22535 0.0
H2401 H 0.63786 0.77366 0.21308 0.0
H2402 H 0.61907 0.85506 0.18845 0.0
H2403 H 0.65384 0.87108 0.18835 0.0
H2404 H 0.64026 0.8743 0.20624 0.0
H2405 H 0.6109 0.76323 0.1734 0.0
H2406 H 0.62857 0.75366 0.18692 0.0
H2407 H 0.64567 0.77806 0.17368 0.0
C2408 C 0.21445 0.80151 0.16652 0.0
C2409 C 0.21617 0.77892 0.16225 0.0
C2410 C 0.20431 0.80418 0.18062 0.0
C2411 C 0.1957 0.78379 0.1907 0.0
C2412 C 0.19749 0.76102 0.1865 0.0
C2413 C 0.20763 0.75883 0.17233 0.0
C2414 C 0.20268 0.82876 0.1847 0.0
C2415 C 0.18847 0.73882 0.19691 0.0
C2416 C 0.18946 0.79946 0.23385 0.0
C2417 C 0.16235 0.78938 0.23358 0.0
C2418 C 0.20061 0.79783 0.21999 0.0
C2419 C 0.18428 0.78597 0.20548 0.0
C2420 C 0.15693 0.77582 0.2051 0.0
C2421 C 0.14629 0.77756 0.21916 0.0
C2422 C 0.22985 0.80882 0.22089 0.0
C2423 C 0.13886 0.76303 0.18986 0.0
H2424 H 0.22127 0.81724 0.1589 0.0
H2425 H 0.20847 0.74111 0.169 0.0
H2426 H 0.18198 0.82322 0.18566 0.0
H2427 H 0.21392 0.83895 0.19641 0.0
H2428 H 0.21044 0.84291 0.17569 0.0
H2429 H 0.1918 0.72273 0.19214 0.0
H2430 H 0.19901 0.74661 0.20903 0.0
H2431 H 0.16724 0.73024 0.19802 0.0
H2432 H 0.20206 0.80902 0.24487 0.0
H2433 H 0.12529 0.76939 0.21887 0.0
H2434 H 0.2386 0.82447 0.21285 0.0
H2435 H 0.23391 0.79295 0.21684 0.0
H2436 H 0.23979 0.81735 0.23311 0.0
H2437 H 0.14518 0.77713 0.18078 0.0
H2438 H 0.11811 0.75656 0.19152 0.0
H2439 H 0.13992 0.74554 0.18509 0.0
C2440 C 0.15747 0.37546 0.16207 0.0
C2441 C 0.18286 0.38499 0.15766 0.0
C2442 C 0.15247 0.37223 0.17793 0.0
C2443 C 0.17336 0.37871 0.18971 0.0
C2444 C 0.19922 0.38929 0.18545 0.0
C2445 C 0.20367 0.39234 0.16945 0.0
C2446 C 0.12464 0.36104 0.18198 0.0
C2447 C 0.222 0.39644 0.19768 0.0
C2448 C 0.1596 0.38407 0.23258 0.0
C2449 C 0.15203 0.35856 0.23654 0.0
C2450 C 0.16739 0.39126 0.21753 0.0
C2451 C 0.16766 0.37251 0.20622 0.0
C2452 C 0.16085 0.34704 0.21035 0.0
C2453 C 0.15314 0.3404 0.22544 0.0
C2454 C 0.17452 0.41861 0.21357 0.0
C2455 C 0.16103 0.32652 0.19868 0.0
H2456 H 0.14139 0.37024 0.15305 0.0
H2457 H 0.22331 0.39962 0.1661 0.0
H2458 H 0.11774 0.34144 0.18632 0.0
H2459 H 0.12378 0.37419 0.19166 0.0
H2460 H 0.11091 0.35856 0.17161 0.0
H2461 H 0.24114 0.40655 0.19272 0.0
H2462 H 0.2224 0.40954 0.20789 0.0
H2463 H 0.21961 0.37822 0.20233 0.0
H2464 H 0.15869 0.39815 0.24109 0.0
H2465 H 0.14784 0.32084 0.22855 0.0
H2466 H 0.15984 0.41709 0.20415 0.0
H2467 H 0.19387 0.42826 0.20885 0.0
H2468 H 0.17527 0.4315 0.22404 0.0
H2469 H 0.14628 0.32127 0.18833 0.0
H2470 H 0.15655 0.30813 0.20402 0.0
H2471 H 0.18048 0.33466 0.19415 0.0
C2472 C 0.7892 0.59366 0.8408 0.0
C2473 C 0.79347 0.61421 0.85228 0.0
C2474 C 0.7948 0.59847 0.82513 0.0
C2475 C 0.80463 0.62439 0.8208 0.0
C2476 C 0.80821 0.64503 0.83218 0.0
C2477 C 0.80277 0.63974 0.84778 0.0
C2478 C 0.7908 0.57599 0.81332 0.0
C2479 C 0.8185 0.67291 0.82799 0.0
C2480 C 0.84641 0.64723 0.78674 0.0
C2481 C 0.82853 0.64628 0.77474 0.0
C2482 C 0.83862 0.63924 0.80162 0.0
C2483 C 0.81237 0.63035 0.8046 0.0
C2484 C 0.79404 0.62866 0.79238 0.0
C2485 C 0.80234 0.63657 0.77756 0.0
C2486 C 0.85865 0.64099 0.81428 0.0
C2487 C 0.76595 0.6195 0.79515 0.0
H2488 H 0.78163 0.57379 0.84408 0.0
H2489 H 0.80655 0.65586 0.85659 0.0
H2490 H 0.77785 0.57397 0.80267 0.0
H2491 H 0.80991 0.58033 0.8093 0.0
H2492 H 0.78204 0.55678 0.8184 0.0
H2493 H 0.81862 0.68632 0.83793 0.0
H2494 H 0.83882 0.68111 0.82479 0.0
H2495 H 0.80634 0.67284 0.81749 0.0
H2496 H 0.8666 0.65445 0.7845 0.0
H2497 H 0.78855 0.63608 0.76835 0.0
H2498 H 0.85127 0.62168 0.8191 0.0
H2499 H 0.86197 0.65589 0.82428 0.0
H2500 H 0.87776 0.64665 0.80973 0.0
H2501 H 0.75709 0.60023 0.80012 0.0
H2502 H 0.75371 0.61734 0.78407 0.0
H2503 H 0.76541 0.63402 0.80398 0.0
C2504 C 0.43721 0.19907 0.83896 0.0
C2505 C 0.42913 0.20971 0.85119 0.0
C2506 C 0.42569 0.19424 0.82327 0.0
C2507 C 0.40559 0.20014 0.81978 0.0
C2508 C 0.39668 0.20993 0.83218 0.0
C2509 C 0.40862 0.21468 0.84774 0.0
C2510 C 0.43575 0.18385 0.81034 0.0
C2511 C 0.3751 0.21621 0.82892 0.0
C2512 C 0.39582 0.21755 0.77874 0.0
C2513 C 0.37357 0.19404 0.77182 0.0
C2514 C 0.4067 0.21961 0.79425 0.0
C2515 C 0.39497 0.19763 0.80306 0.0
C2516 C 0.37278 0.17366 0.79605 0.0
C2517 C 0.36237 0.17213 0.78046 0.0
C2518 C 0.43052 0.24544 0.8013 0.0
C2519 C 0.35972 0.14987 0.80511 0.0
H2520 H 0.45326 0.19547 0.84156 0.0
H2521 H 0.40213 0.2226 0.85722 0.0
H2522 H 0.41923 0.16614 0.8032 0.0
H2523 H 0.44534 0.19912 0.80217 0.0
H2524 H 0.45014 0.17849 0.81517 0.0
H2525 H 0.36927 0.22203 0.84001 0.0
H2526 H 0.38174 0.23267 0.8214 0.0
H2527 H 0.35756 0.1988 0.82228 0.0
H2528 H 0.40473 0.23439 0.77199 0.0
H2529 H 0.34501 0.154 0.77519 0.0
H2530 H 0.44661 0.24198 0.80542 0.0
H2531 H 0.4257 0.25383 0.81181 0.0
H2532 H 0.43777 0.26034 0.79268 0.0
H2533 H 0.37422 0.14445 0.80958 0.0
H2534 H 0.34326 0.13239 0.79773 0.0
H2535 H 0.35199 0.15477 0.81561 0.0
C2536 C 0.80112 0.16253 0.84875 0.0
C2537 C 0.80121 0.18314 0.8582 0.0
C2538 C 0.80578 0.16464 0.83277 0.0
C2539 C 0.81076 0.188 0.82612 0.0
C2540 C 0.81016 0.20858 0.83547 0.0
C2541 C 0.80533 0.20588 0.85141 0.0
C2542 C 0.80604 0.14218 0.82313 0.0
C2543 C 0.81553 0.23384 0.82882 0.0
C2544 C 0.85163 0.2054 0.79142 0.0
C2545 C 0.83245 0.1973 0.77843 0.0
C2546 C 0.84482 0.20273 0.80698 0.0
C2547 C 0.81814 0.19152 0.80966 0.0
C2548 C 0.79866 0.1834 0.79664 0.0
C2549 C 0.80605 0.18644 0.78118 0.0
C2550 C 0.86618 0.21164 0.82057 0.0
C2551 C 0.77002 0.17135 0.79904 0.0
H2552 H 0.7976 0.14478 0.85391 0.0
H2553 H 0.80569 0.22198 0.85871 0.0
H2554 H 0.79249 0.13586 0.81204 0.0
H2555 H 0.826 0.14897 0.81963 0.0
H2556 H 0.80026 0.12475 0.82978 0.0
H2557 H 0.81269 0.24721 0.83734 0.0
H2558 H 0.83602 0.24456 0.82579 0.0
H2559 H 0.80245 0.22926 0.81771 0.0
H2560 H 0.872 0.21339 0.7894 0.0
H2561 H 0.79115 0.18044 0.77122 0.0
H2562 H 0.86285 0.19452 0.82696 0.0
H2563 H 0.86566 0.2264 0.82921 0.0
H2564 H 0.88604 0.22061 0.8165 0.0
H2565 H 0.7635 0.15314 0.805 0.0
H2566 H 0.75731 0.16618 0.78767 0.0
H2567 H 0.76712 0.18536 0.80691 0.0
C2568 C 0.27702 0.16408 0.48304 0.0
C2569 C 0.28418 0.14965 0.47268 0.0
C2570 C 0.28123 0.16492 0.49957 0.0
C2571 C 0.29266 0.1508 0.50587 0.0
C2572 C 0.29979 0.13609 0.4955 0.0
C2573 C 0.29562 0.13583 0.47906 0.0
C2574 C 0.27354 0.18094 0.51029 0.0
C2575 C 0.31198 0.12073 0.50177 0.0
C2576 C 0.32758 0.16932 0.54763 0.0
C2577 C 0.30883 0.14962 0.55576 0.0
C2578 C 0.32217 0.1706 0.53151 0.0
C2579 C 0.29753 0.15153 0.52332 0.0
C2580 C 0.27823 0.13209 0.53159 0.0
C2581 C 0.28408 0.13144 0.54776 0.0
C2582 C 0.34313 0.19183 0.52314 0.0
C2583 C 0.25181 0.11129 0.52322 0.0
H2584 H 0.2679 0.17457 0.47822 0.0
H2585 H 0.30169 0.12505 0.47118 0.0
H2586 H 0.25896 0.16792 0.51797 0.0
H2587 H 0.29095 0.19621 0.51824 0.0
H2588 H 0.26502 0.19094 0.50352 0.0
H2589 H 0.31575 0.10972 0.4921 0.0
H2590 H 0.33084 0.13444 0.5091 0.0
H2591 H 0.2989 0.10637 0.50954 0.0
H2592 H 0.34661 0.18359 0.55386 0.0
H2593 H 0.26964 0.11606 0.554 0.0
H2594 H 0.33508 0.20262 0.51682 0.0
H2595 H 0.34977 0.18259 0.5141 0.0
H2596 H 0.36044 0.20635 0.53148 0.0
H2597 H 0.2424 0.12076 0.51679 0.0
H2598 H 0.23837 0.09872 0.53157 0.0
H2599 H 0.25443 0.09834 0.51427 0.0
C2600 C 0.87182 0.12589 0.49961 0.0
C2601 C 0.88385 0.11056 0.49773 0.0
C2602 C 0.8629 0.12902 0.5141 0.0
C2603 C 0.86559 0.1161 0.52696 0.0
C2604 C 0.87789 0.1008 0.52523 0.0
C2605 C 0.88711 0.09845 0.51072 0.0
C2606 C 0.8502 0.1458 0.51557 0.0
C2607 C 0.88085 0.08647 0.53861 0.0
C2608 C 0.8597 0.13922 0.56864 0.0
C2609 C 0.83328 0.12143 0.57034 0.0
C2610 C 0.87049 0.1378 0.55459 0.0
C2611 C 0.85464 0.11778 0.54203 0.0
C2612 C 0.82816 0.09941 0.54378 0.0
C2613 C 0.81775 0.10161 0.55783 0.0
C2614 C 0.89876 0.15792 0.55311 0.0
C2615 C 0.81074 0.07752 0.53076 0.0
H2616 H 0.86882 0.13504 0.48965 0.0
H2617 H 0.89687 0.08704 0.50956 0.0
H2618 H 0.82932 0.13324 0.51754 0.0
H2619 H 0.85997 0.16105 0.52599 0.0
H2620 H 0.8511 0.15587 0.50481 0.0
H2621 H 0.89118 0.07564 0.53542 0.0
H2622 H 0.8919 0.10074 0.5493 0.0
H2623 H 0.86121 0.07207 0.54187 0.0
H2624 H 0.87205 0.1543 0.57832 0.0
H2625 H 0.79723 0.08802 0.55888 0.0
H2626 H 0.89979 0.16916 0.54292 0.0
H2627 H 0.90996 0.14776 0.55069 0.0
H2628 H 0.90847 0.17217 0.564 0.0
H2629 H 0.80851 0.08614 0.51995 0.0
H2630 H 0.79091 0.06416 0.53425 0.0
H2631 H 0.81986 0.06551 0.52755 0.0
C2632 C 0.84547 0.73716 0.49979 0.0
C2633 C 0.85457 0.72307 0.49078 0.0
C2634 C 0.84019 0.73245 0.5155 0.0
C2635 C 0.8437 0.71285 0.52225 0.0
C2636 C 0.85385 0.69929 0.5134 0.0
C2637 C 0.85932 0.70469 0.49779 0.0
C2638 C 0.82985 0.74766 0.52463 0.0
C2639 C 0.85755 0.67803 0.5201 0.0
C2640 C 0.84253 0.7079 0.56669 0.0
C2641 C 0.81643 0.688 0.56744 0.0
C2642 C 0.85167 0.71652 0.5521 0.0
C2643 C 0.8344 0.70475 0.53792 0.0
C2644 C 0.80803 0.68483 0.53862 0.0
C2645 C 0.79933 0.67691 0.55334 0.0
C2646 C 0.87983 0.73803 0.55186 0.0
C2647 C 0.78899 0.67167 0.52376 0.0
H2648 H 0.84203 0.75157 0.49442 0.0
H2649 H 0.86614 0.69361 0.4908 0.0
H2650 H 0.80907 0.7341 0.52642 0.0
H2651 H 0.84107 0.75591 0.53656 0.0
H2652 H 0.83095 0.76414 0.51836 0.0
H2653 H 0.86761 0.67089 0.51223 0.0
H2654 H 0.86915 0.68553 0.53194 0.0
H2655 H 0.83814 0.66094 0.52172 0.0
H2656 H 0.85599 0.71644 0.57746 0.0
H2657 H 0.77901 0.66197 0.5538 0.0
H2658 H 0.88059 0.75471 0.546 0.0
H2659 H 0.89025 0.73029 0.54481 0.0
H2660 H 0.89051 0.74576 0.56397 0.0
H2661 H 0.78693 0.68669 0.51756 0.0
H2662 H 0.76924 0.65625 0.52632 0.0
H2663 H 0.79662 0.66232 0.51548 0.0
loop_
_geom_bond_atom_site_label_1
_geom_bond_atom_site_label_2
_geom_bond_distance
_geom_bond_site_symmetry_2
_ccdc_geom_bond_type
P0 O11 1.490 . S
P0 C14 1.812 . S
P0 C20 1.803 . S
P0 C26 1.819 . S
H1 C15 0.941 . S
H2 C16 0.939 . S
H3 C18 0.940 . S
H4 C19 0.940 . S
H5 C21 0.939 . S
H6 C22 0.942 . S
H7 C24 0.940 . S
H8 C25 0.939 . S
H9 C27 0.941 . S
H10 C31 0.939 . S
O11 P0 1.490 . S
H12 C28 0.939 . S
H13 C30 0.940 . S
C14 P0 1.812 . S
C14 C15 1.389 . S
C14 C19 1.391 . S
C15 H1 0.941 . S
C15 C14 1.389 . S
C15 C16 1.397 . S
C16 H2 0.939 . S
C16 C15 1.397 . S
C16 C17 1.378 . S
C17 C16 1.378 . S
C17 C18 1.378 . S
C18 H3 0.940 . S
C18 C17 1.378 . S
C18 C19 1.396 . S
C19 H4 0.940 . S
C19 C14 1.391 . S
C19 C18 1.396 . S
C20 P0 1.803 . S
C20 C21 1.378 . S
C20 C25 1.400 . S
C21 H5 0.939 . S
C21 C20 1.378 . S
C21 C22 1.361 . S
C22 H6 0.942 . S
C22 C21 1.361 . S
C22 C23 1.369 . S
C23 C22 1.369 . S
C23 C24 1.404 . S
C24 H7 0.940 . S
C24 C23 1.404 . S
C24 C25 1.389 . S
C25 H8 0.939 . S
C25 C20 1.400 . S
C25 C24 1.389 . S
C26 P0 1.819 . S
C26 C27 1.391 . S
C26 C31 1.391 . S
C27 H9 0.941 . S
C27 C26 1.391 . S
C27 C28 1.396 . S
C28 H12 0.939 . S
C28 C27 1.396 . S
C28 C29 1.397 . S
C29 C28 1.397 . S
C29 C30 1.385 . S
C30 H13 0.940 . S
C30 C29 1.385 . S
C30 C31 1.388 . S
C31 H10 0.939 . S
C31 C26 1.391 . S
C31 C30 1.388 . S
P32 O43 1.490 . S
P32 C46 1.812 . S
P32 C52 1.803 . S
P32 C58 1.819 . S
H33 C47 0.941 . S
H34 C48 0.939 . S
H35 C50 0.940 . S
H36 C51 0.940 . S
H37 C53 0.939 . S
H38 C54 0.942 . S
H39 C56 0.940 . S
H40 C57 0.939 . S
H41 C59 0.941 . S
H42 C63 0.939 . S
O43 P32 1.490 . S
H44 C60 0.939 . S
H45 C62 0.940 . S
C46 P32 1.812 . S
C46 C47 1.389 . S
C46 C51 1.391 . S
C47 H33 0.941 . S
C47 C46 1.389 . S
C47 C48 1.397 . S
C48 H34 0.939 . S
C48 C47 1.397 . S
C48 C49 1.378 . S
C49 C48 1.378 . S
C49 C50 1.378 . S
C50 H35 0.940 . S
C50 C49 1.378 . S
C50 C51 1.396 . S
C51 H36 0.940 . S
C51 C46 1.391 . S
C51 C50 1.396 . S
C52 P32 1.803 . S
C52 C53 1.378 . S
C52 C57 1.400 . S
C53 H37 0.939 . S
C53 C52 1.378 . S
C53 C54 1.361 . S
C54 H38 0.942 . S
C54 C53 1.361 . S
C54 C55 1.369 . S
C55 C54 1.369 . S
C55 C56 1.404 . S
C56 H39 0.940 . S
C56 C55 1.404 . S
C56 C57 1.389 . S
C57 H40 0.939 . S
C57 C52 1.400 . S
C57 C56 1.389 . S
C58 P32 1.819 . S
C58 C59 1.391 . S
C58 C63 1.391 . S
C59 H41 0.941 . S
C59 C58 1.391 . S
C59 C60 1.396 . S
C60 H44 0.939 . S
C60 C59 1.396 . S
C60 C61 1.397 . S
C61 C60 1.397 . S
C61 C62 1.385 . S
C62 H45 0.940 . S
C62 C61 1.385 . S
C62 C63 1.388 . S
C63 H42 0.939 . S
C63 C58 1.391 . S
C63 C62 1.388 . S
P64 O75 1.490 . S
P64 C78 1.812 . S
P64 C84 1.803 . S
P64 C90 1.819 . S
H65 C79 0.941 . S
H66 C80 0.939 . S
H67 C82 0.940 . S
H68 C83 0.940 . S
H69 C85 0.939 . S
H70 C86 0.942 . S
H71 C88 0.940 . S
H72 C89 0.939 . S
H73 C91 0.941 . S
H74 C95 0.939 . S
O75 P64 1.490 . S
H76 C92 0.939 . S
H77 C94 0.940 . S
C78 P64 1.812 . S
C78 C79 1.389 . S
C78 C83 1.391 . S
C79 H65 0.941 . S
C79 C78 1.389 . S
C79 C80 1.397 . S
C80 H66 0.939 . S
C80 C79 1.397 . S
C80 C81 1.378 . S
C81 C80 1.378 . S
C81 C82 1.378 . S
C82 H67 0.940 . S
C82 C81 1.378 . S
C82 C83 1.396 . S
C83 H68 0.940 . S
C83 C78 1.391 . S
C83 C82 1.396 . S
C84 P64 1.803 . S
C84 C85 1.378 . S
C84 C89 1.400 . S
C85 H69 0.939 . S
C85 C84 1.378 . S
C85 C86 1.361 . S
C86 H70 0.942 . S
C86 C85 1.361 . S
C86 C87 1.369 . S
C87 C86 1.369 . S
C87 C88 1.404 . S
C88 H71 0.940 . S
C88 C87 1.404 . S
C88 C89 1.389 . S
C89 H72 0.939 . S
C89 C84 1.400 . S
C89 C88 1.389 . S
C90 P64 1.819 . S
C90 C91 1.391 . S
C90 C95 1.391 . S
C91 H73 0.941 . S
C91 C90 1.391 . S
C91 C92 1.396 . S
C92 H76 0.939 . S
C92 C91 1.396 . S
C92 C93 1.397 . S
C93 C92 1.397 . S
C93 C94 1.385 . S
C94 H77 0.940 . S
C94 C93 1.385 . S
C94 C95 1.388 . S
C95 H74 0.939 . S
C95 C90 1.391 . S
C95 C94 1.388 . S
P96 O107 1.490 . S
P96 C110 1.812 . S
P96 C116 1.803 . S
P96 C122 1.819 . S
H97 C111 0.941 . S
H98 C112 0.939 . S
H99 C114 0.940 . S
H100 C115 0.940 . S
H101 C117 0.939 . S
H102 C118 0.942 . S
H103 C120 0.940 . S
H104 C121 0.939 . S
H105 C123 0.941 . S
H106 C127 0.939 . S
O107 P96 1.490 . S
H108 C124 0.939 . S
H109 C126 0.940 . S
C110 P96 1.812 . S
C110 C111 1.389 . S
C110 C115 1.391 . S
C111 H97 0.941 . S
C111 C110 1.389 . S
C111 C112 1.397 . S
C112 H98 0.939 . S
C112 C111 1.397 . S
C112 C113 1.378 . S
C113 C112 1.378 . S
C113 C114 1.378 . S
C114 H99 0.940 . S
C114 C113 1.378 . S
C114 C115 1.396 . S
C115 H100 0.940 . S
C115 C110 1.391 . S
C115 C114 1.396 . S
C116 P96 1.803 . S
C116 C117 1.378 . S
C116 C121 1.400 . S
C117 H101 0.939 . S
C117 C116 1.378 . S
C117 C118 1.361 . S
C118 H102 0.942 . S
C118 C117 1.361 . S
C118 C119 1.369 . S
C119 C118 1.369 . S
C119 C120 1.404 . S
C120 H103 0.940 . S
C120 C119 1.404 . S
C120 C121 1.389 . S
C121 H104 0.939 . S
C121 C116 1.400 . S
C121 C120 1.389 . S
C122 P96 1.819 . S
C122 C123 1.391 . S
C122 C127 1.391 . S
C123 H105 0.941 . S
C123 C122 1.391 . S
C123 C124 1.396 . S
C124 H108 0.939 . S
C124 C123 1.396 . S
C124 C125 1.397 . S
C125 C124 1.397 . S
C125 C126 1.385 . S
C126 H109 0.940 . S
C126 C125 1.385 . S
C126 C127 1.388 . S
C127 H106 0.939 . S
C127 C122 1.391 . S
C127 C126 1.388 . S
P128 O139 1.490 . S
P128 C142 1.812 . S
P128 C148 1.803 . S
P128 C154 1.819 . S
H129 C143 0.941 . S
H130 C144 0.939 . S
H131 C146 0.940 . S
H132 C147 0.940 . S
H133 C149 0.939 . S
H134 C150 0.942 . S
H135 C152 0.940 . S
H136 C153 0.939 . S
H137 C155 0.941 . S
H138 C159 0.939 . S
O139 P128 1.490 . S
H140 C156 0.939 . S
H141 C158 0.940 . S
C142 P128 1.812 . S
C142 C143 1.389 . S
C142 C147 1.391 . S
C143 H129 0.941 . S
C143 C142 1.389 . S
C143 C144 1.397 . S
C144 H130 0.939 . S
C144 C143 1.397 . S
C144 C145 1.378 . S
C145 C144 1.378 . S
C145 C146 1.378 . S
C146 H131 0.940 . S
C146 C145 1.378 . S
C146 C147 1.396 . S
C147 H132 0.940 . S
C147 C142 1.391 . S
C147 C146 1.396 . S
C148 P128 1.803 . S
C148 C149 1.378 . S
C148 C153 1.400 . S
C149 H133 0.939 . S
C149 C148 1.378 . S
C149 C150 1.361 . S
C150 H134 0.942 . S
C150 C149 1.361 . S
C150 C151 1.369 . S
C151 C150 1.369 . S
C151 C152 1.404 . S
C152 H135 0.940 . S
C152 C151 1.404 . S
C152 C153 1.389 . S
C153 H136 0.939 . S
C153 C148 1.400 . S
C153 C152 1.389 . S
C154 P128 1.819 . S
C154 C155 1.391 . S
C154 C159 1.391 . S
C155 H137 0.941 . S
C155 C154 1.391 . S
C155 C156 1.396 . S
C156 H140 0.939 . S
C156 C155 1.396 . S
C156 C157 1.397 . S
C157 C156 1.397 . S
C157 C158 1.385 . S
C158 H141 0.940 . S
C158 C157 1.385 . S
C158 C159 1.388 . S
C159 H138 0.939 . S
C159 C154 1.391 . S
C159 C158 1.388 . S
P160 O171 1.490 . S
P160 C174 1.812 . S
P160 C180 1.803 . S
P160 C186 1.819 . S
H161 C175 0.941 . S
H162 C176 0.939 . S
H163 C178 0.940 . S
H164 C179 0.940 . S
H165 C181 0.939 . S
H166 C182 0.942 . S
H167 C184 0.940 . S
H168 C185 0.939 . S
H169 C187 0.941 . S
H170 C191 0.939 . S
O171 P160 1.490 . S
H172 C188 0.939 . S
H173 C190 0.940 . S
C174 P160 1.812 . S
C174 C175 1.389 . S
C174 C179 1.391 . S
C175 H161 0.941 . S
C175 C174 1.389 . S
C175 C176 1.397 . S
C176 H162 0.939 . S
C176 C175 1.397 . S
C176 C177 1.378 . S
C177 C176 1.378 . S
C177 C178 1.378 . S
C178 H163 0.940 . S
C178 C177 1.378 . S
C178 C179 1.396 . S
C179 H164 0.940 . S
C179 C174 1.391 . S
C179 C178 1.396 . S
C180 P160 1.803 . S
C180 C181 1.378 . S
C180 C185 1.400 . S
C181 H165 0.939 . S
C181 C180 1.378 . S
C181 C182 1.361 . S
C182 H166 0.942 . S
C182 C181 1.361 . S
C182 C183 1.369 . S
C183 C182 1.369 . S
C183 C184 1.404 . S
C184 H167 0.940 . S
C184 C183 1.404 . S
C184 C185 1.389 . S
C185 H168 0.939 . S
C185 C180 1.400 . S
C185 C184 1.389 . S
C186 P160 1.819 . S
C186 C187 1.391 . S
C186 C191 1.391 . S
C187 H169 0.941 . S
C187 C186 1.391 . S
C187 C188 1.396 . S
C188 H172 0.939 . S
C188 C187 1.396 . S
C188 C189 1.397 . S
C189 C188 1.397 . S
C189 C190 1.385 . S
C190 H173 0.940 . S
C190 C189 1.385 . S
C190 C191 1.388 . S
C191 H170 0.939 . S
C191 C186 1.391 . S
C191 C190 1.388 . S
P192 O203 1.490 1_655 S
P192 C206 1.812 . S
P192 C212 1.803 . S
P192 C218 1.819 . S
H193 C207 0.941 . S
H194 C208 0.939 . S
H195 C210 0.940 . S
H196 C211 0.940 . S
H197 C213 0.939 1_455 S
H198 C214 0.942 . S
H199 C216 0.940 . S
H200 C217 0.939 . S
H201 C219 0.941 . S
H202 C223 0.939 . S
O203 P192 1.490 1_455 S
H204 C220 0.939 . S
H205 C222 0.940 . S
C206 P192 1.812 . S
C206 C207 1.389 . S
C206 C211 1.391 . S
C207 H193 0.941 . S
C207 C206 1.389 . S
C207 C208 1.397 . S
C208 H194 0.939 . S
C208 C207 1.397 . S
C208 C209 1.378 . S
C209 C208 1.378 . S
C209 C210 1.378 . S
C210 H195 0.940 . S
C210 C209 1.378 . S
C210 C211 1.396 . S
C211 H196 0.940 . S
C211 C206 1.391 . S
C211 C210 1.396 . S
C212 P192 1.803 . S
C212 C213 1.378 . S
C212 C217 1.400 . S
C213 H197 0.939 1_655 S
C213 C212 1.378 . S
C213 C214 1.361 . S
C214 H198 0.942 . S
C214 C213 1.361 . S
C214 C215 1.369 . S
C215 C214 1.369 . S
C215 C216 1.404 . S
C216 H199 0.940 . S
C216 C215 1.404 . S
C216 C217 1.389 . S
C217 H200 0.939 . S
C217 C212 1.400 . S
C217 C216 1.389 . S
C218 P192 1.819 . S
C218 C219 1.391 1_655 S
C218 C223 1.391 . S
C219 H201 0.941 . S
C219 C218 1.391 1_455 S
C219 C220 1.396 . S
C220 H204 0.939 . S
C220 C219 1.396 . S
C220 C221 1.397 1_455 S
C221 C220 1.397 1_655 S
C221 C222 1.385 . S
C222 H205 0.940 . S
C222 C221 1.385 . S
C222 C223 1.388 . S
C223 H202 0.939 . S
C223 C218 1.391 . S
C223 C222 1.388 . S
P224 O235 1.490 . S
P224 C238 1.812 . S
P224 C244 1.803 . S
P224 C250 1.819 . S
H225 C239 0.941 . S
H226 C240 0.939 . S
H227 C242 0.940 . S
H228 C243 0.940 . S
H229 C245 0.939 . S
H230 C246 0.942 . S
H231 C248 0.940 . S
H232 C249 0.939 . S
H233 C251 0.941 . S
H234 C255 0.939 . S
O235 P224 1.490 . S
H236 C252 0.939 . S
H237 C254 0.940 . S
C238 P224 1.812 . S
C238 C239 1.389 . S
C238 C243 1.391 . S
C239 H225 0.941 . S
C239 C238 1.389 . S
C239 C240 1.397 . S
C240 H226 0.939 . S
C240 C239 1.397 . S
C240 C241 1.378 . S
C241 C240 1.378 . S
C241 C242 1.378 . S
C242 H227 0.940 . S
C242 C241 1.378 . S
C242 C243 1.396 . S
C243 H228 0.940 . S
C243 C238 1.391 . S
C243 C242 1.396 . S
C244 P224 1.803 . S
C244 C245 1.378 . S
C244 C249 1.400 . S
C245 H229 0.939 . S
C245 C244 1.378 . S
C245 C246 1.361 . S
C246 H230 0.942 . S
C246 C245 1.361 . S
C246 C247 1.369 . S
C247 C246 1.369 . S
C247 C248 1.404 . S
C248 H231 0.940 . S
C248 C247 1.404 . S
C248 C249 1.389 . S
C249 H232 0.939 . S
C249 C244 1.400 . S
C249 C248 1.389 . S
C250 P224 1.819 . S
C250 C251 1.391 . S
C250 C255 1.391 . S
C251 H233 0.941 . S
C251 C250 1.391 . S
C251 C252 1.396 . S
C252 H236 0.939 . S
C252 C251 1.396 . S
C252 C253 1.397 . S
C253 C252 1.397 . S
C253 C254 1.385 . S
C254 H237 0.940 . S
C254 C253 1.385 . S
C254 C255 1.388 . S
C255 H234 0.939 . S
C255 C250 1.391 . S
C255 C254 1.388 . S
P256 O267 1.490 . S
P256 C270 1.812 . S
P256 C276 1.803 . S
P256 C282 1.819 . S
H257 C271 0.941 . S
H258 C272 0.939 . S
H259 C274 0.940 . S
H260 C275 0.940 . S
H261 C277 0.939 . S
H262 C278 0.942 . S
H263 C280 0.940 . S
H264 C281 0.939 . S
H265 C283 0.941 . S
H266 C287 0.939 . S
O267 P256 1.490 . S
H268 C284 0.939 . S
H269 C286 0.940 . S
C270 P256 1.812 . S
C270 C271 1.389 . S
C270 C275 1.391 . S
C271 H257 0.941 . S
C271 C270 1.389 . S
C271 C272 1.397 . S
C272 H258 0.939 . S
C272 C271 1.397 . S
C272 C273 1.378 . S
C273 C272 1.378 . S
C273 C274 1.378 . S
C274 H259 0.940 . S
C274 C273 1.378 . S
C274 C275 1.396 . S
C275 H260 0.940 . S
C275 C270 1.391 . S
C275 C274 1.396 . S
C276 P256 1.803 . S
C276 C277 1.378 . S
C276 C281 1.400 . S
C277 H261 0.939 . S
C277 C276 1.378 . S
C277 C278 1.361 . S
C278 H262 0.942 . S
C278 C277 1.361 . S
C278 C279 1.369 . S
C279 C278 1.369 . S
C279 C280 1.404 . S
C280 H263 0.940 . S
C280 C279 1.404 . S
C280 C281 1.389 . S
C281 H264 0.939 . S
C281 C276 1.400 . S
C281 C280 1.389 . S
C282 P256 1.819 . S
C282 C283 1.391 . S
C282 C287 1.391 . S
C283 H265 0.941 . S
C283 C282 1.391 . S
C283 C284 1.396 . S
C284 H268 0.939 . S
C284 C283 1.396 . S
C284 C285 1.397 . S
C285 C284 1.397 . S
C285 C286 1.385 . S
C286 H269 0.940 . S
C286 C285 1.385 . S
C286 C287 1.388 . S
C287 H266 0.939 . S
C287 C282 1.391 . S
C287 C286 1.388 . S
P288 O299 1.490 . S
P288 C302 1.812 . S
P288 C308 1.803 . S
P288 C314 1.819 . S
H289 C303 0.941 . S
H290 C304 0.939 . S
H291 C306 0.940 . S
H292 C307 0.940 . S
H293 C309 0.939 . S
H294 C310 0.942 . S
H295 C312 0.940 . S
H296 C313 0.939 . S
H297 C315 0.941 . S
H298 C319 0.939 . S
O299 P288 1.490 . S
H300 C316 0.939 . S
H301 C318 0.940 . S
C302 P288 1.812 . S
C302 C303 1.389 . S
C302 C307 1.391 . S
C303 H289 0.941 . S
C303 C302 1.389 . S
C303 C304 1.397 . S
C304 H290 0.939 . S
C304 C303 1.397 . S
C304 C305 1.378 . S
C305 C304 1.378 . S
C305 C306 1.378 . S
C306 H291 0.940 . S
C306 C305 1.378 . S
C306 C307 1.396 . S
C307 H292 0.940 . S
C307 C302 1.391 . S
C307 C306 1.396 . S
C308 P288 1.803 . S
C308 C309 1.378 . S
C308 C313 1.400 . S
C309 H293 0.939 . S
C309 C308 1.378 . S
C309 C310 1.361 . S
C310 H294 0.942 . S
C310 C309 1.361 . S
C310 C311 1.369 . S
C311 C310 1.369 . S
C311 C312 1.404 . S
C312 H295 0.940 . S
C312 C311 1.404 . S
C312 C313 1.389 . S
C313 H296 0.939 . S
C313 C308 1.400 . S
C313 C312 1.389 . S
C314 P288 1.819 . S
C314 C315 1.391 . S
C314 C319 1.391 . S
C315 H297 0.941 . S
C315 C314 1.391 . S
C315 C316 1.396 . S
C316 H300 0.939 . S
C316 C315 1.396 . S
C316 C317 1.397 . S
C317 C316 1.397 . S
C317 C318 1.385 . S
C318 H301 0.940 . S
C318 C317 1.385 . S
C318 C319 1.388 . S
C319 H298 0.939 . S
C319 C314 1.391 . S
C319 C318 1.388 . S
P320 O331 1.490 . S
P320 C334 1.812 . S
P320 C340 1.803 . S
P320 C346 1.819 . S
H321 C335 0.941 . S
H322 C336 0.939 . S
H323 C338 0.940 . S
H324 C339 0.940 . S
H325 C341 0.939 . S
H326 C342 0.942 . S
H327 C344 0.940 . S
H328 C345 0.939 . S
H329 C347 0.941 . S
H330 C351 0.939 . S
O331 P320 1.490 . S
H332 C348 0.939 . S
H333 C350 0.940 . S
C334 P320 1.812 . S
C334 C335 1.389 . S
C334 C339 1.391 . S
C335 H321 0.941 . S
C335 C334 1.389 . S
C335 C336 1.397 . S
C336 H322 0.939 . S
C336 C335 1.397 . S
C336 C337 1.378 . S
C337 C336 1.378 . S
C337 C338 1.378 . S
C338 H323 0.940 . S
C338 C337 1.378 . S
C338 C339 1.396 . S
C339 H324 0.940 . S
C339 C334 1.391 . S
C339 C338 1.396 . S
C340 P320 1.803 . S
C340 C341 1.378 . S
C340 C345 1.400 . S
C341 H325 0.939 . S
C341 C340 1.378 . S
C341 C342 1.361 . S
C342 H326 0.942 . S
C342 C341 1.361 . S
C342 C343 1.369 . S
C343 C342 1.369 . S
C343 C344 1.404 . S
C344 H327 0.940 . S
C344 C343 1.404 . S
C344 C345 1.389 . S
C345 H328 0.939 . S
C345 C340 1.400 . S
C345 C344 1.389 . S
C346 P320 1.819 . S
C346 C347 1.391 . S
C346 C351 1.391 . S
C347 H329 0.941 . S
C347 C346 1.391 . S
C347 C348 1.396 . S
C348 H332 0.939 . S
C348 C347 1.396 . S
C348 C349 1.397 . S
C349 C348 1.397 . S
C349 C350 1.385 . S
C350 H333 0.940 . S
C350 C349 1.385 . S
C350 C351 1.388 . S
C351 H330 0.939 . S
C351 C346 1.391 . S
C351 C350 1.388 . S
P352 O363 1.490 . S
P352 C366 1.812 . S
P352 C372 1.803 . S
P352 C378 1.819 . S
H353 C367 0.941 . S
H354 C368 0.939 . S
H355 C370 0.940 . S
H356 C371 0.940 . S
H357 C373 0.939 . S
H358 C374 0.942 . S
H359 C376 0.940 . S
H360 C377 0.939 . S
H361 C379 0.941 . S
H362 C383 0.939 . S
O363 P352 1.490 . S
H364 C380 0.939 . S
H365 C382 0.940 . S
C366 P352 1.812 . S
C366 C367 1.389 . S
C366 C371 1.391 . S
C367 H353 0.941 . S
C367 C366 1.389 . S
C367 C368 1.397 . S
C368 H354 0.939 . S
C368 C367 1.397 . S
C368 C369 1.378 . S
C369 C368 1.378 . S
C369 C370 1.378 . S
C370 H355 0.940 . S
C370 C369 1.378 . S
C370 C371 1.396 . S
C371 H356 0.940 . S
C371 C366 1.391 . S
C371 C370 1.396 . S
C372 P352 1.803 . S
C372 C373 1.378 . S
C372 C377 1.400 . S
C373 H357 0.939 . S
C373 C372 1.378 . S
C373 C374 1.361 . S
C374 H358 0.942 . S
C374 C373 1.361 . S
C374 C375 1.369 . S
C375 C374 1.369 . S
C375 C376 1.404 . S
C376 H359 0.940 . S
C376 C375 1.404 . S
C376 C377 1.389 . S
C377 H360 0.939 . S
C377 C372 1.400 . S
C377 C376 1.389 . S
C378 P352 1.819 . S
C378 C379 1.391 . S
C378 C383 1.391 . S
C379 H361 0.941 . S
C379 C378 1.391 . S
C379 C380 1.396 . S
C380 H364 0.939 . S
C380 C379 1.396 . S
C380 C381 1.397 . S
C381 C380 1.397 . S
C381 C382 1.385 . S
C382 H365 0.940 . S
C382 C381 1.385 . S
C382 C383 1.388 . S
C383 H362 0.939 . S
C383 C378 1.391 . S
C383 C382 1.388 . S
P384 O395 1.490 . S
P384 C398 1.812 . S
P384 C404 1.803 . S
P384 C410 1.819 . S
H385 C399 0.941 . S
H386 C400 0.939 . S
H387 C402 0.940 . S
H388 C403 0.940 . S
H389 C405 0.939 . S
H390 C406 0.942 . S
H391 C408 0.940 . S
H392 C409 0.939 . S
H393 C411 0.941 . S
H394 C415 0.939 . S
O395 P384 1.490 . S
H396 C412 0.939 . S
H397 C414 0.940 . S
C398 P384 1.812 . S
C398 C399 1.389 . S
C398 C403 1.391 . S
C399 H385 0.941 . S
C399 C398 1.389 . S
C399 C400 1.397 . S
C400 H386 0.939 . S
C400 C399 1.397 . S
C400 C401 1.378 . S
C401 C400 1.378 . S
C401 C402 1.378 . S
C402 H387 0.940 . S
C402 C401 1.378 . S
C402 C403 1.396 . S
C403 H388 0.940 . S
C403 C398 1.391 . S
C403 C402 1.396 . S
C404 P384 1.803 . S
C404 C405 1.378 . S
C404 C409 1.400 . S
C405 H389 0.939 . S
C405 C404 1.378 . S
C405 C406 1.361 . S
C406 H390 0.942 . S
C406 C405 1.361 . S
C406 C407 1.369 . S
C407 C406 1.369 . S
C407 C408 1.404 . S
C408 H391 0.940 . S
C408 C407 1.404 . S
C408 C409 1.389 . S
C409 H392 0.939 . S
C409 C404 1.400 . S
C409 C408 1.389 . S
C410 P384 1.819 . S
C410 C411 1.391 . S
C410 C415 1.391 . S
C411 H393 0.941 . S
C411 C410 1.391 . S
C411 C412 1.396 . S
C412 H396 0.939 . S
C412 C411 1.396 . S
C412 C413 1.397 . S
C413 C412 1.397 . S
C413 C414 1.385 . S
C414 H397 0.940 . S
C414 C413 1.385 . S
C414 C415 1.388 . S
C415 H394 0.939 . S
C415 C410 1.391 . S
C415 C414 1.388 . S
P416 O427 1.490 . S
P416 C430 1.812 . S
P416 C436 1.803 . S
P416 C442 1.819 . S
H417 C431 0.941 . S
H418 C432 0.939 . S
H419 C434 0.940 . S
H420 C435 0.940 . S
H421 C437 0.939 . S
H422 C438 0.942 . S
H423 C440 0.940 . S
H424 C441 0.939 . S
H425 C443 0.941 . S
H426 C447 0.939 . S
O427 P416 1.490 . S
H428 C444 0.939 . S
H429 C446 0.940 . S
C430 P416 1.812 . S
C430 C431 1.389 . S
C430 C435 1.391 . S
C431 H417 0.941 . S
C431 C430 1.389 . S
C431 C432 1.397 . S
C432 H418 0.939 . S
C432 C431 1.397 . S
C432 C433 1.378 . S
C433 C432 1.378 . S
C433 C434 1.378 . S
C434 H419 0.940 . S
C434 C433 1.378 . S
C434 C435 1.396 . S
C435 H420 0.940 . S
C435 C430 1.391 . S
C435 C434 1.396 . S
C436 P416 1.803 . S
C436 C437 1.378 . S
C436 C441 1.400 . S
C437 H421 0.939 . S
C437 C436 1.378 . S
C437 C438 1.361 . S
C438 H422 0.942 . S
C438 C437 1.361 . S
C438 C439 1.369 . S
C439 C438 1.369 . S
C439 C440 1.404 . S
C440 H423 0.940 . S
C440 C439 1.404 . S
C440 C441 1.389 . S
C441 H424 0.939 . S
C441 C436 1.400 . S
C441 C440 1.389 . S
C442 P416 1.819 . S
C442 C443 1.391 . S
C442 C447 1.391 . S
C443 H425 0.941 . S
C443 C442 1.391 . S
C443 C444 1.396 . S
C444 H428 0.939 . S
C444 C443 1.396 . S
C444 C445 1.397 . S
C445 C444 1.397 . S
C445 C446 1.385 . S
C446 H429 0.940 . S
C446 C445 1.385 . S
C446 C447 1.388 . S
C447 H426 0.939 . S
C447 C442 1.391 . S
C447 C446 1.388 . S
P448 O459 1.490 . S
P448 C462 1.812 . S
P448 C468 1.803 . S
P448 C474 1.819 . S
H449 C463 0.941 . S
H450 C464 0.939 . S
H451 C466 0.940 . S
H452 C467 0.940 . S
H453 C469 0.939 . S
H454 C470 0.942 . S
H455 C472 0.940 . S
H456 C473 0.939 . S
H457 C475 0.941 . S
H458 C479 0.939 . S
O459 P448 1.490 . S
H460 C476 0.939 . S
H461 C478 0.940 . S
C462 P448 1.812 . S
C462 C463 1.389 . S
C462 C467 1.391 . S
C463 H449 0.941 . S
C463 C462 1.389 . S
C463 C464 1.397 . S
C464 H450 0.939 . S
C464 C463 1.397 . S
C464 C465 1.378 . S
C465 C464 1.378 . S
C465 C466 1.378 . S
C466 H451 0.940 . S
C466 C465 1.378 . S
C466 C467 1.396 . S
C467 H452 0.940 . S
C467 C462 1.391 . S
C467 C466 1.396 . S
C468 P448 1.803 . S
C468 C469 1.378 . S
C468 C473 1.400 . S
C469 H453 0.939 . S
C469 C468 1.378 . S
C469 C470 1.361 . S
C470 H454 0.942 . S
C470 C469 1.361 . S
C470 C471 1.369 . S
C471 C470 1.369 . S
C471 C472 1.404 . S
C472 H455 0.940 . S
C472 C471 1.404 . S
C472 C473 1.389 . S
C473 H456 0.939 . S
C473 C468 1.400 . S
C473 C472 1.389 . S
C474 P448 1.819 . S
C474 C475 1.391 . S
C474 C479 1.391 . S
C475 H457 0.941 . S
C475 C474 1.391 . S
C475 C476 1.396 . S
C476 H460 0.939 . S
C476 C475 1.396 . S
C476 C477 1.397 . S
C477 C476 1.397 . S
C477 C478 1.385 . S
C478 H461 0.940 . S
C478 C477 1.385 . S
C478 C479 1.388 . S
C479 H458 0.939 . S
C479 C474 1.391 . S
C479 C478 1.388 . S
P480 O491 1.490 . S
P480 C494 1.812 . S
P480 C500 1.803 . S
P480 C506 1.819 . S
H481 C495 0.941 . S
H482 C496 0.939 . S
H483 C498 0.940 . S
H484 C499 0.940 . S
H485 C501 0.939 . S
H486 C502 0.942 . S
H487 C504 0.940 . S
H488 C505 0.939 . S
H489 C507 0.941 . S
H490 C511 0.939 . S
O491 P480 1.490 . S
H492 C508 0.939 . S
H493 C510 0.940 . S
C494 P480 1.812 . S
C494 C495 1.389 . S
C494 C499 1.391 . S
C495 H481 0.941 . S
C495 C494 1.389 . S
C495 C496 1.397 . S
C496 H482 0.939 . S
C496 C495 1.397 . S
C496 C497 1.378 . S
C497 C496 1.378 . S
C497 C498 1.378 . S
C498 H483 0.940 . S
C498 C497 1.378 . S
C498 C499 1.396 . S
C499 H484 0.940 . S
C499 C494 1.391 . S
C499 C498 1.396 . S
C500 P480 1.803 . S
C500 C501 1.378 . S
C500 C505 1.400 . S
C501 H485 0.939 . S
C501 C500 1.378 . S
C501 C502 1.361 . S
C502 H486 0.942 . S
C502 C501 1.361 . S
C502 C503 1.369 . S
C503 C502 1.369 . S
C503 C504 1.404 . S
C504 H487 0.940 . S
C504 C503 1.404 . S
C504 C505 1.389 . S
C505 H488 0.939 . S
C505 C500 1.400 . S
C505 C504 1.389 . S
C506 P480 1.819 . S
C506 C507 1.391 . S
C506 C511 1.391 . S
C507 H489 0.941 . S
C507 C506 1.391 . S
C507 C508 1.396 . S
C508 H492 0.939 . S
C508 C507 1.396 . S
C508 C509 1.397 . S
C509 C508 1.397 . S
C509 C510 1.385 . S
C510 H493 0.940 . S
C510 C509 1.385 . S
C510 C511 1.388 . S
C511 H490 0.939 . S
C511 C506 1.391 . S
C511 C510 1.388 . S
P512 O523 1.490 . S
P512 C526 1.812 . S
P512 C532 1.803 . S
P512 C538 1.819 . S
H513 C527 0.941 . S
H514 C528 0.939 . S
H515 C530 0.940 . S
H516 C531 0.940 . S
H517 C533 0.939 . S
H518 C534 0.942 . S
H519 C536 0.940 . S
H520 C537 0.939 . S
H521 C539 0.941 . S
H522 C543 0.939 . S
O523 P512 1.490 . S
H524 C540 0.939 . S
H525 C542 0.940 . S
C526 P512 1.812 . S
C526 C527 1.389 . S
C526 C531 1.391 . S
C527 H513 0.941 . S
C527 C526 1.389 . S
C527 C528 1.397 . S
C528 H514 0.939 . S
C528 C527 1.397 . S
C528 C529 1.378 . S
C529 C528 1.378 . S
C529 C530 1.378 . S
C530 H515 0.940 . S
C530 C529 1.378 . S
C530 C531 1.396 . S
C531 H516 0.940 . S
C531 C526 1.391 . S
C531 C530 1.396 . S
C532 P512 1.803 . S
C532 C533 1.378 . S
C532 C537 1.400 . S
C533 H517 0.939 . S
C533 C532 1.378 . S
C533 C534 1.361 . S
C534 H518 0.942 . S
C534 C533 1.361 . S
C534 C535 1.369 . S
C535 C534 1.369 . S
C535 C536 1.404 . S
C536 H519 0.940 . S
C536 C535 1.404 . S
C536 C537 1.389 . S
C537 H520 0.939 . S
C537 C532 1.400 . S
C537 C536 1.389 . S
C538 P512 1.819 . S
C538 C539 1.391 . S
C538 C543 1.391 . S
C539 H521 0.941 . S
C539 C538 1.391 . S
C539 C540 1.396 . S
C540 H524 0.939 . S
C540 C539 1.396 . S
C540 C541 1.397 . S
C541 C540 1.397 . S
C541 C542 1.385 . S
C542 H525 0.940 . S
C542 C541 1.385 . S
C542 C543 1.388 . S
C543 H522 0.939 . S
C543 C538 1.391 . S
C543 C542 1.388 . S
P544 O555 1.490 . S
P544 C558 1.812 . S
P544 C564 1.803 . S
P544 C570 1.819 . S
H545 C559 0.941 . S
H546 C560 0.939 . S
H547 C562 0.940 . S
H548 C563 0.940 . S
H549 C565 0.939 . S
H550 C566 0.942 . S
H551 C568 0.940 . S
H552 C569 0.939 . S
H553 C571 0.941 . S
H554 C575 0.939 . S
O555 P544 1.490 . S
H556 C572 0.939 . S
H557 C574 0.940 . S
C558 P544 1.812 . S
C558 C559 1.389 . S
C558 C563 1.391 . S
C559 H545 0.941 . S
C559 C558 1.389 . S
C559 C560 1.397 . S
C560 H546 0.939 . S
C560 C559 1.397 . S
C560 C561 1.378 . S
C561 C560 1.378 . S
C561 C562 1.378 . S
C562 H547 0.940 . S
C562 C561 1.378 . S
C562 C563 1.396 . S
C563 H548 0.940 . S
C563 C558 1.391 . S
C563 C562 1.396 . S
C564 P544 1.803 . S
C564 C565 1.378 . S
C564 C569 1.400 . S
C565 H549 0.939 . S
C565 C564 1.378 . S
C565 C566 1.361 . S
C566 H550 0.942 . S
C566 C565 1.361 . S
C566 C567 1.369 . S
C567 C566 1.369 . S
C567 C568 1.404 . S
C568 H551 0.940 . S
C568 C567 1.404 . S
C568 C569 1.389 . S
C569 H552 0.939 . S
C569 C564 1.400 . S
C569 C568 1.389 . S
C570 P544 1.819 . S
C570 C571 1.391 . S
C570 C575 1.391 . S
C571 H553 0.941 . S
C571 C570 1.391 . S
C571 C572 1.396 . S
C572 H556 0.939 . S
C572 C571 1.396 . S
C572 C573 1.397 . S
C573 C572 1.397 . S
C573 C574 1.385 . S
C574 H557 0.940 . S
C574 C573 1.385 . S
C574 C575 1.388 . S
C575 H554 0.939 . S
C575 C570 1.391 . S
C575 C574 1.388 . S
C576 Eu577 2.835 . S
C576 C578 1.500 . S
C576 O596 1.257 1_545 S
C576 O597 1.260 . S
Eu577 C576 2.835 . S
Eu577 O596 2.473 1_545 S
Eu577 O597 2.480 . S
Eu577 O598 2.430 . S
Eu577 O599 2.670 1_554 S
Eu577 O600 2.394 1_545 S
Eu577 O605 2.355 1_545 S
Eu577 O607 2.374 . S
C578 C576 1.500 . S
C578 C579 1.377 . S
C578 C583 1.377 1_545 S
C579 C578 1.377 . S
C579 C580 1.395 . S
C579 H608 0.931 . S
C580 C579 1.395 . S
C580 C581 1.383 1_545 S
C580 H609 0.931 . S
C581 C580 1.383 1_565 S
C581 C582 1.394 . S
C582 C581 1.394 . S
C582 C583 1.378 . S
C582 H610 0.931 . S
C583 C578 1.377 1_565 S
C583 C582 1.378 . S
C583 H611 0.931 . S
C584 O598 1.302 . S
C584 O599 1.255 1_554 S
C585 O600 1.251 . S
C585 O601 1.251 1_554 S
C586 Eu587 2.835 . S
C586 C588 1.500 . S
C586 O602 1.257 1_565 S
C586 O603 1.260 . S
Eu587 C586 2.835 . S
Eu587 O599 2.355 1_565 S
Eu587 O601 2.374 . S
Eu587 O602 2.473 1_565 S
Eu587 O603 2.480 . S
Eu587 O604 2.430 . S
Eu587 O605 2.670 1_556 S
Eu587 O606 2.394 1_565 S
C588 C586 1.500 . S
C588 C589 1.377 . S
C588 C593 1.377 1_565 S
C589 C588 1.377 . S
C589 C590 1.395 . S
C589 H612 0.931 . S
C590 C589 1.395 . S
C590 C591 1.383 1_565 S
C590 H613 0.931 . S
C591 C590 1.383 1_545 S
C591 C592 1.394 . S
C592 C591 1.394 . S
C592 C593 1.378 . S
C592 H614 0.931 . S
C593 C588 1.377 1_545 S
C593 C592 1.378 . S
C593 H615 0.931 . S
C594 O604 1.259 1_554 S
C594 O605 1.270 . S
C595 O606 1.251 . S
C595 O607 1.251 1_556 S
O596 C576 1.257 1_565 S
O596 Eu577 2.473 1_565 S
O597 C576 1.260 . S
O597 Eu577 2.480 . S
O598 Eu577 2.430 . S
O598 C584 1.302 . S
O599 Eu577 2.670 1_556 S
O599 C584 1.255 1_556 S
O599 Eu587 2.355 1_545 S
O600 Eu577 2.394 1_565 S
O600 C585 1.251 . S
O601 C585 1.251 1_556 S
O601 Eu587 2.374 . S
O602 C586 1.257 1_545 S
O602 Eu587 2.473 1_545 S
O603 C586 1.260 . S
O603 Eu587 2.480 . S
O604 Eu587 2.430 . S
O604 C594 1.259 1_556 S
O605 Eu577 2.355 1_565 S
O605 Eu587 2.670 1_554 S
O605 C594 1.270 . S
O606 Eu587 2.394 1_545 S
O606 C595 1.251 . S
O607 Eu577 2.374 . S
O607 C595 1.251 1_554 S
H608 C579 0.931 . S
H609 C580 0.931 . S
H610 C582 0.931 . S
H611 C583 0.931 . S
H612 C589 0.931 . S
H613 C590 0.931 . S
H614 C592 0.931 . S
H615 C593 0.931 . S
C616 Eu617 2.835 . S
C616 C618 1.500 1_655 S
C616 O636 1.257 1_655 S
C616 O637 1.260 . S
Eu617 C616 2.835 . S
Eu617 O636 2.473 1_655 S
Eu617 O637 2.480 . S
Eu617 O638 2.430 . S
Eu617 O639 2.670 1_554 S
Eu617 O640 2.394 1_655 S
Eu617 O645 2.355 1_655 S
Eu617 O647 2.374 . S
C618 C616 1.500 1_455 S
C618 C619 1.377 1_455 S
C618 C623 1.377 . S
C619 C618 1.377 1_655 S
C619 C620 1.395 . S
C619 H648 0.931 . S
C620 C619 1.395 . S
C620 C621 1.383 1_655 S
C620 H649 0.931 . S
C621 C620 1.383 1_455 S
C621 C622 1.394 . S
C622 C621 1.394 . S
C622 C623 1.378 . S
C622 H650 0.931 . S
C623 C618 1.377 . S
C623 C622 1.378 . S
C623 H651 0.931 . S
C624 O638 1.259 1_556 S
C624 O639 1.270 . S
C625 O640 1.251 . S
C625 O641 1.251 . S
C626 Eu627 2.835 . S
C626 C628 1.500 1_455 S
C626 O642 1.257 1_455 S
C626 O643 1.260 . S
Eu627 C626 2.835 . S
Eu627 O639 2.355 1_455 S
Eu627 O641 2.374 1_556 S
Eu627 O642 2.473 1_455 S
Eu627 O643 2.480 . S
Eu627 O644 2.430 . S
Eu627 O645 2.670 1_556 S
Eu627 O646 2.394 1_455 S
C628 C626 1.500 1_655 S
C628 C629 1.377 1_655 S
C628 C633 1.377 . S
C629 C628 1.377 1_455 S
C629 C630 1.395 . S
C629 H652 0.931 . S
C630 C629 1.395 . S
C630 C631 1.383 1_455 S
C630 H653 0.931 . S
C631 C630 1.383 1_655 S
C631 C632 1.394 . S
C632 C631 1.394 . S
C632 C633 1.378 . S
C632 H654 0.931 . S
C633 C628 1.377 . S
C633 C632 1.378 . S
C633 H655 0.931 . S
C634 O644 1.259 1_554 S
C634 O645 1.270 . S
C635 O646 1.251 . S
C635 O647 1.251 1_556 S
O636 C616 1.257 1_455 S
O636 Eu617 2.473 1_455 S
O637 C616 1.260 . S
O637 Eu617 2.480 . S
O638 Eu617 2.430 . S
O638 C624 1.259 1_554 S
O639 Eu617 2.670 1_556 S
O639 C624 1.270 . S
O639 Eu627 2.355 1_655 S
O640 Eu617 2.394 1_455 S
O640 C625 1.251 . S
O641 C625 1.251 . S
O641 Eu627 2.374 1_554 S
O642 C626 1.257 1_655 S
O642 Eu627 2.473 1_655 S
O643 C626 1.260 . S
O643 Eu627 2.480 . S
O644 Eu627 2.430 . S
O644 C634 1.259 1_556 S
O645 Eu617 2.355 1_455 S
O645 Eu627 2.670 1_554 S
O645 C634 1.270 . S
O646 Eu627 2.394 1_655 S
O646 C635 1.251 . S
O647 Eu617 2.374 . S
O647 C635 1.251 1_554 S
H648 C619 0.931 . S
H649 C620 0.931 . S
H650 C622 0.931 . S
H651 C623 0.931 . S
H652 C629 0.931 . S
H653 C630 0.931 . S
H654 C632 0.931 . S
H655 C633 0.931 . S
C656 Eu657 2.835 . S
C656 C658 1.500 . S
C656 O676 1.257 . S
C656 O677 1.260 . S
Eu657 C656 2.835 . S
Eu657 O676 2.473 . S
Eu657 O677 2.480 . S
Eu657 O678 2.430 . S
Eu657 O679 2.670 1_556 S
Eu657 O680 2.394 . S
Eu657 O685 2.355 . S
Eu657 O687 2.368 1_556 S
C658 C656 1.500 . S
C658 C659 1.377 . S
C658 C663 1.377 . S
C659 C658 1.377 . S
C659 C660 1.395 . S
C659 H688 0.931 . S
C660 C659 1.395 . S
C660 C661 1.383 . S
C660 H689 0.931 . S
C661 C660 1.383 . S
C661 C662 1.394 . S
C662 C661 1.394 . S
C662 C663 1.378 . S
C662 H690 0.931 . S
C663 C658 1.377 . S
C663 C662 1.378 . S
C663 H691 0.931 . S
C664 O678 1.259 1_554 S
C664 O679 1.270 . S
C665 O680 1.251 . S
C665 O681 1.251 1_556 S
C666 Eu667 2.835 . S
C666 C668 1.500 . S
C666 O682 1.257 . S
C666 O683 1.260 . S
Eu667 C666 2.835 . S
Eu667 O679 2.355 . S
Eu667 O681 2.374 . S
Eu667 O682 2.473 . S
Eu667 O683 2.480 . S
Eu667 O684 2.430 . S
Eu667 O685 2.670 1_554 S
Eu667 O686 2.394 . S
C668 C666 1.500 . S
C668 C669 1.377 . S
C668 C673 1.377 . S
C669 C668 1.377 . S
C669 C670 1.395 . S
C669 H692 0.931 . S
C670 C669 1.395 . S
C670 C671 1.383 . S
C670 H693 0.931 . S
C671 C670 1.383 . S
C671 C672 1.394 . S
C672 C671 1.394 . S
C672 C673 1.378 . S
C672 H694 0.931 . S
C673 C668 1.377 . S
C673 C672 1.378 . S
C673 H695 0.931 . S
C674 O684 1.259 1_556 S
C674 O685 1.270 . S
C675 O686 1.251 . S
C675 O687 1.259 . S
O676 C656 1.257 . S
O676 Eu657 2.473 . S
O677 C656 1.260 . S
O677 Eu657 2.480 . S
O678 Eu657 2.430 . S
O678 C664 1.259 1_556 S
O679 Eu657 2.670 1_554 S
O679 C664 1.270 . S
O679 Eu667 2.355 . S
O680 Eu657 2.394 . S
O680 C665 1.251 . S
O681 C665 1.251 1_554 S
O681 Eu667 2.374 . S
O682 C666 1.257 . S
O682 Eu667 2.473 . S
O683 C666 1.260 . S
O683 Eu667 2.480 . S
O684 Eu667 2.430 . S
O684 C674 1.259 1_554 S
O685 Eu657 2.355 . S
O685 Eu667 2.670 1_556 S
O685 C674 1.270 . S
O686 Eu667 2.394 . S
O686 C675 1.251 . S
O687 Eu657 2.368 1_554 S
O687 C675 1.259 . S
H688 C659 0.931 . S
H689 C660 0.931 . S
H690 C662 0.931 . S
H691 C663 0.931 . S
H692 C669 0.931 . S
H693 C670 0.931 . S
H694 C672 0.931 . S
H695 C673 0.931 . S
C696 Eu697 2.835 . S
C696 C698 1.500 . S
C696 O716 1.257 . S
C696 O717 1.260 . S
Eu697 C696 2.835 . S
Eu697 O716 2.473 . S
Eu697 O717 2.480 . S
Eu697 O718 2.430 . S
Eu697 O719 2.670 . S
Eu697 O720 2.394 . S
Eu697 O725 2.355 . S
Eu697 O727 2.374 . S
C698 C696 1.500 . S
C698 C699 1.377 . S
C698 C703 1.377 . S
C699 C698 1.377 . S
C699 C700 1.395 . S
C699 H728 0.931 . S
C700 C699 1.395 . S
C700 C701 1.383 . S
C700 H729 0.931 . S
C701 C700 1.383 . S
C701 C702 1.394 . S
C702 C701 1.394 . S
C702 C703 1.378 . S
C702 H730 0.931 . S
C703 C698 1.377 . S
C703 C702 1.378 . S
C703 H731 0.931 . S
C704 O718 1.259 . S
C704 O719 1.270 . S
C705 O720 1.251 . S
C705 O721 1.251 . S
C706 Eu707 2.835 . S
C706 C708 1.500 . S
C706 O722 1.257 . S
C706 O723 1.260 . S
Eu707 C706 2.835 . S
Eu707 O719 2.355 . S
Eu707 O721 2.374 . S
Eu707 O722 2.473 . S
Eu707 O723 2.480 . S
Eu707 O724 2.430 . S
Eu707 O725 2.670 . S
Eu707 O726 2.394 . S
C708 C706 1.500 . S
C708 C709 1.377 . S
C708 C713 1.377 . S
C709 C708 1.377 . S
C709 C710 1.395 . S
C709 H732 0.931 . S
C710 C709 1.395 . S
C710 C711 1.383 . S
C710 H733 0.931 . S
C711 C710 1.383 . S
C711 C712 1.394 . S
C712 C711 1.394 . S
C712 C713 1.378 . S
C712 H734 0.931 . S
C713 C708 1.377 . S
C713 C712 1.378 . S
C713 H735 0.931 . S
C714 O724 1.259 . S
C714 O725 1.270 . S
C715 O726 1.251 . S
C715 O727 1.251 . S
O716 C696 1.257 . S
O716 Eu697 2.473 . S
O717 C696 1.260 . S
O717 Eu697 2.480 . S
O718 Eu697 2.430 . S
O718 C704 1.259 . S
O719 Eu697 2.670 . S
O719 C704 1.270 . S
O719 Eu707 2.355 . S
O720 Eu697 2.394 . S
O720 C705 1.251 . S
O721 C705 1.251 . S
O721 Eu707 2.374 . S
O722 C706 1.257 . S
O722 Eu707 2.473 . S
O723 C706 1.260 . S
O723 Eu707 2.480 . S
O724 Eu707 2.430 . S
O724 C714 1.259 . S
O725 Eu697 2.355 . S
O725 Eu707 2.670 . S
O725 C714 1.270 . S
O726 Eu707 2.394 . S
O726 C715 1.251 . S
O727 Eu697 2.374 . S
O727 C715 1.251 . S
H728 C699 0.931 . S
H729 C700 0.931 . S
H730 C702 0.931 . S
H731 C703 0.931 . S
H732 C709 0.931 . S
H733 C710 0.931 . S
H734 C712 0.931 . S
H735 C713 0.931 . S
C736 Eu737 2.835 . S
C736 C738 1.500 . S
C736 O756 1.257 . S
C736 O757 1.260 . S
Eu737 C736 2.835 . S
Eu737 O756 2.473 . S
Eu737 O757 2.480 . S
Eu737 O758 2.430 . S
Eu737 O759 2.670 . S
Eu737 O760 2.394 . S
Eu737 O765 2.355 . S
Eu737 O767 2.374 . S
C738 C736 1.500 . S
C738 C739 1.377 . S
C738 C743 1.377 . S
C739 C738 1.377 . S
C739 C740 1.395 . S
C739 H768 0.931 . S
C740 C739 1.395 . S
C740 C741 1.383 . S
C740 H769 0.931 . S
C741 C740 1.383 . S
C741 C742 1.394 . S
C742 C741 1.394 . S
C742 C743 1.378 . S
C742 H770 0.931 . S
C743 C738 1.377 . S
C743 C742 1.378 . S
C743 H771 0.931 . S
C744 O758 1.259 . S
C744 O759 1.270 . S
C745 O760 1.251 . S
C745 O761 1.251 . S
C746 Eu747 2.835 . S
C746 C748 1.500 . S
C746 O762 1.257 . S
C746 O763 1.260 . S
Eu747 C746 2.835 . S
Eu747 O759 2.355 . S
Eu747 O761 2.374 . S
Eu747 O762 2.473 . S
Eu747 O763 2.480 . S
Eu747 O764 2.430 . S
Eu747 O765 2.670 . S
Eu747 O766 2.394 . S
C748 C746 1.500 . S
C748 C749 1.377 . S
C748 C753 1.377 . S
C749 C748 1.377 . S
C749 C750 1.395 . S
C749 H772 0.931 . S
C750 C749 1.395 . S
C750 C751 1.383 . S
C750 H773 0.931 . S
C751 C750 1.383 . S
C751 C752 1.394 . S
C752 C751 1.394 . S
C752 C753 1.378 . S
C752 H774 0.931 . S
C753 C748 1.377 . S
C753 C752 1.378 . S
C753 H775 0.931 . S
C754 O764 1.259 . S
C754 O765 1.270 . S
C755 O766 1.251 . S
C755 O767 1.251 . S
O756 C736 1.257 . S
O756 Eu737 2.473 . S
O757 C736 1.260 . S
O757 Eu737 2.480 . S
O758 Eu737 2.430 . S
O758 C744 1.259 . S
O759 Eu737 2.670 . S
O759 C744 1.270 . S
O759 Eu747 2.355 . S
O760 Eu737 2.394 . S
O760 C745 1.251 . S
O761 C745 1.251 . S
O761 Eu747 2.374 . S
O762 C746 1.257 . S
O762 Eu747 2.473 . S
O763 C746 1.260 . S
O763 Eu747 2.480 . S
O764 Eu747 2.430 . S
O764 C754 1.259 . S
O765 Eu737 2.355 . S
O765 Eu747 2.670 . S
O765 C754 1.270 . S
O766 Eu747 2.394 . S
O766 C755 1.251 . S
O767 Eu737 2.374 . S
O767 C755 1.251 . S
H768 C739 0.931 . S
H769 C740 0.931 . S
H770 C742 0.931 . S
H771 C743 0.931 . S
H772 C749 0.931 . S
H773 C750 0.931 . S
H774 C752 0.931 . S
H775 C753 0.931 . S
C776 Eu777 2.835 . S
C776 C778 1.500 . S
C776 O796 1.257 . S
C776 O797 1.260 . S
Eu777 C776 2.835 . S
Eu777 O796 2.473 . S
Eu777 O797 2.480 . S
Eu777 O798 2.430 . S
Eu777 O799 2.670 . S
Eu777 O800 2.394 . S
Eu777 O805 2.355 . S
Eu777 O807 2.374 . S
C778 C776 1.500 . S
C778 C779 1.377 . S
C778 C783 1.377 . S
C779 C778 1.377 . S
C779 C780 1.395 . S
C779 H808 0.931 . S
C780 C779 1.395 . S
C780 C781 1.383 . S
C780 H809 0.931 . S
C781 C780 1.383 . S
C781 C782 1.394 . S
C782 C781 1.394 . S
C782 C783 1.378 . S
C782 H810 0.931 . S
C783 C778 1.377 . S
C783 C782 1.378 . S
C783 H811 0.931 . S
C784 O798 1.259 . S
C784 O799 1.270 . S
C785 O800 1.251 . S
C785 O801 1.251 . S
C786 Eu787 2.835 . S
C786 C788 1.500 . S
C786 O802 1.257 . S
C786 O803 1.260 . S
Eu787 C786 2.835 . S
Eu787 O799 2.355 . S
Eu787 O801 2.374 . S
Eu787 O802 2.473 . S
Eu787 O803 2.480 . S
Eu787 O804 2.430 . S
Eu787 O805 2.670 . S
Eu787 O806 2.394 . S
C788 C786 1.500 . S
C788 C789 1.377 . S
C788 C793 1.377 . S
C789 C788 1.377 . S
C789 C790 1.395 . S
C789 H812 0.931 . S
C790 C789 1.395 . S
C790 C791 1.383 . S
C790 H813 0.931 . S
C791 C790 1.383 . S
C791 C792 1.394 . S
C792 C791 1.394 . S
C792 C793 1.378 . S
C792 H814 0.931 . S
C793 C788 1.377 . S
C793 C792 1.378 . S
C793 H815 0.931 . S
C794 O804 1.259 . S
C794 O805 1.270 . S
C795 O806 1.251 . S
C795 O807 1.251 . S
O796 C776 1.257 . S
O796 Eu777 2.473 . S
O797 C776 1.260 . S
O797 Eu777 2.480 . S
O798 Eu777 2.430 . S
O798 C784 1.259 . S
O799 Eu777 2.670 . S
O799 C784 1.270 . S
O799 Eu787 2.355 . S
O800 Eu777 2.394 . S
O800 C785 1.251 . S
O801 C785 1.251 . S
O801 Eu787 2.374 . S
O802 C786 1.257 . S
O802 Eu787 2.473 . S
O803 C786 1.260 . S
O803 Eu787 2.480 . S
O804 Eu787 2.430 . S
O804 C794 1.259 . S
O805 Eu777 2.355 . S
O805 Eu787 2.670 . S
O805 C794 1.270 . S
O806 Eu787 2.394 . S
O806 C795 1.251 . S
O807 Eu777 2.374 . S
O807 C795 1.251 . S
H808 C779 0.931 . S
H809 C780 0.931 . S
H810 C782 0.931 . S
H811 C783 0.931 . S
H812 C789 0.931 . S
H813 C790 0.931 . S
H814 C792 0.931 . S
H815 C793 0.931 . S
C816 Eu817 2.835 . S
C816 C818 1.500 . S
C816 O836 1.257 . S
C816 O837 1.260 . S
Eu817 C816 2.835 . S
Eu817 O836 2.473 . S
Eu817 O837 2.480 . S
Eu817 O838 2.430 . S
Eu817 O839 2.670 . S
Eu817 O840 2.394 . S
Eu817 O845 2.355 . S
Eu817 O847 2.374 . S
C818 C816 1.500 . S
C818 C819 1.377 . S
C818 C823 1.377 . S
C819 C818 1.377 . S
C819 C820 1.395 . S
C819 H848 0.931 . S
C820 C819 1.395 . S
C820 C821 1.383 . S
C820 H849 0.931 . S
C821 C820 1.383 . S
C821 C822 1.394 . S
C822 C821 1.394 . S
C822 C823 1.378 . S
C822 H850 0.931 . S
C823 C818 1.377 . S
C823 C822 1.378 . S
C823 H851 0.931 . S
C824 O838 1.259 . S
C824 O839 1.270 . S
C825 O840 1.251 . S
C825 O841 1.251 . S
C826 Eu827 2.835 . S
C826 C828 1.500 . S
C826 O842 1.257 . S
C826 O843 1.260 . S
Eu827 C826 2.835 . S
Eu827 O839 2.355 . S
Eu827 O841 2.374 . S
Eu827 O842 2.473 . S
Eu827 O843 2.480 . S
Eu827 O844 2.430 . S
Eu827 O845 2.670 . S
Eu827 O846 2.394 . S
C828 C826 1.500 . S
C828 C829 1.377 . S
C828 C833 1.377 . S
C829 C828 1.377 . S
C829 C830 1.395 . S
C829 H852 0.931 . S
C830 C829 1.395 . S
C830 C831 1.383 . S
C830 H853 0.931 . S
C831 C830 1.383 . S
C831 C832 1.394 . S
C832 C831 1.394 . S
C832 C833 1.378 . S
C832 H854 0.931 . S
C833 C828 1.377 . S
C833 C832 1.378 . S
C833 H855 0.931 . S
C834 O844 1.259 . S
C834 O845 1.270 . S
C835 O846 1.251 . S
C835 O847 1.251 . S
O836 C816 1.257 . S
O836 Eu817 2.473 . S
O837 C816 1.260 . S
O837 Eu817 2.480 . S
O838 Eu817 2.430 . S
O838 C824 1.259 . S
O839 Eu817 2.670 . S
O839 C824 1.270 . S
O839 Eu827 2.355 . S
O840 Eu817 2.394 . S
O840 C825 1.251 . S
O841 C825 1.251 . S
O841 Eu827 2.374 . S
O842 C826 1.257 . S
O842 Eu827 2.473 . S
O843 C826 1.260 . S
O843 Eu827 2.480 . S
O844 Eu827 2.430 . S
O844 C834 1.259 . S
O845 Eu817 2.355 . S
O845 Eu827 2.670 . S
O845 C834 1.270 . S
O846 Eu827 2.394 . S
O846 C835 1.251 . S
O847 Eu817 2.374 . S
O847 C835 1.251 . S
H848 C819 0.931 . S
H849 C820 0.931 . S
H850 C822 0.931 . S
H851 C823 0.931 . S
H852 C829 0.931 . S
H853 C830 0.931 . S
H854 C832 0.931 . S
H855 C833 0.931 . S
C856 Eu857 2.835 . S
C856 C858 1.500 . S
C856 O876 1.257 . S
C856 O877 1.260 . S
Eu857 C856 2.835 . S
Eu857 O876 2.473 . S
Eu857 O877 2.480 . S
Eu857 O878 2.430 . S
Eu857 O879 2.670 . S
Eu857 O880 2.394 . S
Eu857 O885 2.355 . S
Eu857 O887 2.374 . S
C858 C856 1.500 . S
C858 C859 1.377 . S
C858 C863 1.377 . S
C859 C858 1.377 . S
C859 C860 1.395 . S
C859 H888 0.931 . S
C860 C859 1.395 . S
C860 C861 1.383 . S
C860 H889 0.931 . S
C861 C860 1.383 . S
C861 C862 1.394 . S
C862 C861 1.394 . S
C862 C863 1.378 . S
C862 H890 0.931 . S
C863 C858 1.377 . S
C863 C862 1.378 . S
C863 H891 0.931 . S
C864 O878 1.259 . S
C864 O879 1.270 . S
C865 O880 1.251 . S
C865 O881 1.251 . S
C866 Eu867 2.835 . S
C866 C868 1.500 . S
C866 O882 1.257 . S
C866 O883 1.260 . S
Eu867 C866 2.835 . S
Eu867 O879 2.355 . S
Eu867 O881 2.374 . S
Eu867 O882 2.473 . S
Eu867 O883 2.480 . S
Eu867 O884 2.430 . S
Eu867 O885 2.670 . S
Eu867 O886 2.394 . S
C868 C866 1.500 . S
C868 C869 1.377 . S
C868 C873 1.377 . S
C869 C868 1.377 . S
C869 C870 1.395 . S
C869 H892 0.931 . S
C870 C869 1.395 . S
C870 C871 1.383 . S
C870 H893 0.931 . S
C871 C870 1.383 . S
C871 C872 1.394 . S
C872 C871 1.394 . S
C872 C873 1.378 . S
C872 H894 0.931 . S
C873 C868 1.377 . S
C873 C872 1.378 . S
C873 H895 0.931 . S
C874 O884 1.259 . S
C874 O885 1.270 . S
C875 O886 1.251 . S
C875 O887 1.251 . S
O876 C856 1.257 . S
O876 Eu857 2.473 . S
O877 C856 1.260 . S
O877 Eu857 2.480 . S
O878 Eu857 2.430 . S
O878 C864 1.259 . S
O879 Eu857 2.670 . S
O879 C864 1.270 . S
O879 Eu867 2.355 . S
O880 Eu857 2.394 . S
O880 C865 1.251 . S
O881 C865 1.251 . S
O881 Eu867 2.374 . S
O882 C866 1.257 . S
O882 Eu867 2.473 . S
O883 C866 1.260 . S
O883 Eu867 2.480 . S
O884 Eu867 2.430 . S
O884 C874 1.259 . S
O885 Eu857 2.355 . S
O885 Eu867 2.670 . S
O885 C874 1.270 . S
O886 Eu867 2.394 . S
O886 C875 1.251 . S
O887 Eu857 2.374 . S
O887 C875 1.251 . S
H888 C859 0.931 . S
H889 C860 0.931 . S
H890 C862 0.931 . S
H891 C863 0.931 . S
H892 C869 0.931 . S
H893 C870 0.931 . S
H894 C872 0.931 . S
H895 C873 0.931 . S
C896 Eu897 2.835 . S
C896 C898 1.500 . S
C896 O916 1.257 . S
C896 O917 1.260 . S
Eu897 C896 2.835 . S
Eu897 O916 2.473 . S
Eu897 O917 2.480 . S
Eu897 O918 2.430 . S
Eu897 O919 2.670 . S
Eu897 O920 2.394 . S
Eu897 O925 2.355 . S
Eu897 O927 2.374 . S
C898 C896 1.500 . S
C898 C899 1.377 . S
C898 C903 1.377 . S
C899 C898 1.377 . S
C899 C900 1.395 . S
C899 H928 0.931 . S
C900 C899 1.395 . S
C900 C901 1.383 . S
C900 H929 0.931 . S
C901 C900 1.383 . S
C901 C902 1.394 . S
C902 C901 1.394 . S
C902 C903 1.378 . S
C902 H930 0.931 . S
C903 C898 1.377 . S
C903 C902 1.378 . S
C903 H931 0.931 . S
C904 O918 1.259 . S
C904 O919 1.270 . S
C905 O920 1.251 . S
C905 O921 1.251 . S
C906 Eu907 2.835 . S
C906 C908 1.500 . S
C906 O922 1.257 . S
C906 O923 1.260 . S
Eu907 C906 2.835 . S
Eu907 O919 2.355 . S
Eu907 O921 2.374 . S
Eu907 O922 2.473 . S
Eu907 O923 2.480 . S
Eu907 O924 2.430 . S
Eu907 O925 2.670 . S
Eu907 O926 2.394 . S
C908 C906 1.500 . S
C908 C909 1.377 . S
C908 C913 1.377 . S
C909 C908 1.377 . S
C909 C910 1.395 . S
C909 H932 0.931 . S
C910 C909 1.395 . S
C910 C911 1.383 . S
C910 H933 0.931 . S
C911 C910 1.383 . S
C911 C912 1.394 . S
C912 C911 1.394 . S
C912 C913 1.378 . S
C912 H934 0.931 . S
C913 C908 1.377 . S
C913 C912 1.378 . S
C913 H935 0.931 . S
C914 O924 1.259 . S
C914 O925 1.270 . S
C915 O926 1.251 . S
C915 O927 1.251 . S
O916 C896 1.257 . S
O916 Eu897 2.473 . S
O917 C896 1.260 . S
O917 Eu897 2.480 . S
O918 Eu897 2.430 . S
O918 C904 1.259 . S
O919 Eu897 2.670 . S
O919 C904 1.270 . S
O919 Eu907 2.355 . S
O920 Eu897 2.394 . S
O920 C905 1.251 . S
O921 C905 1.251 . S
O921 Eu907 2.374 . S
O922 C906 1.257 . S
O922 Eu907 2.473 . S
O923 C906 1.260 . S
O923 Eu907 2.480 . S
O924 Eu907 2.430 . S
O924 C914 1.259 . S
O925 Eu897 2.355 . S
O925 Eu907 2.670 . S
O925 C914 1.270 . S
O926 Eu907 2.394 . S
O926 C915 1.251 . S
O927 Eu897 2.374 . S
O927 C915 1.251 . S
H928 C899 0.931 . S
H929 C900 0.931 . S
H930 C902 0.931 . S
H931 C903 0.931 . S
H932 C909 0.931 . S
H933 C910 0.931 . S
H934 C912 0.931 . S
H935 C913 0.931 . S
C936 C937 1.391 . S
C936 C938 1.394 . S
C936 H952 0.931 . S
C937 C936 1.391 . S
C937 C941 1.376 . S
C938 C936 1.394 . S
C938 C939 1.369 . S
C938 C942 1.531 . S
C939 C938 1.369 . S
C939 C940 1.410 . S
C939 C947 1.503 . S
C940 C939 1.410 . S
C940 C941 1.392 . S
C940 C943 1.511 . S
C941 C937 1.376 . S
C941 C940 1.392 . S
C941 H953 0.929 . S
C942 C938 1.531 . S
C942 H954 0.960 . S
C942 H955 0.962 . S
C942 H956 0.960 . S
C943 C940 1.511 . S
C943 H957 0.961 . S
C943 H958 0.961 . S
C943 H959 0.961 . S
C944 C945 1.370 . S
C944 C946 1.363 . S
C944 H960 0.863 1_554 S
C945 C944 1.370 . S
C945 C949 1.408 . S
C946 C944 1.363 . S
C946 C947 1.370 . S
C946 C950 1.524 . S
C947 C939 1.503 . S
C947 C946 1.370 . S
C947 C948 1.403 . S
C948 C947 1.403 . S
C948 C949 1.404 . S
C948 C951 1.539 . S
C949 C945 1.408 . S
C949 C948 1.404 . S
C949 H961 0.930 . S
C950 C946 1.524 . S
C950 H962 0.956 . S
C950 H963 0.961 . S
C950 H964 0.961 1_554 S
C951 C948 1.539 . S
C951 H965 0.958 . S
C951 H966 0.961 . S
C951 H967 0.960 . S
H952 C936 0.931 . S
H953 C941 0.929 . S
H954 C942 0.960 . S
H955 C942 0.962 . S
H956 C942 0.960 . S
H957 C943 0.961 . S
H958 C943 0.961 . S
H959 C943 0.961 . S
H960 C944 0.863 1_556 S
H961 C949 0.930 . S
H962 C950 0.956 . S
H963 C950 0.961 . S
H964 C950 0.961 1_556 S
H965 C951 0.958 . S
H966 C951 0.961 . S
H967 C951 0.960 . S
C968 C969 1.391 . S
C968 C970 1.394 . S
C968 H984 0.931 . S
C969 C968 1.391 . S
C969 C973 1.376 . S
C970 C968 1.394 . S
C970 C971 1.369 . S
C970 C974 1.531 . S
C971 C970 1.369 . S
C971 C972 1.410 . S
C971 C979 1.503 . S
C972 C971 1.410 . S
C972 C973 1.392 . S
C972 C975 1.511 . S
C973 C969 1.376 . S
C973 C972 1.392 . S
C973 H985 0.929 . S
C974 C970 1.531 . S
C974 H986 0.960 . S
C974 H987 0.962 . S
C974 H988 0.960 . S
C975 C972 1.511 . S
C975 H989 0.961 . S
C975 H990 0.961 . S
C975 H991 0.961 . S
C976 C977 1.370 . S
C976 C978 1.363 . S
C976 H992 0.931 . S
C977 C976 1.370 . S
C977 C981 1.408 . S
C978 C976 1.363 . S
C978 C979 1.370 . S
C978 C982 1.524 . S
C979 C971 1.503 . S
C979 C978 1.370 . S
C979 C980 1.403 . S
C980 C979 1.403 . S
C980 C981 1.404 . S
C980 C983 1.539 . S
C981 C977 1.408 . S
C981 C980 1.404 . S
C981 H993 0.930 . S
C982 C978 1.524 . S
C982 H994 0.956 . S
C982 H995 0.961 . S
C982 H996 0.961 . S
C983 C980 1.539 . S
C983 H997 0.958 . S
C983 H998 0.961 . S
C983 H999 0.960 . S
H984 C968 0.931 . S
H985 C973 0.929 . S
H986 C974 0.960 . S
H987 C974 0.962 . S
H988 C974 0.960 . S
H989 C975 0.961 . S
H990 C975 0.961 . S
H991 C975 0.961 . S
H992 C976 0.931 . S
H993 C981 0.930 . S
H994 C982 0.956 . S
H995 C982 0.961 . S
H996 C982 0.961 . S
H997 C983 0.958 . S
H998 C983 0.961 . S
H999 C983 0.960 . S
C1000 C1001 1.391 . S
C1000 C1002 1.394 . S
C1000 H1016 0.931 . S
C1001 C1000 1.391 . S
C1001 C1005 1.376 . S
C1002 C1000 1.394 . S
C1002 C1003 1.369 . S
C1002 C1006 1.531 . S
C1003 C1002 1.369 . S
C1003 C1004 1.410 . S
C1003 C1011 1.503 . S
C1004 C1003 1.410 . S
C1004 C1005 1.392 . S
C1004 C1007 1.511 1_554 S
C1005 C1001 1.376 . S
C1005 C1004 1.392 . S
C1005 H1017 0.929 . S
C1006 C1002 1.531 . S
C1006 H1018 0.960 . S
C1006 H1019 0.962 . S
C1006 H1020 0.960 . S
C1007 C1004 1.511 1_556 S
C1007 H1021 0.961 . S
C1007 H1022 0.961 . S
C1007 H1023 0.961 . S
C1008 C1009 1.370 . S
C1008 C1010 1.363 . S
C1008 H1024 0.931 . S
C1009 C1008 1.370 . S
C1009 C1013 1.408 . S
C1010 C1008 1.363 . S
C1010 C1011 1.370 . S
C1010 C1014 1.524 . S
C1011 C1003 1.503 . S
C1011 C1010 1.370 . S
C1011 C1012 1.403 . S
C1012 C1011 1.403 . S
C1012 C1013 1.404 . S
C1012 C1015 1.539 . S
C1013 C1009 1.408 . S
C1013 C1012 1.404 . S
C1013 H1025 0.930 . S
C1014 C1010 1.524 . S
C1014 H1026 0.956 . S
C1014 H1027 0.961 . S
C1014 H1028 0.961 . S
C1015 C1012 1.539 . S
C1015 H1029 0.958 . S
C1015 H1030 0.961 1_554 S
C1015 H1031 0.960 . S
H1016 C1000 0.931 . S
H1017 C1005 0.929 . S
H1018 C1006 0.960 . S
H1019 C1006 0.962 . S
H1020 C1006 0.960 . S
H1021 C1007 0.961 . S
H1022 C1007 0.961 . S
H1023 C1007 0.961 . S
H1024 C1008 0.931 . S
H1025 C1013 0.930 . S
H1026 C1014 0.956 . S
H1027 C1014 0.961 . S
H1028 C1014 0.961 . S
H1029 C1015 0.958 . S
H1030 C1015 0.961 1_556 S
H1031 C1015 0.960 . S
C1032 C1033 1.391 . S
C1032 C1034 1.394 . S
C1032 H1048 0.931 . S
C1033 C1032 1.391 . S
C1033 C1037 1.376 . S
C1034 C1032 1.394 . S
C1034 C1035 1.369 . S
C1034 C1038 1.531 . S
C1035 C1034 1.369 . S
C1035 C1036 1.410 . S
C1035 C1043 1.503 . S
C1036 C1035 1.410 . S
C1036 C1037 1.392 . S
C1036 C1039 1.511 . S
C1037 C1033 1.376 . S
C1037 C1036 1.392 . S
C1037 H1049 0.929 . S
C1038 C1034 1.531 . S
C1038 H1050 0.960 . S
C1038 H1051 0.931 1_556 S
C1038 H1052 0.960 . S
C1039 C1036 1.511 . S
C1039 H1053 0.961 . S
C1039 H1054 0.961 . S
C1039 H1055 0.961 . S
C1040 C1041 1.370 . S
C1040 C1042 1.363 . S
C1040 H1056 0.931 1_556 S
C1041 C1040 1.370 . S
C1041 C1045 1.408 . S
C1042 C1040 1.363 . S
C1042 C1043 1.370 . S
C1042 C1046 1.524 1_556 S
C1043 C1035 1.503 . S
C1043 C1042 1.370 . S
C1043 C1044 1.403 . S
C1044 C1043 1.403 . S
C1044 C1045 1.404 . S
C1044 C1047 1.539 . S
C1045 C1041 1.408 . S
C1045 C1044 1.404 . S
C1045 H1057 0.930 . S
C1046 C1042 1.524 1_554 S
C1046 H1058 0.956 . S
C1046 H1059 0.961 1_554 S
C1046 H1060 0.961 . S
C1047 C1044 1.539 . S
C1047 H1061 0.958 . S
C1047 H1062 0.961 . S
C1047 H1063 0.960 . S
H1048 C1032 0.931 . S
H1049 C1037 0.929 . S
H1050 C1038 0.960 . S
H1051 C1038 0.931 1_554 S
H1052 C1038 0.960 . S
H1053 C1039 0.961 . S
H1054 C1039 0.961 . S
H1055 C1039 0.961 . S
H1056 C1040 0.931 1_554 S
H1057 C1045 0.930 . S
H1058 C1046 0.956 . S
H1059 C1046 0.961 1_556 S
H1060 C1046 0.961 . S
H1061 C1047 0.958 . S
H1062 C1047 0.961 . S
H1063 C1047 0.960 . S
C1064 C1065 1.391 . S
C1064 C1066 1.394 . S
C1064 H1080 0.931 . S
C1065 C1064 1.391 . S
C1065 C1069 1.376 . S
C1066 C1064 1.394 . S
C1066 C1067 1.369 . S
C1066 C1070 1.531 . S
C1067 C1066 1.369 . S
C1067 C1068 1.410 . S
C1067 C1075 1.503 . S
C1068 C1067 1.410 . S
C1068 C1069 1.392 . S
C1068 C1071 1.511 . S
C1069 C1065 1.376 . S
C1069 C1068 1.392 . S
C1069 H1081 0.929 . S
C1070 C1066 1.531 . S
C1070 H1082 0.960 . S
C1070 H1083 0.962 . S
C1070 H1084 0.960 . S
C1071 C1068 1.511 . S
C1071 H1085 0.961 . S
C1071 H1086 0.961 . S
C1071 H1087 0.961 . S
C1072 C1073 1.370 . S
C1072 C1074 1.363 . S
C1072 H1088 0.931 . S
C1073 C1072 1.370 . S
C1073 C1077 1.408 . S
C1074 C1072 1.363 . S
C1074 C1075 1.370 . S
C1074 C1078 1.524 . S
C1075 C1067 1.503 . S
C1075 C1074 1.370 . S
C1075 C1076 1.403 . S
C1076 C1075 1.403 . S
C1076 C1077 1.404 . S
C1076 C1079 1.539 . S
C1077 C1073 1.408 . S
C1077 C1076 1.404 . S
C1077 H1089 0.930 . S
C1078 C1074 1.524 . S
C1078 H1090 0.956 . S
C1078 H1091 0.961 . S
C1078 H1092 0.961 . S
C1079 C1076 1.539 . S
C1079 H1093 0.958 . S
C1079 H1094 0.961 . S
C1079 H1095 0.960 . S
H1080 C1064 0.931 . S
H1081 C1069 0.929 . S
H1082 C1070 0.960 . S
H1083 C1070 0.962 . S
H1084 C1070 0.960 . S
H1085 C1071 0.961 . S
H1086 C1071 0.961 . S
H1087 C1071 0.961 . S
H1088 C1072 0.931 . S
H1089 C1077 0.930 . S
H1090 C1078 0.956 . S
H1091 C1078 0.961 . S
H1092 C1078 0.961 . S
H1093 C1079 0.958 . S
H1094 C1079 0.961 . S
H1095 C1079 0.960 . S
C1096 C1097 1.391 . S
C1096 C1098 1.394 . S
C1096 H1112 0.931 . S
C1097 C1096 1.391 . S
C1097 C1101 1.376 . S
C1098 C1096 1.394 . S
C1098 C1099 1.369 . S
C1098 C1102 1.531 . S
C1099 C1098 1.369 . S
C1099 C1100 1.410 . S
C1099 C1107 1.503 . S
C1100 C1099 1.410 . S
C1100 C1101 1.392 . S
C1100 C1103 1.511 1_556 S
C1101 C1097 1.376 . S
C1101 C1100 1.392 . S
C1101 H1113 0.929 . S
C1102 C1098 1.531 . S
C1102 H1114 0.960 . S
C1102 H1115 0.962 . S
C1102 H1116 0.960 . S
C1103 C1100 1.511 1_554 S
C1103 H1117 0.961 . S
C1103 H1118 0.961 . S
C1103 H1119 0.961 . S
C1104 C1105 1.370 . S
C1104 C1106 1.363 . S
C1104 H1120 0.931 1_556 S
C1105 C1104 1.370 . S
C1105 C1109 1.408 . S
C1106 C1104 1.363 . S
C1106 C1107 1.370 . S
C1106 C1110 1.524 . S
C1107 C1099 1.503 . S
C1107 C1106 1.370 . S
C1107 C1108 1.403 . S
C1108 C1107 1.403 . S
C1108 C1109 1.404 . S
C1108 C1111 1.539 . S
C1109 C1105 1.408 . S
C1109 C1108 1.404 . S
C1109 H1121 0.930 . S
C1110 C1106 1.524 . S
C1110 H1122 0.956 . S
C1110 H1123 0.961 1_556 S
C1110 H1124 0.961 1_556 S
C1111 C1108 1.539 . S
C1111 H1125 0.958 . S
C1111 H1126 0.961 . S
C1111 H1127 0.960 . S
H1112 C1096 0.931 . S
H1113 C1101 0.929 . S
H1114 C1102 0.960 . S
H1115 C1102 0.962 . S
H1116 C1102 0.960 . S
H1117 C1103 0.961 . S
H1118 C1103 0.961 . S
H1119 C1103 0.961 . S
H1120 C1104 0.931 1_554 S
H1121 C1109 0.930 . S
H1122 C1110 0.956 . S
H1123 C1110 0.961 1_554 S
H1124 C1110 0.961 1_554 S
H1125 C1111 0.958 . S
H1126 C1111 0.961 . S
H1127 C1111 0.960 . S
C1128 C1129 1.391 . S
C1128 C1130 1.394 . S
C1128 H1144 0.931 . S
C1129 C1128 1.391 . S
C1129 C1133 1.376 . S
C1130 C1128 1.394 . S
C1130 C1131 1.369 . S
C1130 C1134 1.537 . S
C1131 C1130 1.369 . S
C1131 C1132 1.410 . S
C1131 C1139 1.503 . S
C1132 C1131 1.410 . S
C1132 C1133 1.392 . S
C1132 C1135 1.511 . S
C1133 C1129 1.376 . S
C1133 C1132 1.392 . S
C1133 H1145 0.929 . S
C1134 C1130 1.537 . S
C1134 H1146 0.957 1_556 S
C1134 H1147 0.964 . S
C1134 H1148 0.957 1_556 S
C1135 C1132 1.511 . S
C1135 H1149 0.961 . S
C1135 H1150 0.961 . S
C1135 H1151 0.961 . S
C1136 C1137 1.370 . S
C1136 C1138 1.363 . S
C1136 H1152 0.931 . S
C1137 C1136 1.370 . S
C1137 C1141 1.408 . S
C1138 C1136 1.363 . S
C1138 C1139 1.370 . S
C1138 C1142 1.524 . S
C1139 C1131 1.503 . S
C1139 C1138 1.370 . S
C1139 C1140 1.403 . S
C1140 C1139 1.403 . S
C1140 C1141 1.404 . S
C1140 C1143 1.539 . S
C1141 C1137 1.408 . S
C1141 C1140 1.404 . S
C1141 H1153 0.930 . S
C1142 C1138 1.524 . S
C1142 H1154 0.956 . S
C1142 H1155 0.961 . S
C1142 H1156 0.961 . S
C1143 C1140 1.539 . S
C1143 H1157 0.984 . S
C1143 H1158 0.961 . S
C1143 H1159 0.960 . S
H1144 C1128 0.931 . S
H1145 C1133 0.929 . S
H1146 C1134 0.957 1_554 S
H1147 C1134 0.964 . S
H1148 C1134 0.957 1_554 S
H1149 C1135 0.961 . S
H1150 C1135 0.961 . S
H1151 C1135 0.961 . S
H1152 C1136 0.931 . S
H1153 C1141 0.930 . S
H1154 C1142 0.956 . S
H1155 C1142 0.961 . S
H1156 C1142 0.961 . S
H1157 C1143 0.984 . S
H1158 C1143 0.961 . S
H1159 C1143 0.960 . S
C1160 C1161 1.391 . S
C1160 C1162 1.394 . S
C1160 H1176 0.931 . S
C1161 C1160 1.391 . S
C1161 C1165 1.376 . S
C1162 C1160 1.394 . S
C1162 C1163 1.369 . S
C1162 C1166 1.531 . S
C1163 C1162 1.369 . S
C1163 C1164 1.410 . S
C1163 C1171 1.503 . S
C1164 C1163 1.410 . S
C1164 C1165 1.392 . S
C1164 C1167 1.511 . S
C1165 C1161 1.376 . S
C1165 C1164 1.392 . S
C1165 H1177 0.929 . S
C1166 C1162 1.531 . S
C1166 H1178 0.960 . S
C1166 H1179 0.962 . S
C1166 H1180 0.960 . S
C1167 C1164 1.511 . S
C1167 H1181 0.961 . S
C1167 H1182 0.961 . S
C1167 H1183 0.961 . S
C1168 C1169 1.370 . S
C1168 C1170 1.363 . S
C1168 H1184 0.931 . S
C1169 C1168 1.370 . S
C1169 C1173 1.408 . S
C1170 C1168 1.363 . S
C1170 C1171 1.370 . S
C1170 C1174 1.524 . S
C1171 C1163 1.503 . S
C1171 C1170 1.370 . S
C1171 C1172 1.403 . S
C1172 C1171 1.403 . S
C1172 C1173 1.404 . S
C1172 C1175 1.539 1_556 S
C1173 C1169 1.408 . S
C1173 C1172 1.404 . S
C1173 H1185 0.930 1_556 S
C1174 C1170 1.524 . S
C1174 H1186 0.956 . S
C1174 H1187 0.961 . S
C1174 H1188 0.961 . S
C1175 C1172 1.539 1_554 S
C1175 H1189 0.958 . S
C1175 H1190 0.961 . S
C1175 H1191 0.956 1_554 S
H1176 C1160 0.931 . S
H1177 C1165 0.929 . S
H1178 C1166 0.960 . S
H1179 C1166 0.962 . S
H1180 C1166 0.960 . S
H1181 C1167 0.961 . S
H1182 C1167 0.961 . S
H1183 C1167 0.961 . S
H1184 C1168 0.931 . S
H1185 C1173 0.930 1_554 S
H1186 C1174 0.956 . S
H1187 C1174 0.961 . S
H1188 C1174 0.961 . S
H1189 C1175 0.958 . S
H1190 C1175 0.961 . S
H1191 C1175 0.956 1_556 S
C1192 C1193 1.391 . S
C1192 C1194 1.394 . S
C1192 H1208 0.931 . S
C1193 C1192 1.391 . S
C1193 C1197 1.376 . S
C1194 C1192 1.394 . S
C1194 C1195 1.369 . S
C1194 C1198 1.531 . S
C1195 C1194 1.369 . S
C1195 C1196 1.410 . S
C1195 C1203 1.503 . S
C1196 C1195 1.410 . S
C1196 C1197 1.392 . S
C1196 C1199 1.511 . S
C1197 C1193 1.376 . S
C1197 C1196 1.392 . S
C1197 H1209 0.929 . S
C1198 C1194 1.531 . S
C1198 H1210 0.960 . S
C1198 H1211 0.962 . S
C1198 H1212 0.960 . S
C1199 C1196 1.511 . S
C1199 H1213 0.961 . S
C1199 H1214 0.961 . S
C1199 H1215 0.961 . S
C1200 C1201 1.371 1_554 S
C1200 C1202 1.363 1_554 S
C1200 H1216 0.929 . S
C1201 C1200 1.371 1_556 S
C1201 C1205 1.408 . S
C1202 C1200 1.363 1_556 S
C1202 C1203 1.370 . S
C1202 C1206 1.524 1_556 S
C1203 C1195 1.503 . S
C1203 C1202 1.370 . S
C1203 C1204 1.403 . S
C1204 C1203 1.403 . S
C1204 C1205 1.404 . S
C1204 C1207 1.539 . S
C1205 C1201 1.408 . S
C1205 C1204 1.404 . S
C1205 H1217 0.930 . S
C1206 C1202 1.524 1_554 S
C1206 H1218 0.956 . S
C1206 H1219 0.961 . S
C1206 H1220 0.961 . S
C1207 C1204 1.539 . S
C1207 H1221 0.958 . S
C1207 H1222 0.961 . S
C1207 H1223 0.960 . S
H1208 C1192 0.931 . S
H1209 C1197 0.929 . S
H1210 C1198 0.960 . S
H1211 C1198 0.962 . S
H1212 C1198 0.960 . S
H1213 C1199 0.961 . S
H1214 C1199 0.961 . S
H1215 C1199 0.961 . S
H1216 C1200 0.929 . S
H1217 C1205 0.930 . S
H1218 C1206 0.956 . S
H1219 C1206 0.961 . S
H1220 C1206 0.961 . S
H1221 C1207 0.958 . S
H1222 C1207 0.961 . S
H1223 C1207 0.960 . S
C1224 C1225 1.391 . S
C1224 C1226 1.394 . S
C1224 H1240 0.931 . S
C1225 C1224 1.391 . S
C1225 C1229 1.376 . S
C1226 C1224 1.394 . S
C1226 C1227 1.369 . S
C1226 C1230 1.531 . S
C1227 C1226 1.369 . S
C1227 C1228 1.410 . S
C1227 C1235 1.503 . S
C1228 C1227 1.410 . S
C1228 C1229 1.392 . S
C1228 C1231 1.511 . S
C1229 C1225 1.376 . S
C1229 C1228 1.392 . S
C1229 H1241 0.929 . S
C1230 C1226 1.531 . S
C1230 H1242 0.960 . S
C1230 H1243 0.962 . S
C1230 H1244 0.960 . S
C1231 C1228 1.511 . S
C1231 H1245 0.961 . S
C1231 H1246 0.961 . S
C1231 H1247 0.961 . S
C1232 C1233 1.370 . S
C1232 C1234 1.363 . S
C1232 H1248 0.931 . S
C1233 C1232 1.370 . S
C1233 C1237 1.408 . S
C1234 C1232 1.363 . S
C1234 C1235 1.370 . S
C1234 C1238 1.524 . S
C1235 C1227 1.503 . S
C1235 C1234 1.370 . S
C1235 C1236 1.403 . S
C1236 C1235 1.403 . S
C1236 C1237 1.404 . S
C1236 C1239 1.506 1_554 S
C1237 C1233 1.408 . S
C1237 C1236 1.404 . S
C1237 H1249 0.930 1_554 S
C1238 C1234 1.524 . S
C1238 H1250 0.956 . S
C1238 H1251 0.961 . S
C1238 H1252 0.961 . S
C1239 C1236 1.506 1_556 S
C1239 H1253 0.998 . S
C1239 H1254 0.978 . S
C1239 H1255 0.939 1_556 S
H1240 C1224 0.931 . S
H1241 C1229 0.929 . S
H1242 C1230 0.960 . S
H1243 C1230 0.962 . S
H1244 C1230 0.960 . S
H1245 C1231 0.961 . S
H1246 C1231 0.961 . S
H1247 C1231 0.961 . S
H1248 C1232 0.931 . S
H1249 C1237 0.930 1_556 S
H1250 C1238 0.956 . S
H1251 C1238 0.961 . S
H1252 C1238 0.961 . S
H1253 C1239 0.998 . S
H1254 C1239 0.978 . S
H1255 C1239 0.939 1_554 S
C1256 C1257 1.391 . S
C1256 C1258 1.394 . S
C1256 H1272 0.931 . S
C1257 C1256 1.391 . S
C1257 C1261 1.376 . S
C1258 C1256 1.394 . S
C1258 C1259 1.369 . S
C1258 C1262 1.531 . S
C1259 C1258 1.369 . S
C1259 C1260 1.410 . S
C1259 C1267 1.503 . S
C1260 C1259 1.410 . S
C1260 C1261 1.392 . S
C1260 C1263 1.511 . S
C1261 C1257 1.376 . S
C1261 C1260 1.392 . S
C1261 H1273 0.929 . S
C1262 C1258 1.531 . S
C1262 H1274 0.960 . S
C1262 H1275 0.962 . S
C1262 H1276 0.960 . S
C1263 C1260 1.511 . S
C1263 H1277 0.961 . S
C1263 H1278 0.961 . S
C1263 H1279 0.961 . S
C1264 C1265 1.370 . S
C1264 C1266 1.363 . S
C1264 H1280 0.931 . S
C1265 C1264 1.370 . S
C1265 C1269 1.408 . S
C1266 C1264 1.363 . S
C1266 C1267 1.370 . S
C1266 C1270 1.524 . S
C1267 C1259 1.503 . S
C1267 C1266 1.370 . S
C1267 C1268 1.403 . S
C1268 C1267 1.403 . S
C1268 C1269 1.404 . S
C1268 C1271 1.539 . S
C1269 C1265 1.408 . S
C1269 C1268 1.404 . S
C1269 H1281 0.971 . S
C1270 C1266 1.524 . S
C1270 H1282 0.956 . S
C1270 H1283 0.961 . S
C1270 H1284 0.961 . S
C1271 C1268 1.539 . S
C1271 H1285 0.958 . S
C1271 H1286 0.961 1_554 S
C1271 H1287 0.960 . S
H1272 C1256 0.931 . S
H1273 C1261 0.929 . S
H1274 C1262 0.960 . S
H1275 C1262 0.962 . S
H1276 C1262 0.960 . S
H1277 C1263 0.961 . S
H1278 C1263 0.961 . S
H1279 C1263 0.961 . S
H1280 C1264 0.931 . S
H1281 C1269 0.971 . S
H1282 C1270 0.956 . S
H1283 C1270 0.961 . S
H1284 C1270 0.961 . S
H1285 C1271 0.958 . S
H1286 C1271 0.961 1_556 S
H1287 C1271 0.960 . S
C1288 C1289 1.391 . S
C1288 C1290 1.394 . S
C1288 H1304 0.931 . S
C1289 C1288 1.391 . S
C1289 C1293 1.376 . S
C1290 C1288 1.394 . S
C1290 C1291 1.369 . S
C1290 C1294 1.531 . S
C1291 C1290 1.369 . S
C1291 C1292 1.410 . S
C1291 C1299 1.503 . S
C1292 C1291 1.410 . S
C1292 C1293 1.392 . S
C1292 C1295 1.511 . S
C1293 C1289 1.376 . S
C1293 C1292 1.392 . S
C1293 H1305 0.929 . S
C1294 C1290 1.531 . S
C1294 H1306 0.960 . S
C1294 H1307 0.962 . S
C1294 H1308 0.960 . S
C1295 C1292 1.511 . S
C1295 H1309 0.961 1_554 S
C1295 H1310 0.961 1_554 S
C1295 H1311 0.961 . S
C1296 C1297 1.370 . S
C1296 C1298 1.363 . S
C1296 H1312 0.931 . S
C1297 C1296 1.370 . S
C1297 C1301 1.408 . S
C1298 C1296 1.363 . S
C1298 C1299 1.370 . S
C1298 C1302 1.524 . S
C1299 C1291 1.503 . S
C1299 C1298 1.370 . S
C1299 C1300 1.403 . S
C1300 C1299 1.403 . S
C1300 C1301 1.404 . S
C1300 C1303 1.539 . S
C1301 C1297 1.408 . S
C1301 C1300 1.404 . S
C1301 H1313 0.930 . S
C1302 C1298 1.524 . S
C1302 H1314 0.956 . S
C1302 H1315 0.961 . S
C1302 H1316 0.936 1_554 S
C1303 C1300 1.539 . S
C1303 H1317 0.958 . S
C1303 H1318 0.989 . S
C1303 H1319 0.960 . S
H1304 C1288 0.931 . S
H1305 C1293 0.929 . S
H1306 C1294 0.960 . S
H1307 C1294 0.962 . S
H1308 C1294 0.960 . S
H1309 C1295 0.961 1_556 S
H1310 C1295 0.961 1_556 S
H1311 C1295 0.961 . S
H1312 C1296 0.931 . S
H1313 C1301 0.930 . S
H1314 C1302 0.956 . S
H1315 C1302 0.961 . S
H1316 C1302 0.936 1_556 S
H1317 C1303 0.958 . S
H1318 C1303 0.989 . S
H1319 C1303 0.960 . S
C1320 C1321 1.391 . S
C1320 C1322 1.394 . S
C1320 H1336 0.931 . S
C1321 C1320 1.391 . S
C1321 C1325 1.376 . S
C1322 C1320 1.394 . S
C1322 C1323 1.369 1_655 S
C1322 C1326 1.531 1_655 S
C1323 C1322 1.369 1_455 S
C1323 C1324 1.410 . S
C1323 C1331 1.503 . S
C1324 C1323 1.410 . S
C1324 C1325 1.392 1_455 S
C1324 C1327 1.511 . S
C1325 C1321 1.376 . S
C1325 C1324 1.392 1_655 S
C1325 H1337 0.929 . S
C1326 C1322 1.531 1_455 S
C1326 H1338 0.960 . S
C1326 H1339 0.962 . S
C1326 H1340 0.960 1_455 S
C1327 C1324 1.511 . S
C1327 H1341 0.961 . S
C1327 H1342 0.961 . S
C1327 H1343 0.961 . S
C1328 C1329 1.370 . S
C1328 C1330 1.363 . S
C1328 H1344 0.931 . S
C1329 C1328 1.370 . S
C1329 C1333 1.408 . S
C1330 C1328 1.363 . S
C1330 C1331 1.370 . S
C1330 C1334 1.524 . S
C1331 C1323 1.503 . S
C1331 C1330 1.370 . S
C1331 C1332 1.403 . S
C1332 C1331 1.403 . S
C1332 C1333 1.404 . S
C1332 C1335 1.539 . S
C1333 C1329 1.408 . S
C1333 C1332 1.404 . S
C1333 H1345 0.930 . S
C1334 C1330 1.524 . S
C1334 H1346 0.956 . S
C1334 H1347 0.961 . S
C1334 H1348 0.961 . S
C1335 C1332 1.539 . S
C1335 H1349 0.958 . S
C1335 H1350 0.961 . S
C1335 H1351 0.960 . S
H1336 C1320 0.931 . S
H1337 C1325 0.929 . S
H1338 C1326 0.960 . S
H1339 C1326 0.962 . S
H1340 C1326 0.960 1_655 S
H1341 C1327 0.961 . S
H1342 C1327 0.961 . S
H1343 C1327 0.961 . S
H1344 C1328 0.931 . S
H1345 C1333 0.930 . S
H1346 C1334 0.956 . S
H1347 C1334 0.961 . S
H1348 C1334 0.961 . S
H1349 C1335 0.958 . S
H1350 C1335 0.961 . S
H1351 C1335 0.960 . S
C1352 C1353 1.391 . S
C1352 C1354 1.394 . S
C1352 H1368 0.931 . S
C1353 C1352 1.391 . S
C1353 C1357 1.376 . S
C1354 C1352 1.394 . S
C1354 C1355 1.369 . S
C1354 C1358 1.531 . S
C1355 C1354 1.369 . S
C1355 C1356 1.410 . S
C1355 C1363 1.503 . S
C1356 C1355 1.410 . S
C1356 C1357 1.392 . S
C1356 C1359 1.511 . S
C1357 C1353 1.376 . S
C1357 C1356 1.392 . S
C1357 H1369 0.929 . S
C1358 C1354 1.531 . S
C1358 H1370 0.960 . S
C1358 H1371 0.962 . S
C1358 H1372 0.960 . S
C1359 C1356 1.511 . S
C1359 H1373 0.961 . S
C1359 H1374 0.961 . S
C1359 H1375 0.961 . S
C1360 C1361 1.370 . S
C1360 C1362 1.363 . S
C1360 H1376 0.931 . S
C1361 C1360 1.370 . S
C1361 C1365 1.408 . S
C1362 C1360 1.363 . S
C1362 C1363 1.370 . S
C1362 C1366 1.524 . S
C1363 C1355 1.503 . S
C1363 C1362 1.370 . S
C1363 C1364 1.403 . S
C1364 C1363 1.403 . S
C1364 C1365 1.404 . S
C1364 C1367 1.539 . S
C1365 C1361 1.408 . S
C1365 C1364 1.404 . S
C1365 H1377 0.930 . S
C1366 C1362 1.524 . S
C1366 H1378 0.956 . S
C1366 H1379 0.961 . S
C1366 H1380 0.961 . S
C1367 C1364 1.539 . S
C1367 H1381 0.958 . S
C1367 H1382 0.961 . S
C1367 H1383 0.960 . S
H1368 C1352 0.931 . S
H1369 C1357 0.929 . S
H1370 C1358 0.960 . S
H1371 C1358 0.962 . S
H1372 C1358 0.960 . S
H1373 C1359 0.961 . S
H1374 C1359 0.961 . S
H1375 C1359 0.961 . S
H1376 C1360 0.931 . S
H1377 C1365 0.930 . S
H1378 C1366 0.956 . S
H1379 C1366 0.961 . S
H1380 C1366 0.961 . S
H1381 C1367 0.958 . S
H1382 C1367 0.961 . S
H1383 C1367 0.960 . S
C1384 C1385 1.391 . S
C1384 C1386 1.394 . S
C1384 H1400 0.931 . S
C1385 C1384 1.391 . S
C1385 C1389 1.376 . S
C1386 C1384 1.394 . S
C1386 C1387 1.350 1_545 S
C1386 C1390 1.531 1_545 S
C1387 C1386 1.350 1_565 S
C1387 C1388 1.399 1_565 S
C1387 C1395 1.535 . S
C1388 C1387 1.399 1_545 S
C1388 C1389 1.392 . S
C1388 C1391 1.511 . S
C1389 C1385 1.376 . S
C1389 C1388 1.392 . S
C1389 H1401 0.929 . S
C1390 C1386 1.531 1_565 S
C1390 H1402 0.960 . S
C1390 H1403 0.962 . S
C1390 H1404 0.960 1_565 S
C1391 C1388 1.511 . S
C1391 H1405 0.961 . S
C1391 H1406 0.961 1_545 S
C1391 H1407 0.961 . S
C1392 C1393 1.370 . S
C1392 C1394 1.363 . S
C1392 H1408 0.931 . S
C1393 C1392 1.370 . S
C1393 C1397 1.408 . S
C1394 C1392 1.363 . S
C1394 C1395 1.370 . S
C1394 C1398 1.524 . S
C1395 C1387 1.535 . S
C1395 C1394 1.370 . S
C1395 C1396 1.403 . S
C1396 C1395 1.403 . S
C1396 C1397 1.404 . S
C1396 C1399 1.539 . S
C1397 C1393 1.408 . S
C1397 C1396 1.404 . S
C1397 H1409 0.930 . S
C1398 C1394 1.524 . S
C1398 H1410 0.956 . S
C1398 H1411 0.961 . S
C1398 H1412 0.961 . S
C1399 C1396 1.539 . S
C1399 H1413 0.958 . S
C1399 H1414 0.961 . S
C1399 H1415 0.960 . S
H1400 C1384 0.931 . S
H1401 C1389 0.929 . S
H1402 C1390 0.960 . S
H1403 C1390 0.962 . S
H1404 C1390 0.960 1_545 S
H1405 C1391 0.961 . S
H1406 C1391 0.961 1_565 S
H1407 C1391 0.961 . S
H1408 C1392 0.931 . S
H1409 C1397 0.930 . S
H1410 C1398 0.956 . S
H1411 C1398 0.961 . S
H1412 C1398 0.961 . S
H1413 C1399 0.958 . S
H1414 C1399 0.961 . S
H1415 C1399 0.960 . S
C1416 C1417 1.391 . S
C1416 C1418 1.394 . S
C1416 H1432 0.931 . S
C1417 C1416 1.391 . S
C1417 C1421 1.376 . S
C1418 C1416 1.394 . S
C1418 C1419 1.369 . S
C1418 C1422 1.531 . S
C1419 C1418 1.369 . S
C1419 C1420 1.410 . S
C1419 C1427 1.503 . S
C1420 C1419 1.410 . S
C1420 C1421 1.392 . S
C1420 C1423 1.511 . S
C1421 C1417 1.376 . S
C1421 C1420 1.392 . S
C1421 H1433 0.929 . S
C1422 C1418 1.531 . S
C1422 H1434 0.960 . S
C1422 H1435 0.962 . S
C1422 H1436 0.960 . S
C1423 C1420 1.511 . S
C1423 H1437 0.961 . S
C1423 H1438 0.961 . S
C1423 H1439 0.961 . S
C1424 C1425 1.370 . S
C1424 C1426 1.363 . S
C1424 H1440 0.931 . S
C1425 C1424 1.370 . S
C1425 C1429 1.408 . S
C1426 C1424 1.363 . S
C1426 C1427 1.370 . S
C1426 C1430 1.524 . S
C1427 C1419 1.503 . S
C1427 C1426 1.370 . S
C1427 C1428 1.403 . S
C1428 C1427 1.403 . S
C1428 C1429 1.404 . S
C1428 C1431 1.539 . S
C1429 C1425 1.408 . S
C1429 C1428 1.404 . S
C1429 H1441 0.930 . S
C1430 C1426 1.524 . S
C1430 H1442 0.956 . S
C1430 H1443 0.961 . S
C1430 H1444 0.961 . S
C1431 C1428 1.539 . S
C1431 H1445 0.958 . S
C1431 H1446 0.961 . S
C1431 H1447 0.960 . S
H1432 C1416 0.931 . S
H1433 C1421 0.929 . S
H1434 C1422 0.960 . S
H1435 C1422 0.962 . S
H1436 C1422 0.960 . S
H1437 C1423 0.961 . S
H1438 C1423 0.961 . S
H1439 C1423 0.961 . S
H1440 C1424 0.931 . S
H1441 C1429 0.930 . S
H1442 C1430 0.956 . S
H1443 C1430 0.961 . S
H1444 C1430 0.961 . S
H1445 C1431 0.958 . S
H1446 C1431 0.961 . S
H1447 C1431 0.960 . S
C1448 C1449 1.391 . S
C1448 C1450 1.394 . S
C1448 H1464 0.931 . S
C1449 C1448 1.391 . S
C1449 C1453 1.376 . S
C1450 C1448 1.394 . S
C1450 C1451 1.369 . S
C1450 C1454 1.531 . S
C1451 C1450 1.369 . S
C1451 C1452 1.410 . S
C1451 C1459 1.503 . S
C1452 C1451 1.410 . S
C1452 C1453 1.392 . S
C1452 C1455 1.511 . S
C1453 C1449 1.376 . S
C1453 C1452 1.392 . S
C1453 H1465 0.929 . S
C1454 C1450 1.531 . S
C1454 H1466 0.960 . S
C1454 H1467 0.962 . S
C1454 H1468 0.960 . S
C1455 C1452 1.511 . S
C1455 H1469 0.961 . S
C1455 H1470 0.961 . S
C1455 H1471 0.961 . S
C1456 C1457 1.370 . S
C1456 C1458 1.363 . S
C1456 H1472 0.931 . S
C1457 C1456 1.370 . S
C1457 C1461 1.408 . S
C1458 C1456 1.363 . S
C1458 C1459 1.370 . S
C1458 C1462 1.524 . S
C1459 C1451 1.503 . S
C1459 C1458 1.370 . S
C1459 C1460 1.403 . S
C1460 C1459 1.403 . S
C1460 C1461 1.404 . S
C1460 C1463 1.539 . S
C1461 C1457 1.408 . S
C1461 C1460 1.404 . S
C1461 H1473 0.930 . S
C1462 C1458 1.524 . S
C1462 H1474 0.956 . S
C1462 H1475 0.961 . S
C1462 H1476 0.961 . S
C1463 C1460 1.539 . S
C1463 H1477 0.958 . S
C1463 H1478 0.961 . S
C1463 H1479 0.960 . S
H1464 C1448 0.931 . S
H1465 C1453 0.929 . S
H1466 C1454 0.960 . S
H1467 C1454 0.962 . S
H1468 C1454 0.960 . S
H1469 C1455 0.961 . S
H1470 C1455 0.961 . S
H1471 C1455 0.961 . S
H1472 C1456 0.931 . S
H1473 C1461 0.930 . S
H1474 C1462 0.956 . S
H1475 C1462 0.961 . S
H1476 C1462 0.961 . S
H1477 C1463 0.958 . S
H1478 C1463 0.961 . S
H1479 C1463 0.960 . S
C1480 C1481 1.391 . S
C1480 C1482 1.394 . S
C1480 H1496 0.931 . S
C1481 C1480 1.391 . S
C1481 C1485 1.376 . S
C1482 C1480 1.394 . S
C1482 C1483 1.369 . S
C1482 C1486 1.531 . S
C1483 C1482 1.369 . S
C1483 C1484 1.410 . S
C1483 C1491 1.503 . S
C1484 C1483 1.410 . S
C1484 C1485 1.392 . S
C1484 C1487 1.511 . S
C1485 C1481 1.376 . S
C1485 C1484 1.392 . S
C1485 H1497 0.929 . S
C1486 C1482 1.531 . S
C1486 H1498 0.960 . S
C1486 H1499 0.962 . S
C1486 H1500 0.960 . S
C1487 C1484 1.511 . S
C1487 H1501 0.961 . S
C1487 H1502 0.961 . S
C1487 H1503 0.961 . S
C1488 C1489 1.370 . S
C1488 C1490 1.363 . S
C1488 H1504 0.931 . S
C1489 C1488 1.370 . S
C1489 C1493 1.408 . S
C1490 C1488 1.363 . S
C1490 C1491 1.370 . S
C1490 C1494 1.524 . S
C1491 C1483 1.503 . S
C1491 C1490 1.370 . S
C1491 C1492 1.403 . S
C1492 C1491 1.403 . S
C1492 C1493 1.404 . S
C1492 C1495 1.539 . S
C1493 C1489 1.408 . S
C1493 C1492 1.404 . S
C1493 H1505 0.930 . S
C1494 C1490 1.524 . S
C1494 H1506 0.956 . S
C1494 H1507 0.961 . S
C1494 H1508 0.961 . S
C1495 C1492 1.539 . S
C1495 H1509 0.958 . S
C1495 H1510 0.961 . S
C1495 H1511 0.960 . S
H1496 C1480 0.931 . S
H1497 C1485 0.929 . S
H1498 C1486 0.960 . S
H1499 C1486 0.962 . S
H1500 C1486 0.960 . S
H1501 C1487 0.961 . S
H1502 C1487 0.961 . S
H1503 C1487 0.961 . S
H1504 C1488 0.931 . S
H1505 C1493 0.930 . S
H1506 C1494 0.956 . S
H1507 C1494 0.961 . S
H1508 C1494 0.961 . S
H1509 C1495 0.958 . S
H1510 C1495 0.961 . S
H1511 C1495 0.960 . S
C1512 C1513 1.391 . S
C1512 C1514 1.394 . S
C1512 H1528 0.931 . S
C1513 C1512 1.391 . S
C1513 C1517 1.376 . S
C1514 C1512 1.394 . S
C1514 C1515 1.369 . S
C1514 C1518 1.531 . S
C1515 C1514 1.369 . S
C1515 C1516 1.410 . S
C1515 C1523 1.503 . S
C1516 C1515 1.410 . S
C1516 C1517 1.392 . S
C1516 C1519 1.511 . S
C1517 C1513 1.376 . S
C1517 C1516 1.392 . S
C1517 H1529 0.929 . S
C1518 C1514 1.531 . S
C1518 H1530 0.960 . S
C1518 H1531 0.962 . S
C1518 H1532 0.960 . S
C1519 C1516 1.511 . S
C1519 H1533 0.961 . S
C1519 H1534 0.961 . S
C1519 H1535 0.961 . S
C1520 C1521 1.370 . S
C1520 C1522 1.363 . S
C1520 H1536 0.931 . S
C1521 C1520 1.370 . S
C1521 C1525 1.408 . S
C1522 C1520 1.363 . S
C1522 C1523 1.370 . S
C1522 C1526 1.524 . S
C1523 C1515 1.503 . S
C1523 C1522 1.370 . S
C1523 C1524 1.403 . S
C1524 C1523 1.403 . S
C1524 C1525 1.404 . S
C1524 C1527 1.539 . S
C1525 C1521 1.408 . S
C1525 C1524 1.404 . S
C1525 H1537 0.930 . S
C1526 C1522 1.524 . S
C1526 H1538 0.956 . S
C1526 H1539 0.961 . S
C1526 H1540 0.961 . S
C1527 C1524 1.539 . S
C1527 H1541 0.958 . S
C1527 H1542 0.961 . S
C1527 H1543 0.960 . S
H1528 C1512 0.931 . S
H1529 C1517 0.929 . S
H1530 C1518 0.960 . S
H1531 C1518 0.962 . S
H1532 C1518 0.960 . S
H1533 C1519 0.961 . S
H1534 C1519 0.961 . S
H1535 C1519 0.961 . S
H1536 C1520 0.931 . S
H1537 C1525 0.930 . S
H1538 C1526 0.956 . S
H1539 C1526 0.961 . S
H1540 C1526 0.961 . S
H1541 C1527 0.958 . S
H1542 C1527 0.961 . S
H1543 C1527 0.960 . S
C1544 C1545 1.391 . S
C1544 C1546 1.394 . S
C1544 H1560 0.931 . S
C1545 C1544 1.391 . S
C1545 C1549 1.376 . S
C1546 C1544 1.394 . S
C1546 C1547 1.369 . S
C1546 C1550 1.531 . S
C1547 C1546 1.369 . S
C1547 C1548 1.410 . S
C1547 C1555 1.503 . S
C1548 C1547 1.410 . S
C1548 C1549 1.392 . S
C1548 C1551 1.511 . S
C1549 C1545 1.376 . S
C1549 C1548 1.392 . S
C1549 H1561 0.929 . S
C1550 C1546 1.531 . S
C1550 H1562 0.960 . S
C1550 H1563 0.962 . S
C1550 H1564 0.960 . S
C1551 C1548 1.511 . S
C1551 H1565 0.961 . S
C1551 H1566 0.961 . S
C1551 H1567 0.961 . S
C1552 C1553 1.370 . S
C1552 C1554 1.363 . S
C1552 H1568 0.931 . S
C1553 C1552 1.370 . S
C1553 C1557 1.408 . S
C1554 C1552 1.363 . S
C1554 C1555 1.370 . S
C1554 C1558 1.524 . S
C1555 C1547 1.503 . S
C1555 C1554 1.370 . S
C1555 C1556 1.403 . S
C1556 C1555 1.403 . S
C1556 C1557 1.404 . S
C1556 C1559 1.539 . S
C1557 C1553 1.408 . S
C1557 C1556 1.404 . S
C1557 H1569 0.930 . S
C1558 C1554 1.524 . S
C1558 H1570 0.956 . S
C1558 H1571 0.961 . S
C1558 H1572 0.961 . S
C1559 C1556 1.539 . S
C1559 H1573 0.958 . S
C1559 H1574 0.961 . S
C1559 H1575 0.960 . S
H1560 C1544 0.931 . S
H1561 C1549 0.929 . S
H1562 C1550 0.960 . S
H1563 C1550 0.962 . S
H1564 C1550 0.960 . S
H1565 C1551 0.961 . S
H1566 C1551 0.961 . S
H1567 C1551 0.961 . S
H1568 C1552 0.931 . S
H1569 C1557 0.930 . S
H1570 C1558 0.956 . S
H1571 C1558 0.961 . S
H1572 C1558 0.961 . S
H1573 C1559 0.958 . S
H1574 C1559 0.961 . S
H1575 C1559 0.960 . S
C1576 C1577 1.391 . S
C1576 C1578 1.394 . S
C1576 H1592 0.931 . S
C1577 C1576 1.391 . S
C1577 C1581 1.376 . S
C1578 C1576 1.394 . S
C1578 C1579 1.369 . S
C1578 C1582 1.531 . S
C1579 C1578 1.369 . S
C1579 C1580 1.410 . S
C1579 C1587 1.503 . S
C1580 C1579 1.410 . S
C1580 C1581 1.392 . S
C1580 C1583 1.511 . S
C1581 C1577 1.376 . S
C1581 C1580 1.392 . S
C1581 H1593 0.929 . S
C1582 C1578 1.531 . S
C1582 H1594 0.960 . S
C1582 H1595 0.962 . S
C1582 H1596 0.960 . S
C1583 C1580 1.511 . S
C1583 H1597 0.961 . S
C1583 H1598 0.961 . S
C1583 H1599 0.961 . S
C1584 C1585 1.370 . S
C1584 C1586 1.363 . S
C1584 H1600 0.931 . S
C1585 C1584 1.370 . S
C1585 C1589 1.408 . S
C1586 C1584 1.363 . S
C1586 C1587 1.370 . S
C1586 C1590 1.524 . S
C1587 C1579 1.503 . S
C1587 C1586 1.370 . S
C1587 C1588 1.403 . S
C1588 C1587 1.403 . S
C1588 C1589 1.404 . S
C1588 C1591 1.539 . S
C1589 C1585 1.408 . S
C1589 C1588 1.404 . S
C1589 H1601 0.930 . S
C1590 C1586 1.524 . S
C1590 H1602 0.956 . S
C1590 H1603 0.961 . S
C1590 H1604 0.961 . S
C1591 C1588 1.539 . S
C1591 H1605 0.958 . S
C1591 H1606 0.961 . S
C1591 H1607 0.960 . S
H1592 C1576 0.931 . S
H1593 C1581 0.929 . S
H1594 C1582 0.960 . S
H1595 C1582 0.962 . S
H1596 C1582 0.960 . S
H1597 C1583 0.961 . S
H1598 C1583 0.961 . S
H1599 C1583 0.961 . S
H1600 C1584 0.931 . S
H1601 C1589 0.930 . S
H1602 C1590 0.956 . S
H1603 C1590 0.961 . S
H1604 C1590 0.961 . S
H1605 C1591 0.958 . S
H1606 C1591 0.961 . S
H1607 C1591 0.960 . S
C1608 C1609 1.391 . S
C1608 C1610 1.394 . S
C1608 H1624 0.931 . S
C1609 C1608 1.391 . S
C1609 C1613 1.376 . S
C1610 C1608 1.394 . S
C1610 C1611 1.369 1_545 S
C1610 C1614 1.531 1_545 S
C1611 C1610 1.369 1_565 S
C1611 C1612 1.410 1_565 S
C1611 C1619 1.503 . S
C1612 C1611 1.410 1_545 S
C1612 C1613 1.392 . S
C1612 C1615 1.509 1_545 S
C1613 C1609 1.376 . S
C1613 C1612 1.392 . S
C1613 H1625 0.929 . S
C1614 C1610 1.531 1_565 S
C1614 H1626 0.960 . S
C1614 H1627 0.962 . S
C1614 H1628 0.960 . S
C1615 C1612 1.509 1_565 S
C1615 H1629 0.959 1_565 S
C1615 H1630 0.968 . S
C1615 H1631 0.969 . S
C1616 C1617 1.370 . S
C1616 C1618 1.363 . S
C1616 H1632 0.931 . S
C1617 C1616 1.370 . S
C1617 C1621 1.408 . S
C1618 C1616 1.363 . S
C1618 C1619 1.370 . S
C1618 C1622 1.524 . S
C1619 C1611 1.503 . S
C1619 C1618 1.370 . S
C1619 C1620 1.403 . S
C1620 C1619 1.403 . S
C1620 C1621 1.404 . S
C1620 C1623 1.539 . S
C1621 C1617 1.408 . S
C1621 C1620 1.404 . S
C1621 H1633 0.930 . S
C1622 C1618 1.524 . S
C1622 H1634 0.956 . S
C1622 H1635 0.961 . S
C1622 H1636 0.961 . S
C1623 C1620 1.539 . S
C1623 H1637 0.958 . S
C1623 H1638 0.961 . S
C1623 H1639 0.960 . S
H1624 C1608 0.931 . S
H1625 C1613 0.929 . S
H1626 C1614 0.960 . S
H1627 C1614 0.962 . S
H1628 C1614 0.960 . S
H1629 C1615 0.959 1_545 S
H1630 C1615 0.968 . S
H1631 C1615 0.969 . S
H1632 C1616 0.931 . S
H1633 C1621 0.930 . S
H1634 C1622 0.956 . S
H1635 C1622 0.961 . S
H1636 C1622 0.961 . S
H1637 C1623 0.958 . S
H1638 C1623 0.961 . S
H1639 C1623 0.960 . S
C1640 C1641 1.391 . S
C1640 C1642 1.394 1_655 S
C1640 H1656 0.931 . S
C1641 C1640 1.391 . S
C1641 C1645 1.376 . S
C1642 C1640 1.394 1_455 S
C1642 C1643 1.369 . S
C1642 C1646 1.531 . S
C1643 C1642 1.369 . S
C1643 C1644 1.410 . S
C1643 C1651 1.503 . S
C1644 C1643 1.410 . S
C1644 C1645 1.392 1_455 S
C1644 C1647 1.511 . S
C1645 C1641 1.376 . S
C1645 C1644 1.392 1_655 S
C1645 H1657 0.929 . S
C1646 C1642 1.531 . S
C1646 H1658 0.960 . S
C1646 H1659 0.962 . S
C1646 H1660 0.960 . S
C1647 C1644 1.511 . S
C1647 H1661 0.961 . S
C1647 H1662 0.961 . S
C1647 H1663 0.961 . S
C1648 C1649 1.370 . S
C1648 C1650 1.363 . S
C1648 H1664 0.931 . S
C1649 C1648 1.370 . S
C1649 C1653 1.408 . S
C1650 C1648 1.363 . S
C1650 C1651 1.370 . S
C1650 C1654 1.524 . S
C1651 C1643 1.503 . S
C1651 C1650 1.370 . S
C1651 C1652 1.403 . S
C1652 C1651 1.403 . S
C1652 C1653 1.404 . S
C1652 C1655 1.539 . S
C1653 C1649 1.408 . S
C1653 C1652 1.404 . S
C1653 H1665 0.930 . S
C1654 C1650 1.524 . S
C1654 H1666 0.956 . S
C1654 H1667 0.961 . S
C1654 H1668 0.961 . S
C1655 C1652 1.539 . S
C1655 H1669 0.958 . S
C1655 H1670 0.961 . S
C1655 H1671 0.960 . S
H1656 C1640 0.931 . S
H1657 C1645 0.929 . S
H1658 C1646 0.960 . S
H1659 C1646 0.962 . S
H1660 C1646 0.960 . S
H1661 C1647 0.961 . S
H1662 C1647 0.961 . S
H1663 C1647 0.961 . S
H1664 C1648 0.931 . S
H1665 C1653 0.930 . S
H1666 C1654 0.956 . S
H1667 C1654 0.961 . S
H1668 C1654 0.961 . S
H1669 C1655 0.958 . S
H1670 C1655 0.961 . S
H1671 C1655 0.960 . S
C1672 C1673 1.391 . S
C1672 C1674 1.394 . S
C1672 H1688 0.931 . S
C1673 C1672 1.391 . S
C1673 C1677 1.376 . S
C1674 C1672 1.394 . S
C1674 C1675 1.369 . S
C1674 C1678 1.531 . S
C1675 C1674 1.369 . S
C1675 C1676 1.410 . S
C1675 C1683 1.503 . S
C1676 C1675 1.410 . S
C1676 C1677 1.392 . S
C1676 C1679 1.511 . S
C1677 C1673 1.376 . S
C1677 C1676 1.392 . S
C1677 H1689 0.929 . S
C1678 C1674 1.531 . S
C1678 H1690 0.960 . S
C1678 H1691 0.962 . S
C1678 H1692 0.960 . S
C1679 C1676 1.511 . S
C1679 H1693 0.961 . S
C1679 H1694 0.961 . S
C1679 H1695 0.961 . S
C1680 C1681 1.370 . S
C1680 C1682 1.363 . S
C1680 H1696 0.931 . S
C1681 C1680 1.370 . S
C1681 C1685 1.408 . S
C1682 C1680 1.363 . S
C1682 C1683 1.370 . S
C1682 C1686 1.524 . S
C1683 C1675 1.503 . S
C1683 C1682 1.370 . S
C1683 C1684 1.403 . S
C1684 C1683 1.403 . S
C1684 C1685 1.404 . S
C1684 C1687 1.539 . S
C1685 C1681 1.408 . S
C1685 C1684 1.404 . S
C1685 H1697 0.930 . S
C1686 C1682 1.524 . S
C1686 H1698 0.956 . S
C1686 H1699 0.961 . S
C1686 H1700 0.961 . S
C1687 C1684 1.539 . S
C1687 H1701 0.958 . S
C1687 H1702 0.961 . S
C1687 H1703 0.960 . S
H1688 C1672 0.931 . S
H1689 C1677 0.929 . S
H1690 C1678 0.960 . S
H1691 C1678 0.962 . S
H1692 C1678 0.960 . S
H1693 C1679 0.961 . S
H1694 C1679 0.961 . S
H1695 C1679 0.961 . S
H1696 C1680 0.931 . S
H1697 C1685 0.930 . S
H1698 C1686 0.956 . S
H1699 C1686 0.961 . S
H1700 C1686 0.961 . S
H1701 C1687 0.958 . S
H1702 C1687 0.961 . S
H1703 C1687 0.960 . S
C1704 C1705 1.391 . S
C1704 C1706 1.394 . S
C1704 H1720 0.931 . S
C1705 C1704 1.391 . S
C1705 C1709 1.376 . S
C1706 C1704 1.394 . S
C1706 C1707 1.369 . S
C1706 C1710 1.531 . S
C1707 C1706 1.369 . S
C1707 C1708 1.410 . S
C1707 C1715 1.503 . S
C1708 C1707 1.410 . S
C1708 C1709 1.392 . S
C1708 C1711 1.511 . S
C1709 C1705 1.376 . S
C1709 C1708 1.392 . S
C1709 H1721 0.929 . S
C1710 C1706 1.531 . S
C1710 H1722 0.960 . S
C1710 H1723 0.962 . S
C1710 H1724 0.960 . S
C1711 C1708 1.511 . S
C1711 H1725 0.961 . S
C1711 H1726 0.961 . S
C1711 H1727 0.961 . S
C1712 C1713 1.370 . S
C1712 C1714 1.363 . S
C1712 H1728 0.931 . S
C1713 C1712 1.370 . S
C1713 C1717 1.408 . S
C1714 C1712 1.363 . S
C1714 C1715 1.370 . S
C1714 C1718 1.524 . S
C1715 C1707 1.503 . S
C1715 C1714 1.370 . S
C1715 C1716 1.403 . S
C1716 C1715 1.403 . S
C1716 C1717 1.404 . S
C1716 C1719 1.539 . S
C1717 C1713 1.408 . S
C1717 C1716 1.404 . S
C1717 H1729 0.930 . S
C1718 C1714 1.524 . S
C1718 H1730 0.956 . S
C1718 H1731 0.961 . S
C1718 H1732 0.961 . S
C1719 C1716 1.539 . S
C1719 H1733 0.958 . S
C1719 H1734 0.961 . S
C1719 H1735 0.960 . S
H1720 C1704 0.931 . S
H1721 C1709 0.929 . S
H1722 C1710 0.960 . S
H1723 C1710 0.962 . S
H1724 C1710 0.960 . S
H1725 C1711 0.961 . S
H1726 C1711 0.961 . S
H1727 C1711 0.961 . S
H1728 C1712 0.931 . S
H1729 C1717 0.930 . S
H1730 C1718 0.956 . S
H1731 C1718 0.961 . S
H1732 C1718 0.961 . S
H1733 C1719 0.958 . S
H1734 C1719 0.961 . S
H1735 C1719 0.960 . S
C1736 C1737 1.391 . S
C1736 C1738 1.394 . S
C1736 H1752 0.931 . S
C1737 C1736 1.391 . S
C1737 C1741 1.376 . S
C1738 C1736 1.394 . S
C1738 C1739 1.369 . S
C1738 C1742 1.531 . S
C1739 C1738 1.369 . S
C1739 C1740 1.410 . S
C1739 C1747 1.503 . S
C1740 C1739 1.410 . S
C1740 C1741 1.392 . S
C1740 C1743 1.511 . S
C1741 C1737 1.376 . S
C1741 C1740 1.392 . S
C1741 H1753 0.929 . S
C1742 C1738 1.531 . S
C1742 H1754 0.960 . S
C1742 H1755 0.962 . S
C1742 H1756 0.960 . S
C1743 C1740 1.511 . S
C1743 H1757 0.961 . S
C1743 H1758 0.961 . S
C1743 H1759 0.961 . S
C1744 C1745 1.370 . S
C1744 C1746 1.363 . S
C1744 H1760 0.931 . S
C1745 C1744 1.370 . S
C1745 C1749 1.408 . S
C1746 C1744 1.363 . S
C1746 C1747 1.370 . S
C1746 C1750 1.524 . S
C1747 C1739 1.503 . S
C1747 C1746 1.370 . S
C1747 C1748 1.403 . S
C1748 C1747 1.403 . S
C1748 C1749 1.404 . S
C1748 C1751 1.539 . S
C1749 C1745 1.408 . S
C1749 C1748 1.404 . S
C1749 H1761 0.930 . S
C1750 C1746 1.524 . S
C1750 H1762 0.956 . S
C1750 H1763 0.961 . S
C1750 H1764 0.961 . S
C1751 C1748 1.539 . S
C1751 H1765 0.958 . S
C1751 H1766 0.961 . S
C1751 H1767 0.960 . S
H1752 C1736 0.931 . S
H1753 C1741 0.929 . S
H1754 C1742 0.960 . S
H1755 C1742 0.962 . S
H1756 C1742 0.960 . S
H1757 C1743 0.961 . S
H1758 C1743 0.961 . S
H1759 C1743 0.961 . S
H1760 C1744 0.931 . S
H1761 C1749 0.930 . S
H1762 C1750 0.956 . S
H1763 C1750 0.961 . S
H1764 C1750 0.961 . S
H1765 C1751 0.958 . S
H1766 C1751 0.961 . S
H1767 C1751 0.960 . S
C1768 C1769 1.391 . S
C1768 C1770 1.394 . S
C1768 H1784 0.931 . S
C1769 C1768 1.391 . S
C1769 C1773 1.376 . S
C1770 C1768 1.394 . S
C1770 C1771 1.369 . S
C1770 C1774 1.531 . S
C1771 C1770 1.369 . S
C1771 C1772 1.410 . S
C1771 C1779 1.503 . S
C1772 C1771 1.410 . S
C1772 C1773 1.392 . S
C1772 C1775 1.511 . S
C1773 C1769 1.376 . S
C1773 C1772 1.392 . S
C1773 H1785 0.929 . S
C1774 C1770 1.531 . S
C1774 H1786 0.960 . S
C1774 H1787 0.962 . S
C1774 H1788 0.960 . S
C1775 C1772 1.511 . S
C1775 H1789 0.961 . S
C1775 H1790 0.961 . S
C1775 H1791 0.961 . S
C1776 C1777 1.370 . S
C1776 C1778 1.363 . S
C1776 H1792 0.931 . S
C1777 C1776 1.370 . S
C1777 C1781 1.408 . S
C1778 C1776 1.363 . S
C1778 C1779 1.370 . S
C1778 C1782 1.524 . S
C1779 C1771 1.503 . S
C1779 C1778 1.370 . S
C1779 C1780 1.403 . S
C1780 C1779 1.403 . S
C1780 C1781 1.404 . S
C1780 C1783 1.539 . S
C1781 C1777 1.408 . S
C1781 C1780 1.404 . S
C1781 H1793 0.930 . S
C1782 C1778 1.524 . S
C1782 H1794 0.956 . S
C1782 H1795 0.961 . S
C1782 H1796 0.961 . S
C1783 C1780 1.539 . S
C1783 H1797 0.958 . S
C1783 H1798 0.961 . S
C1783 H1799 0.960 . S
H1784 C1768 0.931 . S
H1785 C1773 0.929 . S
H1786 C1774 0.960 . S
H1787 C1774 0.962 . S
H1788 C1774 0.960 . S
H1789 C1775 0.961 . S
H1790 C1775 0.961 . S
H1791 C1775 0.961 . S
H1792 C1776 0.931 . S
H1793 C1781 0.930 . S
H1794 C1782 0.956 . S
H1795 C1782 0.961 . S
H1796 C1782 0.961 . S
H1797 C1783 0.958 . S
H1798 C1783 0.961 . S
H1799 C1783 0.960 . S
C1800 C1801 1.391 . S
C1800 C1802 1.394 . S
C1800 H1816 0.931 . S
C1801 C1800 1.391 . S
C1801 C1805 1.376 . S
C1802 C1800 1.394 . S
C1802 C1803 1.369 1_565 S
C1802 C1806 1.531 1_565 S
C1803 C1802 1.369 1_545 S
C1803 C1804 1.410 1_545 S
C1803 C1811 1.503 . S
C1804 C1803 1.410 1_565 S
C1804 C1805 1.392 . S
C1804 C1807 1.512 . S
C1805 C1801 1.376 . S
C1805 C1804 1.392 . S
C1805 H1817 0.929 . S
C1806 C1802 1.531 1_545 S
C1806 H1818 0.960 . S
C1806 H1819 0.962 . S
C1806 H1820 0.960 . S
C1807 C1804 1.512 . S
C1807 H1821 0.957 . S
C1807 H1822 0.964 1_565 S
C1807 H1823 0.961 . S
C1808 C1809 1.370 . S
C1808 C1810 1.363 . S
C1808 H1824 0.931 . S
C1809 C1808 1.370 . S
C1809 C1813 1.408 . S
C1810 C1808 1.363 . S
C1810 C1811 1.370 . S
C1810 C1814 1.524 . S
C1811 C1803 1.503 . S
C1811 C1810 1.370 . S
C1811 C1812 1.403 . S
C1812 C1811 1.403 . S
C1812 C1813 1.404 . S
C1812 C1815 1.539 . S
C1813 C1809 1.408 . S
C1813 C1812 1.404 . S
C1813 H1825 0.930 . S
C1814 C1810 1.524 . S
C1814 H1826 0.956 . S
C1814 H1827 0.961 . S
C1814 H1828 0.961 . S
C1815 C1812 1.539 . S
C1815 H1829 0.958 . S
C1815 H1830 0.961 . S
C1815 H1831 0.960 . S
H1816 C1800 0.931 . S
H1817 C1805 0.929 . S
H1818 C1806 0.960 . S
H1819 C1806 0.962 . S
H1820 C1806 0.960 . S
H1821 C1807 0.957 . S
H1822 C1807 0.964 1_545 S
H1823 C1807 0.961 . S
H1824 C1808 0.931 . S
H1825 C1813 0.930 . S
H1826 C1814 0.956 . S
H1827 C1814 0.961 . S
H1828 C1814 0.961 . S
H1829 C1815 0.958 . S
H1830 C1815 0.961 . S
H1831 C1815 0.960 . S
C1832 C1833 1.391 . S
C1832 C1834 1.394 . S
C1832 H1848 0.931 . S
C1833 C1832 1.391 . S
C1833 C1837 1.376 . S
C1834 C1832 1.394 . S
C1834 C1835 1.369 1_455 S
C1834 C1838 1.531 . S
C1835 C1834 1.369 1_655 S
C1835 C1836 1.410 . S
C1835 C1843 1.503 . S
C1836 C1835 1.410 . S
C1836 C1837 1.392 1_655 S
C1836 C1839 1.511 . S
C1837 C1833 1.376 . S
C1837 C1836 1.392 1_455 S
C1837 H1849 0.929 . S
C1838 C1834 1.531 . S
C1838 H1850 0.960 1_455 S
C1838 H1851 0.951 . S
C1838 H1852 0.960 . S
C1839 C1836 1.511 . S
C1839 H1853 0.961 . S
C1839 H1854 0.961 . S
C1839 H1855 0.961 . S
C1840 C1841 1.370 . S
C1840 C1842 1.363 . S
C1840 H1856 0.931 . S
C1841 C1840 1.370 . S
C1841 C1845 1.408 . S
C1842 C1840 1.363 . S
C1842 C1843 1.370 . S
C1842 C1846 1.524 . S
C1843 C1835 1.503 . S
C1843 C1842 1.370 . S
C1843 C1844 1.403 . S
C1844 C1843 1.403 . S
C1844 C1845 1.404 . S
C1844 C1847 1.539 . S
C1845 C1841 1.408 . S
C1845 C1844 1.404 . S
C1845 H1857 0.930 . S
C1846 C1842 1.524 . S
C1846 H1858 0.956 . S
C1846 H1859 0.961 . S
C1846 H1860 0.961 . S
C1847 C1844 1.539 . S
C1847 H1861 0.958 . S
C1847 H1862 0.961 . S
C1847 H1863 0.960 . S
H1848 C1832 0.931 . S
H1849 C1837 0.929 . S
H1850 C1838 0.960 1_655 S
H1851 C1838 0.951 . S
H1852 C1838 0.960 . S
H1853 C1839 0.961 . S
H1854 C1839 0.961 . S
H1855 C1839 0.961 . S
H1856 C1840 0.931 . S
H1857 C1845 0.930 . S
H1858 C1846 0.956 . S
H1859 C1846 0.961 . S
H1860 C1846 0.961 . S
H1861 C1847 0.958 . S
H1862 C1847 0.961 . S
H1863 C1847 0.960 . S
C1864 C1865 1.391 . S
C1864 C1866 1.394 . S
C1864 H1880 0.931 . S
C1865 C1864 1.391 . S
C1865 C1869 1.376 . S
C1866 C1864 1.394 . S
C1866 C1867 1.369 . S
C1866 C1870 1.531 . S
C1867 C1866 1.369 . S
C1867 C1868 1.410 . S
C1867 C1875 1.503 . S
C1868 C1867 1.410 . S
C1868 C1869 1.392 . S
C1868 C1871 1.511 . S
C1869 C1865 1.376 . S
C1869 C1868 1.392 . S
C1869 H1881 0.929 . S
C1870 C1866 1.531 . S
C1870 H1882 0.960 . S
C1870 H1883 0.962 . S
C1870 H1884 0.960 . S
C1871 C1868 1.511 . S
C1871 H1885 0.961 . S
C1871 H1886 0.961 . S
C1871 H1887 0.961 . S
C1872 C1873 1.370 . S
C1872 C1874 1.363 . S
C1872 H1888 0.931 . S
C1873 C1872 1.370 . S
C1873 C1877 1.408 . S
C1874 C1872 1.363 . S
C1874 C1875 1.370 . S
C1874 C1878 1.524 . S
C1875 C1867 1.503 . S
C1875 C1874 1.370 . S
C1875 C1876 1.403 . S
C1876 C1875 1.403 . S
C1876 C1877 1.404 . S
C1876 C1879 1.539 . S
C1877 C1873 1.408 . S
C1877 C1876 1.404 . S
C1877 H1889 0.930 . S
C1878 C1874 1.524 . S
C1878 H1890 0.956 . S
C1878 H1891 0.961 . S
C1878 H1892 0.961 . S
C1879 C1876 1.539 . S
C1879 H1893 0.958 . S
C1879 H1894 0.961 . S
C1879 H1895 0.960 . S
H1880 C1864 0.931 . S
H1881 C1869 0.929 . S
H1882 C1870 0.960 . S
H1883 C1870 0.962 . S
H1884 C1870 0.960 . S
H1885 C1871 0.961 . S
H1886 C1871 0.961 . S
H1887 C1871 0.961 . S
H1888 C1872 0.931 . S
H1889 C1877 0.930 . S
H1890 C1878 0.956 . S
H1891 C1878 0.961 . S
H1892 C1878 0.961 . S
H1893 C1879 0.958 . S
H1894 C1879 0.961 . S
H1895 C1879 0.960 . S
C1896 C1897 1.391 . S
C1896 C1898 1.394 1_455 S
C1896 H1912 0.931 . S
C1897 C1896 1.391 . S
C1897 C1901 1.376 . S
C1898 C1896 1.394 1_655 S
C1898 C1899 1.369 . S
C1898 C1902 1.531 . S
C1899 C1898 1.369 . S
C1899 C1900 1.410 . S
C1899 C1907 1.503 . S
C1900 C1899 1.410 . S
C1900 C1901 1.392 1_655 S
C1900 C1903 1.511 . S
C1901 C1897 1.376 . S
C1901 C1900 1.392 1_455 S
C1901 H1913 0.929 . S
C1902 C1898 1.531 . S
C1902 H1914 0.960 . S
C1902 H1915 0.962 . S
C1902 H1916 0.960 . S
C1903 C1900 1.511 . S
C1903 H1917 0.961 1_655 S
C1903 H1918 0.961 . S
C1903 H1919 0.961 . S
C1904 C1905 1.370 . S
C1904 C1906 1.363 . S
C1904 H1920 0.931 . S
C1905 C1904 1.370 . S
C1905 C1909 1.408 . S
C1906 C1904 1.363 . S
C1906 C1907 1.370 . S
C1906 C1910 1.524 . S
C1907 C1899 1.503 . S
C1907 C1906 1.370 . S
C1907 C1908 1.403 . S
C1908 C1907 1.403 . S
C1908 C1909 1.404 . S
C1908 C1911 1.539 . S
C1909 C1905 1.408 . S
C1909 C1908 1.404 . S
C1909 H1921 0.930 . S
C1910 C1906 1.524 . S
C1910 H1922 0.956 . S
C1910 H1923 0.961 . S
C1910 H1924 0.961 . S
C1911 C1908 1.539 . S
C1911 H1925 0.958 . S
C1911 H1926 0.961 . S
C1911 H1927 0.960 . S
H1912 C1896 0.931 . S
H1913 C1901 0.929 . S
H1914 C1902 0.960 . S
H1915 C1902 0.962 . S
H1916 C1902 0.960 . S
H1917 C1903 0.961 1_455 S
H1918 C1903 0.961 . S
H1919 C1903 0.961 . S
H1920 C1904 0.931 . S
H1921 C1909 0.930 . S
H1922 C1910 0.956 . S
H1923 C1910 0.961 . S
H1924 C1910 0.961 . S
H1925 C1911 0.958 . S
H1926 C1911 0.961 . S
H1927 C1911 0.960 . S
C1928 C1929 1.391 . S
C1928 C1930 1.394 . S
C1928 H1944 0.931 . S
C1929 C1928 1.391 . S
C1929 C1933 1.376 . S
C1930 C1928 1.394 . S
C1930 C1931 1.369 . S
C1930 C1934 1.531 . S
C1931 C1930 1.369 . S
C1931 C1932 1.410 . S
C1931 C1939 1.503 . S
C1932 C1931 1.410 . S
C1932 C1933 1.392 . S
C1932 C1935 1.511 . S
C1933 C1929 1.376 . S
C1933 C1932 1.392 . S
C1933 H1945 0.929 . S
C1934 C1930 1.531 . S
C1934 H1946 0.960 . S
C1934 H1947 0.962 . S
C1934 H1948 0.960 . S
C1935 C1932 1.511 . S
C1935 H1949 0.961 . S
C1935 H1950 0.961 . S
C1935 H1951 0.961 . S
C1936 C1937 1.370 . S
C1936 C1938 1.363 . S
C1936 H1952 0.931 . S
C1937 C1936 1.370 . S
C1937 C1941 1.408 . S
C1938 C1936 1.363 . S
C1938 C1939 1.370 . S
C1938 C1942 1.524 . S
C1939 C1931 1.503 . S
C1939 C1938 1.370 . S
C1939 C1940 1.403 . S
C1940 C1939 1.403 . S
C1940 C1941 1.404 . S
C1940 C1943 1.539 . S
C1941 C1937 1.408 . S
C1941 C1940 1.404 . S
C1941 H1953 0.930 . S
C1942 C1938 1.524 . S
C1942 H1954 0.956 . S
C1942 H1955 0.961 . S
C1942 H1956 0.961 . S
C1943 C1940 1.539 . S
C1943 H1957 0.958 . S
C1943 H1958 0.961 . S
C1943 H1959 0.960 . S
H1944 C1928 0.931 . S
H1945 C1933 0.929 . S
H1946 C1934 0.960 . S
H1947 C1934 0.962 . S
H1948 C1934 0.960 . S
H1949 C1935 0.961 . S
H1950 C1935 0.961 . S
H1951 C1935 0.961 . S
H1952 C1936 0.931 . S
H1953 C1941 0.930 . S
H1954 C1942 0.956 . S
H1955 C1942 0.961 . S
H1956 C1942 0.961 . S
H1957 C1943 0.958 . S
H1958 C1943 0.961 . S
H1959 C1943 0.960 . S
C1960 C1961 1.391 . S
C1960 C1962 1.394 . S
C1960 H1976 0.931 . S
C1961 C1960 1.391 . S
C1961 C1965 1.376 . S
C1962 C1960 1.394 . S
C1962 C1963 1.369 1_565 S
C1962 C1966 1.531 1_565 S
C1963 C1962 1.369 1_545 S
C1963 C1964 1.410 1_545 S
C1963 C1971 1.503 . S
C1964 C1963 1.410 1_565 S
C1964 C1965 1.392 . S
C1964 C1967 1.511 1_565 S
C1965 C1961 1.376 . S
C1965 C1964 1.392 . S
C1965 H1977 0.929 . S
C1966 C1962 1.531 1_545 S
C1966 H1978 0.960 . S
C1966 H1979 0.962 . S
C1966 H1980 0.960 1_545 S
C1967 C1964 1.511 1_545 S
C1967 H1981 0.961 1_545 S
C1967 H1982 0.961 . S
C1967 H1983 0.961 . S
C1968 C1969 1.370 . S
C1968 C1970 1.363 . S
C1968 H1984 0.931 . S
C1969 C1968 1.370 . S
C1969 C1973 1.408 . S
C1970 C1968 1.363 . S
C1970 C1971 1.370 . S
C1970 C1974 1.524 . S
C1971 C1963 1.503 . S
C1971 C1970 1.370 . S
C1971 C1972 1.403 . S
C1972 C1971 1.403 . S
C1972 C1973 1.404 . S
C1972 C1975 1.539 . S
C1973 C1969 1.408 . S
C1973 C1972 1.404 . S
C1973 H1985 0.930 . S
C1974 C1970 1.524 . S
C1974 H1986 0.956 . S
C1974 H1987 0.961 . S
C1974 H1988 0.961 . S
C1975 C1972 1.539 . S
C1975 H1989 0.958 . S
C1975 H1990 0.961 . S
C1975 H1991 0.960 . S
H1976 C1960 0.931 . S
H1977 C1965 0.929 . S
H1978 C1966 0.960 . S
H1979 C1966 0.962 . S
H1980 C1966 0.960 1_565 S
H1981 C1967 0.961 1_565 S
H1982 C1967 0.961 . S
H1983 C1967 0.961 . S
H1984 C1968 0.931 . S
H1985 C1973 0.930 . S
H1986 C1974 0.956 . S
H1987 C1974 0.961 . S
H1988 C1974 0.961 . S
H1989 C1975 0.958 . S
H1990 C1975 0.961 . S
H1991 C1975 0.960 . S
C1992 C1993 1.391 . S
C1992 C1994 1.394 . S
C1992 H2008 0.931 . S
C1993 C1992 1.391 . S
C1993 C1997 1.376 . S
C1994 C1992 1.394 . S
C1994 C1995 1.369 . S
C1994 C1998 1.531 . S
C1995 C1994 1.369 . S
C1995 C1996 1.410 . S
C1995 C2003 1.503 . S
C1996 C1995 1.410 . S
C1996 C1997 1.392 . S
C1996 C1999 1.511 . S
C1997 C1993 1.376 . S
C1997 C1996 1.392 . S
C1997 H2009 0.929 . S
C1998 C1994 1.531 . S
C1998 H2010 0.960 . S
C1998 H2011 0.962 . S
C1998 H2012 0.960 . S
C1999 C1996 1.511 . S
C1999 H2013 0.961 . S
C1999 H2014 0.961 . S
C1999 H2015 0.961 . S
C2000 C2001 1.370 . S
C2000 C2002 1.363 . S
C2000 H2016 0.931 . S
C2001 C2000 1.370 . S
C2001 C2005 1.408 . S
C2002 C2000 1.363 . S
C2002 C2003 1.370 . S
C2002 C2006 1.524 . S
C2003 C1995 1.503 . S
C2003 C2002 1.370 . S
C2003 C2004 1.403 . S
C2004 C2003 1.403 . S
C2004 C2005 1.404 . S
C2004 C2007 1.539 . S
C2005 C2001 1.408 . S
C2005 C2004 1.404 . S
C2005 H2017 0.930 . S
C2006 C2002 1.524 . S
C2006 H2018 0.956 . S
C2006 H2019 0.961 . S
C2006 H2020 0.961 . S
C2007 C2004 1.539 . S
C2007 H2021 0.958 . S
C2007 H2022 0.961 . S
C2007 H2023 0.960 . S
H2008 C1992 0.931 . S
H2009 C1997 0.929 . S
H2010 C1998 0.960 . S
H2011 C1998 0.962 . S
H2012 C1998 0.960 . S
H2013 C1999 0.961 . S
H2014 C1999 0.961 . S
H2015 C1999 0.961 . S
H2016 C2000 0.931 . S
H2017 C2005 0.930 . S
H2018 C2006 0.956 . S
H2019 C2006 0.961 . S
H2020 C2006 0.961 . S
H2021 C2007 0.958 . S
H2022 C2007 0.961 . S
H2023 C2007 0.960 . S
C2024 C2025 1.391 . S
C2024 C2026 1.394 . S
C2024 H2040 0.931 . S
C2025 C2024 1.391 . S
C2025 C2029 1.376 . S
C2026 C2024 1.394 . S
C2026 C2027 1.369 . S
C2026 C2030 1.531 . S
C2027 C2026 1.369 . S
C2027 C2028 1.410 . S
C2027 C2035 1.503 . S
C2028 C2027 1.410 . S
C2028 C2029 1.392 . S
C2028 C2031 1.511 . S
C2029 C2025 1.376 . S
C2029 C2028 1.392 . S
C2029 H2041 0.929 . S
C2030 C2026 1.531 . S
C2030 H2042 0.960 . S
C2030 H2043 0.962 . S
C2030 H2044 0.960 . S
C2031 C2028 1.511 . S
C2031 H2045 0.961 . S
C2031 H2046 0.961 . S
C2031 H2047 0.961 . S
C2032 C2033 1.370 . S
C2032 C2034 1.363 . S
C2032 H2048 0.931 . S
C2033 C2032 1.370 . S
C2033 C2037 1.408 . S
C2034 C2032 1.363 . S
C2034 C2035 1.370 . S
C2034 C2038 1.524 . S
C2035 C2027 1.503 . S
C2035 C2034 1.370 . S
C2035 C2036 1.403 . S
C2036 C2035 1.403 . S
C2036 C2037 1.404 . S
C2036 C2039 1.539 . S
C2037 C2033 1.408 . S
C2037 C2036 1.404 . S
C2037 H2049 0.930 . S
C2038 C2034 1.524 . S
C2038 H2050 0.956 . S
C2038 H2051 0.961 . S
C2038 H2052 0.961 . S
C2039 C2036 1.539 . S
C2039 H2053 0.958 . S
C2039 H2054 0.961 . S
C2039 H2055 0.960 . S
H2040 C2024 0.931 . S
H2041 C2029 0.929 . S
H2042 C2030 0.960 . S
H2043 C2030 0.962 . S
H2044 C2030 0.960 . S
H2045 C2031 0.961 . S
H2046 C2031 0.961 . S
H2047 C2031 0.961 . S
H2048 C2032 0.931 . S
H2049 C2037 0.930 . S
H2050 C2038 0.956 . S
H2051 C2038 0.961 . S
H2052 C2038 0.961 . S
H2053 C2039 0.958 . S
H2054 C2039 0.961 . S
H2055 C2039 0.960 . S
C2056 C2057 1.391 . S
C2056 C2058 1.394 . S
C2056 H2072 0.931 . S
C2057 C2056 1.391 . S
C2057 C2061 1.376 . S
C2058 C2056 1.394 . S
C2058 C2059 1.369 . S
C2058 C2062 1.531 . S
C2059 C2058 1.369 . S
C2059 C2060 1.410 . S
C2059 C2067 1.503 . S
C2060 C2059 1.410 . S
C2060 C2061 1.392 . S
C2060 C2063 1.511 . S
C2061 C2057 1.376 . S
C2061 C2060 1.392 . S
C2061 H2073 0.929 . S
C2062 C2058 1.531 . S
C2062 H2074 0.960 . S
C2062 H2075 0.962 . S
C2062 H2076 0.960 . S
C2063 C2060 1.511 . S
C2063 H2077 0.961 . S
C2063 H2078 0.961 . S
C2063 H2079 0.961 . S
C2064 C2065 1.370 . S
C2064 C2066 1.363 . S
C2064 H2080 0.931 . S
C2065 C2064 1.370 . S
C2065 C2069 1.408 . S
C2066 C2064 1.363 . S
C2066 C2067 1.370 . S
C2066 C2070 1.524 . S
C2067 C2059 1.503 . S
C2067 C2066 1.370 . S
C2067 C2068 1.403 . S
C2068 C2067 1.403 . S
C2068 C2069 1.404 . S
C2068 C2071 1.539 . S
C2069 C2065 1.408 . S
C2069 C2068 1.404 . S
C2069 H2081 0.930 . S
C2070 C2066 1.524 . S
C2070 H2082 0.956 . S
C2070 H2083 0.961 . S
C2070 H2084 0.961 . S
C2071 C2068 1.539 . S
C2071 H2085 0.958 . S
C2071 H2086 0.961 . S
C2071 H2087 0.960 . S
H2072 C2056 0.931 . S
H2073 C2061 0.929 . S
H2074 C2062 0.960 . S
H2075 C2062 0.962 . S
H2076 C2062 0.960 . S
H2077 C2063 0.961 . S
H2078 C2063 0.961 . S
H2079 C2063 0.961 . S
H2080 C2064 0.931 . S
H2081 C2069 0.930 . S
H2082 C2070 0.956 . S
H2083 C2070 0.961 . S
H2084 C2070 0.961 . S
H2085 C2071 0.958 . S
H2086 C2071 0.961 . S
H2087 C2071 0.960 . S
C2088 C2089 1.391 . S
C2088 C2090 1.394 . S
C2088 H2104 0.931 . S
C2089 C2088 1.391 . S
C2089 C2093 1.376 . S
C2090 C2088 1.394 . S
C2090 C2091 1.369 . S
C2090 C2094 1.531 . S
C2091 C2090 1.369 . S
C2091 C2092 1.410 . S
C2091 C2099 1.503 . S
C2092 C2091 1.410 . S
C2092 C2093 1.392 . S
C2092 C2095 1.511 . S
C2093 C2089 1.376 . S
C2093 C2092 1.392 . S
C2093 H2105 0.929 . S
C2094 C2090 1.531 . S
C2094 H2106 0.960 . S
C2094 H2107 0.962 . S
C2094 H2108 0.960 . S
C2095 C2092 1.511 . S
C2095 H2109 0.961 . S
C2095 H2110 0.961 . S
C2095 H2111 0.961 . S
C2096 C2097 1.370 1_545 S
C2096 C2098 1.363 1_545 S
C2096 H2112 0.931 . S
C2097 C2096 1.370 1_565 S
C2097 C2101 1.408 . S
C2098 C2096 1.363 1_565 S
C2098 C2099 1.370 . S
C2098 C2102 1.524 1_565 S
C2099 C2091 1.503 . S
C2099 C2098 1.370 . S
C2099 C2100 1.403 . S
C2100 C2099 1.403 . S
C2100 C2101 1.404 . S
C2100 C2103 1.539 . S
C2101 C2097 1.408 . S
C2101 C2100 1.404 . S
C2101 H2113 0.930 . S
C2102 C2098 1.524 1_545 S
C2102 H2114 0.956 . S
C2102 H2115 0.961 . S
C2102 H2116 0.961 . S
C2103 C2100 1.539 . S
C2103 H2117 0.958 . S
C2103 H2118 0.961 . S
C2103 H2119 0.960 . S
H2104 C2088 0.931 . S
H2105 C2093 0.929 . S
H2106 C2094 0.960 . S
H2107 C2094 0.962 . S
H2108 C2094 0.960 . S
H2109 C2095 0.961 . S
H2110 C2095 0.961 . S
H2111 C2095 0.961 . S
H2112 C2096 0.931 . S
H2113 C2101 0.930 . S
H2114 C2102 0.956 . S
H2115 C2102 0.961 . S
H2116 C2102 0.961 . S
H2117 C2103 0.958 . S
H2118 C2103 0.961 . S
H2119 C2103 0.960 . S
C2120 C2121 1.391 . S
C2120 C2122 1.394 . S
C2120 H2136 0.931 1_455 S
C2121 C2120 1.391 . S
C2121 C2125 1.376 . S
C2122 C2120 1.394 . S
C2122 C2123 1.369 . S
C2122 C2126 1.531 1_455 S
C2123 C2122 1.369 . S
C2123 C2124 1.410 . S
C2123 C2131 1.503 . S
C2124 C2123 1.410 . S
C2124 C2125 1.392 . S
C2124 C2127 1.511 . S
C2125 C2121 1.376 . S
C2125 C2124 1.392 . S
C2125 H2137 0.929 . S
C2126 C2122 1.531 1_655 S
C2126 H2138 0.960 . S
C2126 H2139 0.962 . S
C2126 H2140 0.960 . S
C2127 C2124 1.511 . S
C2127 H2141 0.961 . S
C2127 H2142 0.961 . S
C2127 H2143 0.961 . S
C2128 C2129 1.370 . S
C2128 C2130 1.363 . S
C2128 H2144 0.931 1_455 S
C2129 C2128 1.370 . S
C2129 C2133 1.408 . S
C2130 C2128 1.363 . S
C2130 C2131 1.370 . S
C2130 C2134 1.524 1_455 S
C2131 C2123 1.503 . S
C2131 C2130 1.370 . S
C2131 C2132 1.403 . S
C2132 C2131 1.403 . S
C2132 C2133 1.404 . S
C2132 C2135 1.539 . S
C2133 C2129 1.408 . S
C2133 C2132 1.404 . S
C2133 H2145 0.930 . S
C2134 C2130 1.524 1_655 S
C2134 H2146 0.956 . S
C2134 H2147 0.961 . S
C2134 H2148 0.961 . S
C2135 C2132 1.539 . S
C2135 H2149 0.958 . S
C2135 H2150 0.961 . S
C2135 H2151 0.960 . S
H2136 C2120 0.931 1_655 S
H2137 C2125 0.929 . S
H2138 C2126 0.960 . S
H2139 C2126 0.962 . S
H2140 C2126 0.960 . S
H2141 C2127 0.961 . S
H2142 C2127 0.961 . S
H2143 C2127 0.961 . S
H2144 C2128 0.931 1_655 S
H2145 C2133 0.930 . S
H2146 C2134 0.956 . S
H2147 C2134 0.961 . S
H2148 C2134 0.961 . S
H2149 C2135 0.958 . S
H2150 C2135 0.961 . S
H2151 C2135 0.960 . S
C2152 C2153 1.391 . S
C2152 C2154 1.394 . S
C2152 H2168 0.931 . S
C2153 C2152 1.391 . S
C2153 C2157 1.376 . S
C2154 C2152 1.394 . S
C2154 C2155 1.369 . S
C2154 C2158 1.531 . S
C2155 C2154 1.369 . S
C2155 C2156 1.410 . S
C2155 C2163 1.503 . S
C2156 C2155 1.410 . S
C2156 C2157 1.392 . S
C2156 C2159 1.511 . S
C2157 C2153 1.376 . S
C2157 C2156 1.392 . S
C2157 H2169 0.929 . S
C2158 C2154 1.531 . S
C2158 H2170 0.960 . S
C2158 H2171 0.962 . S
C2158 H2172 0.960 . S
C2159 C2156 1.511 . S
C2159 H2173 0.961 . S
C2159 H2174 0.961 . S
C2159 H2175 0.961 . S
C2160 C2161 1.370 . S
C2160 C2162 1.363 . S
C2160 H2176 0.931 . S
C2161 C2160 1.370 . S
C2161 C2165 1.408 . S
C2162 C2160 1.363 . S
C2162 C2163 1.370 . S
C2162 C2166 1.524 . S
C2163 C2155 1.503 . S
C2163 C2162 1.370 . S
C2163 C2164 1.403 . S
C2164 C2163 1.403 . S
C2164 C2165 1.404 . S
C2164 C2167 1.539 . S
C2165 C2161 1.408 . S
C2165 C2164 1.404 . S
C2165 H2177 0.930 . S
C2166 C2162 1.524 . S
C2166 H2178 0.956 . S
C2166 H2179 0.961 . S
C2166 H2180 0.961 . S
C2167 C2164 1.539 . S
C2167 H2181 0.958 . S
C2167 H2182 0.961 . S
C2167 H2183 0.960 . S
H2168 C2152 0.931 . S
H2169 C2157 0.929 . S
H2170 C2158 0.960 . S
H2171 C2158 0.962 . S
H2172 C2158 0.960 . S
H2173 C2159 0.961 . S
H2174 C2159 0.961 . S
H2175 C2159 0.961 . S
H2176 C2160 0.931 . S
H2177 C2165 0.930 . S
H2178 C2166 0.956 . S
H2179 C2166 0.961 . S
H2180 C2166 0.961 . S
H2181 C2167 0.958 . S
H2182 C2167 0.961 . S
H2183 C2167 0.960 . S
C2184 C2185 1.391 1_455 S
C2184 C2186 1.394 . S
C2184 H2200 0.931 . S
C2185 C2184 1.391 1_655 S
C2185 C2189 1.376 . S
C2186 C2184 1.394 . S
C2186 C2187 1.369 1_455 S
C2186 C2190 1.531 . S
C2187 C2186 1.369 1_655 S
C2187 C2188 1.410 . S
C2187 C2195 1.503 . S
C2188 C2187 1.410 . S
C2188 C2189 1.392 . S
C2188 C2191 1.511 . S
C2189 C2185 1.376 . S
C2189 C2188 1.392 . S
C2189 H2201 0.929 . S
C2190 C2186 1.531 . S
C2190 H2202 0.960 . S
C2190 H2203 0.962 . S
C2190 H2204 0.960 . S
C2191 C2188 1.511 . S
C2191 H2205 0.961 . S
C2191 H2206 0.961 . S
C2191 H2207 0.961 . S
C2192 C2193 1.370 . S
C2192 C2194 1.363 . S
C2192 H2208 0.931 . S
C2193 C2192 1.370 . S
C2193 C2197 1.408 . S
C2194 C2192 1.363 . S
C2194 C2195 1.370 . S
C2194 C2198 1.524 . S
C2195 C2187 1.503 . S
C2195 C2194 1.370 . S
C2195 C2196 1.403 . S
C2196 C2195 1.403 . S
C2196 C2197 1.404 . S
C2196 C2199 1.539 . S
C2197 C2193 1.408 . S
C2197 C2196 1.404 . S
C2197 H2209 0.930 . S
C2198 C2194 1.524 . S
C2198 H2210 0.956 1_655 S
C2198 H2211 0.961 . S
C2198 H2212 0.961 . S
C2199 C2196 1.539 . S
C2199 H2213 0.958 . S
C2199 H2214 0.961 . S
C2199 H2215 0.960 . S
H2200 C2184 0.931 . S
H2201 C2189 0.929 . S
H2202 C2190 0.960 . S
H2203 C2190 0.962 . S
H2204 C2190 0.960 . S
H2205 C2191 0.961 . S
H2206 C2191 0.961 . S
H2207 C2191 0.961 . S
H2208 C2192 0.931 . S
H2209 C2197 0.930 . S
H2210 C2198 0.956 1_455 S
H2211 C2198 0.961 . S
H2212 C2198 0.961 . S
H2213 C2199 0.958 . S
H2214 C2199 0.961 . S
H2215 C2199 0.960 . S
C2216 C2217 1.391 . S
C2216 C2218 1.394 . S
C2216 H2232 0.931 . S
C2217 C2216 1.391 . S
C2217 C2221 1.376 . S
C2218 C2216 1.394 . S
C2218 C2219 1.369 . S
C2218 C2222 1.531 . S
C2219 C2218 1.369 . S
C2219 C2220 1.410 . S
C2219 C2227 1.503 . S
C2220 C2219 1.410 . S
C2220 C2221 1.392 . S
C2220 C2223 1.511 . S
C2221 C2217 1.376 . S
C2221 C2220 1.392 . S
C2221 H2233 0.929 . S
C2222 C2218 1.531 . S
C2222 H2234 0.960 . S
C2222 H2235 0.962 . S
C2222 H2236 0.960 . S
C2223 C2220 1.511 . S
C2223 H2237 0.961 . S
C2223 H2238 0.961 . S
C2223 H2239 0.961 . S
C2224 C2225 1.370 . S
C2224 C2226 1.363 . S
C2224 H2240 0.931 . S
C2225 C2224 1.370 . S
C2225 C2229 1.408 . S
C2226 C2224 1.363 . S
C2226 C2227 1.370 . S
C2226 C2230 1.524 . S
C2227 C2219 1.503 . S
C2227 C2226 1.370 . S
C2227 C2228 1.403 . S
C2228 C2227 1.403 . S
C2228 C2229 1.404 . S
C2228 C2231 1.539 . S
C2229 C2225 1.408 . S
C2229 C2228 1.404 . S
C2229 H2241 0.930 . S
C2230 C2226 1.524 . S
C2230 H2242 0.956 . S
C2230 H2243 0.961 . S
C2230 H2244 0.961 . S
C2231 C2228 1.539 . S
C2231 H2245 0.958 . S
C2231 H2246 0.961 . S
C2231 H2247 0.960 . S
H2232 C2216 0.931 . S
H2233 C2221 0.929 . S
H2234 C2222 0.960 . S
H2235 C2222 0.962 . S
H2236 C2222 0.960 . S
H2237 C2223 0.961 . S
H2238 C2223 0.961 . S
H2239 C2223 0.961 . S
H2240 C2224 0.931 . S
H2241 C2229 0.930 . S
H2242 C2230 0.956 . S
H2243 C2230 0.961 . S
H2244 C2230 0.961 . S
H2245 C2231 0.958 . S
H2246 C2231 0.961 . S
H2247 C2231 0.960 . S
C2248 C2249 1.391 . S
C2248 C2250 1.394 . S
C2248 H2264 0.931 . S
C2249 C2248 1.391 . S
C2249 C2253 1.376 . S
C2250 C2248 1.394 . S
C2250 C2251 1.369 . S
C2250 C2254 1.531 . S
C2251 C2250 1.369 . S
C2251 C2252 1.410 . S
C2251 C2259 1.503 . S
C2252 C2251 1.410 . S
C2252 C2253 1.392 . S
C2252 C2255 1.511 . S
C2253 C2249 1.376 . S
C2253 C2252 1.392 . S
C2253 H2265 0.929 . S
C2254 C2250 1.531 . S
C2254 H2266 0.960 . S
C2254 H2267 0.962 . S
C2254 H2268 0.960 . S
C2255 C2252 1.511 . S
C2255 H2269 0.961 . S
C2255 H2270 0.961 . S
C2255 H2271 0.961 . S
C2256 C2257 1.370 1_565 S
C2256 C2258 1.363 1_565 S
C2256 H2272 0.931 . S
C2257 C2256 1.370 1_545 S
C2257 C2261 1.408 . S
C2258 C2256 1.363 1_545 S
C2258 C2259 1.370 . S
C2258 C2262 1.524 1_545 S
C2259 C2251 1.503 . S
C2259 C2258 1.370 . S
C2259 C2260 1.403 . S
C2260 C2259 1.403 . S
C2260 C2261 1.404 . S
C2260 C2263 1.539 . S
C2261 C2257 1.408 . S
C2261 C2260 1.404 . S
C2261 H2273 0.930 . S
C2262 C2258 1.524 1_565 S
C2262 H2274 0.956 . S
C2262 H2275 0.961 . S
C2262 H2276 0.961 . S
C2263 C2260 1.539 . S
C2263 H2277 0.958 . S
C2263 H2278 0.961 . S
C2263 H2279 0.960 . S
H2264 C2248 0.931 . S
H2265 C2253 0.929 . S
H2266 C2254 0.960 . S
H2267 C2254 0.962 . S
H2268 C2254 0.960 . S
H2269 C2255 0.961 . S
H2270 C2255 0.961 . S
H2271 C2255 0.961 . S
H2272 C2256 0.931 . S
H2273 C2261 0.930 . S
H2274 C2262 0.956 . S
H2275 C2262 0.961 . S
H2276 C2262 0.961 . S
H2277 C2263 0.958 . S
H2278 C2263 0.961 . S
H2279 C2263 0.960 . S
C2280 C2281 1.391 . S
C2280 C2282 1.394 . S
C2280 H2296 0.931 . S
C2281 C2280 1.391 . S
C2281 C2285 1.376 . S
C2282 C2280 1.394 . S
C2282 C2283 1.369 . S
C2282 C2286 1.531 . S
C2283 C2282 1.369 . S
C2283 C2284 1.410 . S
C2283 C2291 1.503 . S
C2284 C2283 1.410 . S
C2284 C2285 1.392 . S
C2284 C2287 1.511 . S
C2285 C2281 1.376 . S
C2285 C2284 1.392 . S
C2285 H2297 0.929 . S
C2286 C2282 1.531 . S
C2286 H2298 0.960 . S
C2286 H2299 0.962 . S
C2286 H2300 0.960 . S
C2287 C2284 1.511 . S
C2287 H2301 0.961 . S
C2287 H2302 0.961 . S
C2287 H2303 0.961 . S
C2288 C2289 1.370 . S
C2288 C2290 1.363 . S
C2288 H2304 0.931 . S
C2289 C2288 1.370 . S
C2289 C2293 1.408 . S
C2290 C2288 1.363 . S
C2290 C2291 1.370 . S
C2290 C2294 1.524 . S
C2291 C2283 1.503 . S
C2291 C2290 1.370 . S
C2291 C2292 1.403 . S
C2292 C2291 1.403 . S
C2292 C2293 1.404 . S
C2292 C2295 1.539 . S
C2293 C2289 1.408 . S
C2293 C2292 1.404 . S
C2293 H2305 0.930 . S
C2294 C2290 1.524 . S
C2294 H2306 0.956 . S
C2294 H2307 0.961 . S
C2294 H2308 0.961 . S
C2295 C2292 1.539 . S
C2295 H2309 0.958 . S
C2295 H2310 0.961 . S
C2295 H2311 0.960 . S
H2296 C2280 0.931 . S
H2297 C2285 0.929 . S
H2298 C2286 0.960 . S
H2299 C2286 0.962 . S
H2300 C2286 0.960 . S
H2301 C2287 0.961 . S
H2302 C2287 0.961 . S
H2303 C2287 0.961 . S
H2304 C2288 0.931 . S
H2305 C2293 0.930 . S
H2306 C2294 0.956 . S
H2307 C2294 0.961 . S
H2308 C2294 0.961 . S
H2309 C2295 0.958 . S
H2310 C2295 0.961 . S
H2311 C2295 0.960 . S
C2312 C2313 1.391 . S
C2312 C2314 1.394 . S
C2312 H2328 0.931 . S
C2313 C2312 1.391 . S
C2313 C2317 1.376 . S
C2314 C2312 1.394 . S
C2314 C2315 1.369 . S
C2314 C2318 1.531 . S
C2315 C2314 1.369 . S
C2315 C2316 1.410 . S
C2315 C2323 1.503 . S
C2316 C2315 1.410 . S
C2316 C2317 1.392 . S
C2316 C2319 1.511 . S
C2317 C2313 1.376 . S
C2317 C2316 1.392 . S
C2317 H2329 0.929 . S
C2318 C2314 1.531 . S
C2318 H2330 0.960 . S
C2318 H2331 0.962 . S
C2318 H2332 0.960 . S
C2319 C2316 1.511 . S
C2319 H2333 0.961 . S
C2319 H2334 0.961 . S
C2319 H2335 0.961 . S
C2320 C2321 1.370 . S
C2320 C2322 1.363 . S
C2320 H2336 0.931 . S
C2321 C2320 1.370 . S
C2321 C2325 1.408 . S
C2322 C2320 1.363 . S
C2322 C2323 1.370 . S
C2322 C2326 1.524 . S
C2323 C2315 1.503 . S
C2323 C2322 1.370 . S
C2323 C2324 1.403 . S
C2324 C2323 1.403 . S
C2324 C2325 1.404 . S
C2324 C2327 1.539 . S
C2325 C2321 1.408 . S
C2325 C2324 1.404 . S
C2325 H2337 0.930 . S
C2326 C2322 1.524 . S
C2326 H2338 0.956 . S
C2326 H2339 0.961 . S
C2326 H2340 0.961 . S
C2327 C2324 1.539 . S
C2327 H2341 0.958 . S
C2327 H2342 0.961 . S
C2327 H2343 0.960 . S
H2328 C2312 0.931 . S
H2329 C2317 0.929 . S
H2330 C2318 0.960 . S
H2331 C2318 0.962 . S
H2332 C2318 0.960 . S
H2333 C2319 0.961 . S
H2334 C2319 0.961 . S
H2335 C2319 0.961 . S
H2336 C2320 0.931 . S
H2337 C2325 0.930 . S
H2338 C2326 0.956 . S
H2339 C2326 0.961 . S
H2340 C2326 0.961 . S
H2341 C2327 0.958 . S
H2342 C2327 0.961 . S
H2343 C2327 0.960 . S
C2344 C2345 1.391 . S
C2344 C2346 1.394 . S
C2344 H2360 0.931 . S
C2345 C2344 1.391 . S
C2345 C2349 1.376 . S
C2346 C2344 1.394 . S
C2346 C2347 1.369 . S
C2346 C2350 1.531 . S
C2347 C2346 1.369 . S
C2347 C2348 1.410 . S
C2347 C2355 1.503 . S
C2348 C2347 1.410 . S
C2348 C2349 1.392 . S
C2348 C2351 1.511 . S
C2349 C2345 1.376 . S
C2349 C2348 1.392 . S
C2349 H2361 0.929 . S
C2350 C2346 1.531 . S
C2350 H2362 0.960 . S
C2350 H2363 0.962 . S
C2350 H2364 0.960 . S
C2351 C2348 1.511 . S
C2351 H2365 0.961 . S
C2351 H2366 0.961 . S
C2351 H2367 0.961 . S
C2352 C2353 1.370 . S
C2352 C2354 1.363 . S
C2352 H2368 0.931 . S
C2353 C2352 1.370 . S
C2353 C2357 1.408 . S
C2354 C2352 1.363 . S
C2354 C2355 1.370 . S
C2354 C2358 1.524 . S
C2355 C2347 1.503 . S
C2355 C2354 1.370 . S
C2355 C2356 1.403 . S
C2356 C2355 1.403 . S
C2356 C2357 1.404 . S
C2356 C2359 1.539 . S
C2357 C2353 1.408 . S
C2357 C2356 1.404 . S
C2357 H2369 0.930 . S
C2358 C2354 1.524 . S
C2358 H2370 0.956 . S
C2358 H2371 0.961 . S
C2358 H2372 0.961 . S
C2359 C2356 1.539 . S
C2359 H2373 0.958 . S
C2359 H2374 0.961 . S
C2359 H2375 0.960 . S
H2360 C2344 0.931 . S
H2361 C2349 0.929 . S
H2362 C2350 0.960 . S
H2363 C2350 0.962 . S
H2364 C2350 0.960 . S
H2365 C2351 0.961 . S
H2366 C2351 0.961 . S
H2367 C2351 0.961 . S
H2368 C2352 0.931 . S
H2369 C2357 0.930 . S
H2370 C2358 0.956 . S
H2371 C2358 0.961 . S
H2372 C2358 0.961 . S
H2373 C2359 0.958 . S
H2374 C2359 0.961 . S
H2375 C2359 0.960 . S
C2376 C2377 1.391 . S
C2376 C2378 1.394 . S
C2376 H2392 0.931 . S
C2377 C2376 1.391 . S
C2377 C2381 1.376 . S
C2378 C2376 1.394 . S
C2378 C2379 1.369 . S
C2378 C2382 1.531 . S
C2379 C2378 1.369 . S
C2379 C2380 1.410 . S
C2379 C2387 1.503 . S
C2380 C2379 1.410 . S
C2380 C2381 1.392 . S
C2380 C2383 1.511 . S
C2381 C2377 1.376 . S
C2381 C2380 1.392 . S
C2381 H2393 0.929 . S
C2382 C2378 1.531 . S
C2382 H2394 0.960 . S
C2382 H2395 0.962 . S
C2382 H2396 0.960 . S
C2383 C2380 1.511 . S
C2383 H2397 0.961 . S
C2383 H2398 0.961 . S
C2383 H2399 0.961 . S
C2384 C2385 1.370 . S
C2384 C2386 1.363 . S
C2384 H2400 0.931 . S
C2385 C2384 1.370 . S
C2385 C2389 1.408 . S
C2386 C2384 1.363 . S
C2386 C2387 1.370 . S
C2386 C2390 1.524 . S
C2387 C2379 1.503 . S
C2387 C2386 1.370 . S
C2387 C2388 1.403 . S
C2388 C2387 1.403 . S
C2388 C2389 1.404 . S
C2388 C2391 1.539 . S
C2389 C2385 1.408 . S
C2389 C2388 1.404 . S
C2389 H2401 0.930 . S
C2390 C2386 1.524 . S
C2390 H2402 0.956 . S
C2390 H2403 0.961 . S
C2390 H2404 0.961 . S
C2391 C2388 1.539 . S
C2391 H2405 0.958 . S
C2391 H2406 0.961 . S
C2391 H2407 0.960 . S
H2392 C2376 0.931 . S
H2393 C2381 0.929 . S
H2394 C2382 0.960 . S
H2395 C2382 0.962 . S
H2396 C2382 0.960 . S
H2397 C2383 0.961 . S
H2398 C2383 0.961 . S
H2399 C2383 0.961 . S
H2400 C2384 0.931 . S
H2401 C2389 0.930 . S
H2402 C2390 0.956 . S
H2403 C2390 0.961 . S
H2404 C2390 0.961 . S
H2405 C2391 0.958 . S
H2406 C2391 0.961 . S
H2407 C2391 0.960 . S
C2408 C2409 1.391 . S
C2408 C2410 1.394 . S
C2408 H2424 0.931 . S
C2409 C2408 1.391 . S
C2409 C2413 1.376 . S
C2410 C2408 1.394 . S
C2410 C2411 1.369 . S
C2410 C2414 1.531 . S
C2411 C2410 1.369 . S
C2411 C2412 1.410 . S
C2411 C2419 1.503 . S
C2412 C2411 1.410 . S
C2412 C2413 1.392 . S
C2412 C2415 1.511 . S
C2413 C2409 1.376 . S
C2413 C2412 1.392 . S
C2413 H2425 0.929 . S
C2414 C2410 1.531 . S
C2414 H2426 0.960 . S
C2414 H2427 0.962 . S
C2414 H2428 0.960 . S
C2415 C2412 1.511 . S
C2415 H2429 0.961 . S
C2415 H2430 0.961 . S
C2415 H2431 0.961 . S
C2416 C2417 1.370 . S
C2416 C2418 1.363 . S
C2416 H2432 0.931 . S
C2417 C2416 1.370 . S
C2417 C2421 1.408 . S
C2418 C2416 1.363 . S
C2418 C2419 1.370 . S
C2418 C2422 1.524 . S
C2419 C2411 1.503 . S
C2419 C2418 1.370 . S
C2419 C2420 1.403 . S
C2420 C2419 1.403 . S
C2420 C2421 1.404 . S
C2420 C2423 1.539 . S
C2421 C2417 1.408 . S
C2421 C2420 1.404 . S
C2421 H2433 0.930 . S
C2422 C2418 1.524 . S
C2422 H2434 0.956 . S
C2422 H2435 0.961 . S
C2422 H2436 0.961 . S
C2423 C2420 1.539 . S
C2423 H2437 0.958 . S
C2423 H2438 0.961 . S
C2423 H2439 0.960 . S
H2424 C2408 0.931 . S
H2425 C2413 0.929 . S
H2426 C2414 0.960 . S
H2427 C2414 0.962 . S
H2428 C2414 0.960 . S
H2429 C2415 0.961 . S
H2430 C2415 0.961 . S
H2431 C2415 0.961 . S
H2432 C2416 0.931 . S
H2433 C2421 0.930 . S
H2434 C2422 0.956 . S
H2435 C2422 0.961 . S
H2436 C2422 0.961 . S
H2437 C2423 0.958 . S
H2438 C2423 0.961 . S
H2439 C2423 0.960 . S
C2440 C2441 1.391 . S
C2440 C2442 1.394 . S
C2440 H2456 0.931 . S
C2441 C2440 1.391 . S
C2441 C2445 1.376 . S
C2442 C2440 1.394 . S
C2442 C2443 1.369 . S
C2442 C2446 1.531 . S
C2443 C2442 1.369 . S
C2443 C2444 1.410 . S
C2443 C2451 1.503 . S
C2444 C2443 1.410 . S
C2444 C2445 1.392 . S
C2444 C2447 1.511 . S
C2445 C2441 1.376 . S
C2445 C2444 1.392 . S
C2445 H2457 0.929 . S
C2446 C2442 1.531 . S
C2446 H2458 0.960 . S
C2446 H2459 0.962 . S
C2446 H2460 0.960 . S
C2447 C2444 1.511 . S
C2447 H2461 0.961 . S
C2447 H2462 0.961 . S
C2447 H2463 0.961 . S
C2448 C2449 1.370 . S
C2448 C2450 1.363 . S
C2448 H2464 0.931 . S
C2449 C2448 1.370 . S
C2449 C2453 1.408 . S
C2450 C2448 1.363 . S
C2450 C2451 1.370 . S
C2450 C2454 1.524 . S
C2451 C2443 1.503 . S
C2451 C2450 1.370 . S
C2451 C2452 1.403 . S
C2452 C2451 1.403 . S
C2452 C2453 1.404 . S
C2452 C2455 1.539 . S
C2453 C2449 1.408 . S
C2453 C2452 1.404 . S
C2453 H2465 0.930 . S
C2454 C2450 1.524 . S
C2454 H2466 0.956 . S
C2454 H2467 0.961 . S
C2454 H2468 0.961 . S
C2455 C2452 1.539 . S
C2455 H2469 0.958 . S
C2455 H2470 0.961 . S
C2455 H2471 0.960 . S
H2456 C2440 0.931 . S
H2457 C2445 0.929 . S
H2458 C2446 0.960 . S
H2459 C2446 0.962 . S
H2460 C2446 0.960 . S
H2461 C2447 0.961 . S
H2462 C2447 0.961 . S
H2463 C2447 0.961 . S
H2464 C2448 0.931 . S
H2465 C2453 0.930 . S
H2466 C2454 0.956 . S
H2467 C2454 0.961 . S
H2468 C2454 0.961 . S
H2469 C2455 0.958 . S
H2470 C2455 0.961 . S
H2471 C2455 0.960 . S
C2472 C2473 1.391 . S
C2472 C2474 1.394 . S
C2472 H2488 0.931 . S
C2473 C2472 1.391 . S
C2473 C2477 1.376 . S
C2474 C2472 1.394 . S
C2474 C2475 1.369 . S
C2474 C2478 1.531 . S
C2475 C2474 1.369 . S
C2475 C2476 1.410 . S
C2475 C2483 1.503 . S
C2476 C2475 1.410 . S
C2476 C2477 1.392 . S
C2476 C2479 1.511 . S
C2477 C2473 1.376 . S
C2477 C2476 1.392 . S
C2477 H2489 0.929 . S
C2478 C2474 1.531 . S
C2478 H2490 0.960 . S
C2478 H2491 0.962 . S
C2478 H2492 0.960 . S
C2479 C2476 1.511 . S
C2479 H2493 0.961 . S
C2479 H2494 0.961 . S
C2479 H2495 0.961 . S
C2480 C2481 1.370 . S
C2480 C2482 1.363 . S
C2480 H2496 0.931 . S
C2481 C2480 1.370 . S
C2481 C2485 1.408 . S
C2482 C2480 1.363 . S
C2482 C2483 1.370 . S
C2482 C2486 1.524 . S
C2483 C2475 1.503 . S
C2483 C2482 1.370 . S
C2483 C2484 1.403 . S
C2484 C2483 1.403 . S
C2484 C2485 1.404 . S
C2484 C2487 1.539 . S
C2485 C2481 1.408 . S
C2485 C2484 1.404 . S
C2485 H2497 0.930 . S
C2486 C2482 1.524 . S
C2486 H2498 0.956 . S
C2486 H2499 0.961 . S
C2486 H2500 0.961 . S
C2487 C2484 1.539 . S
C2487 H2501 0.958 . S
C2487 H2502 0.961 . S
C2487 H2503 0.960 . S
H2488 C2472 0.931 . S
H2489 C2477 0.929 . S
H2490 C2478 0.960 . S
H2491 C2478 0.962 . S
H2492 C2478 0.960 . S
H2493 C2479 0.961 . S
H2494 C2479 0.961 . S
H2495 C2479 0.961 . S
H2496 C2480 0.931 . S
H2497 C2485 0.930 . S
H2498 C2486 0.956 . S
H2499 C2486 0.961 . S
H2500 C2486 0.961 . S
H2501 C2487 0.958 . S
H2502 C2487 0.961 . S
H2503 C2487 0.960 . S
C2504 C2505 1.391 . S
C2504 C2506 1.394 . S
C2504 H2520 0.931 . S
C2505 C2504 1.391 . S
C2505 C2509 1.376 . S
C2506 C2504 1.394 . S
C2506 C2507 1.369 . S
C2506 C2510 1.531 . S
C2507 C2506 1.369 . S
C2507 C2508 1.410 . S
C2507 C2515 1.503 . S
C2508 C2507 1.410 . S
C2508 C2509 1.392 . S
C2508 C2511 1.511 . S
C2509 C2505 1.376 . S
C2509 C2508 1.392 . S
C2509 H2521 0.929 . S
C2510 C2506 1.531 . S
C2510 H2522 0.960 . S
C2510 H2523 0.962 . S
C2510 H2524 0.960 . S
C2511 C2508 1.511 . S
C2511 H2525 0.961 . S
C2511 H2526 0.961 . S
C2511 H2527 0.961 . S
C2512 C2513 1.370 . S
C2512 C2514 1.363 . S
C2512 H2528 0.931 . S
C2513 C2512 1.370 . S
C2513 C2517 1.408 . S
C2514 C2512 1.363 . S
C2514 C2515 1.370 . S
C2514 C2518 1.524 . S
C2515 C2507 1.503 . S
C2515 C2514 1.370 . S
C2515 C2516 1.403 . S
C2516 C2515 1.403 . S
C2516 C2517 1.404 . S
C2516 C2519 1.539 . S
C2517 C2513 1.408 . S
C2517 C2516 1.404 . S
C2517 H2529 0.930 . S
C2518 C2514 1.524 . S
C2518 H2530 0.956 . S
C2518 H2531 0.961 . S
C2518 H2532 0.961 . S
C2519 C2516 1.539 . S
C2519 H2533 0.958 . S
C2519 H2534 0.961 . S
C2519 H2535 0.960 . S
H2520 C2504 0.931 . S
H2521 C2509 0.929 . S
H2522 C2510 0.960 . S
H2523 C2510 0.962 . S
H2524 C2510 0.960 . S
H2525 C2511 0.961 . S
H2526 C2511 0.961 . S
H2527 C2511 0.961 . S
H2528 C2512 0.931 . S
H2529 C2517 0.930 . S
H2530 C2518 0.956 . S
H2531 C2518 0.961 . S
H2532 C2518 0.961 . S
H2533 C2519 0.958 . S
H2534 C2519 0.961 . S
H2535 C2519 0.960 . S
C2536 C2537 1.391 . S
C2536 C2538 1.394 . S
C2536 H2552 0.931 . S
C2537 C2536 1.391 . S
C2537 C2541 1.376 . S
C2538 C2536 1.394 . S
C2538 C2539 1.369 . S
C2538 C2542 1.531 . S
C2539 C2538 1.369 . S
C2539 C2540 1.410 . S
C2539 C2547 1.503 . S
C2540 C2539 1.410 . S
C2540 C2541 1.392 . S
C2540 C2543 1.511 . S
C2541 C2537 1.376 . S
C2541 C2540 1.392 . S
C2541 H2553 0.929 . S
C2542 C2538 1.531 . S
C2542 H2554 0.960 . S
C2542 H2555 0.962 . S
C2542 H2556 0.960 . S
C2543 C2540 1.511 . S
C2543 H2557 0.961 . S
C2543 H2558 0.961 . S
C2543 H2559 0.961 . S
C2544 C2545 1.370 . S
C2544 C2546 1.363 . S
C2544 H2560 0.931 . S
C2545 C2544 1.370 . S
C2545 C2549 1.408 . S
C2546 C2544 1.363 . S
C2546 C2547 1.370 . S
C2546 C2550 1.524 . S
C2547 C2539 1.503 . S
C2547 C2546 1.370 . S
C2547 C2548 1.403 . S
C2548 C2547 1.403 . S
C2548 C2549 1.404 . S
C2548 C2551 1.539 . S
C2549 C2545 1.408 . S
C2549 C2548 1.404 . S
C2549 H2561 0.930 . S
C2550 C2546 1.524 . S
C2550 H2562 0.956 . S
C2550 H2563 0.961 . S
C2550 H2564 0.961 . S
C2551 C2548 1.539 . S
C2551 H2565 0.958 . S
C2551 H2566 0.961 . S
C2551 H2567 0.960 . S
H2552 C2536 0.931 . S
H2553 C2541 0.929 . S
H2554 C2542 0.960 . S
H2555 C2542 0.962 . S
H2556 C2542 0.960 . S
H2557 C2543 0.961 . S
H2558 C2543 0.961 . S
H2559 C2543 0.961 . S
H2560 C2544 0.931 . S
H2561 C2549 0.930 . S
H2562 C2550 0.956 . S
H2563 C2550 0.961 . S
H2564 C2550 0.961 . S
H2565 C2551 0.958 . S
H2566 C2551 0.961 . S
H2567 C2551 0.960 . S
C2568 C2569 1.391 . S
C2568 C2570 1.394 . S
C2568 H2584 0.931 . S
C2569 C2568 1.391 . S
C2569 C2573 1.376 . S
C2570 C2568 1.394 . S
C2570 C2571 1.369 . S
C2570 C2574 1.531 . S
C2571 C2570 1.369 . S
C2571 C2572 1.410 . S
C2571 C2579 1.503 . S
C2572 C2571 1.410 . S
C2572 C2573 1.392 . S
C2572 C2575 1.511 . S
C2573 C2569 1.376 . S
C2573 C2572 1.392 . S
C2573 H2585 0.929 . S
C2574 C2570 1.531 . S
C2574 H2586 0.960 . S
C2574 H2587 0.962 . S
C2574 H2588 0.960 . S
C2575 C2572 1.511 . S
C2575 H2589 0.961 . S
C2575 H2590 0.961 . S
C2575 H2591 0.961 . S
C2576 C2577 1.370 . S
C2576 C2578 1.363 . S
C2576 H2592 0.931 . S
C2577 C2576 1.370 . S
C2577 C2581 1.408 . S
C2578 C2576 1.363 . S
C2578 C2579 1.370 . S
C2578 C2582 1.524 . S
C2579 C2571 1.503 . S
C2579 C2578 1.370 . S
C2579 C2580 1.403 . S
C2580 C2579 1.403 . S
C2580 C2581 1.404 . S
C2580 C2583 1.539 . S
C2581 C2577 1.408 . S
C2581 C2580 1.404 . S
C2581 H2593 0.930 . S
C2582 C2578 1.524 . S
C2582 H2594 0.956 . S
C2582 H2595 0.961 . S
C2582 H2596 0.961 . S
C2583 C2580 1.539 . S
C2583 H2597 0.958 . S
C2583 H2598 0.961 . S
C2583 H2599 0.960 . S
H2584 C2568 0.931 . S
H2585 C2573 0.929 . S
H2586 C2574 0.960 . S
H2587 C2574 0.962 . S
H2588 C2574 0.960 . S
H2589 C2575 0.961 . S
H2590 C2575 0.961 . S
H2591 C2575 0.961 . S
H2592 C2576 0.931 . S
H2593 C2581 0.930 . S
H2594 C2582 0.956 . S
H2595 C2582 0.961 . S
H2596 C2582 0.961 . S
H2597 C2583 0.958 . S
H2598 C2583 0.961 . S
H2599 C2583 0.960 . S
C2600 C2601 1.391 . S
C2600 C2602 1.394 . S
C2600 H2616 0.931 . S
C2601 C2600 1.391 . S
C2601 C2605 1.376 . S
C2602 C2600 1.394 . S
C2602 C2603 1.369 . S
C2602 C2606 1.531 . S
C2603 C2602 1.369 . S
C2603 C2604 1.410 . S
C2603 C2611 1.503 . S
C2604 C2603 1.410 . S
C2604 C2605 1.392 . S
C2604 C2607 1.511 . S
C2605 C2601 1.376 . S
C2605 C2604 1.392 . S
C2605 H2617 0.929 . S
C2606 C2602 1.531 . S
C2606 H2618 0.960 . S
C2606 H2619 0.962 . S
C2606 H2620 0.960 . S
C2607 C2604 1.511 . S
C2607 H2621 0.961 . S
C2607 H2622 0.961 . S
C2607 H2623 0.961 . S
C2608 C2609 1.370 . S
C2608 C2610 1.363 . S
C2608 H2624 0.931 . S
C2609 C2608 1.370 . S
C2609 C2613 1.408 . S
C2610 C2608 1.363 . S
C2610 C2611 1.370 . S
C2610 C2614 1.524 . S
C2611 C2603 1.503 . S
C2611 C2610 1.370 . S
C2611 C2612 1.403 . S
C2612 C2611 1.403 . S
C2612 C2613 1.404 . S
C2612 C2615 1.539 . S
C2613 C2609 1.408 . S
C2613 C2612 1.404 . S
C2613 H2625 0.930 . S
C2614 C2610 1.524 . S
C2614 H2626 0.956 . S
C2614 H2627 0.961 . S
C2614 H2628 0.961 . S
C2615 C2612 1.539 . S
C2615 H2629 0.958 . S
C2615 H2630 0.961 . S
C2615 H2631 0.960 . S
H2616 C2600 0.931 . S
H2617 C2605 0.929 . S
H2618 C2606 0.960 . S
H2619 C2606 0.962 . S
H2620 C2606 0.960 . S
H2621 C2607 0.961 . S
H2622 C2607 0.961 . S
H2623 C2607 0.961 . S
H2624 C2608 0.931 . S
H2625 C2613 0.930 . S
H2626 C2614 0.956 . S
H2627 C2614 0.961 . S
H2628 C2614 0.961 . S
H2629 C2615 0.958 . S
H2630 C2615 0.961 . S
H2631 C2615 0.960 . S
C2632 C2633 1.391 . S
C2632 C2634 1.394 . S
C2632 H2648 0.931 . S
C2633 C2632 1.391 . S
C2633 C2637 1.376 . S
C2634 C2632 1.394 . S
C2634 C2635 1.369 . S
C2634 C2638 1.531 . S
C2635 C2634 1.369 . S
C2635 C2636 1.410 . S
C2635 C2643 1.503 . S
C2636 C2635 1.410 . S
C2636 C2637 1.392 . S
C2636 C2639 1.511 . S
C2637 C2633 1.376 . S
C2637 C2636 1.392 . S
C2637 H2649 0.929 . S
C2638 C2634 1.531 . S
C2638 H2650 0.960 . S
C2638 H2651 0.962 . S
C2638 H2652 0.960 . S
C2639 C2636 1.511 . S
C2639 H2653 0.961 . S
C2639 H2654 0.961 . S
C2639 H2655 0.961 . S
C2640 C2641 1.370 . S
C2640 C2642 1.363 . S
C2640 H2656 0.931 . S
C2641 C2640 1.370 . S
C2641 C2645 1.408 . S
C2642 C2640 1.363 . S
C2642 C2643 1.370 . S
C2642 C2646 1.524 . S
C2643 C2635 1.503 . S
C2643 C2642 1.370 . S
C2643 C2644 1.403 . S
C2644 C2643 1.403 . S
C2644 C2645 1.404 . S
C2644 C2647 1.539 . S
C2645 C2641 1.408 . S
C2645 C2644 1.404 . S
C2645 H2657 0.930 . S
C2646 C2642 1.524 . S
C2646 H2658 0.956 . S
C2646 H2659 0.961 . S
C2646 H2660 0.961 . S
C2647 C2644 1.539 . S
C2647 H2661 0.958 . S
C2647 H2662 0.961 . S
C2647 H2663 0.960 . S
H2648 C2632 0.931 . S
H2649 C2637 0.929 . S
H2650 C2638 0.960 . S
H2651 C2638 0.962 . S
H2652 C2638 0.960 . S
H2653 C2639 0.961 . S
H2654 C2639 0.961 . S
H2655 C2639 0.961 . S
H2656 C2640 0.931 . S
H2657 C2645 0.930 . S
H2658 C2646 0.956 . S
H2659 C2646 0.961 . S
H2660 C2646 0.961 . S
H2661 C2647 0.958 . S
H2662 C2647 0.961 . S
H2663 C2647 0.960 . S
C937 C439 1.485 . S
C945 C585 1.588 . S
C969 C465 1.796 . S
C977 C625 1.767 . S
C1001 C401 1.713 . S
C1009 C664 1.664 . S
C1033 C369 1.552 . S
C1041 C624 1.528 . S
C1073 C665 1.493 . S
C1065 C305 1.508 . S
C1097 C343 1.219 . S
C1105 C584 1.354 1_556 S
C1137 C595 1.623 . S
C1129 C375 1.654 . S
C1169 C635 1.723 . S
C1161 C311 1.754 . S
C1193 C337 1.586 . S
C1201 C674 1.684 . S
C1225 C433 1.450 . S
C1233 C634 1.506 . S
C1257 C471 1.454 . S
C1265 C675 1.441 . S
C1297 C594 1.416 . S
C1289 C407 1.433 . S
C1329 C705 1.572 . S
C1321 C55 1.532 . S
C1353 C81 1.789 . S
C1361 C745 1.759 . S
C1385 C17 1.713 . S
C1393 C784 1.663 . S
C1417 C561 1.556 . S
C1425 C744 1.513 . S
C1449 C497 1.498 . S
C1457 C785 1.475 . S
C1481 C535 1.223 . S
C1489 C704 1.377 . S
C1513 C567 1.663 . S
C1521 C715 1.606 . S
C1545 C503 1.755 . S
C1553 C755 1.724 . S
C1585 C794 1.683 . S
C1577 C529 1.593 . S
C1609 C49 1.495 . S
C1617 C754 1.516 . S
C1649 C795 1.440 . S
C1641 C87 1.455 . S
C1673 C23 1.429 . S
C1681 C714 1.420 . S
C1713 C825 1.579 . S
C1705 C247 1.502 . S
C1737 C273 1.798 . S
C1745 C865 1.772 . S
C1777 C904 1.668 . S
C1769 C209 1.719 . S
C1809 C864 1.506 . S
C1801 C177 1.556 . S
C1841 C905 1.476 . S
C1833 C113 1.503 . S
C1865 C151 1.268 . S
C1873 C824 1.382 . S
C1897 C183 1.663 . S
C1905 C835 1.613 . S
C1929 C119 1.757 . S
C1937 C875 1.727 . S
C1969 C914 1.684 . S
C1961 C145 1.590 . S
C1993 C241 1.471 . S
C2001 C874 1.526 . S
C2025 C279 1.457 . S
C2033 C915 1.438 . S
C2057 C215 1.433 . S
C2065 C834 1.402 . S
C2089 C509 1.369 . S
C2097 C581 1.362 . S
C2129 C621 1.799 . S
C2121 C541 1.666 . S
C2153 C573 1.553 . S
C2161 C671 1.563 . S
C2185 C221 1.815 . S
C2193 C631 1.824 . S
C2217 C253 1.426 . S
C2225 C661 1.538 . S
C2257 C591 1.353 . S
C2249 C285 1.363 . S
C2281 C125 1.323 . S
C2289 C701 1.367 . S
C2313 C157 1.662 . S
C2321 C741 1.799 . S
C2345 C189 1.553 . S
C2353 C791 1.563 . S
C2377 C413 1.825 . S
C2385 C751 1.818 . S
C2417 C781 1.536 . S
C2409 C445 1.496 . S
C2441 C477 1.316 . S
C2449 C711 1.364 . S
C2473 C317 1.364 . S
C2481 C821 1.366 . S
C2505 C349 1.721 . S
C2513 C861 1.795 . S
C2545 C911 1.564 . S
C2537 C381 1.547 . S
C2569 C29 1.826 . S
C2577 C871 1.819 . S
C2601 C61 1.475 . S
C2609 C901 1.536 . S
C2633 C93 1.331 . S
C2641 C831 1.358 . S
