# Generated by pormake.
# Topology pyr, (3,6)-cn, num edge types: 1
# Building blocks:
#     Node 0, Type 0, BuildingBlock: PAMTOO_clean_linker_0, # of connection points: 3
#     Node 1, Type 0, BuildingBlock: PAMTOO_clean_linker_0, # of connection points: 3
#     Node 2, Type 0, BuildingBlock: PAMTOO_clean_linker_0, # of connection points: 3
#     Node 3, Type 0, BuildingBlock: PAMTOO_clean_linker_0, # of connection points: 3
#     Node 4, Type 0, BuildingBlock: PAMTOO_clean_linker_0, # of connection points: 3
#     Node 5, Type 0, BuildingBlock: PAMTOO_clean_linker_0, # of connection points: 3
#     Node 6, Type 0, BuildingBlock: PAMTOO_clean_linker_0, # of connection points: 3
#     Node 7, Type 0, BuildingBlock: PAMTOO_clean_linker_0, # of connection points: 3
#     Node 8, Type 1, BuildingBlock: BETGAK_clean_sbu_0, # of connection points: 6
#     Node 9, Type 1, BuildingBlock: BETGAK_clean_sbu_0, # of connection points: 6
#     Node 10, Type 1, BuildingBlock: BETGAK_clean_sbu_0, # of connection points: 6
#     Node 11, Type 1, BuildingBlock: BETGAK_clean_sbu_0, # of connection points: 6
#     Edge 12, Type (0, 1), BuildingBlock: MIFKUJ_clean_linker_0, # of connection points: 2
#     Edge 13, Type (0, 1), BuildingBlock: MIFKUJ_clean_linker_0, # of connection points: 2
#     Edge 14, Type (0, 1), BuildingBlock: MIFKUJ_clean_linker_0, # of connection points: 2
#     Edge 15, Type (0, 1), BuildingBlock: MIFKUJ_clean_linker_0, # of connection points: 2
#     Edge 16, Type (0, 1), BuildingBlock: MIFKUJ_clean_linker_0, # of connection points: 2
#     Edge 17, Type (0, 1), BuildingBlock: MIFKUJ_clean_linker_0, # of connection points: 2
#     Edge 18, Type (0, 1), BuildingBlock: MIFKUJ_clean_linker_0, # of connection points: 2
#     Edge 19, Type (0, 1), BuildingBlock: MIFKUJ_clean_linker_0, # of connection points: 2
#     Edge 20, Type (0, 1), BuildingBlock: MIFKUJ_clean_linker_0, # of connection points: 2
#     Edge 21, Type (0, 1), BuildingBlock: MIFKUJ_clean_linker_0, # of connection points: 2
#     Edge 22, Type (0, 1), BuildingBlock: MIFKUJ_clean_linker_0, # of connection points: 2
#     Edge 23, Type (0, 1), BuildingBlock: MIFKUJ_clean_linker_0, # of connection points: 2
#     Edge 24, Type (0, 1), BuildingBlock: MIFKUJ_clean_linker_0, # of connection points: 2
#     Edge 25, Type (0, 1), BuildingBlock: MIFKUJ_clean_linker_0, # of connection points: 2
#     Edge 26, Type (0, 1), BuildingBlock: MIFKUJ_clean_linker_0, # of connection points: 2
#     Edge 27, Type (0, 1), BuildingBlock: MIFKUJ_clean_linker_0, # of connection points: 2
#     Edge 28, Type (0, 1), BuildingBlock: MIFKUJ_clean_linker_0, # of connection points: 2
#     Edge 29, Type (0, 1), BuildingBlock: MIFKUJ_clean_linker_0, # of connection points: 2
#     Edge 30, Type (0, 1), BuildingBlock: MIFKUJ_clean_linker_0, # of connection points: 2
#     Edge 31, Type (0, 1), BuildingBlock: MIFKUJ_clean_linker_0, # of connection points: 2
#     Edge 32, Type (0, 1), BuildingBlock: MIFKUJ_clean_linker_0, # of connection points: 2
#     Edge 33, Type (0, 1), BuildingBlock: MIFKUJ_clean_linker_0, # of connection points: 2
#     Edge 34, Type (0, 1), BuildingBlock: MIFKUJ_clean_linker_0, # of connection points: 2
#     Edge 35, Type (0, 1), BuildingBlock: MIFKUJ_clean_linker_0, # of connection points: 2
# Relax obj value: 0.137
# Max RMSD: 0.215
# Mean RMSD: 0.147
data_MOF--net-pyr--node1-BETGAK_clean_sbu_0--node2-PAMTOO_clean_linker_0--edge1-MIFKUJ_clean_linker_0
_symmetry_space_group_name_H-M    P1
_symmetry_Int_Tables_number       1
_symmetry_cell_setting            triclinic
loop_
_symmetry_equiv_pos_as_xyz
'x, y, z'
_cell_length_a     48.123507
_cell_length_b     53.562766
_cell_length_c     48.303385
_cell_angle_alpha  91.492811
_cell_angle_beta   89.869488
_cell_angle_gamma 103.33917
loop_
_atom_site_label
_atom_site_type_symbol
_atom_site_fract_x
_atom_site_fract_y
_atom_site_fract_z
_atom_type_partial_charge
H0 H 0.28736 0.27021 0.23881 0.0
H1 H 0.34266 0.21775 0.22837 0.0
H2 H 0.34278 0.27517 0.16831 0.0
H3 H 0.35339 0.22997 0.13962 0.0
C4 C 0.35277 0.21876 0.15874 0.0
O5 O 0.3626 0.23542 0.18077 0.0
H6 H 0.3302 0.20834 0.16223 0.0
C7 C 0.3043 0.26393 0.22783 0.0
C8 C 0.31444 0.27577 0.20303 0.0
C9 C 0.3143 0.24303 0.23749 0.0
C10 C 0.33468 0.23394 0.22169 0.0
C11 C 0.34466 0.24546 0.19678 0.0
C12 C 0.33495 0.26655 0.18771 0.0
H13 H 0.30892 0.89566 0.65387 0.0
H14 H 0.29874 0.86665 0.56962 0.0
H15 H 0.36658 0.85241 0.61964 0.0
H16 H 0.37339 0.87481 0.5585 0.0
C17 C 0.36098 0.85544 0.55153 0.0
O18 O 0.34138 0.84451 0.57117 0.0
H19 H 0.34949 0.85785 0.5322 0.0
C20 C 0.31565 0.88503 0.63673 0.0
C21 C 0.33951 0.87439 0.63994 0.0
C22 C 0.30071 0.88245 0.61152 0.0
C23 C 0.30968 0.8687 0.58942 0.0
C24 C 0.33333 0.85799 0.59244 0.0
C25 C 0.3483 0.86085 0.61758 0.0
H26 H 0.72874 0.32379 0.90266 0.0
H27 H 0.66263 0.3152 0.84017 0.0
H28 H 0.73194 0.38218 0.84243 0.0
H29 H 0.67207 0.38932 0.8302 0.0
C30 C 0.6666 0.37431 0.81347 0.0
O31 O 0.68616 0.35856 0.81439 0.0
H32 H 0.64504 0.36254 0.81837 0.0
C33 C 0.71895 0.33111 0.88548 0.0
C34 C 0.73329 0.35508 0.87475 0.0
C35 C 0.6932 0.31602 0.87371 0.0
C36 C 0.68208 0.32595 0.84994 0.0
C37 C 0.69592 0.34991 0.8385 0.0
C38 C 0.72139 0.36404 0.85116 0.0
H39 H 0.87788 0.72099 0.40689 0.0
H40 H 0.88016 0.65902 0.34899 0.0
H41 H 0.94716 0.72803 0.34841 0.0
H42 H 0.92556 0.70002 0.29027 0.0
C43 C 0.92298 0.67997 0.29718 0.0
O44 O 0.92929 0.68086 0.32563 0.0
H45 H 0.90011 0.6703 0.29407 0.0
C46 C 0.8879 0.71352 0.38947 0.0
C47 C 0.91387 0.72848 0.37898 0.0
C48 C 0.87507 0.68858 0.37892 0.0
C49 C 0.88932 0.67813 0.35726 0.0
C50 C 0.91524 0.69218 0.3458 0.0
C51 C 0.92728 0.71732 0.35694 0.0
H52 H 0.76773 0.84762 0.853 0.0
H53 H 0.72895 0.8013 0.92046 0.0
H54 H 0.79447 0.77862 0.87264 0.0
H55 H 0.73818 0.74031 0.88893 0.0
C56 C 0.75024 0.74269 0.90887 0.0
O57 O 0.76109 0.76834 0.91549 0.0
H58 H 0.73512 0.73412 0.9253 0.0
C59 C 0.76563 0.83056 0.86516 0.0
C60 C 0.78294 0.81322 0.85929 0.0
C61 C 0.74607 0.82645 0.88713 0.0
C62 C 0.74348 0.80449 0.90306 0.0
C63 C 0.76125 0.7876 0.89799 0.0
C64 C 0.78097 0.79199 0.87629 0.0
H65 H 0.78017 0.14301 0.41742 0.0
H66 H 0.73348 0.19986 0.44067 0.0
H67 H 0.80198 0.18904 0.49209 0.0
H68 H 0.76114 0.20969 0.52815 0.0
C69 C 0.74658 0.20824 0.51005 0.0
O70 O 0.76267 0.21448 0.48646 0.0
H71 H 0.73355 0.18811 0.5088 0.0
C72 C 0.77647 0.1578 0.43177 0.0
C73 C 0.79381 0.16437 0.45538 0.0
C74 C 0.75475 0.17054 0.42617 0.0
C75 C 0.75037 0.19003 0.44449 0.0
C76 C 0.76749 0.19652 0.46819 0.0
C77 C 0.7893 0.184 0.47339 0.0
H78 H 0.38116 0.72954 0.15143 0.0
H79 H 0.37657 0.67331 0.21454 0.0
H80 H 0.44365 0.74183 0.21756 0.0
H81 H 0.46359 0.69577 0.23868 0.0
C82 C 0.44253 0.68335 0.24409 0.0
O83 O 0.42183 0.69792 0.24266 0.0
H84 H 0.43761 0.66774 0.22795 0.0
C85 C 0.38931 0.72357 0.17037 0.0
C86 C 0.41415 0.73956 0.18287 0.0
C87 C 0.37509 0.69961 0.18134 0.0
C88 C 0.38708 0.69118 0.20527 0.0
C89 C 0.41206 0.706 0.21824 0.0
C90 C 0.4252 0.73017 0.20696 0.0
H91 H 0.14222 0.33312 0.74964 0.0
H92 H 0.2081 0.40306 0.74322 0.0
H93 H 0.20582 0.34168 0.68471 0.0
H94 H 0.26323 0.36661 0.70115 0.0
C95 C 0.26111 0.38668 0.70471 0.0
O96 O 0.23297 0.38791 0.69934 0.0
H97 H 0.26579 0.39162 0.72699 0.0
C98 C 0.16087 0.34425 0.73946 0.0
C99 C 0.17266 0.33304 0.71613 0.0
C100 C 0.17294 0.36996 0.74956 0.0
C101 C 0.1978 0.38386 0.73599 0.0
C102 C 0.20982 0.3735 0.71298 0.0
C103 C 0.19686 0.34859 0.70313 0.0
La104 La 0.05089 0.04054 0.52307 0.0
La105 La 0.04074 1.01686 0.57867 0.0
C106 C 0.053 0.06786 0.48118 0.0
C107 C 0.07599 0.08791 0.47003 0.0
C108 C 0.104 0.09079 0.47989 0.0
C109 C 0.12678 0.10648 0.46623 0.0
C110 C 0.12182 0.11981 0.4428 0.0
C111 C 0.0936 0.11824 0.43408 0.0
C112 C 0.07079 0.10219 0.44754 0.0
C113 C 0.09292 0.02193 0.54174 0.0
C114 C 0.06772 0.07674 0.57865 0.0
C115 C 0.03938 0.98918 0.6202 0.0
C116 C 0.01848 0.96727 0.63174 0.0
C117 C 0.99248 0.97063 0.64275 0.0
C118 C 0.9736 0.95039 0.6552 0.0
C119 C 0.98022 0.92628 0.65704 0.0
C120 C 1.00591 0.92268 0.64549 0.0
C121 C 0.0248 0.94299 0.63282 0.0
C122 C 0.99825 0.03466 0.55917 0.0
C123 C 0.02317 0.98089 0.52313 0.0
O124 O 0.05846 0.04506 0.48071 0.0
O125 O 0.04206 0.0732 0.50484 0.0
O126 O 0.08673 0.0226 0.51583 0.0
O127 O 0.07771 0.0335 0.55582 0.0
O128 O 0.0625 0.07523 0.55145 0.0
O129 O 0.06432 0.05543 0.59306 0.0
O130 O 0.032 1.0112 0.62069 0.0
O131 O 0.05176 0.98507 0.59689 0.0
O132 O 1.00325 0.03334 0.58529 0.0
O133 O 0.0143 0.0236 0.54578 0.0
O134 O 0.03008 0.98226 0.54998 0.0
O135 O 0.02514 1.00244 0.50938 0.0
H136 H 0.10834 0.07991 0.49732 0.0
H137 H 0.14836 0.10756 0.47338 0.0
H138 H 0.08934 0.12826 0.41595 0.0
H139 H 0.04928 0.10008 0.43966 0.0
H140 H 0.98681 0.98904 0.64228 0.0
H141 H 0.95422 0.95392 0.66428 0.0
H142 H 0.01145 0.90424 0.64642 0.0
H143 H 0.04451 0.93979 0.62417 0.0
La144 La 0.58302 0.03754 0.0473 0.0
La145 La 0.52887 1.01645 1.00896 0.0
C146 C 0.6256 0.06654 0.07044 0.0
C147 C 0.63357 0.07527 0.09925 0.0
C148 C 0.64763 0.06118 0.1163 0.0
C149 C 0.65458 0.06932 0.14365 0.0
C150 C 0.64778 0.09179 0.15449 0.0
C151 C 0.63413 0.10607 0.13731 0.0
C152 C 0.6272 0.09796 0.10998 0.0
C153 C 0.5512 0.99202 0.06545 0.0
C154 C 0.52345 0.04902 0.06363 0.0
C155 C 0.48506 0.9881 0.9872 0.0
C156 C 0.47546 0.98061 0.95882 0.0
C157 C 0.48971 0.99369 0.93622 0.0
C158 C 0.48087 0.98584 0.90921 0.0
C159 C 0.45776 0.96468 0.90442 0.0
C160 C 0.44367 0.95165 0.92724 0.0
C161 C 0.45246 0.95959 0.95422 0.0
C162 C 0.56085 0.06164 0.99009 0.0
C163 C 0.58809 1.00352 0.99393 0.0
O164 O 0.6242 0.04229 0.06407 0.0
O165 O 0.60438 0.07466 0.05972 0.0
O166 O 0.57492 1.00501 0.07646 0.0
O167 O 0.5469 1.00571 0.04561 0.0
O168 O 0.55153 0.0554 0.06675 0.0
O169 O 0.51032 0.03194 0.04481 0.0
O170 O 0.48702 1.01225 0.9944 0.0
O171 O 0.50714 0.97971 0.99535 0.0
O172 O 0.53779 0.04793 0.97857 0.0
O173 O 0.56475 0.04874 1.01082 0.0
O174 O 0.55994 0.99708 0.9912 0.0
O175 O 0.60153 0.02155 1.0117 0.0
H176 H 0.65321 0.04383 0.10856 0.0
H177 H 0.66558 0.05816 0.15622 0.0
H178 H 0.62841 0.12336 0.1451 0.0
H179 H 0.61663 0.10941 0.09732 0.0
H180 H 0.50768 1.0099 0.93948 0.0
H181 H 0.49198 0.99644 0.89211 0.0
H182 H 0.42614 0.93502 0.92428 0.0
H183 H 0.44147 0.94915 0.97149 0.0
La184 La 0.55909 0.51493 0.51262 0.0
La185 La 0.56226 0.55716 0.54926 0.0
C186 C 0.572 0.47982 0.48299 0.0
C187 C 0.58203 0.45649 0.48814 0.0
C188 C 0.57438 0.43533 0.46979 0.0
C189 C 0.5843 0.41319 0.47412 0.0
C190 C 0.60192 0.41189 0.49699 0.0
C191 C 0.60909 0.43303 0.51557 0.0
C192 C 0.59941 0.45517 0.51108 0.0
C193 C 0.51062 0.5113 0.5409 0.0
C194 C 0.58325 0.51137 0.57501 0.0
C195 C 0.54945 0.59264 0.57832 0.0
C196 C 0.53758 0.6151 0.57285 0.0
C197 C 0.55354 0.63666 0.5593 0.0
C198 C 0.54143 0.65735 0.55378 0.0
C199 C 0.51313 0.65674 0.5615 0.0
C200 C 0.49733 0.63532 0.57526 0.0
C201 C 0.5095 0.61479 0.58102 0.0
C202 C 0.61079 0.56062 0.52125 0.0
C203 C 0.53708 0.56008 0.48715 0.0
O204 O 0.54598 0.47961 0.49088 0.0
O205 O 0.58983 0.50153 0.48956 0.0
O206 O 0.51231 0.50527 0.51488 0.0
O207 O 0.53588 0.51892 0.55025 0.0
O208 O 0.5797 0.50157 0.54931 0.0
O209 O 0.57597 0.53331 0.58069 0.0
O210 O 0.57529 0.59316 0.56956 0.0
O211 O 0.53214 0.57027 0.57357 0.0
O212 O 0.60896 0.56617 0.54738 0.0
O213 O 0.58555 0.55329 0.51162 0.0
O214 O 0.5402 0.5698 0.51293 0.0
O215 O 0.54532 0.53865 0.48136 0.0
H216 H 0.56103 0.43606 0.45194 0.0
H217 H 0.57869 0.39736 0.45924 0.0
H218 H 0.62227 0.43252 0.53361 0.0
H219 H 0.60585 0.47131 0.52539 0.0
H220 H 0.57528 0.6375 0.55277 0.0
H221 H 0.554 0.67365 0.54307 0.0
H222 H 0.47561 0.63456 0.58182 0.0
H223 H 0.49683 0.59853 0.59172 0.0
La224 La 0.05833 0.5 0.04205 0.0
La225 La 0.05089 0.5507 1.01339 0.0
C226 C 0.07509 0.45931 0.04727 0.0
C227 C 0.09537 0.44853 0.06329 0.0
C228 C 0.09183 0.44355 0.09167 0.0
C229 C 0.11098 0.43208 0.10557 0.0
C230 C 0.13384 0.42537 0.09129 0.0
C231 C 0.13751 0.43089 0.06307 0.0
C232 C 0.11842 0.44216 0.04923 0.0
C233 C 0.03808 0.53106 0.07842 0.0
C234 C 0.10754 0.55192 0.05007 0.0
C235 C 0.03552 0.59198 1.00744 0.0
C236 C 0.01707 0.60366 0.99029 0.0
C237 C 0.0114 0.59665 0.96231 0.0
C238 C 0.99267 0.60772 0.94721 0.0
C239 C 0.97931 0.62581 0.95997 0.0
C240 C 0.98515 0.63253 0.98807 0.0
C241 C 1.00389 0.62165 1.00297 0.0
C242 C 0.07046 0.51901 0.97706 0.0
C243 C 1.00143 0.49897 1.00598 0.0
O244 O 0.05218 0.46358 0.05963 0.0
O245 O 0.08677 0.47765 0.03053 0.0
O246 O 0.04245 0.50855 0.08384 0.0
O247 O 0.04505 0.53417 0.0531 0.0
O248 O 0.09954 0.52657 0.05306 0.0
O249 O 0.09141 0.56487 0.03659 0.0
O250 O 0.05872 0.58727 0.99616 0.0
O251 O 0.02215 0.57344 0.02315 0.0
O252 O 0.06617 0.54148 0.9714 0.0
O253 O 0.06391 0.51648 1.00248 0.0
O254 O 1.00942 0.52434 1.00312 0.0
O255 O 0.01765 0.48587 0.01914 0.0
H256 H 0.07416 0.44819 0.103 0.0
H257 H 0.10749 0.4279 0.12729 0.0
H258 H 0.15519 0.42643 0.05157 0.0
H259 H 0.12156 0.44573 0.02733 0.0
H260 H 0.02124 0.58257 0.95225 0.0
H261 H 0.98873 0.60218 0.9256 0.0
H262 H 0.97474 0.64582 0.99885 0.0
H263 H 1.00777 0.62703 0.02466 0.0
H264 H 0.30225 0.19134 0.24775 0.0
H265 H 0.27621 0.16958 0.28687 0.0
H266 H 0.26927 0.24256 0.32264 0.0
H267 H 0.29758 0.26461 0.28498 0.0
H268 H 0.27347 0.21344 0.36222 0.0
H269 H 0.21532 0.2028 0.28013 0.0
H270 H 0.20234 0.19038 0.2315 0.0
H271 H 0.20315 0.11215 0.24797 0.0
H272 H 0.2165 0.12419 0.29664 0.0
H273 H 0.13325 0.16922 0.42518 0.0
H274 H 0.17207 0.18975 0.39425 0.0
H275 H 0.20255 0.12011 0.39032 0.0
H276 H 0.16439 0.09977 0.42171 0.0
H277 H 0.18797 0.14542 0.33642 0.0
H278 H 0.24303 0.15884 0.42167 0.0
H279 H 0.25216 0.17398 0.47016 0.0
H280 H 0.25211 0.25079 0.44686 0.0
H281 H 0.24252 0.236 0.39826 0.0
C282 C 0.29601 0.20288 0.26431 0.0
C283 C 0.30161 0.22979 0.26284 0.0
C284 C 0.28069 0.19034 0.28652 0.0
C285 C 0.26991 0.20436 0.30726 0.0
C286 C 0.27701 0.23125 0.30674 0.0
C287 C 0.2929 0.24384 0.28493 0.0
C288 C 0.24981 0.19114 0.32848 0.0
C289 C 0.25472 0.19867 0.35648 0.0
C290 C 0.22531 0.17175 0.32115 0.0
C291 C 0.21722 0.16445 0.29193 0.0
C292 C 0.21292 0.18298 0.27332 0.0
C293 C 0.20547 0.17601 0.24577 0.0
C294 C 0.20201 0.1505 0.23663 0.0
C295 C 0.2059 0.13191 0.25506 0.0
C296 C 0.2134 0.13879 0.28263 0.0
C297 C 0.14851 0.1585 0.41795 0.0
C298 C 0.14606 0.13305 0.42584 0.0
C299 C 0.1706 0.1702 0.40043 0.0
C300 C 0.19009 0.15638 0.39024 0.0
C301 C 0.18775 0.13103 0.39821 0.0
C302 C 0.16609 0.11953 0.41615 0.0
C303 C 0.21176 0.16783 0.36979 0.0
C304 C 0.20695 0.16 0.342 0.0
C305 C 0.23587 0.18734 0.37722 0.0
C306 C 0.24173 0.19625 0.40639 0.0
C307 C 0.24465 0.1789 0.42693 0.0
C308 C 0.24999 0.18743 0.45443 0.0
C309 C 0.25263 0.21331 0.46161 0.0
C310 C 0.25002 0.23073 0.44128 0.0
C311 C 0.24465 0.22229 0.41376 0.0
H312 H 0.25677 0.21988 0.4829 0.0
H313 H 0.19624 0.14514 0.21529 0.0
H314 H 0.3177 0.86907 0.69205 0.0
H315 H 0.34291 0.88371 0.73542 0.0
H316 H 0.42261 0.90402 0.69129 0.0
H317 H 0.39737 0.88965 0.64753 0.0
H318 H 0.42572 0.88156 0.74529 0.0
H319 H 0.39294 0.94947 0.70287 0.0
H320 H 0.35732 0.9685 0.67994 0.0
H321 H 0.30422 0.95602 0.75215 0.0
H322 H 0.33928 0.93644 0.77532 0.0
H323 H 0.49122 0.96163 0.85897 0.0
H324 H 0.47548 0.94661 0.81208 0.0
H325 H 0.38765 0.93231 0.83854 0.0
H326 H 0.40312 0.94838 0.88502 0.0
H327 H 0.39371 0.95457 0.78999 0.0
H328 H 0.42396 0.88364 0.83091 0.0
H329 H 0.45829 0.86301 0.85375 0.0
H330 H 0.51546 0.88052 0.78489 0.0
H331 H 0.48159 0.90155 0.76179 0.0
C332 C 0.34065 0.87635 0.69162 0.0
C333 C 0.35554 0.87865 0.66641 0.0
C334 C 0.355 0.88461 0.71637 0.0
C335 C 0.38448 0.89531 0.71637 0.0
C336 C 0.39982 0.89586 0.69159 0.0
C337 C 0.3854 0.88761 0.66668 0.0
C338 C 0.39842 0.908 0.74188 0.0
C339 C 0.41916 0.89779 0.75491 0.0
C340 C 0.38952 0.929 0.75439 0.0
C341 C 0.36865 0.94129 0.74075 0.0
C342 C 0.37358 0.95061 0.71379 0.0
C343 C 0.35349 0.96151 0.70075 0.0
C344 C 0.32849 0.96342 0.71456 0.0
C345 C 0.32358 0.95451 0.74147 0.0
C346 C 0.34356 0.94352 0.75458 0.0
C347 C 0.46855 0.95561 0.85471 0.0
C348 C 0.44842 0.95607 0.87578 0.0
C349 C 0.45961 0.94678 0.82798 0.0
C350 C 0.43041 0.938 0.82193 0.0
C351 C 0.4103 0.93889 0.84278 0.0
C352 C 0.41919 0.94785 0.86942 0.0
C353 C 0.42055 0.92773 0.79398 0.0
C354 C 0.40059 0.9385 0.78035 0.0
C355 C 0.43015 0.90723 0.78101 0.0
C356 C 0.45039 0.89441 0.79477 0.0
C357 C 0.44394 0.88325 0.82073 0.0
C358 C 0.4633 0.87146 0.83371 0.0
C359 C 0.48908 0.87053 0.82082 0.0
C360 C 0.4955 0.8813 0.79488 0.0
C361 C 0.47623 0.89314 0.78182 0.0
H362 H 0.50404 0.8614 0.8309 0.0
H363 H 0.31296 0.97185 0.70442 0.0
H364 H 0.6488 0.35269 0.76094 0.0
H365 H 0.63668 0.37416 0.71962 0.0
H366 H 0.66471 0.44754 0.76167 0.0
H367 H 0.67676 0.4262 0.80263 0.0
H368 H 0.61546 0.44668 0.73795 0.0
H369 H 0.70141 0.42462 0.70429 0.0
H370 H 0.7327 0.39552 0.69199 0.0
H371 H 0.66949 0.35394 0.6348 0.0
H372 H 0.63761 0.38257 0.64708 0.0
H373 H 0.60358 0.52904 0.62729 0.0
H374 H 0.61994 0.50593 0.66462 0.0
H375 H 0.60244 0.43675 0.61375 0.0
H376 H 0.58743 0.46032 0.5758 0.0
H377 H 0.6452 0.43359 0.64143 0.0
H378 H 0.55859 0.45216 0.67421 0.0
H379 H 0.52438 0.47862 0.68616 0.0
H380 H 0.58422 0.52278 0.74474 0.0
H381 H 0.61895 0.49679 0.73287 0.0
C382 C 0.65321 0.37345 0.76112 0.0
C383 C 0.66449 0.38749 0.78536 0.0
C384 C 0.64605 0.38588 0.73732 0.0
C385 C 0.64966 0.41289 0.73682 0.0
C386 C 0.66145 0.42684 0.76089 0.0
C387 C 0.66873 0.41449 0.78448 0.0
C388 C 0.64016 0.42666 0.7122 0.0
C389 C 0.62242 0.44397 0.71695 0.0
C390 C 0.64789 0.42285 0.68416 0.0
C391 C 0.66698 0.40557 0.67686 0.0
C392 C 0.69406 0.40913 0.68929 0.0
C393 C 0.71192 0.39274 0.68228 0.0
C394 C 0.70304 0.37284 0.6627 0.0
C395 C 0.6763 0.36932 0.65002 0.0
C396 C 0.65833 0.38564 0.65699 0.0
C397 C 0.60319 0.5089 0.62388 0.0
C398 C 0.59389 0.49683 0.59809 0.0
C399 C 0.61239 0.4954 0.64564 0.0
C400 C 0.61198 0.46891 0.64308 0.0
C401 C 0.60314 0.45695 0.61706 0.0
C402 C 0.59439 0.47059 0.59508 0.0
C403 C 0.6207 0.45393 0.66721 0.0
C404 C 0.63821 0.43635 0.66241 0.0
C405 C 0.61229 0.45704 0.6952 0.0
C406 C 0.59148 0.47269 0.70245 0.0
C407 C 0.56452 0.46762 0.68951 0.0
C408 C 0.54503 0.48253 0.69629 0.0
C409 C 0.55215 0.50242 0.71614 0.0
C410 C 0.57876 0.5074 0.72933 0.0
C411 C 0.59834 0.49257 0.7226 0.0
H412 H 0.53704 0.51393 0.72136 0.0
H413 H 0.7169 0.36018 0.6573 0.0
H414 H 0.95472 0.69789 0.25086 0.0
H415 H 0.97509 0.67444 0.21503 0.0
H416 H 0.95032 0.60534 0.26144 0.0
H417 H 0.92972 0.62903 0.29759 0.0
H418 H 1.00182 0.6066 0.23734 0.0
H419 H 0.91231 0.61768 0.2025 0.0
H420 H 0.8767 0.6419 0.1896 0.0
H421 H 0.93585 0.68506 0.13204 0.0
H422 H 0.97197 0.66133 0.14488 0.0
H423 H 0.01565 0.51772 0.1292 0.0
H424 H 0.99863 0.54314 0.1652 0.0
H425 H 0.018 0.60915 0.11344 0.0
H426 H 0.03485 0.58323 0.07675 0.0
H427 H 0.97064 0.61078 0.14014 0.0
H428 H 0.06001 0.6002 0.17371 0.0
H429 H 0.09657 0.57693 0.18647 0.0
H430 H 0.03966 0.53458 0.24626 0.0
H431 H 1.00256 0.55728 0.23358 0.0
C432 C 0.95409 0.67782 0.25395 0.0
C433 C 0.94087 0.66578 0.27791 0.0
C434 C 0.96553 0.66416 0.23298 0.0
C435 C 0.96418 0.63761 0.23465 0.0
C436 C 0.95191 0.62566 0.25906 0.0
C437 C 0.94023 0.63937 0.28007 0.0
C438 C 0.9749 0.62254 0.21086 0.0
C439 C 0.99457 0.60734 0.2162 0.0
C440 C 0.9666 0.62364 0.18265 0.0
C441 C 0.94494 0.63791 0.17487 0.0
C442 C 0.9178 0.63248 0.18725 0.0
C443 C 0.89751 0.6461 0.17992 0.0
C444 C 0.90404 0.66506 0.16007 0.0
C445 C 0.93084 0.6704 0.14745 0.0
C446 C 0.95123 0.65686 0.15473 0.0
C447 C 0.01634 0.53766 0.1252 0.0
C448 C 0.02672 0.54804 0.09953 0.0
C449 C 1.00669 0.55245 0.14622 0.0
C450 C 1.00727 0.57869 0.14302 0.0
C451 C 0.01715 0.58913 0.1171 0.0
C452 C 0.0268 0.57416 0.09583 0.0
C453 C 0.99748 0.59468 0.1666 0.0
C454 C 0.97798 0.61005 0.16124 0.0
C455 C 1.00613 0.59393 0.19478 0.0
C456 C 0.0284 0.58027 0.20251 0.0
C457 C 0.05521 0.58579 0.18944 0.0
C458 C 0.07604 0.57273 0.19668 0.0
C459 C 0.07042 0.55427 0.21712 0.0
C460 C 0.04397 0.54886 0.23041 0.0
C461 C 0.02303 0.56183 0.22322 0.0
H462 H 0.08658 0.54418 0.22269 0.0
H463 H 0.8883 0.67558 0.15442 0.0
H464 H 0.33584 0.16822 0.14293 0.0
H465 H 0.36568 0.13794 0.13249 0.0
H466 H 0.44104 0.19651 0.1536 0.0
H467 H 0.41121 0.2271 0.16318 0.0
H468 H 0.44886 0.17321 0.10707 0.0
H469 H 0.41421 0.14492 0.19657 0.0
H470 H 0.37792 0.13055 0.23244 0.0
H471 H 0.33955 0.06466 0.1817 0.0
H472 H 0.37536 0.07882 0.14533 0.0
H473 H 0.54235 0.09018 0.09892 0.0
H474 H 0.51379 0.11693 0.12153 0.0
H475 H 0.43678 0.06647 0.08971 0.0
H476 H 0.4651 0.03948 0.06694 0.0
H477 H 0.43157 0.08562 0.14469 0.0
H478 H 0.4641 0.1156 0.0544 0.0
H479 H 0.50089 0.12912 0.01883 0.0
H480 H 0.54324 0.19209 0.07165 0.0
H481 H 0.50705 0.1785 0.10789 0.0
C482 C 0.35874 0.17448 0.14573 0.0
C483 C 0.37118 0.19977 0.15458 0.0
C484 C 0.37577 0.15716 0.13987 0.0
C485 C 0.40558 0.16478 0.14283 0.0
C486 C 0.41807 0.19013 0.15145 0.0
C487 C 0.40104 0.20753 0.15709 0.0
C488 C 0.42377 0.14671 0.13543 0.0
C489 C 0.44539 0.15426 0.11575 0.0
C490 C 0.41884 0.12171 0.14621 0.0
C491 C 0.39736 0.11305 0.16812 0.0
C492 C 0.39791 0.12746 0.19297 0.0
C493 C 0.37744 0.11934 0.21341 0.0
C494 C 0.3564 0.09674 0.20933 0.0
C495 C 0.35584 0.08217 0.18482 0.0
C496 C 0.37624 0.09022 0.1643 0.0
C497 C 0.51932 0.08444 0.0971 0.0
C498 C 0.50604 0.06287 0.08076 0.0
C499 C 0.50305 0.09978 0.11005 0.0
C500 C 0.47326 0.0938 0.10695 0.0
C501 C 0.45977 0.07137 0.09227 0.0
C502 C 0.47603 0.05607 0.07916 0.0
C503 C 0.4565 0.11227 0.11655 0.0
C504 C 0.43514 0.10473 0.13641 0.0
C505 C 0.46163 0.1373 0.10599 0.0
C506 C 0.48305 0.14586 0.08398 0.0
C507 C 0.48138 0.13221 0.05853 0.0
C508 C 0.50212 0.1399 0.03823 0.0
C509 C 0.52441 0.16145 0.04297 0.0
C510 C 0.52597 0.17538 0.06802 0.0
C511 C 0.50537 0.16768 0.08846 0.0
H512 H 0.54045 0.16738 0.02723 0.0
H513 H 0.34057 0.09048 0.22517 0.0
H514 H 0.25004 0.86296 0.58457 0.0
H515 H 0.21126 0.88456 0.57671 0.0
H516 H 0.25718 0.95095 0.62341 0.0
H517 H 0.29638 0.9299 0.63073 0.0
H518 H 0.19741 0.93698 0.6349 0.0
H519 H 0.26237 0.95289 0.5573 0.0
H520 H 0.29023 0.93977 0.51893 0.0
H521 H 0.21307 0.89589 0.48104 0.0
H522 H 0.18478 0.90845 0.51944 0.0
H523 H 0.12804 0.03189 0.58664 0.0
H524 H 0.16057 1.00605 0.60243 0.0
H525 H 0.12755 0.9486 0.53888 0.0
H526 H 0.09698 0.97548 0.52184 0.0
H527 H 0.18027 0.95661 0.53749 0.0
H528 H 0.11406 0.94214 0.61384 0.0
H529 H 0.0863 0.95446 0.65281 0.0
H530 H 0.1637 0.99424 0.69332 0.0
H531 H 0.19199 0.98237 0.65459 0.0
C532 C 0.25192 0.88218 0.5931 0.0
C533 C 0.27637 0.89478 0.6081 0.0
C534 C 0.22968 0.89438 0.5888 0.0
C535 C 0.23151 0.91932 0.59945 0.0
C536 C 0.25536 0.93161 0.61523 0.0
C537 C 0.2777 0.91952 0.6194 0.0
C538 C 0.2096 0.93336 0.59237 0.0
C539 C 0.1936 0.94144 0.61366 0.0
C540 C 0.20454 0.9387 0.56462 0.0
C541 C 0.2215 0.93139 0.54138 0.0
C542 C 0.25137 0.94028 0.5409 0.0
C543 C 0.26723 0.93297 0.51913 0.0
C544 C 0.25344 0.91695 0.4976 0.0
C545 C 0.22373 0.90826 0.49776 0.0
C546 C 0.20778 0.91548 0.51951 0.0
C547 C 0.12781 1.01366 0.57626 0.0
C548 C 0.11052 1.00566 0.55292 0.0
C549 C 0.14611 0.99876 0.58543 0.0
C550 C 0.14635 0.97514 0.57207 0.0
C551 C 0.12798 0.96678 0.54943 0.0
C552 C 0.11053 0.98209 0.53969 0.0
C553 C 0.16724 0.96004 0.57998 0.0
C554 C 0.18345 0.95191 0.55879 0.0
C555 C 0.1722 0.9545 0.60784 0.0
C556 C 0.15514 0.96152 0.63119 0.0
C557 C 0.12516 0.95364 0.63097 0.0
C558 C 0.10933 0.96053 0.65301 0.0
C559 C 0.1232 0.97518 0.67542 0.0
C560 C 0.15297 0.98291 0.67592 0.0
C561 C 0.16893 0.97607 0.65397 0.0
H562 H 0.11088 0.98049 0.69244 0.0
H563 H 0.26575 0.91131 0.48077 0.0
H564 H 0.7477 0.36225 0.93047 0.0
H565 H 0.79221 0.38641 0.95191 0.0
H566 H 0.82676 0.40748 0.87127 0.0
H567 H 0.78236 0.38305 0.84964 0.0
H568 H 0.86761 0.39536 0.90274 0.0
H569 H 0.80321 0.45081 0.91505 0.0
H570 H 0.75885 0.46281 0.92978 0.0
H571 H 0.7753 0.44696 1.01409 0.0
H572 H 0.8196 0.43453 0.9998 0.0
H573 H 0.95894 0.51814 0.98131 0.0
H574 H 0.91445 0.49454 0.95921 0.0
H575 H 0.93526 0.42296 0.97867 0.0
H576 H 0.97977 0.44641 1.00074 0.0
H577 H 0.86705 0.46192 0.97592 0.0
H578 H 0.90778 0.37686 0.92853 0.0
H579 H 0.95277 0.36755 0.91137 0.0
H580 H 0.98454 0.44699 0.89282 0.0
H581 H 0.93961 0.4567 0.90947 0.0
C582 C 0.76473 0.37186 0.91713 0.0
C583 C 0.76092 0.37046 0.88807 0.0
C584 C 0.79033 0.38597 0.92956 0.0
C585 C 0.8133 0.39923 0.91347 0.0
C586 C 0.8097 0.39764 0.88445 0.0
C587 C 0.78397 0.38372 0.87201 0.0
C588 C 0.84081 0.41467 0.92684 0.0
C589 C 0.86731 0.40981 0.91883 0.0
C590 C 0.84116 0.43403 0.94765 0.0
C591 C 0.81457 0.4415 0.95631 0.0
C592 C 0.79725 0.44969 0.9367 0.0
C593 C 0.77214 0.45661 0.94497 0.0
C594 C 0.76422 0.45559 0.97284 0.0
C595 C 0.78144 0.44771 0.99251 0.0
C596 C 0.80657 0.44075 0.98433 0.0
C597 C 0.95416 0.49736 0.98101 0.0
C598 C 0.97343 0.48441 0.99301 0.0
C599 C 0.92844 0.48378 0.96832 0.0
C600 C 0.9211 0.4567 0.96676 0.0
C601 C 0.94018 0.44374 0.979 0.0
C602 C 0.96579 0.4573 0.99187 0.0
C603 C 0.89378 0.44218 0.95232 0.0
C604 C 0.86733 0.4473 0.96003 0.0
C605 C 0.89352 0.42322 0.93106 0.0
C606 C 0.92043 0.41753 0.92053 0.0
C607 C 0.92432 0.39231 0.92068 0.0
C608 C 0.94982 0.38697 0.91106 0.0
C609 C 0.97154 0.40668 0.9011 0.0
C610 C 0.96775 0.43176 0.90063 0.0
C611 C 0.94228 0.43719 0.91018 0.0
H612 H 0.99127 0.40252 0.8937 0.0
H613 H 0.74477 0.46095 0.97921 0.0
H614 H 0.82825 0.70682 0.39584 0.0
H615 H 0.78419 0.68409 0.41764 0.0
H616 H 0.81282 0.61364 0.41199 0.0
H617 H 0.85708 0.63638 0.38974 0.0
H618 H 0.758 0.60167 0.40298 0.0
H619 H 0.81425 0.65152 0.47497 0.0
H620 H 0.84301 0.69056 0.49808 0.0
H621 H 0.77126 0.72555 0.49633 0.0
H622 H 0.74217 0.68683 0.47287 0.0
H623 H 0.66528 0.57867 0.54067 0.0
H624 H 0.70867 0.59789 0.51541 0.0
H625 H 0.66086 0.58699 0.43893 0.0
H626 H 0.61737 0.56695 0.46431 0.0
H627 H 0.72643 0.63836 0.48953 0.0
H628 H 0.70457 0.58603 0.38274 0.0
H629 H 0.67908 0.54402 0.3631 0.0
H630 H 0.68737 0.50869 0.44049 0.0
H631 H 0.71323 0.55041 0.46046 0.0
C632 C 0.82545 0.6865 0.3993 0.0
C633 C 0.84692 0.67377 0.3911 0.0
C634 C 0.79996 0.67338 0.41194 0.0
C635 C 0.79483 0.64695 0.41734 0.0
C636 C 0.81581 0.63396 0.40838 0.0
C637 C 0.84133 0.64709 0.39551 0.0
C638 C 0.76802 0.63321 0.4326 0.0
C639 C 0.75116 0.60985 0.42186 0.0
C640 C 0.75876 0.64311 0.45773 0.0
C641 C 0.77613 0.66638 0.47193 0.0
C642 C 0.80467 0.66761 0.47936 0.0
C643 C 0.82102 0.68967 0.49253 0.0
C644 C 0.80899 0.71055 0.4986 0.0
C645 C 0.78056 0.70938 0.49158 0.0
C646 C 0.76412 0.68738 0.47836 0.0
C647 C 0.66394 0.58009 0.51841 0.0
C648 C 0.63754 0.57102 0.5047 0.0
C649 C 0.68897 0.59133 0.50385 0.0
C650 C 0.68877 0.59407 0.47489 0.0
C651 C 0.66231 0.5849 0.46107 0.0
C652 C 0.6372 0.57343 0.47569 0.0
C653 C 0.71602 0.60699 0.45972 0.0
C654 C 0.73307 0.63022 0.47054 0.0
C655 C 0.72575 0.59662 0.43506 0.0
C656 C 0.71055 0.5714 0.42316 0.0
C657 C 0.70103 0.56928 0.39552 0.0
C658 C 0.68651 0.54552 0.38434 0.0
C659 C 0.68152 0.52372 0.40056 0.0
C660 C 0.69115 0.5256 0.42797 0.0
C661 C 0.70572 0.54931 0.43924 0.0
H662 H 0.67025 0.50535 0.39188 0.0
H663 H 0.82169 0.72761 0.50881 0.0
H664 H 0.29581 0.27991 0.15046 0.0
H665 H 0.26946 0.31047 0.13394 0.0
H666 H 0.27689 0.34788 0.21469 0.0
H667 H 0.30316 0.31713 0.23142 0.0
H668 H 0.2234 0.33819 0.19687 0.0
H669 H 0.31392 0.37744 0.15893 0.0
H670 H 0.35863 0.37942 0.13319 0.0
H671 H 0.31077 0.35426 0.05866 0.0
H672 H 0.26572 0.35176 0.08403 0.0
H673 H 0.15746 0.43509 0.14332 0.0
H674 H 0.19156 0.41387 0.16509 0.0
H675 H 0.18901 0.36486 0.09241 0.0
H676 H 0.15475 0.38549 0.07082 0.0
H677 H 0.24378 0.38606 0.1098 0.0
H678 H 0.15376 0.34214 0.14923 0.0
H679 H 0.10892 0.33954 0.17498 0.0
H680 H 0.15649 0.37381 0.24689 0.0
H681 H 0.20163 0.37693 0.22141 0.0
C682 C 0.29242 0.29501 0.16451 0.0
C683 C 0.30158 0.29618 0.1922 0.0
C684 C 0.27733 0.31246 0.15507 0.0
C685 C 0.27141 0.33161 0.17303 0.0
C686 C 0.2812 0.33325 0.2005 0.0
C687 C 0.29619 0.31571 0.21001 0.0
C688 C 0.25335 0.34871 0.16352 0.0
C689 C 0.22819 0.34912 0.17815 0.0
C690 C 0.25935 0.36262 0.13887 0.0
C691 C 0.28641 0.36425 0.12346 0.0
C692 C 0.31291 0.37216 0.13709 0.0
C693 C 0.33832 0.3734 0.12256 0.0
C694 C 0.33754 0.36693 0.09431 0.0
C695 C 0.31134 0.35926 0.08054 0.0
C696 C 0.28586 0.35796 0.09498 0.0
C697 C 0.16394 0.41959 0.13214 0.0
C698 C 0.15357 0.4121 0.10527 0.0
C699 C 0.18349 0.40759 0.14454 0.0
C700 C 0.19285 0.38788 0.13027 0.0
C701 C 0.18228 0.38022 0.10362 0.0
C702 C 0.16275 0.39209 0.09131 0.0
C703 C 0.21368 0.37505 0.14284 0.0
C704 C 0.23932 0.37547 0.12877 0.0
C705 C 0.20816 0.36194 0.16801 0.0
C706 C 0.18104 0.36007 0.18332 0.0
C707 C 0.15465 0.34934 0.17045 0.0
C708 C 0.12918 0.34773 0.18501 0.0
C709 C 0.12985 0.35659 0.21252 0.0
C710 C 0.156 0.36701 0.22556 0.0
C711 C 0.18153 0.3687 0.21107 0.0
H712 H 0.11011 0.35531 0.22376 0.0
H713 H 0.35724 0.3679 0.0831 0.0
H714 H 0.69434 0.29972 0.92832 0.0
H715 H 0.67408 0.258 0.94773 0.0
H716 H 0.63687 0.23029 0.86869 0.0
H717 H 0.65817 0.27185 0.8485 0.0
H718 H 0.59843 0.21392 0.91049 0.0
H719 H 0.69653 0.21181 0.89465 0.0
H720 H 0.74875 0.22761 0.89871 0.0
H721 H 0.74291 0.22326 0.98724 0.0
H722 H 0.69058 0.20776 0.98374 0.0
H723 H 0.55517 0.08187 0.93997 0.0
H724 H 0.57761 0.12358 0.92169 0.0
H725 H 0.62523 0.14375 0.99762 0.0
H726 H 0.60326 0.10104 0.01567 0.0
H727 H 0.65867 0.16498 0.95886 0.0
H728 H 0.56256 0.16876 0.9769 0.0
H729 H 0.50996 0.15539 0.97553 0.0
H730 H 0.51123 0.15904 0.88685 0.0
H731 H 0.56386 0.17233 0.88766 0.0
C732 C 0.68242 0.28486 0.91454 0.0
C733 C 0.67877 0.28995 0.88623 0.0
C734 C 0.6705 0.26065 0.92599 0.0
C735 C 0.65398 0.24022 0.90992 0.0
C736 C 0.64947 0.24531 0.88191 0.0
C737 C 0.66171 0.2695 0.87029 0.0
C738 C 0.64142 0.21389 0.92234 0.0
C739 C 0.61181 0.20315 0.92066 0.0
C740 C 0.65817 0.19966 0.9368 0.0
C741 C 0.68961 0.20887 0.93894 0.0
C742 C 0.70636 0.21441 0.915 0.0
C743 C 0.73598 0.22328 0.9172 0.0
C744 C 0.74913 0.22651 0.94322 0.0
C745 C 0.73269 0.22079 0.9671 0.0
C746 C 0.70305 0.21195 0.96502 0.0
C747 C 0.57051 0.09502 0.95295 0.0
C748 C 0.57708 0.08758 0.97956 0.0
C749 C 0.58327 0.11934 0.94243 0.0
C750 C 0.6029 0.13793 0.9582 0.0
C751 C 0.61015 0.13035 0.98466 0.0
C752 C 0.59749 0.10566 0.99515 0.0
C753 C 0.61557 0.16478 0.94683 0.0
C754 C 0.64521 0.17568 0.94871 0.0
C755 C 0.59876 0.17942 0.93296 0.0
C756 C 0.56716 0.1713 0.93234 0.0
C757 C 0.55162 0.16654 0.9571 0.0
C758 C 0.52182 0.159 0.95643 0.0
C759 C 0.50728 0.15625 0.93113 0.0
C760 C 0.52252 0.16113 0.90644 0.0
C761 C 0.55234 0.16872 0.90699 0.0
H762 H 0.4842 0.15041 0.93066 0.0
H763 H 0.77206 0.23337 0.94488 0.0
H764 H 0.88555 0.76425 0.40119 0.0
H765 H 0.9047 0.80531 0.42483 0.0
H766 H 0.99024 0.79665 0.40995 0.0
H767 H 0.97111 0.75495 0.3866 0.0
H768 H 0.93351 0.82061 0.47012 0.0
H769 H 0.03734 0.85655 0.40854 0.0
H770 H 0.05633 0.85251 0.36154 0.0
H771 H 0.97129 0.83641 0.32805 0.0
H772 H 0.95184 0.84067 0.37477 0.0
H773 H 0.01668 0.93172 0.54352 0.0
H774 H 0.99994 0.8901 0.51942 0.0
H775 H 0.98769 0.92862 0.44481 0.0
H776 H 1.00496 0.97024 0.46869 0.0
H777 H 1.00741 0.88978 0.4292 0.0
H778 H 0.93045 0.89607 0.49045 0.0
H779 H 0.90798 0.9018 0.53541 0.0
H780 H 0.93333 0.83589 0.56624 0.0
H781 H 0.95626 0.82996 0.52156 0.0
C782 C 0.90851 0.77065 0.40304 0.0
C783 C 0.92646 0.75535 0.39185 0.0
C784 C 0.91956 0.79458 0.4167 0.0
C785 C 0.94918 0.8048 0.4196 0.0
C786 C 0.96731 0.78988 0.40805 0.0
C787 C 0.95622 0.76575 0.39444 0.0
C788 C 0.96064 0.83075 0.43473 0.0
C789 C 0.94983 0.83556 0.46107 0.0
C790 C 0.98168 0.85105 0.42337 0.0
C791 C 0.99314 0.84863 0.39519 0.0
C792 C 0.02272 0.85221 0.39112 0.0
C793 C 0.03355 0.84988 0.36454 0.0
C794 C 0.01502 0.84411 0.34184 0.0
C795 C 0.98561 0.84076 0.34566 0.0
C796 C 0.97467 0.8431 0.37219 0.0
C797 C 1.01035 0.93147 0.522 0.0
C798 C 0.01219 0.95486 0.5084 0.0
C799 C 1.00053 0.90737 0.50808 0.0
C800 C 0.99186 0.90549 0.47996 0.0
C801 C 0.99403 0.92889 0.46633 0.0
C802 C 1.00389 0.95298 0.48021 0.0
C803 C 0.98063 0.87949 0.46482 0.0
C804 C 0.99136 0.87472 0.43842 0.0
C805 C 0.95924 0.85931 0.47597 0.0
C806 C 0.94531 0.86273 0.50276 0.0
C807 C 0.93138 0.8829 0.50688 0.0
C808 C 0.91855 0.88617 0.5323 0.0
C809 C 0.9193 0.86926 0.55369 0.0
C810 C 0.93281 0.84899 0.54967 0.0
C811 C 0.9457 0.84566 0.52429 0.0
H812 H 0.90937 0.87183 0.57336 0.0
H813 H 0.02345 0.8423 0.32128 0.0
H814 H 0.34933 0.8104 0.52183 0.0
H815 H 0.37813 0.77815 0.51875 0.0
H816 H 0.44464 0.82808 0.5671 0.0
H817 H 0.41568 0.86025 0.5705 0.0
H818 H 0.46433 0.80056 0.52056 0.0
H819 H 0.40267 0.78655 0.60034 0.0
H820 H 0.35636 0.78055 0.62422 0.0
H821 H 0.32303 0.713 0.57397 0.0
H822 H 0.36902 0.71888 0.54941 0.0
H823 H 0.53563 0.70786 0.57108 0.0
H824 H 0.51217 0.74326 0.56442 0.0
H825 H 0.43768 0.68972 0.53155 0.0
H826 H 0.46087 0.65429 0.53869 0.0
H827 H 0.42251 0.71996 0.56891 0.0
H828 H 0.48389 0.73241 0.48985 0.0
H829 H 0.52951 0.73837 0.46472 0.0
H830 H 0.56287 0.80792 0.51179 0.0
H831 H 0.51755 0.8022 0.53747 0.0
C832 C 0.37039 0.81465 0.53121 0.0
C833 C 0.38055 0.8378 0.54608 0.0
C834 C 0.38673 0.79628 0.52952 0.0
C835 C 0.41342 0.80082 0.54274 0.0
C836 C 0.42417 0.8244 0.5566 0.0
C837 C 0.40768 0.84269 0.55853 0.0
C838 C 0.4288 0.78004 0.54425 0.0
C839 C 0.45542 0.783 0.53132 0.0
C840 C 0.41676 0.75704 0.55788 0.0
C841 C 0.38918 0.75332 0.57282 0.0
C842 C 0.38538 0.77055 0.5942 0.0
C843 C 0.3592 0.76715 0.60789 0.0
C844 C 0.33674 0.74644 0.60057 0.0
C845 C 0.34044 0.72905 0.57959 0.0
C846 C 0.36655 0.73241 0.56578 0.0
C847 C 0.51441 0.70376 0.56207 0.0
C848 C 0.49997 0.67839 0.55551 0.0
C849 C 0.50105 0.72397 0.55821 0.0
C850 C 0.47324 0.71915 0.54729 0.0
C851 C 0.45911 0.69386 0.54009 0.0
C852 C 0.47233 0.67366 0.54421 0.0
C853 C 0.45813 0.74019 0.54494 0.0
C854 C 0.4315 0.73738 0.55792 0.0
C855 C 0.47015 0.76321 0.53121 0.0
C856 C 0.49741 0.76674 0.51576 0.0
C857 C 0.50103 0.74887 0.495 0.0
C858 C 0.52682 0.75223 0.48062 0.0
C859 C 0.5491 0.77348 0.48671 0.0
C860 C 0.54561 0.79146 0.50712 0.0
C861 C 0.51986 0.78818 0.52157 0.0
H862 H 0.56905 0.77604 0.47556 0.0
H863 H 0.31649 0.74383 0.6112 0.0
H864 H 0.83778 0.8066 0.85823 0.0
H865 H 0.87241 0.81648 0.82069 0.0
H866 H 0.81015 0.84143 0.77091 0.0
H867 H 0.77491 0.83029 0.80769 0.0
H868 H 0.84135 0.81641 0.73936 0.0
H869 H 0.86037 0.88453 0.80961 0.0
H870 H 0.87056 0.90204 0.8572 0.0
H871 H 0.94692 0.87352 0.85898 0.0
H872 H 0.93698 0.85559 0.81147 0.0
H873 H 0.92195 0.91218 0.65502 0.0
H874 H 0.89036 0.88412 0.68656 0.0
H875 H 0.96331 0.86563 0.72575 0.0
H876 H 0.99516 0.8945 0.69482 0.0
H877 H 0.93022 0.8813 0.76284 0.0
H878 H 0.91456 0.81995 0.6881 0.0
H879 H 0.90394 0.80425 0.63998 0.0
H880 H 0.82105 0.82104 0.64565 0.0
H881 H 0.83131 0.83723 0.69368 0.0
C882 C 0.83123 0.81365 0.83908 0.0
C883 C 0.80363 0.81787 0.83606 0.0
C884 C 0.85114 0.81949 0.81775 0.0
C885 C 0.84401 0.83006 0.79321 0.0
C886 C 0.81616 0.83336 0.78971 0.0
C887 C 0.79615 0.8273 0.8109 0.0
C888 C 0.86599 0.83939 0.77198 0.0
C889 C 0.86076 0.83066 0.7444 0.0
C890 C 0.89163 0.85749 0.77872 0.0
C891 C 0.8978 0.86852 0.80713 0.0
C892 C 0.87925 0.88188 0.82022 0.0
C893 C 0.88498 0.89189 0.84716 0.0
C894 C 0.90933 0.88884 0.86113 0.0
C895 C 0.92805 0.87584 0.84815 0.0
C896 C 0.92239 0.86577 0.82121 0.0
C897 C 0.93125 0.90189 0.67013 0.0
C898 C 0.96105 0.90574 0.67263 0.0
C899 C 0.91315 0.88562 0.68796 0.0
C900 C 0.92445 0.87264 0.70844 0.0
C901 C 0.95414 0.87541 0.71005 0.0
C902 C 0.9723 0.89176 0.69223 0.0
C903 C 0.90546 0.85867 0.73 0.0
C904 C 0.91117 0.86662 0.75773 0.0
C905 C 0.88023 0.83999 0.72329 0.0
C906 C 0.87379 0.82995 0.69449 0.0
C907 C 0.89413 0.82045 0.67905 0.0
C908 C 0.88816 0.81144 0.65178 0.0
C909 C 0.86185 0.81168 0.63975 0.0
C910 C 0.84142 0.82087 0.655 0.0
C911 C 0.84729 0.82992 0.68227 0.0
H912 H 0.85729 0.80472 0.61863 0.0
H913 H 0.91373 0.89659 0.882 0.0
H914 H 0.74415 0.20195 0.38593 0.0
H915 H 0.72066 0.18889 0.34118 0.0
H916 H 0.70204 0.10971 0.36528 0.0
H917 H 0.72622 0.12269 0.40959 0.0
H918 H 0.72601 0.11381 0.31711 0.0
H919 H 0.64915 0.14457 0.3582 0.0
H920 H 0.62648 0.17572 0.38246 0.0
H921 H 0.65031 0.22846 0.3164 0.0
H922 H 0.6735 0.19777 0.29191 0.0
H923 H 0.64201 0.06226 0.20042 0.0
H924 H 0.65559 0.07618 0.24808 0.0
H925 H 0.68299 0.15448 0.22218 0.0
H926 H 0.66972 0.14069 0.17438 0.0
H927 H 0.65292 0.15062 0.27135 0.0
H928 H 0.73143 0.12022 0.23173 0.0
H929 H 0.75388 0.08884 0.2076 0.0
H930 H 0.72609 0.0349 0.27187 0.0
H931 H 0.70311 0.06586 0.29619 0.0
C932 C 0.73451 0.18184 0.38179 0.0
C933 C 0.73706 0.16328 0.401 0.0
C934 C 0.72104 0.17439 0.35629 0.0
C935 C 0.70948 0.1483 0.34989 0.0
C936 C 0.71092 0.12991 0.36969 0.0
C937 C 0.72467 0.13732 0.39497 0.0
C938 C 0.69811 0.13987 0.3218 0.0
C939 C 0.70963 0.12155 0.30736 0.0
C940 C 0.67734 0.15049 0.30872 0.0
C941 C 0.6633 0.16895 0.32334 0.0
C942 C 0.64976 0.16289 0.34894 0.0
C943 C 0.63678 0.18045 0.36272 0.0
C944 C 0.63702 0.20408 0.35101 0.0
C945 C 0.65017 0.21016 0.32546 0.0
C946 C 0.66321 0.19268 0.31161 0.0
C947 C 0.65106 0.08242 0.20484 0.0
C948 C 0.65502 0.10034 0.18359 0.0
C949 C 0.65866 0.09036 0.23208 0.0
C950 C 0.67052 0.11632 0.23856 0.0
C951 C 0.67378 0.13436 0.21758 0.0
C952 C 0.66618 0.12645 0.19031 0.0
C953 C 0.68067 0.12447 0.26701 0.0
C954 C 0.66909 0.1428 0.28135 0.0
C955 C 0.70133 0.11382 0.28013 0.0
C956 C 0.71531 0.09526 0.26563 0.0
C957 C 0.72993 0.1016 0.24061 0.0
C958 C 0.74277 0.0839 0.22691 0.0
C959 C 0.74135 0.05986 0.23816 0.0
C960 C 0.72714 0.05351 0.26317 0.0
C961 C 0.71422 0.07113 0.27692 0.0
H962 H 0.75131 0.04619 0.22753 0.0
H963 H 0.62696 0.21765 0.36171 0.0
H964 H 0.45674 0.70713 0.29644 0.0
H965 H 0.46995 0.68831 0.33904 0.0
H966 H 0.45248 0.61379 0.29823 0.0
H967 H 0.43837 0.6324 0.25639 0.0
H968 H 0.43803 0.60453 0.34722 0.0
H969 H 0.52463 0.6574 0.31205 0.0
H970 H 0.55694 0.69727 0.29656 0.0
H971 H 0.55107 0.73298 0.37632 0.0
H972 H 0.51844 0.6934 0.39217 0.0
H973 H 0.52079 0.54223 0.43399 0.0
H974 H 0.50279 0.56382 0.39624 0.0
H975 H 0.5088 0.63107 0.44872 0.0
H976 H 0.5267 0.60935 0.48686 0.0
H977 H 0.52788 0.64545 0.39645 0.0
H978 H 0.44338 0.59039 0.4319 0.0
H979 H 0.41267 0.5495 0.44676 0.0
H980 H 0.41634 0.51681 0.3651 0.0
H981 H 0.44743 0.55741 0.34983 0.0
C982 C 0.45499 0.68662 0.29676 0.0
C983 C 0.44578 0.67143 0.2727 0.0
C984 C 0.46315 0.67577 0.32119 0.0
C985 C 0.46309 0.64931 0.32245 0.0
C986 C 0.45301 0.63412 0.2986 0.0
C987 C 0.44469 0.6449 0.27438 0.0
C988 C 0.47367 0.63734 0.34793 0.0
C989 C 0.45791 0.61354 0.35757 0.0
C990 C 0.49936 0.64873 0.36266 0.0
C991 C 0.51883 0.67256 0.35317 0.0
C992 C 0.53006 0.67383 0.32621 0.0
C993 C 0.54846 0.69636 0.31738 0.0
C994 C 0.55598 0.71768 0.33541 0.0
C995 C 0.54517 0.71648 0.36235 0.0
C996 C 0.52674 0.694 0.37127 0.0
C997 C 0.51824 0.56159 0.43776 0.0
C998 C 0.5253 0.57373 0.46399 0.0
C999 C 0.50774 0.57404 0.4159 0.0
C1000 C 0.50393 0.59933 0.41909 0.0
C1001 C 0.51129 0.61166 0.4452 0.0
C1002 C 0.5215 0.59906 0.46725 0.0
C1003 C 0.49239 0.61262 0.39531 0.0
C1004 C 0.50797 0.63657 0.38605 0.0
C1005 C 0.46671 0.60128 0.38073 0.0
C1006 C 0.44795 0.57687 0.3898 0.0
C1007 C 0.43782 0.57442 0.41716 0.0
C1008 C 0.42032 0.55131 0.42565 0.0
C1009 C 0.41262 0.53055 0.4069 0.0
C1010 C 0.42235 0.53289 0.3796 0.0
C1011 C 0.4399 0.55596 0.37102 0.0
H1012 H 0.39906 0.51267 0.41351 0.0
H1013 H 0.57023 0.7351 0.32854 0.0
H1014 H 0.14593 0.3491 0.79835 0.0
H1015 H 0.12848 0.37111 0.83769 0.0
H1016 H 0.1529 0.44282 0.79579 0.0
H1017 H 0.17036 0.42111 0.75683 0.0
H1018 H 0.16678 0.45394 0.84563 0.0
H1019 H 0.0786 0.40412 0.80722 0.0
H1020 H 0.04398 0.36482 0.79156 0.0
H1021 H 0.043 0.33437 0.87301 0.0
H1022 H 0.07791 0.37336 0.88907 0.0
H1023 H 0.09323 0.53114 0.92605 0.0
H1024 H 0.10911 0.50448 0.89047 0.0
H1025 H 0.08754 0.43936 0.9433 0.0
H1026 H 0.07082 0.46624 0.97909 0.0
H1027 H 0.07319 0.42283 0.89102 0.0
H1028 H 0.15976 0.47333 0.92981 0.0
H1029 H 0.1939 0.51284 0.94565 0.0
H1030 H 0.19783 0.54192 0.86338 0.0
H1031 H 0.1634 0.50271 0.84711 0.0
C1032 C 0.14737 0.36952 0.79722 0.0
C1033 C 0.16011 0.38295 0.77381 0.0
C1034 C 0.1372 0.3823 0.82004 0.0
C1035 C 0.13887 0.40911 0.82044 0.0
C1036 C 0.15124 0.42236 0.79689 0.0
C1037 C 0.16147 0.40969 0.77426 0.0
C1038 C 0.12861 0.42363 0.84509 0.0
C1039 C 0.14607 0.44707 0.85511 0.0
C1040 C 0.10196 0.415 0.85888 0.0
C1041 C 0.08112 0.39152 0.84924 0.0
C1042 C 0.07118 0.38895 0.82173 0.0
C1043 C 0.05147 0.36674 0.81279 0.0
C1044 C 0.04137 0.34707 0.83126 0.0
C1045 C 0.05089 0.34959 0.85872 0.0
C1046 C 0.07063 0.37174 0.86775 0.0
C1047 C 0.09197 0.51118 0.93044 0.0
C1048 C 0.08111 0.50134 0.95617 0.0
C1049 C 0.10131 0.49576 0.90981 0.0
C1050 C 0.1004 0.46954 0.9137 0.0
C1051 C 0.089 0.45941 0.93927 0.0
C1052 C 0.07965 0.475 0.96012 0.0
C1053 C 0.1112 0.45324 0.89108 0.0
C1054 C 0.0939 0.42957 0.88151 0.0
C1055 C 0.13802 0.46161 0.87763 0.0
C1056 C 0.15881 0.48517 0.88729 0.0
C1057 C 0.16776 0.48823 0.91513 0.0
C1058 C 0.18718 0.51056 0.92418 0.0
C1059 C 0.19798 0.5299 0.90555 0.0
C1060 C 0.18943 0.52693 0.8778 0.0
C1061 C 0.16998 0.50464 0.86864 0.0
H1062 H 0.21301 0.54718 0.9126 0.0
H1063 H 0.0261 0.3299 0.8243 0.0
H1064 H 0.68866 0.81941 0.89571 0.0
H1065 H 0.66263 0.85208 0.90986 0.0
H1066 H 0.74152 0.90999 0.91064 0.0
H1067 H 0.76751 0.87757 0.8961 0.0
H1068 H 0.70627 0.90775 0.96021 0.0
H1069 H 0.70061 0.91193 0.86087 0.0
H1070 H 0.68947 0.89386 0.81364 0.0
H1071 H 0.60134 0.86714 0.83579 0.0
H1072 H 0.61205 0.8847 0.88331 0.0
H1073 H 0.64621 1.01384 0.98727 0.0
H1074 H 0.67411 0.98631 0.96486 0.0
H1075 H 0.59636 0.9312 0.94265 0.0
H1076 H 0.56834 0.95893 0.9641 0.0
H1077 H 0.63271 0.93311 0.90244 0.0
H1078 H 0.63632 0.9247 1.00075 0.0
H1079 H 0.645 0.93975 0.04933 0.0
H1080 H 0.73356 0.97038 0.03134 0.0
H1081 H 0.72531 0.95581 0.98252 0.0
C1082 C 0.70033 0.83915 0.89877 0.0
C1083 C 0.73 0.84606 0.89471 0.0
C1084 C 0.6855 0.85774 0.90674 0.0
C1085 C 0.70021 0.88339 0.91116 0.0
C1086 C 0.72984 0.8903 0.90723 0.0
C1087 C 0.74458 0.87183 0.89881 0.0
C1088 C 0.68481 0.90291 0.92073 0.0
C1089 C 0.6905 0.91365 0.94747 0.0
C1090 C 0.66369 0.90989 0.90432 0.0
C1091 C 0.65719 0.89939 0.87574 0.0
C1092 C 0.6789 0.90198 0.85575 0.0
C1093 C 0.67266 0.89188 0.82891 0.0
C1094 C 0.64473 0.8793 0.82174 0.0
C1095 C 0.62298 0.87685 0.84139 0.0
C1096 C 0.62912 0.88689 0.86827 0.0
C1097 C 0.63505 0.99604 0.97732 0.0
C1098 C 0.60506 0.98851 0.97774 0.0
C1099 C 0.65102 0.98023 0.96461 0.0
C1100 C 0.63735 0.9564 0.95259 0.0
C1101 C 0.60741 0.94944 0.95185 0.0
C1102 C 0.59143 0.96536 0.96421 0.0
C1103 C 0.6541 0.93809 0.94206 0.0
C1104 C 0.64862 0.92744 0.91518 0.0
C1105 C 0.67505 0.93076 0.95856 0.0
C1106 C 0.68013 0.93942 0.98792 0.0
C1107 C 0.6576 0.93481 1.00711 0.0
C1108 C 0.66245 0.94323 0.03469 0.0
C1109 C 0.6898 0.95608 0.0434 0.0
C1110 C 0.71238 0.96047 0.02455 0.0
C1111 C 0.70763 0.95212 0.99693 0.0
H1112 H 0.69351 0.96259 0.06476 0.0
H1113 H 0.63994 0.8715 0.80095 0.0
H1114 H 0.84801 0.18378 0.47482 0.0
H1115 H 0.88289 0.15972 0.48866 0.0
H1116 H 0.82444 0.08884 0.46373 0.0
H1117 H 0.78906 0.11267 0.45085 0.0
H1118 H 0.84537 0.08507 0.51338 0.0
H1119 H 0.88346 0.1131 0.42541 0.0
H1120 H 0.90105 0.14388 0.38871 0.0
H1121 H 0.96867 0.18422 0.4422 0.0
H1122 H 0.95124 0.15389 0.47939 0.0
H1123 H 0.98511 0.03528 0.5047 0.0
H1124 H 0.94984 0.05539 0.48375 0.0
H1125 H 0.92851 0.08143 0.56468 0.0
H1126 H 0.96355 0.06094 0.58579 0.0
H1127 H 0.94643 0.10418 0.48289 0.0
H1128 H 0.85782 0.08036 0.56621 0.0
H1129 H 0.83927 0.04646 0.59956 0.0
H1130 H 0.87053 0.99194 0.54879 0.0
H1131 H 0.8889 0.02541 0.51496 0.0
C1132 C 0.84261 0.16307 0.47231 0.0
C1133 C 0.8158 0.1501 0.46182 0.0
C1134 C 0.86264 0.14938 0.47995 0.0
C1135 C 0.85628 0.12253 0.477 0.0
C1136 C 0.82974 0.10957 0.46609 0.0
C1137 C 0.80967 0.12323 0.45854 0.0
C1138 C 0.87671 0.10788 0.48674 0.0
C1139 C 0.86744 0.08918 0.50664 0.0
C1140 C 0.90536 0.113 0.47757 0.0
C1141 C 0.91588 0.13134 0.45528 0.0
C1142 C 0.90194 0.12866 0.42944 0.0
C1143 C 0.91191 0.146 0.40853 0.0
C1144 C 0.93592 0.16602 0.41314 0.0
C1145 C 0.95005 0.16871 0.43866 0.0
C1146 C 0.94015 0.15144 0.45966 0.0
C1147 C 0.97279 0.04521 0.518 0.0
C1148 C 0.97681 0.04652 0.54683 0.0
C1149 C 0.95278 0.05675 0.50602 0.0
C1150 C 0.93645 0.06968 0.52269 0.0
C1151 C 0.94063 0.07118 0.55151 0.0
C1152 C 0.96063 0.05956 0.56353 0.0
C1153 C 0.91518 0.08177 0.50989 0.0
C1154 C 0.92431 0.10001 0.4895 0.0
C1155 C 0.88624 0.07583 0.51812 0.0
C1156 C 0.87497 0.05547 0.53819 0.0
C1157 C 0.86063 0.06111 0.56211 0.0
C1158 C 0.85016 0.04197 0.58111 0.0
C1159 C 0.8538 1.01708 0.57634 0.0
C1160 C 0.86782 1.01125 0.55251 0.0
C1161 C 0.8783 0.03031 0.53344 0.0
H1162 H 0.8457 1.0023 0.59108 0.0
H1163 H 0.94362 0.17942 0.39692 0.0
H1164 H 0.3545 0.64636 0.17773 0.0
H1165 H 0.31018 0.62145 0.15685 0.0
H1166 H 0.28821 0.6913 0.13258 0.0
H1167 H 0.33173 0.71638 0.15459 0.0
H1168 H 0.24155 0.66121 0.14819 0.0
H1169 H 0.31441 0.64705 0.08582 0.0
H1170 H 0.35865 0.6343 0.072 0.0
H1171 H 0.32421 0.55807 0.10026 0.0
H1172 H 0.27989 0.57046 0.11457 0.0
H1173 H 0.13078 0.60438 0.05167 0.0
H1174 H 0.17514 0.62827 0.07352 0.0
H1175 H 0.19267 0.55748 0.10071 0.0
H1176 H 0.14839 0.5334 0.07857 0.0
H1177 H 0.24129 0.58733 0.08415 0.0
H1178 H 0.16777 0.60146 0.14538 0.0
H1179 H 0.12331 0.61427 0.15823 0.0
H1180 H 0.15898 0.69081 0.13158 0.0
H1181 H 0.2035 0.67837 0.11811 0.0
C1182 C 0.34027 0.65664 0.16822 0.0
C1183 C 0.34751 0.68378 0.16801 0.0
C1184 C 0.31477 0.64216 0.15579 0.0
C1185 C 0.29542 0.65411 0.14235 0.0
C1186 C 0.30239 0.68118 0.14247 0.0
C1187 C 0.3278 0.69567 0.15495 0.0
C1188 C 0.26803 0.63866 0.12846 0.0
C1189 C 0.24178 0.6453 0.13391 0.0
C1190 C 0.26738 0.61727 0.11012 0.0
C1191 C 0.29396 0.60976 0.10153 0.0
C1192 C 0.31636 0.62762 0.08927 0.0
C1193 C 0.34143 0.62045 0.08132 0.0
C1194 C 0.34427 0.59541 0.08532 0.0
C1195 C 0.322 0.57747 0.09722 0.0
C1196 C 0.29689 0.58455 0.10523 0.0
C1197 C 0.14398 0.59373 0.06223 0.0
C1198 C 0.13547 0.56669 0.06317 0.0
C1199 C 0.16953 0.60758 0.07501 0.0
C1200 C 0.18765 0.59503 0.08942 0.0
C1201 C 0.17945 0.56798 0.08996 0.0
C1202 C 0.15384 0.5541 0.07723 0.0
C1203 C 0.21493 0.60999 0.10379 0.0
C1204 C 0.24112 0.60324 0.09845 0.0
C1205 C 0.21553 0.63132 0.12218 0.0
C1206 C 0.18888 0.63891 0.13048 0.0
C1207 C 0.16607 0.62098 0.14208 0.0
C1208 C 0.14087 0.62818 0.1495 0.0
C1209 C 0.13831 0.65332 0.14568 0.0
C1210 C 0.16098 0.67133 0.13449 0.0
C1211 C 0.18621 0.66422 0.12697 0.0
H1212 H 0.11877 0.65884 0.15144 0.0
H1213 H 0.36369 0.5899 0.07915 0.0
H1214 H 0.30973 0.42204 0.72151 0.0
H1215 H 0.35004 0.44434 0.69404 0.0
H1216 H 0.30572 0.4123 0.61922 0.0
H1217 H 0.26542 0.38918 0.6471 0.0
H1218 H 0.35808 0.40923 0.61365 0.0
H1219 H 0.31861 0.47995 0.64175 0.0
H1220 H 0.30019 0.50847 0.67427 0.0
H1221 H 0.38104 0.52771 0.71651 0.0
H1222 H 0.39984 0.49904 0.68444 0.0
H1223 H 0.45723 0.48644 0.52266 0.0
H1224 H 0.41478 0.46771 0.54959 0.0
H1225 H 0.46106 0.49364 0.62518 0.0
H1226 H 0.50379 0.51266 0.59807 0.0
H1227 H 0.40744 0.50046 0.62985 0.0
H1228 H 0.44643 0.42925 0.60165 0.0
H1229 H 0.46473 0.40109 0.56859 0.0
H1230 H 0.38413 0.38324 0.52587 0.0
H1231 H 0.36547 0.41159 0.55846 0.0
C1232 C 0.30813 0.42018 0.69916 0.0
C1233 C 0.28368 0.4042 0.68667 0.0
C1234 C 0.33144 0.43308 0.68329 0.0
C1235 C 0.33132 0.4307 0.65413 0.0
C1236 C 0.30675 0.41485 0.64154 0.0
C1237 C 0.28339 0.4018 0.65752 0.0
C1238 C 0.35717 0.44374 0.63715 0.0
C1239 C 0.36842 0.42932 0.61699 0.0
C1240 C 0.37176 0.46988 0.64155 0.0
C1241 C 0.36054 0.48715 0.66084 0.0
C1242 C 0.3324 0.49012 0.65809 0.0
C1243 C 0.3219 0.50634 0.67643 0.0
C1244 C 0.33941 0.51984 0.69749 0.0
C1245 C 0.36749 0.51721 0.70021 0.0
C1246 C 0.37809 0.501 0.68194 0.0
C1247 C 0.45849 0.48827 0.54503 0.0
C1248 C 0.48427 0.50108 0.55802 0.0
C1249 C 0.43404 0.47733 0.56055 0.0
C1250 C 0.43434 0.47865 0.58974 0.0
C1251 C 0.45989 0.49207 0.6028 0.0
C1252 C 0.48448 0.50299 0.58721 0.0
C1253 C 0.40818 0.46595 0.60639 0.0
C1254 C 0.39695 0.4804 0.62649 0.0
C1255 C 0.39354 0.43988 0.60188 0.0
C1256 C 0.40465 0.42274 0.58233 0.0
C1257 C 0.43268 0.41946 0.58508 0.0
C1258 C 0.44311 0.40345 0.56645 0.0
C1259 C 0.42563 0.39044 0.5451 0.0
C1260 C 0.39766 0.39336 0.54239 0.0
C1261 C 0.38714 0.40939 0.56095 0.0
H1262 H 0.43374 0.37804 0.53069 0.0
H1263 H 0.33125 0.53239 0.71166 0.0
H1264 H 0.79875 0.75146 0.94095 0.0
H1265 H 0.83795 0.72958 0.93846 0.0
H1266 H 0.79449 0.67975 0.87274 0.0
H1267 H 0.75523 0.70218 0.87462 0.0
H1268 H 0.8165 0.65504 0.91896 0.0
H1269 H 0.84803 0.72107 0.85314 0.0
H1270 H 0.85831 0.76535 0.83644 0.0
H1271 H 0.91897 0.78976 0.90237 0.0
H1272 H 0.90882 0.74567 0.91967 0.0
H1273 H 0.93872 0.6024 0.92163 0.0
H1274 H 0.90113 0.62017 0.90138 0.0
H1275 H 0.9344 0.69212 0.94517 0.0
H1276 H 0.97299 0.6752 0.96372 0.0
H1277 H 0.91557 0.70207 0.89848 0.0
H1278 H 0.87787 0.64197 0.97038 0.0
H1279 H 0.86711 0.59964 0.99208 0.0
H1280 H 0.81777 0.56634 0.92079 0.0
H1281 H 0.82854 0.60846 0.89854 0.0
C1282 C 0.79768 0.73609 0.92568 0.0
C1283 C 0.77432 0.72897 0.90741 0.0
C1284 C 0.82006 0.7236 0.92432 0.0
C1285 C 0.81928 0.70338 0.9051 0.0
C1286 C 0.79557 0.69554 0.88746 0.0
C1287 C 0.77327 0.70834 0.88854 0.0
C1288 C 0.84308 0.69017 0.90438 0.0
C1289 C 0.83811 0.66502 0.91382 0.0
C1290 C 0.87125 0.70352 0.89826 0.0
C1291 C 0.87755 0.73005 0.88777 0.0
C1292 C 0.86342 0.73591 0.8642 0.0
C1293 C 0.86926 0.76098 0.8546 0.0
C1294 C 0.88926 0.78037 0.86837 0.0
C1295 C 0.9035 0.77472 0.89172 0.0
C1296 C 0.89775 0.74968 0.90139 0.0
C1297 C 0.93848 0.62222 0.92634 0.0
C1298 C 0.95858 0.63721 0.94477 0.0
C1299 C 0.91675 0.63227 0.915 0.0
C1300 C 0.91442 0.65729 0.92231 0.0
C1301 C 0.9355 0.6727 0.93934 0.0
C1302 C 0.95741 0.66286 0.95026 0.0
C1303 C 0.88925 0.66714 0.91406 0.0
C1304 C 0.89393 0.69173 0.90294 0.0
C1305 C 0.86086 0.6535 0.91928 0.0
C1306 C 0.8543 0.62824 0.93267 0.0
C1307 C 0.86489 0.62557 0.95927 0.0
C1308 C 0.85877 0.60164 0.97168 0.0
C1309 C 0.84185 0.58029 0.95778 0.0
C1310 C 0.83093 0.58287 0.93149 0.0
C1311 C 0.83703 0.60676 0.91898 0.0
H1312 H 0.83714 0.56178 0.96742 0.0
H1313 H 0.89378 0.79978 0.86096 0.0
H1314 H 0.38891 0.77257 0.15268 0.0
H1315 H 0.41063 0.81335 0.13192 0.0
H1316 H 0.49243 0.80967 0.16505 0.0
H1317 H 0.47111 0.7681 0.18516 0.0
H1318 H 0.48468 0.85835 0.17168 0.0
H1319 H 0.47526 0.79863 0.09444 0.0
H1320 H 0.44955 0.76449 0.06244 0.0
H1321 H 0.39409 0.81257 0.03846 0.0
H1322 H 0.41923 0.84688 0.07062 0.0
H1323 H 0.57119 0.96049 0.09941 0.0
H1324 H 0.54784 0.91891 0.1173 0.0
H1325 H 0.4713 0.92094 0.07216 0.0
H1326 H 0.49553 0.96275 0.05303 0.0
H1327 H 0.47432 0.87326 0.07173 0.0
H1328 H 0.4817 0.93263 0.14779 0.0
H1329 H 0.50495 0.96713 0.1806 0.0
H1330 H 0.56065 0.92062 0.20818 0.0
H1331 H 0.53798 0.88594 0.17526 0.0
C1332 C 0.41167 0.77982 0.15531 0.0
C1333 C 0.4279 0.76592 0.17069 0.0
C1334 C 0.42419 0.80365 0.14333 0.0
C1335 C 0.45357 0.81508 0.14625 0.0
C1336 C 0.46979 0.80171 0.16213 0.0
C1337 C 0.45733 0.77766 0.1739 0.0
C1338 C 0.46711 0.84084 0.13312 0.0
C1339 C 0.48268 0.86134 0.14972 0.0
C1340 C 0.46402 0.84576 0.10456 0.0
C1341 C 0.44895 0.82522 0.08515 0.0
C1342 C 0.45744 0.80185 0.0825 0.0
C1343 C 0.443 0.78248 0.06431 0.0
C1344 C 0.42015 0.78633 0.04848 0.0
C1345 C 0.41176 0.8096 0.05076 0.0
C1346 C 0.42612 0.82902 0.06896 0.0
C1347 C 0.54937 0.95223 0.09307 0.0
C1348 C 0.53547 0.96549 0.07468 0.0
C1349 C 0.53573 0.92821 0.10371 0.0
C1350 C 0.50709 0.91636 0.09716 0.0
C1351 C 0.49323 0.92925 0.0781 0.0
C1352 C 0.50716 0.95337 0.06704 0.0
C1353 C 0.4922 0.89083 0.11027 0.0
C1354 C 0.47634 0.87036 0.0937 0.0
C1355 C 0.49465 0.88601 0.139 0.0
C1356 C 0.50831 0.90678 0.15887 0.0
C1357 C 0.49903 0.92982 0.16072 0.0
C1358 C 0.51209 0.9494 0.17936 0.0
C1359 C 0.53431 0.94609 0.19642 0.0
C1360 C 0.54346 0.92316 0.19493 0.0
C1361 C 0.5305 0.90353 0.1763 0.0
H1362 H 0.54439 0.96128 0.21083 0.0
H1363 H 0.40899 0.77132 0.0344 0.0
H1364 H 0.20052 0.29946 0.68817 0.0
H1365 H 0.18097 0.25785 0.66594 0.0
H1366 H 0.09739 0.2596 0.69622 0.0
H1367 H 0.11639 0.30245 0.71734 0.0
H1368 H 0.12878 0.20782 0.70092 0.0
H1369 H 0.09228 0.26571 0.64053 0.0
H1370 H 0.09951 0.30421 0.61201 0.0
H1371 H 0.16144 0.2769 0.56293 0.0
H1372 H 0.15488 0.23843 0.59148 0.0
H1373 H 0.05571 0.09159 0.63165 0.0
H1374 H 0.07019 0.13352 0.65509 0.0
H1375 H 0.11932 0.16332 0.58347 0.0
H1376 H 0.10235 0.12182 0.55913 0.0
H1377 H 0.10526 0.2006 0.60077 0.0
H1378 H 0.14595 0.14554 0.65616 0.0
H1379 H 0.14735 0.10809 0.68436 0.0
H1380 H 0.08876 0.12985 0.74225 0.0
H1381 H 0.08678 0.16728 0.71424 0.0
C1382 C 0.17778 0.29166 0.68988 0.0
C1383 C 0.16028 0.30556 0.70448 0.0
C1384 C 0.16662 0.2673 0.67719 0.0
C1385 C 0.13749 0.25515 0.6789 0.0
C1386 C 0.11995 0.26827 0.69426 0.0
C1387 C 0.13103 0.293 0.70663 0.0
C1388 C 0.12578 0.22907 0.66445 0.0
C1389 C 0.12311 0.20627 0.67912 0.0
C1390 C 0.11967 0.22645 0.63563 0.0
C1391 C 0.12333 0.24938 0.61833 0.0
C1392 C 0.10765 0.26806 0.62384 0.0
C1393 C 0.11158 0.28984 0.60763 0.0
C1394 C 0.13099 0.29304 0.58572 0.0
C1395 C 0.14645 0.27442 0.57993 0.0
C1396 C 0.14262 0.25262 0.59611 0.0
C1397 C 0.06968 0.10704 0.62084 0.0
C1398 C 0.07791 0.10283 0.59335 0.0
C1399 C 0.07843 0.13132 0.63455 0.0
C1400 C 0.09706 0.15238 0.622 0.0
C1401 C 0.10515 0.14807 0.59434 0.0
C1402 C 0.09549 0.12399 0.58025 0.0
C1403 C 0.10758 0.17865 0.63722 0.0
C1404 C 0.11049 0.20171 0.62264 0.0
C1405 C 0.11481 0.18146 0.66605 0.0
C1406 C 0.11599 0.15904 0.68295 0.0
C1407 C 0.13325 0.14225 0.67483 0.0
C1408 C 0.13416 0.12104 0.69078 0.0
C1409 C 0.11809 0.11656 0.71503 0.0
C1410 C 0.10115 0.13332 0.72344 0.0
C1411 C 0.10014 0.15454 0.70754 0.0
H1412 H 0.11882 0.10012 0.72735 0.0
H1413 H 0.134 0.30991 0.57319 0.0
H1414 H 0.76126 0.25739 0.53037 0.0
H1415 H 0.7318 0.28905 0.53228 0.0
H1416 H 0.66019 0.23209 0.49926 0.0
H1417 H 0.69 0.20066 0.4966 0.0
H1418 H 0.66668 0.27448 0.4722 0.0
H1419 H 0.66288 0.25411 0.56782 0.0
H1420 H 0.6811 0.24747 0.61405 0.0
H1421 H 0.72673 0.32643 0.61913 0.0
H1422 H 0.70922 0.33347 0.57273 0.0
H1423 H 0.57465 0.36125 0.48937 0.0
H1424 H 0.59486 0.32368 0.49486 0.0
H1425 H 0.67545 0.37314 0.51963 0.0
H1426 H 0.65576 0.41071 0.5136 0.0
H1427 H 0.65877 0.33125 0.55321 0.0
H1428 H 0.66731 0.34971 0.45571 0.0
H1429 H 0.6492 0.35673 0.40953 0.0
H1430 H 0.59435 0.2811 0.40873 0.0
H1431 H 0.61183 0.27377 0.45513 0.0
C1432 C 0.73908 0.25163 0.52402 0.0
C1433 C 0.72762 0.22661 0.51386 0.0
C1434 C 0.72224 0.26961 0.52521 0.0
C1435 C 0.69363 0.26279 0.51638 0.0
C1436 C 0.68213 0.23768 0.50639 0.0
C1437 C 0.69905 0.21975 0.50501 0.0
C1438 C 0.6765 0.28242 0.51554 0.0
C1439 C 0.66443 0.28651 0.49011 0.0
C1440 C 0.6741 0.29848 0.53876 0.0
C1441 C 0.68491 0.29425 0.56662 0.0
C1442 C 0.67703 0.27001 0.57865 0.0
C1443 C 0.6872 0.26618 0.60493 0.0
C1444 C 0.70511 0.2865 0.61949 0.0
C1445 C 0.71287 0.3107 0.60782 0.0
C1446 C 0.70282 0.31462 0.58153 0.0
C1447 C 0.59672 0.36412 0.49581 0.0
C1448 C 0.61361 0.38895 0.50103 0.0
C1449 C 0.60816 0.34266 0.49907 0.0
C1450 C 0.63663 0.34574 0.50758 0.0
C1451 C 0.65337 0.37042 0.51323 0.0
C1452 C 0.64203 0.39185 0.50986 0.0
C1453 C 0.64944 0.32337 0.50988 0.0
C1454 C 0.6607 0.31886 0.53552 0.0
C1455 C 0.65113 0.30692 0.48691 0.0
C1456 C 0.6406 0.31132 0.45903 0.0
C1457 C 0.65118 0.33467 0.4458 0.0
C1458 C 0.64107 0.33869 0.41957 0.0
C1459 C 0.62056 0.31941 0.40624 0.0
C1460 C 0.61018 0.29604 0.4191 0.0
C1461 C 0.62018 0.29194 0.44537 0.0
H1462 H 0.61278 0.32255 0.38592 0.0
H1463 H 0.71292 0.28351 0.63985 0.0
loop_
_geom_bond_atom_site_label_1
_geom_bond_atom_site_label_2
_geom_bond_distance
_geom_bond_site_symmetry_2
_ccdc_geom_bond_type
H0 C7 0.929 . S
H1 C10 0.930 . S
H2 C12 0.929 . S
H3 C4 0.969 . S
C4 H3 0.969 . S
C4 O5 1.550 . S
C4 H6 0.973 . S
O5 C4 1.550 . S
O5 C11 1.412 . S
H6 C4 0.973 . S
C7 H0 0.929 . S
C7 C8 1.400 . S
C7 C9 1.364 . S
C8 C7 1.400 . S
C8 C12 1.377 . S
C9 C7 1.364 . S
C9 C10 1.374 . S
C10 H1 0.930 . S
C10 C9 1.374 . S
C10 C11 1.383 . S
C11 O5 1.412 . S
C11 C10 1.383 . S
C11 C12 1.394 . S
C12 H2 0.929 . S
C12 C8 1.377 . S
C12 C11 1.394 . S
H13 C20 0.929 . S
H14 C23 0.930 . S
H15 C25 0.929 . S
H16 C17 0.969 . S
C17 H16 0.969 . S
C17 O18 1.550 . S
C17 H19 0.973 . S
O18 C17 1.550 . S
O18 C24 1.412 . S
H19 C17 0.973 . S
C20 H13 0.929 . S
C20 C21 1.400 . S
C20 C22 1.364 . S
C21 C20 1.400 . S
C21 C25 1.377 . S
C22 C20 1.364 . S
C22 C23 1.374 . S
C23 H14 0.930 . S
C23 C22 1.374 . S
C23 C24 1.383 . S
C24 O18 1.412 . S
C24 C23 1.383 . S
C24 C25 1.394 . S
C25 H15 0.929 . S
C25 C21 1.377 . S
C25 C24 1.394 . S
H26 C33 0.929 . S
H27 C36 0.930 . S
H28 C38 0.929 . S
H29 C30 0.969 . S
C30 H29 0.969 . S
C30 O31 1.550 . S
C30 H32 0.973 . S
O31 C30 1.550 . S
O31 C37 1.412 . S
H32 C30 0.973 . S
C33 H26 0.929 . S
C33 C34 1.400 . S
C33 C35 1.364 . S
C34 C33 1.400 . S
C34 C38 1.377 . S
C35 C33 1.364 . S
C35 C36 1.374 . S
C36 H27 0.930 . S
C36 C35 1.374 . S
C36 C37 1.383 . S
C37 O31 1.412 . S
C37 C36 1.383 . S
C37 C38 1.394 . S
C38 H28 0.929 . S
C38 C34 1.377 . S
C38 C37 1.394 . S
H39 C46 0.929 . S
H40 C49 0.930 . S
H41 C51 0.929 . S
H42 C43 0.969 . S
C43 H42 0.969 . S
C43 O44 1.550 . S
C43 H45 0.973 . S
O44 C43 1.550 . S
O44 C50 1.412 . S
H45 C43 0.973 . S
C46 H39 0.929 . S
C46 C47 1.400 . S
C46 C48 1.364 . S
C47 C46 1.400 . S
C47 C51 1.377 . S
C48 C46 1.364 . S
C48 C49 1.374 . S
C49 H40 0.930 . S
C49 C48 1.374 . S
C49 C50 1.383 . S
C50 O44 1.412 . S
C50 C49 1.383 . S
C50 C51 1.394 . S
C51 H41 0.929 . S
C51 C47 1.377 . S
C51 C50 1.394 . S
H52 C59 0.929 . S
H53 C62 0.930 . S
H54 C64 0.929 . S
H55 C56 0.969 . S
C56 H55 0.969 . S
C56 O57 1.550 . S
C56 H58 0.973 . S
O57 C56 1.550 . S
O57 C63 1.412 . S
H58 C56 0.973 . S
C59 H52 0.929 . S
C59 C60 1.400 . S
C59 C61 1.364 . S
C60 C59 1.400 . S
C60 C64 1.377 . S
C61 C59 1.364 . S
C61 C62 1.374 . S
C62 H53 0.930 . S
C62 C61 1.374 . S
C62 C63 1.383 . S
C63 O57 1.412 . S
C63 C62 1.383 . S
C63 C64 1.394 . S
C64 H54 0.929 . S
C64 C60 1.377 . S
C64 C63 1.394 . S
H65 C72 0.929 . S
H66 C75 0.930 . S
H67 C77 0.929 . S
H68 C69 0.969 . S
C69 H68 0.969 . S
C69 O70 1.550 . S
C69 H71 0.973 . S
O70 C69 1.550 . S
O70 C76 1.412 . S
H71 C69 0.973 . S
C72 H65 0.929 . S
C72 C73 1.400 . S
C72 C74 1.364 . S
C73 C72 1.400 . S
C73 C77 1.377 . S
C74 C72 1.364 . S
C74 C75 1.374 . S
C75 H66 0.930 . S
C75 C74 1.374 . S
C75 C76 1.383 . S
C76 O70 1.412 . S
C76 C75 1.383 . S
C76 C77 1.394 . S
C77 H67 0.929 . S
C77 C73 1.377 . S
C77 C76 1.394 . S
H78 C85 0.929 . S
H79 C88 0.930 . S
H80 C90 0.929 . S
H81 C82 0.969 . S
C82 H81 0.969 . S
C82 O83 1.550 . S
C82 H84 0.973 . S
O83 C82 1.550 . S
O83 C89 1.412 . S
H84 C82 0.973 . S
C85 H78 0.929 . S
C85 C86 1.400 . S
C85 C87 1.364 . S
C86 C85 1.400 . S
C86 C90 1.377 . S
C87 C85 1.364 . S
C87 C88 1.374 . S
C88 H79 0.930 . S
C88 C87 1.374 . S
C88 C89 1.383 . S
C89 O83 1.412 . S
C89 C88 1.383 . S
C89 C90 1.394 . S
C90 H80 0.929 . S
C90 C86 1.377 . S
C90 C89 1.394 . S
H91 C98 0.929 . S
H92 C101 0.930 . S
H93 C103 0.929 . S
H94 C95 0.969 . S
C95 H94 0.969 . S
C95 O96 1.550 . S
C95 H97 0.973 . S
O96 C95 1.550 . S
O96 C102 1.412 . S
H97 C95 0.973 . S
C98 H91 0.929 . S
C98 C99 1.400 . S
C98 C100 1.364 . S
C99 C98 1.400 . S
C99 C103 1.377 . S
C100 C98 1.364 . S
C100 C101 1.374 . S
C101 H92 0.930 . S
C101 C100 1.374 . S
C101 C102 1.383 . S
C102 O96 1.412 . S
C102 C101 1.383 . S
C102 C103 1.394 . S
C103 H93 0.929 . S
C103 C99 1.377 . S
C103 C102 1.394 . S
La104 C106 2.928 . S
La104 O124 2.521 . S
La104 O125 2.628 . S
La104 O126 2.554 . S
La104 O127 2.779 . S
La104 O128 2.470 . S
La104 O133 2.482 . S
La104 O135 2.503 1_545 S
La105 C115 2.939 1_545 S
La105 O127 2.479 1_655 S
La105 O129 2.490 1_655 S
La105 O130 2.540 1_545 S
La105 O131 2.628 1_545 S
La105 O132 2.574 . S
La105 O133 2.757 1_655 S
La105 O134 2.476 1_545 S
C106 La104 2.928 . S
C106 C107 1.503 . S
C106 O124 1.261 . S
C106 O125 1.243 . S
C107 C106 1.503 . S
C107 C108 1.394 . S
C107 C112 1.373 . S
C108 C107 1.394 . S
C108 C109 1.380 . S
C108 H136 0.930 . S
C109 C108 1.380 . S
C109 C110 1.376 . S
C109 H137 0.930 . S
C110 C109 1.376 . S
C110 C111 1.370 . S
C111 C110 1.370 . S
C111 C112 1.396 . S
C111 H138 0.929 . S
C112 C107 1.373 . S
C112 C111 1.396 . S
C112 H139 0.929 . S
C113 O126 1.240 1_565 S
C113 O127 1.275 1_565 S
C114 O128 1.258 . S
C114 O129 1.256 . S
C115 La105 2.939 1_565 S
C115 C116 1.503 . S
C115 O130 1.261 . S
C115 O131 1.243 . S
C116 C115 1.503 . S
C116 C117 1.394 . S
C116 C121 1.373 . S
C117 C116 1.394 . S
C117 C118 1.380 . S
C117 H140 0.930 . S
C118 C117 1.380 . S
C118 C119 1.376 . S
C118 H141 0.930 . S
C119 C118 1.376 . S
C119 C120 1.370 . S
C120 C119 1.370 . S
C120 C121 1.396 . S
C120 H142 0.929 . S
C121 C116 1.373 . S
C121 C120 1.396 . S
C121 H143 0.929 . S
C122 O132 1.240 . S
C122 O133 1.289 1_655 S
C123 O134 1.258 . S
C123 O135 1.256 1_655 S
O124 La104 2.521 . S
O124 C106 1.261 . S
O125 La104 2.628 . S
O125 C106 1.243 . S
O126 La104 2.554 . S
O126 C113 1.240 1_545 S
O127 La104 2.779 . S
O127 La105 2.479 1_455 S
O127 C113 1.275 1_545 S
O128 La104 2.470 . S
O128 C114 1.258 . S
O129 La105 2.490 1_455 S
O129 C114 1.256 . S
O130 La105 2.540 1_565 S
O130 C115 1.261 . S
O131 La105 2.628 1_565 S
O131 C115 1.243 . S
O132 La105 2.574 . S
O132 C122 1.240 . S
O133 La104 2.482 . S
O133 La105 2.757 1_455 S
O133 C122 1.289 1_455 S
O134 La105 2.476 1_565 S
O134 C123 1.258 . S
O135 La104 2.503 1_565 S
O135 C123 1.256 1_455 S
H136 C108 0.930 . S
H137 C109 0.930 . S
H138 C111 0.929 . S
H139 C112 0.929 . S
H140 C117 0.930 . S
H141 C118 0.930 . S
H142 C120 0.929 . S
H143 C121 0.929 . S
La144 C146 2.928 . S
La144 O164 2.521 . S
La144 O165 2.628 . S
La144 O166 2.554 1_545 S
La144 O167 2.757 1_545 S
La144 O168 2.470 . S
La144 O173 2.482 . S
La144 O175 2.503 1_544 S
La145 C155 2.928 1_545 S
La145 O167 2.482 1_546 S
La145 O169 2.503 1_556 S
La145 O170 2.521 1_545 S
La145 O171 2.628 1_545 S
La145 O172 2.554 . S
La145 O173 2.757 1_556 S
La145 O174 2.470 1_545 S
C146 La144 2.928 . S
C146 C147 1.503 . S
C146 O164 1.261 . S
C146 O165 1.243 . S
C147 C146 1.503 . S
C147 C148 1.394 . S
C147 C152 1.373 . S
C148 C147 1.394 . S
C148 C149 1.380 . S
C148 H176 0.930 . S
C149 C148 1.380 . S
C149 C150 1.376 . S
C149 H177 0.930 . S
C150 C149 1.376 . S
C150 C151 1.370 . S
C151 C150 1.370 . S
C151 C152 1.396 . S
C151 H178 0.929 . S
C152 C147 1.373 . S
C152 C151 1.396 . S
C152 H179 0.929 . S
C153 O166 1.240 . S
C153 O167 1.289 . S
C154 O168 1.258 . S
C154 O169 1.256 . S
C155 La145 2.928 1_565 S
C155 C156 1.503 . S
C155 O170 1.261 . S
C155 O171 1.243 . S
C156 C155 1.503 . S
C156 C157 1.394 . S
C156 C161 1.373 . S
C157 C156 1.394 . S
C157 C158 1.380 . S
C157 H180 0.930 . S
C158 C157 1.380 . S
C158 C159 1.376 . S
C158 H181 0.930 . S
C159 C158 1.376 . S
C159 C160 1.370 . S
C160 C159 1.370 . S
C160 C161 1.396 . S
C160 H182 0.929 . S
C161 C156 1.373 . S
C161 C160 1.396 . S
C161 H183 0.929 . S
C162 O172 1.240 . S
C162 O173 1.289 1_556 S
C163 O174 1.258 . S
C163 O175 1.256 . S
O164 La144 2.521 . S
O164 C146 1.261 . S
O165 La144 2.628 . S
O165 C146 1.243 . S
O166 La144 2.554 1_565 S
O166 C153 1.240 . S
O167 La144 2.757 1_565 S
O167 La145 2.482 1_564 S
O167 C153 1.289 . S
O168 La144 2.470 . S
O168 C154 1.258 . S
O169 La145 2.503 1_554 S
O169 C154 1.256 . S
O170 La145 2.521 1_565 S
O170 C155 1.261 . S
O171 La145 2.628 1_565 S
O171 C155 1.243 . S
O172 La145 2.554 . S
O172 C162 1.240 . S
O173 La144 2.482 . S
O173 La145 2.757 1_554 S
O173 C162 1.289 1_554 S
O174 La145 2.470 1_565 S
O174 C163 1.258 . S
O175 La144 2.503 1_566 S
O175 C163 1.256 . S
H176 C148 0.930 . S
H177 C149 0.930 . S
H178 C151 0.929 . S
H179 C152 0.929 . S
H180 C157 0.930 . S
H181 C158 0.930 . S
H182 C160 0.929 . S
H183 C161 0.929 . S
La184 C186 2.928 . S
La184 O204 2.521 . S
La184 O205 2.628 . S
La184 O206 2.554 . S
La184 O207 2.757 . S
La184 O208 2.470 . S
La184 O213 2.482 . S
La184 O215 2.503 . S
La185 C195 2.928 . S
La185 O207 2.482 . S
La185 O209 2.503 . S
La185 O210 2.521 . S
La185 O211 2.628 . S
La185 O212 2.554 . S
La185 O213 2.757 . S
La185 O214 2.470 . S
C186 La184 2.928 . S
C186 C187 1.503 . S
C186 O204 1.261 . S
C186 O205 1.243 . S
C187 C186 1.503 . S
C187 C188 1.394 . S
C187 C192 1.373 . S
C188 C187 1.394 . S
C188 C189 1.380 . S
C188 H216 0.930 . S
C189 C188 1.380 . S
C189 C190 1.376 . S
C189 H217 0.930 . S
C190 C189 1.376 . S
C190 C191 1.370 . S
C191 C190 1.370 . S
C191 C192 1.396 . S
C191 H218 0.929 . S
C192 C187 1.373 . S
C192 C191 1.396 . S
C192 H219 0.929 . S
C193 O206 1.240 . S
C193 O207 1.289 . S
C194 O208 1.258 . S
C194 O209 1.256 . S
C195 La185 2.928 . S
C195 C196 1.503 . S
C195 O210 1.261 . S
C195 O211 1.243 . S
C196 C195 1.503 . S
C196 C197 1.394 . S
C196 C201 1.373 . S
C197 C196 1.394 . S
C197 C198 1.380 . S
C197 H220 0.930 . S
C198 C197 1.380 . S
C198 C199 1.376 . S
C198 H221 0.930 . S
C199 C198 1.376 . S
C199 C200 1.370 . S
C200 C199 1.370 . S
C200 C201 1.396 . S
C200 H222 0.929 . S
C201 C196 1.373 . S
C201 C200 1.396 . S
C201 H223 0.929 . S
C202 O212 1.240 . S
C202 O213 1.289 . S
C203 O214 1.258 . S
C203 O215 1.256 . S
O204 La184 2.521 . S
O204 C186 1.261 . S
O205 La184 2.628 . S
O205 C186 1.243 . S
O206 La184 2.554 . S
O206 C193 1.240 . S
O207 La184 2.757 . S
O207 La185 2.482 . S
O207 C193 1.289 . S
O208 La184 2.470 . S
O208 C194 1.258 . S
O209 La185 2.503 . S
O209 C194 1.256 . S
O210 La185 2.521 . S
O210 C195 1.261 . S
O211 La185 2.628 . S
O211 C195 1.243 . S
O212 La185 2.554 . S
O212 C202 1.240 . S
O213 La184 2.482 . S
O213 La185 2.757 . S
O213 C202 1.289 . S
O214 La185 2.470 . S
O214 C203 1.258 . S
O215 La184 2.503 . S
O215 C203 1.256 . S
H216 C188 0.930 . S
H217 C189 0.930 . S
H218 C191 0.929 . S
H219 C192 0.929 . S
H220 C197 0.930 . S
H221 C198 0.930 . S
H222 C200 0.929 . S
H223 C201 0.929 . S
La224 C226 2.928 . S
La224 O244 2.521 . S
La224 O245 2.628 . S
La224 O246 2.554 . S
La224 O247 2.757 . S
La224 O248 2.470 . S
La224 O253 2.482 . S
La224 O255 2.503 1_455 S
La225 C235 2.928 1_454 S
La225 O247 2.482 . S
La225 O249 2.503 . S
La225 O250 2.521 1_554 S
La225 O251 2.628 1_455 S
La225 O252 2.554 1_554 S
La225 O253 2.757 . S
La225 O254 2.475 1_455 S
C226 La224 2.928 . S
C226 C227 1.503 . S
C226 O244 1.261 . S
C226 O245 1.243 . S
C227 C226 1.503 . S
C227 C228 1.394 . S
C227 C232 1.373 . S
C228 C227 1.394 . S
C228 C229 1.380 . S
C228 H256 0.930 . S
C229 C228 1.380 . S
C229 C230 1.376 . S
C229 H257 0.930 . S
C230 C229 1.376 . S
C230 C231 1.370 . S
C231 C230 1.370 . S
C231 C232 1.396 . S
C231 H258 0.929 . S
C232 C227 1.373 . S
C232 C231 1.396 . S
C232 H259 0.929 . S
C233 O246 1.240 . S
C233 O247 1.289 . S
C234 O248 1.258 . S
C234 O249 1.256 . S
C235 La225 2.928 1_656 S
C235 C236 1.503 . S
C235 O250 1.261 1_655 S
C235 O251 1.243 1_556 S
C236 C235 1.503 . S
C236 C237 1.394 . S
C236 C241 1.373 . S
C237 C236 1.394 . S
C237 C238 1.380 . S
C237 H260 0.930 . S
C238 C237 1.380 . S
C238 C239 1.376 . S
C238 H261 0.930 . S
C239 C238 1.376 . S
C239 C240 1.370 . S
C240 C239 1.370 . S
C240 C241 1.396 . S
C240 H262 0.929 . S
C241 C236 1.373 . S
C241 C240 1.396 . S
C241 H263 0.929 1_556 S
C242 O252 1.240 . S
C242 O253 1.289 1_556 S
C243 O254 1.267 . S
C243 O255 1.256 . S
O244 La224 2.521 . S
O244 C226 1.261 . S
O245 La224 2.628 . S
O245 C226 1.243 . S
O246 La224 2.554 . S
O246 C233 1.240 . S
O247 La224 2.757 . S
O247 La225 2.482 . S
O247 C233 1.289 . S
O248 La224 2.470 . S
O248 C234 1.258 . S
O249 La225 2.503 . S
O249 C234 1.256 . S
O250 La225 2.521 1_556 S
O250 C235 1.261 1_455 S
O251 La225 2.628 1_655 S
O251 C235 1.243 1_554 S
O252 La225 2.554 1_556 S
O252 C242 1.240 . S
O253 La224 2.482 . S
O253 La225 2.757 . S
O253 C242 1.289 1_554 S
O254 La225 2.475 1_655 S
O254 C243 1.267 . S
O255 La224 2.503 1_655 S
O255 C243 1.256 . S
H256 C228 0.930 . S
H257 C229 0.930 . S
H258 C231 0.929 . S
H259 C232 0.929 . S
H260 C237 0.930 . S
H261 C238 0.930 . S
H262 C240 0.929 . S
H263 C241 0.929 1_554 S
H264 C282 0.951 . S
H265 C284 0.951 . S
H266 C286 0.950 . S
H267 C287 0.950 . S
H268 C289 0.950 . S
H269 C292 0.950 . S
H270 C293 0.950 . S
H271 C295 0.950 . S
H272 C296 0.950 . S
H273 C297 0.951 . S
H274 C299 0.951 . S
H275 C301 0.950 . S
H276 C302 0.950 . S
H277 C304 0.950 . S
H278 C307 0.950 . S
H279 C308 0.950 . S
H280 C310 0.950 . S
H281 C311 0.950 . S
C282 H264 0.951 . S
C282 C283 1.366 . S
C282 C284 1.388 . S
C283 C282 1.366 . S
C283 C287 1.385 . S
C284 H265 0.951 . S
C284 C282 1.388 . S
C284 C285 1.366 . S
C285 C284 1.366 . S
C285 C286 1.414 . S
C285 C288 1.499 . S
C286 H266 0.950 . S
C286 C285 1.414 . S
C286 C287 1.374 . S
C287 H267 0.950 . S
C287 C283 1.385 . S
C287 C286 1.374 . S
C288 C285 1.499 . S
C288 C289 1.373 . S
C288 C290 1.389 . S
C289 H268 0.950 . S
C289 C288 1.373 . S
C289 C305 1.377 . S
C290 C288 1.389 . S
C290 C291 1.524 . S
C290 C304 1.377 . S
C291 C290 1.524 . S
C291 C292 1.397 . S
C291 C296 1.363 . S
C292 H269 0.950 . S
C292 C291 1.397 . S
C292 C293 1.334 . S
C293 H270 0.950 . S
C293 C292 1.334 . S
C293 C294 1.287 . S
C294 C293 1.287 . S
C294 C295 1.524 . S
C294 H313 0.913 . S
C295 H271 0.950 . S
C295 C294 1.524 . S
C295 C296 1.415 . S
C296 H272 0.950 . S
C296 C291 1.363 . S
C296 C295 1.415 . S
C297 H273 0.951 . S
C297 C298 1.366 . S
C297 C299 1.388 . S
C298 C297 1.366 . S
C298 C302 1.385 . S
C299 H274 0.951 . S
C299 C297 1.388 . S
C299 C300 1.366 . S
C300 C299 1.366 . S
C300 C301 1.414 . S
C300 C303 1.499 . S
C301 H275 0.950 . S
C301 C300 1.414 . S
C301 C302 1.374 . S
C302 H276 0.950 . S
C302 C298 1.385 . S
C302 C301 1.374 . S
C303 C300 1.499 . S
C303 C304 1.373 . S
C303 C305 1.389 . S
C304 H277 0.950 . S
C304 C290 1.377 . S
C304 C303 1.373 . S
C305 C289 1.377 . S
C305 C303 1.389 . S
C305 C306 1.524 . S
C306 C305 1.524 . S
C306 C307 1.397 . S
C306 C311 1.363 . S
C307 H278 0.950 . S
C307 C306 1.397 . S
C307 C308 1.334 . S
C308 H279 0.950 . S
C308 C307 1.334 . S
C308 C309 1.287 . S
C309 C308 1.287 . S
C309 C310 1.524 . S
C309 H312 0.999 . S
C310 H280 0.950 . S
C310 C309 1.524 . S
C310 C311 1.415 . S
C311 H281 0.950 . S
C311 C306 1.363 . S
C311 C310 1.415 . S
H312 C309 0.999 . S
H313 C294 0.913 . S
H314 C332 0.951 . S
H315 C334 0.951 . S
H316 C336 0.950 . S
H317 C337 0.950 . S
H318 C339 0.950 . S
H319 C342 0.950 . S
H320 C343 0.950 . S
H321 C345 0.950 . S
H322 C346 0.950 . S
H323 C347 0.951 . S
H324 C349 0.951 . S
H325 C351 0.950 . S
H326 C352 0.950 . S
H327 C354 0.950 . S
H328 C357 0.950 . S
H329 C358 0.950 . S
H330 C360 0.950 . S
H331 C361 0.950 . S
C332 H314 0.951 . S
C332 C333 1.366 . S
C332 C334 1.388 . S
C333 C332 1.366 . S
C333 C337 1.385 . S
C334 H315 0.951 . S
C334 C332 1.388 . S
C334 C335 1.366 . S
C335 C334 1.366 . S
C335 C336 1.414 . S
C335 C338 1.499 . S
C336 H316 0.950 . S
C336 C335 1.414 . S
C336 C337 1.374 . S
C337 H317 0.950 . S
C337 C333 1.385 . S
C337 C336 1.374 . S
C338 C335 1.499 . S
C338 C339 1.373 . S
C338 C340 1.389 . S
C339 H318 0.950 . S
C339 C338 1.373 . S
C339 C355 1.377 . S
C340 C338 1.389 . S
C340 C341 1.524 . S
C340 C354 1.377 . S
C341 C340 1.524 . S
C341 C342 1.397 . S
C341 C346 1.363 . S
C342 H319 0.950 . S
C342 C341 1.397 . S
C342 C343 1.334 . S
C343 H320 0.950 . S
C343 C342 1.334 . S
C343 C344 1.287 . S
C344 C343 1.287 . S
C344 C345 1.524 . S
C344 H363 0.913 . S
C345 H321 0.950 . S
C345 C344 1.524 . S
C345 C346 1.415 . S
C346 H322 0.950 . S
C346 C341 1.363 . S
C346 C345 1.415 . S
C347 H323 0.951 . S
C347 C348 1.366 . S
C347 C349 1.388 . S
C348 C347 1.366 . S
C348 C352 1.385 . S
C349 H324 0.951 . S
C349 C347 1.388 . S
C349 C350 1.366 . S
C350 C349 1.366 . S
C350 C351 1.414 . S
C350 C353 1.499 . S
C351 H325 0.950 . S
C351 C350 1.414 . S
C351 C352 1.374 . S
C352 H326 0.950 . S
C352 C348 1.385 . S
C352 C351 1.374 . S
C353 C350 1.499 . S
C353 C354 1.373 . S
C353 C355 1.389 . S
C354 H327 0.950 . S
C354 C340 1.377 . S
C354 C353 1.373 . S
C355 C339 1.377 . S
C355 C353 1.389 . S
C355 C356 1.524 . S
C356 C355 1.524 . S
C356 C357 1.397 . S
C356 C361 1.363 . S
C357 H328 0.950 . S
C357 C356 1.397 . S
C357 C358 1.334 . S
C358 H329 0.950 . S
C358 C357 1.334 . S
C358 C359 1.287 . S
C359 C358 1.287 . S
C359 C360 1.524 . S
C359 H362 0.999 . S
C360 H330 0.950 . S
C360 C359 1.524 . S
C360 C361 1.415 . S
C361 H331 0.950 . S
C361 C356 1.363 . S
C361 C360 1.415 . S
H362 C359 0.999 . S
H363 C344 0.913 . S
H364 C382 0.951 . S
H365 C384 0.951 . S
H366 C386 0.950 . S
H367 C387 0.950 . S
H368 C389 0.950 . S
H369 C392 0.950 . S
H370 C393 0.950 . S
H371 C395 0.950 . S
H372 C396 0.950 . S
H373 C397 0.951 . S
H374 C399 0.951 . S
H375 C401 0.950 . S
H376 C402 0.950 . S
H377 C404 0.950 . S
H378 C407 0.950 . S
H379 C408 0.950 . S
H380 C410 0.950 . S
H381 C411 0.950 . S
C382 H364 0.951 . S
C382 C383 1.366 . S
C382 C384 1.388 . S
C383 C382 1.366 . S
C383 C387 1.385 . S
C384 H365 0.951 . S
C384 C382 1.388 . S
C384 C385 1.366 . S
C385 C384 1.366 . S
C385 C386 1.414 . S
C385 C388 1.499 . S
C386 H366 0.950 . S
C386 C385 1.414 . S
C386 C387 1.374 . S
C387 H367 0.950 . S
C387 C383 1.385 . S
C387 C386 1.374 . S
C388 C385 1.499 . S
C388 C389 1.373 . S
C388 C390 1.389 . S
C389 H368 0.950 . S
C389 C388 1.373 . S
C389 C405 1.377 . S
C390 C388 1.389 . S
C390 C391 1.524 . S
C390 C404 1.377 . S
C391 C390 1.524 . S
C391 C392 1.397 . S
C391 C396 1.363 . S
C392 H369 0.950 . S
C392 C391 1.397 . S
C392 C393 1.334 . S
C393 H370 0.950 . S
C393 C392 1.334 . S
C393 C394 1.287 . S
C394 C393 1.287 . S
C394 C395 1.524 . S
C394 H413 0.913 . S
C395 H371 0.950 . S
C395 C394 1.524 . S
C395 C396 1.415 . S
C396 H372 0.950 . S
C396 C391 1.363 . S
C396 C395 1.415 . S
C397 H373 0.951 . S
C397 C398 1.366 . S
C397 C399 1.388 . S
C398 C397 1.366 . S
C398 C402 1.385 . S
C399 H374 0.951 . S
C399 C397 1.388 . S
C399 C400 1.366 . S
C400 C399 1.366 . S
C400 C401 1.414 . S
C400 C403 1.499 . S
C401 H375 0.950 . S
C401 C400 1.414 . S
C401 C402 1.374 . S
C402 H376 0.950 . S
C402 C398 1.385 . S
C402 C401 1.374 . S
C403 C400 1.499 . S
C403 C404 1.373 . S
C403 C405 1.389 . S
C404 H377 0.950 . S
C404 C390 1.377 . S
C404 C403 1.373 . S
C405 C389 1.377 . S
C405 C403 1.389 . S
C405 C406 1.524 . S
C406 C405 1.524 . S
C406 C407 1.397 . S
C406 C411 1.363 . S
C407 H378 0.950 . S
C407 C406 1.397 . S
C407 C408 1.334 . S
C408 H379 0.950 . S
C408 C407 1.334 . S
C408 C409 1.287 . S
C409 C408 1.287 . S
C409 C410 1.524 . S
C409 H412 0.999 . S
C410 H380 0.950 . S
C410 C409 1.524 . S
C410 C411 1.415 . S
C411 H381 0.950 . S
C411 C406 1.363 . S
C411 C410 1.415 . S
H412 C409 0.999 . S
H413 C394 0.913 . S
H414 C432 0.951 . S
H415 C434 0.951 . S
H416 C436 0.950 . S
H417 C437 0.950 . S
H418 C439 0.950 . S
H419 C442 0.950 . S
H420 C443 0.950 . S
H421 C445 0.950 . S
H422 C446 0.950 . S
H423 C447 0.951 . S
H424 C449 0.951 . S
H425 C451 0.950 . S
H426 C452 0.950 1_455 S
H427 C454 0.950 . S
H428 C457 0.950 . S
H429 C458 0.950 . S
H430 C460 0.950 . S
H431 C461 0.950 . S
C432 H414 0.951 . S
C432 C433 1.366 . S
C432 C434 1.388 . S
C433 C432 1.366 . S
C433 C437 1.385 . S
C434 H415 0.951 . S
C434 C432 1.388 . S
C434 C435 1.366 . S
C435 C434 1.366 . S
C435 C436 1.414 . S
C435 C438 1.499 . S
C436 H416 0.950 . S
C436 C435 1.414 . S
C436 C437 1.374 . S
C437 H417 0.950 . S
C437 C433 1.385 . S
C437 C436 1.374 . S
C438 C435 1.499 . S
C438 C439 1.373 . S
C438 C440 1.389 . S
C439 H418 0.950 . S
C439 C438 1.373 . S
C439 C455 1.377 . S
C440 C438 1.389 . S
C440 C441 1.524 . S
C440 C454 1.377 . S
C441 C440 1.524 . S
C441 C442 1.397 . S
C441 C446 1.363 . S
C442 H419 0.950 . S
C442 C441 1.397 . S
C442 C443 1.334 . S
C443 H420 0.950 . S
C443 C442 1.334 . S
C443 C444 1.287 . S
C444 C443 1.287 . S
C444 C445 1.524 . S
C444 H463 0.913 . S
C445 H421 0.950 . S
C445 C444 1.524 . S
C445 C446 1.415 . S
C446 H422 0.950 . S
C446 C441 1.363 . S
C446 C445 1.415 . S
C447 H423 0.951 . S
C447 C448 1.366 . S
C447 C449 1.388 . S
C448 C447 1.366 . S
C448 C452 1.385 . S
C449 H424 0.951 . S
C449 C447 1.388 . S
C449 C450 1.366 . S
C450 C449 1.366 . S
C450 C451 1.414 . S
C450 C453 1.499 . S
C451 H425 0.950 . S
C451 C450 1.414 . S
C451 C452 1.374 . S
C452 H426 0.950 1_655 S
C452 C448 1.385 . S
C452 C451 1.374 . S
C453 C450 1.499 . S
C453 C454 1.373 . S
C453 C455 1.389 . S
C454 H427 0.950 . S
C454 C440 1.377 . S
C454 C453 1.373 . S
C455 C439 1.377 . S
C455 C453 1.389 . S
C455 C456 1.524 . S
C456 C455 1.524 . S
C456 C457 1.397 1_655 S
C456 C461 1.363 . S
C457 H428 0.950 . S
C457 C456 1.397 1_455 S
C457 C458 1.334 . S
C458 H429 0.950 . S
C458 C457 1.334 . S
C458 C459 1.287 . S
C459 C458 1.287 . S
C459 C460 1.524 . S
C459 H462 0.999 . S
C460 H430 0.950 . S
C460 C459 1.524 . S
C460 C461 1.415 1_455 S
C461 H431 0.950 . S
C461 C456 1.363 . S
C461 C460 1.415 1_655 S
H462 C459 0.999 . S
H463 C444 0.913 . S
H464 C482 0.951 . S
H465 C484 0.951 . S
H466 C486 0.950 . S
H467 C487 0.950 . S
H468 C489 0.950 . S
H469 C492 0.950 . S
H470 C493 0.950 . S
H471 C495 0.950 . S
H472 C496 0.950 . S
H473 C497 0.951 . S
H474 C499 0.951 . S
H475 C501 0.950 . S
H476 C502 0.950 . S
H477 C504 0.950 . S
H478 C507 0.950 . S
H479 C508 0.950 . S
H480 C510 0.950 . S
H481 C511 0.950 . S
C482 H464 0.951 . S
C482 C483 1.366 . S
C482 C484 1.388 . S
C483 C482 1.366 . S
C483 C487 1.385 . S
C484 H465 0.951 . S
C484 C482 1.388 . S
C484 C485 1.366 . S
C485 C484 1.366 . S
C485 C486 1.414 . S
C485 C488 1.499 . S
C486 H466 0.950 . S
C486 C485 1.414 . S
C486 C487 1.374 . S
C487 H467 0.950 . S
C487 C483 1.385 . S
C487 C486 1.374 . S
C488 C485 1.499 . S
C488 C489 1.373 . S
C488 C490 1.389 . S
C489 H468 0.950 . S
C489 C488 1.373 . S
C489 C505 1.377 . S
C490 C488 1.389 . S
C490 C491 1.524 . S
C490 C504 1.377 . S
C491 C490 1.524 . S
C491 C492 1.397 . S
C491 C496 1.363 . S
C492 H469 0.950 . S
C492 C491 1.397 . S
C492 C493 1.334 . S
C493 H470 0.950 . S
C493 C492 1.334 . S
C493 C494 1.287 . S
C494 C493 1.287 . S
C494 C495 1.524 . S
C494 H513 0.913 . S
C495 H471 0.950 . S
C495 C494 1.524 . S
C495 C496 1.415 . S
C496 H472 0.950 . S
C496 C491 1.363 . S
C496 C495 1.415 . S
C497 H473 0.951 . S
C497 C498 1.366 . S
C497 C499 1.388 . S
C498 C497 1.366 . S
C498 C502 1.385 . S
C499 H474 0.951 . S
C499 C497 1.388 . S
C499 C500 1.366 . S
C500 C499 1.366 . S
C500 C501 1.414 . S
C500 C503 1.499 . S
C501 H475 0.950 . S
C501 C500 1.414 . S
C501 C502 1.374 . S
C502 H476 0.950 . S
C502 C498 1.385 . S
C502 C501 1.374 . S
C503 C500 1.499 . S
C503 C504 1.373 . S
C503 C505 1.389 . S
C504 H477 0.950 . S
C504 C490 1.377 . S
C504 C503 1.373 . S
C505 C489 1.377 . S
C505 C503 1.389 . S
C505 C506 1.524 . S
C506 C505 1.524 . S
C506 C507 1.397 . S
C506 C511 1.363 . S
C507 H478 0.950 . S
C507 C506 1.397 . S
C507 C508 1.334 . S
C508 H479 0.950 . S
C508 C507 1.334 . S
C508 C509 1.287 . S
C509 C508 1.287 . S
C509 C510 1.524 . S
C509 H512 0.999 . S
C510 H480 0.950 . S
C510 C509 1.524 . S
C510 C511 1.415 . S
C511 H481 0.950 . S
C511 C506 1.363 . S
C511 C510 1.415 . S
H512 C509 0.999 . S
H513 C494 0.913 . S
H514 C532 0.951 . S
H515 C534 0.951 . S
H516 C536 0.950 . S
H517 C537 0.950 . S
H518 C539 0.950 . S
H519 C542 0.950 . S
H520 C543 0.950 . S
H521 C545 0.950 . S
H522 C546 0.950 . S
H523 C547 0.951 1_545 S
H524 C549 0.951 . S
H525 C551 0.950 . S
H526 C552 0.950 . S
H527 C554 0.950 . S
H528 C557 0.950 . S
H529 C558 0.957 . S
H530 C560 0.950 . S
H531 C561 0.950 . S
C532 H514 0.951 . S
C532 C533 1.366 . S
C532 C534 1.388 . S
C533 C532 1.366 . S
C533 C537 1.385 . S
C534 H515 0.951 . S
C534 C532 1.388 . S
C534 C535 1.366 . S
C535 C534 1.366 . S
C535 C536 1.414 . S
C535 C538 1.499 . S
C536 H516 0.950 . S
C536 C535 1.414 . S
C536 C537 1.374 . S
C537 H517 0.950 . S
C537 C533 1.385 . S
C537 C536 1.374 . S
C538 C535 1.499 . S
C538 C539 1.373 . S
C538 C540 1.389 . S
C539 H518 0.950 . S
C539 C538 1.373 . S
C539 C555 1.377 . S
C540 C538 1.389 . S
C540 C541 1.524 . S
C540 C554 1.377 . S
C541 C540 1.524 . S
C541 C542 1.397 . S
C541 C546 1.363 . S
C542 H519 0.950 . S
C542 C541 1.397 . S
C542 C543 1.334 . S
C543 H520 0.950 . S
C543 C542 1.334 . S
C543 C544 1.287 . S
C544 C543 1.287 . S
C544 C545 1.524 . S
C544 H563 0.913 . S
C545 H521 0.950 . S
C545 C544 1.524 . S
C545 C546 1.415 . S
C546 H522 0.950 . S
C546 C541 1.363 . S
C546 C545 1.415 . S
C547 H523 0.951 1_565 S
C547 C548 1.366 . S
C547 C549 1.388 . S
C548 C547 1.366 . S
C548 C552 1.385 . S
C549 H524 0.951 . S
C549 C547 1.388 . S
C549 C550 1.366 . S
C550 C549 1.366 . S
C550 C551 1.414 . S
C550 C553 1.499 . S
C551 H525 0.950 . S
C551 C550 1.414 . S
C551 C552 1.374 . S
C552 H526 0.950 . S
C552 C548 1.385 . S
C552 C551 1.374 . S
C553 C550 1.499 . S
C553 C554 1.373 . S
C553 C555 1.389 . S
C554 H527 0.950 . S
C554 C540 1.377 . S
C554 C553 1.373 . S
C555 C539 1.377 . S
C555 C553 1.389 . S
C555 C556 1.524 . S
C556 C555 1.524 . S
C556 C557 1.397 . S
C556 C561 1.363 . S
C557 H528 0.950 . S
C557 C556 1.397 . S
C557 C558 1.334 . S
C558 H529 0.957 . S
C558 C557 1.334 . S
C558 C559 1.287 1_565 S
C559 C558 1.287 1_545 S
C559 C560 1.524 . S
C559 H562 0.999 . S
C560 H530 0.950 . S
C560 C559 1.524 . S
C560 C561 1.415 1_545 S
C561 H531 0.950 . S
C561 C556 1.363 . S
C561 C560 1.415 1_565 S
H562 C559 0.999 . S
H563 C544 0.913 . S
H564 C582 0.951 . S
H565 C584 0.951 . S
H566 C586 0.950 . S
H567 C587 0.950 . S
H568 C589 0.950 . S
H569 C592 0.950 . S
H570 C593 0.950 . S
H571 C595 0.950 . S
H572 C596 0.950 . S
H573 C597 0.951 . S
H574 C599 0.951 . S
H575 C601 0.950 1_554 S
H576 C602 0.950 . S
H577 C604 0.950 . S
H578 C607 0.950 . S
H579 C608 0.950 . S
H580 C610 0.950 . S
H581 C611 0.950 . S
C582 H564 0.951 . S
C582 C583 1.366 . S
C582 C584 1.388 . S
C583 C582 1.366 . S
C583 C587 1.385 . S
C584 H565 0.951 . S
C584 C582 1.388 . S
C584 C585 1.366 . S
C585 C584 1.366 . S
C585 C586 1.414 . S
C585 C588 1.499 . S
C586 H566 0.950 . S
C586 C585 1.414 . S
C586 C587 1.374 . S
C587 H567 0.950 . S
C587 C583 1.385 . S
C587 C586 1.374 . S
C588 C585 1.499 . S
C588 C589 1.373 . S
C588 C590 1.389 . S
C589 H568 0.950 . S
C589 C588 1.373 . S
C589 C605 1.377 . S
C590 C588 1.389 . S
C590 C591 1.524 . S
C590 C604 1.377 . S
C591 C590 1.524 . S
C591 C592 1.397 . S
C591 C596 1.363 . S
C592 H569 0.950 . S
C592 C591 1.397 . S
C592 C593 1.334 . S
C593 H570 0.950 . S
C593 C592 1.334 . S
C593 C594 1.287 . S
C594 C593 1.287 . S
C594 C595 1.524 . S
C594 H613 0.913 . S
C595 H571 0.950 . S
C595 C594 1.524 . S
C595 C596 1.415 . S
C596 H572 0.950 . S
C596 C591 1.363 . S
C596 C595 1.415 . S
C597 H573 0.951 . S
C597 C598 1.326 1_556 S
C597 C599 1.388 . S
C598 C597 1.326 1_554 S
C598 C602 1.402 . S
C599 H574 0.951 . S
C599 C597 1.388 . S
C599 C600 1.366 . S
C600 C599 1.366 . S
C600 C601 1.414 . S
C600 C603 1.499 . S
C601 H575 0.950 1_556 S
C601 C600 1.414 . S
C601 C602 1.374 1_556 S
C602 H576 0.950 . S
C602 C598 1.402 . S
C602 C601 1.374 1_554 S
C603 C600 1.499 . S
C603 C604 1.373 . S
C603 C605 1.389 . S
C604 H577 0.950 . S
C604 C590 1.377 . S
C604 C603 1.373 . S
C605 C589 1.377 . S
C605 C603 1.389 . S
C605 C606 1.524 . S
C606 C605 1.524 . S
C606 C607 1.397 . S
C606 C611 1.363 . S
C607 H578 0.950 . S
C607 C606 1.397 . S
C607 C608 1.334 . S
C608 H579 0.950 . S
C608 C607 1.334 . S
C608 C609 1.287 . S
C609 C608 1.287 . S
C609 C610 1.524 . S
C609 H612 0.999 . S
C610 H580 0.950 . S
C610 C609 1.524 . S
C610 C611 1.415 . S
C611 H581 0.950 . S
C611 C606 1.363 . S
C611 C610 1.415 . S
H612 C609 0.999 . S
H613 C594 0.913 . S
H614 C632 0.951 . S
H615 C634 0.951 . S
H616 C636 0.950 . S
H617 C637 0.950 . S
H618 C639 0.950 . S
H619 C642 0.950 . S
H620 C643 0.950 . S
H621 C645 0.950 . S
H622 C646 0.950 . S
H623 C647 0.951 . S
H624 C649 0.951 . S
H625 C651 0.950 . S
H626 C652 0.950 . S
H627 C654 0.950 . S
H628 C657 0.950 . S
H629 C658 0.950 . S
H630 C660 0.950 . S
H631 C661 0.950 . S
C632 H614 0.951 . S
C632 C633 1.366 . S
C632 C634 1.388 . S
C633 C632 1.366 . S
C633 C637 1.385 . S
C634 H615 0.951 . S
C634 C632 1.388 . S
C634 C635 1.366 . S
C635 C634 1.366 . S
C635 C636 1.414 . S
C635 C638 1.499 . S
C636 H616 0.950 . S
C636 C635 1.414 . S
C636 C637 1.374 . S
C637 H617 0.950 . S
C637 C633 1.385 . S
C637 C636 1.374 . S
C638 C635 1.499 . S
C638 C639 1.373 . S
C638 C640 1.389 . S
C639 H618 0.950 . S
C639 C638 1.373 . S
C639 C655 1.377 . S
C640 C638 1.389 . S
C640 C641 1.524 . S
C640 C654 1.377 . S
C641 C640 1.524 . S
C641 C642 1.397 . S
C641 C646 1.363 . S
C642 H619 0.950 . S
C642 C641 1.397 . S
C642 C643 1.334 . S
C643 H620 0.950 . S
C643 C642 1.334 . S
C643 C644 1.287 . S
C644 C643 1.287 . S
C644 C645 1.524 . S
C644 H663 0.913 . S
C645 H621 0.950 . S
C645 C644 1.524 . S
C645 C646 1.415 . S
C646 H622 0.950 . S
C646 C641 1.363 . S
C646 C645 1.415 . S
C647 H623 0.951 . S
C647 C648 1.366 . S
C647 C649 1.388 . S
C648 C647 1.366 . S
C648 C652 1.385 . S
C649 H624 0.951 . S
C649 C647 1.388 . S
C649 C650 1.366 . S
C650 C649 1.366 . S
C650 C651 1.414 . S
C650 C653 1.499 . S
C651 H625 0.950 . S
C651 C650 1.414 . S
C651 C652 1.374 . S
C652 H626 0.950 . S
C652 C648 1.385 . S
C652 C651 1.374 . S
C653 C650 1.499 . S
C653 C654 1.373 . S
C653 C655 1.389 . S
C654 H627 0.950 . S
C654 C640 1.377 . S
C654 C653 1.373 . S
C655 C639 1.377 . S
C655 C653 1.389 . S
C655 C656 1.524 . S
C656 C655 1.524 . S
C656 C657 1.397 . S
C656 C661 1.363 . S
C657 H628 0.950 . S
C657 C656 1.397 . S
C657 C658 1.334 . S
C658 H629 0.950 . S
C658 C657 1.334 . S
C658 C659 1.287 . S
C659 C658 1.287 . S
C659 C660 1.524 . S
C659 H662 0.999 . S
C660 H630 0.950 . S
C660 C659 1.524 . S
C660 C661 1.415 . S
C661 H631 0.950 . S
C661 C656 1.363 . S
C661 C660 1.415 . S
H662 C659 0.999 . S
H663 C644 0.913 . S
H664 C682 0.951 . S
H665 C684 0.951 . S
H666 C686 0.950 . S
H667 C687 0.950 . S
H668 C689 0.950 . S
H669 C692 0.950 . S
H670 C693 0.950 . S
H671 C695 0.950 . S
H672 C696 0.950 . S
H673 C697 0.951 . S
H674 C699 0.951 . S
H675 C701 0.950 . S
H676 C702 0.950 . S
H677 C704 0.950 . S
H678 C707 0.950 . S
H679 C708 0.950 . S
H680 C710 0.950 . S
H681 C711 0.950 . S
C682 H664 0.951 . S
C682 C683 1.366 . S
C682 C684 1.388 . S
C683 C682 1.366 . S
C683 C687 1.385 . S
C684 H665 0.951 . S
C684 C682 1.388 . S
C684 C685 1.366 . S
C685 C684 1.366 . S
C685 C686 1.414 . S
C685 C688 1.499 . S
C686 H666 0.950 . S
C686 C685 1.414 . S
C686 C687 1.374 . S
C687 H667 0.950 . S
C687 C683 1.385 . S
C687 C686 1.374 . S
C688 C685 1.499 . S
C688 C689 1.373 . S
C688 C690 1.389 . S
C689 H668 0.950 . S
C689 C688 1.373 . S
C689 C705 1.377 . S
C690 C688 1.389 . S
C690 C691 1.524 . S
C690 C704 1.377 . S
C691 C690 1.524 . S
C691 C692 1.397 . S
C691 C696 1.363 . S
C692 H669 0.950 . S
C692 C691 1.397 . S
C692 C693 1.334 . S
C693 H670 0.950 . S
C693 C692 1.334 . S
C693 C694 1.287 . S
C694 C693 1.287 . S
C694 C695 1.524 . S
C694 H713 0.913 . S
C695 H671 0.950 . S
C695 C694 1.524 . S
C695 C696 1.415 . S
C696 H672 0.950 . S
C696 C691 1.363 . S
C696 C695 1.415 . S
C697 H673 0.951 . S
C697 C698 1.366 . S
C697 C699 1.388 . S
C698 C697 1.366 . S
C698 C702 1.385 . S
C699 H674 0.951 . S
C699 C697 1.388 . S
C699 C700 1.366 . S
C700 C699 1.366 . S
C700 C701 1.414 . S
C700 C703 1.499 . S
C701 H675 0.950 . S
C701 C700 1.414 . S
C701 C702 1.374 . S
C702 H676 0.950 . S
C702 C698 1.385 . S
C702 C701 1.374 . S
C703 C700 1.499 . S
C703 C704 1.373 . S
C703 C705 1.389 . S
C704 H677 0.950 . S
C704 C690 1.377 . S
C704 C703 1.373 . S
C705 C689 1.377 . S
C705 C703 1.389 . S
C705 C706 1.524 . S
C706 C705 1.524 . S
C706 C707 1.397 . S
C706 C711 1.363 . S
C707 H678 0.950 . S
C707 C706 1.397 . S
C707 C708 1.334 . S
C708 H679 0.950 . S
C708 C707 1.334 . S
C708 C709 1.287 . S
C709 C708 1.287 . S
C709 C710 1.524 . S
C709 H712 0.999 . S
C710 H680 0.950 . S
C710 C709 1.524 . S
C710 C711 1.415 . S
C711 H681 0.950 . S
C711 C706 1.363 . S
C711 C710 1.415 . S
H712 C709 0.999 . S
H713 C694 0.913 . S
H714 C732 0.951 . S
H715 C734 0.951 . S
H716 C736 0.950 . S
H717 C737 0.950 . S
H718 C739 0.950 . S
H719 C742 0.950 . S
H720 C743 0.950 . S
H721 C745 0.950 . S
H722 C746 0.950 . S
H723 C747 0.951 . S
H724 C749 0.951 . S
H725 C751 0.950 . S
H726 C752 0.950 . S
H727 C754 0.950 . S
H728 C757 0.950 . S
H729 C758 0.950 . S
H730 C760 0.950 . S
H731 C761 0.950 . S
C732 H714 0.951 . S
C732 C733 1.366 . S
C732 C734 1.388 . S
C733 C732 1.366 . S
C733 C737 1.385 . S
C734 H715 0.951 . S
C734 C732 1.388 . S
C734 C735 1.366 . S
C735 C734 1.366 . S
C735 C736 1.414 . S
C735 C738 1.499 . S
C736 H716 0.950 . S
C736 C735 1.414 . S
C736 C737 1.374 . S
C737 H717 0.950 . S
C737 C733 1.385 . S
C737 C736 1.374 . S
C738 C735 1.499 . S
C738 C739 1.373 . S
C738 C740 1.389 . S
C739 H718 0.950 . S
C739 C738 1.373 . S
C739 C755 1.377 . S
C740 C738 1.389 . S
C740 C741 1.524 . S
C740 C754 1.377 . S
C741 C740 1.524 . S
C741 C742 1.397 . S
C741 C746 1.363 . S
C742 H719 0.950 . S
C742 C741 1.397 . S
C742 C743 1.334 . S
C743 H720 0.950 . S
C743 C742 1.334 . S
C743 C744 1.287 . S
C744 C743 1.287 . S
C744 C745 1.524 . S
C744 H763 0.913 . S
C745 H721 0.950 . S
C745 C744 1.524 . S
C745 C746 1.415 . S
C746 H722 0.950 . S
C746 C741 1.363 . S
C746 C745 1.415 . S
C747 H723 0.951 . S
C747 C748 1.366 . S
C747 C749 1.388 . S
C748 C747 1.366 . S
C748 C752 1.385 . S
C749 H724 0.951 . S
C749 C747 1.388 . S
C749 C750 1.366 . S
C750 C749 1.366 . S
C750 C751 1.414 . S
C750 C753 1.499 . S
C751 H725 0.950 . S
C751 C750 1.414 . S
C751 C752 1.374 . S
C752 H726 0.950 . S
C752 C748 1.385 . S
C752 C751 1.374 . S
C753 C750 1.499 . S
C753 C754 1.373 . S
C753 C755 1.389 . S
C754 H727 0.950 . S
C754 C740 1.377 . S
C754 C753 1.373 . S
C755 C739 1.377 . S
C755 C753 1.389 . S
C755 C756 1.524 . S
C756 C755 1.524 . S
C756 C757 1.397 . S
C756 C761 1.363 . S
C757 H728 0.950 . S
C757 C756 1.397 . S
C757 C758 1.334 . S
C758 H729 0.950 . S
C758 C757 1.334 . S
C758 C759 1.287 . S
C759 C758 1.287 . S
C759 C760 1.524 . S
C759 H762 0.999 . S
C760 H730 0.950 . S
C760 C759 1.524 . S
C760 C761 1.415 . S
C761 H731 0.950 . S
C761 C756 1.363 . S
C761 C760 1.415 . S
H762 C759 0.999 . S
H763 C744 0.913 . S
H764 C782 0.951 . S
H765 C784 0.951 . S
H766 C786 0.950 . S
H767 C787 0.950 . S
H768 C789 0.950 . S
H769 C792 0.950 . S
H770 C793 0.950 . S
H771 C795 0.950 . S
H772 C796 0.950 . S
H773 C797 0.951 1_455 S
H774 C799 0.951 . S
H775 C801 0.950 . S
H776 C802 0.950 . S
H777 C804 0.950 . S
H778 C807 0.950 . S
H779 C808 0.950 . S
H780 C810 0.950 1_455 S
H781 C811 0.950 . S
C782 H764 0.951 . S
C782 C783 1.366 . S
C782 C784 1.388 . S
C783 C782 1.366 . S
C783 C787 1.385 . S
C784 H765 0.951 . S
C784 C782 1.388 . S
C784 C785 1.366 . S
C785 C784 1.366 . S
C785 C786 1.414 . S
C785 C788 1.499 . S
C786 H766 0.950 . S
C786 C785 1.414 . S
C786 C787 1.374 . S
C787 H767 0.950 . S
C787 C783 1.385 . S
C787 C786 1.374 . S
C788 C785 1.499 . S
C788 C789 1.373 . S
C788 C790 1.389 . S
C789 H768 0.950 . S
C789 C788 1.373 . S
C789 C805 1.377 . S
C790 C788 1.389 . S
C790 C791 1.524 . S
C790 C804 1.377 . S
C791 C790 1.524 . S
C791 C792 1.397 . S
C791 C796 1.363 . S
C792 H769 0.950 . S
C792 C791 1.397 . S
C792 C793 1.334 . S
C793 H770 0.950 . S
C793 C792 1.334 . S
C793 C794 1.287 . S
C794 C793 1.287 . S
C794 C795 1.524 . S
C794 H813 0.913 . S
C795 H771 0.950 . S
C795 C794 1.524 . S
C795 C796 1.415 . S
C796 H772 0.950 . S
C796 C791 1.363 . S
C796 C795 1.415 . S
C797 H773 0.951 1_655 S
C797 C798 1.366 . S
C797 C799 1.388 . S
C798 C797 1.366 . S
C798 C802 1.385 . S
C799 H774 0.951 . S
C799 C797 1.388 . S
C799 C800 1.366 . S
C800 C799 1.366 . S
C800 C801 1.414 . S
C800 C803 1.499 . S
C801 H775 0.950 . S
C801 C800 1.414 . S
C801 C802 1.374 . S
C802 H776 0.950 . S
C802 C798 1.385 . S
C802 C801 1.374 . S
C803 C800 1.499 . S
C803 C804 1.373 . S
C803 C805 1.389 . S
C804 H777 0.950 . S
C804 C790 1.377 . S
C804 C803 1.373 . S
C805 C789 1.377 . S
C805 C803 1.389 . S
C805 C806 1.524 . S
C806 C805 1.524 . S
C806 C807 1.397 . S
C806 C811 1.363 . S
C807 H778 0.950 . S
C807 C806 1.397 . S
C807 C808 1.334 . S
C808 H779 0.950 . S
C808 C807 1.334 . S
C808 C809 1.287 . S
C809 C808 1.287 . S
C809 C810 1.524 . S
C809 H812 0.999 . S
C810 H780 0.950 1_655 S
C810 C809 1.524 . S
C810 C811 1.415 . S
C811 H781 0.950 . S
C811 C806 1.363 . S
C811 C810 1.415 . S
H812 C809 0.999 . S
H813 C794 0.913 . S
H814 C832 0.951 . S
H815 C834 0.951 . S
H816 C836 0.950 . S
H817 C837 0.950 . S
H818 C839 0.950 . S
H819 C842 0.950 . S
H820 C843 0.950 . S
H821 C845 0.950 . S
H822 C846 0.950 . S
H823 C847 0.951 . S
H824 C849 0.951 . S
H825 C851 0.950 . S
H826 C852 0.950 . S
H827 C854 0.950 . S
H828 C857 0.950 . S
H829 C858 0.950 . S
H830 C860 0.950 . S
H831 C861 0.950 . S
C832 H814 0.951 . S
C832 C833 1.366 . S
C832 C834 1.388 . S
C833 C832 1.366 . S
C833 C837 1.385 . S
C834 H815 0.951 . S
C834 C832 1.388 . S
C834 C835 1.366 . S
C835 C834 1.366 . S
C835 C836 1.414 . S
C835 C838 1.499 . S
C836 H816 0.950 . S
C836 C835 1.414 . S
C836 C837 1.374 . S
C837 H817 0.950 . S
C837 C833 1.385 . S
C837 C836 1.374 . S
C838 C835 1.499 . S
C838 C839 1.373 . S
C838 C840 1.389 . S
C839 H818 0.950 . S
C839 C838 1.373 . S
C839 C855 1.377 . S
C840 C838 1.389 . S
C840 C841 1.524 . S
C840 C854 1.377 . S
C841 C840 1.524 . S
C841 C842 1.397 . S
C841 C846 1.363 . S
C842 H819 0.950 . S
C842 C841 1.397 . S
C842 C843 1.334 . S
C843 H820 0.950 . S
C843 C842 1.334 . S
C843 C844 1.287 . S
C844 C843 1.287 . S
C844 C845 1.524 . S
C844 H863 0.913 . S
C845 H821 0.950 . S
C845 C844 1.524 . S
C845 C846 1.415 . S
C846 H822 0.950 . S
C846 C841 1.363 . S
C846 C845 1.415 . S
C847 H823 0.951 . S
C847 C848 1.366 . S
C847 C849 1.388 . S
C848 C847 1.366 . S
C848 C852 1.385 . S
C849 H824 0.951 . S
C849 C847 1.388 . S
C849 C850 1.366 . S
C850 C849 1.366 . S
C850 C851 1.414 . S
C850 C853 1.499 . S
C851 H825 0.950 . S
C851 C850 1.414 . S
C851 C852 1.374 . S
C852 H826 0.950 . S
C852 C848 1.385 . S
C852 C851 1.374 . S
C853 C850 1.499 . S
C853 C854 1.373 . S
C853 C855 1.389 . S
C854 H827 0.950 . S
C854 C840 1.377 . S
C854 C853 1.373 . S
C855 C839 1.377 . S
C855 C853 1.389 . S
C855 C856 1.524 . S
C856 C855 1.524 . S
C856 C857 1.397 . S
C856 C861 1.363 . S
C857 H828 0.950 . S
C857 C856 1.397 . S
C857 C858 1.334 . S
C858 H829 0.950 . S
C858 C857 1.334 . S
C858 C859 1.287 . S
C859 C858 1.287 . S
C859 C860 1.524 . S
C859 H862 0.999 . S
C860 H830 0.950 . S
C860 C859 1.524 . S
C860 C861 1.415 . S
C861 H831 0.950 . S
C861 C856 1.363 . S
C861 C860 1.415 . S
H862 C859 0.999 . S
H863 C844 0.913 . S
H864 C882 0.951 . S
H865 C884 0.951 . S
H866 C886 0.950 . S
H867 C887 0.950 . S
H868 C889 0.950 . S
H869 C892 0.950 . S
H870 C893 0.950 . S
H871 C895 0.950 . S
H872 C896 0.950 . S
H873 C897 0.951 . S
H874 C899 0.951 . S
H875 C901 0.950 . S
H876 C902 0.950 . S
H877 C904 0.950 . S
H878 C907 0.950 . S
H879 C908 0.950 . S
H880 C910 0.950 . S
H881 C911 0.950 . S
C882 H864 0.951 . S
C882 C883 1.366 . S
C882 C884 1.388 . S
C883 C882 1.366 . S
C883 C887 1.385 . S
C884 H865 0.951 . S
C884 C882 1.388 . S
C884 C885 1.366 . S
C885 C884 1.366 . S
C885 C886 1.414 . S
C885 C888 1.499 . S
C886 H866 0.950 . S
C886 C885 1.414 . S
C886 C887 1.374 . S
C887 H867 0.950 . S
C887 C883 1.385 . S
C887 C886 1.374 . S
C888 C885 1.499 . S
C888 C889 1.373 . S
C888 C890 1.389 . S
C889 H868 0.950 . S
C889 C888 1.373 . S
C889 C905 1.377 . S
C890 C888 1.389 . S
C890 C891 1.524 . S
C890 C904 1.377 . S
C891 C890 1.524 . S
C891 C892 1.397 . S
C891 C896 1.363 . S
C892 H869 0.950 . S
C892 C891 1.397 . S
C892 C893 1.334 . S
C893 H870 0.950 . S
C893 C892 1.334 . S
C893 C894 1.287 . S
C894 C893 1.287 . S
C894 C895 1.524 . S
C894 H913 0.913 . S
C895 H871 0.950 . S
C895 C894 1.524 . S
C895 C896 1.415 . S
C896 H872 0.950 . S
C896 C891 1.363 . S
C896 C895 1.415 . S
C897 H873 0.951 . S
C897 C898 1.366 . S
C897 C899 1.388 . S
C898 C897 1.366 . S
C898 C902 1.385 . S
C899 H874 0.951 . S
C899 C897 1.388 . S
C899 C900 1.366 . S
C900 C899 1.366 . S
C900 C901 1.414 . S
C900 C903 1.499 . S
C901 H875 0.950 . S
C901 C900 1.414 . S
C901 C902 1.374 . S
C902 H876 0.950 . S
C902 C898 1.385 . S
C902 C901 1.374 . S
C903 C900 1.499 . S
C903 C904 1.373 . S
C903 C905 1.389 . S
C904 H877 0.950 . S
C904 C890 1.377 . S
C904 C903 1.373 . S
C905 C889 1.377 . S
C905 C903 1.389 . S
C905 C906 1.524 . S
C906 C905 1.524 . S
C906 C907 1.397 . S
C906 C911 1.363 . S
C907 H878 0.950 . S
C907 C906 1.397 . S
C907 C908 1.334 . S
C908 H879 0.950 . S
C908 C907 1.334 . S
C908 C909 1.287 . S
C909 C908 1.287 . S
C909 C910 1.524 . S
C909 H912 0.999 . S
C910 H880 0.950 . S
C910 C909 1.524 . S
C910 C911 1.415 . S
C911 H881 0.950 . S
C911 C906 1.363 . S
C911 C910 1.415 . S
H912 C909 0.999 . S
H913 C894 0.913 . S
H914 C932 0.951 . S
H915 C934 0.951 . S
H916 C936 0.950 . S
H917 C937 0.950 . S
H918 C939 0.950 . S
H919 C942 0.950 . S
H920 C943 0.950 . S
H921 C945 0.950 . S
H922 C946 0.950 . S
H923 C947 0.951 . S
H924 C949 0.951 . S
H925 C951 0.950 . S
H926 C952 0.950 . S
H927 C954 0.950 . S
H928 C957 0.950 . S
H929 C958 0.950 . S
H930 C960 0.950 . S
H931 C961 0.950 . S
C932 H914 0.951 . S
C932 C933 1.366 . S
C932 C934 1.388 . S
C933 C932 1.366 . S
C933 C937 1.385 . S
C934 H915 0.951 . S
C934 C932 1.388 . S
C934 C935 1.366 . S
C935 C934 1.366 . S
C935 C936 1.414 . S
C935 C938 1.499 . S
C936 H916 0.950 . S
C936 C935 1.414 . S
C936 C937 1.374 . S
C937 H917 0.950 . S
C937 C933 1.385 . S
C937 C936 1.374 . S
C938 C935 1.499 . S
C938 C939 1.373 . S
C938 C940 1.389 . S
C939 H918 0.950 . S
C939 C938 1.373 . S
C939 C955 1.377 . S
C940 C938 1.389 . S
C940 C941 1.524 . S
C940 C954 1.377 . S
C941 C940 1.524 . S
C941 C942 1.397 . S
C941 C946 1.363 . S
C942 H919 0.950 . S
C942 C941 1.397 . S
C942 C943 1.334 . S
C943 H920 0.950 . S
C943 C942 1.334 . S
C943 C944 1.287 . S
C944 C943 1.287 . S
C944 C945 1.524 . S
C944 H963 0.913 . S
C945 H921 0.950 . S
C945 C944 1.524 . S
C945 C946 1.415 . S
C946 H922 0.950 . S
C946 C941 1.363 . S
C946 C945 1.415 . S
C947 H923 0.951 . S
C947 C948 1.366 . S
C947 C949 1.388 . S
C948 C947 1.366 . S
C948 C952 1.385 . S
C949 H924 0.951 . S
C949 C947 1.388 . S
C949 C950 1.366 . S
C950 C949 1.366 . S
C950 C951 1.414 . S
C950 C953 1.499 . S
C951 H925 0.950 . S
C951 C950 1.414 . S
C951 C952 1.374 . S
C952 H926 0.950 . S
C952 C948 1.385 . S
C952 C951 1.374 . S
C953 C950 1.499 . S
C953 C954 1.373 . S
C953 C955 1.389 . S
C954 H927 0.950 . S
C954 C940 1.377 . S
C954 C953 1.373 . S
C955 C939 1.377 . S
C955 C953 1.389 . S
C955 C956 1.524 . S
C956 C955 1.524 . S
C956 C957 1.397 . S
C956 C961 1.363 . S
C957 H928 0.950 . S
C957 C956 1.397 . S
C957 C958 1.334 . S
C958 H929 0.950 . S
C958 C957 1.334 . S
C958 C959 1.287 . S
C959 C958 1.287 . S
C959 C960 1.524 . S
C959 H962 0.999 . S
C960 H930 0.950 . S
C960 C959 1.524 . S
C960 C961 1.415 . S
C961 H931 0.950 . S
C961 C956 1.363 . S
C961 C960 1.415 . S
H962 C959 0.999 . S
H963 C944 0.913 . S
H964 C982 0.951 . S
H965 C984 0.951 . S
H966 C986 0.950 . S
H967 C987 0.950 . S
H968 C989 0.950 . S
H969 C992 0.950 . S
H970 C993 0.950 . S
H971 C995 0.950 . S
H972 C996 0.950 . S
H973 C997 0.951 . S
H974 C999 0.951 . S
H975 C1001 0.950 . S
H976 C1002 0.950 . S
H977 C1004 0.950 . S
H978 C1007 0.950 . S
H979 C1008 0.950 . S
H980 C1010 0.950 . S
H981 C1011 0.950 . S
C982 H964 0.951 . S
C982 C983 1.366 . S
C982 C984 1.388 . S
C983 C982 1.366 . S
C983 C987 1.385 . S
C984 H965 0.951 . S
C984 C982 1.388 . S
C984 C985 1.366 . S
C985 C984 1.366 . S
C985 C986 1.414 . S
C985 C988 1.499 . S
C986 H966 0.950 . S
C986 C985 1.414 . S
C986 C987 1.374 . S
C987 H967 0.950 . S
C987 C983 1.385 . S
C987 C986 1.374 . S
C988 C985 1.499 . S
C988 C989 1.373 . S
C988 C990 1.389 . S
C989 H968 0.950 . S
C989 C988 1.373 . S
C989 C1005 1.377 . S
C990 C988 1.389 . S
C990 C991 1.524 . S
C990 C1004 1.377 . S
C991 C990 1.524 . S
C991 C992 1.397 . S
C991 C996 1.363 . S
C992 H969 0.950 . S
C992 C991 1.397 . S
C992 C993 1.334 . S
C993 H970 0.950 . S
C993 C992 1.334 . S
C993 C994 1.287 . S
C994 C993 1.287 . S
C994 C995 1.524 . S
C994 H1013 0.913 . S
C995 H971 0.950 . S
C995 C994 1.524 . S
C995 C996 1.415 . S
C996 H972 0.950 . S
C996 C991 1.363 . S
C996 C995 1.415 . S
C997 H973 0.951 . S
C997 C998 1.366 . S
C997 C999 1.388 . S
C998 C997 1.366 . S
C998 C1002 1.385 . S
C999 H974 0.951 . S
C999 C997 1.388 . S
C999 C1000 1.366 . S
C1000 C999 1.366 . S
C1000 C1001 1.414 . S
C1000 C1003 1.499 . S
C1001 H975 0.950 . S
C1001 C1000 1.414 . S
C1001 C1002 1.374 . S
C1002 H976 0.950 . S
C1002 C998 1.385 . S
C1002 C1001 1.374 . S
C1003 C1000 1.499 . S
C1003 C1004 1.373 . S
C1003 C1005 1.389 . S
C1004 H977 0.950 . S
C1004 C990 1.377 . S
C1004 C1003 1.373 . S
C1005 C989 1.377 . S
C1005 C1003 1.389 . S
C1005 C1006 1.524 . S
C1006 C1005 1.524 . S
C1006 C1007 1.397 . S
C1006 C1011 1.363 . S
C1007 H978 0.950 . S
C1007 C1006 1.397 . S
C1007 C1008 1.334 . S
C1008 H979 0.950 . S
C1008 C1007 1.334 . S
C1008 C1009 1.287 . S
C1009 C1008 1.287 . S
C1009 C1010 1.524 . S
C1009 H1012 0.999 . S
C1010 H980 0.950 . S
C1010 C1009 1.524 . S
C1010 C1011 1.415 . S
C1011 H981 0.950 . S
C1011 C1006 1.363 . S
C1011 C1010 1.415 . S
H1012 C1009 0.999 . S
H1013 C994 0.913 . S
H1014 C1032 0.951 . S
H1015 C1034 0.951 . S
H1016 C1036 0.950 . S
H1017 C1037 0.950 . S
H1018 C1039 0.950 . S
H1019 C1042 0.950 . S
H1020 C1043 0.950 . S
H1021 C1045 0.950 . S
H1022 C1046 0.950 . S
H1023 C1047 0.951 . S
H1024 C1049 0.951 . S
H1025 C1051 0.950 . S
H1026 C1052 0.950 . S
H1027 C1054 0.950 . S
H1028 C1057 0.950 . S
H1029 C1058 0.950 . S
H1030 C1060 0.950 . S
H1031 C1061 0.950 . S
C1032 H1014 0.951 . S
C1032 C1033 1.366 . S
C1032 C1034 1.388 . S
C1033 C1032 1.366 . S
C1033 C1037 1.385 . S
C1034 H1015 0.951 . S
C1034 C1032 1.388 . S
C1034 C1035 1.366 . S
C1035 C1034 1.366 . S
C1035 C1036 1.414 . S
C1035 C1038 1.499 . S
C1036 H1016 0.950 . S
C1036 C1035 1.414 . S
C1036 C1037 1.374 . S
C1037 H1017 0.950 . S
C1037 C1033 1.385 . S
C1037 C1036 1.374 . S
C1038 C1035 1.499 . S
C1038 C1039 1.373 . S
C1038 C1040 1.389 . S
C1039 H1018 0.950 . S
C1039 C1038 1.373 . S
C1039 C1055 1.377 . S
C1040 C1038 1.389 . S
C1040 C1041 1.524 . S
C1040 C1054 1.377 . S
C1041 C1040 1.524 . S
C1041 C1042 1.397 . S
C1041 C1046 1.363 . S
C1042 H1019 0.950 . S
C1042 C1041 1.397 . S
C1042 C1043 1.334 . S
C1043 H1020 0.950 . S
C1043 C1042 1.334 . S
C1043 C1044 1.287 . S
C1044 C1043 1.287 . S
C1044 C1045 1.524 . S
C1044 H1063 0.913 . S
C1045 H1021 0.950 . S
C1045 C1044 1.524 . S
C1045 C1046 1.415 . S
C1046 H1022 0.950 . S
C1046 C1041 1.363 . S
C1046 C1045 1.415 . S
C1047 H1023 0.951 . S
C1047 C1048 1.366 . S
C1047 C1049 1.388 . S
C1048 C1047 1.366 . S
C1048 C1052 1.385 . S
C1049 H1024 0.951 . S
C1049 C1047 1.388 . S
C1049 C1050 1.366 . S
C1050 C1049 1.366 . S
C1050 C1051 1.414 . S
C1050 C1053 1.499 . S
C1051 H1025 0.950 . S
C1051 C1050 1.414 . S
C1051 C1052 1.374 . S
C1052 H1026 0.950 . S
C1052 C1048 1.385 . S
C1052 C1051 1.374 . S
C1053 C1050 1.499 . S
C1053 C1054 1.373 . S
C1053 C1055 1.389 . S
C1054 H1027 0.950 . S
C1054 C1040 1.377 . S
C1054 C1053 1.373 . S
C1055 C1039 1.377 . S
C1055 C1053 1.389 . S
C1055 C1056 1.524 . S
C1056 C1055 1.524 . S
C1056 C1057 1.397 . S
C1056 C1061 1.363 . S
C1057 H1028 0.950 . S
C1057 C1056 1.397 . S
C1057 C1058 1.334 . S
C1058 H1029 0.950 . S
C1058 C1057 1.334 . S
C1058 C1059 1.287 . S
C1059 C1058 1.287 . S
C1059 C1060 1.524 . S
C1059 H1062 0.999 . S
C1060 H1030 0.950 . S
C1060 C1059 1.524 . S
C1060 C1061 1.415 . S
C1061 H1031 0.950 . S
C1061 C1056 1.363 . S
C1061 C1060 1.415 . S
H1062 C1059 0.999 . S
H1063 C1044 0.913 . S
H1064 C1082 0.951 . S
H1065 C1084 0.951 . S
H1066 C1086 0.950 . S
H1067 C1087 0.950 . S
H1068 C1089 0.950 . S
H1069 C1092 0.950 . S
H1070 C1093 0.950 . S
H1071 C1095 0.950 . S
H1072 C1096 0.950 . S
H1073 C1097 0.951 . S
H1074 C1099 0.951 . S
H1075 C1101 0.950 . S
H1076 C1102 0.950 . S
H1077 C1104 0.950 . S
H1078 C1107 0.950 . S
H1079 C1108 0.950 1_554 S
H1080 C1110 0.950 . S
H1081 C1111 0.950 . S
C1082 H1064 0.951 . S
C1082 C1083 1.366 . S
C1082 C1084 1.388 . S
C1083 C1082 1.366 . S
C1083 C1087 1.385 . S
C1084 H1065 0.951 . S
C1084 C1082 1.388 . S
C1084 C1085 1.366 . S
C1085 C1084 1.366 . S
C1085 C1086 1.414 . S
C1085 C1088 1.499 . S
C1086 H1066 0.950 . S
C1086 C1085 1.414 . S
C1086 C1087 1.374 . S
C1087 H1067 0.950 . S
C1087 C1083 1.385 . S
C1087 C1086 1.374 . S
C1088 C1085 1.499 . S
C1088 C1089 1.373 . S
C1088 C1090 1.389 . S
C1089 H1068 0.950 . S
C1089 C1088 1.373 . S
C1089 C1105 1.377 . S
C1090 C1088 1.389 . S
C1090 C1091 1.524 . S
C1090 C1104 1.377 . S
C1091 C1090 1.524 . S
C1091 C1092 1.397 . S
C1091 C1096 1.363 . S
C1092 H1069 0.950 . S
C1092 C1091 1.397 . S
C1092 C1093 1.334 . S
C1093 H1070 0.950 . S
C1093 C1092 1.334 . S
C1093 C1094 1.287 . S
C1094 C1093 1.287 . S
C1094 C1095 1.524 . S
C1094 H1113 0.913 . S
C1095 H1071 0.950 . S
C1095 C1094 1.524 . S
C1095 C1096 1.415 . S
C1096 H1072 0.950 . S
C1096 C1091 1.363 . S
C1096 C1095 1.415 . S
C1097 H1073 0.951 . S
C1097 C1098 1.366 . S
C1097 C1099 1.388 . S
C1098 C1097 1.366 . S
C1098 C1102 1.385 . S
C1099 H1074 0.951 . S
C1099 C1097 1.388 . S
C1099 C1100 1.366 . S
C1100 C1099 1.366 . S
C1100 C1101 1.414 . S
C1100 C1103 1.499 . S
C1101 H1075 0.950 . S
C1101 C1100 1.414 . S
C1101 C1102 1.374 . S
C1102 H1076 0.950 . S
C1102 C1098 1.385 . S
C1102 C1101 1.374 . S
C1103 C1100 1.499 . S
C1103 C1104 1.373 . S
C1103 C1105 1.389 . S
C1104 H1077 0.950 . S
C1104 C1090 1.377 . S
C1104 C1103 1.373 . S
C1105 C1089 1.377 . S
C1105 C1103 1.389 . S
C1105 C1106 1.524 . S
C1106 C1105 1.524 . S
C1106 C1107 1.397 . S
C1106 C1111 1.363 . S
C1107 H1078 0.950 . S
C1107 C1106 1.397 . S
C1107 C1108 1.334 . S
C1108 H1079 0.950 1_556 S
C1108 C1107 1.334 . S
C1108 C1109 1.287 1_556 S
C1109 C1108 1.287 1_554 S
C1109 C1110 1.524 1_554 S
C1109 H1112 0.999 . S
C1110 H1080 0.950 . S
C1110 C1109 1.524 1_556 S
C1110 C1111 1.415 . S
C1111 H1081 0.950 . S
C1111 C1106 1.363 . S
C1111 C1110 1.415 . S
H1112 C1109 0.999 . S
H1113 C1094 0.913 . S
H1114 C1132 0.951 . S
H1115 C1134 0.951 . S
H1116 C1136 0.950 . S
H1117 C1137 0.950 . S
H1118 C1139 0.950 . S
H1119 C1142 0.950 . S
H1120 C1143 0.950 . S
H1121 C1145 0.950 . S
H1122 C1146 0.950 . S
H1123 C1147 0.951 . S
H1124 C1149 0.951 . S
H1125 C1151 0.950 . S
H1126 C1152 0.950 . S
H1127 C1154 0.950 . S
H1128 C1157 0.950 . S
H1129 C1158 0.950 . S
H1130 C1160 0.950 . S
H1131 C1161 0.950 . S
C1132 H1114 0.951 . S
C1132 C1133 1.366 . S
C1132 C1134 1.388 . S
C1133 C1132 1.366 . S
C1133 C1137 1.385 . S
C1134 H1115 0.951 . S
C1134 C1132 1.388 . S
C1134 C1135 1.366 . S
C1135 C1134 1.366 . S
C1135 C1136 1.414 . S
C1135 C1138 1.499 . S
C1136 H1116 0.950 . S
C1136 C1135 1.414 . S
C1136 C1137 1.374 . S
C1137 H1117 0.950 . S
C1137 C1133 1.385 . S
C1137 C1136 1.374 . S
C1138 C1135 1.499 . S
C1138 C1139 1.373 . S
C1138 C1140 1.389 . S
C1139 H1118 0.950 . S
C1139 C1138 1.373 . S
C1139 C1155 1.377 . S
C1140 C1138 1.389 . S
C1140 C1141 1.524 . S
C1140 C1154 1.377 . S
C1141 C1140 1.524 . S
C1141 C1142 1.397 . S
C1141 C1146 1.363 . S
C1142 H1119 0.950 . S
C1142 C1141 1.397 . S
C1142 C1143 1.334 . S
C1143 H1120 0.950 . S
C1143 C1142 1.334 . S
C1143 C1144 1.287 . S
C1144 C1143 1.287 . S
C1144 C1145 1.524 . S
C1144 H1163 0.913 . S
C1145 H1121 0.950 . S
C1145 C1144 1.524 . S
C1145 C1146 1.415 . S
C1146 H1122 0.950 . S
C1146 C1141 1.363 . S
C1146 C1145 1.415 . S
C1147 H1123 0.951 . S
C1147 C1148 1.366 . S
C1147 C1149 1.388 . S
C1148 C1147 1.366 . S
C1148 C1152 1.385 . S
C1149 H1124 0.951 . S
C1149 C1147 1.388 . S
C1149 C1150 1.366 . S
C1150 C1149 1.366 . S
C1150 C1151 1.414 . S
C1150 C1153 1.499 . S
C1151 H1125 0.950 . S
C1151 C1150 1.414 . S
C1151 C1152 1.374 . S
C1152 H1126 0.950 . S
C1152 C1148 1.385 . S
C1152 C1151 1.374 . S
C1153 C1150 1.499 . S
C1153 C1154 1.373 . S
C1153 C1155 1.389 . S
C1154 H1127 0.950 . S
C1154 C1140 1.377 . S
C1154 C1153 1.373 . S
C1155 C1139 1.377 . S
C1155 C1153 1.389 . S
C1155 C1156 1.524 . S
C1156 C1155 1.524 . S
C1156 C1157 1.397 . S
C1156 C1161 1.363 . S
C1157 H1128 0.950 . S
C1157 C1156 1.397 . S
C1157 C1158 1.334 . S
C1158 H1129 0.950 . S
C1158 C1157 1.334 . S
C1158 C1159 1.287 . S
C1159 C1158 1.287 . S
C1159 C1160 1.524 . S
C1159 H1162 0.999 . S
C1160 H1130 0.950 . S
C1160 C1159 1.524 . S
C1160 C1161 1.415 . S
C1161 H1131 0.950 . S
C1161 C1156 1.363 . S
C1161 C1160 1.415 . S
H1162 C1159 0.999 . S
H1163 C1144 0.913 . S
H1164 C1182 0.951 . S
H1165 C1184 0.951 . S
H1166 C1186 0.950 . S
H1167 C1187 0.950 . S
H1168 C1189 0.950 . S
H1169 C1192 0.950 . S
H1170 C1193 0.950 . S
H1171 C1195 0.950 . S
H1172 C1196 0.950 . S
H1173 C1197 0.951 . S
H1174 C1199 0.951 . S
H1175 C1201 0.950 . S
H1176 C1202 0.950 . S
H1177 C1204 0.950 . S
H1178 C1207 0.950 . S
H1179 C1208 0.950 . S
H1180 C1210 0.950 . S
H1181 C1211 0.950 . S
C1182 H1164 0.951 . S
C1182 C1183 1.366 . S
C1182 C1184 1.388 . S
C1183 C1182 1.366 . S
C1183 C1187 1.385 . S
C1184 H1165 0.951 . S
C1184 C1182 1.388 . S
C1184 C1185 1.366 . S
C1185 C1184 1.366 . S
C1185 C1186 1.414 . S
C1185 C1188 1.499 . S
C1186 H1166 0.950 . S
C1186 C1185 1.414 . S
C1186 C1187 1.374 . S
C1187 H1167 0.950 . S
C1187 C1183 1.385 . S
C1187 C1186 1.374 . S
C1188 C1185 1.499 . S
C1188 C1189 1.373 . S
C1188 C1190 1.389 . S
C1189 H1168 0.950 . S
C1189 C1188 1.373 . S
C1189 C1205 1.377 . S
C1190 C1188 1.389 . S
C1190 C1191 1.524 . S
C1190 C1204 1.377 . S
C1191 C1190 1.524 . S
C1191 C1192 1.397 . S
C1191 C1196 1.363 . S
C1192 H1169 0.950 . S
C1192 C1191 1.397 . S
C1192 C1193 1.334 . S
C1193 H1170 0.950 . S
C1193 C1192 1.334 . S
C1193 C1194 1.287 . S
C1194 C1193 1.287 . S
C1194 C1195 1.524 . S
C1194 H1213 0.913 . S
C1195 H1171 0.950 . S
C1195 C1194 1.524 . S
C1195 C1196 1.415 . S
C1196 H1172 0.950 . S
C1196 C1191 1.363 . S
C1196 C1195 1.415 . S
C1197 H1173 0.951 . S
C1197 C1198 1.366 . S
C1197 C1199 1.388 . S
C1198 C1197 1.366 . S
C1198 C1202 1.385 . S
C1199 H1174 0.951 . S
C1199 C1197 1.388 . S
C1199 C1200 1.366 . S
C1200 C1199 1.366 . S
C1200 C1201 1.414 . S
C1200 C1203 1.499 . S
C1201 H1175 0.950 . S
C1201 C1200 1.414 . S
C1201 C1202 1.374 . S
C1202 H1176 0.950 . S
C1202 C1198 1.385 . S
C1202 C1201 1.374 . S
C1203 C1200 1.499 . S
C1203 C1204 1.373 . S
C1203 C1205 1.389 . S
C1204 H1177 0.950 . S
C1204 C1190 1.377 . S
C1204 C1203 1.373 . S
C1205 C1189 1.377 . S
C1205 C1203 1.389 . S
C1205 C1206 1.524 . S
C1206 C1205 1.524 . S
C1206 C1207 1.397 . S
C1206 C1211 1.363 . S
C1207 H1178 0.950 . S
C1207 C1206 1.397 . S
C1207 C1208 1.334 . S
C1208 H1179 0.950 . S
C1208 C1207 1.334 . S
C1208 C1209 1.287 . S
C1209 C1208 1.287 . S
C1209 C1210 1.524 . S
C1209 H1212 0.999 . S
C1210 H1180 0.950 . S
C1210 C1209 1.524 . S
C1210 C1211 1.415 . S
C1211 H1181 0.950 . S
C1211 C1206 1.363 . S
C1211 C1210 1.415 . S
H1212 C1209 0.999 . S
H1213 C1194 0.913 . S
H1214 C1232 0.951 . S
H1215 C1234 0.951 . S
H1216 C1236 0.950 . S
H1217 C1237 0.950 . S
H1218 C1239 0.950 . S
H1219 C1242 0.950 . S
H1220 C1243 0.950 . S
H1221 C1245 0.950 . S
H1222 C1246 0.950 . S
H1223 C1247 0.951 . S
H1224 C1249 0.951 . S
H1225 C1251 0.950 . S
H1226 C1252 0.950 . S
H1227 C1254 0.950 . S
H1228 C1257 0.950 . S
H1229 C1258 0.950 . S
H1230 C1260 0.950 . S
H1231 C1261 0.950 . S
C1232 H1214 0.951 . S
C1232 C1233 1.366 . S
C1232 C1234 1.388 . S
C1233 C1232 1.366 . S
C1233 C1237 1.385 . S
C1234 H1215 0.951 . S
C1234 C1232 1.388 . S
C1234 C1235 1.366 . S
C1235 C1234 1.366 . S
C1235 C1236 1.414 . S
C1235 C1238 1.499 . S
C1236 H1216 0.950 . S
C1236 C1235 1.414 . S
C1236 C1237 1.374 . S
C1237 H1217 0.950 . S
C1237 C1233 1.385 . S
C1237 C1236 1.374 . S
C1238 C1235 1.499 . S
C1238 C1239 1.373 . S
C1238 C1240 1.389 . S
C1239 H1218 0.950 . S
C1239 C1238 1.373 . S
C1239 C1255 1.377 . S
C1240 C1238 1.389 . S
C1240 C1241 1.524 . S
C1240 C1254 1.377 . S
C1241 C1240 1.524 . S
C1241 C1242 1.397 . S
C1241 C1246 1.363 . S
C1242 H1219 0.950 . S
C1242 C1241 1.397 . S
C1242 C1243 1.334 . S
C1243 H1220 0.950 . S
C1243 C1242 1.334 . S
C1243 C1244 1.287 . S
C1244 C1243 1.287 . S
C1244 C1245 1.524 . S
C1244 H1263 0.913 . S
C1245 H1221 0.950 . S
C1245 C1244 1.524 . S
C1245 C1246 1.415 . S
C1246 H1222 0.950 . S
C1246 C1241 1.363 . S
C1246 C1245 1.415 . S
C1247 H1223 0.951 . S
C1247 C1248 1.366 . S
C1247 C1249 1.388 . S
C1248 C1247 1.366 . S
C1248 C1252 1.385 . S
C1249 H1224 0.951 . S
C1249 C1247 1.388 . S
C1249 C1250 1.366 . S
C1250 C1249 1.366 . S
C1250 C1251 1.414 . S
C1250 C1253 1.499 . S
C1251 H1225 0.950 . S
C1251 C1250 1.414 . S
C1251 C1252 1.374 . S
C1252 H1226 0.950 . S
C1252 C1248 1.385 . S
C1252 C1251 1.374 . S
C1253 C1250 1.499 . S
C1253 C1254 1.373 . S
C1253 C1255 1.389 . S
C1254 H1227 0.950 . S
C1254 C1240 1.377 . S
C1254 C1253 1.373 . S
C1255 C1239 1.377 . S
C1255 C1253 1.389 . S
C1255 C1256 1.524 . S
C1256 C1255 1.524 . S
C1256 C1257 1.397 . S
C1256 C1261 1.363 . S
C1257 H1228 0.950 . S
C1257 C1256 1.397 . S
C1257 C1258 1.334 . S
C1258 H1229 0.950 . S
C1258 C1257 1.334 . S
C1258 C1259 1.287 . S
C1259 C1258 1.287 . S
C1259 C1260 1.524 . S
C1259 H1262 0.999 . S
C1260 H1230 0.950 . S
C1260 C1259 1.524 . S
C1260 C1261 1.415 . S
C1261 H1231 0.950 . S
C1261 C1256 1.363 . S
C1261 C1260 1.415 . S
H1262 C1259 0.999 . S
H1263 C1244 0.913 . S
H1264 C1282 0.951 . S
H1265 C1284 0.951 . S
H1266 C1286 0.950 . S
H1267 C1287 0.950 . S
H1268 C1289 0.950 . S
H1269 C1292 0.950 . S
H1270 C1293 0.950 . S
H1271 C1295 0.950 . S
H1272 C1296 0.950 . S
H1273 C1297 0.951 . S
H1274 C1299 0.951 . S
H1275 C1301 0.950 . S
H1276 C1302 0.950 . S
H1277 C1304 0.950 . S
H1278 C1307 0.950 . S
H1279 C1308 0.950 . S
H1280 C1310 0.950 . S
H1281 C1311 0.950 . S
C1282 H1264 0.951 . S
C1282 C1283 1.366 . S
C1282 C1284 1.388 . S
C1283 C1282 1.366 . S
C1283 C1287 1.385 . S
C1284 H1265 0.951 . S
C1284 C1282 1.388 . S
C1284 C1285 1.366 . S
C1285 C1284 1.366 . S
C1285 C1286 1.414 . S
C1285 C1288 1.499 . S
C1286 H1266 0.950 . S
C1286 C1285 1.414 . S
C1286 C1287 1.374 . S
C1287 H1267 0.950 . S
C1287 C1283 1.385 . S
C1287 C1286 1.374 . S
C1288 C1285 1.499 . S
C1288 C1289 1.373 . S
C1288 C1290 1.389 . S
C1289 H1268 0.950 . S
C1289 C1288 1.373 . S
C1289 C1305 1.377 . S
C1290 C1288 1.389 . S
C1290 C1291 1.524 . S
C1290 C1304 1.377 . S
C1291 C1290 1.524 . S
C1291 C1292 1.397 . S
C1291 C1296 1.363 . S
C1292 H1269 0.950 . S
C1292 C1291 1.397 . S
C1292 C1293 1.334 . S
C1293 H1270 0.950 . S
C1293 C1292 1.334 . S
C1293 C1294 1.287 . S
C1294 C1293 1.287 . S
C1294 C1295 1.524 . S
C1294 H1313 0.913 . S
C1295 H1271 0.950 . S
C1295 C1294 1.524 . S
C1295 C1296 1.415 . S
C1296 H1272 0.950 . S
C1296 C1291 1.363 . S
C1296 C1295 1.415 . S
C1297 H1273 0.951 . S
C1297 C1298 1.366 . S
C1297 C1299 1.388 . S
C1298 C1297 1.366 . S
C1298 C1302 1.385 . S
C1299 H1274 0.951 . S
C1299 C1297 1.388 . S
C1299 C1300 1.366 . S
C1300 C1299 1.366 . S
C1300 C1301 1.414 . S
C1300 C1303 1.499 . S
C1301 H1275 0.950 . S
C1301 C1300 1.414 . S
C1301 C1302 1.374 . S
C1302 H1276 0.950 . S
C1302 C1298 1.385 . S
C1302 C1301 1.374 . S
C1303 C1300 1.499 . S
C1303 C1304 1.373 . S
C1303 C1305 1.389 . S
C1304 H1277 0.950 . S
C1304 C1290 1.377 . S
C1304 C1303 1.373 . S
C1305 C1289 1.377 . S
C1305 C1303 1.389 . S
C1305 C1306 1.524 . S
C1306 C1305 1.524 . S
C1306 C1307 1.397 . S
C1306 C1311 1.363 . S
C1307 H1278 0.950 . S
C1307 C1306 1.397 . S
C1307 C1308 1.334 . S
C1308 H1279 0.950 . S
C1308 C1307 1.334 . S
C1308 C1309 1.287 . S
C1309 C1308 1.287 . S
C1309 C1310 1.524 . S
C1309 H1312 0.999 . S
C1310 H1280 0.950 . S
C1310 C1309 1.524 . S
C1310 C1311 1.415 . S
C1311 H1281 0.950 . S
C1311 C1306 1.363 . S
C1311 C1310 1.415 . S
H1312 C1309 0.999 . S
H1313 C1294 0.913 . S
H1314 C1332 0.951 . S
H1315 C1334 0.951 . S
H1316 C1336 0.950 . S
H1317 C1337 0.950 . S
H1318 C1339 0.950 . S
H1319 C1342 0.950 . S
H1320 C1343 0.950 . S
H1321 C1345 0.950 . S
H1322 C1346 0.950 . S
H1323 C1347 0.951 . S
H1324 C1349 0.951 . S
H1325 C1351 0.950 . S
H1326 C1352 0.950 . S
H1327 C1354 0.950 . S
H1328 C1357 0.950 . S
H1329 C1358 0.950 . S
H1330 C1360 0.950 . S
H1331 C1361 0.950 . S
C1332 H1314 0.951 . S
C1332 C1333 1.366 . S
C1332 C1334 1.388 . S
C1333 C1332 1.366 . S
C1333 C1337 1.385 . S
C1334 H1315 0.951 . S
C1334 C1332 1.388 . S
C1334 C1335 1.366 . S
C1335 C1334 1.366 . S
C1335 C1336 1.414 . S
C1335 C1338 1.499 . S
C1336 H1316 0.950 . S
C1336 C1335 1.414 . S
C1336 C1337 1.374 . S
C1337 H1317 0.950 . S
C1337 C1333 1.385 . S
C1337 C1336 1.374 . S
C1338 C1335 1.499 . S
C1338 C1339 1.373 . S
C1338 C1340 1.389 . S
C1339 H1318 0.950 . S
C1339 C1338 1.373 . S
C1339 C1355 1.377 . S
C1340 C1338 1.389 . S
C1340 C1341 1.524 . S
C1340 C1354 1.377 . S
C1341 C1340 1.524 . S
C1341 C1342 1.397 . S
C1341 C1346 1.363 . S
C1342 H1319 0.950 . S
C1342 C1341 1.397 . S
C1342 C1343 1.334 . S
C1343 H1320 0.950 . S
C1343 C1342 1.334 . S
C1343 C1344 1.287 . S
C1344 C1343 1.287 . S
C1344 C1345 1.524 . S
C1344 H1363 0.913 . S
C1345 H1321 0.950 . S
C1345 C1344 1.524 . S
C1345 C1346 1.415 . S
C1346 H1322 0.950 . S
C1346 C1341 1.363 . S
C1346 C1345 1.415 . S
C1347 H1323 0.951 . S
C1347 C1348 1.366 . S
C1347 C1349 1.388 . S
C1348 C1347 1.366 . S
C1348 C1352 1.385 . S
C1349 H1324 0.951 . S
C1349 C1347 1.388 . S
C1349 C1350 1.366 . S
C1350 C1349 1.366 . S
C1350 C1351 1.414 . S
C1350 C1353 1.499 . S
C1351 H1325 0.950 . S
C1351 C1350 1.414 . S
C1351 C1352 1.374 . S
C1352 H1326 0.950 . S
C1352 C1348 1.385 . S
C1352 C1351 1.374 . S
C1353 C1350 1.499 . S
C1353 C1354 1.373 . S
C1353 C1355 1.389 . S
C1354 H1327 0.950 . S
C1354 C1340 1.377 . S
C1354 C1353 1.373 . S
C1355 C1339 1.377 . S
C1355 C1353 1.389 . S
C1355 C1356 1.524 . S
C1356 C1355 1.524 . S
C1356 C1357 1.397 . S
C1356 C1361 1.363 . S
C1357 H1328 0.950 . S
C1357 C1356 1.397 . S
C1357 C1358 1.334 . S
C1358 H1329 0.950 . S
C1358 C1357 1.334 . S
C1358 C1359 1.287 . S
C1359 C1358 1.287 . S
C1359 C1360 1.524 . S
C1359 H1362 0.999 . S
C1360 H1330 0.950 . S
C1360 C1359 1.524 . S
C1360 C1361 1.415 . S
C1361 H1331 0.950 . S
C1361 C1356 1.363 . S
C1361 C1360 1.415 . S
H1362 C1359 0.999 . S
H1363 C1344 0.913 . S
H1364 C1382 0.951 . S
H1365 C1384 0.951 . S
H1366 C1386 0.950 . S
H1367 C1387 0.950 . S
H1368 C1389 0.950 . S
H1369 C1392 0.950 . S
H1370 C1393 0.950 . S
H1371 C1395 0.950 . S
H1372 C1396 0.950 . S
H1373 C1397 0.951 . S
H1374 C1399 0.951 . S
H1375 C1401 0.950 . S
H1376 C1402 0.950 . S
H1377 C1404 0.950 . S
H1378 C1407 0.950 . S
H1379 C1408 0.950 . S
H1380 C1410 0.950 . S
H1381 C1411 0.950 . S
C1382 H1364 0.951 . S
C1382 C1383 1.366 . S
C1382 C1384 1.388 . S
C1383 C1382 1.366 . S
C1383 C1387 1.385 . S
C1384 H1365 0.951 . S
C1384 C1382 1.388 . S
C1384 C1385 1.366 . S
C1385 C1384 1.366 . S
C1385 C1386 1.414 . S
C1385 C1388 1.499 . S
C1386 H1366 0.950 . S
C1386 C1385 1.414 . S
C1386 C1387 1.374 . S
C1387 H1367 0.950 . S
C1387 C1383 1.385 . S
C1387 C1386 1.374 . S
C1388 C1385 1.499 . S
C1388 C1389 1.373 . S
C1388 C1390 1.389 . S
C1389 H1368 0.950 . S
C1389 C1388 1.373 . S
C1389 C1405 1.377 . S
C1390 C1388 1.389 . S
C1390 C1391 1.524 . S
C1390 C1404 1.377 . S
C1391 C1390 1.524 . S
C1391 C1392 1.397 . S
C1391 C1396 1.363 . S
C1392 H1369 0.950 . S
C1392 C1391 1.397 . S
C1392 C1393 1.334 . S
C1393 H1370 0.950 . S
C1393 C1392 1.334 . S
C1393 C1394 1.287 . S
C1394 C1393 1.287 . S
C1394 C1395 1.524 . S
C1394 H1413 0.913 . S
C1395 H1371 0.950 . S
C1395 C1394 1.524 . S
C1395 C1396 1.415 . S
C1396 H1372 0.950 . S
C1396 C1391 1.363 . S
C1396 C1395 1.415 . S
C1397 H1373 0.951 . S
C1397 C1398 1.366 . S
C1397 C1399 1.388 . S
C1398 C1397 1.366 . S
C1398 C1402 1.385 . S
C1399 H1374 0.951 . S
C1399 C1397 1.388 . S
C1399 C1400 1.366 . S
C1400 C1399 1.366 . S
C1400 C1401 1.414 . S
C1400 C1403 1.499 . S
C1401 H1375 0.950 . S
C1401 C1400 1.414 . S
C1401 C1402 1.374 . S
C1402 H1376 0.950 . S
C1402 C1398 1.385 . S
C1402 C1401 1.374 . S
C1403 C1400 1.499 . S
C1403 C1404 1.373 . S
C1403 C1405 1.389 . S
C1404 H1377 0.950 . S
C1404 C1390 1.377 . S
C1404 C1403 1.373 . S
C1405 C1389 1.377 . S
C1405 C1403 1.389 . S
C1405 C1406 1.524 . S
C1406 C1405 1.524 . S
C1406 C1407 1.397 . S
C1406 C1411 1.363 . S
C1407 H1378 0.950 . S
C1407 C1406 1.397 . S
C1407 C1408 1.334 . S
C1408 H1379 0.950 . S
C1408 C1407 1.334 . S
C1408 C1409 1.287 . S
C1409 C1408 1.287 . S
C1409 C1410 1.524 . S
C1409 H1412 0.999 . S
C1410 H1380 0.950 . S
C1410 C1409 1.524 . S
C1410 C1411 1.415 . S
C1411 H1381 0.950 . S
C1411 C1406 1.363 . S
C1411 C1410 1.415 . S
H1412 C1409 0.999 . S
H1413 C1394 0.913 . S
H1414 C1432 0.951 . S
H1415 C1434 0.951 . S
H1416 C1436 0.950 . S
H1417 C1437 0.950 . S
H1418 C1439 0.950 . S
H1419 C1442 0.950 . S
H1420 C1443 0.950 . S
H1421 C1445 0.950 . S
H1422 C1446 0.950 . S
H1423 C1447 0.951 . S
H1424 C1449 0.951 . S
H1425 C1451 0.950 . S
H1426 C1452 0.950 . S
H1427 C1454 0.950 . S
H1428 C1457 0.950 . S
H1429 C1458 0.950 . S
H1430 C1460 0.950 . S
H1431 C1461 0.950 . S
C1432 H1414 0.951 . S
C1432 C1433 1.366 . S
C1432 C1434 1.388 . S
C1433 C1432 1.366 . S
C1433 C1437 1.385 . S
C1434 H1415 0.951 . S
C1434 C1432 1.388 . S
C1434 C1435 1.366 . S
C1435 C1434 1.366 . S
C1435 C1436 1.414 . S
C1435 C1438 1.499 . S
C1436 H1416 0.950 . S
C1436 C1435 1.414 . S
C1436 C1437 1.374 . S
C1437 H1417 0.950 . S
C1437 C1433 1.385 . S
C1437 C1436 1.374 . S
C1438 C1435 1.499 . S
C1438 C1439 1.373 . S
C1438 C1440 1.389 . S
C1439 H1418 0.950 . S
C1439 C1438 1.373 . S
C1439 C1455 1.377 . S
C1440 C1438 1.389 . S
C1440 C1441 1.524 . S
C1440 C1454 1.377 . S
C1441 C1440 1.524 . S
C1441 C1442 1.397 . S
C1441 C1446 1.363 . S
C1442 H1419 0.950 . S
C1442 C1441 1.397 . S
C1442 C1443 1.334 . S
C1443 H1420 0.950 . S
C1443 C1442 1.334 . S
C1443 C1444 1.287 . S
C1444 C1443 1.287 . S
C1444 C1445 1.524 . S
C1444 H1463 0.913 . S
C1445 H1421 0.950 . S
C1445 C1444 1.524 . S
C1445 C1446 1.415 . S
C1446 H1422 0.950 . S
C1446 C1441 1.363 . S
C1446 C1445 1.415 . S
C1447 H1423 0.951 . S
C1447 C1448 1.366 . S
C1447 C1449 1.388 . S
C1448 C1447 1.366 . S
C1448 C1452 1.385 . S
C1449 H1424 0.951 . S
C1449 C1447 1.388 . S
C1449 C1450 1.366 . S
C1450 C1449 1.366 . S
C1450 C1451 1.414 . S
C1450 C1453 1.499 . S
C1451 H1425 0.950 . S
C1451 C1450 1.414 . S
C1451 C1452 1.374 . S
C1452 H1426 0.950 . S
C1452 C1448 1.385 . S
C1452 C1451 1.374 . S
C1453 C1450 1.499 . S
C1453 C1454 1.373 . S
C1453 C1455 1.389 . S
C1454 H1427 0.950 . S
C1454 C1440 1.377 . S
C1454 C1453 1.373 . S
C1455 C1439 1.377 . S
C1455 C1453 1.389 . S
C1455 C1456 1.524 . S
C1456 C1455 1.524 . S
C1456 C1457 1.397 . S
C1456 C1461 1.363 . S
C1457 H1428 0.950 . S
C1457 C1456 1.397 . S
C1457 C1458 1.334 . S
C1458 H1429 0.950 . S
C1458 C1457 1.334 . S
C1458 C1459 1.287 . S
C1459 C1458 1.287 . S
C1459 C1460 1.524 . S
C1459 H1462 0.999 . S
C1460 H1430 0.950 . S
C1460 C1459 1.524 . S
C1460 C1461 1.415 . S
C1461 H1431 0.950 . S
C1461 C1456 1.363 . S
C1461 C1460 1.415 . S
H1462 C1459 0.999 . S
H1463 C1444 0.913 . S
C283 C9 1.476 . S
C298 C110 1.502 . S
C333 C21 0.997 . S
C348 C159 0.998 . S
C398 C194 2.114 . S
C383 C30 2.125 . S
C433 C43 2.107 . S
C448 C233 2.170 1_655 S
C498 C154 2.109 . S
C483 C4 1.899 . S
C548 C113 1.665 . S
C533 C22 1.730 . S
C598 C243 1.457 . S
C583 C34 1.488 . S
C648 C202 1.395 . S
C633 C48 1.418 . S
C683 C8 1.594 . S
C698 C230 1.632 . S
C748 C162 2.255 . S
C733 C35 2.334 . S
C783 C47 2.593 . S
C798 C123 2.581 . S
C833 C17 0.647 . S
C848 C199 0.644 . S
C898 C119 1.013 . S
C883 C60 1.003 . S
C933 C74 1.083 . S
C948 C150 1.078 . S
C983 C82 1.847 . S
C998 C203 1.880 . S
C1033 C100 2.736 . S
C1048 C242 2.662 . S
C1083 C61 2.569 . S
C1098 C163 2.645 . S
C1148 C122 0.862 . S
C1133 C73 0.877 . S
C1198 C234 2.116 . S
C1183 C87 2.181 . S
C1248 C193 1.137 . S
C1233 C95 1.131 . S
C1283 C56 1.535 . S
C1298 C239 1.541 . S
C1348 C153 2.473 . S
C1333 C86 2.548 . S
C1398 C114 2.302 . S
C1383 C99 2.316 . S
C1433 C69 0.631 . S
C1448 C190 0.576 . S
