# Generated by pormake.
# Topology pto, (3,4)-cn, num edge types: 1
# Building blocks:
#     Node 0, Type 0, BuildingBlock: OLANEW_clean_sbu_2, # of connection points: 3
#     Node 1, Type 0, BuildingBlock: OLANEW_clean_sbu_2, # of connection points: 3
#     Node 2, Type 0, BuildingBlock: OLANEW_clean_sbu_2, # of connection points: 3
#     Node 3, Type 0, BuildingBlock: OLANEW_clean_sbu_2, # of connection points: 3
#     Node 4, Type 0, BuildingBlock: OLANEW_clean_sbu_2, # of connection points: 3
#     Node 5, Type 0, BuildingBlock: OLANEW_clean_sbu_2, # of connection points: 3
#     Node 6, Type 0, BuildingBlock: OLANEW_clean_sbu_2, # of connection points: 3
#     Node 7, Type 0, BuildingBlock: OLANEW_clean_sbu_2, # of connection points: 3
#     Node 8, Type 1, BuildingBlock: GIZVER_clean_linker_0, # of connection points: 4
#     Node 9, Type 1, BuildingBlock: GIZVER_clean_linker_0, # of connection points: 4
#     Node 10, Type 1, BuildingBlock: GIZVER_clean_linker_0, # of connection points: 4
#     Node 11, Type 1, BuildingBlock: GIZVER_clean_linker_0, # of connection points: 4
#     Node 12, Type 1, BuildingBlock: GIZVER_clean_linker_0, # of connection points: 4
#     Node 13, Type 1, BuildingBlock: GIZVER_clean_linker_0, # of connection points: 4
#     Edge 14, Type (0, 1), BuildingBlock: UVAHIK_clean_linker_0, # of connection points: 2
#     Edge 15, Type (0, 1), BuildingBlock: UVAHIK_clean_linker_0, # of connection points: 2
#     Edge 16, Type (0, 1), BuildingBlock: UVAHIK_clean_linker_0, # of connection points: 2
#     Edge 17, Type (0, 1), BuildingBlock: UVAHIK_clean_linker_0, # of connection points: 2
#     Edge 18, Type (0, 1), BuildingBlock: UVAHIK_clean_linker_0, # of connection points: 2
#     Edge 19, Type (0, 1), BuildingBlock: UVAHIK_clean_linker_0, # of connection points: 2
#     Edge 20, Type (0, 1), BuildingBlock: UVAHIK_clean_linker_0, # of connection points: 2
#     Edge 21, Type (0, 1), BuildingBlock: UVAHIK_clean_linker_0, # of connection points: 2
#     Edge 22, Type (0, 1), BuildingBlock: UVAHIK_clean_linker_0, # of connection points: 2
#     Edge 23, Type (0, 1), BuildingBlock: UVAHIK_clean_linker_0, # of connection points: 2
#     Edge 24, Type (0, 1), BuildingBlock: UVAHIK_clean_linker_0, # of connection points: 2
#     Edge 25, Type (0, 1), BuildingBlock: UVAHIK_clean_linker_0, # of connection points: 2
#     Edge 26, Type (0, 1), BuildingBlock: UVAHIK_clean_linker_0, # of connection points: 2
#     Edge 27, Type (0, 1), BuildingBlock: UVAHIK_clean_linker_0, # of connection points: 2
#     Edge 28, Type (0, 1), BuildingBlock: UVAHIK_clean_linker_0, # of connection points: 2
#     Edge 29, Type (0, 1), BuildingBlock: UVAHIK_clean_linker_0, # of connection points: 2
#     Edge 30, Type (0, 1), BuildingBlock: UVAHIK_clean_linker_0, # of connection points: 2
#     Edge 31, Type (0, 1), BuildingBlock: UVAHIK_clean_linker_0, # of connection points: 2
#     Edge 32, Type (0, 1), BuildingBlock: UVAHIK_clean_linker_0, # of connection points: 2
#     Edge 33, Type (0, 1), BuildingBlock: UVAHIK_clean_linker_0, # of connection points: 2
#     Edge 34, Type (0, 1), BuildingBlock: UVAHIK_clean_linker_0, # of connection points: 2
#     Edge 35, Type (0, 1), BuildingBlock: UVAHIK_clean_linker_0, # of connection points: 2
#     Edge 36, Type (0, 1), BuildingBlock: UVAHIK_clean_linker_0, # of connection points: 2
#     Edge 37, Type (0, 1), BuildingBlock: UVAHIK_clean_linker_0, # of connection points: 2
# Relax obj value: 0.016
# Max RMSD: 0.163
# Mean RMSD: 0.075
data_MOF--net-pto--node1-OLANEW_clean_sbu_2--node2-GIZVER_clean_linker_0--edge1-UVAHIK_clean_linker_0
_symmetry_space_group_name_H-M    P1
_symmetry_Int_Tables_number       1
_symmetry_cell_setting            triclinic
loop_
_symmetry_equiv_pos_as_xyz
'x, y, z'
_cell_length_a     67.746152
_cell_length_b     57.166081
_cell_length_c     41.326802
_cell_angle_alpha  93.753683
_cell_angle_beta   90.195043
_cell_angle_gamma 99.822649
loop_
_atom_site_label
_atom_site_type_symbol
_atom_site_fract_x
_atom_site_fract_y
_atom_site_fract_z
_atom_type_partial_charge
O0 O 0.31064 0.38713 0.21116 0.0
Cd1 Cd 0.27509 0.37131 0.21674 0.0
O2 O 0.30721 0.42467 0.21855 0.0
Cd3 Cd 0.27454 0.41708 0.22174 0.0
O4 O 0.243 0.42076 0.21799 0.0
C5 C 0.23954 0.43862 0.20352 0.0
O6 O 0.25475 0.453 0.19204 0.0
C7 C 0.31837 0.40906 0.21366 0.0
C8 C 0.27135 0.33017 0.2504 0.0
O9 O 0.27217 0.32909 0.21937 0.0
O10 O 0.27187 0.35063 0.26535 0.0
O11 O 0.30219 0.87276 0.85817 0.0
Cd12 Cd 0.27943 0.90142 0.86675 0.0
O13 O 0.27625 0.84432 0.85278 0.0
Cd14 Cd 0.25672 0.80946 0.84868 0.0
O15 O 0.23147 0.77993 0.8439 0.0
C16 C 0.2138 0.78455 0.84618 0.0
O17 O 0.2114 0.8068 0.85148 0.0
C18 C 0.29522 0.85069 0.85367 0.0
C19 C 0.28054 0.9318 0.81658 0.0
O20 O 0.29273 0.93682 0.8408 0.0
O21 O 0.26784 0.91239 0.81611 0.0
O22 O 0.78885 0.76598 0.21324 0.0
Cd23 Cd 0.78196 0.72572 0.18728 0.0
O24 O 0.75819 0.76375 0.23177 0.0
Cd25 Cd 0.74463 0.72936 0.20848 0.0
O26 O 0.71517 0.7118 0.19004 0.0
C27 C 0.7007 0.71989 0.2037 0.0
O28 O 0.70477 0.73631 0.22769 0.0
C29 C 0.77589 0.77522 0.22948 0.0
C30 C 0.81537 0.70318 0.19017 0.0
O31 O 0.81248 0.71527 0.16607 0.0
O32 O 0.80245 0.70173 0.21285 0.0
O33 O 0.79168 0.33695 0.77422 0.0
Cd34 Cd 0.75827 0.3135 0.76388 0.0
O35 O 0.78094 0.36049 0.81198 0.0
Cd36 Cd 0.74899 0.34657 0.8048 0.0
O37 O 0.71725 0.34973 0.80566 0.0
C38 C 0.71236 0.3678 0.79342 0.0
O39 O 0.72626 0.38259 0.77949 0.0
C40 C 0.79527 0.3541 0.79577 0.0
C41 C 0.7602 0.27055 0.7288 0.0
O42 O 0.75893 0.28945 0.71442 0.0
O43 O 0.76048 0.27191 0.75988 0.0
O44 O 0.78772 0.76981 0.71163 0.0
Cd45 Cd 0.78001 0.73092 0.73442 0.0
O46 O 0.76198 0.78399 0.73276 0.0
Cd47 Cd 0.74726 0.75177 0.75428 0.0
O48 O 0.71982 0.73184 0.77346 0.0
C49 C 0.7044 0.72692 0.75501 0.0
O50 O 0.70595 0.73255 0.72469 0.0
C51 C 0.77783 0.78675 0.71605 0.0
C52 C 0.81437 0.7102 0.73973 0.0
O53 O 0.80422 0.70802 0.71315 0.0
O54 O 0.80828 0.72214 0.7639 0.0
O55 O 0.79925 0.31744 0.1998 0.0
Cd56 Cd 0.76592 0.29377 0.20523 0.0
O57 O 0.78699 0.34874 0.18609 0.0
Cd58 Cd 0.75514 0.33422 0.18983 0.0
O59 O 0.72345 0.33651 0.1839 0.0
C60 C 0.71716 0.33722 0.15504 0.0
O61 O 0.72955 0.33511 0.13105 0.0
C62 C 0.80197 0.33875 0.19143 0.0
C63 C 0.76756 0.25338 0.23891 0.0
O64 O 0.7688 0.25264 0.20793 0.0
O65 O 0.76546 0.27316 0.25383 0.0
O66 O 0.29726 0.43107 0.82271 0.0
Cd67 Cd 0.2682 0.40604 0.79513 0.0
O68 O 0.31214 0.44009 0.77683 0.0
Cd69 Cd 0.29024 0.41487 0.74784 0.0
O70 O 0.28048 0.38038 0.72181 0.0
C71 C 0.2803 0.36175 0.73709 0.0
O72 O 0.2848 0.36405 0.76822 0.0
C73 C 0.31191 0.44227 0.80763 0.0
C74 C 0.23278 0.42498 0.79722 0.0
O75 O 0.23646 0.41068 0.81821 0.0
O76 O 0.24599 0.43063 0.77566 0.0
O77 O 0.30839 0.76173 0.27788 0.0
Cd78 Cd 0.28347 0.77513 0.31393 0.0
O79 O 0.29297 0.76772 0.23303 0.0
Cd80 Cd 0.26559 0.77395 0.25741 0.0
O81 O 0.23366 0.76353 0.26665 0.0
C82 C 0.22131 0.76405 0.24358 0.0
O83 O 0.22814 0.77247 0.21618 0.0
C84 C 0.30792 0.76183 0.24715 0.0
C85 C 0.29157 0.82436 0.32708 0.0
O86 O 0.30093 0.81056 0.34208 0.0
O87 O 0.27827 0.81495 0.3058 0.0
H88 H -0.00293 0.50674 0.15355 0.0
H89 H -0.00523 0.58162 0.15687 0.0
H90 H 0.94598 0.53293 0.19389 0.0
H91 H 0.01845 0.53361 0.11812 0.0
H92 H 0.01829 0.56488 0.12127 0.0
H93 H 0.03971 0.51618 0.15341 0.0
H94 H 0.0835 0.56367 0.2127 0.0
H95 H 0.03521 0.59031 0.16825 0.0
C96 C 0.98945 0.52145 0.16056 0.0
C97 C 0.97068 0.51709 0.17541 0.0
C98 C -0.00177 0.54471 0.15392 0.0
C99 C 0.98814 0.56373 0.16241 0.0
C100 C 0.96936 0.55965 0.17727 0.0
C101 C 0.96089 0.53632 0.18391 0.0
C102 C 0.01761 0.549 0.1357 0.0
C103 C 0.03537 0.55275 0.15869 0.0
C104 C 0.04526 0.53371 0.16474 0.0
C105 C 0.06265 0.53742 0.18438 0.0
C106 C 0.0696 0.56031 0.19878 0.0
C107 C 0.05982 0.57945 0.1932 0.0
C108 C 0.04265 0.57554 0.17317 0.0
H109 H 0.03465 0.59256 0.76609 0.0
H110 H 0.03814 0.5179 0.75766 0.0
H111 H 0.08343 0.56742 0.81128 0.0
H112 H 0.01831 0.56407 0.71919 0.0
H113 H 0.01544 0.53279 0.72303 0.0
H114 H -0.00456 0.58706 0.74517 0.0
H115 H 0.9446 0.55002 0.79347 0.0
H116 H 0.99343 0.51395 0.76647 0.0
C117 C 0.04193 0.57794 0.77227 0.0
C118 C 0.05951 0.5825 0.79136 0.0
C119 C 0.03405 0.55461 0.76027 0.0
C120 C 0.04399 0.53581 0.76743 0.0
C121 C 0.06182 0.54019 0.78608 0.0
C122 C 0.06921 0.56357 0.79824 0.0
C123 C 0.01631 0.5502 0.73715 0.0
C124 C -0.00313 0.55066 0.75474 0.0
C125 C 0.98799 0.57124 0.75607 0.0
C126 C 0.96921 0.57118 0.77037 0.0
C127 C 0.95953 0.55047 0.78387 0.0
C128 C 0.96802 0.52968 0.7824 0.0
C129 C 0.98684 0.52998 0.76811 0.0
H130 H 0.31923 0.13523 0.44582 0.0
H131 H 0.32116 0.14451 0.55014 0.0
H132 H 0.28342 0.18113 0.49541 0.0
H133 H 0.34593 0.12227 0.47706 0.0
H134 H 0.34693 0.12639 0.5204 0.0
H135 H 0.32976 0.08486 0.45154 0.0
H136 H 0.29945 0.03066 0.50967 0.0
H137 H 0.32069 0.10091 0.55317 0.0
C138 C 0.31399 0.14287 0.46821 0.0
C139 C 0.30011 0.15845 0.46713 0.0
C140 C 0.32143 0.13749 0.49814 0.0
C141 C 0.31507 0.14809 0.52705 0.0
C142 C 0.30108 0.16355 0.52624 0.0
C143 C 0.2935 0.16833 0.49623 0.0
C144 C 0.3366 0.12107 0.4992 0.0
C145 C 0.32614 0.09581 0.50198 0.0
C146 C 0.32378 0.07946 0.47471 0.0
C147 C 0.31393 0.05604 0.47744 0.0
C148 C 0.30634 0.04905 0.50746 0.0
C149 C 0.30883 0.065 0.53503 0.0
C150 C 0.31868 0.08843 0.53205 0.0
H151 H 0.4615 0.73956 0.93173 0.0
H152 H 0.4762 0.72282 0.02775 0.0
H153 H 0.41557 0.70538 -0.00714 0.0
H154 H 0.49424 0.75297 0.9518 0.0
H155 H 0.49705 0.7558 -0.00528 0.0
H156 H 0.50968 0.72416 0.92001 0.0
H157 H 0.55195 0.69023 0.96871 0.0
H158 H 0.51046 0.72503 0.02416 0.0
C159 C 0.45704 0.73086 0.95371 0.0
C160 C 0.43661 0.72259 0.9592 0.0
C161 C 0.47162 0.73015 0.97788 0.0
C162 C 0.46549 0.72144 0.00795 0.0
C163 C 0.44528 0.71255 0.01343 0.0
C164 C 0.43121 0.71197 -0.01167 0.0
C165 C 0.49293 0.74259 0.97378 0.0
C166 C 0.50782 0.72563 0.97227 0.0
C167 C 0.51538 0.71852 0.94223 0.0
C168 C 0.53112 0.70537 0.9409 0.0
C169 C 0.53894 0.69895 0.96985 0.0
C170 C 0.5317 0.70589 0.00016 0.0
C171 C 0.51589 0.719 0.00104 0.0
H172 H 0.81616 0.05578 0.43145 0.0
H173 H 0.81384 0.05893 0.53577 0.0
H174 H 0.7781 0.09853 0.48172 0.0
H175 H 0.84268 0.04302 0.46449 0.0
H176 H 0.84065 0.04268 0.50759 0.0
H177 H 0.82301 0.0112 0.42843 0.0
H178 H 0.79788 0.94658 0.47125 0.0
H179 H 0.8192 0.00975 0.5324 0.0
C180 C 0.80992 0.062 0.45387 0.0
C181 C 0.79592 0.07746 0.45301 0.0
C182 C 0.81623 0.05497 0.48364 0.0
C183 C 0.80861 0.06379 0.51272 0.0
C184 C 0.79467 0.07934 0.51215 0.0
C185 C 0.78817 0.0857 0.4822 0.0
C186 C 0.83187 0.03915 0.48445 0.0
C187 C 0.82216 0.01333 0.48084 0.0
C188 C 0.81863 0.00166 0.4498 0.0
C189 C 0.80954 0.97768 0.44633 0.0
C190 C 0.80406 0.9654 0.47406 0.0
C191 C 0.80758 0.97666 0.50525 0.0
C192 C 0.81649 0.00078 0.50847 0.0
H193 H 0.51498 0.49859 0.96976 0.0
H194 H 0.52195 0.48381 0.06988 0.0
H195 H 0.46406 0.49017 0.0322 0.0
H196 H 0.54825 0.50579 -0.00499 0.0
H197 H 0.55113 0.50354 0.03757 0.0
H198 H 0.549 0.47154 0.95697 0.0
H199 H 0.57205 0.41256 -0.00655 0.0
H200 H 0.55351 0.46504 0.05988 0.0
C201 C 0.50863 0.49521 -0.00661 0.0
C202 C 0.48811 0.49504 -0.00186 0.0
C203 C 0.52104 0.49163 0.0194 0.0
C204 C 0.51255 0.48684 0.04983 0.0
C205 C 0.49203 0.48652 0.05459 0.0
C206 C 0.48002 0.4909 0.02877 0.0
C207 C 0.54339 0.49434 0.01529 0.0
C208 C 0.54991 0.47052 0.00905 0.0
C209 C 0.55245 0.46158 0.97706 0.0
C210 C 0.56046 0.44059 0.97103 0.0
C211 C 0.56491 0.42807 -0.0025 0.0
C212 C 0.56237 0.43665 0.02948 0.0
C213 C 0.55486 0.45791 0.03518 0.0
C214 C 0.21563 0.46392 0.1849 0.0
C215 C 0.2189 0.44358 0.20002 0.0
C216 C 0.19634 0.4691 0.18194 0.0
C217 C 0.14612 0.45767 0.21757 0.0
H218 H 0.13184 0.48725 0.14107 0.0
C219 C 0.07877 0.50416 0.15965 0.0
C220 C 0.07501 0.51845 0.18717 0.0
C221 C 0.09331 0.48954 0.16076 0.0
C222 C 0.13532 0.4786 0.1624 0.0
H223 H 0.20437 0.41256 0.22365 0.0
H224 H 0.17052 0.42154 0.21819 0.0
H225 H 0.16316 0.47211 0.14269 0.0
H226 H 0.08232 0.52692 0.23818 0.0
H227 H 0.10807 0.50214 0.23988 0.0
H228 H 0.11819 0.46417 0.23724 0.0
C229 C 0.18298 0.4336 0.20893 0.0
C230 C 0.15349 0.47024 0.16351 0.0
C231 C 0.20236 0.42841 0.21193 0.0
C232 C 0.0851 0.51646 0.21639 0.0
C233 C 0.09973 0.50199 0.21744 0.0
C234 C 0.12786 0.46596 0.21641 0.0
C235 C 0.17976 0.45405 0.19391 0.0
C236 C 0.15937 0.46026 0.19142 0.0
C237 C 0.10452 0.48898 0.18934 0.0
C238 C 0.12245 0.47706 0.18909 0.0
H239 H 0.22802 0.47606 0.17556 0.0
H240 H 0.1945 0.48525 0.17082 0.0
H241 H 0.15019 0.45014 0.2395 0.0
H242 H 0.07134 0.50527 0.13669 0.0
H243 H 0.09629 0.47937 0.13883 0.0
C244 C 0.19862 0.74146 0.83645 0.0
C245 C 0.19616 0.76524 0.84277 0.0
C246 C 0.18196 0.72328 0.83315 0.0
C247 C 0.12753 0.71186 0.8153 0.0
H248 H 0.13026 0.65161 0.8515 0.0
C249 C 0.07709 0.61268 0.833 0.0
C250 C 0.06939 0.60711 0.80132 0.0
C251 C 0.08998 0.63411 0.84081 0.0
C252 C 0.12906 0.66841 0.84164 0.0
H253 H 0.17421 0.78853 0.85062 0.0
H254 H 0.14517 0.75674 0.84518 0.0
H255 H 0.15812 0.68439 0.85996 0.0
H256 H 0.06816 0.62013 0.75344 0.0
H257 H 0.09085 0.65752 0.76688 0.0
H258 H 0.09835 0.6958 0.79712 0.0
C259 C 0.15998 0.7522 0.8424 0.0
C260 C 0.14521 0.68712 0.84608 0.0
C261 C 0.17665 0.77041 0.8457 0.0
C262 C 0.07374 0.62408 0.77813 0.0
C263 C 0.08677 0.64549 0.78587 0.0
C264 C 0.11133 0.6931 0.81085 0.0
C265 C 0.16243 0.72842 0.83614 0.0
C266 C 0.14477 0.70897 0.83264 0.0
C267 C 0.0956 0.65037 0.817 0.0
C268 C 0.11198 0.67107 0.82372 0.0
H269 H 0.21342 0.73686 0.83391 0.0
H270 H 0.18439 0.70519 0.82782 0.0
H271 H 0.12675 0.72842 0.80445 0.0
H272 H 0.07379 0.59996 0.8514 0.0
H273 H 0.09612 0.63755 0.86522 0.0
C274 C 0.83621 0.67827 0.2185 0.0
C275 C 0.83298 0.69104 0.19161 0.0
C276 C 0.85255 0.66633 0.21953 0.0
C277 C 0.90184 0.66263 0.18239 0.0
H278 H 0.89237 0.59908 0.21307 0.0
C279 C 0.95558 0.59479 0.1591 0.0
C280 C 0.95753 0.57909 0.18325 0.0
C281 C 0.94211 0.61077 0.16275 0.0
C282 C 0.8954 0.61695 0.20493 0.0
H283 H 0.84455 0.70153 0.14487 0.0
H284 H 0.87288 0.68042 0.14647 0.0
H285 H 0.86539 0.62221 0.21417 0.0
H286 H 0.94794 0.56897 0.2311 0.0
H287 H 0.92457 0.59699 0.23762 0.0
H288 H 0.93182 0.6571 0.17265 0.0
C289 C 0.86294 0.6799 0.16698 0.0
C290 C 0.87989 0.63023 0.20554 0.0
C291 C 0.84661 0.69187 0.16596 0.0
C292 C 0.94653 0.5806 0.21185 0.0
C293 C 0.9331 0.59658 0.21553 0.0
C294 C 0.91737 0.64931 0.18176 0.0
C295 C 0.86603 0.66683 0.19368 0.0
C296 C 0.88286 0.65317 0.1941 0.0
C297 C 0.93033 0.61141 0.19066 0.0
C298 C 0.9143 0.62626 0.19287 0.0
H299 H 0.82607 0.67739 0.23875 0.0
H300 H 0.85464 0.65673 0.24067 0.0
H301 H 0.90471 0.68037 0.17382 0.0
H302 H 0.96368 0.59388 0.13662 0.0
H303 H 0.94024 0.62179 0.143 0.0
C304 C 0.831 0.36502 0.77847 0.0
C305 C 0.81586 0.36763 0.80092 0.0
C306 C 0.84978 0.3797 0.78165 0.0
C307 C 0.87256 0.43881 0.8178 0.0
H308 H 0.92259 0.41924 0.79206 0.0
C309 C 0.94475 0.50707 0.8209 0.0
C310 C 0.95585 0.50722 0.79223 0.0
C311 C 0.93015 0.48753 0.82694 0.0
C312 C 0.90872 0.42496 0.7993 0.0
H313 H 0.809 0.38668 0.84547 0.0
H314 H 0.84177 0.41183 0.85139 0.0
H315 H 0.89204 0.38949 0.79327 0.0
H316 H 0.96123 0.4864 0.74843 0.0
H317 H 0.93566 0.4523 0.75886 0.0
H318 H 0.88895 0.47423 0.82312 0.0
C319 C 0.83901 0.39892 0.8308 0.0
C320 C 0.89122 0.40794 0.79993 0.0
C321 C 0.82023 0.38441 0.82748 0.0
C322 C 0.95304 0.48672 0.77087 0.0
C323 C 0.93835 0.46718 0.77686 0.0
C324 C 0.88999 0.45574 0.81725 0.0
C325 C 0.85386 0.3972 0.80748 0.0
C326 C 0.87287 0.41472 0.80888 0.0
C327 C 0.92623 0.46774 0.80437 0.0
C328 C 0.90826 0.4491 0.80769 0.0
H329 H 0.82813 0.35226 0.75772 0.0
H330 H 0.86079 0.37799 0.76309 0.0
H331 H 0.85866 0.44482 0.82412 0.0
H332 H 0.94679 0.52252 0.83799 0.0
H333 H 0.92138 0.4883 0.84873 0.0
C334 C 0.27052 0.28621 0.25218 0.0
C335 C 0.27058 0.30857 0.26856 0.0
C336 C 0.27091 0.26608 0.26953 0.0
C337 C 0.26227 0.24347 0.35133 0.0
H338 H 0.29884 0.20096 0.32393 0.0
C339 C 0.27393 0.16837 0.43004 0.0
C340 C 0.29407 0.16688 0.43607 0.0
C341 C 0.26871 0.18097 0.40441 0.0
C342 C 0.28853 0.21264 0.33188 0.0
H343 H 0.27082 0.32726 0.31601 0.0
H344 H 0.27175 0.29236 0.34617 0.0
H345 H 0.2941 0.23317 0.29034 0.0
H346 H 0.3244 0.17608 0.41896 0.0
H347 H 0.31542 0.19843 0.37456 0.0
H348 H 0.2575 0.22392 0.39367 0.0
C349 C 0.27109 0.29022 0.31993 0.0
C350 C 0.28566 0.23096 0.31246 0.0
C351 C 0.27068 0.3103 0.30262 0.0
C352 C 0.30873 0.17677 0.41465 0.0
C353 C 0.30355 0.18958 0.38918 0.0
C354 C 0.26519 0.22525 0.37076 0.0
C355 C 0.27135 0.26789 0.30363 0.0
C356 C 0.27282 0.2469 0.32234 0.0
C357 C 0.28356 0.19259 0.38451 0.0
C358 C 0.27865 0.20988 0.36162 0.0
H359 H 0.2704 0.28428 0.22592 0.0
H360 H 0.27088 0.2491 0.25625 0.0
H361 H 0.25203 0.25519 0.35941 0.0
H362 H 0.26232 0.16068 0.44607 0.0
H363 H 0.25312 0.18243 0.40103 0.0
C364 C 0.32944 0.841 0.86133 0.0
C365 C 0.30928 0.83334 0.85184 0.0
C366 C 0.34273 0.82489 0.86205 0.0
C367 C 0.37034 0.78873 0.85135 0.0
H368 H 0.35069 0.73379 0.8996 0.0
C369 C 0.42306 0.72977 0.90395 0.0
C370 C 0.42068 0.72866 0.93771 0.0
C371 C 0.40868 0.73782 0.88495 0.0
C372 C 0.35634 0.74884 0.88562 0.0
H373 H 0.28795 0.80281 0.83284 0.0
H374 H 0.31099 0.77448 0.83521 0.0
H375 H 0.32721 0.75798 0.88057 0.0
H376 H 0.40115 0.73577 0.97762 0.0
H377 H 0.37614 0.74851 0.94466 0.0
H378 H 0.39967 0.78034 0.85827 0.0
C379 C 0.31634 0.79303 0.84255 0.0
C380 C 0.34287 0.76262 0.87455 0.0
C381 C 0.30303 0.80925 0.84158 0.0
C382 C 0.40334 0.73532 0.95168 0.0
C383 C 0.38892 0.74285 0.93274 0.0
C384 C 0.38381 0.77484 0.86228 0.0
C385 C 0.33626 0.80063 0.8533 0.0
C386 C 0.34984 0.78331 0.85852 0.0
C387 C 0.3915 0.74451 0.89929 0.0
C388 C 0.37702 0.75538 0.88076 0.0
H389 H 0.33489 0.85942 0.86923 0.0
H390 H 0.35788 0.83133 0.87089 0.0
H391 H 0.37611 0.80438 0.83863 0.0
H392 H 0.43614 0.72474 0.89227 0.0
H393 H 0.41105 0.73904 0.85917 0.0
C394 C 0.80045 0.81282 0.24379 0.0
C395 C 0.78103 0.79953 0.24539 0.0
C396 C 0.805 0.83579 0.25891 0.0
C397 C 0.78101 0.88552 0.29341 0.0
H398 H 0.82892 0.90131 0.34744 0.0
C399 C 0.78804 0.95052 0.40576 0.0
C400 C 0.80667 0.96451 0.41417 0.0
C401 C 0.78605 0.93457 0.37845 0.0
C402 C 0.8157 0.89744 0.33191 0.0
H403 H 0.75117 0.80006 0.26404 0.0
H404 H 0.75914 0.8397 0.29055 0.0
H405 H 0.82356 0.86467 0.3125 0.0
H406 H 0.83758 0.97382 0.39989 0.0
H407 H 0.83415 0.94574 0.35189 0.0
H408 H 0.77275 0.9178 0.3139 0.0
C409 C 0.7708 0.83264 0.27722 0.0
C410 C 0.81261 0.87641 0.31191 0.0
C411 C 0.76628 0.80976 0.26223 0.0
C412 C 0.82304 0.9633 0.39375 0.0
C413 C 0.8211 0.94712 0.36652 0.0
C414 C 0.78407 0.90649 0.31345 0.0
C415 C 0.79019 0.84595 0.27578 0.0
C416 C 0.79493 0.86985 0.2932 0.0
C417 C 0.80271 0.93214 0.35911 0.0
C418 C 0.80116 0.91232 0.33364 0.0
H419 H 0.81215 0.8055 0.23092 0.0
H420 H 0.82006 0.84565 0.25726 0.0
H421 H 0.76744 0.88123 0.27872 0.0
H422 H 0.77521 0.95118 0.42116 0.0
H423 H 0.77173 0.92315 0.37362 0.0
C424 C 0.68791 0.39579 0.78943 0.0
C425 C 0.6921 0.37381 0.79834 0.0
C426 C 0.66981 0.40299 0.7979 0.0
C427 C 0.61869 0.38313 0.82812 0.0
H428 H 0.62752 0.44472 0.87588 0.0
C429 C 0.56675 0.40928 0.92858 0.0
C430 C 0.56728 0.43345 0.93816 0.0
C431 C 0.57807 0.40257 0.90246 0.0
C432 C 0.62448 0.42778 0.86189 0.0
H433 H 0.67998 0.34145 0.82122 0.0
H434 H 0.64834 0.35405 0.83599 0.0
H435 H 0.65488 0.43143 0.84656 0.0
H436 H 0.57815 0.46948 0.92502 0.0
H437 H 0.59683 0.45779 0.87838 0.0
H438 H 0.58831 0.37932 0.84392 0.0
C439 C 0.65908 0.3657 0.82243 0.0
C440 C 0.6403 0.4201 0.84516 0.0
C441 C 0.67727 0.35856 0.81416 0.0
C442 C 0.57742 0.45069 0.91855 0.0
C443 C 0.58847 0.44396 0.89205 0.0
C444 C 0.60272 0.39095 0.84456 0.0
C445 C 0.65542 0.38829 0.81523 0.0
C446 C 0.63774 0.39745 0.82883 0.0
C447 C 0.58989 0.41989 0.88484 0.0
C448 C 0.60556 0.41312 0.86249 0.0
H449 H 0.69893 0.40791 0.77701 0.0
H450 H 0.6673 0.42039 0.79172 0.0
H451 H 0.61624 0.36567 0.81539 0.0
H452 H 0.55867 0.3955 0.94266 0.0
H453 H 0.57865 0.38385 0.89779 0.0
C454 C 0.26663 0.9433 0.76486 0.0
C455 C 0.28121 0.94784 0.78977 0.0
C456 C 0.26755 0.95807 0.7391 0.0
C457 C 0.29107 0.0173 0.71297 0.0
H458 H 0.28006 0.98654 0.62684 0.0
C459 C 0.31542 0.06189 0.59425 0.0
C460 C 0.3025 0.05636 0.56712 0.0
C461 C 0.31076 0.05094 0.62319 0.0
C462 C 0.28287 -0.00453 0.65076 0.0
H463 H 0.30807 0.97162 0.80739 0.0
H464 H 0.30992 -0.00292 0.76208 0.0
H465 H 0.27609 0.96272 0.67372 0.0
H466 H 0.27389 0.0364 0.54979 0.0
H467 H 0.26577 0.01728 0.60029 0.0
H468 H 0.29839 0.05002 0.68963 0.0
C469 C 0.29756 0.98237 0.76272 0.0
C470 C 0.28059 0.9818 0.67768 0.0
C471 C 0.29658 0.96766 0.78859 0.0
C472 C 0.28431 0.04068 0.57011 0.0
C473 C 0.27967 0.02972 0.59899 0.0
C474 C 0.29345 0.03099 0.68595 0.0
C475 C 0.28314 0.97764 0.73752 0.0
C476 C 0.28477 -0.0075 0.70911 0.0
C477 C 0.2931 0.03423 0.62554 0.0
C478 C 0.28947 0.02018 0.65455 0.0
H479 H 0.2545 0.92828 0.76519 0.0
H480 H 0.256 0.95413 0.72039 0.0
H481 H 0.29415 0.02615 0.73687 0.0
H482 H 0.32964 0.07371 0.59262 0.0
H483 H 0.32149 0.05465 0.64314 0.0
C484 C 0.67516 0.69572 0.16507 0.0
C485 C 0.67997 0.71329 0.19063 0.0
C486 C 0.65606 0.69157 0.15057 0.0
C487 C 0.61673 0.72428 0.13261 0.0
H488 H 0.584 0.66297 0.10927 0.0
C489 C 0.54603 0.72018 0.05568 0.0
C490 C 0.54268 0.70225 0.03032 0.0
C491 C 0.55946 0.7189 0.08096 0.0
C492 C 0.59302 0.68024 0.11534 0.0
H493 H 0.66817 0.73939 0.22208 0.0
H494 H 0.63509 0.7324 0.1964 0.0
H495 H 0.61451 0.66514 0.14198 0.0
H496 H 0.5494 0.66768 0.01374 0.0
H497 H 0.57375 0.66625 0.05636 0.0
H498 H 0.59635 0.7395 0.10469 0.0
C499 C 0.64608 0.72188 0.18761 0.0
C500 C 0.61043 0.68143 0.13419 0.0
C501 C 0.66503 0.72583 0.20231 0.0
C502 C 0.55201 0.68218 0.03231 0.0
C503 C 0.56582 0.68118 0.05717 0.0
C504 C 0.5996 0.72309 0.11337 0.0
C505 C 0.64155 0.70511 0.16116 0.0
C506 C 0.62248 0.70348 0.14283 0.0
C507 C 0.57031 0.69998 0.08119 0.0
C508 C 0.58753 0.70106 0.10422 0.0
H509 H 0.68631 0.68568 0.15562 0.0
H510 H 0.65295 0.67861 0.13008 0.0
H511 H 0.62593 0.74149 0.13849 0.0
H512 H 0.53924 0.73597 0.0552 0.0
H513 H 0.56196 0.73335 0.0996 0.0
C514 C 0.76232 0.24711 0.67599 0.0
C515 C 0.76151 0.24792 0.70999 0.0
C516 C 0.76389 0.22593 0.65813 0.0
C517 C 0.77956 0.16765 0.66506 0.0
H518 H 0.75215 0.15337 0.58181 0.0
C519 C 0.76843 0.09386 0.54686 0.0
C520 C 0.78854 0.09143 0.54237 0.0
C521 C 0.76319 0.10924 0.5718 0.0
C522 C 0.75966 0.15677 0.60524 0.0
H523 H 0.76155 0.227 0.75194 0.0
H524 H 0.76405 0.18988 0.72067 0.0
H525 H 0.74622 0.18752 0.61612 0.0
H526 H 0.81877 0.10211 0.56147 0.0
H527 H 0.80975 0.12922 0.60469 0.0
H528 H 0.79292 0.13674 0.65415 0.0
C529 C 0.76372 0.20574 0.70785 0.0
C530 C 0.75649 0.17663 0.62472 0.0
C531 C 0.76219 0.22699 0.72575 0.0
C532 C 0.80312 0.10346 0.56458 0.0
C533 C 0.79792 0.11902 0.58937 0.0
C534 C 0.78269 0.14768 0.64559 0.0
C535 C 0.76462 0.20497 0.67381 0.0
C536 C 0.7667 0.18262 0.65456 0.0
C537 C 0.77798 0.12272 0.59258 0.0
C538 C 0.77304 0.14223 0.61516 0.0
H539 H 0.76192 0.26292 0.66308 0.0
H540 H 0.76491 0.22611 0.632 0.0
H541 H 0.78775 0.17179 0.68784 0.0
H542 H 0.75687 0.08458 0.53023 0.0
H543 H 0.74762 0.1112 0.57406 0.0
C544 C 0.35294 0.39944 0.20641 0.0
C545 C 0.34022 0.41646 0.20945 0.0
C546 C 0.37327 0.40627 0.19984 0.0
C547 C 0.41383 0.45921 0.19545 0.0
H548 H 0.4331 0.42029 0.1262 0.0
C549 C 0.46973 0.4952 0.09999 0.0
C550 C 0.4824 0.48056 0.08572 0.0
C551 C 0.45679 0.48714 0.12461 0.0
C552 C 0.42824 0.43111 0.14611 0.0
H553 H 0.33907 0.45414 0.20924 0.0
H554 H 0.37427 0.46596 0.19697 0.0
H555 H 0.40134 0.40615 0.15125 0.0
H556 H 0.49272 0.44685 0.08748 0.0
H557 H 0.46997 0.4326 0.13073 0.0
H558 H 0.44033 0.48478 0.18879 0.0
C559 C 0.36871 0.44737 0.20024 0.0
C560 C 0.40995 0.423 0.16051 0.0
C561 C 0.34843 0.44056 0.20701 0.0
C562 C 0.48311 0.45848 0.09825 0.0
C563 C 0.47 0.45028 0.12275 0.0
C564 C 0.4321 0.46738 0.18089 0.0
C565 C 0.38132 0.43027 0.19596 0.0
C566 C 0.4022 0.43727 0.18464 0.0
C567 C 0.45615 0.46417 0.13525 0.0
C568 C 0.43918 0.45373 0.15536 0.0
H569 H 0.34715 0.38074 0.20851 0.0
H570 H 0.3826 0.39268 0.19722 0.0
H571 H 0.40852 0.47043 0.21445 0.0
H572 H 0.46897 0.51233 0.09071 0.0
H573 H 0.44623 0.49822 0.1335 0.0
C574 C 0.84082 0.69662 0.77293 0.0
C575 C 0.83248 0.6991 0.74243 0.0
C576 C 0.85756 0.68547 0.77547 0.0
C577 C 0.88588 0.64468 0.72839 0.0
H578 H 0.92516 0.66358 0.79781 0.0
C579 C 0.95581 0.60062 0.73784 0.0
C580 C 0.95833 0.59148 0.76804 0.0
C581 C 0.94263 0.61667 0.73434 0.0
C582 C 0.91429 0.65814 0.77831 0.0
H583 H 0.83555 0.69249 0.6906 0.0
H584 H 0.86509 0.67383 0.69487 0.0
H585 H 0.89782 0.68592 0.79195 0.0
H586 H 0.95003 0.59301 0.8186 0.0
H587 H 0.92722 0.62139 0.81261 0.0
H588 H 0.90249 0.61703 0.71467 0.0
C589 C 0.8584 0.67979 0.71698 0.0
C590 C 0.89853 0.67082 0.77502 0.0
C591 C 0.8415 0.69064 0.71449 0.0
C592 C 0.94833 0.59977 0.79505 0.0
C593 C 0.93534 0.61606 0.79163 0.0
C594 C 0.90176 0.63223 0.73143 0.0
C595 C 0.86655 0.6768 0.74752 0.0
C596 C 0.88396 0.66411 0.75022 0.0
C597 C 0.93191 0.62413 0.76105 0.0
C598 C 0.91602 0.63866 0.7566 0.0
H599 H 0.83416 0.70287 0.79494 0.0
H600 H 0.86314 0.68319 0.79943 0.0
H601 H 0.8748 0.63859 0.70939 0.0
H602 H 0.96318 0.59436 0.71656 0.0
H603 H 0.94039 0.62277 0.71054 0.0
C604 C 0.82528 0.37407 0.17342 0.0
C605 C 0.82249 0.35222 0.18794 0.0
C606 C 0.84442 0.38729 0.17065 0.0
C607 C 0.8942 0.39847 0.20817 0.0
H608 H 0.90812 0.43208 0.1307 0.0
C609 C 0.94906 0.48695 0.20719 0.0
C610 C 0.96008 0.49245 0.17913 0.0
C611 C 0.93599 0.46531 0.20833 0.0
C612 C 0.90473 0.42252 0.15233 0.0
H613 H 0.83772 0.32701 0.21075 0.0
H614 H 0.87133 0.35041 0.20617 0.0
H615 H 0.8777 0.40252 0.13103 0.0
H616 H 0.96711 0.47886 0.1311 0.0
H617 H 0.94452 0.44087 0.13327 0.0
H618 H 0.92101 0.41899 0.22974 0.0
C619 C 0.85859 0.35719 0.19692 0.0
C620 C 0.88715 0.40577 0.15262 0.0
C621 C 0.83937 0.34378 0.19941 0.0
C622 C 0.95887 0.47513 0.15312 0.0
C623 C 0.94577 0.45347 0.15423 0.0
C624 C 0.91179 0.41534 0.20793 0.0
C625 C 0.86129 0.37909 0.1825 0.0
C626 C 0.88139 0.39407 0.18082 0.0
C627 C 0.93365 0.44868 0.18139 0.0
C628 C 0.91697 0.42802 0.18027 0.0
H629 H 0.81264 0.38111 0.16427 0.0
H630 H 0.84596 0.40427 0.15989 0.0
H631 H 0.89012 0.38977 0.23029 0.0
H632 H 0.94987 0.49986 0.22776 0.0
H633 H 0.92682 0.4623 0.22956 0.0
C634 C 0.21129 0.45313 0.77836 0.0
C635 C 0.21366 0.43427 0.79734 0.0
C636 C 0.19311 0.46156 0.77779 0.0
C637 C 0.14547 0.46108 0.82265 0.0
H638 H 0.1288 0.4847 0.74298 0.0
C639 C 0.08523 0.52098 0.81879 0.0
C640 C 0.0742 0.52132 0.78998 0.0
C641 C 0.09991 0.50662 0.82037 0.0
C642 C 0.13294 0.47779 0.76533 0.0
H643 H 0.19876 0.40938 0.83053 0.0
H644 H 0.16685 0.42358 0.82883 0.0
H645 H 0.15891 0.46714 0.74381 0.0
H646 H 0.06894 0.50527 0.741 0.0
H647 H 0.09377 0.47934 0.74427 0.0
H648 H 0.11914 0.47113 0.8439 0.0
C649 C 0.17916 0.43228 0.81494 0.0
C650 C 0.15051 0.46809 0.76597 0.0
C651 C 0.19745 0.42405 0.81581 0.0
C652 C 0.07709 0.50547 0.76363 0.0
C653 C 0.09162 0.49087 0.76534 0.0
C654 C 0.12774 0.47053 0.82192 0.0
C655 C 0.17671 0.45113 0.79584 0.0
C656 C 0.15726 0.46002 0.79478 0.0
C657 C 0.10376 0.49192 0.7933 0.0
C658 C 0.12141 0.47942 0.79339 0.0
H659 H 0.22354 0.46151 0.76404 0.0
H660 H 0.19202 0.47645 0.76339 0.0
H661 H 0.15018 0.4552 0.84537 0.0
H662 H 0.08313 0.53262 0.83978 0.0
H663 H 0.10892 0.50808 0.84232 0.0
C664 C 0.1873 0.74983 0.21856 0.0
C665 C 0.20019 0.7521 0.24573 0.0
C666 C 0.16838 0.73554 0.21881 0.0
C667 C 0.14347 0.68281 0.25724 0.0
H668 H 0.09677 0.69349 0.20959 0.0
C669 C 0.07622 0.60797 0.23778 0.0
C670 C 0.06913 0.60376 0.2056 0.0
C671 C 0.08846 0.62944 0.24785 0.0
C672 C 0.10969 0.69025 0.22298 0.0
H673 H 0.20272 0.74258 0.29535 0.0
H674 H 0.16962 0.71786 0.29589 0.0
H675 H 0.12548 0.72567 0.21817 0.0
H676 H 0.06825 0.61918 0.15924 0.0
H677 H 0.08988 0.65654 0.17656 0.0
H678 H 0.12824 0.64725 0.261 0.0
C679 C 0.17431 0.72674 0.27414 0.0
C680 C 0.12612 0.70868 0.22791 0.0
C681 C 0.19325 0.74101 0.27388 0.0
C682 C 0.07338 0.62204 0.18427 0.0
C683 C 0.08577 0.64347 0.19426 0.0
C684 C 0.12712 0.66444 0.25228 0.0
C685 C 0.16191 0.72324 0.24626 0.0
C686 C 0.14337 0.705 0.24455 0.0
C687 C 0.09406 0.64708 0.22585 0.0
C688 C 0.11017 0.66774 0.23455 0.0
H689 H 0.19213 0.75822 0.19651 0.0
H690 H 0.15931 0.73312 0.19682 0.0
H691 H 0.15662 0.67917 0.26964 0.0
H692 H 0.07296 0.59424 0.2548 0.0
H693 H 0.09418 0.63184 0.27257 0.0
C694 C 0.77508 0.82926 0.70873 0.0
C695 C 0.78388 0.80922 0.69997 0.0
C696 C 0.77918 0.84968 0.69137 0.0
C697 C 0.79178 0.86651 0.61003 0.0
H698 H 0.80268 0.93141 0.64796 0.0
C699 C 0.78576 0.94495 0.53413 0.0
C700 C 0.80315 0.96233 0.53392 0.0
C701 C 0.78331 0.92832 0.55766 0.0
C702 C 0.79966 0.91336 0.63714 0.0
H703 H 0.8045 0.79527 0.66688 0.0
H704 H 0.8114 0.83083 0.63628 0.0
H705 H 0.80021 0.89803 0.68315 0.0
H706 H 0.83089 0.97697 0.55975 0.0
H707 H 0.82632 0.94809 0.60147 0.0
H708 H 0.79092 0.88163 0.56418 0.0
C709 C 0.80134 0.83068 0.65662 0.0
C710 C 0.7982 0.89433 0.65719 0.0
C711 C 0.79745 0.81037 0.67423 0.0
C712 C 0.81729 0.96388 0.55933 0.0
C713 C 0.81472 0.94731 0.58313 0.0
C714 C 0.79293 0.88545 0.59013 0.0
C715 C 0.79196 0.85035 0.66466 0.0
C716 C 0.79428 0.87072 0.64377 0.0
C717 C 0.79806 0.92887 0.58176 0.0
C718 C 0.79681 0.90905 0.60345 0.0
H719 H 0.76464 0.82899 0.72855 0.0
H720 H 0.77167 0.86455 0.69797 0.0
H721 H 0.78853 0.84851 0.59906 0.0
H722 H 0.77439 0.94361 0.51529 0.0
H723 H 0.77013 0.91455 0.55644 0.0
C724 C 0.69046 0.34368 0.1164 0.0
C725 C 0.69693 0.34258 0.1485 0.0
C726 C 0.67217 0.35066 0.10989 0.0
C727 C 0.63604 0.38559 0.14599 0.0
H728 H 0.605 0.35921 0.06919 0.0
C729 C 0.58635 0.43754 0.07563 0.0
C730 C 0.57058 0.42492 0.0561 0.0
C731 C 0.59793 0.42538 0.09445 0.0
C732 C 0.61314 0.36655 0.09116 0.0
H733 H 0.68893 0.34727 0.19901 0.0
H734 H 0.65679 0.3593 0.18757 0.0
H735 H 0.63233 0.34051 0.08688 0.0
H736 H 0.55322 0.39013 0.04321 0.0
H737 H 0.57285 0.3689 0.0771 0.0
H738 H 0.61683 0.41175 0.15012 0.0
C739 C 0.66604 0.35501 0.16745 0.0
C740 C 0.62907 0.35599 0.10101 0.0
C741 C 0.68439 0.34798 0.17399 0.0
C742 C 0.56539 0.40021 0.058 0.0
C743 C 0.57678 0.38808 0.07713 0.0
C744 C 0.61999 0.39613 0.13621 0.0
C745 C 0.65982 0.35667 0.1353 0.0
C746 C 0.64111 0.3658 0.12792 0.0
C747 C 0.59383 0.40037 0.09429 0.0
C748 C 0.60868 0.38714 0.10811 0.0
H749 H 0.69973 0.33969 0.09617 0.0
H750 H 0.66805 0.3521 0.08485 0.0
H751 H 0.64504 0.39366 0.1668 0.0
H752 H 0.59077 0.45657 0.07428 0.0
H753 H 0.61099 0.43548 0.10709 0.0
C754 C 0.2755 0.3358 0.68548 0.0
C755 C 0.27731 0.338 0.71946 0.0
C756 C 0.27475 0.3137 0.66857 0.0
C757 C 0.28994 0.25547 0.67687 0.0
H758 H 0.2598 0.23927 0.5963 0.0
C759 C 0.3109 0.18956 0.57674 0.0
C760 C 0.29577 0.17682 0.55604 0.0
C761 C 0.30627 0.20566 0.60129 0.0
C762 C 0.26806 0.2432 0.61903 0.0
H763 H 0.27883 0.31848 0.76244 0.0
H764 H 0.27718 0.27981 0.73293 0.0
H765 H 0.25491 0.27418 0.63003 0.0
H766 H 0.2638 0.16941 0.54632 0.0
H767 H 0.25558 0.19705 0.58974 0.0
H768 H 0.30306 0.22441 0.66587 0.0
C769 C 0.27675 0.29528 0.71931 0.0
C770 C 0.26545 0.26347 0.63817 0.0
C771 C 0.27757 0.31743 0.73624 0.0
C772 C 0.27577 0.17925 0.56175 0.0
C773 C 0.27111 0.19518 0.58646 0.0
C774 C 0.29247 0.2351 0.6578 0.0
C775 C 0.27568 0.29321 0.68524 0.0
C776 C 0.2767 0.27018 0.66692 0.0
C777 C 0.28637 0.20921 0.60579 0.0
C778 C 0.2819 0.22901 0.62827 0.0
H779 H 0.2753 0.35129 0.67179 0.0
H780 H 0.27421 0.31286 0.64233 0.0
H781 H 0.29896 0.26017 0.69876 0.0
H782 H 0.32647 0.18822 0.57266 0.0
H783 H 0.31845 0.21631 0.61543 0.0
C784 C 0.34 0.74539 0.24263 0.0
C785 C 0.32429 0.75413 0.22769 0.0
C786 C 0.35483 0.73695 0.22396 0.0
C787 C 0.36415 0.71451 0.14032 0.0
H788 H 0.42027 0.73079 0.16535 0.0
C789 C 0.42274 0.6897 0.05266 0.0
C790 C 0.43779 0.70901 0.04674 0.0
C791 C 0.41127 0.69018 0.08067 0.0
C792 C 0.40466 0.726 0.15808 0.0
H793 H 0.31216 0.76137 0.18143 0.0
H794 H 0.33811 0.7471 0.14907 0.0
H795 H 0.39485 0.74304 0.20138 0.0
H796 H 0.45387 0.74293 0.06678 0.0
H797 H 0.43382 0.74399 0.11523 0.0
H798 H 0.3738 0.69872 0.09632 0.0
C799 C 0.33876 0.74625 0.17515 0.0
C800 C 0.39007 0.73286 0.17884 0.0
C801 C 0.32396 0.75463 0.19376 0.0
C802 C 0.44249 0.72766 0.07083 0.0
C803 C 0.43091 0.72828 0.09868 0.0
C804 C 0.37868 0.70774 0.11957 0.0
C805 C 0.35426 0.73706 0.18997 0.0
C806 C 0.36969 0.72774 0.16976 0.0
C807 C 0.41448 0.71014 0.10308 0.0
C808 C 0.39916 0.71387 0.12779 0.0
H809 H 0.3407 0.74471 0.26872 0.0
H810 H 0.3665 0.7299 0.23611 0.0
H811 H 0.34856 0.70984 0.13288 0.0
H812 H 0.41893 0.67502 0.03455 0.0
H813 H 0.39908 0.6756 0.08374 0.0
C814 C 0.77026 0.2102 0.2406 0.0
C815 C 0.76864 0.23211 0.25702 0.0
C816 C 0.77148 0.19023 0.25789 0.0
C817 C 0.76138 0.16653 0.33873 0.0
H818 H 0.79951 0.12554 0.31319 0.0
C819 C 0.80633 0.09834 0.4029 0.0
C820 C 0.79096 0.08749 0.42243 0.0
C821 C 0.802 0.11215 0.37796 0.0
C822 C 0.78879 0.13681 0.32065 0.0
H823 H 0.7671 0.25023 0.30449 0.0
H824 H 0.76954 0.21565 0.33457 0.0
H825 H 0.79526 0.15823 0.28011 0.0
H826 H 0.75889 0.08081 0.42953 0.0
H827 H 0.7512 0.10432 0.3854 0.0
H828 H 0.75557 0.14603 0.38004 0.0
C829 C 0.76949 0.2137 0.30832 0.0
C830 C 0.7862 0.15541 0.3015 0.0
C831 C 0.76823 0.23361 0.29107 0.0
C832 C 0.77103 0.08922 0.41502 0.0
C833 C 0.76667 0.10283 0.38991 0.0
C834 C 0.764 0.14804 0.35789 0.0
C835 C 0.77111 0.19175 0.29198 0.0
C836 C 0.77273 0.17076 0.31067 0.0
C837 C 0.78217 0.11524 0.3719 0.0
C838 C 0.77796 0.13316 0.3494 0.0
H839 H 0.77057 0.20844 0.21436 0.0
H840 H 0.77253 0.17355 0.24455 0.0
H841 H 0.75063 0.17775 0.34623 0.0
H842 H 0.82184 0.09749 0.4083 0.0
H843 H 0.81435 0.12158 0.36482 0.0
C844 C 0.34557 0.46866 0.80912 0.0
C845 C 0.32965 0.45574 0.82572 0.0
C846 C 0.36347 0.4786 0.82539 0.0
C847 C 0.38673 0.49303 0.90774 0.0
H848 H 0.43542 0.48362 0.86341 0.0
C849 C 0.46215 0.51551 0.97507 0.0
C850 C 0.47446 0.49813 0.97138 0.0
C851 C 0.4462 0.51533 0.95352 0.0
C852 C 0.42198 0.48636 0.87617 0.0
H853 H 0.31978 0.44405 0.87279 0.0
H854 H 0.35102 0.46095 0.901 0.0
H855 H 0.40336 0.47383 0.83459 0.0
H856 H 0.48058 0.46775 0.94157 0.0
H857 H 0.45242 0.46694 0.90421 0.0
H858 H 0.40509 0.50414 0.94986 0.0
C859 C 0.34964 0.46375 0.87549 0.0
C860 C 0.40359 0.48104 0.8595 0.0
C861 C 0.3317 0.45394 0.85926 0.0
C862 C 0.47138 0.48147 0.94464 0.0
C863 C 0.45523 0.48107 0.92327 0.0
C864 C 0.40508 0.49818 0.92445 0.0
C865 C 0.36592 0.47576 0.85863 0.0
C866 C 0.38567 0.48387 0.87527 0.0
C867 C 0.44201 0.49749 0.92815 0.0
C868 C 0.42292 0.49453 0.90907 0.0
H869 H 0.34443 0.47055 0.7833 0.0
H870 H 0.37553 0.48813 0.81177 0.0
H871 H 0.37331 0.49578 0.92053 0.0
H872 H 0.46434 0.52859 -0.00448 0.0
H873 H 0.43668 0.52862 0.95755 0.0
C874 C 0.28097 0.86429 0.33019 0.0
C875 C 0.2958 0.85035 0.33466 0.0
C876 C 0.28457 0.88861 0.33959 0.0
C877 C 0.31903 0.93291 0.39282 0.0
H878 H 0.29087 0.9777 0.3534 0.0
C879 C 0.33085 0.03146 0.43797 0.0
C880 C 0.31306 0.03784 0.45016 0.0
C881 C 0.3302 0.01085 0.41753 0.0
C882 C 0.29893 0.96537 0.36441 0.0
H883 H 0.32637 0.85104 0.35068 0.0
H884 H 0.33312 0.89357 0.36534 0.0
H885 H 0.28764 0.93696 0.32944 0.0
H886 H 0.2807 0.02887 0.44917 0.0
H887 H 0.27952 -0.00683 0.41249 0.0
H888 H 0.33049 0.96153 0.42746 0.0
C889 C 0.31835 0.88573 0.35604 0.0
C890 C 0.29695 0.94195 0.35096 0.0
C891 C 0.31457 0.86133 0.34741 0.0
C892 C 0.29458 0.02431 0.43983 0.0
C893 C 0.29392 0.00398 0.41888 0.0
C894 C 0.32134 0.9564 0.40576 0.0
C895 C 0.30327 0.89967 0.353 0.0
C896 C 0.30667 0.92523 0.36536 0.0
C897 C 0.31174 -0.00339 0.40853 0.0
C898 C 0.31105 0.97272 0.39204 0.0
H899 H 0.26633 0.85622 0.32052 0.0
H900 H 0.27242 0.89849 0.33729 0.0
H901 H 0.32642 0.92063 0.40523 0.0
H902 H 0.34526 0.04151 0.44595 0.0
H903 H 0.34413 0.00549 0.40982 0.0
C904 C 0.68231 0.71467 0.80167 0.0
C905 C 0.68454 0.71758 0.76831 0.0
C906 C 0.6633 0.70832 0.81472 0.0
C907 C 0.61038 0.71149 0.79822 0.0
H908 H 0.60198 0.67394 0.87326 0.0
C909 C 0.54926 0.72085 0.89209 0.0
C910 C 0.54184 0.70145 0.91032 0.0
C911 C 0.56361 0.71876 0.86833 0.0
C912 C 0.60384 0.68409 0.85193 0.0
H913 H 0.66856 0.71494 0.72226 0.0
H914 H 0.63541 0.70351 0.74501 0.0
H915 H 0.63344 0.67663 0.84458 0.0
H916 H 0.54211 0.66412 0.91599 0.0
H917 H 0.56674 0.66023 0.87383 0.0
H918 H 0.58077 0.71902 0.80569 0.0
C919 C 0.64834 0.7066 0.76117 0.0
C920 C 0.62205 0.68592 0.83576 0.0
C921 C 0.66737 0.71302 0.74811 0.0
C922 C 0.54773 0.6794 0.90242 0.0
C923 C 0.56196 0.67725 0.87849 0.0
C924 C 0.5921 0.70959 0.81433 0.0
C925 C 0.64604 0.7046 0.79473 0.0
C926 C 0.62577 0.70015 0.80925 0.0
C927 C 0.57074 0.69719 0.86217 0.0
C928 C 0.58879 0.69636 0.84191 0.0
H929 H 0.6952 0.71807 0.81793 0.0
H930 H 0.66211 0.70726 0.84073 0.0
H931 H 0.61274 0.72273 0.778 0.0
H932 H 0.54517 0.73813 0.89792 0.0
H933 H 0.57012 0.73456 0.8565 0.0
loop_
_geom_bond_atom_site_label_1
_geom_bond_atom_site_label_2
_geom_bond_distance
_geom_bond_site_symmetry_2
_ccdc_geom_bond_type
O0 Cd1 2.300 . S
O0 C7 1.275 . S
Cd1 O0 2.300 . S
Cd1 O9 2.381 . S
Cd1 O10 2.378 . S
O2 Cd3 2.385 . S
O2 C7 1.255 . S
Cd3 O2 2.385 . S
Cd3 O4 2.317 . S
O4 Cd3 2.317 . S
O4 C5 1.232 . S
C5 O4 1.232 . S
C5 O6 1.218 . S
O6 C5 1.218 . S
C7 O0 1.275 . S
C7 O2 1.255 . S
C8 O9 1.258 . S
C8 O10 1.256 . S
O9 Cd1 2.381 . S
O9 C8 1.258 . S
O10 Cd1 2.378 . S
O10 C8 1.256 . S
O11 Cd12 2.300 . S
O11 C18 1.275 . S
Cd12 O11 2.300 . S
Cd12 O20 2.381 . S
Cd12 O21 2.378 . S
O13 Cd14 2.385 . S
O13 C18 1.255 . S
Cd14 O13 2.385 . S
Cd14 O15 2.317 . S
O15 Cd14 2.317 . S
O15 C16 1.232 . S
C16 O15 1.232 . S
C16 O17 1.218 . S
O17 C16 1.218 . S
C18 O11 1.275 . S
C18 O13 1.255 . S
C19 O20 1.258 . S
C19 O21 1.256 . S
O20 Cd12 2.381 . S
O20 C19 1.258 . S
O21 Cd12 2.378 . S
O21 C19 1.256 . S
O22 Cd23 2.300 . S
O22 C29 1.275 . S
Cd23 O22 2.300 . S
Cd23 O31 2.381 . S
Cd23 O32 2.378 . S
O24 Cd25 2.385 . S
O24 C29 1.255 . S
Cd25 O24 2.385 . S
Cd25 O26 2.317 . S
O26 Cd25 2.317 . S
O26 C27 1.232 . S
C27 O26 1.232 . S
C27 O28 1.218 . S
O28 C27 1.218 . S
C29 O22 1.275 . S
C29 O24 1.255 . S
C30 O31 1.258 . S
C30 O32 1.256 . S
O31 Cd23 2.381 . S
O31 C30 1.258 . S
O32 Cd23 2.378 . S
O32 C30 1.256 . S
O33 Cd34 2.300 . S
O33 C40 1.275 . S
Cd34 O33 2.300 . S
Cd34 O42 2.381 . S
Cd34 O43 2.378 . S
O35 Cd36 2.385 . S
O35 C40 1.255 . S
Cd36 O35 2.385 . S
Cd36 O37 2.317 . S
O37 Cd36 2.317 . S
O37 C38 1.232 . S
C38 O37 1.232 . S
C38 O39 1.218 . S
O39 C38 1.218 . S
C40 O33 1.275 . S
C40 O35 1.255 . S
C41 O42 1.258 . S
C41 O43 1.256 . S
O42 Cd34 2.381 . S
O42 C41 1.258 . S
O43 Cd34 2.378 . S
O43 C41 1.256 . S
O44 Cd45 2.300 . S
O44 C51 1.275 . S
Cd45 O44 2.300 . S
Cd45 O53 2.381 . S
Cd45 O54 2.378 . S
O46 Cd47 2.385 . S
O46 C51 1.255 . S
Cd47 O46 2.385 . S
Cd47 O48 2.317 . S
O48 Cd47 2.317 . S
O48 C49 1.232 . S
C49 O48 1.232 . S
C49 O50 1.218 . S
O50 C49 1.218 . S
C51 O44 1.275 . S
C51 O46 1.255 . S
C52 O53 1.258 . S
C52 O54 1.256 . S
O53 Cd45 2.381 . S
O53 C52 1.258 . S
O54 Cd45 2.378 . S
O54 C52 1.256 . S
O55 Cd56 2.300 . S
O55 C62 1.275 . S
Cd56 O55 2.300 . S
Cd56 O64 2.381 . S
Cd56 O65 2.378 . S
O57 Cd58 2.385 . S
O57 C62 1.255 . S
Cd58 O57 2.385 . S
Cd58 O59 2.317 . S
O59 Cd58 2.317 . S
O59 C60 1.232 . S
C60 O59 1.232 . S
C60 O61 1.218 . S
O61 C60 1.218 . S
C62 O55 1.275 . S
C62 O57 1.255 . S
C63 O64 1.258 . S
C63 O65 1.256 . S
O64 Cd56 2.381 . S
O64 C63 1.258 . S
O65 Cd56 2.378 . S
O65 C63 1.256 . S
O66 Cd67 2.300 . S
O66 C73 1.275 . S
Cd67 O66 2.300 . S
Cd67 O75 2.381 . S
Cd67 O76 2.378 . S
O68 Cd69 2.385 . S
O68 C73 1.255 . S
Cd69 O68 2.385 . S
Cd69 O70 2.317 . S
O70 Cd69 2.317 . S
O70 C71 1.232 . S
C71 O70 1.232 . S
C71 O72 1.218 . S
O72 C71 1.218 . S
C73 O66 1.275 . S
C73 O68 1.255 . S
C74 O75 1.258 . S
C74 O76 1.256 . S
O75 Cd67 2.381 . S
O75 C74 1.258 . S
O76 Cd67 2.378 . S
O76 C74 1.256 . S
O77 Cd78 2.300 . S
O77 C84 1.275 . S
Cd78 O77 2.300 . S
Cd78 O86 2.381 . S
Cd78 O87 2.378 . S
O79 Cd80 2.385 . S
O79 C84 1.255 . S
Cd80 O79 2.385 . S
Cd80 O81 2.317 . S
O81 Cd80 2.317 . S
O81 C82 1.232 . S
C82 O81 1.232 . S
C82 O83 1.218 . S
O83 C82 1.218 . S
C84 O77 1.275 . S
C84 O79 1.255 . S
C85 O86 1.258 . S
C85 O87 1.256 . S
O86 Cd78 2.381 . S
O86 C85 1.258 . S
O87 Cd78 2.378 . S
O87 C85 1.256 . S
H88 C96 0.930 . S
H89 C99 0.930 . S
H90 C101 0.930 . S
H91 C102 0.970 . S
H92 C102 0.970 . S
H93 C104 0.930 . S
H94 C106 0.930 . S
H95 C108 0.930 . S
C96 H88 0.930 . S
C96 C97 1.382 1_455 S
C96 C98 1.426 . S
C97 C96 1.382 1_655 S
C97 C101 1.389 . S
C98 C96 1.426 . S
C98 C99 1.375 . S
C98 C102 1.532 . S
C99 H89 0.930 . S
C99 C98 1.375 . S
C99 C100 1.416 1_455 S
C100 C99 1.416 1_655 S
C100 C101 1.371 . S
C101 H90 0.930 . S
C101 C97 1.389 . S
C101 C100 1.371 . S
C102 H91 0.970 . S
C102 H92 0.970 . S
C102 C98 1.532 . S
C102 C103 1.499 . S
C103 C102 1.499 . S
C103 C104 1.370 . S
C103 C108 1.415 . S
C104 H93 0.930 . S
C104 C103 1.370 . S
C104 C105 1.407 . S
C105 C104 1.407 . S
C105 C106 1.365 . S
C106 H94 0.930 . S
C106 C105 1.365 . S
C106 C107 1.393 . S
C107 C106 1.393 . S
C107 C108 1.387 . S
C108 H95 0.930 . S
C108 C103 1.415 . S
C108 C107 1.387 . S
H109 C117 0.930 . S
H110 C120 0.930 . S
H111 C122 0.930 . S
H112 C123 0.970 . S
H113 C123 0.970 . S
H114 C125 0.930 . S
H115 C127 0.930 . S
H116 C129 0.930 . S
C117 H109 0.930 . S
C117 C118 1.382 . S
C117 C119 1.426 . S
C118 C117 1.382 . S
C118 C122 1.389 . S
C119 C117 1.426 . S
C119 C120 1.375 . S
C119 C123 1.532 . S
C120 H110 0.930 . S
C120 C119 1.375 . S
C120 C121 1.416 . S
C121 C120 1.416 . S
C121 C122 1.371 . S
C122 H111 0.930 . S
C122 C118 1.389 . S
C122 C121 1.371 . S
C123 H112 0.970 . S
C123 H113 0.970 . S
C123 C119 1.532 . S
C123 C124 1.499 1_455 S
C124 C123 1.499 1_655 S
C124 C125 1.370 . S
C124 C129 1.415 . S
C125 H114 0.930 . S
C125 C124 1.370 . S
C125 C126 1.407 . S
C126 C125 1.407 . S
C126 C127 1.365 . S
C127 H115 0.930 . S
C127 C126 1.365 . S
C127 C128 1.393 . S
C128 C127 1.393 . S
C128 C129 1.387 . S
C129 H116 0.930 . S
C129 C124 1.415 . S
C129 C128 1.387 . S
H130 C138 0.930 . S
H131 C141 0.930 . S
H132 C143 0.930 . S
H133 C144 0.970 . S
H134 C144 0.970 . S
H135 C146 0.930 . S
H136 C148 0.930 . S
H137 C150 0.930 . S
C138 H130 0.930 . S
C138 C139 1.382 . S
C138 C140 1.426 . S
C139 C138 1.382 . S
C139 C143 1.389 . S
C140 C138 1.426 . S
C140 C141 1.375 . S
C140 C144 1.532 . S
C141 H131 0.930 . S
C141 C140 1.375 . S
C141 C142 1.416 . S
C142 C141 1.416 . S
C142 C143 1.371 . S
C143 H132 0.930 . S
C143 C139 1.389 . S
C143 C142 1.371 . S
C144 H133 0.970 . S
C144 H134 0.970 . S
C144 C140 1.532 . S
C144 C145 1.499 . S
C145 C144 1.499 . S
C145 C146 1.370 . S
C145 C150 1.415 . S
C146 H135 0.930 . S
C146 C145 1.370 . S
C146 C147 1.407 . S
C147 C146 1.407 . S
C147 C148 1.365 . S
C148 H136 0.930 . S
C148 C147 1.365 . S
C148 C149 1.393 . S
C149 C148 1.393 . S
C149 C150 1.387 . S
C150 H137 0.930 . S
C150 C145 1.415 . S
C150 C149 1.387 . S
H151 C159 0.930 . S
H152 C162 0.930 . S
H153 C164 0.930 . S
H154 C165 0.970 1_556 S
H155 C165 0.970 . S
H156 C167 0.930 . S
H157 C169 0.930 . S
H158 C171 0.930 . S
C159 H151 0.930 . S
C159 C160 1.382 . S
C159 C161 1.426 1_556 S
C160 C159 1.382 . S
C160 C164 1.389 1_556 S
C161 C159 1.426 1_554 S
C161 C162 1.375 . S
C161 C165 1.532 . S
C162 H152 0.930 . S
C162 C161 1.375 . S
C162 C163 1.416 . S
C163 C162 1.416 . S
C163 C164 1.371 . S
C164 H153 0.930 . S
C164 C160 1.389 1_554 S
C164 C163 1.371 . S
C165 H154 0.970 1_554 S
C165 H155 0.970 . S
C165 C161 1.532 . S
C165 C166 1.499 . S
C166 C165 1.499 . S
C166 C167 1.370 1_554 S
C166 C171 1.415 . S
C167 H156 0.930 . S
C167 C166 1.370 1_556 S
C167 C168 1.407 . S
C168 C167 1.407 . S
C168 C169 1.365 . S
C169 H157 0.930 . S
C169 C168 1.365 . S
C169 C170 1.393 1_556 S
C170 C169 1.393 1_554 S
C170 C171 1.387 . S
C171 H158 0.930 . S
C171 C166 1.415 . S
C171 C170 1.387 . S
H172 C180 0.930 . S
H173 C183 0.930 . S
H174 C185 0.930 . S
H175 C186 0.970 . S
H176 C186 0.970 . S
H177 C188 0.930 . S
H178 C190 0.930 . S
H179 C192 0.930 . S
C180 H172 0.930 . S
C180 C181 1.382 . S
C180 C182 1.426 . S
C181 C180 1.382 . S
C181 C185 1.389 . S
C182 C180 1.426 . S
C182 C183 1.375 . S
C182 C186 1.532 . S
C183 H173 0.930 . S
C183 C182 1.375 . S
C183 C184 1.416 . S
C184 C183 1.416 . S
C184 C185 1.371 . S
C185 H174 0.930 . S
C185 C181 1.389 . S
C185 C184 1.371 . S
C186 H175 0.970 . S
C186 H176 0.970 . S
C186 C182 1.532 . S
C186 C187 1.499 1_545 S
C187 C186 1.499 1_565 S
C187 C188 1.370 . S
C187 C192 1.415 . S
C188 H177 0.930 . S
C188 C187 1.370 . S
C188 C189 1.407 . S
C189 C188 1.407 . S
C189 C190 1.365 . S
C190 H178 0.930 . S
C190 C189 1.365 . S
C190 C191 1.393 . S
C191 C190 1.393 . S
C191 C192 1.387 . S
C192 H179 0.930 . S
C192 C187 1.415 . S
C192 C191 1.387 . S
H193 C201 0.930 . S
H194 C204 0.930 . S
H195 C206 0.930 . S
H196 C207 0.970 . S
H197 C207 0.970 . S
H198 C209 0.930 . S
H199 C211 0.930 . S
H200 C213 0.930 . S
C201 H193 0.930 . S
C201 C202 1.382 . S
C201 C203 1.426 1_556 S
C202 C201 1.382 . S
C202 C206 1.389 1_556 S
C203 C201 1.426 1_554 S
C203 C204 1.375 . S
C203 C207 1.532 . S
C204 H194 0.930 . S
C204 C203 1.375 . S
C204 C205 1.416 . S
C205 C204 1.416 . S
C205 C206 1.371 . S
C206 H195 0.930 . S
C206 C202 1.389 1_554 S
C206 C205 1.371 . S
C207 H196 0.970 . S
C207 H197 0.970 . S
C207 C203 1.532 . S
C207 C208 1.499 . S
C208 C207 1.499 . S
C208 C209 1.370 1_554 S
C208 C213 1.415 . S
C209 H198 0.930 . S
C209 C208 1.370 1_556 S
C209 C210 1.407 . S
C210 C209 1.407 . S
C210 C211 1.365 1_556 S
C211 H199 0.930 . S
C211 C210 1.365 1_554 S
C211 C212 1.393 . S
C212 C211 1.393 . S
C212 C213 1.387 . S
C213 H200 0.930 . S
C213 C208 1.415 . S
C213 C212 1.387 . S
C214 C215 1.349 . S
C214 C216 1.327 . S
C214 H239 0.950 . S
C215 C214 1.349 . S
C215 C231 1.349 . S
C216 C214 1.327 . S
C216 C235 1.429 . S
C216 H240 0.950 . S
C217 C234 1.574 . S
C217 C236 1.368 . S
C217 H241 0.949 . S
H218 C222 0.949 . S
C219 C220 1.349 . S
C219 C221 1.327 . S
C219 H242 0.950 . S
C220 C219 1.349 . S
C220 C232 1.349 . S
C221 C219 1.327 . S
C221 C237 1.429 . S
C221 H243 0.950 . S
C222 H218 0.949 . S
C222 C230 1.574 . S
C222 C238 1.368 . S
H223 C231 0.950 . S
H224 C229 0.950 . S
H225 C230 0.949 . S
H226 C232 0.950 . S
H227 C233 0.950 . S
H228 C234 0.949 . S
C229 H224 0.950 . S
C229 C231 1.327 . S
C229 C235 1.429 . S
C230 C222 1.574 . S
C230 H225 0.949 . S
C230 C236 1.368 . S
C231 C215 1.349 . S
C231 H223 0.950 . S
C231 C229 1.327 . S
C232 C220 1.349 . S
C232 H226 0.950 . S
C232 C233 1.327 . S
C233 H227 0.950 . S
C233 C232 1.327 . S
C233 C237 1.429 . S
C234 C217 1.574 . S
C234 H228 0.949 . S
C234 C238 1.368 . S
C235 C216 1.429 . S
C235 C229 1.429 . S
C235 C236 1.523 . S
C236 C217 1.368 . S
C236 C230 1.368 . S
C236 C235 1.523 . S
C237 C221 1.429 . S
C237 C233 1.429 . S
C237 C238 1.523 . S
C238 C222 1.368 . S
C238 C234 1.368 . S
C238 C237 1.523 . S
H239 C214 0.950 . S
H240 C216 0.950 . S
H241 C217 0.949 . S
H242 C219 0.950 . S
H243 C221 0.950 . S
C244 C245 1.349 . S
C244 C246 1.327 . S
C244 H269 0.950 . S
C245 C244 1.349 . S
C245 C261 1.349 . S
C246 C244 1.327 . S
C246 C265 1.429 . S
C246 H270 0.950 . S
C247 C264 1.574 . S
C247 C266 1.368 . S
C247 H271 0.949 . S
H248 C252 0.949 . S
C249 C250 1.349 . S
C249 C251 1.327 . S
C249 H272 0.950 . S
C250 C249 1.349 . S
C250 C262 1.349 . S
C251 C249 1.327 . S
C251 C267 1.429 . S
C251 H273 0.950 . S
C252 H248 0.949 . S
C252 C260 1.574 . S
C252 C268 1.368 . S
H253 C261 0.950 . S
H254 C259 0.950 . S
H255 C260 0.949 . S
H256 C262 0.950 . S
H257 C263 0.950 . S
H258 C264 0.949 . S
C259 H254 0.950 . S
C259 C261 1.327 . S
C259 C265 1.429 . S
C260 C252 1.574 . S
C260 H255 0.949 . S
C260 C266 1.368 . S
C261 C245 1.349 . S
C261 H253 0.950 . S
C261 C259 1.327 . S
C262 C250 1.349 . S
C262 H256 0.950 . S
C262 C263 1.327 . S
C263 H257 0.950 . S
C263 C262 1.327 . S
C263 C267 1.429 . S
C264 C247 1.574 . S
C264 H258 0.949 . S
C264 C268 1.368 . S
C265 C246 1.429 . S
C265 C259 1.429 . S
C265 C266 1.523 . S
C266 C247 1.368 . S
C266 C260 1.368 . S
C266 C265 1.523 . S
C267 C251 1.429 . S
C267 C263 1.429 . S
C267 C268 1.523 . S
C268 C252 1.368 . S
C268 C264 1.368 . S
C268 C267 1.523 . S
H269 C244 0.950 . S
H270 C246 0.950 . S
H271 C247 0.949 . S
H272 C249 0.950 . S
H273 C251 0.950 . S
C274 C275 1.349 . S
C274 C276 1.327 . S
C274 H299 0.950 . S
C275 C274 1.349 . S
C275 C291 1.349 . S
C276 C274 1.327 . S
C276 C295 1.429 . S
C276 H300 0.950 . S
C277 C294 1.574 . S
C277 C296 1.368 . S
C277 H301 0.949 . S
H278 C282 0.949 . S
C279 C280 1.349 . S
C279 C281 1.327 . S
C279 H302 0.950 . S
C280 C279 1.349 . S
C280 C292 1.349 . S
C281 C279 1.327 . S
C281 C297 1.429 . S
C281 H303 0.950 . S
C282 H278 0.949 . S
C282 C290 1.574 . S
C282 C298 1.368 . S
H283 C291 0.950 . S
H284 C289 0.950 . S
H285 C290 0.949 . S
H286 C292 0.950 . S
H287 C293 0.950 . S
H288 C294 0.949 . S
C289 H284 0.950 . S
C289 C291 1.327 . S
C289 C295 1.429 . S
C290 C282 1.574 . S
C290 H285 0.949 . S
C290 C296 1.368 . S
C291 C275 1.349 . S
C291 H283 0.950 . S
C291 C289 1.327 . S
C292 C280 1.349 . S
C292 H286 0.950 . S
C292 C293 1.327 . S
C293 H287 0.950 . S
C293 C292 1.327 . S
C293 C297 1.429 . S
C294 C277 1.574 . S
C294 H288 0.949 . S
C294 C298 1.368 . S
C295 C276 1.429 . S
C295 C289 1.429 . S
C295 C296 1.523 . S
C296 C277 1.368 . S
C296 C290 1.368 . S
C296 C295 1.523 . S
C297 C281 1.429 . S
C297 C293 1.429 . S
C297 C298 1.523 . S
C298 C282 1.368 . S
C298 C294 1.368 . S
C298 C297 1.523 . S
H299 C274 0.950 . S
H300 C276 0.950 . S
H301 C277 0.949 . S
H302 C279 0.950 . S
H303 C281 0.950 . S
C304 C305 1.349 . S
C304 C306 1.327 . S
C304 H329 0.950 . S
C305 C304 1.349 . S
C305 C321 1.349 . S
C306 C304 1.327 . S
C306 C325 1.429 . S
C306 H330 0.950 . S
C307 C324 1.574 . S
C307 C326 1.368 . S
C307 H331 0.949 . S
H308 C312 0.949 . S
C309 C310 1.349 . S
C309 C311 1.327 . S
C309 H332 0.950 . S
C310 C309 1.349 . S
C310 C322 1.349 . S
C311 C309 1.327 . S
C311 C327 1.429 . S
C311 H333 0.950 . S
C312 H308 0.949 . S
C312 C320 1.574 . S
C312 C328 1.368 . S
H313 C321 0.950 . S
H314 C319 0.950 . S
H315 C320 0.949 . S
H316 C322 0.950 . S
H317 C323 0.950 . S
H318 C324 0.949 . S
C319 H314 0.950 . S
C319 C321 1.327 . S
C319 C325 1.429 . S
C320 C312 1.574 . S
C320 H315 0.949 . S
C320 C326 1.368 . S
C321 C305 1.349 . S
C321 H313 0.950 . S
C321 C319 1.327 . S
C322 C310 1.349 . S
C322 H316 0.950 . S
C322 C323 1.327 . S
C323 H317 0.950 . S
C323 C322 1.327 . S
C323 C327 1.429 . S
C324 C307 1.574 . S
C324 H318 0.949 . S
C324 C328 1.368 . S
C325 C306 1.429 . S
C325 C319 1.429 . S
C325 C326 1.523 . S
C326 C307 1.368 . S
C326 C320 1.368 . S
C326 C325 1.523 . S
C327 C311 1.429 . S
C327 C323 1.429 . S
C327 C328 1.523 . S
C328 C312 1.368 . S
C328 C324 1.368 . S
C328 C327 1.523 . S
H329 C304 0.950 . S
H330 C306 0.950 . S
H331 C307 0.949 . S
H332 C309 0.950 . S
H333 C311 0.950 . S
C334 C335 1.349 . S
C334 C336 1.327 . S
C334 H359 0.950 . S
C335 C334 1.349 . S
C335 C351 1.349 . S
C336 C334 1.327 . S
C336 C355 1.429 . S
C336 H360 0.950 . S
C337 C354 1.574 . S
C337 C356 1.368 . S
C337 H361 0.949 . S
H338 C342 0.949 . S
C339 C340 1.349 . S
C339 C341 1.327 . S
C339 H362 0.950 . S
C340 C339 1.349 . S
C340 C352 1.349 . S
C341 C339 1.327 . S
C341 C357 1.429 . S
C341 H363 0.950 . S
C342 H338 0.949 . S
C342 C350 1.574 . S
C342 C358 1.368 . S
H343 C351 0.950 . S
H344 C349 0.950 . S
H345 C350 0.949 . S
H346 C352 0.950 . S
H347 C353 0.950 . S
H348 C354 0.949 . S
C349 H344 0.950 . S
C349 C351 1.327 . S
C349 C355 1.429 . S
C350 C342 1.574 . S
C350 H345 0.949 . S
C350 C356 1.368 . S
C351 C335 1.349 . S
C351 H343 0.950 . S
C351 C349 1.327 . S
C352 C340 1.349 . S
C352 H346 0.950 . S
C352 C353 1.327 . S
C353 H347 0.950 . S
C353 C352 1.327 . S
C353 C357 1.429 . S
C354 C337 1.574 . S
C354 H348 0.949 . S
C354 C358 1.368 . S
C355 C336 1.429 . S
C355 C349 1.429 . S
C355 C356 1.523 . S
C356 C337 1.368 . S
C356 C350 1.368 . S
C356 C355 1.523 . S
C357 C341 1.429 . S
C357 C353 1.429 . S
C357 C358 1.523 . S
C358 C342 1.368 . S
C358 C354 1.368 . S
C358 C357 1.523 . S
H359 C334 0.950 . S
H360 C336 0.950 . S
H361 C337 0.949 . S
H362 C339 0.950 . S
H363 C341 0.950 . S
C364 C365 1.349 . S
C364 C366 1.327 . S
C364 H389 0.950 . S
C365 C364 1.349 . S
C365 C381 1.349 . S
C366 C364 1.327 . S
C366 C385 1.429 . S
C366 H390 0.950 . S
C367 C384 1.574 . S
C367 C386 1.368 . S
C367 H391 0.949 . S
H368 C372 0.949 . S
C369 C370 1.349 . S
C369 C371 1.327 . S
C369 H392 0.950 . S
C370 C369 1.349 . S
C370 C382 1.349 . S
C371 C369 1.327 . S
C371 C387 1.429 . S
C371 H393 0.950 . S
C372 H368 0.949 . S
C372 C380 1.574 . S
C372 C388 1.368 . S
H373 C381 0.950 . S
H374 C379 0.950 . S
H375 C380 0.949 . S
H376 C382 0.950 . S
H377 C383 0.950 . S
H378 C384 0.949 . S
C379 H374 0.950 . S
C379 C381 1.327 . S
C379 C385 1.429 . S
C380 C372 1.574 . S
C380 H375 0.949 . S
C380 C386 1.368 . S
C381 C365 1.349 . S
C381 H373 0.950 . S
C381 C379 1.327 . S
C382 C370 1.349 . S
C382 H376 0.950 . S
C382 C383 1.327 . S
C383 H377 0.950 . S
C383 C382 1.327 . S
C383 C387 1.429 . S
C384 C367 1.574 . S
C384 H378 0.949 . S
C384 C388 1.368 . S
C385 C366 1.429 . S
C385 C379 1.429 . S
C385 C386 1.523 . S
C386 C367 1.368 . S
C386 C380 1.368 . S
C386 C385 1.523 . S
C387 C371 1.429 . S
C387 C383 1.429 . S
C387 C388 1.523 . S
C388 C372 1.368 . S
C388 C384 1.368 . S
C388 C387 1.523 . S
H389 C364 0.950 . S
H390 C366 0.950 . S
H391 C367 0.949 . S
H392 C369 0.950 . S
H393 C371 0.950 . S
C394 C395 1.349 . S
C394 C396 1.327 . S
C394 H419 0.950 . S
C395 C394 1.349 . S
C395 C411 1.349 . S
C396 C394 1.327 . S
C396 C415 1.429 . S
C396 H420 0.950 . S
C397 C414 1.574 . S
C397 C416 1.368 . S
C397 H421 0.949 . S
H398 C402 0.949 . S
C399 C400 1.349 . S
C399 C401 1.327 . S
C399 H422 0.950 . S
C400 C399 1.349 . S
C400 C412 1.349 . S
C401 C399 1.327 . S
C401 C417 1.429 . S
C401 H423 0.950 . S
C402 H398 0.949 . S
C402 C410 1.574 . S
C402 C418 1.368 . S
H403 C411 0.950 . S
H404 C409 0.950 . S
H405 C410 0.949 . S
H406 C412 0.950 . S
H407 C413 0.950 . S
H408 C414 0.949 . S
C409 H404 0.950 . S
C409 C411 1.327 . S
C409 C415 1.429 . S
C410 C402 1.574 . S
C410 H405 0.949 . S
C410 C416 1.368 . S
C411 C395 1.349 . S
C411 H403 0.950 . S
C411 C409 1.327 . S
C412 C400 1.349 . S
C412 H406 0.950 . S
C412 C413 1.327 . S
C413 H407 0.950 . S
C413 C412 1.327 . S
C413 C417 1.429 . S
C414 C397 1.574 . S
C414 H408 0.949 . S
C414 C418 1.368 . S
C415 C396 1.429 . S
C415 C409 1.429 . S
C415 C416 1.523 . S
C416 C397 1.368 . S
C416 C410 1.368 . S
C416 C415 1.523 . S
C417 C401 1.429 . S
C417 C413 1.429 . S
C417 C418 1.523 . S
C418 C402 1.368 . S
C418 C414 1.368 . S
C418 C417 1.523 . S
H419 C394 0.950 . S
H420 C396 0.950 . S
H421 C397 0.949 . S
H422 C399 0.950 . S
H423 C401 0.950 . S
C424 C425 1.349 . S
C424 C426 1.327 . S
C424 H449 0.950 . S
C425 C424 1.349 . S
C425 C441 1.349 . S
C426 C424 1.327 . S
C426 C445 1.429 . S
C426 H450 0.950 . S
C427 C444 1.574 . S
C427 C446 1.368 . S
C427 H451 0.949 . S
H428 C432 0.949 . S
C429 C430 1.349 . S
C429 C431 1.327 . S
C429 H452 0.950 . S
C430 C429 1.349 . S
C430 C442 1.349 . S
C431 C429 1.327 . S
C431 C447 1.429 . S
C431 H453 0.950 . S
C432 H428 0.949 . S
C432 C440 1.574 . S
C432 C448 1.368 . S
H433 C441 0.950 . S
H434 C439 0.950 . S
H435 C440 0.949 . S
H436 C442 0.950 . S
H437 C443 0.950 . S
H438 C444 0.949 . S
C439 H434 0.950 . S
C439 C441 1.327 . S
C439 C445 1.429 . S
C440 C432 1.574 . S
C440 H435 0.949 . S
C440 C446 1.368 . S
C441 C425 1.349 . S
C441 H433 0.950 . S
C441 C439 1.327 . S
C442 C430 1.349 . S
C442 H436 0.950 . S
C442 C443 1.327 . S
C443 H437 0.950 . S
C443 C442 1.327 . S
C443 C447 1.429 . S
C444 C427 1.574 . S
C444 H438 0.949 . S
C444 C448 1.368 . S
C445 C426 1.429 . S
C445 C439 1.429 . S
C445 C446 1.523 . S
C446 C427 1.368 . S
C446 C440 1.368 . S
C446 C445 1.523 . S
C447 C431 1.429 . S
C447 C443 1.429 . S
C447 C448 1.523 . S
C448 C432 1.368 . S
C448 C444 1.368 . S
C448 C447 1.523 . S
H449 C424 0.950 . S
H450 C426 0.950 . S
H451 C427 0.949 . S
H452 C429 0.950 . S
H453 C431 0.950 . S
C454 C455 1.349 . S
C454 C456 1.327 . S
C454 H479 0.950 . S
C455 C454 1.349 . S
C455 C471 1.349 . S
C456 C454 1.327 . S
C456 C475 1.429 . S
C456 H480 0.950 . S
C457 C474 1.574 1_565 S
C457 C476 1.368 . S
C457 H481 0.949 . S
H458 C462 0.928 1_545 S
C459 C460 1.349 . S
C459 C461 1.327 . S
C459 H482 0.950 . S
C460 C459 1.349 . S
C460 C472 1.349 . S
C461 C459 1.327 . S
C461 C477 1.429 . S
C461 H483 0.950 . S
C462 H458 0.928 1_565 S
C462 C470 1.574 . S
C462 C478 1.368 1_565 S
H463 C471 0.950 . S
H464 C469 0.950 . S
H465 C470 0.949 . S
H466 C472 0.950 . S
H467 C473 0.950 . S
H468 C474 0.949 . S
C469 H464 0.950 . S
C469 C471 1.327 . S
C469 C475 1.429 . S
C470 C462 1.574 . S
C470 H465 0.949 . S
C470 C476 1.368 . S
C471 C455 1.349 . S
C471 H463 0.950 . S
C471 C469 1.327 . S
C472 C460 1.349 . S
C472 H466 0.950 . S
C472 C473 1.327 . S
C473 H467 0.950 . S
C473 C472 1.327 . S
C473 C477 1.429 . S
C474 C457 1.574 1_545 S
C474 H468 0.949 . S
C474 C478 1.368 . S
C475 C456 1.429 . S
C475 C469 1.429 . S
C475 C476 1.523 . S
C476 C457 1.368 . S
C476 C470 1.368 . S
C476 C475 1.523 . S
C477 C461 1.429 . S
C477 C473 1.429 . S
C477 C478 1.523 . S
C478 C462 1.368 1_545 S
C478 C474 1.368 . S
C478 C477 1.523 . S
H479 C454 0.950 . S
H480 C456 0.950 . S
H481 C457 0.949 . S
H482 C459 0.950 . S
H483 C461 0.950 . S
C484 C485 1.349 . S
C484 C486 1.327 . S
C484 H509 0.950 . S
C485 C484 1.349 . S
C485 C501 1.349 . S
C486 C484 1.327 . S
C486 C505 1.429 . S
C486 H510 0.950 . S
C487 C504 1.574 . S
C487 C506 1.368 . S
C487 H511 0.949 . S
H488 C492 0.949 . S
C489 C490 1.349 . S
C489 C491 1.327 . S
C489 H512 0.950 . S
C490 C489 1.349 . S
C490 C502 1.349 . S
C491 C489 1.327 . S
C491 C507 1.429 . S
C491 H513 0.950 . S
C492 H488 0.949 . S
C492 C500 1.574 . S
C492 C508 1.368 . S
H493 C501 0.950 . S
H494 C499 0.950 . S
H495 C500 0.949 . S
H496 C502 0.950 . S
H497 C503 0.950 . S
H498 C504 0.949 . S
C499 H494 0.950 . S
C499 C501 1.327 . S
C499 C505 1.429 . S
C500 C492 1.574 . S
C500 H495 0.949 . S
C500 C506 1.368 . S
C501 C485 1.349 . S
C501 H493 0.950 . S
C501 C499 1.327 . S
C502 C490 1.349 . S
C502 H496 0.950 . S
C502 C503 1.327 . S
C503 H497 0.950 . S
C503 C502 1.327 . S
C503 C507 1.429 . S
C504 C487 1.574 . S
C504 H498 0.949 . S
C504 C508 1.368 . S
C505 C486 1.429 . S
C505 C499 1.429 . S
C505 C506 1.523 . S
C506 C487 1.368 . S
C506 C500 1.368 . S
C506 C505 1.523 . S
C507 C491 1.429 . S
C507 C503 1.429 . S
C507 C508 1.523 . S
C508 C492 1.368 . S
C508 C504 1.368 . S
C508 C507 1.523 . S
H509 C484 0.950 . S
H510 C486 0.950 . S
H511 C487 0.949 . S
H512 C489 0.950 . S
H513 C491 0.950 . S
C514 C515 1.349 . S
C514 C516 1.327 . S
C514 H539 0.950 . S
C515 C514 1.349 . S
C515 C531 1.349 . S
C516 C514 1.327 . S
C516 C535 1.429 . S
C516 H540 0.950 . S
C517 C534 1.574 . S
C517 C536 1.368 . S
C517 H541 0.949 . S
H518 C522 0.949 . S
C519 C520 1.349 . S
C519 C521 1.327 . S
C519 H542 0.950 . S
C520 C519 1.349 . S
C520 C532 1.349 . S
C521 C519 1.327 . S
C521 C537 1.429 . S
C521 H543 0.950 . S
C522 H518 0.949 . S
C522 C530 1.574 . S
C522 C538 1.368 . S
H523 C531 0.950 . S
H524 C529 0.950 . S
H525 C530 0.949 . S
H526 C532 0.950 . S
H527 C533 0.950 . S
H528 C534 0.949 . S
C529 H524 0.950 . S
C529 C531 1.327 . S
C529 C535 1.429 . S
C530 C522 1.574 . S
C530 H525 0.949 . S
C530 C536 1.368 . S
C531 C515 1.349 . S
C531 H523 0.950 . S
C531 C529 1.327 . S
C532 C520 1.349 . S
C532 H526 0.950 . S
C532 C533 1.327 . S
C533 H527 0.950 . S
C533 C532 1.327 . S
C533 C537 1.429 . S
C534 C517 1.574 . S
C534 H528 0.949 . S
C534 C538 1.368 . S
C535 C516 1.429 . S
C535 C529 1.429 . S
C535 C536 1.523 . S
C536 C517 1.368 . S
C536 C530 1.368 . S
C536 C535 1.523 . S
C537 C521 1.429 . S
C537 C533 1.429 . S
C537 C538 1.523 . S
C538 C522 1.368 . S
C538 C534 1.368 . S
C538 C537 1.523 . S
H539 C514 0.950 . S
H540 C516 0.950 . S
H541 C517 0.949 . S
H542 C519 0.950 . S
H543 C521 0.950 . S
C544 C545 1.349 . S
C544 C546 1.327 . S
C544 H569 0.950 . S
C545 C544 1.349 . S
C545 C561 1.349 . S
C546 C544 1.327 . S
C546 C565 1.429 . S
C546 H570 0.950 . S
C547 C564 1.574 . S
C547 C566 1.368 . S
C547 H571 0.949 . S
H548 C552 0.949 . S
C549 C550 1.349 . S
C549 C551 1.327 . S
C549 H572 0.950 . S
C550 C549 1.349 . S
C550 C562 1.349 . S
C551 C549 1.327 . S
C551 C567 1.429 . S
C551 H573 0.950 . S
C552 H548 0.949 . S
C552 C560 1.574 . S
C552 C568 1.368 . S
H553 C561 0.950 . S
H554 C559 0.950 . S
H555 C560 0.949 . S
H556 C562 0.950 . S
H557 C563 0.950 . S
H558 C564 0.949 . S
C559 H554 0.950 . S
C559 C561 1.327 . S
C559 C565 1.429 . S
C560 C552 1.574 . S
C560 H555 0.949 . S
C560 C566 1.368 . S
C561 C545 1.349 . S
C561 H553 0.950 . S
C561 C559 1.327 . S
C562 C550 1.349 . S
C562 H556 0.950 . S
C562 C563 1.327 . S
C563 H557 0.950 . S
C563 C562 1.327 . S
C563 C567 1.429 . S
C564 C547 1.574 . S
C564 H558 0.949 . S
C564 C568 1.368 . S
C565 C546 1.429 . S
C565 C559 1.429 . S
C565 C566 1.523 . S
C566 C547 1.368 . S
C566 C560 1.368 . S
C566 C565 1.523 . S
C567 C551 1.429 . S
C567 C563 1.429 . S
C567 C568 1.523 . S
C568 C552 1.368 . S
C568 C564 1.368 . S
C568 C567 1.523 . S
H569 C544 0.950 . S
H570 C546 0.950 . S
H571 C547 0.949 . S
H572 C549 0.950 . S
H573 C551 0.950 . S
C574 C575 1.349 . S
C574 C576 1.327 . S
C574 H599 0.950 . S
C575 C574 1.349 . S
C575 C591 1.349 . S
C576 C574 1.327 . S
C576 C595 1.429 . S
C576 H600 0.950 . S
C577 C594 1.574 . S
C577 C596 1.368 . S
C577 H601 0.949 . S
H578 C582 0.949 . S
C579 C580 1.349 . S
C579 C581 1.327 . S
C579 H602 0.950 . S
C580 C579 1.349 . S
C580 C592 1.349 . S
C581 C579 1.327 . S
C581 C597 1.429 . S
C581 H603 0.950 . S
C582 H578 0.949 . S
C582 C590 1.574 . S
C582 C598 1.368 . S
H583 C591 0.950 . S
H584 C589 0.950 . S
H585 C590 0.949 . S
H586 C592 0.950 . S
H587 C593 0.950 . S
H588 C594 0.949 . S
C589 H584 0.950 . S
C589 C591 1.327 . S
C589 C595 1.429 . S
C590 C582 1.574 . S
C590 H585 0.949 . S
C590 C596 1.368 . S
C591 C575 1.349 . S
C591 H583 0.950 . S
C591 C589 1.327 . S
C592 C580 1.349 . S
C592 H586 0.950 . S
C592 C593 1.327 . S
C593 H587 0.950 . S
C593 C592 1.327 . S
C593 C597 1.429 . S
C594 C577 1.574 . S
C594 H588 0.949 . S
C594 C598 1.368 . S
C595 C576 1.429 . S
C595 C589 1.429 . S
C595 C596 1.523 . S
C596 C577 1.368 . S
C596 C590 1.368 . S
C596 C595 1.523 . S
C597 C581 1.429 . S
C597 C593 1.429 . S
C597 C598 1.523 . S
C598 C582 1.368 . S
C598 C594 1.368 . S
C598 C597 1.523 . S
H599 C574 0.950 . S
H600 C576 0.950 . S
H601 C577 0.949 . S
H602 C579 0.950 . S
H603 C581 0.950 . S
C604 C605 1.349 . S
C604 C606 1.327 . S
C604 H629 0.950 . S
C605 C604 1.349 . S
C605 C621 1.349 . S
C606 C604 1.327 . S
C606 C625 1.429 . S
C606 H630 0.950 . S
C607 C624 1.574 . S
C607 C626 1.368 . S
C607 H631 0.949 . S
H608 C612 0.949 . S
C609 C610 1.349 . S
C609 C611 1.327 . S
C609 H632 0.950 . S
C610 C609 1.349 . S
C610 C622 1.349 . S
C611 C609 1.327 . S
C611 C627 1.429 . S
C611 H633 0.950 . S
C612 H608 0.949 . S
C612 C620 1.574 . S
C612 C628 1.368 . S
H613 C621 0.950 . S
H614 C619 0.950 . S
H615 C620 0.949 . S
H616 C622 0.950 . S
H617 C623 0.950 . S
H618 C624 0.949 . S
C619 H614 0.950 . S
C619 C621 1.327 . S
C619 C625 1.429 . S
C620 C612 1.574 . S
C620 H615 0.949 . S
C620 C626 1.368 . S
C621 C605 1.349 . S
C621 H613 0.950 . S
C621 C619 1.327 . S
C622 C610 1.349 . S
C622 H616 0.950 . S
C622 C623 1.327 . S
C623 H617 0.950 . S
C623 C622 1.327 . S
C623 C627 1.429 . S
C624 C607 1.574 . S
C624 H618 0.949 . S
C624 C628 1.368 . S
C625 C606 1.429 . S
C625 C619 1.429 . S
C625 C626 1.523 . S
C626 C607 1.368 . S
C626 C620 1.368 . S
C626 C625 1.523 . S
C627 C611 1.429 . S
C627 C623 1.429 . S
C627 C628 1.523 . S
C628 C612 1.368 . S
C628 C624 1.368 . S
C628 C627 1.523 . S
H629 C604 0.950 . S
H630 C606 0.950 . S
H631 C607 0.949 . S
H632 C609 0.950 . S
H633 C611 0.950 . S
C634 C635 1.349 . S
C634 C636 1.327 . S
C634 H659 0.950 . S
C635 C634 1.349 . S
C635 C651 1.349 . S
C636 C634 1.327 . S
C636 C655 1.429 . S
C636 H660 0.950 . S
C637 C654 1.574 . S
C637 C656 1.368 . S
C637 H661 0.949 . S
H638 C642 0.949 . S
C639 C640 1.349 . S
C639 C641 1.327 . S
C639 H662 0.950 . S
C640 C639 1.349 . S
C640 C652 1.349 . S
C641 C639 1.327 . S
C641 C657 1.429 . S
C641 H663 0.950 . S
C642 H638 0.949 . S
C642 C650 1.574 . S
C642 C658 1.368 . S
H643 C651 0.950 . S
H644 C649 0.950 . S
H645 C650 0.949 . S
H646 C652 0.950 . S
H647 C653 0.950 . S
H648 C654 0.949 . S
C649 H644 0.950 . S
C649 C651 1.327 . S
C649 C655 1.429 . S
C650 C642 1.574 . S
C650 H645 0.949 . S
C650 C656 1.368 . S
C651 C635 1.349 . S
C651 H643 0.950 . S
C651 C649 1.327 . S
C652 C640 1.349 . S
C652 H646 0.950 . S
C652 C653 1.327 . S
C653 H647 0.950 . S
C653 C652 1.327 . S
C653 C657 1.429 . S
C654 C637 1.574 . S
C654 H648 0.949 . S
C654 C658 1.368 . S
C655 C636 1.429 . S
C655 C649 1.429 . S
C655 C656 1.523 . S
C656 C637 1.368 . S
C656 C650 1.368 . S
C656 C655 1.523 . S
C657 C641 1.429 . S
C657 C653 1.429 . S
C657 C658 1.523 . S
C658 C642 1.368 . S
C658 C654 1.368 . S
C658 C657 1.523 . S
H659 C634 0.950 . S
H660 C636 0.950 . S
H661 C637 0.949 . S
H662 C639 0.950 . S
H663 C641 0.950 . S
C664 C665 1.349 . S
C664 C666 1.327 . S
C664 H689 0.950 . S
C665 C664 1.349 . S
C665 C681 1.349 . S
C666 C664 1.327 . S
C666 C685 1.429 . S
C666 H690 0.950 . S
C667 C684 1.574 . S
C667 C686 1.368 . S
C667 H691 0.949 . S
H668 C672 0.949 . S
C669 C670 1.349 . S
C669 C671 1.327 . S
C669 H692 0.950 . S
C670 C669 1.349 . S
C670 C682 1.349 . S
C671 C669 1.327 . S
C671 C687 1.429 . S
C671 H693 0.950 . S
C672 H668 0.949 . S
C672 C680 1.574 . S
C672 C688 1.368 . S
H673 C681 0.950 . S
H674 C679 0.950 . S
H675 C680 0.949 . S
H676 C682 0.950 . S
H677 C683 0.950 . S
H678 C684 0.949 . S
C679 H674 0.950 . S
C679 C681 1.327 . S
C679 C685 1.429 . S
C680 C672 1.574 . S
C680 H675 0.949 . S
C680 C686 1.368 . S
C681 C665 1.349 . S
C681 H673 0.950 . S
C681 C679 1.327 . S
C682 C670 1.349 . S
C682 H676 0.950 . S
C682 C683 1.327 . S
C683 H677 0.950 . S
C683 C682 1.327 . S
C683 C687 1.429 . S
C684 C667 1.574 . S
C684 H678 0.949 . S
C684 C688 1.368 . S
C685 C666 1.429 . S
C685 C679 1.429 . S
C685 C686 1.523 . S
C686 C667 1.368 . S
C686 C680 1.368 . S
C686 C685 1.523 . S
C687 C671 1.429 . S
C687 C683 1.429 . S
C687 C688 1.523 . S
C688 C672 1.368 . S
C688 C684 1.368 . S
C688 C687 1.523 . S
H689 C664 0.950 . S
H690 C666 0.950 . S
H691 C667 0.949 . S
H692 C669 0.950 . S
H693 C671 0.950 . S
C694 C695 1.349 . S
C694 C696 1.327 . S
C694 H719 0.950 . S
C695 C694 1.349 . S
C695 C711 1.349 . S
C696 C694 1.327 . S
C696 C715 1.429 . S
C696 H720 0.950 . S
C697 C714 1.574 . S
C697 C716 1.368 . S
C697 H721 0.949 . S
H698 C702 0.949 . S
C699 C700 1.349 . S
C699 C701 1.327 . S
C699 H722 0.950 . S
C700 C699 1.349 . S
C700 C712 1.349 . S
C701 C699 1.327 . S
C701 C717 1.429 . S
C701 H723 0.950 . S
C702 H698 0.949 . S
C702 C710 1.574 . S
C702 C718 1.368 . S
H703 C711 0.950 . S
H704 C709 0.950 . S
H705 C710 0.949 . S
H706 C712 0.950 . S
H707 C713 0.950 . S
H708 C714 0.949 . S
C709 H704 0.950 . S
C709 C711 1.327 . S
C709 C715 1.429 . S
C710 C702 1.574 . S
C710 H705 0.949 . S
C710 C716 1.368 . S
C711 C695 1.349 . S
C711 H703 0.950 . S
C711 C709 1.327 . S
C712 C700 1.349 . S
C712 H706 0.950 . S
C712 C713 1.327 . S
C713 H707 0.950 . S
C713 C712 1.327 . S
C713 C717 1.429 . S
C714 C697 1.574 . S
C714 H708 0.949 . S
C714 C718 1.368 . S
C715 C696 1.429 . S
C715 C709 1.429 . S
C715 C716 1.523 . S
C716 C697 1.368 . S
C716 C710 1.368 . S
C716 C715 1.523 . S
C717 C701 1.429 . S
C717 C713 1.429 . S
C717 C718 1.523 . S
C718 C702 1.368 . S
C718 C714 1.368 . S
C718 C717 1.523 . S
H719 C694 0.950 . S
H720 C696 0.950 . S
H721 C697 0.949 . S
H722 C699 0.950 . S
H723 C701 0.950 . S
C724 C725 1.349 . S
C724 C726 1.327 . S
C724 H749 0.950 . S
C725 C724 1.349 . S
C725 C741 1.349 . S
C726 C724 1.327 . S
C726 C745 1.429 . S
C726 H750 0.950 . S
C727 C744 1.574 . S
C727 C746 1.368 . S
C727 H751 0.949 . S
H728 C732 0.949 . S
C729 C730 1.349 . S
C729 C731 1.327 . S
C729 H752 0.950 . S
C730 C729 1.349 . S
C730 C742 1.349 . S
C731 C729 1.327 . S
C731 C747 1.429 . S
C731 H753 0.950 . S
C732 H728 0.949 . S
C732 C740 1.574 . S
C732 C748 1.368 . S
H733 C741 0.950 . S
H734 C739 0.950 . S
H735 C740 0.949 . S
H736 C742 0.950 . S
H737 C743 0.950 . S
H738 C744 0.949 . S
C739 H734 0.950 . S
C739 C741 1.327 . S
C739 C745 1.429 . S
C740 C732 1.574 . S
C740 H735 0.949 . S
C740 C746 1.368 . S
C741 C725 1.349 . S
C741 H733 0.950 . S
C741 C739 1.327 . S
C742 C730 1.349 . S
C742 H736 0.950 . S
C742 C743 1.327 . S
C743 H737 0.950 . S
C743 C742 1.327 . S
C743 C747 1.429 . S
C744 C727 1.574 . S
C744 H738 0.949 . S
C744 C748 1.368 . S
C745 C726 1.429 . S
C745 C739 1.429 . S
C745 C746 1.523 . S
C746 C727 1.368 . S
C746 C740 1.368 . S
C746 C745 1.523 . S
C747 C731 1.429 . S
C747 C743 1.429 . S
C747 C748 1.523 . S
C748 C732 1.368 . S
C748 C744 1.368 . S
C748 C747 1.523 . S
H749 C724 0.950 . S
H750 C726 0.950 . S
H751 C727 0.949 . S
H752 C729 0.950 . S
H753 C731 0.950 . S
C754 C755 1.349 . S
C754 C756 1.327 . S
C754 H779 0.950 . S
C755 C754 1.349 . S
C755 C771 1.349 . S
C756 C754 1.327 . S
C756 C775 1.429 . S
C756 H780 0.950 . S
C757 C774 1.574 . S
C757 C776 1.368 . S
C757 H781 0.949 . S
H758 C762 0.949 . S
C759 C760 1.349 . S
C759 C761 1.327 . S
C759 H782 0.950 . S
C760 C759 1.349 . S
C760 C772 1.349 . S
C761 C759 1.327 . S
C761 C777 1.429 . S
C761 H783 0.950 . S
C762 H758 0.949 . S
C762 C770 1.574 . S
C762 C778 1.368 . S
H763 C771 0.950 . S
H764 C769 0.950 . S
H765 C770 0.949 . S
H766 C772 0.950 . S
H767 C773 0.950 . S
H768 C774 0.949 . S
C769 H764 0.950 . S
C769 C771 1.327 . S
C769 C775 1.429 . S
C770 C762 1.574 . S
C770 H765 0.949 . S
C770 C776 1.368 . S
C771 C755 1.349 . S
C771 H763 0.950 . S
C771 C769 1.327 . S
C772 C760 1.349 . S
C772 H766 0.950 . S
C772 C773 1.327 . S
C773 H767 0.950 . S
C773 C772 1.327 . S
C773 C777 1.429 . S
C774 C757 1.574 . S
C774 H768 0.949 . S
C774 C778 1.368 . S
C775 C756 1.429 . S
C775 C769 1.429 . S
C775 C776 1.523 . S
C776 C757 1.368 . S
C776 C770 1.368 . S
C776 C775 1.523 . S
C777 C761 1.429 . S
C777 C773 1.429 . S
C777 C778 1.523 . S
C778 C762 1.368 . S
C778 C774 1.368 . S
C778 C777 1.523 . S
H779 C754 0.950 . S
H780 C756 0.950 . S
H781 C757 0.949 . S
H782 C759 0.950 . S
H783 C761 0.950 . S
C784 C785 1.349 . S
C784 C786 1.327 . S
C784 H809 0.950 . S
C785 C784 1.349 . S
C785 C801 1.349 . S
C786 C784 1.327 . S
C786 C805 1.429 . S
C786 H810 0.950 . S
C787 C804 1.574 . S
C787 C806 1.368 . S
C787 H811 0.949 . S
H788 C792 0.949 . S
C789 C790 1.349 . S
C789 C791 1.327 . S
C789 H812 0.950 . S
C790 C789 1.349 . S
C790 C802 1.349 . S
C791 C789 1.327 . S
C791 C807 1.429 . S
C791 H813 0.950 . S
C792 H788 0.949 . S
C792 C800 1.574 . S
C792 C808 1.368 . S
H793 C801 0.950 . S
H794 C799 0.950 . S
H795 C800 0.949 . S
H796 C802 0.950 . S
H797 C803 0.950 . S
H798 C804 0.949 . S
C799 H794 0.950 . S
C799 C801 1.327 . S
C799 C805 1.429 . S
C800 C792 1.574 . S
C800 H795 0.949 . S
C800 C806 1.368 . S
C801 C785 1.349 . S
C801 H793 0.950 . S
C801 C799 1.327 . S
C802 C790 1.349 . S
C802 H796 0.950 . S
C802 C803 1.327 . S
C803 H797 0.950 . S
C803 C802 1.327 . S
C803 C807 1.429 . S
C804 C787 1.574 . S
C804 H798 0.949 . S
C804 C808 1.368 . S
C805 C786 1.429 . S
C805 C799 1.429 . S
C805 C806 1.523 . S
C806 C787 1.368 . S
C806 C800 1.368 . S
C806 C805 1.523 . S
C807 C791 1.429 . S
C807 C803 1.429 . S
C807 C808 1.523 . S
C808 C792 1.368 . S
C808 C804 1.368 . S
C808 C807 1.523 . S
H809 C784 0.950 . S
H810 C786 0.950 . S
H811 C787 0.949 . S
H812 C789 0.950 . S
H813 C791 0.950 . S
C814 C815 1.349 . S
C814 C816 1.327 . S
C814 H839 0.950 . S
C815 C814 1.349 . S
C815 C831 1.349 . S
C816 C814 1.327 . S
C816 C835 1.429 . S
C816 H840 0.950 . S
C817 C834 1.574 . S
C817 C836 1.368 . S
C817 H841 0.949 . S
H818 C822 0.949 . S
C819 C820 1.349 . S
C819 C821 1.327 . S
C819 H842 0.950 . S
C820 C819 1.349 . S
C820 C832 1.349 . S
C821 C819 1.327 . S
C821 C837 1.429 . S
C821 H843 0.950 . S
C822 H818 0.949 . S
C822 C830 1.574 . S
C822 C838 1.368 . S
H823 C831 0.950 . S
H824 C829 0.950 . S
H825 C830 0.949 . S
H826 C832 0.950 . S
H827 C833 0.950 . S
H828 C834 0.949 . S
C829 H824 0.950 . S
C829 C831 1.327 . S
C829 C835 1.429 . S
C830 C822 1.574 . S
C830 H825 0.949 . S
C830 C836 1.368 . S
C831 C815 1.349 . S
C831 H823 0.950 . S
C831 C829 1.327 . S
C832 C820 1.349 . S
C832 H826 0.950 . S
C832 C833 1.327 . S
C833 H827 0.950 . S
C833 C832 1.327 . S
C833 C837 1.429 . S
C834 C817 1.574 . S
C834 H828 0.949 . S
C834 C838 1.368 . S
C835 C816 1.429 . S
C835 C829 1.429 . S
C835 C836 1.523 . S
C836 C817 1.368 . S
C836 C830 1.368 . S
C836 C835 1.523 . S
C837 C821 1.429 . S
C837 C833 1.429 . S
C837 C838 1.523 . S
C838 C822 1.368 . S
C838 C834 1.368 . S
C838 C837 1.523 . S
H839 C814 0.950 . S
H840 C816 0.950 . S
H841 C817 0.949 . S
H842 C819 0.950 . S
H843 C821 0.950 . S
C844 C845 1.349 . S
C844 C846 1.327 . S
C844 H869 0.950 . S
C845 C844 1.349 . S
C845 C861 1.349 . S
C846 C844 1.327 . S
C846 C865 1.429 . S
C846 H870 0.950 . S
C847 C864 1.574 . S
C847 C866 1.368 . S
C847 H871 0.949 . S
H848 C852 0.949 . S
C849 C850 1.349 . S
C849 C851 1.327 . S
C849 H872 0.950 . S
C850 C849 1.349 . S
C850 C862 1.349 . S
C851 C849 1.327 . S
C851 C867 1.429 . S
C851 H873 0.950 . S
C852 H848 0.949 . S
C852 C860 1.574 . S
C852 C868 1.368 . S
H853 C861 0.950 . S
H854 C859 0.950 . S
H855 C860 0.949 . S
H856 C862 0.950 . S
H857 C863 0.950 . S
H858 C864 0.949 . S
C859 H854 0.950 . S
C859 C861 1.327 . S
C859 C865 1.429 . S
C860 C852 1.574 . S
C860 H855 0.949 . S
C860 C866 1.368 . S
C861 C845 1.349 . S
C861 H853 0.950 . S
C861 C859 1.327 . S
C862 C850 1.349 . S
C862 H856 0.950 . S
C862 C863 1.327 . S
C863 H857 0.950 . S
C863 C862 1.327 . S
C863 C867 1.429 . S
C864 C847 1.574 . S
C864 H858 0.949 . S
C864 C868 1.368 . S
C865 C846 1.429 . S
C865 C859 1.429 . S
C865 C866 1.523 . S
C866 C847 1.368 . S
C866 C860 1.368 . S
C866 C865 1.523 . S
C867 C851 1.429 . S
C867 C863 1.429 . S
C867 C868 1.523 . S
C868 C852 1.368 . S
C868 C864 1.368 . S
C868 C867 1.523 . S
H869 C844 0.950 . S
H870 C846 0.950 . S
H871 C847 0.949 . S
H872 C849 0.950 . S
H873 C851 0.950 . S
C874 C875 1.349 . S
C874 C876 1.327 . S
C874 H899 0.950 . S
C875 C874 1.349 . S
C875 C891 1.349 . S
C876 C874 1.327 . S
C876 C895 1.429 . S
C876 H900 0.950 . S
C877 C894 1.574 . S
C877 C896 1.368 . S
C877 H901 0.949 . S
H878 C882 0.949 . S
C879 C880 1.349 . S
C879 C881 1.327 . S
C879 H902 0.950 . S
C880 C879 1.349 . S
C880 C892 1.349 . S
C881 C879 1.327 . S
C881 C897 1.429 . S
C881 H903 0.950 . S
C882 H878 0.949 . S
C882 C890 1.574 . S
C882 C898 1.368 . S
H883 C891 0.950 . S
H884 C889 0.950 . S
H885 C890 0.949 . S
H886 C892 0.950 . S
H887 C893 0.950 . S
H888 C894 0.949 . S
C889 H884 0.950 . S
C889 C891 1.327 . S
C889 C895 1.429 . S
C890 C882 1.574 . S
C890 H885 0.949 . S
C890 C896 1.368 . S
C891 C875 1.349 . S
C891 H883 0.950 . S
C891 C889 1.327 . S
C892 C880 1.349 . S
C892 H886 0.950 . S
C892 C893 1.327 . S
C893 H887 0.950 . S
C893 C892 1.327 . S
C893 C897 1.429 . S
C894 C877 1.574 . S
C894 H888 0.949 . S
C894 C898 1.368 . S
C895 C876 1.429 . S
C895 C889 1.429 . S
C895 C896 1.523 . S
C896 C877 1.368 . S
C896 C890 1.368 . S
C896 C895 1.523 . S
C897 C881 1.429 . S
C897 C893 1.429 . S
C897 C898 1.523 1_545 S
C898 C882 1.368 . S
C898 C894 1.368 . S
C898 C897 1.523 1_565 S
H899 C874 0.950 . S
H900 C876 0.950 . S
H901 C877 0.949 . S
H902 C879 0.950 . S
H903 C881 0.950 . S
C904 C905 1.349 . S
C904 C906 1.327 . S
C904 H929 0.950 . S
C905 C904 1.349 . S
C905 C921 1.349 . S
C906 C904 1.327 . S
C906 C925 1.429 . S
C906 H930 0.950 . S
C907 C924 1.574 . S
C907 C926 1.368 . S
C907 H931 0.949 . S
H908 C912 0.949 . S
C909 C910 1.349 . S
C909 C911 1.327 . S
C909 H932 0.950 . S
C910 C909 1.349 . S
C910 C922 1.349 . S
C911 C909 1.327 . S
C911 C927 1.429 . S
C911 H933 0.950 . S
C912 H908 0.949 . S
C912 C920 1.574 . S
C912 C928 1.368 . S
H913 C921 0.950 . S
H914 C919 0.950 . S
H915 C920 0.949 . S
H916 C922 0.950 . S
H917 C923 0.950 . S
H918 C924 0.949 . S
C919 H914 0.950 . S
C919 C921 1.327 . S
C919 C925 1.429 . S
C920 C912 1.574 . S
C920 H915 0.949 . S
C920 C926 1.368 . S
C921 C905 1.349 . S
C921 H913 0.950 . S
C921 C919 1.327 . S
C922 C910 1.349 . S
C922 H916 0.950 . S
C922 C923 1.327 . S
C923 H917 0.950 . S
C923 C922 1.327 . S
C923 C927 1.429 . S
C924 C907 1.574 . S
C924 H918 0.949 . S
C924 C928 1.368 . S
C925 C906 1.429 . S
C925 C919 1.429 . S
C925 C926 1.523 . S
C926 C907 1.368 . S
C926 C920 1.368 . S
C926 C925 1.523 . S
C927 C911 1.429 . S
C927 C923 1.429 . S
C927 C928 1.523 . S
C928 C912 1.368 . S
C928 C924 1.368 . S
C928 C927 1.523 . S
H929 C904 0.950 . S
H930 C906 0.950 . S
H931 C907 0.949 . S
H932 C909 0.950 . S
H933 C911 0.950 . S
C220 C105 1.831 . S
C215 C5 1.805 . S
C250 C118 1.394 . S
C245 C16 1.307 . S
C280 C100 1.691 . S
C275 C30 1.767 . S
C310 C128 1.638 . S
C305 C40 1.698 . S
C340 C139 1.406 . S
C335 C8 1.481 . S
C370 C160 1.294 . S
C365 C18 1.360 . S
C395 C29 1.723 . S
C400 C189 1.651 . S
C430 C210 1.689 . S
C425 C38 1.529 . S
C460 C149 1.339 . S
C455 C19 1.378 . S
C485 C27 1.417 . S
C490 C170 1.484 . S
C520 C184 1.516 . S
C515 C41 1.618 . S
C550 C205 1.862 . S
C545 C7 1.853 . S
C575 C52 1.662 . S
C580 C126 1.534 . S
C610 C97 1.910 . S
C605 C62 1.944 . S
C635 C74 1.612 . S
C640 C121 1.420 . S
C665 C82 1.306 . S
C670 C107 1.534 . S
C700 C191 1.785 . S
C695 C51 1.767 . S
C730 C212 1.947 . S
C725 C60 1.749 . S
C760 C142 1.365 . S
C755 C71 1.319 . S
C785 C84 1.491 . S
C790 C163 1.415 . S
C820 C181 1.694 . S
C815 C63 1.773 . S
C850 C202 1.618 . S
C845 C73 1.651 . S
C880 C147 1.472 . S
C875 C85 1.536 . S
C905 C49 1.345 . S
C910 C168 1.475 . S
