# Generated by pormake.
# Topology pth, (4,4)-cn, num edge types: 1
# Building blocks:
#     Node 0, Type 0, BuildingBlock: UXUYUI_clean_sbu_0, # of connection points: 4
#     Node 1, Type 0, BuildingBlock: UXUYUI_clean_sbu_0, # of connection points: 4
#     Node 2, Type 0, BuildingBlock: UXUYUI_clean_sbu_0, # of connection points: 4
#     Node 3, Type 1, BuildingBlock: MUDLON_clean_linker_0, # of connection points: 4
#     Node 4, Type 1, BuildingBlock: MUDLON_clean_linker_0, # of connection points: 4
#     Node 5, Type 1, BuildingBlock: MUDLON_clean_linker_0, # of connection points: 4
#     Edge 6, Type (0, 1), BuildingBlock: EZIPEK_clean_linker_0, # of connection points: 2
#     Edge 7, Type (0, 1), BuildingBlock: EZIPEK_clean_linker_0, # of connection points: 2
#     Edge 8, Type (0, 1), BuildingBlock: EZIPEK_clean_linker_0, # of connection points: 2
#     Edge 9, Type (0, 1), BuildingBlock: EZIPEK_clean_linker_0, # of connection points: 2
#     Edge 10, Type (0, 1), BuildingBlock: EZIPEK_clean_linker_0, # of connection points: 2
#     Edge 11, Type (0, 1), BuildingBlock: EZIPEK_clean_linker_0, # of connection points: 2
#     Edge 12, Type (0, 1), BuildingBlock: EZIPEK_clean_linker_0, # of connection points: 2
#     Edge 13, Type (0, 1), BuildingBlock: EZIPEK_clean_linker_0, # of connection points: 2
#     Edge 14, Type (0, 1), BuildingBlock: EZIPEK_clean_linker_0, # of connection points: 2
#     Edge 15, Type (0, 1), BuildingBlock: EZIPEK_clean_linker_0, # of connection points: 2
#     Edge 16, Type (0, 1), BuildingBlock: EZIPEK_clean_linker_0, # of connection points: 2
#     Edge 17, Type (0, 1), BuildingBlock: EZIPEK_clean_linker_0, # of connection points: 2
# Relax obj value: 0.089
# Max RMSD: 0.213
# Mean RMSD: 0.143
data_MOF--net-pth--node1-UXUYUI_clean_sbu_0--node2-MUDLON_clean_linker_0--edge1-EZIPEK_clean_linker_0
_symmetry_space_group_name_H-M    P1
_symmetry_Int_Tables_number       1
_symmetry_cell_setting            triclinic
loop_
_symmetry_equiv_pos_as_xyz
'x, y, z'
_cell_length_a     32.717226
_cell_length_b     32.71057
_cell_length_c     65.805938
_cell_angle_alpha  89.967355
_cell_angle_beta   90.040617
_cell_angle_gamma 120.01035
loop_
_atom_site_label
_atom_site_type_symbol
_atom_site_fract_x
_atom_site_fract_y
_atom_site_fract_z
_atom_type_partial_charge
Li0 Li 0.04748 0.02901 0.02926 0.0
Li1 Li 0.99587 0.02796 0.05885 0.0
Li2 Li 0.01784 0.96663 0.05504 0.0
Li3 Li 0.96409 0.96928 0.03169 0.0
C4 C 0.09646 0.03337 0.06905 0.0
N5 N 0.16463 0.02273 0.08924 0.0
C6 C 0.10076 0.03843 0.09016 0.0
C7 C 0.12692 0.02305 0.0582 0.0
C8 C 0.13543 0.03286 0.10009 0.0
C9 C 0.16115 0.01781 0.06869 0.0
C10 C 0.95973 0.04193 0.01691 0.0
C11 C 0.88097 0.02791 0.0109 0.0
N12 N 0.89339 0.04406 0.99156 0.0
C13 C 0.97183 0.05884 0.99704 0.0
C14 C 0.91407 0.0268 0.02397 0.0
C15 C 0.93777 0.05951 0.98444 0.0
C16 C 0.08846 0.06374 0.99121 0.0
N17 N 0.09681 0.06966 0.01152 0.0
C18 C 0.17071 0.14002 0.00595 0.0
C19 C 0.13728 0.10632 0.01908 0.0
C20 C 0.16141 0.13649 0.985 0.0
C21 C 0.12028 0.09725 0.97758 0.0
H22 H 0.05598 0.0341 0.98568 0.0
H23 H 0.1428 0.11032 0.03533 0.0
C24 C 0.99198 0.06193 0.09751 0.0
N25 N 0.98605 0.06653 0.07737 0.0
C26 C 0.9876 0.09136 0.11161 0.0
C27 C 0.96887 0.12819 0.08404 0.0
C28 C 0.97458 0.09867 0.07042 0.0
C29 C 0.97605 0.12504 0.10487 0.0
H30 H 1.00038 0.03555 0.10258 0.0
H31 H 0.9702 0.10163 0.0543 0.0
C32 C 0.00645 0.91629 0.01867 0.0
N33 N 0.98177 0.82651 0.00575 0.0
C34 C 0.96686 0.87704 0.02681 0.0
C35 C 0.03347 0.90996 0.00392 0.0
C36 C 0.95494 0.83192 0.02009 0.0
C37 C 0.02045 0.86426 0.9976 0.0
C38 C 0.91365 0.93267 0.07054 0.0
C39 C 0.89801 0.88537 0.07522 0.0
C40 C 0.88573 0.95232 0.07579 0.0
C41 C 0.85424 0.8583 0.08464 0.0
C42 C 0.84218 0.92407 0.08521 0.0
N43 N 0.82743 0.87802 0.08937 0.0
C44 C 0.01226 0.91853 0.09035 0.0
C45 C 0.05182 0.90218 0.06416 0.0
C46 C 0.01375 0.88512 0.10296 0.0
N47 N 0.02996 0.92548 0.07119 0.0
C48 C 0.05457 0.86864 0.07641 0.0
C49 C 0.03415 0.85907 0.09584 0.0
H50 H 0.99563 0.93803 0.09559 0.0
H51 H 0.06614 0.90881 0.04894 0.0
C52 C 0.92115 0.93652 0.99415 0.0
N53 N 0.91119 0.93148 0.01437 0.0
C54 C 0.88651 0.90883 0.98 0.0
C55 C 0.83191 0.87051 0.0077 0.0
C56 C 0.86743 0.89959 0.02131 0.0
C57 C 0.84149 0.87493 0.9868 0.0
H58 H 0.9564 0.96168 0.98906 0.0
H59 H 0.86009 0.89587 0.03736 0.0
O60 O 0.06159 0.03676 0.05907 0.0
O61 O 0.9922 0.03976 0.02933 0.0
O62 O 0.01881 0.96085 0.02496 0.0
O63 O 0.95664 0.95992 0.06148 0.0
H64 H 0.07745 0.04628 0.0988 0.0
H65 H 0.12362 0.01838 0.04188 0.0
H66 H 0.13904 0.03647 0.11643 0.0
H67 H 0.18477 0.00955 0.0605 0.0
H68 H 0.84538 0.01583 0.01612 0.0
H69 H 0.00709 0.07132 0.99137 0.0
H70 H 0.90409 0.01369 0.03927 0.0
H71 H 0.94662 0.07228 0.969 0.0
H72 H 0.20227 0.16982 0.01211 0.0
H73 H 0.11219 0.09344 0.96149 0.0
H74 H 0.99304 0.08788 0.12762 0.0
H75 H 0.95967 0.15368 0.0784 0.0
H76 H 0.94547 0.88142 0.0381 0.0
H77 H 0.06421 0.94008 0.99745 0.0
H78 H 0.92433 0.80123 0.02627 0.0
H79 H 0.04107 0.8588 0.98621 0.0
H80 H 0.91937 0.86962 0.07168 0.0
H81 H 0.89757 0.98904 0.07278 0.0
H82 H 0.84165 0.82163 0.08824 0.0
H83 H 0.82018 0.93882 0.08928 0.0
H84 H 0.99808 0.87878 0.11796 0.0
H85 H 0.07097 0.84931 0.07061 0.0
H86 H 0.895 0.91294 0.96396 0.0
H87 H 0.7975 0.8445 0.01338 0.0
Li88 Li 0.9903 0.94871 0.36332 0.0
Li89 Li 0.04298 0.99907 0.39032 0.0
Li90 Li 0.9632 0.98192 0.38963 0.0
Li91 Li 0.01874 0.03684 0.36504 0.0
C92 C 0.96178 0.90944 0.40922 0.0
N93 N 0.91173 0.85687 0.44259 0.0
C94 C 0.9834 0.91825 0.42831 0.0
C95 C 0.91482 0.87354 0.4071 0.0
C96 C 0.95748 0.89136 0.44499 0.0
C97 C 0.89007 0.84749 0.42416 0.0
C98 C 0.10159 0.01714 0.36013 0.0
C99 C 0.18351 0.07579 0.36467 0.0
N100 N 0.19559 0.0421 0.3615 0.0
C101 C 0.11476 0.98311 0.3568 0.0
C102 C 0.13614 0.0639 0.36398 0.0
C103 C 0.16251 0.99644 0.35759 0.0
C104 C 0.99647 0.91279 0.32598 0.0
N105 N 0.9786 0.89947 0.34501 0.0
C106 C 0.9501 0.81833 0.33709 0.0
C107 C 0.95584 0.8534 0.35084 0.0
C108 C 0.96872 0.83128 0.31742 0.0
C109 C 0.99202 0.87905 0.31185 0.0
H110 H 0.01478 0.9498 0.32191 0.0
H111 H 0.9425 0.84398 0.36617 0.0
C112 C 0.11931 0.04685 0.41787 0.0
N113 N 0.09398 0.00677 0.40682 0.0
C114 C 0.15474 0.05101 0.431 0.0
C115 C 0.13807 0.97313 0.42068 0.0
C116 C 0.10289 0.97041 0.40781 0.0
C117 C 0.16389 0.01358 0.4326 0.0
H118 H 0.1114 0.07514 0.41672 0.0
H119 H 0.08188 0.93889 0.3989 0.0
C120 C 0.90977 0.96106 0.35216 0.0
N121 N 0.81919 0.91777 0.33659 0.0
C122 C 0.89243 0.9881 0.34316 0.0
C123 C 0.88115 0.91202 0.35311 0.0
C124 C 0.8465 0.96555 0.33542 0.0
C125 C 0.83543 0.89079 0.34519 0.0
C126 C 0.00769 0.07687 0.40005 0.0
C127 C 0.97273 0.07956 0.38888 0.0
C128 C 0.02849 0.10686 0.41666 0.0
C129 C 0.9595 0.11254 0.39439 0.0
C130 C 0.01424 0.13934 0.42172 0.0
N131 N 0.98037 0.14151 0.41056 0.0
C132 C 0.92388 0.98069 0.42726 0.0
C133 C 0.87235 0.97199 0.40019 0.0
C134 C 0.8939 0.98433 0.44125 0.0
N135 N 0.91287 0.9747 0.40714 0.0
C136 C 0.84195 0.97684 0.41361 0.0
C137 C 0.85309 0.9838 0.43436 0.0
H138 H 0.95732 0.98529 0.43233 0.0
H139 H 0.86464 0.96875 0.38419 0.0
C140 C 0.01243 0.07853 0.32967 0.0
N141 N 0.03313 0.08965 0.34828 0.0
C142 C 0.01391 0.11361 0.31717 0.0
C143 C 0.06064 0.17162 0.34268 0.0
C144 C 0.05803 0.1352 0.3548 0.0
C145 C 0.0372 0.16051 0.32389 0.0
H146 H 0.99311 0.04202 0.32489 0.0
H147 H 0.07422 0.14302 0.36969 0.0
O148 O 0.98654 0.93554 0.3927 0.0
O149 O 0.05499 0.00453 0.36011 0.0
O150 O 0.9547 0.98256 0.35977 0.0
O151 O 0.02074 0.04427 0.39521 0.0
H152 H 0.01955 0.946 0.43035 0.0
H153 H 0.89749 0.86598 0.39249 0.0
H154 H 0.9737 0.89805 0.45986 0.0
H155 H 0.85363 0.8198 0.42274 0.0
H156 H 0.21064 0.11177 0.36778 0.0
H157 H 0.08831 0.94672 0.35389 0.0
H158 H 0.12635 0.09054 0.36668 0.0
H159 H 0.17326 0.97047 0.35518 0.0
H160 H 0.93189 0.78167 0.34177 0.0
H161 H 0.0067 0.89002 0.29676 0.0
H162 H 0.17415 0.08256 0.44012 0.0
H163 H 0.1443 0.94365 0.42174 0.0
H164 H 0.914 0.02612 0.34231 0.0
H165 H 0.89406 0.89058 0.35986 0.0
H166 H 0.83256 0.98604 0.3285 0.0
H167 H 0.81289 0.85286 0.34587 0.0
H168 H 0.95587 0.05643 0.37611 0.0
H169 H 0.05524 0.10493 0.42561 0.0
H170 H 0.93258 0.11502 0.38584 0.0
H171 H 0.03004 0.16275 0.43454 0.0
H172 H 0.90383 0.9903 0.45714 0.0
H173 H 0.81099 0.97689 0.40779 0.0
H174 H 0.99576 0.10409 0.30267 0.0
H175 H 0.07912 0.20765 0.34817 0.0
Li176 Li 0.04425 0.98704 0.70027 0.0
Li177 Li 0.04329 0.04081 0.72578 0.0
Li178 Li 0.98699 0.95563 0.72715 0.0
Li179 Li 0.98068 0.00559 0.7009 0.0
C180 C 0.06461 0.96694 0.74557 0.0
N181 N 0.0769 0.92153 0.7784 0.0
C182 C 0.08031 0.99037 0.76416 0.0
C183 C 0.0555 0.92059 0.74362 0.0
C184 C 0.08625 0.96676 0.78059 0.0
C185 C 0.06179 0.89818 0.76042 0.0
C186 C 0.08332 0.09434 0.69401 0.0
C187 C 0.11116 0.17789 0.69566 0.0
N188 N 0.15599 0.18698 0.6924 0.0
C189 C 0.12968 0.10452 0.69067 0.0
C190 C 0.07393 0.13131 0.69648 0.0
C191 C 0.16591 0.15158 0.68988 0.0
C192 C 0.08836 0.9965 0.66321 0.0
N193 N 0.08413 0.978 0.68211 0.0
C194 C 0.14237 0.95657 0.67449 0.0
C195 C 0.10982 0.95772 0.68791 0.0
C196 C 0.14864 0.97715 0.65519 0.0
C197 C 0.12068 0.99653 0.64944 0.0
H198 H 0.06765 0.01267 0.6591 0.0
H199 H 0.106 0.94365 0.7031 0.0
C200 C 0.06104 0.11671 0.75176 0.0
N201 N 0.0817 0.09637 0.7412 0.0
C202 C 0.08858 0.15918 0.76205 0.0
C203 C 0.15809 0.15771 0.75136 0.0
C204 C 0.1292 0.115 0.74144 0.0
C205 C 0.1385 0.18297 0.76075 0.0
H206 H 0.02301 0.09974 0.75236 0.0
H207 H 0.1447 0.09669 0.73385 0.0
C208 C 0.9745 0.91598 0.68205 0.0
N209 N 0.97795 0.86461 0.64948 0.0
C210 C 0.9681 0.92746 0.6623 0.0
C211 C 0.98226 0.87819 0.68529 0.0
C212 C 0.97004 0.90108 0.64602 0.0
C213 C 0.98401 0.85271 0.66861 0.0
C214 C 0.93578 0.01335 0.73246 0.0
C215 C 0.8929 0.975 0.73878 0.0
C216 C 0.93791 0.05576 0.72715 0.0
C217 C 0.85273 0.97962 0.73952 0.0
C218 C 0.89691 0.05891 0.72801 0.0
N219 N 0.85552 0.02109 0.73413 0.0
C220 C 0.95416 0.91185 0.76527 0.0
C221 C 0.91227 0.86467 0.7369 0.0
C222 C 0.92091 0.87877 0.77858 0.0
N223 N 0.94901 0.90451 0.74486 0.0
C224 C 0.87752 0.83112 0.74966 0.0
C225 C 0.88119 0.83873 0.77072 0.0
H226 H 0.98247 0.94467 0.77116 0.0
H227 H 0.90833 0.86042 0.72059 0.0
C228 C 0.95401 0.04964 0.67082 0.0
N229 N 0.93742 0.01306 0.68417 0.0
C230 C 0.92306 0.05406 0.6576 0.0
C231 C 0.85852 0.98322 0.67219 0.0
C232 C 0.89078 0.97996 0.68503 0.0
C233 C 0.87487 0.02044 0.65821 0.0
H234 H 0.99136 0.07478 0.67013 0.0
H235 H 0.8788 0.95065 0.69548 0.0
O236 O 0.05843 0.9894 0.72934 0.0
O237 O 0.04748 0.04848 0.69534 0.0
O238 O 0.97412 0.94222 0.69813 0.0
O239 O 0.97538 0.00931 0.73132 0.0
H240 H 0.0875 0.02624 0.76593 0.0
H241 H 0.04324 0.90196 0.72935 0.0
H242 H 0.09819 0.98436 0.79509 0.0
H243 H 0.0546 0.8622 0.75917 0.0
H244 H 0.10443 0.20682 0.69767 0.0
H245 H 0.13782 0.07646 0.68904 0.0
H246 H 0.03837 0.12412 0.69926 0.0
H247 H 0.20197 0.15995 0.68741 0.0
H248 H 0.16349 0.94126 0.67929 0.0
H249 H 0.12472 0.01259 0.63462 0.0
H250 H 0.06968 0.17146 0.77119 0.0
H251 H 0.19541 0.16981 0.75182 0.0
H252 H 0.96224 0.95675 0.65954 0.0
H253 H 0.98723 0.86889 0.7005 0.0
H254 H 0.96543 0.90971 0.63063 0.0
H255 H 0.99027 0.82353 0.67086 0.0
H256 H 0.89051 0.94192 0.74296 0.0
H257 H 0.97074 0.08573 0.72216 0.0
H258 H 0.8193 0.95017 0.74432 0.0
H259 H 0.89796 0.09138 0.72378 0.0
H260 H 0.92437 0.88588 0.79475 0.0
H261 H 0.84696 0.80085 0.74315 0.0
H262 H 0.93659 0.08288 0.64679 0.0
H263 H 0.8215 0.95654 0.6728 0.0
H264 H 0.02798 0.69237 0.21974 0.0
N265 N 0.94756 0.6188 0.2038 0.0
H266 H 0.03207 0.74094 0.24894 0.0
H267 H 0.87874 0.60184 0.22977 0.0
H268 H 0.88304 0.64967 0.25941 0.0
H269 H 0.03435 0.65618 0.18545 0.0
H270 H 0.06266 0.71239 0.15696 0.0
H271 H 0.89881 0.64793 0.18216 0.0
H272 H 0.92733 0.70476 0.154 0.0
H273 H 0.88284 0.53271 0.19269 0.0
H274 H 0.02307 0.61209 0.21756 0.0
H275 H 0.88591 0.45979 0.19596 0.0
H276 H 0.02649 0.5391 0.22106 0.0
H277 H 0.89997 0.23671 0.23868 0.0
H278 H 0.92849 0.20822 0.26679 0.0
H279 H 0.06247 0.33769 0.26513 0.0
H280 H 0.03413 0.36594 0.23679 0.0
H281 H 0.02953 0.31882 0.20391 0.0
H282 H 0.03531 0.27445 0.17517 0.0
H283 H 0.89021 0.22665 0.15957 0.0
H284 H 0.88371 0.26917 0.18909 0.0
H285 H 0.88329 0.33602 0.22826 0.0
H286 H 0.88584 0.41174 0.2249 0.0
H287 H 0.02692 0.47404 0.20032 0.0
N288 N 0.94865 0.31533 0.21745 0.0
H289 H 0.024 0.39782 0.20389 0.0
C290 C 0.95275 0.64381 0.22249 0.0
C291 C 0.99631 0.68245 0.22842 0.0
C292 C 0.99867 0.7101 0.24507 0.0
C293 C 0.95776 0.69903 0.25616 0.0
C294 C 0.9149 0.6588 0.25096 0.0
C295 C 0.91245 0.63158 0.23416 0.0
C296 C 0.96417 0.64762 0.1858 0.0
C297 C 0.01047 0.66581 0.17844 0.0
C298 C 0.02671 0.69801 0.16227 0.0
C299 C 0.99714 0.71292 0.15356 0.0
C300 C 0.95066 0.69376 0.16058 0.0
C301 C 0.93437 0.66135 0.17653 0.0
C302 C 0.95247 0.57754 0.20489 0.0
C303 C 0.91438 0.53428 0.19874 0.0
C304 C 0.91614 0.49274 0.20076 0.0
C305 C 0.95627 0.49365 0.20898 0.0
C306 C 0.99518 0.53735 0.21461 0.0
C307 C 0.99325 0.57903 0.21266 0.0
C308 C 0.96465 0.30333 0.23571 0.0
C309 C 0.93515 0.25927 0.24464 0.0
C310 C 0.95144 0.24304 0.26055 0.0
C311 C 0.99763 0.27076 0.26786 0.0
C312 C 0.02674 0.31585 0.2596 0.0
C313 C 0.01046 0.33199 0.24353 0.0
C314 C 0.95569 0.29636 0.19888 0.0
C315 C 0.99899 0.29906 0.19431 0.0
C316 C 0.00238 0.27388 0.17787 0.0
C317 C 0.963 0.2468 0.16543 0.0
C318 C 0.92083 0.24701 0.16911 0.0
C319 C 0.91715 0.27127 0.18584 0.0
C320 C 0.95322 0.36135 0.21632 0.0
C321 C 0.91483 0.36616 0.22229 0.0
C322 C 0.91629 0.4093 0.22023 0.0
C323 C 0.95641 0.44874 0.21214 0.0
C324 C 0.99561 0.44432 0.20667 0.0
C325 C 0.99398 0.40085 0.20867 0.0
H326 H 0.78233 0.12592 0.56099 0.0
N327 N 0.69832 0.06647 0.54535 0.0
H328 H 0.82045 0.11265 0.59047 0.0
H329 H 0.65695 0.99164 0.57156 0.0
H330 H 0.69526 0.97814 0.601 0.0
H331 H 0.69575 0.98191 0.53962 0.0
H332 H 0.73031 0.962 0.51113 0.0
H333 H 0.7293 0.1132 0.51043 0.0
H334 H 0.76112 0.09156 0.48109 0.0
H335 H 0.67245 0.12062 0.56498 0.0
H336 H 0.61683 0.99493 0.52821 0.0
H337 H 0.59473 0.11327 0.56623 0.0
H338 H 0.53992 0.98955 0.52779 0.0
H339 H 0.3627 0.10481 0.56589 0.0
H340 H 0.30663 0.08276 0.59421 0.0
H341 H 0.28324 0.94085 0.59245 0.0
H342 H 0.33799 0.96247 0.5638 0.0
H343 H 0.32344 0.9645 0.52676 0.0
H344 H 0.27192 0.95333 0.49753 0.0
H345 H 0.33535 0.10429 0.49152 0.0
H346 H 0.38659 0.11533 0.52082 0.0
H347 H 0.46877 0.1236 0.54673 0.0
H348 H 0.54438 0.12601 0.5468 0.0
H349 H 0.47111 0.9733 0.54413 0.0
N350 N 0.38342 0.04863 0.54478 0.0
H351 H 0.39608 0.97207 0.54218 0.0
C352 C 0.71704 0.0599 0.56413 0.0
C353 C 0.76284 0.09406 0.56991 0.0
C354 C 0.78447 0.08649 0.58664 0.0
C355 C 0.76055 0.04447 0.59779 0.0
C356 C 0.71404 0.01084 0.59255 0.0
C357 C 0.69228 0.01856 0.57583 0.0
C358 C 0.71134 0.05002 0.52745 0.0
C359 C 0.70998 0.00628 0.52702 0.0
C360 C 0.72937 0.99463 0.51066 0.0
C361 C 0.74887 0.02561 0.49414 0.0
C362 C 0.74667 0.06742 0.4938 0.0
C363 C 0.72854 0.07973 0.51046 0.0
C364 C 0.65094 0.05901 0.5463 0.0
C365 C 0.64343 0.09162 0.55703 0.0
C366 C 0.59895 0.08761 0.55748 0.0
C367 C 0.5608 0.05139 0.54671 0.0
C368 C 0.56807 0.01779 0.53639 0.0
C369 C 0.61247 0.02115 0.53641 0.0
C370 C 0.35502 0.03565 0.56288 0.0
C371 C 0.34598 0.06917 0.57183 0.0
C372 C 0.31401 0.05657 0.58787 0.0
C373 C 0.29074 0.01015 0.59531 0.0
C374 C 0.30089 0.97682 0.58686 0.0
C375 C 0.33243 0.98932 0.57059 0.0
C376 C 0.3587 0.04086 0.52588 0.0
C377 C 0.327 0.99513 0.51887 0.0
C378 C 0.29767 0.98877 0.50225 0.0
C379 C 0.29994 0.02805 0.4925 0.0
C380 C 0.33332 0.07366 0.49886 0.0
C381 C 0.36247 0.07995 0.51546 0.0
C382 C 0.42693 0.04784 0.54493 0.0
C383 C 0.46928 0.09077 0.54613 0.0
C384 C 0.51247 0.09189 0.5464 0.0
C385 C 0.51431 0.04976 0.5459 0.0
C386 C 0.47147 0.00656 0.54445 0.0
C387 C 0.42823 0.00565 0.54369 0.0
H388 H 0.66383 0.775 0.8809 0.0
N389 N 0.62672 0.68359 0.87332 0.0
H390 H 0.71332 0.81948 0.90992 0.0
H391 H 0.64391 0.6456 0.90737 0.0
H392 H 0.69159 0.68977 0.93673 0.0
H393 H 0.70711 0.67732 0.87306 0.0
H394 H 0.76789 0.70923 0.8465 0.0
H395 H 0.61653 0.70672 0.83571 0.0
H396 H 0.67628 0.73632 0.80869 0.0
H397 H 0.53969 0.66908 0.87381 0.0
H398 H 0.61883 0.59642 0.87558 0.0
H399 H 0.46596 0.59385 0.87544 0.0
H400 H 0.54506 0.52042 0.87812 0.0
H401 H 0.23283 0.3424 0.89316 0.0
H402 H 0.20044 0.28333 0.92038 0.0
H403 H 0.33444 0.28874 0.92604 0.0
H404 H 0.36621 0.34644 0.89807 0.0
H405 H 0.31219 0.30064 0.86152 0.0
H406 H 0.27146 0.26027 0.83011 0.0
H407 H 0.24843 0.3758 0.81563 0.0
H408 H 0.28694 0.41498 0.8476 0.0
H409 H 0.3424 0.46021 0.89705 0.0
H410 H 0.41942 0.53213 0.89798 0.0
H411 H 0.4763 0.46557 0.85941 0.0
N412 N 0.31814 0.38134 0.87682 0.0
H413 H 0.39934 0.39282 0.85955 0.0
C414 C 0.64975 0.70705 0.89197 0.0
C415 C 0.66914 0.75612 0.8932 0.0
C416 C 0.69738 0.78141 0.90967 0.0
C417 C 0.70615 0.75789 0.92542 0.0
C418 C 0.68517 0.7085 0.9247 0.0
C419 C 0.65771 0.68327 0.90797 0.0
C420 C 0.65772 0.69079 0.85647 0.0
C421 C 0.69971 0.68928 0.85893 0.0
C422 C 0.73431 0.7073 0.84376 0.0
C423 C 0.72673 0.72565 0.82577 0.0
C424 C 0.68283 0.72253 0.82252 0.0
C425 C 0.64879 0.70563 0.83786 0.0
C426 C 0.58442 0.63825 0.87473 0.0
C427 C 0.54094 0.63667 0.8748 0.0
C428 C 0.4989 0.59358 0.87589 0.0
C429 C 0.49939 0.55086 0.87718 0.0
C430 C 0.54327 0.55251 0.87702 0.0
C431 C 0.58547 0.59587 0.87573 0.0
C432 C 0.30188 0.34917 0.89379 0.0
C433 C 0.25523 0.33097 0.90034 0.0
C434 C 0.23682 0.29729 0.91576 0.0
C435 C 0.26504 0.28164 0.92516 0.0
C436 C 0.31213 0.30033 0.9189 0.0
C437 C 0.3303 0.33343 0.90309 0.0
C438 C 0.30157 0.36042 0.85707 0.0
C439 C 0.29861 0.31742 0.85157 0.0
C440 C 0.27551 0.29444 0.83365 0.0
C441 C 0.25635 0.31478 0.82077 0.0
C442 C 0.26258 0.35938 0.82551 0.0
C443 C 0.28457 0.38173 0.84364 0.0
C444 C 0.36502 0.42168 0.87801 0.0
C445 C 0.37172 0.46114 0.889 0.0
C446 C 0.41569 0.5023 0.88933 0.0
C447 C 0.45402 0.50515 0.87841 0.0
C448 C 0.44771 0.46471 0.86804 0.0
C449 C 0.40364 0.42318 0.86794 0.0
C450 C 0.93581 0.13714 0.13484 0.0
C451 C 0.97138 0.15675 0.11972 0.0
C452 C 0.99639 0.23612 0.13268 0.0
C453 C 0.96512 0.21593 0.14936 0.0
N454 N 0.91211 0.14616 0.16854 0.0
N455 N 0.04147 0.22446 0.1065 0.0
C456 C 0.93666 0.16609 0.15107 0.0
C457 C 0.00332 0.2062 0.1192 0.0
N458 N 0.90041 0.09118 0.13345 0.0
N459 N 0.01852 0.28372 0.12939 0.0
H460 H 0.04858 0.20369 0.09674 0.0
H461 H 0.06845 0.25957 0.10704 0.0
H462 H 0.01364 0.30666 0.13875 0.0
H463 H 0.038 0.29974 0.11633 0.0
H464 H 0.87105 0.07653 0.14298 0.0
H465 H 0.89789 0.06907 0.1215 0.0
H466 H 0.89477 0.10994 0.17129 0.0
H467 H 0.91299 0.16588 0.18115 0.0
C468 C 0.7771 0.96145 0.45293 0.0
C469 C 0.82489 0.99511 0.44865 0.0
C470 C 0.82358 0.04709 0.47504 0.0
C471 C 0.77454 0.01573 0.47794 0.0
N472 N 0.70242 0.94798 0.46638 0.0
N473 N 0.88919 0.07542 0.45172 0.0
C474 C 0.75056 0.97431 0.46588 0.0
C475 C 0.84678 0.03967 0.45849 0.0
N476 N 0.75755 0.91667 0.44535 0.0
N477 N 0.84872 0.08261 0.48861 0.0
H478 H 0.90664 0.072 0.43914 0.0
H479 H 0.9044 0.10986 0.4572 0.0
H480 H 0.83379 0.08817 0.50155 0.0
H481 H 0.88539 0.10334 0.48818 0.0
H482 H 0.72443 0.88941 0.44971 0.0
H483 H 0.7761 0.90559 0.43614 0.0
H484 H 0.68289 0.92003 0.45646 0.0
H485 H 0.68178 0.95698 0.47532 0.0
C486 C 0.81638 0.82857 0.79407 0.0
C487 C 0.84093 0.80854 0.78434 0.0
C488 C 0.78707 0.73201 0.80005 0.0
C489 C 0.76651 0.75376 0.81159 0.0
N490 N 0.77008 0.82566 0.82314 0.0
N491 N 0.85448 0.74297 0.78032 0.0
C492 C 0.7836 0.80292 0.80963 0.0
C493 C 0.82761 0.76065 0.78793 0.0
N494 N 0.82304 0.87147 0.78799 0.0
N495 N 0.76711 0.68401 0.8002 0.0
H496 H 0.88451 0.76302 0.77151 0.0
H497 H 0.84932 0.70983 0.78416 0.0
H498 H 0.73727 0.66202 0.8088 0.0
H499 H 0.77763 0.6658 0.79052 0.0
H500 H 0.80244 0.88534 0.79325 0.0
H501 H 0.84554 0.8909 0.77612 0.0
H502 H 0.7853 0.86226 0.82355 0.0
H503 H 0.74747 0.80866 0.83532 0.0
C504 C 0.0579 0.83287 0.12721 0.0
C505 C 0.03209 0.82082 0.10876 0.0
C506 C 0.99514 0.73697 0.11762 0.0
C507 C 0.01443 0.74968 0.13744 0.0
N508 N 0.06122 0.81029 0.16194 0.0
N509 N 0.97247 0.7615 0.08696 0.0
C510 C 0.0456 0.79777 0.14242 0.0
C511 C 1.00015 0.77281 0.10394 0.0
N512 N 0.09425 0.8779 0.1301 0.0
N513 N 0.97217 0.69059 0.11191 0.0
H514 H 0.97464 0.78654 0.07655 0.0
H515 H 0.94473 0.7276 0.08398 0.0
H516 H 0.9682 0.6636 0.12162 0.0
H517 H 0.96122 0.67944 0.09707 0.0
H518 H 0.11729 0.88786 0.14242 0.0
H519 H 0.10416 0.90427 0.11914 0.0
H520 H 0.07944 0.84516 0.16694 0.0
H521 H 0.05294 0.78583 0.17361 0.0
C522 C 0.1846 0.00497 0.46834 0.0
C523 C 0.19845 0.01552 0.44771 0.0
C524 C 0.27691 0.02781 0.45604 0.0
C525 C 0.26445 0.02177 0.47692 0.0
N526 N 0.20912 0.01115 0.50348 0.0
N527 N 0.25846 0.04163 0.42185 0.0
C528 C 0.21894 0.01197 0.48323 0.0
C529 C 0.24481 0.02811 0.4415 0.0
N530 N 0.13831 0.98717 0.47363 0.0
N531 N 0.319 0.03225 0.45014 0.0
H532 H 0.23559 0.04146 0.41075 0.0
H533 H 0.29313 0.05612 0.41682 0.0
H534 H 0.3434 0.03258 0.46045 0.0
H535 H 0.32828 0.03195 0.43504 0.0
H536 H 0.125 0.97375 0.48798 0.0
H537 H 0.11215 0.98211 0.4632 0.0
H538 H 0.17865 0.00982 0.50899 0.0
H539 H 0.23304 0.01552 0.51493 0.0
C540 C 0.2198 0.25447 0.7689 0.0
C541 C 0.16999 0.23016 0.77117 0.0
C542 C 0.17828 0.27255 0.80269 0.0
C543 C 0.22737 0.28834 0.8029 0.0
N544 N 0.29654 0.29915 0.78498 0.0
N545 N 0.11367 0.25401 0.78008 0.0
C546 C 0.24883 0.28116 0.78552 0.0
C547 C 0.1517 0.2497 0.78517 0.0
N548 N 0.23867 0.25708 0.75013 0.0
N549 N 0.15635 0.27785 0.81929 0.0
H550 H 0.09971 0.24647 0.76538 0.0
H551 H 0.1014 0.27168 0.7892 0.0
H552 H 0.17386 0.29301 0.83286 0.0
H553 H 0.11978 0.26316 0.81997 0.0
H554 H 0.27451 0.27765 0.74689 0.0
H555 H 0.21722 0.24302 0.73732 0.0
H556 H 0.31328 0.29029 0.7738 0.0
H557 H 0.31915 0.32127 0.79628 0.0
C558 C 0.83537 0.00111 0.62419 0.0
C559 C 0.84208 0.02313 0.64343 0.0
C560 C 0.78868 0.05225 0.63383 0.0
C561 C 0.78599 0.03444 0.61393 0.0
N562 N 0.80933 0.99547 0.58927 0.0
N563 N 0.8283 0.07198 0.66659 0.0
C564 C 0.80977 0.00951 0.60889 0.0
C565 C 0.81938 0.04917 0.64831 0.0
N566 N 0.85303 0.97166 0.62067 0.0
N567 N 0.76129 0.07141 0.63889 0.0
H568 H 0.84929 0.06913 0.6778 0.0
H569 H 0.81729 0.0959 0.67027 0.0
H570 H 0.73896 0.07471 0.62851 0.0
H571 H 0.75785 0.08085 0.65362 0.0
H572 H 0.84497 0.95036 0.60785 0.0
H573 H 0.87308 0.96565 0.63132 0.0
H574 H 0.83054 0.98236 0.58402 0.0
H575 H 0.78987 0.9997 0.57773 0.0
C576 C 0.81314 0.81071 0.9606 0.0
C577 C 0.80521 0.84292 0.97199 0.0
C578 C 0.72834 0.81279 0.95538 0.0
C579 C 0.73938 0.78556 0.94206 0.0
N580 N 0.79692 0.76598 0.92949 0.0
N581 N 0.75862 0.88024 0.97792 0.0
C582 C 0.78302 0.78638 0.944 0.0
C583 C 0.76362 0.84545 0.96881 0.0
N584 N 0.84871 0.80239 0.96596 0.0
N585 N 0.68382 0.80659 0.95557 0.0
H586 H 0.78403 0.90542 0.98757 0.0
H587 H 0.73133 0.88676 0.97445 0.0
H588 H 0.65683 0.78232 0.9462 0.0
H589 H 0.67249 0.82208 0.96634 0.0
H590 H 0.85305 0.77579 0.95943 0.0
H591 H 0.87094 0.81872 0.97834 0.0
H592 H 0.83055 0.76995 0.92912 0.0
H593 H 0.77673 0.74904 0.91668 0.0
C594 C 0.93465 0.78617 0.28516 0.0
C595 C 0.9638 0.7951 0.30245 0.0
C596 C 0.98369 0.73597 0.29075 0.0
C597 C 0.95916 0.73139 0.27234 0.0
N598 N 0.91854 0.75872 0.25038 0.0
N599 N 0.02209 0.78414 0.32033 0.0
C600 C 0.93649 0.75822 0.26909 0.0
C601 C 0.98991 0.77143 0.30493 0.0
N602 N 0.9043 0.80344 0.28431 0.0
N603 N 0.99998 0.70568 0.2949 0.0
H604 H 0.02799 0.81019 0.33095 0.0
H605 H 0.04577 0.77177 0.32156 0.0
H606 H 0.99582 0.67913 0.2849 0.0
H607 H 0.01378 0.70412 0.30896 0.0
H608 H 0.87873 0.79398 0.27304 0.0
H609 H 0.90153 0.82362 0.29592 0.0
H610 H 0.90624 0.7816 0.24657 0.0
H611 H 0.91999 0.73956 0.23801 0.0
C612 C 0.17201 0.95491 0.62259 0.0
C613 C 0.18563 0.98053 0.64108 0.0
C614 C 0.26876 0.01651 0.63119 0.0
C615 C 0.25463 0.9966 0.61153 0.0
N616 N 0.19211 0.95165 0.58747 0.0
N617 N 0.24669 0.04087 0.66203 0.0
C618 C 0.20604 0.9667 0.60696 0.0
C619 C 0.23401 0.01248 0.64524 0.0
N620 N 0.12662 0.91897 0.62007 0.0
N621 N 0.31539 0.03872 0.63651 0.0
H622 H 0.22241 0.03959 0.67263 0.0
H623 H 0.28089 0.06851 0.66455 0.0
H624 H 0.34173 0.0419 0.62661 0.0
H625 H 0.32733 0.04986 0.65126 0.0
H626 H 0.1157 0.89599 0.60772 0.0
H627 H 0.1009 0.90927 0.63131 0.0
H628 H 0.15693 0.93423 0.58287 0.0
H629 H 0.21572 0.96008 0.57545 0.0
C630 C 0.21565 0.16587 0.95473 0.0
C631 C 0.19277 0.17518 0.97089 0.0
C632 C 0.22848 0.25738 0.95966 0.0
C633 C 0.24453 0.24595 0.9417 0.0
N634 N 0.24756 0.18691 0.92071 0.0
N635 N 0.17054 0.22818 0.98654 0.0
C636 C 0.23691 0.1996 0.93887 0.0
C637 C 0.19756 0.22063 0.97289 0.0
N638 N 0.21772 0.12518 0.95469 0.0
N639 N 0.2432 0.30348 0.96417 0.0
H640 H 0.14576 0.20187 0.99597 0.0
H641 H 0.16925 0.25936 0.98703 0.0
H642 H 0.26663 0.33143 0.95497 0.0
H643 H 0.2361 0.31411 0.97802 0.0
H644 H 0.23779 0.11861 0.94432 0.0
H645 H 0.2032 0.1001 0.96627 0.0
H646 H 0.23792 0.15222 0.91712 0.0
H647 H 0.26231 0.21016 0.90853 0.0
C648 C 0.00331 0.21328 0.3169 0.0
C649 C 0.03463 0.19694 0.31136 0.0
C650 C 0.04617 0.23381 0.27786 0.0
C651 C 0.01546 0.25081 0.28352 0.0
N652 N 0.97447 0.26722 0.30976 0.0
N653 N 0.09483 0.20132 0.28897 0.0
C654 C 0.99729 0.24403 0.30354 0.0
C655 C 0.05912 0.21056 0.2926 0.0
N656 N 0.97726 0.19731 0.33433 0.0
N657 N 0.06078 0.23736 0.25814 0.0
H658 H 0.10508 0.1844 0.29956 0.0
H659 H 0.11708 0.21429 0.27641 0.0
H660 H 0.05217 0.2541 0.24683 0.0
H661 H 0.07852 0.22068 0.25263 0.0
H662 H 0.94984 0.20351 0.33792 0.0
H663 H 0.9806 0.17486 0.3446 0.0
H664 H 0.96434 0.26735 0.32475 0.0
H665 H 0.96965 0.29005 0.30027 0.0
loop_
_geom_bond_atom_site_label_1
_geom_bond_atom_site_label_2
_geom_bond_distance
_geom_bond_site_symmetry_2
_ccdc_geom_bond_type
Li0 N17 1.990 . S
Li0 O60 1.956 . S
Li0 O61 1.970 1_455 S
Li0 O62 1.961 1_545 S
Li1 N25 1.990 . S
Li1 O60 1.970 1_655 S
Li1 O61 1.956 . S
Li1 O63 1.961 1_545 S
Li2 N47 1.990 . S
Li2 O60 1.961 1_565 S
Li2 O62 1.956 . S
Li2 O63 1.970 1_455 S
Li3 N53 1.990 . S
Li3 O61 1.961 1_565 S
Li3 O62 1.970 1_655 S
Li3 O63 1.956 . S
C4 C6 1.348 . S
C4 C7 1.356 . S
C4 O60 1.325 . S
N5 C8 1.314 . S
N5 C9 1.279 . S
C6 C4 1.348 . S
C6 C8 1.353 . S
C6 H64 0.929 . S
C7 C4 1.356 . S
C7 C9 1.358 . S
C7 H65 0.930 . S
C8 N5 1.314 . S
C8 C6 1.353 . S
C8 H66 0.930 . S
C9 N5 1.279 . S
C9 C7 1.358 . S
C9 H67 0.930 . S
C10 C13 1.348 1_655 S
C10 C14 1.356 . S
C10 O61 1.325 . S
C11 N12 1.279 1_554 S
C11 C14 1.358 . S
C11 H68 0.930 . S
N12 C11 1.279 1_556 S
N12 C15 1.314 . S
C13 C10 1.348 1_455 S
C13 C15 1.353 1_454 S
C13 H69 0.929 . S
C14 C10 1.356 . S
C14 C11 1.358 . S
C14 H70 0.930 . S
C15 N12 1.314 . S
C15 C13 1.353 1_656 S
C15 H71 0.930 1_655 S
C16 N17 1.314 1_556 S
C16 C21 1.353 . S
C16 H22 0.930 . S
N17 Li0 1.990 . S
N17 C16 1.314 1_554 S
N17 C19 1.279 . S
C18 C19 1.358 . S
C18 C20 1.356 1_554 S
C18 H72 0.930 . S
C19 N17 1.279 . S
C19 C18 1.358 . S
C19 H23 0.930 . S
C20 C18 1.356 1_556 S
C20 C21 1.348 . S
C21 C16 1.353 . S
C21 C20 1.348 . S
C21 H73 0.929 . S
H22 C16 0.930 . S
H23 C19 0.930 . S
C24 N25 1.314 . S
C24 C26 1.353 . S
C24 H30 0.930 . S
N25 Li1 1.990 . S
N25 C24 1.314 . S
N25 C28 1.279 . S
C26 C24 1.353 . S
C26 C29 1.348 . S
C26 H74 0.929 . S
C27 C28 1.358 . S
C27 C29 1.356 . S
C27 H75 0.930 . S
C28 N25 1.279 . S
C28 C27 1.358 . S
C28 H31 0.930 . S
C29 C26 1.348 . S
C29 C27 1.356 . S
H30 C24 0.930 . S
H31 C28 0.930 . S
C32 C34 1.348 1_455 S
C32 C35 1.356 . S
C32 O62 1.325 . S
N33 C36 1.314 . S
N33 C37 1.279 1_556 S
C34 C32 1.348 1_655 S
C34 C36 1.353 1_654 S
C34 H76 0.929 . S
C35 C32 1.356 . S
C35 C37 1.358 . S
C35 H77 0.930 . S
C36 N33 1.314 . S
C36 C34 1.353 1_456 S
C36 H78 0.930 1_455 S
C37 N33 1.279 1_554 S
C37 C35 1.358 . S
C37 H79 0.930 . S
C38 C39 1.348 . S
C38 C40 1.356 . S
C38 O63 1.325 . S
C39 C38 1.348 . S
C39 C41 1.353 . S
C39 H80 0.929 . S
C40 C38 1.356 . S
C40 C42 1.358 . S
C40 H81 0.930 . S
C41 C39 1.353 . S
C41 N43 1.314 . S
C41 H82 0.930 . S
C42 C40 1.358 . S
C42 N43 1.279 . S
C42 H83 0.930 . S
N43 C41 1.314 . S
N43 C42 1.279 . S
C44 C46 1.353 . S
C44 N47 1.314 . S
C44 H50 0.930 . S
C45 N47 1.279 . S
C45 C48 1.358 . S
C45 H51 0.930 . S
C46 C44 1.353 . S
C46 C49 1.348 . S
C46 H84 0.929 . S
N47 Li2 1.990 . S
N47 C44 1.314 . S
N47 C45 1.279 . S
C48 C45 1.358 . S
C48 C49 1.356 . S
C48 H85 0.930 . S
C49 C46 1.348 . S
C49 C48 1.356 . S
H50 C44 0.930 . S
H51 C45 0.930 . S
C52 N53 1.314 1_556 S
C52 C54 1.353 . S
C52 H58 0.930 . S
N53 Li3 1.990 . S
N53 C52 1.314 1_554 S
N53 C56 1.279 . S
C54 C52 1.353 . S
C54 C57 1.348 . S
C54 H86 0.929 . S
C55 C56 1.358 . S
C55 C57 1.356 1_554 S
C55 H87 0.930 . S
C56 N53 1.279 . S
C56 C55 1.358 . S
C56 H59 0.930 . S
C57 C54 1.348 . S
C57 C55 1.356 1_556 S
H58 C52 0.930 . S
H59 C56 0.930 . S
O60 Li0 1.956 . S
O60 Li1 1.970 1_455 S
O60 Li2 1.961 1_545 S
O60 C4 1.325 . S
O61 Li0 1.970 1_655 S
O61 Li1 1.956 . S
O61 Li3 1.961 1_545 S
O61 C10 1.325 . S
O62 Li0 1.961 1_565 S
O62 Li2 1.956 . S
O62 Li3 1.970 1_455 S
O62 C32 1.325 . S
O63 Li1 1.961 1_565 S
O63 Li2 1.970 1_655 S
O63 Li3 1.956 . S
O63 C38 1.325 . S
H64 C6 0.929 . S
H65 C7 0.930 . S
H66 C8 0.930 . S
H67 C9 0.930 . S
H68 C11 0.930 . S
H69 C13 0.929 . S
H70 C14 0.930 . S
H71 C15 0.930 1_455 S
H72 C18 0.930 . S
H73 C21 0.929 . S
H74 C26 0.929 . S
H75 C27 0.930 . S
H76 C34 0.929 . S
H77 C35 0.930 . S
H78 C36 0.930 1_655 S
H79 C37 0.930 . S
H80 C39 0.929 . S
H81 C40 0.930 . S
H82 C41 0.930 . S
H83 C42 0.930 . S
H84 C46 0.929 . S
H85 C48 0.930 . S
H86 C54 0.929 . S
H87 C55 0.930 . S
Li88 N105 1.990 . S
Li88 O148 1.956 . S
Li88 O149 1.970 1_665 S
Li88 O150 1.961 . S
Li89 N113 1.990 . S
Li89 O148 1.970 1_445 S
Li89 O149 1.956 . S
Li89 O151 1.961 . S
Li90 N135 1.990 . S
Li90 O148 1.961 . S
Li90 O150 1.956 . S
Li90 O151 1.970 1_665 S
Li91 N141 1.990 . S
Li91 O149 1.961 . S
Li91 O150 1.970 1_445 S
Li91 O151 1.956 . S
C92 C94 1.348 1_655 S
C92 C95 1.356 . S
C92 O148 1.325 . S
N93 C96 1.314 . S
N93 C97 1.279 . S
C94 C92 1.348 1_455 S
C94 C96 1.353 1_455 S
C94 H152 0.929 . S
C95 C92 1.356 . S
C95 C97 1.358 . S
C95 H153 0.930 . S
C96 N93 1.314 . S
C96 C94 1.353 1_655 S
C96 H154 0.930 1_655 S
C97 N93 1.279 . S
C97 C95 1.358 . S
C97 H155 0.930 . S
C98 C101 1.348 1_545 S
C98 C102 1.356 . S
C98 O149 1.325 . S
C99 N100 1.279 . S
C99 C102 1.358 . S
C99 H156 0.930 . S
N100 C99 1.279 . S
N100 C103 1.314 . S
C101 C98 1.348 1_565 S
C101 C103 1.353 1_565 S
C101 H157 0.929 . S
C102 C98 1.356 . S
C102 C99 1.358 . S
C102 H158 0.930 . S
C103 N100 1.314 . S
C103 C101 1.353 1_545 S
C103 H159 0.930 1_545 S
C104 N105 1.314 . S
C104 C109 1.353 . S
C104 H110 0.930 . S
N105 Li88 1.990 . S
N105 C104 1.314 . S
N105 C107 1.279 . S
C106 C107 1.358 . S
C106 C108 1.356 . S
C106 H160 0.930 . S
C107 N105 1.279 . S
C107 C106 1.358 . S
C107 H111 0.930 . S
C108 C106 1.356 . S
C108 C109 1.348 . S
C109 C104 1.353 . S
C109 C108 1.348 . S
C109 H161 0.929 . S
H110 C104 0.930 . S
H111 C107 0.930 . S
C112 N113 1.314 . S
C112 C114 1.353 . S
C112 H118 0.930 . S
N113 Li89 1.990 . S
N113 C112 1.314 . S
N113 C116 1.279 . S
C114 C112 1.353 . S
C114 C117 1.348 . S
C114 H162 0.929 . S
C115 C116 1.358 . S
C115 C117 1.356 . S
C115 H163 0.930 . S
C116 N113 1.279 . S
C116 C115 1.358 . S
C116 H119 0.930 . S
C117 C114 1.348 . S
C117 C115 1.356 . S
H118 C112 0.930 . S
H119 C116 0.930 . S
C120 C122 1.348 1_565 S
C120 C123 1.356 . S
C120 O150 1.325 . S
N121 C124 1.314 . S
N121 C125 1.279 . S
C122 C120 1.348 1_545 S
C122 C124 1.353 1_545 S
C122 H164 0.929 . S
C123 C120 1.356 . S
C123 C125 1.358 . S
C123 H165 0.930 . S
C124 N121 1.314 . S
C124 C122 1.353 1_565 S
C124 H166 0.930 1_565 S
C125 N121 1.279 . S
C125 C123 1.358 . S
C125 H167 0.930 . S
C126 C127 1.348 1_455 S
C126 C128 1.356 . S
C126 O151 1.325 . S
C127 C126 1.348 1_655 S
C127 C129 1.353 1_655 S
C127 H168 0.929 . S
C128 C126 1.356 . S
C128 C130 1.358 . S
C128 H169 0.930 . S
C129 C127 1.353 1_455 S
C129 N131 1.314 . S
C129 H170 0.930 1_455 S
C130 C128 1.358 . S
C130 N131 1.279 . S
C130 H171 0.930 . S
N131 C129 1.314 . S
N131 C130 1.279 . S
C132 C134 1.353 . S
C132 N135 1.314 . S
C132 H138 0.930 . S
C133 N135 1.279 . S
C133 C136 1.358 . S
C133 H139 0.930 . S
C134 C132 1.353 . S
C134 C137 1.348 . S
C134 H172 0.929 . S
N135 Li90 1.990 . S
N135 C132 1.314 . S
N135 C133 1.279 . S
C136 C133 1.358 . S
C136 C137 1.356 . S
C136 H173 0.930 . S
C137 C134 1.348 . S
C137 C136 1.356 . S
H138 C132 0.930 . S
H139 C133 0.930 . S
C140 N141 1.314 . S
C140 C142 1.353 . S
C140 H146 0.930 . S
N141 Li91 1.990 . S
N141 C140 1.314 . S
N141 C144 1.279 . S
C142 C140 1.353 . S
C142 C145 1.348 . S
C142 H174 0.929 . S
C143 C144 1.358 . S
C143 C145 1.356 . S
C143 H175 0.930 . S
C144 N141 1.279 . S
C144 C143 1.358 . S
C144 H147 0.930 . S
C145 C142 1.348 . S
C145 C143 1.356 . S
H146 C140 0.930 . S
H147 C144 0.930 . S
O148 Li88 1.956 . S
O148 Li89 1.970 1_665 S
O148 Li90 1.961 . S
O148 C92 1.325 . S
O149 Li88 1.970 1_445 S
O149 Li89 1.956 . S
O149 Li91 1.961 . S
O149 C98 1.325 . S
O150 Li88 1.961 . S
O150 Li90 1.956 . S
O150 Li91 1.970 1_665 S
O150 C120 1.325 . S
O151 Li89 1.961 . S
O151 Li90 1.970 1_445 S
O151 Li91 1.956 . S
O151 C126 1.325 . S
H152 C94 0.929 . S
H153 C95 0.930 . S
H154 C96 0.930 1_455 S
H155 C97 0.930 . S
H156 C99 0.930 . S
H157 C101 0.929 . S
H158 C102 0.930 . S
H159 C103 0.930 1_565 S
H160 C106 0.930 . S
H161 C109 0.929 . S
H162 C114 0.929 . S
H163 C115 0.930 . S
H164 C122 0.929 . S
H165 C123 0.930 . S
H166 C124 0.930 1_545 S
H167 C125 0.930 . S
H168 C127 0.929 . S
H169 C128 0.930 . S
H170 C129 0.930 1_655 S
H171 C130 0.930 . S
H172 C134 0.929 . S
H173 C136 0.930 . S
H174 C142 0.929 . S
H175 C143 0.930 . S
Li176 N193 1.990 . S
Li176 O236 1.956 . S
Li176 O237 1.970 1_565 S
Li176 O238 1.961 1_455 S
Li177 N201 1.990 . S
Li177 O236 1.970 1_545 S
Li177 O237 1.956 . S
Li177 O239 1.961 1_455 S
Li178 N223 1.990 . S
Li178 O236 1.961 1_655 S
Li178 O238 1.956 . S
Li178 O239 1.970 1_565 S
Li179 N229 1.990 . S
Li179 O237 1.961 1_655 S
Li179 O238 1.970 1_545 S
Li179 O239 1.956 . S
C180 C182 1.348 1_565 S
C180 C183 1.356 . S
C180 O236 1.325 . S
N181 C184 1.314 . S
N181 C185 1.279 . S
C182 C180 1.348 1_545 S
C182 C184 1.353 1_545 S
C182 H240 0.929 . S
C183 C180 1.356 . S
C183 C185 1.358 . S
C183 H241 0.930 . S
C184 N181 1.314 . S
C184 C182 1.353 1_565 S
C184 H242 0.930 1_565 S
C185 N181 1.279 . S
C185 C183 1.358 . S
C185 H243 0.930 . S
C186 C189 1.348 . S
C186 C190 1.356 . S
C186 O237 1.325 . S
C187 N188 1.279 . S
C187 C190 1.358 . S
C187 H244 0.930 . S
N188 C187 1.279 . S
N188 C191 1.314 . S
C189 C186 1.348 . S
C189 C191 1.353 . S
C189 H245 0.929 . S
C190 C186 1.356 . S
C190 C187 1.358 . S
C190 H246 0.930 . S
C191 N188 1.314 . S
C191 C189 1.353 . S
C191 H247 0.930 . S
C192 N193 1.314 . S
C192 C197 1.353 . S
C192 H198 0.930 . S
N193 Li176 1.990 . S
N193 C192 1.314 . S
N193 C195 1.279 . S
C194 C195 1.358 . S
C194 C196 1.356 . S
C194 H248 0.930 . S
C195 N193 1.279 . S
C195 C194 1.358 . S
C195 H199 0.930 . S
C196 C194 1.356 . S
C196 C197 1.348 . S
C197 C192 1.353 . S
C197 C196 1.348 . S
C197 H249 0.929 . S
H198 C192 0.930 . S
H199 C195 0.930 . S
C200 N201 1.314 . S
C200 C202 1.353 . S
C200 H206 0.930 . S
N201 Li177 1.990 . S
N201 C200 1.314 . S
N201 C204 1.279 . S
C202 C200 1.353 . S
C202 C205 1.348 . S
C202 H250 0.929 . S
C203 C204 1.358 . S
C203 C205 1.356 . S
C203 H251 0.930 . S
C204 N201 1.279 . S
C204 C203 1.358 . S
C204 H207 0.930 . S
C205 C202 1.348 . S
C205 C203 1.356 . S
H206 C200 0.930 . S
H207 C204 0.930 . S
C208 C210 1.348 . S
C208 C211 1.356 . S
C208 O238 1.325 . S
N209 C212 1.314 . S
N209 C213 1.279 . S
C210 C208 1.348 . S
C210 C212 1.353 . S
C210 H252 0.929 . S
C211 C208 1.356 . S
C211 C213 1.358 . S
C211 H253 0.930 . S
C212 N209 1.314 . S
C212 C210 1.353 . S
C212 H254 0.930 . S
C213 N209 1.279 . S
C213 C211 1.358 . S
C213 H255 0.930 . S
C214 C215 1.348 1_545 S
C214 C216 1.356 . S
C214 O239 1.325 . S
C215 C214 1.348 1_565 S
C215 C217 1.353 1_565 S
C215 H256 0.929 . S
C216 C214 1.356 . S
C216 C218 1.358 . S
C216 H257 0.930 . S
C217 C215 1.353 1_545 S
C217 N219 1.314 . S
C217 H258 0.930 1_545 S
C218 C216 1.358 . S
C218 N219 1.279 . S
C218 H259 0.930 . S
N219 C217 1.314 . S
N219 C218 1.279 . S
C220 C222 1.353 . S
C220 N223 1.314 . S
C220 H226 0.930 . S
C221 N223 1.279 . S
C221 C224 1.358 . S
C221 H227 0.930 . S
C222 C220 1.353 . S
C222 C225 1.348 . S
C222 H260 0.929 . S
N223 Li178 1.990 . S
N223 C220 1.314 . S
N223 C221 1.279 . S
C224 C221 1.358 . S
C224 C225 1.356 . S
C224 H261 0.930 . S
C225 C222 1.348 . S
C225 C224 1.356 . S
H226 C220 0.930 . S
H227 C221 0.930 . S
C228 N229 1.314 . S
C228 C230 1.353 . S
C228 H234 0.930 . S
N229 Li179 1.990 . S
N229 C228 1.314 . S
N229 C232 1.279 . S
C230 C228 1.353 . S
C230 C233 1.348 . S
C230 H262 0.929 . S
C231 C232 1.358 . S
C231 C233 1.356 . S
C231 H263 0.930 . S
C232 N229 1.279 . S
C232 C231 1.358 . S
C232 H235 0.930 . S
C233 C230 1.348 . S
C233 C231 1.356 . S
H234 C228 0.930 . S
H235 C232 0.930 . S
O236 Li176 1.956 . S
O236 Li177 1.970 1_565 S
O236 Li178 1.961 1_455 S
O236 C180 1.325 . S
O237 Li176 1.970 1_545 S
O237 Li177 1.956 . S
O237 Li179 1.961 1_455 S
O237 C186 1.325 . S
O238 Li176 1.961 1_655 S
O238 Li178 1.956 . S
O238 Li179 1.970 1_565 S
O238 C208 1.325 . S
O239 Li177 1.961 1_655 S
O239 Li178 1.970 1_545 S
O239 Li179 1.956 . S
O239 C214 1.325 . S
H240 C182 0.929 . S
H241 C183 0.930 . S
H242 C184 0.930 1_545 S
H243 C185 0.930 . S
H244 C187 0.930 . S
H245 C189 0.929 . S
H246 C190 0.930 . S
H247 C191 0.930 . S
H248 C194 0.930 . S
H249 C197 0.929 . S
H250 C202 0.929 . S
H251 C203 0.930 . S
H252 C210 0.929 . S
H253 C211 0.930 . S
H254 C212 0.930 . S
H255 C213 0.930 . S
H256 C215 0.929 . S
H257 C216 0.930 . S
H258 C217 0.930 1_565 S
H259 C218 0.930 . S
H260 C222 0.929 . S
H261 C224 0.930 . S
H262 C230 0.929 . S
H263 C231 0.930 . S
H264 C291 0.929 . S
N265 C290 1.433 . S
N265 C296 1.435 . S
N265 C302 1.423 . S
H266 C292 0.930 . S
H267 C295 0.931 . S
H268 C294 0.929 . S
H269 C297 0.930 . S
H270 C298 0.932 . S
H271 C301 0.929 . S
H272 C300 0.931 . S
H273 C303 0.929 . S
H274 C307 0.932 1_455 S
H275 C304 0.931 . S
H276 C306 0.929 1_455 S
H277 C309 0.929 . S
H278 C310 0.930 . S
H279 C312 0.929 . S
H280 C313 0.931 . S
H281 C315 0.930 . S
H282 C316 0.932 . S
H283 C318 0.931 . S
H284 C319 0.929 . S
H285 C321 0.929 . S
H286 C322 0.931 . S
H287 C324 0.929 1_455 S
N288 C308 1.433 . S
N288 C314 1.435 . S
N288 C320 1.423 . S
H289 C325 0.932 1_455 S
C290 N265 1.433 . S
C290 C291 1.363 . S
C290 C295 1.370 1_655 S
C291 H264 0.929 . S
C291 C290 1.363 . S
C291 C292 1.385 . S
C292 H266 0.930 . S
C292 C291 1.385 . S
C292 C293 1.357 . S
C293 C292 1.357 . S
C293 C294 1.406 1_655 S
C294 H268 0.929 . S
C294 C293 1.406 1_455 S
C294 C295 1.391 . S
C295 H267 0.931 . S
C295 C290 1.370 1_455 S
C295 C294 1.391 . S
C296 N265 1.435 . S
C296 C297 1.358 1_655 S
C296 C301 1.371 . S
C297 H269 0.930 . S
C297 C296 1.358 1_455 S
C297 C298 1.405 . S
C298 H270 0.932 . S
C298 C297 1.405 . S
C298 C299 1.383 1_455 S
C299 C298 1.383 1_655 S
C299 C300 1.393 . S
C300 H272 0.931 . S
C300 C299 1.393 . S
C300 C301 1.382 . S
C301 H271 0.929 . S
C301 C296 1.371 . S
C301 C300 1.382 . S
C302 N265 1.423 . S
C302 C303 1.362 . S
C302 C307 1.388 . S
C303 H273 0.929 . S
C303 C302 1.362 . S
C303 C304 1.376 . S
C304 H275 0.931 . S
C304 C303 1.376 . S
C304 C305 1.396 . S
C305 C304 1.396 . S
C305 C306 1.348 . S
C305 C323 1.472 . S
C306 H276 0.929 1_655 S
C306 C305 1.348 . S
C306 C307 1.443 . S
C307 H274 0.932 1_655 S
C307 C302 1.388 . S
C307 C306 1.443 . S
C308 N288 1.433 . S
C308 C309 1.363 . S
C308 C313 1.370 1_655 S
C309 H277 0.929 . S
C309 C308 1.363 . S
C309 C310 1.385 . S
C310 H278 0.930 . S
C310 C309 1.385 . S
C310 C311 1.357 . S
C311 C310 1.357 . S
C311 C312 1.406 1_655 S
C312 H279 0.929 . S
C312 C311 1.406 1_455 S
C312 C313 1.391 . S
C313 H280 0.931 . S
C313 C308 1.370 1_455 S
C313 C312 1.391 . S
C314 N288 1.435 . S
C314 C315 1.358 1_655 S
C314 C319 1.371 . S
C315 H281 0.930 . S
C315 C314 1.358 1_455 S
C315 C316 1.405 . S
C316 H282 0.932 . S
C316 C315 1.405 . S
C316 C317 1.383 1_455 S
C317 C316 1.383 1_655 S
C317 C318 1.393 . S
C318 H283 0.931 . S
C318 C317 1.393 . S
C318 C319 1.382 . S
C319 H284 0.929 . S
C319 C314 1.371 . S
C319 C318 1.382 . S
C320 N288 1.423 . S
C320 C321 1.362 . S
C320 C325 1.388 . S
C321 H285 0.929 . S
C321 C320 1.362 . S
C321 C322 1.376 . S
C322 H286 0.931 . S
C322 C321 1.376 . S
C322 C323 1.396 . S
C323 C305 1.472 . S
C323 C322 1.396 . S
C323 C324 1.348 . S
C324 H287 0.929 1_655 S
C324 C323 1.348 . S
C324 C325 1.443 . S
C325 H289 0.932 1_655 S
C325 C320 1.388 . S
C325 C324 1.443 . S
H326 C353 0.929 . S
N327 C352 1.433 . S
N327 C358 1.435 . S
N327 C364 1.423 . S
H328 C354 0.930 . S
H329 C357 0.931 . S
H330 C356 0.929 . S
H331 C359 0.930 . S
H332 C360 0.932 . S
H333 C363 0.929 . S
H334 C362 0.931 . S
H335 C365 0.929 . S
H336 C369 0.932 1_565 S
H337 C366 0.931 . S
H338 C368 0.929 1_565 S
H339 C371 0.929 . S
H340 C372 0.930 . S
H341 C374 0.929 . S
H342 C375 0.931 . S
H343 C377 0.930 . S
H344 C378 0.932 . S
H345 C380 0.931 . S
H346 C381 0.929 . S
H347 C383 0.929 . S
H348 C384 0.931 . S
H349 C386 0.929 1_565 S
N350 C370 1.433 . S
N350 C376 1.435 . S
N350 C382 1.423 . S
H351 C387 0.932 1_565 S
C352 N327 1.433 . S
C352 C353 1.363 . S
C352 C357 1.370 1_545 S
C353 H326 0.929 . S
C353 C352 1.363 . S
C353 C354 1.385 . S
C354 H328 0.930 . S
C354 C353 1.385 . S
C354 C355 1.357 . S
C355 C354 1.357 . S
C355 C356 1.406 1_545 S
C356 H330 0.929 . S
C356 C355 1.406 1_565 S
C356 C357 1.391 . S
C357 H329 0.931 . S
C357 C352 1.370 1_565 S
C357 C356 1.391 . S
C358 N327 1.435 . S
C358 C359 1.358 1_545 S
C358 C363 1.371 . S
C359 H331 0.930 . S
C359 C358 1.358 1_565 S
C359 C360 1.405 . S
C360 H332 0.932 . S
C360 C359 1.405 . S
C360 C361 1.383 1_565 S
C361 C360 1.383 1_545 S
C361 C362 1.393 . S
C362 H334 0.931 . S
C362 C361 1.393 . S
C362 C363 1.382 . S
C363 H333 0.929 . S
C363 C358 1.371 . S
C363 C362 1.382 . S
C364 N327 1.423 . S
C364 C365 1.362 . S
C364 C369 1.388 . S
C365 H335 0.929 . S
C365 C364 1.362 . S
C365 C366 1.376 . S
C366 H337 0.931 . S
C366 C365 1.376 . S
C366 C367 1.396 . S
C367 C366 1.396 . S
C367 C368 1.348 . S
C367 C385 1.472 . S
C368 H338 0.929 1_545 S
C368 C367 1.348 . S
C368 C369 1.443 . S
C369 H336 0.932 1_545 S
C369 C364 1.388 . S
C369 C368 1.443 . S
C370 N350 1.433 . S
C370 C371 1.363 . S
C370 C375 1.370 1_545 S
C371 H339 0.929 . S
C371 C370 1.363 . S
C371 C372 1.385 . S
C372 H340 0.930 . S
C372 C371 1.385 . S
C372 C373 1.357 . S
C373 C372 1.357 . S
C373 C374 1.406 1_545 S
C374 H341 0.929 . S
C374 C373 1.406 1_565 S
C374 C375 1.391 . S
C375 H342 0.931 . S
C375 C370 1.370 1_565 S
C375 C374 1.391 . S
C376 N350 1.435 . S
C376 C377 1.358 1_545 S
C376 C381 1.371 . S
C377 H343 0.930 . S
C377 C376 1.358 1_565 S
C377 C378 1.405 . S
C378 H344 0.932 . S
C378 C377 1.405 . S
C378 C379 1.383 1_565 S
C379 C378 1.383 1_545 S
C379 C380 1.393 . S
C380 H345 0.931 . S
C380 C379 1.393 . S
C380 C381 1.382 . S
C381 H346 0.929 . S
C381 C376 1.371 . S
C381 C380 1.382 . S
C382 N350 1.423 . S
C382 C383 1.362 . S
C382 C387 1.388 . S
C383 H347 0.929 . S
C383 C382 1.362 . S
C383 C384 1.376 . S
C384 H348 0.931 . S
C384 C383 1.376 . S
C384 C385 1.396 . S
C385 C367 1.472 . S
C385 C384 1.396 . S
C385 C386 1.348 . S
C386 H349 0.929 1_545 S
C386 C385 1.348 . S
C386 C387 1.443 . S
C387 H351 0.932 1_545 S
C387 C382 1.388 . S
C387 C386 1.443 . S
H388 C415 0.929 . S
N389 C414 1.433 . S
N389 C420 1.435 . S
N389 C426 1.423 . S
H390 C416 0.930 . S
H391 C419 0.931 . S
H392 C418 0.929 . S
H393 C421 0.930 . S
H394 C422 0.932 . S
H395 C425 0.929 . S
H396 C424 0.931 . S
H397 C427 0.929 . S
H398 C431 0.932 . S
H399 C428 0.931 . S
H400 C430 0.929 . S
H401 C433 0.929 . S
H402 C434 0.930 . S
H403 C436 0.929 . S
H404 C437 0.931 . S
H405 C439 0.930 . S
H406 C440 0.932 . S
H407 C442 0.931 . S
H408 C443 0.929 . S
H409 C445 0.929 . S
H410 C446 0.931 . S
H411 C448 0.929 . S
N412 C432 1.433 . S
N412 C438 1.435 . S
N412 C444 1.423 . S
H413 C449 0.932 . S
C414 N389 1.433 . S
C414 C415 1.363 . S
C414 C419 1.370 . S
C415 H388 0.929 . S
C415 C414 1.363 . S
C415 C416 1.385 . S
C416 H390 0.930 . S
C416 C415 1.385 . S
C416 C417 1.357 . S
C417 C416 1.357 . S
C417 C418 1.406 . S
C418 H392 0.929 . S
C418 C417 1.406 . S
C418 C419 1.391 . S
C419 H391 0.931 . S
C419 C414 1.370 . S
C419 C418 1.391 . S
C420 N389 1.435 . S
C420 C421 1.358 . S
C420 C425 1.371 . S
C421 H393 0.930 . S
C421 C420 1.358 . S
C421 C422 1.405 . S
C422 H394 0.932 . S
C422 C421 1.405 . S
C422 C423 1.383 . S
C423 C422 1.383 . S
C423 C424 1.393 . S
C424 H396 0.931 . S
C424 C423 1.393 . S
C424 C425 1.382 . S
C425 H395 0.929 . S
C425 C420 1.371 . S
C425 C424 1.382 . S
C426 N389 1.423 . S
C426 C427 1.362 . S
C426 C431 1.388 . S
C427 H397 0.929 . S
C427 C426 1.362 . S
C427 C428 1.376 . S
C428 H399 0.931 . S
C428 C427 1.376 . S
C428 C429 1.396 . S
C429 C428 1.396 . S
C429 C430 1.348 . S
C429 C447 1.472 . S
C430 H400 0.929 . S
C430 C429 1.348 . S
C430 C431 1.443 . S
C431 H398 0.932 . S
C431 C426 1.388 . S
C431 C430 1.443 . S
C432 N412 1.433 . S
C432 C433 1.363 . S
C432 C437 1.370 . S
C433 H401 0.929 . S
C433 C432 1.363 . S
C433 C434 1.385 . S
C434 H402 0.930 . S
C434 C433 1.385 . S
C434 C435 1.357 . S
C435 C434 1.357 . S
C435 C436 1.406 . S
C436 H403 0.929 . S
C436 C435 1.406 . S
C436 C437 1.391 . S
C437 H404 0.931 . S
C437 C432 1.370 . S
C437 C436 1.391 . S
C438 N412 1.435 . S
C438 C439 1.358 . S
C438 C443 1.371 . S
C439 H405 0.930 . S
C439 C438 1.358 . S
C439 C440 1.405 . S
C440 H406 0.932 . S
C440 C439 1.405 . S
C440 C441 1.383 . S
C441 C440 1.383 . S
C441 C442 1.393 . S
C442 H407 0.931 . S
C442 C441 1.393 . S
C442 C443 1.382 . S
C443 H408 0.929 . S
C443 C438 1.371 . S
C443 C442 1.382 . S
C444 N412 1.423 . S
C444 C445 1.362 . S
C444 C449 1.388 . S
C445 H409 0.929 . S
C445 C444 1.362 . S
C445 C446 1.376 . S
C446 H410 0.931 . S
C446 C445 1.376 . S
C446 C447 1.396 . S
C447 C429 1.472 . S
C447 C446 1.396 . S
C447 C448 1.348 . S
C448 H411 0.929 . S
C448 C447 1.348 . S
C448 C449 1.443 . S
C449 H413 0.932 . S
C449 C444 1.388 . S
C449 C448 1.443 . S
C450 C451 1.363 . S
C450 C456 1.379 . S
C450 N458 1.356 . S
C451 C450 1.363 . S
C451 C457 1.363 1_655 S
C452 C453 1.363 1_455 S
C452 C457 1.379 . S
C452 N459 1.356 . S
C453 C452 1.363 1_655 S
C453 C456 1.363 . S
N454 C456 1.356 . S
N454 H466 0.984 . S
N454 H467 0.985 . S
N455 C457 1.356 . S
N455 H460 0.984 1_455 S
N455 H461 0.985 . S
C456 C450 1.379 . S
C456 C453 1.363 . S
C456 N454 1.356 . S
C457 C451 1.363 1_455 S
C457 C452 1.379 . S
C457 N455 1.356 . S
N458 C450 1.356 . S
N458 H464 0.984 . S
N458 H465 0.984 . S
N459 C452 1.356 . S
N459 H462 0.984 . S
N459 H463 0.985 . S
H460 N455 0.984 1_655 S
H461 N455 0.985 . S
H462 N459 0.984 . S
H463 N459 0.985 . S
H464 N458 0.984 . S
H465 N458 0.984 . S
H466 N454 0.984 . S
H467 N454 0.985 . S
C468 C469 1.363 . S
C468 C474 1.379 . S
C468 N476 1.356 . S
C469 C468 1.363 . S
C469 C475 1.362 . S
C470 C471 1.363 1_545 S
C470 C475 1.379 1_545 S
C470 N477 1.356 . S
C471 C470 1.363 1_565 S
C471 C474 1.363 . S
N472 C474 1.356 . S
N472 H484 0.984 . S
N472 H485 0.985 . S
N473 C475 1.356 1_545 S
N473 H478 0.984 1_545 S
N473 H479 0.985 . S
C474 C468 1.379 . S
C474 C471 1.363 . S
C474 N472 1.356 . S
C475 C469 1.362 . S
C475 C470 1.379 1_565 S
C475 N473 1.356 1_565 S
N476 C468 1.356 . S
N476 H482 0.984 . S
N476 H483 0.984 . S
N477 C470 1.356 . S
N477 H480 0.984 . S
N477 H481 0.985 . S
H478 N473 0.984 1_565 S
H479 N473 0.985 . S
H480 N477 0.984 . S
H481 N477 0.985 . S
H482 N476 0.984 . S
H483 N476 0.984 . S
H484 N472 0.984 . S
H485 N472 0.985 . S
C486 C487 1.363 . S
C486 C492 1.379 . S
C486 N494 1.356 . S
C487 C486 1.363 . S
C487 C493 1.363 . S
C488 C489 1.363 . S
C488 C493 1.379 . S
C488 N495 1.356 . S
C489 C488 1.363 . S
C489 C492 1.363 . S
N490 C492 1.356 . S
N490 H502 0.984 . S
N490 H503 0.985 . S
N491 C493 1.356 . S
N491 H496 0.984 . S
N491 H497 0.985 . S
C492 C486 1.379 . S
C492 C489 1.363 . S
C492 N490 1.356 . S
C493 C487 1.363 . S
C493 C488 1.379 . S
C493 N491 1.356 . S
N494 C486 1.356 . S
N494 H500 0.984 . S
N494 H501 0.984 . S
N495 C488 1.356 . S
N495 H498 0.984 . S
N495 H499 0.985 . S
H496 N491 0.984 . S
H497 N491 0.985 . S
H498 N495 0.984 . S
H499 N495 0.985 . S
H500 N494 0.984 . S
H501 N494 0.984 . S
H502 N490 0.984 . S
H503 N490 0.985 . S
C504 C505 1.363 . S
C504 C510 1.379 . S
C504 N512 1.356 . S
C505 C504 1.363 . S
C505 C511 1.363 . S
C506 C507 1.363 1_655 S
C506 C511 1.379 1_655 S
C506 N513 1.356 . S
C507 C506 1.363 1_455 S
C507 C510 1.363 . S
N508 C510 1.356 . S
N508 H520 0.984 . S
N508 H521 0.985 . S
N509 C511 1.356 . S
N509 H514 0.984 . S
N509 H515 0.985 1_455 S
C510 C504 1.379 . S
C510 C507 1.363 . S
C510 N508 1.356 . S
C511 C505 1.363 . S
C511 C506 1.379 1_455 S
C511 N509 1.356 . S
N512 C504 1.356 . S
N512 H518 0.984 . S
N512 H519 0.984 . S
N513 C506 1.356 . S
N513 H516 0.984 . S
N513 H517 0.985 . S
H514 N509 0.984 . S
H515 N509 0.985 1_655 S
H516 N513 0.984 . S
H517 N513 0.985 . S
H518 N512 0.984 . S
H519 N512 0.984 . S
H520 N508 0.984 . S
H521 N508 0.985 . S
C522 C523 1.363 . S
C522 C528 1.379 . S
C522 N530 1.356 . S
C523 C522 1.363 . S
C523 C529 1.363 . S
C524 C525 1.363 . S
C524 C529 1.379 . S
C524 N531 1.356 . S
C525 C524 1.363 . S
C525 C528 1.363 . S
N526 C528 1.356 1_565 S
N526 H538 0.984 . S
N526 H539 0.985 . S
N527 C529 1.356 . S
N527 H532 0.984 . S
N527 H533 0.985 . S
C528 C522 1.379 . S
C528 C525 1.363 . S
C528 N526 1.356 1_545 S
C529 C523 1.363 . S
C529 C524 1.379 . S
C529 N527 1.356 . S
N530 C522 1.356 . S
N530 H536 0.984 . S
N530 H537 0.984 . S
N531 C524 1.356 . S
N531 H534 0.984 . S
N531 H535 0.985 . S
H532 N527 0.984 . S
H533 N527 0.985 . S
H534 N531 0.984 . S
H535 N531 0.985 . S
H536 N530 0.984 . S
H537 N530 0.984 . S
H538 N526 0.984 . S
H539 N526 0.985 . S
C540 C541 1.363 . S
C540 C546 1.379 . S
C540 N548 1.356 . S
C541 C540 1.363 . S
C541 C547 1.363 . S
C542 C543 1.363 . S
C542 C547 1.379 . S
C542 N549 1.356 . S
C543 C542 1.363 . S
C543 C546 1.363 . S
N544 C546 1.356 . S
N544 H556 0.984 . S
N544 H557 0.985 . S
N545 C547 1.356 . S
N545 H550 0.984 . S
N545 H551 0.985 . S
C546 C540 1.379 . S
C546 C543 1.363 . S
C546 N544 1.356 . S
C547 C541 1.363 . S
C547 C542 1.379 . S
C547 N545 1.356 . S
N548 C540 1.356 . S
N548 H554 0.984 . S
N548 H555 0.984 . S
N549 C542 1.356 . S
N549 H552 0.984 . S
N549 H553 0.985 . S
H550 N545 0.984 . S
H551 N545 0.985 . S
H552 N549 0.984 . S
H553 N549 0.985 . S
H554 N548 0.984 . S
H555 N548 0.984 . S
H556 N544 0.984 . S
H557 N544 0.985 . S
C558 C559 1.363 1_565 S
C558 C564 1.379 . S
C558 N566 1.356 . S
C559 C558 1.363 1_545 S
C559 C565 1.363 . S
C560 C561 1.363 . S
C560 C565 1.379 . S
C560 N567 1.356 . S
C561 C560 1.363 . S
C561 C564 1.363 1_545 S
N562 C564 1.356 . S
N562 H574 0.984 . S
N562 H575 0.985 . S
N563 C565 1.356 . S
N563 H568 0.984 . S
N563 H569 0.985 . S
C564 C558 1.379 . S
C564 C561 1.363 1_565 S
C564 N562 1.356 . S
C565 C559 1.363 . S
C565 C560 1.379 . S
C565 N563 1.356 . S
N566 C558 1.356 . S
N566 H572 0.984 . S
N566 H573 0.984 . S
N567 C560 1.356 . S
N567 H570 0.984 . S
N567 H571 0.985 . S
H568 N563 0.984 . S
H569 N563 0.985 . S
H570 N567 0.984 . S
H571 N567 0.985 . S
H572 N566 0.984 . S
H573 N566 0.984 . S
H574 N562 0.984 . S
H575 N562 0.985 . S
C576 C577 1.363 . S
C576 C582 1.379 . S
C576 N584 1.356 . S
C577 C576 1.363 . S
C577 C583 1.363 . S
C578 C579 1.363 . S
C578 C583 1.379 . S
C578 N585 1.356 . S
C579 C578 1.363 . S
C579 C582 1.363 . S
N580 C582 1.356 . S
N580 H592 0.984 . S
N580 H593 0.985 . S
N581 C583 1.356 . S
N581 H586 0.984 . S
N581 H587 0.985 . S
C582 C576 1.379 . S
C582 C579 1.363 . S
C582 N580 1.356 . S
C583 C577 1.363 . S
C583 C578 1.379 . S
C583 N581 1.356 . S
N584 C576 1.356 . S
N584 H590 0.984 1_556 S
N584 H591 0.985 . S
N585 C578 1.356 . S
N585 H588 0.984 . S
N585 H589 0.985 . S
H586 N581 0.984 . S
H587 N581 0.985 . S
H588 N585 0.984 . S
H589 N585 0.985 . S
H590 N584 0.984 1_554 S
H591 N584 0.985 . S
H592 N580 0.984 . S
H593 N580 0.985 . S
C594 C595 1.363 . S
C594 C600 1.379 . S
C594 N602 1.356 . S
C595 C594 1.363 . S
C595 C601 1.363 . S
C596 C597 1.363 1_455 S
C596 C601 1.379 1_455 S
C596 N603 1.356 . S
C597 C596 1.363 1_655 S
C597 C600 1.363 . S
N598 C600 1.356 . S
N598 H610 0.984 . S
N598 H611 0.985 . S
N599 C601 1.356 1_455 S
N599 H604 0.984 1_455 S
N599 H605 0.985 . S
C600 C594 1.379 . S
C600 C597 1.363 . S
C600 N598 1.356 . S
C601 C595 1.363 . S
C601 C596 1.379 1_655 S
C601 N599 1.356 1_655 S
N602 C594 1.356 . S
N602 H608 0.984 . S
N602 H609 0.984 . S
N603 C596 1.356 . S
N603 H606 0.984 . S
N603 H607 0.985 . S
H604 N599 0.984 1_655 S
H605 N599 0.985 . S
H606 N603 0.984 . S
H607 N603 0.985 . S
H608 N602 0.984 . S
H609 N602 0.984 . S
H610 N598 0.984 . S
H611 N598 0.985 . S
C612 C613 1.363 . S
C612 C618 1.379 . S
C612 N620 1.356 . S
C613 C612 1.363 . S
C613 C619 1.363 1_565 S
C614 C615 1.363 1_545 S
C614 C619 1.379 . S
C614 N621 1.356 . S
C615 C614 1.363 1_565 S
C615 C618 1.363 . S
N616 C618 1.356 . S
N616 H628 0.984 . S
N616 H629 0.985 . S
N617 C619 1.356 . S
N617 H622 0.984 . S
N617 H623 0.985 . S
C618 C612 1.379 . S
C618 C615 1.363 . S
C618 N616 1.356 . S
C619 C613 1.363 1_545 S
C619 C614 1.379 . S
C619 N617 1.356 . S
N620 C612 1.356 . S
N620 H626 0.984 . S
N620 H627 0.984 . S
N621 C614 1.356 . S
N621 H624 0.984 . S
N621 H625 0.985 . S
H622 N617 0.984 . S
H623 N617 0.985 . S
H624 N621 0.984 . S
H625 N621 0.985 . S
H626 N620 0.984 . S
H627 N620 0.984 . S
H628 N616 0.984 . S
H629 N616 0.985 . S
C630 C631 1.363 . S
C630 C636 1.379 . S
C630 N638 1.356 . S
C631 C630 1.363 . S
C631 C637 1.363 . S
C632 C633 1.363 . S
C632 C637 1.379 . S
C632 N639 1.356 . S
C633 C632 1.363 . S
C633 C636 1.363 . S
N634 C636 1.356 . S
N634 H646 0.984 . S
N634 H647 0.985 . S
N635 C637 1.356 . S
N635 H640 0.984 . S
N635 H641 0.985 . S
C636 C630 1.379 . S
C636 C633 1.363 . S
C636 N634 1.356 . S
C637 C631 1.363 . S
C637 C632 1.379 . S
C637 N635 1.356 . S
N638 C630 1.356 . S
N638 H644 0.984 . S
N638 H645 0.984 . S
N639 C632 1.356 . S
N639 H642 0.984 . S
N639 H643 0.985 . S
H640 N635 0.984 . S
H641 N635 0.985 . S
H642 N639 0.984 . S
H643 N639 0.985 . S
H644 N638 0.984 . S
H645 N638 0.984 . S
H646 N634 0.984 . S
H647 N634 0.985 . S
C648 C649 1.363 . S
C648 C654 1.379 . S
C648 N656 1.356 . S
C649 C648 1.363 . S
C649 C655 1.363 . S
C650 C651 1.363 . S
C650 C655 1.379 . S
C650 N657 1.356 . S
C651 C650 1.363 . S
C651 C654 1.363 . S
N652 C654 1.356 1_655 S
N652 H664 0.984 . S
N652 H665 0.985 . S
N653 C655 1.356 . S
N653 H658 0.984 . S
N653 H659 0.985 . S
C654 C648 1.379 . S
C654 C651 1.363 . S
C654 N652 1.356 1_455 S
C655 C649 1.363 . S
C655 C650 1.379 . S
C655 N653 1.356 . S
N656 C648 1.356 . S
N656 H662 0.984 1_455 S
N656 H663 0.984 . S
N657 C650 1.356 . S
N657 H660 0.984 . S
N657 H661 0.985 . S
H658 N653 0.984 . S
H659 N653 0.985 . S
H660 N657 0.984 . S
H661 N657 0.985 . S
H662 N656 0.984 1_655 S
H663 N656 0.984 . S
H664 N652 0.984 . S
H665 N652 0.985 . S
C453 C317 1.430 . S
C451 C29 1.410 . S
C469 C137 1.412 . S
C471 C361 1.456 1_565 S
C487 C225 1.412 . S
C489 C423 1.456 . S
C505 C49 1.412 . S
C507 C299 1.456 1_455 S
C525 C379 1.431 . S
C523 C117 1.410 . S
C541 C205 1.412 . S
C543 C441 1.428 . S
C561 C355 1.592 . S
C559 C233 1.709 . S
C577 C57 1.706 . S
C579 C417 1.594 . S
C597 C293 1.592 . S
C595 C108 1.709 . S
C615 C373 1.642 1_565 S
C613 C196 1.704 . S
C633 C435 1.642 . S
C631 C20 1.704 . S
C649 C145 1.706 . S
C651 C311 1.640 1_455 S
