# Generated by pormake.
# Topology pth, (4,4)-cn, num edge types: 1
# Building blocks:
#     Node 0, Type 0, BuildingBlock: CEKHIL_clean_sbu_0, # of connection points: 4
#     Node 1, Type 0, BuildingBlock: CEKHIL_clean_sbu_0, # of connection points: 4
#     Node 2, Type 0, BuildingBlock: CEKHIL_clean_sbu_0, # of connection points: 4
#     Node 3, Type 1, BuildingBlock: MUDLON_clean_linker_0, # of connection points: 4
#     Node 4, Type 1, BuildingBlock: MUDLON_clean_linker_0, # of connection points: 4
#     Node 5, Type 1, BuildingBlock: MUDLON_clean_linker_0, # of connection points: 4
#     Edge 6, Type (0, 1), BuildingBlock: XIVTED_clean_linker_0, # of connection points: 2
#     Edge 7, Type (0, 1), BuildingBlock: XIVTED_clean_linker_0, # of connection points: 2
#     Edge 8, Type (0, 1), BuildingBlock: XIVTED_clean_linker_0, # of connection points: 2
#     Edge 9, Type (0, 1), BuildingBlock: XIVTED_clean_linker_0, # of connection points: 2
#     Edge 10, Type (0, 1), BuildingBlock: XIVTED_clean_linker_0, # of connection points: 2
#     Edge 11, Type (0, 1), BuildingBlock: XIVTED_clean_linker_0, # of connection points: 2
#     Edge 12, Type (0, 1), BuildingBlock: XIVTED_clean_linker_0, # of connection points: 2
#     Edge 13, Type (0, 1), BuildingBlock: XIVTED_clean_linker_0, # of connection points: 2
#     Edge 14, Type (0, 1), BuildingBlock: XIVTED_clean_linker_0, # of connection points: 2
#     Edge 15, Type (0, 1), BuildingBlock: XIVTED_clean_linker_0, # of connection points: 2
#     Edge 16, Type (0, 1), BuildingBlock: XIVTED_clean_linker_0, # of connection points: 2
#     Edge 17, Type (0, 1), BuildingBlock: XIVTED_clean_linker_0, # of connection points: 2
# Relax obj value: 0.035
# Max RMSD: 0.091
# Mean RMSD: 0.088
data_MOF--net-pth--node1-CEKHIL_clean_sbu_0--node2-MUDLON_clean_linker_0--edge1-XIVTED_clean_linker_0
_symmetry_space_group_name_H-M    P1
_symmetry_Int_Tables_number       1
_symmetry_cell_setting            triclinic
loop_
_symmetry_equiv_pos_as_xyz
'x, y, z'
_cell_length_a     33.380346
_cell_length_b     33.487813
_cell_length_c     69.370977
_cell_angle_alpha  90.887852
_cell_angle_beta   89.998981
_cell_angle_gamma 120.27948
loop_
_atom_site_label
_atom_site_type_symbol
_atom_site_fract_x
_atom_site_fract_y
_atom_site_fract_z
_atom_type_partial_charge
Co0 Co 0.99548 0.02517 0.0374 0.0
O1 O 0.96623 0.97737 0.05606 0.0
O2 O 0.02582 0.98867 0.03817 0.0
C3 C 0.99987 0.08225 0.05666 0.0
O4 O 0.03587 0.07216 0.01731 0.0
Co5 Co 0.94532 0.0754 0.02248 0.0
O6 O 0.00516 0.11624 0.00967 0.0
C7 C 0.9139 0.97997 0.00942 0.0
C8 C 0.99634 0.96522 0.05159 0.0
C9 C 0.03732 0.10638 0.00843 0.0
O10 O 0.95055 0.98271 0.01688 0.0
O11 O 0.90322 0.01147 0.01172 0.0
O12 O 0.03123 0.07025 0.05776 0.0
O13 O 0.96541 0.05721 0.04518 0.0
Co14 Co 0.00325 0.0195 0.3552 0.0
O15 O 0.9731 0.04053 0.33793 0.0
O16 O 0.03219 0.08628 0.3572 0.0
C17 C 0.01059 0.97231 0.3338 0.0
O18 O 0.04394 0.0099 0.37444 0.0
Co19 Co 0.95437 0.9163 0.36613 0.0
O20 O 0.01679 0.93346 0.3761 0.0
C21 C 0.92255 0.97628 0.38338 0.0
C22 C 0.00227 0.08204 0.34412 0.0
C23 C 0.04765 0.97527 0.3799 0.0
O24 O 0.95745 0.01151 0.37586 0.0
O25 O 0.91326 0.93467 0.38023 0.0
O26 O 0.04037 0.01638 0.33428 0.0
O27 O 0.97505 0.95893 0.3449 0.0
Co28 Co 0.01183 0.02941 0.68902 0.0
O29 O 0.06303 0.06092 0.67168 0.0
O30 O 0.04785 0.99875 0.68814 0.0
C31 C 0.95763 0.02763 0.66906 0.0
O32 O 0.9615 0.9863 0.70757 0.0
Co33 Co 0.95815 0.07595 0.70458 0.0
O34 O 0.91188 0.01226 0.7123 0.0
C35 C 0.05114 0.10451 0.72036 0.0
C36 C 0.07377 0.02974 0.6757 0.0
C37 C 0.92303 0.98126 0.714 0.0
O38 O 0.05117 0.07116 0.71089 0.0
O39 O 0.01868 0.11411 0.71879 0.0
O40 O 0.97022 0.99683 0.66739 0.0
O41 O 0.98068 0.06045 0.68157 0.0
H42 H 0.98155 0.66928 0.21056 0.0
N43 N 0.05912 0.69333 0.18904 0.0
H44 H 0.97535 0.71432 0.23716 0.0
H45 H 0.1277 0.7675 0.20631 0.0
H46 H 0.1226 0.81162 0.23364 0.0
H47 H 0.11776 0.74039 0.16109 0.0
H48 H 0.10408 0.77767 0.13385 0.0
H49 H 0.97487 0.68184 0.17779 0.0
H50 H 0.96002 0.71556 0.15009 0.0
H51 H 0.9736 0.61526 0.18246 0.0
H52 H 0.11453 0.66277 0.20032 0.0
H53 H 0.95396 0.53586 0.1869 0.0
H54 H 0.09455 0.58279 0.20569 0.0
H55 H 0.9037 0.28604 0.22259 0.0
H56 H 0.91228 0.25035 0.25144 0.0
H57 H 0.0535 0.36325 0.25834 0.0
H58 H 0.04492 0.39754 0.22887 0.0
H59 H 0.03975 0.34604 0.19833 0.0
H60 H 0.04733 0.30496 0.17063 0.0
H61 H 0.92258 0.29241 0.14567 0.0
H62 H 0.91381 0.33096 0.17419 0.0
H63 H 0.91888 0.40132 0.21464 0.0
H64 H 0.94153 0.4826 0.21135 0.0
H65 H 0.0751 0.51187 0.1898 0.0
N66 N 0.96767 0.36132 0.20543 0.0
H67 H 0.05274 0.43101 0.19407 0.0
C68 C 0.05514 0.7156 0.20626 0.0
C69 C 0.01246 0.70028 0.21551 0.0
C70 C 0.00908 0.7259 0.2309 0.0
C71 C 0.04836 0.76704 0.23745 0.0
C72 C 0.09137 0.78082 0.22871 0.0
C73 C 0.09455 0.75548 0.21322 0.0
C74 C 0.04752 0.7078 0.17143 0.0
C75 C 0.0831 0.73428 0.1585 0.0
C76 C 0.07509 0.75541 0.14289 0.0
C77 C 0.03098 0.75015 0.1398 0.0
C78 C 0.99472 0.72138 0.15219 0.0
C79 C 0.00301 0.7011 0.16797 0.0
C80 C 0.04602 0.64539 0.19081 0.0
C81 C 0.00055 0.60891 0.18729 0.0
C82 C 0.9891 0.56312 0.19009 0.0
C83 C 0.02257 0.55269 0.19676 0.0
C84 C 0.068 0.58931 0.20028 0.0
C85 C 0.07948 0.63506 0.19729 0.0
C86 C 0.9733 0.34443 0.22365 0.0
C87 C 0.93625 0.30329 0.2305 0.0
C88 C 0.94125 0.28317 0.2471 0.0
C89 C 0.98358 0.30398 0.25739 0.0
C90 C 0.02056 0.34598 0.25072 0.0
C91 C 0.01557 0.36593 0.23395 0.0
C92 C 0.97544 0.34059 0.18852 0.0
C93 C 0.01388 0.33423 0.18697 0.0
C94 C 0.01848 0.31114 0.17092 0.0
C95 C 0.98532 0.29476 0.15588 0.0
C96 C 0.94816 0.30329 0.15714 0.0
C97 C 0.94321 0.32567 0.17334 0.0
C98 C 0.98377 0.41005 0.20445 0.0
C99 C 0.95318 0.42553 0.20941 0.0
C100 C 0.96608 0.47188 0.20731 0.0
C101 C 0.00995 0.50383 0.20002 0.0
C102 C 0.04117 0.48843 0.19557 0.0
C103 C 0.02833 0.44205 0.19787 0.0
H104 H 0.72382 0.13023 0.55513 0.0
N105 N 0.67524 0.06986 0.52711 0.0
H106 H 0.76442 0.11932 0.58209 0.0
H107 H 0.6698 0.9883 0.53712 0.0
H108 H 0.70777 0.9763 0.56442 0.0
H109 H 0.63617 0.99018 0.50489 0.0
H110 H 0.67168 0.97453 0.47727 0.0
H111 H 0.75326 0.1287 0.50969 0.0
H112 H 0.78984 0.11301 0.4824 0.0
H113 H 0.64087 0.12276 0.51687 0.0
H114 H 0.59979 0.9869 0.53777 0.0
H115 H 0.55952 0.10309 0.51652 0.0
H116 H 0.51946 0.96776 0.53819 0.0
H117 H 0.33241 0.05682 0.53925 0.0
H118 H 0.29648 0.0661 0.56812 0.0
H119 H 0.27762 0.93698 0.5894 0.0
H120 H 0.3113 0.92683 0.55971 0.0
H121 H 0.2652 0.91354 0.51222 0.0
H122 H 0.2245 0.91782 0.48373 0.0
H123 H 0.3264 0.0629 0.4788 0.0
H124 H 0.36668 0.05822 0.50746 0.0
H125 H 0.41446 0.06704 0.53794 0.0
H126 H 0.49624 0.0887 0.53736 0.0
H127 H 0.45679 0.95087 0.51699 0.0
N128 N 0.34011 0.9814 0.52932 0.0
H129 H 0.37514 0.92928 0.51836 0.0
C130 C 0.69355 0.06027 0.54416 0.0
C131 C 0.71978 0.09644 0.5573 0.0
C132 C 0.74277 0.09 0.57274 0.0
C133 C 0.7397 0.04694 0.57541 0.0
C134 C 0.71174 0.01017 0.56264 0.0
C135 C 0.68932 0.01683 0.54709 0.0
C136 C 0.69205 0.06094 0.50933 0.0
C137 C 0.66923 0.01751 0.49986 0.0
C138 C 0.68987 0.00843 0.48414 0.0
C139 C 0.73381 0.04239 0.47764 0.0
C140 C 0.75573 0.08621 0.48679 0.0
C141 C 0.73499 0.09527 0.50243 0.0
C142 C 0.62685 0.05674 0.52743 0.0
C143 C 0.61439 0.08887 0.52152 0.0
C144 C 0.56793 0.07764 0.52145 0.0
C145 C 0.53281 0.0338 0.52734 0.0
C146 C 0.54541 0.0016 0.53328 0.0
C147 C 0.59178 0.01278 0.53323 0.0
C148 C 0.32367 0.99051 0.54715 0.0
C149 C 0.32057 0.03048 0.55008 0.0
C150 C 0.30038 0.03599 0.56681 0.0
C151 C 0.2836 0.00209 0.58116 0.0
C152 C 0.28902 0.9633 0.57853 0.0
C153 C 0.30863 0.95756 0.56167 0.0
C154 C 0.31882 0.9853 0.51193 0.0
C155 C 0.27887 0.9461 0.50487 0.0
C156 C 0.25586 0.94864 0.48855 0.0
C157 C 0.27233 0.9907 0.47893 0.0
C158 C 0.31267 0.0301 0.48596 0.0
C159 C 0.33586 0.02742 0.50229 0.0
C160 C 0.38873 0.99624 0.5284 0.0
C161 C 0.42347 0.04153 0.53341 0.0
C162 C 0.47028 0.05394 0.53292 0.0
C163 C 0.48321 0.02143 0.52727 0.0
C164 C 0.4482 0.97653 0.52182 0.0
C165 C 0.40155 0.96416 0.52244 0.0
H166 H 0.62948 0.72945 0.87968 0.0
N167 N 0.64453 0.67337 0.85746 0.0
H168 H 0.67373 0.77347 0.90812 0.0
H169 H 0.71635 0.66909 0.87409 0.0
H170 H 0.75945 0.71089 0.90311 0.0
H171 H 0.70741 0.65753 0.83887 0.0
H172 H 0.75163 0.69736 0.81017 0.0
H173 H 0.63477 0.73313 0.8364 0.0
H174 H 0.67916 0.77392 0.80812 0.0
H175 H 0.55403 0.63969 0.85393 0.0
H176 H 0.65618 0.59893 0.8622 0.0
H177 H 0.492 0.55912 0.85636 0.0
H178 H 0.59461 0.51853 0.86558 0.0
H179 H 0.31842 0.35913 0.87814 0.0
H180 H 0.26523 0.32547 0.90472 0.0
H181 H 0.33705 0.25443 0.9222 0.0
H182 H 0.39255 0.29145 0.89615 0.0
H183 H 0.36383 0.26245 0.85146 0.0
H184 H 0.31136 0.22665 0.82387 0.0
H185 H 0.30215 0.3501 0.81784 0.0
H186 H 0.35349 0.38491 0.84574 0.0
H187 H 0.39183 0.42285 0.88258 0.0
H188 H 0.45505 0.50138 0.87969 0.0
H189 H 0.53497 0.45222 0.84901 0.0
N190 N 0.38907 0.34351 0.86835 0.0
H191 H 0.47156 0.37258 0.85269 0.0
C192 C 0.66929 0.69581 0.87494 0.0
C193 C 0.65761 0.72509 0.88489 0.0
C194 C 0.68281 0.74992 0.90122 0.0
C195 C 0.72017 0.74566 0.90807 0.0
C196 C 0.7313 0.7155 0.89818 0.0
C197 C 0.70628 0.69104 0.88168 0.0
C198 C 0.66774 0.69243 0.83963 0.0
C199 C 0.70069 0.68237 0.83201 0.0
C200 C 0.72613 0.70543 0.81569 0.0
C201 C 0.71902 0.73892 0.80677 0.0
C202 C 0.68507 0.74781 0.81429 0.0
C203 C 0.65977 0.72475 0.83052 0.0
C204 C 0.60948 0.6253 0.85802 0.0
C205 C 0.56293 0.6132 0.85631 0.0
C206 C 0.5276 0.56719 0.85791 0.0
C207 C 0.53814 0.53219 0.86145 0.0
C208 C 0.58511 0.5444 0.86274 0.0
C209 C 0.62048 0.59053 0.86096 0.0
C210 C 0.36029 0.32854 0.88531 0.0
C211 C 0.32377 0.33754 0.888 0.0
C212 C 0.29265 0.3174 0.90311 0.0
C213 C 0.29612 0.28645 0.91556 0.0
C214 C 0.3334 0.27844 0.91313 0.0
C215 C 0.36518 0.29946 0.89821 0.0
C216 C 0.36271 0.32621 0.85064 0.0
C217 C 0.35096 0.28192 0.84396 0.0
C218 C 0.32111 0.26165 0.82815 0.0
C219 C 0.30234 0.28542 0.81865 0.0
C220 C 0.31539 0.33054 0.82499 0.0
C221 C 0.34513 0.3507 0.84087 0.0
C222 C 0.42672 0.39103 0.86795 0.0
C223 C 0.42275 0.42825 0.87539 0.0
C224 C 0.45914 0.47374 0.87354 0.0
C225 C 0.50017 0.48343 0.86397 0.0
C226 C 0.50423 0.4462 0.85668 0.0
C227 C 0.46795 0.40063 0.85871 0.0
H228 H 0.07142 0.14595 0.07942 0.0
H229 H 0.91379 0.2216 0.13623 0.0
H230 H 0.93048 0.1015 0.06243 0.0
H231 H 0.06348 0.30405 0.13798 0.0
H232 H 0.91904 0.17476 0.11031 0.0
H233 H 0.06946 0.20176 0.10215 0.0
C234 C 0.04022 0.14821 0.08036 0.0
C235 C 0.00097 0.11893 0.06912 0.0
C236 C 0.95073 0.20334 0.11627 0.0
C237 C 0.9983 0.18206 0.09518 0.0
C238 C 0.94782 0.23043 0.13104 0.0
C239 C 0.98827 0.26716 0.13942 0.0
C240 C 0.99437 0.21234 0.10994 0.0
C241 C 0.03131 0.27572 0.13228 0.0
C242 C 0.03916 0.18008 0.09329 0.0
C243 C 0.96149 0.12335 0.07086 0.0
N244 N 0.03323 0.24829 0.11808 0.0
N245 N 0.96099 0.15393 0.08381 0.0
H246 H 0.85228 0.91374 0.40624 0.0
H247 H 0.78823 0.09834 0.44853 0.0
H248 H 0.92301 0.05742 0.39028 0.0
H249 H 0.73515 0.96183 0.47156 0.0
H250 H 0.83235 0.08166 0.42491 0.0
H251 H 0.80355 0.92854 0.42804 0.0
C252 C 0.85754 0.94838 0.40726 0.0
C253 C 0.89205 0.98442 0.39643 0.0
C254 C 0.81088 0.0553 0.43508 0.0
C255 C 0.83614 0.00153 0.42138 0.0
C256 C 0.78577 0.06484 0.44864 0.0
C257 C 0.758 0.03155 0.46217 0.0
C258 C 0.8082 0.01207 0.43497 0.0
C259 C 0.75557 0.98842 0.4613 0.0
C260 C 0.82971 0.9568 0.41975 0.0
C261 C 0.89712 0.02858 0.3984 0.0
N262 N 0.78045 0.98001 0.448 0.0
N263 N 0.86951 0.03586 0.41062 0.0
H264 H 0.8303 0.94493 0.71983 0.0
H265 H 0.81245 0.77331 0.80128 0.0
H266 H 0.94346 0.92202 0.73292 0.0
H267 H 0.69274 0.7682 0.77491 0.0
H268 H 0.8612 0.82632 0.77631 0.0
H269 H 0.7796 0.8799 0.74001 0.0
C270 C 0.84444 0.92602 0.72687 0.0
C271 C 0.89131 0.93918 0.72479 0.0
C272 C 0.82418 0.81315 0.77588 0.0
C273 C 0.83338 0.86472 0.74814 0.0
C274 C 0.79621 0.78263 0.79009 0.0
C275 C 0.74834 0.76658 0.7904 0.0
C276 C 0.80427 0.8281 0.76199 0.0
C277 C 0.72955 0.78047 0.77559 0.0
C278 C 0.81539 0.88873 0.73835 0.0
C279 C 0.90755 0.91307 0.73413 0.0
N280 N 0.75758 0.81077 0.76216 0.0
N281 N 0.87877 0.87743 0.74561 0.0
H282 H 0.9374 0.91162 0.07948 0.0
H283 H 0.07012 0.77513 0.10357 0.0
H284 H 0.05876 0.93437 0.04821 0.0
H285 H 0.97556 0.78869 0.14197 0.0
H286 H 0.05996 0.82402 0.08039 0.0
H287 H 0.9433 0.85549 0.09925 0.0
C288 C 0.96521 0.90461 0.07667 0.0
C289 C 0.99792 0.92811 0.06226 0.0
C290 C 0.04129 0.81588 0.09386 0.0
C291 C 0.005 0.86367 0.08505 0.0
C292 C 0.04717 0.78814 0.10716 0.0
C293 C 0.02354 0.77737 0.12483 0.0
C294 C 0.0113 0.83268 0.0982 0.0
C295 C 0.99379 0.79488 0.12846 0.0
C296 C 0.96862 0.87256 0.08803 0.0
C297 C 0.03295 0.91719 0.05923 0.0
N298 N 0.9886 0.82151 0.11531 0.0
N299 N 0.03576 0.88586 0.07063 0.0
H300 H 0.10861 0.05349 0.40081 0.0
H301 H 0.23366 0.92834 0.44901 0.0
H302 H 0.07811 0.91492 0.38658 0.0
H303 H 0.2522 0.05856 0.47009 0.0
H304 H 0.1849 0.92867 0.42294 0.0
H305 H 0.16958 0.06169 0.42311 0.0
C306 C 0.11504 0.02503 0.40219 0.0
C307 C 0.0878 0.98326 0.39196 0.0
C308 C 0.19979 0.95737 0.43318 0.0
C309 C 0.15735 0.99241 0.41738 0.0
C310 C 0.22753 0.95709 0.44813 0.0
C311 C 0.24655 0.99315 0.46193 0.0
C312 C 0.19072 0.99392 0.43196 0.0
C313 C 0.2383 0.03007 0.45976 0.0
C314 C 0.14971 0.02967 0.41497 0.0
C315 C 0.09773 0.94755 0.39433 0.0
N316 N 0.21063 0.02931 0.44516 0.0
N317 N 0.13143 0.95288 0.40682 0.0
H318 H 0.13027 0.10022 0.72649 0.0
H319 H 0.22377 0.28989 0.81187 0.0
H320 H 0.06112 0.17358 0.74519 0.0
H321 H 0.3006 0.22734 0.78972 0.0
H322 H 0.16455 0.24832 0.78714 0.0
H323 H 0.19314 0.14643 0.74939 0.0
C324 C 0.12823 0.12602 0.73538 0.0
C325 C 0.0901 0.1328 0.73391 0.0
C326 C 0.19446 0.24383 0.78761 0.0
C327 C 0.16215 0.18589 0.76019 0.0
C328 C 0.22856 0.26788 0.80166 0.0
C329 C 0.26738 0.2622 0.80293 0.0
C330 C 0.19892 0.21358 0.77471 0.0
C331 C 0.27101 0.23235 0.78949 0.0
C332 C 0.16426 0.15248 0.74843 0.0
C333 C 0.08966 0.16697 0.74578 0.0
N334 N 0.23716 0.20905 0.77601 0.0
N335 N 0.12499 0.19205 0.75843 0.0
H336 H 0.91166 0.96845 0.63898 0.0
H337 H 0.76076 0.08492 0.6122 0.0
H338 H 0.92033 0.08412 0.671 0.0
H339 H 0.78328 0.99608 0.57341 0.0
H340 H 0.81061 0.07782 0.63614 0.0
H341 H 0.85494 0.97012 0.61727 0.0
C342 C 0.90138 0.99401 0.64152 0.0
C343 C 0.92096 0.02642 0.65672 0.0
C344 C 0.80434 0.05974 0.6224 0.0
C345 C 0.85607 0.02855 0.63191 0.0
C346 C 0.77606 0.06392 0.60868 0.0
C347 C 0.76766 0.0411 0.59067 0.0
C348 C 0.82417 0.03232 0.61816 0.0
C349 C 0.78791 0.01371 0.58714 0.0
C350 C 0.86911 0.99504 0.62908 0.0
C351 C 0.90628 0.0587 0.65936 0.0
N352 N 0.81517 0.01016 0.60072 0.0
N353 N 0.87476 0.05904 0.64704 0.0
H354 H 0.82252 0.94622 0.00069 0.0
H355 H 0.81444 0.78595 0.91406 0.0
H356 H 0.93609 0.92258 0.98929 0.0
H357 H 0.69059 0.77075 0.94067 0.0
H358 H 0.86047 0.83737 0.94066 0.0
H359 H 0.77437 0.88413 0.97779 0.0
C360 C 0.83727 0.92777 0.99344 0.0
C361 C 0.8835 0.93978 0.99683 0.0
C362 C 0.82316 0.82238 0.94073 0.0
C363 C 0.82862 0.86892 0.97042 0.0
C364 C 0.79672 0.79277 0.92558 0.0
C365 C 0.74838 0.77409 0.92494 0.0
C366 C 0.80129 0.83399 0.95522 0.0
C367 C 0.72776 0.78508 0.94022 0.0
C368 C 0.80968 0.89219 0.98043 0.0
C369 C 0.90062 0.91442 0.98713 0.0
N370 N 0.75434 0.81464 0.95459 0.0
N371 N 0.87335 0.88055 0.97415 0.0
H372 H 0.95688 0.87762 0.33096 0.0
H373 H 0.09358 0.86168 0.23943 0.0
H374 H 0.0783 0.99428 0.30727 0.0
H375 H 0.99316 0.74072 0.26982 0.0
H376 H 0.08589 0.91035 0.26373 0.0
H377 H 0.96684 0.82633 0.30827 0.0
C378 C 0.98567 0.89239 0.32105 0.0
C379 C 0.0167 0.94027 0.32093 0.0
C380 C 0.06568 0.87317 0.26518 0.0
C381 C 0.02812 0.88207 0.29496 0.0
C382 C 0.0703 0.84522 0.25134 0.0
C383 C 0.04427 0.79683 0.25258 0.0
C384 C 0.03444 0.85283 0.28038 0.0
C385 C 0.01362 0.77779 0.26812 0.0
C386 C 0.99137 0.86314 0.30814 0.0
C387 C 0.05348 0.9576 0.30784 0.0
N388 N 0.00945 0.80584 0.28139 0.0
N389 N 0.05799 0.92858 0.29533 0.0
H390 H 0.14512 0.09911 0.65613 0.0
H391 H 0.20898 0.93231 0.59991 0.0
H392 H 0.08772 0.95618 0.67138 0.0
H393 H 0.29963 0.08068 0.60124 0.0
H394 H 0.164 0.93987 0.62589 0.0
H395 H 0.20166 0.09321 0.63571 0.0
C396 C 0.14477 0.0666 0.65534 0.0
C397 C 0.11156 0.02798 0.66536 0.0
C398 C 0.19406 0.9707 0.62063 0.0
C399 C 0.17565 0.02078 0.64178 0.0
C400 C 0.22005 0.96647 0.60582 0.0
C401 C 0.25825 0.00596 0.59815 0.0
C402 C 0.20572 0.01477 0.62769 0.0
C403 C 0.26994 0.04928 0.60628 0.0
C404 C 0.17711 0.06329 0.64371 0.0
C405 C 0.11277 0.98678 0.66389 0.0
N406 N 0.24349 0.05255 0.62043 0.0
N407 N 0.14386 0.98403 0.65206 0.0
H408 H 0.04163 0.1641 0.98012 0.0
H409 H 0.30515 0.25824 0.95184 0.0
H410 H 0.12306 0.11304 0.00729 0.0
H411 H 0.20275 0.25505 0.91271 0.0
H412 H 0.2433 0.21454 0.97499 0.0
H413 H 0.10553 0.20871 0.95828 0.0
C414 C 0.07305 0.16242 0.98159 0.0
C415 C 0.07685 0.13458 0.99556 0.0
C416 C 0.23466 0.22363 0.96132 0.0
C417 C 0.1504 0.18595 0.97052 0.0
C418 C 0.26987 0.24843 0.94803 0.0
C419 C 0.25952 0.26087 0.93022 0.0
C420 C 0.1889 0.21173 0.9569 0.0
C421 C 0.21301 0.24756 0.92636 0.0
C422 C 0.10945 0.18777 0.96903 0.0
C423 C 0.1185 0.13379 0.99667 0.0
N424 N 0.17964 0.22402 0.93959 0.0
N425 N 0.15381 0.15927 0.98434 0.0
H426 H 0.07572 0.16939 0.33833 0.0
H427 H 0.91956 0.25357 0.28507 0.0
H428 H 0.92751 0.08494 0.33078 0.0
H429 H 0.06085 0.2999 0.2684 0.0
H430 H 0.92588 0.20545 0.30957 0.0
H431 H 0.07394 0.23124 0.32021 0.0
C432 C 0.04279 0.16431 0.3332 0.0
C433 C 0.00172 0.12207 0.33588 0.0
C434 C 0.95561 0.22661 0.30066 0.0
C435 C 0.9994 0.19223 0.31552 0.0
C436 C 0.95202 0.25391 0.28658 0.0
C437 C 0.98938 0.28021 0.27427 0.0
C438 C 0.99705 0.22594 0.30272 0.0
C439 C 0.03108 0.28034 0.27748 0.0
C440 C 0.04184 0.19936 0.32281 0.0
C441 C 0.95997 0.11692 0.32886 0.0
N442 N 0.03368 0.25328 0.2913 0.0
N443 N 0.95986 0.15155 0.319 0.0
loop_
_geom_bond_atom_site_label_1
_geom_bond_atom_site_label_2
_geom_bond_distance
_geom_bond_site_symmetry_2
_ccdc_geom_bond_type
Co0 O1 2.216 1_445 S
Co0 O2 2.091 1_545 S
Co0 O4 2.004 . S
Co0 O10 2.021 1_445 S
Co0 O12 2.137 . S
Co0 O13 2.244 1_455 S
O1 Co0 2.216 1_665 S
O1 C8 1.247 1_655 S
O2 Co0 2.091 1_565 S
O2 C8 1.261 . S
C3 O12 1.247 . S
C3 O13 1.272 1_455 S
O4 Co0 2.004 . S
O4 C9 1.259 . S
Co5 O6 2.042 1_654 S
Co5 O11 2.052 . S
Co5 O13 2.135 . S
O6 Co5 2.042 1_456 S
O6 C9 1.224 1_556 S
C7 O10 1.238 . S
C7 O11 1.241 1_565 S
C8 O1 1.247 1_455 S
C8 O2 1.261 . S
C9 O4 1.259 . S
C9 O6 1.224 1_554 S
O10 Co0 2.021 1_665 S
O10 C7 1.238 . S
O11 Co5 2.052 . S
O11 C7 1.241 1_545 S
O12 Co0 2.137 . S
O12 C3 1.247 . S
O13 Co0 2.244 1_655 S
O13 C3 1.272 1_655 S
O13 Co5 2.135 . S
Co14 O15 2.216 1_455 S
Co14 O16 2.091 . S
Co14 O18 2.004 . S
Co14 O24 2.021 1_455 S
Co14 O26 2.137 . S
Co14 O27 2.244 1_445 S
O15 Co14 2.216 1_655 S
O15 C22 1.247 1_655 S
O16 Co14 2.091 . S
O16 C22 1.261 . S
C17 O26 1.247 1_565 S
C17 O27 1.272 1_455 S
O18 Co14 2.004 . S
O18 C23 1.259 . S
Co19 O20 2.061 1_655 S
Co19 O25 2.052 . S
Co19 O27 2.135 . S
O20 Co19 2.061 1_455 S
O20 C23 1.235 1_565 S
C21 O24 1.238 . S
C21 O25 1.241 1_545 S
C22 O15 1.247 1_455 S
C22 O16 1.261 . S
C23 O18 1.259 . S
C23 O20 1.235 1_545 S
O24 Co14 2.021 1_655 S
O24 C21 1.238 . S
O25 Co19 2.052 . S
O25 C21 1.241 1_565 S
O26 Co14 2.137 . S
O26 C17 1.247 1_545 S
O27 Co14 2.244 1_665 S
O27 C17 1.272 1_655 S
O27 Co19 2.135 . S
Co28 O29 2.216 . S
Co28 O30 2.091 1_545 S
Co28 O32 2.004 1_445 S
Co28 O38 2.021 . S
Co28 O40 2.137 1_445 S
Co28 O41 2.244 1_455 S
O29 Co28 2.216 . S
O29 C36 1.247 . S
O30 Co28 2.091 1_565 S
O30 C36 1.261 1_565 S
C31 O40 1.247 1_545 S
C31 O41 1.272 . S
O32 Co28 2.004 1_665 S
O32 C37 1.259 . S
Co33 O34 2.061 1_545 S
Co33 O39 2.052 1_655 S
Co33 O41 2.135 . S
O34 Co33 2.061 1_565 S
O34 C37 1.235 . S
C35 O38 1.238 . S
C35 O39 1.241 . S
C36 O29 1.247 . S
C36 O30 1.261 1_545 S
C37 O32 1.259 . S
C37 O34 1.235 . S
O38 Co28 2.021 . S
O38 C35 1.238 . S
O39 Co33 2.052 1_455 S
O39 C35 1.241 . S
O40 Co28 2.137 1_665 S
O40 C31 1.247 1_565 S
O41 Co28 2.244 1_655 S
O41 C31 1.272 . S
O41 Co33 2.135 . S
H42 C69 0.929 . S
N43 C68 1.433 . S
N43 C74 1.435 . S
N43 C80 1.423 . S
H44 C70 0.930 . S
H45 C73 0.931 . S
H46 C72 0.929 . S
H47 C75 0.930 . S
H48 C76 0.932 . S
H49 C79 0.929 . S
H50 C78 0.931 . S
H51 C81 0.929 . S
H52 C85 0.932 . S
H53 C82 0.931 . S
H54 C84 0.929 1_455 S
H55 C87 0.929 . S
H56 C88 0.930 . S
H57 C90 0.929 . S
H58 C91 0.931 . S
H59 C93 0.930 . S
H60 C94 0.932 . S
H61 C96 0.931 . S
H62 C97 0.929 . S
H63 C99 0.929 . S
H64 C100 0.931 . S
H65 C102 0.929 1_455 S
N66 C86 1.433 . S
N66 C92 1.435 . S
N66 C98 1.423 . S
H67 C103 0.932 . S
C68 N43 1.433 . S
C68 C69 1.363 . S
C68 C73 1.370 1_655 S
C69 H42 0.929 . S
C69 C68 1.363 . S
C69 C70 1.385 . S
C70 H44 0.930 . S
C70 C69 1.385 . S
C70 C71 1.357 1_655 S
C71 C70 1.357 1_455 S
C71 C72 1.406 . S
C72 H46 0.929 . S
C72 C71 1.406 . S
C72 C73 1.391 . S
C73 H45 0.931 . S
C73 C68 1.370 1_455 S
C73 C72 1.391 . S
C74 N43 1.435 . S
C74 C75 1.358 1_655 S
C74 C79 1.371 . S
C75 H47 0.930 . S
C75 C74 1.358 1_455 S
C75 C76 1.405 . S
C76 H48 0.932 . S
C76 C75 1.405 . S
C76 C77 1.383 . S
C77 C76 1.383 . S
C77 C78 1.393 1_455 S
C78 H50 0.931 . S
C78 C77 1.393 1_655 S
C78 C79 1.382 . S
C79 H49 0.929 . S
C79 C74 1.371 . S
C79 C78 1.382 . S
C80 N43 1.423 . S
C80 C81 1.362 . S
C80 C85 1.388 1_655 S
C81 H51 0.929 . S
C81 C80 1.362 . S
C81 C82 1.376 . S
C82 H53 0.931 . S
C82 C81 1.376 . S
C82 C83 1.396 . S
C83 C82 1.396 . S
C83 C84 1.348 . S
C83 C101 1.472 . S
C84 H54 0.929 1_655 S
C84 C83 1.348 . S
C84 C85 1.443 1_655 S
C85 H52 0.932 . S
C85 C80 1.388 1_455 S
C85 C84 1.443 1_455 S
C86 N66 1.433 . S
C86 C87 1.363 . S
C86 C91 1.370 1_655 S
C87 H55 0.929 . S
C87 C86 1.363 . S
C87 C88 1.385 . S
C88 H56 0.930 . S
C88 C87 1.385 . S
C88 C89 1.357 1_655 S
C89 C88 1.357 1_455 S
C89 C90 1.406 . S
C90 H57 0.929 . S
C90 C89 1.406 . S
C90 C91 1.391 . S
C91 H58 0.931 . S
C91 C86 1.370 1_455 S
C91 C90 1.391 . S
C92 N66 1.435 . S
C92 C93 1.358 1_655 S
C92 C97 1.371 . S
C93 H59 0.930 . S
C93 C92 1.358 1_455 S
C93 C94 1.405 . S
C94 H60 0.932 . S
C94 C93 1.405 . S
C94 C95 1.383 . S
C95 C94 1.383 . S
C95 C96 1.393 1_455 S
C96 H61 0.931 . S
C96 C95 1.393 1_655 S
C96 C97 1.382 . S
C97 H62 0.929 . S
C97 C92 1.371 . S
C97 C96 1.382 . S
C98 N66 1.423 . S
C98 C99 1.362 . S
C98 C103 1.388 1_655 S
C99 H63 0.929 . S
C99 C98 1.362 . S
C99 C100 1.376 . S
C100 H64 0.931 . S
C100 C99 1.376 . S
C100 C101 1.396 . S
C101 C83 1.472 . S
C101 C100 1.396 . S
C101 C102 1.348 . S
C102 H65 0.929 1_655 S
C102 C101 1.348 . S
C102 C103 1.443 1_655 S
C103 H67 0.932 . S
C103 C98 1.388 1_455 S
C103 C102 1.443 1_455 S
H104 C131 0.929 . S
N105 C130 1.433 . S
N105 C136 1.435 . S
N105 C142 1.423 . S
H106 C132 0.930 . S
H107 C135 0.931 . S
H108 C134 0.929 . S
H109 C137 0.930 . S
H110 C138 0.932 . S
H111 C141 0.929 . S
H112 C140 0.931 . S
H113 C143 0.929 . S
H114 C147 0.932 1_565 S
H115 C144 0.931 . S
H116 C146 0.929 . S
H117 C149 0.929 . S
H118 C150 0.930 . S
H119 C152 0.929 . S
H120 C153 0.930 . S
H121 C155 0.930 . S
H122 C156 0.932 . S
H123 C158 0.931 . S
H124 C159 0.929 . S
H125 C161 0.929 . S
H126 C162 0.931 . S
H127 C164 0.929 . S
N128 C148 1.433 . S
N128 C154 1.435 . S
N128 C160 1.423 . S
H129 C165 0.932 1_565 S
C130 N105 1.433 . S
C130 C131 1.363 . S
C130 C135 1.370 1_545 S
C131 H104 0.929 . S
C131 C130 1.363 . S
C131 C132 1.385 . S
C132 H106 0.930 . S
C132 C131 1.385 . S
C132 C133 1.357 . S
C133 C132 1.357 . S
C133 C134 1.406 1_545 S
C134 H108 0.929 . S
C134 C133 1.406 1_565 S
C134 C135 1.391 . S
C135 H107 0.931 . S
C135 C130 1.370 1_565 S
C135 C134 1.391 . S
C136 N105 1.435 . S
C136 C137 1.358 1_545 S
C136 C141 1.371 . S
C137 H109 0.930 . S
C137 C136 1.358 1_565 S
C137 C138 1.405 . S
C138 H110 0.932 . S
C138 C137 1.405 . S
C138 C139 1.383 1_565 S
C139 C138 1.383 1_545 S
C139 C140 1.393 . S
C140 H112 0.931 . S
C140 C139 1.393 . S
C140 C141 1.382 . S
C141 H111 0.929 . S
C141 C136 1.371 . S
C141 C140 1.382 . S
C142 N105 1.423 . S
C142 C143 1.362 . S
C142 C147 1.388 . S
C143 H113 0.929 . S
C143 C142 1.362 . S
C143 C144 1.376 . S
C144 H115 0.931 . S
C144 C143 1.376 . S
C144 C145 1.396 . S
C145 C144 1.396 . S
C145 C146 1.348 . S
C145 C163 1.472 . S
C146 H116 0.929 . S
C146 C145 1.348 . S
C146 C147 1.443 . S
C147 H114 0.932 1_545 S
C147 C142 1.388 . S
C147 C146 1.443 . S
C148 N128 1.433 . S
C148 C149 1.363 . S
C148 C153 1.371 1_545 S
C149 H117 0.929 . S
C149 C148 1.363 . S
C149 C150 1.385 . S
C150 H118 0.930 . S
C150 C149 1.385 . S
C150 C151 1.357 . S
C151 C150 1.357 . S
C151 C152 1.406 1_545 S
C152 H119 0.929 . S
C152 C151 1.406 1_565 S
C152 C153 1.392 . S
C153 H120 0.930 . S
C153 C148 1.371 1_565 S
C153 C152 1.392 . S
C154 N128 1.435 . S
C154 C155 1.358 1_545 S
C154 C159 1.371 . S
C155 H121 0.930 . S
C155 C154 1.358 1_565 S
C155 C156 1.405 . S
C156 H122 0.932 . S
C156 C155 1.405 . S
C156 C157 1.383 1_565 S
C157 C156 1.383 1_545 S
C157 C158 1.393 . S
C158 H123 0.931 . S
C158 C157 1.393 . S
C158 C159 1.382 . S
C159 H124 0.929 . S
C159 C154 1.371 . S
C159 C158 1.382 . S
C160 N128 1.423 . S
C160 C161 1.362 . S
C160 C165 1.388 . S
C161 H125 0.929 . S
C161 C160 1.362 . S
C161 C162 1.376 . S
C162 H126 0.931 . S
C162 C161 1.376 . S
C162 C163 1.396 . S
C163 C145 1.472 . S
C163 C162 1.396 . S
C163 C164 1.348 . S
C164 H127 0.929 . S
C164 C163 1.348 . S
C164 C165 1.443 . S
C165 H129 0.932 1_545 S
C165 C160 1.388 . S
C165 C164 1.443 . S
H166 C193 0.929 . S
N167 C192 1.433 . S
N167 C198 1.435 . S
N167 C204 1.423 . S
H168 C194 0.930 . S
H169 C197 0.931 . S
H170 C196 0.929 . S
H171 C199 0.930 . S
H172 C200 0.932 . S
H173 C203 0.929 . S
H174 C202 0.931 . S
H175 C205 0.929 . S
H176 C209 0.932 . S
H177 C206 0.931 . S
H178 C208 0.929 . S
H179 C211 0.929 . S
H180 C212 0.930 . S
H181 C214 0.929 . S
H182 C215 0.931 . S
H183 C217 0.930 . S
H184 C218 0.932 . S
H185 C220 0.931 . S
H186 C221 0.929 . S
H187 C223 0.929 . S
H188 C224 0.931 . S
H189 C226 0.929 . S
N190 C210 1.433 . S
N190 C216 1.435 . S
N190 C222 1.423 . S
H191 C227 0.932 . S
C192 N167 1.433 . S
C192 C193 1.363 . S
C192 C197 1.370 . S
C193 H166 0.929 . S
C193 C192 1.363 . S
C193 C194 1.385 . S
C194 H168 0.930 . S
C194 C193 1.385 . S
C194 C195 1.357 . S
C195 C194 1.357 . S
C195 C196 1.406 . S
C196 H170 0.929 . S
C196 C195 1.406 . S
C196 C197 1.391 . S
C197 H169 0.931 . S
C197 C192 1.370 . S
C197 C196 1.391 . S
C198 N167 1.435 . S
C198 C199 1.358 . S
C198 C203 1.371 . S
C199 H171 0.930 . S
C199 C198 1.358 . S
C199 C200 1.405 . S
C200 H172 0.932 . S
C200 C199 1.405 . S
C200 C201 1.383 . S
C201 C200 1.383 . S
C201 C202 1.393 . S
C202 H174 0.931 . S
C202 C201 1.393 . S
C202 C203 1.382 . S
C203 H173 0.929 . S
C203 C198 1.371 . S
C203 C202 1.382 . S
C204 N167 1.423 . S
C204 C205 1.362 . S
C204 C209 1.388 . S
C205 H175 0.929 . S
C205 C204 1.362 . S
C205 C206 1.376 . S
C206 H177 0.931 . S
C206 C205 1.376 . S
C206 C207 1.396 . S
C207 C206 1.396 . S
C207 C208 1.348 . S
C207 C225 1.472 . S
C208 H178 0.929 . S
C208 C207 1.348 . S
C208 C209 1.443 . S
C209 H176 0.932 . S
C209 C204 1.388 . S
C209 C208 1.443 . S
C210 N190 1.433 . S
C210 C211 1.363 . S
C210 C215 1.370 . S
C211 H179 0.929 . S
C211 C210 1.363 . S
C211 C212 1.385 . S
C212 H180 0.930 . S
C212 C211 1.385 . S
C212 C213 1.357 . S
C213 C212 1.357 . S
C213 C214 1.406 . S
C214 H181 0.929 . S
C214 C213 1.406 . S
C214 C215 1.391 . S
C215 H182 0.931 . S
C215 C210 1.370 . S
C215 C214 1.391 . S
C216 N190 1.435 . S
C216 C217 1.358 . S
C216 C221 1.371 . S
C217 H183 0.930 . S
C217 C216 1.358 . S
C217 C218 1.405 . S
C218 H184 0.932 . S
C218 C217 1.405 . S
C218 C219 1.383 . S
C219 C218 1.383 . S
C219 C220 1.393 . S
C220 H185 0.931 . S
C220 C219 1.393 . S
C220 C221 1.382 . S
C221 H186 0.929 . S
C221 C216 1.371 . S
C221 C220 1.382 . S
C222 N190 1.423 . S
C222 C223 1.362 . S
C222 C227 1.388 . S
C223 H187 0.929 . S
C223 C222 1.362 . S
C223 C224 1.376 . S
C224 H188 0.931 . S
C224 C223 1.376 . S
C224 C225 1.396 . S
C225 C207 1.472 . S
C225 C224 1.396 . S
C225 C226 1.348 . S
C226 H189 0.929 . S
C226 C225 1.348 . S
C226 C227 1.443 . S
C227 H191 0.932 . S
C227 C222 1.388 . S
C227 C226 1.443 . S
H228 C234 0.930 . S
H229 C238 0.930 . S
H230 C243 0.929 . S
H231 C241 0.929 . S
H232 C236 0.929 . S
H233 C242 0.929 . S
C234 H228 0.930 . S
C234 C235 1.367 . S
C234 C242 1.378 . S
C235 C234 1.367 . S
C235 C243 1.433 1_455 S
C236 H232 0.929 . S
C236 C238 1.378 . S
C236 C240 1.350 1_655 S
C237 C240 1.463 . S
C237 C242 1.350 . S
C237 N245 1.427 1_455 S
C238 H229 0.930 . S
C238 C236 1.378 . S
C238 C239 1.367 1_655 S
C239 C238 1.367 1_455 S
C239 C241 1.433 . S
C240 C236 1.350 1_455 S
C240 C237 1.463 . S
C240 N244 1.427 . S
C241 H231 0.929 . S
C241 C239 1.433 . S
C241 N244 1.384 . S
C242 H233 0.929 . S
C242 C234 1.378 . S
C242 C237 1.350 . S
C243 H230 0.929 . S
C243 C235 1.433 1_655 S
C243 N245 1.384 . S
N244 C240 1.427 . S
N244 C241 1.384 . S
N245 C237 1.427 1_655 S
N245 C243 1.384 . S
H246 C252 0.930 1_565 S
H247 C256 0.930 . S
H248 C261 0.929 . S
H249 C259 0.929 1_565 S
H250 C254 0.929 . S
H251 C260 0.929 1_565 S
C252 H246 0.930 1_545 S
C252 C253 1.367 . S
C252 C260 1.378 . S
C253 C252 1.367 . S
C253 C261 1.433 . S
C254 H250 0.929 . S
C254 C256 1.378 . S
C254 C258 1.350 . S
C255 C258 1.463 . S
C255 C260 1.350 . S
C255 N263 1.427 . S
C256 H247 0.930 . S
C256 C254 1.378 . S
C256 C257 1.367 . S
C257 C256 1.367 . S
C257 C259 1.433 . S
C258 C254 1.350 . S
C258 C255 1.463 . S
C258 N262 1.427 . S
C259 H249 0.929 1_545 S
C259 C257 1.433 . S
C259 N262 1.384 . S
C260 H251 0.929 1_545 S
C260 C252 1.378 . S
C260 C255 1.350 . S
C261 H248 0.929 . S
C261 C253 1.433 . S
C261 N263 1.384 . S
N262 C258 1.427 . S
N262 C259 1.384 . S
N263 C255 1.427 . S
N263 C261 1.384 . S
H264 C270 0.930 . S
H265 C274 0.930 . S
H266 C279 0.929 . S
H267 C277 0.929 . S
H268 C272 0.929 . S
H269 C278 0.929 . S
C270 H264 0.930 . S
C270 C271 1.367 . S
C270 C278 1.378 . S
C271 C270 1.367 . S
C271 C279 1.433 . S
C272 H268 0.929 . S
C272 C274 1.378 . S
C272 C276 1.350 . S
C273 C276 1.463 . S
C273 C278 1.350 . S
C273 N281 1.427 . S
C274 H265 0.930 . S
C274 C272 1.378 . S
C274 C275 1.367 . S
C275 C274 1.367 . S
C275 C277 1.433 . S
C276 C272 1.350 . S
C276 C273 1.463 . S
C276 N280 1.427 . S
C277 H267 0.929 . S
C277 C275 1.433 . S
C277 N280 1.384 . S
C278 H269 0.929 . S
C278 C270 1.378 . S
C278 C273 1.350 . S
C279 H266 0.929 . S
C279 C271 1.433 . S
C279 N281 1.384 . S
N280 C276 1.427 . S
N280 C277 1.384 . S
N281 C273 1.427 . S
N281 C279 1.384 . S
H282 C288 0.930 . S
H283 C292 0.930 . S
H284 C297 0.929 . S
H285 C295 0.929 . S
H286 C290 0.929 . S
H287 C296 0.929 . S
C288 H282 0.930 . S
C288 C289 1.367 1_655 S
C288 C296 1.378 . S
C289 C288 1.367 1_455 S
C289 C297 1.433 . S
C290 H286 0.929 . S
C290 C292 1.378 . S
C290 C294 1.350 . S
C291 C294 1.463 . S
C291 C296 1.350 1_455 S
C291 N299 1.427 . S
C292 H283 0.930 . S
C292 C290 1.378 . S
C292 C293 1.367 . S
C293 C292 1.367 . S
C293 C295 1.433 1_455 S
C294 C290 1.350 . S
C294 C291 1.463 . S
C294 N298 1.427 1_455 S
C295 H285 0.929 . S
C295 C293 1.433 1_655 S
C295 N298 1.384 . S
C296 H287 0.929 . S
C296 C288 1.378 . S
C296 C291 1.350 1_655 S
C297 H284 0.929 . S
C297 C289 1.433 . S
C297 N299 1.384 . S
N298 C294 1.427 1_655 S
N298 C295 1.384 . S
N299 C291 1.427 . S
N299 C297 1.384 . S
H300 C306 0.930 . S
H301 C310 0.930 . S
H302 C315 0.929 . S
H303 C313 0.929 . S
H304 C308 0.929 . S
H305 C314 0.929 . S
C306 H300 0.930 . S
C306 C307 1.367 . S
C306 C314 1.378 . S
C307 C306 1.367 . S
C307 C315 1.433 1_545 S
C308 H304 0.929 . S
C308 C310 1.378 . S
C308 C312 1.350 1_565 S
C309 C312 1.463 . S
C309 C314 1.350 . S
C309 N317 1.427 1_545 S
C310 H301 0.930 . S
C310 C308 1.378 . S
C310 C311 1.367 1_565 S
C311 C310 1.367 1_545 S
C311 C313 1.433 . S
C312 C308 1.350 1_545 S
C312 C309 1.463 . S
C312 N316 1.427 . S
C313 H303 0.929 . S
C313 C311 1.433 . S
C313 N316 1.384 . S
C314 H305 0.929 . S
C314 C306 1.378 . S
C314 C309 1.350 . S
C315 H302 0.929 . S
C315 C307 1.433 1_565 S
C315 N317 1.384 . S
N316 C312 1.427 . S
N316 C313 1.384 . S
N317 C309 1.427 1_565 S
N317 C315 1.384 . S
H318 C324 0.930 . S
H319 C328 0.930 . S
H320 C333 0.929 . S
H321 C331 0.929 . S
H322 C326 0.929 . S
H323 C332 0.929 . S
C324 H318 0.930 . S
C324 C325 1.367 . S
C324 C332 1.378 . S
C325 C324 1.367 . S
C325 C333 1.433 . S
C326 H322 0.929 . S
C326 C328 1.378 . S
C326 C330 1.350 . S
C327 C330 1.463 . S
C327 C332 1.350 . S
C327 N335 1.427 . S
C328 H319 0.930 . S
C328 C326 1.378 . S
C328 C329 1.367 . S
C329 C328 1.367 . S
C329 C331 1.433 . S
C330 C326 1.350 . S
C330 C327 1.463 . S
C330 N334 1.427 . S
C331 H321 0.929 . S
C331 C329 1.433 . S
C331 N334 1.384 . S
C332 H323 0.929 . S
C332 C324 1.378 . S
C332 C327 1.350 . S
C333 H320 0.929 . S
C333 C325 1.433 . S
C333 N335 1.384 . S
N334 C330 1.427 . S
N334 C331 1.384 . S
N335 C327 1.427 . S
N335 C333 1.384 . S
H336 C342 0.930 . S
H337 C346 0.930 . S
H338 C351 0.929 . S
H339 C349 0.929 . S
H340 C344 0.929 . S
H341 C350 0.929 . S
C342 H336 0.930 . S
C342 C343 1.367 1_565 S
C342 C350 1.378 . S
C343 C342 1.367 1_545 S
C343 C351 1.433 . S
C344 H340 0.929 . S
C344 C346 1.378 . S
C344 C348 1.350 . S
C345 C348 1.463 . S
C345 C350 1.350 1_545 S
C345 N353 1.427 . S
C346 H337 0.930 . S
C346 C344 1.378 . S
C346 C347 1.367 . S
C347 C346 1.367 . S
C347 C349 1.433 1_545 S
C348 C344 1.350 . S
C348 C345 1.463 . S
C348 N352 1.427 1_545 S
C349 H339 0.929 . S
C349 C347 1.433 1_565 S
C349 N352 1.384 . S
C350 H341 0.929 . S
C350 C342 1.378 . S
C350 C345 1.350 1_565 S
C351 H338 0.929 . S
C351 C343 1.433 . S
C351 N353 1.384 . S
N352 C348 1.427 1_565 S
N352 C349 1.384 . S
N353 C345 1.427 . S
N353 C351 1.384 . S
H354 C360 0.930 . S
H355 C364 0.930 . S
H356 C369 0.929 1_554 S
H357 C367 0.929 . S
H358 C362 0.929 . S
H359 C368 0.929 . S
C360 H354 0.930 . S
C360 C361 1.367 . S
C360 C368 1.378 . S
C361 C360 1.367 . S
C361 C369 1.433 . S
C362 H358 0.929 . S
C362 C364 1.378 . S
C362 C366 1.350 . S
C363 C366 1.463 . S
C363 C368 1.350 . S
C363 N371 1.427 . S
C364 H355 0.930 . S
C364 C362 1.378 . S
C364 C365 1.367 . S
C365 C364 1.367 . S
C365 C367 1.433 . S
C366 C362 1.350 . S
C366 C363 1.463 . S
C366 N370 1.427 . S
C367 H357 0.929 . S
C367 C365 1.433 . S
C367 N370 1.384 . S
C368 H359 0.929 . S
C368 C360 1.378 . S
C368 C363 1.350 . S
C369 H356 0.929 1_556 S
C369 C361 1.433 . S
C369 N371 1.384 . S
N370 C366 1.427 . S
N370 C367 1.384 . S
N371 C363 1.427 . S
N371 C369 1.384 . S
H372 C378 0.930 . S
H373 C382 0.930 . S
H374 C387 0.929 . S
H375 C385 0.929 . S
H376 C380 0.929 . S
H377 C386 0.929 . S
C378 H372 0.930 . S
C378 C379 1.367 1_655 S
C378 C386 1.378 . S
C379 C378 1.367 1_455 S
C379 C387 1.433 . S
C380 H376 0.929 . S
C380 C382 1.378 . S
C380 C384 1.350 . S
C381 C384 1.463 . S
C381 C386 1.350 1_455 S
C381 N389 1.427 . S
C382 H373 0.930 . S
C382 C380 1.378 . S
C382 C383 1.367 . S
C383 C382 1.367 . S
C383 C385 1.433 1_455 S
C384 C380 1.350 . S
C384 C381 1.463 . S
C384 N388 1.427 1_455 S
C385 H375 0.929 . S
C385 C383 1.433 1_655 S
C385 N388 1.384 . S
C386 H377 0.929 . S
C386 C378 1.378 . S
C386 C381 1.350 1_655 S
C387 H374 0.929 . S
C387 C379 1.433 . S
C387 N389 1.384 . S
N388 C384 1.427 1_655 S
N388 C385 1.384 . S
N389 C381 1.427 . S
N389 C387 1.384 . S
H390 C396 0.930 . S
H391 C400 0.930 . S
H392 C405 0.929 . S
H393 C403 0.929 . S
H394 C398 0.929 . S
H395 C404 0.929 . S
C396 H390 0.930 . S
C396 C397 1.367 . S
C396 C404 1.378 . S
C397 C396 1.367 . S
C397 C405 1.433 1_545 S
C398 H394 0.929 . S
C398 C400 1.378 . S
C398 C402 1.350 1_565 S
C399 C402 1.463 . S
C399 C404 1.350 . S
C399 N407 1.427 1_545 S
C400 H391 0.930 . S
C400 C398 1.378 . S
C400 C401 1.367 1_565 S
C401 C400 1.367 1_545 S
C401 C403 1.433 . S
C402 C398 1.350 1_545 S
C402 C399 1.463 . S
C402 N406 1.427 . S
C403 H393 0.929 . S
C403 C401 1.433 . S
C403 N406 1.384 . S
C404 H395 0.929 . S
C404 C396 1.378 . S
C404 C399 1.350 . S
C405 H392 0.929 . S
C405 C397 1.433 1_565 S
C405 N407 1.384 . S
N406 C402 1.427 . S
N406 C403 1.384 . S
N407 C399 1.427 1_565 S
N407 C405 1.384 . S
H408 C414 0.930 . S
H409 C418 0.930 . S
H410 C423 0.929 1_554 S
H411 C421 0.929 . S
H412 C416 0.929 . S
H413 C422 0.929 . S
C414 H408 0.930 . S
C414 C415 1.367 . S
C414 C422 1.378 . S
C415 C414 1.367 . S
C415 C423 1.433 . S
C416 H412 0.929 . S
C416 C418 1.378 . S
C416 C420 1.350 . S
C417 C420 1.463 . S
C417 C422 1.350 . S
C417 N425 1.427 . S
C418 H409 0.930 . S
C418 C416 1.378 . S
C418 C419 1.367 . S
C419 C418 1.367 . S
C419 C421 1.433 . S
C420 C416 1.350 . S
C420 C417 1.463 . S
C420 N424 1.427 . S
C421 H411 0.929 . S
C421 C419 1.433 . S
C421 N424 1.384 . S
C422 H413 0.929 . S
C422 C414 1.378 . S
C422 C417 1.350 . S
C423 H410 0.929 1_556 S
C423 C415 1.433 . S
C423 N425 1.384 . S
N424 C420 1.427 . S
N424 C421 1.384 . S
N425 C417 1.427 . S
N425 C423 1.384 . S
H426 C432 0.930 . S
H427 C436 0.930 . S
H428 C441 0.929 . S
H429 C439 0.929 . S
H430 C434 0.929 . S
H431 C440 0.929 . S
C432 H426 0.930 . S
C432 C433 1.367 . S
C432 C440 1.378 . S
C433 C432 1.367 . S
C433 C441 1.433 1_455 S
C434 H430 0.929 . S
C434 C436 1.378 . S
C434 C438 1.350 1_655 S
C435 C438 1.463 . S
C435 C440 1.350 . S
C435 N443 1.427 1_455 S
C436 H427 0.930 . S
C436 C434 1.378 . S
C436 C437 1.367 1_655 S
C437 C436 1.367 1_455 S
C437 C439 1.433 . S
C438 C434 1.350 1_455 S
C438 C435 1.463 . S
C438 N442 1.427 . S
C439 H429 0.929 . S
C439 C437 1.433 . S
C439 N442 1.384 . S
C440 H431 0.929 . S
C440 C432 1.378 . S
C440 C435 1.350 . S
C441 H428 0.929 . S
C441 C433 1.433 1_655 S
C441 N443 1.384 . S
N442 C438 1.427 . S
N442 C439 1.384 . S
N443 C435 1.427 1_655 S
N443 C441 1.384 . S
C239 C95 1.396 . S
C235 C3 1.401 . S
C253 C21 1.418 . S
C257 C139 1.442 . S
C271 C37 1.408 . S
C275 C201 1.421 . S
C289 C8 1.416 . S
C293 C77 1.413 . S
C311 C157 1.426 . S
C307 C23 1.417 . S
C325 C35 1.412 . S
C329 C219 1.427 . S
C347 C133 1.601 . S
C343 C31 1.696 . S
C361 C7 1.714 1_556 S
C365 C195 1.646 . S
C383 C71 1.611 . S
C379 C17 1.719 . S
C401 C151 1.604 . S
C397 C36 1.709 . S
C419 C213 1.647 . S
C415 C9 1.709 1_556 S
C433 C22 1.728 . S
C437 C89 1.631 . S
