# Generated by pormake.
# Topology bwt, (3,3)-cn, num edge types: 1
# Building blocks:
#     Node 0, Type 0, BuildingBlock: OLANEW_clean_sbu_2, # of connection points: 3
#     Node 1, Type 0, BuildingBlock: OLANEW_clean_sbu_2, # of connection points: 3
#     Node 2, Type 0, BuildingBlock: OLANEW_clean_sbu_2, # of connection points: 3
#     Node 3, Type 0, BuildingBlock: OLANEW_clean_sbu_2, # of connection points: 3
#     Node 4, Type 0, BuildingBlock: OLANEW_clean_sbu_2, # of connection points: 3
#     Node 5, Type 0, BuildingBlock: OLANEW_clean_sbu_2, # of connection points: 3
#     Node 6, Type 0, BuildingBlock: OLANEW_clean_sbu_2, # of connection points: 3
#     Node 7, Type 0, BuildingBlock: OLANEW_clean_sbu_2, # of connection points: 3
#     Node 8, Type 0, BuildingBlock: OLANEW_clean_sbu_2, # of connection points: 3
#     Node 9, Type 0, BuildingBlock: OLANEW_clean_sbu_2, # of connection points: 3
#     Node 10, Type 0, BuildingBlock: OLANEW_clean_sbu_2, # of connection points: 3
#     Node 11, Type 0, BuildingBlock: OLANEW_clean_sbu_2, # of connection points: 3
#     Node 12, Type 0, BuildingBlock: OLANEW_clean_sbu_2, # of connection points: 3
#     Node 13, Type 0, BuildingBlock: OLANEW_clean_sbu_2, # of connection points: 3
#     Node 14, Type 0, BuildingBlock: OLANEW_clean_sbu_2, # of connection points: 3
#     Node 15, Type 0, BuildingBlock: OLANEW_clean_sbu_2, # of connection points: 3
#     Node 16, Type 0, BuildingBlock: OLANEW_clean_sbu_2, # of connection points: 3
#     Node 17, Type 0, BuildingBlock: OLANEW_clean_sbu_2, # of connection points: 3
#     Node 18, Type 0, BuildingBlock: OLANEW_clean_sbu_2, # of connection points: 3
#     Node 19, Type 0, BuildingBlock: OLANEW_clean_sbu_2, # of connection points: 3
#     Node 20, Type 0, BuildingBlock: OLANEW_clean_sbu_2, # of connection points: 3
#     Node 21, Type 0, BuildingBlock: OLANEW_clean_sbu_2, # of connection points: 3
#     Node 22, Type 0, BuildingBlock: OLANEW_clean_sbu_2, # of connection points: 3
#     Node 23, Type 0, BuildingBlock: OLANEW_clean_sbu_2, # of connection points: 3
#     Node 24, Type 1, BuildingBlock: BETDIP_clean_linker_0, # of connection points: 3
#     Node 25, Type 1, BuildingBlock: BETDIP_clean_linker_0, # of connection points: 3
#     Node 26, Type 1, BuildingBlock: BETDIP_clean_linker_0, # of connection points: 3
#     Node 27, Type 1, BuildingBlock: BETDIP_clean_linker_0, # of connection points: 3
#     Node 28, Type 1, BuildingBlock: BETDIP_clean_linker_0, # of connection points: 3
#     Node 29, Type 1, BuildingBlock: BETDIP_clean_linker_0, # of connection points: 3
#     Node 30, Type 1, BuildingBlock: BETDIP_clean_linker_0, # of connection points: 3
#     Node 31, Type 1, BuildingBlock: BETDIP_clean_linker_0, # of connection points: 3
#     Node 32, Type 1, BuildingBlock: BETDIP_clean_linker_0, # of connection points: 3
#     Node 33, Type 1, BuildingBlock: BETDIP_clean_linker_0, # of connection points: 3
#     Node 34, Type 1, BuildingBlock: BETDIP_clean_linker_0, # of connection points: 3
#     Node 35, Type 1, BuildingBlock: BETDIP_clean_linker_0, # of connection points: 3
#     Node 36, Type 1, BuildingBlock: BETDIP_clean_linker_0, # of connection points: 3
#     Node 37, Type 1, BuildingBlock: BETDIP_clean_linker_0, # of connection points: 3
#     Node 38, Type 1, BuildingBlock: BETDIP_clean_linker_0, # of connection points: 3
#     Node 39, Type 1, BuildingBlock: BETDIP_clean_linker_0, # of connection points: 3
#     Node 40, Type 1, BuildingBlock: BETDIP_clean_linker_0, # of connection points: 3
#     Node 41, Type 1, BuildingBlock: BETDIP_clean_linker_0, # of connection points: 3
#     Node 42, Type 1, BuildingBlock: BETDIP_clean_linker_0, # of connection points: 3
#     Node 43, Type 1, BuildingBlock: BETDIP_clean_linker_0, # of connection points: 3
#     Node 44, Type 1, BuildingBlock: BETDIP_clean_linker_0, # of connection points: 3
#     Node 45, Type 1, BuildingBlock: BETDIP_clean_linker_0, # of connection points: 3
#     Node 46, Type 1, BuildingBlock: BETDIP_clean_linker_0, # of connection points: 3
#     Node 47, Type 1, BuildingBlock: BETDIP_clean_linker_0, # of connection points: 3
#     Edge 48, Type (0, 1), BuildingBlock: OJICUG_clean_linker_0, # of connection points: 2
#     Edge 49, Type (0, 1), BuildingBlock: OJICUG_clean_linker_0, # of connection points: 2
#     Edge 50, Type (0, 1), BuildingBlock: OJICUG_clean_linker_0, # of connection points: 2
#     Edge 51, Type (0, 1), BuildingBlock: OJICUG_clean_linker_0, # of connection points: 2
#     Edge 52, Type (0, 1), BuildingBlock: OJICUG_clean_linker_0, # of connection points: 2
#     Edge 53, Type (0, 1), BuildingBlock: OJICUG_clean_linker_0, # of connection points: 2
#     Edge 54, Type (0, 1), BuildingBlock: OJICUG_clean_linker_0, # of connection points: 2
#     Edge 55, Type (0, 1), BuildingBlock: OJICUG_clean_linker_0, # of connection points: 2
#     Edge 56, Type (0, 1), BuildingBlock: OJICUG_clean_linker_0, # of connection points: 2
#     Edge 57, Type (0, 1), BuildingBlock: OJICUG_clean_linker_0, # of connection points: 2
#     Edge 58, Type (0, 1), BuildingBlock: OJICUG_clean_linker_0, # of connection points: 2
#     Edge 59, Type (0, 1), BuildingBlock: OJICUG_clean_linker_0, # of connection points: 2
#     Edge 60, Type (0, 1), BuildingBlock: OJICUG_clean_linker_0, # of connection points: 2
#     Edge 61, Type (0, 1), BuildingBlock: OJICUG_clean_linker_0, # of connection points: 2
#     Edge 62, Type (0, 1), BuildingBlock: OJICUG_clean_linker_0, # of connection points: 2
#     Edge 63, Type (0, 1), BuildingBlock: OJICUG_clean_linker_0, # of connection points: 2
#     Edge 64, Type (0, 1), BuildingBlock: OJICUG_clean_linker_0, # of connection points: 2
#     Edge 65, Type (0, 1), BuildingBlock: OJICUG_clean_linker_0, # of connection points: 2
#     Edge 66, Type (0, 1), BuildingBlock: OJICUG_clean_linker_0, # of connection points: 2
#     Edge 67, Type (0, 1), BuildingBlock: OJICUG_clean_linker_0, # of connection points: 2
#     Edge 68, Type (0, 1), BuildingBlock: OJICUG_clean_linker_0, # of connection points: 2
#     Edge 69, Type (0, 1), BuildingBlock: OJICUG_clean_linker_0, # of connection points: 2
#     Edge 70, Type (0, 1), BuildingBlock: OJICUG_clean_linker_0, # of connection points: 2
#     Edge 71, Type (0, 1), BuildingBlock: OJICUG_clean_linker_0, # of connection points: 2
#     Edge 72, Type (0, 1), BuildingBlock: OJICUG_clean_linker_0, # of connection points: 2
#     Edge 73, Type (0, 1), BuildingBlock: OJICUG_clean_linker_0, # of connection points: 2
#     Edge 74, Type (0, 1), BuildingBlock: OJICUG_clean_linker_0, # of connection points: 2
#     Edge 75, Type (0, 1), BuildingBlock: OJICUG_clean_linker_0, # of connection points: 2
#     Edge 76, Type (0, 1), BuildingBlock: OJICUG_clean_linker_0, # of connection points: 2
#     Edge 77, Type (0, 1), BuildingBlock: OJICUG_clean_linker_0, # of connection points: 2
#     Edge 78, Type (0, 1), BuildingBlock: OJICUG_clean_linker_0, # of connection points: 2
#     Edge 79, Type (0, 1), BuildingBlock: OJICUG_clean_linker_0, # of connection points: 2
#     Edge 80, Type (0, 1), BuildingBlock: OJICUG_clean_linker_0, # of connection points: 2
#     Edge 81, Type (0, 1), BuildingBlock: OJICUG_clean_linker_0, # of connection points: 2
#     Edge 82, Type (0, 1), BuildingBlock: OJICUG_clean_linker_0, # of connection points: 2
#     Edge 83, Type (0, 1), BuildingBlock: OJICUG_clean_linker_0, # of connection points: 2
#     Edge 84, Type (0, 1), BuildingBlock: OJICUG_clean_linker_0, # of connection points: 2
#     Edge 85, Type (0, 1), BuildingBlock: OJICUG_clean_linker_0, # of connection points: 2
#     Edge 86, Type (0, 1), BuildingBlock: OJICUG_clean_linker_0, # of connection points: 2
#     Edge 87, Type (0, 1), BuildingBlock: OJICUG_clean_linker_0, # of connection points: 2
#     Edge 88, Type (0, 1), BuildingBlock: OJICUG_clean_linker_0, # of connection points: 2
#     Edge 89, Type (0, 1), BuildingBlock: OJICUG_clean_linker_0, # of connection points: 2
#     Edge 90, Type (0, 1), BuildingBlock: OJICUG_clean_linker_0, # of connection points: 2
#     Edge 91, Type (0, 1), BuildingBlock: OJICUG_clean_linker_0, # of connection points: 2
#     Edge 92, Type (0, 1), BuildingBlock: OJICUG_clean_linker_0, # of connection points: 2
#     Edge 93, Type (0, 1), BuildingBlock: OJICUG_clean_linker_0, # of connection points: 2
#     Edge 94, Type (0, 1), BuildingBlock: OJICUG_clean_linker_0, # of connection points: 2
#     Edge 95, Type (0, 1), BuildingBlock: OJICUG_clean_linker_0, # of connection points: 2
#     Edge 96, Type (0, 1), BuildingBlock: OJICUG_clean_linker_0, # of connection points: 2
#     Edge 97, Type (0, 1), BuildingBlock: OJICUG_clean_linker_0, # of connection points: 2
#     Edge 98, Type (0, 1), BuildingBlock: OJICUG_clean_linker_0, # of connection points: 2
#     Edge 99, Type (0, 1), BuildingBlock: OJICUG_clean_linker_0, # of connection points: 2
#     Edge 100, Type (0, 1), BuildingBlock: OJICUG_clean_linker_0, # of connection points: 2
#     Edge 101, Type (0, 1), BuildingBlock: OJICUG_clean_linker_0, # of connection points: 2
#     Edge 102, Type (0, 1), BuildingBlock: OJICUG_clean_linker_0, # of connection points: 2
#     Edge 103, Type (0, 1), BuildingBlock: OJICUG_clean_linker_0, # of connection points: 2
#     Edge 104, Type (0, 1), BuildingBlock: OJICUG_clean_linker_0, # of connection points: 2
#     Edge 105, Type (0, 1), BuildingBlock: OJICUG_clean_linker_0, # of connection points: 2
#     Edge 106, Type (0, 1), BuildingBlock: OJICUG_clean_linker_0, # of connection points: 2
#     Edge 107, Type (0, 1), BuildingBlock: OJICUG_clean_linker_0, # of connection points: 2
#     Edge 108, Type (0, 1), BuildingBlock: OJICUG_clean_linker_0, # of connection points: 2
#     Edge 109, Type (0, 1), BuildingBlock: OJICUG_clean_linker_0, # of connection points: 2
#     Edge 110, Type (0, 1), BuildingBlock: OJICUG_clean_linker_0, # of connection points: 2
#     Edge 111, Type (0, 1), BuildingBlock: OJICUG_clean_linker_0, # of connection points: 2
#     Edge 112, Type (0, 1), BuildingBlock: OJICUG_clean_linker_0, # of connection points: 2
#     Edge 113, Type (0, 1), BuildingBlock: OJICUG_clean_linker_0, # of connection points: 2
#     Edge 114, Type (0, 1), BuildingBlock: OJICUG_clean_linker_0, # of connection points: 2
#     Edge 115, Type (0, 1), BuildingBlock: OJICUG_clean_linker_0, # of connection points: 2
#     Edge 116, Type (0, 1), BuildingBlock: OJICUG_clean_linker_0, # of connection points: 2
#     Edge 117, Type (0, 1), BuildingBlock: OJICUG_clean_linker_0, # of connection points: 2
#     Edge 118, Type (0, 1), BuildingBlock: OJICUG_clean_linker_0, # of connection points: 2
#     Edge 119, Type (0, 1), BuildingBlock: OJICUG_clean_linker_0, # of connection points: 2
# Relax obj value: 0.056
# Max RMSD: 0.115
# Mean RMSD: 0.062
data_MOF--net-bwt--node1-OLANEW_clean_sbu_2--node2-BETDIP_clean_linker_0--edge1-OJICUG_clean_linker_0
_symmetry_space_group_name_H-M    P1
_symmetry_Int_Tables_number       1
_symmetry_cell_setting            triclinic
loop_
_symmetry_equiv_pos_as_xyz
'x, y, z'
_cell_length_a     44.47179
_cell_length_b     44.457219
_cell_length_c     44.437426
_cell_angle_alpha  93.870693
_cell_angle_beta   93.882645
_cell_angle_gamma 93.942009
loop_
_atom_site_label
_atom_site_type_symbol
_atom_site_fract_x
_atom_site_fract_y
_atom_site_fract_z
_atom_type_partial_charge
O0 O 0.29366 0.58093 0.35933 0.0
Cd1 Cd 0.29573 0.58791 0.30529 0.0
O2 O 0.33307 0.61307 0.37146 0.0
Cd3 Cd 0.34881 0.61079 0.32613 0.0
O4 O 0.39161 0.5989 0.30943 0.0
C5 C 0.39681 0.58753 0.28348 0.0
O6 O 0.37461 0.58248 0.2623 0.0
C7 C 0.31112 0.59632 0.37938 0.0
C8 C 0.23955 0.57052 0.27505 0.0
O9 O 0.26081 0.55246 0.2757 0.0
O10 O 0.24498 0.59704 0.28829 0.0
O11 O 0.21649 0.36859 0.83136 0.0
Cd12 Cd 0.1968 0.35003 0.78062 0.0
O13 O 0.18469 0.40368 0.83898 0.0
Cd14 Cd 0.15373 0.38755 0.79983 0.0
O15 O 0.11293 0.37996 0.76887 0.0
C16 C 0.08869 0.36819 0.77819 0.0
O17 O 0.0891 0.35957 0.80591 0.0
C18 C 0.20819 0.39084 0.84743 0.0
C19 C 0.23908 0.3727 0.74286 0.0
O20 O 0.21475 0.38585 0.74686 0.0
O21 O 0.24281 0.34812 0.75565 0.0
O22 O 0.73803 0.00867 0.58413 0.0
Cd23 Cd 0.75937 0.02231 0.63591 0.0
O24 O 0.7376 0.95985 0.58975 0.0
Cd25 Cd 0.7633 0.96716 0.63361 0.0
O26 O 0.80115 0.98143 0.6666 0.0
C27 C 0.82709 0.97336 0.66061 0.0
O28 O 0.8295 0.95601 0.63588 0.0
C29 C 0.73148 0.98152 0.57359 0.0
C30 C 0.71553 0.03822 0.67501 0.0
O31 O 0.72966 0.05803 0.66047 0.0
O32 O 0.72203 0.01066 0.671 0.0
O33 O 0.72089 0.98072 0.21702 0.0
Cd34 Cd 0.72347 0.9693 0.27005 0.0
O35 O 0.69413 0.01992 0.22469 0.0
Cd36 Cd 0.68377 0.0065 0.26941 0.0
O37 O 0.6508 0.98249 0.29496 0.0
C38 C 0.63163 0.99743 0.30831 0.0
O39 O 0.63444 0.02709 0.30904 0.0
C40 C 0.7087 0.00351 0.20715 0.0
C41 C 0.78283 0.9581 0.2866 0.0
O42 O 0.76283 0.93625 0.27912 0.0
O43 O 0.77454 0.98516 0.28706 0.0
O44 O 0.36632 0.30546 0.62483 0.0
Cd45 Cd 0.31107 0.30391 0.62146 0.0
O46 O 0.37327 0.33674 0.66548 0.0
Cd47 Cd 0.3265 0.34811 0.65889 0.0
O48 O 0.30718 0.38139 0.63087 0.0
C49 C 0.32248 0.38726 0.60856 0.0
O50 O 0.34565 0.37134 0.60333 0.0
C51 C 0.38406 0.31971 0.64543 0.0
C52 C 0.28764 0.24853 0.59344 0.0
O53 O 0.2966 0.2704 0.57811 0.0
O54 O 0.2891 0.25288 0.62233 0.0
O55 O 0.23672 0.75693 0.99417 0.0
Cd56 Cd 0.29061 0.76028 0.98552 0.0
O57 O 0.24164 0.72275 0.02737 0.0
Cd58 Cd 0.28635 0.71095 0.01538 0.0
O59 O 0.30722 0.67015 0.99997 0.0
C60 C 0.31283 0.65108 0.01927 0.0
O61 O 0.30842 0.65804 0.04776 0.0
C62 C 0.2254 0.74075 0.01369 0.0
C63 C 0.3076 0.81669 0.96531 0.0
O64 O 0.30087 0.79365 0.94655 0.0
O65 O 0.30671 0.81298 0.99359 0.0
O66 O 0.83001 0.20422 0.4067 0.0
Cd67 Cd 0.7787 0.18821 0.38645 0.0
O68 O 0.82988 0.18101 0.44891 0.0
Cd69 Cd 0.78627 0.1561 0.43562 0.0
O70 O 0.74528 0.12581 0.42578 0.0
C71 C 0.74739 0.09857 0.41588 0.0
O72 O 0.77427 0.08931 0.41139 0.0
C73 C 0.84299 0.19894 0.43197 0.0
C74 C 0.74574 0.23823 0.39767 0.0
O75 O 0.74526 0.21644 0.41515 0.0
O76 O 0.7607 0.23575 0.3741 0.0
O77 O 0.59014 0.72877 0.93747 0.0
Cd78 Cd 0.64214 0.7494 0.95064 0.0
O79 O 0.57933 0.76656 0.91003 0.0
Cd80 Cd 0.6216 0.79412 0.92198 0.0
O81 O 0.64919 0.83564 0.93738 0.0
C82 C 0.6704 0.83633 0.95812 0.0
O83 O 0.67694 0.81104 0.9699 0.0
C84 C 0.57156 0.74133 0.92023 0.0
C85 C 0.67604 0.70982 0.98264 0.0
O86 O 0.66036 0.72891 0.99628 0.0
O87 O 0.67567 0.70934 0.95375 0.0
O88 O 0.61877 0.39785 0.31231 0.0
Cd89 Cd 0.62623 0.34608 0.32495 0.0
O90 O 0.64045 0.41862 0.35544 0.0
Cd91 Cd 0.64019 0.37695 0.3789 0.0
O92 O 0.62981 0.35511 0.42005 0.0
C93 C 0.61212 0.36908 0.4364 0.0
O94 O 0.60109 0.39365 0.42675 0.0
C95 C 0.62863 0.42128 0.32897 0.0
C96 C 0.60716 0.30658 0.27478 0.0
O97 O 0.58969 0.31183 0.29601 0.0
O98 O 0.63394 0.31955 0.27753 0.0
O99 O 0.98337 0.23468 0.7433 0.0
Cd100 Cd 0.97866 0.28928 0.74886 0.0
O101 O 0.03168 0.23937 0.75846 0.0
Cd102 Cd 0.03304 0.28615 0.74631 0.0
O103 O 0.02191 0.3043 0.7028 0.0
C104 C 0.03933 0.29866 0.68195 0.0
O105 O 0.06413 0.2853 0.68864 0.0
C106 C 0.00752 0.22265 0.75135 0.0
C107 C 0.96055 0.30513 0.80634 0.0
O108 O 0.94128 0.30102 0.78338 0.0
O109 O 0.98842 0.30215 0.80204 0.0
O110 O 0.3638 0.78078 0.21561 0.0
Cd111 Cd 0.35011 0.72821 0.19774 0.0
O112 O 0.4056 0.78364 0.19184 0.0
Cd113 Cd 0.39318 0.7431 0.16166 0.0
O114 O 0.38969 0.71508 0.11894 0.0
C115 C 0.37565 0.7245 0.09593 0.0
O116 O 0.3623 0.74988 0.09904 0.0
C117 C 0.38856 0.79504 0.21071 0.0
C118 C 0.38037 0.69425 0.23898 0.0
O119 O 0.39155 0.7002 0.21403 0.0
O120 O 0.35422 0.70317 0.24381 0.0
O121 O 0.9288 0.59659 0.7151 0.0
Cd122 Cd 0.93254 0.65195 0.72036 0.0
O123 O 0.95907 0.58956 0.75495 0.0
Cd124 Cd 0.96881 0.6368 0.77162 0.0
O125 O 0.98505 0.66855 0.80997 0.0
C126 C 0.9771 0.66161 0.83572 0.0
O127 O 0.95889 0.63727 0.83721 0.0
C128 C 0.94195 0.57887 0.7321 0.0
C129 C 0.96697 0.67783 0.6772 0.0
O130 O 0.97789 0.67694 0.70453 0.0
O131 O 0.93996 0.66644 0.67019 0.0
O132 O 0.67952 0.36947 0.63296 0.0
Cd133 Cd 0.68204 0.3658 0.68757 0.0
O134 O 0.63811 0.39264 0.62212 0.0
Cd135 Cd 0.61646 0.39482 0.66457 0.0
O136 O 0.56864 0.40235 0.66734 0.0
C137 C 0.5556 0.40792 0.64216 0.0
O138 O 0.57175 0.40938 0.61853 0.0
C139 C 0.66186 0.38106 0.614 0.0
C140 C 0.74337 0.37645 0.70638 0.0
O141 O 0.73224 0.34992 0.69676 0.0
O142 O 0.72531 0.39763 0.70838 0.0
O143 O 0.79235 0.70113 0.2244 0.0
Cd144 Cd 0.78106 0.71816 0.27548 0.0
O145 O 0.82713 0.67176 0.23997 0.0
Cd146 Cd 0.86132 0.6398 0.23125 0.0
O147 O 0.90194 0.61545 0.22602 0.0
C148 C 0.92597 0.62964 0.21895 0.0
O149 O 0.92556 0.65853 0.21446 0.0
C150 C 0.81103 0.68155 0.21855 0.0
C151 C 0.72966 0.68287 0.28771 0.0
O152 O 0.72747 0.7073 0.27424 0.0
O153 O 0.75612 0.67578 0.29653 0.0
O154 O 0.27504 0.10761 0.34277 0.0
Cd155 Cd 0.28452 0.09967 0.28962 0.0
O156 O 0.22993 0.08511 0.33228 0.0
Cd157 Cd 0.18446 0.06687 0.34004 0.0
O158 O 0.14301 0.04063 0.34809 0.0
C159 C 0.1172 0.04902 0.33979 0.0
O160 O 0.11547 0.07442 0.32648 0.0
C161 C 0.25013 0.09733 0.35184 0.0
C162 C 0.32515 0.05497 0.28543 0.0
O163 O 0.33443 0.08302 0.28777 0.0
O164 O 0.2966 0.04813 0.28414 0.0
O165 O 0.24541 0.98224 0.75299 0.0
Cd166 Cd 0.22021 0.98615 0.70293 0.0
O167 O 0.29059 0.9943 0.73848 0.0
Cd168 Cd 0.34011 0.00107 0.74312 0.0
O169 O 0.38873 0.01317 0.75052 0.0
C170 C 0.40802 0.99446 0.74383 0.0
O171 O 0.39848 0.96723 0.73224 0.0
C172 C 0.27373 0.98695 0.75926 0.0
C173 C 0.16265 0.0066 0.70794 0.0
O174 O 0.16716 0.97853 0.70918 0.0
O175 O 0.1853 0.02499 0.70401 0.0
O176 O 0.6437 0.71351 0.32895 0.0
Cd177 Cd 0.69467 0.73712 0.32744 0.0
O178 O 0.65967 0.67524 0.35237 0.0
Cd179 Cd 0.65838 0.63367 0.37614 0.0
O180 O 0.65475 0.5883 0.39212 0.0
C181 C 0.67664 0.57146 0.39051 0.0
O182 O 0.70175 0.58198 0.37973 0.0
C183 C 0.63778 0.68911 0.34146 0.0
C184 C 0.69436 0.79655 0.35194 0.0
O185 O 0.69071 0.79038 0.32327 0.0
O186 O 0.69902 0.77479 0.36878 0.0
O187 O 0.74506 0.25906 0.96675 0.0
Cd188 Cd 0.69583 0.2371 0.97897 0.0
O189 O 0.74197 0.2962 0.0014 0.0
Cd190 Cd 0.76032 0.33927 0.02459 0.0
O191 O 0.77212 0.38628 0.04165 0.0
C192 C 0.76988 0.40702 0.02343 0.0
O193 O 0.76114 0.39945 0.99493 0.0
C194 C 0.75655 0.28315 0.98132 0.0
C195 C 0.69977 0.17874 0.99779 0.0
O196 O 0.69206 0.18296 0.97017 0.0
O197 O 0.70553 0.20203 0.01642 0.0
O198 O 0.2207 0.77049 0.63588 0.0
Cd199 Cd 0.27063 0.76738 0.66111 0.0
O200 O 0.21919 0.81967 0.63417 0.0
Cd201 Cd 0.20166 0.8615 0.61915 0.0
O202 O 0.20204 0.90644 0.60149 0.0
C203 C 0.20073 0.93035 0.61863 0.0
O204 O 0.19773 0.92802 0.64762 0.0
C205 C 0.20695 0.79309 0.6279 0.0
C206 C 0.28956 0.71382 0.63522 0.0
O207 O 0.27418 0.71384 0.65858 0.0
O208 O 0.29752 0.73933 0.62522 0.0
O209 O 0.3737 0.26657 0.1355 0.0
Cd210 Cd 0.32223 0.28204 0.12929 0.0
O211 O 0.36693 0.24225 0.09068 0.0
Cd212 Cd 0.37978 0.21099 0.05444 0.0
O213 O 0.38256 0.17299 0.02114 0.0
C214 C 0.37699 0.14645 0.02933 0.0
O215 O 0.37066 0.1431 0.05743 0.0
C216 C 0.38392 0.25039 0.1144 0.0
C217 C 0.31875 0.3281 0.08994 0.0
O218 O 0.32237 0.33429 0.11861 0.0
O219 O 0.31667 0.30023 0.08004 0.0
O220 O 0.32134 0.61442 0.67209 0.0
Cd221 Cd 0.31415 0.66668 0.6889 0.0
O222 O 0.35189 0.6246 0.63663 0.0
Cd223 Cd 0.3784 0.61273 0.59826 0.0
O224 O 0.39952 0.61277 0.55503 0.0
C225 C 0.38991 0.59418 0.5329 0.0
O226 O 0.36791 0.57384 0.53665 0.0
C227 C 0.33785 0.60541 0.65154 0.0
C228 C 0.33902 0.67778 0.74832 0.0
O229 O 0.31219 0.66539 0.74264 0.0
O230 O 0.35386 0.6855 0.72597 0.0
O231 O 0.97111 0.76161 0.24765 0.0
Cd232 Cd 0.98105 0.71008 0.23059 0.0
O233 O 0.99732 0.76432 0.29186 0.0
Cd234 Cd 0.00948 0.71806 0.29558 0.0
O235 O 0.01828 0.70531 0.34184 0.0
C236 C 0.99634 0.70716 0.35864 0.0
O237 O 0.96987 0.71308 0.3464 0.0
C238 C 0.98131 0.77658 0.27203 0.0
C239 C 0.0039 0.71063 0.17355 0.0
O240 O 0.9754 0.70992 0.17647 0.0
O241 O 0.02162 0.71051 0.19751 0.0
O242 O 0.65811 0.24919 0.81148 0.0
Cd243 Cd 0.67915 0.30067 0.80704 0.0
O244 O 0.6627 0.24648 0.86084 0.0
Cd245 Cd 0.6537 0.22447 0.90223 0.0
O246 O 0.6391 0.21474 0.94683 0.0
C247 C 0.61894 0.19378 0.9501 0.0
O248 O 0.60715 0.17703 0.92613 0.0
C249 C 0.65424 0.23447 0.83461 0.0
C250 C 0.64827 0.31943 0.75576 0.0
O251 O 0.67268 0.30596 0.75365 0.0
O252 O 0.63938 0.32531 0.78223 0.0
O253 O 0.10038 0.34551 0.2764 0.0
Cd254 Cd 0.11347 0.29733 0.29517 0.0
O255 O 0.08625 0.32778 0.22975 0.0
Cd256 Cd 0.06674 0.33426 0.18421 0.0
O257 O 0.04078 0.34123 0.14195 0.0
C258 C 0.0531 0.35129 0.11927 0.0
O259 O 0.08247 0.35774 0.1211 0.0
C260 C 0.09061 0.34989 0.24962 0.0
C261 C 0.08383 0.28629 0.34707 0.0
O262 O 0.10836 0.30339 0.34862 0.0
O263 O 0.07351 0.27421 0.32108 0.0
H264 H 0.29697 0.57301 0.59279 0.0
H265 H 0.29909 0.53461 0.50187 0.0
H266 H 0.30023 0.63092 0.51925 0.0
H267 H 0.32309 0.49878 0.52644 0.0
C268 C 0.31085 0.49626 0.54657 0.0
C269 C 0.2977 0.57604 0.56896 0.0
C270 C 0.29907 0.60524 0.55871 0.0
C271 C 0.29833 0.55056 0.54885 0.0
C272 C 0.29905 0.55419 0.51771 0.0
C273 C 0.30007 0.58321 0.5069 0.0
C274 C 0.30013 0.60856 0.52757 0.0
N275 N 0.29847 0.5217 0.56078 0.0
H276 H 0.32778 0.45817 0.03287 0.0
H277 H 0.28591 0.48027 0.94783 0.0
H278 H 0.27734 0.38908 0.97376 0.0
H279 H 0.32117 0.5204 0.95441 0.0
C280 C 0.32155 0.52637 0.97855 0.0
C281 C 0.31447 0.45113 0.01194 0.0
C282 C 0.30374 0.4207 0.00573 0.0
C283 C 0.30855 0.47271 0.99114 0.0
C284 C 0.29122 0.46381 0.96387 0.0
C285 C 0.28041 0.43347 0.9573 0.0
C286 C 0.28665 0.41223 0.97838 0.0
N287 N 0.31907 0.50334 0.99913 0.0
H288 H 0.65321 0.93083 0.36622 0.0
H289 H 0.66313 0.99495 0.4434 0.0
H290 H 0.70545 0.91108 0.44672 0.0
H291 H 0.61876 0.02711 0.38726 0.0
C292 C 0.64001 0.01689 0.39132 0.0
C293 C 0.6629 0.93725 0.38897 0.0
C294 C 0.67978 0.91705 0.40491 0.0
C295 C 0.6578 0.9657 0.40231 0.0
C296 C 0.66859 0.97371 0.43247 0.0
C297 C 0.68535 0.95381 0.44892 0.0
C298 C 0.69144 0.92594 0.43462 0.0
N299 N 0.64012 0.98503 0.38541 0.0
H300 H 0.7098 0.03532 0.99376 0.0
H301 H 0.71289 0.97765 0.06729 0.0
H302 H 0.7087 0.07318 0.08564 0.0
H303 H 0.74013 0.95012 0.03287 0.0
C304 C 0.72365 0.95059 0.01372 0.0
C305 C 0.71012 0.03274 0.01784 0.0
C306 C 0.70906 0.05817 0.03839 0.0
C307 C 0.71223 0.00381 0.02813 0.0
C308 C 0.71279 0.00012 0.0593 0.0
C309 C 0.71174 0.02506 0.08023 0.0
C310 C 0.70982 0.05395 0.06956 0.0
N311 N 0.712 0.9785 0.00672 0.0
H312 H 0.59836 0.33856 0.61853 0.0
H313 H 0.50547 0.33493 0.58477 0.0
H314 H 0.5278 0.32151 0.67833 0.0
H315 H 0.60296 0.32 0.56758 0.0
C316 C 0.58791 0.33442 0.55599 0.0
C317 C 0.57464 0.33478 0.62226 0.0
C318 C 0.56582 0.33032 0.65157 0.0
C319 C 0.55274 0.33603 0.59812 0.0
C320 C 0.5221 0.33298 0.6034 0.0
C321 C 0.51278 0.32749 0.63221 0.0
C322 C 0.53482 0.32624 0.65615 0.0
N323 N 0.56061 0.34185 0.56854 0.0
H324 H 0.01073 0.70993 0.02989 0.0
H325 H 0.08756 0.72781 0.97887 0.0
H326 H 0.09852 0.73426 0.07579 0.0
H327 H 0.05139 0.74126 0.94406 0.0
C328 C 0.0338 0.7234 0.94582 0.0
C329 C 0.03454 0.71682 0.02952 0.0
C330 C 0.05298 0.72177 0.0567 0.0
C331 C 0.04656 0.72008 0.0015 0.0
C332 C 0.07772 0.72727 0.00045 0.0
C333 C 0.09669 0.73186 0.02719 0.0
C334 C 0.08403 0.7297 0.05517 0.0
N335 N 0.02715 0.71382 0.9747 0.0
H336 H 0.04536 0.28931 0.48524 0.0
H337 H 0.95734 0.26467 0.51427 0.0
H338 H 0.97379 0.25237 0.42035 0.0
H339 H 0.97242 0.30301 0.55139 0.0
C340 C 0.99573 0.29817 0.55662 0.0
C341 C 0.02213 0.28067 0.47971 0.0
C342 C 0.01207 0.27119 0.44965 0.0
C343 C 0.00244 0.27913 0.50299 0.0
C344 C 0.9725 0.26681 0.49636 0.0
C345 C 0.96211 0.25694 0.46651 0.0
C346 C 0.98194 0.25957 0.4434 0.0
N347 N 0.01383 0.28895 0.53297 0.0
H348 H 0.35838 0.68252 0.89387 0.0
H349 H 0.44203 0.69441 0.94867 0.0
H350 H 0.44272 0.69618 0.8523 0.0
H351 H 0.41106 0.65595 0.97518 0.0
C352 C 0.39391 0.67216 0.97681 0.0
C353 C 0.38282 0.68559 0.89539 0.0
C354 C 0.39848 0.68894 0.86916 0.0
C355 C 0.39849 0.68642 0.92391 0.0
C356 C 0.43009 0.69192 0.92648 0.0
C357 C 0.44606 0.69634 0.90077 0.0
C358 C 0.43018 0.69402 0.8722 0.0
N359 N 0.38198 0.68413 0.95003 0.0
H360 H 0.5921 0.62521 0.28387 0.0
H361 H 0.56176 0.53203 0.28651 0.0
H362 H 0.65681 0.55852 0.29767 0.0
H363 H 0.52651 0.55407 0.24295 0.0
C364 C 0.52073 0.56928 0.26151 0.0
C365 C 0.59757 0.60201 0.2857 0.0
C366 C 0.62778 0.59495 0.2907 0.0
C367 C 0.57399 0.5793 0.28312 0.0
C368 C 0.58027 0.54924 0.28685 0.0
C369 C 0.6101 0.54177 0.29313 0.0
C370 C 0.63373 0.56462 0.29427 0.0
N371 N 0.54382 0.58745 0.27916 0.0
H372 H 0.01954 0.00741 0.71414 0.0
H373 H 0.96601 0.08101 0.73723 0.0
H374 H 0.06225 0.09686 0.73579 0.0
H375 H 0.93223 0.04338 0.74801 0.0
C376 C 0.9347 0.02667 0.72953 0.0
C377 C 0.01832 0.03103 0.72138 0.0
C378 C 0.04473 0.05065 0.72515 0.0
C379 C 0.99 0.04165 0.72611 0.0
C380 C 0.98787 0.07251 0.73417 0.0
C381 C 0.0138 0.09277 0.73738 0.0
C382 C 0.04215 0.08148 0.73325 0.0
N383 N 0.96391 0.02118 0.72021 0.0
H384 H 0.44523 0.99057 0.31595 0.0
H385 H 0.46885 0.90092 0.28954 0.0
H386 H 0.38114 0.92855 0.26233 0.0
H387 H 0.51188 0.91336 0.31664 0.0
C388 C 0.51493 0.93778 0.32025 0.0
C389 C 0.43911 0.96853 0.30439 0.0
C390 C 0.41038 0.96227 0.28925 0.0
C391 C 0.46044 0.94682 0.30462 0.0
C392 C 0.45274 0.91803 0.28978 0.0
C393 C 0.42383 0.91113 0.27504 0.0
C394 C 0.40294 0.93342 0.27477 0.0
N395 N 0.48975 0.95576 0.31847 0.0
H396 H 0.88824 0.36436 0.72381 0.0
H397 H 0.95754 0.43584 0.72011 0.0
H398 H 0.86451 0.4562 0.71621 0.0
H399 H 0.97632 0.3911 0.68956 0.0
C400 C 0.97537 0.37937 0.7102 0.0
C401 C 0.89453 0.38805 0.72168 0.0
C402 C 0.87218 0.40898 0.71959 0.0
C403 C 0.9252 0.39749 0.72103 0.0
C404 C 0.9338 0.42834 0.71959 0.0
C405 C 0.91203 0.44969 0.7184 0.0
C406 C 0.88131 0.43975 0.71773 0.0
N407 N 0.94737 0.37609 0.72373 0.0
H408 H 0.70197 0.37511 0.40238 0.0
H409 H 0.67818 0.42541 0.48205 0.0
H410 H 0.69997 0.33332 0.48706 0.0
H411 H 0.64581 0.4441 0.44266 0.0
C412 C 0.66472 0.45008 0.42941 0.0
C413 C 0.69854 0.37616 0.42631 0.0
C414 C 0.7019 0.35055 0.44291 0.0
C415 C 0.68931 0.40291 0.44016 0.0
C416 C 0.68432 0.40445 0.47108 0.0
C417 C 0.68817 0.37943 0.48815 0.0
C418 C 0.69709 0.35269 0.47391 0.0
N419 N 0.68575 0.42831 0.42287 0.0
H420 H 0.74562 0.59416 0.0205 0.0
H421 H 0.8051 0.58711 0.09961 0.0
H422 H 0.76086 0.66887 0.08746 0.0
H423 H 0.79277 0.53805 0.09138 0.0
C424 C 0.78677 0.53299 0.06742 0.0
C425 C 0.75681 0.60429 0.04155 0.0
C426 C 0.75162 0.63399 0.05157 0.0
C427 C 0.77514 0.58684 0.05919 0.0
C428 C 0.78972 0.59984 0.0866 0.0
C429 C 0.78471 0.62953 0.09722 0.0
C430 C 0.7655 0.64625 0.07945 0.0
N431 N 0.77761 0.55613 0.04893 0.0
H432 H 0.24331 0.10735 0.56947 0.0
H433 H 0.22895 0.05573 0.484 0.0
H434 H 0.24597 0.15226 0.48699 0.0
H435 H 0.21687 0.06825 0.58705 0.0
C436 C 0.21981 0.04834 0.57232 0.0
C437 C 0.24064 0.10655 0.54507 0.0
C438 C 0.24639 0.13319 0.53029 0.0
C439 C 0.23307 0.07875 0.52816 0.0
C440 C 0.23286 0.07754 0.49657 0.0
C441 C 0.23827 0.10388 0.48137 0.0
C442 C 0.24354 0.13164 0.49852 0.0
N443 N 0.22703 0.05119 0.54191 0.0
H444 H 0.35241 0.95727 0.96306 0.0
H445 H 0.33518 0.01619 0.89229 0.0
H446 H 0.30968 0.92125 0.87704 0.0
H447 H 0.3715 0.04685 0.91866 0.0
C448 C 0.36741 0.04318 0.94199 0.0
C449 C 0.34381 0.96029 0.94014 0.0
C450 C 0.33057 0.93544 0.92143 0.0
C451 C 0.34617 0.98931 0.9297 0.0
C452 C 0.33497 0.99367 0.90007 0.0
C453 C 0.32201 0.96915 0.88078 0.0
C454 C 0.32001 0.94015 0.89167 0.0
N455 N 0.35807 0.01382 0.95026 0.0
H456 H 0.42611 0.63619 0.36261 0.0
H457 H 0.51857 0.63545 0.39779 0.0
H458 H 0.49829 0.66983 0.31135 0.0
H459 H 0.41986 0.59762 0.39482 0.0
C460 C 0.43387 0.60746 0.41448 0.0
C461 C 0.44999 0.6406 0.36008 0.0
C462 C 0.45949 0.65312 0.33371 0.0
C463 C 0.4713 0.63381 0.38311 0.0
C464 C 0.50219 0.63997 0.37977 0.0
C465 C 0.51195 0.65289 0.35385 0.0
C466 C 0.49056 0.65933 0.33104 0.0
N467 N 0.46238 0.62274 0.4107 0.0
H468 H 0.96327 0.34713 0.94727 0.0
H469 H 0.89131 0.34322 0.00652 0.0
H470 H 0.87547 0.30847 0.91348 0.0
H471 H 0.99235 0.36513 0.98723 0.0
C472 C 0.98088 0.36104 0.00749 0.0
C473 C 0.94 0.34099 0.95104 0.0
C474 C 0.92027 0.32848 0.92658 0.0
C475 C 0.92954 0.34556 0.98006 0.0
C476 C 0.89904 0.33857 0.98421 0.0
C477 C 0.87899 0.32516 0.96045 0.0
C478 C 0.89006 0.32002 0.93175 0.0
N479 N 0.94897 0.35521 0.00619 0.0
H480 H 0.00929 0.71517 0.54906 0.0
H481 H 0.09447 0.75723 0.52816 0.0
H482 H 0.07642 0.74701 0.62057 0.0
H483 H 0.99484 0.72021 0.50176 0.0
C484 C 0.01469 0.72089 0.48886 0.0
C485 C 0.03116 0.72617 0.55643 0.0
C486 C 0.03997 0.72994 0.58766 0.0
C487 C 0.0508 0.73595 0.53487 0.0
C488 C 0.07916 0.7501 0.54472 0.0
C489 C 0.08799 0.75495 0.57563 0.0
C490 C 0.06847 0.74474 0.59689 0.0
N491 N 0.04361 0.73074 0.50314 0.0
H492 H 0.59774 0.22806 0.14491 0.0
H493 H 0.51618 0.20663 0.08771 0.0
H494 H 0.51245 0.25283 0.17521 0.0
H495 H 0.54539 0.17192 0.06551 0.0
C496 C 0.56622 0.18608 0.0649 0.0
C497 C 0.57341 0.22827 0.14135 0.0
C498 C 0.55664 0.24095 0.16408 0.0
C499 C 0.55905 0.21575 0.11384 0.0
C500 C 0.52742 0.21588 0.109 0.0
C501 C 0.51026 0.22879 0.13129 0.0
C502 C 0.52521 0.24138 0.15858 0.0
N503 N 0.57723 0.20533 0.0907 0.0
H504 H 0.363 0.39609 0.67821 0.0
H505 H 0.39364 0.47424 0.63451 0.0
H506 H 0.31202 0.4746 0.68121 0.0
H507 H 0.41985 0.43749 0.60882 0.0
C508 C 0.4283 0.42704 0.62881 0.0
C509 C 0.3596 0.41889 0.67233 0.0
C510 C 0.33355 0.4329 0.68011 0.0
C511 C 0.38131 0.43369 0.65615 0.0
C512 C 0.37697 0.46297 0.64728 0.0
C513 C 0.35176 0.4781 0.65591 0.0
C514 C 0.33058 0.46285 0.67279 0.0
N515 N 0.40831 0.41938 0.65113 0.0
H516 H 0.92451 0.9784 0.32554 0.0
H517 H 0.99328 0.91632 0.31482 0.0
H518 H 0.90101 0.88742 0.28697 0.0
H519 H 0.0145 0.94653 0.35735 0.0
C520 C 0.01141 0.96808 0.34779 0.0
C521 C 0.93078 0.95612 0.31817 0.0
C522 C 0.90865 0.93371 0.30573 0.0
C523 C 0.96114 0.9499 0.32195 0.0
C524 C 0.96968 0.92101 0.31295 0.0
C525 C 0.94805 0.89829 0.30057 0.0
C526 C 0.91765 0.90488 0.2968 0.0
N527 N 0.98291 0.97343 0.33354 0.0
H528 H 0.59319 0.04029 0.74246 0.0
H529 H 0.567 0.10831 0.80719 0.0
H530 H 0.65722 0.11281 0.77822 0.0
H531 H 0.55195 0.01347 0.75438 0.0
C532 C 0.53613 0.02963 0.76139 0.0
C533 C 0.59891 0.05987 0.75808 0.0
C534 C 0.62791 0.0748 0.75848 0.0
C535 C 0.57697 0.0716 0.7762 0.0
C536 C 0.58422 0.09849 0.79433 0.0
C537 C 0.6132 0.11319 0.79536 0.0
C538 C 0.63503 0.10095 0.77788 0.0
N539 N 0.54675 0.05858 0.77507 0.0
H540 H 0.09729 0.56244 0.22696 0.0
H541 H 0.03896 0.48047 0.2211 0.0
H542 H 0.1347 0.47663 0.23658 0.0
H543 H 0.05733 0.58304 0.20684 0.0
C544 C 0.03731 0.57011 0.21286 0.0
C545 C 0.09422 0.53811 0.22678 0.0
C546 C 0.11973 0.52146 0.23171 0.0
C547 C 0.06497 0.52331 0.22251 0.0
C548 C 0.06144 0.49186 0.22355 0.0
C549 C 0.08665 0.47506 0.2279 0.0
C550 C 0.11557 0.48985 0.23179 0.0
N551 N 0.03841 0.53917 0.21883 0.0
C552 C 0.20519 0.53464 0.24055 0.0
C553 C 0.20919 0.56039 0.26088 0.0
H554 H 0.17395 0.503 0.21423 0.0
C555 C 0.1837 0.57519 0.26902 0.0
H556 H 0.22444 0.52301 0.23352 0.0
C557 C 0.15463 0.56335 0.25849 0.0
C558 C 0.15049 0.5367 0.23925 0.0
H559 H 0.18609 0.5951 0.28469 0.0
H560 H 0.13544 0.57429 0.26668 0.0
C561 C 0.17621 0.52311 0.22961 0.0
C562 C 0.25597 0.40799 0.70489 0.0
C563 C 0.26291 0.38648 0.72545 0.0
H564 H 0.27232 0.43855 0.6738 0.0
C565 C 0.2931 0.37956 0.73054 0.0
H566 H 0.23285 0.41361 0.70035 0.0
C567 C 0.31605 0.39459 0.71603 0.0
C568 C 0.30925 0.41648 0.69563 0.0
H569 H 0.29915 0.36324 0.74651 0.0
H570 H 0.33915 0.38945 0.72143 0.0
C571 C 0.27877 0.42254 0.68991 0.0
C572 C 0.67657 0.02546 0.71157 0.0
C573 C 0.69267 0.04714 0.69602 0.0
H574 H 0.64347 0.01717 0.74364 0.0
C575 C 0.68695 0.07769 0.70088 0.0
H576 H 0.68043 0.00171 0.70828 0.0
C577 C 0.66589 0.08645 0.72102 0.0
C578 C 0.65 0.06491 0.73687 0.0
H579 H 0.6988 0.09496 0.68918 0.0
H580 H 0.66186 0.11019 0.72399 0.0
C581 C 0.65534 0.03426 0.73173 0.0
C582 C 0.82277 0.92378 0.30113 0.0
C583 C 0.81482 0.95233 0.29313 0.0
H584 H 0.8584 0.89584 0.31259 0.0
C585 C 0.83776 0.97501 0.29013 0.0
H586 H 0.80552 0.90594 0.30384 0.0
C587 C 0.86813 0.96902 0.29423 0.0
C588 C 0.87626 0.94035 0.30203 0.0
H589 H 0.83227 0.99717 0.28369 0.0
H590 H 0.88517 0.98671 0.29057 0.0
C591 C 0.85313 0.91795 0.30586 0.0
C592 C 0.25694 0.19868 0.59117 0.0
C593 C 0.27704 0.21887 0.57805 0.0
H594 H 0.2306 0.15616 0.58607 0.0
C595 C 0.28746 0.21046 0.54986 0.0
H596 H 0.2486 0.20467 0.61295 0.0
C597 C 0.27801 0.18251 0.53497 0.0
C598 C 0.25708 0.16247 0.54739 0.0
H599 H 0.30342 0.22532 0.53948 0.0
H600 H 0.28742 0.1766 0.51371 0.0
C601 C 0.2468 0.17083 0.57584 0.0
C602 C 0.3138 0.87308 0.97383 0.0
C603 C 0.31523 0.84689 0.9546 0.0
H604 H 0.31662 0.92135 0.97835 0.0
C605 C 0.32303 0.8499 0.9248 0.0
H606 H 0.30767 0.8715 0.99688 0.0
C607 C 0.3289 0.87853 0.91431 0.0
C608 C 0.32656 0.90487 0.93322 0.0
H609 H 0.3246 0.83011 0.90952 0.0
H610 H 0.33517 0.87995 0.8913 0.0
C611 C 0.31917 0.90171 0.96321 0.0
C612 C 0.74207 0.29391 0.39509 0.0
C613 C 0.73157 0.26642 0.40592 0.0
H614 H 0.74159 0.34212 0.39877 0.0
C615 C 0.70929 0.26654 0.4268 0.0
H616 H 0.75936 0.2945 0.37905 0.0
C617 C 0.69861 0.29372 0.43759 0.0
C618 C 0.7105 0.32152 0.42833 0.0
H619 H 0.70051 0.24564 0.43526 0.0
H620 H 0.68146 0.29291 0.45374 0.0
C621 C 0.73181 0.32122 0.40634 0.0
C622 C 0.69278 0.68867 0.03129 0.0
C623 C 0.6944 0.68933 0.99988 0.0
H624 H 0.70887 0.6702 0.07202 0.0
C625 C 0.71411 0.67068 0.98532 0.0
H626 H 0.67764 0.70252 0.04318 0.0
C627 C 0.73231 0.6523 0.00196 0.0
C628 C 0.73115 0.65216 0.03349 0.0
H629 H 0.71588 0.67064 0.96113 0.0
H630 H 0.74784 0.63879 0.99022 0.0
C631 C 0.71084 0.67025 0.04786 0.0
C632 C 0.61137 0.28861 0.22061 0.0
C633 C 0.59614 0.28733 0.24726 0.0
H634 H 0.61067 0.27545 0.17331 0.0
C635 C 0.56927 0.26876 0.24691 0.0
H636 H 0.63212 0.30278 0.22018 0.0
C637 C 0.55729 0.25265 0.22024 0.0
C638 C 0.57159 0.25512 0.19312 0.0
H639 H 0.55721 0.267 0.26718 0.0
H640 H 0.53643 0.23867 0.22078 0.0
C641 C 0.59914 0.27279 0.19377 0.0
C642 C 0.92178 0.32188 0.8409 0.0
C643 C 0.95079 0.3123 0.83701 0.0
H644 H 0.8898 0.3354 0.87201 0.0
C645 C 0.97008 0.30884 0.86272 0.0
H646 H 0.90648 0.325 0.82152 0.0
C647 C 0.96031 0.31417 0.89173 0.0
C648 C 0.93114 0.32351 0.89572 0.0
H649 H 0.99252 0.30131 0.86044 0.0
H650 H 0.97543 0.31028 0.91098 0.0
C651 C 0.91216 0.32764 0.86989 0.0
C652 C 0.39052 0.68197 0.29274 0.0
C653 C 0.39833 0.67996 0.26258 0.0
H654 H 0.4039 0.67581 0.33893 0.0
C655 C 0.42498 0.66666 0.25569 0.0
H656 H 0.37012 0.69217 0.29877 0.0
C657 C 0.44416 0.65691 0.27864 0.0
C658 C 0.43733 0.66051 0.30911 0.0
H659 H 0.43142 0.66442 0.23262 0.0
H660 H 0.46459 0.64687 0.27248 0.0
C661 C 0.40989 0.67252 0.31579 0.0
C662 C 0.00429 0.71755 0.66204 0.0
C663 C 0.98503 0.69148 0.65432 0.0
H664 H 0.0351 0.75124 0.64694 0.0
C665 C 0.98317 0.67847 0.62458 0.0
H666 H 0.00579 0.72819 0.68481 0.0
C667 C 0.00095 0.69082 0.60305 0.0
C668 C 0.02027 0.71718 0.61048 0.0
H669 H 0.96861 0.65818 0.61817 0.0
H670 H -8e-05 0.67913 0.58082 0.0
C671 C 0.02128 0.73057 0.64027 0.0
C672 C 0.78783 0.4099 0.72919 0.0
C673 C 0.77637 0.38299 0.7128 0.0
H674 H 0.82689 0.43857 0.74536 0.0
C675 C 0.79675 0.36349 0.70063 0.0
H676 H 0.77271 0.42523 0.73911 0.0
C677 C 0.82786 0.3715 0.70348 0.0
C678 C 0.83936 0.399 0.71895 0.0
H679 H 0.78859 0.34264 0.68774 0.0
H680 H 0.84273 0.35664 0.6925 0.0
C681 C 0.81893 0.41766 0.7325 0.0
C682 C 0.7043 0.63827 0.30977 0.0
C683 C 0.70268 0.66228 0.29091 0.0
H684 H 0.68174 0.59901 0.32541 0.0
C685 C 0.67568 0.66512 0.27338 0.0
H686 H 0.72471 0.63565 0.32379 0.0
C687 C 0.65127 0.64362 0.27366 0.0
C688 C 0.65307 0.619 0.29188 0.0
H689 H 0.67377 0.68331 0.25849 0.0
H690 H 0.63141 0.64584 0.25873 0.0
C691 C 0.67971 0.61705 0.31044 0.0
C692 C 0.33682 0.00096 0.28864 0.0
C693 C 0.34678 0.03117 0.28536 0.0
H694 H 0.34907 0.95574 0.29327 0.0
C695 C 0.37773 0.03856 0.28312 0.0
H696 H 0.31314 0.99458 0.29068 0.0
C697 C 0.39831 0.01622 0.28423 0.0
C698 C 0.38844 0.98603 0.2879 0.0
H699 H 0.38609 0.06162 0.28046 0.0
H700 H 0.42193 0.02261 0.28192 0.0
C701 C 0.35743 0.97867 0.29003 0.0
C702 C 0.12562 0.04625 0.7029 0.0
C703 C 0.13233 0.01752 0.71155 0.0
H704 H 0.09261 0.07879 0.69932 0.0
C705 C 0.10997 0.99952 0.72422 0.0
H706 H 0.1423 0.06053 0.69281 0.0
C707 C 0.08166 0.01025 0.72866 0.0
C708 C 0.07485 0.03908 0.72011 0.0
H709 H 0.11454 0.97734 0.7313 0.0
H710 H 0.06531 0.99611 0.73933 0.0
C711 C 0.09715 0.0568 0.70688 0.0
C712 C 0.69212 0.85236 0.34736 0.0
C713 C 0.69192 0.82757 0.36539 0.0
H714 H 0.6893 0.90012 0.34569 0.0
C715 C 0.68816 0.83246 0.39641 0.0
H716 H 0.69506 0.8493 0.32337 0.0
C717 C 0.68421 0.86138 0.40907 0.0
C718 C 0.6844 0.88632 0.39115 0.0
H719 H 0.68756 0.81379 0.41087 0.0
H720 H 0.68036 0.864 0.43287 0.0
C721 C 0.68859 0.88145 0.36013 0.0
C722 C 0.68776 0.12268 0.99074 0.0
C723 C 0.70224 0.14793 0.00787 0.0
H724 H 0.67776 0.07475 0.98724 0.0
C725 C 0.71926 0.14351 0.03477 0.0
H726 H 0.67431 0.12544 0.96999 0.0
C727 C 0.72188 0.11444 0.04431 0.0
C728 C 0.70703 0.08906 0.02751 0.0
H729 H 0.73094 0.16251 0.04829 0.0
H730 H 0.73582 0.11192 0.06479 0.0
C731 C 0.68993 0.09359 0.00056 0.0
C732 C 0.27869 0.65817 0.62363 0.0
C733 C 0.2952 0.68517 0.61838 0.0
H734 H 0.26637 0.61201 0.60855 0.0
C735 C 0.31474 0.6851 0.59485 0.0
H736 H 0.26337 0.65751 0.64155 0.0
C737 C 0.31677 0.65888 0.57614 0.0
C738 C 0.299 0.63227 0.58031 0.0
H739 H 0.32795 0.7055 0.5904 0.0
H740 H 0.33194 0.6596 0.55809 0.0
C741 C 0.28043 0.63204 0.6047 0.0
C742 C 0.3186 0.34566 0.03771 0.0
C743 C 0.31662 0.3523 0.06881 0.0
H744 H 0.31721 0.36217 0.99364 0.0
C745 C 0.31199 0.38204 0.07934 0.0
H746 H 0.32255 0.32306 0.02893 0.0
C747 C 0.30841 0.40446 0.059 0.0
C748 C 0.30968 0.39764 0.02775 0.0
H749 H 0.31035 0.38784 0.10321 0.0
H750 H 0.30376 0.42687 0.06771 0.0
C751 C 0.31539 0.36809 0.01746 0.0
C752 C 0.37827 0.70246 0.7868 0.0
C753 C 0.35293 0.68202 0.77963 0.0
H754 H 0.41164 0.72169 0.82076 0.0
C755 C 0.34174 0.66482 0.80237 0.0
H756 H 0.38721 0.71627 0.76983 0.0
C757 C 0.35625 0.66726 0.83147 0.0
C758 C 0.382 0.68735 0.83862 0.0
H759 H 0.32232 0.64874 0.79745 0.0
H760 H 0.34771 0.65276 0.84806 0.0
C761 C 0.39243 0.70534 0.816 0.0
C762 C 0.9986 0.72302 0.11941 0.0
C763 C 0.01602 0.71243 0.14348 0.0
H764 H 0.99679 0.73536 0.0737 0.0
C765 C 0.0454 0.70438 0.13878 0.0
H766 H 0.97594 0.72963 0.12243 0.0
C767 C 0.05716 0.70692 0.11059 0.0
C768 C 0.04005 0.7182 0.08654 0.0
H769 H 0.05926 0.69588 0.15685 0.0
H770 H 0.07964 0.69981 0.10767 0.0
C771 C 0.01055 0.72614 0.09137 0.0
C772 C 0.60317 0.34108 0.73125 0.0
C773 C 0.6294 0.32556 0.72845 0.0
H774 H 0.56293 0.35527 0.70918 0.0
C775 C 0.63585 0.31364 0.69967 0.0
H776 H 0.59767 0.35078 0.75304 0.0
C777 C 0.6157 0.31591 0.67449 0.0
C778 C 0.58869 0.33014 0.67758 0.0
H779 H 0.65592 0.30158 0.69676 0.0
H780 H 0.62073 0.30543 0.65287 0.0
C781 C 0.5831 0.3434 0.70612 0.0
C782 C 0.04682 0.25599 0.37478 0.0
C783 C 0.06735 0.28132 0.37428 0.0
H784 H 0.01451 0.23208 0.39942 0.0
C785 C 0.07114 0.30236 0.39952 0.0
H786 H 0.04376 0.23917 0.3558 0.0
C787 C 0.05372 0.29881 0.42429 0.0
C788 C 0.03251 0.27383 0.42453 0.0
H789 H 0.08679 0.32217 0.39969 0.0
H790 H 0.05619 0.3162 0.44273 0.0
C791 C 0.02989 0.25209 0.39975 0.0
C792 C 0.28637 0.57172 0.42149 0.0
C793 C 0.30698 0.59387 0.41192 0.0
H794 H 0.26795 0.55101 0.45905 0.0
C795 C 0.32464 0.61295 0.43382 0.0
H796 H 0.27246 0.55664 0.4052 0.0
C797 C 0.32198 0.60977 0.46456 0.0
C798 C 0.30187 0.58721 0.47417 0.0
H799 H 0.34084 0.63017 0.42725 0.0
H800 H 0.33637 0.62443 0.48084 0.0
C801 C 0.28394 0.56834 0.45232 0.0
C802 C 0.22026 0.42888 0.8919 0.0
C803 C 0.22657 0.40214 0.8755 0.0
H804 H 0.23248 0.45992 0.93061 0.0
C805 C 0.2512 0.38644 0.8858 0.0
H806 H 0.20155 0.44161 0.88449 0.0
C807 C 0.26884 0.39696 0.91203 0.0
C808 C 0.2624 0.4235 0.92858 0.0
H809 H 0.25685 0.36587 0.87367 0.0
H810 H 0.28763 0.3843 0.91937 0.0
C811 C 0.23809 0.43953 0.91814 0.0
C812 C 0.71778 0.99781 0.52169 0.0
C813 C 0.71806 0.97504 0.54219 0.0
H814 H 0.70789 0.00893 0.47607 0.0
C815 C 0.70649 0.94564 0.53207 0.0
H816 H 0.72665 0.02068 0.52875 0.0
C817 C 0.69539 0.93901 0.50204 0.0
C818 C 0.69591 0.96152 0.48123 0.0
H819 H 0.7061 0.92764 0.54732 0.0
H820 H 0.68638 0.91615 0.49515 0.0
C821 C 0.70693 0.9911 0.4915 0.0
C822 C 0.69263 0.03158 0.16239 0.0
C823 C 0.7106 0.01022 0.17512 0.0
H824 H 0.67838 0.05257 0.12244 0.0
C825 C 0.72971 0.99459 0.15669 0.0
H826 H 0.67757 0.04392 0.17595 0.0
C827 C 0.73048 0.99984 0.1261 0.0
C828 C 0.71198 0.02067 0.11315 0.0
H829 H 0.74402 0.97815 0.16583 0.0
H830 H 0.74559 0.98753 0.11259 0.0
C831 C 0.69322 0.03666 0.13173 0.0
C832 C 0.42901 0.30432 0.61885 0.0
C833 C 0.41719 0.31891 0.64401 0.0
H834 H 0.46832 0.29542 0.59553 0.0
C835 C 0.43728 0.33472 0.66635 0.0
H836 H 0.41423 0.29186 0.60124 0.0
C837 C 0.46841 0.33664 0.66309 0.0
C838 C 0.48005 0.32331 0.63716 0.0
H839 H 0.42893 0.34624 0.68601 0.0
H840 H 0.48321 0.3495 0.68038 0.0
C841 C 0.46003 0.30659 0.61541 0.0
C842 C 0.17348 0.75771 0.00151 0.0
C843 C 0.1929 0.74112 0.01915 0.0
H844 H 0.12787 0.76813 0.99047 0.0
C845 C 0.18061 0.72323 0.04087 0.0
H846 H 0.1822 0.77178 0.98465 0.0
C847 C 0.14954 0.72108 0.04411 0.0
C848 C 0.12997 0.73674 0.02571 0.0
H849 H 0.19488 0.71017 0.05488 0.0
H850 H 0.14075 0.70618 0.06026 0.0
C851 C 0.14234 0.75549 0.00472 0.0
C852 C 0.88574 0.23656 0.42434 0.0
C853 C 0.87305 0.21432 0.4417 0.0
H854 H 0.92324 0.26798 0.41904 0.0
C855 C 0.88925 0.20729 0.46829 0.0
H856 H 0.87376 0.24286 0.40394 0.0
C857 C 0.91785 0.22168 0.47688 0.0
C858 C 0.93077 0.2434 0.45907 0.0
H859 H 0.88006 0.19036 0.48224 0.0
H860 H 0.9302 0.21518 0.49698 0.0
C861 C 0.91416 0.25096 0.43297 0.0
C862 C 0.52911 0.70324 0.92883 0.0
C863 C 0.54026 0.72775 0.91336 0.0
H864 H 0.49059 0.67389 0.93687 0.0
C865 C 0.52062 0.74047 0.89243 0.0
H866 H 0.54364 0.69291 0.9451 0.0
C867 C 0.49035 0.72958 0.88775 0.0
C868 C 0.47891 0.70578 0.90394 0.0
H869 H 0.52843 0.75933 0.88008 0.0
H870 H 0.47564 0.7406 0.87221 0.0
C871 C 0.4987 0.69245 0.92426 0.0
C872 C 0.60573 0.45603 0.29295 0.0
C873 C 0.62541 0.45178 0.31819 0.0
H874 H 0.58555 0.48783 0.26506 0.0
C875 C 0.64115 0.47717 0.33391 0.0
H876 H 0.59329 0.43692 0.2803 0.0
C877 C 0.63675 0.50621 0.32521 0.0
C878 C 0.6164 0.51061 0.30058 0.0
H879 H 0.65668 0.4746 0.35318 0.0
H880 H 0.64866 0.52531 0.33833 0.0
C881 C 0.60116 0.48518 0.28432 0.0
C882 C 0.0321 0.17558 0.76436 0.0
C883 C 0.00798 0.18934 0.75016 0.0
H884 H 0.05235 0.13432 0.77248 0.0
C885 C 0.98502 0.17103 0.73319 0.0
H886 H 0.05003 0.18908 0.77777 0.0
C887 C 0.98669 0.13977 0.72951 0.0
C888 C 0.01111 0.1259 0.74317 0.0
H889 H 0.96624 0.18095 0.72174 0.0
H890 H 0.96929 0.12667 0.71504 0.0
C891 C 0.03352 0.14419 0.76111 0.0
C892 C 0.37822 0.83831 0.24677 0.0
C893 C 0.39779 0.8246 0.22736 0.0
H894 H 0.37129 0.87615 0.27726 0.0
C895 C 0.42637 0.83927 0.22432 0.0
H896 H 0.35612 0.82759 0.24977 0.0
C897 C 0.43509 0.86709 0.24018 0.0
C898 C 0.41534 0.88092 0.25926 0.0
H899 H 0.44205 0.8293 0.20964 0.0
H900 H 0.45704 0.87808 0.23702 0.0
C901 C 0.38688 0.86617 0.26247 0.0
C902 C 0.95188 0.52607 0.74424 0.0
C903 C 0.93604 0.54566 0.7265 0.0
H904 H 0.95663 0.48057 0.75563 0.0
C905 C 0.91344 0.53321 0.70464 0.0
H906 H 0.96945 0.53484 0.76126 0.0
C907 C 0.90611 0.50198 0.7014 0.0
C908 C 0.92137 0.48253 0.7198 0.0
H909 H 0.90085 0.54763 0.69054 0.0
H910 H 0.88828 0.49307 0.68471 0.0
C911 C 0.94466 0.4949 0.74089 0.0
C912 C 0.65059 0.39532 0.56106 0.0
C913 C 0.66903 0.38121 0.58198 0.0
H914 H 0.64216 0.40582 0.51516 0.0
C915 C 0.69432 0.36723 0.57197 0.0
H916 H 0.63087 0.40624 0.56795 0.0
C917 C 0.70079 0.36705 0.54165 0.0
C918 C 0.68215 0.38085 0.52066 0.0
H919 H 0.70909 0.35629 0.58751 0.0
H920 H 0.72052 0.35619 0.53469 0.0
C921 C 0.65716 0.39526 0.53079 0.0
C922 C 0.81003 0.6867 0.16307 0.0
C923 C 0.81124 0.66822 0.18736 0.0
H924 H 0.80293 0.68899 0.11534 0.0
C925 C 0.80764 0.63673 0.18159 0.0
H926 H 0.81286 0.71108 0.16706 0.0
C927 C 0.80048 0.62399 0.15212 0.0
C928 C 0.79746 0.64251 0.12773 0.0
H929 H 0.80803 0.62206 0.20009 0.0
H930 H 0.79547 0.59977 0.14891 0.0
C931 C 0.80387 0.67396 0.1335 0.0
C932 C 0.26335 0.12112 0.40388 0.0
C933 C 0.2456 0.09953 0.38462 0.0
H934 H 0.2758 0.13879 0.44906 0.0
C935 C 0.22539 0.07917 0.39739 0.0
H936 H 0.27957 0.13682 0.3949 0.0
C937 C 0.22237 0.08093 0.42859 0.0
C938 C 0.24019 0.10254 0.4479 0.0
H939 H 0.21266 0.06111 0.38364 0.0
H940 H 0.20621 0.06516 0.43749 0.0
C941 C 0.26088 0.12246 0.43504 0.0
C942 C 0.31294 0.99911 0.80269 0.0
C943 C 0.28642 0.98267 0.79021 0.0
H944 H 0.34543 0.00725 0.84065 0.0
C945 C 0.27127 0.96239 0.80796 0.0
H946 H 0.32434 0.01601 0.79027 0.0
C947 C 0.28273 0.95811 0.83727 0.0
C948 C 0.30971 0.97395 0.84957 0.0
H949 H 0.25053 0.94967 0.79914 0.0
H950 H 0.27017 0.94261 0.85039 0.0
C951 C 0.32463 0.9946 0.83193 0.0
C952 C 0.5836 0.69992 0.34219 0.0
C953 C 0.60571 0.67887 0.3445 0.0
H954 H 0.53686 0.70816 0.34363 0.0
C955 C 0.59657 0.64885 0.34971 0.0
H956 H 0.5897 0.72324 0.33818 0.0
C957 C 0.56616 0.64033 0.35329 0.0
C958 C 0.54431 0.66157 0.35112 0.0
H959 H 0.61251 0.63166 0.35013 0.0
H960 H 0.55958 0.61703 0.357 0.0
C961 C 0.55331 0.69136 0.34538 0.0
C962 C 0.79421 0.30374 0.94747 0.0
C963 C 0.78718 0.29506 0.97602 0.0
H964 H 0.8281 0.32174 0.92049 0.0
C965 C 0.80991 0.29681 0.99956 0.0
H966 H 0.77682 0.30265 0.92906 0.0
C967 C 0.83958 0.30634 0.99448 0.0
C968 C 0.84703 0.3154 0.96592 0.0
H969 H 0.80488 0.28986 0.0217 0.0
H970 H 0.85666 0.30583 0.01292 0.0
C971 C 0.82372 0.31434 0.94259 0.0
C972 C 0.17283 0.76316 0.58878 0.0
C973 C 0.17725 0.78738 0.61099 0.0
H974 H 0.141 0.73441 0.55972 0.0
C975 C 0.15236 0.80289 0.61949 0.0
H976 H 0.19173 0.75081 0.58197 0.0
C977 C 0.1232 0.79298 0.60727 0.0
C978 C 0.11876 0.76801 0.58586 0.0
H979 H 0.15524 0.82139 0.63684 0.0
H980 H 0.10404 0.80424 0.61512 0.0
C981 C 0.1439 0.7538 0.57605 0.0
C982 C 0.43358 0.24216 0.09319 0.0
C983 C 0.41522 0.24149 0.11764 0.0
H984 H 0.47813 0.23943 0.07837 0.0
C985 C 0.42762 0.23442 0.14591 0.0
H986 H 0.42463 0.24812 0.07129 0.0
C987 C 0.45806 0.22873 0.14987 0.0
C988 C 0.47703 0.23087 0.12586 0.0
H989 H 0.41382 0.23357 0.16505 0.0
H990 H 0.46685 0.22324 0.172 0.0
C991 C 0.46425 0.2371 0.09729 0.0
C992 C 0.36994 0.56183 0.64577 0.0
C993 C 0.34118 0.57281 0.64648 0.0
H994 H 0.39621 0.52372 0.64955 0.0
C995 C 0.31585 0.55232 0.64668 0.0
H996 H 0.38986 0.57734 0.64605 0.0
C997 C 0.31918 0.5214 0.64705 0.0
C998 C 0.34814 0.5103 0.64924 0.0
H999 H 0.29339 0.56033 0.64709 0.0
H1000 H 0.29893 0.5064 0.64679 0.0
C1001 C 0.37347 0.53093 0.64763 0.0
C1002 C 0.98566 0.82473 0.30501 0.0
C1003 C 0.97369 0.8082 0.27827 0.0
H1004 H 0.98668 0.8658 0.33307 0.0
C1005 C 0.95369 0.82183 0.25841 0.0
H1006 H 0.00109 0.81497 0.32088 0.0
C1007 C 0.94549 0.85118 0.26544 0.0
C1008 C 0.95721 0.86749 0.29239 0.0
H1009 H 0.94408 0.80974 0.23762 0.0
H1010 H 0.93004 0.86114 0.24974 0.0
C1011 C 0.97753 0.85398 0.31196 0.0
C1012 C 0.65383 0.17941 0.8427 0.0
C1013 C 0.63995 0.20353 0.83011 0.0
H1014 H 0.65626 0.1312 0.84108 0.0
C1015 C 0.6147 0.19746 0.80933 0.0
H1016 H 0.67356 0.18364 0.85851 0.0
C1017 C 0.60441 0.16773 0.80004 0.0
C1018 C 0.61971 0.14361 0.81078 0.0
H1019 H 0.60375 0.21578 0.79927 0.0
H1020 H 0.58584 0.16363 0.78284 0.0
C1021 C 0.64403 0.14956 0.83273 0.0
C1022 C 0.096 0.39164 0.21514 0.0
C1023 C 0.08548 0.38087 0.24179 0.0
H1024 H 0.10469 0.43046 0.18994 0.0
C1025 C 0.0728 0.40081 0.26241 0.0
H1026 H 0.10648 0.37684 0.19925 0.0
C1027 C 0.07133 0.43124 0.25682 0.0
C1028 C 0.08315 0.44224 0.23089 0.0
H1029 H 0.06471 0.39299 0.28319 0.0
H1030 H 0.0624 0.4465 0.27346 0.0
C1031 C 0.09511 0.42222 0.20987 0.0
C1032 C 0.45046 0.58281 0.3016 0.0
C1033 C 0.42809 0.58091 0.27749 0.0
H1034 H 0.4974 0.5818 0.31529 0.0
C1035 C 0.43627 0.57362 0.24802 0.0
H1036 H 0.44474 0.58713 0.32468 0.0
C1037 C 0.46644 0.56921 0.2428 0.0
C1038 C 0.48883 0.57285 0.26684 0.0
H1039 H 0.41952 0.57172 0.229 0.0
H1040 H 0.4724 0.56378 0.21993 0.0
C1041 C 0.4806 0.57954 0.29628 0.0
C1042 C 0.05905 0.37723 0.72996 0.0
C1043 C 0.05975 0.36737 0.75939 0.0
H1044 H 0.03159 0.38839 0.69136 0.0
C1045 C 0.03227 0.3587 0.77145 0.0
H1046 H 0.07977 0.38384 0.71988 0.0
C1047 C 0.00468 0.36136 0.75509 0.0
C1048 C 0.00407 0.37265 0.72631 0.0
H1049 H 0.03198 0.35086 0.79398 0.0
H1050 H 0.9839 0.35552 0.7654 0.0
C1051 C 0.03148 0.37982 0.71361 0.0
C1052 C 0.85246 0.00569 0.7049 0.0
C1053 C 0.85449 0.98517 0.67974 0.0
H1054 H 0.87646 0.03477 0.74036 0.0
C1055 C 0.88319 0.97709 0.67212 0.0
H1056 H 0.83071 0.01236 0.71141 0.0
C1057 C 0.90931 0.98992 0.68869 0.0
C1058 C 0.90726 0.01109 0.71326 0.0
H1059 H 0.88558 0.96127 0.65295 0.0
H1060 H 0.93107 0.98365 0.68183 0.0
C1061 C 0.87861 0.01852 0.72148 0.0
C1062 C 0.59905 0.95001 0.31371 0.0
C1063 C 0.60345 0.98174 0.31709 0.0
H1064 H 0.56732 0.91123 0.31231 0.0
C1065 C 0.57934 0.99852 0.32557 0.0
H1066 H 0.61727 0.93639 0.30755 0.0
C1067 C 0.55082 0.98411 0.32814 0.0
C1068 C 0.5459 0.95261 0.3225 0.0
H1069 H 0.58204 0.02295 0.32872 0.0
H1070 H 0.53241 0.99785 0.33337 0.0
C1071 C 0.57049 0.93558 0.31645 0.0
C1072 C 0.29725 0.43525 0.60085 0.0
C1073 C 0.31723 0.41397 0.59132 0.0
H1074 H 0.27961 0.4782 0.59435 0.0
C1075 C 0.33392 0.41949 0.56625 0.0
H1076 H 0.28409 0.43166 0.62007 0.0
C1077 C 0.33118 0.44598 0.55143 0.0
C1078 C 0.31201 0.46765 0.56156 0.0
H1079 H 0.34951 0.40357 0.55832 0.0
H1080 H 0.34463 0.44983 0.53242 0.0
C1081 C 0.29479 0.46196 0.58621 0.0
C1082 C 0.32125 0.6114 0.9784 0.0
C1083 C 0.31952 0.61995 0.00926 0.0
H1084 H 0.32326 0.57488 0.94464 0.0
C1085 C 0.32139 0.59773 0.03025 0.0
H1086 H 0.32013 0.62798 0.96167 0.0
C1087 C 0.32311 0.5674 0.02047 0.0
C1088 C 0.32314 0.55868 0.98949 0.0
H1089 H 0.32034 0.60356 0.0542 0.0
H1090 H 0.32349 0.55075 0.03716 0.0
C1091 C 0.32302 0.58102 0.96863 0.0
C1092 C 0.69139 0.08675 0.41603 0.0
C1093 C 0.72003 0.07748 0.40969 0.0
H1094 H 0.64383 0.07455 0.41521 0.0
C1095 C 0.72227 0.04783 0.39728 0.0
H1096 H 0.68882 0.10943 0.42553 0.0
C1097 C 0.69648 0.02793 0.39132 0.0
C1098 C 0.66793 0.03716 0.39801 0.0
H1099 H 0.74394 0.04002 0.39188 0.0
H1100 H 0.69897 0.00558 0.381 0.0
C1101 C 0.66563 0.0668 0.41017 0.0
C1102 C 0.67663 0.893 0.96 0.0
C1103 C 0.68576 0.86564 0.97053 0.0
H1104 H 0.68142 0.94139 0.96524 0.0
C1105 C 0.70866 0.86667 0.99405 0.0
H1106 H 0.6591 0.89304 0.94187 0.0
C1107 C 0.72148 0.89441 0.00736 0.0
C1108 C 0.71164 0.92166 0.9975 0.0
H1109 H 0.7163 0.84606 0.00264 0.0
H1110 H 0.73863 0.89454 0.02591 0.0
C1111 C 0.68942 0.92074 0.97339 0.0
C1112 C 0.58436 0.37415 0.48331 0.0
C1113 C 0.60524 0.35916 0.4665 0.0
H1114 H 0.56252 0.37814 0.52465 0.0
C1115 C 0.62004 0.33557 0.47924 0.0
H1116 H 0.57255 0.39241 0.47421 0.0
C1117 C 0.61465 0.32774 0.50851 0.0
C1118 C 0.5938 0.34282 0.52519 0.0
H1119 H 0.63613 0.32349 0.46682 0.0
H1120 H 0.62666 0.30982 0.51804 0.0
C1121 C 0.57858 0.36596 0.51225 0.0
C1122 C 0.04823 0.29413 0.62686 0.0
C1123 C 0.02961 0.30239 0.64994 0.0
H1124 H 0.05231 0.28632 0.57933 0.0
C1125 C 0.00065 0.31148 0.64189 0.0
H1126 H 0.07071 0.28713 0.63225 0.0
C1127 C 0.99004 0.31083 0.61145 0.0
C1128 C 0.00821 0.30129 0.58852 0.0
H1129 H 0.98577 0.31808 0.65909 0.0
H1130 H 0.96731 0.31706 0.60587 0.0
C1131 C 0.03766 0.2936 0.59648 0.0
C1132 C 0.39335 0.68312 0.06175 0.0
C1133 C 0.37728 0.7091 0.0655 0.0
H1134 H 0.41096 0.6511 0.03054 0.0
C1135 C 0.36454 0.72146 0.03966 0.0
H1136 H 0.40332 0.67292 0.08114 0.0
C1137 C 0.36901 0.70896 0.01071 0.0
C1138 C 0.38614 0.68375 0.00706 0.0
H1139 H 0.35186 0.74135 0.04172 0.0
H1140 H 0.35968 0.71955 0.99128 0.0
C1141 C 0.39776 0.67062 0.0328 0.0
C1142 C 0.01173 0.70329 0.86283 0.0
C1143 C 0.98996 0.67898 0.86383 0.0
H1144 H 0.04258 0.73635 0.8882 0.0
C1145 C 0.98159 0.67036 0.89216 0.0
H1146 H 0.01868 0.71052 0.84139 0.0
C1147 C 0.99528 0.68514 0.91888 0.0
C1148 C 0.01762 0.70887 0.91782 0.0
H1149 H 0.96484 0.65178 0.89378 0.0
H1150 H 0.98869 0.67756 0.9403 0.0
C1151 C 0.02543 0.71807 0.88959 0.0
C1152 C 0.5048 0.40924 0.6635 0.0
C1153 C 0.52285 0.41213 0.63896 0.0
H1154 H 0.46057 0.41127 0.67956 0.0
C1155 C 0.50929 0.41908 0.611 0.0
H1156 H 0.51453 0.40373 0.68527 0.0
C1157 C 0.47849 0.42356 0.60779 0.0
C1158 C 0.46053 0.42083 0.63231 0.0
H1159 H 0.52249 0.42133 0.59156 0.0
H1160 H 0.46871 0.42929 0.5861 0.0
C1161 C 0.47387 0.41343 0.66018 0.0
C1162 C 0.95506 0.58348 0.22257 0.0
C1163 C 0.95424 0.61409 0.21666 0.0
H1164 H 0.9818 0.54549 0.22606 0.0
C1165 C 0.98084 0.62985 0.20901 0.0
H1166 H 0.93498 0.57066 0.22851 0.0
C1167 C 0.00771 0.61539 0.20759 0.0
C1168 C 0.00854 0.58491 0.21378 0.0
H1169 H 0.98099 0.65341 0.20428 0.0
H1170 H 0.02792 0.62811 0.20182 0.0
C1171 C 0.98193 0.56903 0.22117 0.0
C1172 C 0.09171 0.00228 0.35776 0.0
C1173 C 0.08963 0.02947 0.34359 0.0
H1174 H 0.06836 0.96174 0.37023 0.0
C1175 C 0.06113 0.03718 0.33216 0.0
H1176 H 0.11329 0.9957 0.36691 0.0
C1177 C 0.0354 0.01767 0.33411 0.0
C1178 C 0.03775 0.99015 0.34758 0.0
H1179 H 0.05874 0.05799 0.32119 0.0
H1180 H 0.01386 0.02392 0.32457 0.0
C1181 C 0.06601 0.98284 0.35973 0.0
C1182 C 0.45103 0.03238 0.76157 0.0
C1183 C 0.44082 0.00338 0.74874 0.0
H1184 H 0.489 0.06349 0.77571 0.0
C1185 C 0.46227 0.98311 0.74047 0.0
H1186 H 0.43514 0.04855 0.76822 0.0
C1187 C 0.49321 0.99171 0.74477 0.0
C1188 C 0.50333 0.0207 0.75746 0.0
H1189 H 0.4552 0.9606 0.73053 0.0
H1190 H 0.50925 0.97571 0.73806 0.0
C1191 C 0.48195 0.04094 0.7659 0.0
C1192 C 0.69738 0.5211 0.3973 0.0
C1193 C 0.67373 0.54028 0.40031 0.0
H1194 H 0.71316 0.4774 0.40399 0.0
C1195 C 0.64711 0.52928 0.4125 0.0
H1196 H 0.71812 0.52882 0.38787 0.0
C1197 C 0.64432 0.49987 0.42172 0.0
C1198 C 0.66794 0.48078 0.41873 0.0
H1199 H 0.62842 0.54341 0.41503 0.0
H1200 H 0.62364 0.492 0.4312 0.0
C1201 C 0.69451 0.4916 0.40643 0.0
C1202 C 0.77112 0.46218 0.01447 0.0
C1203 C 0.77566 0.4393 0.03433 0.0
H1204 H 0.77111 0.50969 0.00915 0.0
C1205 C 0.78498 0.44764 0.0648 0.0
H1206 H 0.76401 0.45657 0.99085 0.0
C1207 C 0.78911 0.47814 0.07526 0.0
C1208 C 0.78393 0.50091 0.05553 0.0
H1209 H 0.78877 0.43062 0.08069 0.0
H1210 H 0.79591 0.48392 0.09893 0.0
C1211 C 0.77518 0.49266 0.02496 0.0
C1212 C 0.20167 0.987 0.62485 0.0
C1213 C 0.20445 0.96051 0.60639 0.0
H1214 H 0.2044 0.03551 0.62841 0.0
C1215 C 0.21181 0.96315 0.57635 0.0
H1216 H 0.19585 0.98577 0.64801 0.0
C1217 C 0.21672 0.9916 0.56518 0.0
C1218 C 0.2143 0.01805 0.58378 0.0
H1219 H 0.21416 0.94324 0.56151 0.0
H1220 H 0.22258 0.99277 0.54201 0.0
C1221 C 0.20655 0.01547 0.61364 0.0
C1222 C 0.38172 0.12327 0.97691 0.0
C1223 C 0.37606 0.11982 0.00729 0.0
H1224 H 0.38343 0.10151 0.93255 0.0
C1225 C 0.36857 0.09068 0.01628 0.0
H1226 H 0.38758 0.14539 0.96925 0.0
C1227 C 0.3662 0.06563 0.99526 0.0
C1228 C 0.37132 0.06921 0.96482 0.0
H1229 H 0.36411 0.08719 0.0395 0.0
H1230 H 0.35999 0.04357 0.00287 0.0
C1231 C 0.37937 0.09818 0.9559 0.0
C1232 C 0.42744 0.61645 0.49931 0.0
C1233 C 0.40219 0.59651 0.50287 0.0
H1234 H 0.4575 0.6354 0.46874 0.0
C1235 C 0.38814 0.57959 0.47722 0.0
H1236 H 0.43884 0.62978 0.51859 0.0
C1237 C 0.39856 0.58319 0.44857 0.0
C1238 C 0.42364 0.60325 0.44506 0.0
H1239 H 0.36863 0.56403 0.47913 0.0
H1240 H 0.3869 0.57036 0.42911 0.0
C1241 C 0.43818 0.61965 0.47073 0.0
C1242 C 0.03072 0.70997 0.40612 0.0
C1243 C 0.00131 0.70725 0.39195 0.0
H1244 H 0.05817 0.71665 0.44789 0.0
C1245 C 0.97657 0.7073 0.41004 0.0
H1246 H 0.05027 0.71008 0.39284 0.0
C1247 C 0.98111 0.71098 0.44154 0.0
C1248 C 0.01045 0.71498 0.45561 0.0
H1249 H 0.95362 0.70516 0.39986 0.0
H1250 H 0.96163 0.71149 0.4549 0.0
C1251 C 0.03526 0.71393 0.43766 0.0
C1252 C 0.58208 0.16968 0.98315 0.0
C1253 C 0.60723 0.18992 0.98016 0.0
H1254 H 0.54953 0.15274 0.01247 0.0
C1255 C 0.62011 0.20754 0.0059 0.0
H1256 H 0.57166 0.1557 0.96382 0.0
C1257 C 0.60745 0.20575 0.03376 0.0
C1258 C 0.58163 0.18631 0.0364 0.0
H1259 H 0.63962 0.22322 0.00444 0.0
H1260 H 0.6175 0.22012 0.05298 0.0
C1261 C 0.56939 0.16796 0.01099 0.0
C1262 C 0.00292 0.34987 0.08972 0.0
C1263 C 0.03454 0.35499 0.09095 0.0
H1264 H 0.96113 0.34796 0.06267 0.0
C1265 C 0.0482 0.36316 0.06475 0.0
H1266 H 0.99164 0.34365 0.10949 0.0
C1267 C 0.03063 0.36557 0.03778 0.0
C1268 C 0.9991 0.36003 0.03652 0.0
H1269 H 0.0725 0.36729 0.06492 0.0
H1270 H 0.04174 0.37145 0.0178 0.0
C1271 C 0.98539 0.35241 0.06284 0.0
loop_
_geom_bond_atom_site_label_1
_geom_bond_atom_site_label_2
_geom_bond_distance
_geom_bond_site_symmetry_2
_ccdc_geom_bond_type
O0 Cd1 2.300 . S
O0 C7 1.275 . S
Cd1 O0 2.300 . S
Cd1 O9 2.381 . S
Cd1 O10 2.378 . S
O2 Cd3 2.385 . S
O2 C7 1.255 . S
Cd3 O2 2.385 . S
Cd3 O4 2.317 . S
O4 Cd3 2.317 . S
O4 C5 1.232 . S
C5 O4 1.232 . S
C5 O6 1.218 . S
O6 C5 1.218 . S
C7 O0 1.275 . S
C7 O2 1.255 . S
C8 O9 1.258 . S
C8 O10 1.256 . S
O9 Cd1 2.381 . S
O9 C8 1.258 . S
O10 Cd1 2.378 . S
O10 C8 1.256 . S
O11 Cd12 2.300 . S
O11 C18 1.275 . S
Cd12 O11 2.300 . S
Cd12 O20 2.381 . S
Cd12 O21 2.378 . S
O13 Cd14 2.385 . S
O13 C18 1.255 . S
Cd14 O13 2.385 . S
Cd14 O15 2.317 . S
O15 Cd14 2.317 . S
O15 C16 1.232 . S
C16 O15 1.232 . S
C16 O17 1.218 . S
O17 C16 1.218 . S
C18 O11 1.275 . S
C18 O13 1.255 . S
C19 O20 1.258 . S
C19 O21 1.256 . S
O20 Cd12 2.381 . S
O20 C19 1.258 . S
O21 Cd12 2.378 . S
O21 C19 1.256 . S
O22 Cd23 2.288 1_545 S
O22 C29 1.261 1_545 S
Cd23 O22 2.288 1_565 S
Cd23 O31 2.381 1_565 S
Cd23 O32 2.378 . S
O24 Cd25 2.385 . S
O24 C29 1.255 . S
Cd25 O24 2.385 . S
Cd25 O26 2.317 . S
O26 Cd25 2.317 . S
O26 C27 1.232 . S
C27 O26 1.232 . S
C27 O28 1.218 . S
O28 C27 1.218 . S
C29 O22 1.261 1_565 S
C29 O24 1.255 . S
C30 O31 1.258 . S
C30 O32 1.256 1_545 S
O31 Cd23 2.381 1_545 S
O31 C30 1.258 . S
O32 Cd23 2.378 . S
O32 C30 1.256 1_565 S
O33 Cd34 2.300 1_565 S
O33 C40 1.275 1_565 S
Cd34 O33 2.300 1_545 S
Cd34 O42 2.381 1_545 S
Cd34 O43 2.378 . S
O35 Cd36 2.385 . S
O35 C40 1.255 . S
Cd36 O35 2.385 . S
Cd36 O37 2.317 . S
O37 Cd36 2.317 . S
O37 C38 1.232 . S
C38 O37 1.232 . S
C38 O39 1.218 . S
O39 C38 1.218 . S
C40 O33 1.275 1_545 S
C40 O35 1.255 . S
C41 O42 1.258 1_545 S
C41 O43 1.256 . S
O42 Cd34 2.381 1_565 S
O42 C41 1.258 1_565 S
O43 Cd34 2.378 . S
O43 C41 1.256 . S
O44 Cd45 2.300 . S
O44 C51 1.275 . S
Cd45 O44 2.300 . S
Cd45 O53 2.381 . S
Cd45 O54 2.378 . S
O46 Cd47 2.385 . S
O46 C51 1.255 . S
Cd47 O46 2.385 . S
Cd47 O48 2.317 . S
O48 Cd47 2.317 . S
O48 C49 1.232 . S
C49 O48 1.232 . S
C49 O50 1.218 . S
O50 C49 1.218 . S
C51 O44 1.275 . S
C51 O46 1.255 . S
C52 O53 1.258 . S
C52 O54 1.256 . S
O53 Cd45 2.381 . S
O53 C52 1.258 . S
O54 Cd45 2.378 . S
O54 C52 1.256 . S
O55 Cd56 2.300 1_556 S
O55 C62 1.275 1_556 S
Cd56 O55 2.300 1_554 S
Cd56 O64 2.381 1_554 S
Cd56 O65 2.378 . S
O57 Cd58 2.385 . S
O57 C62 1.255 . S
Cd58 O57 2.385 . S
Cd58 O59 2.317 . S
O59 Cd58 2.317 . S
O59 C60 1.232 . S
C60 O59 1.232 . S
C60 O61 1.218 . S
O61 C60 1.218 . S
C62 O55 1.275 1_554 S
C62 O57 1.255 . S
C63 O64 1.258 1_554 S
C63 O65 1.256 . S
O64 Cd56 2.381 1_556 S
O64 C63 1.258 1_556 S
O65 Cd56 2.378 . S
O65 C63 1.256 . S
O66 Cd67 2.300 . S
O66 C73 1.275 . S
Cd67 O66 2.300 . S
Cd67 O75 2.381 . S
Cd67 O76 2.378 . S
O68 Cd69 2.385 . S
O68 C73 1.255 . S
Cd69 O68 2.385 . S
Cd69 O70 2.317 . S
O70 Cd69 2.317 . S
O70 C71 1.232 . S
C71 O70 1.232 . S
C71 O72 1.218 . S
O72 C71 1.218 . S
C73 O66 1.275 . S
C73 O68 1.255 . S
C74 O75 1.258 . S
C74 O76 1.256 . S
O75 Cd67 2.381 . S
O75 C74 1.258 . S
O76 Cd67 2.378 . S
O76 C74 1.256 . S
O77 Cd78 2.289 1_554 S
O77 C84 1.261 1_554 S
Cd78 O77 2.289 1_556 S
Cd78 O86 2.381 1_556 S
Cd78 O87 2.378 . S
O79 Cd80 2.385 . S
O79 C84 1.255 . S
Cd80 O79 2.385 . S
Cd80 O81 2.317 . S
O81 Cd80 2.317 . S
O81 C82 1.232 . S
C82 O81 1.232 . S
C82 O83 1.218 . S
O83 C82 1.218 . S
C84 O77 1.261 1_556 S
C84 O79 1.255 . S
C85 O86 1.258 . S
C85 O87 1.256 1_554 S
O86 Cd78 2.381 1_554 S
O86 C85 1.258 . S
O87 Cd78 2.378 . S
O87 C85 1.256 1_556 S
O88 Cd89 2.300 . S
O88 C95 1.275 . S
Cd89 O88 2.300 . S
Cd89 O97 2.381 . S
Cd89 O98 2.378 . S
O90 Cd91 2.385 . S
O90 C95 1.255 . S
Cd91 O90 2.385 . S
Cd91 O92 2.317 . S
O92 Cd91 2.317 . S
O92 C93 1.232 . S
C93 O92 1.232 . S
C93 O94 1.218 . S
O94 C93 1.218 . S
C95 O88 1.275 . S
C95 O90 1.255 . S
C96 O97 1.258 . S
C96 O98 1.256 . S
O97 Cd89 2.381 . S
O97 C96 1.258 . S
O98 Cd89 2.378 . S
O98 C96 1.256 . S
O99 Cd100 2.300 1_655 S
O99 C106 1.275 1_655 S
Cd100 O99 2.300 1_455 S
Cd100 O108 2.381 1_455 S
Cd100 O109 2.378 . S
O101 Cd102 2.385 . S
O101 C106 1.255 . S
Cd102 O101 2.385 . S
Cd102 O103 2.317 . S
O103 Cd102 2.317 . S
O103 C104 1.232 . S
C104 O103 1.232 . S
C104 O105 1.218 . S
O105 C104 1.218 . S
C106 O99 1.275 1_455 S
C106 O101 1.255 . S
C107 O108 1.258 1_455 S
C107 O109 1.256 . S
O108 Cd100 2.381 1_655 S
O108 C107 1.258 1_655 S
O109 Cd100 2.378 . S
O109 C107 1.256 . S
O110 Cd111 2.300 . S
O110 C117 1.275 . S
Cd111 O110 2.300 . S
Cd111 O119 2.381 . S
Cd111 O120 2.378 . S
O112 Cd113 2.385 . S
O112 C117 1.255 . S
Cd113 O112 2.385 . S
Cd113 O114 2.317 . S
O114 Cd113 2.317 . S
O114 C115 1.232 . S
C115 O114 1.232 . S
C115 O116 1.218 . S
O116 C115 1.218 . S
C117 O110 1.275 . S
C117 O112 1.255 . S
C118 O119 1.258 . S
C118 O120 1.256 . S
O119 Cd111 2.381 . S
O119 C118 1.258 . S
O120 Cd111 2.378 . S
O120 C118 1.256 . S
O121 Cd122 2.289 1_455 S
O121 C128 1.261 1_455 S
Cd122 O121 2.289 1_655 S
Cd122 O130 2.381 1_655 S
Cd122 O131 2.378 . S
O123 Cd124 2.385 . S
O123 C128 1.255 . S
Cd124 O123 2.385 . S
Cd124 O125 2.317 . S
O125 Cd124 2.317 . S
O125 C126 1.232 . S
C126 O125 1.232 . S
C126 O127 1.218 . S
O127 C126 1.218 . S
C128 O121 1.261 1_655 S
C128 O123 1.255 . S
C129 O130 1.258 . S
C129 O131 1.256 1_455 S
O130 Cd122 2.381 1_455 S
O130 C129 1.258 . S
O131 Cd122 2.378 . S
O131 C129 1.256 1_655 S
O132 Cd133 2.300 . S
O132 C139 1.275 . S
Cd133 O132 2.300 . S
Cd133 O141 2.381 . S
Cd133 O142 2.378 . S
O134 Cd135 2.385 . S
O134 C139 1.255 . S
Cd135 O134 2.385 . S
Cd135 O136 2.317 . S
O136 Cd135 2.317 . S
O136 C137 1.232 . S
C137 O136 1.232 . S
C137 O138 1.218 . S
O138 C137 1.218 . S
C139 O132 1.275 . S
C139 O134 1.255 . S
C140 O141 1.258 . S
C140 O142 1.256 . S
O141 Cd133 2.381 . S
O141 C140 1.258 . S
O142 Cd133 2.378 . S
O142 C140 1.256 . S
O143 Cd144 2.300 . S
O143 C150 1.275 . S
Cd144 O143 2.300 . S
Cd144 O152 2.381 . S
Cd144 O153 2.378 . S
O145 Cd146 2.385 . S
O145 C150 1.255 . S
Cd146 O145 2.385 . S
Cd146 O147 2.317 . S
O147 Cd146 2.317 . S
O147 C148 1.232 . S
C148 O147 1.232 . S
C148 O149 1.218 . S
O149 C148 1.218 . S
C150 O143 1.275 . S
C150 O145 1.255 . S
C151 O152 1.258 . S
C151 O153 1.256 . S
O152 Cd144 2.381 . S
O152 C151 1.258 . S
O153 Cd144 2.378 . S
O153 C151 1.256 . S
O154 Cd155 2.300 1_545 S
O154 C161 1.275 . S
Cd155 O154 2.300 1_565 S
Cd155 O163 2.381 1_565 S
Cd155 O164 2.378 . S
O156 Cd157 2.385 . S
O156 C161 1.255 1_565 S
Cd157 O156 2.385 . S
Cd157 O158 2.317 . S
O158 Cd157 2.317 . S
O158 C159 1.232 . S
C159 O158 1.232 . S
C159 O160 1.218 . S
O160 C159 1.218 . S
C161 O154 1.275 . S
C161 O156 1.255 1_545 S
C162 O163 1.258 1_565 S
C162 O164 1.256 . S
O163 Cd155 2.381 1_545 S
O163 C162 1.258 1_545 S
O164 Cd155 2.378 . S
O164 C162 1.256 . S
O165 Cd166 2.300 1_565 S
O165 C172 1.275 1_565 S
Cd166 O165 2.300 1_545 S
Cd166 O174 2.381 1_545 S
Cd166 O175 2.378 . S
O167 Cd168 2.385 . S
O167 C172 1.255 . S
Cd168 O167 2.385 . S
Cd168 O169 2.317 . S
O169 Cd168 2.317 . S
O169 C170 1.232 . S
C170 O169 1.232 . S
C170 O171 1.218 . S
O171 C170 1.218 . S
C172 O165 1.275 1_545 S
C172 O167 1.255 . S
C173 O174 1.258 1_545 S
C173 O175 1.256 . S
O174 Cd166 2.381 1_565 S
O174 C173 1.258 1_565 S
O175 Cd166 2.378 . S
O175 C173 1.256 . S
O176 Cd177 2.300 . S
O176 C183 1.275 . S
Cd177 O176 2.300 . S
Cd177 O185 2.381 . S
Cd177 O186 2.378 . S
O178 Cd179 2.385 . S
O178 C183 1.255 . S
Cd179 O178 2.385 . S
Cd179 O180 2.317 . S
O180 Cd179 2.317 . S
O180 C181 1.232 . S
C181 O180 1.232 . S
C181 O182 1.218 . S
O182 C181 1.218 . S
C183 O176 1.275 . S
C183 O178 1.255 . S
C184 O185 1.258 . S
C184 O186 1.256 . S
O185 Cd177 2.381 . S
O185 C184 1.258 . S
O186 Cd177 2.378 . S
O186 C184 1.256 . S
O187 Cd188 2.300 1_556 S
O187 C194 1.275 1_556 S
Cd188 O187 2.300 1_554 S
Cd188 O196 2.381 1_554 S
Cd188 O197 2.378 . S
O189 Cd190 2.385 . S
O189 C194 1.255 . S
Cd190 O189 2.385 . S
Cd190 O191 2.317 . S
O191 Cd190 2.317 . S
O191 C192 1.232 . S
C192 O191 1.232 . S
C192 O193 1.218 . S
O193 C192 1.218 . S
C194 O187 1.275 1_554 S
C194 O189 1.255 . S
C195 O196 1.258 1_554 S
C195 O197 1.256 . S
O196 Cd188 2.381 1_556 S
O196 C195 1.258 1_556 S
O197 Cd188 2.378 . S
O197 C195 1.256 . S
O198 Cd199 2.300 . S
O198 C205 1.275 . S
Cd199 O198 2.300 . S
Cd199 O207 2.381 . S
Cd199 O208 2.378 . S
O200 Cd201 2.385 . S
O200 C205 1.255 . S
Cd201 O200 2.385 . S
Cd201 O202 2.317 . S
O202 Cd201 2.317 . S
O202 C203 1.232 . S
C203 O202 1.232 . S
C203 O204 1.218 . S
O204 C203 1.218 . S
C205 O198 1.275 . S
C205 O200 1.255 . S
C206 O207 1.258 . S
C206 O208 1.256 . S
O207 Cd199 2.381 . S
O207 C206 1.258 . S
O208 Cd199 2.378 . S
O208 C206 1.256 . S
O209 Cd210 2.300 1_554 S
O209 C216 1.275 . S
Cd210 O209 2.300 1_556 S
Cd210 O218 2.381 1_556 S
Cd210 O219 2.378 . S
O211 Cd212 2.385 . S
O211 C216 1.255 1_556 S
Cd212 O211 2.385 . S
Cd212 O213 2.317 . S
O213 Cd212 2.317 . S
O213 C214 1.232 . S
C214 O213 1.232 . S
C214 O215 1.218 . S
O215 C214 1.218 . S
C216 O209 1.275 . S
C216 O211 1.255 1_554 S
C217 O218 1.258 1_556 S
C217 O219 1.256 . S
O218 Cd210 2.381 1_554 S
O218 C217 1.258 1_554 S
O219 Cd210 2.378 . S
O219 C217 1.256 . S
O220 Cd221 2.300 . S
O220 C227 1.275 . S
Cd221 O220 2.300 . S
Cd221 O229 2.381 . S
Cd221 O230 2.378 . S
O222 Cd223 2.385 . S
O222 C227 1.255 . S
Cd223 O222 2.385 . S
Cd223 O224 2.317 . S
O224 Cd223 2.317 . S
O224 C225 1.232 . S
C225 O224 1.232 . S
C225 O226 1.218 . S
O226 C225 1.218 . S
C227 O220 1.275 . S
C227 O222 1.255 . S
C228 O229 1.258 . S
C228 O230 1.256 . S
O229 Cd221 2.381 . S
O229 C228 1.258 . S
O230 Cd221 2.378 . S
O230 C228 1.256 . S
O231 Cd232 2.300 1_655 S
O231 C238 1.275 1_655 S
Cd232 O231 2.300 1_455 S
Cd232 O240 2.381 1_455 S
Cd232 O241 2.378 . S
O233 Cd234 2.385 . S
O233 C238 1.255 . S
Cd234 O233 2.385 . S
Cd234 O235 2.317 . S
O235 Cd234 2.317 . S
O235 C236 1.232 . S
C236 O235 1.232 . S
C236 O237 1.218 . S
O237 C236 1.218 . S
C238 O231 1.275 1_455 S
C238 O233 1.255 . S
C239 O240 1.258 1_455 S
C239 O241 1.256 . S
O240 Cd232 2.381 1_655 S
O240 C239 1.258 1_655 S
O241 Cd232 2.378 . S
O241 C239 1.256 . S
O242 Cd243 2.300 . S
O242 C249 1.275 . S
Cd243 O242 2.300 . S
Cd243 O251 2.381 . S
Cd243 O252 2.378 . S
O244 Cd245 2.385 . S
O244 C249 1.255 . S
Cd245 O244 2.385 . S
Cd245 O246 2.317 . S
O246 Cd245 2.317 . S
O246 C247 1.232 . S
C247 O246 1.232 . S
C247 O248 1.218 . S
O248 C247 1.218 . S
C249 O242 1.275 . S
C249 O244 1.255 . S
C250 O251 1.258 . S
C250 O252 1.256 . S
O251 Cd243 2.381 . S
O251 C250 1.258 . S
O252 Cd243 2.378 . S
O252 C250 1.256 . S
O253 Cd254 2.300 1_455 S
O253 C260 1.275 . S
Cd254 O253 2.300 1_655 S
Cd254 O262 2.381 1_655 S
Cd254 O263 2.378 . S
O255 Cd256 2.385 . S
O255 C260 1.255 1_655 S
Cd256 O255 2.385 . S
Cd256 O257 2.317 . S
O257 Cd256 2.317 . S
O257 C258 1.232 . S
C258 O257 1.232 . S
C258 O259 1.218 . S
O259 C258 1.218 . S
C260 O253 1.275 . S
C260 O255 1.255 1_455 S
C261 O262 1.258 1_655 S
C261 O263 1.256 . S
O262 Cd254 2.381 1_455 S
O262 C261 1.258 1_455 S
O263 Cd254 2.378 . S
O263 C261 1.256 . S
H264 C269 0.930 . S
H265 C272 0.930 . S
H266 C274 0.930 . S
H267 C268 1.016 . S
C268 H267 1.016 . S
C268 N275 1.286 . S
C269 H264 0.930 . S
C269 C270 1.397 . S
C269 C271 1.361 . S
C270 C269 1.397 . S
C270 C274 1.390 . S
C271 C269 1.361 . S
C271 C272 1.393 . S
C271 N275 1.413 . S
C272 H265 0.930 . S
C272 C271 1.393 . S
C272 C273 1.399 . S
C273 C272 1.399 . S
C273 C274 1.381 . S
C274 H266 0.930 . S
C274 C270 1.390 . S
C274 C273 1.381 . S
N275 C268 1.286 . S
N275 C271 1.413 . S
H276 C281 0.930 . S
H277 C284 0.930 . S
H278 C286 0.930 . S
H279 C280 1.016 . S
C280 H279 1.016 . S
C280 N287 1.286 . S
C281 H276 0.930 . S
C281 C282 1.397 . S
C281 C283 1.361 . S
C282 C281 1.397 . S
C282 C286 1.390 . S
C283 C281 1.361 . S
C283 C284 1.393 . S
C283 N287 1.413 . S
C284 H277 0.930 . S
C284 C283 1.393 . S
C284 C285 1.399 . S
C285 C284 1.399 . S
C285 C286 1.381 . S
C286 H278 0.930 . S
C286 C282 1.390 . S
C286 C285 1.381 . S
N287 C280 1.286 . S
N287 C283 1.413 . S
H288 C293 0.930 . S
H289 C296 0.930 . S
H290 C298 0.930 . S
H291 C292 1.016 . S
C292 H291 1.016 . S
C292 N299 1.286 . S
C293 H288 0.930 . S
C293 C294 1.397 . S
C293 C295 1.361 1_565 S
C294 C293 1.397 . S
C294 C298 1.390 . S
C295 C293 1.361 1_545 S
C295 C296 1.393 . S
C295 N299 1.413 . S
C296 H289 0.930 . S
C296 C295 1.393 . S
C296 C297 1.399 . S
C297 C296 1.399 . S
C297 C298 1.381 1_545 S
C298 H290 0.930 . S
C298 C294 1.390 . S
C298 C297 1.381 1_565 S
N299 C292 1.286 . S
N299 C295 1.413 . S
H300 C305 0.930 . S
H301 C308 0.930 . S
H302 C310 0.930 . S
H303 C304 1.016 . S
C304 H303 1.016 . S
C304 N311 1.286 . S
C305 H300 0.930 . S
C305 C306 1.397 1_565 S
C305 C307 1.361 . S
C306 C305 1.397 1_545 S
C306 C310 1.390 . S
C307 C305 1.361 . S
C307 C308 1.393 . S
C307 N311 1.413 . S
C308 H301 0.930 . S
C308 C307 1.393 . S
C308 C309 1.399 . S
C309 C308 1.399 . S
C309 C310 1.381 1_565 S
C310 H302 0.930 . S
C310 C306 1.390 . S
C310 C309 1.381 1_545 S
N311 C304 1.286 . S
N311 C307 1.413 . S
H312 C317 0.930 . S
H313 C320 0.930 . S
H314 C322 0.930 . S
H315 C316 1.016 . S
C316 H315 1.016 . S
C316 N323 1.286 . S
C317 H312 0.930 . S
C317 C318 1.397 . S
C317 C319 1.361 . S
C318 C317 1.397 . S
C318 C322 1.390 . S
C319 C317 1.361 . S
C319 C320 1.393 . S
C319 N323 1.413 . S
C320 H313 0.930 . S
C320 C319 1.393 . S
C320 C321 1.399 . S
C321 C320 1.399 . S
C321 C322 1.381 . S
C322 H314 0.930 . S
C322 C318 1.390 . S
C322 C321 1.381 . S
N323 C316 1.286 . S
N323 C319 1.413 . S
H324 C329 0.930 . S
H325 C332 0.930 . S
H326 C334 0.930 . S
H327 C328 1.016 . S
C328 H327 1.016 . S
C328 N335 1.286 . S
C329 H324 0.930 . S
C329 C330 1.397 1_556 S
C329 C331 1.361 . S
C330 C329 1.397 1_554 S
C330 C334 1.390 . S
C331 C329 1.361 . S
C331 C332 1.393 . S
C331 N335 1.413 . S
C332 H325 0.930 . S
C332 C331 1.393 . S
C332 C333 1.399 . S
C333 C332 1.399 . S
C333 C334 1.381 1_556 S
C334 H326 0.930 . S
C334 C330 1.390 . S
C334 C333 1.381 1_554 S
N335 C328 1.286 . S
N335 C331 1.413 . S
H336 C341 0.930 . S
H337 C344 0.930 . S
H338 C346 0.930 . S
H339 C340 1.016 . S
C340 H339 1.016 . S
C340 N347 1.286 . S
C341 H336 0.930 . S
C341 C342 1.397 . S
C341 C343 1.361 . S
C342 C341 1.397 . S
C342 C346 1.390 . S
C343 C341 1.361 . S
C343 C344 1.393 . S
C343 N347 1.413 . S
C344 H337 0.930 . S
C344 C343 1.393 . S
C344 C345 1.399 . S
C345 C344 1.399 . S
C345 C346 1.381 . S
C346 H338 0.930 . S
C346 C342 1.390 . S
C346 C345 1.381 . S
N347 C340 1.286 . S
N347 C343 1.413 . S
H348 C353 0.930 . S
H349 C356 0.930 . S
H350 C358 0.930 . S
H351 C352 1.016 . S
C352 H351 1.016 . S
C352 N359 1.286 . S
C353 H348 0.930 . S
C353 C354 1.397 . S
C353 C355 1.361 1_556 S
C354 C353 1.397 . S
C354 C358 1.390 . S
C355 C353 1.361 1_554 S
C355 C356 1.393 . S
C355 N359 1.413 . S
C356 H349 0.930 . S
C356 C355 1.393 . S
C356 C357 1.399 . S
C357 C356 1.399 . S
C357 C358 1.381 1_554 S
C358 H350 0.930 . S
C358 C354 1.390 . S
C358 C357 1.381 1_556 S
N359 C352 1.286 . S
N359 C355 1.413 . S
H360 C365 0.930 . S
H361 C368 0.930 . S
H362 C370 0.930 . S
H363 C364 1.016 . S
C364 H363 1.016 . S
C364 N371 1.286 . S
C365 H360 0.930 . S
C365 C366 1.397 . S
C365 C367 1.361 . S
C366 C365 1.397 . S
C366 C370 1.390 . S
C367 C365 1.361 . S
C367 C368 1.393 . S
C367 N371 1.413 . S
C368 H361 0.930 . S
C368 C367 1.393 . S
C368 C369 1.399 . S
C369 C368 1.399 . S
C369 C370 1.381 . S
C370 H362 0.930 . S
C370 C366 1.390 . S
C370 C369 1.381 . S
N371 C364 1.286 . S
N371 C367 1.413 . S
H372 C377 0.930 . S
H373 C380 0.930 . S
H374 C382 0.930 . S
H375 C376 1.016 . S
C376 H375 1.016 . S
C376 N383 1.286 . S
C377 H372 0.930 . S
C377 C378 1.397 1_655 S
C377 C379 1.361 . S
C378 C377 1.397 1_455 S
C378 C382 1.390 . S
C379 C377 1.361 . S
C379 C380 1.393 . S
C379 N383 1.413 . S
C380 H373 0.930 . S
C380 C379 1.393 . S
C380 C381 1.399 . S
C381 C380 1.399 . S
C381 C382 1.381 1_655 S
C382 H374 0.930 . S
C382 C378 1.390 . S
C382 C381 1.381 1_455 S
N383 C376 1.286 . S
N383 C379 1.413 . S
H384 C389 0.930 . S
H385 C392 0.930 . S
H386 C394 0.930 . S
H387 C388 1.016 . S
C388 H387 1.016 . S
C388 N395 1.286 . S
C389 H384 0.930 . S
C389 C390 1.397 . S
C389 C391 1.361 . S
C390 C389 1.397 . S
C390 C394 1.390 . S
C391 C389 1.361 . S
C391 C392 1.393 . S
C391 N395 1.413 . S
C392 H385 0.930 . S
C392 C391 1.393 . S
C392 C393 1.399 . S
C393 C392 1.399 . S
C393 C394 1.381 . S
C394 H386 0.930 . S
C394 C390 1.390 . S
C394 C393 1.381 . S
N395 C388 1.286 . S
N395 C391 1.413 . S
H396 C401 0.930 . S
H397 C404 0.930 . S
H398 C406 0.930 . S
H399 C400 1.016 . S
C400 H399 1.016 . S
C400 N407 1.286 . S
C401 H396 0.930 . S
C401 C402 1.397 . S
C401 C403 1.361 1_655 S
C402 C401 1.397 . S
C402 C406 1.390 . S
C403 C401 1.361 1_455 S
C403 C404 1.393 . S
C403 N407 1.413 . S
C404 H397 0.930 . S
C404 C403 1.393 . S
C404 C405 1.399 . S
C405 C404 1.399 . S
C405 C406 1.381 1_455 S
C406 H398 0.930 . S
C406 C402 1.390 . S
C406 C405 1.381 1_655 S
N407 C400 1.286 . S
N407 C403 1.413 . S
H408 C413 0.930 . S
H409 C416 0.930 . S
H410 C418 0.930 . S
H411 C412 1.016 . S
C412 H411 1.016 . S
C412 N419 1.286 . S
C413 H408 0.930 . S
C413 C414 1.397 . S
C413 C415 1.361 . S
C414 C413 1.397 . S
C414 C418 1.390 . S
C415 C413 1.361 . S
C415 C416 1.393 . S
C415 N419 1.413 . S
C416 H409 0.930 . S
C416 C415 1.393 . S
C416 C417 1.399 . S
C417 C416 1.399 . S
C417 C418 1.381 . S
C418 H410 0.930 . S
C418 C414 1.390 . S
C418 C417 1.381 . S
N419 C412 1.286 . S
N419 C415 1.413 . S
H420 C425 0.930 . S
H421 C428 0.930 . S
H422 C430 0.930 . S
H423 C424 1.016 . S
C424 H423 1.016 . S
C424 N431 1.286 . S
C425 H420 0.930 . S
C425 C426 1.397 . S
C425 C427 1.361 . S
C426 C425 1.397 . S
C426 C430 1.390 . S
C427 C425 1.361 . S
C427 C428 1.393 . S
C427 N431 1.413 . S
C428 H421 0.930 . S
C428 C427 1.393 . S
C428 C429 1.399 . S
C429 C428 1.399 . S
C429 C430 1.381 . S
C430 H422 0.930 . S
C430 C426 1.390 . S
C430 C429 1.381 . S
N431 C424 1.286 . S
N431 C427 1.413 . S
H432 C437 0.930 . S
H433 C440 0.930 . S
H434 C442 0.930 . S
H435 C436 1.016 . S
C436 H435 1.016 . S
C436 N443 1.286 . S
C437 H432 0.930 . S
C437 C438 1.397 . S
C437 C439 1.361 1_545 S
C438 C437 1.397 . S
C438 C442 1.390 . S
C439 C437 1.361 1_565 S
C439 C440 1.393 . S
C439 N443 1.413 . S
C440 H433 0.930 . S
C440 C439 1.393 . S
C440 C441 1.399 . S
C441 C440 1.399 . S
C441 C442 1.381 1_565 S
C442 H434 0.930 . S
C442 C438 1.390 . S
C442 C441 1.381 1_545 S
N443 C436 1.286 . S
N443 C439 1.413 . S
H444 C449 0.930 1_554 S
H445 C452 0.930 . S
H446 C454 0.930 . S
H447 C448 1.016 . S
C448 H447 1.016 . S
C448 N455 1.286 . S
C449 H444 0.930 1_556 S
C449 C450 1.397 1_545 S
C449 C451 1.361 . S
C450 C449 1.397 1_565 S
C450 C454 1.390 . S
C451 C449 1.361 . S
C451 C452 1.393 . S
C451 N455 1.413 . S
C452 H445 0.930 . S
C452 C451 1.393 . S
C452 C453 1.399 . S
C453 C452 1.399 . S
C453 C454 1.381 1_545 S
C454 H446 0.930 . S
C454 C450 1.390 . S
C454 C453 1.381 1_565 S
N455 C448 1.286 . S
N455 C451 1.413 . S
H456 C461 0.930 . S
H457 C464 0.930 . S
H458 C466 0.930 . S
H459 C460 1.016 . S
C460 H459 1.016 . S
C460 N467 1.286 . S
C461 H456 0.930 . S
C461 C462 1.397 . S
C461 C463 1.361 . S
C462 C461 1.397 . S
C462 C466 1.390 . S
C463 C461 1.361 . S
C463 C464 1.393 . S
C463 N467 1.413 . S
C464 H457 0.930 . S
C464 C463 1.393 . S
C464 C465 1.399 . S
C465 C464 1.399 . S
C465 C466 1.381 . S
C466 H458 0.930 . S
C466 C462 1.390 . S
C466 C465 1.381 . S
N467 C460 1.286 . S
N467 C463 1.413 . S
H468 C473 0.930 1_455 S
H469 C476 0.930 . S
H470 C478 0.930 . S
H471 C472 1.016 . S
C472 H471 1.016 . S
C472 N479 1.286 . S
C473 H468 0.930 1_655 S
C473 C474 1.397 1_554 S
C473 C475 1.361 . S
C474 C473 1.397 1_556 S
C474 C478 1.390 . S
C475 C473 1.361 . S
C475 C476 1.393 . S
C475 N479 1.413 . S
C476 H469 0.930 . S
C476 C475 1.393 . S
C476 C477 1.399 . S
C477 C476 1.399 . S
C477 C478 1.381 1_554 S
C478 H470 0.930 . S
C478 C474 1.390 . S
C478 C477 1.381 1_556 S
N479 C472 1.286 . S
N479 C475 1.413 . S
H480 C485 0.930 . S
H481 C488 0.930 . S
H482 C490 0.930 . S
H483 C484 1.016 . S
C484 H483 1.016 . S
C484 N491 1.286 . S
C485 H480 0.930 . S
C485 C486 1.397 . S
C485 C487 1.361 . S
C486 C485 1.397 . S
C486 C490 1.390 . S
C487 C485 1.361 . S
C487 C488 1.393 . S
C487 N491 1.413 . S
C488 H481 0.930 . S
C488 C487 1.393 . S
C488 C489 1.399 . S
C489 C488 1.399 . S
C489 C490 1.381 . S
C490 H482 0.930 . S
C490 C486 1.390 . S
C490 C489 1.381 . S
N491 C484 1.286 . S
N491 C487 1.413 . S
H492 C497 0.930 . S
H493 C500 0.930 . S
H494 C502 0.930 . S
H495 C496 1.016 . S
C496 H495 1.016 . S
C496 N503 1.286 . S
C497 H492 0.930 . S
C497 C498 1.397 . S
C497 C499 1.361 1_554 S
C498 C497 1.397 . S
C498 C502 1.390 . S
C499 C497 1.361 1_556 S
C499 C500 1.393 . S
C499 N503 1.413 . S
C500 H493 0.930 . S
C500 C499 1.393 . S
C500 C501 1.399 . S
C501 C500 1.399 . S
C501 C502 1.381 1_556 S
C502 H494 0.930 . S
C502 C498 1.390 . S
C502 C501 1.381 1_554 S
N503 C496 1.286 . S
N503 C499 1.413 . S
H504 C509 0.930 . S
H505 C512 0.930 . S
H506 C514 0.930 . S
H507 C508 1.016 . S
C508 H507 1.016 . S
C508 N515 1.286 . S
C509 H504 0.930 . S
C509 C510 1.397 . S
C509 C511 1.361 . S
C510 C509 1.397 . S
C510 C514 1.390 . S
C511 C509 1.361 . S
C511 C512 1.393 . S
C511 N515 1.413 . S
C512 H505 0.930 . S
C512 C511 1.393 . S
C512 C513 1.399 . S
C513 C512 1.399 . S
C513 C514 1.381 . S
C514 H506 0.930 . S
C514 C510 1.390 . S
C514 C513 1.381 . S
N515 C508 1.286 . S
N515 C511 1.413 . S
H516 C521 0.930 1_545 S
H517 C524 0.930 . S
H518 C526 0.930 . S
H519 C520 1.016 . S
C520 H519 1.016 . S
C520 N527 1.286 . S
C521 H516 0.930 1_565 S
C521 C522 1.397 1_455 S
C521 C523 1.361 . S
C522 C521 1.397 1_655 S
C522 C526 1.390 . S
C523 C521 1.361 . S
C523 C524 1.393 . S
C523 N527 1.413 . S
C524 H517 0.930 . S
C524 C523 1.393 . S
C524 C525 1.399 . S
C525 C524 1.399 . S
C525 C526 1.381 1_455 S
C526 H518 0.930 . S
C526 C522 1.390 . S
C526 C525 1.381 1_655 S
N527 C520 1.286 . S
N527 C523 1.413 . S
H528 C533 0.930 . S
H529 C536 0.930 . S
H530 C538 0.930 . S
H531 C532 1.016 . S
C532 H531 1.016 . S
C532 N539 1.286 . S
C533 H528 0.930 . S
C533 C534 1.397 . S
C533 C535 1.361 . S
C534 C533 1.397 . S
C534 C538 1.390 . S
C535 C533 1.361 . S
C535 C536 1.393 . S
C535 N539 1.413 . S
C536 H529 0.930 . S
C536 C535 1.393 . S
C536 C537 1.399 . S
C537 C536 1.399 . S
C537 C538 1.381 . S
C538 H530 0.930 . S
C538 C534 1.390 . S
C538 C537 1.381 . S
N539 C532 1.286 . S
N539 C535 1.413 . S
H540 C545 0.930 . S
H541 C548 0.930 . S
H542 C550 0.930 . S
H543 C544 1.016 . S
C544 H543 1.016 . S
C544 N551 1.286 . S
C545 H540 0.930 . S
C545 C546 1.397 . S
C545 C547 1.361 1_455 S
C546 C545 1.397 . S
C546 C550 1.390 . S
C547 C545 1.361 1_655 S
C547 C548 1.393 . S
C547 N551 1.413 . S
C548 H541 0.930 . S
C548 C547 1.393 . S
C548 C549 1.399 . S
C549 C548 1.399 . S
C549 C550 1.381 1_655 S
C550 H542 0.930 . S
C550 C546 1.390 . S
C550 C549 1.381 1_455 S
N551 C544 1.286 . S
N551 C547 1.413 . S
C552 C553 1.387 . S
C552 H556 0.950 . S
C552 C561 1.390 . S
C553 C552 1.387 . S
C553 C555 1.387 . S
H554 C561 0.950 . S
C555 C553 1.387 . S
C555 C557 1.390 . S
C555 H559 0.950 . S
H556 C552 0.950 . S
C557 C555 1.390 . S
C557 C558 1.387 . S
C557 H560 0.950 . S
C558 C557 1.387 . S
C558 C561 1.387 . S
H559 C555 0.950 . S
H560 C557 0.950 . S
C561 C552 1.390 . S
C561 H554 0.950 . S
C561 C558 1.387 . S
C562 C563 1.387 . S
C562 H566 0.950 . S
C562 C571 1.390 . S
C563 C562 1.387 . S
C563 C565 1.387 . S
H564 C571 0.950 . S
C565 C563 1.387 . S
C565 C567 1.390 . S
C565 H569 0.950 . S
H566 C562 0.950 . S
C567 C565 1.390 . S
C567 C568 1.387 . S
C567 H570 0.950 . S
C568 C567 1.387 . S
C568 C571 1.387 . S
H569 C565 0.950 . S
H570 C567 0.950 . S
C571 C562 1.390 . S
C571 H564 0.950 . S
C571 C568 1.387 . S
C572 C573 1.387 1_565 S
C572 H576 0.950 . S
C572 C581 1.390 1_565 S
C573 C572 1.387 1_545 S
C573 C575 1.387 . S
H574 C581 0.942 1_565 S
C575 C573 1.387 . S
C575 C577 1.390 . S
C575 H579 0.950 . S
H576 C572 0.950 . S
C577 C575 1.390 . S
C577 C578 1.387 . S
C577 H580 0.950 . S
C578 C577 1.387 . S
C578 C581 1.387 . S
H579 C575 0.950 . S
H580 C577 0.950 . S
C581 C572 1.390 1_545 S
C581 H574 0.942 1_545 S
C581 C578 1.387 . S
C582 C583 1.387 . S
C582 H586 0.950 . S
C582 C591 1.390 . S
C583 C582 1.387 . S
C583 C585 1.387 1_565 S
H584 C591 0.950 . S
C585 C583 1.387 1_545 S
C585 C587 1.390 . S
C585 H589 0.950 . S
H586 C582 0.950 . S
C587 C585 1.390 . S
C587 C588 1.387 1_545 S
C587 H590 0.950 . S
C588 C587 1.387 1_565 S
C588 C591 1.387 . S
H589 C585 0.950 . S
H590 C587 0.950 . S
C591 C582 1.390 . S
C591 H584 0.950 . S
C591 C588 1.387 . S
C592 C593 1.387 . S
C592 H596 0.950 . S
C592 C601 1.390 . S
C593 C592 1.387 . S
C593 C595 1.387 . S
H594 C601 0.950 . S
C595 C593 1.387 . S
C595 C597 1.390 . S
C595 H599 0.950 . S
H596 C592 0.950 . S
C597 C595 1.390 . S
C597 C598 1.387 . S
C597 H600 0.950 . S
C598 C597 1.387 . S
C598 C601 1.387 . S
H599 C595 0.950 . S
H600 C597 0.950 . S
C601 C592 1.390 . S
C601 H594 0.950 . S
C601 C598 1.387 . S
C602 C603 1.387 1_554 S
C602 H606 0.950 . S
C602 C611 1.390 . S
C603 C602 1.387 1_556 S
C603 C605 1.387 . S
H604 C611 0.950 . S
C605 C603 1.387 . S
C605 C607 1.390 . S
C605 H609 0.950 . S
H606 C602 0.950 . S
C607 C605 1.390 . S
C607 C608 1.387 . S
C607 H610 0.950 . S
C608 C607 1.387 . S
C608 C611 1.387 1_556 S
H609 C605 0.950 . S
H610 C607 0.950 . S
C611 C602 1.390 . S
C611 H604 0.950 . S
C611 C608 1.387 1_554 S
C612 C613 1.387 . S
C612 H616 0.950 . S
C612 C621 1.390 . S
C613 C612 1.387 . S
C613 C615 1.387 . S
H614 C621 0.950 . S
C615 C613 1.387 . S
C615 C617 1.390 . S
C615 H619 0.950 . S
H616 C612 0.950 . S
C617 C615 1.390 . S
C617 C618 1.387 . S
C617 H620 0.950 . S
C618 C617 1.387 . S
C618 C621 1.387 . S
H619 C615 0.950 . S
H620 C617 0.950 . S
C621 C612 1.390 . S
C621 H614 0.950 . S
C621 C618 1.387 . S
C622 C623 1.387 . S
C622 H626 0.950 . S
C622 C631 1.390 . S
C623 C622 1.387 . S
C623 C625 1.387 1_554 S
H624 C631 0.950 . S
C625 C623 1.387 1_556 S
C625 C627 1.390 . S
C625 H629 0.950 . S
H626 C622 0.950 . S
C627 C625 1.390 . S
C627 C628 1.387 1_556 S
C627 H630 0.950 . S
C628 C627 1.387 1_554 S
C628 C631 1.387 . S
H629 C625 0.950 . S
H630 C627 0.950 . S
C631 C622 1.390 . S
C631 H624 0.950 . S
C631 C628 1.387 . S
C632 C633 1.387 . S
C632 H636 0.950 . S
C632 C641 1.390 . S
C633 C632 1.387 . S
C633 C635 1.387 . S
H634 C641 0.950 . S
C635 C633 1.387 . S
C635 C637 1.390 . S
C635 H639 0.950 . S
H636 C632 0.950 . S
C637 C635 1.390 . S
C637 C638 1.387 . S
C637 H640 0.950 . S
C638 C637 1.387 . S
C638 C641 1.387 . S
H639 C635 0.950 . S
H640 C637 0.950 . S
C641 C632 1.390 . S
C641 H634 0.950 . S
C641 C638 1.387 . S
C642 C643 1.387 . S
C642 H646 0.950 . S
C642 C651 1.390 . S
C643 C642 1.387 . S
C643 C645 1.387 . S
H644 C651 0.950 . S
C645 C643 1.387 . S
C645 C647 1.390 . S
C645 H649 0.950 . S
H646 C642 0.950 . S
C647 C645 1.390 . S
C647 C648 1.387 . S
C647 H650 0.950 . S
C648 C647 1.387 . S
C648 C651 1.387 . S
H649 C645 0.950 . S
H650 C647 0.950 . S
C651 C642 1.390 . S
C651 H644 0.950 . S
C651 C648 1.387 . S
C652 C653 1.387 . S
C652 H656 0.950 . S
C652 C661 1.390 . S
C653 C652 1.387 . S
C653 C655 1.387 . S
H654 C661 0.950 . S
C655 C653 1.387 . S
C655 C657 1.390 . S
C655 H659 0.950 . S
H656 C652 0.950 . S
C657 C655 1.390 . S
C657 C658 1.387 . S
C657 H660 0.950 . S
C658 C657 1.387 . S
C658 C661 1.387 . S
H659 C655 0.950 . S
H660 C657 0.950 . S
C661 C652 1.390 . S
C661 H654 0.950 . S
C661 C658 1.387 . S
C662 C663 1.387 . S
C662 H666 0.950 . S
C662 C671 1.390 . S
C663 C662 1.387 . S
C663 C665 1.387 . S
H664 C671 0.950 . S
C665 C663 1.387 . S
C665 C667 1.390 . S
C665 H669 0.950 . S
H666 C662 0.950 . S
C667 C665 1.390 . S
C667 C668 1.387 . S
C667 H670 0.950 . S
C668 C667 1.387 . S
C668 C671 1.387 . S
H669 C665 0.950 . S
H670 C667 0.950 . S
C671 C662 1.390 . S
C671 H664 0.950 . S
C671 C668 1.387 . S
C672 C673 1.387 . S
C672 H676 0.950 . S
C672 C681 1.390 . S
C673 C672 1.387 . S
C673 C675 1.387 . S
H674 C681 0.950 . S
C675 C673 1.387 . S
C675 C677 1.390 . S
C675 H679 0.950 . S
H676 C672 0.950 . S
C677 C675 1.390 . S
C677 C678 1.387 . S
C677 H680 0.950 . S
C678 C677 1.387 . S
C678 C681 1.387 . S
H679 C675 0.950 . S
H680 C677 0.950 . S
C681 C672 1.390 . S
C681 H674 0.950 . S
C681 C678 1.387 . S
C682 C683 1.387 . S
C682 H686 0.950 . S
C682 C691 1.390 . S
C683 C682 1.387 . S
C683 C685 1.387 . S
H684 C691 0.950 . S
C685 C683 1.387 . S
C685 C687 1.390 . S
C685 H689 0.950 . S
H686 C682 0.950 . S
C687 C685 1.390 . S
C687 C688 1.387 . S
C687 H690 0.950 . S
C688 C687 1.387 . S
C688 C691 1.387 . S
H689 C685 0.950 . S
H690 C687 0.950 . S
C691 C682 1.390 . S
C691 H684 0.950 . S
C691 C688 1.387 . S
C692 C693 1.387 . S
C692 H696 0.950 . S
C692 C701 1.390 . S
C693 C692 1.387 . S
C693 C695 1.387 . S
H694 C701 0.950 . S
C695 C693 1.387 . S
C695 C697 1.390 . S
C695 H699 0.950 1_565 S
H696 C692 0.950 . S
C697 C695 1.390 . S
C697 C698 1.387 . S
C697 H700 0.950 . S
C698 C697 1.387 . S
C698 C701 1.387 . S
H699 C695 0.950 1_545 S
H700 C697 0.950 . S
C701 C692 1.390 . S
C701 H694 0.950 . S
C701 C698 1.387 . S
C702 C703 1.387 . S
C702 H706 0.950 . S
C702 C711 1.390 . S
C703 C702 1.387 . S
C703 C705 1.387 1_545 S
H704 C711 0.950 . S
C705 C703 1.387 1_565 S
C705 C707 1.390 1_565 S
C705 H709 0.950 . S
H706 C702 0.950 . S
C707 C705 1.390 1_545 S
C707 C708 1.387 . S
C707 H710 0.950 1_545 S
C708 C707 1.387 . S
C708 C711 1.387 . S
H709 C705 0.950 . S
H710 C707 0.950 1_565 S
C711 C702 1.390 . S
C711 H704 0.950 . S
C711 C708 1.387 . S
C712 C713 1.387 . S
C712 H716 0.950 . S
C712 C721 1.390 . S
C713 C712 1.387 . S
C713 C715 1.387 . S
H714 C721 0.950 . S
C715 C713 1.387 . S
C715 C717 1.390 . S
C715 H719 0.950 . S
H716 C712 0.950 . S
C717 C715 1.390 . S
C717 C718 1.387 . S
C717 H720 0.950 . S
C718 C717 1.387 . S
C718 C721 1.387 . S
H719 C715 0.950 . S
H720 C717 0.950 . S
C721 C712 1.390 . S
C721 H714 0.950 . S
C721 C718 1.387 . S
C722 C723 1.389 . S
C722 H726 0.943 1_554 S
C722 C731 1.396 . S
C723 C722 1.389 . S
C723 C725 1.387 . S
H724 C731 0.950 . S
C725 C723 1.387 . S
C725 C727 1.390 . S
C725 H729 0.950 . S
H726 C722 0.943 1_556 S
C727 C725 1.390 . S
C727 C728 1.387 . S
C727 H730 0.950 . S
C728 C727 1.387 . S
C728 C731 1.387 . S
H729 C725 0.950 . S
H730 C727 0.950 . S
C731 C722 1.396 . S
C731 H724 0.950 . S
C731 C728 1.387 . S
C732 C733 1.387 . S
C732 H736 0.950 . S
C732 C741 1.390 . S
C733 C732 1.387 . S
C733 C735 1.387 . S
H734 C741 0.950 . S
C735 C733 1.387 . S
C735 C737 1.390 . S
C735 H739 0.950 . S
H736 C732 0.950 . S
C737 C735 1.390 . S
C737 C738 1.387 . S
C737 H740 0.950 . S
C738 C737 1.387 . S
C738 C741 1.387 . S
H739 C735 0.950 . S
H740 C737 0.950 . S
C741 C732 1.390 . S
C741 H734 0.950 . S
C741 C738 1.387 . S
C742 C743 1.387 . S
C742 H746 0.950 . S
C742 C751 1.390 . S
C743 C742 1.387 . S
C743 C745 1.374 1_556 S
H744 C751 0.950 . S
C745 C743 1.374 1_554 S
C745 C747 1.379 1_554 S
C745 H749 0.976 . S
H746 C742 0.950 . S
C747 C745 1.379 1_556 S
C747 C748 1.387 . S
C747 H750 0.943 1_556 S
C748 C747 1.387 . S
C748 C751 1.387 . S
H749 C745 0.976 . S
H750 C747 0.943 1_554 S
C751 C742 1.390 . S
C751 H744 0.950 . S
C751 C748 1.387 . S
C752 C753 1.387 . S
C752 H756 0.950 . S
C752 C761 1.390 . S
C753 C752 1.387 . S
C753 C755 1.387 . S
H754 C761 0.950 . S
C755 C753 1.387 . S
C755 C757 1.390 . S
C755 H759 0.950 . S
H756 C752 0.950 . S
C757 C755 1.390 . S
C757 C758 1.387 . S
C757 H760 0.950 . S
C758 C757 1.387 . S
C758 C761 1.387 . S
H759 C755 0.950 . S
H760 C757 0.950 . S
C761 C752 1.390 . S
C761 H754 0.950 . S
C761 C758 1.387 . S
C762 C763 1.387 . S
C762 H766 0.948 1_455 S
C762 C771 1.390 . S
C763 C762 1.387 . S
C763 C765 1.387 . S
H764 C771 0.950 . S
C765 C763 1.387 . S
C765 C767 1.390 . S
C765 H769 0.950 . S
H766 C762 0.948 1_655 S
C767 C765 1.390 . S
C767 C768 1.387 . S
C767 H770 0.950 . S
C768 C767 1.387 . S
C768 C771 1.387 . S
H769 C765 0.950 . S
H770 C767 0.950 . S
C771 C762 1.390 . S
C771 H764 0.950 . S
C771 C768 1.387 . S
C772 C773 1.387 . S
C772 H776 0.950 . S
C772 C781 1.390 . S
C773 C772 1.387 . S
C773 C775 1.387 . S
H774 C781 0.950 . S
C775 C773 1.387 . S
C775 C777 1.390 . S
C775 H779 0.950 . S
H776 C772 0.950 . S
C777 C775 1.390 . S
C777 C778 1.387 . S
C777 H780 0.950 . S
C778 C777 1.387 . S
C778 C781 1.387 . S
H779 C775 0.950 . S
H780 C777 0.950 . S
C781 C772 1.390 . S
C781 H774 0.950 . S
C781 C778 1.387 . S
C782 C783 1.387 . S
C782 H786 0.950 . S
C782 C791 1.390 . S
C783 C782 1.387 . S
C783 C785 1.387 . S
H784 C791 0.950 . S
C785 C783 1.387 . S
C785 C787 1.390 . S
C785 H789 0.943 1_655 S
H786 C782 0.950 . S
C787 C785 1.390 . S
C787 C788 1.387 . S
C787 H790 0.950 . S
C788 C787 1.387 . S
C788 C791 1.387 . S
H789 C785 0.943 1_455 S
H790 C787 0.950 . S
C791 C782 1.390 . S
C791 H784 0.950 . S
C791 C788 1.387 . S
C792 C793 1.387 . S
C792 H796 0.950 . S
C792 C801 1.390 . S
C793 C792 1.387 . S
C793 C795 1.387 . S
H794 C801 0.950 . S
C795 C793 1.387 . S
C795 C797 1.390 . S
C795 H799 0.950 . S
H796 C792 0.950 . S
C797 C795 1.390 . S
C797 C798 1.387 . S
C797 H800 0.950 . S
C798 C797 1.387 . S
C798 C801 1.387 . S
H799 C795 0.950 . S
H800 C797 0.950 . S
C801 C792 1.390 . S
C801 H794 0.950 . S
C801 C798 1.387 . S
C802 C803 1.387 . S
C802 H806 0.950 . S
C802 C811 1.390 . S
C803 C802 1.387 . S
C803 C805 1.387 . S
H804 C811 0.950 . S
C805 C803 1.387 . S
C805 C807 1.390 . S
C805 H809 0.950 . S
H806 C802 0.950 . S
C807 C805 1.390 . S
C807 C808 1.387 . S
C807 H810 0.950 . S
C808 C807 1.387 . S
C808 C811 1.387 . S
H809 C805 0.950 . S
H810 C807 0.950 . S
C811 C802 1.390 . S
C811 H804 0.950 . S
C811 C808 1.387 . S
C812 C813 1.387 1_545 S
C812 H816 0.950 . S
C812 C821 1.390 . S
C813 C812 1.387 1_565 S
C813 C815 1.387 . S
H814 C821 0.950 . S
C815 C813 1.387 . S
C815 C817 1.390 . S
C815 H819 0.950 . S
H816 C812 0.950 . S
C817 C815 1.390 . S
C817 C818 1.387 1_565 S
C817 H820 0.950 . S
C818 C817 1.387 1_545 S
C818 C821 1.387 . S
H819 C815 0.950 . S
H820 C817 0.950 . S
C821 C812 1.390 . S
C821 H814 0.950 . S
C821 C818 1.387 . S
C822 C823 1.367 1_545 S
C822 H826 0.950 . S
C822 C831 1.390 . S
C823 C822 1.367 1_565 S
C823 C825 1.415 . S
H824 C831 0.950 . S
C825 C823 1.415 . S
C825 C827 1.390 . S
C825 H829 0.950 . S
H826 C822 0.950 . S
C827 C825 1.390 . S
C827 C828 1.387 . S
C827 H830 0.950 . S
C828 C827 1.387 . S
C828 C831 1.387 1_565 S
H829 C825 0.950 . S
H830 C827 0.950 . S
C831 C822 1.390 . S
C831 H824 0.950 . S
C831 C828 1.387 1_545 S
C832 C833 1.387 . S
C832 H836 0.950 . S
C832 C841 1.390 . S
C833 C832 1.387 . S
C833 C835 1.387 . S
H834 C841 0.950 . S
C835 C833 1.387 . S
C835 C837 1.390 . S
C835 H839 0.950 . S
H836 C832 0.950 . S
C837 C835 1.390 . S
C837 C838 1.387 . S
C837 H840 0.950 . S
C838 C837 1.387 . S
C838 C841 1.387 . S
H839 C835 0.950 . S
H840 C837 0.950 . S
C841 C832 1.390 . S
C841 H834 0.950 . S
C841 C838 1.387 . S
C842 C843 1.393 . S
C842 H846 0.950 . S
C842 C851 1.390 . S
C843 C842 1.393 . S
C843 C845 1.387 . S
H844 C851 0.950 . S
C845 C843 1.387 . S
C845 C847 1.390 . S
C845 H849 0.950 1_556 S
H846 C842 0.950 . S
C847 C845 1.390 . S
C847 C848 1.387 . S
C847 H850 0.950 . S
C848 C847 1.387 . S
C848 C851 1.387 . S
H849 C845 0.950 1_554 S
H850 C847 0.950 . S
C851 C842 1.390 . S
C851 H844 0.950 . S
C851 C848 1.387 . S
C852 C853 1.387 . S
C852 H856 0.950 . S
C852 C861 1.390 . S
C853 C852 1.387 . S
C853 C855 1.387 . S
H854 C861 0.950 . S
C855 C853 1.387 . S
C855 C857 1.390 . S
C855 H859 0.950 . S
H856 C852 0.950 . S
C857 C855 1.390 . S
C857 C858 1.387 . S
C857 H860 0.950 . S
C858 C857 1.387 . S
C858 C861 1.387 . S
H859 C855 0.950 . S
H860 C857 0.950 . S
C861 C852 1.390 . S
C861 H854 0.950 . S
C861 C858 1.387 . S
C862 C863 1.387 1_554 S
C862 H866 0.950 . S
C862 C871 1.390 . S
C863 C862 1.387 1_556 S
C863 C865 1.387 . S
H864 C871 0.950 . S
C865 C863 1.387 . S
C865 C867 1.390 . S
C865 H869 0.950 . S
H866 C862 0.950 . S
C867 C865 1.390 . S
C867 C868 1.387 1_556 S
C867 H870 0.950 . S
C868 C867 1.387 1_554 S
C868 C871 1.387 . S
H869 C865 0.950 . S
H870 C867 0.950 . S
C871 C862 1.390 . S
C871 H864 0.950 . S
C871 C868 1.387 . S
C872 C873 1.387 . S
C872 H876 0.950 . S
C872 C881 1.390 . S
C873 C872 1.387 . S
C873 C875 1.387 . S
H874 C881 0.950 . S
C875 C873 1.387 . S
C875 C877 1.390 . S
C875 H879 0.950 . S
H876 C872 0.950 . S
C877 C875 1.390 . S
C877 C878 1.387 . S
C877 H880 0.950 . S
C878 C877 1.387 . S
C878 C881 1.387 . S
H879 C875 0.950 . S
H880 C877 0.950 . S
C881 C872 1.390 . S
C881 H874 0.950 . S
C881 C878 1.387 . S
C882 C883 1.372 1_455 S
C882 H886 0.950 . S
C882 C891 1.390 . S
C883 C882 1.372 1_655 S
C883 C885 1.409 . S
H884 C891 0.950 . S
C885 C883 1.409 . S
C885 C887 1.390 . S
C885 H889 0.950 . S
H886 C882 0.950 . S
C887 C885 1.390 . S
C887 C888 1.387 . S
C887 H890 0.950 . S
C888 C887 1.387 . S
C888 C891 1.387 1_655 S
H889 C885 0.950 . S
H890 C887 0.950 . S
C891 C882 1.390 . S
C891 H884 0.950 . S
C891 C888 1.387 1_455 S
C892 C893 1.387 . S
C892 H896 0.950 . S
C892 C901 1.390 . S
C893 C892 1.387 . S
C893 C895 1.387 . S
H894 C901 0.950 . S
C895 C893 1.387 . S
C895 C897 1.390 . S
C895 H899 0.950 . S
H896 C892 0.950 . S
C897 C895 1.390 . S
C897 C898 1.387 . S
C897 H900 0.950 . S
C898 C897 1.387 . S
C898 C901 1.387 . S
H899 C895 0.950 . S
H900 C897 0.950 . S
C901 C892 1.390 . S
C901 H894 0.950 . S
C901 C898 1.387 . S
C902 C903 1.387 . S
C902 H906 0.950 . S
C902 C911 1.389 1_655 S
C903 C902 1.387 . S
C903 C905 1.387 . S
H904 C911 0.950 . S
C905 C903 1.387 . S
C905 C907 1.397 . S
C905 H909 0.950 . S
H906 C902 0.950 . S
C907 C905 1.397 . S
C907 C908 1.386 1_655 S
C907 H910 0.945 1_655 S
C908 C907 1.386 1_455 S
C908 C911 1.388 . S
H909 C905 0.950 . S
H910 C907 0.945 1_455 S
C911 C902 1.389 1_455 S
C911 H904 0.950 . S
C911 C908 1.388 . S
C912 C913 1.387 . S
C912 H916 0.950 . S
C912 C921 1.390 . S
C913 C912 1.387 . S
C913 C915 1.387 . S
H914 C921 0.950 . S
C915 C913 1.387 . S
C915 C917 1.390 . S
C915 H919 0.950 . S
H916 C912 0.950 . S
C917 C915 1.390 . S
C917 C918 1.387 . S
C917 H920 0.950 . S
C918 C917 1.387 . S
C918 C921 1.387 . S
H919 C915 0.950 . S
H920 C917 0.950 . S
C921 C912 1.390 . S
C921 H914 0.950 . S
C921 C918 1.387 . S
C922 C923 1.387 . S
C922 H926 0.950 . S
C922 C931 1.390 . S
C923 C922 1.387 . S
C923 C925 1.387 . S
H924 C931 0.950 . S
C925 C923 1.387 . S
C925 C927 1.390 . S
C925 H929 0.950 . S
H926 C922 0.950 . S
C927 C925 1.390 . S
C927 C928 1.387 . S
C927 H930 0.950 . S
C928 C927 1.387 . S
C928 C931 1.387 . S
H929 C925 0.950 . S
H930 C927 0.950 . S
C931 C922 1.390 . S
C931 H924 0.950 . S
C931 C928 1.387 . S
C932 C933 1.387 . S
C932 H936 0.950 . S
C932 C941 1.390 . S
C933 C932 1.387 . S
C933 C935 1.387 1_545 S
H934 C941 0.950 . S
C935 C933 1.387 1_565 S
C935 C937 1.390 . S
C935 H939 0.950 . S
H936 C932 0.950 . S
C937 C935 1.390 . S
C937 C938 1.387 . S
C937 H940 0.950 . S
C938 C937 1.387 . S
C938 C941 1.387 1_565 S
H939 C935 0.950 . S
H940 C937 0.950 . S
C941 C932 1.390 . S
C941 H934 0.950 . S
C941 C938 1.387 1_545 S
C942 C943 1.414 . S
C942 H946 0.950 . S
C942 C951 1.390 . S
C943 C942 1.414 . S
C943 C945 1.367 1_545 S
H944 C951 0.950 . S
C945 C943 1.367 1_565 S
C945 C947 1.390 . S
C945 H949 0.950 . S
H946 C942 0.950 . S
C947 C945 1.390 . S
C947 C948 1.387 1_565 S
C947 H950 0.950 . S
C948 C947 1.387 1_545 S
C948 C951 1.387 . S
H949 C945 0.950 . S
H950 C947 0.950 . S
C951 C942 1.390 . S
C951 H944 0.950 . S
C951 C948 1.387 . S
C952 C953 1.387 . S
C952 H956 0.950 . S
C952 C961 1.390 . S
C953 C952 1.387 . S
C953 C955 1.387 . S
H954 C961 0.950 . S
C955 C953 1.387 . S
C955 C957 1.390 . S
C955 H959 0.950 . S
H956 C952 0.950 . S
C957 C955 1.390 . S
C957 C958 1.387 . S
C957 H960 0.950 . S
C958 C957 1.387 . S
C958 C961 1.387 . S
H959 C955 0.950 . S
H960 C957 0.950 . S
C961 C952 1.390 . S
C961 H954 0.950 . S
C961 C958 1.387 . S
C962 C963 1.374 1_556 S
C962 H966 0.950 . S
C962 C971 1.390 . S
C963 C962 1.374 1_554 S
C963 C965 1.406 . S
H964 C971 0.950 . S
C965 C963 1.406 . S
C965 C967 1.390 . S
C965 H969 0.950 . S
H966 C962 0.950 . S
C967 C965 1.390 . S
C967 C968 1.387 . S
C967 H970 0.950 . S
C968 C967 1.387 . S
C968 C971 1.387 1_554 S
H969 C965 0.950 . S
H970 C967 0.950 . S
C971 C962 1.390 . S
C971 H964 0.950 . S
C971 C968 1.387 1_556 S
C972 C973 1.387 . S
C972 H976 0.950 . S
C972 C981 1.390 . S
C973 C972 1.387 . S
C973 C975 1.387 . S
H974 C981 0.950 . S
C975 C973 1.387 . S
C975 C977 1.390 . S
C975 H979 0.950 . S
H976 C972 0.950 . S
C977 C975 1.390 . S
C977 C978 1.387 . S
C977 H980 0.950 . S
C978 C977 1.387 . S
C978 C981 1.387 . S
H979 C975 0.950 . S
H980 C977 0.950 . S
C981 C972 1.390 . S
C981 H974 0.950 . S
C981 C978 1.387 . S
C982 C983 1.387 1_556 S
C982 H986 0.950 . S
C982 C991 1.390 . S
C983 C982 1.387 1_554 S
C983 C985 1.387 . S
H984 C991 0.950 . S
C985 C983 1.387 . S
C985 C987 1.390 . S
C985 H989 0.950 . S
H986 C982 0.950 . S
C987 C985 1.390 . S
C987 C988 1.387 1_554 S
C987 H990 0.950 . S
C988 C987 1.387 1_556 S
C988 C991 1.387 . S
H989 C985 0.950 . S
H990 C987 0.950 . S
C991 C982 1.390 . S
C991 H984 0.950 . S
C991 C988 1.387 . S
C992 C993 1.387 . S
C992 H996 0.950 . S
C992 C1001 1.390 . S
C993 C992 1.387 . S
C993 C995 1.387 . S
H994 C1001 0.950 . S
C995 C993 1.387 . S
C995 C997 1.390 . S
C995 H999 0.950 . S
H996 C992 0.950 . S
C997 C995 1.390 . S
C997 C998 1.387 . S
C997 H1000 0.950 . S
C998 C997 1.387 . S
C998 C1001 1.387 . S
H999 C995 0.950 . S
H1000 C997 0.950 . S
C1001 C992 1.390 . S
C1001 H994 0.950 . S
C1001 C998 1.387 . S
C1002 C1003 1.391 . S
C1002 H1006 0.950 . S
C1002 C1011 1.390 . S
C1003 C1002 1.391 . S
C1003 C1005 1.390 . S
H1004 C1011 0.950 . S
C1005 C1003 1.390 . S
C1005 C1007 1.390 . S
C1005 H1009 0.946 1_455 S
H1006 C1002 0.950 . S
C1007 C1005 1.390 . S
C1007 C1008 1.387 . S
C1007 H1010 0.950 . S
C1008 C1007 1.387 . S
C1008 C1011 1.387 . S
H1009 C1005 0.946 1_655 S
H1010 C1007 0.950 . S
C1011 C1002 1.390 . S
C1011 H1004 0.950 . S
C1011 C1008 1.387 . S
C1012 C1013 1.387 . S
C1012 H1016 0.950 . S
C1012 C1021 1.390 . S
C1013 C1012 1.387 . S
C1013 C1015 1.387 . S
H1014 C1021 0.950 . S
C1015 C1013 1.387 . S
C1015 C1017 1.390 . S
C1015 H1019 0.950 . S
H1016 C1012 0.950 . S
C1017 C1015 1.390 . S
C1017 C1018 1.387 . S
C1017 H1020 0.950 . S
C1018 C1017 1.387 . S
C1018 C1021 1.387 . S
H1019 C1015 0.950 . S
H1020 C1017 0.950 . S
C1021 C1012 1.390 . S
C1021 H1014 0.950 . S
C1021 C1018 1.387 . S
C1022 C1023 1.387 1_655 S
C1022 H1026 0.950 . S
C1022 C1031 1.390 . S
C1023 C1022 1.387 1_455 S
C1023 C1025 1.387 . S
H1024 C1031 0.950 . S
C1025 C1023 1.387 . S
C1025 C1027 1.390 . S
C1025 H1029 0.950 . S
H1026 C1022 0.950 . S
C1027 C1025 1.390 . S
C1027 C1028 1.387 1_455 S
C1027 H1030 0.950 . S
C1028 C1027 1.387 1_655 S
C1028 C1031 1.387 . S
H1029 C1025 0.950 . S
H1030 C1027 0.950 . S
C1031 C1022 1.390 . S
C1031 H1024 0.950 . S
C1031 C1028 1.387 . S
C1032 C1033 1.387 . S
C1032 H1036 0.950 . S
C1032 C1041 1.390 . S
C1033 C1032 1.387 . S
C1033 C1035 1.387 . S
H1034 C1041 0.950 . S
C1035 C1033 1.387 . S
C1035 C1037 1.390 . S
C1035 H1039 0.950 . S
H1036 C1032 0.950 . S
C1037 C1035 1.390 . S
C1037 C1038 1.387 . S
C1037 H1040 0.950 . S
C1038 C1037 1.387 . S
C1038 C1041 1.387 . S
H1039 C1035 0.950 . S
H1040 C1037 0.950 . S
C1041 C1032 1.390 . S
C1041 H1034 0.950 . S
C1041 C1038 1.387 . S
C1042 C1043 1.387 . S
C1042 H1046 0.950 . S
C1042 C1051 1.390 . S
C1043 C1042 1.387 . S
C1043 C1045 1.387 . S
H1044 C1051 0.950 . S
C1045 C1043 1.387 . S
C1045 C1047 1.390 . S
C1045 H1049 0.950 . S
H1046 C1042 0.950 . S
C1047 C1045 1.390 . S
C1047 C1048 1.387 . S
C1047 H1050 0.950 . S
C1048 C1047 1.387 . S
C1048 C1051 1.387 . S
H1049 C1045 0.950 . S
H1050 C1047 0.950 . S
C1051 C1042 1.390 . S
C1051 H1044 0.950 . S
C1051 C1048 1.387 . S
C1052 C1053 1.387 . S
C1052 H1056 0.950 . S
C1052 C1061 1.390 . S
C1053 C1052 1.387 . S
C1053 C1055 1.387 . S
H1054 C1061 0.950 . S
C1055 C1053 1.387 . S
C1055 C1057 1.390 . S
C1055 H1059 0.949 . S
H1056 C1052 0.950 . S
C1057 C1055 1.390 . S
C1057 C1058 1.387 . S
C1057 H1060 0.950 . S
C1058 C1057 1.387 . S
C1058 C1061 1.387 . S
H1059 C1055 0.949 . S
H1060 C1057 0.950 . S
C1061 C1052 1.390 . S
C1061 H1054 0.950 . S
C1061 C1058 1.387 . S
C1062 C1063 1.387 . S
C1062 H1066 0.950 . S
C1062 C1071 1.390 . S
C1063 C1062 1.387 . S
C1063 C1065 1.387 . S
H1064 C1071 0.950 . S
C1065 C1063 1.387 . S
C1065 C1067 1.390 . S
C1065 H1069 0.950 1_565 S
H1066 C1062 0.950 . S
C1067 C1065 1.390 . S
C1067 C1068 1.387 . S
C1067 H1070 0.950 . S
C1068 C1067 1.387 . S
C1068 C1071 1.387 . S
H1069 C1065 0.950 1_545 S
H1070 C1067 0.950 . S
C1071 C1062 1.390 . S
C1071 H1064 0.950 . S
C1071 C1068 1.387 . S
C1072 C1073 1.387 . S
C1072 H1076 0.950 . S
C1072 C1081 1.390 . S
C1073 C1072 1.387 . S
C1073 C1075 1.387 . S
H1074 C1081 0.950 . S
C1075 C1073 1.387 . S
C1075 C1077 1.390 . S
C1075 H1079 0.950 . S
H1076 C1072 0.950 . S
C1077 C1075 1.390 . S
C1077 C1078 1.387 . S
C1077 H1080 0.950 . S
C1078 C1077 1.387 . S
C1078 C1081 1.387 . S
H1079 C1075 0.950 . S
H1080 C1077 0.950 . S
C1081 C1072 1.390 . S
C1081 H1074 0.950 . S
C1081 C1078 1.387 . S
C1082 C1083 1.387 . S
C1082 H1086 0.950 . S
C1082 C1091 1.390 . S
C1083 C1082 1.387 . S
C1083 C1085 1.387 1_556 S
H1084 C1091 0.950 . S
C1085 C1083 1.387 1_554 S
C1085 C1087 1.390 . S
C1085 H1089 0.950 . S
H1086 C1082 0.950 . S
C1087 C1085 1.390 . S
C1087 C1088 1.387 1_554 S
C1087 H1090 0.950 . S
C1088 C1087 1.387 1_556 S
C1088 C1091 1.387 . S
H1089 C1085 0.950 . S
H1090 C1087 0.950 . S
C1091 C1082 1.390 . S
C1091 H1084 0.950 . S
C1091 C1088 1.387 . S
C1092 C1093 1.387 . S
C1092 H1096 0.950 . S
C1092 C1101 1.390 . S
C1093 C1092 1.387 . S
C1093 C1095 1.387 . S
H1094 C1101 0.950 . S
C1095 C1093 1.387 . S
C1095 C1097 1.390 . S
C1095 H1099 0.950 . S
H1096 C1092 0.950 . S
C1097 C1095 1.390 . S
C1097 C1098 1.387 . S
C1097 H1100 0.950 . S
C1098 C1097 1.387 . S
C1098 C1101 1.387 . S
H1099 C1095 0.950 . S
H1100 C1097 0.950 . S
C1101 C1092 1.390 . S
C1101 H1094 0.950 . S
C1101 C1098 1.387 . S
C1102 C1103 1.387 1_556 S
C1102 H1106 0.950 . S
C1102 C1111 1.390 . S
C1103 C1102 1.387 1_554 S
C1103 C1105 1.387 . S
H1104 C1111 0.950 . S
C1105 C1103 1.387 . S
C1105 C1107 1.390 . S
C1105 H1109 0.950 . S
H1106 C1102 0.950 . S
C1107 C1105 1.390 . S
C1107 C1108 1.387 . S
C1107 H1110 0.950 . S
C1108 C1107 1.387 . S
C1108 C1111 1.387 1_554 S
H1109 C1105 0.950 . S
H1110 C1107 0.950 . S
C1111 C1102 1.390 . S
C1111 H1104 0.950 . S
C1111 C1108 1.387 1_556 S
C1112 C1113 1.387 . S
C1112 H1116 0.950 . S
C1112 C1121 1.390 . S
C1113 C1112 1.387 . S
C1113 C1115 1.387 . S
H1114 C1121 0.950 . S
C1115 C1113 1.387 . S
C1115 C1117 1.390 . S
C1115 H1119 0.950 . S
H1116 C1112 0.950 . S
C1117 C1115 1.390 . S
C1117 C1118 1.387 . S
C1117 H1120 0.950 . S
C1118 C1117 1.387 . S
C1118 C1121 1.387 . S
H1119 C1115 0.950 . S
H1120 C1117 0.950 . S
C1121 C1112 1.390 . S
C1121 H1114 0.950 . S
C1121 C1118 1.387 . S
C1122 C1123 1.387 . S
C1122 H1126 0.950 1_655 S
C1122 C1131 1.390 . S
C1123 C1122 1.387 . S
C1123 C1125 1.387 . S
H1124 C1131 0.950 . S
C1125 C1123 1.387 . S
C1125 C1127 1.390 . S
C1125 H1129 0.950 . S
H1126 C1122 0.950 1_455 S
C1127 C1125 1.390 . S
C1127 C1128 1.387 . S
C1127 H1130 0.950 . S
C1128 C1127 1.387 . S
C1128 C1131 1.387 . S
H1129 C1125 0.950 . S
H1130 C1127 0.950 . S
C1131 C1122 1.390 . S
C1131 H1124 0.950 . S
C1131 C1128 1.387 . S
C1132 C1133 1.387 . S
C1132 H1136 0.950 . S
C1132 C1141 1.390 . S
C1133 C1132 1.387 . S
C1133 C1135 1.387 . S
H1134 C1141 0.950 . S
C1135 C1133 1.387 . S
C1135 C1137 1.390 . S
C1135 H1139 0.950 . S
H1136 C1132 0.950 . S
C1137 C1135 1.390 . S
C1137 C1138 1.387 . S
C1137 H1140 0.950 . S
C1138 C1137 1.387 . S
C1138 C1141 1.387 . S
H1139 C1135 0.950 . S
H1140 C1137 0.950 . S
C1141 C1132 1.390 . S
C1141 H1134 0.950 . S
C1141 C1138 1.387 . S
C1142 C1143 1.387 . S
C1142 H1146 0.950 . S
C1142 C1151 1.390 . S
C1143 C1142 1.387 . S
C1143 C1145 1.387 1_455 S
H1144 C1151 0.950 . S
C1145 C1143 1.387 1_655 S
C1145 C1147 1.390 . S
C1145 H1149 0.950 . S
H1146 C1142 0.950 . S
C1147 C1145 1.390 . S
C1147 C1148 1.387 1_655 S
C1147 H1150 0.950 . S
C1148 C1147 1.387 1_455 S
C1148 C1151 1.387 . S
H1149 C1145 0.950 . S
H1150 C1147 0.950 . S
C1151 C1142 1.390 . S
C1151 H1144 0.950 . S
C1151 C1148 1.387 . S
C1152 C1153 1.387 . S
C1152 H1156 0.950 . S
C1152 C1161 1.390 . S
C1153 C1152 1.387 . S
C1153 C1155 1.387 . S
H1154 C1161 0.950 . S
C1155 C1153 1.387 . S
C1155 C1157 1.390 . S
C1155 H1159 0.950 . S
H1156 C1152 0.950 . S
C1157 C1155 1.390 . S
C1157 C1158 1.387 . S
C1157 H1160 0.950 . S
C1158 C1157 1.387 . S
C1158 C1161 1.387 . S
H1159 C1155 0.950 . S
H1160 C1157 0.950 . S
C1161 C1152 1.390 . S
C1161 H1154 0.950 . S
C1161 C1158 1.387 . S
C1162 C1163 1.387 . S
C1162 H1166 0.950 . S
C1162 C1171 1.390 . S
C1163 C1162 1.387 . S
C1163 C1165 1.387 . S
H1164 C1171 0.950 . S
C1165 C1163 1.387 . S
C1165 C1167 1.390 . S
C1165 H1169 0.950 . S
H1166 C1162 0.950 . S
C1167 C1165 1.390 . S
C1167 C1168 1.387 . S
C1167 H1170 0.950 . S
C1168 C1167 1.387 . S
C1168 C1171 1.387 . S
H1169 C1165 0.950 . S
H1170 C1167 0.950 . S
C1171 C1162 1.390 . S
C1171 H1164 0.950 . S
C1171 C1168 1.387 . S
C1172 C1173 1.387 . S
C1172 H1176 0.950 . S
C1172 C1181 1.390 . S
C1173 C1172 1.387 . S
C1173 C1175 1.387 1_565 S
H1174 C1181 0.950 . S
C1175 C1173 1.387 1_545 S
C1175 C1177 1.390 . S
C1175 H1179 0.950 . S
H1176 C1172 0.950 . S
C1177 C1175 1.390 . S
C1177 C1178 1.387 1_545 S
C1177 H1180 0.950 . S
C1178 C1177 1.387 1_565 S
C1178 C1181 1.387 . S
H1179 C1175 0.950 . S
H1180 C1177 0.950 . S
C1181 C1172 1.390 . S
C1181 H1174 0.950 . S
C1181 C1178 1.387 . S
C1182 C1183 1.387 . S
C1182 H1186 0.950 . S
C1182 C1191 1.390 . S
C1183 C1182 1.387 . S
C1183 C1185 1.387 . S
H1184 C1191 0.950 . S
C1185 C1183 1.387 . S
C1185 C1187 1.390 . S
C1185 H1189 0.950 1_545 S
H1186 C1182 0.950 . S
C1187 C1185 1.390 . S
C1187 C1188 1.387 . S
C1187 H1190 0.950 . S
C1188 C1187 1.387 . S
C1188 C1191 1.387 . S
H1189 C1185 0.950 1_565 S
H1190 C1187 0.950 . S
C1191 C1182 1.390 . S
C1191 H1184 0.950 . S
C1191 C1188 1.387 . S
C1192 C1193 1.387 . S
C1192 H1196 0.950 . S
C1192 C1201 1.390 . S
C1193 C1192 1.387 . S
C1193 C1195 1.387 . S
H1194 C1201 0.950 . S
C1195 C1193 1.387 . S
C1195 C1197 1.390 . S
C1195 H1199 0.950 . S
H1196 C1192 0.950 . S
C1197 C1195 1.390 . S
C1197 C1198 1.387 . S
C1197 H1200 0.950 . S
C1198 C1197 1.387 . S
C1198 C1201 1.387 . S
H1199 C1195 0.950 . S
H1200 C1197 0.950 . S
C1201 C1192 1.390 . S
C1201 H1194 0.950 . S
C1201 C1198 1.387 . S
C1202 C1203 1.387 1_556 S
C1202 H1206 0.950 . S
C1202 C1211 1.390 . S
C1203 C1202 1.387 1_554 S
C1203 C1205 1.387 . S
H1204 C1211 0.950 . S
C1205 C1203 1.387 . S
C1205 C1207 1.390 . S
C1205 H1209 0.950 . S
H1206 C1202 0.950 . S
C1207 C1205 1.390 . S
C1207 C1208 1.387 . S
C1207 H1210 0.950 . S
C1208 C1207 1.387 . S
C1208 C1211 1.387 1_554 S
H1209 C1205 0.950 . S
H1210 C1207 0.950 . S
C1211 C1202 1.390 . S
C1211 H1204 0.950 . S
C1211 C1208 1.387 1_556 S
C1212 C1213 1.387 . S
C1212 H1216 0.950 . S
C1212 C1221 1.390 . S
C1213 C1212 1.387 . S
C1213 C1215 1.387 . S
H1214 C1221 0.950 . S
C1215 C1213 1.387 . S
C1215 C1217 1.390 . S
C1215 H1219 0.950 . S
H1216 C1212 0.950 . S
C1217 C1215 1.390 . S
C1217 C1218 1.387 . S
C1217 H1220 0.950 . S
C1218 C1217 1.387 . S
C1218 C1221 1.387 . S
H1219 C1215 0.950 . S
H1220 C1217 0.950 . S
C1221 C1212 1.390 . S
C1221 H1214 0.950 . S
C1221 C1218 1.387 . S
C1222 C1223 1.387 . S
C1222 H1226 0.950 . S
C1222 C1231 1.390 . S
C1223 C1222 1.387 . S
C1223 C1225 1.387 1_556 S
H1224 C1231 0.950 . S
C1225 C1223 1.387 1_554 S
C1225 C1227 1.390 . S
C1225 H1229 0.950 . S
H1226 C1222 0.950 . S
C1227 C1225 1.390 . S
C1227 C1228 1.387 1_554 S
C1227 H1230 0.950 . S
C1228 C1227 1.387 1_556 S
C1228 C1231 1.387 . S
H1229 C1225 0.950 . S
H1230 C1227 0.950 . S
C1231 C1222 1.390 . S
C1231 H1224 0.950 . S
C1231 C1228 1.387 . S
C1232 C1233 1.387 . S
C1232 H1236 0.950 . S
C1232 C1241 1.390 . S
C1233 C1232 1.387 . S
C1233 C1235 1.387 . S
H1234 C1241 0.950 . S
C1235 C1233 1.387 . S
C1235 C1237 1.390 . S
C1235 H1239 0.950 . S
H1236 C1232 0.950 . S
C1237 C1235 1.390 . S
C1237 C1238 1.387 . S
C1237 H1240 0.950 . S
C1238 C1237 1.387 . S
C1238 C1241 1.387 . S
H1239 C1235 0.950 . S
H1240 C1237 0.950 . S
C1241 C1232 1.390 . S
C1241 H1234 0.950 . S
C1241 C1238 1.387 . S
C1242 C1243 1.387 . S
C1242 H1246 0.950 . S
C1242 C1251 1.390 . S
C1243 C1242 1.387 . S
C1243 C1245 1.387 . S
H1244 C1251 0.950 . S
C1245 C1243 1.387 . S
C1245 C1247 1.390 . S
C1245 H1249 0.950 . S
H1246 C1242 0.950 . S
C1247 C1245 1.390 . S
C1247 C1248 1.387 . S
C1247 H1250 0.950 . S
C1248 C1247 1.387 . S
C1248 C1251 1.387 . S
H1249 C1245 0.950 . S
H1250 C1247 0.950 . S
C1251 C1242 1.390 . S
C1251 H1244 0.950 . S
C1251 C1248 1.387 . S
C1252 C1253 1.387 . S
C1252 H1256 0.950 . S
C1252 C1261 1.390 . S
C1253 C1252 1.387 . S
C1253 C1255 1.387 . S
H1254 C1261 0.950 . S
C1255 C1253 1.387 . S
C1255 C1257 1.390 . S
C1255 H1259 0.950 . S
H1256 C1252 0.950 . S
C1257 C1255 1.390 . S
C1257 C1258 1.387 . S
C1257 H1260 0.950 . S
C1258 C1257 1.387 . S
C1258 C1261 1.387 . S
H1259 C1255 0.950 . S
H1260 C1257 0.950 . S
C1261 C1252 1.390 . S
C1261 H1254 0.950 . S
C1261 C1258 1.387 . S
C1262 C1263 1.387 . S
C1262 H1266 0.950 . S
C1262 C1271 1.390 . S
C1263 C1262 1.387 . S
C1263 C1265 1.387 . S
H1264 C1271 0.950 . S
C1265 C1263 1.387 . S
C1265 C1267 1.390 . S
C1265 H1269 0.950 1_655 S
H1266 C1262 0.950 . S
C1267 C1265 1.390 . S
C1267 C1268 1.387 . S
C1267 H1270 0.950 . S
C1268 C1267 1.387 . S
C1268 C1271 1.387 . S
H1269 C1265 0.950 1_455 S
H1270 C1267 0.950 . S
C1271 C1262 1.390 . S
C1271 H1264 0.950 . S
C1271 C1268 1.387 . S
C558 C546 1.564 . S
C553 C8 1.568 . S
C568 C510 1.567 . S
C563 C19 1.530 . S
C578 C534 1.347 . S
C573 C30 1.361 . S
C588 C522 1.619 . S
C583 C41 1.583 1_565 S
C598 C438 1.565 . S
C593 C52 1.567 . S
C603 C63 1.582 1_556 S
C608 C450 1.618 . S
C618 C414 1.568 . S
C613 C74 1.529 . S
C623 C85 1.363 . S
C628 C426 1.346 . S
C638 C498 1.565 . S
C633 C96 1.568 . S
C643 C107 1.583 1_655 S
C648 C474 1.617 . S
C653 C118 1.528 . S
C658 C462 1.568 . S
C668 C486 1.347 . S
C663 C129 1.361 . S
C678 C402 1.567 . S
C673 C140 1.528 . S
C683 C151 1.458 . S
C688 C366 1.563 . S
C698 C390 1.346 . S
C693 C162 1.334 . S
C703 C173 1.529 . S
C708 C378 1.608 . S
C718 C294 1.567 . S
C713 C184 1.529 . S
C728 C306 1.610 . S
C723 C195 1.529 . S
C733 C206 1.461 . S
C738 C270 1.562 . S
C743 C217 1.334 . S
C748 C282 1.344 . S
C753 C228 1.527 . S
C758 C354 1.567 . S
C763 C239 1.532 . S
C768 C330 1.607 . S
C778 C318 1.563 . S
C773 C250 1.458 . S
C783 C261 1.332 . S
C788 C342 1.346 . S
C798 C273 1.455 . S
C793 C7 1.492 . S
C808 C285 1.427 . S
C803 C18 1.498 . S
C813 C29 1.382 . S
C818 C297 1.378 . S
C823 C40 1.299 1_565 S
C828 C309 1.301 . S
C838 C321 1.455 . S
C833 C51 1.492 . S
C843 C62 1.300 1_556 S
C848 C333 1.302 . S
C858 C345 1.430 . S
C853 C73 1.500 . S
C868 C357 1.380 . S
C863 C84 1.381 . S
C878 C369 1.455 . S
C873 C95 1.492 . S
C883 C106 1.300 1_655 S
C888 C381 1.301 . S
C893 C117 1.500 . S
C898 C393 1.430 . S
C903 C128 1.383 . S
C908 C405 1.378 . S
C913 C139 1.407 . S
C918 C417 1.453 . S
C923 C150 1.346 . S
C928 C429 1.429 . S
C933 C161 1.317 . S
C938 C441 1.376 . S
C943 C172 1.239 . S
C948 C453 1.300 . S
C953 C183 1.403 . S
C958 C465 1.450 . S
C968 C477 1.301 . S
C963 C194 1.238 . S
C978 C489 1.425 . S
C973 C205 1.341 . S
C988 C501 1.375 . S
C983 C216 1.318 . S
C998 C513 1.451 . S
C993 C227 1.406 . S
C1003 C238 1.239 . S
C1008 C525 1.301 . S
C1013 C249 1.346 . S
C1018 C537 1.429 . S
C1023 C260 1.320 . S
C1028 C549 1.375 . S
C1033 C5 1.356 . S
C1038 C364 1.515 . S
C1048 C400 1.557 . S
C1043 C16 1.431 . S
C1053 C27 1.308 1_545 S
C1058 C376 1.438 . S
C1068 C388 1.611 . S
C1063 C38 1.424 1_565 S
C1073 C49 1.358 . S
C1078 C268 1.516 . S
C1083 C60 1.422 1_556 S
C1088 C280 1.609 . S
C1093 C71 1.431 . S
C1098 C292 1.557 . S
C1103 C82 1.308 1_554 S
C1108 C304 1.438 . S
C1118 C316 1.514 . S
C1113 C93 1.353 . S
C1128 C340 1.611 . S
C1123 C104 1.420 1_655 S
C1133 C115 1.431 . S
C1138 C352 1.557 . S
C1143 C126 1.307 1_455 S
C1148 C328 1.437 . S
C1158 C508 1.520 . S
C1153 C137 1.240 . S
C1168 C544 1.563 . S
C1163 C148 1.217 . S
C1173 C159 1.229 . S
C1178 C520 1.440 . S
C1188 C532 1.624 . S
C1183 C170 1.213 . S
C1193 C181 1.235 . S
C1198 C412 1.521 . S
C1203 C192 1.205 . S
C1208 C424 1.622 . S
C1213 C203 1.209 . S
C1218 C436 1.565 . S
C1228 C448 1.443 . S
C1223 C214 1.228 . S
C1238 C460 1.520 . S
C1233 C225 1.240 . S
C1248 C484 1.623 . S
C1243 C236 1.213 . S
C1253 C247 1.209 . S
C1258 C496 1.565 . S
C1268 C472 1.441 . S
C1263 C258 1.231 . S
