# Generated by pormake.
# Topology dag, (6,3)-cn, num edge types: 1
# Building blocks:
#     Node 0, Type 0, BuildingBlock: OJICUG_clean_sbu_0, # of connection points: 6
#     Node 1, Type 0, BuildingBlock: OJICUG_clean_sbu_0, # of connection points: 6
#     Node 2, Type 0, BuildingBlock: OJICUG_clean_sbu_0, # of connection points: 6
#     Node 3, Type 0, BuildingBlock: OJICUG_clean_sbu_0, # of connection points: 6
#     Node 4, Type 1, BuildingBlock: VETTIZ_charged_linker_0, # of connection points: 3
#     Node 5, Type 1, BuildingBlock: VETTIZ_charged_linker_0, # of connection points: 3
#     Node 6, Type 1, BuildingBlock: VETTIZ_charged_linker_0, # of connection points: 3
#     Node 7, Type 1, BuildingBlock: VETTIZ_charged_linker_0, # of connection points: 3
#     Node 8, Type 1, BuildingBlock: VETTIZ_charged_linker_0, # of connection points: 3
#     Node 9, Type 1, BuildingBlock: VETTIZ_charged_linker_0, # of connection points: 3
#     Node 10, Type 1, BuildingBlock: VETTIZ_charged_linker_0, # of connection points: 3
#     Node 11, Type 1, BuildingBlock: VETTIZ_charged_linker_0, # of connection points: 3
#     Edge 12, Type (0, 1), BuildingBlock: KIFKEQ_clean_linker_1, # of connection points: 2
#     Edge 13, Type (0, 1), BuildingBlock: KIFKEQ_clean_linker_1, # of connection points: 2
#     Edge 14, Type (0, 1), BuildingBlock: KIFKEQ_clean_linker_1, # of connection points: 2
#     Edge 15, Type (0, 1), BuildingBlock: KIFKEQ_clean_linker_1, # of connection points: 2
#     Edge 16, Type (0, 1), BuildingBlock: KIFKEQ_clean_linker_1, # of connection points: 2
#     Edge 17, Type (0, 1), BuildingBlock: KIFKEQ_clean_linker_1, # of connection points: 2
#     Edge 18, Type (0, 1), BuildingBlock: KIFKEQ_clean_linker_1, # of connection points: 2
#     Edge 19, Type (0, 1), BuildingBlock: KIFKEQ_clean_linker_1, # of connection points: 2
#     Edge 20, Type (0, 1), BuildingBlock: KIFKEQ_clean_linker_1, # of connection points: 2
#     Edge 21, Type (0, 1), BuildingBlock: KIFKEQ_clean_linker_1, # of connection points: 2
#     Edge 22, Type (0, 1), BuildingBlock: KIFKEQ_clean_linker_1, # of connection points: 2
#     Edge 23, Type (0, 1), BuildingBlock: KIFKEQ_clean_linker_1, # of connection points: 2
#     Edge 24, Type (0, 1), BuildingBlock: KIFKEQ_clean_linker_1, # of connection points: 2
#     Edge 25, Type (0, 1), BuildingBlock: KIFKEQ_clean_linker_1, # of connection points: 2
#     Edge 26, Type (0, 1), BuildingBlock: KIFKEQ_clean_linker_1, # of connection points: 2
#     Edge 27, Type (0, 1), BuildingBlock: KIFKEQ_clean_linker_1, # of connection points: 2
#     Edge 28, Type (0, 1), BuildingBlock: KIFKEQ_clean_linker_1, # of connection points: 2
#     Edge 29, Type (0, 1), BuildingBlock: KIFKEQ_clean_linker_1, # of connection points: 2
#     Edge 30, Type (0, 1), BuildingBlock: KIFKEQ_clean_linker_1, # of connection points: 2
#     Edge 31, Type (0, 1), BuildingBlock: KIFKEQ_clean_linker_1, # of connection points: 2
#     Edge 32, Type (0, 1), BuildingBlock: KIFKEQ_clean_linker_1, # of connection points: 2
#     Edge 33, Type (0, 1), BuildingBlock: KIFKEQ_clean_linker_1, # of connection points: 2
#     Edge 34, Type (0, 1), BuildingBlock: KIFKEQ_clean_linker_1, # of connection points: 2
#     Edge 35, Type (0, 1), BuildingBlock: KIFKEQ_clean_linker_1, # of connection points: 2
# Relax obj value: 0.268
# Max RMSD: 0.196
# Mean RMSD: 0.162
data_MOF--net-dag--node1-OJICUG_clean_sbu_0--node2-VETTIZ_charged_linker_0--edge1-KIFKEQ_clean_linker_1
_symmetry_space_group_name_H-M    P1
_symmetry_Int_Tables_number       1
_symmetry_cell_setting            triclinic
loop_
_symmetry_equiv_pos_as_xyz
'x, y, z'
_cell_length_a     46.270781
_cell_length_b     46.197558
_cell_length_c     48.29164
_cell_angle_alpha  90.085304
_cell_angle_beta   90.058184
_cell_angle_gamma 89.972463
loop_
_atom_site_label
_atom_site_type_symbol
_atom_site_fract_x
_atom_site_fract_y
_atom_site_fract_z
_atom_type_partial_charge
Sc0 Sc 0.13362 0.82194 0.99067 0.0
Sc1 Sc 0.15755 0.752 0.00544 0.0
Sc2 Sc 0.20806 0.80863 -0.00418 0.0
O3 O 0.16655 0.7942 -0.00265 0.0
C4 C 0.18034 0.84573 0.94749 0.0
C5 C 0.11037 0.76738 0.95913 0.0
C6 C 0.21004 0.74798 0.96326 0.0
C7 C 0.10876 0.78249 0.03967 0.0
C8 C 0.1754 0.85916 0.02879 0.0
C9 C 0.21206 0.76327 0.04493 0.0
O10 O 0.1552 0.84438 0.95784 0.0
O11 O 0.12219 0.74977 0.97592 0.0
O12 O 0.221 0.7721 0.97072 0.0
O13 O 0.10702 0.80316 0.02244 0.0
O14 O 0.19841 0.84666 0.0205 0.0
O15 O 0.19104 0.74817 0.03612 0.0
O16 O 0.15023 0.85166 0.02095 0.0
O17 O 0.12816 0.76304 0.03854 0.0
O18 O 0.21989 0.78668 0.03342 0.0
O19 O 0.11483 0.79447 0.95988 0.0
O20 O 0.20189 0.83276 0.95803 0.0
O21 O 0.18645 0.73818 0.97309 0.0
Sc22 Sc 0.71546 0.68067 0.4971 0.0
Sc23 Sc 0.65922 0.73236 0.50349 0.0
Sc24 Sc 0.6478 0.65971 0.52239 0.0
O25 O 0.67414 0.69099 0.50763 0.0
C26 C 0.6816 0.62649 0.47371 0.0
C27 C 0.69963 0.72699 0.45043 0.0
C28 C 0.60621 0.69485 0.48153 0.0
C29 C 0.7221 0.74011 0.53032 0.0
C30 C 0.70643 0.64114 0.55087 0.0
C31 C 0.62791 0.71347 0.55937 0.0
O32 O 0.70217 0.64461 0.47151 0.0
O33 O 0.67846 0.73807 0.46332 0.0
O34 O 0.61391 0.67211 0.49441 0.0
O35 O 0.73173 0.71571 0.52212 0.0
O36 O 0.67913 0.64397 0.55153 0.0
O37 O 0.63732 0.7326 0.54284 0.0
O38 O 0.72191 0.65215 0.5319 0.0
O39 O 0.69689 0.74935 0.52436 0.0
O40 O 0.63049 0.68652 0.55476 0.0
O41 O 0.71504 0.70689 0.46052 0.0
O42 O 0.66177 0.62889 0.49178 0.0
O43 O 0.61999 0.71866 0.48286 0.0
Sc44 Sc 0.83909 0.24256 0.98627 0.0
Sc45 Sc 0.78708 0.1866 0.99447 0.0
Sc46 Sc 0.86119 0.17119 -0.00062 0.0
O47 O 0.82906 0.20018 0.9934 0.0
C48 C 0.8878 0.21038 0.95134 0.0
C49 C 0.7876 0.2302 0.94339 0.0
C50 C 0.81761 0.13368 0.96327 0.0
C51 C 0.78348 0.24823 0.02483 0.0
C52 C 0.8847 0.22585 0.03297 0.0
C53 C 0.81457 0.15114 0.04433 0.0
O54 O 0.87213 0.23244 0.95609 0.0
O55 O 0.7774 0.20823 0.95592 0.0
O56 O 0.84297 0.14038 0.97103 0.0
O57 O 0.80733 0.25775 0.01549 0.0
O58 O 0.88282 0.19882 0.02846 0.0
O59 O 0.79288 0.16336 0.03306 0.0
O60 O 0.87089 0.24466 0.01904 0.0
O61 O 0.77343 0.22352 0.01837 0.0
O62 O 0.83972 0.15178 0.03385 0.0
O63 O 0.80884 0.24482 0.95258 0.0
O64 O 0.8862 0.18732 0.96551 0.0
O65 O 0.79529 0.14767 0.97081 0.0
Sc66 Sc 0.34731 0.33206 0.46501 0.0
Sc67 Sc 0.27946 0.31276 0.49173 0.0
Sc68 Sc 0.33454 0.25985 0.48432 0.0
O69 O 0.32039 0.30152 0.48035 0.0
C70 C 0.36339 0.27833 0.42681 0.0
C71 C 0.28768 0.35164 0.43775 0.0
C72 C 0.27053 0.25228 0.46054 0.0
C73 C 0.31596 0.36631 0.51421 0.0
C74 C 0.3897 0.29523 0.50399 0.0
C75 C 0.29636 0.26732 0.53885 0.0
O76 O 0.3608 0.30528 0.43124 0.0
O77 O 0.27195 0.33953 0.45589 0.0
O78 O 0.29618 0.24333 0.46477 0.0
O79 O 0.33645 0.36229 0.49711 0.0
O80 O 0.37409 0.2726 0.50438 0.0
O81 O 0.28151 0.28817 0.52934 0.0
O82 O 0.38292 0.31777 0.49035 0.0
O83 O 0.29384 0.34995 0.51532 0.0
O84 O 0.31603 0.25483 0.52494 0.0
O85 O 0.31508 0.35007 0.43803 0.0
O86 O 0.35566 0.25924 0.44425 0.0
O87 O 0.26139 0.27679 0.46894 0.0
C88 C 0.17056 0.0545 0.15693 0.0
C89 C 0.16423 0.04809 0.12912 0.0
C90 C 0.14951 0.06878 0.11295 0.0
C91 C 0.14592 0.1007 0.15264 0.0
C92 C 0.16137 0.0809 0.16816 0.0
C93 C 0.16622 0.09109 0.19738 0.0
H94 H 0.14702 0.19383 0.29549 0.0
C95 C 0.13827 0.12521 0.17088 0.0
C96 C 0.15033 0.11984 0.19704 0.0
H97 H 0.19648 0.11458 0.30127 0.0
H98 H 0.18265 0.10179 0.25472 0.0
H99 H 0.16602 0.21095 0.23411 0.0
H100 H 0.09238 0.16488 0.26574 0.0
H101 H 0.07998 0.18447 0.23702 0.0
H102 H 0.0943 0.20363 0.26663 0.0
H103 H 0.13794 0.22774 0.25416 0.0
H104 H 0.13494 0.22404 0.21715 0.0
C105 C 0.19919 0.09499 0.20181 0.0
C106 C 0.15179 0.06911 0.21724 0.0
C107 C 0.06929 0.20258 0.13653 0.0
C108 C 0.05501 0.22556 0.14986 0.0
C109 C 0.06284 0.2328 0.1772 0.0
C110 C 0.08381 0.21665 0.1914 0.0
C111 C 0.09679 0.19278 0.17823 0.0
C112 C 0.08978 0.18638 0.1511 0.0
C113 C 0.10443 0.15933 0.14089 0.0
C114 C 0.12098 0.15021 0.16655 0.0
C115 C 0.11652 0.16992 0.18829 0.0
C116 C 0.12495 0.16773 0.11688 0.0
C117 C 0.08071 0.1371 0.1329 0.0
C118 C 0.15448 0.17348 0.2869 0.0
C119 C 0.17301 0.15527 0.30203 0.0
C120 C 0.18251 0.12917 0.2899 0.0
C121 C 0.17446 0.12178 0.26285 0.0
C122 C 0.15669 0.14066 0.24769 0.0
C123 C 0.14671 0.16583 0.25986 0.0
C124 C 0.12793 0.18321 0.24062 0.0
C125 C 0.12922 0.16483 0.21459 0.0
C126 C 0.14598 0.1399 0.21892 0.0
C127 C 0.14218 0.21319 0.23628 0.0
C128 C 0.09705 0.18441 0.25305 0.0
H129 H 0.1288 0.10964 0.11132 0.0
H130 H 0.18224 0.03921 0.16973 0.0
H131 H 0.13086 0.06138 0.2086 0.0
H132 H 0.14632 0.07852 0.23759 0.0
H133 H 0.16581 0.04988 0.22046 0.0
H134 H 0.21017 0.10118 0.1822 0.0
H135 H 0.20935 0.07465 0.20926 0.0
H136 H 0.20441 0.11272 0.21636 0.0
H137 H 0.06328 0.19608 0.11574 0.0
H138 H 0.05214 0.25046 0.18783 0.0
H139 H 0.08851 0.22289 0.21233 0.0
H140 H 0.13411 0.18976 0.12008 0.0
H141 H 0.11337 0.1678 0.09672 0.0
H142 H 0.144 0.15337 0.11539 0.0
H143 H 0.06232 0.13814 0.1477 0.0
H144 H 0.08819 0.11446 0.13374 0.0
H145 H 0.07205 0.14151 0.11187 0.0
H146 H 0.14424 0.06424 0.09152 0.0
C147 C 0.14036 0.09503 0.12455 0.0
C148 C 0.32444 0.55686 0.65096 0.0
C149 C 0.33909 0.54792 0.62694 0.0
C150 C 0.36029 0.56608 0.61534 0.0
C151 C 0.35409 0.60022 0.65283 0.0
C152 C 0.33246 0.58299 0.66368 0.0
C153 C 0.32089 0.59495 0.69051 0.0
H154 H 0.33226 0.69332 0.79412 0.0
C155 C 0.35922 0.62441 0.67217 0.0
C156 C 0.33991 0.6215 0.69435 0.0
H157 H 0.26967 0.62436 0.78587 0.0
H158 H 0.29029 0.61086 0.74174 0.0
H159 H 0.38594 0.65759 0.77436 0.0
H160 H 0.32898 0.71454 0.72961 0.0
H161 H 0.36484 0.72285 0.72037 0.0
H162 H 0.35363 0.72681 0.75586 0.0
H163 H 0.38917 0.69621 0.77669 0.0
H164 H 0.40732 0.67575 0.74997 0.0
C165 C 0.326 0.57212 0.71347 0.0
C166 C 0.28877 0.60322 0.68607 0.0
C167 C 0.4419 0.69359 0.65368 0.0
C168 C 0.45527 0.71512 0.66972 0.0
C169 C 0.44348 0.72252 0.69563 0.0
C170 C 0.41862 0.70845 0.70547 0.0
C171 C 0.40589 0.68637 0.68943 0.0
C172 C 0.41763 0.67931 0.66402 0.0
C173 C 0.40304 0.65373 0.65082 0.0
C174 C 0.38016 0.64685 0.67226 0.0
C175 C 0.38174 0.66613 0.69468 0.0
C176 C 0.42567 0.62903 0.64784 0.0
C177 C 0.38941 0.66383 0.62317 0.0
C178 C 0.32319 0.6751 0.78296 0.0
C179 C 0.29948 0.65972 0.79358 0.0
C180 C 0.28788 0.63659 0.77807 0.0
C181 C 0.29994 0.62874 0.75251 0.0
C182 C 0.32386 0.64416 0.74234 0.0
C183 C 0.33489 0.66709 0.75741 0.0
C184 C 0.36003 0.68135 0.74327 0.0
C185 C 0.36214 0.66337 0.71708 0.0
C186 C 0.3411 0.64142 0.71675 0.0
C187 C 0.38709 0.67784 0.76196 0.0
C188 C 0.35172 0.71315 0.737 0.0
H189 H 0.3843 0.60483 0.61835 0.0
H190 H 0.30808 0.54323 0.66027 0.0
H191 H 0.28488 0.61064 0.66447 0.0
H192 H 0.28189 0.62159 0.69918 0.0
H193 H 0.27433 0.58445 0.68992 0.0
H194 H 0.34762 0.56188 0.71107 0.0
H195 H 0.3095 0.55469 0.71246 0.0
H196 H 0.32598 0.5814 0.73451 0.0
H197 H 0.45109 0.68689 0.63405 0.0
H198 H 0.45371 0.73892 0.70835 0.0
H199 H 0.41066 0.71487 0.72541 0.0
H200 H 0.44349 0.63128 0.66318 0.0
H201 H 0.4356 0.62898 0.62692 0.0
H202 H 0.4165 0.60739 0.65209 0.0
H203 H 0.37941 0.68561 0.62554 0.0
H204 H 0.37174 0.6496 0.61601 0.0
H205 H 0.406 0.66534 0.60662 0.0
H206 H 0.37148 0.55974 0.59658 0.0
C207 C 0.36772 0.59222 0.62803 0.0
C208 C 0.77727 0.84031 0.26792 0.0
C209 C 0.78291 0.81245 0.27828 0.0
C210 C 0.80793 0.79769 0.26939 0.0
C211 C 0.82222 0.8392 0.24213 0.0
C212 C 0.79721 0.85328 0.25008 0.0
C213 C 0.7953 0.88338 0.23842 0.0
H214 H 0.85795 0.9924 0.16715 0.0
C215 C 0.83951 0.85948 0.22541 0.0
C216 C 0.82396 0.88547 0.2233 0.0
H217 H 0.77114 0.98892 0.19972 0.0
H218 H 0.78021 0.9409 0.21786 0.0
H219 H 0.89096 0.96043 0.21874 0.0
H220 H 0.85557 0.92975 0.14159 0.0
H221 H 0.88868 0.912 0.14663 0.0
H222 H 0.8881 0.95082 0.14331 0.0
H223 H 0.90792 0.96749 0.18603 0.0
H224 H 0.91526 0.9348 0.20523 0.0
C225 C 0.79352 0.90504 0.26287 0.0
C226 C 0.7692 0.88459 0.21826 0.0
C227 C 0.93609 0.82749 0.18597 0.0
C228 C 0.95744 0.84198 0.17065 0.0
C229 C 0.95446 0.87191 0.1658 0.0
C230 C 0.92999 0.88696 0.17502 0.0
C231 C 0.90823 0.87193 0.18927 0.0
C232 C 0.91185 0.84289 0.19519 0.0
C233 C 0.88709 0.83082 0.21166 0.0
C234 C 0.86737 0.85705 0.21339 0.0
C235 C 0.87975 0.88098 0.20007 0.0
C236 C 0.89873 0.82166 0.2405 0.0
C237 C 0.87314 0.80594 0.19477 0.0
C238 C 0.84115 0.98144 0.17872 0.0
C239 C 0.81398 0.99441 0.18253 0.0
C240 C 0.79226 0.97926 0.1968 0.0
C241 C 0.79758 0.95142 0.20718 0.0
C242 C 0.82474 0.93849 0.20282 0.0
C243 C 0.84592 0.95343 0.18865 0.0
C244 C 0.8726 0.93545 0.18396 0.0
C245 C 0.86401 0.90728 0.1978 0.0
C246 C 0.83612 0.90935 0.20908 0.0
C247 C 0.89821 0.95024 0.19904 0.0
C248 C 0.87679 0.93183 0.15228 0.0
H249 H 0.84643 0.79874 0.24576 0.0
H250 H 0.75804 0.85206 0.27406 0.0
H251 H 0.76419 0.86287 0.20949 0.0
H252 H 0.77347 0.8983 0.19994 0.0
H253 H 0.74943 0.8925 0.22888 0.0
H254 H 0.80908 0.89896 0.27946 0.0
H255 H 0.77153 0.9052 0.27208 0.0
H256 H 0.79923 0.92737 0.25699 0.0
H257 H 0.93805 0.80458 0.19034 0.0
H258 H 0.97056 0.88349 0.1539 0.0
H259 H 0.9287 0.90958 0.17018 0.0
H260 H 0.91822 0.83436 0.24643 0.0
H261 H 0.90489 0.79842 0.24075 0.0
H262 H 0.8831 0.82587 0.25734 0.0
H263 H 0.87159 0.81188 0.1725 0.0
H264 H 0.8508 0.80108 0.20124 0.0
H265 H 0.88622 0.78584 0.19627 0.0
H266 H 0.81298 0.77634 0.27727 0.0
C267 C 0.82756 0.81089 0.25136 0.0
C268 C 0.69969 0.28684 0.73907 0.0
C269 C 0.72414 0.29461 0.75474 0.0
C270 C 0.74137 0.318 0.74592 0.0
C271 C 0.70961 0.32596 0.70694 0.0
C272 C 0.69297 0.30268 0.71517 0.0
C273 C 0.66787 0.29752 0.69592 0.0
H274 H 0.58819 0.3435 0.58683 0.0
C275 C 0.69666 0.33825 0.6817 0.0
C276 C 0.6724 0.32145 0.6748 0.0
H277 H 0.57125 0.27025 0.63986 0.0
H278 H 0.61647 0.27852 0.66402 0.0
H279 H 0.61074 0.38627 0.63517 0.0
H280 H 0.65332 0.33063 0.57664 0.0
H281 H 0.67727 0.35952 0.58228 0.0
H282 H 0.6421 0.36647 0.56735 0.0
H283 H 0.61054 0.39179 0.59836 0.0
H284 H 0.63905 0.40582 0.61967 0.0
C285 C 0.63964 0.30174 0.71265 0.0
C286 C 0.67127 0.26708 0.68284 0.0
C287 C 0.73495 0.43304 0.64292 0.0
C288 C 0.72695 0.4496 0.61976 0.0
C289 C 0.70625 0.43853 0.60113 0.0
C290 C 0.69258 0.4121 0.60619 0.0
C291 C 0.69956 0.39654 0.63021 0.0
C292 C 0.72122 0.40642 0.64752 0.0
C293 C 0.72687 0.38588 0.67106 0.0
C294 C 0.70401 0.36289 0.66567 0.0
C295 C 0.68776 0.36964 0.64206 0.0
C296 C 0.72137 0.40233 0.69854 0.0
C297 C 0.75799 0.37374 0.66793 0.0
C298 C 0.5942 0.32931 0.60373 0.0
C299 C 0.57604 0.30654 0.61183 0.0
C300 C 0.58492 0.28802 0.63337 0.0
C301 C 0.61105 0.29299 0.64746 0.0
C302 C 0.62839 0.31672 0.63985 0.0
C303 C 0.62008 0.334 0.61792 0.0
C304 C 0.64101 0.35811 0.61243 0.0
C305 C 0.6631 0.3529 0.63509 0.0
C306 C 0.65553 0.32879 0.65125 0.0
C307 C 0.62468 0.38713 0.61642 0.0
C308 C 0.65407 0.35374 0.58314 0.0
H309 H 0.7481 0.35134 0.71674 0.0
H310 H 0.68619 0.26881 0.74522 0.0
H311 H 0.69445 0.26195 0.67915 0.0
H312 H 0.66095 0.26535 0.66227 0.0
H313 H 0.66236 0.25007 0.69663 0.0
H314 H 0.64168 0.32039 0.72713 0.0
H315 H 0.63466 0.28222 0.72517 0.0
H316 H 0.6208 0.30688 0.69957 0.0
H317 H 0.75112 0.44088 0.65732 0.0
H318 H 0.69964 0.45099 0.58321 0.0
H319 H 0.67647 0.40525 0.59163 0.0
H320 H 0.70123 0.41542 0.6971 0.0
H321 H 0.73948 0.41732 0.70329 0.0
H322 H 0.71824 0.38788 0.71643 0.0
H323 H 0.76573 0.3751 0.64616 0.0
H324 H 0.75931 0.35042 0.67307 0.0
H325 H 0.77357 0.3859 0.68102 0.0
H326 H 0.76007 0.32469 0.75783 0.0
C327 C 0.73429 0.33362 0.72213 0.0
C328 C 0.65901 0.44915 0.32341 0.0
C329 C 0.64815 0.45524 0.34999 0.0
C330 C 0.62548 0.43816 0.36059 0.0
C331 C 0.62492 0.40944 0.31868 0.0
C332 C 0.64716 0.4261 0.30821 0.0
C333 C 0.6565 0.41601 0.27993 0.0
H334 H 0.64353 0.3189 0.17551 0.0
C335 C 0.61738 0.3873 0.29782 0.0
C336 C 0.63576 0.39098 0.27503 0.0
H337 H 0.70519 0.38879 0.18325 0.0
H338 H 0.68283 0.4039 0.22601 0.0
H339 H 0.64486 0.29909 0.23901 0.0
H340 H 0.58802 0.35661 0.19459 0.0
H341 H 0.56678 0.33792 0.21878 0.0
H342 H 0.58495 0.31801 0.19167 0.0
H343 H 0.62052 0.28709 0.21236 0.0
H344 H 0.60884 0.2907 0.24767 0.0
C345 C 0.68833 0.40571 0.28196 0.0
C346 C 0.6514 0.44102 0.25918 0.0
C347 C 0.53675 0.31627 0.31811 0.0
C348 C 0.52326 0.29448 0.30247 0.0
C349 C 0.53297 0.2889 0.27536 0.0
C350 C 0.55621 0.3046 0.26418 0.0
C351 C 0.56956 0.32632 0.2802 0.0
C352 C 0.55949 0.332 0.30657 0.0
C353 C 0.57487 0.35691 0.32009 0.0
C354 C 0.59619 0.36511 0.29765 0.0
C355 C 0.59327 0.34697 0.27447 0.0
C356 C 0.59028 0.34537 0.34638 0.0
C357 C 0.55247 0.38127 0.32555 0.0
C358 C 0.65193 0.33775 0.18616 0.0
C359 C 0.67628 0.35256 0.17605 0.0
C360 C 0.68673 0.37675 0.1908 0.0
C361 C 0.6737 0.38551 0.21562 0.0
C362 C 0.65001 0.36985 0.22593 0.0
C363 C 0.63925 0.34667 0.21104 0.0
C364 C 0.61406 0.33246 0.22524 0.0
C365 C 0.61207 0.35039 0.2515 0.0
C366 C 0.63314 0.3723 0.25177 0.0
C367 C 0.62222 0.30058 0.23135 0.0
C368 C 0.58697 0.33614 0.20668 0.0
H369 H 0.5966 0.40333 0.35441 0.0
H370 H 0.67655 0.46176 0.31479 0.0
H371 H 0.63087 0.45255 0.26393 0.0
H372 H 0.64901 0.43347 0.2376 0.0
H373 H 0.6692 0.45711 0.26019 0.0
H374 H 0.69292 0.3961 0.30262 0.0
H375 H 0.70356 0.42401 0.27894 0.0
H376 H 0.69358 0.38832 0.26708 0.0
H377 H 0.52917 0.3216 0.33873 0.0
H378 H 0.52263 0.27235 0.2629 0.0
H379 H 0.56281 0.29932 0.24348 0.0
H380 H 0.59889 0.32317 0.34283 0.0
H381 H 0.57514 0.34429 0.36418 0.0
H382 H 0.60931 0.35836 0.35236 0.0
H383 H 0.53503 0.3811 0.30966 0.0
H384 H 0.5619 0.40319 0.32413 0.0
H385 H 0.54206 0.37867 0.34611 0.0
H386 H 0.61641 0.4427 0.3808 0.0
C387 C 0.61384 0.41539 0.34512 0.0
C388 C 0.21167 0.19721 0.73683 0.0
C389 C 0.23522 0.18513 0.72252 0.0
C390 C 0.24591 0.15791 0.73085 0.0
C391 C 0.20726 0.15368 0.76444 0.0
C392 C 0.19783 0.18106 0.75733 0.0
C393 C 0.17035 0.18935 0.77191 0.0
H394 H 0.0545 0.14748 0.8466 0.0
C395 C 0.1859 0.14114 0.78367 0.0
C396 C 0.16412 0.1619 0.78797 0.0
H397 H 0.07244 0.23286 0.81467 0.0
H398 H 0.11896 0.21628 0.79762 0.0
H399 H 0.0782 0.11112 0.79611 0.0
H400 H 0.11722 0.13889 0.87239 0.0
H401 H 0.13011 0.10377 0.8662 0.0
H402 H 0.09184 0.10958 0.87081 0.0
H403 H 0.06989 0.09472 0.8288 0.0
H404 H 0.09951 0.08213 0.80769 0.0
C405 C 0.14695 0.19555 0.7497 0.0
C406 C 0.17687 0.21524 0.79137 0.0
C407 C 0.19736 0.03733 0.81751 0.0
C408 C 0.17886 0.01911 0.83254 0.0
C409 C 0.15179 0.02949 0.8413 0.0
C410 C 0.14319 0.05781 0.83546 0.0
C411 C 0.16175 0.07593 0.82042 0.0
C412 C 0.18819 0.06559 0.8114 0.0
C413 C 0.20406 0.08757 0.79414 0.0
C414 C 0.18332 0.11311 0.79545 0.0
C415 C 0.1587 0.10609 0.81094 0.0
C416 C 0.20719 0.07533 0.76434 0.0
C417 C 0.23312 0.09456 0.80854 0.0
C418 C 0.06834 0.16249 0.83562 0.0
C419 C 0.05973 0.19126 0.83131 0.0
C420 C 0.07865 0.2105 0.81787 0.0
C421 C 0.10554 0.20081 0.80803 0.0
C422 C 0.11354 0.17167 0.81189 0.0
C423 C 0.09528 0.15329 0.82606 0.0
C424 C 0.10792 0.12363 0.8299 0.0
C425 C 0.13662 0.12695 0.81514 0.0
C426 C 0.1396 0.15492 0.80425 0.0
C427 C 0.0879 0.10155 0.8151 0.0
C428 C 0.11189 0.11838 0.8614 0.0
H429 H 0.24073 0.12126 0.75679 0.0
H430 H 0.2033 0.21833 0.73129 0.0
H431 H 0.19955 0.21455 0.79903 0.0
H432 H 0.16348 0.21498 0.81033 0.0
H433 H 0.1738 0.2362 0.78052 0.0
H434 H 0.14795 0.17915 0.73283 0.0
H435 H 0.15015 0.21721 0.74023 0.0
H436 H 0.12472 0.19439 0.75775 0.0
H437 H 0.21817 0.0296 0.81036 0.0
H438 H 0.13739 0.01567 0.85304 0.0
H439 H 0.12237 0.06441 0.84285 0.0
H440 H 0.1903 0.05889 0.75966 0.0
H441 H 0.22854 0.06478 0.76133 0.0
H442 H 0.20417 0.09209 0.74826 0.0
H443 H 0.22988 0.09762 0.83118 0.0
H444 H 0.24297 0.11484 0.80103 0.0
H445 H 0.24884 0.07663 0.80564 0.0
H446 H 0.264 0.14807 0.72018 0.0
C447 C 0.23213 0.14219 0.75186 0.0
C448 C 0.29015 0.66668 0.23136 0.0
C449 C 0.30441 0.69085 0.22022 0.0
C450 C 0.32649 0.70429 0.23571 0.0
C451 C 0.31984 0.66945 0.27267 0.0
C452 C 0.29805 0.65651 0.25751 0.0
C453 C 0.28468 0.6313 0.27236 0.0
H454 H 0.28371 0.54228 0.38305 0.0
C455 C 0.32231 0.65385 0.29923 0.0
C456 C 0.30147 0.63175 0.29932 0.0
H457 H 0.23424 0.53442 0.30748 0.0
H458 H 0.25359 0.58001 0.2913 0.0
H459 H 0.34183 0.56101 0.3531 0.0
H460 H 0.27473 0.61017 0.39299 0.0
H461 H 0.30697 0.62926 0.3989 0.0
H462 H 0.30292 0.59306 0.41252 0.0
H463 H 0.33436 0.55954 0.38956 0.0
H464 H 0.35809 0.58635 0.37543 0.0
C465 C 0.29072 0.60353 0.25518 0.0
C466 C 0.25222 0.63792 0.27697 0.0
C467 C 0.40385 0.67732 0.36618 0.0
C468 C 0.41119 0.66641 0.39251 0.0
C469 C 0.39156 0.64773 0.40594 0.0
C470 C 0.36643 0.63826 0.39262 0.0
C471 C 0.36063 0.64758 0.36556 0.0
C472 C 0.37839 0.66784 0.35328 0.0
C473 C 0.36727 0.67703 0.32531 0.0
C474 C 0.34107 0.65744 0.32224 0.0
C475 C 0.33767 0.63988 0.34569 0.0
C476 C 0.39071 0.67017 0.30341 0.0
C477 C 0.35869 0.70945 0.32692 0.0
C478 C 0.27646 0.55077 0.36333 0.0
C479 C 0.2573 0.53491 0.34656 0.0
C480 C 0.24902 0.54629 0.3207 0.0
C481 C 0.26039 0.57266 0.31134 0.0
C482 C 0.28065 0.58755 0.3278 0.0
C483 C 0.28806 0.57672 0.35348 0.0
C484 C 0.3112 0.59433 0.36746 0.0
C485 C 0.31672 0.61742 0.34577 0.0
C486 C 0.29875 0.61336 0.32266 0.0
C487 C 0.33782 0.57445 0.37185 0.0
C488 C 0.29856 0.6073 0.39449 0.0
H489 H 0.35142 0.70463 0.27261 0.0
H490 H 0.27277 0.65617 0.22017 0.0
H491 H 0.24906 0.66102 0.28278 0.0
H492 H 0.24272 0.62537 0.29414 0.0
H493 H 0.23951 0.63377 0.25785 0.0
H494 H 0.31119 0.60545 0.24324 0.0
H495 H 0.27306 0.5993 0.24012 0.0
H496 H 0.29389 0.58416 0.26823 0.0
H497 H 0.41807 0.69201 0.35531 0.0
H498 H 0.39588 0.6399 0.42666 0.0
H499 H 0.35282 0.62347 0.40367 0.0
H500 H 0.39975 0.64813 0.30677 0.0
H501 H 0.40882 0.68589 0.30471 0.0
H502 H 0.38233 0.67026 0.28203 0.0
H503 H 0.35337 0.71609 0.34848 0.0
H504 H 0.33889 0.7143 0.3149 0.0
H505 H 0.37652 0.72361 0.31964 0.0
H506 H 0.33785 0.72287 0.22747 0.0
C507 C 0.33432 0.69367 0.26186 0.0
C508 C 0.81185 0.93201 0.84367 0.0
C509 C 0.81952 0.94007 0.87079 0.0
C510 C 0.83476 0.92026 0.88749 0.0
C511 C 0.83657 0.88604 0.8495 0.0
C512 C 0.82036 0.90486 0.83357 0.0
C513 C 0.81404 0.89274 0.80526 0.0
H514 H 0.83653 0.78762 0.70998 0.0
C515 C 0.84362 0.86052 0.83235 0.0
C516 C 0.83018 0.86412 0.8065 0.0
H517 H 0.77996 0.86194 0.70349 0.0
H518 H 0.79357 0.87702 0.74955 0.0
H519 H 0.88853 0.8199 0.74001 0.0
H520 H 0.8169 0.77024 0.77084 0.0
H521 H 0.84737 0.76029 0.79038 0.0
H522 H 0.84712 0.75396 0.75351 0.0
H523 H 0.88729 0.78117 0.73751 0.0
H524 H 0.90186 0.79918 0.76761 0.0
C525 C 0.82714 0.91345 0.78344 0.0
C526 C 0.78094 0.88835 0.80259 0.0
C527 C 0.91701 0.78735 0.86706 0.0
C528 C 0.93102 0.76383 0.8543 0.0
C529 C 0.92164 0.75464 0.82796 0.0
C530 C 0.89953 0.76944 0.81404 0.0
C531 C 0.88687 0.79391 0.82645 0.0
C532 C 0.89524 0.80213 0.85277 0.0
C533 C 0.88026 0.82928 0.86231 0.0
C534 C 0.86189 0.83632 0.83714 0.0
C535 C 0.86591 0.81557 0.81624 0.0
C536 C 0.90367 0.85264 0.86771 0.0
C537 C 0.86152 0.82176 0.88788 0.0
C538 C 0.82684 0.80704 0.71847 0.0
C539 C 0.80709 0.82355 0.70294 0.0
C540 C 0.79552 0.84899 0.71476 0.0
C541 C 0.80321 0.85757 0.74166 0.0
C542 C 0.82264 0.84053 0.75699 0.0
C543 C 0.834 0.81569 0.74534 0.0
C544 C 0.85377 0.79983 0.76479 0.0
C545 C 0.85201 0.81895 0.79026 0.0
C546 C 0.83406 0.84295 0.78548 0.0
C547 C 0.88448 0.79971 0.75193 0.0
C548 C 0.84092 0.76937 0.77015 0.0
H549 H 0.85536 0.87945 0.89056 0.0
H550 H 0.7997 0.94663 0.83056 0.0
H551 H 0.77084 0.88422 0.82311 0.0
H552 H 0.77527 0.86915 0.79001 0.0
H553 H 0.77033 0.90777 0.79363 0.0
H554 H 0.84912 0.92055 0.78988 0.0
H555 H 0.81356 0.93312 0.78098 0.0
H556 H 0.82993 0.90328 0.76295 0.0
H557 H 0.92405 0.79528 0.88709 0.0
H558 H 0.93198 0.73645 0.81781 0.0
H559 H 0.89377 0.76175 0.79381 0.0
H560 H 0.92079 0.85168 0.85156 0.0
H561 H 0.91422 0.84933 0.88813 0.0
H562 H 0.8953 0.87495 0.86681 0.0
H563 H 0.85362 0.79904 0.88687 0.0
H564 H 0.84166 0.83504 0.88916 0.0
H565 H 0.87402 0.82417 0.9074 0.0
H566 H 0.84099 0.92605 0.90841 0.0
C567 C 0.84329 0.89331 0.87701 0.0
H568 H 0.22159 0.89558 0.03558 0.0
H569 H 0.13433 0.88017 0.06378 0.0
H570 H 0.22308 0.94042 0.06268 0.0
H571 H 0.13594 0.9247 0.09078 0.0
H572 H 0.15501 0.99535 0.15261 0.0
H573 H 0.16183 0.94777 0.13144 0.0
H574 H 0.19554 0.98834 0.05774 0.0
H575 H 0.18894 0.03597 0.07902 0.0
C576 C 0.20294 0.9015 0.04789 0.0
C577 C 0.17777 0.88447 0.04742 0.0
C578 C 0.20375 0.9272 0.06324 0.0
C579 C 0.17961 0.936 0.07876 0.0
C580 C 0.15495 0.91831 0.07921 0.0
C581 C 0.15397 0.89292 0.06359 0.0
C582 C 0.16442 0.99406 0.13211 0.0
C583 C 0.17132 0.01933 0.11737 0.0
C584 C 0.16813 0.96687 0.11996 0.0
C585 C 0.1791 0.96442 0.09295 0.0
C586 C 0.18725 0.98961 0.07868 0.0
C587 C 0.18323 0.01684 0.09073 0.0
H588 H 0.61438 0.68213 0.60544 0.0
H589 H 0.6001 0.76521 0.56671 0.0
H590 H 0.57588 0.69233 0.63831 0.0
H591 H 0.56146 0.77536 0.59974 0.0
H592 H 0.50682 0.71506 0.69684 0.0
H593 H 0.55445 0.72333 0.67616 0.0
H594 H 0.51339 0.7496 0.59984 0.0
H595 H 0.46607 0.74125 0.6205 0.0
C596 C 0.60357 0.70291 0.60443 0.0
C597 C 0.60991 0.72261 0.58314 0.0
C598 C 0.58165 0.70887 0.62343 0.0
C599 C 0.56547 0.73453 0.62138 0.0
C600 C 0.57346 0.75532 0.60162 0.0
C601 C 0.59565 0.74951 0.58278 0.0
C602 C 0.5081 0.72365 0.67601 0.0
C603 C 0.48295 0.72737 0.66011 0.0
C604 C 0.53528 0.7282 0.66415 0.0
C605 C 0.53762 0.73689 0.63635 0.0
C606 C 0.51231 0.74317 0.62138 0.0
C607 C 0.48522 0.73826 0.63311 0.0
H608 H 0.764 0.1338 0.0696 0.0
H609 H 0.85701 0.13012 0.07761 0.0
H610 H 0.75932 0.10105 0.10918 0.0
H611 H 0.85244 0.09706 0.11587 0.0
H612 H 0.84349 0.04472 0.18963 0.0
H613 H 0.83912 0.08871 0.16201 0.0
H614 H 0.76779 0.05049 0.11702 0.0
H615 H 0.77141 0.00723 0.14575 0.0
C616 C 0.78339 0.12632 0.07995 0.0
C617 C 0.81086 0.13428 0.07016 0.0
C618 C 0.78073 0.10744 0.10251 0.0
C619 C 0.80549 0.09627 0.11571 0.0
C620 C 0.83282 0.10548 0.10666 0.0
C621 C 0.83546 0.12426 0.08433 0.0
C622 C 0.82645 0.04618 0.17429 0.0
C623 C 0.80796 0.02266 0.16954 0.0
C624 C 0.82401 0.07123 0.15835 0.0
C625 C 0.80351 0.07294 0.13684 0.0
C626 C 0.78369 0.05009 0.13348 0.0
C627 C 0.78581 0.02523 0.14982 0.0
H628 H 0.43209 0.33632 0.50335 0.0
H629 H 0.40904 0.25484 0.54136 0.0
H630 H 0.47638 0.33749 0.53026 0.0
H631 H 0.45326 0.25646 0.56892 0.0
H632 H 0.53639 0.34861 0.60243 0.0
H633 H 0.4909 0.34475 0.57743 0.0
H634 H 0.50579 0.25322 0.56535 0.0
H635 H 0.55133 0.25712 0.59105 0.0
C636 C 0.43636 0.3187 0.51755 0.0
C637 C 0.41688 0.29555 0.52024 0.0
C638 C 0.46173 0.31946 0.53313 0.0
C639 C 0.46823 0.29721 0.55196 0.0
C640 C 0.44898 0.27383 0.55445 0.0
C641 C 0.42358 0.27299 0.53873 0.0
C642 C 0.52991 0.32766 0.59444 0.0
C643 C 0.5475 0.30322 0.59835 0.0
C644 C 0.50392 0.32545 0.58004 0.0
C645 C 0.49493 0.29878 0.56899 0.0
C646 C 0.51205 0.27406 0.57371 0.0
C647 C 0.53809 0.27626 0.58836 0.0
H648 H 0.71289 0.61661 0.42604 0.0
H649 H 0.6474 0.57889 0.47865 0.0
H650 H 0.70966 0.5745 0.39517 0.0
H651 H 0.64418 0.53749 0.448 0.0
H652 H 0.66212 0.45465 0.40476 0.0
H653 H 0.6744 0.49582 0.43406 0.0
H654 H 0.67256 0.552 0.36269 0.0
H655 H 0.66024 0.51059 0.33321 0.0
C656 C 0.69793 0.59938 0.43108 0.0
C657 C 0.68041 0.60117 0.45484 0.0
C658 C 0.69602 0.57538 0.41336 0.0
C659 C 0.67686 0.55261 0.41932 0.0
C660 C 0.65952 0.55443 0.44309 0.0
C661 C 0.66122 0.57836 0.46057 0.0
C662 C 0.66454 0.47574 0.39528 0.0
C663 C 0.65972 0.47951 0.3668 0.0
C664 C 0.6716 0.4993 0.41204 0.0
C665 C 0.67397 0.52719 0.40072 0.0
C666 C 0.67096 0.53073 0.37195 0.0
C667 C 0.66389 0.50705 0.35511 0.0
H668 H 0.91324 0.16441 0.92624 0.0
H669 H 0.9111 0.25796 0.92528 0.0
H670 H 0.95157 0.16465 0.89224 0.0
H671 H 0.94975 0.25814 0.89051 0.0
H672 H 0.00776 0.16689 0.82027 0.0
H673 H 0.96221 0.17586 0.84417 0.0
H674 H 0.00232 0.24512 0.89056 0.0
H675 H 0.04779 0.23649 0.86593 0.0
C676 C 0.92076 0.18509 0.91854 0.0
C677 C 0.90927 0.21118 0.92867 0.0
C678 C 0.94258 0.18521 0.89876 0.0
C679 C 0.95361 0.21143 0.88854 0.0
C680 C 0.9417 0.23762 0.89809 0.0
C681 C 0.91954 0.2375 0.91786 0.0
C682 C 0.00656 0.18446 0.83511 0.0
C683 C 0.03123 0.20076 0.84162 0.0
C684 C 0.98059 0.18956 0.84885 0.0
C685 C 0.97886 0.2108 0.86964 0.0
C686 C 0.00295 0.22867 0.87457 0.0
C687 C 0.02897 0.22371 0.86057 0.0
H688 H 0.23387 0.37627 0.44024 0.0
H689 H 0.31094 0.37247 0.38986 0.0
H690 H 0.21654 0.4173 0.41305 0.0
H691 H 0.29375 0.41342 0.36298 0.0
H692 H 0.25944 0.48587 0.31516 0.0
H693 H 0.25771 0.43602 0.3319 0.0
H694 H 0.23663 0.46715 0.41383 0.0
H695 H 0.23786 0.51681 0.39697 0.0
C696 C 0.24673 0.38361 0.42289 0.0
C697 C 0.27405 0.37147 0.41753 0.0
C698 C 0.23684 0.40719 0.40741 0.0
C699 C 0.25393 0.41881 0.38611 0.0
C700 C 0.27996 0.40491 0.37914 0.0
C701 C 0.28995 0.38155 0.39472 0.0
C702 C 0.25337 0.48197 0.33649 0.0
C703 C 0.24915 0.50518 0.35489 0.0
C704 C 0.2526 0.45345 0.34611 0.0
C705 C 0.24741 0.44769 0.37424 0.0
C706 C 0.24052 0.47082 0.39201 0.0
C707 C 0.24146 0.49929 0.38243 0.0
H708 H 0.07422 0.72096 0.96509 0.0
H709 H 0.09647 0.79032 0.90916 0.0
H710 H 0.03166 0.70984 0.93676 0.0
H711 H 0.05434 0.77919 0.88097 0.0
H712 H 0.98223 0.75213 0.82884 0.0
H713 H 0.02868 0.74304 0.85112 0.0
H714 H 0.98656 0.7405 0.93083 0.0
H715 H 0.93999 0.74906 0.9085 0.0
C716 C 0.07049 0.73324 0.94634 0.0
C717 C 0.08842 0.7567 0.93944 0.0
C718 C 0.0461 0.72697 0.93024 0.0
C719 C 0.03965 0.74372 0.90675 0.0
C720 C 0.05888 0.7657 0.89878 0.0
C721 C 0.0829 0.77224 0.91504 0.0
C722 C 0.98272 0.74856 0.851 0.0
C723 C 0.95754 0.75168 0.867 0.0
C724 C 0.00934 0.74356 0.86375 0.0
C725 C 0.01126 0.74143 0.89271 0.0
C726 C 0.98574 0.74191 0.90846 0.0
C727 C 0.95912 0.74708 0.89572 0.0
H728 H 0.85768 0.10895 0.92935 0.0
H729 H 0.76975 0.09926 0.95798 0.0
H730 H 0.85375 0.06338 0.90408 0.0
H731 H 0.766 0.05336 0.93276 0.0
H732 H 0.79611 0.95548 0.9206 0.0
H733 H 0.79189 0.00429 0.93993 0.0
H734 H 0.82573 0.04 0.86403 0.0
H735 H 0.82993 0.9912 0.84469 0.0
C736 C 0.83742 0.09722 0.93002 0.0
C737 C 0.81408 0.10761 0.94577 0.0
C738 C 0.83512 0.07124 0.9154 0.0
C739 C 0.80959 0.05487 0.91653 0.0
C740 C 0.78596 0.06555 0.93167 0.0
C741 C 0.78808 0.09185 0.94596 0.0
C742 C 0.80225 0.97382 0.90795 0.0
C743 C 0.81345 0.96961 0.88122 0.0
C744 C 0.79965 0.00171 0.91892 0.0
C745 C 0.80859 0.02586 0.90348 0.0
C746 C 0.81882 0.02172 0.87639 0.0
C747 C 0.82104 0.99386 0.86528 0.0
H748 H 0.39668 0.22996 0.41902 0.0
H749 H 0.36675 0.30744 0.37806 0.0
H750 H 0.43278 0.223 0.38262 0.0
H751 H 0.4027 0.30067 0.34203 0.0
H752 H 0.46965 0.28778 0.27968 0.0
H753 H 0.42558 0.2732 0.30403 0.0
H754 H 0.4763 0.25351 0.37679 0.0
H755 H 0.52003 0.26774 0.3524 0.0
C756 C 0.39713 0.24492 0.40177 0.0
C757 C 0.3793 0.26955 0.40163 0.0
C758 C 0.41789 0.24102 0.38102 0.0
C759 C 0.42088 0.2615 0.35967 0.0
C760 C 0.40093 0.28439 0.35806 0.0
C761 C 0.38045 0.28843 0.37887 0.0
C762 C 0.47137 0.27933 0.30053 0.0
C763 C 0.49808 0.27921 0.31436 0.0
C764 C 0.44618 0.27114 0.31451 0.0
C765 C 0.44741 0.26249 0.34242 0.0
C766 C 0.47456 0.25982 0.35526 0.0
C767 C 0.49962 0.26821 0.34139 0.0
H768 H 0.23136 0.86668 0.92618 0.0
H769 H 0.13879 0.86869 0.91426 0.0
H770 H 0.2369 0.90425 0.89092 0.0
H771 H 0.14418 0.90634 0.88001 0.0
H772 H 0.15454 0.96912 0.81487 0.0
H773 H 0.16027 0.92132 0.83571 0.0
H774 H 0.22624 0.95556 0.89014 0.0
H775 H 0.22123 0.00294 0.8682 0.0
C776 C 0.21227 0.87474 0.91574 0.0
C777 C 0.1846 0.86497 0.92332 0.0
C778 C 0.21543 0.89638 0.89566 0.0
C779 C 0.19101 0.90847 0.8827 0.0
C780 C 0.16356 0.89734 0.88918 0.0
C781 C 0.16042 0.87588 0.90915 0.0
C782 C 0.17094 0.96599 0.83062 0.0
C783 C 0.18737 0.98946 0.84013 0.0
C784 C 0.17409 0.93877 0.84272 0.0
C785 C 0.19325 0.93473 0.86504 0.0
C786 C 0.21141 0.95779 0.87292 0.0
C787 C 0.20853 0.98495 0.86046 0.0
H788 H 0.58605 0.64837 0.4533 0.0
H789 H 0.56616 0.73746 0.47247 0.0
H790 H 0.53991 0.64333 0.42978 0.0
H791 H 0.51899 0.73212 0.45011 0.0
H792 H 0.44309 0.71691 0.39036 0.0
H793 H 0.49154 0.72518 0.40875 0.0
H794 H 0.49172 0.63883 0.44314 0.0
H795 H 0.44482 0.62982 0.42304 0.0
C796 C 0.5717 0.66689 0.45247 0.0
C797 C 0.5795 0.69321 0.46491 0.0
C798 C 0.54512 0.66398 0.43918 0.0
C799 C 0.52534 0.68711 0.43858 0.0
C800 C 0.53369 0.71388 0.45006 0.0
C801 C 0.56065 0.71695 0.46294 0.0
C802 C 0.45364 0.69959 0.40156 0.0
C803 C 0.43988 0.67268 0.40517 0.0
C804 C 0.48132 0.70446 0.41239 0.0
C805 C 0.49576 0.6826 0.42722 0.0
C806 C 0.48166 0.656 0.4313 0.0
C807 C 0.45432 0.65102 0.42021 0.0
H808 H 0.35769 0.40781 0.51455 0.0
H809 H 0.27903 0.38249 0.55632 0.0
H810 H 0.36149 0.44983 0.54413 0.0
H811 H 0.28337 0.42476 0.58674 0.0
H812 H 0.28754 0.52384 0.61092 0.0
H813 H 0.28065 0.47816 0.58573 0.0
H814 H 0.37239 0.46138 0.59129 0.0
H815 H 0.37917 0.5071 0.61548 0.0
C816 C 0.34128 0.41101 0.53024 0.0
C817 C 0.31809 0.39159 0.53307 0.0
C818 C 0.34359 0.43512 0.54738 0.0
C819 C 0.32293 0.44049 0.56805 0.0
C820 C 0.29958 0.42125 0.57092 0.0
C821 C 0.29718 0.39699 0.55359 0.0
C822 C 0.30606 0.51011 0.60693 0.0
C823 C 0.33393 0.51909 0.6146 0.0
C824 C 0.30215 0.48397 0.59264 0.0
C825 C 0.32606 0.46639 0.58608 0.0
C826 C 0.35363 0.47477 0.59532 0.0
C827 C 0.35754 0.50089 0.60924 0.0
H828 H 0.11775 0.77624 0.09529 0.0
H829 H 0.05119 0.78845 0.03376 0.0
H830 H 0.0819 0.78434 0.13216 0.0
H831 H 0.01549 0.79569 0.07024 0.0
H832 H 0.95377 0.79213 0.14083 0.0
H833 H 0.9916 0.76987 0.1126 0.0
H834 H 0.05285 0.83317 0.14229 0.0
H835 H 0.01496 0.85557 0.17049 0.0
C836 C 0.09533 0.77977 0.08976 0.0
C837 C 0.08706 0.78179 0.06186 0.0
C838 C 0.07495 0.78452 0.11074 0.0
C839 C 0.046 0.79054 0.10396 0.0
C840 C 0.03758 0.79075 0.07603 0.0
C841 C 0.05798 0.78675 0.05518 0.0
C842 C 0.9755 0.80078 0.14192 0.0
C843 C 0.98144 0.82571 0.15763 0.0
C844 C 0.99707 0.78811 0.12573 0.0
C845 C 0.02503 0.79988 0.12528 0.0
C846 C 0.0315 0.82354 0.14249 0.0
C847 C 0.00982 0.83649 0.15839 0.0
H848 H 0.68272 0.61741 0.59745 0.0
H849 H 0.76048 0.61708 0.54789 0.0
H850 H 0.69872 0.57362 0.62059 0.0
H851 H 0.77658 0.57326 0.57135 0.0
H852 H 0.72776 0.49293 0.65804 0.0
H853 H 0.73306 0.54469 0.6487 0.0
H854 H 0.75401 0.52527 0.56349 0.0
H855 H 0.749 0.47379 0.57296 0.0
C856 C 0.70367 0.60855 0.59211 0.0
C857 C 0.71991 0.62031 0.57027 0.0
C858 C 0.71299 0.58351 0.60557 0.0
C859 C 0.73868 0.56969 0.59741 0.0
C860 C 0.75647 0.58323 0.57775 0.0
C861 C 0.74724 0.60841 0.56438 0.0
C862 C 0.73459 0.49976 0.63761 0.0
C863 C 0.7376 0.47951 0.61608 0.0
C864 C 0.73745 0.52936 0.63224 0.0
C865 C 0.74361 0.53907 0.60531 0.0
C866 C 0.74945 0.51855 0.58451 0.0
C867 C 0.74635 0.48905 0.58983 0.0
H868 H 0.91876 0.27425 0.03319 0.0
H869 H 0.8971 0.19841 0.08102 0.0
H870 H 0.95876 0.28466 0.06514 0.0
H871 H 0.93647 0.20893 0.1129 0.0
H872 H 0.05016 0.24511 0.09664 0.0
H873 H 0.00523 0.25459 0.07166 0.0
H874 H 0.95715 0.2447 0.14763 0.0
H875 H 0.00201 0.23494 0.17255 0.0
C876 C 0.92205 0.26033 0.05095 0.0
C877 C 0.90512 0.23539 0.05456 0.0
C878 C 0.94492 0.26623 0.06912 0.0
C879 C 0.95067 0.24762 0.09147 0.0
C880 C 0.93236 0.22387 0.09607 0.0
C881 C 0.90997 0.21769 0.07769 0.0
C882 C 0.03006 0.24583 0.10811 0.0
C883 C 0.0295 0.2389 0.13642 0.0
C884 C 0.00438 0.25148 0.09387 0.0
C885 C 0.97772 0.25004 0.1077 0.0
C886 C 0.97743 0.24573 0.13648 0.0
C887 C 0.00313 0.24033 0.15076 0.0
H888 H 0.25804 0.78907 0.07123 0.0
H889 H 0.20205 0.7142 0.07491 0.0
H890 H 0.28378 0.77185 0.11218 0.0
H891 H 0.22738 0.69748 0.11588 0.0
H892 H 0.29371 0.66008 0.17315 0.0
H893 H 0.27406 0.67797 0.12957 0.0
H894 H 0.27498 0.76518 0.16205 0.0
H895 H 0.2949 0.74722 0.20564 0.0
C896 C 0.25119 0.76899 0.08072 0.0
C897 C 0.22796 0.75303 0.06971 0.0
C898 C 0.26589 0.75921 0.10424 0.0
C899 C 0.25771 0.73324 0.11716 0.0
C900 C 0.23455 0.7173 0.10611 0.0
C901 C 0.21988 0.72705 0.0827 0.0
C902 C 0.28984 0.68309 0.1709 0.0
C903 C 0.29553 0.70223 0.19286 0.0
C904 C 0.27855 0.69333 0.14599 0.0
C905 C 0.27261 0.72294 0.14251 0.0
C906 C 0.27951 0.74227 0.16403 0.0
C907 C 0.2909 0.73201 0.18898 0.0
H908 H 0.77431 0.72523 0.55292 0.0
H909 H 0.70958 0.79286 0.55363 0.0
H910 H 0.79834 0.74802 0.59214 0.0
H911 H 0.73369 0.81541 0.59303 0.0
H912 H 0.79604 0.85626 0.65653 0.0
H913 H 0.77933 0.8392 0.61125 0.0
H914 H 0.78085 0.75118 0.64115 0.0
H915 H 0.79663 0.76803 0.6863 0.0
C916 C 0.76547 0.74523 0.56104 0.0
C917 C 0.73969 0.75692 0.55036 0.0
C918 C 0.7792 0.75819 0.5836 0.0
C919 C 0.7676 0.7832 0.59587 0.0
C920 C 0.74313 0.79616 0.58394 0.0
C921 C 0.72926 0.78312 0.56143 0.0
C922 C 0.79267 0.83329 0.65346 0.0
C923 C 0.79781 0.81352 0.67506 0.0
C924 C 0.78327 0.82355 0.62751 0.0
C925 C 0.77912 0.79386 0.62262 0.0
C926 C 0.78451 0.77414 0.64411 0.0
C927 C 0.79359 0.78384 0.67002 0.0
H928 H 0.73092 0.23637 0.04807 0.0
H929 H 0.79839 0.30113 0.0465 0.0
H930 H 0.70482 0.26466 0.08234 0.0
H931 H 0.77185 0.32968 0.08056 0.0
H932 H 0.73456 0.34767 0.16848 0.0
H933 H 0.75983 0.32527 0.12978 0.0
H934 H 0.6782 0.30985 0.08885 0.0
H935 H 0.65286 0.33234 0.12763 0.0
C936 C 0.7401 0.25676 0.05481 0.0
C937 C 0.76689 0.26635 0.04459 0.0
C938 C 0.72498 0.2731 0.07434 0.0
C939 C 0.73625 0.29942 0.08416 0.0
C940 C 0.76275 0.30933 0.07359 0.0
C941 C 0.77789 0.293 0.05399 0.0
C942 C 0.72203 0.34006 0.15097 0.0
C943 C 0.69169 0.34165 0.15119 0.0
C944 C 0.73653 0.3272 0.12879 0.0
C945 C 0.72101 0.31562 0.10634 0.0
C946 C 0.69073 0.31814 0.10608 0.0
C947 C 0.67623 0.33102 0.12827 0.0
H948 H 0.31876 0.21984 0.56547 0.0
H949 H 0.26009 0.29182 0.57681 0.0
H950 H 0.30606 0.20177 0.61134 0.0
H951 H 0.24797 0.27404 0.62265 0.0
H952 H 0.20371 0.21123 0.68212 0.0
H953 H 0.22071 0.23261 0.63936 0.0
H954 H 0.30874 0.21194 0.66175 0.0
H955 H 0.2916 0.19045 0.70508 0.0
C956 C 0.30339 0.23197 0.5778 0.0
C957 C 0.29015 0.25707 0.56727 0.0
C958 C 0.29629 0.2217 0.60416 0.0
C959 C 0.27585 0.23636 0.62049 0.0
C960 C 0.26341 0.26198 0.61034 0.0
C961 C 0.27042 0.27219 0.58405 0.0
C962 C 0.22677 0.21175 0.67831 0.0
C963 C 0.24634 0.19942 0.69719 0.0
C964 C 0.23651 0.22398 0.65371 0.0
C965 C 0.26608 0.22415 0.64726 0.0
C966 C 0.28579 0.21192 0.66611 0.0
C967 C 0.276 0.19967 0.69088 0.0
H968 H 0.67625 0.77354 0.42316 0.0
H969 H 0.7401 0.70568 0.41467 0.0
H970 H 0.69103 0.79335 0.37853 0.0
H971 H 0.75503 0.72574 0.37053 0.0
H972 H 0.7647 0.75627 0.28325 0.0
H973 H 0.73974 0.73453 0.32261 0.0
H974 H 0.7347 0.81836 0.36207 0.0
H975 H 0.75962 0.84002 0.32296 0.0
C976 C 0.69327 0.76274 0.41175 0.0
C977 C 0.70717 0.73818 0.42266 0.0
C978 C 0.70177 0.77414 0.38624 0.0
C979 C 0.72419 0.76112 0.37106 0.0
C980 C 0.73741 0.73605 0.38154 0.0
C981 C 0.72902 0.72472 0.40703 0.0
C982 C 0.75801 0.77005 0.30025 0.0
C983 C 0.76432 0.7998 0.3001 0.0
C984 C 0.74373 0.75763 0.32274 0.0
C985 C 0.73547 0.77471 0.3455 0.0
C986 C 0.74046 0.80468 0.3447 0.0
C987 C 0.75476 0.81709 0.32225 0.0
H988 H 0.74147 0.20607 0.91556 0.0
H989 H 0.80675 0.27277 0.90899 0.0
H990 H 0.72459 0.21789 0.86881 0.0
H991 H 0.78986 0.28433 0.86282 0.0
H992 H 0.77725 0.27639 0.77158 0.0
H993 H 0.79082 0.25839 0.81717 0.0
H994 H 0.70135 0.2604 0.84247 0.0
H995 H 0.68769 0.27866 0.79668 0.0
C996 C 0.75209 0.22331 0.90431 0.0
C997 C 0.77559 0.23835 0.91604 0.0
C998 C 0.7424 0.23005 0.8776 0.0
C999 C 0.75623 0.25169 0.8621 0.0
C1000 C 0.77918 0.26712 0.87408 0.0
C1001 C 0.7887 0.2606 0.90069 0.0
C1002 C 0.76045 0.27279 0.7868 0.0
C1003 C 0.73149 0.27938 0.78077 0.0
C1004 C 0.7682 0.2625 0.81286 0.0
C1005 C 0.74718 0.25852 0.83345 0.0
C1006 C 0.71797 0.26327 0.82693 0.0
C1007 C 0.71017 0.27367 0.80075 0.0
H1008 H 0.22084 0.26861 0.43402 0.0
H1009 H 0.27704 0.19514 0.44736 0.0
H1010 H 0.19422 0.24122 0.39928 0.0
H1011 H 0.24989 0.16751 0.41319 0.0
H1012 H 0.22823 0.1512 0.32103 0.0
H1013 H 0.24807 0.17098 0.36354 0.0
H1014 H 0.1631 0.20071 0.38752 0.0
H1015 H 0.14317 0.1809 0.34458 0.0
C1016 C 0.22708 0.24639 0.43005 0.0
C1017 C 0.25138 0.23423 0.44311 0.0
C1018 C 0.21171 0.23061 0.41021 0.0
C1019 C 0.22021 0.20231 0.40319 0.0
C1020 C 0.24322 0.1895 0.41769 0.0
C1021 C 0.25871 0.20531 0.43734 0.0
C1022 C 0.21362 0.16133 0.33564 0.0
C1023 C 0.18415 0.16455 0.32942 0.0
C1024 C 0.225 0.17266 0.36009 0.0
C1025 C 0.20716 0.18744 0.37895 0.0
C1026 C 0.17745 0.18976 0.37323 0.0
C1027 C 0.16606 0.17843 0.34868 0.0
H1028 H 0.19203 0.69778 0.9382 0.0
H1029 H 0.26113 0.76082 0.93761 0.0
H1030 H 0.21433 0.67292 0.89911 0.0
H1031 H 0.28295 0.73628 0.89835 0.0
H1032 H 0.32793 0.67384 0.84125 0.0
H1033 H 0.30722 0.69184 0.88438 0.0
H1034 H 0.2215 0.68314 0.84976 0.0
H1035 H 0.24225 0.66502 0.80666 0.0
C1036 C 0.21205 0.70624 0.92992 0.0
C1037 C 0.22469 0.73142 0.94103 0.0
C1038 C 0.22472 0.69207 0.90741 0.0
C1039 C 0.25033 0.70269 0.89558 0.0
C1040 C 0.2634 0.72733 0.90719 0.0
C1041 C 0.25075 0.74152 0.92963 0.0
C1042 C 0.30466 0.67572 0.8429 0.0
C1043 C 0.28671 0.66827 0.82051 0.0
C1044 C 0.29281 0.68601 0.86758 0.0
C1045 C 0.26275 0.68911 0.87041 0.0
C1046 C 0.24473 0.68069 0.84835 0.0
C1047 C 0.2566 0.67034 0.82365 0.0
loop_
_geom_bond_atom_site_label_1
_geom_bond_atom_site_label_2
_geom_bond_distance
_geom_bond_site_symmetry_2
_ccdc_geom_bond_type
Sc0 O3 2.025 . S
Sc0 O10 2.105 1_554 S
Sc0 O13 2.105 . S
Sc0 O16 2.105 . S
Sc0 O19 2.105 1_554 S
Sc1 O3 2.025 . S
Sc1 O11 2.105 1_554 S
Sc1 O15 2.105 . S
Sc1 O17 2.105 . S
Sc1 O21 2.105 1_554 S
Sc2 O3 2.025 . S
Sc2 O12 2.105 1_554 S
Sc2 O14 2.105 . S
Sc2 O18 2.105 . S
Sc2 O20 2.105 1_554 S
O3 Sc0 2.025 . S
O3 Sc1 2.025 . S
O3 Sc2 2.025 . S
C4 O10 1.268 . S
C4 O20 1.268 . S
C5 O11 1.268 . S
C5 O19 1.268 . S
C6 O12 1.268 . S
C6 O21 1.268 . S
C7 O13 1.268 . S
C7 O17 1.268 . S
C8 O14 1.268 . S
C8 O16 1.268 . S
C9 O15 1.268 . S
C9 O18 1.268 . S
O10 Sc0 2.105 1_556 S
O10 C4 1.268 . S
O11 Sc1 2.105 1_556 S
O11 C5 1.268 . S
O12 Sc2 2.105 1_556 S
O12 C6 1.268 . S
O13 Sc0 2.105 . S
O13 C7 1.268 . S
O14 Sc2 2.105 . S
O14 C8 1.268 . S
O15 Sc1 2.105 . S
O15 C9 1.268 . S
O16 Sc0 2.105 . S
O16 C8 1.268 . S
O17 Sc1 2.105 . S
O17 C7 1.268 . S
O18 Sc2 2.105 . S
O18 C9 1.268 . S
O19 Sc0 2.105 1_556 S
O19 C5 1.268 . S
O20 Sc2 2.105 1_556 S
O20 C4 1.268 . S
O21 Sc1 2.105 1_556 S
O21 C6 1.268 . S
Sc22 O25 2.025 . S
Sc22 O32 2.105 . S
Sc22 O35 2.105 . S
Sc22 O38 2.105 . S
Sc22 O41 2.105 . S
Sc23 O25 2.025 . S
Sc23 O33 2.105 . S
Sc23 O37 2.105 . S
Sc23 O39 2.105 . S
Sc23 O43 2.105 . S
Sc24 O25 2.025 . S
Sc24 O34 2.105 . S
Sc24 O36 2.105 . S
Sc24 O40 2.105 . S
Sc24 O42 2.105 . S
O25 Sc22 2.025 . S
O25 Sc23 2.025 . S
O25 Sc24 2.025 . S
C26 O32 1.268 . S
C26 O42 1.268 . S
C27 O33 1.268 . S
C27 O41 1.268 . S
C28 O34 1.268 . S
C28 O43 1.268 . S
C29 O35 1.268 . S
C29 O39 1.268 . S
C30 O36 1.268 . S
C30 O38 1.268 . S
C31 O37 1.268 . S
C31 O40 1.268 . S
O32 Sc22 2.105 . S
O32 C26 1.268 . S
O33 Sc23 2.105 . S
O33 C27 1.268 . S
O34 Sc24 2.105 . S
O34 C28 1.268 . S
O35 Sc22 2.105 . S
O35 C29 1.268 . S
O36 Sc24 2.105 . S
O36 C30 1.268 . S
O37 Sc23 2.105 . S
O37 C31 1.268 . S
O38 Sc22 2.105 . S
O38 C30 1.268 . S
O39 Sc23 2.105 . S
O39 C29 1.268 . S
O40 Sc24 2.105 . S
O40 C31 1.268 . S
O41 Sc22 2.105 . S
O41 C27 1.268 . S
O42 Sc24 2.105 . S
O42 C26 1.268 . S
O43 Sc23 2.105 . S
O43 C28 1.268 . S
Sc44 O47 2.025 . S
Sc44 O54 2.105 1_554 S
Sc44 O57 2.105 . S
Sc44 O60 2.105 . S
Sc44 O63 2.105 1_554 S
Sc45 O47 2.025 . S
Sc45 O55 2.105 1_554 S
Sc45 O59 2.105 . S
Sc45 O61 2.105 . S
Sc45 O65 2.105 1_554 S
Sc46 O47 2.025 . S
Sc46 O56 2.105 1_554 S
Sc46 O58 2.105 . S
Sc46 O62 2.105 . S
Sc46 O64 2.105 1_554 S
O47 Sc44 2.025 . S
O47 Sc45 2.025 . S
O47 Sc46 2.025 . S
C48 O54 1.268 . S
C48 O64 1.268 . S
C49 O55 1.268 . S
C49 O63 1.268 . S
C50 O56 1.268 . S
C50 O65 1.268 . S
C51 O57 1.268 . S
C51 O61 1.268 . S
C52 O58 1.268 . S
C52 O60 1.268 . S
C53 O59 1.268 . S
C53 O62 1.268 . S
O54 Sc44 2.105 1_556 S
O54 C48 1.268 . S
O55 Sc45 2.105 1_556 S
O55 C49 1.268 . S
O56 Sc46 2.105 1_556 S
O56 C50 1.268 . S
O57 Sc44 2.105 . S
O57 C51 1.268 . S
O58 Sc46 2.105 . S
O58 C52 1.268 . S
O59 Sc45 2.105 . S
O59 C53 1.268 . S
O60 Sc44 2.105 . S
O60 C52 1.268 . S
O61 Sc45 2.105 . S
O61 C51 1.268 . S
O62 Sc46 2.105 . S
O62 C53 1.268 . S
O63 Sc44 2.105 1_556 S
O63 C49 1.268 . S
O64 Sc46 2.105 1_556 S
O64 C48 1.268 . S
O65 Sc45 2.105 1_556 S
O65 C50 1.268 . S
Sc66 O69 2.025 . S
Sc66 O76 2.105 . S
Sc66 O79 2.105 . S
Sc66 O82 2.105 . S
Sc66 O85 2.105 . S
Sc67 O69 2.025 . S
Sc67 O77 2.105 . S
Sc67 O81 2.105 . S
Sc67 O83 2.105 . S
Sc67 O87 2.105 . S
Sc68 O69 2.025 . S
Sc68 O78 2.105 . S
Sc68 O80 2.105 . S
Sc68 O84 2.105 . S
Sc68 O86 2.105 . S
O69 Sc66 2.025 . S
O69 Sc67 2.025 . S
O69 Sc68 2.025 . S
C70 O76 1.268 . S
C70 O86 1.268 . S
C71 O77 1.268 . S
C71 O85 1.268 . S
C72 O78 1.268 . S
C72 O87 1.268 . S
C73 O79 1.268 . S
C73 O83 1.268 . S
C74 O80 1.268 . S
C74 O82 1.268 . S
C75 O81 1.268 . S
C75 O84 1.268 . S
O76 Sc66 2.105 . S
O76 C70 1.268 . S
O77 Sc67 2.105 . S
O77 C71 1.268 . S
O78 Sc68 2.105 . S
O78 C72 1.268 . S
O79 Sc66 2.105 . S
O79 C73 1.268 . S
O80 Sc68 2.105 . S
O80 C74 1.268 . S
O81 Sc67 2.105 . S
O81 C75 1.268 . S
O82 Sc66 2.105 . S
O82 C74 1.268 . S
O83 Sc67 2.105 . S
O83 C73 1.268 . S
O84 Sc68 2.105 . S
O84 C75 1.268 . S
O85 Sc66 2.105 . S
O85 C71 1.268 . S
O86 Sc68 2.105 . S
O86 C70 1.268 . S
O87 Sc67 2.105 . S
O87 C72 1.268 . S
C88 C89 1.391 . S
C88 C92 1.391 . S
C88 H130 0.948 . S
C89 C88 1.391 . S
C89 C90 1.391 . S
C90 C89 1.391 . S
C90 H146 0.947 . S
C90 C147 1.392 . S
C91 C92 1.391 . S
C91 C95 1.397 . S
C91 C147 1.419 . S
C92 C88 1.391 . S
C92 C91 1.391 . S
C92 C93 1.399 . S
C93 C92 1.399 . S
C93 C96 1.396 . S
C93 C105 1.453 . S
C93 C106 1.684 . S
H94 C118 0.948 . S
C95 C91 1.397 . S
C95 C96 1.394 . S
C95 C114 1.723 . S
C96 C93 1.396 . S
C96 C95 1.394 . S
C96 C126 1.723 . S
H97 C120 0.947 . S
H98 C121 0.948 . S
H99 C127 0.982 . S
H100 C128 0.979 . S
H101 C128 0.980 . S
H102 C128 0.983 . S
H103 C127 0.979 . S
H104 C127 0.977 . S
C105 C93 1.453 . S
C105 H134 0.982 . S
C105 H135 0.979 . S
C105 H136 0.977 . S
C106 C93 1.684 . S
C106 H131 0.979 . S
C106 H132 0.980 . S
C106 H133 0.983 . S
C107 C108 1.391 . S
C107 C112 1.391 . S
C107 H137 0.948 . S
C108 C107 1.391 . S
C108 C109 1.391 . S
C109 C108 1.391 . S
C109 C110 1.392 . S
C109 H138 0.947 . S
C110 C109 1.392 . S
C110 C111 1.419 . S
C110 H139 0.948 . S
C111 C110 1.419 . S
C111 C112 1.391 . S
C111 C115 1.397 . S
C112 C107 1.391 . S
C112 C111 1.391 . S
C112 C113 1.399 . S
C113 C112 1.399 . S
C113 C114 1.396 . S
C113 C116 1.453 . S
C113 C117 1.684 . S
C114 C95 1.723 . S
C114 C113 1.396 . S
C114 C115 1.394 . S
C115 C111 1.397 . S
C115 C114 1.394 . S
C115 C125 1.723 . S
C116 C113 1.453 . S
C116 H140 0.982 . S
C116 H141 0.979 . S
C116 H142 0.977 . S
C117 C113 1.684 . S
C117 H143 0.979 . S
C117 H144 0.980 . S
C117 H145 0.983 . S
C118 H94 0.948 . S
C118 C119 1.391 . S
C118 C123 1.391 . S
C119 C118 1.391 . S
C119 C120 1.391 . S
C120 H97 0.947 . S
C120 C119 1.391 . S
C120 C121 1.392 . S
C121 H98 0.948 . S
C121 C120 1.392 . S
C121 C122 1.419 . S
C122 C121 1.419 . S
C122 C123 1.391 . S
C122 C126 1.397 . S
C123 C118 1.391 . S
C123 C122 1.391 . S
C123 C124 1.399 . S
C124 C123 1.399 . S
C124 C125 1.396 . S
C124 C127 1.453 . S
C124 C128 1.684 . S
C125 C115 1.723 . S
C125 C124 1.396 . S
C125 C126 1.394 . S
C126 C96 1.723 . S
C126 C122 1.397 . S
C126 C125 1.394 . S
C127 H99 0.982 . S
C127 H103 0.979 . S
C127 H104 0.977 . S
C127 C124 1.453 . S
C128 H100 0.979 . S
C128 H101 0.980 . S
C128 H102 0.983 . S
C128 C124 1.684 . S
H129 C147 0.948 . S
H130 C88 0.948 . S
H131 C106 0.979 . S
H132 C106 0.980 . S
H133 C106 0.983 . S
H134 C105 0.982 . S
H135 C105 0.979 . S
H136 C105 0.977 . S
H137 C107 0.948 . S
H138 C109 0.947 . S
H139 C110 0.948 . S
H140 C116 0.982 . S
H141 C116 0.979 . S
H142 C116 0.977 . S
H143 C117 0.979 . S
H144 C117 0.980 . S
H145 C117 0.983 . S
H146 C90 0.947 . S
C147 C90 1.392 . S
C147 C91 1.419 . S
C147 H129 0.948 . S
C148 C149 1.391 . S
C148 C152 1.391 . S
C148 H190 0.948 . S
C149 C148 1.391 . S
C149 C150 1.391 . S
C150 C149 1.391 . S
C150 H206 0.947 . S
C150 C207 1.392 . S
C151 C152 1.391 . S
C151 C155 1.397 . S
C151 C207 1.419 . S
C152 C148 1.391 . S
C152 C151 1.391 . S
C152 C153 1.399 . S
C153 C152 1.399 . S
C153 C156 1.396 . S
C153 C165 1.453 . S
C153 C166 1.684 . S
H154 C178 0.948 . S
C155 C151 1.397 . S
C155 C156 1.394 . S
C155 C174 1.723 . S
C156 C153 1.396 . S
C156 C155 1.394 . S
C156 C186 1.723 . S
H157 C180 0.947 . S
H158 C181 0.948 . S
H159 C187 0.982 . S
H160 C188 0.979 . S
H161 C188 0.980 . S
H162 C188 0.983 . S
H163 C187 0.979 . S
H164 C187 0.977 . S
C165 C153 1.453 . S
C165 H194 0.982 . S
C165 H195 0.979 . S
C165 H196 0.977 . S
C166 C153 1.684 . S
C166 H191 0.979 . S
C166 H192 0.980 . S
C166 H193 0.983 . S
C167 C168 1.391 . S
C167 C172 1.391 . S
C167 H197 0.948 . S
C168 C167 1.391 . S
C168 C169 1.391 . S
C169 C168 1.391 . S
C169 C170 1.392 . S
C169 H198 0.947 . S
C170 C169 1.392 . S
C170 C171 1.419 . S
C170 H199 0.948 . S
C171 C170 1.419 . S
C171 C172 1.391 . S
C171 C175 1.397 . S
C172 C167 1.391 . S
C172 C171 1.391 . S
C172 C173 1.399 . S
C173 C172 1.399 . S
C173 C174 1.396 . S
C173 C176 1.453 . S
C173 C177 1.684 . S
C174 C155 1.723 . S
C174 C173 1.396 . S
C174 C175 1.394 . S
C175 C171 1.397 . S
C175 C174 1.394 . S
C175 C185 1.723 . S
C176 C173 1.453 . S
C176 H200 0.982 . S
C176 H201 0.979 . S
C176 H202 0.977 . S
C177 C173 1.684 . S
C177 H203 0.979 . S
C177 H204 0.980 . S
C177 H205 0.983 . S
C178 H154 0.948 . S
C178 C179 1.391 . S
C178 C183 1.391 . S
C179 C178 1.391 . S
C179 C180 1.391 . S
C180 H157 0.947 . S
C180 C179 1.391 . S
C180 C181 1.392 . S
C181 H158 0.948 . S
C181 C180 1.392 . S
C181 C182 1.419 . S
C182 C181 1.419 . S
C182 C183 1.391 . S
C182 C186 1.397 . S
C183 C178 1.391 . S
C183 C182 1.391 . S
C183 C184 1.399 . S
C184 C183 1.399 . S
C184 C185 1.396 . S
C184 C187 1.453 . S
C184 C188 1.684 . S
C185 C175 1.723 . S
C185 C184 1.396 . S
C185 C186 1.394 . S
C186 C156 1.723 . S
C186 C182 1.397 . S
C186 C185 1.394 . S
C187 H159 0.982 . S
C187 H163 0.979 . S
C187 H164 0.977 . S
C187 C184 1.453 . S
C188 H160 0.979 . S
C188 H161 0.980 . S
C188 H162 0.983 . S
C188 C184 1.684 . S
H189 C207 0.948 . S
H190 C148 0.948 . S
H191 C166 0.979 . S
H192 C166 0.980 . S
H193 C166 0.983 . S
H194 C165 0.982 . S
H195 C165 0.979 . S
H196 C165 0.977 . S
H197 C167 0.948 . S
H198 C169 0.947 . S
H199 C170 0.948 . S
H200 C176 0.982 . S
H201 C176 0.979 . S
H202 C176 0.977 . S
H203 C177 0.979 . S
H204 C177 0.980 . S
H205 C177 0.983 . S
H206 C150 0.947 . S
C207 C150 1.392 . S
C207 C151 1.419 . S
C207 H189 0.948 . S
C208 C209 1.391 . S
C208 C212 1.391 . S
C208 H250 0.948 . S
C209 C208 1.391 . S
C209 C210 1.391 . S
C210 C209 1.391 . S
C210 H266 0.947 . S
C210 C267 1.392 . S
C211 C212 1.391 . S
C211 C215 1.397 . S
C211 C267 1.419 . S
C212 C208 1.391 . S
C212 C211 1.391 . S
C212 C213 1.399 . S
C213 C212 1.399 . S
C213 C216 1.396 . S
C213 C225 1.453 . S
C213 C226 1.684 . S
H214 C238 0.948 . S
C215 C211 1.397 . S
C215 C216 1.394 . S
C215 C234 1.723 . S
C216 C213 1.396 . S
C216 C215 1.394 . S
C216 C246 1.723 . S
H217 C240 0.947 . S
H218 C241 0.948 . S
H219 C247 0.982 . S
H220 C248 0.979 . S
H221 C248 0.980 . S
H222 C248 0.983 . S
H223 C247 0.979 . S
H224 C247 0.977 . S
C225 C213 1.453 . S
C225 H254 0.982 . S
C225 H255 0.979 . S
C225 H256 0.977 . S
C226 C213 1.684 . S
C226 H251 0.979 . S
C226 H252 0.980 . S
C226 H253 0.983 . S
C227 C228 1.391 . S
C227 C232 1.391 . S
C227 H257 0.948 . S
C228 C227 1.391 . S
C228 C229 1.391 . S
C229 C228 1.391 . S
C229 C230 1.392 . S
C229 H258 0.947 . S
C230 C229 1.392 . S
C230 C231 1.419 . S
C230 H259 0.948 . S
C231 C230 1.419 . S
C231 C232 1.391 . S
C231 C235 1.397 . S
C232 C227 1.391 . S
C232 C231 1.391 . S
C232 C233 1.399 . S
C233 C232 1.399 . S
C233 C234 1.396 . S
C233 C236 1.453 . S
C233 C237 1.684 . S
C234 C215 1.723 . S
C234 C233 1.396 . S
C234 C235 1.394 . S
C235 C231 1.397 . S
C235 C234 1.394 . S
C235 C245 1.723 . S
C236 C233 1.453 . S
C236 H260 0.982 . S
C236 H261 0.979 . S
C236 H262 0.977 . S
C237 C233 1.684 . S
C237 H263 0.979 . S
C237 H264 0.980 . S
C237 H265 0.983 . S
C238 H214 0.948 . S
C238 C239 1.391 . S
C238 C243 1.391 . S
C239 C238 1.391 . S
C239 C240 1.391 . S
C240 H217 0.947 . S
C240 C239 1.391 . S
C240 C241 1.392 . S
C241 H218 0.948 . S
C241 C240 1.392 . S
C241 C242 1.419 . S
C242 C241 1.419 . S
C242 C243 1.391 . S
C242 C246 1.397 . S
C243 C238 1.391 . S
C243 C242 1.391 . S
C243 C244 1.399 . S
C244 C243 1.399 . S
C244 C245 1.396 . S
C244 C247 1.453 . S
C244 C248 1.684 . S
C245 C235 1.723 . S
C245 C244 1.396 . S
C245 C246 1.394 . S
C246 C216 1.723 . S
C246 C242 1.397 . S
C246 C245 1.394 . S
C247 H219 0.982 . S
C247 H223 0.979 . S
C247 H224 0.977 . S
C247 C244 1.453 . S
C248 H220 0.979 . S
C248 H221 0.980 . S
C248 H222 0.983 . S
C248 C244 1.684 . S
H249 C267 0.948 . S
H250 C208 0.948 . S
H251 C226 0.979 . S
H252 C226 0.980 . S
H253 C226 0.983 . S
H254 C225 0.982 . S
H255 C225 0.979 . S
H256 C225 0.977 . S
H257 C227 0.948 . S
H258 C229 0.947 . S
H259 C230 0.948 . S
H260 C236 0.982 . S
H261 C236 0.979 . S
H262 C236 0.977 . S
H263 C237 0.979 . S
H264 C237 0.980 . S
H265 C237 0.983 . S
H266 C210 0.947 . S
C267 C210 1.392 . S
C267 C211 1.419 . S
C267 H249 0.948 . S
C268 C269 1.391 . S
C268 C272 1.391 . S
C268 H310 0.948 . S
C269 C268 1.391 . S
C269 C270 1.391 . S
C270 C269 1.391 . S
C270 H326 0.947 . S
C270 C327 1.392 . S
C271 C272 1.391 . S
C271 C275 1.397 . S
C271 C327 1.419 . S
C272 C268 1.391 . S
C272 C271 1.391 . S
C272 C273 1.399 . S
C273 C272 1.399 . S
C273 C276 1.396 . S
C273 C285 1.453 . S
C273 C286 1.684 . S
H274 C298 0.948 . S
C275 C271 1.397 . S
C275 C276 1.394 . S
C275 C294 1.723 . S
C276 C273 1.396 . S
C276 C275 1.394 . S
C276 C306 1.723 . S
H277 C300 0.947 . S
H278 C301 0.948 . S
H279 C307 0.982 . S
H280 C308 0.979 . S
H281 C308 0.980 . S
H282 C308 0.983 . S
H283 C307 0.979 . S
H284 C307 0.977 . S
C285 C273 1.453 . S
C285 H314 0.982 . S
C285 H315 0.979 . S
C285 H316 0.977 . S
C286 C273 1.684 . S
C286 H311 0.979 . S
C286 H312 0.980 . S
C286 H313 0.983 . S
C287 C288 1.391 . S
C287 C292 1.391 . S
C287 H317 0.948 . S
C288 C287 1.391 . S
C288 C289 1.391 . S
C289 C288 1.391 . S
C289 C290 1.392 . S
C289 H318 0.947 . S
C290 C289 1.392 . S
C290 C291 1.419 . S
C290 H319 0.948 . S
C291 C290 1.419 . S
C291 C292 1.391 . S
C291 C295 1.397 . S
C292 C287 1.391 . S
C292 C291 1.391 . S
C292 C293 1.399 . S
C293 C292 1.399 . S
C293 C294 1.396 . S
C293 C296 1.453 . S
C293 C297 1.684 . S
C294 C275 1.723 . S
C294 C293 1.396 . S
C294 C295 1.394 . S
C295 C291 1.397 . S
C295 C294 1.394 . S
C295 C305 1.723 . S
C296 C293 1.453 . S
C296 H320 0.982 . S
C296 H321 0.979 . S
C296 H322 0.977 . S
C297 C293 1.684 . S
C297 H323 0.979 . S
C297 H324 0.980 . S
C297 H325 0.983 . S
C298 H274 0.948 . S
C298 C299 1.391 . S
C298 C303 1.391 . S
C299 C298 1.391 . S
C299 C300 1.391 . S
C300 H277 0.947 . S
C300 C299 1.391 . S
C300 C301 1.392 . S
C301 H278 0.948 . S
C301 C300 1.392 . S
C301 C302 1.419 . S
C302 C301 1.419 . S
C302 C303 1.391 . S
C302 C306 1.397 . S
C303 C298 1.391 . S
C303 C302 1.391 . S
C303 C304 1.399 . S
C304 C303 1.399 . S
C304 C305 1.396 . S
C304 C307 1.453 . S
C304 C308 1.684 . S
C305 C295 1.723 . S
C305 C304 1.396 . S
C305 C306 1.394 . S
C306 C276 1.723 . S
C306 C302 1.397 . S
C306 C305 1.394 . S
C307 H279 0.982 . S
C307 H283 0.979 . S
C307 H284 0.977 . S
C307 C304 1.453 . S
C308 H280 0.979 . S
C308 H281 0.980 . S
C308 H282 0.983 . S
C308 C304 1.684 . S
H309 C327 0.948 . S
H310 C268 0.948 . S
H311 C286 0.979 . S
H312 C286 0.980 . S
H313 C286 0.983 . S
H314 C285 0.982 . S
H315 C285 0.979 . S
H316 C285 0.977 . S
H317 C287 0.948 . S
H318 C289 0.947 . S
H319 C290 0.948 . S
H320 C296 0.982 . S
H321 C296 0.979 . S
H322 C296 0.977 . S
H323 C297 0.979 . S
H324 C297 0.980 . S
H325 C297 0.983 . S
H326 C270 0.947 . S
C327 C270 1.392 . S
C327 C271 1.419 . S
C327 H309 0.948 . S
C328 C329 1.391 . S
C328 C332 1.391 . S
C328 H370 0.948 . S
C329 C328 1.391 . S
C329 C330 1.391 . S
C330 C329 1.391 . S
C330 H386 0.947 . S
C330 C387 1.392 . S
C331 C332 1.391 . S
C331 C335 1.397 . S
C331 C387 1.419 . S
C332 C328 1.391 . S
C332 C331 1.391 . S
C332 C333 1.399 . S
C333 C332 1.399 . S
C333 C336 1.396 . S
C333 C345 1.453 . S
C333 C346 1.684 . S
H334 C358 0.948 . S
C335 C331 1.397 . S
C335 C336 1.394 . S
C335 C354 1.723 . S
C336 C333 1.396 . S
C336 C335 1.394 . S
C336 C366 1.723 . S
H337 C360 0.947 . S
H338 C361 0.948 . S
H339 C367 0.982 . S
H340 C368 0.979 . S
H341 C368 0.980 . S
H342 C368 0.983 . S
H343 C367 0.979 . S
H344 C367 0.977 . S
C345 C333 1.453 . S
C345 H374 0.982 . S
C345 H375 0.979 . S
C345 H376 0.977 . S
C346 C333 1.684 . S
C346 H371 0.979 . S
C346 H372 0.980 . S
C346 H373 0.983 . S
C347 C348 1.391 . S
C347 C352 1.391 . S
C347 H377 0.948 . S
C348 C347 1.391 . S
C348 C349 1.391 . S
C349 C348 1.391 . S
C349 C350 1.392 . S
C349 H378 0.947 . S
C350 C349 1.392 . S
C350 C351 1.419 . S
C350 H379 0.948 . S
C351 C350 1.419 . S
C351 C352 1.391 . S
C351 C355 1.397 . S
C352 C347 1.391 . S
C352 C351 1.391 . S
C352 C353 1.399 . S
C353 C352 1.399 . S
C353 C354 1.396 . S
C353 C356 1.453 . S
C353 C357 1.684 . S
C354 C335 1.723 . S
C354 C353 1.396 . S
C354 C355 1.394 . S
C355 C351 1.397 . S
C355 C354 1.394 . S
C355 C365 1.723 . S
C356 C353 1.453 . S
C356 H380 0.982 . S
C356 H381 0.979 . S
C356 H382 0.977 . S
C357 C353 1.684 . S
C357 H383 0.979 . S
C357 H384 0.980 . S
C357 H385 0.983 . S
C358 H334 0.948 . S
C358 C359 1.391 . S
C358 C363 1.391 . S
C359 C358 1.391 . S
C359 C360 1.391 . S
C360 H337 0.947 . S
C360 C359 1.391 . S
C360 C361 1.392 . S
C361 H338 0.948 . S
C361 C360 1.392 . S
C361 C362 1.419 . S
C362 C361 1.419 . S
C362 C363 1.391 . S
C362 C366 1.397 . S
C363 C358 1.391 . S
C363 C362 1.391 . S
C363 C364 1.399 . S
C364 C363 1.399 . S
C364 C365 1.396 . S
C364 C367 1.453 . S
C364 C368 1.684 . S
C365 C355 1.723 . S
C365 C364 1.396 . S
C365 C366 1.394 . S
C366 C336 1.723 . S
C366 C362 1.397 . S
C366 C365 1.394 . S
C367 H339 0.982 . S
C367 H343 0.979 . S
C367 H344 0.977 . S
C367 C364 1.453 . S
C368 H340 0.979 . S
C368 H341 0.980 . S
C368 H342 0.983 . S
C368 C364 1.684 . S
H369 C387 0.948 . S
H370 C328 0.948 . S
H371 C346 0.979 . S
H372 C346 0.980 . S
H373 C346 0.983 . S
H374 C345 0.982 . S
H375 C345 0.979 . S
H376 C345 0.977 . S
H377 C347 0.948 . S
H378 C349 0.947 . S
H379 C350 0.948 . S
H380 C356 0.982 . S
H381 C356 0.979 . S
H382 C356 0.977 . S
H383 C357 0.979 . S
H384 C357 0.980 . S
H385 C357 0.983 . S
H386 C330 0.947 . S
C387 C330 1.392 . S
C387 C331 1.419 . S
C387 H369 0.948 . S
C388 C389 1.391 . S
C388 C392 1.391 . S
C388 H430 0.948 . S
C389 C388 1.391 . S
C389 C390 1.391 . S
C390 C389 1.391 . S
C390 H446 0.947 . S
C390 C447 1.392 . S
C391 C392 1.391 . S
C391 C395 1.397 . S
C391 C447 1.419 . S
C392 C388 1.391 . S
C392 C391 1.391 . S
C392 C393 1.399 . S
C393 C392 1.399 . S
C393 C396 1.396 . S
C393 C405 1.453 . S
C393 C406 1.684 . S
H394 C418 0.948 . S
C395 C391 1.397 . S
C395 C396 1.394 . S
C395 C414 1.723 . S
C396 C393 1.396 . S
C396 C395 1.394 . S
C396 C426 1.723 . S
H397 C420 0.947 . S
H398 C421 0.948 . S
H399 C427 0.982 . S
H400 C428 0.979 . S
H401 C428 0.980 . S
H402 C428 0.983 . S
H403 C427 0.979 . S
H404 C427 0.977 . S
C405 C393 1.453 . S
C405 H434 0.982 . S
C405 H435 0.979 . S
C405 H436 0.977 . S
C406 C393 1.684 . S
C406 H431 0.979 . S
C406 H432 0.980 . S
C406 H433 0.983 . S
C407 C408 1.391 . S
C407 C412 1.391 . S
C407 H437 0.948 . S
C408 C407 1.391 . S
C408 C409 1.391 . S
C409 C408 1.391 . S
C409 C410 1.392 . S
C409 H438 0.947 . S
C410 C409 1.392 . S
C410 C411 1.419 . S
C410 H439 0.948 . S
C411 C410 1.419 . S
C411 C412 1.391 . S
C411 C415 1.397 . S
C412 C407 1.391 . S
C412 C411 1.391 . S
C412 C413 1.399 . S
C413 C412 1.399 . S
C413 C414 1.396 . S
C413 C416 1.453 . S
C413 C417 1.684 . S
C414 C395 1.723 . S
C414 C413 1.396 . S
C414 C415 1.394 . S
C415 C411 1.397 . S
C415 C414 1.394 . S
C415 C425 1.723 . S
C416 C413 1.453 . S
C416 H440 0.982 . S
C416 H441 0.979 . S
C416 H442 0.977 . S
C417 C413 1.684 . S
C417 H443 0.979 . S
C417 H444 0.980 . S
C417 H445 0.983 . S
C418 H394 0.948 . S
C418 C419 1.391 . S
C418 C423 1.391 . S
C419 C418 1.391 . S
C419 C420 1.391 . S
C420 H397 0.947 . S
C420 C419 1.391 . S
C420 C421 1.392 . S
C421 H398 0.948 . S
C421 C420 1.392 . S
C421 C422 1.419 . S
C422 C421 1.419 . S
C422 C423 1.391 . S
C422 C426 1.397 . S
C423 C418 1.391 . S
C423 C422 1.391 . S
C423 C424 1.399 . S
C424 C423 1.399 . S
C424 C425 1.396 . S
C424 C427 1.453 . S
C424 C428 1.684 . S
C425 C415 1.723 . S
C425 C424 1.396 . S
C425 C426 1.394 . S
C426 C396 1.723 . S
C426 C422 1.397 . S
C426 C425 1.394 . S
C427 H399 0.982 . S
C427 H403 0.979 . S
C427 H404 0.977 . S
C427 C424 1.453 . S
C428 H400 0.979 . S
C428 H401 0.980 . S
C428 H402 0.983 . S
C428 C424 1.684 . S
H429 C447 0.948 . S
H430 C388 0.948 . S
H431 C406 0.979 . S
H432 C406 0.980 . S
H433 C406 0.983 . S
H434 C405 0.982 . S
H435 C405 0.979 . S
H436 C405 0.977 . S
H437 C407 0.948 . S
H438 C409 0.947 . S
H439 C410 0.948 . S
H440 C416 0.982 . S
H441 C416 0.979 . S
H442 C416 0.977 . S
H443 C417 0.979 . S
H444 C417 0.980 . S
H445 C417 0.983 . S
H446 C390 0.947 . S
C447 C390 1.392 . S
C447 C391 1.419 . S
C447 H429 0.948 . S
C448 C449 1.391 . S
C448 C452 1.391 . S
C448 H490 0.948 . S
C449 C448 1.391 . S
C449 C450 1.391 . S
C450 C449 1.391 . S
C450 H506 0.947 . S
C450 C507 1.392 . S
C451 C452 1.391 . S
C451 C455 1.397 . S
C451 C507 1.419 . S
C452 C448 1.391 . S
C452 C451 1.391 . S
C452 C453 1.399 . S
C453 C452 1.399 . S
C453 C456 1.396 . S
C453 C465 1.453 . S
C453 C466 1.684 . S
H454 C478 0.948 . S
C455 C451 1.397 . S
C455 C456 1.394 . S
C455 C474 1.723 . S
C456 C453 1.396 . S
C456 C455 1.394 . S
C456 C486 1.723 . S
H457 C480 0.947 . S
H458 C481 0.948 . S
H459 C487 0.982 . S
H460 C488 0.979 . S
H461 C488 0.980 . S
H462 C488 0.983 . S
H463 C487 0.979 . S
H464 C487 0.977 . S
C465 C453 1.453 . S
C465 H494 0.982 . S
C465 H495 0.979 . S
C465 H496 0.977 . S
C466 C453 1.684 . S
C466 H491 0.979 . S
C466 H492 0.980 . S
C466 H493 0.983 . S
C467 C468 1.391 . S
C467 C472 1.391 . S
C467 H497 0.948 . S
C468 C467 1.391 . S
C468 C469 1.391 . S
C469 C468 1.391 . S
C469 C470 1.392 . S
C469 H498 0.947 . S
C470 C469 1.392 . S
C470 C471 1.419 . S
C470 H499 0.948 . S
C471 C470 1.419 . S
C471 C472 1.391 . S
C471 C475 1.397 . S
C472 C467 1.391 . S
C472 C471 1.391 . S
C472 C473 1.399 . S
C473 C472 1.399 . S
C473 C474 1.396 . S
C473 C476 1.453 . S
C473 C477 1.684 . S
C474 C455 1.723 . S
C474 C473 1.396 . S
C474 C475 1.394 . S
C475 C471 1.397 . S
C475 C474 1.394 . S
C475 C485 1.723 . S
C476 C473 1.453 . S
C476 H500 0.982 . S
C476 H501 0.979 . S
C476 H502 0.977 . S
C477 C473 1.684 . S
C477 H503 0.979 . S
C477 H504 0.980 . S
C477 H505 0.983 . S
C478 H454 0.948 . S
C478 C479 1.391 . S
C478 C483 1.391 . S
C479 C478 1.391 . S
C479 C480 1.391 . S
C480 H457 0.947 . S
C480 C479 1.391 . S
C480 C481 1.392 . S
C481 H458 0.948 . S
C481 C480 1.392 . S
C481 C482 1.419 . S
C482 C481 1.419 . S
C482 C483 1.391 . S
C482 C486 1.397 . S
C483 C478 1.391 . S
C483 C482 1.391 . S
C483 C484 1.399 . S
C484 C483 1.399 . S
C484 C485 1.396 . S
C484 C487 1.453 . S
C484 C488 1.684 . S
C485 C475 1.723 . S
C485 C484 1.396 . S
C485 C486 1.394 . S
C486 C456 1.723 . S
C486 C482 1.397 . S
C486 C485 1.394 . S
C487 H459 0.982 . S
C487 H463 0.979 . S
C487 H464 0.977 . S
C487 C484 1.453 . S
C488 H460 0.979 . S
C488 H461 0.980 . S
C488 H462 0.983 . S
C488 C484 1.684 . S
H489 C507 0.948 . S
H490 C448 0.948 . S
H491 C466 0.979 . S
H492 C466 0.980 . S
H493 C466 0.983 . S
H494 C465 0.982 . S
H495 C465 0.979 . S
H496 C465 0.977 . S
H497 C467 0.948 . S
H498 C469 0.947 . S
H499 C470 0.948 . S
H500 C476 0.982 . S
H501 C476 0.979 . S
H502 C476 0.977 . S
H503 C477 0.979 . S
H504 C477 0.980 . S
H505 C477 0.983 . S
H506 C450 0.947 . S
C507 C450 1.392 . S
C507 C451 1.419 . S
C507 H489 0.948 . S
C508 C509 1.391 . S
C508 C512 1.391 . S
C508 H550 0.948 . S
C509 C508 1.391 . S
C509 C510 1.391 . S
C510 C509 1.391 . S
C510 H566 0.947 . S
C510 C567 1.392 . S
C511 C512 1.391 . S
C511 C515 1.397 . S
C511 C567 1.419 . S
C512 C508 1.391 . S
C512 C511 1.391 . S
C512 C513 1.399 . S
C513 C512 1.399 . S
C513 C516 1.396 . S
C513 C525 1.453 . S
C513 C526 1.684 . S
H514 C538 0.948 . S
C515 C511 1.397 . S
C515 C516 1.394 . S
C515 C534 1.723 . S
C516 C513 1.396 . S
C516 C515 1.394 . S
C516 C546 1.723 . S
H517 C540 0.947 . S
H518 C541 0.948 . S
H519 C547 0.982 . S
H520 C548 0.979 . S
H521 C548 0.980 . S
H522 C548 0.983 . S
H523 C547 0.979 . S
H524 C547 0.977 . S
C525 C513 1.453 . S
C525 H554 0.982 . S
C525 H555 0.979 . S
C525 H556 0.977 . S
C526 C513 1.684 . S
C526 H551 0.979 . S
C526 H552 0.980 . S
C526 H553 0.983 . S
C527 C528 1.391 . S
C527 C532 1.391 . S
C527 H557 0.948 . S
C528 C527 1.391 . S
C528 C529 1.391 . S
C529 C528 1.391 . S
C529 C530 1.392 . S
C529 H558 0.947 . S
C530 C529 1.392 . S
C530 C531 1.419 . S
C530 H559 0.948 . S
C531 C530 1.419 . S
C531 C532 1.391 . S
C531 C535 1.397 . S
C532 C527 1.391 . S
C532 C531 1.391 . S
C532 C533 1.399 . S
C533 C532 1.399 . S
C533 C534 1.396 . S
C533 C536 1.453 . S
C533 C537 1.684 . S
C534 C515 1.723 . S
C534 C533 1.396 . S
C534 C535 1.394 . S
C535 C531 1.397 . S
C535 C534 1.394 . S
C535 C545 1.723 . S
C536 C533 1.453 . S
C536 H560 0.982 . S
C536 H561 0.979 . S
C536 H562 0.977 . S
C537 C533 1.684 . S
C537 H563 0.979 . S
C537 H564 0.980 . S
C537 H565 0.983 . S
C538 H514 0.948 . S
C538 C539 1.391 . S
C538 C543 1.391 . S
C539 C538 1.391 . S
C539 C540 1.391 . S
C540 H517 0.947 . S
C540 C539 1.391 . S
C540 C541 1.392 . S
C541 H518 0.948 . S
C541 C540 1.392 . S
C541 C542 1.419 . S
C542 C541 1.419 . S
C542 C543 1.391 . S
C542 C546 1.397 . S
C543 C538 1.391 . S
C543 C542 1.391 . S
C543 C544 1.399 . S
C544 C543 1.399 . S
C544 C545 1.396 . S
C544 C547 1.453 . S
C544 C548 1.684 . S
C545 C535 1.723 . S
C545 C544 1.396 . S
C545 C546 1.394 . S
C546 C516 1.723 . S
C546 C542 1.397 . S
C546 C545 1.394 . S
C547 H519 0.982 . S
C547 H523 0.979 . S
C547 H524 0.977 . S
C547 C544 1.453 . S
C548 H520 0.979 . S
C548 H521 0.980 . S
C548 H522 0.983 . S
C548 C544 1.684 . S
H549 C567 0.948 . S
H550 C508 0.948 . S
H551 C526 0.979 . S
H552 C526 0.980 . S
H553 C526 0.983 . S
H554 C525 0.982 . S
H555 C525 0.979 . S
H556 C525 0.977 . S
H557 C527 0.948 . S
H558 C529 0.947 . S
H559 C530 0.948 . S
H560 C536 0.982 . S
H561 C536 0.979 . S
H562 C536 0.977 . S
H563 C537 0.979 . S
H564 C537 0.980 . S
H565 C537 0.983 . S
H566 C510 0.947 . S
C567 C510 1.392 . S
C567 C511 1.419 . S
C567 H549 0.948 . S
H568 C576 0.950 . S
H569 C581 0.950 . S
H570 C578 0.950 . S
H571 C580 0.950 . S
H572 C582 0.950 . S
H573 C584 0.950 . S
H574 C586 0.950 . S
H575 C587 0.950 . S
C576 H568 0.950 . S
C576 C577 1.386 . S
C576 C578 1.391 . S
C577 C576 1.386 . S
C577 C581 1.393 . S
C578 H570 0.950 . S
C578 C576 1.391 . S
C578 C579 1.400 . S
C579 C578 1.400 . S
C579 C580 1.398 . S
C579 C585 1.491 . S
C580 H571 0.950 . S
C580 C579 1.398 . S
C580 C581 1.391 . S
C581 H569 0.950 . S
C581 C577 1.393 . S
C581 C580 1.391 . S
C582 H572 0.950 . S
C582 C583 1.386 . S
C582 C584 1.391 1_545 S
C583 C582 1.386 . S
C583 C587 1.393 . S
C584 H573 0.950 . S
C584 C582 1.391 1_565 S
C584 C585 1.400 . S
C585 C579 1.491 . S
C585 C584 1.400 . S
C585 C586 1.398 . S
C586 H574 0.950 . S
C586 C585 1.398 . S
C586 C587 1.391 1_565 S
C587 H575 0.950 . S
C587 C583 1.393 . S
C587 C586 1.391 1_545 S
H588 C596 0.950 . S
H589 C601 0.950 . S
H590 C598 0.950 . S
H591 C600 0.950 . S
H592 C602 0.950 . S
H593 C604 0.950 . S
H594 C606 0.950 . S
H595 C607 0.950 . S
C596 H588 0.950 . S
C596 C597 1.386 . S
C596 C598 1.391 . S
C597 C596 1.386 . S
C597 C601 1.393 . S
C598 H590 0.950 . S
C598 C596 1.391 . S
C598 C599 1.400 . S
C599 C598 1.400 . S
C599 C600 1.398 . S
C599 C605 1.491 . S
C600 H591 0.950 . S
C600 C599 1.398 . S
C600 C601 1.391 . S
C601 H589 0.950 . S
C601 C597 1.393 . S
C601 C600 1.391 . S
C602 H592 0.950 . S
C602 C603 1.386 . S
C602 C604 1.391 . S
C603 C602 1.386 . S
C603 C607 1.393 . S
C604 H593 0.950 . S
C604 C602 1.391 . S
C604 C605 1.400 . S
C605 C599 1.491 . S
C605 C604 1.400 . S
C605 C606 1.398 . S
C606 H594 0.950 . S
C606 C605 1.398 . S
C606 C607 1.391 . S
C607 H595 0.950 . S
C607 C603 1.393 . S
C607 C606 1.391 . S
H608 C616 0.950 . S
H609 C621 0.950 . S
H610 C618 0.950 . S
H611 C620 0.950 . S
H612 C622 0.950 . S
H613 C624 0.950 . S
H614 C626 0.950 . S
H615 C627 0.950 . S
C616 H608 0.950 . S
C616 C617 1.386 . S
C616 C618 1.391 . S
C617 C616 1.386 . S
C617 C621 1.393 . S
C618 H610 0.950 . S
C618 C616 1.391 . S
C618 C619 1.400 . S
C619 C618 1.400 . S
C619 C620 1.398 . S
C619 C625 1.491 . S
C620 H611 0.950 . S
C620 C619 1.398 . S
C620 C621 1.391 . S
C621 H609 0.950 . S
C621 C617 1.393 . S
C621 C620 1.391 . S
C622 H612 0.950 . S
C622 C623 1.386 . S
C622 C624 1.391 1_565 S
C623 C622 1.386 . S
C623 C627 1.393 . S
C624 H613 0.950 . S
C624 C622 1.391 1_545 S
C624 C625 1.400 . S
C625 C619 1.491 . S
C625 C624 1.400 . S
C625 C626 1.398 . S
C626 H614 0.950 . S
C626 C625 1.398 . S
C626 C627 1.391 1_545 S
C627 H615 0.950 . S
C627 C623 1.393 . S
C627 C626 1.391 1_565 S
H628 C636 0.950 . S
H629 C641 0.950 . S
H630 C638 0.950 . S
H631 C640 0.950 . S
H632 C642 0.950 . S
H633 C644 0.950 . S
H634 C646 0.950 . S
H635 C647 0.950 . S
C636 H628 0.950 . S
C636 C637 1.386 . S
C636 C638 1.391 . S
C637 C636 1.386 . S
C637 C641 1.393 . S
C638 H630 0.950 . S
C638 C636 1.391 . S
C638 C639 1.400 . S
C639 C638 1.400 . S
C639 C640 1.398 . S
C639 C645 1.491 . S
C640 H631 0.950 . S
C640 C639 1.398 . S
C640 C641 1.391 . S
C641 H629 0.950 . S
C641 C637 1.393 . S
C641 C640 1.391 . S
C642 H632 0.950 . S
C642 C643 1.386 . S
C642 C644 1.391 . S
C643 C642 1.386 . S
C643 C647 1.393 . S
C644 H633 0.950 . S
C644 C642 1.391 . S
C644 C645 1.400 . S
C645 C639 1.491 . S
C645 C644 1.400 . S
C645 C646 1.398 . S
C646 H634 0.950 . S
C646 C645 1.398 . S
C646 C647 1.391 . S
C647 H635 0.950 . S
C647 C643 1.393 . S
C647 C646 1.391 . S
H648 C656 0.950 . S
H649 C661 0.950 . S
H650 C658 0.950 . S
H651 C660 0.950 . S
H652 C662 0.950 . S
H653 C664 0.950 . S
H654 C666 0.950 . S
H655 C667 0.950 . S
C656 H648 0.950 . S
C656 C657 1.386 . S
C656 C658 1.391 . S
C657 C656 1.386 . S
C657 C661 1.393 . S
C658 H650 0.950 . S
C658 C656 1.391 . S
C658 C659 1.400 . S
C659 C658 1.400 . S
C659 C660 1.398 . S
C659 C665 1.491 . S
C660 H651 0.950 . S
C660 C659 1.398 . S
C660 C661 1.391 . S
C661 H649 0.950 . S
C661 C657 1.393 . S
C661 C660 1.391 . S
C662 H652 0.950 . S
C662 C663 1.386 . S
C662 C664 1.391 . S
C663 C662 1.386 . S
C663 C667 1.393 . S
C664 H653 0.950 . S
C664 C662 1.391 . S
C664 C665 1.400 . S
C665 C659 1.491 . S
C665 C664 1.400 . S
C665 C666 1.398 . S
C666 H654 0.950 . S
C666 C665 1.398 . S
C666 C667 1.391 . S
C667 H655 0.950 . S
C667 C663 1.393 . S
C667 C666 1.391 . S
H668 C676 0.950 . S
H669 C681 0.950 . S
H670 C678 0.950 . S
H671 C680 0.950 . S
H672 C682 0.950 . S
H673 C684 0.950 . S
H674 C686 0.956 . S
H675 C687 0.950 . S
C676 H668 0.950 . S
C676 C677 1.386 . S
C676 C678 1.391 . S
C677 C676 1.386 . S
C677 C681 1.393 . S
C678 H670 0.950 . S
C678 C676 1.391 . S
C678 C679 1.400 . S
C679 C678 1.400 . S
C679 C680 1.398 . S
C679 C685 1.491 . S
C680 H671 0.950 . S
C680 C679 1.398 . S
C680 C681 1.391 . S
C681 H669 0.950 . S
C681 C677 1.393 . S
C681 C680 1.391 . S
C682 H672 0.950 . S
C682 C683 1.386 1_655 S
C682 C684 1.391 . S
C683 C682 1.386 1_455 S
C683 C687 1.393 . S
C684 H673 0.950 . S
C684 C682 1.391 . S
C684 C685 1.400 . S
C685 C679 1.491 . S
C685 C684 1.400 . S
C685 C686 1.363 1_655 S
C686 H674 0.956 . S
C686 C685 1.363 1_455 S
C686 C687 1.421 . S
C687 H675 0.950 . S
C687 C683 1.393 . S
C687 C686 1.421 . S
H688 C696 0.950 . S
H689 C701 0.950 . S
H690 C698 0.950 . S
H691 C700 0.950 . S
H692 C702 0.950 . S
H693 C704 0.950 . S
H694 C706 0.950 . S
H695 C707 0.950 . S
C696 H688 0.950 . S
C696 C697 1.386 . S
C696 C698 1.391 . S
C697 C696 1.386 . S
C697 C701 1.393 . S
C698 H690 0.950 . S
C698 C696 1.391 . S
C698 C699 1.400 . S
C699 C698 1.400 . S
C699 C700 1.398 . S
C699 C705 1.491 . S
C700 H691 0.950 . S
C700 C699 1.398 . S
C700 C701 1.391 . S
C701 H689 0.950 . S
C701 C697 1.393 . S
C701 C700 1.391 . S
C702 H692 0.950 . S
C702 C703 1.386 . S
C702 C704 1.391 . S
C703 C702 1.386 . S
C703 C707 1.393 . S
C704 H693 0.950 . S
C704 C702 1.391 . S
C704 C705 1.400 . S
C705 C699 1.491 . S
C705 C704 1.400 . S
C705 C706 1.398 . S
C706 H694 0.950 . S
C706 C705 1.398 . S
C706 C707 1.391 . S
C707 H695 0.950 . S
C707 C703 1.393 . S
C707 C706 1.391 . S
H708 C716 0.950 . S
H709 C721 0.950 . S
H710 C718 0.950 . S
H711 C720 0.950 . S
H712 C722 0.950 . S
H713 C724 0.950 . S
H714 C726 0.950 . S
H715 C727 0.950 . S
C716 H708 0.950 . S
C716 C717 1.386 . S
C716 C718 1.391 . S
C717 C716 1.386 . S
C717 C721 1.393 . S
C718 H710 0.950 . S
C718 C716 1.391 . S
C718 C719 1.400 . S
C719 C718 1.400 . S
C719 C720 1.398 . S
C719 C725 1.491 . S
C720 H711 0.950 . S
C720 C719 1.398 . S
C720 C721 1.391 . S
C721 H709 0.950 . S
C721 C717 1.393 . S
C721 C720 1.391 . S
C722 H712 0.950 . S
C722 C723 1.386 1_455 S
C722 C724 1.391 . S
C723 C722 1.386 1_655 S
C723 C727 1.393 . S
C724 H713 0.950 . S
C724 C722 1.391 . S
C724 C725 1.400 . S
C725 C719 1.491 . S
C725 C724 1.400 . S
C725 C726 1.398 . S
C726 H714 0.950 . S
C726 C725 1.398 . S
C726 C727 1.391 1_455 S
C727 H715 0.950 . S
C727 C723 1.393 . S
C727 C726 1.391 1_655 S
H728 C736 0.950 . S
H729 C741 0.950 . S
H730 C738 0.950 . S
H731 C740 0.950 . S
H732 C742 0.950 . S
H733 C744 0.950 . S
H734 C746 0.950 . S
H735 C747 0.950 . S
C736 H728 0.950 . S
C736 C737 1.386 . S
C736 C738 1.391 . S
C737 C736 1.386 . S
C737 C741 1.393 . S
C738 H730 0.950 . S
C738 C736 1.391 . S
C738 C739 1.400 . S
C739 C738 1.400 . S
C739 C740 1.398 . S
C739 C745 1.491 . S
C740 H731 0.950 . S
C740 C739 1.398 . S
C740 C741 1.391 . S
C741 H729 0.950 . S
C741 C737 1.393 . S
C741 C740 1.391 . S
C742 H732 0.950 . S
C742 C743 1.386 . S
C742 C744 1.391 1_565 S
C743 C742 1.386 . S
C743 C747 1.393 . S
C744 H733 0.950 . S
C744 C742 1.391 1_545 S
C744 C745 1.400 . S
C745 C739 1.491 . S
C745 C744 1.400 . S
C745 C746 1.398 . S
C746 H734 0.950 . S
C746 C745 1.398 . S
C746 C747 1.391 1_545 S
C747 H735 0.950 . S
C747 C743 1.393 . S
C747 C746 1.391 1_565 S
H748 C756 0.950 . S
H749 C761 0.950 . S
H750 C758 0.950 . S
H751 C760 0.950 . S
H752 C762 0.950 . S
H753 C764 0.950 . S
H754 C766 0.950 . S
H755 C767 0.950 . S
C756 H748 0.950 . S
C756 C757 1.386 . S
C756 C758 1.391 . S
C757 C756 1.386 . S
C757 C761 1.393 . S
C758 H750 0.950 . S
C758 C756 1.391 . S
C758 C759 1.400 . S
C759 C758 1.400 . S
C759 C760 1.398 . S
C759 C765 1.491 . S
C760 H751 0.950 . S
C760 C759 1.398 . S
C760 C761 1.391 . S
C761 H749 0.950 . S
C761 C757 1.393 . S
C761 C760 1.391 . S
C762 H752 0.950 . S
C762 C763 1.386 . S
C762 C764 1.391 . S
C763 C762 1.386 . S
C763 C767 1.393 . S
C764 H753 0.950 . S
C764 C762 1.391 . S
C764 C765 1.400 . S
C765 C759 1.491 . S
C765 C764 1.400 . S
C765 C766 1.398 . S
C766 H754 0.950 . S
C766 C765 1.398 . S
C766 C767 1.391 . S
C767 H755 0.950 . S
C767 C763 1.393 . S
C767 C766 1.391 . S
H768 C776 0.950 . S
H769 C781 0.950 . S
H770 C778 0.950 . S
H771 C780 0.950 . S
H772 C782 0.950 . S
H773 C784 0.950 . S
H774 C786 0.950 . S
H775 C787 0.950 . S
C776 H768 0.950 . S
C776 C777 1.386 . S
C776 C778 1.391 . S
C777 C776 1.386 . S
C777 C781 1.393 . S
C778 H770 0.950 . S
C778 C776 1.391 . S
C778 C779 1.400 . S
C779 C778 1.400 . S
C779 C780 1.398 . S
C779 C785 1.491 . S
C780 H771 0.950 . S
C780 C779 1.398 . S
C780 C781 1.391 . S
C781 H769 0.950 . S
C781 C777 1.393 . S
C781 C780 1.391 . S
C782 H772 0.950 . S
C782 C783 1.386 . S
C782 C784 1.391 1_545 S
C783 C782 1.386 . S
C783 C787 1.393 . S
C784 H773 0.950 . S
C784 C782 1.391 1_565 S
C784 C785 1.400 . S
C785 C779 1.491 . S
C785 C784 1.400 . S
C785 C786 1.398 . S
C786 H774 0.950 . S
C786 C785 1.398 . S
C786 C787 1.391 1_565 S
C787 H775 0.950 . S
C787 C783 1.393 . S
C787 C786 1.391 1_545 S
H788 C796 0.950 . S
H789 C801 0.950 . S
H790 C798 0.950 . S
H791 C800 0.950 . S
H792 C802 0.950 . S
H793 C804 0.950 . S
H794 C806 0.950 . S
H795 C807 0.950 . S
C796 H788 0.950 . S
C796 C797 1.386 . S
C796 C798 1.391 . S
C797 C796 1.386 . S
C797 C801 1.393 . S
C798 H790 0.950 . S
C798 C796 1.391 . S
C798 C799 1.400 . S
C799 C798 1.400 . S
C799 C800 1.398 . S
C799 C805 1.491 . S
C800 H791 0.950 . S
C800 C799 1.398 . S
C800 C801 1.391 . S
C801 H789 0.950 . S
C801 C797 1.393 . S
C801 C800 1.391 . S
C802 H792 0.950 . S
C802 C803 1.386 . S
C802 C804 1.391 . S
C803 C802 1.386 . S
C803 C807 1.393 . S
C804 H793 0.950 . S
C804 C802 1.391 . S
C804 C805 1.400 . S
C805 C799 1.491 . S
C805 C804 1.400 . S
C805 C806 1.398 . S
C806 H794 0.950 . S
C806 C805 1.398 . S
C806 C807 1.391 . S
C807 H795 0.950 . S
C807 C803 1.393 . S
C807 C806 1.391 . S
H808 C816 0.950 . S
H809 C821 0.950 . S
H810 C818 0.950 . S
H811 C820 0.950 . S
H812 C822 0.950 . S
H813 C824 0.950 . S
H814 C826 0.950 . S
H815 C827 0.950 . S
C816 H808 0.950 . S
C816 C817 1.386 . S
C816 C818 1.391 . S
C817 C816 1.386 . S
C817 C821 1.393 . S
C818 H810 0.950 . S
C818 C816 1.391 . S
C818 C819 1.400 . S
C819 C818 1.400 . S
C819 C820 1.398 . S
C819 C825 1.491 . S
C820 H811 0.950 . S
C820 C819 1.398 . S
C820 C821 1.391 . S
C821 H809 0.950 . S
C821 C817 1.393 . S
C821 C820 1.391 . S
C822 H812 0.950 . S
C822 C823 1.386 . S
C822 C824 1.391 . S
C823 C822 1.386 . S
C823 C827 1.393 . S
C824 H813 0.950 . S
C824 C822 1.391 . S
C824 C825 1.400 . S
C825 C819 1.491 . S
C825 C824 1.400 . S
C825 C826 1.398 . S
C826 H814 0.950 . S
C826 C825 1.398 . S
C826 C827 1.391 . S
C827 H815 0.950 . S
C827 C823 1.393 . S
C827 C826 1.391 . S
H828 C836 0.950 . S
H829 C841 0.950 . S
H830 C838 0.950 . S
H831 C840 0.950 . S
H832 C842 0.950 . S
H833 C844 0.950 . S
H834 C846 0.950 . S
H835 C847 0.950 . S
C836 H828 0.950 . S
C836 C837 1.386 . S
C836 C838 1.391 . S
C837 C836 1.386 . S
C837 C841 1.393 . S
C838 H830 0.950 . S
C838 C836 1.391 . S
C838 C839 1.400 . S
C839 C838 1.400 . S
C839 C840 1.398 . S
C839 C845 1.491 . S
C840 H831 0.950 . S
C840 C839 1.398 . S
C840 C841 1.391 . S
C841 H829 0.950 . S
C841 C837 1.393 . S
C841 C840 1.391 . S
C842 H832 0.950 . S
C842 C843 1.386 . S
C842 C844 1.391 . S
C843 C842 1.386 . S
C843 C847 1.393 1_655 S
C844 H833 0.950 . S
C844 C842 1.391 . S
C844 C845 1.400 1_655 S
C845 C839 1.491 . S
C845 C844 1.400 1_455 S
C845 C846 1.398 . S
C846 H834 0.950 . S
C846 C845 1.398 . S
C846 C847 1.391 . S
C847 H835 0.950 . S
C847 C843 1.393 1_455 S
C847 C846 1.391 . S
H848 C856 0.950 . S
H849 C861 0.950 . S
H850 C858 0.950 . S
H851 C860 0.950 . S
H852 C862 0.950 . S
H853 C864 0.950 . S
H854 C866 0.950 . S
H855 C867 0.950 . S
C856 H848 0.950 . S
C856 C857 1.386 . S
C856 C858 1.391 . S
C857 C856 1.386 . S
C857 C861 1.393 . S
C858 H850 0.950 . S
C858 C856 1.391 . S
C858 C859 1.400 . S
C859 C858 1.400 . S
C859 C860 1.398 . S
C859 C865 1.491 . S
C860 H851 0.950 . S
C860 C859 1.398 . S
C860 C861 1.391 . S
C861 H849 0.950 . S
C861 C857 1.393 . S
C861 C860 1.391 . S
C862 H852 0.950 . S
C862 C863 1.386 . S
C862 C864 1.391 . S
C863 C862 1.386 . S
C863 C867 1.393 . S
C864 H853 0.950 . S
C864 C862 1.391 . S
C864 C865 1.400 . S
C865 C859 1.491 . S
C865 C864 1.400 . S
C865 C866 1.398 . S
C866 H854 0.950 . S
C866 C865 1.398 . S
C866 C867 1.391 . S
C867 H855 0.950 . S
C867 C863 1.393 . S
C867 C866 1.391 . S
H868 C876 0.950 . S
H869 C881 0.950 . S
H870 C878 0.950 . S
H871 C880 0.950 . S
H872 C882 0.950 . S
H873 C884 0.949 1_455 S
H874 C886 0.950 . S
H875 C887 0.950 . S
C876 H868 0.950 . S
C876 C877 1.386 . S
C876 C878 1.391 . S
C877 C876 1.386 . S
C877 C881 1.393 . S
C878 H870 0.950 . S
C878 C876 1.391 . S
C878 C879 1.400 . S
C879 C878 1.400 . S
C879 C880 1.398 . S
C879 C885 1.491 . S
C880 H871 0.950 . S
C880 C879 1.398 . S
C880 C881 1.391 . S
C881 H869 0.950 . S
C881 C877 1.393 . S
C881 C880 1.391 . S
C882 H872 0.950 . S
C882 C883 1.386 . S
C882 C884 1.386 1_455 S
C883 C882 1.386 . S
C883 C887 1.393 1_455 S
C884 H873 0.949 1_655 S
C884 C882 1.386 1_655 S
C884 C885 1.406 . S
C885 C879 1.491 . S
C885 C884 1.406 . S
C885 C886 1.398 . S
C886 H874 0.950 . S
C886 C885 1.398 . S
C886 C887 1.391 . S
C887 H875 0.950 . S
C887 C883 1.393 1_655 S
C887 C886 1.391 . S
H888 C896 0.950 . S
H889 C901 0.950 . S
H890 C898 0.950 . S
H891 C900 0.950 . S
H892 C902 0.950 . S
H893 C904 0.950 . S
H894 C906 0.950 . S
H895 C907 0.950 . S
C896 H888 0.950 . S
C896 C897 1.386 . S
C896 C898 1.391 . S
C897 C896 1.386 . S
C897 C901 1.393 . S
C898 H890 0.950 . S
C898 C896 1.391 . S
C898 C899 1.400 . S
C899 C898 1.400 . S
C899 C900 1.398 . S
C899 C905 1.491 . S
C900 H891 0.950 . S
C900 C899 1.398 . S
C900 C901 1.391 . S
C901 H889 0.950 . S
C901 C897 1.393 . S
C901 C900 1.391 . S
C902 H892 0.950 . S
C902 C903 1.386 . S
C902 C904 1.391 . S
C903 C902 1.386 . S
C903 C907 1.393 . S
C904 H893 0.950 . S
C904 C902 1.391 . S
C904 C905 1.400 . S
C905 C899 1.491 . S
C905 C904 1.400 . S
C905 C906 1.398 . S
C906 H894 0.950 . S
C906 C905 1.398 . S
C906 C907 1.391 . S
C907 H895 0.950 . S
C907 C903 1.393 . S
C907 C906 1.391 . S
H908 C916 0.950 . S
H909 C921 0.950 . S
H910 C918 0.950 . S
H911 C920 0.950 . S
H912 C922 0.950 . S
H913 C924 0.950 . S
H914 C926 0.950 . S
H915 C927 0.950 . S
C916 H908 0.950 . S
C916 C917 1.386 . S
C916 C918 1.391 . S
C917 C916 1.386 . S
C917 C921 1.393 . S
C918 H910 0.950 . S
C918 C916 1.391 . S
C918 C919 1.400 . S
C919 C918 1.400 . S
C919 C920 1.398 . S
C919 C925 1.491 . S
C920 H911 0.950 . S
C920 C919 1.398 . S
C920 C921 1.391 . S
C921 H909 0.950 . S
C921 C917 1.393 . S
C921 C920 1.391 . S
C922 H912 0.950 . S
C922 C923 1.386 . S
C922 C924 1.391 . S
C923 C922 1.386 . S
C923 C927 1.393 . S
C924 H913 0.950 . S
C924 C922 1.391 . S
C924 C925 1.400 . S
C925 C919 1.491 . S
C925 C924 1.400 . S
C925 C926 1.398 . S
C926 H914 0.950 . S
C926 C925 1.398 . S
C926 C927 1.391 . S
C927 H915 0.950 . S
C927 C923 1.393 . S
C927 C926 1.391 . S
H928 C936 0.950 . S
H929 C941 0.950 . S
H930 C938 0.950 . S
H931 C940 0.950 . S
H932 C942 0.950 . S
H933 C944 0.950 . S
H934 C946 0.950 . S
H935 C947 0.950 . S
C936 H928 0.950 . S
C936 C937 1.386 . S
C936 C938 1.391 . S
C937 C936 1.386 . S
C937 C941 1.393 . S
C938 H930 0.950 . S
C938 C936 1.391 . S
C938 C939 1.400 . S
C939 C938 1.400 . S
C939 C940 1.398 . S
C939 C945 1.491 . S
C940 H931 0.950 . S
C940 C939 1.398 . S
C940 C941 1.391 . S
C941 H929 0.950 . S
C941 C937 1.393 . S
C941 C940 1.391 . S
C942 H932 0.950 . S
C942 C943 1.386 . S
C942 C944 1.391 . S
C943 C942 1.386 . S
C943 C947 1.393 . S
C944 H933 0.950 . S
C944 C942 1.391 . S
C944 C945 1.400 . S
C945 C939 1.491 . S
C945 C944 1.400 . S
C945 C946 1.398 . S
C946 H934 0.950 . S
C946 C945 1.398 . S
C946 C947 1.391 . S
C947 H935 0.950 . S
C947 C943 1.393 . S
C947 C946 1.391 . S
H948 C956 0.950 . S
H949 C961 0.950 . S
H950 C958 0.950 . S
H951 C960 0.950 . S
H952 C962 0.950 . S
H953 C964 0.950 . S
H954 C966 0.950 . S
H955 C967 0.950 . S
C956 H948 0.950 . S
C956 C957 1.386 . S
C956 C958 1.391 . S
C957 C956 1.386 . S
C957 C961 1.393 . S
C958 H950 0.950 . S
C958 C956 1.391 . S
C958 C959 1.400 . S
C959 C958 1.400 . S
C959 C960 1.398 . S
C959 C965 1.491 . S
C960 H951 0.950 . S
C960 C959 1.398 . S
C960 C961 1.391 . S
C961 H949 0.950 . S
C961 C957 1.393 . S
C961 C960 1.391 . S
C962 H952 0.950 . S
C962 C963 1.386 . S
C962 C964 1.391 . S
C963 C962 1.386 . S
C963 C967 1.393 . S
C964 H953 0.950 . S
C964 C962 1.391 . S
C964 C965 1.400 . S
C965 C959 1.491 . S
C965 C964 1.400 . S
C965 C966 1.398 . S
C966 H954 0.950 . S
C966 C965 1.398 . S
C966 C967 1.391 . S
C967 H955 0.950 . S
C967 C963 1.393 . S
C967 C966 1.391 . S
H968 C976 0.950 . S
H969 C981 0.950 . S
H970 C978 0.950 . S
H971 C980 0.950 . S
H972 C982 0.950 . S
H973 C984 0.950 . S
H974 C986 0.950 . S
H975 C987 0.950 . S
C976 H968 0.950 . S
C976 C977 1.386 . S
C976 C978 1.391 . S
C977 C976 1.386 . S
C977 C981 1.393 . S
C978 H970 0.950 . S
C978 C976 1.391 . S
C978 C979 1.400 . S
C979 C978 1.400 . S
C979 C980 1.398 . S
C979 C985 1.491 . S
C980 H971 0.950 . S
C980 C979 1.398 . S
C980 C981 1.391 . S
C981 H969 0.950 . S
C981 C977 1.393 . S
C981 C980 1.391 . S
C982 H972 0.950 . S
C982 C983 1.386 . S
C982 C984 1.391 . S
C983 C982 1.386 . S
C983 C987 1.393 . S
C984 H973 0.950 . S
C984 C982 1.391 . S
C984 C985 1.400 . S
C985 C979 1.491 . S
C985 C984 1.400 . S
C985 C986 1.398 . S
C986 H974 0.950 . S
C986 C985 1.398 . S
C986 C987 1.391 . S
C987 H975 0.950 . S
C987 C983 1.393 . S
C987 C986 1.391 . S
H988 C996 0.950 . S
H989 C1001 0.950 . S
H990 C998 0.950 . S
H991 C1000 0.950 . S
H992 C1002 0.950 . S
H993 C1004 0.950 . S
H994 C1006 0.950 . S
H995 C1007 0.950 . S
C996 H988 0.950 . S
C996 C997 1.386 . S
C996 C998 1.391 . S
C997 C996 1.386 . S
C997 C1001 1.393 . S
C998 H990 0.950 . S
C998 C996 1.391 . S
C998 C999 1.400 . S
C999 C998 1.400 . S
C999 C1000 1.398 . S
C999 C1005 1.491 . S
C1000 H991 0.950 . S
C1000 C999 1.398 . S
C1000 C1001 1.391 . S
C1001 H989 0.950 . S
C1001 C997 1.393 . S
C1001 C1000 1.391 . S
C1002 H992 0.950 . S
C1002 C1003 1.386 . S
C1002 C1004 1.391 . S
C1003 C1002 1.386 . S
C1003 C1007 1.393 . S
C1004 H993 0.950 . S
C1004 C1002 1.391 . S
C1004 C1005 1.400 . S
C1005 C999 1.491 . S
C1005 C1004 1.400 . S
C1005 C1006 1.398 . S
C1006 H994 0.950 . S
C1006 C1005 1.398 . S
C1006 C1007 1.391 . S
C1007 H995 0.950 . S
C1007 C1003 1.393 . S
C1007 C1006 1.391 . S
H1008 C1016 0.950 . S
H1009 C1021 0.950 . S
H1010 C1018 0.950 . S
H1011 C1020 0.950 . S
H1012 C1022 0.950 . S
H1013 C1024 0.950 . S
H1014 C1026 0.950 . S
H1015 C1027 0.950 . S
C1016 H1008 0.950 . S
C1016 C1017 1.386 . S
C1016 C1018 1.391 . S
C1017 C1016 1.386 . S
C1017 C1021 1.393 . S
C1018 H1010 0.950 . S
C1018 C1016 1.391 . S
C1018 C1019 1.400 . S
C1019 C1018 1.400 . S
C1019 C1020 1.398 . S
C1019 C1025 1.491 . S
C1020 H1011 0.950 . S
C1020 C1019 1.398 . S
C1020 C1021 1.391 . S
C1021 H1009 0.950 . S
C1021 C1017 1.393 . S
C1021 C1020 1.391 . S
C1022 H1012 0.950 . S
C1022 C1023 1.386 . S
C1022 C1024 1.391 . S
C1023 C1022 1.386 . S
C1023 C1027 1.393 . S
C1024 H1013 0.950 . S
C1024 C1022 1.391 . S
C1024 C1025 1.400 . S
C1025 C1019 1.491 . S
C1025 C1024 1.400 . S
C1025 C1026 1.398 . S
C1026 H1014 0.950 . S
C1026 C1025 1.398 . S
C1026 C1027 1.391 . S
C1027 H1015 0.950 . S
C1027 C1023 1.393 . S
C1027 C1026 1.391 . S
H1028 C1036 0.950 . S
H1029 C1041 0.950 . S
H1030 C1038 0.950 . S
H1031 C1040 0.950 . S
H1032 C1042 0.950 . S
H1033 C1044 0.950 . S
H1034 C1046 0.950 . S
H1035 C1047 0.950 . S
C1036 H1028 0.950 . S
C1036 C1037 1.386 . S
C1036 C1038 1.391 . S
C1037 C1036 1.386 . S
C1037 C1041 1.393 . S
C1038 H1030 0.950 . S
C1038 C1036 1.391 . S
C1038 C1039 1.400 . S
C1039 C1038 1.400 . S
C1039 C1040 1.398 . S
C1039 C1045 1.491 . S
C1040 H1031 0.950 . S
C1040 C1039 1.398 . S
C1040 C1041 1.391 . S
C1041 H1029 0.950 . S
C1041 C1037 1.393 . S
C1041 C1040 1.391 . S
C1042 H1032 0.950 . S
C1042 C1043 1.386 . S
C1042 C1044 1.391 . S
C1043 C1042 1.386 . S
C1043 C1047 1.393 . S
C1044 H1033 0.950 . S
C1044 C1042 1.391 . S
C1044 C1045 1.400 . S
C1045 C1039 1.491 . S
C1045 C1044 1.400 . S
C1045 C1046 1.398 . S
C1046 H1034 0.950 . S
C1046 C1045 1.398 . S
C1046 C1047 1.391 . S
C1047 H1035 0.950 . S
C1047 C1043 1.393 . S
C1047 C1046 1.391 . S
C577 C8 1.334 . S
C583 C89 1.248 . S
C597 C31 1.349 . S
C603 C168 1.351 . S
C617 C53 1.335 . S
C623 C239 1.358 . S
C643 C299 1.349 . S
C637 C74 1.351 . S
C663 C329 1.240 . S
C657 C26 1.337 . S
C677 C48 1.348 . S
C683 C419 1.354 . S
C697 C71 1.334 . S
C703 C479 1.361 . S
C717 C5 1.336 . S
C723 C528 1.363 . S
C737 C50 1.334 . S
C743 C509 1.268 . S
C763 C348 1.347 . S
C757 C70 1.349 . S
C783 C408 1.238 . S
C777 C4 1.356 . S
C797 C28 1.337 . S
C803 C468 1.269 . S
C823 C149 1.253 . S
C817 C73 1.336 . S
C837 C7 1.343 . S
C843 C228 1.259 . S
C863 C288 1.234 . S
C857 C30 1.345 . S
C883 C108 1.361 . S
C877 C52 1.344 . S
C903 C449 1.007 . S
C897 C9 1.022 . S
C923 C539 1.006 . S
C917 C29 1.021 . S
C937 C51 1.028 . S
C943 C359 0.992 . S
C963 C389 1.016 . S
C957 C75 1.029 . S
C983 C209 1.019 . S
C977 C27 1.021 . S
C997 C49 1.021 . S
C1003 C269 1.022 . S
C1023 C119 0.995 . S
C1017 C72 1.026 . S
C1043 C179 1.006 . S
C1037 C6 1.029 . S
