# Generated by pormake.
# Topology rtl, (3,6)-cn, num edge types: 1
# Building blocks:
#     Node 0, Type 0, BuildingBlock: VETTIZ_charged_linker_0, # of connection points: 3
#     Node 1, Type 0, BuildingBlock: VETTIZ_charged_linker_0, # of connection points: 3
#     Node 2, Type 0, BuildingBlock: VETTIZ_charged_linker_0, # of connection points: 3
#     Node 3, Type 0, BuildingBlock: VETTIZ_charged_linker_0, # of connection points: 3
#     Node 4, Type 1, BuildingBlock: VOLQOD_clean_sbu_1, # of connection points: 6
#     Node 5, Type 1, BuildingBlock: VOLQOD_clean_sbu_1, # of connection points: 6
#     Edge 6, Type (0, 1), BuildingBlock: FUNLAD_clean_linker_0, # of connection points: 2
#     Edge 7, Type (0, 1), BuildingBlock: FUNLAD_clean_linker_0, # of connection points: 2
#     Edge 8, Type (0, 1), BuildingBlock: FUNLAD_clean_linker_0, # of connection points: 2
#     Edge 9, Type (0, 1), BuildingBlock: FUNLAD_clean_linker_0, # of connection points: 2
#     Edge 10, Type (0, 1), BuildingBlock: FUNLAD_clean_linker_0, # of connection points: 2
#     Edge 11, Type (0, 1), BuildingBlock: FUNLAD_clean_linker_0, # of connection points: 2
#     Edge 12, Type (0, 1), BuildingBlock: FUNLAD_clean_linker_0, # of connection points: 2
#     Edge 13, Type (0, 1), BuildingBlock: FUNLAD_clean_linker_0, # of connection points: 2
#     Edge 14, Type (0, 1), BuildingBlock: FUNLAD_clean_linker_0, # of connection points: 2
#     Edge 15, Type (0, 1), BuildingBlock: FUNLAD_clean_linker_0, # of connection points: 2
#     Edge 16, Type (0, 1), BuildingBlock: FUNLAD_clean_linker_0, # of connection points: 2
#     Edge 17, Type (0, 1), BuildingBlock: FUNLAD_clean_linker_0, # of connection points: 2
# Relax obj value: 0.081
# Max RMSD: 0.157
# Mean RMSD: 0.091
data_MOF--net-rtl--node1-VOLQOD_clean_sbu_1--node2-VETTIZ_charged_linker_0--edge1-FUNLAD_clean_linker_0
_symmetry_space_group_name_H-M    P1
_symmetry_Int_Tables_number       1
_symmetry_cell_setting            triclinic
loop_
_symmetry_equiv_pos_as_xyz
'x, y, z'
_cell_length_a     50.191243
_cell_length_b     43.384063
_cell_length_c     32.795609
_cell_angle_alpha  89.995618
_cell_angle_beta   90.388031
_cell_angle_gamma 90.025215
loop_
_atom_site_label
_atom_site_type_symbol
_atom_site_fract_x
_atom_site_fract_y
_atom_site_fract_z
_atom_type_partial_charge
C0 C 0.08708 0.74394 0.87491 0.0
C1 C 0.06421 0.76242 0.87036 0.0
C2 C 0.0484 0.76851 0.90478 0.0
C3 C 0.07953 0.74069 0.94781 0.0
C4 C 0.09427 0.73322 0.91379 0.0
C5 C 0.11834 0.71405 0.92441 0.0
H6 H 0.20014 0.6552 0.06976 0.0
C7 C 0.09351 0.72835 0.98402 0.0
C8 C 0.11609 0.71231 0.97055 0.0
H9 H 0.20754 0.64756 0.93885 0.0
H10 H 0.16576 0.67432 0.92971 0.0
H11 H 0.18193 0.7245 0.07004 0.0
H12 H 0.13686 0.64017 0.07312 0.0
H13 H 0.12193 0.66581 0.10761 0.0
H14 H 0.15595 0.6538 0.11595 0.0
H15 H 0.17986 0.70112 0.11503 0.0
H16 H 0.15554 0.73056 0.10381 0.0
C17 C 0.14349 0.73198 0.91097 0.0
C18 C 0.11508 0.68198 0.90417 0.0
C19 C 0.06341 0.76087 0.12498 0.0
C20 C 0.07453 0.75699 0.16414 0.0
C21 C 0.09657 0.73714 0.16901 0.0
C22 C 0.10808 0.72262 0.13525 0.0
C23 C 0.09765 0.72822 0.09605 0.0
C24 C 0.07536 0.74658 0.09154 0.0
C25 C 0.06745 0.75074 0.04759 0.0
C26 C 0.08894 0.7322 0.02639 0.0
C27 C 0.10661 0.71918 0.05491 0.0
C28 C 0.06926 0.78562 0.03751 0.0
C29 C 0.03943 0.73644 0.04119 0.0
C30 C 0.19281 0.65938 0.03911 0.0
C31 C 0.20726 0.64941 0.005 0.0
C32 C 0.19672 0.65481 0.96566 0.0
C33 C 0.17254 0.67053 0.9604 0.0
C34 C 0.15873 0.6811 0.9948 0.0
C35 C 0.16872 0.67503 0.03334 0.0
C36 C 0.15137 0.68788 0.0664 0.0
C37 C 0.12923 0.70254 0.04139 0.0
C38 C 0.13379 0.69883 -0.00054 0.0
C39 C 0.16788 0.71215 0.09045 0.0
C40 C 0.14103 0.66069 0.09251 0.0
H41 H 0.04332 0.76369 0.96846 0.0
H42 H 0.09936 0.73839 0.84889 0.0
H43 H 0.0937 0.67546 0.90136 0.0
H44 H 0.12417 0.66328 0.92245 0.0
H45 H 0.12367 0.68174 0.87304 0.0
H46 H 0.14163 0.75684 0.91877 0.0
H47 H 0.14635 0.73022 0.87749 0.0
H48 H 0.16186 0.72416 0.92638 0.0
H49 H 0.0462 0.77551 0.12019 0.0
H50 H 0.10568 0.73383 0.19871 0.0
H51 H 0.12518 0.70838 0.14087 0.0
H52 H 0.08701 0.79615 0.05254 0.0
H53 H 0.05136 0.79811 0.04843 0.0
H54 H 0.07179 0.79045 0.00479 0.0
H55 H 0.03605 0.71684 0.06243 0.0
H56 H 0.03677 0.7264 0.01042 0.0
H57 H 0.02349 0.75369 0.04663 0.0
H58 H 0.03076 0.78278 0.90218 0.0
C59 C 0.05587 0.75766 0.94337 0.0
C60 C 0.59602 0.76051 0.63989 0.0
C61 C 0.57619 0.73777 0.64383 0.0
C62 C 0.56221 0.72799 0.60869 0.0
C63 C 0.58885 0.76176 0.56662 0.0
C64 C 0.60197 0.77215 0.60114 0.0
C65 C 0.62314 0.79552 0.59125 0.0
H66 H 0.69646 0.86934 0.44907 0.0
C67 C 0.60085 0.77695 0.53089 0.0
C68 C 0.62081 0.79699 0.54506 0.0
H69 H 0.70343 0.87507 0.58041 0.0
H70 H 0.66496 0.84242 0.58775 0.0
H71 H 0.68536 0.79696 0.44574 0.0
H72 H 0.63188 0.87462 0.4455 0.0
H73 H 0.619 0.84736 0.411 0.0
H74 H 0.6512 0.86444 0.40166 0.0
H75 H 0.68225 0.82275 0.40315 0.0
H76 H 0.6605 0.79005 0.4089 0.0
C77 C 0.65037 0.78231 0.60538 0.0
C78 C 0.61547 0.82652 0.6115 0.0
C79 C 0.57237 0.74396 0.38877 0.0
C80 C 0.58107 0.75192 0.34949 0.0
C81 C 0.60049 0.77522 0.34537 0.0
C82 C 0.61151 0.78973 0.37981 0.0
C83 C 0.60318 0.78075 0.4189 0.0
C84 C 0.5836 0.75857 0.42278 0.0
C85 C 0.57728 0.75168 0.46655 0.0
C86 C 0.59643 0.77323 0.48839 0.0
C87 C 0.61169 0.79005 0.4604 0.0
C88 C 0.58396 0.7173 0.47468 0.0
C89 C 0.54781 0.76055 0.47419 0.0
C90 C 0.68972 0.86352 0.47941 0.0
C91 C 0.70317 0.87471 0.51418 0.0
C92 C 0.69336 0.86704 0.55309 0.0
C93 C 0.67113 0.84779 0.55733 0.0
C94 C 0.65858 0.83584 0.52233 0.0
C95 C 0.66758 0.84422 0.48418 0.0
C96 C 0.65169 0.82936 0.45043 0.0
C97 C 0.63188 0.81041 0.47466 0.0
C98 C 0.63619 0.8141 0.51676 0.0
C99 C 0.67079 0.80879 0.42537 0.0
C100 C 0.63778 0.85512 0.42547 0.0
H101 H 0.55728 0.7311 0.54472 0.0
H102 H 0.60689 0.76885 0.66632 0.0
H103 H 0.59345 0.8293 0.61275 0.0
H104 H 0.6225 0.84674 0.59412 0.0
H105 H 0.62324 0.8279 0.64324 0.0
H106 H 0.65154 0.75717 0.59891 0.0
H107 H 0.65331 0.78551 0.63871 0.0
H108 H 0.66746 0.79247 0.58929 0.0
H109 H 0.55776 0.7259 0.39318 0.0
H110 H 0.60728 0.78214 0.31546 0.0
H111 H 0.62638 0.80705 0.37468 0.0
H112 H 0.60196 0.71016 0.45746 0.0
H113 H 0.56727 0.70208 0.46502 0.0
H114 H 0.58893 0.71242 0.50685 0.0
H115 H 0.54174 0.78053 0.45497 0.0
H116 H 0.54423 0.7682 0.50584 0.0
H117 H 0.5342 0.74112 0.4668 0.0
H118 H 0.54707 0.71027 0.61067 0.0
C119 C 0.56835 0.73992 0.57025 0.0
C120 C 0.9115 0.26524 0.15115 0.0
C121 C 0.93217 0.24366 0.1563 0.0
C122 C 0.94714 0.23467 0.12209 0.0
C123 C 0.91938 0.26623 0.07822 0.0
C124 C 0.90554 0.27627 0.11197 0.0
C125 C 0.88366 0.29848 0.10079 0.0
H126 H 0.80817 0.36602 0.95448 0.0
C127 C 0.90686 0.27998 0.04165 0.0
C128 C 0.88612 0.29922 0.05464 0.0
H129 H 0.80195 0.37572 0.08536 0.0
H130 H 0.841 0.34417 0.09466 0.0
H131 H 0.87328 0.37234 0.95087 0.0
H132 H 0.81975 0.29482 0.95514 0.0
H133 H 0.84528 0.28523 0.92117 0.0
H134 H 0.8239 0.31757 0.90993 0.0
H135 H 0.85241 0.36153 0.90855 0.0
H136 H 0.88487 0.34456 0.91618 0.0
C137 C 0.89022 0.33016 0.1203 0.0
C138 C 0.85683 0.28432 0.11452 0.0
C139 C 0.93504 0.24327 0.9016 0.0
C140 C 0.92493 0.24854 0.86216 0.0
C141 C 0.90439 0.27033 0.85668 0.0
C142 C 0.89363 0.28604 0.89012 0.0
C143 C 0.90327 0.27962 0.92958 0.0
C144 C 0.92388 0.25883 0.93469 0.0
C145 C 0.93096 0.25393 0.9788 0.0
C146 C 0.91114 0.27512 -0.00059 0.0
C147 C 0.89494 0.29007 0.97048 0.0
C148 C 0.96008 0.26475 0.98568 0.0
C149 C 0.92585 0.21952 0.98908 0.0
C150 C 0.8152 0.36133 0.98515 0.0
C151 C 0.80182 0.37331 0.01922 0.0
C152 C 0.81197 0.36705 0.05856 0.0
C153 C 0.83455 0.34848 0.06394 0.0
C154 C 0.84711 0.33581 0.02967 0.0
C155 C 0.83771 0.34275 0.99106 0.0
C156 C 0.85364 0.32725 0.95823 0.0
C157 C 0.87415 0.30988 0.98354 0.0
C158 C 0.87001 0.31472 0.02537 0.0
C159 C 0.86668 0.35256 0.9317 0.0
C160 C 0.83482 0.30516 0.9345 0.0
H161 H 0.9527 0.23762 0.05831 0.0
H162 H 0.89993 0.27299 0.17696 0.0
H163 H 0.85622 0.25921 0.10764 0.0
H164 H 0.83941 0.29416 0.09856 0.0
H165 H 0.85403 0.28716 0.14788 0.0
H166 H 0.9121 0.33353 0.12363 0.0
H167 H 0.88136 0.33223 0.15112 0.0
H168 H 0.8835 0.34974 0.10124 0.0
H169 H 0.95053 0.22632 0.90689 0.0
H170 H 0.89645 0.27496 0.8265 0.0
H171 H 0.87785 0.3021 0.88404 0.0
H172 H 0.9651 0.28433 0.96519 0.0
H173 H 0.97443 0.24588 0.97943 0.0
H174 H 0.96362 0.27372 0.0168 0.0
H175 H 0.90788 0.21081 0.97269 0.0
H176 H 0.92165 0.21542 0.02158 0.0
H177 H 0.94299 0.20494 0.97993 0.0
H178 H 0.96306 0.21795 0.12515 0.0
C179 C 0.94093 0.2459 0.08318 0.0
C180 C 0.41833 0.25603 0.37939 0.0
C181 C 0.44072 0.27552 0.37853 0.0
C182 C 0.45502 0.28092 0.415 0.0
C183 C 0.42341 0.24989 0.4526 0.0
C184 C 0.41009 0.24349 0.41659 0.0
C185 C 0.38613 0.22327 0.42311 0.0
H186 H 0.30004 0.15623 0.55363 0.0
C187 C 0.40861 0.23521 0.48621 0.0
C188 C 0.38689 0.21931 0.46912 0.0
H189 H 0.29817 0.15485 0.42173 0.0
H190 H 0.33967 0.18269 0.4198 0.0
H191 H 0.36345 0.14067 0.5618 0.0
H192 H 0.31878 0.22536 0.56302 0.0
H193 H 0.34331 0.22812 0.60122 0.0
H194 H 0.31827 0.19849 0.60463 0.0
H195 H 0.34349 0.15198 0.60446 0.0
H196 H 0.37767 0.16436 0.59957 0.0
C197 C 0.39072 0.19235 0.40053 0.0
C198 C 0.36113 0.2413 0.40871 0.0
C199 C 0.43487 0.25849 0.6327 0.0
C200 C 0.42318 0.25134 0.67036 0.0
C201 C 0.40113 0.2312 0.67116 0.0
C202 C 0.39036 0.21924 0.63491 0.0
C203 C 0.40156 0.22773 0.59737 0.0
C204 C 0.42374 0.2466 0.59678 0.0
C205 C 0.43257 0.25391 0.55415 0.0
C206 C 0.41191 0.23651 0.52921 0.0
C207 C 0.39372 0.22135 0.55465 0.0
C208 C 0.46092 0.24057 0.54829 0.0
C209 C 0.43047 0.28928 0.54802 0.0
C210 C 0.30873 0.16156 0.52432 0.0
C211 C 0.29557 0.1536 0.48778 0.0
C212 C 0.30756 0.16125 0.45033 0.0
C213 C 0.33175 0.17731 0.44925 0.0
C214 C 0.34417 0.18601 0.48599 0.0
C215 C 0.33291 0.17763 0.52269 0.0
C216 C 0.34907 0.18867 0.55864 0.0
C217 C 0.37181 0.2051 0.53741 0.0
C218 C 0.36864 0.20377 0.49487 0.0
C219 C 0.35888 0.1601 0.58277 0.0
C220 C 0.33158 0.2112 0.58356 0.0
H221 H 0.45796 0.27365 0.47872 0.0
H222 H 0.4072 0.25099 0.35177 0.0
H223 H 0.36245 0.26588 0.41821 0.0
H224 H 0.34246 0.23271 0.42208 0.0
H225 H 0.35918 0.24075 0.37495 0.0
H226 H 0.4123 0.18661 0.39903 0.0
H227 H 0.38298 0.19334 0.36875 0.0
H228 H 0.38161 0.17252 0.41642 0.0
H229 H 0.45159 0.27423 0.63098 0.0
H230 H 0.39196 0.22508 0.69985 0.0
H231 H 0.37334 0.20442 0.63749 0.0
H232 H 0.46364 0.21895 0.5661 0.0
H233 H 0.47642 0.25715 0.55865 0.0
H234 H 0.46489 0.23389 0.51637 0.0
H235 H 0.4127 0.29866 0.5639 0.0
H236 H 0.42772 0.2961 0.51589 0.0
H237 H 0.44831 0.30124 0.56051 0.0
H238 H 0.47225 0.29596 0.41524 0.0
C239 C 0.44654 0.26815 0.45193 0.0
O240 O 0.93762 0.00354 0.50588 0.0
Zn241 Zn 0.97099 0.02959 0.50903 0.0
O242 O 0.00311 0.00406 0.51274 0.0
Zn243 Zn 0.02279 0.0137 0.56309 0.0
Zn244 Zn 0.99296 0.96052 0.51241 0.0
Zn245 Zn 0.02573 0.01234 0.46582 0.0
O246 O 0.05991 0.02927 0.55089 0.0
O247 O 0.06208 0.02642 0.48344 0.0
O248 O 0.96807 0.05704 0.55804 0.0
O249 O 0.00379 0.04645 0.59582 0.0
O250 O 0.02695 0.97565 0.59801 0.0
O251 O 0.00672 0.93876 0.56248 0.0
O252 O 0.00745 0.93842 0.46325 0.0
O253 O 0.97197 0.05761 0.46001 0.0
O254 O 0.03022 0.97469 0.43095 0.0
O255 O 0.01026 0.04576 0.4305 0.0
C256 C 0.93374 0.97453 0.5073 0.0
C257 C 0.07277 0.03255 0.5178 0.0
C258 C 0.01979 0.94763 0.59378 0.0
C259 C 0.98233 0.06152 0.58975 0.0
C260 C 0.02188 0.94706 0.43359 0.0
C261 C 0.98894 0.06159 0.4318 0.0
O262 O 0.95314 0.95576 0.51042 0.0
O263 O 0.5678 0.50219 0.00058 0.0
Zn264 Zn 0.53486 0.52886 0.00157 0.0
O265 O 0.50239 0.50396 0.00517 0.0
Zn266 Zn 0.48067 0.51055 0.95637 0.0
Zn267 Zn 0.51202 0.46033 0.00873 0.0
Zn268 Zn 0.48198 0.51607 0.05345 0.0
O269 O 0.44441 0.52629 0.97074 0.0
O270 O 0.44497 0.53076 0.03812 0.0
O271 O 0.53469 0.55528 0.95094 0.0
O272 O 0.49721 0.54195 0.91929 0.0
O273 O 0.47524 0.47119 0.92507 0.0
O274 O 0.49616 0.43586 0.96224 0.0
O275 O 0.49894 0.44161 0.06107 0.0
O276 O 0.53795 0.55751 0.04955 0.0
O277 O 0.47778 0.48001 0.09175 0.0
O278 O 0.50066 0.55024 0.08434 0.0
C279 C 0.57135 0.47317 0.00303 0.0
C280 C 0.43294 0.53332 0.00394 0.0
C281 C 0.48221 0.44335 0.93122 0.0
C282 C 0.51845 0.55795 0.92114 0.0
C283 C 0.48555 0.45205 0.09089 0.0
C284 C 0.52288 0.56396 0.07945 0.0
O285 O 0.55175 0.45474 0.00655 0.0
C286 C 0.26351 0.11498 0.51703 0.0
C287 C 0.26908 0.13832 0.48857 0.0
C288 C 0.23839 0.10099 0.51792 0.0
C289 C 0.21824 0.11025 0.49046 0.0
C290 C 0.22395 0.13333 0.46184 0.0
C291 C 0.24899 0.14731 0.46099 0.0
C292 C 0.19134 0.09591 0.48963 0.0
C293 C 0.18036 0.08118 0.52158 0.0
C294 C 0.15304 0.0679 0.52009 0.0
C295 C 0.13864 0.06479 0.55642 0.0
C296 C 0.11264 0.05312 0.55589 0.0
C297 C 0.10058 0.04408 0.51895 0.0
H298 H 0.152 0.05884 0.45485 0.0
C299 C 0.11531 0.04639 0.48275 0.0
C300 C 0.14125 0.058 0.48331 0.0
H301 H 0.10682 0.03924 0.45381 0.0
H302 H 0.27871 0.10716 0.53823 0.0
H303 H 0.23511 0.08263 0.53962 0.0
H304 H 0.20888 0.14083 0.44021 0.0
H305 H 0.25245 0.16551 0.43905 0.0
H306 H 0.17961 0.09921 0.46204 0.0
H307 H 0.19091 0.08034 0.55056 0.0
H308 H 0.14736 0.07188 0.58524 0.0
H309 H 0.10195 0.05147 0.58438 0.0
C310 C 0.2407 0.60872 0.98666 0.0
C311 C 0.2336 0.63435 0.0104 0.0
C312 C 0.26577 0.59507 0.99119 0.0
C313 C 0.28444 0.60703 0.01931 0.0
C314 C 0.27707 0.63221 0.0436 0.0
C315 C 0.252 0.6458 0.03914 0.0
C316 C 0.31163 0.59391 0.02445 0.0
C317 C 0.32414 0.57783 0.9951 0.0
C318 C 0.35198 0.56635 -0.00117 0.0
C319 C 0.36584 0.55929 0.96302 0.0
C320 C 0.39205 0.54865 0.96474 0.0
C321 C 0.40508 0.54461 0.00246 0.0
H322 H 0.35466 0.56605 0.06513 0.0
C323 C 0.39113 0.55123 0.03844 0.0
C324 C 0.36483 0.56186 0.03671 0.0
H325 H 0.40046 0.54806 0.06802 0.0
H326 H 0.22673 0.59899 0.96486 0.0
H327 H 0.27021 0.57499 0.97292 0.0
H328 H 0.29094 0.6418 0.06568 0.0
H329 H 0.24724 0.66568 0.05767 0.0
H330 H 0.32224 0.59964 0.05238 0.0
H331 H 0.31432 0.57451 0.96584 0.0
H332 H 0.35642 0.56227 0.93344 0.0
H333 H 0.4021 0.54366 0.93637 0.0
C334 C 0.74747 0.88395 0.48146 0.0
C335 C 0.72821 0.8927 0.51014 0.0
C336 C 0.77194 0.89921 0.47966 0.0
C337 C 0.77781 0.92346 0.50679 0.0
C338 C 0.75814 0.93308 0.53422 0.0
C339 C 0.73365 0.91777 0.53607 0.0
C340 C 0.80426 0.93889 0.50752 0.0
C341 C 0.82687 0.92424 0.49699 0.0
C342 C 0.85388 0.93816 0.49999 0.0
C343 C 0.87597 0.91839 0.50209 0.0
C344 C 0.90178 0.9302 0.50469 0.0
C345 C 0.90621 0.9622 0.5049 0.0
H346 H 0.84184 0.98628 0.49714 0.0
C347 C 0.88413 0.98209 0.50238 0.0
C348 C 0.85823 0.97023 0.49987 0.0
H349 H 0.88682 0.00687 0.50213 0.0
H350 H 0.74397 0.86469 0.4611 0.0
H351 H 0.78619 0.89181 0.45708 0.0
H352 H 0.76198 0.95198 0.55504 0.0
H353 H 0.71905 0.92542 0.55803 0.0
H354 H 0.80524 0.962 0.52011 0.0
H355 H 0.8259 0.90014 0.48815 0.0
H356 H 0.87325 0.8936 0.50195 0.0
H357 H 0.91828 0.91415 0.5064 0.0
C358 C 0.75726 0.38099 0.98572 0.0
C359 C 0.77661 0.39084 0.01405 0.0
C360 C 0.73273 0.39602 0.98274 0.0
C361 C 0.72689 0.42114 0.00832 0.0
C362 C 0.74661 0.43176 0.03544 0.0
C363 C 0.77116 0.41668 0.03846 0.0
C364 C 0.70046 0.43658 0.00768 0.0
C365 C 0.67782 0.42172 0.99729 0.0
C366 C 0.65089 0.43588 -0.0011 0.0
C367 C 0.62867 0.41636 0.00158 0.0
C368 C 0.60293 0.42846 0.00309 0.0
C369 C 0.59875 0.46048 0.00159 0.0
H370 H 0.66326 0.48378 0.99367 0.0
C371 C 0.62096 0.48009 0.99839 0.0
C372 C 0.64676 0.46795 0.99696 0.0
H373 H 0.61846 0.50486 0.99682 0.0
H374 H 0.76078 0.36111 0.96652 0.0
H375 H 0.71843 0.3878 0.96042 0.0
H376 H 0.74279 0.45133 0.05506 0.0
H377 H 0.78582 0.42517 0.06009 0.0
H378 H 0.69953 0.46004 0.01908 0.0
H379 H 0.6787 0.39738 0.98968 0.0
H380 H 0.63122 0.39157 0.00281 0.0
H381 H 0.58632 0.41262 0.00536 0.0
C382 C 0.05761 0.80659 0.19316 0.0
C383 C 0.06464 0.77553 0.199 0.0
C384 C 0.04997 0.82487 0.22603 0.0
C385 C 0.04957 0.81268 0.26577 0.0
C386 C 0.05567 0.78139 0.27148 0.0
C387 C 0.06325 0.763 0.23848 0.0
C388 C 0.04277 0.83201 0.30165 0.0
C389 C 0.04719 0.86266 0.30256 0.0
C390 C 0.04091 0.88307 0.33762 0.0
C391 C 0.05204 0.91276 0.33831 0.0
C392 C 0.04609 0.93335 0.36962 0.0
C393 C 0.02875 0.92478 0.4011 0.0
H394 H 0.01394 0.8521 0.36943 0.0
C395 C 0.01764 0.89501 0.40064 0.0
C396 C 0.02354 0.8744 0.36917 0.0
H397 H 0.00403 0.88773 0.42427 0.0
H398 H 0.05862 0.81712 0.16327 0.0
H399 H 0.04443 0.84855 0.22001 0.0
H400 H 0.0551 0.77128 0.30167 0.0
H401 H 0.06813 0.73903 0.24392 0.0
H402 H 0.03538 0.82026 0.32848 0.0
H403 H 0.05687 0.87351 0.27674 0.0
H404 H 0.06537 0.92018 0.31436 0.0
H405 H 0.05502 0.95608 0.36895 0.0
C406 C 0.54489 0.71511 0.69512 0.0
C407 C 0.571 0.72285 0.68375 0.0
C408 C 0.54022 0.69807 0.73049 0.0
C409 C 0.56163 0.68828 0.75518 0.0
C410 C 0.58756 0.69749 0.74508 0.0
C411 C 0.59225 0.71445 0.70961 0.0
C412 C 0.55764 0.66803 0.79114 0.0
C413 C 0.53802 0.6468 0.79254 0.0
C414 C 0.53384 0.62453 0.8265 0.0
C415 C 0.51085 0.60607 0.82536 0.0
C416 C 0.50595 0.58442 0.85588 0.0
C417 C 0.52399 0.58059 0.88842 0.0
H418 H 0.57022 0.63379 0.86118 0.0
C419 C 0.5471 0.5989 0.88962 0.0
C420 C 0.55203 0.6206 0.85903 0.0
H421 H 0.56146 0.5965 0.91422 0.0
H422 H 0.52803 0.72194 0.67641 0.0
H423 H 0.51985 0.69253 0.73824 0.0
H424 H 0.60437 0.69054 0.76386 0.0
H425 H 0.61262 0.71989 0.70165 0.0
H426 H 0.57222 0.66972 0.81554 0.0
H427 H 0.52437 0.64501 0.76681 0.0
H428 H 0.49651 0.6084 0.80071 0.0
H429 H 0.48792 0.57074 0.85391 0.0
C430 C 0.96311 0.22325 0.21026 0.0
C431 C 0.93701 0.22877 0.19636 0.0
C432 C 0.96767 0.20602 0.2456 0.0
C433 C 0.94616 0.19359 0.26752 0.0
C434 C 0.92008 0.20058 0.25484 0.0
C435 C 0.91553 0.21791 0.21957 0.0
C436 C 0.95005 0.17266 0.30298 0.0
C437 C 0.97188 0.15483 0.30763 0.0
C438 C 0.9755 0.13142 0.34043 0.0
C439 C 0.99663 0.11039 0.33684 0.0
C440 C 0.00091 0.08771 0.36634 0.0
C441 C 0.98411 0.08544 0.4003 0.0
H442 H 0.94272 0.14544 0.37959 0.0
C443 C 0.96304 0.10655 0.40419 0.0
C444 C 0.95885 0.12941 0.37476 0.0
H445 H 0.9499 0.10567 0.43024 0.0
H446 H 0.98004 0.23195 0.19347 0.0
H447 H 0.98806 0.20236 0.25534 0.0
H448 H 0.90314 0.19164 0.2714 0.0
H449 H 0.89518 0.22165 0.20955 0.0
H450 H 0.93341 0.1702 0.3236 0.0
H451 H 0.98743 0.15598 0.28485 0.0
H452 H 0.00988 0.11137 0.31092 0.0
H453 H 0.01738 0.07189 0.36238 0.0
C454 C 0.41411 0.28002 0.73501 0.0
C455 C 0.43258 0.26698 0.70802 0.0
C456 C 0.42277 0.298 0.76782 0.0
C457 C 0.45011 0.30339 0.77427 0.0
C458 C 0.46861 0.28892 0.74873 0.0
C459 C 0.45995 0.27109 0.7157 0.0
C460 C 0.45982 0.32466 0.80656 0.0
C461 C 0.44605 0.34999 0.81741 0.0
C462 C 0.45609 0.37333 0.84682 0.0
C463 C 0.44644 0.4036 0.84379 0.0
C464 C 0.45514 0.42634 0.87087 0.0
C465 C 0.47347 0.41923 0.90206 0.0
H466 H 0.48173 0.34283 0.88206 0.0
C467 C 0.48296 0.38882 0.90543 0.0
C468 C 0.47438 0.36608 0.87808 0.0
H469 H 0.49697 0.38251 0.92926 0.0
H470 H 0.39289 0.27735 0.72987 0.0
H471 H 0.40798 0.308 0.78774 0.0
H472 H 0.4898 0.29237 0.7534 0.0
H473 H 0.47464 0.26096 0.69571 0.0
H474 H 0.47972 0.32089 0.81873 0.0
H475 H 0.42737 0.35514 0.80191 0.0
H476 H 0.43221 0.40976 0.82017 0.0
H477 H 0.44727 0.44945 0.8675 0.0
C478 C 0.58843 0.72544 0.28245 0.0
C479 C 0.57094 0.73469 0.31341 0.0
C480 C 0.57948 0.70679 0.25042 0.0
C481 C 0.5528 0.69671 0.24883 0.0
C482 C 0.53509 0.70713 0.27877 0.0
C483 C 0.54404 0.72582 0.31076 0.0
C484 C 0.5427 0.67517 0.21695 0.0
C485 C 0.55852 0.65591 0.19581 0.0
C486 C 0.54835 0.63312 0.16567 0.0
C487 C 0.56551 0.62292 0.1349 0.0
C488 C 0.55716 0.60072 0.10675 0.0
C489 C 0.5315 0.58784 0.10906 0.0
H490 H 0.50911 0.62673 0.19215 0.0
C491 C 0.51434 0.59785 0.14009 0.0
C492 C 0.52266 0.62024 0.16811 0.0
H493 H 0.4945 0.5883 0.14291 0.0
H494 H 0.60929 0.73181 0.28357 0.0
H495 H 0.59363 0.70035 0.22724 0.0
H496 H 0.51436 0.70017 0.27801 0.0
H497 H 0.52992 0.73303 0.33368 0.0
H498 H 0.5213 0.67447 0.212 0.0
H499 H 0.57992 0.65652 0.20048 0.0
H500 H 0.58549 0.63221 0.13256 0.0
H501 H 0.57097 0.59347 0.0834 0.0
C502 C 0.9162 0.21571 0.80081 0.0
C503 C 0.93452 0.22968 0.82755 0.0
C504 C 0.92488 0.19548 0.77054 0.0
C505 C 0.95224 0.18907 0.76595 0.0
C506 C 0.97054 0.20362 0.79227 0.0
C507 C 0.9618 0.22364 0.82276 0.0
C508 C 0.96249 0.16628 0.73586 0.0
C509 C 0.9479 0.15463 0.70481 0.0
C510 C 0.95775 0.13085 0.67586 0.0
C511 C 0.94377 0.12649 0.6391 0.0
C512 C 0.95171 0.10399 0.61131 0.0
C513 C 0.97387 0.08514 0.61963 0.0
H514 H 0.99066 0.11348 0.71294 0.0
C515 C 0.98781 0.08927 0.65654 0.0
C516 C 0.97978 0.11173 0.68448 0.0
H517 H 0.00483 0.07496 0.66408 0.0
H518 H 0.895 0.21945 0.80432 0.0
H519 H 0.90986 0.18434 0.752 0.0
H520 H 0.99169 0.19913 0.78966 0.0
H521 H 0.97639 0.23418 0.84288 0.0
H522 H 0.98314 0.15933 0.73938 0.0
H523 H 0.92796 0.16329 0.69918 0.0
H524 H 0.9266 0.14062 0.63174 0.0
H525 H 0.94046 0.10149 0.5832 0.0
C526 C 0.4285 0.30547 0.31586 0.0
C527 C 0.44822 0.29174 0.34046 0.0
C528 C 0.4355 0.32276 0.28165 0.0
C529 C 0.46245 0.32678 0.27136 0.0
C530 C 0.48209 0.31207 0.29499 0.0
C531 C 0.47509 0.29491 0.32938 0.0
C532 C 0.47065 0.34609 0.2362 0.0
C533 C 0.45648 0.37072 0.22353 0.0
C534 C 0.46477 0.39113 0.18951 0.0
C535 C 0.45512 0.42148 0.18839 0.0
C536 C 0.46206 0.44134 0.15666 0.0
C537 C 0.4786 0.43116 0.12498 0.0
H538 H 0.48845 0.35735 0.15683 0.0
C539 C 0.48809 0.40066 0.12588 0.0
C540 C 0.48124 0.38083 0.15774 0.0
H541 H 0.50072 0.39196 0.10183 0.0
H542 H 0.40762 0.30356 0.32366 0.0
H543 H 0.41975 0.3329 0.2634 0.0
H544 H 0.50297 0.31444 0.28738 0.0
H545 H 0.49071 0.28423 0.34742 0.0
H546 H 0.48976 0.34105 0.2224 0.0
H547 H 0.43876 0.37739 0.24017 0.0
H548 H 0.44223 0.42994 0.21228 0.0
H549 H 0.45426 0.46462 0.15687 0.0
C550 C 0.07795 0.79196 0.80837 0.0
C551 C 0.0578 0.77736 0.83081 0.0
C552 C 0.0716 0.80936 0.77379 0.0
C553 C 0.04493 0.81254 0.76099 0.0
C554 C 0.025 0.79652 0.78205 0.0
C555 C 0.03132 0.77928 0.81681 0.0
C556 C 0.0372 0.83287 0.72645 0.0
C557 C 0.05063 0.85888 0.71746 0.0
C558 C 0.04212 0.88105 0.68539 0.0
C559 C 0.05062 0.9118 0.68841 0.0
C560 C 0.04317 0.93347 0.65896 0.0
C561 C 0.02724 0.92478 0.62547 0.0
H562 H 0.01999 0.8486 0.64763 0.0
C563 C 0.01894 0.89389 0.62218 0.0
C564 C 0.02632 0.87224 0.65174 0.0
H565 H 0.00684 0.88632 0.5966 0.0
H566 H 0.09854 0.79096 0.81841 0.0
H567 H 0.0876 0.82054 0.75748 0.0
H568 H 0.00436 0.79821 0.77246 0.0
H569 H 0.01543 0.7679 0.83316 0.0
H570 H 0.01869 0.82764 0.7106 0.0
H571 H 0.06764 0.86544 0.73621 0.0
H572 H 0.06295 0.91919 0.71385 0.0
H573 H 0.05007 0.95699 0.6624 0.0
loop_
_geom_bond_atom_site_label_1
_geom_bond_atom_site_label_2
_geom_bond_distance
_geom_bond_site_symmetry_2
_ccdc_geom_bond_type
C0 C1 1.391 . S
C0 C4 1.391 . S
C0 H42 0.948 . S
C1 C0 1.391 . S
C1 C2 1.391 . S
C2 C1 1.391 . S
C2 H58 0.947 . S
C2 C59 1.392 . S
C3 C4 1.391 . S
C3 C7 1.397 . S
C3 C59 1.419 . S
C4 C0 1.391 . S
C4 C3 1.391 . S
C4 C5 1.399 . S
C5 C4 1.399 . S
C5 C8 1.396 . S
C5 C17 1.453 . S
C5 C18 1.684 . S
H6 C30 0.948 . S
C7 C3 1.397 . S
C7 C8 1.394 . S
C7 C26 1.723 1_556 S
C8 C5 1.396 . S
C8 C7 1.394 . S
C8 C38 1.723 1_556 S
H9 C32 0.947 . S
H10 C33 0.948 . S
H11 C39 0.982 . S
H12 C40 0.979 . S
H13 C40 0.980 . S
H14 C40 0.983 . S
H15 C39 0.979 . S
H16 C39 0.977 . S
C17 C5 1.453 . S
C17 H46 0.982 . S
C17 H47 0.979 . S
C17 H48 0.977 . S
C18 C5 1.684 . S
C18 H43 0.979 . S
C18 H44 0.980 . S
C18 H45 0.983 . S
C19 C20 1.391 . S
C19 C24 1.391 . S
C19 H49 0.948 . S
C20 C19 1.391 . S
C20 C21 1.391 . S
C21 C20 1.391 . S
C21 C22 1.392 . S
C21 H50 0.947 . S
C22 C21 1.392 . S
C22 C23 1.419 . S
C22 H51 0.948 . S
C23 C22 1.419 . S
C23 C24 1.391 . S
C23 C27 1.397 . S
C24 C19 1.391 . S
C24 C23 1.391 . S
C24 C25 1.399 . S
C25 C24 1.399 . S
C25 C26 1.396 . S
C25 C28 1.453 . S
C25 C29 1.684 . S
C26 C7 1.723 1_554 S
C26 C25 1.396 . S
C26 C27 1.394 . S
C27 C23 1.397 . S
C27 C26 1.394 . S
C27 C37 1.723 . S
C28 C25 1.453 . S
C28 H52 0.982 . S
C28 H53 0.979 . S
C28 H54 0.977 . S
C29 C25 1.684 . S
C29 H55 0.979 . S
C29 H56 0.980 . S
C29 H57 0.983 . S
C30 H6 0.948 . S
C30 C31 1.391 . S
C30 C35 1.391 . S
C31 C30 1.391 . S
C31 C32 1.391 1_554 S
C32 H9 0.947 . S
C32 C31 1.391 1_556 S
C32 C33 1.392 . S
C33 H10 0.948 . S
C33 C32 1.392 . S
C33 C34 1.419 . S
C34 C33 1.419 . S
C34 C35 1.391 1_556 S
C34 C38 1.397 1_556 S
C35 C30 1.391 . S
C35 C34 1.391 1_554 S
C35 C36 1.399 . S
C36 C35 1.399 . S
C36 C37 1.396 . S
C36 C39 1.453 . S
C36 C40 1.684 . S
C37 C27 1.723 . S
C37 C36 1.396 . S
C37 C38 1.394 . S
C38 C8 1.723 1_554 S
C38 C34 1.397 1_554 S
C38 C37 1.394 . S
C39 H11 0.982 . S
C39 H15 0.979 . S
C39 H16 0.977 . S
C39 C36 1.453 . S
C40 H12 0.979 . S
C40 H13 0.980 . S
C40 H14 0.983 . S
C40 C36 1.684 . S
H41 C59 0.948 . S
H42 C0 0.948 . S
H43 C18 0.979 . S
H44 C18 0.980 . S
H45 C18 0.983 . S
H46 C17 0.982 . S
H47 C17 0.979 . S
H48 C17 0.977 . S
H49 C19 0.948 . S
H50 C21 0.947 . S
H51 C22 0.948 . S
H52 C28 0.982 . S
H53 C28 0.979 . S
H54 C28 0.977 . S
H55 C29 0.979 . S
H56 C29 0.980 . S
H57 C29 0.983 . S
H58 C2 0.947 . S
C59 C2 1.392 . S
C59 C3 1.419 . S
C59 H41 0.948 . S
C60 C61 1.391 . S
C60 C64 1.391 . S
C60 H102 0.948 . S
C61 C60 1.391 . S
C61 C62 1.391 . S
C62 C61 1.391 . S
C62 H118 0.947 . S
C62 C119 1.392 . S
C63 C64 1.391 . S
C63 C67 1.397 . S
C63 C119 1.419 . S
C64 C60 1.391 . S
C64 C63 1.391 . S
C64 C65 1.399 . S
C65 C64 1.399 . S
C65 C68 1.396 . S
C65 C77 1.453 . S
C65 C78 1.684 . S
H66 C90 0.948 . S
C67 C63 1.397 . S
C67 C68 1.394 . S
C67 C86 1.723 . S
C68 C65 1.396 . S
C68 C67 1.394 . S
C68 C98 1.723 . S
H69 C92 0.947 . S
H70 C93 0.948 . S
H71 C99 0.982 . S
H72 C100 0.979 . S
H73 C100 0.980 . S
H74 C100 0.983 . S
H75 C99 0.979 . S
H76 C99 0.977 . S
C77 C65 1.453 . S
C77 H106 0.982 . S
C77 H107 0.979 . S
C77 H108 0.977 . S
C78 C65 1.684 . S
C78 H103 0.979 . S
C78 H104 0.980 . S
C78 H105 0.983 . S
C79 C80 1.391 . S
C79 C84 1.391 . S
C79 H109 0.948 . S
C80 C79 1.391 . S
C80 C81 1.391 . S
C81 C80 1.391 . S
C81 C82 1.392 . S
C81 H110 0.947 . S
C82 C81 1.392 . S
C82 C83 1.419 . S
C82 H111 0.948 . S
C83 C82 1.419 . S
C83 C84 1.391 . S
C83 C87 1.397 . S
C84 C79 1.391 . S
C84 C83 1.391 . S
C84 C85 1.399 . S
C85 C84 1.399 . S
C85 C86 1.396 . S
C85 C88 1.453 . S
C85 C89 1.684 . S
C86 C67 1.723 . S
C86 C85 1.396 . S
C86 C87 1.394 . S
C87 C83 1.397 . S
C87 C86 1.394 . S
C87 C97 1.723 . S
C88 C85 1.453 . S
C88 H112 0.982 . S
C88 H113 0.979 . S
C88 H114 0.977 . S
C89 C85 1.684 . S
C89 H115 0.979 . S
C89 H116 0.980 . S
C89 H117 0.983 . S
C90 H66 0.948 . S
C90 C91 1.391 . S
C90 C95 1.391 . S
C91 C90 1.391 . S
C91 C92 1.391 . S
C92 H69 0.947 . S
C92 C91 1.391 . S
C92 C93 1.392 . S
C93 H70 0.948 . S
C93 C92 1.392 . S
C93 C94 1.419 . S
C94 C93 1.419 . S
C94 C95 1.391 . S
C94 C98 1.397 . S
C95 C90 1.391 . S
C95 C94 1.391 . S
C95 C96 1.399 . S
C96 C95 1.399 . S
C96 C97 1.396 . S
C96 C99 1.453 . S
C96 C100 1.684 . S
C97 C87 1.723 . S
C97 C96 1.396 . S
C97 C98 1.394 . S
C98 C68 1.723 . S
C98 C94 1.397 . S
C98 C97 1.394 . S
C99 H71 0.982 . S
C99 H75 0.979 . S
C99 H76 0.977 . S
C99 C96 1.453 . S
C100 H72 0.979 . S
C100 H73 0.980 . S
C100 H74 0.983 . S
C100 C96 1.684 . S
H101 C119 0.948 . S
H102 C60 0.948 . S
H103 C78 0.979 . S
H104 C78 0.980 . S
H105 C78 0.983 . S
H106 C77 0.982 . S
H107 C77 0.979 . S
H108 C77 0.977 . S
H109 C79 0.948 . S
H110 C81 0.947 . S
H111 C82 0.948 . S
H112 C88 0.982 . S
H113 C88 0.979 . S
H114 C88 0.977 . S
H115 C89 0.979 . S
H116 C89 0.980 . S
H117 C89 0.983 . S
H118 C62 0.947 . S
C119 C62 1.392 . S
C119 C63 1.419 . S
C119 H101 0.948 . S
C120 C121 1.391 . S
C120 C124 1.391 . S
C120 H162 0.948 . S
C121 C120 1.391 . S
C121 C122 1.391 . S
C122 C121 1.391 . S
C122 H178 0.947 . S
C122 C179 1.392 . S
C123 C124 1.391 . S
C123 C127 1.397 . S
C123 C179 1.419 . S
C124 C120 1.391 . S
C124 C123 1.391 . S
C124 C125 1.399 . S
C125 C124 1.399 . S
C125 C128 1.396 . S
C125 C137 1.453 . S
C125 C138 1.684 . S
H126 C150 0.948 . S
C127 C123 1.397 . S
C127 C128 1.394 . S
C127 C146 1.723 1_554 S
C128 C125 1.396 . S
C128 C127 1.394 . S
C128 C158 1.723 . S
H129 C152 0.947 . S
H130 C153 0.948 . S
H131 C159 0.982 . S
H132 C160 0.979 . S
H133 C160 0.980 . S
H134 C160 0.983 . S
H135 C159 0.979 . S
H136 C159 0.977 . S
C137 C125 1.453 . S
C137 H166 0.982 . S
C137 H167 0.979 . S
C137 H168 0.977 . S
C138 C125 1.684 . S
C138 H163 0.979 . S
C138 H164 0.980 . S
C138 H165 0.983 . S
C139 C140 1.391 . S
C139 C144 1.391 . S
C139 H169 0.948 . S
C140 C139 1.391 . S
C140 C141 1.391 . S
C141 C140 1.391 . S
C141 C142 1.392 . S
C141 H170 0.947 . S
C142 C141 1.392 . S
C142 C143 1.419 . S
C142 H171 0.948 . S
C143 C142 1.419 . S
C143 C144 1.391 . S
C143 C147 1.397 . S
C144 C139 1.391 . S
C144 C143 1.391 . S
C144 C145 1.399 . S
C145 C144 1.399 . S
C145 C146 1.396 . S
C145 C148 1.453 . S
C145 C149 1.684 . S
C146 C127 1.723 1_556 S
C146 C145 1.396 . S
C146 C147 1.394 . S
C147 C143 1.397 . S
C147 C146 1.394 . S
C147 C157 1.723 . S
C148 C145 1.453 . S
C148 H172 0.982 . S
C148 H173 0.979 . S
C148 H174 0.977 1_556 S
C149 C145 1.684 . S
C149 H175 0.979 . S
C149 H176 0.980 1_556 S
C149 H177 0.983 . S
C150 H126 0.948 . S
C150 C151 1.391 1_556 S
C150 C155 1.391 . S
C151 C150 1.391 1_554 S
C151 C152 1.391 . S
C152 H129 0.947 . S
C152 C151 1.391 . S
C152 C153 1.392 . S
C153 H130 0.948 . S
C153 C152 1.392 . S
C153 C154 1.419 . S
C154 C153 1.419 . S
C154 C155 1.391 1_554 S
C154 C158 1.397 . S
C155 C150 1.391 . S
C155 C154 1.391 1_556 S
C155 C156 1.399 . S
C156 C155 1.399 . S
C156 C157 1.396 . S
C156 C159 1.453 . S
C156 C160 1.684 . S
C157 C147 1.723 . S
C157 C156 1.396 . S
C157 C158 1.394 1_556 S
C158 C128 1.723 . S
C158 C154 1.397 . S
C158 C157 1.394 1_554 S
C159 H131 0.982 . S
C159 H135 0.979 . S
C159 H136 0.977 . S
C159 C156 1.453 . S
C160 H132 0.979 . S
C160 H133 0.980 . S
C160 H134 0.983 . S
C160 C156 1.684 . S
H161 C179 0.948 . S
H162 C120 0.948 . S
H163 C138 0.979 . S
H164 C138 0.980 . S
H165 C138 0.983 . S
H166 C137 0.982 . S
H167 C137 0.979 . S
H168 C137 0.977 . S
H169 C139 0.948 . S
H170 C141 0.947 . S
H171 C142 0.948 . S
H172 C148 0.982 . S
H173 C148 0.979 . S
H174 C148 0.977 1_554 S
H175 C149 0.979 . S
H176 C149 0.980 1_554 S
H177 C149 0.983 . S
H178 C122 0.947 . S
C179 C122 1.392 . S
C179 C123 1.419 . S
C179 H161 0.948 . S
C180 C181 1.391 . S
C180 C184 1.391 . S
C180 H222 0.948 . S
C181 C180 1.391 . S
C181 C182 1.391 . S
C182 C181 1.391 . S
C182 H238 0.947 . S
C182 C239 1.392 . S
C183 C184 1.391 . S
C183 C187 1.397 . S
C183 C239 1.419 . S
C184 C180 1.391 . S
C184 C183 1.391 . S
C184 C185 1.399 . S
C185 C184 1.399 . S
C185 C188 1.396 . S
C185 C197 1.453 . S
C185 C198 1.684 . S
H186 C210 0.948 . S
C187 C183 1.397 . S
C187 C188 1.394 . S
C187 C206 1.723 . S
C188 C185 1.396 . S
C188 C187 1.394 . S
C188 C218 1.723 . S
H189 C212 0.947 . S
H190 C213 0.948 . S
H191 C219 0.982 . S
H192 C220 0.979 . S
H193 C220 0.980 . S
H194 C220 0.983 . S
H195 C219 0.979 . S
H196 C219 0.977 . S
C197 C185 1.453 . S
C197 H226 0.982 . S
C197 H227 0.979 . S
C197 H228 0.977 . S
C198 C185 1.684 . S
C198 H223 0.979 . S
C198 H224 0.980 . S
C198 H225 0.983 . S
C199 C200 1.391 . S
C199 C204 1.391 . S
C199 H229 0.948 . S
C200 C199 1.391 . S
C200 C201 1.391 . S
C201 C200 1.391 . S
C201 C202 1.392 . S
C201 H230 0.947 . S
C202 C201 1.392 . S
C202 C203 1.419 . S
C202 H231 0.948 . S
C203 C202 1.419 . S
C203 C204 1.391 . S
C203 C207 1.397 . S
C204 C199 1.391 . S
C204 C203 1.391 . S
C204 C205 1.399 . S
C205 C204 1.399 . S
C205 C206 1.396 . S
C205 C208 1.453 . S
C205 C209 1.684 . S
C206 C187 1.723 . S
C206 C205 1.396 . S
C206 C207 1.394 . S
C207 C203 1.397 . S
C207 C206 1.394 . S
C207 C217 1.723 . S
C208 C205 1.453 . S
C208 H232 0.982 . S
C208 H233 0.979 . S
C208 H234 0.977 . S
C209 C205 1.684 . S
C209 H235 0.979 . S
C209 H236 0.980 . S
C209 H237 0.983 . S
C210 H186 0.948 . S
C210 C211 1.391 . S
C210 C215 1.391 . S
C211 C210 1.391 . S
C211 C212 1.391 . S
C212 H189 0.947 . S
C212 C211 1.391 . S
C212 C213 1.392 . S
C213 H190 0.948 . S
C213 C212 1.392 . S
C213 C214 1.419 . S
C214 C213 1.419 . S
C214 C215 1.391 . S
C214 C218 1.397 . S
C215 C210 1.391 . S
C215 C214 1.391 . S
C215 C216 1.399 . S
C216 C215 1.399 . S
C216 C217 1.396 . S
C216 C219 1.453 . S
C216 C220 1.684 . S
C217 C207 1.723 . S
C217 C216 1.396 . S
C217 C218 1.394 . S
C218 C188 1.723 . S
C218 C214 1.397 . S
C218 C217 1.394 . S
C219 H191 0.982 . S
C219 H195 0.979 . S
C219 H196 0.977 . S
C219 C216 1.453 . S
C220 H192 0.979 . S
C220 H193 0.980 . S
C220 H194 0.983 . S
C220 C216 1.684 . S
H221 C239 0.948 . S
H222 C180 0.948 . S
H223 C198 0.979 . S
H224 C198 0.980 . S
H225 C198 0.983 . S
H226 C197 0.982 . S
H227 C197 0.979 . S
H228 C197 0.977 . S
H229 C199 0.948 . S
H230 C201 0.947 . S
H231 C202 0.948 . S
H232 C208 0.982 . S
H233 C208 0.979 . S
H234 C208 0.977 . S
H235 C209 0.979 . S
H236 C209 0.980 . S
H237 C209 0.983 . S
H238 C182 0.947 . S
C239 C182 1.392 . S
C239 C183 1.419 . S
C239 H221 0.948 . S
O240 Zn241 1.953 1_565 S
O240 C256 1.225 . S
Zn241 O240 1.953 1_545 S
Zn241 O242 1.949 1_655 S
Zn241 O248 1.919 . S
Zn241 O253 1.924 . S
O242 Zn241 1.949 1_455 S
O242 Zn243 1.923 . S
O242 Zn244 1.950 1_445 S
O242 Zn245 1.945 . S
Zn243 O242 1.923 . S
Zn243 O246 1.933 . S
Zn243 O249 1.941 . S
Zn243 O250 1.965 1_545 S
Zn244 O242 1.950 1_665 S
Zn244 O251 1.938 1_655 S
Zn244 O252 1.906 1_655 S
Zn244 O262 1.953 . S
Zn245 O242 1.945 . S
Zn245 O247 1.932 . S
Zn245 O254 1.977 1_545 S
Zn245 O255 1.910 1_455 S
O246 Zn243 1.933 . S
O246 C257 1.226 . S
O247 Zn245 1.932 . S
O247 C257 1.307 . S
O248 Zn241 1.919 . S
O248 C259 1.253 . S
O249 Zn243 1.941 . S
O249 C259 1.283 1_455 S
O250 Zn243 1.965 1_565 S
O250 C258 1.303 . S
O251 Zn244 1.938 1_455 S
O251 C258 1.247 . S
O252 Zn244 1.906 1_455 S
O252 C260 1.304 . S
O253 Zn241 1.924 . S
O253 C261 1.311 . S
O254 Zn245 1.977 1_565 S
O254 C260 1.272 . S
O255 Zn245 1.910 1_655 S
O255 C261 1.231 . S
C256 O240 1.225 . S
C256 O262 1.298 . S
C257 O246 1.226 . S
C257 O247 1.307 . S
C258 O250 1.303 . S
C258 O251 1.247 . S
C259 O248 1.253 . S
C259 O249 1.283 1_655 S
C260 O252 1.304 . S
C260 O254 1.272 . S
C261 O253 1.311 . S
C261 O255 1.231 . S
O262 Zn244 1.953 . S
O262 C256 1.298 . S
O263 Zn264 1.953 1_556 S
O263 C279 1.225 1_556 S
Zn264 O263 1.953 1_554 S
Zn264 O265 1.949 . S
Zn264 O271 1.919 1_554 S
Zn264 O276 1.924 . S
O265 Zn264 1.949 . S
O265 Zn266 1.923 1_554 S
O265 Zn267 1.950 . S
O265 Zn268 1.945 . S
Zn266 O265 1.923 1_556 S
Zn266 O269 1.933 . S
Zn266 O272 1.941 . S
Zn266 O273 1.965 . S
Zn267 O265 1.950 . S
Zn267 O274 1.938 1_554 S
Zn267 O275 1.906 . S
Zn267 O285 1.953 . S
Zn268 O265 1.945 . S
Zn268 O270 1.932 . S
Zn268 O277 1.977 . S
Zn268 O278 1.910 . S
O269 Zn266 1.933 . S
O269 C280 1.226 1_556 S
O270 Zn268 1.932 . S
O270 C280 1.307 . S
O271 Zn264 1.919 1_556 S
O271 C282 1.253 . S
O272 Zn266 1.941 . S
O272 C282 1.283 . S
O273 Zn266 1.965 . S
O273 C281 1.303 . S
O274 Zn267 1.938 1_556 S
O274 C281 1.247 . S
O275 Zn267 1.906 . S
O275 C283 1.304 . S
O276 Zn264 1.924 . S
O276 C284 1.311 . S
O277 Zn268 1.977 . S
O277 C283 1.272 . S
O278 Zn268 1.910 . S
O278 C284 1.231 . S
C279 O263 1.225 1_554 S
C279 O285 1.298 . S
C280 O269 1.226 1_554 S
C280 O270 1.307 . S
C281 O273 1.303 . S
C281 O274 1.247 . S
C282 O271 1.253 . S
C282 O272 1.283 . S
C283 O275 1.304 . S
C283 O277 1.272 . S
C284 O276 1.311 . S
C284 O278 1.231 . S
O285 Zn267 1.953 . S
O285 C279 1.298 . S
C286 C287 1.386 . S
C286 C288 1.383 . S
C286 H302 0.951 . S
C287 C286 1.386 . S
C287 C291 1.383 . S
C288 C286 1.383 . S
C288 C289 1.402 . S
C288 H303 0.951 . S
C289 C288 1.402 . S
C289 C290 1.375 . S
C289 C292 1.481 . S
C290 C289 1.375 . S
C290 C291 1.367 . S
C290 H304 0.951 . S
C291 C287 1.383 . S
C291 C290 1.367 . S
C291 H305 0.950 . S
C292 C289 1.481 . S
C292 C293 1.297 . S
C292 H306 0.950 . S
C293 C292 1.297 . S
C293 C294 1.479 . S
C293 H307 0.950 . S
C294 C293 1.479 . S
C294 C295 1.375 . S
C294 C300 1.404 . S
C295 C294 1.375 . S
C295 C296 1.369 . S
C295 H308 0.950 . S
C296 C295 1.369 . S
C296 C297 1.392 . S
C296 H309 0.951 . S
C297 C296 1.392 . S
C297 C299 1.384 . S
H298 C300 0.949 . S
C299 C297 1.384 . S
C299 C300 1.385 . S
C299 H301 0.950 . S
C300 C294 1.404 . S
C300 H298 0.949 . S
C300 C299 1.385 . S
H301 C299 0.950 . S
H302 C286 0.951 . S
H303 C288 0.951 . S
H304 C290 0.951 . S
H305 C291 0.950 . S
H306 C292 0.950 . S
H307 C293 0.950 . S
H308 C295 0.950 . S
H309 C296 0.951 . S
C310 C311 1.386 1_556 S
C310 C312 1.383 . S
C310 H326 0.951 . S
C311 C310 1.386 1_554 S
C311 C315 1.383 . S
C312 C310 1.383 . S
C312 C313 1.402 1_556 S
C312 H327 0.951 . S
C313 C312 1.402 1_554 S
C313 C314 1.375 . S
C313 C316 1.481 . S
C314 C313 1.375 . S
C314 C315 1.367 . S
C314 H328 0.951 . S
C315 C311 1.383 . S
C315 C314 1.367 . S
C315 H329 0.950 . S
C316 C313 1.481 . S
C316 C317 1.297 1_554 S
C316 H330 0.950 . S
C317 C316 1.297 1_556 S
C317 C318 1.479 . S
C317 H331 0.950 . S
C318 C317 1.479 . S
C318 C319 1.375 . S
C318 C324 1.404 1_556 S
C319 C318 1.375 . S
C319 C320 1.369 . S
C319 H332 0.950 . S
C320 C319 1.369 . S
C320 C321 1.392 1_556 S
C320 H333 0.951 . S
C321 C320 1.392 1_554 S
C321 C323 1.384 . S
H322 C324 0.949 . S
C323 C321 1.384 . S
C323 C324 1.385 . S
C323 H325 0.950 . S
C324 C318 1.404 1_554 S
C324 H322 0.949 . S
C324 C323 1.385 . S
H325 C323 0.950 . S
H326 C310 0.951 . S
H327 C312 0.951 . S
H328 C314 0.951 . S
H329 C315 0.950 . S
H330 C316 0.950 . S
H331 C317 0.950 . S
H332 C319 0.950 . S
H333 C320 0.951 . S
C334 C335 1.386 . S
C334 C336 1.383 . S
C334 H350 0.951 . S
C335 C334 1.386 . S
C335 C339 1.383 . S
C336 C334 1.383 . S
C336 C337 1.402 . S
C336 H351 0.951 . S
C337 C336 1.402 . S
C337 C338 1.375 . S
C337 C340 1.481 . S
C338 C337 1.375 . S
C338 C339 1.367 . S
C338 H352 0.951 . S
C339 C335 1.383 . S
C339 C338 1.367 . S
C339 H353 0.950 . S
C340 C337 1.481 . S
C340 C341 1.297 . S
C340 H354 0.950 . S
C341 C340 1.297 . S
C341 C342 1.479 . S
C341 H355 0.950 . S
C342 C341 1.479 . S
C342 C343 1.375 . S
C342 C348 1.404 . S
C343 C342 1.375 . S
C343 C344 1.369 . S
C343 H356 0.950 . S
C344 C343 1.369 . S
C344 C345 1.392 . S
C344 H357 0.951 . S
C345 C344 1.392 . S
C345 C347 1.384 . S
H346 C348 0.949 . S
C347 C345 1.384 . S
C347 C348 1.385 . S
C347 H349 0.950 . S
C348 C342 1.404 . S
C348 H346 0.949 . S
C348 C347 1.385 . S
H349 C347 0.950 . S
H350 C334 0.951 . S
H351 C336 0.951 . S
H352 C338 0.951 . S
H353 C339 0.950 . S
H354 C340 0.950 . S
H355 C341 0.950 . S
H356 C343 0.950 . S
H357 C344 0.951 . S
C358 C359 1.386 1_556 S
C358 C360 1.379 1_556 S
C358 H374 0.951 . S
C359 C358 1.386 1_554 S
C359 C363 1.383 . S
C360 C358 1.379 1_554 S
C360 C361 1.418 . S
C360 H375 0.939 1_554 S
C361 C360 1.418 . S
C361 C362 1.375 . S
C361 C364 1.481 . S
C362 C361 1.375 . S
C362 C363 1.367 . S
C362 H376 0.951 . S
C363 C359 1.383 . S
C363 C362 1.367 . S
C363 H377 0.950 . S
C364 C361 1.481 . S
C364 C365 1.297 . S
C364 H378 0.950 . S
C365 C364 1.297 . S
C365 C366 1.479 . S
C365 H379 0.950 . S
C366 C365 1.479 . S
C366 C367 1.375 1_554 S
C366 C372 1.404 . S
C367 C366 1.375 1_556 S
C367 C368 1.369 . S
C367 H380 0.950 . S
C368 C367 1.369 . S
C368 C369 1.392 1_556 S
C368 H381 0.951 . S
C369 C368 1.392 1_554 S
C369 C371 1.384 . S
H370 C372 0.949 . S
C371 C369 1.384 . S
C371 C372 1.385 . S
C371 H373 0.950 . S
C372 C366 1.404 . S
C372 H370 0.949 . S
C372 C371 1.385 . S
H373 C371 0.950 . S
H374 C358 0.951 . S
H375 C360 0.939 1_556 S
H376 C362 0.951 . S
H377 C363 0.950 . S
H378 C364 0.950 . S
H379 C365 0.950 . S
H380 C367 0.950 . S
H381 C368 0.951 . S
C382 C383 1.386 . S
C382 C384 1.383 . S
C382 H398 0.951 . S
C383 C382 1.386 . S
C383 C387 1.383 . S
C384 C382 1.383 . S
C384 C385 1.402 . S
C384 H399 0.951 . S
C385 C384 1.402 . S
C385 C386 1.375 . S
C385 C388 1.481 . S
C386 C385 1.375 . S
C386 C387 1.367 . S
C386 H400 0.951 . S
C387 C383 1.383 . S
C387 C386 1.367 . S
C387 H401 0.950 . S
C388 C385 1.481 . S
C388 C389 1.297 . S
C388 H402 0.950 . S
C389 C388 1.297 . S
C389 C390 1.479 . S
C389 H403 0.950 . S
C390 C389 1.479 . S
C390 C391 1.375 . S
C390 C396 1.404 . S
C391 C390 1.375 . S
C391 C392 1.369 . S
C391 H404 0.950 . S
C392 C391 1.369 . S
C392 C393 1.392 . S
C392 H405 0.951 . S
C393 C392 1.392 . S
C393 C395 1.384 . S
H394 C396 0.949 . S
C395 C393 1.384 . S
C395 C396 1.385 . S
C395 H397 0.950 . S
C396 C390 1.404 . S
C396 H394 0.949 . S
C396 C395 1.385 . S
H397 C395 0.950 . S
H398 C382 0.951 . S
H399 C384 0.951 . S
H400 C386 0.951 . S
H401 C387 0.950 . S
H402 C388 0.950 . S
H403 C389 0.950 . S
H404 C391 0.950 . S
H405 C392 0.951 . S
C406 C407 1.386 . S
C406 C408 1.383 . S
C406 H422 0.951 . S
C407 C406 1.386 . S
C407 C411 1.383 . S
C408 C406 1.383 . S
C408 C409 1.402 . S
C408 H423 0.951 . S
C409 C408 1.402 . S
C409 C410 1.375 . S
C409 C412 1.481 . S
C410 C409 1.375 . S
C410 C411 1.367 . S
C410 H424 0.951 . S
C411 C407 1.383 . S
C411 C410 1.367 . S
C411 H425 0.950 . S
C412 C409 1.481 . S
C412 C413 1.297 . S
C412 H426 0.950 . S
C413 C412 1.297 . S
C413 C414 1.479 . S
C413 H427 0.950 . S
C414 C413 1.479 . S
C414 C415 1.375 . S
C414 C420 1.404 . S
C415 C414 1.375 . S
C415 C416 1.369 . S
C415 H428 0.950 . S
C416 C415 1.369 . S
C416 C417 1.392 . S
C416 H429 0.951 . S
C417 C416 1.392 . S
C417 C419 1.384 . S
H418 C420 0.949 . S
C419 C417 1.384 . S
C419 C420 1.385 . S
C419 H421 0.950 . S
C420 C414 1.404 . S
C420 H418 0.949 . S
C420 C419 1.385 . S
H421 C419 0.950 . S
H422 C406 0.951 . S
H423 C408 0.951 . S
H424 C410 0.951 . S
H425 C411 0.950 . S
H426 C412 0.950 . S
H427 C413 0.950 . S
H428 C415 0.950 . S
H429 C416 0.951 . S
C430 C431 1.386 . S
C430 C432 1.383 . S
C430 H446 0.951 . S
C431 C430 1.386 . S
C431 C435 1.383 . S
C432 C430 1.383 . S
C432 C433 1.402 . S
C432 H447 0.951 . S
C433 C432 1.402 . S
C433 C434 1.375 . S
C433 C436 1.481 . S
C434 C433 1.375 . S
C434 C435 1.367 . S
C434 H448 0.951 . S
C435 C431 1.383 . S
C435 C434 1.367 . S
C435 H449 0.950 . S
C436 C433 1.481 . S
C436 C437 1.297 . S
C436 H450 0.950 . S
C437 C436 1.297 . S
C437 C438 1.479 . S
C437 H451 0.950 . S
C438 C437 1.479 . S
C438 C439 1.375 . S
C438 C444 1.404 . S
C439 C438 1.375 . S
C439 C440 1.369 . S
C439 H452 0.950 . S
C440 C439 1.369 . S
C440 C441 1.392 . S
C440 H453 0.951 . S
C441 C440 1.392 . S
C441 C443 1.384 . S
H442 C444 0.949 . S
C443 C441 1.384 . S
C443 C444 1.385 . S
C443 H445 0.950 . S
C444 C438 1.404 . S
C444 H442 0.949 . S
C444 C443 1.385 . S
H445 C443 0.950 . S
H446 C430 0.951 . S
H447 C432 0.951 . S
H448 C434 0.951 . S
H449 C435 0.950 . S
H450 C436 0.950 . S
H451 C437 0.950 . S
H452 C439 0.950 . S
H453 C440 0.951 . S
C454 C455 1.386 . S
C454 C456 1.383 . S
C454 H470 0.951 . S
C455 C454 1.386 . S
C455 C459 1.383 . S
C456 C454 1.383 . S
C456 C457 1.402 . S
C456 H471 0.951 . S
C457 C456 1.402 . S
C457 C458 1.375 . S
C457 C460 1.481 . S
C458 C457 1.375 . S
C458 C459 1.367 . S
C458 H472 0.951 . S
C459 C455 1.383 . S
C459 C458 1.367 . S
C459 H473 0.950 . S
C460 C457 1.481 . S
C460 C461 1.297 . S
C460 H474 0.950 . S
C461 C460 1.297 . S
C461 C462 1.479 . S
C461 H475 0.950 . S
C462 C461 1.479 . S
C462 C463 1.375 . S
C462 C468 1.404 . S
C463 C462 1.375 . S
C463 C464 1.369 . S
C463 H476 0.950 . S
C464 C463 1.369 . S
C464 C465 1.392 . S
C464 H477 0.951 . S
C465 C464 1.392 . S
C465 C467 1.384 . S
H466 C468 0.949 . S
C467 C465 1.384 . S
C467 C468 1.385 . S
C467 H469 0.950 . S
C468 C462 1.404 . S
C468 H466 0.949 . S
C468 C467 1.385 . S
H469 C467 0.950 . S
H470 C454 0.951 . S
H471 C456 0.951 . S
H472 C458 0.951 . S
H473 C459 0.950 . S
H474 C460 0.950 . S
H475 C461 0.950 . S
H476 C463 0.950 . S
H477 C464 0.951 . S
C478 C479 1.386 . S
C478 C480 1.383 . S
C478 H494 0.951 . S
C479 C478 1.386 . S
C479 C483 1.383 . S
C480 C478 1.383 . S
C480 C481 1.402 . S
C480 H495 0.951 . S
C481 C480 1.402 . S
C481 C482 1.375 . S
C481 C484 1.481 . S
C482 C481 1.375 . S
C482 C483 1.367 . S
C482 H496 0.951 . S
C483 C479 1.383 . S
C483 C482 1.367 . S
C483 H497 0.950 . S
C484 C481 1.481 . S
C484 C485 1.297 . S
C484 H498 0.950 . S
C485 C484 1.297 . S
C485 C486 1.479 . S
C485 H499 0.950 . S
C486 C485 1.479 . S
C486 C487 1.375 . S
C486 C492 1.404 . S
C487 C486 1.375 . S
C487 C488 1.369 . S
C487 H500 0.950 . S
C488 C487 1.369 . S
C488 C489 1.392 . S
C488 H501 0.951 . S
C489 C488 1.392 . S
C489 C491 1.384 . S
H490 C492 0.949 . S
C491 C489 1.384 . S
C491 C492 1.385 . S
C491 H493 0.950 . S
C492 C486 1.404 . S
C492 H490 0.949 . S
C492 C491 1.385 . S
H493 C491 0.950 . S
H494 C478 0.951 . S
H495 C480 0.951 . S
H496 C482 0.951 . S
H497 C483 0.950 . S
H498 C484 0.950 . S
H499 C485 0.950 . S
H500 C487 0.950 . S
H501 C488 0.951 . S
C502 C503 1.386 . S
C502 C504 1.383 . S
C502 H518 0.951 . S
C503 C502 1.386 . S
C503 C507 1.383 . S
C504 C502 1.383 . S
C504 C505 1.402 . S
C504 H519 0.951 . S
C505 C504 1.402 . S
C505 C506 1.375 . S
C505 C508 1.481 . S
C506 C505 1.375 . S
C506 C507 1.367 . S
C506 H520 0.951 . S
C507 C503 1.383 . S
C507 C506 1.367 . S
C507 H521 0.950 . S
C508 C505 1.481 . S
C508 C509 1.297 . S
C508 H522 0.950 . S
C509 C508 1.297 . S
C509 C510 1.479 . S
C509 H523 0.950 . S
C510 C509 1.479 . S
C510 C511 1.375 . S
C510 C516 1.404 . S
C511 C510 1.375 . S
C511 C512 1.369 . S
C511 H524 0.950 . S
C512 C511 1.369 . S
C512 C513 1.392 . S
C512 H525 0.951 . S
C513 C512 1.392 . S
C513 C515 1.384 1_655 S
H514 C516 0.949 1_455 S
C515 C513 1.384 1_455 S
C515 C516 1.385 1_455 S
C515 H517 0.950 . S
C516 C510 1.404 . S
C516 H514 0.949 1_655 S
C516 C515 1.385 1_655 S
H517 C515 0.950 . S
H518 C502 0.951 . S
H519 C504 0.951 . S
H520 C506 0.951 . S
H521 C507 0.950 . S
H522 C508 0.950 . S
H523 C509 0.950 . S
H524 C511 0.950 . S
H525 C512 0.951 . S
C526 C527 1.386 . S
C526 C528 1.383 . S
C526 H542 0.951 . S
C527 C526 1.386 . S
C527 C531 1.383 . S
C528 C526 1.383 . S
C528 C529 1.402 . S
C528 H543 0.951 . S
C529 C528 1.402 . S
C529 C530 1.375 . S
C529 C532 1.481 . S
C530 C529 1.375 . S
C530 C531 1.367 . S
C530 H544 0.951 . S
C531 C527 1.383 . S
C531 C530 1.367 . S
C531 H545 0.950 . S
C532 C529 1.481 . S
C532 C533 1.297 . S
C532 H546 0.950 . S
C533 C532 1.297 . S
C533 C534 1.479 . S
C533 H547 0.950 . S
C534 C533 1.479 . S
C534 C535 1.375 . S
C534 C540 1.404 . S
C535 C534 1.375 . S
C535 C536 1.369 . S
C535 H548 0.950 . S
C536 C535 1.369 . S
C536 C537 1.392 . S
C536 H549 0.951 . S
C537 C536 1.392 . S
C537 C539 1.384 . S
H538 C540 0.949 . S
C539 C537 1.384 . S
C539 C540 1.385 . S
C539 H541 0.950 . S
C540 C534 1.404 . S
C540 H538 0.949 . S
C540 C539 1.385 . S
H541 C539 0.950 . S
H542 C526 0.951 . S
H543 C528 0.951 . S
H544 C530 0.951 . S
H545 C531 0.950 . S
H546 C532 0.950 . S
H547 C533 0.950 . S
H548 C535 0.950 . S
H549 C536 0.951 . S
C550 C551 1.386 . S
C550 C552 1.383 . S
C550 H566 0.951 . S
C551 C550 1.386 . S
C551 C555 1.383 . S
C552 C550 1.383 . S
C552 C553 1.402 . S
C552 H567 0.951 . S
C553 C552 1.402 . S
C553 C554 1.375 . S
C553 C556 1.481 . S
C554 C553 1.375 . S
C554 C555 1.367 . S
C554 H568 0.951 . S
C555 C551 1.383 . S
C555 C554 1.367 . S
C555 H569 0.950 . S
C556 C553 1.481 . S
C556 C557 1.297 . S
C556 H570 0.950 . S
C557 C556 1.297 . S
C557 C558 1.479 . S
C557 H571 0.950 . S
C558 C557 1.479 . S
C558 C559 1.375 . S
C558 C564 1.404 . S
C559 C558 1.375 . S
C559 C560 1.369 . S
C559 H572 0.950 . S
C560 C559 1.369 . S
C560 C561 1.392 . S
C560 H573 0.951 . S
C561 C560 1.392 . S
C561 C563 1.384 . S
H562 C564 0.933 1_655 S
C563 C561 1.384 . S
C563 C564 1.385 . S
C563 H565 0.950 1_455 S
C564 C558 1.404 . S
C564 H562 0.933 1_455 S
C564 C563 1.385 . S
H565 C563 0.950 1_655 S
H566 C550 0.951 . S
H567 C552 0.951 . S
H568 C554 0.951 . S
H569 C555 0.950 . S
H570 C556 0.950 . S
H571 C557 0.950 . S
H572 C559 0.950 . S
H573 C560 0.951 . S
C297 C257 1.624 . S
C287 C211 1.542 . S
C311 C31 1.612 . S
C321 C280 1.640 . S
C335 C91 1.642 . S
C345 C256 1.638 . S
C359 C151 1.566 . S
C369 C279 1.656 . S
C393 C260 1.564 . S
C383 C20 1.666 . S
C417 C282 1.592 . S
C407 C61 1.599 . S
C431 C121 1.594 . S
C441 C261 1.547 . S
C455 C200 1.606 . S
C465 C281 1.584 . S
C489 C284 1.645 . S
C479 C80 1.667 . S
C513 C259 1.632 . S
C503 C140 1.628 . S
C537 C283 1.616 . S
C527 C181 1.522 . S
C551 C1 1.595 . S
C561 C258 1.561 . S
