# Generated by pormake.
# Topology tsx, (6,3)-cn, num edge types: 1
# Building blocks:
#     Node 0, Type 0, BuildingBlock: FUNLAD_clean_sbu_0, # of connection points: 6
#     Node 1, Type 0, BuildingBlock: FUNLAD_clean_sbu_0, # of connection points: 6
#     Node 2, Type 1, BuildingBlock: VETTIZ_charged_linker_0, # of connection points: 3
#     Node 3, Type 1, BuildingBlock: VETTIZ_charged_linker_0, # of connection points: 3
#     Node 4, Type 1, BuildingBlock: VETTIZ_charged_linker_0, # of connection points: 3
#     Node 5, Type 1, BuildingBlock: VETTIZ_charged_linker_0, # of connection points: 3
#     Edge 6, Type (0, 1), BuildingBlock: AJUNOK_clean_linker_0, # of connection points: 2
#     Edge 7, Type (0, 1), BuildingBlock: AJUNOK_clean_linker_0, # of connection points: 2
#     Edge 8, Type (0, 1), BuildingBlock: AJUNOK_clean_linker_0, # of connection points: 2
#     Edge 9, Type (0, 1), BuildingBlock: AJUNOK_clean_linker_0, # of connection points: 2
#     Edge 10, Type (0, 1), BuildingBlock: AJUNOK_clean_linker_0, # of connection points: 2
#     Edge 11, Type (0, 1), BuildingBlock: AJUNOK_clean_linker_0, # of connection points: 2
#     Edge 12, Type (0, 1), BuildingBlock: AJUNOK_clean_linker_0, # of connection points: 2
#     Edge 13, Type (0, 1), BuildingBlock: AJUNOK_clean_linker_0, # of connection points: 2
#     Edge 14, Type (0, 1), BuildingBlock: AJUNOK_clean_linker_0, # of connection points: 2
#     Edge 15, Type (0, 1), BuildingBlock: AJUNOK_clean_linker_0, # of connection points: 2
#     Edge 16, Type (0, 1), BuildingBlock: AJUNOK_clean_linker_0, # of connection points: 2
#     Edge 17, Type (0, 1), BuildingBlock: AJUNOK_clean_linker_0, # of connection points: 2
# Relax obj value: 0.168
# Max RMSD: 0.156
# Mean RMSD: 0.083
data_MOF--net-tsx--node1-FUNLAD_clean_sbu_0--node2-VETTIZ_charged_linker_0--edge1-AJUNOK_clean_linker_0
_symmetry_space_group_name_H-M    P1
_symmetry_Int_Tables_number       1
_symmetry_cell_setting            triclinic
loop_
_symmetry_equiv_pos_as_xyz
'x, y, z'
_cell_length_a     18.17058
_cell_length_b     19.923811
_cell_length_c     40.15682
_cell_angle_alpha  91.068785
_cell_angle_beta   91.704811
_cell_angle_gamma 89.934632
loop_
_atom_site_label
_atom_site_type_symbol
_atom_site_fract_x
_atom_site_fract_y
_atom_site_fract_z
_atom_type_partial_charge
C0 C 0.89806 0.92099 1.00055 0.0
N1 N 0.00608 0.01556 0.07914 0.0
C2 C 0.93993 0.00346 0.09285 0.0
C3 C 0.9354 0.99139 0.12677 0.0
C4 C -0.0009 0.99394 0.14748 0.0
C5 C 0.06653 0.009 0.13289 0.0
C6 C 0.06892 0.01878 0.09843 0.0
Zn7 Zn 0.00714 0.01852 0.02794 0.0
C8 C 0.10966 0.92239 0.99824 0.0
N9 N -0.00197 0.01461 0.92183 0.0
C10 C 0.93435 0.00111 0.90427 0.0
C11 C 0.06447 0.01014 0.90719 0.0
C12 C 0.06901 0.98755 0.87424 0.0
C13 C 0.00464 0.96909 0.8562 0.0
C14 C 0.93642 0.97828 0.87118 0.0
Zn15 Zn -0.00194 0.02144 0.97267 0.0
O16 O 0.93327 0.93964 0.02664 0.0
C17 C 0.89131 0.11293 0.99942 0.0
O18 O 0.91239 0.94674 0.97283 0.0
H19 H 0.11448 0.02057 0.92162 0.0
H20 H 0.89033 0.00141 0.07731 0.0
H21 H 0.88212 0.00463 0.91641 0.0
O22 O 0.91603 0.08875 0.02677 0.0
O23 O 0.91905 0.09441 0.97214 0.0
H24 H 0.12104 0.02825 0.08706 0.0
O25 O 0.08106 0.09948 0.97415 0.0
O26 O 0.0801 0.10016 0.02896 0.0
O27 O 0.07655 0.94652 0.97309 0.0
O28 O 0.0964 0.94646 0.02706 0.0
C29 C 0.10188 0.12557 1.00214 0.0
H30 H 0.88217 0.97958 0.13657 0.0
H31 H 0.11682 0.01387 0.14785 0.0
H32 H 0.12253 0.98348 0.86319 0.0
H33 H 0.88547 0.9655 0.85789 0.0
C34 C 0.4037 0.42363 0.51246 0.0
N35 N 0.50911 0.5315 0.58708 0.0
C36 C 0.44375 0.52361 0.60226 0.0
C37 C 0.44181 0.51365 0.63649 0.0
C38 C 0.50762 0.51304 0.65567 0.0
C39 C 0.57438 0.52244 0.63956 0.0
C40 C 0.57389 0.53152 0.60502 0.0
Zn41 Zn 0.50644 0.53003 0.53586 0.0
C42 C 0.61619 0.43627 0.50704 0.0
N43 N 0.49258 0.51469 0.42966 0.0
C44 C 0.43004 0.49406 0.41302 0.0
C45 C 0.55751 0.51942 0.41386 0.0
C46 C 0.56174 0.50142 0.38025 0.0
C47 C 0.49872 0.47784 0.3627 0.0
C48 C 0.43198 0.47488 0.3794 0.0
Zn49 Zn 0.49521 0.52452 0.48042 0.0
O50 O 0.43599 0.45009 0.53765 0.0
C51 C 0.38323 0.61399 0.50658 0.0
O52 O 0.4185 0.4429 0.48346 0.0
H53 H 0.60685 0.53483 0.42763 0.0
H54 H 0.39285 0.52257 0.58762 0.0
H55 H 0.37912 0.48999 0.4261 0.0
O56 O 0.41243 0.59655 0.53436 0.0
O57 O 0.40837 0.59164 0.47942 0.0
H58 H 0.62532 0.53692 0.59245 0.0
O59 O 0.56916 0.60923 0.47917 0.0
O60 O 0.57479 0.61388 0.53401 0.0
O61 O 0.58164 0.4561 0.48123 0.0
O62 O 0.59956 0.46102 0.53533 0.0
C63 C 0.5902 0.639 0.5062 0.0
H64 H 0.38925 0.50494 0.64766 0.0
H65 H 0.62635 0.52254 0.65348 0.0
H66 H 0.61406 0.50531 0.36819 0.0
H67 H 0.38229 0.45618 0.36692 0.0
C68 C 0.12636 0.8483 0.48788 0.0
C69 C 0.13164 0.78068 0.47771 0.0
C70 C 0.07575 0.75239 0.45685 0.0
C71 C 0.01993 0.86164 0.45218 0.0
C72 C 0.06667 0.88751 0.47608 0.0
C73 C 0.02974 0.94646 0.49495 0.0
H74 H 0.82285 0.22752 0.43321 0.0
C75 C 0.97179 0.9143 0.44114 0.0
C76 C 0.9669 0.96477 0.467 0.0
H77 H 0.81711 0.17332 0.53611 0.0
H78 H 0.90308 0.08307 0.52442 0.0
H79 H 0.99017 0.18375 0.42419 0.0
H80 H 0.77727 0.0983 0.40539 0.0
H81 H 0.82717 0.06893 0.37175 0.0
H82 H 0.81722 0.15801 0.37842 0.0
H83 H 0.93601 0.20202 0.38746 0.0
H84 H 0.0025 0.13428 0.3883 0.0
C85 C 0.09168 0.00048 0.49719 0.0
C86 C 0.01204 0.91276 0.53207 0.0
C87 C 0.98444 0.92749 0.31354 0.0
C88 C 0.97393 0.98186 0.29178 0.0
C89 C 0.95599 0.04508 0.30535 0.0
C90 C 0.94541 0.05396 0.33925 0.0
C91 C 0.95332 -0.00063 0.36069 0.0
C92 C 0.97412 0.93765 0.34806 0.0
C93 C 0.98787 0.88814 0.3757 0.0
C94 C 0.96548 0.93001 0.40663 0.0
C95 C 0.94715 0.99453 0.39723 0.0
C96 C 0.0711 0.87121 0.37605 0.0
C97 C 0.93901 0.82507 0.36959 0.0
C98 C 0.83675 0.19419 0.45346 0.0
C99 C 0.81387 0.20879 0.48577 0.0
C100 C 0.83463 0.16429 0.51094 0.0
C101 C 0.87858 0.10783 0.50391 0.0
C102 C 0.89768 0.0903 0.47145 0.0
C103 C 0.87611 0.13481 0.447 0.0
C104 C 0.89801 0.11201 0.4137 0.0
C105 C 0.92874 0.04312 0.42135 0.0
C106 C 0.93626 0.02995 0.45599 0.0
C107 C 0.95937 0.16049 0.40253 0.0
C108 C 0.82695 0.10937 0.39088 0.0
H109 H 0.97482 0.7709 0.42922 0.0
H110 H 0.16489 0.8682 0.50664 0.0
H111 H 0.00562 0.86026 0.52202 0.0
H112 H 0.92957 0.93138 0.57865 0.0
H113 H 0.07157 0.90596 0.53952 0.0
H114 H 0.08483 0.03816 0.47732 0.0
H115 H 0.14819 0.98048 0.49404 0.0
H116 H 0.09598 0.02449 0.5219 0.0
H117 H -0.00069 0.87835 0.30394 0.0
H118 H 0.94948 0.08828 0.28951 0.0
H119 H 0.92991 0.10337 0.34703 0.0
H120 H 0.10447 0.91644 0.38287 0.0
H121 H 0.08793 0.85276 0.35112 0.0
H122 H 0.08631 0.83117 0.39353 0.0
H123 H 0.91727 0.82085 0.34349 0.0
H124 H 0.89065 0.82587 0.38591 0.0
H125 H 0.97037 0.77811 0.37402 0.0
H126 H 0.07714 0.69969 0.44977 0.0
C127 C 0.01868 0.79293 0.44436 0.0
C128 C 0.13009 0.22847 0.56143 0.0
C129 C 0.20723 0.23253 0.56461 0.0
C130 C 0.24673 0.18343 0.58235 0.0
C131 C 0.13331 0.1257 0.59194 0.0
C132 C 0.09449 0.17154 0.57356 0.0
C133 C 0.02464 0.13971 0.55889 0.0
H134 H 0.83765 0.78334 0.53505 0.0
C135 C 0.08988 0.06581 0.59461 0.0
C136 C 0.02875 0.06699 0.57212 0.0
H137 H 0.714 0.96251 0.51554 0.0
H138 H 0.80674 0.03436 0.54119 0.0
H139 H 0.07504 0.7987 0.55361 0.0
H140 H 0.92263 0.86687 0.62505 0.0
H141 H 0.95387 0.78122 0.62168 0.0
H142 H 0.87544 0.80703 0.59854 0.0
H143 H -0.00655 0.74715 0.55367 0.0
H144 H 0.05095 0.76086 0.59056 0.0
C145 C 0.03074 0.14607 0.52067 0.0
C146 C 0.95849 0.17673 0.5738 0.0
C147 C 0.08234 0.96938 0.707 0.0
C148 C 0.05445 0.90896 0.71852 0.0
C149 C 0.04576 0.85368 0.69622 0.0
C150 C 0.05841 0.86161 0.66197 0.0
C151 C 0.07642 0.92532 0.65056 0.0
C152 C 0.09279 0.9766 0.67309 0.0
C153 C 0.11528 0.03946 0.65648 0.0
C154 C 0.10124 0.01901 0.62 0.0
C155 C 0.07655 0.95302 0.61689 0.0
C156 C 0.19664 0.05403 0.6659 0.0
C157 C 0.06545 0.09865 0.66718 0.0
C158 C 0.837 0.83715 0.53151 0.0
C159 C 0.77527 0.87004 0.51841 0.0
C160 C 0.76792 0.94115 0.52064 0.0
C161 C 0.82446 0.9857 0.53235 0.0
C162 C 0.89809 0.96435 0.53672 0.0
C163 C 0.8953 0.87439 0.54284 0.0
C164 C 0.97679 0.84602 0.57749 0.0
C165 C 0.0319 0.93555 0.58927 0.0
C166 C 0.98862 0.00497 0.56591 0.0
C167 C 0.02663 0.78503 0.5681 0.0
C168 C 0.93075 0.82397 0.60752 0.0
H169 H 0.24178 0.08761 0.60505 0.0
H170 H 0.1 0.26335 0.54573 0.0
H171 H 0.90843 0.14521 0.57226 0.0
H172 H 0.94822 0.22525 0.56136 0.0
H173 H 0.96853 0.18759 0.60083 0.0
H174 H 0.08841 0.14952 0.51228 0.0
H175 H 0.0008 0.19062 0.511 0.0
H176 H 0.01195 0.10086 0.50798 0.0
H177 H 0.0922 0.01139 0.72407 0.0
H178 H 0.02722 0.80573 0.70504 0.0
H179 H 0.05468 0.81922 0.64509 0.0
H180 H 0.20681 0.0501 0.69323 0.0
H181 H 0.21199 0.10603 0.65972 0.0
H182 H 0.23361 0.01772 0.65331 0.0
H183 H 0.00655 0.08705 0.66137 0.0
H184 H 0.07984 0.14522 0.65413 0.0
H185 H 0.07202 0.10975 0.69431 0.0
H186 H 0.30634 0.18485 0.58412 0.0
C187 C 0.20995 0.12917 0.59546 0.0
C188 C 0.62704 0.34331 0.99242 0.0
C189 C 0.63207 0.27655 0.98105 0.0
C190 C 0.57538 0.24874 0.96056 0.0
C191 C 0.51809 0.35732 0.95822 0.0
C192 C 0.56757 0.3832 0.98113 0.0
C193 C 0.53512 0.44507 0.99903 0.0
H194 H 0.32385 0.71308 0.92522 0.0
C195 C 0.47307 0.41107 0.94596 0.0
C196 C 0.47195 0.46335 0.97125 0.0
H197 H 0.29855 0.66044 0.02756 0.0
H198 H 0.39678 0.57876 0.02074 0.0
H199 H 0.45851 0.71529 0.91567 0.0
H200 H 0.33475 0.54975 0.88743 0.0
H201 H 0.39699 0.58628 0.85889 0.0
H202 H 0.33217 0.63813 0.87884 0.0
H203 H 0.48285 0.67455 0.87831 0.0
H204 H 0.53354 0.6573 0.91665 0.0
C205 C 0.59866 0.49775 1.00013 0.0
C206 C 0.51891 0.41712 0.03753 0.0
C207 C 0.49506 0.42785 0.81834 0.0
C208 C 0.5144 0.48412 0.79947 0.0
C209 C 0.53795 0.54359 0.81607 0.0
C210 C 0.53481 0.54958 0.85064 0.0
C211 C 0.50415 0.49725 0.8681 0.0
C212 C 0.49193 0.43559 0.85327 0.0
C213 C 0.48108 0.38299 0.87959 0.0
C214 C 0.47909 0.42747 0.91159 0.0
C215 C 0.48896 0.49372 0.90319 0.0
C216 C 0.54731 0.33403 0.87841 0.0
C217 C 0.40725 0.34667 0.87308 0.0
C218 C 0.33376 0.67954 0.94579 0.0
C219 C 0.30167 0.69229 0.97664 0.0
C220 C 0.32055 0.65068 1.0032 0.0
C221 C 0.37152 0.59874 0.99909 0.0
C222 C 0.39864 0.58193 0.96812 0.0
C223 C 0.38172 0.62448 0.94219 0.0
C224 C 0.42458 0.60783 0.91229 0.0
C225 C 0.46468 0.54458 0.92432 0.0
C226 C 0.45426 0.53014 0.95819 0.0
C227 C 0.47789 0.66644 0.90539 0.0
C228 C 0.36927 0.59446 0.88275 0.0
H229 H 0.473 0.26797 0.93401 0.0
H230 H 0.6672 0.3627 0.01059 0.0
H231 H 0.51657 0.36278 0.03027 0.0
H232 H 0.43445 0.44011 0.08279 0.0
H233 H 0.5787 0.4137 0.04531 0.0
H234 H 0.59704 0.53039 0.97802 0.0
H235 H 0.65439 0.47493 1.00084 0.0
H236 H 0.59864 0.52849 0.02315 0.0
H237 H 0.48138 0.38029 0.80623 0.0
H238 H 0.55731 0.5858 0.80213 0.0
H239 H 0.55642 0.59374 0.8632 0.0
H240 H 0.59451 0.35309 0.89408 0.0
H241 H 0.56705 0.32695 0.85265 0.0
H242 H 0.5325 0.28289 0.88608 0.0
H243 H 0.40824 0.31665 0.8495 0.0
H244 H 0.36133 0.38347 0.87117 0.0
H245 H 0.39544 0.31236 0.89368 0.0
H246 H 0.57768 0.19669 0.95236 0.0
C247 C 0.51688 0.28916 0.94957 0.0
C248 C 0.6136 0.74223 0.05296 0.0
C249 C 0.68911 0.7532 0.05995 0.0
C250 C 0.72544 0.7149 0.08454 0.0
C251 C 0.61449 0.65162 0.09201 0.0
C252 C 0.57807 0.6883 0.06819 0.0
C253 C 0.51295 0.64868 0.0537 0.0
H254 H 0.35512 0.27865 0.04485 0.0
C255 C 0.57579 0.58914 0.09624 0.0
C256 C 0.5203 0.58025 0.07129 0.0
H257 H 0.22077 0.44482 0.01411 0.0
H258 H 0.30442 0.52678 0.03878 0.0
H259 H 0.51227 0.25856 0.06456 0.0
H260 H 0.42615 0.38526 0.13096 0.0
H261 H 0.4714 0.3056 0.13476 0.0
H262 H 0.39187 0.31241 0.10877 0.0
H263 H 0.56316 0.27574 0.10288 0.0
H264 H 0.59126 0.31367 0.06652 0.0
C265 C 0.52385 0.64482 0.01578 0.0
C266 C 0.44193 0.68469 0.06427 0.0
C267 C 0.56249 0.50089 0.21077 0.0
C268 C 0.54938 0.43689 0.22315 0.0
C269 C 0.55686 0.38001 0.20197 0.0
C270 C 0.5703 0.38833 0.16783 0.0
C271 C 0.57345 0.45339 0.15545 0.0
C272 C 0.57491 0.50794 0.17703 0.0
C273 C 0.5873 0.57228 0.15956 0.0
C274 C 0.58799 0.54687 0.12344 0.0
C275 C 0.57453 0.47804 0.12132 0.0
C276 C 0.66033 0.60353 0.17268 0.0
C277 C 0.52242 0.62097 0.16534 0.0
C278 C 0.35063 0.3315 0.0392 0.0
C279 C 0.28859 0.35774 0.02281 0.0
C280 C 0.27543 0.42815 0.02165 0.0
C281 C 0.32687 0.47819 0.03256 0.0
C282 C 0.4014 0.46258 0.03929 0.0
C283 C 0.40478 0.37451 0.04996 0.0
C284 C 0.48754 0.35795 0.08604 0.0
C285 C 0.53606 0.45243 0.09334 0.0
C286 C 0.48806 0.51408 0.06655 0.0
C287 C 0.54137 0.29832 0.07953 0.0
C288 C 0.44279 0.33935 0.11703 0.0
H289 H 0.72099 0.62793 0.11441 0.0
H290 H 0.58615 0.76819 0.03263 0.0
H291 H 0.39509 0.64938 0.0648 0.0
H292 H 0.42814 0.72721 0.04771 0.0
H293 H 0.448 0.70519 0.09017 0.0
H294 H 0.58239 0.64867 0.00867 0.0
H295 H 0.49252 0.68425 1.00222 0.0
H296 H 0.50907 0.59537 0.00671 0.0
H297 H 0.56075 0.54486 0.22703 0.0
H298 H 0.55051 0.32999 0.21157 0.0
H299 H 0.57856 0.3453 0.15174 0.0
H300 H 0.66193 0.60696 0.20035 0.0
H301 H 0.66637 0.6557 0.16409 0.0
H302 H 0.70803 0.57258 0.16496 0.0
H303 H 0.46932 0.59758 0.15694 0.0
H304 H 0.52956 0.66791 0.15129 0.0
H305 H 0.51882 0.6352 0.19212 0.0
H306 H 0.78384 0.72144 0.08987 0.0
C307 C 0.68895 0.66292 0.09979 0.0
C308 C 0.1348 0.23369 0.0312 0.0
C309 C 0.14511 0.1888 1.00415 0.0
C310 C 0.17684 0.29238 0.03531 0.0
C311 C 0.23121 0.30824 0.01267 0.0
H312 H 0.09476 0.22275 0.04981 0.0
H313 H 0.16975 0.32354 0.05739 0.0
S314 S 0.27889 0.20964 0.93716 0.0
N315 N 0.21165 0.16644 0.95348 0.0
N316 N 0.29242 0.27595 0.96192 0.0
C317 C 0.24059 0.2653 0.98494 0.0
C318 C 0.19698 0.20587 0.98044 0.0
C319 C 0.21545 0.84826 0.0159 0.0
C320 C 0.15824 0.86357 0.99302 0.0
C321 C 0.26201 0.79307 0.01034 0.0
C322 C 0.25242 0.75088 0.9819 0.0
H323 H 0.22502 0.87962 0.03793 0.0
H324 H 0.30633 0.78381 0.0283 0.0
S325 S 0.10646 0.76573 0.91598 0.0
N326 N 0.09222 0.82978 0.94161 0.0
N327 N 0.1787 0.72596 0.93181 0.0
C328 C 0.19454 0.76495 0.95924 0.0
C329 C 0.14765 0.82119 0.96468 0.0
C330 C 0.84931 0.80766 0.00885 0.0
C331 C 0.83558 0.87613 0.00462 0.0
C332 C 0.79891 0.76742 0.02496 0.0
C333 C 0.73394 0.79477 0.03802 0.0
H334 H 0.90157 0.78617 1.00184 0.0
H335 H 0.81281 0.71517 0.02878 0.0
S336 S 0.67047 0.97063 0.03042 0.0
N337 N 0.75062 0.96894 0.01203 0.0
N338 N 0.65582 0.89329 0.04284 0.0
C339 C 0.71722 0.86219 0.03175 0.0
C340 C 0.76838 0.90301 0.01502 0.0
C341 C 0.8182 0.19937 0.96966 0.0
C342 C 0.82838 0.15969 0.9981 0.0
C343 C 0.75471 0.23777 0.96483 0.0
C344 C 0.69912 0.2378 0.98819 0.0
H345 H 0.85901 0.1998 0.95053 0.0
H346 H 0.7484 0.2668 0.94236 0.0
S347 S 0.69913 0.14588 0.06743 0.0
N348 N 0.77821 0.1252 0.05068 0.0
N349 N 0.65789 0.19767 0.04116 0.0
C350 C 0.70888 0.20035 0.0172 0.0
C351 C 0.77401 0.16129 0.02232 0.0
C352 C 0.6769 0.72019 0.48068 0.0
C353 C 0.62773 0.70494 0.50582 0.0
C354 C 0.71936 0.77915 0.48269 0.0
C355 C 0.71254 0.82544 0.5094 0.0
H356 H 0.68609 0.68448 0.46055 0.0
H357 H 0.76162 0.78625 0.4646 0.0
S358 S 0.58264 0.81426 0.57834 0.0
N359 N 0.56791 0.74503 0.55589 0.0
N360 N 0.64741 0.85561 0.55931 0.0
C361 C 0.65887 0.8136 0.53291 0.0
C362 C 0.61662 0.7533 0.53124 0.0
C363 C 0.66046 0.33683 0.47505 0.0
C364 C 0.66895 0.3798 0.50319 0.0
C365 C 0.70734 0.2822 0.46992 0.0
C366 C 0.76571 0.26809 0.49246 0.0
H367 H 0.61617 0.34465 0.45687 0.0
H368 H 0.69689 0.25014 0.44821 0.0
S369 S 0.81512 0.36747 0.56913 0.0
N370 N 0.74133 0.40562 0.55358 0.0
N371 N 0.83156 0.30384 0.54344 0.0
C372 C 0.77565 0.31106 0.5206 0.0
C373 C 0.72688 0.36661 0.52607 0.0
C374 C 0.29011 0.39702 0.54113 0.0
C375 C 0.34398 0.37687 0.51853 0.0
C376 C 0.24226 0.35044 0.55442 0.0
C377 C 0.24803 0.28225 0.54591 0.0
H378 H 0.28759 0.44871 0.54993 0.0
H379 H 0.20377 0.36714 0.57295 0.0
S380 S 0.37477 0.20521 0.48535 0.0
N381 N 0.39642 0.28579 0.48608 0.0
N382 N 0.30658 0.19725 0.51132 0.0
C383 C 0.29854 0.26205 0.52175 0.0
C384 C 0.34665 0.30976 0.50792 0.0
C385 C 0.32799 0.72089 0.48825 0.0
C386 C 0.32048 0.66012 0.50493 0.0
C387 C 0.26656 0.76085 0.48077 0.0
C388 C 0.1955 0.74028 0.48892 0.0
H389 H 0.38151 0.73663 0.4801 0.0
H390 H 0.2743 0.80677 0.46727 0.0
S391 S 0.1473 0.58633 0.53384 0.0
N392 N 0.2377 0.58231 0.53067 0.0
N393 N 0.12133 0.65687 0.5159 0.0
C394 C 0.18748 0.68042 0.50641 0.0
C395 C 0.25036 0.64039 0.51462 0.0
C396 C 0.93223 0.0124 0.20045 0.0
C397 C -0.00693 0.98474 0.18418 0.0
C398 C 0.92485 0.00708 0.2348 0.0
C399 C 0.97882 0.97542 0.25489 0.0
H400 H 0.89047 0.04027 0.18676 0.0
H401 H 0.87713 0.03003 0.2459 0.0
S402 S 0.14623 0.88983 0.22482 0.0
N403 N 0.10553 0.91893 0.19069 0.0
N404 N 0.09366 0.91282 0.2559 0.0
C405 C 0.03893 0.94551 0.23908 0.0
C406 C 0.04587 0.94975 0.20369 0.0
C407 C 0.96467 0.97101 0.79619 0.0
C408 C 0.00887 0.94255 0.82152 0.0
C409 C 0.97536 0.95443 0.76267 0.0
C410 C 0.03031 0.90857 0.75328 0.0
H411 H 0.92465 0.00944 0.80212 0.0
H412 H 0.94367 0.98098 0.74379 0.0
S413 S 0.15253 0.81215 0.81012 0.0
N414 N 0.10315 0.85971 0.83516 0.0
N415 N 0.12401 0.8298 0.7718 0.0
C416 C 0.07096 0.87587 0.77832 0.0
C417 C 0.06015 0.89271 0.81256 0.0
C418 C 0.55472 0.45697 0.70792 0.0
C419 C 0.50621 0.50284 0.6923 0.0
C420 C 0.55484 0.44788 0.7426 0.0
C421 C 0.50668 0.48464 0.76271 0.0
H422 H 0.59311 0.42819 0.69325 0.0
H423 H 0.59436 0.41375 0.75386 0.0
S424 S 0.36881 0.61016 0.73454 0.0
N425 N 0.40876 0.58503 0.70008 0.0
N426 N 0.40851 0.56707 0.76485 0.0
C427 C 0.45709 0.5294 0.74741 0.0
C428 C 0.45692 0.53873 0.71232 0.0
C429 C 0.56264 0.4174 0.31634 0.0
C430 C 0.50341 0.45743 0.32706 0.0
C431 C 0.57406 0.40527 0.28233 0.0
C432 C 0.52652 0.43273 0.25803 0.0
H433 H 0.60203 0.39742 0.33436 0.0
H434 H 0.62277 0.37798 0.275 0.0
S435 S 0.3602 0.53581 0.27265 0.0
N436 N 0.39442 0.52088 0.31033 0.0
N437 N 0.4151 0.49672 0.24661 0.0
C438 C 0.46454 0.46892 0.26839 0.0
C439 C 0.45311 0.48162 0.30287 0.0
loop_
_geom_bond_atom_site_label_1
_geom_bond_atom_site_label_2
_geom_bond_distance
_geom_bond_site_symmetry_2
_ccdc_geom_bond_type
C0 O16 1.251 . S
C0 O18 1.254 1_554 S
N1 C2 1.333 1_445 S
N1 C6 1.307 . S
N1 Zn7 2.020 . S
C2 N1 1.333 1_665 S
C2 C3 1.379 . S
C2 H20 0.952 . S
C3 C2 1.379 . S
C3 C4 1.390 1_665 S
C3 H30 0.949 . S
C4 C3 1.390 1_445 S
C4 C5 1.357 . S
C5 C4 1.357 . S
C5 C6 1.370 . S
C5 H31 0.950 . S
C6 N1 1.307 . S
C6 C5 1.370 . S
C6 H24 0.948 . S
Zn7 N1 2.020 . S
Zn7 O16 2.039 1_445 S
Zn7 O22 2.034 1_455 S
Zn7 O26 2.025 . S
Zn7 O28 2.024 1_545 S
C8 O27 1.246 1_554 S
C8 O28 1.249 . S
N9 C10 1.307 1_445 S
N9 C11 1.333 . S
N9 Zn15 2.020 . S
C10 N9 1.307 1_665 S
C10 C14 1.370 . S
C10 H21 0.948 . S
C11 N9 1.333 . S
C11 C12 1.379 . S
C11 H19 0.952 . S
C12 C11 1.379 . S
C12 C13 1.390 . S
C12 H32 0.949 . S
C13 C12 1.390 . S
C13 C14 1.357 1_445 S
C14 C10 1.370 . S
C14 C13 1.357 1_665 S
C14 H33 0.950 . S
Zn15 N9 2.020 . S
Zn15 O18 2.025 1_445 S
Zn15 O23 2.024 1_455 S
Zn15 O25 2.039 . S
Zn15 O27 2.034 1_545 S
O16 C0 1.251 . S
O16 Zn7 2.039 1_665 S
C17 O22 1.246 . S
C17 O23 1.249 1_554 S
O18 C0 1.254 1_556 S
O18 Zn15 2.025 1_665 S
H19 C11 0.952 . S
H20 C2 0.952 . S
H21 C10 0.948 . S
O22 Zn7 2.034 1_655 S
O22 C17 1.246 . S
O23 Zn15 2.024 1_655 S
O23 C17 1.249 1_556 S
H24 C6 0.948 . S
O25 Zn15 2.039 . S
O25 C29 1.251 1_556 S
O26 Zn7 2.025 . S
O26 C29 1.254 . S
O27 C8 1.246 1_556 S
O27 Zn15 2.034 1_565 S
O28 Zn7 2.024 1_565 S
O28 C8 1.249 . S
C29 O25 1.251 1_554 S
C29 O26 1.254 . S
H30 C3 0.949 . S
H31 C5 0.950 . S
H32 C12 0.949 . S
H33 C14 0.950 . S
C34 O50 1.251 . S
C34 O52 1.254 . S
N35 C36 1.333 . S
N35 C40 1.307 . S
N35 Zn41 2.020 . S
C36 N35 1.333 . S
C36 C37 1.379 . S
C36 H54 0.952 . S
C37 C36 1.379 . S
C37 C38 1.390 . S
C37 H64 0.949 . S
C38 C37 1.390 . S
C38 C39 1.357 . S
C39 C38 1.357 . S
C39 C40 1.370 . S
C39 H65 0.950 . S
C40 N35 1.307 . S
C40 C39 1.370 . S
C40 H58 0.948 . S
Zn41 N35 2.020 . S
Zn41 O50 2.039 . S
Zn41 O56 2.034 . S
Zn41 O60 2.025 . S
Zn41 O62 2.024 . S
C42 O61 1.246 . S
C42 O62 1.249 . S
N43 C44 1.307 . S
N43 C45 1.333 . S
N43 Zn49 2.020 . S
C44 N43 1.307 . S
C44 C48 1.370 . S
C44 H55 0.948 . S
C45 N43 1.333 . S
C45 C46 1.379 . S
C45 H53 0.952 . S
C46 C45 1.379 . S
C46 C47 1.390 . S
C46 H66 0.949 . S
C47 C46 1.390 . S
C47 C48 1.357 . S
C48 C44 1.370 . S
C48 C47 1.357 . S
C48 H67 0.950 . S
Zn49 N43 2.020 . S
Zn49 O52 2.025 . S
Zn49 O57 2.024 . S
Zn49 O59 2.039 . S
Zn49 O61 2.034 . S
O50 C34 1.251 . S
O50 Zn41 2.039 . S
C51 O56 1.246 . S
C51 O57 1.249 . S
O52 C34 1.254 . S
O52 Zn49 2.025 . S
H53 C45 0.952 . S
H54 C36 0.952 . S
H55 C44 0.948 . S
O56 Zn41 2.034 . S
O56 C51 1.246 . S
O57 Zn49 2.024 . S
O57 C51 1.249 . S
H58 C40 0.948 . S
O59 Zn49 2.039 . S
O59 C63 1.251 . S
O60 Zn41 2.025 . S
O60 C63 1.254 . S
O61 C42 1.246 . S
O61 Zn49 2.034 . S
O62 Zn41 2.024 . S
O62 C42 1.249 . S
C63 O59 1.251 . S
C63 O60 1.254 . S
H64 C37 0.949 . S
H65 C39 0.950 . S
H66 C46 0.949 . S
H67 C48 0.950 . S
C68 C69 1.391 . S
C68 C72 1.391 . S
C68 H110 0.948 . S
C69 C68 1.391 . S
C69 C70 1.391 . S
C70 C69 1.391 . S
C70 H126 0.947 . S
C70 C127 1.392 . S
C71 C72 1.391 . S
C71 C75 1.397 . S
C71 C127 1.419 . S
C72 C68 1.391 . S
C72 C71 1.391 . S
C72 C73 1.399 . S
C73 C72 1.399 . S
C73 C76 1.396 . S
C73 C85 1.453 1_565 S
C73 C86 1.684 1_455 S
H74 C98 0.948 . S
C75 C71 1.397 . S
C75 C76 1.394 . S
C75 C94 1.723 . S
C76 C73 1.396 . S
C76 C75 1.394 . S
C76 C106 1.723 1_465 S
H77 C100 0.947 . S
H78 C101 0.948 . S
H79 C107 0.982 . S
H80 C108 0.979 . S
H81 C108 0.980 . S
H82 C108 0.983 . S
H83 C107 0.979 . S
H84 C107 0.977 . S
C85 C73 1.453 1_545 S
C85 H114 0.982 . S
C85 H115 0.979 1_545 S
C85 H116 0.977 . S
C86 C73 1.684 1_655 S
C86 H111 0.979 . S
C86 H112 0.980 . S
C86 H113 0.983 1_655 S
C87 C88 1.391 1_465 S
C87 C92 1.391 . S
C87 H117 0.948 . S
C88 C87 1.391 1_645 S
C88 C89 1.391 . S
C89 C88 1.391 . S
C89 C90 1.392 . S
C89 H118 0.947 . S
C90 C89 1.392 . S
C90 C91 1.419 . S
C90 H119 0.948 . S
C91 C90 1.419 . S
C91 C92 1.391 1_645 S
C91 C95 1.397 . S
C92 C87 1.391 . S
C92 C91 1.391 1_465 S
C92 C93 1.399 . S
C93 C92 1.399 . S
C93 C94 1.396 . S
C93 C96 1.453 . S
C93 C97 1.684 . S
C94 C75 1.723 . S
C94 C93 1.396 . S
C94 C95 1.394 1_465 S
C95 C91 1.397 . S
C95 C94 1.394 1_645 S
C95 C105 1.723 . S
C96 C93 1.453 . S
C96 H120 0.982 . S
C96 H121 0.979 . S
C96 H122 0.977 . S
C97 C93 1.684 . S
C97 H123 0.979 . S
C97 H124 0.980 . S
C97 H125 0.983 . S
C98 H74 0.948 . S
C98 C99 1.391 . S
C98 C103 1.391 . S
C99 C98 1.391 . S
C99 C100 1.391 . S
C100 H77 0.947 . S
C100 C99 1.391 . S
C100 C101 1.392 . S
C101 H78 0.948 . S
C101 C100 1.392 . S
C101 C102 1.419 . S
C102 C101 1.419 . S
C102 C103 1.391 . S
C102 C106 1.397 . S
C103 C98 1.391 . S
C103 C102 1.391 . S
C103 C104 1.399 . S
C104 C103 1.399 . S
C104 C105 1.396 . S
C104 C107 1.453 . S
C104 C108 1.684 . S
C105 C95 1.723 . S
C105 C104 1.396 . S
C105 C106 1.394 . S
C106 C76 1.723 1_645 S
C106 C102 1.397 . S
C106 C105 1.394 . S
C107 H79 0.982 . S
C107 H83 0.979 . S
C107 H84 0.977 . S
C107 C104 1.453 . S
C108 H80 0.979 . S
C108 H81 0.980 . S
C108 H82 0.983 . S
C108 C104 1.684 . S
H109 C127 0.948 . S
H110 C68 0.948 . S
H111 C86 0.979 . S
H112 C86 0.980 . S
H113 C86 0.983 1_455 S
H114 C85 0.982 . S
H115 C85 0.979 1_565 S
H116 C85 0.977 . S
H117 C87 0.948 . S
H118 C89 0.947 . S
H119 C90 0.948 . S
H120 C96 0.982 . S
H121 C96 0.979 . S
H122 C96 0.977 . S
H123 C97 0.979 . S
H124 C97 0.980 . S
H125 C97 0.983 . S
H126 C70 0.947 . S
C127 C70 1.392 . S
C127 C71 1.419 . S
C127 H109 0.948 . S
C128 C129 1.391 . S
C128 C132 1.391 . S
C128 H170 0.948 . S
C129 C128 1.391 . S
C129 C130 1.391 . S
C130 C129 1.391 . S
C130 H186 0.947 . S
C130 C187 1.392 . S
C131 C132 1.391 . S
C131 C135 1.397 . S
C131 C187 1.419 . S
C132 C128 1.391 . S
C132 C131 1.391 . S
C132 C133 1.399 . S
C133 C132 1.399 . S
C133 C136 1.396 . S
C133 C145 1.453 . S
C133 C146 1.684 1_455 S
H134 C158 0.948 . S
C135 C131 1.397 . S
C135 C136 1.394 . S
C135 C154 1.723 . S
C136 C133 1.396 . S
C136 C135 1.394 . S
C136 C166 1.723 1_445 S
H137 C160 0.947 . S
H138 C161 0.948 . S
H139 C167 0.982 . S
H140 C168 0.979 . S
H141 C168 0.980 . S
H142 C168 0.983 . S
H143 C167 0.979 . S
H144 C167 0.977 . S
C145 C133 1.453 . S
C145 H174 0.982 1_545 S
C145 H175 0.979 . S
C145 H176 0.977 1_545 S
C146 C133 1.684 1_655 S
C146 H171 0.979 . S
C146 H172 0.980 . S
C146 H173 0.983 1_655 S
C147 C148 1.391 . S
C147 C152 1.391 . S
C147 H177 0.948 . S
C148 C147 1.391 . S
C148 C149 1.391 1_445 S
C149 C148 1.391 1_665 S
C149 C150 1.392 . S
C149 H178 0.947 . S
C150 C149 1.392 . S
C150 C151 1.419 1_655 S
C150 H179 0.948 . S
C151 C150 1.419 1_455 S
C151 C152 1.391 1_565 S
C151 C155 1.398 . S
C152 C147 1.391 . S
C152 C151 1.391 1_545 S
C152 C153 1.399 . S
C153 C152 1.399 . S
C153 C154 1.396 . S
C153 C156 1.453 . S
C153 C157 1.684 . S
C154 C135 1.723 . S
C154 C153 1.396 . S
C154 C155 1.382 1_545 S
C155 C151 1.398 . S
C155 C154 1.382 1_565 S
C155 C165 1.734 1_455 S
C156 C153 1.453 . S
C156 H180 0.982 . S
C156 H181 0.979 . S
C156 H182 0.977 . S
C157 C153 1.684 . S
C157 H183 0.979 . S
C157 H184 0.980 . S
C157 H185 0.983 . S
C158 H134 0.948 . S
C158 C159 1.391 . S
C158 C163 1.391 . S
C159 C158 1.391 . S
C159 C160 1.391 . S
C160 H137 0.947 . S
C160 C159 1.391 . S
C160 C161 1.392 . S
C161 H138 0.948 . S
C161 C160 1.392 . S
C161 C162 1.419 . S
C162 C161 1.419 . S
C162 C163 1.391 . S
C162 C166 1.397 . S
C163 C158 1.391 . S
C163 C162 1.391 . S
C163 C164 1.399 . S
C164 C163 1.399 . S
C164 C165 1.396 . S
C164 C167 1.453 . S
C164 C168 1.684 . S
C165 C155 1.734 1_655 S
C165 C164 1.396 . S
C165 C166 1.394 . S
C166 C136 1.723 1_665 S
C166 C162 1.397 . S
C166 C165 1.394 . S
C167 H139 0.982 . S
C167 H143 0.979 . S
C167 H144 0.977 . S
C167 C164 1.453 . S
C168 H140 0.979 . S
C168 H141 0.980 . S
C168 H142 0.983 . S
C168 C164 1.684 . S
H169 C187 0.948 . S
H170 C128 0.948 . S
H171 C146 0.979 . S
H172 C146 0.980 . S
H173 C146 0.983 1_455 S
H174 C145 0.982 1_565 S
H175 C145 0.979 . S
H176 C145 0.977 1_565 S
H177 C147 0.948 . S
H178 C149 0.947 . S
H179 C150 0.948 . S
H180 C156 0.982 . S
H181 C156 0.979 . S
H182 C156 0.977 . S
H183 C157 0.979 . S
H184 C157 0.980 . S
H185 C157 0.983 . S
H186 C130 0.947 . S
C187 C130 1.392 . S
C187 C131 1.419 . S
C187 H169 0.948 . S
C188 C189 1.391 . S
C188 C192 1.391 . S
C188 H230 0.948 . S
C189 C188 1.391 . S
C189 C190 1.391 1_554 S
C190 C189 1.391 1_556 S
C190 H246 0.947 . S
C190 C247 1.392 . S
C191 C192 1.391 1_556 S
C191 C195 1.397 . S
C191 C247 1.419 . S
C192 C188 1.391 . S
C192 C191 1.391 1_554 S
C192 C193 1.399 . S
C193 C192 1.399 . S
C193 C196 1.396 1_554 S
C193 C205 1.453 . S
C193 C206 1.684 . S
H194 C218 0.948 . S
C195 C191 1.397 . S
C195 C196 1.394 . S
C195 C214 1.723 . S
C196 C193 1.396 1_556 S
C196 C195 1.394 . S
C196 C226 1.723 . S
H197 C220 0.947 . S
H198 C221 0.948 . S
H199 C227 0.982 . S
H200 C228 0.979 . S
H201 C228 0.980 . S
H202 C228 0.983 . S
H203 C227 0.979 . S
H204 C227 0.977 . S
C205 C193 1.453 . S
C205 H234 0.982 . S
C205 H235 0.979 . S
C205 H236 0.977 . S
C206 C193 1.684 . S
C206 H231 0.979 . S
C206 H232 0.980 . S
C206 H233 0.983 . S
C207 C208 1.391 . S
C207 C212 1.391 . S
C207 H237 0.948 . S
C208 C207 1.391 . S
C208 C209 1.391 . S
C209 C208 1.391 . S
C209 C210 1.392 . S
C209 H238 0.947 . S
C210 C209 1.392 . S
C210 C211 1.419 . S
C210 H239 0.948 . S
C211 C210 1.419 . S
C211 C212 1.391 . S
C211 C215 1.397 . S
C212 C207 1.391 . S
C212 C211 1.391 . S
C212 C213 1.399 . S
C213 C212 1.399 . S
C213 C214 1.396 . S
C213 C216 1.453 . S
C213 C217 1.684 . S
C214 C195 1.723 . S
C214 C213 1.396 . S
C214 C215 1.394 . S
C215 C211 1.397 . S
C215 C214 1.394 . S
C215 C225 1.723 . S
C216 C213 1.453 . S
C216 H240 0.982 . S
C216 H241 0.979 . S
C216 H242 0.977 . S
C217 C213 1.684 . S
C217 H243 0.979 . S
C217 H244 0.980 . S
C217 H245 0.983 . S
C218 H194 0.948 . S
C218 C219 1.391 1_556 S
C218 C223 1.391 . S
C219 C218 1.391 1_554 S
C219 C220 1.391 . S
C220 H197 0.947 . S
C220 C219 1.391 . S
C220 C221 1.392 . S
C221 H198 0.948 . S
C221 C220 1.392 . S
C221 C222 1.419 1_554 S
C222 C221 1.419 1_556 S
C222 C223 1.391 . S
C222 C226 1.397 . S
C223 C218 1.391 . S
C223 C222 1.391 . S
C223 C224 1.399 . S
C224 C223 1.399 . S
C224 C225 1.396 . S
C224 C227 1.453 . S
C224 C228 1.684 . S
C225 C215 1.723 . S
C225 C224 1.396 . S
C225 C226 1.394 . S
C226 C196 1.723 . S
C226 C222 1.397 . S
C226 C225 1.394 . S
C227 H199 0.982 . S
C227 H203 0.979 . S
C227 H204 0.977 . S
C227 C224 1.453 . S
C228 H200 0.979 . S
C228 H201 0.980 . S
C228 H202 0.983 . S
C228 C224 1.684 . S
H229 C247 0.948 . S
H230 C188 0.948 . S
H231 C206 0.979 . S
H232 C206 0.980 . S
H233 C206 0.983 . S
H234 C205 0.982 . S
H235 C205 0.979 . S
H236 C205 0.977 . S
H237 C207 0.948 . S
H238 C209 0.947 . S
H239 C210 0.948 . S
H240 C216 0.982 . S
H241 C216 0.979 . S
H242 C216 0.977 . S
H243 C217 0.979 . S
H244 C217 0.980 . S
H245 C217 0.983 . S
H246 C190 0.947 . S
C247 C190 1.392 . S
C247 C191 1.419 . S
C247 H229 0.948 . S
C248 C249 1.391 1_556 S
C248 C252 1.391 1_556 S
C248 H290 0.948 . S
C249 C248 1.391 1_554 S
C249 C250 1.391 . S
C250 C249 1.391 . S
C250 H306 0.947 . S
C250 C307 1.392 . S
C251 C252 1.391 . S
C251 C255 1.397 . S
C251 C307 1.419 . S
C252 C248 1.391 1_554 S
C252 C251 1.391 . S
C252 C253 1.399 . S
C253 C252 1.399 . S
C253 C256 1.396 . S
C253 C265 1.453 1_554 S
C253 C266 1.684 1_554 S
H254 C278 0.948 . S
C255 C251 1.397 . S
C255 C256 1.394 . S
C255 C274 1.723 . S
C256 C253 1.396 . S
C256 C255 1.394 . S
C256 C286 1.723 . S
H257 C280 0.947 . S
H258 C281 0.948 . S
H259 C287 0.982 . S
H260 C288 0.979 . S
H261 C288 0.980 . S
H262 C288 0.983 . S
H263 C287 0.979 . S
H264 C287 0.977 . S
C265 C253 1.453 1_556 S
C265 H294 0.982 . S
C265 H295 0.979 . S
C265 H296 0.977 . S
C266 C253 1.684 1_556 S
C266 H291 0.979 . S
C266 H292 0.980 . S
C266 H293 0.983 . S
C267 C268 1.391 . S
C267 C272 1.391 . S
C267 H297 0.948 . S
C268 C267 1.391 . S
C268 C269 1.391 . S
C269 C268 1.391 . S
C269 C270 1.392 . S
C269 H298 0.947 . S
C270 C269 1.392 . S
C270 C271 1.419 . S
C270 H299 0.948 . S
C271 C270 1.419 . S
C271 C272 1.391 . S
C271 C275 1.397 . S
C272 C267 1.391 . S
C272 C271 1.391 . S
C272 C273 1.399 . S
C273 C272 1.399 . S
C273 C274 1.396 . S
C273 C276 1.453 . S
C273 C277 1.684 . S
C274 C255 1.723 . S
C274 C273 1.396 . S
C274 C275 1.394 . S
C275 C271 1.397 . S
C275 C274 1.394 . S
C275 C285 1.723 . S
C276 C273 1.453 . S
C276 H300 0.982 . S
C276 H301 0.979 . S
C276 H302 0.977 . S
C277 C273 1.684 . S
C277 H303 0.979 . S
C277 H304 0.980 . S
C277 H305 0.983 . S
C278 H254 0.948 . S
C278 C279 1.391 1_554 S
C278 C283 1.391 . S
C279 C278 1.391 1_556 S
C279 C280 1.391 . S
C280 H257 0.947 . S
C280 C279 1.391 . S
C280 C281 1.392 . S
C281 H258 0.948 . S
C281 C280 1.392 . S
C281 C282 1.419 1_556 S
C282 C281 1.419 1_554 S
C282 C283 1.391 . S
C282 C286 1.397 . S
C283 C278 1.391 . S
C283 C282 1.391 . S
C283 C284 1.399 . S
C284 C283 1.399 . S
C284 C285 1.396 . S
C284 C287 1.453 . S
C284 C288 1.684 . S
C285 C275 1.723 . S
C285 C284 1.396 . S
C285 C286 1.394 . S
C286 C256 1.723 . S
C286 C282 1.397 . S
C286 C285 1.394 . S
C287 H259 0.982 . S
C287 H263 0.979 . S
C287 H264 0.977 . S
C287 C284 1.453 . S
C288 H260 0.979 . S
C288 H261 0.980 . S
C288 H262 0.983 . S
C288 C284 1.684 . S
H289 C307 0.948 . S
H290 C248 0.948 . S
H291 C266 0.979 . S
H292 C266 0.980 . S
H293 C266 0.983 . S
H294 C265 0.982 . S
H295 C265 0.979 . S
H296 C265 0.977 . S
H297 C267 0.948 . S
H298 C269 0.947 . S
H299 C270 0.948 . S
H300 C276 0.982 . S
H301 C276 0.979 . S
H302 C276 0.977 . S
H303 C277 0.979 . S
H304 C277 0.980 . S
H305 C277 0.983 . S
H306 C250 0.947 . S
C307 C250 1.392 . S
C307 C251 1.419 . S
C307 H289 0.948 . S
C308 C309 1.369 . S
C308 C310 1.419 1_554 S
C308 H312 0.930 . S
C309 C308 1.369 . S
C309 C318 1.429 1_554 S
C310 C308 1.419 1_556 S
C310 C311 1.363 . S
C310 H313 0.929 . S
C311 C310 1.363 . S
C311 C317 1.428 . S
H312 C308 0.930 . S
H313 C310 0.929 . S
S314 N315 1.613 . S
S314 N316 1.610 . S
N315 S314 1.613 . S
N315 C318 1.350 . S
N316 S314 1.610 . S
N316 C317 1.351 . S
C317 C311 1.428 . S
C317 N316 1.351 . S
C317 C318 1.434 . S
C318 C309 1.429 1_556 S
C318 N315 1.350 . S
C318 C317 1.434 . S
C319 C320 1.369 . S
C319 C321 1.419 . S
C319 H323 0.930 . S
C320 C319 1.369 . S
C320 C329 1.429 . S
C321 C319 1.419 . S
C321 C322 1.363 . S
C321 H324 0.929 . S
C322 C321 1.363 . S
C322 C328 1.428 . S
H323 C319 0.930 . S
H324 C321 0.929 . S
S325 N326 1.613 . S
S325 N327 1.610 . S
N326 S325 1.613 . S
N326 C329 1.350 1_556 S
N327 S325 1.610 . S
N327 C328 1.351 1_556 S
C328 C322 1.428 . S
C328 N327 1.351 1_554 S
C328 C329 1.434 . S
C329 C320 1.429 . S
C329 N326 1.350 1_554 S
C329 C328 1.434 . S
C330 C331 1.369 1_556 S
C330 C332 1.419 . S
C330 H334 0.930 . S
C331 C330 1.369 1_554 S
C331 C340 1.429 . S
C332 C330 1.419 . S
C332 C333 1.363 . S
C332 H335 0.929 . S
C333 C332 1.363 . S
C333 C339 1.428 1_556 S
H334 C330 0.930 . S
H335 C332 0.929 . S
S336 N337 1.613 . S
S336 N338 1.610 . S
N337 S336 1.613 . S
N337 C340 1.350 . S
N338 S336 1.610 . S
N338 C339 1.351 . S
C339 C333 1.428 1_554 S
C339 N338 1.351 . S
C339 C340 1.434 . S
C340 C331 1.429 . S
C340 N337 1.350 . S
C340 C339 1.434 . S
C341 C342 1.369 1_556 S
C341 C343 1.419 1_556 S
C341 H345 0.930 . S
C342 C341 1.369 1_554 S
C342 C351 1.429 . S
C343 C341 1.419 1_554 S
C343 C344 1.363 . S
C343 H346 0.929 1_554 S
C344 C343 1.363 . S
C344 C350 1.428 . S
H345 C341 0.930 . S
H346 C343 0.929 1_556 S
S347 N348 1.613 . S
S347 N349 1.610 . S
N348 S347 1.613 . S
N348 C351 1.350 . S
N349 S347 1.610 . S
N349 C350 1.351 . S
C350 C344 1.428 . S
C350 N349 1.351 . S
C350 C351 1.434 . S
C351 C342 1.429 . S
C351 N348 1.350 . S
C351 C350 1.434 . S
C352 C353 1.369 . S
C352 C354 1.419 . S
C352 H356 0.930 . S
C353 C352 1.369 . S
C353 C362 1.429 . S
C354 C352 1.419 . S
C354 C355 1.363 . S
C354 H357 0.929 . S
C355 C354 1.363 . S
C355 C361 1.428 . S
H356 C352 0.930 . S
H357 C354 0.929 . S
S358 N359 1.613 . S
S358 N360 1.610 . S
N359 S358 1.613 . S
N359 C362 1.350 . S
N360 S358 1.610 . S
N360 C361 1.351 . S
C361 C355 1.428 . S
C361 N360 1.351 . S
C361 C362 1.434 . S
C362 C353 1.429 . S
C362 N359 1.350 . S
C362 C361 1.434 . S
C363 C364 1.369 . S
C363 C365 1.419 . S
C363 H367 0.930 . S
C364 C363 1.369 . S
C364 C373 1.429 . S
C365 C363 1.419 . S
C365 C366 1.363 . S
C365 H368 0.929 . S
C366 C365 1.363 . S
C366 C372 1.428 . S
H367 C363 0.930 . S
H368 C365 0.929 . S
S369 N370 1.613 . S
S369 N371 1.610 . S
N370 S369 1.613 . S
N370 C373 1.350 . S
N371 S369 1.610 . S
N371 C372 1.351 . S
C372 C366 1.428 . S
C372 N371 1.351 . S
C372 C373 1.434 . S
C373 C364 1.429 . S
C373 N370 1.350 . S
C373 C372 1.434 . S
C374 C375 1.369 . S
C374 C376 1.419 . S
C374 H378 0.930 . S
C375 C374 1.369 . S
C375 C384 1.429 . S
C376 C374 1.419 . S
C376 C377 1.363 . S
C376 H379 0.929 . S
C377 C376 1.363 . S
C377 C383 1.428 . S
H378 C374 0.930 . S
H379 C376 0.929 . S
S380 N381 1.613 . S
S380 N382 1.610 . S
N381 S380 1.613 . S
N381 C384 1.350 . S
N382 S380 1.610 . S
N382 C383 1.351 . S
C383 C377 1.428 . S
C383 N382 1.351 . S
C383 C384 1.434 . S
C384 C375 1.429 . S
C384 N381 1.350 . S
C384 C383 1.434 . S
C385 C386 1.369 . S
C385 C387 1.419 . S
C385 H389 0.930 . S
C386 C385 1.369 . S
C386 C395 1.429 . S
C387 C385 1.419 . S
C387 C388 1.363 . S
C387 H390 0.929 . S
C388 C387 1.363 . S
C388 C394 1.428 . S
H389 C385 0.930 . S
H390 C387 0.929 . S
S391 N392 1.613 . S
S391 N393 1.610 . S
N392 S391 1.613 . S
N392 C395 1.350 . S
N393 S391 1.610 . S
N393 C394 1.351 . S
C394 C388 1.428 . S
C394 N393 1.351 . S
C394 C395 1.434 . S
C395 C386 1.429 . S
C395 N392 1.350 . S
C395 C394 1.434 . S
C396 C397 1.369 1_655 S
C396 C398 1.419 . S
C396 H400 0.930 . S
C397 C396 1.369 1_455 S
C397 C406 1.429 1_545 S
C398 C396 1.419 . S
C398 C399 1.361 1_655 S
C398 H401 0.929 . S
C399 C398 1.361 1_455 S
C399 C405 1.431 1_545 S
H400 C396 0.930 . S
H401 C398 0.929 . S
S402 N403 1.613 . S
S402 N404 1.610 . S
N403 S402 1.613 . S
N403 C406 1.350 . S
N404 S402 1.610 . S
N404 C405 1.351 . S
C405 C399 1.431 1_565 S
C405 N404 1.351 . S
C405 C406 1.434 . S
C406 C397 1.429 1_565 S
C406 N403 1.350 . S
C406 C405 1.434 . S
C407 C408 1.369 . S
C407 C409 1.419 . S
C407 H411 0.930 . S
C408 C407 1.369 . S
C408 C417 1.429 1_445 S
C409 C407 1.419 . S
C409 C410 1.363 . S
C409 H412 0.929 . S
C410 C409 1.363 . S
C410 C416 1.428 1_445 S
H411 C407 0.930 . S
H412 C409 0.929 . S
S413 N414 1.613 . S
S413 N415 1.610 . S
N414 S413 1.613 . S
N414 C417 1.350 . S
N415 S413 1.610 . S
N415 C416 1.351 . S
C416 C410 1.428 1_665 S
C416 N415 1.351 . S
C416 C417 1.434 . S
C417 C408 1.429 1_665 S
C417 N414 1.350 . S
C417 C416 1.434 . S
C418 C419 1.369 . S
C418 C420 1.419 . S
C418 H422 0.930 . S
C419 C418 1.369 . S
C419 C428 1.429 . S
C420 C418 1.419 . S
C420 C421 1.363 . S
C420 H423 0.929 . S
C421 C420 1.363 . S
C421 C427 1.428 . S
H422 C418 0.930 . S
H423 C420 0.929 . S
S424 N425 1.613 . S
S424 N426 1.610 . S
N425 S424 1.613 . S
N425 C428 1.350 . S
N426 S424 1.610 . S
N426 C427 1.351 . S
C427 C421 1.428 . S
C427 N426 1.351 . S
C427 C428 1.434 . S
C428 C419 1.429 . S
C428 N425 1.350 . S
C428 C427 1.434 . S
C429 C430 1.369 . S
C429 C431 1.419 . S
C429 H433 0.930 . S
C430 C429 1.369 . S
C430 C439 1.429 . S
C431 C429 1.419 . S
C431 C432 1.363 . S
C431 H434 0.929 . S
C432 C431 1.363 . S
C432 C438 1.428 . S
H433 C429 0.930 . S
H434 C431 0.929 . S
S435 N436 1.613 . S
S435 N437 1.610 . S
N436 S435 1.613 . S
N436 C439 1.350 . S
N437 S435 1.610 . S
N437 C438 1.351 . S
C438 C432 1.428 . S
C438 N437 1.351 . S
C438 C439 1.434 . S
C439 C430 1.429 . S
C439 N436 1.350 . S
C439 C438 1.434 . S
C311 C279 1.590 . S
C309 C29 1.621 . S
C320 C8 1.592 . S
C322 C219 1.573 . S
C331 C0 1.577 . S
C333 C249 1.402 1_556 S
C342 C17 1.604 . S
C344 C189 1.428 . S
C353 C63 1.622 . S
C355 C159 1.588 . S
C364 C42 1.591 . S
C366 C99 1.575 . S
C377 C129 1.412 . S
C375 C34 1.575 . S
C388 C69 1.425 . S
C386 C51 1.605 . S
C397 C4 1.490 . S
C399 C88 1.472 1_455 S
C408 C13 1.488 . S
C410 C148 1.460 . S
C421 C208 1.469 . S
C419 C38 1.490 . S
C430 C47 1.489 . S
C432 C268 1.460 . S
