# Generated by pormake.
# Topology pyr, (3,6)-cn, num edge types: 1
# Building blocks:
#     Node 0, Type 0, BuildingBlock: PAMTOO_clean_linker_0, # of connection points: 3
#     Node 1, Type 0, BuildingBlock: PAMTOO_clean_linker_0, # of connection points: 3
#     Node 2, Type 0, BuildingBlock: PAMTOO_clean_linker_0, # of connection points: 3
#     Node 3, Type 0, BuildingBlock: PAMTOO_clean_linker_0, # of connection points: 3
#     Node 4, Type 0, BuildingBlock: PAMTOO_clean_linker_0, # of connection points: 3
#     Node 5, Type 0, BuildingBlock: PAMTOO_clean_linker_0, # of connection points: 3
#     Node 6, Type 0, BuildingBlock: PAMTOO_clean_linker_0, # of connection points: 3
#     Node 7, Type 0, BuildingBlock: PAMTOO_clean_linker_0, # of connection points: 3
#     Node 8, Type 1, BuildingBlock: JUFBIX_clean_sbu_0, # of connection points: 6
#     Node 9, Type 1, BuildingBlock: JUFBIX_clean_sbu_0, # of connection points: 6
#     Node 10, Type 1, BuildingBlock: JUFBIX_clean_sbu_0, # of connection points: 6
#     Node 11, Type 1, BuildingBlock: JUFBIX_clean_sbu_0, # of connection points: 6
#     Edge 12, Type (0, 1), BuildingBlock: UVAHIK_clean_linker_0, # of connection points: 2
#     Edge 13, Type (0, 1), BuildingBlock: UVAHIK_clean_linker_0, # of connection points: 2
#     Edge 14, Type (0, 1), BuildingBlock: UVAHIK_clean_linker_0, # of connection points: 2
#     Edge 15, Type (0, 1), BuildingBlock: UVAHIK_clean_linker_0, # of connection points: 2
#     Edge 16, Type (0, 1), BuildingBlock: UVAHIK_clean_linker_0, # of connection points: 2
#     Edge 17, Type (0, 1), BuildingBlock: UVAHIK_clean_linker_0, # of connection points: 2
#     Edge 18, Type (0, 1), BuildingBlock: UVAHIK_clean_linker_0, # of connection points: 2
#     Edge 19, Type (0, 1), BuildingBlock: UVAHIK_clean_linker_0, # of connection points: 2
#     Edge 20, Type (0, 1), BuildingBlock: UVAHIK_clean_linker_0, # of connection points: 2
#     Edge 21, Type (0, 1), BuildingBlock: UVAHIK_clean_linker_0, # of connection points: 2
#     Edge 22, Type (0, 1), BuildingBlock: UVAHIK_clean_linker_0, # of connection points: 2
#     Edge 23, Type (0, 1), BuildingBlock: UVAHIK_clean_linker_0, # of connection points: 2
#     Edge 24, Type (0, 1), BuildingBlock: UVAHIK_clean_linker_0, # of connection points: 2
#     Edge 25, Type (0, 1), BuildingBlock: UVAHIK_clean_linker_0, # of connection points: 2
#     Edge 26, Type (0, 1), BuildingBlock: UVAHIK_clean_linker_0, # of connection points: 2
#     Edge 27, Type (0, 1), BuildingBlock: UVAHIK_clean_linker_0, # of connection points: 2
#     Edge 28, Type (0, 1), BuildingBlock: UVAHIK_clean_linker_0, # of connection points: 2
#     Edge 29, Type (0, 1), BuildingBlock: UVAHIK_clean_linker_0, # of connection points: 2
#     Edge 30, Type (0, 1), BuildingBlock: UVAHIK_clean_linker_0, # of connection points: 2
#     Edge 31, Type (0, 1), BuildingBlock: UVAHIK_clean_linker_0, # of connection points: 2
#     Edge 32, Type (0, 1), BuildingBlock: UVAHIK_clean_linker_0, # of connection points: 2
#     Edge 33, Type (0, 1), BuildingBlock: UVAHIK_clean_linker_0, # of connection points: 2
#     Edge 34, Type (0, 1), BuildingBlock: UVAHIK_clean_linker_0, # of connection points: 2
#     Edge 35, Type (0, 1), BuildingBlock: UVAHIK_clean_linker_0, # of connection points: 2
# Relax obj value: 0.106
# Max RMSD: 0.200
# Mean RMSD: 0.137
data_MOF--net-pyr--node1-JUFBIX_clean_sbu_0--node2-PAMTOO_clean_linker_0--edge1-UVAHIK_clean_linker_0
_symmetry_space_group_name_H-M    P1
_symmetry_Int_Tables_number       1
_symmetry_cell_setting            triclinic
loop_
_symmetry_equiv_pos_as_xyz
'x, y, z'
_cell_length_a     47.078241
_cell_length_b     46.431328
_cell_length_c     47.69894
_cell_angle_alpha  84.643527
_cell_angle_beta   89.794758
_cell_angle_gamma 94.608478
loop_
_atom_site_label
_atom_site_type_symbol
_atom_site_fract_x
_atom_site_fract_y
_atom_site_fract_z
_atom_type_partial_charge
H0 H 0.16113 0.18807 0.21975 0.0
H1 H 0.22499 0.12637 0.22797 0.0
H2 H 0.22663 0.18902 0.15611 0.0
H3 H 0.23676 0.13031 0.14319 0.0
C4 C 0.24869 0.12299 0.1623 0.0
O5 O 0.25102 0.14477 0.18027 0.0
H6 H 0.23632 0.10357 0.17298 0.0
C7 C 0.1801 0.17961 0.21192 0.0
C8 C 0.19237 0.19193 0.18603 0.0
C9 C 0.19158 0.15599 0.22751 0.0
C10 C 0.21548 0.14429 0.2164 0.0
C11 C 0.22777 0.15599 0.19054 0.0
C12 C 0.21637 0.17982 0.17564 0.0
H13 H 0.42582 0.95345 0.64359 0.0
H14 H 0.42315 0.89554 0.57827 0.0
H15 H 0.49457 0.89901 0.63327 0.0
H16 H 0.50643 0.88844 0.57163 0.0
C17 C 0.48607 0.87522 0.56866 0.0
O18 O 0.47005 0.87251 0.5931 0.0
H19 H 0.47422 0.88622 0.55116 0.0
C20 C 0.43612 0.93807 0.63208 0.0
C21 C 0.46235 0.92824 0.64138 0.0
C22 C 0.42196 0.92681 0.60909 0.0
C23 C 0.43399 0.90506 0.5956 0.0
C24 C 0.46004 0.89523 0.60448 0.0
C25 C 0.47442 0.90708 0.62685 0.0
H26 H 0.72072 0.33592 0.94313 0.0
H27 H 0.65467 0.35587 0.88363 0.0
H28 H 0.72849 0.4153 0.88837 0.0
H29 H 0.67715 0.44418 0.87801 0.0
C30 C 0.66419 0.42746 0.86727 0.0
O31 O 0.68047 0.40496 0.86262 0.0
H32 H 0.64562 0.41933 0.88114 0.0
C33 C 0.71186 0.35054 0.92704 0.0
C34 C 0.72753 0.37673 0.91771 0.0
C35 C 0.6856 0.34249 0.91479 0.0
C36 C 0.67497 0.36134 0.89325 0.0
C37 C 0.69046 0.38746 0.88388 0.0
C38 C 0.71672 0.39502 0.89591 0.0
H39 H 0.95699 0.66724 0.49333 0.0
H40 H 0.932 0.60892 0.431 0.0
H41 H 0.99338 0.68058 0.40964 0.0
H42 H 0.9485 0.67278 0.36867 0.0
C43 C 0.94364 0.64884 0.37211 0.0
O44 O 0.96302 0.63727 0.39077 0.0
H45 H 0.92163 0.64441 0.38091 0.0
C46 C 0.95953 0.66003 0.47257 0.0
C47 C 0.9778 0.6766 0.45272 0.0
C48 C 0.94287 0.63542 0.46507 0.0
C49 C 0.94548 0.62699 0.4377 0.0
C50 C 0.96347 0.64343 0.41786 0.0
C51 C 0.97993 0.66781 0.42546 0.0
H52 H 0.84051 0.89554 0.84608 0.0
H53 H 0.84093 0.833 0.91897 0.0
H54 H 0.90478 0.83434 0.85468 0.0
H55 H 0.8769 0.7764 0.87655 0.0
C56 C 0.87686 0.77985 0.89934 0.0
O57 O 0.88553 0.80846 0.90277 0.0
H58 H 0.8546 0.77485 0.90733 0.0
C59 C 0.85003 0.87792 0.85813 0.0
C60 C 0.87433 0.86676 0.84719 0.0
C61 C 0.8374 0.8659 0.88396 0.0
C62 C 0.84971 0.84237 0.89883 0.0
C63 C 0.87374 0.8309 0.88811 0.0
C64 C 0.88594 0.84311 0.86244 0.0
H65 H 0.7011 0.14815 0.35802 0.0
H66 H 0.62623 0.19572 0.36112 0.0
H67 H 0.68734 0.19844 0.4273 0.0
H68 H 0.62962 0.18889 0.44476 0.0
C69 C 0.62056 0.20638 0.43082 0.0
O70 O 0.63904 0.21623 0.40888 0.0
H71 H 0.60015 0.19743 0.42218 0.0
C72 C 0.68842 0.16283 0.36805 0.0
C73 C 0.69746 0.17261 0.39377 0.0
C74 C 0.66269 0.17089 0.35589 0.0
C75 C 0.64594 0.18878 0.37009 0.0
C76 C 0.65485 0.19849 0.39577 0.0
C77 C 0.6806 0.19059 0.40749 0.0
H78 H 0.37328 0.66695 0.11877 0.0
H79 H 0.37138 0.59412 0.18182 0.0
H80 H 0.44141 0.65906 0.17858 0.0
H81 H 0.45492 0.59765 0.18859 0.0
C82 C 0.4373 0.58997 0.20378 0.0
O83 O 0.41884 0.61135 0.20551 0.0
H84 H 0.42572 0.57044 0.1961 0.0
C85 C 0.38329 0.655 0.13612 0.0
C86 C 0.40924 0.66636 0.14682 0.0
C87 C 0.3694 0.62895 0.14852 0.0
C88 C 0.38172 0.61421 0.17189 0.0
C89 C 0.4076 0.62516 0.18252 0.0
C90 C 0.42132 0.65104 0.17003 0.0
H91 H 0.0833 0.34256 0.6847 0.0
H92 H 0.15024 0.40704 0.65412 0.0
H93 H 0.10917 0.35133 0.59751 0.0
H94 H 0.16673 0.36301 0.58091 0.0
C95 C 0.17287 0.37906 0.59617 0.0
O96 O 0.14898 0.39266 0.60266 0.0
H97 H 0.18133 0.36718 0.61533 0.0
C98 C 0.0967 0.35338 0.66775 0.0
C99 C 0.09379 0.34414 0.64059 0.0
C100 C 0.11662 0.37653 0.67298 0.0
C101 C 0.13388 0.39003 0.65058 0.0
C102 C 0.13088 0.38107 0.6235 0.0
C103 C 0.11054 0.35862 0.61843 0.0
Co104 Co 0.01518 0.01681 0.5305 0.0
C105 C 0.04161 0.96555 0.52532 0.0
Co106 Co 0.05689 0.01447 0.55104 0.0
C107 C 0.96522 0.03797 0.50251 0.0
C108 C 0.96105 0.99221 0.51463 0.0
N109 N 0.97975 0.0159 0.51388 0.0
N110 N 0.93812 0.02894 0.49668 0.0
C111 C 0.93544 1.00019 0.50417 0.0
H112 H 0.97372 0.06045 0.50027 0.0
H113 H 0.96528 0.97075 0.52363 0.0
C114 C 0.03033 0.06574 0.55633 0.0
N115 N 0.09165 0.01489 0.56889 0.0
C116 C 0.11647 0.00518 0.56103 0.0
C117 C 0.09683 0.02485 0.59419 0.0
N118 N 0.13688 0.00856 0.58059 0.0
C119 C 0.12454 0.02105 0.6014 0.0
C120 C 0.06008 0.03845 0.49468 0.0
O121 O 1.01043 0.05407 0.54229 0.0
O122 O 0.05235 0.05225 0.56183 0.0
O123 O 0.07485 0.03123 0.51621 0.0
O124 O 0.03301 0.03435 0.49641 0.0
O125 O 0.0611 0.97649 0.54037 0.0
H126 H 0.08133 0.03408 0.60675 0.0
H127 H 0.11926 0.99525 0.54167 0.0
O128 O 0.02034 0.9798 0.51871 0.0
O129 O 0.99742 0.99915 0.56486 0.0
O130 O 0.03876 0.99781 0.5854 0.0
C131 C 0.01185 0.99272 0.58668 0.0
H132 H 0.91603 0.98618 0.50309 0.0
H133 H 0.1348 0.02721 0.62046 0.0
Co134 Co 0.53407 1.00064 1.00068 0.0
C135 C 0.52627 0.95096 0.03773 0.0
Co136 Co 0.55734 0.00374 0.04046 0.0
C137 C 0.52445 0.99832 0.94108 0.0
C138 C 0.48534 0.99565 0.96453 0.0
N139 N 0.51393 0.99819 0.96748 0.0
N140 N 0.50361 0.99611 0.92191 0.0
C141 C 0.47895 0.99455 0.93651 0.0
H142 H 0.54696 1.00005 0.93589 0.0
H143 H 0.47002 0.99421 0.98165 0.0
C144 C 0.56508 0.05348 1.00349 0.0
N145 N 0.57738 0.00617 0.07344 0.0
C146 C 0.57696 0.02703 0.09126 0.0
C147 C 0.5962 0.98796 0.08454 0.0
N148 N 0.59488 0.02265 0.11292 0.0
C149 C 0.60715 0.99816 0.10877 0.0
C150 C 0.58876 0.9819 0.99836 0.0
O151 O 0.5489 0.03884 0.98782 0.0
O152 O 0.57153 0.04211 0.02767 0.0
O153 O 0.5894 0.98897 0.02347 0.0
O154 O 0.56622 0.9851 0.98419 0.0
O155 O 0.54295 0.96547 0.05305 0.0
H156 H 0.6017 0.96858 0.07552 0.0
H157 H 0.56419 0.04542 0.08811 0.0
O158 O 0.51938 0.96239 0.0137 0.0
O159 O 0.50223 0.01627 0.01777 0.0
O160 O 0.52524 0.01849 0.05734 0.0
C161 C 0.50287 0.02253 0.04318 0.0
H162 H 0.45787 0.99184 0.92766 0.0
H163 H 0.62266 0.98824 0.12244 0.0
Co164 Co 0.57694 0.53731 0.53162 0.0
C165 C 0.53824 0.53578 0.48749 0.0
Co166 Co 0.53351 0.5195 0.54445 0.0
C167 C 0.63838 0.54734 0.52874 0.0
C168 C 0.61721 0.5797 0.50371 0.0
N169 N 0.61233 0.55475 0.5205 0.0
N170 N 0.65924 0.56697 0.51805 0.0
C171 C 0.64601 0.58732 0.50226 0.0
H172 H 0.64189 0.52855 0.54314 0.0
H173 H 0.60079 0.59196 0.49375 0.0
C174 C 0.57208 0.52073 0.58857 0.0
N175 N 0.49822 0.50188 0.55571 0.0
C176 C 0.47191 0.50909 0.54809 0.0
C177 C 0.49389 0.47645 0.57189 0.0
N178 N 0.45154 0.48883 0.55857 0.0
C179 C 0.46522 0.46828 0.5735 0.0
C180 C 0.57031 0.47884 0.52897 0.0
O181 O 0.58956 0.53164 0.56937 0.0
O182 O 0.54638 0.5141 0.58212 0.0
O183 O 0.54542 0.4827 0.53745 0.0
O184 O 0.58857 0.50049 0.52477 0.0
O185 O 0.52092 0.52488 0.50684 0.0
H186 H 0.51062 0.46415 0.58118 0.0
H187 H 0.46787 0.52806 0.53415 0.0
O188 O 0.56394 0.54282 0.49377 0.0
O189 O 0.56518 0.57397 0.53863 0.0
O190 O 0.52181 0.55655 0.55106 0.0
C191 C 0.54025 0.57809 0.5468 0.0
H192 H 0.65643 0.60643 0.49063 0.0
H193 H 0.45516 0.44855 0.58439 0.0
Co194 Co 0.05769 0.49266 0.01556 0.0
C195 C 1.00129 0.46944 0.0247 0.0
Co196 Co 0.04072 0.495 0.05854 0.0
C197 C 0.08814 0.47796 0.96543 0.0
C198 C 0.05698 0.50855 0.95633 0.0
N199 N 0.06874 0.4928 0.97789 0.0
N200 N 0.08918 0.4846 0.93722 0.0
C201 C 0.06964 0.5038 0.93154 0.0
H202 H 0.10104 0.4625 0.97665 0.0
H203 H 0.03957 0.52209 0.95814 0.0
C204 C 0.09715 0.51824 0.04936 0.0
N205 N 0.02945 0.49517 0.09583 0.0
C206 C 1.00849 0.50903 0.10685 0.0
C207 C 0.04239 0.48235 0.11834 0.0
N208 N 1.00785 0.50518 0.13526 0.0
C209 C 0.02909 0.48831 0.14252 0.0
C210 C 0.06842 0.44426 0.05037 0.0
O211 O 0.09358 0.51084 0.02452 0.0
O212 O 0.07667 0.51351 0.06709 0.0
O213 O 0.05521 0.4581 0.06734 0.0
O214 O 0.07197 0.45514 0.02495 0.0
O215 O 1.00496 0.47645 0.04965 0.0
H216 H 0.06108 0.47038 0.11739 0.0
H217 H 0.99434 0.52218 0.09436 0.0
O218 O 0.02166 0.47454 1.0069 0.0
O219 O 0.04342 0.53019 1.00709 0.0
O220 O 0.02617 0.53196 0.04935 0.0
C221 C 0.02992 0.54349 0.02429 0.0
H222 H 0.06405 0.51277 0.9107 0.0
H223 H 0.03555 0.48205 0.16384 0.0
C224 C 0.16845 0.16232 0.27426 0.0
C225 C 0.17872 0.14386 0.25541 0.0
C226 C 0.15618 0.15109 0.30023 0.0
C227 C 0.15145 0.08578 0.35222 0.0
H228 H 0.08505 0.11951 0.3793 0.0
C229 C 0.10403 0.05409 0.46481 0.0
C230 C 0.07414 0.05104 0.46769 0.0
C231 C 0.11711 0.06547 0.4392 0.0
C232 C 0.10347 0.10966 0.37203 0.0
H233 H 0.18381 0.0988 0.24947 0.0
H234 H 0.16254 0.07927 0.29472 0.0
H235 H 0.10681 0.13857 0.33423 0.0
H236 H 0.03467 0.05774 0.44561 0.0
H237 H 0.05736 0.07737 0.40114 0.0
H238 H 0.14778 0.05654 0.38984 0.0
C239 C 0.16429 0.10256 0.28952 0.0
C240 C 0.1162 0.12086 0.34625 0.0
C241 C 0.17653 0.11379 0.26349 0.0
C242 C 0.05773 0.05982 0.44428 0.0
C243 C 0.07078 0.07127 0.41874 0.0
C244 C 0.13877 0.07465 0.37808 0.0
C245 C 0.15383 0.12103 0.30825 0.0
C246 C 0.14035 0.10907 0.3359 0.0
C247 C 0.10067 0.07424 0.41577 0.0
C248 C 0.11453 0.08637 0.38835 0.0
H249 H 0.17023 0.18562 0.26913 0.0
H250 H 0.14888 0.16609 0.31422 0.0
H251 H 0.17017 0.07629 0.34515 0.0
H252 H 0.1174 0.04759 0.48235 0.0
H253 H 0.14016 0.06772 0.43789 0.0
C254 C 0.47241 0.96639 0.67516 0.0
C255 C 0.47561 0.93827 0.66753 0.0
C256 C 0.48144 0.97446 0.70139 0.0
C257 C 0.49863 0.94054 0.77247 0.0
H258 H 0.51674 0.02071 0.78702 0.0
C259 C 0.52707 0.9759 0.88274 0.0
C260 C 0.50679 0.99339 0.89235 0.0
C261 C 0.52822 0.97093 0.85432 0.0
C262 C 0.5119 0.99824 0.78312 0.0
H263 H 0.49261 0.89719 0.68135 0.0
H264 H 0.51028 0.91198 0.72575 0.0
H265 H 0.5115 0.00842 0.73851 0.0
H266 H 0.47286 0.02052 0.87994 0.0
H267 H 0.47544 0.01253 0.82989 0.0
H268 H 0.49966 0.93054 0.81721 0.0
C269 C 0.49953 0.92745 0.71206 0.0
C270 C 0.50862 0.99115 0.75539 0.0
C271 C 0.48985 0.91912 0.68615 0.0
C272 C 0.48855 0.00686 0.87294 0.0
C273 C 0.49015 1.00245 0.84442 0.0
C274 C 0.50259 0.94758 0.80007 0.0
C275 C 0.49461 0.95488 0.7205 0.0
C276 C 0.50129 0.96225 0.74969 0.0
C277 C 0.5096 0.98398 0.83503 0.0
C278 C 0.50868 0.97652 0.80563 0.0
H279 H 0.46224 0.98208 0.66118 0.0
H280 H 0.477 0.99571 0.70698 0.0
H281 H 0.49238 0.91817 0.76925 0.0
H282 H 0.54118 0.96513 0.89741 0.0
H283 H 0.54331 0.95654 0.84746 0.0
C284 C 0.62649 0.43399 0.83025 0.0
C285 C 0.65431 0.44072 0.83944 0.0
C286 C 0.61787 0.44521 0.80371 0.0
C287 C 0.64617 0.47319 0.73376 0.0
H288 H 0.57167 0.50241 0.72342 0.0
C289 C 0.60979 0.52274 0.6255 0.0
C290 C 0.58162 0.51481 0.6179 0.0
C291 C 0.61899 0.51598 0.653 0.0
C292 C 0.59245 0.49409 0.72591 0.0
H293 H 0.69514 0.46374 0.8282 0.0
H294 H 0.68011 0.48352 0.78168 0.0
H295 H 0.58707 0.48614 0.77063 0.0
H296 H 0.54097 0.49376 0.63327 0.0
H297 H 0.55712 0.4816 0.68095 0.0
H298 H 0.65138 0.48056 0.68903 0.0
C299 C 0.66492 0.4697 0.79499 0.0
C300 C 0.60126 0.4848 0.75296 0.0
C301 C 0.67347 0.45859 0.82159 0.0
C302 C 0.56278 0.50032 0.63845 0.0
C303 C 0.572 0.49348 0.66587 0.0
C304 C 0.63731 0.48235 0.70668 0.0
C305 C 0.63704 0.46306 0.78573 0.0
C306 C 0.62813 0.47406 0.75715 0.0
C307 C 0.60026 0.50107 0.67346 0.0
C308 C 0.61024 0.4927 0.7024 0.0
H309 H 0.61151 0.41984 0.84349 0.0
H310 H 0.5964 0.43933 0.79699 0.0
H311 H 0.66685 0.46466 0.73627 0.0
H312 H 0.62481 0.53401 0.61018 0.0
H313 H 0.64079 0.52249 0.65823 0.0
C314 C 0.94716 0.65263 0.31905 0.0
C315 C 0.94485 0.63527 0.3448 0.0
C316 C 0.94794 0.63989 0.29369 0.0
C317 C 0.93316 0.56976 0.26252 0.0
H318 H 0.98999 0.60309 0.20721 0.0
C319 C 0.9839 0.50547 0.18113 0.0
C320 C 0.99124 0.51935 0.15438 0.0
C321 C 0.97177 0.52057 0.20146 0.0
C322 C 0.9736 0.59382 0.22215 0.0
H323 H 0.94032 0.59117 0.36438 0.0
H324 H 0.9426 0.56877 0.32019 0.0
H325 H 0.98184 0.62795 0.24883 0.0
H326 H 0.99029 0.55943 0.12736 0.0
H327 H 0.96904 0.586 0.16301 0.0
H328 H 0.92591 0.53495 0.23626 0.0
C329 C 0.94349 0.5922 0.31943 0.0
C330 C 0.96893 0.60807 0.24605 0.0
C331 C 0.94254 0.60496 0.34476 0.0
C332 C 0.98471 0.54818 0.14778 0.0
C333 C 0.9728 0.56342 0.16823 0.0
C334 C 0.93796 0.55543 0.23867 0.0
C335 C 0.94639 0.60952 0.29359 0.0
C336 C 0.9491 0.59589 0.26683 0.0
C337 C 0.96691 0.54996 0.1955 0.0
C338 C 0.95866 0.56702 0.21855 0.0
H339 H 0.94841 0.67607 0.31855 0.0
H340 H 0.94971 0.65385 0.27416 0.0
H341 H 0.9173 0.5601 0.27782 0.0
H342 H 0.98847 0.48317 0.18662 0.0
H343 H 0.96767 0.50965 0.22232 0.0
C344 C 0.28742 0.08798 0.16203 0.0
C345 C 0.27779 0.11521 0.15324 0.0
C346 C 0.313 0.0796 0.15141 0.0
C347 C 0.36302 0.09599 0.09039 0.0
H348 H 0.41116 0.04684 0.13603 0.0
C349 C 0.45245 0.03718 0.04115 0.0
C350 C 0.47791 0.03433 0.05613 0.0
C351 C 0.42892 0.0481 0.05343 0.0
C352 C 0.39817 0.06079 0.12297 0.0
H353 H 0.2879 0.15545 0.12725 0.0
H354 H 0.3329 0.14118 0.10899 0.0
H355 H 0.36983 0.06492 0.15735 0.0
H356 H 0.49854 0.04113 0.09583 0.0
H357 H 0.45779 0.0605 0.11704 0.0
H358 H 0.39163 0.09229 0.05613 0.0
C359 C 0.32044 0.12596 0.12368 0.0
C360 C 0.37417 0.07091 0.13517 0.0
C361 C 0.2948 0.1343 0.13431 0.0
C362 C 0.47925 0.04284 0.08368 0.0
C363 C 0.45575 0.05383 0.09594 0.0
C364 C 0.38704 0.0859 0.0782 0.0
C365 C 0.32972 0.09829 0.13174 0.0
C366 C 0.3561 0.08852 0.11904 0.0
C367 C 0.43018 0.05658 0.08103 0.0
C368 C 0.4049 0.06798 0.09424 0.0
H369 H 0.27473 0.07278 0.17656 0.0
H370 H 0.31914 0.05804 0.15795 0.0
H371 H 0.34954 0.1092 0.07713 0.0
H372 H 0.45057 0.03076 0.01993 0.0
H373 H 0.40955 0.04943 0.04137 0.0
C374 C 0.37124 0.91658 0.5946 0.0
C375 C 0.39388 0.93672 0.60034 0.0
C376 C 0.34426 0.92577 0.58832 0.0
C377 C 0.30019 0.98493 0.60088 0.0
H378 H 0.24922 0.94991 0.54759 0.0
C379 C 0.17997 0.99385 0.60545 0.0
C380 C 0.16567 1.00016 0.58009 0.0
C381 C 0.20821 0.98694 0.60528 0.0
C382 C 0.26332 0.96009 0.56233 0.0
H383 H 0.40639 0.98239 0.60262 0.0
H384 H 0.35929 0.99848 0.59158 0.0
H385 H 0.29862 0.93714 0.55066 0.0
H386 H 0.16974 0.00359 0.53458 0.0
H387 H 0.21934 0.99129 0.53429 0.0
H388 H 0.26506 0.00781 0.61262 0.0
C389 C 0.36227 0.97553 0.59242 0.0
C390 C 0.29149 0.95259 0.56427 0.0
C391 C 0.38922 0.96633 0.59875 0.0
C392 C 0.18011 0.99867 0.55446 0.0
C393 C 0.20848 0.99167 0.55429 0.0
C394 C 0.27211 0.99234 0.59898 0.0
C395 C 0.33937 0.9553 0.58762 0.0
C396 C 0.31012 0.96469 0.58382 0.0
C397 C 0.2229 0.98611 0.57974 0.0
C398 C 0.25324 0.97967 0.58002 0.0
H399 H 0.37409 0.89357 0.59598 0.0
H400 H 0.32698 0.9096 0.58511 0.0
H401 H 0.31387 0.99442 0.61636 0.0
H402 H 0.16931 0.99406 0.62555 0.0
H403 H 0.21853 0.98207 0.62523 0.0
C404 C 0.75876 0.38204 0.95969 0.0
C405 C 0.75549 0.38458 0.93031 0.0
C406 C 0.78519 0.38933 0.97153 0.0
C407 C 0.86182 0.39683 0.95565 0.0
H408 H 0.86708 0.44748 0.01595 0.0
C409 C 0.96865 0.45247 0.9874 0.0
C410 C 0.97337 0.45654 0.01588 0.0
C411 C 0.94204 0.44158 0.97855 0.0
C412 C 0.86598 0.4329 0.99947 0.0
H413 H 0.77726 0.39637 0.89028 0.0
H414 H 0.82347 0.40903 0.91096 0.0
H415 H 0.82046 0.43243 0.99754 0.0
H416 H 0.95399 0.45183 0.05754 0.0
H417 H 0.90756 0.43216 0.04216 0.0
H418 H 0.90718 0.39706 0.95755 0.0
C419 C 0.80561 0.4014 0.92481 0.0
C420 C 0.83927 0.42438 0.98888 0.0
C421 C 0.77914 0.39443 0.91299 0.0
C422 C 0.95099 0.44902 0.03543 0.0
C423 C 0.92434 0.43792 0.02658 0.0
C424 C 0.88848 0.40511 0.96639 0.0
C425 C 0.80889 0.39895 0.95419 0.0
C426 C 0.83699 0.40662 0.96658 0.0
C427 C 0.9195 0.43425 0.99798 0.0
C428 C 0.89094 0.42364 0.98812 0.0
H429 H 0.74081 0.37466 0.97351 0.0
H430 H 0.78717 0.38711 0.99423 0.0
H431 H 0.86063 0.38272 0.93877 0.0
H432 H 0.98536 0.45821 0.97173 0.0
H433 H 0.93899 0.43957 0.95631 0.0
C434 C 0.90132 0.63847 0.4971 0.0
C435 C 0.91957 0.6213 0.48386 0.0
C436 C 0.87619 0.62599 0.51026 0.0
C437 C 0.82409 0.56433 0.50349 0.0
H438 H 0.78564 0.59856 0.56266 0.0
C439 C 0.70309 0.5414 0.52503 0.0
C440 C 0.68929 0.56722 0.52331 0.0
C441 C 0.73274 0.54221 0.52774 0.0
C442 C 0.79621 0.58857 0.5463 0.0
H443 H 0.92699 0.57727 0.47604 0.0
H444 H 0.88311 0.55533 0.49938 0.0
H445 H 0.8368 0.60979 0.55504 0.0
H446 H 0.69519 0.61377 0.52477 0.0
H447 H 0.74678 0.61525 0.52969 0.0
H448 H 0.78326 0.54393 0.49417 0.0
C449 C 0.88798 0.57855 0.49907 0.0
C450 C 0.82546 0.59506 0.54185 0.0
C451 C 0.91313 0.59108 0.48578 0.0
C452 C 0.7054 0.59363 0.52568 0.0
C453 C 0.73486 0.5944 0.52884 0.0
C454 C 0.79489 0.55764 0.50812 0.0
C455 C 0.86872 0.59601 0.51059 0.0
C456 C 0.8395 0.58404 0.51958 0.0
C457 C 0.74892 0.5688 0.52936 0.0
C458 C 0.78048 0.57067 0.52878 0.0
H459 H 0.90538 0.66186 0.49564 0.0
H460 H 0.86175 0.64024 0.51847 0.0
H461 H 0.83407 0.55563 0.48597 0.0
H462 H 0.69107 0.5208 0.52317 0.0
H463 H 0.74309 0.52217 0.52807 0.0
C464 C 0.18 0.22073 0.14047 0.0
C465 C 0.18035 0.21758 0.17015 0.0
C466 C 0.16896 0.2449 0.12576 0.0
C467 C 0.14928 0.3199 0.13556 0.0
H468 H 0.10705 0.31218 0.06663 0.0
C469 C 0.07844 0.40753 0.09019 0.0
C470 C 0.08075 0.41683 0.06125 0.0
C471 C 0.09142 0.38311 0.10151 0.0
C472 C 0.11906 0.31473 0.08568 0.0
H473 H 0.16935 0.23805 0.20737 0.0
H474 H 0.14917 0.27917 0.18198 0.0
H475 H 0.12779 0.26993 0.09041 0.0
H476 H 0.09803 0.40689 0.02142 0.0
H477 H 0.12044 0.36354 0.04132 0.0
H478 H 0.13983 0.36444 0.13126 0.0
C479 C 0.15796 0.26331 0.16991 0.0
C480 C 0.13104 0.29051 0.09935 0.0
C481 C 0.16918 0.23932 0.18459 0.0
C482 C 0.09581 0.40038 0.04377 0.0
C483 C 0.10861 0.37555 0.05515 0.0
C484 C 0.13708 0.34392 0.12209 0.0
C485 C 0.1578 0.26663 0.14025 0.0
C486 C 0.14604 0.29264 0.12473 0.0
C487 C 0.10693 0.36694 0.08428 0.0
C488 C 0.12152 0.34161 0.09719 0.0
H489 H 0.18805 0.20438 0.1285 0.0
H490 H 0.16952 0.24667 0.10297 0.0
H491 H 0.1613 0.3228 0.15454 0.0
H492 H 0.06691 0.41939 0.10439 0.0
H493 H 0.08927 0.37684 0.12392 0.0
C494 C 0.66909 0.30297 0.95229 0.0
C495 C 0.66999 0.31398 0.92379 0.0
C496 C 0.65589 0.27544 0.96052 0.0
C497 C 0.63375 0.20573 0.93217 0.0
H498 H 0.59222 0.18988 1.00301 0.0
C499 C 0.57202 0.09509 0.96603 0.0
C500 C 0.57601 0.08355 0.99391 0.0
C501 C 0.58231 0.12355 0.95707 0.0
C502 C 0.60392 0.19397 0.98325 0.0
H503 H 0.65729 0.30472 0.88166 0.0
H504 H 0.63345 0.25716 0.89614 0.0
H505 H 0.61147 0.23929 0.98801 0.0
H506 H 0.59381 0.09289 0.0343 0.0
H507 H 0.61169 0.14256 0.01864 0.0
H508 H 0.62602 0.16037 0.92742 0.0
C509 C 0.64343 0.26959 0.91208 0.0
C510 C 0.615 0.22225 0.97467 0.0
C511 C 0.65676 0.29706 0.90382 0.0
C512 C 0.59041 0.10111 0.01267 0.0
C513 C 0.60048 0.12962 1.00377 0.0
C514 C 0.6225 0.17749 0.94067 0.0
C515 C 0.64311 0.25829 0.94049 0.0
C516 C 0.63025 0.22845 0.94912 0.0
C517 C 0.59659 0.14112 0.97588 0.0
C518 C 0.60767 0.17128 0.96641 0.0
H519 H 0.67873 0.31557 0.96827 0.0
H520 H 0.65631 0.26735 0.98255 0.0
H521 H 0.64579 0.20958 0.91261 0.0
H522 H 0.561 0.08212 0.95107 0.0
H523 H 0.57881 0.13192 0.93551 0.0
C524 C 0.98906 0.72967 0.44002 0.0
C525 C 0.99135 0.70513 0.45922 0.0
C526 C 0.99875 0.75719 0.44704 0.0
C527 C 0.04469 0.79884 0.49268 0.0
H528 H 0.98697 0.85386 0.48273 0.0
C529 C 0.05567 0.9144 0.53238 0.0
C530 C 0.04258 0.93626 0.51605 0.0
C531 C 0.0527 0.8857 0.52523 0.0
C532 C 1.00358 0.83901 0.48521 0.0
H533 H 1.00673 0.69003 0.50035 0.0
H534 H 0.02392 0.73857 0.51262 0.0
H535 H 0.97643 0.80462 0.4705 0.0
H536 H 0.01822 0.94597 0.47838 0.0
H537 H 0.01414 0.89657 0.46524 0.0
H538 H 0.07206 0.83359 0.50695 0.0
C539 C 0.01458 0.73626 0.49215 0.0
C540 C 0.99743 0.81072 0.47833 0.0
C541 C 1.0046 0.70861 0.48522 0.0
C542 C 0.02811 0.92941 0.49159 0.0
C543 C 0.0256 0.90103 0.48421 0.0
C544 C 0.05103 0.82743 0.49929 0.0
C545 C 1.01106 0.76083 0.47336 0.0
C546 C 0.01796 0.79045 0.48171 0.0
C547 C 0.03692 0.8786 0.50145 0.0
C548 C 0.0306 0.84794 0.49528 0.0
H549 H 0.97863 0.7278 0.41999 0.0
H550 H 0.99597 0.77579 0.43212 0.0
H551 H 0.06086 0.78351 0.49547 0.0
H552 H 0.0669 0.91918 0.55139 0.0
H553 H 0.06166 0.86897 0.539 0.0
C554 C 0.51879 0.83548 0.56348 0.0
C555 C 0.49139 0.84529 0.56154 0.0
C556 C 0.52295 0.80665 0.55967 0.0
C557 C 0.48596 0.73427 0.56731 0.0
H558 H 0.54875 0.71352 0.52254 0.0
C559 C 0.50456 0.61491 0.55073 0.0
C560 C 0.53303 0.60795 0.55003 0.0
C561 C 0.49823 0.6438 0.55135 0.0
C562 C 0.53131 0.71892 0.53542 0.0
H563 H 0.44694 0.83314 0.55389 0.0
H564 H 0.45416 0.78248 0.54738 0.0
H565 H 0.54035 0.76446 0.52403 0.0
H566 H 0.57713 0.62551 0.55066 0.0
H567 H 0.56615 0.67543 0.55266 0.0
H568 H 0.47736 0.68883 0.57938 0.0
C569 C 0.47238 0.79708 0.55178 0.0
C570 C 0.52646 0.7481 0.53613 0.0
C571 C 0.46828 0.82599 0.55528 0.0
C572 C 0.55496 0.63021 0.55089 0.0
C573 C 0.54866 0.65891 0.55178 0.0
C574 C 0.49098 0.70505 0.56682 0.0
C575 C 0.49971 0.78707 0.55424 0.0
C576 C 0.50389 0.75607 0.55226 0.0
C577 C 0.52025 0.66617 0.55151 0.0
C578 C 0.51392 0.69706 0.55111 0.0
H579 H 0.53687 0.84993 0.56859 0.0
H580 H 0.5442 0.79941 0.56193 0.0
H581 H 0.46857 0.73987 0.58016 0.0
H582 H 0.48723 0.5982 0.54995 0.0
H583 H 0.47611 0.64865 0.55094 0.0
C584 C 0.89135 0.91014 0.81378 0.0
C585 C 0.88768 0.87983 0.81996 0.0
C586 C 0.90445 0.9224 0.78853 0.0
C587 C 0.92189 0.90608 0.71613 0.0
H588 H 0.97719 0.97251 0.71723 0.0
C589 C 0.96811 0.97115 0.61394 0.0
C590 C 0.99749 0.97966 0.61327 0.0
C591 C 0.95458 0.95893 0.63899 0.0
C592 C 0.96191 0.95388 0.71655 0.0
H593 H 0.89451 0.8387 0.80398 0.0
H594 H 0.9174 0.86004 0.76003 0.0
H595 H 0.95395 0.95123 0.76104 0.0
H596 H 0.03562 0.982 0.63862 0.0
H597 H 0.01202 0.96079 0.68226 0.0
H598 H 0.93002 0.90859 0.67168 0.0
C599 C 0.91009 0.87436 0.77471 0.0
C600 C 0.94835 0.94185 0.74165 0.0
C601 C 0.8972 0.86211 0.80006 0.0
C602 C 0.01297 0.9757 0.63833 0.0
C603 C 0.99939 0.96369 0.66342 0.0
C604 C 0.93528 0.91826 0.691 0.0
C605 C 0.91402 0.90468 0.76865 0.0
C606 C 0.92821 0.91773 0.74181 0.0
C607 C 0.97001 0.95511 0.6641 0.0
C608 C 0.95555 0.94227 0.69087 0.0
H609 H 0.8845 0.92445 0.8287 0.0
H610 H 0.90687 0.94581 0.78447 0.0
H611 H 0.90633 0.88768 0.7154 0.0
H612 H 0.9555 0.97388 0.59507 0.0
H613 H 0.93189 0.95287 0.63878 0.0
C614 C 0.67354 0.15699 0.30762 0.0
C615 C 0.65338 0.1602 0.32868 0.0
C616 C 0.6652 0.14515 0.28283 0.0
C617 C 0.60621 0.09961 0.25373 0.0
H618 H 0.64808 0.12161 0.1838 0.0
C619 C 0.57735 0.05336 0.1476 0.0
C620 C 0.59995 0.04053 0.13564 0.0
C621 C 0.58219 0.07021 0.17015 0.0
C622 C 0.63622 0.11535 0.20321 0.0
H623 H 0.60836 0.15419 0.33965 0.0
H624 H 0.59363 0.13499 0.29579 0.0
H625 H 0.65875 0.14837 0.22464 0.0
H626 H 0.64528 0.03574 0.13717 0.0
H627 H 0.65392 0.06584 0.17629 0.0
H628 H 0.58338 0.06689 0.23182 0.0
C629 C 0.61607 0.14081 0.29881 0.0
C630 C 0.6424 0.1305 0.22667 0.0
C631 C 0.62448 0.15226 0.32384 0.0
C632 C 0.62753 0.04524 0.14623 0.0
C633 C 0.63248 0.06257 0.16838 0.0
C634 C 0.59969 0.08483 0.23008 0.0
C635 C 0.63639 0.13667 0.27816 0.0
C636 C 0.62791 0.12243 0.25243 0.0
C637 C 0.60981 0.07499 0.18064 0.0
C638 C 0.61502 0.09224 0.20483 0.0
H639 H 0.69591 0.1634 0.31033 0.0
H640 H 0.68157 0.14198 0.26769 0.0
H641 H 0.59489 0.09242 0.27324 0.0
H642 H 0.55588 0.04984 0.13984 0.0
H643 H 0.56442 0.07963 0.17932 0.0
C644 C 0.43188 0.56524 0.25295 0.0
C645 C 0.44897 0.58228 0.23255 0.0
C646 C 0.4419 0.55941 0.28026 0.0
C647 C 0.5076 0.55787 0.32203 0.0
H648 H 0.45674 0.56471 0.38477 0.0
C649 C 0.54664 0.555 0.437 0.0
C650 C 0.52849 0.54036 0.45807 0.0
C651 C 0.53719 0.55967 0.40931 0.0
C652 C 0.47112 0.56231 0.36752 0.0
H653 H 0.48954 0.60718 0.22462 0.0
H654 H 0.50726 0.59687 0.2724 0.0
H655 H 0.43981 0.57322 0.33675 0.0
H656 H 0.4863 0.5188 0.46651 0.0
H657 H 0.47004 0.52646 0.41821 0.0
H658 H 0.53887 0.54678 0.35278 0.0
C659 C 0.48631 0.5876 0.26718 0.0
C660 C 0.46141 0.56723 0.33999 0.0
C661 C 0.4762 0.59355 0.2399 0.0
C662 C 0.50078 0.5303 0.45082 0.0
C663 C 0.49139 0.53485 0.42313 0.0
C664 C 0.51729 0.55281 0.34959 0.0
C665 C 0.4692 0.57061 0.28771 0.0
C666 C 0.47953 0.56508 0.31694 0.0
C667 C 0.50942 0.5497 0.40205 0.0
C668 C 0.49917 0.55498 0.37268 0.0
H669 H 0.41067 0.55665 0.24776 0.0
H670 H 0.42831 0.54608 0.29555 0.0
H671 H 0.52196 0.55573 0.30469 0.0
H672 H 0.56807 0.56313 0.44192 0.0
H673 H 0.55151 0.57153 0.3937 0.0
C674 C 0.12487 0.41617 0.70513 0.0
C675 C 0.1196 0.38648 0.7017 0.0
C676 C 0.12695 0.42577 0.73196 0.0
C677 C 0.13561 0.40152 0.80791 0.0
H678 H 0.0994 0.47206 0.81761 0.0
C679 C 0.10269 0.44179 0.91499 0.0
C680 C 0.10462 0.47198 0.91614 0.0
C681 C 0.11051 0.43012 0.89028 0.0
C682 C 0.11003 0.45258 0.81521 0.0
H683 H 0.11337 0.34351 0.7241 0.0
H684 H 0.11574 0.36043 0.77096 0.0
H685 H 0.10016 0.45415 0.77156 0.0
H686 H 0.1188 0.51341 0.89406 0.0
H687 H 0.13317 0.49319 0.85127 0.0
H688 H 0.1445 0.39974 0.8522 0.0
C689 C 0.11873 0.37625 0.75281 0.0
C690 C 0.1105 0.44229 0.78873 0.0
C691 C 0.11691 0.36659 0.7259 0.0
C692 C 0.11702 0.49008 0.89345 0.0
C693 C 0.125 0.47851 0.86897 0.0
C694 C 0.13493 0.41178 0.83463 0.0
C695 C 0.12345 0.40602 0.75617 0.0
C696 C 0.1234 0.41672 0.78463 0.0
C697 C 0.12041 0.44857 0.86657 0.0
C698 C 0.12228 0.43754 0.83846 0.0
H699 H 0.12682 0.43218 0.68706 0.0
H700 H 0.13112 0.44882 0.73369 0.0
H701 H 0.14591 0.38186 0.80547 0.0
H702 H 0.09291 0.42752 0.93221 0.0
H703 H 0.10674 0.40696 0.88901 0.0
C704 C 0.80799 0.90779 0.89202 0.0
C705 C 0.81143 0.8778 0.8953 0.0
C706 C 0.78368 0.91887 0.90259 0.0
C707 C 0.72523 0.90148 0.95525 0.0
H708 H 0.68876 0.96262 0.91165 0.0
C709 C 0.63769 0.96388 1.00277 0.0
C710 C 0.61397 0.96999 0.98601 0.0
C711 C 0.6614 0.95251 0.9914 0.0
C712 C 0.69856 0.94543 0.92405 0.0
H713 H 0.79127 0.83602 0.91204 0.0
H714 H 0.74924 0.85537 0.93074 0.0
H715 H 0.73045 0.94291 0.89233 0.0
H716 H 0.59683 0.96895 0.94395 0.0
H717 H 0.63826 0.94917 0.92409 0.0
H718 H 0.6933 0.90386 0.98689 0.0
C719 C 0.76555 0.87037 0.92021 0.0
C720 C 0.72268 0.93432 0.91308 0.0
C721 C 0.78977 0.85927 0.90951 0.0
C722 C 0.61469 0.96454 0.9575 0.0
C723 C 0.63854 0.95333 0.94606 0.0
C724 C 0.70127 0.91274 0.9663 0.0
C725 C 0.76214 0.90033 0.91691 0.0
C726 C 0.73636 0.91217 0.92852 0.0
C727 C 0.66219 0.94707 0.96288 0.0
C728 C 0.68759 0.93488 0.95087 0.0
H729 H 0.82433 0.92288 0.88167 0.0
H730 H 0.78202 0.94209 0.89999 0.0
H731 H 0.73531 0.88464 0.96787 0.0
H732 H 0.63796 0.96782 0.0248 0.0
H733 H 0.67933 0.94833 1.00492 0.0
C734 C 0.74937 0.16519 0.39078 0.0
C735 C 0.72397 0.16296 0.40666 0.0
C736 C 0.77385 0.15393 0.40227 0.0
C737 C 0.79437 0.09561 0.45083 0.0
H738 H 0.86932 0.137 0.45003 0.0
C739 C 0.88869 0.04114 0.50146 0.0
C740 C 0.91548 0.04666 0.48826 0.0
C741 C 0.86624 0.05757 0.49293 0.0
C742 C 0.84863 0.125 0.45006 0.0
H743 H 0.70421 0.14783 0.44701 0.0
H744 H 0.74698 0.12752 0.46695 0.0
H745 H 0.82842 0.16228 0.43234 0.0
H746 H 0.94022 0.0738 0.45625 0.0
H747 H 0.90054 0.10195 0.44018 0.0
H748 H 0.81423 0.05805 0.46717 0.0
C749 C 0.74794 0.13823 0.44575 0.0
C750 C 0.82525 0.13956 0.44012 0.0
C751 C 0.72361 0.14993 0.43444 0.0
C752 C 0.91966 0.06928 0.46668 0.0
C753 C 0.89698 0.08543 0.45768 0.0
C754 C 0.81772 0.08095 0.46028 0.0
C755 C 0.77314 0.13983 0.42963 0.0
C756 C 0.79794 0.12498 0.4406 0.0
C757 C 0.86987 0.07954 0.47052 0.0
C758 C 0.84516 0.09545 0.46022 0.0
H759 H 0.75012 0.17528 0.36934 0.0
H760 H 0.79302 0.15524 0.38942 0.0
H761 H 0.77356 0.08379 0.45091 0.0
H762 H 0.88521 0.02418 0.51859 0.0
H763 H 0.84601 0.05295 0.50396 0.0
C764 C 0.31911 0.60739 0.15595 0.0
C765 C 0.34174 0.61755 0.13745 0.0
C766 C 0.29297 0.59691 0.14557 0.0
C767 C 0.24955 0.59805 0.08083 0.0
H768 H 0.20779 0.53167 0.12167 0.0
C769 C 0.14756 0.53831 0.03861 0.0
C770 C 0.12509 0.53115 0.05814 0.0
C771 C 0.17424 0.54937 0.04742 0.0
C772 C 0.21911 0.55037 0.11015 0.0
H773 H 0.35489 0.62441 0.09358 0.0
H774 H 0.30936 0.60566 0.0754 0.0
H775 H 0.25406 0.54948 0.13859 0.0
H776 H 0.11291 0.53037 0.10218 0.0
H777 H 0.15935 0.54956 0.11743 0.0
H778 H 0.21453 0.59859 0.05222 0.0
C779 C 0.3116 0.60632 0.09793 0.0
C780 C 0.2456 0.56063 0.11988 0.0
C781 C 0.3377 0.61699 0.10832 0.0
C782 C 0.12975 0.53561 0.08657 0.0
C783 C 0.15642 0.54644 0.09537 0.0
C784 C 0.22309 0.58762 0.07098 0.0
C785 C 0.28889 0.59615 0.11643 0.0
C786 C 0.26106 0.58476 0.10549 0.0
C787 C 0.179 0.55323 0.07596 0.0
C788 C 0.2075 0.56384 0.08571 0.0
H789 H 0.32145 0.608 0.17848 0.0
H790 H 0.2758 0.58979 0.16041 0.0
H791 H 0.26069 0.6169 0.06942 0.0
H792 H 0.14464 0.53513 0.01656 0.0
H793 H 0.19133 0.55429 0.03202 0.0
C794 C 0.21548 0.39194 0.56448 0.0
C795 C 0.19632 0.40058 0.58402 0.0
C796 C 0.23975 0.40983 0.55589 0.0
C797 C 0.28828 0.46752 0.58159 0.0
H798 H 0.32538 0.46281 0.50962 0.0
C799 C 0.40559 0.51076 0.5588 0.0
C800 C 0.42156 0.48763 0.5533 0.0
C801 C 0.3758 0.50773 0.5573 0.0
C802 C 0.31508 0.46468 0.52965 0.0
H803 H 0.18749 0.43471 0.61006 0.0
H804 H 0.22944 0.46661 0.59429 0.0
H805 H 0.27565 0.44415 0.51671 0.0
H806 H 0.4197 0.44416 0.54031 0.0
H807 H 0.36778 0.43906 0.53682 0.0
H808 H 0.32806 0.48752 0.59458 0.0
C809 C 0.22583 0.44588 0.58568 0.0
C810 C 0.2867 0.45379 0.53384 0.0
C811 C 0.20163 0.42777 0.5945 0.0
C812 C 0.40763 0.46216 0.5447 0.0
C813 C 0.37806 0.45938 0.54254 0.0
C814 C 0.31652 0.47882 0.57722 0.0
C815 C 0.24552 0.43687 0.56669 0.0
C816 C 0.27335 0.45387 0.56028 0.0
C817 C 0.36182 0.48182 0.54951 0.0
C818 C 0.33048 0.4764 0.55161 0.0
H819 H 0.21223 0.37077 0.55664 0.0
H820 H 0.25469 0.40172 0.54183 0.0
H821 H 0.2789 0.46778 0.60231 0.0
H822 H 0.41609 0.53049 0.56559 0.0
H823 H 0.36366 0.52525 0.56287 0.0
C824 C 0.89127 0.75035 0.94371 0.0
C825 C 0.89616 0.75948 0.91507 0.0
C826 C 0.90758 0.72957 0.95767 0.0
C827 C 0.97467 0.6924 0.95195 0.0
H828 H 0.93457 0.6318 1.00195 0.0
C829 C 0.02287 0.58409 0.98694 0.0
C830 C 0.01742 0.57111 0.01449 0.0
C831 C 1.00965 0.60889 0.97678 0.0
C832 C 0.94625 0.64875 0.9884 0.0
H833 H 0.9229 0.75522 0.87895 0.0
H834 H 0.95121 0.71876 0.90304 0.0
H835 H 0.90901 0.67182 0.98079 0.0
H836 H 0.99408 0.57459 0.05314 0.0
H837 H 0.97113 0.61802 0.03546 0.0
H838 H 0.0118 0.66902 0.95921 0.0
C839 C 0.93487 0.72761 0.91491 0.0
C840 C 0.93156 0.6718 0.97623 0.0
C841 C 0.91855 0.7484 0.901 0.0
C842 C 0.99879 0.58398 0.03182 0.0
C843 C 0.98546 0.60878 0.02159 0.0
C844 C 0.98935 0.66933 0.96408 0.0
C845 C 0.92933 0.71752 0.94334 0.0
C846 C 0.94547 0.69383 0.95759 0.0
C847 C 0.99051 0.62144 0.99383 0.0
C848 C 0.97529 0.647 0.98226 0.0
H849 H 0.87434 0.75883 0.95512 0.0
H850 H 0.90303 0.72282 0.97968 0.0
H851 H 0.98629 0.70916 0.93814 0.0
H852 H 0.03705 0.57483 0.97295 0.0
H853 H 0.01385 0.61773 0.95521 0.0
C854 C 0.43618 0.71455 0.15177 0.0
C855 C 0.42311 0.69461 0.13437 0.0
C856 C 0.44851 0.74142 0.14023 0.0
C857 C 0.44475 0.7949 0.07938 0.0
H858 H 0.51887 0.82485 0.10395 0.0
C859 C 0.50017 0.90331 0.02965 0.0
C860 C 0.51509 0.92112 0.04783 0.0
C861 C 0.48976 0.87505 0.03927 0.0
C862 C 0.498 0.81698 0.0971 0.0
H863 H 0.41338 0.68721 0.09105 0.0
H864 H 0.43442 0.73446 0.07103 0.0
H865 H 0.4993 0.77662 0.12258 0.0
H866 H 0.53056 0.92338 0.09042 0.0
H867 H 0.5118 0.87451 0.10737 0.0
H868 H 0.44301 0.83544 0.05445 0.0
C869 C 0.43494 0.72922 0.09362 0.0
C870 C 0.48686 0.78931 0.10771 0.0
C871 C 0.42283 0.7022 0.10512 0.0
C872 C 0.51929 0.91014 0.07583 0.0
C873 C 0.50869 0.88201 0.0855 0.0
C874 C 0.45576 0.8227 0.06894 0.0
C875 C 0.44784 0.74911 0.11108 0.0
C876 C 0.46008 0.77805 0.09906 0.0
C877 C 0.49385 0.86407 0.06734 0.0
C878 C 0.48247 0.83416 0.07779 0.0
H879 H 0.43633 0.70972 0.17442 0.0
H880 H 0.45797 0.7565 0.15423 0.0
H881 H 0.42389 0.78689 0.0726 0.0
H882 H 0.49672 0.91108 1.00791 0.0
H883 H 0.47879 0.86172 0.02459 0.0
C884 C 0.07823 0.29185 0.65311 0.0
C885 C 0.07564 0.31756 0.63569 0.0
C886 C 0.06493 0.26559 0.64604 0.0
C887 C 0.03889 0.23146 0.58311 0.0
H888 H 0.01925 0.16621 0.63843 0.0
C889 C 1.00996 0.11421 0.55354 0.0
C890 C 0.02806 0.09448 0.56659 0.0
C891 C 1.00913 0.14192 0.5627 0.0
C892 C 0.02444 0.18433 0.62277 0.0
H893 H 0.05553 0.33644 0.59836 0.0
H894 H 0.03144 0.29068 0.58641 0.0
H895 H 0.02808 0.21481 0.65375 0.0
H896 H 0.05859 0.08775 0.60005 0.0
H897 H 0.05666 0.13578 0.61633 0.0
H898 H 0.03545 0.20071 0.55223 0.0
C899 C 0.04446 0.29059 0.60508 0.0
C900 C 0.02968 0.21214 0.6315 0.0
C901 C 0.05809 0.31682 0.61198 0.0
C902 C 0.04457 0.10257 0.58947 0.0
C903 C 0.0433 0.12995 0.59896 0.0
C904 C 0.03321 0.20371 0.57436 0.0
C905 C 0.04845 0.26446 0.62152 0.0
C906 C 0.03798 0.23592 0.6119 0.0
C907 C 0.02585 0.15 0.58547 0.0
C908 C 0.02686 0.17979 0.5942 0.0
H909 H 0.09193 0.29173 0.67132 0.0
H910 H 0.06897 0.24598 0.65902 0.0
H911 H 0.04557 0.24906 0.56738 0.0
H912 H 0.99702 0.10851 0.53583 0.0
H913 H 0.99555 0.15708 0.55197 0.0
C914 C 0.63977 0.24644 0.45909 0.0
C915 C 0.61613 0.23126 0.44786 0.0
C916 C 0.63639 0.27145 0.47245 0.0
C917 C 0.58478 0.31198 0.50684 0.0
H918 H 0.63118 0.38027 0.47545 0.0
C919 C 0.55561 0.42722 0.52205 0.0
C920 C 0.57744 0.44945 0.52366 0.0
C921 C 0.56197 0.39957 0.51623 0.0
C922 C 0.61845 0.36139 0.48495 0.0
H923 H 0.57029 0.22911 0.4431 0.0
H924 H 0.56425 0.27274 0.46696 0.0
H925 H 0.63932 0.33296 0.46029 0.0
H926 H 0.62314 0.45998 0.52127 0.0
H927 H 0.63439 0.41135 0.51193 0.0
H928 H 0.56396 0.34023 0.53163 0.0
C929 C 0.58539 0.26538 0.46522 0.0
C930 C 0.62307 0.3343 0.47616 0.0
C931 C 0.58883 0.24056 0.45151 0.0
C932 C 0.60585 0.44332 0.5199 0.0
C933 C 0.61226 0.41548 0.51443 0.0
C934 C 0.5804 0.33902 0.51595 0.0
C935 C 0.60923 0.28139 0.47522 0.0
C936 C 0.60595 0.30946 0.48665 0.0
C937 C 0.59035 0.39332 0.51226 0.0
C938 C 0.5968 0.36417 0.50468 0.0
H939 H 0.66098 0.23944 0.45667 0.0
H940 H 0.65504 0.28329 0.48023 0.0
H941 H 0.57151 0.29305 0.51544 0.0
H942 H 0.53347 0.43132 0.52471 0.0
H943 H 0.54448 0.38331 0.51415 0.0
loop_
_geom_bond_atom_site_label_1
_geom_bond_atom_site_label_2
_geom_bond_distance
_geom_bond_site_symmetry_2
_ccdc_geom_bond_type
H0 C7 0.929 . S
H1 C10 0.930 . S
H2 C12 0.929 . S
H3 C4 0.969 . S
C4 H3 0.969 . S
C4 O5 1.550 . S
C4 H6 0.973 . S
O5 C4 1.550 . S
O5 C11 1.412 . S
H6 C4 0.973 . S
C7 H0 0.929 . S
C7 C8 1.400 . S
C7 C9 1.364 . S
C8 C7 1.400 . S
C8 C12 1.377 . S
C9 C7 1.364 . S
C9 C10 1.374 . S
C10 H1 0.930 . S
C10 C9 1.374 . S
C10 C11 1.383 . S
C11 O5 1.412 . S
C11 C10 1.383 . S
C11 C12 1.394 . S
C12 H2 0.929 . S
C12 C8 1.377 . S
C12 C11 1.394 . S
H13 C20 0.929 . S
H14 C23 0.930 . S
H15 C25 0.929 . S
H16 C17 0.969 . S
C17 H16 0.969 . S
C17 O18 1.550 . S
C17 H19 0.973 . S
O18 C17 1.550 . S
O18 C24 1.412 . S
H19 C17 0.973 . S
C20 H13 0.929 . S
C20 C21 1.400 . S
C20 C22 1.364 . S
C21 C20 1.400 . S
C21 C25 1.377 . S
C22 C20 1.364 . S
C22 C23 1.374 . S
C23 H14 0.930 . S
C23 C22 1.374 . S
C23 C24 1.383 . S
C24 O18 1.412 . S
C24 C23 1.383 . S
C24 C25 1.394 . S
C25 H15 0.929 . S
C25 C21 1.377 . S
C25 C24 1.394 . S
H26 C33 0.929 . S
H27 C36 0.930 . S
H28 C38 0.929 . S
H29 C30 0.969 . S
C30 H29 0.969 . S
C30 O31 1.550 . S
C30 H32 0.973 . S
O31 C30 1.550 . S
O31 C37 1.412 . S
H32 C30 0.973 . S
C33 H26 0.929 . S
C33 C34 1.400 . S
C33 C35 1.364 . S
C34 C33 1.400 . S
C34 C38 1.377 . S
C35 C33 1.364 . S
C35 C36 1.374 . S
C36 H27 0.930 . S
C36 C35 1.374 . S
C36 C37 1.383 . S
C37 O31 1.412 . S
C37 C36 1.383 . S
C37 C38 1.394 . S
C38 H28 0.929 . S
C38 C34 1.377 . S
C38 C37 1.394 . S
H39 C46 0.929 . S
H40 C49 0.930 . S
H41 C51 0.929 . S
H42 C43 0.969 . S
C43 H42 0.969 . S
C43 O44 1.550 . S
C43 H45 0.973 . S
O44 C43 1.550 . S
O44 C50 1.412 . S
H45 C43 0.973 . S
C46 H39 0.929 . S
C46 C47 1.400 . S
C46 C48 1.364 . S
C47 C46 1.400 . S
C47 C51 1.377 . S
C48 C46 1.364 . S
C48 C49 1.374 . S
C49 H40 0.930 . S
C49 C48 1.374 . S
C49 C50 1.383 . S
C50 O44 1.412 . S
C50 C49 1.383 . S
C50 C51 1.394 . S
C51 H41 0.929 . S
C51 C47 1.377 . S
C51 C50 1.394 . S
H52 C59 0.929 . S
H53 C62 0.930 . S
H54 C64 0.929 . S
H55 C56 0.969 . S
C56 H55 0.969 . S
C56 O57 1.550 . S
C56 H58 0.973 . S
O57 C56 1.550 . S
O57 C63 1.412 . S
H58 C56 0.973 . S
C59 H52 0.929 . S
C59 C60 1.400 . S
C59 C61 1.364 . S
C60 C59 1.400 . S
C60 C64 1.377 . S
C61 C59 1.364 . S
C61 C62 1.374 . S
C62 H53 0.930 . S
C62 C61 1.374 . S
C62 C63 1.383 . S
C63 O57 1.412 . S
C63 C62 1.383 . S
C63 C64 1.394 . S
C64 H54 0.929 . S
C64 C60 1.377 . S
C64 C63 1.394 . S
H65 C72 0.929 . S
H66 C75 0.930 . S
H67 C77 0.929 . S
H68 C69 0.969 . S
C69 H68 0.969 . S
C69 O70 1.550 . S
C69 H71 0.973 . S
O70 C69 1.550 . S
O70 C76 1.412 . S
H71 C69 0.973 . S
C72 H65 0.929 . S
C72 C73 1.400 . S
C72 C74 1.364 . S
C73 C72 1.400 . S
C73 C77 1.377 . S
C74 C72 1.364 . S
C74 C75 1.374 . S
C75 H66 0.930 . S
C75 C74 1.374 . S
C75 C76 1.383 . S
C76 O70 1.412 . S
C76 C75 1.383 . S
C76 C77 1.394 . S
C77 H67 0.929 . S
C77 C73 1.377 . S
C77 C76 1.394 . S
H78 C85 0.929 . S
H79 C88 0.930 . S
H80 C90 0.929 . S
H81 C82 0.969 . S
C82 H81 0.969 . S
C82 O83 1.550 . S
C82 H84 0.973 . S
O83 C82 1.550 . S
O83 C89 1.412 . S
H84 C82 0.973 . S
C85 H78 0.929 . S
C85 C86 1.400 . S
C85 C87 1.364 . S
C86 C85 1.400 . S
C86 C90 1.377 . S
C87 C85 1.364 . S
C87 C88 1.374 . S
C88 H79 0.930 . S
C88 C87 1.374 . S
C88 C89 1.383 . S
C89 O83 1.412 . S
C89 C88 1.383 . S
C89 C90 1.394 . S
C90 H80 0.929 . S
C90 C86 1.377 . S
C90 C89 1.394 . S
H91 C98 0.929 . S
H92 C101 0.930 . S
H93 C103 0.929 . S
H94 C95 0.969 . S
C95 H94 0.969 . S
C95 O96 1.550 . S
C95 H97 0.973 . S
O96 C95 1.550 . S
O96 C102 1.412 . S
H97 C95 0.973 . S
C98 H91 0.929 . S
C98 C99 1.400 . S
C98 C100 1.364 . S
C99 C98 1.400 . S
C99 C103 1.377 . S
C100 C98 1.364 . S
C100 C101 1.374 . S
C101 H92 0.930 . S
C101 C100 1.374 . S
C101 C102 1.383 . S
C102 O96 1.412 . S
C102 C101 1.383 . S
C102 C103 1.394 . S
C103 H93 0.929 . S
C103 C99 1.377 . S
C103 C102 1.394 . S
Co104 N109 2.057 . S
Co104 O121 2.021 1_655 S
Co104 O124 2.062 1_655 S
Co104 O128 2.117 1_545 S
Co104 O129 2.020 . S
C105 O125 1.259 . S
C105 O128 1.258 1_455 S
Co106 N115 2.057 . S
Co106 O122 2.117 . S
Co106 O123 2.020 . S
Co106 O125 2.021 1_545 S
Co106 O130 2.062 1_545 S
C107 N109 1.316 . S
C107 N110 1.347 . S
C107 H112 0.931 . S
C108 N109 1.375 . S
C108 C111 1.350 . S
C108 H113 0.930 1_545 S
N109 Co104 2.057 . S
N109 C107 1.316 . S
N109 C108 1.375 . S
N110 C107 1.347 . S
N110 C111 1.373 . S
C111 C108 1.350 . S
C111 N110 1.373 . S
C111 H132 0.931 . S
H112 C107 0.931 . S
H113 C108 0.930 1_565 S
C114 O121 1.259 . S
C114 O122 1.258 . S
N115 Co106 2.057 . S
N115 C116 1.316 1_545 S
N115 C117 1.375 . S
C116 N115 1.316 1_565 S
C116 N118 1.347 . S
C116 H127 0.931 . S
C117 N115 1.375 . S
C117 C119 1.350 . S
C117 H126 0.930 . S
N118 C116 1.347 . S
N118 C119 1.373 1_565 S
C119 C117 1.350 . S
C119 N118 1.373 1_545 S
C119 H133 0.931 . S
C120 O123 1.256 . S
C120 O124 1.255 . S
O121 Co104 2.021 1_455 S
O121 C114 1.259 . S
O122 Co106 2.117 . S
O122 C114 1.258 . S
O123 Co106 2.020 . S
O123 C120 1.256 . S
O124 Co104 2.062 1_455 S
O124 C120 1.255 . S
O125 C105 1.259 . S
O125 Co106 2.021 1_565 S
H126 C117 0.930 . S
H127 C116 0.931 . S
O128 Co104 2.117 1_565 S
O128 C105 1.258 1_655 S
O129 Co104 2.020 . S
O129 C131 1.256 1_645 S
O130 Co106 2.062 1_565 S
O130 C131 1.255 . S
C131 O129 1.256 1_465 S
C131 O130 1.255 . S
H132 C111 0.931 . S
H133 C119 0.931 . S
Co134 N139 2.057 1_545 S
Co134 O151 2.021 . S
Co134 O154 2.062 1_545 S
Co134 O158 2.117 1_546 S
Co134 O159 2.026 . S
C135 O155 1.259 . S
C135 O158 1.258 . S
Co136 N145 2.057 . S
Co136 O152 2.117 . S
Co136 O153 2.020 . S
Co136 O155 2.021 1_545 S
Co136 O160 2.062 . S
C137 N139 1.316 . S
C137 N140 1.347 . S
C137 H142 0.931 1_565 S
C138 N139 1.375 . S
C138 C141 1.350 . S
C138 H143 0.930 . S
N139 Co134 2.057 1_565 S
N139 C137 1.316 . S
N139 C138 1.375 . S
N140 C137 1.347 . S
N140 C141 1.373 . S
C141 C138 1.350 . S
C141 N140 1.373 . S
C141 H162 0.931 . S
H142 C137 0.931 1_545 S
H143 C138 0.930 . S
C144 O151 1.259 . S
C144 O152 1.258 1_556 S
N145 Co136 2.057 . S
N145 C146 1.316 . S
N145 C147 1.375 . S
C146 N145 1.316 . S
C146 N148 1.347 . S
C146 H157 0.931 . S
C147 N145 1.375 . S
C147 C149 1.350 . S
C147 H156 0.930 . S
N148 C146 1.347 . S
N148 C149 1.373 . S
C149 C147 1.350 . S
C149 N148 1.373 . S
C149 H163 0.931 . S
C150 O153 1.256 1_566 S
C150 O154 1.255 . S
O151 Co134 2.021 . S
O151 C144 1.259 . S
O152 Co136 2.117 . S
O152 C144 1.258 1_554 S
O153 Co136 2.020 . S
O153 C150 1.256 1_544 S
O154 Co134 2.062 1_565 S
O154 C150 1.255 . S
O155 C135 1.259 . S
O155 Co136 2.021 1_565 S
H156 C147 0.930 . S
H157 C146 0.931 . S
O158 Co134 2.117 1_564 S
O158 C135 1.258 . S
O159 Co134 2.026 . S
O159 C161 1.243 1_556 S
O160 Co136 2.062 . S
O160 C161 1.255 . S
C161 O159 1.243 1_554 S
C161 O160 1.255 . S
H162 C141 0.931 . S
H163 C149 0.931 . S
Co164 N169 2.057 . S
Co164 O181 2.021 . S
Co164 O184 2.062 . S
Co164 O188 2.117 . S
Co164 O189 2.020 . S
C165 O185 1.259 . S
C165 O188 1.258 . S
Co166 N175 2.057 . S
Co166 O182 2.117 . S
Co166 O183 2.020 . S
Co166 O185 2.021 . S
Co166 O190 2.062 . S
C167 N169 1.316 . S
C167 N170 1.347 . S
C167 H172 0.931 . S
C168 N169 1.375 . S
C168 C171 1.350 . S
C168 H173 0.930 . S
N169 Co164 2.057 . S
N169 C167 1.316 . S
N169 C168 1.375 . S
N170 C167 1.347 . S
N170 C171 1.373 . S
C171 C168 1.350 . S
C171 N170 1.373 . S
C171 H192 0.931 . S
H172 C167 0.931 . S
H173 C168 0.930 . S
C174 O181 1.259 . S
C174 O182 1.258 . S
N175 Co166 2.057 . S
N175 C176 1.316 . S
N175 C177 1.375 . S
C176 N175 1.316 . S
C176 N178 1.347 . S
C176 H187 0.931 . S
C177 N175 1.375 . S
C177 C179 1.350 . S
C177 H186 0.930 . S
N178 C176 1.347 . S
N178 C179 1.373 . S
C179 C177 1.350 . S
C179 N178 1.373 . S
C179 H193 0.931 . S
C180 O183 1.256 . S
C180 O184 1.255 . S
O181 Co164 2.021 . S
O181 C174 1.259 . S
O182 Co166 2.117 . S
O182 C174 1.258 . S
O183 Co166 2.020 . S
O183 C180 1.256 . S
O184 Co164 2.062 . S
O184 C180 1.255 . S
O185 C165 1.259 . S
O185 Co166 2.021 . S
H186 C177 0.930 . S
H187 C176 0.931 . S
O188 Co164 2.117 . S
O188 C165 1.258 . S
O189 Co164 2.020 . S
O189 C191 1.256 . S
O190 Co166 2.062 . S
O190 C191 1.255 . S
C191 O189 1.256 . S
C191 O190 1.255 . S
H192 C171 0.931 . S
H193 C179 0.931 . S
Co194 N199 2.057 . S
Co194 O211 2.021 1_556 S
Co194 O214 2.062 1_556 S
Co194 O218 2.117 . S
Co194 O219 2.020 . S
C195 O215 1.259 . S
C195 O218 1.258 1_654 S
Co196 N205 2.057 . S
Co196 O212 2.117 . S
Co196 O213 2.020 . S
Co196 O215 2.021 1_455 S
Co196 O220 2.062 . S
C197 N199 1.316 . S
C197 N200 1.347 . S
C197 H202 0.931 . S
C198 N199 1.375 . S
C198 C201 1.350 . S
C198 H203 0.930 . S
N199 Co194 2.057 . S
N199 C197 1.316 . S
N199 C198 1.375 . S
N200 C197 1.347 . S
N200 C201 1.373 . S
C201 C198 1.350 . S
C201 N200 1.373 . S
C201 H222 0.931 . S
H202 C197 0.931 . S
H203 C198 0.930 . S
C204 O211 1.259 . S
C204 O212 1.258 . S
N205 Co196 2.057 . S
N205 C206 1.316 1_455 S
N205 C207 1.375 . S
C206 N205 1.316 1_655 S
C206 N208 1.347 1_655 S
C206 H217 0.931 . S
C207 N205 1.375 . S
C207 C209 1.350 . S
C207 H216 0.930 . S
N208 C206 1.347 1_455 S
N208 C209 1.373 . S
C209 C207 1.350 . S
C209 N208 1.373 . S
C209 H223 0.931 . S
C210 O213 1.256 . S
C210 O214 1.255 . S
O211 Co194 2.021 1_554 S
O211 C204 1.259 . S
O212 Co196 2.117 . S
O212 C204 1.258 . S
O213 Co196 2.020 . S
O213 C210 1.256 . S
O214 Co194 2.062 1_554 S
O214 C210 1.255 . S
O215 C195 1.259 . S
O215 Co196 2.021 1_655 S
H216 C207 0.930 . S
H217 C206 0.931 . S
O218 Co194 2.117 . S
O218 C195 1.258 1_456 S
O219 Co194 2.020 . S
O219 C221 1.256 1_556 S
O220 Co196 2.062 . S
O220 C221 1.255 . S
C221 O219 1.256 1_554 S
C221 O220 1.255 . S
H222 C201 0.931 . S
H223 C209 0.931 . S
C224 C225 1.349 . S
C224 C226 1.327 . S
C224 H249 0.950 . S
C225 C224 1.349 . S
C225 C241 1.349 . S
C226 C224 1.327 . S
C226 C245 1.429 . S
C226 H250 0.950 . S
C227 C244 1.574 . S
C227 C246 1.368 . S
C227 H251 0.949 . S
H228 C232 0.949 . S
C229 C230 1.349 . S
C229 C231 1.327 . S
C229 H252 0.950 . S
C230 C229 1.349 . S
C230 C242 1.349 . S
C231 C229 1.327 . S
C231 C247 1.429 . S
C231 H253 0.950 . S
C232 H228 0.949 . S
C232 C240 1.574 . S
C232 C248 1.368 . S
H233 C241 0.950 . S
H234 C239 0.950 . S
H235 C240 0.949 . S
H236 C242 0.950 . S
H237 C243 0.950 . S
H238 C244 0.949 . S
C239 H234 0.950 . S
C239 C241 1.327 . S
C239 C245 1.429 . S
C240 C232 1.574 . S
C240 H235 0.949 . S
C240 C246 1.368 . S
C241 C225 1.349 . S
C241 H233 0.950 . S
C241 C239 1.327 . S
C242 C230 1.349 . S
C242 H236 0.950 . S
C242 C243 1.327 . S
C243 H237 0.950 . S
C243 C242 1.327 . S
C243 C247 1.429 . S
C244 C227 1.574 . S
C244 H238 0.949 . S
C244 C248 1.368 . S
C245 C226 1.429 . S
C245 C239 1.429 . S
C245 C246 1.523 . S
C246 C227 1.368 . S
C246 C240 1.368 . S
C246 C245 1.523 . S
C247 C231 1.429 . S
C247 C243 1.429 . S
C247 C248 1.523 . S
C248 C232 1.368 . S
C248 C244 1.368 . S
C248 C247 1.523 . S
H249 C224 0.950 . S
H250 C226 0.950 . S
H251 C227 0.949 . S
H252 C229 0.950 . S
H253 C231 0.950 . S
C254 C255 1.349 . S
C254 C256 1.327 . S
C254 H279 0.950 . S
C255 C254 1.349 . S
C255 C271 1.349 . S
C256 C254 1.327 . S
C256 C275 1.429 . S
C256 H280 0.950 . S
C257 C274 1.574 . S
C257 C276 1.368 . S
C257 H281 0.949 . S
H258 C262 0.949 . S
C259 C260 1.349 . S
C259 C261 1.327 . S
C259 H282 0.950 . S
C260 C259 1.349 . S
C260 C272 1.349 . S
C261 C259 1.327 . S
C261 C277 1.429 . S
C261 H283 0.950 . S
C262 H258 0.949 . S
C262 C270 1.574 . S
C262 C278 1.368 . S
H263 C271 0.950 . S
H264 C269 0.950 . S
H265 C270 0.949 . S
H266 C272 0.950 1_545 S
H267 C273 0.950 1_545 S
H268 C274 0.949 . S
C269 H264 0.950 . S
C269 C271 1.327 . S
C269 C275 1.429 . S
C270 C262 1.574 . S
C270 H265 0.949 . S
C270 C276 1.368 . S
C271 C255 1.349 . S
C271 H263 0.950 . S
C271 C269 1.327 . S
C272 C260 1.349 . S
C272 H266 0.950 1_565 S
C272 C273 1.327 . S
C273 H267 0.950 1_565 S
C273 C272 1.327 . S
C273 C277 1.429 . S
C274 C257 1.574 . S
C274 H268 0.949 . S
C274 C278 1.368 . S
C275 C256 1.429 . S
C275 C269 1.429 . S
C275 C276 1.523 . S
C276 C257 1.368 . S
C276 C270 1.368 . S
C276 C275 1.523 . S
C277 C261 1.429 . S
C277 C273 1.429 . S
C277 C278 1.523 . S
C278 C262 1.368 . S
C278 C274 1.368 . S
C278 C277 1.523 . S
H279 C254 0.950 . S
H280 C256 0.950 . S
H281 C257 0.949 . S
H282 C259 0.950 . S
H283 C261 0.950 . S
C284 C285 1.349 . S
C284 C286 1.327 . S
C284 H309 0.950 . S
C285 C284 1.349 . S
C285 C301 1.349 . S
C286 C284 1.327 . S
C286 C305 1.429 . S
C286 H310 0.950 . S
C287 C304 1.574 . S
C287 C306 1.368 . S
C287 H311 0.949 . S
H288 C292 0.949 . S
C289 C290 1.349 . S
C289 C291 1.327 . S
C289 H312 0.950 . S
C290 C289 1.349 . S
C290 C302 1.349 . S
C291 C289 1.327 . S
C291 C307 1.429 . S
C291 H313 0.950 . S
C292 H288 0.949 . S
C292 C300 1.574 . S
C292 C308 1.368 . S
H293 C301 0.950 . S
H294 C299 0.950 . S
H295 C300 0.949 . S
H296 C302 0.950 . S
H297 C303 0.950 . S
H298 C304 0.949 . S
C299 H294 0.950 . S
C299 C301 1.327 . S
C299 C305 1.429 . S
C300 C292 1.574 . S
C300 H295 0.949 . S
C300 C306 1.368 . S
C301 C285 1.349 . S
C301 H293 0.950 . S
C301 C299 1.327 . S
C302 C290 1.349 . S
C302 H296 0.950 . S
C302 C303 1.327 . S
C303 H297 0.950 . S
C303 C302 1.327 . S
C303 C307 1.429 . S
C304 C287 1.574 . S
C304 H298 0.949 . S
C304 C308 1.368 . S
C305 C286 1.429 . S
C305 C299 1.429 . S
C305 C306 1.523 . S
C306 C287 1.368 . S
C306 C300 1.368 . S
C306 C305 1.523 . S
C307 C291 1.429 . S
C307 C303 1.429 . S
C307 C308 1.523 . S
C308 C292 1.368 . S
C308 C304 1.368 . S
C308 C307 1.523 . S
H309 C284 0.950 . S
H310 C286 0.950 . S
H311 C287 0.949 . S
H312 C289 0.950 . S
H313 C291 0.950 . S
C314 C315 1.349 . S
C314 C316 1.327 . S
C314 H339 0.967 . S
C315 C314 1.349 . S
C315 C331 1.349 . S
C316 C314 1.327 . S
C316 C335 1.429 . S
C316 H340 0.950 1_655 S
C317 C334 1.574 . S
C317 C336 1.368 . S
C317 H341 0.949 . S
H318 C322 0.949 . S
C319 C320 1.349 . S
C319 C321 1.327 . S
C319 H342 0.950 . S
C320 C319 1.349 . S
C320 C332 1.349 1_655 S
C321 C319 1.327 . S
C321 C337 1.429 . S
C321 H343 0.950 . S
C322 H318 0.949 . S
C322 C330 1.574 1_455 S
C322 C338 1.368 1_455 S
H323 C331 0.950 . S
H324 C329 0.950 . S
H325 C330 0.949 1_455 S
H326 C332 0.950 . S
H327 C333 0.950 . S
H328 C334 0.949 . S
C329 H324 0.950 . S
C329 C331 1.327 . S
C329 C335 1.429 . S
C330 C322 1.574 1_655 S
C330 H325 0.949 1_655 S
C330 C336 1.368 . S
C331 C315 1.349 . S
C331 H323 0.950 . S
C331 C329 1.327 . S
C332 C320 1.349 1_455 S
C332 H326 0.950 . S
C332 C333 1.327 . S
C333 H327 0.950 . S
C333 C332 1.327 . S
C333 C337 1.429 1_455 S
C334 C317 1.574 . S
C334 H328 0.949 . S
C334 C338 1.368 . S
C335 C316 1.429 . S
C335 C329 1.429 . S
C335 C336 1.523 . S
C336 C317 1.368 . S
C336 C330 1.368 . S
C336 C335 1.523 . S
C337 C321 1.429 . S
C337 C333 1.429 1_655 S
C337 C338 1.523 . S
C338 C322 1.368 1_655 S
C338 C334 1.368 . S
C338 C337 1.523 . S
H339 C314 0.967 . S
H340 C316 0.950 1_455 S
H341 C317 0.949 . S
H342 C319 0.950 . S
H343 C321 0.950 . S
C344 C345 1.349 . S
C344 C346 1.327 . S
C344 H369 0.950 . S
C345 C344 1.349 . S
C345 C361 1.349 . S
C346 C344 1.327 . S
C346 C365 1.429 . S
C346 H370 0.950 . S
C347 C364 1.574 . S
C347 C366 1.368 . S
C347 H371 0.949 . S
H348 C352 0.949 . S
C349 C350 1.349 . S
C349 C351 1.327 . S
C349 H372 0.948 1_554 S
C350 C349 1.349 . S
C350 C362 1.349 . S
C351 C349 1.327 . S
C351 C367 1.429 . S
C351 H373 0.950 . S
C352 H348 0.949 . S
C352 C360 1.574 . S
C352 C368 1.368 . S
H353 C361 0.950 . S
H354 C359 0.950 . S
H355 C360 0.949 . S
H356 C362 0.950 . S
H357 C363 0.950 . S
H358 C364 0.949 . S
C359 H354 0.950 . S
C359 C361 1.327 . S
C359 C365 1.429 . S
C360 C352 1.574 . S
C360 H355 0.949 . S
C360 C366 1.368 . S
C361 C345 1.349 . S
C361 H353 0.950 . S
C361 C359 1.327 . S
C362 C350 1.349 . S
C362 H356 0.950 . S
C362 C363 1.327 . S
C363 H357 0.950 . S
C363 C362 1.327 . S
C363 C367 1.429 . S
C364 C347 1.574 . S
C364 H358 0.949 . S
C364 C368 1.368 . S
C365 C346 1.429 . S
C365 C359 1.429 . S
C365 C366 1.523 . S
C366 C347 1.368 . S
C366 C360 1.368 . S
C366 C365 1.523 . S
C367 C351 1.429 . S
C367 C363 1.429 . S
C367 C368 1.523 . S
C368 C352 1.368 . S
C368 C364 1.368 . S
C368 C367 1.523 . S
H369 C344 0.950 . S
H370 C346 0.950 . S
H371 C347 0.949 . S
H372 C349 0.948 1_556 S
H373 C351 0.950 . S
C374 C375 1.349 . S
C374 C376 1.327 . S
C374 H399 0.950 . S
C375 C374 1.349 . S
C375 C391 1.349 . S
C376 C374 1.327 . S
C376 C395 1.429 . S
C376 H400 0.950 . S
C377 C394 1.574 . S
C377 C396 1.368 . S
C377 H401 0.949 . S
H378 C382 0.949 . S
C379 C380 1.349 . S
C379 C381 1.327 . S
C379 H402 0.950 . S
C380 C379 1.349 . S
C380 C392 1.349 . S
C381 C379 1.327 . S
C381 C397 1.429 . S
C381 H403 0.950 . S
C382 H378 0.949 . S
C382 C390 1.574 . S
C382 C398 1.368 . S
H383 C391 0.950 . S
H384 C389 0.950 . S
H385 C390 0.949 . S
H386 C392 0.950 . S
H387 C393 0.950 . S
H388 C394 0.949 . S
C389 H384 0.950 . S
C389 C391 1.327 . S
C389 C395 1.429 . S
C390 C382 1.574 . S
C390 H385 0.949 . S
C390 C396 1.368 . S
C391 C375 1.349 . S
C391 H383 0.950 . S
C391 C389 1.327 . S
C392 C380 1.349 . S
C392 H386 0.950 . S
C392 C393 1.327 . S
C393 H387 0.950 . S
C393 C392 1.327 . S
C393 C397 1.429 . S
C394 C377 1.574 . S
C394 H388 0.949 . S
C394 C398 1.368 . S
C395 C376 1.429 . S
C395 C389 1.429 . S
C395 C396 1.523 . S
C396 C377 1.368 . S
C396 C390 1.368 . S
C396 C395 1.523 . S
C397 C381 1.429 . S
C397 C393 1.429 . S
C397 C398 1.523 . S
C398 C382 1.368 . S
C398 C394 1.368 . S
C398 C397 1.523 . S
H399 C374 0.950 . S
H400 C376 0.950 . S
H401 C377 0.949 . S
H402 C379 0.950 . S
H403 C381 0.950 . S
C404 C405 1.349 . S
C404 C406 1.327 . S
C404 H429 0.950 . S
C405 C404 1.349 . S
C405 C421 1.349 . S
C406 C404 1.327 . S
C406 C425 1.429 . S
C406 H430 0.950 . S
C407 C424 1.574 . S
C407 C426 1.368 . S
C407 H431 0.949 . S
H408 C412 0.949 . S
C409 C410 1.349 1_556 S
C409 C411 1.327 . S
C409 H432 0.950 . S
C410 C409 1.349 1_554 S
C410 C422 1.349 . S
C411 C409 1.327 . S
C411 C427 1.429 . S
C411 H433 0.950 . S
C412 H408 0.949 . S
C412 C420 1.574 . S
C412 C428 1.368 . S
H413 C421 0.950 . S
H414 C419 0.950 . S
H415 C420 0.949 . S
H416 C422 0.950 . S
H417 C423 0.951 . S
H418 C424 0.949 . S
C419 H414 0.950 . S
C419 C421 1.327 . S
C419 C425 1.429 . S
C420 C412 1.574 . S
C420 H415 0.949 . S
C420 C426 1.368 . S
C421 C405 1.349 . S
C421 H413 0.950 . S
C421 C419 1.327 . S
C422 C410 1.349 . S
C422 H416 0.950 . S
C422 C423 1.329 . S
C423 H417 0.951 . S
C423 C422 1.329 . S
C423 C427 1.425 1_554 S
C424 C407 1.574 . S
C424 H418 0.949 . S
C424 C428 1.368 . S
C425 C406 1.429 . S
C425 C419 1.429 . S
C425 C426 1.523 . S
C426 C407 1.368 . S
C426 C420 1.368 . S
C426 C425 1.523 . S
C427 C411 1.429 . S
C427 C423 1.425 1_556 S
C427 C428 1.523 . S
C428 C412 1.368 . S
C428 C424 1.368 . S
C428 C427 1.523 . S
H429 C404 0.950 . S
H430 C406 0.950 . S
H431 C407 0.949 . S
H432 C409 0.950 . S
H433 C411 0.950 . S
C434 C435 1.349 . S
C434 C436 1.327 . S
C434 H459 0.950 . S
C435 C434 1.349 . S
C435 C451 1.349 . S
C436 C434 1.327 . S
C436 C455 1.429 . S
C436 H460 0.950 . S
C437 C454 1.574 . S
C437 C456 1.368 . S
C437 H461 0.949 . S
H438 C442 0.949 . S
C439 C440 1.349 . S
C439 C441 1.327 . S
C439 H462 0.950 . S
C440 C439 1.349 . S
C440 C452 1.349 . S
C441 C439 1.327 . S
C441 C457 1.429 . S
C441 H463 0.950 . S
C442 H438 0.949 . S
C442 C450 1.574 . S
C442 C458 1.368 . S
H443 C451 0.950 . S
H444 C449 0.950 . S
H445 C450 0.949 . S
H446 C452 0.950 . S
H447 C453 0.950 . S
H448 C454 0.949 . S
C449 H444 0.950 . S
C449 C451 1.327 . S
C449 C455 1.429 . S
C450 C442 1.574 . S
C450 H445 0.949 . S
C450 C456 1.368 . S
C451 C435 1.349 . S
C451 H443 0.950 . S
C451 C449 1.327 . S
C452 C440 1.349 . S
C452 H446 0.950 . S
C452 C453 1.327 . S
C453 H447 0.950 . S
C453 C452 1.327 . S
C453 C457 1.429 . S
C454 C437 1.574 . S
C454 H448 0.949 . S
C454 C458 1.368 . S
C455 C436 1.429 . S
C455 C449 1.429 . S
C455 C456 1.523 . S
C456 C437 1.368 . S
C456 C450 1.368 . S
C456 C455 1.523 . S
C457 C441 1.429 . S
C457 C453 1.429 . S
C457 C458 1.523 . S
C458 C442 1.368 . S
C458 C454 1.368 . S
C458 C457 1.523 . S
H459 C434 0.950 . S
H460 C436 0.950 . S
H461 C437 0.949 . S
H462 C439 0.950 . S
H463 C441 0.950 . S
C464 C465 1.349 . S
C464 C466 1.327 . S
C464 H489 0.950 . S
C465 C464 1.349 . S
C465 C481 1.349 . S
C466 C464 1.327 . S
C466 C485 1.429 . S
C466 H490 0.950 . S
C467 C484 1.574 . S
C467 C486 1.368 . S
C467 H491 0.949 . S
H468 C472 0.949 . S
C469 C470 1.349 . S
C469 C471 1.327 . S
C469 H492 0.950 . S
C470 C469 1.349 . S
C470 C482 1.349 . S
C471 C469 1.327 . S
C471 C487 1.429 . S
C471 H493 0.950 . S
C472 H468 0.949 . S
C472 C480 1.574 . S
C472 C488 1.368 . S
H473 C481 0.950 . S
H474 C479 0.950 . S
H475 C480 0.949 . S
H476 C482 0.950 . S
H477 C483 0.950 . S
H478 C484 0.949 . S
C479 H474 0.950 . S
C479 C481 1.327 . S
C479 C485 1.429 . S
C480 C472 1.574 . S
C480 H475 0.949 . S
C480 C486 1.368 . S
C481 C465 1.349 . S
C481 H473 0.950 . S
C481 C479 1.327 . S
C482 C470 1.349 . S
C482 H476 0.950 . S
C482 C483 1.327 . S
C483 H477 0.950 . S
C483 C482 1.327 . S
C483 C487 1.429 . S
C484 C467 1.574 . S
C484 H478 0.949 . S
C484 C488 1.368 . S
C485 C466 1.429 . S
C485 C479 1.429 . S
C485 C486 1.523 . S
C486 C467 1.368 . S
C486 C480 1.368 . S
C486 C485 1.523 . S
C487 C471 1.429 . S
C487 C483 1.429 . S
C487 C488 1.523 . S
C488 C472 1.368 . S
C488 C484 1.368 . S
C488 C487 1.523 . S
H489 C464 0.950 . S
H490 C466 0.950 . S
H491 C467 0.949 . S
H492 C469 0.950 . S
H493 C471 0.950 . S
C494 C495 1.349 . S
C494 C496 1.327 . S
C494 H519 0.950 . S
C495 C494 1.349 . S
C495 C511 1.349 . S
C496 C494 1.327 . S
C496 C515 1.429 . S
C496 H520 0.950 . S
C497 C514 1.574 . S
C497 C516 1.368 . S
C497 H521 0.949 . S
H498 C502 0.949 . S
C499 C500 1.349 . S
C499 C501 1.327 . S
C499 H522 0.950 . S
C500 C499 1.349 . S
C500 C512 1.349 . S
C501 C499 1.327 . S
C501 C517 1.429 . S
C501 H523 0.950 . S
C502 H498 0.949 . S
C502 C510 1.574 . S
C502 C518 1.368 . S
H503 C511 0.950 . S
H504 C509 0.950 . S
H505 C510 0.949 . S
H506 C512 0.950 . S
H507 C513 0.950 . S
H508 C514 0.949 . S
C509 H504 0.950 . S
C509 C511 1.327 . S
C509 C515 1.429 . S
C510 C502 1.574 . S
C510 H505 0.949 . S
C510 C516 1.368 . S
C511 C495 1.349 . S
C511 H503 0.950 . S
C511 C509 1.327 . S
C512 C500 1.349 . S
C512 H506 0.950 . S
C512 C513 1.327 . S
C513 H507 0.950 . S
C513 C512 1.327 . S
C513 C517 1.429 . S
C514 C497 1.574 . S
C514 H508 0.949 . S
C514 C518 1.368 . S
C515 C496 1.429 . S
C515 C509 1.429 . S
C515 C516 1.523 . S
C516 C497 1.368 . S
C516 C510 1.368 . S
C516 C515 1.523 . S
C517 C501 1.429 . S
C517 C513 1.429 . S
C517 C518 1.523 . S
C518 C502 1.368 . S
C518 C514 1.368 . S
C518 C517 1.523 . S
H519 C494 0.950 . S
H520 C496 0.950 . S
H521 C497 0.949 . S
H522 C499 0.950 . S
H523 C501 0.950 . S
C524 C525 1.349 . S
C524 C526 1.327 . S
C524 H549 0.950 . S
C525 C524 1.349 . S
C525 C541 1.349 . S
C526 C524 1.327 . S
C526 C545 1.429 . S
C526 H550 0.950 . S
C527 C544 1.574 . S
C527 C546 1.368 . S
C527 H551 0.949 1_655 S
H528 C532 0.949 . S
C529 C530 1.349 1_455 S
C529 C531 1.327 . S
C529 H552 0.950 . S
C530 C529 1.349 1_655 S
C530 C542 1.349 . S
C531 C529 1.327 . S
C531 C547 1.429 1_455 S
C531 H553 0.950 . S
C532 H528 0.949 . S
C532 C540 1.574 . S
C532 C548 1.368 . S
H533 C541 0.950 . S
H534 C539 0.953 . S
H535 C540 0.949 . S
H536 C542 0.950 . S
H537 C543 0.950 . S
H538 C544 0.942 1_455 S
C539 H534 0.953 . S
C539 C541 1.327 . S
C539 C545 1.429 . S
C540 C532 1.574 . S
C540 H535 0.949 . S
C540 C546 1.368 . S
C541 C525 1.349 . S
C541 H533 0.950 . S
C541 C539 1.327 . S
C542 C530 1.349 . S
C542 H536 0.950 . S
C542 C543 1.327 . S
C543 H537 0.950 . S
C543 C542 1.327 . S
C543 C547 1.429 . S
C544 C527 1.574 . S
C544 H538 0.942 1_655 S
C544 C548 1.376 . S
C545 C526 1.429 . S
C545 C539 1.429 . S
C545 C546 1.523 . S
C546 C527 1.368 . S
C546 C540 1.368 . S
C546 C545 1.523 . S
C547 C531 1.429 1_655 S
C547 C543 1.429 . S
C547 C548 1.523 . S
C548 C532 1.368 . S
C548 C544 1.376 . S
C548 C547 1.523 . S
H549 C524 0.950 . S
H550 C526 0.950 . S
H551 C527 0.949 1_455 S
H552 C529 0.950 . S
H553 C531 0.950 . S
C554 C555 1.349 . S
C554 C556 1.327 . S
C554 H579 0.950 . S
C555 C554 1.349 . S
C555 C571 1.349 . S
C556 C554 1.327 . S
C556 C575 1.429 . S
C556 H580 0.950 . S
C557 C574 1.574 . S
C557 C576 1.368 . S
C557 H581 0.949 . S
H558 C562 0.949 . S
C559 C560 1.349 . S
C559 C561 1.327 . S
C559 H582 0.950 . S
C560 C559 1.349 . S
C560 C572 1.349 . S
C561 C559 1.327 . S
C561 C577 1.429 . S
C561 H583 0.950 . S
C562 H558 0.949 . S
C562 C570 1.574 . S
C562 C578 1.368 . S
H563 C571 0.950 . S
H564 C569 0.950 . S
H565 C570 0.949 . S
H566 C572 0.950 . S
H567 C573 0.950 . S
H568 C574 0.949 . S
C569 H564 0.950 . S
C569 C571 1.327 . S
C569 C575 1.429 . S
C570 C562 1.574 . S
C570 H565 0.949 . S
C570 C576 1.368 . S
C571 C555 1.349 . S
C571 H563 0.950 . S
C571 C569 1.327 . S
C572 C560 1.349 . S
C572 H566 0.950 . S
C572 C573 1.327 . S
C573 H567 0.950 . S
C573 C572 1.327 . S
C573 C577 1.429 . S
C574 C557 1.574 . S
C574 H568 0.949 . S
C574 C578 1.368 . S
C575 C556 1.429 . S
C575 C569 1.429 . S
C575 C576 1.523 . S
C576 C557 1.368 . S
C576 C570 1.368 . S
C576 C575 1.523 . S
C577 C561 1.429 . S
C577 C573 1.429 . S
C577 C578 1.523 . S
C578 C562 1.368 . S
C578 C574 1.368 . S
C578 C577 1.523 . S
H579 C554 0.950 . S
H580 C556 0.950 . S
H581 C557 0.949 . S
H582 C559 0.950 . S
H583 C561 0.950 . S
C584 C585 1.349 . S
C584 C586 1.327 . S
C584 H609 0.950 . S
C585 C584 1.349 . S
C585 C601 1.349 . S
C586 C584 1.327 . S
C586 C605 1.429 . S
C586 H610 0.950 . S
C587 C604 1.574 . S
C587 C606 1.368 . S
C587 H611 0.949 . S
H588 C592 0.949 . S
C589 C590 1.349 . S
C589 C591 1.327 . S
C589 H612 0.950 . S
C590 C589 1.349 . S
C590 C602 1.349 1_665 S
C591 C589 1.327 . S
C591 C607 1.429 . S
C591 H613 0.950 . S
C592 H588 0.949 . S
C592 C600 1.574 . S
C592 C608 1.368 . S
H593 C601 0.950 . S
H594 C599 0.950 . S
H595 C600 0.949 . S
H596 C602 0.950 . S
H597 C603 0.950 1_445 S
H598 C604 0.949 . S
C599 H594 0.950 . S
C599 C601 1.327 . S
C599 C605 1.429 . S
C600 C592 1.574 . S
C600 H595 0.949 . S
C600 C606 1.368 . S
C601 C585 1.349 . S
C601 H593 0.950 . S
C601 C599 1.327 . S
C602 C590 1.349 1_445 S
C602 H596 0.950 . S
C602 C603 1.327 1_445 S
C603 H597 0.950 1_665 S
C603 C602 1.327 1_665 S
C603 C607 1.429 . S
C604 C587 1.574 . S
C604 H598 0.949 . S
C604 C608 1.368 . S
C605 C586 1.429 . S
C605 C599 1.429 . S
C605 C606 1.523 . S
C606 C587 1.368 . S
C606 C600 1.368 . S
C606 C605 1.523 . S
C607 C591 1.429 . S
C607 C603 1.429 . S
C607 C608 1.523 . S
C608 C592 1.368 . S
C608 C604 1.368 . S
C608 C607 1.523 . S
H609 C584 0.950 . S
H610 C586 0.950 . S
H611 C587 0.949 . S
H612 C589 0.950 . S
H613 C591 0.950 . S
C614 C615 1.349 . S
C614 C616 1.327 . S
C614 H639 0.950 . S
C615 C614 1.349 . S
C615 C631 1.349 . S
C616 C614 1.327 . S
C616 C635 1.429 . S
C616 H640 0.950 . S
C617 C634 1.574 . S
C617 C636 1.368 . S
C617 H641 0.949 . S
H618 C622 0.949 . S
C619 C620 1.349 . S
C619 C621 1.327 . S
C619 H642 0.950 . S
C620 C619 1.349 . S
C620 C632 1.349 . S
C621 C619 1.327 . S
C621 C637 1.429 . S
C621 H643 0.950 . S
C622 H618 0.949 . S
C622 C630 1.574 . S
C622 C638 1.368 . S
H623 C631 0.950 . S
H624 C629 0.950 . S
H625 C630 0.949 . S
H626 C632 0.950 . S
H627 C633 0.950 . S
H628 C634 0.949 . S
C629 H624 0.950 . S
C629 C631 1.327 . S
C629 C635 1.429 . S
C630 C622 1.574 . S
C630 H625 0.949 . S
C630 C636 1.368 . S
C631 C615 1.349 . S
C631 H623 0.950 . S
C631 C629 1.327 . S
C632 C620 1.349 . S
C632 H626 0.950 . S
C632 C633 1.327 . S
C633 H627 0.950 . S
C633 C632 1.327 . S
C633 C637 1.429 . S
C634 C617 1.574 . S
C634 H628 0.949 . S
C634 C638 1.368 . S
C635 C616 1.429 . S
C635 C629 1.429 . S
C635 C636 1.523 . S
C636 C617 1.368 . S
C636 C630 1.368 . S
C636 C635 1.523 . S
C637 C621 1.429 . S
C637 C633 1.429 . S
C637 C638 1.523 . S
C638 C622 1.368 . S
C638 C634 1.368 . S
C638 C637 1.523 . S
H639 C614 0.950 . S
H640 C616 0.950 . S
H641 C617 0.949 . S
H642 C619 0.950 . S
H643 C621 0.950 . S
C644 C645 1.349 . S
C644 C646 1.327 . S
C644 H669 0.950 . S
C645 C644 1.349 . S
C645 C661 1.349 . S
C646 C644 1.327 . S
C646 C665 1.429 . S
C646 H670 0.950 . S
C647 C664 1.574 . S
C647 C666 1.368 . S
C647 H671 0.949 . S
H648 C652 0.949 . S
C649 C650 1.349 . S
C649 C651 1.327 . S
C649 H672 0.950 . S
C650 C649 1.349 . S
C650 C662 1.349 . S
C651 C649 1.327 . S
C651 C667 1.429 . S
C651 H673 0.950 . S
C652 H648 0.949 . S
C652 C660 1.574 . S
C652 C668 1.368 . S
H653 C661 0.950 . S
H654 C659 0.950 . S
H655 C660 0.949 . S
H656 C662 0.950 . S
H657 C663 0.950 . S
H658 C664 0.949 . S
C659 H654 0.950 . S
C659 C661 1.327 . S
C659 C665 1.429 . S
C660 C652 1.574 . S
C660 H655 0.949 . S
C660 C666 1.368 . S
C661 C645 1.349 . S
C661 H653 0.950 . S
C661 C659 1.327 . S
C662 C650 1.349 . S
C662 H656 0.950 . S
C662 C663 1.327 . S
C663 H657 0.950 . S
C663 C662 1.327 . S
C663 C667 1.429 . S
C664 C647 1.574 . S
C664 H658 0.949 . S
C664 C668 1.368 . S
C665 C646 1.429 . S
C665 C659 1.429 . S
C665 C666 1.523 . S
C666 C647 1.368 . S
C666 C660 1.368 . S
C666 C665 1.523 . S
C667 C651 1.429 . S
C667 C663 1.429 . S
C667 C668 1.523 . S
C668 C652 1.368 . S
C668 C664 1.368 . S
C668 C667 1.523 . S
H669 C644 0.950 . S
H670 C646 0.950 . S
H671 C647 0.949 . S
H672 C649 0.950 . S
H673 C651 0.950 . S
C674 C675 1.349 . S
C674 C676 1.327 . S
C674 H699 0.950 . S
C675 C674 1.349 . S
C675 C691 1.349 . S
C676 C674 1.327 . S
C676 C695 1.429 . S
C676 H700 0.950 . S
C677 C694 1.574 . S
C677 C696 1.368 . S
C677 H701 0.949 . S
H678 C682 0.949 . S
C679 C680 1.349 . S
C679 C681 1.327 . S
C679 H702 0.950 . S
C680 C679 1.349 . S
C680 C692 1.349 . S
C681 C679 1.327 . S
C681 C697 1.429 . S
C681 H703 0.950 . S
C682 H678 0.949 . S
C682 C690 1.574 . S
C682 C698 1.368 . S
H683 C691 0.950 . S
H684 C689 0.950 . S
H685 C690 0.949 . S
H686 C692 0.950 . S
H687 C693 0.950 . S
H688 C694 0.949 . S
C689 H684 0.950 . S
C689 C691 1.327 . S
C689 C695 1.429 . S
C690 C682 1.574 . S
C690 H685 0.949 . S
C690 C696 1.368 . S
C691 C675 1.349 . S
C691 H683 0.950 . S
C691 C689 1.327 . S
C692 C680 1.349 . S
C692 H686 0.950 . S
C692 C693 1.327 . S
C693 H687 0.950 . S
C693 C692 1.327 . S
C693 C697 1.429 . S
C694 C677 1.574 . S
C694 H688 0.949 . S
C694 C698 1.368 . S
C695 C676 1.429 . S
C695 C689 1.429 . S
C695 C696 1.523 . S
C696 C677 1.368 . S
C696 C690 1.368 . S
C696 C695 1.523 . S
C697 C681 1.429 . S
C697 C693 1.429 . S
C697 C698 1.523 . S
C698 C682 1.368 . S
C698 C694 1.368 . S
C698 C697 1.523 . S
H699 C674 0.950 . S
H700 C676 0.950 . S
H701 C677 0.949 . S
H702 C679 0.950 . S
H703 C681 0.950 . S
C704 C705 1.349 . S
C704 C706 1.327 . S
C704 H729 0.950 . S
C705 C704 1.349 . S
C705 C721 1.349 . S
C706 C704 1.327 . S
C706 C725 1.429 . S
C706 H730 0.950 . S
C707 C724 1.574 . S
C707 C726 1.368 . S
C707 H731 0.949 . S
H708 C712 0.949 . S
C709 C710 1.349 . S
C709 C711 1.327 . S
C709 H732 0.950 1_556 S
C710 C709 1.349 . S
C710 C722 1.357 . S
C711 C709 1.327 . S
C711 C727 1.429 . S
C711 H733 0.950 . S
C712 H708 0.949 . S
C712 C720 1.574 . S
C712 C728 1.368 . S
H713 C721 0.950 . S
H714 C719 0.950 . S
H715 C720 0.949 . S
H716 C722 0.935 1_545 S
H717 C723 0.950 1_545 S
H718 C724 0.949 . S
C719 H714 0.950 . S
C719 C721 1.327 . S
C719 C725 1.429 . S
C720 C712 1.574 . S
C720 H715 0.949 . S
C720 C726 1.368 . S
C721 C705 1.349 . S
C721 H713 0.950 . S
C721 C719 1.327 . S
C722 C710 1.357 . S
C722 H716 0.935 1_565 S
C722 C723 1.333 . S
C723 H717 0.950 1_565 S
C723 C722 1.333 . S
C723 C727 1.429 . S
C724 C707 1.574 . S
C724 H718 0.949 . S
C724 C728 1.368 . S
C725 C706 1.429 . S
C725 C719 1.429 . S
C725 C726 1.523 . S
C726 C707 1.368 . S
C726 C720 1.368 . S
C726 C725 1.523 . S
C727 C711 1.429 . S
C727 C723 1.429 . S
C727 C728 1.523 . S
C728 C712 1.368 . S
C728 C724 1.368 . S
C728 C727 1.523 . S
H729 C704 0.950 . S
H730 C706 0.950 . S
H731 C707 0.949 . S
H732 C709 0.950 1_554 S
H733 C711 0.950 . S
C734 C735 1.349 . S
C734 C736 1.327 . S
C734 H759 0.950 . S
C735 C734 1.349 . S
C735 C751 1.349 . S
C736 C734 1.327 . S
C736 C755 1.429 . S
C736 H760 0.950 . S
C737 C754 1.574 . S
C737 C756 1.368 . S
C737 H761 0.949 . S
H738 C742 0.949 . S
C739 C740 1.349 . S
C739 C741 1.327 . S
C739 H762 0.950 . S
C740 C739 1.349 . S
C740 C752 1.349 . S
C741 C739 1.327 . S
C741 C757 1.429 . S
C741 H763 0.950 . S
C742 H738 0.949 . S
C742 C750 1.574 . S
C742 C758 1.368 . S
H743 C751 0.950 . S
H744 C749 0.950 . S
H745 C750 0.949 . S
H746 C752 0.950 . S
H747 C753 0.950 . S
H748 C754 0.949 . S
C749 H744 0.950 . S
C749 C751 1.327 . S
C749 C755 1.429 . S
C750 C742 1.574 . S
C750 H745 0.949 . S
C750 C756 1.368 . S
C751 C735 1.349 . S
C751 H743 0.950 . S
C751 C749 1.327 . S
C752 C740 1.349 . S
C752 H746 0.950 . S
C752 C753 1.327 . S
C753 H747 0.950 . S
C753 C752 1.327 . S
C753 C757 1.429 . S
C754 C737 1.574 . S
C754 H748 0.949 . S
C754 C758 1.368 . S
C755 C736 1.429 . S
C755 C749 1.429 . S
C755 C756 1.523 . S
C756 C737 1.368 . S
C756 C750 1.368 . S
C756 C755 1.523 . S
C757 C741 1.429 . S
C757 C753 1.429 . S
C757 C758 1.523 . S
C758 C742 1.368 . S
C758 C754 1.368 . S
C758 C757 1.523 . S
H759 C734 0.950 . S
H760 C736 0.950 . S
H761 C737 0.949 . S
H762 C739 0.950 . S
H763 C741 0.950 . S
C764 C765 1.349 . S
C764 C766 1.327 . S
C764 H789 0.950 . S
C765 C764 1.349 . S
C765 C781 1.349 . S
C766 C764 1.327 . S
C766 C785 1.429 . S
C766 H790 0.950 . S
C767 C784 1.574 . S
C767 C786 1.368 . S
C767 H791 0.949 . S
H768 C772 0.949 . S
C769 C770 1.349 . S
C769 C771 1.327 . S
C769 H792 0.950 . S
C770 C769 1.349 . S
C770 C782 1.349 . S
C771 C769 1.327 . S
C771 C787 1.429 . S
C771 H793 0.950 . S
C772 H768 0.949 . S
C772 C780 1.574 . S
C772 C788 1.368 . S
H773 C781 0.950 . S
H774 C779 0.950 . S
H775 C780 0.949 . S
H776 C782 0.950 . S
H777 C783 0.950 . S
H778 C784 0.949 . S
C779 H774 0.950 . S
C779 C781 1.327 . S
C779 C785 1.429 . S
C780 C772 1.574 . S
C780 H775 0.949 . S
C780 C786 1.368 . S
C781 C765 1.349 . S
C781 H773 0.950 . S
C781 C779 1.327 . S
C782 C770 1.349 . S
C782 H776 0.950 . S
C782 C783 1.327 . S
C783 H777 0.950 . S
C783 C782 1.327 . S
C783 C787 1.429 . S
C784 C767 1.574 . S
C784 H778 0.949 . S
C784 C788 1.368 . S
C785 C766 1.429 . S
C785 C779 1.429 . S
C785 C786 1.523 . S
C786 C767 1.368 . S
C786 C780 1.368 . S
C786 C785 1.523 . S
C787 C771 1.429 . S
C787 C783 1.429 . S
C787 C788 1.523 . S
C788 C772 1.368 . S
C788 C784 1.368 . S
C788 C787 1.523 . S
H789 C764 0.950 . S
H790 C766 0.950 . S
H791 C767 0.949 . S
H792 C769 0.950 . S
H793 C771 0.950 . S
C794 C795 1.349 . S
C794 C796 1.327 . S
C794 H819 0.950 . S
C795 C794 1.349 . S
C795 C811 1.349 . S
C796 C794 1.327 . S
C796 C815 1.429 . S
C796 H820 0.950 . S
C797 C814 1.574 . S
C797 C816 1.368 . S
C797 H821 0.949 . S
H798 C802 0.949 . S
C799 C800 1.349 . S
C799 C801 1.327 . S
C799 H822 0.950 . S
C800 C799 1.349 . S
C800 C812 1.349 . S
C801 C799 1.327 . S
C801 C817 1.429 . S
C801 H823 0.950 . S
C802 H798 0.949 . S
C802 C810 1.574 . S
C802 C818 1.368 . S
H803 C811 0.950 . S
H804 C809 0.950 . S
H805 C810 0.949 . S
H806 C812 0.950 . S
H807 C813 0.950 . S
H808 C814 0.949 . S
C809 H804 0.950 . S
C809 C811 1.327 . S
C809 C815 1.429 . S
C810 C802 1.574 . S
C810 H805 0.949 . S
C810 C816 1.368 . S
C811 C795 1.349 . S
C811 H803 0.950 . S
C811 C809 1.327 . S
C812 C800 1.349 . S
C812 H806 0.950 . S
C812 C813 1.327 . S
C813 H807 0.950 . S
C813 C812 1.327 . S
C813 C817 1.429 . S
C814 C797 1.574 . S
C814 H808 0.949 . S
C814 C818 1.368 . S
C815 C796 1.429 . S
C815 C809 1.429 . S
C815 C816 1.523 . S
C816 C797 1.368 . S
C816 C810 1.368 . S
C816 C815 1.523 . S
C817 C801 1.429 . S
C817 C813 1.429 . S
C817 C818 1.523 . S
C818 C802 1.368 . S
C818 C814 1.368 . S
C818 C817 1.523 . S
H819 C794 0.950 . S
H820 C796 0.950 . S
H821 C797 0.949 . S
H822 C799 0.950 . S
H823 C801 0.950 . S
C824 C825 1.349 . S
C824 C826 1.327 . S
C824 H849 0.950 . S
C825 C824 1.349 . S
C825 C841 1.349 . S
C826 C824 1.327 . S
C826 C845 1.429 . S
C826 H850 0.950 . S
C827 C844 1.574 . S
C827 C846 1.368 . S
C827 H851 0.949 . S
H828 C832 0.949 . S
C829 C830 1.334 1_556 S
C829 C831 1.327 . S
C829 H852 0.950 . S
C830 C829 1.334 1_554 S
C830 C842 1.361 1_455 S
C831 C829 1.327 . S
C831 C847 1.429 1_455 S
C831 H853 0.950 . S
C832 H828 0.949 . S
C832 C840 1.574 1_554 S
C832 C848 1.368 1_554 S
H833 C841 0.950 . S
H834 C839 0.950 . S
H835 C840 0.949 1_554 S
H836 C842 0.950 . S
H837 C843 0.950 . S
H838 C844 0.949 1_455 S
C839 H834 0.950 . S
C839 C841 1.327 . S
C839 C845 1.429 . S
C840 C832 1.574 1_556 S
C840 H835 0.949 1_556 S
C840 C846 1.368 . S
C841 C825 1.349 . S
C841 H833 0.950 . S
C841 C839 1.327 . S
C842 C830 1.361 1_655 S
C842 H836 0.950 . S
C842 C843 1.327 . S
C843 H837 0.950 . S
C843 C842 1.327 . S
C843 C847 1.429 1_554 S
C844 C827 1.574 . S
C844 H838 0.949 1_655 S
C844 C848 1.368 . S
C845 C826 1.429 . S
C845 C839 1.429 . S
C845 C846 1.523 . S
C846 C827 1.368 . S
C846 C840 1.368 . S
C846 C845 1.523 . S
C847 C831 1.429 1_655 S
C847 C843 1.429 1_556 S
C847 C848 1.523 . S
C848 C832 1.368 1_556 S
C848 C844 1.368 . S
C848 C847 1.523 . S
H849 C824 0.950 . S
H850 C826 0.950 . S
H851 C827 0.949 . S
H852 C829 0.950 . S
H853 C831 0.950 . S
C854 C855 1.349 . S
C854 C856 1.327 . S
C854 H879 0.950 . S
C855 C854 1.349 . S
C855 C871 1.349 . S
C856 C854 1.327 . S
C856 C875 1.429 . S
C856 H880 0.950 . S
C857 C874 1.574 . S
C857 C876 1.368 . S
C857 H881 0.949 . S
H858 C862 0.949 . S
C859 C860 1.349 . S
C859 C861 1.327 . S
C859 H882 0.950 . S
C860 C859 1.349 . S
C860 C872 1.349 . S
C861 C859 1.327 . S
C861 C877 1.429 . S
C861 H883 0.950 . S
C862 H858 0.949 . S
C862 C870 1.574 . S
C862 C878 1.368 . S
H863 C871 0.950 . S
H864 C869 0.950 . S
H865 C870 0.949 . S
H866 C872 0.950 . S
H867 C873 0.950 . S
H868 C874 0.949 . S
C869 H864 0.950 . S
C869 C871 1.327 . S
C869 C875 1.429 . S
C870 C862 1.574 . S
C870 H865 0.949 . S
C870 C876 1.368 . S
C871 C855 1.349 . S
C871 H863 0.950 . S
C871 C869 1.327 . S
C872 C860 1.349 . S
C872 H866 0.950 . S
C872 C873 1.327 . S
C873 H867 0.950 . S
C873 C872 1.327 . S
C873 C877 1.429 . S
C874 C857 1.574 . S
C874 H868 0.949 . S
C874 C878 1.368 . S
C875 C856 1.429 . S
C875 C869 1.429 . S
C875 C876 1.523 . S
C876 C857 1.368 . S
C876 C870 1.368 . S
C876 C875 1.523 . S
C877 C861 1.429 . S
C877 C873 1.429 . S
C877 C878 1.523 . S
C878 C862 1.368 . S
C878 C874 1.368 . S
C878 C877 1.523 . S
H879 C854 0.950 . S
H880 C856 0.950 . S
H881 C857 0.949 . S
H882 C859 0.950 . S
H883 C861 0.950 . S
C884 C885 1.349 . S
C884 C886 1.327 . S
C884 H909 0.950 . S
C885 C884 1.349 . S
C885 C901 1.349 . S
C886 C884 1.327 . S
C886 C905 1.429 . S
C886 H910 0.950 . S
C887 C904 1.574 . S
C887 C906 1.368 . S
C887 H911 0.949 . S
H888 C892 0.949 . S
C889 C890 1.349 . S
C889 C891 1.327 . S
C889 H912 0.950 . S
C890 C889 1.349 . S
C890 C902 1.349 . S
C891 C889 1.327 . S
C891 C907 1.429 . S
C891 H913 0.950 . S
C892 H888 0.949 . S
C892 C900 1.574 . S
C892 C908 1.368 . S
H893 C901 0.950 . S
H894 C899 0.950 . S
H895 C900 0.949 . S
H896 C902 0.950 . S
H897 C903 0.950 . S
H898 C904 0.949 . S
C899 H894 0.950 . S
C899 C901 1.327 . S
C899 C905 1.429 . S
C900 C892 1.574 . S
C900 H895 0.949 . S
C900 C906 1.368 . S
C901 C885 1.349 . S
C901 H893 0.950 . S
C901 C899 1.327 . S
C902 C890 1.349 . S
C902 H896 0.950 . S
C902 C903 1.327 . S
C903 H897 0.950 . S
C903 C902 1.327 . S
C903 C907 1.429 . S
C904 C887 1.574 . S
C904 H898 0.949 . S
C904 C908 1.368 . S
C905 C886 1.429 . S
C905 C899 1.429 . S
C905 C906 1.523 . S
C906 C887 1.368 . S
C906 C900 1.368 . S
C906 C905 1.523 . S
C907 C891 1.429 . S
C907 C903 1.429 . S
C907 C908 1.523 . S
C908 C892 1.368 . S
C908 C904 1.368 . S
C908 C907 1.523 . S
H909 C884 0.950 . S
H910 C886 0.950 . S
H911 C887 0.949 . S
H912 C889 0.950 . S
H913 C891 0.950 . S
C914 C915 1.349 . S
C914 C916 1.327 . S
C914 H939 0.950 . S
C915 C914 1.349 . S
C915 C931 1.349 . S
C916 C914 1.327 . S
C916 C935 1.429 . S
C916 H940 0.950 . S
C917 C934 1.574 . S
C917 C936 1.368 . S
C917 H941 0.949 . S
H918 C922 0.949 . S
C919 C920 1.349 . S
C919 C921 1.327 . S
C919 H942 0.950 . S
C920 C919 1.349 . S
C920 C932 1.349 . S
C921 C919 1.327 . S
C921 C937 1.429 . S
C921 H943 0.950 . S
C922 H918 0.949 . S
C922 C930 1.574 . S
C922 C938 1.368 . S
H923 C931 0.950 . S
H924 C929 0.950 . S
H925 C930 0.949 . S
H926 C932 0.950 . S
H927 C933 0.950 . S
H928 C934 0.949 . S
C929 H924 0.950 . S
C929 C931 1.327 . S
C929 C935 1.429 . S
C930 C922 1.574 . S
C930 H925 0.949 . S
C930 C936 1.368 . S
C931 C915 1.349 . S
C931 H923 0.950 . S
C931 C929 1.327 . S
C932 C920 1.349 . S
C932 H926 0.950 . S
C932 C933 1.327 . S
C933 H927 0.950 . S
C933 C932 1.327 . S
C933 C937 1.429 . S
C934 C917 1.574 . S
C934 H928 0.949 . S
C934 C938 1.368 . S
C935 C916 1.429 . S
C935 C929 1.429 . S
C935 C936 1.523 . S
C936 C917 1.368 . S
C936 C930 1.368 . S
C936 C935 1.523 . S
C937 C921 1.429 . S
C937 C933 1.429 . S
C937 C938 1.523 . S
C938 C922 1.368 . S
C938 C934 1.368 . S
C938 C937 1.523 . S
H939 C914 0.950 . S
H940 C916 0.950 . S
H941 C917 0.949 . S
H942 C919 0.950 . S
H943 C921 0.950 . S
C225 C9 2.624 . S
C230 C120 2.640 . S
C255 C21 1.045 . S
C260 N140 1.026 . S
C290 C174 1.593 . S
C285 C30 1.563 . S
C315 C43 0.977 . S
C320 N208 1.005 1_655 S
C350 C161 2.270 . S
C345 C4 2.239 . S
C380 N118 1.670 . S
C375 C22 1.708 . S
C410 C195 1.550 . S
C405 C34 1.545 . S
C440 N170 0.803 . S
C435 C48 0.804 . S
C465 C8 1.879 . S
C470 C210 1.886 . S
C500 C144 1.740 . S
C495 C35 1.728 . S
C525 C47 1.488 . S
C530 C105 1.495 1_655 S
C555 C17 1.151 . S
C560 C191 1.162 . S
C590 C131 2.189 1_655 S
C585 C60 2.171 . S
C615 C74 1.379 . S
C620 N148 1.361 . S
C645 C82 1.325 . S
C650 C165 1.342 . S
C675 C100 1.559 . S
C680 N200 1.502 . S
C705 C61 2.700 . S
C710 C150 2.721 . S
C740 N110 1.203 . S
C735 C73 1.227 . S
C770 C204 1.995 . S
C765 C87 1.989 . S
C800 N178 0.572 . S
C795 C95 0.604 . S
C825 C56 1.852 . S
C830 C221 1.936 . S
C860 C135 1.747 . S
C855 C86 1.734 . S
C890 C114 1.401 . S
C885 C99 1.384 . S
C915 C69 1.288 . S
C920 C180 1.311 . S
