# Generated by pormake.
# Topology pyr, (3,6)-cn, num edge types: 1
# Building blocks:
#     Node 0, Type 0, BuildingBlock: CUQRIR_clean_linker_1, # of connection points: 3
#     Node 1, Type 0, BuildingBlock: CUQRIR_clean_linker_1, # of connection points: 3
#     Node 2, Type 0, BuildingBlock: CUQRIR_clean_linker_1, # of connection points: 3
#     Node 3, Type 0, BuildingBlock: CUQRIR_clean_linker_1, # of connection points: 3
#     Node 4, Type 0, BuildingBlock: CUQRIR_clean_linker_1, # of connection points: 3
#     Node 5, Type 0, BuildingBlock: CUQRIR_clean_linker_1, # of connection points: 3
#     Node 6, Type 0, BuildingBlock: CUQRIR_clean_linker_1, # of connection points: 3
#     Node 7, Type 0, BuildingBlock: CUQRIR_clean_linker_1, # of connection points: 3
#     Node 8, Type 1, BuildingBlock: PAMTUU_clean_sbu_0, # of connection points: 6
#     Node 9, Type 1, BuildingBlock: PAMTUU_clean_sbu_0, # of connection points: 6
#     Node 10, Type 1, BuildingBlock: PAMTUU_clean_sbu_0, # of connection points: 6
#     Node 11, Type 1, BuildingBlock: PAMTUU_clean_sbu_0, # of connection points: 6
#     Edge 12, Type (0, 1), BuildingBlock: TEMPAE_clean_linker_10, # of connection points: 2
#     Edge 13, Type (0, 1), BuildingBlock: TEMPAE_clean_linker_10, # of connection points: 2
#     Edge 14, Type (0, 1), BuildingBlock: TEMPAE_clean_linker_10, # of connection points: 2
#     Edge 15, Type (0, 1), BuildingBlock: TEMPAE_clean_linker_10, # of connection points: 2
#     Edge 16, Type (0, 1), BuildingBlock: TEMPAE_clean_linker_10, # of connection points: 2
#     Edge 17, Type (0, 1), BuildingBlock: TEMPAE_clean_linker_10, # of connection points: 2
#     Edge 18, Type (0, 1), BuildingBlock: TEMPAE_clean_linker_10, # of connection points: 2
#     Edge 19, Type (0, 1), BuildingBlock: TEMPAE_clean_linker_10, # of connection points: 2
#     Edge 20, Type (0, 1), BuildingBlock: TEMPAE_clean_linker_10, # of connection points: 2
#     Edge 21, Type (0, 1), BuildingBlock: TEMPAE_clean_linker_10, # of connection points: 2
#     Edge 22, Type (0, 1), BuildingBlock: TEMPAE_clean_linker_10, # of connection points: 2
#     Edge 23, Type (0, 1), BuildingBlock: TEMPAE_clean_linker_10, # of connection points: 2
#     Edge 24, Type (0, 1), BuildingBlock: TEMPAE_clean_linker_10, # of connection points: 2
#     Edge 25, Type (0, 1), BuildingBlock: TEMPAE_clean_linker_10, # of connection points: 2
#     Edge 26, Type (0, 1), BuildingBlock: TEMPAE_clean_linker_10, # of connection points: 2
#     Edge 27, Type (0, 1), BuildingBlock: TEMPAE_clean_linker_10, # of connection points: 2
#     Edge 28, Type (0, 1), BuildingBlock: TEMPAE_clean_linker_10, # of connection points: 2
#     Edge 29, Type (0, 1), BuildingBlock: TEMPAE_clean_linker_10, # of connection points: 2
#     Edge 30, Type (0, 1), BuildingBlock: TEMPAE_clean_linker_10, # of connection points: 2
#     Edge 31, Type (0, 1), BuildingBlock: TEMPAE_clean_linker_10, # of connection points: 2
#     Edge 32, Type (0, 1), BuildingBlock: TEMPAE_clean_linker_10, # of connection points: 2
#     Edge 33, Type (0, 1), BuildingBlock: TEMPAE_clean_linker_10, # of connection points: 2
#     Edge 34, Type (0, 1), BuildingBlock: TEMPAE_clean_linker_10, # of connection points: 2
#     Edge 35, Type (0, 1), BuildingBlock: TEMPAE_clean_linker_10, # of connection points: 2
# Relax obj value: 0.192
# Max RMSD: 0.250
# Mean RMSD: 0.164
data_MOF--net-pyr--node1-PAMTUU_clean_sbu_0--node2-CUQRIR_clean_linker_1--edge1-TEMPAE_clean_linker_10
_symmetry_space_group_name_H-M    P1
_symmetry_Int_Tables_number       1
_symmetry_cell_setting            triclinic
loop_
_symmetry_equiv_pos_as_xyz
'x, y, z'
_cell_length_a     35.84996
_cell_length_b     36.83635
_cell_length_c     34.442608
_cell_angle_alpha  88.83445
_cell_angle_beta   89.966949
_cell_angle_gamma 105.60298
loop_
_atom_site_label
_atom_site_type_symbol
_atom_site_fract_x
_atom_site_fract_y
_atom_site_fract_z
_atom_type_partial_charge
C0 C 0.3461 0.3547 0.2235 0.0
N1 N 0.36414 0.32837 0.23481 0.0
N2 N 0.345 0.35781 0.18433 0.0
C3 C 0.32411 0.3733 0.25052 0.0
C4 C 0.36445 0.33327 0.17209 0.0
N5 N 0.3763 0.31562 0.20267 0.0
C6 C 0.36643 0.32219 0.13049 0.0
H7 H 0.29267 0.35911 0.24865 0.0
H8 H 0.32845 0.40326 0.24161 0.0
H9 H 0.33367 0.37184 0.28102 0.0
H10 H 0.35244 0.33861 0.11066 0.0
H11 H 0.35214 0.29163 0.12777 0.0
H12 H 0.39711 0.32709 0.12152 0.0
C13 C 0.15314 0.79461 0.73596 0.0
N14 N 0.1506 0.82602 0.75438 0.0
N15 N 0.17414 0.77567 0.75686 0.0
C16 C 0.13585 0.78248 0.69696 0.0
C17 C 0.18317 0.79617 0.78941 0.0
N18 N 0.16881 0.82662 0.78799 0.0
C19 C 0.21185 0.79018 0.81922 0.0
H20 H 0.12865 0.75133 0.69495 0.0
H21 H 0.15703 0.79484 0.67362 0.0
H22 H 0.10939 0.79213 0.6922 0.0
H23 H 0.24131 0.79805 0.80613 0.0
H24 H 0.20488 0.76005 0.82826 0.0
H25 H 0.21189 0.80724 0.84539 0.0
C26 C 0.62778 0.38665 0.88648 0.0
N27 N 0.65155 0.3824 0.91607 0.0
N28 N 0.64295 0.41924 0.86583 0.0
C29 C 0.59056 0.35811 0.87676 0.0
C30 C 0.6769 0.4346 0.8842 0.0
N31 N 0.68227 0.41229 0.9144 0.0
C32 C 0.70422 0.47229 0.87369 0.0
H33 H 0.59189 0.32919 0.8849 0.0
H34 H 0.5841 0.35944 0.84535 0.0
H35 H 0.56662 0.3643 0.89348 0.0
H36 H 0.71966 0.48603 0.89965 0.0
H37 H 0.68851 0.49128 0.85988 0.0
H38 H 0.72617 0.46801 0.85283 0.0
C39 C 0.84623 0.70111 0.37373 0.0
N40 N 0.87991 0.72648 0.36215 0.0
N41 N 0.83071 0.71288 0.40551 0.0
C42 C 0.82957 0.66347 0.35541 0.0
C43 C 0.8562 0.74639 0.41319 0.0
N44 N 0.88625 0.75485 0.38736 0.0
C45 C 0.85092 0.77184 0.4453 0.0
H46 H 0.81033 0.66695 0.33121 0.0
H47 H 0.81223 0.64277 0.37678 0.0
H48 H 0.85287 0.65218 0.34353 0.0
H49 H 0.81994 0.76672 0.45327 0.0
H50 H 0.86254 0.80196 0.43673 0.0
H51 H 0.867 0.76623 0.47125 0.0
C52 C 0.66001 0.80347 0.92639 0.0
N53 N 0.68152 0.79639 0.8967 0.0
N54 N 0.63745 0.82562 0.91437 0.0
C55 C 0.66647 0.79493 0.96831 0.0
C56 C 0.64597 0.8314 0.8761 0.0
N57 N 0.6733 0.81433 0.86542 0.0
C58 C 0.63153 0.85837 0.85068 0.0
H59 H 0.64071 0.79501 0.98616 0.0
H60 H 0.69174 0.81688 0.97914 0.0
H61 H 0.67292 0.76719 0.9714 0.0
H62 H 0.64863 0.88766 0.85638 0.0
H63 H 0.6008 0.85624 0.85778 0.0
H64 H 0.63432 0.85248 0.8195 0.0
C65 C 0.88746 0.34644 0.47634 0.0
N66 N 0.90037 0.32622 0.44935 0.0
N67 N 0.86294 0.36467 0.46026 0.0
C68 C 0.89736 0.34782 0.51874 0.0
C69 C 0.86159 0.35507 0.42249 0.0
N70 N 0.88422 0.33176 0.41577 0.0
C71 C 0.83229 0.36232 0.39399 0.0
H72 H 0.87503 0.32596 0.53483 0.0
H73 H 0.89721 0.37565 0.53043 0.0
H74 H 0.92617 0.34277 0.52357 0.0
H75 H 0.84666 0.37272 0.36586 0.0
H76 H 0.81788 0.38337 0.40461 0.0
H77 H 0.80994 0.3355 0.38869 0.0
C78 C 0.34266 0.69246 0.27279 0.0
N79 N 0.37589 0.71744 0.28483 0.0
N80 N 0.32402 0.70852 0.24612 0.0
C81 C 0.3269 0.65287 0.28859 0.0
C82 C 0.34653 0.74423 0.24235 0.0
N83 N 0.3779 0.75007 0.26589 0.0
C84 C 0.33861 0.77328 0.21442 0.0
H85 H 0.34055 0.63378 0.27279 0.0
H86 H 0.2951 0.64289 0.28449 0.0
H87 H 0.33349 0.65122 0.31996 0.0
H88 H 0.3293 0.79482 0.23106 0.0
H89 H 0.31565 0.76056 0.19337 0.0
H90 H 0.36541 0.78783 0.19823 0.0
C91 C 0.1236 0.38532 0.76843 0.0
N92 N 0.14711 0.37945 0.73928 0.0
N93 N 0.14033 0.41734 0.78816 0.0
C94 C 0.08541 0.35831 0.77946 0.0
C95 C 0.17507 0.43064 0.76968 0.0
N96 N 0.17941 0.40777 0.74038 0.0
C97 C 0.20413 0.46724 0.77886 0.0
H98 H 0.06219 0.36532 0.762 0.0
H99 H 0.0788 0.36043 0.81067 0.0
H100 H 0.08546 0.32886 0.77336 0.0
H101 H 0.22535 0.46151 0.79993 0.0
H102 H 0.1898 0.48733 0.79186 0.0
H103 H 0.22022 0.48042 0.75238 0.0
Tb104 Tb 0.08311 0.07453 0.5313 0.0
Tb105 Tb 0.99863 0.05714 0.57443 0.0
C106 C 1.01204 1.00282 0.50803 0.0
C107 C 0.18294 0.111 0.48686 0.0
C108 C 0.24697 0.16362 0.4528 0.0
C109 C 0.24983 0.12782 0.46492 0.0
C110 C 0.21803 0.10174 0.48178 0.0
C111 C 0.18031 0.14719 0.47647 0.0
C112 C 0.21212 0.17334 0.45951 0.0
C113 C 0.14935 0.08192 0.50177 0.0
O114 O 0.05496 0.11195 0.49995 0.0
O115 O 0.99563 0.10004 0.53182 0.0
O116 O 0.03721 0.10657 0.60333 0.0
O117 O 0.08687 0.12807 0.55922 0.0
O118 O 0.93785 0.04452 0.57696 0.0
O119 O 0.97229 0.05242 0.6292 0.0
O120 O 0.02537 1.01355 0.59238 0.0
O121 O 0.08674 0.05081 0.58917 0.0
O122 O 0.04955 1.01967 0.50872 0.0
O123 O 0.98713 1.01543 0.52835 0.0
C124 C 0.02065 0.11783 0.50537 0.0
O125 O 0.14276 0.08196 0.53893 0.0
O126 O 0.11752 0.07605 0.48167 0.0
C127 C 0.06758 0.13317 0.59025 0.0
C128 C 0.91226 1.00653 0.63278 0.0
C129 C 0.86405 0.94151 0.66936 0.0
C130 C 0.88872 0.96968 0.69137 0.0
C131 C 0.91237 1.00187 0.67331 0.0
C132 C 0.88798 0.97816 0.61054 0.0
C133 C 0.86392 0.94598 0.62873 0.0
C134 C 0.93755 0.04121 0.61478 0.0
C135 C 0.0614 1.02097 0.60311 0.0
H136 H 0.27635 0.11966 0.46048 0.0
H137 H 0.22054 0.07394 0.49001 0.0
H138 H 0.1534 0.1548 0.48044 0.0
H139 H 0.20882 0.20051 0.45002 0.0
H140 H 0.8888 0.96746 0.72278 0.0
H141 H 0.93055 1.0234 0.69117 0.0
H142 H 0.88727 0.9809 0.5792 0.0
H143 H 0.84506 0.92472 0.61113 0.0
Tb144 Tb 0.57023 0.077 0.13749 0.0
Tb145 Tb 0.49845 0.05769 0.07527 0.0
C146 C 0.56866 1.02804 0.06581 0.0
C147 C 0.66112 0.11634 0.1961 0.0
C148 C 0.72582 0.16995 0.22528 0.0
C149 C 0.72192 0.13121 0.23079 0.0
C150 C 0.68987 0.1047 0.21631 0.0
C151 C 0.66501 0.15489 0.18966 0.0
C152 C 0.69717 0.18159 0.2043 0.0
C153 C 0.62788 0.08732 0.18186 0.0
O154 O 0.58787 0.12163 0.0924 0.0
O155 O 0.53004 0.11579 0.06039 0.0
O156 O 0.47741 0.07877 0.1268 0.0
O157 O 0.53511 0.11512 0.15025 0.0
O158 O 0.47454 1.02663 1.02694 0.0
O159 O 0.44813 0.06766 0.05069 0.0
O160 O 0.48869 1.00644 0.11239 0.0
O161 O 0.52669 1.03026 0.16493 0.0
O162 O 0.57188 1.02856 0.10351 0.0
O163 O 0.5504 0.05002 0.04867 0.0
C164 C 0.56619 0.13444 0.06741 0.0
O165 O 0.59347 0.08844 0.19331 0.0
O166 O 0.62879 0.07955 0.14517 0.0
C167 C 0.49728 0.10744 0.14684 0.0
C168 C 0.40737 1.01732 1.01452 0.0
C169 C 0.33696 0.97732 0.9803 0.0
C170 C 0.33893 1.00997 1.00161 0.0
C171 C 0.37385 1.02989 1.01838 0.0
C172 C 0.40486 0.98372 0.99488 0.0
C173 C 0.37019 0.96403 0.97799 0.0
C174 C 0.44585 0.04203 1.02456 0.0
C175 C 0.50051 1.00288 0.14833 0.0
H176 H 0.74304 0.12132 0.2474 0.0
H177 H 0.68727 0.07497 0.22134 0.0
H178 H 0.64313 0.16423 0.1737 0.0
H179 H 0.69953 0.21127 0.19946 0.0
H180 H 0.31381 1.02078 1.00434 0.0
H181 H 0.37498 0.05597 1.03288 0.0
H182 H 0.43024 0.97357 0.99066 0.0
H183 H 0.3702 0.9395 0.9612 0.0
Tb184 Tb 0.50375 0.5247 0.54652 0.0
Tb185 Tb 0.50352 0.59764 0.59717 0.0
C186 C 0.47333 0.5921 0.51186 0.0
C187 C 0.5473 0.45464 0.5097 0.0
C188 C 0.6161 0.43115 0.50805 0.0
C189 C 0.58499 0.41506 0.48322 0.0
C190 C 0.55095 0.42691 0.4839 0.0
C191 C 0.57772 0.46994 0.53521 0.0
C192 C 0.61181 0.4586 0.5342 0.0
C193 C 0.51314 0.46959 0.50913 0.0
O194 O 0.564 0.55784 0.55054 0.0
O195 O 0.55459 0.61596 0.55911 0.0
O196 O 0.54177 0.57006 0.62894 0.0
O197 O 0.51659 0.51074 0.60627 0.0
O198 O 0.50613 0.65516 0.60085 0.0
O199 O 0.50002 0.61976 0.65236 0.0
O200 O 0.45149 0.55381 0.61494 0.0
O201 O 0.44254 0.51413 0.56316 0.0
O202 O 0.49269 0.5671 0.50528 0.0
O203 O 0.46612 0.60035 0.54753 0.0
C204 C 0.57639 0.5947 0.54725 0.0
O205 O 0.49383 0.46601 0.54164 0.0
O206 O 0.51935 0.50356 0.4945 0.0
C207 C 0.5366 0.53338 0.63236 0.0
C208 C 0.46322 0.66346 0.65017 0.0
C209 C 0.39384 0.67773 0.67593 0.0
C210 C 0.42312 0.67581 0.70248 0.0
C211 C 0.45751 0.66886 0.68967 0.0
C212 C 0.43418 0.66558 0.62352 0.0
C213 C 0.39999 0.6729 0.63624 0.0
C214 C 0.49763 0.65193 0.63781 0.0
C215 C 0.42973 0.52561 0.59536 0.0
H216 H 0.58694 0.3934 0.46314 0.0
H217 H 0.52774 0.41475 0.46404 0.0
H218 H 0.57543 0.49128 0.55551 0.0
H219 H 0.63516 0.47217 0.5533 0.0
H220 H 0.41919 0.67891 0.73329 0.0
H221 H 0.47928 0.66676 0.71077 0.0
H222 H 0.43755 0.66105 0.59289 0.0
H223 H 0.37842 0.67488 0.61489 0.0
Tb224 Tb 1.00698 0.6064 0.04645 0.0
Tb225 Tb 0.99978 0.53184 0.10152 0.0
C226 C 0.036 0.53873 1.01591 0.0
C227 C 0.97443 0.67624 0.98814 0.0
C228 C 0.91265 0.70443 0.96313 0.0
C229 C 0.95045 0.72056 0.94899 0.0
C230 C 0.98116 0.70655 0.96148 0.0
C231 C 0.93676 0.65987 1.00206 0.0
C232 C 0.90615 0.67382 0.98967 0.0
C233 C 1.00633 0.66115 1.00119 0.0
O234 O 0.95222 0.56542 1.03166 0.0
O235 O 0.94006 0.52664 0.08574 0.0
O236 O 0.9846 0.57187 0.14149 0.0
O237 O 0.97704 0.61821 0.09855 0.0
O238 O 0.9832 0.47275 0.10765 0.0
O239 O 1.01315 0.50745 0.15353 0.0
O240 O 0.06079 0.56235 0.10176 0.0
O241 O 0.05931 0.62171 0.08165 0.0
O242 O 0.04378 0.57568 1.01785 0.0
O243 O 1.01334 0.5172 1.04228 0.0
C244 C 0.92886 0.53845 0.05269 0.0
O245 O 1.01441 0.6646 1.03798 0.0
O246 O 1.00461 0.62735 0.9896 0.0
C247 C 0.97541 0.60376 0.13412 0.0
C248 C 0.03431 0.45507 0.13778 0.0
C249 C 0.09926 0.42573 0.13752 0.0
C250 C 0.0686 0.41174 0.16417 0.0
C251 C 0.0364 0.42647 0.16439 0.0
C252 C 0.06419 0.4682 0.11046 0.0
C253 C 0.09635 0.45384 0.1104 0.0
C254 C 1.00295 0.47366 0.13953 0.0
C255 C 0.07667 0.59883 0.09926 0.0
H256 H 0.95636 0.74435 0.92876 0.0
H257 H 1.0101 0.71941 0.95042 0.0
H258 H 0.93105 0.63623 1.02249 0.0
H259 H 0.87729 0.66042 1.00063 0.0
H260 H 0.06968 0.38974 0.18512 0.0
H261 H 1.01359 0.41607 0.18571 0.0
H262 H 0.06317 0.49042 0.08976 0.0
H263 H 0.11955 0.46582 0.08994 0.0
C264 C 0.38479 0.30305 0.29575 0.0
C265 C 0.35548 0.30698 0.27059 0.0
C266 C 0.37556 0.28103 0.33011 0.0
C267 C 0.33626 0.2626 0.33875 0.0
C268 C 0.30679 0.2665 0.31296 0.0
C269 C 0.31685 0.28849 0.27922 0.0
C270 C 0.40764 0.27711 0.3568 0.0
C271 C 0.26451 0.24706 0.32063 0.0
C272 C 0.29528 0.17467 0.39859 0.0
C273 C 0.27836 0.18914 0.42934 0.0
C274 C 0.31855 0.19877 0.37085 0.0
C275 C 0.32486 0.2382 0.37394 0.0
C276 C 0.31145 0.25298 0.40718 0.0
C277 C 0.28815 0.22822 0.43448 0.0
C278 C 0.33225 0.18175 0.33588 0.0
C279 C 0.31813 0.29488 0.41186 0.0
H280 H 0.41466 0.31705 0.28841 0.0
H281 H 0.29452 0.29084 0.25888 0.0
H282 H 0.40169 0.28444 0.38684 0.0
H283 H 0.40901 0.24738 0.35768 0.0
H284 H 0.43632 0.29534 0.34732 0.0
H285 H 0.24532 0.25357 0.29773 0.0
H286 H 0.26003 0.21607 0.32221 0.0
H287 H 0.25542 0.2558 0.34896 0.0
H288 H 0.28785 0.1445 0.39433 0.0
H289 H 0.27588 0.2395 0.45872 0.0
H290 H 0.36127 0.19869 0.32601 0.0
H291 H 0.31174 0.18124 0.31164 0.0
H292 H 0.33342 0.15236 0.34204 0.0
H293 H 0.34802 0.31034 0.40296 0.0
H294 H 0.31316 0.30199 0.44228 0.0
H295 H 0.29783 0.30495 0.39284 0.0
C296 C 0.16333 0.86239 0.84593 0.0
C297 C 0.1827 0.85914 0.8115 0.0
C298 C 0.18198 0.88702 0.87485 0.0
C299 C 0.22115 0.90772 0.86931 0.0
C300 C 0.23949 0.90678 0.83301 0.0
C301 C 0.21978 0.88265 0.80437 0.0
C302 C 0.16091 0.88831 0.91249 0.0
C303 C 0.28128 0.92805 0.82585 0.0
C304 C 0.28152 0.98053 0.93673 0.0
C305 C 0.30196 0.95884 0.95743 0.0
C306 C 0.2528 0.96387 0.90987 0.0
C307 C 0.24508 0.92484 0.90291 0.0
C308 C 0.26381 0.90247 0.92547 0.0
C309 C 0.29153 0.91966 0.95282 0.0
C310 C 0.2325 0.98844 0.88735 0.0
C311 C 0.2566 0.86071 0.91891 0.0
H312 H 0.13466 0.84379 0.85121 0.0
H313 H 0.23453 0.87946 0.77769 0.0
H314 H 0.17002 0.87023 0.93467 0.0
H315 H 0.16809 0.91742 0.92362 0.0
H316 H 0.12902 0.8779 0.90902 0.0
H317 H 0.28984 0.92746 0.79491 0.0
H318 H 0.28661 0.95784 0.83445 0.0
H319 H 0.30025 0.91522 0.84388 0.0
H320 H 0.2893 1.01085 0.93987 0.0
H321 H 0.3063 0.9025 0.96947 0.0
H322 H 0.20128 0.97398 0.88401 0.0
H323 H 0.24536 0.99432 0.85783 0.0
H324 H 0.23538 1.01581 0.90166 0.0
H325 H 0.22519 0.84641 0.92083 0.0
H326 H 0.27201 0.84703 0.94025 0.0
H327 H 0.2665 0.85621 0.88929 0.0
C328 C 0.58967 0.43907 0.83266 0.0
C329 C 0.62722 0.4343 0.83201 0.0
C330 C 0.57475 0.45509 0.80053 0.0
C331 C 0.59784 0.46684 0.76665 0.0
C332 C 0.63571 0.46176 0.76584 0.0
C333 C 0.6498 0.44557 0.79832 0.0
C334 C 0.53426 0.4597 0.80296 0.0
C335 C 0.66151 0.47356 0.73061 0.0
C336 C 0.54805 0.47755 0.66987 0.0
C337 C 0.55301 0.51672 0.6665 0.0
C338 C 0.56237 0.46111 0.70203 0.0
C339 C 0.58239 0.48415 0.73205 0.0
C340 C 0.58772 0.52373 0.72877 0.0
C341 C 0.57306 0.53945 0.69624 0.0
C342 C 0.5559 0.41889 0.70392 0.0
C343 C 0.60892 0.54956 0.75977 0.0
H344 H 0.5722 0.4308 0.85867 0.0
H345 H 0.67866 0.44162 0.79743 0.0
H346 H 0.53515 0.48993 0.79949 0.0
H347 H 0.51644 0.44453 0.77896 0.0
H348 H 0.51978 0.44885 0.83101 0.0
H349 H 0.69022 0.46792 0.73448 0.0
H350 H 0.64737 0.4583 0.7048 0.0
H351 H 0.66602 0.50412 0.7244 0.0
H352 H 0.53276 0.45946 0.64729 0.0
H353 H 0.57718 0.56968 0.69426 0.0
H354 H 0.53938 0.40707 0.73063 0.0
H355 H 0.58414 0.41197 0.70551 0.0
H356 H 0.53983 0.40479 0.67838 0.0
H357 H 0.59393 0.54172 0.78813 0.0
H358 H 0.6109 0.57965 0.75307 0.0
H359 H 0.63866 0.54633 0.76306 0.0
C360 C 0.93727 0.71321 0.32998 0.0
C361 C 0.90167 0.72225 0.32734 0.0
C362 C 0.95238 0.69709 0.29832 0.0
C363 C 0.93092 0.68839 0.26327 0.0
C364 C 0.89582 0.69912 0.26009 0.0
C365 C 0.88222 0.7163 0.29155 0.0
C366 C 0.99057 0.68778 0.30314 0.0
C367 C 0.87095 0.68997 0.22438 0.0
C368 C 0.9739 0.66485 0.16661 0.0
C369 C 0.96396 0.62513 0.16733 0.0
C370 C 0.96481 0.68559 0.19792 0.0
C371 C 0.94373 0.66658 0.23076 0.0
C372 C 0.93325 0.62642 0.23142 0.0
C373 C 0.94409 0.6064 0.20037 0.0
C374 C 0.97814 0.72807 0.19595 0.0
C375 C 0.90979 0.60443 0.26473 0.0
H376 H 0.95224 0.71674 0.35754 0.0
H377 H 0.85436 0.72242 0.28937 0.0
H378 H 0.98543 0.65686 0.30702 0.0
H379 H 1.00888 0.69654 0.27679 0.0
H380 H 1.0067 0.70168 0.32875 0.0
H381 H 0.84521 0.70127 0.2256 0.0
H382 H 0.88799 0.70158 0.19794 0.0
H383 H 0.86088 0.65892 0.22137 0.0
H384 H 0.98974 0.67993 0.14174 0.0
H385 H 0.93613 0.57586 0.20158 0.0
H386 H 0.99457 0.73886 0.22254 0.0
H387 H 0.95274 0.73982 0.19479 0.0
H388 H 0.99678 0.73876 0.17017 0.0
H389 H 0.92599 0.61118 0.29224 0.0
H390 H 0.90271 0.57349 0.26061 0.0
H391 H 0.88236 0.61265 0.26797 0.0
C392 C 0.42988 0.29085 0.1816 0.0
C393 C 0.39417 0.28502 0.20051 0.0
C394 C 0.44656 0.26098 0.17614 0.0
C395 C 0.42758 0.22461 0.19119 0.0
C396 C 0.39218 0.21891 0.21175 0.0
C397 C 0.37543 0.24902 0.21535 0.0
C398 C 0.48365 0.26803 0.15288 0.0
C399 C 0.3717 0.18088 0.2293 0.0
C400 C 0.44686 0.14179 0.13912 0.0
C401 C 0.47706 0.13458 0.16111 0.0
C402 C 0.43021 0.17071 0.14895 0.0
C403 C 0.44314 0.19209 0.18241 0.0
C404 C 0.47232 0.18368 0.20586 0.0
C405 C 0.48957 0.15547 0.19445 0.0
C406 C 0.4 0.17946 0.12249 0.0
C407 C 0.48586 0.20499 0.24247 0.0
H408 H 0.44423 0.31878 0.17028 0.0
H409 H 0.34726 0.24413 0.22894 0.0
H410 H 0.50619 0.25968 0.17016 0.0
H411 H 0.47856 0.2505 0.12657 0.0
H412 H 0.49497 0.29807 0.14366 0.0
H413 H 0.34468 0.18132 0.24485 0.0
H414 H 0.3643 0.15948 0.20634 0.0
H415 H 0.39121 0.17169 0.25002 0.0
H416 H 0.43753 0.12603 0.113 0.0
H417 H 0.51288 0.14983 0.21149 0.0
H418 H 0.41057 0.20873 0.11073 0.0
H419 H 0.37299 0.17772 0.139 0.0
H420 H 0.39294 0.15994 0.09776 0.0
H421 H 0.50156 0.23458 0.23495 0.0
H422 H 0.50545 0.19221 0.25971 0.0
H423 H 0.46066 0.20578 0.26084 0.0
C424 C 0.15461 0.8718 0.70059 0.0
C425 C 0.13961 0.85748 0.73699 0.0
C426 C 0.14195 0.90018 0.68153 0.0
C427 C 0.11471 0.9157 0.70008 0.0
C428 C 0.10132 0.90301 0.73801 0.0
C429 C 0.11371 0.87366 0.75593 0.0
C430 C 0.1567 0.91255 0.64096 0.0
C431 C 0.07323 0.91972 0.7592 0.0
C432 C 0.10653 1.00745 0.65331 0.0
C433 C 0.07366 0.99481 0.63013 0.0
C434 C 0.11904 0.98234 0.67803 0.0
C435 C 0.09886 0.94358 0.67856 0.0
C436 C 0.06526 0.93086 0.65566 0.0
C437 C 0.05277 0.95674 0.63212 0.0
C438 C 0.15434 0.99711 0.70287 0.0
C439 C 0.04346 0.88963 0.65466 0.0
H440 H 0.17592 0.86029 0.68677 0.0
H441 H 0.10257 0.86275 0.7843 0.0
H442 H 0.13207 0.90701 0.62041 0.0
H443 H 0.17068 0.94331 0.63986 0.0
H444 H 0.17794 0.89768 0.63079 0.0
H445 H 0.06914 0.90983 0.78999 0.0
H446 H 0.08358 0.95096 0.75834 0.0
H447 H 0.0447 0.91178 0.74461 0.0
H448 H 0.12245 1.03699 0.65216 0.0
H449 H 0.0274 0.94687 0.61411 0.0
H450 H 0.17858 0.98659 0.69209 0.0
H451 H 0.14829 0.98668 0.7333 0.0
H452 H 0.16388 1.02842 0.70266 0.0
H453 H 0.0626 0.87321 0.64293 0.0
H454 H 1.01708 0.88456 0.63642 0.0
H455 H 0.0348 0.8786 0.68445 0.0
C456 C 0.71199 0.44175 0.97444 0.0
C457 C 0.71437 0.42135 0.94108 0.0
C458 C 0.74544 0.4593 0.99565 0.0
C459 C 0.78224 0.45626 0.98327 0.0
C460 C 0.78432 0.43395 0.95062 0.0
C461 C 0.75045 0.41714 0.92975 0.0
C462 C 0.74162 0.48293 1.02992 0.0
C463 C 0.82262 0.42937 0.93651 0.0
C464 C 0.87397 0.53436 1.00562 0.0
C465 C 0.88989 0.51869 1.03693 0.0
C466 C 0.83865 0.51479 0.98865 0.0
C467 C 0.81873 0.47824 1.00276 0.0
C468 C 0.83435 0.46249 1.03471 0.0
C469 C 0.86944 0.48292 0.05151 0.0
C470 C 0.82294 0.53309 0.95511 0.0
C471 C 0.8145 0.42356 0.05051 0.0
H472 H 0.68418 0.44577 0.9825 0.0
H473 H 0.75228 0.40206 0.90343 0.0
H474 H 0.75673 0.47503 0.05551 0.0
H475 H 0.75561 0.51306 1.02288 0.0
H476 H 0.71088 0.47989 1.03788 0.0
H477 H 0.81897 0.40832 0.91319 0.0
H478 H 0.84076 0.45682 0.92505 0.0
H479 H 0.8386 0.4205 0.9609 0.0
H480 H 0.88928 0.56196 0.99412 0.0
H481 H 0.88144 0.47027 0.07545 0.0
H482 H 0.79276 0.53369 0.96143 0.0
H483 H 0.82219 0.51629 0.92861 0.0
H484 H 0.84065 0.56237 0.94888 0.0
H485 H 0.78416 0.42187 0.05878 0.0
H486 H 0.82955 0.4157 0.07623 0.0
H487 H 0.8134 0.40249 1.02766 0.0
C488 C 0.79477 0.68845 0.46649 0.0
C489 C 0.79493 0.69455 0.42612 0.0
C490 C 0.76005 0.67221 0.48717 0.0
C491 C 0.72432 0.66145 0.46709 0.0
C492 C 0.72446 0.66711 0.42617 0.0
C493 C 0.75963 0.68358 0.40628 0.0
C494 C 0.76161 0.66681 0.53062 0.0
C495 C 0.68734 0.65605 0.40337 0.0
C496 C 0.63779 0.5893 0.51457 0.0
C497 C 0.61515 0.61214 0.52857 0.0
C498 C 0.67323 0.60488 0.49488 0.0
C499 C 0.68687 0.64446 0.48884 0.0
C500 C 0.66445 0.66772 0.50332 0.0
C501 C 0.62902 0.65137 0.52285 0.0
C502 C 0.69585 0.57879 0.48008 0.0
C503 C 0.67772 0.71 0.4978 0.0
H504 H 0.822 0.69655 0.4819 0.0
H505 H 0.75952 0.68852 0.37518 0.0
H506 H 0.7434 0.68261 0.54515 0.0
H507 H 0.74962 0.63659 0.53867 0.0
H508 H 0.79157 0.67651 0.54197 0.0
H509 H 0.6923 0.66158 0.37169 0.0
H510 H 0.67292 0.62564 0.40823 0.0
H511 H 0.6671 0.67195 0.41362 0.0
H512 H 0.62759 0.55897 0.51853 0.0
H513 H 0.61195 0.66943 0.53328 0.0
H514 H 0.72546 0.5865 0.49238 0.0
H515 H 0.69893 0.58186 0.44804 0.0
H516 H 0.68175 0.54875 0.48763 0.0
H517 H 0.70692 0.72108 0.51048 0.0
H518 H 0.6576 0.72432 0.51144 0.0
H519 H 0.68012 0.71745 0.46635 0.0
C520 C 0.31336 0.40517 0.16031 0.0
C521 C 0.31375 0.36747 0.16439 0.0
C522 C 0.27911 0.4146 0.15037 0.0
C523 C 0.2446 0.38547 0.14502 0.0
C524 C 0.24566 0.34735 0.14658 0.0
C525 C 0.28033 0.33884 0.15622 0.0
C526 C 0.27922 0.4556 0.14845 0.0
C527 C 0.20953 0.31544 0.14144 0.0
C528 C 0.15112 0.40683 0.17511 0.0
C529 C 0.13521 0.41292 0.13917 0.0
C530 C 0.18647 0.39745 0.17728 0.0
C531 C 0.20673 0.39458 0.14266 0.0
C532 C 0.19073 0.40022 0.10626 0.0
C533 C 0.15501 0.40902 0.10493 0.0
C534 C 0.20242 0.39115 0.2167 0.0
C535 C 0.2116 0.3975 0.06879 0.0
H536 H 0.33927 0.42706 0.1672 0.0
H537 H 0.28078 0.3097 0.16026 0.0
H538 H 0.26362 0.46155 0.12229 0.0
H539 H 0.26386 0.46222 0.17422 0.0
H540 H 0.30909 0.47464 0.14788 0.0
H541 H 0.21622 0.28787 0.1385 0.0
H542 H 0.19024 0.31362 0.16703 0.0
H543 H 0.19327 0.32061 0.11546 0.0
H544 H 0.13647 0.41038 0.20172 0.0
H545 H 0.14268 0.41308 0.07698 0.0
H546 H 0.23062 0.41222 0.22112 0.0
H547 H 0.20773 0.36285 0.21843 0.0
H548 H 0.18252 0.39335 0.24074 0.0
H549 H 0.24042 0.41837 0.06837 0.0
H550 H 0.1952 0.40264 1.04284 0.0
H551 H 0.21662 0.36917 0.0667 0.0
C552 C 0.66441 0.32203 0.93624 0.0
C553 C 0.64564 0.35022 0.94261 0.0
C554 C 0.65427 0.28759 0.95771 0.0
C555 C 0.62493 0.2812 0.98678 0.0
C556 C 0.60712 0.31048 0.99431 0.0
C557 C 0.61732 0.3443 0.97185 0.0
C558 C 0.67369 0.25731 0.94792 0.0
C559 C 0.57628 0.30562 1.02528 0.0
C560 C 0.5652 0.18023 1.01203 0.0
C561 C 0.58251 0.17158 0.04639 0.0
C562 C 0.57914 0.21524 0.99221 0.0
C563 C 0.61089 0.24316 1.00725 0.0
C564 C 0.62854 0.23467 1.04196 0.0
C565 C 0.61447 0.19902 0.06081 0.0
C566 C 0.55968 0.22235 0.95505 0.0
C567 C 0.66188 0.26357 0.05964 0.0
H568 H 0.68582 0.32636 0.91317 0.0
H569 H 0.6025 0.36592 0.97645 0.0
H570 H 0.68554 0.2472 0.97452 0.0
H571 H 0.65202 0.2328 0.93579 0.0
H572 H 0.69755 0.26734 0.92643 0.0
H573 H 0.56806 0.33216 1.03031 0.0
H574 H 0.55003 0.28366 1.01659 0.0
H575 H 0.58648 0.29596 0.05304 0.0
H576 H 0.54068 0.1594 1.00031 0.0
H577 H 0.628 0.19298 0.08742 0.0
H578 H 0.58138 0.2303 0.93122 0.0
H579 H 0.5468 0.2463 0.95868 0.0
H580 H 0.53647 0.19733 0.94619 0.0
H581 H 0.68612 0.27234 1.03847 0.0
H582 H 0.67268 0.25276 0.08652 0.0
H583 H 0.65266 0.28913 0.0667 0.0
C584 C 0.94351 0.79204 0.42151 0.0
C585 C 0.91816 0.78889 0.38985 0.0
C586 C 0.96225 0.82734 0.43757 0.0
C587 C 0.95619 0.86111 0.42149 0.0
C588 C 0.93349 0.85837 0.38723 0.0
C589 C 0.91466 0.82252 0.37212 0.0
C590 C 0.98568 0.82801 0.47404 0.0
C591 C 0.9265 0.89315 0.36821 0.0
C592 C 0.96001 0.94319 0.49094 0.0
C593 C 0.99749 0.9672 0.48486 0.0
C594 C 0.94642 0.90909 0.47059 0.0
C595 C 0.97036 0.89832 0.44256 0.0
C596 C 1.00799 0.92272 0.43579 0.0
C597 C 0.02111 0.95639 0.45706 0.0
C598 C 0.90638 0.88418 0.4796 0.0
C599 C 0.03455 0.91319 0.40603 0.0
H600 H 0.94538 0.76635 0.43633 0.0
H601 H 0.89421 0.82061 0.3486 0.0
H602 H 1.01369 0.84997 0.47161 0.0
H603 H 0.9696 0.83519 0.499 0.0
H604 H 0.99154 0.80038 0.48042 0.0
H605 H 0.91375 0.88735 0.33884 0.0
H606 H 0.90626 0.90367 0.38641 0.0
H607 H 0.95393 0.91592 0.3657 0.0
H608 H 0.94131 0.95068 0.5123 0.0
H609 H 0.05003 0.97441 0.4517 0.0
H610 H 0.90824 0.85592 0.48972 0.0
H611 H 0.88856 0.88012 0.45291 0.0
H612 H 0.89131 0.89611 0.50223 0.0
H613 H 0.04122 0.88642 0.41453 0.0
H614 H 0.06221 0.93562 0.40274 0.0
H615 H 0.01998 0.90883 0.37742 0.0
C616 C 0.1996 0.71982 0.75968 0.0
C617 C 0.19735 0.75319 0.74089 0.0
C618 C 0.22813 0.70207 0.74906 0.0
C619 C 0.25443 0.71799 0.71863 0.0
C620 C 0.25038 0.75024 0.69786 0.0
C621 C 0.22221 0.76769 0.7096 0.0
C622 C 0.23172 0.66789 0.77205 0.0
C623 C 0.27747 0.76789 0.66493 0.0
C624 C 0.35803 0.71161 0.71845 0.0
C625 C 0.35727 0.68533 0.68936 0.0
C626 C 0.32422 0.7209 0.7297 0.0
C627 C 0.28882 0.70391 0.71103 0.0
C628 C 0.2875 0.67643 0.68262 0.0
C629 C 0.32171 0.66728 0.67228 0.0
C630 C 0.32675 0.75017 0.76041 0.0
C631 C 0.25035 0.65789 0.66195 0.0
H632 H 0.18026 0.70876 0.78386 0.0
H633 H 0.22108 0.79403 0.69574 0.0
H634 H 0.23542 0.64561 0.75239 0.0
H635 H 0.25785 0.67584 0.79058 0.0
H636 H 0.2061 0.65606 0.79105 0.0
H637 H 0.26754 0.79005 0.64894 0.0
H638 H 0.30677 0.78087 0.67658 0.0
H639 H 0.28015 0.74613 0.64411 0.0
H640 H 0.38533 0.726 0.73156 0.0
H641 H 0.32067 0.6463 0.6504 0.0
H642 H 0.30403 0.73969 0.78291 0.0
H643 H 0.32165 0.77604 0.747 0.0
H644 H 0.35546 0.75787 0.77478 0.0
H645 H 0.22657 0.64676 0.68322 0.0
H646 H 0.25331 0.63445 0.64345 0.0
H647 H 0.24171 0.67912 0.64327 0.0
C648 C 0.7202 0.86365 0.82888 0.0
C649 C 0.6993 0.82584 0.83297 0.0
C650 C 0.74669 0.87578 0.79851 0.0
C651 C 0.75296 0.84919 0.77188 0.0
C652 C 0.73254 0.81064 0.77639 0.0
C653 C 0.70586 0.79935 0.80718 0.0
C654 C 0.76811 0.91712 0.79514 0.0
C655 C 0.73901 0.78151 0.74893 0.0
C656 C 0.79676 0.90113 0.68059 0.0
C657 C 0.83624 0.90963 0.6896 0.0
C658 C 0.76897 0.87778 0.70532 0.0
C659 C 0.78111 0.86266 0.73969 0.0
C660 C 0.82109 0.8678 0.7466 0.0
C661 C 0.84824 0.8914 0.72147 0.0
C662 C 0.7266 0.87279 0.69684 0.0
C663 C 0.83525 0.85168 0.78261 0.0
H664 H 0.71608 0.88366 0.85 0.0
H665 H 0.69013 0.76997 0.81125 0.0
H666 H 0.79975 0.92068 0.79743 0.0
H667 H 0.76266 0.92869 0.76634 0.0
H668 H 0.75931 0.93406 0.81799 0.0
H669 H 0.72051 0.75278 0.75623 0.0
H670 H 0.7328 0.78902 0.71871 0.0
H671 H 0.76979 0.781 0.74973 0.0
H672 H 0.78735 0.91515 0.65598 0.0
H673 H 0.87885 0.89737 0.72804 0.0
H674 H 0.71531 0.89145 0.71583 0.0
H675 H 0.70955 0.84336 0.70314 0.0
H676 H 0.72185 0.88012 0.66612 0.0
H677 H 0.8325 0.86901 0.80789 0.0
H678 H 0.8661 0.85161 0.7798 0.0
H679 H 0.81755 0.82248 0.78893 0.0
C680 C 0.88532 0.31993 0.34592 0.0
C681 C 0.87771 0.30611 0.38404 0.0
C682 C 0.86817 0.29806 0.31448 0.0
C683 C 0.8431 0.26169 0.32179 0.0
C684 C 0.83909 0.24619 0.36003 0.0
C685 C 0.85637 0.26876 0.39079 0.0
C686 C 0.87377 0.31535 0.27411 0.0
C687 C 0.81313 0.20731 0.36911 0.0
C688 C 0.75046 0.227 0.26538 0.0
C689 C 0.75807 0.19763 0.24432 0.0
C690 C 0.77887 0.24957 0.28897 0.0
C691 C 0.81581 0.24261 0.29149 0.0
C692 C 0.82454 0.21473 0.26826 0.0
C693 C 0.79548 0.19246 0.24497 0.0
C694 C 0.76846 0.27923 0.31319 0.0
C695 C 0.86375 0.20692 0.26973 0.0
H696 H 0.90206 0.34889 0.34105 0.0
H697 H 0.85034 0.2584 0.42043 0.0
H698 H 0.8761 0.29422 0.2524 0.0
H699 H 0.8483 0.32565 0.26638 0.0
H700 H 0.90005 0.3396 0.2721 0.0
H701 H 0.81776 0.19746 0.39897 0.0
H702 H 0.7824 0.2078 0.36653 0.0
H703 H 0.81814 0.18663 0.34815 0.0
H704 H 0.72157 0.23096 0.26524 0.0
H705 H 0.80167 0.17015 0.2282 0.0
H706 H 0.79057 0.30667 0.30946 0.0
H707 H 0.76792 0.27091 0.34438 0.0
H708 H 0.73969 0.28318 0.30549 0.0
H709 H 0.88725 0.23362 0.26905 0.0
H710 H 0.8681 0.18928 0.24525 0.0
H711 H 0.86643 0.1918 0.29733 0.0
C712 C 0.41473 0.67625 0.31036 0.0
C713 C 0.40194 0.70891 0.31398 0.0
C714 C 0.42859 0.6594 0.34245 0.0
C715 C 0.43171 0.6764 0.37933 0.0
C716 C 0.42235 0.71146 0.38231 0.0
C717 C 0.40702 0.72694 0.34987 0.0
C718 C 0.43706 0.62177 0.33738 0.0
C719 C 0.42674 0.73178 0.42027 0.0
C720 C 0.42358 0.61193 0.47044 0.0
C721 C 0.46242 0.61385 0.47846 0.0
C722 C 0.41328 0.63207 0.43853 0.0
C723 C 0.44249 0.6562 0.41475 0.0
C724 C 0.48186 0.65917 0.42377 0.0
C725 C 0.49125 0.63749 0.45484 0.0
C726 C 0.37096 0.62678 0.42969 0.0
C727 C 0.51418 0.68546 0.40069 0.0
H728 H 0.41095 0.6622 0.28274 0.0
H729 H 0.39692 0.75191 0.35318 0.0
H730 H 0.46666 0.6229 0.34757 0.0
H731 H 0.4165 0.59996 0.35536 0.0
H732 H 0.43444 0.6128 0.30668 0.0
H733 H 0.42509 0.76132 0.41637 0.0
H734 H 0.40334 0.71687 0.44057 0.0
H735 H 0.45479 0.73197 0.43401 0.0
H736 H 0.40115 0.59385 0.48858 0.0
H737 H 0.52137 0.63958 0.46119 0.0
H738 H 0.36478 0.61667 0.39961 0.0
H739 H 0.36371 0.65413 0.43139 0.0
H740 H 0.35174 0.60629 0.45004 0.0
H741 H 0.51402 0.67566 0.37045 0.0
H742 H 0.54308 0.68726 0.41341 0.0
H743 H 0.50977 0.71415 0.39928 0.0
C744 C 0.08813 0.43999 0.82011 0.0
C745 C 0.12509 0.43362 0.8212 0.0
C746 C 0.07355 0.45671 0.85148 0.0
C747 C 0.09625 0.46765 0.88531 0.0
C748 C 0.13352 0.46099 0.88659 0.0
C749 C 0.14732 0.44419 0.85483 0.0
C750 C 0.03377 0.46294 0.84825 0.0
C751 C 0.15902 0.47173 0.92163 0.0
C752 C 0.07368 0.54255 0.9522 0.0
C753 C 0.05215 0.52071 0.98283 0.0
C754 C 0.08807 0.52585 0.92069 0.0
C755 C 0.08114 0.48602 0.91914 0.0
C756 C 0.05969 0.46386 0.95012 0.0
C757 C 0.04558 0.48127 0.98122 0.0
C758 C 0.11068 0.55099 0.88879 0.0
C759 C 0.05146 0.42148 0.95038 0.0
H760 H 0.07076 0.43236 0.79431 0.0
H761 H 0.17567 0.4391 0.85635 0.0
H762 H 1.0152 0.4483 0.87269 0.0
H763 H 0.03587 0.49344 0.85033 0.0
H764 H 0.01941 0.45259 0.82049 0.0
H765 H 0.18715 0.4648 0.91841 0.0
H766 H 0.16479 0.50242 0.92652 0.0
H767 H 0.144 0.45687 0.94793 0.0
H768 H 0.07915 0.57293 0.95264 0.0
H769 H 0.02921 0.46375 1.00442 0.0
H770 H 0.09596 0.54367 0.86057 0.0
H771 H 0.13993 0.54643 0.88617 0.0
H772 H 0.11393 0.58134 0.89404 0.0
H773 H 0.0349 0.41008 0.92409 0.0
H774 H 0.0347 0.40806 0.97647 0.0
H775 H 0.07906 0.4133 0.94952 0.0
C776 C 0.65528 0.88548 0.9479 0.0
C777 C 0.62687 0.85285 0.93805 0.0
C778 C 0.64577 0.91388 0.96888 0.0
C779 C 0.60685 0.90928 0.98039 0.0
C780 C 0.57806 0.87599 0.97086 0.0
C781 C 0.58848 0.84808 0.94949 0.0
C782 C 0.67725 0.94897 0.97823 0.0
C783 C 0.53635 0.87008 0.98294 0.0
C784 C 0.59074 0.9694 0.06345 0.0
C785 C 0.57975 0.99854 1.0437 0.0
C786 C 0.59896 0.93979 1.04323 0.0
C787 C 0.59652 0.93955 1.00225 0.0
C788 C 0.58575 0.96901 0.98207 0.0
C789 C 0.57734 0.99812 1.00308 0.0
C790 C 0.6102 0.90876 0.06572 0.0
C791 C 0.5833 0.96986 0.93831 0.0
H792 H 0.68489 0.8888 0.93845 0.0
H793 H 0.5668 0.82273 0.9414 0.0
H794 H 0.6702 0.97413 0.96528 0.0
H795 H 0.67911 0.95274 1.01011 0.0
H796 H 0.70608 0.94797 0.9672 0.0
H797 H 0.51773 0.84229 0.974 0.0
H798 H 0.53431 0.87206 1.01494 0.0
H799 H 0.52482 0.89259 0.96984 0.0
H800 H 0.59237 0.96933 0.09488 0.0
H801 H 0.56878 1.02051 0.98765 0.0
H802 H 0.63979 0.90793 0.05716 0.0
H803 H 0.59024 0.88102 0.05872 0.0
H804 H 0.60957 0.91252 0.09762 0.0
H805 H 0.61194 0.97082 0.92544 0.0
H806 H 0.57403 0.99453 0.92706 0.0
H807 H 0.5625 0.94374 0.92822 0.0
C808 C 0.95158 0.29739 0.4286 0.0
C809 C 0.92282 0.29935 0.45547 0.0
C810 C 0.97134 0.26929 0.43191 0.0
C811 C 0.96281 0.2431 0.46347 0.0
C812 C 0.93438 0.24551 0.49118 0.0
C813 C 0.91416 0.27301 0.48633 0.0
C814 C 1.00049 0.26695 0.40109 0.0
C815 C 0.92473 0.21855 0.52564 0.0
C816 C 0.97812 0.14517 0.46363 0.0
C817 C 1.01162 0.15033 0.48601 0.0
C818 C 0.96371 0.17589 0.45321 0.0
C819 C 0.98231 0.2122 0.46714 0.0
C820 C 1.01717 0.21769 0.4884 0.0
C821 C 0.03171 0.18668 0.49708 0.0
C822 C 0.92717 0.169 0.42947 0.0
C823 C 0.03728 0.25556 0.5049 0.0
H824 H 0.95799 0.31753 0.40451 0.0
H825 H 0.89082 0.27323 0.50616 0.0
H826 H 0.02898 0.26846 0.41449 0.0
H827 H 0.99095 0.23941 0.38653 0.0
H828 H 1.0043 0.28985 0.37874 0.0
H829 H 0.90447 0.22632 0.54629 0.0
H830 H 0.91124 0.18959 0.51556 0.0
H831 H 0.95155 0.21794 0.54142 0.0
H832 H 0.96235 0.11688 0.45564 0.0
H833 H 0.0571 0.19036 0.51524 0.0
H834 H 0.93017 0.19103 0.40633 0.0
H835 H 0.9026 0.17046 0.4484 0.0
H836 H 0.91989 0.14091 0.41582 0.0
H837 H 0.04129 0.2781 0.48222 0.0
H838 H 0.06598 0.25601 0.51737 0.0
H839 H 0.01898 0.26232 0.5282 0.0
C840 C 0.28939 0.667 0.19493 0.0
C841 C 0.28892 0.69147 0.22537 0.0
C842 C 0.25591 0.65194 0.17286 0.0
C843 C 0.22093 0.66107 0.18197 0.0
C844 C 0.22041 0.68549 0.2132 0.0
C845 C 0.25454 0.70069 0.23423 0.0
C846 C 0.25808 0.62662 0.13952 0.0
C847 C 0.18375 0.69541 0.22455 0.0
C848 C 0.1394 0.64944 0.10759 0.0
C849 C 0.11466 0.6143 0.11864 0.0
C850 C 0.17455 0.66453 0.1272 0.0
C851 C 0.18473 0.64459 0.15941 0.0
C852 C 0.15979 0.60913 0.17064 0.0
C853 C 0.12547 0.59426 0.14989 0.0
C854 C 0.20075 0.70192 0.11354 0.0
C855 C 0.16884 0.58724 0.20529 0.0
H856 H 0.31626 0.66033 0.18804 0.0
H857 H 0.25452 0.71979 0.25774 0.0
H858 H 0.23763 0.59841 0.14455 0.0
H859 H 0.24927 0.63845 0.11222 0.0
H860 H 0.28765 0.6231 0.13551 0.0
H861 H 0.18794 0.71405 0.25004 0.0
H862 H 0.17342 0.70984 0.19986 0.0
H863 H 0.16059 0.66933 0.23153 0.0
H864 H 0.1314 0.66506 0.08344 0.0
H865 H 0.10641 0.56727 0.159 0.0
H866 H 0.23026 0.69905 0.1077 0.0
H867 H 0.20337 0.72301 0.13662 0.0
H868 H 0.18987 0.71287 0.08678 0.0
H869 H 0.19731 0.58132 0.2012 0.0
H870 H 0.14651 0.56006 0.21028 0.0
H871 H 0.17088 0.60433 0.23176 0.0
C872 C 0.2484 0.41268 0.72706 0.0
C873 C 0.21221 0.41523 0.71377 0.0
C874 C 0.28257 0.42755 0.705 0.0
C875 C 0.28096 0.44637 0.66887 0.0
C876 C 0.2441 0.44777 0.65473 0.0
C877 C 0.21029 0.43213 0.67724 0.0
C878 C 0.32073 0.42471 0.72137 0.0
C879 C 0.24057 0.46779 0.61684 0.0
C880 C 0.37285 0.52344 0.63959 0.0
C881 C 0.39028 0.50581 0.61164 0.0
C882 C 0.3371 0.50487 0.6574 0.0
C883 C 0.31796 0.46716 0.64781 0.0
C884 C 0.33505 0.44933 0.61918 0.0
C885 C 0.37066 0.46885 0.60131 0.0
C886 C 0.3201 0.5256 0.68707 0.0
C887 C 0.31617 0.40918 0.60814 0.0
H888 H 0.25005 0.40032 0.75561 0.0
H889 H 0.18252 0.43499 0.66733 0.0
H890 H 0.33727 0.41394 0.69919 0.0
H891 H 0.33846 0.45314 0.72942 0.0
H892 H 0.31684 0.4059 0.74754 0.0
H893 H 0.20991 0.46334 0.60794 0.0
H894 H 0.25386 0.49849 0.61978 0.0
H895 H 0.25649 0.45795 0.59342 0.0
H896 H 0.38731 0.55201 0.6478 0.0
H897 H 0.38371 0.4547 0.58002 0.0
H898 H 0.31888 0.51131 0.71589 0.0
H899 H 0.28997 0.52505 0.6791 0.0
H900 H 0.33721 0.55544 0.68975 0.0
H901 H 0.31487 0.3902 0.63383 0.0
H902 H 0.33208 0.39963 0.58444 0.0
H903 H 0.28594 0.40625 0.59872 0.0
C904 C 0.75125 0.81025 0.90845 0.0
C905 C 0.71594 0.78399 0.90121 0.0
C906 C 0.78471 0.79849 0.91566 0.0
C907 C 0.78246 0.7595 0.91566 0.0
C908 C 0.74688 0.73301 0.90704 0.0
C909 C 0.71388 0.74567 0.9 0.0
C910 C 0.82203 0.8276 0.92467 0.0
C911 C 0.74341 0.69126 0.90652 0.0
C912 C 0.87533 0.72853 0.91158 0.0
C913 C 0.88 0.71956 0.95075 0.0
C914 C 0.8438 0.74178 0.89963 0.0
C915 C 0.81648 0.74624 0.92757 0.0
C916 C 0.82138 0.73774 0.96719 0.0
C917 C 0.85304 0.7245 0.97828 0.0
C918 C 0.83942 0.75056 0.85713 0.0
C919 C 0.79306 0.74251 0.99791 0.0
H920 H 0.75224 0.8399 0.90932 0.0
H921 H 0.68624 0.72574 0.89428 0.0
H922 H 0.83049 0.82361 0.95512 0.0
H923 H 0.84573 0.82408 0.90566 0.0
H924 H 0.81946 0.85685 0.92084 0.0
H925 H 0.71449 0.67472 0.89651 0.0
H926 H 0.76591 0.68562 0.88722 0.0
H927 H 0.74832 0.68112 0.93614 0.0
H928 H 0.89592 0.72447 0.89016 0.0
H929 H 0.85687 0.71821 1.00866 0.0
H930 H 0.83825 0.7802 0.85316 0.0
H931 H 0.81173 0.73233 0.84616 0.0
H932 H 0.86355 0.74625 0.83916 0.0
H933 H 0.79128 0.77212 0.99769 0.0
H934 H 0.80133 0.7351 1.02751 0.0
H935 H 0.76369 0.7244 0.99151 0.0
C936 C 0.39965 0.81742 0.27922 0.0
C937 C 0.40838 0.78506 0.26537 0.0
C938 C 0.41766 0.85368 0.26366 0.0
C939 C 0.4458 0.85809 0.23369 0.0
C940 C 0.45767 0.82595 0.22255 0.0
C941 C 0.43872 0.78992 0.23834 0.0
C942 C 0.40369 0.88664 0.2767 0.0
C943 C 0.48807 0.82901 0.19147 0.0
C944 C 0.45359 0.93793 0.1577 0.0
C945 C 0.48576 0.96609 0.1705 0.0
C946 C 0.44036 0.90299 0.17799 0.0
C947 C 0.45998 0.89533 0.21176 0.0
C948 C 0.49262 0.92352 0.22463 0.0
C949 C 0.50485 0.9584 0.20417 0.0
C950 C 0.40514 0.8742 0.16327 0.0
C951 C 0.5149 0.91671 0.25995 0.0
H952 H 0.37548 0.81376 0.29919 0.0
H953 H 0.44489 0.76506 0.22663 0.0
H954 H 0.42852 0.91132 0.28244 0.0
H955 H 0.38631 0.89505 0.25323 0.0
H956 H 0.38543 0.87971 0.30332 0.0
H957 H 0.49839 0.80318 0.19037 0.0
H958 H 0.47576 0.83339 0.16276 0.0
H959 H 0.51323 0.85362 0.19642 0.0
H960 H 0.43851 0.94324 0.13184 0.0
H961 H 0.52998 0.97952 0.21436 0.0
H962 H 0.38258 0.86677 0.18634 0.0
H963 H 0.41291 0.84796 0.1559 0.0
H964 H 0.39261 0.88451 0.13714 0.0
H965 H 0.49558 0.91093 0.2858 0.0
H966 H 0.54001 0.94111 0.26602 0.0
H967 H 0.52561 0.89145 0.25576 0.0
C968 C 0.16289 0.32229 0.714 0.0
C969 C 0.13927 0.34715 0.71367 0.0
C970 C 0.1526 0.2881 0.69334 0.0
C971 C 0.11797 0.27837 0.67114 0.0
C972 C 0.09485 0.30423 0.66965 0.0
C973 C 0.10555 0.33788 0.69104 0.0
C974 C 0.17821 0.26172 0.69635 0.0
C975 C 0.05821 0.296 0.64602 0.0
C976 C 0.10567 0.20219 0.59302 0.0
C977 C 0.08063 0.17019 0.61116 0.0
C978 C 0.11775 0.23726 0.61186 0.0
C979 C 0.10536 0.24089 0.65044 0.0
C980 C 0.08035 0.20861 0.66903 0.0
C981 C 0.06808 0.17406 0.64921 0.0
C982 C 0.14353 0.27067 0.59018 0.0
C983 C 0.06654 0.21051 0.71013 0.0
H984 H 0.18867 0.32893 0.73177 0.0
H985 H 0.08715 0.35689 0.69061 0.0
H986 H 0.16186 0.23467 0.71023 0.0
H987 H 0.18698 0.25524 0.66696 0.0
H988 H 0.2047 0.27367 0.71357 0.0
H989 H 0.04474 0.31987 0.64568 0.0
H990 H 0.06439 0.2898 0.61566 0.0
H991 H 0.03694 0.27063 0.65817 0.0
H992 H 0.11552 0.20004 0.56362 0.0
H993 H 0.0489 0.14983 0.66383 0.0
H994 H 0.17091 0.28164 0.60628 0.0
H995 H 0.12907 0.29375 0.58808 0.0
H996 H 0.15064 0.26352 0.56039 0.0
H997 H 0.09176 0.21987 0.72967 0.0
H998 H 0.04815 0.18292 0.72109 0.0
H999 H 0.04963 0.23162 0.71172 0.0
C1000 C 0.83184 0.41314 0.48015 0.0
C1001 C 0.83233 0.37535 0.47992 0.0
C1002 C 0.79785 0.42306 0.48992 0.0
C1003 C 0.76359 0.39429 0.49884 0.0
C1004 C 0.76483 0.35619 0.50092 0.0
C1005 C 0.79933 0.34725 0.49158 0.0
C1006 C 0.79791 0.46403 0.48806 0.0
C1007 C 0.72899 0.3246 0.5098 0.0
C1008 C 0.6749 0.41863 0.53976 0.0
C1009 C 0.65336 0.42046 0.50601 0.0
C1010 C 0.71101 0.41061 0.53793 0.0
C1011 C 0.7257 0.40349 0.50159 0.0
C1012 C 0.7039 0.40461 0.46751 0.0
C1013 C 0.66824 0.41338 0.47009 0.0
C1014 C 0.73355 0.40995 0.57484 0.0
C1015 C 0.71835 0.3967 0.42819 0.0
H1016 H 0.85739 0.43461 0.47048 0.0
H1017 H 0.7999 0.318 0.49054 0.0
H1018 H 0.7816 0.4693 0.46214 0.0
H1019 H 0.78323 0.47131 0.51398 0.0
H1020 H 0.82774 0.48307 0.48615 0.0
H1021 H 0.73579 0.29717 0.51466 0.0
H1022 H 0.71387 0.33089 0.53587 0.0
H1023 H 0.70861 0.32177 0.4851 0.0
H1024 H 0.6635 0.42339 0.56778 0.0
H1025 H 0.65235 0.41536 0.44374 0.0
H1026 H 0.76253 0.43042 0.57222 0.0
H1027 H 0.73826 0.38165 0.57963 0.0
H1028 H 0.71851 0.41695 0.6007 0.0
H1029 H 0.74623 0.41765 0.42117 0.0
H1030 H 0.69745 0.3977 0.40466 0.0
H1031 H 0.72384 0.36844 0.42863 0.0
loop_
_geom_bond_atom_site_label_1
_geom_bond_atom_site_label_2
_geom_bond_distance
_geom_bond_site_symmetry_2
_ccdc_geom_bond_type
C0 N1 1.317 . S
C0 N2 1.348 . S
C0 C3 1.485 . S
N1 C0 1.317 . S
N1 N5 1.370 . S
N2 C0 1.348 . S
N2 C4 1.346 . S
C3 C0 1.485 . S
C3 H7 0.960 . S
C3 H8 0.961 . S
C3 H9 0.960 . S
C4 N2 1.346 . S
C4 N5 1.307 . S
C4 C6 1.486 . S
N5 N1 1.370 . S
N5 C4 1.307 . S
C6 C4 1.486 . S
C6 H10 0.960 . S
C6 H11 0.960 . S
C6 H12 0.959 . S
H7 C3 0.960 . S
H8 C3 0.961 . S
H9 C3 0.960 . S
H10 C6 0.960 . S
H11 C6 0.960 . S
H12 C6 0.959 . S
C13 N14 1.317 . S
C13 N15 1.348 . S
C13 C16 1.485 . S
N14 C13 1.317 . S
N14 N18 1.370 . S
N15 C13 1.348 . S
N15 C17 1.346 . S
C16 C13 1.485 . S
C16 H20 0.960 . S
C16 H21 0.961 . S
C16 H22 0.960 . S
C17 N15 1.346 . S
C17 N18 1.307 . S
C17 C19 1.486 . S
N18 N14 1.370 . S
N18 C17 1.307 . S
C19 C17 1.486 . S
C19 H23 0.960 . S
C19 H24 0.960 . S
C19 H25 0.959 . S
H20 C16 0.960 . S
H21 C16 0.961 . S
H22 C16 0.960 . S
H23 C19 0.960 . S
H24 C19 0.960 . S
H25 C19 0.959 . S
C26 N27 1.317 . S
C26 N28 1.348 . S
C26 C29 1.485 . S
N27 C26 1.317 . S
N27 N31 1.370 . S
N28 C26 1.348 . S
N28 C30 1.346 . S
C29 C26 1.485 . S
C29 H33 0.960 . S
C29 H34 0.961 . S
C29 H35 0.960 . S
C30 N28 1.346 . S
C30 N31 1.307 . S
C30 C32 1.486 . S
N31 N27 1.370 . S
N31 C30 1.307 . S
C32 C30 1.486 . S
C32 H36 0.960 . S
C32 H37 0.960 . S
C32 H38 0.959 . S
H33 C29 0.960 . S
H34 C29 0.961 . S
H35 C29 0.960 . S
H36 C32 0.960 . S
H37 C32 0.960 . S
H38 C32 0.959 . S
C39 N40 1.317 . S
C39 N41 1.348 . S
C39 C42 1.485 . S
N40 C39 1.317 . S
N40 N44 1.370 . S
N41 C39 1.348 . S
N41 C43 1.346 . S
C42 C39 1.485 . S
C42 H46 0.960 . S
C42 H47 0.961 . S
C42 H48 0.960 . S
C43 N41 1.346 . S
C43 N44 1.307 . S
C43 C45 1.486 . S
N44 N40 1.370 . S
N44 C43 1.307 . S
C45 C43 1.486 . S
C45 H49 0.960 . S
C45 H50 0.960 . S
C45 H51 0.959 . S
H46 C42 0.960 . S
H47 C42 0.961 . S
H48 C42 0.960 . S
H49 C45 0.960 . S
H50 C45 0.960 . S
H51 C45 0.959 . S
C52 N53 1.317 . S
C52 N54 1.348 . S
C52 C55 1.485 . S
N53 C52 1.317 . S
N53 N57 1.370 . S
N54 C52 1.348 . S
N54 C56 1.346 . S
C55 C52 1.485 . S
C55 H59 0.960 . S
C55 H60 0.961 . S
C55 H61 0.960 . S
C56 N54 1.346 . S
C56 N57 1.307 . S
C56 C58 1.486 . S
N57 N53 1.370 . S
N57 C56 1.307 . S
C58 C56 1.486 . S
C58 H62 0.960 . S
C58 H63 0.960 . S
C58 H64 0.959 . S
H59 C55 0.960 . S
H60 C55 0.961 . S
H61 C55 0.960 . S
H62 C58 0.960 . S
H63 C58 0.960 . S
H64 C58 0.959 . S
C65 N66 1.317 . S
C65 N67 1.348 . S
C65 C68 1.485 . S
N66 C65 1.317 . S
N66 N70 1.370 . S
N67 C65 1.348 . S
N67 C69 1.346 . S
C68 C65 1.485 . S
C68 H72 0.960 . S
C68 H73 0.961 . S
C68 H74 0.960 . S
C69 N67 1.346 . S
C69 N70 1.307 . S
C69 C71 1.486 . S
N70 N66 1.370 . S
N70 C69 1.307 . S
C71 C69 1.486 . S
C71 H75 0.960 . S
C71 H76 0.960 . S
C71 H77 0.959 . S
H72 C68 0.960 . S
H73 C68 0.961 . S
H74 C68 0.960 . S
H75 C71 0.960 . S
H76 C71 0.960 . S
H77 C71 0.959 . S
C78 N79 1.317 . S
C78 N80 1.348 . S
C78 C81 1.485 . S
N79 C78 1.317 . S
N79 N83 1.370 . S
N80 C78 1.348 . S
N80 C82 1.346 . S
C81 C78 1.485 . S
C81 H85 0.960 . S
C81 H86 0.961 . S
C81 H87 0.960 . S
C82 N80 1.346 . S
C82 N83 1.307 . S
C82 C84 1.486 . S
N83 N79 1.370 . S
N83 C82 1.307 . S
C84 C82 1.486 . S
C84 H88 0.960 . S
C84 H89 0.960 . S
C84 H90 0.959 . S
H85 C81 0.960 . S
H86 C81 0.961 . S
H87 C81 0.960 . S
H88 C84 0.960 . S
H89 C84 0.960 . S
H90 C84 0.959 . S
C91 N92 1.317 . S
C91 N93 1.348 . S
C91 C94 1.485 . S
N92 C91 1.317 . S
N92 N96 1.370 . S
N93 C91 1.348 . S
N93 C95 1.346 . S
C94 C91 1.485 . S
C94 H98 0.960 . S
C94 H99 0.961 . S
C94 H100 0.960 . S
C95 N93 1.346 . S
C95 N96 1.307 . S
C95 C97 1.486 . S
N96 N92 1.370 . S
N96 C95 1.307 . S
C97 C95 1.486 . S
C97 H101 0.960 . S
C97 H102 0.960 . S
C97 H103 0.959 . S
H98 C94 0.960 . S
H99 C94 0.961 . S
H100 C94 0.960 . S
H101 C97 0.960 . S
H102 C97 0.960 . S
H103 C97 0.959 . S
Tb104 C113 2.764 . S
Tb104 O114 2.325 . S
Tb104 O117 2.303 . S
Tb104 O121 2.322 1_545 S
Tb104 O122 2.349 1_545 S
Tb104 O125 2.415 . S
Tb104 O126 2.399 . S
Tb105 O115 2.322 . S
Tb105 O116 2.349 1_655 S
Tb105 O118 2.415 1_545 S
Tb105 O119 2.399 1_545 S
Tb105 O120 2.325 1_645 S
Tb105 O123 2.303 1_645 S
Tb105 C134 2.764 1_545 S
C106 O122 1.261 . S
C106 O123 1.257 . S
C107 C110 1.358 . S
C107 C111 1.332 . S
C107 C113 1.504 . S
C108 C109 1.373 . S
C108 C112 1.308 . S
C109 C108 1.373 . S
C109 C110 1.429 . S
C109 H136 0.932 . S
C110 C107 1.358 . S
C110 C109 1.429 . S
C110 H137 0.930 . S
C111 C107 1.332 . S
C111 C112 1.394 . S
C111 H138 0.932 . S
C112 C108 1.308 . S
C112 C111 1.394 . S
C112 H139 0.929 . S
C113 Tb104 2.764 . S
C113 C107 1.504 . S
C113 O125 1.239 . S
C113 O126 1.263 . S
O114 Tb104 2.325 . S
O114 C124 1.236 . S
O115 Tb105 2.322 . S
O115 C124 1.257 1_655 S
O116 Tb105 2.349 1_455 S
O116 C127 1.261 . S
O117 Tb104 2.303 . S
O117 C127 1.257 . S
O118 Tb105 2.415 1_565 S
O118 C134 1.239 . S
O119 Tb105 2.399 1_565 S
O119 C134 1.263 . S
O120 Tb105 2.325 1_465 S
O120 C135 1.236 . S
O121 Tb104 2.322 1_565 S
O121 C135 1.257 . S
O122 Tb104 2.349 1_565 S
O122 C106 1.261 . S
O123 Tb105 2.303 1_465 S
O123 C106 1.257 . S
C124 O114 1.236 . S
C124 O115 1.257 1_455 S
O125 Tb104 2.415 . S
O125 C113 1.239 . S
O126 Tb104 2.399 . S
O126 C113 1.263 . S
C127 O116 1.261 . S
C127 O117 1.257 . S
C128 C131 1.358 . S
C128 C132 1.332 . S
C128 C134 1.504 . S
C129 C130 1.373 . S
C129 C133 1.308 . S
C130 C129 1.373 . S
C130 C131 1.429 . S
C130 H140 0.932 . S
C131 C128 1.358 . S
C131 C130 1.429 . S
C131 H141 0.930 . S
C132 C128 1.332 . S
C132 C133 1.394 . S
C132 H142 0.932 . S
C133 C129 1.308 . S
C133 C132 1.394 . S
C133 H143 0.929 . S
C134 Tb105 2.764 1_565 S
C134 O118 1.239 . S
C134 O119 1.263 . S
C134 C128 1.504 . S
C135 O120 1.236 . S
C135 O121 1.257 . S
H136 C109 0.932 . S
H137 C110 0.930 . S
H138 C111 0.932 . S
H139 C112 0.929 . S
H140 C130 0.932 . S
H141 C131 0.930 . S
H142 C132 0.932 . S
H143 C133 0.929 . S
Tb144 C153 2.764 . S
Tb144 O154 2.325 . S
Tb144 O157 2.303 . S
Tb144 O161 2.322 1_545 S
Tb144 O162 2.349 1_545 S
Tb144 O165 2.415 . S
Tb144 O166 2.399 . S
Tb145 O155 2.322 . S
Tb145 O156 2.349 . S
Tb145 O158 2.415 1_544 S
Tb145 O159 2.399 1_545 S
Tb145 O160 2.325 1_545 S
Tb145 O163 2.303 . S
Tb145 C174 2.764 1_544 S
C146 O162 1.261 . S
C146 O163 1.257 1_565 S
C147 C150 1.358 . S
C147 C151 1.332 . S
C147 C153 1.504 . S
C148 C149 1.373 . S
C148 C152 1.308 . S
C149 C148 1.373 . S
C149 C150 1.429 . S
C149 H176 0.932 . S
C150 C147 1.358 . S
C150 C149 1.429 . S
C150 H177 0.930 . S
C151 C147 1.332 . S
C151 C152 1.394 . S
C151 H178 0.932 . S
C152 C148 1.308 . S
C152 C151 1.394 . S
C152 H179 0.929 . S
C153 Tb144 2.764 . S
C153 C147 1.504 . S
C153 O165 1.239 . S
C153 O166 1.263 . S
O154 Tb144 2.325 . S
O154 C164 1.236 . S
O155 Tb145 2.322 . S
O155 C164 1.257 . S
O156 Tb145 2.349 . S
O156 C167 1.261 . S
O157 Tb144 2.303 . S
O157 C167 1.257 . S
O158 Tb145 2.415 1_566 S
O158 C174 1.239 . S
O159 Tb145 2.399 1_565 S
O159 C174 1.263 1_554 S
O160 Tb145 2.325 1_565 S
O160 C175 1.236 . S
O161 Tb144 2.322 1_565 S
O161 C175 1.257 . S
O162 Tb144 2.349 1_565 S
O162 C146 1.261 . S
O163 Tb145 2.303 . S
O163 C146 1.257 1_545 S
C164 O154 1.236 . S
C164 O155 1.257 . S
O165 Tb144 2.415 . S
O165 C153 1.239 . S
O166 Tb144 2.399 . S
O166 C153 1.263 . S
C167 O156 1.261 . S
C167 O157 1.257 . S
C168 C171 1.358 . S
C168 C172 1.332 . S
C168 C174 1.504 . S
C169 C170 1.373 . S
C169 C173 1.308 . S
C170 C169 1.373 . S
C170 C171 1.429 . S
C170 H180 0.932 . S
C171 C168 1.358 . S
C171 C170 1.429 . S
C171 H181 0.930 . S
C172 C168 1.332 . S
C172 C173 1.394 . S
C172 H182 0.932 . S
C173 C169 1.308 . S
C173 C172 1.394 . S
C173 H183 0.929 . S
C174 Tb145 2.764 1_566 S
C174 O158 1.239 . S
C174 O159 1.263 1_556 S
C174 C168 1.504 . S
C175 O160 1.236 . S
C175 O161 1.257 . S
H176 C149 0.932 . S
H177 C150 0.930 . S
H178 C151 0.932 . S
H179 C152 0.929 . S
H180 C170 0.932 . S
H181 C171 0.930 . S
H182 C172 0.932 . S
H183 C173 0.929 . S
Tb184 C193 2.764 . S
Tb184 O194 2.325 . S
Tb184 O197 2.303 . S
Tb184 O201 2.322 . S
Tb184 O202 2.349 . S
Tb184 O205 2.415 . S
Tb184 O206 2.399 . S
Tb185 O195 2.322 . S
Tb185 O196 2.349 . S
Tb185 O198 2.415 . S
Tb185 O199 2.399 . S
Tb185 O200 2.325 . S
Tb185 O203 2.303 . S
Tb185 C214 2.764 . S
C186 O202 1.261 . S
C186 O203 1.257 . S
C187 C190 1.358 . S
C187 C191 1.332 . S
C187 C193 1.504 . S
C188 C189 1.373 . S
C188 C192 1.308 . S
C189 C188 1.373 . S
C189 C190 1.429 . S
C189 H216 0.932 . S
C190 C187 1.358 . S
C190 C189 1.429 . S
C190 H217 0.930 . S
C191 C187 1.332 . S
C191 C192 1.394 . S
C191 H218 0.932 . S
C192 C188 1.308 . S
C192 C191 1.394 . S
C192 H219 0.929 . S
C193 Tb184 2.764 . S
C193 C187 1.504 . S
C193 O205 1.239 . S
C193 O206 1.263 . S
O194 Tb184 2.325 . S
O194 C204 1.236 . S
O195 Tb185 2.322 . S
O195 C204 1.257 . S
O196 Tb185 2.349 . S
O196 C207 1.261 . S
O197 Tb184 2.303 . S
O197 C207 1.257 . S
O198 Tb185 2.415 . S
O198 C214 1.239 . S
O199 Tb185 2.399 . S
O199 C214 1.263 . S
O200 Tb185 2.325 . S
O200 C215 1.236 . S
O201 Tb184 2.322 . S
O201 C215 1.257 . S
O202 Tb184 2.349 . S
O202 C186 1.261 . S
O203 Tb185 2.303 . S
O203 C186 1.257 . S
C204 O194 1.236 . S
C204 O195 1.257 . S
O205 Tb184 2.415 . S
O205 C193 1.239 . S
O206 Tb184 2.399 . S
O206 C193 1.263 . S
C207 O196 1.261 . S
C207 O197 1.257 . S
C208 C211 1.358 . S
C208 C212 1.332 . S
C208 C214 1.504 . S
C209 C210 1.373 . S
C209 C213 1.308 . S
C210 C209 1.373 . S
C210 C211 1.429 . S
C210 H220 0.932 . S
C211 C208 1.358 . S
C211 C210 1.429 . S
C211 H221 0.930 . S
C212 C208 1.332 . S
C212 C213 1.394 . S
C212 H222 0.932 . S
C213 C209 1.308 . S
C213 C212 1.394 . S
C213 H223 0.929 . S
C214 Tb185 2.764 . S
C214 O198 1.239 . S
C214 O199 1.263 . S
C214 C208 1.504 . S
C215 O200 1.236 . S
C215 O201 1.257 . S
H216 C189 0.932 . S
H217 C190 0.930 . S
H218 C191 0.932 . S
H219 C192 0.929 . S
H220 C210 0.932 . S
H221 C211 0.930 . S
H222 C212 0.932 . S
H223 C213 0.929 . S
Tb224 C233 2.764 . S
Tb224 O234 2.325 . S
Tb224 O237 2.303 1_556 S
Tb224 O241 2.322 1_656 S
Tb224 O242 2.349 1_655 S
Tb224 O245 2.415 . S
Tb224 O246 2.399 . S
Tb225 O235 2.322 1_455 S
Tb225 O236 2.349 1_455 S
Tb225 O238 2.415 . S
Tb225 O239 2.399 . S
Tb225 O240 2.325 . S
Tb225 O243 2.303 1_554 S
Tb225 C254 2.764 . S
C226 O242 1.261 . S
C226 O243 1.257 . S
C227 C230 1.358 . S
C227 C231 1.332 . S
C227 C233 1.504 . S
C228 C229 1.373 . S
C228 C232 1.308 . S
C229 C228 1.373 . S
C229 C230 1.429 . S
C229 H256 0.932 . S
C230 C227 1.358 . S
C230 C229 1.429 . S
C230 H257 0.930 . S
C231 C227 1.332 . S
C231 C232 1.394 . S
C231 H258 0.932 . S
C232 C228 1.308 . S
C232 C231 1.394 . S
C232 H259 0.929 . S
C233 Tb224 2.764 . S
C233 C227 1.504 . S
C233 O245 1.239 . S
C233 O246 1.263 . S
O234 Tb224 2.325 . S
O234 C244 1.236 . S
O235 Tb225 2.322 1_655 S
O235 C244 1.257 1_554 S
O236 Tb225 2.349 1_655 S
O236 C247 1.261 . S
O237 Tb224 2.303 1_554 S
O237 C247 1.257 . S
O238 Tb225 2.415 . S
O238 C254 1.239 . S
O239 Tb225 2.399 . S
O239 C254 1.263 . S
O240 Tb225 2.325 . S
O240 C255 1.236 . S
O241 Tb224 2.322 1_454 S
O241 C255 1.257 . S
O242 Tb224 2.349 1_455 S
O242 C226 1.261 . S
O243 Tb225 2.303 1_556 S
O243 C226 1.257 . S
C244 O234 1.236 . S
C244 O235 1.257 1_556 S
O245 Tb224 2.415 . S
O245 C233 1.239 . S
O246 Tb224 2.399 . S
O246 C233 1.263 . S
C247 O236 1.261 . S
C247 O237 1.257 . S
C248 C251 1.358 . S
C248 C252 1.332 . S
C248 C254 1.504 . S
C249 C250 1.373 . S
C249 C253 1.308 . S
C250 C249 1.373 . S
C250 C251 1.429 . S
C250 H260 0.932 . S
C251 C248 1.358 . S
C251 C250 1.429 . S
C251 H261 0.930 . S
C252 C248 1.332 . S
C252 C253 1.394 . S
C252 H262 0.932 . S
C253 C249 1.308 . S
C253 C252 1.394 . S
C253 H263 0.929 . S
C254 Tb225 2.764 . S
C254 O238 1.239 . S
C254 O239 1.263 . S
C254 C248 1.504 . S
C255 O240 1.236 . S
C255 O241 1.257 . S
H256 C229 0.932 . S
H257 C230 0.930 . S
H258 C231 0.932 . S
H259 C232 0.929 . S
H260 C250 0.932 . S
H261 C251 0.930 . S
H262 C252 0.932 . S
H263 C253 0.929 . S
C264 C265 1.391 . S
C264 C266 1.394 . S
C264 H280 0.931 . S
C265 C264 1.391 . S
C265 C269 1.376 . S
C266 C264 1.394 . S
C266 C267 1.369 . S
C266 C270 1.531 . S
C267 C266 1.369 . S
C267 C268 1.410 . S
C267 C275 1.503 . S
C268 C267 1.410 . S
C268 C269 1.392 . S
C268 C271 1.511 . S
C269 C265 1.376 . S
C269 C268 1.392 . S
C269 H281 0.929 . S
C270 C266 1.531 . S
C270 H282 0.960 . S
C270 H283 0.962 . S
C270 H284 0.960 . S
C271 C268 1.511 . S
C271 H285 0.961 . S
C271 H286 0.961 . S
C271 H287 0.961 . S
C272 C273 1.370 . S
C272 C274 1.363 . S
C272 H288 0.931 . S
C273 C272 1.370 . S
C273 C277 1.408 . S
C274 C272 1.363 . S
C274 C275 1.370 . S
C274 C278 1.524 . S
C275 C267 1.503 . S
C275 C274 1.370 . S
C275 C276 1.403 . S
C276 C275 1.403 . S
C276 C277 1.404 . S
C276 C279 1.539 . S
C277 C273 1.408 . S
C277 C276 1.404 . S
C277 H289 0.930 . S
C278 C274 1.524 . S
C278 H290 0.956 . S
C278 H291 0.961 . S
C278 H292 0.961 . S
C279 C276 1.539 . S
C279 H293 0.958 . S
C279 H294 0.961 . S
C279 H295 0.960 . S
H280 C264 0.931 . S
H281 C269 0.929 . S
H282 C270 0.960 . S
H283 C270 0.962 . S
H284 C270 0.960 . S
H285 C271 0.961 . S
H286 C271 0.961 . S
H287 C271 0.961 . S
H288 C272 0.931 . S
H289 C277 0.930 . S
H290 C278 0.956 . S
H291 C278 0.961 . S
H292 C278 0.961 . S
H293 C279 0.958 . S
H294 C279 0.961 . S
H295 C279 0.960 . S
C296 C297 1.391 . S
C296 C298 1.394 . S
C296 H312 0.931 . S
C297 C296 1.391 . S
C297 C301 1.376 . S
C298 C296 1.394 . S
C298 C299 1.369 . S
C298 C302 1.531 . S
C299 C298 1.369 . S
C299 C300 1.410 . S
C299 C307 1.503 . S
C300 C299 1.410 . S
C300 C301 1.392 . S
C300 C303 1.511 . S
C301 C297 1.376 . S
C301 C300 1.392 . S
C301 H313 0.929 . S
C302 C298 1.531 . S
C302 H314 0.960 . S
C302 H315 0.962 . S
C302 H316 0.960 . S
C303 C300 1.511 . S
C303 H317 0.961 . S
C303 H318 0.961 . S
C303 H319 0.961 . S
C304 C305 1.370 . S
C304 C306 1.363 . S
C304 H320 0.931 . S
C305 C304 1.370 . S
C305 C309 1.408 . S
C306 C304 1.363 . S
C306 C307 1.370 . S
C306 C310 1.524 . S
C307 C299 1.503 . S
C307 C306 1.370 . S
C307 C308 1.403 . S
C308 C307 1.403 . S
C308 C309 1.404 . S
C308 C311 1.539 . S
C309 C305 1.408 . S
C309 C308 1.404 . S
C309 H321 0.930 . S
C310 C306 1.524 . S
C310 H322 0.956 . S
C310 H323 0.961 . S
C310 H324 0.961 . S
C311 C308 1.539 . S
C311 H325 0.958 . S
C311 H326 0.961 . S
C311 H327 0.960 . S
H312 C296 0.931 . S
H313 C301 0.929 . S
H314 C302 0.960 . S
H315 C302 0.962 . S
H316 C302 0.960 . S
H317 C303 0.961 . S
H318 C303 0.961 . S
H319 C303 0.961 . S
H320 C304 0.931 . S
H321 C309 0.930 . S
H322 C310 0.956 . S
H323 C310 0.961 . S
H324 C310 0.961 . S
H325 C311 0.958 . S
H326 C311 0.961 . S
H327 C311 0.960 . S
C328 C329 1.391 . S
C328 C330 1.394 . S
C328 H344 0.931 . S
C329 C328 1.391 . S
C329 C333 1.376 . S
C330 C328 1.394 . S
C330 C331 1.369 . S
C330 C334 1.531 . S
C331 C330 1.369 . S
C331 C332 1.410 . S
C331 C339 1.503 . S
C332 C331 1.410 . S
C332 C333 1.392 . S
C332 C335 1.511 . S
C333 C329 1.376 . S
C333 C332 1.392 . S
C333 H345 0.929 . S
C334 C330 1.531 . S
C334 H346 0.960 . S
C334 H347 0.962 . S
C334 H348 0.960 . S
C335 C332 1.511 . S
C335 H349 0.961 . S
C335 H350 0.961 . S
C335 H351 0.961 . S
C336 C337 1.370 . S
C336 C338 1.363 . S
C336 H352 0.931 . S
C337 C336 1.370 . S
C337 C341 1.408 . S
C338 C336 1.363 . S
C338 C339 1.370 . S
C338 C342 1.524 . S
C339 C331 1.503 . S
C339 C338 1.370 . S
C339 C340 1.403 . S
C340 C339 1.403 . S
C340 C341 1.404 . S
C340 C343 1.539 . S
C341 C337 1.408 . S
C341 C340 1.404 . S
C341 H353 0.930 . S
C342 C338 1.524 . S
C342 H354 0.956 . S
C342 H355 0.961 . S
C342 H356 0.961 . S
C343 C340 1.539 . S
C343 H357 0.958 . S
C343 H358 0.961 . S
C343 H359 0.960 . S
H344 C328 0.931 . S
H345 C333 0.929 . S
H346 C334 0.960 . S
H347 C334 0.962 . S
H348 C334 0.960 . S
H349 C335 0.961 . S
H350 C335 0.961 . S
H351 C335 0.961 . S
H352 C336 0.931 . S
H353 C341 0.930 . S
H354 C342 0.956 . S
H355 C342 0.961 . S
H356 C342 0.961 . S
H357 C343 0.958 . S
H358 C343 0.961 . S
H359 C343 0.960 . S
C360 C361 1.391 . S
C360 C362 1.394 . S
C360 H376 0.931 . S
C361 C360 1.391 . S
C361 C365 1.376 . S
C362 C360 1.394 . S
C362 C363 1.369 . S
C362 C366 1.531 . S
C363 C362 1.369 . S
C363 C364 1.410 . S
C363 C371 1.503 . S
C364 C363 1.410 . S
C364 C365 1.392 . S
C364 C367 1.511 . S
C365 C361 1.376 . S
C365 C364 1.392 . S
C365 H377 0.929 . S
C366 C362 1.531 . S
C366 H378 0.960 . S
C366 H379 0.962 . S
C366 H380 0.960 . S
C367 C364 1.511 . S
C367 H381 0.961 . S
C367 H382 0.961 . S
C367 H383 0.961 . S
C368 C369 1.370 . S
C368 C370 1.363 . S
C368 H384 0.931 . S
C369 C368 1.370 . S
C369 C373 1.408 . S
C370 C368 1.363 . S
C370 C371 1.370 . S
C370 C374 1.524 . S
C371 C363 1.503 . S
C371 C370 1.370 . S
C371 C372 1.403 . S
C372 C371 1.403 . S
C372 C373 1.404 . S
C372 C375 1.539 . S
C373 C369 1.408 . S
C373 C372 1.404 . S
C373 H385 0.930 . S
C374 C370 1.524 . S
C374 H386 0.956 . S
C374 H387 0.961 . S
C374 H388 0.961 1_655 S
C375 C372 1.539 . S
C375 H389 0.958 . S
C375 H390 0.961 . S
C375 H391 0.960 . S
H376 C360 0.931 . S
H377 C365 0.929 . S
H378 C366 0.960 . S
H379 C366 0.962 . S
H380 C366 0.960 . S
H381 C367 0.961 . S
H382 C367 0.961 . S
H383 C367 0.961 . S
H384 C368 0.931 . S
H385 C373 0.930 . S
H386 C374 0.956 . S
H387 C374 0.961 . S
H388 C374 0.961 1_455 S
H389 C375 0.958 . S
H390 C375 0.961 . S
H391 C375 0.960 . S
C392 C393 1.391 . S
C392 C394 1.394 . S
C392 H408 0.931 . S
C393 C392 1.391 . S
C393 C397 1.376 . S
C394 C392 1.394 . S
C394 C395 1.369 . S
C394 C398 1.531 . S
C395 C394 1.369 . S
C395 C396 1.410 . S
C395 C403 1.503 . S
C396 C395 1.410 . S
C396 C397 1.392 . S
C396 C399 1.511 . S
C397 C393 1.376 . S
C397 C396 1.392 . S
C397 H409 0.929 . S
C398 C394 1.531 . S
C398 H410 0.960 . S
C398 H411 0.962 . S
C398 H412 0.960 . S
C399 C396 1.511 . S
C399 H413 0.961 . S
C399 H414 0.961 . S
C399 H415 0.961 . S
C400 C401 1.370 . S
C400 C402 1.363 . S
C400 H416 0.931 . S
C401 C400 1.370 . S
C401 C405 1.408 . S
C402 C400 1.363 . S
C402 C403 1.370 . S
C402 C406 1.524 . S
C403 C395 1.503 . S
C403 C402 1.370 . S
C403 C404 1.403 . S
C404 C403 1.403 . S
C404 C405 1.404 . S
C404 C407 1.539 . S
C405 C401 1.408 . S
C405 C404 1.404 . S
C405 H417 0.930 . S
C406 C402 1.524 . S
C406 H418 0.956 . S
C406 H419 0.961 . S
C406 H420 0.961 . S
C407 C404 1.539 . S
C407 H421 0.958 . S
C407 H422 0.961 . S
C407 H423 0.960 . S
H408 C392 0.931 . S
H409 C397 0.929 . S
H410 C398 0.960 . S
H411 C398 0.962 . S
H412 C398 0.960 . S
H413 C399 0.961 . S
H414 C399 0.961 . S
H415 C399 0.961 . S
H416 C400 0.931 . S
H417 C405 0.930 . S
H418 C406 0.956 . S
H419 C406 0.961 . S
H420 C406 0.961 . S
H421 C407 0.958 . S
H422 C407 0.961 . S
H423 C407 0.960 . S
C424 C425 1.391 . S
C424 C426 1.394 . S
C424 H440 0.931 . S
C425 C424 1.391 . S
C425 C429 1.376 . S
C426 C424 1.394 . S
C426 C427 1.369 . S
C426 C430 1.531 . S
C427 C426 1.369 . S
C427 C428 1.410 . S
C427 C435 1.503 . S
C428 C427 1.410 . S
C428 C429 1.392 . S
C428 C431 1.511 . S
C429 C425 1.376 . S
C429 C428 1.392 . S
C429 H441 0.929 . S
C430 C426 1.531 . S
C430 H442 0.960 . S
C430 H443 0.962 . S
C430 H444 0.960 . S
C431 C428 1.511 . S
C431 H445 0.961 . S
C431 H446 0.961 . S
C431 H447 0.961 . S
C432 C433 1.370 . S
C432 C434 1.363 . S
C432 H448 0.931 . S
C433 C432 1.370 . S
C433 C437 1.408 . S
C434 C432 1.363 . S
C434 C435 1.370 . S
C434 C438 1.524 . S
C435 C427 1.503 . S
C435 C434 1.370 . S
C435 C436 1.403 . S
C436 C435 1.403 . S
C436 C437 1.404 . S
C436 C439 1.539 . S
C437 C433 1.408 . S
C437 C436 1.404 . S
C437 H449 0.930 . S
C438 C434 1.524 . S
C438 H450 0.956 . S
C438 H451 0.961 . S
C438 H452 0.961 . S
C439 C436 1.539 . S
C439 H453 0.958 . S
C439 H454 0.961 . S
C439 H455 0.960 . S
H440 C424 0.931 . S
H441 C429 0.929 . S
H442 C430 0.960 . S
H443 C430 0.962 . S
H444 C430 0.960 . S
H445 C431 0.961 . S
H446 C431 0.961 . S
H447 C431 0.961 . S
H448 C432 0.931 . S
H449 C437 0.930 . S
H450 C438 0.956 . S
H451 C438 0.961 . S
H452 C438 0.961 . S
H453 C439 0.958 . S
H454 C439 0.961 . S
H455 C439 0.960 . S
C456 C457 1.391 . S
C456 C458 1.394 . S
C456 H472 0.931 . S
C457 C456 1.391 . S
C457 C461 1.376 . S
C458 C456 1.394 . S
C458 C459 1.369 . S
C458 C462 1.531 . S
C459 C458 1.369 . S
C459 C460 1.410 . S
C459 C467 1.503 . S
C460 C459 1.410 . S
C460 C461 1.392 . S
C460 C463 1.511 . S
C461 C457 1.376 . S
C461 C460 1.392 . S
C461 H473 0.929 . S
C462 C458 1.531 . S
C462 H474 0.960 . S
C462 H475 0.962 . S
C462 H476 0.960 . S
C463 C460 1.511 . S
C463 H477 0.961 . S
C463 H478 0.961 . S
C463 H479 0.961 . S
C464 C465 1.370 . S
C464 C466 1.363 . S
C464 H480 0.931 . S
C465 C464 1.370 . S
C465 C469 1.408 1_556 S
C466 C464 1.363 . S
C466 C467 1.370 . S
C466 C470 1.524 . S
C467 C459 1.503 . S
C467 C466 1.370 . S
C467 C468 1.403 . S
C468 C467 1.403 . S
C468 C469 1.404 1_556 S
C468 C471 1.539 1_556 S
C469 C465 1.408 1_554 S
C469 C468 1.404 1_554 S
C469 H481 0.930 . S
C470 C466 1.524 . S
C470 H482 0.956 . S
C470 H483 0.961 . S
C470 H484 0.961 . S
C471 C468 1.539 1_554 S
C471 H485 0.958 . S
C471 H486 0.961 . S
C471 H487 0.960 . S
H472 C456 0.931 . S
H473 C461 0.929 . S
H474 C462 0.960 . S
H475 C462 0.962 . S
H476 C462 0.960 . S
H477 C463 0.961 . S
H478 C463 0.961 . S
H479 C463 0.961 . S
H480 C464 0.931 . S
H481 C469 0.930 . S
H482 C470 0.956 . S
H483 C470 0.961 . S
H484 C470 0.961 . S
H485 C471 0.958 . S
H486 C471 0.961 . S
H487 C471 0.960 . S
C488 C489 1.391 . S
C488 C490 1.394 . S
C488 H504 0.931 . S
C489 C488 1.391 . S
C489 C493 1.376 . S
C490 C488 1.394 . S
C490 C491 1.369 . S
C490 C494 1.531 . S
C491 C490 1.369 . S
C491 C492 1.410 . S
C491 C499 1.503 . S
C492 C491 1.410 . S
C492 C493 1.392 . S
C492 C495 1.511 . S
C493 C489 1.376 . S
C493 C492 1.392 . S
C493 H505 0.929 . S
C494 C490 1.531 . S
C494 H506 0.960 . S
C494 H507 0.962 . S
C494 H508 0.960 . S
C495 C492 1.511 . S
C495 H509 0.961 . S
C495 H510 0.961 . S
C495 H511 0.961 . S
C496 C497 1.370 . S
C496 C498 1.363 . S
C496 H512 0.931 . S
C497 C496 1.370 . S
C497 C501 1.408 . S
C498 C496 1.363 . S
C498 C499 1.370 . S
C498 C502 1.524 . S
C499 C491 1.503 . S
C499 C498 1.370 . S
C499 C500 1.403 . S
C500 C499 1.403 . S
C500 C501 1.404 . S
C500 C503 1.539 . S
C501 C497 1.408 . S
C501 C500 1.404 . S
C501 H513 0.930 . S
C502 C498 1.524 . S
C502 H514 0.956 . S
C502 H515 0.961 . S
C502 H516 0.961 . S
C503 C500 1.539 . S
C503 H517 0.958 . S
C503 H518 0.961 . S
C503 H519 0.960 . S
H504 C488 0.931 . S
H505 C493 0.929 . S
H506 C494 0.960 . S
H507 C494 0.962 . S
H508 C494 0.960 . S
H509 C495 0.961 . S
H510 C495 0.961 . S
H511 C495 0.961 . S
H512 C496 0.931 . S
H513 C501 0.930 . S
H514 C502 0.956 . S
H515 C502 0.961 . S
H516 C502 0.961 . S
H517 C503 0.958 . S
H518 C503 0.961 . S
H519 C503 0.960 . S
C520 C521 1.391 . S
C520 C522 1.394 . S
C520 H536 0.931 . S
C521 C520 1.391 . S
C521 C525 1.376 . S
C522 C520 1.394 . S
C522 C523 1.369 . S
C522 C526 1.531 . S
C523 C522 1.369 . S
C523 C524 1.410 . S
C523 C531 1.503 . S
C524 C523 1.410 . S
C524 C525 1.392 . S
C524 C527 1.511 . S
C525 C521 1.376 . S
C525 C524 1.392 . S
C525 H537 0.929 . S
C526 C522 1.531 . S
C526 H538 0.960 . S
C526 H539 0.962 . S
C526 H540 0.960 . S
C527 C524 1.511 . S
C527 H541 0.961 . S
C527 H542 0.961 . S
C527 H543 0.961 . S
C528 C529 1.370 . S
C528 C530 1.363 . S
C528 H544 0.931 . S
C529 C528 1.370 . S
C529 C533 1.408 . S
C530 C528 1.363 . S
C530 C531 1.370 . S
C530 C534 1.524 . S
C531 C523 1.503 . S
C531 C530 1.370 . S
C531 C532 1.403 . S
C532 C531 1.403 . S
C532 C533 1.404 . S
C532 C535 1.539 . S
C533 C529 1.408 . S
C533 C532 1.404 . S
C533 H545 0.930 . S
C534 C530 1.524 . S
C534 H546 0.956 . S
C534 H547 0.961 . S
C534 H548 0.961 . S
C535 C532 1.539 . S
C535 H549 0.958 . S
C535 H550 0.961 . S
C535 H551 0.960 . S
H536 C520 0.931 . S
H537 C525 0.929 . S
H538 C526 0.960 . S
H539 C526 0.962 . S
H540 C526 0.960 . S
H541 C527 0.961 . S
H542 C527 0.961 . S
H543 C527 0.961 . S
H544 C528 0.931 . S
H545 C533 0.930 . S
H546 C534 0.956 . S
H547 C534 0.961 . S
H548 C534 0.961 . S
H549 C535 0.958 . S
H550 C535 0.961 . S
H551 C535 0.960 . S
C552 C553 1.391 . S
C552 C554 1.394 . S
C552 H568 0.931 . S
C553 C552 1.391 . S
C553 C557 1.376 . S
C554 C552 1.394 . S
C554 C555 1.369 . S
C554 C558 1.531 . S
C555 C554 1.369 . S
C555 C556 1.410 . S
C555 C563 1.503 . S
C556 C555 1.410 . S
C556 C557 1.392 . S
C556 C559 1.511 . S
C557 C553 1.376 . S
C557 C556 1.392 . S
C557 H569 0.929 . S
C558 C554 1.531 . S
C558 H570 0.960 1_556 S
C558 H571 0.962 . S
C558 H572 0.971 . S
C559 C556 1.511 . S
C559 H573 0.961 . S
C559 H574 0.961 . S
C559 H575 0.961 . S
C560 C561 1.370 1_556 S
C560 C562 1.363 . S
C560 H576 0.931 . S
C561 C560 1.370 1_554 S
C561 C565 1.408 . S
C562 C560 1.363 . S
C562 C563 1.370 . S
C562 C566 1.524 . S
C563 C555 1.503 . S
C563 C562 1.370 . S
C563 C564 1.403 1_556 S
C564 C563 1.403 1_554 S
C564 C565 1.404 . S
C564 C567 1.539 . S
C565 C561 1.408 . S
C565 C564 1.404 . S
C565 H577 0.930 . S
C566 C562 1.524 . S
C566 H578 0.956 . S
C566 H579 0.961 . S
C566 H580 0.961 . S
C567 C564 1.539 . S
C567 H581 0.958 . S
C567 H582 0.961 . S
C567 H583 0.960 . S
H568 C552 0.931 . S
H569 C557 0.929 . S
H570 C558 0.960 1_554 S
H571 C558 0.962 . S
H572 C558 0.971 . S
H573 C559 0.961 . S
H574 C559 0.961 . S
H575 C559 0.961 . S
H576 C560 0.931 . S
H577 C565 0.930 . S
H578 C566 0.956 . S
H579 C566 0.961 . S
H580 C566 0.961 . S
H581 C567 0.958 . S
H582 C567 0.961 . S
H583 C567 0.960 . S
C584 C585 1.391 . S
C584 C586 1.394 . S
C584 H600 0.931 . S
C585 C584 1.391 . S
C585 C589 1.376 . S
C586 C584 1.394 . S
C586 C587 1.369 . S
C586 C590 1.531 . S
C587 C586 1.369 . S
C587 C588 1.410 . S
C587 C595 1.503 . S
C588 C587 1.410 . S
C588 C589 1.392 . S
C588 C591 1.511 . S
C589 C585 1.376 . S
C589 C588 1.392 . S
C589 H601 0.929 . S
C590 C586 1.531 . S
C590 H602 0.960 1_655 S
C590 H603 0.962 1_655 S
C590 H604 0.960 1_655 S
C591 C588 1.511 . S
C591 H605 0.961 . S
C591 H606 0.961 . S
C591 H607 0.961 . S
C592 C593 1.370 . S
C592 C594 1.363 . S
C592 H608 0.931 . S
C593 C592 1.370 . S
C593 C597 1.408 . S
C594 C592 1.363 . S
C594 C595 1.370 . S
C594 C598 1.524 . S
C595 C587 1.503 . S
C595 C594 1.370 . S
C595 C596 1.403 . S
C596 C595 1.403 . S
C596 C597 1.404 . S
C596 C599 1.539 . S
C597 C593 1.408 . S
C597 C596 1.404 . S
C597 H609 0.930 . S
C598 C594 1.524 . S
C598 H610 0.956 . S
C598 H611 0.961 . S
C598 H612 0.961 . S
C599 C596 1.539 . S
C599 H613 0.958 . S
C599 H614 0.961 . S
C599 H615 0.960 . S
H600 C584 0.931 . S
H601 C589 0.929 . S
H602 C590 0.960 1_455 S
H603 C590 0.962 1_455 S
H604 C590 0.960 1_455 S
H605 C591 0.961 . S
H606 C591 0.961 . S
H607 C591 0.961 . S
H608 C592 0.931 . S
H609 C597 0.930 . S
H610 C598 0.956 . S
H611 C598 0.961 . S
H612 C598 0.961 . S
H613 C599 0.958 . S
H614 C599 0.961 . S
H615 C599 0.960 . S
C616 C617 1.391 . S
C616 C618 1.394 . S
C616 H632 0.931 . S
C617 C616 1.391 . S
C617 C621 1.376 . S
C618 C616 1.394 . S
C618 C619 1.369 . S
C618 C622 1.531 . S
C619 C618 1.369 . S
C619 C620 1.410 . S
C619 C627 1.503 . S
C620 C619 1.410 . S
C620 C621 1.392 . S
C620 C623 1.511 . S
C621 C617 1.376 . S
C621 C620 1.392 . S
C621 H633 0.929 . S
C622 C618 1.531 . S
C622 H634 0.960 . S
C622 H635 0.962 . S
C622 H636 0.960 . S
C623 C620 1.511 . S
C623 H637 0.961 . S
C623 H638 0.961 . S
C623 H639 0.961 . S
C624 C625 1.370 . S
C624 C626 1.363 . S
C624 H640 0.931 . S
C625 C624 1.370 . S
C625 C629 1.408 . S
C626 C624 1.363 . S
C626 C627 1.370 . S
C626 C630 1.524 . S
C627 C619 1.503 . S
C627 C626 1.370 . S
C627 C628 1.403 . S
C628 C627 1.403 . S
C628 C629 1.404 . S
C628 C631 1.539 . S
C629 C625 1.408 . S
C629 C628 1.404 . S
C629 H641 0.930 . S
C630 C626 1.524 . S
C630 H642 0.956 . S
C630 H643 0.961 . S
C630 H644 0.961 . S
C631 C628 1.539 . S
C631 H645 0.958 . S
C631 H646 0.961 . S
C631 H647 0.960 . S
H632 C616 0.931 . S
H633 C621 0.929 . S
H634 C622 0.960 . S
H635 C622 0.962 . S
H636 C622 0.960 . S
H637 C623 0.961 . S
H638 C623 0.961 . S
H639 C623 0.961 . S
H640 C624 0.931 . S
H641 C629 0.930 . S
H642 C630 0.956 . S
H643 C630 0.961 . S
H644 C630 0.961 . S
H645 C631 0.958 . S
H646 C631 0.961 . S
H647 C631 0.960 . S
C648 C649 1.391 . S
C648 C650 1.394 . S
C648 H664 0.931 . S
C649 C648 1.391 . S
C649 C653 1.376 . S
C650 C648 1.394 . S
C650 C651 1.369 . S
C650 C654 1.531 . S
C651 C650 1.369 . S
C651 C652 1.410 . S
C651 C659 1.503 . S
C652 C651 1.410 . S
C652 C653 1.392 . S
C652 C655 1.511 . S
C653 C649 1.376 . S
C653 C652 1.392 . S
C653 H665 0.929 . S
C654 C650 1.531 . S
C654 H666 0.960 . S
C654 H667 0.962 . S
C654 H668 0.960 . S
C655 C652 1.511 . S
C655 H669 0.961 . S
C655 H670 0.961 . S
C655 H671 0.961 . S
C656 C657 1.370 . S
C656 C658 1.363 . S
C656 H672 0.931 . S
C657 C656 1.370 . S
C657 C661 1.408 . S
C658 C656 1.363 . S
C658 C659 1.370 . S
C658 C662 1.524 . S
C659 C651 1.503 . S
C659 C658 1.370 . S
C659 C660 1.403 . S
C660 C659 1.403 . S
C660 C661 1.404 . S
C660 C663 1.539 . S
C661 C657 1.408 . S
C661 C660 1.404 . S
C661 H673 0.930 . S
C662 C658 1.524 . S
C662 H674 0.956 . S
C662 H675 0.961 . S
C662 H676 0.961 . S
C663 C660 1.539 . S
C663 H677 0.958 . S
C663 H678 0.961 . S
C663 H679 0.960 . S
H664 C648 0.931 . S
H665 C653 0.929 . S
H666 C654 0.960 . S
H667 C654 0.962 . S
H668 C654 0.960 . S
H669 C655 0.961 . S
H670 C655 0.961 . S
H671 C655 0.961 . S
H672 C656 0.931 . S
H673 C661 0.930 . S
H674 C662 0.956 . S
H675 C662 0.961 . S
H676 C662 0.961 . S
H677 C663 0.958 . S
H678 C663 0.961 . S
H679 C663 0.960 . S
C680 C681 1.391 . S
C680 C682 1.394 . S
C680 H696 0.931 . S
C681 C680 1.391 . S
C681 C685 1.376 . S
C682 C680 1.394 . S
C682 C683 1.369 . S
C682 C686 1.531 . S
C683 C682 1.369 . S
C683 C684 1.410 . S
C683 C691 1.503 . S
C684 C683 1.410 . S
C684 C685 1.392 . S
C684 C687 1.511 . S
C685 C681 1.376 . S
C685 C684 1.392 . S
C685 H697 0.929 . S
C686 C682 1.531 . S
C686 H698 0.960 . S
C686 H699 0.962 . S
C686 H700 0.960 . S
C687 C684 1.511 . S
C687 H701 0.961 . S
C687 H702 0.961 . S
C687 H703 0.961 . S
C688 C689 1.370 . S
C688 C690 1.363 . S
C688 H704 0.931 . S
C689 C688 1.370 . S
C689 C693 1.408 . S
C690 C688 1.363 . S
C690 C691 1.370 . S
C690 C694 1.524 . S
C691 C683 1.503 . S
C691 C690 1.370 . S
C691 C692 1.403 . S
C692 C691 1.403 . S
C692 C693 1.404 . S
C692 C695 1.539 . S
C693 C689 1.408 . S
C693 C692 1.404 . S
C693 H705 0.930 . S
C694 C690 1.524 . S
C694 H706 0.956 . S
C694 H707 0.961 . S
C694 H708 0.961 . S
C695 C692 1.539 . S
C695 H709 0.958 . S
C695 H710 0.961 . S
C695 H711 0.960 . S
H696 C680 0.931 . S
H697 C685 0.929 . S
H698 C686 0.960 . S
H699 C686 0.962 . S
H700 C686 0.960 . S
H701 C687 0.961 . S
H702 C687 0.961 . S
H703 C687 0.961 . S
H704 C688 0.931 . S
H705 C693 0.930 . S
H706 C694 0.956 . S
H707 C694 0.961 . S
H708 C694 0.961 . S
H709 C695 0.958 . S
H710 C695 0.961 . S
H711 C695 0.960 . S
C712 C713 1.391 . S
C712 C714 1.394 . S
C712 H728 0.931 . S
C713 C712 1.391 . S
C713 C717 1.376 . S
C714 C712 1.394 . S
C714 C715 1.369 . S
C714 C718 1.531 . S
C715 C714 1.369 . S
C715 C716 1.410 . S
C715 C723 1.503 . S
C716 C715 1.410 . S
C716 C717 1.392 . S
C716 C719 1.511 . S
C717 C713 1.376 . S
C717 C716 1.392 . S
C717 H729 0.929 . S
C718 C714 1.531 . S
C718 H730 0.960 . S
C718 H731 0.962 . S
C718 H732 0.960 . S
C719 C716 1.511 . S
C719 H733 0.961 . S
C719 H734 0.961 . S
C719 H735 0.961 . S
C720 C721 1.370 . S
C720 C722 1.363 . S
C720 H736 0.931 . S
C721 C720 1.370 . S
C721 C725 1.408 . S
C722 C720 1.363 . S
C722 C723 1.370 . S
C722 C726 1.524 . S
C723 C715 1.503 . S
C723 C722 1.370 . S
C723 C724 1.403 . S
C724 C723 1.403 . S
C724 C725 1.404 . S
C724 C727 1.539 . S
C725 C721 1.408 . S
C725 C724 1.404 . S
C725 H737 0.930 . S
C726 C722 1.524 . S
C726 H738 0.956 . S
C726 H739 0.961 . S
C726 H740 0.961 . S
C727 C724 1.539 . S
C727 H741 0.958 . S
C727 H742 0.961 . S
C727 H743 0.960 . S
H728 C712 0.931 . S
H729 C717 0.929 . S
H730 C718 0.960 . S
H731 C718 0.962 . S
H732 C718 0.960 . S
H733 C719 0.961 . S
H734 C719 0.961 . S
H735 C719 0.961 . S
H736 C720 0.931 . S
H737 C725 0.930 . S
H738 C726 0.956 . S
H739 C726 0.961 . S
H740 C726 0.961 . S
H741 C727 0.958 . S
H742 C727 0.961 . S
H743 C727 0.960 . S
C744 C745 1.391 . S
C744 C746 1.394 . S
C744 H760 0.931 . S
C745 C744 1.391 . S
C745 C749 1.376 . S
C746 C744 1.394 . S
C746 C747 1.369 . S
C746 C750 1.531 . S
C747 C746 1.369 . S
C747 C748 1.410 . S
C747 C755 1.503 . S
C748 C747 1.410 . S
C748 C749 1.392 . S
C748 C751 1.511 . S
C749 C745 1.376 . S
C749 C748 1.392 . S
C749 H761 0.929 . S
C750 C746 1.531 . S
C750 H762 0.960 . S
C750 H763 0.962 . S
C750 H764 0.960 . S
C751 C748 1.511 . S
C751 H765 0.961 . S
C751 H766 0.961 . S
C751 H767 0.961 . S
C752 C753 1.370 . S
C752 C754 1.363 . S
C752 H768 0.931 . S
C753 C752 1.370 . S
C753 C757 1.408 . S
C754 C752 1.363 . S
C754 C755 1.370 . S
C754 C758 1.524 . S
C755 C747 1.503 . S
C755 C754 1.370 . S
C755 C756 1.403 . S
C756 C755 1.403 . S
C756 C757 1.404 . S
C756 C759 1.539 . S
C757 C753 1.408 . S
C757 C756 1.404 . S
C757 H769 0.930 . S
C758 C754 1.524 . S
C758 H770 0.956 . S
C758 H771 0.961 . S
C758 H772 0.961 . S
C759 C756 1.539 . S
C759 H773 0.958 . S
C759 H774 0.961 . S
C759 H775 0.960 . S
H760 C744 0.931 . S
H761 C749 0.929 . S
H762 C750 0.960 . S
H763 C750 0.962 . S
H764 C750 0.960 . S
H765 C751 0.961 . S
H766 C751 0.961 . S
H767 C751 0.961 . S
H768 C752 0.931 . S
H769 C757 0.930 . S
H770 C758 0.956 . S
H771 C758 0.961 . S
H772 C758 0.961 . S
H773 C759 0.958 . S
H774 C759 0.961 . S
H775 C759 0.960 . S
C776 C777 1.391 . S
C776 C778 1.394 . S
C776 H792 0.931 . S
C777 C776 1.391 . S
C777 C781 1.376 . S
C778 C776 1.394 . S
C778 C779 1.369 . S
C778 C782 1.531 . S
C779 C778 1.369 . S
C779 C780 1.410 . S
C779 C787 1.503 . S
C780 C779 1.410 . S
C780 C781 1.392 . S
C780 C783 1.511 . S
C781 C777 1.376 . S
C781 C780 1.392 . S
C781 H793 0.929 . S
C782 C778 1.531 . S
C782 H794 0.960 . S
C782 H795 0.962 . S
C782 H796 0.960 . S
C783 C780 1.511 . S
C783 H797 0.961 . S
C783 H798 0.961 . S
C783 H799 0.961 . S
C784 C785 1.370 . S
C784 C786 1.363 . S
C784 H800 0.931 . S
C785 C784 1.370 . S
C785 C789 1.408 1_554 S
C786 C784 1.363 . S
C786 C787 1.370 1_554 S
C786 C790 1.524 . S
C787 C779 1.503 . S
C787 C786 1.370 1_556 S
C787 C788 1.403 . S
C788 C787 1.403 . S
C788 C789 1.404 . S
C788 C791 1.539 . S
C789 C785 1.408 1_556 S
C789 C788 1.404 . S
C789 H801 0.930 1_565 S
C790 C786 1.524 . S
C790 H802 0.956 . S
C790 H803 0.961 . S
C790 H804 0.961 . S
C791 C788 1.539 . S
C791 H805 0.958 . S
C791 H806 0.961 . S
C791 H807 0.960 . S
H792 C776 0.931 . S
H793 C781 0.929 . S
H794 C782 0.960 . S
H795 C782 0.962 . S
H796 C782 0.960 . S
H797 C783 0.961 . S
H798 C783 0.961 . S
H799 C783 0.961 . S
H800 C784 0.931 . S
H801 C789 0.930 1_545 S
H802 C790 0.956 . S
H803 C790 0.961 . S
H804 C790 0.961 . S
H805 C791 0.958 . S
H806 C791 0.961 . S
H807 C791 0.960 . S
C808 C809 1.391 . S
C808 C810 1.394 . S
C808 H824 0.931 . S
C809 C808 1.391 . S
C809 C813 1.376 . S
C810 C808 1.394 . S
C810 C811 1.369 . S
C810 C814 1.531 . S
C811 C810 1.369 . S
C811 C812 1.410 . S
C811 C819 1.503 . S
C812 C811 1.410 . S
C812 C813 1.392 . S
C812 C815 1.511 . S
C813 C809 1.376 . S
C813 C812 1.392 . S
C813 H825 0.929 . S
C814 C810 1.531 . S
C814 H826 0.960 . S
C814 H827 0.962 . S
C814 H828 0.960 . S
C815 C812 1.511 . S
C815 H829 0.961 . S
C815 H830 0.961 . S
C815 H831 0.961 . S
C816 C817 1.370 . S
C816 C818 1.363 . S
C816 H832 0.931 . S
C817 C816 1.370 . S
C817 C821 1.408 1_655 S
C818 C816 1.363 . S
C818 C819 1.370 . S
C818 C822 1.524 . S
C819 C811 1.503 . S
C819 C818 1.370 . S
C819 C820 1.403 . S
C820 C819 1.403 . S
C820 C821 1.404 1_655 S
C820 C823 1.539 1_655 S
C821 C817 1.408 1_455 S
C821 C820 1.404 1_455 S
C821 H833 0.930 . S
C822 C818 1.524 . S
C822 H834 0.956 . S
C822 H835 0.961 . S
C822 H836 0.961 . S
C823 C820 1.539 1_455 S
C823 H837 0.958 . S
C823 H838 0.961 . S
C823 H839 0.960 . S
H824 C808 0.931 . S
H825 C813 0.929 . S
H826 C814 0.960 . S
H827 C814 0.962 . S
H828 C814 0.960 . S
H829 C815 0.961 . S
H830 C815 0.961 . S
H831 C815 0.961 . S
H832 C816 0.931 . S
H833 C821 0.930 . S
H834 C822 0.956 . S
H835 C822 0.961 . S
H836 C822 0.961 . S
H837 C823 0.958 . S
H838 C823 0.961 . S
H839 C823 0.960 . S
C840 C841 1.391 . S
C840 C842 1.394 . S
C840 H856 0.931 . S
C841 C840 1.391 . S
C841 C845 1.376 . S
C842 C840 1.394 . S
C842 C843 1.369 . S
C842 C846 1.531 . S
C843 C842 1.369 . S
C843 C844 1.410 . S
C843 C851 1.503 . S
C844 C843 1.410 . S
C844 C845 1.392 . S
C844 C847 1.511 . S
C845 C841 1.376 . S
C845 C844 1.392 . S
C845 H857 0.929 . S
C846 C842 1.531 . S
C846 H858 0.960 . S
C846 H859 0.962 . S
C846 H860 0.960 . S
C847 C844 1.511 . S
C847 H861 0.961 . S
C847 H862 0.961 . S
C847 H863 0.961 . S
C848 C849 1.370 . S
C848 C850 1.363 . S
C848 H864 0.931 . S
C849 C848 1.370 . S
C849 C853 1.408 . S
C850 C848 1.363 . S
C850 C851 1.370 . S
C850 C854 1.524 . S
C851 C843 1.503 . S
C851 C850 1.370 . S
C851 C852 1.403 . S
C852 C851 1.403 . S
C852 C853 1.404 . S
C852 C855 1.539 . S
C853 C849 1.408 . S
C853 C852 1.404 . S
C853 H865 0.930 . S
C854 C850 1.524 . S
C854 H866 0.956 . S
C854 H867 0.961 . S
C854 H868 0.961 . S
C855 C852 1.539 . S
C855 H869 0.958 . S
C855 H870 0.961 . S
C855 H871 0.960 . S
H856 C840 0.931 . S
H857 C845 0.929 . S
H858 C846 0.960 . S
H859 C846 0.962 . S
H860 C846 0.960 . S
H861 C847 0.961 . S
H862 C847 0.961 . S
H863 C847 0.961 . S
H864 C848 0.931 . S
H865 C853 0.930 . S
H866 C854 0.956 . S
H867 C854 0.961 . S
H868 C854 0.961 . S
H869 C855 0.958 . S
H870 C855 0.961 . S
H871 C855 0.960 . S
C872 C873 1.391 . S
C872 C874 1.394 . S
C872 H888 0.931 . S
C873 C872 1.391 . S
C873 C877 1.376 . S
C874 C872 1.394 . S
C874 C875 1.369 . S
C874 C878 1.531 . S
C875 C874 1.369 . S
C875 C876 1.410 . S
C875 C883 1.503 . S
C876 C875 1.410 . S
C876 C877 1.392 . S
C876 C879 1.511 . S
C877 C873 1.376 . S
C877 C876 1.392 . S
C877 H889 0.929 . S
C878 C874 1.531 . S
C878 H890 0.960 . S
C878 H891 0.962 . S
C878 H892 0.960 . S
C879 C876 1.511 . S
C879 H893 0.961 . S
C879 H894 0.961 . S
C879 H895 0.961 . S
C880 C881 1.370 . S
C880 C882 1.363 . S
C880 H896 0.931 . S
C881 C880 1.370 . S
C881 C885 1.408 . S
C882 C880 1.363 . S
C882 C883 1.370 . S
C882 C886 1.524 . S
C883 C875 1.503 . S
C883 C882 1.370 . S
C883 C884 1.403 . S
C884 C883 1.403 . S
C884 C885 1.404 . S
C884 C887 1.539 . S
C885 C881 1.408 . S
C885 C884 1.404 . S
C885 H897 0.930 . S
C886 C882 1.524 . S
C886 H898 0.956 . S
C886 H899 0.961 . S
C886 H900 0.961 . S
C887 C884 1.539 . S
C887 H901 0.958 . S
C887 H902 0.961 . S
C887 H903 0.960 . S
H888 C872 0.931 . S
H889 C877 0.929 . S
H890 C878 0.960 . S
H891 C878 0.962 . S
H892 C878 0.960 . S
H893 C879 0.961 . S
H894 C879 0.961 . S
H895 C879 0.961 . S
H896 C880 0.931 . S
H897 C885 0.930 . S
H898 C886 0.956 . S
H899 C886 0.961 . S
H900 C886 0.961 . S
H901 C887 0.958 . S
H902 C887 0.961 . S
H903 C887 0.960 . S
C904 C905 1.391 . S
C904 C906 1.394 . S
C904 H920 0.931 . S
C905 C904 1.391 . S
C905 C909 1.376 . S
C906 C904 1.394 . S
C906 C907 1.369 . S
C906 C910 1.531 . S
C907 C906 1.369 . S
C907 C908 1.410 . S
C907 C915 1.503 . S
C908 C907 1.410 . S
C908 C909 1.392 . S
C908 C911 1.511 . S
C909 C905 1.376 . S
C909 C908 1.392 . S
C909 H921 0.929 . S
C910 C906 1.531 . S
C910 H922 0.960 . S
C910 H923 0.962 . S
C910 H924 0.960 . S
C911 C908 1.511 . S
C911 H925 0.961 . S
C911 H926 0.961 . S
C911 H927 0.961 . S
C912 C913 1.370 . S
C912 C914 1.363 . S
C912 H928 0.931 . S
C913 C912 1.370 . S
C913 C917 1.408 . S
C914 C912 1.363 . S
C914 C915 1.370 . S
C914 C918 1.524 . S
C915 C907 1.503 . S
C915 C914 1.370 . S
C915 C916 1.403 . S
C916 C915 1.403 . S
C916 C917 1.404 . S
C916 C919 1.539 . S
C917 C913 1.408 . S
C917 C916 1.404 . S
C917 H929 0.930 . S
C918 C914 1.524 . S
C918 H930 0.956 . S
C918 H931 0.961 . S
C918 H932 0.961 . S
C919 C916 1.539 . S
C919 H933 0.958 . S
C919 H934 0.961 . S
C919 H935 0.960 . S
H920 C904 0.931 . S
H921 C909 0.929 . S
H922 C910 0.960 . S
H923 C910 0.962 . S
H924 C910 0.960 . S
H925 C911 0.961 . S
H926 C911 0.961 . S
H927 C911 0.961 . S
H928 C912 0.931 . S
H929 C917 0.930 . S
H930 C918 0.956 . S
H931 C918 0.961 . S
H932 C918 0.961 . S
H933 C919 0.958 . S
H934 C919 0.961 . S
H935 C919 0.960 . S
C936 C937 1.391 . S
C936 C938 1.394 . S
C936 H952 0.931 . S
C937 C936 1.391 . S
C937 C941 1.376 . S
C938 C936 1.394 . S
C938 C939 1.369 . S
C938 C942 1.531 . S
C939 C938 1.369 . S
C939 C940 1.410 . S
C939 C947 1.503 . S
C940 C939 1.410 . S
C940 C941 1.392 . S
C940 C943 1.511 . S
C941 C937 1.376 . S
C941 C940 1.392 . S
C941 H953 0.929 . S
C942 C938 1.531 . S
C942 H954 0.960 . S
C942 H955 0.962 . S
C942 H956 0.960 . S
C943 C940 1.511 . S
C943 H957 0.961 . S
C943 H958 0.961 . S
C943 H959 0.961 . S
C944 C945 1.370 . S
C944 C946 1.363 . S
C944 H960 0.931 . S
C945 C944 1.370 . S
C945 C949 1.408 . S
C946 C944 1.363 . S
C946 C947 1.370 . S
C946 C950 1.524 . S
C947 C939 1.503 . S
C947 C946 1.370 . S
C947 C948 1.403 . S
C948 C947 1.403 . S
C948 C949 1.404 . S
C948 C951 1.539 . S
C949 C945 1.408 . S
C949 C948 1.404 . S
C949 H961 0.930 . S
C950 C946 1.524 . S
C950 H962 0.956 . S
C950 H963 0.961 . S
C950 H964 0.961 . S
C951 C948 1.539 . S
C951 H965 0.958 . S
C951 H966 0.961 . S
C951 H967 0.960 . S
H952 C936 0.931 . S
H953 C941 0.929 . S
H954 C942 0.960 . S
H955 C942 0.962 . S
H956 C942 0.960 . S
H957 C943 0.961 . S
H958 C943 0.961 . S
H959 C943 0.961 . S
H960 C944 0.931 . S
H961 C949 0.930 . S
H962 C950 0.956 . S
H963 C950 0.961 . S
H964 C950 0.961 . S
H965 C951 0.958 . S
H966 C951 0.961 . S
H967 C951 0.960 . S
C968 C969 1.391 . S
C968 C970 1.394 . S
C968 H984 0.931 . S
C969 C968 1.391 . S
C969 C973 1.376 . S
C970 C968 1.394 . S
C970 C971 1.369 . S
C970 C974 1.531 . S
C971 C970 1.369 . S
C971 C972 1.410 . S
C971 C979 1.503 . S
C972 C971 1.410 . S
C972 C973 1.392 . S
C972 C975 1.511 . S
C973 C969 1.376 . S
C973 C972 1.392 . S
C973 H985 0.929 . S
C974 C970 1.531 . S
C974 H986 0.960 . S
C974 H987 0.962 . S
C974 H988 0.960 . S
C975 C972 1.511 . S
C975 H989 0.961 . S
C975 H990 0.961 . S
C975 H991 0.961 . S
C976 C977 1.370 . S
C976 C978 1.363 . S
C976 H992 0.931 . S
C977 C976 1.370 . S
C977 C981 1.408 . S
C978 C976 1.363 . S
C978 C979 1.370 . S
C978 C982 1.524 . S
C979 C971 1.503 . S
C979 C978 1.370 . S
C979 C980 1.403 . S
C980 C979 1.403 . S
C980 C981 1.404 . S
C980 C983 1.539 . S
C981 C977 1.408 . S
C981 C980 1.404 . S
C981 H993 0.930 . S
C982 C978 1.524 . S
C982 H994 0.956 . S
C982 H995 0.961 . S
C982 H996 0.961 . S
C983 C980 1.539 . S
C983 H997 0.958 . S
C983 H998 0.961 . S
C983 H999 0.960 . S
H984 C968 0.931 . S
H985 C973 0.929 . S
H986 C974 0.960 . S
H987 C974 0.962 . S
H988 C974 0.960 . S
H989 C975 0.961 . S
H990 C975 0.961 . S
H991 C975 0.961 . S
H992 C976 0.931 . S
H993 C981 0.930 . S
H994 C982 0.956 . S
H995 C982 0.961 . S
H996 C982 0.961 . S
H997 C983 0.958 . S
H998 C983 0.961 . S
H999 C983 0.960 . S
C1000 C1001 1.391 . S
C1000 C1002 1.394 . S
C1000 H1016 0.931 . S
C1001 C1000 1.391 . S
C1001 C1005 1.376 . S
C1002 C1000 1.394 . S
C1002 C1003 1.369 . S
C1002 C1006 1.531 . S
C1003 C1002 1.369 . S
C1003 C1004 1.410 . S
C1003 C1011 1.503 . S
C1004 C1003 1.410 . S
C1004 C1005 1.392 . S
C1004 C1007 1.511 . S
C1005 C1001 1.376 . S
C1005 C1004 1.392 . S
C1005 H1017 0.929 . S
C1006 C1002 1.531 . S
C1006 H1018 0.960 . S
C1006 H1019 0.962 . S
C1006 H1020 0.960 . S
C1007 C1004 1.511 . S
C1007 H1021 0.961 . S
C1007 H1022 0.961 . S
C1007 H1023 0.961 . S
C1008 C1009 1.370 . S
C1008 C1010 1.363 . S
C1008 H1024 0.931 . S
C1009 C1008 1.370 . S
C1009 C1013 1.408 . S
C1010 C1008 1.363 . S
C1010 C1011 1.370 . S
C1010 C1014 1.524 . S
C1011 C1003 1.503 . S
C1011 C1010 1.370 . S
C1011 C1012 1.403 . S
C1012 C1011 1.403 . S
C1012 C1013 1.404 . S
C1012 C1015 1.539 . S
C1013 C1009 1.408 . S
C1013 C1012 1.404 . S
C1013 H1025 0.930 . S
C1014 C1010 1.524 . S
C1014 H1026 0.956 . S
C1014 H1027 0.961 . S
C1014 H1028 0.961 . S
C1015 C1012 1.539 . S
C1015 H1029 0.958 . S
C1015 H1030 0.961 . S
C1015 H1031 0.960 . S
H1016 C1000 0.931 . S
H1017 C1005 0.929 . S
H1018 C1006 0.960 . S
H1019 C1006 0.962 . S
H1020 C1006 0.960 . S
H1021 C1007 0.961 . S
H1022 C1007 0.961 . S
H1023 C1007 0.961 . S
H1024 C1008 0.931 . S
H1025 C1013 0.930 . S
H1026 C1014 0.956 . S
H1027 C1014 0.961 . S
H1028 C1014 0.961 . S
H1029 C1015 0.958 . S
H1030 C1015 0.961 . S
H1031 C1015 0.960 . S
C265 N1 0.761 . S
C273 C108 0.761 . S
C297 N18 1.170 . S
C305 C169 1.230 . S
C337 C207 2.086 . S
C329 N28 2.140 . S
C361 N40 2.571 . S
C369 C247 2.604 . S
C401 C167 1.494 . S
C393 N5 1.510 . S
C433 C135 1.717 . S
C425 N14 1.620 . S
C465 C244 1.812 . S
C457 N31 1.806 . S
C497 C204 1.626 . S
C489 N41 1.627 . S
C521 N2 0.925 . S
C529 C249 0.952 . S
C561 C164 2.570 . S
C553 N27 2.552 . S
C585 N44 2.373 . S
C593 C106 2.397 1_655 S
C617 N15 1.121 . S
C625 C209 1.103 . S
C657 C129 1.327 . S
C649 N57 1.304 . S
C681 N70 0.893 . S
C689 C148 0.895 . S
C713 N79 2.387 . S
C721 C186 2.382 . S
C745 N93 2.313 . S
C753 C226 2.295 . S
C777 N54 1.116 . S
C785 C146 1.160 . S
C817 C124 2.317 1_655 S
C809 N66 2.291 . S
C849 C255 1.295 . S
C841 N80 1.316 . S
C881 C215 1.887 . S
C873 N96 1.891 . S
C905 N53 1.140 . S
C913 C228 1.110 . S
C945 C175 2.105 . S
C937 N83 2.048 . S
C977 C127 2.419 . S
C969 N92 2.450 . S
C1001 N67 1.262 . S
C1009 C188 1.316 . S
