# Generated by pormake.
# Topology ctn, (3,4)-cn, num edge types: 1
# Building blocks:
#     Node 0, Type 0, BuildingBlock: VETTIZ_charged_linker_0, # of connection points: 3
#     Node 1, Type 0, BuildingBlock: VETTIZ_charged_linker_0, # of connection points: 3
#     Node 2, Type 0, BuildingBlock: VETTIZ_charged_linker_0, # of connection points: 3
#     Node 3, Type 0, BuildingBlock: VETTIZ_charged_linker_0, # of connection points: 3
#     Node 4, Type 0, BuildingBlock: VETTIZ_charged_linker_0, # of connection points: 3
#     Node 5, Type 0, BuildingBlock: VETTIZ_charged_linker_0, # of connection points: 3
#     Node 6, Type 0, BuildingBlock: VETTIZ_charged_linker_0, # of connection points: 3
#     Node 7, Type 0, BuildingBlock: VETTIZ_charged_linker_0, # of connection points: 3
#     Node 8, Type 0, BuildingBlock: VETTIZ_charged_linker_0, # of connection points: 3
#     Node 9, Type 0, BuildingBlock: VETTIZ_charged_linker_0, # of connection points: 3
#     Node 10, Type 0, BuildingBlock: VETTIZ_charged_linker_0, # of connection points: 3
#     Node 11, Type 0, BuildingBlock: VETTIZ_charged_linker_0, # of connection points: 3
#     Node 12, Type 0, BuildingBlock: VETTIZ_charged_linker_0, # of connection points: 3
#     Node 13, Type 0, BuildingBlock: VETTIZ_charged_linker_0, # of connection points: 3
#     Node 14, Type 0, BuildingBlock: VETTIZ_charged_linker_0, # of connection points: 3
#     Node 15, Type 0, BuildingBlock: VETTIZ_charged_linker_0, # of connection points: 3
#     Node 16, Type 1, BuildingBlock: TATPOV_clean_sbu_0, # of connection points: 4
#     Node 17, Type 1, BuildingBlock: TATPOV_clean_sbu_0, # of connection points: 4
#     Node 18, Type 1, BuildingBlock: TATPOV_clean_sbu_0, # of connection points: 4
#     Node 19, Type 1, BuildingBlock: TATPOV_clean_sbu_0, # of connection points: 4
#     Node 20, Type 1, BuildingBlock: TATPOV_clean_sbu_0, # of connection points: 4
#     Node 21, Type 1, BuildingBlock: TATPOV_clean_sbu_0, # of connection points: 4
#     Node 22, Type 1, BuildingBlock: TATPOV_clean_sbu_0, # of connection points: 4
#     Node 23, Type 1, BuildingBlock: TATPOV_clean_sbu_0, # of connection points: 4
#     Node 24, Type 1, BuildingBlock: TATPOV_clean_sbu_0, # of connection points: 4
#     Node 25, Type 1, BuildingBlock: TATPOV_clean_sbu_0, # of connection points: 4
#     Node 26, Type 1, BuildingBlock: TATPOV_clean_sbu_0, # of connection points: 4
#     Node 27, Type 1, BuildingBlock: TATPOV_clean_sbu_0, # of connection points: 4
#     Edge 28, Type (0, 1), BuildingBlock: TEMPAE_clean_linker_10, # of connection points: 2
#     Edge 29, Type (0, 1), BuildingBlock: TEMPAE_clean_linker_10, # of connection points: 2
#     Edge 30, Type (0, 1), BuildingBlock: TEMPAE_clean_linker_10, # of connection points: 2
#     Edge 31, Type (0, 1), BuildingBlock: TEMPAE_clean_linker_10, # of connection points: 2
#     Edge 32, Type (0, 1), BuildingBlock: TEMPAE_clean_linker_10, # of connection points: 2
#     Edge 33, Type (0, 1), BuildingBlock: TEMPAE_clean_linker_10, # of connection points: 2
#     Edge 34, Type (0, 1), BuildingBlock: TEMPAE_clean_linker_10, # of connection points: 2
#     Edge 35, Type (0, 1), BuildingBlock: TEMPAE_clean_linker_10, # of connection points: 2
#     Edge 36, Type (0, 1), BuildingBlock: TEMPAE_clean_linker_10, # of connection points: 2
#     Edge 37, Type (0, 1), BuildingBlock: TEMPAE_clean_linker_10, # of connection points: 2
#     Edge 38, Type (0, 1), BuildingBlock: TEMPAE_clean_linker_10, # of connection points: 2
#     Edge 39, Type (0, 1), BuildingBlock: TEMPAE_clean_linker_10, # of connection points: 2
#     Edge 40, Type (0, 1), BuildingBlock: TEMPAE_clean_linker_10, # of connection points: 2
#     Edge 41, Type (0, 1), BuildingBlock: TEMPAE_clean_linker_10, # of connection points: 2
#     Edge 42, Type (0, 1), BuildingBlock: TEMPAE_clean_linker_10, # of connection points: 2
#     Edge 43, Type (0, 1), BuildingBlock: TEMPAE_clean_linker_10, # of connection points: 2
#     Edge 44, Type (0, 1), BuildingBlock: TEMPAE_clean_linker_10, # of connection points: 2
#     Edge 45, Type (0, 1), BuildingBlock: TEMPAE_clean_linker_10, # of connection points: 2
#     Edge 46, Type (0, 1), BuildingBlock: TEMPAE_clean_linker_10, # of connection points: 2
#     Edge 47, Type (0, 1), BuildingBlock: TEMPAE_clean_linker_10, # of connection points: 2
#     Edge 48, Type (0, 1), BuildingBlock: TEMPAE_clean_linker_10, # of connection points: 2
#     Edge 49, Type (0, 1), BuildingBlock: TEMPAE_clean_linker_10, # of connection points: 2
#     Edge 50, Type (0, 1), BuildingBlock: TEMPAE_clean_linker_10, # of connection points: 2
#     Edge 51, Type (0, 1), BuildingBlock: TEMPAE_clean_linker_10, # of connection points: 2
#     Edge 52, Type (0, 1), BuildingBlock: TEMPAE_clean_linker_10, # of connection points: 2
#     Edge 53, Type (0, 1), BuildingBlock: TEMPAE_clean_linker_10, # of connection points: 2
#     Edge 54, Type (0, 1), BuildingBlock: TEMPAE_clean_linker_10, # of connection points: 2
#     Edge 55, Type (0, 1), BuildingBlock: TEMPAE_clean_linker_10, # of connection points: 2
#     Edge 56, Type (0, 1), BuildingBlock: TEMPAE_clean_linker_10, # of connection points: 2
#     Edge 57, Type (0, 1), BuildingBlock: TEMPAE_clean_linker_10, # of connection points: 2
#     Edge 58, Type (0, 1), BuildingBlock: TEMPAE_clean_linker_10, # of connection points: 2
#     Edge 59, Type (0, 1), BuildingBlock: TEMPAE_clean_linker_10, # of connection points: 2
#     Edge 60, Type (0, 1), BuildingBlock: TEMPAE_clean_linker_10, # of connection points: 2
#     Edge 61, Type (0, 1), BuildingBlock: TEMPAE_clean_linker_10, # of connection points: 2
#     Edge 62, Type (0, 1), BuildingBlock: TEMPAE_clean_linker_10, # of connection points: 2
#     Edge 63, Type (0, 1), BuildingBlock: TEMPAE_clean_linker_10, # of connection points: 2
#     Edge 64, Type (0, 1), BuildingBlock: TEMPAE_clean_linker_10, # of connection points: 2
#     Edge 65, Type (0, 1), BuildingBlock: TEMPAE_clean_linker_10, # of connection points: 2
#     Edge 66, Type (0, 1), BuildingBlock: TEMPAE_clean_linker_10, # of connection points: 2
#     Edge 67, Type (0, 1), BuildingBlock: TEMPAE_clean_linker_10, # of connection points: 2
#     Edge 68, Type (0, 1), BuildingBlock: TEMPAE_clean_linker_10, # of connection points: 2
#     Edge 69, Type (0, 1), BuildingBlock: TEMPAE_clean_linker_10, # of connection points: 2
#     Edge 70, Type (0, 1), BuildingBlock: TEMPAE_clean_linker_10, # of connection points: 2
#     Edge 71, Type (0, 1), BuildingBlock: TEMPAE_clean_linker_10, # of connection points: 2
#     Edge 72, Type (0, 1), BuildingBlock: TEMPAE_clean_linker_10, # of connection points: 2
#     Edge 73, Type (0, 1), BuildingBlock: TEMPAE_clean_linker_10, # of connection points: 2
#     Edge 74, Type (0, 1), BuildingBlock: TEMPAE_clean_linker_10, # of connection points: 2
#     Edge 75, Type (0, 1), BuildingBlock: TEMPAE_clean_linker_10, # of connection points: 2
# Relax obj value: 0.003
# Max RMSD: 0.048
# Mean RMSD: 0.021
data_MOF--net-ctn--node1-TATPOV_clean_sbu_0--node2-VETTIZ_charged_linker_0--edge1-TEMPAE_clean_linker_10
_symmetry_space_group_name_H-M    P1
_symmetry_Int_Tables_number       1
_symmetry_cell_setting            triclinic
loop_
_symmetry_equiv_pos_as_xyz
'x, y, z'
_cell_length_a     67.518372
_cell_length_b     67.522567
_cell_length_c     67.524501
_cell_angle_alpha  91.010857
_cell_angle_beta   91.013939
_cell_angle_gamma 90.999807
loop_
_atom_site_label
_atom_site_type_symbol
_atom_site_fract_x
_atom_site_fract_y
_atom_site_fract_z
_atom_type_partial_charge
C0 C 0.03805 0.07861 0.98562 0.0
C1 C 0.02261 0.09235 0.98614 0.0
C2 C 0.00771 0.09004 0.00037 0.0
C3 C 0.0239 0.06106 0.01329 0.0
C4 C 0.03837 0.06316 0.99923 0.0
C5 C 0.05371 0.04731 0.00061 0.0
H6 H 0.08842 0.96564 0.04559 0.0
C7 C 0.02874 0.04364 0.02536 0.0
C8 C 0.04619 0.0355 0.01796 0.0
H9 H 0.11261 0.99592 0.9953 0.0
H10 H 0.08648 0.01974 0.99678 0.0
H11 H 0.0792 0.00498 0.07082 0.0
H12 H 0.04269 0.96823 0.03172 0.0
H13 H 0.02862 0.97415 0.0526 0.0
H14 H 0.05102 0.96031 0.05565 0.0
H15 H 0.06985 0.98119 0.07802 0.0
H16 H 0.05569 0.0034 0.0814 0.0
C17 C 0.07404 0.05746 0.00538 0.0
C18 C 0.05293 0.035 0.98101 0.0
C19 C 0.98466 0.02445 0.08261 0.0
C20 C 0.98583 0.00957 0.09689 0.0
C21 C 0.00174 0.99632 0.09626 0.0
C22 C 0.01619 0.99782 0.08168 0.0
C23 C 0.01485 0.01279 0.06755 0.0
C24 C 0.99932 0.02585 0.06821 0.0
C25 C 0.0006 0.04112 0.05229 0.0
C26 C 0.01936 0.03499 0.04189 0.0
C27 C 0.0276 0.01833 0.05084 0.0
C28 C 0.00294 0.0618 0.06247 0.0
C29 C 0.98203 0.03864 0.03859 0.0
C30 C 0.08818 0.9775 0.035 0.0
C31 C 0.10261 0.97881 0.02026 0.0
C32 C 0.10155 0.99437 0.00663 0.0
C33 C 0.08639 0.00827 0.00757 0.0
C34 C 0.07202 0.00668 0.02228 0.0
C35 C 0.07308 0.99149 0.0357 0.0
C36 C 0.05646 0.99207 0.05026 0.0
C37 C 0.04518 0.01 0.04327 0.0
C38 C 0.05439 0.01852 0.02691 0.0
C39 C 0.06562 0.99544 0.07129 0.0
C40 C 0.04402 0.97268 0.04764 0.0
H41 H 0.99651 0.07364 0.02433 0.0
H42 H 0.04985 0.07998 0.97505 0.0
H43 H 0.03754 0.03392 0.97484 0.0
H44 H 0.05734 0.01947 0.98297 0.0
H45 H 0.06237 0.04188 0.96961 0.0
H46 H 0.07235 0.07017 0.0159 0.0
H47 H 0.08088 0.06325 0.99175 0.0
H48 H 0.08458 0.04759 0.01279 0.0
H49 H 0.97277 0.03501 0.08284 0.0
H50 H 0.00288 0.98462 0.10697 0.0
H51 H 0.02785 0.98724 0.082 0.0
H52 H 0.0122 0.061 0.07622 0.0
H53 H 0.98833 0.06774 0.06664 0.0
H54 H 0.0107 0.07271 0.05325 0.0
H55 H 0.97771 0.02273 0.03671 0.0
H56 H 0.98453 0.04385 0.02342 0.0
H57 H 0.96919 0.04649 0.04488 0.0
H58 H 0.99545 0.10016 0.00094 0.0
C59 C 0.00828 0.07453 0.01391 0.0
C60 C 0.22974 0.65112 0.23966 0.0
C61 C 0.21217 0.64782 0.22847 0.0
C62 C 0.20656 0.66192 0.21436 0.0
C63 C 0.23608 0.68167 0.22228 0.0
C64 C 0.24144 0.66798 0.23627 0.0
C65 C 0.26085 0.67326 0.24644 0.0
H66 H 0.34275 0.73231 0.2528 0.0
C67 C 0.25181 0.69715 0.22198 0.0
C68 C 0.26638 0.69229 0.23609 0.0
H69 H 0.3284 0.68164 0.28834 0.0
H70 H 0.2968 0.67771 0.27114 0.0
H71 H 0.30063 0.75161 0.25628 0.0
H72 H 0.32518 0.71462 0.21066 0.0
H73 H 0.31279 0.73414 0.19914 0.0
H74 H 0.33348 0.73965 0.21563 0.0
H75 H 0.31787 0.76117 0.23876 0.0
H76 H 0.29153 0.7603 0.23359 0.0
C77 C 0.25703 0.67685 0.26877 0.0
C78 C 0.27556 0.65647 0.24194 0.0
C79 C 0.2471 0.75298 0.17273 0.0
C80 C 0.26002 0.7687 0.16797 0.0
C81 C 0.27773 0.77148 0.17917 0.0
C82 C 0.28272 0.75859 0.19443 0.0
C83 C 0.26995 0.7426 0.19856 0.0
C84 C 0.25237 0.74015 0.18794 0.0
C85 C 0.2408 0.72213 0.19412 0.0
C86 C 0.2543 0.71423 0.21025 0.0
C87 C 0.2714 0.72622 0.21272 0.0
C88 C 0.2208 0.72905 0.20246 0.0
C89 C 0.23886 0.70769 0.17604 0.0
C90 C 0.33284 0.72025 0.25667 0.0
C91 C 0.33808 0.70707 0.27168 0.0
C92 C 0.32464 0.69189 0.27675 0.0
C93 C 0.30635 0.68963 0.26672 0.0
C94 C 0.30139 0.70279 0.25156 0.0
C95 C 0.31442 0.71796 0.24698 0.0
C96 C 0.30624 0.73113 0.23118 0.0
C97 C 0.2863 0.72114 0.22676 0.0
C98 C 0.28366 0.70441 0.23856 0.0
C99 C 0.30402 0.75222 0.24023 0.0
C100 C 0.32011 0.73004 0.21317 0.0
H101 H 0.21336 0.6889 0.2002 0.0
H102 H 0.23434 0.64078 0.25085 0.0
H103 H 0.27392 0.65127 0.22625 0.0
H104 H 0.29122 0.66119 0.24367 0.0
H105 H 0.27283 0.64354 0.25153 0.0
H106 H 0.24195 0.68273 0.27115 0.0
H107 H 0.25821 0.6629 0.27716 0.0
H108 H 0.26717 0.68818 0.27556 0.0
H109 H 0.2333 0.75048 0.16456 0.0
H110 H 0.28814 0.78325 0.17567 0.0
H111 H 0.29655 0.76133 0.20214 0.0
H112 H 0.22282 0.74308 0.21122 0.0
H113 H 0.20994 0.73181 0.19031 0.0
H114 H 0.21421 0.71843 0.21282 0.0
H115 H 0.25213 0.70873 0.16655 0.0
H116 H 0.23806 0.69198 0.18028 0.0
H117 H 0.22571 0.71109 0.16668 0.0
H118 H 0.19323 0.65968 0.20539 0.0
C119 C 0.21837 0.67883 0.21126 0.0
C120 C 0.97683 0.37649 0.02013 0.0
C121 C 0.96315 0.37043 0.00511 0.0
C122 C 0.94526 0.38087 0.00321 0.0
C123 C 0.95589 0.40388 0.02936 0.0
C124 C 0.97277 0.39295 0.03219 0.0
C125 C 0.98536 0.40081 0.04927 0.0
H126 H 0.00158 0.4706 0.12107 0.0
C127 C 0.95671 0.42081 0.04352 0.0
C128 C 0.97377 0.41889 0.05547 0.0
H129 H 0.03378 0.41661 0.11097 0.0
H130 H 0.01286 0.40867 0.08253 0.0
H131 H 0.95847 0.45103 0.11462 0.0
H132 H 0.9974 0.48241 0.07589 0.0
H133 H 0.97329 0.48915 0.06907 0.0
H134 H 0.98263 0.4951 0.09373 0.0
H135 H 0.96385 0.4771 0.1171 0.0
H136 H 0.94406 0.46774 0.10112 0.0
C137 C 0.98577 0.3849 0.06558 0.0
C138 C 0.00602 0.40661 0.04136 0.0
C139 C 0.90713 0.47627 0.03716 0.0
C140 C 0.90561 0.49483 0.04674 0.0
C141 C 0.91892 0.49989 0.0624 0.0
C142 C 0.93371 0.48681 0.06822 0.0
C143 C 0.93534 0.46849 0.05822 0.0
C144 C 0.92213 0.46344 0.04301 0.0
C145 C 0.92651 0.44362 0.03369 0.0
C146 C 0.9447 0.43776 0.04564 0.0
C147 C 0.9497 0.45235 0.06002 0.0
C148 C 0.90863 0.42942 0.03703 0.0
C149 C 0.93128 0.44692 0.01163 0.0
C150 C 0.00407 0.457 0.11282 0.0
C151 C 0.01934 0.4442 0.11838 0.0
C152 C 0.02228 0.42685 0.10693 0.0
C153 C 0.00996 0.42212 0.09055 0.0
C154 C 0.99443 0.4348 0.08556 0.0
C155 C 0.99177 0.45195 0.09657 0.0
C156 C 0.97433 0.46349 0.08932 0.0
C157 C 0.96655 0.45007 0.07258 0.0
C158 C 0.97848 0.43341 0.07033 0.0
C159 C 0.95935 0.46513 0.10637 0.0
C160 C 0.98214 0.48367 0.0817 0.0
H161 H 0.92794 0.40503 0.01271 0.0
H162 H 0.99071 0.36897 0.02226 0.0
H163 H 0.00451 0.4147 0.02722 0.0
H164 H 0.01451 0.41666 0.05153 0.0
H165 H 0.01497 0.39325 0.03847 0.0
H166 H 0.97254 0.37485 0.06451 0.0
H167 H 0.99908 0.37555 0.06442 0.0
H168 H 0.98524 0.39146 0.0807 0.0
H169 H 0.89724 0.47208 0.02493 0.0
H170 H 0.9179 0.51402 0.07012 0.0
H171 H 0.94343 0.49156 0.08018 0.0
H172 H 0.90065 0.43351 0.05075 0.0
H173 H 0.8978 0.42982 0.02448 0.0
H174 H 0.91318 0.41395 0.0393 0.0
H175 H 0.9414 0.45996 0.01011 0.0
H176 H 0.93892 0.4344 0.00465 0.0
H177 H 0.91756 0.44973 0.00287 0.0
H178 H 0.93401 0.37624 0.99242 0.0
C179 C 0.94165 0.39757 0.01513 0.0
C180 C 0.67275 0.76249 0.26217 0.0
C181 C 0.66151 0.74474 0.26229 0.0
C182 C 0.66665 0.72912 0.24932 0.0
C183 C 0.69322 0.74925 0.23605 0.0
C184 C 0.68847 0.76439 0.24904 0.0
C185 C 0.70163 0.78239 0.24686 0.0
H186 H 0.77819 0.82774 0.2013 0.0
C187 C 0.70997 0.75621 0.22401 0.0
C188 C 0.71505 0.77559 0.23037 0.0
H189 H 0.74182 0.85116 0.24794 0.0
H190 H 0.7227 0.82066 0.24811 0.0
H191 H 0.74226 0.8085 0.1761 0.0
H192 H 0.78252 0.78389 0.21878 0.0
H193 H 0.77949 0.76644 0.19929 0.0
H194 H 0.78993 0.7906 0.19436 0.0
H195 H 0.76747 0.80314 0.17034 0.0
H196 H 0.74792 0.7847 0.16734 0.0
C197 C 0.68853 0.79989 0.24047 0.0
C198 C 0.71321 0.78595 0.26665 0.0
C199 C 0.73557 0.71257 0.16825 0.0
C200 C 0.75056 0.71529 0.15429 0.0
C201 C 0.76236 0.73273 0.15538 0.0
C202 C 0.75902 0.74739 0.16981 0.0
C203 C 0.74368 0.74468 0.18334 0.0
C204 C 0.73242 0.72738 0.18259 0.0
C205 C 0.71686 0.72704 0.19827 0.0
C206 C 0.72037 0.74717 0.20824 0.0
C207 C 0.73606 0.75744 0.19937 0.0
C208 C 0.69628 0.72547 0.18779 0.0
C209 C 0.7214 0.70984 0.21245 0.0
C210 C 0.76618 0.82621 0.21161 0.0
C211 C 0.7615 0.84185 0.22462 0.0
C212 C 0.74557 0.83939 0.23763 0.0
C213 C 0.73456 0.82161 0.23779 0.0
C214 C 0.73944 0.80608 0.22474 0.0
C215 C 0.75493 0.80858 0.21185 0.0
C216 C 0.75758 0.7907 0.19863 0.0
C217 C 0.74136 0.77694 0.20595 0.0
C218 C 0.73083 0.786 0.22128 0.0
C219 C 0.75378 0.79694 0.17692 0.0
C220 C 0.77849 0.78243 0.20276 0.0
H221 H 0.68547 0.71889 0.22667 0.0
H222 H 0.66908 0.77491 0.27171 0.0
H223 H 0.71746 0.77164 0.2733 0.0
H224 H 0.72733 0.79415 0.26485 0.0
H225 H 0.70408 0.79401 0.27759 0.0
H226 H 0.67597 0.79461 0.23076 0.0
H227 H 0.68218 0.80754 0.25353 0.0
H228 H 0.69656 0.81084 0.23152 0.0
H229 H 0.72642 0.69923 0.16798 0.0
H230 H 0.77387 0.73529 0.1447 0.0
H231 H 0.76837 0.76039 0.16968 0.0
H232 H 0.69587 0.73488 0.17443 0.0
H233 H 0.69283 0.70997 0.18291 0.0
H234 H 0.68414 0.7308 0.19709 0.0
H235 H 0.73763 0.70738 0.21376 0.0
H236 H 0.71674 0.71292 0.22779 0.0
H237 H 0.71432 0.69575 0.20704 0.0
H238 H 0.65842 0.7152 0.24926 0.0
C239 C 0.68242 0.73126 0.23625 0.0
C240 C 0.05152 0.91221 0.48314 0.0
C241 C 0.04016 0.89525 0.4776 0.0
C242 C 0.0314 0.89437 0.45842 0.0
C243 C 0.04342 0.92763 0.45192 0.0
C244 C 0.05314 0.92796 0.47008 0.0
C245 C 0.06504 0.94671 0.47369 0.0
H246 H 0.09152 0.03832 0.44446 0.0
C247 C 0.04679 0.94709 0.44272 0.0
C248 C 0.05961 0.95822 0.45535 0.0
H249 H 0.11641 0.00415 0.49232 0.0
H250 H 0.09278 0.97805 0.48539 0.0
H251 H 0.04595 0.02641 0.45074 0.0
H252 H 0.09068 0.00212 0.4133 0.0
H253 H 0.06871 0.0042 0.3991 0.0
H254 H 0.08023 0.02613 0.40992 0.0
H255 H 0.05229 0.03758 0.42775 0.0
H256 H 0.03365 0.01812 0.42895 0.0
C257 C 0.05758 0.95695 0.4928 0.0
C258 C 0.08734 0.94138 0.47441 0.0
C259 C 0.00853 0.96505 0.3802 0.0
C260 C 0.0059 0.98307 0.37032 0.0
C261 C 0.01693 -8e-05 0.37706 0.0
C262 C 0.03005 0.99892 0.39329 0.0
C263 C 0.03209 0.98095 0.4032 0.0
C264 C 0.02133 0.96443 0.39672 0.0
C265 C 0.02416 0.94706 0.41009 0.0
C266 C 0.03856 0.95586 0.42553 0.0
C267 C 0.04331 0.97566 0.42125 0.0
C268 C 0.00381 0.94168 0.419 0.0
C269 C 0.03354 0.93007 0.39798 0.0
C270 C 0.09201 0.02521 0.45345 0.0
C271 C 0.10605 0.02355 0.46902 0.0
C272 C 0.10567 0.00625 0.48049 0.0
C273 C 0.09214 0.9908 0.4762 0.0
C274 C 0.07898 0.99231 0.46001 0.0
C275 C 0.07896 0.00933 0.44899 0.0
C276 C 0.06466 0.00777 0.43164 0.0
C277 C 0.05674 0.98671 0.43372 0.0
C278 C 0.06496 0.97793 0.45055 0.0
C279 C 0.0483 0.02331 0.43472 0.0
C280 C 0.07653 0.01028 0.41239 0.0
H281 H 0.0256 0.90901 0.43141 0.0
H282 H 0.05855 0.91365 0.49763 0.0
H283 H 0.09007 0.92671 0.46728 0.0
H284 H 0.09661 0.95194 0.46608 0.0
H285 H 0.09305 0.94075 0.48991 0.0
H286 H 0.04111 0.95676 0.49295 0.0
H287 H 0.06296 0.94923 0.5062 0.0
H288 H 0.06216 0.97269 0.49414 0.0
H289 H 0.00053 0.95172 0.37548 0.0
H290 H 0.01499 0.01416 0.37023 0.0
H291 H 0.0378 0.01231 0.39774 0.0
H292 H 0.99564 0.95531 0.42298 0.0
H293 H 0.99446 0.93293 0.40821 0.0
H294 H 0.00498 0.93339 0.43286 0.0
H295 H 0.04409 0.93603 0.387 0.0
H296 H 0.04243 0.92013 0.40728 0.0
H297 H 0.02202 0.92118 0.3897 0.0
H298 H 0.02314 0.88132 0.45331 0.0
C299 C 0.03289 0.91046 0.44563 0.0
C300 C 0.26174 0.67726 0.76099 0.0
C301 C 0.25912 0.66267 0.74593 0.0
C302 C 0.24217 0.66355 0.7334 0.0
C303 C 0.23064 0.69228 0.75157 0.0
C304 C 0.24724 0.69157 0.76376 0.0
C305 C 0.24677 0.70665 0.78042 0.0
H306 H 0.19626 0.77658 0.83081 0.0
C307 C 0.21788 0.70819 0.75914 0.0
C308 C 0.22713 0.7165 0.77621 0.0
H309 H 0.25419 0.75375 0.84458 0.0
H310 H 0.25274 0.73327 0.8149 0.0
H311 H 0.17568 0.73506 0.81588 0.0
H312 H 0.20452 0.78272 0.78564 0.0
H313 H 0.18568 0.77381 0.76947 0.0
H314 H 0.17928 0.78427 0.79327 0.0
H315 H 0.16543 0.75928 0.81357 0.0
H316 H 0.16122 0.74037 0.79475 0.0
C317 C 0.24669 0.6954 0.80025 0.0
C318 C 0.26453 0.72122 0.77817 0.0
C319 C 0.15417 0.7248 0.72217 0.0
C320 C 0.13936 0.73874 0.72579 0.0
C321 C 0.14076 0.75074 0.74307 0.0
C322 C 0.15672 0.74908 0.75641 0.0
C323 C 0.17152 0.73526 0.7525 0.0
C324 C 0.17005 0.72332 0.73569 0.0
C325 C 0.18708 0.7093 0.73415 0.0
C326 C 0.19933 0.71537 0.75243 0.0
C327 C 0.19007 0.7305 0.76314 0.0
C328 C 0.17877 0.6878 0.73542 0.0
C329 C 0.19818 0.71369 0.71481 0.0
C330 C 0.20854 0.76705 0.82745 0.0
C331 C 0.22528 0.76663 0.84007 0.0
C332 C 0.24117 0.75437 0.83501 0.0
C333 C 0.24025 0.7424 0.81784 0.0
C334 C 0.22326 0.74267 0.80555 0.0
C335 C 0.20792 0.75511 0.81026 0.0
C336 C 0.19145 0.75413 0.79497 0.0
C337 C 0.19915 0.73858 0.78067 0.0
C338 C 0.2177 0.7318 0.78702 0.0
C339 C 0.17233 0.74697 0.8052 0.0
C340 C 0.18994 0.77476 0.78534 0.0
H341 H 0.21546 0.678 0.72616 0.0
H342 H 0.2746 0.67736 0.7708 0.0
H343 H 0.26741 0.72396 0.76227 0.0
H344 H 0.26184 0.73601 0.78473 0.0
H345 H 0.27826 0.7152 0.78486 0.0
H346 H 0.23785 0.68137 0.79875 0.0
H347 H 0.26196 0.69152 0.80497 0.0
H348 H 0.23968 0.70371 0.81238 0.0
H349 H 0.15338 0.71519 0.70915 0.0
H350 H 0.12969 0.76176 0.74609 0.0
H351 H 0.15696 0.75873 0.7692 0.0
H352 H 0.16468 0.68725 0.74372 0.0
H353 H 0.17569 0.68127 0.72045 0.0
H354 H 0.1888 0.678 0.7437 0.0
H355 H 0.20009 0.72995 0.71293 0.0
H356 H 0.21327 0.70769 0.71466 0.0
H357 H 0.18978 0.70767 0.70168 0.0
H358 H 0.23935 0.65241 0.72193 0.0
C359 C 0.22807 0.67832 0.73605 0.0
C360 C 0.87089 0.52048 0.47196 0.0
C361 C 0.86759 0.50334 0.46013 0.0
C362 C 0.87973 0.50005 0.44364 0.0
C363 C 0.89857 0.53009 0.45155 0.0
C364 C 0.88639 0.53356 0.46743 0.0
C365 C 0.89237 0.55202 0.47896 0.0
H366 H 0.95272 0.63249 0.48951 0.0
C367 C 0.91374 0.5461 0.4514 0.0
C368 C 0.91012 0.55906 0.46735 0.0
H369 H 0.90585 0.61333 0.5282 0.0
H370 H 0.89901 0.58515 0.50682 0.0
H371 H 0.93177 0.61996 0.4468 0.0
H372 H 0.97141 0.59139 0.48729 0.0
H373 H 0.97756 0.58255 0.46368 0.0
H374 H 0.98033 0.60867 0.46953 0.0
H375 H 0.95693 0.62794 0.45166 0.0
H376 H 0.95095 0.6092 0.4331 0.0
C377 C 0.87504 0.5667 0.47772 0.0
C378 C 0.89825 0.54608 0.50034 0.0
C379 C 0.96924 0.54348 0.40174 0.0
C380 C 0.98619 0.55544 0.399 0.0
C381 C 0.9887 0.57306 0.41033 0.0
C382 C 0.97479 0.57843 0.42453 0.0
C383 C 0.9583 0.56593 0.42761 0.0
C384 C 0.95561 0.54892 0.41612 0.0
C385 C 0.93754 0.53715 0.42182 0.0
C386 C 0.93009 0.54966 0.43893 0.0
C387 C 0.94228 0.56649 0.44221 0.0
C388 C 0.92279 0.53666 0.40396 0.0
C389 C 0.94431 0.51648 0.42861 0.0
C390 C 0.94108 0.62221 0.4936 0.0
C391 C 0.92973 0.62547 0.51063 0.0
C392 C 0.91458 0.61162 0.51501 0.0
C393 C 0.91072 0.59508 0.50265 0.0
C394 C 0.92232 0.59204 0.48584 0.0
C395 C 0.93736 0.60535 0.48171 0.0
C396 C 0.94921 0.59892 0.46415 0.0
C397 C 0.93839 0.57983 0.45809 0.0
C398 C 0.92253 0.576 0.47071 0.0
C399 C 0.9473 0.61483 0.44802 0.0
C400 C 0.97079 0.59528 0.47135 0.0
H401 H 0.90399 0.50985 0.42669 0.0
H402 H 0.86173 0.52356 0.48462 0.0
H403 H 0.90396 0.53072 0.50069 0.0
H404 H 0.91049 0.55537 0.50673 0.0
H405 H 0.88537 0.54671 0.51033 0.0
H406 H 0.86858 0.56677 0.46244 0.0
H407 H 0.86304 0.56246 0.48794 0.0
H408 H 0.87965 0.58218 0.48099 0.0
H409 H 0.96704 0.52973 0.39342 0.0
H410 H 0.00156 0.58259 0.40832 0.0
H411 H 0.97758 0.59193 0.43278 0.0
H412 H 0.92372 0.55066 0.39554 0.0
H413 H 0.92599 0.52427 0.39353 0.0
H414 H 0.90717 0.53551 0.40848 0.0
H415 H 0.95861 0.51768 0.43703 0.0
H416 H 0.93393 0.50936 0.43884 0.0
H417 H 0.9465 0.50637 0.41571 0.0
H418 H 0.87772 0.48685 0.43443 0.0
C419 C 0.89512 0.51335 0.43926 0.0
C420 C 0.83351 0.77206 0.87271 0.0
C421 C 0.81725 0.77189 0.88545 0.0
C422 C 0.8045 0.7882 0.88564 0.0
C423 C 0.8234 0.80371 0.85977 0.0
C424 C 0.8363 0.78806 0.86008 0.0
C425 C 0.85235 0.79014 0.84505 0.0
H426 H 0.88923 0.83858 0.76672 0.0
C427 C 0.82979 0.81734 0.84414 0.0
C428 C 0.84689 0.8096 0.83562 0.0
H429 H 0.91053 0.78481 0.79287 0.0
H430 H 0.88634 0.78758 0.8187 0.0
H431 H 0.88295 0.86299 0.80861 0.0
H432 H 0.84482 0.82783 0.76969 0.0
H433 H 0.83116 0.84834 0.77733 0.0
H434 H 0.85344 0.85221 0.76354 0.0
H435 H 0.87406 0.87187 0.78525 0.0
H436 H 0.86003 0.8749 0.80761 0.0
C437 C 0.87256 0.79166 0.85624 0.0
C438 C 0.85032 0.77243 0.83018 0.0
C439 C 0.78638 0.87497 0.8253 0.0
C440 C 0.78757 0.88908 0.81027 0.0
C441 C 0.80466 0.88992 0.79861 0.0
C442 C 0.81994 0.87641 0.80133 0.0
C443 C 0.81806 0.86175 0.81573 0.0
C444 C 0.80171 0.86149 0.82774 0.0
C445 C 0.80219 0.8448 0.84219 0.0
C446 C 0.82134 0.83483 0.83658 0.0
C447 C 0.83045 0.84473 0.82097 0.0
C448 C 0.80332 0.85383 0.86345 0.0
C449 C 0.78381 0.8312 0.83793 0.0
C450 C 0.88901 0.82766 0.77829 0.0
C451 C 0.90179 0.81146 0.77779 0.0
C452 C 0.90072 0.79734 0.79288 0.0
C453 C 0.88665 0.79897 0.80783 0.0
C454 C 0.87334 0.81476 0.80756 0.0
C455 C 0.87493 0.82896 0.79317 0.0
C456 C 0.85918 0.84433 0.79473 0.0
C457 C 0.84778 0.83697 0.81239 0.0
C458 C 0.85606 0.81959 0.81978 0.0
C459 C 0.86944 0.86467 0.79914 0.0
C460 C 0.84647 0.84336 0.77535 0.0
H461 H 0.79715 0.81595 0.87361 0.0
H462 H 0.84349 0.75969 0.87204 0.0
H463 H 0.83446 0.76844 0.82728 0.0
H464 H 0.85629 0.77569 0.81547 0.0
H465 H 0.85769 0.75911 0.83605 0.0
H466 H 0.87118 0.79994 0.87053 0.0
H467 H 0.87825 0.77675 0.85963 0.0
H468 H 0.88388 0.80002 0.84804 0.0
H469 H 0.77337 0.87381 0.8344 0.0
H470 H 0.80606 0.90085 0.78715 0.0
H471 H 0.83239 0.87759 0.79175 0.0
H472 H 0.81143 0.86833 0.86376 0.0
H473 H 0.7883 0.85638 0.86931 0.0
H474 H 0.81171 0.84455 0.87388 0.0
H475 H 0.78102 0.82946 0.82169 0.0
H476 H 0.78558 0.816 0.84329 0.0
H477 H 0.77032 0.83753 0.84455 0.0
H478 H 0.79206 0.78859 0.89554 0.0
C479 C 0.80752 0.80411 0.87293 0.0
C480 C 0.31129 0.26776 0.36175 0.0
C481 C 0.29764 0.26929 0.37714 0.0
C482 C 0.28676 0.28681 0.37928 0.0
C483 C 0.30288 0.3006 0.35069 0.0
C484 C 0.31367 0.2835 0.34878 0.0
C485 C 0.32718 0.28394 0.33134 0.0
H486 H 0.36392 0.33313 0.2535 0.0
C487 C 0.30862 0.3139 0.33454 0.0
C488 C 0.32296 0.30428 0.32326 0.0
H489 H 0.37489 0.27274 0.27082 0.0
H490 H 0.35394 0.27692 0.29881 0.0
H491 H 0.36239 0.35387 0.29812 0.0
H492 H 0.31886 0.32851 0.25743 0.0
H493 H 0.30716 0.34802 0.26969 0.0
H494 H 0.32843 0.35323 0.25468 0.0
H495 H 0.35569 0.36477 0.27494 0.0
H496 H 0.34203 0.36984 0.2971 0.0
C497 C 0.34878 0.28246 0.3392 0.0
C498 C 0.32059 0.26708 0.31661 0.0
C499 C 0.27235 0.37821 0.32463 0.0
C500 C 0.27328 0.39266 0.30991 0.0
C501 C 0.28858 0.39188 0.29601 0.0
C502 C 0.30217 0.37643 0.29618 0.0
C503 C 0.3003 0.36145 0.31026 0.0
C504 C 0.28588 0.36276 0.32446 0.0
C505 C 0.28581 0.3453 0.33799 0.0
C506 C 0.3021 0.33296 0.32911 0.0
C507 C 0.31051 0.34248 0.31287 0.0
C508 C 0.29131 0.35286 0.35921 0.0
C509 C 0.26528 0.33472 0.33605 0.0
C510 C 0.36183 0.32071 0.2632 0.0
C511 C 0.37143 0.30262 0.25981 0.0
C512 C 0.36823 0.28704 0.27315 0.0
C513 C 0.3558 0.28939 0.28936 0.0
C514 C 0.34604 0.30738 0.29221 0.0
C515 C 0.34902 0.32262 0.27917 0.0
C516 C 0.33609 0.34004 0.28353 0.0
C517 C 0.32519 0.33285 0.30159 0.0
C518 C 0.33124 0.3138 0.30669 0.0
C519 C 0.34964 0.35821 0.28859 0.0
C520 C 0.32194 0.34281 0.26545 0.0
H521 H 0.2806 0.3154 0.36852 0.0
H522 H 0.31963 0.25436 0.3595 0.0
H523 H 0.30454 0.2634 0.31792 0.0
H524 H 0.32226 0.27125 0.30095 0.0
H525 H 0.3289 0.25332 0.31935 0.0
H526 H 0.35108 0.29179 0.35283 0.0
H527 H 0.3523 0.26696 0.343 0.0
H528 H 0.35983 0.28794 0.32867 0.0
H529 H 0.26062 0.37826 0.33537 0.0
H530 H 0.28971 0.40298 0.28468 0.0
H531 H 0.31326 0.37643 0.28499 0.0
H532 H 0.30184 0.36571 0.35884 0.0
H533 H 0.27797 0.35775 0.36722 0.0
H534 H 0.29908 0.34169 0.36806 0.0
H535 H 0.2598 0.33464 0.3204 0.0
H536 H 0.26559 0.31898 0.34011 0.0
H537 H 0.25413 0.34233 0.34523 0.0
H538 H 0.27626 0.28838 0.39112 0.0
C539 C 0.28937 0.30249 0.36619 0.0
C540 C 0.48677 0.89148 0.5102 0.0
C541 C 0.47396 0.88657 0.49413 0.0
C542 C 0.45761 0.89875 0.49029 0.0
C543 C 0.46745 0.92058 0.51773 0.0
C544 C 0.4833 0.9085 0.52167 0.0
C545 C 0.49587 0.91614 0.53884 0.0
H546 H 0.51356 0.98587 0.61042 0.0
C547 C 0.46847 0.93746 0.53197 0.0
C548 C 0.48514 0.93496 0.54434 0.0
H549 H 0.54577 0.93214 0.59902 0.0
H550 H 0.52428 0.92431 0.57106 0.0
H551 H 0.47051 0.96597 0.60429 0.0
H552 H 0.50818 0.99823 0.56494 0.0
H553 H 0.48382 0.00562 0.55998 0.0
H554 H 0.49475 0.01034 0.58424 0.0
H555 H 0.4752 0.99214 0.6069 0.0
H556 H 0.45552 0.98232 0.59103 0.0
C557 C 0.49497 0.90066 0.5555 0.0
C558 C 0.51698 0.92058 0.5312 0.0
C559 C 0.41677 0.99115 0.52884 0.0
C560 C 0.41441 0.00903 0.53946 0.0
C561 C 0.42819 0.01434 0.55462 0.0
C562 C 0.44405 0.00201 0.55919 0.0
C563 C 0.44624 0.98419 0.54842 0.0
C564 C 0.43277 0.97907 0.53348 0.0
C565 C 0.43781 0.95994 0.52314 0.0
C566 C 0.45641 0.95431 0.53449 0.0
C567 C 0.46122 0.96852 0.54932 0.0
C568 C 0.42058 0.94493 0.5262 0.0
C569 C 0.44205 0.96443 0.50115 0.0
C570 C 0.51597 0.9724 0.60191 0.0
C571 C 0.53144 0.95964 0.60696 0.0
C572 C 0.53417 0.94239 0.59531 0.0
C573 C 0.52153 0.93775 0.57917 0.0
C574 C 0.5059 0.95044 0.57458 0.0
C575 C 0.50339 0.96749 0.5858 0.0
C576 C 0.4858 0.97904 0.57892 0.0
C577 C 0.47803 0.96597 0.56188 0.0
C578 C 0.4899 0.94928 0.55939 0.0
C579 C 0.47093 0.98013 0.59612 0.0
C580 C 0.49335 0.99946 0.57174 0.0
H581 H 0.4417 0.9244 0.49817 0.0
H582 H 0.49935 0.88236 0.51372 0.0
H583 H 0.51632 0.92663 0.51599 0.0
H584 H 0.5251 0.932 0.54016 0.0
H585 H 0.52591 0.90692 0.53063 0.0
H586 H 0.48021 0.89306 0.55564 0.0
H587 H 0.50629 0.88911 0.55344 0.0
H588 H 0.49679 0.90736 0.57048 0.0
H589 H 0.40663 0.98686 0.51685 0.0
H590 H 0.4266 0.02801 0.56304 0.0
H591 H 0.45402 0.00686 0.57091 0.0
H592 H 0.41473 0.94636 0.54145 0.0
H593 H 0.40813 0.94749 0.51563 0.0
H594 H 0.42515 0.92936 0.52476 0.0
H595 H 0.44879 0.97947 0.49965 0.0
H596 H 0.45294 0.95433 0.49459 0.0
H597 H 0.42822 0.96381 0.492 0.0
H598 H 0.44766 0.89552 0.47785 0.0
C599 C 0.45427 0.91566 0.502 0.0
C600 C 0.17417 0.26307 0.7657 0.0
C601 C 0.16257 0.24553 0.76558 0.0
C602 C 0.16726 0.23004 0.75227 0.0
C603 C 0.19406 0.2499 0.73906 0.0
C604 C 0.18977 0.26491 0.7524 0.0
C605 C 0.20326 0.28272 0.75031 0.0
H606 H 0.27989 0.32722 0.70382 0.0
C607 C 0.21075 0.25674 0.7269 0.0
C608 C 0.21631 0.27592 0.7335 0.0
H609 H 0.24492 0.3509 0.75142 0.0
H610 H 0.22527 0.32069 0.75173 0.0
H611 H 0.24337 0.30914 0.67919 0.0
H612 H 0.28371 0.28306 0.72082 0.0
H613 H 0.27999 0.2659 0.70119 0.0
H614 H 0.29082 0.2899 0.69635 0.0
H615 H 0.26825 0.30307 0.67284 0.0
H616 H 0.24811 0.28526 0.67006 0.0
C617 C 0.19044 0.30058 0.74442 0.0
C618 C 0.21518 0.28575 0.76997 0.0
C619 C 0.23454 0.21344 0.67004 0.0
C620 C 0.24933 0.21609 0.65586 0.0
C621 C 0.26148 0.23328 0.65701 0.0
C622 C 0.25869 0.24778 0.67174 0.0
C623 C 0.24354 0.24515 0.68549 0.0
C624 C 0.23193 0.22809 0.68466 0.0
C625 C 0.21662 0.22782 0.70059 0.0
C626 C 0.2207 0.24773 0.71082 0.0
C627 C 0.23643 0.25781 0.70186 0.0
C628 C 0.19587 0.22684 0.6904 0.0
C629 C 0.22102 0.21029 0.71442 0.0
C630 C 0.26808 0.3258 0.71439 0.0
C631 C 0.26395 0.34142 0.72762 0.0
C632 C 0.24826 0.33913 0.74095 0.0
C633 C 0.23694 0.32153 0.74119 0.0
C634 C 0.24125 0.30603 0.72787 0.0
C635 C 0.25653 0.30838 0.7147 0.0
C636 C 0.25858 0.29062 0.70121 0.0
C637 C 0.24223 0.2771 0.70865 0.0
C638 C 0.23216 0.28616 0.7243 0.0
C639 C 0.25454 0.29722 0.67965 0.0
C640 C 0.27937 0.28187 0.70486 0.0
H641 H 0.18561 0.21985 0.72924 0.0
H642 H 0.17085 0.27536 0.77554 0.0
H643 H 0.21941 0.27124 0.77621 0.0
H644 H 0.22932 0.29389 0.76811 0.0
H645 H 0.20629 0.29362 0.78123 0.0
H646 H 0.17773 0.29571 0.73469 0.0
H647 H 0.1843 0.30804 0.7577 0.0
H648 H 0.19859 0.31161 0.73568 0.0
H649 H 0.22513 0.20027 0.66972 0.0
H650 H 0.27284 0.2358 0.64616 0.0
H651 H 0.26828 0.26061 0.67164 0.0
H652 H 0.19549 0.23639 0.67715 0.0
H653 H 0.19199 0.21147 0.68542 0.0
H654 H 0.18401 0.23238 0.69994 0.0
H655 H 0.23719 0.20741 0.71534 0.0
H656 H 0.21676 0.21328 0.7299 0.0
H657 H 0.21348 0.19645 0.70896 0.0
H658 H 0.15877 0.21628 0.75205 0.0
C659 C 0.18292 0.23212 0.73907 0.0
C660 C 0.72703 0.16295 0.74839 0.0
C661 C 0.70906 0.15953 0.73794 0.0
C662 C 0.70322 0.17307 0.72338 0.0
C663 C 0.73337 0.19246 0.72931 0.0
C664 C 0.7389 0.1794 0.74384 0.0
C665 C 0.75871 0.18482 0.75315 0.0
H666 H 0.84147 0.24289 0.75445 0.0
C667 C 0.74939 0.20751 0.72766 0.0
C668 C 0.76427 0.20314 0.74162 0.0
H669 H 0.82747 0.19418 0.79274 0.0
H670 H 0.79548 0.18983 0.77648 0.0
H671 H 0.79933 0.26288 0.75735 0.0
H672 H 0.82315 0.22291 0.71385 0.0
H673 H 0.81044 0.24146 0.70116 0.0
H674 H 0.83146 0.24821 0.7168 0.0
H675 H 0.81688 0.27098 0.73942 0.0
H676 H 0.79057 0.27046 0.73412 0.0
C677 C 0.75563 0.18968 0.77539 0.0
C678 C 0.77299 0.16753 0.74913 0.0
C679 C 0.74468 0.25984 0.67469 0.0
C680 C 0.75779 0.27488 0.66858 0.0
C681 C 0.77577 0.27805 0.67923 0.0
C682 C 0.78083 0.26617 0.69529 0.0
C683 C 0.76786 0.25082 0.7008 0.0
C684 C 0.75002 0.24802 0.6907 0.0
C685 C 0.73822 0.2308 0.6984 0.0
C686 C 0.75192 0.22372 0.71478 0.0
C687 C 0.76929 0.23544 0.71606 0.0
C688 C 0.71859 0.23879 0.70668 0.0
C689 C 0.73554 0.2152 0.68139 0.0
C690 C 0.83155 0.23117 0.75917 0.0
C691 C 0.83701 0.21872 0.77474 0.0
C692 C 0.82354 0.20395 0.78079 0.0
C693 C 0.80501 0.20142 0.77129 0.0
C694 C 0.79982 0.21386 0.75562 0.0
C695 C 0.81291 0.22859 0.74996 0.0
C696 C 0.80459 0.24087 0.73351 0.0
C697 C 0.78443 0.23095 0.73008 0.0
C698 C 0.78182 0.21502 0.74292 0.0
C699 C 0.80282 0.26249 0.7413 0.0
C700 C 0.81808 0.23845 0.71533 0.0
H701 H 0.70999 0.19919 0.70776 0.0
H702 H 0.73205 0.15274 0.75953 0.0
H703 H 0.7707 0.16144 0.73383 0.0
H704 H 0.78875 0.17206 0.75004 0.0
H705 H 0.77042 0.15526 0.75958 0.0
H706 H 0.74078 0.19609 0.77786 0.0
H707 H 0.7567 0.17617 0.78447 0.0
H708 H 0.76622 0.20107 0.78131 0.0
H709 H 0.73067 0.2571 0.66699 0.0
H710 H 0.7863 0.28931 0.67473 0.0
H711 H 0.79486 0.26916 0.70255 0.0
H712 H 0.72099 0.2536 0.71391 0.0
H713 H 0.70731 0.24042 0.69467 0.0
H714 H 0.71235 0.22941 0.71835 0.0
H715 H 0.74884 0.21488 0.6719 0.0
H716 H 0.73393 0.19991 0.68673 0.0
H717 H 0.72259 0.21859 0.67175 0.0
H718 H 0.68931 0.17093 0.71531 0.0
C719 C 0.71522 0.18952 0.71906 0.0
C720 C 0.53047 0.57907 0.47734 0.0
C721 C 0.51577 0.59361 0.478 0.0
C722 C 0.50165 0.59283 0.49314 0.0
C723 C 0.51678 0.56341 0.50634 0.0
C724 C 0.53067 0.56418 0.49157 0.0
C725 C 0.54515 0.54753 0.49289 0.0
H726 H 0.57669 0.46521 0.53914 0.0
C727 C 0.52103 0.54603 0.51868 0.0
C728 C 0.53765 0.53665 0.51086 0.0
H729 H 0.60165 0.49327 0.48794 0.0
H730 H 0.57659 0.51825 0.48913 0.0
H731 H 0.56943 0.50579 0.56371 0.0
H732 H 0.53146 0.46934 0.52575 0.0
H733 H 0.51724 0.47706 0.54589 0.0
H734 H 0.53867 0.46205 0.55023 0.0
H735 H 0.56001 0.48205 0.57104 0.0
H736 H 0.54617 0.50436 0.57489 0.0
C737 C 0.56612 0.55669 0.49663 0.0
C738 C 0.54302 0.5347 0.47369 0.0
C739 C 0.47735 0.53034 0.57726 0.0
C740 C 0.47749 0.51515 0.59129 0.0
C741 C 0.49228 0.50069 0.59018 0.0
C742 C 0.5066 0.50129 0.57542 0.0
C743 C 0.50623 0.51652 0.5615 0.0
C744 C 0.49177 0.53071 0.56257 0.0
C745 C 0.49363 0.54573 0.54647 0.0
C746 C 0.5116 0.53822 0.53558 0.0
C747 C 0.51892 0.52111 0.54447 0.0
C748 C 0.49769 0.56631 0.55638 0.0
C749 C 0.47458 0.54441 0.53334 0.0
C750 C 0.57687 0.47683 0.52828 0.0
C751 C 0.5912 0.47719 0.5134 0.0
C752 C 0.59065 0.49245 0.4994 0.0
C753 C 0.57614 0.50704 0.50019 0.0
C754 C 0.56193 0.50646 0.51514 0.0
C755 C 0.56246 0.49152 0.52886 0.0
C756 C 0.54614 0.4932 0.54365 0.0
C757 C 0.53575 0.51162 0.53658 0.0
C758 C 0.54506 0.51934 0.51988 0.0
C759 C 0.55578 0.49638 0.56449 0.0
C760 C 0.53266 0.47444 0.54149 0.0
H761 H 0.49092 0.57815 0.51837 0.0
H762 H 0.54142 0.57908 0.46582 0.0
H763 H 0.52729 0.53377 0.4685 0.0
H764 H 0.54732 0.51917 0.4758 0.0
H765 H 0.55185 0.5411 0.46156 0.0
H766 H 0.56547 0.57001 0.50652 0.0
H767 H 0.5729 0.56134 0.48255 0.0
H768 H 0.57625 0.5466 0.50433 0.0
H769 H 0.46609 0.54157 0.57752 0.0
H770 H 0.49293 0.48899 0.60094 0.0
H771 H 0.51744 0.48986 0.57545 0.0
H772 H 0.50729 0.56499 0.56985 0.0
H773 H 0.48368 0.57328 0.56099 0.0
H774 H 0.50585 0.57658 0.5468 0.0
H775 H 0.469 0.52884 0.53189 0.0
H776 H 0.47702 0.54908 0.51797 0.0
H777 H 0.46258 0.55338 0.53981 0.0
H778 H 0.49036 0.60397 0.49421 0.0
C779 C 0.50208 0.57786 0.50726 0.0
C780 C 0.53476 0.42924 0.99901 0.0
C781 C 0.51993 0.41481 0.99491 0.0
C782 C 0.50824 0.4162 0.97751 0.0
C783 C 0.52617 0.44603 0.96861 0.0
C784 C 0.5377 0.44458 0.98562 0.0
C785 C 0.55333 0.4607 0.98727 0.0
H786 H 0.60017 0.5388 0.94629 0.0
C787 C 0.53318 0.46351 0.95773 0.0
C788 C 0.54917 0.47211 0.96851 0.0
H789 H 0.61375 0.5108 0.00193 0.0
H790 H 0.58557 0.48873 0.99722 0.0
H791 H 0.55247 0.53994 0.95351 0.0
H792 H 0.58966 0.49986 0.9214 0.0
H793 H 0.56845 0.504 0.90667 0.0
H794 H 0.58481 0.52451 0.91327 0.0
H795 H 0.56305 0.54624 0.9302 0.0
H796 H 0.53966 0.533 0.93156 0.0
C797 C 0.54942 0.47329 0.00617 0.0
C798 C 0.57388 0.45082 0.98699 0.0
C799 C 0.49806 0.48259 0.894 0.0
C800 C 0.50095 0.49802 0.88058 0.0
C801 C 0.51695 0.51145 0.88388 0.0
C802 C 0.52969 0.50965 0.90037 0.0
C803 C 0.52642 0.49426 0.91376 0.0
C804 C 0.51088 0.48099 0.91036 0.0
C805 C 0.50961 0.46553 0.92606 0.0
C806 C 0.52672 0.47194 0.93968 0.0
C807 C 0.53653 0.48874 0.93242 0.0
C808 C 0.48937 0.46749 0.93633 0.0
C809 C 0.51305 0.445 0.91615 0.0
C810 C 0.59692 0.52813 0.95762 0.0
C811 C 0.60937 0.52644 0.97442 0.0
C812 C 0.60463 0.51218 0.98868 0.0
C813 C 0.58822 0.49939 0.98594 0.0
C814 C 0.57636 0.50081 0.96874 0.0
C815 C 0.58056 0.51525 0.95512 0.0
C816 C 0.56611 0.51477 0.93789 0.0
C817 C 0.5529 0.4973 0.94315 0.0
C818 C 0.55904 0.48914 0.9612 0.0
C819 C 0.55474 0.53451 0.93807 0.0
C820 C 0.57773 0.51071 0.9187 0.0
H821 H 0.5018 0.43201 0.95146 0.0
H822 H 0.5441 0.4284 0.01217 0.0
H823 H 0.57364 0.43763 0.97687 0.0
H824 H 0.58568 0.46056 0.98129 0.0
H825 H 0.57831 0.44581 0.00198 0.0
H826 H 0.53324 0.4745 0.00873 0.0
H827 H 0.55619 0.46653 0.01949 0.0
H828 H 0.55484 0.48876 0.00509 0.0
H829 H 0.48575 0.47217 0.89213 0.0
H830 H 0.51966 0.52335 0.87367 0.0
H831 H 0.54157 0.52034 0.90208 0.0
H832 H 0.48554 0.48335 0.93836 0.0
H833 H 0.47731 0.46019 0.92732 0.0
H834 H 0.4893 0.46134 0.95136 0.0
H835 H 0.52284 0.44629 0.90314 0.0
H836 H 0.5208 0.43471 0.92607 0.0
H837 H 0.49886 0.43802 0.91087 0.0
H838 H 0.4966 0.40534 0.97418 0.0
C839 C 0.51124 0.43174 0.96439 0.0
C840 C 0.75383 0.17091 0.26303 0.0
C841 C 0.75468 0.16026 0.24497 0.0
C842 C 0.74193 0.1655 0.22921 0.0
C843 C 0.72766 0.19127 0.24968 0.0
C844 C 0.7403 0.18626 0.26504 0.0
C845 C 0.73729 0.19875 0.28338 0.0
H846 H 0.69056 0.27447 0.32891 0.0
C847 C 0.71524 0.20769 0.25674 0.0
C848 C 0.72086 0.21218 0.27646 0.0
H849 H 0.73535 0.23655 0.35338 0.0
H850 H 0.73638 0.21804 0.32252 0.0
H851 H 0.6654 0.23921 0.30802 0.0
H852 H 0.70964 0.27936 0.28599 0.0
H853 H 0.69073 0.27709 0.26782 0.0
H854 H 0.6851 0.28699 0.29202 0.0
H855 H 0.66017 0.26458 0.30285 0.0
H856 H 0.65772 0.24536 0.284 0.0
C857 C 0.73045 0.18496 0.30017 0.0
C858 C 0.7568 0.21045 0.28803 0.0
C859 C 0.66152 0.23502 0.21168 0.0
C860 C 0.64759 0.25006 0.21425 0.0
C861 C 0.64805 0.26136 0.23202 0.0
C862 C 0.66182 0.25746 0.24714 0.0
C863 C 0.67531 0.24206 0.24456 0.0
C864 C 0.6752 0.23131 0.22695 0.0
C865 C 0.69078 0.21565 0.22679 0.0
C866 C 0.69989 0.21845 0.24739 0.0
C867 C 0.69072 0.2339 0.25773 0.0
C868 C 0.68025 0.19518 0.22413 0.0
C869 C 0.70574 0.22065 0.21038 0.0
C870 C 0.7006 0.2622 0.32754 0.0
C871 C 0.71292 0.25695 0.34353 0.0
C872 C 0.7256 0.24073 0.3413 0.0
C873 C 0.72627 0.2301 0.32333 0.0
C874 C 0.71405 0.23564 0.30738 0.0
C875 C 0.70131 0.25129 0.30973 0.0
C876 C 0.68886 0.25457 0.29143 0.0
C877 C 0.69651 0.23858 0.2776 0.0
C878 C 0.71136 0.22764 0.28697 0.0
C879 C 0.66685 0.25092 0.29671 0.0
C880 C 0.69361 0.27562 0.28387 0.0
H881 H 0.71915 0.18415 0.21894 0.0
H882 H 0.76316 0.16706 0.27555 0.0
H883 H 0.76354 0.21584 0.27416 0.0
H884 H 0.75463 0.22389 0.29721 0.0
H885 H 0.7678 0.20097 0.29555 0.0
H886 H 0.72166 0.17207 0.29411 0.0
H887 H 0.74332 0.17907 0.30853 0.0
H888 H 0.72043 0.19233 0.31065 0.0
H889 H 0.66172 0.22625 0.1981 0.0
H890 H 0.63737 0.2729 0.23445 0.0
H891 H 0.66122 0.26643 0.26038 0.0
H892 H 0.66636 0.19462 0.23275 0.0
H893 H 0.67623 0.19214 0.20833 0.0
H894 H 0.68916 0.18285 0.22969 0.0
H895 H 0.70741 0.23695 0.20867 0.0
H896 H 0.72086 0.21559 0.21383 0.0
H897 H 0.70076 0.21425 0.19582 0.0
H898 H 0.7424 0.15765 0.2151 0.0
C899 C 0.72848 0.18095 0.23146 0.0
C900 C 0.40631 -0.0003 0.99048 0.0
C901 C 0.40019 0.98512 0.97643 0.0
C902 C 0.41136 0.98252 0.95915 0.0
C903 C 0.43424 0.00866 0.9701 0.0
C904 C 0.42329 0.01125 0.98702 0.0
C905 C 0.43181 0.0274 0.00042 0.0
H906 H 0.49585 0.10451 0.01301 0.0
C907 C 0.45095 0.02306 0.97096 0.0
C908 C 0.44962 0.03411 0.98868 0.0
H909 H 0.45162 0.08364 0.05381 0.0
H910 H 0.44394 0.05588 0.032 0.0
H911 H 0.47295 0.09519 0.9722 0.0
H912 H 0.51408 0.06194 0.00705 0.0
H913 H 0.5179 0.05455 0.9824 0.0
H914 H 0.52243 0.08008 0.98989 0.0
H915 H 0.49862 0.10192 0.97596 0.0
H916 H 0.49078 0.08511 0.95631 0.0
C917 C 0.41617 0.0438 0.00224 0.0
C918 C 0.43802 0.01813 0.02039 0.0
C919 C 0.50066 0.02449 0.9154 0.0
C920 C 0.51797 0.03583 0.91241 0.0
C921 C 0.5233 0.05103 0.92614 0.0
C922 C 0.51167 0.05474 0.94274 0.0
C923 C 0.4946 0.04303 0.94573 0.0
C924 C 0.48932 0.02825 0.93214 0.0
C925 C 0.47101 0.01695 0.93801 0.0
C926 C 0.46643 0.02712 0.95758 0.0
C927 C 0.48019 0.04247 0.96191 0.0
C928 C 0.45466 0.02033 0.92208 0.0
C929 C 0.47654 0.99497 0.94076 0.0
C930 C 0.48474 0.09387 0.01757 0.0
C931 C 0.47402 0.09676 0.03507 0.0
C932 C 0.45968 0.08231 0.04015 0.0
C933 C 0.45527 0.0661 0.0275 0.0
C934 C 0.46543 0.06408 0.00963 0.0
C935 C 0.48039 0.07741 0.0053 0.0
C936 C 0.49062 0.0721 0.98638 0.0
C937 C 0.47859 0.05398 0.97957 0.0
C938 C 0.46366 0.04953 0.99308 0.0
C939 C 0.4883 0.08946 0.97188 0.0
C940 C 0.51242 0.06701 0.99153 0.0
H941 H 0.43619 0.99137 0.94254 0.0
H942 H 0.398 0.00217 0.00385 0.0
H943 H 0.44205 0.00233 0.01838 0.0
H944 H 0.45144 0.02534 0.02707 0.0
H945 H 0.42581 0.01871 0.03118 0.0
H946 H 0.40941 0.04689 0.9875 0.0
H947 H 0.40407 0.0392 0.0122 0.0
H948 H 0.4224 0.0581 0.00772 0.0
H949 H 0.49635 0.01252 0.90524 0.0
H950 H 0.53652 0.06002 0.92404 0.0
H951 H 0.51649 0.0665 0.95266 0.0
H952 H 0.45592 0.03549 0.91596 0.0
H953 H 0.45582 0.00959 0.90952 0.0
H954 H 0.43955 0.01946 0.92804 0.0
H955 H 0.49168 0.99381 0.94736 0.0
H956 H 0.46678 0.98715 0.9511 0.0
H957 H 0.47633 0.98679 0.92634 0.0
H958 H 0.4072 0.97117 0.94825 0.0
C959 C 0.4283 0.99418 0.95592 0.0
Zn960 Zn 0.28226 0.84053 0.0009 0.0
Zn961 Zn 0.25236 0.86527 0.00431 0.0
O962 O 0.25252 0.85058 0.03111 0.0
O963 O 0.27874 0.83182 0.02876 0.0
O964 O 0.2299 0.88455 0.00699 0.0
O965 O 0.30091 0.86316 0.99535 0.0
O966 O 0.27656 0.88383 0.00021 0.0
C967 C 0.26434 0.83811 0.03867 0.0
C968 C 0.2521 0.83291 0.97151 0.0
O969 O 0.24449 0.84823 0.97942 0.0
O970 O 0.26803 0.82608 0.97854 0.0
C971 C 0.21214 0.87882 0.00979 0.0
O972 O 0.20821 0.85975 0.01093 0.0
C973 C 0.2947 0.88072 0.99643 0.0
Zn974 Zn 0.10061 0.45696 0.28956 0.0
Zn975 Zn 0.11641 0.49217 0.27785 0.0
O976 O 0.09716 0.50031 0.29942 0.0
O977 O 0.08442 0.47213 0.30963 0.0
O978 O 0.12882 0.51819 0.27021 0.0
O979 O 0.12819 0.44785 0.29661 0.0
O980 O 0.14051 0.47637 0.28685 0.0
C981 C 0.08552 0.49088 0.31067 0.0
C982 C 0.09271 0.4657 0.24834 0.0
O983 O 0.10249 0.48154 0.25262 0.0
O984 O 0.08994 0.45276 0.26144 0.0
C985 C 0.13423 0.52202 0.25273 0.0
O986 O 0.13142 0.5086 0.23859 0.0
C987 C 0.14301 0.45918 0.29384 0.0
Zn988 Zn 0.78095 0.60202 0.95671 0.0
Zn989 Zn 0.77582 0.62098 0.992 0.0
O990 O 0.79752 0.60117 0.99849 0.0
O991 O 0.80232 0.58584 0.96996 0.0
O992 O 0.77217 0.636 0.01762 0.0
O993 O 0.788 0.6282 0.94426 0.0
O994 O 0.78361 0.64311 0.97303 0.0
C995 C 0.8065 0.58822 0.98823 0.0
C996 C 0.74153 0.59723 0.97236 0.0
O997 O 0.74866 0.60792 0.98657 0.0
O998 O 0.75221 0.59279 0.95774 0.0
C999 C 0.76992 0.62748 0.03408 0.0
O1000 O 0.77003 0.60803 0.03459 0.0
C1001 C 0.78797 0.64391 0.95478 0.0
Zn1002 Zn 0.84722 0.00285 0.27592 0.0
Zn1003 Zn 0.86451 0.0049 0.24077 0.0
O1004 O 0.8478 0.03045 0.24226 0.0
O1005 O 0.83242 0.02771 0.27056 0.0
O1006 O 0.8794 0.00774 0.21515 0.0
O1007 O 0.87352 0.00454 0.29025 0.0
O1008 O 0.88763 0.00286 0.26112 0.0
C1009 C 0.83563 0.03715 0.25488 0.0
C1010 C 0.83755 0.96945 0.2499 0.0
O1011 O 0.84781 0.97906 0.23748 0.0
O1012 O 0.83559 0.97624 0.26735 0.0
C1013 C 0.88708 0.99297 0.20643 0.0
O1014 O 0.88447 0.97522 0.21374 0.0
C1015 C 0.88896 0.00348 0.27998 0.0
Zn1016 Zn 0.27441 0.10188 0.45803 0.0
Zn1017 Zn 0.26975 0.12227 0.49244 0.0
O1018 O 0.29326 0.10416 0.49833 0.0
O1019 O 0.29862 0.08912 0.46978 0.0
O1020 O 0.26671 0.13769 0.51788 0.0
O1021 O 0.27702 0.12801 0.44387 0.0
O1022 O 0.2749 0.14403 0.4724 0.0
C1023 C 0.30326 0.09221 0.48784 0.0
C1024 C 0.23655 0.095 0.47614 0.0
O1025 O 0.24288 0.10808 0.48862 0.0
O1026 O 0.24739 0.08923 0.46213 0.0
C1027 C 0.26495 0.12914 0.53439 0.0
O1028 O 0.26514 0.1097 0.53484 0.0
C1029 C 0.27711 0.14417 0.45371 0.0
Zn1030 Zn 0.34469 0.50426 0.77563 0.0
Zn1031 Zn 0.36654 0.50531 0.74311 0.0
O1032 O 0.34995 0.53069 0.74087 0.0
O1033 O 0.32983 0.52799 0.7661 0.0
O1034 O 0.38433 0.50609 0.71934 0.0
O1035 O 0.36912 0.50733 0.79304 0.0
O1036 O 0.38703 0.50602 0.76617 0.0
C1037 C 0.33551 0.5371 0.75093 0.0
C1038 C 0.33922 0.4694 0.75133 0.0
O1039 O 0.35065 0.47875 0.73971 0.0
O1040 O 0.33494 0.47697 0.76796 0.0
C1041 C 0.3782 0.50887 0.70171 0.0
O1042 O 0.35917 0.51117 0.69833 0.0
C1043 C 0.38591 0.50711 0.78499 0.0
Zn1044 Zn 0.77527 0.34465 0.49851 0.0
Zn1045 Zn 0.74174 0.36487 0.50154 0.0
O1046 O 0.74384 0.35111 0.5287 0.0
O1047 O 0.77168 0.33485 0.52613 0.0
O1048 O 0.71775 0.38223 0.50377 0.0
O1049 O 0.79121 0.36941 0.49397 0.0
O1050 O 0.76353 0.3859 0.49629 0.0
C1051 C 0.75681 0.33976 0.53615 0.0
C1052 C 0.74595 0.33318 0.46879 0.0
O1053 O 0.73547 0.34609 0.47756 0.0
O1054 O 0.76334 0.32984 0.47503 0.0
C1055 C 0.70002 0.37616 0.50605 0.0
O1056 O 0.69633 0.35705 0.50714 0.0
C1057 C 0.78217 0.38565 0.49358 0.0
Zn1058 Zn 0.61534 0.9532 0.77573 0.0
Zn1059 Zn 0.63201 0.98921 0.76886 0.0
O1060 O 0.61353 0.99497 0.79188 0.0
O1061 O 0.60004 0.96585 0.79805 0.0
O1062 O 0.64504 0.01561 0.76388 0.0
O1063 O 0.64256 0.94236 0.78119 0.0
O1064 O 0.65569 0.97177 0.77571 0.0
C1065 C 0.60185 0.98424 0.8019 0.0
C1066 C 0.60713 0.96761 0.73646 0.0
O1067 O 0.61753 0.98246 0.74262 0.0
O1068 O 0.60412 0.95308 0.74771 0.0
C1069 C 0.6351 0.03134 0.76239 0.0
O1070 O 0.61576 0.03035 0.76407 0.0
C1071 C 0.65767 0.95367 0.78024 0.0
Zn1072 Zn 0.00179 0.27503 0.85326 0.0
Zn1073 Zn 0.00349 0.23956 0.87012 0.0
O1074 O 0.02976 0.24149 0.85454 0.0
O1075 O 0.0273 0.26998 0.83944 0.0
O1076 O 0.0051 0.21345 0.8843 0.0
O1077 O 0.00245 0.28876 0.87994 0.0
O1078 O 0.00026 0.25937 0.89348 0.0
C1079 C 0.03681 0.25439 0.84285 0.0
C1080 C 0.9688 0.24903 0.84224 0.0
O1081 O 0.97826 0.2366 0.85261 0.0
O1082 O 0.97551 0.26656 0.8406 0.0
C1083 C 0.02028 0.20964 0.8949 0.0
O1084 O 0.03507 0.22255 0.8958 0.0
C1085 C 0.00074 0.2782 0.89513 0.0
Zn1086 Zn 0.49829 0.77665 0.34388 0.0
Zn1087 Zn 0.50256 0.74514 0.36684 0.0
O1088 O 0.52827 0.74524 0.35049 0.0
O1089 O 0.5245 0.77109 0.33147 0.0
O1090 O 0.5057 0.72204 0.38526 0.0
O1091 O 0.49691 0.79474 0.36763 0.0
O1092 O 0.4997 0.76875 0.38659 0.0
C1093 C 0.53471 0.75658 0.33702 0.0
C1094 C 0.46699 0.74775 0.33796 0.0
O1095 O 0.47693 0.73815 0.35072 0.0
O1096 O 0.473 0.76466 0.3326 0.0
C1097 C 0.50817 0.70435 0.37913 0.0
O1098 O 0.50883 0.70074 0.35997 0.0
C1099 C 0.4976 0.78737 0.38472 0.0
Zn1100 Zn 0.95665 0.79197 0.6011 0.0
Zn1101 Zn 0.98963 0.77455 0.61494 0.0
O1102 O 3e-05 0.79461 0.59487 0.0
O1103 O 0.97377 0.81209 0.58729 0.0
O1104 O 0.0144 0.76338 0.62699 0.0
O1105 O 0.94766 0.7973 0.62904 0.0
O1106 O 0.97587 0.78525 0.63967 0.0
C1107 C 0.99211 0.80893 0.58581 0.0
C1108 C 0.96002 0.75024 0.59022 0.0
O1109 O 0.97532 0.75099 0.60151 0.0
O1110 O 0.95011 0.76568 0.58703 0.0
C1111 C 0.02634 0.77569 0.63551 0.0
O1112 O 0.02222 0.79463 0.63519 0.0
C1113 C 0.95936 0.7933 0.64322 0.0
Zn1114 Zn 0.4536 0.2713 0.09405 0.0
Zn1115 Zn 0.48817 0.27169 0.11466 0.0
O1116 O 0.49246 0.29403 0.09491 0.0
O1117 O 0.46315 0.29603 0.08032 0.0
O1118 O 0.51352 0.27119 0.13065 0.0
O1119 O 0.43898 0.27338 0.11999 0.0
O1120 O 0.46765 0.27771 0.13574 0.0
C1121 C 0.48081 0.30238 0.08271 0.0
C1122 C 0.47495 0.23528 0.08966 0.0
O1123 O 0.4864 0.24357 0.10261 0.0
O1124 O 0.46026 0.24442 0.08266 0.0
C1125 C 0.53035 0.2696 0.1227 0.0
O1126 O 0.53138 0.26873 0.10329 0.0
C1127 C 0.4488 0.27705 0.13582 0.0
C1128 C 0.21035 0.77799 0.87191 0.0
C1129 C 0.22615 0.77859 0.8587 0.0
C1130 C 0.21176 0.7878 0.89041 0.0
C1131 C 0.22929 0.7986 0.89568 0.0
C1132 C 0.24487 0.80001 0.88197 0.0
C1133 C 0.24316 0.78988 0.8637 0.0
C1134 C 0.19492 0.78577 0.90469 0.0
C1135 C 0.26371 0.81159 0.88691 0.0
C1136 C 0.2327 0.83466 0.9396 0.0
C1137 C 0.24339 0.82354 0.95334 0.0
C1138 C 0.22722 0.82651 0.92093 0.0
C1139 C 0.23233 0.80675 0.91614 0.0
C1140 C 0.24198 0.79513 0.9305 0.0
C1141 C 0.24752 0.80371 0.94884 0.0
C1142 C 0.21703 0.83939 0.90597 0.0
C1143 C 0.24736 0.77389 0.92615 0.0
H1144 H 0.19722 0.76917 0.86809 0.0
H1145 H 0.25526 0.79057 0.85338 0.0
H1146 H 0.19965 0.77658 0.91732 0.0
H1147 H 0.19092 0.80048 0.91083 0.0
H1148 H 0.18153 0.77873 0.89759 0.0
H1149 H 0.27359 0.81275 0.87398 0.0
H1150 H 0.26019 0.82675 0.89222 0.0
H1151 H 0.2719 0.80425 0.89904 0.0
H1152 H 0.22954 0.85002 0.94301 0.0
H1153 H 0.25558 0.79499 0.95952 0.0
H1154 H 0.20403 0.83147 0.89914 0.0
H1155 H 0.22741 0.84283 0.89389 0.0
H1156 H 0.21206 0.85355 0.91268 0.0
H1157 H 0.23427 0.76541 0.92022 0.0
H1158 H 0.2531 0.76634 0.93951 0.0
H1159 H 0.2589 0.77345 0.91465 0.0
C1160 C 0.02163 0.54887 0.39159 0.0
C1161 C 0.00173 0.54883 0.38529 0.0
C1162 C 0.03628 0.54077 0.37956 0.0
C1163 C 0.03087 0.53257 0.36076 0.0
C1164 C 0.01092 0.5332 0.35401 0.0
C1165 C 0.99656 0.54125 0.36641 0.0
C1166 C 0.05737 0.54024 0.38732 0.0
C1167 C 0.00463 0.52482 0.33395 0.0
C1168 C 0.07037 0.52238 0.32272 0.0
C1169 C 0.07253 0.50183 0.32433 0.0
C1170 C 0.05705 0.53268 0.33467 0.0
C1171 C 0.04578 0.52219 0.34865 0.0
C1172 C 0.0483 0.50156 0.35073 0.0
C1173 C 0.06158 0.49162 0.33848 0.0
C1174 C 0.05466 0.55467 0.33198 0.0
C1175 C 0.03669 0.4899 0.36564 0.0
H1176 H 0.02564 0.55452 0.40627 0.0
H1177 H 0.98121 0.54139 0.36145 0.0
H1178 H 0.06169 0.52464 0.38952 0.0
H1179 H 0.06764 0.54664 0.37639 0.0
H1180 H 0.05939 0.54848 0.40161 0.0
H1181 H 0.98883 0.52773 0.33036 0.0
H1182 H 0.01395 0.53126 0.32224 0.0
H1183 H 0.0068 0.50857 0.33357 0.0
H1184 H 0.07874 0.53039 0.31178 0.0
H1185 H 0.06324 0.47577 0.33991 0.0
H1186 H 0.05714 0.56268 0.34632 0.0
H1187 H 0.03929 0.55769 0.32695 0.0
H1188 H 0.06508 0.56077 0.321 0.0
H1189 H 0.03897 0.49652 0.38068 0.0
H1190 H 0.04102 0.47411 0.36599 0.0
H1191 H 0.02063 0.49054 0.36202 0.0
C1192 C 0.79362 0.74673 0.8989 0.0
C1193 C 0.81304 0.7543 0.8977 0.0
C1194 C 0.78953 0.72934 0.90923 0.0
C1195 C 0.80524 0.71924 0.91856 0.0
C1196 C 0.8248 0.72707 0.91785 0.0
C1197 C 0.82847 0.74451 0.90742 0.0
C1198 C 0.76848 0.72144 0.90963 0.0
C1199 C 0.84192 0.71674 0.92768 0.0
C1200 C 0.79219 0.68088 0.95695 0.0
C1201 C 0.79282 0.66321 0.94573 0.0
C1202 C 0.79638 0.69924 0.94837 0.0
C1203 C 0.80132 0.69993 0.92811 0.0
C1204 C 0.80217 0.68216 0.91676 0.0
C1205 C 0.7979 0.66403 0.9257 0.0
C1206 C 0.79532 0.71792 0.96091 0.0
C1207 C 0.8074 0.6823 0.8951 0.0
H1208 H 0.78167 0.75406 0.89119 0.0
H1209 H 0.84346 0.75044 0.90676 0.0
H1210 H 0.76744 0.70695 0.90163 0.0
H1211 H 0.764 0.71889 0.92511 0.0
H1212 H 0.75781 0.73167 0.90266 0.0
H1213 H 0.85605 0.72529 0.92664 0.0
H1214 H 0.83879 0.71431 0.94353 0.0
H1215 H 0.84383 0.70196 0.9206 0.0
H1216 H 0.78829 0.6804 0.97244 0.0
H1217 H 0.79847 0.65047 0.9169 0.0
H1218 H 0.78386 0.72776 0.95473 0.0
H1219 H 0.80967 0.72616 0.96064 0.0
H1220 H 0.79172 0.71481 0.97656 0.0
H1221 H 0.79643 0.69105 0.8867 0.0
H1222 H 0.80775 0.66714 0.88845 0.0
H1223 H 0.82211 0.68953 0.89326 0.0
C1224 C 0.99358 0.99814 0.33858 0.0
C1225 C 0.99079 0.98475 0.35404 0.0
C1226 C 0.97848 0.0015 0.32453 0.0
C1227 C 0.96035 0.99079 0.32558 0.0
C1228 C 0.95786 0.9764 0.34035 0.0
C1229 C 0.97293 0.97378 0.35455 0.0
C1230 C 0.98158 0.01721 0.30919 0.0
C1231 C 0.93889 0.96433 0.3417 0.0
C1232 C 0.91167 0.0121 0.3083 0.0
C1233 C 0.90836 0.00207 0.29019 0.0
C1234 C 0.9291 0.00937 0.31939 0.0
C1235 C 0.94328 0.99579 0.31249 0.0
C1236 C 0.94027 0.98604 0.2939 0.0
C1237 C 0.92291 0.98953 0.2828 0.0
C1238 C 0.932 0.0205 0.33886 0.0
C1239 C 0.95479 0.9711 0.28629 0.0
H1240 H 0.00745 0.00636 0.33765 0.0
H1241 H 0.97031 0.96362 0.3665 0.0
H1242 H 0.97794 0.0112 0.29415 0.0
H1243 H 0.97143 0.02965 0.31204 0.0
H1244 H 0.99703 0.02314 0.30937 0.0
H1245 H 0.94022 0.95212 0.35243 0.0
H1246 H 0.92672 0.97406 0.34646 0.0
H1247 H 0.93461 0.95789 0.32698 0.0
H1248 H 0.90046 0.02193 0.31392 0.0
H1249 H 0.92024 0.98165 0.26885 0.0
H1250 H 0.94688 0.02774 0.33963 0.0
H1251 H 0.93117 0.00999 0.35128 0.0
H1252 H 0.92064 0.032 0.34108 0.0
H1253 H 0.97011 0.97731 0.287 0.0
H1254 H 0.9513 0.96626 0.27079 0.0
H1255 H 0.95448 0.95789 0.29583 0.0
C1256 C 0.23487 0.19379 0.62912 0.0
C1257 C 0.25161 0.20148 0.6394 0.0
C1258 C 0.23681 0.18108 0.61263 0.0
C1259 C 0.25594 0.17594 0.60628 0.0
C1260 C 0.27288 0.18321 0.61692 0.0
C1261 C 0.27051 0.19591 0.63335 0.0
C1262 C 0.21839 0.17366 0.60164 0.0
C1263 C 0.29353 0.17797 0.61066 0.0
C1264 C 0.26111 0.13175 0.5712 0.0
C1265 C 0.26266 0.14102 0.55284 0.0
C1266 C 0.25893 0.14291 0.58875 0.0
C1267 C 0.25827 0.16382 0.5879 0.0
C1268 C 0.25982 0.17326 0.56942 0.0
C1269 C 0.26201 0.16176 0.55213 0.0
C1270 C 0.25734 0.13235 0.6082 0.0
C1271 C 0.25915 0.19554 0.56791 0.0
H1272 H 0.22023 0.19822 0.63358 0.0
H1273 H 0.28348 0.2016 0.64141 0.0
H1274 H 0.21812 0.17966 0.58644 0.0
H1275 H 0.21848 0.15727 0.60016 0.0
H1276 H 0.20461 0.17807 0.60917 0.0
H1277 H 0.3051 0.18401 0.62112 0.0
H1278 H 0.29498 0.16165 0.60959 0.0
H1279 H 0.29636 0.18391 0.59573 0.0
H1280 H 0.26161 0.11574 0.57188 0.0
H1281 H 0.26318 0.16906 0.53803 0.0
H1282 H 0.24311 0.13596 0.61528 0.0
H1283 H 0.26941 0.13751 0.61849 0.0
H1284 H 0.25817 0.11601 0.60634 0.0
H1285 H 0.24501 0.201 0.57387 0.0
H1286 H 0.26052 0.20057 0.55241 0.0
H1287 H 0.27133 0.20248 0.57699 0.0
C1288 C 0.45357 0.49623 0.61219 0.0
C1289 C 0.46236 0.51437 0.60706 0.0
C1290 C 0.43957 0.49519 0.6273 0.0
C1291 C 0.43421 0.51271 0.63755 0.0
C1292 C 0.44289 0.53109 0.63233 0.0
C1293 C 0.45685 0.5317 0.61715 0.0
C1294 C 0.43059 0.47532 0.63236 0.0
C1295 C 0.43763 0.5501 0.64296 0.0
C1296 C 0.38585 0.51273 0.66572 0.0
C1297 C 0.39248 0.50976 0.68524 0.0
C1298 C 0.39925 0.51373 0.65006 0.0
C1299 C 0.41979 0.51174 0.65399 0.0
C1300 C 0.42657 0.50874 0.67365 0.0
C1301 C 0.41286 0.50778 0.68902 0.0
C1302 C 0.39144 0.51693 0.62929 0.0
C1303 C 0.44835 0.50655 0.67847 0.0
H1304 H 0.45752 0.48281 0.60427 0.0
H1305 H 0.46374 0.54574 0.61344 0.0
H1306 H 0.43406 0.47189 0.64804 0.0
H1307 H 0.41423 0.47573 0.63074 0.0
H1308 H 0.43612 0.46313 0.62279 0.0
H1309 H 0.44535 0.56323 0.63683 0.0
H1310 H 0.42141 0.55238 0.64189 0.0
H1311 H 0.4416 0.54913 0.65892 0.0
H1312 H 0.37015 0.51429 0.66264 0.0
H1313 H 0.41815 0.5055 0.70404 0.0
H1314 H 0.39573 0.50445 0.61945 0.0
H1315 H 0.39813 0.53063 0.62326 0.0
H1316 H 0.37506 0.51818 0.62869 0.0
H1317 H 0.45426 0.49372 0.67012 0.0
H1318 H 0.45122 0.50438 0.69453 0.0
H1319 H 0.4567 0.51992 0.67381 0.0
C1320 C 0.75841 0.30652 0.64953 0.0
C1321 C 0.75348 0.28628 0.65039 0.0
C1322 C 0.75668 0.31681 0.63171 0.0
C1323 C 0.74982 0.30662 0.61434 0.0
C1324 C 0.74371 0.2865 0.61538 0.0
C1325 C 0.74568 0.27657 0.63336 0.0
C1326 C 0.76328 0.33827 0.63122 0.0
C1327 C 0.73629 0.2751 0.59722 0.0
C1328 C 0.73746 0.33454 0.56725 0.0
C1329 C 0.75487 0.33208 0.55649 0.0
C1330 C 0.7356 0.32659 0.58627 0.0
C1331 C 0.75155 0.31606 0.59469 0.0
C1332 C 0.76926 0.31389 0.58403 0.0
C1333 C 0.77067 0.32187 0.56511 0.0
C1334 C 0.71649 0.32913 0.59722 0.0
C1335 C 0.78668 0.30288 0.5925 0.0
H1336 H 0.7641 0.31423 0.66271 0.0
H1337 H 0.74201 0.2609 0.63379 0.0
H1338 H 0.7773 0.33952 0.62296 0.0
H1339 H 0.75211 0.34721 0.62335 0.0
H1340 H 0.76583 0.3447 0.64633 0.0
H1341 H 0.72982 0.26042 0.60097 0.0
H1342 H 0.72492 0.28363 0.58914 0.0
H1343 H 0.74875 0.27271 0.587 0.0
H1344 H 0.72519 0.34241 0.5607 0.0
H1345 H 0.78426 0.32 0.55702 0.0
H1346 H 0.71952 0.33596 0.61205 0.0
H1347 H 0.70943 0.31442 0.59959 0.0
H1348 H 0.70584 0.33848 0.58905 0.0
H1349 H 0.79138 0.30957 0.60699 0.0
H1350 H 0.79959 0.30302 0.58252 0.0
H1351 H 0.7823 0.28724 0.59513 0.0
C1352 C 0.56437 0.95989 0.6248 0.0
C1353 C 0.54399 0.9636 0.62493 0.0
C1354 C 0.57598 0.96184 0.64218 0.0
C1355 C 0.567 0.9677 0.66008 0.0
C1356 C 0.54662 0.97227 0.66013 0.0
C1357 C 0.53535 0.9701 0.64257 0.0
C1358 C 0.59769 0.95689 0.64156 0.0
C1359 C 0.53652 0.97862 0.67893 0.0
C1360 C 0.58823 0.95029 0.70893 0.0
C1361 C 0.59795 0.96745 0.71637 0.0
C1362 C 0.57852 0.95009 0.69042 0.0
C1363 C 0.57844 0.96751 0.67907 0.0
C1364 C 0.58856 0.98478 0.68626 0.0
C1365 C 0.59826 0.98454 0.70483 0.0
C1366 C 0.568 0.93132 0.68319 0.0
C1367 C 0.58872 0.00363 0.67456 0.0
H1368 H 0.57119 0.95517 0.61114 0.0
H1369 H 0.51958 0.97278 0.64287 0.0
H1370 H 0.60682 0.96913 0.64833 0.0
H1371 H 0.60044 0.94346 0.65036 0.0
H1372 H 0.60275 0.95412 0.6262 0.0
H1373 H 0.52102 0.98325 0.67613 0.0
H1374 H 0.53632 0.96618 0.68944 0.0
H1375 H 0.54484 0.99112 0.68624 0.0
H1376 H 0.58801 0.93698 0.71767 0.0
H1377 H 0.60572 0.99787 0.71047 0.0
H1378 H 0.57342 0.9269 0.66837 0.0
H1379 H 0.55188 0.93396 0.68159 0.0
H1380 H 0.57017 0.91882 0.69343 0.0
H1381 H 0.59417 0.00072 0.65941 0.0
H1382 H 0.59815 0.01545 0.68172 0.0
H1383 H 0.5734 0.00917 0.673 0.0
C1384 C 0.87385 0.22306 0.77363 0.0
C1385 C 0.85661 0.2213 0.78478 0.0
C1386 C 0.89243 0.22617 0.78291 0.0
C1387 C 0.89375 0.22788 0.80382 0.0
C1388 C 0.87642 0.22582 0.81517 0.0
C1389 C 0.85806 0.22241 0.80551 0.0
C1390 C 0.91061 0.228 0.77031 0.0
C1391 C 0.87717 0.22786 0.83748 0.0
C1392 C 0.94389 0.2234 0.82992 0.0
C1393 C 0.94968 0.24336 0.8324 0.0
C1394 C 0.92578 0.21808 0.82051 0.0
C1395 C 0.91306 0.23309 0.81373 0.0
C1396 C 0.91876 0.25324 0.81637 0.0
C1397 C 0.93704 0.25811 0.82552 0.0
C1398 C 0.9203 0.19643 0.8177 0.0
C1399 C 0.9055 0.26969 0.80961 0.0
H1400 H 0.87276 0.22196 0.7576 0.0
H1401 H 0.84472 0.22121 0.81414 0.0
H1402 H 0.91703 0.2432 0.77187 0.0
H1403 H 0.92209 0.2176 0.77541 0.0
H1404 H 0.90725 0.22491 0.75437 0.0
H1405 H 0.86251 0.22497 0.84417 0.0
H1406 H 0.888 0.21743 0.8438 0.0
H1407 H 0.88226 0.24306 0.84184 0.0
H1408 H 0.95362 0.21192 0.83514 0.0
H1409 H 0.94131 0.27358 0.8275 0.0
H1410 H 0.91788 0.19293 0.80171 0.0
H1411 H 0.90619 0.19309 0.82524 0.0
H1412 H 0.93191 0.18657 0.82362 0.0
H1413 H 0.90283 0.26844 0.79337 0.0
H1414 H 0.91194 0.28462 0.81313 0.0
H1415 H 0.89088 0.26839 0.81677 0.0
C1416 C 0.46261 0.85736 0.47311 0.0
C1417 C 0.47813 0.86945 0.48078 0.0
C1418 C 0.46615 0.84242 0.45898 0.0
C1419 C 0.4857 0.83942 0.45243 0.0
C1420 C 0.50155 0.85089 0.46084 0.0
C1421 C 0.49757 0.86582 0.47485 0.0
C1422 C 0.44884 0.83048 0.45036 0.0
C1423 C 0.52261 0.84811 0.45429 0.0
C1424 C 0.4963 0.79316 0.42158 0.0
C1425 C 0.49522 0.80054 0.4023 0.0
C1426 C 0.4934 0.80564 0.43814 0.0
C1427 C 0.48923 0.82589 0.43529 0.0
C1428 C 0.48827 0.83341 0.41588 0.0
C1429 C 0.49133 0.82068 0.39967 0.0
C1430 C 0.49467 0.79718 0.45866 0.0
C1431 C 0.4838 0.8549 0.41219 0.0
H1432 H 0.4476 0.85983 0.4779 0.0
H1433 H 0.50964 0.8752 0.48053 0.0
H1434 H 0.44659 0.83426 0.43456 0.0
H1435 H 0.45192 0.81441 0.45089 0.0
H1436 H 0.43489 0.83334 0.45831 0.0
H1437 H 0.53345 0.85654 0.46386 0.0
H1438 H 0.52643 0.8322 0.45443 0.0
H1439 H 0.52412 0.8532 0.43885 0.0
H1440 H 0.49931 0.77763 0.42375 0.0
H1441 H 0.49043 0.82656 0.38486 0.0
H1442 H 0.48032 0.79893 0.46618 0.0
H1443 H 0.50605 0.80545 0.4677 0.0
H1444 H 0.49844 0.78123 0.45839 0.0
H1445 H 0.46916 0.85859 0.41835 0.0
H1446 H 0.48364 0.85841 0.39618 0.0
H1447 H 0.49504 0.86462 0.41986 0.0
C1448 C 0.12715 0.23568 0.7711 0.0
C1449 C 0.1451 0.24377 0.77861 0.0
C1450 C 0.11004 0.23544 0.78261 0.0
C1451 C 0.11086 0.24353 0.8021 0.0
C1452 C 0.12912 0.25095 0.81006 0.0
C1453 C 0.14601 0.251 0.79822 0.0
C1454 C 0.09086 0.22745 0.77353 0.0
C1455 C 0.13062 0.25964 0.8308 0.0
C1456 C 0.06353 0.26618 0.82059 0.0
C1457 C 0.05605 0.25144 0.83299 0.0
C1458 C 0.08141 0.26381 0.81071 0.0
C1459 C 0.09223 0.24625 0.81322 0.0
C1460 C 0.08497 0.23136 0.82586 0.0
C1461 C 0.06693 0.23412 0.83562 0.0
C1462 C 0.08862 0.28008 0.79739 0.0
C1463 C 0.09613 0.21245 0.82889 0.0
H1464 H 0.12624 0.23026 0.7559 0.0
H1465 H 0.15991 0.25698 0.80423 0.0
H1466 H 0.08366 0.21686 0.78364 0.0
H1467 H 0.08049 0.23981 0.77126 0.0
H1468 H 0.09311 0.21987 0.75902 0.0
H1469 H 0.14621 0.26289 0.8355 0.0
H1470 H 0.12224 0.27362 0.83153 0.0
H1471 H 0.12389 0.24935 0.84151 0.0
H1472 H 0.05532 0.27965 0.81847 0.0
H1473 H 0.06131 0.22268 0.84518 0.0
H1474 H 0.08978 0.27429 0.78198 0.0
H1475 H 0.10364 0.28529 0.80225 0.0
H1476 H 0.07863 0.29298 0.79732 0.0
H1477 H 0.09728 0.20428 0.81457 0.0
H1478 H 0.08885 0.20261 0.83969 0.0
H1479 H 0.11146 0.21592 0.83423 0.0
C1480 C 0.49689 0.61533 0.45481 0.0
C1481 C 0.51508 0.60953 0.46302 0.0
C1482 C 0.49593 0.63057 0.44096 0.0
C1483 C 0.51359 0.64028 0.43511 0.0
C1484 C 0.53202 0.63439 0.4432 0.0
C1485 C 0.53255 0.6191 0.45704 0.0
C1486 C 0.47598 0.63633 0.43262 0.0
C1487 C 0.55117 0.64441 0.43739 0.0
C1488 C 0.51238 0.6684 0.38674 0.0
C1489 C 0.50996 0.68799 0.39345 0.0
C1490 C 0.51376 0.65276 0.40013 0.0
C1491 C 0.51269 0.65677 0.42074 0.0
C1492 C 0.51042 0.67652 0.42761 0.0
C1493 C 0.50908 0.69187 0.4139 0.0
C1494 C 0.51619 0.6319 0.39221 0.0
C1495 C 0.50923 0.68141 0.44946 0.0
H1496 H 0.48336 0.60782 0.45911 0.0
H1497 H 0.54664 0.61487 0.46348 0.0
H1498 H 0.47322 0.65214 0.4362 0.0
H1499 H 0.47582 0.6347 0.41624 0.0
H1500 H 0.46367 0.6272 0.43855 0.0
H1501 H 0.5643 0.63782 0.44471 0.0
H1502 H 0.55293 0.6433 0.42111 0.0
H1503 H 0.55083 0.6604 0.44143 0.0
H1504 H 0.5131 0.66524 0.37098 0.0
H1505 H 0.50723 0.70694 0.41926 0.0
H1506 H 0.5035 0.62245 0.39672 0.0
H1507 H 0.52981 0.62543 0.39862 0.0
H1508 H 0.5171 0.63129 0.3758 0.0
H1509 H 0.49629 0.67361 0.45582 0.0
H1510 H 0.50783 0.69756 0.45242 0.0
H1511 H 0.52265 0.67618 0.45735 0.0
C1512 C 0.91472 0.78991 0.7507 0.0
C1513 C 0.91465 0.8084 0.76047 0.0
C1514 C 0.9242 0.78748 0.73253 0.0
C1515 C 0.9339 0.80393 0.724 0.0
C1516 C 0.93491 0.82233 0.73438 0.0
C1517 C 0.92519 0.82437 0.75248 0.0
C1518 C 0.92274 0.76764 0.72189 0.0
C1519 C 0.94533 0.84013 0.72587 0.0
C1520 C 0.96647 0.79348 0.67981 0.0
C1521 C 0.95343 0.79717 0.66393 0.0
C1522 C 0.96053 0.79607 0.69951 0.0
C1523 C 0.94107 0.80237 0.70336 0.0
C1524 C 0.928 0.80651 0.6874 0.0
C1525 C 0.93436 0.80393 0.6679 0.0
C1526 C 0.97491 0.79169 0.71617 0.0
C1527 C 0.9071 0.81322 0.69091 0.0
H1528 H 0.90642 0.77759 0.7567 0.0
H1529 H 0.92535 0.83863 0.76012 0.0
H1530 H 0.91317 0.76887 0.70846 0.0
H1531 H 0.93755 0.76296 0.71696 0.0
H1532 H 0.91639 0.75591 0.73135 0.0
H1533 H 0.94688 0.85257 0.73681 0.0
H1534 H 0.96027 0.83613 0.72071 0.0
H1535 H 0.93681 0.84533 0.71282 0.0
H1536 H 0.98127 0.78834 0.67689 0.0
H1537 H 0.92418 0.80684 0.65575 0.0
H1538 H 0.96929 0.77894 0.72471 0.0
H1539 H 0.97622 0.80456 0.72658 0.0
H1540 H 0.98988 0.78814 0.71071 0.0
H1541 H 0.89877 0.80163 0.69892 0.0
H1542 H 0.89897 0.8163 0.67689 0.0
H1543 H 0.90731 0.82683 0.70036 0.0
C1544 C 0.05042 0.87542 0.50728 0.0
C1545 C 0.03638 0.87939 0.49229 0.0
C1546 C 0.04574 0.86298 0.52303 0.0
C1547 C 0.02686 0.85362 0.5234 0.0
C1548 C 0.01322 0.85627 0.50756 0.0
C1549 C 0.01798 0.86937 0.49242 0.0
C1550 C 0.06056 0.8608 0.53983 0.0
C1551 C 0.99314 0.84602 0.50708 0.0
C1552 C 0.01572 0.81134 0.55808 0.0
C1553 C 0.00368 0.82076 0.57191 0.0
C1554 C 0.02396 0.82195 0.54243 0.0
C1555 C 0.02055 0.84252 0.54109 0.0
C1556 C 0.00952 0.85229 0.55588 0.0
C1557 C 0.00086 0.84119 0.5709 0.0
C1558 C 0.03509 0.81088 0.52665 0.0
C1559 C 0.00612 0.87432 0.55536 0.0
H1560 H 0.06494 0.88248 0.5071 0.0
H1561 H 0.00684 0.87235 0.48119 0.0
H1562 H 0.05483 0.86805 0.5534 0.0
H1563 H 0.06267 0.84496 0.54318 0.0
H1564 H 0.07519 0.86763 0.5365 0.0
H1565 H 0.9854 0.84749 0.49254 0.0
H1566 H 0.99464 0.83004 0.51025 0.0
H1567 H 0.98373 0.85254 0.51872 0.0
H1568 H 0.01764 0.79545 0.55877 0.0
H1569 H 0.99157 0.84843 0.58168 0.0
H1570 H 0.04915 0.81873 0.52324 0.0
H1571 H 0.02599 0.81017 0.51279 0.0
H1572 H 0.03849 0.79552 0.53106 0.0
H1573 H 0.02031 0.88244 0.55312 0.0
H1574 H 0.99937 0.87997 0.5692 0.0
H1575 H 0.99609 0.87771 0.54272 0.0
C1576 C 0.12635 0.74226 0.69106 0.0
C1577 C 0.12275 0.74131 0.71142 0.0
C1578 C 0.11104 0.7464 0.67749 0.0
C1579 C 0.09169 0.74962 0.68448 0.0
C1580 C 0.08783 0.74794 0.70493 0.0
C1581 C 0.10341 0.74381 0.71814 0.0
C1582 C 0.11573 0.7481 0.6558 0.0
C1583 C 0.06737 0.75113 0.71294 0.0
C1584 C 0.05691 0.78268 0.65598 0.0
C1585 C 0.04384 0.76883 0.64682 0.0
C1586 C 0.07282 0.77657 0.66787 0.0
C1587 C 0.07575 0.7561 0.6707 0.0
C1588 C 0.06294 0.74201 0.6611 0.0
C1589 C 0.04713 0.74854 0.64924 0.0
C1590 C 0.08621 0.79206 0.6778 0.0
C1591 C 0.06563 0.72006 0.66377 0.0
H1592 H 0.14131 0.7405 0.6858 0.0
H1593 H 0.1005 0.74276 0.73383 0.0
H1594 H 0.10525 0.73879 0.64667 0.0
H1595 H 0.11391 0.76365 0.65116 0.0
H1596 H 0.13109 0.74357 0.65256 0.0
H1597 H 0.06658 0.74807 0.72902 0.0
H1598 H 0.06299 0.76668 0.71056 0.0
H1599 H 0.05638 0.74145 0.70489 0.0
H1600 H 0.05455 0.79838 0.65413 0.0
H1601 H 0.03711 0.73774 0.6422 0.0
H1602 H 0.10188 0.78933 0.67409 0.0
H1603 H 0.08502 0.79111 0.69413 0.0
H1604 H 0.08248 0.80733 0.67335 0.0
H1605 H 0.08098 0.7159 0.66008 0.0
H1606 H 0.05512 0.71101 0.65439 0.0
H1607 H 0.06336 0.71628 0.6795 0.0
C1608 C 0.91837 0.65247 0.53377 0.0
C1609 C 0.93382 0.6431 0.5238 0.0
C1610 C 0.92203 0.66924 0.54593 0.0
C1611 C 0.94147 0.67731 0.5476 0.0
C1612 C 0.95714 0.66798 0.53766 0.0
C1613 C 0.9532 0.65079 0.52624 0.0
C1614 C 0.90503 0.6785 0.55677 0.0
C1615 C 0.97801 0.67642 0.5387 0.0
C1616 C 0.94718 0.73202 0.56027 0.0
C1617 C 0.95441 0.73159 0.57982 0.0
C1618 C 0.94294 0.71443 0.5496 0.0
C1619 C 0.94533 0.69602 0.55899 0.0
C1620 C 0.95199 0.69553 0.57898 0.0
C1621 C 0.95684 0.71337 0.58907 0.0
C1622 C 0.93649 0.71554 0.52812 0.0
C1623 C 0.95405 0.6762 0.58966 0.0
H1624 H 0.90328 0.64696 0.53185 0.0
H1625 H 0.9654 0.64345 0.51916 0.0
H1626 H 0.90896 0.68065 0.5727 0.0
H1627 H 0.902 0.69331 0.55069 0.0
H1628 H 0.89123 0.66932 0.55548 0.0
H1629 H 0.98847 0.66754 0.52983 0.0
H1630 H 0.97818 0.69181 0.53318 0.0
H1631 H 0.98347 0.67708 0.55429 0.0
H1632 H 0.94551 0.74615 0.55309 0.0
H1633 H 0.96232 0.71309 0.60425 0.0
H1634 H 0.92179 0.7082 0.52583 0.0
H1635 H 0.94713 0.70753 0.51868 0.0
H1636 H 0.93556 0.73105 0.523 0.0
H1637 H 0.93995 0.66753 0.5885 0.0
H1638 H 0.95804 0.67848 0.60558 0.0
H1639 H 0.96564 0.66716 0.58264 0.0
C1640 C 0.79413 0.8601 0.22574 0.0
C1641 C 0.77337 0.86056 0.22502 0.0
C1642 C 0.80549 0.87765 0.22785 0.0
C1643 C 0.79585 0.89608 0.22908 0.0
C1644 C 0.77493 0.89667 0.22743 0.0
C1645 C 0.76394 0.87889 0.22554 0.0
C1646 C 0.82775 0.87639 0.22974 0.0
C1647 C 0.7641 0.91603 0.22845 0.0
C1648 C 0.82012 0.93813 0.25903 0.0
C1649 C 0.8277 0.95033 0.24424 0.0
C1650 C 0.81012 0.9203 0.25424 0.0
C1651 C 0.8074 0.91452 0.23413 0.0
C1652 C 0.81521 0.92659 0.21908 0.0
C1653 C 0.82539 0.94433 0.22432 0.0
C1654 C 0.80223 0.90775 0.27076 0.0
C1655 C 0.81245 0.92095 0.19746 0.0
H1656 H 0.80146 0.84594 0.22547 0.0
H1657 H 0.7479 0.87929 0.22468 0.0
H1658 H 0.83501 0.88678 0.21947 0.0
H1659 H 0.83255 0.88083 0.24501 0.0
H1660 H 0.83306 0.86119 0.2266 0.0
H1661 H 0.74803 0.9141 0.225 0.0
H1662 H 0.76584 0.92266 0.24355 0.0
H1663 H 0.77054 0.92672 0.21795 0.0
H1664 H 0.82198 0.94253 0.27448 0.0
H1665 H 0.83118 0.95368 0.21281 0.0
H1666 H 0.80806 0.89252 0.26954 0.0
H1667 H 0.78585 0.90655 0.26952 0.0
H1668 H 0.80629 0.91396 0.28566 0.0
H1669 H 0.81827 0.90593 0.1946 0.0
H1670 H 0.82001 0.93156 0.18759 0.0
H1671 H 0.79642 0.92042 0.19353 0.0
C1672 C 0.76144 0.12538 0.23408 0.0
C1673 C 0.76821 0.14324 0.24295 0.0
C1674 C 0.77337 0.10856 0.23385 0.0
C1675 C 0.79253 0.10962 0.24272 0.0
C1676 C 0.79981 0.12787 0.25082 0.0
C1677 C 0.78756 0.14445 0.25086 0.0
C1678 C 0.76502 0.08937 0.22511 0.0
C1679 C 0.82019 0.12964 0.26032 0.0
C1680 C 0.81158 0.06267 0.26567 0.0
C1681 C 0.82496 0.05587 0.2515 0.0
C1682 C 0.80106 0.08013 0.26294 0.0
C1683 C 0.80394 0.0912 0.24561 0.0
C1684 C 0.81747 0.08456 0.23124 0.0
C1685 C 0.82784 0.06693 0.23435 0.0
C1686 C 0.78676 0.08667 0.27864 0.0
C1687 C 0.82093 0.09603 0.2126 0.0
H1688 H 0.74646 0.12428 0.22808 0.0
H1689 H 0.793 0.15831 0.25744 0.0
H1690 H 0.77577 0.08255 0.21493 0.0
H1691 H 0.76233 0.07874 0.23716 0.0
H1692 H 0.75084 0.09151 0.21689 0.0
H1693 H 0.82446 0.14526 0.26397 0.0
H1694 H 0.82055 0.12107 0.27419 0.0
H1695 H 0.83144 0.12329 0.25037 0.0
H1696 H 0.80921 0.05429 0.27899 0.0
H1697 H 0.83814 0.06182 0.22333 0.0
H1698 H 0.77162 0.08762 0.27212 0.0
H1699 H 0.79104 0.10167 0.28438 0.0
H1700 H 0.78628 0.0764 0.2913 0.0
H1701 H 0.80684 0.09712 0.20401 0.0
H1702 H 0.83213 0.08904 0.20301 0.0
H1703 H 0.82598 0.11136 0.21645 0.0
C1704 C 0.36933 0.96722 0.96437 0.0
C1705 C 0.38261 0.97222 0.97995 0.0
C1706 C 0.35359 0.95376 0.96708 0.0
C1707 C 0.35105 0.94514 0.98584 0.0
C1708 C 0.36388 0.95077 0.00184 0.0
C1709 C 0.37954 0.96421 0.9987 0.0
C1710 C 0.34018 0.94815 0.94966 0.0
C1711 C 0.36164 0.9419 0.02207 0.0
C1712 C 0.30315 0.91713 0.99666 0.0
C1713 C 0.30876 0.89745 0.99339 0.0
C1714 C 0.31671 0.9329 0.9942 0.0
C1715 C 0.33625 0.92884 0.98823 0.0
C1716 C 0.3419 0.90904 0.9847 0.0
C1717 C 0.32813 0.89361 0.98735 0.0
C1718 C 0.31022 0.95386 0.99814 0.0
C1719 C 0.36258 0.90409 0.97821 0.0
H1720 H 0.37141 0.97364 0.94994 0.0
H1721 H 0.38983 0.96787 0.01076 0.0
H1722 H 0.34244 0.93242 0.94541 0.0
H1723 H 0.32443 0.94961 0.95373 0.0
H1724 H 0.34306 0.95744 0.93657 0.0
H1725 H 0.37158 0.94923 0.03337 0.0
H1726 H 0.34612 0.94307 0.02701 0.0
H1727 H 0.36516 0.92592 0.02133 0.0
H1728 H 0.28823 0.92023 0.00135 0.0
H1729 H 0.33261 0.87848 0.98469 0.0
H1730 H 0.31244 0.96293 0.9848 0.0
H1731 H 0.31946 0.9607 0.01027 0.0
H1732 H 0.29441 0.95455 0.00234 0.0
H1733 H 0.36598 0.91175 0.96424 0.0
H1734 H 0.36451 0.88793 0.9758 0.0
H1735 H 0.37359 0.90943 0.98957 0.0
C1736 C 0.24784 0.40946 0.28926 0.0
C1737 C 0.25701 0.40698 0.30782 0.0
C1738 C 0.2304 0.42028 0.28739 0.0
C1739 C 0.22201 0.4289 0.30448 0.0
C1740 C 0.23189 0.42753 0.32306 0.0
C1741 C 0.24925 0.41647 0.32453 0.0
C1742 C 0.22026 0.42131 0.26732 0.0
C1743 C 0.22354 0.43678 0.34156 0.0
C1744 C 0.17988 0.46454 0.29586 0.0
C1745 C 0.16326 0.45199 0.2979 0.0
C1746 C 0.19916 0.45743 0.29855 0.0
C1747 C 0.20183 0.43729 0.30321 0.0
C1748 C 0.18512 0.42469 0.30572 0.0
C1749 C 0.16607 0.43221 0.30313 0.0
C1750 C 0.21664 0.47132 0.29597 0.0
C1751 C 0.18736 0.40308 0.3106 0.0
H1752 H 0.25364 0.40196 0.27633 0.0
H1753 H 0.25644 0.41475 0.33886 0.0
H1754 H 0.20629 0.41241 0.26735 0.0
H1755 H 0.2163 0.43679 0.26402 0.0
H1756 H 0.22968 0.41557 0.25525 0.0
H1757 H 0.23428 0.43667 0.35422 0.0
H1758 H 0.21922 0.45229 0.33886 0.0
H1759 H 0.20999 0.42847 0.34579 0.0
H1760 H 0.17785 0.47987 0.29192 0.0
H1761 H 0.15335 0.4224 0.30476 0.0
H1762 H 0.22518 0.46656 0.28289 0.0
H1763 H 0.22677 0.47081 0.30906 0.0
H1764 H 0.21205 0.48688 0.29387 0.0
H1765 H 0.19526 0.39538 0.2985 0.0
H1766 H 0.17286 0.39542 0.31264 0.0
H1767 H 0.19642 0.4016 0.32434 0.0
C1768 C 0.1309 0.04203 0.49099 0.0
C1769 C 0.12229 0.03862 0.4721 0.0
C1770 C 0.14854 0.05318 0.49345 0.0
C1771 C 0.15737 0.06175 0.47673 0.0
C1772 C 0.14778 0.05999 0.45797 0.0
C1773 C 0.13058 0.04818 0.45581 0.0
C1774 C 0.15845 0.05448 0.51366 0.0
C1775 C 0.15642 0.06945 0.43987 0.0
C1776 C 0.20054 0.09838 0.48303 0.0
C1777 C 0.21647 0.08645 0.4778 0.0
C1778 C 0.18112 0.09056 0.48297 0.0
C1779 C 0.17779 0.07025 0.47822 0.0
C1780 C 0.19401 0.05801 0.47381 0.0
C1781 C 0.21312 0.06635 0.47331 0.0
C1782 C 0.16413 0.10418 0.48713 0.0
C1783 C 0.19117 0.03615 0.46924 0.0
H1784 H 0.12434 0.03532 0.50382 0.0
H1785 H 0.12434 0.04565 0.44108 0.0
H1786 H 0.17192 0.0453 0.51365 0.0
H1787 H 0.16325 0.06993 0.5173 0.0
H1788 H 0.14857 0.04915 0.5255 0.0
H1789 H 0.14563 0.06948 0.42726 0.0
H1790 H 0.16128 0.08494 0.44327 0.0
H1791 H 0.16963 0.06117 0.43518 0.0
H1792 H 0.20319 0.11398 0.48635 0.0
H1793 H 0.22551 0.05712 0.46946 0.0
H1794 H 0.15445 0.09791 0.49863 0.0
H1795 H 0.1549 0.10562 0.47348 0.0
H1796 H 0.16932 0.11919 0.49209 0.0
H1797 H 0.18251 0.02901 0.48107 0.0
H1798 H 0.20548 0.02842 0.46785 0.0
H1799 H 0.18264 0.03404 0.45515 0.0
C1800 C 0.69376 0.13528 0.76112 0.0
C1801 C 0.69682 0.14155 0.74171 0.0
C1802 C 0.68304 0.11778 0.76481 0.0
C1803 C 0.67523 0.10626 0.74868 0.0
C1804 C 0.67797 0.11268 0.72906 0.0
C1805 C 0.68873 0.13026 0.72581 0.0
C1806 C 0.68033 0.11145 0.78594 0.0
C1807 C 0.66994 0.10075 0.71148 0.0
C1808 C 0.66589 0.05138 0.75648 0.0
C1809 C 0.6453 0.05055 0.75889 0.0
C1810 C 0.67579 0.06942 0.75317 0.0
C1811 C 0.66486 0.08708 0.75229 0.0
C1812 C 0.64408 0.08638 0.75474 0.0
C1813 C 0.63454 0.06811 0.75799 0.0
C1814 C 0.69797 0.06957 0.75058 0.0
C1815 C 0.63194 0.10493 0.75391 0.0
H1816 H 0.69978 0.14409 0.77347 0.0
H1817 H 0.69126 0.13488 0.71076 0.0
H1818 H 0.66434 0.10928 0.78896 0.0
H1819 H 0.68758 0.09704 0.78829 0.0
H1820 H 0.68668 0.12246 0.79683 0.0
H1821 H 0.67263 0.10822 0.69722 0.0
H1822 H 0.677 0.08604 0.711 0.0
H1823 H 0.65377 0.09813 0.71293 0.0
H1824 H 0.67434 0.03789 0.75714 0.0
H1825 H 0.61863 0.06761 0.75986 0.0
H1826 H 0.70524 0.07935 0.76202 0.0
H1827 H 0.70169 0.07565 0.73592 0.0
H1828 H 0.7043 0.05454 0.75168 0.0
H1829 H 0.63736 0.11577 0.76538 0.0
H1830 H 0.61594 0.10189 0.75624 0.0
H1831 H 0.63367 0.11201 0.73932 0.0
C1832 C 0.37868 0.01449 0.53131 0.0
C1833 C 0.39789 0.02227 0.53433 0.0
C1834 C 0.36313 0.02661 0.52523 0.0
C1835 C 0.36696 0.04695 0.5219 0.0
C1836 C 0.38623 0.055 0.52543 0.0
C1837 C 0.40147 0.04256 0.53169 0.0
C1838 C 0.34273 0.01751 0.52181 0.0
C1839 C 0.39092 0.07658 0.52186 0.0
C1840 C 0.33303 0.07107 0.48448 0.0
C1841 C 0.32009 0.08149 0.49672 0.0
C1842 C 0.34857 0.06012 0.49252 0.0
C1843 C 0.35115 0.0594 0.51333 0.0
C1844 C 0.33833 0.07009 0.5258 0.0
C1845 C 0.32298 0.0811 0.51733 0.0
C1846 C 0.36205 0.04908 0.47871 0.0
C1847 C 0.34057 0.06954 0.54807 0.0
H1848 H 0.37584 0.99885 0.53359 0.0
H1849 H 0.41635 0.04858 0.53386 0.0
H1850 H 0.33158 0.02607 0.53007 0.0
H1851 H 0.33863 0.01811 0.50585 0.0
H1852 H 0.3419 0.00183 0.52648 0.0
H1853 H 0.40627 0.08082 0.52662 0.0
H1854 H 0.38911 0.07966 0.50585 0.0
H1855 H 0.38043 0.08613 0.52991 0.0
H1856 H 0.33099 0.07139 0.46853 0.0
H1857 H 0.31301 0.08908 0.52689 0.0
H1858 H 0.36075 0.03293 0.48127 0.0
H1859 H 0.37771 0.05356 0.48177 0.0
H1860 H 0.35853 0.05181 0.46287 0.0
H1861 H 0.33839 0.05413 0.55314 0.0
H1862 H 0.32979 0.07917 0.55567 0.0
H1863 H 0.35578 0.07434 0.55269 0.0
C1864 C 0.61625 0.45552 0.52987 0.0
C1865 C 0.60672 0.4618 0.5125 0.0
C1866 C 0.63113 0.44125 0.52919 0.0
C1867 C 0.63665 0.43303 0.51069 0.0
C1868 C 0.62697 0.43917 0.49312 0.0
C1869 C 0.61214 0.45346 0.49424 0.0
C1870 C 0.64114 0.43515 0.54824 0.0
C1871 C 0.63238 0.43073 0.47312 0.0
C1872 C 0.68788 0.41104 0.50625 0.0
C1873 C 0.68375 0.39064 0.50737 0.0
C1874 C 0.67271 0.42496 0.50737 0.0
C1875 C 0.65288 0.41837 0.50965 0.0
C1876 C 0.64858 0.39782 0.51084 0.0
C1877 C 0.66406 0.3842 0.50968 0.0
C1878 C 0.67792 0.44673 0.50606 0.0
C1879 C 0.62762 0.39022 0.51327 0.0
H1880 H 0.61233 0.46205 0.54401 0.0
H1881 H 0.60466 0.45801 0.48078 0.0
H1882 H 0.63976 0.41888 0.54993 0.0
H1883 H 0.65719 0.43891 0.54784 0.0
H1884 H 0.63477 0.44253 0.56145 0.0
H1885 H 0.62321 0.4368 0.4609 0.0
H1886 H 0.6482 0.43404 0.47019 0.0
H1887 H 0.63048 0.41437 0.47297 0.0
H1888 H 0.70302 0.41619 0.50448 0.0
H1889 H 0.6607 0.36849 0.51056 0.0
H1890 H 0.673 0.45472 0.51955 0.0
H1891 H 0.67004 0.4532 0.49322 0.0
H1892 H 0.69408 0.44944 0.50443 0.0
H1893 H 0.62133 0.39661 0.52699 0.0
H1894 H 0.62675 0.37381 0.51403 0.0
H1895 H 0.61818 0.39502 0.50069 0.0
C1896 C 0.7155 0.28942 0.36183 0.0
C1897 C 0.71325 0.26876 0.36225 0.0
C1898 C 0.71824 0.3006 0.37941 0.0
C1899 C 0.71849 0.29088 0.39783 0.0
C1900 C 0.71498 0.27016 0.39837 0.0
C1901 C 0.71257 0.25932 0.38054 0.0
C1902 C 0.72219 0.32262 0.37816 0.0
C1903 C 0.71483 0.25929 0.41771 0.0
C1904 C 0.75187 0.31257 0.4386 0.0
C1905 C 0.73844 0.32243 0.45078 0.0
C1906 C 0.74551 0.30245 0.42132 0.0
C1907 C 0.72511 0.30185 0.41614 0.0
C1908 C 0.71139 0.31164 0.42837 0.0
C1909 C 0.71824 0.32198 0.44552 0.0
C1910 C 0.76069 0.29243 0.40856 0.0
C1911 C 0.6895 0.31107 0.42342 0.0
H1912 H 0.71612 0.29673 0.34768 0.0
H1913 H 0.71055 0.24336 0.38088 0.0
H1914 H 0.71292 0.33084 0.38881 0.0
H1915 H 0.73792 0.32592 0.38223 0.0
H1916 H 0.71925 0.32824 0.36305 0.0
H1917 H 0.70925 0.24378 0.41581 0.0
H1918 H 0.73009 0.25897 0.42404 0.0
H1919 H 0.70549 0.26708 0.42862 0.0
H1920 H 0.76754 0.31296 0.44243 0.0
H1921 H 0.70779 0.32952 0.45489 0.0
H1922 H 0.75995 0.29827 0.39331 0.0
H1923 H 0.75745 0.27628 0.4075 0.0
H1924 H 0.77604 0.29468 0.41448 0.0
H1925 H 0.6868 0.31752 0.40864 0.0
H1926 H 0.68074 0.31932 0.43451 0.0
H1927 H 0.68402 0.29549 0.42263 0.0
C1928 C 0.55132 0.02895 0.89865 0.0
C1929 C 0.53089 0.0311 0.89553 0.0
C1930 C 0.56349 0.0227 0.88322 0.0
C1931 C 0.55503 0.01867 0.86421 0.0
C1932 C 0.53454 0.02157 0.8608 0.0
C1933 C 0.52269 0.02765 0.87655 0.0
C1934 C 0.58524 0.0196 0.88747 0.0
C1935 C 0.52504 0.01764 0.84067 0.0
C1936 C 0.58907 0.01385 0.82023 0.0
C1937 C 0.59017 0.9932 0.81799 0.0
C1938 C 0.57765 0.02241 0.83519 0.0
C1939 C 0.56729 0.01001 0.84831 0.0
C1940 C 0.56851 0.98917 0.84625 0.0
C1941 C 0.57986 0.98103 0.83107 0.0
C1942 C 0.57653 0.04469 0.83687 0.0
C1943 C 0.55781 0.97546 0.86008 0.0
H1944 H 0.55765 0.03142 0.91337 0.0
H1945 H 0.50693 0.02952 0.87408 0.0
H1946 H 0.58858 0.00363 0.88588 0.0
H1947 H 0.59439 0.02762 0.87661 0.0
H1948 H 0.58976 0.02471 0.90264 0.0
H1949 H 0.50929 0.02214 0.84008 0.0
H1950 H 0.53326 0.02571 0.82914 0.0
H1951 H 0.5257 0.00161 0.8369 0.0
H1952 H 0.59693 0.02335 0.81013 0.0
H1953 H 0.5807 0.96506 0.82951 0.0
H1954 H 0.58184 0.04982 0.85176 0.0
H1955 H 0.56091 0.04931 0.8352 0.0
H1956 H 0.5855 0.05225 0.82552 0.0
H1957 H 0.56257 0.97873 0.87562 0.0
H1958 H 0.56059 0.9596 0.85669 0.0
H1959 H 0.54162 0.9779 0.85906 0.0
C1960 C 0.31055 0.2419 0.39793 0.0
C1961 C 0.29438 0.25237 0.39046 0.0
C1962 C 0.30769 0.22494 0.40928 0.0
C1963 C 0.28818 0.21827 0.41319 0.0
C1964 C 0.27179 0.22909 0.40618 0.0
C1965 C 0.27509 0.24605 0.39491 0.0
C1966 C 0.32553 0.21385 0.41662 0.0
C1967 C 0.25078 0.22238 0.41002 0.0
C1968 C 0.28105 0.16346 0.42271 0.0
C1969 C 0.27973 0.1632 0.44341 0.0
C1970 C 0.28361 0.18131 0.41271 0.0
C1971 C 0.28495 0.19936 0.42367 0.0
C1972 C 0.28354 0.19926 0.44455 0.0
C1973 C 0.28092 0.18117 0.45418 0.0
C1974 C 0.28499 0.18085 0.39039 0.0
C1975 C 0.28495 0.21823 0.4567 0.0
H1976 H 0.32548 0.24691 0.39475 0.0
H1977 H 0.26255 0.25398 0.38898 0.0
H1978 H 0.32479 0.21187 0.43286 0.0
H1979 H 0.32562 0.19886 0.40963 0.0
H1980 H 0.33969 0.22161 0.41324 0.0
H1981 H 0.23973 0.23313 0.40463 0.0
H1982 H 0.24777 0.20788 0.40249 0.0
H1983 H 0.24868 0.22025 0.4261 0.0
H1984 H 0.28009 0.14968 0.41424 0.0
H1985 H 0.2799 0.18112 0.47018 0.0
H1986 H 0.29952 0.18709 0.38593 0.0
H1987 H 0.27335 0.19021 0.38379 0.0
H1988 H 0.28331 0.16561 0.38405 0.0
H1989 H 0.29947 0.22569 0.45438 0.0
H1990 H 0.28329 0.21564 0.4728 0.0
H1991 H 0.27331 0.22856 0.45181 0.0
C1992 C 0.47914 0.48374 0.8533 0.0
C1993 C 0.48678 0.50042 0.86372 0.0
C1994 C 0.46402 0.4855 0.83897 0.0
C1995 C 0.45647 0.50444 0.83481 0.0
C1996 C 0.46487 0.52145 0.84446 0.0
C1997 C 0.47988 0.51924 0.85887 0.0
C1998 C 0.45545 0.46699 0.82902 0.0
C1999 C 0.45732 0.54191 0.8403 0.0
C2000 C 0.42295 0.50875 0.78925 0.0
C2001 C 0.4041 0.50738 0.79762 0.0
C2002 C 0.4402 0.50825 0.80119 0.0
C2003 C 0.43852 0.50615 0.82192 0.0
C2004 C 0.41955 0.50502 0.83045 0.0
C2005 C 0.40261 0.50574 0.81823 0.0
C2006 C 0.4602 0.50971 0.79162 0.0
C2007 C 0.41713 0.50264 0.85249 0.0
H2008 H 0.48469 0.46919 0.85667 0.0
H2009 H 0.48558 0.5322 0.86694 0.0
H2010 H 0.43994 0.46464 0.83375 0.0
H2011 H 0.4551 0.46861 0.8127 0.0
H2012 H 0.46402 0.4536 0.83271 0.0
H2013 H 0.46695 0.55373 0.84719 0.0
H2014 H 0.45633 0.54431 0.82411 0.0
H2015 H 0.44218 0.54337 0.84621 0.0
H2016 H 0.42425 0.5101 0.77335 0.0
H2017 H 0.38814 0.50464 0.82485 0.0
H2018 H 0.46843 0.49585 0.79399 0.0
H2019 H 0.46913 0.52198 0.79861 0.0
H2020 H 0.45897 0.51227 0.77544 0.0
H2021 H 0.42402 0.48867 0.85726 0.0
H2022 H 0.40133 0.50233 0.85682 0.0
H2023 H 0.42484 0.51498 0.86069 0.0
C2024 C 0.73701 0.69236 0.12761 0.0
C2025 C 0.75342 0.70048 0.13812 0.0
C2026 C 0.7395 0.67949 0.11134 0.0
C2027 C 0.75886 0.6746 0.10545 0.0
C2028 C 0.77546 0.68226 0.11636 0.0
C2029 C 0.77254 0.69514 0.13255 0.0
C2030 C 0.72143 0.67167 0.10004 0.0
C2031 C 0.79633 0.67728 0.11061 0.0
C2032 C 0.76536 0.63025 0.0708 0.0
C2033 C 0.76715 0.63943 0.05242 0.0
C2034 C 0.76269 0.6415 0.08823 0.0
C2035 C 0.76176 0.66238 0.08722 0.0
C2036 C 0.76356 0.67172 0.06872 0.0
C2037 C 0.76625 0.66014 0.05156 0.0
C2038 C 0.76087 0.63104 0.10771 0.0
C2039 C 0.7626 0.69396 0.06702 0.0
H2040 H 0.7222 0.69661 0.1317 0.0
H2041 H 0.78526 0.70116 0.14079 0.0
H2042 H 0.72136 0.67753 0.08479 0.0
H2043 H 0.72182 0.65528 0.09872 0.0
H2044 H 0.70741 0.67589 0.10724 0.0
H2045 H 0.80758 0.68354 0.1213 0.0
H2046 H 0.79802 0.66098 0.10969 0.0
H2047 H 0.79942 0.68319 0.09573 0.0
H2048 H 0.76605 0.61426 0.07161 0.0
H2049 H 0.7676 0.66737 0.03743 0.0
H2050 H 0.74644 0.63444 0.11447 0.0
H2051 H 0.77265 0.63648 0.11822 0.0
H2052 H 0.76203 0.61471 0.106 0.0
H2053 H 0.74824 0.69925 0.07264 0.0
H2054 H 0.76422 0.69891 0.05152 0.0
H2055 H 0.77449 0.70115 0.07631 0.0
C2056 C 0.95042 0.00881 0.10764 0.0
C2057 C 0.97066 0.00786 0.1125 0.0
C2058 C 0.93595 0.0067 0.12221 0.0
C2059 C 0.94189 0.00378 0.14216 0.0
C2060 C 0.96232 0.00311 0.14718 0.0
C2061 C 0.97644 0.00506 0.13229 0.0
C2062 C 0.91433 0.00731 0.11623 0.0
C2063 C 0.96928 0.00026 0.16831 0.0
C2064 C 0.90635 0.01495 0.18387 0.0
C2065 C 0.90002 0.99587 0.18913 0.0
C2066 C 0.91972 0.01778 0.16841 0.0
C2067 C 0.92679 0.00114 0.1578 0.0
C2068 C 0.92002 0.98189 0.16266 0.0
C2069 C 0.90681 0.97948 0.17831 0.0
C2070 C 0.92668 0.03853 0.16379 0.0
C2071 C 0.92704 0.96379 0.15156 0.0
H2072 H 0.94588 0.01079 0.09233 0.0
H2073 H 0.99207 0.00459 0.13617 0.0
H2074 H 0.90688 0.99309 0.11989 0.0
H2075 H 0.90688 0.01919 0.12467 0.0
H2076 H 0.91216 0.00993 0.10015 0.0
H2077 H 0.9857 0.00054 0.16982 0.0
H2078 H 0.96331 0.01207 0.17802 0.0
H2079 H 0.96359 0.98588 0.17376 0.0
H2080 H 0.90123 0.0277 0.19217 0.0
H2081 H 0.90194 0.96469 0.18219 0.0
H2082 H 0.92389 0.04163 0.14792 0.0
H2083 H 0.94291 0.03994 0.16651 0.0
H2084 H 0.91923 0.04994 0.17291 0.0
H2085 H 0.92431 0.96539 0.13542 0.0
H2086 H 0.91956 0.94997 0.15643 0.0
H2087 H 0.94325 0.96228 0.15386 0.0
C2088 C 0.24875 0.77242 0.13271 0.0
C2089 C 0.25594 0.78118 0.15047 0.0
C2090 C 0.24734 0.78336 0.1153 0.0
C2091 C 0.25342 0.80353 0.11559 0.0
C2092 C 0.2595 0.8128 0.13371 0.0
C2093 C 0.26067 0.80151 0.15095 0.0
C2094 C 0.2407 0.77292 0.0963 0.0
C2095 C 0.26603 0.8343 0.13466 0.0
C2096 C 0.27691 0.82027 0.06815 0.0
C2097 C 0.26154 0.83062 0.05894 0.0
C2098 C 0.27455 0.81194 0.0868 0.0
C2099 C 0.2563 0.81387 0.09656 0.0
C2100 C 0.24085 0.82474 0.08766 0.0
C2101 C 0.24368 0.83307 0.06893 0.0
C2102 C 0.2915 0.80063 0.09582 0.0
C2103 C 0.2212 0.82706 0.09766 0.0
H2104 H 0.24522 0.7567 0.13211 0.0
H2105 H 0.26586 0.8085 0.16471 0.0
H2106 H 0.2298 0.78194 0.08813 0.0
H2107 H 0.25364 0.77092 0.0866 0.0
H2108 H 0.23395 0.75812 0.09901 0.0
H2109 H 0.26749 0.84001 0.15016 0.0
H2110 H 0.28061 0.83596 0.12749 0.0
H2111 H 0.25539 0.84359 0.12646 0.0
H2112 H 0.29086 0.81848 0.06068 0.0
H2113 H 0.23175 0.84106 0.0619 0.0
H2114 H 0.28702 0.78487 0.0975 0.0
H2115 H 0.29529 0.80669 0.11082 0.0
H2116 H 0.305 0.80125 0.08668 0.0
H2117 H 0.21363 0.8124 0.09853 0.0
H2118 H 0.2113 0.83726 0.08959 0.0
H2119 H 0.22348 0.83275 0.11306 0.0
C2120 C 0.02246 0.45571 0.15375 0.0
C2121 C 0.03147 0.44842 0.13659 0.0
C2122 C 0.03344 0.45911 0.17131 0.0
C2123 C 0.0539 0.45492 0.17184 0.0
C2124 C 0.06317 0.44778 0.15455 0.0
C2125 C 0.05185 0.44467 0.1371 0.0
C2126 C 0.02302 0.46678 0.18945 0.0
C2127 C 0.08496 0.44311 0.1546 0.0
C2128 C 0.08399 0.47802 0.21457 0.0
C2129 C 0.08401 0.46259 0.22822 0.0
C2130 C 0.07467 0.47559 0.19592 0.0
C2131 C 0.0653 0.45726 0.19077 0.0
C2132 C 0.06583 0.44143 0.20422 0.0
C2133 C 0.07511 0.44431 0.22281 0.0
C2134 C 0.07431 0.49283 0.18198 0.0
C2135 C 0.05614 0.4216 0.19918 0.0
H2136 H 0.00667 0.45832 0.15361 0.0
H2137 H 0.05896 0.43929 0.12384 0.0
H2138 H 0.02357 0.45557 0.20125 0.0
H2139 H 0.03068 0.48036 0.19535 0.0
H2140 H 0.00727 0.47025 0.18629 0.0
H2141 H 0.09006 0.43829 0.13976 0.0
H2142 H 0.09385 0.45631 0.15956 0.0
H2143 H 0.088 0.43118 0.16526 0.0
H2144 H 0.09084 0.49219 0.21862 0.0
H2145 H 0.07519 0.43225 0.23319 0.0
H2146 H 0.05882 0.49766 0.17971 0.0
H2147 H 0.07992 0.48828 0.16728 0.0
H2148 H 0.08334 0.50567 0.18769 0.0
H2149 H 0.0399 0.42335 0.19741 0.0
H2150 H 0.05892 0.41046 0.21078 0.0
H2151 H 0.06168 0.4158 0.18488 0.0
C2152 C 0.37488 0.71126 0.27157 0.0
C2153 C 0.35737 0.70949 0.28227 0.0
C2154 C 0.39311 0.71509 0.28128 0.0
C2155 C 0.39375 0.71763 0.30215 0.0
C2156 C 0.37618 0.71519 0.31308 0.0
C2157 C 0.35819 0.71098 0.30298 0.0
C2158 C 0.41156 0.71724 0.26913 0.0
C2159 C 0.37617 0.71813 0.33529 0.0
C2160 C 0.44393 0.71926 0.32893 0.0
C2161 C 0.44807 0.73968 0.32956 0.0
C2162 C 0.42623 0.71175 0.32012 0.0
C2163 C 0.41228 0.72505 0.31219 0.0
C2164 C 0.41621 0.74569 0.31331 0.0
C2165 C 0.43411 0.75272 0.32179 0.0
C2166 C 0.42266 0.68964 0.31889 0.0
C2167 C 0.40158 0.7604 0.30537 0.0
H2168 H 0.37425 0.70987 0.25555 0.0
H2169 H 0.34461 0.70971 0.31123 0.0
H2170 H 0.41669 0.73294 0.26948 0.0
H2171 H 0.42368 0.70831 0.27549 0.0
H2172 H 0.40897 0.71254 0.25343 0.0
H2173 H 0.36172 0.71387 0.34175 0.0
H2174 H 0.38798 0.70932 0.34235 0.0
H2175 H 0.37936 0.73394 0.33905 0.0
H2176 H 0.45472 0.70914 0.33487 0.0
H2177 H 0.43712 0.76855 0.32244 0.0
H2178 H 0.42154 0.68475 0.30312 0.0
H2179 H 0.40839 0.68569 0.32583 0.0
H2180 H 0.43469 0.68132 0.32627 0.0
H2181 H 0.39956 0.75817 0.28914 0.0
H2182 H 0.40646 0.77599 0.30831 0.0
H2183 H 0.38691 0.75802 0.31217 0.0
C2184 C 0.9799 0.33823 0.99674 0.0
C2185 C 0.96791 0.35402 0.99092 0.0
C2186 C 0.98604 0.32387 0.98296 0.0
C2187 C 0.97951 0.3249 0.96299 0.0
C2188 C 0.96661 0.34013 0.95721 0.0
C2189 C 0.96129 0.35466 0.9711 0.0
C2190 C 0.00014 0.30809 0.98958 0.0
C2191 C 0.95892 0.3415 0.93613 0.0
C2192 C 0.00822 0.3055 0.91938 0.0
C2193 C 0.99762 0.28807 0.9144 0.0
C2194 C 0.00339 0.31685 0.93613 0.0
C2195 C 0.98709 0.31099 0.9477 0.0
C2196 C 0.97686 0.29292 0.9432 0.0
C2197 C 0.98248 0.28148 0.92671 0.0
C2198 C 0.0151 0.33567 0.94081 0.0
C2199 C 0.95907 0.28643 0.95482 0.0
H2200 H 0.98476 0.33717 0.01205 0.0
H2201 H 0.95241 0.36688 0.96615 0.0
H2202 H 0.99419 0.29316 0.98537 0.0
H2203 H 0.01447 0.31002 0.98199 0.0
H2204 H 0.00298 0.30865 0.00584 0.0
H2205 H 0.94733 0.35288 0.93456 0.0
H2206 H 0.97129 0.34535 0.92623 0.0
H2207 H 0.95262 0.32699 0.93095 0.0
H2208 H 0.02 0.3105 0.90986 0.0
H2209 H 0.97417 0.26808 0.9227 0.0
H2210 H 0.01909 0.33659 0.95681 0.0
H2211 H 0.00592 0.34868 0.93737 0.0
H2212 H 0.02889 0.33667 0.93212 0.0
H2213 H 0.96225 0.28757 0.97097 0.0
H2214 H 0.9543 0.27097 0.95103 0.0
H2215 H 0.94656 0.29637 0.95157 0.0
C2216 C 0.64448 0.75096 0.29453 0.0
C2217 C 0.64395 0.74296 0.27519 0.0
C2218 C 0.62738 0.75129 0.30606 0.0
C2219 C 0.60932 0.7434 0.29809 0.0
C2220 C 0.60893 0.73438 0.279 0.0
C2221 C 0.62622 0.73432 0.26776 0.0
C2222 C 0.62844 0.76101 0.32637 0.0
C2223 C 0.58997 0.72578 0.26997 0.0
C2224 C 0.56492 0.73597 0.33144 0.0
C2225 C 0.55406 0.75307 0.3276 0.0
C2226 C 0.58304 0.7326 0.32207 0.0
C2227 C 0.59046 0.74669 0.30865 0.0
C2228 C 0.57967 0.76405 0.30493 0.0
C2229 C 0.56165 0.76699 0.31439 0.0
C2230 C 0.59414 0.71389 0.32633 0.0
C2231 C 0.58709 0.77951 0.2908 0.0
H2232 H 0.65821 0.75733 0.30052 0.0
H2233 H 0.62559 0.72827 0.25278 0.0
H2234 H 0.62007 0.77501 0.32618 0.0
H2235 H 0.62146 0.7513 0.33744 0.0
H2236 H 0.64393 0.76448 0.33126 0.0
H2237 H 0.5926 0.71731 0.25604 0.0
H2238 H 0.58254 0.71586 0.28056 0.0
H2239 H 0.57964 0.73793 0.26663 0.0
H2240 H 0.55917 0.72513 0.34161 0.0
H2241 H 0.55347 0.7803 0.31137 0.0
H2242 H 0.60935 0.71763 0.33182 0.0
H2243 H 0.59558 0.70499 0.31248 0.0
H2244 H 0.58663 0.70464 0.33748 0.0
H2245 H 0.60202 0.78501 0.29563 0.0
H2246 H 0.57708 0.79236 0.2898 0.0
H2247 H 0.58852 0.77285 0.27577 0.0
C2248 C 0.02733 0.10631 0.9522 0.0
C2249 C 0.0221 0.10912 0.97208 0.0
C2250 C 0.02713 0.12208 0.93889 0.0
C2251 C 0.02147 0.14113 0.94556 0.0
C2252 C 0.01606 0.14404 0.96555 0.0
C2253 C 0.0165 0.12805 0.97856 0.0
C2254 C 0.03304 0.11838 0.9177 0.0
C2255 C 0.00993 0.16412 0.97325 0.0
C2256 C 0.03805 0.18688 0.91781 0.0
C2257 C 0.02086 0.19149 0.90699 0.0
C2258 C 0.03857 0.17033 0.93011 0.0
C2259 C 0.02144 0.15811 0.93174 0.0
C2260 C 0.00413 0.16247 0.92061 0.0
C2261 C 0.00406 0.17907 0.90833 0.0
C2262 C 0.05736 0.16611 0.94162 0.0
C2263 C 0.98555 0.14985 0.92199 0.0
H2264 H 0.03141 0.0917 0.94697 0.0
H2265 H 0.01273 0.13047 0.99394 0.0
H2266 H 0.02069 0.12219 0.90749 0.0
H2267 H 0.04588 0.12806 0.91409 0.0
H2268 H 0.03707 0.10272 0.91485 0.0
H2269 H 0.00571 0.16382 0.98907 0.0
H2270 H 0.02227 0.17501 0.97165 0.0
H2271 H 0.99717 0.16947 0.96439 0.0
H2272 H 0.05113 0.19633 0.91683 0.0
H2273 H 0.9907 0.1825 0.90005 0.0
H2274 H 0.06221 0.1508 0.93833 0.0
H2275 H 0.05457 0.16712 0.95774 0.0
H2276 H 0.06963 0.17659 0.93814 0.0
H2277 H 0.9888 0.13417 0.91833 0.0
H2278 H 0.97353 0.15484 0.9119 0.0
H2279 H 0.98011 0.15032 0.9374 0.0
C2280 C 0.37928 0.30897 0.22415 0.0
C2281 C 0.38395 0.29964 0.24204 0.0
C2282 C 0.39057 0.3059 0.20719 0.0
C2283 C 0.40649 0.29257 0.20782 0.0
C2284 C 0.41131 0.28303 0.22571 0.0
C2285 C 0.40024 0.28697 0.24268 0.0
C2286 C 0.38529 0.31674 0.18849 0.0
C2287 C 0.42788 0.26833 0.22682 0.0
C2288 C 0.42082 0.27012 0.15834 0.0
C2289 C 0.4383 0.28069 0.15442 0.0
C2290 C 0.41062 0.27345 0.17597 0.0
C2291 C 0.41772 0.28822 0.18959 0.0
C2292 C 0.4353 0.29906 0.18559 0.0
C2293 C 0.4456 0.29489 0.16818 0.0
C2294 C 0.3923 0.26114 0.18002 0.0
C2295 C 0.44295 0.31536 0.19944 0.0
H2296 H 0.36653 0.31843 0.22319 0.0
H2297 H 0.40437 0.28 0.25643 0.0
H2298 H 0.39861 0.32439 0.1827 0.0
H2299 H 0.37993 0.30601 0.17689 0.0
H2300 H 0.37361 0.32787 0.19092 0.0
H2301 H 0.42951 0.2619 0.24177 0.0
H2302 H 0.42506 0.2561 0.21588 0.0
H2303 H 0.44212 0.27558 0.22294 0.0
H2304 H 0.41531 0.259 0.14774 0.0
H2305 H 0.45906 0.30316 0.16502 0.0
H2306 H 0.37919 0.27078 0.1807 0.0
H2307 H 0.39383 0.25398 0.19462 0.0
H2308 H 0.38945 0.24946 0.16848 0.0
H2309 H 0.43151 0.32686 0.2011 0.0
H2310 H 0.45674 0.3225 0.19407 0.0
H2311 H 0.44594 0.30939 0.21437 0.0
C2312 C 0.51452 0.40219 0.02902 0.0
C2313 C 0.5165 0.39835 0.0087 0.0
C2314 C 0.50995 0.38685 0.04203 0.0
C2315 C 0.50756 0.36723 0.03451 0.0
C2316 C 0.51026 0.36319 0.0141 0.0
C2317 C 0.51458 0.37884 0.00141 0.0
C2318 C 0.50696 0.39174 0.06366 0.0
C2319 C 0.50808 0.34243 0.00557 0.0
C2320 C 0.5081 0.32394 0.06976 0.0
C2321 C 0.48781 0.31942 0.07108 0.0
C2322 C 0.5148 0.33961 0.05805 0.0
C2323 C 0.50085 0.35112 0.04765 0.0
C2324 C 0.48036 0.34689 0.0493 0.0
C2325 C 0.4741 0.33104 0.06089 0.0
C2326 C 0.53678 0.34359 0.05647 0.0
C2327 C 0.46501 0.35897 0.03861 0.0
H2328 H 0.51589 0.4173 0.03464 0.0
H2329 H 0.51639 0.37584 0.98573 0.0
H2330 H 0.4913 0.3887 0.0675 0.0
H2331 H 0.5163 0.3822 0.07308 0.0
H2332 H 0.5106 0.4075 0.06737 0.0
H2333 H 0.51209 0.34159 0.98969 0.0
H2334 H 0.51757 0.33216 0.01398 0.0
H2335 H 0.49253 0.33712 0.00696 0.0
H2336 H 0.51878 0.31499 0.07755 0.0
H2337 H 0.45839 0.32774 0.06196 0.0
H2338 H 0.54038 0.35917 0.06082 0.0
H2339 H 0.54133 0.34151 0.04087 0.0
H2340 H 0.54567 0.33365 0.06594 0.0
H2341 H 0.467 0.37489 0.04265 0.0
H2342 H 0.44963 0.35428 0.04212 0.0
H2343 H 0.46694 0.3575 0.02237 0.0
C2344 C 0.62687 0.27271 0.19379 0.0
C2345 C 0.63202 0.25342 0.19895 0.0
C2346 C 0.61119 0.27607 0.18041 0.0
C2347 C 0.60035 0.25973 0.17209 0.0
C2348 C 0.60583 0.2402 0.17682 0.0
C2349 C 0.62161 0.23728 0.19018 0.0
C2350 C 0.60589 0.29709 0.17559 0.0
C2351 C 0.59456 0.2224 0.16833 0.0
C2352 C 0.54694 0.26717 0.15595 0.0
C2353 C 0.54843 0.26785 0.13527 0.0
C2354 C 0.56376 0.26473 0.16807 0.0
C2355 C 0.58257 0.26303 0.15934 0.0
C2356 C 0.58426 0.26403 0.13852 0.0
C2357 C 0.56715 0.26639 0.12671 0.0
C2358 C 0.56135 0.26369 0.19024 0.0
C2359 C 0.60409 0.26236 0.12871 0.0
H2360 H 0.63505 0.28522 0.20034 0.0
H2361 H 0.62538 0.22235 0.19429 0.0
H2362 H 0.60546 0.29905 0.15931 0.0
H2363 H 0.59088 0.30031 0.18111 0.0
H2364 H 0.61656 0.30809 0.18231 0.0
H2365 H 0.60139 0.20821 0.17262 0.0
H2366 H 0.5791 0.22247 0.17361 0.0
H2367 H 0.59388 0.22304 0.15193 0.0
H2368 H 0.53255 0.26829 0.16271 0.0
H2369 H 0.56844 0.26695 0.11075 0.0
H2370 H 0.57066 0.27533 0.1978 0.0
H2371 H 0.56648 0.24917 0.19558 0.0
H2372 H 0.54574 0.2656 0.19471 0.0
H2373 H 0.61457 0.27379 0.13491 0.0
H2374 H 0.60298 0.26411 0.1124 0.0
H2375 H 0.61053 0.2477 0.13181 0.0
C2376 C 0.49519 0.12539 0.04812 0.0
C2377 C 0.47673 0.11543 0.04703 0.0
C2378 C 0.49711 0.14448 0.05659 0.0
C2379 C 0.48032 0.15356 0.06477 0.0
C2380 C 0.46206 0.143 0.06517 0.0
C2381 C 0.4604 0.12424 0.05604 0.0
C2382 C 0.51678 0.15537 0.05565 0.0
C2383 C 0.44392 0.15198 0.07424 0.0
C2384 C 0.48511 0.20061 0.09635 0.0
C2385 C 0.47832 0.21474 0.083 0.0
C2386 C 0.4863 0.18058 0.09057 0.0
C2387 C 0.48111 0.1748 0.07087 0.0
C2388 C 0.47527 0.18926 0.0571 0.0
C2389 C 0.47363 0.20901 0.06344 0.0
C2390 C 0.49209 0.16552 0.10578 0.0
C2391 C 0.47016 0.18379 0.0358 0.0
H2392 H 0.50808 0.11857 0.04178 0.0
H2393 H 0.44598 0.11697 0.05517 0.0
H2394 H 0.51554 0.16766 0.04502 0.0
H2395 H 0.52094 0.16205 0.07029 0.0
H2396 H 0.52887 0.14554 0.0508 0.0
H2397 H 0.43175 0.14087 0.0759 0.0
H2398 H 0.44762 0.15864 0.08901 0.0
H2399 H 0.43843 0.16399 0.0647 0.0
H2400 H 0.48861 0.20507 0.11153 0.0
H2401 H 0.46856 0.22001 0.05308 0.0
H2402 H 0.50381 0.15579 0.10002 0.0
H2403 H 0.47907 0.1559 0.10894 0.0
H2404 H 0.49746 0.1726 0.11989 0.0
H2405 H 0.48218 0.17496 0.02923 0.0
H2406 H 0.46777 0.19704 0.02659 0.0
H2407 H 0.45646 0.17448 0.03515 0.0
C2408 C 0.26689 0.37842 0.72842 0.0
C2409 C 0.27607 0.35997 0.72778 0.0
C2410 C 0.27814 0.39607 0.72992 0.0
C2411 C 0.29908 0.39523 0.73104 0.0
C2412 C 0.30845 0.37666 0.72967 0.0
C2413 C 0.29681 0.35924 0.72796 0.0
C2414 C 0.26759 0.41557 0.73112 0.0
C2415 C 0.33071 0.37512 0.73103 0.0
C2416 C 0.32831 0.44363 0.72587 0.0
C2417 C 0.33055 0.44975 0.74575 0.0
C2418 C 0.31842 0.42568 0.72076 0.0
C2419 C 0.31091 0.41353 0.73591 0.0
C2420 C 0.31388 0.41931 0.75599 0.0
C2421 C 0.32352 0.43736 0.76064 0.0
C2422 C 0.3154 0.42004 0.69918 0.0
C2423 C 0.3064 0.40668 0.77263 0.0
H2424 H 0.25085 0.37904 0.72796 0.0
H2425 H 0.30395 0.34499 0.72756 0.0
H2426 H 0.26971 0.42222 0.74617 0.0
H2427 H 0.27393 0.42615 0.72045 0.0
H2428 H 0.25143 0.41384 0.728 0.0
H2429 H 0.33575 0.35988 0.72763 0.0
H2430 H 0.33786 0.38551 0.7207 0.0
H2431 H 0.3359 0.37936 0.74623 0.0
H2432 H 0.33367 0.45317 0.71431 0.0
H2433 H 0.32541 0.44187 0.77606 0.0
H2434 H 0.29936 0.42009 0.69533 0.0
H2435 H 0.32067 0.4048 0.69631 0.0
H2436 H 0.32328 0.43036 0.68925 0.0
H2437 H 0.28998 0.40567 0.77189 0.0
H2438 H 0.31096 0.41272 0.78746 0.0
H2439 H 0.31202 0.39139 0.77109 0.0
C2440 C 0.28206 0.63803 0.76123 0.0
C2441 C 0.2731 0.64582 0.74419 0.0
C2442 C 0.29395 0.62124 0.76014 0.0
C2443 C 0.29649 0.6115 0.74166 0.0
C2444 C 0.28802 0.6195 0.72431 0.0
C2445 C 0.27668 0.63671 0.72574 0.0
C2446 C 0.30306 0.61342 0.77898 0.0
C2447 C 0.29012 0.60935 0.70437 0.0
C2448 C 0.33633 0.57234 0.74017 0.0
C2449 C 0.32545 0.55549 0.74555 0.0
C2450 C 0.32703 0.5907 0.73814 0.0
C2451 C 0.30634 0.59195 0.74101 0.0
C2452 C 0.29517 0.57462 0.74513 0.0
C2453 C 0.30492 0.55667 0.74768 0.0
C2454 C 0.33952 0.60891 0.7342 0.0
C2455 C 0.27301 0.57516 0.74774 0.0
H2456 H 0.27924 0.64454 0.77565 0.0
H2457 H 0.27029 0.64277 0.71237 0.0
H2458 H 0.29555 0.59931 0.78287 0.0
H2459 H 0.31896 0.61026 0.77687 0.0
H2460 H 0.30177 0.62401 0.79166 0.0
H2461 H 0.28412 0.61833 0.69208 0.0
H2462 H 0.3059 0.60626 0.7015 0.0
H2463 H 0.28205 0.59489 0.70432 0.0
H2464 H 0.35226 0.57142 0.7387 0.0
H2465 H 0.2965 0.54356 0.75169 0.0
H2466 H 0.34022 0.6185 0.74773 0.0
H2467 H 0.33277 0.6177 0.7222 0.0
H2468 H 0.35487 0.60515 0.73007 0.0
H2469 H 0.26964 0.58344 0.76158 0.0
H2470 H 0.26626 0.56008 0.74857 0.0
H2471 H 0.26588 0.58303 0.73528 0.0
C2472 C 0.85018 0.48302 0.48539 0.0
C2473 C 0.85236 0.48835 0.46554 0.0
C2474 C 0.83719 0.46761 0.49058 0.0
C2475 C 0.82625 0.45718 0.47555 0.0
C2476 C 0.82777 0.463 0.45559 0.0
C2477 C 0.84078 0.47855 0.45083 0.0
C2478 C 0.83593 0.46188 0.51204 0.0
C2479 C 0.81632 0.45222 0.43915 0.0
C2480 C 0.81347 0.40335 0.48478 0.0
C2481 C 0.79332 0.40416 0.48941 0.0
C2482 C 0.82428 0.42051 0.48026 0.0
C2483 C 0.81477 0.43901 0.48046 0.0
C2484 C 0.79449 0.44003 0.48527 0.0
C2485 C 0.78396 0.42256 0.48965 0.0
C2486 C 0.84589 0.4188 0.47513 0.0
C2487 C 0.78393 0.45955 0.48574 0.0
H2488 H 0.85922 0.49036 0.49683 0.0
H2489 H 0.84214 0.48282 0.43551 0.0
H2490 H 0.82023 0.46059 0.5165 0.0
H2491 H 0.84267 0.44717 0.51407 0.0
H2492 H 0.84372 0.47276 0.52211 0.0
H2493 H 0.81787 0.45962 0.42468 0.0
H2494 H 0.82175 0.43686 0.43763 0.0
H2495 H 0.80037 0.45121 0.44273 0.0
H2496 H 0.82085 0.38922 0.48451 0.0
H2497 H 0.76841 0.42332 0.49323 0.0
H2498 H 0.85516 0.42799 0.4856 0.0
H2499 H 0.84838 0.42451 0.46005 0.0
H2500 H 0.85106 0.40329 0.47564 0.0
H2501 H 0.79151 0.46994 0.49643 0.0
H2502 H 0.76817 0.45785 0.48998 0.0
H2503 H 0.7845 0.46645 0.47096 0.0
C2504 C 0.76387 0.90397 0.78614 0.0
C2505 C 0.77038 0.90176 0.8058 0.0
C2506 C 0.74639 0.91402 0.7817 0.0
C2507 C 0.73516 0.92204 0.79732 0.0
C2508 C 0.74209 0.9206 0.81714 0.0
C2509 C 0.75962 0.91044 0.82115 0.0
C2510 C 0.73945 0.91519 0.76038 0.0
C2511 C 0.73057 0.92909 0.83417 0.0
C2512 C 0.69446 0.9582 0.78478 0.0
C2513 C 0.67759 0.94574 0.78455 0.0
C2514 C 0.71333 0.95074 0.78901 0.0
C2515 C 0.71535 0.93037 0.79303 0.0
C2516 C 0.6984 0.91774 0.79279 0.0
C2517 C 0.67975 0.92557 0.78859 0.0
C2518 C 0.7311 0.96464 0.78916 0.0
C2519 C 0.69996 0.8959 0.79693 0.0
H2520 H 0.77198 0.89708 0.77422 0.0
H2521 H 0.76473 0.90897 0.83636 0.0
H2522 H 0.72571 0.9061 0.75813 0.0
H2523 H 0.73582 0.93066 0.75668 0.0
H2524 H 0.75073 0.90978 0.74989 0.0
H2525 H 0.73882 0.92825 0.84851 0.0
H2526 H 0.727 0.94479 0.83143 0.0
H2527 H 0.71632 0.92083 0.83545 0.0
H2528 H 0.69293 0.9738 0.78171 0.0
H2529 H 0.66683 0.91581 0.78843 0.0
H2530 H 0.74188 0.95961 0.77801 0.0
H2531 H 0.73874 0.96444 0.80384 0.0
H2532 H 0.727 0.98012 0.78592 0.0
H2533 H 0.70985 0.8888 0.78605 0.0
H2534 H 0.68534 0.8881 0.7962 0.0
H2535 H 0.70664 0.89381 0.81186 0.0
C2536 C 0.64551 0.53 0.9828 0.0
C2537 C 0.62782 0.53867 0.97645 0.0
C2538 C 0.66342 0.54081 0.98329 0.0
C2539 C 0.6637 0.56074 0.97715 0.0
C2540 C 0.64582 0.5698 0.97132 0.0
C2541 C 0.62807 0.55865 0.97106 0.0
C2542 C 0.68218 0.53064 0.98965 0.0
C2543 C 0.64555 0.59104 0.96473 0.0
C2544 C 0.70995 0.5913 0.99051 0.0
C2545 C 0.72099 0.58924 0.9732 0.0
C2546 C 0.69101 0.58254 0.99188 0.0
C2547 C 0.68294 0.57156 0.97552 0.0
C2548 C 0.69374 0.56997 0.95781 0.0
C2549 C 0.71263 0.57878 0.95688 0.0
C2550 C 0.67993 0.58451 0.01102 0.0
C2551 C 0.68556 0.55847 0.94 0.0
H2552 H 0.64551 0.51451 0.98672 0.0
H2553 H 0.61441 0.56552 0.96642 0.0
H2554 H 0.69223 0.52935 0.97688 0.0
H2555 H 0.69013 0.53956 0.00134 0.0
H2556 H 0.67922 0.51557 0.99537 0.0
H2557 H 0.63026 0.59631 0.96203 0.0
H2558 H 0.65294 0.60087 0.97605 0.0
H2559 H 0.65397 0.59249 0.95085 0.0
H2560 H 0.71628 0.59936 0.0032 0.0
H2561 H 0.72098 0.57722 0.94339 0.0
H2562 H 0.67823 0.56975 0.0178 0.0
H2563 H 0.66482 0.5901 0.00811 0.0
H2564 H 0.68765 0.59466 0.02187 0.0
H2565 H 0.68369 0.54262 0.94373 0.0
H2566 H 0.69537 0.55953 0.92701 0.0
H2567 H 0.67074 0.564 0.93574 0.0
C2568 C 0.17924 0.63031 0.23125 0.0
C2569 C 0.2 0.62957 0.23126 0.0
C2570 C 0.16767 0.61316 0.2341 0.0
C2571 C 0.17709 0.59488 0.23717 0.0
C2572 C 0.19801 0.59399 0.23706 0.0
C2573 C 0.2092 0.61132 0.23402 0.0
C2574 C 0.14538 0.61463 0.23404 0.0
C2575 C 0.2086 0.57477 0.24032 0.0
C2576 C 0.15001 0.55408 0.26422 0.0
C2577 C 0.14436 0.54108 0.2486 0.0
C2578 C 0.16041 0.57178 0.26066 0.0
C2579 C 0.16514 0.57669 0.241 0.0
C2580 C 0.15911 0.56388 0.22512 0.0
C2581 C 0.14885 0.54618 0.22911 0.0
C2582 C 0.16671 0.58501 0.278 0.0
C2583 C 0.16376 0.56874 0.20393 0.0
H2584 H 0.17203 0.64438 0.22934 0.0
H2585 H 0.22521 0.61054 0.23367 0.0
H2586 H 0.13869 0.60411 0.22292 0.0
H2587 H 0.13965 0.61044 0.24872 0.0
H2588 H 0.14034 0.6298 0.23068 0.0
H2589 H 0.22496 0.57659 0.23967 0.0
H2590 H 0.20477 0.56879 0.25499 0.0
H2591 H 0.2037 0.56358 0.22896 0.0
H2592 H 0.14662 0.55026 0.27933 0.0
H2593 H 0.14445 0.53627 0.21695 0.0
H2594 H 0.16102 0.60016 0.27595 0.0
H2595 H 0.18312 0.58624 0.27881 0.0
H2596 H 0.16134 0.57936 0.29233 0.0
H2597 H 0.15808 0.58358 0.20029 0.0
H2598 H 0.15722 0.55768 0.19321 0.0
H2599 H 0.18004 0.56929 0.20201 0.0
C2600 C 0.87113 0.50306 0.03588 0.0
C2601 C 0.89075 0.5092 0.03988 0.0
C2602 C 0.85718 0.51634 0.02849 0.0
C2603 C 0.86308 0.53615 0.02483 0.0
C2604 C 0.8828 0.5425 0.02914 0.0
C2605 C 0.89639 0.52895 0.03669 0.0
C2606 C 0.83622 0.50909 0.02426 0.0
C2607 C 0.8897 0.56345 0.02524 0.0
C2608 C 0.83346 0.56342 0.98599 0.0
C2609 C 0.82145 0.57548 0.99769 0.0
C2610 C 0.84722 0.55074 0.99466 0.0
C2611 C 0.84889 0.54995 0.01555 0.0
C2612 C 0.83693 0.56217 0.02747 0.0
C2613 C 0.8234 0.57488 0.0184 0.0
C2614 C 0.85987 0.53808 0.98145 0.0
C2615 C 0.83822 0.5616 0.0498 0.0
H2616 H 0.8667 0.48784 0.03854 0.0
H2617 H 0.91161 0.53368 0.03956 0.0
H2618 H 0.82558 0.51872 0.03202 0.0
H2619 H 0.83285 0.50993 0.00816 0.0
H2620 H 0.83375 0.49357 0.02895 0.0
H2621 H 0.90528 0.56626 0.03023 0.0
H2622 H 0.88852 0.56635 0.00914 0.0
H2623 H 0.88007 0.57418 0.03291 0.0
H2624 H 0.83211 0.56386 0.96999 0.0
H2625 H 0.81412 0.58409 0.02755 0.0
H2626 H 0.85689 0.52218 0.98425 0.0
H2627 H 0.87579 0.54104 0.98489 0.0
H2628 H 0.8571 0.54082 0.96547 0.0
H2629 H 0.83456 0.54645 0.05487 0.0
H2630 H 0.82802 0.57218 0.05695 0.0
H2631 H 0.85358 0.56518 0.05498 0.0
C2632 C 0.1242 0.95623 0.00051 0.0
C2633 C 0.11864 0.964 0.01897 0.0
C2634 C 0.13935 0.94232 0.99902 0.0
C2635 C 0.14924 0.936 0.0164 0.0
C2636 C 0.14368 0.94374 0.03509 0.0
C2637 C 0.12844 0.95762 0.03615 0.0
C2638 C 0.14476 0.93436 0.97882 0.0
C2639 C 0.15392 0.93744 0.05395 0.0
C2640 C 0.17639 0.88711 0.01416 0.0
C2641 C 0.19608 0.89346 0.01167 0.0
C2642 C 0.16103 0.90078 0.01581 0.0
C2643 C 0.16543 0.92133 0.01499 0.0
C2644 C 0.18528 0.92785 0.0126 0.0
C2645 C 0.20035 0.91385 0.01095 0.0
C2646 C 0.14005 0.89323 0.01832 0.0
C2647 C 0.19059 0.94963 0.01169 0.0
H2648 H 0.11651 0.96086 0.9872 0.0
H2649 H 0.12439 0.96371 0.05044 0.0
H2650 H 0.1606 0.93767 0.97598 0.0
H2651 H 0.14277 0.91801 0.97828 0.0
H2652 H 0.13564 0.94077 0.96676 0.0
H2653 H 0.14776 0.94474 0.06731 0.0
H2654 H 0.15245 0.92116 0.05551 0.0
H2655 H 0.16998 0.94109 0.05337 0.0
H2656 H 0.17292 0.8714 0.01474 0.0
H2657 H 0.2155 0.91893 0.00906 0.0
H2658 H 0.13054 0.89826 0.00589 0.0
H2659 H 0.1339 0.89944 0.03218 0.0
H2660 H 0.13911 0.87681 0.01883 0.0
H2661 H 0.1827 0.95638 0.99901 0.0
H2662 H 0.20675 0.95229 0.01006 0.0
H2663 H 0.18574 0.95739 0.02534 0.0
loop_
_geom_bond_atom_site_label_1
_geom_bond_atom_site_label_2
_geom_bond_distance
_geom_bond_site_symmetry_2
_ccdc_geom_bond_type
C0 C1 1.391 . S
C0 C4 1.391 1_556 S
C0 H42 0.948 . S
C1 C0 1.391 . S
C1 C2 1.391 1_556 S
C2 C1 1.391 1_554 S
C2 H58 0.983 . S
C2 C59 1.392 . S
C3 C4 1.391 . S
C3 C7 1.397 . S
C3 C59 1.419 . S
C4 C0 1.391 1_554 S
C4 C3 1.391 . S
C4 C5 1.399 . S
C5 C4 1.399 . S
C5 C8 1.396 . S
C5 C17 1.453 . S
C5 C18 1.684 1_554 S
H6 C30 0.948 . S
C7 C3 1.397 . S
C7 C8 1.394 . S
C7 C26 1.723 . S
C8 C5 1.396 . S
C8 C7 1.394 . S
C8 C38 1.723 . S
H9 C32 0.983 . S
H10 C33 0.948 . S
H11 C39 0.982 . S
H12 C40 0.979 . S
H13 C40 0.980 . S
H14 C40 0.983 . S
H15 C39 0.979 1_565 S
H16 C39 0.977 . S
C17 C5 1.453 . S
C17 H46 0.982 . S
C17 H47 0.979 1_554 S
C17 H48 0.977 . S
C18 C5 1.684 1_556 S
C18 H43 0.979 . S
C18 H44 0.980 . S
C18 H45 0.983 . S
C19 C20 1.391 . S
C19 C24 1.391 1_655 S
C19 H49 0.948 . S
C20 C19 1.391 . S
C20 C21 1.391 1_655 S
C21 C20 1.391 1_455 S
C21 C22 1.392 . S
C21 H50 0.983 . S
C22 C21 1.392 . S
C22 C23 1.419 . S
C22 H51 0.948 . S
C23 C22 1.419 . S
C23 C24 1.391 . S
C23 C27 1.397 . S
C24 C19 1.391 1_455 S
C24 C23 1.391 . S
C24 C25 1.399 . S
C25 C24 1.399 . S
C25 C26 1.396 . S
C25 C28 1.453 . S
C25 C29 1.684 1_455 S
C26 C7 1.723 . S
C26 C25 1.396 . S
C26 C27 1.394 . S
C27 C23 1.397 . S
C27 C26 1.394 . S
C27 C37 1.723 . S
C28 C25 1.453 . S
C28 H52 0.982 . S
C28 H53 0.979 1_455 S
C28 H54 0.977 . S
C29 C25 1.684 1_655 S
C29 H55 0.979 . S
C29 H56 0.980 . S
C29 H57 0.983 . S
C30 H6 0.948 . S
C30 C31 1.391 . S
C30 C35 1.391 1_565 S
C31 C30 1.391 . S
C31 C32 1.391 1_565 S
C32 H9 0.983 . S
C32 C31 1.391 1_545 S
C32 C33 1.392 . S
C33 H10 0.948 . S
C33 C32 1.392 . S
C33 C34 1.419 . S
C34 C33 1.419 . S
C34 C35 1.391 . S
C34 C38 1.397 . S
C35 C30 1.391 1_545 S
C35 C34 1.391 . S
C35 C36 1.399 . S
C36 C35 1.399 . S
C36 C37 1.396 . S
C36 C39 1.453 . S
C36 C40 1.684 1_545 S
C37 C27 1.723 . S
C37 C36 1.396 . S
C37 C38 1.394 . S
C38 C8 1.723 . S
C38 C34 1.397 . S
C38 C37 1.394 . S
C39 H11 0.982 . S
C39 H15 0.979 1_545 S
C39 H16 0.977 . S
C39 C36 1.453 . S
C40 H12 0.979 . S
C40 H13 0.980 . S
C40 H14 0.983 . S
C40 C36 1.684 1_565 S
H41 C59 0.948 . S
H42 C0 0.948 . S
H43 C18 0.979 . S
H44 C18 0.980 . S
H45 C18 0.983 . S
H46 C17 0.982 . S
H47 C17 0.979 1_556 S
H48 C17 0.977 . S
H49 C19 0.948 . S
H50 C21 0.983 . S
H51 C22 0.948 . S
H52 C28 0.982 . S
H53 C28 0.979 1_655 S
H54 C28 0.977 . S
H55 C29 0.979 . S
H56 C29 0.980 . S
H57 C29 0.983 . S
H58 C2 0.983 . S
C59 C2 1.392 . S
C59 C3 1.419 . S
C59 H41 0.948 . S
C60 C61 1.391 . S
C60 C64 1.391 . S
C60 H102 0.948 . S
C61 C60 1.391 . S
C61 C62 1.391 . S
C62 C61 1.391 . S
C62 H118 0.947 . S
C62 C119 1.392 . S
C63 C64 1.391 . S
C63 C67 1.397 . S
C63 C119 1.419 . S
C64 C60 1.391 . S
C64 C63 1.391 . S
C64 C65 1.399 . S
C65 C64 1.399 . S
C65 C68 1.396 . S
C65 C77 1.453 . S
C65 C78 1.684 . S
H66 C90 0.948 . S
C67 C63 1.397 . S
C67 C68 1.394 . S
C67 C86 1.723 . S
C68 C65 1.396 . S
C68 C67 1.394 . S
C68 C98 1.723 . S
H69 C92 0.947 . S
H70 C93 0.948 . S
H71 C99 0.982 . S
H72 C100 0.979 . S
H73 C100 0.980 . S
H74 C100 0.983 . S
H75 C99 0.979 . S
H76 C99 0.977 . S
C77 C65 1.453 . S
C77 H106 0.982 . S
C77 H107 0.979 . S
C77 H108 0.977 . S
C78 C65 1.684 . S
C78 H103 0.979 . S
C78 H104 0.980 . S
C78 H105 0.983 . S
C79 C80 1.391 . S
C79 C84 1.391 . S
C79 H109 0.948 . S
C80 C79 1.391 . S
C80 C81 1.391 . S
C81 C80 1.391 . S
C81 C82 1.392 . S
C81 H110 0.947 . S
C82 C81 1.392 . S
C82 C83 1.419 . S
C82 H111 0.948 . S
C83 C82 1.419 . S
C83 C84 1.391 . S
C83 C87 1.397 . S
C84 C79 1.391 . S
C84 C83 1.391 . S
C84 C85 1.399 . S
C85 C84 1.399 . S
C85 C86 1.396 . S
C85 C88 1.453 . S
C85 C89 1.684 . S
C86 C67 1.723 . S
C86 C85 1.396 . S
C86 C87 1.394 . S
C87 C83 1.397 . S
C87 C86 1.394 . S
C87 C97 1.723 . S
C88 C85 1.453 . S
C88 H112 0.982 . S
C88 H113 0.979 . S
C88 H114 0.977 . S
C89 C85 1.684 . S
C89 H115 0.979 . S
C89 H116 0.980 . S
C89 H117 0.983 . S
C90 H66 0.948 . S
C90 C91 1.391 . S
C90 C95 1.391 . S
C91 C90 1.391 . S
C91 C92 1.391 . S
C92 H69 0.947 . S
C92 C91 1.391 . S
C92 C93 1.392 . S
C93 H70 0.948 . S
C93 C92 1.392 . S
C93 C94 1.419 . S
C94 C93 1.419 . S
C94 C95 1.391 . S
C94 C98 1.397 . S
C95 C90 1.391 . S
C95 C94 1.391 . S
C95 C96 1.399 . S
C96 C95 1.399 . S
C96 C97 1.396 . S
C96 C99 1.453 . S
C96 C100 1.684 . S
C97 C87 1.723 . S
C97 C96 1.396 . S
C97 C98 1.394 . S
C98 C68 1.723 . S
C98 C94 1.397 . S
C98 C97 1.394 . S
C99 H71 0.982 . S
C99 H75 0.979 . S
C99 H76 0.977 . S
C99 C96 1.453 . S
C100 H72 0.979 . S
C100 H73 0.980 . S
C100 H74 0.983 . S
C100 C96 1.684 . S
H101 C119 0.948 . S
H102 C60 0.948 . S
H103 C78 0.979 . S
H104 C78 0.980 . S
H105 C78 0.983 . S
H106 C77 0.982 . S
H107 C77 0.979 . S
H108 C77 0.977 . S
H109 C79 0.948 . S
H110 C81 0.947 . S
H111 C82 0.948 . S
H112 C88 0.982 . S
H113 C88 0.979 . S
H114 C88 0.977 . S
H115 C89 0.979 . S
H116 C89 0.980 . S
H117 C89 0.983 . S
H118 C62 0.947 . S
C119 C62 1.392 . S
C119 C63 1.419 . S
C119 H101 0.948 . S
C120 C121 1.346 1_554 S
C120 C124 1.391 . S
C120 H162 0.948 . S
C121 C120 1.346 1_556 S
C121 C122 1.405 . S
C122 C121 1.405 . S
C122 H178 0.947 . S
C122 C179 1.392 1_556 S
C123 C124 1.391 . S
C123 C127 1.397 . S
C123 C179 1.419 . S
C124 C120 1.391 . S
C124 C123 1.391 . S
C124 C125 1.399 . S
C125 C124 1.399 . S
C125 C128 1.396 . S
C125 C137 1.453 . S
C125 C138 1.684 1_655 S
H126 C150 0.948 . S
C127 C123 1.397 . S
C127 C128 1.394 . S
C127 C146 1.723 . S
C128 C125 1.396 . S
C128 C127 1.394 . S
C128 C158 1.723 . S
H129 C152 0.947 . S
H130 C153 0.948 1_455 S
H131 C159 0.982 . S
H132 C160 0.979 . S
H133 C160 0.980 . S
H134 C160 0.983 . S
H135 C159 0.979 . S
H136 C159 0.977 . S
C137 C125 1.453 . S
C137 H166 0.982 . S
C137 H167 0.979 . S
C137 H168 0.977 . S
C138 C125 1.684 1_455 S
C138 H163 0.979 . S
C138 H164 0.980 . S
C138 H165 0.983 . S
C139 C140 1.391 . S
C139 C144 1.391 . S
C139 H169 0.948 . S
C140 C139 1.391 . S
C140 C141 1.391 . S
C141 C140 1.391 . S
C141 C142 1.392 . S
C141 H170 0.947 . S
C142 C141 1.392 . S
C142 C143 1.419 . S
C142 H171 0.948 . S
C143 C142 1.419 . S
C143 C144 1.391 . S
C143 C147 1.397 . S
C144 C139 1.391 . S
C144 C143 1.391 . S
C144 C145 1.399 . S
C145 C144 1.399 . S
C145 C146 1.396 . S
C145 C148 1.453 . S
C145 C149 1.734 . S
C146 C127 1.723 . S
C146 C145 1.396 . S
C146 C147 1.394 . S
C147 C143 1.397 . S
C147 C146 1.394 . S
C147 C157 1.723 . S
C148 C145 1.453 . S
C148 H172 0.982 . S
C148 H173 0.979 . S
C148 H174 0.977 . S
C149 C145 1.734 . S
C149 H175 0.964 1_554 S
C149 H176 0.965 1_554 S
C149 H177 0.966 1_554 S
C150 H126 0.948 . S
C150 C151 1.391 1_655 S
C150 C155 1.391 . S
C151 C150 1.391 1_455 S
C151 C152 1.391 . S
C152 H129 0.947 . S
C152 C151 1.391 . S
C152 C153 1.392 1_455 S
C153 H130 0.948 1_655 S
C153 C152 1.392 1_655 S
C153 C154 1.419 . S
C154 C153 1.419 . S
C154 C155 1.391 . S
C154 C158 1.397 . S
C155 C150 1.391 . S
C155 C154 1.391 . S
C155 C156 1.399 . S
C156 C155 1.399 . S
C156 C157 1.396 . S
C156 C159 1.453 . S
C156 C160 1.684 . S
C157 C147 1.723 . S
C157 C156 1.396 . S
C157 C158 1.394 . S
C158 C128 1.723 . S
C158 C154 1.397 . S
C158 C157 1.394 . S
C159 H131 0.982 . S
C159 H135 0.979 . S
C159 H136 0.977 . S
C159 C156 1.453 . S
C160 H132 0.979 . S
C160 H133 0.980 . S
C160 H134 0.983 . S
C160 C156 1.684 . S
H161 C179 0.948 . S
H162 C120 0.948 . S
H163 C138 0.979 . S
H164 C138 0.980 . S
H165 C138 0.983 . S
H166 C137 0.982 . S
H167 C137 0.979 . S
H168 C137 0.977 . S
H169 C139 0.948 . S
H170 C141 0.947 . S
H171 C142 0.948 . S
H172 C148 0.982 . S
H173 C148 0.979 . S
H174 C148 0.977 . S
H175 C149 0.964 1_556 S
H176 C149 0.965 1_556 S
H177 C149 0.966 1_556 S
H178 C122 0.947 . S
C179 C122 1.392 1_554 S
C179 C123 1.419 . S
C179 H161 0.948 . S
C180 C181 1.391 . S
C180 C184 1.391 . S
C180 H222 0.948 . S
C181 C180 1.391 . S
C181 C182 1.391 . S
C182 C181 1.391 . S
C182 H238 0.947 . S
C182 C239 1.392 . S
C183 C184 1.391 . S
C183 C187 1.397 . S
C183 C239 1.419 . S
C184 C180 1.391 . S
C184 C183 1.391 . S
C184 C185 1.399 . S
C185 C184 1.399 . S
C185 C188 1.396 . S
C185 C197 1.453 . S
C185 C198 1.684 . S
H186 C210 0.948 . S
C187 C183 1.397 . S
C187 C188 1.394 . S
C187 C206 1.723 . S
C188 C185 1.396 . S
C188 C187 1.394 . S
C188 C218 1.723 . S
H189 C212 0.947 . S
H190 C213 0.948 . S
H191 C219 0.982 . S
H192 C220 0.979 . S
H193 C220 0.980 . S
H194 C220 0.983 . S
H195 C219 0.979 . S
H196 C219 0.977 . S
C197 C185 1.453 . S
C197 H226 0.982 . S
C197 H227 0.979 . S
C197 H228 0.977 . S
C198 C185 1.684 . S
C198 H223 0.979 . S
C198 H224 0.980 . S
C198 H225 0.983 . S
C199 C200 1.391 . S
C199 C204 1.391 . S
C199 H229 0.948 . S
C200 C199 1.391 . S
C200 C201 1.391 . S
C201 C200 1.391 . S
C201 C202 1.392 . S
C201 H230 0.947 . S
C202 C201 1.392 . S
C202 C203 1.419 . S
C202 H231 0.948 . S
C203 C202 1.419 . S
C203 C204 1.391 . S
C203 C207 1.397 . S
C204 C199 1.391 . S
C204 C203 1.391 . S
C204 C205 1.399 . S
C205 C204 1.399 . S
C205 C206 1.396 . S
C205 C208 1.453 . S
C205 C209 1.684 . S
C206 C187 1.723 . S
C206 C205 1.396 . S
C206 C207 1.394 . S
C207 C203 1.397 . S
C207 C206 1.394 . S
C207 C217 1.723 . S
C208 C205 1.453 . S
C208 H232 0.982 . S
C208 H233 0.979 . S
C208 H234 0.977 . S
C209 C205 1.684 . S
C209 H235 0.979 . S
C209 H236 0.980 . S
C209 H237 0.983 . S
C210 H186 0.948 . S
C210 C211 1.391 . S
C210 C215 1.391 . S
C211 C210 1.391 . S
C211 C212 1.391 . S
C212 H189 0.947 . S
C212 C211 1.391 . S
C212 C213 1.392 . S
C213 H190 0.948 . S
C213 C212 1.392 . S
C213 C214 1.419 . S
C214 C213 1.419 . S
C214 C215 1.391 . S
C214 C218 1.397 . S
C215 C210 1.391 . S
C215 C214 1.391 . S
C215 C216 1.399 . S
C216 C215 1.399 . S
C216 C217 1.396 . S
C216 C219 1.453 . S
C216 C220 1.684 . S
C217 C207 1.723 . S
C217 C216 1.396 . S
C217 C218 1.394 . S
C218 C188 1.723 . S
C218 C214 1.397 . S
C218 C217 1.394 . S
C219 H191 0.982 . S
C219 H195 0.979 . S
C219 H196 0.977 . S
C219 C216 1.453 . S
C220 H192 0.979 . S
C220 H193 0.980 . S
C220 H194 0.983 . S
C220 C216 1.684 . S
H221 C239 0.948 . S
H222 C180 0.948 . S
H223 C198 0.979 . S
H224 C198 0.980 . S
H225 C198 0.983 . S
H226 C197 0.982 . S
H227 C197 0.979 . S
H228 C197 0.977 . S
H229 C199 0.948 . S
H230 C201 0.947 . S
H231 C202 0.948 . S
H232 C208 0.982 . S
H233 C208 0.979 . S
H234 C208 0.977 . S
H235 C209 0.979 . S
H236 C209 0.980 . S
H237 C209 0.983 . S
H238 C182 0.947 . S
C239 C182 1.392 . S
C239 C183 1.419 . S
C239 H221 0.948 . S
C240 C241 1.391 . S
C240 C244 1.391 . S
C240 H282 0.948 . S
C241 C240 1.391 . S
C241 C242 1.391 . S
C242 C241 1.391 . S
C242 H298 0.947 . S
C242 C299 1.392 . S
C243 C244 1.391 . S
C243 C247 1.397 . S
C243 C299 1.419 . S
C244 C240 1.391 . S
C244 C243 1.391 . S
C244 C245 1.399 . S
C245 C244 1.399 . S
C245 C248 1.396 . S
C245 C257 1.453 . S
C245 C258 1.684 . S
H246 C270 0.944 . S
C247 C243 1.397 . S
C247 C248 1.394 . S
C247 C266 1.723 . S
C248 C245 1.396 . S
C248 C247 1.394 . S
C248 C278 1.723 . S
H249 C272 0.947 . S
H250 C273 0.948 . S
H251 C279 0.982 . S
H252 C280 0.979 . S
H253 C280 0.980 . S
H254 C280 0.983 1_545 S
H255 C279 0.979 . S
H256 C279 0.977 1_565 S
C257 C245 1.453 . S
C257 H286 0.982 . S
C257 H287 0.979 . S
C257 H288 0.977 . S
C258 C245 1.684 . S
C258 H283 0.979 . S
C258 H284 0.980 . S
C258 H285 0.983 . S
C259 C260 1.391 . S
C259 C264 1.391 . S
C259 H289 0.948 1_455 S
C260 C259 1.391 . S
C260 C261 1.391 . S
C261 C260 1.391 . S
C261 C262 1.392 . S
C261 H290 0.947 . S
C262 C261 1.392 . S
C262 C263 1.419 . S
C262 H291 0.948 . S
C263 C262 1.419 . S
C263 C264 1.391 . S
C263 C267 1.397 . S
C264 C259 1.391 . S
C264 C263 1.391 . S
C264 C265 1.399 . S
C265 C264 1.399 . S
C265 C266 1.396 . S
C265 C268 1.453 . S
C265 C269 1.684 . S
C266 C247 1.723 . S
C266 C265 1.396 . S
C266 C267 1.394 . S
C267 C263 1.397 . S
C267 C266 1.394 . S
C267 C277 1.723 . S
C268 C265 1.453 . S
C268 H292 0.982 1_455 S
C268 H293 0.979 1_455 S
C268 H294 0.977 . S
C269 C265 1.684 . S
C269 H295 0.979 . S
C269 H296 0.980 . S
C269 H297 0.983 . S
C270 H246 0.944 . S
C270 C271 1.392 1_545 S
C270 C275 1.394 1_545 S
C271 C270 1.392 1_565 S
C271 C272 1.391 . S
C272 H249 0.947 . S
C272 C271 1.391 . S
C272 C273 1.392 . S
C273 H250 0.948 . S
C273 C272 1.392 . S
C273 C274 1.419 . S
C274 C273 1.419 . S
C274 C275 1.391 . S
C274 C278 1.397 . S
C275 C270 1.394 1_565 S
C275 C274 1.391 . S
C275 C276 1.399 . S
C276 C275 1.399 . S
C276 C277 1.396 . S
C276 C279 1.453 1_565 S
C276 C280 1.684 . S
C277 C267 1.723 . S
C277 C276 1.396 . S
C277 C278 1.394 . S
C278 C248 1.723 . S
C278 C274 1.397 . S
C278 C277 1.394 . S
C279 H251 0.982 . S
C279 H255 0.979 . S
C279 H256 0.977 1_545 S
C279 C276 1.453 1_545 S
C280 H252 0.979 . S
C280 H253 0.980 . S
C280 H254 0.983 1_565 S
C280 C276 1.684 . S
H281 C299 0.948 . S
H282 C240 0.948 . S
H283 C258 0.979 . S
H284 C258 0.980 . S
H285 C258 0.983 . S
H286 C257 0.982 . S
H287 C257 0.979 . S
H288 C257 0.977 . S
H289 C259 0.948 1_655 S
H290 C261 0.947 . S
H291 C262 0.948 . S
H292 C268 0.982 1_655 S
H293 C268 0.979 1_655 S
H294 C268 0.977 . S
H295 C269 0.979 . S
H296 C269 0.980 . S
H297 C269 0.983 . S
H298 C242 0.947 . S
C299 C242 1.392 . S
C299 C243 1.419 . S
C299 H281 0.948 . S
C300 C301 1.391 . S
C300 C304 1.391 . S
C300 H342 0.948 . S
C301 C300 1.391 . S
C301 C302 1.391 . S
C302 C301 1.391 . S
C302 H358 0.947 . S
C302 C359 1.392 . S
C303 C304 1.391 . S
C303 C307 1.397 . S
C303 C359 1.419 . S
C304 C300 1.391 . S
C304 C303 1.391 . S
C304 C305 1.399 . S
C305 C304 1.399 . S
C305 C308 1.396 . S
C305 C317 1.453 . S
C305 C318 1.684 . S
H306 C330 0.948 . S
C307 C303 1.397 . S
C307 C308 1.394 . S
C307 C326 1.723 . S
C308 C305 1.396 . S
C308 C307 1.394 . S
C308 C338 1.723 . S
H309 C332 0.947 . S
H310 C333 0.948 . S
H311 C339 0.982 . S
H312 C340 0.979 . S
H313 C340 0.980 . S
H314 C340 0.983 . S
H315 C339 0.979 . S
H316 C339 0.977 . S
C317 C305 1.453 . S
C317 H346 0.982 . S
C317 H347 0.979 . S
C317 H348 0.977 . S
C318 C305 1.684 . S
C318 H343 0.979 . S
C318 H344 0.980 . S
C318 H345 0.983 . S
C319 C320 1.391 . S
C319 C324 1.391 . S
C319 H349 0.948 . S
C320 C319 1.391 . S
C320 C321 1.391 . S
C321 C320 1.391 . S
C321 C322 1.392 . S
C321 H350 0.947 . S
C322 C321 1.392 . S
C322 C323 1.419 . S
C322 H351 0.948 . S
C323 C322 1.419 . S
C323 C324 1.391 . S
C323 C327 1.397 . S
C324 C319 1.391 . S
C324 C323 1.391 . S
C324 C325 1.399 . S
C325 C324 1.399 . S
C325 C326 1.396 . S
C325 C328 1.453 . S
C325 C329 1.684 . S
C326 C307 1.723 . S
C326 C325 1.396 . S
C326 C327 1.394 . S
C327 C323 1.397 . S
C327 C326 1.394 . S
C327 C337 1.723 . S
C328 C325 1.453 . S
C328 H352 0.982 . S
C328 H353 0.979 . S
C328 H354 0.977 . S
C329 C325 1.684 . S
C329 H355 0.979 . S
C329 H356 0.980 . S
C329 H357 0.983 . S
C330 H306 0.948 . S
C330 C331 1.391 . S
C330 C335 1.391 . S
C331 C330 1.391 . S
C331 C332 1.391 . S
C332 H309 0.947 . S
C332 C331 1.391 . S
C332 C333 1.392 . S
C333 H310 0.948 . S
C333 C332 1.392 . S
C333 C334 1.419 . S
C334 C333 1.419 . S
C334 C335 1.391 . S
C334 C338 1.397 . S
C335 C330 1.391 . S
C335 C334 1.391 . S
C335 C336 1.399 . S
C336 C335 1.399 . S
C336 C337 1.396 . S
C336 C339 1.453 . S
C336 C340 1.684 . S
C337 C327 1.723 . S
C337 C336 1.396 . S
C337 C338 1.394 . S
C338 C308 1.723 . S
C338 C334 1.397 . S
C338 C337 1.394 . S
C339 H311 0.982 . S
C339 H315 0.979 . S
C339 H316 0.977 . S
C339 C336 1.453 . S
C340 H312 0.979 . S
C340 H313 0.980 . S
C340 H314 0.983 . S
C340 C336 1.684 . S
H341 C359 0.948 . S
H342 C300 0.948 . S
H343 C318 0.979 . S
H344 C318 0.980 . S
H345 C318 0.983 . S
H346 C317 0.982 . S
H347 C317 0.979 . S
H348 C317 0.977 . S
H349 C319 0.948 . S
H350 C321 0.947 . S
H351 C322 0.948 . S
H352 C328 0.982 . S
H353 C328 0.979 . S
H354 C328 0.977 . S
H355 C329 0.979 . S
H356 C329 0.980 . S
H357 C329 0.983 . S
H358 C302 0.947 . S
C359 C302 1.392 . S
C359 C303 1.419 . S
C359 H341 0.948 . S
C360 C361 1.391 . S
C360 C364 1.391 . S
C360 H402 0.948 . S
C361 C360 1.391 . S
C361 C362 1.391 . S
C362 C361 1.391 . S
C362 H418 0.947 . S
C362 C419 1.392 . S
C363 C364 1.391 . S
C363 C367 1.397 . S
C363 C419 1.419 . S
C364 C360 1.391 . S
C364 C363 1.391 . S
C364 C365 1.399 . S
C365 C364 1.399 . S
C365 C368 1.396 . S
C365 C377 1.453 . S
C365 C378 1.684 . S
H366 C390 0.948 . S
C367 C363 1.397 . S
C367 C368 1.394 . S
C367 C386 1.723 . S
C368 C365 1.396 . S
C368 C367 1.394 . S
C368 C398 1.723 . S
H369 C392 0.947 . S
H370 C393 0.948 . S
H371 C399 0.982 . S
H372 C400 0.979 . S
H373 C400 0.980 . S
H374 C400 0.983 . S
H375 C399 0.979 . S
H376 C399 0.977 . S
C377 C365 1.453 . S
C377 H406 0.982 . S
C377 H407 0.979 . S
C377 H408 0.977 . S
C378 C365 1.684 . S
C378 H403 0.979 . S
C378 H404 0.980 . S
C378 H405 0.983 . S
C379 C380 1.391 1_655 S
C379 C384 1.391 . S
C379 H409 0.948 . S
C380 C379 1.391 1_455 S
C380 C381 1.391 . S
C381 C380 1.391 . S
C381 C382 1.392 . S
C381 H410 0.947 . S
C382 C381 1.392 . S
C382 C383 1.419 1_455 S
C382 H411 0.948 . S
C383 C382 1.419 1_655 S
C383 C384 1.391 . S
C383 C387 1.397 . S
C384 C379 1.391 . S
C384 C383 1.391 . S
C384 C385 1.399 . S
C385 C384 1.399 . S
C385 C386 1.396 . S
C385 C388 1.453 . S
C385 C389 1.684 . S
C386 C367 1.723 . S
C386 C385 1.396 . S
C386 C387 1.394 . S
C387 C383 1.397 . S
C387 C386 1.394 . S
C387 C397 1.723 . S
C388 C385 1.453 . S
C388 H412 0.982 . S
C388 H413 0.979 . S
C388 H414 0.977 . S
C389 C385 1.684 . S
C389 H415 0.979 . S
C389 H416 0.980 . S
C389 H417 0.983 . S
C390 H366 0.948 . S
C390 C391 1.391 . S
C390 C395 1.391 . S
C391 C390 1.391 . S
C391 C392 1.391 . S
C392 H369 0.947 . S
C392 C391 1.391 . S
C392 C393 1.392 . S
C393 H370 0.948 . S
C393 C392 1.392 . S
C393 C394 1.419 . S
C394 C393 1.419 . S
C394 C395 1.391 . S
C394 C398 1.397 . S
C395 C390 1.391 . S
C395 C394 1.391 . S
C395 C396 1.399 . S
C396 C395 1.399 . S
C396 C397 1.396 . S
C396 C399 1.453 . S
C396 C400 1.684 1_655 S
C397 C387 1.723 . S
C397 C396 1.396 . S
C397 C398 1.394 . S
C398 C368 1.723 . S
C398 C394 1.397 . S
C398 C397 1.394 . S
C399 H371 0.982 . S
C399 H375 0.979 . S
C399 H376 0.977 . S
C399 C396 1.453 . S
C400 H372 0.979 . S
C400 H373 0.980 . S
C400 H374 0.983 . S
C400 C396 1.684 1_455 S
H401 C419 0.948 . S
H402 C360 0.948 . S
H403 C378 0.979 . S
H404 C378 0.980 . S
H405 C378 0.983 . S
H406 C377 0.982 . S
H407 C377 0.979 . S
H408 C377 0.977 . S
H409 C379 0.948 . S
H410 C381 0.947 . S
H411 C382 0.948 . S
H412 C388 0.982 . S
H413 C388 0.979 . S
H414 C388 0.977 . S
H415 C389 0.979 . S
H416 C389 0.980 . S
H417 C389 0.983 . S
H418 C362 0.947 . S
C419 C362 1.392 . S
C419 C363 1.419 . S
C419 H401 0.948 . S
C420 C421 1.391 . S
C420 C424 1.391 . S
C420 H462 0.948 . S
C421 C420 1.391 . S
C421 C422 1.391 . S
C422 C421 1.391 . S
C422 H478 0.947 . S
C422 C479 1.392 . S
C423 C424 1.391 . S
C423 C427 1.397 . S
C423 C479 1.419 . S
C424 C420 1.391 . S
C424 C423 1.391 . S
C424 C425 1.399 . S
C425 C424 1.399 . S
C425 C428 1.396 . S
C425 C437 1.453 . S
C425 C438 1.684 . S
H426 C450 0.948 . S
C427 C423 1.397 . S
C427 C428 1.394 . S
C427 C446 1.723 . S
C428 C425 1.396 . S
C428 C427 1.394 . S
C428 C458 1.723 . S
H429 C452 0.947 . S
H430 C453 0.948 . S
H431 C459 0.982 . S
H432 C460 0.979 . S
H433 C460 0.980 . S
H434 C460 0.983 . S
H435 C459 0.979 . S
H436 C459 0.977 . S
C437 C425 1.453 . S
C437 H466 0.982 . S
C437 H467 0.979 . S
C437 H468 0.977 . S
C438 C425 1.684 . S
C438 H463 0.979 . S
C438 H464 0.980 . S
C438 H465 0.983 . S
C439 C440 1.391 . S
C439 C444 1.391 . S
C439 H469 0.948 . S
C440 C439 1.391 . S
C440 C441 1.391 . S
C441 C440 1.391 . S
C441 C442 1.392 . S
C441 H470 0.947 . S
C442 C441 1.392 . S
C442 C443 1.419 . S
C442 H471 0.948 . S
C443 C442 1.419 . S
C443 C444 1.391 . S
C443 C447 1.397 . S
C444 C439 1.391 . S
C444 C443 1.391 . S
C444 C445 1.399 . S
C445 C444 1.399 . S
C445 C446 1.396 . S
C445 C448 1.453 . S
C445 C449 1.684 . S
C446 C427 1.723 . S
C446 C445 1.396 . S
C446 C447 1.394 . S
C447 C443 1.397 . S
C447 C446 1.394 . S
C447 C457 1.723 . S
C448 C445 1.453 . S
C448 H472 0.982 . S
C448 H473 0.979 . S
C448 H474 0.977 . S
C449 C445 1.684 . S
C449 H475 0.979 . S
C449 H476 0.980 . S
C449 H477 0.983 . S
C450 H426 0.948 . S
C450 C451 1.391 . S
C450 C455 1.391 . S
C451 C450 1.391 . S
C451 C452 1.391 . S
C452 H429 0.947 . S
C452 C451 1.391 . S
C452 C453 1.392 . S
C453 H430 0.948 . S
C453 C452 1.392 . S
C453 C454 1.419 . S
C454 C453 1.419 . S
C454 C455 1.391 . S
C454 C458 1.397 . S
C455 C450 1.391 . S
C455 C454 1.391 . S
C455 C456 1.399 . S
C456 C455 1.399 . S
C456 C457 1.396 . S
C456 C459 1.453 . S
C456 C460 1.684 . S
C457 C447 1.723 . S
C457 C456 1.396 . S
C457 C458 1.394 . S
C458 C428 1.723 . S
C458 C454 1.397 . S
C458 C457 1.394 . S
C459 H431 0.982 . S
C459 H435 0.979 . S
C459 H436 0.977 . S
C459 C456 1.453 . S
C460 H432 0.979 . S
C460 H433 0.980 . S
C460 H434 0.983 . S
C460 C456 1.684 . S
H461 C479 0.948 . S
H462 C420 0.948 . S
H463 C438 0.979 . S
H464 C438 0.980 . S
H465 C438 0.983 . S
H466 C437 0.982 . S
H467 C437 0.979 . S
H468 C437 0.977 . S
H469 C439 0.948 . S
H470 C441 0.947 . S
H471 C442 0.948 . S
H472 C448 0.982 . S
H473 C448 0.979 . S
H474 C448 0.977 . S
H475 C449 0.979 . S
H476 C449 0.980 . S
H477 C449 0.983 . S
H478 C422 0.947 . S
C479 C422 1.392 . S
C479 C423 1.419 . S
C479 H461 0.948 . S
C480 C481 1.391 . S
C480 C484 1.391 . S
C480 H522 0.948 . S
C481 C480 1.391 . S
C481 C482 1.391 . S
C482 C481 1.391 . S
C482 H538 0.947 . S
C482 C539 1.392 . S
C483 C484 1.391 . S
C483 C487 1.397 . S
C483 C539 1.419 . S
C484 C480 1.391 . S
C484 C483 1.391 . S
C484 C485 1.399 . S
C485 C484 1.399 . S
C485 C488 1.396 . S
C485 C497 1.453 . S
C485 C498 1.684 . S
H486 C510 0.948 . S
C487 C483 1.397 . S
C487 C488 1.394 . S
C487 C506 1.723 . S
C488 C485 1.396 . S
C488 C487 1.394 . S
C488 C518 1.723 . S
H489 C512 0.947 . S
H490 C513 0.948 . S
H491 C519 0.982 . S
H492 C520 0.979 . S
H493 C520 0.980 . S
H494 C520 0.983 . S
H495 C519 0.979 . S
H496 C519 0.977 . S
C497 C485 1.453 . S
C497 H526 0.982 . S
C497 H527 0.979 . S
C497 H528 0.977 . S
C498 C485 1.684 . S
C498 H523 0.979 . S
C498 H524 0.980 . S
C498 H525 0.983 . S
C499 C500 1.391 . S
C499 C504 1.391 . S
C499 H529 0.948 . S
C500 C499 1.391 . S
C500 C501 1.391 . S
C501 C500 1.391 . S
C501 C502 1.392 . S
C501 H530 0.947 . S
C502 C501 1.392 . S
C502 C503 1.419 . S
C502 H531 0.948 . S
C503 C502 1.419 . S
C503 C504 1.391 . S
C503 C507 1.397 . S
C504 C499 1.391 . S
C504 C503 1.391 . S
C504 C505 1.399 . S
C505 C504 1.399 . S
C505 C506 1.396 . S
C505 C508 1.453 . S
C505 C509 1.684 . S
C506 C487 1.723 . S
C506 C505 1.396 . S
C506 C507 1.394 . S
C507 C503 1.397 . S
C507 C506 1.394 . S
C507 C517 1.723 . S
C508 C505 1.453 . S
C508 H532 0.982 . S
C508 H533 0.979 . S
C508 H534 0.977 . S
C509 C505 1.684 . S
C509 H535 0.979 . S
C509 H536 0.980 . S
C509 H537 0.983 . S
C510 H486 0.948 . S
C510 C511 1.391 . S
C510 C515 1.391 . S
C511 C510 1.391 . S
C511 C512 1.391 . S
C512 H489 0.947 . S
C512 C511 1.391 . S
C512 C513 1.392 . S
C513 H490 0.948 . S
C513 C512 1.392 . S
C513 C514 1.419 . S
C514 C513 1.419 . S
C514 C515 1.391 . S
C514 C518 1.397 . S
C515 C510 1.391 . S
C515 C514 1.391 . S
C515 C516 1.399 . S
C516 C515 1.399 . S
C516 C517 1.396 . S
C516 C519 1.453 . S
C516 C520 1.684 . S
C517 C507 1.723 . S
C517 C516 1.396 . S
C517 C518 1.394 . S
C518 C488 1.723 . S
C518 C514 1.397 . S
C518 C517 1.394 . S
C519 H491 0.982 . S
C519 H495 0.979 . S
C519 H496 0.977 . S
C519 C516 1.453 . S
C520 H492 0.979 . S
C520 H493 0.980 . S
C520 H494 0.983 . S
C520 C516 1.684 . S
H521 C539 0.948 . S
H522 C480 0.948 . S
H523 C498 0.979 . S
H524 C498 0.980 . S
H525 C498 0.983 . S
H526 C497 0.982 . S
H527 C497 0.979 . S
H528 C497 0.977 . S
H529 C499 0.948 . S
H530 C501 0.947 . S
H531 C502 0.948 . S
H532 C508 0.982 . S
H533 C508 0.979 . S
H534 C508 0.977 . S
H535 C509 0.979 . S
H536 C509 0.980 . S
H537 C509 0.983 . S
H538 C482 0.947 . S
C539 C482 1.392 . S
C539 C483 1.419 . S
C539 H521 0.948 . S
C540 C541 1.391 . S
C540 C544 1.391 . S
C540 H582 0.948 . S
C541 C540 1.391 . S
C541 C542 1.391 . S
C542 C541 1.391 . S
C542 H598 0.947 . S
C542 C599 1.392 . S
C543 C544 1.391 . S
C543 C547 1.397 . S
C543 C599 1.419 . S
C544 C540 1.391 . S
C544 C543 1.391 . S
C544 C545 1.399 . S
C545 C544 1.399 . S
C545 C548 1.396 . S
C545 C557 1.453 . S
C545 C558 1.684 . S
H546 C570 0.948 . S
C547 C543 1.397 . S
C547 C548 1.394 . S
C547 C566 1.723 . S
C548 C545 1.396 . S
C548 C547 1.394 . S
C548 C578 1.723 . S
H549 C572 0.947 . S
H550 C573 0.948 . S
H551 C579 0.982 . S
H552 C580 0.979 . S
H553 C580 0.980 . S
H554 C580 0.983 . S
H555 C579 0.979 . S
H556 C579 0.977 . S
C557 C545 1.453 . S
C557 H586 0.982 . S
C557 H587 0.979 . S
C557 H588 0.977 . S
C558 C545 1.684 . S
C558 H583 0.979 . S
C558 H584 0.980 . S
C558 H585 0.983 . S
C559 C560 1.391 1_565 S
C559 C564 1.391 . S
C559 H589 0.948 . S
C560 C559 1.391 1_545 S
C560 C561 1.391 . S
C561 C560 1.391 . S
C561 C562 1.392 . S
C561 H590 0.947 . S
C562 C561 1.392 . S
C562 C563 1.419 1_545 S
C562 H591 0.948 . S
C563 C562 1.419 1_565 S
C563 C564 1.391 . S
C563 C567 1.397 . S
C564 C559 1.391 . S
C564 C563 1.391 . S
C564 C565 1.399 . S
C565 C564 1.399 . S
C565 C566 1.396 . S
C565 C568 1.453 . S
C565 C569 1.684 . S
C566 C547 1.723 . S
C566 C565 1.396 . S
C566 C567 1.394 . S
C567 C563 1.397 . S
C567 C566 1.394 . S
C567 C577 1.723 . S
C568 C565 1.453 . S
C568 H592 0.982 . S
C568 H593 0.979 . S
C568 H594 0.977 . S
C569 C565 1.684 . S
C569 H595 0.979 . S
C569 H596 0.980 . S
C569 H597 0.983 . S
C570 H546 0.948 . S
C570 C571 1.391 . S
C570 C575 1.391 . S
C571 C570 1.391 . S
C571 C572 1.391 . S
C572 H549 0.947 . S
C572 C571 1.391 . S
C572 C573 1.392 . S
C573 H550 0.948 . S
C573 C572 1.392 . S
C573 C574 1.419 . S
C574 C573 1.419 . S
C574 C575 1.391 . S
C574 C578 1.397 . S
C575 C570 1.391 . S
C575 C574 1.391 . S
C575 C576 1.399 . S
C576 C575 1.399 . S
C576 C577 1.396 . S
C576 C579 1.453 . S
C576 C580 1.684 1_565 S
C577 C567 1.723 . S
C577 C576 1.396 . S
C577 C578 1.394 . S
C578 C548 1.723 . S
C578 C574 1.397 . S
C578 C577 1.394 . S
C579 H551 0.982 . S
C579 H555 0.979 . S
C579 H556 0.977 . S
C579 C576 1.453 . S
C580 H552 0.979 . S
C580 H553 0.980 . S
C580 H554 0.983 . S
C580 C576 1.684 1_545 S
H581 C599 0.948 . S
H582 C540 0.948 . S
H583 C558 0.979 . S
H584 C558 0.980 . S
H585 C558 0.983 . S
H586 C557 0.982 . S
H587 C557 0.979 . S
H588 C557 0.977 . S
H589 C559 0.948 . S
H590 C561 0.947 . S
H591 C562 0.948 . S
H592 C568 0.982 . S
H593 C568 0.979 . S
H594 C568 0.977 . S
H595 C569 0.979 . S
H596 C569 0.980 . S
H597 C569 0.983 . S
H598 C542 0.947 . S
C599 C542 1.392 . S
C599 C543 1.419 . S
C599 H581 0.948 . S
C600 C601 1.391 . S
C600 C604 1.391 . S
C600 H642 0.948 . S
C601 C600 1.391 . S
C601 C602 1.391 . S
C602 C601 1.391 . S
C602 H658 0.947 . S
C602 C659 1.392 . S
C603 C604 1.391 . S
C603 C607 1.397 . S
C603 C659 1.419 . S
C604 C600 1.391 . S
C604 C603 1.391 . S
C604 C605 1.399 . S
C605 C604 1.399 . S
C605 C608 1.396 . S
C605 C617 1.453 . S
C605 C618 1.684 . S
H606 C630 0.948 . S
C607 C603 1.397 . S
C607 C608 1.394 . S
C607 C626 1.723 . S
C608 C605 1.396 . S
C608 C607 1.394 . S
C608 C638 1.723 . S
H609 C632 0.947 . S
H610 C633 0.948 . S
H611 C639 0.982 . S
H612 C640 0.979 . S
H613 C640 0.980 . S
H614 C640 0.983 . S
H615 C639 0.979 . S
H616 C639 0.977 . S
C617 C605 1.453 . S
C617 H646 0.982 . S
C617 H647 0.979 . S
C617 H648 0.977 . S
C618 C605 1.684 . S
C618 H643 0.979 . S
C618 H644 0.980 . S
C618 H645 0.983 . S
C619 C620 1.391 . S
C619 C624 1.391 . S
C619 H649 0.948 . S
C620 C619 1.391 . S
C620 C621 1.391 . S
C621 C620 1.391 . S
C621 C622 1.392 . S
C621 H650 0.947 . S
C622 C621 1.392 . S
C622 C623 1.419 . S
C622 H651 0.948 . S
C623 C622 1.419 . S
C623 C624 1.391 . S
C623 C627 1.397 . S
C624 C619 1.391 . S
C624 C623 1.391 . S
C624 C625 1.399 . S
C625 C624 1.399 . S
C625 C626 1.396 . S
C625 C628 1.453 . S
C625 C629 1.684 . S
C626 C607 1.723 . S
C626 C625 1.396 . S
C626 C627 1.394 . S
C627 C623 1.397 . S
C627 C626 1.394 . S
C627 C637 1.723 . S
C628 C625 1.453 . S
C628 H652 0.982 . S
C628 H653 0.979 . S
C628 H654 0.977 . S
C629 C625 1.684 . S
C629 H655 0.979 . S
C629 H656 0.980 . S
C629 H657 0.983 . S
C630 H606 0.948 . S
C630 C631 1.391 . S
C630 C635 1.391 . S
C631 C630 1.391 . S
C631 C632 1.391 . S
C632 H609 0.947 . S
C632 C631 1.391 . S
C632 C633 1.392 . S
C633 H610 0.948 . S
C633 C632 1.392 . S
C633 C634 1.419 . S
C634 C633 1.419 . S
C634 C635 1.391 . S
C634 C638 1.397 . S
C635 C630 1.391 . S
C635 C634 1.391 . S
C635 C636 1.399 . S
C636 C635 1.399 . S
C636 C637 1.396 . S
C636 C639 1.453 . S
C636 C640 1.684 . S
C637 C627 1.723 . S
C637 C636 1.396 . S
C637 C638 1.394 . S
C638 C608 1.723 . S
C638 C634 1.397 . S
C638 C637 1.394 . S
C639 H611 0.982 . S
C639 H615 0.979 . S
C639 H616 0.977 . S
C639 C636 1.453 . S
C640 H612 0.979 . S
C640 H613 0.980 . S
C640 H614 0.983 . S
C640 C636 1.684 . S
H641 C659 0.948 . S
H642 C600 0.948 . S
H643 C618 0.979 . S
H644 C618 0.980 . S
H645 C618 0.983 . S
H646 C617 0.982 . S
H647 C617 0.979 . S
H648 C617 0.977 . S
H649 C619 0.948 . S
H650 C621 0.947 . S
H651 C622 0.948 . S
H652 C628 0.982 . S
H653 C628 0.979 . S
H654 C628 0.977 . S
H655 C629 0.979 . S
H656 C629 0.980 . S
H657 C629 0.983 . S
H658 C602 0.947 . S
C659 C602 1.392 . S
C659 C603 1.419 . S
C659 H641 0.948 . S
C660 C661 1.391 . S
C660 C664 1.391 . S
C660 H702 0.948 . S
C661 C660 1.391 . S
C661 C662 1.391 . S
C662 C661 1.391 . S
C662 H718 0.947 . S
C662 C719 1.392 . S
C663 C664 1.391 . S
C663 C667 1.397 . S
C663 C719 1.419 . S
C664 C660 1.391 . S
C664 C663 1.391 . S
C664 C665 1.399 . S
C665 C664 1.399 . S
C665 C668 1.396 . S
C665 C677 1.453 . S
C665 C678 1.684 . S
H666 C690 0.948 . S
C667 C663 1.397 . S
C667 C668 1.394 . S
C667 C686 1.723 . S
C668 C665 1.396 . S
C668 C667 1.394 . S
C668 C698 1.723 . S
H669 C692 0.947 . S
H670 C693 0.948 . S
H671 C699 0.982 . S
H672 C700 0.979 . S
H673 C700 0.980 . S
H674 C700 0.983 . S
H675 C699 0.979 . S
H676 C699 0.977 . S
C677 C665 1.453 . S
C677 H706 0.982 . S
C677 H707 0.979 . S
C677 H708 0.977 . S
C678 C665 1.684 . S
C678 H703 0.979 . S
C678 H704 0.980 . S
C678 H705 0.983 . S
C679 C680 1.391 . S
C679 C684 1.391 . S
C679 H709 0.948 . S
C680 C679 1.391 . S
C680 C681 1.391 . S
C681 C680 1.391 . S
C681 C682 1.392 . S
C681 H710 0.947 . S
C682 C681 1.392 . S
C682 C683 1.419 . S
C682 H711 0.948 . S
C683 C682 1.419 . S
C683 C684 1.391 . S
C683 C687 1.397 . S
C684 C679 1.391 . S
C684 C683 1.391 . S
C684 C685 1.399 . S
C685 C684 1.399 . S
C685 C686 1.396 . S
C685 C688 1.453 . S
C685 C689 1.684 . S
C686 C667 1.723 . S
C686 C685 1.396 . S
C686 C687 1.394 . S
C687 C683 1.397 . S
C687 C686 1.394 . S
C687 C697 1.723 . S
C688 C685 1.453 . S
C688 H712 0.982 . S
C688 H713 0.979 . S
C688 H714 0.977 . S
C689 C685 1.684 . S
C689 H715 0.979 . S
C689 H716 0.980 . S
C689 H717 0.983 . S
C690 H666 0.948 . S
C690 C691 1.391 . S
C690 C695 1.391 . S
C691 C690 1.391 . S
C691 C692 1.391 . S
C692 H669 0.947 . S
C692 C691 1.391 . S
C692 C693 1.392 . S
C693 H670 0.948 . S
C693 C692 1.392 . S
C693 C694 1.419 . S
C694 C693 1.419 . S
C694 C695 1.391 . S
C694 C698 1.397 . S
C695 C690 1.391 . S
C695 C694 1.391 . S
C695 C696 1.399 . S
C696 C695 1.399 . S
C696 C697 1.396 . S
C696 C699 1.453 . S
C696 C700 1.684 . S
C697 C687 1.723 . S
C697 C696 1.396 . S
C697 C698 1.394 . S
C698 C668 1.723 . S
C698 C694 1.397 . S
C698 C697 1.394 . S
C699 H671 0.982 . S
C699 H675 0.979 . S
C699 H676 0.977 . S
C699 C696 1.453 . S
C700 H672 0.979 . S
C700 H673 0.980 . S
C700 H674 0.983 . S
C700 C696 1.684 . S
H701 C719 0.948 . S
H702 C660 0.948 . S
H703 C678 0.979 . S
H704 C678 0.980 . S
H705 C678 0.983 . S
H706 C677 0.982 . S
H707 C677 0.979 . S
H708 C677 0.977 . S
H709 C679 0.948 . S
H710 C681 0.947 . S
H711 C682 0.948 . S
H712 C688 0.982 . S
H713 C688 0.979 . S
H714 C688 0.977 . S
H715 C689 0.979 . S
H716 C689 0.980 . S
H717 C689 0.983 . S
H718 C662 0.947 . S
C719 C662 1.392 . S
C719 C663 1.419 . S
C719 H701 0.948 . S
C720 C721 1.391 . S
C720 C724 1.391 . S
C720 H762 0.948 . S
C721 C720 1.391 . S
C721 C722 1.391 . S
C722 C721 1.391 . S
C722 H778 0.947 . S
C722 C779 1.392 . S
C723 C724 1.391 . S
C723 C727 1.397 . S
C723 C779 1.419 . S
C724 C720 1.391 . S
C724 C723 1.391 . S
C724 C725 1.399 . S
C725 C724 1.399 . S
C725 C728 1.396 . S
C725 C737 1.453 . S
C725 C738 1.684 . S
H726 C750 0.948 . S
C727 C723 1.397 . S
C727 C728 1.394 . S
C727 C746 1.723 . S
C728 C725 1.396 . S
C728 C727 1.394 . S
C728 C758 1.723 . S
H729 C752 0.947 . S
H730 C753 0.948 . S
H731 C759 0.982 . S
H732 C760 0.979 . S
H733 C760 0.980 . S
H734 C760 0.983 . S
H735 C759 0.979 . S
H736 C759 0.977 . S
C737 C725 1.453 . S
C737 H766 0.982 . S
C737 H767 0.979 . S
C737 H768 0.977 . S
C738 C725 1.684 . S
C738 H763 0.979 . S
C738 H764 0.980 . S
C738 H765 0.983 . S
C739 C740 1.391 . S
C739 C744 1.391 . S
C739 H769 0.948 . S
C740 C739 1.391 . S
C740 C741 1.391 . S
C741 C740 1.391 . S
C741 C742 1.392 . S
C741 H770 0.947 . S
C742 C741 1.392 . S
C742 C743 1.419 . S
C742 H771 0.948 . S
C743 C742 1.419 . S
C743 C744 1.391 . S
C743 C747 1.397 . S
C744 C739 1.391 . S
C744 C743 1.391 . S
C744 C745 1.399 . S
C745 C744 1.399 . S
C745 C746 1.396 . S
C745 C748 1.453 . S
C745 C749 1.684 . S
C746 C727 1.723 . S
C746 C745 1.396 . S
C746 C747 1.394 . S
C747 C743 1.397 . S
C747 C746 1.394 . S
C747 C757 1.723 . S
C748 C745 1.453 . S
C748 H772 0.982 . S
C748 H773 0.979 . S
C748 H774 0.977 . S
C749 C745 1.684 . S
C749 H775 0.979 . S
C749 H776 0.980 . S
C749 H777 0.983 . S
C750 H726 0.948 . S
C750 C751 1.391 . S
C750 C755 1.391 . S
C751 C750 1.391 . S
C751 C752 1.391 . S
C752 H729 0.947 . S
C752 C751 1.391 . S
C752 C753 1.392 . S
C753 H730 0.948 . S
C753 C752 1.392 . S
C753 C754 1.419 . S
C754 C753 1.419 . S
C754 C755 1.391 . S
C754 C758 1.397 . S
C755 C750 1.391 . S
C755 C754 1.391 . S
C755 C756 1.399 . S
C756 C755 1.399 . S
C756 C757 1.396 . S
C756 C759 1.453 . S
C756 C760 1.684 . S
C757 C747 1.723 . S
C757 C756 1.396 . S
C757 C758 1.394 . S
C758 C728 1.723 . S
C758 C754 1.397 . S
C758 C757 1.394 . S
C759 H731 0.982 . S
C759 H735 0.979 . S
C759 H736 0.977 . S
C759 C756 1.453 . S
C760 H732 0.979 . S
C760 H733 0.980 . S
C760 H734 0.983 . S
C760 C756 1.684 . S
H761 C779 0.948 . S
H762 C720 0.948 . S
H763 C738 0.979 . S
H764 C738 0.980 . S
H765 C738 0.983 . S
H766 C737 0.982 . S
H767 C737 0.979 . S
H768 C737 0.977 . S
H769 C739 0.948 . S
H770 C741 0.947 . S
H771 C742 0.948 . S
H772 C748 0.982 . S
H773 C748 0.979 . S
H774 C748 0.977 . S
H775 C749 0.979 . S
H776 C749 0.980 . S
H777 C749 0.983 . S
H778 C722 0.947 . S
C779 C722 1.392 . S
C779 C723 1.419 . S
C779 H761 0.948 . S
C780 C781 1.391 . S
C780 C784 1.391 1_554 S
C780 H822 0.948 . S
C781 C780 1.391 . S
C781 C782 1.391 1_554 S
C782 C781 1.391 1_556 S
C782 H838 0.947 . S
C782 C839 1.392 . S
C783 C784 1.391 . S
C783 C787 1.397 . S
C783 C839 1.419 . S
C784 C780 1.391 1_556 S
C784 C783 1.391 . S
C784 C785 1.399 . S
C785 C784 1.399 . S
C785 C788 1.396 . S
C785 C797 1.453 1_556 S
C785 C798 1.684 . S
H786 C810 0.948 . S
C787 C783 1.397 . S
C787 C788 1.394 . S
C787 C806 1.723 . S
C788 C785 1.396 . S
C788 C787 1.394 . S
C788 C818 1.723 . S
H789 C812 0.947 . S
H790 C813 0.948 . S
H791 C819 0.982 . S
H792 C820 0.979 . S
H793 C820 0.980 . S
H794 C820 0.983 . S
H795 C819 0.979 . S
H796 C819 0.977 . S
C797 C785 1.453 1_554 S
C797 H826 0.982 . S
C797 H827 0.979 . S
C797 H828 0.977 . S
C798 C785 1.684 . S
C798 H823 0.979 . S
C798 H824 0.980 . S
C798 H825 0.983 1_556 S
C799 C800 1.391 . S
C799 C804 1.391 . S
C799 H829 0.948 . S
C800 C799 1.391 . S
C800 C801 1.391 . S
C801 C800 1.391 . S
C801 C802 1.392 . S
C801 H830 0.947 . S
C802 C801 1.392 . S
C802 C803 1.419 . S
C802 H831 0.948 . S
C803 C802 1.419 . S
C803 C804 1.391 . S
C803 C807 1.397 . S
C804 C799 1.391 . S
C804 C803 1.391 . S
C804 C805 1.399 . S
C805 C804 1.399 . S
C805 C806 1.396 . S
C805 C808 1.453 . S
C805 C809 1.684 . S
C806 C787 1.723 . S
C806 C805 1.396 . S
C806 C807 1.394 . S
C807 C803 1.397 . S
C807 C806 1.394 . S
C807 C817 1.723 . S
C808 C805 1.453 . S
C808 H832 0.982 . S
C808 H833 0.979 . S
C808 H834 0.977 . S
C809 C805 1.684 . S
C809 H835 0.979 . S
C809 H836 0.980 . S
C809 H837 0.983 . S
C810 H786 0.948 . S
C810 C811 1.391 . S
C810 C815 1.391 . S
C811 C810 1.391 . S
C811 C812 1.391 . S
C812 H789 0.947 . S
C812 C811 1.391 . S
C812 C813 1.392 . S
C813 H790 0.948 . S
C813 C812 1.392 . S
C813 C814 1.419 . S
C814 C813 1.419 . S
C814 C815 1.391 . S
C814 C818 1.397 . S
C815 C810 1.391 . S
C815 C814 1.391 . S
C815 C816 1.399 . S
C816 C815 1.399 . S
C816 C817 1.396 . S
C816 C819 1.453 . S
C816 C820 1.684 . S
C817 C807 1.723 . S
C817 C816 1.396 . S
C817 C818 1.394 . S
C818 C788 1.723 . S
C818 C814 1.397 . S
C818 C817 1.394 . S
C819 H791 0.982 . S
C819 H795 0.979 . S
C819 H796 0.977 . S
C819 C816 1.453 . S
C820 H792 0.979 . S
C820 H793 0.980 . S
C820 H794 0.983 . S
C820 C816 1.684 . S
H821 C839 0.948 . S
H822 C780 0.948 . S
H823 C798 0.979 . S
H824 C798 0.980 . S
H825 C798 0.983 1_554 S
H826 C797 0.982 . S
H827 C797 0.979 . S
H828 C797 0.977 . S
H829 C799 0.948 . S
H830 C801 0.947 . S
H831 C802 0.948 . S
H832 C808 0.982 . S
H833 C808 0.979 . S
H834 C808 0.977 . S
H835 C809 0.979 . S
H836 C809 0.980 . S
H837 C809 0.983 . S
H838 C782 0.947 . S
C839 C782 1.392 . S
C839 C783 1.419 . S
C839 H821 0.948 . S
C840 C841 1.391 . S
C840 C844 1.391 . S
C840 H882 0.948 . S
C841 C840 1.391 . S
C841 C842 1.391 . S
C842 C841 1.391 . S
C842 H898 0.947 . S
C842 C899 1.392 . S
C843 C844 1.391 . S
C843 C847 1.397 . S
C843 C899 1.419 . S
C844 C840 1.391 . S
C844 C843 1.391 . S
C844 C845 1.399 . S
C845 C844 1.399 . S
C845 C848 1.396 . S
C845 C857 1.453 . S
C845 C858 1.684 . S
H846 C870 0.948 . S
C847 C843 1.397 . S
C847 C848 1.394 . S
C847 C866 1.723 . S
C848 C845 1.396 . S
C848 C847 1.394 . S
C848 C878 1.723 . S
H849 C872 0.947 . S
H850 C873 0.948 . S
H851 C879 0.982 . S
H852 C880 0.979 . S
H853 C880 0.980 . S
H854 C880 0.983 . S
H855 C879 0.979 . S
H856 C879 0.977 . S
C857 C845 1.453 . S
C857 H886 0.982 . S
C857 H887 0.979 . S
C857 H888 0.977 . S
C858 C845 1.684 . S
C858 H883 0.979 . S
C858 H884 0.980 . S
C858 H885 0.983 . S
C859 C860 1.391 . S
C859 C864 1.391 . S
C859 H889 0.948 . S
C860 C859 1.391 . S
C860 C861 1.391 . S
C861 C860 1.391 . S
C861 C862 1.392 . S
C861 H890 0.947 . S
C862 C861 1.392 . S
C862 C863 1.419 . S
C862 H891 0.948 . S
C863 C862 1.419 . S
C863 C864 1.391 . S
C863 C867 1.397 . S
C864 C859 1.391 . S
C864 C863 1.391 . S
C864 C865 1.399 . S
C865 C864 1.399 . S
C865 C866 1.396 . S
C865 C868 1.453 . S
C865 C869 1.684 . S
C866 C847 1.723 . S
C866 C865 1.396 . S
C866 C867 1.394 . S
C867 C863 1.397 . S
C867 C866 1.394 . S
C867 C877 1.723 . S
C868 C865 1.453 . S
C868 H892 0.982 . S
C868 H893 0.979 . S
C868 H894 0.977 . S
C869 C865 1.684 . S
C869 H895 0.979 . S
C869 H896 0.980 . S
C869 H897 0.983 . S
C870 H846 0.948 . S
C870 C871 1.391 . S
C870 C875 1.391 . S
C871 C870 1.391 . S
C871 C872 1.391 . S
C872 H849 0.947 . S
C872 C871 1.391 . S
C872 C873 1.392 . S
C873 H850 0.948 . S
C873 C872 1.392 . S
C873 C874 1.419 . S
C874 C873 1.419 . S
C874 C875 1.391 . S
C874 C878 1.397 . S
C875 C870 1.391 . S
C875 C874 1.391 . S
C875 C876 1.399 . S
C876 C875 1.399 . S
C876 C877 1.396 . S
C876 C879 1.453 . S
C876 C880 1.684 . S
C877 C867 1.723 . S
C877 C876 1.396 . S
C877 C878 1.394 . S
C878 C848 1.723 . S
C878 C874 1.397 . S
C878 C877 1.394 . S
C879 H851 0.982 . S
C879 H855 0.979 . S
C879 H856 0.977 . S
C879 C876 1.453 . S
C880 H852 0.979 . S
C880 H853 0.980 . S
C880 H854 0.983 . S
C880 C876 1.684 . S
H881 C899 0.948 . S
H882 C840 0.948 . S
H883 C858 0.979 . S
H884 C858 0.980 . S
H885 C858 0.983 . S
H886 C857 0.982 . S
H887 C857 0.979 . S
H888 C857 0.977 . S
H889 C859 0.948 . S
H890 C861 0.947 . S
H891 C862 0.948 . S
H892 C868 0.982 . S
H893 C868 0.979 . S
H894 C868 0.977 . S
H895 C869 0.979 . S
H896 C869 0.980 . S
H897 C869 0.983 . S
H898 C842 0.947 . S
C899 C842 1.392 . S
C899 C843 1.419 . S
C899 H881 0.948 . S
C900 C901 1.346 1_545 S
C900 C904 1.391 . S
C900 H942 0.948 . S
C901 C900 1.346 1_565 S
C901 C902 1.405 . S
C902 C901 1.405 . S
C902 H958 0.947 . S
C902 C959 1.392 1_565 S
C903 C904 1.391 . S
C903 C907 1.397 . S
C903 C959 1.419 . S
C904 C900 1.391 . S
C904 C903 1.391 . S
C904 C905 1.399 . S
C905 C904 1.399 . S
C905 C908 1.396 . S
C905 C917 1.453 . S
C905 C918 1.684 1_556 S
H906 C930 0.948 . S
C907 C903 1.397 . S
C907 C908 1.394 . S
C907 C926 1.723 . S
C908 C905 1.396 . S
C908 C907 1.394 . S
C908 C938 1.723 . S
H909 C932 0.947 . S
H910 C933 0.948 1_554 S
H911 C939 0.982 . S
H912 C940 0.979 . S
H913 C940 0.980 . S
H914 C940 0.983 . S
H915 C939 0.979 . S
H916 C939 0.977 . S
C917 C905 1.453 . S
C917 H946 0.982 . S
C917 H947 0.979 . S
C917 H948 0.977 . S
C918 C905 1.684 1_554 S
C918 H943 0.979 . S
C918 H944 0.980 . S
C918 H945 0.983 . S
C919 C920 1.391 . S
C919 C924 1.391 . S
C919 H949 0.948 . S
C920 C919 1.391 . S
C920 C921 1.391 . S
C921 C920 1.391 . S
C921 C922 1.392 . S
C921 H950 0.947 . S
C922 C921 1.392 . S
C922 C923 1.419 . S
C922 H951 0.948 . S
C923 C922 1.419 . S
C923 C924 1.391 . S
C923 C927 1.397 . S
C924 C919 1.391 . S
C924 C923 1.391 . S
C924 C925 1.399 . S
C925 C924 1.399 . S
C925 C926 1.396 . S
C925 C928 1.453 . S
C925 C929 1.734 . S
C926 C907 1.723 . S
C926 C925 1.396 . S
C926 C927 1.394 . S
C927 C923 1.397 . S
C927 C926 1.394 . S
C927 C937 1.723 . S
C928 C925 1.453 . S
C928 H952 0.982 . S
C928 H953 0.979 . S
C928 H954 0.977 . S
C929 C925 1.734 . S
C929 H955 0.964 1_545 S
C929 H956 0.965 1_545 S
C929 H957 0.966 1_545 S
C930 H906 0.948 . S
C930 C931 1.391 1_556 S
C930 C935 1.391 . S
C931 C930 1.391 1_554 S
C931 C932 1.391 . S
C932 H909 0.947 . S
C932 C931 1.391 . S
C932 C933 1.392 1_554 S
C933 H910 0.948 1_556 S
C933 C932 1.392 1_556 S
C933 C934 1.419 . S
C934 C933 1.419 . S
C934 C935 1.391 . S
C934 C938 1.397 . S
C935 C930 1.391 . S
C935 C934 1.391 . S
C935 C936 1.399 . S
C936 C935 1.399 . S
C936 C937 1.396 . S
C936 C939 1.453 . S
C936 C940 1.684 . S
C937 C927 1.723 . S
C937 C936 1.396 . S
C937 C938 1.394 . S
C938 C908 1.723 . S
C938 C934 1.397 . S
C938 C937 1.394 . S
C939 H911 0.982 . S
C939 H915 0.979 . S
C939 H916 0.977 . S
C939 C936 1.453 . S
C940 H912 0.979 . S
C940 H913 0.980 . S
C940 H914 0.983 . S
C940 C936 1.684 . S
H941 C959 0.948 . S
H942 C900 0.948 . S
H943 C918 0.979 . S
H944 C918 0.980 . S
H945 C918 0.983 . S
H946 C917 0.982 . S
H947 C917 0.979 . S
H948 C917 0.977 . S
H949 C919 0.948 . S
H950 C921 0.947 . S
H951 C922 0.948 . S
H952 C928 0.982 . S
H953 C928 0.979 . S
H954 C928 0.977 . S
H955 C929 0.964 1_565 S
H956 C929 0.965 1_565 S
H957 C929 0.966 1_565 S
H958 C902 0.947 . S
C959 C902 1.392 1_545 S
C959 C903 1.419 . S
C959 H941 0.948 . S
Zn960 O963 2.030 . S
Zn960 O965 2.050 1_554 S
Zn960 O970 2.068 1_554 S
Zn961 O962 1.962 . S
Zn961 O964 1.986 . S
Zn961 O966 1.996 . S
Zn961 O969 1.943 1_554 S
O962 Zn961 1.962 . S
O962 C967 1.254 . S
O963 Zn960 2.030 . S
O963 C967 1.269 . S
O964 Zn961 1.986 . S
O964 C971 1.262 . S
O965 Zn960 2.050 1_556 S
O965 C973 1.260 . S
O966 Zn961 1.996 . S
O966 C973 1.257 1_554 S
C967 O962 1.254 . S
C967 O963 1.269 . S
C968 O969 1.249 . S
C968 O970 1.270 . S
O969 Zn961 1.943 1_556 S
O969 C968 1.249 . S
O970 Zn960 2.068 1_556 S
O970 C968 1.270 . S
C971 O964 1.262 . S
C971 O972 1.232 . S
O972 C971 1.232 . S
C973 O965 1.260 . S
C973 O966 1.257 1_556 S
Zn974 O977 2.031 . S
Zn974 O979 2.049 . S
Zn974 O984 2.067 . S
Zn975 O976 1.962 . S
Zn975 O978 1.986 . S
Zn975 O980 1.996 . S
Zn975 O983 1.943 . S
O976 Zn975 1.962 . S
O976 C981 1.254 . S
O977 Zn974 2.031 . S
O977 C981 1.269 . S
O978 Zn975 1.986 . S
O978 C985 1.262 . S
O979 Zn974 2.049 . S
O979 C987 1.260 . S
O980 Zn975 1.996 . S
O980 C987 1.257 . S
C981 O976 1.254 . S
C981 O977 1.269 . S
C982 O983 1.249 . S
C982 O984 1.270 . S
O983 Zn975 1.943 . S
O983 C982 1.249 . S
O984 Zn974 2.067 . S
O984 C982 1.270 . S
C985 O978 1.262 . S
C985 O986 1.232 . S
O986 C985 1.232 . S
C987 O979 1.260 . S
C987 O980 1.257 . S
Zn988 O991 2.031 . S
Zn988 O993 2.049 . S
Zn988 O998 2.067 . S
Zn989 O990 1.962 . S
Zn989 O992 1.986 . S
Zn989 O994 1.996 1_554 S
Zn989 O997 1.943 . S
O990 Zn989 1.962 . S
O990 C995 1.254 . S
O991 Zn988 2.031 . S
O991 C995 1.269 1_556 S
O992 Zn989 1.986 . S
O992 C999 1.262 . S
O993 Zn988 2.049 . S
O993 C1001 1.260 . S
O994 Zn989 1.996 1_556 S
O994 C1001 1.257 . S
C995 O990 1.254 . S
C995 O991 1.269 1_554 S
C996 O997 1.249 1_556 S
C996 O998 1.270 . S
O997 Zn989 1.943 . S
O997 C996 1.249 1_554 S
O998 Zn988 2.067 . S
O998 C996 1.270 . S
C999 O992 1.262 . S
C999 O1000 1.232 . S
O1000 C999 1.232 . S
C1001 O993 1.260 . S
C1001 O994 1.257 . S
Zn1002 O1005 2.030 . S
Zn1002 O1007 2.050 1_545 S
Zn1002 O1012 2.068 1_545 S
Zn1003 O1004 1.962 . S
Zn1003 O1006 1.986 . S
Zn1003 O1008 1.996 . S
Zn1003 O1011 1.943 1_545 S
O1004 Zn1003 1.962 . S
O1004 C1009 1.254 . S
O1005 Zn1002 2.030 . S
O1005 C1009 1.269 . S
O1006 Zn1003 1.986 . S
O1006 C1013 1.262 . S
O1007 Zn1002 2.050 1_565 S
O1007 C1015 1.260 . S
O1008 Zn1003 1.996 . S
O1008 C1015 1.257 1_545 S
C1009 O1004 1.254 . S
C1009 O1005 1.269 . S
C1010 O1011 1.249 . S
C1010 O1012 1.270 . S
O1011 Zn1003 1.943 1_565 S
O1011 C1010 1.249 . S
O1012 Zn1002 2.068 1_565 S
O1012 C1010 1.270 . S
C1013 O1006 1.262 . S
C1013 O1014 1.232 . S
O1014 C1013 1.232 . S
C1015 O1007 1.260 . S
C1015 O1008 1.257 1_565 S
Zn1016 O1019 2.031 . S
Zn1016 O1021 2.049 . S
Zn1016 O1026 2.067 . S
Zn1017 O1018 1.962 . S
Zn1017 O1020 1.986 . S
Zn1017 O1022 1.996 . S
Zn1017 O1025 1.943 . S
O1018 Zn1017 1.962 . S
O1018 C1023 1.254 . S
O1019 Zn1016 2.031 . S
O1019 C1023 1.269 . S
O1020 Zn1017 1.986 . S
O1020 C1027 1.262 . S
O1021 Zn1016 2.049 . S
O1021 C1029 1.260 . S
O1022 Zn1017 1.996 . S
O1022 C1029 1.257 . S
C1023 O1018 1.254 . S
C1023 O1019 1.269 . S
C1024 O1025 1.249 . S
C1024 O1026 1.270 . S
O1025 Zn1017 1.943 . S
O1025 C1024 1.249 . S
O1026 Zn1016 2.067 . S
O1026 C1024 1.270 . S
C1027 O1020 1.262 . S
C1027 O1028 1.232 . S
O1028 C1027 1.232 . S
C1029 O1021 1.260 . S
C1029 O1022 1.257 . S
Zn1030 O1033 2.031 . S
Zn1030 O1035 2.049 . S
Zn1030 O1040 2.067 . S
Zn1031 O1032 1.962 . S
Zn1031 O1034 1.986 . S
Zn1031 O1036 1.996 . S
Zn1031 O1039 1.943 . S
O1032 Zn1031 1.962 . S
O1032 C1037 1.254 . S
O1033 Zn1030 2.031 . S
O1033 C1037 1.269 . S
O1034 Zn1031 1.986 . S
O1034 C1041 1.262 . S
O1035 Zn1030 2.049 . S
O1035 C1043 1.260 . S
O1036 Zn1031 1.996 . S
O1036 C1043 1.257 . S
C1037 O1032 1.254 . S
C1037 O1033 1.269 . S
C1038 O1039 1.249 . S
C1038 O1040 1.270 . S
O1039 Zn1031 1.943 . S
O1039 C1038 1.249 . S
O1040 Zn1030 2.067 . S
O1040 C1038 1.270 . S
C1041 O1034 1.262 . S
C1041 O1042 1.232 . S
O1042 C1041 1.232 . S
C1043 O1035 1.260 . S
C1043 O1036 1.257 . S
Zn1044 O1047 2.031 . S
Zn1044 O1049 2.049 . S
Zn1044 O1054 2.067 . S
Zn1045 O1046 1.962 . S
Zn1045 O1048 1.986 . S
Zn1045 O1050 1.996 . S
Zn1045 O1053 1.943 . S
O1046 Zn1045 1.962 . S
O1046 C1051 1.254 . S
O1047 Zn1044 2.031 . S
O1047 C1051 1.269 . S
O1048 Zn1045 1.986 . S
O1048 C1055 1.262 . S
O1049 Zn1044 2.049 . S
O1049 C1057 1.260 . S
O1050 Zn1045 1.996 . S
O1050 C1057 1.257 . S
C1051 O1046 1.254 . S
C1051 O1047 1.269 . S
C1052 O1053 1.249 . S
C1052 O1054 1.270 . S
O1053 Zn1045 1.943 . S
O1053 C1052 1.249 . S
O1054 Zn1044 2.067 . S
O1054 C1052 1.270 . S
C1055 O1048 1.262 . S
C1055 O1056 1.232 . S
O1056 C1055 1.232 . S
C1057 O1049 1.260 . S
C1057 O1050 1.257 . S
Zn1058 O1061 2.031 . S
Zn1058 O1063 2.049 . S
Zn1058 O1068 2.067 . S
Zn1059 O1060 1.962 . S
Zn1059 O1062 1.986 . S
Zn1059 O1064 1.996 1_545 S
Zn1059 O1067 1.943 . S
O1060 Zn1059 1.962 . S
O1060 C1065 1.254 . S
O1061 Zn1058 2.031 . S
O1061 C1065 1.269 1_565 S
O1062 Zn1059 1.986 . S
O1062 C1069 1.262 . S
O1063 Zn1058 2.049 . S
O1063 C1071 1.260 . S
O1064 Zn1059 1.996 1_565 S
O1064 C1071 1.257 . S
C1065 O1060 1.254 . S
C1065 O1061 1.269 1_545 S
C1066 O1067 1.249 1_565 S
C1066 O1068 1.270 . S
O1067 Zn1059 1.943 . S
O1067 C1066 1.249 1_545 S
O1068 Zn1058 2.067 . S
O1068 C1066 1.270 . S
C1069 O1062 1.262 . S
C1069 O1070 1.232 . S
O1070 C1069 1.232 . S
C1071 O1063 1.260 . S
C1071 O1064 1.257 . S
Zn1072 O1075 2.030 . S
Zn1072 O1077 2.050 1_455 S
Zn1072 O1082 2.068 1_455 S
Zn1073 O1074 1.962 . S
Zn1073 O1076 1.986 . S
Zn1073 O1078 1.996 . S
Zn1073 O1081 1.943 1_455 S
O1074 Zn1073 1.962 . S
O1074 C1079 1.254 . S
O1075 Zn1072 2.030 . S
O1075 C1079 1.269 . S
O1076 Zn1073 1.986 . S
O1076 C1083 1.262 . S
O1077 Zn1072 2.050 1_655 S
O1077 C1085 1.260 . S
O1078 Zn1073 1.996 . S
O1078 C1085 1.257 1_455 S
C1079 O1074 1.254 . S
C1079 O1075 1.269 . S
C1080 O1081 1.249 . S
C1080 O1082 1.270 . S
O1081 Zn1073 1.943 1_655 S
O1081 C1080 1.249 . S
O1082 Zn1072 2.068 1_655 S
O1082 C1080 1.270 . S
C1083 O1076 1.262 . S
C1083 O1084 1.232 . S
O1084 C1083 1.232 . S
C1085 O1077 1.260 . S
C1085 O1078 1.257 1_655 S
Zn1086 O1089 2.031 . S
Zn1086 O1091 2.049 . S
Zn1086 O1096 2.067 . S
Zn1087 O1088 1.962 . S
Zn1087 O1090 1.986 . S
Zn1087 O1092 1.996 . S
Zn1087 O1095 1.943 . S
O1088 Zn1087 1.962 . S
O1088 C1093 1.254 . S
O1089 Zn1086 2.031 . S
O1089 C1093 1.269 . S
O1090 Zn1087 1.986 . S
O1090 C1097 1.262 . S
O1091 Zn1086 2.049 . S
O1091 C1099 1.260 . S
O1092 Zn1087 1.996 . S
O1092 C1099 1.257 . S
C1093 O1088 1.254 . S
C1093 O1089 1.269 . S
C1094 O1095 1.249 . S
C1094 O1096 1.270 . S
O1095 Zn1087 1.943 . S
O1095 C1094 1.249 . S
O1096 Zn1086 2.067 . S
O1096 C1094 1.270 . S
C1097 O1090 1.262 . S
C1097 O1098 1.232 . S
O1098 C1097 1.232 . S
C1099 O1091 1.260 . S
C1099 O1092 1.257 . S
Zn1100 O1103 2.031 . S
Zn1100 O1105 2.049 . S
Zn1100 O1110 2.067 . S
Zn1101 O1102 1.962 . S
Zn1101 O1104 1.986 . S
Zn1101 O1106 1.996 1_455 S
Zn1101 O1109 1.943 . S
O1102 Zn1101 1.962 . S
O1102 C1107 1.254 . S
O1103 Zn1100 2.031 . S
O1103 C1107 1.269 1_655 S
O1104 Zn1101 1.986 . S
O1104 C1111 1.262 . S
O1105 Zn1100 2.049 . S
O1105 C1113 1.260 . S
O1106 Zn1101 1.996 1_655 S
O1106 C1113 1.257 . S
C1107 O1102 1.254 . S
C1107 O1103 1.269 1_455 S
C1108 O1109 1.249 1_655 S
C1108 O1110 1.270 . S
O1109 Zn1101 1.943 . S
O1109 C1108 1.249 1_455 S
O1110 Zn1100 2.067 . S
O1110 C1108 1.270 . S
C1111 O1104 1.262 . S
C1111 O1112 1.232 . S
O1112 C1111 1.232 . S
C1113 O1105 1.260 . S
C1113 O1106 1.257 . S
Zn1114 O1117 2.031 . S
Zn1114 O1119 2.049 . S
Zn1114 O1124 2.067 . S
Zn1115 O1116 1.962 . S
Zn1115 O1118 1.986 . S
Zn1115 O1120 1.996 . S
Zn1115 O1123 1.943 . S
O1116 Zn1115 1.962 . S
O1116 C1121 1.254 . S
O1117 Zn1114 2.031 . S
O1117 C1121 1.269 . S
O1118 Zn1115 1.986 . S
O1118 C1125 1.262 . S
O1119 Zn1114 2.049 . S
O1119 C1127 1.260 . S
O1120 Zn1115 1.996 . S
O1120 C1127 1.257 . S
C1121 O1116 1.254 . S
C1121 O1117 1.269 . S
C1122 O1123 1.249 . S
C1122 O1124 1.270 . S
O1123 Zn1115 1.943 . S
O1123 C1122 1.249 . S
O1124 Zn1114 2.067 . S
O1124 C1122 1.270 . S
C1125 O1118 1.262 . S
C1125 O1126 1.232 . S
O1126 C1125 1.232 . S
C1127 O1119 1.260 . S
C1127 O1120 1.257 . S
C1128 C1129 1.391 . S
C1128 C1130 1.394 . S
C1128 H1144 0.931 . S
C1129 C1128 1.391 . S
C1129 C1133 1.376 . S
C1130 C1128 1.394 . S
C1130 C1131 1.369 . S
C1130 C1134 1.531 . S
C1131 C1130 1.369 . S
C1131 C1132 1.410 . S
C1131 C1139 1.503 . S
C1132 C1131 1.410 . S
C1132 C1133 1.392 . S
C1132 C1135 1.511 . S
C1133 C1129 1.376 . S
C1133 C1132 1.392 . S
C1133 H1145 0.929 . S
C1134 C1130 1.531 . S
C1134 H1146 0.960 . S
C1134 H1147 0.962 . S
C1134 H1148 0.960 . S
C1135 C1132 1.511 . S
C1135 H1149 0.961 . S
C1135 H1150 0.961 . S
C1135 H1151 0.961 . S
C1136 C1137 1.370 . S
C1136 C1138 1.363 . S
C1136 H1152 0.931 . S
C1137 C1136 1.370 . S
C1137 C1141 1.408 . S
C1138 C1136 1.363 . S
C1138 C1139 1.370 . S
C1138 C1142 1.524 . S
C1139 C1131 1.503 . S
C1139 C1138 1.370 . S
C1139 C1140 1.403 . S
C1140 C1139 1.403 . S
C1140 C1141 1.404 . S
C1140 C1143 1.539 . S
C1141 C1137 1.408 . S
C1141 C1140 1.404 . S
C1141 H1153 0.930 . S
C1142 C1138 1.524 . S
C1142 H1154 0.956 . S
C1142 H1155 0.961 . S
C1142 H1156 0.961 . S
C1143 C1140 1.539 . S
C1143 H1157 0.958 . S
C1143 H1158 0.961 . S
C1143 H1159 0.960 . S
H1144 C1128 0.931 . S
H1145 C1133 0.929 . S
H1146 C1134 0.960 . S
H1147 C1134 0.962 . S
H1148 C1134 0.960 . S
H1149 C1135 0.961 . S
H1150 C1135 0.961 . S
H1151 C1135 0.961 . S
H1152 C1136 0.931 . S
H1153 C1141 0.930 . S
H1154 C1142 0.956 . S
H1155 C1142 0.961 . S
H1156 C1142 0.961 . S
H1157 C1143 0.958 . S
H1158 C1143 0.961 . S
H1159 C1143 0.960 . S
C1160 C1161 1.391 . S
C1160 C1162 1.394 . S
C1160 H1176 0.931 . S
C1161 C1160 1.391 . S
C1161 C1165 1.376 . S
C1162 C1160 1.394 . S
C1162 C1163 1.369 . S
C1162 C1166 1.531 . S
C1163 C1162 1.369 . S
C1163 C1164 1.410 . S
C1163 C1171 1.503 . S
C1164 C1163 1.410 . S
C1164 C1165 1.392 . S
C1164 C1167 1.511 . S
C1165 C1161 1.376 . S
C1165 C1164 1.392 . S
C1165 H1177 0.929 . S
C1166 C1162 1.531 . S
C1166 H1178 0.960 . S
C1166 H1179 0.962 . S
C1166 H1180 0.960 . S
C1167 C1164 1.511 . S
C1167 H1181 0.961 . S
C1167 H1182 0.961 . S
C1167 H1183 0.961 . S
C1168 C1169 1.370 . S
C1168 C1170 1.363 . S
C1168 H1184 0.931 . S
C1169 C1168 1.370 . S
C1169 C1173 1.408 . S
C1170 C1168 1.363 . S
C1170 C1171 1.370 . S
C1170 C1174 1.524 . S
C1171 C1163 1.503 . S
C1171 C1170 1.370 . S
C1171 C1172 1.403 . S
C1172 C1171 1.403 . S
C1172 C1173 1.404 . S
C1172 C1175 1.539 . S
C1173 C1169 1.408 . S
C1173 C1172 1.404 . S
C1173 H1185 0.930 . S
C1174 C1170 1.524 . S
C1174 H1186 0.956 . S
C1174 H1187 0.961 . S
C1174 H1188 0.961 . S
C1175 C1172 1.539 . S
C1175 H1189 0.958 . S
C1175 H1190 0.961 . S
C1175 H1191 0.960 . S
H1176 C1160 0.931 . S
H1177 C1165 0.929 . S
H1178 C1166 0.960 . S
H1179 C1166 0.962 . S
H1180 C1166 0.960 . S
H1181 C1167 0.961 . S
H1182 C1167 0.961 . S
H1183 C1167 0.961 . S
H1184 C1168 0.931 . S
H1185 C1173 0.930 . S
H1186 C1174 0.956 . S
H1187 C1174 0.961 . S
H1188 C1174 0.961 . S
H1189 C1175 0.958 . S
H1190 C1175 0.961 . S
H1191 C1175 0.960 . S
C1192 C1193 1.391 . S
C1192 C1194 1.394 . S
C1192 H1208 0.931 . S
C1193 C1192 1.391 . S
C1193 C1197 1.376 . S
C1194 C1192 1.394 . S
C1194 C1195 1.369 . S
C1194 C1198 1.531 . S
C1195 C1194 1.369 . S
C1195 C1196 1.410 . S
C1195 C1203 1.503 . S
C1196 C1195 1.410 . S
C1196 C1197 1.392 . S
C1196 C1199 1.511 . S
C1197 C1193 1.376 . S
C1197 C1196 1.392 . S
C1197 H1209 0.929 . S
C1198 C1194 1.531 . S
C1198 H1210 0.960 . S
C1198 H1211 0.962 . S
C1198 H1212 0.960 . S
C1199 C1196 1.511 . S
C1199 H1213 0.961 . S
C1199 H1214 0.961 . S
C1199 H1215 0.961 . S
C1200 C1201 1.370 . S
C1200 C1202 1.363 . S
C1200 H1216 0.931 . S
C1201 C1200 1.370 . S
C1201 C1205 1.408 . S
C1202 C1200 1.363 . S
C1202 C1203 1.370 . S
C1202 C1206 1.524 . S
C1203 C1195 1.503 . S
C1203 C1202 1.370 . S
C1203 C1204 1.403 . S
C1204 C1203 1.403 . S
C1204 C1205 1.404 . S
C1204 C1207 1.539 . S
C1205 C1201 1.408 . S
C1205 C1204 1.404 . S
C1205 H1217 0.930 . S
C1206 C1202 1.524 . S
C1206 H1218 0.956 . S
C1206 H1219 0.961 . S
C1206 H1220 0.961 . S
C1207 C1204 1.539 . S
C1207 H1221 0.958 . S
C1207 H1222 0.961 . S
C1207 H1223 0.960 . S
H1208 C1192 0.931 . S
H1209 C1197 0.929 . S
H1210 C1198 0.960 . S
H1211 C1198 0.962 . S
H1212 C1198 0.960 . S
H1213 C1199 0.961 . S
H1214 C1199 0.961 . S
H1215 C1199 0.961 . S
H1216 C1200 0.931 . S
H1217 C1205 0.930 . S
H1218 C1206 0.956 . S
H1219 C1206 0.961 . S
H1220 C1206 0.961 . S
H1221 C1207 0.958 . S
H1222 C1207 0.961 . S
H1223 C1207 0.960 . S
C1224 C1225 1.391 . S
C1224 C1226 1.394 . S
C1224 H1240 0.931 1_655 S
C1225 C1224 1.391 . S
C1225 C1229 1.376 . S
C1226 C1224 1.394 . S
C1226 C1227 1.369 . S
C1226 C1230 1.531 . S
C1227 C1226 1.369 . S
C1227 C1228 1.410 . S
C1227 C1235 1.503 . S
C1228 C1227 1.410 . S
C1228 C1229 1.392 . S
C1228 C1231 1.511 . S
C1229 C1225 1.376 . S
C1229 C1228 1.392 . S
C1229 H1241 0.929 . S
C1230 C1226 1.531 . S
C1230 H1242 0.960 . S
C1230 H1243 0.962 . S
C1230 H1244 0.960 . S
C1231 C1228 1.511 . S
C1231 H1245 0.961 . S
C1231 H1246 0.961 . S
C1231 H1247 0.961 . S
C1232 C1233 1.370 1_545 S
C1232 C1234 1.363 1_545 S
C1232 H1248 0.931 . S
C1233 C1232 1.370 1_565 S
C1233 C1237 1.408 . S
C1234 C1232 1.363 1_565 S
C1234 C1235 1.370 . S
C1234 C1238 1.524 1_565 S
C1235 C1227 1.503 . S
C1235 C1234 1.370 . S
C1235 C1236 1.403 . S
C1236 C1235 1.403 . S
C1236 C1237 1.404 . S
C1236 C1239 1.539 . S
C1237 C1233 1.408 . S
C1237 C1236 1.404 . S
C1237 H1249 0.930 . S
C1238 C1234 1.524 1_545 S
C1238 H1250 0.956 . S
C1238 H1251 0.961 . S
C1238 H1252 0.961 . S
C1239 C1236 1.539 . S
C1239 H1253 0.958 . S
C1239 H1254 0.961 . S
C1239 H1255 0.960 . S
H1240 C1224 0.931 1_455 S
H1241 C1229 0.929 . S
H1242 C1230 0.960 . S
H1243 C1230 0.962 . S
H1244 C1230 0.960 . S
H1245 C1231 0.961 . S
H1246 C1231 0.961 . S
H1247 C1231 0.961 . S
H1248 C1232 0.931 . S
H1249 C1237 0.930 . S
H1250 C1238 0.956 . S
H1251 C1238 0.961 . S
H1252 C1238 0.961 . S
H1253 C1239 0.958 . S
H1254 C1239 0.961 . S
H1255 C1239 0.960 . S
C1256 C1257 1.391 . S
C1256 C1258 1.394 . S
C1256 H1272 0.931 . S
C1257 C1256 1.391 . S
C1257 C1261 1.376 . S
C1258 C1256 1.394 . S
C1258 C1259 1.369 . S
C1258 C1262 1.531 . S
C1259 C1258 1.369 . S
C1259 C1260 1.410 . S
C1259 C1267 1.503 . S
C1260 C1259 1.410 . S
C1260 C1261 1.392 . S
C1260 C1263 1.511 . S
C1261 C1257 1.376 . S
C1261 C1260 1.392 . S
C1261 H1273 0.929 . S
C1262 C1258 1.531 . S
C1262 H1274 0.960 . S
C1262 H1275 0.962 . S
C1262 H1276 0.960 . S
C1263 C1260 1.511 . S
C1263 H1277 0.961 . S
C1263 H1278 0.961 . S
C1263 H1279 0.961 . S
C1264 C1265 1.370 . S
C1264 C1266 1.363 . S
C1264 H1280 0.931 . S
C1265 C1264 1.370 . S
C1265 C1269 1.408 . S
C1266 C1264 1.363 . S
C1266 C1267 1.370 . S
C1266 C1270 1.524 . S
C1267 C1259 1.503 . S
C1267 C1266 1.370 . S
C1267 C1268 1.403 . S
C1268 C1267 1.403 . S
C1268 C1269 1.404 . S
C1268 C1271 1.539 . S
C1269 C1265 1.408 . S
C1269 C1268 1.404 . S
C1269 H1281 0.930 . S
C1270 C1266 1.524 . S
C1270 H1282 0.956 . S
C1270 H1283 0.961 . S
C1270 H1284 0.961 . S
C1271 C1268 1.539 . S
C1271 H1285 0.958 . S
C1271 H1286 0.961 . S
C1271 H1287 0.960 . S
H1272 C1256 0.931 . S
H1273 C1261 0.929 . S
H1274 C1262 0.960 . S
H1275 C1262 0.962 . S
H1276 C1262 0.960 . S
H1277 C1263 0.961 . S
H1278 C1263 0.961 . S
H1279 C1263 0.961 . S
H1280 C1264 0.931 . S
H1281 C1269 0.930 . S
H1282 C1270 0.956 . S
H1283 C1270 0.961 . S
H1284 C1270 0.961 . S
H1285 C1271 0.958 . S
H1286 C1271 0.961 . S
H1287 C1271 0.960 . S
C1288 C1289 1.391 . S
C1288 C1290 1.394 . S
C1288 H1304 0.931 . S
C1289 C1288 1.391 . S
C1289 C1293 1.376 . S
C1290 C1288 1.394 . S
C1290 C1291 1.369 . S
C1290 C1294 1.531 . S
C1291 C1290 1.369 . S
C1291 C1292 1.410 . S
C1291 C1299 1.503 . S
C1292 C1291 1.410 . S
C1292 C1293 1.392 . S
C1292 C1295 1.511 . S
C1293 C1289 1.376 . S
C1293 C1292 1.392 . S
C1293 H1305 0.929 . S
C1294 C1290 1.531 . S
C1294 H1306 0.960 . S
C1294 H1307 0.962 . S
C1294 H1308 0.960 . S
C1295 C1292 1.511 . S
C1295 H1309 0.961 . S
C1295 H1310 0.961 . S
C1295 H1311 0.961 . S
C1296 C1297 1.370 . S
C1296 C1298 1.363 . S
C1296 H1312 0.931 . S
C1297 C1296 1.370 . S
C1297 C1301 1.408 . S
C1298 C1296 1.363 . S
C1298 C1299 1.370 . S
C1298 C1302 1.524 . S
C1299 C1291 1.503 . S
C1299 C1298 1.370 . S
C1299 C1300 1.403 . S
C1300 C1299 1.403 . S
C1300 C1301 1.404 . S
C1300 C1303 1.539 . S
C1301 C1297 1.408 . S
C1301 C1300 1.404 . S
C1301 H1313 0.930 . S
C1302 C1298 1.524 . S
C1302 H1314 0.956 . S
C1302 H1315 0.961 . S
C1302 H1316 0.961 . S
C1303 C1300 1.539 . S
C1303 H1317 0.958 . S
C1303 H1318 0.961 . S
C1303 H1319 0.960 . S
H1304 C1288 0.931 . S
H1305 C1293 0.929 . S
H1306 C1294 0.960 . S
H1307 C1294 0.962 . S
H1308 C1294 0.960 . S
H1309 C1295 0.961 . S
H1310 C1295 0.961 . S
H1311 C1295 0.961 . S
H1312 C1296 0.931 . S
H1313 C1301 0.930 . S
H1314 C1302 0.956 . S
H1315 C1302 0.961 . S
H1316 C1302 0.961 . S
H1317 C1303 0.958 . S
H1318 C1303 0.961 . S
H1319 C1303 0.960 . S
C1320 C1321 1.391 . S
C1320 C1322 1.394 . S
C1320 H1336 0.931 . S
C1321 C1320 1.391 . S
C1321 C1325 1.376 . S
C1322 C1320 1.394 . S
C1322 C1323 1.369 . S
C1322 C1326 1.531 . S
C1323 C1322 1.369 . S
C1323 C1324 1.410 . S
C1323 C1331 1.503 . S
C1324 C1323 1.410 . S
C1324 C1325 1.392 . S
C1324 C1327 1.511 . S
C1325 C1321 1.376 . S
C1325 C1324 1.392 . S
C1325 H1337 0.929 . S
C1326 C1322 1.531 . S
C1326 H1338 0.960 . S
C1326 H1339 0.962 . S
C1326 H1340 0.960 . S
C1327 C1324 1.511 . S
C1327 H1341 0.961 . S
C1327 H1342 0.961 . S
C1327 H1343 0.961 . S
C1328 C1329 1.370 . S
C1328 C1330 1.363 . S
C1328 H1344 0.931 . S
C1329 C1328 1.370 . S
C1329 C1333 1.408 . S
C1330 C1328 1.363 . S
C1330 C1331 1.370 . S
C1330 C1334 1.524 . S
C1331 C1323 1.503 . S
C1331 C1330 1.370 . S
C1331 C1332 1.403 . S
C1332 C1331 1.403 . S
C1332 C1333 1.404 . S
C1332 C1335 1.539 . S
C1333 C1329 1.408 . S
C1333 C1332 1.404 . S
C1333 H1345 0.930 . S
C1334 C1330 1.524 . S
C1334 H1346 0.956 . S
C1334 H1347 0.961 . S
C1334 H1348 0.961 . S
C1335 C1332 1.539 . S
C1335 H1349 0.958 . S
C1335 H1350 0.961 . S
C1335 H1351 0.960 . S
H1336 C1320 0.931 . S
H1337 C1325 0.929 . S
H1338 C1326 0.960 . S
H1339 C1326 0.962 . S
H1340 C1326 0.960 . S
H1341 C1327 0.961 . S
H1342 C1327 0.961 . S
H1343 C1327 0.961 . S
H1344 C1328 0.931 . S
H1345 C1333 0.930 . S
H1346 C1334 0.956 . S
H1347 C1334 0.961 . S
H1348 C1334 0.961 . S
H1349 C1335 0.958 . S
H1350 C1335 0.961 . S
H1351 C1335 0.960 . S
C1352 C1353 1.391 . S
C1352 C1354 1.394 . S
C1352 H1368 0.931 . S
C1353 C1352 1.391 . S
C1353 C1357 1.376 . S
C1354 C1352 1.394 . S
C1354 C1355 1.369 . S
C1354 C1358 1.519 1_565 S
C1355 C1354 1.369 . S
C1355 C1356 1.410 . S
C1355 C1363 1.503 . S
C1356 C1355 1.410 . S
C1356 C1357 1.392 . S
C1356 C1359 1.511 . S
C1357 C1353 1.376 . S
C1357 C1356 1.392 . S
C1357 H1369 0.929 . S
C1358 C1354 1.519 1_545 S
C1358 H1370 0.976 . S
C1358 H1371 0.942 1_545 S
C1358 H1372 0.977 . S
C1359 C1356 1.511 . S
C1359 H1373 0.961 . S
C1359 H1374 0.961 . S
C1359 H1375 0.961 . S
C1360 C1361 1.370 . S
C1360 C1362 1.363 . S
C1360 H1376 0.931 . S
C1361 C1360 1.370 . S
C1361 C1365 1.408 1_565 S
C1362 C1360 1.363 . S
C1362 C1363 1.370 . S
C1362 C1366 1.524 . S
C1363 C1355 1.503 . S
C1363 C1362 1.370 . S
C1363 C1364 1.403 1_565 S
C1364 C1363 1.403 1_545 S
C1364 C1365 1.404 . S
C1364 C1367 1.539 . S
C1365 C1361 1.408 1_545 S
C1365 C1364 1.404 . S
C1365 H1377 0.930 . S
C1366 C1362 1.524 . S
C1366 H1378 0.956 . S
C1366 H1379 0.961 . S
C1366 H1380 0.961 . S
C1367 C1364 1.539 . S
C1367 H1381 0.958 . S
C1367 H1382 0.961 . S
C1367 H1383 0.960 . S
H1368 C1352 0.931 . S
H1369 C1357 0.929 . S
H1370 C1358 0.976 . S
H1371 C1358 0.942 1_565 S
H1372 C1358 0.977 . S
H1373 C1359 0.961 . S
H1374 C1359 0.961 . S
H1375 C1359 0.961 . S
H1376 C1360 0.931 . S
H1377 C1365 0.930 . S
H1378 C1366 0.956 . S
H1379 C1366 0.961 . S
H1380 C1366 0.961 . S
H1381 C1367 0.958 . S
H1382 C1367 0.961 . S
H1383 C1367 0.960 . S
C1384 C1385 1.391 . S
C1384 C1386 1.394 . S
C1384 H1400 0.931 . S
C1385 C1384 1.391 . S
C1385 C1389 1.376 . S
C1386 C1384 1.394 . S
C1386 C1387 1.369 . S
C1386 C1390 1.531 . S
C1387 C1386 1.369 . S
C1387 C1388 1.410 . S
C1387 C1395 1.503 . S
C1388 C1387 1.410 . S
C1388 C1389 1.392 . S
C1388 C1391 1.511 . S
C1389 C1385 1.376 . S
C1389 C1388 1.392 . S
C1389 H1401 0.929 . S
C1390 C1386 1.531 . S
C1390 H1402 0.960 . S
C1390 H1403 0.962 . S
C1390 H1404 0.960 . S
C1391 C1388 1.511 . S
C1391 H1405 0.961 . S
C1391 H1406 0.961 . S
C1391 H1407 0.961 . S
C1392 C1393 1.370 . S
C1392 C1394 1.363 . S
C1392 H1408 0.931 . S
C1393 C1392 1.370 . S
C1393 C1397 1.408 . S
C1394 C1392 1.363 . S
C1394 C1395 1.370 . S
C1394 C1398 1.524 . S
C1395 C1387 1.503 . S
C1395 C1394 1.370 . S
C1395 C1396 1.403 . S
C1396 C1395 1.403 . S
C1396 C1397 1.404 . S
C1396 C1399 1.539 . S
C1397 C1393 1.408 . S
C1397 C1396 1.404 . S
C1397 H1409 0.930 . S
C1398 C1394 1.524 . S
C1398 H1410 0.956 . S
C1398 H1411 0.961 . S
C1398 H1412 0.961 . S
C1399 C1396 1.539 . S
C1399 H1413 0.958 . S
C1399 H1414 0.961 . S
C1399 H1415 0.960 . S
H1400 C1384 0.931 . S
H1401 C1389 0.929 . S
H1402 C1390 0.960 . S
H1403 C1390 0.962 . S
H1404 C1390 0.960 . S
H1405 C1391 0.961 . S
H1406 C1391 0.961 . S
H1407 C1391 0.961 . S
H1408 C1392 0.931 . S
H1409 C1397 0.930 . S
H1410 C1398 0.956 . S
H1411 C1398 0.961 . S
H1412 C1398 0.961 . S
H1413 C1399 0.958 . S
H1414 C1399 0.961 . S
H1415 C1399 0.960 . S
C1416 C1417 1.391 . S
C1416 C1418 1.394 . S
C1416 H1432 0.931 . S
C1417 C1416 1.391 . S
C1417 C1421 1.376 . S
C1418 C1416 1.394 . S
C1418 C1419 1.369 . S
C1418 C1422 1.531 . S
C1419 C1418 1.369 . S
C1419 C1420 1.410 . S
C1419 C1427 1.503 . S
C1420 C1419 1.410 . S
C1420 C1421 1.392 . S
C1420 C1423 1.511 . S
C1421 C1417 1.376 . S
C1421 C1420 1.392 . S
C1421 H1433 0.929 . S
C1422 C1418 1.531 . S
C1422 H1434 0.960 . S
C1422 H1435 0.962 . S
C1422 H1436 0.960 . S
C1423 C1420 1.511 . S
C1423 H1437 0.961 . S
C1423 H1438 0.961 . S
C1423 H1439 0.961 . S
C1424 C1425 1.370 . S
C1424 C1426 1.363 . S
C1424 H1440 0.931 . S
C1425 C1424 1.370 . S
C1425 C1429 1.408 . S
C1426 C1424 1.363 . S
C1426 C1427 1.370 . S
C1426 C1430 1.524 . S
C1427 C1419 1.503 . S
C1427 C1426 1.370 . S
C1427 C1428 1.403 . S
C1428 C1427 1.403 . S
C1428 C1429 1.404 . S
C1428 C1431 1.539 . S
C1429 C1425 1.408 . S
C1429 C1428 1.404 . S
C1429 H1441 0.930 . S
C1430 C1426 1.524 . S
C1430 H1442 0.956 . S
C1430 H1443 0.961 . S
C1430 H1444 0.961 . S
C1431 C1428 1.539 . S
C1431 H1445 0.958 . S
C1431 H1446 0.961 . S
C1431 H1447 0.960 . S
H1432 C1416 0.931 . S
H1433 C1421 0.929 . S
H1434 C1422 0.960 . S
H1435 C1422 0.962 . S
H1436 C1422 0.960 . S
H1437 C1423 0.961 . S
H1438 C1423 0.961 . S
H1439 C1423 0.961 . S
H1440 C1424 0.931 . S
H1441 C1429 0.930 . S
H1442 C1430 0.956 . S
H1443 C1430 0.961 . S
H1444 C1430 0.961 . S
H1445 C1431 0.958 . S
H1446 C1431 0.961 . S
H1447 C1431 0.960 . S
C1448 C1449 1.391 . S
C1448 C1450 1.394 . S
C1448 H1464 0.931 . S
C1449 C1448 1.391 . S
C1449 C1453 1.376 . S
C1450 C1448 1.394 . S
C1450 C1451 1.369 . S
C1450 C1454 1.531 . S
C1451 C1450 1.369 . S
C1451 C1452 1.410 . S
C1451 C1459 1.503 . S
C1452 C1451 1.410 . S
C1452 C1453 1.392 . S
C1452 C1455 1.511 . S
C1453 C1449 1.376 . S
C1453 C1452 1.392 . S
C1453 H1465 0.929 . S
C1454 C1450 1.531 . S
C1454 H1466 0.960 . S
C1454 H1467 0.962 . S
C1454 H1468 0.960 . S
C1455 C1452 1.511 . S
C1455 H1469 0.961 . S
C1455 H1470 0.961 . S
C1455 H1471 0.961 . S
C1456 C1457 1.370 . S
C1456 C1458 1.363 . S
C1456 H1472 0.931 . S
C1457 C1456 1.370 . S
C1457 C1461 1.408 . S
C1458 C1456 1.363 . S
C1458 C1459 1.370 . S
C1458 C1462 1.524 . S
C1459 C1451 1.503 . S
C1459 C1458 1.370 . S
C1459 C1460 1.403 . S
C1460 C1459 1.403 . S
C1460 C1461 1.404 . S
C1460 C1463 1.539 . S
C1461 C1457 1.408 . S
C1461 C1460 1.404 . S
C1461 H1473 0.930 . S
C1462 C1458 1.524 . S
C1462 H1474 0.956 . S
C1462 H1475 0.961 . S
C1462 H1476 0.961 . S
C1463 C1460 1.539 . S
C1463 H1477 0.958 . S
C1463 H1478 0.961 . S
C1463 H1479 0.960 . S
H1464 C1448 0.931 . S
H1465 C1453 0.929 . S
H1466 C1454 0.960 . S
H1467 C1454 0.962 . S
H1468 C1454 0.960 . S
H1469 C1455 0.961 . S
H1470 C1455 0.961 . S
H1471 C1455 0.961 . S
H1472 C1456 0.931 . S
H1473 C1461 0.930 . S
H1474 C1462 0.956 . S
H1475 C1462 0.961 . S
H1476 C1462 0.961 . S
H1477 C1463 0.958 . S
H1478 C1463 0.961 . S
H1479 C1463 0.960 . S
C1480 C1481 1.391 . S
C1480 C1482 1.394 . S
C1480 H1496 0.931 . S
C1481 C1480 1.391 . S
C1481 C1485 1.376 . S
C1482 C1480 1.394 . S
C1482 C1483 1.369 . S
C1482 C1486 1.531 . S
C1483 C1482 1.369 . S
C1483 C1484 1.410 . S
C1483 C1491 1.503 . S
C1484 C1483 1.410 . S
C1484 C1485 1.392 . S
C1484 C1487 1.511 . S
C1485 C1481 1.376 . S
C1485 C1484 1.392 . S
C1485 H1497 0.929 . S
C1486 C1482 1.531 . S
C1486 H1498 0.960 . S
C1486 H1499 0.962 . S
C1486 H1500 0.960 . S
C1487 C1484 1.511 . S
C1487 H1501 0.961 . S
C1487 H1502 0.961 . S
C1487 H1503 0.961 . S
C1488 C1489 1.370 . S
C1488 C1490 1.363 . S
C1488 H1504 0.931 . S
C1489 C1488 1.370 . S
C1489 C1493 1.408 . S
C1490 C1488 1.363 . S
C1490 C1491 1.370 . S
C1490 C1494 1.524 . S
C1491 C1483 1.503 . S
C1491 C1490 1.370 . S
C1491 C1492 1.403 . S
C1492 C1491 1.403 . S
C1492 C1493 1.404 . S
C1492 C1495 1.539 . S
C1493 C1489 1.408 . S
C1493 C1492 1.404 . S
C1493 H1505 0.930 . S
C1494 C1490 1.524 . S
C1494 H1506 0.956 . S
C1494 H1507 0.961 . S
C1494 H1508 0.961 . S
C1495 C1492 1.539 . S
C1495 H1509 0.958 . S
C1495 H1510 0.961 . S
C1495 H1511 0.960 . S
H1496 C1480 0.931 . S
H1497 C1485 0.929 . S
H1498 C1486 0.960 . S
H1499 C1486 0.962 . S
H1500 C1486 0.960 . S
H1501 C1487 0.961 . S
H1502 C1487 0.961 . S
H1503 C1487 0.961 . S
H1504 C1488 0.931 . S
H1505 C1493 0.930 . S
H1506 C1494 0.956 . S
H1507 C1494 0.961 . S
H1508 C1494 0.961 . S
H1509 C1495 0.958 . S
H1510 C1495 0.961 . S
H1511 C1495 0.960 . S
C1512 C1513 1.391 . S
C1512 C1514 1.394 . S
C1512 H1528 0.931 . S
C1513 C1512 1.391 . S
C1513 C1517 1.376 . S
C1514 C1512 1.394 . S
C1514 C1515 1.369 . S
C1514 C1518 1.531 . S
C1515 C1514 1.369 . S
C1515 C1516 1.410 . S
C1515 C1523 1.503 . S
C1516 C1515 1.410 . S
C1516 C1517 1.392 . S
C1516 C1519 1.511 . S
C1517 C1513 1.376 . S
C1517 C1516 1.392 . S
C1517 H1529 0.929 . S
C1518 C1514 1.531 . S
C1518 H1530 0.960 . S
C1518 H1531 0.962 . S
C1518 H1532 0.960 . S
C1519 C1516 1.511 . S
C1519 H1533 0.961 . S
C1519 H1534 0.961 . S
C1519 H1535 0.961 . S
C1520 C1521 1.370 . S
C1520 C1522 1.363 . S
C1520 H1536 0.931 . S
C1521 C1520 1.370 . S
C1521 C1525 1.408 . S
C1522 C1520 1.363 . S
C1522 C1523 1.370 . S
C1522 C1526 1.524 . S
C1523 C1515 1.503 . S
C1523 C1522 1.370 . S
C1523 C1524 1.403 . S
C1524 C1523 1.403 . S
C1524 C1525 1.404 . S
C1524 C1527 1.539 . S
C1525 C1521 1.408 . S
C1525 C1524 1.404 . S
C1525 H1537 0.930 . S
C1526 C1522 1.524 . S
C1526 H1538 0.956 . S
C1526 H1539 0.961 . S
C1526 H1540 0.961 . S
C1527 C1524 1.539 . S
C1527 H1541 0.958 . S
C1527 H1542 0.961 . S
C1527 H1543 0.960 . S
H1528 C1512 0.931 . S
H1529 C1517 0.929 . S
H1530 C1518 0.960 . S
H1531 C1518 0.962 . S
H1532 C1518 0.960 . S
H1533 C1519 0.961 . S
H1534 C1519 0.961 . S
H1535 C1519 0.961 . S
H1536 C1520 0.931 . S
H1537 C1525 0.930 . S
H1538 C1526 0.956 . S
H1539 C1526 0.961 . S
H1540 C1526 0.961 . S
H1541 C1527 0.958 . S
H1542 C1527 0.961 . S
H1543 C1527 0.960 . S
C1544 C1545 1.391 . S
C1544 C1546 1.394 . S
C1544 H1560 0.931 . S
C1545 C1544 1.391 . S
C1545 C1549 1.376 . S
C1546 C1544 1.394 . S
C1546 C1547 1.369 . S
C1546 C1550 1.531 . S
C1547 C1546 1.369 . S
C1547 C1548 1.410 . S
C1547 C1555 1.503 . S
C1548 C1547 1.410 . S
C1548 C1549 1.392 . S
C1548 C1551 1.511 1_455 S
C1549 C1545 1.376 . S
C1549 C1548 1.392 . S
C1549 H1561 0.929 . S
C1550 C1546 1.531 . S
C1550 H1562 0.960 . S
C1550 H1563 0.962 . S
C1550 H1564 0.960 . S
C1551 C1548 1.511 1_655 S
C1551 H1565 0.961 . S
C1551 H1566 0.961 . S
C1551 H1567 0.961 . S
C1552 C1553 1.370 . S
C1552 C1554 1.363 . S
C1552 H1568 0.931 . S
C1553 C1552 1.370 . S
C1553 C1557 1.408 . S
C1554 C1552 1.363 . S
C1554 C1555 1.370 . S
C1554 C1558 1.524 . S
C1555 C1547 1.503 . S
C1555 C1554 1.370 . S
C1555 C1556 1.403 . S
C1556 C1555 1.403 . S
C1556 C1557 1.404 . S
C1556 C1559 1.539 . S
C1557 C1553 1.408 . S
C1557 C1556 1.404 . S
C1557 H1569 0.916 1_455 S
C1558 C1554 1.524 . S
C1558 H1570 0.956 . S
C1558 H1571 0.961 . S
C1558 H1572 0.961 . S
C1559 C1556 1.539 . S
C1559 H1573 0.958 . S
C1559 H1574 0.961 1_455 S
C1559 H1575 0.960 1_455 S
H1560 C1544 0.931 . S
H1561 C1549 0.929 . S
H1562 C1550 0.960 . S
H1563 C1550 0.962 . S
H1564 C1550 0.960 . S
H1565 C1551 0.961 . S
H1566 C1551 0.961 . S
H1567 C1551 0.961 . S
H1568 C1552 0.931 . S
H1569 C1557 0.916 1_655 S
H1570 C1558 0.956 . S
H1571 C1558 0.961 . S
H1572 C1558 0.961 . S
H1573 C1559 0.958 . S
H1574 C1559 0.961 1_655 S
H1575 C1559 0.960 1_655 S
C1576 C1577 1.391 . S
C1576 C1578 1.394 . S
C1576 H1592 0.931 . S
C1577 C1576 1.391 . S
C1577 C1581 1.376 . S
C1578 C1576 1.394 . S
C1578 C1579 1.369 . S
C1578 C1582 1.531 . S
C1579 C1578 1.369 . S
C1579 C1580 1.410 . S
C1579 C1587 1.503 . S
C1580 C1579 1.410 . S
C1580 C1581 1.392 . S
C1580 C1583 1.511 . S
C1581 C1577 1.376 . S
C1581 C1580 1.392 . S
C1581 H1593 0.929 . S
C1582 C1578 1.531 . S
C1582 H1594 0.960 . S
C1582 H1595 0.962 . S
C1582 H1596 0.960 . S
C1583 C1580 1.511 . S
C1583 H1597 0.961 . S
C1583 H1598 0.961 . S
C1583 H1599 0.961 . S
C1584 C1585 1.370 . S
C1584 C1586 1.363 . S
C1584 H1600 0.931 . S
C1585 C1584 1.370 . S
C1585 C1589 1.408 . S
C1586 C1584 1.363 . S
C1586 C1587 1.370 . S
C1586 C1590 1.524 . S
C1587 C1579 1.503 . S
C1587 C1586 1.370 . S
C1587 C1588 1.403 . S
C1588 C1587 1.403 . S
C1588 C1589 1.404 . S
C1588 C1591 1.539 . S
C1589 C1585 1.408 . S
C1589 C1588 1.404 . S
C1589 H1601 0.930 . S
C1590 C1586 1.524 . S
C1590 H1602 0.956 . S
C1590 H1603 0.961 . S
C1590 H1604 0.961 . S
C1591 C1588 1.539 . S
C1591 H1605 0.958 . S
C1591 H1606 0.961 . S
C1591 H1607 0.960 . S
H1592 C1576 0.931 . S
H1593 C1581 0.929 . S
H1594 C1582 0.960 . S
H1595 C1582 0.962 . S
H1596 C1582 0.960 . S
H1597 C1583 0.961 . S
H1598 C1583 0.961 . S
H1599 C1583 0.961 . S
H1600 C1584 0.931 . S
H1601 C1589 0.930 . S
H1602 C1590 0.956 . S
H1603 C1590 0.961 . S
H1604 C1590 0.961 . S
H1605 C1591 0.958 . S
H1606 C1591 0.961 . S
H1607 C1591 0.960 . S
C1608 C1609 1.391 . S
C1608 C1610 1.394 . S
C1608 H1624 0.931 . S
C1609 C1608 1.391 . S
C1609 C1613 1.376 . S
C1610 C1608 1.394 . S
C1610 C1611 1.369 . S
C1610 C1614 1.531 . S
C1611 C1610 1.369 . S
C1611 C1612 1.410 . S
C1611 C1619 1.503 . S
C1612 C1611 1.410 . S
C1612 C1613 1.392 . S
C1612 C1615 1.511 1_655 S
C1613 C1609 1.376 . S
C1613 C1612 1.392 . S
C1613 H1625 0.929 1_655 S
C1614 C1610 1.531 . S
C1614 H1626 0.960 . S
C1614 H1627 0.962 . S
C1614 H1628 0.960 . S
C1615 C1612 1.511 1_455 S
C1615 H1629 0.961 . S
C1615 H1630 0.961 . S
C1615 H1631 0.961 . S
C1616 C1617 1.370 . S
C1616 C1618 1.363 . S
C1616 H1632 0.931 . S
C1617 C1616 1.370 . S
C1617 C1621 1.408 . S
C1618 C1616 1.363 . S
C1618 C1619 1.370 . S
C1618 C1622 1.524 . S
C1619 C1611 1.503 . S
C1619 C1618 1.370 . S
C1619 C1620 1.403 . S
C1620 C1619 1.403 . S
C1620 C1621 1.404 . S
C1620 C1623 1.539 . S
C1621 C1617 1.408 . S
C1621 C1620 1.404 . S
C1621 H1633 0.930 . S
C1622 C1618 1.524 . S
C1622 H1634 0.956 . S
C1622 H1635 0.961 . S
C1622 H1636 0.961 . S
C1623 C1620 1.539 . S
C1623 H1637 0.958 . S
C1623 H1638 0.961 . S
C1623 H1639 0.960 . S
H1624 C1608 0.931 . S
H1625 C1613 0.929 1_455 S
H1626 C1614 0.960 . S
H1627 C1614 0.962 . S
H1628 C1614 0.960 . S
H1629 C1615 0.961 . S
H1630 C1615 0.961 . S
H1631 C1615 0.961 . S
H1632 C1616 0.931 . S
H1633 C1621 0.930 . S
H1634 C1622 0.956 . S
H1635 C1622 0.961 . S
H1636 C1622 0.961 . S
H1637 C1623 0.958 . S
H1638 C1623 0.961 . S
H1639 C1623 0.960 . S
C1640 C1641 1.391 . S
C1640 C1642 1.394 . S
C1640 H1656 0.931 . S
C1641 C1640 1.391 . S
C1641 C1645 1.376 . S
C1642 C1640 1.394 . S
C1642 C1643 1.369 . S
C1642 C1646 1.531 . S
C1643 C1642 1.369 . S
C1643 C1644 1.410 . S
C1643 C1651 1.503 . S
C1644 C1643 1.410 . S
C1644 C1645 1.392 . S
C1644 C1647 1.511 . S
C1645 C1641 1.376 . S
C1645 C1644 1.392 . S
C1645 H1657 0.929 . S
C1646 C1642 1.531 . S
C1646 H1658 0.960 . S
C1646 H1659 0.962 . S
C1646 H1660 0.960 . S
C1647 C1644 1.511 . S
C1647 H1661 0.961 . S
C1647 H1662 0.961 . S
C1647 H1663 0.961 . S
C1648 C1649 1.370 . S
C1648 C1650 1.363 . S
C1648 H1664 0.931 . S
C1649 C1648 1.370 . S
C1649 C1653 1.408 . S
C1650 C1648 1.363 . S
C1650 C1651 1.370 . S
C1650 C1654 1.524 . S
C1651 C1643 1.503 . S
C1651 C1650 1.370 . S
C1651 C1652 1.403 . S
C1652 C1651 1.403 . S
C1652 C1653 1.404 . S
C1652 C1655 1.539 . S
C1653 C1649 1.408 . S
C1653 C1652 1.404 . S
C1653 H1665 0.930 . S
C1654 C1650 1.524 . S
C1654 H1666 0.956 . S
C1654 H1667 0.961 . S
C1654 H1668 0.961 . S
C1655 C1652 1.539 . S
C1655 H1669 0.958 . S
C1655 H1670 0.961 . S
C1655 H1671 0.960 . S
H1656 C1640 0.931 . S
H1657 C1645 0.929 . S
H1658 C1646 0.960 . S
H1659 C1646 0.962 . S
H1660 C1646 0.960 . S
H1661 C1647 0.961 . S
H1662 C1647 0.961 . S
H1663 C1647 0.961 . S
H1664 C1648 0.931 . S
H1665 C1653 0.930 . S
H1666 C1654 0.956 . S
H1667 C1654 0.961 . S
H1668 C1654 0.961 . S
H1669 C1655 0.958 . S
H1670 C1655 0.961 . S
H1671 C1655 0.960 . S
C1672 C1673 1.391 . S
C1672 C1674 1.394 . S
C1672 H1688 0.931 . S
C1673 C1672 1.391 . S
C1673 C1677 1.376 . S
C1674 C1672 1.394 . S
C1674 C1675 1.369 . S
C1674 C1678 1.531 . S
C1675 C1674 1.369 . S
C1675 C1676 1.410 . S
C1675 C1683 1.503 . S
C1676 C1675 1.410 . S
C1676 C1677 1.392 . S
C1676 C1679 1.511 . S
C1677 C1673 1.376 . S
C1677 C1676 1.392 . S
C1677 H1689 0.929 . S
C1678 C1674 1.531 . S
C1678 H1690 0.960 . S
C1678 H1691 0.962 . S
C1678 H1692 0.960 . S
C1679 C1676 1.511 . S
C1679 H1693 0.961 . S
C1679 H1694 0.961 . S
C1679 H1695 0.961 . S
C1680 C1681 1.370 . S
C1680 C1682 1.363 . S
C1680 H1696 0.931 . S
C1681 C1680 1.370 . S
C1681 C1685 1.408 . S
C1682 C1680 1.363 . S
C1682 C1683 1.370 . S
C1682 C1686 1.524 . S
C1683 C1675 1.503 . S
C1683 C1682 1.370 . S
C1683 C1684 1.403 . S
C1684 C1683 1.403 . S
C1684 C1685 1.404 . S
C1684 C1687 1.539 . S
C1685 C1681 1.408 . S
C1685 C1684 1.404 . S
C1685 H1697 0.930 . S
C1686 C1682 1.524 . S
C1686 H1698 0.956 . S
C1686 H1699 0.961 . S
C1686 H1700 0.961 . S
C1687 C1684 1.539 . S
C1687 H1701 0.958 . S
C1687 H1702 0.961 . S
C1687 H1703 0.960 . S
H1688 C1672 0.931 . S
H1689 C1677 0.929 . S
H1690 C1678 0.960 . S
H1691 C1678 0.962 . S
H1692 C1678 0.960 . S
H1693 C1679 0.961 . S
H1694 C1679 0.961 . S
H1695 C1679 0.961 . S
H1696 C1680 0.931 . S
H1697 C1685 0.930 . S
H1698 C1686 0.956 . S
H1699 C1686 0.961 . S
H1700 C1686 0.961 . S
H1701 C1687 0.958 . S
H1702 C1687 0.961 . S
H1703 C1687 0.960 . S
C1704 C1705 1.391 . S
C1704 C1706 1.394 . S
C1704 H1720 0.931 . S
C1705 C1704 1.391 . S
C1705 C1709 1.376 . S
C1706 C1704 1.394 . S
C1706 C1707 1.369 . S
C1706 C1710 1.531 . S
C1707 C1706 1.369 . S
C1707 C1708 1.410 . S
C1707 C1715 1.503 . S
C1708 C1707 1.410 . S
C1708 C1709 1.392 . S
C1708 C1711 1.511 1_556 S
C1709 C1705 1.376 . S
C1709 C1708 1.392 . S
C1709 H1721 0.929 . S
C1710 C1706 1.531 . S
C1710 H1722 0.960 . S
C1710 H1723 0.962 . S
C1710 H1724 0.960 . S
C1711 C1708 1.511 1_554 S
C1711 H1725 0.961 . S
C1711 H1726 0.961 . S
C1711 H1727 0.961 . S
C1712 C1713 1.370 . S
C1712 C1714 1.363 . S
C1712 H1728 0.931 . S
C1713 C1712 1.370 . S
C1713 C1717 1.408 . S
C1714 C1712 1.363 . S
C1714 C1715 1.370 . S
C1714 C1718 1.524 . S
C1715 C1707 1.503 . S
C1715 C1714 1.370 . S
C1715 C1716 1.403 . S
C1716 C1715 1.403 . S
C1716 C1717 1.404 . S
C1716 C1719 1.539 . S
C1717 C1713 1.408 . S
C1717 C1716 1.404 . S
C1717 H1729 0.930 . S
C1718 C1714 1.524 . S
C1718 H1730 0.956 . S
C1718 H1731 0.961 . S
C1718 H1732 0.961 . S
C1719 C1716 1.539 . S
C1719 H1733 0.958 . S
C1719 H1734 0.961 . S
C1719 H1735 0.960 . S
H1720 C1704 0.931 . S
H1721 C1709 0.929 . S
H1722 C1710 0.960 . S
H1723 C1710 0.962 . S
H1724 C1710 0.960 . S
H1725 C1711 0.961 . S
H1726 C1711 0.961 . S
H1727 C1711 0.961 . S
H1728 C1712 0.931 . S
H1729 C1717 0.930 . S
H1730 C1718 0.956 . S
H1731 C1718 0.961 . S
H1732 C1718 0.961 . S
H1733 C1719 0.958 . S
H1734 C1719 0.961 . S
H1735 C1719 0.960 . S
C1736 C1737 1.391 . S
C1736 C1738 1.394 . S
C1736 H1752 0.931 . S
C1737 C1736 1.391 . S
C1737 C1741 1.376 . S
C1738 C1736 1.394 . S
C1738 C1739 1.369 . S
C1738 C1742 1.531 . S
C1739 C1738 1.369 . S
C1739 C1740 1.410 . S
C1739 C1747 1.503 . S
C1740 C1739 1.410 . S
C1740 C1741 1.392 . S
C1740 C1743 1.511 . S
C1741 C1737 1.376 . S
C1741 C1740 1.392 . S
C1741 H1753 0.929 . S
C1742 C1738 1.531 . S
C1742 H1754 0.960 . S
C1742 H1755 0.962 . S
C1742 H1756 0.960 . S
C1743 C1740 1.511 . S
C1743 H1757 0.961 . S
C1743 H1758 0.961 . S
C1743 H1759 0.961 . S
C1744 C1745 1.370 . S
C1744 C1746 1.363 . S
C1744 H1760 0.931 . S
C1745 C1744 1.370 . S
C1745 C1749 1.408 . S
C1746 C1744 1.363 . S
C1746 C1747 1.370 . S
C1746 C1750 1.524 . S
C1747 C1739 1.503 . S
C1747 C1746 1.370 . S
C1747 C1748 1.403 . S
C1748 C1747 1.403 . S
C1748 C1749 1.404 . S
C1748 C1751 1.539 . S
C1749 C1745 1.408 . S
C1749 C1748 1.404 . S
C1749 H1761 0.930 . S
C1750 C1746 1.524 . S
C1750 H1762 0.956 . S
C1750 H1763 0.961 . S
C1750 H1764 0.961 . S
C1751 C1748 1.539 . S
C1751 H1765 0.958 . S
C1751 H1766 0.961 . S
C1751 H1767 0.960 . S
H1752 C1736 0.931 . S
H1753 C1741 0.929 . S
H1754 C1742 0.960 . S
H1755 C1742 0.962 . S
H1756 C1742 0.960 . S
H1757 C1743 0.961 . S
H1758 C1743 0.961 . S
H1759 C1743 0.961 . S
H1760 C1744 0.931 . S
H1761 C1749 0.930 . S
H1762 C1750 0.956 . S
H1763 C1750 0.961 . S
H1764 C1750 0.961 . S
H1765 C1751 0.958 . S
H1766 C1751 0.961 . S
H1767 C1751 0.960 . S
C1768 C1769 1.391 . S
C1768 C1770 1.394 . S
C1768 H1784 0.931 . S
C1769 C1768 1.391 . S
C1769 C1773 1.376 . S
C1770 C1768 1.394 . S
C1770 C1771 1.369 . S
C1770 C1774 1.531 . S
C1771 C1770 1.369 . S
C1771 C1772 1.410 . S
C1771 C1779 1.503 . S
C1772 C1771 1.410 . S
C1772 C1773 1.392 . S
C1772 C1775 1.511 . S
C1773 C1769 1.376 . S
C1773 C1772 1.392 . S
C1773 H1785 0.929 . S
C1774 C1770 1.531 . S
C1774 H1786 0.960 . S
C1774 H1787 0.962 . S
C1774 H1788 0.960 . S
C1775 C1772 1.511 . S
C1775 H1789 0.961 . S
C1775 H1790 0.961 . S
C1775 H1791 0.961 . S
C1776 C1777 1.370 . S
C1776 C1778 1.363 . S
C1776 H1792 0.931 . S
C1777 C1776 1.370 . S
C1777 C1781 1.408 . S
C1778 C1776 1.363 . S
C1778 C1779 1.370 . S
C1778 C1782 1.524 . S
C1779 C1771 1.503 . S
C1779 C1778 1.370 . S
C1779 C1780 1.403 . S
C1780 C1779 1.403 . S
C1780 C1781 1.404 . S
C1780 C1783 1.539 . S
C1781 C1777 1.408 . S
C1781 C1780 1.404 . S
C1781 H1793 0.930 . S
C1782 C1778 1.524 . S
C1782 H1794 0.956 . S
C1782 H1795 0.961 . S
C1782 H1796 0.961 . S
C1783 C1780 1.539 . S
C1783 H1797 0.958 . S
C1783 H1798 0.961 . S
C1783 H1799 0.960 . S
H1784 C1768 0.931 . S
H1785 C1773 0.929 . S
H1786 C1774 0.960 . S
H1787 C1774 0.962 . S
H1788 C1774 0.960 . S
H1789 C1775 0.961 . S
H1790 C1775 0.961 . S
H1791 C1775 0.961 . S
H1792 C1776 0.931 . S
H1793 C1781 0.930 . S
H1794 C1782 0.956 . S
H1795 C1782 0.961 . S
H1796 C1782 0.961 . S
H1797 C1783 0.958 . S
H1798 C1783 0.961 . S
H1799 C1783 0.960 . S
C1800 C1801 1.391 . S
C1800 C1802 1.394 . S
C1800 H1816 0.931 . S
C1801 C1800 1.391 . S
C1801 C1805 1.376 . S
C1802 C1800 1.394 . S
C1802 C1803 1.369 . S
C1802 C1806 1.531 . S
C1803 C1802 1.369 . S
C1803 C1804 1.410 . S
C1803 C1811 1.503 . S
C1804 C1803 1.410 . S
C1804 C1805 1.392 . S
C1804 C1807 1.511 . S
C1805 C1801 1.376 . S
C1805 C1804 1.392 . S
C1805 H1817 0.929 . S
C1806 C1802 1.531 . S
C1806 H1818 0.960 . S
C1806 H1819 0.962 . S
C1806 H1820 0.960 . S
C1807 C1804 1.511 . S
C1807 H1821 0.961 . S
C1807 H1822 0.961 . S
C1807 H1823 0.961 . S
C1808 C1809 1.370 . S
C1808 C1810 1.363 . S
C1808 H1824 0.931 . S
C1809 C1808 1.370 . S
C1809 C1813 1.408 . S
C1810 C1808 1.363 . S
C1810 C1811 1.370 . S
C1810 C1814 1.524 . S
C1811 C1803 1.503 . S
C1811 C1810 1.370 . S
C1811 C1812 1.403 . S
C1812 C1811 1.403 . S
C1812 C1813 1.404 . S
C1812 C1815 1.539 . S
C1813 C1809 1.408 . S
C1813 C1812 1.404 . S
C1813 H1825 0.930 . S
C1814 C1810 1.524 . S
C1814 H1826 0.956 . S
C1814 H1827 0.961 . S
C1814 H1828 0.961 . S
C1815 C1812 1.539 . S
C1815 H1829 0.958 . S
C1815 H1830 0.961 . S
C1815 H1831 0.960 . S
H1816 C1800 0.931 . S
H1817 C1805 0.929 . S
H1818 C1806 0.960 . S
H1819 C1806 0.962 . S
H1820 C1806 0.960 . S
H1821 C1807 0.961 . S
H1822 C1807 0.961 . S
H1823 C1807 0.961 . S
H1824 C1808 0.931 . S
H1825 C1813 0.930 . S
H1826 C1814 0.956 . S
H1827 C1814 0.961 . S
H1828 C1814 0.961 . S
H1829 C1815 0.958 . S
H1830 C1815 0.961 . S
H1831 C1815 0.960 . S
C1832 C1833 1.391 . S
C1832 C1834 1.394 . S
C1832 H1848 0.931 . S
C1833 C1832 1.391 . S
C1833 C1837 1.376 . S
C1834 C1832 1.394 . S
C1834 C1835 1.369 . S
C1834 C1838 1.531 . S
C1835 C1834 1.369 . S
C1835 C1836 1.410 . S
C1835 C1843 1.503 . S
C1836 C1835 1.410 . S
C1836 C1837 1.392 . S
C1836 C1839 1.511 . S
C1837 C1833 1.376 . S
C1837 C1836 1.392 . S
C1837 H1849 0.929 . S
C1838 C1834 1.531 . S
C1838 H1850 0.960 . S
C1838 H1851 0.962 . S
C1838 H1852 0.960 . S
C1839 C1836 1.511 . S
C1839 H1853 0.961 . S
C1839 H1854 0.961 . S
C1839 H1855 0.961 . S
C1840 C1841 1.370 . S
C1840 C1842 1.363 . S
C1840 H1856 0.931 . S
C1841 C1840 1.370 . S
C1841 C1845 1.408 . S
C1842 C1840 1.363 . S
C1842 C1843 1.370 . S
C1842 C1846 1.524 . S
C1843 C1835 1.503 . S
C1843 C1842 1.370 . S
C1843 C1844 1.403 . S
C1844 C1843 1.403 . S
C1844 C1845 1.404 . S
C1844 C1847 1.539 . S
C1845 C1841 1.408 . S
C1845 C1844 1.404 . S
C1845 H1857 0.930 . S
C1846 C1842 1.524 . S
C1846 H1858 0.956 . S
C1846 H1859 0.961 . S
C1846 H1860 0.961 . S
C1847 C1844 1.539 . S
C1847 H1861 0.958 . S
C1847 H1862 0.961 . S
C1847 H1863 0.960 . S
H1848 C1832 0.931 . S
H1849 C1837 0.929 . S
H1850 C1838 0.960 . S
H1851 C1838 0.962 . S
H1852 C1838 0.960 . S
H1853 C1839 0.961 . S
H1854 C1839 0.961 . S
H1855 C1839 0.961 . S
H1856 C1840 0.931 . S
H1857 C1845 0.930 . S
H1858 C1846 0.956 . S
H1859 C1846 0.961 . S
H1860 C1846 0.961 . S
H1861 C1847 0.958 . S
H1862 C1847 0.961 . S
H1863 C1847 0.960 . S
C1864 C1865 1.391 . S
C1864 C1866 1.394 . S
C1864 H1880 0.931 . S
C1865 C1864 1.391 . S
C1865 C1869 1.376 . S
C1866 C1864 1.394 . S
C1866 C1867 1.369 . S
C1866 C1870 1.531 . S
C1867 C1866 1.369 . S
C1867 C1868 1.410 . S
C1867 C1875 1.503 . S
C1868 C1867 1.410 . S
C1868 C1869 1.392 . S
C1868 C1871 1.511 . S
C1869 C1865 1.376 . S
C1869 C1868 1.392 . S
C1869 H1881 0.929 . S
C1870 C1866 1.531 . S
C1870 H1882 0.960 . S
C1870 H1883 0.962 . S
C1870 H1884 0.960 . S
C1871 C1868 1.511 . S
C1871 H1885 0.961 . S
C1871 H1886 0.961 . S
C1871 H1887 0.961 . S
C1872 C1873 1.370 . S
C1872 C1874 1.363 . S
C1872 H1888 0.931 . S
C1873 C1872 1.370 . S
C1873 C1877 1.408 . S
C1874 C1872 1.363 . S
C1874 C1875 1.370 . S
C1874 C1878 1.524 . S
C1875 C1867 1.503 . S
C1875 C1874 1.370 . S
C1875 C1876 1.403 . S
C1876 C1875 1.403 . S
C1876 C1877 1.404 . S
C1876 C1879 1.539 . S
C1877 C1873 1.408 . S
C1877 C1876 1.404 . S
C1877 H1889 0.930 . S
C1878 C1874 1.524 . S
C1878 H1890 0.956 . S
C1878 H1891 0.961 . S
C1878 H1892 0.961 . S
C1879 C1876 1.539 . S
C1879 H1893 0.958 . S
C1879 H1894 0.961 . S
C1879 H1895 0.960 . S
H1880 C1864 0.931 . S
H1881 C1869 0.929 . S
H1882 C1870 0.960 . S
H1883 C1870 0.962 . S
H1884 C1870 0.960 . S
H1885 C1871 0.961 . S
H1886 C1871 0.961 . S
H1887 C1871 0.961 . S
H1888 C1872 0.931 . S
H1889 C1877 0.930 . S
H1890 C1878 0.956 . S
H1891 C1878 0.961 . S
H1892 C1878 0.961 . S
H1893 C1879 0.958 . S
H1894 C1879 0.961 . S
H1895 C1879 0.960 . S
C1896 C1897 1.391 . S
C1896 C1898 1.394 . S
C1896 H1912 0.931 . S
C1897 C1896 1.391 . S
C1897 C1901 1.376 . S
C1898 C1896 1.394 . S
C1898 C1899 1.369 . S
C1898 C1902 1.531 . S
C1899 C1898 1.369 . S
C1899 C1900 1.410 . S
C1899 C1907 1.503 . S
C1900 C1899 1.410 . S
C1900 C1901 1.392 . S
C1900 C1903 1.511 . S
C1901 C1897 1.376 . S
C1901 C1900 1.392 . S
C1901 H1913 0.929 . S
C1902 C1898 1.531 . S
C1902 H1914 0.960 . S
C1902 H1915 0.962 . S
C1902 H1916 0.960 . S
C1903 C1900 1.511 . S
C1903 H1917 0.961 . S
C1903 H1918 0.961 . S
C1903 H1919 0.961 . S
C1904 C1905 1.370 . S
C1904 C1906 1.363 . S
C1904 H1920 0.931 . S
C1905 C1904 1.370 . S
C1905 C1909 1.408 . S
C1906 C1904 1.363 . S
C1906 C1907 1.370 . S
C1906 C1910 1.524 . S
C1907 C1899 1.503 . S
C1907 C1906 1.370 . S
C1907 C1908 1.403 . S
C1908 C1907 1.403 . S
C1908 C1909 1.404 . S
C1908 C1911 1.539 . S
C1909 C1905 1.408 . S
C1909 C1908 1.404 . S
C1909 H1921 0.930 . S
C1910 C1906 1.524 . S
C1910 H1922 0.956 . S
C1910 H1923 0.961 . S
C1910 H1924 0.961 . S
C1911 C1908 1.539 . S
C1911 H1925 0.958 . S
C1911 H1926 0.961 . S
C1911 H1927 0.960 . S
H1912 C1896 0.931 . S
H1913 C1901 0.929 . S
H1914 C1902 0.960 . S
H1915 C1902 0.962 . S
H1916 C1902 0.960 . S
H1917 C1903 0.961 . S
H1918 C1903 0.961 . S
H1919 C1903 0.961 . S
H1920 C1904 0.931 . S
H1921 C1909 0.930 . S
H1922 C1910 0.956 . S
H1923 C1910 0.961 . S
H1924 C1910 0.961 . S
H1925 C1911 0.958 . S
H1926 C1911 0.961 . S
H1927 C1911 0.960 . S
C1928 C1929 1.391 . S
C1928 C1930 1.394 . S
C1928 H1944 0.931 . S
C1929 C1928 1.391 . S
C1929 C1933 1.376 . S
C1930 C1928 1.394 . S
C1930 C1931 1.369 . S
C1930 C1934 1.531 . S
C1931 C1930 1.369 . S
C1931 C1932 1.410 . S
C1931 C1939 1.503 . S
C1932 C1931 1.410 . S
C1932 C1933 1.392 . S
C1932 C1935 1.511 . S
C1933 C1929 1.376 . S
C1933 C1932 1.392 . S
C1933 H1945 0.929 . S
C1934 C1930 1.531 . S
C1934 H1946 0.946 1_545 S
C1934 H1947 0.962 . S
C1934 H1948 0.947 1_545 S
C1935 C1932 1.511 . S
C1935 H1949 0.961 . S
C1935 H1950 0.961 . S
C1935 H1951 0.961 . S
C1936 C1937 1.370 . S
C1936 C1938 1.363 . S
C1936 H1952 0.931 . S
C1937 C1936 1.370 . S
C1937 C1941 1.424 . S
C1938 C1936 1.363 . S
C1938 C1939 1.370 . S
C1938 C1942 1.524 . S
C1939 C1931 1.503 . S
C1939 C1938 1.370 . S
C1939 C1940 1.403 . S
C1940 C1939 1.403 . S
C1940 C1941 1.407 . S
C1940 C1943 1.539 1_545 S
C1941 C1937 1.424 . S
C1941 C1940 1.407 . S
C1941 H1953 0.912 1_545 S
C1942 C1938 1.524 . S
C1942 H1954 0.956 . S
C1942 H1955 0.961 . S
C1942 H1956 0.961 . S
C1943 C1940 1.539 1_565 S
C1943 H1957 0.958 . S
C1943 H1958 0.961 . S
C1943 H1959 0.960 . S
H1944 C1928 0.931 . S
H1945 C1933 0.929 . S
H1946 C1934 0.946 1_565 S
H1947 C1934 0.962 . S
H1948 C1934 0.947 1_565 S
H1949 C1935 0.961 . S
H1950 C1935 0.961 . S
H1951 C1935 0.961 . S
H1952 C1936 0.931 . S
H1953 C1941 0.912 1_565 S
H1954 C1942 0.956 . S
H1955 C1942 0.961 . S
H1956 C1942 0.961 . S
H1957 C1943 0.958 . S
H1958 C1943 0.961 . S
H1959 C1943 0.960 . S
C1960 C1961 1.391 . S
C1960 C1962 1.394 . S
C1960 H1976 0.931 . S
C1961 C1960 1.391 . S
C1961 C1965 1.376 . S
C1962 C1960 1.394 . S
C1962 C1963 1.369 . S
C1962 C1966 1.531 . S
C1963 C1962 1.369 . S
C1963 C1964 1.410 . S
C1963 C1971 1.503 . S
C1964 C1963 1.410 . S
C1964 C1965 1.392 . S
C1964 C1967 1.511 . S
C1965 C1961 1.376 . S
C1965 C1964 1.392 . S
C1965 H1977 0.929 . S
C1966 C1962 1.531 . S
C1966 H1978 0.960 . S
C1966 H1979 0.962 . S
C1966 H1980 0.960 . S
C1967 C1964 1.511 . S
C1967 H1981 0.961 . S
C1967 H1982 0.961 . S
C1967 H1983 0.961 . S
C1968 C1969 1.370 . S
C1968 C1970 1.363 . S
C1968 H1984 0.931 . S
C1969 C1968 1.370 . S
C1969 C1973 1.408 . S
C1970 C1968 1.363 . S
C1970 C1971 1.370 . S
C1970 C1974 1.524 . S
C1971 C1963 1.503 . S
C1971 C1970 1.370 . S
C1971 C1972 1.403 . S
C1972 C1971 1.403 . S
C1972 C1973 1.404 . S
C1972 C1975 1.539 . S
C1973 C1969 1.408 . S
C1973 C1972 1.404 . S
C1973 H1985 0.930 . S
C1974 C1970 1.524 . S
C1974 H1986 0.956 . S
C1974 H1987 0.961 . S
C1974 H1988 0.961 . S
C1975 C1972 1.539 . S
C1975 H1989 0.958 . S
C1975 H1990 0.961 . S
C1975 H1991 0.960 . S
H1976 C1960 0.931 . S
H1977 C1965 0.929 . S
H1978 C1966 0.960 . S
H1979 C1966 0.962 . S
H1980 C1966 0.960 . S
H1981 C1967 0.961 . S
H1982 C1967 0.961 . S
H1983 C1967 0.961 . S
H1984 C1968 0.931 . S
H1985 C1973 0.930 . S
H1986 C1974 0.956 . S
H1987 C1974 0.961 . S
H1988 C1974 0.961 . S
H1989 C1975 0.958 . S
H1990 C1975 0.961 . S
H1991 C1975 0.960 . S
C1992 C1993 1.391 . S
C1992 C1994 1.394 . S
C1992 H2008 0.931 . S
C1993 C1992 1.391 . S
C1993 C1997 1.376 . S
C1994 C1992 1.394 . S
C1994 C1995 1.369 . S
C1994 C1998 1.531 . S
C1995 C1994 1.369 . S
C1995 C1996 1.410 . S
C1995 C2003 1.503 . S
C1996 C1995 1.410 . S
C1996 C1997 1.392 . S
C1996 C1999 1.511 . S
C1997 C1993 1.376 . S
C1997 C1996 1.392 . S
C1997 H2009 0.929 . S
C1998 C1994 1.531 . S
C1998 H2010 0.960 . S
C1998 H2011 0.962 . S
C1998 H2012 0.960 . S
C1999 C1996 1.511 . S
C1999 H2013 0.961 . S
C1999 H2014 0.961 . S
C1999 H2015 0.961 . S
C2000 C2001 1.370 . S
C2000 C2002 1.363 . S
C2000 H2016 0.931 . S
C2001 C2000 1.370 . S
C2001 C2005 1.408 . S
C2002 C2000 1.363 . S
C2002 C2003 1.370 . S
C2002 C2006 1.524 . S
C2003 C1995 1.503 . S
C2003 C2002 1.370 . S
C2003 C2004 1.403 . S
C2004 C2003 1.403 . S
C2004 C2005 1.404 . S
C2004 C2007 1.539 . S
C2005 C2001 1.408 . S
C2005 C2004 1.404 . S
C2005 H2017 0.930 . S
C2006 C2002 1.524 . S
C2006 H2018 0.956 . S
C2006 H2019 0.961 . S
C2006 H2020 0.961 . S
C2007 C2004 1.539 . S
C2007 H2021 0.958 . S
C2007 H2022 0.961 . S
C2007 H2023 0.960 . S
H2008 C1992 0.931 . S
H2009 C1997 0.929 . S
H2010 C1998 0.960 . S
H2011 C1998 0.962 . S
H2012 C1998 0.960 . S
H2013 C1999 0.961 . S
H2014 C1999 0.961 . S
H2015 C1999 0.961 . S
H2016 C2000 0.931 . S
H2017 C2005 0.930 . S
H2018 C2006 0.956 . S
H2019 C2006 0.961 . S
H2020 C2006 0.961 . S
H2021 C2007 0.958 . S
H2022 C2007 0.961 . S
H2023 C2007 0.960 . S
C2024 C2025 1.391 . S
C2024 C2026 1.394 . S
C2024 H2040 0.931 . S
C2025 C2024 1.391 . S
C2025 C2029 1.376 . S
C2026 C2024 1.394 . S
C2026 C2027 1.369 . S
C2026 C2030 1.531 . S
C2027 C2026 1.369 . S
C2027 C2028 1.410 . S
C2027 C2035 1.503 . S
C2028 C2027 1.410 . S
C2028 C2029 1.392 . S
C2028 C2031 1.511 . S
C2029 C2025 1.376 . S
C2029 C2028 1.392 . S
C2029 H2041 0.929 . S
C2030 C2026 1.531 . S
C2030 H2042 0.960 . S
C2030 H2043 0.962 . S
C2030 H2044 0.960 . S
C2031 C2028 1.511 . S
C2031 H2045 0.961 . S
C2031 H2046 0.961 . S
C2031 H2047 0.961 . S
C2032 C2033 1.370 . S
C2032 C2034 1.363 . S
C2032 H2048 0.931 . S
C2033 C2032 1.370 . S
C2033 C2037 1.408 . S
C2034 C2032 1.363 . S
C2034 C2035 1.370 . S
C2034 C2038 1.524 . S
C2035 C2027 1.503 . S
C2035 C2034 1.370 . S
C2035 C2036 1.403 . S
C2036 C2035 1.403 . S
C2036 C2037 1.404 . S
C2036 C2039 1.539 . S
C2037 C2033 1.408 . S
C2037 C2036 1.404 . S
C2037 H2049 0.930 . S
C2038 C2034 1.524 . S
C2038 H2050 0.956 . S
C2038 H2051 0.961 . S
C2038 H2052 0.961 . S
C2039 C2036 1.539 . S
C2039 H2053 0.958 . S
C2039 H2054 0.961 . S
C2039 H2055 0.960 . S
H2040 C2024 0.931 . S
H2041 C2029 0.929 . S
H2042 C2030 0.960 . S
H2043 C2030 0.962 . S
H2044 C2030 0.960 . S
H2045 C2031 0.961 . S
H2046 C2031 0.961 . S
H2047 C2031 0.961 . S
H2048 C2032 0.931 . S
H2049 C2037 0.930 . S
H2050 C2038 0.956 . S
H2051 C2038 0.961 . S
H2052 C2038 0.961 . S
H2053 C2039 0.958 . S
H2054 C2039 0.961 . S
H2055 C2039 0.960 . S
C2056 C2057 1.391 . S
C2056 C2058 1.394 . S
C2056 H2072 0.931 . S
C2057 C2056 1.391 . S
C2057 C2061 1.376 . S
C2058 C2056 1.394 . S
C2058 C2059 1.369 . S
C2058 C2062 1.531 . S
C2059 C2058 1.369 . S
C2059 C2060 1.410 . S
C2059 C2067 1.503 . S
C2060 C2059 1.410 . S
C2060 C2061 1.392 . S
C2060 C2063 1.511 . S
C2061 C2057 1.376 . S
C2061 C2060 1.392 . S
C2061 H2073 0.880 1_655 S
C2062 C2058 1.531 . S
C2062 H2074 0.960 . S
C2062 H2075 0.962 . S
C2062 H2076 0.960 . S
C2063 C2060 1.511 . S
C2063 H2077 0.961 . S
C2063 H2078 0.961 . S
C2063 H2079 0.961 1_545 S
C2064 C2065 1.370 . S
C2064 C2066 1.363 . S
C2064 H2080 0.931 . S
C2065 C2064 1.370 . S
C2065 C2069 1.408 1_545 S
C2066 C2064 1.363 . S
C2066 C2067 1.370 . S
C2066 C2070 1.524 . S
C2067 C2059 1.503 . S
C2067 C2066 1.370 . S
C2067 C2068 1.403 1_545 S
C2068 C2067 1.403 1_565 S
C2068 C2069 1.404 . S
C2068 C2071 1.539 . S
C2069 C2065 1.408 1_565 S
C2069 C2068 1.404 . S
C2069 H2081 0.930 . S
C2070 C2066 1.524 . S
C2070 H2082 0.956 . S
C2070 H2083 0.961 . S
C2070 H2084 0.961 . S
C2071 C2068 1.539 . S
C2071 H2085 0.958 . S
C2071 H2086 0.961 . S
C2071 H2087 0.960 . S
H2072 C2056 0.931 . S
H2073 C2061 0.880 1_455 S
H2074 C2062 0.960 . S
H2075 C2062 0.962 . S
H2076 C2062 0.960 . S
H2077 C2063 0.961 . S
H2078 C2063 0.961 . S
H2079 C2063 0.961 1_565 S
H2080 C2064 0.931 . S
H2081 C2069 0.930 . S
H2082 C2070 0.956 . S
H2083 C2070 0.961 . S
H2084 C2070 0.961 . S
H2085 C2071 0.958 . S
H2086 C2071 0.961 . S
H2087 C2071 0.960 . S
C2088 C2089 1.391 . S
C2088 C2090 1.394 . S
C2088 H2104 0.931 . S
C2089 C2088 1.391 . S
C2089 C2093 1.376 . S
C2090 C2088 1.394 . S
C2090 C2091 1.369 . S
C2090 C2094 1.531 . S
C2091 C2090 1.369 . S
C2091 C2092 1.410 . S
C2091 C2099 1.503 . S
C2092 C2091 1.410 . S
C2092 C2093 1.392 . S
C2092 C2095 1.511 . S
C2093 C2089 1.376 . S
C2093 C2092 1.392 . S
C2093 H2105 0.929 . S
C2094 C2090 1.531 . S
C2094 H2106 0.960 . S
C2094 H2107 0.962 . S
C2094 H2108 0.960 . S
C2095 C2092 1.511 . S
C2095 H2109 0.961 . S
C2095 H2110 0.961 . S
C2095 H2111 0.961 . S
C2096 C2097 1.370 . S
C2096 C2098 1.363 . S
C2096 H2112 0.931 . S
C2097 C2096 1.370 . S
C2097 C2101 1.408 . S
C2098 C2096 1.363 . S
C2098 C2099 1.370 . S
C2098 C2102 1.524 . S
C2099 C2091 1.503 . S
C2099 C2098 1.370 . S
C2099 C2100 1.403 . S
C2100 C2099 1.403 . S
C2100 C2101 1.404 . S
C2100 C2103 1.539 . S
C2101 C2097 1.408 . S
C2101 C2100 1.404 . S
C2101 H2113 0.930 . S
C2102 C2098 1.524 . S
C2102 H2114 0.956 . S
C2102 H2115 0.961 . S
C2102 H2116 0.961 . S
C2103 C2100 1.539 . S
C2103 H2117 0.958 . S
C2103 H2118 0.961 . S
C2103 H2119 0.960 . S
H2104 C2088 0.931 . S
H2105 C2093 0.929 . S
H2106 C2094 0.960 . S
H2107 C2094 0.962 . S
H2108 C2094 0.960 . S
H2109 C2095 0.961 . S
H2110 C2095 0.961 . S
H2111 C2095 0.961 . S
H2112 C2096 0.931 . S
H2113 C2101 0.930 . S
H2114 C2102 0.956 . S
H2115 C2102 0.961 . S
H2116 C2102 0.961 . S
H2117 C2103 0.958 . S
H2118 C2103 0.961 . S
H2119 C2103 0.960 . S
C2120 C2121 1.391 . S
C2120 C2122 1.394 . S
C2120 H2136 0.931 1_455 S
C2121 C2120 1.391 . S
C2121 C2125 1.376 . S
C2122 C2120 1.394 . S
C2122 C2123 1.369 . S
C2122 C2126 1.531 . S
C2123 C2122 1.369 . S
C2123 C2124 1.410 . S
C2123 C2131 1.503 . S
C2124 C2123 1.410 . S
C2124 C2125 1.392 . S
C2124 C2127 1.511 . S
C2125 C2121 1.376 . S
C2125 C2124 1.392 . S
C2125 H2137 0.929 . S
C2126 C2122 1.531 . S
C2126 H2138 0.960 . S
C2126 H2139 0.962 . S
C2126 H2140 0.960 . S
C2127 C2124 1.511 . S
C2127 H2141 0.961 . S
C2127 H2142 0.961 . S
C2127 H2143 0.961 . S
C2128 C2129 1.370 . S
C2128 C2130 1.363 . S
C2128 H2144 0.931 . S
C2129 C2128 1.370 . S
C2129 C2133 1.408 . S
C2130 C2128 1.363 . S
C2130 C2131 1.370 . S
C2130 C2134 1.524 . S
C2131 C2123 1.503 . S
C2131 C2130 1.370 . S
C2131 C2132 1.403 . S
C2132 C2131 1.403 . S
C2132 C2133 1.404 . S
C2132 C2135 1.539 . S
C2133 C2129 1.408 . S
C2133 C2132 1.404 . S
C2133 H2145 0.930 . S
C2134 C2130 1.524 . S
C2134 H2146 0.956 . S
C2134 H2147 0.961 . S
C2134 H2148 0.961 . S
C2135 C2132 1.539 . S
C2135 H2149 0.958 . S
C2135 H2150 0.961 . S
C2135 H2151 0.960 . S
H2136 C2120 0.931 1_655 S
H2137 C2125 0.929 . S
H2138 C2126 0.960 . S
H2139 C2126 0.962 . S
H2140 C2126 0.960 . S
H2141 C2127 0.961 . S
H2142 C2127 0.961 . S
H2143 C2127 0.961 . S
H2144 C2128 0.931 . S
H2145 C2133 0.930 . S
H2146 C2134 0.956 . S
H2147 C2134 0.961 . S
H2148 C2134 0.961 . S
H2149 C2135 0.958 . S
H2150 C2135 0.961 . S
H2151 C2135 0.960 . S
C2152 C2153 1.391 . S
C2152 C2154 1.394 . S
C2152 H2168 0.931 . S
C2153 C2152 1.391 . S
C2153 C2157 1.376 . S
C2154 C2152 1.394 . S
C2154 C2155 1.369 . S
C2154 C2158 1.531 . S
C2155 C2154 1.369 . S
C2155 C2156 1.410 . S
C2155 C2163 1.503 . S
C2156 C2155 1.410 . S
C2156 C2157 1.392 . S
C2156 C2159 1.511 . S
C2157 C2153 1.376 . S
C2157 C2156 1.392 . S
C2157 H2169 0.929 . S
C2158 C2154 1.531 . S
C2158 H2170 0.960 . S
C2158 H2171 0.962 . S
C2158 H2172 0.960 . S
C2159 C2156 1.511 . S
C2159 H2173 0.961 . S
C2159 H2174 0.961 . S
C2159 H2175 0.961 . S
C2160 C2161 1.370 . S
C2160 C2162 1.363 . S
C2160 H2176 0.931 . S
C2161 C2160 1.370 . S
C2161 C2165 1.408 . S
C2162 C2160 1.363 . S
C2162 C2163 1.370 . S
C2162 C2166 1.524 . S
C2163 C2155 1.503 . S
C2163 C2162 1.370 . S
C2163 C2164 1.403 . S
C2164 C2163 1.403 . S
C2164 C2165 1.404 . S
C2164 C2167 1.539 . S
C2165 C2161 1.408 . S
C2165 C2164 1.404 . S
C2165 H2177 0.930 . S
C2166 C2162 1.524 . S
C2166 H2178 0.956 . S
C2166 H2179 0.961 . S
C2166 H2180 0.961 . S
C2167 C2164 1.539 . S
C2167 H2181 0.958 . S
C2167 H2182 0.961 . S
C2167 H2183 0.960 . S
H2168 C2152 0.931 . S
H2169 C2157 0.929 . S
H2170 C2158 0.960 . S
H2171 C2158 0.962 . S
H2172 C2158 0.960 . S
H2173 C2159 0.961 . S
H2174 C2159 0.961 . S
H2175 C2159 0.961 . S
H2176 C2160 0.931 . S
H2177 C2165 0.930 . S
H2178 C2166 0.956 . S
H2179 C2166 0.961 . S
H2180 C2166 0.961 . S
H2181 C2167 0.958 . S
H2182 C2167 0.961 . S
H2183 C2167 0.960 . S
C2184 C2185 1.391 . S
C2184 C2186 1.394 . S
C2184 H2200 0.931 1_556 S
C2185 C2184 1.391 . S
C2185 C2189 1.376 . S
C2186 C2184 1.394 . S
C2186 C2187 1.369 . S
C2186 C2190 1.531 . S
C2187 C2186 1.369 . S
C2187 C2188 1.410 . S
C2187 C2195 1.503 . S
C2188 C2187 1.410 . S
C2188 C2189 1.392 . S
C2188 C2191 1.511 . S
C2189 C2185 1.376 . S
C2189 C2188 1.392 . S
C2189 H2201 0.929 . S
C2190 C2186 1.531 . S
C2190 H2202 0.960 . S
C2190 H2203 0.962 1_655 S
C2190 H2204 0.960 1_556 S
C2191 C2188 1.511 . S
C2191 H2205 0.961 . S
C2191 H2206 0.961 . S
C2191 H2207 0.961 . S
C2192 C2193 1.379 . S
C2192 C2194 1.368 . S
C2192 H2208 0.916 1_655 S
C2193 C2192 1.379 . S
C2193 C2197 1.408 . S
C2194 C2192 1.368 . S
C2194 C2195 1.370 . S
C2194 C2198 1.524 1_655 S
C2195 C2187 1.503 . S
C2195 C2194 1.370 . S
C2195 C2196 1.403 . S
C2196 C2195 1.403 . S
C2196 C2197 1.404 . S
C2196 C2199 1.539 . S
C2197 C2193 1.408 . S
C2197 C2196 1.404 . S
C2197 H2209 0.930 . S
C2198 C2194 1.524 1_455 S
C2198 H2210 0.956 . S
C2198 H2211 0.961 1_455 S
C2198 H2212 0.961 . S
C2199 C2196 1.539 . S
C2199 H2213 0.958 . S
C2199 H2214 0.961 . S
C2199 H2215 0.960 . S
H2200 C2184 0.931 1_554 S
H2201 C2189 0.929 . S
H2202 C2190 0.960 . S
H2203 C2190 0.962 1_455 S
H2204 C2190 0.960 1_554 S
H2205 C2191 0.961 . S
H2206 C2191 0.961 . S
H2207 C2191 0.961 . S
H2208 C2192 0.916 1_455 S
H2209 C2197 0.930 . S
H2210 C2198 0.956 . S
H2211 C2198 0.961 1_655 S
H2212 C2198 0.961 . S
H2213 C2199 0.958 . S
H2214 C2199 0.961 . S
H2215 C2199 0.960 . S
C2216 C2217 1.391 . S
C2216 C2218 1.394 . S
C2216 H2232 0.931 . S
C2217 C2216 1.391 . S
C2217 C2221 1.376 . S
C2218 C2216 1.394 . S
C2218 C2219 1.369 . S
C2218 C2222 1.531 . S
C2219 C2218 1.369 . S
C2219 C2220 1.410 . S
C2219 C2227 1.503 . S
C2220 C2219 1.410 . S
C2220 C2221 1.392 . S
C2220 C2223 1.511 . S
C2221 C2217 1.376 . S
C2221 C2220 1.392 . S
C2221 H2233 0.929 . S
C2222 C2218 1.531 . S
C2222 H2234 0.960 . S
C2222 H2235 0.962 . S
C2222 H2236 0.960 . S
C2223 C2220 1.511 . S
C2223 H2237 0.961 . S
C2223 H2238 0.961 . S
C2223 H2239 0.961 . S
C2224 C2225 1.370 . S
C2224 C2226 1.363 . S
C2224 H2240 0.931 . S
C2225 C2224 1.370 . S
C2225 C2229 1.408 . S
C2226 C2224 1.363 . S
C2226 C2227 1.370 . S
C2226 C2230 1.524 . S
C2227 C2219 1.503 . S
C2227 C2226 1.370 . S
C2227 C2228 1.403 . S
C2228 C2227 1.403 . S
C2228 C2229 1.404 . S
C2228 C2231 1.539 . S
C2229 C2225 1.408 . S
C2229 C2228 1.404 . S
C2229 H2241 0.930 . S
C2230 C2226 1.524 . S
C2230 H2242 0.956 . S
C2230 H2243 0.961 . S
C2230 H2244 0.961 . S
C2231 C2228 1.539 . S
C2231 H2245 0.958 . S
C2231 H2246 0.961 . S
C2231 H2247 0.960 . S
H2232 C2216 0.931 . S
H2233 C2221 0.929 . S
H2234 C2222 0.960 . S
H2235 C2222 0.962 . S
H2236 C2222 0.960 . S
H2237 C2223 0.961 . S
H2238 C2223 0.961 . S
H2239 C2223 0.961 . S
H2240 C2224 0.931 . S
H2241 C2229 0.930 . S
H2242 C2230 0.956 . S
H2243 C2230 0.961 . S
H2244 C2230 0.961 . S
H2245 C2231 0.958 . S
H2246 C2231 0.961 . S
H2247 C2231 0.960 . S
C2248 C2249 1.391 . S
C2248 C2250 1.394 . S
C2248 H2264 0.931 . S
C2249 C2248 1.391 . S
C2249 C2253 1.376 . S
C2250 C2248 1.394 . S
C2250 C2251 1.369 . S
C2250 C2254 1.531 . S
C2251 C2250 1.369 . S
C2251 C2252 1.410 . S
C2251 C2259 1.503 . S
C2252 C2251 1.410 . S
C2252 C2253 1.392 . S
C2252 C2255 1.511 . S
C2253 C2249 1.376 . S
C2253 C2252 1.392 . S
C2253 H2265 0.929 1_556 S
C2254 C2250 1.531 . S
C2254 H2266 0.960 . S
C2254 H2267 0.962 . S
C2254 H2268 0.960 . S
C2255 C2252 1.511 . S
C2255 H2269 0.961 . S
C2255 H2270 0.961 . S
C2255 H2271 0.961 . S
C2256 C2257 1.370 . S
C2256 C2258 1.363 . S
C2256 H2272 0.931 . S
C2257 C2256 1.370 . S
C2257 C2261 1.408 1_455 S
C2258 C2256 1.363 . S
C2258 C2259 1.370 . S
C2258 C2262 1.524 . S
C2259 C2251 1.503 . S
C2259 C2258 1.370 . S
C2259 C2260 1.403 1_455 S
C2260 C2259 1.403 1_655 S
C2260 C2261 1.404 . S
C2260 C2263 1.539 . S
C2261 C2257 1.408 1_655 S
C2261 C2260 1.404 . S
C2261 H2273 0.930 . S
C2262 C2258 1.524 . S
C2262 H2274 0.956 . S
C2262 H2275 0.961 . S
C2262 H2276 0.961 . S
C2263 C2260 1.539 . S
C2263 H2277 0.958 . S
C2263 H2278 0.961 . S
C2263 H2279 0.960 . S
H2264 C2248 0.931 . S
H2265 C2253 0.929 1_554 S
H2266 C2254 0.960 . S
H2267 C2254 0.962 . S
H2268 C2254 0.960 . S
H2269 C2255 0.961 . S
H2270 C2255 0.961 . S
H2271 C2255 0.961 . S
H2272 C2256 0.931 . S
H2273 C2261 0.930 . S
H2274 C2262 0.956 . S
H2275 C2262 0.961 . S
H2276 C2262 0.961 . S
H2277 C2263 0.958 . S
H2278 C2263 0.961 . S
H2279 C2263 0.960 . S
C2280 C2281 1.391 . S
C2280 C2282 1.394 . S
C2280 H2296 0.931 . S
C2281 C2280 1.391 . S
C2281 C2285 1.376 . S
C2282 C2280 1.394 . S
C2282 C2283 1.369 . S
C2282 C2286 1.531 . S
C2283 C2282 1.369 . S
C2283 C2284 1.410 . S
C2283 C2291 1.503 . S
C2284 C2283 1.410 . S
C2284 C2285 1.392 . S
C2284 C2287 1.511 . S
C2285 C2281 1.376 . S
C2285 C2284 1.392 . S
C2285 H2297 0.929 . S
C2286 C2282 1.531 . S
C2286 H2298 0.960 . S
C2286 H2299 0.962 . S
C2286 H2300 0.960 . S
C2287 C2284 1.511 . S
C2287 H2301 0.961 . S
C2287 H2302 0.961 . S
C2287 H2303 0.961 . S
C2288 C2289 1.370 . S
C2288 C2290 1.363 . S
C2288 H2304 0.931 . S
C2289 C2288 1.370 . S
C2289 C2293 1.408 . S
C2290 C2288 1.363 . S
C2290 C2291 1.370 . S
C2290 C2294 1.524 . S
C2291 C2283 1.503 . S
C2291 C2290 1.370 . S
C2291 C2292 1.403 . S
C2292 C2291 1.403 . S
C2292 C2293 1.404 . S
C2292 C2295 1.539 . S
C2293 C2289 1.408 . S
C2293 C2292 1.404 . S
C2293 H2305 0.930 . S
C2294 C2290 1.524 . S
C2294 H2306 0.956 . S
C2294 H2307 0.961 . S
C2294 H2308 0.961 . S
C2295 C2292 1.539 . S
C2295 H2309 0.958 . S
C2295 H2310 0.961 . S
C2295 H2311 0.960 . S
H2296 C2280 0.931 . S
H2297 C2285 0.929 . S
H2298 C2286 0.960 . S
H2299 C2286 0.962 . S
H2300 C2286 0.960 . S
H2301 C2287 0.961 . S
H2302 C2287 0.961 . S
H2303 C2287 0.961 . S
H2304 C2288 0.931 . S
H2305 C2293 0.930 . S
H2306 C2294 0.956 . S
H2307 C2294 0.961 . S
H2308 C2294 0.961 . S
H2309 C2295 0.958 . S
H2310 C2295 0.961 . S
H2311 C2295 0.960 . S
C2312 C2313 1.391 . S
C2312 C2314 1.394 . S
C2312 H2328 0.931 . S
C2313 C2312 1.391 . S
C2313 C2317 1.376 . S
C2314 C2312 1.394 . S
C2314 C2315 1.369 . S
C2314 C2318 1.531 . S
C2315 C2314 1.369 . S
C2315 C2316 1.410 . S
C2315 C2323 1.503 . S
C2316 C2315 1.410 . S
C2316 C2317 1.392 . S
C2316 C2319 1.511 . S
C2317 C2313 1.376 . S
C2317 C2316 1.392 . S
C2317 H2329 0.929 . S
C2318 C2314 1.531 . S
C2318 H2330 0.960 . S
C2318 H2331 0.962 . S
C2318 H2332 0.960 . S
C2319 C2316 1.511 . S
C2319 H2333 0.961 . S
C2319 H2334 0.961 . S
C2319 H2335 0.961 . S
C2320 C2321 1.370 . S
C2320 C2322 1.363 . S
C2320 H2336 0.931 . S
C2321 C2320 1.370 . S
C2321 C2325 1.408 . S
C2322 C2320 1.363 . S
C2322 C2323 1.370 . S
C2322 C2326 1.524 . S
C2323 C2315 1.503 . S
C2323 C2322 1.370 . S
C2323 C2324 1.403 . S
C2324 C2323 1.403 . S
C2324 C2325 1.404 . S
C2324 C2327 1.539 . S
C2325 C2321 1.408 . S
C2325 C2324 1.404 . S
C2325 H2337 0.930 . S
C2326 C2322 1.524 . S
C2326 H2338 0.956 . S
C2326 H2339 0.961 . S
C2326 H2340 0.961 . S
C2327 C2324 1.539 . S
C2327 H2341 0.958 . S
C2327 H2342 0.961 . S
C2327 H2343 0.960 . S
H2328 C2312 0.931 . S
H2329 C2317 0.929 . S
H2330 C2318 0.960 . S
H2331 C2318 0.962 . S
H2332 C2318 0.960 . S
H2333 C2319 0.961 . S
H2334 C2319 0.961 . S
H2335 C2319 0.961 . S
H2336 C2320 0.931 . S
H2337 C2325 0.930 . S
H2338 C2326 0.956 . S
H2339 C2326 0.961 . S
H2340 C2326 0.961 . S
H2341 C2327 0.958 . S
H2342 C2327 0.961 . S
H2343 C2327 0.960 . S
C2344 C2345 1.391 . S
C2344 C2346 1.394 . S
C2344 H2360 0.931 . S
C2345 C2344 1.391 . S
C2345 C2349 1.376 . S
C2346 C2344 1.394 . S
C2346 C2347 1.369 . S
C2346 C2350 1.531 . S
C2347 C2346 1.369 . S
C2347 C2348 1.410 . S
C2347 C2355 1.503 . S
C2348 C2347 1.410 . S
C2348 C2349 1.392 . S
C2348 C2351 1.511 . S
C2349 C2345 1.376 . S
C2349 C2348 1.392 . S
C2349 H2361 0.929 . S
C2350 C2346 1.531 . S
C2350 H2362 0.960 . S
C2350 H2363 0.962 . S
C2350 H2364 0.960 . S
C2351 C2348 1.511 . S
C2351 H2365 0.961 . S
C2351 H2366 0.961 . S
C2351 H2367 0.961 . S
C2352 C2353 1.370 . S
C2352 C2354 1.363 . S
C2352 H2368 0.931 . S
C2353 C2352 1.370 . S
C2353 C2357 1.408 . S
C2354 C2352 1.363 . S
C2354 C2355 1.370 . S
C2354 C2358 1.524 . S
C2355 C2347 1.503 . S
C2355 C2354 1.370 . S
C2355 C2356 1.403 . S
C2356 C2355 1.403 . S
C2356 C2357 1.404 . S
C2356 C2359 1.539 . S
C2357 C2353 1.408 . S
C2357 C2356 1.404 . S
C2357 H2369 0.930 . S
C2358 C2354 1.524 . S
C2358 H2370 0.956 . S
C2358 H2371 0.961 . S
C2358 H2372 0.961 . S
C2359 C2356 1.539 . S
C2359 H2373 0.958 . S
C2359 H2374 0.961 . S
C2359 H2375 0.960 . S
H2360 C2344 0.931 . S
H2361 C2349 0.929 . S
H2362 C2350 0.960 . S
H2363 C2350 0.962 . S
H2364 C2350 0.960 . S
H2365 C2351 0.961 . S
H2366 C2351 0.961 . S
H2367 C2351 0.961 . S
H2368 C2352 0.931 . S
H2369 C2357 0.930 . S
H2370 C2358 0.956 . S
H2371 C2358 0.961 . S
H2372 C2358 0.961 . S
H2373 C2359 0.958 . S
H2374 C2359 0.961 . S
H2375 C2359 0.960 . S
C2376 C2377 1.391 . S
C2376 C2378 1.394 . S
C2376 H2392 0.931 . S
C2377 C2376 1.391 . S
C2377 C2381 1.376 . S
C2378 C2376 1.394 . S
C2378 C2379 1.369 . S
C2378 C2382 1.531 . S
C2379 C2378 1.369 . S
C2379 C2380 1.410 . S
C2379 C2387 1.503 . S
C2380 C2379 1.410 . S
C2380 C2381 1.392 . S
C2380 C2383 1.511 . S
C2381 C2377 1.376 . S
C2381 C2380 1.392 . S
C2381 H2393 0.929 . S
C2382 C2378 1.531 . S
C2382 H2394 0.960 . S
C2382 H2395 0.962 . S
C2382 H2396 0.960 . S
C2383 C2380 1.511 . S
C2383 H2397 0.961 . S
C2383 H2398 0.961 . S
C2383 H2399 0.961 . S
C2384 C2385 1.370 . S
C2384 C2386 1.363 . S
C2384 H2400 0.931 . S
C2385 C2384 1.370 . S
C2385 C2389 1.408 . S
C2386 C2384 1.363 . S
C2386 C2387 1.370 . S
C2386 C2390 1.524 . S
C2387 C2379 1.503 . S
C2387 C2386 1.370 . S
C2387 C2388 1.403 . S
C2388 C2387 1.403 . S
C2388 C2389 1.404 . S
C2388 C2391 1.539 . S
C2389 C2385 1.408 . S
C2389 C2388 1.404 . S
C2389 H2401 0.930 . S
C2390 C2386 1.524 . S
C2390 H2402 0.956 . S
C2390 H2403 0.961 . S
C2390 H2404 0.961 . S
C2391 C2388 1.539 . S
C2391 H2405 0.958 . S
C2391 H2406 0.961 . S
C2391 H2407 0.960 . S
H2392 C2376 0.931 . S
H2393 C2381 0.929 . S
H2394 C2382 0.960 . S
H2395 C2382 0.962 . S
H2396 C2382 0.960 . S
H2397 C2383 0.961 . S
H2398 C2383 0.961 . S
H2399 C2383 0.961 . S
H2400 C2384 0.931 . S
H2401 C2389 0.930 . S
H2402 C2390 0.956 . S
H2403 C2390 0.961 . S
H2404 C2390 0.961 . S
H2405 C2391 0.958 . S
H2406 C2391 0.961 . S
H2407 C2391 0.960 . S
C2408 C2409 1.391 . S
C2408 C2410 1.394 . S
C2408 H2424 0.931 . S
C2409 C2408 1.391 . S
C2409 C2413 1.376 . S
C2410 C2408 1.394 . S
C2410 C2411 1.369 . S
C2410 C2414 1.531 . S
C2411 C2410 1.369 . S
C2411 C2412 1.410 . S
C2411 C2419 1.503 . S
C2412 C2411 1.410 . S
C2412 C2413 1.392 . S
C2412 C2415 1.511 . S
C2413 C2409 1.376 . S
C2413 C2412 1.392 . S
C2413 H2425 0.929 . S
C2414 C2410 1.531 . S
C2414 H2426 0.960 . S
C2414 H2427 0.962 . S
C2414 H2428 0.960 . S
C2415 C2412 1.511 . S
C2415 H2429 0.961 . S
C2415 H2430 0.961 . S
C2415 H2431 0.961 . S
C2416 C2417 1.370 . S
C2416 C2418 1.363 . S
C2416 H2432 0.931 . S
C2417 C2416 1.370 . S
C2417 C2421 1.408 . S
C2418 C2416 1.363 . S
C2418 C2419 1.370 . S
C2418 C2422 1.524 . S
C2419 C2411 1.503 . S
C2419 C2418 1.370 . S
C2419 C2420 1.403 . S
C2420 C2419 1.403 . S
C2420 C2421 1.404 . S
C2420 C2423 1.539 . S
C2421 C2417 1.408 . S
C2421 C2420 1.404 . S
C2421 H2433 0.930 . S
C2422 C2418 1.524 . S
C2422 H2434 0.956 . S
C2422 H2435 0.961 . S
C2422 H2436 0.961 . S
C2423 C2420 1.539 . S
C2423 H2437 0.958 . S
C2423 H2438 0.961 . S
C2423 H2439 0.960 . S
H2424 C2408 0.931 . S
H2425 C2413 0.929 . S
H2426 C2414 0.960 . S
H2427 C2414 0.962 . S
H2428 C2414 0.960 . S
H2429 C2415 0.961 . S
H2430 C2415 0.961 . S
H2431 C2415 0.961 . S
H2432 C2416 0.931 . S
H2433 C2421 0.930 . S
H2434 C2422 0.956 . S
H2435 C2422 0.961 . S
H2436 C2422 0.961 . S
H2437 C2423 0.958 . S
H2438 C2423 0.961 . S
H2439 C2423 0.960 . S
C2440 C2441 1.391 . S
C2440 C2442 1.394 . S
C2440 H2456 0.931 . S
C2441 C2440 1.391 . S
C2441 C2445 1.376 . S
C2442 C2440 1.394 . S
C2442 C2443 1.369 . S
C2442 C2446 1.531 . S
C2443 C2442 1.369 . S
C2443 C2444 1.410 . S
C2443 C2451 1.503 . S
C2444 C2443 1.410 . S
C2444 C2445 1.392 . S
C2444 C2447 1.511 . S
C2445 C2441 1.376 . S
C2445 C2444 1.392 . S
C2445 H2457 0.929 . S
C2446 C2442 1.531 . S
C2446 H2458 0.960 . S
C2446 H2459 0.962 . S
C2446 H2460 0.960 . S
C2447 C2444 1.511 . S
C2447 H2461 0.961 . S
C2447 H2462 0.961 . S
C2447 H2463 0.961 . S
C2448 C2449 1.370 . S
C2448 C2450 1.363 . S
C2448 H2464 0.931 . S
C2449 C2448 1.370 . S
C2449 C2453 1.408 . S
C2450 C2448 1.363 . S
C2450 C2451 1.370 . S
C2450 C2454 1.524 . S
C2451 C2443 1.503 . S
C2451 C2450 1.370 . S
C2451 C2452 1.403 . S
C2452 C2451 1.403 . S
C2452 C2453 1.404 . S
C2452 C2455 1.539 . S
C2453 C2449 1.408 . S
C2453 C2452 1.404 . S
C2453 H2465 0.930 . S
C2454 C2450 1.524 . S
C2454 H2466 0.956 . S
C2454 H2467 0.961 . S
C2454 H2468 0.961 . S
C2455 C2452 1.539 . S
C2455 H2469 0.958 . S
C2455 H2470 0.961 . S
C2455 H2471 0.960 . S
H2456 C2440 0.931 . S
H2457 C2445 0.929 . S
H2458 C2446 0.960 . S
H2459 C2446 0.962 . S
H2460 C2446 0.960 . S
H2461 C2447 0.961 . S
H2462 C2447 0.961 . S
H2463 C2447 0.961 . S
H2464 C2448 0.931 . S
H2465 C2453 0.930 . S
H2466 C2454 0.956 . S
H2467 C2454 0.961 . S
H2468 C2454 0.961 . S
H2469 C2455 0.958 . S
H2470 C2455 0.961 . S
H2471 C2455 0.960 . S
C2472 C2473 1.391 . S
C2472 C2474 1.394 . S
C2472 H2488 0.931 . S
C2473 C2472 1.391 . S
C2473 C2477 1.376 . S
C2474 C2472 1.394 . S
C2474 C2475 1.369 . S
C2474 C2478 1.531 . S
C2475 C2474 1.369 . S
C2475 C2476 1.410 . S
C2475 C2483 1.503 . S
C2476 C2475 1.410 . S
C2476 C2477 1.392 . S
C2476 C2479 1.511 . S
C2477 C2473 1.376 . S
C2477 C2476 1.392 . S
C2477 H2489 0.929 . S
C2478 C2474 1.531 . S
C2478 H2490 0.960 . S
C2478 H2491 0.962 . S
C2478 H2492 0.960 . S
C2479 C2476 1.511 . S
C2479 H2493 0.961 . S
C2479 H2494 0.961 . S
C2479 H2495 0.961 . S
C2480 C2481 1.370 . S
C2480 C2482 1.363 . S
C2480 H2496 0.931 . S
C2481 C2480 1.370 . S
C2481 C2485 1.408 . S
C2482 C2480 1.363 . S
C2482 C2483 1.370 . S
C2482 C2486 1.524 . S
C2483 C2475 1.503 . S
C2483 C2482 1.370 . S
C2483 C2484 1.403 . S
C2484 C2483 1.403 . S
C2484 C2485 1.404 . S
C2484 C2487 1.539 . S
C2485 C2481 1.408 . S
C2485 C2484 1.404 . S
C2485 H2497 0.930 . S
C2486 C2482 1.524 . S
C2486 H2498 0.956 . S
C2486 H2499 0.961 . S
C2486 H2500 0.961 . S
C2487 C2484 1.539 . S
C2487 H2501 0.958 . S
C2487 H2502 0.961 . S
C2487 H2503 0.960 . S
H2488 C2472 0.931 . S
H2489 C2477 0.929 . S
H2490 C2478 0.960 . S
H2491 C2478 0.962 . S
H2492 C2478 0.960 . S
H2493 C2479 0.961 . S
H2494 C2479 0.961 . S
H2495 C2479 0.961 . S
H2496 C2480 0.931 . S
H2497 C2485 0.930 . S
H2498 C2486 0.956 . S
H2499 C2486 0.961 . S
H2500 C2486 0.961 . S
H2501 C2487 0.958 . S
H2502 C2487 0.961 . S
H2503 C2487 0.960 . S
C2504 C2505 1.391 . S
C2504 C2506 1.394 . S
C2504 H2520 0.931 . S
C2505 C2504 1.391 . S
C2505 C2509 1.376 . S
C2506 C2504 1.394 . S
C2506 C2507 1.369 . S
C2506 C2510 1.531 . S
C2507 C2506 1.369 . S
C2507 C2508 1.410 . S
C2507 C2515 1.503 . S
C2508 C2507 1.410 . S
C2508 C2509 1.392 . S
C2508 C2511 1.511 . S
C2509 C2505 1.376 . S
C2509 C2508 1.392 . S
C2509 H2521 0.929 . S
C2510 C2506 1.531 . S
C2510 H2522 0.960 . S
C2510 H2523 0.962 . S
C2510 H2524 0.960 . S
C2511 C2508 1.511 . S
C2511 H2525 0.961 . S
C2511 H2526 0.961 . S
C2511 H2527 0.961 . S
C2512 C2513 1.370 . S
C2512 C2514 1.363 . S
C2512 H2528 0.931 . S
C2513 C2512 1.370 . S
C2513 C2517 1.408 . S
C2514 C2512 1.363 . S
C2514 C2515 1.370 . S
C2514 C2518 1.524 . S
C2515 C2507 1.503 . S
C2515 C2514 1.370 . S
C2515 C2516 1.403 . S
C2516 C2515 1.403 . S
C2516 C2517 1.404 . S
C2516 C2519 1.539 . S
C2517 C2513 1.408 . S
C2517 C2516 1.404 . S
C2517 H2529 0.930 . S
C2518 C2514 1.524 . S
C2518 H2530 0.956 . S
C2518 H2531 0.961 . S
C2518 H2532 0.961 . S
C2519 C2516 1.539 . S
C2519 H2533 0.958 . S
C2519 H2534 0.961 . S
C2519 H2535 0.960 . S
H2520 C2504 0.931 . S
H2521 C2509 0.929 . S
H2522 C2510 0.960 . S
H2523 C2510 0.962 . S
H2524 C2510 0.960 . S
H2525 C2511 0.961 . S
H2526 C2511 0.961 . S
H2527 C2511 0.961 . S
H2528 C2512 0.931 . S
H2529 C2517 0.930 . S
H2530 C2518 0.956 . S
H2531 C2518 0.961 . S
H2532 C2518 0.961 . S
H2533 C2519 0.958 . S
H2534 C2519 0.961 . S
H2535 C2519 0.960 . S
C2536 C2537 1.391 . S
C2536 C2538 1.394 . S
C2536 H2552 0.931 . S
C2537 C2536 1.391 . S
C2537 C2541 1.376 . S
C2538 C2536 1.394 . S
C2538 C2539 1.369 . S
C2538 C2542 1.531 . S
C2539 C2538 1.369 . S
C2539 C2540 1.410 . S
C2539 C2547 1.503 . S
C2540 C2539 1.410 . S
C2540 C2541 1.392 . S
C2540 C2543 1.511 . S
C2541 C2537 1.376 . S
C2541 C2540 1.392 . S
C2541 H2553 0.929 . S
C2542 C2538 1.531 . S
C2542 H2554 0.960 . S
C2542 H2555 0.962 . S
C2542 H2556 0.960 . S
C2543 C2540 1.511 . S
C2543 H2557 0.961 . S
C2543 H2558 0.961 . S
C2543 H2559 0.961 . S
C2544 C2545 1.370 1_554 S
C2544 C2546 1.363 . S
C2544 H2560 0.931 . S
C2545 C2544 1.370 1_556 S
C2545 C2549 1.408 . S
C2546 C2544 1.363 . S
C2546 C2547 1.370 1_554 S
C2546 C2550 1.524 . S
C2547 C2539 1.503 . S
C2547 C2546 1.370 1_556 S
C2547 C2548 1.403 . S
C2548 C2547 1.403 . S
C2548 C2549 1.404 . S
C2548 C2551 1.539 . S
C2549 C2545 1.408 . S
C2549 C2548 1.404 . S
C2549 H2561 0.930 . S
C2550 C2546 1.524 . S
C2550 H2562 0.956 . S
C2550 H2563 0.961 . S
C2550 H2564 0.961 . S
C2551 C2548 1.539 . S
C2551 H2565 0.958 . S
C2551 H2566 0.961 . S
C2551 H2567 0.960 . S
H2552 C2536 0.931 . S
H2553 C2541 0.929 . S
H2554 C2542 0.960 . S
H2555 C2542 0.962 . S
H2556 C2542 0.960 . S
H2557 C2543 0.961 . S
H2558 C2543 0.961 . S
H2559 C2543 0.961 . S
H2560 C2544 0.931 . S
H2561 C2549 0.930 . S
H2562 C2550 0.956 . S
H2563 C2550 0.961 . S
H2564 C2550 0.961 . S
H2565 C2551 0.958 . S
H2566 C2551 0.961 . S
H2567 C2551 0.960 . S
C2568 C2569 1.391 . S
C2568 C2570 1.394 . S
C2568 H2584 0.931 . S
C2569 C2568 1.391 . S
C2569 C2573 1.376 . S
C2570 C2568 1.394 . S
C2570 C2571 1.369 . S
C2570 C2574 1.531 . S
C2571 C2570 1.369 . S
C2571 C2572 1.410 . S
C2571 C2579 1.503 . S
C2572 C2571 1.410 . S
C2572 C2573 1.392 . S
C2572 C2575 1.511 . S
C2573 C2569 1.376 . S
C2573 C2572 1.392 . S
C2573 H2585 0.929 . S
C2574 C2570 1.531 . S
C2574 H2586 0.960 . S
C2574 H2587 0.962 . S
C2574 H2588 0.960 . S
C2575 C2572 1.511 . S
C2575 H2589 0.961 . S
C2575 H2590 0.961 . S
C2575 H2591 0.961 . S
C2576 C2577 1.370 . S
C2576 C2578 1.363 . S
C2576 H2592 0.931 . S
C2577 C2576 1.370 . S
C2577 C2581 1.408 . S
C2578 C2576 1.363 . S
C2578 C2579 1.370 . S
C2578 C2582 1.524 . S
C2579 C2571 1.503 . S
C2579 C2578 1.370 . S
C2579 C2580 1.403 . S
C2580 C2579 1.403 . S
C2580 C2581 1.404 . S
C2580 C2583 1.539 . S
C2581 C2577 1.408 . S
C2581 C2580 1.404 . S
C2581 H2593 0.930 . S
C2582 C2578 1.524 . S
C2582 H2594 0.956 . S
C2582 H2595 0.961 . S
C2582 H2596 0.961 . S
C2583 C2580 1.539 . S
C2583 H2597 0.958 . S
C2583 H2598 0.961 . S
C2583 H2599 0.960 . S
H2584 C2568 0.931 . S
H2585 C2573 0.929 . S
H2586 C2574 0.960 . S
H2587 C2574 0.962 . S
H2588 C2574 0.960 . S
H2589 C2575 0.961 . S
H2590 C2575 0.961 . S
H2591 C2575 0.961 . S
H2592 C2576 0.931 . S
H2593 C2581 0.930 . S
H2594 C2582 0.956 . S
H2595 C2582 0.961 . S
H2596 C2582 0.961 . S
H2597 C2583 0.958 . S
H2598 C2583 0.961 . S
H2599 C2583 0.960 . S
C2600 C2601 1.391 . S
C2600 C2602 1.394 . S
C2600 H2616 0.931 . S
C2601 C2600 1.391 . S
C2601 C2605 1.376 . S
C2602 C2600 1.394 . S
C2602 C2603 1.369 . S
C2602 C2606 1.531 . S
C2603 C2602 1.369 . S
C2603 C2604 1.410 . S
C2603 C2611 1.503 . S
C2604 C2603 1.410 . S
C2604 C2605 1.392 . S
C2604 C2607 1.511 1_554 S
C2605 C2601 1.376 . S
C2605 C2604 1.392 . S
C2605 H2617 0.929 . S
C2606 C2602 1.531 . S
C2606 H2618 0.960 . S
C2606 H2619 0.962 . S
C2606 H2620 0.960 . S
C2607 C2604 1.511 1_556 S
C2607 H2621 0.961 . S
C2607 H2622 0.961 . S
C2607 H2623 0.961 . S
C2608 C2609 1.370 . S
C2608 C2610 1.363 . S
C2608 H2624 0.931 . S
C2609 C2608 1.370 . S
C2609 C2613 1.408 . S
C2610 C2608 1.363 . S
C2610 C2611 1.370 . S
C2610 C2614 1.524 . S
C2611 C2603 1.503 . S
C2611 C2610 1.370 . S
C2611 C2612 1.403 . S
C2612 C2611 1.403 . S
C2612 C2613 1.404 . S
C2612 C2615 1.539 . S
C2613 C2609 1.408 . S
C2613 C2612 1.404 . S
C2613 H2625 0.930 . S
C2614 C2610 1.524 . S
C2614 H2626 0.956 . S
C2614 H2627 0.961 . S
C2614 H2628 0.961 . S
C2615 C2612 1.539 . S
C2615 H2629 0.958 . S
C2615 H2630 0.961 . S
C2615 H2631 0.960 . S
H2616 C2600 0.931 . S
H2617 C2605 0.929 . S
H2618 C2606 0.960 . S
H2619 C2606 0.962 . S
H2620 C2606 0.960 . S
H2621 C2607 0.961 . S
H2622 C2607 0.961 . S
H2623 C2607 0.961 . S
H2624 C2608 0.931 . S
H2625 C2613 0.930 . S
H2626 C2614 0.956 . S
H2627 C2614 0.961 . S
H2628 C2614 0.961 . S
H2629 C2615 0.958 . S
H2630 C2615 0.961 . S
H2631 C2615 0.960 . S
C2632 C2633 1.391 . S
C2632 C2634 1.394 . S
C2632 H2648 0.931 . S
C2633 C2632 1.391 . S
C2633 C2637 1.376 . S
C2634 C2632 1.394 . S
C2634 C2635 1.369 . S
C2634 C2638 1.531 1_554 S
C2635 C2634 1.369 . S
C2635 C2636 1.410 . S
C2635 C2643 1.503 . S
C2636 C2635 1.410 . S
C2636 C2637 1.392 . S
C2636 C2639 1.511 . S
C2637 C2633 1.376 . S
C2637 C2636 1.392 . S
C2637 H2649 0.929 . S
C2638 C2634 1.531 1_556 S
C2638 H2650 0.960 . S
C2638 H2651 0.962 . S
C2638 H2652 0.960 . S
C2639 C2636 1.511 . S
C2639 H2653 0.961 . S
C2639 H2654 0.961 . S
C2639 H2655 0.961 . S
C2640 C2641 1.370 . S
C2640 C2642 1.363 . S
C2640 H2656 0.931 . S
C2641 C2640 1.370 . S
C2641 C2645 1.412 . S
C2642 C2640 1.363 . S
C2642 C2643 1.370 . S
C2642 C2646 1.524 . S
C2643 C2635 1.503 . S
C2643 C2642 1.370 . S
C2643 C2644 1.403 . S
C2644 C2643 1.403 . S
C2644 C2645 1.404 . S
C2644 C2647 1.539 1_554 S
C2645 C2641 1.412 . S
C2645 C2644 1.404 . S
C2645 H2657 0.926 1_554 S
C2646 C2642 1.524 . S
C2646 H2658 0.956 . S
C2646 H2659 0.961 . S
C2646 H2660 0.961 . S
C2647 C2644 1.539 1_556 S
C2647 H2661 0.958 . S
C2647 H2662 0.961 . S
C2647 H2663 0.960 . S
H2648 C2632 0.931 . S
H2649 C2637 0.929 . S
H2650 C2638 0.960 . S
H2651 C2638 0.962 . S
H2652 C2638 0.960 . S
H2653 C2639 0.961 . S
H2654 C2639 0.961 . S
H2655 C2639 0.961 . S
H2656 C2640 0.931 . S
H2657 C2645 0.926 1_556 S
H2658 C2646 0.956 . S
H2659 C2646 0.961 . S
H2660 C2646 0.961 . S
H2661 C2647 0.958 . S
H2662 C2647 0.961 . S
H2663 C2647 0.960 . S
C1137 C968 1.495 . S
C1129 C331 1.498 . S
C1169 C981 1.476 . S
C1161 C380 1.461 . S
C1193 C421 1.654 . S
C1201 C1001 1.528 . S
C1233 C1015 1.366 . S
C1225 C260 1.438 1_655 S
C1265 C1027 1.516 . S
C1257 C620 1.479 . S
C1297 C1041 1.427 . S
C1289 C740 1.389 . S
C1321 C680 1.451 . S
C1329 C1051 1.476 . S
C1361 C1066 1.519 . S
C1353 C571 1.519 . S
C1385 C691 1.511 . S
C1393 C1080 1.483 . S
C1425 C1099 1.357 . S
C1417 C541 1.392 . S
C1449 C601 1.437 . S
C1457 C1079 1.488 . S
C1489 C1097 1.424 . S
C1481 C721 1.406 . S
C1513 C451 1.652 . S
C1521 C1113 1.536 . S
C1545 C241 1.471 . S
C1553 C1107 1.478 . S
C1577 C320 1.507 . S
C1585 C1111 1.518 . S
C1609 C391 1.478 . S
C1617 C1108 1.513 . S
C1641 C211 1.511 . S
C1649 C1010 1.500 . S
C1673 C841 1.441 . S
C1681 C1009 1.487 . S
C1713 C973 1.356 . S
C1705 C901 1.422 . S
C1745 C987 1.552 . S
C1737 C500 1.639 . S
C1769 C271 1.515 1_545 S
C1777 C1024 1.509 . S
C1809 C1069 1.511 . S
C1801 C661 1.501 . S
C1841 C1023 1.484 . S
C1833 C560 1.468 . S
C1873 C1055 1.420 . S
C1865 C751 1.419 . S
C1905 C1052 1.500 . S
C1897 C871 1.512 . S
C1929 C920 1.469 . S
C1937 C1065 1.476 . S
C1961 C481 1.636 . S
C1969 C1029 1.554 . S
C2001 C1043 1.356 . S
C1993 C800 1.435 . S
C2025 C200 1.469 . S
C2033 C999 1.514 . S
C2065 C1013 1.426 . S
C2057 C20 1.386 . S
C2097 C967 1.487 . S
C2089 C80 1.484 . S
C2129 C982 1.501 . S
C2121 C151 1.494 . S
C2153 C91 1.500 . S
C2161 C1094 1.484 . S
C2185 C121 1.450 . S
C2193 C1085 1.379 . S
C2217 C181 1.482 . S
C2225 C1093 1.477 . S
C2249 C1 1.385 . S
C2257 C1083 1.427 . S
C2289 C1127 1.552 . S
C2281 C511 1.638 . S
C2321 C1121 1.478 . S
C2313 C781 1.470 . S
C2353 C1125 1.511 . S
C2345 C860 1.475 . S
C2377 C931 1.525 . S
C2385 C1122 1.516 . S
C2409 C631 1.473 . S
C2417 C1038 1.483 . S
C2449 C1037 1.483 . S
C2441 C301 1.456 . S
C2481 C1057 1.382 . S
C2473 C361 1.430 . S
C2513 C1071 1.525 . S
C2505 C440 1.644 . S
C2537 C811 1.536 . S
C2545 C996 1.500 . S
C2577 C985 1.515 . S
C2569 C61 1.479 . S
C2601 C140 1.429 . S
C2609 C995 1.483 . S
C2641 C971 1.427 . S
C2633 C31 1.388 . S
