# Generated by pormake.
# Topology nom, (4,4)-cn, num edge types: 1
# Building blocks:
#     Node 0, Type 0, BuildingBlock: MUDLON_clean_linker_0, # of connection points: 4
#     Node 1, Type 0, BuildingBlock: MUDLON_clean_linker_0, # of connection points: 4
#     Node 2, Type 0, BuildingBlock: MUDLON_clean_linker_0, # of connection points: 4
#     Node 3, Type 0, BuildingBlock: MUDLON_clean_linker_0, # of connection points: 4
#     Node 4, Type 0, BuildingBlock: MUDLON_clean_linker_0, # of connection points: 4
#     Node 5, Type 0, BuildingBlock: MUDLON_clean_linker_0, # of connection points: 4
#     Node 6, Type 1, BuildingBlock: NAHDIM_clean_sbu_0, # of connection points: 4
#     Node 7, Type 1, BuildingBlock: NAHDIM_clean_sbu_0, # of connection points: 4
#     Node 8, Type 1, BuildingBlock: NAHDIM_clean_sbu_0, # of connection points: 4
#     Node 9, Type 1, BuildingBlock: NAHDIM_clean_sbu_0, # of connection points: 4
#     Node 10, Type 1, BuildingBlock: NAHDIM_clean_sbu_0, # of connection points: 4
#     Node 11, Type 1, BuildingBlock: NAHDIM_clean_sbu_0, # of connection points: 4
#     Edge 12, Type (0, 1), BuildingBlock: ZUJKAS_clean_linker_0, # of connection points: 2
#     Edge 13, Type (0, 1), BuildingBlock: ZUJKAS_clean_linker_0, # of connection points: 2
#     Edge 14, Type (0, 1), BuildingBlock: ZUJKAS_clean_linker_0, # of connection points: 2
#     Edge 15, Type (0, 1), BuildingBlock: ZUJKAS_clean_linker_0, # of connection points: 2
#     Edge 16, Type (0, 1), BuildingBlock: ZUJKAS_clean_linker_0, # of connection points: 2
#     Edge 17, Type (0, 1), BuildingBlock: ZUJKAS_clean_linker_0, # of connection points: 2
#     Edge 18, Type (0, 1), BuildingBlock: ZUJKAS_clean_linker_0, # of connection points: 2
#     Edge 19, Type (0, 1), BuildingBlock: ZUJKAS_clean_linker_0, # of connection points: 2
#     Edge 20, Type (0, 1), BuildingBlock: ZUJKAS_clean_linker_0, # of connection points: 2
#     Edge 21, Type (0, 1), BuildingBlock: ZUJKAS_clean_linker_0, # of connection points: 2
#     Edge 22, Type (0, 1), BuildingBlock: ZUJKAS_clean_linker_0, # of connection points: 2
#     Edge 23, Type (0, 1), BuildingBlock: ZUJKAS_clean_linker_0, # of connection points: 2
#     Edge 24, Type (0, 1), BuildingBlock: ZUJKAS_clean_linker_0, # of connection points: 2
#     Edge 25, Type (0, 1), BuildingBlock: ZUJKAS_clean_linker_0, # of connection points: 2
#     Edge 26, Type (0, 1), BuildingBlock: ZUJKAS_clean_linker_0, # of connection points: 2
#     Edge 27, Type (0, 1), BuildingBlock: ZUJKAS_clean_linker_0, # of connection points: 2
#     Edge 28, Type (0, 1), BuildingBlock: ZUJKAS_clean_linker_0, # of connection points: 2
#     Edge 29, Type (0, 1), BuildingBlock: ZUJKAS_clean_linker_0, # of connection points: 2
#     Edge 30, Type (0, 1), BuildingBlock: ZUJKAS_clean_linker_0, # of connection points: 2
#     Edge 31, Type (0, 1), BuildingBlock: ZUJKAS_clean_linker_0, # of connection points: 2
#     Edge 32, Type (0, 1), BuildingBlock: ZUJKAS_clean_linker_0, # of connection points: 2
#     Edge 33, Type (0, 1), BuildingBlock: ZUJKAS_clean_linker_0, # of connection points: 2
#     Edge 34, Type (0, 1), BuildingBlock: ZUJKAS_clean_linker_0, # of connection points: 2
#     Edge 35, Type (0, 1), BuildingBlock: ZUJKAS_clean_linker_0, # of connection points: 2
# Relax obj value: 0.024
# Max RMSD: 0.121
# Mean RMSD: 0.106
data_MOF--net-nom--node1-NAHDIM_clean_sbu_0--node2-MUDLON_clean_linker_0--edge1-ZUJKAS_clean_linker_0
_symmetry_space_group_name_H-M    P1
_symmetry_Int_Tables_number       1
_symmetry_cell_setting            triclinic
loop_
_symmetry_equiv_pos_as_xyz
'x, y, z'
_cell_length_a     72.717237
_cell_length_b     75.492451
_cell_length_c     74.122125
_cell_angle_alpha  90.302069
_cell_angle_beta   90.359689
_cell_angle_gamma 121.24711
loop_
_atom_site_label
_atom_site_type_symbol
_atom_site_fract_x
_atom_site_fract_y
_atom_site_fract_z
_atom_type_partial_charge
H0 H 0.11123 0.53306 0.31003 0.0
N1 N 0.08285 0.53845 0.3275 0.0
H2 H 0.1398 0.55758 0.2902 0.0
H3 H 0.08754 0.57463 0.31491 0.0
H4 H 0.11646 0.5996 0.29561 0.0
H5 H 0.09182 0.57312 0.34679 0.0
H6 H 0.10807 0.58274 0.37687 0.0
H7 H 0.09101 0.51572 0.3495 0.0
H8 H 0.10756 0.52532 0.37961 0.0
H9 H 0.05776 0.50092 0.31375 0.0
H10 H 0.05683 0.55417 0.33364 0.0
H11 H 0.01887 0.48264 0.30857 0.0
H12 H 0.01786 0.53595 0.32874 0.0
H13 H 0.91799 0.43032 0.28245 0.0
H14 H 0.90351 0.4241 0.25159 0.0
H15 H 0.90209 0.48056 0.25452 0.0
H16 H 0.91631 0.4865 0.2853 0.0
H17 H 0.92088 0.49286 0.31763 0.0
H18 H 0.89068 0.48986 0.33464 0.0
H19 H 0.86288 0.42361 0.3376 0.0
H20 H 0.89286 0.42676 0.32015 0.0
H21 H 0.9478 0.44769 0.32096 0.0
H22 H 0.98656 0.46755 0.32699 0.0
H23 H 0.99023 0.52187 0.30425 0.0
N24 N 0.92423 0.46046 0.30493 0.0
H25 H 0.9514 0.50193 0.29853 0.0
C26 C 0.09741 0.55205 0.31403 0.0
C27 C 0.11208 0.5474 0.30662 0.0
C28 C 0.12848 0.56151 0.29544 0.0
C29 C 0.13062 0.5807 0.29156 0.0
C30 C 0.11521 0.58492 0.29828 0.0
C31 C 0.09872 0.5707 0.30942 0.0
C32 C 0.09024 0.54364 0.3459 0.0
C33 C 0.09487 0.56245 0.35393 0.0
C34 C 0.10432 0.56801 0.37111 0.0
C35 C 0.10924 0.55486 0.38058 0.0
C36 C 0.10379 0.53571 0.37276 0.0
C37 C 0.09441 0.53021 0.35557 0.0
C38 C 0.06015 0.52879 0.32407 0.0
C39 C 0.04911 0.50864 0.31695 0.0
C40 C 0.02691 0.49821 0.31414 0.0
C41 C 0.01525 0.50778 0.31841 0.0
C42 C 0.02642 0.52821 0.32523 0.0
C43 C 0.04871 0.53863 0.32808 0.0
C44 C 0.91815 0.45874 0.28619 0.0
C45 C 0.91485 0.44148 0.27627 0.0
C46 C 0.90666 0.43801 0.25866 0.0
C47 C 0.90153 0.45179 0.25067 0.0
C48 C 0.90562 0.46953 0.26041 0.0
C49 C 0.9139 0.47302 0.27799 0.0
C50 C 0.90896 0.45992 0.31751 0.0
C51 C 0.90848 0.47775 0.32218 0.0
C52 C 0.89124 0.47602 0.33199 0.0
C53 C 0.87423 0.45645 0.33725 0.0
C54 C 0.87551 0.43885 0.33345 0.0
C55 C 0.89268 0.44061 0.32365 0.0
C56 C 0.94674 0.47323 0.30929 0.0
C57 C 0.95699 0.46393 0.31745 0.0
C58 C 0.97912 0.47526 0.32074 0.0
C59 C 0.99151 0.49624 0.31591 0.0
C60 C 0.9811 0.50577 0.30821 0.0
C61 C 0.95889 0.49436 0.30489 0.0
H62 H 0.49511 0.91267 0.48606 0.0
N63 N 0.49121 0.94127 0.469 0.0
H64 H 0.46849 0.88491 0.50503 0.0
H65 H 0.45405 0.93793 0.48148 0.0
H66 H 0.42742 0.91038 0.50056 0.0
H67 H 0.45498 0.93156 0.44949 0.0
H68 H 0.44507 0.91493 0.41986 0.0
H69 H 0.51546 0.93401 0.44728 0.0
H70 H 0.50585 0.91766 0.41729 0.0
H71 H 0.52968 0.96632 0.4833 0.0
H72 H 0.47427 0.96559 0.46142 0.0
H73 H 0.54769 0.00373 0.48813 0.0
H74 H 0.49173 0.00284 0.4668 0.0
H75 H 0.60526 0.12184 0.50467 0.0
H76 H 0.60985 0.13772 0.53451 0.0
H77 H 0.54096 0.10205 0.54178 0.0
H78 H 0.53657 0.08657 0.51182 0.0
H79 H 0.53296 0.09829 0.48294 0.0
H80 H 0.53116 0.12465 0.46527 0.0
H81 H 0.59613 0.1481 0.4472 0.0
H82 H 0.59772 0.12166 0.46491 0.0
H83 H 0.56724 0.06649 0.51008 0.0
H84 H 0.5469 0.02915 0.5064 0.0
H85 H 0.521 0.0353 0.45583 0.0
N86 N 0.56864 0.09527 0.48783 0.0
H87 H 0.54061 0.07256 0.45973 0.0
C88 C 0.47662 0.92731 0.48231 0.0
C89 C 0.48056 0.91248 0.48952 0.0
C90 C 0.46535 0.89668 0.5004 0.0
C91 C 0.44577 0.89538 0.50424 0.0
C92 C 0.44224 0.91083 0.49766 0.0
C93 C 0.45754 0.92668 0.48681 0.0
C94 C 0.48602 0.93398 0.45062 0.0
C95 C 0.46636 0.92895 0.44248 0.0
C96 C 0.46072 0.91947 0.42545 0.0
C97 C 0.47461 0.91483 0.41626 0.0
C98 C 0.49466 0.92073 0.42414 0.0
C99 C 0.50026 0.9302 0.44116 0.0
C100 C 0.50068 0.96315 0.47214 0.0
C101 C 0.52133 0.97425 0.47976 0.0
C102 C 0.53151 0.9956 0.4826 0.0
C103 C 0.52111 0.00633 0.47797 0.0
C104 C 0.50028 0.99512 0.47037 0.0
C105 C 0.49016 0.97372 0.46743 0.0
C106 C 0.57068 0.10309 0.50603 0.0
C107 C 0.59122 0.11737 0.51281 0.0
C108 C 0.59378 0.12632 0.52988 0.0
C109 C 0.57576 0.12115 0.54054 0.0
C110 C 0.55514 0.10658 0.53382 0.0
C111 C 0.5526 0.09766 0.51672 0.0
C112 C 0.5656 0.10813 0.47529 0.0
C113 C 0.54668 0.10893 0.47499 0.0
C114 C 0.5457 0.12402 0.46491 0.0
C115 C 0.56355 0.13856 0.45493 0.0
C116 C 0.582 0.137 0.45455 0.0
C117 C 0.58299 0.12196 0.46467 0.0
C118 C 0.55492 0.07286 0.48579 0.0
C119 C 0.55672 0.05993 0.49842 0.0
C120 C 0.54529 0.03845 0.49616 0.0
C121 C 0.53219 0.02915 0.48085 0.0
C122 C 0.53051 0.0419 0.46802 0.0
C123 C 0.54185 0.06345 0.47034 0.0
H124 H 0.50505 0.61288 0.64295 0.0
N125 N 0.49704 0.57768 0.65758 0.0
H126 H 0.48166 0.61818 0.62268 0.0
H127 H 0.46015 0.54697 0.64107 0.0
H128 H 0.43642 0.55211 0.62132 0.0
H129 H 0.45864 0.55029 0.67328 0.0
H130 H 0.44639 0.5544 0.70263 0.0
H131 H 0.52015 0.60588 0.68269 0.0
H132 H 0.50829 0.60983 0.7125 0.0
H133 H 0.53691 0.5914 0.64734 0.0
H134 H 0.47755 0.53542 0.66007 0.0
H135 H 0.55397 0.57133 0.64173 0.0
H136 H 0.49404 0.51499 0.6536 0.0
H137 H 0.60471 0.50911 0.61494 0.0
H138 H 0.60619 0.49669 0.58463 0.0
H139 H 0.53684 0.45902 0.58309 0.0
H140 H 0.53547 0.47206 0.61315 0.0
H141 H 0.53647 0.45848 0.64109 0.0
H142 H 0.53809 0.43241 0.65914 0.0
H143 H 0.60301 0.47803 0.67574 0.0
H144 H 0.60143 0.50392 0.65709 0.0
H145 H 0.57393 0.52998 0.61653 0.0
H146 H 0.55482 0.54815 0.62104 0.0
H147 H 0.5198 0.50723 0.66495 0.0
N148 N 0.57003 0.49786 0.63464 0.0
H149 H 0.53807 0.48849 0.65993 0.0
C150 C 0.48438 0.57964 0.64361 0.0
C151 C 0.49029 0.59955 0.63793 0.0
C152 C 0.47682 0.60253 0.6265 0.0
C153 C 0.45702 0.58558 0.62058 0.0
C154 C 0.45161 0.56548 0.62553 0.0
C155 C 0.46517 0.56253 0.63694 0.0
C156 C 0.49034 0.57794 0.67575 0.0
C157 C 0.4697 0.56316 0.68181 0.0
C158 C 0.46272 0.56549 0.6987 0.0
C159 C 0.47628 0.58257 0.70988 0.0
C160 C 0.49729 0.59672 0.70409 0.0
C161 C 0.50419 0.59442 0.68718 0.0
C162 C 0.50601 0.56497 0.65391 0.0
C163 C 0.52751 0.57471 0.64867 0.0
C164 C 0.53714 0.56316 0.64534 0.0
C165 C 0.52534 0.54145 0.64702 0.0
C166 C 0.50368 0.53167 0.65231 0.0
C167 C 0.49412 0.54333 0.65582 0.0
C168 C 0.57009 0.49134 0.61633 0.0
C169 C 0.58986 0.49839 0.60793 0.0
C170 C 0.59066 0.49133 0.59067 0.0
C171 C 0.57162 0.47684 0.58163 0.0
C172 C 0.55173 0.47005 0.58989 0.0
C173 C 0.55094 0.47741 0.60705 0.0
C174 C 0.56897 0.48319 0.64765 0.0
C175 C 0.55097 0.46296 0.64874 0.0
C176 C 0.55186 0.44808 0.65923 0.0
C177 C 0.57076 0.45309 0.66877 0.0
C178 C 0.58833 0.4736 0.66834 0.0
C179 C 0.58741 0.48845 0.65786 0.0
C180 C 0.55738 0.50746 0.63748 0.0
C181 C 0.56185 0.52464 0.62694 0.0
C182 C 0.55106 0.53521 0.62969 0.0
C183 C 0.53579 0.52926 0.64343 0.0
C184 C 0.53118 0.51205 0.65403 0.0
C185 C 0.54182 0.50127 0.65113 0.0
H186 H 0.09954 0.58559 0.82549 0.0
N187 N 0.08075 0.5583 0.79875 0.0
H188 H 0.12788 0.5892 0.84603 0.0
H189 H 0.09433 0.53074 0.80215 0.0
H190 H 0.12272 0.53436 0.82232 0.0
H191 H 0.0737 0.52758 0.7749 0.0
H192 H 0.09006 0.53245 0.74508 0.0
H193 H 0.1051 0.59373 0.78187 0.0
H194 H 0.12161 0.59883 0.75224 0.0
H195 H 0.0524 0.56948 0.79236 0.0
H196 H 0.05734 0.51788 0.8103 0.0
H197 H 0.01356 0.54919 0.79646 0.0
H198 H 0.01877 0.49791 0.81561 0.0
H199 H 0.89706 0.48866 0.83669 0.0
H200 H 0.88271 0.47939 0.86719 0.0
H201 H 0.91765 0.44794 0.87509 0.0
H202 H 0.93174 0.45718 0.84441 0.0
H203 H 0.90945 0.43685 0.81847 0.0
H204 H 0.88071 0.41004 0.79967 0.0
H205 H 0.87173 0.4565 0.77433 0.0
H206 H 0.90089 0.4833 0.793 0.0
H207 H 0.94943 0.51799 0.82394 0.0
H208 H 0.98815 0.53697 0.81916 0.0
H209 H 0.98412 0.47996 0.80275 0.0
N210 N 0.92179 0.47786 0.81977 0.0
H211 H 0.94568 0.46101 0.80872 0.0
C212 C 0.09487 0.558 0.81231 0.0
C213 C 0.10425 0.57413 0.82506 0.0
C214 C 0.1205 0.57623 0.83665 0.0
C215 C 0.12767 0.56217 0.83568 0.0
C216 C 0.11744 0.54535 0.82353 0.0
C217 C 0.10123 0.5433 0.81191 0.0
C218 C 0.08829 0.56039 0.78054 0.0
C219 C 0.08396 0.54314 0.76992 0.0
C220 C 0.09338 0.54595 0.75294 0.0
C221 C 0.10713 0.56603 0.7463 0.0
C222 C 0.11085 0.58317 0.75681 0.0
C223 C 0.10154 0.58032 0.77375 0.0
C224 C 0.05787 0.54545 0.80128 0.0
C225 C 0.04507 0.55382 0.79737 0.0
C226 C 0.02289 0.54222 0.79989 0.0
C227 C 0.01293 0.52195 0.80669 0.0
C228 C 0.02577 0.51338 0.81025 0.0
C229 C 0.04799 0.52493 0.8074 0.0
C230 C 0.91537 0.47363 0.83833 0.0
C231 C 0.9018 0.48001 0.84513 0.0
C232 C 0.89373 0.47476 0.86257 0.0
C233 C 0.89906 0.46293 0.87358 0.0
C234 C 0.91309 0.45689 0.86687 0.0
C235 C 0.92122 0.46223 0.84939 0.0
C236 C 0.90729 0.46215 0.80712 0.0
C237 C 0.90164 0.44136 0.80862 0.0
C238 C 0.88507 0.42599 0.79793 0.0
C239 C 0.87377 0.43108 0.78561 0.0
C240 C 0.88022 0.45204 0.78353 0.0
C241 C 0.89682 0.46738 0.7942 0.0
C242 C 0.94455 0.48821 0.81645 0.0
C243 C 0.95698 0.50964 0.81933 0.0
C244 C 0.9791 0.52046 0.81642 0.0
C245 C 0.98936 0.51011 0.81028 0.0
C246 C 0.97688 0.48848 0.8076 0.0
C247 C 0.95473 0.47759 0.81083 0.0
H248 H 0.51329 0.11758 0.98929 0.0
N249 N 0.51419 0.08628 0.97404 0.0
H250 H 0.54142 0.14573 0.00753 0.0
H251 H 0.55029 0.08783 0.98756 0.0
H252 H 0.57826 0.11557 0.00626 0.0
H253 H 0.55076 0.09776 0.95492 0.0
H254 H 0.55903 0.11285 0.92495 0.0
H255 H 0.48787 0.09016 0.95165 0.0
H256 H 0.49572 0.10471 0.92125 0.0
H257 H 0.4778 0.06167 0.99097 0.0
H258 H 0.53019 0.0618 0.96399 0.0
H259 H 0.46036 0.02431 0.9956 0.0
H260 H 0.51278 0.02442 0.96834 0.0
H261 H 0.40804 0.92424 0.01674 0.0
H262 H 0.40372 0.91039 0.04728 0.0
H263 H 0.4659 0.91618 0.04364 0.0
H264 H 0.46992 0.92972 0.0132 0.0
H265 H 0.47284 0.92947 0.98152 0.0
H266 H 0.46872 0.90017 0.96392 0.0
H267 H 0.40041 0.87588 0.9591 0.0
H268 H 0.40464 0.90483 0.9774 0.0
H269 H 0.42359 0.9556 0.98205 0.0
H270 H 0.44247 0.99295 0.9768 0.0
H271 H 0.50248 0.99814 0.99232 0.0
N272 N 0.43991 0.9337 0.99411 0.0
H273 H 0.48347 0.96077 0.99729 0.0
C274 C 0.52959 0.10062 0.98707 0.0
C275 C 0.52726 0.11688 0.99328 0.0
C276 C 0.54334 0.1329 0.00377 0.0
C277 C 0.56219 0.13298 0.00834 0.0
C278 C 0.56409 0.11614 0.00278 0.0
C279 C 0.54798 0.10013 0.9922 0.0
C280 C 0.51867 0.09297 0.95558 0.0
C281 C 0.53856 0.09898 0.94762 0.0
C282 C 0.54323 0.10754 0.93038 0.0
C283 C 0.5281 0.11015 0.92071 0.0
C284 C 0.50789 0.10328 0.92844 0.0
C285 C 0.50328 0.09481 0.94571 0.0
C286 C 0.50518 0.06451 0.97715 0.0
C287 C 0.48554 0.0536 0.98611 0.0
C288 C 0.47556 0.03227 0.98861 0.0
C289 C 0.4851 0.02137 0.98218 0.0
C290 C 0.50509 0.0324 0.97353 0.0
C291 C 0.51504 0.05379 0.97098 0.0
C292 C 0.43918 0.92795 0.01268 0.0
C293 C 0.42084 0.9228 0.0227 0.0
C294 C 0.41845 0.91497 0.04013 0.0
C295 C 0.43442 0.91208 0.04781 0.0
C296 C 0.45319 0.91798 0.03798 0.0
C297 C 0.45558 0.92587 0.02058 0.0
C298 C 0.43892 0.91914 0.98096 0.0
C299 C 0.45704 0.91801 0.97651 0.0
C300 C 0.45467 0.90126 0.96631 0.0
C301 C 0.43417 0.88546 0.96035 0.0
C302 C 0.41635 0.8875 0.96383 0.0
C303 C 0.41874 0.90412 0.9741 0.0
C304 C 0.45204 0.95541 0.99003 0.0
C305 C 0.44084 0.96482 0.98413 0.0
C306 C 0.45163 0.98615 0.9813 0.0
C307 C 0.47395 0.99854 0.98432 0.0
C308 C 0.4853 0.98899 0.98977 0.0
C309 C 0.47443 0.96759 0.99265 0.0
H310 H 0.51247 0.41787 0.14282 0.0
N311 N 0.51611 0.45274 0.15445 0.0
H312 H 0.53789 0.41399 0.12444 0.0
H313 H 0.5503 0.48408 0.13629 0.0
H314 H 0.57557 0.48038 0.11748 0.0
H315 H 0.55578 0.47946 0.1694 0.0
H316 H 0.56795 0.47735 0.19965 0.0
H317 H 0.49247 0.42775 0.18084 0.0
H318 H 0.50454 0.42569 0.21133 0.0
H319 H 0.47781 0.43952 0.1398 0.0
H320 H 0.53431 0.49456 0.16015 0.0
H321 H 0.46049 0.45945 0.1342 0.0
H322 H 0.51704 0.51457 0.15488 0.0
H323 H 0.41154 0.50786 0.10798 0.0
H324 H 0.40759 0.51678 0.07703 0.0
H325 H 0.46696 0.57576 0.08339 0.0
H326 H 0.47107 0.56644 0.11383 0.0
H327 H 0.47737 0.56651 0.14565 0.0
H328 H 0.47645 0.59305 0.16403 0.0
H329 H 0.40713 0.55512 0.16573 0.0
H330 H 0.40821 0.52877 0.14721 0.0
H331 H 0.42694 0.49466 0.14692 0.0
H332 H 0.44579 0.47614 0.15244 0.0
H333 H 0.50383 0.52759 0.13055 0.0
N334 N 0.44221 0.53128 0.13182 0.0
H335 H 0.48493 0.54606 0.12534 0.0
C336 C 0.5294 0.45115 0.14096 0.0
C337 C 0.52595 0.43151 0.13696 0.0
C338 C 0.54049 0.42935 0.12638 0.0
C339 C 0.55888 0.4469 0.11952 0.0
C340 C 0.56174 0.46657 0.12276 0.0
C341 C 0.54716 0.4687 0.13341 0.0
C342 C 0.52318 0.45353 0.1728 0.0
C343 C 0.54441 0.46779 0.17846 0.0
C344 C 0.55139 0.46655 0.19575 0.0
C345 C 0.53723 0.45126 0.20777 0.0
C346 C 0.51576 0.4377 0.20238 0.0
C347 C 0.50886 0.43881 0.18501 0.0
C348 C 0.50723 0.46546 0.1504 0.0
C349 C 0.48648 0.45593 0.14297 0.0
C350 C 0.47658 0.46731 0.13993 0.0
C351 C 0.48731 0.48856 0.14428 0.0
C352 C 0.5084 0.49826 0.1513 0.0
C353 C 0.51828 0.48681 0.15438 0.0
C354 C 0.44145 0.53643 0.11325 0.0
C355 C 0.4238 0.52257 0.10252 0.0
C356 C 0.42151 0.52778 0.08493 0.0
C357 C 0.43688 0.54707 0.07775 0.0
C358 C 0.45494 0.56068 0.08837 0.0
C359 C 0.45725 0.5554 0.10592 0.0
C360 C 0.44275 0.54567 0.14495 0.0
C361 C 0.46201 0.56374 0.15018 0.0
C362 C 0.46147 0.57894 0.16066 0.0
C363 C 0.44172 0.57621 0.16625 0.0
C364 C 0.42262 0.55761 0.16181 0.0
C365 C 0.42317 0.54256 0.15121 0.0
C366 C 0.45442 0.52164 0.13573 0.0
C367 C 0.44377 0.50195 0.14346 0.0
C368 C 0.45453 0.49137 0.14645 0.0
C369 C 0.47627 0.50032 0.14176 0.0
C370 C 0.48713 0.52033 0.13441 0.0
C371 C 0.4763 0.53091 0.13138 0.0
C372 C 0.61241 0.34116 0.40893 0.0
O373 O 0.62575 0.35508 0.42069 0.0
O374 O 0.65179 0.39063 0.38885 0.0
Zn375 Zn 0.62002 0.37803 0.3927 0.0
O376 O 0.61452 0.38929 0.41549 0.0
C377 C 0.6128 0.40332 0.36873 0.0
O378 O 0.62559 0.41759 0.38051 0.0
O379 O 0.60683 0.34722 0.3951 0.0
C380 C 0.59842 0.39154 0.41688 0.0
O381 O 0.58495 0.38637 0.40321 0.0
C382 C 0.66663 0.40661 0.39697 0.0
O383 O 0.66152 0.4161 0.40904 0.0
O384 O 0.60781 0.38468 0.37109 0.0
C385 C 0.28655 0.69099 0.55636 0.0
O386 O 0.26762 0.6819 0.54831 0.0
O387 O 0.29512 0.63877 0.56835 0.0
Zn388 Zn 0.27442 0.64884 0.56551 0.0
O389 O 0.25679 0.63798 0.54258 0.0
C390 C 0.25035 0.6245 0.59627 0.0
O391 O 0.25961 0.61397 0.59232 0.0
O392 O 0.29238 0.67999 0.56464 0.0
C393 C 0.23983 0.62011 0.54183 0.0
O394 O 0.23418 0.60819 0.55608 0.0
C395 C 0.29546 0.62483 0.5589 0.0
O396 O 0.28106 0.61533 0.54601 0.0
O397 O 0.25446 0.6401 0.58679 0.0
C398 C 0.60107 0.28698 0.7146 0.0
O399 O 0.60507 0.27911 0.70037 0.0
O400 O 0.64652 0.27902 0.73749 0.0
Zn401 Zn 0.61444 0.26203 0.73335 0.0
O402 O 0.60736 0.24388 0.71114 0.0
C403 C 0.60629 0.23136 0.75975 0.0
O404 O 0.62115 0.23053 0.75048 0.0
O405 O 0.60358 0.28164 0.73023 0.0
C406 C 0.61957 0.23767 0.70552 0.0
O407 O 0.63748 0.24316 0.71436 0.0
C408 C 0.65909 0.291 0.72541 0.0
O409 O 0.65097 0.29207 0.70986 0.0
O410 O 0.60056 0.24396 0.75498 0.0
C411 C 0.38861 0.68374 0.91049 0.0
O412 O 0.37254 0.66928 0.91978 0.0
O413 O 0.35162 0.63545 0.89068 0.0
Zn414 Zn 0.38347 0.6476 0.89417 0.0
O415 O 0.38896 0.63494 0.9159 0.0
C416 C 0.38896 0.62336 0.86737 0.0
O417 O 0.37456 0.60826 0.87737 0.0
O418 O 0.39695 0.67832 0.89828 0.0
C419 C 0.40486 0.63232 0.91662 0.0
O420 O 0.41819 0.63824 0.903 0.0
C421 C 0.33723 0.61786 0.89653 0.0
O422 O 0.34301 0.60641 0.9053 0.0
O423 O 0.39543 0.64199 0.87186 0.0
C424 C 0.70859 0.38561 0.07402 0.0
O425 O 0.70447 0.36853 0.08217 0.0
O426 O 0.72311 0.35117 0.05834 0.0
Zn427 Zn 0.74335 0.382 0.06185 0.0
O428 O 0.76104 0.3884 0.08469 0.0
C429 C 0.76785 0.38303 0.03085 0.0
O430 O 0.75983 0.36348 0.03496 0.0
O431 O 0.72512 0.39489 0.06414 0.0
C432 C 0.77893 0.3892 0.08522 0.0
O433 O 0.78611 0.38517 0.07049 0.0
C434 C 0.72551 0.337 0.06499 0.0
O435 O 0.74257 0.34209 0.07496 0.0
O436 O 0.76297 0.39401 0.04041 0.0
C437 C 0.39201 0.73047 0.21122 0.0
O438 O 0.3808 0.73285 0.19852 0.0
O439 O 0.34975 0.73716 0.23341 0.0
Zn440 Zn 0.3815 0.75712 0.22978 0.0
O441 O 0.38715 0.77506 0.20798 0.0
C442 C 0.38327 0.77918 0.26239 0.0
O443 O 0.36258 0.77063 0.25909 0.0
O444 O 0.39505 0.73991 0.2262 0.0
C445 C 0.38542 0.79097 0.20856 0.0
O446 O 0.37923 0.79554 0.22358 0.0
C447 C 0.3344 0.73725 0.22518 0.0
O448 O 0.33874 0.7515 0.21306 0.0
O449 O 0.39456 0.77545 0.25179 0.0
H450 H 0.1722 0.59056 0.29548 0.0
H451 H 0.2039 0.61732 0.28 0.0
H452 H 0.16447 0.6344 0.25007 0.0
H453 H 0.13239 0.60735 0.26546 0.0
H454 H 0.21218 0.6222 0.24243 0.0
H455 H 0.21189 0.68951 0.27328 0.0
H456 H 0.19632 0.6637 0.2823 0.0
H457 H 0.18756 0.67024 0.26207 0.0
C458 C 0.17015 0.59978 0.28543 0.0
C459 C 0.14971 0.59673 0.28164 0.0
C460 C 0.18833 0.61516 0.27668 0.0
C461 C 0.18655 0.62794 0.26402 0.0
C462 C 0.16621 0.62489 0.26001 0.0
H463 H 0.2974 0.73414 0.21217 0.0
H464 H 0.2602 0.70749 0.21922 0.0
C465 C 0.14792 0.60945 0.2688 0.0
C466 C 0.20623 0.6444 0.25522 0.0
H467 H 0.24067 0.69683 0.25422 0.0
C468 C 0.2183 0.63853 0.24484 0.0
C469 C 0.21409 0.66568 0.25831 0.0
C470 C 0.20194 0.67279 0.26968 0.0
C471 C 0.23838 0.65335 0.23793 0.0
C472 C 0.24671 0.67456 0.24174 0.0
C473 C 0.23422 0.68053 0.25139 0.0
C474 C 0.26906 0.69056 0.23716 0.0
C475 C 0.25067 0.64616 0.22684 0.0
C476 C 0.28628 0.68999 0.24513 0.0
C477 C 0.30746 0.70515 0.24122 0.0
C478 C 0.31186 0.72126 0.22926 0.0
C479 C 0.29456 0.72189 0.22137 0.0
C480 C 0.27331 0.70671 0.22538 0.0
H481 H 0.2398 0.63058 0.22079 0.0
H482 H 0.25963 0.65723 0.21586 0.0
H483 H 0.26246 0.64514 0.23567 0.0
H484 H 0.28333 0.67787 0.25453 0.0
H485 H 0.32037 0.70422 0.24759 0.0
H486 H 0.54901 0.16252 0.46891 0.0
H487 H 0.5536 0.19448 0.45667 0.0
H488 H 0.58382 0.18747 0.40953 0.0
H489 H 0.57933 0.15539 0.42177 0.0
H490 H 0.60793 0.22511 0.42501 0.0
H491 H 0.52458 0.20797 0.41695 0.0
H492 H 0.52958 0.202 0.43916 0.0
H493 H 0.53077 0.18788 0.41999 0.0
C494 C 0.55608 0.16743 0.4557 0.0
C495 C 0.56379 0.15639 0.4463 0.0
C496 C 0.55866 0.18572 0.44869 0.0
C497 C 0.56878 0.19324 0.43206 0.0
C498 C 0.57587 0.1819 0.42235 0.0
H499 H 0.58635 0.30835 0.38649 0.0
H500 H 0.5754 0.27193 0.3904 0.0
C501 C 0.57337 0.16363 0.42939 0.0
C502 C 0.57402 0.21398 0.42584 0.0
H503 H 0.55238 0.24413 0.41847 0.0
C504 C 0.59573 0.22916 0.42332 0.0
C505 C 0.55811 0.21925 0.42342 0.0
C506 C 0.53444 0.20334 0.42484 0.0
C507 C 0.60206 0.24967 0.41927 0.0
C508 C 0.58628 0.25523 0.41804 0.0
C509 C 0.56447 0.23988 0.41969 0.0
C510 C 0.59227 0.27708 0.41583 0.0
C511 C 0.62562 0.26524 0.41649 0.0
C512 C 0.60497 0.2919 0.42903 0.0
C513 C 0.61126 0.31264 0.42685 0.0
C514 C 0.60485 0.31897 0.41147 0.0
C515 C 0.59163 0.30399 0.39847 0.0
C516 C 0.58535 0.28319 0.40067 0.0
H517 H 0.63457 0.25755 0.41263 0.0
H518 H 0.62792 0.27652 0.40588 0.0
H519 H 0.63275 0.27392 0.42927 0.0
H520 H 0.6101 0.28743 0.44103 0.0
H521 H 0.62129 0.32373 0.4372 0.0
H522 H 0.44741 0.61548 0.62693 0.0
H523 H 0.4204 0.62022 0.61185 0.0
H524 H 0.40368 0.5681 0.57681 0.0
H525 H 0.43093 0.56328 0.59183 0.0
H526 H 0.41589 0.62733 0.57524 0.0
H527 H 0.34592 0.55339 0.59947 0.0
H528 H 0.37257 0.56422 0.60902 0.0
H529 H 0.36617 0.55143 0.5874 0.0
C530 C 0.43826 0.6052 0.61583 0.0
C531 C 0.44137 0.58901 0.61057 0.0
C532 C 0.42273 0.60786 0.60729 0.0
C533 C 0.40988 0.59437 0.59337 0.0
C534 C 0.41319 0.57845 0.58776 0.0
H535 H 0.30001 0.59452 0.54278 0.0
H536 H 0.3281 0.58644 0.5487 0.0
C537 C 0.42876 0.57574 0.59634 0.0
C538 C 0.39286 0.597 0.58511 0.0
H539 H 0.33835 0.5751 0.58246 0.0
C540 C 0.39894 0.61582 0.57664 0.0
C541 C 0.37076 0.58192 0.58691 0.0
C542 C 0.36333 0.56164 0.59629 0.0
C543 C 0.3835 0.62022 0.57037 0.0
C544 C 0.36144 0.60552 0.57288 0.0
C545 C 0.35531 0.58633 0.58061 0.0
C546 C 0.34463 0.61048 0.56895 0.0
C547 C 0.39094 0.64068 0.56134 0.0
C548 C 0.34448 0.62644 0.57859 0.0
C549 C 0.32848 0.63102 0.57532 0.0
C550 C 0.31225 0.6197 0.56236 0.0
C551 C 0.31233 0.60358 0.5528 0.0
C552 C 0.32834 0.59894 0.55615 0.0
H553 H 0.40737 0.64738 0.55577 0.0
H554 H 0.37977 0.63896 0.55025 0.0
H555 H 0.3914 0.65183 0.57142 0.0
H556 H 0.35666 0.63525 0.58879 0.0
H557 H 0.32888 0.64348 0.58299 0.0
H558 H 0.84197 0.39463 0.79957 0.0
H559 H 0.80786 0.36926 0.78541 0.0
H560 H 0.82639 0.40492 0.73652 0.0
H561 H 0.86079 0.43045 0.7506 0.0
H562 H 0.78682 0.39562 0.74887 0.0
H563 H 0.7912 0.32459 0.7471 0.0
H564 H 0.79724 0.33661 0.76903 0.0
H565 H 0.81468 0.3501 0.75044 0.0
C566 C 0.8391 0.39682 0.78563 0.0
C567 C 0.85416 0.41456 0.7762 0.0
C568 C 0.81956 0.38227 0.77755 0.0
C569 C 0.8147 0.38504 0.75983 0.0
C570 C 0.82988 0.40244 0.75019 0.0
H571 H 0.69028 0.31875 0.70283 0.0
H572 H 0.72875 0.34123 0.70937 0.0
C573 C 0.84947 0.41705 0.75827 0.0
C574 C 0.79298 0.37083 0.75212 0.0
H575 H 0.75593 0.31972 0.74418 0.0
C576 C 0.78016 0.37906 0.74755 0.0
C577 C 0.78433 0.34923 0.75048 0.0
C578 C 0.79766 0.33962 0.75436 0.0
C579 C 0.75861 0.36619 0.74215 0.0
C580 C 0.74978 0.34454 0.74103 0.0
C581 C 0.76276 0.33634 0.74511 0.0
C582 C 0.7268 0.3301 0.73655 0.0
C583 C 0.74521 0.37577 0.73844 0.0
C584 C 0.7131 0.31599 0.74948 0.0
C585 C 0.69115 0.30308 0.74578 0.0
C586 C 0.6825 0.304 0.72902 0.0
C587 C 0.69639 0.31776 0.71591 0.0
C588 C 0.71836 0.33067 0.71963 0.0
H589 H 0.75313 0.39201 0.7435 0.0
H590 H 0.7427 0.37586 0.72367 0.0
H591 H 0.72918 0.36662 0.7448 0.0
H592 H 0.71934 0.31529 0.7626 0.0
H593 H 0.68092 0.29259 0.75615 0.0
H594 H 0.4596 0.88121 0.93538 0.0
H595 H 0.45462 0.84883 0.92278 0.0
H596 H 0.397 0.81385 0.95398 0.0
H597 H 0.40192 0.84582 0.96673 0.0
H598 H 0.45224 0.81529 0.94165 0.0
H599 H 0.37716 0.79015 0.90299 0.0
H600 H 0.39436 0.81644 0.91104 0.0
H601 H 0.37548 0.79674 0.92597 0.0
C602 C 0.44585 0.86661 0.93951 0.0
C603 C 0.43101 0.86614 0.95189 0.0
C604 C 0.443 0.84815 0.93225 0.0
C605 C 0.42521 0.82898 0.93718 0.0
C606 C 0.41051 0.8285 0.94961 0.0
H607 H 0.37201 0.69964 0.93394 0.0
H608 H 0.38311 0.73589 0.93855 0.0
C609 C 0.41334 0.84683 0.95685 0.0
C610 C 0.42226 0.80926 0.93012 0.0
H611 H 0.38492 0.76361 0.91005 0.0
C612 C 0.43774 0.80411 0.93442 0.0
C613 C 0.40335 0.79477 0.92063 0.0
C614 C 0.38674 0.79987 0.91472 0.0
C615 C 0.43418 0.78433 0.93044 0.0
C616 C 0.41474 0.76951 0.92183 0.0
C617 C 0.39974 0.775 0.91678 0.0
C618 C 0.40884 0.74773 0.91917 0.0
C619 C 0.45066 0.77904 0.93626 0.0
C620 C 0.41968 0.74241 0.90672 0.0
C621 C 0.41334 0.72162 0.904 0.0
C622 C 0.39605 0.70586 0.91369 0.0
C623 C 0.3854 0.71135 0.92626 0.0
C624 C 0.39169 0.73207 0.9289 0.0
H625 H 0.46357 0.79139 0.94485 0.0
H626 H 0.44283 0.76428 0.94384 0.0
H627 H 0.45818 0.77685 0.92414 0.0
H628 H 0.43282 0.7543 0.89894 0.0
H629 H 0.42184 0.71789 0.89419 0.0
H630 H 0.55373 0.41668 0.09562 0.0
H631 H 0.58135 0.40981 0.08536 0.0
H632 H 0.63014 0.46534 0.11245 0.0
H633 H 0.60259 0.47186 0.12347 0.0
H634 H 0.61939 0.43154 0.06563 0.0
H635 H 0.63539 0.4196 0.13659 0.0
H636 H 0.61257 0.42159 0.13019 0.0
H637 H 0.63883 0.44452 0.13229 0.0
C638 C 0.57034 0.42749 0.09935 0.0
C639 C 0.57586 0.44464 0.11062 0.0
C640 C 0.58613 0.42362 0.09335 0.0
C641 C 0.60772 0.43683 0.09846 0.0
C642 C 0.6135 0.45474 0.10864 0.0
H643 H 0.71378 0.42212 0.06158 0.0
H644 H 0.69005 0.43571 0.0666 0.0
C645 C 0.59772 0.45856 0.11475 0.0
C646 C 0.62381 0.43099 0.09432 0.0
H647 H 0.65677 0.41698 0.11426 0.0
C648 C 0.62768 0.42845 0.07623 0.0
C649 C 0.63433 0.42668 0.10821 0.0
C650 C 0.62998 0.42803 0.12791 0.0
C651 C 0.64175 0.42163 0.07166 0.0
C652 C 0.65242 0.41754 0.08557 0.0
C653 C 0.64867 0.42026 0.10363 0.0
C654 C 0.66663 0.40929 0.08187 0.0
C655 C 0.64452 0.41819 0.05204 0.0
C656 C 0.66153 0.39013 0.08905 0.0
C657 C 0.67512 0.38245 0.08638 0.0
C658 C 0.69414 0.39379 0.07648 0.0
C659 C 0.6992 0.41297 0.0692 0.0
C660 C 0.68559 0.4207 0.07195 0.0
H661 H 0.63158 0.41745 0.04342 0.0
H662 H 0.66015 0.43123 0.04732 0.0
H663 H 0.6446 0.40363 0.05016 0.0
H664 H 0.647 0.3811 0.09679 0.0
H665 H 0.6707 0.36762 0.09215 0.0
H666 H 0.44969 0.87585 0.53382 0.0
H667 H 0.42201 0.84289 0.54665 0.0
H668 H 0.37533 0.84026 0.50886 0.0
H669 H 0.40286 0.87308 0.49588 0.0
H670 H 0.35952 0.8275 0.54485 0.0
H671 H 0.40096 0.78857 0.51778 0.0
H672 H 0.41717 0.8108 0.53198 0.0
H673 H 0.40749 0.81397 0.51061 0.0
C674 C 0.43349 0.86832 0.52833 0.0
C675 C 0.42852 0.877 0.51372 0.0
C676 C 0.41772 0.84952 0.53568 0.0
C677 C 0.39675 0.83902 0.52849 0.0
C678 C 0.39144 0.84814 0.51457 0.0
H679 H 0.28117 0.71858 0.53662 0.0
H680 H 0.30753 0.75523 0.53176 0.0
C681 C 0.40719 0.86695 0.50723 0.0
C682 C 0.38069 0.81791 0.53462 0.0
H683 H 0.36976 0.76816 0.53475 0.0
C684 C 0.36174 0.8145 0.54272 0.0
C685 C 0.38366 0.80102 0.53175 0.0
C686 C 0.40331 0.80363 0.52243 0.0
C687 C 0.34569 0.7946 0.54816 0.0
C688 C 0.34857 0.77768 0.54509 0.0
C689 C 0.36764 0.78117 0.53716 0.0
C690 C 0.33182 0.75605 0.54939 0.0
C691 C 0.32594 0.7919 0.55731 0.0
C692 C 0.33676 0.74427 0.56078 0.0
C693 C 0.32182 0.72328 0.56345 0.0
C694 C 0.30164 0.7136 0.55469 0.0
C695 C 0.29652 0.72556 0.54363 0.0
C696 C 0.31152 0.74657 0.54093 0.0
H697 H 0.32894 0.8067 0.56332 0.0
H698 H 0.31276 0.78663 0.54719 0.0
H699 H 0.32044 0.7801 0.56808 0.0
H700 H 0.35238 0.75126 0.56736 0.0
H701 H 0.32628 0.71455 0.57209 0.0
H702 H 0.54069 0.42081 0.68917 0.0
H703 H 0.54314 0.39205 0.70157 0.0
H704 H 0.60737 0.41907 0.68074 0.0
H705 H 0.60505 0.44768 0.66831 0.0
H706 H 0.54867 0.3642 0.68251 0.0
H707 H 0.61528 0.40535 0.73192 0.0
H708 H 0.6012 0.417 0.7223 0.0
H709 H 0.62244 0.41688 0.71003 0.0
C710 C 0.5554 0.4207 0.68738 0.0
C711 C 0.57272 0.43661 0.67783 0.0
C712 C 0.5568 0.40431 0.69452 0.0
C713 C 0.57557 0.40359 0.69234 0.0
C714 C 0.59296 0.41959 0.68304 0.0
H715 H 0.59622 0.30285 0.68315 0.0
H716 H 0.5877 0.32991 0.67947 0.0
C717 C 0.5916 0.43596 0.67593 0.0
C718 C 0.57651 0.3854 0.69845 0.0
H719 H 0.60777 0.37178 0.72194 0.0
C720 C 0.56139 0.3658 0.69136 0.0
C721 C 0.5929 0.38741 0.71021 0.0
C722 C 0.60873 0.40777 0.71921 0.0
C723 C 0.56291 0.34836 0.69497 0.0
C724 C 0.58024 0.3507 0.70566 0.0
C725 C 0.59466 0.37006 0.71353 0.0
C726 C 0.58438 0.33357 0.70803 0.0
C727 C 0.54605 0.32765 0.68715 0.0
C728 C 0.58579 0.3269 0.72534 0.0
C729 C 0.59086 0.31151 0.72752 0.0
C730 C 0.59474 0.3026 0.7124 0.0
C731 C 0.5932 0.30926 0.69508 0.0
C732 C 0.58817 0.32465 0.69293 0.0
H733 H 0.53069 0.32708 0.68448 0.0
H734 H 0.55179 0.32511 0.67411 0.0
H735 H 0.54285 0.3148 0.69633 0.0
H736 H 0.58308 0.3337 0.73718 0.0
H737 H 0.59197 0.30677 0.74105 0.0
H738 H 0.16521 0.59903 0.84061 0.0
H739 H 0.19826 0.6052 0.8551 0.0
H740 H 0.16724 0.54046 0.86851 0.0
H741 H 0.13398 0.5341 0.85387 0.0
H742 H 0.20773 0.59889 0.88984 0.0
H743 H 0.21952 0.55018 0.84017 0.0
H744 H 0.19996 0.55775 0.83672 0.0
H745 H 0.19451 0.53728 0.85208 0.0
C746 C 0.16526 0.58614 0.8469 0.0
C747 C 0.14698 0.56605 0.84605 0.0
C748 C 0.18421 0.58968 0.85511 0.0
C749 C 0.18531 0.57324 0.86262 0.0
C750 C 0.16687 0.55329 0.86244 0.0
H751 H 0.30234 0.57942 0.90341 0.0
H752 H 0.26435 0.56719 0.89743 0.0
C753 C 0.14789 0.54969 0.85412 0.0
C754 C 0.20608 0.57712 0.87003 0.0
H755 H 0.24604 0.56691 0.86276 0.0
C756 C 0.21603 0.59177 0.88403 0.0
C757 C 0.21686 0.56777 0.86243 0.0
C758 C 0.20731 0.55249 0.84693 0.0
C759 C 0.23668 0.59767 0.89036 0.0
C760 C 0.24771 0.58884 0.88234 0.0
C761 C 0.23747 0.57361 0.86885 0.0
C762 C 0.27049 0.59636 0.88676 0.0
C763 C 0.24666 0.61349 0.90542 0.0
C764 C 0.28646 0.61672 0.88255 0.0
C765 C 0.30811 0.62371 0.88583 0.0
C766 C 0.31422 0.61043 0.89337 0.0
C767 C 0.29816 0.59004 0.89764 0.0
C768 C 0.27647 0.58302 0.89424 0.0
H769 H 0.23427 0.61445 0.91332 0.0
H770 H 0.25621 0.60977 0.9147 0.0
H771 H 0.25763 0.62897 0.89958 0.0
H772 H 0.28219 0.62713 0.87645 0.0
H773 H 0.32006 0.6395 0.88236 0.0
H774 H 0.56043 0.15679 0.03564 0.0
H775 H 0.58982 0.19001 0.04714 0.0
H776 H 0.63465 0.18385 0.01385 0.0
H777 H 0.60527 0.15116 0.00162 0.0
H778 H 0.62879 0.20313 0.06463 0.0
H779 H 0.64114 0.23795 0.99664 0.0
H780 H 0.61811 0.21298 0.00191 0.0
H781 H 0.64367 0.21554 0.99747 0.0
C782 C 0.57654 0.16248 0.03076 0.0
C783 C 0.5804 0.15142 0.01749 0.0
C784 C 0.59335 0.18139 0.03747 0.0
C785 C 0.61432 0.18959 0.03106 0.0
C786 C 0.61849 0.17799 0.0187 0.0
H787 H 0.72772 0.30273 0.07307 0.0
H788 H 0.70122 0.26651 0.06562 0.0
C789 C 0.60168 0.15915 0.01189 0.0
C790 C 0.63148 0.21082 0.03646 0.0
H791 H 0.66531 0.25904 0.01965 0.0
C792 C 0.63685 0.21537 0.05482 0.0
C793 C 0.64171 0.22681 0.02363 0.0
C794 C 0.63577 0.2232 0.00383 0.0
C795 C 0.65221 0.23552 0.0607 0.0
C796 C 0.6627 0.25141 0.04782 0.0
C797 C 0.65736 0.2468 0.02948 0.0
C798 C 0.67856 0.27317 0.05302 0.0
C799 C 0.65658 0.23976 0.08066 0.0
C800 C 0.67481 0.28896 0.04811 0.0
C801 C 0.69 0.30964 0.05213 0.0
C802 C 0.70929 0.31498 0.06116 0.0
C803 C 0.71297 0.29913 0.0662 0.0
C804 C 0.69778 0.2784 0.06206 0.0
H805 H 0.64355 0.22737 0.08885 0.0
H806 H 0.67181 0.24048 0.08417 0.0
H807 H 0.65835 0.25482 0.08445 0.0
H808 H 0.66011 0.28528 0.04109 0.0
H809 H 0.68661 0.32144 0.04811 0.0
H810 H 0.46302 0.61697 0.15695 0.0
H811 H 0.45742 0.64407 0.1687 0.0
H812 H 0.4122 0.60122 0.20722 0.0
H813 H 0.41752 0.57389 0.1953 0.0
H814 H 0.39545 0.61951 0.18847 0.0
H815 H 0.47597 0.67991 0.21343 0.0
H816 H 0.47675 0.67243 0.19058 0.0
H817 H 0.46928 0.65379 0.20834 0.0
C818 C 0.45233 0.61347 0.16826 0.0
C819 C 0.4407 0.5933 0.17522 0.0
C820 C 0.44919 0.62901 0.17501 0.0
C821 C 0.4346 0.62478 0.18901 0.0
C822 C 0.42359 0.60486 0.19645 0.0
H823 H 0.41195 0.71871 0.23578 0.0
H824 H 0.4225 0.69298 0.23149 0.0
C825 C 0.4266 0.58926 0.18962 0.0
C826 C 0.42908 0.64041 0.19447 0.0
H827 H 0.4508 0.69093 0.20755 0.0
C828 C 0.40754 0.63504 0.19287 0.0
C829 C 0.44479 0.66063 0.20039 0.0
C830 C 0.46795 0.66697 0.20347 0.0
C831 C 0.40138 0.64949 0.1964 0.0
C832 C 0.41728 0.67005 0.20124 0.0
C833 C 0.4387 0.67525 0.20355 0.0
C834 C 0.41193 0.68637 0.20362 0.0
C835 C 0.37787 0.64259 0.1949 0.0
C836 C 0.40301 0.69155 0.18923 0.0
C837 C 0.39689 0.70614 0.19164 0.0
C838 C 0.39978 0.716 0.20845 0.0
C839 C 0.40944 0.71133 0.22268 0.0
C840 C 0.41549 0.69665 0.22026 0.0
H841 H 0.36737 0.62553 0.19633 0.0
H842 H 0.37339 0.65026 0.20533 0.0
H843 H 0.37464 0.64678 0.18142 0.0
H844 H 0.40059 0.68414 0.17615 0.0
H845 H 0.3897 0.70951 0.18035 0.0
H846 H 0.83278 0.42728 0.32876 0.0
H847 H 0.79994 0.42352 0.34106 0.0
H848 H 0.83755 0.4767 0.37566 0.0
H849 H 0.87079 0.48038 0.3636 0.0
H850 H 0.80173 0.44057 0.39277 0.0
H851 H 0.77746 0.46282 0.32989 0.0
H852 H 0.78429 0.44335 0.32647 0.0
H853 H 0.80463 0.46885 0.33408 0.0
C854 C 0.83414 0.43806 0.33915 0.0
C855 C 0.85441 0.45409 0.34527 0.0
C856 C 0.81534 0.43602 0.34601 0.0
C857 C 0.81635 0.45001 0.35906 0.0
C858 C 0.83649 0.46585 0.36548 0.0
H859 H 0.70275 0.44015 0.41172 0.0
H860 H 0.74034 0.45318 0.40382 0.0
C861 C 0.85541 0.46797 0.35854 0.0
C862 C 0.79617 0.44768 0.36595 0.0
H863 H 0.74989 0.44465 0.35174 0.0
C864 C 0.79051 0.44182 0.38394 0.0
C865 C 0.78167 0.44942 0.35437 0.0
C866 C 0.78736 0.45665 0.33517 0.0
C867 C 0.77011 0.43641 0.39037 0.0
C868 C 0.75522 0.43716 0.3785 0.0
C869 C 0.76131 0.44397 0.36076 0.0
C870 C 0.73269 0.4294 0.3837 0.0
C871 C 0.7642 0.42891 0.40948 0.0
C872 C 0.716 0.41191 0.37484 0.0
C873 C 0.6946 0.40448 0.37926 0.0
C874 C 0.68943 0.41448 0.39258 0.0
C875 C 0.7062 0.43206 0.40144 0.0
C876 C 0.72768 0.43948 0.39701 0.0
H877 H 0.77629 0.42615 0.41599 0.0
H878 H 0.7631 0.44073 0.41758 0.0
H879 H 0.74825 0.41434 0.40978 0.0
H880 H 0.71956 0.40396 0.3645 0.0
H881 H 0.68212 0.39093 0.37215 0.0
H882 H 0.14356 0.593 0.38951 0.0
H883 H 0.16465 0.60348 0.41754 0.0
H884 H 0.12315 0.54247 0.43912 0.0
H885 H 0.10194 0.53184 0.41108 0.0
H886 H 0.15277 0.60408 0.45303 0.0
H887 H 0.18294 0.55038 0.44459 0.0
H888 H 0.16994 0.55587 0.42651 0.0
H889 H 0.15416 0.53803 0.44393 0.0
C890 C 0.13875 0.58188 0.4003 0.0
C891 C 0.12112 0.56156 0.39805 0.0
C892 C 0.15089 0.58786 0.41626 0.0
C893 C 0.14569 0.57364 0.43026 0.0
C894 C 0.12773 0.55353 0.4283 0.0
H895 H 0.20343 0.58245 0.53545 0.0
H896 H 0.18029 0.5713 0.50855 0.0
C897 C 0.11562 0.5475 0.41231 0.0
C898 C 0.15919 0.57991 0.44684 0.0
H899 H 0.19161 0.5692 0.47213 0.0
C900 C 0.1613 0.59649 0.45721 0.0
C901 C 0.17031 0.56998 0.45221 0.0
C902 C 0.16944 0.5527 0.44117 0.0
C903 C 0.17406 0.60327 0.47294 0.0
C904 C 0.1852 0.59337 0.47827 0.0
C905 C 0.183 0.57672 0.46799 0.0
C906 C 0.19938 0.60018 0.49444 0.0
C907 C 0.17525 0.62076 0.48388 0.0
C908 C 0.21796 0.61999 0.49524 0.0
C909 C 0.23126 0.62641 0.51056 0.0
C910 C 0.22621 0.61308 0.52533 0.0
C911 C 0.20774 0.59312 0.52434 0.0
C912 C 0.1945 0.5867 0.50899 0.0
H913 H 0.16189 0.62328 0.48045 0.0
H914 H 0.17478 0.61766 0.49855 0.0
H915 H 0.19065 0.63529 0.48106 0.0
H916 H 0.22221 0.63047 0.484 0.0
H917 H 0.2454 0.64186 0.51086 0.0
H918 H 0.55119 0.13543 0.55492 0.0
H919 H 0.55663 0.15361 0.58368 0.0
H920 H 0.61228 0.14903 0.59487 0.0
H921 H 0.60651 0.13016 0.56644 0.0
H922 H 0.58522 0.13981 0.62452 0.0
H923 H 0.60415 0.2139 0.59286 0.0
H924 H 0.57885 0.19182 0.58594 0.0
H925 H 0.60347 0.19305 0.58024 0.0
C926 C 0.56442 0.13803 0.5636 0.0
C927 C 0.5785 0.13144 0.55833 0.0
C928 C 0.56765 0.14865 0.57993 0.0
C929 C 0.58509 0.153 0.59122 0.0
C930 C 0.59883 0.14597 0.58626 0.0
H931 H 0.6411 0.22036 0.69086 0.0
H932 H 0.63173 0.19901 0.66353 0.0
C933 C 0.5956 0.13533 0.56995 0.0
C934 C 0.58915 0.16501 0.60816 0.0
H935 H 0.60138 0.21226 0.62467 0.0
C936 C 0.58878 0.15566 0.62458 0.0
C937 C 0.59378 0.18568 0.60815 0.0
C938 C 0.5953 0.19681 0.59086 0.0
C939 C 0.59274 0.16638 0.64104 0.0
C940 C 0.59749 0.18707 0.641 0.0
C941 C 0.59768 0.19636 0.62461 0.0
C942 C 0.60282 0.19956 0.65779 0.0
C943 C 0.59156 0.15542 0.65834 0.0
C944 C 0.58988 0.20726 0.66341 0.0
C945 C 0.59522 0.21954 0.67899 0.0
C946 C 0.61372 0.22447 0.68913 0.0
C947 C 0.6267 0.21679 0.6834 0.0
C948 C 0.62131 0.20448 0.66785 0.0
H949 H 0.58249 0.13831 0.65649 0.0
H950 H 0.60809 0.16032 0.66295 0.0
H951 H 0.58379 0.15946 0.66913 0.0
H952 H 0.57562 0.20373 0.65573 0.0
H953 H 0.58492 0.22526 0.683 0.0
H954 H 0.45006 0.55412 0.735 0.0
H955 H 0.43472 0.56039 0.76188 0.0
H956 H 0.46908 0.62576 0.75044 0.0
H957 H 0.48375 0.6196 0.72325 0.0
H958 H 0.45483 0.58527 0.79217 0.0
H959 H 0.40722 0.61198 0.75514 0.0
H960 H 0.41903 0.59894 0.74407 0.0
H961 H 0.43527 0.62607 0.74965 0.0
C962 C 0.45422 0.56981 0.73813 0.0
C963 C 0.46807 0.58634 0.72691 0.0
C964 C 0.44555 0.57338 0.75355 0.0
C965 C 0.45047 0.59348 0.75795 0.0
C966 C 0.46474 0.61006 0.74708 0.0
H967 H 0.41836 0.6508 0.84347 0.0
H968 H 0.43325 0.64295 0.81721 0.0
C969 C 0.47335 0.60653 0.73167 0.0
C970 C 0.44077 0.59721 0.77394 0.0
H971 H 0.41001 0.61703 0.78698 0.0
C972 C 0.44491 0.59208 0.79105 0.0
C973 C 0.42779 0.60606 0.77241 0.0
C974 C 0.42187 0.61091 0.75432 0.0
C975 C 0.43687 0.59607 0.80673 0.0
C976 C 0.42416 0.60519 0.80519 0.0
C977 C 0.41986 0.61014 0.78809 0.0
C978 C 0.41521 0.6098 0.82118 0.0
C979 C 0.44245 0.59098 0.82485 0.0
C980 C 0.39995 0.59371 0.83195 0.0
C981 C 0.39138 0.59812 0.84694 0.0
C982 C 0.39788 0.61871 0.85138 0.0
C983 C 0.41305 0.63478 0.84045 0.0
C984 C 0.42157 0.63034 0.82544 0.0
H985 H 0.4562 0.58849 0.824 0.0
H986 H 0.44651 0.60356 0.83481 0.0
H987 H 0.42835 0.57655 0.82994 0.0
H988 H 0.39455 0.57772 0.82868 0.0
H989 H 0.37967 0.58537 0.85502 0.0
H990 H 0.89269 0.48562 0.899 0.0
H991 H 0.87286 0.47327 0.92722 0.0
H992 H 0.86272 0.41252 0.917 0.0
H993 H 0.88237 0.42468 0.88871 0.0
H994 H 0.82995 0.44124 0.92952 0.0
H995 H 0.88302 0.42364 0.96982 0.0
H996 H 0.89222 0.43978 0.95007 0.0
H997 H 0.87648 0.41205 0.94769 0.0
C998 C 0.88636 0.46966 0.90282 0.0
C999 C 0.88907 0.45611 0.8916 0.0
C1000 C 0.87513 0.46267 0.91897 0.0
C1001 C 0.86652 0.44206 0.92428 0.0
C1002 C 0.86963 0.42861 0.91335 0.0
H1003 H 0.78065 0.36351 0.00742 0.0
H1004 H 0.80484 0.37853 0.98183 0.0
C1005 C 0.88087 0.43559 0.89718 0.0
C1006 C 0.8529 0.43422 0.94052 0.0
H1007 H 0.84787 0.41118 0.98118 0.0
C1008 C 0.83394 0.43483 0.9409 0.0
C1009 C 0.85812 0.42577 0.95526 0.0
C1010 C 0.87866 0.4254 0.95584 0.0
C1011 C 0.81977 0.42677 0.95546 0.0
C1012 C 0.82494 0.41824 0.97019 0.0
C1013 C 0.84397 0.41774 0.96987 0.0
C1014 C 0.81057 0.40939 0.9859 0.0
C1015 C 0.7991 0.42691 0.95471 0.0
C1016 C 0.80598 0.42185 0.9968 0.0
C1017 C 0.79207 0.41331 0.0114 0.0
C1018 C 0.78264 0.39217 0.01544 0.0
C1019 C 0.78756 0.37983 0.00465 0.0
C1020 C 0.80143 0.38838 0.99004 0.0
H1021 H 0.79508 0.42918 0.94076 0.0
H1022 H 0.78547 0.41221 0.95996 0.0
H1023 H 0.80084 0.43984 0.96323 0.0
H1024 H 0.8132 0.4382 0.99403 0.0
H1025 H 0.78876 0.42328 0.01952 0.0
H1026 H 0.44264 0.88187 0.05696 0.0
H1027 H 0.43489 0.86328 0.08544 0.0
H1028 H 0.41038 0.90008 0.10713 0.0
H1029 H 0.41802 0.91874 0.07857 0.0
H1030 H 0.44932 0.87726 0.12019 0.0
H1031 H 0.36061 0.84102 0.11494 0.0
H1032 H 0.37822 0.85377 0.09618 0.0
H1033 H 0.37561 0.8688 0.11376 0.0
C1034 C 0.43584 0.88619 0.06786 0.0
C1035 C 0.43089 0.90174 0.06551 0.0
C1036 C 0.43132 0.87548 0.08409 0.0
C1037 C 0.42173 0.88006 0.09827 0.0
C1038 C 0.41732 0.89597 0.09619 0.0
H1039 H 0.38101 0.82459 0.20454 0.0
H1040 H 0.39037 0.84709 0.17826 0.0
C1041 C 0.42174 0.90664 0.0799 0.0
C1042 C 0.4163 0.86803 0.11516 0.0
H1043 H 0.37424 0.83491 0.1417 0.0
C1044 C 0.43291 0.86801 0.12491 0.0
C1045 C 0.39487 0.85598 0.12127 0.0
C1046 C 0.37625 0.85468 0.11094 0.0
C1047 C 0.42867 0.85627 0.14062 0.0
C1048 C 0.40723 0.84407 0.14659 0.0
C1049 C 0.39066 0.84433 0.13705 0.0
C1050 C 0.40161 0.83047 0.16245 0.0
C1051 C 0.44714 0.8571 0.15078 0.0
C1052 C 0.40454 0.81351 0.1621 0.0
C1053 C 0.39914 0.80058 0.17703 0.0
C1054 C 0.39068 0.80438 0.19259 0.0
C1055 C 0.38755 0.82127 0.1928 0.0
C1056 C 0.39288 0.83414 0.17782 0.0
H1057 H 0.46285 0.87079 0.14699 0.0
H1058 H 0.44507 0.85757 0.16557 0.0
H1059 H 0.44761 0.84296 0.14759 0.0
H1060 H 0.41093 0.81024 0.15022 0.0
H1061 H 0.40168 0.78767 0.17639 0.0
H1062 H 0.51869 0.44606 0.24086 0.0
H1063 H 0.53128 0.44023 0.26973 0.0
H1064 H 0.58551 0.44354 0.24299 0.0
H1065 H 0.57333 0.44991 0.21432 0.0
H1066 H 0.53602 0.40923 0.27966 0.0
H1067 H 0.61528 0.48172 0.28488 0.0
H1068 H 0.59512 0.47826 0.26859 0.0
H1069 H 0.61245 0.46833 0.26405 0.0
C1070 C 0.53341 0.44574 0.24124 0.0
C1071 C 0.54516 0.44864 0.22542 0.0
C1072 C 0.54059 0.44243 0.2577 0.0
C1073 C 0.55958 0.44185 0.25861 0.0
C1074 C 0.57121 0.44459 0.24277 0.0
H1075 H 0.5931 0.3801 0.33846 0.0
H1076 H 0.57949 0.38974 0.31242 0.0
C1077 C 0.5642 0.44815 0.22637 0.0
C1078 C 0.56664 0.43728 0.27588 0.0
H1079 H 0.61019 0.45382 0.30377 0.0
C1080 C 0.55216 0.41911 0.28505 0.0
C1081 C 0.58759 0.45032 0.28309 0.0
C1082 C 0.6034 0.47085 0.27474 0.0
C1083 C 0.55826 0.41329 0.30089 0.0
C1084 C 0.57964 0.42566 0.30744 0.0
C1085 C 0.5939 0.44417 0.29861 0.0
C1086 C 0.58765 0.41965 0.32334 0.0
C1087 C 0.54163 0.39407 0.31052 0.0
C1088 C 0.59743 0.43352 0.33789 0.0
C1089 C 0.60562 0.42821 0.35263 0.0
C1090 C 0.60409 0.40888 0.35313 0.0
C1091 C 0.59431 0.39502 0.33855 0.0
C1092 C 0.58638 0.40045 0.32372 0.0
H1093 H 0.52506 0.39047 0.30738 0.0
H1094 H 0.54281 0.38068 0.30597 0.0
H1095 H 0.54413 0.39579 0.32537 0.0
H1096 H 0.5987 0.44847 0.33786 0.0
H1097 H 0.61304 0.43923 0.36366 0.0
H1098 H 0.47997 0.88292 0.40637 0.0
H1099 H 0.46639 0.86126 0.37922 0.0
H1100 H 0.43869 0.89655 0.36077 0.0
H1101 H 0.45279 0.91874 0.38769 0.0
H1102 H 0.42315 0.83697 0.36922 0.0
H1103 H 0.47068 0.89398 0.31618 0.0
H1104 H 0.47812 0.89857 0.33979 0.0
H1105 H 0.45695 0.90191 0.33124 0.0
C1106 C 0.47142 0.8864 0.39636 0.0
C1107 C 0.46756 0.90264 0.39916 0.0
C1108 C 0.46353 0.8739 0.38092 0.0
C1109 C 0.45173 0.87743 0.36792 0.0
C1110 C 0.44806 0.89377 0.37051 0.0
H1111 H 0.36365 0.79001 0.28777 0.0
H1112 H 0.38045 0.81383 0.31334 0.0
C1113 C 0.45594 0.9063 0.38598 0.0
C1114 C 0.44221 0.86322 0.35221 0.0
H1115 H 0.44194 0.86113 0.30618 0.0
C1116 C 0.4273 0.84222 0.35544 0.0
C1117 C 0.44782 0.87012 0.33427 0.0
C1118 C 0.46441 0.89234 0.33009 0.0
C1119 C 0.41759 0.82795 0.34117 0.0
C1120 C 0.42275 0.83495 0.32322 0.0
C1121 C 0.43791 0.85588 0.31998 0.0
C1122 C 0.41263 0.82071 0.30762 0.0
C1123 C 0.40212 0.80545 0.34543 0.0
C1124 C 0.42525 0.81701 0.29575 0.0
C1125 C 0.41572 0.80343 0.2811 0.0
C1126 C 0.39339 0.79342 0.27799 0.0
C1127 C 0.38085 0.79736 0.28983 0.0
C1128 C 0.3904 0.81091 0.30449 0.0
H1129 H 0.4039 0.80182 0.35961 0.0
H1130 H 0.38539 0.8019 0.34348 0.0
H1131 H 0.40457 0.79517 0.33628 0.0
H1132 H 0.44246 0.8245 0.29793 0.0
H1133 H 0.42585 0.80081 0.2722 0.0
H1134 H 0.55231 0.43617 0.57195 0.0
H1135 H 0.55644 0.42171 0.54368 0.0
H1136 H 0.59683 0.48351 0.52314 0.0
H1137 H 0.59341 0.498 0.55169 0.0
H1138 H 0.54639 0.42309 0.50988 0.0
H1139 H 0.63491 0.46072 0.51538 0.0
H1140 H 0.61884 0.46106 0.53364 0.0
H1141 H 0.62646 0.4792 0.51542 0.0
C1142 C 0.56197 0.44663 0.56133 0.0
C1143 C 0.57269 0.46817 0.56399 0.0
C1144 C 0.56436 0.43838 0.54522 0.0
C1145 C 0.57736 0.45152 0.53143 0.0
C1146 C 0.58731 0.47307 0.53379 0.0
H1147 H 0.57415 0.4092 0.42115 0.0
H1148 H 0.56889 0.42376 0.44878 0.0
C1149 C 0.58522 0.48133 0.55003 0.0
C1150 C 0.58049 0.44263 0.51464 0.0
H1151 H 0.61898 0.44433 0.48732 0.0
C1152 C 0.56226 0.42766 0.50498 0.0
C1153 C 0.60121 0.4483 0.50843 0.0
C1154 C 0.62145 0.46303 0.51886 0.0
C1155 C 0.56415 0.41836 0.48922 0.0
C1156 C 0.58488 0.42475 0.48255 0.0
C1157 C 0.6031 0.43958 0.4923 0.0
C1158 C 0.58812 0.41606 0.46568 0.0
C1159 C 0.54389 0.40138 0.48021 0.0
C1160 C 0.6014 0.40762 0.46577 0.0
C1161 C 0.60488 0.39978 0.44989 0.0
C1162 C 0.59496 0.40002 0.43364 0.0
C1163 C 0.58177 0.40854 0.43353 0.0
C1164 C 0.57861 0.41673 0.44935 0.0
H1165 H 0.53037 0.39391 0.48987 0.0
H1166 H 0.53904 0.40813 0.46925 0.0
H1167 H 0.54637 0.38924 0.47429 0.0
H1168 H 0.609 0.40702 0.47818 0.0
H1169 H 0.61513 0.3933 0.45039 0.0
H1170 H 0.11372 0.59393 0.71996 0.0
H1171 H 0.13612 0.60209 0.69317 0.0
H1172 H 0.14914 0.55416 0.70682 0.0
H1173 H 0.12688 0.54598 0.73369 0.0
H1174 H 0.17989 0.61538 0.69434 0.0
H1175 H 0.13389 0.54372 0.65284 0.0
H1176 H 0.12201 0.54989 0.67129 0.0
H1177 H 0.13894 0.53954 0.67571 0.0
C1178 C 0.12121 0.58501 0.71717 0.0
C1179 C 0.11858 0.56934 0.72897 0.0
C1180 C 0.13392 0.58964 0.70184 0.0
C1181 C 0.14413 0.57862 0.69793 0.0
C1182 C 0.14106 0.56258 0.70938 0.0
H1183 H 0.23879 0.59255 0.61962 0.0
H1184 H 0.21306 0.58163 0.6443 0.0
C1185 C 0.12832 0.55792 0.72473 0.0
C1186 C 0.15931 0.58503 0.68272 0.0
H1187 H 0.16924 0.56825 0.64317 0.0
C1188 C 0.1775 0.60513 0.68308 0.0
C1189 C 0.15621 0.57156 0.66815 0.0
C1190 C 0.13662 0.55002 0.66682 0.0
C1191 C 0.19288 0.61205 0.66939 0.0
C1192 C 0.18974 0.59863 0.65476 0.0
C1193 C 0.17157 0.5785 0.6544 0.0
C1194 C 0.20518 0.60522 0.63971 0.0
C1195 C 0.2126 0.6335 0.67094 0.0
C1196 C 0.20908 0.62197 0.62884 0.0
C1197 C 0.22384 0.62831 0.61478 0.0
C1198 C 0.23484 0.6179 0.61125 0.0
C1199 C 0.23066 0.60095 0.62202 0.0
C1200 C 0.21593 0.59465 0.6361 0.0
H1201 H 0.21536 0.63958 0.68501 0.0
H1202 H 0.22717 0.63359 0.66639 0.0
H1203 H 0.21042 0.64422 0.66226 0.0
H1204 H 0.20063 0.63007 0.63117 0.0
H1205 H 0.22654 0.64131 0.60665 0.0
H1206 H 0.5512 0.10678 0.89315 0.0
H1207 H 0.56295 0.12689 0.86535 0.0
H1208 H 0.52919 0.15767 0.88034 0.0
H1209 H 0.51813 0.13835 0.90847 0.0
H1210 H 0.53958 0.12996 0.83695 0.0
H1211 H 0.58996 0.20597 0.87152 0.0
H1212 H 0.57957 0.18166 0.88305 0.0
H1213 H 0.5625 0.19189 0.87873 0.0
C1214 C 0.54639 0.11794 0.8906 0.0
C1215 C 0.53385 0.12105 0.90313 0.0
C1216 C 0.553 0.1293 0.87465 0.0
C1217 C 0.54726 0.14402 0.87096 0.0
C1218 C 0.53415 0.14668 0.88311 0.0
H1219 H 0.57724 0.23096 0.78337 0.0
H1220 H 0.56178 0.20902 0.80988 0.0
C1221 C 0.52761 0.1354 0.89908 0.0
C1222 C 0.55516 0.15675 0.85447 0.0
H1223 H 0.58536 0.20664 0.83991 0.0
C1224 C 0.54962 0.14672 0.83758 0.0
C1225 C 0.56829 0.17862 0.85536 0.0
C1226 C 0.57562 0.1902 0.87313 0.0
C1227 C 0.55667 0.158 0.82152 0.0
C1228 C 0.56978 0.17984 0.82243 0.0
C1229 C 0.57521 0.18988 0.83929 0.0
C1230 C 0.57855 0.19257 0.80606 0.0
C1231 C 0.54982 0.14652 0.8037 0.0
C1232 C 0.59322 0.19068 0.79526 0.0
C1233 C 0.60213 0.20322 0.78017 0.0
C1234 C 0.59656 0.21792 0.77562 0.0
C1235 C 0.58182 0.21976 0.78647 0.0
C1236 C 0.57298 0.20725 0.80162 0.0
H1237 H 0.53568 0.13059 0.80516 0.0
H1238 H 0.54578 0.15496 0.79374 0.0
H1239 H 0.56327 0.14527 0.79823 0.0
H1240 H 0.59802 0.1797 0.79866 0.0
H1241 H 0.61347 0.20144 0.77213 0.0
H1242 H 0.39921 0.54026 0.06275 0.0
H1243 H 0.39419 0.55282 0.03393 0.0
H1244 H 0.46195 0.58169 0.02327 0.0
H1245 H 0.46712 0.56876 0.0519 0.0
H1246 H 0.44406 0.60812 0.02014 0.0
H1247 H 0.3973 0.53431 0.98138 0.0
H1248 H 0.38769 0.53428 0.00369 0.0
H1249 H 0.41351 0.53692 0.00094 0.0
C1250 C 0.41299 0.54885 0.05411 0.0
C1251 C 0.43358 0.55347 0.05966 0.0
C1252 C 0.41008 0.55607 0.03767 0.0
C1253 C 0.42767 0.56802 0.02645 0.0
C1254 C 0.44818 0.57244 0.03177 0.0
H1255 H 0.43363 0.61957 0.92049 0.0
H1256 H 0.43936 0.60369 0.947 0.0
C1257 C 0.4511 0.56514 0.04817 0.0
C1258 C 0.42484 0.57697 0.00972 0.0
H1259 H 0.3998 0.56427 0.96848 0.0
C1260 C 0.4345 0.59856 0.0088 0.0
C1261 C 0.41239 0.56441 0.99498 0.0
C1262 C 0.40223 0.54119 0.99514 0.0
C1263 C 0.43164 0.60791 0.99361 0.0
C1264 C 0.41886 0.59533 0.97905 0.0
C1265 C 0.4095 0.57378 0.97979 0.0
C1266 C 0.415 0.60442 0.96297 0.0
C1267 C 0.44213 0.63115 0.99316 0.0
C1268 C 0.39931 0.60991 0.96328 0.0
C1269 C 0.39591 0.61888 0.94817 0.0
C1270 C 0.40826 0.62262 0.93256 0.0
C1271 C 0.42392 0.61699 0.93232 0.0
C1272 C 0.42719 0.60787 0.9474 0.0
H1273 H 0.45302 0.63887 0.00493 0.0
H1274 H 0.45149 0.63728 0.98058 0.0
H1275 H 0.42952 0.63526 0.99313 0.0
H1276 H 0.38977 0.60731 0.97524 0.0
H1277 H 0.38374 0.62304 0.94879 0.0
H1278 H 0.91096 0.43713 0.22037 0.0
H1279 H 0.89117 0.42678 0.19159 0.0
H1280 H 0.84779 0.44494 0.21176 0.0
H1281 H 0.86721 0.45498 0.24062 0.0
H1282 H 0.82787 0.4037 0.19611 0.0
H1283 H 0.88916 0.46445 0.15152 0.0
H1284 H 0.8982 0.45106 0.1656 0.0
H1285 H 0.88994 0.46742 0.17577 0.0
C1286 C 0.89726 0.439 0.21863 0.0
C1287 C 0.89069 0.44694 0.23274 0.0
C1288 C 0.88609 0.43323 0.20215 0.0
C1289 C 0.86817 0.43529 0.19953 0.0
C1290 C 0.86168 0.44338 0.21351 0.0
H1291 H 0.77052 0.40189 0.11709 0.0
H1292 H 0.79224 0.41253 0.14474 0.0
C1293 C 0.87289 0.44923 0.22993 0.0
C1294 C 0.85546 0.42807 0.18257 0.0
H1295 H 0.85739 0.43786 0.13751 0.0
C1296 C 0.83428 0.41116 0.18328 0.0
C1297 C 0.86399 0.43777 0.1659 0.0
C1298 C 0.88652 0.45628 0.16454 0.0
C1299 C 0.82135 0.40357 0.16769 0.0
C1300 C 0.82972 0.41351 0.15103 0.0
C1301 C 0.85101 0.4303 0.1503 0.0
C1302 C 0.81651 0.40694 0.13426 0.0
C1303 C 0.79901 0.38477 0.16916 0.0
C1304 C 0.82323 0.40076 0.11903 0.0
C1305 C 0.81096 0.39486 0.10312 0.0
C1306 C 0.79175 0.39508 0.10215 0.0
C1307 C 0.78513 0.40137 0.11742 0.0
C1308 C 0.79746 0.40735 0.13328 0.0
H1309 H 0.79744 0.37556 0.18133 0.0
H1310 H 0.78723 0.38986 0.17029 0.0
H1311 H 0.79474 0.37458 0.15707 0.0
H1312 H 0.83795 0.40044 0.11947 0.0
H1313 H 0.81654 0.39015 0.09158 0.0
loop_
_geom_bond_atom_site_label_1
_geom_bond_atom_site_label_2
_geom_bond_distance
_geom_bond_site_symmetry_2
_ccdc_geom_bond_type
H0 C27 0.929 . S
N1 C26 1.433 . S
N1 C32 1.435 . S
N1 C38 1.423 . S
H2 C28 0.930 . S
H3 C31 0.931 . S
H4 C30 0.929 . S
H5 C33 0.930 . S
H6 C34 0.932 . S
H7 C37 0.929 . S
H8 C36 0.931 . S
H9 C39 0.929 . S
H10 C43 0.932 . S
H11 C40 0.931 . S
H12 C42 0.929 . S
H13 C45 0.929 . S
H14 C46 0.930 . S
H15 C48 0.929 . S
H16 C49 0.931 . S
H17 C51 0.930 . S
H18 C52 0.932 . S
H19 C54 0.931 . S
H20 C55 0.929 . S
H21 C57 0.929 . S
H22 C58 0.931 . S
H23 C60 0.929 . S
N24 C44 1.433 . S
N24 C50 1.435 . S
N24 C56 1.423 . S
H25 C61 0.932 . S
C26 N1 1.433 . S
C26 C27 1.363 . S
C26 C31 1.370 . S
C27 H0 0.929 . S
C27 C26 1.363 . S
C27 C28 1.385 . S
C28 H2 0.930 . S
C28 C27 1.385 . S
C28 C29 1.357 . S
C29 C28 1.357 . S
C29 C30 1.406 . S
C30 H4 0.929 . S
C30 C29 1.406 . S
C30 C31 1.391 . S
C31 H3 0.931 . S
C31 C26 1.370 . S
C31 C30 1.391 . S
C32 N1 1.435 . S
C32 C33 1.358 . S
C32 C37 1.371 . S
C33 H5 0.930 . S
C33 C32 1.358 . S
C33 C34 1.405 . S
C34 H6 0.932 . S
C34 C33 1.405 . S
C34 C35 1.383 . S
C35 C34 1.383 . S
C35 C36 1.393 . S
C36 H8 0.931 . S
C36 C35 1.393 . S
C36 C37 1.382 . S
C37 H7 0.929 . S
C37 C32 1.371 . S
C37 C36 1.382 . S
C38 N1 1.423 . S
C38 C39 1.362 . S
C38 C43 1.388 . S
C39 H9 0.929 . S
C39 C38 1.362 . S
C39 C40 1.376 . S
C40 H11 0.931 . S
C40 C39 1.376 . S
C40 C41 1.396 . S
C41 C40 1.396 . S
C41 C42 1.348 . S
C41 C59 1.472 1_455 S
C42 H12 0.929 . S
C42 C41 1.348 . S
C42 C43 1.443 . S
C43 H10 0.932 . S
C43 C38 1.388 . S
C43 C42 1.443 . S
C44 N24 1.433 . S
C44 C45 1.363 . S
C44 C49 1.370 . S
C45 H13 0.929 . S
C45 C44 1.363 . S
C45 C46 1.385 . S
C46 H14 0.930 . S
C46 C45 1.385 . S
C46 C47 1.357 . S
C47 C46 1.357 . S
C47 C48 1.406 . S
C48 H15 0.929 . S
C48 C47 1.406 . S
C48 C49 1.391 . S
C49 H16 0.931 . S
C49 C44 1.370 . S
C49 C48 1.391 . S
C50 N24 1.435 . S
C50 C51 1.358 . S
C50 C55 1.371 . S
C51 H17 0.930 . S
C51 C50 1.358 . S
C51 C52 1.405 . S
C52 H18 0.932 . S
C52 C51 1.405 . S
C52 C53 1.383 . S
C53 C52 1.383 . S
C53 C54 1.393 . S
C54 H19 0.931 . S
C54 C53 1.393 . S
C54 C55 1.382 . S
C55 H20 0.929 . S
C55 C50 1.371 . S
C55 C54 1.382 . S
C56 N24 1.423 . S
C56 C57 1.362 . S
C56 C61 1.388 . S
C57 H21 0.929 . S
C57 C56 1.362 . S
C57 C58 1.376 . S
C58 H22 0.931 . S
C58 C57 1.376 . S
C58 C59 1.396 . S
C59 C41 1.472 1_655 S
C59 C58 1.396 . S
C59 C60 1.348 . S
C60 H23 0.929 . S
C60 C59 1.348 . S
C60 C61 1.443 . S
C61 H25 0.932 . S
C61 C56 1.388 . S
C61 C60 1.443 . S
H62 C89 0.929 . S
N63 C88 1.433 . S
N63 C94 1.435 . S
N63 C100 1.423 . S
H64 C90 0.930 . S
H65 C93 0.931 . S
H66 C92 0.929 . S
H67 C95 0.930 . S
H68 C96 0.932 . S
H69 C99 0.929 . S
H70 C98 0.931 . S
H71 C101 0.929 . S
H72 C105 0.932 . S
H73 C102 0.930 . S
H74 C104 0.929 . S
H75 C107 0.929 . S
H76 C108 0.930 . S
H77 C110 0.929 . S
H78 C111 0.931 . S
H79 C113 0.930 . S
H80 C114 0.932 . S
H81 C116 0.931 . S
H82 C117 0.929 . S
H83 C119 0.929 . S
H84 C120 0.931 . S
H85 C122 0.929 . S
N86 C106 1.433 . S
N86 C112 1.435 . S
N86 C118 1.423 . S
H87 C123 0.932 . S
C88 N63 1.433 . S
C88 C89 1.363 . S
C88 C93 1.370 . S
C89 H62 0.929 . S
C89 C88 1.363 . S
C89 C90 1.385 . S
C90 H64 0.930 . S
C90 C89 1.385 . S
C90 C91 1.357 . S
C91 C90 1.357 . S
C91 C92 1.406 . S
C92 H66 0.929 . S
C92 C91 1.406 . S
C92 C93 1.391 . S
C93 H65 0.931 . S
C93 C88 1.370 . S
C93 C92 1.391 . S
C94 N63 1.435 . S
C94 C95 1.358 . S
C94 C99 1.371 . S
C95 H67 0.930 . S
C95 C94 1.358 . S
C95 C96 1.405 . S
C96 H68 0.932 . S
C96 C95 1.405 . S
C96 C97 1.383 . S
C97 C96 1.383 . S
C97 C98 1.393 . S
C98 H70 0.931 . S
C98 C97 1.393 . S
C98 C99 1.382 . S
C99 H69 0.929 . S
C99 C94 1.371 . S
C99 C98 1.382 . S
C100 N63 1.423 . S
C100 C101 1.362 . S
C100 C105 1.388 . S
C101 H71 0.929 . S
C101 C100 1.362 . S
C101 C102 1.376 . S
C102 H73 0.930 . S
C102 C101 1.376 . S
C102 C103 1.396 1_565 S
C103 C102 1.396 1_545 S
C103 C104 1.348 . S
C103 C121 1.472 . S
C104 H74 0.929 . S
C104 C103 1.348 . S
C104 C105 1.443 1_545 S
C105 H72 0.932 . S
C105 C100 1.388 . S
C105 C104 1.443 1_565 S
C106 N86 1.433 . S
C106 C107 1.363 . S
C106 C111 1.370 . S
C107 H75 0.929 . S
C107 C106 1.363 . S
C107 C108 1.385 . S
C108 H76 0.930 . S
C108 C107 1.385 . S
C108 C109 1.357 . S
C109 C108 1.357 . S
C109 C110 1.406 . S
C110 H77 0.929 . S
C110 C109 1.406 . S
C110 C111 1.391 . S
C111 H78 0.931 . S
C111 C106 1.370 . S
C111 C110 1.391 . S
C112 N86 1.435 . S
C112 C113 1.358 . S
C112 C117 1.371 . S
C113 H79 0.930 . S
C113 C112 1.358 . S
C113 C114 1.405 . S
C114 H80 0.932 . S
C114 C113 1.405 . S
C114 C115 1.383 . S
C115 C114 1.383 . S
C115 C116 1.393 . S
C116 H81 0.931 . S
C116 C115 1.393 . S
C116 C117 1.382 . S
C117 H82 0.929 . S
C117 C112 1.371 . S
C117 C116 1.382 . S
C118 N86 1.423 . S
C118 C119 1.362 . S
C118 C123 1.388 . S
C119 H83 0.929 . S
C119 C118 1.362 . S
C119 C120 1.376 . S
C120 H84 0.931 . S
C120 C119 1.376 . S
C120 C121 1.396 . S
C121 C103 1.472 . S
C121 C120 1.396 . S
C121 C122 1.348 . S
C122 H85 0.929 . S
C122 C121 1.348 . S
C122 C123 1.443 . S
C123 H87 0.932 . S
C123 C118 1.388 . S
C123 C122 1.443 . S
H124 C151 0.929 . S
N125 C150 1.433 . S
N125 C156 1.435 . S
N125 C162 1.423 . S
H126 C152 0.930 . S
H127 C155 0.931 . S
H128 C154 0.929 . S
H129 C157 0.930 . S
H130 C158 0.932 . S
H131 C161 0.929 . S
H132 C160 0.931 . S
H133 C163 0.929 . S
H134 C167 0.932 . S
H135 C164 0.931 . S
H136 C166 0.929 . S
H137 C169 0.929 . S
H138 C170 0.930 . S
H139 C172 0.929 . S
H140 C173 0.931 . S
H141 C175 0.930 . S
H142 C176 0.932 . S
H143 C178 0.931 . S
H144 C179 0.929 . S
H145 C181 0.929 . S
H146 C182 0.931 . S
H147 C184 0.929 . S
N148 C168 1.433 . S
N148 C174 1.435 . S
N148 C180 1.423 . S
H149 C185 0.932 . S
C150 N125 1.433 . S
C150 C151 1.363 . S
C150 C155 1.370 . S
C151 H124 0.929 . S
C151 C150 1.363 . S
C151 C152 1.385 . S
C152 H126 0.930 . S
C152 C151 1.385 . S
C152 C153 1.357 . S
C153 C152 1.357 . S
C153 C154 1.406 . S
C154 H128 0.929 . S
C154 C153 1.406 . S
C154 C155 1.391 . S
C155 H127 0.931 . S
C155 C150 1.370 . S
C155 C154 1.391 . S
C156 N125 1.435 . S
C156 C157 1.358 . S
C156 C161 1.371 . S
C157 H129 0.930 . S
C157 C156 1.358 . S
C157 C158 1.405 . S
C158 H130 0.932 . S
C158 C157 1.405 . S
C158 C159 1.383 . S
C159 C158 1.383 . S
C159 C160 1.393 . S
C160 H132 0.931 . S
C160 C159 1.393 . S
C160 C161 1.382 . S
C161 H131 0.929 . S
C161 C156 1.371 . S
C161 C160 1.382 . S
C162 N125 1.423 . S
C162 C163 1.362 . S
C162 C167 1.388 . S
C163 H133 0.929 . S
C163 C162 1.362 . S
C163 C164 1.376 . S
C164 H135 0.931 . S
C164 C163 1.376 . S
C164 C165 1.396 . S
C165 C164 1.396 . S
C165 C166 1.348 . S
C165 C183 1.472 . S
C166 H136 0.929 . S
C166 C165 1.348 . S
C166 C167 1.443 . S
C167 H134 0.932 . S
C167 C162 1.388 . S
C167 C166 1.443 . S
C168 N148 1.433 . S
C168 C169 1.363 . S
C168 C173 1.370 . S
C169 H137 0.929 . S
C169 C168 1.363 . S
C169 C170 1.385 . S
C170 H138 0.930 . S
C170 C169 1.385 . S
C170 C171 1.357 . S
C171 C170 1.357 . S
C171 C172 1.406 . S
C172 H139 0.929 . S
C172 C171 1.406 . S
C172 C173 1.391 . S
C173 H140 0.931 . S
C173 C168 1.370 . S
C173 C172 1.391 . S
C174 N148 1.435 . S
C174 C175 1.358 . S
C174 C179 1.371 . S
C175 H141 0.930 . S
C175 C174 1.358 . S
C175 C176 1.405 . S
C176 H142 0.932 . S
C176 C175 1.405 . S
C176 C177 1.383 . S
C177 C176 1.383 . S
C177 C178 1.393 . S
C178 H143 0.931 . S
C178 C177 1.393 . S
C178 C179 1.382 . S
C179 H144 0.929 . S
C179 C174 1.371 . S
C179 C178 1.382 . S
C180 N148 1.423 . S
C180 C181 1.362 . S
C180 C185 1.388 . S
C181 H145 0.929 . S
C181 C180 1.362 . S
C181 C182 1.376 . S
C182 H146 0.931 . S
C182 C181 1.376 . S
C182 C183 1.396 . S
C183 C165 1.472 . S
C183 C182 1.396 . S
C183 C184 1.348 . S
C184 H147 0.929 . S
C184 C183 1.348 . S
C184 C185 1.443 . S
C185 H149 0.932 . S
C185 C180 1.388 . S
C185 C184 1.443 . S
H186 C213 0.929 . S
N187 C212 1.433 . S
N187 C218 1.435 . S
N187 C224 1.423 . S
H188 C214 0.930 . S
H189 C217 0.931 . S
H190 C216 0.929 . S
H191 C219 0.930 . S
H192 C220 0.932 . S
H193 C223 0.929 . S
H194 C222 0.931 . S
H195 C225 0.929 . S
H196 C229 0.932 . S
H197 C226 0.931 . S
H198 C228 0.929 . S
H199 C231 0.929 . S
H200 C232 0.930 . S
H201 C234 0.929 . S
H202 C235 0.931 . S
H203 C237 0.930 . S
H204 C238 0.932 . S
H205 C240 0.931 . S
H206 C241 0.929 . S
H207 C243 0.929 . S
H208 C244 0.931 . S
H209 C246 0.929 . S
N210 C230 1.433 . S
N210 C236 1.435 . S
N210 C242 1.423 . S
H211 C247 0.932 . S
C212 N187 1.433 . S
C212 C213 1.363 . S
C212 C217 1.370 . S
C213 H186 0.929 . S
C213 C212 1.363 . S
C213 C214 1.385 . S
C214 H188 0.930 . S
C214 C213 1.385 . S
C214 C215 1.357 . S
C215 C214 1.357 . S
C215 C216 1.406 . S
C216 H190 0.929 . S
C216 C215 1.406 . S
C216 C217 1.391 . S
C217 H189 0.931 . S
C217 C212 1.370 . S
C217 C216 1.391 . S
C218 N187 1.435 . S
C218 C219 1.358 . S
C218 C223 1.371 . S
C219 H191 0.930 . S
C219 C218 1.358 . S
C219 C220 1.405 . S
C220 H192 0.932 . S
C220 C219 1.405 . S
C220 C221 1.383 . S
C221 C220 1.383 . S
C221 C222 1.393 . S
C222 H194 0.931 . S
C222 C221 1.393 . S
C222 C223 1.382 . S
C223 H193 0.929 . S
C223 C218 1.371 . S
C223 C222 1.382 . S
C224 N187 1.423 . S
C224 C225 1.362 . S
C224 C229 1.388 . S
C225 H195 0.929 . S
C225 C224 1.362 . S
C225 C226 1.376 . S
C226 H197 0.931 . S
C226 C225 1.376 . S
C226 C227 1.396 . S
C227 C226 1.396 . S
C227 C228 1.348 . S
C227 C245 1.472 1_455 S
C228 H198 0.929 . S
C228 C227 1.348 . S
C228 C229 1.443 . S
C229 H196 0.932 . S
C229 C224 1.388 . S
C229 C228 1.443 . S
C230 N210 1.433 . S
C230 C231 1.363 . S
C230 C235 1.370 . S
C231 H199 0.929 . S
C231 C230 1.363 . S
C231 C232 1.385 . S
C232 H200 0.930 . S
C232 C231 1.385 . S
C232 C233 1.357 . S
C233 C232 1.357 . S
C233 C234 1.406 . S
C234 H201 0.929 . S
C234 C233 1.406 . S
C234 C235 1.391 . S
C235 H202 0.931 . S
C235 C230 1.370 . S
C235 C234 1.391 . S
C236 N210 1.435 . S
C236 C237 1.358 . S
C236 C241 1.371 . S
C237 H203 0.930 . S
C237 C236 1.358 . S
C237 C238 1.405 . S
C238 H204 0.932 . S
C238 C237 1.405 . S
C238 C239 1.383 . S
C239 C238 1.383 . S
C239 C240 1.393 . S
C240 H205 0.931 . S
C240 C239 1.393 . S
C240 C241 1.382 . S
C241 H206 0.929 . S
C241 C236 1.371 . S
C241 C240 1.382 . S
C242 N210 1.423 . S
C242 C243 1.362 . S
C242 C247 1.388 . S
C243 H207 0.929 . S
C243 C242 1.362 . S
C243 C244 1.376 . S
C244 H208 0.931 . S
C244 C243 1.376 . S
C244 C245 1.396 . S
C245 C227 1.472 1_655 S
C245 C244 1.396 . S
C245 C246 1.348 . S
C246 H209 0.929 . S
C246 C245 1.348 . S
C246 C247 1.443 . S
C247 H211 0.932 . S
C247 C242 1.388 . S
C247 C246 1.443 . S
H248 C275 0.929 . S
N249 C274 1.433 . S
N249 C280 1.435 . S
N249 C286 1.423 . S
H250 C276 0.930 . S
H251 C279 0.931 . S
H252 C278 0.929 . S
H253 C281 0.930 . S
H254 C282 0.932 . S
H255 C285 0.929 . S
H256 C284 0.931 . S
H257 C287 0.929 . S
H258 C291 0.932 . S
H259 C288 0.931 . S
H260 C290 0.929 . S
H261 C293 0.929 . S
H262 C294 0.930 . S
H263 C296 0.929 . S
H264 C297 0.931 . S
H265 C299 0.930 1_554 S
H266 C300 0.932 . S
H267 C302 0.931 . S
H268 C303 0.929 . S
H269 C305 0.929 . S
H270 C306 0.931 1_554 S
H271 C308 0.929 . S
N272 C292 1.433 . S
N272 C298 1.435 1_554 S
N272 C304 1.423 1_554 S
H273 C309 0.932 . S
C274 N249 1.433 . S
C274 C275 1.363 . S
C274 C279 1.370 . S
C275 H248 0.929 . S
C275 C274 1.363 . S
C275 C276 1.385 . S
C276 H250 0.930 . S
C276 C275 1.385 . S
C276 C277 1.357 1_556 S
C277 C276 1.357 1_554 S
C277 C278 1.406 . S
C278 H252 0.929 . S
C278 C277 1.406 . S
C278 C279 1.391 1_554 S
C279 H251 0.931 . S
C279 C274 1.370 . S
C279 C278 1.391 1_556 S
C280 N249 1.435 . S
C280 C281 1.358 . S
C280 C285 1.371 . S
C281 H253 0.930 . S
C281 C280 1.358 . S
C281 C282 1.405 . S
C282 H254 0.932 . S
C282 C281 1.405 . S
C282 C283 1.383 . S
C283 C282 1.383 . S
C283 C284 1.393 . S
C284 H256 0.931 . S
C284 C283 1.393 . S
C284 C285 1.382 . S
C285 H255 0.929 . S
C285 C280 1.371 . S
C285 C284 1.382 . S
C286 N249 1.423 . S
C286 C287 1.362 . S
C286 C291 1.388 . S
C287 H257 0.929 . S
C287 C286 1.362 . S
C287 C288 1.376 . S
C288 H259 0.931 . S
C288 C287 1.376 . S
C288 C289 1.396 . S
C289 C288 1.396 . S
C289 C290 1.348 . S
C289 C307 1.472 1_545 S
C290 H260 0.929 . S
C290 C289 1.348 . S
C290 C291 1.443 . S
C291 H258 0.932 . S
C291 C286 1.388 . S
C291 C290 1.443 . S
C292 N272 1.433 . S
C292 C293 1.363 . S
C292 C297 1.370 . S
C293 H261 0.929 . S
C293 C292 1.363 . S
C293 C294 1.385 . S
C294 H262 0.930 . S
C294 C293 1.385 . S
C294 C295 1.357 . S
C295 C294 1.357 . S
C295 C296 1.406 . S
C296 H263 0.929 . S
C296 C295 1.406 . S
C296 C297 1.391 . S
C297 H264 0.931 . S
C297 C292 1.370 . S
C297 C296 1.391 . S
C298 N272 1.435 1_556 S
C298 C299 1.358 . S
C298 C303 1.371 . S
C299 H265 0.930 1_556 S
C299 C298 1.358 . S
C299 C300 1.405 . S
C300 H266 0.932 . S
C300 C299 1.405 . S
C300 C301 1.383 . S
C301 C300 1.383 . S
C301 C302 1.393 . S
C302 H267 0.931 . S
C302 C301 1.393 . S
C302 C303 1.382 . S
C303 H268 0.929 . S
C303 C298 1.371 . S
C303 C302 1.382 . S
C304 N272 1.423 1_556 S
C304 C305 1.362 1_556 S
C304 C309 1.388 . S
C305 H269 0.929 . S
C305 C304 1.362 1_554 S
C305 C306 1.376 1_554 S
C306 H270 0.931 1_556 S
C306 C305 1.376 1_556 S
C306 C307 1.396 . S
C307 C289 1.472 1_565 S
C307 C306 1.396 . S
C307 C308 1.348 . S
C308 H271 0.929 . S
C308 C307 1.348 . S
C308 C309 1.443 . S
C309 H273 0.932 . S
C309 C304 1.388 . S
C309 C308 1.443 . S
H310 C337 0.929 . S
N311 C336 1.433 . S
N311 C342 1.435 . S
N311 C348 1.423 . S
H312 C338 0.930 . S
H313 C341 0.931 . S
H314 C340 0.929 . S
H315 C343 0.930 . S
H316 C344 0.932 . S
H317 C347 0.929 . S
H318 C346 0.931 . S
H319 C349 0.929 . S
H320 C353 0.932 . S
H321 C350 0.931 . S
H322 C352 0.929 . S
H323 C355 0.929 . S
H324 C356 0.930 . S
H325 C358 0.929 . S
H326 C359 0.931 . S
H327 C361 0.930 . S
H328 C362 0.932 . S
H329 C364 0.931 . S
H330 C365 0.929 . S
H331 C367 0.929 . S
H332 C368 0.931 . S
H333 C370 0.929 . S
N334 C354 1.433 . S
N334 C360 1.435 . S
N334 C366 1.423 . S
H335 C371 0.932 . S
C336 N311 1.433 . S
C336 C337 1.363 . S
C336 C341 1.370 . S
C337 H310 0.929 . S
C337 C336 1.363 . S
C337 C338 1.385 . S
C338 H312 0.930 . S
C338 C337 1.385 . S
C338 C339 1.357 . S
C339 C338 1.357 . S
C339 C340 1.406 . S
C340 H314 0.929 . S
C340 C339 1.406 . S
C340 C341 1.391 . S
C341 H313 0.931 . S
C341 C336 1.370 . S
C341 C340 1.391 . S
C342 N311 1.435 . S
C342 C343 1.358 . S
C342 C347 1.371 . S
C343 H315 0.930 . S
C343 C342 1.358 . S
C343 C344 1.405 . S
C344 H316 0.932 . S
C344 C343 1.405 . S
C344 C345 1.383 . S
C345 C344 1.383 . S
C345 C346 1.393 . S
C346 H318 0.931 . S
C346 C345 1.393 . S
C346 C347 1.382 . S
C347 H317 0.929 . S
C347 C342 1.371 . S
C347 C346 1.382 . S
C348 N311 1.423 . S
C348 C349 1.362 . S
C348 C353 1.388 . S
C349 H319 0.929 . S
C349 C348 1.362 . S
C349 C350 1.376 . S
C350 H321 0.931 . S
C350 C349 1.376 . S
C350 C351 1.396 . S
C351 C350 1.396 . S
C351 C352 1.348 . S
C351 C369 1.472 . S
C352 H322 0.929 . S
C352 C351 1.348 . S
C352 C353 1.443 . S
C353 H320 0.932 . S
C353 C348 1.388 . S
C353 C352 1.443 . S
C354 N334 1.433 . S
C354 C355 1.363 . S
C354 C359 1.370 . S
C355 H323 0.929 . S
C355 C354 1.363 . S
C355 C356 1.385 . S
C356 H324 0.930 . S
C356 C355 1.385 . S
C356 C357 1.357 . S
C357 C356 1.357 . S
C357 C358 1.406 . S
C358 H325 0.929 . S
C358 C357 1.406 . S
C358 C359 1.391 . S
C359 H326 0.931 . S
C359 C354 1.370 . S
C359 C358 1.391 . S
C360 N334 1.435 . S
C360 C361 1.358 . S
C360 C365 1.371 . S
C361 H327 0.930 . S
C361 C360 1.358 . S
C361 C362 1.405 . S
C362 H328 0.932 . S
C362 C361 1.405 . S
C362 C363 1.383 . S
C363 C362 1.383 . S
C363 C364 1.393 . S
C364 H329 0.931 . S
C364 C363 1.393 . S
C364 C365 1.382 . S
C365 H330 0.929 . S
C365 C360 1.371 . S
C365 C364 1.382 . S
C366 N334 1.423 . S
C366 C367 1.362 . S
C366 C371 1.388 . S
C367 H331 0.929 . S
C367 C366 1.362 . S
C367 C368 1.376 . S
C368 H332 0.931 . S
C368 C367 1.376 . S
C368 C369 1.396 . S
C369 C351 1.472 . S
C369 C368 1.396 . S
C369 C370 1.348 . S
C370 H333 0.929 . S
C370 C369 1.348 . S
C370 C371 1.443 . S
C371 H335 0.932 . S
C371 C366 1.388 . S
C371 C370 1.443 . S
C372 O373 1.160 . S
C372 O379 1.185 . S
O373 C372 1.160 . S
O374 Zn375 1.899 . S
O374 C382 1.284 . S
Zn375 O374 1.899 . S
Zn375 O376 2.032 . S
Zn375 O379 2.086 . S
Zn375 O384 1.977 . S
O376 Zn375 2.032 . S
O376 C380 1.278 . S
C377 O378 1.203 . S
C377 O384 1.267 . S
O378 C377 1.203 . S
O379 C372 1.185 . S
O379 Zn375 2.086 . S
C380 O376 1.278 . S
C380 O381 1.211 . S
O381 C380 1.211 . S
C382 O374 1.284 . S
C382 O383 1.273 . S
O383 C382 1.273 . S
O384 Zn375 1.977 . S
O384 C377 1.267 . S
C385 O386 1.160 . S
C385 O392 1.185 . S
O386 C385 1.160 . S
O387 Zn388 1.899 . S
O387 C395 1.284 . S
Zn388 O387 1.899 . S
Zn388 O389 2.032 . S
Zn388 O392 2.086 . S
Zn388 O397 1.977 . S
O389 Zn388 2.032 . S
O389 C393 1.278 . S
C390 O391 1.203 . S
C390 O397 1.267 . S
O391 C390 1.203 . S
O392 C385 1.185 . S
O392 Zn388 2.086 . S
C393 O389 1.278 . S
C393 O394 1.211 . S
O394 C393 1.211 . S
C395 O387 1.284 . S
C395 O396 1.273 . S
O396 C395 1.273 . S
O397 Zn388 1.977 . S
O397 C390 1.267 . S
C398 O399 1.160 . S
C398 O405 1.185 . S
O399 C398 1.160 . S
O400 Zn401 1.899 . S
O400 C408 1.284 . S
Zn401 O400 1.899 . S
Zn401 O402 2.032 . S
Zn401 O405 2.086 . S
Zn401 O410 1.977 . S
O402 Zn401 2.032 . S
O402 C406 1.278 . S
C403 O404 1.203 . S
C403 O410 1.267 . S
O404 C403 1.203 . S
O405 C398 1.185 . S
O405 Zn401 2.086 . S
C406 O402 1.278 . S
C406 O407 1.211 . S
O407 C406 1.211 . S
C408 O400 1.284 . S
C408 O409 1.273 . S
O409 C408 1.273 . S
O410 Zn401 1.977 . S
O410 C403 1.267 . S
C411 O412 1.160 . S
C411 O418 1.185 . S
O412 C411 1.160 . S
O413 Zn414 1.899 . S
O413 C421 1.284 . S
Zn414 O413 1.899 . S
Zn414 O415 2.032 . S
Zn414 O418 2.086 . S
Zn414 O423 1.977 . S
O415 Zn414 2.032 . S
O415 C419 1.278 . S
C416 O417 1.203 . S
C416 O423 1.267 . S
O417 C416 1.203 . S
O418 C411 1.185 . S
O418 Zn414 2.086 . S
C419 O415 1.278 . S
C419 O420 1.211 . S
O420 C419 1.211 . S
C421 O413 1.284 . S
C421 O422 1.273 . S
O422 C421 1.273 . S
O423 Zn414 1.977 . S
O423 C416 1.267 . S
C424 O425 1.160 . S
C424 O431 1.185 . S
O425 C424 1.160 . S
O426 Zn427 1.899 . S
O426 C434 1.284 . S
Zn427 O426 1.899 . S
Zn427 O428 2.032 . S
Zn427 O431 2.086 . S
Zn427 O436 1.977 . S
O428 Zn427 2.032 . S
O428 C432 1.278 . S
C429 O430 1.203 . S
C429 O436 1.267 . S
O430 C429 1.203 . S
O431 C424 1.185 . S
O431 Zn427 2.086 . S
C432 O428 1.278 . S
C432 O433 1.211 . S
O433 C432 1.211 . S
C434 O426 1.284 . S
C434 O435 1.273 . S
O435 C434 1.273 . S
O436 Zn427 1.977 . S
O436 C429 1.267 . S
C437 O438 1.160 . S
C437 O444 1.185 . S
O438 C437 1.160 . S
O439 Zn440 1.899 . S
O439 C447 1.284 . S
Zn440 O439 1.899 . S
Zn440 O441 2.032 . S
Zn440 O444 2.086 . S
Zn440 O449 1.977 . S
O441 Zn440 2.032 . S
O441 C445 1.278 . S
C442 O443 1.203 . S
C442 O449 1.267 . S
O443 C442 1.203 . S
O444 C437 1.185 . S
O444 Zn440 2.086 . S
C445 O441 1.278 . S
C445 O446 1.211 . S
O446 C445 1.211 . S
C447 O439 1.284 . S
C447 O448 1.273 . S
O448 C447 1.273 . S
O449 Zn440 1.977 . S
O449 C442 1.267 . S
H450 C458 0.929 . S
H451 C460 0.930 . S
H452 C462 0.930 . S
H453 C465 0.929 . S
H454 C468 0.930 . S
H455 C470 0.960 . S
H456 C470 0.960 . S
H457 C470 0.960 . S
C458 H450 0.929 . S
C458 C459 1.377 . S
C458 C460 1.384 . S
C459 C458 1.377 . S
C459 C465 1.390 . S
C460 H451 0.930 . S
C460 C458 1.384 . S
C460 C461 1.372 . S
C461 C460 1.372 . S
C461 C462 1.400 . S
C461 C466 1.490 . S
C462 H452 0.930 . S
C462 C461 1.400 . S
C462 C465 1.386 . S
H463 C479 0.930 . S
H464 C480 0.931 . S
C465 H453 0.929 . S
C465 C459 1.390 . S
C465 C462 1.386 . S
C466 C461 1.490 . S
C466 C468 1.395 . S
C466 C469 1.403 . S
H467 C473 0.930 . S
C468 H454 0.930 . S
C468 C466 1.395 . S
C468 C471 1.403 . S
C469 C466 1.403 . S
C469 C470 1.524 . S
C469 C473 1.400 . S
C470 H455 0.960 . S
C470 H456 0.960 . S
C470 H457 0.960 . S
C470 C469 1.524 . S
C471 C468 1.403 . S
C471 C472 1.392 . S
C471 C475 1.495 . S
C472 C471 1.392 . S
C472 C473 1.385 . S
C472 C474 1.478 . S
C473 H467 0.930 . S
C473 C469 1.400 . S
C473 C472 1.385 . S
C474 C472 1.478 . S
C474 C476 1.381 . S
C474 C480 1.383 . S
C475 C471 1.495 . S
C475 H481 0.959 . S
C475 H482 0.961 . S
C475 H483 0.960 . S
C476 C474 1.381 . S
C476 C477 1.394 . S
C476 H484 0.930 . S
C477 C476 1.394 . S
C477 C478 1.383 . S
C477 H485 0.929 . S
C478 C477 1.383 . S
C478 C479 1.377 . S
C479 H463 0.930 . S
C479 C478 1.377 . S
C479 C480 1.379 . S
C480 H464 0.931 . S
C480 C474 1.383 . S
C480 C479 1.379 . S
H481 C475 0.959 . S
H482 C475 0.961 . S
H483 C475 0.960 . S
H484 C476 0.930 . S
H485 C477 0.929 . S
H486 C494 0.929 . S
H487 C496 0.930 . S
H488 C498 0.930 . S
H489 C501 0.929 . S
H490 C504 0.930 . S
H491 C506 0.960 . S
H492 C506 0.960 . S
H493 C506 0.960 . S
C494 H486 0.929 . S
C494 C495 1.377 . S
C494 C496 1.384 . S
C495 C494 1.377 . S
C495 C501 1.390 . S
C496 H487 0.930 . S
C496 C494 1.384 . S
C496 C497 1.372 . S
C497 C496 1.372 . S
C497 C498 1.400 . S
C497 C502 1.490 . S
C498 H488 0.930 . S
C498 C497 1.400 . S
C498 C501 1.386 . S
H499 C515 0.930 . S
H500 C516 0.931 . S
C501 H489 0.929 . S
C501 C495 1.390 . S
C501 C498 1.386 . S
C502 C497 1.490 . S
C502 C504 1.395 . S
C502 C505 1.403 . S
H503 C509 0.930 . S
C504 H490 0.930 . S
C504 C502 1.395 . S
C504 C507 1.403 . S
C505 C502 1.403 . S
C505 C506 1.524 . S
C505 C509 1.400 . S
C506 H491 0.960 . S
C506 H492 0.960 . S
C506 H493 0.960 . S
C506 C505 1.524 . S
C507 C504 1.403 . S
C507 C508 1.392 . S
C507 C511 1.495 . S
C508 C507 1.392 . S
C508 C509 1.385 . S
C508 C510 1.478 . S
C509 H503 0.930 . S
C509 C505 1.400 . S
C509 C508 1.385 . S
C510 C508 1.478 . S
C510 C512 1.381 . S
C510 C516 1.383 . S
C511 C507 1.495 . S
C511 H517 0.959 . S
C511 H518 0.961 . S
C511 H519 0.960 . S
C512 C510 1.381 . S
C512 C513 1.394 . S
C512 H520 0.930 . S
C513 C512 1.394 . S
C513 C514 1.383 . S
C513 H521 0.929 . S
C514 C513 1.383 . S
C514 C515 1.377 . S
C515 H499 0.930 . S
C515 C514 1.377 . S
C515 C516 1.379 . S
C516 H500 0.931 . S
C516 C510 1.383 . S
C516 C515 1.379 . S
H517 C511 0.959 . S
H518 C511 0.961 . S
H519 C511 0.960 . S
H520 C512 0.930 . S
H521 C513 0.929 . S
H522 C530 0.929 . S
H523 C532 0.930 . S
H524 C534 0.930 . S
H525 C537 0.929 . S
H526 C540 0.930 . S
H527 C542 0.960 . S
H528 C542 0.960 . S
H529 C542 0.960 . S
C530 H522 0.929 . S
C530 C531 1.377 . S
C530 C532 1.384 . S
C531 C530 1.377 . S
C531 C537 1.390 . S
C532 H523 0.930 . S
C532 C530 1.384 . S
C532 C533 1.372 . S
C533 C532 1.372 . S
C533 C534 1.400 . S
C533 C538 1.490 . S
C534 H524 0.930 . S
C534 C533 1.400 . S
C534 C537 1.386 . S
H535 C551 0.930 . S
H536 C552 0.931 . S
C537 H525 0.929 . S
C537 C531 1.390 . S
C537 C534 1.386 . S
C538 C533 1.490 . S
C538 C540 1.395 . S
C538 C541 1.403 . S
H539 C545 0.930 . S
C540 H526 0.930 . S
C540 C538 1.395 . S
C540 C543 1.403 . S
C541 C538 1.403 . S
C541 C542 1.524 . S
C541 C545 1.400 . S
C542 H527 0.960 . S
C542 H528 0.960 . S
C542 H529 0.960 . S
C542 C541 1.524 . S
C543 C540 1.403 . S
C543 C544 1.392 . S
C543 C547 1.495 . S
C544 C543 1.392 . S
C544 C545 1.385 . S
C544 C546 1.478 . S
C545 H539 0.930 . S
C545 C541 1.400 . S
C545 C544 1.385 . S
C546 C544 1.478 . S
C546 C548 1.381 . S
C546 C552 1.383 . S
C547 C543 1.495 . S
C547 H553 0.959 . S
C547 H554 0.961 . S
C547 H555 0.960 . S
C548 C546 1.381 . S
C548 C549 1.394 . S
C548 H556 0.930 . S
C549 C548 1.394 . S
C549 C550 1.383 . S
C549 H557 0.929 . S
C550 C549 1.383 . S
C550 C551 1.377 . S
C551 H535 0.930 . S
C551 C550 1.377 . S
C551 C552 1.379 . S
C552 H536 0.931 . S
C552 C546 1.383 . S
C552 C551 1.379 . S
H553 C547 0.959 . S
H554 C547 0.961 . S
H555 C547 0.960 . S
H556 C548 0.930 . S
H557 C549 0.929 . S
H558 C566 0.929 . S
H559 C568 0.930 . S
H560 C570 0.930 . S
H561 C573 0.929 . S
H562 C576 0.930 . S
H563 C578 0.960 . S
H564 C578 0.960 . S
H565 C578 0.960 . S
C566 H558 0.929 . S
C566 C567 1.377 . S
C566 C568 1.384 . S
C567 C566 1.377 . S
C567 C573 1.390 . S
C568 H559 0.930 . S
C568 C566 1.384 . S
C568 C569 1.372 . S
C569 C568 1.372 . S
C569 C570 1.400 . S
C569 C574 1.490 . S
C570 H560 0.930 . S
C570 C569 1.400 . S
C570 C573 1.386 . S
H571 C587 0.930 . S
H572 C588 0.931 . S
C573 H561 0.929 . S
C573 C567 1.390 . S
C573 C570 1.386 . S
C574 C569 1.490 . S
C574 C576 1.395 . S
C574 C577 1.403 . S
H575 C581 0.930 . S
C576 H562 0.930 . S
C576 C574 1.395 . S
C576 C579 1.403 . S
C577 C574 1.403 . S
C577 C578 1.524 . S
C577 C581 1.400 . S
C578 H563 0.960 . S
C578 H564 0.960 . S
C578 H565 0.960 . S
C578 C577 1.524 . S
C579 C576 1.403 . S
C579 C580 1.392 . S
C579 C583 1.495 . S
C580 C579 1.392 . S
C580 C581 1.385 . S
C580 C582 1.478 . S
C581 H575 0.930 . S
C581 C577 1.400 . S
C581 C580 1.385 . S
C582 C580 1.478 . S
C582 C584 1.381 . S
C582 C588 1.383 . S
C583 C579 1.495 . S
C583 H589 0.959 . S
C583 H590 0.961 . S
C583 H591 0.960 . S
C584 C582 1.381 . S
C584 C585 1.394 . S
C584 H592 0.930 . S
C585 C584 1.394 . S
C585 C586 1.383 . S
C585 H593 0.929 . S
C586 C585 1.383 . S
C586 C587 1.377 . S
C587 H571 0.930 . S
C587 C586 1.377 . S
C587 C588 1.379 . S
C588 H572 0.931 . S
C588 C582 1.383 . S
C588 C587 1.379 . S
H589 C583 0.959 . S
H590 C583 0.961 . S
H591 C583 0.960 . S
H592 C584 0.930 . S
H593 C585 0.929 . S
H594 C602 0.929 . S
H595 C604 0.930 . S
H596 C606 0.930 . S
H597 C609 0.929 . S
H598 C612 0.930 . S
H599 C614 0.960 . S
H600 C614 0.960 . S
H601 C614 0.960 . S
C602 H594 0.929 . S
C602 C603 1.377 . S
C602 C604 1.384 . S
C603 C602 1.377 . S
C603 C609 1.390 . S
C604 H595 0.930 . S
C604 C602 1.384 . S
C604 C605 1.372 . S
C605 C604 1.372 . S
C605 C606 1.400 . S
C605 C610 1.490 . S
C606 H596 0.930 . S
C606 C605 1.400 . S
C606 C609 1.386 . S
H607 C623 0.930 . S
H608 C624 0.931 . S
C609 H597 0.929 . S
C609 C603 1.390 . S
C609 C606 1.386 . S
C610 C605 1.490 . S
C610 C612 1.395 . S
C610 C613 1.403 . S
H611 C617 0.930 . S
C612 H598 0.930 . S
C612 C610 1.395 . S
C612 C615 1.403 . S
C613 C610 1.403 . S
C613 C614 1.524 . S
C613 C617 1.400 . S
C614 H599 0.960 . S
C614 H600 0.960 . S
C614 H601 0.960 . S
C614 C613 1.524 . S
C615 C612 1.403 . S
C615 C616 1.392 . S
C615 C619 1.495 . S
C616 C615 1.392 . S
C616 C617 1.385 . S
C616 C618 1.478 . S
C617 H611 0.930 . S
C617 C613 1.400 . S
C617 C616 1.385 . S
C618 C616 1.478 . S
C618 C620 1.381 . S
C618 C624 1.383 . S
C619 C615 1.495 . S
C619 H625 0.959 . S
C619 H626 0.961 . S
C619 H627 0.960 . S
C620 C618 1.381 . S
C620 C621 1.394 . S
C620 H628 0.930 . S
C621 C620 1.394 . S
C621 C622 1.383 . S
C621 H629 0.929 . S
C622 C621 1.383 . S
C622 C623 1.377 . S
C623 H607 0.930 . S
C623 C622 1.377 . S
C623 C624 1.379 . S
C624 H608 0.931 . S
C624 C618 1.383 . S
C624 C623 1.379 . S
H625 C619 0.959 . S
H626 C619 0.961 . S
H627 C619 0.960 . S
H628 C620 0.930 . S
H629 C621 0.929 . S
H630 C638 0.929 . S
H631 C640 0.930 . S
H632 C642 0.930 . S
H633 C645 0.929 . S
H634 C648 0.930 . S
H635 C650 0.960 . S
H636 C650 0.960 . S
H637 C650 0.960 . S
C638 H630 0.929 . S
C638 C639 1.377 . S
C638 C640 1.384 . S
C639 C638 1.377 . S
C639 C645 1.390 . S
C640 H631 0.930 . S
C640 C638 1.384 . S
C640 C641 1.372 . S
C641 C640 1.372 . S
C641 C642 1.400 . S
C641 C646 1.490 . S
C642 H632 0.930 . S
C642 C641 1.400 . S
C642 C645 1.386 . S
H643 C659 0.930 . S
H644 C660 0.931 . S
C645 H633 0.929 . S
C645 C639 1.390 . S
C645 C642 1.386 . S
C646 C641 1.490 . S
C646 C648 1.395 . S
C646 C649 1.403 . S
H647 C653 0.930 . S
C648 H634 0.930 . S
C648 C646 1.395 . S
C648 C651 1.403 . S
C649 C646 1.403 . S
C649 C650 1.524 . S
C649 C653 1.400 . S
C650 H635 0.960 . S
C650 H636 0.960 . S
C650 H637 0.960 . S
C650 C649 1.524 . S
C651 C648 1.403 . S
C651 C652 1.392 . S
C651 C655 1.495 . S
C652 C651 1.392 . S
C652 C653 1.385 . S
C652 C654 1.478 . S
C653 H647 0.930 . S
C653 C649 1.400 . S
C653 C652 1.385 . S
C654 C652 1.478 . S
C654 C656 1.381 . S
C654 C660 1.383 . S
C655 C651 1.495 . S
C655 H661 0.959 . S
C655 H662 0.961 . S
C655 H663 0.960 . S
C656 C654 1.381 . S
C656 C657 1.394 . S
C656 H664 0.930 . S
C657 C656 1.394 . S
C657 C658 1.383 . S
C657 H665 0.929 . S
C658 C657 1.383 . S
C658 C659 1.377 . S
C659 H643 0.930 . S
C659 C658 1.377 . S
C659 C660 1.379 . S
C660 H644 0.931 . S
C660 C654 1.383 . S
C660 C659 1.379 . S
H661 C655 0.959 . S
H662 C655 0.961 . S
H663 C655 0.960 . S
H664 C656 0.930 . S
H665 C657 0.929 . S
H666 C674 0.929 . S
H667 C676 0.930 . S
H668 C678 0.930 . S
H669 C681 0.929 . S
H670 C684 0.930 . S
H671 C686 0.960 . S
H672 C686 0.960 . S
H673 C686 0.960 . S
C674 H666 0.929 . S
C674 C675 1.377 . S
C674 C676 1.384 . S
C675 C674 1.377 . S
C675 C681 1.390 . S
C676 H667 0.930 . S
C676 C674 1.384 . S
C676 C677 1.372 . S
C677 C676 1.372 . S
C677 C678 1.400 . S
C677 C682 1.490 . S
C678 H668 0.930 . S
C678 C677 1.400 . S
C678 C681 1.386 . S
H679 C695 0.930 . S
H680 C696 0.931 . S
C681 H669 0.929 . S
C681 C675 1.390 . S
C681 C678 1.386 . S
C682 C677 1.490 . S
C682 C684 1.395 . S
C682 C685 1.403 . S
H683 C689 0.930 . S
C684 H670 0.930 . S
C684 C682 1.395 . S
C684 C687 1.403 . S
C685 C682 1.403 . S
C685 C686 1.524 . S
C685 C689 1.400 . S
C686 H671 0.960 . S
C686 H672 0.960 . S
C686 H673 0.960 . S
C686 C685 1.524 . S
C687 C684 1.403 . S
C687 C688 1.392 . S
C687 C691 1.495 . S
C688 C687 1.392 . S
C688 C689 1.385 . S
C688 C690 1.478 . S
C689 H683 0.930 . S
C689 C685 1.400 . S
C689 C688 1.385 . S
C690 C688 1.478 . S
C690 C692 1.381 . S
C690 C696 1.383 . S
C691 C687 1.495 . S
C691 H697 0.959 . S
C691 H698 0.961 . S
C691 H699 0.960 . S
C692 C690 1.381 . S
C692 C693 1.394 . S
C692 H700 0.930 . S
C693 C692 1.394 . S
C693 C694 1.383 . S
C693 H701 0.929 . S
C694 C693 1.383 . S
C694 C695 1.377 . S
C695 H679 0.930 . S
C695 C694 1.377 . S
C695 C696 1.379 . S
C696 H680 0.931 . S
C696 C690 1.383 . S
C696 C695 1.379 . S
H697 C691 0.959 . S
H698 C691 0.961 . S
H699 C691 0.960 . S
H700 C692 0.930 . S
H701 C693 0.929 . S
H702 C710 0.929 . S
H703 C712 0.930 . S
H704 C714 0.930 . S
H705 C717 0.929 . S
H706 C720 0.930 . S
H707 C722 0.960 . S
H708 C722 0.960 . S
H709 C722 0.960 . S
C710 H702 0.929 . S
C710 C711 1.377 . S
C710 C712 1.384 . S
C711 C710 1.377 . S
C711 C717 1.390 . S
C712 H703 0.930 . S
C712 C710 1.384 . S
C712 C713 1.372 . S
C713 C712 1.372 . S
C713 C714 1.400 . S
C713 C718 1.490 . S
C714 H704 0.930 . S
C714 C713 1.400 . S
C714 C717 1.386 . S
H715 C731 0.930 . S
H716 C732 0.931 . S
C717 H705 0.929 . S
C717 C711 1.390 . S
C717 C714 1.386 . S
C718 C713 1.490 . S
C718 C720 1.395 . S
C718 C721 1.403 . S
H719 C725 0.930 . S
C720 H706 0.930 . S
C720 C718 1.395 . S
C720 C723 1.403 . S
C721 C718 1.403 . S
C721 C722 1.524 . S
C721 C725 1.400 . S
C722 H707 0.960 . S
C722 H708 0.960 . S
C722 H709 0.960 . S
C722 C721 1.524 . S
C723 C720 1.403 . S
C723 C724 1.392 . S
C723 C727 1.495 . S
C724 C723 1.392 . S
C724 C725 1.385 . S
C724 C726 1.478 . S
C725 H719 0.930 . S
C725 C721 1.400 . S
C725 C724 1.385 . S
C726 C724 1.478 . S
C726 C728 1.381 . S
C726 C732 1.383 . S
C727 C723 1.495 . S
C727 H733 0.959 . S
C727 H734 0.961 . S
C727 H735 0.960 . S
C728 C726 1.381 . S
C728 C729 1.394 . S
C728 H736 0.930 . S
C729 C728 1.394 . S
C729 C730 1.383 . S
C729 H737 0.929 . S
C730 C729 1.383 . S
C730 C731 1.377 . S
C731 H715 0.930 . S
C731 C730 1.377 . S
C731 C732 1.379 . S
C732 H716 0.931 . S
C732 C726 1.383 . S
C732 C731 1.379 . S
H733 C727 0.959 . S
H734 C727 0.961 . S
H735 C727 0.960 . S
H736 C728 0.930 . S
H737 C729 0.929 . S
H738 C746 0.929 . S
H739 C748 0.930 . S
H740 C750 0.930 . S
H741 C753 0.929 . S
H742 C756 0.930 . S
H743 C758 0.960 . S
H744 C758 0.960 . S
H745 C758 0.960 . S
C746 H738 0.929 . S
C746 C747 1.377 . S
C746 C748 1.384 . S
C747 C746 1.377 . S
C747 C753 1.390 . S
C748 H739 0.930 . S
C748 C746 1.384 . S
C748 C749 1.372 . S
C749 C748 1.372 . S
C749 C750 1.400 . S
C749 C754 1.490 . S
C750 H740 0.930 . S
C750 C749 1.400 . S
C750 C753 1.386 . S
H751 C767 0.930 . S
H752 C768 0.931 . S
C753 H741 0.929 . S
C753 C747 1.390 . S
C753 C750 1.386 . S
C754 C749 1.490 . S
C754 C756 1.395 . S
C754 C757 1.403 . S
H755 C761 0.930 . S
C756 H742 0.930 . S
C756 C754 1.395 . S
C756 C759 1.403 . S
C757 C754 1.403 . S
C757 C758 1.524 . S
C757 C761 1.400 . S
C758 H743 0.960 . S
C758 H744 0.960 . S
C758 H745 0.960 . S
C758 C757 1.524 . S
C759 C756 1.403 . S
C759 C760 1.392 . S
C759 C763 1.495 . S
C760 C759 1.392 . S
C760 C761 1.385 . S
C760 C762 1.478 . S
C761 H755 0.930 . S
C761 C757 1.400 . S
C761 C760 1.385 . S
C762 C760 1.478 . S
C762 C764 1.381 . S
C762 C768 1.383 . S
C763 C759 1.495 . S
C763 H769 0.959 . S
C763 H770 0.961 . S
C763 H771 0.960 . S
C764 C762 1.381 . S
C764 C765 1.394 . S
C764 H772 0.930 . S
C765 C764 1.394 . S
C765 C766 1.383 . S
C765 H773 0.929 . S
C766 C765 1.383 . S
C766 C767 1.377 . S
C767 H751 0.930 . S
C767 C766 1.377 . S
C767 C768 1.379 . S
C768 H752 0.931 . S
C768 C762 1.383 . S
C768 C767 1.379 . S
H769 C763 0.959 . S
H770 C763 0.961 . S
H771 C763 0.960 . S
H772 C764 0.930 . S
H773 C765 0.929 . S
H774 C782 0.929 . S
H775 C784 0.930 . S
H776 C786 0.930 . S
H777 C789 0.929 . S
H778 C792 0.930 . S
H779 C794 0.960 1_556 S
H780 C794 0.960 1_556 S
H781 C794 0.960 . S
C782 H774 0.929 . S
C782 C783 1.377 . S
C782 C784 1.384 . S
C783 C782 1.377 . S
C783 C789 1.390 . S
C784 H775 0.930 . S
C784 C782 1.384 . S
C784 C785 1.372 . S
C785 C784 1.372 . S
C785 C786 1.400 . S
C785 C790 1.490 . S
C786 H776 0.930 . S
C786 C785 1.400 . S
C786 C789 1.386 . S
H787 C803 0.930 . S
H788 C804 0.931 . S
C789 H777 0.929 . S
C789 C783 1.390 . S
C789 C786 1.386 . S
C790 C785 1.490 . S
C790 C792 1.395 . S
C790 C793 1.403 . S
H791 C797 0.930 . S
C792 H778 0.930 . S
C792 C790 1.395 . S
C792 C795 1.403 . S
C793 C790 1.403 . S
C793 C794 1.524 . S
C793 C797 1.400 . S
C794 H779 0.960 1_554 S
C794 H780 0.960 1_554 S
C794 H781 0.960 . S
C794 C793 1.524 . S
C795 C792 1.403 . S
C795 C796 1.392 . S
C795 C799 1.495 . S
C796 C795 1.392 . S
C796 C797 1.385 . S
C796 C798 1.478 . S
C797 H791 0.930 . S
C797 C793 1.400 . S
C797 C796 1.385 . S
C798 C796 1.478 . S
C798 C800 1.381 . S
C798 C804 1.383 . S
C799 C795 1.495 . S
C799 H805 0.959 . S
C799 H806 0.961 . S
C799 H807 0.960 . S
C800 C798 1.381 . S
C800 C801 1.394 . S
C800 H808 0.930 . S
C801 C800 1.394 . S
C801 C802 1.383 . S
C801 H809 0.929 . S
C802 C801 1.383 . S
C802 C803 1.377 . S
C803 H787 0.930 . S
C803 C802 1.377 . S
C803 C804 1.379 . S
C804 H788 0.931 . S
C804 C798 1.383 . S
C804 C803 1.379 . S
H805 C799 0.959 . S
H806 C799 0.961 . S
H807 C799 0.960 . S
H808 C800 0.930 . S
H809 C801 0.929 . S
H810 C818 0.929 . S
H811 C820 0.930 . S
H812 C822 0.930 . S
H813 C825 0.929 . S
H814 C828 0.930 . S
H815 C830 0.960 . S
H816 C830 0.960 . S
H817 C830 0.960 . S
C818 H810 0.929 . S
C818 C819 1.377 . S
C818 C820 1.384 . S
C819 C818 1.377 . S
C819 C825 1.390 . S
C820 H811 0.930 . S
C820 C818 1.384 . S
C820 C821 1.372 . S
C821 C820 1.372 . S
C821 C822 1.400 . S
C821 C826 1.490 . S
C822 H812 0.930 . S
C822 C821 1.400 . S
C822 C825 1.386 . S
H823 C839 0.930 . S
H824 C840 0.931 . S
C825 H813 0.929 . S
C825 C819 1.390 . S
C825 C822 1.386 . S
C826 C821 1.490 . S
C826 C828 1.395 . S
C826 C829 1.403 . S
H827 C833 0.930 . S
C828 H814 0.930 . S
C828 C826 1.395 . S
C828 C831 1.403 . S
C829 C826 1.403 . S
C829 C830 1.524 . S
C829 C833 1.400 . S
C830 H815 0.960 . S
C830 H816 0.960 . S
C830 H817 0.960 . S
C830 C829 1.524 . S
C831 C828 1.403 . S
C831 C832 1.392 . S
C831 C835 1.495 . S
C832 C831 1.392 . S
C832 C833 1.385 . S
C832 C834 1.478 . S
C833 H827 0.930 . S
C833 C829 1.400 . S
C833 C832 1.385 . S
C834 C832 1.478 . S
C834 C836 1.381 . S
C834 C840 1.383 . S
C835 C831 1.495 . S
C835 H841 0.959 . S
C835 H842 0.961 . S
C835 H843 0.960 . S
C836 C834 1.381 . S
C836 C837 1.394 . S
C836 H844 0.930 . S
C837 C836 1.394 . S
C837 C838 1.383 . S
C837 H845 0.929 . S
C838 C837 1.383 . S
C838 C839 1.377 . S
C839 H823 0.930 . S
C839 C838 1.377 . S
C839 C840 1.379 . S
C840 H824 0.931 . S
C840 C834 1.383 . S
C840 C839 1.379 . S
H841 C835 0.959 . S
H842 C835 0.961 . S
H843 C835 0.960 . S
H844 C836 0.930 . S
H845 C837 0.929 . S
H846 C854 0.929 . S
H847 C856 0.930 . S
H848 C858 0.930 . S
H849 C861 0.929 . S
H850 C864 0.930 . S
H851 C866 0.960 . S
H852 C866 0.960 . S
H853 C866 0.960 . S
C854 H846 0.929 . S
C854 C855 1.377 . S
C854 C856 1.384 . S
C855 C854 1.377 . S
C855 C861 1.390 . S
C856 H847 0.930 . S
C856 C854 1.384 . S
C856 C857 1.372 . S
C857 C856 1.372 . S
C857 C858 1.400 . S
C857 C862 1.490 . S
C858 H848 0.930 . S
C858 C857 1.400 . S
C858 C861 1.386 . S
H859 C875 0.930 . S
H860 C876 0.931 . S
C861 H849 0.929 . S
C861 C855 1.390 . S
C861 C858 1.386 . S
C862 C857 1.490 . S
C862 C864 1.395 . S
C862 C865 1.403 . S
H863 C869 0.930 . S
C864 H850 0.930 . S
C864 C862 1.395 . S
C864 C867 1.403 . S
C865 C862 1.403 . S
C865 C866 1.524 . S
C865 C869 1.400 . S
C866 H851 0.960 . S
C866 H852 0.960 . S
C866 H853 0.960 . S
C866 C865 1.524 . S
C867 C864 1.403 . S
C867 C868 1.392 . S
C867 C871 1.495 . S
C868 C867 1.392 . S
C868 C869 1.385 . S
C868 C870 1.478 . S
C869 H863 0.930 . S
C869 C865 1.400 . S
C869 C868 1.385 . S
C870 C868 1.478 . S
C870 C872 1.381 . S
C870 C876 1.383 . S
C871 C867 1.495 . S
C871 H877 0.959 . S
C871 H878 0.961 . S
C871 H879 0.960 . S
C872 C870 1.381 . S
C872 C873 1.394 . S
C872 H880 0.930 . S
C873 C872 1.394 . S
C873 C874 1.383 . S
C873 H881 0.929 . S
C874 C873 1.383 . S
C874 C875 1.377 . S
C875 H859 0.930 . S
C875 C874 1.377 . S
C875 C876 1.379 . S
C876 H860 0.931 . S
C876 C870 1.383 . S
C876 C875 1.379 . S
H877 C871 0.959 . S
H878 C871 0.961 . S
H879 C871 0.960 . S
H880 C872 0.930 . S
H881 C873 0.929 . S
H882 C890 0.929 . S
H883 C892 0.930 . S
H884 C894 0.930 . S
H885 C897 0.929 . S
H886 C900 0.930 . S
H887 C902 0.960 . S
H888 C902 0.960 . S
H889 C902 0.960 . S
C890 H882 0.929 . S
C890 C891 1.377 . S
C890 C892 1.384 . S
C891 C890 1.377 . S
C891 C897 1.390 . S
C892 H883 0.930 . S
C892 C890 1.384 . S
C892 C893 1.372 . S
C893 C892 1.372 . S
C893 C894 1.400 . S
C893 C898 1.490 . S
C894 H884 0.930 . S
C894 C893 1.400 . S
C894 C897 1.386 . S
H895 C911 0.930 . S
H896 C912 0.931 . S
C897 H885 0.929 . S
C897 C891 1.390 . S
C897 C894 1.386 . S
C898 C893 1.490 . S
C898 C900 1.395 . S
C898 C901 1.403 . S
H899 C905 0.930 . S
C900 H886 0.930 . S
C900 C898 1.395 . S
C900 C903 1.403 . S
C901 C898 1.403 . S
C901 C902 1.524 . S
C901 C905 1.400 . S
C902 H887 0.960 . S
C902 H888 0.960 . S
C902 H889 0.960 . S
C902 C901 1.524 . S
C903 C900 1.403 . S
C903 C904 1.392 . S
C903 C907 1.495 . S
C904 C903 1.392 . S
C904 C905 1.385 . S
C904 C906 1.478 . S
C905 H899 0.930 . S
C905 C901 1.400 . S
C905 C904 1.385 . S
C906 C904 1.478 . S
C906 C908 1.381 . S
C906 C912 1.383 . S
C907 C903 1.495 . S
C907 H913 0.959 . S
C907 H914 0.961 . S
C907 H915 0.960 . S
C908 C906 1.381 . S
C908 C909 1.394 . S
C908 H916 0.930 . S
C909 C908 1.394 . S
C909 C910 1.383 . S
C909 H917 0.929 . S
C910 C909 1.383 . S
C910 C911 1.377 . S
C911 H895 0.930 . S
C911 C910 1.377 . S
C911 C912 1.379 . S
C912 H896 0.931 . S
C912 C906 1.383 . S
C912 C911 1.379 . S
H913 C907 0.959 . S
H914 C907 0.961 . S
H915 C907 0.960 . S
H916 C908 0.930 . S
H917 C909 0.929 . S
H918 C926 0.929 . S
H919 C928 0.930 . S
H920 C930 0.930 . S
H921 C933 0.929 . S
H922 C936 0.930 . S
H923 C938 0.960 . S
H924 C938 0.960 . S
H925 C938 0.960 . S
C926 H918 0.929 . S
C926 C927 1.377 . S
C926 C928 1.384 . S
C927 C926 1.377 . S
C927 C933 1.390 . S
C928 H919 0.930 . S
C928 C926 1.384 . S
C928 C929 1.372 . S
C929 C928 1.372 . S
C929 C930 1.400 . S
C929 C934 1.490 . S
C930 H920 0.930 . S
C930 C929 1.400 . S
C930 C933 1.386 . S
H931 C947 0.930 . S
H932 C948 0.931 . S
C933 H921 0.929 . S
C933 C927 1.390 . S
C933 C930 1.386 . S
C934 C929 1.490 . S
C934 C936 1.395 . S
C934 C937 1.403 . S
H935 C941 0.930 . S
C936 H922 0.930 . S
C936 C934 1.395 . S
C936 C939 1.403 . S
C937 C934 1.403 . S
C937 C938 1.524 . S
C937 C941 1.400 . S
C938 H923 0.960 . S
C938 H924 0.960 . S
C938 H925 0.960 . S
C938 C937 1.524 . S
C939 C936 1.403 . S
C939 C940 1.392 . S
C939 C943 1.495 . S
C940 C939 1.392 . S
C940 C941 1.385 . S
C940 C942 1.478 . S
C941 H935 0.930 . S
C941 C937 1.400 . S
C941 C940 1.385 . S
C942 C940 1.478 . S
C942 C944 1.381 . S
C942 C948 1.383 . S
C943 C939 1.495 . S
C943 H949 0.959 . S
C943 H950 0.961 . S
C943 H951 0.960 . S
C944 C942 1.381 . S
C944 C945 1.394 . S
C944 H952 0.930 . S
C945 C944 1.394 . S
C945 C946 1.383 . S
C945 H953 0.929 . S
C946 C945 1.383 . S
C946 C947 1.377 . S
C947 H931 0.930 . S
C947 C946 1.377 . S
C947 C948 1.379 . S
C948 H932 0.931 . S
C948 C942 1.383 . S
C948 C947 1.379 . S
H949 C943 0.959 . S
H950 C943 0.961 . S
H951 C943 0.960 . S
H952 C944 0.930 . S
H953 C945 0.929 . S
H954 C962 0.929 . S
H955 C964 0.930 . S
H956 C966 0.930 . S
H957 C969 0.929 . S
H958 C972 0.930 . S
H959 C974 0.960 . S
H960 C974 0.960 . S
H961 C974 0.960 . S
C962 H954 0.929 . S
C962 C963 1.377 . S
C962 C964 1.384 . S
C963 C962 1.377 . S
C963 C969 1.390 . S
C964 H955 0.930 . S
C964 C962 1.384 . S
C964 C965 1.372 . S
C965 C964 1.372 . S
C965 C966 1.400 . S
C965 C970 1.490 . S
C966 H956 0.930 . S
C966 C965 1.400 . S
C966 C969 1.386 . S
H967 C983 0.930 . S
H968 C984 0.931 . S
C969 H957 0.929 . S
C969 C963 1.390 . S
C969 C966 1.386 . S
C970 C965 1.490 . S
C970 C972 1.395 . S
C970 C973 1.403 . S
H971 C977 0.930 . S
C972 H958 0.930 . S
C972 C970 1.395 . S
C972 C975 1.403 . S
C973 C970 1.403 . S
C973 C974 1.524 . S
C973 C977 1.400 . S
C974 H959 0.960 . S
C974 H960 0.960 . S
C974 H961 0.960 . S
C974 C973 1.524 . S
C975 C972 1.403 . S
C975 C976 1.392 . S
C975 C979 1.495 . S
C976 C975 1.392 . S
C976 C977 1.385 . S
C976 C978 1.478 . S
C977 H971 0.930 . S
C977 C973 1.400 . S
C977 C976 1.385 . S
C978 C976 1.478 . S
C978 C980 1.381 . S
C978 C984 1.383 . S
C979 C975 1.495 . S
C979 H985 0.959 . S
C979 H986 0.961 . S
C979 H987 0.960 . S
C980 C978 1.381 . S
C980 C981 1.394 . S
C980 H988 0.930 . S
C981 C980 1.394 . S
C981 C982 1.383 . S
C981 H989 0.929 . S
C982 C981 1.383 . S
C982 C983 1.377 . S
C983 H967 0.930 . S
C983 C982 1.377 . S
C983 C984 1.379 . S
C984 H968 0.931 . S
C984 C978 1.383 . S
C984 C983 1.379 . S
H985 C979 0.959 . S
H986 C979 0.961 . S
H987 C979 0.960 . S
H988 C980 0.930 . S
H989 C981 0.929 . S
H990 C998 0.929 . S
H991 C1000 0.930 . S
H992 C1002 0.930 . S
H993 C1005 0.929 . S
H994 C1008 0.930 . S
H995 C1010 0.960 . S
H996 C1010 0.960 . S
H997 C1010 0.960 . S
C998 H990 0.929 . S
C998 C999 1.377 . S
C998 C1000 1.384 . S
C999 C998 1.377 . S
C999 C1005 1.390 . S
C1000 H991 0.930 . S
C1000 C998 1.384 . S
C1000 C1001 1.372 . S
C1001 C1000 1.372 . S
C1001 C1002 1.400 . S
C1001 C1006 1.490 . S
C1002 H992 0.930 . S
C1002 C1001 1.400 . S
C1002 C1005 1.386 . S
H1003 C1019 0.930 . S
H1004 C1020 0.931 . S
C1005 H993 0.929 . S
C1005 C999 1.390 . S
C1005 C1002 1.386 . S
C1006 C1001 1.490 . S
C1006 C1008 1.395 . S
C1006 C1009 1.403 . S
H1007 C1013 0.930 . S
C1008 H994 0.930 . S
C1008 C1006 1.395 . S
C1008 C1011 1.403 . S
C1009 C1006 1.403 . S
C1009 C1010 1.524 . S
C1009 C1013 1.400 . S
C1010 H995 0.960 . S
C1010 H996 0.960 . S
C1010 H997 0.960 . S
C1010 C1009 1.524 . S
C1011 C1008 1.403 . S
C1011 C1012 1.392 . S
C1011 C1015 1.495 . S
C1012 C1011 1.392 . S
C1012 C1013 1.385 . S
C1012 C1014 1.478 . S
C1013 H1007 0.930 . S
C1013 C1009 1.400 . S
C1013 C1012 1.385 . S
C1014 C1012 1.478 . S
C1014 C1016 1.381 . S
C1014 C1020 1.383 . S
C1015 C1011 1.495 . S
C1015 H1021 0.959 . S
C1015 H1022 0.961 . S
C1015 H1023 0.960 . S
C1016 C1014 1.381 . S
C1016 C1017 1.394 1_556 S
C1016 H1024 0.930 . S
C1017 C1016 1.394 1_554 S
C1017 C1018 1.383 . S
C1017 H1025 0.929 . S
C1018 C1017 1.383 . S
C1018 C1019 1.377 . S
C1019 H1003 0.930 . S
C1019 C1018 1.377 . S
C1019 C1020 1.379 1_554 S
C1020 H1004 0.931 . S
C1020 C1014 1.383 . S
C1020 C1019 1.379 1_556 S
H1021 C1015 0.959 . S
H1022 C1015 0.961 . S
H1023 C1015 0.960 . S
H1024 C1016 0.930 . S
H1025 C1017 0.929 . S
H1026 C1034 0.929 . S
H1027 C1036 0.930 . S
H1028 C1038 0.930 . S
H1029 C1041 0.929 . S
H1030 C1044 0.930 . S
H1031 C1046 0.960 . S
H1032 C1046 0.960 . S
H1033 C1046 0.960 . S
C1034 H1026 0.929 . S
C1034 C1035 1.377 . S
C1034 C1036 1.384 . S
C1035 C1034 1.377 . S
C1035 C1041 1.390 . S
C1036 H1027 0.930 . S
C1036 C1034 1.384 . S
C1036 C1037 1.372 . S
C1037 C1036 1.372 . S
C1037 C1038 1.400 . S
C1037 C1042 1.490 . S
C1038 H1028 0.930 . S
C1038 C1037 1.400 . S
C1038 C1041 1.386 . S
H1039 C1055 0.930 . S
H1040 C1056 0.931 . S
C1041 H1029 0.929 . S
C1041 C1035 1.390 . S
C1041 C1038 1.386 . S
C1042 C1037 1.490 . S
C1042 C1044 1.395 . S
C1042 C1045 1.403 . S
H1043 C1049 0.930 . S
C1044 H1030 0.930 . S
C1044 C1042 1.395 . S
C1044 C1047 1.403 . S
C1045 C1042 1.403 . S
C1045 C1046 1.524 . S
C1045 C1049 1.400 . S
C1046 H1031 0.960 . S
C1046 H1032 0.960 . S
C1046 H1033 0.960 . S
C1046 C1045 1.524 . S
C1047 C1044 1.403 . S
C1047 C1048 1.392 . S
C1047 C1051 1.495 . S
C1048 C1047 1.392 . S
C1048 C1049 1.385 . S
C1048 C1050 1.478 . S
C1049 H1043 0.930 . S
C1049 C1045 1.400 . S
C1049 C1048 1.385 . S
C1050 C1048 1.478 . S
C1050 C1052 1.381 . S
C1050 C1056 1.383 . S
C1051 C1047 1.495 . S
C1051 H1057 0.959 . S
C1051 H1058 0.961 . S
C1051 H1059 0.960 . S
C1052 C1050 1.381 . S
C1052 C1053 1.394 . S
C1052 H1060 0.930 . S
C1053 C1052 1.394 . S
C1053 C1054 1.383 . S
C1053 H1061 0.929 . S
C1054 C1053 1.383 . S
C1054 C1055 1.377 . S
C1055 H1039 0.930 . S
C1055 C1054 1.377 . S
C1055 C1056 1.379 . S
C1056 H1040 0.931 . S
C1056 C1050 1.383 . S
C1056 C1055 1.379 . S
H1057 C1051 0.959 . S
H1058 C1051 0.961 . S
H1059 C1051 0.960 . S
H1060 C1052 0.930 . S
H1061 C1053 0.929 . S
H1062 C1070 0.929 . S
H1063 C1072 0.930 . S
H1064 C1074 0.930 . S
H1065 C1077 0.929 . S
H1066 C1080 0.930 . S
H1067 C1082 0.960 . S
H1068 C1082 0.960 . S
H1069 C1082 0.960 . S
C1070 H1062 0.929 . S
C1070 C1071 1.377 . S
C1070 C1072 1.384 . S
C1071 C1070 1.377 . S
C1071 C1077 1.390 . S
C1072 H1063 0.930 . S
C1072 C1070 1.384 . S
C1072 C1073 1.372 . S
C1073 C1072 1.372 . S
C1073 C1074 1.400 . S
C1073 C1078 1.490 . S
C1074 H1064 0.930 . S
C1074 C1073 1.400 . S
C1074 C1077 1.386 . S
H1075 C1091 0.930 . S
H1076 C1092 0.931 . S
C1077 H1065 0.929 . S
C1077 C1071 1.390 . S
C1077 C1074 1.386 . S
C1078 C1073 1.490 . S
C1078 C1080 1.395 . S
C1078 C1081 1.403 . S
H1079 C1085 0.930 . S
C1080 H1066 0.930 . S
C1080 C1078 1.395 . S
C1080 C1083 1.403 . S
C1081 C1078 1.403 . S
C1081 C1082 1.524 . S
C1081 C1085 1.400 . S
C1082 H1067 0.960 . S
C1082 H1068 0.960 . S
C1082 H1069 0.960 . S
C1082 C1081 1.524 . S
C1083 C1080 1.403 . S
C1083 C1084 1.392 . S
C1083 C1087 1.495 . S
C1084 C1083 1.392 . S
C1084 C1085 1.385 . S
C1084 C1086 1.478 . S
C1085 H1079 0.930 . S
C1085 C1081 1.400 . S
C1085 C1084 1.385 . S
C1086 C1084 1.478 . S
C1086 C1088 1.381 . S
C1086 C1092 1.383 . S
C1087 C1083 1.495 . S
C1087 H1093 0.959 . S
C1087 H1094 0.961 . S
C1087 H1095 0.960 . S
C1088 C1086 1.381 . S
C1088 C1089 1.394 . S
C1088 H1096 0.930 . S
C1089 C1088 1.394 . S
C1089 C1090 1.383 . S
C1089 H1097 0.929 . S
C1090 C1089 1.383 . S
C1090 C1091 1.377 . S
C1091 H1075 0.930 . S
C1091 C1090 1.377 . S
C1091 C1092 1.379 . S
C1092 H1076 0.931 . S
C1092 C1086 1.383 . S
C1092 C1091 1.379 . S
H1093 C1087 0.959 . S
H1094 C1087 0.961 . S
H1095 C1087 0.960 . S
H1096 C1088 0.930 . S
H1097 C1089 0.929 . S
H1098 C1106 0.929 . S
H1099 C1108 0.930 . S
H1100 C1110 0.930 . S
H1101 C1113 0.929 . S
H1102 C1116 0.930 . S
H1103 C1118 0.960 . S
H1104 C1118 0.960 . S
H1105 C1118 0.960 . S
C1106 H1098 0.929 . S
C1106 C1107 1.377 . S
C1106 C1108 1.384 . S
C1107 C1106 1.377 . S
C1107 C1113 1.390 . S
C1108 H1099 0.930 . S
C1108 C1106 1.384 . S
C1108 C1109 1.372 . S
C1109 C1108 1.372 . S
C1109 C1110 1.400 . S
C1109 C1114 1.490 . S
C1110 H1100 0.930 . S
C1110 C1109 1.400 . S
C1110 C1113 1.386 . S
H1111 C1127 0.930 . S
H1112 C1128 0.931 . S
C1113 H1101 0.929 . S
C1113 C1107 1.390 . S
C1113 C1110 1.386 . S
C1114 C1109 1.490 . S
C1114 C1116 1.395 . S
C1114 C1117 1.403 . S
H1115 C1121 0.930 . S
C1116 H1102 0.930 . S
C1116 C1114 1.395 . S
C1116 C1119 1.403 . S
C1117 C1114 1.403 . S
C1117 C1118 1.524 . S
C1117 C1121 1.400 . S
C1118 H1103 0.960 . S
C1118 H1104 0.960 . S
C1118 H1105 0.960 . S
C1118 C1117 1.524 . S
C1119 C1116 1.403 . S
C1119 C1120 1.392 . S
C1119 C1123 1.495 . S
C1120 C1119 1.392 . S
C1120 C1121 1.385 . S
C1120 C1122 1.478 . S
C1121 H1115 0.930 . S
C1121 C1117 1.400 . S
C1121 C1120 1.385 . S
C1122 C1120 1.478 . S
C1122 C1124 1.381 . S
C1122 C1128 1.383 . S
C1123 C1119 1.495 . S
C1123 H1129 0.959 . S
C1123 H1130 0.961 . S
C1123 H1131 0.960 . S
C1124 C1122 1.381 . S
C1124 C1125 1.394 . S
C1124 H1132 0.930 . S
C1125 C1124 1.394 . S
C1125 C1126 1.383 . S
C1125 H1133 0.929 . S
C1126 C1125 1.383 . S
C1126 C1127 1.377 . S
C1127 H1111 0.930 . S
C1127 C1126 1.377 . S
C1127 C1128 1.379 . S
C1128 H1112 0.931 . S
C1128 C1122 1.383 . S
C1128 C1127 1.379 . S
H1129 C1123 0.959 . S
H1130 C1123 0.961 . S
H1131 C1123 0.960 . S
H1132 C1124 0.930 . S
H1133 C1125 0.929 . S
H1134 C1142 0.929 . S
H1135 C1144 0.930 . S
H1136 C1146 0.930 . S
H1137 C1149 0.929 . S
H1138 C1152 0.930 . S
H1139 C1154 0.960 . S
H1140 C1154 0.960 . S
H1141 C1154 0.960 . S
C1142 H1134 0.929 . S
C1142 C1143 1.377 . S
C1142 C1144 1.384 . S
C1143 C1142 1.377 . S
C1143 C1149 1.390 . S
C1144 H1135 0.930 . S
C1144 C1142 1.384 . S
C1144 C1145 1.372 . S
C1145 C1144 1.372 . S
C1145 C1146 1.400 . S
C1145 C1150 1.490 . S
C1146 H1136 0.930 . S
C1146 C1145 1.400 . S
C1146 C1149 1.386 . S
H1147 C1163 0.930 . S
H1148 C1164 0.931 . S
C1149 H1137 0.929 . S
C1149 C1143 1.390 . S
C1149 C1146 1.386 . S
C1150 C1145 1.490 . S
C1150 C1152 1.395 . S
C1150 C1153 1.403 . S
H1151 C1157 0.930 . S
C1152 H1138 0.930 . S
C1152 C1150 1.395 . S
C1152 C1155 1.403 . S
C1153 C1150 1.403 . S
C1153 C1154 1.524 . S
C1153 C1157 1.400 . S
C1154 H1139 0.960 . S
C1154 H1140 0.960 . S
C1154 H1141 0.960 . S
C1154 C1153 1.524 . S
C1155 C1152 1.403 . S
C1155 C1156 1.392 . S
C1155 C1159 1.495 . S
C1156 C1155 1.392 . S
C1156 C1157 1.385 . S
C1156 C1158 1.478 . S
C1157 H1151 0.930 . S
C1157 C1153 1.400 . S
C1157 C1156 1.385 . S
C1158 C1156 1.478 . S
C1158 C1160 1.381 . S
C1158 C1164 1.383 . S
C1159 C1155 1.495 . S
C1159 H1165 0.959 . S
C1159 H1166 0.961 . S
C1159 H1167 0.960 . S
C1160 C1158 1.381 . S
C1160 C1161 1.394 . S
C1160 H1168 0.930 . S
C1161 C1160 1.394 . S
C1161 C1162 1.383 . S
C1161 H1169 0.929 . S
C1162 C1161 1.383 . S
C1162 C1163 1.377 . S
C1163 H1147 0.930 . S
C1163 C1162 1.377 . S
C1163 C1164 1.379 . S
C1164 H1148 0.931 . S
C1164 C1158 1.383 . S
C1164 C1163 1.379 . S
H1165 C1159 0.959 . S
H1166 C1159 0.961 . S
H1167 C1159 0.960 . S
H1168 C1160 0.930 . S
H1169 C1161 0.929 . S
H1170 C1178 0.929 . S
H1171 C1180 0.930 . S
H1172 C1182 0.930 . S
H1173 C1185 0.929 . S
H1174 C1188 0.930 . S
H1175 C1190 0.960 . S
H1176 C1190 0.960 . S
H1177 C1190 0.960 . S
C1178 H1170 0.929 . S
C1178 C1179 1.377 . S
C1178 C1180 1.384 . S
C1179 C1178 1.377 . S
C1179 C1185 1.390 . S
C1180 H1171 0.930 . S
C1180 C1178 1.384 . S
C1180 C1181 1.372 . S
C1181 C1180 1.372 . S
C1181 C1182 1.400 . S
C1181 C1186 1.490 . S
C1182 H1172 0.930 . S
C1182 C1181 1.400 . S
C1182 C1185 1.386 . S
H1183 C1199 0.930 . S
H1184 C1200 0.931 . S
C1185 H1173 0.929 . S
C1185 C1179 1.390 . S
C1185 C1182 1.386 . S
C1186 C1181 1.490 . S
C1186 C1188 1.395 . S
C1186 C1189 1.403 . S
H1187 C1193 0.930 . S
C1188 H1174 0.930 . S
C1188 C1186 1.395 . S
C1188 C1191 1.403 . S
C1189 C1186 1.403 . S
C1189 C1190 1.524 . S
C1189 C1193 1.400 . S
C1190 H1175 0.960 . S
C1190 H1176 0.960 . S
C1190 H1177 0.960 . S
C1190 C1189 1.524 . S
C1191 C1188 1.403 . S
C1191 C1192 1.392 . S
C1191 C1195 1.495 . S
C1192 C1191 1.392 . S
C1192 C1193 1.385 . S
C1192 C1194 1.478 . S
C1193 H1187 0.930 . S
C1193 C1189 1.400 . S
C1193 C1192 1.385 . S
C1194 C1192 1.478 . S
C1194 C1196 1.381 . S
C1194 C1200 1.383 . S
C1195 C1191 1.495 . S
C1195 H1201 0.959 . S
C1195 H1202 0.961 . S
C1195 H1203 0.960 . S
C1196 C1194 1.381 . S
C1196 C1197 1.394 . S
C1196 H1204 0.930 . S
C1197 C1196 1.394 . S
C1197 C1198 1.383 . S
C1197 H1205 0.929 . S
C1198 C1197 1.383 . S
C1198 C1199 1.377 . S
C1199 H1183 0.930 . S
C1199 C1198 1.377 . S
C1199 C1200 1.379 . S
C1200 H1184 0.931 . S
C1200 C1194 1.383 . S
C1200 C1199 1.379 . S
H1201 C1195 0.959 . S
H1202 C1195 0.961 . S
H1203 C1195 0.960 . S
H1204 C1196 0.930 . S
H1205 C1197 0.929 . S
H1206 C1214 0.929 . S
H1207 C1216 0.930 . S
H1208 C1218 0.930 . S
H1209 C1221 0.929 . S
H1210 C1224 0.930 . S
H1211 C1226 0.960 . S
H1212 C1226 0.960 . S
H1213 C1226 0.960 . S
C1214 H1206 0.929 . S
C1214 C1215 1.377 . S
C1214 C1216 1.384 . S
C1215 C1214 1.377 . S
C1215 C1221 1.390 . S
C1216 H1207 0.930 . S
C1216 C1214 1.384 . S
C1216 C1217 1.372 . S
C1217 C1216 1.372 . S
C1217 C1218 1.400 . S
C1217 C1222 1.490 . S
C1218 H1208 0.930 . S
C1218 C1217 1.400 . S
C1218 C1221 1.386 . S
H1219 C1235 0.930 . S
H1220 C1236 0.931 . S
C1221 H1209 0.929 . S
C1221 C1215 1.390 . S
C1221 C1218 1.386 . S
C1222 C1217 1.490 . S
C1222 C1224 1.395 . S
C1222 C1225 1.403 . S
H1223 C1229 0.930 . S
C1224 H1210 0.930 . S
C1224 C1222 1.395 . S
C1224 C1227 1.403 . S
C1225 C1222 1.403 . S
C1225 C1226 1.524 . S
C1225 C1229 1.400 . S
C1226 H1211 0.960 . S
C1226 H1212 0.960 . S
C1226 H1213 0.960 . S
C1226 C1225 1.524 . S
C1227 C1224 1.403 . S
C1227 C1228 1.392 . S
C1227 C1231 1.495 . S
C1228 C1227 1.392 . S
C1228 C1229 1.385 . S
C1228 C1230 1.478 . S
C1229 H1223 0.930 . S
C1229 C1225 1.400 . S
C1229 C1228 1.385 . S
C1230 C1228 1.478 . S
C1230 C1232 1.381 . S
C1230 C1236 1.383 . S
C1231 C1227 1.495 . S
C1231 H1237 0.959 . S
C1231 H1238 0.961 . S
C1231 H1239 0.960 . S
C1232 C1230 1.381 . S
C1232 C1233 1.394 . S
C1232 H1240 0.930 . S
C1233 C1232 1.394 . S
C1233 C1234 1.383 . S
C1233 H1241 0.929 . S
C1234 C1233 1.383 . S
C1234 C1235 1.377 . S
C1235 H1219 0.930 . S
C1235 C1234 1.377 . S
C1235 C1236 1.379 . S
C1236 H1220 0.931 . S
C1236 C1230 1.383 . S
C1236 C1235 1.379 . S
H1237 C1231 0.959 . S
H1238 C1231 0.961 . S
H1239 C1231 0.960 . S
H1240 C1232 0.930 . S
H1241 C1233 0.929 . S
H1242 C1250 0.929 . S
H1243 C1252 0.930 . S
H1244 C1254 0.930 . S
H1245 C1257 0.929 . S
H1246 C1260 0.930 . S
H1247 C1262 0.960 1_556 S
H1248 C1262 0.960 . S
H1249 C1262 0.960 . S
C1250 H1242 0.929 . S
C1250 C1251 1.377 . S
C1250 C1252 1.384 . S
C1251 C1250 1.377 . S
C1251 C1257 1.390 . S
C1252 H1243 0.930 . S
C1252 C1250 1.384 . S
C1252 C1253 1.372 . S
C1253 C1252 1.372 . S
C1253 C1254 1.400 . S
C1253 C1258 1.490 . S
C1254 H1244 0.930 . S
C1254 C1253 1.400 . S
C1254 C1257 1.386 . S
H1255 C1271 0.930 . S
H1256 C1272 0.931 . S
C1257 H1245 0.929 . S
C1257 C1251 1.390 . S
C1257 C1254 1.386 . S
C1258 C1253 1.490 . S
C1258 C1260 1.395 . S
C1258 C1261 1.435 . S
H1259 C1265 0.930 . S
C1260 H1246 0.930 . S
C1260 C1258 1.395 . S
C1260 C1263 1.403 1_554 S
C1261 C1258 1.435 . S
C1261 C1262 1.532 . S
C1261 C1265 1.361 1_554 S
C1262 H1247 0.960 1_554 S
C1262 H1248 0.960 . S
C1262 H1249 0.960 . S
C1262 C1261 1.532 . S
C1263 C1260 1.403 1_556 S
C1263 C1264 1.392 . S
C1263 C1267 1.495 . S
C1264 C1263 1.392 . S
C1264 C1265 1.385 . S
C1264 C1266 1.478 . S
C1265 H1259 0.930 . S
C1265 C1261 1.361 1_556 S
C1265 C1264 1.385 . S
C1266 C1264 1.478 . S
C1266 C1268 1.381 . S
C1266 C1272 1.383 . S
C1267 C1263 1.495 . S
C1267 H1273 0.959 1_556 S
C1267 H1274 0.961 . S
C1267 H1275 0.960 . S
C1268 C1266 1.381 . S
C1268 C1269 1.394 . S
C1268 H1276 0.930 . S
C1269 C1268 1.394 . S
C1269 C1270 1.383 . S
C1269 H1277 0.929 . S
C1270 C1269 1.383 . S
C1270 C1271 1.377 . S
C1271 H1255 0.930 . S
C1271 C1270 1.377 . S
C1271 C1272 1.379 . S
C1272 H1256 0.931 . S
C1272 C1266 1.383 . S
C1272 C1271 1.379 . S
H1273 C1267 0.959 1_554 S
H1274 C1267 0.961 . S
H1275 C1267 0.960 . S
H1276 C1268 0.930 . S
H1277 C1269 0.929 . S
H1278 C1286 0.929 . S
H1279 C1288 0.930 . S
H1280 C1290 0.930 . S
H1281 C1293 0.929 . S
H1282 C1296 0.930 . S
H1283 C1298 0.960 . S
H1284 C1298 0.960 . S
H1285 C1298 0.960 . S
C1286 H1278 0.929 . S
C1286 C1287 1.377 . S
C1286 C1288 1.384 . S
C1287 C1286 1.377 . S
C1287 C1293 1.390 . S
C1288 H1279 0.930 . S
C1288 C1286 1.384 . S
C1288 C1289 1.372 . S
C1289 C1288 1.372 . S
C1289 C1290 1.400 . S
C1289 C1294 1.490 . S
C1290 H1280 0.930 . S
C1290 C1289 1.400 . S
C1290 C1293 1.386 . S
H1291 C1307 0.930 . S
H1292 C1308 0.931 . S
C1293 H1281 0.929 . S
C1293 C1287 1.390 . S
C1293 C1290 1.386 . S
C1294 C1289 1.490 . S
C1294 C1296 1.395 . S
C1294 C1297 1.403 . S
H1295 C1301 0.930 . S
C1296 H1282 0.930 . S
C1296 C1294 1.395 . S
C1296 C1299 1.403 . S
C1297 C1294 1.403 . S
C1297 C1298 1.524 . S
C1297 C1301 1.400 . S
C1298 H1283 0.960 . S
C1298 H1284 0.960 . S
C1298 H1285 0.960 . S
C1298 C1297 1.524 . S
C1299 C1296 1.403 . S
C1299 C1300 1.392 . S
C1299 C1303 1.495 . S
C1300 C1299 1.392 . S
C1300 C1301 1.385 . S
C1300 C1302 1.478 . S
C1301 H1295 0.930 . S
C1301 C1297 1.400 . S
C1301 C1300 1.385 . S
C1302 C1300 1.478 . S
C1302 C1304 1.381 . S
C1302 C1308 1.383 . S
C1303 C1299 1.495 . S
C1303 H1309 0.959 . S
C1303 H1310 0.961 . S
C1303 H1311 0.960 . S
C1304 C1302 1.381 . S
C1304 C1305 1.394 . S
C1304 H1312 0.930 . S
C1305 C1304 1.394 . S
C1305 C1306 1.383 . S
C1305 H1313 0.929 . S
C1306 C1305 1.383 . S
C1306 C1307 1.377 . S
C1307 H1291 0.930 . S
C1307 C1306 1.377 . S
C1307 C1308 1.379 . S
C1308 H1292 0.931 . S
C1308 C1302 1.383 . S
C1308 C1307 1.379 . S
H1309 C1303 0.959 . S
H1310 C1303 0.961 . S
H1311 C1303 0.960 . S
H1312 C1304 0.930 . S
H1313 C1305 0.929 . S
C478 C447 1.616 . S
C459 C29 1.527 . S
C495 C115 1.484 . S
C514 C372 1.413 . S
C531 C153 1.550 . S
C550 C395 1.654 . S
C567 C239 1.367 . S
C586 C408 1.389 . S
C622 C411 1.555 . S
C603 C301 1.573 . S
C639 C339 1.711 . S
C658 C424 1.744 . S
C675 C91 1.465 . S
C694 C385 1.522 . S
C711 C177 1.532 . S
C730 C398 1.508 . S
C747 C215 1.395 . S
C766 C421 1.484 . S
C802 C434 1.931 . S
C783 C277 1.819 . S
C838 C437 1.469 . S
C819 C363 1.529 . S
C874 C382 1.519 . S
C855 C53 1.500 . S
C891 C35 1.515 . S
C910 C393 1.511 . S
C927 C109 1.365 . S
C946 C406 1.398 . S
C982 C416 1.389 . S
C963 C159 1.419 . S
C999 C233 1.584 . S
C1018 C429 1.674 . S
C1054 C445 1.480 . S
C1035 C295 1.416 . S
C1090 C377 1.308 . S
C1071 C345 1.311 . S
C1126 C442 1.359 . S
C1107 C97 1.379 . S
C1143 C171 1.401 . S
C1162 C380 1.455 . S
C1198 C390 1.520 . S
C1179 C221 1.518 . S
C1215 C283 1.351 . S
C1234 C403 1.330 . S
C1251 C357 1.369 . S
C1270 C419 1.446 . S
C1287 C47 1.589 . S
C1306 C432 1.677 . S
