# Generated by pormake.
# Topology rtl, (3,6)-cn, num edge types: 1
# Building blocks:
#     Node 0, Type 0, BuildingBlock: CUQRIR_clean_linker_1, # of connection points: 3
#     Node 1, Type 0, BuildingBlock: CUQRIR_clean_linker_1, # of connection points: 3
#     Node 2, Type 0, BuildingBlock: CUQRIR_clean_linker_1, # of connection points: 3
#     Node 3, Type 0, BuildingBlock: CUQRIR_clean_linker_1, # of connection points: 3
#     Node 4, Type 1, BuildingBlock: LEVNOQ01_clean_sbu_1, # of connection points: 6
#     Node 5, Type 1, BuildingBlock: LEVNOQ01_clean_sbu_1, # of connection points: 6
#     Edge 6, Type (0, 1), BuildingBlock: MIFKUJ_clean_linker_0, # of connection points: 2
#     Edge 7, Type (0, 1), BuildingBlock: MIFKUJ_clean_linker_0, # of connection points: 2
#     Edge 8, Type (0, 1), BuildingBlock: MIFKUJ_clean_linker_0, # of connection points: 2
#     Edge 9, Type (0, 1), BuildingBlock: MIFKUJ_clean_linker_0, # of connection points: 2
#     Edge 10, Type (0, 1), BuildingBlock: MIFKUJ_clean_linker_0, # of connection points: 2
#     Edge 11, Type (0, 1), BuildingBlock: MIFKUJ_clean_linker_0, # of connection points: 2
#     Edge 12, Type (0, 1), BuildingBlock: MIFKUJ_clean_linker_0, # of connection points: 2
#     Edge 13, Type (0, 1), BuildingBlock: MIFKUJ_clean_linker_0, # of connection points: 2
#     Edge 14, Type (0, 1), BuildingBlock: MIFKUJ_clean_linker_0, # of connection points: 2
#     Edge 15, Type (0, 1), BuildingBlock: MIFKUJ_clean_linker_0, # of connection points: 2
#     Edge 16, Type (0, 1), BuildingBlock: MIFKUJ_clean_linker_0, # of connection points: 2
#     Edge 17, Type (0, 1), BuildingBlock: MIFKUJ_clean_linker_0, # of connection points: 2
# Relax obj value: 0.023
# Max RMSD: 0.126
# Mean RMSD: 0.104
data_MOF--net-rtl--node1-LEVNOQ01_clean_sbu_1--node2-CUQRIR_clean_linker_1--edge1-MIFKUJ_clean_linker_0
_symmetry_space_group_name_H-M    P1
_symmetry_Int_Tables_number       1
_symmetry_cell_setting            triclinic
loop_
_symmetry_equiv_pos_as_xyz
'x, y, z'
_cell_length_a     43.760596
_cell_length_b     43.704089
_cell_length_c     27.231927
_cell_angle_alpha  90.051208
_cell_angle_beta   97.284068
_cell_angle_gamma 89.959178
loop_
_atom_site_label
_atom_site_type_symbol
_atom_site_fract_x
_atom_site_fract_y
_atom_site_fract_z
_atom_type_partial_charge
C0 C 0.22486 0.80169 0.05033 0.0
N1 N 0.20466 0.82315 0.06181 0.0
N2 N 0.24228 0.79161 0.09168 0.0
C3 C 0.22854 0.79166 0.99854 0.0
C4 C 0.23201 0.80771 0.12878 0.0
N5 N 0.2093 0.82731 0.11057 0.0
C6 C 0.24189 0.80174 0.18291 0.0
H7 H 0.21216 0.77275 0.98769 0.0
H8 H 0.25228 0.78331 0.99628 0.0
H9 H 0.22322 0.81073 0.97194 0.0
H10 H 0.26101 0.81749 0.19637 0.0
H11 H 0.25028 0.77791 0.18898 0.0
H12 H 0.22258 0.80566 0.20494 0.0
C13 C 0.71076 0.72248 0.61478 0.0
N14 N 0.69031 0.70088 0.59606 0.0
N15 N 0.72556 0.73442 0.57857 0.0
C16 C 0.71816 0.73016 0.66886 0.0
C17 C 0.71365 0.71929 0.53723 0.0
N18 N 0.69236 0.69868 0.54791 0.0
C19 C 0.7216 0.72601 0.48616 0.0
H20 H 0.7013 0.74728 0.67895 0.0
H21 H 0.74162 0.73998 0.67715 0.0
H22 H 0.71644 0.70951 0.69199 0.0
H23 H 0.73973 0.70983 0.47755 0.0
H24 H 0.73053 0.74966 0.48385 0.0
H25 H 0.70115 0.72301 0.45803 0.0
C26 C 0.80063 0.21785 0.04066 0.0
N27 N 0.82141 0.19646 0.03039 0.0
N28 N 0.78442 0.22848 0.99844 0.0
C29 C 0.79381 0.22628 0.09181 0.0
C30 C 0.79557 0.21247 0.96212 0.0
N31 N 0.81774 0.1928 0.98152 0.0
C32 C 0.78628 0.21749 0.90761 0.0
H33 H 0.76935 0.2332 0.09113 0.0
H34 H 0.80847 0.24591 0.10575 0.0
H35 H 0.79864 0.20679 0.11775 0.0
H36 H 0.77926 0.24159 0.90002 0.0
H37 H 0.76636 0.20251 0.895 0.0
H38 H 0.80532 0.21163 0.88597 0.0
C39 C 0.28426 0.31187 0.45054 0.0
N40 N 0.30626 0.33168 0.47053 0.0
N41 N 0.27111 0.29756 0.48637 0.0
C42 C 0.27394 0.3078 0.39608 0.0
C43 C 0.28551 0.30928 0.52898 0.0
N44 N 0.30673 0.33037 0.51949 0.0
C45 C 0.28055 0.29803 0.57964 0.0
H46 H 0.24915 0.30167 0.38952 0.0
H47 H 0.2872 0.28883 0.38184 0.0
H48 H 0.27778 0.32897 0.37524 0.0
H49 H 0.27277 0.27384 0.57814 0.0
H50 H 0.26233 0.31204 0.59359 0.0
H51 H 0.30198 0.29996 0.606 0.0
O52 O 0.01824 0.06775 0.64369 0.0
Mg53 Mg 0.05528 0.04771 0.61456 0.0
O54 O 0.98517 0.03692 0.60012 0.0
Mg55 Mg 0.0131 0.00853 0.54632 0.0
O56 O 0.05054 0.046 0.53946 0.0
O57 O 0.08409 0.07647 0.58607 0.0
O58 O 0.04093 0.98058 0.49291 0.0
O59 O 0.98845 0.03863 0.47903 0.0
Mg60 Mg 0.97145 0.98361 0.48232 0.0
O61 O 0.97531 0.96948 0.55446 0.0
O62 O 0.00326 0.97221 0.43342 0.0
O63 O 0.94211 0.02006 0.46207 0.0
O64 O 0.94642 0.94632 0.49042 0.0
C65 C 0.06382 0.9843 0.64535 0.0
C66 C 0.99102 0.05805 0.63249 0.0
C67 C 0.07197 0.06682 0.54319 0.0
C68 C 0.03163 0.97124 0.44921 0.0
C69 C 0.96116 0.04089 0.45643 0.0
C70 C 0.95533 0.94872 0.53716 0.0
O71 O 0.0765 0.01023 0.65036 0.0
O72 O 0.04032 0.98015 0.61293 0.0
O73 O 0.53747 0.50737 0.15829 0.0
Mg74 Mg 0.52909 0.46973 0.10941 0.0
O75 O 0.52959 0.54045 0.09667 0.0
Mg76 Mg 0.50592 0.50898 0.03447 0.0
O77 O 0.546 0.47231 0.04309 0.0
O78 O 0.56678 0.44374 0.10777 0.0
O79 O 0.48235 0.47656 0.97238 0.0
O80 O 0.53752 0.53107 0.98023 0.0
Mg81 Mg 0.46701 0.54574 0.94819 0.0
O82 O 0.46854 0.54636 0.023 0.0
O83 O 0.45001 0.50373 0.92004 0.0
O84 O 0.50875 0.56129 0.92743 0.0
O85 O 0.43727 0.57633 0.97257 0.0
C86 C 0.46768 0.46269 0.10673 0.0
C87 C 0.53781 0.5345 0.14219 0.0
C88 C 0.56622 0.45244 0.06243 0.0
C89 C 0.46162 0.47838 0.93506 0.0
C90 C 0.5347 0.55037 0.94471 0.0
C91 C 0.4475 0.5674 0.01675 0.0
O92 O 0.48929 0.44352 0.10965 0.0
O93 O 0.47163 0.48899 0.0882 0.0
H94 H 0.21296 0.30158 0.5069 0.0
H95 H 0.17388 0.26099 0.49735 0.0
H96 H 0.24016 0.1994 0.44546 0.0
H97 H 0.27848 0.24077 0.45272 0.0
H98 H 0.18851 0.18888 0.39455 0.0
H99 H 0.22108 0.19771 0.56599 0.0
H100 H 0.23338 0.22204 0.64779 0.0
H101 H 0.13859 0.24788 0.64643 0.0
H102 H 0.1258 0.22418 0.56412 0.0
H103 H 0.12319 0.05459 0.50114 0.0
H104 H 0.15281 0.09469 0.46607 0.0
H105 H 0.0748 0.15545 0.4603 0.0
H106 H 0.04499 0.11512 0.49443 0.0
H107 H 0.13009 0.16665 0.53492 0.0
H108 H 0.10104 0.14768 0.35983 0.0
H109 H 0.09527 0.11462 0.28577 0.0
H110 H 0.19254 0.09684 0.30564 0.0
H111 H 0.19887 0.12951 0.38013 0.0
C112 C 0.21882 0.27934 0.49322 0.0
C113 C 0.24834 0.27389 0.48054 0.0
C114 C 0.19671 0.25616 0.48796 0.0
C115 C 0.20417 0.22692 0.47134 0.0
C116 C 0.23377 0.22172 0.45816 0.0
C117 C 0.25564 0.24514 0.46249 0.0
C118 C 0.18136 0.20162 0.46886 0.0
C119 C 0.17586 0.18396 0.42539 0.0
C120 C 0.16496 0.19492 0.50916 0.0
C121 C 0.17256 0.20952 0.55852 0.0
C122 C 0.2029 0.20887 0.58286 0.0
C123 C 0.20996 0.2225 0.62937 0.0
C124 C 0.1868 0.23659 0.65222 0.0
C125 C 0.15652 0.23703 0.62862 0.0
C126 C 0.14936 0.22351 0.58202 0.0
C127 C 0.11172 0.07574 0.48895 0.0
C128 C 0.08189 0.08188 0.50006 0.0
C129 C 0.12872 0.09874 0.46936 0.0
C130 C 0.11604 0.12806 0.4613 0.0
C131 C 0.08488 0.1329 0.46624 0.0
C132 C 0.06777 0.10976 0.48521 0.0
C133 C 0.13686 0.15456 0.46042 0.0
C134 C 0.14232 0.17212 0.50378 0.0
C135 C 0.15415 0.16011 0.42103 0.0
C136 C 0.15039 0.14095 0.3757 0.0
C137 C 0.12117 0.1366 0.34857 0.0
C138 C 0.1178 0.11796 0.30648 0.0
C139 C 0.14351 0.10364 0.29104 0.0
C140 C 0.17265 0.10798 0.3176 0.0
C141 C 0.17615 0.12661 0.35969 0.0
H142 H 0.14085 0.08918 0.2585 0.0
H143 H 0.19229 0.24709 0.68827 0.0
H144 H 0.30131 0.79823 0.13146 0.0
H145 H 0.34166 0.75864 0.13859 0.0
H146 H 0.27607 0.69362 0.06782 0.0
H147 H 0.23592 0.73332 0.06071 0.0
H148 H 0.3116 0.67046 0.1529 0.0
H149 H 0.32464 0.72329 0.00236 0.0
H150 H 0.33298 0.76759 0.94972 0.0
H151 H 0.4196 0.78566 0.03778 0.0
H152 H 0.41153 0.74168 0.09148 0.0
H153 H 0.39039 0.55799 0.03793 0.0
H154 H 0.36013 0.59586 0.0756 0.0
H155 H 0.44268 0.64782 0.12213 0.0
H156 H 0.47293 0.60995 0.08225 0.0
H157 H 0.40382 0.68092 0.06556 0.0
H158 H 0.39264 0.61975 0.20763 0.0
H159 H 0.38348 0.57167 0.2508 0.0
H160 H 0.29235 0.56614 0.17158 0.0
H161 H 0.30105 0.61398 0.12754 0.0
C162 C 0.29573 0.77541 0.11766 0.0
C163 C 0.26582 0.76854 0.09555 0.0
C164 C 0.31863 0.75293 0.12161 0.0
C165 C 0.31176 0.72325 0.1038 0.0
C166 C 0.28174 0.71636 0.08201 0.0
C167 C 0.25896 0.73893 0.07764 0.0
C168 C 0.33593 0.6994 0.10704 0.0
C169 C 0.33184 0.67266 0.13392 0.0
C170 C 0.36259 0.70271 0.08316 0.0
C171 C 0.36723 0.7295 0.05147 0.0
C172 C 0.34527 0.73695 0.01094 0.0
C173 C 0.34999 0.76194 0.98079 0.0
C174 C 0.37674 0.77951 0.99053 0.0
C175 C 0.39884 0.77209 0.03039 0.0
C176 C 0.3942 0.74714 0.06071 0.0
C177 C 0.40226 0.57659 0.0587 0.0
C178 C 0.43384 0.58109 0.05776 0.0
C179 C 0.38494 0.59835 0.0803 0.0
C180 C 0.39904 0.62482 0.10191 0.0
C181 C 0.43129 0.62758 0.10573 0.0
C182 C 0.44864 0.60579 0.08362 0.0
C183 C 0.37954 0.65154 0.11114 0.0
C184 C 0.38427 0.67895 0.0862 0.0
C185 C 0.35331 0.64865 0.13636 0.0
C186 C 0.34752 0.62051 0.1643 0.0
C187 C 0.37064 0.60829 0.19942 0.0
C188 C 0.36554 0.58105 0.22402 0.0
C189 C 0.33735 0.56586 0.21395 0.0
C190 C 0.31415 0.57796 0.17945 0.0
C191 C 0.31911 0.60521 0.15478 0.0
H192 H 0.3335 0.54472 0.23289 0.0
H193 H 0.38038 0.79882 0.96709 0.0
H194 H 0.72069 0.79326 0.60481 0.0
H195 H 0.76196 0.83194 0.61233 0.0
H196 H 0.82582 0.76393 0.57182 0.0
H197 H 0.78428 0.72559 0.56342 0.0
H198 H 0.84931 0.80116 0.65501 0.0
H199 H 0.80073 0.80932 0.4885 0.0
H200 H 0.75743 0.81503 0.4219 0.0
H201 H 0.73677 0.90342 0.47831 0.0
H202 H 0.77964 0.89796 0.54597 0.0
H203 H 0.96352 0.88802 0.55042 0.0
H204 H 0.92523 0.85283 0.57669 0.0
H205 H 0.87142 0.92962 0.61639 0.0
H206 H 0.91021 0.96485 0.59105 0.0
H207 H 0.84127 0.89059 0.54197 0.0
H208 H 0.8964 0.88278 0.70452 0.0
H209 H 0.9424 0.8754 0.7656 0.0
H210 H 0.95373 0.78457 0.7104 0.0
H211 H 0.90803 0.79157 0.64843 0.0
C212 C 0.74362 0.78683 0.59766 0.0
C213 C 0.74965 0.75683 0.58343 0.0
C214 C 0.76706 0.80873 0.60197 0.0
C215 C 0.79689 0.80069 0.59273 0.0
C216 C 0.80299 0.77048 0.57935 0.0
C217 C 0.7794 0.74876 0.57426 0.0
C218 C 0.82147 0.82407 0.59521 0.0
C219 C 0.84768 0.82067 0.63023 0.0
C220 C 0.81901 0.84966 0.56324 0.0
C221 C 0.7931 0.85302 0.52279 0.0
C222 C 0.78671 0.82981 0.48712 0.0
C223 C 0.7623 0.83303 0.44909 0.0
C224 C 0.74428 0.85952 0.44599 0.0
C225 C 0.75069 0.88287 0.48087 0.0
C226 C 0.77504 0.87972 0.51909 0.0
C227 C 0.94438 0.89724 0.56739 0.0
C228 C 0.93999 0.92896 0.56982 0.0
C229 C 0.9224 0.8772 0.58197 0.0
C230 C 0.89546 0.88867 0.5983 0.0
C231 C 0.89213 0.92037 0.60408 0.0
C232 C 0.91443 0.94043 0.59025 0.0
C233 C 0.86918 0.86782 0.60194 0.0
C234 C 0.84266 0.87149 0.5676 0.0
C235 C 0.87163 0.84227 0.63398 0.0
C236 C 0.89889 0.83779 0.67159 0.0
C237 C 0.90882 0.8613 0.70515 0.0
C238 C 0.93482 0.85718 0.73999 0.0
C239 C 0.95101 0.82955 0.74182 0.0
C240 C 0.94117 0.80596 0.70892 0.0
C241 C 0.91518 0.80998 0.67398 0.0
H242 H 0.97116 0.82641 0.76879 0.0
H243 H 0.72541 0.86201 0.41646 0.0
H244 H 0.79399 0.28495 0.03576 0.0
H245 H 0.75672 0.32702 0.03179 0.0
H246 H 0.6893 0.27061 0.94485 0.0
H247 H 0.72676 0.22827 0.94937 0.0
H248 H 0.68938 0.33288 0.91233 0.0
H249 H 0.68422 0.27525 0.06025 0.0
H250 H 0.70466 0.24941 0.13796 0.0
H251 H 0.74 0.33491 0.19866 0.0
H252 H 0.7203 0.36118 0.12089 0.0
H253 H 0.55678 0.41435 0.98303 0.0
H254 H 0.59577 0.38013 0.95539 0.0
H255 H 0.66651 0.42662 0.05257 0.0
H256 H 0.62749 0.4599 0.08121 0.0
H257 H 0.66308 0.36783 0.07519 0.0
H258 H 0.66633 0.42583 0.92566 0.0
H259 H 0.64387 0.45074 0.84818 0.0
H260 H 0.60915 0.36419 0.79102 0.0
H261 H 0.63107 0.33881 0.86845 0.0
C262 C 0.7712 0.28167 0.01585 0.0
C263 C 0.76292 0.25348 0.99343 0.0
C264 C 0.75006 0.30565 0.01326 0.0
C265 C 0.72023 0.3018 0.98829 0.0
C266 C 0.71226 0.27402 0.96409 0.0
C267 C 0.7335 0.24992 0.96681 0.0
C268 C 0.69687 0.326 0.99126 0.0
C269 C 0.68331 0.34042 0.9478 0.0
C270 C 0.68922 0.33585 0.03762 0.0
C271 C 0.70107 0.32012 0.08452 0.0
C272 C 0.69662 0.28849 0.08998 0.0
C273 C 0.70803 0.27377 0.13407 0.0
C274 C 0.72369 0.29049 0.17318 0.0
C275 C 0.72792 0.32198 0.1683 0.0
C276 C 0.71664 0.33679 0.12421 0.0
C277 C 0.58086 0.41798 0.9967 0.0
C278 C 0.5894 0.4396 0.034 0.0
C279 C 0.6031 0.39844 0.98102 0.0
C280 C 0.63403 0.4007 1.00222 0.0
C281 C 0.64277 0.42438 0.03594 0.0
C282 C 0.62057 0.44349 0.05206 0.0
C283 C 0.65614 0.37564 0.99639 0.0
C284 C 0.66924 0.36065 0.03956 0.0
C285 C 0.66303 0.36528 0.9498 0.0
C286 C 0.65011 0.38046 0.90304 0.0
C287 C 0.65371 0.41214 0.89672 0.0
C288 C 0.64112 0.42634 0.85277 0.0
C289 C 0.62503 0.40907 0.81474 0.0
C290 C 0.6216 0.37754 0.82052 0.0
C291 C 0.63414 0.36323 0.8644 0.0
H292 H 0.61528 0.42011 0.78076 0.0
H293 H 0.73247 0.27906 0.20731 0.0
H294 H 0.2331 0.86709 0.18081 0.0
H295 H 0.2048 0.89524 0.23869 0.0
H296 H 0.11893 0.8632 0.16064 0.0
H297 H 0.14729 0.83319 0.10489 0.0
H298 H 0.13636 0.93737 0.20111 0.0
H299 H 0.12 0.82776 0.23729 0.0
H300 H 0.13989 0.77544 0.2535 0.0
H301 H 0.20311 0.80854 0.37542 0.0
H302 H 0.18403 0.86122 0.3591 0.0
H303 H 0.01927 0.96177 0.35019 0.0
H304 H 0.05334 0.9421 0.29377 0.0
H305 H 0.12709 0.9349 0.41428 0.0
H306 H 0.09276 0.95486 0.47179 0.0
H307 H 0.12077 0.88271 0.3558 0.0
H308 H 0.13055 0.98934 0.33241 0.0
H309 H 0.11371 0.04274 0.31815 0.0
H310 H 0.06704 0.01824 0.17527 0.0
H311 H 0.08305 0.96449 0.18908 0.0
C312 C 0.20818 0.86611 0.1761 0.0
C313 C 0.19237 0.84769 0.1389 0.0
C314 C 0.1921 0.88229 0.20887 0.0
C315 C 0.1599 0.88093 0.20412 0.0
C316 C 0.14386 0.86431 0.16491 0.0
C317 C 0.16001 0.84747 0.13284 0.0
C318 C 0.14326 0.89536 0.24202 0.0
C319 C 0.13253 0.92541 0.23468 0.0
C320 C 0.13958 0.88005 0.28657 0.0
C321 C 0.15101 0.84846 0.29639 0.0
C322 C 0.13848 0.82395 0.26704 0.0
C323 C 0.14953 0.79422 0.27635 0.0
C324 C 0.17287 0.78869 0.31531 0.0
C325 C 0.18513 0.81288 0.34512 0.0
C326 C 0.17424 0.84267 0.33582 0.0
C327 C 0.04274 0.95609 0.36498 0.0
C328 C 0.05326 0.9598 0.41566 0.0
C329 C 0.06226 0.94501 0.33246 0.0
C330 C 0.09282 0.93731 0.34967 0.0
C331 C 0.10356 0.94084 0.40025 0.0
C332 C 0.08399 0.95228 0.433 0.0
C333 C 0.11282 0.92463 0.31447 0.0
C334 C 0.12451 0.89489 0.32238 0.0
C335 C 0.11755 0.94041 0.27059 0.0
C336 C 0.10778 0.97275 0.26202 0.0
C337 C 0.11643 0.99524 0.29814 0.0
C338 C 0.10708 0.02561 0.2901 0.0
C339 C 0.08928 0.03388 0.24586 0.0
C340 C 0.08081 0.01179 0.20955 0.0
C341 C 0.09003 0.98135 0.21747 0.0
H342 H 0.08209 0.05742 0.23969 0.0
H343 H 0.18135 0.76565 0.32253 0.0
H344 H 0.6503 0.71835 0.65781 0.0
H345 H 0.62795 0.68566 0.71718 0.0
H346 H 0.66852 0.60625 0.65694 0.0
H347 H 0.69141 0.63922 0.59808 0.0
H348 H 0.60509 0.59878 0.68375 0.0
H349 H 0.70675 0.63349 0.75182 0.0
H350 H 0.74649 0.67306 0.77221 0.0
H351 H 0.68793 0.71946 0.86336 0.0
H352 H 0.64764 0.68042 0.8429 0.0
H353 H 0.5713 0.51502 0.89393 0.0
H354 H 0.60455 0.534 0.83414 0.0
H355 H 0.58878 0.62669 0.87981 0.0
H356 H 0.55565 0.60779 0.93879 0.0
H357 H 0.64635 0.62028 0.85869 0.0
H358 H 0.54368 0.59476 0.78573 0.0
H359 H 0.49886 0.5612 0.76298 0.0
H360 H 0.55311 0.50371 0.67971 0.0
H361 H 0.59848 0.53667 0.70279 0.0
C362 C 0.65398 0.69386 0.65695 0.0
C363 C 0.67275 0.68118 0.62413 0.0
C364 C 0.64126 0.67526 0.69064 0.0
C365 C 0.64703 0.64366 0.6918 0.0
C366 C 0.66391 0.63061 0.65659 0.0
C367 C 0.67684 0.64933 0.62302 0.0
C368 C 0.63763 0.62499 0.73259 0.0
C369 C 0.61455 0.60288 0.72197 0.0
C370 C 0.64959 0.63099 0.78239 0.0
C371 C 0.67411 0.6541 0.7956 0.0
C372 C 0.70228 0.65221 0.77601 0.0
C373 C 0.72492 0.67453 0.78762 0.0
C374 C 0.71972 0.69878 0.819 0.0
C375 C 0.69192 0.70067 0.83903 0.0
C376 C 0.6692 0.67843 0.8275 0.0
C377 C 0.57607 0.53931 0.89239 0.0
C378 C 0.56131 0.56006 0.92095 0.0
C379 C 0.59471 0.55014 0.85796 0.0
C380 C 0.59875 0.5818 0.85207 0.0
C381 C 0.586 0.60221 0.88369 0.0
C382 C 0.56719 0.59144 0.91749 0.0
C383 C 0.61337 0.5943 0.81014 0.0
C384 C 0.63743 0.61542 0.82048 0.0
C385 C 0.60175 0.58791 0.76018 0.0
C386 C 0.57462 0.56787 0.7467 0.0
C387 C 0.54617 0.57475 0.76308 0.0
C388 C 0.52064 0.55588 0.75004 0.0
C389 C 0.52317 0.53026 0.7201 0.0
C390 C 0.55123 0.5235 0.70307 0.0
C391 C 0.57687 0.54224 0.71617 0.0
H392 H 0.50337 0.51571 0.70995 0.0
H393 H 0.73725 0.71607 0.82785 0.0
H394 H 0.83505 0.13581 0.03553 0.0
H395 H 0.86836 0.1099 0.10159 0.0
H396 H 0.88895 0.19681 0.17388 0.0
H397 H 0.85894 0.22282 0.10464 0.0
H398 H 0.93528 0.16435 0.19591 0.0
H399 H 0.82671 0.14391 0.19932 0.0
H400 H 0.7749 0.12534 0.16635 0.0
H401 H 0.81133 0.03529 0.14873 0.0
H402 H 0.86341 0.05342 0.1811 0.0
H403 H 0.95666 0.10367 0.44734 0.0
H404 H 0.94032 0.13212 0.37006 0.0
H405 H 0.93674 0.04744 0.28781 0.0
H406 H 0.95227 0.01935 0.36423 0.0
H407 H 0.88354 0.07865 0.27133 0.0
H408 H 0.99221 0.10009 0.27686 0.0
H409 H 0.04221 0.11968 0.31634 0.0
H410 H 0.00355 0.20965 0.32366 0.0
H411 H 0.95313 0.19046 0.28508 0.0
C412 C 0.84757 0.1494 0.06461 0.0
C413 C 0.84381 0.18128 0.06563 0.0
C414 C 0.86617 0.13456 0.10296 0.0
C415 C 0.88016 0.1512 0.14412 0.0
C416 C 0.87811 0.18326 0.1432 0.0
C417 C 0.86054 0.19812 0.10397 0.0
C418 C 0.89498 0.13543 0.18956 0.0
C419 C 0.9238 0.14577 0.21252 0.0
C420 C 0.88029 0.11098 0.21151 0.0
C421 C 0.84896 0.10009 0.19215 0.0
C422 C 0.82367 0.12019 0.18817 0.0
C423 C 0.79427 0.10974 0.16961 0.0
C424 C 0.78984 0.07918 0.15534 0.0
C425 C 0.8148 0.05897 0.15971 0.0
C426 C 0.84425 0.06931 0.17819 0.0
C427 C 0.95277 0.09144 0.4125 0.0
C428 C 0.95524 0.05946 0.41135 0.0
C429 C 0.94357 0.10758 0.36851 0.0
C430 C 0.93722 0.0918 0.32323 0.0
C431 C 0.94127 0.06002 0.32227 0.0
C432 C 0.95011 0.04403 0.36587 0.0
C433 C 0.9237 0.10748 0.27728 0.0
C434 C 0.89504 0.09716 0.25446 0.0
C435 C 0.93833 0.13213 0.25616 0.0
C436 C 0.96881 0.14377 0.27846 0.0
C437 C 0.99431 0.12401 0.28718 0.0
C438 C 0.02275 0.13505 0.30934 0.0
C439 C 0.02606 0.16588 0.32253 0.0
C440 C 0.00095 0.18576 0.31345 0.0
C441 C 0.97244 0.17482 0.29141 0.0
H442 H 0.04807 0.17439 0.33975 0.0
H443 H 0.76706 0.07113 0.14098 0.0
H444 H 0.28755 0.36282 0.59315 0.0
H445 H 0.31936 0.38534 0.66344 0.0
H446 H 0.4011 0.36321 0.59668 0.0
H447 H 0.36888 0.33715 0.5288 0.0
H448 H 0.41281 0.35071 0.68613 0.0
H449 H 0.36996 0.44115 0.60803 0.0
H450 H 0.32987 0.47585 0.56791 0.0
H451 H 0.28544 0.47661 0.69972 0.0
H452 H 0.32501 0.44164 0.74045 0.0
H453 H 0.49562 0.44877 0.87395 0.0
H454 H 0.47423 0.41943 0.80092 0.0
H455 H 0.38502 0.42034 0.8529 0.0
H456 H 0.40622 0.45075 0.92461 0.0
H457 H 0.38359 0.44687 0.76485 0.0
H458 H 0.42752 0.3521 0.83888 0.0
H459 H 0.47118 0.32106 0.87757 0.0
H460 H 0.5181 0.33398 0.74989 0.0
H461 H 0.4748 0.36529 0.71061 0.0
C462 C 0.31232 0.36278 0.59361 0.0
C463 C 0.32581 0.34808 0.55597 0.0
C464 C 0.33056 0.37617 0.63339 0.0
C465 C 0.36278 0.37674 0.63517 0.0
C466 C 0.37632 0.36319 0.59625 0.0
C467 C 0.35796 0.34869 0.55716 0.0
C468 C 0.382 0.38956 0.67941 0.0
C469 C 0.40668 0.37204 0.70276 0.0
C470 C 0.37421 0.41739 0.70158 0.0
C471 C 0.35043 0.43863 0.67721 0.0
C472 C 0.35156 0.44859 0.62838 0.0
C473 C 0.32893 0.46833 0.60554 0.0
C474 C 0.30511 0.4784 0.63123 0.0
C475 C 0.30391 0.46881 0.67987 0.0
C476 C 0.32647 0.44908 0.70288 0.0
C477 C 0.47183 0.44132 0.8708 0.0
C478 C 0.45249 0.45157 0.90471 0.0
C479 C 0.45958 0.42471 0.829 0.0
C480 C 0.42797 0.41787 0.82132 0.0
C481 C 0.40943 0.42552 0.85802 0.0
C482 C 0.42155 0.44254 0.89921 0.0
C483 C 0.41313 0.40729 0.77235 0.0
C484 C 0.38961 0.42558 0.7479 0.0
C485 C 0.42245 0.38066 0.74885 0.0
C486 C 0.44802 0.36115 0.77197 0.0
C487 C 0.44719 0.34838 0.81915 0.0
C488 C 0.47186 0.33073 0.84116 0.0
C489 C 0.49742 0.3256 0.81624 0.0
C490 C 0.49829 0.33797 0.76914 0.0
C491 C 0.47366 0.3556 0.74694 0.0
H492 H 0.51653 0.312 0.8334 0.0
H493 H 0.28761 0.49366 0.61346 0.0
H494 H 0.71267 0.65847 0.48473 0.0
H495 H 0.68143 0.63204 0.41644 0.0
H496 H 0.59885 0.66921 0.46464 0.0
H497 H 0.63035 0.69601 0.5328 0.0
H498 H 0.59435 0.60582 0.42989 0.0
H499 H 0.62491 0.70574 0.37828 0.0
H500 H 0.66311 0.74639 0.3709 0.0
H501 H 0.71359 0.6864 0.28556 0.0
H502 H 0.6759 0.64523 0.29304 0.0
H503 H 0.50585 0.56753 0.20279 0.0
H504 H 0.52785 0.59977 0.2724 0.0
H505 H 0.61879 0.58492 0.2311 0.0
H506 H 0.5966 0.55354 0.16095 0.0
H507 H 0.61458 0.64111 0.26374 0.0
H508 H 0.58952 0.5407 0.31906 0.0
H509 H 0.55521 0.49698 0.32878 0.0
H510 H 0.49838 0.55391 0.40849 0.0
H511 H 0.53214 0.59813 0.39859 0.0
C512 C 0.68783 0.66062 0.48088 0.0
C513 C 0.67377 0.6795 0.51311 0.0
C514 C 0.67005 0.64554 0.44216 0.0
C515 C 0.63792 0.64913 0.43518 0.0
C516 C 0.62363 0.66628 0.46944 0.0
C517 C 0.64152 0.68148 0.5082 0.0
C518 C 0.61984 0.63713 0.38969 0.0
C519 C 0.59827 0.61385 0.39353 0.0
C520 C 0.62554 0.64731 0.3424 0.0
C521 C 0.64767 0.67236 0.33645 0.0
C522 C 0.64421 0.70119 0.35809 0.0
C523 C 0.66577 0.72432 0.35387 0.0
C524 C 0.69079 0.71897 0.32785 0.0
C525 C 0.6942 0.69051 0.30573 0.0
C526 C 0.67272 0.66729 0.30986 0.0
C527 C 0.5304 0.57206 0.20798 0.0
C528 C 0.54967 0.55856 0.17673 0.0
C529 C 0.54298 0.59014 0.24786 0.0
C530 C 0.57504 0.59428 0.25748 0.0
C531 C 0.59402 0.58205 0.22443 0.0
C532 C 0.58141 0.56423 0.18438 0.0
C533 C 0.58923 0.60937 0.30363 0.0
C534 C 0.61018 0.6333 0.3 0.0
C535 C 0.58327 0.59942 0.35107 0.0
C536 C 0.56315 0.5728 0.35758 0.0
C537 C 0.56959 0.54395 0.33837 0.0
C538 C 0.55026 0.51907 0.34394 0.0
C539 C 0.52458 0.52269 0.3691 0.0
C540 C 0.51825 0.55117 0.38891 0.0
C541 C 0.53747 0.57614 0.38334 0.0
H542 H 0.50963 0.5034 0.37336 0.0
H543 H 0.7075 0.73688 0.32476 0.0
H544 H 0.79904 0.14058 0.93594 0.0
H545 H 0.82526 0.11286 0.87455 0.0
H546 H 0.90144 0.17598 0.89948 0.0
H547 H 0.87528 0.20314 0.96163 0.0
H548 H 0.87357 0.16996 0.79839 0.0
H549 H 0.91363 0.10762 0.93773 0.0
H550 H 0.90888 0.07486 0.00999 0.0
H551 H 0.85593 0.00982 0.91642 0.0
H552 H 0.8599 0.04252 0.84364 0.0
H553 H 0.99301 0.11195 0.6817 0.0
H554 H 0.95793 0.13067 0.73697 0.0
H555 H 0.89913 0.05233 0.70259 0.0
H556 H 0.93498 0.03286 0.647 0.0
H557 H 0.91067 0.06255 0.80266 0.0
H558 H 0.87438 0.12242 0.66184 0.0
H559 H 0.87809 0.15556 0.58961 0.0
H560 H 0.92208 0.22527 0.68478 0.0
H561 H 0.91901 0.19241 0.75755 0.0
C562 C 0.82181 0.14774 0.92913 0.0
C563 C 0.83558 0.17348 0.95346 0.0
C564 C 0.83666 0.13212 0.89412 0.0
C565 C 0.86521 0.14247 0.88248 0.0
C566 C 0.87941 0.16767 0.90807 0.0
C567 C 0.86474 0.18296 0.94367 0.0
C568 C 0.8792 0.1285 0.8411 0.0
C569 C 0.88196 0.14657 0.79942 0.0
C570 C 0.8888 0.09759 0.84176 0.0
C571 C 0.88676 0.07769 0.88532 0.0
C572 C 0.90074 0.08647 0.93261 0.0
C573 C 0.89823 0.06789 0.97366 0.0
C574 C 0.88204 0.04031 0.96782 0.0
C575 C 0.86842 0.03122 0.92088 0.0
C576 C 0.8708 0.04976 0.87971 0.0
C577 C 0.97245 0.09876 0.68524 0.0
C578 C 0.96684 0.07084 0.66 0.0
C579 C 0.95228 0.10963 0.71678 0.0
C580 C 0.92574 0.09308 0.72368 0.0
C581 C 0.91947 0.06551 0.69765 0.0
C582 C 0.93979 0.05455 0.66566 0.0
C583 C 0.90592 0.10433 0.7603 0.0
C584 C 0.90189 0.0858 0.80114 0.0
C585 C 0.89491 0.13484 0.7588 0.0
C586 C 0.89659 0.15485 0.71516 0.0
C587 C 0.88501 0.14475 0.66736 0.0
C588 C 0.88697 0.1635 0.62631 0.0
C589 C 0.90035 0.19248 0.6326 0.0
C590 C 0.91172 0.20282 0.67997 0.0
C591 C 0.90981 0.18416 0.72115 0.0
H592 H 0.90187 0.20695 0.60077 0.0
H593 H 0.88012 0.02596 0.99965 0.0
H594 H 0.31918 0.39261 0.4781 0.0
H595 H 0.34921 0.42222 0.42425 0.0
H596 H 0.36577 0.33935 0.34487 0.0
H597 H 0.33951 0.30992 0.40231 0.0
H598 H 0.41174 0.36953 0.34444 0.0
H599 H 0.30268 0.40057 0.31229 0.0
H600 H 0.25544 0.42399 0.3365 0.0
H601 H 0.30433 0.50782 0.3728 0.0
H602 H 0.3519 0.48477 0.34928 0.0
H603 H 0.43485 0.41035 0.10893 0.0
H604 H 0.4047 0.3948 0.17435 0.0
H605 H 0.41603 0.48474 0.23955 0.0
H606 H 0.44491 0.50084 0.17241 0.0
H607 H 0.36148 0.45924 0.25659 0.0
H608 H 0.46839 0.42755 0.274 0.0
H609 H 0.51356 0.40277 0.24514 0.0
H610 H 0.46548 0.31696 0.23195 0.0
H611 H 0.41987 0.34131 0.26001 0.0
C612 C 0.33007 0.38086 0.44992 0.0
C613 C 0.32653 0.34911 0.44343 0.0
C614 C 0.34673 0.3978 0.4185 0.0
C615 C 0.35892 0.38337 0.37891 0.0
C616 C 0.35655 0.35138 0.37454 0.0
C617 C 0.34115 0.33449 0.40699 0.0
C618 C 0.37332 0.40078 0.34059 0.0
C619 C 0.4004 0.38894 0.3251 0.0
C620 C 0.35955 0.42701 0.31615 0.0
C621 C 0.33085 0.44086 0.32956 0.0
C622 C 0.30333 0.42396 0.32559 0.0
C623 C 0.27652 0.43716 0.33921 0.0
C624 C 0.27691 0.46734 0.35632 0.0
C625 C 0.30407 0.48443 0.35966 0.0
C626 C 0.33095 0.47132 0.34619 0.0
C627 C 0.4298 0.42712 0.13611 0.0
C628 C 0.44223 0.45669 0.13591 0.0
C629 C 0.41287 0.41817 0.17375 0.0
C630 C 0.40913 0.43828 0.21283 0.0
C631 C 0.41895 0.46876 0.21008 0.0
C632 C 0.43529 0.47798 0.17159 0.0
C633 C 0.39829 0.4264 0.25873 0.0
C634 C 0.37253 0.43974 0.2761 0.0
C635 C 0.41284 0.40109 0.28441 0.0
C636 C 0.44068 0.3863 0.26895 0.0
C637 C 0.46744 0.40341 0.26486 0.0
C638 C 0.49311 0.38944 0.24858 0.0
C639 C 0.49239 0.35832 0.2367 0.0
C640 C 0.46602 0.34106 0.24119 0.0
C641 C 0.44027 0.35492 0.25733 0.0
H642 H 0.51226 0.34756 0.22404 0.0
H643 H 0.25614 0.47751 0.36688 0.0
H644 H 0.20743 0.88193 0.03433 0.0
H645 H 0.17591 0.90616 0.96396 0.0
H646 H 0.12181 0.82358 0.94045 0.0
H647 H 0.1545 0.79921 0.00947 0.0
H648 H 0.13781 0.84074 0.85747 0.0
H649 H 0.0933 0.893 0.9853 0.0
H650 H 0.09324 0.92321 0.0618 0.0
H651 H 0.13614 0.99826 0.99537 0.0
H652 H 0.13704 0.96831 0.91881 0.0
H653 H 0.0344 0.93216 0.67289 0.0
H654 H 0.05179 0.8992 0.7446 0.0
H655 H 0.13619 0.95076 0.77145 0.0
H656 H 0.11976 0.98281 0.70021 0.0
H657 H 0.09506 0.94592 0.85373 0.0
H658 H 0.14846 0.89013 0.73512 0.0
H659 H 0.15123 0.85991 0.65932 0.0
H660 H 0.09156 0.79205 0.70992 0.0
H661 H 0.08808 0.82219 0.78576 0.0
C662 C 0.18828 0.86946 0.01465 0.0
C663 C 0.18292 0.83904 0.02702 0.0
C664 C 0.17024 0.88319 0.9746 0.0
C665 C 0.14616 0.86682 0.94709 0.0
C666 C 0.14017 0.83669 0.96101 0.0
C667 C 0.15857 0.82286 1.00046 0.0
C668 C 0.12902 0.88017 0.90147 0.0
C669 C 0.12779 0.86347 0.85705 0.0
C670 C 0.1163 0.91001 0.90049 0.0
C671 C 0.11538 0.92829 0.94632 0.0
C672 C 0.10289 0.91588 0.98707 0.0
C673 C 0.1027 0.93296 0.03047 0.0
C674 C 0.1147 0.96262 0.03346 0.0
C675 C 0.12685 0.97528 0.99301 0.0
C676 C 0.12718 0.95826 0.94958 0.0
C677 C 0.05699 0.93584 0.69334 0.0
C678 C 0.07553 0.96032 0.68125 0.0
C679 C 0.06677 0.91719 0.73436 0.0
C680 C 0.09504 0.92299 0.76349 0.0
C681 C 0.11416 0.94621 0.74968 0.0
C682 C 0.10468 0.96446 0.70882 0.0
C683 C 0.10444 0.90663 0.8104 0.0
C684 C 0.10431 0.92285 0.85485 0.0
C685 C 0.11592 0.87646 0.8115 0.0
C686 C 0.11754 0.85867 0.7656 0.0
C687 C 0.13555 0.86901 0.72972 0.0
C688 C 0.13736 0.85183 0.68685 0.0
C689 C 0.12145 0.82415 0.67968 0.0
C690 C 0.10377 0.81356 0.71543 0.0
C691 C 0.10186 0.83068 0.75834 0.0
H692 H 0.12293 0.81085 0.64652 0.0
H693 H 0.11454 0.97581 0.0671 0.0
loop_
_geom_bond_atom_site_label_1
_geom_bond_atom_site_label_2
_geom_bond_distance
_geom_bond_site_symmetry_2
_ccdc_geom_bond_type
C0 N1 1.317 . S
C0 N2 1.348 . S
C0 C3 1.485 1_554 S
N1 C0 1.317 . S
N1 N5 1.370 . S
N2 C0 1.348 . S
N2 C4 1.346 . S
C3 C0 1.485 1_556 S
C3 H7 0.960 . S
C3 H8 0.961 . S
C3 H9 0.960 . S
C4 N2 1.346 . S
C4 N5 1.307 . S
C4 C6 1.486 . S
N5 N1 1.370 . S
N5 C4 1.307 . S
C6 C4 1.486 . S
C6 H10 0.960 . S
C6 H11 0.960 . S
C6 H12 0.959 . S
H7 C3 0.960 . S
H8 C3 0.961 . S
H9 C3 0.960 . S
H10 C6 0.960 . S
H11 C6 0.960 . S
H12 C6 0.959 . S
C13 N14 1.317 . S
C13 N15 1.348 . S
C13 C16 1.485 . S
N14 C13 1.317 . S
N14 N18 1.370 . S
N15 C13 1.348 . S
N15 C17 1.346 . S
C16 C13 1.485 . S
C16 H20 0.960 . S
C16 H21 0.961 . S
C16 H22 0.960 . S
C17 N15 1.346 . S
C17 N18 1.307 . S
C17 C19 1.486 . S
N18 N14 1.370 . S
N18 C17 1.307 . S
C19 C17 1.486 . S
C19 H23 0.960 . S
C19 H24 0.960 . S
C19 H25 0.959 . S
H20 C16 0.960 . S
H21 C16 0.961 . S
H22 C16 0.960 . S
H23 C19 0.960 . S
H24 C19 0.960 . S
H25 C19 0.959 . S
C26 N27 1.317 . S
C26 N28 1.366 . S
C26 C29 1.485 . S
N27 C26 1.317 . S
N27 N31 1.370 1_554 S
N28 C26 1.366 . S
N28 C30 1.327 1_554 S
C29 C26 1.485 . S
C29 H33 0.960 . S
C29 H34 0.961 . S
C29 H35 0.960 . S
C30 N28 1.327 1_556 S
C30 N31 1.307 . S
C30 C32 1.486 . S
N31 N27 1.370 1_556 S
N31 C30 1.307 . S
C32 C30 1.486 . S
C32 H36 0.960 . S
C32 H37 0.960 . S
C32 H38 0.959 . S
H33 C29 0.960 . S
H34 C29 0.961 . S
H35 C29 0.960 . S
H36 C32 0.960 . S
H37 C32 0.960 . S
H38 C32 0.959 . S
C39 N40 1.317 . S
C39 N41 1.348 . S
C39 C42 1.485 . S
N40 C39 1.317 . S
N40 N44 1.370 . S
N41 C39 1.348 . S
N41 C43 1.346 . S
C42 C39 1.485 . S
C42 H46 0.960 . S
C42 H47 0.961 . S
C42 H48 0.960 . S
C43 N41 1.346 . S
C43 N44 1.307 . S
C43 C45 1.486 . S
N44 N40 1.370 . S
N44 C43 1.307 . S
C45 C43 1.486 . S
C45 H49 0.960 . S
C45 H50 0.960 . S
C45 H51 0.959 . S
H46 C42 0.960 . S
H47 C42 0.961 . S
H48 C42 0.960 . S
H49 C45 0.960 . S
H50 C45 0.960 . S
H51 C45 0.959 . S
O52 Mg53 1.990 . S
O52 C66 1.253 1_455 S
Mg53 O52 1.990 . S
Mg53 O56 2.180 . S
Mg53 O57 2.117 . S
Mg53 O71 2.030 . S
O54 Mg55 2.072 1_655 S
O54 C66 1.260 . S
Mg55 O54 2.072 1_455 S
Mg55 O56 2.099 . S
Mg55 O58 2.079 1_545 S
Mg55 O59 2.072 1_455 S
Mg55 O61 2.099 1_445 S
Mg55 O72 2.079 1_545 S
O56 Mg53 2.180 . S
O56 Mg55 2.099 . S
O56 C67 1.279 . S
O57 Mg53 2.117 . S
O57 C67 1.250 . S
O58 Mg55 2.079 1_565 S
O58 C68 1.264 . S
O59 Mg55 2.072 1_655 S
O59 C69 1.260 . S
Mg60 O61 2.180 . S
Mg60 O62 2.030 1_655 S
Mg60 O63 1.990 1_565 S
Mg60 O64 2.117 . S
O61 Mg55 2.099 1_665 S
O61 Mg60 2.180 . S
O61 C70 1.279 . S
O62 Mg60 2.030 1_455 S
O62 C68 1.248 . S
O63 Mg60 1.990 1_545 S
O63 C69 1.253 . S
O64 Mg60 2.117 . S
O64 C70 1.250 . S
C65 O71 1.248 1_565 S
C65 O72 1.264 . S
C66 O52 1.253 1_655 S
C66 O54 1.260 . S
C67 O56 1.279 . S
C67 O57 1.250 . S
C68 O58 1.264 . S
C68 O62 1.248 . S
C69 O59 1.260 . S
C69 O63 1.253 . S
C70 O61 1.279 . S
C70 O64 1.250 . S
O71 Mg53 2.030 . S
O71 C65 1.248 1_545 S
O72 Mg55 2.079 1_565 S
O72 C65 1.264 . S
O73 Mg74 1.990 . S
O73 C87 1.253 . S
Mg74 O73 1.990 . S
Mg74 O77 2.180 . S
Mg74 O78 2.117 . S
Mg74 O92 2.030 . S
O75 Mg76 2.072 . S
O75 C87 1.260 . S
Mg76 O75 2.072 . S
Mg76 O77 2.099 . S
Mg76 O79 2.079 1_554 S
Mg76 O80 2.072 1_554 S
Mg76 O82 2.099 . S
Mg76 O93 2.079 . S
O77 Mg74 2.180 . S
O77 Mg76 2.099 . S
O77 C88 1.279 . S
O78 Mg74 2.117 . S
O78 C88 1.250 . S
O79 Mg76 2.079 1_556 S
O79 C89 1.264 . S
O80 Mg76 2.072 1_556 S
O80 C90 1.260 . S
Mg81 O82 2.180 1_556 S
Mg81 O83 2.030 . S
Mg81 O84 1.990 . S
Mg81 O85 2.117 . S
O82 Mg76 2.099 . S
O82 Mg81 2.180 1_554 S
O82 C91 1.279 . S
O83 Mg81 2.030 . S
O83 C89 1.248 . S
O84 Mg81 1.990 . S
O84 C90 1.253 . S
O85 Mg81 2.117 . S
O85 C91 1.250 1_556 S
C86 O92 1.248 . S
C86 O93 1.264 . S
C87 O73 1.253 . S
C87 O75 1.260 . S
C88 O77 1.279 . S
C88 O78 1.250 . S
C89 O79 1.264 . S
C89 O83 1.248 . S
C90 O80 1.260 . S
C90 O84 1.253 . S
C91 O82 1.279 . S
C91 O85 1.250 1_554 S
O92 Mg74 2.030 . S
O92 C86 1.248 . S
O93 Mg76 2.079 . S
O93 C86 1.264 . S
H94 C112 0.951 . S
H95 C114 0.951 . S
H96 C116 0.950 . S
H97 C117 0.950 . S
H98 C119 0.950 . S
H99 C122 0.950 . S
H100 C123 0.950 . S
H101 C125 0.950 . S
H102 C126 0.950 . S
H103 C127 0.951 . S
H104 C129 0.951 . S
H105 C131 0.950 . S
H106 C132 0.950 . S
H107 C134 0.950 . S
H108 C137 0.950 . S
H109 C138 0.950 . S
H110 C140 0.950 . S
H111 C141 0.950 . S
C112 H94 0.951 . S
C112 C113 1.366 . S
C112 C114 1.388 . S
C113 C112 1.366 . S
C113 C117 1.385 . S
C114 H95 0.951 . S
C114 C112 1.388 . S
C114 C115 1.366 . S
C115 C114 1.366 . S
C115 C116 1.414 . S
C115 C118 1.499 . S
C116 H96 0.950 . S
C116 C115 1.414 . S
C116 C117 1.374 . S
C117 H97 0.950 . S
C117 C113 1.385 . S
C117 C116 1.374 . S
C118 C115 1.499 . S
C118 C119 1.373 . S
C118 C120 1.389 . S
C119 H98 0.950 . S
C119 C118 1.373 . S
C119 C135 1.377 . S
C120 C118 1.389 . S
C120 C121 1.524 . S
C120 C134 1.377 . S
C121 C120 1.524 . S
C121 C122 1.397 . S
C121 C126 1.363 . S
C122 H99 0.950 . S
C122 C121 1.397 . S
C122 C123 1.334 . S
C123 H100 0.950 . S
C123 C122 1.334 . S
C123 C124 1.287 . S
C124 C123 1.287 . S
C124 C125 1.524 . S
C124 H143 0.913 . S
C125 H101 0.950 . S
C125 C124 1.524 . S
C125 C126 1.415 . S
C126 H102 0.950 . S
C126 C121 1.363 . S
C126 C125 1.415 . S
C127 H103 0.951 . S
C127 C128 1.366 . S
C127 C129 1.388 . S
C128 C127 1.366 . S
C128 C132 1.385 . S
C129 H104 0.951 . S
C129 C127 1.388 . S
C129 C130 1.366 . S
C130 C129 1.366 . S
C130 C131 1.414 . S
C130 C133 1.499 . S
C131 H105 0.950 . S
C131 C130 1.414 . S
C131 C132 1.374 . S
C132 H106 0.950 . S
C132 C128 1.385 . S
C132 C131 1.374 . S
C133 C130 1.499 . S
C133 C134 1.373 . S
C133 C135 1.389 . S
C134 H107 0.950 . S
C134 C120 1.377 . S
C134 C133 1.373 . S
C135 C119 1.377 . S
C135 C133 1.389 . S
C135 C136 1.524 . S
C136 C135 1.524 . S
C136 C137 1.397 . S
C136 C141 1.363 . S
C137 H108 0.950 . S
C137 C136 1.397 . S
C137 C138 1.334 . S
C138 H109 0.950 . S
C138 C137 1.334 . S
C138 C139 1.287 . S
C139 C138 1.287 . S
C139 C140 1.524 . S
C139 H142 0.999 . S
C140 H110 0.950 . S
C140 C139 1.524 . S
C140 C141 1.415 . S
C141 H111 0.950 . S
C141 C136 1.363 . S
C141 C140 1.415 . S
H142 C139 0.999 . S
H143 C124 0.913 . S
H144 C162 0.951 . S
H145 C164 0.951 . S
H146 C166 0.950 . S
H147 C167 0.950 . S
H148 C169 0.950 . S
H149 C172 0.950 . S
H150 C173 0.950 . S
H151 C175 0.950 . S
H152 C176 0.950 . S
H153 C177 0.951 . S
H154 C179 0.951 . S
H155 C181 0.950 . S
H156 C182 0.950 . S
H157 C184 0.950 . S
H158 C187 0.950 . S
H159 C188 0.950 . S
H160 C190 0.950 . S
H161 C191 0.950 . S
C162 H144 0.951 . S
C162 C163 1.366 . S
C162 C164 1.388 . S
C163 C162 1.366 . S
C163 C167 1.385 . S
C164 H145 0.951 . S
C164 C162 1.388 . S
C164 C165 1.366 . S
C165 C164 1.366 . S
C165 C166 1.414 . S
C165 C168 1.499 . S
C166 H146 0.950 . S
C166 C165 1.414 . S
C166 C167 1.374 . S
C167 H147 0.950 . S
C167 C163 1.385 . S
C167 C166 1.374 . S
C168 C165 1.499 . S
C168 C169 1.373 . S
C168 C170 1.389 . S
C169 H148 0.950 . S
C169 C168 1.373 . S
C169 C185 1.377 . S
C170 C168 1.389 . S
C170 C171 1.524 . S
C170 C184 1.377 . S
C171 C170 1.524 . S
C171 C172 1.397 1_554 S
C171 C176 1.363 . S
C172 H149 0.950 . S
C172 C171 1.397 1_556 S
C172 C173 1.334 . S
C173 H150 0.950 . S
C173 C172 1.334 . S
C173 C174 1.287 . S
C174 C173 1.287 . S
C174 C175 1.524 1_556 S
C174 H193 0.913 . S
C175 H151 0.950 . S
C175 C174 1.524 1_554 S
C175 C176 1.415 . S
C176 H152 0.950 . S
C176 C171 1.363 . S
C176 C175 1.415 . S
C177 H153 0.951 . S
C177 C178 1.366 . S
C177 C179 1.388 . S
C178 C177 1.366 . S
C178 C182 1.385 . S
C179 H154 0.951 . S
C179 C177 1.388 . S
C179 C180 1.366 . S
C180 C179 1.366 . S
C180 C181 1.414 . S
C180 C183 1.499 . S
C181 H155 0.950 . S
C181 C180 1.414 . S
C181 C182 1.374 . S
C182 H156 0.950 . S
C182 C178 1.385 . S
C182 C181 1.374 . S
C183 C180 1.499 . S
C183 C184 1.373 . S
C183 C185 1.389 . S
C184 H157 0.950 . S
C184 C170 1.377 . S
C184 C183 1.373 . S
C185 C169 1.377 . S
C185 C183 1.389 . S
C185 C186 1.524 . S
C186 C185 1.524 . S
C186 C187 1.397 . S
C186 C191 1.363 . S
C187 H158 0.950 . S
C187 C186 1.397 . S
C187 C188 1.334 . S
C188 H159 0.950 . S
C188 C187 1.334 . S
C188 C189 1.287 . S
C189 C188 1.287 . S
C189 C190 1.524 . S
C189 H192 0.999 . S
C190 H160 0.950 . S
C190 C189 1.524 . S
C190 C191 1.415 . S
C191 H161 0.950 . S
C191 C186 1.363 . S
C191 C190 1.415 . S
H192 C189 0.999 . S
H193 C174 0.913 . S
H194 C212 0.951 . S
H195 C214 0.951 . S
H196 C216 0.950 . S
H197 C217 0.950 . S
H198 C219 0.950 . S
H199 C222 0.950 . S
H200 C223 0.950 . S
H201 C225 0.950 . S
H202 C226 0.950 . S
H203 C227 0.951 . S
H204 C229 0.951 . S
H205 C231 0.950 . S
H206 C232 0.950 . S
H207 C234 0.950 . S
H208 C237 0.950 . S
H209 C238 0.950 . S
H210 C240 0.950 . S
H211 C241 0.950 . S
C212 H194 0.951 . S
C212 C213 1.366 . S
C212 C214 1.388 . S
C213 C212 1.366 . S
C213 C217 1.385 . S
C214 H195 0.951 . S
C214 C212 1.388 . S
C214 C215 1.366 . S
C215 C214 1.366 . S
C215 C216 1.414 . S
C215 C218 1.499 . S
C216 H196 0.950 . S
C216 C215 1.414 . S
C216 C217 1.374 . S
C217 H197 0.950 . S
C217 C213 1.385 . S
C217 C216 1.374 . S
C218 C215 1.499 . S
C218 C219 1.373 . S
C218 C220 1.389 . S
C219 H198 0.950 . S
C219 C218 1.373 . S
C219 C235 1.377 . S
C220 C218 1.389 . S
C220 C221 1.524 . S
C220 C234 1.377 . S
C221 C220 1.524 . S
C221 C222 1.397 . S
C221 C226 1.363 . S
C222 H199 0.950 . S
C222 C221 1.397 . S
C222 C223 1.334 . S
C223 H200 0.950 . S
C223 C222 1.334 . S
C223 C224 1.287 . S
C224 C223 1.287 . S
C224 C225 1.524 . S
C224 H243 0.913 . S
C225 H201 0.950 . S
C225 C224 1.524 . S
C225 C226 1.415 . S
C226 H202 0.950 . S
C226 C221 1.363 . S
C226 C225 1.415 . S
C227 H203 0.951 . S
C227 C228 1.366 . S
C227 C229 1.388 . S
C228 C227 1.366 . S
C228 C232 1.385 . S
C229 H204 0.951 . S
C229 C227 1.388 . S
C229 C230 1.366 . S
C230 C229 1.366 . S
C230 C231 1.414 . S
C230 C233 1.499 . S
C231 H205 0.950 . S
C231 C230 1.414 . S
C231 C232 1.374 . S
C232 H206 0.950 . S
C232 C228 1.385 . S
C232 C231 1.374 . S
C233 C230 1.499 . S
C233 C234 1.373 . S
C233 C235 1.389 . S
C234 H207 0.950 . S
C234 C220 1.377 . S
C234 C233 1.373 . S
C235 C219 1.377 . S
C235 C233 1.389 . S
C235 C236 1.524 . S
C236 C235 1.524 . S
C236 C237 1.397 . S
C236 C241 1.363 . S
C237 H208 0.950 . S
C237 C236 1.397 . S
C237 C238 1.334 . S
C238 H209 0.950 . S
C238 C237 1.334 . S
C238 C239 1.287 . S
C239 C238 1.287 . S
C239 C240 1.524 . S
C239 H242 0.999 . S
C240 H210 0.950 . S
C240 C239 1.524 . S
C240 C241 1.415 . S
C241 H211 0.950 . S
C241 C236 1.363 . S
C241 C240 1.415 . S
H242 C239 0.999 . S
H243 C224 0.913 . S
H244 C262 0.951 . S
H245 C264 0.951 . S
H246 C266 0.950 . S
H247 C267 0.950 . S
H248 C269 0.950 . S
H249 C272 0.950 . S
H250 C273 0.950 . S
H251 C275 0.950 . S
H252 C276 0.950 . S
H253 C277 0.951 . S
H254 C279 0.951 . S
H255 C281 0.950 . S
H256 C282 0.950 . S
H257 C284 0.950 . S
H258 C287 0.950 . S
H259 C288 0.950 . S
H260 C290 0.950 . S
H261 C291 0.950 . S
C262 H244 0.951 . S
C262 C263 1.375 . S
C262 C264 1.388 . S
C263 C262 1.375 . S
C263 C267 1.377 1_554 S
C264 H245 0.951 . S
C264 C262 1.388 . S
C264 C265 1.366 . S
C265 C264 1.366 . S
C265 C266 1.414 1_554 S
C265 C268 1.499 . S
C266 H246 0.950 . S
C266 C265 1.414 1_556 S
C266 C267 1.374 . S
C267 H247 0.950 . S
C267 C263 1.377 1_556 S
C267 C266 1.374 . S
C268 C265 1.499 . S
C268 C269 1.373 1_554 S
C268 C270 1.389 . S
C269 H248 0.950 . S
C269 C268 1.373 1_556 S
C269 C285 1.377 . S
C270 C268 1.389 . S
C270 C271 1.524 . S
C270 C284 1.377 . S
C271 C270 1.524 . S
C271 C272 1.397 . S
C271 C276 1.363 . S
C272 H249 0.950 . S
C272 C271 1.397 . S
C272 C273 1.334 . S
C273 H250 0.950 . S
C273 C272 1.334 . S
C273 C274 1.287 . S
C274 C273 1.287 . S
C274 C275 1.524 . S
C274 H293 0.913 . S
C275 H251 0.950 . S
C275 C274 1.524 . S
C275 C276 1.415 . S
C276 H252 0.950 . S
C276 C271 1.363 . S
C276 C275 1.415 . S
C277 H253 0.951 . S
C277 C278 1.366 1_556 S
C277 C279 1.388 . S
C278 C277 1.366 1_554 S
C278 C282 1.385 . S
C279 H254 0.951 . S
C279 C277 1.388 . S
C279 C280 1.366 1_556 S
C280 C279 1.366 1_554 S
C280 C281 1.414 . S
C280 C283 1.499 . S
C281 H255 0.950 . S
C281 C280 1.414 . S
C281 C282 1.374 . S
C282 H256 0.950 . S
C282 C278 1.385 . S
C282 C281 1.374 . S
C283 C280 1.499 . S
C283 C284 1.373 . S
C283 C285 1.389 1_554 S
C284 H257 0.950 . S
C284 C270 1.377 . S
C284 C283 1.373 . S
C285 C269 1.377 . S
C285 C283 1.389 1_556 S
C285 C286 1.524 . S
C286 C285 1.524 . S
C286 C287 1.397 . S
C286 C291 1.363 . S
C287 H258 0.950 . S
C287 C286 1.397 . S
C287 C288 1.334 . S
C288 H259 0.950 . S
C288 C287 1.334 . S
C288 C289 1.287 . S
C289 C288 1.287 . S
C289 C290 1.524 . S
C289 H292 0.999 . S
C290 H260 0.950 . S
C290 C289 1.524 . S
C290 C291 1.415 . S
C291 H261 0.950 . S
C291 C286 1.363 . S
C291 C290 1.415 . S
H292 C289 0.999 . S
H293 C274 0.913 . S
H294 C312 0.951 . S
H295 C314 0.951 . S
H296 C316 0.950 . S
H297 C317 0.950 . S
H298 C319 0.950 . S
H299 C322 0.950 . S
H300 C323 0.950 . S
H301 C325 0.950 . S
H302 C326 0.950 . S
H303 C327 0.951 . S
H304 C329 0.951 . S
H305 C331 0.950 . S
H306 C332 0.950 . S
H307 C334 0.950 . S
H308 C337 0.950 . S
H309 C338 0.950 . S
H310 C340 0.950 . S
H311 C341 0.950 . S
C312 H294 0.951 . S
C312 C313 1.366 . S
C312 C314 1.388 . S
C313 C312 1.366 . S
C313 C317 1.385 . S
C314 H295 0.951 . S
C314 C312 1.388 . S
C314 C315 1.366 . S
C315 C314 1.366 . S
C315 C316 1.414 . S
C315 C318 1.499 . S
C316 H296 0.950 . S
C316 C315 1.414 . S
C316 C317 1.374 . S
C317 H297 0.950 . S
C317 C313 1.385 . S
C317 C316 1.374 . S
C318 C315 1.499 . S
C318 C319 1.373 . S
C318 C320 1.389 . S
C319 H298 0.950 . S
C319 C318 1.373 . S
C319 C335 1.377 . S
C320 C318 1.389 . S
C320 C321 1.524 . S
C320 C334 1.377 . S
C321 C320 1.524 . S
C321 C322 1.397 . S
C321 C326 1.363 . S
C322 H299 0.950 . S
C322 C321 1.397 . S
C322 C323 1.334 . S
C323 H300 0.950 . S
C323 C322 1.334 . S
C323 C324 1.287 . S
C324 C323 1.287 . S
C324 C325 1.524 . S
C324 H343 0.913 . S
C325 H301 0.950 . S
C325 C324 1.524 . S
C325 C326 1.415 . S
C326 H302 0.950 . S
C326 C321 1.363 . S
C326 C325 1.415 . S
C327 H303 0.951 . S
C327 C328 1.366 . S
C327 C329 1.388 . S
C328 C327 1.366 . S
C328 C332 1.385 . S
C329 H304 0.951 . S
C329 C327 1.388 . S
C329 C330 1.366 . S
C330 C329 1.366 . S
C330 C331 1.414 . S
C330 C333 1.499 . S
C331 H305 0.950 . S
C331 C330 1.414 . S
C331 C332 1.374 . S
C332 H306 0.950 . S
C332 C328 1.385 . S
C332 C331 1.374 . S
C333 C330 1.499 . S
C333 C334 1.373 . S
C333 C335 1.389 . S
C334 H307 0.950 . S
C334 C320 1.377 . S
C334 C333 1.373 . S
C335 C319 1.377 . S
C335 C333 1.389 . S
C335 C336 1.524 . S
C336 C335 1.524 . S
C336 C337 1.397 . S
C336 C341 1.363 . S
C337 H308 0.950 . S
C337 C336 1.397 . S
C337 C338 1.334 1_565 S
C338 H309 0.950 . S
C338 C337 1.334 1_545 S
C338 C339 1.287 . S
C339 C338 1.287 . S
C339 C340 1.524 . S
C339 H342 0.999 . S
C340 H310 0.950 . S
C340 C339 1.524 . S
C340 C341 1.415 1_545 S
C341 H311 0.950 . S
C341 C336 1.363 . S
C341 C340 1.415 1_565 S
H342 C339 0.999 . S
H343 C324 0.913 . S
H344 C362 0.951 . S
H345 C364 0.951 . S
H346 C366 0.950 . S
H347 C367 0.950 . S
H348 C369 0.950 . S
H349 C372 0.950 . S
H350 C373 0.950 . S
H351 C375 0.950 . S
H352 C376 0.950 . S
H353 C377 0.951 . S
H354 C379 0.951 . S
H355 C381 0.950 . S
H356 C382 0.950 . S
H357 C384 0.950 . S
H358 C387 0.950 . S
H359 C388 0.950 . S
H360 C390 0.950 . S
H361 C391 0.950 . S
C362 H344 0.951 . S
C362 C363 1.366 . S
C362 C364 1.388 . S
C363 C362 1.366 . S
C363 C367 1.385 . S
C364 H345 0.951 . S
C364 C362 1.388 . S
C364 C365 1.366 . S
C365 C364 1.366 . S
C365 C366 1.414 . S
C365 C368 1.499 . S
C366 H346 0.950 . S
C366 C365 1.414 . S
C366 C367 1.374 . S
C367 H347 0.950 . S
C367 C363 1.385 . S
C367 C366 1.374 . S
C368 C365 1.499 . S
C368 C369 1.373 . S
C368 C370 1.389 . S
C369 H348 0.950 . S
C369 C368 1.373 . S
C369 C385 1.377 . S
C370 C368 1.389 . S
C370 C371 1.524 . S
C370 C384 1.377 . S
C371 C370 1.524 . S
C371 C372 1.397 . S
C371 C376 1.363 . S
C372 H349 0.950 . S
C372 C371 1.397 . S
C372 C373 1.334 . S
C373 H350 0.950 . S
C373 C372 1.334 . S
C373 C374 1.287 . S
C374 C373 1.287 . S
C374 C375 1.524 . S
C374 H393 0.913 . S
C375 H351 0.950 . S
C375 C374 1.524 . S
C375 C376 1.415 . S
C376 H352 0.950 . S
C376 C371 1.363 . S
C376 C375 1.415 . S
C377 H353 0.951 . S
C377 C378 1.366 . S
C377 C379 1.388 . S
C378 C377 1.366 . S
C378 C382 1.385 . S
C379 H354 0.951 . S
C379 C377 1.388 . S
C379 C380 1.366 . S
C380 C379 1.366 . S
C380 C381 1.414 . S
C380 C383 1.499 . S
C381 H355 0.950 . S
C381 C380 1.414 . S
C381 C382 1.374 . S
C382 H356 0.950 . S
C382 C378 1.385 . S
C382 C381 1.374 . S
C383 C380 1.499 . S
C383 C384 1.373 . S
C383 C385 1.389 . S
C384 H357 0.950 . S
C384 C370 1.377 . S
C384 C383 1.373 . S
C385 C369 1.377 . S
C385 C383 1.389 . S
C385 C386 1.524 . S
C386 C385 1.524 . S
C386 C387 1.397 . S
C386 C391 1.363 . S
C387 H358 0.950 . S
C387 C386 1.397 . S
C387 C388 1.334 . S
C388 H359 0.950 . S
C388 C387 1.334 . S
C388 C389 1.287 . S
C389 C388 1.287 . S
C389 C390 1.524 . S
C389 H392 0.999 . S
C390 H360 0.950 . S
C390 C389 1.524 . S
C390 C391 1.415 . S
C391 H361 0.950 . S
C391 C386 1.363 . S
C391 C390 1.415 . S
H392 C389 0.999 . S
H393 C374 0.913 . S
H394 C412 0.951 . S
H395 C414 0.951 . S
H396 C416 0.950 . S
H397 C417 0.950 . S
H398 C419 0.950 . S
H399 C422 0.950 . S
H400 C423 0.950 . S
H401 C425 0.950 . S
H402 C426 0.950 . S
H403 C427 0.951 . S
H404 C429 0.951 . S
H405 C431 0.950 . S
H406 C432 0.950 . S
H407 C434 0.950 . S
H408 C437 0.950 . S
H409 C438 0.950 . S
H410 C440 0.950 . S
H411 C441 0.950 . S
C412 H394 0.951 . S
C412 C413 1.366 . S
C412 C414 1.388 . S
C413 C412 1.366 . S
C413 C417 1.385 . S
C414 H395 0.951 . S
C414 C412 1.388 . S
C414 C415 1.366 . S
C415 C414 1.366 . S
C415 C416 1.414 . S
C415 C418 1.499 . S
C416 H396 0.950 . S
C416 C415 1.414 . S
C416 C417 1.374 . S
C417 H397 0.950 . S
C417 C413 1.385 . S
C417 C416 1.374 . S
C418 C415 1.499 . S
C418 C419 1.373 . S
C418 C420 1.389 . S
C419 H398 0.950 . S
C419 C418 1.373 . S
C419 C435 1.377 . S
C420 C418 1.389 . S
C420 C421 1.524 . S
C420 C434 1.377 . S
C421 C420 1.524 . S
C421 C422 1.397 . S
C421 C426 1.363 . S
C422 H399 0.950 . S
C422 C421 1.397 . S
C422 C423 1.334 . S
C423 H400 0.950 . S
C423 C422 1.334 . S
C423 C424 1.287 . S
C424 C423 1.287 . S
C424 C425 1.524 . S
C424 H443 0.913 . S
C425 H401 0.950 . S
C425 C424 1.524 . S
C425 C426 1.415 . S
C426 H402 0.950 . S
C426 C421 1.363 . S
C426 C425 1.415 . S
C427 H403 0.951 . S
C427 C428 1.366 . S
C427 C429 1.388 . S
C428 C427 1.366 . S
C428 C432 1.385 . S
C429 H404 0.951 . S
C429 C427 1.388 . S
C429 C430 1.366 . S
C430 C429 1.366 . S
C430 C431 1.414 . S
C430 C433 1.499 . S
C431 H405 0.950 . S
C431 C430 1.414 . S
C431 C432 1.374 . S
C432 H406 0.950 . S
C432 C428 1.385 . S
C432 C431 1.374 . S
C433 C430 1.499 . S
C433 C434 1.373 . S
C433 C435 1.389 . S
C434 H407 0.950 . S
C434 C420 1.377 . S
C434 C433 1.373 . S
C435 C419 1.377 . S
C435 C433 1.389 . S
C435 C436 1.524 . S
C436 C435 1.524 . S
C436 C437 1.397 . S
C436 C441 1.363 . S
C437 H408 0.950 . S
C437 C436 1.397 . S
C437 C438 1.334 1_655 S
C438 H409 0.950 . S
C438 C437 1.334 1_455 S
C438 C439 1.287 . S
C439 C438 1.287 . S
C439 C440 1.524 1_455 S
C439 H442 0.999 . S
C440 H410 0.950 . S
C440 C439 1.524 1_655 S
C440 C441 1.415 . S
C441 H411 0.950 . S
C441 C436 1.363 . S
C441 C440 1.415 . S
H442 C439 0.999 . S
H443 C424 0.913 . S
H444 C462 0.951 . S
H445 C464 0.951 . S
H446 C466 0.950 . S
H447 C467 0.950 . S
H448 C469 0.950 . S
H449 C472 0.950 . S
H450 C473 0.950 . S
H451 C475 0.950 . S
H452 C476 0.950 . S
H453 C477 0.951 . S
H454 C479 0.951 . S
H455 C481 0.950 . S
H456 C482 0.950 . S
H457 C484 0.950 . S
H458 C487 0.950 . S
H459 C488 0.950 . S
H460 C490 0.950 . S
H461 C491 0.950 . S
C462 H444 0.951 . S
C462 C463 1.366 . S
C462 C464 1.388 . S
C463 C462 1.366 . S
C463 C467 1.385 . S
C464 H445 0.951 . S
C464 C462 1.388 . S
C464 C465 1.366 . S
C465 C464 1.366 . S
C465 C466 1.414 . S
C465 C468 1.499 . S
C466 H446 0.950 . S
C466 C465 1.414 . S
C466 C467 1.374 . S
C467 H447 0.950 . S
C467 C463 1.385 . S
C467 C466 1.374 . S
C468 C465 1.499 . S
C468 C469 1.373 . S
C468 C470 1.389 . S
C469 H448 0.950 . S
C469 C468 1.373 . S
C469 C485 1.377 . S
C470 C468 1.389 . S
C470 C471 1.524 . S
C470 C484 1.377 . S
C471 C470 1.524 . S
C471 C472 1.397 . S
C471 C476 1.363 . S
C472 H449 0.950 . S
C472 C471 1.397 . S
C472 C473 1.334 . S
C473 H450 0.950 . S
C473 C472 1.334 . S
C473 C474 1.287 . S
C474 C473 1.287 . S
C474 C475 1.524 . S
C474 H493 0.913 . S
C475 H451 0.950 . S
C475 C474 1.524 . S
C475 C476 1.415 . S
C476 H452 0.950 . S
C476 C471 1.363 . S
C476 C475 1.415 . S
C477 H453 0.951 . S
C477 C478 1.366 . S
C477 C479 1.388 . S
C478 C477 1.366 . S
C478 C482 1.385 . S
C479 H454 0.951 . S
C479 C477 1.388 . S
C479 C480 1.366 . S
C480 C479 1.366 . S
C480 C481 1.414 . S
C480 C483 1.499 . S
C481 H455 0.950 . S
C481 C480 1.414 . S
C481 C482 1.374 . S
C482 H456 0.950 . S
C482 C478 1.385 . S
C482 C481 1.374 . S
C483 C480 1.499 . S
C483 C484 1.373 . S
C483 C485 1.389 . S
C484 H457 0.950 . S
C484 C470 1.377 . S
C484 C483 1.373 . S
C485 C469 1.377 . S
C485 C483 1.389 . S
C485 C486 1.524 . S
C486 C485 1.524 . S
C486 C487 1.397 . S
C486 C491 1.363 . S
C487 H458 0.950 . S
C487 C486 1.397 . S
C487 C488 1.334 . S
C488 H459 0.950 . S
C488 C487 1.334 . S
C488 C489 1.287 . S
C489 C488 1.287 . S
C489 C490 1.524 . S
C489 H492 0.999 . S
C490 H460 0.950 . S
C490 C489 1.524 . S
C490 C491 1.415 . S
C491 H461 0.950 . S
C491 C486 1.363 . S
C491 C490 1.415 . S
H492 C489 0.999 . S
H493 C474 0.913 . S
H494 C512 0.951 . S
H495 C514 0.951 . S
H496 C516 0.950 . S
H497 C517 0.950 . S
H498 C519 0.950 . S
H499 C522 0.950 . S
H500 C523 0.950 . S
H501 C525 0.950 . S
H502 C526 0.950 . S
H503 C527 0.951 . S
H504 C529 0.951 . S
H505 C531 0.950 . S
H506 C532 0.950 . S
H507 C534 0.950 . S
H508 C537 0.950 . S
H509 C538 0.950 . S
H510 C540 0.950 . S
H511 C541 0.950 . S
C512 H494 0.951 . S
C512 C513 1.366 . S
C512 C514 1.388 . S
C513 C512 1.366 . S
C513 C517 1.385 . S
C514 H495 0.951 . S
C514 C512 1.388 . S
C514 C515 1.366 . S
C515 C514 1.366 . S
C515 C516 1.414 . S
C515 C518 1.499 . S
C516 H496 0.950 . S
C516 C515 1.414 . S
C516 C517 1.374 . S
C517 H497 0.950 . S
C517 C513 1.385 . S
C517 C516 1.374 . S
C518 C515 1.499 . S
C518 C519 1.373 . S
C518 C520 1.389 . S
C519 H498 0.950 . S
C519 C518 1.373 . S
C519 C535 1.377 . S
C520 C518 1.389 . S
C520 C521 1.524 . S
C520 C534 1.377 . S
C521 C520 1.524 . S
C521 C522 1.397 . S
C521 C526 1.363 . S
C522 H499 0.950 . S
C522 C521 1.397 . S
C522 C523 1.334 . S
C523 H500 0.950 . S
C523 C522 1.334 . S
C523 C524 1.287 . S
C524 C523 1.287 . S
C524 C525 1.524 . S
C524 H543 0.913 . S
C525 H501 0.950 . S
C525 C524 1.524 . S
C525 C526 1.415 . S
C526 H502 0.950 . S
C526 C521 1.363 . S
C526 C525 1.415 . S
C527 H503 0.951 . S
C527 C528 1.366 . S
C527 C529 1.388 . S
C528 C527 1.366 . S
C528 C532 1.385 . S
C529 H504 0.951 . S
C529 C527 1.388 . S
C529 C530 1.366 . S
C530 C529 1.366 . S
C530 C531 1.414 . S
C530 C533 1.499 . S
C531 H505 0.950 . S
C531 C530 1.414 . S
C531 C532 1.374 . S
C532 H506 0.950 . S
C532 C528 1.385 . S
C532 C531 1.374 . S
C533 C530 1.499 . S
C533 C534 1.373 . S
C533 C535 1.389 . S
C534 H507 0.950 . S
C534 C520 1.377 . S
C534 C533 1.373 . S
C535 C519 1.377 . S
C535 C533 1.389 . S
C535 C536 1.524 . S
C536 C535 1.524 . S
C536 C537 1.397 . S
C536 C541 1.363 . S
C537 H508 0.950 . S
C537 C536 1.397 . S
C537 C538 1.334 . S
C538 H509 0.950 . S
C538 C537 1.334 . S
C538 C539 1.287 . S
C539 C538 1.287 . S
C539 C540 1.524 . S
C539 H542 0.999 . S
C540 H510 0.950 . S
C540 C539 1.524 . S
C540 C541 1.415 . S
C541 H511 0.950 . S
C541 C536 1.363 . S
C541 C540 1.415 . S
H542 C539 0.999 . S
H543 C524 0.913 . S
H544 C562 0.951 . S
H545 C564 0.951 . S
H546 C566 0.950 . S
H547 C567 0.950 . S
H548 C569 0.950 . S
H549 C572 0.950 . S
H550 C573 0.950 1_554 S
H551 C575 0.950 . S
H552 C576 0.950 . S
H553 C577 0.951 . S
H554 C579 0.951 . S
H555 C581 0.950 . S
H556 C582 0.950 . S
H557 C584 0.950 . S
H558 C587 0.950 . S
H559 C588 0.950 . S
H560 C590 0.950 . S
H561 C591 0.950 . S
C562 H544 0.951 . S
C562 C563 1.366 . S
C562 C564 1.388 . S
C563 C562 1.366 . S
C563 C567 1.385 . S
C564 H545 0.951 . S
C564 C562 1.388 . S
C564 C565 1.366 . S
C565 C564 1.366 . S
C565 C566 1.414 . S
C565 C568 1.499 . S
C566 H546 0.950 . S
C566 C565 1.414 . S
C566 C567 1.374 . S
C567 H547 0.950 . S
C567 C563 1.385 . S
C567 C566 1.374 . S
C568 C565 1.499 . S
C568 C569 1.373 . S
C568 C570 1.389 . S
C569 H548 0.950 . S
C569 C568 1.373 . S
C569 C585 1.377 . S
C570 C568 1.389 . S
C570 C571 1.524 . S
C570 C584 1.377 . S
C571 C570 1.524 . S
C571 C572 1.397 . S
C571 C576 1.363 . S
C572 H549 0.950 . S
C572 C571 1.397 . S
C572 C573 1.334 . S
C573 H550 0.950 1_556 S
C573 C572 1.334 . S
C573 C574 1.287 . S
C574 C573 1.287 . S
C574 C575 1.524 . S
C574 H593 0.913 . S
C575 H551 0.950 . S
C575 C574 1.524 . S
C575 C576 1.415 . S
C576 H552 0.950 . S
C576 C571 1.363 . S
C576 C575 1.415 . S
C577 H553 0.951 . S
C577 C578 1.366 . S
C577 C579 1.388 . S
C578 C577 1.366 . S
C578 C582 1.385 . S
C579 H554 0.951 . S
C579 C577 1.388 . S
C579 C580 1.366 . S
C580 C579 1.366 . S
C580 C581 1.414 . S
C580 C583 1.499 . S
C581 H555 0.950 . S
C581 C580 1.414 . S
C581 C582 1.374 . S
C582 H556 0.950 . S
C582 C578 1.385 . S
C582 C581 1.374 . S
C583 C580 1.499 . S
C583 C584 1.373 . S
C583 C585 1.389 . S
C584 H557 0.950 . S
C584 C570 1.377 . S
C584 C583 1.373 . S
C585 C569 1.377 . S
C585 C583 1.389 . S
C585 C586 1.524 . S
C586 C585 1.524 . S
C586 C587 1.397 . S
C586 C591 1.363 . S
C587 H558 0.950 . S
C587 C586 1.397 . S
C587 C588 1.334 . S
C588 H559 0.950 . S
C588 C587 1.334 . S
C588 C589 1.287 . S
C589 C588 1.287 . S
C589 C590 1.524 . S
C589 H592 0.999 . S
C590 H560 0.950 . S
C590 C589 1.524 . S
C590 C591 1.415 . S
C591 H561 0.950 . S
C591 C586 1.363 . S
C591 C590 1.415 . S
H592 C589 0.999 . S
H593 C574 0.913 . S
H594 C612 0.951 . S
H595 C614 0.951 . S
H596 C616 0.950 . S
H597 C617 0.950 . S
H598 C619 0.950 . S
H599 C622 0.950 . S
H600 C623 0.950 . S
H601 C625 0.950 . S
H602 C626 0.950 . S
H603 C627 0.951 . S
H604 C629 0.951 . S
H605 C631 0.950 . S
H606 C632 0.950 . S
H607 C634 0.950 . S
H608 C637 0.950 . S
H609 C638 0.950 . S
H610 C640 0.950 . S
H611 C641 0.950 . S
C612 H594 0.951 . S
C612 C613 1.366 . S
C612 C614 1.388 . S
C613 C612 1.366 . S
C613 C617 1.385 . S
C614 H595 0.951 . S
C614 C612 1.388 . S
C614 C615 1.366 . S
C615 C614 1.366 . S
C615 C616 1.414 . S
C615 C618 1.499 . S
C616 H596 0.950 . S
C616 C615 1.414 . S
C616 C617 1.374 . S
C617 H597 0.950 . S
C617 C613 1.385 . S
C617 C616 1.374 . S
C618 C615 1.499 . S
C618 C619 1.373 . S
C618 C620 1.389 . S
C619 H598 0.950 . S
C619 C618 1.373 . S
C619 C635 1.377 . S
C620 C618 1.389 . S
C620 C621 1.524 . S
C620 C634 1.377 . S
C621 C620 1.524 . S
C621 C622 1.397 . S
C621 C626 1.363 . S
C622 H599 0.950 . S
C622 C621 1.397 . S
C622 C623 1.334 . S
C623 H600 0.950 . S
C623 C622 1.334 . S
C623 C624 1.287 . S
C624 C623 1.287 . S
C624 C625 1.524 . S
C624 H643 0.913 . S
C625 H601 0.950 . S
C625 C624 1.524 . S
C625 C626 1.415 . S
C626 H602 0.950 . S
C626 C621 1.363 . S
C626 C625 1.415 . S
C627 H603 0.951 . S
C627 C628 1.366 . S
C627 C629 1.388 . S
C628 C627 1.366 . S
C628 C632 1.385 . S
C629 H604 0.951 . S
C629 C627 1.388 . S
C629 C630 1.366 . S
C630 C629 1.366 . S
C630 C631 1.414 . S
C630 C633 1.499 . S
C631 H605 0.950 . S
C631 C630 1.414 . S
C631 C632 1.374 . S
C632 H606 0.950 . S
C632 C628 1.385 . S
C632 C631 1.374 . S
C633 C630 1.499 . S
C633 C634 1.373 . S
C633 C635 1.389 . S
C634 H607 0.950 . S
C634 C620 1.377 . S
C634 C633 1.373 . S
C635 C619 1.377 . S
C635 C633 1.389 . S
C635 C636 1.524 . S
C636 C635 1.524 . S
C636 C637 1.397 . S
C636 C641 1.363 . S
C637 H608 0.950 . S
C637 C636 1.397 . S
C637 C638 1.334 . S
C638 H609 0.950 . S
C638 C637 1.334 . S
C638 C639 1.287 . S
C639 C638 1.287 . S
C639 C640 1.524 . S
C639 H642 0.999 . S
C640 H610 0.950 . S
C640 C639 1.524 . S
C640 C641 1.415 . S
C641 H611 0.950 . S
C641 C636 1.363 . S
C641 C640 1.415 . S
H642 C639 0.999 . S
H643 C624 0.913 . S
H644 C662 0.952 . S
H645 C664 0.951 . S
H646 C666 0.950 . S
H647 C667 0.950 . S
H648 C669 0.950 . S
H649 C672 0.950 . S
H650 C673 0.950 . S
H651 C675 0.950 1_545 S
H652 C676 0.950 . S
H653 C677 0.951 . S
H654 C679 0.951 . S
H655 C681 0.950 . S
H656 C682 0.950 . S
H657 C684 0.950 . S
H658 C687 0.950 . S
H659 C688 0.950 . S
H660 C690 0.950 . S
H661 C691 0.950 . S
C662 H644 0.952 . S
C662 C663 1.366 . S
C662 C664 1.386 1_554 S
C663 C662 1.366 . S
C663 C667 1.385 1_554 S
C664 H645 0.951 . S
C664 C662 1.386 1_556 S
C664 C665 1.366 . S
C665 C664 1.366 . S
C665 C666 1.414 . S
C665 C668 1.499 . S
C666 H646 0.950 . S
C666 C665 1.414 . S
C666 C667 1.374 . S
C667 H647 0.950 . S
C667 C663 1.385 1_556 S
C667 C666 1.374 . S
C668 C665 1.499 . S
C668 C669 1.373 . S
C668 C670 1.389 . S
C669 H648 0.950 . S
C669 C668 1.373 . S
C669 C685 1.377 . S
C670 C668 1.389 . S
C670 C671 1.524 . S
C670 C684 1.377 . S
C671 C670 1.524 . S
C671 C672 1.397 . S
C671 C676 1.363 . S
C672 H649 0.950 . S
C672 C671 1.397 . S
C672 C673 1.334 1_556 S
C673 H650 0.950 . S
C673 C672 1.334 1_554 S
C673 C674 1.287 . S
C674 C673 1.287 . S
C674 C675 1.524 1_554 S
C674 H693 0.913 . S
C675 H651 0.950 1_565 S
C675 C674 1.524 1_556 S
C675 C676 1.415 . S
C676 H652 0.950 . S
C676 C671 1.363 . S
C676 C675 1.415 . S
C677 H653 0.951 . S
C677 C678 1.366 . S
C677 C679 1.388 . S
C678 C677 1.366 . S
C678 C682 1.385 . S
C679 H654 0.951 . S
C679 C677 1.388 . S
C679 C680 1.366 . S
C680 C679 1.366 . S
C680 C681 1.414 . S
C680 C683 1.499 . S
C681 H655 0.950 . S
C681 C680 1.414 . S
C681 C682 1.374 . S
C682 H656 0.950 . S
C682 C678 1.385 . S
C682 C681 1.374 . S
C683 C680 1.499 . S
C683 C684 1.373 . S
C683 C685 1.389 . S
C684 H657 0.950 . S
C684 C670 1.377 . S
C684 C683 1.373 . S
C685 C669 1.377 . S
C685 C683 1.389 . S
C685 C686 1.524 . S
C686 C685 1.524 . S
C686 C687 1.397 . S
C686 C691 1.363 . S
C687 H658 0.950 . S
C687 C686 1.397 . S
C687 C688 1.334 . S
C688 H659 0.950 . S
C688 C687 1.334 . S
C688 C689 1.287 . S
C689 C688 1.287 . S
C689 C690 1.524 . S
C689 H692 0.999 . S
C690 H660 0.950 . S
C690 C689 1.524 . S
C690 C691 1.415 . S
C691 H661 0.950 . S
C691 C686 1.363 . S
C691 C690 1.415 . S
H692 C689 0.999 . S
H693 C674 0.913 . S
C128 C67 1.271 . S
C113 N41 1.470 . S
C163 N2 1.469 . S
C178 C91 1.271 . S
C213 N15 1.639 . S
C228 C70 1.414 . S
C263 N28 1.638 . S
C278 C88 1.413 . S
C328 C68 1.460 . S
C313 N5 1.498 . S
C378 C90 1.532 . S
C363 N14 1.594 . S
C413 N27 1.558 . S
C428 C69 1.516 . S
C463 N44 1.490 . S
C478 C89 1.449 . S
C528 C87 1.517 . S
C513 N18 1.559 . S
C578 C66 1.532 . S
C563 N31 1.596 . S
C628 C86 1.461 . S
C613 N40 1.495 . S
C663 N1 1.491 . S
C678 C65 1.449 . S
