# Generated by pormake.
# Topology wbl, (4,4)-cn, num edge types: 1
# Building blocks:
#     Node 0, Type 0, BuildingBlock: NAWXER_clean_linker_0, # of connection points: 4
#     Node 1, Type 0, BuildingBlock: NAWXER_clean_linker_0, # of connection points: 4
#     Node 2, Type 0, BuildingBlock: NAWXER_clean_linker_0, # of connection points: 4
#     Node 3, Type 0, BuildingBlock: NAWXER_clean_linker_0, # of connection points: 4
#     Node 4, Type 0, BuildingBlock: NAWXER_clean_linker_0, # of connection points: 4
#     Node 5, Type 0, BuildingBlock: NAWXER_clean_linker_0, # of connection points: 4
#     Node 6, Type 0, BuildingBlock: NAWXER_clean_linker_0, # of connection points: 4
#     Node 7, Type 0, BuildingBlock: NAWXER_clean_linker_0, # of connection points: 4
#     Node 8, Type 1, BuildingBlock: GALJAG_clean_sbu_0, # of connection points: 4
#     Node 9, Type 1, BuildingBlock: GALJAG_clean_sbu_0, # of connection points: 4
#     Node 10, Type 1, BuildingBlock: GALJAG_clean_sbu_0, # of connection points: 4
#     Node 11, Type 1, BuildingBlock: GALJAG_clean_sbu_0, # of connection points: 4
#     Node 12, Type 1, BuildingBlock: GALJAG_clean_sbu_0, # of connection points: 4
#     Node 13, Type 1, BuildingBlock: GALJAG_clean_sbu_0, # of connection points: 4
#     Node 14, Type 1, BuildingBlock: GALJAG_clean_sbu_0, # of connection points: 4
#     Node 15, Type 1, BuildingBlock: GALJAG_clean_sbu_0, # of connection points: 4
#     Edge 16, Type (0, 1), BuildingBlock: OJICUG_clean_linker_0, # of connection points: 2
#     Edge 17, Type (0, 1), BuildingBlock: OJICUG_clean_linker_0, # of connection points: 2
#     Edge 18, Type (0, 1), BuildingBlock: OJICUG_clean_linker_0, # of connection points: 2
#     Edge 19, Type (0, 1), BuildingBlock: OJICUG_clean_linker_0, # of connection points: 2
#     Edge 20, Type (0, 1), BuildingBlock: OJICUG_clean_linker_0, # of connection points: 2
#     Edge 21, Type (0, 1), BuildingBlock: OJICUG_clean_linker_0, # of connection points: 2
#     Edge 22, Type (0, 1), BuildingBlock: OJICUG_clean_linker_0, # of connection points: 2
#     Edge 23, Type (0, 1), BuildingBlock: OJICUG_clean_linker_0, # of connection points: 2
#     Edge 24, Type (0, 1), BuildingBlock: OJICUG_clean_linker_0, # of connection points: 2
#     Edge 25, Type (0, 1), BuildingBlock: OJICUG_clean_linker_0, # of connection points: 2
#     Edge 26, Type (0, 1), BuildingBlock: OJICUG_clean_linker_0, # of connection points: 2
#     Edge 27, Type (0, 1), BuildingBlock: OJICUG_clean_linker_0, # of connection points: 2
#     Edge 28, Type (0, 1), BuildingBlock: OJICUG_clean_linker_0, # of connection points: 2
#     Edge 29, Type (0, 1), BuildingBlock: OJICUG_clean_linker_0, # of connection points: 2
#     Edge 30, Type (0, 1), BuildingBlock: OJICUG_clean_linker_0, # of connection points: 2
#     Edge 31, Type (0, 1), BuildingBlock: OJICUG_clean_linker_0, # of connection points: 2
#     Edge 32, Type (0, 1), BuildingBlock: OJICUG_clean_linker_0, # of connection points: 2
#     Edge 33, Type (0, 1), BuildingBlock: OJICUG_clean_linker_0, # of connection points: 2
#     Edge 34, Type (0, 1), BuildingBlock: OJICUG_clean_linker_0, # of connection points: 2
#     Edge 35, Type (0, 1), BuildingBlock: OJICUG_clean_linker_0, # of connection points: 2
#     Edge 36, Type (0, 1), BuildingBlock: OJICUG_clean_linker_0, # of connection points: 2
#     Edge 37, Type (0, 1), BuildingBlock: OJICUG_clean_linker_0, # of connection points: 2
#     Edge 38, Type (0, 1), BuildingBlock: OJICUG_clean_linker_0, # of connection points: 2
#     Edge 39, Type (0, 1), BuildingBlock: OJICUG_clean_linker_0, # of connection points: 2
#     Edge 40, Type (0, 1), BuildingBlock: OJICUG_clean_linker_0, # of connection points: 2
#     Edge 41, Type (0, 1), BuildingBlock: OJICUG_clean_linker_0, # of connection points: 2
#     Edge 42, Type (0, 1), BuildingBlock: OJICUG_clean_linker_0, # of connection points: 2
#     Edge 43, Type (0, 1), BuildingBlock: OJICUG_clean_linker_0, # of connection points: 2
#     Edge 44, Type (0, 1), BuildingBlock: OJICUG_clean_linker_0, # of connection points: 2
#     Edge 45, Type (0, 1), BuildingBlock: OJICUG_clean_linker_0, # of connection points: 2
#     Edge 46, Type (0, 1), BuildingBlock: OJICUG_clean_linker_0, # of connection points: 2
#     Edge 47, Type (0, 1), BuildingBlock: OJICUG_clean_linker_0, # of connection points: 2
# Relax obj value: 0.140
# Max RMSD: 0.149
# Mean RMSD: 0.132
data_MOF--net-wbl--node1-GALJAG_clean_sbu_0--node2-NAWXER_clean_linker_0--edge1-OJICUG_clean_linker_0
_symmetry_space_group_name_H-M    P1
_symmetry_Int_Tables_number       1
_symmetry_cell_setting            triclinic
loop_
_symmetry_equiv_pos_as_xyz
'x, y, z'
_cell_length_a     33.934101
_cell_length_b     34.002875
_cell_length_c     65.936508
_cell_angle_alpha  90.039941
_cell_angle_beta   90.091872
_cell_angle_gamma 89.992579
loop_
_atom_site_label
_atom_site_type_symbol
_atom_site_fract_x
_atom_site_fract_y
_atom_site_fract_z
_atom_type_partial_charge
C0 C 0.07341 0.90474 0.38819 0.0
C1 C 0.09962 0.92271 0.40193 0.0
C2 C 0.05465 0.92701 0.37317 0.0
C3 C 0.06185 0.96755 0.37165 0.0
C4 C 0.10783 0.96305 0.39975 0.0
C5 C 0.08879 0.98528 0.38493 0.0
C6 C 0.03832 0.99249 0.35791 0.0
C7 C 0.11838 0.9202 0.31981 0.0
C8 C 0.10002 0.89693 0.30497 0.0
C9 C 0.09735 0.94946 0.3299 0.0
C10 C 0.05706 0.95522 0.32589 0.0
C11 C 0.06019 0.90354 0.3003 0.0
C12 C 0.03882 0.93235 0.31077 0.0
C13 C 0.03426 0.98575 0.33691 0.0
C14 C 0.92329 0.12027 0.31285 0.0
C15 C 0.903 0.10008 0.29736 0.0
C16 C 0.95196 0.10114 0.32452 0.0
C17 C 0.95971 0.06085 0.32168 0.0
C18 C 0.9137 0.06081 0.29334 0.0
C19 C 0.94119 0.0414 0.30548 0.0
C20 C 0.9873 0.03838 0.33491 0.0
C21 C 0.9061 0.09243 0.38331 0.0
C22 C 0.92621 0.11489 0.39796 0.0
C23 C 0.92714 0.07129 0.36865 0.0
C24 C 0.96851 0.07301 0.36822 0.0
C25 C 0.9674 0.11792 0.39686 0.0
C26 C 0.98831 0.09714 0.38217 0.0
C27 C 0.99182 0.04498 0.35601 0.0
H28 H 0.06605 0.87388 0.38956 0.0
H29 H 0.03335 0.91291 0.36331 0.0
H30 H 0.12849 0.97769 0.40976 0.0
H31 H 0.09464 0.01656 0.38401 0.0
H32 H 0.14941 0.91644 0.32321 0.0
H33 H 0.11287 0.9679 0.34065 0.0
H34 H 0.04561 0.88626 0.2887 0.0
H35 H 0.00796 0.9366 0.30714 0.0
H36 H 0.9164 0.15054 0.31644 0.0
H37 H 0.96753 0.11797 0.33592 0.0
H38 H 0.9004 0.04455 0.28099 0.0
H39 H 0.9473 0.0107 0.30237 0.0
H40 H 0.87435 0.08934 0.38396 0.0
H41 H 0.91129 0.05208 0.35838 0.0
H42 H 0.98357 0.13532 0.40785 0.0
H43 H 0.02021 0.0986 0.38224 0.0
N44 N 0.01726 0.0219 0.36649 0.0
N45 N 0.00879 0.00886 0.32628 0.0
C46 C 0.90027 0.43232 0.63865 0.0
C47 C 0.91834 0.40898 0.65363 0.0
C48 C 0.92282 0.44947 0.62325 0.0
C49 C 0.96372 0.44323 0.62248 0.0
C50 C 0.95908 0.40188 0.65239 0.0
C51 C 0.98152 0.41904 0.63707 0.0
C52 C 0.98899 0.4652 0.60818 0.0
C53 C 0.91731 0.38324 0.57042 0.0
C54 C 0.89558 0.40007 0.55452 0.0
C55 C 0.94527 0.40537 0.58094 0.0
C56 C 0.95113 0.44531 0.57631 0.0
C57 C 0.90208 0.4396 0.5494 0.0
C58 C 0.92949 0.4621 0.56029 0.0
C59 C 0.98159 0.46876 0.58713 0.0
C60 C 0.12339 0.56289 0.55942 0.0
C61 C 0.10476 0.59163 0.54743 0.0
C62 C 0.10111 0.53687 0.57114 0.0
C63 C 0.05977 0.5392 0.57118 0.0
C64 C 0.06329 0.59285 0.54697 0.0
C65 C 0.04106 0.56673 0.55862 0.0
C66 C 0.03584 0.51342 0.58437 0.0
C67 C 0.0971 0.59175 0.63154 0.0
C68 C 0.12154 0.57069 0.64497 0.0
C69 C 0.07369 0.57182 0.61737 0.0
C70 C 0.07443 0.53058 0.61641 0.0
C71 C 0.1242 0.52961 0.64287 0.0
C72 C 0.10057 0.50976 0.6289 0.0
C73 C 0.04374 0.50873 0.60523 0.0
H74 H 0.86902 0.43862 0.6393 0.0
H75 H 0.90856 0.46877 0.61243 0.0
H76 H 0.97379 0.38345 0.66345 0.0
H77 H 0.01304 0.41393 0.63682 0.0
H78 H 0.91365 0.35247 0.57424 0.0
H79 H 0.96289 0.39079 0.59237 0.0
H80 H 0.88597 0.45301 0.53701 0.0
H81 H 0.9339 0.4926 0.55613 0.0
H82 H 0.15521 0.56061 0.55984 0.0
H83 H 0.11621 0.51507 0.58026 0.0
H84 H 0.04789 0.6149 0.53815 0.0
H85 H 0.00921 0.5689 0.55834 0.0
H86 H 0.09406 0.62335 0.63285 0.0
H87 H 0.05317 0.58841 0.60812 0.0
H88 H 0.14331 0.51257 0.65267 0.0
H89 H 0.10148 0.47792 0.62841 0.0
N90 N 0.01997 0.48496 0.61624 0.0
N91 N 0.00509 0.4932 0.57609 0.0
C92 C 0.57162 0.39916 0.88773 0.0
C93 C 0.59648 0.41764 0.90194 0.0
C94 C 0.55284 0.42126 0.87262 0.0
C95 C 0.55883 0.46207 0.87149 0.0
C96 C 0.60378 0.45817 0.90004 0.0
C97 C 0.58487 0.48016 0.88511 0.0
C98 C 0.53478 0.48702 0.85796 0.0
C99 C 0.61641 0.41908 0.81867 0.0
C100 C 0.59903 0.39703 0.80307 0.0
C101 C 0.59434 0.44658 0.82945 0.0
C102 C 0.55395 0.45157 0.82542 0.0
C103 C 0.55911 0.40288 0.79839 0.0
C104 C 0.53665 0.42982 0.80957 0.0
C105 C 0.53038 0.4809 0.83688 0.0
C106 C 0.43291 0.62243 0.81211 0.0
C107 C 0.40552 0.6041 0.79916 0.0
C108 C 0.45902 0.59992 0.82373 0.0
C109 C 0.45797 0.55864 0.82279 0.0
C110 C 0.40548 0.56278 0.7978 0.0
C111 C 0.43159 0.54035 0.80939 0.0
C112 C 0.48429 0.5342 0.83552 0.0
C113 C 0.40554 0.59348 0.88278 0.0
C114 C 0.42613 0.61292 0.89836 0.0
C115 C 0.42603 0.57166 0.86817 0.0
C116 C 0.4674 0.56968 0.86874 0.0
C117 C 0.46746 0.61246 0.89828 0.0
C118 C 0.48786 0.59109 0.88362 0.0
C119 C 0.4894 0.54051 0.85654 0.0
H120 H 0.56518 0.36805 0.88888 0.0
H121 H 0.53233 0.40683 0.86245 0.0
H122 H 0.62344 0.47315 0.91044 0.0
H123 H 0.58989 0.51162 0.88448 0.0
H124 H 0.64748 0.41584 0.82212 0.0
H125 H 0.60926 0.46442 0.84069 0.0
H126 H 0.54536 0.38653 0.78617 0.0
H127 H 0.50578 0.43363 0.80587 0.0
H128 H 0.43417 0.65418 0.81326 0.0
H129 H 0.47995 0.61479 0.8335 0.0
H130 H 0.38445 0.5476 0.78822 0.0
H131 H 0.4304 0.50857 0.80831 0.0
H132 H 0.37363 0.59314 0.88265 0.0
H133 H 0.40943 0.55455 0.85725 0.0
H134 H 0.484 0.6275 0.91002 0.0
H135 H 0.51973 0.58983 0.88445 0.0
N136 N 0.51441 0.51665 0.8668 0.0
N137 N 0.50495 0.50456 0.82651 0.0
C138 C 0.40562 0.88566 0.06959 0.0
C139 C 0.38262 0.90278 0.05426 0.0
C140 C 0.43351 0.90791 0.08004 0.0
C141 C 0.43806 0.94823 0.07594 0.0
C142 C 0.38784 0.94272 0.04962 0.0
C143 C 0.41522 0.96534 0.06047 0.0
C144 C 0.4682 0.97184 0.08685 0.0
C145 C 0.38955 0.93182 0.13901 0.0
C146 C 0.40853 0.90639 0.15276 0.0
C147 C 0.41097 0.95042 0.12364 0.0
C148 C 0.45164 0.94384 0.12178 0.0
C149 C 0.44895 0.89871 0.15022 0.0
C150 C 0.47031 0.91756 0.13504 0.0
C151 C 0.4759 0.96746 0.1078 0.0
C152 C 0.58277 0.09688 0.13092 0.0
C153 C 0.60287 0.07657 0.14634 0.0
C154 C 0.56083 0.07614 0.11643 0.0
C155 C 0.5594 0.03481 0.11698 0.0
C156 C 0.60331 0.03532 0.1461 0.0
C157 C 0.58183 0.01467 0.13155 0.0
C158 C 0.52939 0.01261 0.10538 0.0
C159 C 0.60863 0.06712 0.05938 0.0
C160 C 0.59009 0.09738 0.04836 0.0
C161 C 0.58638 0.04073 0.07089 0.0
C162 C 0.54516 0.04395 0.07152 0.0
C163 C 0.54863 0.0996 0.04858 0.0
C164 C 0.52642 0.07291 0.05989 0.0
C165 C 0.52145 0.01774 0.08453 0.0
H166 H 0.40302 0.85459 0.07298 0.0
H167 H 0.45212 0.89316 0.09099 0.0
H168 H 0.37079 0.95635 0.03763 0.0
H169 H 0.41864 0.99617 0.05673 0.0
H170 H 0.35856 0.93867 0.14064 0.0
H171 H 0.39614 0.97118 0.11378 0.0
H172 H 0.46433 0.8786 0.1602 0.0
H173 H 0.5017 0.91214 0.13385 0.0
H174 H 0.58175 0.12872 0.13095 0.0
H175 H 0.54294 0.09249 0.10576 0.0
H176 H 0.61883 0.01905 0.15776 0.0
H177 H 0.58102 0.98285 0.13236 0.0
H178 H 0.64037 0.06393 0.05924 0.0
H179 H 0.60138 0.01798 0.07942 0.0
H180 H 0.53324 0.12278 0.04058 0.0
H181 H 0.49462 0.0758 0.06014 0.0
N182 N 0.49112 0.99719 0.07604 0.0
N183 N 0.50626 0.98772 0.11609 0.0
C184 C 0.07009 0.59961 0.86673 0.0
C185 C 0.09008 0.58086 0.85075 0.0
C186 C 0.05173 0.57732 0.88188 0.0
C187 C 0.0537 0.53602 0.88141 0.0
C188 C 0.09303 0.53966 0.85075 0.0
C189 C 0.07492 0.51752 0.86586 0.0
C190 C 0.03011 0.51145 0.89535 0.0
C191 C 0.11859 0.5741 0.93347 0.0
C192 C 0.1035 0.59602 0.94971 0.0
C193 C 0.09451 0.54789 0.92291 0.0
C194 C 0.05441 0.54418 0.92788 0.0
C195 C 0.06394 0.59129 0.95533 0.0
C196 C 0.0395 0.56569 0.94441 0.0
C197 C 0.02849 0.51652 0.91664 0.0
C198 C 0.92936 0.37725 0.94203 0.0
C199 C 0.90275 0.39537 0.95545 0.0
C200 C 0.95495 0.39991 0.93026 0.0
C201 C 0.95442 0.44112 0.93164 0.0
C202 C 0.90325 0.43665 0.95723 0.0
C203 C 0.92906 0.45924 0.94555 0.0
C204 C 0.98016 0.46546 0.91865 0.0
C205 C 0.89234 0.41719 0.87219 0.0
C206 C 0.90974 0.39218 0.85776 0.0
C207 C 0.91575 0.43743 0.88622 0.0
C208 C 0.95689 0.43319 0.88587 0.0
C209 C 0.95073 0.38646 0.85819 0.0
C210 C 0.97411 0.40711 0.87199 0.0
C211 C 0.98238 0.46022 0.89748 0.0
H212 H 0.06715 0.63132 0.86701 0.0
H213 H 0.03475 0.59225 0.89345 0.0
H214 H 0.10876 0.52445 0.83881 0.0
H215 H 0.07674 0.48573 0.86514 0.0
H216 H 0.14932 0.57664 0.92923 0.0
H217 H 0.10754 0.53022 0.91102 0.0
H218 H 0.05191 0.60768 0.96798 0.0
H219 H 0.00889 0.56284 0.94882 0.0
H220 H 0.93035 0.34555 0.94056 0.0
H221 H 0.9751 0.3852 0.92004 0.0
H222 H 0.88284 0.45172 0.96716 0.0
H223 H 0.92833 0.49099 0.94693 0.0
H224 H 0.86078 0.42201 0.87218 0.0
H225 H 0.90194 0.45799 0.89656 0.0
H226 H 0.96496 0.36773 0.84711 0.0
H227 H 0.00585 0.40385 0.87133 0.0
N228 N 0.00721 0.48334 0.88674 0.0
N229 N 0.00323 0.49348 0.92745 0.0
C230 C 0.39385 0.57686 0.11611 0.0
C231 C 0.41327 0.59844 0.10088 0.0
C232 C 0.41544 0.55658 0.13092 0.0
C233 C 0.45684 0.55794 0.13092 0.0
C234 C 0.45469 0.59986 0.1011 0.0
C235 C 0.47613 0.57987 0.1159 0.0
C236 C 0.48071 0.53351 0.14493 0.0
C237 C 0.41521 0.61833 0.18381 0.0
C238 C 0.39199 0.60197 0.19924 0.0
C239 C 0.44207 0.59513 0.1732 0.0
C240 C 0.44527 0.55467 0.17726 0.0
C241 C 0.39615 0.56195 0.20395 0.0
C242 C 0.42248 0.53842 0.19297 0.0
C243 C 0.47389 0.52985 0.16603 0.0
C244 C 0.61214 0.43025 0.19294 0.0
C245 C 0.59291 0.40077 0.20417 0.0
C246 C 0.59045 0.45732 0.1815 0.0
C247 C 0.54912 0.45548 0.18108 0.0
C248 C 0.5514 0.39989 0.20412 0.0
C249 C 0.52978 0.42719 0.19285 0.0
C250 C 0.52585 0.48237 0.16814 0.0
C251 C 0.58654 0.40237 0.12198 0.0
C252 C 0.60782 0.42262 0.107 0.0
C253 C 0.56396 0.4232 0.13614 0.0
C254 C 0.56299 0.46454 0.13568 0.0
C255 C 0.60857 0.46387 0.10734 0.0
C256 C 0.58634 0.4846 0.12152 0.0
C257 C 0.53324 0.48704 0.14724 0.0
H258 H 0.36199 0.57531 0.11649 0.0
H259 H 0.3998 0.53904 0.142 0.0
H260 H 0.47077 0.61541 0.08942 0.0
H261 H 0.50803 0.58095 0.11539 0.0
H262 H 0.41323 0.6494 0.18029 0.0
H263 H 0.46066 0.6091 0.162 0.0
H264 H 0.37881 0.54887 0.21596 0.0
H265 H 0.42492 0.50749 0.19669 0.0
H266 H 0.64398 0.43238 0.19291 0.0
H267 H 0.60597 0.47952 0.17286 0.0
H268 H 0.53546 0.37732 0.21228 0.0
H269 H 0.4979 0.42532 0.19277 0.0
H270 H 0.58521 0.37054 0.12188 0.0
H271 H 0.54542 0.40697 0.14654 0.0
H272 H 0.625 0.48013 0.09604 0.0
H273 H 0.58593 0.51644 0.12082 0.0
N274 N 0.51032 0.51227 0.13657 0.0
N275 N 0.49645 0.50395 0.17675 0.0
C276 C 0.41997 0.8995 0.36715 0.0
C277 C 0.39926 0.91788 0.35124 0.0
C278 C 0.44033 0.92195 0.38157 0.0
C279 C 0.43969 0.96324 0.38062 0.0
C280 C 0.39889 0.95923 0.35037 0.0
C281 C 0.41878 0.98155 0.36488 0.0
C282 C 0.46379 0.98779 0.39449 0.0
C283 C 0.37802 0.92376 0.43371 0.0
C284 C 0.3943 0.90143 0.44952 0.0
C285 C 0.4013 0.95025 0.4229 0.0
C286 C 0.44175 0.95386 0.42716 0.0
C287 C 0.43427 0.90603 0.45441 0.0
C288 C 0.45787 0.9319 0.44324 0.0
C289 C 0.46684 0.98192 0.41572 0.0
C290 C 0.56829 0.11901 0.44167 0.0
C291 C 0.59787 0.09992 0.45297 0.0
C292 C 0.54109 0.09728 0.43033 0.0
C293 C 0.54269 0.05604 0.43018 0.0
C294 C 0.59869 0.05847 0.45307 0.0
C295 C 0.57112 0.0368 0.44196 0.0
C296 C 0.5153 0.03285 0.4175 0.0
C297 C 0.59992 0.08207 0.37016 0.0
C298 C 0.58201 0.10895 0.35685 0.0
C299 C 0.57723 0.0613 0.38421 0.0
C300 C 0.53627 0.06681 0.38496 0.0
C301 C 0.54139 0.11614 0.35847 0.0
C302 C 0.51862 0.09483 0.37226 0.0
C303 C 0.51131 0.03932 0.39652 0.0
H304 H 0.42075 0.86777 0.3684 0.0
H305 H 0.45723 0.90697 0.39317 0.0
H306 H 0.38416 0.97453 0.33812 0.0
H307 H 0.41836 0.01332 0.36358 0.0
H308 H 0.34698 0.92135 0.43002 0.0
H309 H 0.38744 0.96816 0.41135 0.0
H310 H 0.44726 0.88935 0.46672 0.0
H311 H 0.48879 0.93463 0.44711 0.0
H312 H 0.56612 0.15078 0.44153 0.0
H313 H 0.51883 0.1127 0.42162 0.0
H314 H 0.62135 0.04259 0.46124 0.0
H315 H 0.57283 0.00498 0.44203 0.0
H316 H 0.63119 0.07601 0.36911 0.0
H317 H 0.59132 0.03928 0.39362 0.0
H318 H 0.52689 0.13638 0.3482 0.0
H319 H 0.48698 0.09912 0.37248 0.0
N320 N 0.48587 0.01653 0.38587 0.0
N321 N 0.49293 0.00445 0.42635 0.0
C322 C 0.09784 0.92125 0.61728 0.0
C323 C 0.07872 0.89782 0.60266 0.0
C324 C 0.07598 0.94159 0.6319 0.0
C325 C 0.0347 0.93894 0.63206 0.0
C326 C 0.03754 0.89343 0.60377 0.0
C327 C 0.01576 0.91417 0.61815 0.0
C328 C 0.01084 0.96578 0.64465 0.0
C329 C 0.05463 0.87561 0.68819 0.0
C330 C 0.08396 0.8893 0.70148 0.0
C331 C 0.03303 0.90189 0.67639 0.0
C332 C 0.04017 0.94244 0.67771 0.0
C333 C 0.09152 0.92986 0.70266 0.0
C334 C 0.06933 0.95635 0.69103 0.0
C335 C 0.01573 0.96995 0.66577 0.0
C336 C 0.87887 0.07415 0.68788 0.0
C337 C 0.89704 0.10115 0.70109 0.0
C338 C 0.90153 0.04783 0.67654 0.0
C339 C 0.94281 0.04801 0.67813 0.0
C340 C 0.9384 0.10061 0.70293 0.0
C341 C 0.96099 0.07407 0.69169 0.0
C342 C 0.96705 0.02062 0.666 0.0
C343 C 0.92035 0.10513 0.61804 0.0
C344 C 0.89545 0.08726 0.60366 0.0
C345 C 0.94046 0.08228 0.63234 0.0
C346 C 0.93613 0.04122 0.63238 0.0
C347 C 0.8899 0.04635 0.60435 0.0
C348 C 0.91036 0.02352 0.61845 0.0
C349 C 0.96215 0.01617 0.64485 0.0
H350 H 0.12944 0.92557 0.61679 0.0
H351 H 0.09113 0.96109 0.64231 0.0
H352 H 0.02191 0.87484 0.59312 0.0
H353 H 0.98392 0.9117 0.61806 0.0
H354 H 0.04843 0.84444 0.68691 0.0
H355 H 0.01022 0.89056 0.66647 0.0
H356 H 0.11393 0.94104 0.71286 0.0
H357 H 0.07503 0.9876 0.69234 0.0
H358 H 0.84711 0.0732 0.68636 0.0
H359 H 0.88676 0.02718 0.66659 0.0
H360 H 0.9535 0.12133 0.7127 0.0
H361 H 0.99278 0.07454 0.69323 0.0
H362 H 0.92504 0.13664 0.61786 0.0
H363 H 0.96078 0.09649 0.64269 0.0
H364 H 0.87126 0.03175 0.59331 0.0
H365 H 0.90695 0.99184 0.6181 0.0
N366 N 0.98419 0.98892 0.63504 0.0
N367 N 0.99376 0.99735 0.67571 0.0
In368 In 0.30083 0.70331 0.99941 0.0
O369 O 0.28256 0.75543 0.01928 0.0
O370 O 0.32591 0.76513 0.99669 0.0
C371 C 0.22662 0.68236 0.98897 0.0
C372 C 0.33426 0.67003 0.03232 0.0
C373 C 0.34213 0.67648 0.96704 0.0
O374 O 0.24496 0.70998 0.98045 0.0
O375 O 0.24487 0.6666 0.00351 0.0
O376 O 0.34436 0.66105 0.98435 0.0
O377 O 0.31943 0.70567 0.96602 0.0
C378 C 0.30661 0.77913 0.01132 0.0
O379 O 0.30172 0.65827 0.02518 0.0
O380 O 0.35003 0.69794 0.02265 0.0
In381 In 0.29343 0.79844 0.25223 0.0
O382 O 0.28467 0.74649 0.23087 0.0
O383 O 0.32106 0.73748 0.25658 0.0
C384 C 0.2179 0.80886 0.26377 0.0
C385 C 0.32773 0.83693 0.22108 0.0
C386 C 0.32678 0.8337 0.2846 0.0
O387 O 0.24059 0.78477 0.2725 0.0
O388 O 0.23257 0.8255 0.24846 0.0
O389 O 0.3023 0.8507 0.27314 0.0
O390 O 0.33511 0.79878 0.27958 0.0
C391 C 0.30733 0.72355 0.24031 0.0
O392 O 0.34606 0.82745 0.23698 0.0
O393 O 0.29178 0.82761 0.22096 0.0
In394 In 0.19839 0.80009 0.50166 0.0
O395 O 0.14555 0.82605 0.51768 0.0
O396 O 0.19894 0.82237 0.53453 0.0
C397 C 0.16548 0.83712 0.4698 0.0
C398 C 0.18127 0.72437 0.51041 0.0
C399 C 0.27354 0.81623 0.49097 0.0
O400 O 0.17453 0.85447 0.48608 0.0
O401 O 0.17265 0.80065 0.46958 0.0
O402 O 0.25333 0.78978 0.4825 0.0
O403 O 0.25683 0.8327 0.50578 0.0
C404 C 0.163 0.83215 0.53428 0.0
O405 O 0.20941 0.74254 0.51872 0.0
O406 O 0.16331 0.7437 0.49697 0.0
In407 In 0.19691 0.69185 0.75009 0.0
O408 O 0.15398 0.64926 0.76464 0.0
O409 O 0.18186 0.69073 0.78401 0.0
C410 C 0.18115 0.6519 0.71569 0.0
C411 C 0.27312 0.67832 0.76036 0.0
C412 C 0.16553 0.76298 0.74131 0.0
O413 O 0.17551 0.63794 0.73317 0.0
O414 O 0.19568 0.68613 0.71542 0.0
O415 O 0.2016 0.75558 0.73856 0.0
O416 O 0.14621 0.73518 0.74904 0.0
C417 C 0.15836 0.66211 0.78244 0.0
O418 O 0.25274 0.70478 0.76867 0.0
O419 O 0.25581 0.66041 0.74622 0.0
In420 In 0.80345 0.203 0.50032 0.0
O421 O 0.78905 0.25642 0.52013 0.0
O422 O 0.83161 0.26368 0.49701 0.0
C423 C 0.7305 0.1782 0.4901 0.0
C424 C 0.83149 0.16821 0.53408 0.0
C425 C 0.84326 0.17729 0.46733 0.0
O426 O 0.74287 0.2121 0.48556 0.0
O427 O 0.75432 0.15769 0.50026 0.0
O428 O 0.85018 0.16506 0.48502 0.0
O429 O 0.81646 0.20285 0.46621 0.0
C430 C 0.81399 0.27873 0.5119 0.0
O431 O 0.79526 0.16848 0.52966 0.0
O432 O 0.85354 0.18507 0.52136 0.0
In433 In 0.79868 0.30369 0.75237 0.0
O434 O 0.84898 0.33912 0.73862 0.0
O435 O 0.79963 0.32715 0.71982 0.0
C436 C 0.83006 0.33061 0.78726 0.0
C437 C 0.81804 0.22996 0.7407 0.0
C438 C 0.72235 0.31644 0.76208 0.0
O439 O 0.81499 0.35316 0.77414 0.0
O440 O 0.82953 0.29453 0.7827 0.0
O441 O 0.7423 0.28892 0.76978 0.0
O442 O 0.74023 0.33596 0.74872 0.0
C443 C 0.83327 0.3426 0.72138 0.0
O444 O 0.78885 0.24802 0.73335 0.0
O445 O 0.83597 0.24829 0.7545 0.0
In446 In 0.69579 0.30302 0.00397 0.0
O447 O 0.70329 0.24255 0.01875 0.0
O448 O 0.65149 0.25286 0.00153 0.0
C449 C 0.77155 0.31889 0.99404 0.0
C450 C 0.66948 0.3395 0.03763 0.0
C451 C 0.66184 0.33616 0.97123 0.0
O452 O 0.75221 0.29153 0.98584 0.0
O453 O 0.75347 0.33665 0.00796 0.0
O454 O 0.66614 0.35377 0.98793 0.0
O455 O 0.67442 0.30117 0.97095 0.0
C456 C 0.6706 0.22948 0.01262 0.0
O457 O 0.65395 0.34387 0.0204 0.0
O458 O 0.6986 0.31636 0.03807 0.0
In459 In 0.69142 0.19306 0.25035 0.0
O460 O 0.66226 0.14703 0.27008 0.0
O461 O 0.67038 0.2039 0.28293 0.0
C462 C 0.66318 0.15832 0.21652 0.0
C463 C 0.7656 0.16977 0.25939 0.0
C464 C 0.66941 0.26704 0.24087 0.0
O465 O 0.64675 0.15531 0.23359 0.0
O466 O 0.69393 0.17917 0.21638 0.0
O467 O 0.70202 0.25279 0.23524 0.0
O468 O 0.64898 0.24458 0.25185 0.0
C469 C 0.65823 0.16909 0.28531 0.0
O470 O 0.75406 0.20439 0.26299 0.0
O471 O 0.74074 0.14857 0.25042 0.0
C472 C 0.14669 0.84017 0.30425 0.0
C473 C 0.12366 0.8677 0.29369 0.0
H474 H 0.19396 0.79863 0.30279 0.0
C475 C 0.12732 0.87053 0.27254 0.0
H476 H 0.14415 0.83738 0.32056 0.0
C477 C 0.15612 0.84871 0.26238 0.0
C478 C 0.18122 0.82334 0.27318 0.0
H479 H 0.10993 0.89166 0.2641 0.0
H480 H 0.16032 0.8535 0.24628 0.0
C481 C 0.17498 0.81785 0.29405 0.0
C482 C 0.16153 0.63896 0.5455 0.0
C483 C 0.1282 0.62174 0.53638 0.0
H484 H 0.20489 0.68463 0.54424 0.0
C485 C 0.11578 0.63569 0.51734 0.0
H486 H 0.17175 0.62924 0.56023 0.0
C487 C 0.1346 0.6677 0.50827 0.0
C488 C 0.16643 0.68628 0.51798 0.0
H489 H 0.09076 0.62258 0.50968 0.0
H490 H 0.12323 0.67885 0.49403 0.0
C491 C 0.18052 0.67081 0.53636 0.0
C492 C 0.35625 0.65924 0.79723 0.0
C493 C 0.37567 0.62751 0.78785 0.0
H494 H 0.30876 0.70068 0.79571 0.0
C495 C 0.36413 0.61642 0.76816 0.0
H496 H 0.36417 0.66841 0.81243 0.0
C497 C 0.33222 0.63475 0.75867 0.0
C498 C 0.3113 0.66474 0.76859 0.0
H499 H 0.37901 0.5927 0.76032 0.0
H500 H 0.32294 0.62427 0.74389 0.0
C501 C 0.32442 0.67773 0.78766 0.0
C502 C 0.36137 0.87352 0.0213 0.0
C503 C 0.35581 0.87757 0.04228 0.0
H504 H 0.34964 0.83881 0.99484 0.0
C505 C 0.32854 0.85315 0.05215 0.0
H506 H 0.38241 0.89191 0.0134 0.0
C507 C 0.30932 0.82322 0.0415 0.0
C508 C 0.31772 0.81676 0.02092 0.0
H509 H 0.32375 0.8559 0.06833 0.0
H510 H 0.29032 0.8033 0.04978 0.0
C511 C 0.34268 0.84313 0.01071 0.0
C512 C 0.1389 0.61542 0.98142 0.0
C513 C 0.1299 0.62271 0.96099 0.0
H514 H 0.17703 0.62885 0.00646 0.0
C515 C 0.14949 0.65305 0.95072 0.0
H516 H 0.1242 0.59197 0.98955 0.0
C517 C 0.17905 0.67457 0.96042 0.0
C518 C 0.19011 0.66549 0.98043 0.0
H519 H 0.14287 0.65911 0.93494 0.0
H520 H 0.19481 0.69668 0.95184 0.0
C521 C 0.16907 0.63645 0.99104 0.0
C522 C 0.33692 0.65043 0.20024 0.0
C523 C 0.36474 0.62758 0.21069 0.0
H524 H 0.29588 0.69802 0.20166 0.0
C525 C 0.36934 0.63272 0.23169 0.0
H526 H 0.3328 0.64678 0.18405 0.0
C527 C 0.34858 0.66243 0.24179 0.0
C528 C 0.32253 0.68698 0.23105 0.0
H529 H 0.39078 0.61546 0.24001 0.0
H530 H 0.35443 0.66747 0.25773 0.0
C531 C 0.31572 0.6796 0.21037 0.0
C532 C 0.34744 0.84508 0.45114 0.0
C533 C 0.36872 0.87461 0.4612 0.0
H534 H 0.30137 0.80233 0.45299 0.0
C535 C 0.36226 0.881 0.48196 0.0
H536 H 0.35211 0.83965 0.43513 0.0
C537 C 0.33279 0.86009 0.49216 0.0
C538 C 0.30993 0.83203 0.4818 0.0
H539 H 0.37831 0.90378 0.48997 0.0
H540 H 0.32668 0.86719 0.50786 0.0
C541 C 0.3186 0.82364 0.46141 0.0
C542 C 0.08497 0.83281 0.72548 0.0
C543 C 0.10585 0.86075 0.71412 0.0
H544 H 0.08765 0.78054 0.74333 0.0
C545 C 0.1472 0.85897 0.71363 0.0
H546 H 0.05309 0.83386 0.72626 0.0
C547 C 0.16715 0.82812 0.72332 0.0
C548 C 0.14597 0.79897 0.73378 0.0
H549 H 0.16388 0.88021 0.70493 0.0
H550 H 0.19889 0.82624 0.72193 0.0
C551 C 0.10482 0.80238 0.73529 0.0
C552 C 0.64471 0.3398 0.80088 0.0
C553 C 0.62389 0.37004 0.79112 0.0
H554 H 0.69165 0.29795 0.79896 0.0
C555 C 0.63151 0.37803 0.77063 0.0
H556 H 0.63924 0.33328 0.81671 0.0
C557 C 0.66191 0.35833 0.76055 0.0
C558 C 0.68462 0.32994 0.77074 0.0
H559 H 0.61591 0.40144 0.76289 0.0
H560 H 0.66908 0.36688 0.74517 0.0
C561 C 0.67455 0.31956 0.79069 0.0
C562 C 0.59986 0.14484 0.01948 0.0
C563 C 0.6137 0.12784 0.03761 0.0
H564 H 0.60717 0.19025 0.99731 0.0
C565 C 0.649 0.14213 0.04611 0.0
H566 H 0.57336 0.13404 0.01221 0.0
C567 C 0.66886 0.17377 0.03726 0.0
C568 C 0.65359 0.19213 0.01989 0.0
H569 H 0.66039 0.1302 0.06017 0.0
H570 H 0.69503 0.18512 0.04465 0.0
C571 C 0.61942 0.17682 0.01082 0.0
C572 C 0.8672 0.15972 0.28311 0.0
C573 C 0.86933 0.1187 0.28627 0.0
H574 H 0.83253 0.20836 0.27224 0.0
C575 C 0.83771 0.09529 0.2795 0.0
H576 H 0.89107 0.17883 0.28775 0.0
C577 C 0.80518 0.11209 0.26999 0.0
C578 C 0.80254 0.15296 0.26746 0.0
H579 H 0.83714 0.06388 0.2821 0.0
H580 H 0.78122 0.09299 0.26539 0.0
C581 C 0.83387 0.17672 0.27403 0.0
C582 C 0.87419 0.37008 0.52168 0.0
C583 C 0.86841 0.37505 0.5426 0.0
H584 H 0.86108 0.33538 0.49537 0.0
C585 C 0.83987 0.35218 0.5525 0.0
H586 H 0.89618 0.38728 0.51375 0.0
C587 C 0.81932 0.32301 0.54195 0.0
C588 C 0.82756 0.31569 0.52141 0.0
H589 H 0.83484 0.35567 0.56862 0.0
H590 H 0.7991 0.30438 0.55025 0.0
C591 C 0.85414 0.34039 0.51119 0.0
C592 C 0.64388 0.15794 0.45559 0.0
C593 C 0.62879 0.12287 0.46389 0.0
H594 H 0.68752 0.20338 0.45762 0.0
C595 C 0.64516 0.10873 0.48211 0.0
H596 H 0.63249 0.16957 0.44148 0.0
C597 C 0.67724 0.12773 0.49108 0.0
C598 C 0.69321 0.16175 0.48229 0.0
H599 H 0.63373 0.08248 0.48928 0.0
H600 H 0.69012 0.11526 0.50468 0.0
C601 C 0.67556 0.17734 0.4648 0.0
C602 C 0.88409 0.14228 0.73209 0.0
C603 C 0.87328 0.13077 0.71235 0.0
H604 H 0.87472 0.18243 0.75662 0.0
C605 C 0.84095 0.14946 0.70304 0.0
H606 H 0.90819 0.12794 0.73992 0.0
C607 C 0.82125 0.18021 0.71281 0.0
C608 C 0.8337 0.19313 0.732 0.0
H609 H 0.83198 0.14165 0.68779 0.0
H610 H 0.79764 0.19518 0.70488 0.0
C611 C 0.86465 0.17325 0.74175 0.0
C612 C 0.85393 0.33985 0.95724 0.0
C613 C 0.87303 0.37172 0.9667 0.0
H614 H 0.80721 0.29764 0.95867 0.0
C615 C 0.86141 0.38252 0.98641 0.0
H616 H 0.86178 0.3309 0.94201 0.0
C617 C 0.82979 0.36367 0.99585 0.0
C618 C 0.80935 0.33339 0.98588 0.0
H619 H 0.87604 0.4063 0.99434 0.0
H620 H 0.82041 0.37386 0.01064 0.0
C621 C 0.82253 0.32077 0.96678 0.0
C622 C 0.60175 0.35398 0.2334 0.0
C623 C 0.61577 0.36984 0.21508 0.0
H624 H 0.6079 0.30915 0.25597 0.0
C625 C 0.65042 0.35406 0.2066 0.0
H626 H 0.57579 0.36594 0.24067 0.0
C627 C 0.66937 0.32202 0.21568 0.0
C628 C 0.6538 0.30481 0.23328 0.0
H629 H 0.66193 0.36515 0.19241 0.0
H630 H 0.69497 0.30947 0.20832 0.0
C631 C 0.62037 0.32165 0.2423 0.0
C632 C 0.12865 0.86089 0.41691 0.0
C633 C 0.11663 0.90025 0.4192 0.0
H634 H 0.1535 0.80989 0.43119 0.0
C635 C 0.12031 0.91814 0.43835 0.0
H636 H 0.12652 0.84631 0.40234 0.0
C637 C 0.13612 0.8975 0.45471 0.0
C638 C 0.14824 0.8583 0.4524 0.0
H639 H 0.11049 0.94806 0.44084 0.0
H640 H 0.13859 0.91225 0.46922 0.0
C641 C 0.14421 0.84007 0.43339 0.0
C642 C 0.13941 0.57275 0.68178 0.0
C643 C 0.14039 0.59066 0.66256 0.0
H644 H 0.15164 0.57792 0.71344 0.0
C645 C 0.15699 0.62843 0.66078 0.0
H646 H 0.12615 0.54406 0.68384 0.0
C647 C 0.17144 0.64809 0.67794 0.0
C648 C 0.16938 0.63038 0.69717 0.0
H649 H 0.15841 0.64293 0.64618 0.0
H650 H 0.18336 0.67744 0.67622 0.0
C651 C 0.15375 0.59232 0.69883 0.0
C652 C 0.41574 0.61983 0.93562 0.0
C653 C 0.40486 0.6303 0.91577 0.0
H654 H 0.40416 0.62599 0.96735 0.0
C655 C 0.3733 0.6564 0.91285 0.0
H656 H 0.43966 0.59935 0.93828 0.0
C657 C 0.35323 0.67205 0.92954 0.0
C658 C 0.36393 0.66117 0.94938 0.0
H659 H 0.36439 0.66487 0.89768 0.0
H660 H 0.32899 0.69216 0.92693 0.0
C661 C 0.39531 0.63489 0.95224 0.0
C662 C 0.40569 0.88637 0.1893 0.0
C663 C 0.38701 0.88936 0.1703 0.0
H664 H 0.4016 0.86756 0.22015 0.0
C665 C 0.34792 0.87612 0.16834 0.0
H666 H 0.43542 0.89714 0.19152 0.0
C667 C 0.32825 0.85971 0.18495 0.0
C668 C 0.3474 0.85606 0.20376 0.0
H669 H 0.33276 0.87773 0.1539 0.0
H670 H 0.29835 0.84924 0.18295 0.0
C671 C 0.3862 0.86973 0.20579 0.0
C672 C 0.09896 0.59044 0.81352 0.0
C673 C 0.10596 0.60356 0.83341 0.0
H674 H 0.10968 0.59885 0.78192 0.0
C675 C 0.12868 0.63763 0.83643 0.0
H676 H 0.08093 0.5647 0.81071 0.0
C677 C 0.14523 0.65735 0.81985 0.0
C678 C 0.139 0.64345 0.80001 0.0
H679 H 0.13453 0.64835 0.85161 0.0
H680 H 0.16342 0.68299 0.82257 0.0
C681 C 0.11523 0.61016 0.79702 0.0
C682 C 0.35783 0.59998 0.07539 0.0
C683 C 0.39095 0.6181 0.08426 0.0
H684 H 0.31388 0.60219 0.05199 0.0
C685 C 0.40394 0.65427 0.07637 0.0
H686 H 0.34726 0.5719 0.08089 0.0
C687 C 0.38528 0.67115 0.05962 0.0
C688 C 0.35285 0.65257 0.05049 0.0
H689 H 0.4288 0.66951 0.08305 0.0
H690 H 0.3964 0.69877 0.05378 0.0
C691 C 0.33887 0.61714 0.05872 0.0
C692 C 0.39615 0.85941 0.3277 0.0
C693 C 0.3793 0.89444 0.33511 0.0
H694 H 0.39264 0.81257 0.30594 0.0
C695 C 0.34404 0.90798 0.32629 0.0
H696 H 0.42352 0.8483 0.33391 0.0
C697 C 0.32697 0.888 0.31 0.0
C698 C 0.3443 0.85359 0.30235 0.0
H699 H 0.32962 0.93424 0.33187 0.0
H700 H 0.30013 0.89958 0.30337 0.0
C701 C 0.37866 0.83905 0.31156 0.0
C702 C 0.084 0.88037 0.56586 0.0
C703 C 0.1009 0.88054 0.58535 0.0
H704 H 0.09031 0.86502 0.53463 0.0
C705 C 0.13913 0.86517 0.58786 0.0
H706 H 0.05513 0.89291 0.56318 0.0
C707 C 0.15973 0.84973 0.57126 0.0
C708 C 0.14236 0.8492 0.55191 0.0
H709 H 0.15295 0.86465 0.60267 0.0
H710 H 0.18898 0.83782 0.57362 0.0
C711 C 0.10435 0.8647 0.5494 0.0
C712 C 0.62765 0.35735 0.91749 0.0
C713 C 0.61267 0.39573 0.91957 0.0
H714 H 0.65514 0.30821 0.93229 0.0
C715 C 0.61294 0.41345 0.93884 0.0
H716 H 0.62794 0.34296 0.90284 0.0
C717 C 0.62858 0.39379 0.95553 0.0
C718 C 0.64415 0.35577 0.95344 0.0
H719 H 0.60075 0.44256 0.9411 0.0
H720 H 0.62851 0.40852 0.9701 0.0
C721 C 0.64329 0.33753 0.93431 0.0
C722 C 0.60685 0.08706 0.18361 0.0
C723 C 0.61905 0.09783 0.16405 0.0
H724 H 0.6109 0.09813 0.21545 0.0
C725 C 0.64568 0.12909 0.16172 0.0
H726 H 0.58591 0.06338 0.18577 0.0
C727 C 0.66045 0.14876 0.1788 0.0
C728 C 0.64803 0.13797 0.19836 0.0
H729 H 0.65537 0.13792 0.14675 0.0
H730 H 0.68124 0.17257 0.1767 0.0
C731 C 0.62095 0.1071 0.20057 0.0
C732 C 0.87051 0.15422 0.41285 0.0
C733 C 0.90501 0.13197 0.4155 0.0
H734 H 0.82412 0.1867 0.42728 0.0
C735 C 0.91906 0.1251 0.43524 0.0
H736 H 0.85912 0.15992 0.39778 0.0
C737 C 0.89897 0.13994 0.45202 0.0
C738 C 0.86462 0.16236 0.44943 0.0
H739 H 0.94529 0.10758 0.43774 0.0
H740 H 0.91039 0.13383 0.46705 0.0
C741 C 0.85065 0.16961 0.42969 0.0
C742 C 0.85764 0.37722 0.66823 0.0
C743 C 0.89543 0.39333 0.67102 0.0
H744 H 0.80823 0.34849 0.68202 0.0
C745 C 0.9116 0.39416 0.69067 0.0
H746 H 0.84446 0.37599 0.65327 0.0
C747 C 0.89101 0.37836 0.70704 0.0
C748 C 0.85368 0.36147 0.70418 0.0
H749 H 0.94027 0.40711 0.69343 0.0
H750 H 0.90457 0.37904 0.72192 0.0
C751 C 0.83697 0.3614 0.68466 0.0
C752 C 0.62361 0.09982 0.3262 0.0
C753 C 0.60436 0.12543 0.33962 0.0
H754 H 0.65524 0.09368 0.29834 0.0
C755 C 0.60416 0.16598 0.33551 0.0
H756 H 0.62374 0.06839 0.32892 0.0
C757 C 0.62278 0.18058 0.31813 0.0
C758 C 0.64084 0.15468 0.30438 0.0
H759 H 0.58932 0.18621 0.34565 0.0
H760 H 0.62199 0.21189 0.31513 0.0
C761 C 0.64133 0.11425 0.30865 0.0
C762 C 0.8384 0.10498 0.58119 0.0
C763 C 0.87793 0.11047 0.5869 0.0
H764 H 0.79255 0.11933 0.56007 0.0
C765 C 0.90159 0.13622 0.57556 0.0
H766 H 0.81951 0.08539 0.58973 0.0
C767 C 0.88635 0.15525 0.55849 0.0
C768 C 0.84704 0.14923 0.55257 0.0
H769 H 0.93229 0.14063 0.57947 0.0
H770 H 0.9055 0.17435 0.54981 0.0
C771 C 0.82301 0.12441 0.56425 0.0
C772 C 0.89105 0.33563 0.83528 0.0
C773 C 0.88612 0.37512 0.84102 0.0
H774 H 0.87672 0.29043 0.81386 0.0
C775 C 0.86099 0.39928 0.82953 0.0
H776 H 0.91018 0.31638 0.84392 0.0
C777 C 0.84229 0.38464 0.81221 0.0
C778 C 0.84798 0.34542 0.8062 0.0
H779 H 0.85704 0.42997 0.83347 0.0
H780 H 0.82386 0.4042 0.80336 0.0
C781 C 0.8719 0.32083 0.81811 0.0
C782 C 0.64994 0.3688 0.09224 0.0
C783 C 0.62496 0.40133 0.08954 0.0
H784 H 0.68442 0.32386 0.07776 0.0
C785 C 0.61504 0.41321 0.06979 0.0
H786 H 0.65789 0.35909 0.10735 0.0
C787 C 0.62956 0.39294 0.05304 0.0
C788 C 0.65476 0.36061 0.05564 0.0
H789 H 0.59536 0.43785 0.0673 0.0
H790 H 0.6211 0.40272 0.03802 0.0
C791 C 0.66512 0.34881 0.07537 0.0
loop_
_geom_bond_atom_site_label_1
_geom_bond_atom_site_label_2
_geom_bond_distance
_geom_bond_site_symmetry_2
_ccdc_geom_bond_type
C0 C1 1.384 . S
C0 C2 1.384 . S
C0 H28 0.931 . S
C1 C0 1.384 . S
C1 C4 1.382 . S
C2 C0 1.384 . S
C2 C3 1.381 . S
C2 H29 0.930 . S
C3 C2 1.381 . S
C3 C5 1.381 . S
C3 C6 1.487 . S
C4 C1 1.382 . S
C4 C5 1.387 . S
C4 H30 0.930 . S
C5 C3 1.381 . S
C5 C4 1.387 . S
C5 H31 0.931 1_565 S
C6 C3 1.487 . S
C6 C13 1.399 . S
C6 N44 1.343 1_565 S
C7 C8 1.384 . S
C7 C9 1.384 . S
C7 H32 0.931 . S
C8 C7 1.384 . S
C8 C11 1.382 . S
C9 C7 1.384 . S
C9 C10 1.381 . S
C9 H33 0.930 . S
C10 C9 1.381 . S
C10 C12 1.381 . S
C10 C13 1.487 . S
C11 C8 1.382 . S
C11 C12 1.387 . S
C11 H34 0.930 . S
C12 C10 1.381 . S
C12 C11 1.387 . S
C12 H35 0.931 . S
C13 C6 1.399 . S
C13 C10 1.487 . S
C13 N45 1.343 1_455 S
C14 C15 1.384 . S
C14 C16 1.384 . S
C14 H36 0.931 . S
C15 C14 1.384 . S
C15 C18 1.382 . S
C16 C14 1.384 . S
C16 C17 1.381 . S
C16 H37 0.930 . S
C17 C16 1.381 . S
C17 C19 1.381 . S
C17 C20 1.487 . S
C18 C15 1.382 . S
C18 C19 1.387 . S
C18 H38 0.930 . S
C19 C17 1.381 . S
C19 C18 1.387 . S
C19 H39 0.931 1_545 S
C20 C17 1.487 . S
C20 C27 1.399 . S
C20 N45 1.343 1_545 S
C21 C22 1.384 . S
C21 C23 1.384 . S
C21 H40 0.931 . S
C22 C21 1.384 . S
C22 C25 1.382 . S
C23 C21 1.384 . S
C23 C24 1.381 . S
C23 H41 0.930 . S
C24 C23 1.381 . S
C24 C26 1.381 . S
C24 C27 1.487 . S
C25 C22 1.382 . S
C25 C26 1.387 . S
C25 H42 0.930 . S
C26 C24 1.381 . S
C26 C25 1.387 . S
C26 H43 0.931 . S
C27 C20 1.399 . S
C27 C24 1.487 . S
C27 N44 1.343 1_655 S
H28 C0 0.931 . S
H29 C2 0.930 . S
H30 C4 0.930 . S
H31 C5 0.931 1_545 S
H32 C7 0.931 . S
H33 C9 0.930 . S
H34 C11 0.930 . S
H35 C12 0.931 . S
H36 C14 0.931 . S
H37 C16 0.930 . S
H38 C18 0.930 . S
H39 C19 0.931 1_565 S
H40 C21 0.931 . S
H41 C23 0.930 . S
H42 C25 0.930 . S
H43 C26 0.931 . S
N44 C6 1.343 1_545 S
N44 C27 1.343 1_455 S
N45 C13 1.343 1_655 S
N45 C20 1.343 1_565 S
C46 C47 1.384 . S
C46 C48 1.384 . S
C46 H74 0.931 . S
C47 C46 1.384 . S
C47 C50 1.382 . S
C48 C46 1.384 . S
C48 C49 1.381 . S
C48 H75 0.930 . S
C49 C48 1.381 . S
C49 C51 1.381 . S
C49 C52 1.487 . S
C50 C47 1.382 . S
C50 C51 1.387 . S
C50 H76 0.930 . S
C51 C49 1.381 . S
C51 C50 1.387 . S
C51 H77 0.931 1_655 S
C52 C49 1.487 . S
C52 C59 1.399 . S
C52 N90 1.343 1_655 S
C53 C54 1.384 . S
C53 C55 1.384 . S
C53 H78 0.931 . S
C54 C53 1.384 . S
C54 C57 1.382 . S
C55 C53 1.384 . S
C55 C56 1.381 . S
C55 H79 0.930 . S
C56 C55 1.381 . S
C56 C58 1.381 . S
C56 C59 1.487 . S
C57 C54 1.382 . S
C57 C58 1.387 . S
C57 H80 0.930 . S
C58 C56 1.381 . S
C58 C57 1.387 . S
C58 H81 0.931 . S
C59 C52 1.399 . S
C59 C56 1.487 . S
C59 N91 1.343 . S
C60 C61 1.384 . S
C60 C62 1.384 . S
C60 H82 0.931 . S
C61 C60 1.384 . S
C61 C64 1.382 . S
C62 C60 1.384 . S
C62 C63 1.381 . S
C62 H83 0.930 . S
C63 C62 1.381 . S
C63 C65 1.381 . S
C63 C66 1.487 . S
C64 C61 1.382 . S
C64 C65 1.387 . S
C64 H84 0.930 . S
C65 C63 1.381 . S
C65 C64 1.387 . S
C65 H85 0.931 1_455 S
C66 C63 1.487 . S
C66 C73 1.399 . S
C66 N91 1.343 1_455 S
C67 C68 1.384 . S
C67 C69 1.384 . S
C67 H86 0.931 . S
C68 C67 1.384 . S
C68 C71 1.382 . S
C69 C67 1.384 . S
C69 C70 1.381 . S
C69 H87 0.930 . S
C70 C69 1.381 . S
C70 C72 1.381 . S
C70 C73 1.487 . S
C71 C68 1.382 . S
C71 C72 1.387 . S
C71 H88 0.930 . S
C72 C70 1.381 . S
C72 C71 1.387 . S
C72 H89 0.931 . S
C73 C66 1.399 . S
C73 C70 1.487 . S
C73 N90 1.343 . S
H74 C46 0.931 . S
H75 C48 0.930 . S
H76 C50 0.930 . S
H77 C51 0.931 1_455 S
H78 C53 0.931 . S
H79 C55 0.930 . S
H80 C57 0.930 . S
H81 C58 0.931 . S
H82 C60 0.931 . S
H83 C62 0.930 . S
H84 C64 0.930 . S
H85 C65 0.931 1_655 S
H86 C67 0.931 . S
H87 C69 0.930 . S
H88 C71 0.930 . S
H89 C72 0.931 . S
N90 C52 1.343 1_455 S
N90 C73 1.343 . S
N91 C59 1.343 . S
N91 C66 1.343 1_655 S
C92 C93 1.384 . S
C92 C94 1.384 . S
C92 H120 0.931 . S
C93 C92 1.384 . S
C93 C96 1.382 . S
C94 C92 1.384 . S
C94 C95 1.381 . S
C94 H121 0.930 . S
C95 C94 1.381 . S
C95 C97 1.381 . S
C95 C98 1.487 . S
C96 C93 1.382 . S
C96 C97 1.387 . S
C96 H122 0.930 . S
C97 C95 1.381 . S
C97 C96 1.387 . S
C97 H123 0.931 . S
C98 C95 1.487 . S
C98 C105 1.399 . S
C98 N136 1.343 . S
C99 C100 1.384 . S
C99 C101 1.384 . S
C99 H124 0.931 . S
C100 C99 1.384 . S
C100 C103 1.382 . S
C101 C99 1.384 . S
C101 C102 1.381 . S
C101 H125 0.930 . S
C102 C101 1.381 . S
C102 C104 1.381 . S
C102 C105 1.487 . S
C103 C100 1.382 . S
C103 C104 1.387 . S
C103 H126 0.930 . S
C104 C102 1.381 . S
C104 C103 1.387 . S
C104 H127 0.931 . S
C105 C98 1.399 . S
C105 C102 1.487 . S
C105 N137 1.343 . S
C106 C107 1.384 . S
C106 C108 1.384 . S
C106 H128 0.931 . S
C107 C106 1.384 . S
C107 C110 1.382 . S
C108 C106 1.384 . S
C108 C109 1.381 . S
C108 H129 0.930 . S
C109 C108 1.381 . S
C109 C111 1.381 . S
C109 C112 1.487 . S
C110 C107 1.382 . S
C110 C111 1.387 . S
C110 H130 0.930 . S
C111 C109 1.381 . S
C111 C110 1.387 . S
C111 H131 0.931 . S
C112 C109 1.487 . S
C112 C119 1.399 . S
C112 N137 1.343 . S
C113 C114 1.384 . S
C113 C115 1.384 . S
C113 H132 0.931 . S
C114 C113 1.384 . S
C114 C117 1.382 . S
C115 C113 1.384 . S
C115 C116 1.381 . S
C115 H133 0.930 . S
C116 C115 1.381 . S
C116 C118 1.381 . S
C116 C119 1.487 . S
C117 C114 1.382 . S
C117 C118 1.387 . S
C117 H134 0.930 . S
C118 C116 1.381 . S
C118 C117 1.387 . S
C118 H135 0.931 . S
C119 C112 1.399 . S
C119 C116 1.487 . S
C119 N136 1.343 . S
H120 C92 0.931 . S
H121 C94 0.930 . S
H122 C96 0.930 . S
H123 C97 0.931 . S
H124 C99 0.931 . S
H125 C101 0.930 . S
H126 C103 0.930 . S
H127 C104 0.931 . S
H128 C106 0.931 . S
H129 C108 0.930 . S
H130 C110 0.930 . S
H131 C111 0.931 . S
H132 C113 0.931 . S
H133 C115 0.930 . S
H134 C117 0.930 . S
H135 C118 0.931 . S
N136 C98 1.343 . S
N136 C119 1.343 . S
N137 C105 1.343 . S
N137 C112 1.343 . S
C138 C139 1.384 . S
C138 C140 1.384 . S
C138 H166 0.931 . S
C139 C138 1.384 . S
C139 C142 1.382 . S
C140 C138 1.384 . S
C140 C141 1.381 . S
C140 H167 0.930 . S
C141 C140 1.381 . S
C141 C143 1.381 . S
C141 C144 1.487 . S
C142 C139 1.382 . S
C142 C143 1.387 . S
C142 H168 0.930 . S
C143 C141 1.381 . S
C143 C142 1.387 . S
C143 H169 0.931 . S
C144 C141 1.487 . S
C144 C151 1.399 . S
C144 N182 1.343 1_565 S
C145 C146 1.384 . S
C145 C147 1.384 . S
C145 H170 0.931 . S
C146 C145 1.384 . S
C146 C149 1.382 . S
C147 C145 1.384 . S
C147 C148 1.381 . S
C147 H171 0.930 . S
C148 C147 1.381 . S
C148 C150 1.381 . S
C148 C151 1.487 . S
C149 C146 1.382 . S
C149 C150 1.387 . S
C149 H172 0.930 . S
C150 C148 1.381 . S
C150 C149 1.387 . S
C150 H173 0.931 . S
C151 C144 1.399 . S
C151 C148 1.487 . S
C151 N183 1.356 . S
C152 C153 1.384 . S
C152 C154 1.384 . S
C152 H174 0.931 . S
C153 C152 1.384 . S
C153 C156 1.382 . S
C154 C152 1.384 . S
C154 C155 1.381 . S
C154 H175 0.930 . S
C155 C154 1.381 . S
C155 C157 1.381 . S
C155 C158 1.487 . S
C156 C153 1.382 . S
C156 C157 1.387 . S
C156 H176 0.930 . S
C157 C155 1.381 . S
C157 C156 1.387 . S
C157 H177 0.931 . S
C158 C155 1.487 . S
C158 C165 1.399 . S
C158 N183 1.328 1_545 S
C159 C160 1.384 . S
C159 C161 1.384 . S
C159 H178 0.931 . S
C160 C159 1.384 . S
C160 C163 1.382 . S
C161 C159 1.384 . S
C161 C162 1.381 . S
C161 H179 0.930 . S
C162 C161 1.381 . S
C162 C164 1.381 . S
C162 C165 1.487 . S
C163 C160 1.382 . S
C163 C164 1.387 . S
C163 H180 0.930 . S
C164 C162 1.381 . S
C164 C163 1.387 . S
C164 H181 0.931 . S
C165 C158 1.399 . S
C165 C162 1.487 . S
C165 N182 1.343 . S
H166 C138 0.931 . S
H167 C140 0.930 . S
H168 C142 0.930 . S
H169 C143 0.931 . S
H170 C145 0.931 . S
H171 C147 0.930 . S
H172 C149 0.930 . S
H173 C150 0.931 . S
H174 C152 0.931 . S
H175 C154 0.930 . S
H176 C156 0.930 . S
H177 C157 0.931 . S
H178 C159 0.931 . S
H179 C161 0.930 . S
H180 C163 0.930 . S
H181 C164 0.931 . S
N182 C144 1.343 1_545 S
N182 C165 1.343 . S
N183 C151 1.356 . S
N183 C158 1.328 1_565 S
C184 C185 1.384 . S
C184 C186 1.384 . S
C184 H212 0.931 . S
C185 C184 1.384 . S
C185 C188 1.382 . S
C186 C184 1.384 . S
C186 C187 1.381 . S
C186 H213 0.930 . S
C187 C186 1.381 . S
C187 C189 1.381 . S
C187 C190 1.487 . S
C188 C185 1.382 . S
C188 C189 1.387 . S
C188 H214 0.930 . S
C189 C187 1.381 . S
C189 C188 1.387 . S
C189 H215 0.931 . S
C190 C187 1.487 . S
C190 C197 1.399 . S
C190 N228 1.343 . S
C191 C192 1.384 . S
C191 C193 1.384 . S
C191 H216 0.931 . S
C192 C191 1.384 . S
C192 C195 1.382 . S
C193 C191 1.384 . S
C193 C194 1.381 . S
C193 H217 0.930 . S
C194 C193 1.381 . S
C194 C196 1.381 . S
C194 C197 1.487 . S
C195 C192 1.382 . S
C195 C196 1.387 . S
C195 H218 0.930 . S
C196 C194 1.381 . S
C196 C195 1.387 . S
C196 H219 0.931 . S
C197 C190 1.399 . S
C197 C194 1.487 . S
C197 N229 1.343 1_455 S
C198 C199 1.384 . S
C198 C200 1.384 . S
C198 H220 0.931 . S
C199 C198 1.384 . S
C199 C202 1.382 . S
C200 C198 1.384 . S
C200 C201 1.381 . S
C200 H221 0.930 . S
C201 C200 1.381 . S
C201 C203 1.381 . S
C201 C204 1.487 . S
C202 C199 1.382 . S
C202 C203 1.387 . S
C202 H222 0.930 . S
C203 C201 1.381 . S
C203 C202 1.387 . S
C203 H223 0.931 . S
C204 C201 1.487 . S
C204 C211 1.399 . S
C204 N229 1.343 . S
C205 C206 1.384 . S
C205 C207 1.384 . S
C205 H224 0.931 . S
C206 C205 1.384 . S
C206 C209 1.382 . S
C207 C205 1.384 . S
C207 C208 1.381 . S
C207 H225 0.930 . S
C208 C207 1.381 . S
C208 C210 1.381 . S
C208 C211 1.487 . S
C209 C206 1.382 . S
C209 C210 1.387 . S
C209 H226 0.930 . S
C210 C208 1.381 . S
C210 C209 1.387 . S
C210 H227 0.931 . S
C211 C204 1.399 . S
C211 C208 1.487 . S
C211 N228 1.343 1_655 S
H212 C184 0.931 . S
H213 C186 0.930 . S
H214 C188 0.930 . S
H215 C189 0.931 . S
H216 C191 0.931 . S
H217 C193 0.930 . S
H218 C195 0.930 . S
H219 C196 0.931 . S
H220 C198 0.931 . S
H221 C200 0.930 . S
H222 C202 0.930 . S
H223 C203 0.931 . S
H224 C205 0.931 . S
H225 C207 0.930 . S
H226 C209 0.930 . S
H227 C210 0.931 . S
N228 C190 1.343 . S
N228 C211 1.343 1_455 S
N229 C197 1.343 1_655 S
N229 C204 1.343 . S
C230 C231 1.384 . S
C230 C232 1.384 . S
C230 H258 0.931 . S
C231 C230 1.384 . S
C231 C234 1.382 . S
C232 C230 1.384 . S
C232 C233 1.381 . S
C232 H259 0.930 . S
C233 C232 1.381 . S
C233 C235 1.381 . S
C233 C236 1.487 . S
C234 C231 1.382 . S
C234 C235 1.387 . S
C234 H260 0.930 . S
C235 C233 1.381 . S
C235 C234 1.387 . S
C235 H261 0.931 . S
C236 C233 1.487 . S
C236 C243 1.399 . S
C236 N274 1.343 . S
C237 C238 1.384 . S
C237 C239 1.384 . S
C237 H262 0.931 . S
C238 C237 1.384 . S
C238 C241 1.382 . S
C239 C237 1.384 . S
C239 C240 1.381 . S
C239 H263 0.930 . S
C240 C239 1.381 . S
C240 C242 1.381 . S
C240 C243 1.487 . S
C241 C238 1.382 . S
C241 C242 1.387 . S
C241 H264 0.930 . S
C242 C240 1.381 . S
C242 C241 1.387 . S
C242 H265 0.931 . S
C243 C236 1.399 . S
C243 C240 1.487 . S
C243 N275 1.343 . S
C244 C245 1.384 . S
C244 C246 1.384 . S
C244 H266 0.931 . S
C245 C244 1.384 . S
C245 C248 1.382 . S
C246 C244 1.384 . S
C246 C247 1.381 . S
C246 H267 0.930 . S
C247 C246 1.381 . S
C247 C249 1.381 . S
C247 C250 1.487 . S
C248 C245 1.382 . S
C248 C249 1.387 . S
C248 H268 0.930 . S
C249 C247 1.381 . S
C249 C248 1.387 . S
C249 H269 0.931 . S
C250 C247 1.487 . S
C250 C257 1.399 . S
C250 N275 1.343 . S
C251 C252 1.384 . S
C251 C253 1.384 . S
C251 H270 0.931 . S
C252 C251 1.384 . S
C252 C255 1.382 . S
C253 C251 1.384 . S
C253 C254 1.381 . S
C253 H271 0.930 . S
C254 C253 1.381 . S
C254 C256 1.381 . S
C254 C257 1.487 . S
C255 C252 1.382 . S
C255 C256 1.387 . S
C255 H272 0.930 . S
C256 C254 1.381 . S
C256 C255 1.387 . S
C256 H273 0.931 . S
C257 C250 1.399 . S
C257 C254 1.487 . S
C257 N274 1.343 . S
H258 C230 0.931 . S
H259 C232 0.930 . S
H260 C234 0.930 . S
H261 C235 0.931 . S
H262 C237 0.931 . S
H263 C239 0.930 . S
H264 C241 0.930 . S
H265 C242 0.931 . S
H266 C244 0.931 . S
H267 C246 0.930 . S
H268 C248 0.930 . S
H269 C249 0.931 . S
H270 C251 0.931 . S
H271 C253 0.930 . S
H272 C255 0.930 . S
H273 C256 0.931 . S
N274 C236 1.343 . S
N274 C257 1.343 . S
N275 C243 1.343 . S
N275 C250 1.343 . S
C276 C277 1.384 . S
C276 C278 1.384 . S
C276 H304 0.931 . S
C277 C276 1.384 . S
C277 C280 1.382 . S
C278 C276 1.384 . S
C278 C279 1.381 . S
C278 H305 0.930 . S
C279 C278 1.381 . S
C279 C281 1.381 . S
C279 C282 1.487 . S
C280 C277 1.382 . S
C280 C281 1.387 . S
C280 H306 0.930 . S
C281 C279 1.381 . S
C281 C280 1.387 . S
C281 H307 0.931 1_565 S
C282 C279 1.487 . S
C282 C289 1.399 . S
C282 N320 1.343 1_565 S
C283 C284 1.384 . S
C283 C285 1.384 . S
C283 H308 0.931 . S
C284 C283 1.384 . S
C284 C287 1.382 . S
C285 C283 1.384 . S
C285 C286 1.381 . S
C285 H309 0.930 . S
C286 C285 1.381 . S
C286 C288 1.381 . S
C286 C289 1.487 . S
C287 C284 1.382 . S
C287 C288 1.387 . S
C287 H310 0.930 . S
C288 C286 1.381 . S
C288 C287 1.387 . S
C288 H311 0.931 . S
C289 C282 1.399 . S
C289 C286 1.487 . S
C289 N321 1.343 . S
C290 C291 1.384 . S
C290 C292 1.384 . S
C290 H312 0.931 . S
C291 C290 1.384 . S
C291 C294 1.382 . S
C292 C290 1.384 . S
C292 C293 1.381 . S
C292 H313 0.930 . S
C293 C292 1.381 . S
C293 C295 1.381 . S
C293 C296 1.487 . S
C294 C291 1.382 . S
C294 C295 1.387 . S
C294 H314 0.930 . S
C295 C293 1.381 . S
C295 C294 1.387 . S
C295 H315 0.931 1_545 S
C296 C293 1.487 . S
C296 C303 1.399 . S
C296 N321 1.343 1_545 S
C297 C298 1.384 . S
C297 C299 1.384 . S
C297 H316 0.931 . S
C298 C297 1.384 . S
C298 C301 1.382 . S
C299 C297 1.384 . S
C299 C300 1.381 . S
C299 H317 0.930 . S
C300 C299 1.381 . S
C300 C302 1.381 . S
C300 C303 1.487 . S
C301 C298 1.382 . S
C301 C302 1.387 . S
C301 H318 0.930 . S
C302 C300 1.381 . S
C302 C301 1.387 . S
C302 H319 0.931 . S
C303 C296 1.399 . S
C303 C300 1.487 . S
C303 N320 1.343 . S
H304 C276 0.931 . S
H305 C278 0.930 . S
H306 C280 0.930 . S
H307 C281 0.931 1_545 S
H308 C283 0.931 . S
H309 C285 0.930 . S
H310 C287 0.930 . S
H311 C288 0.931 . S
H312 C290 0.931 . S
H313 C292 0.930 . S
H314 C294 0.930 . S
H315 C295 0.931 1_565 S
H316 C297 0.931 . S
H317 C299 0.930 . S
H318 C301 0.930 . S
H319 C302 0.931 . S
N320 C282 1.343 1_545 S
N320 C303 1.343 . S
N321 C289 1.343 . S
N321 C296 1.343 1_565 S
C322 C323 1.384 . S
C322 C324 1.384 . S
C322 H350 0.931 . S
C323 C322 1.384 . S
C323 C326 1.382 . S
C324 C322 1.384 . S
C324 C325 1.381 . S
C324 H351 0.930 . S
C325 C324 1.381 . S
C325 C327 1.381 . S
C325 C328 1.487 . S
C326 C323 1.382 . S
C326 C327 1.387 . S
C326 H352 0.930 . S
C327 C325 1.381 . S
C327 C326 1.387 . S
C327 H353 0.931 1_455 S
C328 C325 1.487 . S
C328 C335 1.399 . S
C328 N366 1.343 1_455 S
C329 C330 1.384 . S
C329 C331 1.384 . S
C329 H354 0.931 . S
C330 C329 1.384 . S
C330 C333 1.382 . S
C331 C329 1.384 . S
C331 C332 1.381 . S
C331 H355 0.930 . S
C332 C331 1.381 . S
C332 C334 1.381 . S
C332 C335 1.487 . S
C333 C330 1.382 . S
C333 C334 1.387 . S
C333 H356 0.930 . S
C334 C332 1.381 . S
C334 C333 1.387 . S
C334 H357 0.931 . S
C335 C328 1.399 . S
C335 C332 1.487 . S
C335 N367 1.343 1_565 S
C336 C337 1.384 . S
C336 C338 1.384 . S
C336 H358 0.931 . S
C337 C336 1.384 . S
C337 C340 1.382 . S
C338 C336 1.384 . S
C338 C339 1.381 . S
C338 H359 0.930 . S
C339 C338 1.381 . S
C339 C341 1.381 . S
C339 C342 1.487 . S
C340 C337 1.382 . S
C340 C341 1.387 . S
C340 H360 0.930 . S
C341 C339 1.381 . S
C341 C340 1.387 . S
C341 H361 0.931 1_655 S
C342 C339 1.487 . S
C342 C349 1.399 . S
C342 N367 1.343 1_655 S
C343 C344 1.384 . S
C343 C345 1.384 . S
C343 H362 0.931 . S
C344 C343 1.384 . S
C344 C347 1.382 . S
C345 C343 1.384 . S
C345 C346 1.381 . S
C345 H363 0.930 . S
C346 C345 1.381 . S
C346 C348 1.381 . S
C346 C349 1.487 . S
C347 C344 1.382 . S
C347 C348 1.387 . S
C347 H364 0.930 . S
C348 C346 1.381 . S
C348 C347 1.387 . S
C348 H365 0.931 . S
C349 C342 1.399 . S
C349 C346 1.487 . S
C349 N366 1.343 1_545 S
H350 C322 0.931 . S
H351 C324 0.930 . S
H352 C326 0.930 . S
H353 C327 0.931 1_655 S
H354 C329 0.931 . S
H355 C331 0.930 . S
H356 C333 0.930 . S
H357 C334 0.931 . S
H358 C336 0.931 . S
H359 C338 0.930 . S
H360 C340 0.930 . S
H361 C341 0.931 1_455 S
H362 C343 0.931 . S
H363 C345 0.930 . S
H364 C347 0.930 . S
H365 C348 0.931 . S
N366 C328 1.343 1_655 S
N366 C349 1.343 1_565 S
N367 C335 1.343 1_545 S
N367 C342 1.343 1_455 S
In368 O369 2.294 . S
In368 O370 2.326 . S
In368 O374 2.266 1_554 S
In368 O375 2.326 1_554 S
In368 O376 2.266 1_554 S
In368 O377 2.326 1_554 S
In368 O379 2.294 . S
In368 O380 2.326 . S
O369 In368 2.294 . S
O369 C378 1.240 . S
O370 In368 2.326 . S
O370 C378 1.252 . S
C371 O374 1.252 . S
C371 O375 1.260 . S
C372 O379 1.240 . S
C372 O380 1.252 . S
C373 O376 1.252 . S
C373 O377 1.260 . S
O374 In368 2.266 1_556 S
O374 C371 1.252 . S
O375 In368 2.326 1_556 S
O375 C371 1.260 . S
O376 In368 2.266 1_556 S
O376 C373 1.252 . S
O377 In368 2.326 1_556 S
O377 C373 1.260 . S
C378 O369 1.240 . S
C378 O370 1.252 . S
O379 In368 2.294 . S
O379 C372 1.240 . S
O380 In368 2.326 . S
O380 C372 1.252 . S
In381 O382 2.294 . S
In381 O383 2.326 . S
In381 O387 2.266 . S
In381 O388 2.326 . S
In381 O389 2.266 . S
In381 O390 2.326 . S
In381 O392 2.294 . S
In381 O393 2.326 . S
O382 In381 2.294 . S
O382 C391 1.240 . S
O383 In381 2.326 . S
O383 C391 1.252 . S
C384 O387 1.252 . S
C384 O388 1.260 . S
C385 O392 1.240 . S
C385 O393 1.252 . S
C386 O389 1.252 . S
C386 O390 1.260 . S
O387 In381 2.266 . S
O387 C384 1.252 . S
O388 In381 2.326 . S
O388 C384 1.260 . S
O389 In381 2.266 . S
O389 C386 1.252 . S
O390 In381 2.326 . S
O390 C386 1.260 . S
C391 O382 1.240 . S
C391 O383 1.252 . S
O392 In381 2.294 . S
O392 C385 1.240 . S
O393 In381 2.326 . S
O393 C385 1.252 . S
In394 O395 2.294 . S
In394 O396 2.326 . S
In394 O400 2.266 . S
In394 O401 2.326 . S
In394 O402 2.266 . S
In394 O403 2.326 . S
In394 O405 2.294 . S
In394 O406 2.326 . S
O395 In394 2.294 . S
O395 C404 1.240 . S
O396 In394 2.326 . S
O396 C404 1.252 . S
C397 O400 1.252 . S
C397 O401 1.260 . S
C398 O405 1.240 . S
C398 O406 1.252 . S
C399 O402 1.252 . S
C399 O403 1.260 . S
O400 In394 2.266 . S
O400 C397 1.252 . S
O401 In394 2.326 . S
O401 C397 1.260 . S
O402 In394 2.266 . S
O402 C399 1.252 . S
O403 In394 2.326 . S
O403 C399 1.260 . S
C404 O395 1.240 . S
C404 O396 1.252 . S
O405 In394 2.294 . S
O405 C398 1.240 . S
O406 In394 2.326 . S
O406 C398 1.252 . S
In407 O408 2.294 . S
In407 O409 2.326 . S
In407 O413 2.266 . S
In407 O414 2.326 . S
In407 O415 2.266 . S
In407 O416 2.326 . S
In407 O418 2.294 . S
In407 O419 2.326 . S
O408 In407 2.294 . S
O408 C417 1.240 . S
O409 In407 2.326 . S
O409 C417 1.252 . S
C410 O413 1.252 . S
C410 O414 1.260 . S
C411 O418 1.240 . S
C411 O419 1.252 . S
C412 O415 1.252 . S
C412 O416 1.260 . S
O413 In407 2.266 . S
O413 C410 1.252 . S
O414 In407 2.326 . S
O414 C410 1.260 . S
O415 In407 2.266 . S
O415 C412 1.252 . S
O416 In407 2.326 . S
O416 C412 1.260 . S
C417 O408 1.240 . S
C417 O409 1.252 . S
O418 In407 2.294 . S
O418 C411 1.240 . S
O419 In407 2.326 . S
O419 C411 1.252 . S
In420 O421 2.294 . S
In420 O422 2.326 . S
In420 O426 2.266 . S
In420 O427 2.326 . S
In420 O428 2.266 . S
In420 O429 2.326 . S
In420 O431 2.294 . S
In420 O432 2.326 . S
O421 In420 2.294 . S
O421 C430 1.240 . S
O422 In420 2.326 . S
O422 C430 1.252 . S
C423 O426 1.252 . S
C423 O427 1.260 . S
C424 O431 1.240 . S
C424 O432 1.252 . S
C425 O428 1.252 . S
C425 O429 1.260 . S
O426 In420 2.266 . S
O426 C423 1.252 . S
O427 In420 2.326 . S
O427 C423 1.260 . S
O428 In420 2.266 . S
O428 C425 1.252 . S
O429 In420 2.326 . S
O429 C425 1.260 . S
C430 O421 1.240 . S
C430 O422 1.252 . S
O431 In420 2.294 . S
O431 C424 1.240 . S
O432 In420 2.326 . S
O432 C424 1.252 . S
In433 O434 2.294 . S
In433 O435 2.326 . S
In433 O439 2.266 . S
In433 O440 2.326 . S
In433 O441 2.266 . S
In433 O442 2.326 . S
In433 O444 2.294 . S
In433 O445 2.326 . S
O434 In433 2.294 . S
O434 C443 1.240 . S
O435 In433 2.326 . S
O435 C443 1.252 . S
C436 O439 1.252 . S
C436 O440 1.260 . S
C437 O444 1.240 . S
C437 O445 1.252 . S
C438 O441 1.252 . S
C438 O442 1.260 . S
O439 In433 2.266 . S
O439 C436 1.252 . S
O440 In433 2.326 . S
O440 C436 1.260 . S
O441 In433 2.266 . S
O441 C438 1.252 . S
O442 In433 2.326 . S
O442 C438 1.260 . S
C443 O434 1.240 . S
C443 O435 1.252 . S
O444 In433 2.294 . S
O444 C437 1.240 . S
O445 In433 2.326 . S
O445 C437 1.252 . S
In446 O447 2.294 . S
In446 O448 2.326 . S
In446 O452 2.266 1_554 S
In446 O453 2.326 1_554 S
In446 O454 2.266 1_554 S
In446 O455 2.326 1_554 S
In446 O457 2.294 . S
In446 O458 2.326 . S
O447 In446 2.294 . S
O447 C456 1.240 . S
O448 In446 2.326 . S
O448 C456 1.252 . S
C449 O452 1.252 . S
C449 O453 1.260 . S
C450 O457 1.240 . S
C450 O458 1.252 . S
C451 O454 1.252 . S
C451 O455 1.260 . S
O452 In446 2.266 1_556 S
O452 C449 1.252 . S
O453 In446 2.326 1_556 S
O453 C449 1.260 . S
O454 In446 2.266 1_556 S
O454 C451 1.252 . S
O455 In446 2.326 1_556 S
O455 C451 1.260 . S
C456 O447 1.240 . S
C456 O448 1.252 . S
O457 In446 2.294 . S
O457 C450 1.240 . S
O458 In446 2.326 . S
O458 C450 1.252 . S
In459 O460 2.294 . S
In459 O461 2.326 . S
In459 O465 2.266 . S
In459 O466 2.326 . S
In459 O467 2.266 . S
In459 O468 2.326 . S
In459 O470 2.294 . S
In459 O471 2.326 . S
O460 In459 2.294 . S
O460 C469 1.240 . S
O461 In459 2.326 . S
O461 C469 1.252 . S
C462 O465 1.252 . S
C462 O466 1.260 . S
C463 O470 1.240 . S
C463 O471 1.252 . S
C464 O467 1.252 . S
C464 O468 1.260 . S
O465 In459 2.266 . S
O465 C462 1.252 . S
O466 In459 2.326 . S
O466 C462 1.260 . S
O467 In459 2.266 . S
O467 C464 1.252 . S
O468 In459 2.326 . S
O468 C464 1.260 . S
C469 O460 1.240 . S
C469 O461 1.252 . S
O470 In459 2.294 . S
O470 C463 1.240 . S
O471 In459 2.326 . S
O471 C463 1.252 . S
C472 C473 1.387 . S
C472 H476 0.950 . S
C472 C481 1.390 . S
C473 C472 1.387 . S
C473 C475 1.387 . S
H474 C481 0.950 . S
C475 C473 1.387 . S
C475 C477 1.390 . S
C475 H479 0.950 . S
H476 C472 0.950 . S
C477 C475 1.390 . S
C477 C478 1.387 . S
C477 H480 0.950 . S
C478 C477 1.387 . S
C478 C481 1.387 . S
H479 C475 0.950 . S
H480 C477 0.950 . S
C481 C472 1.390 . S
C481 H474 0.950 . S
C481 C478 1.387 . S
C482 C483 1.387 . S
C482 H486 0.950 . S
C482 C491 1.390 . S
C483 C482 1.387 . S
C483 C485 1.387 . S
H484 C491 0.950 . S
C485 C483 1.387 . S
C485 C487 1.390 . S
C485 H489 0.950 . S
H486 C482 0.950 . S
C487 C485 1.390 . S
C487 C488 1.387 . S
C487 H490 0.950 . S
C488 C487 1.387 . S
C488 C491 1.387 . S
H489 C485 0.950 . S
H490 C487 0.950 . S
C491 C482 1.390 . S
C491 H484 0.950 . S
C491 C488 1.387 . S
C492 C493 1.387 . S
C492 H496 0.950 . S
C492 C501 1.390 . S
C493 C492 1.387 . S
C493 C495 1.387 . S
H494 C501 0.950 . S
C495 C493 1.387 . S
C495 C497 1.390 . S
C495 H499 0.950 . S
H496 C492 0.950 . S
C497 C495 1.390 . S
C497 C498 1.387 . S
C497 H500 0.950 . S
C498 C497 1.387 . S
C498 C501 1.387 . S
H499 C495 0.950 . S
H500 C497 0.950 . S
C501 C492 1.390 . S
C501 H494 0.950 . S
C501 C498 1.387 . S
C502 C503 1.387 . S
C502 H506 0.950 . S
C502 C511 1.390 . S
C503 C502 1.387 . S
C503 C505 1.387 . S
H504 C511 0.950 1_556 S
C505 C503 1.387 . S
C505 C507 1.390 . S
C505 H509 0.950 . S
H506 C502 0.950 . S
C507 C505 1.390 . S
C507 C508 1.387 . S
C507 H510 0.950 . S
C508 C507 1.387 . S
C508 C511 1.387 . S
H509 C505 0.950 . S
H510 C507 0.950 . S
C511 C502 1.390 . S
C511 H504 0.950 1_554 S
C511 C508 1.387 . S
C512 C513 1.387 . S
C512 H516 0.950 1_556 S
C512 C521 1.390 . S
C513 C512 1.387 . S
C513 C515 1.387 . S
H514 C521 0.950 1_554 S
C515 C513 1.387 . S
C515 C517 1.390 . S
C515 H519 0.950 . S
H516 C512 0.950 1_554 S
C517 C515 1.390 . S
C517 C518 1.387 . S
C517 H520 0.950 . S
C518 C517 1.387 . S
C518 C521 1.387 . S
H519 C515 0.950 . S
H520 C517 0.950 . S
C521 C512 1.390 . S
C521 H514 0.950 1_556 S
C521 C518 1.387 . S
C522 C523 1.387 . S
C522 H526 0.950 . S
C522 C531 1.390 . S
C523 C522 1.387 . S
C523 C525 1.387 . S
H524 C531 0.950 . S
C525 C523 1.387 . S
C525 C527 1.390 . S
C525 H529 0.950 . S
H526 C522 0.950 . S
C527 C525 1.390 . S
C527 C528 1.387 . S
C527 H530 0.950 . S
C528 C527 1.387 . S
C528 C531 1.387 . S
H529 C525 0.950 . S
H530 C527 0.950 . S
C531 C522 1.390 . S
C531 H524 0.950 . S
C531 C528 1.387 . S
C532 C533 1.387 . S
C532 H536 0.950 . S
C532 C541 1.390 . S
C533 C532 1.387 . S
C533 C535 1.387 . S
H534 C541 0.950 . S
C535 C533 1.387 . S
C535 C537 1.390 . S
C535 H539 0.950 . S
H536 C532 0.950 . S
C537 C535 1.390 . S
C537 C538 1.387 . S
C537 H540 0.950 . S
C538 C537 1.387 . S
C538 C541 1.387 . S
H539 C535 0.950 . S
H540 C537 0.950 . S
C541 C532 1.390 . S
C541 H534 0.950 . S
C541 C538 1.387 . S
C542 C543 1.387 . S
C542 H546 0.950 . S
C542 C551 1.390 . S
C543 C542 1.387 . S
C543 C545 1.387 . S
H544 C551 0.950 . S
C545 C543 1.387 . S
C545 C547 1.390 . S
C545 H549 0.950 . S
H546 C542 0.950 . S
C547 C545 1.390 . S
C547 C548 1.387 . S
C547 H550 0.950 . S
C548 C547 1.387 . S
C548 C551 1.387 . S
H549 C545 0.950 . S
H550 C547 0.950 . S
C551 C542 1.390 . S
C551 H544 0.950 . S
C551 C548 1.387 . S
C552 C553 1.387 . S
C552 H556 0.950 . S
C552 C561 1.390 . S
C553 C552 1.387 . S
C553 C555 1.387 . S
H554 C561 0.950 . S
C555 C553 1.387 . S
C555 C557 1.390 . S
C555 H559 0.950 . S
H556 C552 0.950 . S
C557 C555 1.390 . S
C557 C558 1.387 . S
C557 H560 0.950 . S
C558 C557 1.387 . S
C558 C561 1.387 . S
H559 C555 0.950 . S
H560 C557 0.950 . S
C561 C552 1.390 . S
C561 H554 0.950 . S
C561 C558 1.387 . S
C562 C563 1.387 . S
C562 H566 0.950 . S
C562 C571 1.390 . S
C563 C562 1.387 . S
C563 C565 1.387 . S
H564 C571 0.950 1_556 S
C565 C563 1.387 . S
C565 C567 1.390 . S
C565 H569 0.950 . S
H566 C562 0.950 . S
C567 C565 1.390 . S
C567 C568 1.387 . S
C567 H570 0.950 . S
C568 C567 1.387 . S
C568 C571 1.387 . S
H569 C565 0.950 . S
H570 C567 0.950 . S
C571 C562 1.390 . S
C571 H564 0.950 1_554 S
C571 C568 1.387 . S
C572 C573 1.387 . S
C572 H576 0.950 . S
C572 C581 1.390 . S
C573 C572 1.387 . S
C573 C575 1.387 . S
H574 C581 0.950 . S
C575 C573 1.387 . S
C575 C577 1.390 . S
C575 H579 0.950 . S
H576 C572 0.950 . S
C577 C575 1.390 . S
C577 C578 1.387 . S
C577 H580 0.950 . S
C578 C577 1.387 . S
C578 C581 1.387 . S
H579 C575 0.950 . S
H580 C577 0.950 . S
C581 C572 1.390 . S
C581 H574 0.950 . S
C581 C578 1.387 . S
C582 C583 1.387 . S
C582 H586 0.950 . S
C582 C591 1.390 . S
C583 C582 1.387 . S
C583 C585 1.387 . S
H584 C591 0.950 . S
C585 C583 1.387 . S
C585 C587 1.390 . S
C585 H589 0.950 . S
H586 C582 0.950 . S
C587 C585 1.390 . S
C587 C588 1.387 . S
C587 H590 0.950 . S
C588 C587 1.387 . S
C588 C591 1.387 . S
H589 C585 0.950 . S
H590 C587 0.950 . S
C591 C582 1.390 . S
C591 H584 0.950 . S
C591 C588 1.387 . S
C592 C593 1.387 . S
C592 H596 0.950 . S
C592 C601 1.390 . S
C593 C592 1.387 . S
C593 C595 1.387 . S
H594 C601 0.950 . S
C595 C593 1.387 . S
C595 C597 1.390 . S
C595 H599 0.950 . S
H596 C592 0.950 . S
C597 C595 1.390 . S
C597 C598 1.387 . S
C597 H600 0.950 . S
C598 C597 1.387 . S
C598 C601 1.387 . S
H599 C595 0.950 . S
H600 C597 0.950 . S
C601 C592 1.390 . S
C601 H594 0.950 . S
C601 C598 1.387 . S
C602 C603 1.387 . S
C602 H606 0.950 . S
C602 C611 1.390 . S
C603 C602 1.387 . S
C603 C605 1.387 . S
H604 C611 0.950 . S
C605 C603 1.387 . S
C605 C607 1.390 . S
C605 H609 0.950 . S
H606 C602 0.950 . S
C607 C605 1.390 . S
C607 C608 1.387 . S
C607 H610 0.950 . S
C608 C607 1.387 . S
C608 C611 1.387 . S
H609 C605 0.950 . S
H610 C607 0.950 . S
C611 C602 1.390 . S
C611 H604 0.950 . S
C611 C608 1.387 . S
C612 C613 1.387 . S
C612 H616 0.950 . S
C612 C621 1.390 . S
C613 C612 1.387 . S
C613 C615 1.387 . S
H614 C621 0.950 . S
C615 C613 1.387 . S
C615 C617 1.390 . S
C615 H619 0.936 1_556 S
H616 C612 0.950 . S
C617 C615 1.390 . S
C617 C618 1.387 . S
C617 H620 0.950 1_556 S
C618 C617 1.387 . S
C618 C621 1.387 . S
H619 C615 0.936 1_554 S
H620 C617 0.950 1_554 S
C621 C612 1.390 . S
C621 H614 0.950 . S
C621 C618 1.387 . S
C622 C623 1.387 . S
C622 H626 0.950 . S
C622 C631 1.390 . S
C623 C622 1.387 . S
C623 C625 1.387 . S
H624 C631 0.950 . S
C625 C623 1.387 . S
C625 C627 1.390 . S
C625 H629 0.950 . S
H626 C622 0.950 . S
C627 C625 1.390 . S
C627 C628 1.387 . S
C627 H630 0.950 . S
C628 C627 1.387 . S
C628 C631 1.387 . S
H629 C625 0.950 . S
H630 C627 0.950 . S
C631 C622 1.390 . S
C631 H624 0.950 . S
C631 C628 1.387 . S
C632 C633 1.387 . S
C632 H636 0.950 . S
C632 C641 1.390 . S
C633 C632 1.387 . S
C633 C635 1.387 . S
H634 C641 0.950 . S
C635 C633 1.387 . S
C635 C637 1.390 . S
C635 H639 0.950 . S
H636 C632 0.950 . S
C637 C635 1.390 . S
C637 C638 1.387 . S
C637 H640 0.950 . S
C638 C637 1.387 . S
C638 C641 1.387 . S
H639 C635 0.950 . S
H640 C637 0.950 . S
C641 C632 1.390 . S
C641 H634 0.950 . S
C641 C638 1.387 . S
C642 C643 1.387 . S
C642 H646 0.950 . S
C642 C651 1.390 . S
C643 C642 1.387 . S
C643 C645 1.387 . S
H644 C651 0.950 . S
C645 C643 1.387 . S
C645 C647 1.390 . S
C645 H649 0.950 . S
H646 C642 0.950 . S
C647 C645 1.390 . S
C647 C648 1.387 . S
C647 H650 0.950 . S
C648 C647 1.387 . S
C648 C651 1.387 . S
H649 C645 0.950 . S
H650 C647 0.950 . S
C651 C642 1.390 . S
C651 H644 0.950 . S
C651 C648 1.387 . S
C652 C653 1.387 . S
C652 H656 0.950 . S
C652 C661 1.390 . S
C653 C652 1.387 . S
C653 C655 1.387 . S
H654 C661 0.950 . S
C655 C653 1.387 . S
C655 C657 1.390 . S
C655 H659 0.950 . S
H656 C652 0.950 . S
C657 C655 1.390 . S
C657 C658 1.387 . S
C657 H660 0.950 . S
C658 C657 1.387 . S
C658 C661 1.387 . S
H659 C655 0.950 . S
H660 C657 0.950 . S
C661 C652 1.390 . S
C661 H654 0.950 . S
C661 C658 1.387 . S
C662 C663 1.387 . S
C662 H666 0.950 . S
C662 C671 1.390 . S
C663 C662 1.387 . S
C663 C665 1.387 . S
H664 C671 0.950 . S
C665 C663 1.387 . S
C665 C667 1.390 . S
C665 H669 0.950 . S
H666 C662 0.950 . S
C667 C665 1.390 . S
C667 C668 1.387 . S
C667 H670 0.950 . S
C668 C667 1.387 . S
C668 C671 1.387 . S
H669 C665 0.950 . S
H670 C667 0.950 . S
C671 C662 1.390 . S
C671 H664 0.950 . S
C671 C668 1.387 . S
C672 C673 1.387 . S
C672 H676 0.950 . S
C672 C681 1.390 . S
C673 C672 1.387 . S
C673 C675 1.387 . S
H674 C681 0.950 . S
C675 C673 1.387 . S
C675 C677 1.390 . S
C675 H679 0.950 . S
H676 C672 0.950 . S
C677 C675 1.390 . S
C677 C678 1.387 . S
C677 H680 0.950 . S
C678 C677 1.387 . S
C678 C681 1.387 . S
H679 C675 0.950 . S
H680 C677 0.950 . S
C681 C672 1.390 . S
C681 H674 0.950 . S
C681 C678 1.387 . S
C682 C683 1.387 . S
C682 H686 0.950 . S
C682 C691 1.390 . S
C683 C682 1.387 . S
C683 C685 1.387 . S
H684 C691 0.950 . S
C685 C683 1.387 . S
C685 C687 1.390 . S
C685 H689 0.950 . S
H686 C682 0.950 . S
C687 C685 1.390 . S
C687 C688 1.387 . S
C687 H690 0.950 . S
C688 C687 1.387 . S
C688 C691 1.387 . S
H689 C685 0.950 . S
H690 C687 0.950 . S
C691 C682 1.390 . S
C691 H684 0.950 . S
C691 C688 1.387 . S
C692 C693 1.387 . S
C692 H696 0.950 . S
C692 C701 1.390 . S
C693 C692 1.387 . S
C693 C695 1.387 . S
H694 C701 0.950 . S
C695 C693 1.387 . S
C695 C697 1.390 . S
C695 H699 0.950 . S
H696 C692 0.950 . S
C697 C695 1.390 . S
C697 C698 1.387 . S
C697 H700 0.950 . S
C698 C697 1.387 . S
C698 C701 1.387 . S
H699 C695 0.950 . S
H700 C697 0.950 . S
C701 C692 1.390 . S
C701 H694 0.950 . S
C701 C698 1.387 . S
C702 C703 1.387 . S
C702 H706 0.950 . S
C702 C711 1.390 . S
C703 C702 1.387 . S
C703 C705 1.387 . S
H704 C711 0.950 . S
C705 C703 1.387 . S
C705 C707 1.390 . S
C705 H709 0.950 . S
H706 C702 0.950 . S
C707 C705 1.390 . S
C707 C708 1.387 . S
C707 H710 0.950 . S
C708 C707 1.387 . S
C708 C711 1.387 . S
H709 C705 0.950 . S
H710 C707 0.950 . S
C711 C702 1.390 . S
C711 H704 0.950 . S
C711 C708 1.387 . S
C712 C713 1.387 . S
C712 H716 0.950 . S
C712 C721 1.390 . S
C713 C712 1.387 . S
C713 C715 1.387 . S
H714 C721 0.950 . S
C715 C713 1.387 . S
C715 C717 1.390 . S
C715 H719 0.950 . S
H716 C712 0.950 . S
C717 C715 1.390 . S
C717 C718 1.387 . S
C717 H720 0.950 . S
C718 C717 1.387 . S
C718 C721 1.387 . S
H719 C715 0.950 . S
H720 C717 0.950 . S
C721 C712 1.390 . S
C721 H714 0.950 . S
C721 C718 1.387 . S
C722 C723 1.387 . S
C722 H726 0.950 . S
C722 C731 1.390 . S
C723 C722 1.387 . S
C723 C725 1.387 . S
H724 C731 0.950 . S
C725 C723 1.387 . S
C725 C727 1.390 . S
C725 H729 0.950 . S
H726 C722 0.950 . S
C727 C725 1.390 . S
C727 C728 1.387 . S
C727 H730 0.950 . S
C728 C727 1.387 . S
C728 C731 1.387 . S
H729 C725 0.950 . S
H730 C727 0.950 . S
C731 C722 1.390 . S
C731 H724 0.950 . S
C731 C728 1.387 . S
C732 C733 1.387 . S
C732 H736 0.950 . S
C732 C741 1.390 . S
C733 C732 1.387 . S
C733 C735 1.387 . S
H734 C741 0.950 . S
C735 C733 1.387 . S
C735 C737 1.390 . S
C735 H739 0.950 . S
H736 C732 0.950 . S
C737 C735 1.390 . S
C737 C738 1.387 . S
C737 H740 0.950 . S
C738 C737 1.387 . S
C738 C741 1.387 . S
H739 C735 0.950 . S
H740 C737 0.950 . S
C741 C732 1.390 . S
C741 H734 0.950 . S
C741 C738 1.387 . S
C742 C743 1.387 . S
C742 H746 0.950 . S
C742 C751 1.390 . S
C743 C742 1.387 . S
C743 C745 1.387 . S
H744 C751 0.950 . S
C745 C743 1.387 . S
C745 C747 1.390 . S
C745 H749 0.950 . S
H746 C742 0.950 . S
C747 C745 1.390 . S
C747 C748 1.387 . S
C747 H750 0.950 . S
C748 C747 1.387 . S
C748 C751 1.387 . S
H749 C745 0.950 . S
H750 C747 0.950 . S
C751 C742 1.390 . S
C751 H744 0.950 . S
C751 C748 1.387 . S
C752 C753 1.387 . S
C752 H756 0.950 . S
C752 C761 1.390 . S
C753 C752 1.387 . S
C753 C755 1.387 . S
H754 C761 0.950 . S
C755 C753 1.387 . S
C755 C757 1.390 . S
C755 H759 0.950 . S
H756 C752 0.950 . S
C757 C755 1.390 . S
C757 C758 1.387 . S
C757 H760 0.950 . S
C758 C757 1.387 . S
C758 C761 1.387 . S
H759 C755 0.950 . S
H760 C757 0.950 . S
C761 C752 1.390 . S
C761 H754 0.950 . S
C761 C758 1.387 . S
C762 C763 1.387 . S
C762 H766 0.950 . S
C762 C771 1.390 . S
C763 C762 1.387 . S
C763 C765 1.387 . S
H764 C771 0.950 . S
C765 C763 1.387 . S
C765 C767 1.390 . S
C765 H769 0.950 . S
H766 C762 0.950 . S
C767 C765 1.390 . S
C767 C768 1.387 . S
C767 H770 0.950 . S
C768 C767 1.387 . S
C768 C771 1.387 . S
H769 C765 0.950 . S
H770 C767 0.950 . S
C771 C762 1.390 . S
C771 H764 0.950 . S
C771 C768 1.387 . S
C772 C773 1.387 . S
C772 H776 0.950 . S
C772 C781 1.390 . S
C773 C772 1.387 . S
C773 C775 1.387 . S
H774 C781 0.950 . S
C775 C773 1.387 . S
C775 C777 1.390 . S
C775 H779 0.950 . S
H776 C772 0.950 . S
C777 C775 1.390 . S
C777 C778 1.387 . S
C777 H780 0.950 . S
C778 C777 1.387 . S
C778 C781 1.387 . S
H779 C775 0.950 . S
H780 C777 0.950 . S
C781 C772 1.390 . S
C781 H774 0.950 . S
C781 C778 1.387 . S
C782 C783 1.387 . S
C782 H786 0.950 . S
C782 C791 1.390 . S
C783 C782 1.387 . S
C783 C785 1.387 . S
H784 C791 0.950 . S
C785 C783 1.387 . S
C785 C787 1.390 . S
C785 H789 0.950 . S
H786 C782 0.950 . S
C787 C785 1.390 . S
C787 C788 1.387 . S
C787 H790 0.950 . S
C788 C787 1.387 . S
C788 C791 1.387 . S
H789 C785 0.950 . S
H790 C787 0.950 . S
C791 C782 1.390 . S
C791 H784 0.950 . S
C791 C788 1.387 . S
C478 C384 1.409 . S
C473 C8 1.385 . S
C488 C398 1.407 . S
C483 C61 1.379 . S
C498 C411 1.411 . S
C493 C107 1.381 . S
C503 C139 1.387 . S
C508 C378 1.414 . S
C513 C192 1.393 . S
C518 C371 1.416 . S
C523 C238 1.390 . S
C528 C391 1.416 . S
C538 C399 1.410 . S
C533 C284 1.387 . S
C548 C412 1.412 . S
C543 C330 1.388 . S
C553 C100 1.384 . S
C558 C438 1.408 . S
C568 C456 1.406 . S
C563 C160 1.379 . S
C573 C15 1.381 . S
C578 C463 1.410 . S
C588 C430 1.413 . S
C583 C54 1.388 . S
C593 C291 1.388 . S
C598 C423 1.417 . S
C603 C337 1.387 . S
C608 C437 1.415 . S
C618 C449 1.410 . S
C613 C199 1.383 . S
C623 C245 1.386 . S
C628 C464 1.412 . S
C638 C397 1.742 . S
C633 C1 1.756 . S
C648 C410 1.746 . S
C643 C68 1.747 . S
C653 C114 1.742 . S
C658 C373 1.739 . S
C663 C146 1.750 . S
C668 C385 1.729 . S
C673 C185 1.747 . S
C678 C417 1.724 . S
C688 C372 1.727 . S
C683 C231 1.748 . S
C698 C386 1.741 . S
C693 C277 1.754 . S
C708 C404 1.731 . S
C703 C323 1.752 . S
C718 C451 1.743 . S
C713 C93 1.757 . S
C728 C462 1.746 . S
C723 C153 1.747 . S
C733 C22 1.741 . S
C738 C425 1.738 . S
C748 C443 1.727 . S
C743 C47 1.750 . S
C758 C469 1.723 . S
C753 C298 1.735 . S
C763 C344 1.736 . S
C768 C424 1.726 . S
C778 C436 1.740 . S
C773 C206 1.741 . S
C788 C450 1.728 . S
C783 C252 1.740 . S
