# Generated by pormake.
# Topology apo, (3,6)-cn, num edge types: 1
# Building blocks:
#     Node 0, Type 0, BuildingBlock: VETTIZ_charged_linker_0, # of connection points: 3
#     Node 1, Type 0, BuildingBlock: VETTIZ_charged_linker_0, # of connection points: 3
#     Node 2, Type 0, BuildingBlock: VETTIZ_charged_linker_0, # of connection points: 3
#     Node 3, Type 0, BuildingBlock: VETTIZ_charged_linker_0, # of connection points: 3
#     Node 4, Type 0, BuildingBlock: VETTIZ_charged_linker_0, # of connection points: 3
#     Node 5, Type 0, BuildingBlock: VETTIZ_charged_linker_0, # of connection points: 3
#     Node 6, Type 0, BuildingBlock: VETTIZ_charged_linker_0, # of connection points: 3
#     Node 7, Type 0, BuildingBlock: VETTIZ_charged_linker_0, # of connection points: 3
#     Node 8, Type 1, BuildingBlock: KUMBOL_clean_sbu_1, # of connection points: 6
#     Node 9, Type 1, BuildingBlock: KUMBOL_clean_sbu_1, # of connection points: 6
#     Node 10, Type 1, BuildingBlock: KUMBOL_clean_sbu_1, # of connection points: 6
#     Node 11, Type 1, BuildingBlock: KUMBOL_clean_sbu_1, # of connection points: 6
#     Edge 12, Type (0, 1), BuildingBlock: KIFKEQ_clean_linker_1, # of connection points: 2
#     Edge 13, Type (0, 1), BuildingBlock: KIFKEQ_clean_linker_1, # of connection points: 2
#     Edge 14, Type (0, 1), BuildingBlock: KIFKEQ_clean_linker_1, # of connection points: 2
#     Edge 15, Type (0, 1), BuildingBlock: KIFKEQ_clean_linker_1, # of connection points: 2
#     Edge 16, Type (0, 1), BuildingBlock: KIFKEQ_clean_linker_1, # of connection points: 2
#     Edge 17, Type (0, 1), BuildingBlock: KIFKEQ_clean_linker_1, # of connection points: 2
#     Edge 18, Type (0, 1), BuildingBlock: KIFKEQ_clean_linker_1, # of connection points: 2
#     Edge 19, Type (0, 1), BuildingBlock: KIFKEQ_clean_linker_1, # of connection points: 2
#     Edge 20, Type (0, 1), BuildingBlock: KIFKEQ_clean_linker_1, # of connection points: 2
#     Edge 21, Type (0, 1), BuildingBlock: KIFKEQ_clean_linker_1, # of connection points: 2
#     Edge 22, Type (0, 1), BuildingBlock: KIFKEQ_clean_linker_1, # of connection points: 2
#     Edge 23, Type (0, 1), BuildingBlock: KIFKEQ_clean_linker_1, # of connection points: 2
#     Edge 24, Type (0, 1), BuildingBlock: KIFKEQ_clean_linker_1, # of connection points: 2
#     Edge 25, Type (0, 1), BuildingBlock: KIFKEQ_clean_linker_1, # of connection points: 2
#     Edge 26, Type (0, 1), BuildingBlock: KIFKEQ_clean_linker_1, # of connection points: 2
#     Edge 27, Type (0, 1), BuildingBlock: KIFKEQ_clean_linker_1, # of connection points: 2
#     Edge 28, Type (0, 1), BuildingBlock: KIFKEQ_clean_linker_1, # of connection points: 2
#     Edge 29, Type (0, 1), BuildingBlock: KIFKEQ_clean_linker_1, # of connection points: 2
#     Edge 30, Type (0, 1), BuildingBlock: KIFKEQ_clean_linker_1, # of connection points: 2
#     Edge 31, Type (0, 1), BuildingBlock: KIFKEQ_clean_linker_1, # of connection points: 2
#     Edge 32, Type (0, 1), BuildingBlock: KIFKEQ_clean_linker_1, # of connection points: 2
#     Edge 33, Type (0, 1), BuildingBlock: KIFKEQ_clean_linker_1, # of connection points: 2
#     Edge 34, Type (0, 1), BuildingBlock: KIFKEQ_clean_linker_1, # of connection points: 2
#     Edge 35, Type (0, 1), BuildingBlock: KIFKEQ_clean_linker_1, # of connection points: 2
# Relax obj value: 0.010
# Max RMSD: 0.095
# Mean RMSD: 0.076
data_MOF--net-apo--node1-KUMBOL_clean_sbu_1--node2-VETTIZ_charged_linker_0--edge1-KIFKEQ_clean_linker_1
_symmetry_space_group_name_H-M    P1
_symmetry_Int_Tables_number       1
_symmetry_cell_setting            triclinic
loop_
_symmetry_equiv_pos_as_xyz
'x, y, z'
_cell_length_a     29.508657
_cell_length_b     52.771682
_cell_length_c     64.129879
_cell_angle_alpha  90.074741
_cell_angle_beta   90.071974
_cell_angle_gamma 90.300595
loop_
_atom_site_label
_atom_site_type_symbol
_atom_site_fract_x
_atom_site_fract_y
_atom_site_fract_z
_atom_type_partial_charge
C0 C 0.31187 0.36738 0.4905 0.0
C1 C 0.34069 0.38426 0.5013 0.0
C2 C 0.36091 0.40447 0.49031 0.0
C3 C 0.32364 0.39111 0.45843 0.0
C4 C 0.30425 0.371 0.46904 0.0
C5 C 0.27628 0.35434 0.45479 0.0
H6 H 0.19937 0.32976 0.35679 0.0
C7 C 0.309 0.38972 0.4364 0.0
C8 C 0.28145 0.36807 0.43406 0.0
H9 H 0.17507 0.28561 0.41248 0.0
H10 H 0.21873 0.31574 0.4328 0.0
H11 H 0.17974 0.38257 0.37781 0.0
H12 H 0.30283 0.3422 0.3654 0.0
H13 H 0.31292 0.3741 0.359 0.0
H14 H 0.26933 0.35669 0.34535 0.0
H15 H 0.20486 0.38196 0.35237 0.0
H16 H 0.22014 0.40576 0.37142 0.0
C17 C 0.22669 0.35452 0.46257 0.0
C18 C 0.29808 0.32772 0.45431 0.0
C19 C 0.35725 0.45884 0.38544 0.0
C20 C 0.34787 0.46297 0.36418 0.0
C21 C 0.32072 0.44522 0.35337 0.0
C22 C 0.30314 0.42385 0.36349 0.0
C23 C 0.31259 0.42002 0.38473 0.0
C24 C 0.33915 0.43737 0.39537 0.0
C25 C 0.34516 0.43024 0.41794 0.0
C26 C 0.31758 0.40584 0.41906 0.0
C27 C 0.29882 0.39996 0.39954 0.0
C28 C 0.32427 0.45151 0.43147 0.0
C29 C 0.39629 0.42557 0.42192 0.0
C30 C 0.20279 0.32661 0.3734 0.0
C31 C 0.18354 0.30513 0.38293 0.0
C32 C 0.18992 0.30176 0.4046 0.0
C33 C 0.21517 0.31935 0.41641 0.0
C34 C 0.23441 0.34061 0.40652 0.0
C35 C 0.22765 0.34397 0.38537 0.0
C36 C 0.24975 0.36768 0.37733 0.0
C37 C 0.27176 0.37787 0.39701 0.0
C38 C 0.26286 0.362 0.41414 0.0
C39 C 0.212 0.38548 0.36914 0.0
C40 C 0.28544 0.36 0.36078 0.0
H41 H 0.36876 0.42385 0.46168 0.0
H42 H 0.29626 0.35152 0.49849 0.0
H43 H 0.3357 0.32922 0.45457 0.0
H44 H 0.29006 0.31704 0.43997 0.0
H45 H 0.28752 0.31633 0.46804 0.0
H46 H 0.21681 0.37391 0.46761 0.0
H47 H 0.22224 0.34164 0.47611 0.0
H48 H 0.2021 0.3492 0.45034 0.0
H49 H 0.37769 0.47219 0.39425 0.0
H50 H 0.31353 0.4477 0.33693 0.0
H51 H 0.28294 0.41108 0.3543 0.0
H52 H 0.29221 0.45846 0.42439 0.0
H53 H 0.34781 0.46793 0.43285 0.0
H54 H 0.31476 0.44514 0.44725 0.0
H55 H 0.41336 0.41837 0.40765 0.0
H56 H 0.40241 0.41081 0.4338 0.0
H57 H 0.41392 0.44332 0.42666 0.0
H58 H 0.3829 0.41782 0.49831 0.0
C59 C 0.35247 0.40802 0.46904 0.0
C60 C 0.30404 0.18146 0.8735 0.0
C61 C 0.32455 0.20265 0.88298 0.0
C62 C 0.32135 0.20533 0.90486 0.0
C63 C 0.27881 0.16588 0.90718 0.0
C64 C 0.28199 0.16339 0.88579 0.0
C65 C 0.26018 0.13949 0.8779 0.0
H66 H 0.14757 0.03024 0.89658 0.0
C67 C 0.25422 0.14336 0.91522 0.0
C68 C 0.24368 0.12781 0.89808 0.0
H69 H 0.1902 0.06136 0.83738 0.0
H70 H 0.22309 0.09737 0.8548 0.0
H71 H 0.23871 0.04346 0.9217 0.0
H72 H 0.11291 0.08376 0.91564 0.0
H73 H 0.12927 0.08487 0.94198 0.0
H74 H 0.11788 0.05467 0.92991 0.0
H75 H 0.18845 0.0338 0.93534 0.0
H76 H 0.2271 0.05703 0.94612 0.0
C77 C 0.29736 0.1232 0.86738 0.0
C78 C 0.22034 0.14695 0.86336 0.0
C79 C 0.21722 0.13543 0.99255 0.0
C80 C 0.19625 0.11621 1.00434 0.0
C81 C 0.18224 0.09374 0.99427 0.0
C82 C 0.18807 0.09062 0.97275 0.0
C83 C 0.20834 0.11012 0.96108 0.0
C84 C 0.2233 0.13188 0.97103 0.0
C85 C 0.24619 0.14997 0.95618 0.0
C86 C 0.24094 0.13586 0.93562 0.0
C87 C 0.2184 0.1126 0.9386 0.0
C88 C 0.29654 0.15269 0.96272 0.0
C89 C 0.2196 0.17516 0.95626 0.0
C90 C 0.16438 0.04476 0.88746 0.0
C91 C 0.16617 0.04302 0.86557 0.0
C92 C 0.18787 0.06243 0.85422 0.0
C93 C 0.20714 0.08331 0.8644 0.0
C94 C 0.20469 0.08498 0.88623 0.0
C95 C 0.18356 0.06595 0.89742 0.0
C96 C 0.18337 0.07143 0.92049 0.0
C97 C 0.208 0.09682 0.92123 0.0
C98 C 0.22042 0.10453 0.9011 0.0
C99 C 0.21046 0.05034 0.93166 0.0
C100 C 0.13338 0.07368 0.92758 0.0
H101 H 0.29734 0.19017 0.93352 0.0
H102 H 0.30482 0.17892 0.85675 0.0
H103 H 0.20463 0.16505 0.86847 0.0
H104 H 0.19219 0.13306 0.8636 0.0
H105 H 0.23201 0.14954 0.84704 0.0
H106 H 0.33041 0.12545 0.87557 0.0
H107 H 0.30251 0.12888 0.85088 0.0
H108 H 0.29011 0.10267 0.86801 0.0
H109 H 0.22893 0.15273 0.99994 0.0
H110 H 0.16578 0.07875 1.00301 0.0
H111 H 0.17624 0.07319 0.96601 0.0
H112 H 0.30938 0.13481 0.9697 0.0
H113 H 0.30105 0.16798 0.97448 0.0
H114 H 0.31923 0.15636 0.94936 0.0
H115 H 0.18247 0.1714 0.95582 0.0
H116 H 0.2268 0.18709 0.94254 0.0
H117 H 0.22706 0.1863 0.97057 0.0
H118 H 0.3371 0.2213 0.91267 0.0
C119 C 0.29854 0.18711 0.91698 0.0
C120 C 0.8179 0.1483 0.53328 0.0
C121 C 0.8419 0.13064 0.52115 0.0
C122 C 0.85622 0.10787 0.53052 0.0
C123 C 0.82335 0.12074 0.5635 0.0
C124 C 0.80917 0.14303 0.55432 0.0
C125 C 0.7851 0.16006 0.5695 0.0
H126 H 0.71175 0.1815 0.66808 0.0
C127 C 0.80944 0.12125 0.58566 0.0
C128 C 0.78701 0.14429 0.58927 0.0
H129 H 0.69913 0.23091 0.61469 0.0
H130 H 0.73616 0.19975 0.59299 0.0
H131 H 0.68394 0.13149 0.64489 0.0
H132 H 0.81366 0.16461 0.65898 0.0
H133 H 0.81862 0.13196 0.66352 0.0
H134 H 0.77831 0.1501 0.67838 0.0
H135 H 0.70867 0.12971 0.67041 0.0
H136 H 0.71979 0.10605 0.65071 0.0
C137 C 0.73584 0.1637 0.56175 0.0
C138 C 0.81277 0.18497 0.57157 0.0
C139 C 0.84763 0.04742 0.63372 0.0
C140 C 0.83891 0.04285 0.65498 0.0
C141 C 0.81475 0.06107 0.66652 0.0
C142 C 0.79974 0.08344 0.65718 0.0
C143 C 0.80893 0.08785 0.63601 0.0
C144 C 0.83222 0.06995 0.62458 0.0
C145 C 0.83842 0.07796 0.6022 0.0
C146 C 0.8152 0.10363 0.60221 0.0
C147 C 0.79824 0.10927 0.6221 0.0
C148 C 0.81336 0.05855 0.58812 0.0
C149 C 0.88991 0.08033 0.59788 0.0
C150 C 0.71737 0.18578 0.65176 0.0
C151 C 0.70279 0.20881 0.64315 0.0
C152 C 0.70983 0.21327 0.62171 0.0
C153 C 0.73155 0.19519 0.60915 0.0
C154 C 0.74635 0.17235 0.6181 0.0
C155 C 0.73887 0.16797 0.63906 0.0
C156 C 0.75628 0.14267 0.64599 0.0
C157 C 0.7759 0.13259 0.6258 0.0
C158 C 0.77016 0.15001 0.60949 0.0
C159 C 0.71537 0.12655 0.65356 0.0
C160 C 0.79346 0.14733 0.6627 0.0
H161 H 0.85881 0.08515 0.55772 0.0
H162 H 0.80692 0.16612 0.52666 0.0
H163 H 0.84978 0.18111 0.57099 0.0
H164 H 0.80745 0.19468 0.58661 0.0
H165 H 0.80471 0.19826 0.55869 0.0
H166 H 0.72233 0.14585 0.55481 0.0
H167 H 0.73409 0.17866 0.54961 0.0
H168 H 0.71205 0.16839 0.57444 0.0
H169 H 0.86577 0.03372 0.62436 0.0
H170 H 0.80817 0.05827 0.68297 0.0
H171 H 0.78185 0.09653 0.66692 0.0
H172 H 0.78131 0.05205 0.59558 0.0
H173 H 0.83457 0.04156 0.58528 0.0
H174 H 0.80285 0.06658 0.573 0.0
H175 H 0.9081 0.08786 0.6118 0.0
H176 H 0.89794 0.09383 0.58527 0.0
H177 H 0.90478 0.06161 0.59403 0.0
H178 H 0.87431 0.09382 0.52149 0.0
C179 C 0.84701 0.10282 0.55156 0.0
C180 C 0.78781 0.31735 0.14998 0.0
C181 C 0.80332 0.29469 0.14109 0.0
C182 C 0.7977 0.29082 0.11946 0.0
C183 C 0.7604 0.3316 0.11628 0.0
C184 C 0.76668 0.33537 0.13742 0.0
C185 C 0.74843 0.36027 0.14477 0.0
H186 H 0.64124 0.4702 0.12489 0.0
C187 C 0.73669 0.35414 0.10793 0.0
C188 C 0.72986 0.37094 0.12461 0.0
H189 H 0.69189 0.4421 0.18372 0.0
H190 H 0.71936 0.40455 0.16686 0.0
H191 H 0.7284 0.45171 0.09632 0.0
H192 H 0.59878 0.41786 0.11022 0.0
H193 H 0.61062 0.41131 0.08396 0.0
H194 H 0.60449 0.44378 0.09231 0.0
H195 H 0.67597 0.464 0.08646 0.0
H196 H 0.70589 0.43914 0.07306 0.0
C197 C 0.78868 0.37629 0.15327 0.0
C198 C 0.71035 0.35482 0.16087 0.0
C199 C 0.69056 0.35803 0.03148 0.0
C200 C 0.6666 0.37601 0.01966 0.0
C201 C 0.65282 0.3987 0.02937 0.0
C202 C 0.66222 0.40329 0.05048 0.0
C203 C 0.68546 0.38496 0.06216 0.0
C204 C 0.69942 0.36283 0.05262 0.0
C205 C 0.72317 0.34536 0.06758 0.0
C206 C 0.72082 0.36056 0.08768 0.0
C207 C 0.69874 0.38379 0.08439 0.0
C208 C 0.77259 0.34193 0.06005 0.0
C209 C 0.69553 0.3204 0.06896 0.0
C210 C 0.65867 0.45598 0.134 0.0
C211 C 0.66438 0.459 0.15566 0.0
C212 C 0.6867 0.44002 0.16708 0.0
C213 C 0.70276 0.41824 0.15721 0.0
C214 C 0.69623 0.41518 0.13566 0.0
C215 C 0.67457 0.43383 0.12436 0.0
C216 C 0.66959 0.42671 0.10169 0.0
C217 C 0.69221 0.40086 0.10131 0.0
C218 C 0.70773 0.39436 0.12126 0.0
C219 C 0.69599 0.44642 0.08853 0.0
C220 C 0.61832 0.42494 0.09657 0.0
H221 H 0.77263 0.30506 0.09069 0.0
H222 H 0.79239 0.32119 0.16645 0.0
H223 H 0.6924 0.33673 0.15725 0.0
H224 H 0.68336 0.36925 0.16075 0.0
H225 H 0.7243 0.3532 0.1769 0.0
H226 H 0.8202 0.37247 0.14431 0.0
H227 H 0.79566 0.37181 0.16988 0.0
H228 H 0.78341 0.3969 0.15166 0.0
H229 H 0.70122 0.3403 0.02458 0.0
H230 H 0.63485 0.413 0.02057 0.0
H231 H 0.65075 0.42089 0.05691 0.0
H232 H 0.7862 0.35992 0.05347 0.0
H233 H 0.77463 0.32722 0.04768 0.0
H234 H 0.79609 0.337 0.0728 0.0
H235 H 0.65853 0.32435 0.06885 0.0
H236 H 0.70157 0.30989 0.08355 0.0
H237 H 0.70296 0.30779 0.05553 0.0
H238 H 0.8093 0.27347 0.11222 0.0
C239 C 0.77625 0.30914 0.10701 0.0
C240 C 0.66657 0.55659 0.65038 0.0
C241 C 0.64047 0.5367 0.64194 0.0
C242 C 0.62962 0.53719 0.62051 0.0
C243 C 0.67081 0.57678 0.61643 0.0
C244 C 0.6813 0.57628 0.63742 0.0
C245 C 0.70917 0.59881 0.64403 0.0
H246 H 0.82003 0.70717 0.61978 0.0
C247 C 0.69168 0.59985 0.6074 0.0
C248 C 0.71423 0.61278 0.62348 0.0
H249 H 0.80221 0.67189 0.68018 0.0
H250 H 0.75903 0.63842 0.6646 0.0
H251 H 0.83616 0.6552 0.59351 0.0
H252 H 0.71349 0.69747 0.60467 0.0
H253 H 0.71681 0.68934 0.57806 0.0
H254 H 0.75935 0.70981 0.58926 0.0
H255 H 0.82641 0.68554 0.58171 0.0
H256 H 0.80482 0.6567 0.57019 0.0
C257 C 0.75529 0.58895 0.65223 0.0
C258 C 0.68134 0.6142 0.66017 0.0
C259 C 0.67105 0.61835 0.53046 0.0
C260 C 0.68759 0.63731 0.5171 0.0
C261 C 0.71649 0.65623 0.52531 0.0
C262 C 0.72797 0.65647 0.54662 0.0
C263 C 0.71074 0.63744 0.55983 0.0
C264 C 0.68318 0.61867 0.55155 0.0
C265 C 0.66941 0.59928 0.56747 0.0
C266 C 0.69239 0.60969 0.58682 0.0
C267 C 0.7164 0.63217 0.5824 0.0
C268 C 0.68921 0.57333 0.56081 0.0
C269 C 0.61708 0.59971 0.56941 0.0
C270 C 0.80661 0.69228 0.62964 0.0
C271 C 0.81547 0.6921 0.65128 0.0
C272 C 0.79724 0.67228 0.66345 0.0
C273 C 0.77164 0.65285 0.65438 0.0
C274 C 0.76352 0.6531 0.63283 0.0
C275 C 0.78047 0.67264 0.62077 0.0
C276 C 0.76707 0.66975 0.59814 0.0
C277 C 0.73938 0.6453 0.59876 0.0
C278 C 0.73785 0.63568 0.61916 0.0
C279 C 0.81072 0.6668 0.58504 0.0
C280 C 0.73783 0.69281 0.59201 0.0
H281 H 0.63529 0.55631 0.59158 0.0
H282 H 0.6749 0.55706 0.66683 0.0
H283 H 0.64426 0.61156 0.65777 0.0
H284 H 0.68672 0.63489 0.65874 0.0
H285 H 0.68924 0.60825 0.67637 0.0
H286 H 0.7673 0.57275 0.64262 0.0
H287 H 0.75237 0.58227 0.66859 0.0
H288 H 0.78273 0.60319 0.65129 0.0
H289 H 0.64964 0.60323 0.52454 0.0
H290 H 0.72972 0.67101 0.51528 0.0
H291 H 0.74985 0.67142 0.552 0.0
H292 H 0.72175 0.57577 0.55227 0.0
H293 H 0.66549 0.56293 0.55036 0.0
H294 H 0.69785 0.56114 0.57422 0.0
H295 H 0.6042 0.61946 0.56844 0.0
H296 H 0.60478 0.59252 0.58454 0.0
H297 H 0.60085 0.58861 0.55668 0.0
H298 H 0.60994 0.522 0.61355 0.0
C299 C 0.64463 0.55708 0.60774 0.0
C300 C 0.7083 0.8225 0.14796 0.0
C301 C 0.69293 0.79974 0.13889 0.0
C302 C 0.70004 0.79586 0.11735 0.0
C303 C 0.73764 0.8368 0.1146 0.0
C304 C 0.73059 0.84051 0.13566 0.0
C305 C 0.74996 0.86521 0.14327 0.0
H306 H 0.86651 0.97332 0.12474 0.0
C307 C 0.76216 0.85931 0.10648 0.0
C308 C 0.76952 0.87592 0.12326 0.0
H309 H 0.81273 0.94537 0.18312 0.0
H310 H 0.78164 0.90898 0.1657 0.0
H311 H 0.90204 0.91887 0.10761 0.0
H312 H 0.77676 0.95865 0.09702 0.0
H313 H 0.79346 0.94484 0.07332 0.0
H314 H 0.82909 0.96866 0.08532 0.0
H315 H 0.89925 0.94783 0.09299 0.0
H316 H 0.8889 0.91757 0.08083 0.0
C317 C 0.78736 0.85926 0.15958 0.0
C318 C 0.71038 0.88155 0.15161 0.0
C319 C 0.80209 0.86483 0.02952 0.0
C320 C 0.82324 0.88354 0.01725 0.0
C321 C 0.83849 0.90602 0.02698 0.0
C322 C 0.83294 0.90974 0.04852 0.0
C323 C 0.81168 0.89086 0.06055 0.0
C324 C 0.79651 0.8689 0.05096 0.0
C325 C 0.77368 0.85113 0.06602 0.0
C326 C 0.77765 0.86597 0.08623 0.0
C327 C 0.80022 0.88921 0.083 0.0
C328 C 0.80123 0.82624 0.06673 0.0
C329 C 0.72369 0.8477 0.05913 0.0
C330 C 0.84772 0.95939 0.13367 0.0
C331 C 0.84257 0.9621 0.15542 0.0
C332 C 0.81798 0.94352 0.16647 0.0
C333 C 0.79974 0.92239 0.15628 0.0
C334 C 0.80607 0.91955 0.13471 0.0
C335 C 0.82938 0.93792 0.12368 0.0
C336 C 0.83256 0.93139 0.10079 0.0
C337 C 0.80805 0.90592 0.10011 0.0
C338 C 0.79265 0.89923 0.12007 0.0
C339 C 0.88327 0.92889 0.09505 0.0
C340 C 0.807 0.95195 0.0883 0.0
H341 H 0.72678 0.8101 0.08893 0.0
H342 H 0.70291 0.82641 0.16435 0.0
H343 H 0.67922 0.87857 0.1421 0.0
H344 H 0.71722 0.90212 0.15064 0.0
H345 H 0.70205 0.87656 0.16799 0.0
H346 H 0.80393 0.8408 0.15622 0.0
H347 H 0.77308 0.85814 0.17557 0.0
H348 H 0.81548 0.87317 0.15942 0.0
H349 H 0.78931 0.84752 0.02251 0.0
H350 H 0.85518 0.92066 0.01795 0.0
H351 H 0.84542 0.9272 0.05499 0.0
H352 H 0.83819 0.83022 0.06543 0.0
H353 H 0.79164 0.81344 0.05367 0.0
H354 H 0.79739 0.81594 0.0816 0.0
H355 H 0.70981 0.86578 0.05298 0.0
H356 H 0.70097 0.84246 0.0721 0.0
H357 H 0.72061 0.83323 0.0466 0.0
H358 H 0.68909 0.77843 0.10994 0.0
C359 C 0.72224 0.81424 0.10518 0.0
C360 C 0.16273 0.94755 0.371 0.0
C361 C 0.13879 0.96753 0.38024 0.0
C362 C 0.13048 0.96682 0.4019 0.0
C363 C 0.16827 0.92612 0.40439 0.0
C364 C 0.17703 0.92725 0.38325 0.0
C365 C 0.20252 0.90463 0.3755 0.0
H366 H 0.30346 0.79254 0.39378 0.0
C367 C 0.18728 0.90202 0.41232 0.0
C368 C 0.20747 0.88951 0.39541 0.0
H369 H 0.28935 0.83294 0.33541 0.0
H370 H 0.24943 0.86614 0.35275 0.0
H371 H 0.32429 0.84185 0.42308 0.0
H372 H 0.20057 0.80201 0.40822 0.0
H373 H 0.19797 0.81045 0.43466 0.0
H374 H 0.2418 0.78925 0.42586 0.0
H375 H 0.31224 0.81043 0.43232 0.0
H376 H 0.29297 0.83805 0.44621 0.0
C377 C 0.249 0.91398 0.36711 0.0
C378 C 0.17238 0.89072 0.3592 0.0
C379 C 0.16627 0.87684 0.48833 0.0
C380 C 0.17832 0.85512 0.49975 0.0
C381 C 0.20339 0.83595 0.48973 0.0
C382 C 0.21562 0.83814 0.46869 0.0
C383 C 0.20252 0.85968 0.45738 0.0
C384 C 0.17849 0.87866 0.46724 0.0
C385 C 0.16694 0.90001 0.45264 0.0
C386 C 0.18751 0.89057 0.43239 0.0
C387 C 0.20844 0.86693 0.43527 0.0
C388 C 0.19076 0.92438 0.46061 0.0
C389 C 0.11468 0.90196 0.45127 0.0
C390 C 0.29156 0.80849 0.38473 0.0
C391 C 0.30043 0.81016 0.36316 0.0
C392 C 0.28426 0.83135 0.35208 0.0
C393 C 0.26059 0.85062 0.36219 0.0
C394 C 0.25235 0.84883 0.38368 0.0
C395 C 0.26742 0.82798 0.39462 0.0
C396 C 0.25414 0.82922 0.41732 0.0
C397 C 0.22931 0.85443 0.41812 0.0
C398 C 0.22859 0.86572 0.39835 0.0
C399 C 0.29799 0.82976 0.43058 0.0
C400 C 0.2222 0.80653 0.42197 0.0
H401 H 0.13734 0.94659 0.43037 0.0
H402 H 0.17049 0.94772 0.35449 0.0
H403 H 0.13575 0.89302 0.36281 0.0
H404 H 0.17755 0.86999 0.35907 0.0
H405 H 0.17815 0.89828 0.34326 0.0
H406 H 0.26186 0.93036 0.37638 0.0
H407 H 0.24631 0.92023 0.35063 0.0
H408 H 0.2759 0.89959 0.36839 0.0
H409 H 0.14667 0.8918 0.49548 0.0
H410 H 0.2137 0.81921 0.49822 0.0
H411 H 0.23458 0.82287 0.462 0.0
H412 H 0.22473 0.91996 0.46718 0.0
H413 H 0.17064 0.93362 0.47309 0.0
H414 H 0.19738 0.93824 0.44809 0.0
H415 H 0.09887 0.88277 0.45105 0.0
H416 H 0.10289 0.91118 0.43684 0.0
H417 H 0.1008 0.91237 0.46489 0.0
H418 H 0.112 0.98199 0.40939 0.0
C419 C 0.14503 0.9462 0.41402 0.0
C420 C 0.21367 0.68422 0.87134 0.0
C421 C 0.19914 0.70736 0.87977 0.0
C422 C 0.20742 0.71238 0.90107 0.0
C423 C 0.24341 0.67132 0.90502 0.0
C424 C 0.23542 0.66664 0.88413 0.0
C425 C 0.2526 0.64127 0.87728 0.0
H426 H 0.36109 0.53216 0.89863 0.0
C427 C 0.2668 0.64889 0.91376 0.0
C428 C 0.27211 0.6313 0.89751 0.0
H429 H 0.30445 0.55747 0.84003 0.0
H430 H 0.27805 0.59552 0.85631 0.0
H431 H 0.40273 0.58717 0.91259 0.0
H432 H 0.27645 0.54965 0.92685 0.0
H433 H 0.29485 0.56508 0.94963 0.0
H434 H 0.32898 0.54018 0.93854 0.0
H435 H 0.39938 0.55935 0.92863 0.0
H436 H 0.39212 0.59057 0.93945 0.0
C437 C 0.28983 0.64574 0.86059 0.0
C438 C 0.21148 0.62523 0.86974 0.0
C439 C 0.31365 0.64698 0.99021 0.0
C440 C 0.3359 0.62883 1.0026 0.0
C441 C 0.3484 0.6056 0.99336 0.0
C442 C 0.33958 0.60067 0.97223 0.0
C443 C 0.31792 0.61911 0.96005 0.0
C444 C 0.30498 0.64173 0.96911 0.0
C445 C 0.28186 0.659 0.95379 0.0
C446 C 0.28321 0.64307 0.93406 0.0
C447 C 0.30459 0.61973 0.93779 0.0
C448 C 0.31064 0.68349 0.95172 0.0
C449 C 0.23275 0.66343 0.96138 0.0
C450 C 0.3431 0.546 0.88936 0.0
C451 C 0.33469 0.5417 0.86799 0.0
C452 C 0.31077 0.56006 0.85654 0.0
C453 C 0.29571 0.58232 0.86602 0.0
C454 C 0.30455 0.58648 0.88727 0.0
C455 C 0.32755 0.56845 0.89867 0.0
C456 C 0.3331 0.57623 0.92118 0.0
C457 C 0.31023 0.60203 0.92123 0.0
C458 C 0.29382 0.60784 0.90128 0.0
C459 C 0.38444 0.57834 0.92592 0.0
C460 C 0.30739 0.55679 0.93492 0.0
H461 H 0.23456 0.69934 0.92983 0.0
H462 H 0.20872 0.67988 0.85498 0.0
H463 H 0.18023 0.63018 0.87852 0.0
H464 H 0.21583 0.60471 0.87247 0.0
H465 H 0.20449 0.62846 0.85293 0.0
H466 H 0.30928 0.66343 0.86388 0.0
H467 H 0.27483 0.64759 0.84478 0.0
H468 H 0.31572 0.6307 0.86033 0.0
H469 H 0.30393 0.66513 0.99664 0.0
H470 H 0.36481 0.59106 1.00252 0.0
H471 H 0.3501 0.58268 0.9662 0.0
H472 H 0.34745 0.67904 0.9521 0.0
H473 H 0.30358 0.69683 0.96471 0.0
H474 H 0.30529 0.69336 0.93677 0.0
H475 H 0.21826 0.64581 0.96822 0.0
H476 H 0.20936 0.66853 0.94863 0.0
H477 H 0.23166 0.67841 0.97355 0.0
H478 H 0.19633 0.73 0.90802 0.0
C479 C 0.2294 0.69448 0.91374 0.0
C480 C 0.84837 0.12759 0.26152 0.0
C481 C 0.84269 0.08183 0.26481 0.0
C482 C 0.86684 0.10465 0.26788 0.0
C483 C 0.79986 0.08236 0.25525 0.0
C484 C 0.80531 0.12819 0.25199 0.0
C485 C 0.78122 0.10546 0.24886 0.0
N486 N 0.87274 0.14926 0.26442 0.0
C487 C 0.85542 0.1722 0.25892 0.0
C488 C 0.78778 0.15163 0.24582 0.0
C489 C 0.81287 0.17374 0.24941 0.0
Gd490 Gd 0.05853 0.14301 0.24527 0.0
Gd491 Gd 0.94415 0.1445 0.27984 0.0
N492 N 0.90913 0.10462 0.27642 0.0
C493 C 0.86245 0.05912 0.27135 0.0
C494 C 0.92767 0.0827 0.28363 0.0
C495 C 0.90493 0.0596 0.28097 0.0
H496 H 0.95976 0.08288 0.29155 0.0
H497 H 0.92009 0.0422 0.28644 0.0
H498 H 0.03725 0.20481 0.23599 0.0
H499 H 0.87406 0.18937 0.26226 0.0
H500 H 0.07407 0.2461 0.24205 0.0
H501 H 0.84501 0.04118 0.26924 0.0
H502 H 0.78087 0.065 0.2527 0.0
H503 H 0.13182 0.09917 0.2615 0.0
H504 H 0.75482 0.15288 0.23844 0.0
H505 H 0.79934 0.19198 0.24496 0.0
H506 H 0.21708 0.22509 0.27307 0.0
H507 H 0.74814 0.10555 0.24151 0.0
H508 H 0.25048 0.13733 0.2842 0.0
H509 H 0.20804 0.09757 0.27747 0.0
N510 N 0.13093 0.13933 0.25976 0.0
C511 C 0.15389 0.1614 0.26297 0.0
C512 C 0.14985 0.1166 0.26468 0.0
C513 C 0.21701 0.13813 0.27727 0.0
C514 C 0.19312 0.11564 0.27355 0.0
C515 C 0.1975 0.16139 0.27197 0.0
H516 H 0.25356 0.18487 0.28246 0.0
N517 N 0.09045 0.18356 0.24967 0.0
C518 C 0.13324 0.18415 0.25766 0.0
C519 C 0.13392 0.22987 0.25576 0.0
C520 C 0.15581 0.20737 0.26122 0.0
C521 C 0.06977 0.20536 0.24351 0.0
C522 C 0.09089 0.22883 0.2467 0.0
O523 O 0.94204 0.12392 0.24861 0.0
O524 O 0.01394 0.10829 0.24373 0.0
O525 O 0.06634 0.15481 0.2131 0.0
O526 O 0.10422 0.12279 0.22447 0.0
O527 O 0.00591 0.12461 0.29296 0.0
O528 O 0.0481 0.10852 0.2655 0.0
O529 O 0.06128 0.16103 0.27745 0.0
O530 O 0.99083 0.17844 0.28185 0.0
O531 O 0.94053 0.13593 0.31295 0.0
O532 O 0.89444 0.16309 0.29945 0.0
O533 O 0.99468 0.16039 0.23199 0.0
O534 O 0.9576 0.17863 0.25974 0.0
C535 C 0.97007 0.10741 0.24041 0.0
C536 C 0.03542 0.10845 0.28522 0.0
C537 C 0.07986 0.12204 0.18931 0.0
C538 C 0.08546 0.11499 0.15177 0.0
C539 C 0.02773 0.09311 0.172 0.0
C540 C 0.04324 0.10507 0.19005 0.0
C541 C 0.04849 0.09814 0.15292 0.0
C542 C 0.10134 0.1268 0.17012 0.0
C543 C 0.09308 0.13617 0.20821 0.0
C544 C 0.19927 0.20742 0.27018 0.0
C545 C 0.22006 0.1845 0.27552 0.0
H546 H 0.1501 0.2481 0.25827 0.0
C547 C 0.03413 0.17736 0.28646 0.0
C548 C 0.96593 0.17692 0.23965 0.0
C549 C 0.91726 0.16968 0.33439 0.0
C550 C 0.91682 0.17704 0.37204 0.0
C551 C 0.94377 0.20984 0.34838 0.0
C552 C 0.93476 0.19414 0.33134 0.0
C553 C 0.93499 0.20139 0.36861 0.0
C554 C 0.90813 0.16123 0.35474 0.0
C555 C 0.90918 0.15267 0.31654 0.0
H556 H 0.99928 0.0801 0.17277 0.0
H557 H 0.02631 0.10139 0.20457 0.0
H558 H 0.03586 0.08872 0.13904 0.0
H559 H 0.12934 0.14015 0.16936 0.0
H560 H 0.95738 0.22869 0.3459 0.0
H561 H 0.94125 0.20106 0.31577 0.0
H562 H 0.94164 0.21409 0.38155 0.0
H563 H 0.89478 0.14227 0.3571 0.0
C564 C 0.65234 0.37897 0.75953 0.0
C565 C 0.65778 0.4249 0.76051 0.0
C566 C 0.63362 0.40233 0.76455 0.0
C567 C 0.70091 0.42369 0.75134 0.0
C568 C 0.69572 0.37768 0.75041 0.0
C569 C 0.71982 0.40015 0.74631 0.0
N570 N 0.62803 0.35755 0.76344 0.0
C571 C 0.64562 0.33423 0.75932 0.0
C572 C 0.71354 0.35382 0.74565 0.0
C573 C 0.68846 0.332 0.75023 0.0
Gd574 Gd 0.44126 0.36028 0.74335 0.0
Gd575 Gd 0.55603 0.3634 0.77791 0.0
N576 N 0.59108 0.40295 0.77274 0.0
C577 C 0.63771 0.44804 0.7657 0.0
C578 C 0.57209 0.42538 0.77856 0.0
C579 C 0.59485 0.44826 0.77491 0.0
H580 H 0.53946 0.42579 0.78599 0.0
H581 H 0.57937 0.46604 0.77927 0.0
H582 H 0.47096 0.3039 0.72144 0.0
H583 H 0.62693 0.31734 0.76344 0.0
H584 H 0.45018 0.25905 0.72481 0.0
H585 H 0.65515 0.46582 0.76281 0.0
H586 H 0.71992 0.44084 0.74806 0.0
H587 H 0.36224 0.39272 0.76891 0.0
H588 H 0.74673 0.35203 0.73861 0.0
H589 H 0.7022 0.31346 0.74687 0.0
H590 H 0.31981 0.25962 0.76929 0.0
H591 H 0.75314 0.39953 0.73925 0.0
H592 H 0.26494 0.33992 0.79309 0.0
H593 H 0.29241 0.38403 0.78903 0.0
N594 N 0.37388 0.35399 0.76183 0.0
C595 C 0.35902 0.32965 0.7635 0.0
C596 C 0.35046 0.37344 0.77067 0.0
C597 C 0.29542 0.34365 0.78418 0.0
C598 C 0.31089 0.36857 0.78198 0.0
C599 C 0.31954 0.32381 0.77492 0.0
H600 H 0.27574 0.29355 0.78585 0.0
N601 N 0.42292 0.31672 0.74377 0.0
C602 C 0.38451 0.31047 0.75443 0.0
C603 C 0.39513 0.26628 0.74595 0.0
C604 C 0.37018 0.28501 0.75616 0.0
C605 C 0.44479 0.29876 0.73229 0.0
C606 C 0.43205 0.27325 0.73362 0.0
O607 O 0.55667 0.38328 0.7465 0.0
O608 O 0.48316 0.39574 0.7398 0.0
O609 O 0.43075 0.35466 0.71003 0.0
O610 O 0.38399 0.3775 0.72761 0.0
O611 O 0.49489 0.3849 0.78984 0.0
O612 O 0.44815 0.39633 0.76213 0.0
O613 O 0.44141 0.34686 0.77692 0.0
O614 O 0.51114 0.32883 0.78014 0.0
O615 O 0.55497 0.37246 0.811 0.0
O616 O 0.60681 0.34784 0.79873 0.0
O617 O 0.50682 0.3447 0.7301 0.0
O618 O 0.54369 0.3284 0.75866 0.0
C619 C 0.52706 0.39778 0.73696 0.0
C620 C 0.46283 0.39902 0.78149 0.0
C621 C 0.39901 0.38983 0.69282 0.0
C622 C 0.39665 0.40182 0.65591 0.0
C623 C 0.41116 0.43364 0.68271 0.0
C624 C 0.40793 0.41517 0.69816 0.0
C625 C 0.40546 0.42711 0.66179 0.0
C626 C 0.39337 0.38322 0.67167 0.0
C627 C 0.39666 0.37016 0.70916 0.0
C628 C 0.33107 0.27909 0.76768 0.0
C629 C 0.30584 0.29842 0.77703 0.0
H630 H 0.3852 0.24651 0.74687 0.0
C631 C 0.46824 0.32998 0.78528 0.0
C632 C 0.53718 0.32954 0.73842 0.0
C633 C 0.58191 0.34027 0.83311 0.0
C634 C 0.58472 0.33218 0.87061 0.0
C635 C 0.55687 0.29971 0.84676 0.0
C636 C 0.56463 0.31579 0.82987 0.0
C637 C 0.5667 0.30782 0.86701 0.0
C638 C 0.59215 0.34838 0.85347 0.0
C639 C 0.58875 0.35757 0.81539 0.0
H640 H 0.41799 0.45315 0.68699 0.0
H641 H 0.41234 0.42072 0.7143 0.0
H642 H 0.40738 0.442 0.65022 0.0
H643 H 0.38718 0.36359 0.66753 0.0
H644 H 0.54344 0.28084 0.84414 0.0
H645 H 0.55739 0.30914 0.81427 0.0
H646 H 0.561 0.29484 0.87982 0.0
H647 H 0.60539 0.36734 0.85597 0.0
C648 C 0.86287 0.83018 0.76071 0.0
C649 C 0.87302 0.78589 0.76956 0.0
C650 C 0.88852 0.81122 0.76998 0.0
C651 C 0.83256 0.77981 0.75908 0.0
C652 C 0.82195 0.82421 0.75042 0.0
C653 C 0.8071 0.79891 0.74954 0.0
N654 N 0.87861 0.85442 0.76134 0.0
C655 C 0.85478 0.87368 0.75249 0.0
C656 C 0.79743 0.84384 0.74111 0.0
C657 C 0.81386 0.8687 0.74222 0.0
Gd658 Gd 0.05943 0.86207 0.74163 0.0
Gd659 Gd 0.94799 0.8609 0.77822 0.0
N660 N 0.92805 0.81762 0.77972 0.0
C661 C 0.89818 0.76748 0.78006 0.0
C662 C 0.95028 0.80012 0.7915 0.0
C663 C 0.93647 0.77473 0.79142 0.0
H664 H 0.97763 0.80561 0.80164 0.0
H665 H 0.95486 0.76086 0.80047 0.0
H666 H 0.04212 0.9241 0.73194 0.0
H667 H 0.86725 0.89291 0.75344 0.0
H668 H 0.08245 0.9646 0.7368 0.0
H669 H 0.8874 0.74782 0.78013 0.0
H670 H 0.82038 0.76042 0.75846 0.0
H671 H 0.1314 0.81673 0.75669 0.0
H672 H 0.76583 0.84003 0.73305 0.0
H673 H 0.79505 0.884 0.73515 0.0
H674 H 0.22558 0.94089 0.76633 0.0
H675 H 0.77588 0.79393 0.74158 0.0
H676 H 0.25325 0.85264 0.7782 0.0
H677 H 0.20802 0.81371 0.77206 0.0
N678 N 0.13254 0.85692 0.75518 0.0
C679 C 0.15716 0.87852 0.75795 0.0
C680 C 0.15043 0.83383 0.75985 0.0
C681 C 0.21948 0.85408 0.77167 0.0
C682 C 0.19401 0.83206 0.76829 0.0
C683 C 0.20127 0.87768 0.7664 0.0
H684 H 0.25957 0.90005 0.77588 0.0
N685 N 0.09474 0.90187 0.74506 0.0
C686 C 0.13797 0.90162 0.75252 0.0
C687 C 0.14192 0.94725 0.74991 0.0
C688 C 0.16245 0.92437 0.75545 0.0
C689 C 0.07527 0.92402 0.73888 0.0
C690 C 0.0983 0.94704 0.74144 0.0
O691 O 0.94482 0.84548 0.74516 0.0
O692 O 0.01441 0.82745 0.74105 0.0
O693 O 0.05547 0.86922 0.70827 0.0
O694 O 0.1092 0.84598 0.72062 0.0
O695 O 0.01432 0.84528 0.79057 0.0
O696 O 0.04902 0.82774 0.7619 0.0
O697 O 0.06332 0.88293 0.77262 0.0
O698 O 0.99071 0.89625 0.77978 0.0
O699 O 0.94279 0.85803 0.81195 0.0
O700 O 0.89385 0.88006 0.79483 0.0
O701 O 0.9973 0.88314 0.73008 0.0
O702 O 0.95385 0.896 0.75841 0.0
C703 C 0.97097 0.82821 0.73682 0.0
C704 C 0.04351 0.82947 0.78219 0.0
C705 C 0.08253 0.83623 0.68689 0.0
C706 C 0.08573 0.82565 0.64976 0.0
C707 C 0.05957 0.79443 0.67507 0.0
C708 C 0.06644 0.81177 0.6912 0.0
C709 C 0.06918 0.80124 0.65451 0.0
C710 C 0.09213 0.84314 0.66619 0.0
C711 C 0.0896 0.85458 0.70391 0.0
C712 C 0.20634 0.92359 0.76391 0.0
C713 C 0.22568 0.90032 0.76937 0.0
H714 H 0.15957 0.96514 0.75196 0.0
C715 C 0.03474 0.89792 0.78229 0.0
C716 C 0.96641 0.89781 0.73872 0.0
C717 C 0.86929 0.86049 0.82615 0.0
C718 C 0.8368 0.8545 0.86095 0.0
C719 C 0.7994 0.83669 0.8303 0.0
C720 C 0.83336 0.84652 0.81749 0.0
C721 C 0.80093 0.84067 0.85183 0.0
C722 C 0.87097 0.86436 0.84785 0.0
C723 C 0.90553 0.87104 0.81291 0.0
H724 H 0.0472 0.77556 0.67853 0.0
H725 H 0.05965 0.80607 0.70708 0.0
H726 H 0.06453 0.78717 0.64237 0.0
H727 H 0.10431 0.86213 0.66291 0.0
H728 H 0.77161 0.82604 0.82351 0.0
H729 H 0.83138 0.84329 0.80086 0.0
H730 H 0.77361 0.83319 0.86129 0.0
H731 H 0.89924 0.87481 0.8545 0.0
C732 C 0.64618 0.66835 0.25316 0.0
C733 C 0.64957 0.7136 0.25998 0.0
C734 C 0.6282 0.68983 0.26237 0.0
C735 C 0.68822 0.71565 0.24733 0.0
C736 C 0.68617 0.67016 0.24121 0.0
C737 C 0.7064 0.69399 0.23792 0.0
N738 N 0.62609 0.64554 0.25688 0.0
C739 C 0.6471 0.62367 0.25097 0.0
C740 C 0.70551 0.64787 0.23354 0.0
C741 C 0.68635 0.6245 0.23879 0.0
Gd742 Gd 0.44871 0.63895 0.23811 0.0
Gd743 Gd 0.55817 0.64681 0.27623 0.0
N744 N 0.59 0.6874 0.27398 0.0
C745 C 0.63158 0.73452 0.27052 0.0
C746 C 0.57341 0.70739 0.28507 0.0
C747 C 0.59366 0.73133 0.28334 0.0
H748 H 0.54411 0.70485 0.29496 0.0
H749 H 0.57997 0.74729 0.29181 0.0
H750 H 0.47755 0.59207 0.20481 0.0
H751 H 0.63436 0.60546 0.25591 0.0
H752 H 0.46208 0.54646 0.20022 0.0
H753 H 0.64704 0.75311 0.2691 0.0
H754 H 0.70473 0.73382 0.24502 0.0
H755 H 0.36549 0.6619 0.26732 0.0
H756 H 0.7362 0.64845 0.22429 0.0
H757 H 0.70221 0.60709 0.23375 0.0
H758 H 0.34051 0.52956 0.24799 0.0
H759 H 0.73684 0.69577 0.22859 0.0
H760 H 0.27777 0.60045 0.28474 0.0
H761 H 0.29788 0.64605 0.28622 0.0
N762 N 0.38338 0.62559 0.25575 0.0
C763 C 0.37173 0.60078 0.25389 0.0
C764 C 0.35677 0.64201 0.26664 0.0
C765 C 0.30725 0.60734 0.27639 0.0
C766 C 0.31853 0.63309 0.27729 0.0
C767 C 0.33375 0.59085 0.26445 0.0
H768 H 0.29467 0.55684 0.27081 0.0
N769 N 0.43258 0.59616 0.23041 0.0
C770 C 0.3977 0.58548 0.24114 0.0
C771 C 0.41084 0.54533 0.22412 0.0
C772 C 0.38617 0.55971 0.23847 0.0
C773 C 0.45387 0.58281 0.21508 0.0
C774 C 0.44425 0.55709 0.21207 0.0
O775 O 0.53825 0.67749 0.2532 0.0
O776 O 0.51427 0.65423 0.22538 0.0
O777 O 0.41305 0.63593 0.20841 0.0
O778 O 0.41172 0.67099 0.22573 0.0
O779 O 0.49217 0.66283 0.288 0.0
O780 O 0.45038 0.67399 0.25865 0.0
O781 O 0.44669 0.62483 0.27155 0.0
O782 O 0.51855 0.61021 0.27714 0.0
O783 O 0.55225 0.65048 0.30988 0.0
O784 O 0.6145 0.63693 0.29642 0.0
O785 O 0.51582 0.62297 0.22695 0.0
O786 O 0.55406 0.61079 0.25679 0.0
C787 C 0.53492 0.67418 0.23299 0.0
C788 C 0.46091 0.67646 0.27859 0.0
C789 C 0.41772 0.67385 0.1889 0.0
C790 C 0.41975 0.67745 0.1508 0.0
C791 C 0.46113 0.70762 0.17247 0.0
C792 C 0.44622 0.69523 0.1904 0.0
C793 C 0.44806 0.69887 0.15284 0.0
C794 C 0.40441 0.66512 0.16902 0.0
C795 C 0.40357 0.65996 0.20791 0.0
C796 C 0.34956 0.54939 0.24966 0.0
C797 C 0.32335 0.56494 0.2626 0.0
H798 H 0.4031 0.52547 0.22161 0.0
C799 C 0.47463 0.60848 0.27998 0.0
C800 C 0.54462 0.60815 0.23678 0.0
C801 C 0.59383 0.62093 0.32936 0.0
C802 C 0.60584 0.60815 0.3656 0.0
C803 C 0.58614 0.57677 0.33911 0.0
C804 C 0.58466 0.59567 0.32395 0.0
C805 C 0.59681 0.58287 0.35975 0.0
C806 C 0.6042 0.62712 0.35015 0.0
C807 C 0.59205 0.641 0.31352 0.0
H808 H 0.48312 0.72403 0.17381 0.0
H809 H 0.45739 0.70235 0.2054 0.0
H810 H 0.45988 0.70904 0.13922 0.0
H811 H 0.38311 0.64839 0.16776 0.0
H812 H 0.57919 0.55728 0.33483 0.0
H813 H 0.57652 0.5906 0.308 0.0
H814 H 0.59851 0.56769 0.37106 0.0
H815 H 0.61034 0.64677 0.35427 0.0
H816 H 0.14299 0.0185 0.38846 0.0
H817 H 0.09791 0.9644 0.3422 0.0
H818 H 0.12014 0.05322 0.36559 0.0
H819 H 0.07481 0.99891 0.31948 0.0
H820 H 0.0816 0.06527 0.27489 0.0
H821 H 0.10782 0.03205 0.29828 0.0
H822 H 0.05334 0.07301 0.35089 0.0
H823 H 0.02859 0.10661 0.32766 0.0
C824 C 0.12773 0.01404 0.37352 0.0
C825 C 0.12252 0.98874 0.36708 0.0
C826 C 0.11471 0.0339 0.3604 0.0
C827 C 0.09606 0.02884 0.3406 0.0
C828 C 0.09004 0.0035 0.3344 0.0
C829 C 0.10312 0.98372 0.34746 0.0
C830 C 0.07584 0.06739 0.29147 0.0
C831 C 0.05318 0.08867 0.29937 0.0
C832 C 0.0904 0.0482 0.30487 0.0
C833 C 0.08248 0.04981 0.32647 0.0
C834 C 0.06044 0.07129 0.33439 0.0
C835 C 0.04595 0.09048 0.32101 0.0
H836 H 0.28958 0.51185 0.8399 0.0
H837 H 0.41815 0.51969 0.87156 0.0
H838 H 0.31949 0.47666 0.81958 0.0
H839 H 0.44828 0.48454 0.85112 0.0
H840 H 0.4055 0.4372 0.76973 0.0
H841 H 0.37367 0.47041 0.79164 0.0
H842 H 0.44244 0.43927 0.84524 0.0
H843 H 0.47481 0.40636 0.82336 0.0
C844 C 0.32427 0.50603 0.84252 0.0
C845 C 0.35162 0.51867 0.85723 0.0
C846 C 0.34146 0.48592 0.83082 0.0
C847 C 0.38644 0.47795 0.83354 0.0
C848 C 0.41336 0.49005 0.84875 0.0
C849 C 0.3961 0.51017 0.8605 0.0
C850 C 0.4137 0.43736 0.7862 0.0
C851 C 0.44274 0.41908 0.79474 0.0
C852 C 0.39528 0.45635 0.79879 0.0
C853 C 0.40545 0.45749 0.82023 0.0
C854 C 0.43436 0.43915 0.82876 0.0
C855 C 0.45278 0.4202 0.81618 0.0
H856 H 0.55708 0.51373 0.64197 0.0
H857 H 0.68755 0.51216 0.67259 0.0
H858 H 0.53042 0.47968 0.6646 0.0
H859 H 0.66034 0.47879 0.69573 0.0
H860 H 0.61018 0.401 0.71837 0.0
H861 H 0.63807 0.43421 0.69523 0.0
H862 H 0.51064 0.47353 0.70118 0.0
H863 H 0.48304 0.44051 0.72449 0.0
C864 C 0.58013 0.50605 0.65347 0.0
C865 C 0.62442 0.51568 0.65548 0.0
C866 C 0.56469 0.48675 0.6666 0.0
C867 C 0.5932 0.47661 0.68203 0.0
C868 C 0.63765 0.48604 0.6839 0.0
C869 C 0.65307 0.50536 0.67078 0.0
C870 C 0.58823 0.41681 0.71484 0.0
C871 C 0.54421 0.41801 0.7231 0.0
C872 C 0.60423 0.43585 0.70158 0.0
C873 C 0.57647 0.45643 0.69625 0.0
C874 C 0.53257 0.45768 0.70465 0.0
C875 C 0.51669 0.43873 0.71798 0.0
H876 H 0.88927 0.96047 0.19205 0.0
H877 H 0.84241 0.01257 0.14495 0.0
H878 H 0.91916 0.99576 0.2124 0.0
H879 H 0.87347 0.04808 0.1652 0.0
H880 H 0.8885 0.10523 0.22003 0.0
H881 H 0.85844 0.07038 0.19888 0.0
H882 H 0.97985 0.02736 0.21082 0.0
H883 H 0.00929 0.06181 0.23232 0.0
C884 C 0.88544 0.9795 0.18602 0.0
C885 C 0.86321 0.98374 0.16694 0.0
C886 C 0.90293 0.99972 0.1976 0.0
C887 C 0.89864 0.02474 0.19044 0.0
C888 C 0.87688 0.02903 0.17123 0.0
C889 C 0.85955 0.00871 0.15953 0.0
C890 C 0.9086 0.08825 0.21823 0.0
C891 C 0.95127 0.08626 0.22784 0.0
C892 C 0.89159 0.06841 0.20594 0.0
C893 C 0.91683 0.04614 0.20311 0.0
C894 C 0.95938 0.04416 0.21284 0.0
C895 C 0.97635 0.06396 0.22507 0.0
H896 H 0.92188 0.02039 0.65085 0.0
H897 H 0.7939 0.01285 0.68293 0.0
H898 H 0.95144 0.98438 0.67036 0.0
H899 H 0.82337 0.97687 0.70239 0.0
H900 H 0.91075 0.93633 0.7512 0.0
H901 H 0.87888 0.96998 0.72991 0.0
H902 H 0.9438 0.93868 0.67538 0.0
H903 H 0.9762 0.90514 0.69668 0.0
C904 C 0.89983 0.01079 0.66182 0.0
C905 C 0.85567 0.01961 0.66546 0.0
C906 C 0.91677 0.99017 0.67302 0.0
C907 C 0.88989 0.97789 0.68807 0.0
C908 C 0.84527 0.98623 0.69122 0.0
C909 C 0.82836 0.00682 0.68004 0.0
C910 C 0.91805 0.93648 0.73466 0.0
C911 C 0.94602 0.91797 0.72569 0.0
C912 C 0.8996 0.95575 0.72242 0.0
C913 C 0.90871 0.95699 0.70092 0.0
C914 C 0.93653 0.93842 0.69193 0.0
C915 C 0.95494 0.91913 0.70416 0.0
H916 H 0.6126 0.45963 0.19063 0.0
H917 H 0.67631 0.50893 0.14562 0.0
H918 H 0.5859 0.4963 0.21001 0.0
H919 H 0.65107 0.5459 0.16541 0.0
H920 H 0.55798 0.60556 0.19476 0.0
H921 H 0.58666 0.56988 0.17473 0.0
H922 H 0.61192 0.52917 0.23202 0.0
H923 H 0.58065 0.56433 0.25191 0.0
C924 C 0.62111 0.47841 0.18499 0.0
C925 C 0.6466 0.4815 0.16669 0.0
C926 C 0.60614 0.49945 0.19617 0.0
C927 C 0.61676 0.52414 0.18946 0.0
C928 C 0.64184 0.5272 0.17095 0.0
C929 C 0.65637 0.50607 0.1596 0.0
C930 C 0.56959 0.58893 0.20304 0.0
C931 C 0.5664 0.58755 0.22487 0.0
C932 C 0.58646 0.56855 0.19157 0.0
C933 C 0.60123 0.54646 0.2017 0.0
C934 C 0.59985 0.5456 0.22364 0.0
C935 C 0.58245 0.56588 0.23509 0.0
H936 H 0.30401 0.49372 0.33654 0.0
H937 H 0.43344 0.48313 0.36674 0.0
H938 H 0.3352 0.52928 0.31688 0.0
H939 H 0.46435 0.51922 0.34746 0.0
H940 H 0.51493 0.56359 0.28962 0.0
H941 H 0.48457 0.52931 0.31105 0.0
H942 H 0.36332 0.57286 0.32202 0.0
H943 H 0.39422 0.60732 0.30096 0.0
C944 C 0.33912 0.49903 0.33901 0.0
C945 C 0.36633 0.48551 0.35312 0.0
C946 C 0.35684 0.51957 0.32791 0.0
C947 C 0.40226 0.52705 0.33059 0.0
C948 C 0.42935 0.51375 0.3449 0.0
C949 C 0.41153 0.49326 0.35609 0.0
C950 C 0.48196 0.56592 0.29677 0.0
C951 C 0.45662 0.588 0.29337 0.0
C952 C 0.4646 0.54631 0.30907 0.0
C953 C 0.42143 0.5483 0.31817 0.0
C954 C 0.39637 0.57056 0.31496 0.0
C955 C 0.41395 0.59025 0.30282 0.0
H956 H 0.11214 0.04472 0.83114 0.0
H957 H 0.1729 0.9925 0.87463 0.0
H958 H 0.08025 0.00922 0.81153 0.0
H959 H 0.14035 0.95684 0.8551 0.0
H960 H 0.11987 0.90203 0.79892 0.0
H961 H 0.15081 0.9369 0.81966 0.0
H962 H 0.02212 0.97528 0.81626 0.0
H963 H 0.99135 0.94069 0.79524 0.0
C964 C 0.11861 0.02562 0.83651 0.0
C965 C 0.14515 0.02135 0.85436 0.0
C966 C 0.10006 0.00532 0.82538 0.0
C967 C 0.10785 0.98027 0.83178 0.0
C968 C 0.13412 0.97596 0.84973 0.0
C969 C 0.15237 0.99633 0.86099 0.0
C970 C 0.09823 0.91795 0.80253 0.0
C971 C 0.05324 0.91867 0.79532 0.0
C972 C 0.11584 0.93779 0.81457 0.0
C973 C 0.08887 0.95879 0.81958 0.0
C974 C 0.04381 0.95943 0.81248 0.0
C975 C 0.02613 0.93954 0.80056 0.0
H976 H 0.15687 0.1566 0.02367 0.0
H977 H 0.21512 0.08326 0.0359 0.0
H978 H 0.13468 0.16007 0.06038 0.0
H979 H 0.19322 0.08676 0.07257 0.0
H980 H 0.17448 0.11003 0.14089 0.0
H981 H 0.20712 0.11344 0.10578 0.0
H982 H 0.07618 0.13461 0.08147 0.0
H983 H 0.0437 0.1309 0.11639 0.0
C984 C 0.16565 0.14146 0.0343 0.0
C985 C 0.18748 0.11961 0.02695 0.0
C986 C 0.15276 0.14338 0.05524 0.0
C987 C 0.16218 0.12366 0.0693 0.0
C988 C 0.18586 0.10233 0.06213 0.0
C989 C 0.19808 0.10024 0.04114 0.0
C990 C 0.15302 0.11582 0.12806 0.0
C991 C 0.10662 0.12012 0.13125 0.0
C992 C 0.17155 0.11763 0.108 0.0
C993 C 0.14415 0.12426 0.09091 0.0
C994 C 0.0982 0.12968 0.09435 0.0
C995 C 0.07956 0.12743 0.11428 0.0
H996 H 0.27931 0.37811 0.5329 0.0
H997 H 0.42269 0.38423 0.52083 0.0
H998 H 0.29412 0.37925 0.57041 0.0
H999 H 0.43793 0.38439 0.55817 0.0
H1000 H 0.44428 0.4204 0.62264 0.0
H1001 H 0.43084 0.41308 0.58584 0.0
H1002 H 0.32413 0.3598 0.60095 0.0
H1003 H 0.33596 0.36835 0.63802 0.0
C1004 C 0.31406 0.37912 0.53831 0.0
C1005 C 0.3498 0.38139 0.52397 0.0
C1006 C 0.32265 0.37971 0.55982 0.0
C1007 C 0.36726 0.38229 0.56746 0.0
C1008 C 0.40307 0.38311 0.55298 0.0
C1009 C 0.39442 0.38286 0.53154 0.0
C1010 C 0.4177 0.40723 0.61818 0.0
C1011 C 0.39086 0.39523 0.63339 0.0
C1012 C 0.41041 0.4027 0.59697 0.0
C1013 C 0.37634 0.38579 0.59025 0.0
C1014 C 0.35029 0.37319 0.60547 0.0
C1015 C 0.35746 0.37785 0.62678 0.0
H1016 H 0.72093 0.35601 0.98924 0.0
H1017 H 0.58592 0.3844 0.99989 0.0
H1018 H 0.70094 0.34659 0.95303 0.0
H1019 H 0.56625 0.37547 0.96363 0.0
H1020 H 0.53396 0.32607 0.90589 0.0
H1021 H 0.55417 0.33751 0.94161 0.0
H1022 H 0.6813 0.36855 0.91988 0.0
H1023 H 0.66136 0.35668 0.88413 0.0
C1024 C 0.68702 0.36026 0.98384 0.0
C1025 C 0.65501 0.37093 0.99745 0.0
C1026 C 0.67571 0.3551 0.96306 0.0
C1027 C 0.632 0.36028 0.95546 0.0
C1028 C 0.60009 0.37106 0.96905 0.0
C1029 C 0.6115 0.3764 0.98977 0.0
C1030 C 0.56625 0.33531 0.90874 0.0
C1031 C 0.59612 0.3404 0.89219 0.0
C1032 C 0.57766 0.34206 0.92918 0.0
C1033 C 0.61938 0.35391 0.93359 0.0
C1034 C 0.64909 0.35923 0.91701 0.0
C1035 C 0.63749 0.35267 0.89652 0.0
H1036 H 0.78624 0.15091 0.49138 0.0
H1037 H 0.92192 0.12276 0.50069 0.0
H1038 H 0.80468 0.16095 0.45518 0.0
H1039 H 0.94003 0.13227 0.4644 0.0
H1040 H 0.96944 0.18246 0.40691 0.0
H1041 H 0.95103 0.17036 0.44264 0.0
H1042 H 0.82281 0.13973 0.42168 0.0
H1043 H 0.84087 0.15231 0.38595 0.0
C1044 C 0.81998 0.14685 0.48569 0.0
C1045 C 0.85264 0.13609 0.49893 0.0
C1046 C 0.8304 0.15236 0.4649 0.0
C1047 C 0.87383 0.1474 0.4569 0.0
C1048 C 0.90639 0.13651 0.47012 0.0
C1049 C 0.89588 0.13085 0.49086 0.0
C1050 C 0.93728 0.17319 0.40994 0.0
C1051 C 0.90655 0.16843 0.39361 0.0
C1052 C 0.92691 0.16605 0.43038 0.0
C1053 C 0.88542 0.15412 0.43501 0.0
C1054 C 0.85487 0.14911 0.41865 0.0
C1055 C 0.8654 0.15608 0.39816 0.0
H1056 H 0.85085 0.84073 0.99688 0.0
H1057 H 0.8079 0.91763 0.98588 0.0
H1058 H 0.85739 0.83388 0.95941 0.0
H1059 H 0.81349 0.91072 0.94837 0.0
H1060 H 0.86334 0.89735 0.88229 0.0
H1061 H 0.86395 0.90432 0.91986 0.0
H1062 H 0.81142 0.82863 0.92935 0.0
H1063 H 0.81328 0.82119 0.89197 0.0
C1064 C 0.84255 0.85614 0.98643 0.0
C1065 C 0.82872 0.8797 0.99438 0.0
C1066 C 0.84618 0.85221 0.96492 0.0
C1067 C 0.83576 0.87168 0.95074 0.0
C1068 C 0.82249 0.89537 0.95874 0.0
C1069 C 0.81917 0.89935 0.98028 0.0
C1070 C 0.85262 0.88204 0.8924 0.0
C1071 C 0.83815 0.85871 0.88399 0.0
C1072 C 0.85238 0.88616 0.91398 0.0
C1073 C 0.83755 0.8671 0.92775 0.0
C1074 C 0.82358 0.84369 0.91933 0.0
C1075 C 0.82402 0.83953 0.89779 0.0
H1076 H 0.74327 0.64193 0.48317 0.0
H1077 H 0.60324 0.6313 0.50048 0.0
H1078 H 0.72303 0.6365 0.44646 0.0
H1079 H 0.58253 0.62672 0.46389 0.0
H1080 H 0.56912 0.5877 0.40109 0.0
H1081 H 0.58917 0.59651 0.43707 0.0
H1082 H 0.68553 0.65318 0.41663 0.0
H1083 H 0.66744 0.64318 0.38044 0.0
C1084 C 0.70804 0.63892 0.47906 0.0
C1085 C 0.6749 0.63681 0.49468 0.0
C1086 C 0.69633 0.63585 0.45801 0.0
C1087 C 0.65113 0.63086 0.45212 0.0
C1088 C 0.61783 0.62986 0.46779 0.0
C1089 C 0.62961 0.63264 0.48878 0.0
C1090 C 0.59498 0.60185 0.40419 0.0
C1091 C 0.61681 0.61457 0.38774 0.0
C1092 C 0.60601 0.60722 0.42493 0.0
C1093 C 0.63891 0.62568 0.4299 0.0
C1094 C 0.66039 0.63866 0.41346 0.0
C1095 C 0.64955 0.63315 0.39266 0.0
H1096 H 0.28399 0.65364 0.0317 0.0
H1097 H 0.41293 0.61635 0.02412 0.0
H1098 H 0.30374 0.664 0.06767 0.0
H1099 H 0.43167 0.62561 0.06029 0.0
H1100 H 0.47377 0.67382 0.11632 0.0
H1101 H 0.45241 0.66137 0.08115 0.0
H1102 H 0.31578 0.64631 0.10207 0.0
H1103 H 0.33684 0.65988 0.13725 0.0
C1104 C 0.31649 0.64758 0.03769 0.0
C1105 C 0.34691 0.63424 0.0249 0.0
C1106 C 0.32757 0.65323 0.05844 0.0
C1107 C 0.36937 0.6457 0.06694 0.0
C1108 C 0.39943 0.63201 0.05423 0.0
C1109 C 0.38841 0.62641 0.03351 0.0
C1110 C 0.43906 0.66802 0.11343 0.0
C1111 C 0.40694 0.66809 0.12962 0.0
C1112 C 0.42692 0.66055 0.09327 0.0
C1113 C 0.38232 0.65281 0.08869 0.0
C1114 C 0.35031 0.65243 0.10496 0.0
C1115 C 0.3625 0.65993 0.12519 0.0
H1116 H 0.18 0.89054 0.53115 0.0
H1117 H 0.14363 0.8127 0.51827 0.0
H1118 H 0.15578 0.88515 0.56738 0.0
H1119 H 0.12043 0.80718 0.55443 0.0
H1120 H 0.0389 0.81324 0.61423 0.0
H1121 H 0.06031 0.82146 0.57818 0.0
H1122 H 0.17941 0.86189 0.5993 0.0
H1123 H 0.15835 0.8534 0.63545 0.0
C1124 C 0.16675 0.87231 0.53604 0.0
C1125 C 0.16385 0.85203 0.52184 0.0
C1126 C 0.15324 0.86917 0.55682 0.0
C1127 C 0.13608 0.84575 0.56379 0.0
C1128 C 0.133 0.82554 0.54953 0.0
C1129 C 0.1468 0.82863 0.52885 0.0
C1130 C 0.06978 0.82379 0.61123 0.0
C1131 C 0.09709 0.83244 0.6278 0.0
C1132 C 0.08202 0.82852 0.59054 0.0
C1133 C 0.12177 0.84215 0.58585 0.0
C1134 C 0.14837 0.85152 0.60239 0.0
C1135 C 0.13623 0.84668 0.62312 0.0
H1136 H 0.18283 0.25321 0.38649 0.0
H1137 H 0.12602 0.31421 0.35014 0.0
H1138 H 0.14431 0.22249 0.36421 0.0
H1139 H 0.09008 0.28358 0.3271 0.0
H1140 H 0.99953 0.22314 0.29868 0.0
H1141 H 0.032 0.25317 0.3235 0.0
H1142 H 0.14945 0.20521 0.33022 0.0
H1143 H 0.11535 0.17444 0.30664 0.0
C1144 C 0.16195 0.26012 0.37384 0.0
C1145 C 0.15789 0.28626 0.3701 0.0
C1146 C 0.14037 0.24246 0.36082 0.0
C1147 C 0.11434 0.25045 0.34364 0.0
C1148 C 0.10944 0.27661 0.34023 0.0
C1149 C 0.13068 0.29425 0.35332 0.0
C1150 C 0.03176 0.21875 0.30585 0.0
C1151 C 0.05429 0.19612 0.30104 0.0
C1152 C 0.05083 0.23619 0.31984 0.0
C1153 C 0.09336 0.23164 0.32907 0.0
C1154 C 0.11622 0.20916 0.32388 0.0
C1155 C 0.09686 0.19161 0.31012 0.0
H1156 H 0.32767 0.25446 0.8877 0.0
H1157 H 0.37725 0.19388 0.84861 0.0
H1158 H 0.36521 0.28532 0.86531 0.0
H1159 H 0.41161 0.22466 0.82544 0.0
H1160 H 0.50173 0.28364 0.79605 0.0
H1161 H 0.47067 0.25377 0.82122 0.0
H1162 H 0.35802 0.30416 0.8322 0.0
H1163 H 0.39126 0.33481 0.80833 0.0
C1164 C 0.34665 0.24768 0.87439 0.0
C1165 C 0.34903 0.22163 0.86993 0.0
C1166 C 0.36764 0.26543 0.86133 0.0
C1167 C 0.39123 0.25759 0.84339 0.0
C1168 C 0.39426 0.2315 0.83919 0.0
C1169 C 0.37381 0.21379 0.85235 0.0
C1170 C 0.47081 0.28851 0.80417 0.0
C1171 C 0.44919 0.31166 0.80036 0.0
C1172 C 0.45255 0.27121 0.81839 0.0
C1173 C 0.41169 0.27645 0.82883 0.0
C1174 C 0.38994 0.29961 0.82483 0.0
C1175 C 0.40866 0.31706 0.81088 0.0
H1176 H 0.72672 0.2235 0.68255 0.0
H1177 H 0.62779 0.23724 0.63423 0.0
H1178 H 0.68779 0.25318 0.7054 0.0
H1179 H 0.58861 0.26688 0.65714 0.0
H1180 H 0.55489 0.33619 0.69712 0.0
H1181 H 0.59627 0.30802 0.67381 0.0
H1182 H 0.61741 0.25588 0.72478 0.0
H1183 H 0.5763 0.28419 0.74808 0.0
C1184 C 0.69651 0.23278 0.67684 0.0
C1185 C 0.68021 0.22791 0.65661 0.0
C1186 C 0.67415 0.24977 0.68995 0.0
C1187 C 0.6349 0.2623 0.68317 0.0
C1188 C 0.61906 0.25778 0.66278 0.0
C1189 C 0.6415 0.2408 0.64964 0.0
C1190 C 0.56842 0.3187 0.70332 0.0
C1191 C 0.56278 0.3125 0.72446 0.0
C1192 C 0.59198 0.30251 0.68996 0.0
C1193 C 0.61027 0.27971 0.69742 0.0
C1194 C 0.60447 0.27351 0.71859 0.0
C1195 C 0.5809 0.28971 0.73195 0.0
H1196 H 0.77654 0.27872 0.17962 0.0
H1197 H 0.88016 0.26738 0.13308 0.0
H1198 H 0.81577 0.24996 0.2031 0.0
H1199 H 0.91964 0.23855 0.15666 0.0
H1200 H 0.95352 0.1699 0.19792 0.0
H1201 H 0.91332 0.19721 0.17357 0.0
H1202 H 0.88548 0.24979 0.22359 0.0
H1203 H 0.92561 0.2224 0.24797 0.0
C1204 C 0.8078 0.2701 0.17442 0.0
C1205 C 0.82547 0.27548 0.15455 0.0
C1206 C 0.83033 0.25367 0.1879 0.0
C1207 C 0.8711 0.24219 0.18185 0.0
C1208 C 0.88812 0.24696 0.16174 0.0
C1209 C 0.8655 0.26343 0.14821 0.0
C1210 C 0.93896 0.18735 0.20371 0.0
C1211 C 0.94229 0.19388 0.22493 0.0
C1212 C 0.91602 0.20302 0.18973 0.0
C1213 C 0.89597 0.22561 0.19664 0.0
C1214 C 0.89981 0.23228 0.21783 0.0
C1215 C 0.92284 0.21662 0.2318 0.0
H1216 H 0.877 0.68693 0.68292 0.0
H1217 H 0.81618 0.74333 0.64309 0.0
H1218 H 0.9147 0.71999 0.70268 0.0
H1219 H 0.85682 0.77655 0.66201 0.0
H1220 H 0.89047 0.83062 0.71586 0.0
H1221 H 0.85529 0.79806 0.69426 0.0
H1222 H 0.97218 0.7502 0.70338 0.0
H1223 H 0.00523 0.7819 0.72645 0.0
C1224 C 0.87191 0.70643 0.67824 0.0
C1225 C 0.84284 0.71242 0.66158 0.0
C1226 C 0.89423 0.72546 0.68943 0.0
C1227 C 0.88883 0.7511 0.68409 0.0
C1228 C 0.86119 0.75708 0.66687 0.0
C1229 C 0.83838 0.73797 0.65578 0.0
C1230 C 0.90838 0.81301 0.71342 0.0
C1231 C 0.95063 0.80884 0.7229 0.0
C1232 C 0.88853 0.79445 0.70073 0.0
C1233 C 0.91081 0.77138 0.69691 0.0
C1234 C 0.95355 0.76749 0.70614 0.0
C1235 C 0.97293 0.78586 0.71915 0.0
H1236 H 0.62025 0.76935 0.12855 0.0
H1237 H 0.71331 0.78587 0.17896 0.0
H1238 H 0.58089 0.73871 0.15074 0.0
H1239 H 0.67319 0.75584 0.20115 0.0
H1240 H 0.55606 0.72368 0.24063 0.0
H1241 H 0.59488 0.75339 0.21751 0.0
H1242 H 0.59651 0.69663 0.16896 0.0
H1243 H 0.55911 0.6666 0.1924 0.0
C1244 C 0.6326 0.76633 0.14425 0.0
C1245 C 0.6698 0.78028 0.15198 0.0
C1246 C 0.60992 0.74885 0.15697 0.0
C1247 C 0.62375 0.74511 0.17771 0.0
C1248 C 0.66128 0.75871 0.18534 0.0
C1249 C 0.68417 0.77597 0.17261 0.0
C1250 C 0.56541 0.71744 0.22516 0.0
C1251 C 0.55576 0.69264 0.21855 0.0
C1252 C 0.58735 0.73447 0.21188 0.0
C1253 C 0.59911 0.72722 0.19151 0.0
C1254 C 0.58782 0.70272 0.18458 0.0
C1255 C 0.56649 0.68556 0.19801 0.0
H1256 H 0.29624 0.75855 0.36898 0.0
H1257 H 0.36246 0.81612 0.3318 0.0
H1258 H 0.3349 0.72572 0.34888 0.0
H1259 H 0.39954 0.78332 0.31141 0.0
H1260 H 0.41149 0.71688 0.26484 0.0
H1261 H 0.37306 0.74878 0.28599 0.0
H1262 H 0.41637 0.71072 0.34206 0.0
H1263 H 0.45501 0.6789 0.32103 0.0
C1264 C 0.31927 0.76425 0.35669 0.0
C1265 C 0.32582 0.79003 0.35191 0.0
C1266 C 0.34119 0.74544 0.34513 0.0
C1267 C 0.36973 0.75202 0.32843 0.0
C1268 C 0.37701 0.77772 0.32392 0.0
C1269 C 0.35562 0.79649 0.33561 0.0
C1270 C 0.41269 0.71527 0.28167 0.0
C1271 C 0.43646 0.69543 0.29125 0.0
C1272 C 0.3909 0.73358 0.29376 0.0
C1273 C 0.39189 0.73222 0.31565 0.0
C1274 C 0.41488 0.71214 0.32522 0.0
C1275 C 0.4372 0.69403 0.31316 0.0
H1276 H 0.13479 0.6978 0.85006 0.0
H1277 H 0.21024 0.75904 0.87867 0.0
H1278 H 0.09927 0.72769 0.82632 0.0
H1279 H 0.17431 0.78907 0.85491 0.0
H1280 H 0.06205 0.8366 0.82338 0.0
H1281 H 0.09977 0.80757 0.84725 0.0
H1282 H 0.11984 0.75469 0.79665 0.0
H1283 H 0.08106 0.78351 0.77287 0.0
C1284 C 0.14401 0.71764 0.85121 0.0
C1285 C 0.17563 0.72599 0.86619 0.0
C1286 C 0.12368 0.73477 0.83757 0.0
C1287 C 0.13427 0.76073 0.83859 0.0
C1288 C 0.16519 0.76921 0.85382 0.0
C1289 C 0.18567 0.75202 0.86748 0.0
C1290 C 0.07464 0.8188 0.81734 0.0
C1291 C 0.06876 0.81236 0.79623 0.0
C1292 C 0.09653 0.80225 0.83099 0.0
C1293 C 0.11276 0.77881 0.82387 0.0
C1294 C 0.1073 0.77251 0.80268 0.0
C1295 C 0.08553 0.78911 0.789 0.0
loop_
_geom_bond_atom_site_label_1
_geom_bond_atom_site_label_2
_geom_bond_distance
_geom_bond_site_symmetry_2
_ccdc_geom_bond_type
C0 C1 1.391 . S
C0 C4 1.391 . S
C0 H42 0.948 . S
C1 C0 1.391 . S
C1 C2 1.391 . S
C2 C1 1.391 . S
C2 H58 0.947 . S
C2 C59 1.392 . S
C3 C4 1.391 . S
C3 C7 1.397 . S
C3 C59 1.419 . S
C4 C0 1.391 . S
C4 C3 1.391 . S
C4 C5 1.399 . S
C5 C4 1.399 . S
C5 C8 1.396 . S
C5 C17 1.453 . S
C5 C18 1.684 . S
H6 C30 0.948 . S
C7 C3 1.397 . S
C7 C8 1.394 . S
C7 C26 1.723 . S
C8 C5 1.396 . S
C8 C7 1.394 . S
C8 C38 1.723 . S
H9 C32 0.947 . S
H10 C33 0.948 . S
H11 C39 0.982 . S
H12 C40 0.979 . S
H13 C40 0.980 . S
H14 C40 0.983 . S
H15 C39 0.979 . S
H16 C39 0.977 . S
C17 C5 1.453 . S
C17 H46 0.982 . S
C17 H47 0.979 . S
C17 H48 0.977 . S
C18 C5 1.684 . S
C18 H43 0.979 . S
C18 H44 0.980 . S
C18 H45 0.983 . S
C19 C20 1.391 . S
C19 C24 1.391 . S
C19 H49 0.948 . S
C20 C19 1.391 . S
C20 C21 1.391 . S
C21 C20 1.391 . S
C21 C22 1.392 . S
C21 H50 0.947 . S
C22 C21 1.392 . S
C22 C23 1.419 . S
C22 H51 0.948 . S
C23 C22 1.419 . S
C23 C24 1.391 . S
C23 C27 1.397 . S
C24 C19 1.391 . S
C24 C23 1.391 . S
C24 C25 1.399 . S
C25 C24 1.399 . S
C25 C26 1.396 . S
C25 C28 1.453 . S
C25 C29 1.684 . S
C26 C7 1.723 . S
C26 C25 1.396 . S
C26 C27 1.394 . S
C27 C23 1.397 . S
C27 C26 1.394 . S
C27 C37 1.723 . S
C28 C25 1.453 . S
C28 H52 0.982 . S
C28 H53 0.979 . S
C28 H54 0.977 . S
C29 C25 1.684 . S
C29 H55 0.979 . S
C29 H56 0.980 . S
C29 H57 0.983 . S
C30 H6 0.948 . S
C30 C31 1.391 . S
C30 C35 1.391 . S
C31 C30 1.391 . S
C31 C32 1.391 . S
C32 H9 0.947 . S
C32 C31 1.391 . S
C32 C33 1.392 . S
C33 H10 0.948 . S
C33 C32 1.392 . S
C33 C34 1.419 . S
C34 C33 1.419 . S
C34 C35 1.391 . S
C34 C38 1.397 . S
C35 C30 1.391 . S
C35 C34 1.391 . S
C35 C36 1.399 . S
C36 C35 1.399 . S
C36 C37 1.396 . S
C36 C39 1.453 . S
C36 C40 1.684 . S
C37 C27 1.723 . S
C37 C36 1.396 . S
C37 C38 1.394 . S
C38 C8 1.723 . S
C38 C34 1.397 . S
C38 C37 1.394 . S
C39 H11 0.982 . S
C39 H15 0.979 . S
C39 H16 0.977 . S
C39 C36 1.453 . S
C40 H12 0.979 . S
C40 H13 0.980 . S
C40 H14 0.983 . S
C40 C36 1.684 . S
H41 C59 0.948 . S
H42 C0 0.948 . S
H43 C18 0.979 . S
H44 C18 0.980 . S
H45 C18 0.983 . S
H46 C17 0.982 . S
H47 C17 0.979 . S
H48 C17 0.977 . S
H49 C19 0.948 . S
H50 C21 0.947 . S
H51 C22 0.948 . S
H52 C28 0.982 . S
H53 C28 0.979 . S
H54 C28 0.977 . S
H55 C29 0.979 . S
H56 C29 0.980 . S
H57 C29 0.983 . S
H58 C2 0.947 . S
C59 C2 1.392 . S
C59 C3 1.419 . S
C59 H41 0.948 . S
C60 C61 1.391 . S
C60 C64 1.391 . S
C60 H102 0.948 . S
C61 C60 1.391 . S
C61 C62 1.391 . S
C62 C61 1.391 . S
C62 H118 0.947 . S
C62 C119 1.392 . S
C63 C64 1.391 . S
C63 C67 1.397 . S
C63 C119 1.419 . S
C64 C60 1.391 . S
C64 C63 1.391 . S
C64 C65 1.399 . S
C65 C64 1.399 . S
C65 C68 1.396 . S
C65 C77 1.453 . S
C65 C78 1.684 . S
H66 C90 0.948 . S
C67 C63 1.397 . S
C67 C68 1.394 . S
C67 C86 1.723 . S
C68 C65 1.396 . S
C68 C67 1.394 . S
C68 C98 1.723 . S
H69 C92 0.947 . S
H70 C93 0.948 . S
H71 C99 0.982 . S
H72 C100 0.979 . S
H73 C100 0.980 . S
H74 C100 0.983 . S
H75 C99 0.979 . S
H76 C99 0.977 . S
C77 C65 1.453 . S
C77 H106 0.982 . S
C77 H107 0.979 . S
C77 H108 0.977 . S
C78 C65 1.684 . S
C78 H103 0.979 . S
C78 H104 0.980 . S
C78 H105 0.983 . S
C79 C80 1.391 . S
C79 C84 1.391 . S
C79 H109 0.948 . S
C80 C79 1.391 . S
C80 C81 1.391 . S
C81 C80 1.391 . S
C81 C82 1.392 . S
C81 H110 0.947 . S
C82 C81 1.392 . S
C82 C83 1.419 . S
C82 H111 0.948 . S
C83 C82 1.419 . S
C83 C84 1.391 . S
C83 C87 1.397 . S
C84 C79 1.391 . S
C84 C83 1.391 . S
C84 C85 1.399 . S
C85 C84 1.399 . S
C85 C86 1.396 . S
C85 C88 1.453 . S
C85 C89 1.684 . S
C86 C67 1.723 . S
C86 C85 1.396 . S
C86 C87 1.394 . S
C87 C83 1.397 . S
C87 C86 1.394 . S
C87 C97 1.723 . S
C88 C85 1.453 . S
C88 H112 0.982 . S
C88 H113 0.979 . S
C88 H114 0.977 . S
C89 C85 1.684 . S
C89 H115 0.979 . S
C89 H116 0.980 . S
C89 H117 0.983 . S
C90 H66 0.948 . S
C90 C91 1.391 . S
C90 C95 1.391 . S
C91 C90 1.391 . S
C91 C92 1.391 . S
C92 H69 0.947 . S
C92 C91 1.391 . S
C92 C93 1.392 . S
C93 H70 0.948 . S
C93 C92 1.392 . S
C93 C94 1.419 . S
C94 C93 1.419 . S
C94 C95 1.391 . S
C94 C98 1.397 . S
C95 C90 1.391 . S
C95 C94 1.391 . S
C95 C96 1.399 . S
C96 C95 1.399 . S
C96 C97 1.396 . S
C96 C99 1.453 . S
C96 C100 1.684 . S
C97 C87 1.723 . S
C97 C96 1.396 . S
C97 C98 1.394 . S
C98 C68 1.723 . S
C98 C94 1.397 . S
C98 C97 1.394 . S
C99 H71 0.982 . S
C99 H75 0.979 . S
C99 H76 0.977 . S
C99 C96 1.453 . S
C100 H72 0.979 . S
C100 H73 0.980 . S
C100 H74 0.983 . S
C100 C96 1.684 . S
H101 C119 0.948 . S
H102 C60 0.948 . S
H103 C78 0.979 . S
H104 C78 0.980 . S
H105 C78 0.983 . S
H106 C77 0.982 . S
H107 C77 0.979 . S
H108 C77 0.977 . S
H109 C79 0.948 . S
H110 C81 0.947 . S
H111 C82 0.948 . S
H112 C88 0.982 . S
H113 C88 0.979 . S
H114 C88 0.977 . S
H115 C89 0.979 . S
H116 C89 0.980 . S
H117 C89 0.983 . S
H118 C62 0.947 . S
C119 C62 1.392 . S
C119 C63 1.419 . S
C119 H101 0.948 . S
C120 C121 1.391 . S
C120 C124 1.391 . S
C120 H162 0.948 . S
C121 C120 1.391 . S
C121 C122 1.391 . S
C122 C121 1.391 . S
C122 H178 0.947 . S
C122 C179 1.392 . S
C123 C124 1.391 . S
C123 C127 1.397 . S
C123 C179 1.419 . S
C124 C120 1.391 . S
C124 C123 1.391 . S
C124 C125 1.399 . S
C125 C124 1.399 . S
C125 C128 1.396 . S
C125 C137 1.453 . S
C125 C138 1.684 . S
H126 C150 0.948 . S
C127 C123 1.397 . S
C127 C128 1.394 . S
C127 C146 1.723 . S
C128 C125 1.396 . S
C128 C127 1.394 . S
C128 C158 1.723 . S
H129 C152 0.947 . S
H130 C153 0.948 . S
H131 C159 0.982 . S
H132 C160 0.979 . S
H133 C160 0.980 . S
H134 C160 0.983 . S
H135 C159 0.979 . S
H136 C159 0.977 . S
C137 C125 1.453 . S
C137 H166 0.982 . S
C137 H167 0.979 . S
C137 H168 0.977 . S
C138 C125 1.684 . S
C138 H163 0.979 . S
C138 H164 0.980 . S
C138 H165 0.983 . S
C139 C140 1.391 . S
C139 C144 1.391 . S
C139 H169 0.948 . S
C140 C139 1.391 . S
C140 C141 1.391 . S
C141 C140 1.391 . S
C141 C142 1.392 . S
C141 H170 0.947 . S
C142 C141 1.392 . S
C142 C143 1.419 . S
C142 H171 0.948 . S
C143 C142 1.419 . S
C143 C144 1.391 . S
C143 C147 1.397 . S
C144 C139 1.391 . S
C144 C143 1.391 . S
C144 C145 1.399 . S
C145 C144 1.399 . S
C145 C146 1.396 . S
C145 C148 1.453 . S
C145 C149 1.684 . S
C146 C127 1.723 . S
C146 C145 1.396 . S
C146 C147 1.394 . S
C147 C143 1.397 . S
C147 C146 1.394 . S
C147 C157 1.723 . S
C148 C145 1.453 . S
C148 H172 0.982 . S
C148 H173 0.979 . S
C148 H174 0.977 . S
C149 C145 1.684 . S
C149 H175 0.979 . S
C149 H176 0.980 . S
C149 H177 0.983 . S
C150 H126 0.948 . S
C150 C151 1.391 . S
C150 C155 1.391 . S
C151 C150 1.391 . S
C151 C152 1.391 . S
C152 H129 0.947 . S
C152 C151 1.391 . S
C152 C153 1.392 . S
C153 H130 0.948 . S
C153 C152 1.392 . S
C153 C154 1.419 . S
C154 C153 1.419 . S
C154 C155 1.391 . S
C154 C158 1.397 . S
C155 C150 1.391 . S
C155 C154 1.391 . S
C155 C156 1.399 . S
C156 C155 1.399 . S
C156 C157 1.396 . S
C156 C159 1.453 . S
C156 C160 1.684 . S
C157 C147 1.723 . S
C157 C156 1.396 . S
C157 C158 1.394 . S
C158 C128 1.723 . S
C158 C154 1.397 . S
C158 C157 1.394 . S
C159 H131 0.982 . S
C159 H135 0.979 . S
C159 H136 0.977 . S
C159 C156 1.453 . S
C160 H132 0.979 . S
C160 H133 0.980 . S
C160 H134 0.983 . S
C160 C156 1.684 . S
H161 C179 0.948 . S
H162 C120 0.948 . S
H163 C138 0.979 . S
H164 C138 0.980 . S
H165 C138 0.983 . S
H166 C137 0.982 . S
H167 C137 0.979 . S
H168 C137 0.977 . S
H169 C139 0.948 . S
H170 C141 0.947 . S
H171 C142 0.948 . S
H172 C148 0.982 . S
H173 C148 0.979 . S
H174 C148 0.977 . S
H175 C149 0.979 . S
H176 C149 0.980 . S
H177 C149 0.983 . S
H178 C122 0.947 . S
C179 C122 1.392 . S
C179 C123 1.419 . S
C179 H161 0.948 . S
C180 C181 1.391 . S
C180 C184 1.391 . S
C180 H222 0.948 . S
C181 C180 1.391 . S
C181 C182 1.391 . S
C182 C181 1.391 . S
C182 H238 0.947 . S
C182 C239 1.392 . S
C183 C184 1.391 . S
C183 C187 1.397 . S
C183 C239 1.419 . S
C184 C180 1.391 . S
C184 C183 1.391 . S
C184 C185 1.399 . S
C185 C184 1.399 . S
C185 C188 1.396 . S
C185 C197 1.453 . S
C185 C198 1.684 . S
H186 C210 0.948 . S
C187 C183 1.397 . S
C187 C188 1.394 . S
C187 C206 1.723 . S
C188 C185 1.396 . S
C188 C187 1.394 . S
C188 C218 1.723 . S
H189 C212 0.947 . S
H190 C213 0.948 . S
H191 C219 0.982 . S
H192 C220 0.979 . S
H193 C220 0.980 . S
H194 C220 0.983 . S
H195 C219 0.979 . S
H196 C219 0.977 . S
C197 C185 1.453 . S
C197 H226 0.982 . S
C197 H227 0.979 . S
C197 H228 0.977 . S
C198 C185 1.684 . S
C198 H223 0.979 . S
C198 H224 0.980 . S
C198 H225 0.983 . S
C199 C200 1.391 . S
C199 C204 1.391 . S
C199 H229 0.948 . S
C200 C199 1.391 . S
C200 C201 1.391 . S
C201 C200 1.391 . S
C201 C202 1.392 . S
C201 H230 0.947 . S
C202 C201 1.392 . S
C202 C203 1.419 . S
C202 H231 0.948 . S
C203 C202 1.419 . S
C203 C204 1.391 . S
C203 C207 1.397 . S
C204 C199 1.391 . S
C204 C203 1.391 . S
C204 C205 1.399 . S
C205 C204 1.399 . S
C205 C206 1.396 . S
C205 C208 1.453 . S
C205 C209 1.684 . S
C206 C187 1.723 . S
C206 C205 1.396 . S
C206 C207 1.394 . S
C207 C203 1.397 . S
C207 C206 1.394 . S
C207 C217 1.723 . S
C208 C205 1.453 . S
C208 H232 0.982 . S
C208 H233 0.979 . S
C208 H234 0.977 . S
C209 C205 1.684 . S
C209 H235 0.979 . S
C209 H236 0.980 . S
C209 H237 0.983 . S
C210 H186 0.948 . S
C210 C211 1.391 . S
C210 C215 1.391 . S
C211 C210 1.391 . S
C211 C212 1.391 . S
C212 H189 0.947 . S
C212 C211 1.391 . S
C212 C213 1.392 . S
C213 H190 0.948 . S
C213 C212 1.392 . S
C213 C214 1.419 . S
C214 C213 1.419 . S
C214 C215 1.391 . S
C214 C218 1.397 . S
C215 C210 1.391 . S
C215 C214 1.391 . S
C215 C216 1.399 . S
C216 C215 1.399 . S
C216 C217 1.396 . S
C216 C219 1.453 . S
C216 C220 1.684 . S
C217 C207 1.723 . S
C217 C216 1.396 . S
C217 C218 1.394 . S
C218 C188 1.723 . S
C218 C214 1.397 . S
C218 C217 1.394 . S
C219 H191 0.982 . S
C219 H195 0.979 . S
C219 H196 0.977 . S
C219 C216 1.453 . S
C220 H192 0.979 . S
C220 H193 0.980 . S
C220 H194 0.983 . S
C220 C216 1.684 . S
H221 C239 0.948 . S
H222 C180 0.948 . S
H223 C198 0.979 . S
H224 C198 0.980 . S
H225 C198 0.983 . S
H226 C197 0.982 . S
H227 C197 0.979 . S
H228 C197 0.977 . S
H229 C199 0.948 . S
H230 C201 0.947 . S
H231 C202 0.948 . S
H232 C208 0.982 . S
H233 C208 0.979 . S
H234 C208 0.977 . S
H235 C209 0.979 . S
H236 C209 0.980 . S
H237 C209 0.983 . S
H238 C182 0.947 . S
C239 C182 1.392 . S
C239 C183 1.419 . S
C239 H221 0.948 . S
C240 C241 1.391 . S
C240 C244 1.391 . S
C240 H282 0.948 . S
C241 C240 1.391 . S
C241 C242 1.391 . S
C242 C241 1.391 . S
C242 H298 0.947 . S
C242 C299 1.392 . S
C243 C244 1.391 . S
C243 C247 1.397 . S
C243 C299 1.419 . S
C244 C240 1.391 . S
C244 C243 1.391 . S
C244 C245 1.399 . S
C245 C244 1.399 . S
C245 C248 1.396 . S
C245 C257 1.453 . S
C245 C258 1.684 . S
H246 C270 0.948 . S
C247 C243 1.397 . S
C247 C248 1.394 . S
C247 C266 1.723 . S
C248 C245 1.396 . S
C248 C247 1.394 . S
C248 C278 1.723 . S
H249 C272 0.947 . S
H250 C273 0.948 . S
H251 C279 0.982 . S
H252 C280 0.979 . S
H253 C280 0.980 . S
H254 C280 0.983 . S
H255 C279 0.979 . S
H256 C279 0.977 . S
C257 C245 1.453 . S
C257 H286 0.982 . S
C257 H287 0.979 . S
C257 H288 0.977 . S
C258 C245 1.684 . S
C258 H283 0.979 . S
C258 H284 0.980 . S
C258 H285 0.983 . S
C259 C260 1.391 . S
C259 C264 1.391 . S
C259 H289 0.948 . S
C260 C259 1.391 . S
C260 C261 1.391 . S
C261 C260 1.391 . S
C261 C262 1.392 . S
C261 H290 0.947 . S
C262 C261 1.392 . S
C262 C263 1.419 . S
C262 H291 0.948 . S
C263 C262 1.419 . S
C263 C264 1.391 . S
C263 C267 1.397 . S
C264 C259 1.391 . S
C264 C263 1.391 . S
C264 C265 1.399 . S
C265 C264 1.399 . S
C265 C266 1.396 . S
C265 C268 1.453 . S
C265 C269 1.684 . S
C266 C247 1.723 . S
C266 C265 1.396 . S
C266 C267 1.394 . S
C267 C263 1.397 . S
C267 C266 1.394 . S
C267 C277 1.723 . S
C268 C265 1.453 . S
C268 H292 0.982 . S
C268 H293 0.979 . S
C268 H294 0.977 . S
C269 C265 1.684 . S
C269 H295 0.979 . S
C269 H296 0.980 . S
C269 H297 0.983 . S
C270 H246 0.948 . S
C270 C271 1.391 . S
C270 C275 1.391 . S
C271 C270 1.391 . S
C271 C272 1.391 . S
C272 H249 0.947 . S
C272 C271 1.391 . S
C272 C273 1.392 . S
C273 H250 0.948 . S
C273 C272 1.392 . S
C273 C274 1.419 . S
C274 C273 1.419 . S
C274 C275 1.391 . S
C274 C278 1.397 . S
C275 C270 1.391 . S
C275 C274 1.391 . S
C275 C276 1.399 . S
C276 C275 1.399 . S
C276 C277 1.396 . S
C276 C279 1.453 . S
C276 C280 1.684 . S
C277 C267 1.723 . S
C277 C276 1.396 . S
C277 C278 1.394 . S
C278 C248 1.723 . S
C278 C274 1.397 . S
C278 C277 1.394 . S
C279 H251 0.982 . S
C279 H255 0.979 . S
C279 H256 0.977 . S
C279 C276 1.453 . S
C280 H252 0.979 . S
C280 H253 0.980 . S
C280 H254 0.983 . S
C280 C276 1.684 . S
H281 C299 0.948 . S
H282 C240 0.948 . S
H283 C258 0.979 . S
H284 C258 0.980 . S
H285 C258 0.983 . S
H286 C257 0.982 . S
H287 C257 0.979 . S
H288 C257 0.977 . S
H289 C259 0.948 . S
H290 C261 0.947 . S
H291 C262 0.948 . S
H292 C268 0.982 . S
H293 C268 0.979 . S
H294 C268 0.977 . S
H295 C269 0.979 . S
H296 C269 0.980 . S
H297 C269 0.983 . S
H298 C242 0.947 . S
C299 C242 1.392 . S
C299 C243 1.419 . S
C299 H281 0.948 . S
C300 C301 1.391 . S
C300 C304 1.391 . S
C300 H342 0.948 . S
C301 C300 1.391 . S
C301 C302 1.391 . S
C302 C301 1.391 . S
C302 H358 0.947 . S
C302 C359 1.392 . S
C303 C304 1.391 . S
C303 C307 1.397 . S
C303 C359 1.419 . S
C304 C300 1.391 . S
C304 C303 1.391 . S
C304 C305 1.399 . S
C305 C304 1.399 . S
C305 C308 1.396 . S
C305 C317 1.453 . S
C305 C318 1.684 . S
H306 C330 0.948 . S
C307 C303 1.397 . S
C307 C308 1.394 . S
C307 C326 1.723 . S
C308 C305 1.396 . S
C308 C307 1.394 . S
C308 C338 1.723 . S
H309 C332 0.947 . S
H310 C333 0.948 . S
H311 C339 0.982 . S
H312 C340 0.979 . S
H313 C340 0.980 . S
H314 C340 0.983 . S
H315 C339 0.979 . S
H316 C339 0.977 . S
C317 C305 1.453 . S
C317 H346 0.982 . S
C317 H347 0.979 . S
C317 H348 0.977 . S
C318 C305 1.684 . S
C318 H343 0.979 . S
C318 H344 0.980 . S
C318 H345 0.983 . S
C319 C320 1.391 . S
C319 C324 1.391 . S
C319 H349 0.948 . S
C320 C319 1.391 . S
C320 C321 1.391 . S
C321 C320 1.391 . S
C321 C322 1.392 . S
C321 H350 0.947 . S
C322 C321 1.392 . S
C322 C323 1.419 . S
C322 H351 0.948 . S
C323 C322 1.419 . S
C323 C324 1.391 . S
C323 C327 1.397 . S
C324 C319 1.391 . S
C324 C323 1.391 . S
C324 C325 1.399 . S
C325 C324 1.399 . S
C325 C326 1.396 . S
C325 C328 1.453 . S
C325 C329 1.684 . S
C326 C307 1.723 . S
C326 C325 1.396 . S
C326 C327 1.394 . S
C327 C323 1.397 . S
C327 C326 1.394 . S
C327 C337 1.723 . S
C328 C325 1.453 . S
C328 H352 0.982 . S
C328 H353 0.979 . S
C328 H354 0.977 . S
C329 C325 1.684 . S
C329 H355 0.979 . S
C329 H356 0.980 . S
C329 H357 0.983 . S
C330 H306 0.948 . S
C330 C331 1.391 . S
C330 C335 1.391 . S
C331 C330 1.391 . S
C331 C332 1.391 . S
C332 H309 0.947 . S
C332 C331 1.391 . S
C332 C333 1.392 . S
C333 H310 0.948 . S
C333 C332 1.392 . S
C333 C334 1.419 . S
C334 C333 1.419 . S
C334 C335 1.391 . S
C334 C338 1.397 . S
C335 C330 1.391 . S
C335 C334 1.391 . S
C335 C336 1.399 . S
C336 C335 1.399 . S
C336 C337 1.396 . S
C336 C339 1.453 . S
C336 C340 1.684 . S
C337 C327 1.723 . S
C337 C336 1.396 . S
C337 C338 1.394 . S
C338 C308 1.723 . S
C338 C334 1.397 . S
C338 C337 1.394 . S
C339 H311 0.982 . S
C339 H315 0.979 . S
C339 H316 0.977 . S
C339 C336 1.453 . S
C340 H312 0.979 . S
C340 H313 0.980 . S
C340 H314 0.983 . S
C340 C336 1.684 . S
H341 C359 0.948 . S
H342 C300 0.948 . S
H343 C318 0.979 . S
H344 C318 0.980 . S
H345 C318 0.983 . S
H346 C317 0.982 . S
H347 C317 0.979 . S
H348 C317 0.977 . S
H349 C319 0.948 . S
H350 C321 0.947 . S
H351 C322 0.948 . S
H352 C328 0.982 . S
H353 C328 0.979 . S
H354 C328 0.977 . S
H355 C329 0.979 . S
H356 C329 0.980 . S
H357 C329 0.983 . S
H358 C302 0.947 . S
C359 C302 1.392 . S
C359 C303 1.419 . S
C359 H341 0.948 . S
C360 C361 1.391 . S
C360 C364 1.391 . S
C360 H402 0.948 . S
C361 C360 1.391 . S
C361 C362 1.391 . S
C362 C361 1.391 . S
C362 H418 0.947 . S
C362 C419 1.392 . S
C363 C364 1.391 . S
C363 C367 1.397 . S
C363 C419 1.419 . S
C364 C360 1.391 . S
C364 C363 1.391 . S
C364 C365 1.399 . S
C365 C364 1.399 . S
C365 C368 1.396 . S
C365 C377 1.453 . S
C365 C378 1.684 . S
H366 C390 0.948 . S
C367 C363 1.397 . S
C367 C368 1.394 . S
C367 C386 1.723 . S
C368 C365 1.396 . S
C368 C367 1.394 . S
C368 C398 1.723 . S
H369 C392 0.947 . S
H370 C393 0.948 . S
H371 C399 0.982 . S
H372 C400 0.979 . S
H373 C400 0.980 . S
H374 C400 0.983 . S
H375 C399 0.979 . S
H376 C399 0.977 . S
C377 C365 1.453 . S
C377 H406 0.982 . S
C377 H407 0.979 . S
C377 H408 0.977 . S
C378 C365 1.684 . S
C378 H403 0.979 . S
C378 H404 0.980 . S
C378 H405 0.983 . S
C379 C380 1.391 . S
C379 C384 1.391 . S
C379 H409 0.948 . S
C380 C379 1.391 . S
C380 C381 1.391 . S
C381 C380 1.391 . S
C381 C382 1.392 . S
C381 H410 0.947 . S
C382 C381 1.392 . S
C382 C383 1.419 . S
C382 H411 0.948 . S
C383 C382 1.419 . S
C383 C384 1.391 . S
C383 C387 1.397 . S
C384 C379 1.391 . S
C384 C383 1.391 . S
C384 C385 1.399 . S
C385 C384 1.399 . S
C385 C386 1.396 . S
C385 C388 1.453 . S
C385 C389 1.684 . S
C386 C367 1.723 . S
C386 C385 1.396 . S
C386 C387 1.394 . S
C387 C383 1.397 . S
C387 C386 1.394 . S
C387 C397 1.723 . S
C388 C385 1.453 . S
C388 H412 0.982 . S
C388 H413 0.979 . S
C388 H414 0.977 . S
C389 C385 1.684 . S
C389 H415 0.979 . S
C389 H416 0.980 . S
C389 H417 0.983 . S
C390 H366 0.948 . S
C390 C391 1.391 . S
C390 C395 1.391 . S
C391 C390 1.391 . S
C391 C392 1.391 . S
C392 H369 0.947 . S
C392 C391 1.391 . S
C392 C393 1.392 . S
C393 H370 0.948 . S
C393 C392 1.392 . S
C393 C394 1.419 . S
C394 C393 1.419 . S
C394 C395 1.391 . S
C394 C398 1.397 . S
C395 C390 1.391 . S
C395 C394 1.391 . S
C395 C396 1.399 . S
C396 C395 1.399 . S
C396 C397 1.396 . S
C396 C399 1.453 . S
C396 C400 1.684 . S
C397 C387 1.723 . S
C397 C396 1.396 . S
C397 C398 1.394 . S
C398 C368 1.723 . S
C398 C394 1.397 . S
C398 C397 1.394 . S
C399 H371 0.982 . S
C399 H375 0.979 . S
C399 H376 0.977 . S
C399 C396 1.453 . S
C400 H372 0.979 . S
C400 H373 0.980 . S
C400 H374 0.983 . S
C400 C396 1.684 . S
H401 C419 0.948 . S
H402 C360 0.948 . S
H403 C378 0.979 . S
H404 C378 0.980 . S
H405 C378 0.983 . S
H406 C377 0.982 . S
H407 C377 0.979 . S
H408 C377 0.977 . S
H409 C379 0.948 . S
H410 C381 0.947 . S
H411 C382 0.948 . S
H412 C388 0.982 . S
H413 C388 0.979 . S
H414 C388 0.977 . S
H415 C389 0.979 . S
H416 C389 0.980 . S
H417 C389 0.983 . S
H418 C362 0.947 . S
C419 C362 1.392 . S
C419 C363 1.419 . S
C419 H401 0.948 . S
C420 C421 1.391 . S
C420 C424 1.391 . S
C420 H462 0.948 . S
C421 C420 1.391 . S
C421 C422 1.391 . S
C422 C421 1.391 . S
C422 H478 0.947 . S
C422 C479 1.392 . S
C423 C424 1.391 . S
C423 C427 1.397 . S
C423 C479 1.419 . S
C424 C420 1.391 . S
C424 C423 1.391 . S
C424 C425 1.399 . S
C425 C424 1.399 . S
C425 C428 1.396 . S
C425 C437 1.453 . S
C425 C438 1.684 . S
H426 C450 0.948 . S
C427 C423 1.397 . S
C427 C428 1.394 . S
C427 C446 1.723 . S
C428 C425 1.396 . S
C428 C427 1.394 . S
C428 C458 1.723 . S
H429 C452 0.947 . S
H430 C453 0.948 . S
H431 C459 0.982 . S
H432 C460 0.979 . S
H433 C460 0.980 . S
H434 C460 0.983 . S
H435 C459 0.979 . S
H436 C459 0.977 . S
C437 C425 1.453 . S
C437 H466 0.982 . S
C437 H467 0.979 . S
C437 H468 0.977 . S
C438 C425 1.684 . S
C438 H463 0.979 . S
C438 H464 0.980 . S
C438 H465 0.983 . S
C439 C440 1.391 . S
C439 C444 1.391 . S
C439 H469 0.948 . S
C440 C439 1.391 . S
C440 C441 1.391 . S
C441 C440 1.391 . S
C441 C442 1.392 . S
C441 H470 0.947 . S
C442 C441 1.392 . S
C442 C443 1.419 . S
C442 H471 0.948 . S
C443 C442 1.419 . S
C443 C444 1.391 . S
C443 C447 1.397 . S
C444 C439 1.391 . S
C444 C443 1.391 . S
C444 C445 1.399 . S
C445 C444 1.399 . S
C445 C446 1.396 . S
C445 C448 1.453 . S
C445 C449 1.684 . S
C446 C427 1.723 . S
C446 C445 1.396 . S
C446 C447 1.394 . S
C447 C443 1.397 . S
C447 C446 1.394 . S
C447 C457 1.723 . S
C448 C445 1.453 . S
C448 H472 0.982 . S
C448 H473 0.979 . S
C448 H474 0.977 . S
C449 C445 1.684 . S
C449 H475 0.979 . S
C449 H476 0.980 . S
C449 H477 0.983 . S
C450 H426 0.948 . S
C450 C451 1.391 . S
C450 C455 1.391 . S
C451 C450 1.391 . S
C451 C452 1.391 . S
C452 H429 0.947 . S
C452 C451 1.391 . S
C452 C453 1.392 . S
C453 H430 0.948 . S
C453 C452 1.392 . S
C453 C454 1.419 . S
C454 C453 1.419 . S
C454 C455 1.391 . S
C454 C458 1.397 . S
C455 C450 1.391 . S
C455 C454 1.391 . S
C455 C456 1.399 . S
C456 C455 1.399 . S
C456 C457 1.396 . S
C456 C459 1.453 . S
C456 C460 1.684 . S
C457 C447 1.723 . S
C457 C456 1.396 . S
C457 C458 1.394 . S
C458 C428 1.723 . S
C458 C454 1.397 . S
C458 C457 1.394 . S
C459 H431 0.982 . S
C459 H435 0.979 . S
C459 H436 0.977 . S
C459 C456 1.453 . S
C460 H432 0.979 . S
C460 H433 0.980 . S
C460 H434 0.983 . S
C460 C456 1.684 . S
H461 C479 0.948 . S
H462 C420 0.948 . S
H463 C438 0.979 . S
H464 C438 0.980 . S
H465 C438 0.983 . S
H466 C437 0.982 . S
H467 C437 0.979 . S
H468 C437 0.977 . S
H469 C439 0.948 . S
H470 C441 0.947 . S
H471 C442 0.948 . S
H472 C448 0.982 . S
H473 C448 0.979 . S
H474 C448 0.977 . S
H475 C449 0.979 . S
H476 C449 0.980 . S
H477 C449 0.983 . S
H478 C422 0.947 . S
C479 C422 1.392 . S
C479 C423 1.419 . S
C479 H461 0.948 . S
C480 C482 1.422 . S
C480 C484 1.415 . S
C480 N486 1.369 . S
C481 C482 1.421 . S
C481 C483 1.417 . S
C481 C493 1.422 . S
C482 C480 1.422 . S
C482 C481 1.421 . S
C482 N492 1.359 . S
C483 C481 1.417 . S
C483 C485 1.329 . S
C483 H502 0.930 . S
C484 C480 1.415 . S
C484 C485 1.437 . S
C484 C488 1.413 . S
C485 C483 1.329 . S
C485 C484 1.437 . S
C485 H507 0.929 . S
N486 C480 1.369 . S
N486 C487 1.338 . S
N486 Gd491 2.622 . S
C487 N486 1.338 . S
C487 C489 1.378 . S
C487 H499 0.929 . S
C488 C484 1.413 . S
C488 C489 1.348 . S
C488 H504 0.931 . S
C489 C487 1.378 . S
C489 C488 1.348 . S
C489 H505 0.930 . S
Gd490 N510 2.622 . S
Gd490 N517 2.570 . S
Gd490 O524 2.353 . S
Gd490 O525 2.468 . S
Gd490 O526 2.427 . S
Gd490 O528 2.388 . S
Gd490 O529 2.386 . S
Gd490 O533 2.320 . S
Gd490 C543 2.805 . S
Gd491 N486 2.622 . S
Gd491 N492 2.570 . S
Gd491 O523 2.386 . S
Gd491 O527 2.307 1_655 S
Gd491 O530 2.336 1_655 S
Gd491 O531 2.468 . S
Gd491 O532 2.427 . S
Gd491 O534 2.388 . S
Gd491 C555 2.805 . S
N492 C482 1.359 . S
N492 Gd491 2.570 . S
N492 C494 1.343 . S
C493 C481 1.422 . S
C493 C495 1.321 . S
C493 H501 0.931 . S
C494 N492 1.343 . S
C494 C495 1.390 . S
C494 H496 0.931 . S
C495 C493 1.321 . S
C495 C494 1.390 . S
C495 H497 0.930 . S
H496 C494 0.931 . S
H497 C495 0.930 . S
H498 C521 0.931 . S
H499 C487 0.929 . S
H500 C522 0.930 . S
H501 C493 0.931 . S
H502 C483 0.930 . S
H503 C512 0.929 . S
H504 C488 0.931 . S
H505 C489 0.930 . S
H506 C544 0.930 . S
H507 C485 0.929 . S
H508 C513 0.931 . S
H509 C514 0.930 . S
N510 Gd490 2.622 . S
N510 C511 1.369 . S
N510 C512 1.338 . S
C511 N510 1.369 . S
C511 C515 1.415 . S
C511 C518 1.422 . S
C512 H503 0.929 . S
C512 N510 1.338 . S
C512 C514 1.378 . S
C513 H508 0.931 . S
C513 C514 1.348 . S
C513 C515 1.413 . S
C514 H509 0.930 . S
C514 C512 1.378 . S
C514 C513 1.348 . S
C515 C511 1.415 . S
C515 C513 1.413 . S
C515 C545 1.437 . S
H516 C545 0.929 . S
N517 Gd490 2.570 . S
N517 C518 1.359 . S
N517 C521 1.343 . S
C518 C511 1.422 . S
C518 N517 1.359 . S
C518 C520 1.421 . S
C519 C520 1.422 . S
C519 C522 1.321 . S
C519 H546 0.931 . S
C520 C518 1.421 . S
C520 C519 1.422 . S
C520 C544 1.417 . S
C521 H498 0.931 . S
C521 N517 1.343 . S
C521 C522 1.390 . S
C522 H500 0.930 . S
C522 C519 1.321 . S
C522 C521 1.390 . S
O523 Gd491 2.386 . S
O523 C535 1.265 . S
O524 Gd490 2.353 . S
O524 C535 1.242 1_455 S
O525 Gd490 2.468 . S
O525 C543 1.263 . S
O526 Gd490 2.427 . S
O526 C543 1.252 . S
O527 Gd491 2.307 1_455 S
O527 C536 1.261 . S
O528 Gd490 2.388 . S
O528 C536 1.252 . S
O529 Gd490 2.386 . S
O529 C547 1.265 . S
O530 Gd491 2.336 1_455 S
O530 C547 1.263 . S
O531 Gd491 2.468 . S
O531 C555 1.263 . S
O532 Gd491 2.427 . S
O532 C555 1.252 . S
O533 Gd490 2.320 . S
O533 C548 1.246 1_455 S
O534 Gd491 2.388 . S
O534 C548 1.252 . S
C535 O523 1.265 . S
C535 O524 1.242 1_655 S
C536 O527 1.261 . S
C536 O528 1.252 . S
C537 C540 1.394 . S
C537 C542 1.370 . S
C537 C543 1.500 . S
C538 C541 1.383 . S
C538 C542 1.395 . S
C539 C540 1.396 . S
C539 C541 1.365 . S
C539 H556 0.929 . S
C540 C537 1.394 . S
C540 C539 1.396 . S
C540 H557 0.930 . S
C541 C538 1.383 . S
C541 C539 1.365 . S
C541 H558 0.931 . S
C542 C537 1.370 . S
C542 C538 1.395 . S
C542 H559 0.930 . S
C543 Gd490 2.805 . S
C543 O525 1.263 . S
C543 O526 1.252 . S
C543 C537 1.500 . S
C544 H506 0.930 . S
C544 C520 1.417 . S
C544 C545 1.329 . S
C545 C515 1.437 . S
C545 H516 0.929 . S
C545 C544 1.329 . S
H546 C519 0.931 . S
C547 O529 1.265 . S
C547 O530 1.263 . S
C548 O533 1.246 1_655 S
C548 O534 1.252 . S
C549 C552 1.394 . S
C549 C554 1.370 . S
C549 C555 1.500 . S
C550 C553 1.383 . S
C550 C554 1.395 . S
C551 C552 1.396 . S
C551 C553 1.365 . S
C551 H560 0.929 . S
C552 C549 1.394 . S
C552 C551 1.396 . S
C552 H561 0.930 . S
C553 C550 1.383 . S
C553 C551 1.365 . S
C553 H562 0.931 . S
C554 C549 1.370 . S
C554 C550 1.395 . S
C554 H563 0.930 . S
C555 Gd491 2.805 . S
C555 O531 1.263 . S
C555 O532 1.252 . S
C555 C549 1.500 . S
H556 C539 0.929 . S
H557 C540 0.930 . S
H558 C541 0.931 . S
H559 C542 0.930 . S
H560 C551 0.929 . S
H561 C552 0.930 . S
H562 C553 0.931 . S
H563 C554 0.930 . S
C564 C566 1.422 . S
C564 C568 1.415 . S
C564 N570 1.369 . S
C565 C566 1.421 . S
C565 C567 1.417 . S
C565 C577 1.422 . S
C566 C564 1.422 . S
C566 C565 1.421 . S
C566 N576 1.359 . S
C567 C565 1.417 . S
C567 C569 1.329 . S
C567 H586 0.930 . S
C568 C564 1.415 . S
C568 C569 1.437 . S
C568 C572 1.413 . S
C569 C567 1.329 . S
C569 C568 1.437 . S
C569 H591 0.929 . S
N570 C564 1.369 . S
N570 C571 1.338 . S
N570 Gd575 2.622 . S
C571 N570 1.338 . S
C571 C573 1.378 . S
C571 H583 0.929 . S
C572 C568 1.413 . S
C572 C573 1.348 . S
C572 H588 0.931 . S
C573 C571 1.378 . S
C573 C572 1.348 . S
C573 H589 0.930 . S
Gd574 N594 2.622 . S
Gd574 N601 2.570 . S
Gd574 O608 2.353 . S
Gd574 O609 2.468 . S
Gd574 O610 2.427 . S
Gd574 O612 2.388 . S
Gd574 O613 2.386 . S
Gd574 O617 2.307 . S
Gd574 C627 2.805 . S
Gd575 N570 2.622 . S
Gd575 N576 2.570 . S
Gd575 O607 2.386 . S
Gd575 O611 2.307 . S
Gd575 O614 2.353 . S
Gd575 O615 2.468 . S
Gd575 O616 2.427 . S
Gd575 O618 2.388 . S
Gd575 C639 2.805 . S
N576 C566 1.359 . S
N576 Gd575 2.570 . S
N576 C578 1.343 . S
C577 C565 1.422 . S
C577 C579 1.321 . S
C577 H585 0.931 . S
C578 N576 1.343 . S
C578 C579 1.390 . S
C578 H580 0.931 . S
C579 C577 1.321 . S
C579 C578 1.390 . S
C579 H581 0.930 . S
H580 C578 0.931 . S
H581 C579 0.930 . S
H582 C605 0.931 . S
H583 C571 0.929 . S
H584 C606 0.930 . S
H585 C577 0.931 . S
H586 C567 0.930 . S
H587 C596 0.929 . S
H588 C572 0.931 . S
H589 C573 0.930 . S
H590 C628 0.930 . S
H591 C569 0.929 . S
H592 C597 0.931 . S
H593 C598 0.930 . S
N594 Gd574 2.622 . S
N594 C595 1.369 . S
N594 C596 1.338 . S
C595 N594 1.369 . S
C595 C599 1.415 . S
C595 C602 1.422 . S
C596 H587 0.929 . S
C596 N594 1.338 . S
C596 C598 1.378 . S
C597 H592 0.931 . S
C597 C598 1.348 . S
C597 C599 1.413 . S
C598 H593 0.930 . S
C598 C596 1.378 . S
C598 C597 1.348 . S
C599 C595 1.415 . S
C599 C597 1.413 . S
C599 C629 1.437 . S
H600 C629 0.929 . S
N601 Gd574 2.570 . S
N601 C602 1.359 . S
N601 C605 1.343 . S
C602 C595 1.422 . S
C602 N601 1.359 . S
C602 C604 1.421 . S
C603 C604 1.422 . S
C603 C606 1.321 . S
C603 H630 0.931 . S
C604 C602 1.421 . S
C604 C603 1.422 . S
C604 C628 1.417 . S
C605 H582 0.931 . S
C605 N601 1.343 . S
C605 C606 1.390 . S
C606 H584 0.930 . S
C606 C603 1.321 . S
C606 C605 1.390 . S
O607 Gd575 2.386 . S
O607 C619 1.265 . S
O608 Gd574 2.353 . S
O608 C619 1.242 . S
O609 Gd574 2.468 . S
O609 C627 1.263 . S
O610 Gd574 2.427 . S
O610 C627 1.252 . S
O611 Gd575 2.307 . S
O611 C620 1.261 . S
O612 Gd574 2.388 . S
O612 C620 1.252 . S
O613 Gd574 2.386 . S
O613 C631 1.265 . S
O614 Gd575 2.353 . S
O614 C631 1.242 . S
O615 Gd575 2.468 . S
O615 C639 1.263 . S
O616 Gd575 2.427 . S
O616 C639 1.252 . S
O617 Gd574 2.307 . S
O617 C632 1.261 . S
O618 Gd575 2.388 . S
O618 C632 1.252 . S
C619 O607 1.265 . S
C619 O608 1.242 . S
C620 O611 1.261 . S
C620 O612 1.252 . S
C621 C624 1.394 . S
C621 C626 1.370 . S
C621 C627 1.500 . S
C622 C625 1.383 . S
C622 C626 1.395 . S
C623 C624 1.396 . S
C623 C625 1.365 . S
C623 H640 0.929 . S
C624 C621 1.394 . S
C624 C623 1.396 . S
C624 H641 0.930 . S
C625 C622 1.383 . S
C625 C623 1.365 . S
C625 H642 0.931 . S
C626 C621 1.370 . S
C626 C622 1.395 . S
C626 H643 0.930 . S
C627 Gd574 2.805 . S
C627 O609 1.263 . S
C627 O610 1.252 . S
C627 C621 1.500 . S
C628 H590 0.930 . S
C628 C604 1.417 . S
C628 C629 1.329 . S
C629 C599 1.437 . S
C629 H600 0.929 . S
C629 C628 1.329 . S
H630 C603 0.931 . S
C631 O613 1.265 . S
C631 O614 1.242 . S
C632 O617 1.261 . S
C632 O618 1.252 . S
C633 C636 1.394 . S
C633 C638 1.370 . S
C633 C639 1.500 . S
C634 C637 1.383 . S
C634 C638 1.395 . S
C635 C636 1.396 . S
C635 C637 1.365 . S
C635 H644 0.929 . S
C636 C633 1.394 . S
C636 C635 1.396 . S
C636 H645 0.930 . S
C637 C634 1.383 . S
C637 C635 1.365 . S
C637 H646 0.931 . S
C638 C633 1.370 . S
C638 C634 1.395 . S
C638 H647 0.930 . S
C639 Gd575 2.805 . S
C639 O615 1.263 . S
C639 O616 1.252 . S
C639 C633 1.500 . S
H640 C623 0.929 . S
H641 C624 0.930 . S
H642 C625 0.931 . S
H643 C626 0.930 . S
H644 C635 0.929 . S
H645 C636 0.930 . S
H646 C637 0.931 . S
H647 C638 0.930 . S
C648 C650 1.422 . S
C648 C652 1.415 . S
C648 N654 1.369 . S
C649 C650 1.421 . S
C649 C651 1.417 . S
C649 C661 1.422 . S
C650 C648 1.422 . S
C650 C649 1.421 . S
C650 N660 1.359 . S
C651 C649 1.417 . S
C651 C653 1.329 . S
C651 H670 0.930 . S
C652 C648 1.415 . S
C652 C653 1.437 . S
C652 C656 1.413 . S
C653 C651 1.329 . S
C653 C652 1.437 . S
C653 H675 0.929 . S
N654 C648 1.369 . S
N654 C655 1.338 . S
N654 Gd659 2.622 . S
C655 N654 1.338 . S
C655 C657 1.378 . S
C655 H667 0.929 . S
C656 C652 1.413 . S
C656 C657 1.348 . S
C656 H672 0.931 . S
C657 C655 1.378 . S
C657 C656 1.348 . S
C657 H673 0.930 . S
Gd658 N678 2.622 . S
Gd658 N685 2.570 . S
Gd658 O692 2.353 . S
Gd658 O693 2.468 . S
Gd658 O694 2.427 . S
Gd658 O696 2.388 . S
Gd658 O697 2.386 . S
Gd658 O701 2.307 . S
Gd658 C711 2.805 . S
Gd659 N654 2.622 . S
Gd659 N660 2.570 . S
Gd659 O691 2.386 . S
Gd659 O695 2.307 1_655 S
Gd659 O698 2.353 1_655 S
Gd659 O699 2.468 . S
Gd659 O700 2.427 . S
Gd659 O702 2.388 . S
Gd659 C723 2.805 . S
N660 C650 1.359 . S
N660 Gd659 2.570 . S
N660 C662 1.343 . S
C661 C649 1.422 . S
C661 C663 1.321 . S
C661 H669 0.931 . S
C662 N660 1.343 . S
C662 C663 1.390 . S
C662 H664 0.931 . S
C663 C661 1.321 . S
C663 C662 1.390 . S
C663 H665 0.930 . S
H664 C662 0.931 . S
H665 C663 0.930 . S
H666 C689 0.931 . S
H667 C655 0.929 . S
H668 C690 0.930 . S
H669 C661 0.931 . S
H670 C651 0.930 . S
H671 C680 0.929 . S
H672 C656 0.931 . S
H673 C657 0.930 . S
H674 C712 0.930 . S
H675 C653 0.929 . S
H676 C681 0.931 . S
H677 C682 0.930 . S
N678 Gd658 2.622 . S
N678 C679 1.369 . S
N678 C680 1.338 . S
C679 N678 1.369 . S
C679 C683 1.415 . S
C679 C686 1.422 . S
C680 H671 0.929 . S
C680 N678 1.338 . S
C680 C682 1.378 . S
C681 H676 0.931 . S
C681 C682 1.348 . S
C681 C683 1.413 . S
C682 H677 0.930 . S
C682 C680 1.378 . S
C682 C681 1.348 . S
C683 C679 1.415 . S
C683 C681 1.413 . S
C683 C713 1.437 . S
H684 C713 0.929 . S
N685 Gd658 2.570 . S
N685 C686 1.359 . S
N685 C689 1.343 . S
C686 C679 1.422 . S
C686 N685 1.359 . S
C686 C688 1.421 . S
C687 C688 1.422 . S
C687 C690 1.321 . S
C687 H714 0.931 . S
C688 C686 1.421 . S
C688 C687 1.422 . S
C688 C712 1.417 . S
C689 H666 0.931 . S
C689 N685 1.343 . S
C689 C690 1.390 . S
C690 H668 0.930 . S
C690 C687 1.321 . S
C690 C689 1.390 . S
O691 Gd659 2.386 . S
O691 C703 1.265 . S
O692 Gd658 2.353 . S
O692 C703 1.242 1_455 S
O693 Gd658 2.468 . S
O693 C711 1.263 . S
O694 Gd658 2.427 . S
O694 C711 1.252 . S
O695 Gd659 2.307 1_455 S
O695 C704 1.261 . S
O696 Gd658 2.388 . S
O696 C704 1.252 . S
O697 Gd658 2.386 . S
O697 C715 1.265 . S
O698 Gd659 2.353 1_455 S
O698 C715 1.242 . S
O699 Gd659 2.468 . S
O699 C723 1.263 . S
O700 Gd659 2.427 . S
O700 C723 1.252 . S
O701 Gd658 2.307 . S
O701 C716 1.261 1_455 S
O702 Gd659 2.388 . S
O702 C716 1.252 . S
C703 O691 1.265 . S
C703 O692 1.242 1_655 S
C704 O695 1.261 . S
C704 O696 1.252 . S
C705 C708 1.394 . S
C705 C710 1.370 . S
C705 C711 1.500 . S
C706 C709 1.383 . S
C706 C710 1.395 . S
C707 C708 1.396 . S
C707 C709 1.365 . S
C707 H724 0.929 . S
C708 C705 1.394 . S
C708 C707 1.396 . S
C708 H725 0.930 . S
C709 C706 1.383 . S
C709 C707 1.365 . S
C709 H726 0.931 . S
C710 C705 1.370 . S
C710 C706 1.395 . S
C710 H727 0.930 . S
C711 Gd658 2.805 . S
C711 O693 1.263 . S
C711 O694 1.252 . S
C711 C705 1.500 . S
C712 H674 0.930 . S
C712 C688 1.417 . S
C712 C713 1.329 . S
C713 C683 1.437 . S
C713 H684 0.929 . S
C713 C712 1.329 . S
H714 C687 0.931 . S
C715 O697 1.265 . S
C715 O698 1.242 . S
C716 O701 1.261 1_655 S
C716 O702 1.252 . S
C717 C720 1.394 . S
C717 C722 1.370 . S
C717 C723 1.500 . S
C718 C721 1.383 . S
C718 C722 1.395 . S
C719 C720 1.396 . S
C719 C721 1.365 . S
C719 H728 0.929 . S
C720 C717 1.394 . S
C720 C719 1.396 . S
C720 H729 0.930 . S
C721 C718 1.383 . S
C721 C719 1.365 . S
C721 H730 0.931 . S
C722 C717 1.370 . S
C722 C718 1.395 . S
C722 H731 0.930 . S
C723 Gd659 2.805 . S
C723 O699 1.263 . S
C723 O700 1.252 . S
C723 C717 1.500 . S
H724 C707 0.929 . S
H725 C708 0.930 . S
H726 C709 0.931 . S
H727 C710 0.930 . S
H728 C719 0.929 . S
H729 C720 0.930 . S
H730 C721 0.931 . S
H731 C722 0.930 . S
C732 C734 1.422 . S
C732 C736 1.415 . S
C732 N738 1.369 . S
C733 C734 1.421 . S
C733 C735 1.417 . S
C733 C745 1.422 . S
C734 C732 1.422 . S
C734 C733 1.421 . S
C734 N744 1.359 . S
C735 C733 1.417 . S
C735 C737 1.329 . S
C735 H754 0.930 . S
C736 C732 1.415 . S
C736 C737 1.437 . S
C736 C740 1.413 . S
C737 C735 1.329 . S
C737 C736 1.437 . S
C737 H759 0.929 . S
N738 C732 1.369 . S
N738 C739 1.338 . S
N738 Gd743 2.622 . S
C739 N738 1.338 . S
C739 C741 1.378 . S
C739 H751 0.929 . S
C740 C736 1.413 . S
C740 C741 1.348 . S
C740 H756 0.931 . S
C741 C739 1.378 . S
C741 C740 1.348 . S
C741 H757 0.930 . S
Gd742 N762 2.622 . S
Gd742 N769 2.570 . S
Gd742 O776 2.353 . S
Gd742 O777 2.468 . S
Gd742 O778 2.427 . S
Gd742 O780 2.388 . S
Gd742 O781 2.386 . S
Gd742 O785 2.307 . S
Gd742 C795 2.805 . S
Gd743 N738 2.622 . S
Gd743 N744 2.570 . S
Gd743 O775 2.386 . S
Gd743 O779 2.307 . S
Gd743 O782 2.353 . S
Gd743 O783 2.468 . S
Gd743 O784 2.427 . S
Gd743 O786 2.388 . S
Gd743 C807 2.805 . S
N744 C734 1.359 . S
N744 Gd743 2.570 . S
N744 C746 1.343 . S
C745 C733 1.422 . S
C745 C747 1.321 . S
C745 H753 0.931 . S
C746 N744 1.343 . S
C746 C747 1.390 . S
C746 H748 0.931 . S
C747 C745 1.321 . S
C747 C746 1.390 . S
C747 H749 0.930 . S
H748 C746 0.931 . S
H749 C747 0.930 . S
H750 C773 0.931 . S
H751 C739 0.929 . S
H752 C774 0.930 . S
H753 C745 0.931 . S
H754 C735 0.930 . S
H755 C764 0.929 . S
H756 C740 0.931 . S
H757 C741 0.930 . S
H758 C796 0.930 . S
H759 C737 0.929 . S
H760 C765 0.931 . S
H761 C766 0.930 . S
N762 Gd742 2.622 . S
N762 C763 1.369 . S
N762 C764 1.338 . S
C763 N762 1.369 . S
C763 C767 1.415 . S
C763 C770 1.422 . S
C764 H755 0.929 . S
C764 N762 1.338 . S
C764 C766 1.378 . S
C765 H760 0.931 . S
C765 C766 1.348 . S
C765 C767 1.413 . S
C766 H761 0.930 . S
C766 C764 1.378 . S
C766 C765 1.348 . S
C767 C763 1.415 . S
C767 C765 1.413 . S
C767 C797 1.437 . S
H768 C797 0.929 . S
N769 Gd742 2.570 . S
N769 C770 1.359 . S
N769 C773 1.343 . S
C770 C763 1.422 . S
C770 N769 1.359 . S
C770 C772 1.421 . S
C771 C772 1.422 . S
C771 C774 1.321 . S
C771 H798 0.931 . S
C772 C770 1.421 . S
C772 C771 1.422 . S
C772 C796 1.417 . S
C773 H750 0.931 . S
C773 N769 1.343 . S
C773 C774 1.390 . S
C774 H752 0.930 . S
C774 C771 1.321 . S
C774 C773 1.390 . S
O775 Gd743 2.386 . S
O775 C787 1.265 . S
O776 Gd742 2.353 . S
O776 C787 1.242 . S
O777 Gd742 2.468 . S
O777 C795 1.263 . S
O778 Gd742 2.427 . S
O778 C795 1.252 . S
O779 Gd743 2.307 . S
O779 C788 1.261 . S
O780 Gd742 2.388 . S
O780 C788 1.252 . S
O781 Gd742 2.386 . S
O781 C799 1.265 . S
O782 Gd743 2.353 . S
O782 C799 1.242 . S
O783 Gd743 2.468 . S
O783 C807 1.263 . S
O784 Gd743 2.427 . S
O784 C807 1.252 . S
O785 Gd742 2.307 . S
O785 C800 1.261 . S
O786 Gd743 2.388 . S
O786 C800 1.252 . S
C787 O775 1.265 . S
C787 O776 1.242 . S
C788 O779 1.261 . S
C788 O780 1.252 . S
C789 C792 1.394 . S
C789 C794 1.370 . S
C789 C795 1.500 . S
C790 C793 1.383 . S
C790 C794 1.395 . S
C791 C792 1.396 . S
C791 C793 1.365 . S
C791 H808 0.929 . S
C792 C789 1.394 . S
C792 C791 1.396 . S
C792 H809 0.930 . S
C793 C790 1.383 . S
C793 C791 1.365 . S
C793 H810 0.931 . S
C794 C789 1.370 . S
C794 C790 1.395 . S
C794 H811 0.930 . S
C795 Gd742 2.805 . S
C795 O777 1.263 . S
C795 O778 1.252 . S
C795 C789 1.500 . S
C796 H758 0.930 . S
C796 C772 1.417 . S
C796 C797 1.329 . S
C797 C767 1.437 . S
C797 H768 0.929 . S
C797 C796 1.329 . S
H798 C771 0.931 . S
C799 O781 1.265 . S
C799 O782 1.242 . S
C800 O785 1.261 . S
C800 O786 1.252 . S
C801 C804 1.394 . S
C801 C806 1.370 . S
C801 C807 1.500 . S
C802 C805 1.383 . S
C802 C806 1.395 . S
C803 C804 1.396 . S
C803 C805 1.365 . S
C803 H812 0.929 . S
C804 C801 1.394 . S
C804 C803 1.396 . S
C804 H813 0.930 . S
C805 C802 1.383 . S
C805 C803 1.365 . S
C805 H814 0.931 . S
C806 C801 1.370 . S
C806 C802 1.395 . S
C806 H815 0.930 . S
C807 Gd743 2.805 . S
C807 O783 1.263 . S
C807 O784 1.252 . S
C807 C801 1.500 . S
H808 C791 0.929 . S
H809 C792 0.930 . S
H810 C793 0.931 . S
H811 C794 0.930 . S
H812 C803 0.929 . S
H813 C804 0.930 . S
H814 C805 0.931 . S
H815 C806 0.930 . S
H816 C824 0.950 . S
H817 C829 0.950 . S
H818 C826 0.950 . S
H819 C828 0.950 . S
H820 C830 0.950 . S
H821 C832 0.950 . S
H822 C834 0.950 . S
H823 C835 0.950 . S
C824 H816 0.950 . S
C824 C825 1.386 1_545 S
C824 C826 1.391 . S
C825 C824 1.386 1_565 S
C825 C829 1.393 . S
C826 H818 0.950 . S
C826 C824 1.391 . S
C826 C827 1.400 . S
C827 C826 1.400 . S
C827 C828 1.398 . S
C827 C833 1.491 . S
C828 H819 0.950 . S
C828 C827 1.398 . S
C828 C829 1.391 1_545 S
C829 H817 0.950 . S
C829 C825 1.393 . S
C829 C828 1.391 1_565 S
C830 H820 0.950 . S
C830 C831 1.386 . S
C830 C832 1.391 . S
C831 C830 1.386 . S
C831 C835 1.393 . S
C832 H821 0.950 . S
C832 C830 1.391 . S
C832 C833 1.400 . S
C833 C827 1.491 . S
C833 C832 1.400 . S
C833 C834 1.398 . S
C834 H822 0.950 . S
C834 C833 1.398 . S
C834 C835 1.391 . S
C835 H823 0.950 . S
C835 C831 1.393 . S
C835 C834 1.391 . S
H836 C844 0.950 . S
H837 C849 0.950 . S
H838 C846 0.950 . S
H839 C848 0.950 . S
H840 C850 0.950 . S
H841 C852 0.950 . S
H842 C854 0.950 . S
H843 C855 0.950 . S
C844 H836 0.950 . S
C844 C845 1.386 . S
C844 C846 1.391 . S
C845 C844 1.386 . S
C845 C849 1.393 . S
C846 H838 0.950 . S
C846 C844 1.391 . S
C846 C847 1.400 . S
C847 C846 1.400 . S
C847 C848 1.398 . S
C847 C853 1.491 . S
C848 H839 0.950 . S
C848 C847 1.398 . S
C848 C849 1.391 . S
C849 H837 0.950 . S
C849 C845 1.393 . S
C849 C848 1.391 . S
C850 H840 0.950 . S
C850 C851 1.386 . S
C850 C852 1.391 . S
C851 C850 1.386 . S
C851 C855 1.393 . S
C852 H841 0.950 . S
C852 C850 1.391 . S
C852 C853 1.400 . S
C853 C847 1.491 . S
C853 C852 1.400 . S
C853 C854 1.398 . S
C854 H842 0.950 . S
C854 C853 1.398 . S
C854 C855 1.391 . S
C855 H843 0.950 . S
C855 C851 1.393 . S
C855 C854 1.391 . S
H856 C864 0.950 . S
H857 C869 0.950 . S
H858 C866 0.950 . S
H859 C868 0.950 . S
H860 C870 0.950 . S
H861 C872 0.950 . S
H862 C874 0.950 . S
H863 C875 0.950 . S
C864 H856 0.950 . S
C864 C865 1.386 . S
C864 C866 1.391 . S
C865 C864 1.386 . S
C865 C869 1.393 . S
C866 H858 0.950 . S
C866 C864 1.391 . S
C866 C867 1.400 . S
C867 C866 1.400 . S
C867 C868 1.398 . S
C867 C873 1.491 . S
C868 H859 0.950 . S
C868 C867 1.398 . S
C868 C869 1.391 . S
C869 H857 0.950 . S
C869 C865 1.393 . S
C869 C868 1.391 . S
C870 H860 0.950 . S
C870 C871 1.386 . S
C870 C872 1.391 . S
C871 C870 1.386 . S
C871 C875 1.393 . S
C872 H861 0.950 . S
C872 C870 1.391 . S
C872 C873 1.400 . S
C873 C867 1.491 . S
C873 C872 1.400 . S
C873 C874 1.398 . S
C874 H862 0.950 . S
C874 C873 1.398 . S
C874 C875 1.391 . S
C875 H863 0.950 . S
C875 C871 1.393 . S
C875 C874 1.391 . S
H876 C884 0.950 . S
H877 C889 0.950 . S
H878 C886 0.950 1_565 S
H879 C888 0.950 . S
H880 C890 0.950 . S
H881 C892 0.950 . S
H882 C894 0.950 . S
H883 C895 0.950 . S
C884 H876 0.950 . S
C884 C885 1.386 . S
C884 C886 1.391 1_565 S
C885 C884 1.386 . S
C885 C889 1.393 1_565 S
C886 H878 0.950 1_545 S
C886 C884 1.391 1_545 S
C886 C887 1.400 . S
C887 C886 1.400 . S
C887 C888 1.398 . S
C887 C893 1.491 . S
C888 H879 0.950 . S
C888 C887 1.398 . S
C888 C889 1.391 . S
C889 H877 0.950 . S
C889 C885 1.393 1_545 S
C889 C888 1.391 . S
C890 H880 0.950 . S
C890 C891 1.386 . S
C890 C892 1.391 . S
C891 C890 1.386 . S
C891 C895 1.393 . S
C892 H881 0.950 . S
C892 C890 1.391 . S
C892 C893 1.400 . S
C893 C887 1.491 . S
C893 C892 1.400 . S
C893 C894 1.398 . S
C894 H882 0.950 . S
C894 C893 1.398 . S
C894 C895 1.391 . S
C895 H883 0.950 . S
C895 C891 1.393 . S
C895 C894 1.391 . S
H896 C904 0.950 . S
H897 C909 0.950 . S
H898 C906 0.950 . S
H899 C908 0.950 . S
H900 C910 0.950 . S
H901 C912 0.950 . S
H902 C914 0.950 . S
H903 C915 0.950 . S
C904 H896 0.950 . S
C904 C905 1.386 1_565 S
C904 C906 1.391 . S
C905 C904 1.386 1_545 S
C905 C909 1.393 . S
C906 H898 0.950 . S
C906 C904 1.391 . S
C906 C907 1.400 . S
C907 C906 1.400 . S
C907 C908 1.398 . S
C907 C913 1.491 . S
C908 H899 0.950 . S
C908 C907 1.398 . S
C908 C909 1.391 1_565 S
C909 H897 0.950 . S
C909 C905 1.393 . S
C909 C908 1.391 1_545 S
C910 H900 0.950 . S
C910 C911 1.386 . S
C910 C912 1.391 . S
C911 C910 1.386 . S
C911 C915 1.393 . S
C912 H901 0.950 . S
C912 C910 1.391 . S
C912 C913 1.400 . S
C913 C907 1.491 . S
C913 C912 1.400 . S
C913 C914 1.398 . S
C914 H902 0.950 . S
C914 C913 1.398 . S
C914 C915 1.391 . S
C915 H903 0.950 . S
C915 C911 1.393 . S
C915 C914 1.391 . S
H916 C924 0.950 . S
H917 C929 0.950 . S
H918 C926 0.950 . S
H919 C928 0.950 . S
H920 C930 0.950 . S
H921 C932 0.950 . S
H922 C934 0.950 . S
H923 C935 0.950 . S
C924 H916 0.950 . S
C924 C925 1.386 . S
C924 C926 1.391 . S
C925 C924 1.386 . S
C925 C929 1.393 . S
C926 H918 0.950 . S
C926 C924 1.391 . S
C926 C927 1.400 . S
C927 C926 1.400 . S
C927 C928 1.398 . S
C927 C933 1.491 . S
C928 H919 0.950 . S
C928 C927 1.398 . S
C928 C929 1.391 . S
C929 H917 0.950 . S
C929 C925 1.393 . S
C929 C928 1.391 . S
C930 H920 0.950 . S
C930 C931 1.386 . S
C930 C932 1.391 . S
C931 C930 1.386 . S
C931 C935 1.393 . S
C932 H921 0.950 . S
C932 C930 1.391 . S
C932 C933 1.400 . S
C933 C927 1.491 . S
C933 C932 1.400 . S
C933 C934 1.398 . S
C934 H922 0.950 . S
C934 C933 1.398 . S
C934 C935 1.391 . S
C935 H923 0.950 . S
C935 C931 1.393 . S
C935 C934 1.391 . S
H936 C944 0.950 . S
H937 C949 0.950 . S
H938 C946 0.950 . S
H939 C948 0.950 . S
H940 C950 0.950 . S
H941 C952 0.950 . S
H942 C954 0.950 . S
H943 C955 0.950 . S
C944 H936 0.950 . S
C944 C945 1.386 . S
C944 C946 1.391 . S
C945 C944 1.386 . S
C945 C949 1.393 . S
C946 H938 0.950 . S
C946 C944 1.391 . S
C946 C947 1.400 . S
C947 C946 1.400 . S
C947 C948 1.398 . S
C947 C953 1.491 . S
C948 H939 0.950 . S
C948 C947 1.398 . S
C948 C949 1.391 . S
C949 H937 0.950 . S
C949 C945 1.393 . S
C949 C948 1.391 . S
C950 H940 0.950 . S
C950 C951 1.386 . S
C950 C952 1.391 . S
C951 C950 1.386 . S
C951 C955 1.393 . S
C952 H941 0.950 . S
C952 C950 1.391 . S
C952 C953 1.400 . S
C953 C947 1.491 . S
C953 C952 1.400 . S
C953 C954 1.398 . S
C954 H942 0.950 . S
C954 C953 1.398 . S
C954 C955 1.391 . S
C955 H943 0.950 . S
C955 C951 1.393 . S
C955 C954 1.391 . S
H956 C964 0.944 1_545 S
H957 C969 0.950 . S
H958 C966 0.950 . S
H959 C968 0.950 . S
H960 C970 0.950 . S
H961 C972 0.950 . S
H962 C974 0.950 . S
H963 C975 0.950 . S
C964 H956 0.944 1_565 S
C964 C965 1.380 1_565 S
C964 C966 1.403 . S
C965 C964 1.380 1_545 S
C965 C969 1.393 . S
C966 H958 0.950 . S
C966 C964 1.403 . S
C966 C967 1.400 . S
C967 C966 1.400 . S
C967 C968 1.398 . S
C967 C973 1.491 . S
C968 H959 0.950 . S
C968 C967 1.398 . S
C968 C969 1.391 1_565 S
C969 H957 0.950 . S
C969 C965 1.393 . S
C969 C968 1.391 1_545 S
C970 H960 0.950 . S
C970 C971 1.386 . S
C970 C972 1.391 . S
C971 C970 1.386 . S
C971 C975 1.393 . S
C972 H961 0.950 . S
C972 C970 1.391 . S
C972 C973 1.400 . S
C973 C967 1.491 . S
C973 C972 1.400 . S
C973 C974 1.398 . S
C974 H962 0.950 . S
C974 C973 1.398 . S
C974 C975 1.391 . S
C975 H963 0.950 . S
C975 C971 1.393 . S
C975 C974 1.391 . S
H976 C984 0.950 . S
H977 C989 0.950 . S
H978 C986 0.950 . S
H979 C988 0.950 . S
H980 C990 0.950 . S
H981 C992 0.950 . S
H982 C994 0.950 . S
H983 C995 0.950 . S
C984 H976 0.950 . S
C984 C985 1.386 . S
C984 C986 1.391 . S
C985 C984 1.386 . S
C985 C989 1.393 . S
C986 H978 0.950 . S
C986 C984 1.391 . S
C986 C987 1.400 . S
C987 C986 1.400 . S
C987 C988 1.398 . S
C987 C993 1.491 . S
C988 H979 0.950 . S
C988 C987 1.398 . S
C988 C989 1.391 . S
C989 H977 0.950 . S
C989 C985 1.393 . S
C989 C988 1.391 . S
C990 H980 0.950 . S
C990 C991 1.386 . S
C990 C992 1.391 . S
C991 C990 1.386 . S
C991 C995 1.393 . S
C992 H981 0.950 . S
C992 C990 1.391 . S
C992 C993 1.400 . S
C993 C987 1.491 . S
C993 C992 1.400 . S
C993 C994 1.398 . S
C994 H982 0.950 . S
C994 C993 1.398 . S
C994 C995 1.391 . S
C995 H983 0.950 . S
C995 C991 1.393 . S
C995 C994 1.391 . S
H996 C1004 0.950 . S
H997 C1009 0.950 . S
H998 C1006 0.950 . S
H999 C1008 0.950 . S
H1000 C1010 0.950 . S
H1001 C1012 0.950 . S
H1002 C1014 0.950 . S
H1003 C1015 0.950 . S
C1004 H996 0.950 . S
C1004 C1005 1.386 . S
C1004 C1006 1.391 . S
C1005 C1004 1.386 . S
C1005 C1009 1.393 . S
C1006 H998 0.950 . S
C1006 C1004 1.391 . S
C1006 C1007 1.400 . S
C1007 C1006 1.400 . S
C1007 C1008 1.398 . S
C1007 C1013 1.491 . S
C1008 H999 0.950 . S
C1008 C1007 1.398 . S
C1008 C1009 1.391 . S
C1009 H997 0.950 . S
C1009 C1005 1.393 . S
C1009 C1008 1.391 . S
C1010 H1000 0.950 . S
C1010 C1011 1.386 . S
C1010 C1012 1.391 . S
C1011 C1010 1.386 . S
C1011 C1015 1.393 . S
C1012 H1001 0.950 . S
C1012 C1010 1.391 . S
C1012 C1013 1.400 . S
C1013 C1007 1.491 . S
C1013 C1012 1.400 . S
C1013 C1014 1.398 . S
C1014 H1002 0.950 . S
C1014 C1013 1.398 . S
C1014 C1015 1.391 . S
C1015 H1003 0.950 . S
C1015 C1011 1.393 . S
C1015 C1014 1.391 . S
H1016 C1024 0.950 . S
H1017 C1029 0.950 . S
H1018 C1026 0.950 . S
H1019 C1028 0.950 . S
H1020 C1030 0.950 . S
H1021 C1032 0.950 . S
H1022 C1034 0.950 . S
H1023 C1035 0.950 . S
C1024 H1016 0.950 . S
C1024 C1025 1.386 . S
C1024 C1026 1.391 . S
C1025 C1024 1.386 . S
C1025 C1029 1.393 . S
C1026 H1018 0.950 . S
C1026 C1024 1.391 . S
C1026 C1027 1.400 . S
C1027 C1026 1.400 . S
C1027 C1028 1.398 . S
C1027 C1033 1.491 . S
C1028 H1019 0.950 . S
C1028 C1027 1.398 . S
C1028 C1029 1.391 . S
C1029 H1017 0.950 . S
C1029 C1025 1.393 . S
C1029 C1028 1.391 . S
C1030 H1020 0.950 . S
C1030 C1031 1.386 . S
C1030 C1032 1.391 . S
C1031 C1030 1.386 . S
C1031 C1035 1.393 . S
C1032 H1021 0.950 . S
C1032 C1030 1.391 . S
C1032 C1033 1.400 . S
C1033 C1027 1.491 . S
C1033 C1032 1.400 . S
C1033 C1034 1.398 . S
C1034 H1022 0.950 . S
C1034 C1033 1.398 . S
C1034 C1035 1.391 . S
C1035 H1023 0.950 . S
C1035 C1031 1.393 . S
C1035 C1034 1.391 . S
H1036 C1044 0.950 . S
H1037 C1049 0.950 . S
H1038 C1046 0.950 . S
H1039 C1048 0.950 . S
H1040 C1050 0.950 . S
H1041 C1052 0.950 . S
H1042 C1054 0.950 . S
H1043 C1055 0.950 . S
C1044 H1036 0.950 . S
C1044 C1045 1.386 . S
C1044 C1046 1.391 . S
C1045 C1044 1.386 . S
C1045 C1049 1.393 . S
C1046 H1038 0.950 . S
C1046 C1044 1.391 . S
C1046 C1047 1.400 . S
C1047 C1046 1.400 . S
C1047 C1048 1.398 . S
C1047 C1053 1.491 . S
C1048 H1039 0.950 . S
C1048 C1047 1.398 . S
C1048 C1049 1.391 . S
C1049 H1037 0.950 . S
C1049 C1045 1.393 . S
C1049 C1048 1.391 . S
C1050 H1040 0.950 . S
C1050 C1051 1.386 . S
C1050 C1052 1.391 . S
C1051 C1050 1.386 . S
C1051 C1055 1.393 . S
C1052 H1041 0.950 . S
C1052 C1050 1.391 . S
C1052 C1053 1.400 . S
C1053 C1047 1.491 . S
C1053 C1052 1.400 . S
C1053 C1054 1.398 . S
C1054 H1042 0.950 . S
C1054 C1053 1.398 . S
C1054 C1055 1.391 . S
C1055 H1043 0.950 . S
C1055 C1051 1.393 . S
C1055 C1054 1.391 . S
H1056 C1064 0.950 . S
H1057 C1069 0.950 . S
H1058 C1066 0.950 . S
H1059 C1068 0.950 . S
H1060 C1070 0.950 . S
H1061 C1072 0.950 . S
H1062 C1074 0.950 . S
H1063 C1075 0.950 . S
C1064 H1056 0.950 . S
C1064 C1065 1.386 . S
C1064 C1066 1.391 . S
C1065 C1064 1.386 . S
C1065 C1069 1.393 . S
C1066 H1058 0.950 . S
C1066 C1064 1.391 . S
C1066 C1067 1.400 . S
C1067 C1066 1.400 . S
C1067 C1068 1.398 . S
C1067 C1073 1.491 . S
C1068 H1059 0.950 . S
C1068 C1067 1.398 . S
C1068 C1069 1.391 . S
C1069 H1057 0.950 . S
C1069 C1065 1.393 . S
C1069 C1068 1.391 . S
C1070 H1060 0.950 . S
C1070 C1071 1.386 . S
C1070 C1072 1.391 . S
C1071 C1070 1.386 . S
C1071 C1075 1.393 . S
C1072 H1061 0.950 . S
C1072 C1070 1.391 . S
C1072 C1073 1.400 . S
C1073 C1067 1.491 . S
C1073 C1072 1.400 . S
C1073 C1074 1.398 . S
C1074 H1062 0.950 . S
C1074 C1073 1.398 . S
C1074 C1075 1.391 . S
C1075 H1063 0.950 . S
C1075 C1071 1.393 . S
C1075 C1074 1.391 . S
H1076 C1084 0.950 . S
H1077 C1089 0.950 . S
H1078 C1086 0.950 . S
H1079 C1088 0.950 . S
H1080 C1090 0.950 . S
H1081 C1092 0.950 . S
H1082 C1094 0.950 . S
H1083 C1095 0.950 . S
C1084 H1076 0.950 . S
C1084 C1085 1.386 . S
C1084 C1086 1.391 . S
C1085 C1084 1.386 . S
C1085 C1089 1.393 . S
C1086 H1078 0.950 . S
C1086 C1084 1.391 . S
C1086 C1087 1.400 . S
C1087 C1086 1.400 . S
C1087 C1088 1.398 . S
C1087 C1093 1.491 . S
C1088 H1079 0.950 . S
C1088 C1087 1.398 . S
C1088 C1089 1.391 . S
C1089 H1077 0.950 . S
C1089 C1085 1.393 . S
C1089 C1088 1.391 . S
C1090 H1080 0.950 . S
C1090 C1091 1.386 . S
C1090 C1092 1.391 . S
C1091 C1090 1.386 . S
C1091 C1095 1.393 . S
C1092 H1081 0.950 . S
C1092 C1090 1.391 . S
C1092 C1093 1.400 . S
C1093 C1087 1.491 . S
C1093 C1092 1.400 . S
C1093 C1094 1.398 . S
C1094 H1082 0.950 . S
C1094 C1093 1.398 . S
C1094 C1095 1.391 . S
C1095 H1083 0.950 . S
C1095 C1091 1.393 . S
C1095 C1094 1.391 . S
H1096 C1104 0.950 . S
H1097 C1109 0.950 . S
H1098 C1106 0.950 . S
H1099 C1108 0.950 . S
H1100 C1110 0.950 . S
H1101 C1112 0.950 . S
H1102 C1114 0.950 . S
H1103 C1115 0.950 . S
C1104 H1096 0.950 . S
C1104 C1105 1.386 . S
C1104 C1106 1.391 . S
C1105 C1104 1.386 . S
C1105 C1109 1.393 . S
C1106 H1098 0.950 . S
C1106 C1104 1.391 . S
C1106 C1107 1.400 . S
C1107 C1106 1.400 . S
C1107 C1108 1.398 . S
C1107 C1113 1.491 . S
C1108 H1099 0.950 . S
C1108 C1107 1.398 . S
C1108 C1109 1.391 . S
C1109 H1097 0.950 . S
C1109 C1105 1.393 . S
C1109 C1108 1.391 . S
C1110 H1100 0.950 . S
C1110 C1111 1.386 . S
C1110 C1112 1.391 . S
C1111 C1110 1.386 . S
C1111 C1115 1.393 . S
C1112 H1101 0.950 . S
C1112 C1110 1.391 . S
C1112 C1113 1.400 . S
C1113 C1107 1.491 . S
C1113 C1112 1.400 . S
C1113 C1114 1.398 . S
C1114 H1102 0.950 . S
C1114 C1113 1.398 . S
C1114 C1115 1.391 . S
C1115 H1103 0.950 . S
C1115 C1111 1.393 . S
C1115 C1114 1.391 . S
H1116 C1124 0.950 . S
H1117 C1129 0.950 . S
H1118 C1126 0.950 . S
H1119 C1128 0.950 . S
H1120 C1130 0.950 . S
H1121 C1132 0.950 . S
H1122 C1134 0.950 . S
H1123 C1135 0.950 . S
C1124 H1116 0.950 . S
C1124 C1125 1.386 . S
C1124 C1126 1.391 . S
C1125 C1124 1.386 . S
C1125 C1129 1.393 . S
C1126 H1118 0.950 . S
C1126 C1124 1.391 . S
C1126 C1127 1.400 . S
C1127 C1126 1.400 . S
C1127 C1128 1.398 . S
C1127 C1133 1.491 . S
C1128 H1119 0.950 . S
C1128 C1127 1.398 . S
C1128 C1129 1.391 . S
C1129 H1117 0.950 . S
C1129 C1125 1.393 . S
C1129 C1128 1.391 . S
C1130 H1120 0.950 . S
C1130 C1131 1.386 . S
C1130 C1132 1.391 . S
C1131 C1130 1.386 . S
C1131 C1135 1.393 . S
C1132 H1121 0.950 . S
C1132 C1130 1.391 . S
C1132 C1133 1.400 . S
C1133 C1127 1.491 . S
C1133 C1132 1.400 . S
C1133 C1134 1.398 . S
C1134 H1122 0.950 . S
C1134 C1133 1.398 . S
C1134 C1135 1.391 . S
C1135 H1123 0.950 . S
C1135 C1131 1.393 . S
C1135 C1134 1.391 . S
H1136 C1144 0.950 . S
H1137 C1149 0.950 . S
H1138 C1146 0.950 . S
H1139 C1148 0.950 . S
H1140 C1150 0.950 . S
H1141 C1152 0.950 . S
H1142 C1154 0.950 . S
H1143 C1155 0.950 . S
C1144 H1136 0.950 . S
C1144 C1145 1.386 . S
C1144 C1146 1.391 . S
C1145 C1144 1.386 . S
C1145 C1149 1.393 . S
C1146 H1138 0.950 . S
C1146 C1144 1.391 . S
C1146 C1147 1.400 . S
C1147 C1146 1.400 . S
C1147 C1148 1.398 . S
C1147 C1153 1.491 . S
C1148 H1139 0.950 . S
C1148 C1147 1.398 . S
C1148 C1149 1.391 . S
C1149 H1137 0.950 . S
C1149 C1145 1.393 . S
C1149 C1148 1.391 . S
C1150 H1140 0.950 . S
C1150 C1151 1.386 . S
C1150 C1152 1.391 . S
C1151 C1150 1.386 . S
C1151 C1155 1.393 . S
C1152 H1141 0.950 . S
C1152 C1150 1.391 . S
C1152 C1153 1.400 . S
C1153 C1147 1.491 . S
C1153 C1152 1.400 . S
C1153 C1154 1.398 . S
C1154 H1142 0.950 . S
C1154 C1153 1.398 . S
C1154 C1155 1.391 . S
C1155 H1143 0.950 . S
C1155 C1151 1.393 . S
C1155 C1154 1.391 . S
H1156 C1164 0.950 . S
H1157 C1169 0.950 . S
H1158 C1166 0.950 . S
H1159 C1168 0.950 . S
H1160 C1170 0.950 . S
H1161 C1172 0.950 . S
H1162 C1174 0.950 . S
H1163 C1175 0.950 . S
C1164 H1156 0.950 . S
C1164 C1165 1.386 . S
C1164 C1166 1.391 . S
C1165 C1164 1.386 . S
C1165 C1169 1.393 . S
C1166 H1158 0.950 . S
C1166 C1164 1.391 . S
C1166 C1167 1.400 . S
C1167 C1166 1.400 . S
C1167 C1168 1.398 . S
C1167 C1173 1.491 . S
C1168 H1159 0.950 . S
C1168 C1167 1.398 . S
C1168 C1169 1.391 . S
C1169 H1157 0.950 . S
C1169 C1165 1.393 . S
C1169 C1168 1.391 . S
C1170 H1160 0.950 . S
C1170 C1171 1.386 . S
C1170 C1172 1.391 . S
C1171 C1170 1.386 . S
C1171 C1175 1.393 . S
C1172 H1161 0.950 . S
C1172 C1170 1.391 . S
C1172 C1173 1.400 . S
C1173 C1167 1.491 . S
C1173 C1172 1.400 . S
C1173 C1174 1.398 . S
C1174 H1162 0.950 . S
C1174 C1173 1.398 . S
C1174 C1175 1.391 . S
C1175 H1163 0.950 . S
C1175 C1171 1.393 . S
C1175 C1174 1.391 . S
H1176 C1184 0.950 . S
H1177 C1189 0.950 . S
H1178 C1186 0.950 . S
H1179 C1188 0.950 . S
H1180 C1190 0.950 . S
H1181 C1192 0.950 . S
H1182 C1194 0.950 . S
H1183 C1195 0.950 . S
C1184 H1176 0.950 . S
C1184 C1185 1.386 . S
C1184 C1186 1.391 . S
C1185 C1184 1.386 . S
C1185 C1189 1.393 . S
C1186 H1178 0.950 . S
C1186 C1184 1.391 . S
C1186 C1187 1.400 . S
C1187 C1186 1.400 . S
C1187 C1188 1.398 . S
C1187 C1193 1.491 . S
C1188 H1179 0.950 . S
C1188 C1187 1.398 . S
C1188 C1189 1.391 . S
C1189 H1177 0.950 . S
C1189 C1185 1.393 . S
C1189 C1188 1.391 . S
C1190 H1180 0.950 . S
C1190 C1191 1.386 . S
C1190 C1192 1.391 . S
C1191 C1190 1.386 . S
C1191 C1195 1.393 . S
C1192 H1181 0.950 . S
C1192 C1190 1.391 . S
C1192 C1193 1.400 . S
C1193 C1187 1.491 . S
C1193 C1192 1.400 . S
C1193 C1194 1.398 . S
C1194 H1182 0.950 . S
C1194 C1193 1.398 . S
C1194 C1195 1.391 . S
C1195 H1183 0.950 . S
C1195 C1191 1.393 . S
C1195 C1194 1.391 . S
H1196 C1204 0.950 . S
H1197 C1209 0.950 . S
H1198 C1206 0.950 . S
H1199 C1208 0.950 . S
H1200 C1210 0.959 . S
H1201 C1212 0.950 . S
H1202 C1214 0.950 . S
H1203 C1215 0.950 . S
C1204 H1196 0.950 . S
C1204 C1205 1.386 . S
C1204 C1206 1.391 . S
C1205 C1204 1.386 . S
C1205 C1209 1.393 . S
C1206 H1198 0.950 . S
C1206 C1204 1.391 . S
C1206 C1207 1.400 . S
C1207 C1206 1.400 . S
C1207 C1208 1.398 . S
C1207 C1213 1.491 . S
C1208 H1199 0.950 . S
C1208 C1207 1.398 . S
C1208 C1209 1.391 . S
C1209 H1197 0.950 . S
C1209 C1205 1.393 . S
C1209 C1208 1.391 . S
C1210 H1200 0.959 . S
C1210 C1211 1.386 . S
C1210 C1212 1.391 . S
C1211 C1210 1.386 . S
C1211 C1215 1.393 . S
C1212 H1201 0.950 . S
C1212 C1210 1.391 . S
C1212 C1213 1.400 . S
C1213 C1207 1.491 . S
C1213 C1212 1.400 . S
C1213 C1214 1.398 . S
C1214 H1202 0.950 . S
C1214 C1213 1.398 . S
C1214 C1215 1.391 . S
C1215 H1203 0.950 . S
C1215 C1211 1.393 . S
C1215 C1214 1.391 . S
H1216 C1224 0.950 . S
H1217 C1229 0.950 . S
H1218 C1226 0.950 . S
H1219 C1228 0.950 . S
H1220 C1230 0.950 . S
H1221 C1232 0.950 . S
H1222 C1234 0.950 . S
H1223 C1235 0.950 . S
C1224 H1216 0.950 . S
C1224 C1225 1.386 . S
C1224 C1226 1.391 . S
C1225 C1224 1.386 . S
C1225 C1229 1.393 . S
C1226 H1218 0.950 . S
C1226 C1224 1.391 . S
C1226 C1227 1.400 . S
C1227 C1226 1.400 . S
C1227 C1228 1.398 . S
C1227 C1233 1.491 . S
C1228 H1219 0.950 . S
C1228 C1227 1.398 . S
C1228 C1229 1.391 . S
C1229 H1217 0.950 . S
C1229 C1225 1.393 . S
C1229 C1228 1.391 . S
C1230 H1220 0.950 . S
C1230 C1231 1.386 . S
C1230 C1232 1.391 . S
C1231 C1230 1.386 . S
C1231 C1235 1.393 . S
C1232 H1221 0.950 . S
C1232 C1230 1.391 . S
C1232 C1233 1.400 . S
C1233 C1227 1.491 . S
C1233 C1232 1.400 . S
C1233 C1234 1.398 . S
C1234 H1222 0.950 . S
C1234 C1233 1.398 . S
C1234 C1235 1.391 . S
C1235 H1223 0.950 . S
C1235 C1231 1.393 . S
C1235 C1234 1.391 . S
H1236 C1244 0.950 . S
H1237 C1249 0.950 . S
H1238 C1246 0.950 . S
H1239 C1248 0.950 . S
H1240 C1250 0.950 . S
H1241 C1252 0.950 . S
H1242 C1254 0.950 . S
H1243 C1255 0.950 . S
C1244 H1236 0.950 . S
C1244 C1245 1.386 . S
C1244 C1246 1.391 . S
C1245 C1244 1.386 . S
C1245 C1249 1.393 . S
C1246 H1238 0.950 . S
C1246 C1244 1.391 . S
C1246 C1247 1.400 . S
C1247 C1246 1.400 . S
C1247 C1248 1.398 . S
C1247 C1253 1.491 . S
C1248 H1239 0.950 . S
C1248 C1247 1.398 . S
C1248 C1249 1.391 . S
C1249 H1237 0.950 . S
C1249 C1245 1.393 . S
C1249 C1248 1.391 . S
C1250 H1240 0.950 . S
C1250 C1251 1.386 . S
C1250 C1252 1.391 . S
C1251 C1250 1.386 . S
C1251 C1255 1.393 . S
C1252 H1241 0.950 . S
C1252 C1250 1.391 . S
C1252 C1253 1.400 . S
C1253 C1247 1.491 . S
C1253 C1252 1.400 . S
C1253 C1254 1.398 . S
C1254 H1242 0.950 . S
C1254 C1253 1.398 . S
C1254 C1255 1.391 . S
C1255 H1243 0.950 . S
C1255 C1251 1.393 . S
C1255 C1254 1.391 . S
H1256 C1264 0.950 . S
H1257 C1269 0.950 . S
H1258 C1266 0.950 . S
H1259 C1268 0.950 . S
H1260 C1270 0.950 . S
H1261 C1272 0.950 . S
H1262 C1274 0.950 . S
H1263 C1275 0.950 . S
C1264 H1256 0.950 . S
C1264 C1265 1.386 . S
C1264 C1266 1.391 . S
C1265 C1264 1.386 . S
C1265 C1269 1.393 . S
C1266 H1258 0.950 . S
C1266 C1264 1.391 . S
C1266 C1267 1.400 . S
C1267 C1266 1.400 . S
C1267 C1268 1.398 . S
C1267 C1273 1.491 . S
C1268 H1259 0.950 . S
C1268 C1267 1.398 . S
C1268 C1269 1.391 . S
C1269 H1257 0.950 . S
C1269 C1265 1.393 . S
C1269 C1268 1.391 . S
C1270 H1260 0.950 . S
C1270 C1271 1.386 . S
C1270 C1272 1.391 . S
C1271 C1270 1.386 . S
C1271 C1275 1.393 . S
C1272 H1261 0.950 . S
C1272 C1270 1.391 . S
C1272 C1273 1.400 . S
C1273 C1267 1.491 . S
C1273 C1272 1.400 . S
C1273 C1274 1.398 . S
C1274 H1262 0.950 . S
C1274 C1273 1.398 . S
C1274 C1275 1.391 . S
C1275 H1263 0.950 . S
C1275 C1271 1.393 . S
C1275 C1274 1.391 . S
H1276 C1284 0.950 . S
H1277 C1289 0.950 . S
H1278 C1286 0.950 . S
H1279 C1288 0.950 . S
H1280 C1290 0.950 . S
H1281 C1292 0.950 . S
H1282 C1294 0.950 . S
H1283 C1295 0.950 . S
C1284 H1276 0.950 . S
C1284 C1285 1.386 . S
C1284 C1286 1.391 . S
C1285 C1284 1.386 . S
C1285 C1289 1.393 . S
C1286 H1278 0.950 . S
C1286 C1284 1.391 . S
C1286 C1287 1.400 . S
C1287 C1286 1.400 . S
C1287 C1288 1.398 . S
C1287 C1293 1.491 . S
C1288 H1279 0.950 . S
C1288 C1287 1.398 . S
C1288 C1289 1.391 . S
C1289 H1277 0.950 . S
C1289 C1285 1.393 . S
C1289 C1288 1.391 . S
C1290 H1280 0.950 . S
C1290 C1291 1.386 . S
C1290 C1292 1.391 . S
C1291 C1290 1.386 . S
C1291 C1295 1.393 . S
C1292 H1281 0.950 . S
C1292 C1290 1.391 . S
C1292 C1293 1.400 . S
C1293 C1287 1.491 . S
C1293 C1292 1.400 . S
C1293 C1294 1.398 . S
C1294 H1282 0.950 . S
C1294 C1293 1.398 . S
C1294 C1295 1.391 . S
C1295 H1283 0.950 . S
C1295 C1291 1.393 . S
C1295 C1294 1.391 . S
C825 C361 1.452 . S
C831 C536 1.456 . S
C851 C620 1.462 . S
C845 C451 1.446 . S
C871 C619 1.466 . S
C865 C241 1.433 . S
C885 C331 1.451 . S
C891 C535 1.462 . S
C911 C716 1.458 . S
C905 C140 1.425 . S
C931 C800 1.454 . S
C925 C211 1.440 . S
C945 C20 1.433 . S
C951 C799 1.465 . S
C965 C91 1.410 . S
C971 C715 1.458 . S
C991 C538 1.339 . S
C985 C80 1.465 1_554 S
C1011 C622 1.323 . S
C1005 C1 1.481 . S
C1031 C634 1.405 . S
C1025 C200 1.497 1_556 S
C1051 C550 1.404 . S
C1045 C121 1.496 . S
C1071 C718 1.346 . S
C1065 C320 1.503 1_556 S
C1085 C260 1.496 . S
C1091 C802 1.357 . S
C1111 C790 1.387 . S
C1105 C440 1.511 1_554 S
C1125 C380 1.506 . S
C1131 C706 1.391 . S
C1151 C547 1.585 . S
C1145 C31 1.566 . S
C1171 C631 1.585 . S
C1165 C61 1.566 . S
C1185 C151 1.542 . S
C1191 C632 1.554 . S
C1211 C548 1.553 . S
C1205 C181 1.543 . S
C1231 C703 1.587 . S
C1225 C271 1.533 . S
C1245 C301 1.585 . S
C1251 C787 1.584 . S
C1265 C391 1.499 . S
C1271 C788 1.562 . S
C1285 C421 1.567 . S
C1291 C704 1.555 . S
