# Generated by pormake.
# Topology zzz, (3,6)-cn, num edge types: 1
# Building blocks:
#     Node 0, Type 0, BuildingBlock: INOVEN_clean_linker_0, # of connection points: 3
#     Node 1, Type 0, BuildingBlock: INOVEN_clean_linker_0, # of connection points: 3
#     Node 2, Type 0, BuildingBlock: INOVEN_clean_linker_0, # of connection points: 3
#     Node 3, Type 0, BuildingBlock: INOVEN_clean_linker_0, # of connection points: 3
#     Node 4, Type 0, BuildingBlock: INOVEN_clean_linker_0, # of connection points: 3
#     Node 5, Type 0, BuildingBlock: INOVEN_clean_linker_0, # of connection points: 3
#     Node 6, Type 0, BuildingBlock: INOVEN_clean_linker_0, # of connection points: 3
#     Node 7, Type 0, BuildingBlock: INOVEN_clean_linker_0, # of connection points: 3
#     Node 8, Type 1, BuildingBlock: JUFBIX_clean_sbu_0, # of connection points: 6
#     Node 9, Type 1, BuildingBlock: JUFBIX_clean_sbu_0, # of connection points: 6
#     Node 10, Type 1, BuildingBlock: JUFBIX_clean_sbu_0, # of connection points: 6
#     Node 11, Type 1, BuildingBlock: JUFBIX_clean_sbu_0, # of connection points: 6
#     Edge 12, Type (0, 1), BuildingBlock: XIVTED_clean_linker_0, # of connection points: 2
#     Edge 13, Type (0, 1), BuildingBlock: XIVTED_clean_linker_0, # of connection points: 2
#     Edge 14, Type (0, 1), BuildingBlock: XIVTED_clean_linker_0, # of connection points: 2
#     Edge 15, Type (0, 1), BuildingBlock: XIVTED_clean_linker_0, # of connection points: 2
#     Edge 16, Type (0, 1), BuildingBlock: XIVTED_clean_linker_0, # of connection points: 2
#     Edge 17, Type (0, 1), BuildingBlock: XIVTED_clean_linker_0, # of connection points: 2
#     Edge 18, Type (0, 1), BuildingBlock: XIVTED_clean_linker_0, # of connection points: 2
#     Edge 19, Type (0, 1), BuildingBlock: XIVTED_clean_linker_0, # of connection points: 2
#     Edge 20, Type (0, 1), BuildingBlock: XIVTED_clean_linker_0, # of connection points: 2
#     Edge 21, Type (0, 1), BuildingBlock: XIVTED_clean_linker_0, # of connection points: 2
#     Edge 22, Type (0, 1), BuildingBlock: XIVTED_clean_linker_0, # of connection points: 2
#     Edge 23, Type (0, 1), BuildingBlock: XIVTED_clean_linker_0, # of connection points: 2
#     Edge 24, Type (0, 1), BuildingBlock: XIVTED_clean_linker_0, # of connection points: 2
#     Edge 25, Type (0, 1), BuildingBlock: XIVTED_clean_linker_0, # of connection points: 2
#     Edge 26, Type (0, 1), BuildingBlock: XIVTED_clean_linker_0, # of connection points: 2
#     Edge 27, Type (0, 1), BuildingBlock: XIVTED_clean_linker_0, # of connection points: 2
#     Edge 28, Type (0, 1), BuildingBlock: XIVTED_clean_linker_0, # of connection points: 2
#     Edge 29, Type (0, 1), BuildingBlock: XIVTED_clean_linker_0, # of connection points: 2
#     Edge 30, Type (0, 1), BuildingBlock: XIVTED_clean_linker_0, # of connection points: 2
#     Edge 31, Type (0, 1), BuildingBlock: XIVTED_clean_linker_0, # of connection points: 2
#     Edge 32, Type (0, 1), BuildingBlock: XIVTED_clean_linker_0, # of connection points: 2
#     Edge 33, Type (0, 1), BuildingBlock: XIVTED_clean_linker_0, # of connection points: 2
#     Edge 34, Type (0, 1), BuildingBlock: XIVTED_clean_linker_0, # of connection points: 2
#     Edge 35, Type (0, 1), BuildingBlock: XIVTED_clean_linker_0, # of connection points: 2
# Relax obj value: 0.121
# Max RMSD: 0.177
# Mean RMSD: 0.086
data_MOF--net-zzz--node1-JUFBIX_clean_sbu_0--node2-INOVEN_clean_linker_0--edge1-XIVTED_clean_linker_0
_symmetry_space_group_name_H-M    P1
_symmetry_Int_Tables_number       1
_symmetry_cell_setting            triclinic
loop_
_symmetry_equiv_pos_as_xyz
'x, y, z'
_cell_length_a     51.634026
_cell_length_b     51.439639
_cell_length_c     17.748441
_cell_angle_alpha  81.657618
_cell_angle_beta   90.162933
_cell_angle_gamma 91.614951
loop_
_atom_site_label
_atom_site_type_symbol
_atom_site_fract_x
_atom_site_fract_y
_atom_site_fract_z
_atom_type_partial_charge
H0 H 0.78746 0.52396 0.39245 0.0
H1 H 0.86881 0.52329 0.34149 0.0
H2 H 0.81325 0.51961 0.16327 0.0
N3 N 0.77093 0.52182 0.24893 0.0
N4 N 0.76544 0.53129 0.18212 0.0
C5 C 0.80294 0.52346 0.35168 0.0
C6 C 0.829 0.52434 0.37532 0.0
C7 C 0.79711 0.5224 0.27434 0.0
C8 C 0.81749 0.52112 0.22234 0.0
C9 C 0.84332 0.52148 0.24643 0.0
C10 C 0.8488 0.52336 0.32245 0.0
H11 H 1.00463 0.74474 0.40873 0.0
H12 H 0.02578 0.82688 0.36177 0.0
H13 H 0.01799 0.78171 0.17749 0.0
N14 N 0.00821 0.73542 0.26344 0.0
N15 N 0.9993 0.73434 0.1984 0.0
C16 C 0.00999 0.76192 0.36844 0.0
C17 C 0.01483 0.78628 0.39388 0.0
C18 C 0.01161 0.7601 0.29003 0.0
C19 C 0.01743 0.7829 0.23788 0.0
C20 C 0.02235 0.80715 0.26321 0.0
C21 C 0.02177 0.80831 0.34132 0.0
H22 H 0.76615 0.99658 0.29362 0.0
H23 H 0.68843 0.01808 0.23046 0.0
H24 H 0.74823 0.02777 0.06067 0.0
N25 N 0.78672 0.00872 0.15375 0.0
N26 N 0.79246 0.00831 0.08562 0.0
C27 C 0.75244 1.00476 0.2509 0.0
C28 C 0.72633 0.00708 0.27065 0.0
C29 C 0.76054 0.01209 0.17478 0.0
C30 C 0.74227 0.02207 0.11936 0.0
C31 C 0.7163 0.02467 0.13914 0.0
C32 C 0.70867 0.01723 0.21491 0.0
H33 H 0.5363 0.73803 0.31942 0.0
H34 H 0.54067 0.65889 0.26994 0.0
H35 H 0.53123 0.72201 0.08708 0.0
N36 N 0.53264 0.76116 0.17436 0.0
N37 N 0.53431 0.76993 0.10506 0.0
C38 C 0.53642 0.72434 0.27845 0.0
C39 C 0.53923 0.69731 0.30343 0.0
C40 C 0.53414 0.73364 0.19994 0.0
C41 C 0.53356 0.7154 0.14745 0.0
C42 C 0.53617 0.68851 0.17266 0.0
C43 C 0.53925 0.6798 0.25022 0.0
H44 H 0.24957 0.50497 0.17408 0.0
H45 H 0.16748 0.50279 0.21701 0.0
H46 H 0.22009 0.51735 0.39362 0.0
N47 N 0.26399 0.51442 0.31449 0.0
N48 N 0.26784 0.52511 0.37255 0.0
C49 C 0.2335 0.50631 0.2123 0.0
C50 C 0.20782 0.50298 0.18736 0.0
C51 C 0.23818 0.51168 0.2871 0.0
C52 C 0.21691 0.51368 0.33568 0.0
C53 C 0.1915 0.51006 0.31095 0.0
C54 C 0.18722 0.50483 0.23703 0.0
H55 H 0.01578 0.26744 0.18151 0.0
H56 H 0.98682 0.18741 0.21664 0.0
H57 H 0.995 0.22961 0.40687 0.0
N58 N 0.01038 0.27568 0.32737 0.0
N59 N 0.01483 0.27479 0.39692 0.0
C60 C 1.00784 0.25062 0.21898 0.0
C61 C 1.00155 0.2271 0.19022 0.0
C62 C 1.00459 0.25193 0.29723 0.0
C63 C 0.99613 0.22917 0.34619 0.0
C64 C 0.99015 0.20565 0.31791 0.0
C65 C 0.99167 0.20538 0.23946 0.0
H66 H 0.25942 0.01169 0.29601 0.0
H67 H 0.3367 0.98823 0.35726 0.0
H68 H 0.27721 0.97934 0.52813 0.0
N69 N 0.23881 0.99921 0.43511 0.0
N70 N 0.23267 0.99869 0.50334 0.0
C71 C 0.27303 1.00301 0.33831 0.0
C72 C 0.29898 1.00016 0.31804 0.0
C73 C 0.26494 0.9955 0.41431 0.0
C74 C 0.28312 0.98502 0.4694 0.0
C75 C 0.30899 0.98193 0.44905 0.0
C76 C 0.31654 0.9894 0.3732 0.0
H77 H 0.49346 0.26943 0.26904 0.0
H78 H 0.49007 0.34845 0.32 0.0
H79 H 0.49906 0.28486 0.50184 0.0
N80 N 0.49699 0.24597 0.41346 0.0
N81 N 0.49528 0.23694 0.48256 0.0
C82 C 0.4936 0.28303 0.31028 0.0
C83 C 0.49106 0.31011 0.28581 0.0
C84 C 0.49588 0.27355 0.38863 0.0
C85 C 0.49675 0.29164 0.44156 0.0
C86 C 0.49441 0.3186 0.4168 0.0
C87 C 0.49132 0.3275 0.33935 0.0
Co88 Co 0.02014 0.02109 0.8297 0.0
C89 C 0.9693 1.00625 0.8614 0.0
Co90 Co 1.00512 0.99329 0.75434 0.0
C91 C 0.02373 0.07013 0.89113 0.0
C92 C 0.05617 0.04603 0.92324 0.0
N93 N 0.03346 0.04634 0.88565 0.0
N94 N 0.03957 0.08487 0.9299 0.0
C95 C 0.05996 0.06959 0.95055 0.0
H96 H 1.00571 0.0768 0.86483 0.0
H97 H 0.06943 0.02996 0.92885 0.0
C98 C 0.05604 0.008 0.72315 0.0
N99 N 0.99172 0.96805 0.69852 0.0
C100 C 1.00118 0.94412 0.69327 0.0
C101 C 0.96883 0.96844 0.66174 0.0
N102 N 0.98497 0.9294 0.6556 0.0
C103 C 0.96466 0.9448 0.63527 0.0
C104 C 0.99707 0.04417 0.69417 0.0
O105 O 0.05248 0.02129 0.77728 0.0
O106 O 0.03739 0.99398 0.70236 0.0
O107 O 0.99355 0.02078 0.68038 0.0
O108 O 0.00842 0.04822 0.75508 0.0
O109 O 0.97282 0.99292 0.80736 0.0
H110 H 0.95567 0.98459 0.65646 0.0
H111 H 0.01919 0.93729 0.71928 0.0
O112 O 0.98788 0.0205 0.88141 0.0
O113 O 0.03149 0.99346 0.90417 0.0
O114 O 0.0169 0.96626 0.82836 0.0
C115 C 0.02797 0.97013 0.88977 0.0
H116 H 0.07654 0.07495 0.98302 0.0
H117 H 0.94785 0.93941 0.6038 0.0
Co118 Co 0.50194 0.00853 0.84546 0.0
C119 C 0.51935 0.95734 0.86652 0.0
Co120 Co 0.52288 0.99833 0.74506 0.0
C121 C 0.45718 0.02066 0.93138 0.0
C122 C 0.49181 0.01966 -0.00196 0.0
N123 N 0.48298 0.01694 0.92785 0.0
N124 N 0.44964 0.02544 0.00065 0.0
C125 C 0.47141 0.02499 0.04268 0.0
H126 H 0.44402 0.01976 0.88432 0.0
H127 H 0.51168 0.01726 0.01651 0.0
C128 C 0.50551 0.04955 0.72429 0.0
N129 N 0.54193 0.99011 0.66269 0.0
C130 C 0.56766 0.98591 0.66 0.0
C131 C 0.53357 0.98931 0.59096 0.0
N132 N 0.57569 0.98282 0.58961 0.0
C133 C 0.55421 0.98474 0.5461 0.0
C134 C 0.47053 0.98709 0.74015 0.0
O135 O 0.49681 0.04278 0.79155 0.0
O136 O 0.51758 0.03289 0.69216 0.0
O137 O 0.4915 0.9861 0.70345 0.0
O138 O 0.47114 0.9961 0.80298 0.0
O139 O 0.52791 0.96398 0.79899 0.0
H140 H 0.51393 0.99283 0.57161 0.0
H141 H 0.58045 0.98559 0.70843 0.0
O142 O 0.50736 0.97408 0.89859 0.0
O143 O 0.53321 0.02089 0.88662 0.0
O144 O 0.55374 0.01065 0.78779 0.0
C145 C 0.55422 0.01983 0.85036 0.0
H146 H 0.47233 0.02725 0.10235 0.0
H147 H 0.55366 0.98427 0.48534 0.0
Co148 Co 0.53687 0.50099 0.80165 0.0
C149 C 0.50615 0.46271 0.89098 0.0
Co150 Co 0.49449 0.50612 0.78742 0.0
C151 C 0.58916 0.50906 0.85973 0.0
C152 C 0.58447 0.47317 0.8129 0.0
N153 N 0.57221 0.49549 0.82054 0.0
N154 N 0.61106 0.49577 0.87809 0.0
C155 C 0.6082 0.47328 0.84815 0.0
H156 H 0.5848 0.52735 0.8797 0.0
H157 H 0.57598 0.45687 0.78837 0.0
C158 C 0.52519 0.54441 0.69811 0.0
N159 N 0.45924 0.51072 0.77081 0.0
C160 C 0.44619 0.5134 0.70398 0.0
C161 C 0.44097 0.51185 0.82422 0.0
N162 N 0.42053 0.51631 0.71364 0.0
C163 C 0.41724 0.51536 0.78935 0.0
C164 C 0.5155 0.53372 0.89552 0.0
O165 O 0.54421 0.53155 0.72881 0.0
O166 O 0.50216 0.53593 0.71404 0.0
O167 O 0.49433 0.52868 0.86322 0.0
O168 O 0.53596 0.52268 0.87885 0.0
O169 O 0.48725 0.47596 0.86168 0.0
H170 H 0.44467 0.51009 0.88474 0.0
H171 H 0.45542 0.51351 0.64924 0.0
O172 O 0.52913 0.47081 0.87363 0.0
O173 O 0.53695 0.4791 0.7237 0.0
O174 O 0.49499 0.48385 0.71198 0.0
C175 C 0.51558 0.47345 0.69336 0.0
H176 H 0.6218 0.45747 0.85441 0.0
H177 H 0.3989 0.51667 0.81778 0.0
Co178 Co 0.0196 0.53061 0.78825 0.0
C179 C 0.06158 0.50281 0.85558 0.0
Co180 Co 0.01674 0.4876 0.78583 0.0
C181 C 0.00943 0.57969 0.84546 0.0
C182 C 0.04321 0.58223 0.7749 0.0
N183 N 0.02267 0.56631 0.79833 0.0
N184 N 0.02132 0.60282 0.85375 0.0
C185 C 0.04249 0.60454 0.80907 0.0
H186 H 0.99274 0.57168 0.87861 0.0
H187 H 0.05897 0.577 0.74053 0.0
C188 C 0.97485 0.51533 0.71818 0.0
N189 N 0.01481 0.45189 0.77788 0.0
C190 C 0.01454 0.44018 0.71428 0.0
C191 C 0.01579 0.43191 0.83594 0.0
N192 N 0.01567 0.41371 0.73039 0.0
C193 C 0.01626 0.40853 0.8071 0.0
C194 C 0.99316 0.50152 0.91098 0.0
O195 O 0.98691 0.5354 0.73712 0.0
O196 O 0.98507 0.49288 0.73209 0.0
O197 O 0.99752 0.48173 0.8782 0.0
O198 O 1.00208 0.52397 0.88218 0.0
O199 O 0.04881 0.48271 0.84023 0.0
H200 H 0.01685 0.43423 0.89548 0.0
H201 H 0.01459 0.45094 0.65718 0.0
O202 O 0.05194 0.52536 0.83861 0.0
O203 O 0.03732 0.53664 0.6938 0.0
O204 O 0.0356 0.49399 0.69376 0.0
C205 C 0.04303 0.51678 0.66288 0.0
H206 H 0.05722 0.62008 0.8051 0.0
H207 H 0.01727 0.38921 0.84034 0.0
H208 H 0.18752 0.99624 0.42255 0.0
H209 H 0.10183 0.02766 0.77185 0.0
H210 H 0.21921 0.00721 0.6408 0.0
H211 H 0.06928 0.98908 0.59151 0.0
H212 H 0.14462 0.02674 0.71425 0.0
H213 H 0.1436 0.99967 0.47354 0.0
C214 C 0.1852 0.99959 0.48095 0.0
C215 C 0.20689 1.00159 0.52799 0.0
C216 C 0.12812 0.01852 0.68715 0.0
C217 C 0.15704 1.00562 0.58607 0.0
C218 C 0.10364 0.01911 0.71987 0.0
C219 C 0.0819 0.00834 0.68667 0.0
C220 C 0.13098 0.00734 0.62011 0.0
C221 C 0.08552 0.9975 0.61927 0.0
C222 C 0.1602 1.00142 0.51007 0.0
C223 C 0.20287 1.00567 0.60318 0.0
N224 N 0.10959 0.99732 0.58807 0.0
N225 N 0.17849 0.00767 0.62989 0.0
H226 H 0.50569 0.19589 0.40511 0.0
H227 H 0.48479 0.09081 0.78223 0.0
H228 H 0.48714 0.21609 0.62544 0.0
H229 H 0.51929 0.07071 0.57781 0.0
H230 H 0.48154 0.1361 0.72033 0.0
H231 H 0.50724 0.14934 0.46204 0.0
C232 C 0.50188 0.19048 0.46537 0.0
C233 C 0.49623 0.2097 0.51119 0.0
C234 C 0.4898 0.12182 0.68881 0.0
C235 C 0.49785 0.15678 0.57618 0.0
C236 C 0.49159 0.09587 0.72413 0.0
C237 C 0.50242 0.07686 0.68537 0.0
C238 C 0.49876 0.12899 0.61379 0.0
C239 C 0.51088 0.08471 0.61001 0.0
C240 C 0.5028 0.16397 0.49785 0.0
C241 C 0.49153 0.20172 0.58871 0.0
N242 N 0.50889 0.11017 0.57667 0.0
N243 N 0.49237 0.17594 0.61877 0.0
H244 H 0.27765 0.55369 0.48069 0.0
H245 H 0.41905 0.4973 0.57785 0.0
H246 H 0.31296 0.50006 0.34956 0.0
H247 H 0.37629 0.54301 0.71781 0.0
H248 H 0.38344 0.50159 0.48478 0.0
H249 H 0.31676 0.55403 0.55816 0.0
C250 C 0.29396 0.54228 0.46779 0.0
C251 C 0.29221 0.52702 0.40897 0.0
C252 C 0.38197 0.51075 0.53575 0.0
C253 C 0.33703 0.52664 0.4982 0.0
C254 C 0.40232 0.50842 0.58868 0.0
C255 C 0.40056 0.51964 0.65613 0.0
C256 C 0.35986 0.52461 0.55013 0.0
C257 C 0.37833 0.53366 0.66745 0.0
C258 C 0.31622 0.5423 0.51216 0.0
C259 C 0.31367 0.51227 0.39433 0.0
N260 N 0.35895 0.53569 0.61525 0.0
N261 N 0.33522 0.51231 0.4392 0.0
H262 H 1.00375 0.32631 0.34565 0.0
H263 H 0.03769 0.36598 0.75642 0.0
H264 H 0.03347 0.27376 0.53503 0.0
H265 H 0.99912 0.41848 0.58266 0.0
H266 H 0.04013 0.33387 0.66935 0.0
H267 H 1.00599 0.36227 0.42392 0.0
C268 C 0.0112 0.32252 0.40316 0.0
C269 C 0.01867 0.29717 0.43443 0.0
C270 C 0.0311 0.35239 0.64991 0.0
C271 C 0.02096 0.33779 0.52386 0.0
C272 C 0.02953 0.37075 0.70008 0.0
C273 C 0.01782 0.39494 0.67756 0.0
C274 C 0.02088 0.35801 0.5761 0.0
C275 C 0.00832 0.40014 0.6026 0.0
C276 C 0.0123 0.34293 0.44793 0.0
C277 C 0.02774 0.29312 0.50928 0.0
N278 N 0.00991 0.38176 0.55466 0.0
N279 N 0.02859 0.31311 0.55143 0.0
H280 H 0.80491 0.99788 0.94962 0.0
H281 H 0.95658 0.02564 0.99258 0.0
H282 H 0.83829 0.01426 0.16084 0.0
H283 H 0.92361 0.9849 0.81728 0.0
H284 H 0.9137 0.02461 0.05248 0.0
H285 H 0.84849 0.99596 0.89703 0.0
C286 C 0.82157 1.00086 0.98491 0.0
C287 C 0.81813 1.00599 0.05933 0.0
C288 C 0.91594 0.01579 0.00114 0.0
C289 C 0.86807 1.00433 -0.0002 0.0
C290 C 0.94036 0.01646 0.96673 0.0
C291 C 0.94371 1.00539 0.89962 0.0
C292 C 0.89464 1.00432 0.96763 0.0
C293 C 0.92201 0.99367 0.8689 0.0
C294 C 0.84639 0.99978 0.9551 0.0
C295 C 0.84019 0.01001 0.1032 0.0
N296 N 0.89843 0.99361 0.90279 0.0
N297 N 0.86431 0.00928 0.07247 0.0
H298 H 0.54216 0.79001 0.96163 0.0
H299 H 0.50638 0.93684 0.01406 0.0
H300 H 0.52299 0.81142 0.17999 0.0
H301 H 0.53974 0.91567 0.80944 0.0
H302 H 0.5107 0.89132 0.07593 0.0
H303 H 0.53954 0.83611 0.90455 0.0
C304 C 0.53745 0.80459 -0.00262 0.0
C305 C 0.53289 0.79703 0.07511 0.0
C306 C 0.51716 0.8967 0.01762 0.0
C307 C 0.52963 0.84988 0.01078 0.0
C308 C 0.51468 0.92268 0.98217 0.0
C309 C 0.52265 0.93015 0.90624 0.0
C310 C 0.5275 0.87798 0.97669 0.0
C311 C 0.5333 0.91091 0.86794 0.0
C312 C 0.53599 0.83087 0.96502 0.0
C313 C 0.52675 0.8165 0.11963 0.0
N314 N 0.53528 0.88579 0.90339 0.0
N315 N 0.5252 0.84209 0.08666 0.0
H316 H 0.74753 0.56196 0.06159 0.0
H317 H 0.63471 0.46217 0.98644 0.0
H318 H 0.7271 0.49468 0.22648 0.0
H319 H 0.6334 0.54365 0.8869 0.0
H320 H 0.67014 0.47264 0.06996 0.0
H321 H 0.70719 0.55522 0.99241 0.0
C322 C 0.73421 0.54607 0.08377 0.0
C323 C 0.74039 0.52909 0.14988 0.0
C324 C 0.66201 0.48828 0.03024 0.0
C325 C 0.69476 0.52062 0.07026 0.0
C326 C 0.64197 0.48228 0.98209 0.0
C327 C 0.63133 0.50206 0.92914 0.0
C328 C 0.67191 0.51418 0.0245 0.0
C329 C 0.64112 0.52788 0.92689 0.0
C330 C 0.71128 0.54219 0.0444 0.0
C331 C 0.72283 0.50844 0.17616 0.0
N332 N 0.66112 0.53316 0.97314 0.0
N333 N 0.70096 0.50455 0.13558 0.0
H334 H 0.03049 0.69233 0.22901 0.0
H335 H 0.9747 0.62093 0.88848 0.0
H336 H 0.96808 0.7243 0.08642 0.0
H337 H 0.05551 0.62164 0.9492 0.0
H338 H 0.96638 0.6503 0.98358 0.0
H339 H 0.03397 0.65695 0.1503 0.0
C340 C 0.01704 0.69143 0.18247 0.0
C341 C 0.99878 0.71104 0.16408 0.0
C342 C 0.98588 0.64385 0.97617 0.0
C343 C 1.00273 0.67094 0.07419 0.0
C344 C 0.99058 0.62718 0.92222 0.0
C345 C 0.01585 0.61929 0.91048 0.0
C346 C 1.0065 0.65199 0.01993 0.0
C347 C 0.03585 0.62772 0.95572 0.0
C348 C 0.01919 0.67145 0.13723 0.0
C349 C 0.98222 0.70934 0.10228 0.0
N350 N 0.03075 0.64353 0.00864 0.0
N351 N 0.98454 0.68965 0.05938 0.0
H352 H 1.00583 0.15639 0.30026 0.0
H353 H 0.98774 0.0937 0.72236 0.0
H354 H 0.96434 0.19748 0.45625 0.0
H355 H 0.9888 0.04604 0.54132 0.0
H356 H 0.98001 0.13238 0.62833 0.0
H357 H 1.00067 0.11611 0.38865 0.0
C358 C 0.99507 0.15698 0.35219 0.0
C359 C 0.98531 0.18061 0.37011 0.0
C360 C 0.98149 0.11338 0.60943 0.0
C361 C 0.98041 0.13429 0.47346 0.0
C362 C 0.98606 0.09136 0.66284 0.0
C363 C 0.98922 0.06676 0.6392 0.0
C364 C 0.98069 0.11081 0.53192 0.0
C365 C 0.9866 0.0647 0.5617 0.0
C366 C 0.99231 0.13385 0.40297 0.0
C367 C 0.97252 0.17994 0.44022 0.0
N368 N 0.98295 0.08659 0.51049 0.0
N369 N 0.97076 0.1572 0.48993 0.0
H370 H 0.34888 0.94858 0.43859 0.0
H371 H 0.42228 0.99094 0.79991 0.0
H372 H 0.31547 0.99703 0.59005 0.0
H373 H 0.46125 0.96573 0.60915 0.0
H374 H 0.38067 0.98272 0.74113 0.0
H375 H 0.38732 0.94385 0.51961 0.0
C376 C 0.34944 0.95786 0.48963 0.0
C377 C 0.32915 0.97369 0.50675 0.0
C378 C 0.39833 0.97874 0.71258 0.0
C379 C 0.373 0.96822 0.59968 0.0
C380 C 0.42214 0.98343 0.746 0.0
C381 C 0.44535 0.97942 0.70876 0.0
C382 C 0.39767 0.96979 0.64165 0.0
C383 C 0.44386 0.96938 0.63943 0.0
C384 C 0.37139 0.95516 0.53569 0.0
C385 C 0.33065 0.98471 0.57451 0.0
N386 N 0.42039 0.96509 0.6078 0.0
N387 N 0.35239 0.98207 0.61801 0.0
H388 H 0.53329 0.3264 0.51691 0.0
H389 H 0.47461 0.4611 0.60699 0.0
H390 H 0.45988 0.35623 0.43286 0.0
H391 H 0.55156 0.43658 0.67486 0.0
H392 H 0.46862 0.42186 0.54629 0.0
H393 H 0.53935 0.36476 0.58383 0.0
C394 C 0.51822 0.34074 0.51413 0.0
C395 C 0.49608 0.33829 0.46958 0.0
C396 C 0.48691 0.42509 0.57396 0.0
C397 C 0.50304 0.38225 0.54384 0.0
C398 C 0.4904 0.44761 0.60823 0.0
C399 C 0.51363 0.45214 0.64599 0.0
C400 C 0.50671 0.40678 0.57773 0.0
C401 C 0.5334 0.43394 0.64592 0.0
C402 C 0.52181 0.36275 0.55136 0.0
C403 C 0.47726 0.35752 0.46659 0.0
N404 N 0.52942 0.41192 0.61276 0.0
N405 N 0.48123 0.37875 0.5028 0.0
H406 H 0.15017 0.47593 0.33425 0.0
H407 H 0.07615 0.55815 0.61233 0.0
H408 H 0.18163 0.54778 0.40084 0.0
H409 H 0.05191 0.4807 0.56881 0.0
H410 H 0.11187 0.55786 0.52192 0.0
H411 H 0.1116 0.47997 0.40987 0.0
C412 C 0.14891 0.49258 0.36499 0.0
C413 C 0.16904 0.51158 0.36138 0.0
C414 C 0.09853 0.54108 0.53163 0.0
C415 C 0.12494 0.51637 0.4481 0.0
C416 C 0.07801 0.54134 0.58255 0.0
C417 C 0.06121 0.51932 0.59838 0.0
C418 C 0.10206 0.51872 0.49629 0.0
C419 C 0.06457 0.49799 0.55872 0.0
C420 C 0.1269 0.49489 0.40813 0.0
C421 C 0.16659 0.5326 0.40284 0.0
N422 N 0.08473 0.49816 0.50993 0.0
N423 N 0.14484 0.53449 0.44451 0.0
H424 H 1.00461 0.85607 0.27441 0.0
H425 H 0.0389 0.92114 0.86092 0.0
H426 H 0.04963 0.81447 0.1278 0.0
H427 H 0.03135 0.96702 0.04446 0.0
H428 H 0.0421 0.88145 0.9543 0.0
H429 H 0.01244 0.89651 0.18776 0.0
C430 C 0.0165 0.85542 0.2246 0.0
C431 C 0.02677 0.83173 0.2091 0.0
C432 C 0.04023 0.90026 0.97409 0.0
C433 C 0.03507 0.87813 0.1082 0.0
C434 C 0.03834 0.92287 0.92101 0.0
C435 C 0.03459 0.94727 0.94533 0.0
C436 C 0.03774 0.90206 0.05173 0.0
C437 C 0.03418 0.94855 0.02357 0.0
C438 C 0.02088 0.8786 0.17504 0.0
C439 C 0.04115 0.83216 0.14183 0.0
N440 N 0.0352 0.92611 0.07418 0.0
N441 N 0.04469 0.855 0.09337 0.0
H442 H 0.71092 0.00948 -0.00204 0.0
H443 H 0.56268 0.04301 0.97825 0.0
H444 H 0.67558 0.05715 0.1482 0.0
H445 H 0.60281 0.01442 0.79486 0.0
H446 H 0.60448 0.05139 0.03644 0.0
H447 H 0.67286 0.01478 0.91587 0.0
C448 C 0.69546 0.02162 0.01272 0.0
C449 C 0.69623 0.03248 0.08081 0.0
C450 C 0.60414 0.04361 0.98292 0.0
C451 C 0.6523 0.03802 0.98826 0.0
C452 C 0.58028 0.03873 0.94985 0.0
C453 C 0.57923 0.02764 0.88221 0.0
C454 C 0.62709 0.03701 0.94863 0.0
C455 C 0.60266 0.02271 0.84752 0.0
C456 C 0.67361 0.02448 0.9661 0.0
C457 C 0.67549 0.04786 0.09723 0.0
N458 N 0.62561 0.02708 0.88167 0.0
N459 N 0.65417 0.04977 0.05208 0.0
H460 H 0.49777 0.68088 0.07088 0.0
H461 H 0.55617 0.5457 0.98375 0.0
H462 H 0.57054 0.65049 0.15872 0.0
H463 H 0.47977 0.57094 0.91219 0.0
H464 H 0.5621 0.5849 0.04471 0.0
H465 H 0.49192 0.64258 0.00373 0.0
C466 C 0.51275 0.66642 0.07451 0.0
C467 C 0.53464 0.6687 0.12021 0.0
C468 C 0.54395 0.58183 0.01615 0.0
C469 C 0.5279 0.6248 0.0456 0.0
C470 C 0.54049 0.55934 0.9817 0.0
C471 C 0.51743 0.55503 0.94284 0.0
C472 C 0.52429 0.60031 0.01147 0.0
C473 C 0.4978 0.57342 0.94196 0.0
C474 C 0.50927 0.64444 0.03713 0.0
C475 C 0.55334 0.64932 0.12418 0.0
N476 N 0.50174 0.59539 0.97535 0.0
N477 N 0.54947 0.62812 0.08778 0.0
H478 H 0.88714 0.55216 0.22598 0.0
H479 H 0.95474 0.46421 0.95018 0.0
H480 H 0.84916 0.48471 0.15096 0.0
H481 H 0.98807 0.53612 0.01152 0.0
H482 H 0.91783 0.46827 0.03392 0.0
H483 H 0.92551 0.5446 0.15349 0.0
C484 C 0.88688 0.53586 0.19352 0.0
C485 C 0.86504 0.51903 0.19422 0.0
C486 C 0.93341 0.48295 0.0297 0.0
C487 C 0.90898 0.51001 0.11176 0.0
C488 C 0.95461 0.48046 0.98277 0.0
C489 C 0.97436 0.49996 0.97371 0.0
C490 C 0.93215 0.50501 0.06775 0.0
C491 C 0.97314 0.52076 0.01649 0.0
C492 C 0.9088 0.53146 0.15243 0.0
C493 C 0.86558 0.49826 0.1511 0.0
N494 N 0.95228 0.52284 0.06111 0.0
N495 N 0.88731 0.49423 0.11174 0.0
H496 H 0.96974 0.21695 0.07466 0.0
H497 H 0.07627 0.12028 0.96586 0.0
H498 H 0.05009 0.22206 0.13745 0.0
H499 H 0.99413 0.1108 0.9279 0.0
H500 H 0.06889 0.16362 0.00085 0.0
H501 H 0.98066 0.18633 0.98713 0.0
C502 C 0.98992 0.21275 0.06675 0.0
C503 C 0.00904 0.22194 0.11351 0.0
C504 C 0.05252 0.15217 0.98399 0.0
C505 C 0.02154 0.18587 0.01659 0.0
C506 C 0.05667 0.12721 0.96468 0.0
C507 C 0.03574 0.11141 0.94514 0.0
C508 C 0.02724 0.16155 0.98397 0.0
C509 C 0.01091 0.12204 0.94262 0.0
C510 C 0.9961 0.19479 0.01801 0.0
C511 C 0.03481 0.21548 0.10218 0.0
N512 N 1.00734 0.14625 0.96262 0.0
N513 N 0.04024 0.19726 0.05645 0.0
H514 H 0.30584 0.97339 0.19844 0.0
H515 H 0.43337 0.05619 0.1013 0.0
H516 H 0.31949 0.04874 0.27181 0.0
H517 H 0.40654 0.99912 0.96147 0.0
H518 H 0.39008 0.05568 0.15737 0.0
H519 H 0.33946 0.9844 0.10079 0.0
C520 C 0.31505 0.99279 0.19128 0.0
C521 C 0.30974 0.01036 0.24227 0.0
C522 C 0.39347 0.04358 0.11347 0.0
C523 C 0.34912 0.02252 0.13415 0.0
C524 C 0.41823 0.04376 0.08195 0.0
C525 C 0.42355 0.02753 0.02728 0.0
C526 C 0.374 0.02656 0.09151 0.0
C527 C 0.40319 0.01196 0.00342 0.0
C528 C 0.33448 0.99895 0.13631 0.0
C529 C 0.32281 0.03488 0.23263 0.0
N530 N 0.37943 0.01148 0.03672 0.0
N531 N 0.34233 0.04 0.18092 0.0
H532 H 0.53011 0.3164 0.18206 0.0
H533 H 0.46008 0.43927 0.94645 0.0
H534 H 0.44986 0.33324 0.2111 0.0
H535 H 0.54247 0.42717 0.94516 0.0
H536 H 0.45403 0.39621 0.02508 0.0
H537 H 0.53253 0.35122 0.07215 0.0
C538 C 0.51269 0.32662 0.1629 0.0
C539 C 0.48972 0.3219 0.20501 0.0
C540 C 0.47341 0.40297 0.00719 0.0
C541 C 0.49254 0.36253 0.08208 0.0
C542 C 0.47688 0.42762 0.96273 0.0
C543 C 0.50185 0.43706 0.94005 0.0
C544 C 0.49503 0.38758 0.02873 0.0
C545 C 0.52288 0.42092 0.9621 0.0
C546 C 0.51416 0.34684 0.10114 0.0
C547 C 0.46784 0.33619 0.17935 0.0
N548 N 0.519 0.39709 0.0053 0.0
N549 N 0.46989 0.35618 0.12035 0.0
H550 H 0.20503 0.54028 0.06331 0.0
H551 H 0.08695 0.45798 0.91502 0.0
H552 H 0.19061 0.45784 0.13892 0.0
H553 H 0.09652 0.54246 0.87164 0.0
H554 H 0.13019 0.45545 0.97307 0.0
H555 H 0.17248 0.53871 0.96352 0.0
C556 C 0.19605 0.52151 0.05607 0.0
C557 C 0.20054 0.49915 0.10912 0.0
C558 C 0.12288 0.47451 0.95018 0.0
C559 C 0.16226 0.49741 -0.00197 0.0
C560 C 0.09815 0.47597 0.9174 0.0
C561 C 0.08787 0.50049 0.88957 0.0
C562 C 0.13752 0.49772 0.95462 0.0
C563 C 0.10341 0.52313 0.89344 0.0
C564 C 0.17701 0.52071 0.00022 0.0
C565 C 0.18782 0.47545 0.09856 0.0
N566 N 0.12731 0.52119 0.92567 0.0
N567 N 0.16879 0.47531 0.04544 0.0
H568 H 0.05015 0.79724 0.49965 0.0
H569 H 0.94735 0.8937 0.62862 0.0
H570 H 0.96817 0.79039 0.45988 0.0
H571 H 0.03016 0.90347 0.65146 0.0
H572 H 0.9536 0.85 0.59477 0.0
H573 H 0.04196 0.82811 0.58884 0.0
C574 C 0.0303 0.8011 0.51314 0.0
C575 C 0.0098 0.79134 0.47229 0.0
C576 C 0.97039 0.86157 0.60806 0.0
C577 C 1.0003 0.82771 0.57095 0.0
C578 C 0.96686 0.88672 0.62667 0.0
C579 C 0.98829 0.90268 0.64151 0.0
C580 C 0.99556 0.8522 0.60382 0.0
C581 C 0.01304 0.89205 0.64029 0.0
C582 C 0.02563 0.81919 0.56279 0.0
C583 C 0.98448 0.7974 0.49053 0.0
N584 N 0.016 0.86767 0.62081 0.0
N585 N 0.98046 0.81578 0.5369 0.0
H586 H 0.72143 0.03415 0.39039 0.0
H587 H 0.61922 1.00437 0.64502 0.0
H588 H 0.7037 0.95949 0.3173 0.0
H589 H 0.59239 0.95817 0.47462 0.0
H590 H 0.66286 1.00576 0.59065 0.0
H591 H 0.68804 0.02478 0.4888 0.0
C592 C 0.71146 0.01513 0.39807 0.0
C593 C 0.71558 0.99734 0.34683 0.0
C594 C 0.64745 0.99531 0.56515 0.0
C595 C 0.67662 0.98676 0.45712 0.0
C596 C 0.62257 0.99425 0.59672 0.0
C597 C 0.60201 0.98143 0.56356 0.0
C598 C 0.65182 0.98338 0.50009 0.0
C599 C 0.60752 0.9687 0.50096 0.0
C600 C 0.69218 0.00982 0.45387 0.0
C601 C 0.70139 0.97344 0.35683 0.0
N602 N 0.63183 0.97009 0.47114 0.0
N603 N 0.68211 0.96913 0.40953 0.0
H604 H 0.49988 0.69033 0.40613 0.0
H605 H 0.57119 0.56888 0.6453 0.0
H606 H 0.5806 0.67496 0.37941 0.0
H607 H 0.48846 0.57903 0.64081 0.0
H608 H 0.5768 0.61201 0.56656 0.0
H609 H 0.49762 0.65538 0.5157 0.0
C610 C 0.51742 0.68042 0.42577 0.0
C611 C 0.54049 0.68561 0.38437 0.0
C612 C 0.55744 0.6048 0.58322 0.0
C613 C 0.53788 0.64479 0.50696 0.0
C614 C 0.55423 0.58011 0.62775 0.0
C615 C 0.5293 0.5701 0.6489 0.0
C616 C 0.5356 0.61966 0.56015 0.0
C617 C 0.50804 0.58572 0.62519 0.0
C618 C 0.51604 0.66011 0.48732 0.0
C619 C 0.56253 0.67167 0.41062 0.0
N620 N 0.51168 0.6096 0.58206 0.0
N621 N 0.56059 0.65158 0.46943 0.0
H622 H 0.84524 0.56725 0.43682 0.0
H623 H 0.94134 0.47535 0.69433 0.0
H624 H 0.83518 0.48322 0.48746 0.0
H625 H 0.94847 0.56003 0.66288 0.0
H626 H 0.89897 0.47853 0.63369 0.0
H627 H 0.87783 0.56606 0.53768 0.0
C628 C 0.8489 0.54871 0.47213 0.0
C629 C 0.83733 0.52532 0.45453 0.0
C630 C 0.90964 0.49647 0.64045 0.0
C631 C 0.87561 0.52355 0.56701 0.0
C632 C 0.934 0.49468 0.67467 0.0
C633 C 0.94875 0.51747 0.68278 0.0
C634 C 0.89985 0.52126 0.61307 0.0
C635 C 0.93793 0.54193 0.65716 0.0
C636 C 0.86789 0.54795 0.52872 0.0
C637 C 0.84338 0.50171 0.50013 0.0
N638 N 0.91428 0.54318 0.62267 0.0
N639 N 0.8625 0.50134 0.55313 0.0
loop_
_geom_bond_atom_site_label_1
_geom_bond_atom_site_label_2
_geom_bond_distance
_geom_bond_site_symmetry_2
_ccdc_geom_bond_type
H0 C5 0.929 . S
H1 C10 0.931 . S
H2 C8 0.930 . S
N3 N4 1.234 . S
N3 C7 1.453 . S
N4 N3 1.234 . S
C5 H0 0.929 . S
C5 C6 1.373 . S
C5 C7 1.368 . S
C6 C5 1.373 . S
C6 C10 1.397 . S
C7 N3 1.453 . S
C7 C5 1.368 . S
C7 C8 1.373 . S
C8 H2 0.930 . S
C8 C7 1.373 . S
C8 C9 1.371 . S
C9 C8 1.371 . S
C9 C10 1.383 . S
C10 H1 0.931 . S
C10 C6 1.397 . S
C10 C9 1.383 . S
H11 C16 0.929 . S
H12 C21 0.931 . S
H13 C19 0.930 . S
N14 N15 1.234 . S
N14 C18 1.453 . S
N15 N14 1.234 . S
C16 H11 0.929 . S
C16 C17 1.373 . S
C16 C18 1.368 . S
C17 C16 1.373 . S
C17 C21 1.397 . S
C18 N14 1.453 . S
C18 C16 1.368 . S
C18 C19 1.373 . S
C19 H13 0.930 . S
C19 C18 1.373 . S
C19 C20 1.371 . S
C20 C19 1.371 . S
C20 C21 1.383 . S
C21 H12 0.931 . S
C21 C17 1.397 . S
C21 C20 1.383 . S
H22 C27 0.929 . S
H23 C32 0.931 . S
H24 C30 0.930 1_556 S
N25 N26 1.220 1_545 S
N25 C29 1.453 . S
N26 N25 1.220 1_565 S
C27 H22 0.929 . S
C27 C28 1.373 . S
C27 C29 1.368 . S
C28 C27 1.373 . S
C28 C32 1.397 1_545 S
C29 N25 1.453 . S
C29 C27 1.368 . S
C29 C30 1.373 . S
C30 H24 0.930 1_554 S
C30 C29 1.373 . S
C30 C31 1.373 . S
C31 C30 1.373 . S
C31 C32 1.385 1_545 S
C32 H23 0.931 . S
C32 C28 1.397 1_565 S
C32 C31 1.385 1_565 S
H33 C38 0.929 . S
H34 C43 0.931 . S
H35 C41 0.930 . S
N36 N37 1.234 . S
N36 C40 1.453 . S
N37 N36 1.234 . S
C38 H33 0.929 . S
C38 C39 1.373 . S
C38 C40 1.368 . S
C39 C38 1.373 . S
C39 C43 1.397 . S
C40 N36 1.453 . S
C40 C38 1.368 . S
C40 C41 1.373 . S
C41 H35 0.930 . S
C41 C40 1.373 . S
C41 C42 1.371 . S
C42 C41 1.371 . S
C42 C43 1.383 . S
C43 H34 0.931 . S
C43 C39 1.397 . S
C43 C42 1.383 . S
H44 C49 0.929 . S
H45 C54 0.931 . S
H46 C52 0.930 . S
N47 N48 1.234 . S
N47 C51 1.453 . S
N48 N47 1.234 . S
C49 H44 0.929 . S
C49 C50 1.373 . S
C49 C51 1.368 . S
C50 C49 1.373 . S
C50 C54 1.397 . S
C51 N47 1.453 . S
C51 C49 1.368 . S
C51 C52 1.373 . S
C52 H46 0.930 . S
C52 C51 1.373 . S
C52 C53 1.371 . S
C53 C52 1.371 . S
C53 C54 1.383 . S
C54 H45 0.931 . S
C54 C50 1.397 . S
C54 C53 1.383 . S
H55 C60 0.929 . S
H56 C65 0.931 . S
H57 C63 0.930 . S
N58 N59 1.234 . S
N58 C62 1.453 . S
N59 N58 1.234 . S
C60 H55 0.929 . S
C60 C61 1.373 . S
C60 C62 1.368 . S
C61 C60 1.373 . S
C61 C65 1.397 . S
C62 N58 1.453 . S
C62 C60 1.368 . S
C62 C63 1.373 . S
C63 H57 0.930 . S
C63 C62 1.373 . S
C63 C64 1.371 . S
C64 C63 1.371 . S
C64 C65 1.383 . S
C65 H56 0.931 . S
C65 C61 1.397 . S
C65 C64 1.383 . S
H66 C71 0.929 . S
H67 C76 0.931 . S
H68 C74 0.930 . S
N69 N70 1.230 1_545 S
N69 C73 1.453 . S
N70 N69 1.230 1_565 S
C71 H66 0.929 . S
C71 C72 1.373 . S
C71 C73 1.368 . S
C72 C71 1.373 . S
C72 C76 1.397 1_545 S
C73 N69 1.453 . S
C73 C71 1.368 . S
C73 C74 1.373 . S
C74 H68 0.930 . S
C74 C73 1.373 . S
C74 C75 1.376 . S
C75 C74 1.376 . S
C75 C76 1.376 1_545 S
C76 H67 0.931 . S
C76 C72 1.397 1_565 S
C76 C75 1.376 1_565 S
H77 C82 0.929 . S
H78 C87 0.931 . S
H79 C85 0.930 . S
N80 N81 1.234 . S
N80 C84 1.453 . S
N81 N80 1.234 . S
C82 H77 0.929 . S
C82 C83 1.373 . S
C82 C84 1.368 . S
C83 C82 1.373 . S
C83 C87 1.397 . S
C84 N80 1.453 . S
C84 C82 1.368 . S
C84 C85 1.373 . S
C85 H79 0.930 . S
C85 C84 1.373 . S
C85 C86 1.371 . S
C86 C85 1.371 . S
C86 C87 1.383 . S
C87 H78 0.931 . S
C87 C83 1.397 . S
C87 C86 1.383 . S
Co88 N93 2.057 . S
Co88 O105 2.021 . S
Co88 O108 2.062 . S
Co88 O112 2.117 1_455 S
Co88 O113 2.020 1_545 S
C89 O109 1.259 1_545 S
C89 O112 1.258 . S
Co90 N99 2.057 . S
Co90 O106 2.117 1_655 S
Co90 O107 2.020 1_665 S
Co90 O109 2.021 . S
Co90 O114 2.062 . S
C91 N93 1.316 . S
C91 N94 1.347 1_556 S
C91 H96 0.931 . S
C92 N93 1.375 1_655 S
C92 C95 1.350 1_656 S
C92 H97 0.930 . S
N93 Co88 2.057 . S
N93 C91 1.316 . S
N93 C92 1.375 1_455 S
N94 C91 1.347 1_554 S
N94 C95 1.373 . S
C95 C92 1.350 1_454 S
C95 N94 1.373 . S
C95 H116 0.931 1_455 S
H96 C91 0.931 . S
H97 C92 0.930 . S
C98 O105 1.259 1_565 S
C98 O106 1.258 . S
N99 Co90 2.057 . S
N99 C100 1.316 . S
N99 C101 1.375 1_655 S
C100 N99 1.316 . S
C100 N102 1.347 . S
C100 H111 0.931 . S
C101 N99 1.375 1_455 S
C101 C103 1.350 . S
C101 H110 0.930 . S
N102 C100 1.347 . S
N102 C103 1.373 1_655 S
C103 C101 1.350 . S
C103 N102 1.373 1_455 S
C103 H117 0.931 . S
C104 O107 1.256 . S
C104 O108 1.255 . S
O105 Co88 2.021 . S
O105 C98 1.259 1_545 S
O106 Co90 2.117 1_455 S
O106 C98 1.258 . S
O107 Co90 2.020 1_445 S
O107 C104 1.256 . S
O108 Co88 2.062 . S
O108 C104 1.255 . S
O109 C89 1.259 1_565 S
O109 Co90 2.021 . S
H110 C101 0.930 . S
H111 C100 0.931 . S
O112 Co88 2.117 1_655 S
O112 C89 1.258 . S
O113 Co88 2.020 1_565 S
O113 C115 1.256 . S
O114 Co90 2.062 . S
O114 C115 1.255 1_655 S
C115 O113 1.256 . S
C115 O114 1.255 1_455 S
H116 C95 0.931 1_655 S
H117 C103 0.931 . S
Co118 N123 2.057 1_545 S
Co118 O135 2.021 . S
Co118 O138 2.066 . S
Co118 O142 2.117 1_545 S
Co118 O143 2.020 . S
C119 O139 1.259 . S
C119 O142 1.258 . S
Co120 N129 2.057 1_565 S
Co120 O136 2.117 1_565 S
Co120 O137 2.020 . S
Co120 O139 2.021 . S
Co120 O144 2.064 . S
C121 N123 1.316 1_545 S
C121 N124 1.347 1_556 S
C121 H126 0.931 . S
C122 N123 1.375 1_554 S
C122 C125 1.350 . S
C122 H127 0.930 . S
N123 Co118 2.057 1_565 S
N123 C121 1.316 1_565 S
N123 C122 1.375 1_556 S
N124 C121 1.347 1_554 S
N124 C125 1.373 1_545 S
C125 C122 1.350 . S
C125 N124 1.373 1_565 S
C125 H146 0.931 . S
H126 C121 0.931 . S
H127 C122 0.930 . S
C128 O135 1.259 . S
C128 O136 1.258 . S
N129 Co120 2.057 1_545 S
N129 C130 1.316 1_545 S
N129 C131 1.375 . S
C130 N129 1.316 1_565 S
C130 N132 1.347 . S
C130 H141 0.931 . S
C131 N129 1.375 . S
C131 C133 1.350 . S
C131 H140 0.930 . S
N132 C130 1.347 . S
N132 C133 1.373 1_565 S
C133 C131 1.350 . S
C133 N132 1.373 1_545 S
C133 H147 0.931 . S
C134 O137 1.256 . S
C134 O138 1.246 1_565 S
O135 Co118 2.021 . S
O135 C128 1.259 . S
O136 Co120 2.117 1_545 S
O136 C128 1.258 . S
O137 Co120 2.020 . S
O137 C134 1.256 . S
O138 Co118 2.066 . S
O138 C134 1.246 1_545 S
O139 C119 1.259 . S
O139 Co120 2.021 . S
H140 C131 0.930 . S
H141 C130 0.931 . S
O142 Co118 2.117 1_565 S
O142 C119 1.258 . S
O143 Co118 2.020 . S
O143 C145 1.256 . S
O144 Co120 2.064 . S
O144 C145 1.250 1_565 S
C145 O143 1.256 . S
C145 O144 1.250 1_545 S
H146 C125 0.931 . S
H147 C133 0.931 . S
Co148 N153 2.057 . S
Co148 O165 2.021 . S
Co148 O168 2.062 . S
Co148 O172 2.117 . S
Co148 O173 2.020 . S
C149 O169 1.259 . S
C149 O172 1.258 . S
Co150 N159 2.057 . S
Co150 O166 2.117 . S
Co150 O167 2.020 . S
Co150 O169 2.021 . S
Co150 O174 2.062 . S
C151 N153 1.316 . S
C151 N154 1.347 . S
C151 H156 0.931 . S
C152 N153 1.375 . S
C152 C155 1.350 . S
C152 H157 0.930 . S
N153 Co148 2.057 . S
N153 C151 1.316 . S
N153 C152 1.375 . S
N154 C151 1.347 . S
N154 C155 1.373 . S
C155 C152 1.350 . S
C155 N154 1.373 . S
C155 H176 0.931 . S
H156 C151 0.931 . S
H157 C152 0.930 . S
C158 O165 1.259 . S
C158 O166 1.258 . S
N159 Co150 2.057 . S
N159 C160 1.316 . S
N159 C161 1.375 . S
C160 N159 1.316 . S
C160 N162 1.347 . S
C160 H171 0.931 . S
C161 N159 1.375 . S
C161 C163 1.350 . S
C161 H170 0.930 . S
N162 C160 1.347 . S
N162 C163 1.373 . S
C163 C161 1.350 . S
C163 N162 1.373 . S
C163 H177 0.931 . S
C164 O167 1.256 . S
C164 O168 1.255 . S
O165 Co148 2.021 . S
O165 C158 1.259 . S
O166 Co150 2.117 . S
O166 C158 1.258 . S
O167 Co150 2.020 . S
O167 C164 1.256 . S
O168 Co148 2.062 . S
O168 C164 1.255 . S
O169 C149 1.259 . S
O169 Co150 2.021 . S
H170 C161 0.930 . S
H171 C160 0.931 . S
O172 Co148 2.117 . S
O172 C149 1.258 . S
O173 Co148 2.020 . S
O173 C175 1.256 . S
O174 Co150 2.062 . S
O174 C175 1.255 . S
C175 O173 1.256 . S
C175 O174 1.255 . S
H176 C155 0.931 . S
H177 C163 0.931 . S
Co178 N183 2.057 . S
Co178 O195 2.021 1_455 S
Co178 O198 2.062 1_455 S
Co178 O202 2.117 . S
Co178 O203 2.020 . S
C179 O199 1.259 . S
C179 O202 1.258 . S
Co180 N189 2.057 . S
Co180 O196 2.117 1_455 S
Co180 O197 2.020 1_455 S
Co180 O199 2.021 . S
Co180 O204 2.062 . S
C181 N183 1.316 1_655 S
C181 N184 1.349 . S
C181 H186 0.931 . S
C182 N183 1.375 . S
C182 C185 1.350 . S
C182 H187 0.930 . S
N183 Co178 2.057 . S
N183 C181 1.316 1_455 S
N183 C182 1.375 . S
N184 C181 1.349 . S
N184 C185 1.365 1_655 S
C185 C182 1.350 . S
C185 N184 1.365 1_455 S
C185 H206 0.931 . S
H186 C181 0.931 . S
H187 C182 0.930 . S
C188 O195 1.259 . S
C188 O196 1.258 . S
N189 Co180 2.057 . S
N189 C190 1.316 . S
N189 C191 1.375 1_455 S
C190 N189 1.316 . S
C190 N192 1.347 . S
C190 H201 0.931 . S
C191 N189 1.375 1_655 S
C191 C193 1.350 . S
C191 H200 0.930 . S
N192 C190 1.347 . S
N192 C193 1.373 1_455 S
C193 C191 1.350 . S
C193 N192 1.373 1_655 S
C193 H207 0.931 . S
C194 O197 1.256 . S
C194 O198 1.255 . S
O195 Co178 2.021 1_655 S
O195 C188 1.259 . S
O196 Co180 2.117 1_655 S
O196 C188 1.258 . S
O197 Co180 2.020 1_655 S
O197 C194 1.256 . S
O198 Co178 2.062 1_655 S
O198 C194 1.255 . S
O199 C179 1.259 . S
O199 Co180 2.021 . S
H200 C191 0.930 . S
H201 C190 0.931 . S
O202 Co178 2.117 . S
O202 C179 1.258 . S
O203 Co178 2.020 . S
O203 C205 1.256 . S
O204 Co180 2.062 . S
O204 C205 1.255 . S
C205 O203 1.256 . S
C205 O204 1.255 . S
H206 C185 0.931 . S
H207 C193 0.931 . S
H208 C214 0.930 . S
H209 C218 0.930 . S
H210 C223 0.929 . S
H211 C221 0.929 . S
H212 C216 0.929 . S
H213 C222 0.929 . S
C214 H208 0.930 . S
C214 C215 1.367 . S
C214 C222 1.378 . S
C215 C214 1.367 . S
C215 C223 1.433 1_565 S
C216 H212 0.929 . S
C216 C218 1.378 . S
C216 C220 1.350 1_545 S
C217 C220 1.463 . S
C217 C222 1.350 . S
C217 N225 1.427 1_565 S
C218 H209 0.930 . S
C218 C216 1.378 . S
C218 C219 1.367 1_545 S
C219 C218 1.367 1_565 S
C219 C221 1.433 . S
C220 C216 1.350 1_565 S
C220 C217 1.463 . S
C220 N224 1.427 . S
C221 H211 0.929 . S
C221 C219 1.433 . S
C221 N224 1.384 . S
C222 H213 0.929 . S
C222 C214 1.378 . S
C222 C217 1.350 . S
C223 H210 0.929 . S
C223 C215 1.433 1_545 S
C223 N225 1.384 . S
N224 C220 1.427 . S
N224 C221 1.384 . S
N225 C217 1.427 1_545 S
N225 C223 1.384 . S
H226 C232 0.930 . S
H227 C236 0.930 . S
H228 C241 0.929 . S
H229 C239 0.929 . S
H230 C234 0.929 . S
H231 C240 0.929 . S
C232 H226 0.930 . S
C232 C233 1.367 . S
C232 C240 1.378 . S
C233 C232 1.367 . S
C233 C241 1.433 . S
C234 H230 0.929 . S
C234 C236 1.378 . S
C234 C238 1.350 . S
C235 C238 1.463 . S
C235 C240 1.350 . S
C235 N243 1.427 . S
C236 H227 0.930 . S
C236 C234 1.378 . S
C236 C237 1.367 . S
C237 C236 1.367 . S
C237 C239 1.433 . S
C238 C234 1.350 . S
C238 C235 1.463 . S
C238 N242 1.427 . S
C239 H229 0.929 . S
C239 C237 1.433 . S
C239 N242 1.384 . S
C240 H231 0.929 . S
C240 C232 1.378 . S
C240 C235 1.350 . S
C241 H228 0.929 . S
C241 C233 1.433 . S
C241 N243 1.384 . S
N242 C238 1.427 . S
N242 C239 1.384 . S
N243 C235 1.427 . S
N243 C241 1.384 . S
H244 C250 0.930 . S
H245 C254 0.930 . S
H246 C259 0.929 . S
H247 C257 0.929 . S
H248 C252 0.929 . S
H249 C258 0.929 . S
C250 H244 0.930 . S
C250 C251 1.367 . S
C250 C258 1.378 . S
C251 C250 1.367 . S
C251 C259 1.433 . S
C252 H248 0.929 . S
C252 C254 1.378 . S
C252 C256 1.350 . S
C253 C256 1.463 . S
C253 C258 1.350 . S
C253 N261 1.427 . S
C254 H245 0.930 . S
C254 C252 1.378 . S
C254 C255 1.367 . S
C255 C254 1.367 . S
C255 C257 1.433 . S
C256 C252 1.350 . S
C256 C253 1.463 . S
C256 N260 1.427 . S
C257 H247 0.929 . S
C257 C255 1.433 . S
C257 N260 1.384 . S
C258 H249 0.929 . S
C258 C250 1.378 . S
C258 C253 1.350 . S
C259 H246 0.929 . S
C259 C251 1.433 . S
C259 N261 1.384 . S
N260 C256 1.427 . S
N260 C257 1.384 . S
N261 C253 1.427 . S
N261 C259 1.384 . S
H262 C268 0.930 . S
H263 C272 0.930 1_655 S
H264 C277 0.929 . S
H265 C275 0.929 . S
H266 C270 0.929 . S
H267 C276 0.929 . S
C268 H262 0.930 . S
C268 C269 1.367 . S
C268 C276 1.378 . S
C269 C268 1.367 . S
C269 C277 1.433 . S
C270 H266 0.929 . S
C270 C272 1.378 . S
C270 C274 1.350 . S
C271 C274 1.463 . S
C271 C276 1.350 . S
C271 N279 1.427 . S
C272 H263 0.930 1_455 S
C272 C270 1.378 . S
C272 C273 1.367 . S
C273 C272 1.367 . S
C273 C275 1.433 . S
C274 C270 1.350 . S
C274 C271 1.463 . S
C274 N278 1.427 . S
C275 H265 0.929 . S
C275 C273 1.433 . S
C275 N278 1.384 . S
C276 H267 0.929 . S
C276 C268 1.378 . S
C276 C271 1.350 . S
C277 H264 0.929 . S
C277 C269 1.433 . S
C277 N279 1.384 . S
N278 C274 1.427 . S
N278 C275 1.384 . S
N279 C271 1.427 . S
N279 C277 1.384 . S
H280 C286 0.930 . S
H281 C290 0.930 . S
H282 C295 0.929 . S
H283 C293 0.929 . S
H284 C288 0.929 . S
H285 C294 0.929 . S
C286 H280 0.930 . S
C286 C287 1.359 1_565 S
C286 C294 1.378 . S
C287 C286 1.359 1_545 S
C287 C295 1.441 1_556 S
C288 H284 0.929 . S
C288 C290 1.378 . S
C288 C292 1.350 . S
C289 C292 1.463 . S
C289 C294 1.350 1_545 S
C289 N297 1.427 . S
C290 H281 0.930 . S
C290 C288 1.378 . S
C290 C291 1.367 . S
C291 C290 1.367 . S
C291 C293 1.433 1_545 S
C292 C288 1.350 . S
C292 C289 1.463 . S
C292 N296 1.427 1_545 S
C293 H283 0.929 . S
C293 C291 1.433 1_565 S
C293 N296 1.384 . S
C294 H285 0.929 . S
C294 C286 1.378 . S
C294 C289 1.350 1_565 S
C295 H282 0.929 . S
C295 C287 1.441 1_554 S
C295 N297 1.384 1_554 S
N296 C292 1.427 1_565 S
N296 C293 1.384 . S
N297 C289 1.427 . S
N297 C295 1.384 1_556 S
H298 C304 0.930 . S
H299 C308 0.930 . S
H300 C313 0.929 . S
H301 C311 0.929 . S
H302 C306 0.929 1_554 S
H303 C312 0.929 . S
C304 H298 0.930 . S
C304 C305 1.367 1_556 S
C304 C312 1.378 . S
C305 C304 1.367 1_554 S
C305 C313 1.433 . S
C306 H302 0.929 1_556 S
C306 C308 1.378 . S
C306 C310 1.350 . S
C307 C310 1.463 . S
C307 C312 1.350 . S
C307 N315 1.427 1_556 S
C308 H299 0.930 . S
C308 C306 1.378 . S
C308 C309 1.367 . S
C309 C308 1.367 . S
C309 C311 1.433 . S
C310 C306 1.350 . S
C310 C307 1.463 . S
C310 N314 1.427 . S
C311 H301 0.929 . S
C311 C309 1.433 . S
C311 N314 1.384 . S
C312 H303 0.929 . S
C312 C304 1.378 . S
C312 C307 1.350 . S
C313 H300 0.929 . S
C313 C305 1.433 . S
C313 N315 1.384 . S
N314 C310 1.427 . S
N314 C311 1.384 . S
N315 C307 1.427 1_554 S
N315 C313 1.384 . S
H316 C322 0.930 . S
H317 C326 0.930 . S
H318 C331 0.929 . S
H319 C329 0.929 . S
H320 C324 0.929 . S
H321 C330 0.929 . S
C322 H316 0.930 . S
C322 C323 1.367 . S
C322 C330 1.378 . S
C323 C322 1.367 . S
C323 C331 1.433 . S
C324 H320 0.929 . S
C324 C326 1.378 . S
C324 C328 1.350 . S
C325 C328 1.463 1_554 S
C325 C330 1.350 . S
C325 N333 1.427 . S
C326 H317 0.930 . S
C326 C324 1.378 . S
C326 C327 1.367 . S
C327 C326 1.367 . S
C327 C329 1.433 . S
C328 C324 1.350 . S
C328 C325 1.463 1_556 S
C328 N332 1.427 . S
C329 H319 0.929 . S
C329 C327 1.433 . S
C329 N332 1.384 . S
C330 H321 0.929 . S
C330 C322 1.378 . S
C330 C325 1.350 . S
C331 H318 0.929 . S
C331 C323 1.433 . S
C331 N333 1.384 . S
N332 C328 1.427 . S
N332 C329 1.384 . S
N333 C325 1.427 . S
N333 C331 1.384 . S
H334 C340 0.930 . S
H335 C344 0.930 . S
H336 C349 0.929 . S
H337 C347 0.929 . S
H338 C342 0.929 . S
H339 C348 0.929 . S
C340 H334 0.930 . S
C340 C341 1.367 . S
C340 C348 1.378 . S
C341 C340 1.367 . S
C341 C349 1.433 1_554 S
C342 H338 0.929 . S
C342 C344 1.378 . S
C342 C346 1.350 . S
C343 C346 1.463 . S
C343 C348 1.350 1_556 S
C343 N351 1.427 . S
C344 H335 0.930 . S
C344 C342 1.378 . S
C344 C345 1.367 . S
C345 C344 1.367 . S
C345 C347 1.433 1_655 S
C346 C342 1.350 . S
C346 C343 1.463 . S
C346 N350 1.427 . S
C347 H337 0.929 . S
C347 C345 1.433 1_455 S
C347 N350 1.384 1_455 S
C348 H339 0.929 . S
C348 C340 1.378 . S
C348 C343 1.350 1_554 S
C349 H336 0.929 . S
C349 C341 1.433 1_556 S
C349 N351 1.384 . S
N350 C346 1.427 . S
N350 C347 1.384 1_655 S
N351 C343 1.427 . S
N351 C349 1.384 . S
H352 C358 0.930 . S
H353 C362 0.930 . S
H354 C367 0.929 . S
H355 C365 0.929 . S
H356 C360 0.929 1_655 S
H357 C366 0.929 . S
C358 H352 0.930 . S
C358 C359 1.367 . S
C358 C366 1.378 . S
C359 C358 1.367 . S
C359 C367 1.433 . S
C360 H356 0.929 1_455 S
C360 C362 1.378 1_455 S
C360 C364 1.350 . S
C361 C364 1.463 . S
C361 C366 1.350 . S
C361 N369 1.427 . S
C362 H353 0.930 . S
C362 C360 1.378 1_655 S
C362 C363 1.367 1_655 S
C363 C362 1.367 1_455 S
C363 C365 1.433 . S
C364 C360 1.350 . S
C364 C361 1.463 . S
C364 N368 1.427 . S
C365 H355 0.929 . S
C365 C363 1.433 . S
C365 N368 1.384 . S
C366 H357 0.929 . S
C366 C358 1.378 . S
C366 C361 1.350 . S
C367 H354 0.929 . S
C367 C359 1.433 . S
C367 N369 1.384 . S
N368 C364 1.427 . S
N368 C365 1.384 . S
N369 C361 1.427 . S
N369 C367 1.384 . S
H370 C376 0.930 . S
H371 C380 0.930 . S
H372 C385 0.929 . S
H373 C383 0.929 . S
H374 C378 0.929 . S
H375 C384 0.929 . S
C376 H370 0.930 . S
C376 C377 1.378 . S
C376 C384 1.378 . S
C377 C376 1.378 . S
C377 C385 1.422 1_565 S
C378 H374 0.929 . S
C378 C380 1.378 . S
C378 C382 1.350 1_545 S
C379 C382 1.463 . S
C379 C384 1.350 . S
C379 N387 1.427 1_565 S
C380 H371 0.930 . S
C380 C378 1.378 . S
C380 C381 1.367 1_545 S
C381 C380 1.367 1_565 S
C381 C383 1.433 . S
C382 C378 1.350 1_565 S
C382 C379 1.463 . S
C382 N386 1.427 . S
C383 H373 0.929 . S
C383 C381 1.433 . S
C383 N386 1.384 . S
C384 H375 0.929 . S
C384 C376 1.378 . S
C384 C379 1.350 . S
C385 H372 0.929 . S
C385 C377 1.422 1_545 S
C385 N387 1.384 . S
N386 C382 1.427 . S
N386 C383 1.384 . S
N387 C379 1.427 1_545 S
N387 C385 1.384 . S
H388 C394 0.930 . S
H389 C398 0.930 . S
H390 C403 0.929 . S
H391 C401 0.929 . S
H392 C396 0.929 . S
H393 C402 0.929 . S
C394 H388 0.930 . S
C394 C395 1.367 . S
C394 C402 1.378 . S
C395 C394 1.367 . S
C395 C403 1.433 . S
C396 H392 0.929 . S
C396 C398 1.378 . S
C396 C400 1.350 . S
C397 C400 1.463 . S
C397 C402 1.350 . S
C397 N405 1.427 . S
C398 H389 0.930 . S
C398 C396 1.378 . S
C398 C399 1.367 . S
C399 C398 1.367 . S
C399 C401 1.433 . S
C400 C396 1.350 . S
C400 C397 1.463 . S
C400 N404 1.427 . S
C401 H391 0.929 . S
C401 C399 1.433 . S
C401 N404 1.384 . S
C402 H393 0.929 . S
C402 C394 1.378 . S
C402 C397 1.350 . S
C403 H390 0.929 . S
C403 C395 1.433 . S
C403 N405 1.384 . S
N404 C400 1.427 . S
N404 C401 1.384 . S
N405 C397 1.427 . S
N405 C403 1.384 . S
H406 C412 0.930 . S
H407 C416 0.930 . S
H408 C421 0.929 . S
H409 C419 0.929 . S
H410 C414 0.929 . S
H411 C420 0.929 . S
C412 H406 0.930 . S
C412 C413 1.367 . S
C412 C420 1.378 . S
C413 C412 1.367 . S
C413 C421 1.433 . S
C414 H410 0.929 . S
C414 C416 1.378 . S
C414 C418 1.350 . S
C415 C418 1.463 . S
C415 C420 1.350 . S
C415 N423 1.427 . S
C416 H407 0.930 . S
C416 C414 1.378 . S
C416 C417 1.367 . S
C417 C416 1.367 . S
C417 C419 1.433 . S
C418 C414 1.350 . S
C418 C415 1.463 . S
C418 N422 1.427 . S
C419 H409 0.929 . S
C419 C417 1.433 . S
C419 N422 1.384 . S
C420 H411 0.929 . S
C420 C412 1.378 . S
C420 C415 1.350 . S
C421 H408 0.929 . S
C421 C413 1.433 . S
C421 N423 1.384 . S
N422 C418 1.427 . S
N422 C419 1.384 . S
N423 C415 1.427 . S
N423 C421 1.384 . S
H424 C430 0.930 . S
H425 C434 0.930 . S
H426 C439 0.929 1_556 S
H427 C437 0.929 . S
H428 C432 0.929 . S
H429 C438 0.929 . S
C430 H424 0.930 . S
C430 C431 1.367 . S
C430 C438 1.378 . S
C431 C430 1.367 . S
C431 C439 1.433 . S
C432 H428 0.929 . S
C432 C434 1.378 . S
C432 C436 1.350 1_455 S
C433 C436 1.463 . S
C433 C438 1.350 1_556 S
C433 N441 1.427 . S
C434 H425 0.930 . S
C434 C432 1.378 . S
C434 C435 1.367 . S
C435 C434 1.367 . S
C435 C437 1.433 1_455 S
C436 C432 1.350 1_655 S
C436 C433 1.463 . S
C436 N440 1.427 . S
C437 H427 0.929 . S
C437 C435 1.433 1_655 S
C437 N440 1.384 . S
C438 H429 0.929 . S
C438 C430 1.378 . S
C438 C433 1.350 1_554 S
C439 H426 0.929 1_554 S
C439 C431 1.433 . S
C439 N441 1.384 1_554 S
N440 C436 1.427 . S
N440 C437 1.384 . S
N441 C433 1.427 . S
N441 C439 1.384 1_556 S
H442 C448 0.930 . S
H443 C452 0.930 . S
H444 C457 0.929 . S
H445 C455 0.929 . S
H446 C450 0.929 1_554 S
H447 C456 0.929 . S
C448 H442 0.930 . S
C448 C449 1.367 . S
C448 C456 1.378 . S
C449 C448 1.367 . S
C449 C457 1.434 1_546 S
C450 H446 0.929 1_556 S
C450 C452 1.378 . S
C450 C454 1.350 . S
C451 C454 1.463 . S
C451 C456 1.350 . S
C451 N459 1.427 1_556 S
C452 H443 0.930 . S
C452 C450 1.378 . S
C452 C453 1.367 . S
C453 C452 1.367 . S
C453 C455 1.433 . S
C454 C450 1.350 . S
C454 C451 1.463 . S
C454 N458 1.427 . S
C455 H445 0.929 . S
C455 C453 1.433 . S
C455 N458 1.384 . S
C456 H447 0.929 . S
C456 C448 1.378 . S
C456 C451 1.350 . S
C457 H444 0.929 . S
C457 C449 1.434 1_564 S
C457 N459 1.383 1_565 S
N458 C454 1.427 . S
N458 C455 1.384 . S
N459 C451 1.427 1_554 S
N459 C457 1.383 1_545 S
H460 C466 0.930 . S
H461 C470 0.930 . S
H462 C475 0.929 . S
H463 C473 0.929 . S
H464 C468 0.929 . S
H465 C474 0.929 . S
C466 H460 0.930 . S
C466 C467 1.367 . S
C466 C474 1.378 1_554 S
C467 C466 1.367 . S
C467 C475 1.433 . S
C468 H464 0.929 . S
C468 C470 1.378 . S
C468 C472 1.350 . S
C469 C472 1.463 . S
C469 C474 1.350 . S
C469 N477 1.427 1_556 S
C470 H461 0.930 . S
C470 C468 1.378 . S
C470 C471 1.367 . S
C471 C470 1.367 . S
C471 C473 1.433 . S
C472 C468 1.350 . S
C472 C469 1.463 . S
C472 N476 1.427 . S
C473 H463 0.929 . S
C473 C471 1.433 . S
C473 N476 1.384 . S
C474 H465 0.929 . S
C474 C466 1.378 1_556 S
C474 C469 1.350 . S
C475 H462 0.929 . S
C475 C467 1.433 . S
C475 N477 1.384 . S
N476 C472 1.427 . S
N476 C473 1.384 . S
N477 C469 1.427 1_554 S
N477 C475 1.384 . S
H478 C484 0.930 . S
H479 C488 0.930 . S
H480 C493 0.929 . S
H481 C491 0.929 . S
H482 C486 0.929 . S
H483 C492 0.929 . S
C484 H478 0.930 . S
C484 C485 1.367 . S
C484 C492 1.378 . S
C485 C484 1.367 . S
C485 C493 1.433 . S
C486 H482 0.929 . S
C486 C488 1.378 . S
C486 C490 1.350 . S
C487 C490 1.463 1_554 S
C487 C492 1.350 . S
C487 N495 1.427 . S
C488 H479 0.930 . S
C488 C486 1.378 . S
C488 C489 1.367 . S
C489 C488 1.367 . S
C489 C491 1.433 . S
C490 C486 1.350 . S
C490 C487 1.463 1_556 S
C490 N494 1.427 . S
C491 H481 0.929 . S
C491 C489 1.433 . S
C491 N494 1.384 . S
C492 H483 0.929 . S
C492 C484 1.378 . S
C492 C487 1.350 . S
C493 H480 0.929 . S
C493 C485 1.433 . S
C493 N495 1.384 . S
N494 C490 1.427 . S
N494 C491 1.384 . S
N495 C487 1.427 . S
N495 C493 1.384 . S
H496 C502 0.930 . S
H497 C506 0.930 . S
H498 C511 0.929 . S
H499 C509 0.929 . S
H500 C504 0.929 . S
H501 C510 0.929 . S
C502 H496 0.930 . S
C502 C503 1.367 . S
C502 C510 1.378 . S
C503 C502 1.367 . S
C503 C511 1.433 . S
C504 H500 0.929 . S
C504 C506 1.378 . S
C504 C508 1.350 . S
C505 C508 1.463 . S
C505 C510 1.350 . S
C505 N513 1.427 . S
C506 H497 0.930 . S
C506 C504 1.378 . S
C506 C507 1.367 . S
C507 C506 1.367 . S
C507 C509 1.433 . S
C508 C504 1.350 . S
C508 C505 1.463 . S
C508 N512 1.427 . S
C509 H499 0.929 . S
C509 C507 1.433 . S
C509 N512 1.384 . S
C510 H501 0.929 . S
C510 C502 1.378 . S
C510 C505 1.350 . S
C511 H498 0.929 . S
C511 C503 1.433 . S
C511 N513 1.384 . S
N512 C508 1.427 . S
N512 C509 1.384 . S
N513 C505 1.427 . S
N513 C511 1.384 . S
H514 C520 0.930 . S
H515 C524 0.930 . S
H516 C529 0.929 . S
H517 C527 0.929 . S
H518 C522 0.929 . S
H519 C528 0.931 . S
C520 H514 0.930 . S
C520 C521 1.363 1_565 S
C520 C528 1.377 . S
C521 C520 1.363 1_545 S
C521 C529 1.436 . S
C522 H518 0.929 . S
C522 C524 1.378 . S
C522 C526 1.350 . S
C523 C526 1.463 . S
C523 C528 1.349 1_545 S
C523 N531 1.427 . S
C524 H515 0.930 . S
C524 C522 1.378 . S
C524 C525 1.367 . S
C525 C524 1.367 . S
C525 C527 1.433 . S
C526 C522 1.350 . S
C526 C523 1.463 . S
C526 N530 1.427 . S
C527 H517 0.929 . S
C527 C525 1.433 . S
C527 N530 1.384 . S
C528 H519 0.931 . S
C528 C520 1.377 . S
C528 C523 1.349 1_565 S
C529 H516 0.929 . S
C529 C521 1.436 . S
C529 N531 1.384 . S
N530 C526 1.427 . S
N530 C527 1.384 . S
N531 C523 1.427 . S
N531 C529 1.384 . S
H532 C538 0.930 . S
H533 C542 0.930 1_556 S
H534 C547 0.929 . S
H535 C545 0.929 . S
H536 C540 0.929 . S
H537 C546 0.929 . S
C538 H532 0.930 . S
C538 C539 1.367 . S
C538 C546 1.378 . S
C539 C538 1.367 . S
C539 C547 1.433 . S
C540 H536 0.929 . S
C540 C542 1.378 . S
C540 C544 1.350 . S
C541 C544 1.463 . S
C541 C546 1.350 . S
C541 N549 1.427 . S
C542 H533 0.930 1_554 S
C542 C540 1.378 . S
C542 C543 1.367 1_554 S
C543 C542 1.367 1_556 S
C543 C545 1.433 1_556 S
C544 C540 1.350 . S
C544 C541 1.463 . S
C544 N548 1.427 . S
C545 H535 0.929 . S
C545 C543 1.433 1_554 S
C545 N548 1.384 . S
C546 H537 0.929 . S
C546 C538 1.378 . S
C546 C541 1.350 . S
C547 H534 0.929 . S
C547 C539 1.433 . S
C547 N549 1.384 . S
N548 C544 1.427 . S
N548 C545 1.384 . S
N549 C541 1.427 . S
N549 C547 1.384 . S
H550 C556 0.930 . S
H551 C560 0.930 . S
H552 C565 0.929 . S
H553 C563 0.929 . S
H554 C558 0.929 . S
H555 C564 0.929 . S
C556 H550 0.930 . S
C556 C557 1.367 . S
C556 C564 1.378 . S
C557 C556 1.367 . S
C557 C565 1.433 . S
C558 H554 0.929 . S
C558 C560 1.378 1_554 S
C558 C562 1.350 . S
C559 C562 1.463 . S
C559 C564 1.350 . S
C559 N567 1.427 . S
C560 H551 0.930 . S
C560 C558 1.378 1_556 S
C560 C561 1.367 . S
C561 C560 1.367 . S
C561 C563 1.433 1_556 S
C562 C558 1.350 . S
C562 C559 1.463 . S
C562 N566 1.427 . S
C563 H553 0.929 . S
C563 C561 1.433 1_554 S
C563 N566 1.384 . S
C564 H555 0.929 . S
C564 C556 1.378 . S
C564 C559 1.350 . S
C565 H552 0.929 . S
C565 C557 1.433 . S
C565 N567 1.384 . S
N566 C562 1.427 . S
N566 C563 1.384 . S
N567 C559 1.427 . S
N567 C565 1.384 . S
H568 C574 0.930 . S
H569 C578 0.930 . S
H570 C583 0.929 . S
H571 C581 0.929 . S
H572 C576 0.929 . S
H573 C582 0.929 . S
C574 H568 0.930 . S
C574 C575 1.367 . S
C574 C582 1.378 . S
C575 C574 1.367 . S
C575 C583 1.433 . S
C576 H572 0.929 . S
C576 C578 1.378 . S
C576 C580 1.350 . S
C577 C580 1.463 . S
C577 C582 1.350 . S
C577 N585 1.427 . S
C578 H569 0.930 . S
C578 C576 1.378 . S
C578 C579 1.367 . S
C579 C578 1.367 . S
C579 C581 1.433 . S
C580 C576 1.350 . S
C580 C577 1.463 . S
C580 N584 1.427 . S
C581 H571 0.929 . S
C581 C579 1.433 . S
C581 N584 1.384 . S
C582 H573 0.929 . S
C582 C574 1.378 . S
C582 C577 1.350 . S
C583 H570 0.929 . S
C583 C575 1.433 . S
C583 N585 1.384 . S
N584 C580 1.427 . S
N584 C581 1.384 . S
N585 C577 1.427 . S
N585 C583 1.384 . S
H586 C592 0.930 . S
H587 C596 0.928 . S
H588 C601 0.929 . S
H589 C599 0.929 . S
H590 C594 0.929 . S
H591 C600 0.929 . S
C592 H586 0.930 . S
C592 C593 1.367 . S
C592 C600 1.378 . S
C593 C592 1.367 . S
C593 C601 1.433 1_565 S
C594 H590 0.929 . S
C594 C596 1.378 . S
C594 C598 1.350 1_545 S
C595 C598 1.463 . S
C595 C600 1.350 . S
C595 N603 1.427 1_565 S
C596 H587 0.928 . S
C596 C594 1.378 . S
C596 C597 1.368 1_545 S
C597 C596 1.368 1_565 S
C597 C599 1.433 . S
C598 C594 1.350 1_565 S
C598 C595 1.463 . S
C598 N602 1.427 . S
C599 H589 0.929 . S
C599 C597 1.433 . S
C599 N602 1.384 . S
C600 H591 0.929 . S
C600 C592 1.378 . S
C600 C595 1.350 . S
C601 H588 0.929 . S
C601 C593 1.433 1_545 S
C601 N603 1.384 . S
N602 C598 1.427 . S
N602 C599 1.384 . S
N603 C595 1.427 1_545 S
N603 C601 1.384 . S
H604 C610 0.930 . S
H605 C614 0.930 . S
H606 C619 0.929 . S
H607 C617 0.929 . S
H608 C612 0.929 . S
H609 C618 0.929 . S
C610 H604 0.930 . S
C610 C611 1.367 . S
C610 C618 1.378 . S
C611 C610 1.367 . S
C611 C619 1.433 . S
C612 H608 0.929 . S
C612 C614 1.378 . S
C612 C616 1.350 . S
C613 C616 1.463 . S
C613 C618 1.350 . S
C613 N621 1.427 . S
C614 H605 0.930 . S
C614 C612 1.378 . S
C614 C615 1.367 . S
C615 C614 1.367 . S
C615 C617 1.433 . S
C616 C612 1.350 . S
C616 C613 1.463 . S
C616 N620 1.427 . S
C617 H607 0.929 . S
C617 C615 1.433 . S
C617 N620 1.384 . S
C618 H609 0.929 . S
C618 C610 1.378 . S
C618 C613 1.350 . S
C619 H606 0.929 . S
C619 C611 1.433 . S
C619 N621 1.384 . S
N620 C616 1.427 . S
N620 C617 1.384 . S
N621 C613 1.427 . S
N621 C619 1.384 . S
H622 C628 0.930 . S
H623 C632 0.930 . S
H624 C637 0.929 . S
H625 C635 0.929 . S
H626 C630 0.929 . S
H627 C636 0.929 . S
C628 H622 0.930 . S
C628 C629 1.367 . S
C628 C636 1.378 . S
C629 C628 1.367 . S
C629 C637 1.433 . S
C630 H626 0.929 . S
C630 C632 1.378 . S
C630 C634 1.350 . S
C631 C634 1.463 . S
C631 C636 1.350 . S
C631 N639 1.427 . S
C632 H623 0.930 . S
C632 C630 1.378 . S
C632 C633 1.367 . S
C633 C632 1.367 . S
C633 C635 1.433 . S
C634 C630 1.350 . S
C634 C631 1.463 . S
C634 N638 1.427 . S
C635 H625 0.929 . S
C635 C633 1.433 . S
C635 N638 1.384 . S
C636 H627 0.929 . S
C636 C628 1.378 . S
C636 C631 1.350 . S
C637 H624 0.929 . S
C637 C629 1.433 . S
C637 N639 1.384 . S
N638 C634 1.427 . S
N638 C635 1.384 . S
N639 C631 1.427 . S
N639 C637 1.384 . S
C215 N70 1.654 . S
C219 C98 1.670 . S
C237 C128 1.799 . S
C233 N81 1.769 . S
C255 N162 1.361 . S
C251 N48 1.370 . S
C273 N192 1.406 . S
C269 N59 1.407 . S
C291 C89 1.672 . S
C287 N26 1.655 1_546 S
C305 N37 1.773 . S
C309 C119 1.803 . S
C323 N4 1.382 . S
C327 N154 1.360 . S
C341 N15 1.410 . S
C345 N184 1.418 . S
C363 C104 0.446 . S
C359 C64 0.517 . S
C381 C134 0.762 . S
C377 C75 0.759 1_565 S
C399 C175 1.056 . S
C395 C86 1.042 . S
C413 C53 0.592 . S
C417 C205 0.595 . S
C431 C20 0.535 . S
C435 C115 0.447 . S
C453 C145 0.774 . S
C449 C31 0.779 1_556 S
C471 C164 1.053 . S
C467 C42 1.029 . S
C485 C9 0.597 . S
C489 C194 0.594 . S
C503 C61 1.468 . S
C507 N94 1.473 . S
C521 C72 1.429 . S
C525 N124 1.425 . S
C543 C149 1.656 . S
C539 C83 1.628 . S
C561 C179 1.591 . S
C557 C50 1.557 . S
C575 C17 1.464 . S
C579 N102 1.478 . S
C597 N132 1.421 . S
C593 C28 1.427 1_565 S
C615 C158 1.658 . S
C611 C39 1.627 . S
C629 C6 1.561 . S
C633 C188 1.591 . S
