# Generated by pormake.
# Topology zzz, (3,6)-cn, num edge types: 1
# Building blocks:
#     Node 0, Type 0, BuildingBlock: CUQRIR_clean_linker_1, # of connection points: 3
#     Node 1, Type 0, BuildingBlock: CUQRIR_clean_linker_1, # of connection points: 3
#     Node 2, Type 0, BuildingBlock: CUQRIR_clean_linker_1, # of connection points: 3
#     Node 3, Type 0, BuildingBlock: CUQRIR_clean_linker_1, # of connection points: 3
#     Node 4, Type 0, BuildingBlock: CUQRIR_clean_linker_1, # of connection points: 3
#     Node 5, Type 0, BuildingBlock: CUQRIR_clean_linker_1, # of connection points: 3
#     Node 6, Type 0, BuildingBlock: CUQRIR_clean_linker_1, # of connection points: 3
#     Node 7, Type 0, BuildingBlock: CUQRIR_clean_linker_1, # of connection points: 3
#     Node 8, Type 1, BuildingBlock: FUNLAD_clean_sbu_0, # of connection points: 6
#     Node 9, Type 1, BuildingBlock: FUNLAD_clean_sbu_0, # of connection points: 6
#     Node 10, Type 1, BuildingBlock: FUNLAD_clean_sbu_0, # of connection points: 6
#     Node 11, Type 1, BuildingBlock: FUNLAD_clean_sbu_0, # of connection points: 6
#     Edge 12, Type (0, 1), BuildingBlock: UVAHIK_clean_linker_0, # of connection points: 2
#     Edge 13, Type (0, 1), BuildingBlock: UVAHIK_clean_linker_0, # of connection points: 2
#     Edge 14, Type (0, 1), BuildingBlock: UVAHIK_clean_linker_0, # of connection points: 2
#     Edge 15, Type (0, 1), BuildingBlock: UVAHIK_clean_linker_0, # of connection points: 2
#     Edge 16, Type (0, 1), BuildingBlock: UVAHIK_clean_linker_0, # of connection points: 2
#     Edge 17, Type (0, 1), BuildingBlock: UVAHIK_clean_linker_0, # of connection points: 2
#     Edge 18, Type (0, 1), BuildingBlock: UVAHIK_clean_linker_0, # of connection points: 2
#     Edge 19, Type (0, 1), BuildingBlock: UVAHIK_clean_linker_0, # of connection points: 2
#     Edge 20, Type (0, 1), BuildingBlock: UVAHIK_clean_linker_0, # of connection points: 2
#     Edge 21, Type (0, 1), BuildingBlock: UVAHIK_clean_linker_0, # of connection points: 2
#     Edge 22, Type (0, 1), BuildingBlock: UVAHIK_clean_linker_0, # of connection points: 2
#     Edge 23, Type (0, 1), BuildingBlock: UVAHIK_clean_linker_0, # of connection points: 2
#     Edge 24, Type (0, 1), BuildingBlock: UVAHIK_clean_linker_0, # of connection points: 2
#     Edge 25, Type (0, 1), BuildingBlock: UVAHIK_clean_linker_0, # of connection points: 2
#     Edge 26, Type (0, 1), BuildingBlock: UVAHIK_clean_linker_0, # of connection points: 2
#     Edge 27, Type (0, 1), BuildingBlock: UVAHIK_clean_linker_0, # of connection points: 2
#     Edge 28, Type (0, 1), BuildingBlock: UVAHIK_clean_linker_0, # of connection points: 2
#     Edge 29, Type (0, 1), BuildingBlock: UVAHIK_clean_linker_0, # of connection points: 2
#     Edge 30, Type (0, 1), BuildingBlock: UVAHIK_clean_linker_0, # of connection points: 2
#     Edge 31, Type (0, 1), BuildingBlock: UVAHIK_clean_linker_0, # of connection points: 2
#     Edge 32, Type (0, 1), BuildingBlock: UVAHIK_clean_linker_0, # of connection points: 2
#     Edge 33, Type (0, 1), BuildingBlock: UVAHIK_clean_linker_0, # of connection points: 2
#     Edge 34, Type (0, 1), BuildingBlock: UVAHIK_clean_linker_0, # of connection points: 2
#     Edge 35, Type (0, 1), BuildingBlock: UVAHIK_clean_linker_0, # of connection points: 2
# Relax obj value: 0.138
# Max RMSD: 0.180
# Mean RMSD: 0.101
data_MOF--net-zzz--node1-FUNLAD_clean_sbu_0--node2-CUQRIR_clean_linker_1--edge1-UVAHIK_clean_linker_0
_symmetry_space_group_name_H-M    P1
_symmetry_Int_Tables_number       1
_symmetry_cell_setting            triclinic
loop_
_symmetry_equiv_pos_as_xyz
'x, y, z'
_cell_length_a     63.078754
_cell_length_b     68.615844
_cell_length_c     20.467476
_cell_angle_alpha  86.074312
_cell_angle_beta   85.742687
_cell_angle_gamma 89.848385
loop_
_atom_site_label
_atom_site_type_symbol
_atom_site_fract_x
_atom_site_fract_y
_atom_site_fract_z
_atom_type_partial_charge
C0 C 0.77617 0.46915 0.26802 0.0
N1 N 0.79725 0.46547 0.26863 0.0
N2 N 0.76841 0.4622 0.21426 0.0
C3 C 0.76331 0.48014 0.31797 0.0
C4 C 0.78555 0.45446 0.18185 0.0
N5 N 0.80306 0.45633 0.21502 0.0
C6 C 0.78578 0.44791 0.11315 0.0
H7 H 0.74644 0.47538 0.32135 0.0
H8 H 0.76394 0.49596 0.30244 0.0
H9 H 0.76981 0.47796 0.36684 0.0
H10 H 0.7864 0.46098 0.07797 0.0
H11 H 0.77106 0.43968 0.10665 0.0
H12 H 0.79981 0.43862 0.10171 0.0
C13 C 0.93431 0.76133 0.15411 0.0
N14 N 0.93963 0.78049 0.14697 0.0
N15 N 0.93793 0.75299 0.09623 0.0
C16 C 0.92529 0.75084 0.21674 0.0
C17 C 0.94595 0.76764 0.05404 0.0
N18 N 0.94691 0.78435 0.08487 0.0
C19 C 0.95446 0.76521 0.9844 0.0
H20 H 0.93859 0.74538 0.24546 0.0
H21 H 0.9155 0.73816 0.20631 0.0
H22 H 0.91555 0.76089 0.2468 0.0
H23 H 0.94136 0.76779 0.95154 0.0
H24 H 0.96057 0.7502 0.97868 0.0
H25 H 0.96736 0.77585 0.96875 0.0
C26 C 0.75656 0.99459 0.16688 0.0
N27 N 0.73512 0.99631 0.16865 0.0
N28 N 0.76511 0.9962 0.10387 0.0
C29 C 0.76896 0.99029 0.22599 0.0
C30 C 0.7481 -0.0009 0.06772 0.0
N31 N 0.72992 -0.00094 0.10701 0.0
C32 C 0.74941 0.00327 0.99436 0.0
H33 H 0.77407 0.00431 0.24387 0.0
H34 H 0.78336 0.98162 0.21321 0.0
H35 H 0.75903 0.98232 0.26617 0.0
H36 H 0.74837 0.9893 0.97052 0.0
H37 H 0.76472 0.01045 0.97674 0.0
H38 H 0.73611 0.01277 0.97937 0.0
C39 C 0.55203 0.71681 0.1565 0.0
N40 N 0.55197 0.69704 0.15826 0.0
N41 N 0.5495 0.72447 0.09476 0.0
C42 C 0.55288 0.72854 0.21563 0.0
C43 C 0.54798 0.70866 0.05918 0.0
N44 N 0.54949 0.69199 0.09778 0.0
C45 C 0.54327 0.70948 0.98796 0.0
H46 H 0.5364 0.73186 0.23436 0.0
H47 H 0.5613 0.74258 0.20271 0.0
H48 H 0.56091 0.72027 0.2552 0.0
H49 H 0.54612 0.72426 0.96352 0.0
H50 H 0.52641 0.70533 0.9846 0.0
H51 H 0.55333 0.69897 0.96105 0.0
C52 C 0.24573 0.52693 0.13678 0.0
N53 N 0.22478 0.53117 0.13687 0.0
N54 N 0.25426 0.53478 0.18772 0.0
C55 C 0.25757 0.51431 0.08941 0.0
C56 C 0.23769 0.54363 0.21923 0.0
N57 N 0.21971 0.54148 0.18836 0.0
C58 C 0.23864 0.55242 0.28431 0.0
H59 H 0.25518 0.49877 0.10711 0.0
H60 H 0.27485 0.51759 0.08606 0.0
H61 H 0.25137 0.51645 0.04008 0.0
H62 H 0.22478 0.56202 0.29456 0.0
H63 H 0.2535 0.56098 0.28507 0.0
H64 H 0.23874 0.54049 0.32373 0.0
C65 C 0.08063 0.2354 0.25 0.0
N66 N 0.07818 0.21577 0.25793 0.0
N67 N 0.08083 0.24311 0.30914 0.0
C68 C 0.07957 0.24728 0.18592 0.0
C69 C 0.07848 0.22745 0.35298 0.0
N70 N 0.07661 0.21084 0.32203 0.0
C71 C 0.07777 0.22853 0.42628 0.0
H72 H 0.0826 0.23819 0.14343 0.0
H73 H 0.09131 0.25937 0.18249 0.0
H74 H 0.06352 0.25385 0.184 0.0
H75 H 0.0612 0.23121 0.44563 0.0
H76 H 0.08779 0.2408 0.43892 0.0
H77 H 0.08331 0.21463 0.45024 0.0
C78 C 0.26854 0.99799 0.22698 0.0
N79 N 0.2898 0.99497 0.22502 0.0
N80 N 0.25983 0.99546 0.28967 0.0
C81 C 0.25657 0.00425 0.16839 0.0
C82 C 0.27654 0.99068 0.32544 0.0
N83 N 0.29471 0.99029 0.28611 0.0
C84 C 0.27524 0.98764 0.39917 0.0
H85 H 0.25799 0.02034 0.15919 0.0
H86 H 0.23947 0.00048 0.17664 0.0
H87 H 0.26351 0.99742 0.1241 0.0
H88 H 0.28744 0.97722 0.41605 0.0
H89 H 0.25931 0.98215 0.41845 0.0
H90 H 0.27804 0.00183 0.42003 0.0
C91 C 0.47553 0.2808 0.22665 0.0
N92 N 0.47761 0.30047 0.22342 0.0
N93 N 0.47752 0.27321 0.28877 0.0
C94 C 0.47095 0.26909 0.16992 0.0
C95 C 0.48112 0.28893 0.32293 0.0
N96 N 0.48109 0.3055 0.28322 0.0
C97 C 0.48661 0.2879 0.39343 0.0
H98 H 0.4614 0.27774 0.13494 0.0
H99 H 0.46239 0.25539 0.18734 0.0
H100 H 0.48622 0.26523 0.14354 0.0
H101 H 0.49419 0.27375 0.40722 0.0
H102 H 0.47179 0.28928 0.42551 0.0
H103 H 0.4975 0.29995 0.40231 0.0
C104 C 0.02185 0.96426 0.78232 0.0
N105 N 0.9976 0.9686 0.59789 0.0
C106 C 0.01064 0.95351 0.58224 0.0
C107 C 0.00395 0.93928 0.54282 0.0
C108 C 0.98352 0.9404 0.5201 0.0
C109 C 0.97045 0.95621 0.53622 0.0
C110 C 0.97791 0.97032 0.57505 0.0
Zn111 Zn 0.00746 0.98747 0.66255 0.0
C112 C 0.97251 0.99705 0.76195 0.0
N113 N 0.02844 0.02435 0.8045 0.0
C114 C 0.04731 0.02261 0.83256 0.0
C115 C 0.01511 0.03953 0.81637 0.0
C116 C 0.0205 0.05373 0.85758 0.0
C117 C 0.03989 0.05246 0.887 0.0
C118 C 0.05343 0.03665 0.87412 0.0
Zn119 Zn 0.0191 0.00531 0.73954 0.0
O120 O 0.01457 0.96338 0.7264 0.0
C121 C 0.05404 0.99575 0.64027 0.0
O122 O 0.02568 0.98078 0.8035 0.0
H123 H 0.00032 0.04085 0.79295 0.0
H124 H 0.02608 0.95219 0.60173 0.0
H125 H 0.05771 0.01047 0.82221 0.0
O126 O 0.0387 0.98709 0.61749 0.0
O127 O 0.05062 0.00471 0.6925 0.0
H128 H 0.9678 0.98243 0.58807 0.0
O129 O 0.01207 0.0294 0.67516 0.0
O130 O 0.001 0.01188 0.59836 0.0
O131 O 0.98783 0.00565 0.78486 0.0
O132 O 0.97598 0.98815 0.70971 0.0
C133 C 0.00495 0.02843 0.61908 0.0
H134 H 0.01439 0.92717 0.53205 0.0
H135 H 0.95462 0.95759 0.51918 0.0
H136 H 0.00978 0.06586 0.86505 0.0
H137 H 0.0685 0.03512 0.89608 0.0
C138 C 0.48746 0.99034 0.59979 0.0
N139 N 0.5102 0.04399 0.6503 0.0
C140 C 0.51335 0.04786 0.58422 0.0
C141 C 0.51123 0.06679 0.55645 0.0
C142 C 0.50587 0.08204 0.59691 0.0
C143 C 0.50294 0.07771 0.66515 0.0
C144 C 0.5052 0.05846 0.69097 0.0
Zn145 Zn 0.51205 0.01544 0.68501 0.0
C146 C 0.47604 0.00308 0.78009 0.0
N147 N 0.51496 0.95485 0.7456 0.0
C148 C 0.51782 0.94007 0.70478 0.0
C149 C 0.5135 0.95122 0.81195 0.0
C150 C 0.51538 0.93227 0.83977 0.0
C151 C 0.51838 0.91664 0.79918 0.0
C152 C 0.51946 0.92075 0.73065 0.0
Zn153 Zn 0.51322 0.98342 0.71075 0.0
O154 O 0.49315 0.00757 0.60967 0.0
C155 C 0.5493 0.99569 0.61603 0.0
O156 O 0.49373 0.97607 0.63628 0.0
H157 H 0.5111 0.96311 0.84371 0.0
H158 H 0.51716 0.03614 0.55264 0.0
H159 H 0.5189 0.94328 0.65215 0.0
O160 O 0.5403 0.01207 0.62352 0.0
O161 O 0.54113 0.98037 0.64624 0.0
H162 H 0.50275 0.05505 0.74336 0.0
O163 O 0.5325 0.99134 0.78517 0.0
O164 O 0.53105 0.02293 0.76039 0.0
O165 O 0.48548 0.98685 0.77394 0.0
O166 O 0.48371 0.01832 0.74799 0.0
C167 C 0.53763 0.00864 0.7961 0.0
H168 H 0.51327 0.06934 0.50355 0.0
H169 H 0.49897 0.08906 0.69822 0.0
H170 H 0.51488 0.93003 0.89272 0.0
H171 H 0.52145 0.9092 0.69725 0.0
C172 C 0.52365 0.47702 0.58571 0.0
N173 N 0.46805 0.50608 0.64407 0.0
C174 C 0.46864 0.51228 0.57936 0.0
C175 C 0.44994 0.51536 0.54835 0.0
C176 C 0.43032 0.5118 0.58378 0.0
C177 C 0.43 0.50525 0.6504 0.0
C178 C 0.44923 0.50259 0.67998 0.0
Zn179 Zn 0.49692 0.50131 0.68132 0.0
C180 C 0.49978 0.46489 0.76176 0.0
N181 N 0.55957 0.49154 0.73974 0.0
C182 C 0.57852 0.4953 0.70481 0.0
C183 C 0.55873 0.48515 0.80431 0.0
C184 C 0.57726 0.48208 0.83612 0.0
C185 C 0.59699 0.48595 0.80179 0.0
C186 C 0.5976 0.49274 0.73534 0.0
Zn187 Zn 0.53073 0.4963 0.70206 0.0
O188 O 0.50566 0.4846 0.60025 0.0
C189 C 0.52785 0.53268 0.6214 0.0
O190 O 0.53892 0.47944 0.62155 0.0
H191 H 0.54359 0.48274 0.83194 0.0
H192 H 0.48369 0.51457 0.55112 0.0
H193 H 0.57882 0.50053 0.65368 0.0
O194 O 0.50859 0.52713 0.62874 0.0
O195 O 0.54208 0.52213 0.64686 0.0
H196 H 0.44914 0.49756 0.73125 0.0
O197 O 0.52199 0.51327 0.7831 0.0
O198 O 0.48872 0.51804 0.76155 0.0
O199 O 0.51903 0.47047 0.75466 0.0
O200 O 0.48556 0.47544 0.73625 0.0
C201 C 0.50394 0.52082 0.79719 0.0
H202 H 0.45085 0.52005 0.49658 0.0
H203 H 0.4151 0.50234 0.67918 0.0
H204 H 0.57614 0.47723 0.88777 0.0
H205 H 0.61261 0.49595 0.70751 0.0
C206 C 0.03434 0.5188 0.59261 0.0
N207 N 0.02438 0.45921 0.64261 0.0
C208 C 0.02467 0.45867 0.57618 0.0
C209 C 0.03098 0.44181 0.54589 0.0
C210 C 0.03664 0.42522 0.58437 0.0
C211 C 0.03581 0.42594 0.65286 0.0
C212 C 0.02979 0.44328 0.68116 0.0
Zn213 Zn 0.0161 0.4849 0.68227 0.0
C214 C 0.04836 0.49882 0.76565 0.0
N215 N 0.9996 0.54008 0.75462 0.0
C216 C 0.99186 0.55525 0.71723 0.0
C217 C 0.00128 0.54123 0.82012 0.0
C218 C 0.99469 0.55795 0.85079 0.0
C219 C 0.98642 0.5738 0.81377 0.0
C220 C 0.9852 0.57235 0.74592 0.0
Zn221 Zn 0.00785 0.51439 0.715 0.0
O222 O 0.03355 0.50033 0.60262 0.0
C223 C 0.97571 0.50032 0.63099 0.0
O224 O 0.02442 0.5294 0.63317 0.0
H225 H 0.00742 0.529 0.84903 0.0
H226 H 0.02004 0.47137 0.5464 0.0
H227 H 0.99067 0.554 0.66524 0.0
O228 O 0.98871 0.48616 0.62975 0.0
O229 O 0.97947 0.51477 0.66416 0.0
H230 H 0.02951 0.44405 0.73382 0.0
O231 O 0.99161 0.49904 0.79703 0.0
O232 O 0.99829 0.46995 0.76195 0.0
O233 O 0.03619 0.51361 0.76407 0.0
O234 O 0.04363 0.48389 0.73613 0.0
C235 C 0.98972 0.4806 0.80484 0.0
H236 H 0.03115 0.44165 0.49295 0.0
H237 H 0.04009 0.41334 0.68394 0.0
H238 H 0.99565 0.55824 0.90332 0.0
H239 H 0.9792 0.5843 0.71526 0.0
C240 C 0.22229 0.98512 0.29905 0.0
C241 C 0.23812 0.99797 0.31448 0.0
C242 C 0.20184 0.98578 0.33045 0.0
C243 C 0.1658 0.01609 0.43533 0.0
H244 H 0.13887 0.96618 0.48823 0.0
C245 C 0.0917 0.00806 0.62117 0.0
C246 C 0.07538 0.99581 0.60454 0.0
C247 C 0.11145 0.00867 0.58489 0.0
C248 C 0.14609 0.98025 0.47335 0.0
H249 H 0.24516 0.02181 0.37301 0.0
H250 H 0.20961 0.02287 0.42906 0.0
H251 H 0.17293 0.96712 0.42376 0.0
H252 H 0.06718 0.97439 0.53724 0.0
H253 H 0.10155 0.97538 0.47457 0.0
H254 H 0.139 0.02913 0.48615 0.0
C255 C 0.21268 0.01249 0.39199 0.0
C256 C 0.16559 0.98081 0.43604 0.0
C257 C 0.23306 0.01187 0.36026 0.0
C258 C 0.07938 0.98399 0.5515 0.0
C259 C 0.09913 0.98448 0.51568 0.0
C260 C 0.14633 0.01551 0.47305 0.0
C261 C 0.19688 -0.0008 0.37842 0.0
C262 C 0.17573 -0.00126 0.41643 0.0
C263 C 0.11537 0.9969 0.53163 0.0
C264 C 0.13624 0.99758 0.49245 0.0
H265 H 0.22601 0.97415 0.26438 0.0
H266 H 0.19001 0.97554 0.31788 0.0
H267 H 0.17295 0.03018 0.42046 0.0
H268 H 0.08913 0.01738 0.66166 0.0
H269 H 0.12372 0.01825 0.59882 0.0
C270 C 0.49242 0.24007 0.28649 0.0
C271 C 0.47749 0.25307 0.31297 0.0
C272 C 0.49414 0.22113 0.31541 0.0
C273 C 0.48246 0.19303 0.47444 0.0
H274 H 0.49597 0.14841 0.37275 0.0
C275 C 0.48592 0.11382 0.59078 0.0
C276 C 0.50281 0.10215 0.56732 0.0
C277 C 0.48227 0.13223 0.55999 0.0
C278 C 0.49238 0.16078 0.4018 0.0
H279 H 0.45209 0.2566 0.38788 0.0
H280 H 0.45464 0.22333 0.43806 0.0
H281 H 0.48965 0.18013 0.3163 0.0
H282 H 0.5296 0.10106 0.49476 0.0
H283 H 0.52312 0.13307 0.44094 0.0
H284 H 0.48518 0.17364 0.55991 0.0
C285 C 0.46537 0.22777 0.39594 0.0
C286 C 0.48875 0.17895 0.36947 0.0
C287 C 0.46375 0.24671 0.36713 0.0
C288 C 0.51621 0.1095 0.5133 0.0
C289 C 0.5125 0.12784 0.48241 0.0
C290 C 0.486 0.17485 0.50674 0.0
C291 C 0.48088 0.21487 0.37126 0.0
C292 C 0.48387 0.19533 0.40539 0.0
C293 C 0.49537 0.13932 0.50498 0.0
C294 C 0.49114 0.15855 0.47078 0.0
H295 H 0.50332 0.24487 0.24518 0.0
H296 H 0.50642 0.21167 0.29557 0.0
H297 H 0.47913 0.2054 0.50368 0.0
H298 H 0.47514 0.10851 0.63171 0.0
H299 H 0.46884 0.14068 0.57818 0.0
C300 C 0.28939 0.54539 0.21464 0.0
C301 C 0.27431 0.53052 0.21382 0.0
C302 C 0.30697 0.54258 0.25177 0.0
C303 C 0.3377 0.50529 0.34521 0.0
H304 H 0.35007 0.54922 0.44599 0.0
C305 C 0.39525 0.49956 0.55315 0.0
C306 C 0.41055 0.51449 0.54969 0.0
C307 C 0.37797 0.50121 0.514 0.0
C308 C 0.34688 0.53686 0.41792 0.0
H309 H 0.26569 0.50097 0.24821 0.0
H310 H 0.2964 0.49588 0.31397 0.0
H311 H 0.32254 0.55223 0.36869 0.0
H312 H 0.41936 0.54319 0.50537 0.0
H313 H 0.38922 0.54614 0.43747 0.0
H314 H 0.36202 0.48992 0.39527 0.0
C315 C 0.29498 0.50962 0.28531 0.0
C316 C 0.33121 0.53861 0.37328 0.0
C317 C 0.27747 0.51245 0.24777 0.0
C318 C 0.40782 0.53143 0.50865 0.0
C319 C 0.39052 0.53315 0.47009 0.0
C320 C 0.35335 0.50352 0.39019 0.0
C321 C 0.30958 0.52489 0.28932 0.0
C322 C 0.32653 0.52291 0.33597 0.0
C323 C 0.37562 0.51793 0.47143 0.0
C324 C 0.35818 0.51934 0.42665 0.0
H325 H 0.28698 0.55945 0.1889 0.0
H326 H 0.31815 0.55449 0.25271 0.0
H327 H 0.33458 0.49297 0.31694 0.0
H328 H 0.39709 0.4863 0.58409 0.0
H329 H 0.36659 0.48934 0.51647 0.0
C330 C 0.09205 0.27759 0.30745 0.0
C331 C 0.07669 0.26301 0.32343 0.0
C332 C 0.08836 0.29658 0.32677 0.0
C333 C 0.0451 0.32884 0.39276 0.0
H334 H 0.09143 0.35574 0.46312 0.0
C335 C 0.0324 0.38952 0.57202 0.0
C336 C 0.04295 0.40718 0.55269 0.0
C337 C 0.03729 0.37279 0.53878 0.0
C338 C 0.07843 0.34841 0.44311 0.0
H339 H 0.04529 0.2566 0.3691 0.0
H340 H 0.03902 0.28926 0.40522 0.0
H341 H 0.09835 0.32513 0.41093 0.0
H342 H 0.06728 0.42123 0.48534 0.0
H343 H 0.07631 0.39166 0.42827 0.0
H344 H 0.02506 0.35169 0.42809 0.0
C345 C 0.05375 0.28648 0.37681 0.0
C346 C 0.08237 0.33098 0.41278 0.0
C347 C 0.05739 0.2677 0.35696 0.0
C348 C 0.0589 0.40774 0.50087 0.0
C349 C 0.0641 0.3909 0.46849 0.0
C350 C 0.04113 0.34604 0.42408 0.0
C351 C 0.06925 0.30117 0.3626 0.0
C352 C 0.06566 0.32078 0.38823 0.0
C353 C 0.05309 0.37339 0.48657 0.0
C354 C 0.05769 0.3558 0.45031 0.0
H355 H 0.10704 0.27414 0.28153 0.0
H356 H 0.10053 0.30759 0.3142 0.0
H357 H 0.03194 0.32171 0.37293 0.0
H358 H 0.01997 0.38881 0.61159 0.0
H359 H 0.02872 0.35937 0.55377 0.0
C360 C 0.79215 0.9807 0.03178 0.0
C361 C 0.78692 0.99411 0.07916 0.0
C362 C 0.8126 0.98029 0.0008 0.0
C363 C 0.86833 0.99537 0.01161 0.0
H364 H 0.87135 0.99347 0.82216 0.0
C365 C 0.94707 0.00839 0.85139 0.0
C366 C 0.9511 0.99697 0.79734 0.0
C367 C 0.9272 0.00787 0.8866 0.0
C368 C 0.87087 0.99373 0.87508 0.0
H369 H 0.799 0.01701 0.13363 0.0
H370 H 0.83513 0.01624 0.07987 0.0
H371 H 0.83689 0.99226 0.88426 0.0
H372 H 0.93732 0.97605 0.73789 0.0
H373 H 0.90274 0.97487 0.79994 0.0
H374 H 0.90233 0.99669 0.00252 0.0
C375 C 0.82338 0.00603 0.06663 0.0
C376 C 0.85107 0.99307 0.91074 0.0
C377 C 0.80279 0.00648 0.09749 0.0
C378 C 0.93471 0.98511 0.77903 0.0
C379 C 0.91484 0.98451 0.81452 0.0
C380 C 0.88817 0.99592 0.97595 0.0
C381 C 0.82836 0.99323 0.01677 0.0
C382 C 0.84955 0.99386 0.97942 0.0
C383 C 0.91083 0.99583 0.86896 0.0
C384 C 0.88971 0.99512 0.90715 0.0
H385 H 0.78017 0.97086 0.01766 0.0
H386 H 0.81602 0.96998 0.96366 0.0
H387 H 0.86771 0.99582 0.06451 0.0
H388 H 0.9593 0.01777 0.86668 0.0
H389 H 0.92462 0.01707 0.92737 0.0
C390 C 0.52625 0.74964 0.04756 0.0
C391 C 0.54561 0.74447 0.07353 0.0
C392 C 0.52323 0.76848 0.01963 0.0
C393 C 0.53954 0.81903 0.01823 0.0
H394 H 0.52341 0.82332 0.83837 0.0
C395 C 0.50967 0.89036 0.88907 0.0
C396 C 0.52073 0.89634 0.82872 0.0
C397 C 0.51292 0.87184 0.91925 0.0
C398 C 0.52795 0.82229 0.88851 0.0
H399 H 0.57672 0.75476 0.09288 0.0
H400 H 0.57114 0.78823 0.04624 0.0
H401 H 0.52849 0.79099 0.89363 0.0
H402 H 0.54363 0.88709 0.75246 0.0
H403 H 0.54848 0.85439 0.8041 0.0
H404 H 0.53851 0.85035 0.01356 0.0
C405 C 0.55843 0.77761 0.04694 0.0
C406 C 0.53073 0.80387 0.92015 0.0
C407 C 0.5616 0.75861 0.07378 0.0
C408 C 0.53459 0.88299 0.79835 0.0
C409 C 0.53752 0.8643 0.82806 0.0
C410 C 0.53633 0.83746 0.98702 0.0
C411 C 0.53938 0.78255 0.01841 0.0
C412 C 0.53656 0.8021 0.98522 0.0
C413 C 0.52694 0.8587 0.88918 0.0
C414 C 0.53054 0.83922 0.92189 0.0
H415 H 0.51373 0.73889 0.04733 0.0
H416 H 0.50833 0.77202 0.9985 0.0
H417 H 0.54399 0.81799 0.06846 0.0
H418 H 0.49843 0.89997 0.91326 0.0
H419 H 0.50432 0.86771 0.96593 0.0
C420 C 0.74521 0.48552 0.15825 0.0
C421 C 0.74859 0.46677 0.18709 0.0
C422 C 0.72795 0.48909 0.12019 0.0
C423 C 0.67645 0.46939 0.08045 0.0
H424 H 0.69072 0.49465 0.90736 0.0
C425 C 0.61945 0.46631 0.87675 0.0
C426 C 0.61649 0.4835 0.83727 0.0
C427 C 0.63595 0.46495 0.91851 0.0
C428 C 0.68639 0.48781 0.95575 0.0
H429 H 0.73668 0.43724 0.20167 0.0
H430 H 0.70609 0.44338 0.13594 0.0
H431 H 0.71752 0.49206 0.98761 0.0
H432 H 0.62881 0.51248 0.80839 0.0
H433 H 0.65767 0.51024 0.88216 0.0
H434 H 0.64536 0.46514 0.04899 0.0
C435 C 0.71663 0.45539 0.14278 0.0
C436 C 0.70172 0.48636 0.00175 0.0
C437 C 0.73401 0.45184 0.18034 0.0
C438 C 0.63092 0.49901 0.83798 0.0
C439 C 0.64738 0.49771 0.88031 0.0
C440 C 0.66109 0.47095 0.03468 0.0
C441 C 0.71377 0.47392 0.11083 0.0
C442 C 0.69697 0.47692 0.06426 0.0
C443 C 0.64974 0.48083 0.92225 0.0
C444 C 0.66596 0.47991 0.97143 0.0
H445 H 0.75658 0.49709 0.16253 0.0
H446 H 0.726 0.50354 0.09663 0.0
H447 H 0.67228 0.46226 0.12853 0.0
H448 H 0.60863 0.45408 0.8765 0.0
H449 H 0.63766 0.45154 0.94873 0.0
C450 C 0.92363 0.7273 0.03439 0.0
C451 C 0.93646 0.73282 0.083 0.0
C452 C 0.92525 0.70858 0.01181 0.0
C453 C 0.94944 0.6594 0.04292 0.0
H454 H 0.95126 0.65923 0.85307 0.0
C455 C 0.98963 0.59851 0.89764 0.0
C456 C 0.9788 0.59152 0.84626 0.0
C457 C 0.98214 0.61477 0.92963 0.0
C458 C 0.95052 0.65897 0.90618 0.0
H459 H 0.96033 0.72332 0.14833 0.0
H460 H 0.96365 0.69058 0.10838 0.0
H461 H 0.94137 0.68893 0.90601 0.0
H462 H 0.95146 0.59618 0.78869 0.0
H463 H 0.9387 0.62489 0.84366 0.0
H464 H 0.95945 0.62953 0.04234 0.0
C465 C 0.95196 0.70043 0.08838 0.0
C466 C 0.94475 0.67597 0.93668 0.0
C467 C 0.95013 0.71912 0.11138 0.0
C468 C 0.9604 0.60134 0.82727 0.0
C469 C 0.95301 0.61772 0.85896 0.0
C470 C 0.95541 0.64242 0.01228 0.0
C471 C 0.94001 0.69514 0.03684 0.0
C472 C 0.94434 0.67648 0.00541 0.0
C473 C 0.96376 0.62454 0.91063 0.0
C474 C 0.95622 0.64212 0.94356 0.0
H475 H 0.91305 0.73782 0.01206 0.0
H476 H 0.91547 0.70488 0.97314 0.0
H477 H 0.949 0.65917 0.09596 0.0
H478 H 0.00407 0.59155 0.91277 0.0
H479 H 0.99096 0.61993 0.9685 0.0
C480 C 0.07877 0.17482 0.33435 0.0
C481 C 0.06887 0.1923 0.35144 0.0
C482 C 0.06985 0.15681 0.35783 0.0
C483 C 0.03804 0.13366 0.49443 0.0
H484 H 0.02239 0.09494 0.37705 0.0
C485 C 0.99739 0.06377 0.60255 0.0
C486 C 0.00443 0.04639 0.57611 0.0
C487 C 0.00192 0.08172 0.56831 0.0
C488 C 0.02685 0.10549 0.41058 0.0
H489 H 0.04177 0.20475 0.40467 0.0
H490 H 0.02693 0.17334 0.44919 0.0
H491 H 0.03898 0.12566 0.33178 0.0
H492 H 0.02066 0.03382 0.49221 0.0
H493 H 0.02954 0.06517 0.43338 0.0
H494 H 0.02709 0.11356 0.57337 0.0
C495 C 0.04147 0.17358 0.41745 0.0
C496 C 0.03632 0.12304 0.38456 0.0
C497 C 0.0501 0.1915 0.39283 0.0
C498 C 0.01483 0.04709 0.51304 0.0
C499 C 0.01992 0.0651 0.47945 0.0
C500 C 0.029 0.11605 0.52047 0.0
C501 C 0.05118 0.1561 0.39978 0.0
C502 C 0.04186 0.13726 0.42642 0.0
C503 C 0.0143 0.08268 0.50801 0.0
C504 C 0.02311 0.10174 0.47901 0.0
H505 H 0.09319 0.17517 0.30214 0.0
H506 H 0.07763 0.14346 0.34389 0.0
H507 H 0.04239 0.14438 0.52759 0.0
H508 H 0.98928 0.06351 0.65119 0.0
H509 H 0.9966 0.09488 0.5908 0.0
C510 C 0.3297 0.00486 0.29603 0.0
C511 C 0.31596 0.98879 0.30678 0.0
C512 C 0.35014 0.00379 0.3177 0.0
C513 C 0.39114 0.96949 0.37833 0.0
H514 H 0.40899 0.01489 0.46311 0.0
C515 C 0.45994 0.97027 0.55238 0.0
C516 C 0.47201 0.98752 0.55043 0.0
C517 C 0.44279 0.96916 0.51311 0.0
C518 C 0.40444 0.0022 0.43865 0.0
H519 H 0.31273 0.95875 0.34502 0.0
H520 H 0.34839 0.95691 0.3855 0.0
H521 H 0.37528 0.01546 0.41327 0.0
H522 H 0.47678 0.01646 0.50185 0.0
H523 H 0.44719 0.01438 0.43295 0.0
H524 H 0.42028 0.95612 0.40571 0.0
C525 C 0.34353 0.97031 0.35977 0.0
C526 C 0.38508 0.00253 0.41 0.0
C527 C 0.3231 0.97138 0.33752 0.0
C528 C 0.46758 0.00306 0.5052 0.0
C529 C 0.45057 0.00192 0.46591 0.0
C530 C 0.41057 0.96914 0.40736 0.0
C531 C 0.35717 0.98663 0.35101 0.0
C532 C 0.37816 0.9862 0.3795 0.0
C533 C 0.4375 0.98525 0.47118 0.0
C534 C 0.41741 0.98552 0.43779 0.0
H535 H 0.32442 0.01833 0.27174 0.0
H536 H 0.36037 0.0165 0.30892 0.0
H537 H 0.38635 0.95674 0.35471 0.0
H538 H 0.46299 0.95805 0.58675 0.0
H539 H 0.43297 0.95614 0.51833 0.0
C540 C 0.47459 0.33331 0.35158 0.0
C541 C 0.4863 0.32481 0.30017 0.0
C542 C 0.48021 0.35169 0.37013 0.0
C543 C 0.52555 0.38559 0.36454 0.0
H544 H 0.48164 0.42163 0.42126 0.0
C545 C 0.53864 0.44719 0.53611 0.0
C546 C 0.52549 0.46369 0.53213 0.0
C547 C 0.53643 0.43217 0.49416 0.0
C548 C 0.49419 0.41196 0.40449 0.0
H549 H 0.51286 0.32853 0.22739 0.0
H550 H 0.52257 0.361 0.2587 0.0
H551 H 0.47177 0.39182 0.37385 0.0
H552 H 0.50139 0.47849 0.47717 0.0
H553 H 0.49814 0.45273 0.40239 0.0
H554 H 0.54798 0.40584 0.39536 0.0
C555 C 0.50919 0.35343 0.28523 0.0
C556 C 0.48847 0.39469 0.3782 0.0
C557 C 0.50355 0.33501 0.26683 0.0
C558 C 0.51154 0.46577 0.48177 0.0
C559 C 0.50956 0.45095 0.43931 0.0
C560 C 0.5313 0.40295 0.39074 0.0
C561 C 0.49765 0.36192 0.3374 0.0
C562 C 0.50402 0.38111 0.35922 0.0
C563 C 0.52121 0.43355 0.44709 0.0
C564 C 0.51565 0.41619 0.41209 0.0
H565 H 0.46123 0.3256 0.37767 0.0
H566 H 0.47118 0.35767 0.41115 0.0
H567 H 0.53791 0.37536 0.35068 0.0
H568 H 0.54945 0.4452 0.57475 0.0
H569 H 0.54561 0.41896 0.50175 0.0
C570 C 0.19239 0.53137 0.2751 0.0
C571 C 0.19854 0.54321 0.21842 0.0
C572 C 0.17243 0.53355 0.30747 0.0
C573 C 0.11844 0.54555 0.28974 0.0
H574 H 0.11674 0.55435 0.47538 0.0
C575 C 0.0542 0.51626 0.48372 0.0
C576 C 0.04793 0.52755 0.53651 0.0
C577 C 0.06949 0.52324 0.43513 0.0
C578 C 0.11685 0.55231 0.42333 0.0
H579 H 0.18889 0.56644 0.15028 0.0
H580 H 0.15309 0.56969 0.20563 0.0
H581 H 0.15053 0.55664 0.40898 0.0
H582 H 0.05177 0.55546 0.5779 0.0
H583 H 0.079 0.56754 0.49334 0.0
H584 H 0.08494 0.5399 0.30519 0.0
C585 C 0.16396 0.55892 0.22514 0.0
C586 C 0.13619 0.55349 0.38557 0.0
C587 C 0.18424 0.55698 0.19338 0.0
C588 C 0.05634 0.54644 0.53779 0.0
C589 C 0.07192 0.55333 0.48958 0.0
C590 C 0.09908 0.54406 0.32784 0.0
C591 C 0.1581 0.5474 0.28302 0.0
C592 C 0.13721 0.54959 0.31903 0.0
C593 C 0.07903 0.54156 0.43881 0.0
C594 C 0.09824 0.5469 0.3954 0.0
H595 H 0.20326 0.52061 0.29465 0.0
H596 H 0.16811 0.52437 0.35163 0.0
H597 H 0.11896 0.5424 0.23849 0.0
H598 H 0.04785 0.50168 0.48122 0.0
H599 H 0.07481 0.51377 0.39698 0.0
C600 C 0.94884 0.81296 0.00559 0.0
C601 C 0.95692 0.80228 0.05884 0.0
C602 C 0.95864 0.83035 0.98016 0.0
C603 C 0.99635 0.86873 0.01844 0.0
H604 H 0.99872 0.87983 0.82989 0.0
C605 C 0.02933 0.92882 0.79479 0.0
C606 C 0.02328 0.94607 0.82392 0.0
C607 C 0.02571 0.91073 0.82905 0.0
C608 C 0.99864 0.87687 0.88255 0.0
H609 H 0.98129 0.80096 0.12775 0.0
H610 H 0.99892 0.83122 0.08262 0.0
H611 H 0.9832 0.84946 0.87754 0.0
H612 H 0.01 0.95826 0.9127 0.0
H613 H 0.00279 0.92662 0.9721 0.0
H614 H 0.01232 0.89606 0.02298 0.0
C615 C 0.98479 0.82649 0.06109 0.0
C616 C 0.9893 0.85955 0.91005 0.0
C617 C 0.97485 0.80917 0.08673 0.0
C618 C 0.01498 0.9451 0.88955 0.0
C619 C 0.01086 0.92694 0.92347 0.0
C620 C 0.00593 0.88605 0.99077 0.0
C621 C 0.97688 0.83724 0.00719 0.0
C622 C 0.98772 0.85537 0.97835 0.0
C623 C 0.01533 0.90952 0.89247 0.0
C624 C 0.007 0.89043 0.92245 0.0
H625 H 0.93486 0.80785 0.98415 0.0
H626 H 0.95183 0.83845 0.93957 0.0
H627 H 0.99528 0.86604 0.07134 0.0
H628 H 0.03591 0.92927 0.74425 0.0
H629 H 0.03004 0.89767 0.80443 0.0
C630 C 0.70147 0.98853 0.04146 0.0
C631 C 0.70864 0.00099 0.08658 0.0
C632 C 0.68097 0.99047 0.0207 0.0
C633 C 0.63663 0.02548 0.00828 0.0
H634 H 0.60644 0.97896 0.97019 0.0
C635 C 0.56763 0.02671 0.83777 0.0
C636 C 0.5526 0.01155 0.84646 0.0
C637 C 0.5844 0.02707 0.87875 0.0
C638 C 0.61435 0.99215 0.98169 0.0
H639 H 0.7003 0.02511 0.14598 0.0
H640 H 0.66399 0.0282 0.11146 0.0
H641 H 0.63988 0.97575 0.02067 0.0
H642 H 0.54198 0.98599 0.90807 0.0
H643 H 0.5705 0.98713 0.98152 0.0
H644 H 0.6108 0.04186 0.97012 0.0
C645 C 0.6743 0.01715 0.0911 0.0
C646 C 0.63378 0.99029 0.00968 0.0
C647 C 0.69494 0.01528 0.11142 0.0
C648 C 0.55357 0.99769 0.89983 0.0
C649 C 0.57003 0.99827 0.94153 0.0
C650 C 0.617 0.02735 0.98077 0.0
C651 C 0.6671 0.00478 0.04529 0.0
C652 C 0.64542 0.00691 0.02185 0.0
C653 C 0.58619 0.01244 0.92979 0.0
C654 C 0.60581 0.0107 0.96592 0.0
H655 H 0.7118 0.97731 0.02229 0.0
H656 H 0.67613 0.9809 0.98454 0.0
H657 H 0.64521 0.0386 0.01676 0.0
H658 H 0.56726 0.03752 0.79672 0.0
H659 H 0.59659 0.03813 0.8678 0.0
C660 C 0.55628 0.6638 0.03104 0.0
C661 C 0.54414 0.67273 0.08066 0.0
C662 C 0.54974 0.64604 0.00961 0.0
C663 C 0.51925 0.60183 0.05243 0.0
H664 H 0.51123 0.60251 0.86612 0.0
C665 C 0.51682 0.53462 0.89664 0.0
C666 C 0.50197 0.53487 0.84866 0.0
C667 C 0.51819 0.5503 0.93618 0.0
C668 C 0.51315 0.60218 0.91836 0.0
H669 H 0.51634 0.66999 0.14915 0.0
H670 H 0.50525 0.63837 0.11345 0.0
H671 H 0.52294 0.63213 0.91278 0.0
H672 H 0.47593 0.55101 0.80751 0.0
H673 H 0.47865 0.57864 0.87592 0.0
H674 H 0.51024 0.57156 0.05725 0.0
C675 C 0.51964 0.64524 0.09061 0.0
C676 C 0.52005 0.61903 0.94481 0.0
C677 C 0.52597 0.6632 0.11107 0.0
C678 C 0.48749 0.5504 0.8442 0.0
C679 C 0.48911 0.56624 0.88301 0.0
C680 C 0.51272 0.58479 0.02564 0.0
C681 C 0.5312 0.63678 0.03861 0.0
C682 C 0.52333 0.61895 0.01186 0.0
C683 C 0.50495 0.5666 0.92767 0.0
C684 C 0.5097 0.58484 0.95828 0.0
H685 H 0.57056 0.6708 0.00802 0.0
H686 H 0.55902 0.63964 0.96988 0.0
H687 H 0.52167 0.6015 0.10434 0.0
H688 H 0.52813 0.52279 0.90124 0.0
H689 H 0.5306 0.55027 0.97006 0.0
C690 C 0.83291 0.47308 0.15247 0.0
C691 C 0.82443 0.4561 0.18589 0.0
C692 C 0.85344 0.47311 0.12237 0.0
C693 C 0.8954 0.44017 0.05843 0.0
H694 H 0.9276 0.48846 0.04413 0.0
C695 C 0.96121 0.45774 0.85287 0.0
C696 C 0.97634 0.47209 0.86134 0.0
C697 C 0.94561 0.45262 0.90323 0.0
C698 C 0.91924 0.47463 0.04856 0.0
H699 H 0.83021 0.4259 0.21558 0.0
H700 H 0.86676 0.42588 0.16447 0.0
H701 H 0.89519 0.48585 0.11446 0.0
H702 H 0.98853 0.49102 0.93014 0.0
H703 H 0.96241 0.48113 0.01974 0.0
H704 H 0.91989 0.42877 0.99391 0.0
C705 C 0.85746 0.43913 0.16022 0.0
C706 C 0.90029 0.47328 0.08816 0.0
C707 C 0.83671 0.43909 0.18972 0.0
C708 C 0.9768 0.48006 0.92244 0.0
C709 C 0.96166 0.47452 0.97343 0.0
C710 C 0.91465 0.44138 0.01965 0.0
C711 C 0.86606 0.45615 0.12593 0.0
C712 C 0.88772 0.45632 0.09173 0.0
C713 C 0.94519 0.46146 0.96354 0.0
C714 C 0.9265 0.45886 0.0125 0.0
H715 H 0.82342 0.48624 0.149 0.0
H716 H 0.85921 0.48635 0.09509 0.0
H717 H 0.88616 0.42686 0.05994 0.0
H718 H 0.96051 0.45152 0.80582 0.0
H719 H 0.93317 0.44267 0.89311 0.0
C720 C 0.05407 0.1943 0.2073 0.0
C721 C 0.07425 0.20268 0.20839 0.0
C722 C 0.05118 0.17848 0.16959 0.0
C723 C 0.07456 0.15079 0.03414 0.0
H724 H 0.04329 0.10756 0.1277 0.0
C725 C 0.06638 0.07614 0.92257 0.0
C726 C 0.04587 0.06797 0.92934 0.0
C727 C 0.0712 0.09211 0.95791 0.0
C728 C 0.05191 0.11954 0.10066 0.0
H729 H 0.10695 0.20216 0.16931 0.0
H730 H 0.10195 0.17452 0.10168 0.0
H731 H 0.04829 0.1375 0.18211 0.0
H732 H 0.01465 0.06949 0.98075 0.0
H733 H 0.02289 0.09742 0.04133 0.0
H734 H 0.07794 0.13288 0.95234 0.0
C735 C 0.08836 0.18012 0.12996 0.0
C736 C 0.05473 0.13671 0.13178 0.0
C737 C 0.09124 0.19592 0.16815 0.0
C738 C 0.03053 0.07561 0.97389 0.0
C739 C 0.03533 0.09151 0.00913 0.0
C740 C 0.07165 0.13361 0.00281 0.0
C741 C 0.06843 0.17086 0.13202 0.0
C742 C 0.06586 0.1526 0.09863 0.0
C743 C 0.05562 0.10014 0.00092 0.0
C744 C 0.06008 0.11786 0.03551 0.0
H745 H 0.04086 0.1994 0.23843 0.0
H746 H 0.03557 0.17184 0.17127 0.0
H747 H 0.08317 0.16283 0.0074 0.0
H748 H 0.07849 0.07063 0.88832 0.0
H749 H 0.08706 0.09828 0.95111 0.0
C750 C 0.31799 0.98023 0.15537 0.0
C751 C 0.30498 0.99627 0.1687 0.0
C752 C 0.33472 0.98197 0.10669 0.0
C753 C 0.37124 0.01835 0.01996 0.0
H754 H 0.38577 0.97597 0.90905 0.0
C755 C 0.44411 0.02113 0.8267 0.0
C756 C 0.45596 0.0038 0.82258 0.0
C757 C 0.4247 0.0213 0.86485 0.0
C758 C 0.38205 0.98789 0.94001 0.0
H759 H 0.29895 0.02668 0.14197 0.0
H760 H 0.32822 0.02984 0.0556 0.0
H761 H 0.35311 0.97421 0.9806 0.0
H762 H 0.45682 0.97316 0.85659 0.0
H763 H 0.42336 0.97353 0.92325 0.0
H764 H 0.40045 0.03185 0.98016 0.0
C765 C 0.3255 0.01588 0.08288 0.0
C766 C 0.36328 0.98689 0.98093 0.0
C767 C 0.30862 0.01405 0.13151 0.0
C768 C 0.4481 0.98676 0.85819 0.0
C769 C 0.42877 0.98693 0.89613 0.0
C770 C 0.39008 0.01934 0.979 0.0
C771 C 0.33891 -0.0001 0.07045 0.0
C772 C 0.35781 0.00194 0.02227 0.0
C773 C 0.4167 0.00413 0.89954 0.0
C774 C 0.39591 0.00394 0.93941 0.0
H775 H 0.31551 0.96648 0.18415 0.0
H776 H 0.34488 0.96945 0.09919 0.0
H777 H 0.36762 0.03011 0.05168 0.0
H778 H 0.44969 0.03451 0.7998 0.0
H779 H 0.41576 0.03478 0.86613 0.0
C780 C 0.49105 0.31309 0.11271 0.0
C781 C 0.47625 0.31393 0.16695 0.0
C782 C 0.49167 0.32786 0.06206 0.0
C783 C 0.46198 0.36825 0.98477 0.0
H784 H 0.51743 0.39246 0.94894 0.0
C785 C 0.475 0.44304 0.83544 0.0
C786 C 0.49457 0.44612 0.79893 0.0
C787 C 0.47139 0.42581 0.87563 0.0
C788 C 0.50188 0.3857 0.95701 0.0
H789 H 0.44999 0.33003 0.21046 0.0
H790 H 0.45072 0.35584 0.12108 0.0
H791 H 0.51334 0.36373 0.02478 0.0
H792 H 0.52508 0.4332 0.77192 0.0
H793 H 0.51847 0.40296 0.83874 0.0
H794 H 0.45053 0.39009 0.91628 0.0
C795 C 0.46184 0.34383 0.1176 0.0
C796 C 0.49957 0.36924 0.00081 0.0
C797 C 0.46144 0.32919 0.16861 0.0
C798 C 0.50998 0.43134 0.80052 0.0
C799 C 0.50622 0.41404 0.83934 0.0
C800 C 0.46434 0.3846 0.93995 0.0
C801 C 0.4773 0.34355 0.06465 0.0
C802 C 0.47961 0.36038 0.01532 0.0
C803 C 0.48715 0.41123 0.87899 0.0
C804 C 0.48435 0.39358 0.92558 0.0
H805 H 0.50272 0.3015 0.11119 0.0
H806 H 0.5037 0.32729 0.02162 0.0
H807 H 0.44641 0.36164 0.99518 0.0
H808 H 0.46289 0.45426 0.83507 0.0
H809 H 0.45656 0.42426 0.90573 0.0
C810 C 0.20427 0.50544 0.09119 0.0
C811 C 0.21005 0.52511 0.09207 0.0
C812 C 0.18888 0.49994 0.05003 0.0
C813 C 0.15992 0.51846 0.90603 0.0
H814 H 0.11618 0.48175 0.97784 0.0
C815 C 0.07641 0.51745 0.81448 0.0
C816 C 0.06815 0.4994 0.79982 0.0
C817 C 0.09532 0.51832 0.84536 0.0
C818 C 0.12846 0.49181 0.95688 0.0
H819 H 0.20532 0.55435 0.05033 0.0
H820 H 0.17798 0.54512 0.97995 0.0
H821 H 0.1469 0.4874 0.04032 0.0
H822 H 0.07305 0.46805 0.80688 0.0
H823 H 0.10604 0.46959 0.86292 0.0
H824 H 0.14088 0.52357 0.82421 0.0
C825 C 0.18536 0.53375 0.00974 0.0
C826 C 0.14609 0.49502 0.99246 0.0
C827 C 0.20077 0.53914 0.0505 0.0
C828 C 0.07909 0.48217 0.81745 0.0
C829 C 0.09788 0.48303 0.84956 0.0
C830 C 0.14221 0.51544 0.87101 0.0
C831 C 0.17909 0.51409 0.0092 0.0
C832 C 0.16177 0.50876 0.96815 0.0
C833 C 0.10623 0.50114 0.86321 0.0
C834 C 0.1261 0.50242 0.89676 0.0
H835 H 0.21139 0.49446 0.12321 0.0
H836 H 0.18461 0.48465 0.05036 0.0
H837 H 0.17194 0.52876 0.88499 0.0
H838 H 0.0684 0.53099 0.80139 0.0
H839 H 0.10131 0.53245 0.85604 0.0
C840 C 0.92725 0.81242 0.18074 0.0
C841 C 0.93769 0.79477 0.19528 0.0
C842 C 0.92883 0.82799 0.22041 0.0
C843 C 0.9433 0.84265 0.38069 0.0
H844 H 0.96268 0.89035 0.28153 0.0
C845 C 0.95599 0.91576 0.49949 0.0
C846 C 0.97578 0.92471 0.48172 0.0
C847 C 0.94936 0.90003 0.466 0.0
C848 C 0.95723 0.87715 0.30981 0.0
H849 H 0.95696 0.77896 0.26396 0.0
H850 H 0.95943 0.80619 0.33499 0.0
H851 H 0.9537 0.86194 0.22348 0.0
H852 H 0.00391 0.92465 0.41423 0.0
H853 H 0.99219 0.89736 0.35499 0.0
H854 H 0.94714 0.85791 0.46711 0.0
C855 C 0.95002 0.80798 0.29281 0.0
C856 C 0.95192 0.86096 0.27667 0.0
C857 C 0.94857 0.79241 0.25258 0.0
C858 C 0.98861 0.91796 0.429 0.0
C859 C 0.98187 0.90244 0.39497 0.0
C860 C 0.94836 0.85898 0.41391 0.0
C861 C 0.94075 0.82611 0.27576 0.0
C862 C 0.94509 0.8435 0.31174 0.0
C863 C 0.96228 0.8932 0.41356 0.0
C864 C 0.95562 0.87629 0.37871 0.0
H865 H 0.91871 0.8144 0.13679 0.0
H866 H 0.9213 0.84173 0.20665 0.0
H867 H 0.93804 0.82937 0.4088 0.0
H868 H 0.94589 0.9206 0.54036 0.0
H869 H 0.93414 0.89323 0.48099 0.0
C870 C 0.71745 0.00884 0.26856 0.0
C871 C 0.72004 0.994 0.22492 0.0
C872 C 0.70028 0.00828 0.31618 0.0
C873 C 0.66019 0.97659 0.40916 0.0
H874 H 0.62438 0.02258 0.40405 0.0
C875 C 0.57677 0.97718 0.54958 0.0
C876 C 0.56943 0.99481 0.57401 0.0
C877 C 0.59574 0.97666 0.50938 0.0
C878 C 0.63432 0.00972 0.40739 0.0
H879 H 0.70762 0.96669 0.19749 0.0
H880 H 0.6779 0.96524 0.28236 0.0
H881 H 0.65729 0.0223 0.33423 0.0
H882 H 0.57658 0.02561 0.57709 0.0
H883 H 0.60987 0.02461 0.50997 0.0
H884 H 0.63758 0.96409 0.4833 0.0
C885 C 0.68899 0.97735 0.27974 0.0
C886 C 0.65319 0.00958 0.36701 0.0
C887 C 0.70592 0.97812 0.23145 0.0
C888 C 0.58163 0.01182 0.55835 0.0
C889 C 0.60073 0.01125 0.5193 0.0
C890 C 0.64147 0.97684 0.45054 0.0
C891 C 0.68568 0.99267 0.32152 0.0
C892 C 0.66627 0.993 0.36721 0.0
C893 C 0.60802 0.99372 0.49357 0.0
C894 C 0.62818 0.99339 0.45007 0.0
H895 H 0.72808 0.0213 0.26346 0.0
H896 H 0.69814 0.02024 0.34793 0.0
H897 H 0.67003 0.96363 0.4104 0.0
H898 H 0.56768 0.96383 0.56061 0.0
H899 H 0.60054 0.96293 0.48988 0.0
C900 C 0.56816 0.66867 0.21504 0.0
C901 C 0.55278 0.68346 0.21471 0.0
C902 C 0.56742 0.65387 0.26563 0.0
C903 C 0.52883 0.62723 0.37705 0.0
H904 H 0.57707 0.60778 0.46872 0.0
C905 C 0.51747 0.56592 0.57972 0.0
C906 C 0.53308 0.55136 0.58362 0.0
C907 C 0.52129 0.58308 0.54023 0.0
C908 C 0.5635 0.61288 0.44303 0.0
H909 H 0.52473 0.69472 0.2662 0.0
H910 H 0.52325 0.66876 0.35506 0.0
H911 H 0.58142 0.63618 0.38965 0.0
H912 H 0.56521 0.54354 0.5509 0.0
H913 H 0.57172 0.57333 0.47928 0.0
H914 H 0.51102 0.60371 0.42743 0.0
C915 C 0.536 0.66868 0.3166 0.0
C916 C 0.56598 0.6292 0.39808 0.0
C917 C 0.53693 0.68359 0.2664 0.0
C918 C 0.55292 0.55457 0.54876 0.0
C919 C 0.55664 0.57168 0.508 0.0
C920 C 0.5264 0.61083 0.42108 0.0
C921 C 0.55104 0.65351 0.3161 0.0
C922 C 0.54861 0.63657 0.36502 0.0
C923 C 0.54068 0.58599 0.5023 0.0
C924 C 0.54364 0.60348 0.45512 0.0
H925 H 0.58036 0.66832 0.17502 0.0
H926 H 0.57906 0.64226 0.26369 0.0
H927 H 0.51528 0.63234 0.35115 0.0
H928 H 0.50213 0.564 0.60699 0.0
H929 H 0.50886 0.59399 0.53895 0.0
C930 C 0.82557 0.45729 0.34106 0.0
C931 C 0.81181 0.47126 0.3146 0.0
C932 C 0.84218 0.46295 0.37679 0.0
C933 C 0.8628 0.49945 0.47453 0.0
H934 H 0.91763 0.48075 0.40656 0.0
C935 C 0.94239 0.5155 0.58956 0.0
C936 C 0.95638 0.49955 0.59444 0.0
C937 C 0.92428 0.51441 0.55416 0.0
C938 C 0.90244 0.48598 0.42656 0.0
H939 H 0.80394 0.50199 0.30615 0.0
H940 H 0.83286 0.512 0.37127 0.0
H941 H 0.88599 0.4742 0.35046 0.0
H942 H 0.96208 0.46986 0.56712 0.0
H943 H 0.93061 0.46785 0.50718 0.0
H944 H 0.87922 0.51057 0.55231 0.0
C945 C 0.83074 0.49666 0.36395 0.0
C946 C 0.88437 0.48229 0.39423 0.0
C947 C 0.81419 0.49096 0.32725 0.0
C948 C 0.95179 0.4825 0.56389 0.0
C949 C 0.93376 0.48139 0.52901 0.0
C950 C 0.88095 0.50298 0.50755 0.0
C951 C 0.84521 0.48272 0.38731 0.0
C952 C 0.86434 0.48858 0.41871 0.0
C953 C 0.91987 0.49736 0.52309 0.0
C954 C 0.9009 0.49582 0.48475 0.0
H955 H 0.82386 0.44204 0.33197 0.0
H956 H 0.853 0.45192 0.39497 0.0
H957 H 0.84747 0.50447 0.49413 0.0
H958 H 0.94551 0.52884 0.61263 0.0
H959 H 0.91392 0.52698 0.55031 0.0
loop_
_geom_bond_atom_site_label_1
_geom_bond_atom_site_label_2
_geom_bond_distance
_geom_bond_site_symmetry_2
_ccdc_geom_bond_type
C0 N1 1.317 . S
C0 N2 1.348 . S
C0 C3 1.485 . S
N1 C0 1.317 . S
N1 N5 1.370 . S
N2 C0 1.348 . S
N2 C4 1.346 . S
C3 C0 1.485 . S
C3 H7 0.960 . S
C3 H8 0.961 . S
C3 H9 0.960 . S
C4 N2 1.346 . S
C4 N5 1.307 . S
C4 C6 1.486 1_554 S
N5 N1 1.370 . S
N5 C4 1.307 . S
C6 C4 1.486 1_556 S
C6 H10 0.960 . S
C6 H11 0.960 . S
C6 H12 0.959 . S
H7 C3 0.960 . S
H8 C3 0.961 . S
H9 C3 0.960 . S
H10 C6 0.960 . S
H11 C6 0.960 . S
H12 C6 0.959 . S
C13 N14 1.317 . S
C13 N15 1.348 1_554 S
C13 C16 1.485 . S
N14 C13 1.317 . S
N14 N18 1.370 1_554 S
N15 C13 1.348 1_556 S
N15 C17 1.346 . S
C16 C13 1.485 . S
C16 H20 0.960 . S
C16 H21 0.961 . S
C16 H22 0.960 . S
C17 N15 1.346 . S
C17 N18 1.307 . S
C17 C19 1.486 . S
N18 N14 1.370 1_556 S
N18 C17 1.307 . S
C19 C17 1.486 . S
C19 H23 0.960 . S
C19 H24 0.960 . S
C19 H25 0.959 . S
H20 C16 0.960 . S
H21 C16 0.961 . S
H22 C16 0.960 . S
H23 C19 0.960 . S
H24 C19 0.960 . S
H25 C19 0.959 . S
C26 N27 1.317 . S
C26 N28 1.348 . S
C26 C29 1.485 . S
N27 C26 1.317 . S
N27 N31 1.370 . S
N28 C26 1.348 . S
N28 C30 1.347 1_565 S
C29 C26 1.485 . S
C29 H33 0.960 1_565 S
C29 H34 0.961 . S
C29 H35 0.960 . S
C30 N28 1.347 1_545 S
C30 N31 1.307 1_545 S
C30 C32 1.488 1_554 S
N31 N27 1.370 . S
N31 C30 1.307 1_565 S
C32 C30 1.488 1_556 S
C32 H36 0.924 1_545 S
C32 H37 0.988 . S
C32 H38 0.966 . S
H33 C29 0.960 1_545 S
H34 C29 0.961 . S
H35 C29 0.960 . S
H36 C32 0.924 1_565 S
H37 C32 0.988 . S
H38 C32 0.966 . S
C39 N40 1.317 . S
C39 N41 1.348 . S
C39 C42 1.485 . S
N40 C39 1.317 . S
N40 N44 1.370 . S
N41 C39 1.348 . S
N41 C43 1.346 . S
C42 C39 1.485 . S
C42 H46 0.960 . S
C42 H47 0.961 . S
C42 H48 0.960 . S
C43 N41 1.346 . S
C43 N44 1.307 . S
C43 C45 1.486 1_554 S
N44 N40 1.370 . S
N44 C43 1.307 . S
C45 C43 1.486 1_556 S
C45 H49 0.960 . S
C45 H50 0.960 . S
C45 H51 0.959 . S
H46 C42 0.960 . S
H47 C42 0.961 . S
H48 C42 0.960 . S
H49 C45 0.960 . S
H50 C45 0.960 . S
H51 C45 0.959 . S
C52 N53 1.317 . S
C52 N54 1.348 . S
C52 C55 1.485 . S
N53 C52 1.317 . S
N53 N57 1.370 . S
N54 C52 1.348 . S
N54 C56 1.346 . S
C55 C52 1.485 . S
C55 H59 0.960 . S
C55 H60 0.961 . S
C55 H61 0.960 . S
C56 N54 1.346 . S
C56 N57 1.307 . S
C56 C58 1.486 . S
N57 N53 1.370 . S
N57 C56 1.307 . S
C58 C56 1.486 . S
C58 H62 0.960 . S
C58 H63 0.960 . S
C58 H64 0.959 . S
H59 C55 0.960 . S
H60 C55 0.961 . S
H61 C55 0.960 . S
H62 C58 0.960 . S
H63 C58 0.960 . S
H64 C58 0.959 . S
C65 N66 1.317 . S
C65 N67 1.348 . S
C65 C68 1.485 . S
N66 C65 1.317 . S
N66 N70 1.370 . S
N67 C65 1.348 . S
N67 C69 1.346 . S
C68 C65 1.485 . S
C68 H72 0.960 . S
C68 H73 0.961 . S
C68 H74 0.960 . S
C69 N67 1.346 . S
C69 N70 1.307 . S
C69 C71 1.486 . S
N70 N66 1.370 . S
N70 C69 1.307 . S
C71 C69 1.486 . S
C71 H75 0.960 . S
C71 H76 0.960 . S
C71 H77 0.959 . S
H72 C68 0.960 . S
H73 C68 0.961 . S
H74 C68 0.960 . S
H75 C71 0.960 . S
H76 C71 0.960 . S
H77 C71 0.959 . S
C78 N79 1.320 . S
C78 N80 1.351 . S
C78 C81 1.485 . S
N79 C78 1.320 . S
N79 N83 1.365 . S
N80 C78 1.351 . S
N80 C82 1.344 1_565 S
C81 C78 1.485 . S
C81 H85 0.960 1_565 S
C81 H86 0.961 . S
C81 H87 0.960 . S
C82 N80 1.344 1_545 S
C82 N83 1.306 1_545 S
C82 C84 1.483 . S
N83 N79 1.365 . S
N83 C82 1.306 1_565 S
C84 C82 1.483 . S
C84 H88 0.915 1_545 S
C84 H89 1.000 . S
C84 H90 0.971 . S
H85 C81 0.960 1_545 S
H86 C81 0.961 . S
H87 C81 0.960 . S
H88 C84 0.915 1_565 S
H89 C84 1.000 . S
H90 C84 0.971 . S
C91 N92 1.317 . S
C91 N93 1.348 . S
C91 C94 1.485 . S
N92 C91 1.317 . S
N92 N96 1.370 . S
N93 C91 1.348 . S
N93 C95 1.346 . S
C94 C91 1.485 . S
C94 H98 0.960 . S
C94 H99 0.961 . S
C94 H100 0.960 . S
C95 N93 1.346 . S
C95 N96 1.307 . S
C95 C97 1.486 . S
N96 N92 1.370 . S
N96 C95 1.307 . S
C97 C95 1.486 . S
C97 H101 0.960 . S
C97 H102 0.960 . S
C97 H103 0.959 . S
H98 C94 0.960 . S
H99 C94 0.961 . S
H100 C94 0.960 . S
H101 C97 0.960 . S
H102 C97 0.960 . S
H103 C97 0.959 . S
C104 O120 1.251 . S
C104 O122 1.254 . S
N105 C106 1.338 . S
N105 C110 1.295 1_455 S
N105 Zn111 2.025 . S
C106 N105 1.338 . S
C106 C107 1.379 . S
C106 H124 0.952 . S
C107 C106 1.379 . S
C107 C108 1.390 1_455 S
C107 H134 0.949 . S
C108 C107 1.390 1_655 S
C108 C109 1.357 . S
C109 C108 1.357 . S
C109 C110 1.370 . S
C109 H135 0.950 . S
C110 N105 1.295 1_655 S
C110 C109 1.370 . S
C110 H128 0.948 . S
Zn111 N105 2.025 . S
Zn111 O120 2.039 . S
Zn111 O126 2.034 . S
Zn111 O130 2.025 1_565 S
Zn111 O132 2.024 1_455 S
C112 O131 1.246 . S
C112 O132 1.249 1_545 S
N113 C114 1.307 . S
N113 C115 1.333 . S
N113 Zn119 2.020 . S
C114 N113 1.307 . S
C114 C118 1.370 . S
C114 H125 0.948 . S
C115 N113 1.333 . S
C115 C116 1.379 . S
C115 H123 0.952 . S
C116 C115 1.379 . S
C116 C117 1.390 . S
C116 H136 0.949 . S
C117 C116 1.390 . S
C117 C118 1.357 . S
C118 C114 1.370 . S
C118 C117 1.357 . S
C118 H137 0.950 . S
Zn119 N113 2.020 . S
Zn119 O122 2.025 1_545 S
Zn119 O127 2.024 . S
Zn119 O129 2.039 . S
Zn119 O131 2.034 1_455 S
O120 C104 1.251 . S
O120 Zn111 2.039 . S
C121 O126 1.246 . S
C121 O127 1.249 1_565 S
O122 C104 1.254 . S
O122 Zn119 2.025 1_565 S
H123 C115 0.952 . S
H124 C106 0.952 . S
H125 C114 0.948 . S
O126 Zn111 2.034 . S
O126 C121 1.246 . S
O127 Zn119 2.024 . S
O127 C121 1.249 1_545 S
H128 C110 0.948 . S
O129 Zn119 2.039 . S
O129 C133 1.251 . S
O130 Zn111 2.025 1_545 S
O130 C133 1.254 . S
O131 C112 1.246 . S
O131 Zn119 2.034 1_655 S
O132 Zn111 2.024 1_655 S
O132 C112 1.249 1_565 S
C133 O129 1.251 . S
C133 O130 1.254 . S
H134 C107 0.949 . S
H135 C109 0.950 . S
H136 C116 0.949 . S
H137 C118 0.950 . S
C138 O154 1.251 1_565 S
C138 O156 1.254 . S
N139 C140 1.333 . S
N139 C144 1.307 . S
N139 Zn145 2.020 . S
C140 N139 1.333 . S
C140 C141 1.379 . S
C140 H158 0.952 . S
C141 C140 1.379 . S
C141 C142 1.390 . S
C141 H168 0.949 . S
C142 C141 1.390 . S
C142 C143 1.357 . S
C143 C142 1.357 . S
C143 C144 1.370 . S
C143 H169 0.950 . S
C144 N139 1.307 . S
C144 C143 1.370 . S
C144 H162 0.948 . S
Zn145 N139 2.020 . S
Zn145 O154 2.039 . S
Zn145 O160 2.034 . S
Zn145 O164 2.025 . S
Zn145 O166 2.024 . S
C146 O165 1.246 1_545 S
C146 O166 1.249 . S
N147 C148 1.307 . S
N147 C149 1.333 . S
N147 Zn153 2.020 . S
C148 N147 1.307 . S
C148 C152 1.370 . S
C148 H159 0.948 . S
C149 N147 1.333 . S
C149 C150 1.379 . S
C149 H157 0.952 . S
C150 C149 1.379 . S
C150 C151 1.390 . S
C150 H170 0.949 . S
C151 C150 1.390 . S
C151 C152 1.357 . S
C152 C148 1.370 . S
C152 C151 1.357 . S
C152 H171 0.950 . S
Zn153 N147 2.020 . S
Zn153 O156 2.025 . S
Zn153 O161 2.024 . S
Zn153 O163 2.039 . S
Zn153 O165 2.034 . S
O154 C138 1.251 1_545 S
O154 Zn145 2.039 . S
C155 O160 1.246 1_565 S
C155 O161 1.249 . S
O156 C138 1.254 . S
O156 Zn153 2.025 . S
H157 C149 0.952 . S
H158 C140 0.952 . S
H159 C148 0.948 . S
O160 Zn145 2.034 . S
O160 C155 1.246 1_545 S
O161 Zn153 2.024 . S
O161 C155 1.249 . S
H162 C144 0.948 . S
O163 Zn153 2.039 . S
O163 C167 1.251 1_565 S
O164 Zn145 2.025 . S
O164 C167 1.254 . S
O165 C146 1.246 1_565 S
O165 Zn153 2.034 . S
O166 Zn145 2.024 . S
O166 C146 1.249 . S
C167 O163 1.251 1_545 S
C167 O164 1.254 . S
H168 C141 0.949 . S
H169 C143 0.950 . S
H170 C150 0.949 . S
H171 C152 0.950 . S
C172 O188 1.251 . S
C172 O190 1.254 . S
N173 C174 1.333 . S
N173 C178 1.307 . S
N173 Zn179 2.020 . S
C174 N173 1.333 . S
C174 C175 1.379 . S
C174 H192 0.952 . S
C175 C174 1.379 . S
C175 C176 1.390 . S
C175 H202 0.949 . S
C176 C175 1.390 . S
C176 C177 1.357 . S
C177 C176 1.357 . S
C177 C178 1.370 . S
C177 H203 0.950 . S
C178 N173 1.307 . S
C178 C177 1.370 . S
C178 H196 0.948 . S
Zn179 N173 2.020 . S
Zn179 O188 2.039 . S
Zn179 O194 2.034 . S
Zn179 O198 2.025 . S
Zn179 O200 2.024 . S
C180 O199 1.246 . S
C180 O200 1.249 . S
N181 C182 1.307 . S
N181 C183 1.333 . S
N181 Zn187 2.020 . S
C182 N181 1.307 . S
C182 C186 1.370 . S
C182 H193 0.948 . S
C183 N181 1.333 . S
C183 C184 1.379 . S
C183 H191 0.952 . S
C184 C183 1.379 . S
C184 C185 1.390 . S
C184 H204 0.949 . S
C185 C184 1.390 . S
C185 C186 1.357 . S
C186 C182 1.370 . S
C186 C185 1.357 . S
C186 H205 0.950 . S
Zn187 N181 2.020 . S
Zn187 O190 2.025 . S
Zn187 O195 2.024 . S
Zn187 O197 2.039 . S
Zn187 O199 2.034 . S
O188 C172 1.251 . S
O188 Zn179 2.039 . S
C189 O194 1.246 . S
C189 O195 1.249 . S
O190 C172 1.254 . S
O190 Zn187 2.025 . S
H191 C183 0.952 . S
H192 C174 0.952 . S
H193 C182 0.948 . S
O194 Zn179 2.034 . S
O194 C189 1.246 . S
O195 Zn187 2.024 . S
O195 C189 1.249 . S
H196 C178 0.948 . S
O197 Zn187 2.039 . S
O197 C201 1.251 . S
O198 Zn179 2.025 . S
O198 C201 1.254 . S
O199 C180 1.246 . S
O199 Zn187 2.034 . S
O200 Zn179 2.024 . S
O200 C180 1.249 . S
C201 O197 1.251 . S
C201 O198 1.254 . S
H202 C175 0.949 . S
H203 C177 0.950 . S
H204 C184 0.949 . S
H205 C186 0.950 . S
C206 O222 1.251 . S
C206 O224 1.254 . S
N207 C208 1.333 . S
N207 C212 1.307 . S
N207 Zn213 2.020 . S
C208 N207 1.333 . S
C208 C209 1.379 . S
C208 H226 0.952 . S
C209 C208 1.379 . S
C209 C210 1.390 . S
C209 H236 0.949 . S
C210 C209 1.390 . S
C210 C211 1.357 . S
C211 C210 1.357 . S
C211 C212 1.370 . S
C211 H237 0.950 . S
C212 N207 1.307 . S
C212 C211 1.370 . S
C212 H230 0.948 . S
Zn213 N207 2.020 . S
Zn213 O222 2.039 . S
Zn213 O228 2.034 1_455 S
Zn213 O232 2.025 1_455 S
Zn213 O234 2.024 . S
C214 O233 1.246 . S
C214 O234 1.249 . S
N215 C216 1.307 . S
N215 C217 1.333 1_455 S
N215 Zn221 2.020 . S
C216 N215 1.307 . S
C216 C220 1.370 . S
C216 H227 0.948 . S
C217 N215 1.333 1_655 S
C217 C218 1.379 . S
C217 H225 0.952 . S
C218 C217 1.379 . S
C218 C219 1.390 1_655 S
C218 H238 0.949 . S
C219 C218 1.390 1_455 S
C219 C220 1.357 . S
C220 C216 1.370 . S
C220 C219 1.357 . S
C220 H239 0.950 . S
Zn221 N215 2.020 . S
Zn221 O224 2.025 . S
Zn221 O229 2.024 1_455 S
Zn221 O231 2.039 1_455 S
Zn221 O233 2.034 . S
O222 C206 1.251 . S
O222 Zn213 2.039 . S
C223 O228 1.246 . S
C223 O229 1.249 . S
O224 C206 1.254 . S
O224 Zn221 2.025 . S
H225 C217 0.952 . S
H226 C208 0.952 . S
H227 C216 0.948 . S
O228 Zn213 2.034 1_655 S
O228 C223 1.246 . S
O229 Zn221 2.024 1_655 S
O229 C223 1.249 . S
H230 C212 0.948 . S
O231 Zn221 2.039 1_655 S
O231 C235 1.251 . S
O232 Zn213 2.025 1_655 S
O232 C235 1.254 . S
O233 C214 1.246 . S
O233 Zn221 2.034 . S
O234 Zn213 2.024 . S
O234 C214 1.249 . S
C235 O231 1.251 . S
C235 O232 1.254 . S
H236 C209 0.949 . S
H237 C211 0.950 . S
H238 C218 0.949 . S
H239 C220 0.950 . S
C240 C241 1.350 . S
C240 C242 1.327 . S
C240 H265 0.950 . S
C241 C240 1.350 . S
C241 C257 1.347 1_565 S
C242 C240 1.327 . S
C242 C261 1.457 . S
C242 H266 0.950 . S
C243 C260 1.574 . S
C243 C262 1.368 1_545 S
C243 H267 0.949 . S
H244 C248 0.949 . S
C245 C246 1.349 1_545 S
C245 C247 1.327 . S
C245 H268 0.950 . S
C246 C245 1.349 1_565 S
C246 C258 1.349 . S
C247 C245 1.327 . S
C247 C263 1.429 1_545 S
C247 H269 0.950 . S
C248 H244 0.949 . S
C248 C256 1.574 . S
C248 C264 1.368 . S
H249 C257 0.950 . S
H250 C255 0.950 . S
H251 C256 0.949 . S
H252 C258 0.950 . S
H253 C259 0.950 . S
H254 C260 0.949 . S
C255 H250 0.950 . S
C255 C257 1.327 . S
C255 C261 1.401 1_545 S
C256 C248 1.574 . S
C256 H251 0.949 . S
C256 C262 1.368 . S
C257 C241 1.347 1_545 S
C257 H249 0.950 . S
C257 C255 1.327 . S
C258 C246 1.349 . S
C258 H252 0.950 . S
C258 C259 1.327 . S
C259 H253 0.950 . S
C259 C258 1.327 . S
C259 C263 1.429 . S
C260 C243 1.574 . S
C260 H254 0.949 . S
C260 C264 1.368 1_545 S
C261 C242 1.457 . S
C261 C255 1.401 1_565 S
C261 C262 1.523 . S
C262 C243 1.368 1_565 S
C262 C256 1.368 . S
C262 C261 1.523 . S
C263 C247 1.429 1_565 S
C263 C259 1.429 . S
C263 C264 1.523 . S
C264 C248 1.368 . S
C264 C260 1.368 1_565 S
C264 C263 1.523 . S
H265 C240 0.950 . S
H266 C242 0.950 . S
H267 C243 0.949 . S
H268 C245 0.950 . S
H269 C247 0.950 . S
C270 C271 1.349 . S
C270 C272 1.327 . S
C270 H295 0.950 . S
C271 C270 1.349 . S
C271 C287 1.349 . S
C272 C270 1.327 . S
C272 C291 1.429 . S
C272 H296 0.950 . S
C273 C290 1.574 . S
C273 C292 1.368 . S
C273 H297 0.949 . S
H274 C278 0.949 . S
C275 C276 1.349 . S
C275 C277 1.327 . S
C275 H298 0.950 . S
C276 C275 1.349 . S
C276 C288 1.349 . S
C277 C275 1.327 . S
C277 C293 1.429 . S
C277 H299 0.950 . S
C278 H274 0.949 . S
C278 C286 1.574 . S
C278 C294 1.368 . S
H279 C287 0.950 . S
H280 C285 0.950 . S
H281 C286 0.949 . S
H282 C288 0.950 . S
H283 C289 0.950 . S
H284 C290 0.949 . S
C285 H280 0.950 . S
C285 C287 1.327 . S
C285 C291 1.429 . S
C286 C278 1.574 . S
C286 H281 0.949 . S
C286 C292 1.368 . S
C287 C271 1.349 . S
C287 H279 0.950 . S
C287 C285 1.327 . S
C288 C276 1.349 . S
C288 H282 0.950 . S
C288 C289 1.327 . S
C289 H283 0.950 . S
C289 C288 1.327 . S
C289 C293 1.429 . S
C290 C273 1.574 . S
C290 H284 0.949 . S
C290 C294 1.368 . S
C291 C272 1.429 . S
C291 C285 1.429 . S
C291 C292 1.523 . S
C292 C273 1.368 . S
C292 C286 1.368 . S
C292 C291 1.523 . S
C293 C277 1.429 . S
C293 C289 1.429 . S
C293 C294 1.523 . S
C294 C278 1.368 . S
C294 C290 1.368 . S
C294 C293 1.523 . S
H295 C270 0.950 . S
H296 C272 0.950 . S
H297 C273 0.949 . S
H298 C275 0.950 . S
H299 C277 0.950 . S
C300 C301 1.349 . S
C300 C302 1.327 . S
C300 H325 0.950 . S
C301 C300 1.349 . S
C301 C317 1.349 . S
C302 C300 1.327 . S
C302 C321 1.429 . S
C302 H326 0.950 . S
C303 C320 1.574 . S
C303 C322 1.368 . S
C303 H327 0.949 . S
H304 C308 0.949 . S
C305 C306 1.349 . S
C305 C307 1.327 . S
C305 H328 0.950 . S
C306 C305 1.349 . S
C306 C318 1.349 . S
C307 C305 1.327 . S
C307 C323 1.429 . S
C307 H329 0.950 . S
C308 H304 0.949 . S
C308 C316 1.574 . S
C308 C324 1.368 . S
H309 C317 0.950 . S
H310 C315 0.950 . S
H311 C316 0.949 . S
H312 C318 0.950 . S
H313 C319 0.950 . S
H314 C320 0.949 . S
C315 H310 0.950 . S
C315 C317 1.327 . S
C315 C321 1.429 . S
C316 C308 1.574 . S
C316 H311 0.949 . S
C316 C322 1.368 . S
C317 C301 1.349 . S
C317 H309 0.950 . S
C317 C315 1.327 . S
C318 C306 1.349 . S
C318 H312 0.950 . S
C318 C319 1.327 . S
C319 H313 0.950 . S
C319 C318 1.327 . S
C319 C323 1.429 . S
C320 C303 1.574 . S
C320 H314 0.949 . S
C320 C324 1.368 . S
C321 C302 1.429 . S
C321 C315 1.429 . S
C321 C322 1.523 . S
C322 C303 1.368 . S
C322 C316 1.368 . S
C322 C321 1.523 . S
C323 C307 1.429 . S
C323 C319 1.429 . S
C323 C324 1.523 . S
C324 C308 1.368 . S
C324 C320 1.368 . S
C324 C323 1.523 . S
H325 C300 0.950 . S
H326 C302 0.950 . S
H327 C303 0.949 . S
H328 C305 0.950 . S
H329 C307 0.950 . S
C330 C331 1.349 . S
C330 C332 1.327 . S
C330 H355 0.950 . S
C331 C330 1.349 . S
C331 C347 1.349 . S
C332 C330 1.327 . S
C332 C351 1.429 . S
C332 H356 0.950 . S
C333 C350 1.574 . S
C333 C352 1.368 . S
C333 H357 0.949 . S
H334 C338 0.949 . S
C335 C336 1.349 . S
C335 C337 1.327 . S
C335 H358 0.950 1_455 S
C336 C335 1.349 . S
C336 C348 1.349 . S
C337 C335 1.327 . S
C337 C353 1.429 . S
C337 H359 0.950 1_455 S
C338 H334 0.949 . S
C338 C346 1.574 . S
C338 C354 1.368 . S
H339 C347 0.950 . S
H340 C345 0.950 . S
H341 C346 0.949 . S
H342 C348 0.950 . S
H343 C349 0.950 . S
H344 C350 0.949 . S
C345 H340 0.950 . S
C345 C347 1.327 . S
C345 C351 1.429 . S
C346 C338 1.574 . S
C346 H341 0.949 . S
C346 C352 1.368 . S
C347 C331 1.349 . S
C347 H339 0.950 . S
C347 C345 1.327 . S
C348 C336 1.349 . S
C348 H342 0.950 . S
C348 C349 1.327 . S
C349 H343 0.950 . S
C349 C348 1.327 . S
C349 C353 1.429 . S
C350 C333 1.574 . S
C350 H344 0.949 . S
C350 C354 1.368 . S
C351 C332 1.429 . S
C351 C345 1.429 . S
C351 C352 1.523 . S
C352 C333 1.368 . S
C352 C346 1.368 . S
C352 C351 1.523 . S
C353 C337 1.429 . S
C353 C349 1.429 . S
C353 C354 1.523 . S
C354 C338 1.368 . S
C354 C350 1.368 . S
C354 C353 1.523 . S
H355 C330 0.950 . S
H356 C332 0.950 . S
H357 C333 0.949 . S
H358 C335 0.950 1_655 S
H359 C337 0.950 1_655 S
C360 C361 1.338 1_566 S
C360 C362 1.327 . S
C360 H385 0.950 . S
C361 C360 1.338 1_544 S
C361 C377 1.360 . S
C362 C360 1.327 . S
C362 C381 1.391 1_565 S
C362 H386 0.950 . S
C363 C380 1.574 . S
C363 C382 1.368 . S
C363 H387 0.949 . S
H364 C368 0.949 . S
C365 C366 1.349 . S
C365 C367 1.327 . S
C365 H388 0.950 . S
C366 C365 1.349 . S
C366 C378 1.349 1_545 S
C367 C365 1.327 . S
C367 C383 1.429 . S
C367 H389 0.950 . S
C368 H364 0.949 . S
C368 C376 1.574 . S
C368 C384 1.368 1_565 S
H369 C377 0.950 . S
H370 C375 0.950 . S
H371 C376 0.949 . S
H372 C378 0.950 . S
H373 C379 0.950 . S
H374 C380 0.949 . S
C375 H370 0.950 . S
C375 C377 1.327 . S
C375 C381 1.468 1_554 S
C376 C368 1.574 . S
C376 H371 0.949 . S
C376 C382 1.368 1_565 S
C377 C361 1.360 . S
C377 H369 0.950 . S
C377 C375 1.327 . S
C378 C366 1.349 1_565 S
C378 H372 0.950 . S
C378 C379 1.327 . S
C379 H373 0.950 . S
C379 C378 1.327 . S
C379 C383 1.429 1_565 S
C380 C363 1.574 . S
C380 H374 0.949 . S
C380 C384 1.368 . S
C381 C362 1.391 1_545 S
C381 C375 1.468 1_556 S
C381 C382 1.523 . S
C382 C363 1.368 . S
C382 C376 1.368 1_545 S
C382 C381 1.523 . S
C383 C367 1.429 . S
C383 C379 1.429 1_545 S
C383 C384 1.523 . S
C384 C368 1.368 1_545 S
C384 C380 1.368 . S
C384 C383 1.523 . S
H385 C360 0.950 . S
H386 C362 0.950 . S
H387 C363 0.949 . S
H388 C365 0.950 . S
H389 C367 0.950 . S
C390 C391 1.349 1_556 S
C390 C392 1.327 . S
C390 H415 0.950 . S
C391 C390 1.349 1_554 S
C391 C407 1.349 . S
C392 C390 1.327 . S
C392 C411 1.429 . S
C392 H416 0.950 . S
C393 C410 1.574 . S
C393 C412 1.368 . S
C393 H417 0.949 1_556 S
H394 C398 0.949 . S
C395 C396 1.349 . S
C395 C397 1.327 . S
C395 H418 0.950 . S
C396 C395 1.349 . S
C396 C408 1.349 . S
C397 C395 1.327 . S
C397 C413 1.429 . S
C397 H419 0.950 . S
C398 H394 0.949 . S
C398 C406 1.574 . S
C398 C414 1.368 . S
H399 C407 0.950 . S
H400 C405 0.950 . S
H401 C406 0.949 . S
H402 C408 0.950 . S
H403 C409 0.950 . S
H404 C410 0.949 . S
C405 H400 0.950 . S
C405 C407 1.327 . S
C405 C411 1.429 1_554 S
C406 C398 1.574 . S
C406 H401 0.949 . S
C406 C412 1.368 . S
C407 C391 1.349 . S
C407 H399 0.950 . S
C407 C405 1.327 . S
C408 C396 1.349 . S
C408 H402 0.950 . S
C408 C409 1.327 . S
C409 H403 0.950 . S
C409 C408 1.327 . S
C409 C413 1.429 . S
C410 C393 1.574 . S
C410 H404 0.949 . S
C410 C414 1.368 . S
C411 C392 1.429 . S
C411 C405 1.429 1_556 S
C411 C412 1.523 . S
C412 C393 1.368 . S
C412 C406 1.368 . S
C412 C411 1.523 . S
C413 C397 1.429 . S
C413 C409 1.429 . S
C413 C414 1.523 . S
C414 C398 1.368 . S
C414 C410 1.368 . S
C414 C413 1.523 . S
H415 C390 0.950 . S
H416 C392 0.950 . S
H417 C393 0.949 1_554 S
H418 C395 0.950 . S
H419 C397 0.950 . S
C420 C421 1.349 . S
C420 C422 1.327 . S
C420 H445 0.950 . S
C421 C420 1.349 . S
C421 C437 1.349 . S
C422 C420 1.327 . S
C422 C441 1.429 . S
C422 H446 0.950 1_554 S
C423 C440 1.574 . S
C423 C442 1.368 . S
C423 H447 0.949 1_556 S
H424 C428 0.949 . S
C425 C426 1.349 . S
C425 C427 1.327 . S
C425 H448 0.950 . S
C426 C425 1.349 . S
C426 C438 1.349 . S
C427 C425 1.327 . S
C427 C443 1.429 . S
C427 H449 0.950 . S
C428 H424 0.949 . S
C428 C436 1.574 . S
C428 C444 1.368 . S
H429 C437 0.950 . S
H430 C435 0.950 . S
H431 C436 0.949 . S
H432 C438 0.950 . S
H433 C439 0.950 . S
H434 C440 0.949 . S
C435 H430 0.950 . S
C435 C437 1.327 . S
C435 C441 1.429 . S
C436 C428 1.574 . S
C436 H431 0.949 . S
C436 C442 1.368 . S
C437 C421 1.349 . S
C437 H429 0.950 . S
C437 C435 1.327 . S
C438 C426 1.349 . S
C438 H432 0.950 . S
C438 C439 1.327 . S
C439 H433 0.950 . S
C439 C438 1.327 . S
C439 C443 1.429 . S
C440 C423 1.574 . S
C440 H434 0.949 . S
C440 C444 1.368 . S
C441 C422 1.429 . S
C441 C435 1.429 . S
C441 C442 1.523 1_554 S
C442 C423 1.368 . S
C442 C436 1.368 . S
C442 C441 1.523 1_556 S
C443 C427 1.429 . S
C443 C439 1.429 . S
C443 C444 1.523 . S
C444 C428 1.368 . S
C444 C440 1.368 . S
C444 C443 1.523 . S
H445 C420 0.950 . S
H446 C422 0.950 1_556 S
H447 C423 0.949 1_554 S
H448 C425 0.950 . S
H449 C427 0.950 . S
C450 C451 1.349 . S
C450 C452 1.327 . S
C450 H475 0.950 . S
C451 C450 1.349 . S
C451 C467 1.349 . S
C452 C450 1.327 . S
C452 C471 1.429 . S
C452 H476 0.950 . S
C453 C470 1.574 . S
C453 C472 1.368 1_455 S
C453 H477 0.949 . S
H454 C458 0.949 . S
C455 C456 1.322 1_455 S
C455 C457 1.327 . S
C455 H478 0.950 . S
C456 C455 1.322 1_655 S
C456 C468 1.381 . S
C457 C455 1.327 . S
C457 C473 1.429 1_455 S
C457 H479 0.950 . S
C458 H454 0.949 . S
C458 C466 1.574 . S
C458 C474 1.368 . S
H459 C467 0.950 1_455 S
H460 C465 0.950 1_455 S
H461 C466 0.949 . S
H462 C468 0.950 . S
H463 C469 0.950 . S
H464 C470 0.949 . S
C465 H460 0.950 1_655 S
C465 C467 1.327 . S
C465 C471 1.429 . S
C466 C458 1.574 . S
C466 H461 0.949 . S
C466 C472 1.368 . S
C467 C451 1.349 . S
C467 H459 0.950 1_655 S
C467 C465 1.327 . S
C468 C456 1.381 . S
C468 H462 0.950 . S
C468 C469 1.327 . S
C469 H463 0.950 . S
C469 C468 1.327 . S
C469 C473 1.429 . S
C470 C453 1.574 . S
C470 H464 0.949 . S
C470 C474 1.368 1_455 S
C471 C452 1.429 . S
C471 C465 1.429 . S
C471 C472 1.523 . S
C472 C453 1.368 1_655 S
C472 C466 1.368 . S
C472 C471 1.523 . S
C473 C457 1.429 1_655 S
C473 C469 1.429 . S
C473 C474 1.523 . S
C474 C458 1.368 . S
C474 C470 1.368 1_655 S
C474 C473 1.523 . S
H475 C450 0.950 . S
H476 C452 0.950 . S
H477 C453 0.949 . S
H478 C455 0.950 . S
H479 C457 0.950 . S
C480 C481 1.349 . S
C480 C482 1.327 . S
C480 H505 0.950 . S
C481 C480 1.349 . S
C481 C497 1.349 . S
C482 C480 1.327 . S
C482 C501 1.429 . S
C482 H506 0.950 . S
C483 C500 1.574 . S
C483 C502 1.368 . S
C483 H507 0.949 . S
H484 C488 0.949 . S
C485 C486 1.349 . S
C485 C487 1.327 . S
C485 H508 0.950 1_455 S
C486 C485 1.349 . S
C486 C498 1.349 . S
C487 C485 1.327 . S
C487 C503 1.429 . S
C487 H509 0.950 . S
C488 H484 0.949 . S
C488 C496 1.574 . S
C488 C504 1.368 . S
H489 C497 0.950 . S
H490 C495 0.950 . S
H491 C496 0.949 . S
H492 C498 0.950 . S
H493 C499 0.950 . S
H494 C500 0.949 . S
C495 H490 0.950 . S
C495 C497 1.327 . S
C495 C501 1.429 . S
C496 C488 1.574 . S
C496 H491 0.949 . S
C496 C502 1.368 . S
C497 C481 1.349 . S
C497 H489 0.950 . S
C497 C495 1.327 . S
C498 C486 1.349 . S
C498 H492 0.950 . S
C498 C499 1.327 . S
C499 H493 0.950 . S
C499 C498 1.327 . S
C499 C503 1.429 . S
C500 C483 1.574 . S
C500 H494 0.949 . S
C500 C504 1.368 . S
C501 C482 1.429 . S
C501 C495 1.429 . S
C501 C502 1.523 . S
C502 C483 1.368 . S
C502 C496 1.368 . S
C502 C501 1.523 . S
C503 C487 1.429 . S
C503 C499 1.429 . S
C503 C504 1.523 . S
C504 C488 1.368 . S
C504 C500 1.368 . S
C504 C503 1.523 . S
H505 C480 0.950 . S
H506 C482 0.950 . S
H507 C483 0.949 . S
H508 C485 0.950 1_655 S
H509 C487 0.950 . S
C510 C511 1.350 . S
C510 C512 1.327 . S
C510 H535 0.950 . S
C511 C510 1.350 . S
C511 C527 1.348 1_545 S
C512 C510 1.327 . S
C512 C531 1.429 1_545 S
C512 H536 0.950 . S
C513 C530 1.574 . S
C513 C532 1.368 . S
C513 H537 0.949 . S
H514 C518 0.949 . S
C515 C516 1.349 . S
C515 C517 1.327 . S
C515 H538 0.950 . S
C516 C515 1.349 . S
C516 C528 1.349 1_565 S
C517 C515 1.327 . S
C517 C533 1.429 . S
C517 H539 0.950 . S
C518 H514 0.949 . S
C518 C526 1.574 . S
C518 C534 1.368 1_545 S
H519 C527 0.950 . S
H520 C525 0.950 . S
H521 C526 0.949 . S
H522 C528 0.950 . S
H523 C529 0.950 . S
H524 C530 0.949 . S
C525 H520 0.950 . S
C525 C527 1.327 . S
C525 C531 1.429 . S
C526 C518 1.574 . S
C526 H521 0.949 . S
C526 C532 1.368 1_545 S
C527 C511 1.348 1_565 S
C527 H519 0.950 . S
C527 C525 1.327 . S
C528 C516 1.349 1_545 S
C528 H522 0.950 . S
C528 C529 1.327 . S
C529 H523 0.950 . S
C529 C528 1.327 . S
C529 C533 1.429 1_545 S
C530 C513 1.574 . S
C530 H524 0.949 . S
C530 C534 1.368 . S
C531 C512 1.429 1_565 S
C531 C525 1.429 . S
C531 C532 1.523 . S
C532 C513 1.368 . S
C532 C526 1.368 1_565 S
C532 C531 1.523 . S
C533 C517 1.429 . S
C533 C529 1.429 1_565 S
C533 C534 1.523 . S
C534 C518 1.368 1_565 S
C534 C530 1.368 . S
C534 C533 1.523 . S
H535 C510 0.950 . S
H536 C512 0.950 . S
H537 C513 0.949 . S
H538 C515 0.950 . S
H539 C517 0.950 . S
C540 C541 1.349 . S
C540 C542 1.327 . S
C540 H565 0.950 . S
C541 C540 1.349 . S
C541 C557 1.349 . S
C542 C540 1.327 . S
C542 C561 1.429 . S
C542 H566 0.950 . S
C543 C560 1.574 . S
C543 C562 1.368 . S
C543 H567 0.949 . S
H544 C548 0.949 . S
C545 C546 1.349 . S
C545 C547 1.327 . S
C545 H568 0.950 . S
C546 C545 1.349 . S
C546 C558 1.349 . S
C547 C545 1.327 . S
C547 C563 1.429 . S
C547 H569 0.950 . S
C548 H544 0.949 . S
C548 C556 1.574 . S
C548 C564 1.368 . S
H549 C557 0.950 . S
H550 C555 0.950 . S
H551 C556 0.949 . S
H552 C558 0.950 . S
H553 C559 0.950 . S
H554 C560 0.949 . S
C555 H550 0.950 . S
C555 C557 1.327 . S
C555 C561 1.429 . S
C556 C548 1.574 . S
C556 H551 0.949 . S
C556 C562 1.368 . S
C557 C541 1.349 . S
C557 H549 0.950 . S
C557 C555 1.327 . S
C558 C546 1.349 . S
C558 H552 0.950 . S
C558 C559 1.327 . S
C559 H553 0.950 . S
C559 C558 1.327 . S
C559 C563 1.429 . S
C560 C543 1.574 . S
C560 H554 0.949 . S
C560 C564 1.368 . S
C561 C542 1.429 . S
C561 C555 1.429 . S
C561 C562 1.523 . S
C562 C543 1.368 . S
C562 C556 1.368 . S
C562 C561 1.523 . S
C563 C547 1.429 . S
C563 C559 1.429 . S
C563 C564 1.523 . S
C564 C548 1.368 . S
C564 C560 1.368 . S
C564 C563 1.523 . S
H565 C540 0.950 . S
H566 C542 0.950 . S
H567 C543 0.949 . S
H568 C545 0.950 . S
H569 C547 0.950 . S
C570 C571 1.349 . S
C570 C572 1.327 . S
C570 H595 0.950 . S
C571 C570 1.349 . S
C571 C587 1.349 . S
C572 C570 1.327 . S
C572 C591 1.429 . S
C572 H596 0.950 . S
C573 C590 1.574 . S
C573 C592 1.368 . S
C573 H597 0.949 . S
H574 C578 0.949 . S
C575 C576 1.349 . S
C575 C577 1.327 . S
C575 H598 0.950 . S
C576 C575 1.349 . S
C576 C588 1.349 . S
C577 C575 1.327 . S
C577 C593 1.429 . S
C577 H599 0.950 . S
C578 H574 0.949 . S
C578 C586 1.574 . S
C578 C594 1.368 . S
H579 C587 0.950 . S
H580 C585 0.950 . S
H581 C586 0.949 . S
H582 C588 0.950 . S
H583 C589 0.950 . S
H584 C590 0.949 . S
C585 H580 0.950 . S
C585 C587 1.327 . S
C585 C591 1.429 . S
C586 C578 1.574 . S
C586 H581 0.949 . S
C586 C592 1.368 . S
C587 C571 1.349 . S
C587 H579 0.950 . S
C587 C585 1.327 . S
C588 C576 1.349 . S
C588 H582 0.950 . S
C588 C589 1.327 . S
C589 H583 0.950 . S
C589 C588 1.327 . S
C589 C593 1.429 . S
C590 C573 1.574 . S
C590 H584 0.949 . S
C590 C594 1.368 . S
C591 C572 1.429 . S
C591 C585 1.429 . S
C591 C592 1.523 . S
C592 C573 1.368 . S
C592 C586 1.368 . S
C592 C591 1.523 . S
C593 C577 1.429 . S
C593 C589 1.429 . S
C593 C594 1.523 . S
C594 C578 1.368 . S
C594 C590 1.368 . S
C594 C593 1.523 . S
H595 C570 0.950 . S
H596 C572 0.950 . S
H597 C573 0.949 . S
H598 C575 0.950 . S
H599 C577 0.950 . S
C600 C601 1.349 . S
C600 C602 1.327 . S
C600 H625 0.950 . S
C601 C600 1.349 . S
C601 C617 1.349 . S
C602 C600 1.327 . S
C602 C621 1.429 . S
C602 H626 0.950 . S
C603 C620 1.571 1_655 S
C603 C622 1.375 . S
C603 H627 0.945 1_655 S
H604 C608 0.949 . S
C605 C606 1.349 . S
C605 C607 1.327 . S
C605 H628 0.950 . S
C606 C605 1.349 . S
C606 C618 1.349 1_455 S
C607 C605 1.327 . S
C607 C623 1.429 . S
C607 H629 0.950 . S
C608 H604 0.949 . S
C608 C616 1.574 . S
C608 C624 1.368 . S
H609 C617 0.950 1_554 S
H610 C615 0.950 . S
H611 C616 0.949 . S
H612 C618 0.950 . S
H613 C619 0.950 . S
H614 C620 0.949 . S
C615 H610 0.950 . S
C615 C617 1.327 . S
C615 C621 1.429 . S
C616 C608 1.574 . S
C616 H611 0.949 . S
C616 C622 1.368 . S
C617 C601 1.349 . S
C617 H609 0.950 1_556 S
C617 C615 1.327 . S
C618 C606 1.349 1_655 S
C618 H612 0.950 . S
C618 C619 1.327 . S
C619 H613 0.950 . S
C619 C618 1.327 . S
C619 C623 1.429 1_655 S
C620 C603 1.571 1_455 S
C620 H614 0.949 . S
C620 C624 1.368 1_455 S
C621 C602 1.429 . S
C621 C615 1.429 . S
C621 C622 1.523 . S
C622 C603 1.375 . S
C622 C616 1.368 . S
C622 C621 1.523 . S
C623 C607 1.429 . S
C623 C619 1.429 1_455 S
C623 C624 1.523 1_455 S
C624 C608 1.368 . S
C624 C620 1.368 1_655 S
C624 C623 1.523 1_655 S
H625 C600 0.950 . S
H626 C602 0.950 . S
H627 C603 0.945 1_455 S
H628 C605 0.950 . S
H629 C607 0.950 . S
C630 C631 1.350 1_565 S
C630 C632 1.327 . S
C630 H655 0.950 . S
C631 C630 1.350 1_545 S
C631 C647 1.348 1_554 S
C632 C630 1.327 . S
C632 C651 1.429 1_564 S
C632 H656 0.950 . S
C633 C650 1.574 . S
C633 C652 1.368 . S
C633 H657 0.949 . S
H634 C638 0.949 . S
C635 C636 1.349 . S
C635 C637 1.327 . S
C635 H658 0.950 . S
C636 C635 1.349 . S
C636 C648 1.349 1_545 S
C637 C635 1.327 . S
C637 C653 1.429 . S
C637 H659 0.950 . S
C638 H634 0.949 . S
C638 C646 1.574 . S
C638 C654 1.368 1_565 S
H639 C647 0.950 . S
H640 C645 0.950 . S
H641 C646 0.949 . S
H642 C648 0.950 . S
H643 C649 0.950 . S
H644 C650 0.949 . S
C645 H640 0.950 . S
C645 C647 1.327 . S
C645 C651 1.429 . S
C646 C638 1.574 . S
C646 H641 0.949 . S
C646 C652 1.368 1_565 S
C647 C631 1.348 1_556 S
C647 H639 0.950 . S
C647 C645 1.327 . S
C648 C636 1.349 1_565 S
C648 H642 0.950 . S
C648 C649 1.327 . S
C649 H643 0.950 . S
C649 C648 1.327 . S
C649 C653 1.429 1_565 S
C650 C633 1.574 . S
C650 H644 0.949 . S
C650 C654 1.368 . S
C651 C632 1.429 1_546 S
C651 C645 1.429 . S
C651 C652 1.523 . S
C652 C633 1.368 . S
C652 C646 1.368 1_545 S
C652 C651 1.523 . S
C653 C637 1.429 . S
C653 C649 1.429 1_545 S
C653 C654 1.523 . S
C654 C638 1.368 1_545 S
C654 C650 1.368 . S
C654 C653 1.523 . S
H655 C630 0.950 . S
H656 C632 0.950 . S
H657 C633 0.949 . S
H658 C635 0.950 . S
H659 C637 0.950 . S
C660 C661 1.349 1_556 S
C660 C662 1.327 . S
C660 H685 0.950 . S
C661 C660 1.349 1_554 S
C661 C677 1.349 . S
C662 C660 1.327 . S
C662 C681 1.429 . S
C662 H686 0.950 . S
C663 C680 1.574 . S
C663 C682 1.368 . S
C663 H687 0.949 1_556 S
H664 C668 0.949 . S
C665 C666 1.349 . S
C665 C667 1.327 . S
C665 H688 0.950 . S
C666 C665 1.349 . S
C666 C678 1.349 . S
C667 C665 1.327 . S
C667 C683 1.429 . S
C667 H689 0.950 . S
C668 H664 0.949 . S
C668 C676 1.574 . S
C668 C684 1.368 . S
H669 C677 0.950 . S
H670 C675 0.950 . S
H671 C676 0.949 . S
H672 C678 0.950 . S
H673 C679 0.950 . S
H674 C680 0.949 . S
C675 H670 0.950 . S
C675 C677 1.327 . S
C675 C681 1.429 1_554 S
C676 C668 1.574 . S
C676 H671 0.949 . S
C676 C682 1.368 . S
C677 C661 1.349 . S
C677 H669 0.950 . S
C677 C675 1.327 . S
C678 C666 1.349 . S
C678 H672 0.950 . S
C678 C679 1.327 . S
C679 H673 0.950 . S
C679 C678 1.327 . S
C679 C683 1.429 . S
C680 C663 1.574 . S
C680 H674 0.949 . S
C680 C684 1.368 . S
C681 C662 1.429 . S
C681 C675 1.429 1_556 S
C681 C682 1.523 . S
C682 C663 1.368 . S
C682 C676 1.368 . S
C682 C681 1.523 . S
C683 C667 1.429 . S
C683 C679 1.429 . S
C683 C684 1.523 . S
C684 C668 1.368 . S
C684 C680 1.368 . S
C684 C683 1.523 . S
H685 C660 0.950 . S
H686 C662 0.950 . S
H687 C663 0.949 1_554 S
H688 C665 0.950 . S
H689 C667 0.950 . S
C690 C691 1.349 . S
C690 C692 1.327 . S
C690 H715 0.950 . S
C691 C690 1.349 . S
C691 C707 1.349 . S
C692 C690 1.327 . S
C692 C711 1.429 . S
C692 H716 0.950 . S
C693 C710 1.574 . S
C693 C712 1.368 . S
C693 H717 0.949 . S
H694 C698 0.949 . S
C695 C696 1.349 . S
C695 C697 1.327 . S
C695 H718 0.950 . S
C696 C695 1.349 . S
C696 C708 1.349 . S
C697 C695 1.327 . S
C697 C713 1.429 . S
C697 H719 0.950 . S
C698 H694 0.949 . S
C698 C706 1.574 . S
C698 C714 1.368 . S
H699 C707 0.950 . S
H700 C705 0.950 1_556 S
H701 C706 0.949 1_554 S
H702 C708 0.950 . S
H703 C709 0.950 . S
H704 C710 0.949 . S
C705 H700 0.950 1_554 S
C705 C707 1.327 . S
C705 C711 1.429 . S
C706 C698 1.574 . S
C706 H701 0.949 1_556 S
C706 C712 1.368 . S
C707 C691 1.349 . S
C707 H699 0.950 . S
C707 C705 1.327 . S
C708 C696 1.349 . S
C708 H702 0.950 . S
C708 C709 1.327 . S
C709 H703 0.950 . S
C709 C708 1.327 . S
C709 C713 1.429 . S
C710 C693 1.574 . S
C710 H704 0.949 . S
C710 C714 1.368 . S
C711 C692 1.429 . S
C711 C705 1.429 . S
C711 C712 1.523 1_554 S
C712 C693 1.368 . S
C712 C706 1.368 . S
C712 C711 1.523 1_556 S
C713 C697 1.429 . S
C713 C709 1.429 . S
C713 C714 1.523 . S
C714 C698 1.368 . S
C714 C710 1.368 . S
C714 C713 1.523 . S
H715 C690 0.950 . S
H716 C692 0.950 . S
H717 C693 0.949 . S
H718 C695 0.950 . S
H719 C697 0.950 . S
C720 C721 1.349 . S
C720 C722 1.327 . S
C720 H745 0.950 . S
C721 C720 1.349 . S
C721 C737 1.349 . S
C722 C720 1.327 . S
C722 C741 1.429 . S
C722 H746 0.950 . S
C723 C740 1.574 . S
C723 C742 1.368 . S
C723 H747 0.949 . S
H724 C728 0.949 . S
C725 C726 1.349 . S
C725 C727 1.327 . S
C725 H748 0.950 . S
C726 C725 1.349 . S
C726 C738 1.349 1_556 S
C727 C725 1.327 . S
C727 C743 1.429 1_556 S
C727 H749 0.950 . S
C728 H724 0.949 . S
C728 C736 1.574 . S
C728 C744 1.368 . S
H729 C737 0.950 . S
H730 C735 0.950 . S
H731 C736 0.949 . S
H732 C738 0.950 . S
H733 C739 0.950 . S
H734 C740 0.949 . S
C735 H730 0.950 . S
C735 C737 1.327 . S
C735 C741 1.429 . S
C736 C728 1.574 . S
C736 H731 0.949 . S
C736 C742 1.368 . S
C737 C721 1.349 . S
C737 H729 0.950 . S
C737 C735 1.327 . S
C738 C726 1.349 1_554 S
C738 H732 0.950 . S
C738 C739 1.327 . S
C739 H733 0.950 . S
C739 C738 1.327 . S
C739 C743 1.429 . S
C740 C723 1.574 . S
C740 H734 0.949 . S
C740 C744 1.368 . S
C741 C722 1.429 . S
C741 C735 1.429 . S
C741 C742 1.523 . S
C742 C723 1.368 . S
C742 C736 1.368 . S
C742 C741 1.523 . S
C743 C727 1.429 1_554 S
C743 C739 1.429 . S
C743 C744 1.523 . S
C744 C728 1.368 . S
C744 C740 1.368 . S
C744 C743 1.523 . S
H745 C720 0.950 . S
H746 C722 0.950 . S
H747 C723 0.949 . S
H748 C725 0.950 . S
H749 C727 0.950 . S
C750 C751 1.334 1_565 S
C750 C752 1.327 . S
C750 H775 0.950 . S
C751 C750 1.334 1_545 S
C751 C767 1.363 . S
C752 C750 1.327 . S
C752 C771 1.429 1_565 S
C752 H776 0.950 . S
C753 C770 1.574 . S
C753 C772 1.368 . S
C753 H777 0.949 . S
H754 C758 0.949 . S
C755 C756 1.349 . S
C755 C757 1.327 . S
C755 H778 0.950 . S
C756 C755 1.349 . S
C756 C768 1.349 1_545 S
C757 C755 1.327 . S
C757 C773 1.429 . S
C757 H779 0.950 . S
C758 H754 0.949 . S
C758 C766 1.574 1_556 S
C758 C774 1.368 1_565 S
H759 C767 0.950 . S
H760 C765 0.950 . S
H761 C766 0.949 . S
H762 C768 0.950 . S
H763 C769 0.950 . S
H764 C770 0.949 . S
C765 H760 0.950 . S
C765 C767 1.327 . S
C765 C771 1.429 . S
C766 C758 1.574 1_554 S
C766 H761 0.949 . S
C766 C772 1.368 1_565 S
C767 C751 1.363 . S
C767 H759 0.950 . S
C767 C765 1.327 . S
C768 C756 1.349 1_565 S
C768 H762 0.950 . S
C768 C769 1.327 . S
C769 H763 0.950 . S
C769 C768 1.327 . S
C769 C773 1.429 1_565 S
C770 C753 1.574 . S
C770 H764 0.949 . S
C770 C774 1.368 1_554 S
C771 C752 1.429 1_545 S
C771 C765 1.429 . S
C771 C772 1.523 . S
C772 C753 1.368 . S
C772 C766 1.368 1_545 S
C772 C771 1.523 . S
C773 C757 1.429 . S
C773 C769 1.429 1_545 S
C773 C774 1.523 . S
C774 C758 1.368 1_545 S
C774 C770 1.368 1_556 S
C774 C773 1.523 . S
H775 C750 0.950 . S
H776 C752 0.950 . S
H777 C753 0.949 . S
H778 C755 0.950 . S
H779 C757 0.950 . S
C780 C781 1.349 . S
C780 C782 1.327 . S
C780 H805 0.950 . S
C781 C780 1.349 . S
C781 C797 1.349 . S
C782 C780 1.327 . S
C782 C801 1.429 . S
C782 H806 0.950 . S
C783 C800 1.574 1_554 S
C783 C802 1.368 . S
C783 H807 0.949 . S
H784 C788 0.949 . S
C785 C786 1.349 . S
C785 C787 1.327 . S
C785 H808 0.950 . S
C786 C785 1.349 . S
C786 C798 1.349 . S
C787 C785 1.327 . S
C787 C803 1.429 . S
C787 H809 0.950 . S
C788 H784 0.949 . S
C788 C796 1.574 . S
C788 C804 1.368 1_554 S
H789 C797 0.950 . S
H790 C795 0.950 . S
H791 C796 0.949 . S
H792 C798 0.950 . S
H793 C799 0.950 . S
H794 C800 0.949 . S
C795 H790 0.950 . S
C795 C797 1.327 . S
C795 C801 1.429 . S
C796 C788 1.574 . S
C796 H791 0.949 . S
C796 C802 1.368 . S
C797 C781 1.349 . S
C797 H789 0.950 . S
C797 C795 1.327 . S
C798 C786 1.349 . S
C798 H792 0.950 . S
C798 C799 1.327 . S
C799 H793 0.950 . S
C799 C798 1.327 . S
C799 C803 1.429 . S
C800 C783 1.574 1_556 S
C800 H794 0.949 . S
C800 C804 1.368 . S
C801 C782 1.429 . S
C801 C795 1.429 . S
C801 C802 1.523 . S
C802 C783 1.368 . S
C802 C796 1.368 . S
C802 C801 1.523 . S
C803 C787 1.429 . S
C803 C799 1.429 . S
C803 C804 1.523 . S
C804 C788 1.368 1_556 S
C804 C800 1.368 . S
C804 C803 1.523 . S
H805 C780 0.950 . S
H806 C782 0.950 . S
H807 C783 0.949 . S
H808 C785 0.950 . S
H809 C787 0.950 . S
C810 C811 1.349 . S
C810 C812 1.327 . S
C810 H835 0.950 . S
C811 C810 1.349 . S
C811 C827 1.349 . S
C812 C810 1.327 . S
C812 C831 1.429 . S
C812 H836 0.950 . S
C813 C830 1.574 1_554 S
C813 C832 1.368 . S
C813 H837 0.949 . S
H814 C818 0.949 . S
C815 C816 1.349 . S
C815 C817 1.327 . S
C815 H838 0.950 . S
C816 C815 1.349 . S
C816 C828 1.349 . S
C817 C815 1.327 . S
C817 C833 1.429 . S
C817 H839 0.950 . S
C818 H814 0.949 . S
C818 C826 1.574 . S
C818 C834 1.368 1_554 S
H819 C827 0.950 . S
H820 C825 0.950 . S
H821 C826 0.949 . S
H822 C828 0.950 . S
H823 C829 0.950 . S
H824 C830 0.949 . S
C825 H820 0.950 . S
C825 C827 1.327 . S
C825 C831 1.429 . S
C826 C818 1.574 . S
C826 H821 0.949 . S
C826 C832 1.368 . S
C827 C811 1.349 . S
C827 H819 0.950 . S
C827 C825 1.327 . S
C828 C816 1.349 . S
C828 H822 0.950 . S
C828 C829 1.327 . S
C829 H823 0.950 . S
C829 C828 1.327 . S
C829 C833 1.429 . S
C830 C813 1.574 1_556 S
C830 H824 0.949 . S
C830 C834 1.368 . S
C831 C812 1.429 . S
C831 C825 1.429 . S
C831 C832 1.523 . S
C832 C813 1.368 . S
C832 C826 1.368 . S
C832 C831 1.523 . S
C833 C817 1.429 . S
C833 C829 1.429 . S
C833 C834 1.523 . S
C834 C818 1.368 1_556 S
C834 C830 1.368 . S
C834 C833 1.523 . S
H835 C810 0.950 . S
H836 C812 0.950 . S
H837 C813 0.949 . S
H838 C815 0.950 . S
H839 C817 0.950 . S
C840 C841 1.349 . S
C840 C842 1.327 . S
C840 H865 0.950 . S
C841 C840 1.349 . S
C841 C857 1.349 . S
C842 C840 1.327 . S
C842 C861 1.429 . S
C842 H866 0.950 . S
C843 C860 1.574 . S
C843 C862 1.368 . S
C843 H867 0.949 . S
H844 C848 0.949 . S
C845 C846 1.349 . S
C845 C847 1.327 . S
C845 H868 0.950 . S
C846 C845 1.349 . S
C846 C858 1.349 . S
C847 C845 1.327 . S
C847 C863 1.429 . S
C847 H869 0.950 . S
C848 H844 0.949 . S
C848 C856 1.574 . S
C848 C864 1.368 . S
H849 C857 0.950 . S
H850 C855 0.950 . S
H851 C856 0.949 . S
H852 C858 0.950 . S
H853 C859 0.950 . S
H854 C860 0.949 . S
C855 H850 0.950 . S
C855 C857 1.327 . S
C855 C861 1.429 . S
C856 C848 1.574 . S
C856 H851 0.949 . S
C856 C862 1.368 . S
C857 C841 1.349 . S
C857 H849 0.950 . S
C857 C855 1.327 . S
C858 C846 1.349 . S
C858 H852 0.950 . S
C858 C859 1.327 . S
C859 H853 0.950 . S
C859 C858 1.327 . S
C859 C863 1.429 . S
C860 C843 1.574 . S
C860 H854 0.949 . S
C860 C864 1.368 . S
C861 C842 1.429 . S
C861 C855 1.429 . S
C861 C862 1.523 . S
C862 C843 1.368 . S
C862 C856 1.368 . S
C862 C861 1.523 . S
C863 C847 1.429 . S
C863 C859 1.429 . S
C863 C864 1.523 . S
C864 C848 1.368 . S
C864 C860 1.368 . S
C864 C863 1.523 . S
H865 C840 0.950 . S
H866 C842 0.950 . S
H867 C843 0.949 . S
H868 C845 0.950 . S
H869 C847 0.950 . S
C870 C871 1.344 1_545 S
C870 C872 1.327 . S
C870 H895 0.950 . S
C871 C870 1.344 1_565 S
C871 C887 1.353 . S
C872 C870 1.327 . S
C872 C891 1.429 1_545 S
C872 H896 0.950 . S
C873 C890 1.574 . S
C873 C892 1.368 . S
C873 H897 0.949 . S
H874 C878 0.949 . S
C875 C876 1.349 . S
C875 C877 1.327 . S
C875 H898 0.950 . S
C876 C875 1.349 . S
C876 C888 1.349 1_565 S
C877 C875 1.327 . S
C877 C893 1.429 . S
C877 H899 0.950 . S
C878 H874 0.949 . S
C878 C886 1.574 . S
C878 C894 1.368 1_545 S
H879 C887 0.950 . S
H880 C885 0.950 . S
H881 C886 0.949 . S
H882 C888 0.950 . S
H883 C889 0.950 . S
H884 C890 0.949 . S
C885 H880 0.950 . S
C885 C887 1.327 . S
C885 C891 1.429 . S
C886 C878 1.574 . S
C886 H881 0.949 . S
C886 C892 1.368 1_545 S
C887 C871 1.353 . S
C887 H879 0.950 . S
C887 C885 1.327 . S
C888 C876 1.349 1_545 S
C888 H882 0.950 . S
C888 C889 1.327 . S
C889 H883 0.950 . S
C889 C888 1.327 . S
C889 C893 1.429 1_545 S
C890 C873 1.574 . S
C890 H884 0.949 . S
C890 C894 1.368 . S
C891 C872 1.429 1_565 S
C891 C885 1.429 . S
C891 C892 1.523 . S
C892 C873 1.368 . S
C892 C886 1.368 1_565 S
C892 C891 1.523 . S
C893 C877 1.429 . S
C893 C889 1.429 1_565 S
C893 C894 1.523 . S
C894 C878 1.368 1_565 S
C894 C890 1.368 . S
C894 C893 1.523 . S
H895 C870 0.950 . S
H896 C872 0.950 . S
H897 C873 0.949 . S
H898 C875 0.950 . S
H899 C877 0.950 . S
C900 C901 1.349 . S
C900 C902 1.327 . S
C900 H925 0.950 . S
C901 C900 1.349 . S
C901 C917 1.349 . S
C902 C900 1.327 . S
C902 C921 1.429 . S
C902 H926 0.950 . S
C903 C920 1.574 . S
C903 C922 1.368 . S
C903 H927 0.949 . S
H904 C908 0.949 . S
C905 C906 1.349 . S
C905 C907 1.327 . S
C905 H928 0.950 . S
C906 C905 1.349 . S
C906 C918 1.349 . S
C907 C905 1.327 . S
C907 C923 1.429 . S
C907 H929 0.950 . S
C908 H904 0.949 . S
C908 C916 1.574 . S
C908 C924 1.368 . S
H909 C917 0.950 . S
H910 C915 0.950 . S
H911 C916 0.949 . S
H912 C918 0.950 . S
H913 C919 0.950 . S
H914 C920 0.949 . S
C915 H910 0.950 . S
C915 C917 1.327 . S
C915 C921 1.429 . S
C916 C908 1.574 . S
C916 H911 0.949 . S
C916 C922 1.368 . S
C917 C901 1.349 . S
C917 H909 0.950 . S
C917 C915 1.327 . S
C918 C906 1.349 . S
C918 H912 0.950 . S
C918 C919 1.327 . S
C919 H913 0.950 . S
C919 C918 1.327 . S
C919 C923 1.429 . S
C920 C903 1.574 . S
C920 H914 0.949 . S
C920 C924 1.368 . S
C921 C902 1.429 . S
C921 C915 1.429 . S
C921 C922 1.523 . S
C922 C903 1.368 . S
C922 C916 1.368 . S
C922 C921 1.523 . S
C923 C907 1.429 . S
C923 C919 1.429 . S
C923 C924 1.523 . S
C924 C908 1.368 . S
C924 C920 1.368 . S
C924 C923 1.523 . S
H925 C900 0.950 . S
H926 C902 0.950 . S
H927 C903 0.949 . S
H928 C905 0.950 . S
H929 C907 0.950 . S
C930 C931 1.349 . S
C930 C932 1.327 . S
C930 H955 0.950 . S
C931 C930 1.349 . S
C931 C947 1.349 . S
C932 C930 1.327 . S
C932 C951 1.429 . S
C932 H956 0.950 . S
C933 C950 1.574 . S
C933 C952 1.368 . S
C933 H957 0.949 . S
H934 C938 0.949 . S
C935 C936 1.349 . S
C935 C937 1.327 . S
C935 H958 0.950 . S
C936 C935 1.349 . S
C936 C948 1.349 . S
C937 C935 1.327 . S
C937 C953 1.429 . S
C937 H959 0.950 . S
C938 H934 0.949 . S
C938 C946 1.574 . S
C938 C954 1.368 . S
H939 C947 0.950 . S
H940 C945 0.950 . S
H941 C946 0.949 . S
H942 C948 0.950 . S
H943 C949 0.950 . S
H944 C950 0.949 . S
C945 H940 0.950 . S
C945 C947 1.327 . S
C945 C951 1.429 . S
C946 C938 1.574 . S
C946 H941 0.949 . S
C946 C952 1.368 . S
C947 C931 1.349 . S
C947 H939 0.950 . S
C947 C945 1.327 . S
C948 C936 1.349 . S
C948 H942 0.950 . S
C948 C949 1.327 . S
C949 H943 0.950 . S
C949 C948 1.327 . S
C949 C953 1.429 . S
C950 C933 1.574 . S
C950 H944 0.949 . S
C950 C954 1.368 . S
C951 C932 1.429 . S
C951 C945 1.429 . S
C951 C952 1.523 . S
C952 C933 1.368 . S
C952 C946 1.368 . S
C952 C951 1.523 . S
C953 C937 1.429 . S
C953 C949 1.429 . S
C953 C954 1.523 . S
C954 C938 1.368 . S
C954 C950 1.368 . S
C954 C953 1.523 . S
H955 C930 0.950 . S
H956 C932 0.950 . S
H957 C933 0.949 . S
H958 C935 0.950 . S
H959 C937 0.950 . S
C241 N80 1.889 . S
C246 C121 1.898 . S
C276 C142 1.553 . S
C271 N93 1.539 . S
C306 C176 1.328 . S
C301 N54 1.321 . S
C336 C210 1.535 . S
C331 N67 1.528 . S
C366 C112 1.898 . S
C361 N28 1.890 1_545 S
C391 N41 1.549 . S
C396 C151 1.559 . S
C421 N2 1.321 . S
C426 C185 1.328 . S
C451 N15 1.534 . S
C456 C219 1.531 1_655 S
C486 C133 0.236 . S
C481 N70 0.235 . S
C516 C138 0.697 . S
C511 N83 0.697 1_545 S
C546 C172 0.619 . S
C541 N96 0.618 . S
C571 N57 0.179 . S
C576 C206 0.164 . S
C601 N18 0.222 . S
C606 C104 0.240 . S
C636 C167 0.698 . S
C631 N31 0.697 1_545 S
C666 C201 0.619 . S
C661 N44 0.617 . S
C691 N5 0.179 . S
C696 C235 0.164 . S
C721 N66 1.298 . S
C726 C117 1.297 . S
C751 N79 1.748 1_545 S
C756 C146 1.751 . S
C786 C180 1.558 . S
C781 N92 1.553 . S
C816 C214 1.617 . S
C811 N53 1.613 . S
C841 N14 1.304 . S
C846 C108 1.304 . S
C876 C155 1.751 . S
C871 N27 1.746 . S
C906 C189 1.557 . S
C901 N40 1.557 . S
C931 N1 1.609 . S
C936 C223 1.617 . S
