# Generated by pormake.
# Topology anh, (6,3)-cn, num edge types: 1
# Building blocks:
#     Node 0, Type 0, BuildingBlock: CUKXOW_clean_sbu_0, # of connection points: 6
#     Node 1, Type 0, BuildingBlock: CUKXOW_clean_sbu_0, # of connection points: 6
#     Node 2, Type 0, BuildingBlock: CUKXOW_clean_sbu_0, # of connection points: 6
#     Node 3, Type 1, BuildingBlock: VETTIZ_charged_linker_0, # of connection points: 3
#     Node 4, Type 1, BuildingBlock: VETTIZ_charged_linker_0, # of connection points: 3
#     Node 5, Type 1, BuildingBlock: VETTIZ_charged_linker_0, # of connection points: 3
#     Node 6, Type 1, BuildingBlock: VETTIZ_charged_linker_0, # of connection points: 3
#     Node 7, Type 1, BuildingBlock: VETTIZ_charged_linker_0, # of connection points: 3
#     Node 8, Type 1, BuildingBlock: VETTIZ_charged_linker_0, # of connection points: 3
#     Edge 9, Type (0, 1), BuildingBlock: ZUJKAS_clean_linker_0, # of connection points: 2
#     Edge 10, Type (0, 1), BuildingBlock: ZUJKAS_clean_linker_0, # of connection points: 2
#     Edge 11, Type (0, 1), BuildingBlock: ZUJKAS_clean_linker_0, # of connection points: 2
#     Edge 12, Type (0, 1), BuildingBlock: ZUJKAS_clean_linker_0, # of connection points: 2
#     Edge 13, Type (0, 1), BuildingBlock: ZUJKAS_clean_linker_0, # of connection points: 2
#     Edge 14, Type (0, 1), BuildingBlock: ZUJKAS_clean_linker_0, # of connection points: 2
#     Edge 15, Type (0, 1), BuildingBlock: ZUJKAS_clean_linker_0, # of connection points: 2
#     Edge 16, Type (0, 1), BuildingBlock: ZUJKAS_clean_linker_0, # of connection points: 2
#     Edge 17, Type (0, 1), BuildingBlock: ZUJKAS_clean_linker_0, # of connection points: 2
#     Edge 18, Type (0, 1), BuildingBlock: ZUJKAS_clean_linker_0, # of connection points: 2
#     Edge 19, Type (0, 1), BuildingBlock: ZUJKAS_clean_linker_0, # of connection points: 2
#     Edge 20, Type (0, 1), BuildingBlock: ZUJKAS_clean_linker_0, # of connection points: 2
#     Edge 21, Type (0, 1), BuildingBlock: ZUJKAS_clean_linker_0, # of connection points: 2
#     Edge 22, Type (0, 1), BuildingBlock: ZUJKAS_clean_linker_0, # of connection points: 2
#     Edge 23, Type (0, 1), BuildingBlock: ZUJKAS_clean_linker_0, # of connection points: 2
#     Edge 24, Type (0, 1), BuildingBlock: ZUJKAS_clean_linker_0, # of connection points: 2
#     Edge 25, Type (0, 1), BuildingBlock: ZUJKAS_clean_linker_0, # of connection points: 2
#     Edge 26, Type (0, 1), BuildingBlock: ZUJKAS_clean_linker_0, # of connection points: 2
# Relax obj value: 0.136
# Max RMSD: 0.196
# Mean RMSD: 0.141
data_MOF--net-anh--node1-CUKXOW_clean_sbu_0--node2-VETTIZ_charged_linker_0--edge1-ZUJKAS_clean_linker_0
_symmetry_space_group_name_H-M    P1
_symmetry_Int_Tables_number       1
_symmetry_cell_setting            triclinic
loop_
_symmetry_equiv_pos_as_xyz
'x, y, z'
_cell_length_a     43.55827
_cell_length_b     42.3961
_cell_length_c     81.099002
_cell_angle_alpha  95.606697
_cell_angle_beta   90.095125
_cell_angle_gamma 116.15244
loop_
_atom_site_label
_atom_site_type_symbol
_atom_site_fract_x
_atom_site_fract_y
_atom_site_fract_z
_atom_type_partial_charge
Tb0 Tb 0.07156 0.52861 0.15431 0.0
C1 C 0.04247 0.4955 0.18722 0.0
Tb2 Tb 0.02078 0.44581 0.15281 0.0
O3 O 0.03109 0.54714 0.155 0.0
O4 O 0.01873 0.49461 0.15323 0.0
O5 O 0.0676 0.52154 0.1805 0.0
C6 C 0.96351 0.38572 0.15211 0.0
O7 O 0.0193 0.46644 0.17843 0.0
C8 C 0.08688 0.45868 0.1539 0.0
C9 C 0.04892 0.47975 0.11982 0.0
O10 O 0.98743 0.39818 0.16387 0.0
O11 O 0.97204 0.40691 0.14059 0.0
O12 O 0.06122 0.42733 0.15344 0.0
O13 O 0.07355 0.4797 0.15372 0.0
O14 O 0.02459 0.45307 0.12657 0.0
O15 O 0.07192 0.50898 0.12852 0.0
C16 C 0.12836 0.58903 0.15487 0.0
O17 O 0.10217 0.57879 0.14449 0.0
O18 O 0.12246 0.56536 0.16505 0.0
C19 C 1.00539 0.51573 0.15398 0.0
Tb20 Tb 0.4996 0.00969 0.50327 0.0
C21 C 0.53445 0.03577 0.47044 0.0
Tb22 Tb 0.57776 0.06552 0.50458 0.0
O23 O 0.48371 0.04844 0.49534 0.0
O24 O 0.52942 0.0652 0.50928 0.0
O25 O 0.51108 0.00845 0.47722 0.0
C26 C 0.63478 0.12602 0.50535 0.0
O27 O 0.55902 0.06345 0.47933 0.0
C28 C 0.56928 0.9991 0.50169 0.0
C29 C 0.54546 0.03418 0.53742 0.0
O30 O 0.62656 0.09873 0.49444 0.0
O31 O 0.61093 0.11924 0.51592 0.0
O32 O 0.59918 0.02637 0.50294 0.0
O33 O 0.54784 0.0113 0.50197 0.0
O34 O 0.57163 0.05936 0.53078 0.0
O35 O 0.51687 0.01123 0.52885 0.0
C36 C 0.44037 0.95285 0.50505 0.0
O37 O 0.44907 0.98355 0.51341 0.0
O38 O 0.46491 0.95427 0.4956 0.0
C39 C 0.51161 0.0757 0.50116 0.0
Tb40 Tb 0.53696 0.5403 0.83235 0.0
C41 C 0.57544 0.5416 0.86588 0.0
Tb42 Tb 0.6155 0.55042 0.83252 0.0
O43 O 0.51294 0.4815 0.83112 0.0
O44 O 0.56483 0.51124 0.83166 0.0
O45 O 0.55067 0.54684 0.85877 0.0
C46 C 0.66613 0.53237 0.82826 0.0
O47 O 0.60037 0.53794 0.85764 0.0
C48 C 0.60953 0.61052 0.83493 0.0
C49 C 0.5779 0.55098 0.79901 0.0
O50 O 0.66575 0.5554 0.84002 0.0
O51 O 0.63816 0.51972 0.81895 0.0
O52 O 0.639 0.60949 0.83586 0.0
O53 O 0.58747 0.57903 0.83257 0.0
O54 O 0.60357 0.54737 0.80613 0.0
O55 O 0.55186 0.55227 0.80716 0.0
C56 C 0.4863 0.55874 0.83328 0.0
O57 O 0.48909 0.53639 0.82193 0.0
O58 O 0.51151 0.56989 0.84434 0.0
C59 C 0.54224 0.47998 0.83124 0.0
C60 C 0.61485 0.10102 0.18954 0.0
C61 C 0.6431 0.13024 0.19776 0.0
C62 C 0.64417 0.13613 0.21522 0.0
C63 C 0.58992 0.08447 0.21598 0.0
C64 C 0.5887 0.07852 0.19888 0.0
C65 C 0.55728 0.04573 0.19224 0.0
H66 H 0.41434 0.90112 0.20821 0.0
C67 C 0.55925 0.05606 0.22203 0.0
C68 C 0.53993 0.0332 0.20818 0.0
H69 H 0.4538 0.93006 0.16028 0.0
H70 H 0.49979 0.98427 0.17344 0.0
H71 H 0.48622 0.92295 0.22702 0.0
H72 H 0.42334 0.97656 0.22237 0.0
H73 H 0.44209 0.98981 0.24257 0.0
H74 H 0.41408 0.9437 0.23642 0.0
H75 H 0.44629 0.91085 0.23685 0.0
H76 H 0.48601 0.94397 0.24676 0.0
C77 C 0.56911 0.01931 0.18329 0.0
C78 C 0.5356 0.05668 0.18105 0.0
C79 C 0.54259 0.05334 0.28404 0.0
C80 C 0.51679 0.02997 0.29334 0.0
C81 C 0.48837 1.00126 0.28492 0.0
C82 C 0.4859 0.99556 0.26758 0.0
C83 C 0.51216 0.01873 0.25847 0.0
C84 C 0.53968 0.04729 0.26669 0.0
C85 C 0.56489 0.06932 0.25491 0.0
C86 C 0.54799 0.04909 0.23829 0.0
C87 C 0.51732 0.01941 0.2405 0.0
C88 C 0.59956 0.06857 0.25841 0.0
C89 C 0.56639 0.10672 0.25706 0.0
C90 C 0.43307 0.91898 0.20055 0.0
C91 C 0.43089 0.91114 0.18325 0.0
C92 C 0.45512 0.93556 0.17366 0.0
C93 C 0.48183 0.96685 0.18133 0.0
C94 C 0.48416 0.97379 0.19874 0.0
C95 C 0.45965 0.95019 0.20798 0.0
C96 C 0.46545 0.96181 0.22625 0.0
C97 C 0.49796 0.99603 0.22658 0.0
C98 C 0.509 1.00294 0.21048 0.0
C99 C 0.4711 0.9335 0.23481 0.0
C100 C 0.43467 0.96813 0.23237 0.0
H101 H 0.62032 0.11954 0.23756 0.0
H102 H 0.61304 0.09577 0.17615 0.0
H103 H 0.53654 0.08241 0.18622 0.0
H104 H 0.50815 0.03786 0.18021 0.0
H105 H 0.54528 0.05968 0.16836 0.0
H106 H 0.59148 0.01985 0.19019 0.0
H107 H 0.57693 0.02602 0.17057 0.0
H108 H 0.54944 0.99161 0.18254 0.0
H109 H 0.56456 0.07589 0.29013 0.0
H110 H 0.46834 0.98264 0.29178 0.0
H111 H 0.46381 0.973 0.26197 0.0
H112 H 0.59549 0.0425 0.26217 0.0
H113 H 0.61492 0.08914 0.2686 0.0
H114 H 0.61505 0.07188 0.24737 0.0
H115 H 0.54079 0.10527 0.25976 0.0
H116 H 0.57351 0.12025 0.24571 0.0
H117 H 0.58452 0.12365 0.26749 0.0
H118 H 0.66587 0.15786 0.22196 0.0
C119 C 0.61776 0.11359 0.22433 0.0
C120 C 0.5372 0.62779 0.51891 0.0
C121 C 0.53464 0.65715 0.52748 0.0
C122 C 0.53533 0.66047 0.54492 0.0
C123 C 0.54216 0.60693 0.54523 0.0
C124 C 0.54046 0.60264 0.52808 0.0
C125 C 0.54191 0.56865 0.52142 0.0
H126 H 0.56339 0.42489 0.53958 0.0
C127 C 0.54692 0.57759 0.55125 0.0
C128 C 0.54667 0.55464 0.53741 0.0
H129 H 0.54196 0.44587 0.49094 0.0
H130 H 0.54105 0.50054 0.50298 0.0
H131 H 0.61729 0.50238 0.55215 0.0
H132 H 0.50937 0.44282 0.55719 0.0
H133 H 0.5256 0.46756 0.57649 0.0
H134 H 0.54081 0.43599 0.56863 0.0
H135 H 0.60025 0.46966 0.56638 0.0
H136 H 0.60984 0.51533 0.57235 0.0
C137 C 0.57302 0.57775 0.51049 0.0
C138 C 0.50736 0.54395 0.51209 0.0
C139 C 0.56527 0.5779 0.61334 0.0
C140 C 0.57242 0.5554 0.62265 0.0
C141 C 0.57529 0.52613 0.61432 0.0
C142 C 0.57101 0.51924 0.59706 0.0
C143 C 0.56381 0.54185 0.58788 0.0
C144 C 0.56128 0.57072 0.59601 0.0
C145 C 0.55426 0.59217 0.58413 0.0
C146 C 0.55263 0.57111 0.56756 0.0
C147 C 0.5581 0.54172 0.56991 0.0
C148 C 0.58513 0.62942 0.58579 0.0
C149 C 0.51927 0.59188 0.58803 0.0
C150 C 0.55897 0.44137 0.5314 0.0
C151 C 0.55329 0.43128 0.51428 0.0
C152 C 0.54652 0.45312 0.50421 0.0
C153 C 0.54594 0.48476 0.51122 0.0
C154 C 0.55163 0.49429 0.52851 0.0
C155 C 0.55785 0.47237 0.53817 0.0
C156 C 0.56219 0.48501 0.55626 0.0
C157 C 0.55735 0.51813 0.55612 0.0
C158 C 0.55144 0.52409 0.53988 0.0
C159 C 0.59914 0.49337 0.56225 0.0
C160 C 0.53328 0.45646 0.56525 0.0
H161 H 0.53975 0.64024 0.56704 0.0
H162 H 0.53633 0.62438 0.50548 0.0
H163 H 0.4857 0.54501 0.51898 0.0
H164 H 0.50237 0.51596 0.51088 0.0
H165 H 0.50618 0.5519 0.49954 0.0
H166 H 0.59628 0.59957 0.517 0.0
H167 H 0.56846 0.58644 0.49863 0.0
H168 H 0.57917 0.55527 0.50761 0.0
H169 H 0.56316 0.60076 0.61938 0.0
H170 H 0.58027 0.50811 0.62123 0.0
H171 H 0.5733 0.49638 0.59157 0.0
H172 H 0.60957 0.6277 0.58792 0.0
H173 H 0.58264 0.64663 0.59641 0.0
H174 H 0.58876 0.64287 0.57446 0.0
H175 H 0.50186 0.56714 0.59323 0.0
H176 H 0.505 0.59229 0.57682 0.0
H177 H 0.52249 0.61442 0.59724 0.0
H178 H 0.53369 0.68288 0.55179 0.0
C179 C 0.53911 0.63572 0.55379 0.0
C180 C 0.1855 0.62947 0.85729 0.0
C181 C 0.2164 0.63642 0.86574 0.0
C182 C 0.21556 0.62921 0.88243 0.0
C183 C 0.15368 0.60345 0.88092 0.0
C184 C 0.15458 0.61231 0.86491 0.0
C185 C 0.11951 0.59753 0.85656 0.0
H186 H 0.94961 0.49419 0.85815 0.0
C187 C 0.11756 0.58174 0.8844 0.0
C188 C 0.09748 0.57799 0.87012 0.0
H189 H 1.00543 0.55223 0.81837 0.0
H190 H 0.05831 0.57481 0.83503 0.0
H191 H 1.00742 0.46799 0.8698 0.0
H192 H 0.98371 0.55425 0.88552 0.0
H193 H 0.99935 0.54493 0.90343 0.0
H194 H 0.96058 0.51161 0.89262 0.0
H195 H 0.96856 0.46291 0.87936 0.0
H196 H 1.00659 0.47207 0.89161 0.0
C197 C 0.11795 0.57204 0.84111 0.0
C198 C 0.11254 0.62892 0.8527 0.0
C199 C 0.08703 0.53207 0.9399 0.0
C200 C 0.05556 0.51186 0.94667 0.0
C201 C 0.02495 0.50114 0.93709 0.0
C202 C 0.02563 0.51012 0.92089 0.0
C203 C 0.05725 0.5303 0.91424 0.0
C204 C 0.08724 0.54131 0.92377 0.0
C205 C 0.11831 0.56374 0.91483 0.0
C206 C 0.10193 0.5645 0.89842 0.0
C207 C 0.06627 0.54435 0.89808 0.0
C208 C 0.1412 0.54428 0.91268 0.0
C209 C 0.13596 0.60089 0.92473 0.0
C210 C 0.97339 0.51099 0.85287 0.0
C211 C 0.97362 0.52096 0.83684 0.0
C212 C 1.00481 0.54404 0.83065 0.0
C213 C 0.03539 0.55717 0.84037 0.0
C214 C 0.03469 0.5472 0.85646 0.0
C215 C 1.00403 0.52454 0.86246 0.0
C216 C 1.00781 0.5182 0.88009 0.0
C217 C 0.04603 0.54015 0.88357 0.0
C218 C 0.06158 0.55696 0.86969 0.0
C219 C 0.9969 0.47821 0.88039 0.0
C220 C 0.98668 0.53269 0.89106 0.0
H221 H 0.18548 0.60711 0.90256 0.0
H222 H 0.18508 0.63501 0.84455 0.0
H223 H 0.1235 0.65104 0.86285 0.0
H224 H 0.08497 0.62206 0.8518 0.0
H225 H 0.12432 0.63928 0.84105 0.0
H226 H 0.13455 0.55884 0.84318 0.0
H227 H 0.12679 0.58645 0.83 0.0
H228 H 0.0922 0.55002 0.8382 0.0
H229 H 0.1109 0.54108 0.94712 0.0
H230 H 1.00046 0.48551 0.94211 0.0
H231 H 1.00149 0.501 0.91419 0.0
H232 H 0.12539 0.5151 0.91092 0.0
H233 H 0.15874 0.55057 0.92376 0.0
H234 H 0.15638 0.55027 0.90153 0.0
H235 H 0.11658 0.60904 0.92992 0.0
H236 H 0.15146 0.62181 0.91699 0.0
H237 H 0.15242 0.60115 0.93527 0.0
H238 H 0.23872 0.63375 0.8893 0.0
C239 C 0.18443 0.61305 0.89008 0.0
C240 C 0.93786 0.46138 0.46788 0.0
C241 C 0.9104 0.43175 0.45947 0.0
C242 C 0.90749 0.42844 0.442 0.0
C243 C 0.95969 0.48252 0.44154 0.0
C244 C 0.96219 0.48633 0.45868 0.0
C245 C 0.99362 0.51885 0.46554 0.0
H246 H 0.14153 0.65911 0.4509 0.0
C247 C 0.98965 0.51206 0.43567 0.0
C248 C 1.00965 0.53357 0.44967 0.0
H249 H 0.10103 0.62836 0.49848 0.0
H250 H 0.05053 0.57974 0.48473 0.0
H251 H 0.12245 0.58176 0.43384 0.0
H252 H 0.07161 0.64865 0.43393 0.0
H253 H 0.06516 0.6268 0.41378 0.0
H254 H 0.10817 0.65574 0.4219 0.0
H255 H 0.13721 0.61985 0.42264 0.0
H256 H 0.10592 0.57707 0.41353 0.0
C257 C 0.01642 0.50698 0.47542 0.0
C258 C 0.98195 0.54393 0.47589 0.0
C259 C 1.00662 0.51705 0.37377 0.0
C260 C 0.03278 0.54039 0.36463 0.0
C261 C 0.06038 0.56979 0.37318 0.0
C262 C 0.06217 0.57564 0.39051 0.0
C263 C 0.03616 0.55177 0.39949 0.0
C264 C 1.00887 0.52321 0.39112 0.0
C265 C 0.98376 0.50054 0.40275 0.0
C266 C 1.00051 0.52027 0.41947 0.0
C267 C 0.03119 0.55012 0.41746 0.0
C268 C 0.98265 0.46331 0.40021 0.0
C269 C 0.94892 0.50101 0.39943 0.0
C270 C 0.12194 0.64172 0.45838 0.0
C271 C 0.12542 0.6472 0.47578 0.0
C272 C 0.09889 0.62458 0.48505 0.0
C273 C 0.06971 0.59633 0.47704 0.0
C274 C 0.06703 0.59078 0.45959 0.0
C275 C 0.09277 0.61362 0.45061 0.0
C276 C 0.08566 0.60433 0.43222 0.0
C277 C 0.05147 0.57188 0.43155 0.0
C278 C 0.04069 0.56386 0.44759 0.0
C279 C 0.11427 0.59548 0.42503 0.0
C280 C 0.08269 0.63543 0.42493 0.0
H281 H 0.92827 0.44938 0.41976 0.0
H282 H 0.94087 0.46461 0.48129 0.0
H283 H 0.95794 0.54248 0.47031 0.0
H284 H 1.00063 0.57202 0.4763 0.0
H285 H 0.97689 0.53679 0.48877 0.0
H286 H 0.01654 0.48268 0.4689 0.0
H287 H 1.00681 0.50094 0.48797 0.0
H288 H 0.04353 0.52666 0.47672 0.0
H289 H 0.98522 0.49404 0.3676 0.0
H290 H 0.08059 0.58846 0.36642 0.0
H291 H 0.08391 0.59843 0.39624 0.0
H292 H 1.00844 0.4652 0.39757 0.0
H293 H 0.96486 0.44676 0.3896 0.0
H294 H 0.97536 0.44909 0.41134 0.0
H295 H 0.95271 0.52709 0.39581 0.0
H296 H 0.93358 0.49738 0.41055 0.0
H297 H 0.93356 0.48053 0.38921 0.0
H298 H 0.88621 0.40624 0.43524 0.0
C299 C 0.93189 0.45362 0.43302 0.0
C300 C 0.56884 0.94903 0.81815 0.0
C301 C 0.56552 0.91682 0.80969 0.0
C302 C 0.56201 0.912 0.79226 0.0
C303 C 0.56549 0.97044 0.79175 0.0
C304 C 0.56825 0.97538 0.8089 0.0
C305 C 0.56968 0.0108 0.81545 0.0
H306 H 0.56424 0.16264 0.79655 0.0
C307 C 0.5661 1.00233 0.78561 0.0
C308 C 0.5682 0.02631 0.79939 0.0
H309 H 0.57067 0.13468 0.84569 0.0
H310 H 0.57275 0.08032 0.83384 0.0
H311 H 0.62111 0.14384 0.78291 0.0
H312 H 0.51154 0.08772 0.78014 0.0
H313 H 0.5249 0.0805 0.76032 0.0
H314 H 0.53525 0.12497 0.76901 0.0
H315 H 0.59562 0.15155 0.76792 0.0
H316 H 0.61099 0.11853 0.76352 0.0
C317 C 0.60392 0.03288 0.8255 0.0
C318 C 0.5379 1.00394 0.82566 0.0
C319 C 0.5647 0.00975 0.72328 0.0
C320 C 0.56655 0.03662 0.71385 0.0
C321 C 0.56809 0.06817 0.72204 0.0
C322 C 0.56792 0.07306 0.73932 0.0
C323 C 0.56635 0.04619 0.74864 0.0
C324 C 0.56492 0.01526 0.74063 0.0
C325 C 0.56408 0.99006 0.75267 0.0
C326 C 0.56549 0.01117 0.7692 0.0
C327 C 0.56654 0.04377 0.76669 0.0
C328 C 0.59656 0.9841 0.7505 0.0
C329 C 0.52971 0.95603 0.74946 0.0
C330 C 0.56591 0.14472 0.80478 0.0
C331 C 0.56675 0.15248 0.82197 0.0
C332 C 0.56973 0.12897 0.83233 0.0
C333 C 0.57073 0.09745 0.82544 0.0
C334 C 0.56902 0.08968 0.80803 0.0
C335 C 0.56725 0.11375 0.79816 0.0
C336 C 0.56701 0.10294 0.78005 0.0
C337 C 0.5676 0.06766 0.78041 0.0
C338 C 0.56869 0.05945 0.79677 0.0
C339 C 0.60016 0.13059 0.7731 0.0
C340 C 0.53312 0.09898 0.7718 0.0
H341 H 0.55951 0.93293 0.77007 0.0
H342 H 0.5713 0.95331 0.83157 0.0
H343 H 0.51448 0.98283 0.81893 0.0
H344 H 0.533 0.02734 0.82787 0.0
H345 H 0.54065 0.99523 0.83783 0.0
H346 H 0.62548 0.03151 0.81865 0.0
H347 H 0.60356 0.02282 0.83768 0.0
H348 H 0.61004 0.06116 0.82767 0.0
H349 H 0.56366 0.98527 0.71731 0.0
H350 H 0.56898 0.08901 0.71502 0.0
H351 H 0.56886 0.0976 0.7447 0.0
H352 H 0.61906 0.00914 0.74832 0.0
H353 H 0.59302 0.96434 0.73971 0.0
H354 H 0.60423 0.97568 0.7616 0.0
H355 H 0.50939 0.96163 0.74402 0.0
H356 H 0.51908 0.94443 0.76101 0.0
H357 H 0.53255 0.93575 0.74071 0.0
H358 H 0.55972 0.88767 0.78547 0.0
C359 C 0.56206 0.93848 0.7833 0.0
C360 C 0.63399 0.48613 0.14516 0.0
C361 C 0.66304 0.4862 0.13706 0.0
C362 C 0.66401 0.4871 0.11983 0.0
C363 C 0.60904 0.48867 0.11866 0.0
C364 C 0.60697 0.48723 0.1356 0.0
C365 C 0.57324 0.48674 0.14129 0.0
H366 H 0.42596 0.49956 0.11752 0.0
C367 C 0.57824 0.49043 0.112 0.0
C368 C 0.55654 0.48939 0.12507 0.0
H369 H 0.44978 0.48336 0.16664 0.0
H370 H 0.50339 0.48323 0.15721 0.0
H371 H 0.49996 0.55526 0.1098 0.0
H372 H 0.44319 0.4427 0.09971 0.0
H373 H 0.4669 0.45609 0.08214 0.0
H374 H 0.43598 0.47241 0.08775 0.0
H375 H 0.46528 0.53428 0.09444 0.0
H376 H 0.50883 0.5447 0.08948 0.0
C377 C 0.58112 0.51893 0.1541 0.0
C378 C 0.55187 0.45139 0.14827 0.0
C379 C 0.57074 0.50125 0.05034 0.0
C380 C 0.54631 0.50428 0.0401 0.0
C381 C 0.51698 0.50473 0.0472 0.0
C382 C 0.51209 0.50224 0.06417 0.0
C383 C 0.53671 0.49915 0.07428 0.0
C384 C 0.56537 0.49868 0.06728 0.0
C385 C 0.58878 0.49526 0.07984 0.0
C386 C 0.5694 0.49364 0.09558 0.0
C387 C 0.53906 0.49597 0.09223 0.0
C388 C 0.62344 0.52912 0.08068 0.0
C389 C 0.59102 0.46007 0.07472 0.0
C390 C 0.44271 0.49637 0.12641 0.0
C391 C 0.43365 0.49211 0.14289 0.0
C392 C 0.45607 0.4869 0.15383 0.0
C393 C 0.48715 0.48684 0.14836 0.0
C394 C 0.4957 0.49129 0.13166 0.0
C395 C 0.47297 0.49552 0.12113 0.0
C396 C 0.48377 0.49799 0.10367 0.0
C397 C 0.51698 0.4951 0.10517 0.0
C398 C 0.52491 0.49149 0.1216 0.0
C399 C 0.4896 0.53477 0.09893 0.0
C400 C 0.4561 0.46592 0.09263 0.0
H401 H 0.64057 0.48914 0.09764 0.0
H402 H 0.63242 0.48524 0.15844 0.0
H403 H 0.54997 0.42887 0.13935 0.0
H404 H 0.52546 0.44728 0.15049 0.0
H405 H 0.5639 0.45016 0.16014 0.0
H406 H 0.59885 0.54368 0.14905 0.0
H407 H 0.59342 0.5167 0.16566 0.0
H408 H 0.55775 0.52165 0.15737 0.0
H409 H 0.59342 0.50049 0.04526 0.0
H410 H 0.49798 0.50754 0.03965 0.0
H411 H 0.48931 0.50299 0.06873 0.0
H412 H 0.6197 0.55242 0.07789 0.0
H413 H 0.64113 0.52591 0.07157 0.0
H414 H 0.63636 0.53701 0.09318 0.0
H415 H 0.5669 0.4399 0.06811 0.0
H416 H 0.59418 0.44742 0.08547 0.0
H417 H 0.61219 0.46409 0.06628 0.0
H418 H 0.68577 0.48713 0.11335 0.0
C419 C 0.63752 0.48833 0.11069 0.0
H420 H 0.14499 0.51979 0.1482 0.0
H421 H 0.20474 0.52802 0.14772 0.0
H422 H 0.17194 0.42232 0.16097 0.0
H423 H 0.11283 0.41382 0.16096 0.0
H424 H 0.25065 0.5271 0.16986 0.0
H425 H 0.2231 0.41612 0.12127 0.0
H426 H 0.1921 0.43242 0.12649 0.0
H427 H 0.19727 0.40161 0.13871 0.0
C428 C 0.15063 0.49842 0.15106 0.0
C429 C 0.12392 0.46605 0.15452 0.0
C430 C 0.18487 0.50307 0.15075 0.0
C431 C 0.19322 0.47546 0.15386 0.0
C432 C 0.16654 0.44373 0.15793 0.0
H433 H 0.37999 0.44332 0.15876 0.0
H434 H 0.32269 0.44046 0.16254 0.0
C435 C 0.13255 0.439 0.15807 0.0
C436 C 0.22945 0.47938 0.15295 0.0
H437 H 0.27712 0.43883 0.1362 0.0
C438 C 0.25635 0.50788 0.16238 0.0
C439 C 0.23753 0.45453 0.14319 0.0
C440 C 0.21104 0.42469 0.13171 0.0
C441 C 0.29034 0.51161 0.16265 0.0
C442 C 0.29813 0.48632 0.15318 0.0
C443 C 0.27136 0.45802 0.14368 0.0
C444 C 0.33401 0.4895 0.15233 0.0
C445 C 0.31761 0.54232 0.17336 0.0
C446 C 0.35991 0.51806 0.14549 0.0
C447 C 0.39255 0.51962 0.14327 0.0
C448 C 0.40057 0.49276 0.1479 0.0
C449 C 0.37503 0.46473 0.15528 0.0
C450 C 0.3421 0.46295 0.15731 0.0
H451 H 0.30637 0.55411 0.18294 0.0
H452 H 0.33511 0.534 0.1796 0.0
H453 H 0.33303 0.56312 0.16544 0.0
H454 H 0.35454 0.53867 0.14127 0.0
H455 H 0.41141 0.54153 0.13746 0.0
H456 H 0.68764 0.14022 0.48512 0.0
H457 H 0.7377 0.19682 0.48369 0.0
H458 H 0.70156 0.24477 0.52353 0.0
H459 H 0.65109 0.18789 0.525 0.0
H460 H 0.71981 0.28217 0.49526 0.0
H461 H 0.82256 0.24935 0.51561 0.0
H462 H 0.79388 0.2171 0.4998 0.0
H463 H 0.77809 0.22347 0.51972 0.0
C464 C 0.69056 0.16272 0.4937 0.0
C465 C 0.66567 0.15977 0.5052 0.0
C466 C 0.71926 0.19495 0.49295 0.0
C467 C 0.7236 0.22478 0.50371 0.0
C468 C 0.6988 0.22192 0.51527 0.0
H469 H 0.87914 0.43959 0.48791 0.0
H470 H 0.83536 0.39256 0.50208 0.0
C471 C 0.67009 0.18951 0.51609 0.0
C472 C 0.75287 0.25929 0.50186 0.0
H473 H 0.83968 0.2985 0.49931 0.0
C474 C 0.74612 0.2862 0.49651 0.0
C475 C 0.78709 0.26439 0.50358 0.0
C476 C 0.79591 0.23716 0.51016 0.0
C477 C 0.77258 0.31706 0.49162 0.0
C478 C 0.8066 0.32115 0.49237 0.0
C479 C 0.81353 0.29518 0.49868 0.0
C480 C 0.83461 0.34992 0.48482 0.0
C481 C 0.76373 0.34396 0.48468 0.0
C482 C 0.84928 0.34138 0.47076 0.0
C483 C 0.87425 0.36799 0.46275 0.0
C484 C 0.88515 0.40374 0.46866 0.0
C485 C 0.87123 0.41226 0.48308 0.0
C486 C 0.84609 0.3855 0.4911 0.0
H487 H 0.73564 0.33432 0.48273 0.0
H488 H 0.77373 0.36848 0.49344 0.0
H489 H 0.77585 0.35084 0.47268 0.0
H490 H 0.84087 0.31405 0.46577 0.0
H491 H 0.88497 0.36055 0.45186 0.0
H492 H 0.55221 0.61559 0.82465 0.0
H493 H 0.54417 0.66926 0.82439 0.0
H494 H 0.64633 0.73169 0.84619 0.0
H495 H 0.65442 0.67804 0.84632 0.0
H496 H 0.54618 0.72013 0.84856 0.0
H497 H 0.64976 0.78023 0.8054 0.0
H498 H 0.63367 0.73476 0.80947 0.0
H499 H 0.66399 0.76962 0.82393 0.0
C500 C 0.57268 0.64068 0.82965 0.0
C501 C 0.60381 0.64259 0.83564 0.0
C502 C 0.56818 0.67141 0.82939 0.0
C503 C 0.59484 0.70473 0.83501 0.0
C504 C 0.62564 0.70649 0.84142 0.0
H505 H 0.61583 0.91966 0.83097 0.0
H506 H 0.62245 0.86905 0.83989 0.0
C507 C 0.63018 0.67578 0.84159 0.0
C508 C 0.59064 0.73759 0.83385 0.0
H509 H 0.62441 0.816 0.81685 0.0
C510 C 0.56333 0.74111 0.84164 0.0
C511 C 0.61292 0.76504 0.82479 0.0
C512 C 0.64152 0.76219 0.81528 0.0
C513 C 0.55785 0.77127 0.8407 0.0
C514 C 0.58008 0.7986 0.8316 0.0
C515 C 0.60761 0.79529 0.824 0.0
C516 C 0.57387 0.82955 0.82864 0.0
C517 C 0.52836 0.77366 0.84951 0.0
C518 C 0.54411 0.82432 0.81967 0.0
C519 C 0.54037 0.85309 0.81459 0.0
C520 C 0.56627 0.8878 0.81837 0.0
C521 C 0.59526 0.89327 0.82811 0.0
C522 C 0.59914 0.86435 0.83308 0.0
H523 H 0.52035 0.75649 0.85974 0.0
H524 H 0.53513 0.80128 0.85468 0.0
H525 H 0.50612 0.76472 0.84055 0.0
H526 H 0.52453 0.79782 0.8158 0.0
H527 H 0.51789 0.84809 0.80698 0.0
H528 H 0.9461 0.45145 0.15068 0.0
H529 H 0.88613 0.44265 0.14976 0.0
H530 H 0.92145 0.5555 0.15745 0.0
H531 H 0.9806 0.56423 0.15793 0.0
H532 H 0.84603 0.46058 0.17167 0.0
H533 H 0.86014 0.53188 0.11655 0.0
H534 H 0.89205 0.5189 0.12318 0.0
H535 H 0.8912 0.5586 0.13285 0.0
C536 C 0.941 0.4743 0.1521 0.0
C537 C 0.96838 0.50856 0.15415 0.0
C538 C 0.90662 0.46929 0.15162 0.0
C539 C 0.89883 0.49843 0.15312 0.0
C540 C 0.9263 0.53247 0.15574 0.0
H541 H 0.72112 0.54286 0.15024 0.0
H542 H 0.77722 0.54416 0.15557 0.0
C543 C 0.96036 0.53743 0.15613 0.0
C544 C 0.86241 0.49392 0.15192 0.0
H545 H 0.81077 0.52189 0.13202 0.0
C546 C 0.83829 0.47374 0.16288 0.0
C547 C 0.85175 0.51087 0.14046 0.0
C548 C 0.87503 0.53096 0.12748 0.0
C549 C 0.8047 0.47118 0.16309 0.0
C550 C 0.79445 0.48897 0.15192 0.0
C551 C 0.81839 0.50858 0.14079 0.0
C552 C 0.75912 0.48747 0.15128 0.0
C553 C 0.78077 0.45025 0.17563 0.0
C554 C 0.72957 0.45521 0.14751 0.0
C555 C 0.69731 0.4545 0.14463 0.0
C556 C 0.69354 0.48596 0.14556 0.0
C557 C 0.72279 0.51807 0.15002 0.0
C558 C 0.75506 0.51882 0.15283 0.0
H559 H 0.79488 0.44632 0.18604 0.0
H560 H 0.76535 0.46358 0.18076 0.0
H561 H 0.7629 0.42381 0.16948 0.0
H562 H 0.7317 0.43062 0.14581 0.0
H563 H 0.67566 0.42945 0.14056 0.0
H564 H 0.38611 0.94749 0.5233 0.0
H565 H 0.33123 0.89498 0.52437 0.0
H566 H 0.3663 0.835 0.49002 0.0
H567 H 0.42114 0.88717 0.48904 0.0
H568 H 0.2852 0.85772 0.49767 0.0
H569 H 0.32828 0.77028 0.52669 0.0
H570 H 0.35435 0.81742 0.5274 0.0
H571 H 0.35257 0.78854 0.50923 0.0
C572 C 0.38213 0.92297 0.51611 0.0
C573 C 0.40774 0.92126 0.50608 0.0
C574 C 0.35087 0.89306 0.51674 0.0
C575 C 0.34496 0.86098 0.5075 0.0
C576 C 0.37064 0.85927 0.49755 0.0
H577 H 0.19122 0.66465 0.46801 0.0
H578 H 0.24279 0.71678 0.479 0.0
C579 C 0.40182 0.88914 0.49688 0.0
C580 C 0.31118 0.82985 0.50723 0.0
H581 H 0.27346 0.74172 0.51168 0.0
C582 C 0.28239 0.83248 0.50105 0.0
C583 C 0.30768 0.79708 0.51173 0.0
C584 C 0.33731 0.79318 0.51929 0.0
C585 C 0.25062 0.80262 0.49819 0.0
C586 C 0.24757 0.76946 0.50188 0.0
C587 C 0.27594 0.7672 0.50885 0.0
C588 C 0.21647 0.73634 0.49673 0.0
C589 C 0.22114 0.80637 0.49031 0.0
C590 C 0.18471 0.7296 0.5034 0.0
C591 C 0.15506 0.6998 0.49706 0.0
C592 C 0.15687 0.67648 0.48396 0.0
C593 C 0.18899 0.68251 0.47791 0.0
C594 C 0.21848 0.71212 0.48425 0.0
H595 H 0.2293 0.83273 0.48587 0.0
H596 H 0.20904 0.78573 0.47966 0.0
H597 H 0.20144 0.80283 0.49955 0.0
H598 H 0.18277 0.74779 0.51321 0.0
H599 H 0.13063 0.69577 0.50195 0.0
H600 H 0.60089 0.47489 0.83961 0.0
H601 H 0.60828 0.42072 0.84008 0.0
H602 H 0.50168 0.35795 0.82501 0.0
H603 H 0.49438 0.4119 0.82432 0.0
H604 H 0.57068 0.35993 0.85877 0.0
H605 H 0.55455 0.32374 0.79061 0.0
H606 H 0.56491 0.36786 0.80003 0.0
H607 H 0.52166 0.33372 0.79949 0.0
C608 C 0.57923 0.44956 0.83615 0.0
C609 C 0.54724 0.44763 0.83159 0.0
C610 C 0.58338 0.41861 0.83659 0.0
C611 C 0.55563 0.38524 0.83238 0.0
C612 C 0.52358 0.38337 0.82807 0.0
H613 H 0.51224 0.16596 0.81786 0.0
H614 H 0.51089 0.22322 0.82241 0.0
C615 C 0.51941 0.41422 0.82772 0.0
C616 C 0.55985 0.35221 0.83239 0.0
H617 H 0.55273 0.27978 0.80708 0.0
C618 C 0.56706 0.34249 0.84747 0.0
C619 C 0.55525 0.32954 0.81764 0.0
C620 C 0.54896 0.33927 0.80098 0.0
C621 C 0.56839 0.31 0.84826 0.0
C622 C 0.5629 0.28691 0.83353 0.0
C623 C 0.55663 0.29722 0.81842 0.0
C624 C 0.56248 0.25144 0.83334 0.0
C625 C 0.57439 0.30012 0.86492 0.0
C626 C 0.59156 0.24777 0.83844 0.0
C627 C 0.59214 0.21474 0.83605 0.0
C628 C 0.56376 0.18497 0.8284 0.0
C629 C 0.53427 0.18841 0.82399 0.0
C630 C 0.5336 0.22119 0.82647 0.0
H631 H 0.56968 0.31633 0.8753 0.0
H632 H 0.55764 0.27176 0.86599 0.0
H633 H 0.60141 0.30463 0.86628 0.0
H634 H 0.61444 0.27073 0.84345 0.0
H635 H 0.61544 0.21292 0.8392 0.0
H636 H 0.61334 0.97155 0.4933 0.0
H637 H 0.60439 0.9104 0.49348 0.0
H638 H 0.50257 0.88151 0.51042 0.0
H639 H 0.51141 0.9427 0.50995 0.0
H640 H 0.59363 0.87313 0.51889 0.0
H641 H 0.48248 0.80279 0.474 0.0
H642 H 0.50692 0.85027 0.47625 0.0
H643 H 0.47465 0.82906 0.49063 0.0
C644 C 0.58888 0.95202 0.49686 0.0
C645 C 0.56281 0.9617 0.50132 0.0
C646 C 0.58377 0.91705 0.49696 0.0
C647 C 0.55254 0.89097 0.50164 0.0
C648 C 0.52649 0.90072 0.50622 0.0
H649 H 0.48715 0.68243 0.53107 0.0
H650 H 0.49097 0.73773 0.52242 0.0
C651 C 0.53152 0.93573 0.50597 0.0
C652 C 0.54835 0.85433 0.50276 0.0
H653 H 0.49672 0.76682 0.49049 0.0
C654 C 0.57264 0.84996 0.51249 0.0
C655 C 0.52093 0.82393 0.49446 0.0
C656 C 0.49495 0.82669 0.48312 0.0
C657 C 0.56987 0.81626 0.5145 0.0
C658 C 0.54223 0.7859 0.50642 0.0
C659 C 0.51801 0.79013 0.49659 0.0
C660 C 0.53704 0.74965 0.50907 0.0
C661 C 0.59596 0.81333 0.52573 0.0
C662 C 0.5608 0.7371 0.5038 0.0
C663 C 0.55849 0.70524 0.50863 0.0
C664 C 0.53249 0.6856 0.51889 0.0
C665 C 0.50748 0.69708 0.52318 0.0
C666 C 0.50964 0.72868 0.51826 0.0
H667 H 0.61203 0.83873 0.53333 0.0
H668 H 0.58313 0.7927 0.53417 0.0
H669 H 0.61308 0.8055 0.51807 0.0
H670 H 0.58196 0.75271 0.49655 0.0
H671 H 0.57825 0.69719 0.50526 0.0
H672 H 0.66869 0.48427 0.80424 0.0
H673 H 0.71523 0.46703 0.80002 0.0
H674 H 0.77231 0.53993 0.8423 0.0
H675 H 0.72586 0.557 0.84665 0.0
H676 H 0.78404 0.51044 0.79414 0.0
H677 H 0.77264 0.44656 0.85156 0.0
H678 H 0.73889 0.45529 0.84337 0.0
H679 H 0.77442 0.4897 0.85569 0.0
C680 C 0.69115 0.49645 0.81266 0.0
C681 C 0.69383 0.52186 0.8258 0.0
C682 C 0.7176 0.48659 0.81023 0.0
C683 C 0.74682 0.50182 0.821 0.0
C684 C 0.74956 0.52736 0.83407 0.0
H685 H 0.95275 0.5633 0.82198 0.0
H686 H 0.89442 0.54915 0.81292 0.0
C687 C 0.72319 0.53723 0.83649 0.0
C688 C 0.77532 0.49232 0.8184 0.0
H689 H 0.82792 0.46851 0.8395 0.0
C690 C 0.79332 0.5005 0.80386 0.0
C691 C 0.78672 0.47839 0.83087 0.0
C692 C 0.76692 0.4666 0.84617 0.0
C693 C 0.82429 0.4981 0.80216 0.0
C694 C 0.83763 0.48792 0.81547 0.0
C695 C 0.81794 0.47669 0.82933 0.0
C696 C 0.87365 0.49371 0.81663 0.0
C697 C 0.84289 0.50763 0.78638 0.0
C698 C 0.88161 0.46715 0.82144 0.0
C699 C 0.91496 0.47539 0.8269 0.0
C700 C 0.94078 0.51028 0.82754 0.0
C701 C 0.9334 0.53612 0.82141 0.0
C702 C 0.90003 0.52797 0.81612 0.0
H703 H 0.82444 0.50045 0.77558 0.0
H704 H 0.859 0.53664 0.78737 0.0
H705 H 0.85957 0.4942 0.78399 0.0
H706 H 0.86161 0.44059 0.82199 0.0
H707 H 0.92016 0.45497 0.83147 0.0
H708 H 0.18542 0.61192 0.17526 0.0
H709 H 0.23806 0.66718 0.17534 0.0
H710 H 0.19565 0.69545 0.13435 0.0
H711 H 0.14281 0.64034 0.13431 0.0
H712 H 0.28312 0.69235 0.14866 0.0
H713 H 0.22449 0.78141 0.17006 0.0
H714 H 0.20375 0.73457 0.17191 0.0
H715 H 0.20403 0.75033 0.15213 0.0
C716 C 0.18733 0.62999 0.16631 0.0
C717 C 0.16006 0.62211 0.15487 0.0
C718 C 0.21738 0.66142 0.16632 0.0
C719 C 0.22053 0.68549 0.15496 0.0
C720 C 0.19348 0.67743 0.14337 0.0
H721 H 0.38753 0.90032 0.15649 0.0
H722 H 0.33777 0.8449 0.14611 0.0
C723 C 0.16342 0.64596 0.14334 0.0
C724 C 0.25213 0.71909 0.15542 0.0
H725 H 0.28334 0.80817 0.16545 0.0
C726 C 0.28318 0.71773 0.15219 0.0
C727 C 0.252 0.75212 0.15988 0.0
C728 C 0.21939 0.75493 0.16382 0.0
C729 C 0.31433 0.74855 0.15372 0.0
C730 C 0.31438 0.7814 0.15889 0.0
C731 C 0.28318 0.78293 0.16144 0.0
C732 C 0.34652 0.8138 0.16354 0.0
C733 C 0.34692 0.74559 0.14996 0.0
C734 C 0.36793 0.81451 0.17664 0.0
C735 C 0.39613 0.8459 0.18254 0.0
C736 C 0.40337 0.87731 0.17552 0.0
C737 C 0.38264 0.87641 0.16202 0.0
C738 C 0.35421 0.84488 0.15615 0.0
H739 H 0.34185 0.72194 0.14109 0.0
H740 H 0.36582 0.76945 0.14472 0.0
H741 H 0.35846 0.74279 0.16161 0.0
H742 H 0.36209 0.79105 0.18276 0.0
H743 H 0.41184 0.8458 0.19289 0.0
H744 H 0.56102 0.13615 0.51823 0.0
H745 H 0.57027 0.19727 0.5167 0.0
H746 H 0.48649 0.16014 0.48012 0.0
H747 H 0.47752 0.09924 0.48144 0.0
H748 H 0.58256 0.23817 0.48807 0.0
H749 H 0.46106 0.21673 0.51789 0.0
H750 H 0.4803 0.18693 0.51895 0.0
H751 H 0.45726 0.18568 0.50032 0.0
C752 C 0.54504 0.14112 0.50966 0.0
C753 C 0.5187 0.11293 0.4999 0.0
C754 C 0.55019 0.17601 0.50886 0.0
C755 C 0.52882 0.18326 0.49843 0.0
C756 C 0.50299 0.15517 0.48842 0.0
H757 H 0.50619 0.37768 0.49259 0.0
H758 H 0.50151 0.31784 0.48599 0.0
C759 C 0.49794 0.12038 0.48917 0.0
C760 C 0.53287 0.22 0.49831 0.0
H761 H 0.49294 0.27236 0.50845 0.0
C762 C 0.56298 0.24569 0.49251 0.0
C763 C 0.50718 0.22971 0.50397 0.0
C764 C 0.4747 0.20348 0.51076 0.0
C765 C 0.56805 0.2808 0.49217 0.0
C766 C 0.54267 0.29075 0.49819 0.0
C767 C 0.51234 0.26483 0.50374 0.0
C768 C 0.54793 0.32822 0.50004 0.0
C769 C 0.60041 0.30674 0.48518 0.0
C770 C 0.57587 0.35424 0.50982 0.0
C771 C 0.57871 0.38837 0.51344 0.0
C772 C 0.55344 0.3973 0.50757 0.0
C773 C 0.52625 0.37177 0.49715 0.0
C774 C 0.52343 0.33748 0.49349 0.0
H775 H 0.61072 0.29306 0.47604 0.0
H776 H 0.59602 0.32682 0.47906 0.0
H777 H 0.6202 0.32055 0.4954 0.0
H778 H 0.59474 0.34779 0.51534 0.0
H779 H 0.60006 0.40746 0.52145 0.0
H780 H 0.47827 0.60499 0.85636 0.0
H781 H 0.43525 0.62739 0.8557 0.0
H782 H 0.39473 0.5667 0.80819 0.0
H783 H 0.43724 0.54356 0.80896 0.0
H784 H 0.41931 0.66466 0.8324 0.0
H785 H 0.31277 0.53137 0.83776 0.0
H786 H 0.35706 0.54111 0.84137 0.0
H787 H 0.33943 0.53429 0.82056 0.0
C788 C 0.46008 0.59636 0.84582 0.0
C789 C 0.46052 0.57212 0.83285 0.0
C790 C 0.4358 0.60939 0.84538 0.0
C791 C 0.41173 0.59841 0.83197 0.0
C792 C 0.41284 0.57506 0.81875 0.0
H793 H 0.22125 0.6128 0.83366 0.0
H794 H 0.27169 0.6128 0.82118 0.0
C795 C 0.43699 0.56182 0.81923 0.0
C796 C 0.38413 0.60962 0.83248 0.0
H797 H 0.2984 0.57817 0.83709 0.0
C798 C 0.39276 0.64581 0.83323 0.0
C799 C 0.34963 0.58486 0.83354 0.0
C800 C 0.33904 0.54576 0.8334 0.0
C801 C 0.36769 0.658 0.83538 0.0
C802 C 0.33339 0.63331 0.83704 0.0
C803 C 0.32471 0.59706 0.83566 0.0
C804 C 0.30634 0.64388 0.84202 0.0
C805 C 0.37818 0.69709 0.83605 0.0
C806 C 0.30948 0.66336 0.85748 0.0
C807 C 0.28061 0.66415 0.8646 0.0
C808 C 0.24806 0.64479 0.85651 0.0
C809 C 0.24574 0.6283 0.8403 0.0
C810 C 0.27465 0.62804 0.83311 0.0
H811 H 0.40139 0.71042 0.82895 0.0
H812 H 0.35728 0.70226 0.83106 0.0
H813 H 0.38442 0.70907 0.84915 0.0
H814 H 0.3336 0.67543 0.86469 0.0
H815 H 0.28347 0.67781 0.87692 0.0
H816 H 0.91197 0.35539 0.12801 0.0
H817 H 0.85497 0.30657 0.13025 0.0
H818 H 0.88296 0.2988 0.18024 0.0
H819 H 0.94008 0.3465 0.17783 0.0
H820 H 0.84746 0.23465 0.16354 0.0
H821 H 0.78057 0.31811 0.15579 0.0
H822 H 0.80557 0.31482 0.13872 0.0
H823 H 0.82649 0.33646 0.15857 0.0
C824 C 0.90595 0.34293 0.13939 0.0
C825 C 0.93024 0.35471 0.15278 0.0
C826 C 0.87336 0.31528 0.14071 0.0
C827 C 0.86448 0.29952 0.15554 0.0
C828 C 0.8892 0.31062 0.1687 0.0
H829 H 0.67971 0.20207 0.20383 0.0
H830 H 0.73152 0.2402 0.19091 0.0
C831 C 0.92181 0.3379 0.16732 0.0
C832 C 0.82931 0.27219 0.15778 0.0
H833 H 0.74637 0.25906 0.16037 0.0
C834 C 0.82525 0.23979 0.1627 0.0
C835 C 0.80046 0.27915 0.15678 0.0
C836 C 0.80337 0.31409 0.15232 0.0
C837 C 0.79347 0.21474 0.16733 0.0
C838 C 0.76467 0.22183 0.16648 0.0
C839 C 0.76844 0.25361 0.1609 0.0
C840 C 0.73147 0.19862 0.17312 0.0
C841 C 0.7916 0.18194 0.17399 0.0
C842 C 0.71357 0.16269 0.16713 0.0
C843 C 0.68424 0.14054 0.17479 0.0
C844 C 0.67202 0.15409 0.18841 0.0
C845 C 0.6889 0.19053 0.19368 0.0
C846 C 0.71835 0.21248 0.18617 0.0
H847 H 0.8174 0.18446 0.17733 0.0
H848 H 0.77614 0.17616 0.18515 0.0
H849 H 0.77926 0.15904 0.16437 0.0
H850 H 0.72273 0.15159 0.1568 0.0
H851 H 0.67192 0.11262 0.1704 0.0
H852 H 0.0203 0.42042 0.09736 0.0
H853 H 0.02326 0.4174 0.0671 0.0
H854 H 0.08275 0.53071 0.07094 0.0
H855 H 0.08101 0.53379 0.101 0.0
H856 H 0.99942 0.44398 0.04542 0.0
H857 H 0.1394 0.50143 0.04053 0.0
H858 H 0.11928 0.48783 0.05971 0.0
H859 H 0.12844 0.53089 0.05377 0.0
C860 C 0.03429 0.44462 0.09173 0.0
C861 C 0.05067 0.4773 0.10158 0.0
C862 C 0.036 0.44285 0.07446 0.0
C863 C 0.05395 0.47374 0.06676 0.0
C864 C 0.06982 0.50638 0.07659 0.0
H865 H 0.01798 0.5224 0.97138 0.0
H866 H 0.01702 0.50851 -3e-05 0.0
C867 C 0.06855 0.50812 0.09381 0.0
C868 C 0.05441 0.47248 0.04843 0.0
H869 H 0.10733 0.50539 0.01702 0.0
C870 C 0.02306 0.45686 0.03917 0.0
C871 C 0.08526 0.48847 0.04017 0.0
C872 C 0.11996 0.5027 0.04907 0.0
C873 C 0.02162 0.45864 0.02202 0.0
C874 C 0.05227 0.47766 0.01406 0.0
C875 C 0.08374 0.49142 0.02315 0.0
C876 C 0.05223 0.48514 0.99657 0.0
C877 C 0.98722 0.44015 0.01269 0.0
C878 C 0.07342 0.47801 0.98529 0.0
C879 C 0.07465 0.48681 0.96905 0.0
C880 C 0.05446 0.50257 0.96381 0.0
C881 C 0.03333 0.50972 0.97508 0.0
C882 C 0.03257 0.50151 0.99136 0.0
H883 H 0.96949 0.41695 0.01878 0.0
H884 H 0.97548 0.45866 0.01266 0.0
H885 H 0.98958 0.43105 -0.00035 0.0
H886 H 0.08904 0.46568 0.98905 0.0
H887 H 0.09109 0.48101 0.96054 0.0
H888 H 0.48987 0.98388 0.44738 0.0
H889 H 0.48767 0.98474 0.4173 0.0
H890 H 0.57286 0.0887 0.42216 0.0
H891 H 0.57519 0.08837 0.4522 0.0
H892 H 0.51746 0.08147 0.40127 0.0
H893 H 0.55754 0.97509 0.38527 0.0
H894 H 0.52192 0.96362 0.39846 0.0
H895 H 0.5633 0.99752 0.40597 0.0
C896 C 0.50819 0.00693 0.44208 0.0
C897 C 0.53281 0.03598 0.45222 0.0
C898 C 0.50697 0.00728 0.42487 0.0
C899 C 0.53038 0.0366 0.41754 0.0
C900 C 0.55467 0.06578 0.42761 0.0
H901 H 0.57361 0.0464 0.31324 0.0
H902 H 0.57774 0.05066 0.34356 0.0
C903 C 0.55597 0.06545 0.44479 0.0
C904 C 0.5294 0.03711 0.39934 0.0
H905 H 0.53912 0.99571 0.3629 0.0
C906 C 0.52224 0.06279 0.39286 0.0
C907 C 0.53613 0.01299 0.38847 0.0
C908 C 0.54546 0.98591 0.39484 0.0
C909 C 0.52105 0.06459 0.3757 0.0
C910 C 0.5268 0.03981 0.36481 0.0
C911 C 0.53452 0.01452 0.37132 0.0
C912 C 0.5247 0.03943 0.34659 0.0
C913 C 0.51406 0.09322 0.36937 0.0
C914 C 0.49353 0.03181 0.33832 0.0
C915 C 0.49112 0.0295 0.32103 0.0
C916 C 0.51984 0.03464 0.31172 0.0
C917 C 0.55116 0.04276 0.32008 0.0
C918 C 0.55351 0.04497 0.33737 0.0
H919 H 0.51864 0.11509 0.37927 0.0
H920 H 0.53035 0.10429 0.35889 0.0
H921 H 0.48687 0.08181 0.36482 0.0
H922 H 0.47088 0.02695 0.34522 0.0
H923 H 0.46671 0.02346 0.31494 0.0
H924 H 0.62403 0.54625 0.77719 0.0
H925 H 0.62494 0.55208 0.74749 0.0
H926 H 0.5348 0.56972 0.75033 0.0
H927 H 0.53371 0.56429 0.78005 0.0
H928 H 0.57153 0.50952 0.72359 0.0
H929 H 0.60175 0.65166 0.72553 0.0
H930 H 0.60868 0.63264 0.74332 0.0
H931 H 0.5663 0.62594 0.73743 0.0
C932 C 0.60447 0.55161 0.77156 0.0
C933 C 0.57878 0.5548 0.78104 0.0
C934 C 0.6051 0.55494 0.75459 0.0
C935 C 0.58024 0.56182 0.74681 0.0
C936 C 0.5546 0.56509 0.75619 0.0
H937 H 0.53185 0.57181 0.64407 0.0
H938 H 0.53469 0.57537 0.67446 0.0
C939 C 0.55388 0.56169 0.77316 0.0
C940 C 0.58011 0.56362 0.7287 0.0
H941 H 0.58725 0.61811 0.69907 0.0
C942 C 0.57515 0.53329 0.71821 0.0
C943 C 0.58455 0.59463 0.72179 0.0
C944 C 0.5909 0.62821 0.73257 0.0
C945 C 0.57413 0.53296 0.70092 0.0
C946 C 0.57895 0.56407 0.69399 0.0
C947 C 0.58369 0.59438 0.70447 0.0
C948 C 0.57921 0.56542 0.67583 0.0
C949 C 0.56722 0.49908 0.69024 0.0
C950 C 0.60401 0.55989 0.66667 0.0
C951 C 0.60243 0.5578 0.6494 0.0
C952 C 0.57618 0.56153 0.64099 0.0
C953 C 0.55241 0.56895 0.65024 0.0
C954 C 0.55393 0.57087 0.66756 0.0
H955 H 0.5554 0.4757 0.69727 0.0
H956 H 0.55002 0.49507 0.6793 0.0
H957 H 0.59175 0.50048 0.6857 0.0
H958 H 0.62419 0.55644 0.67288 0.0
H959 H 0.62147 0.55275 0.64259 0.0
H960 H 0.59491 0.08035 0.56038 0.0
H961 H 0.59861 0.07626 0.5901 0.0
H962 H 0.50628 0.97803 0.58494 0.0
H963 H 0.50226 0.98168 0.55517 0.0
H964 H 0.54458 0.07087 0.6126 0.0
H965 H 0.57737 0.95777 0.6114 0.0
H966 H 0.58425 0.98366 0.59413 0.0
H967 H 0.54184 0.95186 0.598 0.0
C968 C 0.57548 0.0577 0.56549 0.0
C969 C 0.54825 0.03137 0.55536 0.0
C970 C 0.57767 0.05544 0.58248 0.0
C971 C 0.55293 0.02667 0.58961 0.0
C972 C 0.52589 1.00017 0.57958 0.0
H973 H 0.52414 0.97968 0.69246 0.0
H974 H 0.5206 0.97559 0.66203 0.0
C975 C 0.52354 1.00248 0.56259 0.0
C976 C 0.5545 0.0255 0.60773 0.0
H977 H 0.56799 0.9809 0.63759 0.0
C978 C 0.54974 0.05126 0.61809 0.0
C979 C 0.56085 0.99959 0.61475 0.0
C980 C 0.56662 0.9717 0.60406 0.0
C981 C 0.55116 0.05186 0.63538 0.0
C982 C 0.55843 0.02654 0.64247 0.0
C983 C 0.56262 1.00036 0.6321 0.0
C984 C 0.56241 0.02747 0.66066 0.0
C985 C 0.54435 0.07932 0.64588 0.0
C986 C 0.58783 0.05742 0.66985 0.0
C987 C 0.58979 0.05985 0.68712 0.0
C988 C 0.56661 0.03218 0.69552 0.0
C989 C 0.54234 1.00135 0.68627 0.0
C990 C 0.54024 0.99904 0.66894 0.0
H991 H 0.5298 0.08975 0.63869 0.0
H992 H 0.52976 0.06829 0.65684 0.0
H993 H 0.56912 0.10185 0.65037 0.0
H994 H 0.60576 0.07925 0.66366 0.0
H995 H 0.60916 0.08362 0.69394 0.0
H996 H 0.53204 0.55174 0.88785 0.0
H997 H 0.53023 0.54591 0.91753 0.0
H998 H 0.61483 0.51904 0.91468 0.0
H999 H 0.6168 0.52449 0.88492 0.0
H1000 H 0.55878 0.47332 0.93204 0.0
H1001 H 0.59979 0.61472 0.95434 0.0
H1002 H 0.56463 0.59622 0.93913 0.0
H1003 H 0.60593 0.60012 0.93347 0.0
C1004 C 0.55039 0.54471 0.89349 0.0
C1005 C 0.57467 0.53873 0.88396 0.0
C1006 C 0.54941 0.54158 0.91049 0.0
C1007 C 0.57269 0.53252 0.91831 0.0
C1008 C 0.59678 0.52627 0.90886 0.0
H1009 H 0.60527 0.54417 0.02524 0.0
H1010 H 0.61319 0.54981 0.99559 0.0
C1011 C 0.59788 0.52949 0.89186 0.0
C1012 C 0.57127 0.52867 0.93627 0.0
H1013 H 0.57818 0.57381 0.9744 0.0
C1014 C 0.56321 0.4953 0.94133 0.0
C1015 C 0.57747 0.55751 0.94833 0.0
C1016 C 0.58775 0.59427 0.94361 0.0
C1017 C 0.56026 0.48979 0.95816 0.0
C1018 C 0.56518 0.51834 0.97016 0.0
C1019 C 0.57415 0.55192 0.96514 0.0
C1020 C 0.56063 0.51384 0.988 0.0
C1021 C 0.5521 0.45354 0.96297 0.0
C1022 C 0.52842 0.4919 0.99352 0.0
C1023 C 0.52383 0.48856 0.01042 0.0
C1024 C 0.55139 0.50721 0.02211 0.0
C1025 C 0.58367 0.52912 0.01652 0.0
C1026 C 0.58819 0.53253 -0.00039 0.0
H1027 H 0.55772 0.43724 0.95298 0.0
H1028 H 0.56689 0.45543 0.9745 0.0
H1029 H 0.52444 0.43967 0.96531 0.0
H1030 H 0.5067 0.47768 0.98477 0.0
H1031 H 0.49873 0.47127 0.01432 0.0
H1032 H 0.99711 0.44716 0.2061 0.0
H1033 H 0.99241 0.45349 0.23614 0.0
H1034 H 0.07645 0.55808 0.2397 0.0
H1035 H 0.08133 0.55226 0.20967 0.0
H1036 H 0.04377 0.46684 0.26106 0.0
H1037 H 0.99987 0.57192 0.26481 0.0
H1038 H 0.99811 0.54546 0.24564 0.0
H1039 H 0.03794 0.58157 0.25355 0.0
C1040 C 0.01454 0.47162 0.21322 0.0
C1041 C 0.03955 0.49927 0.20542 0.0
C1042 C 1.0118 0.47513 0.23039 0.0
C1043 C 0.03377 0.5064 0.24007 0.0
C1044 C 0.05886 0.53397 0.23239 0.0
H1045 H 0.08548 0.54613 0.34501 0.0
H1046 H 0.08403 0.53636 0.31475 0.0
C1047 C 0.06171 0.53048 0.21522 0.0
C1048 C 0.03113 0.50981 0.25827 0.0
H1049 H 0.01615 0.55884 0.29033 0.0
C1050 C 0.03755 0.48681 0.26747 0.0
C1051 C 0.02258 0.53559 0.26653 0.0
C1052 C 1.01391 0.55988 0.25715 0.0
C1053 C 0.03657 0.48956 0.28482 0.0
C1054 C 0.02933 0.51624 0.29313 0.0
C1055 C 0.02197 0.5386 0.2839 0.0
C1056 C 0.02998 0.52185 0.31144 0.0
C1057 C 0.04314 0.46383 0.29413 0.0
C1058 C 1.00019 0.51757 0.31955 0.0
C1059 C 1.00098 0.52337 0.33684 0.0
C1060 C 0.03169 0.53392 0.34628 0.0
C1061 C 0.06151 0.53836 0.33807 0.0
C1062 C 0.06066 0.53243 0.32081 0.0
H1063 H 0.03963 0.43983 0.28589 0.0
H1064 H 0.06993 0.47678 0.29936 0.0
H1065 H 0.02583 0.45563 0.30456 0.0
H1066 H 0.97633 0.50965 0.31249 0.0
H1067 H 0.9777 0.52013 0.34281 0.0
loop_
_geom_bond_atom_site_label_1
_geom_bond_atom_site_label_2
_geom_bond_distance
_geom_bond_site_symmetry_2
_ccdc_geom_bond_type
Tb0 O3 2.453 1_455 S
Tb0 O4 2.596 1_455 S
Tb0 O5 2.374 . S
Tb0 O13 2.343 . S
Tb0 O15 2.353 . S
Tb0 O17 2.427 . S
Tb0 O18 2.513 . S
C1 O5 1.251 . S
C1 O7 1.263 . S
Tb2 O4 2.343 1_455 S
Tb2 O7 2.353 . S
Tb2 O10 2.427 1_455 S
Tb2 O11 2.513 1_455 S
Tb2 O12 2.453 . S
Tb2 O13 2.596 . S
Tb2 O14 2.374 . S
O3 Tb0 2.453 1_655 S
O3 C19 1.245 . S
O4 Tb0 2.596 1_655 S
O4 Tb2 2.343 1_655 S
O4 C19 1.259 . S
O5 Tb0 2.374 . S
O5 C1 1.251 . S
C6 O10 1.275 . S
C6 O11 1.246 . S
O7 C1 1.263 . S
O7 Tb2 2.353 . S
C8 O12 1.245 . S
C8 O13 1.259 . S
C9 O14 1.250 . S
C9 O15 1.263 . S
O10 Tb2 2.427 1_655 S
O10 C6 1.275 . S
O11 Tb2 2.513 1_655 S
O11 C6 1.246 . S
O12 Tb2 2.453 . S
O12 C8 1.245 . S
O13 Tb0 2.343 . S
O13 Tb2 2.596 . S
O13 C8 1.259 . S
O14 Tb2 2.374 . S
O14 C9 1.250 . S
O15 Tb0 2.353 . S
O15 C9 1.263 . S
C16 O17 1.275 . S
C16 O18 1.246 . S
O17 Tb0 2.427 . S
O17 C16 1.275 . S
O18 Tb0 2.513 . S
O18 C16 1.246 . S
C19 O3 1.245 . S
C19 O4 1.259 . S
Tb20 O23 2.453 . S
Tb20 O24 2.596 . S
Tb20 O25 2.374 . S
Tb20 O33 2.343 1_545 S
Tb20 O35 2.353 . S
Tb20 O37 2.427 1_545 S
Tb20 O38 2.513 1_545 S
C21 O25 1.251 . S
C21 O27 1.263 . S
Tb22 O24 2.343 . S
Tb22 O27 2.353 . S
Tb22 O30 2.427 . S
Tb22 O31 2.513 . S
Tb22 O32 2.453 1_545 S
Tb22 O33 2.596 1_545 S
Tb22 O34 2.374 . S
O23 Tb20 2.453 . S
O23 C39 1.245 . S
O24 Tb20 2.596 . S
O24 Tb22 2.343 . S
O24 C39 1.259 . S
O25 Tb20 2.374 . S
O25 C21 1.251 . S
C26 O30 1.275 . S
C26 O31 1.246 . S
O27 C21 1.263 . S
O27 Tb22 2.353 . S
C28 O32 1.245 . S
C28 O33 1.259 . S
C29 O34 1.250 . S
C29 O35 1.263 . S
O30 Tb22 2.427 . S
O30 C26 1.275 . S
O31 Tb22 2.513 . S
O31 C26 1.246 . S
O32 Tb22 2.453 1_565 S
O32 C28 1.245 . S
O33 Tb20 2.343 1_565 S
O33 Tb22 2.596 1_565 S
O33 C28 1.259 . S
O34 Tb22 2.374 . S
O34 C29 1.250 . S
O35 Tb20 2.353 . S
O35 C29 1.263 . S
C36 O37 1.275 . S
C36 O38 1.246 . S
O37 Tb20 2.427 1_565 S
O37 C36 1.275 . S
O38 Tb20 2.513 1_565 S
O38 C36 1.246 . S
C39 O23 1.245 . S
C39 O24 1.259 . S
Tb40 O43 2.453 . S
Tb40 O44 2.596 . S
Tb40 O45 2.374 . S
Tb40 O53 2.343 . S
Tb40 O55 2.353 . S
Tb40 O57 2.427 . S
Tb40 O58 2.513 . S
C41 O45 1.251 . S
C41 O47 1.263 . S
Tb42 O44 2.343 . S
Tb42 O47 2.353 . S
Tb42 O50 2.427 . S
Tb42 O51 2.513 . S
Tb42 O52 2.453 . S
Tb42 O53 2.596 . S
Tb42 O54 2.374 . S
O43 Tb40 2.453 . S
O43 C59 1.245 . S
O44 Tb40 2.596 . S
O44 Tb42 2.343 . S
O44 C59 1.259 . S
O45 Tb40 2.374 . S
O45 C41 1.251 . S
C46 O50 1.275 . S
C46 O51 1.246 . S
O47 C41 1.263 . S
O47 Tb42 2.353 . S
C48 O52 1.245 . S
C48 O53 1.259 . S
C49 O54 1.250 . S
C49 O55 1.263 . S
O50 Tb42 2.427 . S
O50 C46 1.275 . S
O51 Tb42 2.513 . S
O51 C46 1.246 . S
O52 Tb42 2.453 . S
O52 C48 1.245 . S
O53 Tb40 2.343 . S
O53 Tb42 2.596 . S
O53 C48 1.259 . S
O54 Tb42 2.374 . S
O54 C49 1.250 . S
O55 Tb40 2.353 . S
O55 C49 1.263 . S
C56 O57 1.275 . S
C56 O58 1.246 . S
O57 Tb40 2.427 . S
O57 C56 1.275 . S
O58 Tb40 2.513 . S
O58 C56 1.246 . S
C59 O43 1.245 . S
C59 O44 1.259 . S
C60 C61 1.391 . S
C60 C64 1.391 . S
C60 H102 0.948 . S
C61 C60 1.391 . S
C61 C62 1.391 . S
C62 C61 1.391 . S
C62 H118 0.947 . S
C62 C119 1.392 . S
C63 C64 1.391 . S
C63 C67 1.397 . S
C63 C119 1.419 . S
C64 C60 1.391 . S
C64 C63 1.391 . S
C64 C65 1.399 . S
C65 C64 1.399 . S
C65 C68 1.396 . S
C65 C77 1.453 . S
C65 C78 1.684 . S
H66 C90 0.948 . S
C67 C63 1.397 . S
C67 C68 1.394 . S
C67 C86 1.723 . S
C68 C65 1.396 . S
C68 C67 1.394 . S
C68 C98 1.723 . S
H69 C92 0.947 . S
H70 C93 0.948 . S
H71 C99 0.982 . S
H72 C100 0.979 . S
H73 C100 0.980 . S
H74 C100 0.983 . S
H75 C99 0.979 . S
H76 C99 0.977 . S
C77 C65 1.453 . S
C77 H106 0.982 . S
C77 H107 0.979 . S
C77 H108 0.977 . S
C78 C65 1.684 . S
C78 H103 0.979 . S
C78 H104 0.980 . S
C78 H105 0.983 . S
C79 C80 1.391 . S
C79 C84 1.391 . S
C79 H109 0.948 . S
C80 C79 1.391 . S
C80 C81 1.391 . S
C81 C80 1.391 . S
C81 C82 1.392 . S
C81 H110 0.947 . S
C82 C81 1.392 . S
C82 C83 1.419 . S
C82 H111 0.948 1_545 S
C83 C82 1.419 . S
C83 C84 1.391 . S
C83 C87 1.397 . S
C84 C79 1.391 . S
C84 C83 1.391 . S
C84 C85 1.399 . S
C85 C84 1.399 . S
C85 C86 1.396 . S
C85 C88 1.453 . S
C85 C89 1.684 . S
C86 C67 1.723 . S
C86 C85 1.396 . S
C86 C87 1.394 . S
C87 C83 1.397 . S
C87 C86 1.394 . S
C87 C97 1.723 . S
C88 C85 1.453 . S
C88 H112 0.982 . S
C88 H113 0.979 . S
C88 H114 0.977 . S
C89 C85 1.684 . S
C89 H115 0.979 . S
C89 H116 0.980 . S
C89 H117 0.983 . S
C90 H66 0.948 . S
C90 C91 1.391 . S
C90 C95 1.391 . S
C91 C90 1.391 . S
C91 C92 1.391 . S
C92 H69 0.947 . S
C92 C91 1.391 . S
C92 C93 1.392 . S
C93 H70 0.948 . S
C93 C92 1.392 . S
C93 C94 1.419 . S
C94 C93 1.419 . S
C94 C95 1.391 . S
C94 C98 1.397 1_565 S
C95 C90 1.391 . S
C95 C94 1.391 . S
C95 C96 1.399 . S
C96 C95 1.399 . S
C96 C97 1.396 1_565 S
C96 C99 1.453 . S
C96 C100 1.684 . S
C97 C87 1.723 . S
C97 C96 1.396 1_545 S
C97 C98 1.394 . S
C98 C68 1.723 . S
C98 C94 1.397 1_545 S
C98 C97 1.394 . S
C99 H71 0.982 . S
C99 H75 0.979 . S
C99 H76 0.977 . S
C99 C96 1.453 . S
C100 H72 0.979 . S
C100 H73 0.980 . S
C100 H74 0.983 . S
C100 C96 1.684 . S
H101 C119 0.948 . S
H102 C60 0.948 . S
H103 C78 0.979 . S
H104 C78 0.980 . S
H105 C78 0.983 . S
H106 C77 0.982 . S
H107 C77 0.979 . S
H108 C77 0.977 . S
H109 C79 0.948 . S
H110 C81 0.947 . S
H111 C82 0.948 1_565 S
H112 C88 0.982 . S
H113 C88 0.979 . S
H114 C88 0.977 . S
H115 C89 0.979 . S
H116 C89 0.980 . S
H117 C89 0.983 . S
H118 C62 0.947 . S
C119 C62 1.392 . S
C119 C63 1.419 . S
C119 H101 0.948 . S
C120 C121 1.391 . S
C120 C124 1.391 . S
C120 H162 0.948 . S
C121 C120 1.391 . S
C121 C122 1.391 . S
C122 C121 1.391 . S
C122 H178 0.947 . S
C122 C179 1.392 . S
C123 C124 1.391 . S
C123 C127 1.397 . S
C123 C179 1.419 . S
C124 C120 1.391 . S
C124 C123 1.391 . S
C124 C125 1.399 . S
C125 C124 1.399 . S
C125 C128 1.396 . S
C125 C137 1.453 . S
C125 C138 1.684 . S
H126 C150 0.948 . S
C127 C123 1.397 . S
C127 C128 1.394 . S
C127 C146 1.723 . S
C128 C125 1.396 . S
C128 C127 1.394 . S
C128 C158 1.723 . S
H129 C152 0.947 . S
H130 C153 0.948 . S
H131 C159 0.982 . S
H132 C160 0.979 . S
H133 C160 0.980 . S
H134 C160 0.983 . S
H135 C159 0.979 . S
H136 C159 0.977 . S
C137 C125 1.453 . S
C137 H166 0.982 . S
C137 H167 0.979 . S
C137 H168 0.977 . S
C138 C125 1.684 . S
C138 H163 0.979 . S
C138 H164 0.980 . S
C138 H165 0.983 . S
C139 C140 1.391 . S
C139 C144 1.391 . S
C139 H169 0.948 . S
C140 C139 1.391 . S
C140 C141 1.391 . S
C141 C140 1.391 . S
C141 C142 1.392 . S
C141 H170 0.947 . S
C142 C141 1.392 . S
C142 C143 1.419 . S
C142 H171 0.948 . S
C143 C142 1.419 . S
C143 C144 1.391 . S
C143 C147 1.397 . S
C144 C139 1.391 . S
C144 C143 1.391 . S
C144 C145 1.399 . S
C145 C144 1.399 . S
C145 C146 1.396 . S
C145 C148 1.453 . S
C145 C149 1.684 . S
C146 C127 1.723 . S
C146 C145 1.396 . S
C146 C147 1.394 . S
C147 C143 1.397 . S
C147 C146 1.394 . S
C147 C157 1.723 . S
C148 C145 1.453 . S
C148 H172 0.982 . S
C148 H173 0.979 . S
C148 H174 0.977 . S
C149 C145 1.684 . S
C149 H175 0.979 . S
C149 H176 0.980 . S
C149 H177 0.983 . S
C150 H126 0.948 . S
C150 C151 1.391 . S
C150 C155 1.391 . S
C151 C150 1.391 . S
C151 C152 1.391 . S
C152 H129 0.947 . S
C152 C151 1.391 . S
C152 C153 1.392 . S
C153 H130 0.948 . S
C153 C152 1.392 . S
C153 C154 1.419 . S
C154 C153 1.419 . S
C154 C155 1.391 . S
C154 C158 1.397 . S
C155 C150 1.391 . S
C155 C154 1.391 . S
C155 C156 1.399 . S
C156 C155 1.399 . S
C156 C157 1.396 . S
C156 C159 1.453 . S
C156 C160 1.684 . S
C157 C147 1.723 . S
C157 C156 1.396 . S
C157 C158 1.394 . S
C158 C128 1.723 . S
C158 C154 1.397 . S
C158 C157 1.394 . S
C159 H131 0.982 . S
C159 H135 0.979 . S
C159 H136 0.977 . S
C159 C156 1.453 . S
C160 H132 0.979 . S
C160 H133 0.980 . S
C160 H134 0.983 . S
C160 C156 1.684 . S
H161 C179 0.948 . S
H162 C120 0.948 . S
H163 C138 0.979 . S
H164 C138 0.980 . S
H165 C138 0.983 . S
H166 C137 0.982 . S
H167 C137 0.979 . S
H168 C137 0.977 . S
H169 C139 0.948 . S
H170 C141 0.947 . S
H171 C142 0.948 . S
H172 C148 0.982 . S
H173 C148 0.979 . S
H174 C148 0.977 . S
H175 C149 0.979 . S
H176 C149 0.980 . S
H177 C149 0.983 . S
H178 C122 0.947 . S
C179 C122 1.392 . S
C179 C123 1.419 . S
C179 H161 0.948 . S
C180 C181 1.391 . S
C180 C184 1.391 . S
C180 H222 0.948 . S
C181 C180 1.391 . S
C181 C182 1.391 . S
C182 C181 1.391 . S
C182 H238 0.947 . S
C182 C239 1.392 . S
C183 C184 1.391 . S
C183 C187 1.397 . S
C183 C239 1.419 . S
C184 C180 1.391 . S
C184 C183 1.391 . S
C184 C185 1.399 . S
C185 C184 1.399 . S
C185 C188 1.396 . S
C185 C197 1.453 . S
C185 C198 1.684 . S
H186 C210 0.948 . S
C187 C183 1.397 . S
C187 C188 1.394 . S
C187 C206 1.723 . S
C188 C185 1.396 . S
C188 C187 1.394 . S
C188 C218 1.723 . S
H189 C212 0.947 . S
H190 C213 0.948 . S
H191 C219 0.982 . S
H192 C220 0.979 . S
H193 C220 0.980 . S
H194 C220 0.983 1_655 S
H195 C219 0.979 . S
H196 C219 0.977 . S
C197 C185 1.453 . S
C197 H226 0.982 . S
C197 H227 0.979 . S
C197 H228 0.977 . S
C198 C185 1.684 . S
C198 H223 0.979 . S
C198 H224 0.980 . S
C198 H225 0.983 . S
C199 C200 1.391 . S
C199 C204 1.391 . S
C199 H229 0.948 . S
C200 C199 1.391 . S
C200 C201 1.391 . S
C201 C200 1.391 . S
C201 C202 1.392 . S
C201 H230 0.947 . S
C202 C201 1.392 . S
C202 C203 1.419 . S
C202 H231 0.948 . S
C203 C202 1.419 . S
C203 C204 1.391 . S
C203 C207 1.397 . S
C204 C199 1.391 . S
C204 C203 1.391 . S
C204 C205 1.399 . S
C205 C204 1.399 . S
C205 C206 1.396 . S
C205 C208 1.453 . S
C205 C209 1.684 . S
C206 C187 1.723 . S
C206 C205 1.396 . S
C206 C207 1.394 . S
C207 C203 1.397 . S
C207 C206 1.394 . S
C207 C217 1.723 . S
C208 C205 1.453 . S
C208 H232 0.982 . S
C208 H233 0.979 . S
C208 H234 0.977 . S
C209 C205 1.684 . S
C209 H235 0.979 . S
C209 H236 0.980 . S
C209 H237 0.983 . S
C210 H186 0.948 . S
C210 C211 1.391 . S
C210 C215 1.391 1_655 S
C211 C210 1.391 . S
C211 C212 1.388 . S
C212 H189 0.947 . S
C212 C211 1.388 . S
C212 C213 1.395 1_655 S
C213 H190 0.948 . S
C213 C212 1.395 1_455 S
C213 C214 1.419 . S
C214 C213 1.419 . S
C214 C215 1.391 . S
C214 C218 1.397 . S
C215 C210 1.391 1_455 S
C215 C214 1.391 . S
C215 C216 1.399 . S
C216 C215 1.399 . S
C216 C217 1.396 . S
C216 C219 1.453 1_455 S
C216 C220 1.684 . S
C217 C207 1.723 . S
C217 C216 1.396 . S
C217 C218 1.394 . S
C218 C188 1.723 . S
C218 C214 1.397 . S
C218 C217 1.394 . S
C219 H191 0.982 . S
C219 H195 0.979 . S
C219 H196 0.977 . S
C219 C216 1.453 1_655 S
C220 H192 0.979 . S
C220 H193 0.980 . S
C220 H194 0.983 1_455 S
C220 C216 1.684 . S
H221 C239 0.948 . S
H222 C180 0.948 . S
H223 C198 0.979 . S
H224 C198 0.980 . S
H225 C198 0.983 . S
H226 C197 0.982 . S
H227 C197 0.979 . S
H228 C197 0.977 . S
H229 C199 0.948 . S
H230 C201 0.947 . S
H231 C202 0.948 . S
H232 C208 0.982 . S
H233 C208 0.979 . S
H234 C208 0.977 . S
H235 C209 0.979 . S
H236 C209 0.980 . S
H237 C209 0.983 . S
H238 C182 0.947 . S
C239 C182 1.392 . S
C239 C183 1.419 . S
C239 H221 0.948 . S
C240 C241 1.391 . S
C240 C244 1.391 . S
C240 H282 0.948 . S
C241 C240 1.391 . S
C241 C242 1.391 . S
C242 C241 1.391 . S
C242 H298 0.947 . S
C242 C299 1.392 . S
C243 C244 1.391 . S
C243 C247 1.397 . S
C243 C299 1.419 . S
C244 C240 1.391 . S
C244 C243 1.391 . S
C244 C245 1.399 . S
C245 C244 1.399 . S
C245 C248 1.396 . S
C245 C257 1.453 . S
C245 C258 1.684 . S
H246 C270 0.948 . S
C247 C243 1.397 . S
C247 C248 1.394 . S
C247 C266 1.723 . S
C248 C245 1.396 . S
C248 C247 1.394 . S
C248 C278 1.723 1_655 S
H249 C272 0.947 . S
H250 C273 0.948 . S
H251 C279 0.982 . S
H252 C280 0.979 . S
H253 C280 0.980 . S
H254 C280 0.983 . S
H255 C279 0.979 . S
H256 C279 0.977 . S
C257 C245 1.453 . S
C257 H286 0.982 1_655 S
C257 H287 0.979 . S
C257 H288 0.977 1_655 S
C258 C245 1.684 . S
C258 H283 0.979 . S
C258 H284 0.980 . S
C258 H285 0.983 . S
C259 C260 1.391 1_655 S
C259 C264 1.391 . S
C259 H289 0.948 . S
C260 C259 1.391 1_455 S
C260 C261 1.391 . S
C261 C260 1.391 . S
C261 C262 1.392 . S
C261 H290 0.947 . S
C262 C261 1.392 . S
C262 C263 1.419 . S
C262 H291 0.948 . S
C263 C262 1.419 . S
C263 C264 1.391 1_455 S
C263 C267 1.397 . S
C264 C259 1.391 . S
C264 C263 1.391 1_655 S
C264 C265 1.399 . S
C265 C264 1.399 . S
C265 C266 1.396 . S
C265 C268 1.453 . S
C265 C269 1.684 . S
C266 C247 1.723 . S
C266 C265 1.396 . S
C266 C267 1.394 1_655 S
C267 C263 1.397 . S
C267 C266 1.394 1_455 S
C267 C277 1.723 . S
C268 C265 1.453 . S
C268 H292 0.982 . S
C268 H293 0.979 . S
C268 H294 0.977 . S
C269 C265 1.684 . S
C269 H295 0.979 . S
C269 H296 0.980 . S
C269 H297 0.983 . S
C270 H246 0.948 . S
C270 C271 1.391 . S
C270 C275 1.391 . S
C271 C270 1.391 . S
C271 C272 1.391 . S
C272 H249 0.947 . S
C272 C271 1.391 . S
C272 C273 1.392 . S
C273 H250 0.948 . S
C273 C272 1.392 . S
C273 C274 1.419 . S
C274 C273 1.419 . S
C274 C275 1.391 . S
C274 C278 1.397 . S
C275 C270 1.391 . S
C275 C274 1.391 . S
C275 C276 1.399 . S
C276 C275 1.399 . S
C276 C277 1.396 . S
C276 C279 1.453 . S
C276 C280 1.684 . S
C277 C267 1.723 . S
C277 C276 1.396 . S
C277 C278 1.394 . S
C278 C248 1.723 1_455 S
C278 C274 1.397 . S
C278 C277 1.394 . S
C279 H251 0.982 . S
C279 H255 0.979 . S
C279 H256 0.977 . S
C279 C276 1.453 . S
C280 H252 0.979 . S
C280 H253 0.980 . S
C280 H254 0.983 . S
C280 C276 1.684 . S
H281 C299 0.948 . S
H282 C240 0.948 . S
H283 C258 0.979 . S
H284 C258 0.980 . S
H285 C258 0.983 . S
H286 C257 0.982 1_455 S
H287 C257 0.979 . S
H288 C257 0.977 1_455 S
H289 C259 0.948 . S
H290 C261 0.947 . S
H291 C262 0.948 . S
H292 C268 0.982 . S
H293 C268 0.979 . S
H294 C268 0.977 . S
H295 C269 0.979 . S
H296 C269 0.980 . S
H297 C269 0.983 . S
H298 C242 0.947 . S
C299 C242 1.392 . S
C299 C243 1.419 . S
C299 H281 0.948 . S
C300 C301 1.391 . S
C300 C304 1.391 . S
C300 H342 0.948 . S
C301 C300 1.391 . S
C301 C302 1.391 . S
C302 C301 1.391 . S
C302 H358 0.947 . S
C302 C359 1.392 . S
C303 C304 1.391 . S
C303 C307 1.397 . S
C303 C359 1.419 . S
C304 C300 1.391 . S
C304 C303 1.391 . S
C304 C305 1.399 . S
C305 C304 1.399 . S
C305 C308 1.396 1_565 S
C305 C317 1.453 1_565 S
C305 C318 1.687 . S
H306 C330 0.948 . S
C307 C303 1.397 . S
C307 C308 1.394 1_565 S
C307 C326 1.723 . S
C308 C305 1.396 1_545 S
C308 C307 1.394 1_545 S
C308 C338 1.723 . S
H309 C332 0.947 . S
H310 C333 0.948 . S
H311 C339 0.982 . S
H312 C340 0.979 . S
H313 C340 0.980 . S
H314 C340 0.983 . S
H315 C339 0.979 . S
H316 C339 0.977 . S
C317 C305 1.453 1_545 S
C317 H346 0.982 . S
C317 H347 0.979 . S
C317 H348 0.977 . S
C318 C305 1.687 . S
C318 H343 0.980 . S
C318 H344 0.969 1_565 S
C318 H345 0.990 . S
C319 C320 1.391 1_565 S
C319 C324 1.391 . S
C319 H349 0.948 . S
C320 C319 1.391 1_545 S
C320 C321 1.391 . S
C321 C320 1.391 . S
C321 C322 1.392 . S
C321 H350 0.947 . S
C322 C321 1.392 . S
C322 C323 1.419 . S
C322 H351 0.948 . S
C323 C322 1.419 . S
C323 C324 1.391 1_545 S
C323 C327 1.397 . S
C324 C319 1.391 . S
C324 C323 1.391 1_565 S
C324 C325 1.399 . S
C325 C324 1.399 . S
C325 C326 1.396 . S
C325 C328 1.453 . S
C325 C329 1.684 . S
C326 C307 1.723 . S
C326 C325 1.396 . S
C326 C327 1.394 1_565 S
C327 C323 1.397 . S
C327 C326 1.394 1_545 S
C327 C337 1.723 . S
C328 C325 1.453 . S
C328 H352 0.982 . S
C328 H353 0.979 . S
C328 H354 0.977 . S
C329 C325 1.684 . S
C329 H355 0.979 . S
C329 H356 0.980 . S
C329 H357 0.983 . S
C330 H306 0.948 . S
C330 C331 1.391 . S
C330 C335 1.391 . S
C331 C330 1.391 . S
C331 C332 1.391 . S
C332 H309 0.947 . S
C332 C331 1.391 . S
C332 C333 1.392 . S
C333 H310 0.948 . S
C333 C332 1.392 . S
C333 C334 1.419 . S
C334 C333 1.419 . S
C334 C335 1.391 . S
C334 C338 1.397 . S
C335 C330 1.391 . S
C335 C334 1.391 . S
C335 C336 1.399 . S
C336 C335 1.399 . S
C336 C337 1.396 . S
C336 C339 1.453 . S
C336 C340 1.684 . S
C337 C327 1.723 . S
C337 C336 1.396 . S
C337 C338 1.394 . S
C338 C308 1.723 . S
C338 C334 1.397 . S
C338 C337 1.394 . S
C339 H311 0.982 . S
C339 H315 0.979 . S
C339 H316 0.977 . S
C339 C336 1.453 . S
C340 H312 0.979 . S
C340 H313 0.980 . S
C340 H314 0.983 . S
C340 C336 1.684 . S
H341 C359 0.948 . S
H342 C300 0.948 . S
H343 C318 0.980 . S
H344 C318 0.969 1_545 S
H345 C318 0.990 . S
H346 C317 0.982 . S
H347 C317 0.979 . S
H348 C317 0.977 . S
H349 C319 0.948 . S
H350 C321 0.947 . S
H351 C322 0.948 . S
H352 C328 0.982 . S
H353 C328 0.979 . S
H354 C328 0.977 . S
H355 C329 0.979 . S
H356 C329 0.980 . S
H357 C329 0.983 . S
H358 C302 0.947 . S
C359 C302 1.392 . S
C359 C303 1.419 . S
C359 H341 0.948 . S
C360 C361 1.391 . S
C360 C364 1.391 . S
C360 H402 0.948 . S
C361 C360 1.391 . S
C361 C362 1.391 . S
C362 C361 1.391 . S
C362 H418 0.947 . S
C362 C419 1.392 . S
C363 C364 1.391 . S
C363 C367 1.397 . S
C363 C419 1.419 . S
C364 C360 1.391 . S
C364 C363 1.391 . S
C364 C365 1.399 . S
C365 C364 1.399 . S
C365 C368 1.396 . S
C365 C377 1.453 . S
C365 C378 1.684 . S
H366 C390 0.948 . S
C367 C363 1.397 . S
C367 C368 1.394 . S
C367 C386 1.723 . S
C368 C365 1.396 . S
C368 C367 1.394 . S
C368 C398 1.723 . S
H369 C392 0.947 . S
H370 C393 0.948 . S
H371 C399 0.982 . S
H372 C400 0.979 . S
H373 C400 0.980 . S
H374 C400 0.983 . S
H375 C399 0.979 . S
H376 C399 0.977 . S
C377 C365 1.453 . S
C377 H406 0.982 . S
C377 H407 0.979 . S
C377 H408 0.977 . S
C378 C365 1.684 . S
C378 H403 0.979 . S
C378 H404 0.980 . S
C378 H405 0.983 . S
C379 C380 1.391 . S
C379 C384 1.391 . S
C379 H409 0.948 . S
C380 C379 1.391 . S
C380 C381 1.391 . S
C381 C380 1.391 . S
C381 C382 1.392 . S
C381 H410 0.947 . S
C382 C381 1.392 . S
C382 C383 1.419 . S
C382 H411 0.948 . S
C383 C382 1.419 . S
C383 C384 1.391 . S
C383 C387 1.397 . S
C384 C379 1.391 . S
C384 C383 1.391 . S
C384 C385 1.399 . S
C385 C384 1.399 . S
C385 C386 1.396 . S
C385 C388 1.453 . S
C385 C389 1.684 . S
C386 C367 1.723 . S
C386 C385 1.396 . S
C386 C387 1.394 . S
C387 C383 1.397 . S
C387 C386 1.394 . S
C387 C397 1.723 . S
C388 C385 1.453 . S
C388 H412 0.982 . S
C388 H413 0.979 . S
C388 H414 0.977 . S
C389 C385 1.684 . S
C389 H415 0.979 . S
C389 H416 0.980 . S
C389 H417 0.983 . S
C390 H366 0.948 . S
C390 C391 1.391 . S
C390 C395 1.391 . S
C391 C390 1.391 . S
C391 C392 1.391 . S
C392 H369 0.947 . S
C392 C391 1.391 . S
C392 C393 1.392 . S
C393 H370 0.948 . S
C393 C392 1.392 . S
C393 C394 1.419 . S
C394 C393 1.419 . S
C394 C395 1.391 . S
C394 C398 1.397 . S
C395 C390 1.391 . S
C395 C394 1.391 . S
C395 C396 1.399 . S
C396 C395 1.399 . S
C396 C397 1.396 . S
C396 C399 1.453 . S
C396 C400 1.684 . S
C397 C387 1.723 . S
C397 C396 1.396 . S
C397 C398 1.394 . S
C398 C368 1.723 . S
C398 C394 1.397 . S
C398 C397 1.394 . S
C399 H371 0.982 . S
C399 H375 0.979 . S
C399 H376 0.977 . S
C399 C396 1.453 . S
C400 H372 0.979 . S
C400 H373 0.980 . S
C400 H374 0.983 . S
C400 C396 1.684 . S
H401 C419 0.948 . S
H402 C360 0.948 . S
H403 C378 0.979 . S
H404 C378 0.980 . S
H405 C378 0.983 . S
H406 C377 0.982 . S
H407 C377 0.979 . S
H408 C377 0.977 . S
H409 C379 0.948 . S
H410 C381 0.947 . S
H411 C382 0.948 . S
H412 C388 0.982 . S
H413 C388 0.979 . S
H414 C388 0.977 . S
H415 C389 0.979 . S
H416 C389 0.980 . S
H417 C389 0.983 . S
H418 C362 0.947 . S
C419 C362 1.392 . S
C419 C363 1.419 . S
C419 H401 0.948 . S
H420 C428 0.929 . S
H421 C430 0.930 . S
H422 C432 0.930 . S
H423 C435 0.929 . S
H424 C438 0.930 . S
H425 C440 0.960 . S
H426 C440 0.960 . S
H427 C440 0.960 . S
C428 H420 0.929 . S
C428 C429 1.377 . S
C428 C430 1.384 . S
C429 C428 1.377 . S
C429 C435 1.390 . S
C430 H421 0.930 . S
C430 C428 1.384 . S
C430 C431 1.372 . S
C431 C430 1.372 . S
C431 C432 1.400 . S
C431 C436 1.490 . S
C432 H422 0.930 . S
C432 C431 1.400 . S
C432 C435 1.386 . S
H433 C449 0.930 . S
H434 C450 0.931 . S
C435 H423 0.929 . S
C435 C429 1.390 . S
C435 C432 1.386 . S
C436 C431 1.490 . S
C436 C438 1.395 . S
C436 C439 1.403 . S
H437 C443 0.930 . S
C438 H424 0.930 . S
C438 C436 1.395 . S
C438 C441 1.403 . S
C439 C436 1.403 . S
C439 C440 1.524 . S
C439 C443 1.400 . S
C440 H425 0.960 . S
C440 H426 0.960 . S
C440 H427 0.960 . S
C440 C439 1.524 . S
C441 C438 1.403 . S
C441 C442 1.392 . S
C441 C445 1.495 . S
C442 C441 1.392 . S
C442 C443 1.385 . S
C442 C444 1.478 . S
C443 H437 0.930 . S
C443 C439 1.400 . S
C443 C442 1.385 . S
C444 C442 1.478 . S
C444 C446 1.381 . S
C444 C450 1.383 . S
C445 C441 1.495 . S
C445 H451 0.959 . S
C445 H452 0.961 . S
C445 H453 0.960 . S
C446 C444 1.381 . S
C446 C447 1.394 . S
C446 H454 0.930 . S
C447 C446 1.394 . S
C447 C448 1.383 . S
C447 H455 0.929 . S
C448 C447 1.383 . S
C448 C449 1.377 . S
C449 H433 0.930 . S
C449 C448 1.377 . S
C449 C450 1.379 . S
C450 H434 0.931 . S
C450 C444 1.383 . S
C450 C449 1.379 . S
H451 C445 0.959 . S
H452 C445 0.961 . S
H453 C445 0.960 . S
H454 C446 0.930 . S
H455 C447 0.929 . S
H456 C464 0.929 . S
H457 C466 0.930 . S
H458 C468 0.930 . S
H459 C471 0.929 . S
H460 C474 0.930 . S
H461 C476 0.960 . S
H462 C476 0.960 . S
H463 C476 0.960 . S
C464 H456 0.929 . S
C464 C465 1.377 . S
C464 C466 1.384 . S
C465 C464 1.377 . S
C465 C471 1.390 . S
C466 H457 0.930 . S
C466 C464 1.384 . S
C466 C467 1.372 . S
C467 C466 1.372 . S
C467 C468 1.400 . S
C467 C472 1.490 . S
C468 H458 0.930 . S
C468 C467 1.400 . S
C468 C471 1.386 . S
H469 C485 0.930 . S
H470 C486 0.931 . S
C471 H459 0.929 . S
C471 C465 1.390 . S
C471 C468 1.386 . S
C472 C467 1.490 . S
C472 C474 1.395 . S
C472 C475 1.403 . S
H473 C479 0.930 . S
C474 H460 0.930 . S
C474 C472 1.395 . S
C474 C477 1.403 . S
C475 C472 1.403 . S
C475 C476 1.524 . S
C475 C479 1.400 . S
C476 H461 0.960 . S
C476 H462 0.960 . S
C476 H463 0.960 . S
C476 C475 1.524 . S
C477 C474 1.403 . S
C477 C478 1.392 . S
C477 C481 1.495 . S
C478 C477 1.392 . S
C478 C479 1.385 . S
C478 C480 1.478 . S
C479 H473 0.930 . S
C479 C475 1.400 . S
C479 C478 1.385 . S
C480 C478 1.478 . S
C480 C482 1.381 . S
C480 C486 1.383 . S
C481 C477 1.495 . S
C481 H487 0.959 . S
C481 H488 0.961 . S
C481 H489 0.960 . S
C482 C480 1.381 . S
C482 C483 1.394 . S
C482 H490 0.930 . S
C483 C482 1.394 . S
C483 C484 1.383 . S
C483 H491 0.929 . S
C484 C483 1.383 . S
C484 C485 1.377 . S
C485 H469 0.930 . S
C485 C484 1.377 . S
C485 C486 1.379 . S
C486 H470 0.931 . S
C486 C480 1.383 . S
C486 C485 1.379 . S
H487 C481 0.959 . S
H488 C481 0.961 . S
H489 C481 0.960 . S
H490 C482 0.930 . S
H491 C483 0.929 . S
H492 C500 0.929 . S
H493 C502 0.930 . S
H494 C504 0.930 . S
H495 C507 0.929 . S
H496 C510 0.930 . S
H497 C512 0.960 . S
H498 C512 0.960 . S
H499 C512 0.960 . S
C500 H492 0.929 . S
C500 C501 1.377 . S
C500 C502 1.384 . S
C501 C500 1.377 . S
C501 C507 1.390 . S
C502 H493 0.930 . S
C502 C500 1.384 . S
C502 C503 1.372 . S
C503 C502 1.372 . S
C503 C504 1.400 . S
C503 C508 1.490 . S
C504 H494 0.930 . S
C504 C503 1.400 . S
C504 C507 1.386 . S
H505 C521 0.930 . S
H506 C522 0.931 . S
C507 H495 0.929 . S
C507 C501 1.390 . S
C507 C504 1.386 . S
C508 C503 1.490 . S
C508 C510 1.395 . S
C508 C511 1.403 . S
H509 C515 0.930 . S
C510 H496 0.930 . S
C510 C508 1.395 . S
C510 C513 1.403 . S
C511 C508 1.403 . S
C511 C512 1.524 . S
C511 C515 1.400 . S
C512 H497 0.960 . S
C512 H498 0.960 . S
C512 H499 0.960 . S
C512 C511 1.524 . S
C513 C510 1.403 . S
C513 C514 1.392 . S
C513 C517 1.495 . S
C514 C513 1.392 . S
C514 C515 1.385 . S
C514 C516 1.478 . S
C515 H509 0.930 . S
C515 C511 1.400 . S
C515 C514 1.385 . S
C516 C514 1.478 . S
C516 C518 1.381 . S
C516 C522 1.383 . S
C517 C513 1.495 . S
C517 H523 0.959 . S
C517 H524 0.961 . S
C517 H525 0.960 . S
C518 C516 1.381 . S
C518 C519 1.394 . S
C518 H526 0.930 . S
C519 C518 1.394 . S
C519 C520 1.383 . S
C519 H527 0.929 . S
C520 C519 1.383 . S
C520 C521 1.377 . S
C521 H505 0.930 . S
C521 C520 1.377 . S
C521 C522 1.379 . S
C522 H506 0.931 . S
C522 C516 1.383 . S
C522 C521 1.379 . S
H523 C517 0.959 . S
H524 C517 0.961 . S
H525 C517 0.960 . S
H526 C518 0.930 . S
H527 C519 0.929 . S
H528 C536 0.929 . S
H529 C538 0.930 . S
H530 C540 0.930 . S
H531 C543 0.929 . S
H532 C546 0.930 . S
H533 C548 0.960 . S
H534 C548 0.960 . S
H535 C548 0.960 . S
C536 H528 0.929 . S
C536 C537 1.377 . S
C536 C538 1.384 . S
C537 C536 1.377 . S
C537 C543 1.390 . S
C538 H529 0.930 . S
C538 C536 1.384 . S
C538 C539 1.372 . S
C539 C538 1.372 . S
C539 C540 1.400 . S
C539 C544 1.490 . S
C540 H530 0.930 . S
C540 C539 1.400 . S
C540 C543 1.386 . S
H541 C557 0.930 . S
H542 C558 0.931 . S
C543 H531 0.929 . S
C543 C537 1.390 . S
C543 C540 1.386 . S
C544 C539 1.490 . S
C544 C546 1.395 . S
C544 C547 1.403 . S
H545 C551 0.930 . S
C546 H532 0.930 . S
C546 C544 1.395 . S
C546 C549 1.403 . S
C547 C544 1.403 . S
C547 C548 1.524 . S
C547 C551 1.400 . S
C548 H533 0.960 . S
C548 H534 0.960 . S
C548 H535 0.960 . S
C548 C547 1.524 . S
C549 C546 1.403 . S
C549 C550 1.392 . S
C549 C553 1.495 . S
C550 C549 1.392 . S
C550 C551 1.385 . S
C550 C552 1.478 . S
C551 H545 0.930 . S
C551 C547 1.400 . S
C551 C550 1.385 . S
C552 C550 1.478 . S
C552 C554 1.381 . S
C552 C558 1.383 . S
C553 C549 1.495 . S
C553 H559 0.959 . S
C553 H560 0.961 . S
C553 H561 0.960 . S
C554 C552 1.381 . S
C554 C555 1.394 . S
C554 H562 0.930 . S
C555 C554 1.394 . S
C555 C556 1.383 . S
C555 H563 0.929 . S
C556 C555 1.383 . S
C556 C557 1.377 . S
C557 H541 0.930 . S
C557 C556 1.377 . S
C557 C558 1.379 . S
C558 H542 0.931 . S
C558 C552 1.383 . S
C558 C557 1.379 . S
H559 C553 0.959 . S
H560 C553 0.961 . S
H561 C553 0.960 . S
H562 C554 0.930 . S
H563 C555 0.929 . S
H564 C572 0.929 . S
H565 C574 0.930 . S
H566 C576 0.930 . S
H567 C579 0.929 . S
H568 C582 0.930 . S
H569 C584 0.960 . S
H570 C584 0.960 . S
H571 C584 0.960 . S
C572 H564 0.929 . S
C572 C573 1.377 . S
C572 C574 1.384 . S
C573 C572 1.377 . S
C573 C579 1.390 . S
C574 H565 0.930 . S
C574 C572 1.384 . S
C574 C575 1.372 . S
C575 C574 1.372 . S
C575 C576 1.400 . S
C575 C580 1.490 . S
C576 H566 0.930 . S
C576 C575 1.400 . S
C576 C579 1.386 . S
H577 C593 0.930 . S
H578 C594 0.931 . S
C579 H567 0.929 . S
C579 C573 1.390 . S
C579 C576 1.386 . S
C580 C575 1.490 . S
C580 C582 1.395 . S
C580 C583 1.403 . S
H581 C587 0.930 . S
C582 H568 0.930 . S
C582 C580 1.395 . S
C582 C585 1.403 . S
C583 C580 1.403 . S
C583 C584 1.524 . S
C583 C587 1.400 . S
C584 H569 0.960 . S
C584 H570 0.960 . S
C584 H571 0.960 . S
C584 C583 1.524 . S
C585 C582 1.403 . S
C585 C586 1.392 . S
C585 C589 1.495 . S
C586 C585 1.392 . S
C586 C587 1.385 . S
C586 C588 1.478 . S
C587 H581 0.930 . S
C587 C583 1.400 . S
C587 C586 1.385 . S
C588 C586 1.478 . S
C588 C590 1.381 . S
C588 C594 1.383 . S
C589 C585 1.495 . S
C589 H595 0.959 . S
C589 H596 0.961 . S
C589 H597 0.960 . S
C590 C588 1.381 . S
C590 C591 1.394 . S
C590 H598 0.930 . S
C591 C590 1.394 . S
C591 C592 1.383 . S
C591 H599 0.929 . S
C592 C591 1.383 . S
C592 C593 1.377 . S
C593 H577 0.930 . S
C593 C592 1.377 . S
C593 C594 1.379 . S
C594 H578 0.931 . S
C594 C588 1.383 . S
C594 C593 1.379 . S
H595 C589 0.959 . S
H596 C589 0.961 . S
H597 C589 0.960 . S
H598 C590 0.930 . S
H599 C591 0.929 . S
H600 C608 0.929 . S
H601 C610 0.930 . S
H602 C612 0.930 . S
H603 C615 0.929 . S
H604 C618 0.930 . S
H605 C620 0.960 . S
H606 C620 0.960 . S
H607 C620 0.960 . S
C608 H600 0.929 . S
C608 C609 1.377 . S
C608 C610 1.384 . S
C609 C608 1.377 . S
C609 C615 1.390 . S
C610 H601 0.930 . S
C610 C608 1.384 . S
C610 C611 1.372 . S
C611 C610 1.372 . S
C611 C612 1.400 . S
C611 C616 1.490 . S
C612 H602 0.930 . S
C612 C611 1.400 . S
C612 C615 1.386 . S
H613 C629 0.930 . S
H614 C630 0.931 . S
C615 H603 0.929 . S
C615 C609 1.390 . S
C615 C612 1.386 . S
C616 C611 1.490 . S
C616 C618 1.395 . S
C616 C619 1.403 . S
H617 C623 0.930 . S
C618 H604 0.930 . S
C618 C616 1.395 . S
C618 C621 1.403 . S
C619 C616 1.403 . S
C619 C620 1.524 . S
C619 C623 1.400 . S
C620 H605 0.960 . S
C620 H606 0.960 . S
C620 H607 0.960 . S
C620 C619 1.524 . S
C621 C618 1.403 . S
C621 C622 1.392 . S
C621 C625 1.495 . S
C622 C621 1.392 . S
C622 C623 1.385 . S
C622 C624 1.478 . S
C623 H617 0.930 . S
C623 C619 1.400 . S
C623 C622 1.385 . S
C624 C622 1.478 . S
C624 C626 1.381 . S
C624 C630 1.383 . S
C625 C621 1.495 . S
C625 H631 0.959 . S
C625 H632 0.961 . S
C625 H633 0.960 . S
C626 C624 1.381 . S
C626 C627 1.394 . S
C626 H634 0.930 . S
C627 C626 1.394 . S
C627 C628 1.383 . S
C627 H635 0.929 . S
C628 C627 1.383 . S
C628 C629 1.377 . S
C629 H613 0.930 . S
C629 C628 1.377 . S
C629 C630 1.379 . S
C630 H614 0.931 . S
C630 C624 1.383 . S
C630 C629 1.379 . S
H631 C625 0.959 . S
H632 C625 0.961 . S
H633 C625 0.960 . S
H634 C626 0.930 . S
H635 C627 0.929 . S
H636 C644 0.929 . S
H637 C646 0.930 . S
H638 C648 0.930 . S
H639 C651 0.929 . S
H640 C654 0.930 . S
H641 C656 0.960 . S
H642 C656 0.960 . S
H643 C656 0.960 . S
C644 H636 0.929 . S
C644 C645 1.377 . S
C644 C646 1.384 . S
C645 C644 1.377 . S
C645 C651 1.390 . S
C646 H637 0.930 . S
C646 C644 1.384 . S
C646 C647 1.372 . S
C647 C646 1.372 . S
C647 C648 1.400 . S
C647 C652 1.490 . S
C648 H638 0.930 . S
C648 C647 1.400 . S
C648 C651 1.386 . S
H649 C665 0.930 . S
H650 C666 0.931 . S
C651 H639 0.929 . S
C651 C645 1.390 . S
C651 C648 1.386 . S
C652 C647 1.490 . S
C652 C654 1.395 . S
C652 C655 1.403 . S
H653 C659 0.930 . S
C654 H640 0.930 . S
C654 C652 1.395 . S
C654 C657 1.403 . S
C655 C652 1.403 . S
C655 C656 1.524 . S
C655 C659 1.400 . S
C656 H641 0.960 . S
C656 H642 0.960 . S
C656 H643 0.960 . S
C656 C655 1.524 . S
C657 C654 1.403 . S
C657 C658 1.392 . S
C657 C661 1.495 . S
C658 C657 1.392 . S
C658 C659 1.385 . S
C658 C660 1.478 . S
C659 H653 0.930 . S
C659 C655 1.400 . S
C659 C658 1.385 . S
C660 C658 1.478 . S
C660 C662 1.381 . S
C660 C666 1.383 . S
C661 C657 1.495 . S
C661 H667 0.959 . S
C661 H668 0.961 . S
C661 H669 0.960 . S
C662 C660 1.381 . S
C662 C663 1.394 . S
C662 H670 0.930 . S
C663 C662 1.394 . S
C663 C664 1.383 . S
C663 H671 0.929 . S
C664 C663 1.383 . S
C664 C665 1.377 . S
C665 H649 0.930 . S
C665 C664 1.377 . S
C665 C666 1.379 . S
C666 H650 0.931 . S
C666 C660 1.383 . S
C666 C665 1.379 . S
H667 C661 0.959 . S
H668 C661 0.961 . S
H669 C661 0.960 . S
H670 C662 0.930 . S
H671 C663 0.929 . S
H672 C680 0.929 . S
H673 C682 0.930 . S
H674 C684 0.930 . S
H675 C687 0.929 . S
H676 C690 0.930 . S
H677 C692 0.960 . S
H678 C692 0.960 . S
H679 C692 0.960 . S
C680 H672 0.929 . S
C680 C681 1.377 . S
C680 C682 1.384 . S
C681 C680 1.377 . S
C681 C687 1.390 . S
C682 H673 0.930 . S
C682 C680 1.384 . S
C682 C683 1.372 . S
C683 C682 1.372 . S
C683 C684 1.400 . S
C683 C688 1.490 . S
C684 H674 0.930 . S
C684 C683 1.400 . S
C684 C687 1.386 . S
H685 C701 0.930 . S
H686 C702 0.931 . S
C687 H675 0.929 . S
C687 C681 1.390 . S
C687 C684 1.386 . S
C688 C683 1.490 . S
C688 C690 1.395 . S
C688 C691 1.403 . S
H689 C695 0.930 . S
C690 H676 0.930 . S
C690 C688 1.395 . S
C690 C693 1.403 . S
C691 C688 1.403 . S
C691 C692 1.524 . S
C691 C695 1.400 . S
C692 H677 0.960 . S
C692 H678 0.960 . S
C692 H679 0.960 . S
C692 C691 1.524 . S
C693 C690 1.403 . S
C693 C694 1.392 . S
C693 C697 1.495 . S
C694 C693 1.392 . S
C694 C695 1.385 . S
C694 C696 1.478 . S
C695 H689 0.930 . S
C695 C691 1.400 . S
C695 C694 1.385 . S
C696 C694 1.478 . S
C696 C698 1.381 . S
C696 C702 1.383 . S
C697 C693 1.495 . S
C697 H703 0.959 . S
C697 H704 0.961 . S
C697 H705 0.960 . S
C698 C696 1.381 . S
C698 C699 1.394 . S
C698 H706 0.930 . S
C699 C698 1.394 . S
C699 C700 1.383 . S
C699 H707 0.929 . S
C700 C699 1.383 . S
C700 C701 1.377 . S
C701 H685 0.930 . S
C701 C700 1.377 . S
C701 C702 1.379 . S
C702 H686 0.931 . S
C702 C696 1.383 . S
C702 C701 1.379 . S
H703 C697 0.959 . S
H704 C697 0.961 . S
H705 C697 0.960 . S
H706 C698 0.930 . S
H707 C699 0.929 . S
H708 C716 0.929 . S
H709 C718 0.930 . S
H710 C720 0.930 . S
H711 C723 0.929 . S
H712 C726 0.930 . S
H713 C728 0.960 . S
H714 C728 0.960 . S
H715 C728 0.960 . S
C716 H708 0.929 . S
C716 C717 1.377 . S
C716 C718 1.384 . S
C717 C716 1.377 . S
C717 C723 1.390 . S
C718 H709 0.930 . S
C718 C716 1.384 . S
C718 C719 1.372 . S
C719 C718 1.372 . S
C719 C720 1.400 . S
C719 C724 1.490 . S
C720 H710 0.930 . S
C720 C719 1.400 . S
C720 C723 1.386 . S
H721 C737 0.930 . S
H722 C738 0.931 . S
C723 H711 0.929 . S
C723 C717 1.390 . S
C723 C720 1.386 . S
C724 C719 1.490 . S
C724 C726 1.395 . S
C724 C727 1.403 . S
H725 C731 0.930 . S
C726 H712 0.930 . S
C726 C724 1.395 . S
C726 C729 1.403 . S
C727 C724 1.403 . S
C727 C728 1.524 . S
C727 C731 1.400 . S
C728 H713 0.960 . S
C728 H714 0.960 . S
C728 H715 0.960 . S
C728 C727 1.524 . S
C729 C726 1.403 . S
C729 C730 1.392 . S
C729 C733 1.495 . S
C730 C729 1.392 . S
C730 C731 1.385 . S
C730 C732 1.478 . S
C731 H725 0.930 . S
C731 C727 1.400 . S
C731 C730 1.385 . S
C732 C730 1.478 . S
C732 C734 1.381 . S
C732 C738 1.383 . S
C733 C729 1.495 . S
C733 H739 0.959 . S
C733 H740 0.961 . S
C733 H741 0.960 . S
C734 C732 1.381 . S
C734 C735 1.394 . S
C734 H742 0.930 . S
C735 C734 1.394 . S
C735 C736 1.383 . S
C735 H743 0.929 . S
C736 C735 1.383 . S
C736 C737 1.377 . S
C737 H721 0.930 . S
C737 C736 1.377 . S
C737 C738 1.379 . S
C738 H722 0.931 . S
C738 C732 1.383 . S
C738 C737 1.379 . S
H739 C733 0.959 . S
H740 C733 0.961 . S
H741 C733 0.960 . S
H742 C734 0.930 . S
H743 C735 0.929 . S
H744 C752 0.929 . S
H745 C754 0.930 . S
H746 C756 0.930 . S
H747 C759 0.929 . S
H748 C762 0.930 . S
H749 C764 0.960 . S
H750 C764 0.960 . S
H751 C764 0.960 . S
C752 H744 0.929 . S
C752 C753 1.377 . S
C752 C754 1.384 . S
C753 C752 1.377 . S
C753 C759 1.390 . S
C754 H745 0.930 . S
C754 C752 1.384 . S
C754 C755 1.372 . S
C755 C754 1.372 . S
C755 C756 1.400 . S
C755 C760 1.490 . S
C756 H746 0.930 . S
C756 C755 1.400 . S
C756 C759 1.386 . S
H757 C773 0.930 . S
H758 C774 0.931 . S
C759 H747 0.929 . S
C759 C753 1.390 . S
C759 C756 1.386 . S
C760 C755 1.490 . S
C760 C762 1.395 . S
C760 C763 1.403 . S
H761 C767 0.930 . S
C762 H748 0.930 . S
C762 C760 1.395 . S
C762 C765 1.403 . S
C763 C760 1.403 . S
C763 C764 1.524 . S
C763 C767 1.400 . S
C764 H749 0.960 . S
C764 H750 0.960 . S
C764 H751 0.960 . S
C764 C763 1.524 . S
C765 C762 1.403 . S
C765 C766 1.392 . S
C765 C769 1.495 . S
C766 C765 1.392 . S
C766 C767 1.385 . S
C766 C768 1.478 . S
C767 H761 0.930 . S
C767 C763 1.400 . S
C767 C766 1.385 . S
C768 C766 1.478 . S
C768 C770 1.381 . S
C768 C774 1.383 . S
C769 C765 1.495 . S
C769 H775 0.959 . S
C769 H776 0.961 . S
C769 H777 0.960 . S
C770 C768 1.381 . S
C770 C771 1.394 . S
C770 H778 0.930 . S
C771 C770 1.394 . S
C771 C772 1.383 . S
C771 H779 0.929 . S
C772 C771 1.383 . S
C772 C773 1.377 . S
C773 H757 0.930 . S
C773 C772 1.377 . S
C773 C774 1.379 . S
C774 H758 0.931 . S
C774 C768 1.383 . S
C774 C773 1.379 . S
H775 C769 0.959 . S
H776 C769 0.961 . S
H777 C769 0.960 . S
H778 C770 0.930 . S
H779 C771 0.929 . S
H780 C788 0.929 . S
H781 C790 0.930 . S
H782 C792 0.930 . S
H783 C795 0.929 . S
H784 C798 0.930 . S
H785 C800 0.960 . S
H786 C800 0.960 . S
H787 C800 0.960 . S
C788 H780 0.929 . S
C788 C789 1.377 . S
C788 C790 1.384 . S
C789 C788 1.377 . S
C789 C795 1.390 . S
C790 H781 0.930 . S
C790 C788 1.384 . S
C790 C791 1.372 . S
C791 C790 1.372 . S
C791 C792 1.400 . S
C791 C796 1.490 . S
C792 H782 0.930 . S
C792 C791 1.400 . S
C792 C795 1.386 . S
H793 C809 0.930 . S
H794 C810 0.931 . S
C795 H783 0.929 . S
C795 C789 1.390 . S
C795 C792 1.386 . S
C796 C791 1.490 . S
C796 C798 1.395 . S
C796 C799 1.403 . S
H797 C803 0.930 . S
C798 H784 0.930 . S
C798 C796 1.395 . S
C798 C801 1.403 . S
C799 C796 1.403 . S
C799 C800 1.524 . S
C799 C803 1.400 . S
C800 H785 0.960 . S
C800 H786 0.960 . S
C800 H787 0.960 . S
C800 C799 1.524 . S
C801 C798 1.403 . S
C801 C802 1.392 . S
C801 C805 1.495 . S
C802 C801 1.392 . S
C802 C803 1.385 . S
C802 C804 1.478 . S
C803 H797 0.930 . S
C803 C799 1.400 . S
C803 C802 1.385 . S
C804 C802 1.478 . S
C804 C806 1.381 . S
C804 C810 1.383 . S
C805 C801 1.495 . S
C805 H811 0.959 . S
C805 H812 0.961 . S
C805 H813 0.960 . S
C806 C804 1.381 . S
C806 C807 1.394 . S
C806 H814 0.930 . S
C807 C806 1.394 . S
C807 C808 1.383 . S
C807 H815 0.929 . S
C808 C807 1.383 . S
C808 C809 1.377 . S
C809 H793 0.930 . S
C809 C808 1.377 . S
C809 C810 1.379 . S
C810 H794 0.931 . S
C810 C804 1.383 . S
C810 C809 1.379 . S
H811 C805 0.959 . S
H812 C805 0.961 . S
H813 C805 0.960 . S
H814 C806 0.930 . S
H815 C807 0.929 . S
H816 C824 0.929 . S
H817 C826 0.930 . S
H818 C828 0.930 . S
H819 C831 0.929 . S
H820 C834 0.930 . S
H821 C836 0.960 . S
H822 C836 0.960 . S
H823 C836 0.960 . S
C824 H816 0.929 . S
C824 C825 1.377 . S
C824 C826 1.384 . S
C825 C824 1.377 . S
C825 C831 1.390 . S
C826 H817 0.930 . S
C826 C824 1.384 . S
C826 C827 1.372 . S
C827 C826 1.372 . S
C827 C828 1.400 . S
C827 C832 1.490 . S
C828 H818 0.930 . S
C828 C827 1.400 . S
C828 C831 1.386 . S
H829 C845 0.930 . S
H830 C846 0.931 . S
C831 H819 0.929 . S
C831 C825 1.390 . S
C831 C828 1.386 . S
C832 C827 1.490 . S
C832 C834 1.395 . S
C832 C835 1.403 . S
H833 C839 0.930 . S
C834 H820 0.930 . S
C834 C832 1.395 . S
C834 C837 1.403 . S
C835 C832 1.403 . S
C835 C836 1.524 . S
C835 C839 1.400 . S
C836 H821 0.960 . S
C836 H822 0.960 . S
C836 H823 0.960 . S
C836 C835 1.524 . S
C837 C834 1.403 . S
C837 C838 1.392 . S
C837 C841 1.495 . S
C838 C837 1.392 . S
C838 C839 1.385 . S
C838 C840 1.478 . S
C839 H833 0.930 . S
C839 C835 1.400 . S
C839 C838 1.385 . S
C840 C838 1.478 . S
C840 C842 1.381 . S
C840 C846 1.383 . S
C841 C837 1.495 . S
C841 H847 0.959 . S
C841 H848 0.961 . S
C841 H849 0.960 . S
C842 C840 1.381 . S
C842 C843 1.394 . S
C842 H850 0.930 . S
C843 C842 1.394 . S
C843 C844 1.383 . S
C843 H851 0.929 . S
C844 C843 1.383 . S
C844 C845 1.377 . S
C845 H829 0.930 . S
C845 C844 1.377 . S
C845 C846 1.379 . S
C846 H830 0.931 . S
C846 C840 1.383 . S
C846 C845 1.379 . S
H847 C841 0.959 . S
H848 C841 0.961 . S
H849 C841 0.960 . S
H850 C842 0.930 . S
H851 C843 0.929 . S
H852 C860 0.929 . S
H853 C862 0.930 . S
H854 C864 0.930 . S
H855 C867 0.929 . S
H856 C870 0.930 . S
H857 C872 0.960 . S
H858 C872 0.960 . S
H859 C872 0.960 . S
C860 H852 0.929 . S
C860 C861 1.377 . S
C860 C862 1.384 . S
C861 C860 1.377 . S
C861 C867 1.390 . S
C862 H853 0.930 . S
C862 C860 1.384 . S
C862 C863 1.372 . S
C863 C862 1.372 . S
C863 C864 1.400 . S
C863 C868 1.490 . S
C864 H854 0.930 . S
C864 C863 1.400 . S
C864 C867 1.386 . S
H865 C881 0.930 . S
H866 C882 0.931 . S
C867 H855 0.929 . S
C867 C861 1.390 . S
C867 C864 1.386 . S
C868 C863 1.490 . S
C868 C870 1.395 . S
C868 C871 1.403 . S
H869 C875 0.930 . S
C870 H856 0.930 . S
C870 C868 1.395 . S
C870 C873 1.403 . S
C871 C868 1.403 . S
C871 C872 1.524 . S
C871 C875 1.400 . S
C872 H857 0.960 . S
C872 H858 0.960 . S
C872 H859 0.960 . S
C872 C871 1.524 . S
C873 C870 1.403 . S
C873 C874 1.392 . S
C873 C877 1.495 1_455 S
C874 C873 1.392 . S
C874 C875 1.385 . S
C874 C876 1.478 . S
C875 H869 0.930 . S
C875 C871 1.400 . S
C875 C874 1.385 . S
C876 C874 1.478 . S
C876 C878 1.381 1_554 S
C876 C882 1.383 . S
C877 C873 1.495 1_655 S
C877 H883 0.959 . S
C877 H884 0.961 . S
C877 H885 0.953 1_655 S
C878 C876 1.381 1_556 S
C878 C879 1.394 . S
C878 H886 0.958 . S
C879 C878 1.394 . S
C879 C880 1.383 . S
C879 H887 0.929 . S
C880 C879 1.383 . S
C880 C881 1.377 . S
C881 H865 0.930 . S
C881 C880 1.377 . S
C881 C882 1.379 1_556 S
C882 H866 0.931 . S
C882 C876 1.383 . S
C882 C881 1.379 1_554 S
H883 C877 0.959 . S
H884 C877 0.961 . S
H885 C877 0.953 1_455 S
H886 C878 0.958 . S
H887 C879 0.929 . S
H888 C896 0.929 . S
H889 C898 0.930 . S
H890 C900 0.930 . S
H891 C903 0.929 . S
H892 C906 0.930 . S
H893 C908 0.960 . S
H894 C908 0.960 . S
H895 C908 0.960 . S
C896 H888 0.929 . S
C896 C897 1.377 . S
C896 C898 1.384 . S
C897 C896 1.377 . S
C897 C903 1.390 . S
C898 H889 0.930 . S
C898 C896 1.384 . S
C898 C899 1.372 . S
C899 C898 1.372 . S
C899 C900 1.400 . S
C899 C904 1.490 . S
C900 H890 0.930 . S
C900 C899 1.400 . S
C900 C903 1.386 . S
H901 C917 0.930 . S
H902 C918 0.931 . S
C903 H891 0.929 . S
C903 C897 1.390 . S
C903 C900 1.386 . S
C904 C899 1.490 . S
C904 C906 1.395 . S
C904 C907 1.403 . S
H905 C911 0.930 . S
C906 H892 0.930 . S
C906 C904 1.395 . S
C906 C909 1.403 . S
C907 C904 1.403 . S
C907 C908 1.524 1_545 S
C907 C911 1.400 . S
C908 H893 0.960 . S
C908 H894 0.960 . S
C908 H895 0.960 . S
C908 C907 1.524 1_565 S
C909 C906 1.403 . S
C909 C910 1.392 . S
C909 C913 1.495 . S
C910 C909 1.392 . S
C910 C911 1.385 . S
C910 C912 1.478 . S
C911 H905 0.930 . S
C911 C907 1.400 . S
C911 C910 1.385 . S
C912 C910 1.478 . S
C912 C914 1.381 . S
C912 C918 1.383 . S
C913 C909 1.495 . S
C913 H919 0.959 . S
C913 H920 0.961 . S
C913 H921 0.960 . S
C914 C912 1.381 . S
C914 C915 1.394 . S
C914 H922 0.930 . S
C915 C914 1.394 . S
C915 C916 1.383 . S
C915 H923 0.929 . S
C916 C915 1.383 . S
C916 C917 1.377 . S
C917 H901 0.930 . S
C917 C916 1.377 . S
C917 C918 1.379 . S
C918 H902 0.931 . S
C918 C912 1.383 . S
C918 C917 1.379 . S
H919 C913 0.959 . S
H920 C913 0.961 . S
H921 C913 0.960 . S
H922 C914 0.930 . S
H923 C915 0.929 . S
H924 C932 0.929 . S
H925 C934 0.930 . S
H926 C936 0.930 . S
H927 C939 0.929 . S
H928 C942 0.930 . S
H929 C944 0.960 . S
H930 C944 0.960 . S
H931 C944 0.960 . S
C932 H924 0.929 . S
C932 C933 1.377 . S
C932 C934 1.384 . S
C933 C932 1.377 . S
C933 C939 1.390 . S
C934 H925 0.930 . S
C934 C932 1.384 . S
C934 C935 1.372 . S
C935 C934 1.372 . S
C935 C936 1.400 . S
C935 C940 1.490 . S
C936 H926 0.930 . S
C936 C935 1.400 . S
C936 C939 1.386 . S
H937 C953 0.930 . S
H938 C954 0.931 . S
C939 H927 0.929 . S
C939 C933 1.390 . S
C939 C936 1.386 . S
C940 C935 1.490 . S
C940 C942 1.395 . S
C940 C943 1.403 . S
H941 C947 0.930 . S
C942 H928 0.930 . S
C942 C940 1.395 . S
C942 C945 1.403 . S
C943 C940 1.403 . S
C943 C944 1.524 . S
C943 C947 1.400 . S
C944 H929 0.960 . S
C944 H930 0.960 . S
C944 H931 0.960 . S
C944 C943 1.524 . S
C945 C942 1.403 . S
C945 C946 1.392 . S
C945 C949 1.495 . S
C946 C945 1.392 . S
C946 C947 1.385 . S
C946 C948 1.478 . S
C947 H941 0.930 . S
C947 C943 1.400 . S
C947 C946 1.385 . S
C948 C946 1.478 . S
C948 C950 1.381 . S
C948 C954 1.383 . S
C949 C945 1.495 . S
C949 H955 0.959 . S
C949 H956 0.961 . S
C949 H957 0.960 . S
C950 C948 1.381 . S
C950 C951 1.394 . S
C950 H958 0.930 . S
C951 C950 1.394 . S
C951 C952 1.383 . S
C951 H959 0.929 . S
C952 C951 1.383 . S
C952 C953 1.377 . S
C953 H937 0.930 . S
C953 C952 1.377 . S
C953 C954 1.379 . S
C954 H938 0.931 . S
C954 C948 1.383 . S
C954 C953 1.379 . S
H955 C949 0.959 . S
H956 C949 0.961 . S
H957 C949 0.960 . S
H958 C950 0.930 . S
H959 C951 0.929 . S
H960 C968 0.929 . S
H961 C970 0.930 . S
H962 C972 0.930 . S
H963 C975 0.929 . S
H964 C978 0.930 . S
H965 C980 0.960 . S
H966 C980 0.960 . S
H967 C980 0.960 . S
C968 H960 0.929 . S
C968 C969 1.377 . S
C968 C970 1.384 . S
C969 C968 1.377 . S
C969 C975 1.390 1_545 S
C970 H961 0.930 . S
C970 C968 1.384 . S
C970 C971 1.372 . S
C971 C970 1.372 . S
C971 C972 1.400 1_545 S
C971 C976 1.490 . S
C972 H962 0.930 . S
C972 C971 1.400 1_565 S
C972 C975 1.386 . S
H973 C989 0.930 . S
H974 C990 0.931 . S
C975 H963 0.929 . S
C975 C969 1.390 1_565 S
C975 C972 1.386 . S
C976 C971 1.490 . S
C976 C978 1.395 . S
C976 C979 1.403 1_545 S
H977 C983 0.930 . S
C978 H964 0.930 . S
C978 C976 1.395 . S
C978 C981 1.403 . S
C979 C976 1.403 1_565 S
C979 C980 1.524 . S
C979 C983 1.400 . S
C980 H965 0.960 . S
C980 H966 0.960 . S
C980 H967 0.960 . S
C980 C979 1.524 . S
C981 C978 1.403 . S
C981 C982 1.392 . S
C981 C985 1.495 . S
C982 C981 1.392 . S
C982 C983 1.385 1_545 S
C982 C984 1.478 . S
C983 H977 0.930 . S
C983 C979 1.400 . S
C983 C982 1.385 1_565 S
C984 C982 1.478 . S
C984 C986 1.381 . S
C984 C990 1.383 1_545 S
C985 C981 1.495 . S
C985 H991 0.959 . S
C985 H992 0.961 . S
C985 H993 0.960 . S
C986 C984 1.381 . S
C986 C987 1.394 . S
C986 H994 0.930 . S
C987 C986 1.394 . S
C987 C988 1.383 . S
C987 H995 0.929 . S
C988 C987 1.383 . S
C988 C989 1.377 1_545 S
C989 H973 0.930 . S
C989 C988 1.377 1_565 S
C989 C990 1.379 . S
C990 H974 0.931 . S
C990 C984 1.383 1_565 S
C990 C989 1.379 . S
H991 C985 0.959 . S
H992 C985 0.961 . S
H993 C985 0.960 . S
H994 C986 0.930 . S
H995 C987 0.929 . S
H996 C1004 0.929 . S
H997 C1006 0.930 . S
H998 C1008 0.930 . S
H999 C1011 0.929 . S
H1000 C1014 0.930 . S
H1001 C1016 0.960 . S
H1002 C1016 0.960 . S
H1003 C1016 0.960 . S
C1004 H996 0.929 . S
C1004 C1005 1.377 . S
C1004 C1006 1.384 . S
C1005 C1004 1.377 . S
C1005 C1011 1.390 . S
C1006 H997 0.930 . S
C1006 C1004 1.384 . S
C1006 C1007 1.372 . S
C1007 C1006 1.372 . S
C1007 C1008 1.400 . S
C1007 C1012 1.490 . S
C1008 H998 0.930 . S
C1008 C1007 1.400 . S
C1008 C1011 1.386 . S
H1009 C1025 0.930 . S
H1010 C1026 0.931 . S
C1011 H999 0.929 . S
C1011 C1005 1.390 . S
C1011 C1008 1.386 . S
C1012 C1007 1.490 . S
C1012 C1014 1.395 . S
C1012 C1015 1.403 . S
H1013 C1019 0.930 . S
C1014 H1000 0.930 . S
C1014 C1012 1.395 . S
C1014 C1017 1.403 . S
C1015 C1012 1.403 . S
C1015 C1016 1.524 . S
C1015 C1019 1.400 . S
C1016 H1001 0.960 . S
C1016 H1002 0.960 . S
C1016 H1003 0.960 . S
C1016 C1015 1.524 . S
C1017 C1014 1.403 . S
C1017 C1018 1.392 . S
C1017 C1021 1.495 . S
C1018 C1017 1.392 . S
C1018 C1019 1.385 . S
C1018 C1020 1.478 . S
C1019 H1013 0.930 . S
C1019 C1015 1.400 . S
C1019 C1018 1.385 . S
C1020 C1018 1.478 . S
C1020 C1022 1.381 . S
C1020 C1026 1.383 . S
C1021 C1017 1.495 . S
C1021 H1027 0.959 . S
C1021 H1028 0.961 . S
C1021 H1029 0.960 . S
C1022 C1020 1.381 . S
C1022 C1023 1.394 1_556 S
C1022 H1030 0.930 . S
C1023 C1022 1.394 1_554 S
C1023 C1024 1.383 . S
C1023 H1031 0.929 . S
C1024 C1023 1.383 . S
C1024 C1025 1.377 . S
C1025 H1009 0.930 . S
C1025 C1024 1.377 . S
C1025 C1026 1.379 1_554 S
C1026 H1010 0.931 . S
C1026 C1020 1.383 . S
C1026 C1025 1.379 1_556 S
H1027 C1021 0.959 . S
H1028 C1021 0.961 . S
H1029 C1021 0.960 . S
H1030 C1022 0.930 . S
H1031 C1023 0.929 . S
H1032 C1040 0.929 . S
H1033 C1042 0.930 . S
H1034 C1044 0.930 . S
H1035 C1047 0.929 . S
H1036 C1050 0.930 . S
H1037 C1052 0.960 1_655 S
H1038 C1052 0.960 1_655 S
H1039 C1052 0.960 . S
C1040 H1032 0.929 . S
C1040 C1041 1.377 1_655 S
C1040 C1042 1.384 . S
C1041 C1040 1.377 1_455 S
C1041 C1047 1.390 . S
C1042 H1033 0.930 . S
C1042 C1040 1.384 . S
C1042 C1043 1.372 1_655 S
C1043 C1042 1.372 1_455 S
C1043 C1044 1.400 . S
C1043 C1048 1.490 . S
C1044 H1034 0.930 . S
C1044 C1043 1.400 . S
C1044 C1047 1.386 . S
H1045 C1061 0.930 . S
H1046 C1062 0.931 . S
C1047 H1035 0.929 . S
C1047 C1041 1.390 . S
C1047 C1044 1.386 . S
C1048 C1043 1.490 . S
C1048 C1050 1.395 . S
C1048 C1051 1.403 . S
H1049 C1055 0.930 . S
C1050 H1036 0.930 . S
C1050 C1048 1.395 . S
C1050 C1053 1.403 . S
C1051 C1048 1.403 . S
C1051 C1052 1.524 . S
C1051 C1055 1.400 . S
C1052 H1037 0.960 1_455 S
C1052 H1038 0.960 1_455 S
C1052 H1039 0.960 . S
C1052 C1051 1.524 . S
C1053 C1050 1.403 . S
C1053 C1054 1.392 . S
C1053 C1057 1.495 . S
C1054 C1053 1.392 . S
C1054 C1055 1.385 . S
C1054 C1056 1.478 . S
C1055 H1049 0.930 . S
C1055 C1051 1.400 . S
C1055 C1054 1.385 . S
C1056 C1054 1.478 . S
C1056 C1058 1.381 1_455 S
C1056 C1062 1.383 . S
C1057 C1053 1.495 . S
C1057 H1063 0.959 . S
C1057 H1064 0.961 . S
C1057 H1065 0.960 1_455 S
C1058 C1056 1.381 1_655 S
C1058 C1059 1.394 . S
C1058 H1066 0.930 . S
C1059 C1058 1.394 . S
C1059 C1060 1.383 1_655 S
C1059 H1067 0.929 . S
C1060 C1059 1.383 1_455 S
C1060 C1061 1.377 . S
C1061 H1045 0.930 . S
C1061 C1060 1.377 . S
C1061 C1062 1.379 . S
C1062 H1046 0.931 . S
C1062 C1056 1.383 . S
C1062 C1061 1.379 . S
H1063 C1057 0.959 . S
H1064 C1057 0.961 . S
H1065 C1057 0.960 1_655 S
H1066 C1058 0.930 . S
H1067 C1059 0.929 . S
C429 C8 1.994 . S
C448 C391 2.089 . S
C465 C26 1.271 . S
C484 C241 1.193 . S
C501 C48 1.436 . S
C520 C301 1.386 . S
C537 C19 1.729 . S
C556 C361 1.718 . S
C592 C271 1.514 . S
C573 C36 1.481 . S
C628 C331 1.766 . S
C609 C59 1.675 . S
C645 C28 1.460 . S
C664 C121 1.413 . S
C681 C46 1.207 . S
C700 C211 1.239 . S
C717 C16 1.566 . S
C736 C91 1.620 . S
C772 C151 1.719 . S
C753 C39 1.628 . S
C808 C181 0.959 . S
C789 C56 0.953 . S
C825 C6 1.315 . S
C844 C61 1.262 . S
C880 C200 1.400 . S
C861 C9 1.404 . S
C897 C21 1.491 . S
C916 C80 1.489 . S
C933 C49 1.473 . S
C952 C140 1.429 . S
C988 C320 1.404 . S
C969 C29 1.456 . S
C1024 C380 1.567 . S
C1005 C41 1.568 . S
C1041 C1 1.499 . S
C1060 C260 1.491 . S
