# Generated by pormake.
# Topology tsx, (6,3)-cn, num edge types: 1
# Building blocks:
#     Node 0, Type 0, BuildingBlock: LEVNOQ01_clean_sbu_1, # of connection points: 6
#     Node 1, Type 0, BuildingBlock: LEVNOQ01_clean_sbu_1, # of connection points: 6
#     Node 2, Type 1, BuildingBlock: QEWDON_clean_linker_0, # of connection points: 3
#     Node 3, Type 1, BuildingBlock: QEWDON_clean_linker_0, # of connection points: 3
#     Node 4, Type 1, BuildingBlock: QEWDON_clean_linker_0, # of connection points: 3
#     Node 5, Type 1, BuildingBlock: QEWDON_clean_linker_0, # of connection points: 3
#     Edge 6, Type (0, 1), BuildingBlock: MIFKUJ_clean_linker_0, # of connection points: 2
#     Edge 7, Type (0, 1), BuildingBlock: MIFKUJ_clean_linker_0, # of connection points: 2
#     Edge 8, Type (0, 1), BuildingBlock: MIFKUJ_clean_linker_0, # of connection points: 2
#     Edge 9, Type (0, 1), BuildingBlock: MIFKUJ_clean_linker_0, # of connection points: 2
#     Edge 10, Type (0, 1), BuildingBlock: MIFKUJ_clean_linker_0, # of connection points: 2
#     Edge 11, Type (0, 1), BuildingBlock: MIFKUJ_clean_linker_0, # of connection points: 2
#     Edge 12, Type (0, 1), BuildingBlock: MIFKUJ_clean_linker_0, # of connection points: 2
#     Edge 13, Type (0, 1), BuildingBlock: MIFKUJ_clean_linker_0, # of connection points: 2
#     Edge 14, Type (0, 1), BuildingBlock: MIFKUJ_clean_linker_0, # of connection points: 2
#     Edge 15, Type (0, 1), BuildingBlock: MIFKUJ_clean_linker_0, # of connection points: 2
#     Edge 16, Type (0, 1), BuildingBlock: MIFKUJ_clean_linker_0, # of connection points: 2
#     Edge 17, Type (0, 1), BuildingBlock: MIFKUJ_clean_linker_0, # of connection points: 2
# Relax obj value: 0.107
# Max RMSD: 0.209
# Mean RMSD: 0.150
data_MOF--net-tsx--node1-LEVNOQ01_clean_sbu_1--node2-QEWDON_clean_linker_0--edge1-MIFKUJ_clean_linker_0
_symmetry_space_group_name_H-M    P1
_symmetry_Int_Tables_number       1
_symmetry_cell_setting            triclinic
loop_
_symmetry_equiv_pos_as_xyz
'x, y, z'
_cell_length_a     25.83977
_cell_length_b     30.775486
_cell_length_c     43.422984
_cell_angle_alpha  97.476243
_cell_angle_beta   105.03616
_cell_angle_gamma 91.690818
loop_
_atom_site_label
_atom_site_type_symbol
_atom_site_fract_x
_atom_site_fract_y
_atom_site_fract_z
_atom_type_partial_charge
O0 O 0.11905 0.04698 0.09747 0.0
Mg1 Mg 0.17025 0.03349 0.06698 0.0
O2 O 0.05302 0.00903 0.05983 0.0
Mg3 Mg 0.06804 0.00398 0.00922 0.0
O4 O 0.13977 0.05501 0.02327 0.0
O5 O 0.2161 0.08387 0.05791 0.0
O6 O 0.086 0.00097 0.9583 0.0
O7 O 0.01322 0.05919 0.99755 0.0
Mg8 Mg 0.99496 0.96486 0.95586 0.0
O9 O 0.99408 0.95294 0.00027 0.0
O10 O 0.05359 0.93508 0.93641 0.0
O11 O 0.96947 0.02874 0.94824 0.0
O12 O 0.93327 0.92251 0.955 0.0
C13 C 0.16327 0.93779 0.03848 0.0
C14 C 0.07258 0.02762 0.08866 0.0
C15 C 0.18014 0.08392 0.03103 0.0
C16 C 0.08241 0.96862 0.93619 0.0
C17 C 0.97935 0.06116 0.97071 0.0
C18 C 0.95138 0.92738 0.98595 0.0
O19 O 0.19113 0.96706 0.06031 0.0
O20 O 0.12049 0.94654 0.01878 0.0
O21 O 0.65179 0.50344 0.59315 0.0
Mg22 Mg 0.69128 0.51038 0.55634 0.0
O23 O 0.56772 0.50098 0.56252 0.0
Mg24 Mg 0.56723 0.51218 0.51079 0.0
O25 O 0.64669 0.55105 0.52818 0.0
O26 O 0.73167 0.5692 0.55308 0.0
O27 O 0.56687 0.52479 0.45913 0.0
O28 O 0.52486 0.57686 0.52007 0.0
Mg29 Mg 0.44169 0.50665 0.46271 0.0
O30 O 0.48997 0.47185 0.49322 0.0
O31 O 0.48311 0.51611 0.42725 0.0
O32 O 0.4377 0.56472 0.49407 0.0
O33 O 0.40853 0.44488 0.46788 0.0
C34 C 0.65283 0.43159 0.50519 0.0
C35 C 0.60134 0.49962 0.58967 0.0
C36 C 0.68742 0.57883 0.53429 0.0
C37 C 0.53325 0.52433 0.43172 0.0
C38 C 0.47654 0.58858 0.51364 0.0
C39 C 0.45319 0.44102 0.48867 0.0
O40 O 0.69395 0.45263 0.52463 0.0
O41 O 0.60649 0.44684 0.50015 0.0
H42 H 0.03526 0.00074 0.41445 0.0
C43 C 0.06816 0.98161 0.42474 0.0
C44 C 0.09347 0.95588 0.40448 0.0
C45 C 0.08726 0.9856 0.45828 0.0
H46 H 0.15574 0.91038 0.40358 0.0
C47 C 0.13551 0.93055 0.41856 0.0
C48 C 0.15224 0.9317 0.45224 0.0
C49 C 0.12859 0.95993 0.4719 0.0
C50 C 0.06902 0.02097 0.47856 0.0
H51 H 0.14317 0.96255 0.49789 0.0
C52 C 0.02065 0.03908 0.47179 0.0
C53 C 0.02844 0.09291 0.50094 0.0
C54 C 0.10129 0.04879 0.50354 0.0
H55 H 0.14398 0.04283 0.51293 0.0
C56 C 0.06667 0.08951 0.51192 0.0
H57 H 0.98704 0.02312 0.45244 0.0
C58 C 0.00259 0.12853 0.50984 0.0
H59 H 0.01343 0.17313 0.53395 0.0
H60 H 0.11155 0.09466 0.5288 0.0
H61 H 0.01613 0.09348 0.60769 0.0
C62 C 0.98781 0.06537 0.59763 0.0
C63 C 0.9672 0.04224 0.61821 0.0
C64 C 0.9717 0.05254 0.56412 0.0
H65 H 0.91299 0.98797 0.61995 0.0
C66 C 0.92874 0.0069 0.60463 0.0
C67 C 0.91287 0.99383 0.57128 0.0
C68 C 0.9353 0.01602 0.55129 0.0
C69 C 0.99194 0.07868 0.5417 0.0
H70 H 0.92409 0.00426 0.52581 0.0
C71 C 0.05887 0.12888 0.55842 0.0
C72 C 0.08287 0.16373 0.5205 0.0
C73 C 0.94536 0.0638 0.49142 0.0
H74 H 0.91097 0.04033 0.48381 0.0
C75 C 0.96945 0.10012 0.45472 0.0
H76 H 0.02962 0.10445 0.5578 0.0
C77 C 0.03823 0.14676 0.47095 0.0
H78 H 0.05021 0.16259 0.45286 0.0
H79 H 0.94752 0.0938 0.42954 0.0
H80 H 0.60418 0.53004 0.92039 0.0
C81 C 0.61662 0.49868 0.92748 0.0
C82 C 0.61186 0.46155 0.9041 0.0
C83 C 0.63751 0.49594 0.96032 0.0
H84 H 0.62676 0.39251 0.89687 0.0
C85 C 0.62984 0.42169 0.9143 0.0
C86 C 0.6531 0.41945 0.94707 0.0
C87 C 0.65644 0.45654 0.9699 0.0
C88 C 0.63494 0.53307 0.98489 0.0
H89 H 0.67255 0.45436 0.9953 0.0
C90 C 0.58575 0.55141 0.98335 0.0
C91 C 0.57787 0.59188 0.00962 0.0
C92 C 0.68013 0.54744 0.00997 0.0
H93 H 0.71785 0.53254 0.01071 0.0
C94 C 0.67845 0.58002 0.03471 0.0
H95 H 0.55398 0.53552 0.9631 0.0
C96 C 0.63254 0.60163 0.03613 0.0
H97 H 0.5979 0.59947 0.02213 0.0
H98 H 0.71457 0.58929 0.054 0.0
H99 H 0.53277 0.57867 0.09714 0.0
C100 C 0.50275 0.55308 0.08405 0.0
C101 C 0.47784 0.52812 0.10172 0.0
C102 C 0.48769 0.54582 0.05011 0.0
H103 H 0.41971 0.47494 0.09891 0.0
C104 C 0.43846 0.49476 0.08536 0.0
C105 C 0.42499 0.48545 0.0517 0.0
C106 C 0.44963 0.51089 0.0343 0.0
C107 C 0.50815 0.57655 0.03132 0.0
H108 H 0.4374 0.50339 0.00843 0.0
C109 C 0.54679 0.62757 0.05169 0.0
C110 C 0.56741 0.66595 0.0283 0.0
C111 C 0.48847 0.56623 0.98805 0.0
H112 H 0.46413 0.53726 0.97497 0.0
C113 C 0.5113 0.60381 0.96502 0.0
H114 H 0.55787 0.63545 0.07762 0.0
C115 C 0.5519 0.65285 0.98547 0.0
H116 H 0.5668 0.67435 0.97143 0.0
H117 H 0.50099 0.59674 0.939 0.0
H118 H 0.11265 0.14721 0.01088 0.0
H119 H 0.14066 0.21635 0.99527 0.0
H120 H 0.29216 0.1643 0.99091 0.0
H121 H 0.26485 0.09614 0.00723 0.0
H122 H 0.30062 0.23256 0.03927 0.0
H123 H 0.21756 0.19871 0.92655 0.0
H124 H 0.14504 0.17723 0.87674 0.0
H125 H 0.06072 0.28949 0.90049 0.0
H126 H 0.13235 0.31136 0.95071 0.0
H127 H 0.44387 0.41425 0.01326 0.0
H128 H 0.38604 0.34652 0.99259 0.0
H129 H 0.26194 0.40441 0.03101 0.0
H130 H 0.32058 0.47179 0.0528 0.0
H131 H 0.23477 0.33564 0.96104 0.0
H132 H 0.31235 0.35989 0.07832 0.0
H133 H 0.38846 0.38415 0.12539 0.0
H134 H 0.48327 0.28614 0.0912 0.0
H135 H 0.40807 0.26276 0.04289 0.0
C136 C 0.15077 0.14992 0.005 0.0
C137 C 0.18689 0.11676 0.01039 0.0
C138 C 0.16677 0.18939 0.99609 0.0
C139 C 0.21876 0.19562 0.99227 0.0
C140 C 0.25197 0.16024 0.99383 0.0
C141 C 0.23636 0.1213 0.00311 0.0
C142 C 0.24333 0.24058 0.9947 0.0
C143 C 0.28635 0.25468 0.02181 0.0
C144 C 0.22394 0.27005 0.97248 0.0
C145 C 0.18009 0.25637 0.94269 0.0
C146 C 0.18322 0.21851 0.92142 0.0
C147 C 0.14236 0.20635 0.89302 0.0
C148 C 0.09822 0.23189 0.88551 0.0
C149 C 0.09489 0.26968 0.90637 0.0
C150 C 0.13564 0.28199 0.9348 0.0
C151 C 0.40374 0.41284 0.01657 0.0
C152 C 0.3867 0.44782 0.03485 0.0
C153 C 0.37063 0.37437 0.00454 0.0
C154 C 0.31963 0.37067 0.01007 0.0
C155 C 0.30089 0.4069 0.02614 0.0
C156 C 0.33454 0.44505 0.03887 0.0
C157 C 0.29168 0.32665 0.00533 0.0
C158 C 0.24842 0.31305 0.9782 0.0
C159 C 0.3104 0.29718 0.02744 0.0
C160 C 0.35504 0.31018 0.05679 0.0
C161 C 0.34969 0.34395 0.08061 0.0
C162 C 0.39267 0.35749 0.10756 0.0
C163 C 0.44084 0.33671 0.11137 0.0
C164 C 0.44602 0.30232 0.08817 0.0
C165 C 0.4033 0.28905 0.06092 0.0
H166 H 0.47413 0.34717 0.13229 0.0
H167 H 0.06669 0.22246 0.8635 0.0
H168 H 0.14292 0.87896 0.98366 0.0
H169 H 0.18583 0.81024 0.97588 0.0
H170 H 0.26561 0.82649 0.07757 0.0
H171 H 0.22455 0.89619 0.08522 0.0
H172 H 0.3346 0.82435 0.04286 0.0
H173 H 0.1744 0.73728 0.03898 0.0
H174 H 0.07813 0.71346 0.0198 0.0
H175 H 0.09402 0.67823 0.92386 0.0
H176 H 0.19032 0.70229 0.9424 0.0
H177 H 0.45535 0.62847 0.05302 0.0
H178 H 0.38314 0.66726 0.04968 0.0
H179 H 0.38894 0.70448 0.95996 0.0
H180 H 0.46199 0.6673 0.95884 0.0
H181 H 0.27265 0.67444 0.98489 0.0
H182 H 0.42106 0.78977 0.98815 0.0
H183 H 0.51673 0.81639 0.00704 0.0
H184 H 0.5193 0.7958 0.10334 0.0
H185 H 0.42348 0.76931 0.08493 0.0
C186 C 0.16876 0.86734 0.00445 0.0
C187 C 0.18175 0.89325 0.03489 0.0
C188 C 0.19273 0.82783 2e-05 0.0
C189 C 0.229 0.81341 0.02613 0.0
C190 C 0.23794 0.83731 0.05709 0.0
C191 C 0.21492 0.87721 0.0614 0.0
C192 C 0.26549 0.77916 0.0204 0.0
C193 C 0.32061 0.79147 0.03051 0.0
C194 C 0.24742 0.73676 0.0032 0.0
C195 C 0.18955 0.72198 0.99206 0.0
C196 C 0.1573 0.72478 0.01374 0.0
C197 C 0.10272 0.71115 0.00299 0.0
C198 C 0.07991 0.69446 0.97061 0.0
C199 C 0.11171 0.6912 0.94894 0.0
C200 C 0.16633 0.70475 0.95957 0.0
C201 C 0.4469 0.64235 0.03074 0.0
C202 C 0.4801 0.63803 0.00669 0.0
C203 C 0.40122 0.66552 0.02963 0.0
C204 C 0.38047 0.68812 0.00456 0.0
C205 C 0.40443 0.68618 0.97977 0.0
C206 C 0.45022 0.66299 0.98051 0.0
C207 C 0.34063 0.72017 0.00771 0.0
C208 C 0.28561 0.70749 0.99715 0.0
C209 C 0.35812 0.76259 0.0242 0.0
C210 C 0.4156 0.77755 0.03522 0.0
C211 C 0.44221 0.79087 0.01332 0.0
C212 C 0.49627 0.80604 0.02394 0.0
C213 C 0.52397 0.80784 0.05637 0.0
C214 C 0.49772 0.79444 0.07825 0.0
C215 C 0.44356 0.77945 0.06777 0.0
H216 H 0.56582 0.81946 0.0645 0.0
H217 H 0.03764 0.68399 0.96234 0.0
H218 H 0.98615 0.90341 0.04648 0.0
H219 H 0.93062 0.86869 0.07618 0.0
H220 H 0.78971 0.87529 0.99814 0.0
H221 H 0.8444 0.90818 0.96823 0.0
H222 H 0.7801 0.902 0.06571 0.0
H223 H 0.83323 0.78478 0.99244 0.0
H224 H 0.90246 0.74478 0.97278 0.0
H225 H 0.97679 0.719 0.06863 0.0
H226 H 0.90815 0.75935 0.08887 0.0
H227 H 0.57392 0.74296 0.00526 0.0
H228 H 0.64849 0.79848 0.0227 0.0
H229 H 0.72051 0.73144 0.10297 0.0
H230 H 0.64486 0.67594 0.08592 0.0
H231 H 0.78399 0.74 0.05896 0.0
H232 H 0.70044 0.83239 0.12352 0.0
H233 H 0.62663 0.87037 0.13929 0.0
H234 H 0.60721 0.94325 0.05964 0.0
H235 H 0.68052 0.90539 0.04314 0.0
C236 C 0.9433 0.89743 0.03585 0.0
C237 C 0.91958 0.9077 0.00487 0.0
C238 C 0.91175 0.87796 0.05284 0.0
C239 C 0.85618 0.86988 0.03931 0.0
C240 C 0.83247 0.88168 0.00901 0.0
C241 C 0.86389 0.89994 0.99181 0.0
C242 C 0.82229 0.84532 0.05459 0.0
C243 C 0.78121 0.86667 0.06486 0.0
C244 C 0.8249 0.79952 0.05417 0.0
C245 C 0.86606 0.77534 0.04218 0.0
C246 C 0.8646 0.77083 0.00933 0.0
C247 C 0.90364 0.74807 0.99808 0.0
C248 C 0.94407 0.72945 0.01946 0.0
C249 C 0.94549 0.73351 0.05212 0.0
C250 C 0.90655 0.7563 0.0635 0.0
C251 C 0.60486 0.74059 0.02711 0.0
C252 C 0.60411 0.70473 0.04386 0.0
C253 C 0.64729 0.77257 0.03722 0.0
C254 C 0.69009 0.76895 0.06408 0.0
C255 C 0.68765 0.73486 0.08228 0.0
C256 C 0.64432 0.70327 0.07251 0.0
C257 C 0.74025 0.7964 0.06897 0.0
C258 C 0.78424 0.77558 0.06188 0.0
C259 C 0.74014 0.84268 0.07232 0.0
C260 C 0.69614 0.86601 0.08211 0.0
C261 C 0.68035 0.85641 0.10929 0.0
C262 C 0.63865 0.878 0.11841 0.0
C263 C 0.61233 0.90928 0.10052 0.0
C264 C 0.62775 0.9191 0.07352 0.0
C265 C 0.66952 0.89768 0.06434 0.0
H266 H 0.57991 0.92583 0.10754 0.0
H267 H 0.97418 0.71176 0.0107 0.0
H268 H 0.00405 0.14647 -0.00104 0.0
H269 H 0.94106 0.2045 -0.00094 0.0
H270 H 0.81268 0.11446 0.93821 0.0
H271 H 0.87581 0.05779 0.93636 0.0
H272 H 0.80243 0.18839 0.91929 0.0
H273 H 0.83697 0.14146 0.02408 0.0
H274 H 0.8944 0.12661 0.07611 0.0
H275 H 0.95035 0.26263 0.10073 0.0
H276 H 0.89402 0.27818 0.04864 0.0
H277 H 0.60738 0.33553 0.93238 0.0
H278 H 0.65261 0.26832 0.94445 0.0
H279 H 0.79782 0.34649 0.99665 0.0
H280 H 0.75259 0.41329 0.98541 0.0
H281 H 0.7898 0.27217 0.02246 0.0
H282 H 0.77132 0.31522 0.91596 0.0
H283 H 0.71744 0.33307 0.86388 0.0
H284 H 0.63479 0.20518 0.84315 0.0
H285 H 0.68758 0.18692 0.89542 0.0
C286 C 0.96252 0.13957 0.98521 0.0
C287 C 0.9446 0.09792 0.96763 0.0
C288 C 0.92649 0.17239 0.98561 0.0
C289 C 0.87184 0.16333 0.96943 0.0
C290 C 0.85455 0.12211 0.95102 0.0
C291 C 0.89072 0.08984 0.94984 0.0
C292 C 0.83242 0.19674 0.97107 0.0
C293 C 0.79902 0.20597 0.94195 0.0
C294 C 0.82848 0.22019 0.00062 0.0
C295 C 0.86145 0.21093 0.03231 0.0
C296 C 0.86168 0.16817 0.04052 0.0
C297 C 0.89408 0.15962 0.07003 0.0
C298 C 0.92606 0.19363 0.09169 0.0
C299 C 0.92558 0.2363 0.08393 0.0
C300 C 0.89339 0.24501 0.05443 0.0
C301 C 0.64863 0.33813 0.94692 0.0
C302 C 0.67701 0.37923 0.95749 0.0
C303 C 0.67421 0.29994 0.95401 0.0
C304 C 0.72876 0.3026 0.97095 0.0
C305 C 0.75571 0.34379 0.98361 0.0
C306 C 0.72999 0.38187 0.97695 0.0
C307 C 0.76052 0.26362 0.97076 0.0
C308 C 0.79255 0.25354 1e-05 0.0
C309 C 0.76361 0.23937 0.94139 0.0
C310 C 0.73295 0.24989 0.90965 0.0
C311 C 0.74151 0.29099 0.90031 0.0
C312 C 0.71115 0.3012 0.8708 0.0
C313 C 0.67265 0.2703 0.85025 0.0
C314 C 0.66455 0.2291 0.85913 0.0
C315 C 0.69464 0.21881 0.88869 0.0
H316 H 0.64916 0.27826 0.82741 0.0
H317 H 0.95115 0.18694 0.1145 0.0
H318 H 0.61453 0.64146 0.53348 0.0
H319 H 0.62889 0.71792 0.52477 0.0
H320 H 0.77213 0.6843 0.49617 0.0
H321 H 0.75836 0.60872 0.50521 0.0
H322 H 0.77171 0.74302 0.56225 0.0
H323 H 0.70488 0.71559 0.44546 0.0
H324 H 0.63429 0.69544 0.39468 0.0
H325 H 0.54584 0.8041 0.42013 0.0
H326 H 0.61505 0.82404 0.47168 0.0
H327 H 0.93375 0.91577 0.54197 0.0
H328 H 0.87302 0.84931 0.52332 0.0
H329 H 0.74551 0.91962 0.5498 0.0
H330 H 0.8069 0.98599 0.56941 0.0
H331 H 0.722 0.84856 0.4839 0.0
H332 H 0.78799 0.87466 0.60105 0.0
H333 H 0.85897 0.89441 0.6518 0.0
H334 H 0.94773 0.78666 0.625 0.0
H335 H 0.87788 0.76703 0.57364 0.0
C336 C 0.64748 0.65015 0.52383 0.0
C337 C 0.68566 0.61973 0.5202 0.0
C338 C 0.65558 0.69365 0.5188 0.0
C339 C 0.70139 0.70649 0.50965 0.0
C340 C 0.73623 0.67481 0.50283 0.0
C341 C 0.72857 0.6318 0.50822 0.0
C342 C 0.72167 0.75293 0.51596 0.0
C343 C 0.76057 0.76613 0.54514 0.0
C344 C 0.70633 0.78303 0.49378 0.0
C345 C 0.66472 0.77081 0.46279 0.0
C346 C 0.66996 0.73474 0.44057 0.0
C347 C 0.6303 0.72347 0.41153 0.0
C348 C 0.58558 0.74842 0.40419 0.0
C349 C 0.58043 0.78471 0.42588 0.0
C350 C 0.61981 0.79595 0.45505 0.0
C351 C 0.89252 0.91706 0.54331 0.0
C352 C 0.8748 0.95542 0.55735 0.0
C353 C 0.85787 0.8794 0.53245 0.0
C354 C 0.80486 0.87986 0.53503 0.0
C355 C 0.78615 0.91893 0.54734 0.0
C356 C 0.82121 0.95646 0.55882 0.0
C357 C 0.7727 0.83787 0.52984 0.0
C358 C 0.73202 0.82558 0.50115 0.0
C359 C 0.78618 0.80816 0.5524 0.0
C360 C 0.8281 0.81979 0.58332 0.0
C361 C 0.823 0.85557 0.60577 0.0
C362 C 0.86297 0.86668 0.63468 0.0
C363 C 0.90793 0.8419 0.64158 0.0
C364 C 0.91296 0.80591 0.61958 0.0
C365 C 0.87323 0.79481 0.59056 0.0
H366 H 0.93877 0.85048 0.66401 0.0
H367 H 0.555 0.73969 0.38166 0.0
H368 H 0.58984 0.35582 0.49686 0.0
H369 H 0.61586 0.28126 0.48218 0.0
H370 H 0.75674 0.33623 0.46171 0.0
H371 H 0.73195 0.41005 0.4772 0.0
H372 H 0.71039 0.2475 0.42353 0.0
H373 H 0.77979 0.33055 0.53996 0.0
H374 H 0.75282 0.36901 0.58637 0.0
H375 H 0.63939 0.26143 0.58057 0.0
H376 H 0.66546 0.22262 0.53388 0.0
H377 H 0.96405 0.18967 0.46643 0.0
H378 H 0.88464 0.22204 0.4604 0.0
H379 H 0.83444 0.1475 0.52469 0.0
H380 H 0.91279 0.11489 0.5367 0.0
H381 H 0.80213 0.21912 0.5338 0.0
H382 H 0.78395 0.12305 0.43821 0.0
H383 H 0.81015 0.08506 0.39156 0.0
H384 H 0.81328 0.20649 0.35314 0.0
H385 H 0.78837 0.2455 0.39992 0.0
C386 C 0.62524 0.35175 0.48806 0.0
C387 C 0.65966 0.38825 0.4887 0.0
C388 C 0.63979 0.3093 0.47947 0.0
C389 C 0.68826 0.3034 0.47095 0.0
C390 C 0.71898 0.34013 0.46794 0.0
C391 C 0.7052 0.38225 0.47719 0.0
C392 C 0.71539 0.26207 0.47402 0.0
C393 C 0.72972 0.24009 0.4474 0.0
C394 C 0.73892 0.25153 0.50506 0.0
C395 C 0.72474 0.27374 0.53376 0.0
C396 C 0.74935 0.31509 0.54879 0.0
C397 C 0.73406 0.33699 0.57499 0.0
C398 C 0.69441 0.31765 0.58641 0.0
C399 C 0.67004 0.27634 0.57167 0.0
C400 C 0.68508 0.25437 0.54537 0.0
C401 C 0.9398 0.17634 0.48011 0.0
C402 C 0.95762 0.13882 0.50101 0.0
C403 C 0.89147 0.19659 0.47581 0.0
C404 C 0.85206 0.18463 0.48999 0.0
C405 C 0.86385 0.15566 0.51215 0.0
C406 C 0.9123 0.13563 0.51863 0.0
C407 C 0.79961 0.20521 0.48329 0.0
C408 C 0.78107 0.22363 0.50946 0.0
C409 C 0.77086 0.21074 0.45156 0.0
C410 C 0.78427 0.18728 0.42272 0.0
C411 C 0.79036 0.14174 0.41988 0.0
C412 C 0.80509 0.12001 0.39342 0.0
C413 C 0.81336 0.14334 0.3694 0.0
C414 C 0.80679 0.18845 0.37176 0.0
C415 C 0.79228 0.21039 0.39824 0.0
H416 H 0.82484 0.12648 0.34895 0.0
H417 H 0.68258 0.33467 0.60668 0.0
H418 H 0.47201 0.44422 0.55351 0.0
H419 H 0.43843 0.38698 0.57899 0.0
H420 H 0.40882 0.29786 0.49021 0.0
H421 H 0.4414 0.35496 0.46472 0.0
H422 H 0.32285 0.36011 0.51995 0.0
H423 H 0.45954 0.25317 0.53059 0.0
H424 H 0.54532 0.22361 0.55535 0.0
H425 H 0.50147 0.22665 0.64438 0.0
H426 H 0.41547 0.25676 0.62021 0.0
H427 H 0.13674 0.18528 0.47845 0.0
H428 H 0.22131 0.22795 0.48974 0.0
H429 H 0.23128 0.2454 0.59132 0.0
H430 H 0.14512 0.20134 0.57993 0.0
H431 H 0.33364 0.22495 0.5716 0.0
H432 H 0.19276 0.32826 0.55666 0.0
H433 H 0.10535 0.35216 0.52766 0.0
H434 H 0.15878 0.3482 0.44165 0.0
H435 H 0.24617 0.32379 0.46999 0.0
C436 C 0.46179 0.41147 0.54018 0.0
C437 C 0.45866 0.40386 0.50713 0.0
C438 C 0.44281 0.37864 0.55484 0.0
C439 C 0.42132 0.33798 0.5366 0.0
C440 C 0.42621 0.32858 0.50499 0.0
C441 C 0.44438 0.3614 0.49028 0.0
C442 C 0.37588 0.31506 0.54399 0.0
C443 C 0.32543 0.33083 0.53165 0.0
C444 C 0.37952 0.27707 0.5595 0.0
C445 C 0.43173 0.25921 0.5739 0.0
C446 C 0.46862 0.24889 0.55569 0.0
C447 C 0.51721 0.23151 0.56955 0.0
C448 C 0.52925 0.22384 0.60158 0.0
C449 C 0.49241 0.23302 0.61967 0.0
C450 C 0.44372 0.25025 0.60586 0.0
C451 C 0.15604 0.19853 0.50318 0.0
C452 C 0.13345 0.19113 0.52824 0.0
C453 C 0.20499 0.22252 0.50964 0.0
C454 C 0.23226 0.24017 0.54128 0.0
C455 C 0.21071 0.23199 0.5667 0.0
C456 C 0.16145 0.20733 0.56018 0.0
C457 C 0.28113 0.26948 0.54654 0.0
C458 C 0.33167 0.25512 0.56104 0.0
C459 C 0.27813 0.30832 0.53224 0.0
C460 C 0.226 0.32423 0.51549 0.0
C461 C 0.1858 0.33242 0.53156 0.0
C462 C 0.13625 0.34603 0.51522 0.0
C463 C 0.12652 0.3517 0.48284 0.0
C464 C 0.16638 0.34389 0.46674 0.0
C465 C 0.21596 0.33028 0.48295 0.0
H466 H 0.08811 0.36216 0.47022 0.0
H467 H 0.56688 0.21039 0.61226 0.0
H468 H 0.40049 0.60679 0.5449 0.0
H469 H 0.35887 0.67672 0.54966 0.0
H470 H 0.47983 0.73778 0.51405 0.0
H471 H 0.52254 0.66787 0.51018 0.0
H472 H 0.43413 0.79866 0.55398 0.0
H473 H 0.37997 0.68738 0.46116 0.0
H474 H 0.35199 0.61221 0.43299 0.0
H475 H 0.21141 0.61292 0.46834 0.0
H476 H 0.23928 0.6878 0.49738 0.0
H477 H 0.2521 0.92302 0.44216 0.0
H478 H 0.32062 0.87461 0.46639 0.0
H479 H 0.21576 0.82905 0.51985 0.0
H480 H 0.14777 0.87771 0.49627 0.0
H481 H 0.25669 0.76404 0.47423 0.0
H482 H 0.31006 0.8813 0.56322 0.0
H483 H 0.3408 0.9569 0.58945 0.0
H484 H 0.48431 0.94697 0.55731 0.0
H485 H 0.45397 0.87152 0.53035 0.0
C486 C 0.41965 0.6357 0.53964 0.0
C487 C 0.46429 0.63217 0.52696 0.0
C488 C 0.3959 0.67559 0.54235 0.0
C489 C 0.41554 0.71204 0.53143 0.0
C490 C 0.46404 0.70998 0.52253 0.0
C491 C 0.48844 0.67007 0.52034 0.0
C492 C 0.37961 0.74759 0.52247 0.0
C493 C 0.39547 0.79128 0.53644 0.0
C494 C 0.32923 0.73782 0.49946 0.0
C495 C 0.31204 0.69297 0.48175 0.0
C496 C 0.34334 0.67135 0.46317 0.0
C497 C 0.3275 0.62881 0.44704 0.0
C498 C 0.28001 0.60776 0.44894 0.0
C499 C 0.24825 0.62924 0.46696 0.0
C500 C 0.26408 0.67171 0.48329 0.0
C501 C 0.24401 0.90288 0.45929 0.0
C502 C 0.19465 0.9038 0.46725 0.0
C503 C 0.28327 0.87573 0.47333 0.0
C504 C 0.27329 0.8488 0.49515 0.0
C505 C 0.22433 0.85009 0.50338 0.0
C506 C 0.18557 0.8777 0.48983 0.0
C507 C 0.31061 0.8151 0.50606 0.0
C508 C 0.29512 0.77155 0.49203 0.0
C509 C 0.36138 0.82534 0.52851 0.0
C510 C 0.37932 0.87094 0.54433 0.0
C511 C 0.34779 0.89542 0.56131 0.0
C512 C 0.36525 0.93821 0.57643 0.0
C513 C 0.41438 0.9568 0.57494 0.0
C514 C 0.4462 0.93258 0.55837 0.0
C515 C 0.42889 0.8898 0.54318 0.0
H516 H 0.42786 0.9899 0.5867 0.0
H517 H 0.26775 0.57484 0.43639 0.0
H518 H 0.05739 0.94753 0.10385 0.0
H519 H 0.04209 0.93083 0.15416 0.0
H520 H 0.01505 0.06717 0.17979 0.0
H521 H 0.03577 0.08433 0.13054 0.0
H522 H 0.08672 0.04578 0.22402 0.0
H523 H 0.91565 0.97004 0.16575 0.0
H524 H 0.85396 0.91649 0.1243 0.0
H525 H 0.94574 0.81096 0.15998 0.0
H526 H 0.00827 0.86386 0.20149 0.0
H527 H 0.05897 0.02737 0.3749 0.0
H528 H 0.03486 0.03339 0.31829 0.0
H529 H 0.07614 0.90026 0.29639 0.0
H530 H 0.09445 0.89179 0.35346 0.0
H531 H 0.99328 0.91807 0.25012 0.0
H532 H 0.1663 0.99119 0.30412 0.0
H533 H 0.23047 0.04234 0.34615 0.0
H534 H 0.13814 0.15068 0.3167 0.0
H535 H 0.07306 0.1001 0.27476 0.0
C536 C 0.04647 0.97357 0.11986 0.0
C537 C 0.04778 0.01713 0.11369 0.0
C538 C 0.03722 0.96397 0.14856 0.0
C539 C 0.02704 -0.00238 0.17095 0.0
C540 C 0.0232 0.04063 0.16307 0.0
C541 C 0.03468 0.0505 0.13494 0.0
C542 C 0.03007 0.98979 0.20444 0.0
C543 C 0.06495 0.01844 0.22955 0.0
C544 C 0.00425 0.95273 0.21189 0.0
C545 C 0.96672 0.92099 0.18672 0.0
C546 C 0.92287 0.93545 0.16465 0.0
C547 C 0.88771 0.90517 0.14116 0.0
C548 C 0.89588 0.86034 0.13958 0.0
C549 C 0.93938 0.84568 0.16133 0.0
C550 C 0.97461 0.87579 0.18488 0.0
C551 C 0.06119 -0.00151 0.35831 0.0
C552 C 0.07846 0.9588 0.36922 0.0
C553 C 0.04828 0.00243 0.32572 0.0
C554 C 0.05507 0.96774 0.30313 0.0
C555 C 0.07102 0.92764 0.31349 0.0
C556 C 0.08231 0.9231 0.34623 0.0
C557 C 0.04855 0.97477 0.26921 0.0
C558 C 0.01392 0.94577 0.24424 0.0
C559 C 0.07494 0.01127 0.26162 0.0
C560 C 0.11463 0.04181 0.28647 0.0
C561 C 0.15959 0.0259 0.30671 0.0
C562 C 0.19611 0.05479 0.33051 0.0
C563 C 0.18833 0.09972 0.33413 0.0
C564 C 0.1441 0.11587 0.31388 0.0
C565 C 0.10743 0.08712 0.29007 0.0
H566 H 0.21662 0.12202 0.3526 0.0
H567 H 0.86843 0.83687 0.12165 0.0
H568 H 0.03483 0.92428 0.87712 0.0
H569 H 0.0338 0.94669 0.82595 0.0
H570 H 0.1548 0.05105 0.87321 0.0
H571 H 0.15205 0.0309 0.92573 0.0
H572 H 0.08368 0.08313 0.83322 0.0
H573 H 0.17592 0.9529 0.81977 0.0
H574 H 0.19392 0.87491 0.82181 0.0
H575 H 0.04119 0.83593 0.75414 0.0
H576 H 0.02193 0.91357 0.75197 0.0
H577 H 0.07127 0.06518 0.65301 0.0
H578 H 0.10853 0.06785 0.71106 0.0
H579 H 0.94994 0.04166 0.72181 0.0
H580 H 0.91175 0.04122 0.66412 0.0
H581 H 0.06311 0.97811 0.73336 0.0
H582 H 0.96793 0.11183 0.75869 0.0
H583 H 0.95343 0.19056 0.75829 0.0
H584 H 0.1208 0.223 0.80432 0.0
H585 H 0.13648 0.14427 0.80424 0.0
C586 C 0.06243 0.95131 0.87682 0.0
C587 C 0.09364 0.9758 0.90556 0.0
C588 C 0.06213 0.96397 0.84725 0.0
C589 C 0.0952 -1e-05 0.84535 0.0
C590 C 0.12904 0.02302 0.87397 0.0
C591 C 0.12787 0.01127 0.90391 0.0
C592 C 0.08955 0.01569 0.81375 0.0
C593 C 0.08044 0.06019 0.81151 0.0
C594 C 0.08532 0.98605 0.78519 0.0
C595 C 0.09754 0.93918 0.78572 0.0
C596 C 0.14616 0.92771 0.80534 0.0
C597 C 0.15655 0.88354 0.80654 0.0
C598 C 0.11873 0.8505 0.78812 0.0
C599 C 0.07051 0.86155 0.76835 0.0
C600 C 0.05991 0.90564 0.76705 0.0
C601 C 0.04392 0.06197 0.66783 0.0
C602 C 0.98849 0.05243 0.6538 0.0
C603 C 0.0654 0.06353 0.70103 0.0
C604 C 0.03185 0.05571 0.72066 0.0
C605 C 0.97629 0.04883 0.70709 0.0
C606 C 0.95468 0.04782 0.67402 0.0
C607 C 0.0551 0.04453 0.75315 0.0
C608 C 0.0678 0.00093 0.75532 0.0
C609 C 0.06311 0.07497 0.78148 0.0
C610 C 0.05362 0.12208 0.78063 0.0
C611 C 0.00186 0.13563 0.76801 0.0
C612 C 0.99336 0.18031 0.76807 0.0
C613 C 0.03624 0.21176 0.78103 0.0
C614 C 0.08768 0.1986 0.79405 0.0
C615 C 0.0964 0.15397 0.79396 0.0
H616 H 0.02955 0.24633 0.78116 0.0
H617 H 0.1268 0.81633 0.78916 0.0
H618 H 0.65227 0.46599 0.64347 0.0
H619 H 0.62363 0.46515 0.69277 0.0
H620 H 0.47891 0.52608 0.65081 0.0
H621 H 0.50641 0.52556 0.60063 0.0
H622 H 0.5824 0.55801 0.72584 0.0
H623 H 0.42165 0.47053 0.66429 0.0
H624 H 0.36929 0.41302 0.62177 0.0
H625 H 0.47121 0.31599 0.66287 0.0
H626 H 0.5248 0.37308 0.70506 0.0
H627 H 0.53228 0.51322 0.87637 0.0
H628 H 0.50407 0.52497 0.82001 0.0
H629 H 0.60932 0.42786 0.79597 0.0
H630 H 0.641 0.41805 0.85235 0.0
H631 H 0.49463 0.42657 0.75124 0.0
H632 H 0.66175 0.51906 0.80626 0.0
H633 H 0.71276 0.57623 0.84958 0.0
H634 H 0.59167 0.66654 0.82111 0.0
H635 H 0.53961 0.60956 0.77785 0.0
C636 C 0.61401 0.47868 0.64453 0.0
C637 C 0.58158 0.49584 0.61826 0.0
C638 C 0.59773 0.47817 0.67266 0.0
C639 C 0.54916 0.49536 0.67524 0.0
C640 C 0.5162 0.51215 0.64903 0.0
C641 C 0.53198 0.51182 0.62048 0.0
C642 C 0.53559 0.49686 0.70631 0.0
C643 C 0.5614 0.53014 0.73129 0.0
C644 C 0.50858 0.46042 0.71334 0.0
C645 C 0.47766 0.42613 0.6875 0.0
C646 C 0.43342 0.43703 0.66387 0.0
C647 C 0.40335 0.40449 0.63991 0.0
C648 C 0.41695 0.36087 0.6395 0.0
C649 C 0.46075 0.34975 0.66302 0.0
C650 C 0.49101 0.3822 0.68698 0.0
C651 C 0.54993 0.49452 0.85925 0.0
C652 C 0.58967 0.46505 0.86926 0.0
C653 C 0.53305 0.50091 0.82697 0.0
C654 C 0.55453 0.47714 0.80402 0.0
C655 C 0.59193 0.44613 0.81344 0.0
C656 C 0.60982 0.44047 0.84577 0.0
C657 C 0.54254 0.48716 0.77069 0.0
C658 C 0.51295 0.45564 0.74559 0.0
C659 C 0.56512 0.5257 0.76349 0.0
C660 C 0.59657 0.56 0.78916 0.0
C661 C 0.64584 0.55101 0.80944 0.0
C662 C 0.67496 0.58337 0.83393 0.0
C663 C 0.65538 0.62496 0.83816 0.0
C664 C 0.60671 0.63429 0.81784 0.0
C665 C 0.5774 0.60198 0.79334 0.0
H666 H 0.67798 0.64998 0.85713 0.0
H667 H 0.3933 0.33578 0.62106 0.0
H668 H 0.57548 0.46644 0.39426 0.0
H669 H 0.58554 0.47459 0.3406 0.0
H670 H 0.54106 0.60855 0.3525 0.0
H671 H 0.53038 0.60012 0.40606 0.0
H672 H 0.49273 0.49184 0.29618 0.0
H673 H 0.59791 0.66162 0.29826 0.0
H674 H 0.67193 0.71162 0.33384 0.0
H675 H 0.74654 0.60245 0.3755 0.0
H676 H 0.67353 0.55173 0.33984 0.0
H677 H 0.41141 0.54613 0.14041 0.0
H678 H 0.43445 0.55494 0.19931 0.0
H679 H 0.60047 0.53645 0.20215 0.0
H680 H 0.57767 0.52956 0.14311 0.0
H681 H 0.59504 0.59559 0.25191 0.0
H682 H 0.51657 0.44478 0.21156 0.0
H683 H 0.44746 0.38819 0.17925 0.0
H684 H 0.32714 0.45407 0.21612 0.0
H685 H 0.3962 0.51024 0.24959 0.0
C686 C 0.56976 0.498 0.38577 0.0
C687 C 0.55224 0.53268 0.40392 0.0
C688 C 0.57543 0.50265 0.35523 0.0
C689 C 0.56398 0.54215 0.34262 0.0
C690 C 0.55057 0.57798 0.36191 0.0
C691 C 0.54435 0.57314 0.39236 0.0
C692 C 0.55616 0.54303 0.30771 0.0
C693 C 0.51534 0.5145 0.28659 0.0
C694 C 0.58542 0.57271 0.29523 0.0
C695 C 0.62984 0.60293 0.31658 0.0
C696 C 0.63021 0.64825 0.31491 0.0
C697 C 0.67204 0.67672 0.33508 0.0
C698 C 0.71383 0.66024 0.35697 0.0
C699 C 0.71402 0.61522 0.35864 0.0
C700 C 0.67236 0.5866 0.33849 0.0
C701 C 0.45286 0.54435 0.1537 0.0
C702 C 0.49271 0.53668 0.13736 0.0
C703 C 0.46601 0.54924 0.1873 0.0
C704 C 0.51902 0.5453 0.20518 0.0
C705 C 0.5593 0.53949 0.18891 0.0
C706 C 0.54628 0.53542 0.15524 0.0
C707 C 0.53155 0.54427 0.24049 0.0
C708 C 0.57269 0.57298 0.26165 0.0
C709 C 0.50294 0.51456 0.25333 0.0
C710 C 0.46124 0.48175 0.23269 0.0
C711 C 0.47529 0.44724 0.21258 0.0
C712 C 0.43617 0.4152 0.19416 0.0
C713 C 0.38274 0.41777 0.19527 0.0
C714 C 0.36847 0.45217 0.21517 0.0
C715 C 0.40763 0.48391 0.23406 0.0
H716 H 0.35249 0.39298 0.18086 0.0
H717 H 0.74607 0.68235 0.37263 0.0
loop_
_geom_bond_atom_site_label_1
_geom_bond_atom_site_label_2
_geom_bond_distance
_geom_bond_site_symmetry_2
_ccdc_geom_bond_type
O0 Mg1 1.990 . S
O0 C14 1.253 . S
Mg1 O0 1.990 . S
Mg1 O4 2.180 . S
Mg1 O5 2.117 . S
Mg1 O19 2.030 1_545 S
O2 Mg3 2.072 1_565 S
O2 C14 1.260 1_565 S
Mg3 O2 2.072 1_545 S
Mg3 O4 2.099 . S
Mg3 O6 2.079 1_554 S
Mg3 O7 2.072 . S
Mg3 O9 2.099 1_444 S
Mg3 O20 2.079 1_545 S
O4 Mg1 2.180 . S
O4 Mg3 2.099 . S
O4 C15 1.279 . S
O5 Mg1 2.117 . S
O5 C15 1.250 . S
O6 Mg3 2.079 1_556 S
O6 C16 1.264 . S
O7 Mg3 2.072 . S
O7 C17 1.260 1_454 S
Mg8 O9 2.180 . S
Mg8 O10 2.030 1_565 S
Mg8 O11 1.990 1_565 S
Mg8 O12 2.117 . S
O9 Mg3 2.099 1_666 S
O9 Mg8 2.180 . S
O9 C18 1.286 . S
O10 Mg8 2.030 1_545 S
O10 C16 1.248 1_655 S
O11 Mg8 1.990 1_545 S
O11 C17 1.253 . S
O12 Mg8 2.117 . S
O12 C18 1.252 . S
C13 O19 1.248 . S
C13 O20 1.264 . S
C14 O0 1.253 . S
C14 O2 1.260 1_545 S
C15 O4 1.279 . S
C15 O5 1.250 . S
C16 O6 1.264 . S
C16 O10 1.248 1_455 S
C17 O7 1.260 1_656 S
C17 O11 1.253 . S
C18 O9 1.286 . S
C18 O12 1.252 . S
O19 Mg1 2.030 1_565 S
O19 C13 1.248 . S
O20 Mg3 2.079 1_565 S
O20 C13 1.264 . S
O21 Mg22 1.990 . S
O21 C35 1.253 . S
Mg22 O21 1.990 . S
Mg22 O25 2.180 . S
Mg22 O26 2.117 . S
Mg22 O40 2.030 . S
O23 Mg24 2.072 . S
O23 C35 1.260 . S
Mg24 O23 2.072 . S
Mg24 O25 2.099 . S
Mg24 O27 2.079 . S
Mg24 O28 2.072 . S
Mg24 O30 2.099 . S
Mg24 O41 2.079 . S
O25 Mg22 2.180 . S
O25 Mg24 2.099 . S
O25 C36 1.279 . S
O26 Mg22 2.117 . S
O26 C36 1.250 . S
O27 Mg24 2.079 . S
O27 C37 1.264 . S
O28 Mg24 2.072 . S
O28 C38 1.260 . S
Mg29 O30 2.180 . S
Mg29 O31 2.030 . S
Mg29 O32 1.990 . S
Mg29 O33 2.117 . S
O30 Mg24 2.099 . S
O30 Mg29 2.180 . S
O30 C39 1.279 . S
O31 Mg29 2.030 . S
O31 C37 1.248 . S
O32 Mg29 1.990 . S
O32 C38 1.253 . S
O33 Mg29 2.117 . S
O33 C39 1.250 . S
C34 O40 1.248 . S
C34 O41 1.264 . S
C35 O21 1.253 . S
C35 O23 1.260 . S
C36 O25 1.279 . S
C36 O26 1.250 . S
C37 O27 1.264 . S
C37 O31 1.248 . S
C38 O28 1.260 . S
C38 O32 1.253 . S
C39 O30 1.279 . S
C39 O33 1.250 . S
O40 Mg22 2.030 . S
O40 C34 1.248 . S
O41 Mg24 2.079 . S
O41 C34 1.264 . S
H42 C43 0.949 . S
C43 H42 0.949 . S
C43 C44 1.395 1_545 S
C43 C45 1.391 . S
C44 C43 1.395 1_565 S
C44 C47 1.390 . S
C45 C43 1.391 . S
C45 C49 1.387 1_545 S
C45 C50 1.491 . S
H46 C47 0.950 . S
C47 C44 1.390 . S
C47 H46 0.950 . S
C47 C48 1.378 . S
C48 C47 1.378 . S
C48 C49 1.409 . S
C49 C45 1.387 1_565 S
C49 C48 1.409 . S
C49 H51 0.951 . S
C50 C45 1.491 . S
C50 C52 1.382 . S
C50 C54 1.404 . S
H51 C49 0.951 . S
C52 C50 1.382 . S
C52 C53 1.390 . S
C52 H57 0.949 . S
C53 C52 1.390 . S
C53 C58 1.399 . S
C54 C50 1.404 . S
C54 H55 0.950 . S
C54 C56 1.375 . S
H55 C54 0.950 . S
C56 C54 1.375 . S
C56 C58 1.382 . S
C56 H60 0.950 . S
H57 C52 0.949 . S
C58 C53 1.399 . S
C58 C56 1.382 . S
C58 H59 0.952 . S
H59 C58 0.952 . S
H60 C56 0.950 . S
H61 C62 0.951 . S
C62 H61 0.951 . S
C62 C63 1.393 1_455 S
C62 C64 1.391 1_455 S
C63 C62 1.393 1_655 S
C63 C66 1.390 . S
C64 C62 1.391 1_655 S
C64 C68 1.387 . S
C64 C69 1.491 1_655 S
H65 C66 0.950 1_565 S
C66 C63 1.390 . S
C66 H65 0.950 1_545 S
C66 C67 1.378 1_545 S
C67 C66 1.378 1_565 S
C67 C68 1.409 1_565 S
C68 C64 1.387 . S
C68 C67 1.409 1_545 S
C68 H70 0.951 . S
C69 C64 1.491 1_455 S
C69 C71 1.382 . S
C69 C73 1.404 1_455 S
H70 C68 0.951 . S
C71 C69 1.382 . S
C71 C72 1.390 . S
C71 H76 0.949 . S
C72 C71 1.390 . S
C72 C77 1.399 . S
C73 C69 1.404 1_655 S
C73 H74 0.950 . S
C73 C75 1.375 . S
H74 C73 0.950 . S
C75 C73 1.375 . S
C75 C77 1.382 1_655 S
C75 H79 0.950 . S
H76 C71 0.949 . S
C77 C72 1.399 . S
C77 C75 1.382 1_455 S
C77 H78 0.952 . S
H78 C77 0.952 . S
H79 C75 0.950 . S
H80 C81 0.949 . S
C81 H80 0.949 . S
C81 C82 1.395 . S
C81 C83 1.391 . S
C82 C81 1.395 . S
C82 C85 1.390 . S
C83 C81 1.391 . S
C83 C87 1.387 . S
C83 C88 1.491 . S
H84 C85 0.950 . S
C85 C82 1.390 . S
C85 H84 0.950 . S
C85 C86 1.378 . S
C86 C85 1.378 . S
C86 C87 1.409 . S
C87 C83 1.387 . S
C87 C86 1.409 . S
C87 H89 0.951 1_556 S
C88 C83 1.491 . S
C88 C90 1.382 . S
C88 C92 1.404 1_556 S
H89 C87 0.951 1_554 S
C90 C88 1.382 . S
C90 C91 1.390 1_556 S
C90 H95 0.949 . S
C91 C90 1.390 1_554 S
C91 C96 1.399 . S
C92 C88 1.404 1_554 S
C92 H93 0.950 . S
C92 C94 1.375 . S
H93 C92 0.950 . S
C94 C92 1.375 . S
C94 C96 1.382 . S
C94 H98 0.950 . S
H95 C90 0.949 . S
C96 C91 1.399 . S
C96 C94 1.382 . S
C96 H97 0.952 . S
H97 C96 0.952 . S
H98 C94 0.950 . S
H99 C100 0.949 . S
C100 H99 0.949 . S
C100 C101 1.395 . S
C100 C102 1.391 . S
C101 C100 1.395 . S
C101 C104 1.390 . S
C102 C100 1.391 . S
C102 C106 1.387 . S
C102 C107 1.491 . S
H103 C104 0.950 . S
C104 C101 1.390 . S
C104 H103 0.950 . S
C104 C105 1.378 . S
C105 C104 1.378 . S
C105 C106 1.409 . S
C106 C102 1.387 . S
C106 C105 1.409 . S
C106 H108 0.951 . S
C107 C102 1.491 . S
C107 C109 1.382 . S
C107 C111 1.404 . S
H108 C106 0.951 . S
C109 C107 1.382 . S
C109 C110 1.390 . S
C109 H114 0.949 . S
C110 C109 1.390 . S
C110 C115 1.399 1_554 S
C111 C107 1.404 . S
C111 H112 0.950 1_554 S
C111 C113 1.375 1_554 S
H112 C111 0.950 1_556 S
C113 C111 1.375 1_556 S
C113 C115 1.382 . S
C113 H117 0.950 . S
H114 C109 0.949 . S
C115 C110 1.399 1_556 S
C115 C113 1.382 . S
C115 H116 0.952 . S
H116 C115 0.952 . S
H117 C113 0.950 . S
H118 C136 0.951 . S
H119 C138 0.951 . S
H120 C140 0.950 . S
H121 C141 0.950 . S
H122 C143 0.950 . S
H123 C146 0.950 . S
H124 C147 0.950 . S
H125 C149 0.950 . S
H126 C150 0.950 . S
H127 C151 0.951 . S
H128 C153 0.951 . S
H129 C155 0.950 . S
H130 C156 0.950 . S
H131 C158 0.950 1_556 S
H132 C161 0.950 . S
H133 C162 0.950 . S
H134 C164 0.950 . S
H135 C165 0.950 . S
C136 H118 0.951 . S
C136 C137 1.366 . S
C136 C138 1.388 . S
C137 C136 1.366 . S
C137 C141 1.385 . S
C138 H119 0.951 . S
C138 C136 1.388 . S
C138 C139 1.366 . S
C139 C138 1.366 . S
C139 C140 1.414 . S
C139 C142 1.499 . S
C140 H120 0.950 . S
C140 C139 1.414 . S
C140 C141 1.374 . S
C141 H121 0.950 . S
C141 C137 1.385 . S
C141 C140 1.374 . S
C142 C139 1.499 . S
C142 C143 1.373 . S
C142 C144 1.389 . S
C143 H122 0.950 . S
C143 C142 1.373 . S
C143 C159 1.377 . S
C144 C142 1.389 . S
C144 C145 1.524 1_554 S
C144 C158 1.377 . S
C145 C144 1.524 1_556 S
C145 C146 1.397 . S
C145 C150 1.363 . S
C146 H123 0.950 . S
C146 C145 1.397 . S
C146 C147 1.334 . S
C147 H124 0.950 . S
C147 C146 1.334 . S
C147 C148 1.287 . S
C148 C147 1.287 . S
C148 C149 1.524 . S
C148 H167 0.913 . S
C149 H125 0.950 . S
C149 C148 1.524 . S
C149 C150 1.415 . S
C150 H126 0.950 . S
C150 C145 1.363 . S
C150 C149 1.415 . S
C151 H127 0.951 . S
C151 C152 1.366 . S
C151 C153 1.388 . S
C152 C151 1.366 . S
C152 C156 1.385 . S
C153 H128 0.951 . S
C153 C151 1.388 . S
C153 C154 1.366 . S
C154 C153 1.366 . S
C154 C155 1.414 . S
C154 C157 1.499 . S
C155 H129 0.950 . S
C155 C154 1.414 . S
C155 C156 1.374 . S
C156 H130 0.950 . S
C156 C152 1.385 . S
C156 C155 1.374 . S
C157 C154 1.499 . S
C157 C158 1.373 . S
C157 C159 1.389 . S
C158 H131 0.950 1_554 S
C158 C144 1.377 . S
C158 C157 1.373 . S
C159 C143 1.377 . S
C159 C157 1.389 . S
C159 C160 1.524 . S
C160 C159 1.524 . S
C160 C161 1.397 . S
C160 C165 1.363 . S
C161 H132 0.950 . S
C161 C160 1.397 . S
C161 C162 1.334 . S
C162 H133 0.950 . S
C162 C161 1.334 . S
C162 C163 1.287 . S
C163 C162 1.287 . S
C163 C164 1.524 . S
C163 H166 0.999 . S
C164 H134 0.950 . S
C164 C163 1.524 . S
C164 C165 1.415 . S
C165 H135 0.950 . S
C165 C160 1.363 . S
C165 C164 1.415 . S
H166 C163 0.999 . S
H167 C148 0.913 . S
H168 C186 0.951 . S
H169 C188 0.951 . S
H170 C190 0.950 . S
H171 C191 0.950 . S
H172 C193 0.950 . S
H173 C196 0.950 . S
H174 C197 0.950 1_554 S
H175 C199 0.950 . S
H176 C200 0.950 . S
H177 C201 0.951 . S
H178 C203 0.951 . S
H179 C205 0.950 . S
H180 C206 0.950 . S
H181 C208 0.950 . S
H182 C211 0.950 1_556 S
H183 C212 0.950 . S
H184 C214 0.950 . S
H185 C215 0.950 . S
C186 H168 0.951 . S
C186 C187 1.366 1_556 S
C186 C188 1.388 . S
C187 C186 1.366 1_554 S
C187 C191 1.385 . S
C188 H169 0.951 . S
C188 C186 1.388 . S
C188 C189 1.366 1_556 S
C189 C188 1.366 1_554 S
C189 C190 1.414 . S
C189 C192 1.499 . S
C190 H170 0.950 . S
C190 C189 1.414 . S
C190 C191 1.374 . S
C191 H171 0.950 . S
C191 C187 1.385 . S
C191 C190 1.374 . S
C192 C189 1.499 . S
C192 C193 1.373 . S
C192 C194 1.389 1_554 S
C193 H172 0.950 . S
C193 C192 1.373 . S
C193 C209 1.377 . S
C194 C192 1.389 1_556 S
C194 C195 1.524 . S
C194 C208 1.377 . S
C195 C194 1.524 . S
C195 C196 1.397 1_556 S
C195 C200 1.363 . S
C196 H173 0.950 . S
C196 C195 1.397 1_554 S
C196 C197 1.334 1_554 S
C197 H174 0.950 1_556 S
C197 C196 1.334 1_556 S
C197 C198 1.287 . S
C198 C197 1.287 . S
C198 C199 1.524 . S
C198 H217 0.913 . S
C199 H175 0.950 . S
C199 C198 1.524 . S
C199 C200 1.415 . S
C200 H176 0.950 . S
C200 C195 1.363 . S
C200 C199 1.415 . S
C201 H177 0.951 . S
C201 C202 1.366 . S
C201 C203 1.388 . S
C202 C201 1.366 . S
C202 C206 1.385 1_554 S
C203 H178 0.951 . S
C203 C201 1.388 . S
C203 C204 1.366 . S
C204 C203 1.366 . S
C204 C205 1.414 1_554 S
C204 C207 1.499 . S
C205 H179 0.950 . S
C205 C204 1.414 1_556 S
C205 C206 1.374 . S
C206 H180 0.950 . S
C206 C202 1.385 1_556 S
C206 C205 1.374 . S
C207 C204 1.499 . S
C207 C208 1.373 1_554 S
C207 C209 1.389 . S
C208 H181 0.950 . S
C208 C194 1.377 . S
C208 C207 1.373 1_556 S
C209 C193 1.377 . S
C209 C207 1.389 . S
C209 C210 1.524 . S
C210 C209 1.524 . S
C210 C211 1.397 . S
C210 C215 1.363 . S
C211 H182 0.950 1_554 S
C211 C210 1.397 . S
C211 C212 1.334 . S
C212 H183 0.950 . S
C212 C211 1.334 . S
C212 C213 1.287 . S
C213 C212 1.287 . S
C213 C214 1.524 . S
C213 H216 0.999 . S
C214 H184 0.950 . S
C214 C213 1.524 . S
C214 C215 1.415 . S
C215 H185 0.950 . S
C215 C210 1.363 . S
C215 C214 1.415 . S
H216 C213 0.999 . S
H217 C198 0.913 . S
H218 C236 0.951 . S
H219 C238 0.951 . S
H220 C240 0.958 . S
H221 C241 0.950 . S
H222 C243 0.950 . S
H223 C246 0.950 . S
H224 C247 0.950 . S
H225 C249 0.950 . S
H226 C250 0.950 . S
H227 C251 0.951 . S
H228 C253 0.951 . S
H229 C255 0.950 . S
H230 C256 0.950 . S
H231 C258 0.950 . S
H232 C261 0.950 . S
H233 C262 0.950 . S
H234 C264 0.950 . S
H235 C265 0.950 . S
C236 H218 0.951 . S
C236 C237 1.366 . S
C236 C238 1.388 . S
C237 C236 1.366 . S
C237 C241 1.385 1_554 S
C238 H219 0.951 . S
C238 C236 1.388 . S
C238 C239 1.366 . S
C239 C238 1.366 . S
C239 C240 1.395 1_554 S
C239 C242 1.499 . S
C240 H220 0.958 . S
C240 C239 1.395 1_556 S
C240 C241 1.387 . S
C241 H221 0.950 . S
C241 C237 1.385 1_556 S
C241 C240 1.387 . S
C242 C239 1.499 . S
C242 C243 1.373 . S
C242 C244 1.389 . S
C243 H222 0.950 . S
C243 C242 1.373 . S
C243 C259 1.377 . S
C244 C242 1.389 . S
C244 C245 1.524 1_554 S
C244 C258 1.377 . S
C245 C244 1.524 1_556 S
C245 C246 1.397 . S
C245 C250 1.363 1_556 S
C246 H223 0.950 . S
C246 C245 1.397 . S
C246 C247 1.334 . S
C247 H224 0.950 . S
C247 C246 1.334 . S
C247 C248 1.287 . S
C248 C247 1.287 . S
C248 C249 1.524 . S
C248 H267 0.913 . S
C249 H225 0.950 . S
C249 C248 1.524 . S
C249 C250 1.415 1_556 S
C250 H226 0.950 . S
C250 C245 1.363 1_554 S
C250 C249 1.415 1_554 S
C251 H227 0.951 . S
C251 C252 1.366 . S
C251 C253 1.388 . S
C252 C251 1.366 . S
C252 C256 1.385 . S
C253 H228 0.951 . S
C253 C251 1.388 . S
C253 C254 1.366 . S
C254 C253 1.366 . S
C254 C255 1.414 . S
C254 C257 1.499 . S
C255 H229 0.950 . S
C255 C254 1.414 . S
C255 C256 1.374 . S
C256 H230 0.950 . S
C256 C252 1.385 . S
C256 C255 1.374 . S
C257 C254 1.499 . S
C257 C258 1.373 . S
C257 C259 1.389 . S
C258 H231 0.950 . S
C258 C244 1.377 . S
C258 C257 1.373 . S
C259 C243 1.377 . S
C259 C257 1.389 . S
C259 C260 1.524 . S
C260 C259 1.524 . S
C260 C261 1.397 . S
C260 C265 1.363 . S
C261 H232 0.950 . S
C261 C260 1.397 . S
C261 C262 1.334 . S
C262 H233 0.950 . S
C262 C261 1.334 . S
C262 C263 1.287 . S
C263 C262 1.287 . S
C263 C264 1.524 . S
C263 H266 0.999 . S
C264 H234 0.950 . S
C264 C263 1.524 . S
C264 C265 1.415 . S
C265 H235 0.950 . S
C265 C260 1.363 . S
C265 C264 1.415 . S
H266 C263 0.999 . S
H267 C248 0.913 . S
H268 C286 0.951 1_455 S
H269 C288 0.951 . S
H270 C290 0.950 . S
H271 C291 0.950 . S
H272 C293 0.950 . S
H273 C296 0.950 . S
H274 C297 0.950 . S
H275 C299 0.950 . S
H276 C300 0.950 . S
H277 C301 0.951 . S
H278 C303 0.951 . S
H279 C305 0.950 . S
H280 C306 0.950 . S
H281 C308 0.950 . S
H282 C311 0.950 . S
H283 C312 0.950 . S
H284 C314 0.950 . S
H285 C315 0.950 . S
C286 H268 0.951 1_655 S
C286 C287 1.366 1_554 S
C286 C288 1.388 . S
C287 C286 1.366 1_556 S
C287 C291 1.385 . S
C288 H269 0.951 . S
C288 C286 1.388 . S
C288 C289 1.366 1_554 S
C289 C288 1.366 1_556 S
C289 C290 1.414 . S
C289 C292 1.499 . S
C290 H270 0.950 . S
C290 C289 1.414 . S
C290 C291 1.374 . S
C291 H271 0.950 . S
C291 C287 1.385 . S
C291 C290 1.374 . S
C292 C289 1.499 . S
C292 C293 1.373 . S
C292 C294 1.389 1_556 S
C293 H272 0.950 . S
C293 C292 1.373 . S
C293 C309 1.377 . S
C294 C292 1.389 1_554 S
C294 C295 1.524 . S
C294 C308 1.377 . S
C295 C294 1.524 . S
C295 C296 1.397 . S
C295 C300 1.363 . S
C296 H273 0.950 . S
C296 C295 1.397 . S
C296 C297 1.334 . S
C297 H274 0.950 . S
C297 C296 1.334 . S
C297 C298 1.287 . S
C298 C297 1.287 . S
C298 C299 1.524 . S
C298 H317 0.913 . S
C299 H275 0.950 . S
C299 C298 1.524 . S
C299 C300 1.415 . S
C300 H276 0.950 . S
C300 C295 1.363 . S
C300 C299 1.415 . S
C301 H277 0.951 . S
C301 C302 1.366 . S
C301 C303 1.388 . S
C302 C301 1.366 . S
C302 C306 1.385 . S
C303 H278 0.951 . S
C303 C301 1.388 . S
C303 C304 1.366 . S
C304 C303 1.366 . S
C304 C305 1.414 . S
C304 C307 1.499 . S
C305 H279 0.950 . S
C305 C304 1.414 . S
C305 C306 1.374 . S
C306 H280 0.950 . S
C306 C302 1.385 . S
C306 C305 1.374 . S
C307 C304 1.499 . S
C307 C308 1.373 1_556 S
C307 C309 1.389 . S
C308 H281 0.950 . S
C308 C294 1.377 . S
C308 C307 1.373 1_554 S
C309 C293 1.377 . S
C309 C307 1.389 . S
C309 C310 1.524 . S
C310 C309 1.524 . S
C310 C311 1.397 . S
C310 C315 1.363 . S
C311 H282 0.950 . S
C311 C310 1.397 . S
C311 C312 1.334 . S
C312 H283 0.950 . S
C312 C311 1.334 . S
C312 C313 1.287 . S
C313 C312 1.287 . S
C313 C314 1.524 . S
C313 H316 0.999 . S
C314 H284 0.950 . S
C314 C313 1.524 . S
C314 C315 1.415 . S
C315 H285 0.950 . S
C315 C310 1.363 . S
C315 C314 1.415 . S
H316 C313 0.999 . S
H317 C298 0.913 . S
H318 C336 0.951 . S
H319 C338 0.951 . S
H320 C340 0.950 . S
H321 C341 0.950 . S
H322 C343 0.950 . S
H323 C346 0.950 . S
H324 C347 0.950 . S
H325 C349 0.950 . S
H326 C350 0.950 . S
H327 C351 0.951 . S
H328 C353 0.951 . S
H329 C355 0.950 . S
H330 C356 0.950 . S
H331 C358 0.950 . S
H332 C361 0.950 . S
H333 C362 0.950 . S
H334 C364 0.950 . S
H335 C365 0.950 . S
C336 H318 0.951 . S
C336 C337 1.366 . S
C336 C338 1.388 . S
C337 C336 1.366 . S
C337 C341 1.385 . S
C338 H319 0.951 . S
C338 C336 1.388 . S
C338 C339 1.366 . S
C339 C338 1.366 . S
C339 C340 1.414 . S
C339 C342 1.499 . S
C340 H320 0.950 . S
C340 C339 1.414 . S
C340 C341 1.374 . S
C341 H321 0.950 . S
C341 C337 1.385 . S
C341 C340 1.374 . S
C342 C339 1.499 . S
C342 C343 1.373 . S
C342 C344 1.389 . S
C343 H322 0.950 . S
C343 C342 1.373 . S
C343 C359 1.377 . S
C344 C342 1.389 . S
C344 C345 1.524 . S
C344 C358 1.377 . S
C345 C344 1.524 . S
C345 C346 1.397 . S
C345 C350 1.363 . S
C346 H323 0.950 . S
C346 C345 1.397 . S
C346 C347 1.334 . S
C347 H324 0.950 . S
C347 C346 1.334 . S
C347 C348 1.287 . S
C348 C347 1.287 . S
C348 C349 1.524 . S
C348 H367 0.913 . S
C349 H325 0.950 . S
C349 C348 1.524 . S
C349 C350 1.415 . S
C350 H326 0.950 . S
C350 C345 1.363 . S
C350 C349 1.415 . S
C351 H327 0.951 . S
C351 C352 1.366 . S
C351 C353 1.388 . S
C352 C351 1.366 . S
C352 C356 1.385 . S
C353 H328 0.951 . S
C353 C351 1.388 . S
C353 C354 1.366 . S
C354 C353 1.366 . S
C354 C355 1.414 . S
C354 C357 1.499 . S
C355 H329 0.950 . S
C355 C354 1.414 . S
C355 C356 1.374 . S
C356 H330 0.950 . S
C356 C352 1.385 . S
C356 C355 1.374 . S
C357 C354 1.499 . S
C357 C358 1.373 . S
C357 C359 1.389 . S
C358 H331 0.950 . S
C358 C344 1.377 . S
C358 C357 1.373 . S
C359 C343 1.377 . S
C359 C357 1.389 . S
C359 C360 1.524 . S
C360 C359 1.524 . S
C360 C361 1.397 . S
C360 C365 1.363 . S
C361 H332 0.950 . S
C361 C360 1.397 . S
C361 C362 1.334 . S
C362 H333 0.950 . S
C362 C361 1.334 . S
C362 C363 1.287 . S
C363 C362 1.287 . S
C363 C364 1.524 . S
C363 H366 0.999 . S
C364 H334 0.950 . S
C364 C363 1.524 . S
C364 C365 1.415 . S
C365 H335 0.950 . S
C365 C360 1.363 . S
C365 C364 1.415 . S
H366 C363 0.999 . S
H367 C348 0.913 . S
H368 C386 0.951 . S
H369 C388 0.951 . S
H370 C390 0.950 . S
H371 C391 0.950 . S
H372 C393 0.950 . S
H373 C396 0.950 . S
H374 C397 0.950 . S
H375 C399 0.950 . S
H376 C400 0.950 . S
H377 C401 0.951 1_455 S
H378 C403 0.951 . S
H379 C405 0.950 . S
H380 C406 0.950 . S
H381 C408 0.950 . S
H382 C411 0.950 . S
H383 C412 0.950 . S
H384 C414 0.950 . S
H385 C415 0.950 . S
C386 H368 0.951 . S
C386 C387 1.366 . S
C386 C388 1.388 . S
C387 C386 1.366 . S
C387 C391 1.385 . S
C388 H369 0.951 . S
C388 C386 1.388 . S
C388 C389 1.366 . S
C389 C388 1.366 . S
C389 C390 1.414 . S
C389 C392 1.499 . S
C390 H370 0.950 . S
C390 C389 1.414 . S
C390 C391 1.374 . S
C391 H371 0.950 . S
C391 C387 1.385 . S
C391 C390 1.374 . S
C392 C389 1.499 . S
C392 C393 1.373 . S
C392 C394 1.389 . S
C393 H372 0.950 . S
C393 C392 1.373 . S
C393 C409 1.377 . S
C394 C392 1.389 . S
C394 C395 1.524 . S
C394 C408 1.377 . S
C395 C394 1.524 . S
C395 C396 1.397 . S
C395 C400 1.363 . S
C396 H373 0.950 . S
C396 C395 1.397 . S
C396 C397 1.334 . S
C397 H374 0.950 . S
C397 C396 1.334 . S
C397 C398 1.287 . S
C398 C397 1.287 . S
C398 C399 1.524 . S
C398 H417 0.913 . S
C399 H375 0.950 . S
C399 C398 1.524 . S
C399 C400 1.415 . S
C400 H376 0.950 . S
C400 C395 1.363 . S
C400 C399 1.415 . S
C401 H377 0.951 1_655 S
C401 C402 1.366 . S
C401 C403 1.388 . S
C402 C401 1.366 . S
C402 C406 1.385 . S
C403 H378 0.951 . S
C403 C401 1.388 . S
C403 C404 1.366 . S
C404 C403 1.366 . S
C404 C405 1.414 . S
C404 C407 1.499 . S
C405 H379 0.950 . S
C405 C404 1.414 . S
C405 C406 1.374 . S
C406 H380 0.950 . S
C406 C402 1.385 . S
C406 C405 1.374 . S
C407 C404 1.499 . S
C407 C408 1.373 . S
C407 C409 1.389 . S
C408 H381 0.950 . S
C408 C394 1.377 . S
C408 C407 1.373 . S
C409 C393 1.377 . S
C409 C407 1.389 . S
C409 C410 1.524 . S
C410 C409 1.524 . S
C410 C411 1.397 . S
C410 C415 1.363 . S
C411 H382 0.950 . S
C411 C410 1.397 . S
C411 C412 1.334 . S
C412 H383 0.950 . S
C412 C411 1.334 . S
C412 C413 1.287 . S
C413 C412 1.287 . S
C413 C414 1.524 . S
C413 H416 0.999 . S
C414 H384 0.950 . S
C414 C413 1.524 . S
C414 C415 1.415 . S
C415 H385 0.950 . S
C415 C410 1.363 . S
C415 C414 1.415 . S
H416 C413 0.999 . S
H417 C398 0.913 . S
H418 C436 0.951 . S
H419 C438 0.951 . S
H420 C440 0.950 . S
H421 C441 0.950 . S
H422 C443 0.950 . S
H423 C446 0.950 . S
H424 C447 0.950 . S
H425 C449 0.950 . S
H426 C450 0.950 . S
H427 C451 0.951 . S
H428 C453 0.951 . S
H429 C455 0.950 . S
H430 C456 0.950 . S
H431 C458 0.950 . S
H432 C461 0.950 . S
H433 C462 0.950 . S
H434 C464 0.950 . S
H435 C465 0.950 . S
C436 H418 0.951 . S
C436 C437 1.366 . S
C436 C438 1.388 . S
C437 C436 1.366 . S
C437 C441 1.385 . S
C438 H419 0.951 . S
C438 C436 1.388 . S
C438 C439 1.366 . S
C439 C438 1.366 . S
C439 C440 1.414 . S
C439 C442 1.499 . S
C440 H420 0.950 . S
C440 C439 1.414 . S
C440 C441 1.374 . S
C441 H421 0.950 . S
C441 C437 1.385 . S
C441 C440 1.374 . S
C442 C439 1.499 . S
C442 C443 1.373 . S
C442 C444 1.389 . S
C443 H422 0.950 . S
C443 C442 1.373 . S
C443 C459 1.377 . S
C444 C442 1.389 . S
C444 C445 1.524 . S
C444 C458 1.377 . S
C445 C444 1.524 . S
C445 C446 1.397 . S
C445 C450 1.363 . S
C446 H423 0.950 . S
C446 C445 1.397 . S
C446 C447 1.334 . S
C447 H424 0.950 . S
C447 C446 1.334 . S
C447 C448 1.287 . S
C448 C447 1.287 . S
C448 C449 1.524 . S
C448 H467 0.913 . S
C449 H425 0.950 . S
C449 C448 1.524 . S
C449 C450 1.415 . S
C450 H426 0.950 . S
C450 C445 1.363 . S
C450 C449 1.415 . S
C451 H427 0.951 . S
C451 C452 1.366 . S
C451 C453 1.388 . S
C452 C451 1.366 . S
C452 C456 1.385 . S
C453 H428 0.951 . S
C453 C451 1.388 . S
C453 C454 1.366 . S
C454 C453 1.366 . S
C454 C455 1.414 . S
C454 C457 1.499 . S
C455 H429 0.950 . S
C455 C454 1.414 . S
C455 C456 1.374 . S
C456 H430 0.950 . S
C456 C452 1.385 . S
C456 C455 1.374 . S
C457 C454 1.499 . S
C457 C458 1.373 . S
C457 C459 1.389 . S
C458 H431 0.950 . S
C458 C444 1.377 . S
C458 C457 1.373 . S
C459 C443 1.377 . S
C459 C457 1.389 . S
C459 C460 1.524 . S
C460 C459 1.524 . S
C460 C461 1.397 . S
C460 C465 1.363 . S
C461 H432 0.950 . S
C461 C460 1.397 . S
C461 C462 1.334 . S
C462 H433 0.950 . S
C462 C461 1.334 . S
C462 C463 1.287 . S
C463 C462 1.287 . S
C463 C464 1.524 . S
C463 H466 0.999 . S
C464 H434 0.950 . S
C464 C463 1.524 . S
C464 C465 1.415 . S
C465 H435 0.950 . S
C465 C460 1.363 . S
C465 C464 1.415 . S
H466 C463 0.999 . S
H467 C448 0.913 . S
H468 C486 0.951 . S
H469 C488 0.951 . S
H470 C490 0.950 . S
H471 C491 0.950 . S
H472 C493 0.950 . S
H473 C496 0.950 . S
H474 C497 0.950 . S
H475 C499 0.950 . S
H476 C500 0.950 . S
H477 C501 0.951 . S
H478 C503 0.951 . S
H479 C505 0.950 . S
H480 C506 0.950 . S
H481 C508 0.950 . S
H482 C511 0.950 . S
H483 C512 0.950 . S
H484 C514 0.950 . S
H485 C515 0.950 . S
C486 H468 0.951 . S
C486 C487 1.366 . S
C486 C488 1.388 . S
C487 C486 1.366 . S
C487 C491 1.385 . S
C488 H469 0.951 . S
C488 C486 1.388 . S
C488 C489 1.366 . S
C489 C488 1.366 . S
C489 C490 1.414 . S
C489 C492 1.499 . S
C490 H470 0.950 . S
C490 C489 1.414 . S
C490 C491 1.374 . S
C491 H471 0.950 . S
C491 C487 1.385 . S
C491 C490 1.374 . S
C492 C489 1.499 . S
C492 C493 1.373 . S
C492 C494 1.389 . S
C493 H472 0.950 . S
C493 C492 1.373 . S
C493 C509 1.377 . S
C494 C492 1.389 . S
C494 C495 1.524 . S
C494 C508 1.377 . S
C495 C494 1.524 . S
C495 C496 1.397 . S
C495 C500 1.363 . S
C496 H473 0.950 . S
C496 C495 1.397 . S
C496 C497 1.334 . S
C497 H474 0.950 . S
C497 C496 1.334 . S
C497 C498 1.287 . S
C498 C497 1.287 . S
C498 C499 1.524 . S
C498 H517 0.913 . S
C499 H475 0.950 . S
C499 C498 1.524 . S
C499 C500 1.415 . S
C500 H476 0.950 . S
C500 C495 1.363 . S
C500 C499 1.415 . S
C501 H477 0.951 . S
C501 C502 1.366 . S
C501 C503 1.388 . S
C502 C501 1.366 . S
C502 C506 1.385 . S
C503 H478 0.951 . S
C503 C501 1.388 . S
C503 C504 1.366 . S
C504 C503 1.366 . S
C504 C505 1.414 . S
C504 C507 1.499 . S
C505 H479 0.950 . S
C505 C504 1.414 . S
C505 C506 1.374 . S
C506 H480 0.950 . S
C506 C502 1.385 . S
C506 C505 1.374 . S
C507 C504 1.499 . S
C507 C508 1.373 . S
C507 C509 1.389 . S
C508 H481 0.950 . S
C508 C494 1.377 . S
C508 C507 1.373 . S
C509 C493 1.377 . S
C509 C507 1.389 . S
C509 C510 1.524 . S
C510 C509 1.524 . S
C510 C511 1.397 . S
C510 C515 1.363 . S
C511 H482 0.950 . S
C511 C510 1.397 . S
C511 C512 1.334 . S
C512 H483 0.950 . S
C512 C511 1.334 . S
C512 C513 1.287 . S
C513 C512 1.287 . S
C513 C514 1.524 . S
C513 H516 0.999 . S
C514 H484 0.950 . S
C514 C513 1.524 . S
C514 C515 1.415 . S
C515 H485 0.950 . S
C515 C510 1.363 . S
C515 C514 1.415 . S
H516 C513 0.999 . S
H517 C498 0.913 . S
H518 C536 0.951 . S
H519 C538 0.951 . S
H520 C540 0.950 . S
H521 C541 0.950 . S
H522 C543 0.950 . S
H523 C546 0.950 . S
H524 C547 0.950 . S
H525 C549 0.950 . S
H526 C550 0.950 . S
H527 C551 0.951 . S
H528 C553 0.951 . S
H529 C555 0.950 . S
H530 C556 0.950 . S
H531 C558 0.950 . S
H532 C561 0.950 . S
H533 C562 0.950 . S
H534 C564 0.950 . S
H535 C565 0.950 . S
C536 H518 0.951 . S
C536 C537 1.366 . S
C536 C538 1.388 . S
C537 C536 1.366 . S
C537 C541 1.385 1_565 S
C538 H519 0.951 . S
C538 C536 1.388 . S
C538 C539 1.366 . S
C539 C538 1.366 . S
C539 C540 1.414 1_565 S
C539 C542 1.499 . S
C540 H520 0.950 . S
C540 C539 1.414 1_545 S
C540 C541 1.374 . S
C541 H521 0.950 . S
C541 C537 1.385 1_545 S
C541 C540 1.374 . S
C542 C539 1.499 . S
C542 C543 1.373 1_565 S
C542 C544 1.389 . S
C543 H522 0.950 . S
C543 C542 1.373 1_545 S
C543 C559 1.377 . S
C544 C542 1.389 . S
C544 C545 1.524 . S
C544 C558 1.377 . S
C545 C544 1.524 . S
C545 C546 1.397 1_455 S
C545 C550 1.363 . S
C546 H523 0.950 . S
C546 C545 1.397 1_655 S
C546 C547 1.334 . S
C547 H524 0.950 . S
C547 C546 1.334 . S
C547 C548 1.287 . S
C548 C547 1.287 . S
C548 C549 1.524 1_655 S
C548 H567 0.913 . S
C549 H525 0.950 . S
C549 C548 1.524 1_455 S
C549 C550 1.415 . S
C550 H526 0.950 . S
C550 C545 1.363 . S
C550 C549 1.415 . S
C551 H527 0.951 . S
C551 C552 1.366 1_545 S
C551 C553 1.388 . S
C552 C551 1.366 1_565 S
C552 C556 1.385 . S
C553 H528 0.951 . S
C553 C551 1.388 . S
C553 C554 1.366 1_545 S
C554 C553 1.366 1_565 S
C554 C555 1.414 . S
C554 C557 1.499 . S
C555 H529 0.950 . S
C555 C554 1.414 . S
C555 C556 1.374 . S
C556 H530 0.950 . S
C556 C552 1.385 . S
C556 C555 1.374 . S
C557 C554 1.499 . S
C557 C558 1.373 . S
C557 C559 1.389 1_565 S
C558 H531 0.950 . S
C558 C544 1.377 . S
C558 C557 1.373 . S
C559 C543 1.377 . S
C559 C557 1.389 1_545 S
C559 C560 1.524 . S
C560 C559 1.524 . S
C560 C561 1.397 . S
C560 C565 1.363 . S
C561 H532 0.950 . S
C561 C560 1.397 . S
C561 C562 1.334 . S
C562 H533 0.950 . S
C562 C561 1.334 . S
C562 C563 1.287 . S
C563 C562 1.287 . S
C563 C564 1.524 . S
C563 H566 0.999 . S
C564 H534 0.950 . S
C564 C563 1.524 . S
C564 C565 1.415 . S
C565 H535 0.950 . S
C565 C560 1.363 . S
C565 C564 1.415 . S
H566 C563 0.999 . S
H567 C548 0.913 . S
H568 C586 0.951 . S
H569 C588 0.951 . S
H570 C590 0.950 . S
H571 C591 0.950 . S
H572 C593 0.950 . S
H573 C596 0.950 . S
H574 C597 0.950 . S
H575 C599 0.950 . S
H576 C600 0.950 . S
H577 C601 0.951 . S
H578 C603 0.951 . S
H579 C605 0.950 1_565 S
H580 C606 0.950 . S
H581 C608 0.950 1_655 S
H582 C611 0.950 . S
H583 C612 0.950 . S
H584 C614 0.950 . S
H585 C615 0.950 . S
C586 H568 0.951 . S
C586 C587 1.366 1_665 S
C586 C588 1.388 . S
C587 C586 1.366 1_445 S
C587 C591 1.385 . S
C588 H569 0.951 . S
C588 C586 1.388 . S
C588 C589 1.366 1_665 S
C589 C588 1.366 1_445 S
C589 C590 1.414 . S
C589 C592 1.499 . S
C590 H570 0.950 . S
C590 C589 1.414 . S
C590 C591 1.374 . S
C591 H571 0.950 . S
C591 C587 1.385 . S
C591 C590 1.374 . S
C592 C589 1.499 . S
C592 C593 1.373 . S
C592 C594 1.389 1_545 S
C593 H572 0.950 . S
C593 C592 1.373 . S
C593 C609 1.377 . S
C594 C592 1.389 1_565 S
C594 C595 1.524 . S
C594 C608 1.377 . S
C595 C594 1.524 . S
C595 C596 1.397 . S
C595 C600 1.363 1_455 S
C596 H573 0.950 . S
C596 C595 1.397 . S
C596 C597 1.334 . S
C597 H574 0.950 . S
C597 C596 1.334 . S
C597 C598 1.287 . S
C598 C597 1.287 . S
C598 C599 1.524 1_455 S
C598 H617 0.913 . S
C599 H575 0.950 . S
C599 C598 1.524 1_655 S
C599 C600 1.415 . S
C600 H576 0.950 . S
C600 C595 1.363 1_655 S
C600 C599 1.415 . S
C601 H577 0.951 . S
C601 C602 1.366 1_455 S
C601 C603 1.388 . S
C602 C601 1.366 1_655 S
C602 C606 1.385 . S
C603 H578 0.951 . S
C603 C601 1.388 . S
C603 C604 1.358 1_455 S
C604 C603 1.358 1_655 S
C604 C605 1.420 . S
C604 C607 1.501 1_655 S
C605 H579 0.950 1_545 S
C605 C604 1.420 . S
C605 C606 1.374 . S
C606 H580 0.950 . S
C606 C602 1.385 . S
C606 C605 1.374 . S
C607 C604 1.501 1_455 S
C607 C608 1.373 1_545 S
C607 C609 1.389 . S
C608 H581 0.950 1_455 S
C608 C594 1.377 . S
C608 C607 1.373 1_565 S
C609 C593 1.377 . S
C609 C607 1.389 . S
C609 C610 1.524 . S
C610 C609 1.524 . S
C610 C611 1.397 1_455 S
C610 C615 1.363 . S
C611 H582 0.950 . S
C611 C610 1.397 1_655 S
C611 C612 1.334 . S
C612 H583 0.950 . S
C612 C611 1.334 . S
C612 C613 1.287 . S
C613 C612 1.287 . S
C613 C614 1.524 1_655 S
C613 H616 0.999 . S
C614 H584 0.950 . S
C614 C613 1.524 1_455 S
C614 C615 1.415 . S
C615 H585 0.950 . S
C615 C610 1.363 . S
C615 C614 1.415 . S
H616 C613 0.999 . S
H617 C598 0.913 . S
H618 C636 0.951 . S
H619 C638 0.951 . S
H620 C640 0.950 . S
H621 C641 0.950 . S
H622 C643 0.950 . S
H623 C646 0.950 . S
H624 C647 0.950 . S
H625 C649 0.950 . S
H626 C650 0.950 . S
H627 C651 0.951 . S
H628 C653 0.951 . S
H629 C655 0.950 . S
H630 C656 0.950 . S
H631 C658 0.950 . S
H632 C661 0.950 . S
H633 C662 0.950 . S
H634 C664 0.950 . S
H635 C665 0.950 . S
C636 H618 0.951 . S
C636 C637 1.366 . S
C636 C638 1.388 . S
C637 C636 1.366 . S
C637 C641 1.385 . S
C638 H619 0.951 . S
C638 C636 1.388 . S
C638 C639 1.366 . S
C639 C638 1.366 . S
C639 C640 1.414 . S
C639 C642 1.499 . S
C640 H620 0.950 . S
C640 C639 1.414 . S
C640 C641 1.374 . S
C641 H621 0.950 . S
C641 C637 1.385 . S
C641 C640 1.374 . S
C642 C639 1.499 . S
C642 C643 1.373 . S
C642 C644 1.389 . S
C643 H622 0.950 . S
C643 C642 1.373 . S
C643 C659 1.377 . S
C644 C642 1.389 . S
C644 C645 1.524 . S
C644 C658 1.377 . S
C645 C644 1.524 . S
C645 C646 1.397 . S
C645 C650 1.363 . S
C646 H623 0.950 . S
C646 C645 1.397 . S
C646 C647 1.334 . S
C647 H624 0.950 . S
C647 C646 1.334 . S
C647 C648 1.287 . S
C648 C647 1.287 . S
C648 C649 1.524 . S
C648 H667 0.913 . S
C649 H625 0.950 . S
C649 C648 1.524 . S
C649 C650 1.415 . S
C650 H626 0.950 . S
C650 C645 1.363 . S
C650 C649 1.415 . S
C651 H627 0.951 . S
C651 C652 1.366 . S
C651 C653 1.388 . S
C652 C651 1.366 . S
C652 C656 1.385 . S
C653 H628 0.951 . S
C653 C651 1.388 . S
C653 C654 1.366 . S
C654 C653 1.366 . S
C654 C655 1.414 . S
C654 C657 1.499 . S
C655 H629 0.950 . S
C655 C654 1.414 . S
C655 C656 1.374 . S
C656 H630 0.950 . S
C656 C652 1.385 . S
C656 C655 1.374 . S
C657 C654 1.499 . S
C657 C658 1.373 . S
C657 C659 1.389 . S
C658 H631 0.950 . S
C658 C644 1.377 . S
C658 C657 1.373 . S
C659 C643 1.377 . S
C659 C657 1.389 . S
C659 C660 1.524 . S
C660 C659 1.524 . S
C660 C661 1.397 . S
C660 C665 1.363 . S
C661 H632 0.950 . S
C661 C660 1.397 . S
C661 C662 1.334 . S
C662 H633 0.950 . S
C662 C661 1.334 . S
C662 C663 1.287 . S
C663 C662 1.287 . S
C663 C664 1.524 . S
C663 H666 0.999 . S
C664 H634 0.950 . S
C664 C663 1.524 . S
C664 C665 1.415 . S
C665 H635 0.950 . S
C665 C660 1.363 . S
C665 C664 1.415 . S
H666 C663 0.999 . S
H667 C648 0.913 . S
H668 C686 0.951 . S
H669 C688 0.951 . S
H670 C690 0.950 . S
H671 C691 0.950 . S
H672 C693 0.950 . S
H673 C696 0.950 . S
H674 C697 0.950 . S
H675 C699 0.950 . S
H676 C700 0.950 . S
H677 C701 0.951 . S
H678 C703 0.951 . S
H679 C705 0.950 . S
H680 C706 0.950 . S
H681 C708 0.950 . S
H682 C711 0.950 . S
H683 C712 0.950 . S
H684 C714 0.950 . S
H685 C715 0.950 . S
C686 H668 0.951 . S
C686 C687 1.366 . S
C686 C688 1.388 . S
C687 C686 1.366 . S
C687 C691 1.385 . S
C688 H669 0.951 . S
C688 C686 1.388 . S
C688 C689 1.366 . S
C689 C688 1.366 . S
C689 C690 1.414 . S
C689 C692 1.499 . S
C690 H670 0.950 . S
C690 C689 1.414 . S
C690 C691 1.374 . S
C691 H671 0.950 . S
C691 C687 1.385 . S
C691 C690 1.374 . S
C692 C689 1.499 . S
C692 C693 1.373 . S
C692 C694 1.389 . S
C693 H672 0.950 . S
C693 C692 1.373 . S
C693 C709 1.377 . S
C694 C692 1.389 . S
C694 C695 1.524 . S
C694 C708 1.377 . S
C695 C694 1.524 . S
C695 C696 1.397 . S
C695 C700 1.363 . S
C696 H673 0.950 . S
C696 C695 1.397 . S
C696 C697 1.334 . S
C697 H674 0.950 . S
C697 C696 1.334 . S
C697 C698 1.287 . S
C698 C697 1.287 . S
C698 C699 1.524 . S
C698 H717 0.913 . S
C699 H675 0.950 . S
C699 C698 1.524 . S
C699 C700 1.415 . S
C700 H676 0.950 . S
C700 C695 1.363 . S
C700 C699 1.415 . S
C701 H677 0.951 . S
C701 C702 1.366 . S
C701 C703 1.388 . S
C702 C701 1.366 . S
C702 C706 1.385 . S
C703 H678 0.951 . S
C703 C701 1.388 . S
C703 C704 1.366 . S
C704 C703 1.366 . S
C704 C705 1.414 . S
C704 C707 1.499 . S
C705 H679 0.950 . S
C705 C704 1.414 . S
C705 C706 1.374 . S
C706 H680 0.950 . S
C706 C702 1.385 . S
C706 C705 1.374 . S
C707 C704 1.499 . S
C707 C708 1.373 . S
C707 C709 1.389 . S
C708 H681 0.950 . S
C708 C694 1.377 . S
C708 C707 1.373 . S
C709 C693 1.377 . S
C709 C707 1.389 . S
C709 C710 1.524 . S
C710 C709 1.524 . S
C710 C711 1.397 . S
C710 C715 1.363 . S
C711 H682 0.950 . S
C711 C710 1.397 . S
C711 C712 1.334 . S
C712 H683 0.950 . S
C712 C711 1.334 . S
C712 C713 1.287 . S
C713 C712 1.287 . S
C713 C714 1.524 . S
C713 H716 0.999 . S
C714 H684 0.950 . S
C714 C713 1.524 . S
C714 C715 1.415 . S
C715 H685 0.950 . S
C715 C710 1.363 . S
C715 C714 1.415 . S
H716 C713 0.999 . S
H717 C698 0.913 . S
C152 C105 1.523 . S
C137 C15 1.387 . S
C187 C13 1.377 . S
C202 C91 1.366 . S
C237 C18 1.249 1_554 S
C252 C110 1.412 . S
C287 C17 1.507 . S
C302 C86 1.539 . S
C337 C36 1.387 . S
C352 C67 1.524 . S
C387 C34 1.378 . S
C402 C53 1.366 1_655 S
C452 C72 1.413 . S
C437 C39 1.254 . S
C502 C48 1.538 . S
C487 C38 1.508 . S
C537 C14 1.636 1_565 S
C552 C44 1.676 . S
C587 C16 1.403 . S
C602 C63 1.418 . S
C652 C82 1.677 . S
C637 C35 1.637 . S
C687 C37 1.402 . S
C702 C101 1.418 . S
