# Generated by pormake.
# Topology rtl, (3,6)-cn, num edge types: 1
# Building blocks:
#     Node 0, Type 0, BuildingBlock: QEWDON_clean_linker_0, # of connection points: 3
#     Node 1, Type 0, BuildingBlock: QEWDON_clean_linker_0, # of connection points: 3
#     Node 2, Type 0, BuildingBlock: QEWDON_clean_linker_0, # of connection points: 3
#     Node 3, Type 0, BuildingBlock: QEWDON_clean_linker_0, # of connection points: 3
#     Node 4, Type 1, BuildingBlock: LEVNOQ01_clean_sbu_1, # of connection points: 6
#     Node 5, Type 1, BuildingBlock: LEVNOQ01_clean_sbu_1, # of connection points: 6
#     Edge 6, Type (0, 1), BuildingBlock: FUNLAD_clean_linker_1, # of connection points: 2
#     Edge 7, Type (0, 1), BuildingBlock: FUNLAD_clean_linker_1, # of connection points: 2
#     Edge 8, Type (0, 1), BuildingBlock: FUNLAD_clean_linker_1, # of connection points: 2
#     Edge 9, Type (0, 1), BuildingBlock: FUNLAD_clean_linker_1, # of connection points: 2
#     Edge 10, Type (0, 1), BuildingBlock: FUNLAD_clean_linker_1, # of connection points: 2
#     Edge 11, Type (0, 1), BuildingBlock: FUNLAD_clean_linker_1, # of connection points: 2
#     Edge 12, Type (0, 1), BuildingBlock: FUNLAD_clean_linker_1, # of connection points: 2
#     Edge 13, Type (0, 1), BuildingBlock: FUNLAD_clean_linker_1, # of connection points: 2
#     Edge 14, Type (0, 1), BuildingBlock: FUNLAD_clean_linker_1, # of connection points: 2
#     Edge 15, Type (0, 1), BuildingBlock: FUNLAD_clean_linker_1, # of connection points: 2
#     Edge 16, Type (0, 1), BuildingBlock: FUNLAD_clean_linker_1, # of connection points: 2
#     Edge 17, Type (0, 1), BuildingBlock: FUNLAD_clean_linker_1, # of connection points: 2
# Relax obj value: 0.038
# Max RMSD: 0.175
# Mean RMSD: 0.137
data_MOF--net-rtl--node1-LEVNOQ01_clean_sbu_1--node2-QEWDON_clean_linker_0--edge1-FUNLAD_clean_linker_1
_symmetry_space_group_name_H-M    P1
_symmetry_Int_Tables_number       1
_symmetry_cell_setting            triclinic
loop_
_symmetry_equiv_pos_as_xyz
'x, y, z'
_cell_length_a     39.561493
_cell_length_b     39.200322
_cell_length_c     22.686928
_cell_angle_alpha  91.55685
_cell_angle_beta   99.444289
_cell_angle_gamma 90.160236
loop_
_atom_site_label
_atom_site_type_symbol
_atom_site_fract_x
_atom_site_fract_y
_atom_site_fract_z
_atom_type_partial_charge
H0 H 0.24238 0.86775 0.18636 0.0
C1 C 0.22738 0.87041 0.14222 0.0
C2 C 0.19388 0.88319 0.13628 0.0
C3 C 0.24255 0.8629 0.09179 0.0
H4 H 0.14925 0.89671 0.07256 0.0
C5 C 0.17506 0.88699 0.0783 0.0
C6 C 0.19012 0.87983 0.02717 0.0
C7 C 0.22402 0.86805 0.03452 0.0
C8 C 0.27948 0.85512 0.09935 0.0
H9 H 0.23637 0.86381 0.99569 0.0
C10 C 0.29148 0.82128 0.09956 0.0
C11 C 0.32701 0.81493 0.10538 0.0
C12 C 0.30298 0.88234 0.10581 0.0
H13 H 0.29412 0.90848 0.10593 0.0
C14 C 0.338 0.87612 0.11154 0.0
H15 H 0.27324 0.80031 0.09369 0.0
C16 C 0.34994 0.8427 0.11082 0.0
H17 H 0.37727 0.83849 0.11473 0.0
H18 H 0.35597 0.89727 0.1161 0.0
H19 H 0.71323 0.70536 0.51795 0.0
C20 C 0.69965 0.70022 0.55452 0.0
C21 C 0.66501 0.68972 0.54303 0.0
C22 C 0.71788 0.70096 0.61336 0.0
H23 H 0.62233 0.67241 0.58254 0.0
C24 C 0.64879 0.68113 0.59122 0.0
C25 C 0.66663 0.68141 0.64994 0.0
C26 C 0.70118 0.69171 0.66078 0.0
C27 C 0.75553 0.70616 0.62468 0.0
H28 H 0.71551 0.69203 0.70577 0.0
C29 C 0.77084 0.73673 0.6104 0.0
C30 C 0.80687 0.74019 0.62022 0.0
C31 C 0.77647 0.67949 0.64923 0.0
H32 H 0.76523 0.65577 0.66044 0.0
C33 C 0.81204 0.6828 0.65822 0.0
H34 H 0.75489 0.75739 0.59125 0.0
C35 C 0.82718 0.71281 0.64327 0.0
H36 H 0.85489 0.71484 0.65041 0.0
H37 H 0.82794 0.66195 0.67652 0.0
H38 H 0.77813 0.18632 0.06815 0.0
C39 C 0.79125 0.18132 0.03054 0.0
C40 C 0.8236 0.16538 0.03903 0.0
C41 C 0.77462 0.18838 0.97231 0.0
H42 H 0.86362 0.14456 0.99513 0.0
C43 C 0.83887 0.15698 0.98897 0.0
C44 C 0.82276 0.16444 0.93111 0.0
C45 C 0.79102 0.18066 0.92317 0.0
C46 C 0.73844 0.19948 0.96068 0.0
H47 H 0.77824 0.18587 0.87828 0.0
C48 C 0.72816 0.23141 0.98132 0.0
C49 C 0.69408 0.24242 0.96462 0.0
C50 C 0.71416 0.17822 0.92511 0.0
H51 H 0.72152 0.15354 0.90886 0.0
C52 C 0.68025 0.18851 0.91016 0.0
H53 H 0.74683 0.24802 0.00849 0.0
C54 C 0.67019 0.22034 0.92961 0.0
H55 H 0.64352 0.22727 0.91795 0.0
H56 H 0.66169 0.17176 0.88322 0.0
H57 H 0.326 0.31339 0.56913 0.0
C58 C 0.32661 0.32984 0.53173 0.0
C59 C 0.33755 0.36416 0.54149 0.0
C60 C 0.317 0.31648 0.47314 0.0
H61 H 0.34637 0.41126 0.49917 0.0
C62 C 0.33817 0.38486 0.4919 0.0
C63 C 0.32901 0.37159 0.43321 0.0
C64 C 0.31798 0.33759 0.42446 0.0
C65 C 0.30943 0.27966 0.46125 0.0
H66 H 0.31135 0.32703 0.37931 0.0
C67 C 0.27971 0.26429 0.47573 0.0
C68 C 0.27149 0.22998 0.45844 0.0
C69 C 0.33137 0.26024 0.43112 0.0
H70 H 0.35429 0.27162 0.41945 0.0
C71 C 0.32397 0.22607 0.41571 0.0
H72 H 0.26253 0.27927 0.49851 0.0
C73 C 0.2943 0.21098 0.42912 0.0
H74 H 0.28965 0.18426 0.41728 0.0
H75 H 0.34126 0.21124 0.39305 0.0
O76 O 0.9942 0.08162 0.63867 0.0
Mg77 Mg 0.03699 0.05705 0.6162 0.0
O78 O 0.96638 0.039 0.58756 0.0
Mg79 Mg 1.00106 0.01404 0.52231 0.0
O80 O 0.04508 0.05684 0.5292 0.0
O81 O 0.07287 0.09075 0.60334 0.0
O82 O 0.03414 0.98731 0.45518 0.0
O83 O 0.9711 0.05085 0.44998 0.0
Mg84 Mg 0.95683 0.97749 0.42405 0.0
O85 O 0.95799 0.9709 0.51407 0.0
O86 O 0.99797 0.95814 0.3876 0.0
O87 O 0.93312 0.02115 0.38708 0.0
O88 O 0.92386 0.94148 0.44103 0.0
C89 C 0.05 0.98524 0.64858 0.0
C90 C 0.96693 0.06462 0.62359 0.0
C91 C 0.06785 0.08066 0.54795 0.0
C92 C 0.02817 0.96736 0.40896 0.0
C93 C 0.94641 0.04953 0.40585 0.0
C94 C 0.9342 0.94782 0.49725 0.0
O95 O 0.05694 0.01563 0.66687 0.0
O96 O 0.0307 0.9793 0.59827 0.0
O97 O 0.56873 0.54128 0.18942 0.0
Mg98 Mg 0.5469 0.4947 0.15775 0.0
O99 O 0.52917 0.56585 0.12502 0.0
Mg100 Mg 0.50111 0.52433 0.05475 0.0
O101 O 0.54416 0.48217 0.06875 0.0
O102 O 0.58093 0.45877 0.14241 0.0
O103 O 0.47269 0.48428 0.98165 0.0
O104 O 0.53609 0.54728 0.99024 0.0
Mg105 Mg 0.46224 0.55944 0.95128 0.0
O106 O 0.45796 0.56654 0.04017 0.0
O107 O 0.44281 0.51365 0.90959 0.0
O108 O 0.50584 0.58041 0.92484 0.0
O109 O 0.42646 0.59387 0.96466 0.0
C110 C 0.47457 0.48379 0.17088 0.0
C111 C 0.55387 0.56795 0.16907 0.0
C112 C 0.56853 0.46053 0.08627 0.0
C113 C 0.45224 0.48529 0.93172 0.0
C114 C 0.53437 0.56831 0.94788 0.0
C115 C 0.4345 0.58888 0.02124 0.0
O116 O 0.50509 0.47729 0.1938 0.0
O117 O 0.46791 0.50058 0.12269 0.0
H118 H 0.2299 0.22367 0.51225 0.0
C119 C 0.23985 0.21393 0.47321 0.0
H120 H 0.23132 0.17896 0.39927 0.0
H121 H 0.15793 0.09835 0.59853 0.0
H122 H 0.21569 0.09256 0.65264 0.0
H123 H 0.26448 0.12075 0.61829 0.0
H124 H 0.25579 0.15512 0.53006 0.0
C125 C 0.22352 0.18755 0.44088 0.0
C126 C 0.19427 0.16919 0.46011 0.0
C127 C 0.19995 0.14862 0.51124 0.0
C128 C 0.17188 0.13196 0.53055 0.0
C129 C 0.17826 0.11184 0.58213 0.0
C130 C 0.21132 0.10811 0.61345 0.0
C131 C 0.23878 0.124 0.59413 0.0
C132 C 0.23336 0.1439 0.54355 0.0
H133 H 0.09228 0.08221 0.46617 0.0
C134 C 0.08984 0.09542 0.50796 0.0
H135 H 0.10639 0.13626 0.56848 0.0
H136 H 0.17504 0.2036 0.35688 0.0
H137 H 0.11748 0.2074 0.30049 0.0
H138 H 0.06882 0.1786 0.3343 0.0
H139 H 0.07741 0.14562 0.42456 0.0
C140 C 0.1089 0.12354 0.52624 0.0
C141 C 0.13821 0.13541 0.49835 0.0
C142 C 0.13279 0.15429 0.44531 0.0
C143 C 0.1609 0.17108 0.42601 0.0
C144 C 0.15468 0.19023 0.37337 0.0
C145 C 0.12177 0.19268 0.3407 0.0
C146 C 0.09436 0.17647 0.35975 0.0
C147 C 0.09963 0.15759 0.41158 0.0
H148 H 0.36521 0.77766 0.08442 0.0
C149 C 0.34138 0.78008 0.10223 0.0
H150 H 0.30442 0.75338 0.14103 0.0
H151 H 0.3373 0.615 0.00827 0.0
H152 H 0.27637 0.62191 0.97262 0.0
H153 H 0.24589 0.67282 1.00207 0.0
H154 H 0.27595 0.71696 0.06759 0.0
C155 C 0.32793 0.75191 0.12226 0.0
C156 C 0.34419 0.71791 0.11546 0.0
C157 C 0.32602 0.69213 0.07814 0.0
C158 C 0.34372 0.66306 0.0603 0.0
C159 C 0.32513 0.63788 0.02217 0.0
C160 C 0.29018 0.64145 1.00168 0.0
C161 C 0.27302 0.6701 0.01834 0.0
C162 C 0.2906 0.69526 0.05597 0.0
H163 H 0.42085 0.60351 0.11015 0.0
C164 C 0.4176 0.60986 0.06326 0.0
H165 H 0.39553 0.64274 0.99571 0.0
H166 H 0.38352 0.75665 0.20259 0.0
H167 H 0.44398 0.74875 0.24129 0.0
H168 H 0.47586 0.70081 0.2046 0.0
H169 H 0.44751 0.66015 0.1303 0.0
C170 C 0.39888 0.63715 0.04298 0.0
C171 C 0.37958 0.66 0.07901 0.0
C172 C 0.39693 0.68382 0.12175 0.0
C173 C 0.37893 0.71238 0.14103 0.0
C174 C 0.39642 0.73532 0.18494 0.0
C175 C 0.43099 0.73095 0.20771 0.0
C176 C 0.44892 0.7039 0.18716 0.0
C177 C 0.43227 0.68064 0.14447 0.0
H178 H 0.84743 0.76777 0.58475 0.0
C179 C 0.82445 0.77129 0.60472 0.0
H180 H 0.79317 0.80708 0.64089 0.0
H181 H 0.94486 0.87727 0.60463 0.0
H182 H 0.97042 0.83879 0.68089 0.0
H183 H 0.93454 0.79886 0.72639 0.0
H184 H 0.87285 0.79661 0.69453 0.0
C185 C 0.81558 0.80307 0.61965 0.0
C186 C 0.83579 0.83327 0.60567 0.0
C187 C 0.87151 0.83595 0.62765 0.0
C188 C 0.89199 0.86026 0.60363 0.0
C189 C 0.9279 0.86025 0.62267 0.0
C190 C 0.94294 0.83819 0.66641 0.0
C191 C 0.92276 0.81563 0.6919 0.0
C192 C 0.88746 0.8144 0.6729 0.0
H193 H 0.92296 0.93672 0.58805 0.0
C194 C 0.91815 0.92875 0.54118 0.0
H195 H 0.89201 0.89494 0.47507 0.0
H196 H 0.7673 0.83925 0.56227 0.0
H197 H 0.74088 0.88187 0.49434 0.0
H198 H 0.77593 0.92611 0.45723 0.0
H199 H 0.83775 0.92776 0.48752 0.0
C200 C 0.89702 0.90213 0.52233 0.0
C201 C 0.87635 0.88312 0.56015 0.0
C202 C 0.84012 0.88325 0.54422 0.0
C203 C 0.81983 0.85816 0.56655 0.0
C204 C 0.78391 0.85796 0.54732 0.0
C205 C 0.7684 0.88229 0.5083 0.0
C206 C 0.78813 0.90717 0.48732 0.0
C207 C 0.82357 0.90773 0.50481 0.0
H208 H 0.69663 0.28673 0.02832 0.0
C209 C 0.6833 0.2763 0.98591 0.0
H210 H 0.64511 0.28541 0.91101 0.0
H211 H 0.58412 0.37255 0.12339 0.0
H212 H 0.57526 0.31722 0.16371 0.0
H213 H 0.59643 0.26486 0.11972 0.0
H214 H 0.62684 0.26755 0.03566 0.0
C215 C 0.65717 0.29394 0.95544 0.0
C216 C 0.64349 0.32545 0.98088 0.0
C217 C 0.62518 0.32327 0.02944 0.0
C218 C 0.61249 0.3534 0.05418 0.0
C219 C 0.59455 0.35053 0.10305 0.0
C220 C 0.5891 0.3189 0.12648 0.0
C221 C 0.60104 0.28943 0.10175 0.0
C222 C 0.61872 0.2914 0.05367 0.0
H223 H 0.56603 0.43188 0.99957 0.0
C224 C 0.58095 0.4361 0.04383 0.0
H225 H 0.62317 0.42103 0.10697 0.0
H226 H 0.67487 0.33816 0.88488 0.0
H227 H 0.68194 0.39342 0.84236 0.0
H228 H 0.65992 0.44566 0.88543 0.0
H229 H 0.6305 0.44298 0.97113 0.0
C230 C 0.60874 0.41693 0.06224 0.0
C231 C 0.61756 0.3856 0.02976 0.0
C232 C 0.63442 0.38761 0.97949 0.0
C233 C 0.64728 0.35745 0.95485 0.0
C234 C 0.66446 0.36022 0.90514 0.0
C235 C 0.66876 0.39178 0.88042 0.0
C236 C 0.65636 0.4212 0.90468 0.0
C237 C 0.63949 0.41932 0.9538 0.0
H238 H 0.19417 0.88493 0.23422 0.0
C239 C 0.18031 0.89347 0.19182 0.0
H240 H 0.1402 0.92528 0.15244 0.0
H241 H 0.09502 0.89847 0.41749 0.0
H242 H 0.09602 0.83764 0.39381 0.0
H243 H 0.11623 0.81658 0.3023 0.0
H244 H 0.13637 0.85582 0.23504 0.0
C245 C 0.15315 0.91401 0.19304 0.0
C246 C 0.142 0.92569 0.25012 0.0
C247 C 0.12905 0.90217 0.28764 0.0
C248 C 0.11541 0.91436 0.33852 0.0
C249 C 0.10421 0.89045 0.37694 0.0
C250 C 0.10484 0.85556 0.36407 0.0
C251 C 0.11636 0.8437 0.31269 0.0
C252 C 0.12819 0.86659 0.27464 0.0
H253 H 0.04691 0.93813 0.33792 0.0
C254 C 0.05537 0.95465 0.37694 0.0
H255 H 0.09812 0.98015 0.42755 0.0
H256 H 0.16917 0.97734 0.19336 0.0
H257 H 0.1676 0.03791 0.21765 0.0
H258 H 0.14073 0.05891 0.30232 0.0
H259 H 0.11557 0.01943 0.36365 0.0
C260 C 0.08881 0.96266 0.39046 0.0
C261 C 0.11238 0.94994 0.34952 0.0
C262 C 0.12729 0.97328 0.31453 0.0
C263 C 0.14225 0.96114 0.265 0.0
C264 C 0.15689 0.98512 0.23076 0.0
C265 C 0.15629 0.01997 0.24435 0.0
C266 C 0.14119 0.0318 0.29205 0.0
C267 C 0.12676 0.00885 0.32683 0.0
H268 H 0.62054 0.6683 0.68817 0.0
C269 C 0.64842 0.6688 0.69755 0.0
H270 H 0.69165 0.65341 0.7594 0.0
H271 H 0.59206 0.64989 0.95793 0.0
H272 H 0.62524 0.70117 0.99146 0.0
H273 H 0.66707 0.72387 0.93264 0.0
H274 H 0.67602 0.69546 0.83985 0.0
C275 C 0.66396 0.65458 0.74816 0.0
C276 C 0.64301 0.63811 0.78847 0.0
C277 C 0.63866 0.65459 0.843 0.0
C278 C 0.61449 0.64154 0.87683 0.0
C279 C 0.60998 0.6589 0.93045 0.0
C280 C 0.6289 0.68826 0.95021 0.0
C281 C 0.65248 0.70104 0.91709 0.0
C282 C 0.65735 0.68454 0.86397 0.0
H283 H 0.58957 0.56524 0.94038 0.0
C284 C 0.56571 0.57828 0.92472 0.0
H285 H 0.54123 0.61625 0.86876 0.0
H286 H 0.65017 0.59683 0.69215 0.0
H287 H 0.61834 0.54464 0.66031 0.0
H288 H 0.5754 0.52277 0.71763 0.0
H289 H 0.56424 0.55276 0.8074 0.0
C290 C 0.56483 0.60267 0.88391 0.0
C291 C 0.59498 0.61196 0.85619 0.0
C292 C 0.60122 0.59404 0.80402 0.0
C293 C 0.6255 0.60698 0.77038 0.0
C294 C 0.63144 0.58849 0.71861 0.0
C295 C 0.61348 0.55844 0.70002 0.0
C296 C 0.58934 0.5461 0.73234 0.0
C297 C 0.58314 0.56359 0.78374 0.0
H298 H 0.85957 0.13322 0.09723 0.0
C299 C 0.84139 0.15398 0.09801 0.0
H300 H 0.82009 0.18855 0.15501 0.0
H301 H 0.85054 0.0814 0.36459 0.0
H302 H 0.78889 0.08861 0.35508 0.0
H303 H 0.75787 0.12537 0.27791 0.0
H304 H 0.78827 0.15534 0.21005 0.0
C305 C 0.83779 0.16777 0.15156 0.0
C306 C 0.85707 0.15288 0.20719 0.0
C307 C 0.83901 0.13616 0.24713 0.0
C308 C 0.85684 0.11455 0.29105 0.0
C309 C 0.8381 0.09764 0.3298 0.0
C310 C 0.80279 0.10168 0.32498 0.0
C311 C 0.78533 0.12241 0.28157 0.0
C312 C 0.80308 0.13944 0.24285 0.0
H313 H 0.94333 0.1057 0.39363 0.0
C314 C 0.93299 0.0811 0.37601 0.0
H315 H 0.8975 0.05472 0.31094 0.0
H316 H 0.90019 0.18962 0.1506 0.0
H317 H 0.9621 0.18389 0.16159 0.0
H318 H 0.99271 0.14321 0.2322 0.0
H319 H 0.96195 0.10867 0.29299 0.0
C320 C 0.90841 0.07937 0.32716 0.0
C321 C 0.89262 0.10948 0.29469 0.0
C322 C 0.9112 0.12904 0.25891 0.0
C323 C 0.89341 0.15141 0.21618 0.0
C324 C 0.91246 0.17137 0.18203 0.0
C325 C 0.94794 0.16847 0.18818 0.0
C326 C 0.96517 0.14563 0.22806 0.0
C327 C 0.94715 0.12599 0.26293 0.0
H328 H 0.34777 0.40722 0.60711 0.0
C329 C 0.34897 0.37957 0.60235 0.0
H330 H 0.36764 0.33477 0.64632 0.0
H331 H 0.47716 0.42555 0.82254 0.0
H332 H 0.51368 0.39239 0.76728 0.0
H333 H 0.48885 0.35308 0.68467 0.0
H334 H 0.42723 0.34691 0.6565 0.0
C335 C 0.36351 0.36204 0.65017 0.0
C336 C 0.3783 0.38057 0.70721 0.0
C337 C 0.41438 0.38289 0.72482 0.0
C338 C 0.42874 0.40533 0.7731 0.0
C339 C 0.46483 0.40857 0.78715 0.0
C340 C 0.48613 0.38972 0.75563 0.0
C341 C 0.47215 0.36759 0.70909 0.0
C342 C 0.43673 0.36426 0.69344 0.0
H343 H 0.44732 0.42887 0.91645 0.0
C344 C 0.43994 0.45346 0.89764 0.0
H345 H 0.41256 0.47974 0.82505 0.0
H346 H 0.30847 0.37675 0.69306 0.0
H347 H 0.27174 0.40796 0.75124 0.0
H348 H 0.29648 0.44684 0.83464 0.0
H349 H 0.35813 0.45465 0.8606 0.0
C350 C 0.42052 0.45505 0.8429 0.0
C351 C 0.40692 0.42494 0.8044 0.0
C352 C 0.37092 0.42022 0.79007 0.0
C353 C 0.35661 0.398 0.74166 0.0
C354 C 0.32058 0.39386 0.72859 0.0
C355 C 0.29924 0.41144 0.76184 0.0
C356 C 0.31317 0.43333 0.80882 0.0
C357 C 0.34856 0.43773 0.82303 0.0
H358 H 0.62473 0.66422 0.47821 0.0
C359 C 0.646 0.68225 0.48174 0.0
H360 H 0.67483 0.71247 0.43182 0.0
H361 H 0.64746 0.60202 0.21829 0.0
H362 H 0.70964 0.60657 0.23759 0.0
H363 H 0.73898 0.64468 0.31848 0.0
H364 H 0.70649 0.67862 0.38016 0.0
C365 C 0.6539 0.69442 0.43073 0.0
C366 C 0.63658 0.67954 0.37198 0.0
C367 C 0.65604 0.66062 0.33552 0.0
C368 C 0.63917 0.63822 0.28952 0.0
C369 C 0.65915 0.61895 0.25448 0.0
C370 C 0.69477 0.62145 0.2649 0.0
C371 C 0.71128 0.64294 0.3104 0.0
C372 C 0.6923 0.66227 0.34556 0.0
H373 H 0.556 0.6248 0.17606 0.0
C374 C 0.56549 0.60144 0.19738 0.0
H375 H 0.59743 0.57914 0.26949 0.0
H376 H 0.59219 0.72075 0.41986 0.0
H377 H 0.52985 0.71832 0.39745 0.0
H378 H 0.50044 0.6768 0.32238 0.0
H379 H 0.5329 0.63803 0.2686 0.0
C380 C 0.58767 0.60276 0.24935 0.0
C381 C 0.603 0.6345 0.28044 0.0
C382 C 0.58339 0.65666 0.31172 0.0
C383 C 0.60031 0.67974 0.35669 0.0
C384 C 0.58039 0.70207 0.38674 0.0
C385 C 0.54472 0.70103 0.37406 0.0
C386 C 0.52817 0.67769 0.3317 0.0
C387 C 0.54714 0.65557 0.301 0.0
H388 H 0.83868 0.17334 0.84357 0.0
C389 C 0.8388 0.15491 0.87855 0.0
H390 H 0.85235 0.10547 0.90758 0.0
H391 H 0.87825 0.10855 0.62204 0.0
H392 H 0.81713 0.11818 0.59551 0.0
H393 H 0.78082 0.12519 0.67359 0.0
H394 H 0.80549 0.1233 0.77865 0.0
C395 C 0.85299 0.12409 0.87314 0.0
C396 C 0.87346 0.11586 0.82515 0.0
C397 C 0.85828 0.11555 0.76388 0.0
C398 C 0.87895 0.11 0.71875 0.0
C399 C 0.86356 0.11163 0.65802 0.0
C400 C 0.82852 0.11722 0.64219 0.0
C401 C 0.8081 0.12128 0.68616 0.0
C402 C 0.82264 0.12041 0.74635 0.0
H403 H 0.91709 0.05301 0.65141 0.0
C404 C 0.93729 0.07208 0.65373 0.0
H405 H 0.95791 0.11867 0.69258 0.0
H406 H 0.91061 0.11316 0.93847 0.0
H407 H 0.97064 0.09924 0.96457 0.0
H408 H 0.00559 0.0862 0.88634 0.0
H409 H 0.98073 0.08748 0.78152 0.0
C410 C 0.9372 0.10007 0.68938 0.0
C411 C 0.91438 0.10334 0.7351 0.0
C412 C 0.92911 0.10168 0.79632 0.0
C413 C 0.90875 0.10828 0.84137 0.0
C414 C 0.92455 0.10764 0.90217 0.0
C415 C 0.9591 0.09978 0.91791 0.0
C416 C 0.97879 0.09252 0.87389 0.0
C417 C 0.96416 0.09348 0.81381 0.0
H418 H 0.31579 0.38523 0.33799 0.0
C419 C 0.33244 0.39177 0.37987 0.0
H420 H 0.37608 0.42013 0.41997 0.0
H421 H 0.40618 0.41457 0.14317 0.0
H422 H 0.40581 0.35273 0.14966 0.0
H423 H 0.38877 0.32532 0.23701 0.0
H424 H 0.37137 0.35913 0.31727 0.0
C425 C 0.35853 0.41377 0.3791 0.0
C426 C 0.36576 0.4293 0.32298 0.0
C427 C 0.37678 0.40875 0.27717 0.0
C428 C 0.38836 0.42449 0.22822 0.0
C429 C 0.39829 0.40368 0.18215 0.0
C430 C 0.39805 0.36826 0.18522 0.0
C431 C 0.38832 0.35285 0.23429 0.0
C432 C 0.37802 0.37268 0.27997 0.0
H433 H 0.45669 0.45408 0.23963 0.0
C434 C 0.44772 0.4702 0.20196 0.0
H435 H 0.40376 0.49324 0.15325 0.0
H436 H 0.34217 0.47586 0.39807 0.0
H437 H 0.34284 0.53758 0.39028 0.0
H438 H 0.36541 0.56454 0.30754 0.0
H439 H 0.38723 0.52992 0.23166 0.0
C440 C 0.41399 0.4762 0.18867 0.0
C441 C 0.39105 0.46052 0.22688 0.0
C442 C 0.37773 0.48092 0.26996 0.0
C443 C 0.36504 0.46532 0.31802 0.0
C444 C 0.35245 0.48642 0.36106 0.0
C445 C 0.35261 0.52183 0.35701 0.0
C446 C 0.36531 0.53702 0.3104 0.0
C447 C 0.37784 0.51692 0.2673 0.0
H448 H 0.18843 0.89843 0.93551 0.0
C449 C 0.17261 0.88872 0.96634 0.0
H450 H 0.12237 0.87648 0.97871 0.0
H451 H 0.04909 0.98877 0.81106 0.0
H452 H 0.03411 0.00476 0.90746 0.0
H453 H 0.05904 0.97462 0.99826 0.0
H454 H 0.09875 0.92825 0.99325 0.0
C455 C 0.1384 0.88675 0.94882 0.0
C456 C 0.12121 0.90273 0.89257 0.0
C457 C 0.09792 0.92987 0.89641 0.0
C458 C 0.08416 0.94784 0.84429 0.0
C459 C 0.06088 0.97476 0.84944 0.0
C460 C 0.05192 0.98411 0.90445 0.0
C461 C 0.0659 0.9671 0.95551 0.0
C462 C 0.08866 0.94037 0.95188 0.0
H463 H 0.05166 0.93165 0.67934 0.0
C464 C 0.06269 0.95702 0.6886 0.0
H465 H 0.09608 0.98907 0.74786 0.0
H466 H 0.15855 0.84728 0.86676 0.0
H467 H 0.17341 0.83139 0.77005 0.0
H468 H 0.15292 0.86515 0.6812 0.0
H469 H 0.11684 0.91459 0.68816 0.0
C470 C 0.08575 0.96341 0.73858 0.0
C471 C 0.09408 0.93919 0.78846 0.0
C472 C 0.11569 0.9108 0.78384 0.0
C473 C 0.12872 0.89213 0.83574 0.0
C474 C 0.14915 0.86313 0.82936 0.0
C475 C 0.15765 0.85359 0.77405 0.0
C476 C 0.14603 0.87256 0.72397 0.0
C477 C 0.12531 0.90087 0.72855 0.0
loop_
_geom_bond_atom_site_label_1
_geom_bond_atom_site_label_2
_geom_bond_distance
_geom_bond_site_symmetry_2
_ccdc_geom_bond_type
H0 C1 0.949 . S
C1 H0 0.949 . S
C1 C2 1.395 . S
C1 C3 1.391 . S
C2 C1 1.395 . S
C2 C5 1.390 . S
C3 C1 1.391 . S
C3 C7 1.387 . S
C3 C8 1.491 . S
H4 C5 0.950 . S
C5 C2 1.390 . S
C5 H4 0.950 . S
C5 C6 1.378 . S
C6 C5 1.378 . S
C6 C7 1.409 . S
C7 C3 1.387 . S
C7 C6 1.409 . S
C7 H9 0.951 1_554 S
C8 C3 1.491 . S
C8 C10 1.382 . S
C8 C12 1.404 . S
H9 C7 0.951 1_556 S
C10 C8 1.382 . S
C10 C11 1.390 . S
C10 H15 0.949 . S
C11 C10 1.390 . S
C11 C16 1.399 . S
C12 C8 1.404 . S
C12 H13 0.950 1_554 S
C12 C14 1.375 . S
H13 C12 0.950 1_556 S
C14 C12 1.375 . S
C14 C16 1.382 . S
C14 H18 0.950 1_554 S
H15 C10 0.949 . S
C16 C11 1.399 . S
C16 C14 1.382 . S
C16 H17 0.952 . S
H17 C16 0.952 . S
H18 C14 0.950 1_556 S
H19 C20 0.949 . S
C20 H19 0.949 . S
C20 C21 1.395 . S
C20 C22 1.391 . S
C21 C20 1.395 . S
C21 C24 1.390 . S
C22 C20 1.391 . S
C22 C26 1.387 . S
C22 C27 1.491 . S
H23 C24 0.950 . S
C24 C21 1.390 . S
C24 H23 0.950 . S
C24 C25 1.378 . S
C25 C24 1.378 . S
C25 C26 1.409 . S
C26 C22 1.387 . S
C26 C25 1.409 . S
C26 H28 0.951 . S
C27 C22 1.491 . S
C27 C29 1.382 . S
C27 C31 1.404 . S
H28 C26 0.951 . S
C29 C27 1.382 . S
C29 C30 1.390 . S
C29 H34 0.949 . S
C30 C29 1.390 . S
C30 C35 1.399 . S
C31 C27 1.404 . S
C31 H32 0.950 . S
C31 C33 1.375 . S
H32 C31 0.950 . S
C33 C31 1.375 . S
C33 C35 1.382 . S
C33 H37 0.950 . S
H34 C29 0.949 . S
C35 C30 1.399 . S
C35 C33 1.382 . S
C35 H36 0.952 . S
H36 C35 0.952 . S
H37 C33 0.950 . S
H38 C39 0.949 . S
C39 H38 0.949 . S
C39 C40 1.395 . S
C39 C41 1.391 1_554 S
C40 C39 1.395 . S
C40 C43 1.395 . S
C41 C39 1.391 1_556 S
C41 C45 1.387 . S
C41 C46 1.491 . S
H42 C43 0.950 . S
C43 C40 1.395 . S
C43 H42 0.950 . S
C43 C44 1.373 1_554 S
C44 C43 1.373 1_556 S
C44 C45 1.409 . S
C45 C41 1.387 . S
C45 C44 1.409 . S
C45 H47 0.951 . S
C46 C41 1.491 . S
C46 C48 1.391 . S
C46 C50 1.404 . S
H47 C45 0.951 . S
C48 C46 1.391 . S
C48 C49 1.391 . S
C48 H53 0.939 1_556 S
C49 C48 1.391 . S
C49 C54 1.399 . S
C50 C46 1.404 . S
C50 H51 0.950 . S
C50 C52 1.375 . S
H51 C50 0.950 . S
C52 C50 1.375 . S
C52 C54 1.382 . S
C52 H56 0.950 . S
H53 C48 0.939 1_554 S
C54 C49 1.399 . S
C54 C52 1.382 . S
C54 H55 0.952 . S
H55 C54 0.952 . S
H56 C52 0.950 . S
H57 C58 0.949 . S
C58 H57 0.949 . S
C58 C59 1.395 . S
C58 C60 1.391 . S
C59 C58 1.395 . S
C59 C62 1.390 . S
C60 C58 1.391 . S
C60 C64 1.387 . S
C60 C65 1.491 . S
H61 C62 0.950 . S
C62 C59 1.390 . S
C62 H61 0.950 . S
C62 C63 1.378 . S
C63 C62 1.378 . S
C63 C64 1.409 . S
C64 C60 1.387 . S
C64 C63 1.409 . S
C64 H66 0.951 . S
C65 C60 1.491 . S
C65 C67 1.382 . S
C65 C69 1.404 . S
H66 C64 0.951 . S
C67 C65 1.382 . S
C67 C68 1.390 . S
C67 H72 0.949 . S
C68 C67 1.390 . S
C68 C73 1.399 . S
C69 C65 1.404 . S
C69 H70 0.950 . S
C69 C71 1.375 . S
H70 C69 0.950 . S
C71 C69 1.375 . S
C71 C73 1.382 . S
C71 H75 0.950 . S
H72 C67 0.949 . S
C73 C68 1.399 . S
C73 C71 1.382 . S
C73 H74 0.952 . S
H74 C73 0.952 . S
H75 C71 0.950 . S
O76 Mg77 1.990 . S
O76 C90 1.253 1_455 S
Mg77 O76 1.990 . S
Mg77 O80 2.180 . S
Mg77 O81 2.117 . S
Mg77 O95 2.030 . S
O78 Mg79 2.072 1_655 S
O78 C90 1.260 . S
Mg79 O78 2.072 1_455 S
Mg79 O80 2.099 . S
Mg79 O82 2.079 1_545 S
Mg79 O83 2.072 1_455 S
Mg79 O85 2.099 1_445 S
Mg79 O96 2.079 1_545 S
O80 Mg77 2.180 . S
O80 Mg79 2.099 . S
O80 C91 1.279 . S
O81 Mg77 2.117 . S
O81 C91 1.250 . S
O82 Mg79 2.079 1_565 S
O82 C92 1.264 . S
O83 Mg79 2.072 1_655 S
O83 C93 1.260 . S
Mg84 O85 2.180 . S
Mg84 O86 2.030 1_655 S
Mg84 O87 1.990 1_565 S
Mg84 O88 2.117 . S
O85 Mg79 2.099 1_665 S
O85 Mg84 2.180 . S
O85 C94 1.279 . S
O86 Mg84 2.030 1_455 S
O86 C92 1.248 . S
O87 Mg84 1.990 1_545 S
O87 C93 1.253 . S
O88 Mg84 2.117 . S
O88 C94 1.250 . S
C89 O95 1.248 1_565 S
C89 O96 1.264 . S
C90 O76 1.253 1_655 S
C90 O78 1.260 . S
C91 O80 1.279 . S
C91 O81 1.250 . S
C92 O82 1.264 . S
C92 O86 1.248 . S
C93 O83 1.260 . S
C93 O87 1.253 . S
C94 O85 1.279 . S
C94 O88 1.250 . S
O95 Mg77 2.030 . S
O95 C89 1.248 1_545 S
O96 Mg79 2.079 1_565 S
O96 C89 1.264 . S
O97 Mg98 1.990 . S
O97 C111 1.253 . S
Mg98 O97 1.990 . S
Mg98 O101 2.180 . S
Mg98 O102 2.117 . S
Mg98 O116 2.030 . S
O99 Mg100 2.072 . S
O99 C111 1.260 . S
Mg100 O99 2.072 . S
Mg100 O101 2.099 . S
Mg100 O103 2.079 1_554 S
Mg100 O104 2.072 1_554 S
Mg100 O106 2.099 . S
Mg100 O117 2.079 . S
O101 Mg98 2.180 . S
O101 Mg100 2.099 . S
O101 C112 1.279 . S
O102 Mg98 2.117 . S
O102 C112 1.250 . S
O103 Mg100 2.079 1_556 S
O103 C113 1.264 . S
O104 Mg100 2.072 1_556 S
O104 C114 1.260 . S
Mg105 O106 2.180 1_556 S
Mg105 O107 2.030 . S
Mg105 O108 1.990 . S
Mg105 O109 2.117 . S
O106 Mg100 2.099 . S
O106 Mg105 2.180 1_554 S
O106 C115 1.279 . S
O107 Mg105 2.030 . S
O107 C113 1.248 . S
O108 Mg105 1.990 . S
O108 C114 1.253 . S
O109 Mg105 2.117 . S
O109 C115 1.250 1_556 S
C110 O116 1.248 . S
C110 O117 1.264 . S
C111 O97 1.253 . S
C111 O99 1.260 . S
C112 O101 1.279 . S
C112 O102 1.250 . S
C113 O103 1.264 . S
C113 O107 1.248 . S
C114 O104 1.260 . S
C114 O108 1.253 . S
C115 O106 1.279 . S
C115 O109 1.250 1_554 S
O116 Mg98 2.030 . S
O116 C110 1.248 . S
O117 Mg100 2.079 . S
O117 C110 1.264 . S
H118 C119 0.951 . S
C119 H118 0.951 . S
C119 C125 1.265 . S
H120 C125 0.950 . S
H121 C129 0.949 . S
H122 C130 0.950 . S
H123 C131 0.951 . S
H124 C132 0.951 . S
C125 C119 1.265 . S
C125 H120 0.950 . S
C125 C126 1.478 . S
C126 C125 1.478 . S
C126 C127 1.397 . S
C126 C143 1.394 . S
C127 C126 1.397 . S
C127 C128 1.438 . S
C127 C132 1.429 . S
C128 C127 1.438 . S
C128 C129 1.428 . S
C128 C141 1.394 . S
C129 H121 0.949 . S
C129 C128 1.428 . S
C129 C130 1.345 . S
C130 H122 0.950 . S
C130 C129 1.345 . S
C130 C131 1.424 . S
C131 H123 0.951 . S
C131 C130 1.424 . S
C131 C132 1.347 . S
C132 H124 0.951 . S
C132 C127 1.429 . S
C132 C131 1.347 . S
H133 C134 0.951 . S
C134 H133 0.951 . S
C134 C140 1.265 . S
H135 C140 0.950 . S
H136 C144 0.949 . S
H137 C145 0.950 . S
H138 C146 0.951 . S
H139 C147 0.951 . S
C140 C134 1.265 . S
C140 H135 0.950 . S
C140 C141 1.478 . S
C141 C128 1.394 . S
C141 C140 1.478 . S
C141 C142 1.397 . S
C142 C141 1.397 . S
C142 C143 1.438 . S
C142 C147 1.429 . S
C143 C126 1.394 . S
C143 C142 1.438 . S
C143 C144 1.428 . S
C144 H136 0.949 . S
C144 C143 1.428 . S
C144 C145 1.345 . S
C145 H137 0.950 . S
C145 C144 1.345 . S
C145 C146 1.424 . S
C146 H138 0.951 . S
C146 C145 1.424 . S
C146 C147 1.347 . S
C147 H139 0.951 . S
C147 C142 1.429 . S
C147 C146 1.347 . S
H148 C149 0.951 . S
C149 H148 0.951 . S
C149 C155 1.265 . S
H150 C155 0.950 . S
H151 C159 0.949 . S
H152 C160 0.950 . S
H153 C161 0.951 . S
H154 C162 0.951 . S
C155 C149 1.265 . S
C155 H150 0.950 . S
C155 C156 1.478 . S
C156 C155 1.478 . S
C156 C157 1.397 . S
C156 C173 1.394 . S
C157 C156 1.397 . S
C157 C158 1.438 . S
C157 C162 1.429 1_554 S
C158 C157 1.438 . S
C158 C159 1.428 1_554 S
C158 C171 1.394 . S
C159 H151 0.949 . S
C159 C158 1.428 1_556 S
C159 C160 1.345 . S
C160 H152 0.950 . S
C160 C159 1.345 . S
C160 C161 1.424 . S
C161 H153 0.951 . S
C161 C160 1.424 . S
C161 C162 1.347 . S
C162 H154 0.951 . S
C162 C157 1.429 1_556 S
C162 C161 1.347 . S
H163 C164 0.951 . S
C164 H163 0.951 . S
C164 C170 1.265 . S
H165 C170 0.950 . S
H166 C174 0.949 . S
H167 C175 0.950 . S
H168 C176 0.951 . S
H169 C177 0.951 . S
C170 C164 1.265 . S
C170 H165 0.950 . S
C170 C171 1.478 . S
C171 C158 1.394 . S
C171 C170 1.478 . S
C171 C172 1.397 . S
C172 C171 1.397 . S
C172 C173 1.438 . S
C172 C177 1.429 . S
C173 C156 1.394 . S
C173 C172 1.438 . S
C173 C174 1.428 . S
C174 H166 0.949 . S
C174 C173 1.428 . S
C174 C175 1.345 . S
C175 H167 0.950 . S
C175 C174 1.345 . S
C175 C176 1.424 . S
C176 H168 0.951 . S
C176 C175 1.424 . S
C176 C177 1.347 . S
C177 H169 0.951 . S
C177 C172 1.429 . S
C177 C176 1.347 . S
H178 C179 0.951 . S
C179 H178 0.951 . S
C179 C185 1.265 . S
H180 C185 0.950 . S
H181 C189 0.949 . S
H182 C190 0.950 . S
H183 C191 0.951 . S
H184 C192 0.951 . S
C185 C179 1.265 . S
C185 H180 0.950 . S
C185 C186 1.478 . S
C186 C185 1.478 . S
C186 C187 1.397 . S
C186 C203 1.394 . S
C187 C186 1.397 . S
C187 C188 1.438 . S
C187 C192 1.429 . S
C188 C187 1.438 . S
C188 C189 1.428 . S
C188 C201 1.394 . S
C189 H181 0.949 . S
C189 C188 1.428 . S
C189 C190 1.345 . S
C190 H182 0.950 . S
C190 C189 1.345 . S
C190 C191 1.424 . S
C191 H183 0.951 . S
C191 C190 1.424 . S
C191 C192 1.347 . S
C192 H184 0.951 . S
C192 C187 1.429 . S
C192 C191 1.347 . S
H193 C194 0.951 . S
C194 H193 0.951 . S
C194 C200 1.265 . S
H195 C200 0.950 . S
H196 C204 0.949 . S
H197 C205 0.950 . S
H198 C206 0.951 . S
H199 C207 0.951 . S
C200 C194 1.265 . S
C200 H195 0.950 . S
C200 C201 1.478 . S
C201 C188 1.394 . S
C201 C200 1.478 . S
C201 C202 1.397 . S
C202 C201 1.397 . S
C202 C203 1.438 . S
C202 C207 1.429 . S
C203 C186 1.394 . S
C203 C202 1.438 . S
C203 C204 1.428 . S
C204 H196 0.949 . S
C204 C203 1.428 . S
C204 C205 1.345 . S
C205 H197 0.950 . S
C205 C204 1.345 . S
C205 C206 1.424 . S
C206 H198 0.951 . S
C206 C205 1.424 . S
C206 C207 1.347 . S
C207 H199 0.951 . S
C207 C202 1.429 . S
C207 C206 1.347 . S
H208 C209 0.951 . S
C209 H208 0.951 . S
C209 C215 1.265 . S
H210 C215 0.950 . S
H211 C219 0.949 . S
H212 C220 0.950 . S
H213 C221 0.951 . S
H214 C222 0.951 . S
C215 C209 1.265 . S
C215 H210 0.950 . S
C215 C216 1.478 . S
C216 C215 1.478 . S
C216 C217 1.397 . S
C216 C233 1.394 1_554 S
C217 C216 1.397 . S
C217 C218 1.438 . S
C217 C222 1.429 . S
C218 C217 1.438 . S
C218 C219 1.428 . S
C218 C231 1.394 . S
C219 H211 0.949 . S
C219 C218 1.428 . S
C219 C220 1.345 . S
C220 H212 0.950 . S
C220 C219 1.345 . S
C220 C221 1.424 . S
C221 H213 0.951 . S
C221 C220 1.424 . S
C221 C222 1.347 . S
C222 H214 0.951 . S
C222 C217 1.429 . S
C222 C221 1.347 . S
H223 C224 0.951 . S
C224 H223 0.951 . S
C224 C230 1.265 . S
H225 C230 0.950 . S
H226 C234 0.949 . S
H227 C235 0.950 . S
H228 C236 0.951 . S
H229 C237 0.951 . S
C230 C224 1.265 . S
C230 H225 0.950 . S
C230 C231 1.478 . S
C231 C218 1.394 . S
C231 C230 1.478 . S
C231 C232 1.397 1_554 S
C232 C231 1.397 1_556 S
C232 C233 1.438 . S
C232 C237 1.429 . S
C233 C216 1.394 1_556 S
C233 C232 1.438 . S
C233 C234 1.428 . S
C234 H226 0.949 . S
C234 C233 1.428 . S
C234 C235 1.345 . S
C235 H227 0.950 . S
C235 C234 1.345 . S
C235 C236 1.424 . S
C236 H228 0.951 . S
C236 C235 1.424 . S
C236 C237 1.347 . S
C237 H229 0.951 . S
C237 C232 1.429 . S
C237 C236 1.347 . S
H238 C239 0.951 . S
C239 H238 0.951 . S
C239 C245 1.265 . S
H240 C245 0.950 . S
H241 C249 0.949 . S
H242 C250 0.950 . S
H243 C251 0.951 . S
H244 C252 0.951 . S
C245 C239 1.265 . S
C245 H240 0.950 . S
C245 C246 1.478 . S
C246 C245 1.478 . S
C246 C247 1.397 . S
C246 C263 1.394 . S
C247 C246 1.397 . S
C247 C248 1.438 . S
C247 C252 1.429 . S
C248 C247 1.438 . S
C248 C249 1.428 . S
C248 C261 1.394 . S
C249 H241 0.949 . S
C249 C248 1.428 . S
C249 C250 1.345 . S
C250 H242 0.950 . S
C250 C249 1.345 . S
C250 C251 1.424 . S
C251 H243 0.951 . S
C251 C250 1.424 . S
C251 C252 1.347 . S
C252 H244 0.951 . S
C252 C247 1.429 . S
C252 C251 1.347 . S
H253 C254 0.951 . S
C254 H253 0.951 . S
C254 C260 1.265 . S
H255 C260 0.950 . S
H256 C264 0.949 . S
H257 C265 0.950 . S
H258 C266 0.951 . S
H259 C267 0.951 1_545 S
C260 C254 1.265 . S
C260 H255 0.950 . S
C260 C261 1.478 . S
C261 C248 1.394 . S
C261 C260 1.478 . S
C261 C262 1.397 . S
C262 C261 1.397 . S
C262 C263 1.438 . S
C262 C267 1.429 . S
C263 C246 1.394 . S
C263 C262 1.438 . S
C263 C264 1.428 . S
C264 H256 0.949 . S
C264 C263 1.428 . S
C264 C265 1.345 . S
C265 H257 0.950 . S
C265 C264 1.345 . S
C265 C266 1.424 1_565 S
C266 H258 0.951 . S
C266 C265 1.424 1_545 S
C266 C267 1.347 1_545 S
C267 H259 0.951 1_565 S
C267 C262 1.429 . S
C267 C266 1.347 1_565 S
H268 C269 0.951 . S
C269 H268 0.951 . S
C269 C275 1.265 . S
H270 C275 0.950 . S
H271 C279 0.949 . S
H272 C280 0.950 . S
H273 C281 0.951 . S
H274 C282 0.951 . S
C275 C269 1.265 . S
C275 H270 0.950 . S
C275 C276 1.478 . S
C276 C275 1.478 . S
C276 C277 1.397 . S
C276 C293 1.394 . S
C277 C276 1.397 . S
C277 C278 1.438 . S
C277 C282 1.429 . S
C278 C277 1.438 . S
C278 C279 1.428 . S
C278 C291 1.394 . S
C279 H271 0.949 . S
C279 C278 1.428 . S
C279 C280 1.345 . S
C280 H272 0.950 . S
C280 C279 1.345 . S
C280 C281 1.424 . S
C281 H273 0.951 . S
C281 C280 1.424 . S
C281 C282 1.347 . S
C282 H274 0.951 . S
C282 C277 1.429 . S
C282 C281 1.347 . S
H283 C284 0.951 . S
C284 H283 0.951 . S
C284 C290 1.265 . S
H285 C290 0.950 . S
H286 C294 0.949 . S
H287 C295 0.950 . S
H288 C296 0.951 . S
H289 C297 0.951 . S
C290 C284 1.265 . S
C290 H285 0.950 . S
C290 C291 1.478 . S
C291 C278 1.394 . S
C291 C290 1.478 . S
C291 C292 1.397 . S
C292 C291 1.397 . S
C292 C293 1.438 . S
C292 C297 1.429 . S
C293 C276 1.394 . S
C293 C292 1.438 . S
C293 C294 1.428 . S
C294 H286 0.949 . S
C294 C293 1.428 . S
C294 C295 1.345 . S
C295 H287 0.950 . S
C295 C294 1.345 . S
C295 C296 1.424 . S
C296 H288 0.951 . S
C296 C295 1.424 . S
C296 C297 1.347 . S
C297 H289 0.951 . S
C297 C292 1.429 . S
C297 C296 1.347 . S
H298 C299 0.951 . S
C299 H298 0.951 . S
C299 C305 1.265 . S
H300 C305 0.950 . S
H301 C309 0.949 . S
H302 C310 0.950 . S
H303 C311 0.951 . S
H304 C312 0.951 . S
C305 C299 1.265 . S
C305 H300 0.950 . S
C305 C306 1.478 . S
C306 C305 1.478 . S
C306 C307 1.397 . S
C306 C323 1.394 . S
C307 C306 1.397 . S
C307 C308 1.438 . S
C307 C312 1.429 . S
C308 C307 1.438 . S
C308 C309 1.428 . S
C308 C321 1.394 . S
C309 H301 0.949 . S
C309 C308 1.428 . S
C309 C310 1.345 . S
C310 H302 0.950 . S
C310 C309 1.345 . S
C310 C311 1.424 . S
C311 H303 0.951 . S
C311 C310 1.424 . S
C311 C312 1.347 . S
C312 H304 0.951 . S
C312 C307 1.429 . S
C312 C311 1.347 . S
H313 C314 0.951 . S
C314 H313 0.951 . S
C314 C320 1.265 . S
H315 C320 0.950 . S
H316 C324 0.949 . S
H317 C325 0.950 . S
H318 C326 0.951 . S
H319 C327 0.951 . S
C320 C314 1.265 . S
C320 H315 0.950 . S
C320 C321 1.478 . S
C321 C308 1.394 . S
C321 C320 1.478 . S
C321 C322 1.397 . S
C322 C321 1.397 . S
C322 C323 1.438 . S
C322 C327 1.429 . S
C323 C306 1.394 . S
C323 C322 1.438 . S
C323 C324 1.428 . S
C324 H316 0.949 . S
C324 C323 1.428 . S
C324 C325 1.345 . S
C325 H317 0.950 . S
C325 C324 1.345 . S
C325 C326 1.424 . S
C326 H318 0.951 . S
C326 C325 1.424 . S
C326 C327 1.347 . S
C327 H319 0.951 . S
C327 C322 1.429 . S
C327 C326 1.347 . S
H328 C329 0.951 . S
C329 H328 0.951 . S
C329 C335 1.265 . S
H330 C335 0.950 . S
H331 C339 0.949 . S
H332 C340 0.950 . S
H333 C341 0.951 . S
H334 C342 0.951 . S
C335 C329 1.265 . S
C335 H330 0.950 . S
C335 C336 1.478 . S
C336 C335 1.478 . S
C336 C337 1.397 . S
C336 C353 1.394 . S
C337 C336 1.397 . S
C337 C338 1.438 . S
C337 C342 1.429 . S
C338 C337 1.438 . S
C338 C339 1.428 . S
C338 C351 1.394 . S
C339 H331 0.949 . S
C339 C338 1.428 . S
C339 C340 1.345 . S
C340 H332 0.950 . S
C340 C339 1.345 . S
C340 C341 1.424 . S
C341 H333 0.951 . S
C341 C340 1.424 . S
C341 C342 1.347 . S
C342 H334 0.951 . S
C342 C337 1.429 . S
C342 C341 1.347 . S
H343 C344 0.951 . S
C344 H343 0.951 . S
C344 C350 1.265 . S
H345 C350 0.950 . S
H346 C354 0.949 . S
H347 C355 0.950 . S
H348 C356 0.951 . S
H349 C357 0.951 . S
C350 C344 1.265 . S
C350 H345 0.950 . S
C350 C351 1.478 . S
C351 C338 1.394 . S
C351 C350 1.478 . S
C351 C352 1.397 . S
C352 C351 1.397 . S
C352 C353 1.438 . S
C352 C357 1.429 . S
C353 C336 1.394 . S
C353 C352 1.438 . S
C353 C354 1.428 . S
C354 H346 0.949 . S
C354 C353 1.428 . S
C354 C355 1.345 . S
C355 H347 0.950 . S
C355 C354 1.345 . S
C355 C356 1.424 . S
C356 H348 0.951 . S
C356 C355 1.424 . S
C356 C357 1.347 . S
C357 H349 0.951 . S
C357 C352 1.429 . S
C357 C356 1.347 . S
H358 C359 0.951 . S
C359 H358 0.951 . S
C359 C365 1.265 . S
H360 C365 0.950 . S
H361 C369 0.949 . S
H362 C370 0.950 . S
H363 C371 0.951 . S
H364 C372 0.951 . S
C365 C359 1.265 . S
C365 H360 0.950 . S
C365 C366 1.478 . S
C366 C365 1.478 . S
C366 C367 1.397 . S
C366 C383 1.394 . S
C367 C366 1.397 . S
C367 C368 1.438 . S
C367 C372 1.429 . S
C368 C367 1.438 . S
C368 C369 1.428 . S
C368 C381 1.394 . S
C369 H361 0.949 . S
C369 C368 1.428 . S
C369 C370 1.345 . S
C370 H362 0.950 . S
C370 C369 1.345 . S
C370 C371 1.424 . S
C371 H363 0.951 . S
C371 C370 1.424 . S
C371 C372 1.347 . S
C372 H364 0.951 . S
C372 C367 1.429 . S
C372 C371 1.347 . S
H373 C374 0.951 . S
C374 H373 0.951 . S
C374 C380 1.265 . S
H375 C380 0.950 . S
H376 C384 0.949 . S
H377 C385 0.950 . S
H378 C386 0.951 . S
H379 C387 0.951 . S
C380 C374 1.265 . S
C380 H375 0.950 . S
C380 C381 1.478 . S
C381 C368 1.394 . S
C381 C380 1.478 . S
C381 C382 1.397 . S
C382 C381 1.397 . S
C382 C383 1.438 . S
C382 C387 1.429 . S
C383 C366 1.394 . S
C383 C382 1.438 . S
C383 C384 1.428 . S
C384 H376 0.949 . S
C384 C383 1.428 . S
C384 C385 1.345 . S
C385 H377 0.950 . S
C385 C384 1.345 . S
C385 C386 1.424 . S
C386 H378 0.951 . S
C386 C385 1.424 . S
C386 C387 1.347 . S
C387 H379 0.951 . S
C387 C382 1.429 . S
C387 C386 1.347 . S
H388 C389 0.951 . S
C389 H388 0.951 . S
C389 C395 1.265 . S
H390 C395 0.950 . S
H391 C399 0.949 . S
H392 C400 0.950 . S
H393 C401 0.951 . S
H394 C402 0.951 . S
C395 C389 1.265 . S
C395 H390 0.950 . S
C395 C396 1.478 . S
C396 C395 1.478 . S
C396 C397 1.397 . S
C396 C413 1.394 . S
C397 C396 1.397 . S
C397 C398 1.438 . S
C397 C402 1.429 . S
C398 C397 1.438 . S
C398 C399 1.428 . S
C398 C411 1.394 . S
C399 H391 0.949 . S
C399 C398 1.428 . S
C399 C400 1.345 . S
C400 H392 0.950 . S
C400 C399 1.345 . S
C400 C401 1.424 . S
C401 H393 0.951 . S
C401 C400 1.424 . S
C401 C402 1.347 . S
C402 H394 0.951 . S
C402 C397 1.429 . S
C402 C401 1.347 . S
H403 C404 0.951 . S
C404 H403 0.951 . S
C404 C410 1.265 . S
H405 C410 0.950 . S
H406 C414 0.949 . S
H407 C415 0.950 . S
H408 C416 0.951 1_455 S
H409 C417 0.951 . S
C410 C404 1.265 . S
C410 H405 0.950 . S
C410 C411 1.478 . S
C411 C398 1.394 . S
C411 C410 1.478 . S
C411 C412 1.397 . S
C412 C411 1.397 . S
C412 C413 1.438 . S
C412 C417 1.429 . S
C413 C396 1.394 . S
C413 C412 1.438 . S
C413 C414 1.428 . S
C414 H406 0.949 . S
C414 C413 1.428 . S
C414 C415 1.345 . S
C415 H407 0.950 . S
C415 C414 1.345 . S
C415 C416 1.424 . S
C416 H408 0.951 1_655 S
C416 C415 1.424 . S
C416 C417 1.347 . S
C417 H409 0.951 . S
C417 C412 1.429 . S
C417 C416 1.347 . S
H418 C419 0.951 . S
C419 H418 0.951 . S
C419 C425 1.265 . S
H420 C425 0.950 . S
H421 C429 0.949 . S
H422 C430 0.950 . S
H423 C431 0.951 . S
H424 C432 0.951 . S
C425 C419 1.265 . S
C425 H420 0.950 . S
C425 C426 1.478 . S
C426 C425 1.478 . S
C426 C427 1.397 . S
C426 C443 1.394 . S
C427 C426 1.397 . S
C427 C428 1.438 . S
C427 C432 1.429 . S
C428 C427 1.438 . S
C428 C429 1.428 . S
C428 C441 1.394 . S
C429 H421 0.949 . S
C429 C428 1.428 . S
C429 C430 1.345 . S
C430 H422 0.950 . S
C430 C429 1.345 . S
C430 C431 1.424 . S
C431 H423 0.951 . S
C431 C430 1.424 . S
C431 C432 1.347 . S
C432 H424 0.951 . S
C432 C427 1.429 . S
C432 C431 1.347 . S
H433 C434 0.951 . S
C434 H433 0.951 . S
C434 C440 1.265 . S
H435 C440 0.950 . S
H436 C444 0.949 . S
H437 C445 0.950 . S
H438 C446 0.951 . S
H439 C447 0.951 . S
C440 C434 1.265 . S
C440 H435 0.950 . S
C440 C441 1.478 . S
C441 C428 1.394 . S
C441 C440 1.478 . S
C441 C442 1.397 . S
C442 C441 1.397 . S
C442 C443 1.438 . S
C442 C447 1.429 . S
C443 C426 1.394 . S
C443 C442 1.438 . S
C443 C444 1.428 . S
C444 H436 0.949 . S
C444 C443 1.428 . S
C444 C445 1.345 . S
C445 H437 0.950 . S
C445 C444 1.345 . S
C445 C446 1.424 . S
C446 H438 0.951 . S
C446 C445 1.424 . S
C446 C447 1.347 . S
C447 H439 0.951 . S
C447 C442 1.429 . S
C447 C446 1.347 . S
H448 C449 0.951 . S
C449 H448 0.951 . S
C449 C455 1.265 . S
H450 C455 0.950 . S
H451 C459 0.949 . S
H452 C460 0.950 . S
H453 C461 0.951 . S
H454 C462 0.951 . S
C455 C449 1.265 . S
C455 H450 0.950 . S
C455 C456 1.478 . S
C456 C455 1.478 . S
C456 C457 1.397 . S
C456 C473 1.394 . S
C457 C456 1.397 . S
C457 C458 1.438 . S
C457 C462 1.429 . S
C458 C457 1.438 . S
C458 C459 1.428 . S
C458 C471 1.394 . S
C459 H451 0.949 . S
C459 C458 1.428 . S
C459 C460 1.345 . S
C460 H452 0.950 . S
C460 C459 1.345 . S
C460 C461 1.424 . S
C461 H453 0.951 . S
C461 C460 1.424 . S
C461 C462 1.347 . S
C462 H454 0.951 . S
C462 C457 1.429 . S
C462 C461 1.347 . S
H463 C464 0.951 . S
C464 H463 0.951 . S
C464 C470 1.265 . S
H465 C470 0.950 . S
H466 C474 0.949 . S
H467 C475 0.950 . S
H468 C476 0.951 . S
H469 C477 0.951 . S
C470 C464 1.265 . S
C470 H465 0.950 . S
C470 C471 1.478 . S
C471 C458 1.394 . S
C471 C470 1.478 . S
C471 C472 1.397 . S
C472 C471 1.397 . S
C472 C473 1.438 . S
C472 C477 1.429 . S
C473 C456 1.394 . S
C473 C472 1.438 . S
C473 C474 1.428 . S
C474 H466 0.949 . S
C474 C473 1.428 . S
C474 C475 1.345 . S
C475 H467 0.950 . S
C475 C474 1.345 . S
C475 C476 1.424 . S
C476 H468 0.951 . S
C476 C475 1.424 . S
C476 C477 1.347 . S
C477 H469 0.951 . S
C477 C472 1.429 . S
C477 C476 1.347 . S
C134 C91 1.278 . S
C119 C68 1.426 . S
C149 C11 1.377 . S
C164 C115 1.277 . S
C179 C30 1.505 . S
C194 C94 1.452 . S
C209 C49 1.553 1_554 S
C224 C112 1.399 . S
C254 C92 1.517 . S
C239 C2 1.566 . S
C284 C114 1.634 . S
C269 C25 1.660 . S
C299 C40 1.607 . S
C314 C93 1.568 . S
C329 C59 1.510 . S
C344 C113 1.517 . S
C374 C111 1.451 . S
C359 C21 1.514 . S
C404 C90 1.539 . S
C389 C44 1.564 . S
C434 C110 1.402 . S
C419 C63 1.485 . S
C449 C6 1.482 1_556 S
C464 C89 1.458 . S
