# Generated by pormake.
# Topology anh, (6,3)-cn, num edge types: 1
# Building blocks:
#     Node 0, Type 0, BuildingBlock: BETFEN_clean_sbu_0, # of connection points: 6
#     Node 1, Type 0, BuildingBlock: BETFEN_clean_sbu_0, # of connection points: 6
#     Node 2, Type 0, BuildingBlock: BETFEN_clean_sbu_0, # of connection points: 6
#     Node 3, Type 1, BuildingBlock: CUQRIR_clean_linker_1, # of connection points: 3
#     Node 4, Type 1, BuildingBlock: CUQRIR_clean_linker_1, # of connection points: 3
#     Node 5, Type 1, BuildingBlock: CUQRIR_clean_linker_1, # of connection points: 3
#     Node 6, Type 1, BuildingBlock: CUQRIR_clean_linker_1, # of connection points: 3
#     Node 7, Type 1, BuildingBlock: CUQRIR_clean_linker_1, # of connection points: 3
#     Node 8, Type 1, BuildingBlock: CUQRIR_clean_linker_1, # of connection points: 3
#     Edge 9, Type (0, 1), BuildingBlock: XUDNAN_clean_linker_2, # of connection points: 2
#     Edge 10, Type (0, 1), BuildingBlock: XUDNAN_clean_linker_2, # of connection points: 2
#     Edge 11, Type (0, 1), BuildingBlock: XUDNAN_clean_linker_2, # of connection points: 2
#     Edge 12, Type (0, 1), BuildingBlock: XUDNAN_clean_linker_2, # of connection points: 2
#     Edge 13, Type (0, 1), BuildingBlock: XUDNAN_clean_linker_2, # of connection points: 2
#     Edge 14, Type (0, 1), BuildingBlock: XUDNAN_clean_linker_2, # of connection points: 2
#     Edge 15, Type (0, 1), BuildingBlock: XUDNAN_clean_linker_2, # of connection points: 2
#     Edge 16, Type (0, 1), BuildingBlock: XUDNAN_clean_linker_2, # of connection points: 2
#     Edge 17, Type (0, 1), BuildingBlock: XUDNAN_clean_linker_2, # of connection points: 2
#     Edge 18, Type (0, 1), BuildingBlock: XUDNAN_clean_linker_2, # of connection points: 2
#     Edge 19, Type (0, 1), BuildingBlock: XUDNAN_clean_linker_2, # of connection points: 2
#     Edge 20, Type (0, 1), BuildingBlock: XUDNAN_clean_linker_2, # of connection points: 2
#     Edge 21, Type (0, 1), BuildingBlock: XUDNAN_clean_linker_2, # of connection points: 2
#     Edge 22, Type (0, 1), BuildingBlock: XUDNAN_clean_linker_2, # of connection points: 2
#     Edge 23, Type (0, 1), BuildingBlock: XUDNAN_clean_linker_2, # of connection points: 2
#     Edge 24, Type (0, 1), BuildingBlock: XUDNAN_clean_linker_2, # of connection points: 2
#     Edge 25, Type (0, 1), BuildingBlock: XUDNAN_clean_linker_2, # of connection points: 2
#     Edge 26, Type (0, 1), BuildingBlock: XUDNAN_clean_linker_2, # of connection points: 2
# Relax obj value: 0.197
# Max RMSD: 0.213
# Mean RMSD: 0.162
data_MOF--net-anh--node1-BETFEN_clean_sbu_0--node2-CUQRIR_clean_linker_1--edge1-XUDNAN_clean_linker_2
_symmetry_space_group_name_H-M    P1
_symmetry_Int_Tables_number       1
_symmetry_cell_setting            triclinic
loop_
_symmetry_equiv_pos_as_xyz
'x, y, z'
_cell_length_a     27.441372
_cell_length_b     28.898999
_cell_length_c     46.437622
_cell_angle_alpha  85.615502
_cell_angle_beta   91.134178
_cell_angle_gamma 101.60717
loop_
_atom_site_label
_atom_site_type_symbol
_atom_site_fract_x
_atom_site_fract_y
_atom_site_fract_z
_atom_type_partial_charge
Pr0 Pr 1.02695 0.51675 0.15382 0.0
Pr1 Pr 0.05296 0.62432 0.15067 0.0
C2 C 0.98428 0.42492 0.15983 0.0
C3 C 0.93555 0.39821 0.1695 0.0
C4 C 0.90891 0.36393 0.15225 0.0
C5 C 0.86396 0.336 0.16194 0.0
C6 C 0.84565 0.34188 0.1891 0.0
C7 C 0.87053 0.37826 0.20549 0.0
C8 C 0.91508 0.40668 0.19561 0.0
C9 C 0.05714 0.55925 0.09978 0.0
C10 C 0.93383 0.57599 0.14985 0.0
C11 C 0.09334 0.71189 0.12932 0.0
C12 C 0.13677 0.74734 0.13691 0.0
C13 C 0.1488 0.75524 0.16589 0.0
C14 C 0.19103 0.78837 0.17266 0.0
C15 C 0.22198 0.81317 0.15057 0.0
C16 C 0.21129 0.80382 0.12175 0.0
C17 C 0.16877 0.77103 0.11494 0.0
C18 C 0.04559 0.59607 0.20956 0.0
C19 C 0.14401 0.5611 0.16125 0.0
O20 O 1.01401 0.44591 0.17945 0.0
O21 O 0.98407 0.45057 0.13545 0.0
O22 O 1.0273 0.57291 0.11602 0.0
O23 O 0.07225 0.52231 0.11128 0.0
O24 O 0.96614 0.61576 0.14304 0.0
O25 O 0.94902 0.53659 0.15828 0.0
O26 O 0.10421 0.67383 0.11975 0.0
O27 O 0.05536 0.70323 0.14707 0.0
O28 O 1.03894 0.56776 0.18972 0.0
O29 O 0.05681 0.63985 0.19931 0.0
O30 O 0.10987 0.52249 0.16678 0.0
O31 O 0.13175 0.60207 0.15287 0.0
H32 H 0.92376 0.35767 0.13177 0.0
H33 H 0.84531 0.30772 0.14918 0.0
H34 H 0.85672 0.38308 0.22653 0.0
H35 H 0.9343 0.43396 0.20888 0.0
H36 H 0.12538 0.73626 0.18323 0.0
H37 H 0.19894 0.79551 0.19502 0.0
H38 H 0.23484 0.82305 0.10452 0.0
H39 H 0.16061 0.76439 0.09252 0.0
Pr40 Pr 0.67619 0.08576 0.51872 0.0
Pr41 Pr 0.56861 0.06726 0.52047 0.0
C42 C 0.76985 0.1224 0.50182 0.0
C43 C 0.79942 0.17108 0.49795 0.0
C44 C 0.81278 0.19867 0.5216 0.0
C45 C 0.83793 0.2457 0.51726 0.0
C46 C 0.85 0.26615 0.48921 0.0
C47 C 0.8367 0.23842 0.46562 0.0
C48 C 0.81193 0.19134 0.46997 0.0
C49 C 0.64171 0.06928 0.57468 0.0
C50 C 0.62065 0.18318 0.52228 0.0
C51 C 0.47127 1.03183 0.52972 0.0
C52 C 0.43754 0.98681 0.52458 0.0
C53 C 0.44407 0.96138 0.50083 0.0
C54 C 0.41267 0.91777 0.49686 0.0
C55 C 0.37432 0.89875 0.51665 0.0
C56 C 0.36832 0.92445 0.54047 0.0
C57 C 0.39975 0.96792 0.54443 0.0
C58 C 0.6056 0.08058 0.46441 0.0
C59 C 0.62702 0.96983 0.5242 0.0
O60 O 0.73296 0.112 0.48361 0.0
O61 O 0.75861 0.10507 0.52827 0.0
O62 O 0.62422 0.0946 0.5553 0.0
O63 O 0.68052 1.05473 0.56619 0.0
O64 O 0.57835 0.15167 0.52714 0.0
O65 O 0.66108 0.16633 0.51663 0.0
O66 O 0.50539 1.02936 0.54944 0.0
O67 O 0.48791 1.05937 0.50691 0.0
O68 O 0.62009 1.05484 0.48465 0.0
O69 O 0.57153 0.10152 0.47304 0.0
O70 O 0.66896 1.00166 0.51991 0.0
O71 O 0.5846 0.98571 0.52614 0.0
H72 H 0.80348 0.1842 0.54346 0.0
H73 H 0.84825 0.26588 0.53593 0.0
H74 H 0.84473 0.2533 0.44371 0.0
H75 H 0.80171 0.17096 0.45136 0.0
H76 H 0.47365 0.97502 0.48547 0.0
H77 H 0.4189 0.89874 0.47851 0.0
H78 H 0.3388 0.91142 0.55592 0.0
H79 H 0.39454 0.98682 0.56304 0.0
Pr80 Pr 0.54573 0.57197 0.83701 0.0
Pr81 Pr 0.58041 0.66578 0.83446 0.0
C82 C 0.51551 0.47973 0.83794 0.0
C83 C 0.55344 0.4509 0.84439 0.0
C84 C 0.56534 0.43888 0.87325 0.0
C85 C 0.60776 0.42042 0.87987 0.0
C86 C 0.63804 0.41137 0.8577 0.0
C87 C 0.62782 0.42675 0.82903 0.0
C88 C 0.58589 0.44559 0.8225 0.0
C89 C 0.57353 0.59971 0.89229 0.0
C90 C 0.66548 0.59991 0.83475 0.0
C91 C 0.62628 0.75312 0.84589 0.0
C92 C 0.60609 0.78449 0.86318 0.0
C93 C 0.61931 0.83319 0.85632 0.0
C94 C 0.58407 0.86098 0.8593 0.0
C95 C 0.53545 0.83939 0.86805 0.0
C96 C 0.52577 0.79275 0.88016 0.0
C97 C 0.56165 0.76532 0.87813 0.0
C98 C 0.56884 0.63522 0.77778 0.0
C99 C 0.46041 0.63601 0.83773 0.0
O100 O 0.52067 0.50558 0.81334 0.0
O101 O 0.50558 0.503 0.85937 0.0
O102 O 0.54675 0.62031 0.87514 0.0
O103 O 0.58975 0.56735 0.87982 0.0
O104 O 0.65621 0.64039 0.84173 0.0
O105 O 0.62818 0.56644 0.82776 0.0
O106 O 0.63611 0.71533 0.86004 0.0
O107 O 0.60132 0.7441 0.82198 0.0
O108 O 0.58817 0.61566 0.79893 0.0
O109 O 0.55265 0.67152 0.78567 0.0
O110 O 0.4696 0.59677 0.82847 0.0
O111 O 0.49795 0.66904 0.84506 0.0
H112 H 0.54222 0.44427 0.89084 0.0
H113 H 0.61478 0.40992 0.90221 0.0
H114 H 0.64988 0.42119 0.81104 0.0
H115 H 0.57922 0.45632 0.80014 0.0
H116 H 0.65351 0.84835 0.84486 0.0
H117 H 0.59207 0.89733 0.85014 0.0
H118 H 0.48858 0.7757 0.88709 0.0
H119 H 0.55138 0.72758 0.88387 0.0
C120 C 0.54395 1.05991 0.21348 0.0
N121 N 0.57442 0.07561 0.23555 0.0
N122 N 0.5045 1.02749 0.22363 0.0
C123 C 0.55361 0.07339 0.18186 0.0
C124 C 0.51163 1.02352 0.25244 0.0
N125 N 0.5543 1.05244 0.25972 0.0
C126 C 0.47695 0.99157 0.2735 0.0
H127 H 0.53473 0.10292 0.17487 0.0
H128 H 0.53802 1.04315 0.16885 0.0
H129 H 0.59403 0.08459 0.17748 0.0
H130 H 0.49094 0.95836 0.27832 0.0
H131 H 0.43876 0.98241 0.26451 0.0
H132 H 0.47596 1.00857 0.29406 0.0
C133 C 0.61968 0.57813 0.52942 0.0
N134 N 0.61454 0.61178 0.54838 0.0
N135 N 0.60798 0.53182 0.54187 0.0
C136 C 0.63873 0.59081 0.49928 0.0
C137 C 0.5962 0.53949 0.56911 0.0
N138 N 0.6016 0.58657 0.57337 0.0
C139 C 0.58415 0.50041 0.59288 0.0
H140 H 0.60933 0.60305 0.48577 0.0
H141 H 0.64893 0.56002 0.48978 0.0
H142 H 0.67138 0.62057 0.49923 0.0
H143 H 0.61777 0.48545 0.59805 0.0
H144 H 0.55462 0.4715 0.58566 0.0
H145 H 0.57099 0.51309 0.61271 0.0
C146 C 0.06573 0.61145 0.85025 0.0
N147 N 0.10229 0.61456 0.87063 0.0
N148 N 1.02009 0.6038 0.86279 0.0
C149 C 0.07513 0.61932 0.81837 0.0
C150 C 1.0304 0.60203 0.89139 0.0
N151 N 0.07998 0.60894 0.89612 0.0
C152 C 0.99194 0.59428 0.91495 0.0
H153 H 0.09968 0.65449 0.81361 0.0
H154 H 0.0401 0.61756 0.80582 0.0
H155 H 0.09512 0.59221 0.81159 0.0
H156 H 0.95593 0.57352 0.90765 0.0
H157 H 0.98608 0.62919 0.92095 0.0
H158 H 1.00462 0.57546 0.93452 0.0
C159 C 0.10884 0.58764 0.45942 0.0
N160 N 0.07561 0.5673 0.43994 0.0
N161 N 0.12504 0.63441 0.45198 0.0
C162 C 0.12653 0.56026 0.48506 0.0
C163 C 0.10046 0.64143 0.42688 0.0
N164 N 0.0714 0.60046 0.41913 0.0
C165 C 0.09856 0.68921 0.41198 0.0
H166 H 0.10335 0.56205 0.50409 0.0
H167 H 0.16606 0.57485 0.4901 0.0
H168 H 0.12247 0.52239 0.48079 0.0
H169 H 0.12952 0.69996 0.39636 0.0
H170 H 0.10203 0.71642 0.42793 0.0
H171 H 0.06305 0.68784 0.39989 0.0
C172 C 0.48502 0.12677 0.79141 0.0
N173 N 0.46927 0.09275 0.77312 0.0
N174 N 0.49675 0.16967 0.77661 0.0
C175 C 0.50158 0.11601 0.82208 0.0
C176 C 0.48675 0.15948 0.74885 0.0
N177 N 0.47558 0.11209 0.74623 0.0
C178 C 0.49357 0.19553 0.72334 0.0
H179 H 0.47635 0.12687 0.83747 0.0
H180 H 0.54002 0.13549 0.82591 0.0
H181 H 0.50173 0.07786 0.82684 0.0
H182 H 0.52875 0.19526 0.71206 0.0
H183 H 0.49407 0.23158 0.73019 0.0
H184 H 0.46281 0.18584 0.70767 0.0
C185 C 0.5451 0.59355 0.14537 0.0
N186 N 0.58158 0.60132 0.12523 0.0
N187 N 0.50253 0.60448 0.13403 0.0
C188 C 0.54922 0.57029 0.17509 0.0
C189 C 0.51451 0.61855 0.10613 0.0
N190 N 0.56225 0.61608 0.10053 0.0
C191 C 0.47671 0.62558 0.08307 0.0
H192 H 0.54175 0.53131 0.1738 0.0
H193 H 0.52158 0.57909 0.1898 0.0
H194 H 0.58735 0.58142 0.18387 0.0
H195 H 0.44406 0.63637 0.09227 0.0
H196 H 0.46379 0.59178 0.07281 0.0
H197 H 0.49355 0.65293 0.06613 0.0
H198 H 0.2274 0.63156 0.16768 0.0
H199 H 0.18131 0.48203 0.15443 0.0
H200 H 0.26915 0.47561 0.15052 0.0
H201 H 0.32671 0.65905 0.11935 0.0
H202 H 0.36776 0.69811 0.14179 0.0
H203 H 0.30147 0.69026 0.14579 0.0
H204 H 0.30982 0.66549 0.20015 0.0
H205 H 0.37627 0.67295 0.19628 0.0
H206 H 0.34041 0.61722 0.21094 0.0
H207 H 0.36158 0.4865 0.14396 0.0
H208 H 0.45192 0.51469 0.13513 0.0
H209 H 0.43956 0.65617 0.15369 0.0
C210 C 0.23589 0.59735 0.16437 0.0
C211 C 0.19731 0.55721 0.16155 0.0
C212 C 0.21005 0.51313 0.1571 0.0
C213 C 0.25995 0.50913 0.15478 0.0
C214 C 0.29705 0.5493 0.15753 0.0
C215 C 0.28575 0.5925 0.16253 0.0
C216 C 0.33285 0.63033 0.16407 0.0
C217 C 0.33213 0.67187 0.14138 0.0
C218 C 0.34027 0.64752 0.19468 0.0
C219 C 0.37203 0.60236 0.15733 0.0
C220 C 0.35062 0.5554 0.15425 0.0
C221 C 0.37884 0.52296 0.14687 0.0
C222 C 0.43004 0.53906 0.14207 0.0
C223 C 0.4525 0.58713 0.14444 0.0
C224 C 0.42322 0.61901 0.15251 0.0
H225 H 0.92467 0.30242 0.45053 0.0
H226 H 0.83611 0.34271 0.51732 0.0
H227 H 0.88268 0.4252 0.51031 0.0
H228 H 1.03894 0.3743 0.46736 0.0
H229 H 0.0582 0.38994 0.4304 0.0
H230 H 1.01645 0.33455 0.43976 0.0
H231 H 0.95251 0.35678 0.40197 0.0
H232 H 0.99409 0.41236 0.39247 0.0
H233 H 0.93149 0.41171 0.40373 0.0
H234 H 0.93978 0.50232 0.49689 0.0
H235 H 1.00569 0.5692 0.47867 0.0
H236 H 0.0569 0.47909 0.42064 0.0
C237 C 0.91444 0.32868 0.46338 0.0
C238 C 0.87678 0.31605 0.48452 0.0
C239 C 0.86528 0.35139 0.50127 0.0
C240 C 0.89119 0.39839 0.49727 0.0
C241 C 0.92815 0.40947 0.47629 0.0
C242 C 0.93967 0.37571 0.45955 0.0
C243 C 0.98182 0.39668 0.43895 0.0
C244 C 1.0265 0.37243 0.44447 0.0
C245 C 0.9639 0.39422 0.40741 0.0
C246 C 0.99337 0.44726 0.44734 0.0
C247 C 0.96138 0.45398 0.46862 0.0
C248 C 0.96479 0.49754 0.48014 0.0
C249 C 1.0021 0.53514 0.46974 0.0
C250 C 1.03567 0.52875 0.44836 0.0
C251 C 1.03124 0.48445 0.43689 0.0
H252 H 0.51968 0.851 0.81179 0.0
H253 H 0.46136 0.87191 0.89444 0.0
H254 H 0.40719 0.92179 0.86997 0.0
H255 H 0.54978 0.95716 0.79178 0.0
H256 H 0.5366 0.95627 0.75357 0.0
H257 H 0.54771 0.90408 0.7733 0.0
H258 H 0.46279 0.85737 0.75642 0.0
H259 H 0.45131 0.91018 0.73643 0.0
H260 H 0.40666 0.87849 0.76256 0.0
H261 H 0.38245 0.9865 0.84076 0.0
H262 H 0.3999 1.06477 0.81414 0.0
H263 H 0.48739 1.01163 0.75264 0.0
C264 C 0.49364 0.86469 0.82437 0.0
C265 C 0.49448 0.85882 0.85469 0.0
C266 C 0.46077 0.87651 0.87108 0.0
C267 C 0.42967 0.90435 0.85722 0.0
C268 C 0.43327 0.91386 0.8272 0.0
C269 C 0.46449 0.8941 0.81088 0.0
C270 C 0.47407 0.91997 0.78132 0.0
C271 C 0.5303 0.93534 0.7747 0.0
C272 C 0.44706 0.88969 0.7578 0.0
C273 C 0.44988 0.96157 0.78517 0.0
C274 C 0.42285 0.9552 0.81059 0.0
C275 C 0.40256 0.99133 0.82059 0.0
C276 C 0.4131 1.03581 0.8055 0.0
C277 C 0.44608 1.04454 0.78174 0.0
C278 C 0.46176 1.00627 0.77037 0.0
H279 H 0.87865 0.64834 0.14447 0.0
H280 H 0.86356 0.49542 0.14754 0.0
H281 H 0.77333 0.48616 0.14156 0.0
H282 H 0.76372 0.64404 0.18479 0.0
H283 H 0.74766 0.69438 0.16428 0.0
H284 H 0.81202 0.69013 0.16897 0.0
H285 H 0.82368 0.69872 0.11349 0.0
H286 H 0.75941 0.70305 0.10867 0.0
H287 H 0.7833 0.65852 0.09135 0.0
H288 H 0.68422 0.49175 0.13559 0.0
H289 H 0.60147 0.51347 0.12948 0.0
H290 H 0.67069 0.66185 0.12918 0.0
C291 C 0.85632 0.61299 0.14386 0.0
C292 C 0.87883 0.5727 0.14657 0.0
C293 C 0.84784 0.52704 0.14579 0.0
C294 C 0.79621 0.52124 0.14231 0.0
C295 C 0.77523 0.56132 0.13979 0.0
C296 C 0.80404 0.60637 0.14064 0.0
C297 C 0.77116 0.64317 0.1379 0.0
C298 C 0.77381 0.6695 0.16563 0.0
C299 C 0.78524 0.67792 0.11125 0.0
C300 C 0.71998 0.61179 0.13436 0.0
C301 C 0.7233 0.5646 0.13596 0.0
C302 C 0.68118 0.52861 0.13415 0.0
C303 C 0.63442 0.54111 0.13062 0.0
C304 C 0.63007 0.58912 0.12847 0.0
C305 C 0.6734 0.6249 0.13036 0.0
H306 H 0.33648 0.86383 0.46536 0.0
H307 H 0.33433 0.82933 0.55812 0.0
H308 H 0.27033 0.75773 0.55162 0.0
H309 H 0.2079 0.82444 0.45273 0.0
H310 H 0.21533 0.79977 0.419 0.0
H311 H 0.26144 0.84857 0.43048 0.0
H312 H 0.33038 0.79991 0.42636 0.0
H313 H 0.28459 0.75124 0.41444 0.0
H314 H 0.32345 0.7421 0.44527 0.0
H315 H 0.19735 0.69744 0.53549 0.0
H316 H 0.13326 0.64268 0.51012 0.0
H317 H 0.19634 0.70554 0.42788 0.0
C318 C 0.32347 0.84082 0.48431 0.0
C319 C 0.33989 0.85292 0.51235 0.0
C320 C 0.32128 0.82178 0.5365 0.0
C321 C 0.28513 0.78082 0.53304 0.0
C322 C 0.26865 0.77088 0.50523 0.0
C323 C 0.28813 0.79923 0.48122 0.0
C324 C 0.26427 0.78014 0.4537 0.0
C325 C 0.23556 0.81534 0.43806 0.0
C326 C 0.303 0.76758 0.43378 0.0
C327 C 0.22887 0.73637 0.46606 0.0
C328 C 0.23073 0.7326 0.49584 0.0
C329 C 0.19696 0.69874 0.51213 0.0
C330 C 0.16099 0.66736 0.49751 0.0
C331 C 0.16054 0.66847 0.46693 0.0
C332 C 0.19527 0.70356 0.45118 0.0
H333 H 0.6165 0.33224 0.89471 0.0
H334 H 0.72589 0.39886 0.83145 0.0
H335 H 0.70539 0.32915 0.80308 0.0
H336 H 0.59835 0.19955 0.87452 0.0
H337 H 0.53236 0.19487 0.87868 0.0
H338 H 0.5754 0.23004 0.90218 0.0
H339 H 0.53273 0.30061 0.88768 0.0
H340 H 0.4923 0.26757 0.86252 0.0
H341 H 0.53242 0.32264 0.85027 0.0
H342 H 0.65176 0.26885 0.77333 0.0
H343 H 0.58352 0.21491 0.7506 0.0
H344 H 0.49187 0.21092 0.82597 0.0
C345 C 0.63836 0.33101 0.87577 0.0
C346 C 0.66693 0.37294 0.86254 0.0
C347 C 0.69988 0.36805 0.84039 0.0
C348 C 0.68761 0.32876 0.82372 0.0
C349 C 0.64592 0.29411 0.83186 0.0
C350 C 0.62237 0.29411 0.85806 0.0
C351 C 0.57084 0.26304 0.85849 0.0
C352 C 0.56915 0.21927 0.87972 0.0
C353 C 0.52976 0.29015 0.8651 0.0
C354 C 0.56731 0.24944 0.82781 0.0
C355 C 0.61163 0.26529 0.81326 0.0
C356 C 0.61709 0.25583 0.7847 0.0
C357 C 0.5774 0.2264 0.77157 0.0
C358 C 0.53193 0.20922 0.78647 0.0
C359 C 0.52625 0.2235 0.81424 0.0
H360 H 0.57047 0.88348 0.5015 0.0
H361 H 0.6917 0.93239 0.55995 0.0
H362 H 0.70223 0.85001 0.57081 0.0
H363 H 0.51786 0.77042 0.54042 0.0
H364 H 0.50664 0.73687 0.50893 0.0
H365 H 0.5073 0.79955 0.50578 0.0
H366 H 0.57461 0.81146 0.46643 0.0
H367 H 0.57439 0.74881 0.46959 0.0
H368 H 0.63162 0.79089 0.47406 0.0
H369 H 0.70071 0.75947 0.57622 0.0
H370 H 0.68692 0.67245 0.57566 0.0
H371 H 0.56779 0.67533 0.5134 0.0
C372 C 0.59903 0.87696 0.5168 0.0
C373 C 0.62991 0.91636 0.53007 0.0
C374 C 0.66723 0.90448 0.54935 0.0
C375 C 0.67358 0.85707 0.55573 0.0
C376 C 0.64322 0.8196 0.54238 0.0
C377 C 0.60683 0.82894 0.52301 0.0
C378 C 0.58093 0.7816 0.51085 0.0
C379 C 0.52483 0.77152 0.51686 0.0
C380 C 0.59093 0.78329 0.4783 0.0
C381 C 0.6064 0.74416 0.52743 0.0
C382 C 0.64284 0.76746 0.54517 0.0
C383 C 0.67205 0.74141 0.56237 0.0
C384 C 0.66379 0.69119 0.56198 0.0
C385 C 0.62609 0.66503 0.54476 0.0
C386 C 0.59733 0.69297 0.52687 0.0
H387 H 0.74729 0.65479 0.85837 0.0
H388 H 0.70222 0.53041 0.81004 0.0
H389 H 0.79018 0.522 0.80799 0.0
H390 H 0.86382 0.70268 0.82242 0.0
H391 H 0.89582 0.72147 0.8551 0.0
H392 H 0.8298 0.71864 0.85169 0.0
H393 H 0.81484 0.66325 0.89854 0.0
H394 H 0.88078 0.66615 0.90223 0.0
H395 H 0.83902 0.6095 0.90148 0.0
H396 H 0.8841 0.52652 0.81245 0.0
H397 H 0.97336 0.53962 0.82674 0.0
H398 H 0.95599 0.661 0.87157 0.0
C399 C 0.75585 0.62591 0.84716 0.0
C400 C 0.71782 0.59345 0.83414 0.0
C401 C 0.73067 0.55574 0.82013 0.0
C402 C 0.78059 0.55086 0.81874 0.0
C403 C 0.81724 0.5838 0.83159 0.0
C404 C 0.80528 0.62032 0.84579 0.0
C405 C 0.85097 0.64954 0.85924 0.0
C406 C 0.86066 0.70114 0.84632 0.0
C407 C 0.8461 0.64693 0.89233 0.0
C408 C 0.8907 0.62396 0.85031 0.0
C409 C 0.8707 0.58624 0.83425 0.0
C410 C 0.90012 0.55619 0.8248 0.0
C411 C 0.95077 0.56402 0.83273 0.0
C412 C 0.9714 0.60151 0.8499 0.0
C413 C 0.9411 0.63242 0.85812 0.0
H414 H 0.3224 0.81661 0.15511 0.0
H415 H 0.20798 0.89892 0.16193 0.0
H416 H 0.27134 0.96724 0.17573 0.0
H417 H 0.38985 0.85531 0.21609 0.0
H418 H 0.45072 0.85794 0.20138 0.0
H419 H 0.39793 0.81761 0.18807 0.0
H420 H 0.41783 0.85467 0.13603 0.0
H421 H 0.47057 0.89549 0.14924 0.0
H422 H 0.42297 0.91756 0.12831 0.0
H423 H 0.34356 1.02298 0.19287 0.0
H424 H 0.4223 1.06274 0.21509 0.0
H425 H 0.49064 0.94519 0.19843 0.0
C426 C 0.31128 0.84949 0.15901 0.0
C427 C 0.26093 0.8534 0.15735 0.0
C428 C 0.24675 0.89607 0.16304 0.0
C429 C 0.28237 0.9349 0.17068 0.0
C430 C 0.33182 0.9302 0.17243 0.0
C431 C 0.34652 0.88868 0.16684 0.0
C432 C 0.40154 0.89198 0.17288 0.0
C433 C 0.41049 0.85343 0.19599 0.0
C434 C 0.42989 0.8898 0.14495 0.0
C435 C 0.41461 0.94087 0.18401 0.0
C436 C 0.37405 0.96264 0.18287 0.0
C437 C 0.37588 1.00677 0.19347 0.0
C438 C 0.4203 1.029 0.206 0.0
C439 C 0.46155 1.00671 0.20795 0.0
C440 C 0.45918 0.96263 0.19656 0.0
H441 H 0.54707 0.24195 0.52935 0.0
H442 H 0.70566 0.25299 0.51833 0.0
H443 H 0.71854 0.33955 0.5198 0.0
H444 H 0.53945 0.35249 0.48515 0.0
H445 H 0.49442 0.3694 0.50782 0.0
H446 H 0.49632 0.30768 0.50597 0.0
H447 H 0.50656 0.29854 0.56136 0.0
H448 H 0.5044 0.36015 0.56334 0.0
H449 H 0.5565 0.33734 0.5786 0.0
H450 H 0.71566 0.42997 0.52258 0.0
H451 H 0.69676 0.50919 0.52853 0.0
H452 H 0.54068 0.44501 0.53756 0.0
C453 C 0.58464 0.26233 0.52722 0.0
C454 C 0.62526 0.23822 0.52358 0.0
C455 C 0.67331 0.26837 0.52098 0.0
C456 C 0.6812 0.31856 0.5218 0.0
C457 C 0.64092 0.34086 0.52517 0.0
C458 C 0.59337 0.31355 0.52791 0.0
C459 C 0.55667 0.34705 0.53138 0.0
C460 C 0.51948 0.34395 0.50608 0.0
C461 C 0.5294 0.33503 0.56039 0.0
C462 C 0.59074 0.39686 0.53056 0.0
C463 C 0.63932 0.39238 0.52672 0.0
C464 C 0.67747 0.43322 0.52539 0.0
C465 C 0.66632 0.47886 0.52848 0.0
C466 C 0.61709 0.48535 0.53299 0.0
C467 C 0.57888 0.44274 0.53381 0.0
H468 H 0.3747 0.56668 0.84395 0.0
H469 H 0.42759 0.71894 0.84058 0.0
H470 H 0.34182 0.72965 0.84836 0.0
H471 H 0.25598 0.56578 0.80862 0.0
H472 H 0.22257 0.51767 0.83201 0.0
H473 H 0.28777 0.5217 0.82528 0.0
H474 H 0.30538 0.51985 0.88027 0.0
H475 H 0.24024 0.51593 0.88715 0.0
H476 H 0.28581 0.56275 0.90127 0.0
H477 H 0.24986 0.72418 0.85658 0.0
H478 H 0.15882 0.70222 0.86548 0.0
H479 H 0.16495 0.55396 0.86526 0.0
C480 C 0.36813 0.60231 0.84452 0.0
C481 C 0.40806 0.64208 0.84127 0.0
C482 C 0.39783 0.68797 0.84283 0.0
C483 C 0.34913 0.6944 0.84727 0.0
C484 C 0.31076 0.65457 0.85057 0.0
C485 C 0.31968 0.60934 0.84945 0.0
C486 C 0.27196 0.5725 0.85473 0.0
C487 C 0.2588 0.54266 0.82859 0.0
C488 C 0.27612 0.54089 0.8825 0.0
C489 C 0.2347 0.6041 0.85833 0.0
C490 C 0.25796 0.65136 0.85595 0.0
C491 C 0.23138 0.6873 0.85852 0.0
C492 C 0.17986 0.67468 0.86357 0.0
C493 C 0.15537 0.62667 0.86599 0.0
C494 C 0.18314 0.59094 0.86344 0.0
H495 H 0.74812 0.31431 0.17244 0.0
H496 H 0.85881 0.28412 0.23519 0.0
H497 H 0.80019 0.21291 0.25471 0.0
H498 H 0.64056 0.27644 0.22121 0.0
H499 H 0.59987 0.25126 0.19301 0.0
H500 H 0.65001 0.30079 0.18435 0.0
H501 H 0.68288 0.25266 0.14694 0.0
H502 H 0.63334 0.2027 0.1558 0.0
H503 H 0.69713 0.1958 0.15832 0.0
H504 H 0.73648 0.13946 0.26146 0.0
H505 H 0.66309 0.0746 0.26253 0.0
H506 H 0.58655 0.15957 0.20327 0.0
C507 C 0.75926 0.29308 0.19069 0.0
C508 C 0.80742 0.3043 0.20264 0.0
C509 C 0.82159 0.27593 0.2262 0.0
C510 C 0.78883 0.23543 0.23723 0.0
C511 C 0.74187 0.2246 0.22475 0.0
C512 C 0.7264 0.25309 0.20255 0.0
C513 C 0.67358 0.2331 0.19338 0.0
C514 C 0.63896 0.26744 0.19831 0.0
C515 C 0.67166 0.22032 0.16174 0.0
C516 C 0.66223 0.18903 0.2139 0.0
C517 C 0.70268 0.1842 0.23113 0.0
C518 C 0.7036 0.1436 0.24909 0.0
C519 C 0.66148 0.10718 0.24987 0.0
C520 C 0.61836 0.11253 0.23383 0.0
C521 C 0.61887 0.15429 0.21578 0.0
H522 H 0.08486 0.51329 0.05601 0.0
H523 H 0.05306 0.64827 0.07569 0.0
H524 H 0.07751 0.68124 0.02614 0.0
H525 H 0.18489 0.55231 0.0035 0.0
H526 H 0.16005 0.50658 0.97982 0.0
H527 H 0.14969 0.49625 0.01819 0.0
H528 H 0.05415 0.4756 0.00981 0.0
H529 H 0.06454 0.48445 0.97152 0.0
H530 H 1.02468 0.51695 0.98834 0.0
H531 H 0.10008 0.69768 0.97375 0.0
H532 H 0.09756 0.69106 0.9209 0.0
H533 H 0.10582 0.54344 0.93406 0.0
C534 C 0.08425 0.55015 0.05006 0.0
C535 C 0.06952 0.57905 0.07002 0.0
C536 C 0.06639 0.62624 0.06108 0.0
C537 C 0.08025 0.64521 0.03299 0.0
C538 C 0.09557 0.61595 0.01391 0.0
C539 C 0.09594 0.56895 0.02184 0.0
C540 C 0.10445 0.54252 0.99609 0.0
C541 C 0.15266 0.52329 0.99962 0.0
C542 C 0.05929 0.50255 0.99115 0.0
C543 C 0.10906 0.58198 0.97231 0.0
C544 C 0.10516 0.62439 0.98317 0.0
C545 C 0.1039 0.6649 0.96507 0.0
C546 C 0.10324 0.66113 0.93515 0.0
C547 C 0.10288 0.61712 0.92376 0.0
C548 C 0.10828 0.57777 0.94245 0.0
H549 H 0.58331 0.13691 0.41794 0.0
H550 H 0.64547 1.01253 0.44148 0.0
H551 H 0.64768 0.99704 0.39003 0.0
H552 H 0.50398 0.09198 0.36496 0.0
H553 H 0.51367 0.14412 0.34019 0.0
H554 H 0.52379 0.14988 0.37822 0.0
H555 H 0.61382 0.19597 0.36832 0.0
H556 H 0.60376 0.19066 0.33012 0.0
H557 H 0.65525 0.17007 0.34786 0.0
H558 H 0.6291 0.98692 0.33805 0.0
H559 H 0.59865 0.98764 0.28744 0.0
H560 H 0.55407 0.12102 0.29618 0.0
C561 C 0.59856 0.10714 0.41212 0.0
C562 C 0.61406 0.07577 0.43359 0.0
C563 C 0.6336 1.03706 0.42533 0.0
C564 C 0.63502 1.02801 0.39617 0.0
C565 C 0.61794 1.05869 0.37555 0.0
C566 C 0.60114 0.09813 0.38302 0.0
C567 C 0.58243 0.12397 0.35671 0.0
C568 C 0.52772 0.12766 0.36025 0.0
C569 C 0.61581 0.17308 0.35038 0.0
C570 C 0.58819 0.09108 0.33367 0.0
C571 C 0.60933 1.05395 0.34498 0.0
C572 C 0.61394 1.0165 0.32873 0.0
C573 C 0.59646 1.01697 0.30021 0.0
C574 C 0.57532 1.05481 0.28822 0.0
C575 C 0.57149 0.09253 0.30496 0.0
H576 H 0.52354 0.66035 0.72603 0.0
H577 H 0.64334 0.59472 0.76094 0.0
H578 H 0.66958 0.58573 0.71178 0.0
H579 H 0.49147 0.58228 0.66886 0.0
H580 H 0.4772 0.62706 0.64268 0.0
H581 H 0.47004 0.63277 0.68062 0.0
H582 H 0.52826 0.71553 0.6755 0.0
H583 H 0.53627 0.70946 0.6376 0.0
H584 H 0.58981 0.72131 0.66099 0.0
H585 H 0.68555 0.58555 0.65976 0.0
H586 H 0.67866 0.57674 0.60735 0.0
H587 H 0.54389 0.63323 0.6039 0.0
C588 C 0.55549 0.64447 0.7232 0.0
C589 C 0.58187 0.62901 0.74748 0.0
C590 C 0.62274 0.60731 0.74286 0.0
C591 C 0.63826 0.60232 0.71493 0.0
C592 C 0.6122 0.61848 0.69153 0.0
C593 C 0.57094 0.63803 0.69517 0.0
C594 C 0.54738 0.64832 0.66594 0.0
C595 C 0.49331 0.62095 0.66445 0.0
C596 C 0.55061 0.70184 0.65965 0.0
C597 C 0.58093 0.63002 0.64562 0.0
C598 C 0.61916 0.6148 0.661 0.0
C599 C 0.6556 0.59704 0.64752 0.0
C600 C 0.65165 0.59247 0.61776 0.0
C601 C 0.61079 0.60408 0.60175 0.0
C602 C 0.57563 0.62444 0.61567 0.0
H603 H 0.54974 1.03702 0.59702 0.0
H604 H 0.70169 0.097 0.61988 0.0
H605 H 0.67561 0.10101 0.67023 0.0
H606 H 0.48902 0.10256 0.63237 0.0
H607 H 0.43811 1.05702 0.64605 0.0
H608 H 0.47001 1.04894 0.61402 0.0
H609 H 0.48882 0.97013 0.63753 0.0
H610 H 0.45676 0.97791 0.66983 0.0
H611 H 0.52005 0.96958 0.67201 0.0
H612 H 0.63224 0.10666 0.71547 0.0
H613 H 0.57403 0.12187 0.75157 0.0
H614 H 0.44868 1.06334 0.69843 0.0
C615 C 0.57742 1.04997 0.61286 0.0
C616 C 0.62746 0.06667 0.60498 0.0
C617 C 0.66324 0.08348 0.62594 0.0
C618 C 0.64879 0.08557 0.65449 0.0
C619 C 0.59878 0.06936 0.66161 0.0
C620 C 0.56367 1.05133 0.6415 0.0
C621 C 0.51176 1.04021 0.65415 0.0
C622 C 0.47513 1.06366 0.63554 0.0
C623 C 0.49323 0.98627 0.65863 0.0
C624 C 0.52227 1.06142 0.68294 0.0
C625 C 0.57306 0.07493 0.6875 0.0
C626 C 0.59252 0.09589 0.71224 0.0
C627 C 0.55927 0.10463 0.73245 0.0
C628 C 0.50722 0.09468 0.72717 0.0
C629 C 0.48831 0.07158 0.70255 0.0
H630 H 0.58888 0.67135 0.93045 0.0
H631 H 0.55074 0.51885 0.92588 0.0
H632 H 0.55341 0.50759 0.97882 0.0
H633 H 0.67447 0.66835 0.99161 0.0
H634 H 0.6568 0.71656 0.00851 0.0
H635 H 0.65238 0.71433 0.96983 0.0
H636 H 0.55895 0.71847 0.97118 0.0
H637 H 0.56363 0.722 0.00971 0.0
H638 H 0.51766 0.67635 0.99476 0.0
H639 H 0.56042 0.51118 0.03133 0.0
H640 H 0.55913 0.53059 0.08207 0.0
H641 H 0.59282 0.68011 0.05517 0.0
C642 C 0.58053 0.63578 0.94076 0.0
C643 C 0.56967 0.59589 0.92412 0.0
C644 C 0.55945 0.54982 0.93824 0.0
C645 C 0.56113 0.54301 0.9683 0.0
C646 C 0.57355 0.58262 0.98415 0.0
C647 C 0.58245 0.62819 0.97111 0.0
C648 C 0.59393 0.66421 0.99381 0.0
C649 C 0.64758 0.69255 0.99074 0.0
C650 C 0.55628 0.69719 0.99227 0.0
C651 C 0.58808 0.63165 0.02141 0.0
C652 C 0.57762 0.58472 0.0151 0.0
C653 C 0.56918 0.54776 0.03662 0.0
C654 C 0.56929 0.55899 0.06537 0.0
C655 C 0.57732 0.60663 0.07241 0.0
C656 C 0.58808 0.64348 0.05022 0.0
H657 H 0.11157 0.63096 0.25019 0.0
H658 H 0.97252 0.53209 0.2393 0.0
H659 H 0.96302 0.51994 0.29274 0.0
H660 H 0.15318 0.56474 0.31405 0.0
H661 H 0.18302 0.61843 0.32977 0.0
H662 H 0.17861 0.61683 0.2911 0.0
H663 H 0.1353 0.68905 0.28851 0.0
H664 H 0.13885 0.69028 0.32718 0.0
H665 H 0.07952 0.68567 0.30913 0.0
H666 H 0.96512 0.52843 0.34839 0.0
H667 H 0.98447 0.54718 0.39916 0.0
H668 H 0.12768 0.63059 0.37191 0.0
C669 C 0.07957 0.60608 0.25911 0.0
C670 C 0.04271 0.58247 0.24087 0.0
C671 C 1.00132 0.55017 0.25311 0.0
C672 C 0.99556 0.54334 0.28337 0.0
C673 C 1.03225 0.56816 0.30088 0.0
C674 C 0.07414 0.59784 0.28903 0.0
C675 C 0.10873 0.62011 0.3121 0.0
C676 C 0.15884 0.60404 0.31173 0.0
C677 C 0.116 0.67448 0.30903 0.0
C678 C 0.0793 0.59964 0.33882 0.0
C679 C 1.03497 0.57019 0.3322 0.0
C680 C 1.00034 0.55057 0.35373 0.0
C681 C 1.0117 0.56121 0.38258 0.0
C682 C 0.05764 0.59049 0.38963 0.0
C683 C 0.09176 0.60908 0.3673 0.0
loop_
_geom_bond_atom_site_label_1
_geom_bond_atom_site_label_2
_geom_bond_distance
_geom_bond_site_symmetry_2
_ccdc_geom_bond_type
Pr0 C2 2.880 . S
Pr0 O20 2.562 . S
Pr0 O21 2.490 . S
Pr0 O22 2.695 1_655 S
Pr0 O23 2.512 . S
Pr0 O25 2.437 . S
Pr0 O28 2.436 . S
Pr0 O30 2.438 1_655 S
Pr1 C11 2.880 . S
Pr1 O22 2.436 . S
Pr1 O24 2.438 1_455 S
Pr1 O26 2.562 . S
Pr1 O27 2.490 . S
Pr1 O28 2.695 1_455 S
Pr1 O29 2.512 . S
Pr1 O31 2.437 . S
C2 Pr0 2.880 . S
C2 C3 1.491 . S
C2 O20 1.254 . S
C2 O21 1.225 . S
C3 C2 1.491 . S
C3 C4 1.392 . S
C3 C8 1.356 . S
C4 C3 1.392 . S
C4 C5 1.368 . S
C4 H32 0.929 . S
C5 C4 1.368 . S
C5 C6 1.386 . S
C5 H33 0.929 . S
C6 C5 1.386 . S
C6 C7 1.373 . S
C7 C6 1.373 . S
C7 C8 1.409 . S
C7 H34 0.931 . S
C8 C3 1.356 . S
C8 C7 1.409 . S
C8 H35 0.930 . S
C9 O22 1.270 . S
C9 O23 1.248 1_455 S
C10 O24 1.267 . S
C10 O25 1.278 . S
C11 Pr1 2.880 . S
C11 C12 1.491 . S
C11 O26 1.254 . S
C11 O27 1.225 . S
C12 C11 1.491 . S
C12 C13 1.392 . S
C12 C17 1.356 . S
C13 C12 1.392 . S
C13 C14 1.368 . S
C13 H36 0.929 . S
C14 C13 1.368 . S
C14 C15 1.386 . S
C14 H37 0.929 . S
C15 C14 1.386 . S
C15 C16 1.373 . S
C16 C15 1.373 . S
C16 C17 1.409 . S
C16 H38 0.931 . S
C17 C12 1.356 . S
C17 C16 1.409 . S
C17 H39 0.930 . S
C18 O28 1.270 1_455 S
C18 O29 1.248 . S
C19 O30 1.267 . S
C19 O31 1.278 . S
O20 Pr0 2.562 . S
O20 C2 1.254 . S
O21 Pr0 2.490 . S
O21 C2 1.225 . S
O22 Pr0 2.695 1_455 S
O22 Pr1 2.436 . S
O22 C9 1.270 . S
O23 Pr0 2.512 . S
O23 C9 1.248 1_655 S
O24 Pr1 2.438 1_655 S
O24 C10 1.267 . S
O25 Pr0 2.437 . S
O25 C10 1.278 . S
O26 Pr1 2.562 . S
O26 C11 1.254 . S
O27 Pr1 2.490 . S
O27 C11 1.225 . S
O28 Pr0 2.436 . S
O28 Pr1 2.695 1_655 S
O28 C18 1.270 1_655 S
O29 Pr1 2.512 . S
O29 C18 1.248 . S
O30 Pr0 2.438 1_455 S
O30 C19 1.267 . S
O31 Pr1 2.437 . S
O31 C19 1.278 . S
H32 C4 0.929 . S
H33 C5 0.929 . S
H34 C7 0.931 . S
H35 C8 0.930 . S
H36 C13 0.929 . S
H37 C14 0.929 . S
H38 C16 0.931 . S
H39 C17 0.930 . S
Pr40 C42 2.880 . S
Pr40 O60 2.562 . S
Pr40 O61 2.490 . S
Pr40 O62 2.695 . S
Pr40 O63 2.512 . S
Pr40 O65 2.437 . S
Pr40 O68 2.436 . S
Pr40 O70 2.438 1_545 S
Pr41 C51 2.880 . S
Pr41 O62 2.436 1_565 S
Pr41 O64 2.438 1_565 S
Pr41 O66 2.562 . S
Pr41 O67 2.490 . S
Pr41 O68 2.695 1_565 S
Pr41 O69 2.512 . S
Pr41 O71 2.437 . S
C42 Pr40 2.880 . S
C42 C43 1.491 . S
C42 O60 1.254 . S
C42 O61 1.225 . S
C43 C42 1.491 . S
C43 C44 1.392 . S
C43 C48 1.356 . S
C44 C43 1.392 . S
C44 C45 1.368 . S
C44 H72 0.929 . S
C45 C44 1.368 . S
C45 C46 1.386 . S
C45 H73 0.929 . S
C46 C45 1.386 . S
C46 C47 1.373 . S
C47 C46 1.373 . S
C47 C48 1.409 . S
C47 H74 0.931 . S
C48 C43 1.356 . S
C48 C47 1.409 . S
C48 H75 0.930 . S
C49 O62 1.270 . S
C49 O63 1.248 . S
C50 O64 1.267 . S
C50 O65 1.278 . S
C51 Pr41 2.880 . S
C51 C52 1.491 . S
C51 O66 1.254 . S
C51 O67 1.225 . S
C52 C51 1.491 . S
C52 C53 1.392 . S
C52 C57 1.356 . S
C53 C52 1.392 . S
C53 C54 1.368 . S
C53 H76 0.929 . S
C54 C53 1.368 . S
C54 C55 1.386 . S
C54 H77 0.929 . S
C55 C54 1.386 . S
C55 C56 1.373 . S
C56 C55 1.373 . S
C56 C57 1.409 . S
C56 H78 0.931 . S
C57 C52 1.356 . S
C57 C56 1.409 . S
C57 H79 0.930 . S
C58 O68 1.270 . S
C58 O69 1.248 1_545 S
C59 O70 1.267 . S
C59 O71 1.278 . S
O60 Pr40 2.562 . S
O60 C42 1.254 . S
O61 Pr40 2.490 . S
O61 C42 1.225 . S
O62 Pr40 2.695 . S
O62 Pr41 2.436 1_545 S
O62 C49 1.270 . S
O63 Pr40 2.512 . S
O63 C49 1.248 . S
O64 Pr41 2.438 1_545 S
O64 C50 1.267 . S
O65 Pr40 2.437 . S
O65 C50 1.278 . S
O66 Pr41 2.562 . S
O66 C51 1.254 . S
O67 Pr41 2.490 . S
O67 C51 1.225 . S
O68 Pr40 2.436 . S
O68 Pr41 2.695 1_545 S
O68 C58 1.270 . S
O69 Pr41 2.512 . S
O69 C58 1.248 1_565 S
O70 Pr40 2.438 1_565 S
O70 C59 1.267 . S
O71 Pr41 2.437 . S
O71 C59 1.278 . S
H72 C44 0.929 . S
H73 C45 0.929 . S
H74 C47 0.931 . S
H75 C48 0.930 . S
H76 C53 0.929 . S
H77 C54 0.929 . S
H78 C56 0.931 . S
H79 C57 0.930 . S
Pr80 C82 2.880 . S
Pr80 O100 2.562 . S
Pr80 O101 2.490 . S
Pr80 O102 2.695 . S
Pr80 O103 2.512 . S
Pr80 O105 2.437 . S
Pr80 O108 2.436 . S
Pr80 O110 2.438 . S
Pr81 C91 2.880 . S
Pr81 O102 2.436 . S
Pr81 O104 2.438 . S
Pr81 O106 2.562 . S
Pr81 O107 2.490 . S
Pr81 O108 2.695 . S
Pr81 O109 2.512 . S
Pr81 O111 2.437 . S
C82 Pr80 2.880 . S
C82 C83 1.491 . S
C82 O100 1.254 . S
C82 O101 1.225 . S
C83 C82 1.491 . S
C83 C84 1.392 . S
C83 C88 1.356 . S
C84 C83 1.392 . S
C84 C85 1.368 . S
C84 H112 0.929 . S
C85 C84 1.368 . S
C85 C86 1.386 . S
C85 H113 0.929 . S
C86 C85 1.386 . S
C86 C87 1.373 . S
C87 C86 1.373 . S
C87 C88 1.409 . S
C87 H114 0.931 . S
C88 C83 1.356 . S
C88 C87 1.409 . S
C88 H115 0.930 . S
C89 O102 1.270 . S
C89 O103 1.248 . S
C90 O104 1.267 . S
C90 O105 1.278 . S
C91 Pr81 2.880 . S
C91 C92 1.491 . S
C91 O106 1.254 . S
C91 O107 1.225 . S
C92 C91 1.491 . S
C92 C93 1.392 . S
C92 C97 1.356 . S
C93 C92 1.392 . S
C93 C94 1.368 . S
C93 H116 0.929 . S
C94 C93 1.368 . S
C94 C95 1.386 . S
C94 H117 0.929 . S
C95 C94 1.386 . S
C95 C96 1.373 . S
C96 C95 1.373 . S
C96 C97 1.409 . S
C96 H118 0.931 . S
C97 C92 1.356 . S
C97 C96 1.409 . S
C97 H119 0.930 . S
C98 O108 1.270 . S
C98 O109 1.248 . S
C99 O110 1.267 . S
C99 O111 1.278 . S
O100 Pr80 2.562 . S
O100 C82 1.254 . S
O101 Pr80 2.490 . S
O101 C82 1.225 . S
O102 Pr80 2.695 . S
O102 Pr81 2.436 . S
O102 C89 1.270 . S
O103 Pr80 2.512 . S
O103 C89 1.248 . S
O104 Pr81 2.438 . S
O104 C90 1.267 . S
O105 Pr80 2.437 . S
O105 C90 1.278 . S
O106 Pr81 2.562 . S
O106 C91 1.254 . S
O107 Pr81 2.490 . S
O107 C91 1.225 . S
O108 Pr80 2.436 . S
O108 Pr81 2.695 . S
O108 C98 1.270 . S
O109 Pr81 2.512 . S
O109 C98 1.248 . S
O110 Pr80 2.438 . S
O110 C99 1.267 . S
O111 Pr81 2.437 . S
O111 C99 1.278 . S
H112 C84 0.929 . S
H113 C85 0.929 . S
H114 C87 0.931 . S
H115 C88 0.930 . S
H116 C93 0.929 . S
H117 C94 0.929 . S
H118 C96 0.931 . S
H119 C97 0.930 . S
C120 N121 1.317 . S
C120 N122 1.348 1_545 S
C120 C123 1.485 . S
N121 C120 1.317 . S
N121 N125 1.370 . S
N122 C120 1.348 1_565 S
N122 C124 1.346 . S
C123 C120 1.485 . S
C123 H127 0.960 . S
C123 H128 0.961 1_545 S
C123 H129 0.960 . S
C124 N122 1.346 . S
C124 N125 1.307 1_565 S
C124 C126 1.486 . S
N125 N121 1.370 . S
N125 C124 1.307 1_545 S
C126 C124 1.486 . S
C126 H130 0.960 . S
C126 H131 0.960 . S
C126 H132 0.959 . S
H127 C123 0.960 . S
H128 C123 0.961 1_565 S
H129 C123 0.960 . S
H130 C126 0.960 . S
H131 C126 0.960 . S
H132 C126 0.959 . S
C133 N134 1.317 . S
C133 N135 1.348 . S
C133 C136 1.485 . S
N134 C133 1.317 . S
N134 N138 1.370 . S
N135 C133 1.348 . S
N135 C137 1.346 . S
C136 C133 1.485 . S
C136 H140 0.960 . S
C136 H141 0.961 . S
C136 H142 0.960 . S
C137 N135 1.346 . S
C137 N138 1.307 . S
C137 C139 1.486 . S
N138 N134 1.370 . S
N138 C137 1.307 . S
C139 C137 1.486 . S
C139 H143 0.960 . S
C139 H144 0.960 . S
C139 H145 0.959 . S
H140 C136 0.960 . S
H141 C136 0.961 . S
H142 C136 0.960 . S
H143 C139 0.960 . S
H144 C139 0.960 . S
H145 C139 0.959 . S
C146 N147 1.317 . S
C146 N148 1.348 1_455 S
C146 C149 1.485 . S
N147 C146 1.317 . S
N147 N151 1.370 . S
N148 C146 1.348 1_655 S
N148 C150 1.346 . S
C149 C146 1.485 . S
C149 H153 0.960 . S
C149 H154 0.961 . S
C149 H155 0.960 . S
C150 N148 1.346 . S
C150 N151 1.307 1_655 S
C150 C152 1.486 . S
N151 N147 1.370 . S
N151 C150 1.307 1_455 S
C152 C150 1.486 . S
C152 H156 0.960 . S
C152 H157 0.960 . S
C152 H158 0.959 . S
H153 C149 0.960 . S
H154 C149 0.961 . S
H155 C149 0.960 . S
H156 C152 0.960 . S
H157 C152 0.960 . S
H158 C152 0.959 . S
C159 N160 1.317 . S
C159 N161 1.348 . S
C159 C162 1.485 . S
N160 C159 1.317 . S
N160 N164 1.370 . S
N161 C159 1.348 . S
N161 C163 1.346 . S
C162 C159 1.485 . S
C162 H166 0.960 . S
C162 H167 0.961 . S
C162 H168 0.960 . S
C163 N161 1.346 . S
C163 N164 1.307 . S
C163 C165 1.486 . S
N164 N160 1.370 . S
N164 C163 1.307 . S
C165 C163 1.486 . S
C165 H169 0.960 . S
C165 H170 0.960 . S
C165 H171 0.959 . S
H166 C162 0.960 . S
H167 C162 0.961 . S
H168 C162 0.960 . S
H169 C165 0.960 . S
H170 C165 0.960 . S
H171 C165 0.959 . S
C172 N173 1.317 . S
C172 N174 1.348 . S
C172 C175 1.485 . S
N173 C172 1.317 . S
N173 N177 1.370 . S
N174 C172 1.348 . S
N174 C176 1.346 . S
C175 C172 1.485 . S
C175 H179 0.960 . S
C175 H180 0.961 . S
C175 H181 0.960 . S
C176 N174 1.346 . S
C176 N177 1.307 . S
C176 C178 1.486 . S
N177 N173 1.370 . S
N177 C176 1.307 . S
C178 C176 1.486 . S
C178 H182 0.960 . S
C178 H183 0.960 . S
C178 H184 0.959 . S
H179 C175 0.960 . S
H180 C175 0.961 . S
H181 C175 0.960 . S
H182 C178 0.960 . S
H183 C178 0.960 . S
H184 C178 0.959 . S
C185 N186 1.317 . S
C185 N187 1.348 . S
C185 C188 1.485 . S
N186 C185 1.317 . S
N186 N190 1.370 . S
N187 C185 1.348 . S
N187 C189 1.346 . S
C188 C185 1.485 . S
C188 H192 0.960 . S
C188 H193 0.961 . S
C188 H194 0.960 . S
C189 N187 1.346 . S
C189 N190 1.307 . S
C189 C191 1.486 . S
N190 N186 1.370 . S
N190 C189 1.307 . S
C191 C189 1.486 . S
C191 H195 0.960 . S
C191 H196 0.960 . S
C191 H197 0.959 . S
H192 C188 0.960 . S
H193 C188 0.961 . S
H194 C188 0.960 . S
H195 C191 0.960 . S
H196 C191 0.960 . S
H197 C191 0.959 . S
H198 C210 0.930 . S
H199 C212 0.930 . S
H200 C213 0.930 . S
H201 C217 0.959 . S
H202 C217 0.959 . S
H203 C217 0.961 . S
H204 C218 0.960 . S
H205 C218 0.961 . S
H206 C218 0.959 . S
H207 C221 0.929 . S
H208 C222 0.931 . S
H209 C224 0.930 . S
C210 H198 0.930 . S
C210 C211 1.399 . S
C210 C215 1.399 . S
C211 C210 1.399 . S
C211 C212 1.376 . S
C212 H199 0.930 . S
C212 C211 1.376 . S
C212 C213 1.388 . S
C213 H200 0.930 . S
C213 C212 1.388 . S
C213 C214 1.390 . S
C214 C213 1.390 . S
C214 C215 1.394 . S
C214 C220 1.465 . S
C215 C210 1.399 . S
C215 C214 1.394 . S
C215 C216 1.516 . S
C216 C215 1.516 . S
C216 C217 1.502 . S
C216 C218 1.561 . S
C216 C219 1.526 . S
C217 H201 0.959 . S
C217 H202 0.959 . S
C217 H203 0.961 . S
C217 C216 1.502 . S
C218 H204 0.960 . S
C218 H205 0.961 . S
C218 H206 0.959 . S
C218 C216 1.561 . S
C219 C216 1.526 . S
C219 C220 1.396 . S
C219 C224 1.390 . S
C220 C214 1.465 . S
C220 C219 1.396 . S
C220 C221 1.399 . S
C221 H207 0.929 . S
C221 C220 1.399 . S
C221 C222 1.385 . S
C222 H208 0.931 . S
C222 C221 1.385 . S
C222 C223 1.389 . S
C223 C222 1.389 . S
C223 C224 1.387 . S
C224 H209 0.930 . S
C224 C219 1.390 . S
C224 C223 1.387 . S
H225 C237 0.930 . S
H226 C239 0.930 . S
H227 C240 0.930 . S
H228 C244 0.959 . S
H229 C244 0.959 . S
H230 C244 0.961 . S
H231 C245 0.960 . S
H232 C245 0.961 . S
H233 C245 0.959 . S
H234 C248 0.929 . S
H235 C249 0.931 . S
H236 C251 0.930 . S
C237 H225 0.930 . S
C237 C238 1.399 . S
C237 C242 1.399 . S
C238 C237 1.399 . S
C238 C239 1.376 . S
C239 H226 0.930 . S
C239 C238 1.376 . S
C239 C240 1.388 . S
C240 H227 0.930 . S
C240 C239 1.388 . S
C240 C241 1.390 . S
C241 C240 1.390 . S
C241 C242 1.394 . S
C241 C247 1.465 . S
C242 C237 1.399 . S
C242 C241 1.394 . S
C242 C243 1.516 . S
C243 C242 1.516 . S
C243 C244 1.502 . S
C243 C245 1.561 . S
C243 C246 1.526 . S
C244 H228 0.959 . S
C244 H229 0.959 . S
C244 H230 0.961 . S
C244 C243 1.502 . S
C245 H231 0.960 . S
C245 H232 0.961 . S
C245 H233 0.959 . S
C245 C243 1.561 . S
C246 C243 1.526 . S
C246 C247 1.396 . S
C246 C251 1.390 . S
C247 C241 1.465 . S
C247 C246 1.396 . S
C247 C248 1.399 . S
C248 H234 0.929 . S
C248 C247 1.399 . S
C248 C249 1.385 . S
C249 H235 0.931 . S
C249 C248 1.385 . S
C249 C250 1.389 . S
C250 C249 1.389 . S
C250 C251 1.387 . S
C251 H236 0.930 . S
C251 C246 1.390 . S
C251 C250 1.387 . S
H252 C264 0.930 . S
H253 C266 0.930 . S
H254 C267 0.930 . S
H255 C271 0.959 . S
H256 C271 0.959 . S
H257 C271 0.961 . S
H258 C272 0.960 . S
H259 C272 0.961 . S
H260 C272 0.959 . S
H261 C275 0.929 . S
H262 C276 0.931 . S
H263 C278 0.930 . S
C264 H252 0.930 . S
C264 C265 1.399 . S
C264 C269 1.399 . S
C265 C264 1.399 . S
C265 C266 1.376 . S
C266 H253 0.930 . S
C266 C265 1.376 . S
C266 C267 1.388 . S
C267 H254 0.930 . S
C267 C266 1.388 . S
C267 C268 1.390 . S
C268 C267 1.390 . S
C268 C269 1.394 . S
C268 C274 1.465 . S
C269 C264 1.399 . S
C269 C268 1.394 . S
C269 C270 1.516 . S
C270 C269 1.516 . S
C270 C271 1.502 . S
C270 C272 1.561 . S
C270 C273 1.526 . S
C271 H255 0.959 . S
C271 H256 0.959 . S
C271 H257 0.961 . S
C271 C270 1.502 . S
C272 H258 0.960 . S
C272 H259 0.961 . S
C272 H260 0.959 . S
C272 C270 1.561 . S
C273 C270 1.526 . S
C273 C274 1.396 . S
C273 C278 1.390 . S
C274 C268 1.465 . S
C274 C273 1.396 . S
C274 C275 1.399 . S
C275 H261 0.929 . S
C275 C274 1.399 . S
C275 C276 1.385 1_565 S
C276 H262 0.931 . S
C276 C275 1.385 1_545 S
C276 C277 1.389 . S
C277 C276 1.389 . S
C277 C278 1.387 1_545 S
C278 H263 0.930 . S
C278 C273 1.390 . S
C278 C277 1.387 1_565 S
H279 C291 0.930 . S
H280 C293 0.930 . S
H281 C294 0.930 . S
H282 C298 0.959 . S
H283 C298 0.959 . S
H284 C298 0.961 . S
H285 C299 0.960 . S
H286 C299 0.961 . S
H287 C299 0.959 . S
H288 C302 0.929 . S
H289 C303 0.931 . S
H290 C305 0.930 . S
C291 H279 0.930 . S
C291 C292 1.399 . S
C291 C296 1.399 . S
C292 C291 1.399 . S
C292 C293 1.376 . S
C293 H280 0.930 . S
C293 C292 1.376 . S
C293 C294 1.388 . S
C294 H281 0.930 . S
C294 C293 1.388 . S
C294 C295 1.390 . S
C295 C294 1.390 . S
C295 C296 1.394 . S
C295 C301 1.465 . S
C296 C291 1.399 . S
C296 C295 1.394 . S
C296 C297 1.516 . S
C297 C296 1.516 . S
C297 C298 1.502 . S
C297 C299 1.561 . S
C297 C300 1.526 . S
C298 H282 0.959 . S
C298 H283 0.959 . S
C298 H284 0.961 . S
C298 C297 1.502 . S
C299 H285 0.960 . S
C299 H286 0.961 . S
C299 H287 0.959 . S
C299 C297 1.561 . S
C300 C297 1.526 . S
C300 C301 1.396 . S
C300 C305 1.390 . S
C301 C295 1.465 . S
C301 C300 1.396 . S
C301 C302 1.399 . S
C302 H288 0.929 . S
C302 C301 1.399 . S
C302 C303 1.385 . S
C303 H289 0.931 . S
C303 C302 1.385 . S
C303 C304 1.389 . S
C304 C303 1.389 . S
C304 C305 1.387 . S
C305 H290 0.930 . S
C305 C300 1.390 . S
C305 C304 1.387 . S
H306 C318 0.930 . S
H307 C320 0.930 . S
H308 C321 0.930 . S
H309 C325 0.959 . S
H310 C325 0.959 . S
H311 C325 0.961 . S
H312 C326 0.960 . S
H313 C326 0.961 . S
H314 C326 0.959 . S
H315 C329 0.929 . S
H316 C330 0.931 . S
H317 C332 0.930 . S
C318 H306 0.930 . S
C318 C319 1.399 . S
C318 C323 1.399 . S
C319 C318 1.399 . S
C319 C320 1.376 . S
C320 H307 0.930 . S
C320 C319 1.376 . S
C320 C321 1.388 . S
C321 H308 0.930 . S
C321 C320 1.388 . S
C321 C322 1.390 . S
C322 C321 1.390 . S
C322 C323 1.394 . S
C322 C328 1.465 . S
C323 C318 1.399 . S
C323 C322 1.394 . S
C323 C324 1.516 . S
C324 C323 1.516 . S
C324 C325 1.502 . S
C324 C326 1.561 . S
C324 C327 1.526 . S
C325 H309 0.959 . S
C325 H310 0.959 . S
C325 H311 0.961 . S
C325 C324 1.502 . S
C326 H312 0.960 . S
C326 H313 0.961 . S
C326 H314 0.959 . S
C326 C324 1.561 . S
C327 C324 1.526 . S
C327 C328 1.396 . S
C327 C332 1.390 . S
C328 C322 1.465 . S
C328 C327 1.396 . S
C328 C329 1.399 . S
C329 H315 0.929 . S
C329 C328 1.399 . S
C329 C330 1.385 . S
C330 H316 0.931 . S
C330 C329 1.385 . S
C330 C331 1.389 . S
C331 C330 1.389 . S
C331 C332 1.387 . S
C332 H317 0.930 . S
C332 C327 1.390 . S
C332 C331 1.387 . S
H333 C345 0.930 . S
H334 C347 0.930 . S
H335 C348 0.930 . S
H336 C352 0.959 . S
H337 C352 0.959 . S
H338 C352 0.961 . S
H339 C353 0.960 . S
H340 C353 0.961 . S
H341 C353 0.959 . S
H342 C356 0.929 . S
H343 C357 0.931 . S
H344 C359 0.930 . S
C345 H333 0.930 . S
C345 C346 1.399 . S
C345 C350 1.399 . S
C346 C345 1.399 . S
C346 C347 1.376 . S
C347 H334 0.930 . S
C347 C346 1.376 . S
C347 C348 1.388 . S
C348 H335 0.930 . S
C348 C347 1.388 . S
C348 C349 1.390 . S
C349 C348 1.390 . S
C349 C350 1.394 . S
C349 C355 1.465 . S
C350 C345 1.399 . S
C350 C349 1.394 . S
C350 C351 1.516 . S
C351 C350 1.516 . S
C351 C352 1.502 . S
C351 C353 1.561 . S
C351 C354 1.526 . S
C352 H336 0.959 . S
C352 H337 0.959 . S
C352 H338 0.961 . S
C352 C351 1.502 . S
C353 H339 0.960 . S
C353 H340 0.961 . S
C353 H341 0.959 . S
C353 C351 1.561 . S
C354 C351 1.526 . S
C354 C355 1.396 . S
C354 C359 1.390 . S
C355 C349 1.465 . S
C355 C354 1.396 . S
C355 C356 1.399 . S
C356 H342 0.929 . S
C356 C355 1.399 . S
C356 C357 1.385 . S
C357 H343 0.931 . S
C357 C356 1.385 . S
C357 C358 1.389 . S
C358 C357 1.389 . S
C358 C359 1.387 . S
C359 H344 0.930 . S
C359 C354 1.390 . S
C359 C358 1.387 . S
H360 C372 0.930 . S
H361 C374 0.930 . S
H362 C375 0.930 . S
H363 C379 0.959 . S
H364 C379 0.959 . S
H365 C379 0.961 . S
H366 C380 0.960 . S
H367 C380 0.961 . S
H368 C380 0.959 . S
H369 C383 0.929 . S
H370 C384 0.931 . S
H371 C386 0.930 . S
C372 H360 0.930 . S
C372 C373 1.399 . S
C372 C377 1.399 . S
C373 C372 1.399 . S
C373 C374 1.376 . S
C374 H361 0.930 . S
C374 C373 1.376 . S
C374 C375 1.388 . S
C375 H362 0.930 . S
C375 C374 1.388 . S
C375 C376 1.390 . S
C376 C375 1.390 . S
C376 C377 1.394 . S
C376 C382 1.465 . S
C377 C372 1.399 . S
C377 C376 1.394 . S
C377 C378 1.516 . S
C378 C377 1.516 . S
C378 C379 1.502 . S
C378 C380 1.561 . S
C378 C381 1.526 . S
C379 H363 0.959 . S
C379 H364 0.959 . S
C379 H365 0.961 . S
C379 C378 1.502 . S
C380 H366 0.960 . S
C380 H367 0.961 . S
C380 H368 0.959 . S
C380 C378 1.561 . S
C381 C378 1.526 . S
C381 C382 1.396 . S
C381 C386 1.390 . S
C382 C376 1.465 . S
C382 C381 1.396 . S
C382 C383 1.399 . S
C383 H369 0.929 . S
C383 C382 1.399 . S
C383 C384 1.385 . S
C384 H370 0.931 . S
C384 C383 1.385 . S
C384 C385 1.389 . S
C385 C384 1.389 . S
C385 C386 1.387 . S
C386 H371 0.930 . S
C386 C381 1.390 . S
C386 C385 1.387 . S
H387 C399 0.930 . S
H388 C401 0.930 . S
H389 C402 0.930 . S
H390 C406 0.959 . S
H391 C406 0.959 . S
H392 C406 0.961 . S
H393 C407 0.960 . S
H394 C407 0.961 . S
H395 C407 0.959 . S
H396 C410 0.929 . S
H397 C411 0.931 . S
H398 C413 0.930 . S
C399 H387 0.930 . S
C399 C400 1.399 . S
C399 C404 1.399 . S
C400 C399 1.399 . S
C400 C401 1.376 . S
C401 H388 0.930 . S
C401 C400 1.376 . S
C401 C402 1.388 . S
C402 H389 0.930 . S
C402 C401 1.388 . S
C402 C403 1.390 . S
C403 C402 1.390 . S
C403 C404 1.394 . S
C403 C409 1.465 . S
C404 C399 1.399 . S
C404 C403 1.394 . S
C404 C405 1.516 . S
C405 C404 1.516 . S
C405 C406 1.502 . S
C405 C407 1.561 . S
C405 C408 1.526 . S
C406 H390 0.959 . S
C406 H391 0.959 . S
C406 H392 0.961 . S
C406 C405 1.502 . S
C407 H393 0.960 . S
C407 H394 0.961 . S
C407 H395 0.959 . S
C407 C405 1.561 . S
C408 C405 1.526 . S
C408 C409 1.396 . S
C408 C413 1.390 . S
C409 C403 1.465 . S
C409 C408 1.396 . S
C409 C410 1.399 . S
C410 H396 0.929 . S
C410 C409 1.399 . S
C410 C411 1.385 . S
C411 H397 0.931 . S
C411 C410 1.385 . S
C411 C412 1.389 . S
C412 C411 1.389 . S
C412 C413 1.387 . S
C413 H398 0.930 . S
C413 C408 1.390 . S
C413 C412 1.387 . S
H414 C426 0.930 . S
H415 C428 0.930 . S
H416 C429 0.930 . S
H417 C433 0.959 . S
H418 C433 0.959 . S
H419 C433 0.961 . S
H420 C434 0.960 . S
H421 C434 0.961 . S
H422 C434 0.959 . S
H423 C437 0.929 . S
H424 C438 0.931 . S
H425 C440 0.930 . S
C426 H414 0.930 . S
C426 C427 1.399 . S
C426 C431 1.399 . S
C427 C426 1.399 . S
C427 C428 1.376 . S
C428 H415 0.930 . S
C428 C427 1.376 . S
C428 C429 1.388 . S
C429 H416 0.930 . S
C429 C428 1.388 . S
C429 C430 1.390 . S
C430 C429 1.390 . S
C430 C431 1.394 . S
C430 C436 1.465 . S
C431 C426 1.399 . S
C431 C430 1.394 . S
C431 C432 1.516 . S
C432 C431 1.516 . S
C432 C433 1.502 . S
C432 C434 1.561 . S
C432 C435 1.526 . S
C433 H417 0.959 . S
C433 H418 0.959 . S
C433 H419 0.961 . S
C433 C432 1.502 . S
C434 H420 0.960 . S
C434 H421 0.961 . S
C434 H422 0.959 . S
C434 C432 1.561 . S
C435 C432 1.526 . S
C435 C436 1.396 . S
C435 C440 1.390 . S
C436 C430 1.465 . S
C436 C435 1.396 . S
C436 C437 1.399 . S
C437 H423 0.929 . S
C437 C436 1.399 . S
C437 C438 1.385 . S
C438 H424 0.931 . S
C438 C437 1.385 . S
C438 C439 1.389 . S
C439 C438 1.389 . S
C439 C440 1.387 . S
C440 H425 0.930 . S
C440 C435 1.390 . S
C440 C439 1.387 . S
H441 C453 0.930 . S
H442 C455 0.930 . S
H443 C456 0.930 . S
H444 C460 0.959 . S
H445 C460 0.959 . S
H446 C460 0.961 . S
H447 C461 0.960 . S
H448 C461 0.961 . S
H449 C461 0.959 . S
H450 C464 0.929 . S
H451 C465 0.931 . S
H452 C467 0.930 . S
C453 H441 0.930 . S
C453 C454 1.399 . S
C453 C458 1.399 . S
C454 C453 1.399 . S
C454 C455 1.376 . S
C455 H442 0.930 . S
C455 C454 1.376 . S
C455 C456 1.388 . S
C456 H443 0.930 . S
C456 C455 1.388 . S
C456 C457 1.390 . S
C457 C456 1.390 . S
C457 C458 1.394 . S
C457 C463 1.465 . S
C458 C453 1.399 . S
C458 C457 1.394 . S
C458 C459 1.516 . S
C459 C458 1.516 . S
C459 C460 1.502 . S
C459 C461 1.561 . S
C459 C462 1.526 . S
C460 H444 0.959 . S
C460 H445 0.959 . S
C460 H446 0.961 . S
C460 C459 1.502 . S
C461 H447 0.960 . S
C461 H448 0.961 . S
C461 H449 0.959 . S
C461 C459 1.561 . S
C462 C459 1.526 . S
C462 C463 1.396 . S
C462 C467 1.390 . S
C463 C457 1.465 . S
C463 C462 1.396 . S
C463 C464 1.399 . S
C464 H450 0.929 . S
C464 C463 1.399 . S
C464 C465 1.385 . S
C465 H451 0.931 . S
C465 C464 1.385 . S
C465 C466 1.389 . S
C466 C465 1.389 . S
C466 C467 1.387 . S
C467 H452 0.930 . S
C467 C462 1.390 . S
C467 C466 1.387 . S
H468 C480 0.930 . S
H469 C482 0.930 . S
H470 C483 0.930 . S
H471 C487 0.959 . S
H472 C487 0.959 . S
H473 C487 0.961 . S
H474 C488 0.960 . S
H475 C488 0.961 . S
H476 C488 0.959 . S
H477 C491 0.929 . S
H478 C492 0.931 . S
H479 C494 0.930 . S
C480 H468 0.930 . S
C480 C481 1.399 . S
C480 C485 1.399 . S
C481 C480 1.399 . S
C481 C482 1.376 . S
C482 H469 0.930 . S
C482 C481 1.376 . S
C482 C483 1.388 . S
C483 H470 0.930 . S
C483 C482 1.388 . S
C483 C484 1.390 . S
C484 C483 1.390 . S
C484 C485 1.394 . S
C484 C490 1.465 . S
C485 C480 1.399 . S
C485 C484 1.394 . S
C485 C486 1.516 . S
C486 C485 1.516 . S
C486 C487 1.502 . S
C486 C488 1.561 . S
C486 C489 1.526 . S
C487 H471 0.959 . S
C487 H472 0.959 . S
C487 H473 0.961 . S
C487 C486 1.502 . S
C488 H474 0.960 . S
C488 H475 0.961 . S
C488 H476 0.959 . S
C488 C486 1.561 . S
C489 C486 1.526 . S
C489 C490 1.396 . S
C489 C494 1.390 . S
C490 C484 1.465 . S
C490 C489 1.396 . S
C490 C491 1.399 . S
C491 H477 0.929 . S
C491 C490 1.399 . S
C491 C492 1.385 . S
C492 H478 0.931 . S
C492 C491 1.385 . S
C492 C493 1.389 . S
C493 C492 1.389 . S
C493 C494 1.387 . S
C494 H479 0.930 . S
C494 C489 1.390 . S
C494 C493 1.387 . S
H495 C507 0.930 . S
H496 C509 0.930 . S
H497 C510 0.930 . S
H498 C514 0.959 . S
H499 C514 0.959 . S
H500 C514 0.961 . S
H501 C515 0.960 . S
H502 C515 0.961 . S
H503 C515 0.959 . S
H504 C518 0.929 . S
H505 C519 0.931 . S
H506 C521 0.930 . S
C507 H495 0.930 . S
C507 C508 1.399 . S
C507 C512 1.399 . S
C508 C507 1.399 . S
C508 C509 1.376 . S
C509 H496 0.930 . S
C509 C508 1.376 . S
C509 C510 1.388 . S
C510 H497 0.930 . S
C510 C509 1.388 . S
C510 C511 1.390 . S
C511 C510 1.390 . S
C511 C512 1.394 . S
C511 C517 1.465 . S
C512 C507 1.399 . S
C512 C511 1.394 . S
C512 C513 1.516 . S
C513 C512 1.516 . S
C513 C514 1.502 . S
C513 C515 1.561 . S
C513 C516 1.526 . S
C514 H498 0.959 . S
C514 H499 0.959 . S
C514 H500 0.961 . S
C514 C513 1.502 . S
C515 H501 0.960 . S
C515 H502 0.961 . S
C515 H503 0.959 . S
C515 C513 1.561 . S
C516 C513 1.526 . S
C516 C517 1.396 . S
C516 C521 1.390 . S
C517 C511 1.465 . S
C517 C516 1.396 . S
C517 C518 1.399 . S
C518 H504 0.929 . S
C518 C517 1.399 . S
C518 C519 1.385 . S
C519 H505 0.931 . S
C519 C518 1.385 . S
C519 C520 1.389 . S
C520 C519 1.389 . S
C520 C521 1.387 . S
C521 H506 0.930 . S
C521 C516 1.390 . S
C521 C520 1.387 . S
H522 C534 0.930 . S
H523 C536 0.930 . S
H524 C537 0.930 . S
H525 C541 0.959 . S
H526 C541 0.948 1_556 S
H527 C541 0.971 . S
H528 C542 0.960 1_554 S
H529 C542 0.961 . S
H530 C542 0.959 . S
H531 C545 0.929 1_655 S
H532 C546 0.931 . S
H533 C548 0.930 . S
C534 H522 0.930 . S
C534 C535 1.399 . S
C534 C539 1.399 . S
C535 C534 1.399 . S
C535 C536 1.376 1_455 S
C536 H523 0.930 . S
C536 C535 1.376 1_655 S
C536 C537 1.388 . S
C537 H524 0.930 . S
C537 C536 1.388 . S
C537 C538 1.390 1_655 S
C538 C537 1.390 1_455 S
C538 C539 1.394 . S
C538 C544 1.465 1_554 S
C539 C534 1.399 . S
C539 C538 1.394 . S
C539 C540 1.516 1_554 S
C540 C539 1.516 1_556 S
C540 C541 1.502 1_556 S
C540 C542 1.561 1_455 S
C540 C543 1.526 . S
C541 H525 0.959 . S
C541 H526 0.948 1_554 S
C541 H527 0.971 . S
C541 C540 1.502 1_554 S
C542 H528 0.960 1_556 S
C542 H529 0.961 . S
C542 H530 0.959 . S
C542 C540 1.561 1_655 S
C543 C540 1.526 . S
C543 C544 1.396 . S
C543 C548 1.390 . S
C544 C538 1.465 1_556 S
C544 C543 1.396 . S
C544 C545 1.399 . S
C545 H531 0.929 1_455 S
C545 C544 1.399 . S
C545 C546 1.385 . S
C546 H532 0.931 . S
C546 C545 1.385 . S
C546 C547 1.389 . S
C547 C546 1.389 . S
C547 C548 1.387 . S
C548 H533 0.930 . S
C548 C543 1.390 . S
C548 C547 1.387 . S
H549 C561 0.930 . S
H550 C563 0.930 . S
H551 C564 0.930 . S
H552 C568 0.959 . S
H553 C568 0.959 . S
H554 C568 0.961 . S
H555 C569 0.960 . S
H556 C569 0.961 . S
H557 C569 0.959 . S
H558 C572 0.929 . S
H559 C573 0.931 . S
H560 C575 0.930 . S
C561 H549 0.930 . S
C561 C562 1.399 . S
C561 C566 1.399 . S
C562 C561 1.399 . S
C562 C563 1.376 1_545 S
C563 H550 0.930 . S
C563 C562 1.376 1_565 S
C563 C564 1.388 . S
C564 H551 0.930 . S
C564 C563 1.388 . S
C564 C565 1.390 1_565 S
C565 C564 1.390 1_545 S
C565 C566 1.394 . S
C565 C571 1.465 . S
C566 C561 1.399 . S
C566 C565 1.394 . S
C566 C567 1.516 . S
C567 C566 1.516 . S
C567 C568 1.502 . S
C567 C569 1.561 . S
C567 C570 1.526 . S
C568 H552 0.959 . S
C568 H553 0.959 . S
C568 H554 0.961 . S
C568 C567 1.502 . S
C569 H555 0.960 . S
C569 H556 0.961 . S
C569 H557 0.959 . S
C569 C567 1.561 . S
C570 C567 1.526 . S
C570 C571 1.396 . S
C570 C575 1.390 . S
C571 C565 1.465 . S
C571 C570 1.396 . S
C571 C572 1.399 1_545 S
C572 H558 0.929 . S
C572 C571 1.399 1_565 S
C572 C573 1.385 . S
C573 H559 0.931 . S
C573 C572 1.385 . S
C573 C574 1.389 1_565 S
C574 C573 1.389 1_545 S
C574 C575 1.387 . S
C575 H560 0.930 . S
C575 C570 1.390 . S
C575 C574 1.387 . S
H576 C588 0.930 . S
H577 C590 0.930 . S
H578 C591 0.930 . S
H579 C595 0.959 . S
H580 C595 0.959 . S
H581 C595 0.961 . S
H582 C596 0.960 . S
H583 C596 0.961 . S
H584 C596 0.959 . S
H585 C599 0.929 . S
H586 C600 0.931 . S
H587 C602 0.930 . S
C588 H576 0.930 . S
C588 C589 1.399 . S
C588 C593 1.399 . S
C589 C588 1.399 . S
C589 C590 1.376 . S
C590 H577 0.930 . S
C590 C589 1.376 . S
C590 C591 1.388 . S
C591 H578 0.930 . S
C591 C590 1.388 . S
C591 C592 1.390 . S
C592 C591 1.390 . S
C592 C593 1.394 . S
C592 C598 1.465 . S
C593 C588 1.399 . S
C593 C592 1.394 . S
C593 C594 1.516 . S
C594 C593 1.516 . S
C594 C595 1.502 . S
C594 C596 1.561 . S
C594 C597 1.526 . S
C595 H579 0.959 . S
C595 H580 0.959 . S
C595 H581 0.961 . S
C595 C594 1.502 . S
C596 H582 0.960 . S
C596 H583 0.961 . S
C596 H584 0.959 . S
C596 C594 1.561 . S
C597 C594 1.526 . S
C597 C598 1.396 . S
C597 C602 1.390 . S
C598 C592 1.465 . S
C598 C597 1.396 . S
C598 C599 1.399 . S
C599 H585 0.929 . S
C599 C598 1.399 . S
C599 C600 1.385 . S
C600 H586 0.931 . S
C600 C599 1.385 . S
C600 C601 1.389 . S
C601 C600 1.389 . S
C601 C602 1.387 . S
C602 H587 0.930 . S
C602 C597 1.390 . S
C602 C601 1.387 . S
H603 C615 0.930 . S
H604 C617 0.930 . S
H605 C618 0.930 . S
H606 C622 0.959 . S
H607 C622 0.959 . S
H608 C622 0.961 . S
H609 C623 0.960 . S
H610 C623 0.961 . S
H611 C623 0.959 . S
H612 C626 0.929 . S
H613 C627 0.931 . S
H614 C629 0.930 . S
C615 H603 0.930 . S
C615 C616 1.399 1_565 S
C615 C620 1.399 . S
C616 C615 1.399 1_545 S
C616 C617 1.376 . S
C617 H604 0.930 . S
C617 C616 1.376 . S
C617 C618 1.388 . S
C618 H605 0.930 . S
C618 C617 1.388 . S
C618 C619 1.390 . S
C619 C618 1.390 . S
C619 C620 1.394 1_545 S
C619 C625 1.465 . S
C620 C615 1.399 . S
C620 C619 1.394 1_565 S
C620 C621 1.516 . S
C621 C620 1.516 . S
C621 C622 1.502 . S
C621 C623 1.561 . S
C621 C624 1.526 . S
C622 H606 0.959 . S
C622 H607 0.959 . S
C622 H608 0.961 . S
C622 C621 1.502 . S
C623 H609 0.960 . S
C623 H610 0.961 . S
C623 H611 0.959 . S
C623 C621 1.561 . S
C624 C621 1.526 . S
C624 C625 1.396 1_565 S
C624 C629 1.390 . S
C625 C619 1.465 . S
C625 C624 1.396 1_545 S
C625 C626 1.399 . S
C626 H612 0.929 . S
C626 C625 1.399 . S
C626 C627 1.385 . S
C627 H613 0.931 . S
C627 C626 1.385 . S
C627 C628 1.389 . S
C628 C627 1.389 . S
C628 C629 1.387 1_545 S
C629 H614 0.930 . S
C629 C624 1.390 . S
C629 C628 1.387 1_565 S
H630 C642 0.930 . S
H631 C644 0.930 . S
H632 C645 0.930 . S
H633 C649 0.959 . S
H634 C649 0.959 . S
H635 C649 0.961 1_556 S
H636 C650 0.935 1_556 S
H637 C650 0.986 . S
H638 C650 0.962 . S
H639 C653 0.929 . S
H640 C654 0.931 . S
H641 C656 0.930 . S
C642 H630 0.930 . S
C642 C643 1.399 . S
C642 C647 1.399 . S
C643 C642 1.399 . S
C643 C644 1.376 . S
C644 H631 0.930 . S
C644 C643 1.376 . S
C644 C645 1.388 . S
C645 H632 0.930 . S
C645 C644 1.388 . S
C645 C646 1.390 . S
C646 C645 1.390 . S
C646 C647 1.394 . S
C646 C652 1.465 1_556 S
C647 C642 1.399 . S
C647 C646 1.394 . S
C647 C648 1.516 1_556 S
C648 C647 1.516 1_554 S
C648 C649 1.502 . S
C648 C650 1.560 . S
C648 C651 1.526 . S
C649 H633 0.959 . S
C649 H634 0.959 . S
C649 H635 0.961 1_554 S
C649 C648 1.502 . S
C650 H636 0.935 1_554 S
C650 H637 0.986 . S
C650 H638 0.962 . S
C650 C648 1.560 . S
C651 C648 1.526 . S
C651 C652 1.396 . S
C651 C656 1.390 . S
C652 C646 1.465 1_554 S
C652 C651 1.396 . S
C652 C653 1.399 . S
C653 H639 0.929 . S
C653 C652 1.399 . S
C653 C654 1.385 . S
C654 H640 0.931 . S
C654 C653 1.385 . S
C654 C655 1.389 . S
C655 C654 1.389 . S
C655 C656 1.387 . S
C656 H641 0.930 . S
C656 C651 1.390 . S
C656 C655 1.387 . S
H657 C669 0.930 . S
H658 C671 0.930 . S
H659 C672 0.930 . S
H660 C676 0.959 . S
H661 C676 0.959 . S
H662 C676 0.961 . S
H663 C677 0.960 . S
H664 C677 0.961 . S
H665 C677 0.959 1_655 S
H666 C680 0.929 . S
H667 C681 0.931 . S
H668 C683 0.930 . S
C669 H657 0.930 . S
C669 C670 1.399 1_455 S
C669 C674 1.399 . S
C670 C669 1.399 1_655 S
C670 C671 1.376 . S
C671 H658 0.930 . S
C671 C670 1.376 . S
C671 C672 1.388 . S
C672 H659 0.930 . S
C672 C671 1.388 . S
C672 C673 1.390 . S
C673 C672 1.390 . S
C673 C674 1.394 1_655 S
C673 C679 1.465 . S
C674 C669 1.399 . S
C674 C673 1.394 1_455 S
C674 C675 1.516 . S
C675 C674 1.516 . S
C675 C676 1.502 . S
C675 C677 1.561 . S
C675 C678 1.526 . S
C676 H660 0.959 . S
C676 H661 0.959 . S
C676 H662 0.961 . S
C676 C675 1.502 . S
C677 H663 0.960 . S
C677 H664 0.961 . S
C677 H665 0.959 1_455 S
C677 C675 1.561 . S
C678 C675 1.526 . S
C678 C679 1.396 1_455 S
C678 C683 1.390 . S
C679 C673 1.465 . S
C679 C678 1.396 1_655 S
C679 C680 1.399 . S
C680 H666 0.929 . S
C680 C679 1.399 . S
C680 C681 1.385 . S
C681 H667 0.931 . S
C681 C680 1.385 . S
C681 C682 1.389 1_655 S
C682 C681 1.389 1_455 S
C682 C683 1.387 . S
C683 H668 0.930 . S
C683 C678 1.390 . S
C683 C682 1.387 . S
C211 C19 1.643 . S
C223 N187 1.598 . S
C238 C46 1.204 . S
C250 N160 1.211 1_655 S
C265 C95 0.551 . S
C277 N173 0.242 . S
C292 C10 2.137 . S
C304 N186 2.182 . S
C331 N161 1.377 . S
C319 C55 1.376 . S
C358 N174 0.735 . S
C346 C86 0.654 . S
C373 C59 2.987 . S
C385 N134 2.978 . S
C400 C90 1.721 . S
C412 N148 1.686 . S
C427 C15 1.332 . S
C439 N122 1.385 . S
C466 N135 3.039 . S
C454 C50 3.027 . S
C493 N147 2.143 . S
C481 C99 2.130 . S
C508 C6 1.062 . S
C520 N121 1.087 . S
C547 N151 1.422 . S
C535 C9 1.466 . S
C562 C58 1.515 . S
C574 N125 1.583 . S
C589 C98 1.712 . S
C601 N138 1.709 . S
C628 N177 1.291 . S
C616 C49 1.286 . S
C655 N190 1.401 . S
C643 C89 1.357 . S
C670 C18 1.480 1_655 S
C682 N164 1.539 . S
