# Generated by pormake.
# Topology ptr, (4,4)-cn, num edge types: 1
# Building blocks:
#     Node 0, Type 0, BuildingBlock: UXUYUI_clean_sbu_0, # of connection points: 4
#     Node 1, Type 0, BuildingBlock: UXUYUI_clean_sbu_0, # of connection points: 4
#     Node 2, Type 0, BuildingBlock: UXUYUI_clean_sbu_0, # of connection points: 4
#     Node 3, Type 0, BuildingBlock: UXUYUI_clean_sbu_0, # of connection points: 4
#     Node 4, Type 0, BuildingBlock: UXUYUI_clean_sbu_0, # of connection points: 4
#     Node 5, Type 0, BuildingBlock: UXUYUI_clean_sbu_0, # of connection points: 4
#     Node 6, Type 0, BuildingBlock: UXUYUI_clean_sbu_0, # of connection points: 4
#     Node 7, Type 0, BuildingBlock: UXUYUI_clean_sbu_0, # of connection points: 4
#     Node 8, Type 0, BuildingBlock: UXUYUI_clean_sbu_0, # of connection points: 4
#     Node 9, Type 0, BuildingBlock: UXUYUI_clean_sbu_0, # of connection points: 4
#     Node 10, Type 0, BuildingBlock: UXUYUI_clean_sbu_0, # of connection points: 4
#     Node 11, Type 0, BuildingBlock: UXUYUI_clean_sbu_0, # of connection points: 4
#     Node 12, Type 0, BuildingBlock: UXUYUI_clean_sbu_0, # of connection points: 4
#     Node 13, Type 0, BuildingBlock: UXUYUI_clean_sbu_0, # of connection points: 4
#     Node 14, Type 0, BuildingBlock: UXUYUI_clean_sbu_0, # of connection points: 4
#     Node 15, Type 0, BuildingBlock: UXUYUI_clean_sbu_0, # of connection points: 4
#     Node 16, Type 0, BuildingBlock: UXUYUI_clean_sbu_0, # of connection points: 4
#     Node 17, Type 0, BuildingBlock: UXUYUI_clean_sbu_0, # of connection points: 4
#     Node 18, Type 1, BuildingBlock: KUFVIS_clean_linker_0, # of connection points: 4
#     Node 19, Type 1, BuildingBlock: KUFVIS_clean_linker_0, # of connection points: 4
#     Node 20, Type 1, BuildingBlock: KUFVIS_clean_linker_0, # of connection points: 4
#     Node 21, Type 1, BuildingBlock: KUFVIS_clean_linker_0, # of connection points: 4
#     Node 22, Type 1, BuildingBlock: KUFVIS_clean_linker_0, # of connection points: 4
#     Node 23, Type 1, BuildingBlock: KUFVIS_clean_linker_0, # of connection points: 4
#     Node 24, Type 1, BuildingBlock: KUFVIS_clean_linker_0, # of connection points: 4
#     Node 25, Type 1, BuildingBlock: KUFVIS_clean_linker_0, # of connection points: 4
#     Node 26, Type 1, BuildingBlock: KUFVIS_clean_linker_0, # of connection points: 4
#     Node 27, Type 1, BuildingBlock: KUFVIS_clean_linker_0, # of connection points: 4
#     Node 28, Type 1, BuildingBlock: KUFVIS_clean_linker_0, # of connection points: 4
#     Node 29, Type 1, BuildingBlock: KUFVIS_clean_linker_0, # of connection points: 4
#     Node 30, Type 1, BuildingBlock: KUFVIS_clean_linker_0, # of connection points: 4
#     Node 31, Type 1, BuildingBlock: KUFVIS_clean_linker_0, # of connection points: 4
#     Node 32, Type 1, BuildingBlock: KUFVIS_clean_linker_0, # of connection points: 4
#     Node 33, Type 1, BuildingBlock: KUFVIS_clean_linker_0, # of connection points: 4
#     Node 34, Type 1, BuildingBlock: KUFVIS_clean_linker_0, # of connection points: 4
#     Node 35, Type 1, BuildingBlock: KUFVIS_clean_linker_0, # of connection points: 4
#     Edge 36, Type (0, 1), BuildingBlock: XIVTED_clean_linker_0, # of connection points: 2
#     Edge 37, Type (0, 1), BuildingBlock: XIVTED_clean_linker_0, # of connection points: 2
#     Edge 38, Type (0, 1), BuildingBlock: XIVTED_clean_linker_0, # of connection points: 2
#     Edge 39, Type (0, 1), BuildingBlock: XIVTED_clean_linker_0, # of connection points: 2
#     Edge 40, Type (0, 1), BuildingBlock: XIVTED_clean_linker_0, # of connection points: 2
#     Edge 41, Type (0, 1), BuildingBlock: XIVTED_clean_linker_0, # of connection points: 2
#     Edge 42, Type (0, 1), BuildingBlock: XIVTED_clean_linker_0, # of connection points: 2
#     Edge 43, Type (0, 1), BuildingBlock: XIVTED_clean_linker_0, # of connection points: 2
#     Edge 44, Type (0, 1), BuildingBlock: XIVTED_clean_linker_0, # of connection points: 2
#     Edge 45, Type (0, 1), BuildingBlock: XIVTED_clean_linker_0, # of connection points: 2
#     Edge 46, Type (0, 1), BuildingBlock: XIVTED_clean_linker_0, # of connection points: 2
#     Edge 47, Type (0, 1), BuildingBlock: XIVTED_clean_linker_0, # of connection points: 2
#     Edge 48, Type (0, 1), BuildingBlock: XIVTED_clean_linker_0, # of connection points: 2
#     Edge 49, Type (0, 1), BuildingBlock: XIVTED_clean_linker_0, # of connection points: 2
#     Edge 50, Type (0, 1), BuildingBlock: XIVTED_clean_linker_0, # of connection points: 2
#     Edge 51, Type (0, 1), BuildingBlock: XIVTED_clean_linker_0, # of connection points: 2
#     Edge 52, Type (0, 1), BuildingBlock: XIVTED_clean_linker_0, # of connection points: 2
#     Edge 53, Type (0, 1), BuildingBlock: XIVTED_clean_linker_0, # of connection points: 2
#     Edge 54, Type (0, 1), BuildingBlock: XIVTED_clean_linker_0, # of connection points: 2
#     Edge 55, Type (0, 1), BuildingBlock: XIVTED_clean_linker_0, # of connection points: 2
#     Edge 56, Type (0, 1), BuildingBlock: XIVTED_clean_linker_0, # of connection points: 2
#     Edge 57, Type (0, 1), BuildingBlock: XIVTED_clean_linker_0, # of connection points: 2
#     Edge 58, Type (0, 1), BuildingBlock: XIVTED_clean_linker_0, # of connection points: 2
#     Edge 59, Type (0, 1), BuildingBlock: XIVTED_clean_linker_0, # of connection points: 2
#     Edge 60, Type (0, 1), BuildingBlock: XIVTED_clean_linker_0, # of connection points: 2
#     Edge 61, Type (0, 1), BuildingBlock: XIVTED_clean_linker_0, # of connection points: 2
#     Edge 62, Type (0, 1), BuildingBlock: XIVTED_clean_linker_0, # of connection points: 2
#     Edge 63, Type (0, 1), BuildingBlock: XIVTED_clean_linker_0, # of connection points: 2
#     Edge 64, Type (0, 1), BuildingBlock: XIVTED_clean_linker_0, # of connection points: 2
#     Edge 65, Type (0, 1), BuildingBlock: XIVTED_clean_linker_0, # of connection points: 2
#     Edge 66, Type (0, 1), BuildingBlock: XIVTED_clean_linker_0, # of connection points: 2
#     Edge 67, Type (0, 1), BuildingBlock: XIVTED_clean_linker_0, # of connection points: 2
#     Edge 68, Type (0, 1), BuildingBlock: XIVTED_clean_linker_0, # of connection points: 2
#     Edge 69, Type (0, 1), BuildingBlock: XIVTED_clean_linker_0, # of connection points: 2
#     Edge 70, Type (0, 1), BuildingBlock: XIVTED_clean_linker_0, # of connection points: 2
#     Edge 71, Type (0, 1), BuildingBlock: XIVTED_clean_linker_0, # of connection points: 2
#     Edge 72, Type (0, 1), BuildingBlock: XIVTED_clean_linker_0, # of connection points: 2
#     Edge 73, Type (0, 1), BuildingBlock: XIVTED_clean_linker_0, # of connection points: 2
#     Edge 74, Type (0, 1), BuildingBlock: XIVTED_clean_linker_0, # of connection points: 2
#     Edge 75, Type (0, 1), BuildingBlock: XIVTED_clean_linker_0, # of connection points: 2
#     Edge 76, Type (0, 1), BuildingBlock: XIVTED_clean_linker_0, # of connection points: 2
#     Edge 77, Type (0, 1), BuildingBlock: XIVTED_clean_linker_0, # of connection points: 2
#     Edge 78, Type (0, 1), BuildingBlock: XIVTED_clean_linker_0, # of connection points: 2
#     Edge 79, Type (0, 1), BuildingBlock: XIVTED_clean_linker_0, # of connection points: 2
#     Edge 80, Type (0, 1), BuildingBlock: XIVTED_clean_linker_0, # of connection points: 2
#     Edge 81, Type (0, 1), BuildingBlock: XIVTED_clean_linker_0, # of connection points: 2
#     Edge 82, Type (0, 1), BuildingBlock: XIVTED_clean_linker_0, # of connection points: 2
#     Edge 83, Type (0, 1), BuildingBlock: XIVTED_clean_linker_0, # of connection points: 2
#     Edge 84, Type (0, 1), BuildingBlock: XIVTED_clean_linker_0, # of connection points: 2
#     Edge 85, Type (0, 1), BuildingBlock: XIVTED_clean_linker_0, # of connection points: 2
#     Edge 86, Type (0, 1), BuildingBlock: XIVTED_clean_linker_0, # of connection points: 2
#     Edge 87, Type (0, 1), BuildingBlock: XIVTED_clean_linker_0, # of connection points: 2
#     Edge 88, Type (0, 1), BuildingBlock: XIVTED_clean_linker_0, # of connection points: 2
#     Edge 89, Type (0, 1), BuildingBlock: XIVTED_clean_linker_0, # of connection points: 2
#     Edge 90, Type (0, 1), BuildingBlock: XIVTED_clean_linker_0, # of connection points: 2
#     Edge 91, Type (0, 1), BuildingBlock: XIVTED_clean_linker_0, # of connection points: 2
#     Edge 92, Type (0, 1), BuildingBlock: XIVTED_clean_linker_0, # of connection points: 2
#     Edge 93, Type (0, 1), BuildingBlock: XIVTED_clean_linker_0, # of connection points: 2
#     Edge 94, Type (0, 1), BuildingBlock: XIVTED_clean_linker_0, # of connection points: 2
#     Edge 95, Type (0, 1), BuildingBlock: XIVTED_clean_linker_0, # of connection points: 2
#     Edge 96, Type (0, 1), BuildingBlock: XIVTED_clean_linker_0, # of connection points: 2
#     Edge 97, Type (0, 1), BuildingBlock: XIVTED_clean_linker_0, # of connection points: 2
#     Edge 98, Type (0, 1), BuildingBlock: XIVTED_clean_linker_0, # of connection points: 2
#     Edge 99, Type (0, 1), BuildingBlock: XIVTED_clean_linker_0, # of connection points: 2
#     Edge 100, Type (0, 1), BuildingBlock: XIVTED_clean_linker_0, # of connection points: 2
#     Edge 101, Type (0, 1), BuildingBlock: XIVTED_clean_linker_0, # of connection points: 2
#     Edge 102, Type (0, 1), BuildingBlock: XIVTED_clean_linker_0, # of connection points: 2
#     Edge 103, Type (0, 1), BuildingBlock: XIVTED_clean_linker_0, # of connection points: 2
#     Edge 104, Type (0, 1), BuildingBlock: XIVTED_clean_linker_0, # of connection points: 2
#     Edge 105, Type (0, 1), BuildingBlock: XIVTED_clean_linker_0, # of connection points: 2
#     Edge 106, Type (0, 1), BuildingBlock: XIVTED_clean_linker_0, # of connection points: 2
#     Edge 107, Type (0, 1), BuildingBlock: XIVTED_clean_linker_0, # of connection points: 2
# Relax obj value: 0.092
# Max RMSD: 0.233
# Mean RMSD: 0.128
data_MOF--net-ptr--node1-UXUYUI_clean_sbu_0--node2-KUFVIS_clean_linker_0--edge1-XIVTED_clean_linker_0
_symmetry_space_group_name_H-M    P1
_symmetry_Int_Tables_number       1
_symmetry_cell_setting            triclinic
loop_
_symmetry_equiv_pos_as_xyz
'x, y, z'
_cell_length_a     98.029694
_cell_length_b     98.092365
_cell_length_c     57.028479
_cell_angle_alpha  90.020049
_cell_angle_beta   90.033058
_cell_angle_gamma 120.09106
loop_
_atom_site_label
_atom_site_type_symbol
_atom_site_fract_x
_atom_site_fract_y
_atom_site_fract_z
_atom_type_partial_charge
Li0 Li 0.989 0.34886 0.00827 0.0
Li1 Li 0.01737 0.36162 0.00769 0.0
Li2 Li 1.00289 0.37359 0.02939 0.0
Li3 Li 1.00315 0.37264 0.98651 0.0
C4 C 0.99484 0.34039 0.04828 0.0
N5 N 0.97642 0.31246 0.07186 0.0
C6 C 0.99718 0.32762 0.04479 0.0
C7 C 0.98323 0.33904 0.06385 0.0
C8 C 0.98772 0.31357 0.05686 0.0
C9 C 0.97401 0.3248 0.07559 0.0
C10 C 0.01081 0.35224 0.96113 0.0
C11 C 0.03237 0.36597 0.93404 0.0
N12 N 0.0278 0.35221 0.92248 0.0
C13 C 0.00629 0.33824 0.94893 0.0
C14 C 0.02392 0.3662 0.9536 0.0
C15 C 0.01504 0.33847 0.92945 0.0
C16 C 0.95652 0.32631 0.01755 0.0
N17 N 0.97035 0.32843 0.00872 0.0
C18 C 0.95795 0.30133 -0.00248 0.0
C19 C 0.97132 0.31628 -0.00088 0.0
C20 C 0.94337 0.29886 0.00574 0.0
C21 C 0.94279 0.31157 0.0161 0.0
H22 H 0.95609 0.33613 0.02538 0.0
H23 H 0.98249 0.31827 0.99241 0.0
C24 C 0.04808 0.37036 0.02181 0.0
N25 N 0.03559 0.35935 0.00932 0.0
C26 C 0.06159 0.36917 0.02454 0.0
C27 C 0.04913 0.34519 0.00169 0.0
C28 C 0.03584 0.34689 -0.00068 0.0
C29 C 0.06224 0.35641 0.01452 0.0
H30 H 0.04744 0.37999 0.02995 0.0
H31 H 0.02565 0.33815 0.98979 0.0
C32 C 0.97184 0.36309 0.99475 0.0
N33 N 0.9454 0.35593 0.9684 0.0
C34 C 0.96868 0.3543 0.9741 0.0
C35 C 0.96154 0.36821 0.00199 0.0
C36 C 0.95526 0.35082 0.96103 0.0
C37 C 0.94823 0.36447 0.98843 0.0
C38 C 0.03275 0.3987 0.00284 0.0
C39 C 0.03082 0.41135 0.00949 0.0
C40 C 0.0467 0.40169 0.9917 0.0
C41 C 0.04262 0.42671 0.00426 0.0
C42 C 0.05823 0.41723 0.98679 0.0
N43 N 0.05596 0.42931 0.99309 0.0
C44 C 0.01277 0.38844 0.07385 0.0
C45 C 0.9967 0.39528 0.05146 0.0
C46 C 0.01497 0.39962 0.09088 0.0
N47 N 1.0039 0.38665 0.05454 0.0
C48 C 0.99869 0.40667 0.0679 0.0
C49 C 0.0081 0.40914 0.08784 0.0
H50 H 0.01844 0.38147 0.0757 0.0
H51 H 0.98999 0.3938 0.03566 0.0
C52 C 1.00039 0.38025 0.93806 0.0
N53 N 1.00229 0.38484 0.96092 0.0
C54 C 0.99835 0.38924 0.92086 0.0
C55 C 0.99995 0.40728 0.95104 0.0
C56 C 1.00185 0.39792 0.96761 0.0
C57 C 0.9981 0.40296 0.9273 0.0
H58 H 0.99998 0.36942 0.93319 0.0
H59 H 1.00242 0.40077 0.98599 0.0
O60 O 1.00363 0.35406 0.0361 0.0
O61 O 1.00257 0.35208 0.98059 0.0
O62 O 0.98496 0.36676 0.00784 0.0
O63 O 0.02142 0.38355 0.00818 0.0
H64 H 0.00609 0.3285 0.03268 0.0
H65 H 0.98126 0.34884 0.06663 0.0
H66 H 0.98932 0.30354 0.05424 0.0
H67 H 0.96491 0.32353 0.0876 0.0
H68 H 0.04251 0.37673 0.92801 0.0
H69 H 0.99617 0.3273 0.9545 0.0
H70 H 0.02733 0.37714 0.96248 0.0
H71 H 0.0117 0.32771 0.91989 0.0
H72 H 0.95893 0.29194 0.98917 0.0
H73 H 0.93184 0.31015 0.02288 0.0
H74 H 0.07125 0.37792 0.035 0.0
H75 H 0.04911 0.33518 0.99363 0.0
H76 H 0.97647 0.3502 0.96816 0.0
H77 H 0.96377 0.37498 0.01795 0.0
H78 H 0.95269 0.34405 0.94501 0.0
H79 H 0.94016 0.36836 0.99384 0.0
H80 H 0.02032 0.40936 0.01853 0.0
H81 H 0.0487 0.39216 0.98697 0.0
H82 H 0.04118 0.43658 0.00916 0.0
H83 H 0.06903 0.41968 0.97807 0.0
H84 H 0.02209 0.40089 0.10613 0.0
H85 H 0.99337 0.41384 0.06451 0.0
H86 H 0.9969 0.38545 0.90274 0.0
H87 H 0.99938 0.41749 0.95688 0.0
Li88 Li 0.65804 0.64341 0.00223 0.0
Li89 Li 0.64657 0.66066 0.00288 0.0
Li90 Li 0.63406 0.63426 0.0253 0.0
Li91 Li 0.63376 0.63518 0.98287 0.0
C92 C 0.66821 0.65764 0.04214 0.0
N93 N 0.69596 0.66465 0.06454 0.0
C94 C 0.68177 0.67227 0.03868 0.0
C95 C 0.6687 0.64661 0.05709 0.0
C96 C 0.6957 0.67557 0.05014 0.0
C97 C 0.68286 0.65038 0.06824 0.0
C98 C 0.65603 0.66037 0.95383 0.0
C99 C 0.65065 0.67544 0.92568 0.0
N100 N 0.6595 0.67313 0.90953 0.0
C101 C 0.66521 0.65829 0.93703 0.0
C102 C 0.6488 0.66912 0.94819 0.0
C103 C 0.66676 0.66477 0.9147 0.0
C104 C 0.68016 0.6326 0.00959 0.0
N105 N 0.67803 0.64429 0.00079 0.0
C106 C 0.7049 0.65864 0.9883 0.0
C107 C 0.69003 0.65717 0.99034 0.0
C108 C 0.70745 0.64667 0.99691 0.0
C109 C 0.69483 0.63351 0.0077 0.0
H110 H 0.67045 0.62254 0.01803 0.0
H111 H 0.68802 0.6663 0.98353 0.0
C112 C 0.63905 0.68406 0.01383 0.0
N113 N 0.65045 0.6817 0.0045 0.0
C114 C 0.64157 0.69931 0.01642 0.0
C115 C 0.66746 0.70945 -0.00059 0.0
C116 C 0.66442 0.69397 0.99715 0.0
C117 C 0.656 0.71231 0.00939 0.0
H118 H 0.62808 0.67407 0.01966 0.0
H119 H 0.67327 0.69172 0.98975 0.0
C120 C 0.64176 0.61182 0.99019 0.0
N121 N 0.64707 0.59122 0.96399 0.0
C122 C 0.64893 0.61632 0.9682 0.0
C123 C 0.63724 0.59681 -0.00117 0.0
C124 C 0.65153 0.60576 0.95523 0.0
C125 C 0.64004 0.58657 0.98533 0.0
C126 C 0.60941 0.63826 0.99641 0.0
C127 C 0.59699 0.6235 0.00302 0.0
C128 C 0.60666 0.64746 0.98052 0.0
C129 C 0.58206 0.61808 0.99331 0.0
C130 C 0.59156 0.64162 0.9712 0.0
N131 N 0.57967 0.62716 0.97771 0.0
C132 C 0.61236 0.62852 0.0612 0.0
C133 C 0.6211 0.60997 0.05945 0.0
C134 C 0.60148 0.61978 0.07867 0.0
N135 N 0.6217 0.62338 0.05179 0.0
C136 C 0.61044 0.6009 0.07699 0.0
C137 C 0.60025 0.60563 0.08661 0.0
H138 H 0.61296 0.63912 0.05449 0.0
H139 H 0.62866 0.60616 0.05157 0.0
C140 C 0.61967 0.62817 0.93588 0.0
N141 N 0.61972 0.62285 0.95789 0.0
C142 C 0.60847 0.61828 0.91943 0.0
C143 C 0.5975 0.59768 0.94858 0.0
C144 C 0.60897 0.60789 0.96432 0.0
C145 C 0.59712 0.60278 0.9257 0.0
H146 H 0.62821 0.64004 0.93097 0.0
H147 H 0.60912 0.60395 0.98198 0.0
O148 O 0.65462 0.65395 0.03045 0.0
O149 O 0.65463 0.65432 0.97589 0.0
O150 O 0.63912 0.62197 0.00328 0.0
O151 O 0.6242 0.64363 0.00537 0.0
H152 H 0.68158 0.68088 0.02704 0.0
H153 H 0.6583 0.6352 0.05981 0.0
H154 H 0.70633 0.6868 0.04751 0.0
H155 H 0.68345 0.64193 0.07975 0.0
H156 H 0.64505 0.68216 0.92105 0.0
H157 H 0.67114 0.6518 0.9412 0.0
H158 H 0.64175 0.67096 0.96094 0.0
H159 H 0.67378 0.6632 0.9015 0.0
H160 H 0.71422 0.66889 0.97956 0.0
H161 H 0.69632 0.62408 0.01474 0.0
H162 H 0.63249 0.7009 0.02458 0.0
H163 H 0.67868 0.71906 0.99354 0.0
H164 H 0.65242 0.62782 0.96119 0.0
H165 H 0.63163 0.59311 0.01579 0.0
H166 H 0.65708 0.60911 0.93819 0.0
H167 H 0.63661 0.57493 0.99181 0.0
H168 H 0.59892 0.61618 0.0152 0.0
H169 H 0.61606 0.65899 0.97544 0.0
H170 H 0.57238 0.60661 -0.0019 0.0
H171 H 0.58928 0.64858 0.95879 0.0
H172 H 0.59376 0.62382 0.08527 0.0
H173 H 0.61011 0.59023 0.08282 0.0
H174 H 0.60884 0.6227 0.90191 0.0
H175 H 0.58887 0.58599 0.95447 0.0
Li176 Li 0.37748 0.00425 0.98797 0.0
Li177 Li 0.37935 0.00812 0.02996 0.0
Li178 Li 0.35392 0.99267 0.01259 0.0
Li179 Li 0.36843 0.02181 0.00818 0.0
C180 C 0.3806 0.98146 0.01176 0.0
N181 N 0.39987 0.96845 0.00965 0.0
C182 C 0.39696 0.99119 0.01109 0.0
C183 C 0.37402 0.96511 0.01135 0.0
C184 C 0.40651 0.98439 0.01003 0.0
C185 C 0.38396 0.95875 0.01029 0.0
C186 C 0.40378 0.03752 0.01152 0.0
C187 C 0.41808 0.06352 0.0286 0.0
N188 N 0.43191 0.06416 0.02324 0.0
C189 C 0.41816 0.03853 0.00598 0.0
C190 C 0.40375 0.05018 0.02276 0.0
C191 C 0.43223 0.05206 0.01214 0.0
C192 C 0.40047 0.01459 0.95251 0.0
N193 N 0.38771 1.00167 0.96147 0.0
C194 C 0.39215 0.98473 0.9364 0.0
C195 C 0.38322 0.98694 0.95349 0.0
C196 C 0.4058 0.99782 0.92749 0.0
C197 C 0.40975 0.01293 0.93545 0.0
H198 H 0.40369 0.02616 0.95907 0.0
H199 H 0.37303 0.97686 0.96101 0.0
C200 C 0.38999 0.99556 0.06588 0.0
N201 N 0.39216 0.00934 0.05679 0.0
C202 C 0.40005 0.99562 0.08328 0.0
C203 C 0.41367 0.02404 0.08318 0.0
C204 C 0.40339 0.02342 0.06571 0.0
C205 C 0.41233 0.01001 0.09181 0.0
H206 H 0.38058 0.98446 0.05937 0.0
H207 H 0.40452 0.03423 0.05926 0.0
C208 C 0.34347 0.9976 0.97298 0.0
N209 N 0.3135 0.98079 0.95432 0.0
C210 C 0.33189 1.00116 0.97963 0.0
C211 C 0.33987 0.98559 0.95674 0.0
C212 C 0.31678 0.99249 0.97002 0.0
C213 C 0.32463 0.97721 0.94753 0.0
C214 C 0.36121 0.01009 0.0607 0.0
C215 C 0.35529 0.99639 0.07415 0.0
C216 C 0.36914 0.02482 0.07163 0.0
C217 C 0.3575 0.99765 0.09843 0.0
C218 C 0.3711 0.02558 0.09595 0.0
N219 N 0.3653 0.0121 0.10873 0.0
C220 C 0.32979 0.96129 0.00359 0.0
C221 C 0.32221 0.97579 0.02826 0.0
C222 C 0.31468 0.94807 0.00498 0.0
N223 N 0.33324 0.97475 0.01519 0.0
C224 C 0.30698 0.96283 0.03024 0.0
C225 C 0.30302 0.94867 0.01858 0.0
H226 H 0.33877 0.96087 0.99312 0.0
H227 H 0.32528 0.98667 0.03725 0.0
C228 C 0.37407 0.05002 0.98651 0.0
N229 N 0.36639 0.04001 0.00452 0.0
C230 C 0.37271 0.0634 0.98311 0.0
C231 C 0.35558 0.05594 0.01691 0.0
C232 C 0.35729 0.0427 0.01967 0.0
C233 C 0.36329 0.06648 -0.00165 0.0
H234 H 0.38119 0.04754 0.9747 0.0
H235 H 0.3513 0.03452 0.03383 0.0
O236 O 0.37099 0.98784 0.01244 0.0
O237 O 0.38985 0.02449 0.00521 0.0
O238 O 0.35815 0.00557 0.98278 0.0
O239 O 0.35958 0.00909 0.03687 0.0
H240 H 0.4022 1.00383 0.01148 0.0
H241 H 0.36135 0.95741 0.01181 0.0
H242 H 0.41921 0.9918 0.00953 0.0
H243 H 0.37903 0.94611 0.00994 0.0
H244 H 0.4182 0.07333 0.03747 0.0
H245 H 0.41851 0.02903 0.99692 0.0
H246 H 0.39281 0.04964 0.02741 0.0
H247 H 0.44343 0.05295 0.00803 0.0
H248 H 0.38871 0.97288 0.93085 0.0
H249 H 0.41998 0.02337 0.92872 0.0
H250 H 0.39825 0.9845 0.08995 0.0
H251 H 0.42286 0.03541 0.08937 0.0
H252 H 0.3345 0.01037 0.99229 0.0
H253 H 0.34872 0.98266 0.95153 0.0
H254 H 0.30766 0.99504 0.97511 0.0
H255 H 0.32163 0.96781 0.93505 0.0
H256 H 0.34922 0.98491 0.06587 0.0
H257 H 0.37386 0.03553 0.06142 0.0
H258 H 0.35306 0.98715 0.10906 0.0
H259 H 0.37729 0.03689 0.10466 0.0
H260 H 0.31217 0.93753 0.99542 0.0
H261 H 0.29852 0.96383 0.04123 0.0
H262 H 0.37866 0.07102 0.96834 0.0
H263 H 0.34832 0.05789 0.0292 0.0
Li264 Li 0.02248 0.65851 0.00352 0.0
Li265 Li 0.0066 0.6335 0.02206 0.0
Li266 Li 0.00967 0.63457 0.98035 0.0
Li267 Li 0.99385 0.6448 -0.0005 0.0
C268 C 0.0402 0.64443 0.9936 0.0
N269 N 0.06842 0.65239 0.97191 0.0
C270 C 0.05001 0.63925 0.00285 0.0
C271 C 0.04473 0.65366 0.97329 0.0
C272 C 0.06424 0.6434 0.99164 0.0
C273 C 0.05905 0.65755 0.96259 0.0
C274 C 0.01376 0.66017 0.04927 0.0
C275 C 0.01721 0.67676 0.08258 0.0
N276 N 0.02888 0.67434 0.09068 0.0
C277 C 0.02578 0.65784 0.05794 0.0
C278 C 0.00942 0.66969 0.06167 0.0
C279 C 0.03328 0.66511 0.0789 0.0
C280 C 0.04089 0.69143 0.99611 0.0
N281 N 0.04089 0.67895 0.00644 0.0
C282 C 0.06661 0.69585 0.02232 0.0
C283 C 0.0535 0.68086 0.01909 0.0
C284 C 0.06687 0.70908 0.01226 0.0
C285 C 0.05382 0.70664 -0.0013 0.0
H286 H 0.03073 0.68959 0.98609 0.0
H287 H 0.05328 0.67076 0.02709 0.0
C288 C 0.00848 0.60888 0.04207 0.0
N289 N 1.00426 0.61977 0.04732 0.0
C290 C 0.00669 0.59764 0.05859 0.0
C291 C 0.99633 0.60907 0.08582 0.0
C292 C 0.99818 0.62004 0.06861 0.0
C293 C 1.00063 0.59765 0.08092 0.0
H294 H 0.01305 0.60883 0.02484 0.0
H295 H 0.9947 0.6287 0.07221 0.0
C296 C 1.00282 0.65449 0.95342 0.0
N297 N 0.98786 0.65353 0.91185 0.0
C298 C 0.98971 0.64043 0.94596 0.0
C299 C 0.00832 0.66804 0.93971 0.0
C300 C 0.98231 0.64019 0.9249 0.0
C301 C 1.0006 0.66732 0.91875 0.0
C302 C 0.97817 0.61062 0.01025 0.0
C303 C 0.97481 0.59525 0.00569 0.0
C304 C 0.96995 0.61338 0.0279 0.0
C305 C 0.96329 0.58285 0.01897 0.0
C306 C 0.95852 0.60067 0.04078 0.0
N307 N 0.95546 0.5858 0.0361 0.0
C308 C 0.01052 0.60898 0.96234 0.0
C309 C 0.01488 0.62761 0.93264 0.0
C310 C 0.01192 0.59909 0.94616 0.0
N311 N 0.01177 0.62279 0.95535 0.0
C312 C 0.01633 0.61803 0.91578 0.0
C313 C 0.01473 0.60348 0.92244 0.0
H314 H 0.00854 0.6057 0.98064 0.0
H315 H 0.01628 0.63885 0.92757 0.0
C316 C 0.97644 0.66067 0.00458 0.0
N317 N 0.97569 0.6472 0.99684 0.0
C318 C 0.96326 0.6626 0.00285 0.0
C319 C 0.94881 0.63674 0.98529 0.0
C320 C 0.96223 0.63531 0.98737 0.0
C321 C 0.94917 0.65053 0.99306 0.0
H322 H 0.98729 0.66991 0.01211 0.0
H323 H 0.96193 0.62472 0.98133 0.0
O324 O 0.02623 0.64038 0.00446 0.0
O325 O 0.00627 0.65328 0.02871 0.0
O326 O 0.01023 0.65513 0.97408 0.0
O327 O 0.98975 0.62299 -0.00204 0.0
H328 H 0.04664 0.63209 0.01855 0.0
H329 H 0.03732 0.65778 0.96582 0.0
H330 H 0.07195 0.63948 -0.00138 0.0
H331 H 0.0627 0.66468 0.94687 0.0
H332 H 0.01397 0.68417 0.09235 0.0
H333 H 0.02932 0.65052 0.0486 0.0
H334 H 1.00014 0.67161 0.05517 0.0
H335 H 0.04261 0.66342 0.08579 0.0
H336 H 0.0762 0.69707 0.03321 0.0
H337 H 0.05352 0.71637 0.99027 0.0
H338 H 0.00985 0.58891 0.05375 0.0
H339 H 0.99177 0.60968 0.10283 0.0
H340 H 0.98533 0.62978 0.95618 0.0
H341 H 0.01846 0.67902 0.94522 0.0
H342 H 0.97217 0.6294 0.91893 0.0
H343 H 1.00474 0.67773 0.90797 0.0
H344 H 0.98103 0.59289 0.99208 0.0
H345 H 0.97257 0.62523 0.03188 0.0
H346 H 0.96059 0.57089 0.01568 0.0
H347 H 0.95213 0.60263 0.05458 0.0
H348 H 0.01099 0.5882 0.95226 0.0
H349 H 0.01844 0.62189 0.89769 0.0
H350 H 0.96408 0.67337 0.00927 0.0
H351 H 0.93835 0.62724 0.97723 0.0
Li352 Li 0.35176 0.36724 0.01246 0.0
Li353 Li 0.37677 0.37497 0.03019 0.0
Li354 Li 0.37475 0.37549 0.98803 0.0
Li355 Li 0.36385 0.34959 0.00965 0.0
C356 C 0.36537 0.39804 0.01421 0.0
N357 N 0.35291 0.41755 0.02058 0.0
C358 C 0.36542 0.40405 0.03645 0.0
C359 C 0.35911 0.40206 0.99517 0.0
C360 C 0.35904 0.41388 0.03932 0.0
C361 C 0.35282 0.4119 -0.00124 0.0
C362 C 0.35708 0.35331 0.06127 0.0
C363 C 0.36003 0.3385 0.09266 0.0
N364 N 0.35866 0.34808 0.10856 0.0
C365 C 0.35569 0.363 0.07793 0.0
C366 C 0.35928 0.34095 0.06867 0.0
C367 C 0.35654 0.36018 0.10175 0.0
C368 C 0.32122 0.36095 -0.00235 0.0
N369 N 0.33198 0.36684 0.01535 0.0
C370 C 0.31465 0.37204 0.03829 0.0
C371 C 0.3289 0.37227 0.03544 0.0
C372 C 0.30325 0.36593 0.02042 0.0
C373 C 0.30669 0.36033 -0.00015 0.0
H374 H 0.32384 0.35658 0.9819 0.0
H375 H 0.33749 0.37673 0.04938 0.0
C376 C 0.4006 0.40279 0.04925 0.0
N377 N 0.39182 0.38717 0.05424 0.0
C378 C 0.41257 0.413 0.06436 0.0
C379 C 0.4065 0.3909 0.08955 0.0
C380 C 0.39478 0.38106 0.0737 0.0
C381 C 0.41559 0.40717 0.08504 0.0
H382 H 0.39849 0.4073 0.03319 0.0
H383 H 0.38828 0.36854 0.07685 0.0
C384 C 0.35225 0.35413 0.96078 0.0
N385 N 0.35022 0.35093 0.91258 0.0
C386 C 0.35385 0.34222 0.94997 0.0
C387 C 0.34947 0.36432 0.94712 0.0
C388 C 0.35282 0.34081 0.92557 0.0
C389 C 0.34854 0.36254 0.92276 0.0
C390 C 0.40019 0.37127 0.01534 0.0
C391 C 0.4131 0.38577 0.00898 0.0
C392 C 0.40212 0.36173 0.03163 0.0
C393 C 0.42777 0.39057 0.01923 0.0
C394 C 0.41699 0.36694 0.04145 0.0
N395 N 0.42939 0.38114 0.03512 0.0
C396 C 0.39318 0.4028 0.96157 0.0
C397 C 0.39073 0.37963 0.94464 0.0
C398 C 0.40413 0.4121 0.94453 0.0
N399 N 0.38681 0.3869 0.96141 0.0
C400 C 0.40148 0.38845 0.92705 0.0
C401 C 0.40861 0.40499 0.92706 0.0
H402 H 0.39029 0.40835 0.97557 0.0
H403 H 0.38591 0.36702 0.94534 0.0
C404 C 0.34631 0.31607 0.01383 0.0
N405 N 0.36037 0.32868 0.00757 0.0
C406 C 0.34378 0.30076 0.01143 0.0
C407 C 0.37024 0.31178 0.99622 0.0
C408 C 0.37225 0.32682 -0.00108 0.0
C409 C 0.35583 0.29845 0.00241 0.0
H410 H 0.33704 0.3179 0.02058 0.0
H411 H 0.38322 0.33704 0.99372 0.0
O412 O 0.37134 0.38821 0.01109 0.0
O413 O 0.35603 0.3557 0.03787 0.0
O414 O 0.35336 0.35578 0.98463 0.0
O415 O 0.38564 0.3666 0.00606 0.0
H416 H 0.37013 0.40098 0.05142 0.0
H417 H 0.35905 0.39757 0.97782 0.0
H418 H 0.35891 0.41854 0.05646 0.0
H419 H 0.34786 0.41504 0.98421 0.0
H420 H 0.36175 0.329 0.09862 0.0
H421 H 0.35426 0.37277 0.07257 0.0
H422 H 0.36047 0.33339 0.05607 0.0
H423 H 0.35557 0.36764 0.11482 0.0
H424 H 0.31241 0.37621 0.05462 0.0
H425 H 0.29826 0.35555 0.98561 0.0
H426 H 0.41951 0.42532 0.05963 0.0
H427 H 0.4083 0.38579 0.10522 0.0
H428 H 0.35594 0.3342 0.96029 0.0
H429 H 0.34814 0.37355 0.95523 0.0
H430 H 0.3541 0.33169 0.91695 0.0
H431 H 0.34648 0.37039 0.91196 0.0
H432 H 0.41175 0.39332 0.99648 0.0
H433 H 0.39219 0.35054 0.03688 0.0
H434 H 0.43785 0.40181 0.0146 0.0
H435 H 0.41865 0.35974 0.0542 0.0
H436 H 0.40949 0.42478 0.94567 0.0
H437 H 0.40434 0.38236 0.91384 0.0
H438 H 0.33252 0.29087 0.01658 0.0
H439 H 0.37974 0.31061 0.98871 0.0
Li440 Li 0.64557 0.98893 0.00821 0.0
Li441 Li 0.6358 1.00321 0.031 0.0
Li442 Li 0.63567 0.00417 0.98773 0.0
Li443 Li 0.66078 0.01788 0.00948 0.0
C444 C 0.61361 0.97232 0.02056 0.0
N445 N 0.59284 0.94564 0.0452 0.0
C446 C 0.61869 0.96783 0.04051 0.0
C447 C 0.59797 0.96326 0.01317 0.0
C448 C 0.60801 0.95431 0.05272 0.0
C449 C 0.58764 0.9498 0.02586 0.0
C450 C 0.66156 0.00787 0.05783 0.0
C451 C 0.67207 0.02831 0.08719 0.0
N452 N 0.67304 0.01819 0.10248 0.0
C453 C 0.6627 0.99767 0.07378 0.0
C454 C 0.66631 0.02331 0.06453 0.0
C455 C 0.66852 1.00311 0.0963 0.0
C456 C 0.66017 0.97123 0.01804 0.0
N457 N 0.64725 0.97035 0.00774 0.0
C458 C 0.63634 0.94275 0.00076 0.0
C459 C 0.63553 0.95654 -0.00118 0.0
C460 C 0.64936 0.9432 0.01187 0.0
C461 C 0.66149 0.95776 0.02026 0.0
H462 H 0.66926 0.98234 0.0251 0.0
H463 H 0.62536 0.95613 0.99073 0.0
C464 C 0.61173 0.00612 0.05058 0.0
N465 N 0.62292 1.00242 0.05647 0.0
C466 C 0.60021 0.00418 0.06673 0.0
C467 C 0.61204 0.99482 0.09493 0.0
C468 C 0.62335 0.99693 0.07818 0.0
C469 C 0.60013 0.99827 0.08919 0.0
H470 H 0.61148 0.01012 0.03299 0.0
H471 H 0.63211 0.99371 0.08231 0.0
C472 C 0.65411 0.99546 0.96137 0.0
N473 N 0.65119 0.97828 0.92139 0.0
C474 C 0.66731 0.99935 0.9475 0.0
C475 C 0.63942 0.98283 0.95491 0.0
C476 C 0.66559 0.99052 0.92735 0.0
C477 C 0.63819 0.97429 0.93464 0.0
C478 C 0.64484 0.03624 0.01133 0.0
C479 C 0.64558 0.0442 0.99062 0.0
C480 C 0.64586 0.04341 0.03296 0.0
C481 C 0.64771 0.05937 0.99188 0.0
C482 C 0.64798 0.05858 0.03349 0.0
N483 N 0.64887 0.06619 0.01312 0.0
C484 C 0.60873 1.00197 0.96866 0.0
C485 C 0.62974 0.01133 0.94133 0.0
C486 C 0.59918 1.00381 0.95232 0.0
N487 N 0.62368 0.00576 0.96295 0.0
C488 C 0.62057 0.01332 0.92439 0.0
C489 C 0.60509 0.00964 0.92985 0.0
H490 H 0.60436 0.99782 0.98616 0.0
H491 H 0.64175 0.01444 0.93739 0.0
C492 C 0.69355 0.03604 0.02089 0.0
N493 N 0.6816 0.03599 0.00866 0.0
C494 C 0.70895 0.04877 0.01907 0.0
C495 C 0.6995 0.06117 0.99213 0.0
C496 C 0.68432 0.04819 0.99437 0.0
C497 C 0.71211 0.06155 0.00441 0.0
H498 H 0.69119 0.02605 0.03172 0.0
H499 H 0.6748 0.04764 0.98413 0.0
O500 O 0.62379 0.9856 0.0084 0.0
O501 O 0.65571 1.00264 0.03584 0.0
O502 O 0.65568 0.00396 0.98122 0.0
O503 O 0.64254 0.0213 0.01043 0.0
H504 H 0.63074 0.97471 0.04653 0.0
H505 H 0.59386 0.96661 -0.00222 0.0
H506 H 0.61178 0.9507 0.06818 0.0
H507 H 0.5755 0.94267 0.02033 0.0
H508 H 0.6758 0.04025 0.09262 0.0
H509 H 0.65904 0.98566 0.06885 0.0
H510 H 0.66565 0.03138 0.05232 0.0
H511 H 0.66942 0.99534 0.10886 0.0
H512 H 0.62679 0.93182 0.99387 0.0
H513 H 0.67163 0.95864 0.02926 0.0
H514 H 0.59115 0.00676 0.06136 0.0
H515 H 0.61254 0.99039 0.11211 0.0
H516 H 0.67877 0.00909 0.9523 0.0
H517 H 0.62906 0.97963 0.96539 0.0
H518 H 0.67571 0.9934 0.91645 0.0
H519 H 0.62689 0.96449 0.92944 0.0
H520 H 0.64465 0.03877 0.97374 0.0
H521 H 0.64491 0.03727 0.04918 0.0
H522 H 0.64842 0.0657 0.97599 0.0
H523 H 0.64884 0.06429 0.05011 0.0
H524 H 0.58744 1.00106 0.95747 0.0
H525 H 0.62555 0.01768 0.90721 0.0
H526 H 0.7183 0.04854 0.02886 0.0
H527 H 0.70141 0.07054 0.98015 0.0
Li528 Li 0.65933 0.68264 0.33911 0.0
Li529 Li 0.68732 0.69816 0.33871 0.0
Li530 Li 0.67175 0.70737 0.36212 0.0
Li531 Li 0.67204 0.70771 0.31924 0.0
C532 C 0.66467 0.67578 0.38133 0.0
N533 N 0.64597 0.65056 0.41014 0.0
C534 C 0.66268 0.6609 0.37662 0.0
C535 C 0.6572 0.67784 0.40077 0.0
C536 C 0.65315 0.64829 0.39136 0.0
C537 C 0.6478 0.66494 0.41511 0.0
C538 C 0.68301 0.68471 0.29957 0.0
C539 C 0.70401 0.69092 0.27201 0.0
N540 N 0.70369 0.67732 0.2778 0.0
C541 C 0.68291 0.67078 0.30524 0.0
C542 C 0.69366 0.69486 0.28281 0.0
C543 C 0.69344 0.66726 0.29404 0.0
C544 C 0.62912 0.65732 0.35352 0.0
N545 N 0.6411 0.66179 0.33786 0.0
C546 C 0.62708 0.63693 0.31831 0.0
C547 C 0.64019 0.65201 0.32029 0.0
C548 C 0.61458 0.63188 0.33431 0.0
C549 C 0.61568 0.64233 0.35208 0.0
H550 H 0.62996 0.66545 0.36703 0.0
H551 H 0.64946 0.65602 0.30741 0.0
C552 C 0.72054 0.70989 0.33211 0.0
N553 N 0.70672 0.69767 0.34008 0.0
C554 C 0.73461 0.7096 0.33442 0.0
C555 C 0.71995 0.68407 0.35281 0.0
C556 C 0.70624 0.68493 0.35034 0.0
C557 C 0.73443 0.69657 0.34499 0.0
H558 H 0.72072 0.72 0.32431 0.0
H559 H 0.69521 0.67547 0.35684 0.0
C560 C 0.63994 0.6949 0.32842 0.0
N561 N 0.61246 0.68564 0.30348 0.0
C562 C 0.63752 0.68727 0.3068 0.0
C563 C 0.62837 0.69782 0.33731 0.0
C564 C 0.62356 0.68268 0.29448 0.0
C565 C 0.61456 0.69305 0.32445 0.0
C566 C 0.69707 0.73441 0.33163 0.0
C567 C 0.69562 0.74634 0.34275 0.0
C568 C 0.70546 0.73768 0.3106 0.0
C569 C 0.70253 0.76129 0.33258 0.0
C570 C 0.71216 0.75277 0.30096 0.0
N571 N 0.71057 0.76417 0.31206 0.0
C572 C 0.68625 0.72731 0.40015 0.0
C573 C 0.65981 0.72108 0.39421 0.0
C574 C 0.68833 0.73829 0.41741 0.0
N575 N 0.67226 0.71923 0.38869 0.0
C576 C 0.66132 0.73184 0.41154 0.0
C577 C 0.67585 0.74088 0.4231 0.0
H578 H 0.69602 0.72577 0.39505 0.0
H579 H 0.64886 0.71454 0.38471 0.0
C580 C 0.67003 0.71635 0.27148 0.0
N581 N 0.66971 0.71961 0.29458 0.0
C582 C 0.66781 0.72524 0.25433 0.0
C583 C 0.66464 0.7404 0.28505 0.0
C584 C 0.66676 0.73114 0.30156 0.0
C585 C 0.66517 0.73752 0.26107 0.0
H586 H 0.67178 0.70673 0.26637 0.0
H587 H 0.66594 0.73306 0.32005 0.0
O588 O 0.67379 0.68826 0.36695 0.0
O589 O 0.67305 0.68856 0.3108 0.0
O590 O 0.65353 0.69952 0.34087 0.0
O591 O 0.69017 0.71959 0.34113 0.0
H592 H 0.66813 0.65899 0.36147 0.0
H593 H 0.65859 0.68924 0.40472 0.0
H594 H 0.6514 0.63669 0.3878 0.0
H595 H 0.64192 0.66636 0.43018 0.0
H596 H 0.71233 0.69872 0.25907 0.0
H597 H 0.67506 0.66294 0.31855 0.0
H598 H 0.69405 0.70574 0.27829 0.0
H599 H 0.69355 0.65658 0.2984 0.0
H600 H 0.62653 0.62946 0.30392 0.0
H601 H 0.60628 0.63896 0.3647 0.0
H602 H 0.7455 0.71948 0.32812 0.0
H603 H 0.71928 0.67393 0.36148 0.0
H604 H 0.64629 0.68489 0.29953 0.0
H605 H 0.63 0.70371 0.35397 0.0
H606 H 0.62155 0.67677 0.27775 0.0
H607 H 0.60551 0.69524 0.33114 0.0
H608 H 0.68905 0.74407 0.35886 0.0
H609 H 0.70658 0.72861 0.30159 0.0
H610 H 0.70142 0.77059 0.34095 0.0
H611 H 0.71859 0.75541 0.28461 0.0
H612 H 0.69982 0.74509 0.4255 0.0
H613 H 0.65128 0.73319 0.4156 0.0
H614 H 0.66826 0.72261 0.236 0.0
H615 H 0.66228 0.74951 0.29101 0.0
Li616 Li 0.3027 0.96395 0.32114 0.0
Li617 Li 0.30099 0.96212 0.36377 0.0
Li618 Li 0.31154 0.98772 0.34357 0.0
Li619 Li 0.32688 0.97386 0.3448 0.0
C620 C 0.28075 0.97566 0.34502 0.0
N621 N 0.26325 0.99031 0.35196 0.0
C622 C 0.27388 0.97482 0.36685 0.0
C623 C 0.27864 0.98389 0.32669 0.0
C624 C 0.26508 0.9823 0.37 0.0
C625 C 0.26979 0.99125 0.33056 0.0
C626 C 0.30418 0.93767 0.35123 0.0
C627 C 0.30679 0.92073 0.37927 0.0
N628 N 0.29324 0.9083 0.37098 0.0
C629 C 0.29034 0.92472 0.34287 0.0
C630 C 0.31253 0.93568 0.36948 0.0
C631 C 0.28498 0.90996 0.35313 0.0
C632 C 0.29759 0.94281 0.28444 0.0
N633 N 0.29217 0.95186 0.29411 0.0
C634 C 0.26952 0.94016 0.2692 0.0
C635 C 0.27852 0.95087 0.28673 0.0
C636 C 0.27452 0.93024 0.25937 0.0
C637 C 0.28892 0.93188 0.26696 0.0
H638 H 0.30833 0.94363 0.29103 0.0
H639 H 0.27436 0.95801 0.29498 0.0
C640 C 0.29165 0.95223 0.41126 0.0
N641 N 0.28764 0.94914 0.38826 0.0
C642 C 0.28094 0.94299 0.42865 0.0
C643 C 0.26233 0.92748 0.39832 0.0
C644 C 0.27331 0.93711 0.38157 0.0
C645 C 0.26602 0.93047 0.42223 0.0
H646 H 0.30301 0.96204 0.41611 0.0
H647 H 0.2703 0.93521 0.36315 0.0
C648 C 0.32434 0.98388 0.29396 0.0
N649 N 0.32588 0.98136 0.24591 0.0
C650 C 0.33407 0.97873 0.28429 0.0
C651 C 0.31546 0.98783 0.27921 0.0
C652 C 0.33468 0.97752 0.25995 0.0
C653 C 0.31638 0.98644 0.25495 0.0
C654 C 0.33242 0.98952 0.3866 0.0
C655 C 0.3413 0.00597 0.38743 0.0
C656 C 0.33649 0.98059 0.40102 0.0
C657 C 0.35423 0.01322 0.40258 0.0
C658 C 0.34952 0.98828 0.41589 0.0
N659 N 0.35805 0.0043 0.41635 0.0
C660 C 0.30786 0.01118 0.36603 0.0
C661 C 0.31878 0.01849 0.32793 0.0
C662 C 0.30838 0.02557 0.36887 0.0
N663 N 0.3129 0.00787 0.34576 0.0
C664 C 0.31968 0.03315 0.33013 0.0
C665 C 0.31439 0.03682 0.35081 0.0
H666 H 0.3035 1.00264 0.38009 0.0
H667 H 0.32284 0.01563 0.31207 0.0
C668 C 0.34898 0.96377 0.33759 0.0
N669 N 0.34754 0.97616 0.34509 0.0
C670 C 0.36387 0.96532 0.3349 0.0
C671 C 0.37557 0.99216 0.34862 0.0
C672 C 0.36047 0.99018 0.35055 0.0
C673 C 0.37753 0.97975 0.34015 0.0
H674 H 0.33855 0.95285 0.33277 0.0
H675 H 0.35914 1.00003 0.35578 0.0
O676 O 0.28969 0.96869 0.3417 0.0
O677 O 0.30948 0.95226 0.34168 0.0
O678 O 0.32324 0.98472 0.31775 0.0
O679 O 0.31975 0.98222 0.37187 0.0
H680 H 0.27547 0.96861 0.3813 0.0
H681 H 0.28398 0.98479 0.30975 0.0
H682 H 0.25976 0.98181 0.38683 0.0
H683 H 0.26816 0.99775 0.31658 0.0
H684 H 0.31311 0.91902 0.39347 0.0
H685 H 0.2837 0.92607 0.32881 0.0
H686 H 0.32333 0.94557 0.376 0.0
H687 H 0.27423 0.89985 0.34695 0.0
H688 H 0.25864 0.93951 0.26366 0.0
H689 H 0.29317 0.92438 0.26018 0.0
H690 H 0.28426 0.94564 0.44692 0.0
H691 H 0.25088 0.91814 0.39263 0.0
H692 H 0.34099 0.97559 0.29546 0.0
H693 H 0.30779 0.99174 0.28642 0.0
H694 H 0.34211 0.9735 0.25222 0.0
H695 H 0.3095 0.98937 0.24333 0.0
H696 H 0.33834 0.01306 0.37637 0.0
H697 H 0.3297 0.96787 0.40067 0.0
H698 H 0.36126 0.02593 0.40333 0.0
H699 H 0.35285 0.98152 0.42707 0.0
H700 H 0.30447 0.02801 0.38528 0.0
H701 H 0.32439 0.04147 0.31578 0.0
H702 H 0.36462 0.95548 0.32781 0.0
H703 H 0.38559 1.00344 0.3533 0.0
Li704 Li 0.04292 0.33992 0.32291 0.0
Li705 Li 0.04487 0.34371 0.36562 0.0
Li706 Li 0.01902 0.32807 0.34788 0.0
Li707 Li 0.03267 0.35581 0.34377 0.0
C708 C 0.03356 0.3111 0.36095 0.0
N709 N 0.02655 0.28516 0.38831 0.0
C710 C 0.02739 0.30976 0.38348 0.0
C711 C 0.03613 0.29925 0.35232 0.0
C712 C 0.02394 0.29656 0.39704 0.0
C713 C 0.03252 0.28622 0.36642 0.0
C714 C 0.06965 0.36977 0.34795 0.0
C715 C 0.0881 0.38794 0.37627 0.0
N716 N 0.10024 0.38904 0.36326 0.0
C717 C 0.08231 0.37115 0.3348 0.0
C718 C 0.07256 0.37831 0.36879 0.0
C719 C 0.09768 0.38093 0.34285 0.0
C720 C 0.05544 0.34577 0.27661 0.0
N721 N 0.05467 0.3387 0.29743 0.0
C722 C 0.07448 0.33285 0.28508 0.0
C723 C 0.06377 0.33214 0.30185 0.0
C724 C 0.07587 0.3404 0.26354 0.0
C725 C 0.06595 0.34667 0.25927 0.0
H726 H 0.04821 0.35108 0.27374 0.0
H727 H 0.06318 0.32695 0.31882 0.0
C728 C 0.05701 0.34618 0.41286 0.0
N729 N 0.05908 0.34482 0.38959 0.0
C730 C 0.06819 0.34717 0.42909 0.0
C731 C 0.08308 0.34482 0.39715 0.0
C732 C 0.07162 0.34383 0.38162 0.0
C733 C 0.08151 0.34658 0.42127 0.0
H734 H 0.04664 0.34631 0.41887 0.0
H735 H 0.07278 0.34239 0.36306 0.0
C736 C 0.00983 0.32942 0.30535 0.0
N737 N 0.98357 0.3074 0.281 0.0
C738 C 0.99509 0.32792 0.30961 0.0
C739 C 0.01122 0.31977 0.28862 0.0
C740 C 0.98195 0.31669 0.29716 0.0
C741 C 0.9978 0.30871 0.27649 0.0
C742 C 0.02044 0.35332 0.38394 0.0
C743 C 0.0065 0.35266 0.37657 0.0
C744 C 0.02973 0.36423 0.40111 0.0
C745 C 1.00211 0.36291 0.38651 0.0
C746 C 0.02492 0.37426 0.41065 0.0
N747 N 0.01133 0.37341 0.4032 0.0
C748 C 0.98848 0.30945 0.36744 0.0
C749 C 0.99473 0.29623 0.33836 0.0
C750 C 0.97337 0.29645 0.36988 0.0
N751 N 0.99871 0.30928 0.35153 0.0
C752 C 0.97972 0.28286 0.34037 0.0
C753 C 0.96874 0.28295 0.35609 0.0
H754 H 0.99205 0.31967 0.37836 0.0
H755 H 1.00316 0.29626 0.32611 0.0
C756 C 0.0398 0.38765 0.35217 0.0
N757 N 0.03055 0.37419 0.33994 0.0
C758 C 0.03799 0.40083 0.34937 0.0
C759 C 0.01723 0.38609 0.32134 0.0
C760 C 0.01947 0.37324 0.32465 0.0
C761 C 0.02657 0.40016 0.33375 0.0
H762 H 0.04853 0.38818 0.36424 0.0
H763 H 0.0124 0.36251 0.31489 0.0
O764 O 0.03692 0.32384 0.34723 0.0
O765 O 0.0545 0.36002 0.34052 0.0
O766 O 0.0228 0.34013 0.31766 0.0
O767 O 0.02509 0.34357 0.37404 0.0
H768 H 0.02525 0.31876 0.39044 0.0
H769 H 0.04082 0.30008 0.33486 0.0
H770 H 0.01916 0.29536 0.4145 0.0
H771 H 0.03444 0.27695 0.35997 0.0
H772 H 0.09051 0.39448 0.39249 0.0
H773 H 0.08031 0.36473 0.31855 0.0
H774 H 0.06293 0.3772 0.37938 0.0
H775 H 0.10758 0.38207 0.33287 0.0
H776 H 0.08202 0.32807 0.28936 0.0
H777 H 0.06642 0.35241 0.24282 0.0
H778 H 0.06629 0.34812 0.44757 0.0
H779 H 0.09314 0.34439 0.39026 0.0
H780 H 0.99374 0.33516 0.32264 0.0
H781 H 0.02249 0.32067 0.2852 0.0
H782 H 0.97046 0.31532 0.30042 0.0
H783 H 0.9987 0.30112 0.26357 0.0
H784 H 0.99932 0.34457 0.36295 0.0
H785 H 0.04066 0.36514 0.40682 0.0
H786 H 0.99143 0.3626 0.38082 0.0
H787 H 0.03204 0.38279 0.42389 0.0
H788 H 0.96545 0.29688 0.38271 0.0
H789 H 0.97667 0.27267 0.32948 0.0
H790 H 0.04539 0.41138 0.35941 0.0
H791 H 0.0085 0.38511 0.30875 0.0
Li792 Li 0.68928 0.99023 0.34429 0.0
Li793 Li 0.67162 0.96447 0.36118 0.0
Li794 Li 0.67636 0.96747 0.32002 0.0
Li795 Li 0.66088 0.97793 0.33706 0.0
C796 C 0.70297 0.97336 0.36099 0.0
N797 N 0.72555 0.9772 0.39349 0.0
C798 C 0.70413 0.98089 0.38234 0.0
C799 C 0.71328 0.96777 0.3562 0.0
C800 C 0.71563 0.98271 0.39853 0.0
C801 C 0.72462 0.96983 0.37284 0.0
C802 C 0.66199 0.98339 0.38508 0.0
C803 C 0.63668 0.9685 0.40395 0.0
N804 N 0.64098 0.98034 0.41978 0.0
C805 C 0.66615 0.99542 0.40151 0.0
C806 C 0.64713 0.96981 0.38627 0.0
C807 C 0.65537 0.99365 0.41894 0.0
C808 C 0.70706 0.02243 0.35713 0.0
N809 N 0.70825 0.01009 0.34875 0.0
C810 C 0.73636 0.02611 0.34681 0.0
C811 C 0.72252 0.0117 0.34344 0.0
C812 C 0.73554 0.03907 0.35563 0.0
C813 C 0.72061 0.03709 0.36069 0.0
H814 H 0.69557 0.02084 0.36116 0.0
H815 H 0.72319 1.00178 0.33659 0.0
C816 C 0.66763 0.93659 0.37917 0.0
N817 N 0.66833 0.95018 0.38612 0.0
C818 C 0.66577 0.92526 0.39561 0.0
C819 C 0.66569 0.94222 0.42627 0.0
C820 C 0.66756 0.95326 0.40919 0.0
C821 C 0.6648 0.92799 0.41956 0.0
H822 H 0.66875 0.93467 0.36078 0.0
H823 H 0.66868 0.96436 0.41441 0.0
C824 C 0.68924 0.9966 0.29697 0.0
N825 N 0.71148 0.01353 0.26304 0.0
C826 C 0.68755 0.00727 0.28278 0.0
C827 C 0.70224 0.99454 0.29392 0.0
C828 C 0.69892 0.01572 0.26571 0.0
C829 C 0.71336 1.00321 0.27666 0.0
C830 C 0.64701 0.94493 0.31907 0.0
C831 C 0.64299 0.94989 0.29854 0.0
C832 C 0.64269 0.9291 0.32166 0.0
C833 C 0.63479 0.93893 0.28086 0.0
C834 C 0.63451 0.9185 0.30355 0.0
N835 N 0.63078 0.9236 0.28369 0.0
C836 C 0.68158 0.94457 0.3007 0.0
C837 C 0.67672 0.95886 0.27156 0.0
C838 C 0.68272 0.93497 0.28369 0.0
N839 N 0.67857 0.95617 0.29442 0.0
C840 C 0.67786 0.94957 0.25392 0.0
C841 C 0.6808 0.93737 0.25993 0.0
H842 H 0.68291 0.94267 0.31904 0.0
H843 H 0.67411 0.96802 0.26707 0.0
C844 C 0.6466 0.99684 0.33318 0.0
N845 N 0.64361 0.98174 0.33382 0.0
C846 C 0.63421 0.99998 0.33093 0.0
C847 C 0.61591 0.97195 0.33019 0.0
C848 C 0.62862 0.96938 0.33273 0.0
C849 C 0.61856 0.98743 0.32914 0.0
H850 H 0.65863 0.00647 0.33445 0.0
H851 H 0.6265 0.95747 0.3337 0.0
O852 O 0.69179 0.97132 0.34479 0.0
O853 O 0.67241 0.9851 0.36782 0.0
O854 O 0.67822 0.98836 0.31383 0.0
O855 O 0.65545 0.95562 0.33625 0.0
H856 H 0.69629 0.9853 0.38644 0.0
H857 H 0.71251 0.96189 0.33976 0.0
H858 H 0.71666 0.98852 0.41511 0.0
H859 H 0.73268 0.96556 0.36935 0.0
H860 H 0.62514 0.95806 0.40508 0.0
H861 H 0.6776 0.00601 0.40078 0.0
H862 H 0.64368 0.96035 0.37378 0.0
H863 H 0.65844 1.00286 0.43178 0.0
H864 H 0.74757 0.02712 0.34241 0.0
H865 H 0.71941 0.04667 0.3678 0.0
H866 H 0.66509 0.91446 0.38958 0.0
H867 H 0.66535 0.94499 0.44457 0.0
H868 H 0.67756 0.00901 0.28497 0.0
H869 H 0.70376 0.98634 0.3047 0.0
H870 H 0.69777 0.02402 0.25461 0.0
H871 H 0.72347 1.00173 0.27412 0.0
H872 H 0.6464 0.96214 0.29614 0.0
H873 H 0.64561 0.92502 0.33745 0.0
H874 H 0.6317 0.94263 0.26482 0.0
H875 H 0.63115 0.90623 0.30529 0.0
H876 H 0.68514 0.92581 0.28908 0.0
H877 H 0.67609 0.95168 0.23583 0.0
H878 H 0.63691 0.01211 0.33067 0.0
H879 H 0.60416 0.96185 0.32856 0.0
Li880 Li 0.04646 0.71111 0.35991 0.0
Li881 Li 0.01918 0.7004 0.33971 0.0
Li882 Li 0.0352 0.68767 0.33505 0.0
Li883 Li 0.04377 0.71269 0.31777 0.0
C884 C 0.02215 0.67693 0.37572 0.0
N885 N 0.01434 0.64829 0.39571 0.0
C886 C 0.00722 0.66384 0.372 0.0
C887 C 0.03309 0.67552 0.38971 0.0
C888 C 1.0035 0.64944 0.38223 0.0
C889 C 0.02891 0.66092 0.39965 0.0
C890 C 0.04181 0.73698 0.33383 0.0
C891 C 0.03745 0.75382 0.30785 0.0
N892 N 0.05163 0.76623 0.31428 0.0
C893 C 0.05625 0.74993 0.34039 0.0
C894 C 0.03226 0.73896 0.31761 0.0
C895 C 0.06104 0.76461 0.33023 0.0
C896 C 0.07505 0.73201 0.38059 0.0
N897 N 0.05967 0.72186 0.38573 0.0
C898 C 0.06447 0.72823 0.42645 0.0
C899 C 0.05422 0.71974 0.4081 0.0
C900 C 0.08041 0.73904 0.42159 0.0
C901 C 0.08566 0.74082 0.3983 0.0
H902 H 0.07904 0.73338 0.3626 0.0
H903 H 0.04191 0.71155 0.41164 0.0
C904 C 0.98594 0.68358 0.33501 0.0
N905 N 0.99844 0.69724 0.34283 0.0
C906 C 0.97061 0.681 0.33718 0.0
C907 C 0.98134 0.70665 0.35525 0.0
C908 C 0.99645 0.70873 0.35272 0.0
C909 C 0.96812 0.6926 0.34752 0.0
H910 H 0.98789 0.6747 0.32705 0.0
H911 H 0.00661 0.71947 0.35881 0.0
C912 C 0.06677 0.703 0.32208 0.0
N913 N 0.08685 0.69695 0.29589 0.0
C914 C 0.06314 0.6981 0.29879 0.0
C915 C 0.08064 0.70489 0.33206 0.0
C916 C 0.07343 0.69509 0.28582 0.0
C917 C 0.09063 0.70175 0.31853 0.0
C918 C 0.01803 0.69112 0.28885 0.0
C919 C 0.0209 0.68263 0.27178 0.0
C920 C 0.00861 0.69765 0.28335 0.0
C921 C 0.01461 0.68116 0.24931 0.0
C922 C 1.00252 0.6959 0.26069 0.0
N923 N 1.00565 0.68778 0.24427 0.0
C924 C 0.02046 0.65601 0.32058 0.0
C925 C 0.04477 0.66463 0.34017 0.0
C926 C 0.01846 0.64099 0.31767 0.0
N927 N 0.03348 0.66747 0.33159 0.0
C928 C 0.04329 0.64977 0.33751 0.0
C929 C 0.02999 0.6377 0.32611 0.0
H930 H 0.01162 0.65857 0.31409 0.0
H931 H 0.05488 0.67387 0.34922 0.0
C932 C 0.07085 0.73742 0.29912 0.0
N933 N 0.05568 0.72706 0.29301 0.0
C934 C 0.08102 0.74886 0.28335 0.0
C935 C 0.05989 0.73876 0.25497 0.0
C936 C 0.05005 0.72757 0.27143 0.0
C937 C 0.07565 0.74961 0.26081 0.0
H938 H 0.07501 0.73688 0.31647 0.0
H939 H 0.03798 0.71937 0.26686 0.0
O940 O 0.02621 0.69098 0.36522 0.0
O941 O 0.03712 0.72243 0.34309 0.0
O942 O 0.05683 0.70591 0.3352 0.0
O943 O 0.0239 0.69247 0.31105 0.0
H944 H 0.99867 0.66474 0.3611 0.0
H945 H 0.04474 0.68554 0.39259 0.0
H946 H 0.99203 0.63917 0.37938 0.0
H947 H 0.03728 0.65962 0.41041 0.0
H948 H 0.03022 0.75549 0.29515 0.0
H949 H 0.06377 0.74864 0.35299 0.0
H950 H 0.02098 0.72912 0.31254 0.0
H951 H 0.07225 0.77471 0.335 0.0
H952 H 0.05992 0.72661 0.44415 0.0
H953 H 0.09786 0.74887 0.39383 0.0
H954 H 0.96083 0.67008 0.33072 0.0
H955 H 0.98002 0.71581 0.36369 0.0
H956 H 0.05255 0.69673 0.29079 0.0
H957 H 0.0836 0.70867 0.3501 0.0
H958 H 0.07076 0.69129 0.26776 0.0
H959 H 0.10138 0.70312 0.32603 0.0
H960 H 0.02782 0.67714 0.27585 0.0
H961 H 0.00603 0.70403 0.29637 0.0
H962 H 0.01681 0.67469 0.23591 0.0
H963 H 0.99529 0.70098 0.25617 0.0
H964 H 0.00812 0.63212 0.30851 0.0
H965 H 0.05237 0.64771 0.3445 0.0
H966 H 0.09294 0.75711 0.2889 0.0
H967 H 0.05524 0.73873 0.23773 0.0
Li968 Li 0.30273 0.3338 0.35406 0.0
Li969 Li 0.31325 0.31907 0.33492 0.0
Li970 Li 0.3258 0.3484 0.33058 0.0
Li971 Li 0.29993 0.33119 0.31294 0.0
C972 C 0.3282 0.34017 0.38138 0.0
N973 N 0.33697 0.34905 0.42736 0.0
C974 C 0.32997 0.33006 0.39672 0.0
C975 C 0.33095 0.35481 0.38933 0.0
C976 C 0.33441 0.33477 0.41994 0.0
C977 C 0.33535 0.35907 0.41267 0.0
C978 C 0.27985 0.30442 0.35197 0.0
C979 C 0.25326 0.29217 0.36684 0.0
N980 N 0.25757 0.28635 0.38525 0.0
C981 C 0.284 0.29828 0.37102 0.0
C982 C 0.26434 0.30129 0.34979 0.0
C983 C 0.27257 0.28916 0.38765 0.0
C984 C 0.28048 0.33922 0.37513 0.0
N985 N 0.29092 0.33439 0.38046 0.0
C986 C 0.28048 0.32752 0.41929 0.0
C987 C 0.29124 0.32879 0.40215 0.0
C988 C 0.26926 0.33201 0.41404 0.0
C989 C 0.26953 0.33816 0.39171 0.0
H990 H 0.28024 0.3433 0.35761 0.0
H991 H 0.29932 0.32463 0.4059 0.0
C992 C 0.33268 0.3055 0.33852 0.0
N993 N 0.31747 0.30205 0.33655 0.0
C994 C 0.33622 0.29343 0.34108 0.0
C995 C 0.30837 0.27447 0.33915 0.0
C996 C 0.3054 0.28689 0.33627 0.0
C997 C 0.32396 0.27761 0.34194 0.0
H998 H 0.34207 0.31768 0.33842 0.0
H999 H 0.29341 0.28443 0.33435 0.0
C1000 C 0.3092 0.36265 0.31683 0.0
N1001 N 0.31399 0.38696 0.28723 0.0
C1002 C 0.31637 0.36432 0.295 0.0
C1003 C 0.30446 0.37334 0.32357 0.0
C1004 C 0.31868 0.37669 0.2803 0.0
C1005 C 0.30698 0.38556 0.30837 0.0
C1006 C 0.3192 0.32292 0.28665 0.0
C1007 C 0.33095 0.32854 0.2695 0.0
C1008 C 0.30618 0.30774 0.28462 0.0
C1009 C 0.32947 0.31886 0.25055 0.0
C1010 C 0.30514 0.29841 0.26543 0.0
N1011 N 0.31671 0.30412 0.24893 0.0
C1012 C 0.34786 0.38136 0.33526 0.0
C1013 C 0.3576 0.36632 0.31676 0.0
C1014 C 0.36242 0.39516 0.33247 0.0
N1015 N 0.34572 0.36733 0.32732 0.0
C1016 C 0.37235 0.3798 0.31367 0.0
C1017 C 0.37493 0.39451 0.32152 0.0
H1018 H 0.33825 0.38185 0.34371 0.0
H1019 H 0.35557 0.35501 0.3106 0.0
C1020 C 0.27263 0.32919 0.29652 0.0
N1021 N 0.28561 0.32903 0.28859 0.0
C1022 C 0.26111 0.32795 0.28089 0.0
C1023 C 0.27669 0.32676 0.24898 0.0
C1024 C 0.28794 0.32801 0.2653 0.0
C1025 C 0.26303 0.32671 0.25673 0.0
H1026 H 0.2713 0.33043 0.31508 0.0
H1027 H 0.29857 0.32841 0.25928 0.0
O1028 O 0.3238 0.33572 0.35867 0.0
O1029 O 0.291 0.3137 0.33584 0.0
O1030 O 0.30675 0.35066 0.33166 0.0
O1031 O 0.32059 0.33228 0.30533 0.0
H1032 H 0.32788 0.31869 0.39077 0.0
H1033 H 0.32951 0.36269 0.37766 0.0
H1034 H 0.33579 0.32706 0.43206 0.0
H1035 H 0.33744 0.37034 0.41912 0.0
H1036 H 0.24123 0.28972 0.36543 0.0
H1037 H 0.29602 0.30081 0.37323 0.0
H1038 H 0.26087 0.30586 0.33514 0.0
H1039 H 0.27566 0.28444 0.40256 0.0
H1040 H 0.2808 0.32285 0.43635 0.0
H1041 H 0.26097 0.34154 0.38674 0.0
H1042 H 0.34844 0.29652 0.34259 0.0
H1043 H 0.29845 0.26257 0.33998 0.0
H1044 H 0.32013 0.35621 0.28939 0.0
H1045 H 0.2989 0.37222 0.34042 0.0
H1046 H 0.32422 0.37812 0.26337 0.0
H1047 H 0.30338 0.39392 0.31338 0.0
H1048 H 0.3411 0.34028 0.27082 0.0
H1049 H 0.29691 0.3032 0.29762 0.0
H1050 H 0.33848 0.32306 0.23714 0.0
H1051 H 0.29512 0.28665 0.26363 0.0
H1052 H 0.36389 0.40618 0.339 0.0
H1053 H 0.38154 0.37874 0.3048 0.0
H1054 H 0.25078 0.32788 0.28772 0.0
H1055 H 0.27884 0.32618 0.23049 0.0
Li1056 Li 0.323 0.01669 0.676 0.0
Li1057 Li 0.35182 0.03096 0.67937 0.0
Li1058 Li 0.33592 0.04119 0.69752 0.0
Li1059 Li 0.33931 0.04166 0.65512 0.0
C1060 C 0.32883 0.00706 0.71503 0.0
N1061 N 0.31324 0.97682 0.73287 0.0
C1062 C 0.33442 0.99674 0.7104 0.0
C1063 C 0.31535 1.00205 0.72879 0.0
C1064 C 0.32636 0.98149 0.71958 0.0
C1065 C 0.30762 0.9867 0.73762 0.0
C1066 C 0.33858 0.02077 0.6272 0.0
C1067 C 0.35153 0.0296 0.58979 0.0
N1068 N 0.33742 0.0209 0.5788 0.0
C1069 C 0.32419 0.01194 0.61555 0.0
C1070 C 0.35237 0.02968 0.61425 0.0
C1071 C 0.32386 0.01214 0.59107 0.0
C1072 C 0.29045 0.99307 0.68138 0.0
N1073 N 0.30482 0.99589 0.67404 0.0
C1074 C 0.29383 0.96891 0.66254 0.0
C1075 C 0.30674 0.98414 0.66497 0.0
C1076 C 0.27874 0.96564 0.66972 0.0
C1077 C 0.27726 0.97799 0.67957 0.0
H1078 H 0.28916 1.00254 0.68852 0.0
H1079 H 0.3183 0.98667 0.65924 0.0
C1080 C 0.37722 0.03284 0.70502 0.0
N1081 N 0.37014 0.029 0.68364 0.0
C1082 C 0.39117 0.03263 0.7089 0.0
C1083 C 0.38996 0.02379 0.66899 0.0
C1084 C 0.37609 0.02436 0.66579 0.0
C1085 C 0.39778 0.02815 0.69071 0.0
H1086 H 0.37211 0.03627 0.719 0.0
H1087 H 0.37014 0.02119 0.64904 0.0
C1088 C 0.3112 0.04155 0.68066 0.0
N1089 N 0.29561 0.05635 0.69798 0.0
C1090 C 0.31287 0.05504 0.66967 0.0
C1091 C 0.3016 0.03561 0.70049 0.0
C1092 C 0.30487 0.06233 0.67866 0.0
C1093 C 0.29384 0.04326 0.70899 0.0
C1094 C 0.37105 0.06135 0.68504 0.0
C1095 C 0.37541 0.06708 0.70789 0.0
C1096 C 0.3827 0.06387 0.66867 0.0
C1097 C 0.39136 0.0752 0.714 0.0
C1098 C 0.39853 0.07201 0.67548 0.0
N1099 N 0.40249 0.07746 0.69781 0.0
C1100 C 0.3299 0.04832 0.7442 0.0
C1101 C 0.33847 0.06856 0.71572 0.0
C1102 C 0.32854 0.05801 0.76094 0.0
N1103 N 0.33469 0.05372 0.72207 0.0
C1104 C 0.33717 0.07856 0.73176 0.0
C1105 C 0.33213 0.07336 0.75477 0.0
H1106 H 0.32706 0.0365 0.74881 0.0
H1107 H 0.34226 0.07252 0.69796 0.0
C1108 C 0.32841 0.04969 0.61413 0.0
N1109 N 0.34118 0.05397 0.62809 0.0
C1110 C 0.32903 0.05965 0.59614 0.0
C1111 C 0.35611 0.07792 0.60664 0.0
C1112 C 0.3549 0.06771 0.62458 0.0
C1113 C 0.34296 0.07408 0.59244 0.0
H1114 H 0.31757 0.03881 0.61755 0.0
H1115 H 0.36476 0.07101 0.6362 0.0
O1116 O 0.33625 0.02186 0.70557 0.0
O1117 O 0.3391 0.02101 0.65117 0.0
O1118 O 0.31919 0.0344 0.67238 0.0
O1119 O 0.35546 0.05307 0.67883 0.0
H1120 H 0.34475 1.00039 0.69959 0.0
H1121 H 0.31077 0.00983 0.73232 0.0
H1122 H 0.33051 0.97334 0.71605 0.0
H1123 H 0.29711 0.98261 0.74817 0.0
H1124 H 0.3621 0.0365 0.57954 0.0
H1125 H 0.31337 0.00515 0.62529 0.0
H1126 H 0.36356 0.03676 0.62299 0.0
H1127 H 0.31281 0.00541 0.58182 0.0
H1128 H 0.29563 0.95995 0.65447 0.0
H1129 H 0.266 0.97609 0.68578 0.0
H1130 H 0.39664 0.03577 0.72605 0.0
H1131 H 0.39465 0.02025 0.65453 0.0
H1132 H 0.32041 0.05999 0.65455 0.0
H1133 H 0.30053 0.02549 0.70969 0.0
H1134 H 0.3061 0.0728 0.67036 0.0
H1135 H 0.2865 0.03887 0.72445 0.0
H1136 H 0.36658 0.06513 0.72088 0.0
H1137 H 0.37955 0.05932 0.651 0.0
H1138 H 0.39489 0.07964 0.73164 0.0
H1139 H 0.40765 0.07393 0.66304 0.0
H1140 H 0.32487 0.05357 0.77856 0.0
H1141 H 0.33985 0.09017 0.72603 0.0
H1142 H 0.31867 0.05621 0.58545 0.0
H1143 H 0.367 0.08901 0.60453 0.0
Li1144 Li 0.99705 0.30781 0.67819 0.0
Li1145 Li 0.98265 0.32231 0.68141 0.0
Li1146 Li 0.97411 0.2975 0.70288 0.0
Li1147 Li 0.97073 0.29735 0.66061 0.0
C1148 C 0.99428 0.31895 0.73009 0.0
N1149 N 0.99267 0.31966 0.77839 0.0
C1150 C 0.98865 0.32794 0.7409 0.0
C1151 C 0.99914 0.31035 0.7438 0.0
C1152 C 0.98793 0.32815 0.76536 0.0
C1153 C 0.99822 0.31084 0.76821 0.0
C1154 C 0.9972 0.33049 0.63995 0.0
C1155 C 0.99514 0.34984 0.6165 0.0
N1156 N 0.01114 0.35878 0.61602 0.0
C1157 C 0.01362 0.33983 0.63915 0.0
C1158 C 0.98787 0.33548 0.62845 0.0
C1159 C 0.02044 0.3541 0.62697 0.0
C1160 C 0.02024 0.30577 0.65207 0.0
N1161 N 0.01729 0.30982 0.67347 0.0
C1162 C 0.04283 0.31597 0.68715 0.0
C1163 C 0.02823 0.31492 0.69091 0.0
C1164 C 0.0461 0.3116 0.66531 0.0
C1165 C 0.03457 0.30645 0.64764 0.0
H1166 H 0.01141 0.30197 0.63843 0.0
H1167 H 0.02562 0.31817 0.70772 0.0
C1168 C 0.97223 0.34462 0.68636 0.0
N1169 N 0.98508 0.343 0.68308 0.0
C1170 C 0.97392 0.3596 0.68847 0.0
C1171 C 1.00202 0.37102 0.68358 0.0
C1172 C 0.99981 0.35582 0.6819 0.0
C1173 C 0.98899 0.37313 0.68714 0.0
H1174 H 0.96069 0.33427 0.68787 0.0
H1175 H 0.00989 0.35424 0.67985 0.0
C1176 C 0.98589 0.27742 0.67371 0.0
N1177 N 1.00132 0.26133 0.66174 0.0
C1178 C 0.98434 0.27125 0.65113 0.0
C1179 C 0.99527 0.27537 0.69021 0.0
C1180 C 0.99222 0.26314 0.64543 0.0
C1181 C 1.00299 0.26723 0.68381 0.0
C1182 C 0.94613 0.29784 0.6771 0.0
C1183 C 0.93444 0.28326 0.68569 0.0
C1184 C 0.94241 0.30532 0.65945 0.0
C1185 C 0.91923 0.27639 0.67638 0.0
C1186 C 0.92707 0.29805 0.65057 0.0
N1187 N 0.91589 0.28385 0.65914 0.0
C1188 C 0.95401 0.28951 0.7422 0.0
C1189 C 0.96417 0.27244 0.73544 0.0
C1190 C 0.94419 0.27964 0.75992 0.0
N1191 N 0.96353 0.28562 0.73014 0.0
C1192 C 0.95471 0.26235 0.75322 0.0
C1193 C 0.94429 0.26572 0.76535 0.0
H1194 H 0.95358 0.29996 0.73738 0.0
H1195 H 0.97156 0.26942 0.72528 0.0
C1196 C 0.95723 0.29048 0.61443 0.0
N1197 N 0.95685 0.28472 0.63622 0.0
C1198 C 0.94668 0.28074 0.59721 0.0
C1199 C 0.93567 0.25937 0.62519 0.0
C1200 C 0.94643 0.26949 0.64181 0.0
C1201 C 0.93569 0.26493 0.6025 0.0
H1202 H 0.96574 0.3026 0.61039 0.0
H1203 H 0.94647 0.26523 0.65929 0.0
O1204 O 0.99466 0.31825 0.70618 0.0
O1205 O 0.99029 0.31655 0.65198 0.0
O1206 O 0.97852 0.28567 0.67951 0.0
O1207 O 0.9612 0.30457 0.68555 0.0
H1208 H 0.98475 0.33458 0.73054 0.0
H1209 H 1.00337 0.3032 0.73568 0.0
H1210 H 0.98354 0.33501 0.77398 0.0
H1211 H 1.00185 0.30418 0.77904 0.0
H1212 H 0.98807 0.3539 0.60766 0.0
H1213 H 0.02102 0.3362 0.64802 0.0
H1214 H 0.97516 0.32843 0.62897 0.0
H1215 H 0.03313 0.36149 0.62629 0.0
H1216 H 0.05141 0.32 0.70123 0.0
H1217 H 0.03671 0.30327 0.63041 0.0
H1218 H 0.96353 0.3605 0.6918 0.0
H1219 H 0.01386 0.38098 0.68218 0.0
H1220 H 0.97731 0.27287 0.63802 0.0
H1221 H 0.99685 0.28031 0.70763 0.0
H1222 H 0.99118 0.25836 0.628 0.0
H1223 H 0.01039 0.26567 0.69635 0.0
H1224 H 0.93714 0.27719 0.69912 0.0
H1225 H 0.95132 0.31655 0.65251 0.0
H1226 H 0.9101 0.26507 0.68276 0.0
H1227 H 0.92405 0.30367 0.63682 0.0
H1228 H 0.93642 0.28273 0.76902 0.0
H1229 H 0.95502 0.25165 0.75671 0.0
H1230 H 0.9473 0.28548 0.57985 0.0
H1231 H 0.92732 0.24735 0.63017 0.0
Li1232 Li 0.69984 0.68508 0.67355 0.0
Li1233 Li 0.68703 0.65632 0.67752 0.0
Li1234 Li 0.71368 0.67409 0.69655 0.0
Li1235 Li 0.71095 0.66938 0.6542 0.0
C1236 C 0.68879 0.67912 0.72076 0.0
N1237 N 0.68069 0.69279 0.75649 0.0
C1238 C 0.67295 0.67322 0.72659 0.0
C1239 C 0.7005 0.69177 0.73347 0.0
C1240 C 0.66909 0.68035 0.7446 0.0
C1241 C 0.69618 0.69858 0.75137 0.0
C1242 C 0.67629 0.66119 0.63719 0.0
C1243 C 0.6571 0.63981 0.61339 0.0
N1244 N 0.64698 0.64538 0.61606 0.0
C1245 C 0.66576 0.66679 0.6395 0.0
C1246 C 0.672 0.64768 0.62384 0.0
C1247 C 0.65098 0.65861 0.62875 0.0
C1248 C 0.70737 0.71507 0.65663 0.0
N1249 N 0.69686 0.70296 0.67023 0.0
C1250 C 0.68299 0.71678 0.67835 0.0
C1251 C 0.68472 0.70353 0.68086 0.0
C1252 C 0.69384 0.72959 0.66472 0.0
C1253 C 0.70614 0.72857 0.65374 0.0
H1254 H 0.71674 0.71425 0.64798 0.0
H1255 H 0.67625 0.69364 0.69108 0.0
C1256 C 0.66643 0.62319 0.68233 0.0
N1257 N 0.66698 0.6373 0.681 0.0
C1258 C 0.65203 0.60924 0.68516 0.0
C1259 C 0.63895 0.62454 0.68538 0.0
C1260 C 0.65359 0.63817 0.68238 0.0
C1261 C 0.63799 0.60976 0.68694 0.0
H1262 H 0.6772 0.62274 0.68145 0.0
H1263 H 0.65428 0.6495 0.6814 0.0
C1264 C 0.73544 0.70368 0.67662 0.0
N1265 N 0.76237 0.73166 0.68794 0.0
C1266 C 0.74998 0.70728 0.66699 0.0
C1267 C 0.73458 0.71449 0.69162 0.0
C1268 C 0.76347 0.72142 0.67305 0.0
C1269 C 0.74832 0.72852 0.69722 0.0
C1270 C 0.71091 0.64389 0.6718 0.0
C1271 C 0.72337 0.64346 0.683 0.0
C1272 C 0.70378 0.6343 0.65226 0.0
C1273 C 0.72868 0.63364 0.67419 0.0
C1274 C 0.70943 0.62466 0.64397 0.0
N1275 N 0.72168 0.62455 0.655 0.0
C1276 C 0.72342 0.67454 0.74429 0.0
C1277 C 0.74294 0.68148 0.715 0.0
C1278 C 0.73424 0.67635 0.76175 0.0
N1279 N 0.72797 0.67721 0.72145 0.0
C1280 C 0.75408 0.68333 0.73179 0.0
C1281 C 0.74979 0.68069 0.75554 0.0
H1282 H 0.71134 0.67075 0.74893 0.0
H1283 H 0.74612 0.68303 0.69666 0.0
C1284 C 0.71754 0.66547 0.60615 0.0
N1285 N 0.72271 0.66783 0.62871 0.0
C1286 C 0.72665 0.66417 0.58835 0.0
C1287 C 0.74608 0.66762 0.61742 0.0
C1288 C 0.73667 0.66894 0.63455 0.0
C1289 C 0.74119 0.66528 0.59389 0.0
H1290 H 0.70639 0.66466 0.60199 0.0
H1291 H 0.74046 0.67074 0.65266 0.0
O1292 O 0.69275 0.67227 0.70312 0.0
O1293 O 0.69073 0.66894 0.64785 0.0
O1294 O 0.72209 0.68985 0.67085 0.0
O1295 O 0.70575 0.65367 0.6799 0.0
H1296 H 0.66372 0.6633 0.71725 0.0
H1297 H 0.71281 0.69615 0.72984 0.0
H1298 H 0.65688 0.67597 0.74914 0.0
H1299 H 0.70514 0.7084 0.76127 0.0
H1300 H 0.65359 0.62928 0.60313 0.0
H1301 H 0.6689 0.67726 0.64968 0.0
H1302 H 0.68006 0.6433 0.62158 0.0
H1303 H 0.64268 0.66275 0.63055 0.0
H1304 H 0.67332 0.71701 0.68711 0.0
H1305 H 0.71458 0.73798 0.64263 0.0
H1306 H 0.65195 0.59817 0.68597 0.0
H1307 H 0.62856 0.62566 0.68708 0.0
H1308 H 0.75089 0.69924 0.65501 0.0
H1309 H 0.7234 0.71224 0.69858 0.0
H1310 H 0.77481 0.72428 0.66585 0.0
H1311 H 0.74779 0.73696 0.70885 0.0
H1312 H 0.72889 0.6506 0.69833 0.0
H1313 H 0.69406 0.6344 0.6435 0.0
H1314 H 0.73837 0.63326 0.68263 0.0
H1315 H 0.70409 0.61728 0.62875 0.0
H1316 H 0.73036 0.67393 0.77982 0.0
H1317 H 0.76592 0.68671 0.72622 0.0
H1318 H 0.72248 0.66256 0.57042 0.0
H1319 H 0.75701 0.66828 0.62266 0.0
Li1320 Li 0.35572 0.32482 0.66911 0.0
Li1321 Li 0.3413 0.30067 0.691 0.0
Li1322 Li 0.3409 0.29996 0.64871 0.0
Li1323 Li 0.3273 0.31107 0.66939 0.0
C1324 C 0.37246 0.31001 0.68219 0.0
N1325 N 0.39904 0.31668 0.70778 0.0
C1326 C 0.37645 0.31952 0.70217 0.0
C1327 C 0.38197 0.30388 0.67525 0.0
C1328 C 0.38994 0.32277 0.71486 0.0
C1329 C 0.39537 0.30739 0.68841 0.0
C1330 C 0.33295 0.31969 0.71609 0.0
C1331 C 0.31112 0.30421 0.74203 0.0
N1332 N 0.31523 0.31728 0.7552 0.0
C1333 C 0.33697 0.33295 0.72991 0.0
C1334 C 0.31993 0.30519 0.72221 0.0
C1335 C 0.32787 0.33149 0.7496 0.0
C1336 C 0.37313 0.35705 0.68007 0.0
N1337 N 0.37424 0.34529 0.66928 0.0
C1338 C 0.40183 0.36249 0.66271 0.0
C1339 C 0.38816 0.34778 0.66032 0.0
C1340 C 0.40119 0.37475 0.67451 0.0
C1341 C 0.38649 0.37191 0.68291 0.0
H1342 H 0.36192 0.35473 0.68706 0.0
H1343 H 0.38878 0.33823 0.65187 0.0
C1344 C 0.33794 0.27361 0.71133 0.0
N1345 N 0.34182 0.28862 0.71673 0.0
C1346 C 0.33921 0.26399 0.72816 0.0
C1347 C 0.3483 0.28541 0.75597 0.0
C1348 C 0.34688 0.29465 0.73854 0.0
C1349 C 0.34457 0.26988 0.75082 0.0
H1350 H 0.33421 0.26925 0.69369 0.0
H1351 H 0.3501 0.30671 0.74229 0.0
C1352 C 0.35033 0.32695 0.62203 0.0
N1353 N 0.36833 0.34081 0.58252 0.0
C1354 C 0.3468 0.33617 0.60735 0.0
C1355 C 0.36299 0.32474 0.61657 0.0
C1356 C 0.35604 0.34309 0.58747 0.0
C1357 C 0.37195 0.33186 0.59654 0.0
C1358 C 0.30948 0.27927 0.65791 0.0
C1359 C 0.30582 0.28463 0.63746 0.0
C1360 C 0.29949 0.26385 0.66554 0.0
C1361 C 0.29218 0.27445 0.62498 0.0
C1362 C 0.28596 0.25403 0.65257 0.0
N1363 N 0.28262 0.25949 0.63273 0.0
C1364 C 0.34299 0.27502 0.6303 0.0
C1365 C 0.33482 0.28706 0.60185 0.0
C1366 C 0.34115 0.26345 0.6143 0.0
N1367 N 0.33976 0.28644 0.6239 0.0
C1368 C 0.33283 0.27571 0.58523 0.0
C1369 C 0.33587 0.26359 0.59143 0.0
H1370 H 0.34664 0.27469 0.6481 0.0
H1371 H 0.33212 0.29615 0.59731 0.0
C1372 C 0.31097 0.32678 0.65728 0.0
N1373 N 0.30933 0.31388 0.66867 0.0
C1374 C 0.29806 0.32901 0.65454 0.0
C1375 C 0.28207 0.30488 0.67595 0.0
C1376 C 0.29529 0.30308 0.67819 0.0
C1377 C 0.28327 0.31788 0.66368 0.0
H1378 H 0.32226 0.33516 0.64984 0.0
H1379 H 0.29424 0.29288 0.68712 0.0
O1380 O 0.35928 0.30657 0.66946 0.0
O1381 O 0.34179 0.32103 0.69673 0.0
O1382 O 0.34134 0.32017 0.64157 0.0
O1383 O 0.3228 0.28894 0.67044 0.0
H1384 H 0.36924 0.32438 0.70786 0.0
H1385 H 0.37902 0.29647 0.65983 0.0
H1386 H 0.39316 0.33011 0.73035 0.0
H1387 H 0.40285 0.30273 0.68323 0.0
H1388 H 0.30101 0.29306 0.74695 0.0
H1389 H 0.34704 0.34426 0.72547 0.0
H1390 H 0.31663 0.29476 0.71187 0.0
H1391 H 0.33085 0.34167 0.76044 0.0
H1392 H 0.41281 0.36414 0.65568 0.0
H1393 H 0.3854 0.38086 0.69244 0.0
H1394 H 0.33645 0.25221 0.72323 0.0
H1395 H 0.3523 0.2904 0.77327 0.0
H1396 H 0.33701 0.33796 0.61128 0.0
H1397 H 0.3659 0.3176 0.62758 0.0
H1398 H 0.35344 0.35026 0.57597 0.0
H1399 H 0.38179 0.33025 0.59213 0.0
H1400 H 0.3134 0.29651 0.63125 0.0
H1401 H 0.30219 0.25952 0.68132 0.0
H1402 H 0.28921 0.27845 0.60913 0.0
H1403 H 0.27812 0.24206 0.65826 0.0
H1404 H 0.3434 0.25423 0.62003 0.0
H1405 H 0.32892 0.27642 0.56774 0.0
H1406 H 0.29957 0.33909 0.64462 0.0
H1407 H 0.271 0.29608 0.68355 0.0
Li1408 Li 0.68359 0.03144 0.67356 0.0
Li1409 Li 0.70758 0.04236 0.69409 0.0
Li1410 Li 0.7079 0.04602 0.65127 0.0
Li1411 Li 0.69977 0.0188 0.67036 0.0
C1412 C 0.69207 0.06197 0.67956 0.0
N1413 N 0.67594 0.07792 0.6872 0.0
C1414 C 0.68577 0.06164 0.70165 0.0
C1415 C 0.69039 0.07059 0.66143 0.0
C1416 C 0.67759 0.06973 0.70514 0.0
C1417 C 0.68213 0.07854 0.66562 0.0
C1418 C 0.68902 0.01684 0.72111 0.0
C1419 C 0.6946 1.00291 0.75099 0.0
N1420 N 0.68885 0.0087 0.76753 0.0
C1421 C 0.68303 0.02253 0.73837 0.0
C1422 C 0.69476 0.00686 0.72742 0.0
C1423 C 0.68311 0.01833 0.76175 0.0
C1424 C 0.65256 0.01629 0.69151 0.0
N1425 N 0.66205 0.02692 0.6752 0.0
C1426 C 0.64124 0.03155 0.66357 0.0
C1427 C 0.65662 0.03434 0.66105 0.0
C1428 C 0.63129 0.02093 0.68069 0.0
C1429 C 0.63709 0.01311 0.69457 0.0
H1430 H 0.65706 0.01043 0.70243 0.0
H1431 H 0.66425 0.04255 0.64794 0.0
C1432 C 0.72588 0.07041 0.71822 0.0
N1433 N 0.71975 0.0546 0.7206 0.0
C1434 C 0.73632 0.08083 0.7349 0.0
C1435 C 0.73387 0.05857 0.75654 0.0
C1436 C 0.72356 0.04857 0.73932 0.0
C1437 C 0.74056 0.07498 0.75435 0.0
H1438 H 0.72311 0.07501 0.70286 0.0
H1439 H 0.71908 0.03607 0.74058 0.0
C1440 C 0.67628 0.01914 0.63119 0.0
N1441 N 0.64858 0.00829 0.60621 0.0
C1442 C 0.66353 0.00409 0.63551 0.0
C1443 C 0.67499 0.02865 0.6141 0.0
C1444 C 0.6496 0.99883 0.62273 0.0
C1445 C 0.66089 0.02294 0.60166 0.0
C1446 C 0.73443 0.04458 0.68182 0.0
C1447 C 0.74618 0.06032 0.67897 0.0
C1448 C 0.73684 0.03495 0.69732 0.0
C1449 C 0.76014 0.0662 0.69185 0.0
C1450 C 0.75098 0.04128 0.70984 0.0
N1451 N 0.76223 0.05664 0.70689 0.0
C1452 C 0.72768 0.07585 0.63278 0.0
C1453 C 0.71933 0.05537 0.60467 0.0
C1454 C 0.73704 0.08709 0.61611 0.0
N1455 N 0.71919 0.06036 0.62685 0.0
C1456 C 0.72843 0.06624 0.58735 0.0
C1457 C 0.73756 0.08232 0.59308 0.0
H1458 H 0.72734 0.07944 0.65061 0.0
H1459 H 0.71256 0.04295 0.60053 0.0
C1460 C 0.68689 0.98558 0.66904 0.0
N1461 N 0.70027 0.99971 0.66612 0.0
C1462 C 0.68697 0.97153 0.66518 0.0
C1463 C 0.71474 0.98684 0.65617 0.0
C1464 C 0.71406 1.00057 0.65986 0.0
C1465 C 0.70103 0.97199 0.65848 0.0
H1466 H 0.67609 0.98522 0.67414 0.0
H1467 H 0.72454 0.01195 0.65758 0.0
O1468 O 0.70001 0.05403 0.67574 0.0
O1469 O 0.68887 0.02066 0.6981 0.0
O1470 O 0.6899 0.02462 0.64381 0.0
O1471 O 0.72047 0.03874 0.66995 0.0
H1472 H 0.68718 0.0552 0.71592 0.0
H1473 H 0.69523 0.07097 0.64423 0.0
H1474 H 0.67256 0.0695 0.72211 0.0
H1475 H 0.68062 0.08516 0.65171 0.0
H1476 H 0.69907 0.99527 0.75614 0.0
H1477 H 0.67834 0.03007 0.73375 0.0
H1478 H 0.69938 1.0023 0.71431 0.0
H1479 H 0.67857 0.0227 0.7753 0.0
H1480 H 0.63721 0.0377 0.65227 0.0
H1481 H 0.62993 0.00496 0.70818 0.0
H1482 H 0.74139 0.09337 0.73212 0.0
H1483 H 0.73667 0.05346 0.7713 0.0
H1484 H 0.66431 0.99664 0.64878 0.0
H1485 H 0.68471 0.04038 0.6107 0.0
H1486 H 0.6396 0.98725 0.62599 0.0
H1487 H 0.65969 0.03019 0.58846 0.0
H1488 H 0.74447 0.06794 0.66714 0.0
H1489 H 0.72779 0.0228 0.69996 0.0
H1490 H 0.76929 0.07839 0.68994 0.0
H1491 H 0.75297 0.03399 0.72201 0.0
H1492 H 0.74379 0.09937 0.62119 0.0
H1493 H 0.72864 0.06206 0.56986 0.0
H1494 H 0.67602 0.96047 0.66685 0.0
H1495 H 0.72594 0.98792 0.6515 0.0
Li1496 Li 0.96548 0.66802 0.69437 0.0
Li1497 Li 0.97658 0.65324 0.67267 0.0
Li1498 Li 0.99105 0.68277 0.67417 0.0
Li1499 Li 0.96704 0.66854 0.65232 0.0
C1500 C 0.99301 0.67571 0.72075 0.0
N1501 N 0.0086 0.6923 0.76053 0.0
C1502 C 1.00248 0.67142 0.73342 0.0
C1503 C 0.99147 0.68843 0.72827 0.0
C1504 C 0.01026 0.67996 0.75351 0.0
C1505 C 0.99945 0.69667 0.74843 0.0
C1506 C 0.94058 0.642 0.66174 0.0
C1507 C 0.92454 0.62684 0.62898 0.0
N1508 N 0.91199 0.6272 0.63843 0.0
C1509 C 0.92748 0.64207 0.67123 0.0
C1510 C 0.93906 0.63418 0.64055 0.0
C1511 C 0.91314 0.63457 0.65916 0.0
C1512 C 0.94402 0.67456 0.71612 0.0
N1513 N 0.95263 0.66738 0.71965 0.0
C1514 C 0.94026 0.65755 0.75673 0.0
C1515 C 0.9511 0.65909 0.73951 0.0
C1516 C 0.93083 0.66448 0.75331 0.0
C1517 C 0.93298 0.67323 0.73274 0.0
H1518 H 0.94531 0.68083 0.69992 0.0
H1519 H 0.95807 0.65344 0.74175 0.0
C1520 C 0.99295 0.63666 0.67958 0.0
N1521 N 0.9787 0.63493 0.67396 0.0
C1522 C 0.99467 0.62342 0.68229 0.0
C1523 C 0.96707 0.60688 0.67286 0.0
C1524 C 0.96588 0.62043 0.67046 0.0
C1525 C 0.98157 0.60822 0.67916 0.0
H1526 H 1.00292 0.64833 0.68248 0.0
H1527 H 0.95465 0.61937 0.66615 0.0
C1528 C 0.97688 0.70033 0.6629 0.0
N1529 N 0.98507 0.72849 0.64089 0.0
C1530 C 0.98434 0.70379 0.64108 0.0
C1531 C 0.97357 0.71118 0.67354 0.0
C1532 C 0.98839 0.71809 0.63022 0.0
C1533 C 0.97781 0.72536 0.66213 0.0
C1534 C 0.98981 0.66562 0.62469 0.0
C1535 C 0.99998 0.678 0.61002 0.0
C1536 C 0.98269 0.65012 0.61646 0.0
C1537 C 1.00252 0.67468 0.58714 0.0
C1538 C 0.98553 0.64729 0.59347 0.0
N1539 N 0.99528 0.65953 0.57939 0.0
C1540 C 0.02349 0.70031 0.66392 0.0
C1541 C 0.01394 0.71498 0.68402 0.0
C1542 C 0.03836 0.71374 0.66162 0.0
N1543 N 0.01159 0.7012 0.67466 0.0
C1544 C 0.02861 0.72874 0.68199 0.0
C1545 C 0.04103 0.72829 0.67038 0.0
H1546 H 0.02129 0.68922 0.65656 0.0
H1547 H 1.00433 0.7154 0.6926 0.0
C1548 C 0.94394 0.67326 0.63351 0.0
N1549 N 0.95518 0.66989 0.62651 0.0
C1550 C 0.93437 0.67499 0.61711 0.0
C1551 C 0.94822 0.66997 0.58634 0.0
C1552 C 0.95744 0.66815 0.60342 0.0
C1553 C 0.93652 0.67345 0.59316 0.0
H1554 H 0.94247 0.6747 0.65197 0.0
H1555 H 0.96637 0.66545 0.59813 0.0
O1556 O 0.98544 0.66755 0.70095 0.0
O1557 O 0.95482 0.6496 0.67306 0.0
O1558 O 0.9729 0.68645 0.67397 0.0
O1559 O 0.9873 0.66864 0.64722 0.0
H1560 H 1.00381 0.66161 0.72777 0.0
H1561 H 0.98425 0.69197 0.71862 0.0
H1562 H 0.01764 0.67678 0.7635 0.0
H1563 H 0.99838 0.70656 0.75444 0.0
H1564 H 0.92325 0.62089 0.61246 0.0
H1565 H 0.92835 0.64788 0.68771 0.0
H1566 H 0.94902 0.63396 0.63292 0.0
H1567 H 0.90294 0.63463 0.66625 0.0
H1568 H 0.93922 0.65092 0.77246 0.0
H1569 H 0.92585 0.67856 0.72909 0.0
H1570 H 0.00602 0.6251 0.68756 0.0
H1571 H 0.95669 0.59547 0.66998 0.0
H1572 H 0.98692 0.69551 0.63261 0.0
H1573 H 0.96787 0.7087 0.6905 0.0
H1574 H 0.99416 0.7209 0.61331 0.0
H1575 H 0.97535 0.73388 0.67018 0.0
H1576 H 1.00591 0.69005 0.61624 0.0
H1577 H 0.97511 0.64037 0.62768 0.0
H1578 H 0.01028 0.68415 0.57557 0.0
H1579 H 0.98002 0.63536 0.58684 0.0
H1580 H 0.04749 0.71285 0.65227 0.0
H1581 H 0.03017 0.73964 0.68923 0.0
H1582 H 0.92562 0.67785 0.6231 0.0
H1583 H 0.95016 0.66858 0.56802 0.0
H1584 H 0.21729 0.33636 0.10912 0.0
H1585 H 0.18905 0.3527 0.07571 0.0
H1586 H 0.17664 0.33138 0.14477 0.0
H1587 H 0.167 0.34731 0.14898 0.0
H1588 H 0.13053 0.35099 0.1135 0.0
H1589 H 0.1625 0.34266 0.07327 0.0
C1590 C 0.20687 0.33758 0.10928 0.0
C1591 C 0.19739 0.33331 0.12928 0.0
C1592 C 0.20378 0.34434 0.08996 0.0
C1593 C 0.19088 0.34686 0.09046 0.0
C1594 C 0.18071 0.34216 0.11017 0.0
C1595 C 0.18417 0.3353 0.12948 0.0
C1596 C 0.16681 0.34472 0.11097 0.0
C1597 C 0.16117 0.34696 0.1327 0.0
C1598 C 0.14808 0.34913 0.13368 0.0
C1599 C 0.14076 0.34947 0.11286 0.0
C1600 C 0.14603 0.34732 0.0912 0.0
C1601 C 0.15891 0.34479 0.09018 0.0
H1602 H 0.66946 0.88321 0.10835 0.0
H1603 H 0.65705 0.84015 0.07269 0.0
H1604 H 0.67494 0.84779 0.14391 0.0
H1605 H 0.65907 0.82175 0.14596 0.0
H1606 H 0.66148 0.78464 0.11013 0.0
H1607 H 0.66858 0.82499 0.07128 0.0
C1608 C 0.66875 0.87181 0.10835 0.0
C1609 C 0.67263 0.86646 0.12861 0.0
C1610 C 0.66341 0.86248 0.08822 0.0
C1611 C 0.66171 0.8474 0.08821 0.0
C1612 C 0.66576 0.84172 0.10833 0.0
C1613 C 0.67134 0.85154 0.12841 0.0
C1614 C 0.66414 0.82565 0.1086 0.0
C1615 C 0.66102 0.81712 0.12987 0.0
C1616 C 0.66006 0.80236 0.13054 0.0
C1617 C 0.66197 0.79594 0.10977 0.0
C1618 C 0.66479 0.80393 0.08849 0.0
C1619 C 0.66592 0.81877 0.08783 0.0
H1620 H 0.22973 0.876 0.10867 0.0
H1621 H 0.18757 0.84628 0.07017 0.0
H1622 H 0.18976 0.84002 0.14514 0.0
H1623 H 0.16468 0.83266 0.14351 0.0
H1624 H 0.12533 0.79452 0.10908 0.0
H1625 H 0.16905 0.82014 0.07207 0.0
C1626 C 0.21777 0.86608 0.10843 0.0
C1627 C 0.21053 0.85864 0.12941 0.0
C1628 C 0.20965 0.86148 0.08716 0.0
C1629 C 0.19386 0.84924 0.08668 0.0
C1630 C 0.18625 0.84126 0.10761 0.0
C1631 C 0.19494 0.84604 0.12886 0.0
C1632 C 0.16924 0.82836 0.10765 0.0
C1633 C 0.1599 0.82544 0.128 0.0
C1634 C 0.14418 0.81316 0.1287 0.0
C1635 C 0.1374 0.80423 0.10852 0.0
C1636 C 0.14621 0.80685 0.08804 0.0
C1637 C 0.16221 0.81868 0.08772 0.0
H1638 H 0.33543 0.12379 0.9052 0.0
H1639 H 0.35159 0.16763 0.94104 0.0
H1640 H 0.33365 0.16133 0.86995 0.0
H1641 H 0.3504 0.18681 0.86783 0.0
H1642 H 0.35222 0.22596 0.90384 0.0
H1643 H 0.34201 0.18461 0.94279 0.0
C1644 C 0.33705 0.13558 0.90546 0.0
C1645 C 0.33411 0.14168 0.88519 0.0
C1646 C 0.34313 0.1448 0.92561 0.0
C1647 C 0.34629 0.16045 0.92562 0.0
C1648 C 0.34282 0.16675 0.90563 0.0
C1649 C 0.33662 0.15707 0.88552 0.0
C1650 C 0.34587 0.18338 0.90539 0.0
C1651 C 0.34928 0.19188 0.88406 0.0
C1652 C 0.35145 0.20715 0.88337 0.0
C1653 C 0.35079 0.21425 0.90423 0.0
C1654 C 0.34762 0.20625 0.92556 0.0
C1655 C 0.34502 0.19081 0.92621 0.0
H1656 H 0.79084 0.12314 0.905 0.0
H1657 H 0.82595 0.16105 0.94606 0.0
H1658 H 0.82629 0.1641 0.87003 0.0
H1659 H 0.85165 0.17805 0.87385 0.0
H1660 H 0.88447 0.21953 0.91089 0.0
H1661 H 0.84118 0.18689 0.9444 0.0
C1662 C 0.80139 0.13467 0.9059 0.0
C1663 C 0.80832 0.14274 0.88521 0.0
C1664 C 0.80741 0.14148 0.92774 0.0
C1665 C 0.82113 0.15637 0.92894 0.0
C1666 C 0.82866 0.16475 0.90816 0.0
C1667 C 0.82156 0.1579 0.88634 0.0
C1668 C 0.84405 0.18018 0.90899 0.0
C1669 C 0.85442 0.1852 0.88947 0.0
C1670 C 0.86886 0.19941 0.89 0.0
C1671 C 0.87333 0.2085 0.91038 0.0
C1672 C 0.86349 0.20388 0.92996 0.0
C1673 C 0.84878 0.18992 0.92924 0.0
H1674 H 0.79182 0.67066 0.90822 0.0
H1675 H 0.81929 0.65365 0.94234 0.0
H1676 H 0.83199 0.67425 0.8729 0.0
H1677 H 0.83984 0.65683 0.86874 0.0
H1678 H 0.87638 0.65271 0.90305 0.0
H1679 H 0.84612 0.66313 0.94407 0.0
C1680 C 0.80204 0.66914 0.90815 0.0
C1681 C 0.81147 0.67301 0.88813 0.0
C1682 C 0.80498 0.66245 0.92775 0.0
C1683 C 0.81755 0.65941 0.92739 0.0
C1684 C 0.82757 0.66357 0.90757 0.0
C1685 C 0.82442 0.67058 0.88815 0.0
C1686 C 0.84097 0.66027 0.90662 0.0
C1687 C 0.84591 0.65727 0.88482 0.0
C1688 C 0.8587 0.65466 0.88347 0.0
C1689 C 0.86631 0.65447 0.90403 0.0
C1690 C 0.86174 0.65736 0.92579 0.0
C1691 C 0.84918 0.6604 0.92717 0.0
H1692 H 0.8928 0.68377 0.44215 0.0
H1693 H 0.85264 0.67732 0.40333 0.0
H1694 H 0.85487 0.68408 0.47877 0.0
H1695 H 0.82903 0.66898 0.47612 0.0
H1696 H 0.794 0.67558 0.44154 0.0
H1697 H 0.837 0.68808 0.40565 0.0
C1698 C 0.88139 0.68307 0.44193 0.0
C1699 C 0.87458 0.68397 0.46294 0.0
C1700 C 0.87365 0.68095 0.42056 0.0
C1701 C 0.85863 0.67945 0.42002 0.0
C1702 C 0.8514 0.68036 0.44104 0.0
C1703 C 0.85971 0.68279 0.46243 0.0
C1704 C 0.83529 0.67871 0.44087 0.0
C1705 C 0.8254 0.67289 0.46084 0.0
C1706 C 0.81059 0.67186 0.46129 0.0
C1707 C 0.80533 0.67611 0.44132 0.0
C1708 C 0.8147 0.68169 0.42127 0.0
C1709 C 0.82971 0.68318 0.42106 0.0
H1710 H 0.3268 0.20907 0.44258 0.0
H1711 H 0.33538 0.17666 0.40401 0.0
H1712 H 0.32546 0.17019 0.47861 0.0
H1713 H 0.34133 0.16036 0.47714 0.0
H1714 H 0.33858 0.12065 0.4417 0.0
H1715 H 0.32447 0.14981 0.40539 0.0
C1716 C 0.32751 0.19838 0.4422 0.0
C1717 C 0.32591 0.19021 0.463 0.0
C1718 C 0.33074 0.19344 0.42101 0.0
C1719 C 0.33232 0.17998 0.42044 0.0
C1720 C 0.33057 0.17132 0.44122 0.0
C1721 C 0.3272 0.1766 0.46242 0.0
C1722 C 0.33282 0.15724 0.44112 0.0
C1723 C 0.33837 0.15324 0.46144 0.0
C1724 C 0.34032 0.14002 0.46177 0.0
C1725 C 0.33735 0.13105 0.44142 0.0
C1726 C 0.33181 0.13462 0.42111 0.0
C1727 C 0.32931 0.14754 0.42099 0.0
H1728 H 0.88962 0.21774 0.44733 0.0
H1729 H 0.8539 0.17975 0.40701 0.0
H1730 H 0.85203 0.17881 0.48313 0.0
H1731 H 0.82659 0.16639 0.47763 0.0
H1732 H 0.79428 0.12296 0.44424 0.0
H1733 H 0.83826 0.15363 0.41075 0.0
C1734 C 0.87874 0.20646 0.44668 0.0
C1735 C 0.8711 0.19925 0.46752 0.0
C1736 C 0.87283 0.19926 0.42504 0.0
C1737 C 0.85863 0.18476 0.42403 0.0
C1738 C 0.85052 0.17718 0.44495 0.0
C1739 C 0.85738 0.18442 0.46668 0.0
C1740 C 0.83482 0.16212 0.44437 0.0
C1741 C 0.824 0.15834 0.46314 0.0
C1742 C 0.80947 0.14421 0.46331 0.0
C1743 C 0.8054 0.134 0.4442 0.0
C1744 C 0.81558 0.13752 0.4252 0.0
C1745 C 0.83035 0.15142 0.42531 0.0
H1746 H 0.02332 0.46858 0.23477 0.0
H1747 H 0.01416 0.50068 0.27299 0.0
H1748 H 0.01892 0.50385 0.1972 0.0
H1749 H 1.00326 0.51334 0.19945 0.0
H1750 H 1.00531 0.55322 0.23319 0.0
H1751 H 0.02186 0.52635 0.27009 0.0
C1752 C 0.02169 0.47874 0.2348 0.0
C1753 C 0.02101 0.48545 0.21358 0.0
C1754 C 0.01949 0.48438 0.2561 0.0
C1755 C 0.01649 0.49696 0.25634 0.0
C1756 C 0.01616 0.50432 0.23511 0.0
C1757 C 0.01867 0.49843 0.21382 0.0
C1758 C 0.01289 0.51777 0.23492 0.0
C1759 C 0.00645 0.52086 0.21472 0.0
C1760 C 1.00398 0.53376 0.21382 0.0
C1761 C 0.00697 0.54309 0.23379 0.0
C1762 C 0.01311 0.54024 0.25412 0.0
C1763 C 0.01642 0.52786 0.25456 0.0
H1764 H 0.46133 0.45762 0.23336 0.0
H1765 H 0.48701 0.50074 0.27178 0.0
H1766 H 0.50098 0.49669 0.20109 0.0
H1767 H 0.50923 0.52187 0.19982 0.0
H1768 H 0.54447 0.56119 0.23844 0.0
H1769 H 0.51309 0.51887 0.27522 0.0
C1770 C 0.47125 0.46955 0.23444 0.0
C1771 C 0.48078 0.47637 0.21481 0.0
C1772 C 0.4736 0.47821 0.25499 0.0
C1773 C 0.48579 0.49402 0.25607 0.0
C1774 C 0.49604 0.50108 0.23672 0.0
C1775 C 0.49337 0.49191 0.21621 0.0
C1776 C 0.50922 0.51796 0.23746 0.0
C1777 C 0.5148 0.52682 0.21647 0.0
C1778 C 0.52761 0.5423 0.21664 0.0
C1779 C 0.53441 0.54932 0.23808 0.0
C1780 C 0.52901 0.54103 0.25911 0.0
C1781 C 0.51664 0.5253 0.25885 0.0
H1782 H 0.45922 1.00337 0.24232 0.0
H1783 H 0.48877 0.98924 0.27742 0.0
H1784 H 0.49757 0.00461 0.20486 0.0
H1785 H 0.50695 0.98852 0.20286 0.0
H1786 H 0.54627 0.9893 0.23667 0.0
H1787 H 0.51534 0.99896 0.2772 0.0
C1788 C 0.46941 1.00178 0.24202 0.0
C1789 C 0.4778 0.00425 0.22119 0.0
C1790 C 0.47345 0.99662 0.26229 0.0
C1791 C 0.48612 0.99372 0.26178 0.0
C1792 C 0.49517 0.99656 0.24107 0.0
C1793 C 0.49081 1.00194 0.22089 0.0
C1794 C 0.50904 0.99394 0.24024 0.0
C1795 C 0.5137 0.99025 0.21872 0.0
C1796 C 0.52714 0.98869 0.21732 0.0
C1797 C 0.5357 0.99022 0.23767 0.0
C1798 C 0.53138 0.9937 0.25919 0.0
C1799 C 0.51814 0.99566 0.26055 0.0
H1800 H 0.5592 0.01761 0.77977 0.0
H1801 H 0.51825 0.009 0.74092 0.0
H1802 H 0.52023 0.01587 0.81627 0.0
H1803 H 0.49457 0.99936 0.81347 0.0
H1804 H 0.45821 0.00402 0.7794 0.0
H1805 H 0.50185 0.01925 0.74359 0.0
C1806 C 0.54756 0.01637 0.77949 0.0
C1807 C 0.54048 0.01683 0.80049 0.0
C1808 C 0.53968 0.01377 0.75812 0.0
C1809 C 0.52436 0.01151 0.75757 0.0
C1810 C 0.51692 0.01208 0.77855 0.0
C1811 C 0.52531 0.01492 0.79993 0.0
C1812 C 0.50045 0.00948 0.77841 0.0
C1813 C 0.4906 1.00302 0.79828 0.0
C1814 C 0.47544 1.00115 0.79885 0.0
C1815 C 0.46978 0.0051 0.77902 0.0
C1816 C 0.47916 0.01137 0.75909 0.0
C1817 C 0.49453 0.01377 0.75881 0.0
H1818 H 0.00596 0.54919 0.77304 0.0
H1819 H 0.98994 0.50504 0.73823 0.0
H1820 H 0.00837 0.51219 0.80908 0.0
H1821 H 0.991 0.48667 0.81183 0.0
H1822 H 0.98952 0.44721 0.7773 0.0
H1823 H 1.00004 0.48819 0.73714 0.0
C1824 C 1.00444 0.53744 0.77311 0.0
C1825 C 0.00767 0.53166 0.79348 0.0
C1826 C 0.99828 0.528 0.75318 0.0
C1827 C 0.99528 0.5124 0.75348 0.0
C1828 C 0.9989 0.50635 0.77362 0.0
C1829 C 1.00522 0.51628 0.79348 0.0
C1830 C 0.99582 0.48971 0.77432 0.0
C1831 C 0.99221 0.48141 0.79586 0.0
C1832 C 0.99001 0.46614 0.79707 0.0
C1833 C 0.99086 0.45888 0.7765 0.0
C1834 C 0.99424 0.46666 0.75498 0.0
C1835 C 0.99685 0.48211 0.75381 0.0
H1836 H 0.55198 0.55037 0.7765 0.0
H1837 H 0.52557 0.50577 0.74223 0.0
H1838 H 0.5112 0.51375 0.81046 0.0
H1839 H 0.50155 0.4887 0.81493 0.0
H1840 H 0.46804 0.44706 0.77891 0.0
H1841 H 0.49991 0.48753 0.73882 0.0
C1842 C 0.54174 0.5386 0.7762 0.0
C1843 C 0.53197 0.53294 0.79583 0.0
C1844 C 0.53929 0.52894 0.75682 0.0
C1845 C 0.52676 0.51328 0.75691 0.0
C1846 C 0.5162 0.50738 0.77617 0.0
C1847 C 0.51898 0.51758 0.79545 0.0
C1848 C 0.5028 0.49057 0.77674 0.0
C1849 C 0.49659 0.48287 0.79844 0.0
C1850 C 0.48396 0.46733 0.79927 0.0
C1851 C 0.47789 0.45905 0.77838 0.0
C1852 C 0.48376 0.46623 0.7567 0.0
C1853 C 0.49595 0.48203 0.7558 0.0
H1854 H 0.68791 0.79797 0.57182 0.0
H1855 H 0.68084 0.83157 0.60983 0.0
H1856 H 0.6857 0.83452 0.53409 0.0
H1857 H 0.66929 0.84388 0.53743 0.0
H1858 H 0.67688 0.88677 0.56884 0.0
H1859 H 0.69183 0.85844 0.60549 0.0
C1860 C 0.68678 0.80844 0.57176 0.0
C1861 C 0.68685 0.81552 0.5505 0.0
C1862 C 0.68485 0.81428 0.59303 0.0
C1863 C 0.68276 0.82745 0.59323 0.0
C1864 C 0.68288 0.83498 0.57194 0.0
C1865 C 0.68508 0.82885 0.55065 0.0
C1866 C 0.68068 0.84908 0.57166 0.0
C1867 C 0.67373 0.85206 0.55198 0.0
C1868 C 0.6724 0.86564 0.5508 0.0
C1869 C 0.67752 0.87605 0.56977 0.0
C1870 C 0.68431 0.8734 0.5895 0.0
C1871 C 0.68599 0.86 0.59048 0.0
H1872 H 0.12243 0.78944 0.57612 0.0
H1873 H 0.15263 0.83239 0.61235 0.0
H1874 H 0.16407 0.8247 0.54186 0.0
H1875 H 0.17487 0.85017 0.53881 0.0
H1876 H 0.21224 0.8891 0.57522 0.0
H1877 H 0.17854 0.84931 0.61464 0.0
C1878 C 0.1332 0.80081 0.5764 0.0
C1879 C 0.14271 0.8062 0.55644 0.0
C1880 C 0.13696 0.81005 0.59659 0.0
C1881 C 0.15035 0.82519 0.59686 0.0
C1882 C 0.16041 0.83096 0.57704 0.0
C1883 C 0.15647 0.82106 0.55707 0.0
C1884 C 0.17473 0.84725 0.57676 0.0
C1885 C 0.18076 0.85528 0.55521 0.0
C1886 C 0.19433 0.87026 0.55453 0.0
C1887 C 0.20168 0.87755 0.57554 0.0
C1888 C 0.19584 0.87018 0.59707 0.0
C1889 C 0.18254 0.85498 0.59778 0.0
H1890 H 0.12908 0.3388 0.56865 0.0
H1891 H 0.15693 0.3219 0.60161 0.0
H1892 H 0.16863 0.34211 0.53179 0.0
H1893 H 0.17831 0.32637 0.52781 0.0
H1894 H 0.21432 0.32179 0.56311 0.0
H1895 H 0.18299 0.33086 0.60354 0.0
C1896 C 0.13931 0.33729 0.56823 0.0
C1897 C 0.14837 0.34094 0.54785 0.0
C1898 C 0.14253 0.33068 0.58762 0.0
C1899 C 0.1551 0.32768 0.58678 0.0
C1900 C 0.16495 0.33188 0.56676 0.0
C1901 C 0.16137 0.33859 0.54737 0.0
C1902 C 0.17863 0.32897 0.56582 0.0
C1903 C 0.18411 0.32659 0.54406 0.0
C1904 C 0.19702 0.32413 0.54298 0.0
C1905 C 0.20424 0.32354 0.56378 0.0
C1906 C 0.19906 0.32572 0.58548 0.0
C1907 C 0.18645 0.32866 0.58657 0.0
H1908 H 0.03543 0.42854 0.11192 0.0
H1909 H 1.00025 0.4765 0.17705 0.0
H1910 H 0.98772 0.41905 0.10248 0.0
H1911 H 0.04206 0.47633 0.20017 0.0
H1912 H 0.99796 0.45931 0.14426 0.0
H1913 H 0.04003 0.44927 0.13988 0.0
C1914 C 0.02587 0.43071 0.11579 0.0
C1915 C 0.0111 0.42186 0.10488 0.0
C1916 C 0.00774 0.46319 0.15635 0.0
C1917 C 0.01648 0.44595 0.1365 0.0
C1918 C 0.00915 0.47314 0.17488 0.0
C1919 C 0.02131 0.47775 0.19136 0.0
C1920 C 0.01864 0.45793 0.15424 0.0
C1921 C 0.03243 0.47291 0.18793 0.0
C1922 C 0.02858 0.44267 0.13161 0.0
C1923 C 0.99934 0.4256 0.1102 0.0
N1924 N 0.03077 0.46318 0.16983 0.0
N1925 N 1.00228 0.43733 0.12564 0.0
H1926 H 0.58236 0.5733 0.08878 0.0
H1927 H 0.53768 0.5732 0.20634 0.0
H1928 H 0.59038 0.61537 0.12496 0.0
H1929 H 0.5347 0.53124 0.17701 0.0
H1930 H 0.5541 0.58838 0.17329 0.0
H1931 H 0.56263 0.55738 0.11823 0.0
C1932 C 0.58007 0.57921 0.10296 0.0
C1933 C 0.58817 0.59575 0.10439 0.0
C1934 C 0.54974 0.57582 0.17393 0.0
C1935 C 0.5653 0.57754 0.13794 0.0
C1936 C 0.54033 0.56715 0.19277 0.0
C1937 C 0.53495 0.55095 0.19458 0.0
C1938 C 0.55386 0.5683 0.1567 0.0
C1939 C 0.53855 0.54368 0.17629 0.0
C1940 C 0.56868 0.5701 0.11966 0.0
C1941 C 0.58436 0.6027 0.12291 0.0
N1942 N 0.54792 0.55243 0.15824 0.0
N1943 N 0.57326 0.59357 0.13894 0.0
H1944 H 0.42596 0.99151 0.09343 0.0
H1945 H 0.46949 0.02682 0.21561 0.0
H1946 H 0.42487 0.02946 0.13004 0.0
H1947 H 0.4724 0.99021 0.17806 0.0
H1948 H 0.45521 0.02963 0.18256 0.0
H1949 H 0.44441 0.99201 0.12276 0.0
C1950 C 0.42955 0.99991 0.10769 0.0
C1951 C 0.42374 0.01038 0.10936 0.0
C1952 C 0.45913 0.02111 0.18137 0.0
C1953 C 0.44505 0.01116 0.14287 0.0
C1954 C 0.46732 0.01954 0.20021 0.0
C1955 C 0.47201 0.00818 0.19961 0.0
C1956 C 0.45547 0.01115 0.16182 0.0
C1957 C 0.46903 0.99914 0.17918 0.0
C1958 C 0.4402 1.00029 0.12432 0.0
C1959 C 0.42909 0.02124 0.12794 0.0
N1960 N 0.46075 1.00067 0.16121 0.0
N1961 N 0.43935 0.02127 0.14402 0.0
H1962 H 0.39691 0.97775 0.88973 0.0
H1963 H 0.48519 0.01256 0.84319 0.0
H1964 H 0.43809 0.01311 0.92632 0.0
H1965 H 0.44389 0.98007 0.80395 0.0
H1966 H 0.46836 0.00945 0.8768 0.0
H1967 H 0.41409 0.97542 0.86092 0.0
C1968 C 0.40956 0.98492 0.89183 0.0
C1969 C 0.41605 0.99578 0.91033 0.0
C1970 C 0.46299 1.00282 0.86095 0.0
C1971 C 0.43582 0.99322 0.87734 0.0
C1972 C 0.47262 0.00446 0.84185 0.0
C1973 C 0.46591 0.99669 0.82067 0.0
C1974 C 0.44654 0.99334 0.85884 0.0
C1975 C 0.44952 0.98646 0.81985 0.0
C1976 C 0.41938 0.98362 0.87533 0.0
C1977 C 0.43255 0.00483 0.91206 0.0
N1978 N 0.44038 0.98522 0.83854 0.0
N1979 N 0.44185 1.00341 0.89573 0.0
H1980 H 0.97705 0.39243 0.89083 0.0
H1981 H 0.00722 0.47816 0.83734 0.0
H1982 H 0.01287 0.43517 0.9236 0.0
H1983 H 0.96909 0.43543 0.80808 0.0
H1984 H 0.00781 0.46309 0.87119 0.0
H1985 H 0.97291 0.40825 0.86173 0.0
C1986 C 0.9841 0.40515 0.89183 0.0
C1987 C 0.99542 0.41247 0.90956 0.0
C1988 C 0.99916 0.45705 0.85753 0.0
C1989 C 0.9906 0.43072 0.87643 0.0
C1990 C 0.99872 0.46568 0.83832 0.0
C1991 C 0.98821 0.45799 0.81977 0.0
C1992 C 0.98905 0.44062 0.8581 0.0
C1993 C 0.97756 0.44177 0.82184 0.0
C1994 C 0.98163 0.4142 0.87534 0.0
C1995 C 1.00397 0.42902 0.91029 0.0
N1996 N 0.97838 0.4336 0.84048 0.0
N1997 N 1.00146 0.43758 0.89387 0.0
H1998 H 0.58494 0.57087 0.92072 0.0
H1999 H 0.54088 0.56412 0.80093 0.0
H2000 H 0.5818 0.60979 0.89132 0.0
H2001 H 0.53485 0.52377 0.83981 0.0
H2002 H 0.55459 0.58093 0.83464 0.0
H2003 H 0.56575 0.55337 0.89201 0.0
C2004 C 0.58011 0.57575 0.90844 0.0
C2005 C 0.58511 0.59192 0.90851 0.0
C2006 C 0.55002 0.56836 0.83598 0.0
C2007 C 0.56322 0.57184 0.87512 0.0
C2008 C 0.54216 0.55877 0.81678 0.0
C2009 C 0.53681 0.54256 0.81757 0.0
C2010 C 0.55276 0.56172 0.85598 0.0
C2011 C 0.53872 0.5362 0.83851 0.0
C2012 C 0.56914 0.56571 0.89196 0.0
C2013 C 0.57858 0.5975 0.89172 0.0
N2014 N 0.54677 0.54583 0.85675 0.0
N2015 N 0.56808 0.58751 0.87561 0.0
H2016 H 0.03464 0.61134 0.88451 0.0
H2017 H 0.9955 0.52256 0.83762 0.0
H2018 H 0.99716 0.5712 0.92016 0.0
H2019 H 0.02948 0.56303 0.79842 0.0
H2020 H 0.99906 0.53982 0.87088 0.0
H2021 H 0.03536 0.59355 0.85514 0.0
C2022 C 0.02654 0.5988 0.88617 0.0
C2023 C 0.01575 0.59281 0.90482 0.0
C2024 C 1.00589 0.54491 0.85511 0.0
C2025 C 0.01668 0.57231 0.87137 0.0
C2026 C 1.00399 0.53503 0.83621 0.0
C2027 C 0.0121 0.54139 0.81514 0.0
C2028 C 0.01598 0.56126 0.85293 0.0
C2029 C 0.02282 0.55767 0.81422 0.0
C2030 C 0.02705 0.58863 0.86948 0.0
C2031 C 1.00579 0.57639 0.90627 0.0
N2032 N 0.02433 0.56706 0.83273 0.0
N2033 N 0.00644 0.56675 0.88974 0.0
H2034 H 0.43127 0.3996 0.90795 0.0
H2035 H 0.47258 0.47903 0.83256 0.0
H2036 H 0.41473 0.43297 0.90656 0.0
H2037 H 0.47683 0.43841 0.81617 0.0
H2038 H 0.45537 0.46456 0.86565 0.0
H2039 H 0.45146 0.41569 0.87929 0.0
C2040 C 0.43175 0.41022 0.90155 0.0
C2041 C 0.42107 0.41478 0.90964 0.0
C2042 C 0.46023 0.4589 0.85497 0.0
C2043 C 0.4446 0.43354 0.87726 0.0
C2044 C 0.47017 0.46719 0.83629 0.0
C2045 C 0.47607 0.45986 0.82165 0.0
C2046 C 0.45632 0.44323 0.85914 0.0
C2047 C 0.47243 0.44443 0.82701 0.0
C2048 C 0.44341 0.41948 0.88533 0.0
C2049 C 0.42273 0.42899 0.90112 0.0
N2050 N 0.46274 0.4366 0.84527 0.0
N2051 N 0.43424 0.43784 0.88541 0.0
H2052 H 0.61427 0.034 0.89861 0.0
H2053 H 0.52886 0.99865 0.83987 0.0
H2054 H 0.57332 0.99096 0.92142 0.0
H2055 H 0.57114 0.03789 0.81165 0.0
H2056 H 0.54412 0.99808 0.87355 0.0
H2057 H 0.59795 0.03753 0.86965 0.0
C2058 C 0.60187 0.02524 0.89749 0.0
C2059 C 0.59522 0.01208 0.91239 0.0
C2060 C 0.55002 0.00693 0.86013 0.0
C2061 C 0.57637 0.01622 0.87946 0.0
C2062 C 0.54128 0.00736 0.84104 0.0
C2063 C 0.54879 0.01824 0.82289 0.0
C2064 C 0.56635 0.0175 0.86105 0.0
C2065 C 0.56495 0.02917 0.82515 0.0
C2066 C 0.59252 0.02734 0.88106 0.0
C2067 C 0.57897 1.00135 0.91045 0.0
N2068 N 0.57321 0.02844 0.84375 0.0
N2069 N 0.57013 1.00362 0.89423 0.0
H2070 H 0.58484 0.97343 0.11959 0.0
H2071 H 0.53265 0.00634 0.17766 0.0
H2072 H 0.5862 0.01617 0.09739 0.0
H2073 H 0.53667 0.96771 0.20579 0.0
H2074 H 0.5486 0.00732 0.1439 0.0
H2075 H 0.56428 0.96894 0.14779 0.0
C2076 C 0.58089 0.98192 0.1207 0.0
C2077 C 0.58742 0.9953 0.10622 0.0
C2078 C 0.54579 0.99847 0.15728 0.0
C2079 C 0.56359 0.99004 0.13825 0.0
C2080 C 0.53654 0.9978 0.17639 0.0
C2081 C 0.53346 0.987 0.19457 0.0
C2082 C 0.55194 0.98825 0.15638 0.0
C2083 C 0.53893 0.97631 0.19223 0.0
C2084 C 0.56903 0.97927 0.13668 0.0
C2085 C 0.58148 0.00565 0.10807 0.0
N2086 N 0.54804 0.97731 0.17363 0.0
N2087 N 0.56997 1.00285 0.12387 0.0
H2088 H 0.97738 0.58277 0.11424 0.0
H2089 H 0.01725 0.53645 0.17077 0.0
H2090 H 0.02033 0.58578 0.0889 0.0
H2091 H 0.9822 0.5431 0.20637 0.0
H2092 H 0.01458 0.54981 0.13635 0.0
H2093 H 0.97577 0.56436 0.14451 0.0
C2094 C 0.98649 0.57961 0.11501 0.0
C2095 C 0.99907 0.58597 0.09898 0.0
C2096 C 0.00732 0.54817 0.15158 0.0
C2097 C 0.99706 0.56459 0.13332 0.0
C2098 C 0.00871 0.54038 0.17113 0.0
C2099 C 1.00002 0.53879 0.19151 0.0
C2100 C 0.99714 0.55435 0.15239 0.0
C2101 C 0.98926 0.54427 0.19109 0.0
C2102 C 0.98547 0.56899 0.13219 0.0
C2103 C 0.0103 0.58109 0.10059 0.0
N2104 N 0.98822 0.55194 0.17193 0.0
N2105 N 0.00904 0.57075 0.11746 0.0
H2106 H 0.43525 0.40147 0.11291 0.0
H2107 H 0.47661 0.48678 0.17259 0.0
H2108 H 0.4243 0.43784 0.09567 0.0
H2109 H 0.47367 0.44601 0.20617 0.0
H2110 H 0.46321 0.4706 0.13818 0.0
H2111 H 0.45434 0.41917 0.14188 0.0
C2112 C 0.4368 0.41313 0.11514 0.0
C2113 C 0.42795 0.41804 0.10184 0.0
C2114 C 0.46574 0.46526 0.15293 0.0
C2115 C 0.45018 0.4385 0.13454 0.0
C2116 C 0.47354 0.47452 0.17244 0.0
C2117 C 0.47613 0.46767 0.19226 0.0
C2118 C 0.46063 0.44908 0.15322 0.0
C2119 C 0.47174 0.45168 0.19127 0.0
C2120 C 0.44782 0.42326 0.13155 0.0
C2121 C 0.4309 0.4335 0.10518 0.0
N2122 N 0.46407 0.44288 0.17215 0.0
N2123 N 0.44171 0.44313 0.1212 0.0
H2124 H 0.66356 0.76073 0.42228 0.0
H2125 H 0.70759 0.80553 0.54005 0.0
H2126 H 0.6936 0.74946 0.46345 0.0
H2127 H 0.66847 0.80839 0.511 0.0
H2128 H 0.70593 0.78866 0.50742 0.0
H2129 H 0.66781 0.78109 0.45089 0.0
C2130 C 0.67096 0.76243 0.43736 0.0
C2131 C 0.67817 0.75324 0.44042 0.0
C2132 C 0.69779 0.79308 0.50802 0.0
C2133 C 0.6834 0.77687 0.47288 0.0
C2134 C 0.69878 0.80276 0.52658 0.0
C2135 C 0.688 0.80817 0.52839 0.0
C2136 C 0.68595 0.78876 0.49104 0.0
C2137 C 0.67699 0.80446 0.51025 0.0
C2138 C 0.67349 0.77417 0.45356 0.0
C2139 C 0.68794 0.75632 0.46007 0.0
N2140 N 0.67612 0.79481 0.49243 0.0
N2141 N 0.69026 0.76784 0.47549 0.0
H2142 H 0.24651 0.89837 0.42378 0.0
H2143 H 0.20502 0.90105 0.54321 0.0
H2144 H 0.25825 0.94098 0.4616 0.0
H2145 H 0.20029 0.85807 0.51504 0.0
H2146 H 0.22119 0.91542 0.50954 0.0
H2147 H 0.22669 0.88308 0.4537 0.0
C2148 C 0.24487 0.9045 0.43833 0.0
C2149 C 0.25412 0.92096 0.4403 0.0
C2150 C 0.21652 0.90283 0.51058 0.0
C2151 C 0.23144 0.90359 0.47443 0.0
C2152 C 0.20725 0.89461 0.52976 0.0
C2153 C 0.20149 0.87837 0.53208 0.0
C2154 C 0.22009 0.89479 0.49348 0.0
C2155 C 0.2045 0.87057 0.51392 0.0
C2156 C 0.2336 0.89578 0.4554 0.0
C2157 C 0.25157 0.9283 0.45957 0.0
N2158 N 0.21375 0.87889 0.49547 0.0
N2159 N 0.24048 0.91957 0.47584 0.0
H2160 H 0.09729 0.33003 0.42057 0.0
H2161 H 0.13933 0.36313 0.54417 0.0
H2162 H 0.0933 0.3653 0.46041 0.0
H2163 H 0.14449 0.32892 0.50349 0.0
H2164 H 0.12501 0.36637 0.51156 0.0
H2165 H 0.11667 0.33139 0.44876 0.0
C2166 C 0.10059 0.33818 0.43511 0.0
C2167 C 0.09356 0.34752 0.43812 0.0
C2168 C 0.12946 0.35832 0.50959 0.0
C2169 C 0.1157 0.34901 0.47071 0.0
C2170 C 0.13769 0.35651 0.52817 0.0
C2171 C 0.14298 0.34564 0.52659 0.0
C2172 C 0.12637 0.34909 0.48932 0.0
C2173 C 0.14066 0.33747 0.50541 0.0
C2174 C 0.11164 0.33891 0.45127 0.0
C2175 C 0.09818 0.35768 0.45756 0.0
N2176 N 0.13232 0.33919 0.48772 0.0
N2177 N 0.10889 0.3581 0.47314 0.0
H2178 H 0.08552 0.31927 0.25198 0.0
H2179 H 0.14099 0.37151 0.1473 0.0
H2180 H 0.09412 0.36588 0.23542 0.0
H2181 H 0.13873 0.32865 0.17066 0.0
H2182 H 0.12488 0.37026 0.18082 0.0
H2183 H 0.10558 0.32277 0.22338 0.0
C2184 C 0.09167 0.33028 0.24247 0.0
C2185 C 0.08798 0.34225 0.24607 0.0
C2186 C 0.12807 0.36122 0.17887 0.0
C2187 C 0.11093 0.34627 0.21308 0.0
C2188 C 0.13731 0.36198 0.15979 0.0
C2189 C 0.14114 0.35014 0.15624 0.0
C2190 C 0.12239 0.3484 0.19438 0.0
C2191 C 0.1361 0.33805 0.17289 0.0
C2192 C 0.10312 0.33225 0.22609 0.0
C2193 C 0.09627 0.35618 0.23294 0.0
N2194 N 0.12679 0.33736 0.19109 0.0
N2195 N 0.10727 0.35776 0.21701 0.0
H2196 H 0.64716 0.72734 0.22127 0.0
H2197 H 0.67526 0.81375 0.17256 0.0
H2198 H 0.67751 0.76956 0.26042 0.0
H2199 H 0.64012 0.77105 0.13895 0.0
H2200 H 0.67496 0.79813 0.20634 0.0
H2201 H 0.6437 0.74337 0.19173 0.0
C2202 C 0.65313 0.74 0.22361 0.0
C2203 C 0.66273 0.74713 0.24325 0.0
C2204 C 0.66717 0.79221 0.1917 0.0
C2205 C 0.65873 0.7656 0.20955 0.0
C2206 C 0.66724 0.80114 0.17252 0.0
C2207 C 0.65785 0.79366 0.15282 0.0
C2208 C 0.65767 0.7757 0.19107 0.0
C2209 C 0.64776 0.77726 0.15361 0.0
C2210 C 0.65105 0.74915 0.20684 0.0
C2211 C 0.66995 0.76357 0.24559 0.0
N2212 N 0.64808 0.76883 0.17225 0.0
N2213 N 0.66791 0.77227 0.22885 0.0
H2214 H 0.2422 0.91179 0.25832 0.0
H2215 H 0.24115 0.86754 0.13984 0.0
H2216 H 0.284 0.92036 0.22073 0.0
H2217 H 0.19957 0.86516 0.16961 0.0
H2218 H 0.25652 0.88338 0.17327 0.0
H2219 H 0.22607 0.89188 0.22921 0.0
C2220 C 0.24802 0.90957 0.2439 0.0
C2221 C 0.26454 0.91793 0.24192 0.0
C2222 C 0.244 0.87926 0.17266 0.0
C2223 C 0.24606 0.89483 0.20879 0.0
C2224 C 0.23521 0.87017 0.15362 0.0
C2225 C 0.2191 0.8652 0.1518 0.0
C2226 C 0.23664 0.88345 0.19006 0.0
C2227 C 0.21196 0.86873 0.17033 0.0
C2228 C 0.23877 0.89808 0.22741 0.0
C2229 C 0.27135 0.91418 0.22316 0.0
N2230 N 0.22082 0.87781 0.18857 0.0
N2231 N 0.2621 0.90296 0.20732 0.0
H2232 H 0.69539 0.94586 0.21711 0.0
H2233 H 0.66212 0.85726 0.17358 0.0
H2234 H 0.66804 0.90529 0.26104 0.0
H2235 H 0.69296 0.89822 0.13248 0.0
H2236 H 0.66593 0.87448 0.20707 0.0
H2237 H 0.69584 0.92852 0.18673 0.0
C2238 C 0.68947 0.9333 0.22035 0.0
C2239 C 0.6816 0.92702 0.2416 0.0
C2240 C 0.67202 0.87968 0.19081 0.0
C2241 C 0.68214 0.90705 0.20693 0.0
C2242 C 0.66995 0.86984 0.17175 0.0
C2243 C 0.67708 0.87633 0.15013 0.0
C2244 C 0.68124 0.89612 0.18816 0.0
C2245 C 0.687 0.89274 0.1487 0.0
C2246 C 0.68982 0.9234 0.20307 0.0
C2247 C 0.67435 0.91065 0.24499 0.0
N2248 N 0.68864 0.90206 0.16734 0.0
N2249 N 0.67469 0.90123 0.22778 0.0
H2250 H 0.10717 0.76023 0.25425 0.0
H2251 H 0.11377 0.80624 0.13638 0.0
H2252 H 0.06907 0.76592 0.22759 0.0
H2253 H 0.15383 0.80835 0.17125 0.0
H2254 H 0.09751 0.79293 0.17068 0.0
H2255 H 0.12466 0.77891 0.22506 0.0
C2256 C 0.10248 0.76553 0.24248 0.0
C2257 C 0.08653 0.76139 0.24344 0.0
C2258 C 0.10991 0.79653 0.17101 0.0
C2259 C 0.10657 0.78269 0.2095 0.0
C2260 C 0.11919 0.80415 0.15147 0.0
C2261 C 0.13513 0.8083 0.15094 0.0
C2262 C 0.11657 0.79284 0.19005 0.0
C2263 C 0.1416 0.80541 0.17097 0.0
C2264 C 0.11251 0.77619 0.2257 0.0
C2265 C 0.08117 0.76848 0.22729 0.0
N2266 N 0.13225 0.79764 0.18957 0.0
N2267 N 0.09113 0.77868 0.2109 0.0
H2268 H 0.24652 0.3425 0.25792 0.0
H2269 H 0.20685 0.31144 0.1324 0.0
H2270 H 0.25211 0.30867 0.2168 0.0
H2271 H 0.20026 0.34436 0.1741 0.0
H2272 H 0.22077 0.3078 0.1652 0.0
H2273 H 0.22734 0.34123 0.2294 0.0
C2274 C 0.2436 0.33467 0.24303 0.0
C2275 C 0.25103 0.32572 0.23975 0.0
C2276 C 0.21609 0.31565 0.16735 0.0
C2277 C 0.22914 0.32435 0.2068 0.0
C2278 C 0.2081 0.31768 0.14866 0.0
C2279 C 0.20252 0.32832 0.15049 0.0
C2280 C 0.21867 0.32444 0.188 0.0
C2281 C 0.20433 0.33601 0.17198 0.0
C2282 C 0.23267 0.33399 0.22669 0.0
C2283 C 0.24691 0.31598 0.21988 0.0
N2284 N 0.21245 0.3341 0.18979 0.0
N2285 N 0.23631 0.31561 0.20413 0.0
H2286 H 0.25279 0.30703 0.4437 0.0
H2287 H 0.20516 0.34394 0.50525 0.0
H2288 H 0.25741 0.35158 0.42361 0.0
H2289 H 0.205 0.30227 0.5297 0.0
H2290 H 0.22118 0.34492 0.47155 0.0
H2291 H 0.23279 0.30352 0.47232 0.0
C2292 C 0.24968 0.31613 0.4454 0.0
C2293 C 0.25695 0.32971 0.43139 0.0
C2294 C 0.21747 0.33545 0.48414 0.0
C2295 C 0.23378 0.32562 0.46392 0.0
C2296 C 0.2082 0.3348 0.50321 0.0
C2297 C 0.20388 0.32308 0.52034 0.0
C2298 C 0.22238 0.32427 0.4822 0.0
C2299 C 0.20825 0.31161 0.51701 0.0
C2300 C 0.23814 0.31405 0.46162 0.0
C2301 C 0.25209 0.34089 0.43396 0.0
N2302 N 0.21737 0.31257 0.49846 0.0
N2303 N 0.24088 0.33864 0.44999 0.0
H2304 H 0.64687 0.91891 0.45967 0.0
H2305 H 0.68177 0.86547 0.50565 0.0
H2306 H 0.6794 0.91032 0.42024 0.0
H2307 H 0.65169 0.87656 0.54678 0.0
H2308 H 0.6776 0.87827 0.47176 0.0
H2309 H 0.64572 0.90059 0.48971 0.0
C2310 C 0.65377 0.91318 0.45731 0.0
C2311 C 0.66334 0.91628 0.43744 0.0
C2312 C 0.67172 0.87771 0.4881 0.0
C2313 C 0.66194 0.89512 0.4717 0.0
C2314 C 0.67397 0.87025 0.50738 0.0
C2315 C 0.6672 0.8701 0.52911 0.0
C2316 C 0.66265 0.88507 0.4906 0.0
C2317 C 0.65732 0.87662 0.53042 0.0
C2318 C 0.65302 0.90262 0.47439 0.0
C2319 C 0.67177 0.90823 0.43513 0.0
N2320 N 0.65549 0.884 0.51153 0.0
N2321 N 0.67095 0.89813 0.45212 0.0
H2322 H 0.08341 0.72944 0.46547 0.0
H2323 H 0.14293 0.81625 0.51148 0.0
H2324 H 0.10254 0.77048 0.42095 0.0
H2325 H 0.12992 0.77424 0.55175 0.0
H2326 H 0.12966 0.79978 0.47732 0.0
H2327 H 0.10109 0.74567 0.4969 0.0
C2328 C 0.09133 0.74187 0.46232 0.0
C2329 C 0.09144 0.74863 0.4406 0.0
C2330 C 0.12988 0.79417 0.49355 0.0
C2331 C 0.11179 0.7673 0.47646 0.0
C2332 C 0.13758 0.80358 0.51302 0.0
C2333 C 0.13737 0.79661 0.53461 0.0
C2334 C 0.12182 0.77767 0.49574 0.0
C2335 C 0.1301 0.78011 0.53559 0.0
C2336 C 0.10151 0.75112 0.4802 0.0
C2337 C 0.10213 0.76476 0.43737 0.0
N2338 N 0.12245 0.77121 0.51655 0.0
N2339 N 0.11178 0.77357 0.45516 0.0
H2340 H 0.35149 0.10531 0.75998 0.0
H2341 H 0.31176 0.11069 0.87853 0.0
H2342 H 0.30984 0.06575 0.78932 0.0
H2343 H 0.34799 0.15131 0.84226 0.0
H2344 H 0.30954 0.09427 0.84481 0.0
H2345 H 0.34943 0.12249 0.78884 0.0
C2346 C 0.3418 0.10022 0.77231 0.0
C2347 C 0.33084 0.08399 0.77217 0.0
C2348 C 0.3178 0.10681 0.84403 0.0
C2349 C 0.32857 0.10368 0.80566 0.0
C2350 C 0.31903 0.11618 0.86324 0.0
C2351 C 0.33015 0.13235 0.86321 0.0
C2352 C 0.3279 0.11362 0.82477 0.0
C2353 C 0.33922 0.13891 0.84296 0.0
C2354 C 0.34066 0.11008 0.78887 0.0
C2355 C 0.31873 0.07812 0.78897 0.0
N2356 N 0.33807 0.12948 0.82469 0.0
N2357 N 0.31798 0.08793 0.8051 0.0
H2358 H 0.95027 0.25027 0.80036 0.0
H2359 H 0.86086 0.20342 0.84569 0.0
H2360 H 0.91276 0.25521 0.76962 0.0
H2361 H 0.9004 0.20978 0.88723 0.0
H2362 H 0.87904 0.21808 0.8136 0.0
H2363 H 0.93145 0.23153 0.82874 0.0
C2364 C 0.93806 0.24736 0.79954 0.0
C2365 C 0.93309 0.25441 0.78277 0.0
C2366 C 0.8837 0.21609 0.82964 0.0
C2367 C 0.9115 0.23291 0.81499 0.0
C2368 C 0.87333 0.2076 0.84782 0.0
C2369 C 0.87919 0.20549 0.86911 0.0
C2370 C 0.9 0.22237 0.83277 0.0
C2371 C 0.89546 0.21128 0.87111 0.0
C2372 C 0.92734 0.2367 0.81574 0.0
C2373 C 0.91714 0.25025 0.78252 0.0
N2374 N 0.90531 0.21953 0.85323 0.0
N2375 N 0.90691 0.23976 0.79837 0.0
H2376 H 0.77073 0.66997 0.75283 0.0
H2377 H 0.80124 0.69434 0.8847 0.0
H2378 H 0.75504 0.69407 0.79928 0.0
H2379 H 0.81026 0.66304 0.84287 0.0
H2380 H 0.78824 0.69838 0.85104 0.0
H2381 H 0.78884 0.67108 0.78324 0.0
C2382 C 0.77122 0.67565 0.76934 0.0
C2383 C 0.76129 0.68188 0.77355 0.0
C2384 C 0.79323 0.69078 0.84912 0.0
C2385 C 0.78196 0.68311 0.80851 0.0
C2386 C 0.80067 0.68849 0.86832 0.0
C2387 C 0.80665 0.67815 0.8667 0.0
C2388 C 0.79173 0.68269 0.8281 0.0
C2389 C 0.80584 0.67112 0.84491 0.0
C2390 C 0.78152 0.67622 0.78673 0.0
C2391 C 0.76231 0.68893 0.7954 0.0
N2392 N 0.79833 0.67337 0.82654 0.0
N2393 N 0.77242 0.68932 0.81206 0.0
H2394 H 0.73218 0.64615 0.55489 0.0
H2395 H 0.82029 0.68266 0.50592 0.0
H2396 H 0.77347 0.68219 0.59052 0.0
H2397 H 0.77879 0.65169 0.4658 0.0
H2398 H 0.80349 0.67927 0.53973 0.0
H2399 H 0.74921 0.64535 0.52424 0.0
C2400 C 0.74481 0.65392 0.55628 0.0
C2401 C 0.75136 0.66431 0.57533 0.0
C2402 C 0.79807 0.67307 0.52361 0.0
C2403 C 0.77096 0.66327 0.54043 0.0
C2404 C 0.80767 0.67488 0.50439 0.0
C2405 C 0.80091 0.66757 0.48297 0.0
C2406 C 0.78159 0.66386 0.5214 0.0
C2407 C 0.78446 0.65773 0.48191 0.0
C2408 C 0.75453 0.65337 0.53885 0.0
C2409 C 0.76786 0.67386 0.57636 0.0
N2410 N 0.77536 0.65627 0.50077 0.0
N2411 N 0.77705 0.67314 0.55915 0.0
H2412 H 0.32115 0.08308 0.58408 0.0
H2413 H 0.36291 0.13191 0.46905 0.0
H2414 H 0.36634 0.09098 0.56049 0.0
H2415 H 0.32526 0.13449 0.50387 0.0
H2416 H 0.36487 0.11744 0.50265 0.0
H2417 H 0.32237 0.10178 0.5546 0.0
C2418 C 0.3313 0.08871 0.5726 0.0
C2419 C 0.3436 0.08538 0.57458 0.0
C2420 C 0.35636 0.1214 0.50314 0.0
C2421 C 0.34516 0.10689 0.54094 0.0
C2422 C 0.35528 0.12968 0.48402 0.0
C2423 C 0.34389 0.13435 0.48373 0.0
C2424 C 0.34578 0.11751 0.52192 0.0
C2425 C 0.33426 0.13118 0.5035 0.0
C2426 C 0.33207 0.0995 0.55595 0.0
C2427 C 0.35662 0.09323 0.55957 0.0
N2428 N 0.33525 0.12273 0.52166 0.0
N2429 N 0.35699 0.10351 0.54324 0.0
H2430 H 0.92587 0.2337 0.59447 0.0
H2431 H 0.87817 0.229 0.47845 0.0
H2432 H 0.91974 0.2718 0.56933 0.0
H2433 H 0.87915 0.18883 0.50705 0.0
H2434 H 0.89222 0.24435 0.51296 0.0
H2435 H 0.90786 0.21665 0.56397 0.0
C2436 C 0.92064 0.23846 0.58269 0.0
C2437 C 0.92443 0.25428 0.58443 0.0
C2438 C 0.88926 0.23214 0.51189 0.0
C2439 C 0.90391 0.23482 0.54927 0.0
C2440 C 0.88123 0.22339 0.4922 0.0
C2441 C 0.87763 0.2077 0.4899 0.0
C2442 C 0.8939 0.22523 0.52938 0.0
C2443 C 0.88172 0.20091 0.50825 0.0
C2444 C 0.91039 0.22871 0.56522 0.0
C2445 C 0.91743 0.2598 0.56843 0.0
N2446 N 0.88983 0.20979 0.52714 0.0
N2447 N 0.90758 0.25012 0.5515 0.0
H2448 H 0.3537 0.2494 0.58496 0.0
H2449 H 0.3049 0.19992 0.47327 0.0
H2450 H 0.31204 0.24889 0.55912 0.0
H2451 H 0.3436 0.19661 0.5029 0.0
H2452 H 0.30599 0.21614 0.50656 0.0
H2453 H 0.34922 0.22881 0.55677 0.0
C2454 C 0.34354 0.2449 0.5735 0.0
C2455 C 0.33329 0.25101 0.57438 0.0
C2456 C 0.31411 0.2117 0.50602 0.0
C2457 C 0.32817 0.22745 0.54184 0.0
C2458 C 0.31344 0.20239 0.48707 0.0
C2459 C 0.32423 0.197 0.48532 0.0
C2460 C 0.32578 0.21583 0.52325 0.0
C2461 C 0.33502 0.20047 0.50367 0.0
C2462 C 0.34101 0.23314 0.55735 0.0
C2463 C 0.32044 0.2448 0.55882 0.0
N2464 N 0.33568 0.20986 0.52172 0.0
N2465 N 0.3183 0.23344 0.54316 0.0
H2466 H 0.76808 0.10627 0.5984 0.0
H2467 H 0.77744 0.13148 0.46335 0.0
H2468 H 0.73066 0.08488 0.54729 0.0
H2469 H 0.81697 0.14543 0.50991 0.0
H2470 H 0.75951 0.11853 0.49614 0.0
H2471 H 0.78543 0.12445 0.56823 0.0
C2472 C 0.76346 0.10552 0.58089 0.0
C2473 C 0.74793 0.09397 0.57529 0.0
C2474 C 0.7721 0.12458 0.49927 0.0
C2475 C 0.76771 0.11472 0.54073 0.0
C2476 C 0.78234 0.13199 0.48058 0.0
C2477 C 0.79872 0.13932 0.48385 0.0
C2478 C 0.77826 0.12447 0.52145 0.0
C2479 C 0.80443 0.13991 0.50662 0.0
C2480 C 0.77339 0.11586 0.56368 0.0
C2481 C 0.74262 0.09344 0.55228 0.0
N2482 N 0.7942 0.13238 0.52453 0.0
N2483 N 0.7525 0.10363 0.53585 0.0
H2484 H 0.9046 0.66196 0.59353 0.0
H2485 H 0.90562 0.70409 0.47287 0.0
H2486 H 0.94646 0.69065 0.55273 0.0
H2487 H 0.86288 0.6668 0.50338 0.0
H2488 H 0.92052 0.70268 0.50615 0.0
H2489 H 0.88898 0.66649 0.56422 0.0
C2490 C 0.9105 0.66926 0.57845 0.0
C2491 C 0.92684 0.67587 0.57546 0.0
C2492 C 0.90787 0.6949 0.50572 0.0
C2493 C 0.9091 0.68118 0.54204 0.0
C2494 C 0.89935 0.69574 0.48678 0.0
C2495 C 0.88302 0.68539 0.48522 0.0
C2496 C 0.90004 0.68364 0.52333 0.0
C2497 C 0.87545 0.67499 0.50392 0.0
C2498 C 0.90159 0.67181 0.56173 0.0
C2499 C 0.93388 0.68515 0.55554 0.0
N2500 N 0.88405 0.67425 0.52212 0.0
N2501 N 0.92497 0.68754 0.53963 0.0
H2502 H 0.9219 0.68579 0.76692 0.0
H2503 H 0.8656 0.63219 0.86938 0.0
H2504 H 0.91159 0.63812 0.77934 0.0
H2505 H 0.86755 0.67501 0.84649 0.0
H2506 H 0.88158 0.63358 0.83554 0.0
H2507 H 0.90163 0.68185 0.79533 0.0
C2508 C 0.91531 0.67445 0.77545 0.0
C2509 C 0.91857 0.6623 0.77072 0.0
C2510 C 0.87831 0.64255 0.83766 0.0
C2511 C 0.89541 0.65778 0.80359 0.0
C2512 C 0.86915 0.64171 0.85691 0.0
C2513 C 0.86531 0.65352 0.86069 0.0
C2514 C 0.88389 0.65543 0.82228 0.0
C2515 C 0.87019 0.66562 0.84409 0.0
C2516 C 0.90374 0.67222 0.79173 0.0
C2517 C 0.90977 0.64795 0.7827 0.0
N2518 N 0.87945 0.6664 0.82577 0.0
N2519 N 0.89867 0.64613 0.79864 0.0
H2520 H 0.32551 0.23816 0.75896 0.0
H2521 H 0.37305 0.23763 0.87232 0.0
H2522 H 0.36815 0.2789 0.78353 0.0
H2523 H 0.3334 0.19578 0.84378 0.0
H2524 H 0.37253 0.25254 0.83834 0.0
H2525 H 0.32899 0.22214 0.78851 0.0
C2526 C 0.33568 0.24373 0.77043 0.0
C2527 C 0.34651 0.25996 0.76877 0.0
C2528 C 0.36406 0.24006 0.8393 0.0
C2529 C 0.35048 0.24165 0.80287 0.0
C2530 C 0.36438 0.23154 0.85867 0.0
C2531 C 0.35319 0.21548 0.8609 0.0
C2532 C 0.35234 0.23251 0.82212 0.0
C2533 C 0.34229 0.20814 0.84267 0.0
C2534 C 0.33763 0.23457 0.78736 0.0
C2535 C 0.35932 0.26652 0.7844 0.0
N2536 N 0.342 0.21675 0.82418 0.0
N2537 N 0.36091 0.25737 0.80081 0.0
H2538 H 0.7636 0.07216 0.77754 0.0
H2539 H 0.7962 0.15258 0.85005 0.0
H2540 H 0.74426 0.10302 0.77096 0.0
H2541 H 0.8043 0.11481 0.86974 0.0
H2542 H 0.781 0.13702 0.81588 0.0
H2543 H 0.78208 0.08993 0.8069 0.0
C2544 C 0.76314 0.0826 0.78232 0.0
C2545 C 0.75216 0.08594 0.77188 0.0
C2546 C 0.78627 0.13224 0.82755 0.0
C2547 C 0.77364 0.10659 0.80517 0.0
C2548 C 0.79503 0.14116 0.84685 0.0
C2549 C 0.80142 0.13489 0.86262 0.0
C2550 C 0.78408 0.11707 0.824 0.0
C2551 C 0.79947 0.11998 0.85796 0.0
C2552 C 0.77381 0.09282 0.79896 0.0
C2553 C 0.75254 0.09997 0.77836 0.0
N2554 N 0.79093 0.11156 0.83913 0.0
N2555 N 0.76306 0.10974 0.79463 0.0
H2556 H 0.09356 0.37925 0.01445 0.0
H2557 H 0.12088 0.32236 0.07074 0.0
H2558 H 0.06285 0.32923 0.02397 0.0
H2559 H 0.15042 0.37274 0.06623 0.0
H2560 H 0.10138 0.32385 0.04553 0.0
H2561 H 0.11599 0.37637 0.02598 0.0
C2562 C 0.09153 0.36764 0.01883 0.0
C2563 C 0.07622 0.35451 0.01858 0.0
C2564 C 0.11231 0.33455 0.04948 0.0
C2565 C 0.10194 0.3511 0.03169 0.0
C2566 C 0.12351 0.33365 0.06358 0.0
C2567 C 0.13729 0.34743 0.0702 0.0
C2568 C 0.11487 0.34936 0.04229 0.0
C2569 C 0.14 0.36185 0.06115 0.0
C2570 C 0.10438 0.36599 0.02528 0.0
C2571 C 0.07441 0.33969 0.02388 0.0
N2572 N 0.12879 0.36248 0.04791 0.0
N2573 N 0.08707 0.33843 0.03049 0.0
H2574 H 0.68371 0.73787 0.02417 0.0
H2575 H 0.64298 0.78846 0.05438 0.0
H2576 H 0.63591 0.72415 0.00499 0.0
H2577 H 0.68963 0.80039 0.07668 0.0
H2578 H 0.64232 0.76819 0.02838 0.0
H2579 H 0.68804 0.76365 0.03589 0.0
C2580 C 0.67418 0.74034 0.022 0.0
C2581 C 0.65933 0.72868 0.01385 0.0
C2582 C 0.65289 0.77553 0.03844 0.0
C2583 C 0.66417 0.75823 0.02767 0.0
C2584 C 0.65333 0.78723 0.053 0.0
C2585 C 0.66642 0.79612 0.06744 0.0
C2586 C 0.66559 0.77265 0.03861 0.0
C2587 C 0.67939 0.79383 0.06559 0.0
C2588 C 0.67665 0.75508 0.02884 0.0
C2589 C 0.64743 0.73261 0.01169 0.0
N2590 N 0.67857 0.78217 0.05172 0.0
N2591 N 0.65005 0.74697 0.01881 0.0
H2592 H 0.27422 0.94715 0.02153 0.0
H2593 H 0.22974 0.85687 0.06025 0.0
H2594 H 0.29533 0.91767 0.02229 0.0
H2595 H 0.21035 0.88739 0.06885 0.0
H2596 H 0.25113 0.8772 0.03666 0.0
H2597 H 0.24868 0.92402 0.03048 0.0
C2598 C 0.27351 0.93583 0.02346 0.0
C2599 C 0.28708 0.93447 0.02148 0.0
C2600 C 0.24197 0.87932 0.04308 0.0
C2601 C 0.25774 0.90785 0.03138 0.0
C2602 C 0.22963 0.86761 0.05621 0.0
C2603 C 0.21823 0.87044 0.06616 0.0
C2604 C 0.24301 0.89405 0.04026 0.0
C2605 C 0.21883 0.88472 0.06111 0.0
C2606 C 0.25888 0.9226 0.02839 0.0
C2607 C 0.28527 0.91937 0.02355 0.0
N2608 N 0.23119 0.89612 0.04882 0.0
N2609 N 0.27094 0.90672 0.02862 0.0
H2610 H 0.3361 0.0678 0.00289 0.0
H2611 H 0.37227 0.15194 0.9412 0.0
H2612 H 0.38518 0.09648 0.98419 0.0
H2613 H 0.32273 0.12077 0.95344 0.0
H2614 H 0.37812 0.1346 0.96493 0.0
H2615 H 0.33195 0.08958 0.99251 0.0
C2616 C 0.34608 0.07876 0.99695 0.0
C2617 C 0.36099 0.0802 0.99418 0.0
C2618 C 0.36599 0.13176 0.96295 0.0
C2619 C 0.35624 0.10521 0.98191 0.0
C2620 C 0.36269 0.14177 0.9497 0.0
C2621 C 0.34702 0.13777 0.94558 0.0
C2622 C 0.3535 0.11765 0.97196 0.0
C2623 C 0.33497 0.12427 0.95643 0.0
C2624 C 0.34368 0.09118 0.9909 0.0
C2625 C 0.37341 0.09468 0.98614 0.0
N2626 N 0.33844 0.11459 0.96887 0.0
N2627 N 0.37073 0.10656 0.9801 0.0
H2628 H 0.93924 0.26929 0.01203 0.0
H2629 H 0.85861 0.22805 0.94109 0.0
H2630 H 0.91429 0.29312 0.99107 0.0
H2631 H 0.88293 0.20409 0.96389 0.0
H2632 H 0.8758 0.25043 0.9663 0.0
H2633 H 0.9163 0.24416 0.00092 0.0
C2634 C 0.92888 0.26922 0.00527 0.0
C2635 C 0.92879 0.28337 0.00217 0.0
C2636 C 0.8771 0.24011 0.96638 0.0
C2637 C 0.90242 0.25459 0.98937 0.0
C2638 C 0.86713 0.22726 0.95224 0.0
C2639 C 0.86929 0.21421 0.95074 0.0
C2640 C 0.88946 0.23995 0.9787 0.0
C2641 C 0.8808 0.21389 0.9649 0.0
C2642 C 0.91574 0.25485 -0.00095 0.0
C2643 C 0.9149 0.28252 0.99378 0.0
N2644 N 0.89064 0.22669 0.97801 0.0
N2645 N 0.90238 0.26842 0.98736 0.0
H2646 H 0.73678 0.67246 0.00346 0.0
H2647 H 0.78083 0.63331 0.93926 0.0
H2648 H 0.71375 0.62351 0.98325 0.0
H2649 H 0.80314 0.68216 0.95923 0.0
H2650 H 0.75758 0.62808 0.9624 0.0
H2651 H 0.76222 0.67499 0.99385 0.0
C2652 C 0.73709 0.66221 0.99712 0.0
C2653 C 0.72308 0.64781 0.99382 0.0
C2654 C 0.76773 0.63986 0.9623 0.0
C2655 C 0.75225 0.65061 0.98276 0.0
C2656 C 0.78107 0.64277 0.94938 0.0
C2657 C 0.79391 0.65813 0.94762 0.0
C2658 C 0.76724 0.65247 0.97326 0.0
C2659 C 0.79351 0.67012 0.96043 0.0
C2660 C 0.75164 0.66363 0.99175 0.0
C2661 C 0.72424 0.63484 0.98605 0.0
N2662 N 0.7803 0.66709 0.97242 0.0
N2663 N 0.73854 0.63659 0.98047 0.0
H2664 H 0.91791 0.6282 -0.00115 0.0
H2665 H 0.88736 0.68296 0.94396 0.0
H2666 H 0.94815 0.67715 0.98082 0.0
H2667 H 0.85853 0.6327 0.95166 0.0
H2668 H 0.90821 0.68229 0.96683 0.0
H2669 H 0.89493 0.6308 0.98999 0.0
C2670 C 0.91974 0.63952 0.99311 0.0
C2671 C 0.93506 0.6524 0.99022 0.0
C2672 C 0.89715 0.67145 0.96414 0.0
C2673 C 0.90869 0.65551 0.98034 0.0
C2674 C 0.88518 0.67189 0.95142 0.0
C2675 C 0.87119 0.65789 0.94629 0.0
C2676 C 0.89514 0.65687 0.97149 0.0
C2677 C 0.86908 0.64376 0.95564 0.0
C2678 C 0.90659 0.64102 0.98822 0.0
C2679 C 0.93662 0.66689 0.98336 0.0
N2680 N 0.88102 0.64356 0.96751 0.0
N2681 N 0.92363 0.66799 0.97842 0.0
H2682 H 0.3767 0.28777 0.00888 0.0
H2683 H 0.32195 0.20702 0.94146 0.0
H2684 H 0.32906 0.27223 0.98641 0.0
H2685 H 0.37132 0.22539 0.95506 0.0
H2686 H 0.32253 0.22753 0.96671 0.0
H2687 H 0.37328 0.26226 0.99726 0.0
C2688 C 0.36548 0.27898 0.00164 0.0
C2689 C 0.35324 0.28231 -0.00172 0.0
C2690 C 0.33316 0.22684 0.96474 0.0
C2691 C 0.34918 0.25293 0.98516 0.0
C2692 C 0.33275 0.215 0.95062 0.0
C2693 C 0.34656 0.21447 0.94653 0.0
C2694 C 0.34755 0.23833 0.97453 0.0
C2695 C 0.36039 0.22533 0.95814 0.0
C2696 C 0.3635 0.26436 0.99515 0.0
C2697 C 0.33883 0.27025 0.98938 0.0
N2698 N 0.3606 0.23697 0.97137 0.0
N2699 N 0.33727 0.25619 0.98289 0.0
H2700 H 0.73901 0.05978 -0.00082 0.0
H2701 H 0.79054 0.14924 0.95721 0.0
H2702 H 0.7227 0.09326 0.00062 0.0
H2703 H 0.80271 0.11341 0.94413 0.0
H2704 H 0.76893 0.13079 0.98265 0.0
H2705 H 0.76523 0.08099 0.98816 0.0
C2706 C 0.74099 0.07164 -0.00239 0.0
C2707 C 0.72854 0.07468 0.00057 0.0
C2708 C 0.77659 0.12709 0.97473 0.0
C2709 C 0.75857 0.09905 0.98768 0.0
C2710 C 0.78904 0.13769 0.9605 0.0
C2711 C 0.79839 0.1328 0.94872 0.0
C2712 C 0.77351 0.11152 0.97706 0.0
C2713 C 0.79577 0.11761 0.95307 0.0
C2714 C 0.75597 0.08374 0.99118 0.0
C2715 C 0.73185 0.0903 -0.00194 0.0
N2716 N 0.78345 0.10743 0.96664 0.0
N2717 N 0.74648 0.10186 0.99156 0.0
H2718 H 0.62522 0.9142 0.02535 0.0
H2719 H 0.68339 0.88188 0.05488 0.0
H2720 H 0.67479 0.93869 0.00834 0.0
H2721 H 0.63496 0.85925 0.07717 0.0
H2722 H 0.67884 0.89949 0.02979 0.0
H2723 H 0.62708 0.89118 0.0368 0.0
C2724 C 0.63644 0.91466 0.02361 0.0
C2725 C 0.64992 0.9285 0.01613 0.0
C2726 C 0.66906 0.89041 0.03965 0.0
C2727 C 0.65216 0.90219 0.02951 0.0
C2728 C 0.67163 0.88024 0.0537 0.0
C2729 C 0.65946 0.86904 0.06776 0.0
C2730 C 0.65429 0.8895 0.04003 0.0
C2731 C 0.64454 0.86762 0.06624 0.0
C2732 C 0.63751 0.90151 0.03028 0.0
C2733 C 0.66417 0.9284 0.01447 0.0
N2734 N 0.64242 0.8779 0.05289 0.0
N2735 N 0.66494 0.91553 0.02132 0.0
H2736 H 0.06571 0.73626 0.01857 0.0
H2737 H 0.15315 0.78562 0.06822 0.0
H2738 H 0.09859 0.71912 0.01719 0.0
H2739 H 0.12066 0.80299 0.06395 0.0
H2740 H 0.13515 0.76292 0.04395 0.0
H2741 H 0.08708 0.76212 0.02983 0.0
C2742 C 0.07745 0.73794 0.02023 0.0
C2743 C 0.08021 0.72532 0.01706 0.0
C2744 C 0.13214 0.7719 0.04782 0.0
C2745 C 0.10488 0.75509 0.03062 0.0
C2746 C 0.1425 0.78493 0.06142 0.0
C2747 C 0.13833 0.79613 0.068 0.0
C2748 C 0.11751 0.77009 0.04099 0.0
C2749 C 0.12426 0.79457 0.05918 0.0
C2750 C 0.0897 0.75277 0.02684 0.0
C2751 C 0.09575 0.72834 0.01994 0.0
N2752 N 0.11427 0.78169 0.04643 0.0
N2753 N 0.10744 0.74284 0.0268 0.0
H2754 H 0.297 0.38789 0.03958 0.0
H2755 H 0.20598 0.32612 0.05607 0.0
H2756 H 0.2739 0.34125 0.00945 0.0
H2757 H 0.22814 0.37384 0.08143 0.0
H2758 H 0.22955 0.33289 0.03288 0.0
H2759 H 0.27122 0.3844 0.04978 0.0
C2760 C 0.28649 0.37695 0.03495 0.0
C2761 C 0.28764 0.36476 0.02393 0.0
C2762 C 0.22915 0.34204 0.04296 0.0
C2763 C 0.25801 0.36067 0.03555 0.0
C2764 C 0.21561 0.3382 0.05595 0.0
C2765 C 0.21511 0.34951 0.07035 0.0
C2766 C 0.24241 0.35722 0.04485 0.0
C2767 C 0.22803 0.36488 0.07021 0.0
C2768 C 0.27175 0.375 0.04065 0.0
C2769 C 0.2736 0.35098 0.01792 0.0
N2770 N 0.24127 0.36823 0.05799 0.0
N2771 N 0.2594 0.34922 0.0241 0.0
H2772 H 0.76294 0.72065 0.36036 0.0
H2773 H 0.79647 0.66294 0.38585 0.0
H2774 H 0.73971 0.67179 0.33952 0.0
H2775 H 0.81723 0.71014 0.41304 0.0
H2776 H 0.77917 0.66803 0.36083 0.0
H2777 H 0.78603 0.71893 0.37209 0.0
C2778 C 0.7628 0.70964 0.35784 0.0
C2779 C 0.74927 0.69628 0.34923 0.0
C2780 C 0.78779 0.67744 0.37178 0.0
C2781 C 0.77564 0.69418 0.36286 0.0
C2782 C 0.79778 0.67458 0.3858 0.0
C2783 C 0.80835 0.68622 0.40119 0.0
C2784 C 0.78824 0.69197 0.3735 0.0
C2785 C 0.80935 0.70098 0.40109 0.0
C2786 C 0.77597 0.70864 0.36466 0.0
C2787 C 0.74975 0.6823 0.34653 0.0
N2788 N 0.79925 0.70338 0.3877 0.0
N2789 N 0.76263 0.68157 0.35353 0.0
H2790 H 0.33923 0.06598 0.3397 0.0
H2791 H 0.30264 0.11159 0.4076 0.0
H2792 H 0.29256 0.04336 0.36968 0.0
H2793 H 0.35194 0.13195 0.39133 0.0
H2794 H 0.29701 0.08832 0.38421 0.0
H2795 H 0.34228 0.09167 0.3495 0.0
C2796 C 0.32952 0.06641 0.34798 0.0
C2797 C 0.3157 0.05248 0.35415 0.0
C2798 C 0.30901 0.09806 0.38519 0.0
C2799 C 0.31913 0.08186 0.36551 0.0
C2800 C 0.31217 0.11141 0.39824 0.0
C2801 C 0.32773 0.12369 0.4011 0.0
C2802 C 0.32154 0.09701 0.37511 0.0
C2803 C 0.33976 0.12276 0.38924 0.0
C2804 C 0.33129 0.08108 0.35367 0.0
C2805 C 0.30354 0.05379 0.36501 0.0
N2806 N 0.33645 0.10955 0.37699 0.0
N2807 N 0.30558 0.06819 0.3705 0.0
H2808 H 0.94075 0.28264 0.35967 0.0
H2809 H 0.89322 0.19319 0.40122 0.0
H2810 H 0.95998 0.25158 0.35842 0.0
H2811 H 0.87496 0.22495 0.40364 0.0
H2812 H 0.91545 0.21244 0.37752 0.0
H2813 H 0.91482 0.26017 0.36851 0.0
C2814 C 0.93949 0.27106 0.36114 0.0
C2815 C 0.95262 0.26905 0.3587 0.0
C2816 C 0.90634 0.21503 0.3826 0.0
C2817 C 0.92286 0.24315 0.36879 0.0
C2818 C 0.89354 0.20393 0.39581 0.0
C2819 C 0.88221 0.20747 0.40409 0.0
C2820 C 0.90786 0.22981 0.37796 0.0
C2821 C 0.88338 0.22174 0.39728 0.0
C2822 C 0.92465 0.25819 0.36605 0.0
C2823 C 0.9502 0.25369 0.36023 0.0
N2824 N 0.89611 0.23249 0.38493 0.0
N2825 N 0.93566 0.24137 0.36551 0.0
H2826 H 0.9993 0.4012 0.32784 0.0
H2827 H 0.04507 0.48961 0.28147 0.0
H2828 H 0.04988 0.43114 0.32995 0.0
H2829 H 0.99474 0.45945 0.27716 0.0
H2830 H 0.0465 0.47037 0.30718 0.0
H2831 H 0.9969 0.42392 0.31635 0.0
C2832 C 0.0099 0.41257 0.32602 0.0
C2833 C 0.02483 0.41419 0.32952 0.0
C2834 C 0.03507 0.46811 0.3012 0.0
C2835 C 0.02216 0.44032 0.31651 0.0
C2836 C 0.03426 0.47921 0.28681 0.0
C2837 C 0.01975 0.47613 0.27754 0.0
C2838 C 0.02129 0.45373 0.30594 0.0
C2839 C 0.0061 0.46229 0.28432 0.0
C2840 C 0.00852 0.42557 0.31961 0.0
C2841 C 0.03813 0.42931 0.32747 0.0
N2842 N 0.00722 0.45147 0.29782 0.0
N2843 N 0.03649 0.44172 0.32081 0.0
H2844 H 0.58359 0.62423 0.33751 0.0
H2845 H 0.5526 0.5392 0.28119 0.0
H2846 H 0.6128 0.60369 0.32433 0.0
H2847 H 0.5255 0.56268 0.28388 0.0
H2848 H 0.5724 0.55956 0.30692 0.0
H2849 H 0.5603 0.59903 0.32739 0.0
C2850 C 0.58508 0.61434 0.33293 0.0
C2851 C 0.6002 0.61614 0.33143 0.0
C2852 C 0.5619 0.56003 0.30248 0.0
C2853 C 0.57359 0.58729 0.31964 0.0
C2854 C 0.55051 0.54828 0.2881 0.0
C2855 C 0.53739 0.54925 0.28071 0.0
C2856 C 0.56018 0.57288 0.30924 0.0
C2857 C 0.5354 0.56148 0.28951 0.0
C2858 C 0.57178 0.59997 0.32704 0.0
C2859 C 0.60141 0.60292 0.32524 0.0
N2860 N 0.54679 0.57297 0.30304 0.0
N2861 N 0.58831 0.58913 0.31935 0.0
H2862 H 0.3879 0.95814 0.3423 0.0
H2863 H 0.47233 0.0189 0.28876 0.0
H2864 H 0.40414 0.00697 0.32613 0.0
H2865 H 0.45138 0.96864 0.28163 0.0
H2866 H 0.45037 0.01485 0.31383 0.0
H2867 H 0.41351 0.96205 0.32978 0.0
C2868 C 0.39678 0.96969 0.33628 0.0
C2869 C 0.3936 0.98219 0.33514 0.0
C2870 C 0.45074 0.00467 0.30731 0.0
C2871 C 0.42317 0.98678 0.32146 0.0
C2872 C 0.46337 0.00699 0.29329 0.0
C2873 C 0.46366 0.99407 0.28332 0.0
C2874 C 0.4382 0.98932 0.3112 0.0
C2875 C 0.45163 0.97887 0.28926 0.0
C2876 C 0.41146 0.97191 0.32933 0.0
C2877 C 0.40588 0.99697 0.32774 0.0
N2878 N 0.43922 0.97689 0.30256 0.0
N2879 N 0.42001 0.9988 0.32112 0.0
H2880 H 0.58786 0.97021 0.34512 0.0
H2881 H 0.55908 0.01982 0.26971 0.0
H2882 H 0.61848 0.01144 0.30416 0.0
H2883 H 0.528 0.97212 0.29213 0.0
H2884 H 0.58044 0.02023 0.29261 0.0
H2885 H 0.56562 0.97375 0.33479 0.0
C2886 C 0.58999 0.98004 0.33404 0.0
C2887 C 0.60516 0.99038 0.32523 0.0
C2888 C 0.56884 0.00982 0.29311 0.0
C2889 C 0.57968 0.99471 0.3139 0.0
C2890 C 0.55661 0.00968 0.28036 0.0
C2891 C 0.54177 0.99599 0.27935 0.0
C2892 C 0.56623 0.99609 0.30475 0.0
C2893 C 0.53923 0.98297 0.29283 0.0
C2894 C 0.57726 0.98211 0.32833 0.0
C2895 C 0.60713 1.00318 0.31155 0.0
N2896 N 0.55142 0.98325 0.30474 0.0
N2897 N 0.59455 0.00489 0.3062 0.0
H2898 H 1.00334 0.60878 0.33069 0.0
H2899 H 0.04201 0.5631 0.26939 0.0
H2900 H 0.05267 0.63058 0.31299 0.0
H2901 H 0.99228 0.54305 0.28198 0.0
H2902 H 0.04713 0.58608 0.29318 0.0
H2903 H 1.00002 0.58316 0.32018 0.0
C2904 C 0.0135 0.60816 0.32469 0.0
C2905 C 0.02825 0.6219 0.32235 0.0
C2906 C 0.03512 0.57647 0.29127 0.0
C2907 C 0.02456 0.59252 0.31037 0.0
C2908 C 0.03225 0.5633 0.27796 0.0
C2909 C 0.01673 0.55122 0.27394 0.0
C2910 C 0.02235 0.57753 0.30039 0.0
C2911 C 1.00442 0.55213 0.28488 0.0
C2912 C 0.01162 0.59351 0.31882 0.0
C2913 C 0.04108 0.62032 0.31505 0.0
N2914 N 0.00747 0.56515 0.29736 0.0
N2915 N 0.03889 0.60593 0.30902 0.0
H2916 H 0.38076 0.42396 0.30852 0.0
H2917 H 0.47191 0.45579 0.28455 0.0
H2918 H 0.40458 0.39834 0.32578 0.0
H2919 H 0.44863 0.48173 0.26684 0.0
H2920 H 0.44854 0.43695 0.30648 0.0
H2921 H 0.40624 0.44706 0.29926 0.0
C2922 C 0.39135 0.42324 0.31069 0.0
C2923 C 0.39045 0.40907 0.31769 0.0
C2924 C 0.44863 0.44696 0.29834 0.0
C2925 C 0.41973 0.43551 0.30689 0.0
C2926 C 0.46206 0.45781 0.2861 0.0
C2927 C 0.4622 0.47038 0.2742 0.0
C2928 C 0.43513 0.44852 0.29826 0.0
C2929 C 0.44901 0.4723 0.27614 0.0
C2930 C 0.40591 0.43644 0.30531 0.0
C2931 C 0.40462 0.40886 0.31996 0.0
N2932 N 0.43589 0.46133 0.28761 0.0
N2933 N 0.41862 0.4218 0.31441 0.0
H2934 H 0.30804 0.2467 0.32633 0.0
H2935 H 0.35666 0.22122 0.41037 0.0
H2936 H 0.34741 0.27857 0.36973 0.0
H2937 H 0.30958 0.18885 0.38649 0.0
H2938 H 0.35717 0.24167 0.38516 0.0
H2939 H 0.31184 0.22505 0.33923 0.0
C2940 C 0.31753 0.24924 0.33844 0.0
C2941 C 0.32725 0.26459 0.34716 0.0
C2942 C 0.34688 0.22998 0.3849 0.0
C2943 C 0.3319 0.23981 0.36143 0.0
C2944 C 0.34669 0.21827 0.39901 0.0
C2945 C 0.33312 0.20336 0.40024 0.0
C2946 C 0.33334 0.22678 0.37212 0.0
C2947 C 0.32032 0.20018 0.38571 0.0
C2948 C 0.31975 0.23685 0.34562 0.0
C2949 C 0.33965 0.26708 0.36227 0.0
N2950 N 0.32064 0.21188 0.37246 0.0
N2951 N 0.34152 0.25483 0.36901 0.0
H2952 H 0.76354 0.04412 0.37431 0.0
H2953 H 0.79868 0.13683 0.38716 0.0
H2954 H 0.74096 0.069 0.3474 0.0
H2955 H 0.81825 0.11135 0.42127 0.0
H2956 H 0.78114 0.11316 0.36454 0.0
H2957 H 0.7867 0.06935 0.38437 0.0
C2958 C 0.76351 0.05489 0.3702 0.0
C2959 C 0.75017 0.05439 0.3602 0.0
C2960 C 0.78958 0.11283 0.37645 0.0
C2961 C 0.77669 0.08339 0.37187 0.0
C2962 C 0.79976 0.12642 0.38905 0.0
C2963 C 0.81003 0.12603 0.40577 0.0
C2964 C 0.78956 0.09873 0.3809 0.0
C2965 C 0.81065 0.11214 0.40821 0.0
C2966 C 0.77674 0.06931 0.37604 0.0
C2967 C 0.75083 0.06877 0.35551 0.0
N2968 N 0.80037 0.09895 0.39618 0.0
N2969 N 0.76379 0.08265 0.36153 0.0
H2970 H 0.95762 0.71377 0.34315 0.0
H2971 H 0.8751 0.65591 0.40344 0.0
H2972 H 0.94145 0.66515 0.36025 0.0
H2973 H 0.89246 0.70528 0.39188 0.0
H2974 H 0.89641 0.65761 0.37894 0.0
H2975 H 0.93159 0.70965 0.35332 0.0
C2976 C 0.94859 0.7022 0.34893 0.0
C2977 C 0.95187 0.68986 0.35117 0.0
C2978 C 0.89533 0.668 0.38115 0.0
C2979 C 0.92191 0.68501 0.36259 0.0
C2980 C 0.88302 0.66695 0.39482 0.0
C2981 C 0.88198 0.68043 0.39935 0.0
C2982 C 0.90682 0.68272 0.37232 0.0
C2983 C 0.89278 0.69458 0.38843 0.0
C2984 C 0.93368 0.69983 0.35456 0.0
C2985 C 0.93953 0.67503 0.35818 0.0
N2986 N 0.90493 0.69544 0.37574 0.0
N2987 N 0.92519 0.67308 0.36388 0.0
H2988 H 0.42468 0.05021 0.71275 0.0
H2989 H 0.45943 0.99293 0.72459 0.0
H2990 H 0.40455 0.00521 0.67782 0.0
H2991 H 0.48262 0.04026 0.75173 0.0
H2992 H 0.44164 0.99867 0.70199 0.0
H2993 H 0.44785 0.04819 0.72272 0.0
C2994 C 0.42519 0.03994 0.70708 0.0
C2995 C 0.41257 0.02776 0.69473 0.0
C2996 C 0.4509 0.00798 0.71232 0.0
C2997 C 0.4391 0.02535 0.70605 0.0
C2998 C 0.46116 0.00474 0.72496 0.0
C2999 C 0.47258 0.01623 0.73969 0.0
C3000 C 0.45187 0.02269 0.71492 0.0
C3001 C 0.47409 0.0312 0.74022 0.0
C3002 C 0.43847 0.03883 0.71263 0.0
C3003 C 0.414 0.01487 0.68739 0.0
N3004 N 0.46367 0.03393 0.72834 0.0
N3005 N 0.42691 0.01389 0.69345 0.0
H3006 H 0.9692 0.3843 0.67406 0.0
H3007 H 0.02047 0.4664 0.74079 0.0
H3008 H 0.01374 0.39893 0.70843 0.0
H3009 H 0.97109 0.44647 0.72542 0.0
H3010 H 0.02062 0.44519 0.71826 0.0
H3011 H 0.97193 0.40988 0.68355 0.0
C3012 C 0.97958 0.39284 0.68351 0.0
C3013 C 0.99115 0.38922 0.69068 0.0
C3014 C 0.00984 0.4457 0.7192 0.0
C3015 C 0.9945 0.41877 0.70104 0.0
C3016 C 0.00984 0.45795 0.73171 0.0
C3017 C 0.99581 0.45826 0.7346 0.0
C3018 C 0.99566 0.43361 0.70972 0.0
C3019 C 0.9822 0.44674 0.7232 0.0
C3020 C 0.98118 0.40751 0.68873 0.0
C3021 C 1.00454 0.40106 0.70229 0.0
N3022 N 0.98239 0.43474 0.7115 0.0
N3023 N 1.00577 0.4152 0.70722 0.0
H3024 H 0.60846 0.60201 0.67058 0.0
H3025 H 0.56421 0.52452 0.74991 0.0
H3026 H 0.63214 0.58401 0.71369 0.0
H3027 H 0.54187 0.54943 0.72273 0.0
H3028 H 0.58808 0.54212 0.72763 0.0
H3029 H 0.58317 0.57923 0.6815 0.0
C3030 C 0.60841 0.59329 0.68227 0.0
C3031 C 0.62256 0.59515 0.69145 0.0
C3032 C 0.57782 0.54348 0.72601 0.0
C3033 C 0.59355 0.5688 0.70361 0.0
C3034 C 0.56415 0.53329 0.73844 0.0
C3035 C 0.55108 0.53547 0.73783 0.0
C3036 C 0.57839 0.55594 0.71304 0.0
C3037 C 0.55168 0.54729 0.72332 0.0
C3038 C 0.59394 0.58021 0.68834 0.0
C3039 C 0.62165 0.58313 0.70599 0.0
N3040 N 0.56519 0.55721 0.71168 0.0
N3041 N 0.60741 0.57057 0.71174 0.0
H3042 H 0.7171 0.76071 0.66385 0.0
H3043 H 0.65985 0.78939 0.61378 0.0
H3044 H 0.66668 0.73074 0.65765 0.0
H3045 H 0.71025 0.81895 0.61834 0.0
H3046 H 0.66147 0.76957 0.63789 0.0
H3047 H 0.71432 0.78347 0.6542 0.0
C3048 C 0.70543 0.75891 0.66056 0.0
C3049 C 0.69213 0.74372 0.66123 0.0
C3050 C 0.67215 0.78058 0.63427 0.0
C3051 C 0.68884 0.76983 0.65032 0.0
C3052 C 0.67117 0.79199 0.62084 0.0
C3053 C 0.68492 0.80586 0.61443 0.0
C3054 C 0.68702 0.78299 0.64094 0.0
C3055 C 0.69938 0.80849 0.62329 0.0
C3056 C 0.70383 0.77195 0.65522 0.0
C3057 C 0.67727 0.7422 0.65737 0.0
N3058 N 0.70009 0.79705 0.63576 0.0
N3059 N 0.67605 0.75504 0.6518 0.0
H3060 H 0.24853 0.95843 0.65849 0.0
H3061 H 0.22115 0.87144 0.61882 0.0
H3062 H 0.27643 0.93637 0.67168 0.0
H3063 H 0.19023 0.8907 0.62095 0.0
H3064 H 0.24027 0.89348 0.64296 0.0
H3065 H 0.22615 0.93279 0.64897 0.0
C3066 C 0.24995 0.94821 0.65981 0.0
C3067 C 0.26458 0.94974 0.66577 0.0
C3068 C 0.2291 0.89266 0.63882 0.0
C3069 C 0.23882 0.92012 0.65419 0.0
C3070 C 0.21811 0.87995 0.62533 0.0
C3071 C 0.20406 0.8792 0.61826 0.0
C3072 C 0.22611 0.90483 0.64475 0.0
C3073 C 0.20085 0.89078 0.62641 0.0
C3074 C 0.2371 0.93349 0.65423 0.0
C3075 C 0.26557 0.93592 0.66665 0.0
N3076 N 0.21191 0.90327 0.63886 0.0
N3077 N 0.25296 0.92176 0.66063 0.0
H3078 H 0.07554 0.33585 0.67668 0.0
H3079 H 0.11944 0.30121 0.59974 0.0
H3080 H 0.05199 0.29039 0.6428 0.0
H3081 H 0.14017 0.35002 0.61934 0.0
H3082 H 0.09661 0.29496 0.62467 0.0
H3083 H 0.10095 0.33906 0.66456 0.0
C3084 C 0.07572 0.32643 0.66703 0.0
C3085 C 0.06161 0.31292 0.66046 0.0
C3086 C 0.10634 0.30698 0.62402 0.0
C3087 C 0.09064 0.31655 0.64647 0.0
C3088 C 0.11942 0.31048 0.61006 0.0
C3089 C 0.13166 0.3261 0.60775 0.0
C3090 C 0.10554 0.31922 0.63559 0.0
C3091 C 0.13098 0.33781 0.62093 0.0
C3092 C 0.09023 0.3283 0.66003 0.0
C3093 C 0.06257 0.30113 0.64784 0.0
N3094 N 0.11804 0.33417 0.6341 0.0
N3095 N 0.07682 0.30327 0.6411 0.0
H3096 H 0.28106 0.34481 0.66256 0.0
H3097 H 0.19402 0.29967 0.60914 0.0
H3098 H 0.25301 0.29434 0.65418 0.0
H3099 H 0.22411 0.35006 0.60733 0.0
H3100 H 0.21312 0.29775 0.63461 0.0
H3101 H 0.25836 0.34709 0.65036 0.0
C3102 C 0.27013 0.33419 0.65831 0.0
C3103 C 0.26908 0.31937 0.65912 0.0
C3104 C 0.21539 0.30929 0.62919 0.0
C3105 C 0.24294 0.32191 0.64542 0.0
C3106 C 0.20439 0.31037 0.61494 0.0
C3107 C 0.20747 0.32505 0.60649 0.0
C3108 C 0.22968 0.32298 0.63469 0.0
C3109 C 0.22126 0.33857 0.61385 0.0
C3110 C 0.25713 0.3355 0.65149 0.0
C3111 C 0.25444 0.30601 0.65396 0.0
N3112 N 0.23198 0.3372 0.62729 0.0
N3113 N 0.24204 0.30762 0.64712 0.0
H3114 H 0.7188 0.9675 0.6253 0.0
H3115 H 0.66924 0.87466 0.62885 0.0
H3116 H 0.68361 0.94244 0.67853 0.0
H3117 H 0.71231 0.90061 0.58974 0.0
H3118 H 0.67553 0.8988 0.65038 0.0
H3119 H 0.7178 0.94306 0.61456 0.0
C3120 C 0.71103 0.95696 0.63507 0.0
C3121 C 0.70122 0.95718 0.65286 0.0
C3122 C 0.68386 0.89914 0.63761 0.0
C3123 C 0.69973 0.9288 0.64003 0.0
C3124 C 0.68036 0.88532 0.62557 0.0
C3125 C 0.69041 0.88568 0.60782 0.0
C3126 C 0.69733 0.91343 0.6314 0.0
C3127 C 0.70441 0.89986 0.60359 0.0
C3128 C 0.71041 0.94291 0.62879 0.0
C3129 C 0.69115 0.94289 0.66436 0.0
N3130 N 0.70734 0.91323 0.615 0.0
N3131 N 0.69053 0.92927 0.65757 0.0
H3132 H 0.04611 0.75746 0.6576 0.0
H3133 H 0.1372 0.79054 0.62999 0.0
H3134 H 0.07093 0.73259 0.67327 0.0
H3135 H 0.1114 0.81291 0.6068 0.0
H3136 H 0.11463 0.77247 0.6541 0.0
H3137 H 0.07113 0.78058 0.64661 0.0
C3138 C 0.05685 0.75693 0.65913 0.0
C3139 C 0.05636 0.74296 0.66615 0.0
C3140 C 0.11401 0.78159 0.64427 0.0
C3141 C 0.08509 0.76942 0.65335 0.0
C3142 C 0.12698 0.79203 0.6308 0.0
C3143 C 0.12617 0.80332 0.61675 0.0
C3144 C 0.10005 0.78231 0.64336 0.0
C3145 C 0.11252 0.80451 0.61775 0.0
C3146 C 0.07114 0.77014 0.65273 0.0
C3147 C 0.07068 0.74298 0.66754 0.0
N3148 N 0.0999 0.79397 0.63056 0.0
N3149 N 0.08441 0.75593 0.66102 0.0
H3150 H 0.00642 0.60348 0.6693 0.0
H3151 H 0.96916 0.52228 0.74022 0.0
H3152 H 0.95975 0.58022 0.6995 0.0
H3153 H 0.01836 0.55025 0.72267 0.0
H3154 H 0.96375 0.5399 0.71641 0.0
H3155 H 0.00931 0.58105 0.68074 0.0
C3156 C 0.99674 0.59366 0.67824 0.0
C3157 C 0.98289 0.59392 0.6837 0.0
C3158 C 0.97567 0.54195 0.71723 0.0
C3159 C 0.98607 0.56802 0.69655 0.0
C3160 C 0.9787 0.53176 0.73052 0.0
C3161 C 0.99418 0.53478 0.73312 0.0
C3162 C 0.98827 0.55527 0.70664 0.0
C3163 C 0.00624 0.54747 0.72081 0.0
C3164 C 0.99837 0.58079 0.68462 0.0
C3165 C 0.97062 0.5806 0.69477 0.0
N3166 N 1.00307 0.55737 0.70833 0.0
N3167 N 0.97255 0.56829 0.70101 0.0
H3168 H 0.43049 0.37959 0.68604 0.0
H3169 H 0.46282 0.46817 0.72738 0.0
H3170 H 0.40538 0.40475 0.67499 0.0
H3171 H 0.48656 0.44195 0.73977 0.0
H3172 H 0.44438 0.44718 0.70098 0.0
H3173 H 0.45345 0.40405 0.69871 0.0
C3174 C 0.42985 0.39029 0.68584 0.0
C3175 C 0.41583 0.38999 0.67963 0.0
C3176 C 0.45388 0.4462 0.70896 0.0
C3177 C 0.44216 0.41815 0.6947 0.0
C3178 C 0.4645 0.45827 0.72375 0.0
C3179 C 0.47623 0.45677 0.7355 0.0
C3180 C 0.45498 0.43252 0.70616 0.0
C3181 C 0.47772 0.44355 0.7308 0.0
C3182 C 0.44299 0.40429 0.69326 0.0
C3183 C 0.41578 0.4043 0.68011 0.0
N3184 N 0.46709 0.43184 0.71674 0.0
N3185 N 0.42865 0.41774 0.68777 0.0
H3186 H 0.60391 0.99335 0.69045 0.0
H3187 H 0.55832 0.03789 0.72897 0.0
H3188 H 0.6221 0.04317 0.6809 0.0
H3189 H 0.54113 0.98864 0.74141 0.0
H3190 H 0.57891 0.03883 0.70348 0.0
H3191 H 0.57855 0.99033 0.70211 0.0
C3192 C 0.60255 1.00364 0.69066 0.0
C3193 C 0.61526 0.01857 0.685 0.0
C3194 C 0.57038 0.02769 0.71121 0.0
C3195 C 0.58616 0.01519 0.69824 0.0
C3196 C 0.55851 0.02713 0.72547 0.0
C3197 C 0.54797 0.01313 0.73695 0.0
C3198 C 0.57181 0.01419 0.70879 0.0
C3199 C 0.54894 0.99959 0.73252 0.0
C3200 C 0.58802 1.00189 0.69718 0.0
C3201 C 0.61266 0.03142 0.68507 0.0
N3202 N 0.56082 1.0005 0.71907 0.0
N3203 N 0.59849 0.02947 0.69188 0.0
loop_
_geom_bond_atom_site_label_1
_geom_bond_atom_site_label_2
_geom_bond_distance
_geom_bond_site_symmetry_2
_ccdc_geom_bond_type
Li0 N17 1.997 . S
Li0 O60 1.956 . S
Li0 O61 1.970 1_654 S
Li0 O62 1.961 . S
Li1 N25 1.990 . S
Li1 O60 1.970 1_455 S
Li1 O61 1.956 1_554 S
Li1 O63 1.961 . S
Li2 N47 1.990 . S
Li2 O60 1.961 . S
Li2 O62 1.956 . S
Li2 O63 1.970 1_655 S
Li3 N53 1.990 . S
Li3 O61 1.961 . S
Li3 O62 1.970 1_456 S
Li3 O63 1.956 1_556 S
C4 C6 1.348 1_655 S
C4 C7 1.356 . S
C4 O60 1.325 . S
N5 C8 1.314 . S
N5 C9 1.279 . S
C6 C4 1.348 1_455 S
C6 C8 1.353 1_455 S
C6 H64 0.929 . S
C7 C4 1.356 . S
C7 C9 1.358 . S
C7 H65 0.930 . S
C8 N5 1.314 . S
C8 C6 1.353 1_655 S
C8 H66 0.930 1_655 S
C9 N5 1.279 . S
C9 C7 1.358 . S
C9 H67 0.930 . S
C10 C13 1.348 1_455 S
C10 C14 1.356 . S
C10 O61 1.325 . S
C11 N12 1.279 . S
C11 C14 1.358 . S
C11 H68 0.930 . S
N12 C11 1.279 . S
N12 C15 1.314 . S
C13 C10 1.348 1_655 S
C13 C15 1.347 1_655 S
C13 H69 0.936 . S
C14 C10 1.356 . S
C14 C11 1.358 . S
C14 H70 0.930 . S
C15 N12 1.314 . S
C15 C13 1.347 1_455 S
C15 H71 0.930 1_455 S
C16 N17 1.278 1_556 S
C16 C21 1.353 . S
C16 H22 0.930 . S
N17 Li0 1.997 . S
N17 C16 1.278 1_554 S
N17 C19 1.305 . S
C18 C19 1.358 . S
C18 C20 1.356 1_554 S
C18 H72 0.930 . S
C19 N17 1.305 . S
C19 C18 1.358 . S
C19 H23 0.930 . S
C20 C18 1.356 1_556 S
C20 C21 1.348 . S
C21 C16 1.353 . S
C21 C20 1.348 . S
C21 H73 0.929 . S
H22 C16 0.930 . S
H23 C19 0.930 . S
C24 N25 1.314 . S
C24 C26 1.353 . S
C24 H30 0.930 . S
N25 Li1 1.990 . S
N25 C24 1.314 . S
N25 C28 1.279 . S
C26 C24 1.353 . S
C26 C29 1.348 . S
C26 H74 0.929 . S
C27 C28 1.358 . S
C27 C29 1.356 . S
C27 H75 0.930 . S
C28 N25 1.279 . S
C28 C27 1.358 . S
C28 H31 0.930 1_554 S
C29 C26 1.348 . S
C29 C27 1.356 . S
H30 C24 0.930 . S
H31 C28 0.930 1_556 S
C32 C34 1.347 . S
C32 C35 1.356 1_556 S
C32 O62 1.325 1_556 S
N33 C36 1.314 . S
N33 C37 1.279 1_556 S
C34 C32 1.347 . S
C34 C36 1.353 . S
C34 H76 0.929 . S
C35 C32 1.356 1_554 S
C35 C37 1.358 . S
C35 H77 0.930 . S
C36 N33 1.314 . S
C36 C34 1.353 . S
C36 H78 0.930 . S
C37 N33 1.279 1_554 S
C37 C35 1.358 . S
C37 H79 0.930 . S
C38 C39 1.348 . S
C38 C40 1.356 . S
C38 O63 1.325 . S
C39 C38 1.348 . S
C39 C41 1.353 . S
C39 H80 0.929 . S
C40 C38 1.356 . S
C40 C42 1.358 . S
C40 H81 0.918 1_554 S
C41 C39 1.353 . S
C41 N43 1.314 . S
C41 H82 0.930 . S
C42 C40 1.358 . S
C42 N43 1.279 . S
C42 H83 0.930 . S
N43 C41 1.314 . S
N43 C42 1.279 . S
C44 C46 1.353 . S
C44 N47 1.314 . S
C44 H50 0.930 1_655 S
C45 N47 1.279 . S
C45 C48 1.358 . S
C45 H51 0.930 . S
C46 C44 1.353 . S
C46 C49 1.348 . S
C46 H84 0.955 . S
N47 Li2 1.990 . S
N47 C44 1.314 . S
N47 C45 1.279 . S
C48 C45 1.358 . S
C48 C49 1.356 . S
C48 H85 0.930 . S
C49 C46 1.348 . S
C49 C48 1.356 . S
H50 C44 0.930 1_455 S
H51 C45 0.930 . S
C52 N53 1.314 . S
C52 C54 1.353 . S
C52 H58 0.930 1_455 S
N53 Li3 1.990 . S
N53 C52 1.314 . S
N53 C56 1.279 . S
C54 C52 1.353 . S
C54 C57 1.348 . S
C54 H86 0.929 . S
C55 C56 1.358 . S
C55 C57 1.356 . S
C55 H87 0.930 . S
C56 N53 1.279 . S
C56 C55 1.358 . S
C56 H59 0.930 . S
C57 C54 1.348 . S
C57 C55 1.356 . S
H58 C52 0.930 1_655 S
H59 C56 0.930 . S
O60 Li0 1.956 . S
O60 Li1 1.970 1_655 S
O60 Li2 1.961 . S
O60 C4 1.325 . S
O61 Li0 1.970 1_456 S
O61 Li1 1.956 1_556 S
O61 Li3 1.961 . S
O61 C10 1.325 . S
O62 Li0 1.961 . S
O62 Li2 1.956 . S
O62 Li3 1.970 1_654 S
O62 C32 1.325 1_554 S
O63 Li1 1.961 . S
O63 Li2 1.970 1_455 S
O63 Li3 1.956 1_554 S
O63 C38 1.325 . S
H64 C6 0.929 . S
H65 C7 0.930 . S
H66 C8 0.930 1_455 S
H67 C9 0.930 . S
H68 C11 0.930 . S
H69 C13 0.936 . S
H70 C14 0.930 . S
H71 C15 0.930 1_655 S
H72 C18 0.930 . S
H73 C21 0.929 . S
H74 C26 0.929 . S
H75 C27 0.930 . S
H76 C34 0.929 . S
H77 C35 0.930 . S
H78 C36 0.930 . S
H79 C37 0.930 . S
H80 C39 0.929 . S
H81 C40 0.918 1_556 S
H82 C41 0.930 . S
H83 C42 0.930 . S
H84 C46 0.955 . S
H85 C48 0.930 . S
H86 C54 0.929 . S
H87 C55 0.930 . S
Li88 N105 1.990 1_554 S
Li88 O148 1.956 . S
Li88 O149 1.970 1_554 S
Li88 O150 1.961 . S
Li89 N113 1.990 . S
Li89 O148 1.970 . S
Li89 O149 1.956 1_554 S
Li89 O151 1.961 . S
Li90 N135 1.990 . S
Li90 O148 1.961 . S
Li90 O150 1.956 . S
Li90 O151 1.970 . S
Li91 N141 1.990 . S
Li91 O149 1.961 . S
Li91 O150 1.970 1_556 S
Li91 O151 1.956 1_556 S
C92 C94 1.348 . S
C92 C95 1.356 . S
C92 O148 1.325 . S
N93 C96 1.314 . S
N93 C97 1.279 . S
C94 C92 1.348 . S
C94 C96 1.353 . S
C94 H152 0.929 . S
C95 C92 1.356 . S
C95 C97 1.358 . S
C95 H153 0.930 . S
C96 N93 1.314 . S
C96 C94 1.353 . S
C96 H154 0.930 . S
C97 N93 1.279 . S
C97 C95 1.358 . S
C97 H155 0.930 . S
C98 C101 1.348 . S
C98 C102 1.356 . S
C98 O149 1.325 . S
C99 N100 1.279 . S
C99 C102 1.358 . S
C99 H156 0.930 . S
N100 C99 1.279 . S
N100 C103 1.314 . S
C101 C98 1.348 . S
C101 C103 1.353 . S
C101 H157 0.929 . S
C102 C98 1.356 . S
C102 C99 1.358 . S
C102 H158 0.930 . S
C103 N100 1.314 . S
C103 C101 1.353 . S
C103 H159 0.930 . S
C104 N105 1.314 . S
C104 C109 1.353 . S
C104 H110 0.930 . S
N105 Li88 1.990 1_556 S
N105 C104 1.314 . S
N105 C107 1.279 1_556 S
C106 C107 1.358 . S
C106 C108 1.356 1_554 S
C106 H160 0.930 . S
C107 N105 1.279 1_554 S
C107 C106 1.358 . S
C107 H111 0.930 . S
C108 C106 1.356 1_556 S
C108 C109 1.348 . S
C109 C104 1.353 . S
C109 C108 1.348 . S
C109 H161 0.929 . S
H110 C104 0.930 . S
H111 C107 0.930 . S
C112 N113 1.314 . S
C112 C114 1.353 . S
C112 H118 0.930 . S
N113 Li89 1.990 . S
N113 C112 1.314 . S
N113 C116 1.279 . S
C114 C112 1.353 . S
C114 C117 1.348 . S
C114 H162 0.929 . S
C115 C116 1.358 . S
C115 C117 1.356 . S
C115 H163 0.930 . S
C116 N113 1.279 . S
C116 C115 1.358 . S
C116 H119 0.930 1_554 S
C117 C114 1.348 . S
C117 C115 1.356 . S
H118 C112 0.930 . S
H119 C116 0.930 1_556 S
C120 C122 1.348 . S
C120 C123 1.356 1_556 S
C120 O150 1.325 1_556 S
N121 C124 1.314 . S
N121 C125 1.268 1_556 S
C122 C120 1.348 . S
C122 C124 1.353 . S
C122 H164 0.929 . S
C123 C120 1.356 1_554 S
C123 C125 1.363 . S
C123 H165 0.930 . S
C124 N121 1.314 . S
C124 C122 1.353 . S
C124 H166 0.930 . S
C125 N121 1.268 1_554 S
C125 C123 1.363 . S
C125 H167 0.938 . S
C126 C127 1.348 . S
C126 C128 1.356 . S
C126 O151 1.325 . S
C127 C126 1.348 . S
C127 C129 1.353 . S
C127 H168 0.929 . S
C128 C126 1.356 . S
C128 C130 1.358 . S
C128 H169 0.930 . S
C129 C127 1.353 . S
C129 N131 1.314 . S
C129 H170 0.930 . S
C130 C128 1.358 . S
C130 N131 1.279 . S
C130 H171 0.930 . S
N131 C129 1.314 . S
N131 C130 1.279 . S
C132 C134 1.353 . S
C132 N135 1.314 . S
C132 H138 0.930 . S
C133 N135 1.279 . S
C133 C136 1.358 . S
C133 H139 0.930 . S
C134 C132 1.353 . S
C134 C137 1.348 . S
C134 H172 0.929 . S
N135 Li90 1.990 . S
N135 C132 1.314 . S
N135 C133 1.279 . S
C136 C133 1.358 . S
C136 C137 1.356 . S
C136 H173 0.930 . S
C137 C134 1.348 . S
C137 C136 1.356 . S
H138 C132 0.930 . S
H139 C133 0.930 . S
C140 N141 1.314 . S
C140 C142 1.353 . S
C140 H146 0.930 . S
N141 Li91 1.990 . S
N141 C140 1.314 . S
N141 C144 1.279 . S
C142 C140 1.353 . S
C142 C145 1.348 . S
C142 H174 0.929 . S
C143 C144 1.358 . S
C143 C145 1.356 . S
C143 H175 0.930 . S
C144 N141 1.279 . S
C144 C143 1.358 . S
C144 H147 0.930 . S
C145 C142 1.348 . S
C145 C143 1.356 . S
H146 C140 0.930 . S
H147 C144 0.930 . S
O148 Li88 1.956 . S
O148 Li89 1.970 . S
O148 Li90 1.961 . S
O148 C92 1.325 . S
O149 Li88 1.970 1_556 S
O149 Li89 1.956 1_556 S
O149 Li91 1.961 . S
O149 C98 1.325 . S
O150 Li88 1.961 . S
O150 Li90 1.956 . S
O150 Li91 1.970 1_554 S
O150 C120 1.325 1_554 S
O151 Li89 1.961 . S
O151 Li90 1.970 . S
O151 Li91 1.956 1_554 S
O151 C126 1.325 . S
H152 C94 0.929 . S
H153 C95 0.930 . S
H154 C96 0.930 . S
H155 C97 0.930 . S
H156 C99 0.930 . S
H157 C101 0.929 . S
H158 C102 0.930 . S
H159 C103 0.930 . S
H160 C106 0.930 . S
H161 C109 0.929 . S
H162 C114 0.929 . S
H163 C115 0.930 . S
H164 C122 0.929 . S
H165 C123 0.930 . S
H166 C124 0.930 . S
H167 C125 0.938 . S
H168 C127 0.929 . S
H169 C128 0.930 . S
H170 C129 0.930 . S
H171 C130 0.930 . S
H172 C134 0.929 . S
H173 C136 0.930 . S
H174 C142 0.929 . S
H175 C143 0.930 . S
Li176 N193 1.990 . S
Li176 O236 1.956 1_556 S
Li176 O237 1.970 1_566 S
Li176 O238 1.961 . S
Li177 N201 1.990 . S
Li177 O236 1.970 1_545 S
Li177 O237 1.956 . S
Li177 O239 1.961 . S
Li178 N223 1.990 . S
Li178 O236 1.961 . S
Li178 O238 1.956 1_554 S
Li178 O239 1.970 1_565 S
Li179 N229 1.990 1_554 S
Li179 O237 1.961 . S
Li179 O238 1.970 1_544 S
Li179 O239 1.956 . S
C180 C182 1.348 . S
C180 C183 1.356 . S
C180 O236 1.325 . S
N181 C184 1.314 . S
N181 C185 1.279 . S
C182 C180 1.348 . S
C182 C184 1.353 . S
C182 H240 0.929 . S
C183 C180 1.356 . S
C183 C185 1.358 . S
C183 H241 0.930 1_554 S
C184 N181 1.314 . S
C184 C182 1.353 . S
C184 H242 0.930 . S
C185 N181 1.279 . S
C185 C183 1.358 . S
C185 H243 0.930 . S
C186 C189 1.372 . S
C186 C190 1.337 1_556 S
C186 O237 1.319 1_556 S
C187 N188 1.279 1_554 S
C187 C190 1.358 . S
C187 H244 0.930 . S
N188 C187 1.279 1_556 S
N188 C191 1.314 . S
C189 C186 1.372 . S
C189 C191 1.353 . S
C189 H245 0.929 . S
C190 C186 1.337 1_554 S
C190 C187 1.358 . S
C190 H246 0.930 . S
C191 N188 1.314 . S
C191 C189 1.353 . S
C191 H247 0.930 . S
C192 N193 1.314 . S
C192 C197 1.353 . S
C192 H198 0.930 1_565 S
N193 Li176 1.990 . S
N193 C192 1.314 . S
N193 C195 1.279 . S
C194 C195 1.358 . S
C194 C196 1.356 . S
C194 H248 0.930 . S
C195 N193 1.279 . S
C195 C194 1.358 . S
C195 H199 0.930 . S
C196 C194 1.356 . S
C196 C197 1.348 . S
C197 C192 1.353 . S
C197 C196 1.348 . S
C197 H249 0.959 . S
H198 C192 0.930 1_545 S
H199 C195 0.930 . S
C200 N201 1.314 . S
C200 C202 1.353 . S
C200 H206 0.930 1_545 S
N201 Li177 1.990 . S
N201 C200 1.314 . S
N201 C204 1.279 . S
C202 C200 1.353 . S
C202 C205 1.348 . S
C202 H250 0.929 . S
C203 C204 1.358 . S
C203 C205 1.356 . S
C203 H251 0.930 . S
C204 N201 1.279 . S
C204 C203 1.358 . S
C204 H207 0.930 . S
C205 C202 1.348 . S
C205 C203 1.356 . S
H206 C200 0.930 1_565 S
H207 C204 0.930 . S
C208 C210 1.348 1_565 S
C208 C211 1.356 . S
C208 O238 1.325 . S
N209 C212 1.314 . S
N209 C213 1.279 . S
C210 C208 1.348 1_545 S
C210 C212 1.353 1_545 S
C210 H252 0.929 . S
C211 C208 1.356 . S
C211 C213 1.358 . S
C211 H253 0.930 . S
C212 N209 1.314 . S
C212 C210 1.353 1_565 S
C212 H254 0.930 1_565 S
C213 N209 1.279 . S
C213 C211 1.358 . S
C213 H255 0.930 . S
C214 C215 1.348 1_545 S
C214 C216 1.356 . S
C214 O239 1.325 . S
C215 C214 1.348 1_565 S
C215 C217 1.349 1_565 S
C215 H256 0.934 . S
C216 C214 1.356 . S
C216 C218 1.358 . S
C216 H257 0.930 . S
C217 C215 1.349 1_545 S
C217 N219 1.314 . S
C217 H258 0.930 1_545 S
C218 C216 1.358 . S
C218 N219 1.279 . S
C218 H259 0.930 . S
N219 C217 1.314 . S
N219 C218 1.279 . S
C220 C222 1.353 . S
C220 N223 1.314 . S
C220 H226 0.930 . S
C221 N223 1.279 . S
C221 C224 1.358 . S
C221 H227 0.930 1_554 S
C222 C220 1.353 . S
C222 C225 1.348 . S
C222 H260 0.929 . S
N223 Li178 1.990 . S
N223 C220 1.314 . S
N223 C221 1.279 . S
C224 C221 1.358 . S
C224 C225 1.356 . S
C224 H261 0.930 . S
C225 C222 1.348 . S
C225 C224 1.356 . S
H226 C220 0.930 . S
H227 C221 0.930 1_556 S
C228 N229 1.316 . S
C228 C230 1.353 . S
C228 H234 0.930 . S
N229 Li179 1.990 1_556 S
N229 C228 1.316 . S
N229 C232 1.278 1_556 S
C230 C228 1.353 . S
C230 C233 1.348 . S
C230 H262 0.929 . S
C231 C232 1.358 . S
C231 C233 1.356 1_554 S
C231 H263 0.930 . S
C232 N229 1.278 1_554 S
C232 C231 1.358 . S
C232 H235 0.930 . S
C233 C230 1.348 . S
C233 C231 1.356 1_556 S
H234 C228 0.930 . S
H235 C232 0.930 . S
O236 Li176 1.956 1_554 S
O236 Li177 1.970 1_565 S
O236 Li178 1.961 . S
O236 C180 1.325 . S
O237 Li176 1.970 1_544 S
O237 Li177 1.956 . S
O237 Li179 1.961 . S
O237 C186 1.319 1_554 S
O238 Li176 1.961 . S
O238 Li178 1.956 1_556 S
O238 Li179 1.970 1_566 S
O238 C208 1.325 . S
O239 Li177 1.961 . S
O239 Li178 1.970 1_545 S
O239 Li179 1.956 . S
O239 C214 1.325 . S
H240 C182 0.929 . S
H241 C183 0.930 1_556 S
H242 C184 0.930 . S
H243 C185 0.930 . S
H244 C187 0.930 . S
H245 C189 0.929 . S
H246 C190 0.930 . S
H247 C191 0.930 . S
H248 C194 0.930 . S
H249 C197 0.959 . S
H250 C202 0.929 . S
H251 C203 0.930 . S
H252 C210 0.929 . S
H253 C211 0.930 . S
H254 C212 0.930 1_545 S
H255 C213 0.930 . S
H256 C215 0.934 . S
H257 C216 0.930 . S
H258 C217 0.930 1_565 S
H259 C218 0.930 . S
H260 C222 0.929 . S
H261 C224 0.930 . S
H262 C230 0.929 . S
H263 C231 0.930 . S
Li264 N281 1.990 . S
Li264 O324 1.956 . S
Li264 O325 1.970 1_455 S
Li264 O326 1.961 1_554 S
Li265 N289 1.990 . S
Li265 O324 1.970 1_655 S
Li265 O325 1.956 . S
Li265 O327 1.961 . S
Li266 N311 1.990 . S
Li266 O324 1.961 1_556 S
Li266 O326 1.956 . S
Li266 O327 1.970 1_456 S
Li267 N317 1.990 1_554 S
Li267 O325 1.961 . S
Li267 O326 1.970 1_654 S
Li267 O327 1.956 . S
C268 C270 1.348 . S
C268 C271 1.356 . S
C268 O324 1.325 . S
N269 C272 1.314 . S
N269 C273 1.279 . S
C270 C268 1.348 . S
C270 C272 1.353 . S
C270 H328 0.929 . S
C271 C268 1.356 . S
C271 C273 1.358 . S
C271 H329 0.930 1_554 S
C272 N269 1.314 . S
C272 C270 1.353 . S
C272 H330 0.930 . S
C273 N269 1.279 . S
C273 C271 1.358 . S
C273 H331 0.930 1_554 S
C274 C277 1.348 1_655 S
C274 C278 1.356 . S
C274 O325 1.325 . S
C275 N276 1.279 . S
C275 C278 1.358 . S
C275 H332 0.930 . S
N276 C275 1.279 . S
N276 C279 1.300 1_655 S
C277 C274 1.348 1_455 S
C277 C279 1.362 . S
C277 H333 0.929 . S
C278 C274 1.356 . S
C278 C275 1.358 . S
C278 H334 0.930 . S
C279 N276 1.300 1_455 S
C279 C277 1.362 . S
C279 H335 0.937 . S
C280 N281 1.314 . S
C280 C285 1.353 . S
C280 H286 0.930 . S
N281 Li264 1.990 . S
N281 C280 1.314 . S
N281 C283 1.279 . S
C282 C283 1.358 . S
C282 C284 1.356 . S
C282 H336 0.930 . S
C283 N281 1.279 . S
C283 C282 1.358 . S
C283 H287 0.930 . S
C284 C282 1.356 . S
C284 C285 1.348 . S
C285 C280 1.353 . S
C285 C284 1.348 . S
C285 H337 0.929 . S
H286 C280 0.930 . S
H287 C283 0.930 . S
C288 N289 1.314 . S
C288 C290 1.353 . S
C288 H294 0.930 . S
N289 Li265 1.990 . S
N289 C288 1.314 . S
N289 C292 1.279 . S
C290 C288 1.353 . S
C290 C293 1.348 . S
C290 H338 0.929 . S
C291 C292 1.358 . S
C291 C293 1.356 . S
C291 H339 0.930 . S
C292 N289 1.279 . S
C292 C291 1.358 . S
C292 H295 0.930 . S
C293 C290 1.348 . S
C293 C291 1.356 . S
H294 C288 0.930 . S
H295 C292 0.930 . S
C296 C298 1.348 1_455 S
C296 C299 1.356 . S
C296 O326 1.325 . S
N297 C300 1.299 1_455 S
N297 C301 1.279 . S
C298 C296 1.348 1_655 S
C298 C300 1.352 . S
C298 H340 0.929 . S
C299 C296 1.356 . S
C299 C301 1.358 . S
C299 H341 0.930 . S
C300 N297 1.299 1_655 S
C300 C298 1.352 . S
C300 H342 0.947 . S
C301 N297 1.279 . S
C301 C299 1.358 . S
C301 H343 0.930 . S
C302 C303 1.348 . S
C302 C304 1.356 1_556 S
C302 O327 1.325 1_556 S
C303 C302 1.348 . S
C303 C305 1.353 . S
C303 H344 0.929 . S
C304 C302 1.356 1_554 S
C304 C306 1.358 . S
C304 H345 0.930 . S
C305 C303 1.353 . S
C305 N307 1.314 . S
C305 H346 0.930 . S
C306 C304 1.358 . S
C306 N307 1.279 1_554 S
C306 H347 0.930 . S
N307 C305 1.314 . S
N307 C306 1.279 1_556 S
C308 C310 1.353 . S
C308 N311 1.314 . S
C308 H314 0.930 . S
C309 N311 1.279 . S
C309 C312 1.358 . S
C309 H315 0.930 . S
C310 C308 1.353 . S
C310 C313 1.348 . S
C310 H348 0.929 . S
N311 Li266 1.990 . S
N311 C308 1.314 . S
N311 C309 1.279 . S
C312 C309 1.358 . S
C312 C313 1.356 . S
C312 H349 0.930 . S
C313 C310 1.348 . S
C313 C312 1.356 . S
H314 C308 0.930 . S
H315 C309 0.930 . S
C316 N317 1.314 1_554 S
C316 C318 1.353 1_554 S
C316 H322 0.930 . S
N317 Li267 1.990 1_556 S
N317 C316 1.314 1_556 S
N317 C320 1.279 . S
C318 C316 1.353 1_556 S
C318 C321 1.348 . S
C318 H350 0.929 1_556 S
C319 C320 1.358 . S
C319 C321 1.356 . S
C319 H351 0.930 . S
C320 N317 1.279 . S
C320 C319 1.358 . S
C320 H323 0.930 . S
C321 C318 1.348 . S
C321 C319 1.356 . S
H322 C316 0.930 . S
H323 C320 0.930 . S
O324 Li264 1.956 . S
O324 Li265 1.970 1_455 S
O324 Li266 1.961 1_554 S
O324 C268 1.325 . S
O325 Li264 1.970 1_655 S
O325 Li265 1.956 . S
O325 Li267 1.961 . S
O325 C274 1.325 . S
O326 Li264 1.961 1_556 S
O326 Li266 1.956 . S
O326 Li267 1.970 1_456 S
O326 C296 1.325 . S
O327 Li265 1.961 . S
O327 Li266 1.970 1_654 S
O327 Li267 1.956 . S
O327 C302 1.325 1_554 S
H328 C270 0.929 . S
H329 C271 0.930 1_556 S
H330 C272 0.930 . S
H331 C273 0.930 1_556 S
H332 C275 0.930 . S
H333 C277 0.929 . S
H334 C278 0.930 . S
H335 C279 0.937 . S
H336 C282 0.930 . S
H337 C285 0.929 . S
H338 C290 0.929 . S
H339 C291 0.930 . S
H340 C298 0.929 . S
H341 C299 0.930 . S
H342 C300 0.947 . S
H343 C301 0.930 . S
H344 C303 0.929 . S
H345 C304 0.930 . S
H346 C305 0.930 . S
H347 C306 0.930 . S
H348 C310 0.929 . S
H349 C312 0.930 . S
H350 C318 0.929 1_554 S
H351 C319 0.930 . S
Li352 N369 1.990 . S
Li352 O412 1.956 . S
Li352 O413 1.970 . S
Li352 O414 1.961 1_554 S
Li353 N377 1.990 . S
Li353 O412 1.970 . S
Li353 O413 1.956 . S
Li353 O415 1.961 . S
Li354 N399 1.990 . S
Li354 O412 1.961 1_556 S
Li354 O414 1.956 . S
Li354 O415 1.970 1_556 S
Li355 N405 1.990 1_554 S
Li355 O413 1.961 . S
Li355 O414 1.970 1_554 S
Li355 O415 1.956 . S
C356 C358 1.348 . S
C356 C359 1.356 . S
C356 O412 1.325 . S
N357 C360 1.314 . S
N357 C361 1.279 . S
C358 C356 1.348 . S
C358 C360 1.353 . S
C358 H416 0.929 . S
C359 C356 1.356 . S
C359 C361 1.358 . S
C359 H417 0.930 1_554 S
C360 N357 1.314 . S
C360 C358 1.353 . S
C360 H418 0.930 . S
C361 N357 1.279 . S
C361 C359 1.358 . S
C361 H419 0.930 . S
C362 C365 1.348 . S
C362 C366 1.356 . S
C362 O413 1.325 . S
C363 N364 1.279 . S
C363 C366 1.358 . S
C363 H420 0.930 . S
N364 C363 1.279 . S
N364 C367 1.314 . S
C365 C362 1.348 . S
C365 C367 1.353 . S
C365 H421 0.929 . S
C366 C362 1.356 . S
C366 C363 1.358 . S
C366 H422 0.930 . S
C367 N364 1.314 . S
C367 C365 1.353 . S
C367 H423 0.930 . S
C368 N369 1.314 . S
C368 C373 1.353 . S
C368 H374 0.930 . S
N369 Li352 1.990 . S
N369 C368 1.314 . S
N369 C371 1.279 . S
C370 C371 1.358 . S
C370 C372 1.356 . S
C370 H424 0.930 . S
C371 N369 1.279 . S
C371 C370 1.358 . S
C371 H375 0.930 . S
C372 C370 1.356 . S
C372 C373 1.348 . S
C373 C368 1.353 . S
C373 C372 1.348 . S
C373 H425 0.929 . S
H374 C368 0.930 . S
H375 C371 0.930 . S
C376 N377 1.314 . S
C376 C378 1.353 . S
C376 H382 0.930 . S
N377 Li353 1.990 . S
N377 C376 1.314 . S
N377 C380 1.279 . S
C378 C376 1.353 . S
C378 C381 1.348 . S
C378 H426 0.929 . S
C379 C380 1.358 . S
C379 C381 1.356 . S
C379 H427 0.930 . S
C380 N377 1.279 . S
C380 C379 1.358 . S
C380 H383 0.930 . S
C381 C378 1.348 . S
C381 C379 1.356 . S
H382 C376 0.930 . S
H383 C380 0.930 . S
C384 C386 1.348 . S
C384 C387 1.356 . S
C384 O414 1.325 . S
N385 C388 1.314 . S
N385 C389 1.279 . S
C386 C384 1.348 . S
C386 C388 1.353 . S
C386 H428 0.929 . S
C387 C384 1.356 . S
C387 C389 1.358 . S
C387 H429 0.930 . S
C388 N385 1.314 . S
C388 C386 1.353 . S
C388 H430 0.930 . S
C389 N385 1.279 . S
C389 C387 1.358 . S
C389 H431 0.930 . S
C390 C391 1.348 . S
C390 C392 1.356 1_556 S
C390 O415 1.325 1_556 S
C391 C390 1.348 . S
C391 C393 1.353 . S
C391 H432 0.929 . S
C392 C390 1.356 1_554 S
C392 C394 1.358 . S
C392 H433 0.930 . S
C393 C391 1.353 . S
C393 N395 1.314 . S
C393 H434 0.930 . S
C394 C392 1.358 . S
C394 N395 1.279 1_554 S
C394 H435 0.930 . S
N395 C393 1.314 . S
N395 C394 1.279 1_556 S
C396 C398 1.353 . S
C396 N399 1.314 . S
C396 H402 0.930 . S
C397 N399 1.279 . S
C397 C400 1.358 . S
C397 H403 0.930 . S
C398 C396 1.353 . S
C398 C401 1.348 . S
C398 H436 0.929 . S
N399 Li354 1.990 . S
N399 C396 1.314 . S
N399 C397 1.279 . S
C400 C397 1.358 . S
C400 C401 1.356 . S
C400 H437 0.930 . S
C401 C398 1.348 . S
C401 C400 1.356 . S
H402 C396 0.930 . S
H403 C397 0.930 . S
C404 N405 1.310 1_554 S
C404 C406 1.349 1_554 S
C404 H410 0.939 . S
N405 Li355 1.990 1_556 S
N405 C404 1.310 1_556 S
N405 C408 1.279 . S
C406 C404 1.349 1_556 S
C406 C409 1.348 . S
C406 H438 0.928 1_556 S
C407 C408 1.358 . S
C407 C409 1.356 . S
C407 H439 0.930 . S
C408 N405 1.279 . S
C408 C407 1.358 . S
C408 H411 0.930 . S
C409 C406 1.348 . S
C409 C407 1.356 . S
H410 C404 0.939 . S
H411 C408 0.930 . S
O412 Li352 1.956 . S
O412 Li353 1.970 . S
O412 Li354 1.961 1_554 S
O412 C356 1.325 . S
O413 Li352 1.970 . S
O413 Li353 1.956 . S
O413 Li355 1.961 . S
O413 C362 1.325 . S
O414 Li352 1.961 1_556 S
O414 Li354 1.956 . S
O414 Li355 1.970 1_556 S
O414 C384 1.325 . S
O415 Li353 1.961 . S
O415 Li354 1.970 1_554 S
O415 Li355 1.956 . S
O415 C390 1.325 1_554 S
H416 C358 0.929 . S
H417 C359 0.930 1_556 S
H418 C360 0.930 . S
H419 C361 0.930 . S
H420 C363 0.930 . S
H421 C365 0.929 . S
H422 C366 0.930 . S
H423 C367 0.930 . S
H424 C370 0.930 . S
H425 C373 0.929 . S
H426 C378 0.929 . S
H427 C379 0.930 . S
H428 C386 0.929 . S
H429 C387 0.930 . S
H430 C388 0.930 . S
H431 C389 0.930 . S
H432 C391 0.929 . S
H433 C392 0.930 . S
H434 C393 0.930 . S
H435 C394 0.930 . S
H436 C398 0.929 . S
H437 C400 0.930 . S
H438 C406 0.928 1_554 S
H439 C407 0.930 . S
Li440 N457 1.990 . S
Li440 O500 1.956 . S
Li440 O501 1.970 1_565 S
Li440 O502 1.961 1_554 S
Li441 N465 1.990 . S
Li441 O500 1.970 1_545 S
Li441 O501 1.956 . S
Li441 O503 1.961 . S
Li442 N487 1.990 . S
Li442 O500 1.961 1_556 S
Li442 O502 1.956 . S
Li442 O503 1.970 1_566 S
Li443 N493 1.991 1_554 S
Li443 O501 1.961 . S
Li443 O502 1.970 1_544 S
Li443 O503 1.956 . S
C444 C446 1.348 . S
C444 C447 1.356 . S
C444 O500 1.325 . S
N445 C448 1.314 . S
N445 C449 1.279 . S
C446 C444 1.348 . S
C446 C448 1.353 . S
C446 H504 0.929 . S
C447 C444 1.356 . S
C447 C449 1.358 . S
C447 H505 0.930 1_554 S
C448 N445 1.314 . S
C448 C446 1.353 . S
C448 H506 0.930 . S
C449 N445 1.279 . S
C449 C447 1.358 . S
C449 H507 0.930 1_554 S
C450 C453 1.348 1_545 S
C450 C454 1.356 . S
C450 O501 1.325 . S
C451 N452 1.279 . S
C451 C454 1.358 . S
C451 H508 0.930 . S
N452 C451 1.279 . S
N452 C455 1.302 1_545 S
C453 C450 1.348 1_565 S
C453 C455 1.352 . S
C453 H509 0.929 . S
C454 C450 1.356 . S
C454 C451 1.358 . S
C454 H510 0.930 . S
C455 N452 1.302 1_565 S
C455 C453 1.352 . S
C455 H511 0.944 . S
C456 N457 1.314 . S
C456 C461 1.353 . S
C456 H462 0.930 . S
N457 Li440 1.990 . S
N457 C456 1.314 . S
N457 C459 1.279 . S
C458 C459 1.358 . S
C458 C460 1.356 . S
C458 H512 0.930 . S
C459 N457 1.279 . S
C459 C458 1.358 . S
C459 H463 0.930 . S
C460 C458 1.356 . S
C460 C461 1.348 . S
C461 C456 1.353 . S
C461 C460 1.348 . S
C461 H513 0.929 . S
H462 C456 0.930 . S
H463 C459 0.930 . S
C464 N465 1.314 . S
C464 C466 1.353 . S
C464 H470 0.930 . S
N465 Li441 1.990 . S
N465 C464 1.314 . S
N465 C468 1.279 . S
C466 C464 1.353 . S
C466 C469 1.348 . S
C466 H514 0.929 . S
C467 C468 1.358 . S
C467 C469 1.356 . S
C467 H515 0.930 . S
C468 N465 1.279 . S
C468 C467 1.358 . S
C468 H471 0.930 . S
C469 C466 1.348 . S
C469 C467 1.356 . S
H470 C464 0.930 . S
H471 C468 0.930 . S
C472 C474 1.348 1_565 S
C472 C475 1.356 . S
C472 O502 1.325 . S
N473 C476 1.304 1_565 S
N473 C477 1.279 . S
C474 C472 1.348 1_545 S
C474 C476 1.359 . S
C474 H516 0.929 . S
C475 C472 1.356 . S
C475 C477 1.358 . S
C475 H517 0.930 . S
C476 N473 1.304 1_545 S
C476 C474 1.359 . S
C476 H518 0.934 . S
C477 N473 1.279 . S
C477 C475 1.358 . S
C477 H519 0.930 . S
C478 C479 1.341 1_554 S
C478 C480 1.361 . S
C478 O503 1.326 . S
C479 C478 1.341 1_556 S
C479 C481 1.353 . S
C479 H520 0.929 . S
C480 C478 1.361 . S
C480 C482 1.358 . S
C480 H521 0.930 . S
C481 C479 1.353 . S
C481 N483 1.314 . S
C481 H522 0.930 . S
C482 C480 1.358 . S
C482 N483 1.279 1_554 S
C482 H523 0.930 . S
N483 C481 1.314 . S
N483 C482 1.279 1_556 S
C484 C486 1.353 . S
C484 N487 1.314 . S
C484 H490 0.930 . S
C485 N487 1.279 . S
C485 C488 1.358 . S
C485 H491 0.930 . S
C486 C484 1.353 . S
C486 C489 1.348 . S
C486 H524 0.929 . S
N487 Li442 1.990 . S
N487 C484 1.314 . S
N487 C485 1.279 . S
C488 C485 1.358 . S
C488 C489 1.356 . S
C488 H525 0.930 . S
C489 C486 1.348 . S
C489 C488 1.356 . S
H490 C484 0.930 . S
H491 C485 0.930 . S
C492 N493 1.315 1_554 S
C492 C494 1.361 . S
C492 H498 0.930 . S
N493 Li443 1.991 1_556 S
N493 C492 1.315 1_556 S
N493 C496 1.278 . S
C494 C492 1.361 . S
C494 C497 1.327 1_554 S
C494 H526 0.944 . S
C495 C496 1.358 . S
C495 C497 1.356 . S
C495 H527 0.930 . S
C496 N493 1.278 . S
C496 C495 1.358 . S
C496 H499 0.930 . S
C497 C494 1.327 1_556 S
C497 C495 1.356 . S
H498 C492 0.930 . S
H499 C496 0.930 . S
O500 Li440 1.956 . S
O500 Li441 1.970 1_565 S
O500 Li442 1.961 1_554 S
O500 C444 1.325 . S
O501 Li440 1.970 1_545 S
O501 Li441 1.956 . S
O501 Li443 1.961 . S
O501 C450 1.325 . S
O502 Li440 1.961 1_556 S
O502 Li442 1.956 . S
O502 Li443 1.970 1_566 S
O502 C472 1.325 . S
O503 Li441 1.961 . S
O503 Li442 1.970 1_544 S
O503 Li443 1.956 . S
O503 C478 1.326 . S
H504 C446 0.929 . S
H505 C447 0.930 1_556 S
H506 C448 0.930 . S
H507 C449 0.930 1_556 S
H508 C451 0.930 . S
H509 C453 0.929 . S
H510 C454 0.930 . S
H511 C455 0.944 . S
H512 C458 0.930 . S
H513 C461 0.929 . S
H514 C466 0.929 . S
H515 C467 0.930 . S
H516 C474 0.929 . S
H517 C475 0.930 . S
H518 C476 0.934 . S
H519 C477 0.930 . S
H520 C479 0.929 . S
H521 C480 0.930 . S
H522 C481 0.930 . S
H523 C482 0.930 . S
H524 C486 0.929 . S
H525 C488 0.930 . S
H526 C494 0.944 . S
H527 C495 0.930 . S
Li528 N545 1.990 . S
Li528 O588 1.956 . S
Li528 O589 1.970 . S
Li528 O590 1.961 . S
Li529 N553 1.990 . S
Li529 O588 1.970 . S
Li529 O589 1.956 . S
Li529 O591 1.961 . S
Li530 N575 1.990 . S
Li530 O588 1.961 . S
Li530 O590 1.956 . S
Li530 O591 1.970 . S
Li531 N581 1.990 . S
Li531 O589 1.961 . S
Li531 O590 1.970 . S
Li531 O591 1.956 . S
C532 C534 1.348 . S
C532 C535 1.356 . S
C532 O588 1.325 . S
N533 C536 1.314 . S
N533 C537 1.279 . S
C534 C532 1.348 . S
C534 C536 1.353 . S
C534 H592 0.929 . S
C535 C532 1.356 . S
C535 C537 1.358 . S
C535 H593 0.930 . S
C536 N533 1.314 . S
C536 C534 1.353 . S
C536 H594 0.930 . S
C537 N533 1.279 . S
C537 C535 1.358 . S
C537 H595 0.930 . S
C538 C541 1.348 . S
C538 C542 1.356 . S
C538 O589 1.325 . S
C539 N540 1.279 . S
C539 C542 1.358 . S
C539 H596 0.930 . S
N540 C539 1.279 . S
N540 C543 1.314 . S
C541 C538 1.348 . S
C541 C543 1.353 . S
C541 H597 0.929 . S
C542 C538 1.356 . S
C542 C539 1.358 . S
C542 H598 0.930 . S
C543 N540 1.314 . S
C543 C541 1.353 . S
C543 H599 0.930 . S
C544 N545 1.314 . S
C544 C549 1.353 . S
C544 H550 0.930 . S
N545 Li528 1.990 . S
N545 C544 1.314 . S
N545 C547 1.279 . S
C546 C547 1.358 . S
C546 C548 1.356 . S
C546 H600 0.930 . S
C547 N545 1.279 . S
C547 C546 1.358 . S
C547 H551 0.930 . S
C548 C546 1.356 . S
C548 C549 1.348 . S
C549 C544 1.353 . S
C549 C548 1.348 . S
C549 H601 0.929 . S
H550 C544 0.930 . S
H551 C547 0.930 . S
C552 N553 1.314 . S
C552 C554 1.353 . S
C552 H558 0.930 . S
N553 Li529 1.990 . S
N553 C552 1.314 . S
N553 C556 1.279 . S
C554 C552 1.353 . S
C554 C557 1.348 . S
C554 H602 0.929 . S
C555 C556 1.358 . S
C555 C557 1.356 . S
C555 H603 0.930 . S
C556 N553 1.279 . S
C556 C555 1.358 . S
C556 H559 0.930 . S
C557 C554 1.348 . S
C557 C555 1.356 . S
H558 C552 0.930 . S
H559 C556 0.930 . S
C560 C562 1.348 . S
C560 C563 1.356 . S
C560 O590 1.325 . S
N561 C564 1.314 . S
N561 C565 1.279 . S
C562 C560 1.348 . S
C562 C564 1.353 . S
C562 H604 0.929 . S
C563 C560 1.356 . S
C563 C565 1.358 . S
C563 H605 0.930 . S
C564 N561 1.314 . S
C564 C562 1.353 . S
C564 H606 0.930 . S
C565 N561 1.279 . S
C565 C563 1.358 . S
C565 H607 0.930 . S
C566 C567 1.348 . S
C566 C568 1.356 . S
C566 O591 1.325 . S
C567 C566 1.348 . S
C567 C569 1.353 . S
C567 H608 0.929 . S
C568 C566 1.356 . S
C568 C570 1.358 . S
C568 H609 0.930 . S
C569 C567 1.353 . S
C569 N571 1.314 . S
C569 H610 0.930 . S
C570 C568 1.358 . S
C570 N571 1.279 . S
C570 H611 0.930 . S
N571 C569 1.314 . S
N571 C570 1.279 . S
C572 C574 1.353 . S
C572 N575 1.314 . S
C572 H578 0.930 . S
C573 N575 1.279 . S
C573 C576 1.358 . S
C573 H579 0.930 . S
C574 C572 1.353 . S
C574 C577 1.348 . S
C574 H612 0.929 . S
N575 Li530 1.990 . S
N575 C572 1.314 . S
N575 C573 1.279 . S
C576 C573 1.358 . S
C576 C577 1.356 . S
C576 H613 0.930 . S
C577 C574 1.348 . S
C577 C576 1.356 . S
H578 C572 0.930 . S
H579 C573 0.930 . S
C580 N581 1.314 . S
C580 C582 1.353 . S
C580 H586 0.930 . S
N581 Li531 1.990 . S
N581 C580 1.314 . S
N581 C584 1.279 . S
C582 C580 1.353 . S
C582 C585 1.348 . S
C582 H614 0.929 . S
C583 C584 1.358 . S
C583 C585 1.356 . S
C583 H615 0.930 . S
C584 N581 1.279 . S
C584 C583 1.358 . S
C584 H587 0.930 . S
C585 C582 1.348 . S
C585 C583 1.356 . S
H586 C580 0.930 . S
H587 C584 0.930 . S
O588 Li528 1.956 . S
O588 Li529 1.970 . S
O588 Li530 1.961 . S
O588 C532 1.325 . S
O589 Li528 1.970 . S
O589 Li529 1.956 . S
O589 Li531 1.961 . S
O589 C538 1.325 . S
O590 Li528 1.961 . S
O590 Li530 1.956 . S
O590 Li531 1.970 . S
O590 C560 1.325 . S
O591 Li529 1.961 . S
O591 Li530 1.970 . S
O591 Li531 1.956 . S
O591 C566 1.325 . S
H592 C534 0.929 . S
H593 C535 0.930 . S
H594 C536 0.930 . S
H595 C537 0.930 . S
H596 C539 0.930 . S
H597 C541 0.929 . S
H598 C542 0.930 . S
H599 C543 0.930 . S
H600 C546 0.930 . S
H601 C549 0.929 . S
H602 C554 0.929 . S
H603 C555 0.930 . S
H604 C562 0.929 . S
H605 C563 0.930 . S
H606 C564 0.930 . S
H607 C565 0.930 . S
H608 C567 0.929 . S
H609 C568 0.930 . S
H610 C569 0.930 . S
H611 C570 0.930 . S
H612 C574 0.929 . S
H613 C576 0.930 . S
H614 C582 0.929 . S
H615 C583 0.930 . S
Li616 N633 1.990 . S
Li616 O676 1.956 . S
Li616 O677 1.970 . S
Li616 O678 1.961 . S
Li617 N641 1.990 . S
Li617 O676 1.970 . S
Li617 O677 1.956 . S
Li617 O679 1.961 . S
Li618 N663 1.990 1_565 S
Li618 O676 1.961 . S
Li618 O678 1.956 . S
Li618 O679 1.970 . S
Li619 N669 1.990 . S
Li619 O677 1.961 . S
Li619 O678 1.970 . S
Li619 O679 1.956 . S
C620 C622 1.348 . S
C620 C623 1.356 . S
C620 O676 1.325 . S
N621 C624 1.314 . S
N621 C625 1.279 . S
C622 C620 1.348 . S
C622 C624 1.353 . S
C622 H680 0.929 . S
C623 C620 1.356 . S
C623 C625 1.358 . S
C623 H681 0.930 . S
C624 N621 1.314 . S
C624 C622 1.353 . S
C624 H682 0.930 . S
C625 N621 1.279 . S
C625 C623 1.358 . S
C625 H683 0.930 . S
C626 C629 1.348 . S
C626 C630 1.356 . S
C626 O677 1.325 . S
C627 N628 1.279 . S
C627 C630 1.358 . S
C627 H684 0.930 . S
N628 C627 1.279 . S
N628 C631 1.314 . S
C629 C626 1.348 . S
C629 C631 1.353 . S
C629 H685 0.929 . S
C630 C626 1.356 . S
C630 C627 1.358 . S
C630 H686 0.930 . S
C631 N628 1.314 . S
C631 C629 1.353 . S
C631 H687 0.930 . S
C632 N633 1.314 . S
C632 C637 1.353 . S
C632 H638 0.930 . S
N633 Li616 1.990 . S
N633 C632 1.314 . S
N633 C635 1.279 . S
C634 C635 1.358 . S
C634 C636 1.356 . S
C634 H688 0.930 . S
C635 N633 1.279 . S
C635 C634 1.358 . S
C635 H639 0.930 . S
C636 C634 1.356 . S
C636 C637 1.348 . S
C637 C632 1.353 . S
C637 C636 1.348 . S
C637 H689 0.929 . S
H638 C632 0.930 . S
H639 C635 0.930 . S
C640 N641 1.314 . S
C640 C642 1.353 . S
C640 H646 0.930 . S
N641 Li617 1.990 . S
N641 C640 1.314 . S
N641 C644 1.279 . S
C642 C640 1.353 . S
C642 C645 1.348 . S
C642 H690 0.929 . S
C643 C644 1.358 . S
C643 C645 1.356 . S
C643 H691 0.930 . S
C644 N641 1.279 . S
C644 C643 1.358 . S
C644 H647 0.930 . S
C645 C642 1.348 . S
C645 C643 1.356 . S
H646 C640 0.930 . S
H647 C644 0.930 . S
C648 C650 1.348 . S
C648 C651 1.356 . S
C648 O678 1.325 1_545 S
N649 C652 1.314 . S
N649 C653 1.279 . S
C650 C648 1.348 . S
C650 C652 1.353 . S
C650 H692 0.929 . S
C651 C648 1.356 . S
C651 C653 1.358 . S
C651 H693 0.930 . S
C652 N649 1.314 . S
C652 C650 1.353 . S
C652 H694 0.930 . S
C653 N649 1.279 . S
C653 C651 1.358 . S
C653 H695 0.930 . S
C654 C655 1.348 1_565 S
C654 C656 1.356 . S
C654 O679 1.325 . S
C655 C654 1.348 1_545 S
C655 C657 1.353 . S
C655 H696 0.929 . S
C656 C654 1.356 . S
C656 C658 1.358 . S
C656 H697 0.930 . S
C657 C655 1.353 . S
C657 N659 1.314 . S
C657 H698 0.930 . S
C658 C656 1.358 . S
C658 N659 1.279 1_565 S
C658 H699 0.930 . S
N659 C657 1.314 . S
N659 C658 1.279 1_545 S
C660 C662 1.353 . S
C660 N663 1.314 . S
C660 H666 0.930 . S
C661 N663 1.279 . S
C661 C664 1.358 . S
C661 H667 0.930 . S
C662 C660 1.353 . S
C662 C665 1.348 . S
C662 H700 0.929 . S
N663 Li618 1.990 1_545 S
N663 C660 1.314 . S
N663 C661 1.279 . S
C664 C661 1.358 . S
C664 C665 1.356 . S
C664 H701 0.930 . S
C665 C662 1.348 . S
C665 C664 1.356 . S
H666 C660 0.930 . S
H667 C661 0.930 . S
C668 N669 1.314 . S
C668 C670 1.353 . S
C668 H674 0.930 . S
N669 Li619 1.990 . S
N669 C668 1.314 . S
N669 C672 1.279 . S
C670 C668 1.353 . S
C670 C673 1.348 . S
C670 H702 0.929 . S
C671 C672 1.358 . S
C671 C673 1.356 . S
C671 H703 0.930 . S
C672 N669 1.279 . S
C672 C671 1.358 . S
C672 H675 0.930 . S
C673 C670 1.348 . S
C673 C671 1.356 . S
H674 C668 0.930 . S
H675 C672 0.930 . S
O676 Li616 1.956 . S
O676 Li617 1.970 . S
O676 Li618 1.961 . S
O676 C620 1.325 . S
O677 Li616 1.970 . S
O677 Li617 1.956 . S
O677 Li619 1.961 . S
O677 C626 1.325 . S
O678 Li616 1.961 . S
O678 Li618 1.956 . S
O678 Li619 1.970 . S
O678 C648 1.325 1_565 S
O679 Li617 1.961 . S
O679 Li618 1.970 . S
O679 Li619 1.956 . S
O679 C654 1.325 . S
H680 C622 0.929 . S
H681 C623 0.930 . S
H682 C624 0.930 . S
H683 C625 0.930 . S
H684 C627 0.930 . S
H685 C629 0.929 . S
H686 C630 0.930 . S
H687 C631 0.930 . S
H688 C634 0.930 . S
H689 C637 0.929 . S
H690 C642 0.929 . S
H691 C643 0.930 . S
H692 C650 0.929 . S
H693 C651 0.930 . S
H694 C652 0.930 . S
H695 C653 0.930 . S
H696 C655 0.929 . S
H697 C656 0.930 . S
H698 C657 0.930 . S
H699 C658 0.930 . S
H700 C662 0.929 . S
H701 C664 0.930 . S
H702 C670 0.929 . S
H703 C671 0.930 . S
Li704 N721 1.990 . S
Li704 O764 1.956 . S
Li704 O765 1.970 . S
Li704 O766 1.961 . S
Li705 N729 1.990 . S
Li705 O764 1.970 . S
Li705 O765 1.956 . S
Li705 O767 1.961 . S
Li706 N751 1.990 1_455 S
Li706 O764 1.961 . S
Li706 O766 1.956 . S
Li706 O767 1.970 . S
Li707 N757 1.990 . S
Li707 O765 1.961 . S
Li707 O766 1.970 . S
Li707 O767 1.956 . S
C708 C710 1.348 . S
C708 C711 1.356 . S
C708 O764 1.325 . S
N709 C712 1.314 . S
N709 C713 1.279 . S
C710 C708 1.348 . S
C710 C712 1.353 . S
C710 H768 0.929 . S
C711 C708 1.356 . S
C711 C713 1.358 . S
C711 H769 0.930 . S
C712 N709 1.314 . S
C712 C710 1.353 . S
C712 H770 0.930 . S
C713 N709 1.279 . S
C713 C711 1.358 . S
C713 H771 0.930 . S
C714 C717 1.348 . S
C714 C718 1.356 . S
C714 O765 1.325 . S
C715 N716 1.279 . S
C715 C718 1.358 . S
C715 H772 0.930 . S
N716 C715 1.279 . S
N716 C719 1.314 . S
C717 C714 1.348 . S
C717 C719 1.353 . S
C717 H773 0.929 . S
C718 C714 1.356 . S
C718 C715 1.358 . S
C718 H774 0.930 . S
C719 N716 1.314 . S
C719 C717 1.353 . S
C719 H775 0.930 . S
C720 N721 1.314 . S
C720 C725 1.353 . S
C720 H726 0.930 . S
N721 Li704 1.990 . S
N721 C720 1.314 . S
N721 C723 1.279 . S
C722 C723 1.358 . S
C722 C724 1.356 . S
C722 H776 0.930 . S
C723 N721 1.279 . S
C723 C722 1.358 . S
C723 H727 0.930 . S
C724 C722 1.356 . S
C724 C725 1.348 . S
C725 C720 1.353 . S
C725 C724 1.348 . S
C725 H777 0.929 . S
H726 C720 0.930 . S
H727 C723 0.930 . S
C728 N729 1.314 . S
C728 C730 1.353 . S
C728 H734 0.930 . S
N729 Li705 1.990 . S
N729 C728 1.314 . S
N729 C732 1.279 . S
C730 C728 1.353 . S
C730 C733 1.348 . S
C730 H778 0.929 . S
C731 C732 1.358 . S
C731 C733 1.356 . S
C731 H779 0.930 . S
C732 N729 1.279 . S
C732 C731 1.358 . S
C732 H735 0.930 . S
C733 C730 1.348 . S
C733 C731 1.356 . S
H734 C728 0.930 . S
H735 C732 0.930 . S
C736 C738 1.348 . S
C736 C739 1.356 . S
C736 O766 1.325 1_655 S
N737 C740 1.314 . S
N737 C741 1.279 . S
C738 C736 1.348 . S
C738 C740 1.353 . S
C738 H780 0.929 . S
C739 C736 1.356 . S
C739 C741 1.358 . S
C739 H781 0.930 . S
C740 N737 1.314 . S
C740 C738 1.353 . S
C740 H782 0.930 . S
C741 N737 1.279 . S
C741 C739 1.358 . S
C741 H783 0.930 . S
C742 C743 1.348 1_455 S
C742 C744 1.356 . S
C742 O767 1.325 . S
C743 C742 1.348 1_655 S
C743 C745 1.353 . S
C743 H784 0.929 . S
C744 C742 1.356 . S
C744 C746 1.358 . S
C744 H785 0.930 . S
C745 C743 1.353 . S
C745 N747 1.314 . S
C745 H786 0.930 . S
C746 C744 1.358 . S
C746 N747 1.279 1_455 S
C746 H787 0.930 . S
N747 C745 1.314 . S
N747 C746 1.279 1_655 S
C748 C750 1.353 . S
C748 N751 1.314 . S
C748 H754 0.930 . S
C749 N751 1.279 . S
C749 C752 1.358 . S
C749 H755 0.930 . S
C750 C748 1.353 . S
C750 C753 1.348 . S
C750 H788 0.929 . S
N751 Li706 1.990 1_655 S
N751 C748 1.314 . S
N751 C749 1.279 . S
C752 C749 1.358 . S
C752 C753 1.356 . S
C752 H789 0.930 . S
C753 C750 1.348 . S
C753 C752 1.356 . S
H754 C748 0.930 . S
H755 C749 0.930 . S
C756 N757 1.314 . S
C756 C758 1.353 . S
C756 H762 0.930 . S
N757 Li707 1.990 . S
N757 C756 1.314 . S
N757 C760 1.279 . S
C758 C756 1.353 . S
C758 C761 1.348 . S
C758 H790 0.929 . S
C759 C760 1.358 . S
C759 C761 1.356 . S
C759 H791 0.930 . S
C760 N757 1.279 . S
C760 C759 1.358 . S
C760 H763 0.930 . S
C761 C758 1.348 . S
C761 C759 1.356 . S
H762 C756 0.930 . S
H763 C760 0.930 . S
O764 Li704 1.956 . S
O764 Li705 1.970 . S
O764 Li706 1.961 . S
O764 C708 1.325 . S
O765 Li704 1.970 . S
O765 Li705 1.956 . S
O765 Li707 1.961 . S
O765 C714 1.325 . S
O766 Li704 1.961 . S
O766 Li706 1.956 . S
O766 Li707 1.970 . S
O766 C736 1.325 1_455 S
O767 Li705 1.961 . S
O767 Li706 1.970 . S
O767 Li707 1.956 . S
O767 C742 1.325 . S
H768 C710 0.929 . S
H769 C711 0.930 . S
H770 C712 0.930 . S
H771 C713 0.930 . S
H772 C715 0.930 . S
H773 C717 0.929 . S
H774 C718 0.930 . S
H775 C719 0.930 . S
H776 C722 0.930 . S
H777 C725 0.929 . S
H778 C730 0.929 . S
H779 C731 0.930 . S
H780 C738 0.929 . S
H781 C739 0.930 . S
H782 C740 0.930 . S
H783 C741 0.930 . S
H784 C743 0.929 . S
H785 C744 0.930 . S
H786 C745 0.930 . S
H787 C746 0.930 . S
H788 C750 0.929 . S
H789 C752 0.930 . S
H790 C758 0.929 . S
H791 C759 0.930 . S
Li792 N809 1.990 1_565 S
Li792 O852 1.956 . S
Li792 O853 1.970 . S
Li792 O854 1.961 . S
Li793 N817 1.990 . S
Li793 O852 1.970 . S
Li793 O853 1.956 . S
Li793 O855 1.961 . S
Li794 N839 1.990 . S
Li794 O852 1.961 . S
Li794 O854 1.956 . S
Li794 O855 1.970 . S
Li795 N845 1.990 . S
Li795 O853 1.961 . S
Li795 O854 1.970 . S
Li795 O855 1.956 . S
C796 C798 1.348 . S
C796 C799 1.356 . S
C796 O852 1.325 . S
N797 C800 1.314 . S
N797 C801 1.279 . S
C798 C796 1.348 . S
C798 C800 1.353 . S
C798 H856 0.929 . S
C799 C796 1.356 . S
C799 C801 1.358 . S
C799 H857 0.930 . S
C800 N797 1.314 . S
C800 C798 1.353 . S
C800 H858 0.930 . S
C801 N797 1.279 . S
C801 C799 1.358 . S
C801 H859 0.930 . S
C802 C805 1.348 1_565 S
C802 C806 1.356 . S
C802 O853 1.325 . S
C803 N804 1.279 1_565 S
C803 C806 1.358 . S
C803 H860 0.930 . S
N804 C803 1.279 1_545 S
N804 C807 1.314 . S
C805 C802 1.348 1_545 S
C805 C807 1.353 . S
C805 H861 0.929 . S
C806 C802 1.356 . S
C806 C803 1.358 . S
C806 H862 0.930 . S
C807 N804 1.314 . S
C807 C805 1.353 . S
C807 H863 0.930 . S
C808 N809 1.314 . S
C808 C813 1.353 . S
C808 H814 0.930 . S
N809 Li792 1.990 1_545 S
N809 C808 1.314 . S
N809 C811 1.279 . S
C810 C811 1.358 . S
C810 C812 1.356 . S
C810 H864 0.930 . S
C811 N809 1.279 . S
C811 C810 1.358 . S
C811 H815 0.930 . S
C812 C810 1.356 . S
C812 C813 1.348 . S
C813 C808 1.353 . S
C813 C812 1.348 . S
C813 H865 0.929 . S
H814 C808 0.930 . S
H815 C811 0.930 . S
C816 N817 1.314 . S
C816 C818 1.353 . S
C816 H822 0.930 . S
N817 Li793 1.990 . S
N817 C816 1.314 . S
N817 C820 1.279 . S
C818 C816 1.353 . S
C818 C821 1.348 . S
C818 H866 0.929 . S
C819 C820 1.358 . S
C819 C821 1.356 . S
C819 H867 0.930 . S
C820 N817 1.279 . S
C820 C819 1.358 . S
C820 H823 0.930 . S
C821 C818 1.348 . S
C821 C819 1.356 . S
H822 C816 0.930 . S
H823 C820 0.930 . S
C824 C826 1.348 . S
C824 C827 1.356 . S
C824 O854 1.325 1_545 S
N825 C828 1.314 . S
N825 C829 1.279 . S
C826 C824 1.348 . S
C826 C828 1.353 . S
C826 H868 0.929 1_545 S
C827 C824 1.356 . S
C827 C829 1.358 . S
C827 H869 0.930 . S
C828 N825 1.314 . S
C828 C826 1.353 . S
C828 H870 0.930 . S
C829 N825 1.279 . S
C829 C827 1.358 . S
C829 H871 0.930 . S
C830 C831 1.348 . S
C830 C832 1.356 . S
C830 O855 1.325 . S
C831 C830 1.348 . S
C831 C833 1.353 . S
C831 H872 0.929 . S
C832 C830 1.356 . S
C832 C834 1.358 . S
C832 H873 0.930 . S
C833 C831 1.353 . S
C833 N835 1.314 . S
C833 H874 0.930 . S
C834 C832 1.358 . S
C834 N835 1.279 . S
C834 H875 0.930 . S
N835 C833 1.314 . S
N835 C834 1.279 . S
C836 C838 1.353 . S
C836 N839 1.314 . S
C836 H842 0.930 . S
C837 N839 1.279 . S
C837 C840 1.358 . S
C837 H843 0.930 . S
C838 C836 1.353 . S
C838 C841 1.348 . S
C838 H876 0.929 . S
N839 Li794 1.990 . S
N839 C836 1.314 . S
N839 C837 1.279 . S
C840 C837 1.358 . S
C840 C841 1.356 . S
C840 H877 0.930 . S
C841 C838 1.348 . S
C841 C840 1.356 . S
H842 C836 0.930 . S
H843 C837 0.930 . S
C844 N845 1.314 . S
C844 C846 1.353 . S
C844 H850 0.930 1_565 S
N845 Li795 1.990 . S
N845 C844 1.314 . S
N845 C848 1.279 . S
C846 C844 1.353 . S
C846 C849 1.348 . S
C846 H878 0.929 1_565 S
C847 C848 1.358 . S
C847 C849 1.356 . S
C847 H879 0.930 . S
C848 N845 1.279 . S
C848 C847 1.358 . S
C848 H851 0.930 . S
C849 C846 1.348 . S
C849 C847 1.356 . S
H850 C844 0.930 1_545 S
H851 C848 0.930 . S
O852 Li792 1.956 . S
O852 Li793 1.970 . S
O852 Li794 1.961 . S
O852 C796 1.325 . S
O853 Li792 1.970 . S
O853 Li793 1.956 . S
O853 Li795 1.961 . S
O853 C802 1.325 . S
O854 Li792 1.961 . S
O854 Li794 1.956 . S
O854 Li795 1.970 . S
O854 C824 1.325 1_565 S
O855 Li793 1.961 . S
O855 Li794 1.970 . S
O855 Li795 1.956 . S
O855 C830 1.325 . S
H856 C798 0.929 . S
H857 C799 0.930 . S
H858 C800 0.930 . S
H859 C801 0.930 . S
H860 C803 0.930 . S
H861 C805 0.929 . S
H862 C806 0.930 . S
H863 C807 0.930 . S
H864 C810 0.930 . S
H865 C813 0.929 . S
H866 C818 0.929 . S
H867 C819 0.930 . S
H868 C826 0.929 1_565 S
H869 C827 0.930 . S
H870 C828 0.930 . S
H871 C829 0.930 . S
H872 C831 0.929 . S
H873 C832 0.930 . S
H874 C833 0.930 . S
H875 C834 0.930 . S
H876 C838 0.929 . S
H877 C840 0.930 . S
H878 C846 0.929 1_545 S
H879 C847 0.930 . S
Li880 N897 1.990 . S
Li880 O940 1.956 . S
Li880 O941 1.970 . S
Li880 O942 1.961 . S
Li881 N905 1.990 1_455 S
Li881 O940 1.970 . S
Li881 O941 1.956 . S
Li881 O943 1.961 . S
Li882 N927 1.990 . S
Li882 O940 1.961 . S
Li882 O942 1.956 . S
Li882 O943 1.970 . S
Li883 N933 1.990 . S
Li883 O941 1.961 . S
Li883 O942 1.970 . S
Li883 O943 1.956 . S
C884 C886 1.348 1_455 S
C884 C887 1.356 . S
C884 O940 1.325 . S
N885 C888 1.314 . S
N885 C889 1.279 1_655 S
C886 C884 1.348 1_655 S
C886 C888 1.353 . S
C886 H944 0.929 . S
C887 C884 1.356 . S
C887 C889 1.358 . S
C887 H945 0.930 . S
C888 N885 1.314 . S
C888 C886 1.353 . S
C888 H946 0.930 . S
C889 N885 1.279 1_455 S
C889 C887 1.358 . S
C889 H947 0.930 . S
C890 C893 1.348 . S
C890 C894 1.356 . S
C890 O941 1.325 . S
C891 N892 1.279 . S
C891 C894 1.358 . S
C891 H948 0.930 . S
N892 C891 1.279 . S
N892 C895 1.314 . S
C893 C890 1.348 . S
C893 C895 1.353 . S
C893 H949 0.929 . S
C894 C890 1.356 . S
C894 C891 1.358 . S
C894 H950 0.930 . S
C895 N892 1.314 . S
C895 C893 1.353 . S
C895 H951 0.930 . S
C896 N897 1.314 . S
C896 C901 1.353 . S
C896 H902 0.930 . S
N897 Li880 1.990 . S
N897 C896 1.314 . S
N897 C899 1.279 . S
C898 C899 1.358 . S
C898 C900 1.356 . S
C898 H952 0.930 . S
C899 N897 1.279 . S
C899 C898 1.358 . S
C899 H903 0.930 . S
C900 C898 1.356 . S
C900 C901 1.348 . S
C901 C896 1.353 . S
C901 C900 1.348 . S
C901 H953 0.929 . S
H902 C896 0.930 . S
H903 C899 0.930 . S
C904 N905 1.314 . S
C904 C906 1.353 . S
C904 H910 0.930 . S
N905 Li881 1.990 1_655 S
N905 C904 1.314 . S
N905 C908 1.279 . S
C906 C904 1.353 . S
C906 C909 1.348 . S
C906 H954 0.929 . S
C907 C908 1.358 . S
C907 C909 1.356 . S
C907 H955 0.930 . S
C908 N905 1.279 . S
C908 C907 1.358 . S
C908 H911 0.930 . S
C909 C906 1.348 . S
C909 C907 1.356 . S
H910 C904 0.930 . S
H911 C908 0.930 . S
C912 C914 1.348 . S
C912 C915 1.356 . S
C912 O942 1.325 . S
N913 C916 1.314 . S
N913 C917 1.279 . S
C914 C912 1.348 . S
C914 C916 1.353 . S
C914 H956 0.929 . S
C915 C912 1.356 . S
C915 C917 1.358 . S
C915 H957 0.930 . S
C916 N913 1.314 . S
C916 C914 1.353 . S
C916 H958 0.930 . S
C917 N913 1.279 . S
C917 C915 1.358 . S
C917 H959 0.930 . S
C918 C919 1.348 . S
C918 C920 1.356 . S
C918 O943 1.325 1_655 S
C919 C918 1.348 . S
C919 C921 1.353 . S
C919 H960 0.929 1_655 S
C920 C918 1.356 . S
C920 C922 1.358 . S
C920 H961 0.930 . S
C921 C919 1.353 . S
C921 N923 1.314 . S
C921 H962 0.930 . S
C922 C920 1.358 . S
C922 N923 1.279 . S
C922 H963 0.930 . S
N923 C921 1.314 . S
N923 C922 1.279 . S
C924 C926 1.353 . S
C924 N927 1.314 . S
C924 H930 0.930 1_455 S
C925 N927 1.279 . S
C925 C928 1.358 . S
C925 H931 0.930 . S
C926 C924 1.353 . S
C926 C929 1.348 . S
C926 H964 0.929 1_455 S
N927 Li882 1.990 . S
N927 C924 1.314 . S
N927 C925 1.279 . S
C928 C925 1.358 . S
C928 C929 1.356 . S
C928 H965 0.930 . S
C929 C926 1.348 . S
C929 C928 1.356 . S
H930 C924 0.930 1_655 S
H931 C925 0.930 . S
C932 N933 1.314 . S
C932 C934 1.353 . S
C932 H938 0.930 . S
N933 Li883 1.990 . S
N933 C932 1.314 . S
N933 C936 1.279 . S
C934 C932 1.353 . S
C934 C937 1.348 . S
C934 H966 0.929 . S
C935 C936 1.358 . S
C935 C937 1.356 . S
C935 H967 0.930 . S
C936 N933 1.279 . S
C936 C935 1.358 . S
C936 H939 0.930 . S
C937 C934 1.348 . S
C937 C935 1.356 . S
H938 C932 0.930 . S
H939 C936 0.930 . S
O940 Li880 1.956 . S
O940 Li881 1.970 . S
O940 Li882 1.961 . S
O940 C884 1.325 . S
O941 Li880 1.970 . S
O941 Li881 1.956 . S
O941 Li883 1.961 . S
O941 C890 1.325 . S
O942 Li880 1.961 . S
O942 Li882 1.956 . S
O942 Li883 1.970 . S
O942 C912 1.325 . S
O943 Li881 1.961 . S
O943 Li882 1.970 . S
O943 Li883 1.956 . S
O943 C918 1.325 1_455 S
H944 C886 0.929 . S
H945 C887 0.930 . S
H946 C888 0.930 . S
H947 C889 0.930 . S
H948 C891 0.930 . S
H949 C893 0.929 . S
H950 C894 0.930 . S
H951 C895 0.930 . S
H952 C898 0.930 . S
H953 C901 0.929 . S
H954 C906 0.929 . S
H955 C907 0.930 . S
H956 C914 0.929 . S
H957 C915 0.930 . S
H958 C916 0.930 . S
H959 C917 0.930 . S
H960 C919 0.929 1_455 S
H961 C920 0.930 . S
H962 C921 0.930 . S
H963 C922 0.930 . S
H964 C926 0.929 1_655 S
H965 C928 0.930 . S
H966 C934 0.929 . S
H967 C935 0.930 . S
Li968 N985 1.990 . S
Li968 O1028 1.956 . S
Li968 O1029 1.970 . S
Li968 O1030 1.961 . S
Li969 N993 1.990 . S
Li969 O1028 1.970 . S
Li969 O1029 1.956 . S
Li969 O1031 1.961 . S
Li970 N1015 1.990 . S
Li970 O1028 1.961 . S
Li970 O1030 1.956 . S
Li970 O1031 1.970 . S
Li971 N1021 1.990 . S
Li971 O1029 1.961 . S
Li971 O1030 1.970 . S
Li971 O1031 1.956 . S
C972 C974 1.348 . S
C972 C975 1.356 . S
C972 O1028 1.325 . S
N973 C976 1.314 . S
N973 C977 1.279 . S
C974 C972 1.348 . S
C974 C976 1.353 . S
C974 H1032 0.929 . S
C975 C972 1.356 . S
C975 C977 1.358 . S
C975 H1033 0.930 . S
C976 N973 1.314 . S
C976 C974 1.353 . S
C976 H1034 0.930 . S
C977 N973 1.279 . S
C977 C975 1.358 . S
C977 H1035 0.930 . S
C978 C981 1.348 . S
C978 C982 1.356 . S
C978 O1029 1.325 . S
C979 N980 1.279 . S
C979 C982 1.358 . S
C979 H1036 0.930 . S
N980 C979 1.279 . S
N980 C983 1.314 . S
C981 C978 1.348 . S
C981 C983 1.353 . S
C981 H1037 0.929 . S
C982 C978 1.356 . S
C982 C979 1.358 . S
C982 H1038 0.930 . S
C983 N980 1.314 . S
C983 C981 1.353 . S
C983 H1039 0.930 . S
C984 N985 1.314 . S
C984 C989 1.353 . S
C984 H990 0.930 . S
N985 Li968 1.990 . S
N985 C984 1.314 . S
N985 C987 1.279 . S
C986 C987 1.358 . S
C986 C988 1.356 . S
C986 H1040 0.930 . S
C987 N985 1.279 . S
C987 C986 1.358 . S
C987 H991 0.930 . S
C988 C986 1.356 . S
C988 C989 1.348 . S
C989 C984 1.353 . S
C989 C988 1.348 . S
C989 H1041 0.929 . S
H990 C984 0.930 . S
H991 C987 0.930 . S
C992 N993 1.314 . S
C992 C994 1.353 . S
C992 H998 0.930 . S
N993 Li969 1.990 . S
N993 C992 1.314 . S
N993 C996 1.279 . S
C994 C992 1.353 . S
C994 C997 1.348 . S
C994 H1042 0.929 . S
C995 C996 1.358 . S
C995 C997 1.356 . S
C995 H1043 0.930 . S
C996 N993 1.279 . S
C996 C995 1.358 . S
C996 H999 0.930 . S
C997 C994 1.348 . S
C997 C995 1.356 . S
H998 C992 0.930 . S
H999 C996 0.930 . S
C1000 C1002 1.348 . S
C1000 C1003 1.356 . S
C1000 O1030 1.325 . S
N1001 C1004 1.314 . S
N1001 C1005 1.279 . S
C1002 C1000 1.348 . S
C1002 C1004 1.353 . S
C1002 H1044 0.929 . S
C1003 C1000 1.356 . S
C1003 C1005 1.358 . S
C1003 H1045 0.930 . S
C1004 N1001 1.314 . S
C1004 C1002 1.353 . S
C1004 H1046 0.930 . S
C1005 N1001 1.279 . S
C1005 C1003 1.358 . S
C1005 H1047 0.930 . S
C1006 C1007 1.348 . S
C1006 C1008 1.356 . S
C1006 O1031 1.325 . S
C1007 C1006 1.348 . S
C1007 C1009 1.353 . S
C1007 H1048 0.929 . S
C1008 C1006 1.356 . S
C1008 C1010 1.358 . S
C1008 H1049 0.930 . S
C1009 C1007 1.353 . S
C1009 N1011 1.314 . S
C1009 H1050 0.930 . S
C1010 C1008 1.358 . S
C1010 N1011 1.279 . S
C1010 H1051 0.930 . S
N1011 C1009 1.314 . S
N1011 C1010 1.279 . S
C1012 C1014 1.353 . S
C1012 N1015 1.314 . S
C1012 H1018 0.930 . S
C1013 N1015 1.279 . S
C1013 C1016 1.358 . S
C1013 H1019 0.930 . S
C1014 C1012 1.353 . S
C1014 C1017 1.348 . S
C1014 H1052 0.929 . S
N1015 Li970 1.990 . S
N1015 C1012 1.314 . S
N1015 C1013 1.279 . S
C1016 C1013 1.358 . S
C1016 C1017 1.356 . S
C1016 H1053 0.930 . S
C1017 C1014 1.348 . S
C1017 C1016 1.356 . S
H1018 C1012 0.930 . S
H1019 C1013 0.930 . S
C1020 N1021 1.314 . S
C1020 C1022 1.353 . S
C1020 H1026 0.930 . S
N1021 Li971 1.990 . S
N1021 C1020 1.314 . S
N1021 C1024 1.279 . S
C1022 C1020 1.353 . S
C1022 C1025 1.348 . S
C1022 H1054 0.929 . S
C1023 C1024 1.358 . S
C1023 C1025 1.356 . S
C1023 H1055 0.930 . S
C1024 N1021 1.279 . S
C1024 C1023 1.358 . S
C1024 H1027 0.930 . S
C1025 C1022 1.348 . S
C1025 C1023 1.356 . S
H1026 C1020 0.930 . S
H1027 C1024 0.930 . S
O1028 Li968 1.956 . S
O1028 Li969 1.970 . S
O1028 Li970 1.961 . S
O1028 C972 1.325 . S
O1029 Li968 1.970 . S
O1029 Li969 1.956 . S
O1029 Li971 1.961 . S
O1029 C978 1.325 . S
O1030 Li968 1.961 . S
O1030 Li970 1.956 . S
O1030 Li971 1.970 . S
O1030 C1000 1.325 . S
O1031 Li969 1.961 . S
O1031 Li970 1.970 . S
O1031 Li971 1.956 . S
O1031 C1006 1.325 . S
H1032 C974 0.929 . S
H1033 C975 0.930 . S
H1034 C976 0.930 . S
H1035 C977 0.930 . S
H1036 C979 0.930 . S
H1037 C981 0.929 . S
H1038 C982 0.930 . S
H1039 C983 0.930 . S
H1040 C986 0.930 . S
H1041 C989 0.929 . S
H1042 C994 0.929 . S
H1043 C995 0.930 . S
H1044 C1002 0.929 . S
H1045 C1003 0.930 . S
H1046 C1004 0.930 . S
H1047 C1005 0.930 . S
H1048 C1007 0.929 . S
H1049 C1008 0.930 . S
H1050 C1009 0.930 . S
H1051 C1010 0.930 . S
H1052 C1014 0.929 . S
H1053 C1016 0.930 . S
H1054 C1022 0.929 . S
H1055 C1023 0.930 . S
Li1056 N1073 1.990 1_545 S
Li1056 O1116 1.956 . S
Li1056 O1117 1.970 . S
Li1056 O1118 1.961 . S
Li1057 N1081 1.990 . S
Li1057 O1116 1.970 . S
Li1057 O1117 1.956 . S
Li1057 O1119 1.961 . S
Li1058 N1103 1.990 . S
Li1058 O1116 1.961 . S
Li1058 O1118 1.956 . S
Li1058 O1119 1.970 . S
Li1059 N1109 1.990 . S
Li1059 O1117 1.961 . S
Li1059 O1118 1.970 . S
Li1059 O1119 1.956 . S
C1060 C1062 1.348 . S
C1060 C1063 1.356 . S
C1060 O1116 1.325 1_565 S
N1061 C1064 1.314 . S
N1061 C1065 1.279 . S
C1062 C1060 1.348 . S
C1062 C1064 1.353 . S
C1062 H1120 0.929 . S
C1063 C1060 1.356 . S
C1063 C1065 1.358 . S
C1063 H1121 0.930 . S
C1064 N1061 1.314 . S
C1064 C1062 1.353 . S
C1064 H1122 0.930 . S
C1065 N1061 1.279 . S
C1065 C1063 1.358 . S
C1065 H1123 0.930 . S
C1066 C1069 1.348 1_545 S
C1066 C1070 1.356 . S
C1066 O1117 1.325 . S
C1067 N1068 1.279 1_545 S
C1067 C1070 1.358 . S
C1067 H1124 0.930 . S
N1068 C1067 1.279 1_565 S
N1068 C1071 1.314 . S
C1069 C1066 1.348 1_565 S
C1069 C1071 1.353 . S
C1069 H1125 0.929 . S
C1070 C1066 1.356 . S
C1070 C1067 1.358 . S
C1070 H1126 0.930 . S
C1071 N1068 1.314 . S
C1071 C1069 1.353 . S
C1071 H1127 0.930 . S
C1072 N1073 1.314 . S
C1072 C1077 1.353 . S
C1072 H1078 0.930 . S
N1073 Li1056 1.990 1_565 S
N1073 C1072 1.314 . S
N1073 C1075 1.279 . S
C1074 C1075 1.358 . S
C1074 C1076 1.356 . S
C1074 H1128 0.930 . S
C1075 N1073 1.279 . S
C1075 C1074 1.358 . S
C1075 H1079 0.930 . S
C1076 C1074 1.356 . S
C1076 C1077 1.348 . S
C1077 C1072 1.353 . S
C1077 C1076 1.348 . S
C1077 H1129 0.929 . S
H1078 C1072 0.930 . S
H1079 C1075 0.930 . S
C1080 N1081 1.314 . S
C1080 C1082 1.353 . S
C1080 H1086 0.930 . S
N1081 Li1057 1.990 . S
N1081 C1080 1.314 . S
N1081 C1084 1.279 . S
C1082 C1080 1.353 . S
C1082 C1085 1.348 . S
C1082 H1130 0.929 . S
C1083 C1084 1.358 . S
C1083 C1085 1.356 . S
C1083 H1131 0.930 . S
C1084 N1081 1.279 . S
C1084 C1083 1.358 . S
C1084 H1087 0.930 . S
C1085 C1082 1.348 . S
C1085 C1083 1.356 . S
H1086 C1080 0.930 . S
H1087 C1084 0.930 . S
C1088 C1090 1.348 . S
C1088 C1091 1.356 . S
C1088 O1118 1.325 . S
N1089 C1092 1.314 . S
N1089 C1093 1.279 . S
C1090 C1088 1.348 . S
C1090 C1092 1.353 . S
C1090 H1132 0.929 . S
C1091 C1088 1.356 . S
C1091 C1093 1.358 . S
C1091 H1133 0.930 . S
C1092 N1089 1.314 . S
C1092 C1090 1.353 . S
C1092 H1134 0.930 . S
C1093 N1089 1.279 . S
C1093 C1091 1.358 . S
C1093 H1135 0.930 . S
C1094 C1095 1.348 . S
C1094 C1096 1.356 . S
C1094 O1119 1.325 . S
C1095 C1094 1.348 . S
C1095 C1097 1.353 . S
C1095 H1136 0.929 . S
C1096 C1094 1.356 . S
C1096 C1098 1.358 . S
C1096 H1137 0.930 . S
C1097 C1095 1.353 . S
C1097 N1099 1.314 . S
C1097 H1138 0.930 . S
C1098 C1096 1.358 . S
C1098 N1099 1.279 . S
C1098 H1139 0.930 . S
N1099 C1097 1.314 . S
N1099 C1098 1.279 . S
C1100 C1102 1.353 . S
C1100 N1103 1.314 . S
C1100 H1106 0.930 . S
C1101 N1103 1.279 . S
C1101 C1104 1.358 . S
C1101 H1107 0.930 . S
C1102 C1100 1.353 . S
C1102 C1105 1.348 . S
C1102 H1140 0.929 . S
N1103 Li1058 1.990 . S
N1103 C1100 1.314 . S
N1103 C1101 1.279 . S
C1104 C1101 1.358 . S
C1104 C1105 1.356 . S
C1104 H1141 0.930 . S
C1105 C1102 1.348 . S
C1105 C1104 1.356 . S
H1106 C1100 0.930 . S
H1107 C1101 0.930 . S
C1108 N1109 1.314 . S
C1108 C1110 1.353 . S
C1108 H1114 0.930 . S
N1109 Li1059 1.990 . S
N1109 C1108 1.314 . S
N1109 C1112 1.279 . S
C1110 C1108 1.353 . S
C1110 C1113 1.348 . S
C1110 H1142 0.929 . S
C1111 C1112 1.358 . S
C1111 C1113 1.356 . S
C1111 H1143 0.930 . S
C1112 N1109 1.279 . S
C1112 C1111 1.358 . S
C1112 H1115 0.930 . S
C1113 C1110 1.348 . S
C1113 C1111 1.356 . S
H1114 C1108 0.930 . S
H1115 C1112 0.930 . S
O1116 Li1056 1.956 . S
O1116 Li1057 1.970 . S
O1116 Li1058 1.961 . S
O1116 C1060 1.325 1_545 S
O1117 Li1056 1.970 . S
O1117 Li1057 1.956 . S
O1117 Li1059 1.961 . S
O1117 C1066 1.325 . S
O1118 Li1056 1.961 . S
O1118 Li1058 1.956 . S
O1118 Li1059 1.970 . S
O1118 C1088 1.325 . S
O1119 Li1057 1.961 . S
O1119 Li1058 1.970 . S
O1119 Li1059 1.956 . S
O1119 C1094 1.325 . S
H1120 C1062 0.929 . S
H1121 C1063 0.930 . S
H1122 C1064 0.930 . S
H1123 C1065 0.930 . S
H1124 C1067 0.930 . S
H1125 C1069 0.929 . S
H1126 C1070 0.930 . S
H1127 C1071 0.930 . S
H1128 C1074 0.930 . S
H1129 C1077 0.929 . S
H1130 C1082 0.929 . S
H1131 C1083 0.930 . S
H1132 C1090 0.929 . S
H1133 C1091 0.930 . S
H1134 C1092 0.930 . S
H1135 C1093 0.930 . S
H1136 C1095 0.929 . S
H1137 C1096 0.930 . S
H1138 C1097 0.930 . S
H1139 C1098 0.930 . S
H1140 C1102 0.929 . S
H1141 C1104 0.930 . S
H1142 C1110 0.929 . S
H1143 C1111 0.930 . S
Li1144 N1161 1.990 1_655 S
Li1144 O1204 1.956 . S
Li1144 O1205 1.970 . S
Li1144 O1206 1.961 . S
Li1145 N1169 1.990 . S
Li1145 O1204 1.970 . S
Li1145 O1205 1.956 . S
Li1145 O1207 1.961 . S
Li1146 N1191 1.990 . S
Li1146 O1204 1.961 . S
Li1146 O1206 1.956 . S
Li1146 O1207 1.970 . S
Li1147 N1197 1.990 . S
Li1147 O1205 1.961 . S
Li1147 O1206 1.970 . S
Li1147 O1207 1.956 . S
C1148 C1150 1.348 . S
C1148 C1151 1.356 . S
C1148 O1204 1.325 1_455 S
N1149 C1152 1.314 . S
N1149 C1153 1.279 . S
C1150 C1148 1.348 . S
C1150 C1152 1.353 . S
C1150 H1208 0.929 . S
C1151 C1148 1.356 . S
C1151 C1153 1.358 . S
C1151 H1209 0.930 . S
C1152 N1149 1.314 . S
C1152 C1150 1.353 . S
C1152 H1210 0.930 . S
C1153 N1149 1.279 . S
C1153 C1151 1.358 . S
C1153 H1211 0.930 . S
C1154 C1157 1.348 1_655 S
C1154 C1158 1.356 . S
C1154 O1205 1.325 . S
C1155 N1156 1.279 1_655 S
C1155 C1158 1.358 . S
C1155 H1212 0.930 . S
N1156 C1155 1.279 1_455 S
N1156 C1159 1.314 . S
C1157 C1154 1.348 1_455 S
C1157 C1159 1.353 . S
C1157 H1213 0.929 . S
C1158 C1154 1.356 . S
C1158 C1155 1.358 . S
C1158 H1214 0.930 . S
C1159 N1156 1.314 . S
C1159 C1157 1.353 . S
C1159 H1215 0.930 . S
C1160 N1161 1.314 . S
C1160 C1165 1.353 . S
C1160 H1166 0.930 . S
N1161 Li1144 1.990 1_455 S
N1161 C1160 1.314 . S
N1161 C1163 1.279 . S
C1162 C1163 1.358 . S
C1162 C1164 1.356 . S
C1162 H1216 0.930 . S
C1163 N1161 1.279 . S
C1163 C1162 1.358 . S
C1163 H1167 0.930 . S
C1164 C1162 1.356 . S
C1164 C1165 1.348 . S
C1165 C1160 1.353 . S
C1165 C1164 1.348 . S
C1165 H1217 0.929 . S
H1166 C1160 0.930 . S
H1167 C1163 0.930 . S
C1168 N1169 1.314 . S
C1168 C1170 1.353 . S
C1168 H1174 0.930 . S
N1169 Li1145 1.990 . S
N1169 C1168 1.314 . S
N1169 C1172 1.279 . S
C1170 C1168 1.353 . S
C1170 C1173 1.348 . S
C1170 H1218 0.929 . S
C1171 C1172 1.358 . S
C1171 C1173 1.356 . S
C1171 H1219 0.930 . S
C1172 N1169 1.279 . S
C1172 C1171 1.358 . S
C1172 H1175 0.930 . S
C1173 C1170 1.348 . S
C1173 C1171 1.356 . S
H1174 C1168 0.930 . S
H1175 C1172 0.930 . S
C1176 C1178 1.348 . S
C1176 C1179 1.356 . S
C1176 O1206 1.325 . S
N1177 C1180 1.314 . S
N1177 C1181 1.279 . S
C1178 C1176 1.348 . S
C1178 C1180 1.353 . S
C1178 H1220 0.929 . S
C1179 C1176 1.356 . S
C1179 C1181 1.358 . S
C1179 H1221 0.930 . S
C1180 N1177 1.314 . S
C1180 C1178 1.353 . S
C1180 H1222 0.930 . S
C1181 N1177 1.279 . S
C1181 C1179 1.358 . S
C1181 H1223 0.930 . S
C1182 C1183 1.348 . S
C1182 C1184 1.356 . S
C1182 O1207 1.325 . S
C1183 C1182 1.348 . S
C1183 C1185 1.353 . S
C1183 H1224 0.929 . S
C1184 C1182 1.356 . S
C1184 C1186 1.358 . S
C1184 H1225 0.930 . S
C1185 C1183 1.353 . S
C1185 N1187 1.314 . S
C1185 H1226 0.930 . S
C1186 C1184 1.358 . S
C1186 N1187 1.279 . S
C1186 H1227 0.930 . S
N1187 C1185 1.314 . S
N1187 C1186 1.279 . S
C1188 C1190 1.353 . S
C1188 N1191 1.314 . S
C1188 H1194 0.930 . S
C1189 N1191 1.279 . S
C1189 C1192 1.358 . S
C1189 H1195 0.930 . S
C1190 C1188 1.353 . S
C1190 C1193 1.348 . S
C1190 H1228 0.929 . S
N1191 Li1146 1.990 . S
N1191 C1188 1.314 . S
N1191 C1189 1.279 . S
C1192 C1189 1.358 . S
C1192 C1193 1.356 . S
C1192 H1229 0.930 . S
C1193 C1190 1.348 . S
C1193 C1192 1.356 . S
H1194 C1188 0.930 . S
H1195 C1189 0.930 . S
C1196 N1197 1.314 . S
C1196 C1198 1.353 . S
C1196 H1202 0.930 . S
N1197 Li1147 1.990 . S
N1197 C1196 1.314 . S
N1197 C1200 1.279 . S
C1198 C1196 1.353 . S
C1198 C1201 1.348 . S
C1198 H1230 0.929 . S
C1199 C1200 1.358 . S
C1199 C1201 1.356 . S
C1199 H1231 0.930 . S
C1200 N1197 1.279 . S
C1200 C1199 1.358 . S
C1200 H1203 0.930 . S
C1201 C1198 1.348 . S
C1201 C1199 1.356 . S
H1202 C1196 0.930 . S
H1203 C1200 0.930 . S
O1204 Li1144 1.956 . S
O1204 Li1145 1.970 . S
O1204 Li1146 1.961 . S
O1204 C1148 1.325 1_655 S
O1205 Li1144 1.970 . S
O1205 Li1145 1.956 . S
O1205 Li1147 1.961 . S
O1205 C1154 1.325 . S
O1206 Li1144 1.961 . S
O1206 Li1146 1.956 . S
O1206 Li1147 1.970 . S
O1206 C1176 1.325 . S
O1207 Li1145 1.961 . S
O1207 Li1146 1.970 . S
O1207 Li1147 1.956 . S
O1207 C1182 1.325 . S
H1208 C1150 0.929 . S
H1209 C1151 0.930 . S
H1210 C1152 0.930 . S
H1211 C1153 0.930 . S
H1212 C1155 0.930 . S
H1213 C1157 0.929 . S
H1214 C1158 0.930 . S
H1215 C1159 0.930 . S
H1216 C1162 0.930 . S
H1217 C1165 0.929 . S
H1218 C1170 0.929 . S
H1219 C1171 0.930 . S
H1220 C1178 0.929 . S
H1221 C1179 0.930 . S
H1222 C1180 0.930 . S
H1223 C1181 0.930 . S
H1224 C1183 0.929 . S
H1225 C1184 0.930 . S
H1226 C1185 0.930 . S
H1227 C1186 0.930 . S
H1228 C1190 0.929 . S
H1229 C1192 0.930 . S
H1230 C1198 0.929 . S
H1231 C1199 0.930 . S
Li1232 N1249 1.990 . S
Li1232 O1292 1.956 . S
Li1232 O1293 1.970 . S
Li1232 O1294 1.961 . S
Li1233 N1257 1.990 . S
Li1233 O1292 1.970 . S
Li1233 O1293 1.956 . S
Li1233 O1295 1.961 . S
Li1234 N1279 1.990 . S
Li1234 O1292 1.961 . S
Li1234 O1294 1.956 . S
Li1234 O1295 1.970 . S
Li1235 N1285 1.990 . S
Li1235 O1293 1.961 . S
Li1235 O1294 1.970 . S
Li1235 O1295 1.956 . S
C1236 C1238 1.348 . S
C1236 C1239 1.356 . S
C1236 O1292 1.325 . S
N1237 C1240 1.314 . S
N1237 C1241 1.279 . S
C1238 C1236 1.348 . S
C1238 C1240 1.353 . S
C1238 H1296 0.929 . S
C1239 C1236 1.356 . S
C1239 C1241 1.358 . S
C1239 H1297 0.930 . S
C1240 N1237 1.314 . S
C1240 C1238 1.353 . S
C1240 H1298 0.930 . S
C1241 N1237 1.279 . S
C1241 C1239 1.358 . S
C1241 H1299 0.930 . S
C1242 C1245 1.348 . S
C1242 C1246 1.356 . S
C1242 O1293 1.325 . S
C1243 N1244 1.279 . S
C1243 C1246 1.358 . S
C1243 H1300 0.930 . S
N1244 C1243 1.279 . S
N1244 C1247 1.314 . S
C1245 C1242 1.348 . S
C1245 C1247 1.353 . S
C1245 H1301 0.929 . S
C1246 C1242 1.356 . S
C1246 C1243 1.358 . S
C1246 H1302 0.930 . S
C1247 N1244 1.314 . S
C1247 C1245 1.353 . S
C1247 H1303 0.930 . S
C1248 N1249 1.314 . S
C1248 C1253 1.353 . S
C1248 H1254 0.930 . S
N1249 Li1232 1.990 . S
N1249 C1248 1.314 . S
N1249 C1251 1.279 . S
C1250 C1251 1.358 . S
C1250 C1252 1.356 . S
C1250 H1304 0.930 . S
C1251 N1249 1.279 . S
C1251 C1250 1.358 . S
C1251 H1255 0.930 . S
C1252 C1250 1.356 . S
C1252 C1253 1.348 . S
C1253 C1248 1.353 . S
C1253 C1252 1.348 . S
C1253 H1305 0.929 . S
H1254 C1248 0.930 . S
H1255 C1251 0.930 . S
C1256 N1257 1.314 . S
C1256 C1258 1.353 . S
C1256 H1262 0.930 . S
N1257 Li1233 1.990 . S
N1257 C1256 1.314 . S
N1257 C1260 1.279 . S
C1258 C1256 1.353 . S
C1258 C1261 1.348 . S
C1258 H1306 0.929 . S
C1259 C1260 1.358 . S
C1259 C1261 1.356 . S
C1259 H1307 0.930 . S
C1260 N1257 1.279 . S
C1260 C1259 1.358 . S
C1260 H1263 0.930 . S
C1261 C1258 1.348 . S
C1261 C1259 1.356 . S
H1262 C1256 0.930 . S
H1263 C1260 0.930 . S
C1264 C1266 1.348 . S
C1264 C1267 1.356 . S
C1264 O1294 1.325 . S
N1265 C1268 1.314 . S
N1265 C1269 1.279 . S
C1266 C1264 1.348 . S
C1266 C1268 1.353 . S
C1266 H1308 0.929 . S
C1267 C1264 1.356 . S
C1267 C1269 1.358 . S
C1267 H1309 0.930 . S
C1268 N1265 1.314 . S
C1268 C1266 1.353 . S
C1268 H1310 0.930 . S
C1269 N1265 1.279 . S
C1269 C1267 1.358 . S
C1269 H1311 0.930 . S
C1270 C1271 1.348 . S
C1270 C1272 1.356 . S
C1270 O1295 1.325 . S
C1271 C1270 1.348 . S
C1271 C1273 1.353 . S
C1271 H1312 0.929 . S
C1272 C1270 1.356 . S
C1272 C1274 1.358 . S
C1272 H1313 0.930 . S
C1273 C1271 1.353 . S
C1273 N1275 1.314 . S
C1273 H1314 0.930 . S
C1274 C1272 1.358 . S
C1274 N1275 1.279 . S
C1274 H1315 0.930 . S
N1275 C1273 1.314 . S
N1275 C1274 1.279 . S
C1276 C1278 1.353 . S
C1276 N1279 1.314 . S
C1276 H1282 0.930 . S
C1277 N1279 1.279 . S
C1277 C1280 1.358 . S
C1277 H1283 0.930 . S
C1278 C1276 1.353 . S
C1278 C1281 1.348 . S
C1278 H1316 0.929 . S
N1279 Li1234 1.990 . S
N1279 C1276 1.314 . S
N1279 C1277 1.279 . S
C1280 C1277 1.358 . S
C1280 C1281 1.356 . S
C1280 H1317 0.930 . S
C1281 C1278 1.348 . S
C1281 C1280 1.356 . S
H1282 C1276 0.930 . S
H1283 C1277 0.930 . S
C1284 N1285 1.314 . S
C1284 C1286 1.353 . S
C1284 H1290 0.930 . S
N1285 Li1235 1.990 . S
N1285 C1284 1.314 . S
N1285 C1288 1.279 . S
C1286 C1284 1.353 . S
C1286 C1289 1.348 . S
C1286 H1318 0.929 . S
C1287 C1288 1.358 . S
C1287 C1289 1.356 . S
C1287 H1319 0.930 . S
C1288 N1285 1.279 . S
C1288 C1287 1.358 . S
C1288 H1291 0.930 . S
C1289 C1286 1.348 . S
C1289 C1287 1.356 . S
H1290 C1284 0.930 . S
H1291 C1288 0.930 . S
O1292 Li1232 1.956 . S
O1292 Li1233 1.970 . S
O1292 Li1234 1.961 . S
O1292 C1236 1.325 . S
O1293 Li1232 1.970 . S
O1293 Li1233 1.956 . S
O1293 Li1235 1.961 . S
O1293 C1242 1.325 . S
O1294 Li1232 1.961 . S
O1294 Li1234 1.956 . S
O1294 Li1235 1.970 . S
O1294 C1264 1.325 . S
O1295 Li1233 1.961 . S
O1295 Li1234 1.970 . S
O1295 Li1235 1.956 . S
O1295 C1270 1.325 . S
H1296 C1238 0.929 . S
H1297 C1239 0.930 . S
H1298 C1240 0.930 . S
H1299 C1241 0.930 . S
H1300 C1243 0.930 . S
H1301 C1245 0.929 . S
H1302 C1246 0.930 . S
H1303 C1247 0.930 . S
H1304 C1250 0.930 . S
H1305 C1253 0.929 . S
H1306 C1258 0.929 . S
H1307 C1259 0.930 . S
H1308 C1266 0.929 . S
H1309 C1267 0.930 . S
H1310 C1268 0.930 . S
H1311 C1269 0.930 . S
H1312 C1271 0.929 . S
H1313 C1272 0.930 . S
H1314 C1273 0.930 . S
H1315 C1274 0.930 . S
H1316 C1278 0.929 . S
H1317 C1280 0.930 . S
H1318 C1286 0.929 . S
H1319 C1287 0.930 . S
Li1320 N1337 1.990 . S
Li1320 O1380 1.956 . S
Li1320 O1381 1.970 . S
Li1320 O1382 1.961 . S
Li1321 N1345 1.990 . S
Li1321 O1380 1.970 . S
Li1321 O1381 1.956 . S
Li1321 O1383 1.961 . S
Li1322 N1367 1.990 . S
Li1322 O1380 1.961 . S
Li1322 O1382 1.956 . S
Li1322 O1383 1.970 . S
Li1323 N1373 1.990 . S
Li1323 O1381 1.961 . S
Li1323 O1382 1.970 . S
Li1323 O1383 1.956 . S
C1324 C1326 1.348 . S
C1324 C1327 1.356 . S
C1324 O1380 1.325 . S
N1325 C1328 1.314 . S
N1325 C1329 1.279 . S
C1326 C1324 1.348 . S
C1326 C1328 1.353 . S
C1326 H1384 0.929 . S
C1327 C1324 1.356 . S
C1327 C1329 1.358 . S
C1327 H1385 0.930 . S
C1328 N1325 1.314 . S
C1328 C1326 1.353 . S
C1328 H1386 0.930 . S
C1329 N1325 1.279 . S
C1329 C1327 1.358 . S
C1329 H1387 0.930 . S
C1330 C1333 1.348 . S
C1330 C1334 1.356 . S
C1330 O1381 1.325 . S
C1331 N1332 1.279 . S
C1331 C1334 1.358 . S
C1331 H1388 0.930 . S
N1332 C1331 1.279 . S
N1332 C1335 1.314 . S
C1333 C1330 1.348 . S
C1333 C1335 1.353 . S
C1333 H1389 0.929 . S
C1334 C1330 1.356 . S
C1334 C1331 1.358 . S
C1334 H1390 0.930 . S
C1335 N1332 1.314 . S
C1335 C1333 1.353 . S
C1335 H1391 0.930 . S
C1336 N1337 1.314 . S
C1336 C1341 1.353 . S
C1336 H1342 0.930 . S
N1337 Li1320 1.990 . S
N1337 C1336 1.314 . S
N1337 C1339 1.279 . S
C1338 C1339 1.358 . S
C1338 C1340 1.356 . S
C1338 H1392 0.930 . S
C1339 N1337 1.279 . S
C1339 C1338 1.358 . S
C1339 H1343 0.930 . S
C1340 C1338 1.356 . S
C1340 C1341 1.348 . S
C1341 C1336 1.353 . S
C1341 C1340 1.348 . S
C1341 H1393 0.929 . S
H1342 C1336 0.930 . S
H1343 C1339 0.930 . S
C1344 N1345 1.314 . S
C1344 C1346 1.353 . S
C1344 H1350 0.930 . S
N1345 Li1321 1.990 . S
N1345 C1344 1.314 . S
N1345 C1348 1.279 . S
C1346 C1344 1.353 . S
C1346 C1349 1.348 . S
C1346 H1394 0.929 . S
C1347 C1348 1.358 . S
C1347 C1349 1.356 . S
C1347 H1395 0.930 . S
C1348 N1345 1.279 . S
C1348 C1347 1.358 . S
C1348 H1351 0.930 . S
C1349 C1346 1.348 . S
C1349 C1347 1.356 . S
H1350 C1344 0.930 . S
H1351 C1348 0.930 . S
C1352 C1354 1.348 . S
C1352 C1355 1.356 . S
C1352 O1382 1.325 . S
N1353 C1356 1.314 . S
N1353 C1357 1.279 . S
C1354 C1352 1.348 . S
C1354 C1356 1.353 . S
C1354 H1396 0.929 . S
C1355 C1352 1.356 . S
C1355 C1357 1.358 . S
C1355 H1397 0.930 . S
C1356 N1353 1.314 . S
C1356 C1354 1.353 . S
C1356 H1398 0.930 . S
C1357 N1353 1.279 . S
C1357 C1355 1.358 . S
C1357 H1399 0.930 . S
C1358 C1359 1.348 . S
C1358 C1360 1.356 . S
C1358 O1383 1.325 . S
C1359 C1358 1.348 . S
C1359 C1361 1.353 . S
C1359 H1400 0.929 . S
C1360 C1358 1.356 . S
C1360 C1362 1.358 . S
C1360 H1401 0.930 . S
C1361 C1359 1.353 . S
C1361 N1363 1.314 . S
C1361 H1402 0.930 . S
C1362 C1360 1.358 . S
C1362 N1363 1.279 . S
C1362 H1403 0.930 . S
N1363 C1361 1.314 . S
N1363 C1362 1.279 . S
C1364 C1366 1.353 . S
C1364 N1367 1.314 . S
C1364 H1370 0.930 . S
C1365 N1367 1.279 . S
C1365 C1368 1.358 . S
C1365 H1371 0.930 . S
C1366 C1364 1.353 . S
C1366 C1369 1.348 . S
C1366 H1404 0.929 . S
N1367 Li1322 1.990 . S
N1367 C1364 1.314 . S
N1367 C1365 1.279 . S
C1368 C1365 1.358 . S
C1368 C1369 1.356 . S
C1368 H1405 0.930 . S
C1369 C1366 1.348 . S
C1369 C1368 1.356 . S
H1370 C1364 0.930 . S
H1371 C1365 0.930 . S
C1372 N1373 1.314 . S
C1372 C1374 1.353 . S
C1372 H1378 0.930 . S
N1373 Li1323 1.990 . S
N1373 C1372 1.314 . S
N1373 C1376 1.279 . S
C1374 C1372 1.353 . S
C1374 C1377 1.348 . S
C1374 H1406 0.929 . S
C1375 C1376 1.358 . S
C1375 C1377 1.356 . S
C1375 H1407 0.930 . S
C1376 N1373 1.279 . S
C1376 C1375 1.358 . S
C1376 H1379 0.930 . S
C1377 C1374 1.348 . S
C1377 C1375 1.356 . S
H1378 C1372 0.930 . S
H1379 C1376 0.930 . S
O1380 Li1320 1.956 . S
O1380 Li1321 1.970 . S
O1380 Li1322 1.961 . S
O1380 C1324 1.325 . S
O1381 Li1320 1.970 . S
O1381 Li1321 1.956 . S
O1381 Li1323 1.961 . S
O1381 C1330 1.325 . S
O1382 Li1320 1.961 . S
O1382 Li1322 1.956 . S
O1382 Li1323 1.970 . S
O1382 C1352 1.325 . S
O1383 Li1321 1.961 . S
O1383 Li1322 1.970 . S
O1383 Li1323 1.956 . S
O1383 C1358 1.325 . S
H1384 C1326 0.929 . S
H1385 C1327 0.930 . S
H1386 C1328 0.930 . S
H1387 C1329 0.930 . S
H1388 C1331 0.930 . S
H1389 C1333 0.929 . S
H1390 C1334 0.930 . S
H1391 C1335 0.930 . S
H1392 C1338 0.930 . S
H1393 C1341 0.929 . S
H1394 C1346 0.929 . S
H1395 C1347 0.930 . S
H1396 C1354 0.929 . S
H1397 C1355 0.930 . S
H1398 C1356 0.930 . S
H1399 C1357 0.930 . S
H1400 C1359 0.929 . S
H1401 C1360 0.930 . S
H1402 C1361 0.930 . S
H1403 C1362 0.930 . S
H1404 C1366 0.929 . S
H1405 C1368 0.930 . S
H1406 C1374 0.929 . S
H1407 C1375 0.930 . S
Li1408 N1425 1.990 . S
Li1408 O1468 1.956 . S
Li1408 O1469 1.970 . S
Li1408 O1470 1.961 . S
Li1409 N1433 1.990 . S
Li1409 O1468 1.970 . S
Li1409 O1469 1.956 . S
Li1409 O1471 1.961 . S
Li1410 N1455 1.990 . S
Li1410 O1468 1.961 . S
Li1410 O1470 1.956 . S
Li1410 O1471 1.970 . S
Li1411 N1461 1.990 1_545 S
Li1411 O1469 1.961 . S
Li1411 O1470 1.970 . S
Li1411 O1471 1.956 . S
C1412 C1414 1.348 . S
C1412 C1415 1.356 . S
C1412 O1468 1.325 . S
N1413 C1416 1.314 . S
N1413 C1417 1.279 . S
C1414 C1412 1.348 . S
C1414 C1416 1.353 . S
C1414 H1472 0.929 . S
C1415 C1412 1.356 . S
C1415 C1417 1.358 . S
C1415 H1473 0.930 . S
C1416 N1413 1.314 . S
C1416 C1414 1.353 . S
C1416 H1474 0.930 . S
C1417 N1413 1.279 . S
C1417 C1415 1.358 . S
C1417 H1475 0.930 . S
C1418 C1421 1.348 . S
C1418 C1422 1.356 . S
C1418 O1469 1.325 1_565 S
C1419 N1420 1.279 . S
C1419 C1422 1.358 . S
C1419 H1476 0.930 . S
N1420 C1419 1.279 . S
N1420 C1423 1.314 . S
C1421 C1418 1.348 . S
C1421 C1423 1.353 . S
C1421 H1477 0.929 1_565 S
C1422 C1418 1.356 . S
C1422 C1419 1.358 . S
C1422 H1478 0.930 . S
C1423 N1420 1.314 . S
C1423 C1421 1.353 . S
C1423 H1479 0.930 . S
C1424 N1425 1.314 . S
C1424 C1429 1.353 . S
C1424 H1430 0.930 1_545 S
N1425 Li1408 1.990 . S
N1425 C1424 1.314 . S
N1425 C1427 1.279 . S
C1426 C1427 1.358 . S
C1426 C1428 1.356 . S
C1426 H1480 0.930 . S
C1427 N1425 1.279 . S
C1427 C1426 1.358 . S
C1427 H1431 0.930 . S
C1428 C1426 1.356 . S
C1428 C1429 1.348 . S
C1429 C1424 1.353 . S
C1429 C1428 1.348 . S
C1429 H1481 0.929 1_545 S
H1430 C1424 0.930 1_565 S
H1431 C1427 0.930 . S
C1432 N1433 1.314 . S
C1432 C1434 1.353 . S
C1432 H1438 0.930 . S
N1433 Li1409 1.990 . S
N1433 C1432 1.314 . S
N1433 C1436 1.279 . S
C1434 C1432 1.353 . S
C1434 C1437 1.348 . S
C1434 H1482 0.929 . S
C1435 C1436 1.358 . S
C1435 C1437 1.356 . S
C1435 H1483 0.930 . S
C1436 N1433 1.279 . S
C1436 C1435 1.358 . S
C1436 H1439 0.930 . S
C1437 C1434 1.348 . S
C1437 C1435 1.356 . S
H1438 C1432 0.930 . S
H1439 C1436 0.930 . S
C1440 C1442 1.348 1_545 S
C1440 C1443 1.356 . S
C1440 O1470 1.325 . S
N1441 C1444 1.314 . S
N1441 C1445 1.279 1_565 S
C1442 C1440 1.348 1_565 S
C1442 C1444 1.353 . S
C1442 H1484 0.929 . S
C1443 C1440 1.356 . S
C1443 C1445 1.358 . S
C1443 H1485 0.930 . S
C1444 N1441 1.314 . S
C1444 C1442 1.353 . S
C1444 H1486 0.930 . S
C1445 N1441 1.279 1_545 S
C1445 C1443 1.358 . S
C1445 H1487 0.930 . S
C1446 C1447 1.348 . S
C1446 C1448 1.356 . S
C1446 O1471 1.325 . S
C1447 C1446 1.348 . S
C1447 C1449 1.353 . S
C1447 H1488 0.929 . S
C1448 C1446 1.356 . S
C1448 C1450 1.358 . S
C1448 H1489 0.930 . S
C1449 C1447 1.353 . S
C1449 N1451 1.314 . S
C1449 H1490 0.930 . S
C1450 C1448 1.358 . S
C1450 N1451 1.279 . S
C1450 H1491 0.930 . S
N1451 C1449 1.314 . S
N1451 C1450 1.279 . S
C1452 C1454 1.353 . S
C1452 N1455 1.314 . S
C1452 H1458 0.930 . S
C1453 N1455 1.279 . S
C1453 C1456 1.358 . S
C1453 H1459 0.930 . S
C1454 C1452 1.353 . S
C1454 C1457 1.348 . S
C1454 H1492 0.929 . S
N1455 Li1410 1.990 . S
N1455 C1452 1.314 . S
N1455 C1453 1.279 . S
C1456 C1453 1.358 . S
C1456 C1457 1.356 . S
C1456 H1493 0.930 . S
C1457 C1454 1.348 . S
C1457 C1456 1.356 . S
H1458 C1452 0.930 . S
H1459 C1453 0.930 . S
C1460 N1461 1.314 . S
C1460 C1462 1.353 . S
C1460 H1466 0.930 . S
N1461 Li1411 1.990 1_565 S
N1461 C1460 1.314 . S
N1461 C1464 1.279 . S
C1462 C1460 1.353 . S
C1462 C1465 1.348 . S
C1462 H1494 0.929 . S
C1463 C1464 1.358 . S
C1463 C1465 1.356 . S
C1463 H1495 0.930 . S
C1464 N1461 1.279 . S
C1464 C1463 1.358 . S
C1464 H1467 0.930 . S
C1465 C1462 1.348 . S
C1465 C1463 1.356 . S
H1466 C1460 0.930 . S
H1467 C1464 0.930 . S
O1468 Li1408 1.956 . S
O1468 Li1409 1.970 . S
O1468 Li1410 1.961 . S
O1468 C1412 1.325 . S
O1469 Li1408 1.970 . S
O1469 Li1409 1.956 . S
O1469 Li1411 1.961 . S
O1469 C1418 1.325 1_545 S
O1470 Li1408 1.961 . S
O1470 Li1410 1.956 . S
O1470 Li1411 1.970 . S
O1470 C1440 1.325 . S
O1471 Li1409 1.961 . S
O1471 Li1410 1.970 . S
O1471 Li1411 1.956 . S
O1471 C1446 1.325 . S
H1472 C1414 0.929 . S
H1473 C1415 0.930 . S
H1474 C1416 0.930 . S
H1475 C1417 0.930 . S
H1476 C1419 0.930 . S
H1477 C1421 0.929 1_545 S
H1478 C1422 0.930 . S
H1479 C1423 0.930 . S
H1480 C1426 0.930 . S
H1481 C1429 0.929 1_565 S
H1482 C1434 0.929 . S
H1483 C1435 0.930 . S
H1484 C1442 0.929 . S
H1485 C1443 0.930 . S
H1486 C1444 0.930 . S
H1487 C1445 0.930 . S
H1488 C1447 0.929 . S
H1489 C1448 0.930 . S
H1490 C1449 0.930 . S
H1491 C1450 0.930 . S
H1492 C1454 0.929 . S
H1493 C1456 0.930 . S
H1494 C1462 0.929 . S
H1495 C1463 0.930 . S
Li1496 N1513 1.990 . S
Li1496 O1556 1.956 . S
Li1496 O1557 1.970 . S
Li1496 O1558 1.961 . S
Li1497 N1521 1.990 . S
Li1497 O1556 1.970 . S
Li1497 O1557 1.956 . S
Li1497 O1559 1.961 . S
Li1498 N1543 1.990 1_655 S
Li1498 O1556 1.961 . S
Li1498 O1558 1.956 . S
Li1498 O1559 1.970 . S
Li1499 N1549 1.990 . S
Li1499 O1557 1.961 . S
Li1499 O1558 1.970 . S
Li1499 O1559 1.956 . S
C1500 C1502 1.348 . S
C1500 C1503 1.356 . S
C1500 O1556 1.325 1_455 S
N1501 C1504 1.314 . S
N1501 C1505 1.279 . S
C1502 C1500 1.348 . S
C1502 C1504 1.353 . S
C1502 H1560 0.929 1_455 S
C1503 C1500 1.356 . S
C1503 C1505 1.358 . S
C1503 H1561 0.930 . S
C1504 N1501 1.314 . S
C1504 C1502 1.353 . S
C1504 H1562 0.930 . S
C1505 N1501 1.279 . S
C1505 C1503 1.358 . S
C1505 H1563 0.930 . S
C1506 C1509 1.348 . S
C1506 C1510 1.356 . S
C1506 O1557 1.325 . S
C1507 N1508 1.279 . S
C1507 C1510 1.358 . S
C1507 H1564 0.930 . S
N1508 C1507 1.279 . S
N1508 C1511 1.314 . S
C1509 C1506 1.348 . S
C1509 C1511 1.353 . S
C1509 H1565 0.929 . S
C1510 C1506 1.356 . S
C1510 C1507 1.358 . S
C1510 H1566 0.930 . S
C1511 N1508 1.314 . S
C1511 C1509 1.353 . S
C1511 H1567 0.930 . S
C1512 N1513 1.314 . S
C1512 C1517 1.353 . S
C1512 H1518 0.930 . S
N1513 Li1496 1.990 . S
N1513 C1512 1.314 . S
N1513 C1515 1.279 . S
C1514 C1515 1.358 . S
C1514 C1516 1.356 . S
C1514 H1568 0.930 . S
C1515 N1513 1.279 . S
C1515 C1514 1.358 . S
C1515 H1519 0.930 . S
C1516 C1514 1.356 . S
C1516 C1517 1.348 . S
C1517 C1512 1.353 . S
C1517 C1516 1.348 . S
C1517 H1569 0.929 . S
H1518 C1512 0.930 . S
H1519 C1515 0.930 . S
C1520 N1521 1.314 . S
C1520 C1522 1.353 . S
C1520 H1526 0.930 1_655 S
N1521 Li1497 1.990 . S
N1521 C1520 1.314 . S
N1521 C1524 1.279 . S
C1522 C1520 1.353 . S
C1522 C1525 1.348 . S
C1522 H1570 0.929 1_655 S
C1523 C1524 1.358 . S
C1523 C1525 1.356 . S
C1523 H1571 0.930 . S
C1524 N1521 1.279 . S
C1524 C1523 1.358 . S
C1524 H1527 0.930 . S
C1525 C1522 1.348 . S
C1525 C1523 1.356 . S
H1526 C1520 0.930 1_455 S
H1527 C1524 0.930 . S
C1528 C1530 1.348 . S
C1528 C1531 1.356 . S
C1528 O1558 1.325 . S
N1529 C1532 1.314 . S
N1529 C1533 1.279 . S
C1530 C1528 1.348 . S
C1530 C1532 1.353 . S
C1530 H1572 0.929 . S
C1531 C1528 1.356 . S
C1531 C1533 1.358 . S
C1531 H1573 0.930 . S
C1532 N1529 1.314 . S
C1532 C1530 1.353 . S
C1532 H1574 0.930 . S
C1533 N1529 1.279 . S
C1533 C1531 1.358 . S
C1533 H1575 0.930 . S
C1534 C1535 1.348 1_655 S
C1534 C1536 1.356 . S
C1534 O1559 1.325 . S
C1535 C1534 1.348 1_455 S
C1535 C1537 1.353 . S
C1535 H1576 0.929 . S
C1536 C1534 1.356 . S
C1536 C1538 1.358 . S
C1536 H1577 0.930 . S
C1537 C1535 1.353 . S
C1537 N1539 1.314 . S
C1537 H1578 0.930 . S
C1538 C1536 1.358 . S
C1538 N1539 1.279 1_655 S
C1538 H1579 0.930 . S
N1539 C1537 1.314 . S
N1539 C1538 1.279 1_455 S
C1540 C1542 1.353 . S
C1540 N1543 1.314 . S
C1540 H1546 0.930 . S
C1541 N1543 1.279 . S
C1541 C1544 1.358 . S
C1541 H1547 0.930 . S
C1542 C1540 1.353 . S
C1542 C1545 1.348 . S
C1542 H1580 0.929 . S
N1543 Li1498 1.990 1_455 S
N1543 C1540 1.314 . S
N1543 C1541 1.279 . S
C1544 C1541 1.358 . S
C1544 C1545 1.356 . S
C1544 H1581 0.930 . S
C1545 C1542 1.348 . S
C1545 C1544 1.356 . S
H1546 C1540 0.930 . S
H1547 C1541 0.930 . S
C1548 N1549 1.314 . S
C1548 C1550 1.353 . S
C1548 H1554 0.930 . S
N1549 Li1499 1.990 . S
N1549 C1548 1.314 . S
N1549 C1552 1.279 . S
C1550 C1548 1.353 . S
C1550 C1553 1.348 . S
C1550 H1582 0.929 . S
C1551 C1552 1.358 . S
C1551 C1553 1.356 . S
C1551 H1583 0.930 . S
C1552 N1549 1.279 . S
C1552 C1551 1.358 . S
C1552 H1555 0.930 . S
C1553 C1550 1.348 . S
C1553 C1551 1.356 . S
H1554 C1548 0.930 . S
H1555 C1552 0.930 . S
O1556 Li1496 1.956 . S
O1556 Li1497 1.970 . S
O1556 Li1498 1.961 . S
O1556 C1500 1.325 1_655 S
O1557 Li1496 1.970 . S
O1557 Li1497 1.956 . S
O1557 Li1499 1.961 . S
O1557 C1506 1.325 . S
O1558 Li1496 1.961 . S
O1558 Li1498 1.956 . S
O1558 Li1499 1.970 . S
O1558 C1528 1.325 . S
O1559 Li1497 1.961 . S
O1559 Li1498 1.970 . S
O1559 Li1499 1.956 . S
O1559 C1534 1.325 . S
H1560 C1502 0.929 1_655 S
H1561 C1503 0.930 . S
H1562 C1504 0.930 . S
H1563 C1505 0.930 . S
H1564 C1507 0.930 . S
H1565 C1509 0.929 . S
H1566 C1510 0.930 . S
H1567 C1511 0.930 . S
H1568 C1514 0.930 . S
H1569 C1517 0.929 . S
H1570 C1522 0.929 1_455 S
H1571 C1523 0.930 . S
H1572 C1530 0.929 . S
H1573 C1531 0.930 . S
H1574 C1532 0.930 . S
H1575 C1533 0.930 . S
H1576 C1535 0.929 . S
H1577 C1536 0.930 . S
H1578 C1537 0.930 . S
H1579 C1538 0.930 . S
H1580 C1542 0.929 . S
H1581 C1544 0.930 . S
H1582 C1550 0.929 . S
H1583 C1551 0.930 . S
H1584 C1590 0.930 . S
H1585 C1593 0.931 . S
H1586 C1595 0.931 . S
H1587 C1597 0.930 . S
H1588 C1599 0.930 . S
H1589 C1601 0.931 . S
C1590 H1584 0.930 . S
C1590 C1591 1.380 . S
C1590 C1592 1.394 . S
C1591 C1590 1.380 . S
C1591 C1595 1.382 . S
C1592 C1590 1.394 . S
C1592 C1593 1.400 . S
C1593 H1585 0.931 . S
C1593 C1592 1.400 . S
C1593 C1594 1.375 . S
C1594 C1593 1.375 . S
C1594 C1595 1.415 . S
C1594 C1596 1.501 . S
C1595 H1586 0.931 . S
C1595 C1591 1.382 . S
C1595 C1594 1.415 . S
C1596 C1594 1.501 . S
C1596 C1597 1.384 . S
C1596 C1601 1.408 . S
C1597 H1587 0.930 . S
C1597 C1596 1.384 . S
C1597 C1598 1.389 . S
C1598 C1597 1.389 . S
C1598 C1599 1.405 . S
C1599 H1588 0.930 . S
C1599 C1598 1.405 . S
C1599 C1600 1.364 . S
C1600 C1599 1.364 . S
C1600 C1601 1.400 . S
C1601 H1589 0.931 . S
C1601 C1596 1.408 . S
C1601 C1600 1.400 . S
H1602 C1608 0.930 . S
H1603 C1611 0.931 . S
H1604 C1613 0.931 . S
H1605 C1615 0.930 . S
H1606 C1617 0.930 . S
H1607 C1619 0.931 . S
C1608 H1602 0.930 . S
C1608 C1609 1.380 . S
C1608 C1610 1.394 . S
C1609 C1608 1.380 . S
C1609 C1613 1.382 . S
C1610 C1608 1.394 . S
C1610 C1611 1.400 . S
C1611 H1603 0.931 . S
C1611 C1610 1.400 . S
C1611 C1612 1.375 . S
C1612 C1611 1.375 . S
C1612 C1613 1.415 . S
C1612 C1614 1.501 . S
C1613 H1604 0.931 . S
C1613 C1609 1.382 . S
C1613 C1612 1.415 . S
C1614 C1612 1.501 . S
C1614 C1615 1.384 . S
C1614 C1619 1.408 . S
C1615 H1605 0.930 . S
C1615 C1614 1.384 . S
C1615 C1616 1.389 . S
C1616 C1615 1.389 . S
C1616 C1617 1.405 . S
C1617 H1606 0.930 . S
C1617 C1616 1.405 . S
C1617 C1618 1.364 . S
C1618 C1617 1.364 . S
C1618 C1619 1.400 . S
C1619 H1607 0.931 . S
C1619 C1614 1.408 . S
C1619 C1618 1.400 . S
H1620 C1626 0.930 . S
H1621 C1629 0.931 . S
H1622 C1631 0.931 . S
H1623 C1633 0.930 . S
H1624 C1635 0.930 . S
H1625 C1637 0.931 . S
C1626 H1620 0.930 . S
C1626 C1627 1.380 . S
C1626 C1628 1.394 . S
C1627 C1626 1.380 . S
C1627 C1631 1.382 . S
C1628 C1626 1.394 . S
C1628 C1629 1.400 . S
C1629 H1621 0.931 . S
C1629 C1628 1.400 . S
C1629 C1630 1.375 . S
C1630 C1629 1.375 . S
C1630 C1631 1.415 . S
C1630 C1632 1.501 . S
C1631 H1622 0.931 . S
C1631 C1627 1.382 . S
C1631 C1630 1.415 . S
C1632 C1630 1.501 . S
C1632 C1633 1.384 . S
C1632 C1637 1.408 . S
C1633 H1623 0.930 . S
C1633 C1632 1.384 . S
C1633 C1634 1.389 . S
C1634 C1633 1.389 . S
C1634 C1635 1.405 . S
C1635 H1624 0.930 . S
C1635 C1634 1.405 . S
C1635 C1636 1.364 . S
C1636 C1635 1.364 . S
C1636 C1637 1.400 . S
C1637 H1625 0.931 . S
C1637 C1632 1.408 . S
C1637 C1636 1.400 . S
H1638 C1644 0.930 . S
H1639 C1647 0.931 . S
H1640 C1649 0.931 . S
H1641 C1651 0.930 . S
H1642 C1653 0.930 . S
H1643 C1655 0.931 . S
C1644 H1638 0.930 . S
C1644 C1645 1.380 . S
C1644 C1646 1.394 . S
C1645 C1644 1.380 . S
C1645 C1649 1.382 . S
C1646 C1644 1.394 . S
C1646 C1647 1.400 . S
C1647 H1639 0.931 . S
C1647 C1646 1.400 . S
C1647 C1648 1.375 . S
C1648 C1647 1.375 . S
C1648 C1649 1.415 . S
C1648 C1650 1.501 . S
C1649 H1640 0.931 . S
C1649 C1645 1.382 . S
C1649 C1648 1.415 . S
C1650 C1648 1.501 . S
C1650 C1651 1.384 . S
C1650 C1655 1.408 . S
C1651 H1641 0.930 . S
C1651 C1650 1.384 . S
C1651 C1652 1.389 . S
C1652 C1651 1.389 . S
C1652 C1653 1.405 . S
C1653 H1642 0.930 . S
C1653 C1652 1.405 . S
C1653 C1654 1.364 . S
C1654 C1653 1.364 . S
C1654 C1655 1.400 . S
C1655 H1643 0.931 . S
C1655 C1650 1.408 . S
C1655 C1654 1.400 . S
H1656 C1662 0.930 . S
H1657 C1665 0.931 . S
H1658 C1667 0.931 . S
H1659 C1669 0.930 . S
H1660 C1671 0.930 . S
H1661 C1673 0.931 . S
C1662 H1656 0.930 . S
C1662 C1663 1.380 . S
C1662 C1664 1.394 . S
C1663 C1662 1.380 . S
C1663 C1667 1.382 . S
C1664 C1662 1.394 . S
C1664 C1665 1.400 . S
C1665 H1657 0.931 . S
C1665 C1664 1.400 . S
C1665 C1666 1.375 . S
C1666 C1665 1.375 . S
C1666 C1667 1.415 . S
C1666 C1668 1.501 . S
C1667 H1658 0.931 . S
C1667 C1663 1.382 . S
C1667 C1666 1.415 . S
C1668 C1666 1.501 . S
C1668 C1669 1.384 . S
C1668 C1673 1.408 . S
C1669 H1659 0.930 . S
C1669 C1668 1.384 . S
C1669 C1670 1.389 . S
C1670 C1669 1.389 . S
C1670 C1671 1.405 . S
C1671 H1660 0.930 . S
C1671 C1670 1.405 . S
C1671 C1672 1.364 . S
C1672 C1671 1.364 . S
C1672 C1673 1.400 . S
C1673 H1661 0.931 . S
C1673 C1668 1.408 . S
C1673 C1672 1.400 . S
H1674 C1680 0.930 . S
H1675 C1683 0.931 . S
H1676 C1685 0.931 . S
H1677 C1687 0.930 . S
H1678 C1689 0.930 . S
H1679 C1691 0.931 . S
C1680 H1674 0.930 . S
C1680 C1681 1.380 . S
C1680 C1682 1.394 . S
C1681 C1680 1.380 . S
C1681 C1685 1.382 . S
C1682 C1680 1.394 . S
C1682 C1683 1.400 . S
C1683 H1675 0.931 . S
C1683 C1682 1.400 . S
C1683 C1684 1.375 . S
C1684 C1683 1.375 . S
C1684 C1685 1.415 . S
C1684 C1686 1.501 . S
C1685 H1676 0.931 . S
C1685 C1681 1.382 . S
C1685 C1684 1.415 . S
C1686 C1684 1.501 . S
C1686 C1687 1.384 . S
C1686 C1691 1.408 . S
C1687 H1677 0.930 . S
C1687 C1686 1.384 . S
C1687 C1688 1.389 . S
C1688 C1687 1.389 . S
C1688 C1689 1.405 . S
C1689 H1678 0.930 . S
C1689 C1688 1.405 . S
C1689 C1690 1.364 . S
C1690 C1689 1.364 . S
C1690 C1691 1.400 . S
C1691 H1679 0.931 . S
C1691 C1686 1.408 . S
C1691 C1690 1.400 . S
H1692 C1698 0.930 . S
H1693 C1701 0.931 . S
H1694 C1703 0.931 . S
H1695 C1705 0.930 . S
H1696 C1707 0.930 . S
H1697 C1709 0.931 . S
C1698 H1692 0.930 . S
C1698 C1699 1.380 . S
C1698 C1700 1.394 . S
C1699 C1698 1.380 . S
C1699 C1703 1.382 . S
C1700 C1698 1.394 . S
C1700 C1701 1.400 . S
C1701 H1693 0.931 . S
C1701 C1700 1.400 . S
C1701 C1702 1.375 . S
C1702 C1701 1.375 . S
C1702 C1703 1.415 . S
C1702 C1704 1.501 . S
C1703 H1694 0.931 . S
C1703 C1699 1.382 . S
C1703 C1702 1.415 . S
C1704 C1702 1.501 . S
C1704 C1705 1.384 . S
C1704 C1709 1.408 . S
C1705 H1695 0.930 . S
C1705 C1704 1.384 . S
C1705 C1706 1.389 . S
C1706 C1705 1.389 . S
C1706 C1707 1.405 . S
C1707 H1696 0.930 . S
C1707 C1706 1.405 . S
C1707 C1708 1.364 . S
C1708 C1707 1.364 . S
C1708 C1709 1.400 . S
C1709 H1697 0.931 . S
C1709 C1704 1.408 . S
C1709 C1708 1.400 . S
H1710 C1716 0.930 . S
H1711 C1719 0.931 . S
H1712 C1721 0.931 . S
H1713 C1723 0.930 . S
H1714 C1725 0.930 . S
H1715 C1727 0.931 . S
C1716 H1710 0.930 . S
C1716 C1717 1.380 . S
C1716 C1718 1.394 . S
C1717 C1716 1.380 . S
C1717 C1721 1.382 . S
C1718 C1716 1.394 . S
C1718 C1719 1.400 . S
C1719 H1711 0.931 . S
C1719 C1718 1.400 . S
C1719 C1720 1.375 . S
C1720 C1719 1.375 . S
C1720 C1721 1.415 . S
C1720 C1722 1.501 . S
C1721 H1712 0.931 . S
C1721 C1717 1.382 . S
C1721 C1720 1.415 . S
C1722 C1720 1.501 . S
C1722 C1723 1.384 . S
C1722 C1727 1.408 . S
C1723 H1713 0.930 . S
C1723 C1722 1.384 . S
C1723 C1724 1.389 . S
C1724 C1723 1.389 . S
C1724 C1725 1.405 . S
C1725 H1714 0.930 . S
C1725 C1724 1.405 . S
C1725 C1726 1.364 . S
C1726 C1725 1.364 . S
C1726 C1727 1.400 . S
C1727 H1715 0.931 . S
C1727 C1722 1.408 . S
C1727 C1726 1.400 . S
H1728 C1734 0.930 . S
H1729 C1737 0.931 . S
H1730 C1739 0.931 . S
H1731 C1741 0.930 . S
H1732 C1743 0.930 . S
H1733 C1745 0.931 . S
C1734 H1728 0.930 . S
C1734 C1735 1.380 . S
C1734 C1736 1.394 . S
C1735 C1734 1.380 . S
C1735 C1739 1.382 . S
C1736 C1734 1.394 . S
C1736 C1737 1.400 . S
C1737 H1729 0.931 . S
C1737 C1736 1.400 . S
C1737 C1738 1.375 . S
C1738 C1737 1.375 . S
C1738 C1739 1.415 . S
C1738 C1740 1.501 . S
C1739 H1730 0.931 . S
C1739 C1735 1.382 . S
C1739 C1738 1.415 . S
C1740 C1738 1.501 . S
C1740 C1741 1.384 . S
C1740 C1745 1.408 . S
C1741 H1731 0.930 . S
C1741 C1740 1.384 . S
C1741 C1742 1.389 . S
C1742 C1741 1.389 . S
C1742 C1743 1.405 . S
C1743 H1732 0.930 . S
C1743 C1742 1.405 . S
C1743 C1744 1.364 . S
C1744 C1743 1.364 . S
C1744 C1745 1.400 . S
C1745 H1733 0.931 . S
C1745 C1740 1.408 . S
C1745 C1744 1.400 . S
H1746 C1752 0.924 . S
H1747 C1755 0.931 . S
H1748 C1757 0.931 . S
H1749 C1759 0.930 . S
H1750 C1761 0.930 . S
H1751 C1763 0.941 . S
C1752 H1746 0.924 . S
C1752 C1753 1.385 . S
C1752 C1754 1.395 1_655 S
C1753 C1752 1.385 . S
C1753 C1757 1.382 . S
C1754 C1752 1.395 1_455 S
C1754 C1755 1.400 . S
C1755 H1747 0.931 . S
C1755 C1754 1.400 . S
C1755 C1756 1.375 . S
C1756 C1755 1.375 . S
C1756 C1757 1.415 1_455 S
C1756 C1758 1.501 . S
C1757 H1748 0.931 . S
C1757 C1753 1.382 . S
C1757 C1756 1.415 1_655 S
C1758 C1756 1.501 . S
C1758 C1759 1.384 . S
C1758 C1763 1.425 . S
C1759 H1749 0.930 . S
C1759 C1758 1.384 . S
C1759 C1760 1.436 . S
C1760 C1759 1.436 . S
C1760 C1761 1.386 . S
C1761 H1750 0.930 . S
C1761 C1760 1.386 . S
C1761 C1762 1.356 . S
C1762 C1761 1.356 . S
C1762 C1763 1.393 . S
C1763 H1751 0.941 . S
C1763 C1758 1.425 . S
C1763 C1762 1.393 . S
H1764 C1770 0.930 . S
H1765 C1773 0.931 . S
H1766 C1775 0.931 . S
H1767 C1777 0.930 . S
H1768 C1779 0.930 . S
H1769 C1781 0.931 . S
C1770 H1764 0.930 . S
C1770 C1771 1.380 . S
C1770 C1772 1.394 . S
C1771 C1770 1.380 . S
C1771 C1775 1.382 . S
C1772 C1770 1.394 . S
C1772 C1773 1.400 . S
C1773 H1765 0.931 . S
C1773 C1772 1.400 . S
C1773 C1774 1.375 . S
C1774 C1773 1.375 . S
C1774 C1775 1.415 . S
C1774 C1776 1.501 . S
C1775 H1766 0.931 . S
C1775 C1771 1.382 . S
C1775 C1774 1.415 . S
C1776 C1774 1.501 . S
C1776 C1777 1.384 . S
C1776 C1781 1.408 . S
C1777 H1767 0.930 . S
C1777 C1776 1.384 . S
C1777 C1778 1.389 . S
C1778 C1777 1.389 . S
C1778 C1779 1.405 . S
C1779 H1768 0.930 . S
C1779 C1778 1.405 . S
C1779 C1780 1.364 . S
C1780 C1779 1.364 . S
C1780 C1781 1.400 . S
C1781 H1769 0.931 . S
C1781 C1776 1.408 . S
C1781 C1780 1.400 . S
H1782 C1788 0.945 . S
H1783 C1791 0.931 . S
H1784 C1793 0.931 . S
H1785 C1795 0.930 . S
H1786 C1797 0.930 . S
H1787 C1799 0.919 . S
C1788 H1782 0.945 . S
C1788 C1789 1.377 . S
C1788 C1790 1.383 1_545 S
C1789 C1788 1.377 . S
C1789 C1793 1.382 . S
C1790 C1788 1.383 1_565 S
C1790 C1791 1.400 . S
C1791 H1783 0.931 . S
C1791 C1790 1.400 . S
C1791 C1792 1.375 . S
C1792 C1791 1.375 . S
C1792 C1793 1.415 1_565 S
C1792 C1794 1.501 . S
C1793 H1784 0.931 . S
C1793 C1789 1.382 . S
C1793 C1792 1.415 1_545 S
C1794 C1792 1.501 . S
C1794 C1795 1.384 . S
C1794 C1799 1.396 . S
C1795 H1785 0.930 . S
C1795 C1794 1.384 . S
C1795 C1796 1.389 . S
C1796 C1795 1.389 . S
C1796 C1797 1.405 . S
C1797 H1786 0.930 . S
C1797 C1796 1.405 . S
C1797 C1798 1.380 . S
C1798 C1797 1.380 . S
C1798 C1799 1.405 . S
C1799 H1787 0.919 . S
C1799 C1794 1.396 . S
C1799 C1798 1.405 . S
H1800 C1806 0.915 . S
H1801 C1809 0.931 . S
H1802 C1811 0.927 . S
H1803 C1813 0.930 . S
H1804 C1815 0.900 . S
H1805 C1817 0.931 . S
C1806 H1800 0.915 . S
C1806 C1807 1.387 . S
C1806 C1808 1.411 1_545 S
C1807 C1806 1.387 . S
C1807 C1811 1.398 1_545 S
C1808 C1806 1.411 1_565 S
C1808 C1809 1.383 . S
C1809 H1801 0.931 . S
C1809 C1808 1.383 . S
C1809 C1810 1.375 . S
C1810 C1809 1.375 . S
C1810 C1811 1.410 . S
C1810 C1812 1.501 . S
C1811 H1802 0.927 . S
C1811 C1807 1.398 1_565 S
C1811 C1810 1.410 . S
C1812 C1810 1.501 . S
C1812 C1813 1.384 . S
C1812 C1817 1.408 1_565 S
C1813 H1803 0.930 . S
C1813 C1812 1.384 . S
C1813 C1814 1.389 . S
C1814 C1813 1.389 . S
C1814 C1815 1.432 . S
C1815 H1804 0.900 . S
C1815 C1814 1.432 . S
C1815 C1816 1.372 1_565 S
C1816 C1815 1.372 1_545 S
C1816 C1817 1.400 . S
C1817 H1805 0.931 . S
C1817 C1812 1.408 1_545 S
C1817 C1816 1.400 . S
H1818 C1824 0.957 . S
H1819 C1827 0.931 . S
H1820 C1829 0.934 . S
H1821 C1831 0.930 . S
H1822 C1833 0.976 . S
H1823 C1835 0.931 . S
C1824 H1818 0.957 . S
C1824 C1825 1.372 . S
C1824 C1826 1.374 1_655 S
C1825 C1824 1.372 . S
C1825 C1829 1.362 1_655 S
C1826 C1824 1.374 1_455 S
C1826 C1827 1.416 . S
C1827 H1819 0.931 . S
C1827 C1826 1.416 . S
C1827 C1828 1.375 . S
C1828 C1827 1.375 . S
C1828 C1829 1.421 . S
C1828 C1830 1.501 . S
C1829 H1820 0.934 . S
C1829 C1825 1.362 1_455 S
C1829 C1828 1.421 . S
C1830 C1828 1.501 . S
C1830 C1831 1.384 . S
C1830 C1835 1.408 1_455 S
C1831 H1821 0.930 . S
C1831 C1830 1.384 . S
C1831 C1832 1.389 . S
C1832 C1831 1.389 . S
C1832 C1833 1.397 . S
C1833 H1822 0.976 . S
C1833 C1832 1.397 . S
C1833 C1834 1.332 1_455 S
C1834 C1833 1.332 1_655 S
C1834 C1835 1.400 . S
C1835 H1823 0.931 . S
C1835 C1830 1.408 1_655 S
C1835 C1834 1.400 . S
H1836 C1842 0.930 . S
H1837 C1845 0.931 . S
H1838 C1847 0.931 . S
H1839 C1849 0.930 . S
H1840 C1851 0.930 . S
H1841 C1853 0.931 . S
C1842 H1836 0.930 . S
C1842 C1843 1.380 . S
C1842 C1844 1.394 . S
C1843 C1842 1.380 . S
C1843 C1847 1.382 . S
C1844 C1842 1.394 . S
C1844 C1845 1.400 . S
C1845 H1837 0.931 . S
C1845 C1844 1.400 . S
C1845 C1846 1.375 . S
C1846 C1845 1.375 . S
C1846 C1847 1.415 . S
C1846 C1848 1.501 . S
C1847 H1838 0.931 . S
C1847 C1843 1.382 . S
C1847 C1846 1.415 . S
C1848 C1846 1.501 . S
C1848 C1849 1.384 . S
C1848 C1853 1.408 . S
C1849 H1839 0.930 . S
C1849 C1848 1.384 . S
C1849 C1850 1.389 . S
C1850 C1849 1.389 . S
C1850 C1851 1.405 . S
C1851 H1840 0.930 . S
C1851 C1850 1.405 . S
C1851 C1852 1.364 . S
C1852 C1851 1.364 . S
C1852 C1853 1.400 . S
C1853 H1841 0.931 . S
C1853 C1848 1.408 . S
C1853 C1852 1.400 . S
H1854 C1860 0.930 . S
H1855 C1863 0.931 . S
H1856 C1865 0.931 . S
H1857 C1867 0.930 . S
H1858 C1869 0.930 . S
H1859 C1871 0.931 . S
C1860 H1854 0.930 . S
C1860 C1861 1.380 . S
C1860 C1862 1.394 . S
C1861 C1860 1.380 . S
C1861 C1865 1.382 . S
C1862 C1860 1.394 . S
C1862 C1863 1.400 . S
C1863 H1855 0.931 . S
C1863 C1862 1.400 . S
C1863 C1864 1.375 . S
C1864 C1863 1.375 . S
C1864 C1865 1.415 . S
C1864 C1866 1.501 . S
C1865 H1856 0.931 . S
C1865 C1861 1.382 . S
C1865 C1864 1.415 . S
C1866 C1864 1.501 . S
C1866 C1867 1.384 . S
C1866 C1871 1.408 . S
C1867 H1857 0.930 . S
C1867 C1866 1.384 . S
C1867 C1868 1.389 . S
C1868 C1867 1.389 . S
C1868 C1869 1.405 . S
C1869 H1858 0.930 . S
C1869 C1868 1.405 . S
C1869 C1870 1.364 . S
C1870 C1869 1.364 . S
C1870 C1871 1.400 . S
C1871 H1859 0.931 . S
C1871 C1866 1.408 . S
C1871 C1870 1.400 . S
H1872 C1878 0.930 . S
H1873 C1881 0.931 . S
H1874 C1883 0.931 . S
H1875 C1885 0.930 . S
H1876 C1887 0.930 . S
H1877 C1889 0.931 . S
C1878 H1872 0.930 . S
C1878 C1879 1.380 . S
C1878 C1880 1.394 . S
C1879 C1878 1.380 . S
C1879 C1883 1.382 . S
C1880 C1878 1.394 . S
C1880 C1881 1.400 . S
C1881 H1873 0.931 . S
C1881 C1880 1.400 . S
C1881 C1882 1.375 . S
C1882 C1881 1.375 . S
C1882 C1883 1.415 . S
C1882 C1884 1.501 . S
C1883 H1874 0.931 . S
C1883 C1879 1.382 . S
C1883 C1882 1.415 . S
C1884 C1882 1.501 . S
C1884 C1885 1.384 . S
C1884 C1889 1.408 . S
C1885 H1875 0.930 . S
C1885 C1884 1.384 . S
C1885 C1886 1.389 . S
C1886 C1885 1.389 . S
C1886 C1887 1.405 . S
C1887 H1876 0.930 . S
C1887 C1886 1.405 . S
C1887 C1888 1.364 . S
C1888 C1887 1.364 . S
C1888 C1889 1.400 . S
C1889 H1877 0.931 . S
C1889 C1884 1.408 . S
C1889 C1888 1.400 . S
H1890 C1896 0.930 . S
H1891 C1899 0.931 . S
H1892 C1901 0.931 . S
H1893 C1903 0.930 . S
H1894 C1905 0.930 . S
H1895 C1907 0.931 . S
C1896 H1890 0.930 . S
C1896 C1897 1.380 . S
C1896 C1898 1.394 . S
C1897 C1896 1.380 . S
C1897 C1901 1.382 . S
C1898 C1896 1.394 . S
C1898 C1899 1.400 . S
C1899 H1891 0.931 . S
C1899 C1898 1.400 . S
C1899 C1900 1.375 . S
C1900 C1899 1.375 . S
C1900 C1901 1.415 . S
C1900 C1902 1.501 . S
C1901 H1892 0.931 . S
C1901 C1897 1.382 . S
C1901 C1900 1.415 . S
C1902 C1900 1.501 . S
C1902 C1903 1.384 . S
C1902 C1907 1.408 . S
C1903 H1893 0.930 . S
C1903 C1902 1.384 . S
C1903 C1904 1.389 . S
C1904 C1903 1.389 . S
C1904 C1905 1.405 . S
C1905 H1894 0.930 . S
C1905 C1904 1.405 . S
C1905 C1906 1.364 . S
C1906 C1905 1.364 . S
C1906 C1907 1.400 . S
C1907 H1895 0.931 . S
C1907 C1902 1.408 . S
C1907 C1906 1.400 . S
H1908 C1914 0.930 . S
H1909 C1918 0.930 . S
H1910 C1923 0.929 . S
H1911 C1921 0.929 . S
H1912 C1916 0.929 . S
H1913 C1922 0.929 . S
C1914 H1908 0.930 . S
C1914 C1915 1.367 1_455 S
C1914 C1922 1.378 . S
C1915 C1914 1.367 1_655 S
C1915 C1923 1.433 . S
C1916 H1912 0.929 . S
C1916 C1918 1.378 . S
C1916 C1920 1.350 . S
C1917 C1920 1.463 . S
C1917 C1922 1.350 1_655 S
C1917 N1925 1.427 . S
C1918 H1909 0.930 . S
C1918 C1916 1.378 . S
C1918 C1919 1.367 . S
C1919 C1918 1.367 . S
C1919 C1921 1.433 1_655 S
C1920 C1916 1.350 . S
C1920 C1917 1.463 . S
C1920 N1924 1.427 1_655 S
C1921 H1911 0.929 . S
C1921 C1919 1.433 1_455 S
C1921 N1924 1.384 . S
C1922 H1913 0.929 . S
C1922 C1914 1.378 . S
C1922 C1917 1.350 1_455 S
C1923 H1910 0.929 . S
C1923 C1915 1.433 . S
C1923 N1925 1.384 . S
N1924 C1920 1.427 1_455 S
N1924 C1921 1.384 . S
N1925 C1917 1.427 . S
N1925 C1923 1.384 . S
H1926 C1932 0.930 . S
H1927 C1936 0.930 . S
H1928 C1941 0.929 . S
H1929 C1939 0.929 . S
H1930 C1934 0.929 . S
H1931 C1940 0.929 . S
C1932 H1926 0.930 . S
C1932 C1933 1.367 . S
C1932 C1940 1.378 . S
C1933 C1932 1.367 . S
C1933 C1941 1.433 . S
C1934 H1930 0.929 . S
C1934 C1936 1.378 . S
C1934 C1938 1.350 . S
C1935 C1938 1.463 . S
C1935 C1940 1.350 . S
C1935 N1943 1.427 . S
C1936 H1927 0.930 . S
C1936 C1934 1.378 . S
C1936 C1937 1.367 . S
C1937 C1936 1.367 . S
C1937 C1939 1.433 . S
C1938 C1934 1.350 . S
C1938 C1935 1.463 . S
C1938 N1942 1.427 . S
C1939 H1929 0.929 . S
C1939 C1937 1.433 . S
C1939 N1942 1.384 . S
C1940 H1931 0.929 . S
C1940 C1932 1.378 . S
C1940 C1935 1.350 . S
C1941 H1928 0.929 . S
C1941 C1933 1.433 . S
C1941 N1943 1.384 . S
N1942 C1938 1.427 . S
N1942 C1939 1.384 . S
N1943 C1935 1.427 . S
N1943 C1941 1.384 . S
H1944 C1950 0.930 . S
H1945 C1954 0.930 . S
H1946 C1959 0.929 . S
H1947 C1957 0.929 . S
H1948 C1952 0.929 . S
H1949 C1958 0.929 . S
C1950 H1944 0.930 . S
C1950 C1951 1.367 1_565 S
C1950 C1958 1.377 . S
C1951 C1950 1.367 1_545 S
C1951 C1959 1.433 . S
C1952 H1948 0.929 . S
C1952 C1954 1.378 . S
C1952 C1956 1.350 . S
C1953 C1956 1.463 . S
C1953 C1958 1.350 1_545 S
C1953 N1961 1.427 . S
C1954 H1945 0.930 . S
C1954 C1952 1.378 . S
C1954 C1955 1.367 . S
C1955 C1954 1.367 . S
C1955 C1957 1.433 1_545 S
C1956 C1952 1.350 . S
C1956 C1953 1.463 . S
C1956 N1960 1.427 1_545 S
C1957 H1947 0.929 . S
C1957 C1955 1.433 1_565 S
C1957 N1960 1.384 . S
C1958 H1949 0.929 . S
C1958 C1950 1.377 . S
C1958 C1953 1.350 1_565 S
C1959 H1946 0.929 . S
C1959 C1951 1.433 . S
C1959 N1961 1.384 . S
N1960 C1956 1.427 1_565 S
N1960 C1957 1.384 . S
N1961 C1953 1.427 . S
N1961 C1959 1.384 . S
H1962 C1968 0.930 . S
H1963 C1972 0.930 . S
H1964 C1977 0.902 1_545 S
H1965 C1975 0.929 . S
H1966 C1970 0.929 . S
H1967 C1976 0.929 . S
C1968 H1962 0.930 . S
C1968 C1969 1.367 . S
C1968 C1976 1.378 . S
C1969 C1968 1.367 . S
C1969 C1977 1.450 . S
C1970 H1966 0.929 . S
C1970 C1972 1.378 . S
C1970 C1974 1.350 1_545 S
C1971 C1974 1.463 . S
C1971 C1976 1.350 . S
C1971 N1979 1.427 1_565 S
C1972 H1963 0.930 . S
C1972 C1970 1.378 . S
C1972 C1973 1.367 1_545 S
C1973 C1972 1.367 1_565 S
C1973 C1975 1.433 . S
C1974 C1970 1.350 1_565 S
C1974 C1971 1.463 . S
C1974 N1978 1.427 . S
C1975 H1965 0.929 . S
C1975 C1973 1.433 . S
C1975 N1978 1.384 . S
C1976 H1967 0.929 . S
C1976 C1968 1.378 . S
C1976 C1971 1.350 . S
C1977 H1964 0.902 1_565 S
C1977 C1969 1.450 . S
C1977 N1979 1.397 1_565 S
N1978 C1974 1.427 . S
N1978 C1975 1.384 . S
N1979 C1971 1.427 1_545 S
N1979 C1977 1.397 1_545 S
H1980 C1986 0.926 1_655 S
H1981 C1990 0.930 . S
H1982 C1995 0.929 . S
H1983 C1993 0.929 . S
H1984 C1988 0.929 . S
H1985 C1994 0.929 . S
C1986 H1980 0.926 1_455 S
C1986 C1987 1.379 . S
C1986 C1994 1.370 1_455 S
C1987 C1986 1.379 . S
C1987 C1995 1.433 . S
C1988 H1984 0.929 . S
C1988 C1990 1.378 . S
C1988 C1992 1.350 . S
C1989 C1992 1.463 . S
C1989 C1994 1.350 1_455 S
C1989 N1997 1.427 . S
C1990 H1981 0.930 . S
C1990 C1988 1.378 . S
C1990 C1991 1.367 . S
C1991 C1990 1.367 . S
C1991 C1993 1.433 1_455 S
C1992 C1988 1.350 . S
C1992 C1989 1.463 . S
C1992 N1996 1.427 1_455 S
C1993 H1983 0.929 . S
C1993 C1991 1.433 1_655 S
C1993 N1996 1.384 . S
C1994 H1985 0.929 . S
C1994 C1986 1.370 1_655 S
C1994 C1989 1.350 1_655 S
C1995 H1982 0.929 . S
C1995 C1987 1.433 . S
C1995 N1997 1.384 . S
N1996 C1992 1.427 1_655 S
N1996 C1993 1.384 . S
N1997 C1989 1.427 . S
N1997 C1995 1.384 . S
H1998 C2004 0.930 . S
H1999 C2008 0.930 . S
H2000 C2013 0.929 . S
H2001 C2011 0.929 . S
H2002 C2006 0.929 . S
H2003 C2012 0.929 . S
C2004 H1998 0.930 . S
C2004 C2005 1.367 . S
C2004 C2012 1.378 . S
C2005 C2004 1.367 . S
C2005 C2013 1.433 . S
C2006 H2002 0.929 . S
C2006 C2008 1.378 . S
C2006 C2010 1.350 . S
C2007 C2010 1.463 . S
C2007 C2012 1.350 . S
C2007 N2015 1.427 . S
C2008 H1999 0.930 . S
C2008 C2006 1.378 . S
C2008 C2009 1.367 . S
C2009 C2008 1.367 . S
C2009 C2011 1.433 . S
C2010 C2006 1.350 . S
C2010 C2007 1.463 . S
C2010 N2014 1.427 . S
C2011 H2001 0.929 . S
C2011 C2009 1.433 . S
C2011 N2014 1.384 . S
C2012 H2003 0.929 . S
C2012 C2004 1.378 . S
C2012 C2007 1.350 . S
C2013 H2000 0.929 . S
C2013 C2005 1.433 . S
C2013 N2015 1.384 . S
N2014 C2010 1.427 . S
N2014 C2011 1.384 . S
N2015 C2007 1.427 . S
N2015 C2013 1.384 . S
H2016 C2022 0.930 . S
H2017 C2026 0.930 . S
H2018 C2031 0.929 1_655 S
H2019 C2029 0.929 . S
H2020 C2024 0.929 . S
H2021 C2030 0.929 . S
C2022 H2016 0.930 . S
C2022 C2023 1.367 . S
C2022 C2030 1.378 . S
C2023 C2022 1.367 . S
C2023 C2031 1.433 . S
C2024 H2020 0.929 . S
C2024 C2026 1.378 . S
C2024 C2028 1.350 1_655 S
C2025 C2028 1.463 . S
C2025 C2030 1.350 . S
C2025 N2033 1.462 . S
C2026 H2017 0.930 . S
C2026 C2024 1.378 . S
C2026 C2027 1.367 1_655 S
C2027 C2026 1.367 1_455 S
C2027 C2029 1.433 . S
C2028 C2024 1.350 1_455 S
C2028 C2025 1.463 . S
C2028 N2032 1.427 . S
C2029 H2019 0.929 . S
C2029 C2027 1.433 . S
C2029 N2032 1.384 . S
C2030 H2021 0.929 . S
C2030 C2022 1.378 . S
C2030 C2025 1.350 . S
C2031 H2018 0.929 1_455 S
C2031 C2023 1.433 . S
C2031 N2033 1.366 . S
N2032 C2028 1.427 . S
N2032 C2029 1.384 . S
N2033 C2025 1.462 . S
N2033 C2031 1.366 . S
H2034 C2040 0.930 . S
H2035 C2044 0.930 . S
H2036 C2049 0.929 . S
H2037 C2047 0.929 . S
H2038 C2042 0.929 . S
H2039 C2048 0.929 . S
C2040 H2034 0.930 . S
C2040 C2041 1.367 . S
C2040 C2048 1.378 . S
C2041 C2040 1.367 . S
C2041 C2049 1.433 . S
C2042 H2038 0.929 . S
C2042 C2044 1.378 . S
C2042 C2046 1.350 . S
C2043 C2046 1.463 . S
C2043 C2048 1.350 . S
C2043 N2051 1.427 . S
C2044 H2035 0.930 . S
C2044 C2042 1.378 . S
C2044 C2045 1.367 . S
C2045 C2044 1.367 . S
C2045 C2047 1.433 . S
C2046 C2042 1.350 . S
C2046 C2043 1.463 . S
C2046 N2050 1.427 . S
C2047 H2037 0.929 . S
C2047 C2045 1.433 . S
C2047 N2050 1.384 . S
C2048 H2039 0.929 . S
C2048 C2040 1.378 . S
C2048 C2043 1.350 . S
C2049 H2036 0.929 . S
C2049 C2041 1.433 . S
C2049 N2051 1.384 . S
N2050 C2046 1.427 . S
N2050 C2047 1.384 . S
N2051 C2043 1.427 . S
N2051 C2049 1.384 . S
H2052 C2058 0.930 . S
H2053 C2062 0.930 . S
H2054 C2067 0.929 . S
H2055 C2065 0.929 . S
H2056 C2060 0.929 . S
H2057 C2066 0.929 . S
C2058 H2052 0.930 . S
C2058 C2059 1.367 1_545 S
C2058 C2066 1.378 . S
C2059 C2058 1.367 1_565 S
C2059 C2067 1.433 . S
C2060 H2056 0.929 . S
C2060 C2062 1.378 . S
C2060 C2064 1.350 . S
C2061 C2064 1.463 . S
C2061 C2066 1.350 1_565 S
C2061 N2069 1.427 . S
C2062 H2053 0.930 . S
C2062 C2060 1.378 . S
C2062 C2063 1.367 . S
C2063 C2062 1.367 . S
C2063 C2065 1.433 1_565 S
C2064 C2060 1.350 . S
C2064 C2061 1.463 . S
C2064 N2068 1.427 1_565 S
C2065 H2055 0.929 . S
C2065 C2063 1.433 1_545 S
C2065 N2068 1.384 . S
C2066 H2057 0.929 . S
C2066 C2058 1.378 . S
C2066 C2061 1.350 1_545 S
C2067 H2054 0.929 . S
C2067 C2059 1.433 . S
C2067 N2069 1.384 . S
N2068 C2064 1.427 1_545 S
N2068 C2065 1.384 . S
N2069 C2061 1.427 . S
N2069 C2067 1.384 . S
H2070 C2076 0.930 . S
H2071 C2080 0.930 . S
H2072 C2085 0.929 . S
H2073 C2083 0.929 . S
H2074 C2078 0.929 . S
H2075 C2084 0.929 . S
C2076 H2070 0.930 . S
C2076 C2077 1.367 1_565 S
C2076 C2084 1.378 . S
C2077 C2076 1.367 1_545 S
C2077 C2085 1.433 . S
C2078 H2074 0.929 . S
C2078 C2080 1.378 . S
C2078 C2082 1.350 . S
C2079 C2082 1.463 . S
C2079 C2084 1.350 1_545 S
C2079 N2087 1.427 . S
C2080 H2071 0.930 . S
C2080 C2078 1.378 . S
C2080 C2081 1.367 . S
C2081 C2080 1.367 . S
C2081 C2083 1.433 1_545 S
C2082 C2078 1.350 . S
C2082 C2079 1.463 . S
C2082 N2086 1.427 1_545 S
C2083 H2073 0.929 . S
C2083 C2081 1.433 1_565 S
C2083 N2086 1.384 . S
C2084 H2075 0.929 . S
C2084 C2076 1.378 . S
C2084 C2079 1.350 1_565 S
C2085 H2072 0.929 . S
C2085 C2077 1.433 . S
C2085 N2087 1.384 . S
N2086 C2082 1.427 1_565 S
N2086 C2083 1.384 . S
N2087 C2079 1.427 . S
N2087 C2085 1.384 . S
H2088 C2094 0.930 . S
H2089 C2098 0.930 . S
H2090 C2103 0.909 1_455 S
H2091 C2101 0.929 . S
H2092 C2096 0.929 . S
H2093 C2102 0.929 . S
C2094 H2088 0.930 . S
C2094 C2095 1.367 . S
C2094 C2102 1.378 . S
C2095 C2094 1.367 . S
C2095 C2103 1.433 . S
C2096 H2092 0.929 . S
C2096 C2098 1.378 . S
C2096 C2100 1.350 1_455 S
C2097 C2100 1.463 . S
C2097 C2102 1.350 . S
C2097 N2105 1.427 . S
C2098 H2089 0.930 . S
C2098 C2096 1.378 . S
C2098 C2099 1.367 1_455 S
C2099 C2098 1.367 1_655 S
C2099 C2101 1.433 . S
C2100 C2096 1.350 1_655 S
C2100 C2097 1.463 . S
C2100 N2104 1.427 . S
C2101 H2091 0.929 . S
C2101 C2099 1.433 . S
C2101 N2104 1.384 . S
C2102 H2093 0.929 . S
C2102 C2094 1.378 . S
C2102 C2097 1.350 . S
C2103 H2090 0.909 1_655 S
C2103 C2095 1.433 . S
C2103 N2105 1.384 . S
N2104 C2100 1.427 . S
N2104 C2101 1.384 . S
N2105 C2097 1.427 . S
N2105 C2103 1.384 . S
H2106 C2112 0.930 . S
H2107 C2116 0.930 . S
H2108 C2121 0.929 . S
H2109 C2119 0.929 . S
H2110 C2114 0.929 . S
H2111 C2120 0.929 . S
C2112 H2106 0.930 . S
C2112 C2113 1.367 . S
C2112 C2120 1.378 . S
C2113 C2112 1.367 . S
C2113 C2121 1.433 . S
C2114 H2110 0.929 . S
C2114 C2116 1.378 . S
C2114 C2118 1.350 . S
C2115 C2118 1.463 . S
C2115 C2120 1.350 . S
C2115 N2123 1.427 . S
C2116 H2107 0.930 . S
C2116 C2114 1.378 . S
C2116 C2117 1.367 . S
C2117 C2116 1.367 . S
C2117 C2119 1.433 . S
C2118 C2114 1.350 . S
C2118 C2115 1.463 . S
C2118 N2122 1.427 . S
C2119 H2109 0.929 . S
C2119 C2117 1.433 . S
C2119 N2122 1.384 . S
C2120 H2111 0.929 . S
C2120 C2112 1.378 . S
C2120 C2115 1.350 . S
C2121 H2108 0.929 . S
C2121 C2113 1.433 . S
C2121 N2123 1.384 . S
N2122 C2118 1.427 . S
N2122 C2119 1.384 . S
N2123 C2115 1.427 . S
N2123 C2121 1.384 . S
H2124 C2130 0.930 . S
H2125 C2134 0.930 . S
H2126 C2139 0.929 . S
H2127 C2137 0.929 . S
H2128 C2132 0.929 . S
H2129 C2138 0.929 . S
C2130 H2124 0.930 . S
C2130 C2131 1.367 . S
C2130 C2138 1.378 . S
C2131 C2130 1.367 . S
C2131 C2139 1.433 . S
C2132 H2128 0.929 . S
C2132 C2134 1.378 . S
C2132 C2136 1.350 . S
C2133 C2136 1.463 . S
C2133 C2138 1.350 . S
C2133 N2141 1.427 . S
C2134 H2125 0.930 . S
C2134 C2132 1.378 . S
C2134 C2135 1.367 . S
C2135 C2134 1.367 . S
C2135 C2137 1.433 . S
C2136 C2132 1.350 . S
C2136 C2133 1.463 . S
C2136 N2140 1.427 . S
C2137 H2127 0.929 . S
C2137 C2135 1.433 . S
C2137 N2140 1.384 . S
C2138 H2129 0.929 . S
C2138 C2130 1.378 . S
C2138 C2133 1.350 . S
C2139 H2126 0.929 . S
C2139 C2131 1.433 . S
C2139 N2141 1.384 . S
N2140 C2136 1.427 . S
N2140 C2137 1.384 . S
N2141 C2133 1.427 . S
N2141 C2139 1.384 . S
H2142 C2148 0.930 . S
H2143 C2152 0.930 . S
H2144 C2157 0.929 . S
H2145 C2155 0.929 . S
H2146 C2150 0.929 . S
H2147 C2156 0.929 . S
C2148 H2142 0.930 . S
C2148 C2149 1.367 . S
C2148 C2156 1.378 . S
C2149 C2148 1.367 . S
C2149 C2157 1.433 . S
C2150 H2146 0.929 . S
C2150 C2152 1.378 . S
C2150 C2154 1.350 . S
C2151 C2154 1.463 . S
C2151 C2156 1.350 . S
C2151 N2159 1.427 . S
C2152 H2143 0.930 . S
C2152 C2150 1.378 . S
C2152 C2153 1.367 . S
C2153 C2152 1.367 . S
C2153 C2155 1.433 . S
C2154 C2150 1.350 . S
C2154 C2151 1.463 . S
C2154 N2158 1.427 . S
C2155 H2145 0.929 . S
C2155 C2153 1.433 . S
C2155 N2158 1.384 . S
C2156 H2147 0.929 . S
C2156 C2148 1.378 . S
C2156 C2151 1.350 . S
C2157 H2144 0.929 . S
C2157 C2149 1.433 . S
C2157 N2159 1.384 . S
N2158 C2154 1.427 . S
N2158 C2155 1.384 . S
N2159 C2151 1.427 . S
N2159 C2157 1.384 . S
H2160 C2166 0.930 . S
H2161 C2170 0.930 . S
H2162 C2175 0.929 . S
H2163 C2173 0.929 . S
H2164 C2168 0.929 . S
H2165 C2174 0.929 . S
C2166 H2160 0.930 . S
C2166 C2167 1.367 . S
C2166 C2174 1.378 . S
C2167 C2166 1.367 . S
C2167 C2175 1.433 . S
C2168 H2164 0.929 . S
C2168 C2170 1.378 . S
C2168 C2172 1.350 . S
C2169 C2172 1.463 . S
C2169 C2174 1.350 . S
C2169 N2177 1.427 . S
C2170 H2161 0.930 . S
C2170 C2168 1.378 . S
C2170 C2171 1.367 . S
C2171 C2170 1.367 . S
C2171 C2173 1.433 . S
C2172 C2168 1.350 . S
C2172 C2169 1.463 . S
C2172 N2176 1.427 . S
C2173 H2163 0.929 . S
C2173 C2171 1.433 . S
C2173 N2176 1.384 . S
C2174 H2165 0.929 . S
C2174 C2166 1.378 . S
C2174 C2169 1.350 . S
C2175 H2162 0.929 . S
C2175 C2167 1.433 . S
C2175 N2177 1.384 . S
N2176 C2172 1.427 . S
N2176 C2173 1.384 . S
N2177 C2169 1.427 . S
N2177 C2175 1.384 . S
H2178 C2184 0.930 . S
H2179 C2188 0.930 . S
H2180 C2193 0.929 . S
H2181 C2191 0.929 . S
H2182 C2186 0.929 . S
H2183 C2192 0.929 . S
C2184 H2178 0.930 . S
C2184 C2185 1.367 . S
C2184 C2192 1.378 . S
C2185 C2184 1.367 . S
C2185 C2193 1.433 . S
C2186 H2182 0.929 . S
C2186 C2188 1.378 . S
C2186 C2190 1.350 . S
C2187 C2190 1.463 . S
C2187 C2192 1.350 . S
C2187 N2195 1.427 . S
C2188 H2179 0.930 . S
C2188 C2186 1.378 . S
C2188 C2189 1.367 . S
C2189 C2188 1.367 . S
C2189 C2191 1.433 . S
C2190 C2186 1.350 . S
C2190 C2187 1.463 . S
C2190 N2194 1.427 . S
C2191 H2181 0.929 . S
C2191 C2189 1.433 . S
C2191 N2194 1.384 . S
C2192 H2183 0.929 . S
C2192 C2184 1.378 . S
C2192 C2187 1.350 . S
C2193 H2180 0.929 . S
C2193 C2185 1.433 . S
C2193 N2195 1.384 . S
N2194 C2190 1.427 . S
N2194 C2191 1.384 . S
N2195 C2187 1.427 . S
N2195 C2193 1.384 . S
H2196 C2202 0.930 . S
H2197 C2206 0.930 . S
H2198 C2211 0.929 . S
H2199 C2209 0.929 . S
H2200 C2204 0.929 . S
H2201 C2210 0.929 . S
C2202 H2196 0.930 . S
C2202 C2203 1.367 . S
C2202 C2210 1.378 . S
C2203 C2202 1.367 . S
C2203 C2211 1.433 . S
C2204 H2200 0.929 . S
C2204 C2206 1.378 . S
C2204 C2208 1.350 . S
C2205 C2208 1.463 . S
C2205 C2210 1.350 . S
C2205 N2213 1.427 . S
C2206 H2197 0.930 . S
C2206 C2204 1.378 . S
C2206 C2207 1.367 . S
C2207 C2206 1.367 . S
C2207 C2209 1.433 . S
C2208 C2204 1.350 . S
C2208 C2205 1.463 . S
C2208 N2212 1.427 . S
C2209 H2199 0.929 . S
C2209 C2207 1.433 . S
C2209 N2212 1.384 . S
C2210 H2201 0.929 . S
C2210 C2202 1.378 . S
C2210 C2205 1.350 . S
C2211 H2198 0.929 . S
C2211 C2203 1.433 . S
C2211 N2213 1.384 . S
N2212 C2208 1.427 . S
N2212 C2209 1.384 . S
N2213 C2205 1.427 . S
N2213 C2211 1.384 . S
H2214 C2220 0.930 . S
H2215 C2224 0.930 . S
H2216 C2229 0.929 . S
H2217 C2227 0.929 . S
H2218 C2222 0.929 . S
H2219 C2228 0.929 . S
C2220 H2214 0.930 . S
C2220 C2221 1.367 . S
C2220 C2228 1.378 . S
C2221 C2220 1.367 . S
C2221 C2229 1.433 . S
C2222 H2218 0.929 . S
C2222 C2224 1.378 . S
C2222 C2226 1.350 . S
C2223 C2226 1.463 . S
C2223 C2228 1.350 . S
C2223 N2231 1.427 . S
C2224 H2215 0.930 . S
C2224 C2222 1.378 . S
C2224 C2225 1.367 . S
C2225 C2224 1.367 . S
C2225 C2227 1.433 . S
C2226 C2222 1.350 . S
C2226 C2223 1.463 . S
C2226 N2230 1.427 . S
C2227 H2217 0.929 . S
C2227 C2225 1.433 . S
C2227 N2230 1.384 . S
C2228 H2219 0.929 . S
C2228 C2220 1.378 . S
C2228 C2223 1.350 . S
C2229 H2216 0.929 . S
C2229 C2221 1.433 . S
C2229 N2231 1.384 . S
N2230 C2226 1.427 . S
N2230 C2227 1.384 . S
N2231 C2223 1.427 . S
N2231 C2229 1.384 . S
H2232 C2238 0.930 . S
H2233 C2242 0.930 . S
H2234 C2247 0.929 . S
H2235 C2245 0.929 . S
H2236 C2240 0.929 . S
H2237 C2246 0.929 . S
C2238 H2232 0.930 . S
C2238 C2239 1.367 . S
C2238 C2246 1.378 . S
C2239 C2238 1.367 . S
C2239 C2247 1.433 . S
C2240 H2236 0.929 . S
C2240 C2242 1.378 . S
C2240 C2244 1.350 . S
C2241 C2244 1.463 . S
C2241 C2246 1.350 . S
C2241 N2249 1.427 . S
C2242 H2233 0.930 . S
C2242 C2240 1.378 . S
C2242 C2243 1.367 . S
C2243 C2242 1.367 . S
C2243 C2245 1.433 . S
C2244 C2240 1.350 . S
C2244 C2241 1.463 . S
C2244 N2248 1.427 . S
C2245 H2235 0.929 . S
C2245 C2243 1.433 . S
C2245 N2248 1.384 . S
C2246 H2237 0.929 . S
C2246 C2238 1.378 . S
C2246 C2241 1.350 . S
C2247 H2234 0.929 . S
C2247 C2239 1.433 . S
C2247 N2249 1.384 . S
N2248 C2244 1.427 . S
N2248 C2245 1.384 . S
N2249 C2241 1.427 . S
N2249 C2247 1.384 . S
H2250 C2256 0.930 . S
H2251 C2260 0.930 . S
H2252 C2265 0.929 . S
H2253 C2263 0.929 . S
H2254 C2258 0.929 . S
H2255 C2264 0.929 . S
C2256 H2250 0.930 . S
C2256 C2257 1.367 . S
C2256 C2264 1.378 . S
C2257 C2256 1.367 . S
C2257 C2265 1.433 . S
C2258 H2254 0.929 . S
C2258 C2260 1.378 . S
C2258 C2262 1.350 . S
C2259 C2262 1.463 . S
C2259 C2264 1.350 . S
C2259 N2267 1.427 . S
C2260 H2251 0.930 . S
C2260 C2258 1.378 . S
C2260 C2261 1.367 . S
C2261 C2260 1.367 . S
C2261 C2263 1.433 . S
C2262 C2258 1.350 . S
C2262 C2259 1.463 . S
C2262 N2266 1.427 . S
C2263 H2253 0.929 . S
C2263 C2261 1.433 . S
C2263 N2266 1.384 . S
C2264 H2255 0.929 . S
C2264 C2256 1.378 . S
C2264 C2259 1.350 . S
C2265 H2252 0.929 . S
C2265 C2257 1.433 . S
C2265 N2267 1.384 . S
N2266 C2262 1.427 . S
N2266 C2263 1.384 . S
N2267 C2259 1.427 . S
N2267 C2265 1.384 . S
H2268 C2274 0.930 . S
H2269 C2278 0.930 . S
H2270 C2283 0.929 . S
H2271 C2281 0.929 . S
H2272 C2276 0.929 . S
H2273 C2282 0.929 . S
C2274 H2268 0.930 . S
C2274 C2275 1.367 . S
C2274 C2282 1.378 . S
C2275 C2274 1.367 . S
C2275 C2283 1.433 . S
C2276 H2272 0.929 . S
C2276 C2278 1.378 . S
C2276 C2280 1.350 . S
C2277 C2280 1.463 . S
C2277 C2282 1.350 . S
C2277 N2285 1.427 . S
C2278 H2269 0.930 . S
C2278 C2276 1.378 . S
C2278 C2279 1.367 . S
C2279 C2278 1.367 . S
C2279 C2281 1.433 . S
C2280 C2276 1.350 . S
C2280 C2277 1.463 . S
C2280 N2284 1.427 . S
C2281 H2271 0.929 . S
C2281 C2279 1.433 . S
C2281 N2284 1.384 . S
C2282 H2273 0.929 . S
C2282 C2274 1.378 . S
C2282 C2277 1.350 . S
C2283 H2270 0.929 . S
C2283 C2275 1.433 . S
C2283 N2285 1.384 . S
N2284 C2280 1.427 . S
N2284 C2281 1.384 . S
N2285 C2277 1.427 . S
N2285 C2283 1.384 . S
H2286 C2292 0.930 . S
H2287 C2296 0.930 . S
H2288 C2301 0.929 . S
H2289 C2299 0.929 . S
H2290 C2294 0.929 . S
H2291 C2300 0.929 . S
C2292 H2286 0.930 . S
C2292 C2293 1.367 . S
C2292 C2300 1.378 . S
C2293 C2292 1.367 . S
C2293 C2301 1.433 . S
C2294 H2290 0.929 . S
C2294 C2296 1.378 . S
C2294 C2298 1.350 . S
C2295 C2298 1.463 . S
C2295 C2300 1.350 . S
C2295 N2303 1.427 . S
C2296 H2287 0.930 . S
C2296 C2294 1.378 . S
C2296 C2297 1.367 . S
C2297 C2296 1.367 . S
C2297 C2299 1.433 . S
C2298 C2294 1.350 . S
C2298 C2295 1.463 . S
C2298 N2302 1.427 . S
C2299 H2289 0.929 . S
C2299 C2297 1.433 . S
C2299 N2302 1.384 . S
C2300 H2291 0.929 . S
C2300 C2292 1.378 . S
C2300 C2295 1.350 . S
C2301 H2288 0.929 . S
C2301 C2293 1.433 . S
C2301 N2303 1.384 . S
N2302 C2298 1.427 . S
N2302 C2299 1.384 . S
N2303 C2295 1.427 . S
N2303 C2301 1.384 . S
H2304 C2310 0.930 . S
H2305 C2314 0.930 . S
H2306 C2319 0.929 . S
H2307 C2317 0.929 . S
H2308 C2312 0.929 . S
H2309 C2318 0.929 . S
C2310 H2304 0.930 . S
C2310 C2311 1.367 . S
C2310 C2318 1.378 . S
C2311 C2310 1.367 . S
C2311 C2319 1.433 . S
C2312 H2308 0.929 . S
C2312 C2314 1.378 . S
C2312 C2316 1.350 . S
C2313 C2316 1.463 . S
C2313 C2318 1.350 . S
C2313 N2321 1.427 . S
C2314 H2305 0.930 . S
C2314 C2312 1.378 . S
C2314 C2315 1.367 . S
C2315 C2314 1.367 . S
C2315 C2317 1.433 . S
C2316 C2312 1.350 . S
C2316 C2313 1.463 . S
C2316 N2320 1.427 . S
C2317 H2307 0.929 . S
C2317 C2315 1.433 . S
C2317 N2320 1.384 . S
C2318 H2309 0.929 . S
C2318 C2310 1.378 . S
C2318 C2313 1.350 . S
C2319 H2306 0.929 . S
C2319 C2311 1.433 . S
C2319 N2321 1.384 . S
N2320 C2316 1.427 . S
N2320 C2317 1.384 . S
N2321 C2313 1.427 . S
N2321 C2319 1.384 . S
H2322 C2328 0.930 . S
H2323 C2332 0.930 . S
H2324 C2337 0.929 . S
H2325 C2335 0.929 . S
H2326 C2330 0.929 . S
H2327 C2336 0.929 . S
C2328 H2322 0.930 . S
C2328 C2329 1.367 . S
C2328 C2336 1.378 . S
C2329 C2328 1.367 . S
C2329 C2337 1.433 . S
C2330 H2326 0.929 . S
C2330 C2332 1.378 . S
C2330 C2334 1.350 . S
C2331 C2334 1.463 . S
C2331 C2336 1.350 . S
C2331 N2339 1.427 . S
C2332 H2323 0.930 . S
C2332 C2330 1.378 . S
C2332 C2333 1.367 . S
C2333 C2332 1.367 . S
C2333 C2335 1.433 . S
C2334 C2330 1.350 . S
C2334 C2331 1.463 . S
C2334 N2338 1.427 . S
C2335 H2325 0.929 . S
C2335 C2333 1.433 . S
C2335 N2338 1.384 . S
C2336 H2327 0.929 . S
C2336 C2328 1.378 . S
C2336 C2331 1.350 . S
C2337 H2324 0.929 . S
C2337 C2329 1.433 . S
C2337 N2339 1.384 . S
N2338 C2334 1.427 . S
N2338 C2335 1.384 . S
N2339 C2331 1.427 . S
N2339 C2337 1.384 . S
H2340 C2346 0.930 . S
H2341 C2350 0.930 . S
H2342 C2355 0.929 . S
H2343 C2353 0.929 . S
H2344 C2348 0.929 . S
H2345 C2354 0.929 . S
C2346 H2340 0.930 . S
C2346 C2347 1.367 . S
C2346 C2354 1.378 . S
C2347 C2346 1.367 . S
C2347 C2355 1.433 . S
C2348 H2344 0.929 . S
C2348 C2350 1.378 . S
C2348 C2352 1.350 . S
C2349 C2352 1.463 . S
C2349 C2354 1.350 . S
C2349 N2357 1.427 . S
C2350 H2341 0.930 . S
C2350 C2348 1.378 . S
C2350 C2351 1.367 . S
C2351 C2350 1.367 . S
C2351 C2353 1.433 . S
C2352 C2348 1.350 . S
C2352 C2349 1.463 . S
C2352 N2356 1.427 . S
C2353 H2343 0.929 . S
C2353 C2351 1.433 . S
C2353 N2356 1.384 . S
C2354 H2345 0.929 . S
C2354 C2346 1.378 . S
C2354 C2349 1.350 . S
C2355 H2342 0.929 . S
C2355 C2347 1.433 . S
C2355 N2357 1.384 . S
N2356 C2352 1.427 . S
N2356 C2353 1.384 . S
N2357 C2349 1.427 . S
N2357 C2355 1.384 . S
H2358 C2364 0.930 . S
H2359 C2368 0.930 . S
H2360 C2373 0.929 . S
H2361 C2371 0.929 . S
H2362 C2366 0.929 . S
H2363 C2372 0.929 . S
C2364 H2358 0.930 . S
C2364 C2365 1.367 . S
C2364 C2372 1.378 . S
C2365 C2364 1.367 . S
C2365 C2373 1.433 . S
C2366 H2362 0.929 . S
C2366 C2368 1.378 . S
C2366 C2370 1.350 . S
C2367 C2370 1.463 . S
C2367 C2372 1.350 . S
C2367 N2375 1.427 . S
C2368 H2359 0.930 . S
C2368 C2366 1.378 . S
C2368 C2369 1.367 . S
C2369 C2368 1.367 . S
C2369 C2371 1.433 . S
C2370 C2366 1.350 . S
C2370 C2367 1.463 . S
C2370 N2374 1.427 . S
C2371 H2361 0.929 . S
C2371 C2369 1.433 . S
C2371 N2374 1.384 . S
C2372 H2363 0.929 . S
C2372 C2364 1.378 . S
C2372 C2367 1.350 . S
C2373 H2360 0.929 . S
C2373 C2365 1.433 . S
C2373 N2375 1.384 . S
N2374 C2370 1.427 . S
N2374 C2371 1.384 . S
N2375 C2367 1.427 . S
N2375 C2373 1.384 . S
H2376 C2382 0.930 . S
H2377 C2386 0.930 . S
H2378 C2391 0.929 . S
H2379 C2389 0.929 . S
H2380 C2384 0.929 . S
H2381 C2390 0.929 . S
C2382 H2376 0.930 . S
C2382 C2383 1.367 . S
C2382 C2390 1.378 . S
C2383 C2382 1.367 . S
C2383 C2391 1.433 . S
C2384 H2380 0.929 . S
C2384 C2386 1.378 . S
C2384 C2388 1.350 . S
C2385 C2388 1.463 . S
C2385 C2390 1.350 . S
C2385 N2393 1.427 . S
C2386 H2377 0.930 . S
C2386 C2384 1.378 . S
C2386 C2387 1.367 . S
C2387 C2386 1.367 . S
C2387 C2389 1.433 . S
C2388 C2384 1.350 . S
C2388 C2385 1.463 . S
C2388 N2392 1.427 . S
C2389 H2379 0.929 . S
C2389 C2387 1.433 . S
C2389 N2392 1.384 . S
C2390 H2381 0.929 . S
C2390 C2382 1.378 . S
C2390 C2385 1.350 . S
C2391 H2378 0.929 . S
C2391 C2383 1.433 . S
C2391 N2393 1.384 . S
N2392 C2388 1.427 . S
N2392 C2389 1.384 . S
N2393 C2385 1.427 . S
N2393 C2391 1.384 . S
H2394 C2400 0.930 . S
H2395 C2404 0.930 . S
H2396 C2409 0.929 . S
H2397 C2407 0.929 . S
H2398 C2402 0.929 . S
H2399 C2408 0.929 . S
C2400 H2394 0.930 . S
C2400 C2401 1.367 . S
C2400 C2408 1.378 . S
C2401 C2400 1.367 . S
C2401 C2409 1.433 . S
C2402 H2398 0.929 . S
C2402 C2404 1.378 . S
C2402 C2406 1.350 . S
C2403 C2406 1.463 . S
C2403 C2408 1.350 . S
C2403 N2411 1.427 . S
C2404 H2395 0.930 . S
C2404 C2402 1.378 . S
C2404 C2405 1.367 . S
C2405 C2404 1.367 . S
C2405 C2407 1.433 . S
C2406 C2402 1.350 . S
C2406 C2403 1.463 . S
C2406 N2410 1.427 . S
C2407 H2397 0.929 . S
C2407 C2405 1.433 . S
C2407 N2410 1.384 . S
C2408 H2399 0.929 . S
C2408 C2400 1.378 . S
C2408 C2403 1.350 . S
C2409 H2396 0.929 . S
C2409 C2401 1.433 . S
C2409 N2411 1.384 . S
N2410 C2406 1.427 . S
N2410 C2407 1.384 . S
N2411 C2403 1.427 . S
N2411 C2409 1.384 . S
H2412 C2418 0.930 . S
H2413 C2422 0.930 . S
H2414 C2427 0.929 . S
H2415 C2425 0.929 . S
H2416 C2420 0.929 . S
H2417 C2426 0.929 . S
C2418 H2412 0.930 . S
C2418 C2419 1.367 . S
C2418 C2426 1.378 . S
C2419 C2418 1.367 . S
C2419 C2427 1.433 . S
C2420 H2416 0.929 . S
C2420 C2422 1.378 . S
C2420 C2424 1.350 . S
C2421 C2424 1.463 . S
C2421 C2426 1.350 . S
C2421 N2429 1.427 . S
C2422 H2413 0.930 . S
C2422 C2420 1.378 . S
C2422 C2423 1.367 . S
C2423 C2422 1.367 . S
C2423 C2425 1.433 . S
C2424 C2420 1.350 . S
C2424 C2421 1.463 . S
C2424 N2428 1.427 . S
C2425 H2415 0.929 . S
C2425 C2423 1.433 . S
C2425 N2428 1.384 . S
C2426 H2417 0.929 . S
C2426 C2418 1.378 . S
C2426 C2421 1.350 . S
C2427 H2414 0.929 . S
C2427 C2419 1.433 . S
C2427 N2429 1.384 . S
N2428 C2424 1.427 . S
N2428 C2425 1.384 . S
N2429 C2421 1.427 . S
N2429 C2427 1.384 . S
H2430 C2436 0.930 . S
H2431 C2440 0.930 . S
H2432 C2445 0.929 . S
H2433 C2443 0.929 . S
H2434 C2438 0.929 . S
H2435 C2444 0.929 . S
C2436 H2430 0.930 . S
C2436 C2437 1.367 . S
C2436 C2444 1.378 . S
C2437 C2436 1.367 . S
C2437 C2445 1.433 . S
C2438 H2434 0.929 . S
C2438 C2440 1.378 . S
C2438 C2442 1.350 . S
C2439 C2442 1.463 . S
C2439 C2444 1.350 . S
C2439 N2447 1.427 . S
C2440 H2431 0.930 . S
C2440 C2438 1.378 . S
C2440 C2441 1.367 . S
C2441 C2440 1.367 . S
C2441 C2443 1.433 . S
C2442 C2438 1.350 . S
C2442 C2439 1.463 . S
C2442 N2446 1.427 . S
C2443 H2433 0.929 . S
C2443 C2441 1.433 . S
C2443 N2446 1.384 . S
C2444 H2435 0.929 . S
C2444 C2436 1.378 . S
C2444 C2439 1.350 . S
C2445 H2432 0.929 . S
C2445 C2437 1.433 . S
C2445 N2447 1.384 . S
N2446 C2442 1.427 . S
N2446 C2443 1.384 . S
N2447 C2439 1.427 . S
N2447 C2445 1.384 . S
H2448 C2454 0.930 . S
H2449 C2458 0.930 . S
H2450 C2463 0.929 . S
H2451 C2461 0.929 . S
H2452 C2456 0.929 . S
H2453 C2462 0.929 . S
C2454 H2448 0.930 . S
C2454 C2455 1.367 . S
C2454 C2462 1.378 . S
C2455 C2454 1.367 . S
C2455 C2463 1.433 . S
C2456 H2452 0.929 . S
C2456 C2458 1.378 . S
C2456 C2460 1.350 . S
C2457 C2460 1.463 . S
C2457 C2462 1.350 . S
C2457 N2465 1.427 . S
C2458 H2449 0.930 . S
C2458 C2456 1.378 . S
C2458 C2459 1.367 . S
C2459 C2458 1.367 . S
C2459 C2461 1.433 . S
C2460 C2456 1.350 . S
C2460 C2457 1.463 . S
C2460 N2464 1.427 . S
C2461 H2451 0.929 . S
C2461 C2459 1.433 . S
C2461 N2464 1.384 . S
C2462 H2453 0.929 . S
C2462 C2454 1.378 . S
C2462 C2457 1.350 . S
C2463 H2450 0.929 . S
C2463 C2455 1.433 . S
C2463 N2465 1.384 . S
N2464 C2460 1.427 . S
N2464 C2461 1.384 . S
N2465 C2457 1.427 . S
N2465 C2463 1.384 . S
H2466 C2472 0.930 . S
H2467 C2476 0.930 . S
H2468 C2481 0.929 . S
H2469 C2479 0.929 . S
H2470 C2474 0.929 . S
H2471 C2480 0.929 . S
C2472 H2466 0.930 . S
C2472 C2473 1.367 . S
C2472 C2480 1.378 . S
C2473 C2472 1.367 . S
C2473 C2481 1.433 . S
C2474 H2470 0.929 . S
C2474 C2476 1.378 . S
C2474 C2478 1.350 . S
C2475 C2478 1.463 . S
C2475 C2480 1.350 . S
C2475 N2483 1.427 . S
C2476 H2467 0.930 . S
C2476 C2474 1.378 . S
C2476 C2477 1.367 . S
C2477 C2476 1.367 . S
C2477 C2479 1.433 . S
C2478 C2474 1.350 . S
C2478 C2475 1.463 . S
C2478 N2482 1.427 . S
C2479 H2469 0.929 . S
C2479 C2477 1.433 . S
C2479 N2482 1.384 . S
C2480 H2471 0.929 . S
C2480 C2472 1.378 . S
C2480 C2475 1.350 . S
C2481 H2468 0.929 . S
C2481 C2473 1.433 . S
C2481 N2483 1.384 . S
N2482 C2478 1.427 . S
N2482 C2479 1.384 . S
N2483 C2475 1.427 . S
N2483 C2481 1.384 . S
H2484 C2490 0.930 . S
H2485 C2494 0.930 . S
H2486 C2499 0.929 . S
H2487 C2497 0.929 . S
H2488 C2492 0.929 . S
H2489 C2498 0.929 . S
C2490 H2484 0.930 . S
C2490 C2491 1.367 . S
C2490 C2498 1.378 . S
C2491 C2490 1.367 . S
C2491 C2499 1.433 . S
C2492 H2488 0.929 . S
C2492 C2494 1.378 . S
C2492 C2496 1.350 . S
C2493 C2496 1.463 . S
C2493 C2498 1.350 . S
C2493 N2501 1.427 . S
C2494 H2485 0.930 . S
C2494 C2492 1.378 . S
C2494 C2495 1.367 . S
C2495 C2494 1.367 . S
C2495 C2497 1.433 . S
C2496 C2492 1.350 . S
C2496 C2493 1.463 . S
C2496 N2500 1.427 . S
C2497 H2487 0.929 . S
C2497 C2495 1.433 . S
C2497 N2500 1.384 . S
C2498 H2489 0.929 . S
C2498 C2490 1.378 . S
C2498 C2493 1.350 . S
C2499 H2486 0.929 . S
C2499 C2491 1.433 . S
C2499 N2501 1.384 . S
N2500 C2496 1.427 . S
N2500 C2497 1.384 . S
N2501 C2493 1.427 . S
N2501 C2499 1.384 . S
H2502 C2508 0.930 . S
H2503 C2512 0.930 . S
H2504 C2517 0.929 . S
H2505 C2515 0.929 . S
H2506 C2510 0.929 . S
H2507 C2516 0.929 . S
C2508 H2502 0.930 . S
C2508 C2509 1.367 . S
C2508 C2516 1.378 . S
C2509 C2508 1.367 . S
C2509 C2517 1.433 . S
C2510 H2506 0.929 . S
C2510 C2512 1.378 . S
C2510 C2514 1.350 . S
C2511 C2514 1.463 . S
C2511 C2516 1.350 . S
C2511 N2519 1.427 . S
C2512 H2503 0.930 . S
C2512 C2510 1.378 . S
C2512 C2513 1.367 . S
C2513 C2512 1.367 . S
C2513 C2515 1.433 . S
C2514 C2510 1.350 . S
C2514 C2511 1.463 . S
C2514 N2518 1.427 . S
C2515 H2505 0.929 . S
C2515 C2513 1.433 . S
C2515 N2518 1.384 . S
C2516 H2507 0.929 . S
C2516 C2508 1.378 . S
C2516 C2511 1.350 . S
C2517 H2504 0.929 . S
C2517 C2509 1.433 . S
C2517 N2519 1.384 . S
N2518 C2514 1.427 . S
N2518 C2515 1.384 . S
N2519 C2511 1.427 . S
N2519 C2517 1.384 . S
H2520 C2526 0.930 . S
H2521 C2530 0.930 . S
H2522 C2535 0.929 . S
H2523 C2533 0.929 . S
H2524 C2528 0.929 . S
H2525 C2534 0.929 . S
C2526 H2520 0.930 . S
C2526 C2527 1.367 . S
C2526 C2534 1.378 . S
C2527 C2526 1.367 . S
C2527 C2535 1.433 . S
C2528 H2524 0.929 . S
C2528 C2530 1.378 . S
C2528 C2532 1.350 . S
C2529 C2532 1.463 . S
C2529 C2534 1.350 . S
C2529 N2537 1.427 . S
C2530 H2521 0.930 . S
C2530 C2528 1.378 . S
C2530 C2531 1.367 . S
C2531 C2530 1.367 . S
C2531 C2533 1.433 . S
C2532 C2528 1.350 . S
C2532 C2529 1.463 . S
C2532 N2536 1.427 . S
C2533 H2523 0.929 . S
C2533 C2531 1.433 . S
C2533 N2536 1.384 . S
C2534 H2525 0.929 . S
C2534 C2526 1.378 . S
C2534 C2529 1.350 . S
C2535 H2522 0.929 . S
C2535 C2527 1.433 . S
C2535 N2537 1.384 . S
N2536 C2532 1.427 . S
N2536 C2533 1.384 . S
N2537 C2529 1.427 . S
N2537 C2535 1.384 . S
H2538 C2544 0.930 . S
H2539 C2548 0.930 . S
H2540 C2553 0.929 . S
H2541 C2551 0.929 . S
H2542 C2546 0.929 . S
H2543 C2552 0.929 . S
C2544 H2538 0.930 . S
C2544 C2545 1.367 . S
C2544 C2552 1.378 . S
C2545 C2544 1.367 . S
C2545 C2553 1.433 . S
C2546 H2542 0.929 . S
C2546 C2548 1.378 . S
C2546 C2550 1.350 . S
C2547 C2550 1.463 . S
C2547 C2552 1.350 . S
C2547 N2555 1.427 . S
C2548 H2539 0.930 . S
C2548 C2546 1.378 . S
C2548 C2549 1.367 . S
C2549 C2548 1.367 . S
C2549 C2551 1.433 . S
C2550 C2546 1.350 . S
C2550 C2547 1.463 . S
C2550 N2554 1.427 . S
C2551 H2541 0.929 . S
C2551 C2549 1.433 . S
C2551 N2554 1.384 . S
C2552 H2543 0.929 . S
C2552 C2544 1.378 . S
C2552 C2547 1.350 . S
C2553 H2540 0.929 . S
C2553 C2545 1.433 . S
C2553 N2555 1.384 . S
N2554 C2550 1.427 . S
N2554 C2551 1.384 . S
N2555 C2547 1.427 . S
N2555 C2553 1.384 . S
H2556 C2562 0.930 . S
H2557 C2566 0.930 . S
H2558 C2571 0.929 . S
H2559 C2569 0.929 . S
H2560 C2564 0.929 . S
H2561 C2570 0.929 . S
C2562 H2556 0.930 . S
C2562 C2563 1.367 . S
C2562 C2570 1.378 . S
C2563 C2562 1.367 . S
C2563 C2571 1.433 . S
C2564 H2560 0.929 . S
C2564 C2566 1.378 . S
C2564 C2568 1.350 . S
C2565 C2568 1.463 . S
C2565 C2570 1.350 . S
C2565 N2573 1.427 . S
C2566 H2557 0.930 . S
C2566 C2564 1.378 . S
C2566 C2567 1.367 . S
C2567 C2566 1.367 . S
C2567 C2569 1.433 . S
C2568 C2564 1.350 . S
C2568 C2565 1.463 . S
C2568 N2572 1.427 . S
C2569 H2559 0.929 . S
C2569 C2567 1.433 . S
C2569 N2572 1.384 . S
C2570 H2561 0.929 . S
C2570 C2562 1.378 . S
C2570 C2565 1.350 . S
C2571 H2558 0.929 . S
C2571 C2563 1.433 . S
C2571 N2573 1.384 . S
N2572 C2568 1.427 . S
N2572 C2569 1.384 . S
N2573 C2565 1.427 . S
N2573 C2571 1.384 . S
H2574 C2580 0.930 . S
H2575 C2584 0.930 . S
H2576 C2589 0.929 . S
H2577 C2587 0.929 . S
H2578 C2582 0.929 . S
H2579 C2588 0.929 . S
C2580 H2574 0.930 . S
C2580 C2581 1.367 . S
C2580 C2588 1.378 . S
C2581 C2580 1.367 . S
C2581 C2589 1.433 . S
C2582 H2578 0.929 . S
C2582 C2584 1.378 . S
C2582 C2586 1.350 . S
C2583 C2586 1.463 . S
C2583 C2588 1.350 . S
C2583 N2591 1.427 . S
C2584 H2575 0.930 . S
C2584 C2582 1.378 . S
C2584 C2585 1.367 . S
C2585 C2584 1.367 . S
C2585 C2587 1.433 . S
C2586 C2582 1.350 . S
C2586 C2583 1.463 . S
C2586 N2590 1.427 . S
C2587 H2577 0.929 . S
C2587 C2585 1.433 . S
C2587 N2590 1.384 . S
C2588 H2579 0.929 . S
C2588 C2580 1.378 . S
C2588 C2583 1.350 . S
C2589 H2576 0.929 . S
C2589 C2581 1.433 . S
C2589 N2591 1.384 . S
N2590 C2586 1.427 . S
N2590 C2587 1.384 . S
N2591 C2583 1.427 . S
N2591 C2589 1.384 . S
H2592 C2598 0.930 . S
H2593 C2602 0.930 . S
H2594 C2607 0.929 . S
H2595 C2605 0.929 . S
H2596 C2600 0.929 . S
H2597 C2606 0.929 . S
C2598 H2592 0.930 . S
C2598 C2599 1.367 . S
C2598 C2606 1.378 . S
C2599 C2598 1.367 . S
C2599 C2607 1.433 . S
C2600 H2596 0.929 . S
C2600 C2602 1.378 . S
C2600 C2604 1.350 . S
C2601 C2604 1.463 . S
C2601 C2606 1.350 . S
C2601 N2609 1.427 . S
C2602 H2593 0.930 . S
C2602 C2600 1.378 . S
C2602 C2603 1.367 . S
C2603 C2602 1.367 . S
C2603 C2605 1.433 . S
C2604 C2600 1.350 . S
C2604 C2601 1.463 . S
C2604 N2608 1.427 . S
C2605 H2595 0.929 . S
C2605 C2603 1.433 . S
C2605 N2608 1.384 . S
C2606 H2597 0.929 . S
C2606 C2598 1.378 . S
C2606 C2601 1.350 . S
C2607 H2594 0.929 . S
C2607 C2599 1.433 . S
C2607 N2609 1.384 . S
N2608 C2604 1.427 . S
N2608 C2605 1.384 . S
N2609 C2601 1.427 . S
N2609 C2607 1.384 . S
H2610 C2616 0.930 . S
H2611 C2620 0.930 . S
H2612 C2625 0.929 1_554 S
H2613 C2623 0.929 . S
H2614 C2618 0.929 . S
H2615 C2624 0.929 . S
C2616 H2610 0.930 . S
C2616 C2617 1.367 . S
C2616 C2624 1.378 . S
C2617 C2616 1.367 . S
C2617 C2625 1.433 . S
C2618 H2614 0.929 . S
C2618 C2620 1.378 . S
C2618 C2622 1.350 . S
C2619 C2622 1.463 . S
C2619 C2624 1.350 . S
C2619 N2627 1.427 . S
C2620 H2611 0.930 . S
C2620 C2618 1.378 . S
C2620 C2621 1.367 . S
C2621 C2620 1.367 . S
C2621 C2623 1.433 . S
C2622 C2618 1.350 . S
C2622 C2619 1.463 . S
C2622 N2626 1.427 . S
C2623 H2613 0.929 . S
C2623 C2621 1.433 . S
C2623 N2626 1.384 . S
C2624 H2615 0.929 . S
C2624 C2616 1.378 . S
C2624 C2619 1.350 . S
C2625 H2612 0.929 1_556 S
C2625 C2617 1.433 . S
C2625 N2627 1.384 . S
N2626 C2622 1.427 . S
N2626 C2623 1.384 . S
N2627 C2619 1.427 . S
N2627 C2625 1.384 . S
H2628 C2634 0.930 1_554 S
H2629 C2638 0.930 . S
H2630 C2643 0.929 . S
H2631 C2641 0.929 . S
H2632 C2636 0.929 . S
H2633 C2642 0.929 . S
C2634 H2628 0.930 1_556 S
C2634 C2635 1.367 . S
C2634 C2642 1.378 . S
C2635 C2634 1.367 . S
C2635 C2643 1.433 . S
C2636 H2632 0.929 . S
C2636 C2638 1.378 . S
C2636 C2640 1.350 . S
C2637 C2640 1.463 . S
C2637 C2642 1.350 . S
C2637 N2645 1.427 . S
C2638 H2629 0.930 . S
C2638 C2636 1.378 . S
C2638 C2639 1.367 . S
C2639 C2638 1.367 . S
C2639 C2641 1.433 . S
C2640 C2636 1.350 . S
C2640 C2637 1.463 . S
C2640 N2644 1.427 . S
C2641 H2631 0.929 . S
C2641 C2639 1.433 . S
C2641 N2644 1.384 . S
C2642 H2633 0.929 . S
C2642 C2634 1.378 . S
C2642 C2637 1.350 . S
C2643 H2630 0.929 . S
C2643 C2635 1.433 . S
C2643 N2645 1.384 . S
N2644 C2640 1.427 . S
N2644 C2641 1.384 . S
N2645 C2637 1.427 . S
N2645 C2643 1.384 . S
H2646 C2652 0.930 1_554 S
H2647 C2656 0.930 . S
H2648 C2661 0.929 . S
H2649 C2659 0.929 . S
H2650 C2654 0.929 . S
H2651 C2660 0.929 . S
C2652 H2646 0.930 1_556 S
C2652 C2653 1.367 . S
C2652 C2660 1.378 . S
C2653 C2652 1.367 . S
C2653 C2661 1.433 . S
C2654 H2650 0.929 . S
C2654 C2656 1.378 . S
C2654 C2658 1.350 . S
C2655 C2658 1.463 . S
C2655 C2660 1.350 . S
C2655 N2663 1.427 . S
C2656 H2647 0.930 . S
C2656 C2654 1.378 . S
C2656 C2657 1.367 . S
C2657 C2656 1.367 . S
C2657 C2659 1.433 . S
C2658 C2654 1.350 . S
C2658 C2655 1.463 . S
C2658 N2662 1.427 . S
C2659 H2649 0.929 . S
C2659 C2657 1.433 . S
C2659 N2662 1.384 . S
C2660 H2651 0.929 . S
C2660 C2652 1.378 . S
C2660 C2655 1.350 . S
C2661 H2648 0.929 . S
C2661 C2653 1.433 . S
C2661 N2663 1.384 . S
N2662 C2658 1.427 . S
N2662 C2659 1.384 . S
N2663 C2655 1.427 . S
N2663 C2661 1.384 . S
H2664 C2670 0.930 . S
H2665 C2674 0.930 . S
H2666 C2679 0.929 . S
H2667 C2677 0.929 . S
H2668 C2672 0.929 . S
H2669 C2678 0.929 . S
C2670 H2664 0.930 . S
C2670 C2671 1.367 . S
C2670 C2678 1.378 . S
C2671 C2670 1.367 . S
C2671 C2679 1.433 . S
C2672 H2668 0.929 . S
C2672 C2674 1.378 . S
C2672 C2676 1.350 . S
C2673 C2676 1.463 . S
C2673 C2678 1.350 . S
C2673 N2681 1.427 . S
C2674 H2665 0.930 . S
C2674 C2672 1.378 . S
C2674 C2675 1.367 . S
C2675 C2674 1.367 . S
C2675 C2677 1.433 . S
C2676 C2672 1.350 . S
C2676 C2673 1.463 . S
C2676 N2680 1.427 . S
C2677 H2667 0.929 . S
C2677 C2675 1.433 . S
C2677 N2680 1.384 . S
C2678 H2669 0.929 . S
C2678 C2670 1.378 . S
C2678 C2673 1.350 . S
C2679 H2666 0.929 . S
C2679 C2671 1.433 . S
C2679 N2681 1.384 . S
N2680 C2676 1.427 . S
N2680 C2677 1.384 . S
N2681 C2673 1.427 . S
N2681 C2679 1.384 . S
H2682 C2688 0.930 . S
H2683 C2692 0.930 . S
H2684 C2697 0.929 . S
H2685 C2695 0.929 . S
H2686 C2690 0.929 . S
H2687 C2696 0.929 . S
C2688 H2682 0.930 . S
C2688 C2689 1.367 . S
C2688 C2696 1.378 . S
C2689 C2688 1.367 . S
C2689 C2697 1.433 . S
C2690 H2686 0.929 . S
C2690 C2692 1.378 . S
C2690 C2694 1.350 . S
C2691 C2694 1.463 . S
C2691 C2696 1.350 . S
C2691 N2699 1.427 . S
C2692 H2683 0.930 . S
C2692 C2690 1.378 . S
C2692 C2693 1.367 . S
C2693 C2692 1.367 . S
C2693 C2695 1.433 . S
C2694 C2690 1.350 . S
C2694 C2691 1.463 . S
C2694 N2698 1.427 . S
C2695 H2685 0.929 . S
C2695 C2693 1.433 . S
C2695 N2698 1.384 . S
C2696 H2687 0.929 . S
C2696 C2688 1.378 . S
C2696 C2691 1.350 . S
C2697 H2684 0.929 . S
C2697 C2689 1.433 . S
C2697 N2699 1.384 . S
N2698 C2694 1.427 . S
N2698 C2695 1.384 . S
N2699 C2691 1.427 . S
N2699 C2697 1.384 . S
H2700 C2706 0.930 . S
H2701 C2710 0.930 . S
H2702 C2715 0.929 . S
H2703 C2713 0.929 . S
H2704 C2708 0.929 . S
H2705 C2714 0.929 . S
C2706 H2700 0.930 . S
C2706 C2707 1.367 . S
C2706 C2714 1.378 . S
C2707 C2706 1.367 . S
C2707 C2715 1.433 . S
C2708 H2704 0.929 . S
C2708 C2710 1.378 . S
C2708 C2712 1.350 . S
C2709 C2712 1.463 . S
C2709 C2714 1.350 . S
C2709 N2717 1.427 . S
C2710 H2701 0.930 . S
C2710 C2708 1.378 . S
C2710 C2711 1.367 . S
C2711 C2710 1.367 . S
C2711 C2713 1.433 . S
C2712 C2708 1.350 . S
C2712 C2709 1.463 . S
C2712 N2716 1.427 . S
C2713 H2703 0.929 . S
C2713 C2711 1.433 . S
C2713 N2716 1.384 . S
C2714 H2705 0.929 . S
C2714 C2706 1.378 . S
C2714 C2709 1.350 . S
C2715 H2702 0.929 . S
C2715 C2707 1.433 . S
C2715 N2717 1.384 . S
N2716 C2712 1.427 . S
N2716 C2713 1.384 . S
N2717 C2709 1.427 . S
N2717 C2715 1.384 . S
H2718 C2724 0.930 . S
H2719 C2728 0.930 . S
H2720 C2733 0.929 . S
H2721 C2731 0.929 . S
H2722 C2726 0.929 . S
H2723 C2732 0.929 . S
C2724 H2718 0.930 . S
C2724 C2725 1.367 . S
C2724 C2732 1.378 . S
C2725 C2724 1.367 . S
C2725 C2733 1.433 . S
C2726 H2722 0.929 . S
C2726 C2728 1.378 . S
C2726 C2730 1.350 . S
C2727 C2730 1.463 . S
C2727 C2732 1.350 . S
C2727 N2735 1.427 . S
C2728 H2719 0.930 . S
C2728 C2726 1.378 . S
C2728 C2729 1.367 . S
C2729 C2728 1.367 . S
C2729 C2731 1.433 . S
C2730 C2726 1.350 . S
C2730 C2727 1.463 . S
C2730 N2734 1.427 . S
C2731 H2721 0.929 . S
C2731 C2729 1.433 . S
C2731 N2734 1.384 . S
C2732 H2723 0.929 . S
C2732 C2724 1.378 . S
C2732 C2727 1.350 . S
C2733 H2720 0.929 . S
C2733 C2725 1.433 . S
C2733 N2735 1.384 . S
N2734 C2730 1.427 . S
N2734 C2731 1.384 . S
N2735 C2727 1.427 . S
N2735 C2733 1.384 . S
H2736 C2742 0.930 . S
H2737 C2746 0.930 . S
H2738 C2751 0.929 . S
H2739 C2749 0.929 . S
H2740 C2744 0.929 . S
H2741 C2750 0.929 . S
C2742 H2736 0.930 . S
C2742 C2743 1.367 . S
C2742 C2750 1.378 . S
C2743 C2742 1.367 . S
C2743 C2751 1.433 . S
C2744 H2740 0.929 . S
C2744 C2746 1.378 . S
C2744 C2748 1.350 . S
C2745 C2748 1.463 . S
C2745 C2750 1.350 . S
C2745 N2753 1.427 . S
C2746 H2737 0.930 . S
C2746 C2744 1.378 . S
C2746 C2747 1.367 . S
C2747 C2746 1.367 . S
C2747 C2749 1.433 . S
C2748 C2744 1.350 . S
C2748 C2745 1.463 . S
C2748 N2752 1.427 . S
C2749 H2739 0.929 . S
C2749 C2747 1.433 . S
C2749 N2752 1.384 . S
C2750 H2741 0.929 . S
C2750 C2742 1.378 . S
C2750 C2745 1.350 . S
C2751 H2738 0.929 . S
C2751 C2743 1.433 . S
C2751 N2753 1.384 . S
N2752 C2748 1.427 . S
N2752 C2749 1.384 . S
N2753 C2745 1.427 . S
N2753 C2751 1.384 . S
H2754 C2760 0.930 . S
H2755 C2764 0.930 . S
H2756 C2769 0.929 . S
H2757 C2767 0.929 . S
H2758 C2762 0.929 . S
H2759 C2768 0.929 . S
C2760 H2754 0.930 . S
C2760 C2761 1.367 . S
C2760 C2768 1.378 . S
C2761 C2760 1.367 . S
C2761 C2769 1.433 . S
C2762 H2758 0.929 . S
C2762 C2764 1.378 . S
C2762 C2766 1.350 . S
C2763 C2766 1.463 . S
C2763 C2768 1.350 . S
C2763 N2771 1.427 . S
C2764 H2755 0.930 . S
C2764 C2762 1.378 . S
C2764 C2765 1.367 . S
C2765 C2764 1.367 . S
C2765 C2767 1.433 . S
C2766 C2762 1.350 . S
C2766 C2763 1.463 . S
C2766 N2770 1.427 . S
C2767 H2757 0.929 . S
C2767 C2765 1.433 . S
C2767 N2770 1.384 . S
C2768 H2759 0.929 . S
C2768 C2760 1.378 . S
C2768 C2763 1.350 . S
C2769 H2756 0.929 . S
C2769 C2761 1.433 . S
C2769 N2771 1.384 . S
N2770 C2766 1.427 . S
N2770 C2767 1.384 . S
N2771 C2763 1.427 . S
N2771 C2769 1.384 . S
H2772 C2778 0.930 . S
H2773 C2782 0.930 . S
H2774 C2787 0.929 . S
H2775 C2785 0.929 . S
H2776 C2780 0.929 . S
H2777 C2786 0.929 . S
C2778 H2772 0.930 . S
C2778 C2779 1.367 . S
C2778 C2786 1.378 . S
C2779 C2778 1.367 . S
C2779 C2787 1.433 . S
C2780 H2776 0.929 . S
C2780 C2782 1.378 . S
C2780 C2784 1.350 . S
C2781 C2784 1.463 . S
C2781 C2786 1.350 . S
C2781 N2789 1.427 . S
C2782 H2773 0.930 . S
C2782 C2780 1.378 . S
C2782 C2783 1.367 . S
C2783 C2782 1.367 . S
C2783 C2785 1.433 . S
C2784 C2780 1.350 . S
C2784 C2781 1.463 . S
C2784 N2788 1.427 . S
C2785 H2775 0.929 . S
C2785 C2783 1.433 . S
C2785 N2788 1.384 . S
C2786 H2777 0.929 . S
C2786 C2778 1.378 . S
C2786 C2781 1.350 . S
C2787 H2774 0.929 . S
C2787 C2779 1.433 . S
C2787 N2789 1.384 . S
N2788 C2784 1.427 . S
N2788 C2785 1.384 . S
N2789 C2781 1.427 . S
N2789 C2787 1.384 . S
H2790 C2796 0.930 . S
H2791 C2800 0.930 . S
H2792 C2805 0.929 . S
H2793 C2803 0.929 . S
H2794 C2798 0.929 . S
H2795 C2804 0.929 . S
C2796 H2790 0.930 . S
C2796 C2797 1.367 . S
C2796 C2804 1.378 . S
C2797 C2796 1.367 . S
C2797 C2805 1.433 . S
C2798 H2794 0.929 . S
C2798 C2800 1.378 . S
C2798 C2802 1.350 . S
C2799 C2802 1.463 . S
C2799 C2804 1.350 . S
C2799 N2807 1.427 . S
C2800 H2791 0.930 . S
C2800 C2798 1.378 . S
C2800 C2801 1.367 . S
C2801 C2800 1.367 . S
C2801 C2803 1.433 . S
C2802 C2798 1.350 . S
C2802 C2799 1.463 . S
C2802 N2806 1.427 . S
C2803 H2793 0.929 . S
C2803 C2801 1.433 . S
C2803 N2806 1.384 . S
C2804 H2795 0.929 . S
C2804 C2796 1.378 . S
C2804 C2799 1.350 . S
C2805 H2792 0.929 . S
C2805 C2797 1.433 . S
C2805 N2807 1.384 . S
N2806 C2802 1.427 . S
N2806 C2803 1.384 . S
N2807 C2799 1.427 . S
N2807 C2805 1.384 . S
H2808 C2814 0.930 . S
H2809 C2818 0.930 . S
H2810 C2823 0.929 . S
H2811 C2821 0.929 . S
H2812 C2816 0.929 . S
H2813 C2822 0.929 . S
C2814 H2808 0.930 . S
C2814 C2815 1.367 . S
C2814 C2822 1.378 . S
C2815 C2814 1.367 . S
C2815 C2823 1.433 . S
C2816 H2812 0.929 . S
C2816 C2818 1.378 . S
C2816 C2820 1.350 . S
C2817 C2820 1.463 . S
C2817 C2822 1.350 . S
C2817 N2825 1.427 . S
C2818 H2809 0.930 . S
C2818 C2816 1.378 . S
C2818 C2819 1.367 . S
C2819 C2818 1.367 . S
C2819 C2821 1.433 . S
C2820 C2816 1.350 . S
C2820 C2817 1.463 . S
C2820 N2824 1.427 . S
C2821 H2811 0.929 . S
C2821 C2819 1.433 . S
C2821 N2824 1.384 . S
C2822 H2813 0.929 . S
C2822 C2814 1.378 . S
C2822 C2817 1.350 . S
C2823 H2810 0.929 . S
C2823 C2815 1.433 . S
C2823 N2825 1.384 . S
N2824 C2820 1.427 . S
N2824 C2821 1.384 . S
N2825 C2817 1.427 . S
N2825 C2823 1.384 . S
H2826 C2832 0.930 . S
H2827 C2836 0.930 . S
H2828 C2841 0.929 . S
H2829 C2839 0.927 . S
H2830 C2834 0.929 . S
H2831 C2840 0.987 . S
C2832 H2826 0.930 . S
C2832 C2833 1.367 . S
C2832 C2840 1.378 . S
C2833 C2832 1.367 . S
C2833 C2841 1.433 . S
C2834 H2830 0.929 . S
C2834 C2836 1.378 . S
C2834 C2838 1.350 . S
C2835 C2838 1.463 . S
C2835 C2840 1.350 . S
C2835 N2843 1.427 . S
C2836 H2827 0.930 . S
C2836 C2834 1.378 . S
C2836 C2837 1.367 . S
C2837 C2836 1.367 . S
C2837 C2839 1.434 1_455 S
C2838 C2834 1.350 . S
C2838 C2835 1.463 . S
C2838 N2842 1.427 . S
C2839 H2829 0.927 . S
C2839 C2837 1.434 1_655 S
C2839 N2842 1.385 1_655 S
C2840 H2831 0.987 . S
C2840 C2832 1.378 . S
C2840 C2835 1.350 . S
C2841 H2828 0.929 . S
C2841 C2833 1.433 . S
C2841 N2843 1.384 . S
N2842 C2838 1.427 . S
N2842 C2839 1.385 1_455 S
N2843 C2835 1.427 . S
N2843 C2841 1.384 . S
H2844 C2850 0.930 . S
H2845 C2854 0.930 . S
H2846 C2859 0.929 . S
H2847 C2857 0.929 . S
H2848 C2852 0.929 . S
H2849 C2858 0.929 . S
C2850 H2844 0.930 . S
C2850 C2851 1.367 . S
C2850 C2858 1.378 . S
C2851 C2850 1.367 . S
C2851 C2859 1.433 . S
C2852 H2848 0.929 . S
C2852 C2854 1.378 . S
C2852 C2856 1.350 . S
C2853 C2856 1.463 . S
C2853 C2858 1.350 . S
C2853 N2861 1.427 . S
C2854 H2845 0.930 . S
C2854 C2852 1.378 . S
C2854 C2855 1.367 . S
C2855 C2854 1.367 . S
C2855 C2857 1.433 . S
C2856 C2852 1.350 . S
C2856 C2853 1.463 . S
C2856 N2860 1.427 . S
C2857 H2847 0.929 . S
C2857 C2855 1.433 . S
C2857 N2860 1.384 . S
C2858 H2849 0.929 . S
C2858 C2850 1.378 . S
C2858 C2853 1.350 . S
C2859 H2846 0.929 . S
C2859 C2851 1.433 . S
C2859 N2861 1.384 . S
N2860 C2856 1.427 . S
N2860 C2857 1.384 . S
N2861 C2853 1.427 . S
N2861 C2859 1.384 . S
H2862 C2868 0.930 . S
H2863 C2872 0.930 . S
H2864 C2877 0.929 . S
H2865 C2875 0.929 . S
H2866 C2870 0.929 . S
H2867 C2876 0.929 . S
C2868 H2862 0.930 . S
C2868 C2869 1.367 . S
C2868 C2876 1.378 . S
C2869 C2868 1.367 . S
C2869 C2877 1.433 1_565 S
C2870 H2866 0.929 . S
C2870 C2872 1.378 . S
C2870 C2874 1.350 1_545 S
C2871 C2874 1.463 . S
C2871 C2876 1.350 . S
C2871 N2879 1.427 1_565 S
C2872 H2863 0.930 . S
C2872 C2870 1.378 . S
C2872 C2873 1.367 1_545 S
C2873 C2872 1.367 1_565 S
C2873 C2875 1.433 . S
C2874 C2870 1.350 1_565 S
C2874 C2871 1.463 . S
C2874 N2878 1.427 . S
C2875 H2865 0.929 . S
C2875 C2873 1.433 . S
C2875 N2878 1.384 . S
C2876 H2867 0.929 . S
C2876 C2868 1.378 . S
C2876 C2871 1.350 . S
C2877 H2864 0.929 . S
C2877 C2869 1.433 1_545 S
C2877 N2879 1.384 . S
N2878 C2874 1.427 . S
N2878 C2875 1.384 . S
N2879 C2871 1.427 1_545 S
N2879 C2877 1.384 . S
H2880 C2886 0.930 . S
H2881 C2890 0.930 . S
H2882 C2895 0.929 . S
H2883 C2893 0.929 . S
H2884 C2888 0.929 . S
H2885 C2894 0.929 . S
C2886 H2880 0.930 . S
C2886 C2887 1.367 . S
C2886 C2894 1.378 . S
C2887 C2886 1.367 . S
C2887 C2895 1.433 1_565 S
C2888 H2884 0.929 . S
C2888 C2890 1.378 . S
C2888 C2892 1.350 1_545 S
C2889 C2892 1.463 . S
C2889 C2894 1.350 . S
C2889 N2897 1.427 1_565 S
C2890 H2881 0.930 . S
C2890 C2888 1.378 . S
C2890 C2891 1.357 1_545 S
C2891 C2890 1.357 1_565 S
C2891 C2893 1.461 . S
C2892 C2888 1.350 1_565 S
C2892 C2889 1.463 . S
C2892 N2896 1.427 . S
C2893 H2883 0.929 . S
C2893 C2891 1.461 . S
C2893 N2896 1.384 . S
C2894 H2885 0.929 . S
C2894 C2886 1.378 . S
C2894 C2889 1.350 . S
C2895 H2882 0.929 . S
C2895 C2887 1.433 1_545 S
C2895 N2897 1.384 . S
N2896 C2892 1.427 . S
N2896 C2893 1.384 . S
N2897 C2889 1.427 1_545 S
N2897 C2895 1.384 . S
H2898 C2904 0.930 . S
H2899 C2908 0.930 . S
H2900 C2913 0.929 . S
H2901 C2911 0.929 . S
H2902 C2906 0.929 . S
H2903 C2912 0.932 1_655 S
C2904 H2898 0.930 . S
C2904 C2905 1.367 . S
C2904 C2912 1.378 . S
C2905 C2904 1.367 . S
C2905 C2913 1.433 . S
C2906 H2902 0.929 . S
C2906 C2908 1.378 . S
C2906 C2910 1.350 . S
C2907 C2910 1.463 . S
C2907 C2912 1.350 . S
C2907 N2915 1.427 . S
C2908 H2899 0.930 . S
C2908 C2906 1.378 . S
C2908 C2909 1.367 . S
C2909 C2908 1.367 . S
C2909 C2911 1.416 1_455 S
C2910 C2906 1.350 . S
C2910 C2907 1.463 . S
C2910 N2914 1.427 1_455 S
C2911 H2901 0.929 . S
C2911 C2909 1.416 1_655 S
C2911 N2914 1.384 . S
C2912 H2903 0.932 1_455 S
C2912 C2904 1.378 . S
C2912 C2907 1.350 . S
C2913 H2900 0.929 . S
C2913 C2905 1.433 . S
C2913 N2915 1.384 . S
N2914 C2910 1.427 1_655 S
N2914 C2911 1.384 . S
N2915 C2907 1.427 . S
N2915 C2913 1.384 . S
H2916 C2922 0.930 . S
H2917 C2926 0.930 . S
H2918 C2931 0.929 . S
H2919 C2929 0.929 . S
H2920 C2924 0.929 . S
H2921 C2930 0.929 . S
C2922 H2916 0.930 . S
C2922 C2923 1.367 . S
C2922 C2930 1.378 . S
C2923 C2922 1.367 . S
C2923 C2931 1.433 . S
C2924 H2920 0.929 . S
C2924 C2926 1.378 . S
C2924 C2928 1.350 . S
C2925 C2928 1.463 . S
C2925 C2930 1.350 . S
C2925 N2933 1.427 . S
C2926 H2917 0.930 . S
C2926 C2924 1.378 . S
C2926 C2927 1.367 . S
C2927 C2926 1.367 . S
C2927 C2929 1.433 . S
C2928 C2924 1.350 . S
C2928 C2925 1.463 . S
C2928 N2932 1.427 . S
C2929 H2919 0.929 . S
C2929 C2927 1.433 . S
C2929 N2932 1.384 . S
C2930 H2921 0.929 . S
C2930 C2922 1.378 . S
C2930 C2925 1.350 . S
C2931 H2918 0.929 . S
C2931 C2923 1.433 . S
C2931 N2933 1.384 . S
N2932 C2928 1.427 . S
N2932 C2929 1.384 . S
N2933 C2925 1.427 . S
N2933 C2931 1.384 . S
H2934 C2940 0.930 . S
H2935 C2944 0.930 . S
H2936 C2949 0.929 . S
H2937 C2947 0.929 . S
H2938 C2942 0.929 . S
H2939 C2948 0.929 . S
C2940 H2934 0.930 . S
C2940 C2941 1.367 . S
C2940 C2948 1.378 . S
C2941 C2940 1.367 . S
C2941 C2949 1.433 . S
C2942 H2938 0.929 . S
C2942 C2944 1.378 . S
C2942 C2946 1.350 . S
C2943 C2946 1.463 . S
C2943 C2948 1.350 . S
C2943 N2951 1.427 . S
C2944 H2935 0.930 . S
C2944 C2942 1.378 . S
C2944 C2945 1.367 . S
C2945 C2944 1.367 . S
C2945 C2947 1.433 . S
C2946 C2942 1.350 . S
C2946 C2943 1.463 . S
C2946 N2950 1.427 . S
C2947 H2937 0.929 . S
C2947 C2945 1.433 . S
C2947 N2950 1.384 . S
C2948 H2939 0.929 . S
C2948 C2940 1.378 . S
C2948 C2943 1.350 . S
C2949 H2936 0.929 . S
C2949 C2941 1.433 . S
C2949 N2951 1.384 . S
N2950 C2946 1.427 . S
N2950 C2947 1.384 . S
N2951 C2943 1.427 . S
N2951 C2949 1.384 . S
H2952 C2958 0.930 . S
H2953 C2962 0.930 . S
H2954 C2967 0.929 . S
H2955 C2965 0.929 . S
H2956 C2960 0.929 . S
H2957 C2966 0.929 . S
C2958 H2952 0.930 . S
C2958 C2959 1.367 . S
C2958 C2966 1.378 . S
C2959 C2958 1.367 . S
C2959 C2967 1.433 . S
C2960 H2956 0.929 . S
C2960 C2962 1.378 . S
C2960 C2964 1.350 . S
C2961 C2964 1.463 . S
C2961 C2966 1.350 . S
C2961 N2969 1.427 . S
C2962 H2953 0.930 . S
C2962 C2960 1.378 . S
C2962 C2963 1.367 . S
C2963 C2962 1.367 . S
C2963 C2965 1.433 . S
C2964 C2960 1.350 . S
C2964 C2961 1.463 . S
C2964 N2968 1.427 . S
C2965 H2955 0.929 . S
C2965 C2963 1.433 . S
C2965 N2968 1.384 . S
C2966 H2957 0.929 . S
C2966 C2958 1.378 . S
C2966 C2961 1.350 . S
C2967 H2954 0.929 . S
C2967 C2959 1.433 . S
C2967 N2969 1.384 . S
N2968 C2964 1.427 . S
N2968 C2965 1.384 . S
N2969 C2961 1.427 . S
N2969 C2967 1.384 . S
H2970 C2976 0.930 . S
H2971 C2980 0.930 . S
H2972 C2985 0.929 . S
H2973 C2983 0.929 . S
H2974 C2978 0.929 . S
H2975 C2984 0.929 . S
C2976 H2970 0.930 . S
C2976 C2977 1.367 . S
C2976 C2984 1.378 . S
C2977 C2976 1.367 . S
C2977 C2985 1.433 . S
C2978 H2974 0.929 . S
C2978 C2980 1.378 . S
C2978 C2982 1.350 . S
C2979 C2982 1.463 . S
C2979 C2984 1.350 . S
C2979 N2987 1.427 . S
C2980 H2971 0.930 . S
C2980 C2978 1.378 . S
C2980 C2981 1.367 . S
C2981 C2980 1.367 . S
C2981 C2983 1.433 . S
C2982 C2978 1.350 . S
C2982 C2979 1.463 . S
C2982 N2986 1.427 . S
C2983 H2973 0.929 . S
C2983 C2981 1.433 . S
C2983 N2986 1.384 . S
C2984 H2975 0.929 . S
C2984 C2976 1.378 . S
C2984 C2979 1.350 . S
C2985 H2972 0.929 . S
C2985 C2977 1.433 . S
C2985 N2987 1.384 . S
N2986 C2982 1.427 . S
N2986 C2983 1.384 . S
N2987 C2979 1.427 . S
N2987 C2985 1.384 . S
H2988 C2994 0.930 . S
H2989 C2998 0.930 . S
H2990 C3003 0.929 . S
H2991 C3001 0.929 . S
H2992 C2996 0.929 . S
H2993 C3002 0.929 . S
C2994 H2988 0.930 . S
C2994 C2995 1.367 . S
C2994 C3002 1.378 . S
C2995 C2994 1.367 . S
C2995 C3003 1.433 1_545 S
C2996 H2992 0.929 . S
C2996 C2998 1.378 . S
C2996 C3000 1.350 1_565 S
C2997 C3000 1.463 . S
C2997 C3002 1.350 . S
C2997 N3005 1.427 1_545 S
C2998 H2989 0.930 . S
C2998 C2996 1.378 . S
C2998 C2999 1.367 1_565 S
C2999 C2998 1.367 1_545 S
C2999 C3001 1.433 . S
C3000 C2996 1.350 1_545 S
C3000 C2997 1.463 . S
C3000 N3004 1.427 . S
C3001 H2991 0.929 . S
C3001 C2999 1.433 . S
C3001 N3004 1.384 . S
C3002 H2993 0.929 . S
C3002 C2994 1.378 . S
C3002 C2997 1.350 . S
C3003 H2990 0.929 . S
C3003 C2995 1.433 1_565 S
C3003 N3005 1.384 . S
N3004 C3000 1.427 . S
N3004 C3001 1.384 . S
N3005 C2997 1.427 1_565 S
N3005 C3003 1.384 . S
H3006 C3012 0.930 . S
H3007 C3016 0.930 . S
H3008 C3021 0.905 1_455 S
H3009 C3019 0.929 . S
H3010 C3014 0.929 . S
H3011 C3020 0.929 . S
C3012 H3006 0.930 . S
C3012 C3013 1.367 . S
C3012 C3020 1.378 . S
C3013 C3012 1.367 . S
C3013 C3021 1.448 . S
C3014 H3010 0.929 . S
C3014 C3016 1.378 . S
C3014 C3018 1.350 1_455 S
C3015 C3018 1.463 . S
C3015 C3020 1.350 . S
C3015 N3023 1.427 1_655 S
C3016 H3007 0.930 . S
C3016 C3014 1.378 . S
C3016 C3017 1.367 1_455 S
C3017 C3016 1.367 1_655 S
C3017 C3019 1.433 . S
C3018 C3014 1.350 1_655 S
C3018 C3015 1.463 . S
C3018 N3022 1.427 . S
C3019 H3009 0.929 . S
C3019 C3017 1.433 . S
C3019 N3022 1.384 . S
C3020 H3011 0.929 . S
C3020 C3012 1.378 . S
C3020 C3015 1.350 . S
C3021 H3008 0.905 1_655 S
C3021 C3013 1.448 . S
C3021 N3023 1.394 1_655 S
N3022 C3018 1.427 . S
N3022 C3019 1.384 . S
N3023 C3015 1.427 1_455 S
N3023 C3021 1.394 1_455 S
H3024 C3030 0.930 . S
H3025 C3034 0.930 . S
H3026 C3039 0.929 . S
H3027 C3037 0.929 . S
H3028 C3032 0.929 . S
H3029 C3038 0.929 . S
C3030 H3024 0.930 . S
C3030 C3031 1.367 . S
C3030 C3038 1.378 . S
C3031 C3030 1.367 . S
C3031 C3039 1.433 . S
C3032 H3028 0.929 . S
C3032 C3034 1.378 . S
C3032 C3036 1.350 . S
C3033 C3036 1.463 . S
C3033 C3038 1.350 . S
C3033 N3041 1.427 . S
C3034 H3025 0.930 . S
C3034 C3032 1.378 . S
C3034 C3035 1.367 . S
C3035 C3034 1.367 . S
C3035 C3037 1.433 . S
C3036 C3032 1.350 . S
C3036 C3033 1.463 . S
C3036 N3040 1.427 . S
C3037 H3027 0.929 . S
C3037 C3035 1.433 . S
C3037 N3040 1.384 . S
C3038 H3029 0.929 . S
C3038 C3030 1.378 . S
C3038 C3033 1.350 . S
C3039 H3026 0.929 . S
C3039 C3031 1.433 . S
C3039 N3041 1.384 . S
N3040 C3036 1.427 . S
N3040 C3037 1.384 . S
N3041 C3033 1.427 . S
N3041 C3039 1.384 . S
H3042 C3048 0.930 . S
H3043 C3052 0.930 . S
H3044 C3057 0.929 . S
H3045 C3055 0.929 . S
H3046 C3050 0.929 . S
H3047 C3056 0.929 . S
C3048 H3042 0.930 . S
C3048 C3049 1.367 . S
C3048 C3056 1.378 . S
C3049 C3048 1.367 . S
C3049 C3057 1.433 . S
C3050 H3046 0.929 . S
C3050 C3052 1.378 . S
C3050 C3054 1.350 . S
C3051 C3054 1.463 . S
C3051 C3056 1.350 . S
C3051 N3059 1.427 . S
C3052 H3043 0.930 . S
C3052 C3050 1.378 . S
C3052 C3053 1.367 . S
C3053 C3052 1.367 . S
C3053 C3055 1.433 . S
C3054 C3050 1.350 . S
C3054 C3051 1.463 . S
C3054 N3058 1.427 . S
C3055 H3045 0.929 . S
C3055 C3053 1.433 . S
C3055 N3058 1.384 . S
C3056 H3047 0.929 . S
C3056 C3048 1.378 . S
C3056 C3051 1.350 . S
C3057 H3044 0.929 . S
C3057 C3049 1.433 . S
C3057 N3059 1.384 . S
N3058 C3054 1.427 . S
N3058 C3055 1.384 . S
N3059 C3051 1.427 . S
N3059 C3057 1.384 . S
H3060 C3066 0.930 . S
H3061 C3070 0.930 . S
H3062 C3075 0.929 . S
H3063 C3073 0.929 . S
H3064 C3068 0.929 . S
H3065 C3074 0.929 . S
C3066 H3060 0.930 . S
C3066 C3067 1.367 . S
C3066 C3074 1.378 . S
C3067 C3066 1.367 . S
C3067 C3075 1.433 . S
C3068 H3064 0.929 . S
C3068 C3070 1.378 . S
C3068 C3072 1.350 . S
C3069 C3072 1.463 . S
C3069 C3074 1.350 . S
C3069 N3077 1.427 . S
C3070 H3061 0.930 . S
C3070 C3068 1.378 . S
C3070 C3071 1.367 . S
C3071 C3070 1.367 . S
C3071 C3073 1.433 . S
C3072 C3068 1.350 . S
C3072 C3069 1.463 . S
C3072 N3076 1.427 . S
C3073 H3063 0.929 . S
C3073 C3071 1.433 . S
C3073 N3076 1.384 . S
C3074 H3065 0.929 . S
C3074 C3066 1.378 . S
C3074 C3069 1.350 . S
C3075 H3062 0.929 . S
C3075 C3067 1.433 . S
C3075 N3077 1.384 . S
N3076 C3072 1.427 . S
N3076 C3073 1.384 . S
N3077 C3069 1.427 . S
N3077 C3075 1.384 . S
H3078 C3084 0.930 . S
H3079 C3088 0.930 . S
H3080 C3093 0.929 . S
H3081 C3091 0.929 . S
H3082 C3086 0.929 . S
H3083 C3092 0.929 . S
C3084 H3078 0.930 . S
C3084 C3085 1.367 . S
C3084 C3092 1.378 . S
C3085 C3084 1.367 . S
C3085 C3093 1.433 . S
C3086 H3082 0.929 . S
C3086 C3088 1.378 . S
C3086 C3090 1.350 . S
C3087 C3090 1.463 . S
C3087 C3092 1.350 . S
C3087 N3095 1.427 . S
C3088 H3079 0.930 . S
C3088 C3086 1.378 . S
C3088 C3089 1.367 . S
C3089 C3088 1.367 . S
C3089 C3091 1.433 . S
C3090 C3086 1.350 . S
C3090 C3087 1.463 . S
C3090 N3094 1.427 . S
C3091 H3081 0.929 . S
C3091 C3089 1.433 . S
C3091 N3094 1.384 . S
C3092 H3083 0.929 . S
C3092 C3084 1.378 . S
C3092 C3087 1.350 . S
C3093 H3080 0.929 . S
C3093 C3085 1.433 . S
C3093 N3095 1.384 . S
N3094 C3090 1.427 . S
N3094 C3091 1.384 . S
N3095 C3087 1.427 . S
N3095 C3093 1.384 . S
H3096 C3102 0.930 . S
H3097 C3106 0.930 . S
H3098 C3111 0.929 . S
H3099 C3109 0.929 . S
H3100 C3104 0.929 . S
H3101 C3110 0.929 . S
C3102 H3096 0.930 . S
C3102 C3103 1.367 . S
C3102 C3110 1.378 . S
C3103 C3102 1.367 . S
C3103 C3111 1.433 . S
C3104 H3100 0.929 . S
C3104 C3106 1.378 . S
C3104 C3108 1.350 . S
C3105 C3108 1.463 . S
C3105 C3110 1.350 . S
C3105 N3113 1.427 . S
C3106 H3097 0.930 . S
C3106 C3104 1.378 . S
C3106 C3107 1.367 . S
C3107 C3106 1.367 . S
C3107 C3109 1.433 . S
C3108 C3104 1.350 . S
C3108 C3105 1.463 . S
C3108 N3112 1.427 . S
C3109 H3099 0.929 . S
C3109 C3107 1.433 . S
C3109 N3112 1.384 . S
C3110 H3101 0.929 . S
C3110 C3102 1.378 . S
C3110 C3105 1.350 . S
C3111 H3098 0.929 . S
C3111 C3103 1.433 . S
C3111 N3113 1.384 . S
N3112 C3108 1.427 . S
N3112 C3109 1.384 . S
N3113 C3105 1.427 . S
N3113 C3111 1.384 . S
H3114 C3120 0.930 . S
H3115 C3124 0.930 . S
H3116 C3129 0.929 . S
H3117 C3127 0.929 . S
H3118 C3122 0.929 . S
H3119 C3128 0.929 . S
C3120 H3114 0.930 . S
C3120 C3121 1.367 . S
C3120 C3128 1.378 . S
C3121 C3120 1.367 . S
C3121 C3129 1.433 . S
C3122 H3118 0.929 . S
C3122 C3124 1.378 . S
C3122 C3126 1.350 . S
C3123 C3126 1.463 . S
C3123 C3128 1.350 . S
C3123 N3131 1.427 . S
C3124 H3115 0.930 . S
C3124 C3122 1.378 . S
C3124 C3125 1.367 . S
C3125 C3124 1.367 . S
C3125 C3127 1.433 . S
C3126 C3122 1.350 . S
C3126 C3123 1.463 . S
C3126 N3130 1.427 . S
C3127 H3117 0.929 . S
C3127 C3125 1.433 . S
C3127 N3130 1.384 . S
C3128 H3119 0.929 . S
C3128 C3120 1.378 . S
C3128 C3123 1.350 . S
C3129 H3116 0.929 . S
C3129 C3121 1.433 . S
C3129 N3131 1.384 . S
N3130 C3126 1.427 . S
N3130 C3127 1.384 . S
N3131 C3123 1.427 . S
N3131 C3129 1.384 . S
H3132 C3138 0.930 . S
H3133 C3142 0.930 . S
H3134 C3147 0.929 . S
H3135 C3145 0.929 . S
H3136 C3140 0.929 . S
H3137 C3146 0.929 . S
C3138 H3132 0.930 . S
C3138 C3139 1.367 . S
C3138 C3146 1.378 . S
C3139 C3138 1.367 . S
C3139 C3147 1.433 . S
C3140 H3136 0.929 . S
C3140 C3142 1.378 . S
C3140 C3144 1.350 . S
C3141 C3144 1.463 . S
C3141 C3146 1.350 . S
C3141 N3149 1.427 . S
C3142 H3133 0.930 . S
C3142 C3140 1.378 . S
C3142 C3143 1.367 . S
C3143 C3142 1.367 . S
C3143 C3145 1.433 . S
C3144 C3140 1.350 . S
C3144 C3141 1.463 . S
C3144 N3148 1.427 . S
C3145 H3135 0.929 . S
C3145 C3143 1.433 . S
C3145 N3148 1.384 . S
C3146 H3137 0.929 . S
C3146 C3138 1.378 . S
C3146 C3141 1.350 . S
C3147 H3134 0.929 . S
C3147 C3139 1.433 . S
C3147 N3149 1.384 . S
N3148 C3144 1.427 . S
N3148 C3145 1.384 . S
N3149 C3141 1.427 . S
N3149 C3147 1.384 . S
H3150 C3156 0.930 . S
H3151 C3160 0.930 . S
H3152 C3165 0.929 . S
H3153 C3163 0.929 . S
H3154 C3158 0.929 . S
H3155 C3164 0.929 1_455 S
C3156 H3150 0.930 . S
C3156 C3157 1.367 . S
C3156 C3164 1.378 . S
C3157 C3156 1.367 . S
C3157 C3165 1.433 . S
C3158 H3154 0.929 . S
C3158 C3160 1.378 . S
C3158 C3162 1.350 . S
C3159 C3162 1.463 . S
C3159 C3164 1.350 . S
C3159 N3167 1.427 . S
C3160 H3151 0.930 . S
C3160 C3158 1.378 . S
C3160 C3161 1.432 . S
C3161 C3160 1.432 . S
C3161 C3163 1.420 1_655 S
C3162 C3158 1.350 . S
C3162 C3159 1.463 . S
C3162 N3166 1.427 1_655 S
C3163 H3153 0.929 . S
C3163 C3161 1.420 1_455 S
C3163 N3166 1.384 . S
C3164 H3155 0.929 1_655 S
C3164 C3156 1.378 . S
C3164 C3159 1.350 . S
C3165 H3152 0.929 . S
C3165 C3157 1.433 . S
C3165 N3167 1.384 . S
N3166 C3162 1.427 1_455 S
N3166 C3163 1.384 . S
N3167 C3159 1.427 . S
N3167 C3165 1.384 . S
H3168 C3174 0.930 . S
H3169 C3178 0.930 . S
H3170 C3183 0.929 . S
H3171 C3181 0.929 . S
H3172 C3176 0.929 . S
H3173 C3182 0.929 . S
C3174 H3168 0.930 . S
C3174 C3175 1.367 . S
C3174 C3182 1.378 . S
C3175 C3174 1.367 . S
C3175 C3183 1.433 . S
C3176 H3172 0.929 . S
C3176 C3178 1.378 . S
C3176 C3180 1.350 . S
C3177 C3180 1.463 . S
C3177 C3182 1.350 . S
C3177 N3185 1.427 . S
C3178 H3169 0.930 . S
C3178 C3176 1.378 . S
C3178 C3179 1.367 . S
C3179 C3178 1.367 . S
C3179 C3181 1.433 . S
C3180 C3176 1.350 . S
C3180 C3177 1.463 . S
C3180 N3184 1.427 . S
C3181 H3171 0.929 . S
C3181 C3179 1.433 . S
C3181 N3184 1.384 . S
C3182 H3173 0.929 . S
C3182 C3174 1.378 . S
C3182 C3177 1.350 . S
C3183 H3170 0.929 . S
C3183 C3175 1.433 . S
C3183 N3185 1.384 . S
N3184 C3180 1.427 . S
N3184 C3181 1.384 . S
N3185 C3177 1.427 . S
N3185 C3183 1.384 . S
H3186 C3192 0.930 . S
H3187 C3196 0.930 . S
H3188 C3201 0.929 . S
H3189 C3199 0.929 . S
H3190 C3194 0.929 . S
H3191 C3200 0.929 . S
C3192 H3186 0.930 . S
C3192 C3193 1.367 1_565 S
C3192 C3200 1.378 . S
C3193 C3192 1.367 1_545 S
C3193 C3201 1.433 . S
C3194 H3190 0.929 . S
C3194 C3196 1.378 . S
C3194 C3198 1.350 . S
C3195 C3198 1.463 . S
C3195 C3200 1.350 1_545 S
C3195 N3203 1.427 . S
C3196 H3187 0.930 . S
C3196 C3194 1.378 . S
C3196 C3197 1.404 . S
C3197 C3196 1.404 . S
C3197 C3199 1.373 1_545 S
C3198 C3194 1.350 . S
C3198 C3195 1.463 . S
C3198 N3202 1.427 1_545 S
C3199 H3189 0.929 . S
C3199 C3197 1.373 1_565 S
C3199 N3202 1.384 . S
C3200 H3191 0.929 . S
C3200 C3192 1.378 . S
C3200 C3195 1.350 1_565 S
C3201 H3188 0.929 . S
C3201 C3193 1.433 . S
C3201 N3203 1.384 . S
N3202 C3198 1.427 1_565 S
N3202 C3199 1.384 . S
N3203 C3195 1.427 . S
N3203 C3201 1.384 . S
C1915 C49 1.672 . S
C1919 C1753 1.666 . S
C1933 C137 1.681 . S
C1937 C1778 1.662 . S
C1955 C1789 1.674 . S
C1951 C205 1.681 . S
C1969 C196 1.680 . S
C1973 C1814 1.669 . S
C1987 C57 1.681 . S
C1991 C1832 1.683 . S
C2005 C145 1.680 . S
C2009 C1843 1.657 . S
C2023 C313 1.694 . S
C2027 C1825 1.681 1_455 S
C2045 C1850 1.662 . S
C2041 C401 1.674 . S
C2063 C1807 1.677 1_565 S
C2059 C489 1.691 . S
C2077 C469 1.684 . S
C2081 C1796 1.679 1_545 S
C2099 C1760 1.658 1_655 S
C2095 C293 1.700 . S
C2113 C381 1.676 . S
C2117 C1771 1.660 . S
C2131 C577 1.712 . S
C2135 C1861 1.682 . S
C2149 C645 1.700 . S
C2153 C1886 1.675 . S
C2171 C1897 1.654 . S
C2167 C733 1.680 . S
C2185 C724 1.689 . S
C2189 C1598 1.668 . S
C2203 C585 1.710 . S
C2207 C1616 1.695 . S
C2221 C636 1.713 . S
C2225 C1627 1.683 . S
C2239 C841 1.675 . S
C2243 C1609 1.658 . S
C2257 C937 1.695 . S
C2261 C1634 1.680 . S
C2279 C1591 1.673 . S
C2275 C1025 1.688 . S
C2297 C1904 1.689 . S
C2293 C988 1.702 . S
C2315 C1868 1.652 . S
C2311 C821 1.670 . S
C2333 C1879 1.667 . S
C2329 C900 1.685 . S
C2347 C1105 1.683 . S
C2351 C1645 1.658 . S
C2365 C1193 1.715 . S
C2369 C1670 1.693 . S
C2383 C1281 1.703 . S
C2387 C1681 1.679 . S
C2401 C1289 1.719 . S
C2405 C1706 1.698 . S
C2423 C1724 1.668 . S
C2419 C1113 1.685 . S
C2441 C1735 1.665 . S
C2437 C1201 1.697 . S
C2459 C1717 1.680 . S
C2455 C1369 1.701 . S
C2477 C1742 1.659 . S
C2473 C1457 1.678 . S
C2491 C1553 1.663 . S
C2495 C1699 1.641 . S
C2513 C1688 1.655 . S
C2509 C1516 1.673 . S
C2527 C1349 1.695 . S
C2531 C1652 1.675 . S
C2549 C1663 1.688 . S
C2545 C1437 1.703 . S
C2567 C1600 1.305 . S
C2563 C29 1.365 . S
C2581 C117 1.309 . S
C2585 C1618 1.241 . S
C2603 C1628 1.302 . S
C2599 C225 1.372 . S
C2621 C1646 1.305 . S
C2617 C233 1.352 . S
C2639 C1672 1.310 . S
C2635 C20 1.375 . S
C2657 C1682 1.233 . S
C2653 C108 1.313 . S
C2671 C321 1.417 . S
C2675 C1690 1.338 . S
C2689 C409 1.363 . S
C2693 C1654 1.260 . S
C2707 C497 1.418 . S
C2711 C1664 1.348 . S
C2725 C460 1.409 . S
C2729 C1610 1.357 . S
C2747 C1636 1.333 . S
C2743 C284 1.416 . S
C2761 C372 1.365 . S
C2765 C1592 1.281 . S
C2783 C1708 1.272 . S
C2779 C557 1.325 . S
C2797 C665 1.384 . S
C2801 C1726 1.310 . S
C2815 C753 1.385 . S
C2819 C1736 1.319 . S
C2837 C1754 1.149 . S
C2833 C761 1.216 . S
C2851 C548 1.316 . S
C2855 C1780 1.265 . S
C2869 C673 1.226 . S
C2873 C1790 1.161 . S
C2887 C849 1.242 . S
C2891 C1798 1.172 . S
C2905 C929 1.246 . S
C2909 C1762 1.170 . S
C2927 C1772 1.276 . S
C2923 C1017 1.366 . S
C2941 C997 1.376 . S
C2945 C1718 1.296 . S
C2959 C812 1.435 . S
C2963 C1744 1.339 . S
C2981 C1700 1.352 . S
C2977 C909 1.432 . S
C2999 C1816 1.160 . S
C2995 C1085 1.220 . S
C3013 C1173 1.225 . S
C3017 C1834 1.154 . S
C3031 C1261 1.318 . S
C3035 C1844 1.239 . S
C3053 C1862 1.252 . S
C3049 C1252 1.324 . S
C3071 C1888 1.328 . S
C3067 C1076 1.387 . S
C3085 C1164 1.383 . S
C3089 C1898 1.313 . S
C3103 C1377 1.379 . S
C3107 C1906 1.269 . S
C3121 C1465 1.428 . S
C3125 C1870 1.339 . S
C3143 C1880 1.356 . S
C3139 C1545 1.433 . S
C3161 C1826 1.115 1_655 S
C3157 C1525 1.232 . S
C3179 C1852 1.283 . S
C3175 C1340 1.366 . S
C3193 C1428 1.246 . S
C3197 C1808 1.214 1_545 S
