# Generated by pormake.
# Topology rtl, (3,6)-cn, num edge types: 1
# Building blocks:
#     Node 0, Type 0, BuildingBlock: BETDAH_clean_linker_0, # of connection points: 3
#     Node 1, Type 0, BuildingBlock: BETDAH_clean_linker_0, # of connection points: 3
#     Node 2, Type 0, BuildingBlock: BETDAH_clean_linker_0, # of connection points: 3
#     Node 3, Type 0, BuildingBlock: BETDAH_clean_linker_0, # of connection points: 3
#     Node 4, Type 1, BuildingBlock: LEVNOQ01_clean_sbu_1, # of connection points: 6
#     Node 5, Type 1, BuildingBlock: LEVNOQ01_clean_sbu_1, # of connection points: 6
#     Edge 6, Type (0, 1), BuildingBlock: MIFKUJ_clean_linker_0, # of connection points: 2
#     Edge 7, Type (0, 1), BuildingBlock: MIFKUJ_clean_linker_0, # of connection points: 2
#     Edge 8, Type (0, 1), BuildingBlock: MIFKUJ_clean_linker_0, # of connection points: 2
#     Edge 9, Type (0, 1), BuildingBlock: MIFKUJ_clean_linker_0, # of connection points: 2
#     Edge 10, Type (0, 1), BuildingBlock: MIFKUJ_clean_linker_0, # of connection points: 2
#     Edge 11, Type (0, 1), BuildingBlock: MIFKUJ_clean_linker_0, # of connection points: 2
#     Edge 12, Type (0, 1), BuildingBlock: MIFKUJ_clean_linker_0, # of connection points: 2
#     Edge 13, Type (0, 1), BuildingBlock: MIFKUJ_clean_linker_0, # of connection points: 2
#     Edge 14, Type (0, 1), BuildingBlock: MIFKUJ_clean_linker_0, # of connection points: 2
#     Edge 15, Type (0, 1), BuildingBlock: MIFKUJ_clean_linker_0, # of connection points: 2
#     Edge 16, Type (0, 1), BuildingBlock: MIFKUJ_clean_linker_0, # of connection points: 2
#     Edge 17, Type (0, 1), BuildingBlock: MIFKUJ_clean_linker_0, # of connection points: 2
# Relax obj value: 0.016
# Max RMSD: 0.118
# Mean RMSD: 0.088
data_MOF--net-rtl--node1-LEVNOQ01_clean_sbu_1--node2-BETDAH_clean_linker_0--edge1-MIFKUJ_clean_linker_0
_symmetry_space_group_name_H-M    P1
_symmetry_Int_Tables_number       1
_symmetry_cell_setting            triclinic
loop_
_symmetry_equiv_pos_as_xyz
'x, y, z'
_cell_length_a     46.46688
_cell_length_b     46.454216
_cell_length_c     29.352118
_cell_angle_alpha  91.045593
_cell_angle_beta   98.997362
_cell_angle_gamma 89.769049
loop_
_atom_site_label
_atom_site_type_symbol
_atom_site_fract_x
_atom_site_fract_y
_atom_site_fract_z
_atom_type_partial_charge
H0 H 0.16704 0.8851 0.071 0.0
H1 H 0.20799 0.81172 0.14163 0.0
H2 H 0.20486 0.81901 0.99546 0.0
C3 C 0.18035 0.86584 0.07098 0.0
C4 C 0.18686 0.85474 0.02925 0.0
C5 C 0.18809 0.8506 0.11185 0.0
C6 C 0.20357 0.82461 0.11091 0.0
C7 C 0.21009 0.81354 0.06883 0.0
C8 C 0.20182 0.82872 0.02828 0.0
N9 N 0.21742 0.78433 0.06471 0.0
C10 C 0.24507 0.77347 0.07823 0.0
H11 H 0.66199 0.64427 0.57664 0.0
H12 H 0.68941 0.72132 0.51702 0.0
H13 H 0.68386 0.7201 0.66091 0.0
C14 C 0.66892 0.66651 0.58059 0.0
C15 C 0.6704 0.68048 0.62357 0.0
C16 C 0.67265 0.68178 0.54112 0.0
C17 C 0.68584 0.70914 0.54675 0.0
C18 C 0.6917 0.72195 0.59107 0.0
C19 C 0.68238 0.70832 0.62849 0.0
N20 N 0.70256 0.75037 0.59814 0.0
C21 C 0.72605 0.76142 0.58003 0.0
H22 H 0.8596 0.15513 0.01088 0.0
H23 H 0.80304 0.21907 0.05788 0.0
H24 H 0.81088 0.21198 0.91389 0.0
C25 C 0.84389 0.17239 0.00326 0.0
C26 C 0.83658 0.18166 0.95788 0.0
C27 C 0.83171 0.18534 0.03937 0.0
C28 C 0.81232 0.20875 0.03013 0.0
C29 C 0.80498 0.21833 0.98436 0.0
C30 C 0.81714 0.2047 0.94893 0.0
N31 N 0.78577 0.24158 0.97134 0.0
C32 C 0.76803 0.25622 -0.0021 0.0
H33 H 0.34837 0.36622 0.50671 0.0
H34 H 0.27402 0.32727 0.55223 0.0
H35 H 0.27728 0.33481 0.40731 0.0
C36 C 0.32766 0.35507 0.49891 0.0
C37 C 0.31489 0.35083 0.45291 0.0
C38 C 0.3129 0.34703 0.53489 0.0
C39 C 0.2857 0.33329 0.52464 0.0
C40 C 0.27318 0.32847 0.47833 0.0
C41 C 0.28752 0.3378 0.44289 0.0
N42 N 0.2452 0.3163 0.4661 0.0
C43 C 0.23628 0.29178 0.48602 0.0
O44 O -0.00397 0.06259 0.62186 0.0
Mg45 Mg 0.03019 0.04242 0.59899 0.0
O46 O 0.97031 0.03147 0.57514 0.0
Mg47 Mg 0.00207 0.00865 0.52962 0.0
O48 O 0.03565 0.04599 0.53235 0.0
O49 O 0.05889 0.07211 0.59302 0.0
O50 O 0.03069 0.98378 0.48174 0.0
O51 O 0.98377 0.0385 0.46641 0.0
Mg52 Mg 0.96381 0.98935 0.46584 0.0
O53 O 0.96695 0.972 0.5292 0.0
O54 O -0.00467 0.97689 0.42353 0.0
O55 O 0.93836 0.02653 0.45457 0.0
O56 O 0.93547 0.95746 0.46661 0.0
C57 C 0.04375 0.98586 0.62727 0.0
C58 C 0.97199 0.05122 0.60618 0.0
C59 C 0.05334 0.0664 0.54939 0.0
C60 C 0.0221 0.9749 0.44036 0.0
C61 C 0.95792 0.04347 0.44698 0.0
C62 C 0.94552 0.95591 0.50994 0.0
O63 O 0.05125 0.01131 0.63806 0.0
O64 O 0.0252 0.98032 0.59136 0.0
O65 O 0.55054 0.51604 0.14992 0.0
Mg66 Mg 0.53939 0.47696 0.11939 0.0
O67 O 0.52059 0.53957 0.09785 0.0
Mg68 Mg 0.4992 0.50816 0.0394 0.0
O69 O 0.5325 0.47087 0.04956 0.0
O70 O 0.57462 0.46205 0.09429 0.0
O71 O 0.47403 0.47955 0.9782 0.0
O72 O 0.52969 0.52698 0.98965 0.0
Mg73 Mg 0.46775 0.54824 0.96102 0.0
O74 O 0.46644 0.54513 0.02855 0.0
O75 O 0.45189 0.511 0.92779 0.0
O76 O 0.50747 0.56324 0.95027 0.0
O77 O 0.43972 0.57641 0.98192 0.0
C78 C 0.47633 0.4687 0.12482 0.0
C79 C 0.53866 0.53903 0.13507 0.0
C80 C 0.55982 0.46398 0.05356 0.0
C81 C 0.45732 0.48543 0.94046 0.0
C82 C 0.52979 0.54803 0.96223 0.0
C83 C 0.44788 0.56609 0.02247 0.0
O84 O 0.50209 0.45968 0.13795 0.0
O85 O 0.47066 0.48706 0.09216 0.0
H86 H 0.24761 0.23781 0.45901 0.0
H87 H 0.21741 0.19525 0.4657 0.0
H88 H 0.16363 0.24598 0.54421 0.0
H89 H 0.19419 0.28814 0.53833 0.0
H90 H 0.17034 0.19479 0.57803 0.0
H91 H 0.1453 0.23324 0.42507 0.0
H92 H 0.14781 0.2469 0.34497 0.0
H93 H 0.17351 0.16082 0.31359 0.0
H94 H 0.17161 0.14676 0.39365 0.0
H95 H 0.0391 0.12157 0.54233 0.0
H96 H 0.07345 0.15864 0.528 0.0
H97 H 0.12798 0.09345 0.47836 0.0
H98 H 0.09376 0.05605 0.49399 0.0
H99 H 0.12379 0.14752 0.43219 0.0
H100 H 0.14385 0.10863 0.58482 0.0
H101 H 0.13553 0.0949 0.66248 0.0
H102 H 0.11372 0.18234 0.69255 0.0
H103 H 0.12157 0.19659 0.61486 0.0
C104 C 0.22979 0.23946 0.47874 0.0
C105 C 0.223 0.26586 0.49838 0.0
C106 C 0.21241 0.21537 0.48204 0.0
C107 C 0.18794 0.2177 0.50452 0.0
C108 C 0.18235 0.24378 0.52653 0.0
C109 C 0.1998 0.26776 0.52339 0.0
C110 C 0.16741 0.19351 0.50388 0.0
C111 C 0.16003 0.1846 0.5461 0.0
C112 C 0.15446 0.17977 0.46218 0.0
C113 C 0.15895 0.18914 0.41573 0.0
C114 C 0.15219 0.21742 0.40144 0.0
C115 C 0.15328 0.22517 0.35591 0.0
C116 C 0.16096 0.20478 0.32428 0.0
C117 C 0.16774 0.17664 0.33817 0.0
C118 C 0.16675 0.16881 0.38364 0.0
C119 C 0.05774 0.11544 0.52619 0.0
C120 C 0.06448 0.08639 0.51968 0.0
C121 C 0.07745 0.13644 0.51886 0.0
C122 C 0.10353 0.12828 0.50418 0.0
C123 C 0.10808 0.09968 0.49083 0.0
C124 C 0.08845 0.07852 0.49887 0.0
C125 C 0.12679 0.14936 0.50581 0.0
C126 C 0.13456 0.15758 0.46399 0.0
C127 C 0.13976 0.1626 0.54776 0.0
C128 C 0.13312 0.15367 0.59362 0.0
C129 C 0.13684 0.12489 0.60763 0.0
C130 C 0.13235 0.11702 0.65182 0.0
C131 C 0.1241 0.13773 0.68242 0.0
C132 C 0.12012 0.16631 0.66881 0.0
C133 C 0.12461 0.17429 0.6247 0.0
H134 H 0.12084 0.13164 0.71669 0.0
H135 H 0.16153 0.21077 0.28896 0.0
H136 H 0.24129 0.71715 0.07428 0.0
H137 H 0.28075 0.68272 0.07338 0.0
H138 H 0.34344 0.752 0.09482 0.0
H139 H 0.30311 0.78705 0.09312 0.0
H140 H 0.35575 0.71341 0.02965 0.0
H141 H 0.33333 0.70528 0.18607 0.0
H142 H 0.30183 0.69821 0.24532 0.0
H143 H 0.27214 0.61756 0.18135 0.0
H144 H 0.30337 0.62421 0.12166 0.0
H145 H 0.47076 0.61265 0.06927 0.0
H146 H 0.43835 0.65205 0.08485 0.0
H147 H 0.36608 0.59258 0.06852 0.0
H148 H 0.39862 0.55338 0.05392 0.0
H149 H 0.36181 0.62934 0.13259 0.0
H150 H 0.38202 0.63424 0.9772 0.0
H151 H 0.40954 0.63953 0.91241 0.0
H152 H 0.43995 0.72255 0.96518 0.0
H153 H 0.41286 0.71773 0.03052 0.0
C154 C 0.26355 0.72494 0.07944 0.0
C155 C 0.26951 0.75435 0.08447 0.0
C156 C 0.28606 0.70532 0.079 0.0
C157 C 0.31505 0.71474 0.08507 0.0
C158 C 0.32117 0.74436 0.09046 0.0
C159 C 0.29834 0.76423 0.09001 0.0
C160 C 0.33852 0.69324 0.08526 0.0
C161 C 0.35767 0.69529 0.05276 0.0
C162 C 0.33995 0.66904 0.11409 0.0
C163 C 0.32058 0.66536 0.14932 0.0
C164 C 0.31992 0.68616 0.18449 0.0
C165 C 0.30217 0.68217 0.2182 0.0
C166 C 0.28497 0.65747 0.21707 0.0
C167 C 0.28547 0.63668 0.18221 0.0
C168 C 0.30324 0.64052 0.1485 0.0
C169 C 0.44832 0.60782 0.07216 0.0
C170 C 0.43682 0.58036 0.06017 0.0
C171 C 0.4297 0.63043 0.0793 0.0
C172 C 0.39973 0.62535 0.07546 0.0
C173 C 0.38914 0.59699 0.07052 0.0
C174 C 0.40779 0.57446 0.06358 0.0
C175 C 0.37921 0.64932 0.07717 0.0
C176 C 0.36038 0.64761 0.1098 0.0
C177 C 0.37785 0.6733 0.04757 0.0
C178 C 0.39563 0.67542 0.00943 0.0
C179 C 0.39491 0.65345 0.97551 0.0
C180 C 0.41033 0.65643 0.93846 0.0
C181 C 0.42655 0.68131 0.93475 0.0
C182 C 0.42743 0.70325 0.96812 0.0
C183 C 0.41202 0.7004 0.00517 0.0
H184 H 0.43836 0.68362 0.90601 0.0
H185 H 0.27129 0.65443 0.24325 0.0
H186 H 0.73461 0.81458 0.61211 0.0
H187 H 0.77521 0.84646 0.60555 0.0
H188 H 0.81235 0.78151 0.52504 0.0
H189 H 0.77146 0.74889 0.53282 0.0
H190 H 0.85369 0.80702 0.59094 0.0
H191 H 0.77842 0.84041 0.47271 0.0
H192 H 0.72871 0.85603 0.44055 0.0
H193 H 0.73572 0.92759 0.53629 0.0
H194 H 0.78534 0.91221 0.56945 0.0
H195 H 0.94925 0.89907 0.50329 0.0
H196 H 0.91338 0.86538 0.52216 0.0
H197 H 0.87345 0.93324 0.59346 0.0
H198 H 0.90883 0.96767 0.5715 0.0
H199 H 0.83418 0.90624 0.53369 0.0
H200 H 0.90918 0.87363 0.65228 0.0
H201 H 0.96101 0.86231 0.67786 0.0
H202 H 0.95571 0.79221 0.57954 0.0
H203 H 0.90387 0.80331 0.55298 0.0
C204 C 0.75131 0.8072 0.59266 0.0
C205 C 0.74987 0.77965 0.57243 0.0
C206 C 0.77447 0.82543 0.58884 0.0
C207 C 0.79655 0.81664 0.56409 0.0
C208 C 0.79538 0.7888 0.54401 0.0
C209 C 0.77206 0.77031 0.54816 0.0
C210 C 0.82076 0.8368 0.5604 0.0
C211 C 0.84946 0.82858 0.57795 0.0
C212 C 0.81519 0.86525 0.54449 0.0
C213 C 0.78554 0.87496 0.52387 0.0
C214 C 0.76931 0.85939 0.48709 0.0
C215 C 0.74115 0.86822 0.46866 0.0
C216 C 0.72903 0.89273 0.48646 0.0
C217 C 0.74512 0.90858 0.52257 0.0
C218 C 0.77329 0.89984 0.54114 0.0
C219 C 0.93356 0.90644 0.52465 0.0
C220 C 0.93181 0.9355 0.53661 0.0
C221 C 0.91302 0.88723 0.53551 0.0
C222 C 0.89089 0.89661 0.55982 0.0
C223 C 0.89043 0.92551 0.57488 0.0
C224 C 0.91085 0.94499 0.56313 0.0
C225 C 0.86691 0.8766 0.56489 0.0
C226 C 0.83831 0.88479 0.5473 0.0
C227 C 0.87255 0.84829 0.58101 0.0
C228 C 0.90255 0.83918 0.60084 0.0
C229 C 0.91897 0.85556 0.63651 0.0
C230 C 0.94839 0.84931 0.65098 0.0
C231 C 0.96163 0.82654 0.63036 0.0
C232 C 0.94537 0.80977 0.59559 0.0
C233 C 0.91591 0.81594 0.58096 0.0
H234 H 0.98449 0.82189 0.64132 0.0
H235 H 0.7072 0.89948 0.47223 0.0
H236 H 0.77133 0.31316 0.99341 0.0
H237 H 0.73214 0.34772 -0.00194 0.0
H238 H 0.67739 0.2794 0.03358 0.0
H239 H 0.71666 0.24444 0.02708 0.0
H240 H 0.64797 0.31236 0.96842 0.0
H241 H 0.70776 0.33056 0.11398 0.0
H242 H 0.75433 0.33971 0.16499 0.0
H243 H 0.76375 0.41948 0.09721 0.0
H244 H 0.71748 0.41058 0.04517 0.0
H245 H 0.5424 0.4102 0.03296 0.0
H246 H 0.57732 0.37264 0.02209 0.0
H247 H 0.63778 0.43689 0.99031 0.0
H248 H 0.60342 0.47474 0.0052 0.0
H249 H 0.66291 0.40439 0.05741 0.0
H250 H 0.60379 0.38577 0.91056 0.0
H251 H 0.55551 0.37868 0.8635 0.0
H252 H 0.54405 0.30084 0.93526 0.0
H253 H 0.59199 0.30788 0.98371 0.0
C254 C 0.75121 0.30571 0.00353 0.0
C255 C 0.74709 0.27645 0.01106 0.0
C256 C 0.72877 0.32541 0.006 0.0
C257 C 0.7019 0.31628 0.01684 0.0
C258 C 0.69798 0.28696 0.02541 0.0
C259 C 0.72046 0.26711 0.02237 0.0
C260 C 0.6778 0.33739 0.01727 0.0
C261 C 0.65111 0.33229 0.98837 0.0
C262 C 0.68201 0.36367 0.04271 0.0
C263 C 0.7092 0.36976 0.07539 0.0
C264 C 0.71979 0.35002 0.10983 0.0
C265 C 0.74616 0.35514 0.13891 0.0
C266 C 0.76202 0.38012 0.13426 0.0
C267 C 0.75145 0.40012 0.10073 0.0
C268 C 0.72512 0.39506 0.07146 0.0
C269 C 0.56239 0.41616 0.0208 0.0
C270 C 0.57034 0.44518 0.01966 0.0
C271 C 0.58261 0.39468 0.01533 0.0
C272 C 0.61035 0.40192 0.00574 0.0
C273 C 0.61666 0.43085 -0.00173 0.0
C274 C 0.59675 0.45242 0.0054 0.0
C275 C 0.63349 0.37968 0.0076 0.0
C276 C 0.65986 0.38449 0.03731 0.0
C277 C 0.62899 0.35323 0.98291 0.0
C278 C 0.60151 0.34738 0.95084 0.0
C279 C 0.59104 0.36706 0.9162 0.0
C280 C 0.56366 0.36315 0.88946 0.0
C281 C 0.54671 0.33933 0.89642 0.0
C282 C 0.55722 0.31927 0.92993 0.0
C283 C 0.58452 0.3232 0.95703 0.0
H284 H 0.52545 0.3364 0.87581 0.0
H285 H 0.78248 0.384 0.15671 0.0
H286 H 0.13108 0.8488 0.11892 0.0
H287 H 0.10695 0.87046 0.17952 0.0
H288 H 0.19063 0.89487 0.25568 0.0
H289 H 0.21491 0.87264 0.19483 0.0
H290 H 0.15323 0.8758 0.31214 0.0
H291 H 0.14888 0.94415 0.18956 0.0
H292 H 0.13758 0.9623 0.11025 0.0
H293 H 0.0471 0.94263 0.10723 0.0
H294 H 0.05786 0.92405 0.18623 0.0
H295 H 0.0825 0.97322 0.45659 0.0
H296 H 0.11504 0.95237 0.40606 0.0
H297 H 0.04031 0.92581 0.30836 0.0
H298 H 0.00804 0.94671 0.35772 0.0
H299 H 0.07847 0.95039 0.26459 0.0
H300 H 0.08141 0.87901 0.38164 0.0
H301 H 0.0908 0.85809 0.45914 0.0
H302 H 0.1815 0.8794 0.47037 0.0
H303 H 0.17255 0.90102 0.39331 0.0
C304 C 0.14428 0.85844 0.14901 0.0
C305 C 0.17473 0.85939 0.15234 0.0
C306 C 0.13051 0.87101 0.18336 0.0
C307 C 0.14691 0.88506 0.2215 0.0
C308 C 0.17753 0.88447 0.22626 0.0
C309 C 0.19139 0.87171 0.19177 0.0
C310 C 0.13182 0.90072 0.25567 0.0
C311 C 0.13727 0.89254 0.30202 0.0
C312 C 0.11051 0.9221 0.24211 0.0
C313 C 0.10422 0.93259 0.19392 0.0
C314 C 0.12661 0.94344 0.17187 0.0
C315 C 0.12029 0.95388 0.12697 0.0
C316 C 0.09164 0.95362 0.10373 0.0
C317 C 0.06928 0.94285 0.12527 0.0
C318 C 0.07547 0.93239 0.17013 0.0
C319 C 0.07306 0.96284 0.42441 0.0
C320 C 0.04258 0.96181 0.4113 0.0
C321 C 0.09169 0.95084 0.39558 0.0
C322 C 0.0802 0.9374 0.35325 0.0
C323 C 0.04983 0.93619 0.34054 0.0
C324 C 0.03133 0.94819 0.36902 0.0
C325 C 0.09931 0.92505 0.3212 0.0
C326 C 0.09468 0.93394 0.27505 0.0
C327 C 0.12107 0.90406 0.33484 0.0
C328 C 0.12619 0.89216 0.382 0.0
C329 C 0.10326 0.87971 0.40093 0.0
C330 C 0.10853 0.86761 0.44473 0.0
C331 C 0.1367 0.86754 0.46976 0.0
C332 C 0.15966 0.87959 0.45105 0.0
C333 C 0.15449 0.89181 0.40735 0.0
H334 H 0.14076 0.85806 0.50358 0.0
H335 H 0.08677 0.9618 0.06907 0.0
H336 H 0.68257 0.68916 0.71859 0.0
H337 H 0.65769 0.66839 0.77717 0.0
H338 H 0.60279 0.61885 0.67233 0.0
H339 H 0.62431 0.6423 0.61335 0.0
H340 H 0.57175 0.63312 0.73115 0.0
H341 H 0.66851 0.5916 0.74525 0.0
H342 H 0.72226 0.58972 0.75867 0.0
H343 H 0.72402 0.63173 0.89064 0.0
H344 H 0.67035 0.63418 0.87774 0.0
H345 H 0.53376 0.52421 0.87998 0.0
H346 H 0.55608 0.54828 0.82062 0.0
H347 H 0.59769 0.60864 0.92351 0.0
H348 H 0.57499 0.58477 0.98261 0.0
H349 H 0.63325 0.5896 0.86573 0.0
H350 H 0.53509 0.62777 0.85214 0.0
H351 H 0.48131 0.62773 0.83828 0.0
H352 H 0.4814 0.58838 0.70485 0.0
H353 H 0.53516 0.58807 0.71792 0.0
C354 C 0.6649 0.67428 0.70761 0.0
C355 C 0.65634 0.66706 0.66064 0.0
C356 C 0.65092 0.662 0.74145 0.0
C357 C 0.62892 0.64128 0.72945 0.0
C358 C 0.61988 0.63451 0.68275 0.0
C359 C 0.63297 0.64756 0.64887 0.0
C360 C 0.61578 0.62597 0.76526 0.0
C361 C 0.58523 0.62332 0.76032 0.0
C362 C 0.63319 0.61351 0.80381 0.0
C363 C 0.66547 0.61335 0.81031 0.0
C364 C 0.68039 0.60075 0.77686 0.0
C365 C 0.71084 0.59951 0.78444 0.0
C366 C 0.72654 0.61065 0.82543 0.0
C367 C 0.71185 0.62316 0.85886 0.0
C368 C 0.68144 0.6245 0.85143 0.0
C369 C 0.54888 0.54174 0.89013 0.0
C370 C 0.55331 0.55241 0.93577 0.0
C371 C 0.56084 0.55596 0.85607 0.0
C372 C 0.57767 0.58077 0.86754 0.0
C373 C 0.58432 0.58977 0.91395 0.0
C374 C 0.57204 0.57576 0.94788 0.0
C375 C 0.5895 0.59683 0.83171 0.0
C376 C 0.61979 0.59948 0.83658 0.0
C377 C 0.57174 0.60886 0.79303 0.0
C378 C 0.5393 0.6076 0.78628 0.0
C379 C 0.52369 0.61874 0.8201 0.0
C380 C 0.49317 0.61893 0.81227 0.0
C381 C 0.47795 0.608 0.77076 0.0
C382 C 0.49321 0.59682 0.73702 0.0
C383 C 0.52371 0.59667 0.7446 0.0
H384 H 0.45436 0.60824 0.76471 0.0
H385 H 0.7501 0.60953 0.83134 0.0
H386 H 0.82583 0.13031 0.06445 0.0
H387 H 0.85063 0.10725 0.13366 0.0
H388 H 0.88315 0.18986 0.18813 0.0
H389 H 0.85897 0.21297 0.11744 0.0
H390 H 0.92615 0.15021 0.19612 0.0
H391 H 0.82736 0.15288 0.23059 0.0
H392 H 0.77441 0.14387 0.21621 0.0
H393 H 0.78988 0.05301 0.20519 0.0
H394 H 0.84293 0.06149 0.21881 0.0
H395 H 0.96801 0.1007 0.43083 0.0
H396 H 0.95081 0.12599 0.3583 0.0
H397 H 0.92024 0.04533 0.29327 0.0
H398 H 0.93691 0.02045 0.36486 0.0
H399 H 0.87726 0.08448 0.29104 0.0
H400 H 0.97332 0.07868 0.25482 0.0
H401 H 0.02674 0.08406 0.2703 0.0
H402 H 0.01746 0.1757 0.2833 0.0
H403 H 0.96391 0.17085 0.26849 0.0
C404 C 0.83764 0.14365 0.09177 0.0
C405 C 0.84024 0.17345 0.08597 0.0
C406 C 0.85189 0.13044 0.13126 0.0
C407 C 0.8686 0.14682 0.16633 0.0
C408 C 0.87031 0.17682 0.16149 0.0
C409 C 0.85614 0.19008 0.12159 0.0
C410 C 0.88499 0.13231 0.20707 0.0
C411 C 0.9154 0.13624 0.21742 0.0
C412 C 0.87116 0.11305 0.23363 0.0
C413 C 0.83917 0.1079 0.22523 0.0
C414 C 0.81949 0.13101 0.22469 0.0
C415 C 0.78945 0.12598 0.21675 0.0
C416 C 0.77879 0.0979 0.20966 0.0
C417 C 0.79816 0.07476 0.21061 0.0
C418 C 0.82823 0.07967 0.21846 0.0
C419 C 0.95805 0.08853 0.40067 0.0
C420 C 0.95276 0.05896 0.40341 0.0
C421 C 0.9484 0.10284 0.35936 0.0
C422 C 0.93387 0.0875 0.32076 0.0
C423 C 0.93101 0.05759 0.3228 0.0
C424 C 0.94039 0.04347 0.36371 0.0
C425 C 0.91822 0.10263 0.28037 0.0
C426 C 0.88798 0.09861 0.26991 0.0
C427 C 0.93229 0.12124 0.2534 0.0
C428 C 0.96453 0.12438 0.26104 0.0
C429 C 0.98264 0.09998 0.26127 0.0
C430 C 0.01296 0.10293 0.26987 0.0
C431 C 0.02549 0.1302 0.27794 0.0
C432 C 0.00772 0.15458 0.27711 0.0
C433 C 0.97737 0.15175 0.26854 0.0
H434 H 0.04896 0.13244 0.28472 0.0
H435 H 0.75553 0.09407 0.20353 0.0
H436 H 0.36435 0.32994 0.58281 0.0
H437 H 0.39012 0.35163 0.65417 0.0
H438 H 0.31633 0.407 0.6633 0.0
H439 H 0.29053 0.38526 0.59139 0.0
H440 H 0.36767 0.43707 0.67599 0.0
H441 H 0.33069 0.35185 0.73597 0.0
H442 H 0.32125 0.30003 0.7428 0.0
H443 H 0.41327 0.28337 0.7689 0.0
H444 H 0.42327 0.33506 0.76151 0.0
H445 H 0.4009 0.48392 0.90539 0.0
H446 H 0.37934 0.45931 0.83436 0.0
H447 H 0.46014 0.41395 0.83014 0.0
H448 H 0.48227 0.43941 0.90153 0.0
H449 H 0.40925 0.38 0.81202 0.0
H450 H 0.4458 0.46694 0.75756 0.0
H451 H 0.45431 0.51914 0.75298 0.0
H452 H 0.36221 0.53378 0.72013 0.0
H453 H 0.35308 0.4817 0.72477 0.0
C454 C 0.35343 0.34622 0.60081 0.0
C455 C 0.32542 0.35568 0.58234 0.0
C456 C 0.36815 0.3587 0.64131 0.0
C457 C 0.3551 0.38088 0.66404 0.0
C458 C 0.32675 0.3899 0.64624 0.0
C459 C 0.3119 0.37724 0.60572 0.0
C460 C 0.37148 0.39486 0.70585 0.0
C461 C 0.37647 0.42472 0.70602 0.0
C462 C 0.38369 0.37851 0.74432 0.0
C463 C 0.37772 0.3473 0.74763 0.0
C464 C 0.34891 0.3371 0.74261 0.0
C465 C 0.34346 0.30776 0.74671 0.0
C466 C 0.36664 0.28841 0.75615 0.0
C467 C 0.39533 0.29837 0.7615 0.0
C468 C 0.4009 0.32769 0.75736 0.0
C469 C 0.41382 0.46806 0.89002 0.0
C470 C 0.44309 0.46325 0.9089 0.0
C471 C 0.40168 0.45451 0.84904 0.0
C472 C 0.4185 0.43565 0.82642 0.0
C473 C 0.44709 0.42894 0.84695 0.0
C474 C 0.45948 0.44291 0.88805 0.0
C475 C 0.40522 0.4221 0.78243 0.0
C476 C 0.40074 0.39233 0.7818 0.0
C477 C 0.39336 0.43867 0.74386 0.0
C478 C 0.39873 0.47026 0.7419 0.0
C479 C 0.42732 0.48127 0.74979 0.0
C480 C 0.43227 0.51086 0.74701 0.0
C481 C 0.40882 0.52976 0.73635 0.0
C482 C 0.38037 0.51911 0.72838 0.0
C483 C 0.3753 0.48953 0.73097 0.0
H484 H 0.41271 0.55263 0.73421 0.0
H485 H 0.36238 0.26571 0.75943 0.0
H486 H 0.68938 0.68623 0.4545 0.0
H487 H 0.66408 0.66543 0.38135 0.0
H488 H 0.5975 0.63144 0.45234 0.0
H489 H 0.62095 0.65324 0.52375 0.0
H490 H 0.62133 0.59008 0.39791 0.0
H491 H 0.57933 0.6849 0.3898 0.0
H492 H 0.57548 0.73778 0.3856 0.0
H493 H 0.61852 0.73661 0.2663 0.0
H494 H 0.62298 0.68375 0.2702 0.0
H495 H 0.51414 0.54543 0.21072 0.0
H496 H 0.53741 0.57048 0.28083 0.0
H497 H 0.59806 0.60969 0.20323 0.0
H498 H 0.57493 0.58423 0.13319 0.0
H499 H 0.57856 0.6464 0.26195 0.0
H500 H 0.61745 0.54929 0.26846 0.0
H501 H 0.61809 0.49627 0.27238 0.0
H502 H 0.57761 0.5005 0.39413 0.0
H503 H 0.5766 0.55354 0.39091 0.0
C504 C 0.66927 0.67452 0.45439 0.0
C505 C 0.65795 0.67051 0.49556 0.0
C506 C 0.65492 0.66262 0.41272 0.0
C507 C 0.6293 0.64649 0.41196 0.0
C508 C 0.61756 0.6433 0.45249 0.0
C509 C 0.63135 0.65558 0.4935 0.0
C510 C 0.61453 0.63245 0.36931 0.0
C511 C 0.61184 0.60229 0.36809 0.0
C512 C 0.60237 0.64853 0.33071 0.0
C513 C 0.60204 0.68043 0.33089 0.0
C514 C 0.58855 0.69597 0.3633 0.0
C515 C 0.58607 0.72593 0.36077 0.0
C516 C 0.59687 0.74056 0.32585 0.0
C517 C 0.61028 0.72528 0.29347 0.0
C518 C 0.61284 0.69534 0.29588 0.0
C519 C 0.53158 0.56052 0.20842 0.0
C520 C 0.54271 0.56341 0.16691 0.0
C521 C 0.5453 0.5741 0.24856 0.0
C522 C 0.57002 0.59098 0.24727 0.0
C523 C 0.57927 0.59622 0.20481 0.0
C524 C 0.56571 0.58234 0.16471 0.0
C525 C 0.58587 0.60403 0.28984 0.0
C526 C 0.58844 0.63404 0.29138 0.0
C527 C 0.59766 0.58766 0.3287 0.0
C528 C 0.59661 0.55555 0.32904 0.0
C529 C 0.60828 0.53896 0.29569 0.0
C530 C 0.60888 0.50887 0.29796 0.0
C531 C 0.59784 0.49503 0.33342 0.0
C532 C 0.58613 0.51124 0.36665 0.0
C533 C 0.58558 0.54134 0.36463 0.0
H534 H 0.59842 0.47176 0.33519 0.0
H535 H 0.59475 0.76373 0.32376 0.0
H536 H 0.84653 0.12403 0.94679 0.0
H537 H 0.86881 0.1002 0.88622 0.0
H538 H 0.87632 0.18188 0.82161 0.0
H539 H 0.85508 0.20621 0.88314 0.0
H540 H 0.85168 0.13796 0.76105 0.0
H541 H 0.935 0.15412 0.87633 0.0
H542 H 0.96276 0.15276 0.95501 0.0
H543 H 0.95976 0.06037 0.95105 0.0
H544 H 0.93152 0.06117 0.87253 0.0
H545 H 0.94522 0.10226 0.60394 0.0
H546 H 0.92152 0.12207 0.66597 0.0
H547 H 0.92337 0.03832 0.72783 0.0
H548 H 0.94827 0.01867 0.66596 0.0
H549 H 0.94332 0.08129 0.79163 0.0
H550 H 0.85929 0.06564 0.67605 0.0
H551 H 0.83504 0.06774 0.59524 0.0
H552 H 0.84123 0.16 0.60015 0.0
H553 H 0.86593 0.1584 0.68087 0.0
C554 C 0.85333 0.13706 0.92017 0.0
C555 C 0.84923 0.1671 0.92009 0.0
C556 C 0.86595 0.12336 0.88552 0.0
C557 C 0.87444 0.13936 0.84989 0.0
C558 C 0.86994 0.16923 0.84903 0.0
C559 C 0.85761 0.18303 0.88401 0.0
C560 C 0.88716 0.12466 0.81269 0.0
C561 C 0.87182 0.12578 0.76769 0.0
C562 C 0.91316 0.10834 0.82177 0.0
C563 C 0.93084 0.10771 0.86861 0.0
C564 C 0.94006 0.1335 0.89231 0.0
C565 C 0.95591 0.13284 0.93689 0.0
C566 C 0.96294 0.1065 0.95807 0.0
C567 C 0.95425 0.08076 0.93461 0.0
C568 C 0.93835 0.08131 0.89002 0.0
C569 C 0.93929 0.08786 0.6296 0.0
C570 C 0.94763 0.05891 0.62969 0.0
C571 C 0.92619 0.09922 0.66542 0.0
C572 C 0.92061 0.08164 0.70147 0.0
C573 C 0.9275 0.05221 0.70031 0.0
C574 C 0.94092 0.04086 0.66443 0.0
C575 C 0.90766 0.09453 0.74008 0.0
C576 C 0.92298 0.09317 0.78525 0.0
C577 C 0.88158 0.11065 0.73141 0.0
C578 C 0.86436 0.1119 0.68448 0.0
C579 C 0.85529 0.08638 0.65997 0.0
C580 C 0.8416 0.08747 0.61413 0.0
C581 C 0.83659 0.11399 0.59258 0.0
C582 C 0.84507 0.13949 0.61695 0.0
C583 C 0.85883 0.13851 0.66279 0.0
H584 H 0.82614 0.11479 0.55699 0.0
H585 H 0.97517 0.10602 0.99261 0.0
H586 H 0.29262 0.39031 0.39053 0.0
H587 H 0.31679 0.41267 0.33187 0.0
H588 H 0.39273 0.35967 0.37243 0.0
H589 H 0.36878 0.33802 0.43244 0.0
H590 H 0.40815 0.4135 0.36497 0.0
H591 H 0.34549 0.34752 0.27095 0.0
H592 H 0.29939 0.32355 0.23844 0.0
H593 H 0.26459 0.40392 0.18444 0.0
H594 H 0.3103 0.4285 0.21731 0.0
H595 H 0.48035 0.42132 0.17704 0.0
H596 H 0.45002 0.40731 0.23248 0.0
H597 H 0.39088 0.4771 0.1907 0.0
H598 H 0.42227 0.49229 0.1347 0.0
H599 H 0.3646 0.42113 0.20016 0.0
H600 H 0.43216 0.4853 0.29252 0.0
H601 H 0.47996 0.50594 0.32521 0.0
H602 H 0.5082 0.42377 0.38034 0.0
H603 H 0.46069 0.40258 0.34774 0.0
C604 C 0.31434 0.38326 0.38641 0.0
C605 C 0.32891 0.36249 0.41556 0.0
C606 C 0.3281 0.39595 0.35289 0.0
C607 C 0.35646 0.38766 0.34741 0.0
C608 C 0.37086 0.36645 0.37613 0.0
C609 C 0.35723 0.35406 0.4102 0.0
C610 C 0.37158 0.40219 0.31329 0.0
C611 C 0.39876 0.41491 0.32883 0.0
C612 C 0.35891 0.4047 0.2664 0.0
C613 C 0.33125 0.38995 0.24703 0.0
C614 C 0.32791 0.36016 0.25257 0.0
C615 C 0.30186 0.34644 0.23399 0.0
C616 C 0.27905 0.36221 0.20949 0.0
C617 C 0.28225 0.39174 0.2035 0.0
C618 C 0.30823 0.40557 0.22208 0.0
C619 C 0.46091 0.4339 0.1792 0.0
C620 C 0.454 0.45824 0.15162 0.0
C621 C 0.44368 0.42587 0.21136 0.0
C622 C 0.41873 0.44162 0.21669 0.0
C623 C 0.41047 0.465 0.18756 0.0
C624 C 0.42817 0.47344 0.15529 0.0
C625 C 0.40125 0.43214 0.25176 0.0
C626 C 0.3737 0.42016 0.23646 0.0
C627 C 0.41386 0.42975 0.29875 0.0
C628 C 0.44283 0.4423 0.31737 0.0
C629 C 0.44864 0.47156 0.31123 0.0
C630 C 0.47567 0.48338 0.3299 0.0
C631 C 0.49711 0.46617 0.35478 0.0
C632 C 0.49157 0.43709 0.36107 0.0
C633 C 0.46457 0.42518 0.34258 0.0
H634 H 0.518 0.47537 0.36921 0.0
H635 H 0.25892 0.35155 0.19505 0.0
H636 H 0.13516 0.83738 0.98444 0.0
H637 H 0.10797 0.85687 0.91354 0.0
H638 H 0.17761 0.91722 0.90666 0.0
H639 H 0.20458 0.89796 0.97861 0.0
H640 H 0.12599 0.94295 0.89317 0.0
H641 H 0.16731 0.85796 0.8349 0.0
H642 H 0.17905 0.80661 0.82532 0.0
H643 H 0.08794 0.78662 0.79284 0.0
H644 H 0.07561 0.83778 0.803 0.0
H645 H 0.09962 0.9829 0.66438 0.0
H646 H 0.11886 0.95954 0.73617 0.0
H647 H 0.03648 0.9168 0.73543 0.0
H648 H 0.0165 0.94127 0.66333 0.0
H649 H 0.08839 0.88246 0.75584 0.0
H650 H 0.04866 0.97027 0.80904 0.0
H651 H 0.03925 0.02232 0.8167 0.0
H652 H 0.13094 0.03804 0.85415 0.0
H653 H 0.14095 0.98615 0.84646 0.0
C654 C 0.14459 0.8547 0.9674 0.0
C655 C 0.17174 0.86629 0.98611 0.0
C656 C 0.12922 0.86566 0.92702 0.0
C657 C 0.14104 0.88813 0.90469 0.0
C658 C 0.16829 0.89975 0.92348 0.0
C659 C 0.18364 0.88884 0.9642 0.0
C660 C 0.12426 0.90026 0.86281 0.0
C661 C 0.11806 0.92984 0.86286 0.0
C662 C 0.11313 0.88276 0.82414 0.0
C663 C 0.12052 0.85172 0.82042 0.0
C664 C 0.14975 0.84258 0.82647 0.0
C665 C 0.15652 0.8135 0.82073 0.0
C666 C 0.13426 0.79335 0.80864 0.0
C667 C 0.10517 0.80223 0.80235 0.0
C668 C 0.09828 0.83126 0.80814 0.0
C669 C 0.08581 0.96794 0.6789 0.0
C670 C 0.05665 0.96384 0.65883 0.0
C671 C 0.09664 0.95511 0.72021 0.0
C672 C 0.07861 0.93756 0.74162 0.0
C673 C 0.05029 0.93103 0.71954 0.0
C674 C 0.03916 0.94438 0.67812 0.0
C675 C 0.09059 0.92507 0.78597 0.0
C676 C 0.09597 0.89544 0.78646 0.0
C677 C 0.10139 0.94264 0.82474 0.0
C678 C 0.09556 0.9742 0.82674 0.0
C679 C 0.06686 0.98483 0.81828 0.0
C680 C 0.06141 0.01433 0.82288 0.0
C681 C 0.08448 0.03347 0.83584 0.0
C682 C 0.11308 0.02319 0.84411 0.0
C683 C 0.11864 0.99372 0.8397 0.0
H684 H 0.0802 0.05626 0.83953 0.0
H685 H 0.13955 0.77088 0.804 0.0
loop_
_geom_bond_atom_site_label_1
_geom_bond_atom_site_label_2
_geom_bond_distance
_geom_bond_site_symmetry_2
_ccdc_geom_bond_type
H0 C3 0.929 . S
H1 C6 0.929 . S
H2 C8 0.930 1_556 S
C3 H0 0.929 . S
C3 C4 1.398 . S
C3 C5 1.396 . S
C4 C3 1.398 . S
C4 C8 1.407 . S
C5 C3 1.396 . S
C5 C6 1.394 . S
C6 H1 0.929 . S
C6 C5 1.394 . S
C6 C7 1.382 . S
C7 C6 1.382 . S
C7 C8 1.392 . S
C7 N9 1.420 . S
C8 H2 0.930 1_554 S
C8 C4 1.407 . S
C8 C7 1.392 . S
N9 C7 1.420 . S
N9 C10 1.244 . S
C10 N9 1.244 . S
H11 C14 0.929 . S
H12 C17 0.929 . S
H13 C19 0.930 . S
C14 H11 0.929 . S
C14 C15 1.398 . S
C14 C16 1.396 . S
C15 C14 1.398 . S
C15 C19 1.407 . S
C16 C14 1.396 . S
C16 C17 1.394 . S
C17 H12 0.929 . S
C17 C16 1.394 . S
C17 C18 1.382 . S
C18 C17 1.382 . S
C18 C19 1.392 . S
C18 N20 1.420 . S
C19 H13 0.930 . S
C19 C15 1.407 . S
C19 C18 1.392 . S
N20 C18 1.420 . S
N20 C21 1.244 . S
C21 N20 1.244 . S
H22 C25 0.929 . S
H23 C28 0.929 . S
H24 C30 0.930 . S
C25 H22 0.929 . S
C25 C26 1.398 1_554 S
C25 C27 1.396 . S
C26 C25 1.398 1_556 S
C26 C30 1.407 . S
C27 C25 1.396 . S
C27 C28 1.394 . S
C28 H23 0.929 . S
C28 C27 1.394 . S
C28 C29 1.382 1_554 S
C29 C28 1.382 1_556 S
C29 C30 1.392 . S
C29 N31 1.420 . S
C30 H24 0.930 . S
C30 C26 1.407 . S
C30 C29 1.392 . S
N31 C29 1.420 . S
N31 C32 1.244 1_556 S
C32 N31 1.244 1_554 S
H33 C36 0.929 . S
H34 C39 0.929 . S
H35 C41 0.930 . S
C36 H33 0.929 . S
C36 C37 1.398 . S
C36 C38 1.396 . S
C37 C36 1.398 . S
C37 C41 1.407 . S
C38 C36 1.396 . S
C38 C39 1.394 . S
C39 H34 0.929 . S
C39 C38 1.394 . S
C39 C40 1.382 . S
C40 C39 1.382 . S
C40 C41 1.392 . S
C40 N42 1.420 . S
C41 H35 0.930 . S
C41 C37 1.407 . S
C41 C40 1.392 . S
N42 C40 1.420 . S
N42 C43 1.244 . S
C43 N42 1.244 . S
O44 Mg45 1.990 . S
O44 C58 1.253 1_455 S
Mg45 O44 1.990 . S
Mg45 O48 2.180 . S
Mg45 O49 2.117 . S
Mg45 O63 2.030 . S
O46 Mg47 2.072 1_655 S
O46 C58 1.260 . S
Mg47 O46 2.072 1_455 S
Mg47 O48 2.099 . S
Mg47 O50 2.079 1_545 S
Mg47 O51 2.072 1_455 S
Mg47 O53 2.099 1_445 S
Mg47 O64 2.079 1_545 S
O48 Mg45 2.180 . S
O48 Mg47 2.099 . S
O48 C59 1.279 . S
O49 Mg45 2.117 . S
O49 C59 1.250 . S
O50 Mg47 2.079 1_565 S
O50 C60 1.264 . S
O51 Mg47 2.072 1_655 S
O51 C61 1.260 . S
Mg52 O53 2.180 . S
Mg52 O54 2.030 1_655 S
Mg52 O55 1.990 1_565 S
Mg52 O56 2.117 . S
O53 Mg47 2.099 1_665 S
O53 Mg52 2.180 . S
O53 C62 1.279 . S
O54 Mg52 2.030 1_455 S
O54 C60 1.248 . S
O55 Mg52 1.990 1_545 S
O55 C61 1.253 . S
O56 Mg52 2.117 . S
O56 C62 1.250 . S
C57 O63 1.248 1_565 S
C57 O64 1.264 . S
C58 O44 1.253 1_655 S
C58 O46 1.260 . S
C59 O48 1.279 . S
C59 O49 1.250 . S
C60 O50 1.264 . S
C60 O54 1.248 . S
C61 O51 1.260 . S
C61 O55 1.253 . S
C62 O53 1.279 . S
C62 O56 1.250 . S
O63 Mg45 2.030 . S
O63 C57 1.248 1_545 S
O64 Mg47 2.079 1_565 S
O64 C57 1.264 . S
O65 Mg66 1.990 . S
O65 C79 1.253 . S
Mg66 O65 1.990 . S
Mg66 O69 2.180 . S
Mg66 O70 2.117 . S
Mg66 O84 2.030 . S
O67 Mg68 2.072 . S
O67 C79 1.260 . S
Mg68 O67 2.072 . S
Mg68 O69 2.099 . S
Mg68 O71 2.079 1_554 S
Mg68 O72 2.072 . S
Mg68 O74 2.099 . S
Mg68 O85 2.079 . S
O69 Mg66 2.180 . S
O69 Mg68 2.099 . S
O69 C80 1.279 . S
O70 Mg66 2.117 . S
O70 C80 1.250 . S
O71 Mg68 2.079 1_556 S
O71 C81 1.264 . S
O72 Mg68 2.072 . S
O72 C82 1.260 1_554 S
Mg73 O74 2.180 1_556 S
Mg73 O75 2.030 . S
Mg73 O76 1.990 . S
Mg73 O77 2.117 1_556 S
O74 Mg68 2.099 . S
O74 Mg73 2.180 1_554 S
O74 C83 1.279 . S
O75 Mg73 2.030 . S
O75 C81 1.248 . S
O76 Mg73 1.990 . S
O76 C82 1.253 . S
O77 Mg73 2.117 1_554 S
O77 C83 1.250 . S
C78 O84 1.248 . S
C78 O85 1.264 . S
C79 O65 1.253 . S
C79 O67 1.260 . S
C80 O69 1.279 . S
C80 O70 1.250 . S
C81 O71 1.264 . S
C81 O75 1.248 . S
C82 O72 1.260 1_556 S
C82 O76 1.253 . S
C83 O74 1.279 . S
C83 O77 1.250 . S
O84 Mg66 2.030 . S
O84 C78 1.248 . S
O85 Mg68 2.079 . S
O85 C78 1.264 . S
H86 C104 0.951 . S
H87 C106 0.951 . S
H88 C108 0.950 . S
H89 C109 0.950 . S
H90 C111 0.950 . S
H91 C114 0.950 . S
H92 C115 0.950 . S
H93 C117 0.950 . S
H94 C118 0.950 . S
H95 C119 0.951 . S
H96 C121 0.951 . S
H97 C123 0.950 . S
H98 C124 0.950 . S
H99 C126 0.950 . S
H100 C129 0.950 . S
H101 C130 0.950 . S
H102 C132 0.950 . S
H103 C133 0.950 . S
C104 H86 0.951 . S
C104 C105 1.366 . S
C104 C106 1.388 . S
C105 C104 1.366 . S
C105 C109 1.385 . S
C106 H87 0.951 . S
C106 C104 1.388 . S
C106 C107 1.366 . S
C107 C106 1.366 . S
C107 C108 1.414 . S
C107 C110 1.499 . S
C108 H88 0.950 . S
C108 C107 1.414 . S
C108 C109 1.374 . S
C109 H89 0.950 . S
C109 C105 1.385 . S
C109 C108 1.374 . S
C110 C107 1.499 . S
C110 C111 1.373 . S
C110 C112 1.389 . S
C111 H90 0.950 . S
C111 C110 1.373 . S
C111 C127 1.377 . S
C112 C110 1.389 . S
C112 C113 1.524 . S
C112 C126 1.377 . S
C113 C112 1.524 . S
C113 C114 1.397 . S
C113 C118 1.363 . S
C114 H91 0.950 . S
C114 C113 1.397 . S
C114 C115 1.334 . S
C115 H92 0.950 . S
C115 C114 1.334 . S
C115 C116 1.287 . S
C116 C115 1.287 . S
C116 C117 1.524 . S
C116 H135 0.913 . S
C117 H93 0.950 . S
C117 C116 1.524 . S
C117 C118 1.415 . S
C118 H94 0.950 . S
C118 C113 1.363 . S
C118 C117 1.415 . S
C119 H95 0.951 . S
C119 C120 1.366 . S
C119 C121 1.388 . S
C120 C119 1.366 . S
C120 C124 1.385 . S
C121 H96 0.951 . S
C121 C119 1.388 . S
C121 C122 1.366 . S
C122 C121 1.366 . S
C122 C123 1.414 . S
C122 C125 1.499 . S
C123 H97 0.950 . S
C123 C122 1.414 . S
C123 C124 1.374 . S
C124 H98 0.950 . S
C124 C120 1.385 . S
C124 C123 1.374 . S
C125 C122 1.499 . S
C125 C126 1.373 . S
C125 C127 1.389 . S
C126 H99 0.950 . S
C126 C112 1.377 . S
C126 C125 1.373 . S
C127 C111 1.377 . S
C127 C125 1.389 . S
C127 C128 1.524 . S
C128 C127 1.524 . S
C128 C129 1.397 . S
C128 C133 1.363 . S
C129 H100 0.950 . S
C129 C128 1.397 . S
C129 C130 1.334 . S
C130 H101 0.950 . S
C130 C129 1.334 . S
C130 C131 1.287 . S
C131 C130 1.287 . S
C131 C132 1.524 . S
C131 H134 0.999 . S
C132 H102 0.950 . S
C132 C131 1.524 . S
C132 C133 1.415 . S
C133 H103 0.950 . S
C133 C128 1.363 . S
C133 C132 1.415 . S
H134 C131 0.999 . S
H135 C116 0.913 . S
H136 C154 0.951 . S
H137 C156 0.951 . S
H138 C158 0.950 . S
H139 C159 0.950 . S
H140 C161 0.950 . S
H141 C164 0.950 . S
H142 C165 0.950 . S
H143 C167 0.950 . S
H144 C168 0.950 . S
H145 C169 0.951 . S
H146 C171 0.951 . S
H147 C173 0.950 . S
H148 C174 0.950 . S
H149 C176 0.950 . S
H150 C179 0.950 . S
H151 C180 0.950 . S
H152 C182 0.950 . S
H153 C183 0.950 . S
C154 H136 0.951 . S
C154 C155 1.366 . S
C154 C156 1.388 . S
C155 C154 1.366 . S
C155 C159 1.385 . S
C156 H137 0.951 . S
C156 C154 1.388 . S
C156 C157 1.366 . S
C157 C156 1.366 . S
C157 C158 1.414 . S
C157 C160 1.499 . S
C158 H138 0.950 . S
C158 C157 1.414 . S
C158 C159 1.374 . S
C159 H139 0.950 . S
C159 C155 1.385 . S
C159 C158 1.374 . S
C160 C157 1.499 . S
C160 C161 1.373 . S
C160 C162 1.389 . S
C161 H140 0.950 . S
C161 C160 1.373 . S
C161 C177 1.377 . S
C162 C160 1.389 . S
C162 C163 1.524 . S
C162 C176 1.377 . S
C163 C162 1.524 . S
C163 C164 1.397 . S
C163 C168 1.363 . S
C164 H141 0.950 . S
C164 C163 1.397 . S
C164 C165 1.334 . S
C165 H142 0.950 . S
C165 C164 1.334 . S
C165 C166 1.287 . S
C166 C165 1.287 . S
C166 C167 1.524 . S
C166 H185 0.913 . S
C167 H143 0.950 . S
C167 C166 1.524 . S
C167 C168 1.415 . S
C168 H144 0.950 . S
C168 C163 1.363 . S
C168 C167 1.415 . S
C169 H145 0.951 . S
C169 C170 1.366 . S
C169 C171 1.388 . S
C170 C169 1.366 . S
C170 C174 1.385 . S
C171 H146 0.951 . S
C171 C169 1.388 . S
C171 C172 1.366 . S
C172 C171 1.366 . S
C172 C173 1.414 . S
C172 C175 1.499 . S
C173 H147 0.950 . S
C173 C172 1.414 . S
C173 C174 1.374 . S
C174 H148 0.950 . S
C174 C170 1.385 . S
C174 C173 1.374 . S
C175 C172 1.499 . S
C175 C176 1.373 . S
C175 C177 1.389 . S
C176 H149 0.950 . S
C176 C162 1.377 . S
C176 C175 1.373 . S
C177 C161 1.377 . S
C177 C175 1.389 . S
C177 C178 1.524 . S
C178 C177 1.524 . S
C178 C179 1.397 1_554 S
C178 C183 1.363 . S
C179 H150 0.950 . S
C179 C178 1.397 1_556 S
C179 C180 1.334 . S
C180 H151 0.950 . S
C180 C179 1.334 . S
C180 C181 1.287 . S
C181 C180 1.287 . S
C181 C182 1.524 . S
C181 H184 0.999 . S
C182 H152 0.950 . S
C182 C181 1.524 . S
C182 C183 1.415 1_556 S
C183 H153 0.950 . S
C183 C178 1.363 . S
C183 C182 1.415 1_554 S
H184 C181 0.999 . S
H185 C166 0.913 . S
H186 C204 0.951 . S
H187 C206 0.951 . S
H188 C208 0.950 . S
H189 C209 0.950 . S
H190 C211 0.950 . S
H191 C214 0.950 . S
H192 C215 0.950 . S
H193 C217 0.950 . S
H194 C218 0.950 . S
H195 C219 0.951 . S
H196 C221 0.951 . S
H197 C223 0.950 . S
H198 C224 0.950 . S
H199 C226 0.950 . S
H200 C229 0.950 . S
H201 C230 0.950 . S
H202 C232 0.950 . S
H203 C233 0.950 . S
C204 H186 0.951 . S
C204 C205 1.366 . S
C204 C206 1.388 . S
C205 C204 1.366 . S
C205 C209 1.385 . S
C206 H187 0.951 . S
C206 C204 1.388 . S
C206 C207 1.366 . S
C207 C206 1.366 . S
C207 C208 1.414 . S
C207 C210 1.499 . S
C208 H188 0.950 . S
C208 C207 1.414 . S
C208 C209 1.374 . S
C209 H189 0.950 . S
C209 C205 1.385 . S
C209 C208 1.374 . S
C210 C207 1.499 . S
C210 C211 1.373 . S
C210 C212 1.389 . S
C211 H190 0.950 . S
C211 C210 1.373 . S
C211 C227 1.377 . S
C212 C210 1.389 . S
C212 C213 1.524 . S
C212 C226 1.377 . S
C213 C212 1.524 . S
C213 C214 1.397 . S
C213 C218 1.363 . S
C214 H191 0.950 . S
C214 C213 1.397 . S
C214 C215 1.334 . S
C215 H192 0.950 . S
C215 C214 1.334 . S
C215 C216 1.287 . S
C216 C215 1.287 . S
C216 C217 1.524 . S
C216 H235 0.913 . S
C217 H193 0.950 . S
C217 C216 1.524 . S
C217 C218 1.415 . S
C218 H194 0.950 . S
C218 C213 1.363 . S
C218 C217 1.415 . S
C219 H195 0.951 . S
C219 C220 1.366 . S
C219 C221 1.388 . S
C220 C219 1.366 . S
C220 C224 1.385 . S
C221 H196 0.951 . S
C221 C219 1.388 . S
C221 C222 1.366 . S
C222 C221 1.366 . S
C222 C223 1.414 . S
C222 C225 1.499 . S
C223 H197 0.950 . S
C223 C222 1.414 . S
C223 C224 1.374 . S
C224 H198 0.950 . S
C224 C220 1.385 . S
C224 C223 1.374 . S
C225 C222 1.499 . S
C225 C226 1.373 . S
C225 C227 1.389 . S
C226 H199 0.950 . S
C226 C212 1.377 . S
C226 C225 1.373 . S
C227 C211 1.377 . S
C227 C225 1.389 . S
C227 C228 1.524 . S
C228 C227 1.524 . S
C228 C229 1.397 . S
C228 C233 1.363 . S
C229 H200 0.950 . S
C229 C228 1.397 . S
C229 C230 1.334 . S
C230 H201 0.950 . S
C230 C229 1.334 . S
C230 C231 1.287 . S
C231 C230 1.287 . S
C231 C232 1.524 . S
C231 H234 0.999 . S
C232 H202 0.950 . S
C232 C231 1.524 . S
C232 C233 1.415 . S
C233 H203 0.950 . S
C233 C228 1.363 . S
C233 C232 1.415 . S
H234 C231 0.999 . S
H235 C216 0.913 . S
H236 C254 0.950 1_556 S
H237 C256 0.951 1_556 S
H238 C258 0.950 . S
H239 C259 0.950 . S
H240 C261 0.950 . S
H241 C264 0.950 . S
H242 C265 0.950 . S
H243 C267 0.950 . S
H244 C268 0.950 . S
H245 C269 0.951 . S
H246 C271 0.951 . S
H247 C273 0.950 . S
H248 C274 0.950 . S
H249 C276 0.950 . S
H250 C279 0.950 . S
H251 C280 0.950 . S
H252 C282 0.950 . S
H253 C283 0.950 . S
C254 H236 0.950 1_554 S
C254 C255 1.366 . S
C254 C256 1.388 . S
C255 C254 1.366 . S
C255 C259 1.385 . S
C256 H237 0.951 1_554 S
C256 C254 1.388 . S
C256 C257 1.366 . S
C257 C256 1.366 . S
C257 C258 1.414 . S
C257 C260 1.499 . S
C258 H238 0.950 . S
C258 C257 1.414 . S
C258 C259 1.374 . S
C259 H239 0.950 . S
C259 C255 1.385 . S
C259 C258 1.374 . S
C260 C257 1.499 . S
C260 C261 1.373 1_554 S
C260 C262 1.389 . S
C261 H240 0.950 . S
C261 C260 1.373 1_556 S
C261 C277 1.377 . S
C262 C260 1.389 . S
C262 C263 1.524 . S
C262 C276 1.377 . S
C263 C262 1.524 . S
C263 C264 1.397 . S
C263 C268 1.363 . S
C264 H241 0.950 . S
C264 C263 1.397 . S
C264 C265 1.334 . S
C265 H242 0.950 . S
C265 C264 1.334 . S
C265 C266 1.287 . S
C266 C265 1.287 . S
C266 C267 1.524 . S
C266 H285 0.913 . S
C267 H243 0.950 . S
C267 C266 1.524 . S
C267 C268 1.415 . S
C268 H244 0.950 . S
C268 C263 1.363 . S
C268 C267 1.415 . S
C269 H245 0.951 . S
C269 C270 1.366 . S
C269 C271 1.388 . S
C270 C269 1.366 . S
C270 C274 1.385 . S
C271 H246 0.951 . S
C271 C269 1.388 . S
C271 C272 1.366 . S
C272 C271 1.366 . S
C272 C273 1.414 . S
C272 C275 1.499 . S
C273 H247 0.950 . S
C273 C272 1.414 . S
C273 C274 1.374 . S
C274 H248 0.950 . S
C274 C270 1.385 . S
C274 C273 1.374 . S
C275 C272 1.499 . S
C275 C276 1.373 . S
C275 C277 1.389 1_554 S
C276 H249 0.950 . S
C276 C262 1.377 . S
C276 C275 1.373 . S
C277 C261 1.377 . S
C277 C275 1.389 1_556 S
C277 C278 1.524 . S
C278 C277 1.524 . S
C278 C279 1.397 . S
C278 C283 1.363 . S
C279 H250 0.950 . S
C279 C278 1.397 . S
C279 C280 1.334 . S
C280 H251 0.950 . S
C280 C279 1.334 . S
C280 C281 1.287 . S
C281 C280 1.287 . S
C281 C282 1.524 . S
C281 H284 0.999 . S
C282 H252 0.950 . S
C282 C281 1.524 . S
C282 C283 1.415 . S
C283 H253 0.950 . S
C283 C278 1.363 . S
C283 C282 1.415 . S
H284 C281 0.999 . S
H285 C266 0.913 . S
H286 C304 0.951 . S
H287 C306 0.951 . S
H288 C308 0.950 . S
H289 C309 0.950 . S
H290 C311 0.950 . S
H291 C314 0.950 . S
H292 C315 0.950 . S
H293 C317 0.950 . S
H294 C318 0.950 . S
H295 C319 0.951 . S
H296 C321 0.951 . S
H297 C323 0.950 . S
H298 C324 0.950 . S
H299 C326 0.950 . S
H300 C329 0.950 . S
H301 C330 0.950 . S
H302 C332 0.950 . S
H303 C333 0.950 . S
C304 H286 0.951 . S
C304 C305 1.366 . S
C304 C306 1.388 . S
C305 C304 1.366 . S
C305 C309 1.385 . S
C306 H287 0.951 . S
C306 C304 1.388 . S
C306 C307 1.366 . S
C307 C306 1.366 . S
C307 C308 1.414 . S
C307 C310 1.499 . S
C308 H288 0.950 . S
C308 C307 1.414 . S
C308 C309 1.374 . S
C309 H289 0.950 . S
C309 C305 1.385 . S
C309 C308 1.374 . S
C310 C307 1.499 . S
C310 C311 1.373 . S
C310 C312 1.389 . S
C311 H290 0.950 . S
C311 C310 1.373 . S
C311 C327 1.377 . S
C312 C310 1.389 . S
C312 C313 1.524 . S
C312 C326 1.377 . S
C313 C312 1.524 . S
C313 C314 1.397 . S
C313 C318 1.363 . S
C314 H291 0.950 . S
C314 C313 1.397 . S
C314 C315 1.334 . S
C315 H292 0.950 . S
C315 C314 1.334 . S
C315 C316 1.287 . S
C316 C315 1.287 . S
C316 C317 1.524 . S
C316 H335 0.913 . S
C317 H293 0.950 . S
C317 C316 1.524 . S
C317 C318 1.415 . S
C318 H294 0.950 . S
C318 C313 1.363 . S
C318 C317 1.415 . S
C319 H295 0.951 . S
C319 C320 1.366 . S
C319 C321 1.388 . S
C320 C319 1.366 . S
C320 C324 1.385 . S
C321 H296 0.951 . S
C321 C319 1.388 . S
C321 C322 1.366 . S
C322 C321 1.366 . S
C322 C323 1.414 . S
C322 C325 1.499 . S
C323 H297 0.950 . S
C323 C322 1.414 . S
C323 C324 1.374 . S
C324 H298 0.950 . S
C324 C320 1.385 . S
C324 C323 1.374 . S
C325 C322 1.499 . S
C325 C326 1.373 . S
C325 C327 1.389 . S
C326 H299 0.950 . S
C326 C312 1.377 . S
C326 C325 1.373 . S
C327 C311 1.377 . S
C327 C325 1.389 . S
C327 C328 1.524 . S
C328 C327 1.524 . S
C328 C329 1.397 . S
C328 C333 1.363 . S
C329 H300 0.950 . S
C329 C328 1.397 . S
C329 C330 1.334 . S
C330 H301 0.950 . S
C330 C329 1.334 . S
C330 C331 1.287 . S
C331 C330 1.287 . S
C331 C332 1.524 . S
C331 H334 0.999 . S
C332 H302 0.950 . S
C332 C331 1.524 . S
C332 C333 1.415 . S
C333 H303 0.950 . S
C333 C328 1.363 . S
C333 C332 1.415 . S
H334 C331 0.999 . S
H335 C316 0.913 . S
H336 C354 0.951 . S
H337 C356 0.951 . S
H338 C358 0.950 . S
H339 C359 0.950 . S
H340 C361 0.950 . S
H341 C364 0.950 . S
H342 C365 0.950 . S
H343 C367 0.950 . S
H344 C368 0.950 . S
H345 C369 0.951 . S
H346 C371 0.951 . S
H347 C373 0.950 . S
H348 C374 0.950 . S
H349 C376 0.950 . S
H350 C379 0.950 . S
H351 C380 0.950 . S
H352 C382 0.950 . S
H353 C383 0.950 . S
C354 H336 0.951 . S
C354 C355 1.366 . S
C354 C356 1.388 . S
C355 C354 1.366 . S
C355 C359 1.385 . S
C356 H337 0.951 . S
C356 C354 1.388 . S
C356 C357 1.366 . S
C357 C356 1.366 . S
C357 C358 1.414 . S
C357 C360 1.499 . S
C358 H338 0.950 . S
C358 C357 1.414 . S
C358 C359 1.374 . S
C359 H339 0.950 . S
C359 C355 1.385 . S
C359 C358 1.374 . S
C360 C357 1.499 . S
C360 C361 1.373 . S
C360 C362 1.389 . S
C361 H340 0.950 . S
C361 C360 1.373 . S
C361 C377 1.377 . S
C362 C360 1.389 . S
C362 C363 1.524 . S
C362 C376 1.377 . S
C363 C362 1.524 . S
C363 C364 1.397 . S
C363 C368 1.363 . S
C364 H341 0.950 . S
C364 C363 1.397 . S
C364 C365 1.334 . S
C365 H342 0.950 . S
C365 C364 1.334 . S
C365 C366 1.287 . S
C366 C365 1.287 . S
C366 C367 1.524 . S
C366 H385 0.913 . S
C367 H343 0.950 . S
C367 C366 1.524 . S
C367 C368 1.415 . S
C368 H344 0.950 . S
C368 C363 1.363 . S
C368 C367 1.415 . S
C369 H345 0.951 . S
C369 C370 1.366 . S
C369 C371 1.388 . S
C370 C369 1.366 . S
C370 C374 1.385 . S
C371 H346 0.951 . S
C371 C369 1.388 . S
C371 C372 1.366 . S
C372 C371 1.366 . S
C372 C373 1.414 . S
C372 C375 1.499 . S
C373 H347 0.950 . S
C373 C372 1.414 . S
C373 C374 1.374 . S
C374 H348 0.950 . S
C374 C370 1.385 . S
C374 C373 1.374 . S
C375 C372 1.499 . S
C375 C376 1.373 . S
C375 C377 1.389 . S
C376 H349 0.950 . S
C376 C362 1.377 . S
C376 C375 1.373 . S
C377 C361 1.377 . S
C377 C375 1.389 . S
C377 C378 1.524 . S
C378 C377 1.524 . S
C378 C379 1.397 . S
C378 C383 1.363 . S
C379 H350 0.950 . S
C379 C378 1.397 . S
C379 C380 1.334 . S
C380 H351 0.950 . S
C380 C379 1.334 . S
C380 C381 1.287 . S
C381 C380 1.287 . S
C381 C382 1.524 . S
C381 H384 0.999 . S
C382 H352 0.950 . S
C382 C381 1.524 . S
C382 C383 1.415 . S
C383 H353 0.950 . S
C383 C378 1.363 . S
C383 C382 1.415 . S
H384 C381 0.999 . S
H385 C366 0.913 . S
H386 C404 0.951 . S
H387 C406 0.951 . S
H388 C408 0.950 . S
H389 C409 0.950 . S
H390 C411 0.950 . S
H391 C414 0.950 . S
H392 C415 0.950 . S
H393 C417 0.950 . S
H394 C418 0.950 . S
H395 C419 0.951 . S
H396 C421 0.951 . S
H397 C423 0.950 . S
H398 C424 0.950 . S
H399 C426 0.950 . S
H400 C429 0.950 . S
H401 C430 0.950 . S
H402 C432 0.950 . S
H403 C433 0.950 . S
C404 H386 0.951 . S
C404 C405 1.366 . S
C404 C406 1.388 . S
C405 C404 1.366 . S
C405 C409 1.385 . S
C406 H387 0.951 . S
C406 C404 1.388 . S
C406 C407 1.366 . S
C407 C406 1.366 . S
C407 C408 1.414 . S
C407 C410 1.499 . S
C408 H388 0.950 . S
C408 C407 1.414 . S
C408 C409 1.374 . S
C409 H389 0.950 . S
C409 C405 1.385 . S
C409 C408 1.374 . S
C410 C407 1.499 . S
C410 C411 1.373 . S
C410 C412 1.389 . S
C411 H390 0.950 . S
C411 C410 1.373 . S
C411 C427 1.377 . S
C412 C410 1.389 . S
C412 C413 1.524 . S
C412 C426 1.377 . S
C413 C412 1.524 . S
C413 C414 1.397 . S
C413 C418 1.363 . S
C414 H391 0.950 . S
C414 C413 1.397 . S
C414 C415 1.334 . S
C415 H392 0.950 . S
C415 C414 1.334 . S
C415 C416 1.287 . S
C416 C415 1.287 . S
C416 C417 1.524 . S
C416 H435 0.913 . S
C417 H393 0.950 . S
C417 C416 1.524 . S
C417 C418 1.415 . S
C418 H394 0.950 . S
C418 C413 1.363 . S
C418 C417 1.415 . S
C419 H395 0.951 . S
C419 C420 1.366 . S
C419 C421 1.388 . S
C420 C419 1.366 . S
C420 C424 1.385 . S
C421 H396 0.951 . S
C421 C419 1.388 . S
C421 C422 1.366 . S
C422 C421 1.366 . S
C422 C423 1.414 . S
C422 C425 1.499 . S
C423 H397 0.950 . S
C423 C422 1.414 . S
C423 C424 1.374 . S
C424 H398 0.950 . S
C424 C420 1.385 . S
C424 C423 1.374 . S
C425 C422 1.499 . S
C425 C426 1.373 . S
C425 C427 1.389 . S
C426 H399 0.950 . S
C426 C412 1.377 . S
C426 C425 1.373 . S
C427 C411 1.377 . S
C427 C425 1.389 . S
C427 C428 1.524 . S
C428 C427 1.524 . S
C428 C429 1.397 . S
C428 C433 1.363 . S
C429 H400 0.950 . S
C429 C428 1.397 . S
C429 C430 1.334 1_655 S
C430 H401 0.950 . S
C430 C429 1.334 1_455 S
C430 C431 1.287 . S
C431 C430 1.287 . S
C431 C432 1.524 . S
C431 H434 0.999 . S
C432 H402 0.950 . S
C432 C431 1.524 . S
C432 C433 1.415 1_455 S
C433 H403 0.950 . S
C433 C428 1.363 . S
C433 C432 1.415 1_655 S
H434 C431 0.999 . S
H435 C416 0.913 . S
H436 C454 0.951 . S
H437 C456 0.951 . S
H438 C458 0.950 . S
H439 C459 0.950 . S
H440 C461 0.950 . S
H441 C464 0.950 . S
H442 C465 0.950 . S
H443 C467 0.950 . S
H444 C468 0.950 . S
H445 C469 0.951 . S
H446 C471 0.951 . S
H447 C473 0.950 . S
H448 C474 0.950 . S
H449 C476 0.950 . S
H450 C479 0.950 . S
H451 C480 0.950 . S
H452 C482 0.950 . S
H453 C483 0.950 . S
C454 H436 0.951 . S
C454 C455 1.366 . S
C454 C456 1.388 . S
C455 C454 1.366 . S
C455 C459 1.385 . S
C456 H437 0.951 . S
C456 C454 1.388 . S
C456 C457 1.366 . S
C457 C456 1.366 . S
C457 C458 1.414 . S
C457 C460 1.499 . S
C458 H438 0.950 . S
C458 C457 1.414 . S
C458 C459 1.374 . S
C459 H439 0.950 . S
C459 C455 1.385 . S
C459 C458 1.374 . S
C460 C457 1.499 . S
C460 C461 1.373 . S
C460 C462 1.389 . S
C461 H440 0.950 . S
C461 C460 1.373 . S
C461 C477 1.377 . S
C462 C460 1.389 . S
C462 C463 1.524 . S
C462 C476 1.377 . S
C463 C462 1.524 . S
C463 C464 1.397 . S
C463 C468 1.363 . S
C464 H441 0.950 . S
C464 C463 1.397 . S
C464 C465 1.334 . S
C465 H442 0.950 . S
C465 C464 1.334 . S
C465 C466 1.287 . S
C466 C465 1.287 . S
C466 C467 1.524 . S
C466 H485 0.913 . S
C467 H443 0.950 . S
C467 C466 1.524 . S
C467 C468 1.415 . S
C468 H444 0.950 . S
C468 C463 1.363 . S
C468 C467 1.415 . S
C469 H445 0.951 . S
C469 C470 1.366 . S
C469 C471 1.388 . S
C470 C469 1.366 . S
C470 C474 1.385 . S
C471 H446 0.951 . S
C471 C469 1.388 . S
C471 C472 1.366 . S
C472 C471 1.366 . S
C472 C473 1.414 . S
C472 C475 1.499 . S
C473 H447 0.950 . S
C473 C472 1.414 . S
C473 C474 1.374 . S
C474 H448 0.950 . S
C474 C470 1.385 . S
C474 C473 1.374 . S
C475 C472 1.499 . S
C475 C476 1.373 . S
C475 C477 1.389 . S
C476 H449 0.950 . S
C476 C462 1.377 . S
C476 C475 1.373 . S
C477 C461 1.377 . S
C477 C475 1.389 . S
C477 C478 1.524 . S
C478 C477 1.524 . S
C478 C479 1.397 . S
C478 C483 1.363 . S
C479 H450 0.950 . S
C479 C478 1.397 . S
C479 C480 1.334 . S
C480 H451 0.950 . S
C480 C479 1.334 . S
C480 C481 1.287 . S
C481 C480 1.287 . S
C481 C482 1.524 . S
C481 H484 0.999 . S
C482 H452 0.950 . S
C482 C481 1.524 . S
C482 C483 1.415 . S
C483 H453 0.950 . S
C483 C478 1.363 . S
C483 C482 1.415 . S
H484 C481 0.999 . S
H485 C466 0.913 . S
H486 C504 0.951 . S
H487 C506 0.951 . S
H488 C508 0.950 . S
H489 C509 0.950 . S
H490 C511 0.950 . S
H491 C514 0.950 . S
H492 C515 0.950 . S
H493 C517 0.950 . S
H494 C518 0.950 . S
H495 C519 0.951 . S
H496 C521 0.951 . S
H497 C523 0.950 . S
H498 C524 0.950 . S
H499 C526 0.950 . S
H500 C529 0.950 . S
H501 C530 0.950 . S
H502 C532 0.950 . S
H503 C533 0.950 . S
C504 H486 0.951 . S
C504 C505 1.366 . S
C504 C506 1.388 . S
C505 C504 1.366 . S
C505 C509 1.385 . S
C506 H487 0.951 . S
C506 C504 1.388 . S
C506 C507 1.366 . S
C507 C506 1.366 . S
C507 C508 1.414 . S
C507 C510 1.499 . S
C508 H488 0.950 . S
C508 C507 1.414 . S
C508 C509 1.374 . S
C509 H489 0.950 . S
C509 C505 1.385 . S
C509 C508 1.374 . S
C510 C507 1.499 . S
C510 C511 1.373 . S
C510 C512 1.389 . S
C511 H490 0.950 . S
C511 C510 1.373 . S
C511 C527 1.377 . S
C512 C510 1.389 . S
C512 C513 1.524 . S
C512 C526 1.377 . S
C513 C512 1.524 . S
C513 C514 1.397 . S
C513 C518 1.363 . S
C514 H491 0.950 . S
C514 C513 1.397 . S
C514 C515 1.334 . S
C515 H492 0.950 . S
C515 C514 1.334 . S
C515 C516 1.287 . S
C516 C515 1.287 . S
C516 C517 1.524 . S
C516 H535 0.913 . S
C517 H493 0.950 . S
C517 C516 1.524 . S
C517 C518 1.415 . S
C518 H494 0.950 . S
C518 C513 1.363 . S
C518 C517 1.415 . S
C519 H495 0.951 . S
C519 C520 1.366 . S
C519 C521 1.388 . S
C520 C519 1.366 . S
C520 C524 1.385 . S
C521 H496 0.951 . S
C521 C519 1.388 . S
C521 C522 1.366 . S
C522 C521 1.366 . S
C522 C523 1.414 . S
C522 C525 1.499 . S
C523 H497 0.950 . S
C523 C522 1.414 . S
C523 C524 1.374 . S
C524 H498 0.950 . S
C524 C520 1.385 . S
C524 C523 1.374 . S
C525 C522 1.499 . S
C525 C526 1.373 . S
C525 C527 1.389 . S
C526 H499 0.950 . S
C526 C512 1.377 . S
C526 C525 1.373 . S
C527 C511 1.377 . S
C527 C525 1.389 . S
C527 C528 1.524 . S
C528 C527 1.524 . S
C528 C529 1.397 . S
C528 C533 1.363 . S
C529 H500 0.950 . S
C529 C528 1.397 . S
C529 C530 1.334 . S
C530 H501 0.950 . S
C530 C529 1.334 . S
C530 C531 1.287 . S
C531 C530 1.287 . S
C531 C532 1.524 . S
C531 H534 0.999 . S
C532 H502 0.950 . S
C532 C531 1.524 . S
C532 C533 1.415 . S
C533 H503 0.950 . S
C533 C528 1.363 . S
C533 C532 1.415 . S
H534 C531 0.999 . S
H535 C516 0.913 . S
H536 C554 0.951 . S
H537 C556 0.951 . S
H538 C558 0.950 . S
H539 C559 0.950 . S
H540 C561 0.950 . S
H541 C564 0.950 . S
H542 C565 0.950 . S
H543 C567 0.950 . S
H544 C568 0.950 . S
H545 C569 0.951 . S
H546 C571 0.951 . S
H547 C573 0.950 . S
H548 C574 0.950 . S
H549 C576 0.950 . S
H550 C579 0.950 . S
H551 C580 0.950 . S
H552 C582 0.950 . S
H553 C583 0.950 . S
C554 H536 0.951 . S
C554 C555 1.366 . S
C554 C556 1.388 . S
C555 C554 1.366 . S
C555 C559 1.385 . S
C556 H537 0.951 . S
C556 C554 1.388 . S
C556 C557 1.366 . S
C557 C556 1.366 . S
C557 C558 1.414 . S
C557 C560 1.499 . S
C558 H538 0.950 . S
C558 C557 1.414 . S
C558 C559 1.374 . S
C559 H539 0.950 . S
C559 C555 1.385 . S
C559 C558 1.374 . S
C560 C557 1.499 . S
C560 C561 1.373 . S
C560 C562 1.389 . S
C561 H540 0.950 . S
C561 C560 1.373 . S
C561 C577 1.377 . S
C562 C560 1.389 . S
C562 C563 1.524 . S
C562 C576 1.377 . S
C563 C562 1.524 . S
C563 C564 1.397 . S
C563 C568 1.363 . S
C564 H541 0.950 . S
C564 C563 1.397 . S
C564 C565 1.334 . S
C565 H542 0.950 . S
C565 C564 1.334 . S
C565 C566 1.287 . S
C566 C565 1.287 . S
C566 C567 1.524 . S
C566 H585 0.913 . S
C567 H543 0.950 . S
C567 C566 1.524 . S
C567 C568 1.415 . S
C568 H544 0.950 . S
C568 C563 1.363 . S
C568 C567 1.415 . S
C569 H545 0.951 . S
C569 C570 1.366 . S
C569 C571 1.388 . S
C570 C569 1.366 . S
C570 C574 1.385 . S
C571 H546 0.951 . S
C571 C569 1.388 . S
C571 C572 1.366 . S
C572 C571 1.366 . S
C572 C573 1.414 . S
C572 C575 1.499 . S
C573 H547 0.950 . S
C573 C572 1.414 . S
C573 C574 1.374 . S
C574 H548 0.950 . S
C574 C570 1.385 . S
C574 C573 1.374 . S
C575 C572 1.499 . S
C575 C576 1.373 . S
C575 C577 1.389 . S
C576 H549 0.950 . S
C576 C562 1.377 . S
C576 C575 1.373 . S
C577 C561 1.377 . S
C577 C575 1.389 . S
C577 C578 1.524 . S
C578 C577 1.524 . S
C578 C579 1.397 . S
C578 C583 1.363 . S
C579 H550 0.950 . S
C579 C578 1.397 . S
C579 C580 1.334 . S
C580 H551 0.950 . S
C580 C579 1.334 . S
C580 C581 1.287 . S
C581 C580 1.287 . S
C581 C582 1.524 . S
C581 H584 0.999 . S
C582 H552 0.950 . S
C582 C581 1.524 . S
C582 C583 1.415 . S
C583 H553 0.950 . S
C583 C578 1.363 . S
C583 C582 1.415 . S
H584 C581 0.999 . S
H585 C566 0.913 . S
H586 C604 0.951 . S
H587 C606 0.951 . S
H588 C608 0.950 . S
H589 C609 0.950 . S
H590 C611 0.950 . S
H591 C614 0.950 . S
H592 C615 0.950 . S
H593 C617 0.950 . S
H594 C618 0.950 . S
H595 C619 0.951 . S
H596 C621 0.951 . S
H597 C623 0.950 . S
H598 C624 0.950 . S
H599 C626 0.950 . S
H600 C629 0.950 . S
H601 C630 0.950 . S
H602 C632 0.950 . S
H603 C633 0.950 . S
C604 H586 0.951 . S
C604 C605 1.366 . S
C604 C606 1.388 . S
C605 C604 1.366 . S
C605 C609 1.385 . S
C606 H587 0.951 . S
C606 C604 1.388 . S
C606 C607 1.366 . S
C607 C606 1.366 . S
C607 C608 1.414 . S
C607 C610 1.499 . S
C608 H588 0.950 . S
C608 C607 1.414 . S
C608 C609 1.374 . S
C609 H589 0.950 . S
C609 C605 1.385 . S
C609 C608 1.374 . S
C610 C607 1.499 . S
C610 C611 1.373 . S
C610 C612 1.389 . S
C611 H590 0.950 . S
C611 C610 1.373 . S
C611 C627 1.377 . S
C612 C610 1.389 . S
C612 C613 1.524 . S
C612 C626 1.377 . S
C613 C612 1.524 . S
C613 C614 1.397 . S
C613 C618 1.363 . S
C614 H591 0.950 . S
C614 C613 1.397 . S
C614 C615 1.334 . S
C615 H592 0.950 . S
C615 C614 1.334 . S
C615 C616 1.287 . S
C616 C615 1.287 . S
C616 C617 1.524 . S
C616 H635 0.913 . S
C617 H593 0.950 . S
C617 C616 1.524 . S
C617 C618 1.415 . S
C618 H594 0.950 . S
C618 C613 1.363 . S
C618 C617 1.415 . S
C619 H595 0.951 . S
C619 C620 1.366 . S
C619 C621 1.388 . S
C620 C619 1.366 . S
C620 C624 1.385 . S
C621 H596 0.951 . S
C621 C619 1.388 . S
C621 C622 1.366 . S
C622 C621 1.366 . S
C622 C623 1.414 . S
C622 C625 1.499 . S
C623 H597 0.950 . S
C623 C622 1.414 . S
C623 C624 1.374 . S
C624 H598 0.950 . S
C624 C620 1.385 . S
C624 C623 1.374 . S
C625 C622 1.499 . S
C625 C626 1.373 . S
C625 C627 1.389 . S
C626 H599 0.950 . S
C626 C612 1.377 . S
C626 C625 1.373 . S
C627 C611 1.377 . S
C627 C625 1.389 . S
C627 C628 1.524 . S
C628 C627 1.524 . S
C628 C629 1.397 . S
C628 C633 1.363 . S
C629 H600 0.950 . S
C629 C628 1.397 . S
C629 C630 1.334 . S
C630 H601 0.950 . S
C630 C629 1.334 . S
C630 C631 1.287 . S
C631 C630 1.287 . S
C631 C632 1.524 . S
C631 H634 0.999 . S
C632 H602 0.950 . S
C632 C631 1.524 . S
C632 C633 1.415 . S
C633 H603 0.950 . S
C633 C628 1.363 . S
C633 C632 1.415 . S
H634 C631 0.999 . S
H635 C616 0.913 . S
H636 C654 0.951 . S
H637 C656 0.951 . S
H638 C658 0.950 . S
H639 C659 0.950 . S
H640 C661 0.950 . S
H641 C664 0.950 . S
H642 C665 0.950 . S
H643 C667 0.950 . S
H644 C668 0.950 . S
H645 C669 0.951 . S
H646 C671 0.951 . S
H647 C673 0.950 . S
H648 C674 0.950 . S
H649 C676 0.950 . S
H650 C679 0.950 . S
H651 C680 0.950 . S
H652 C682 0.950 . S
H653 C683 0.950 1_565 S
C654 H636 0.951 . S
C654 C655 1.366 . S
C654 C656 1.388 . S
C655 C654 1.366 . S
C655 C659 1.385 . S
C656 H637 0.951 . S
C656 C654 1.388 . S
C656 C657 1.366 . S
C657 C656 1.366 . S
C657 C658 1.414 . S
C657 C660 1.499 . S
C658 H638 0.950 . S
C658 C657 1.414 . S
C658 C659 1.374 . S
C659 H639 0.950 . S
C659 C655 1.385 . S
C659 C658 1.374 . S
C660 C657 1.499 . S
C660 C661 1.373 . S
C660 C662 1.389 . S
C661 H640 0.950 . S
C661 C660 1.373 . S
C661 C677 1.377 . S
C662 C660 1.389 . S
C662 C663 1.524 . S
C662 C676 1.377 . S
C663 C662 1.524 . S
C663 C664 1.397 . S
C663 C668 1.363 . S
C664 H641 0.950 . S
C664 C663 1.397 . S
C664 C665 1.334 . S
C665 H642 0.950 . S
C665 C664 1.334 . S
C665 C666 1.287 . S
C666 C665 1.287 . S
C666 C667 1.524 . S
C666 H685 0.913 . S
C667 H643 0.950 . S
C667 C666 1.524 . S
C667 C668 1.415 . S
C668 H644 0.950 . S
C668 C663 1.363 . S
C668 C667 1.415 . S
C669 H645 0.951 . S
C669 C670 1.366 . S
C669 C671 1.388 . S
C670 C669 1.366 . S
C670 C674 1.385 . S
C671 H646 0.951 . S
C671 C669 1.388 . S
C671 C672 1.366 . S
C672 C671 1.366 . S
C672 C673 1.414 . S
C672 C675 1.499 . S
C673 H647 0.950 . S
C673 C672 1.414 . S
C673 C674 1.374 . S
C674 H648 0.950 . S
C674 C670 1.385 . S
C674 C673 1.374 . S
C675 C672 1.499 . S
C675 C676 1.373 . S
C675 C677 1.389 . S
C676 H649 0.950 . S
C676 C662 1.377 . S
C676 C675 1.373 . S
C677 C661 1.377 . S
C677 C675 1.389 . S
C677 C678 1.524 . S
C678 C677 1.524 . S
C678 C679 1.397 . S
C678 C683 1.363 1_565 S
C679 H650 0.950 . S
C679 C678 1.397 . S
C679 C680 1.334 1_565 S
C680 H651 0.950 . S
C680 C679 1.334 1_545 S
C680 C681 1.287 . S
C681 C680 1.287 . S
C681 C682 1.524 . S
C681 H684 0.999 . S
C682 H652 0.950 . S
C682 C681 1.524 . S
C682 C683 1.415 . S
C683 H653 0.950 1_545 S
C683 C678 1.363 1_545 S
C683 C682 1.415 . S
H684 C681 0.999 . S
H685 C666 0.913 . S
C120 C59 1.252 . S
C105 C43 1.439 . S
C155 C10 1.467 . S
C170 C83 1.271 . S
C205 C21 1.622 . S
C220 C62 1.422 . S
C255 C32 1.620 . S
C270 C80 1.408 . S
C320 C60 1.500 . S
C305 C5 1.515 . S
C370 C82 1.562 . S
C355 C15 1.626 . S
C405 C27 1.603 . S
C420 C61 1.560 . S
C455 C38 1.518 . S
C470 C81 1.472 . S
C520 C79 1.478 . S
C505 C16 1.522 . S
C570 C58 1.481 . S
C555 C26 1.541 . S
C620 C78 1.416 . S
C605 C37 1.452 . S
C655 C4 1.451 1_556 S
C670 C57 1.400 . S
