# Generated by pormake.
# Topology tsx, (6,3)-cn, num edge types: 1
# Building blocks:
#     Node 0, Type 0, BuildingBlock: MIDCAF_clean_sbu_0, # of connection points: 6
#     Node 1, Type 0, BuildingBlock: MIDCAF_clean_sbu_0, # of connection points: 6
#     Node 2, Type 1, BuildingBlock: PAMTOO_clean_linker_0, # of connection points: 3
#     Node 3, Type 1, BuildingBlock: PAMTOO_clean_linker_0, # of connection points: 3
#     Node 4, Type 1, BuildingBlock: PAMTOO_clean_linker_0, # of connection points: 3
#     Node 5, Type 1, BuildingBlock: PAMTOO_clean_linker_0, # of connection points: 3
#     Edge 6, Type (0, 1), BuildingBlock: FUNLAD_clean_linker_1, # of connection points: 2
#     Edge 7, Type (0, 1), BuildingBlock: FUNLAD_clean_linker_1, # of connection points: 2
#     Edge 8, Type (0, 1), BuildingBlock: FUNLAD_clean_linker_1, # of connection points: 2
#     Edge 9, Type (0, 1), BuildingBlock: FUNLAD_clean_linker_1, # of connection points: 2
#     Edge 10, Type (0, 1), BuildingBlock: FUNLAD_clean_linker_1, # of connection points: 2
#     Edge 11, Type (0, 1), BuildingBlock: FUNLAD_clean_linker_1, # of connection points: 2
#     Edge 12, Type (0, 1), BuildingBlock: FUNLAD_clean_linker_1, # of connection points: 2
#     Edge 13, Type (0, 1), BuildingBlock: FUNLAD_clean_linker_1, # of connection points: 2
#     Edge 14, Type (0, 1), BuildingBlock: FUNLAD_clean_linker_1, # of connection points: 2
#     Edge 15, Type (0, 1), BuildingBlock: FUNLAD_clean_linker_1, # of connection points: 2
#     Edge 16, Type (0, 1), BuildingBlock: FUNLAD_clean_linker_1, # of connection points: 2
#     Edge 17, Type (0, 1), BuildingBlock: FUNLAD_clean_linker_1, # of connection points: 2
# Relax obj value: 0.096
# Max RMSD: 0.163
# Mean RMSD: 0.128
data_MOF--net-tsx--node1-MIDCAF_clean_sbu_0--node2-PAMTOO_clean_linker_0--edge1-FUNLAD_clean_linker_1
_symmetry_space_group_name_H-M    P1
_symmetry_Int_Tables_number       1
_symmetry_cell_setting            triclinic
loop_
_symmetry_equiv_pos_as_xyz
'x, y, z'
_cell_length_a     20.669356
_cell_length_b     21.642394
_cell_length_c     36.695408
_cell_angle_alpha  82.09072
_cell_angle_beta   95.275773
_cell_angle_gamma 90.279141
loop_
_atom_site_label
_atom_site_type_symbol
_atom_site_fract_x
_atom_site_fract_y
_atom_site_fract_z
_atom_type_partial_charge
Zn0 Zn 0.96731 0.01136 0.96616 0.0
Zn1 Zn 0.20301 1.00133 0.03455 0.0
Zn2 Zn 0.08473 0.01105 -0.00023 0.0
C3 C 0.17364 0.12913 0.01374 0.0
C4 C 0.20444 0.93324 0.97574 0.0
O5 O 0.02224 0.94731 0.03379 0.0
O6 O 0.93113 0.94101 0.99798 0.0
C7 C 0.99275 0.13214 0.9843 0.0
O8 O 0.11697 0.10725 0.00535 0.0
O9 O 0.22111 0.09238 0.02441 0.0
O10 O 0.23867 0.9424 0.00478 0.0
O11 O 0.14808 0.95957 0.96778 0.0
O12 O 0.94698 0.09762 0.97412 0.0
O13 O 0.05063 0.10947 0.99244 0.0
O14 O 0.09245 0.98041 0.94509 0.0
O15 O 0.99324 0.9967 0.91735 0.0
C16 C 0.05188 0.9816 0.91613 0.0
O17 O 0.07688 0.96158 0.05579 0.0
O18 O 0.17573 0.96717 0.08398 0.0
C19 C 0.96593 0.92301 0.0276 0.0
C20 C 0.1167 0.95261 0.08521 0.0
Zn21 Zn 0.65553 0.5053 0.56085 0.0
Zn22 Zn 0.45536 0.52283 0.4567 0.0
Zn23 Zn 0.55269 0.51816 0.5095 0.0
C24 C 0.56223 0.48072 0.42723 0.0
C25 C 0.47431 0.64381 0.477 0.0
O26 O 0.51817 0.46928 0.56077 0.0
O27 O 0.6056 0.46302 0.60074 0.0
C28 C 0.69009 0.44553 0.50361 0.0
O29 O 0.58585 0.48139 0.4609 0.0
O30 O 0.505 0.49993 0.41694 0.0
O31 O 0.4356 0.61209 0.45842 0.0
O32 O 0.52448 0.61754 0.49624 0.0
O33 O 0.71384 0.45659 0.53499 0.0
O34 O 0.63271 0.4656 0.4907 0.0
O35 O 0.58409 0.61374 0.51806 0.0
O36 O 0.66907 0.59635 0.55971 0.0
C37 C 0.63139 0.63394 0.53854 0.0
O38 O 0.47063 0.46269 0.53175 0.0
O39 O 0.40126 0.45808 0.48258 0.0
C40 C 0.54556 0.4539 0.59371 0.0
C41 C 0.41791 0.44159 0.5165 0.0
H42 H 0.1208 0.91738 0.35527 0.0
H43 H 0.99587 0.07847 0.34762 0.0
H44 H 0.12975 0.02956 0.44361 0.0
H45 H 0.99699 0.07024 0.45962 0.0
C46 C 0.98395 0.10054 0.43298 0.0
O47 O 0.03702 0.1068 0.4126 0.0
H48 H 0.94321 0.07872 0.41738 0.0
C49 C 0.10433 0.95769 0.36643 0.0
C50 C 0.13258 0.96961 0.40104 0.0
C51 C 0.05601 0.9975 0.34631 0.0
C52 C 0.03354 0.04755 0.36239 0.0
C53 C 0.05979 0.05868 0.39745 0.0
C54 C 0.10987 0.02036 0.41655 0.0
H55 H 0.1157 0.08316 0.63788 0.0
H56 H 0.94943 0.9704 0.61411 0.0
H57 H 0.03513 0.08187 0.52551 0.0
H58 H 0.89303 0.0718 0.50826 0.0
C59 C 0.88488 0.03323 0.53054 0.0
O60 O 0.94303 1.00248 0.54243 0.0
H61 H 0.8647 0.0531 0.55359 0.0
C62 C 0.08044 0.06646 0.61802 0.0
C63 C 0.08069 0.08922 0.58018 0.0
C64 C 0.03366 0.02315 0.63061 0.0
C65 C 0.98668 0.00274 0.60488 0.0
C66 C 0.98759 0.0236 0.56706 0.0
C67 C 0.03504 0.06593 0.55481 0.0
H68 H 0.64746 0.39412 0.86623 0.0
H69 H 0.49106 0.52563 0.86386 0.0
H70 H 0.63321 0.49844 0.95723 0.0
H71 H 0.49641 0.52326 0.977 0.0
C72 C 0.47717 0.54563 0.94907 0.0
O73 O 0.52806 0.55956 0.92762 0.0
H74 H 0.44299 0.51274 0.93661 0.0
C75 C 0.62239 0.42786 0.87931 0.0
C76 C 0.64809 0.44247 0.91382 0.0
C77 C 0.56558 0.45661 0.861 0.0
C78 C 0.53383 0.50103 0.87771 0.0
C79 C 0.55835 0.51565 0.91236 0.0
C80 C 0.61531 0.4865 0.93047 0.0
H81 H 0.70477 0.5485 0.16634 0.0
H82 H 0.54499 0.42787 0.14267 0.0
H83 H 0.61861 0.55149 0.05473 0.0
H84 H 0.47159 0.53389 0.0421 0.0
C85 C 0.47024 0.49285 0.06382 0.0
O86 O 0.53166 0.46674 0.07168 0.0
H87 H 0.4528 0.50806 0.08905 0.0
C88 C 0.67146 0.52928 0.14646 0.0
C89 C 0.66931 0.55394 0.10882 0.0
C90 C 0.62733 0.48316 0.15896 0.0
C91 C 0.58013 0.46255 0.13346 0.0
C92 C 0.57706 0.48729 0.09602 0.0
C93 C 0.6216 0.53264 0.08379 0.0
H94 H 0.14157 0.22818 0.00879 0.0
C95 C 0.18351 0.19711 0.01299 0.0
H96 H 0.28562 0.18915 0.02337 0.0
H97 H 0.35565 0.46917 0.9786 0.0
H98 H 0.34842 0.44069 0.91645 0.0
H99 H 0.29923 0.34095 0.90342 0.0
H100 H 0.25611 0.2694 0.95235 0.0
C101 C 0.24349 0.21996 0.01965 0.0
C102 C 0.25652 0.28595 0.02472 0.0
C103 C 0.2813 0.32705 0.99595 0.0
C104 C 0.31077 0.38395 0.0036 0.0
C105 C 0.33445 0.42462 0.97431 0.0
C106 C 0.3302 0.409 0.93858 0.0
C107 C 0.30241 0.35285 0.93123 0.0
C108 C 0.27815 0.31213 0.9595 0.0
H109 H 0.44481 0.40543 0.03977 0.0
C110 C 0.42448 0.44521 0.05009 0.0
H111 H 0.33898 0.48946 0.06097 0.0
H112 H 0.2047 0.22211 0.08472 0.0
H113 H 0.20735 0.25296 0.14597 0.0
H114 H 0.25942 0.35118 0.15942 0.0
H115 H 0.30916 0.41912 0.1117 0.0
C116 C 0.35974 0.45038 0.05023 0.0
C117 C 0.31657 0.39883 0.04017 0.0
C118 C 0.28595 0.36079 0.06809 0.0
C119 C 0.25598 0.30412 0.06035 0.0
C120 C 0.22806 0.26564 0.0891 0.0
C121 C 0.22919 0.28283 0.12437 0.0
C122 C 0.25849 0.33815 0.13193 0.0
C123 C 0.28685 0.37674 0.10428 0.0
H124 H 0.19697 0.87797 0.92864 0.0
C125 C 0.22678 0.88686 0.95332 0.0
H126 H 0.30991 0.86067 0.99005 0.0
H127 H 0.2826 0.58455 0.94339 0.0
H128 H 0.17652 0.58095 0.96694 0.0
H129 H 0.12644 0.67601 0.98254 0.0
H130 H 0.18171 0.77513 0.97453 0.0
C131 C 0.27978 0.85123 0.9656 0.0
C132 C 0.30103 0.79746 0.94815 0.0
C133 C 0.26731 0.73994 0.95261 0.0
C134 C 0.29649 0.68482 0.94405 0.0
C135 C 0.26261 0.62773 0.94945 0.0
C136 C 0.20175 0.62498 0.963 0.0
C137 C 0.17356 0.67852 0.97176 0.0
C138 C 0.20584 0.73532 0.9669 0.0
H139 H 0.45881 0.63038 0.97512 0.0
C140 C 0.44208 0.6048 0.95258 0.0
H141 H 0.37622 0.60268 0.90524 0.0
H142 H 0.37472 0.90099 0.93219 0.0
H143 H 0.47988 0.90466 0.90732 0.0
H144 H 0.5303 0.80908 0.89258 0.0
H145 H 0.47608 0.7092 0.90277 0.0
C146 C 0.39347 0.62817 0.92771 0.0
C147 C 0.35957 0.6871 0.93175 0.0
C148 C 0.39126 0.74519 0.92494 0.0
C149 C 0.36202 0.80032 0.93324 0.0
C150 C 0.39516 0.85762 0.92669 0.0
C151 C 0.45531 0.86042 0.91226 0.0
C152 C 0.4837 0.8066 0.90396 0.0
C153 C 0.45223 0.74954 0.9101 0.0
H154 H 0.97758 0.85006 0.07656 0.0
C155 C 0.94405 0.8704 0.05353 0.0
H156 H 0.85317 0.86338 0.02318 0.0
H157 H 0.81097 0.57855 0.05474 0.0
H158 H 0.84816 0.58708 0.99344 0.0
H159 H 0.89487 0.68529 0.96505 0.0
H160 H 0.90506 0.77527 0.99791 0.0
C161 C 0.88574 0.84424 0.04697 0.0
C162 C 0.86722 0.78314 0.06676 0.0
C163 C 0.86132 0.73108 0.04708 0.0
C164 C 0.83343 0.67489 0.06312 0.0
C165 C 0.82976 0.62306 0.04329 0.0
C166 C 0.85148 0.62714 0.00822 0.0
C167 C 0.87782 0.68239 0.99226 0.0
C168 C 0.88304 0.73381 0.01136 0.0
H169 H 0.69733 0.63372 0.06921 0.0
C170 C 0.71307 0.60495 0.09519 0.0
H171 H 0.78927 0.58888 0.1384 0.0
H172 H 0.87717 0.87225 0.11327 0.0
H173 H 0.84557 0.8615 0.17584 0.0
H174 H 0.79774 0.76364 0.20387 0.0
H175 H 0.78082 0.67607 0.16939 0.0
C176 C 0.77094 0.617 0.1128 0.0
C177 C 0.81015 0.67138 0.09849 0.0
C178 C 0.82112 0.72151 0.11943 0.0
C179 C 0.84931 0.77778 0.10342 0.0
C180 C 0.85691 0.82818 0.12424 0.0
C181 C 0.83873 0.82271 0.16017 0.0
C182 C 0.81184 0.76759 0.17596 0.0
C183 C 0.80253 0.71761 0.15587 0.0
H184 H 0.01721 0.22953 0.99392 0.0
C185 C 0.97803 0.19817 0.9873 0.0
H186 H 0.87696 0.18629 0.97702 0.0
H187 H 0.73003 0.38944 0.02831 0.0
H188 H 0.72963 0.31305 0.08365 0.0
H189 H 0.80566 0.22334 0.09417 0.0
H190 H 0.88257 0.20937 0.04933 0.0
C191 C 0.91598 0.21879 0.98201 0.0
C192 C 0.8942 0.28351 0.98408 0.0
C193 C 0.8517 0.29258 0.01111 0.0
C194 C 0.8082 0.34441 0.0052 0.0
C195 C 0.76402 0.35073 0.03169 0.0
C196 C 0.76346 0.30739 0.0635 0.0
C197 C 0.80627 0.25684 0.06941 0.0
C198 C 0.84986 0.24917 0.04352 0.0
H199 H 0.72303 0.36928 0.91842 0.0
C200 C 0.70872 0.40943 0.93084 0.0
H201 H 0.73742 0.46487 0.97312 0.0
H202 H 0.97954 0.2878 0.93084 0.0
H203 H 0.98651 0.36956 0.879 0.0
H204 H 0.91317 0.46115 0.87008 0.0
H205 H 0.8316 0.47094 0.91294 0.0
C206 C 0.74833 0.42571 0.95912 0.0
C207 C 0.80748 0.38681 0.97224 0.0
C208 C 0.85705 0.38331 0.94835 0.0
C209 C 0.90019 0.33115 0.954 0.0
C210 C 0.94612 0.3267 0.92817 0.0
C211 C 0.95064 0.37339 0.8983 0.0
C212 C 0.90929 0.42495 0.89325 0.0
C213 C 0.8627 0.42996 0.91784 0.0
H214 H 0.6714 0.71457 0.56241 0.0
C215 C 0.64513 0.7008 0.53775 0.0
H216 H 0.61896 0.72784 0.4808 0.0
H217 H 0.70836 0.97997 0.56262 0.0
H218 H 0.59947 0.97518 0.58269 0.0
H219 H 0.52434 0.89145 0.56757 0.0
H220 H 0.55785 0.81186 0.5322 0.0
C221 C 0.63957 0.74187 0.5067 0.0
C222 C 0.67615 0.80145 0.5065 0.0
C223 C 0.65583 0.84808 0.52653 0.0
C224 C 0.69922 0.89631 0.53515 0.0
C225 C 0.67764 0.94191 0.55559 0.0
C226 C 0.61519 0.93984 0.56716 0.0
C227 C 0.57289 0.89268 0.55866 0.0
C228 C 0.59273 0.84718 0.53858 0.0
H229 H 0.82416 0.99374 0.48571 0.0
C230 C 0.83671 0.9889 0.51539 0.0
H231 H 0.82255 0.93933 0.5674 0.0
H232 H 0.72525 0.72588 0.46178 0.0
H233 H 0.83311 0.73086 0.44043 0.0
H234 H 0.91091 0.81091 0.45784 0.0
H235 H 0.88137 0.88661 0.49623 0.0
C236 C 0.81094 0.94272 0.53768 0.0
C237 C 0.76296 0.89788 0.5236 0.0
C238 C 0.78167 0.8536 0.50122 0.0
C239 C 0.73753 0.80617 0.49205 0.0
C240 C 0.75722 0.76233 0.46988 0.0
C241 C 0.81893 0.76469 0.45741 0.0
C242 C 0.86265 0.80986 0.46714 0.0
C243 C 0.84474 0.85355 0.489 0.0
H244 H 0.69754 0.37597 0.46557 0.0
C245 C 0.72572 0.40437 0.48338 0.0
H246 H 0.81813 0.42694 0.50649 0.0
H247 H 0.95123 0.16597 0.51208 0.0
H248 H 0.96701 0.18575 0.57551 0.0
H249 H 0.91799 0.27836 0.59464 0.0
H250 H 0.85296 0.35125 0.5506 0.0
C251 C 0.79074 0.39761 0.48893 0.0
C252 C 0.82553 0.34521 0.47624 0.0
C253 C 0.86377 0.30289 0.50263 0.0
C254 C 0.89152 0.24898 0.49175 0.0
C255 C 0.92881 0.20734 0.51873 0.0
C256 C 0.93829 0.21815 0.55534 0.0
C257 C 0.91077 0.2703 0.56609 0.0
C258 C 0.87366 0.31208 0.54029 0.0
H259 H 1.00077 0.1972 0.447 0.0
C260 C 0.96349 0.16349 0.44099 0.0
H261 H 0.8636 0.14261 0.43842 0.0
H262 H 0.77167 0.42501 0.41684 0.0
H263 H 0.75576 0.40465 0.35325 0.0
H264 H 0.79425 0.30623 0.33561 0.0
H265 H 0.85167 0.22876 0.38124 0.0
C266 C 0.90095 0.17632 0.44427 0.0
C267 C 0.87986 0.23667 0.45473 0.0
C268 C 0.84419 0.28023 0.42808 0.0
C269 C 0.81886 0.33553 0.43858 0.0
C270 C 0.78814 0.38052 0.41078 0.0
C271 C 0.77934 0.36972 0.3741 0.0
C272 C 0.80139 0.31444 0.36414 0.0
C273 C 0.83396 0.27026 0.39063 0.0
H274 H 0.3866 0.38835 0.56799 0.0
C275 C 0.3774 0.39632 0.53809 0.0
H276 H 0.32198 0.37192 0.49103 0.0
H277 H 0.26732 0.12554 0.6127 0.0
H278 H 0.38407 0.10881 0.62118 0.0
H279 H 0.45816 0.18592 0.59171 0.0
H280 H 0.41635 0.28034 0.55415 0.0
C281 C 0.33125 0.36344 0.52095 0.0
C282 C 0.28815 0.31756 0.54081 0.0
C283 C 0.31385 0.26176 0.56209 0.0
C284 C 0.27106 0.21624 0.57815 0.0
C285 C 0.29768 0.16135 0.59967 0.0
C286 C 0.36456 0.15109 0.6047 0.0
C287 C 0.40627 0.19457 0.58817 0.0
C288 C 0.38152 0.24906 0.5669 0.0
H289 H 0.134 0.14368 0.53692 0.0
C290 C 0.12724 0.13767 0.56625 0.0
H291 H 0.15207 0.17431 0.61659 0.0
H292 H 0.22256 0.42007 0.50296 0.0
H293 H 0.10569 0.43482 0.49356 0.0
H294 H 0.03193 0.35427 0.52012 0.0
H295 H 0.07482 0.25874 0.55638 0.0
C296 C 0.15851 0.17659 0.58747 0.0
C297 C 0.20292 0.22535 0.57175 0.0
C298 C 0.17721 0.28105 0.55076 0.0
C299 C 0.21981 0.32725 0.53535 0.0
C300 C 0.1926 0.38283 0.51482 0.0
C301 C 0.12553 0.39209 0.50936 0.0
C302 C 0.08401 0.34681 0.52432 0.0
C303 C 0.10928 0.29201 0.54495 0.0
H304 H 0.48655 0.73528 0.49806 0.0
C305 C 0.45764 0.70967 0.47901 0.0
H306 H 0.37362 0.70907 0.44173 0.0
H307 H 0.18683 0.88132 0.49882 0.0
H308 H 0.16471 0.78728 0.54029 0.0
H309 H 0.23899 0.69642 0.54844 0.0
H310 H 0.33604 0.69912 0.51534 0.0
C311 C 0.40333 0.73545 0.46005 0.0
C312 C 0.37453 0.79541 0.46618 0.0
C313 C 0.31912 0.79362 0.48628 0.0
C314 C 0.27611 0.84565 0.48138 0.0
C315 C 0.22042 0.84241 0.50125 0.0
C316 C 0.20742 0.78897 0.52519 0.0
C317 C 0.24927 0.73781 0.52979 0.0
C318 C 0.30452 0.7398 0.51056 0.0
H319 H 0.18417 0.87926 0.41374 0.0
C320 C 0.18457 0.92684 0.42025 0.0
H321 H 0.24024 0.99279 0.44713 0.0
H322 H 0.48404 0.81819 0.43065 0.0
H323 H 0.51015 0.91476 0.39257 0.0
H324 H 0.43523 0.00519 0.38366 0.0
H325 H 0.33377 0.99981 0.41275 0.0
C326 C 0.23505 0.9446 0.44221 0.0
C327 C 0.28846 0.89903 0.45614 0.0
C328 C 0.34838 0.90396 0.44006 0.0
C329 C 0.39154 0.85181 0.44507 0.0
C330 C 0.44971 0.85658 0.42747 0.0
C331 C 0.46522 0.91166 0.4057 0.0
C332 C 0.42302 0.96262 0.4007 0.0
C333 C 0.365 0.95897 0.41747 0.0
H334 H 0.13034 0.9166 0.14419 0.0
C335 C 0.09364 0.93238 0.12167 0.0
H336 H 0.99815 0.96787 0.10809 0.0
H337 H 0.02471 0.84758 0.28782 0.0
H338 H 1.00205 0.74831 0.26531 0.0
H339 H 0.98935 0.7417 0.19839 0.0
H340 H 0.99928 0.83443 0.15352 0.0
C341 C 0.03401 0.947 0.12973 0.0
C342 C 0.02416 0.95225 0.16881 0.0
C343 C 0.01825 0.89807 0.19455 0.0
C344 C 0.02583 0.90201 0.23305 0.0
C345 C 0.01999 0.847 0.25824 0.0
C346 C 1.00683 0.78988 0.24568 0.0
C347 C 0.99974 0.78612 0.208 0.0
C348 C 1.00568 0.83946 0.18258 0.0
H349 H 0.98308 0.01148 0.29746 0.0
C350 C 0.02926 0.98916 0.30821 0.0
H351 H 0.10996 0.9399 0.29451 0.0
H352 H 0.02576 0.06631 0.12626 0.0
H353 H 0.04568 0.1661 0.14812 0.0
H354 H 0.0648 0.17281 0.2148 0.0
H355 H 0.06342 0.08033 0.25989 0.0
C356 C 0.06295 0.9613 0.28521 0.0
C357 C 0.03999 0.96011 0.24566 0.0
C358 C 0.04087 0.01523 0.21974 0.0
C359 C 0.03155 0.01127 0.18124 0.0
C360 C 0.03323 0.06666 0.1558 0.0
C361 C 0.04455 0.12425 0.16796 0.0
C362 C 0.05519 0.12803 0.20549 0.0
C363 C 0.05385 0.07436 0.23117 0.0
H364 H 0.1264 0.97059 0.87762 0.0
C365 C 0.07451 0.97108 0.88039 0.0
H366 H 0.97994 0.97142 0.8533 0.0
H367 H 0.04108 0.11151 0.70106 0.0
H368 H 0.9945 0.19525 0.72789 0.0
H369 H 0.97341 0.18119 0.79358 0.0
H370 H 0.99926 0.08341 0.83285 0.0
C371 C 0.03179 0.96935 0.85057 0.0
C372 C 0.05137 0.97865 0.81224 0.0
C373 C 0.0353 0.03597 0.78953 0.0
C374 C 0.04666 0.04383 0.75158 0.0
C375 C 0.03188 0.10226 0.72983 0.0
C376 C 1.00551 0.15099 0.74494 0.0
C377 C 0.99368 0.14309 0.78192 0.0
C378 C 1.00848 0.08651 0.80411 0.0
H379 H 0.98171 0.99297 0.68009 0.0
C380 C 0.0295 0.00337 0.67073 0.0
H381 H 0.1302 0.00746 0.68766 0.0
H382 H 0.09068 0.86416 0.84853 0.0
H383 H 0.14105 0.78156 0.82213 0.0
H384 H 0.161 0.79533 0.75622 0.0
H385 H 0.13051 0.89183 0.71623 0.0
C386 C 0.08129 1.00126 0.69602 0.0
C387 C 0.07302 0.99391 0.73622 0.0
C388 C 0.09209 0.93776 0.7593 0.0
C389 C 0.081 0.92996 0.79739 0.0
C390 C 0.09871 0.87274 0.81957 0.0
C391 C 0.12751 0.82494 0.80473 0.0
C392 C 0.13873 0.83269 0.7676 0.0
C393 C 0.1211 0.88827 0.74498 0.0
H394 H 0.45282 0.43719 0.61938 0.0
C395 C 0.50541 0.43531 0.62469 0.0
H396 H 0.58561 0.42596 0.66508 0.0
H397 H 0.44378 0.56297 0.77499 0.0
H398 H 0.43887 0.65366 0.72774 0.0
H399 H 0.46016 0.64357 0.66374 0.0
H400 H 0.48602 0.5431 0.64657 0.0
C401 C 0.53303 0.42803 0.65965 0.0
C402 C 0.49661 0.4312 0.69237 0.0
C403 C 0.47942 0.4903 0.70147 0.0
C404 C 0.46768 0.49633 0.73841 0.0
C405 C 0.45325 0.55602 0.74733 0.0
C406 C 0.45023 0.60837 0.72049 0.0
C407 C 0.46219 0.60268 0.68446 0.0
C408 C 0.47701 0.54456 0.67495 0.0
H409 H 0.58137 0.42163 0.80894 0.0
C410 C 0.5448 0.44205 0.82332 0.0
H411 H 0.4467 0.47316 0.81842 0.0
H412 H 0.51307 0.31052 0.68161 0.0
H413 H 0.5106 0.21877 0.72818 0.0
H414 H 0.48959 0.22935 0.79222 0.0
H415 H 0.47124 0.33177 0.81016 0.0
C416 C 0.48522 0.45303 0.80554 0.0
C417 C 0.47432 0.44363 0.766 0.0
C418 C 0.48233 0.3836 0.75571 0.0
C419 C 0.49389 0.37746 0.71882 0.0
C420 C 0.50445 0.31734 0.70945 0.0
C421 C 0.50285 0.26454 0.73581 0.0
C422 C 0.49102 0.2705 0.77189 0.0
C423 C 0.48092 0.32931 0.78189 0.0
H424 H 0.65519 0.45469 0.40744 0.0
C425 C 0.60363 0.46248 0.39971 0.0
H426 H 0.52768 0.46835 0.35671 0.0
H427 H 0.72686 0.56463 0.23957 0.0
H428 H 0.73882 0.65596 0.27103 0.0
H429 H 0.69681 0.65692 0.33175 0.0
H430 H 0.64282 0.56656 0.36133 0.0
C431 C 0.57942 0.4616 0.36455 0.0
C432 C 0.62059 0.45557 0.33418 0.0
C433 C 0.65333 0.50852 0.31776 0.0
C434 C 0.67723 0.5081 0.28268 0.0
C435 C 0.70786 0.56225 0.26621 0.0
C436 C 0.71506 0.61508 0.28397 0.0
C437 C 0.69142 0.61561 0.31815 0.0
C438 C 0.66054 0.56328 0.33487 0.0
H439 H 0.57758 0.44853 0.20841 0.0
C440 C 0.62481 0.46136 0.19895 0.0
H441 H 0.72462 0.4723 0.2154 0.0
H442 H 0.57267 0.343 0.36197 0.0
H443 H 0.56782 0.24874 0.33246 0.0
H444 H 0.60985 0.24791 0.27168 0.0
H445 H 0.65679 0.34141 0.23996 0.0
C446 C 0.67666 0.46087 0.22404 0.0
C447 C 0.66732 0.45514 0.26407 0.0
C448 C 0.6415 0.39995 0.28245 0.0
C449 C 0.61777 0.4003 0.31754 0.0
C450 C 0.59089 0.34507 0.3351 0.0
C451 C 0.58815 0.29076 0.31856 0.0
C452 C 0.61181 0.29029 0.28433 0.0
C453 C 0.63822 0.34419 0.26633 0.0
loop_
_geom_bond_atom_site_label_1
_geom_bond_atom_site_label_2
_geom_bond_distance
_geom_bond_site_symmetry_2
_ccdc_geom_bond_type
Zn0 O6 1.920 1_545 S
Zn0 O12 1.898 . S
Zn0 O15 1.905 1_545 S
Zn1 O9 1.907 . S
Zn1 O10 1.897 1_545 S
Zn1 O18 1.919 1_545 S
Zn2 O5 2.080 1_445 S
Zn2 O8 2.113 1_554 S
Zn2 O11 2.120 1_545 S
Zn2 O13 2.120 1_455 S
Zn2 O14 2.114 1_554 S
Zn2 O17 2.080 . S
C3 O8 1.146 1_554 S
C3 O9 1.182 . S
C4 O10 1.167 . S
C4 O11 1.299 . S
O5 Zn2 2.080 1_665 S
O5 C19 1.305 . S
O6 Zn0 1.920 1_565 S
O6 C19 1.234 1_556 S
C7 O12 1.167 . S
C7 O13 1.299 1_556 S
O8 Zn2 2.113 1_556 S
O8 C3 1.146 1_556 S
O9 Zn1 1.907 . S
O9 C3 1.182 . S
O10 Zn1 1.897 1_565 S
O10 C4 1.167 . S
O11 Zn2 2.120 1_565 S
O11 C4 1.299 . S
O12 Zn0 1.898 . S
O12 C7 1.167 . S
O13 Zn2 2.120 1_655 S
O13 C7 1.299 1_554 S
O14 Zn2 2.114 1_556 S
O14 C16 1.166 1_545 S
O15 Zn0 1.905 1_565 S
O15 C16 1.182 1_655 S
C16 O14 1.166 1_565 S
C16 O15 1.182 1_455 S
O17 Zn2 2.080 . S
O17 C20 1.305 1_545 S
O18 Zn1 1.919 1_565 S
O18 C20 1.234 . S
C19 O5 1.305 . S
C19 O6 1.234 1_554 S
C20 O17 1.305 1_565 S
C20 O18 1.234 . S
Zn21 O27 1.920 . S
Zn21 O33 1.898 . S
Zn21 O36 1.905 . S
Zn22 O30 1.905 . S
Zn22 O31 1.898 . S
Zn22 O39 1.920 . S
Zn23 O26 2.080 . S
Zn23 O29 2.114 . S
Zn23 O32 2.120 . S
Zn23 O34 2.120 . S
Zn23 O35 2.114 . S
Zn23 O38 2.080 . S
C24 O29 1.166 . S
C24 O30 1.182 . S
C25 O31 1.167 . S
C25 O32 1.299 . S
O26 Zn23 2.080 . S
O26 C40 1.305 . S
O27 Zn21 1.920 . S
O27 C40 1.234 . S
C28 O33 1.167 . S
C28 O34 1.299 . S
O29 Zn23 2.114 . S
O29 C24 1.166 . S
O30 Zn22 1.905 . S
O30 C24 1.182 . S
O31 Zn22 1.898 . S
O31 C25 1.167 . S
O32 Zn23 2.120 . S
O32 C25 1.299 . S
O33 Zn21 1.898 . S
O33 C28 1.167 . S
O34 Zn23 2.120 . S
O34 C28 1.299 . S
O35 Zn23 2.114 . S
O35 C37 1.166 . S
O36 Zn21 1.905 . S
O36 C37 1.182 . S
C37 O35 1.166 . S
C37 O36 1.182 . S
O38 Zn23 2.080 . S
O38 C41 1.305 . S
O39 Zn22 1.920 . S
O39 C41 1.234 . S
C40 O26 1.305 . S
C40 O27 1.234 . S
C41 O38 1.305 . S
C41 O39 1.234 . S
H42 C49 0.929 . S
H43 C52 0.930 . S
H44 C54 0.929 . S
H45 C46 0.969 . S
C46 H45 0.969 . S
C46 O47 1.550 1_655 S
C46 H48 0.973 . S
O47 C46 1.550 1_455 S
O47 C53 1.412 . S
H48 C46 0.973 . S
C49 H42 0.929 . S
C49 C50 1.400 . S
C49 C51 1.364 1_565 S
C50 C49 1.400 . S
C50 C54 1.377 . S
C51 C49 1.364 1_545 S
C51 C52 1.374 . S
C52 H43 0.930 . S
C52 C51 1.374 . S
C52 C53 1.383 . S
C53 O47 1.412 . S
C53 C52 1.383 . S
C53 C54 1.394 1_545 S
C54 H44 0.929 . S
C54 C50 1.377 . S
C54 C53 1.394 1_565 S
H55 C62 0.929 . S
H56 C65 0.930 1_565 S
H57 C67 0.929 . S
H58 C59 0.969 . S
C59 H58 0.969 . S
C59 O60 1.550 . S
C59 H61 0.973 . S
O60 C59 1.550 . S
O60 C66 1.412 1_565 S
H61 C59 0.973 . S
C62 H55 0.929 . S
C62 C63 1.400 . S
C62 C64 1.364 . S
C63 C62 1.400 . S
C63 C67 1.377 . S
C64 C62 1.364 . S
C64 C65 1.374 1_455 S
C65 H56 0.930 1_545 S
C65 C64 1.374 1_655 S
C65 C66 1.383 . S
C66 O60 1.412 1_545 S
C66 C65 1.383 . S
C66 C67 1.394 1_655 S
C67 H57 0.929 . S
C67 C63 1.377 . S
C67 C66 1.394 1_455 S
H68 C75 0.929 . S
H69 C78 0.930 . S
H70 C80 0.929 . S
H71 C72 0.969 . S
C72 H71 0.969 . S
C72 O73 1.550 . S
C72 H74 0.973 . S
O73 C72 1.550 . S
O73 C79 1.412 . S
H74 C72 0.973 . S
C75 H68 0.929 . S
C75 C76 1.400 . S
C75 C77 1.364 . S
C76 C75 1.400 . S
C76 C80 1.377 . S
C77 C75 1.364 . S
C77 C78 1.374 . S
C78 H69 0.930 . S
C78 C77 1.374 . S
C78 C79 1.383 . S
C79 O73 1.412 . S
C79 C78 1.383 . S
C79 C80 1.394 . S
C80 H70 0.929 . S
C80 C76 1.377 . S
C80 C79 1.394 . S
H81 C88 0.929 . S
H82 C91 0.930 . S
H83 C93 0.929 . S
H84 C85 0.969 . S
C85 H84 0.969 . S
C85 O86 1.550 . S
C85 H87 0.973 . S
O86 C85 1.550 . S
O86 C92 1.412 . S
H87 C85 0.973 . S
C88 H81 0.929 . S
C88 C89 1.400 . S
C88 C90 1.364 . S
C89 C88 1.400 . S
C89 C93 1.377 . S
C90 C88 1.364 . S
C90 C91 1.374 . S
C91 H82 0.930 . S
C91 C90 1.374 . S
C91 C92 1.383 . S
C92 O86 1.412 . S
C92 C91 1.383 . S
C92 C93 1.394 . S
C93 H83 0.929 . S
C93 C89 1.377 . S
C93 C92 1.394 . S
H94 C95 0.951 . S
C95 H94 0.951 . S
C95 C101 1.265 . S
H96 C101 0.950 1_556 S
H97 C105 0.948 . S
H98 C106 0.950 . S
H99 C107 0.951 . S
H100 C108 0.951 . S
C101 C95 1.265 . S
C101 H96 0.950 1_554 S
C101 C102 1.478 . S
C102 C101 1.478 . S
C102 C103 1.397 . S
C102 C119 1.394 . S
C103 C102 1.397 . S
C103 C104 1.438 . S
C103 C108 1.429 1_554 S
C104 C103 1.438 . S
C104 C105 1.427 . S
C104 C117 1.394 . S
C105 H97 0.948 . S
C105 C104 1.427 . S
C105 C106 1.346 1_554 S
C106 H98 0.950 . S
C106 C105 1.346 1_556 S
C106 C107 1.424 . S
C107 H99 0.951 . S
C107 C106 1.424 . S
C107 C108 1.347 . S
C108 H100 0.951 . S
C108 C103 1.429 1_556 S
C108 C107 1.347 . S
H109 C110 0.951 . S
C110 H109 0.951 . S
C110 C116 1.265 . S
H111 C116 0.950 . S
H112 C120 0.949 . S
H113 C121 0.950 . S
H114 C122 0.951 . S
H115 C123 0.951 . S
C116 C110 1.265 . S
C116 H111 0.950 . S
C116 C117 1.478 . S
C117 C104 1.394 . S
C117 C116 1.478 . S
C117 C118 1.397 . S
C118 C117 1.397 . S
C118 C119 1.438 . S
C118 C123 1.429 . S
C119 C102 1.394 . S
C119 C118 1.438 . S
C119 C120 1.428 . S
C120 H112 0.949 . S
C120 C119 1.428 . S
C120 C121 1.345 . S
C121 H113 0.950 . S
C121 C120 1.345 . S
C121 C122 1.424 . S
C122 H114 0.951 . S
C122 C121 1.424 . S
C122 C123 1.347 . S
C123 H115 0.951 . S
C123 C118 1.429 . S
C123 C122 1.347 . S
H124 C125 0.951 . S
C125 H124 0.951 . S
C125 C131 1.265 . S
H126 C131 0.950 1_554 S
H127 C135 0.949 . S
H128 C136 0.950 . S
H129 C137 0.951 . S
H130 C138 0.951 . S
C131 C125 1.265 . S
C131 H126 0.950 1_556 S
C131 C132 1.478 . S
C132 C131 1.478 . S
C132 C133 1.397 . S
C132 C149 1.394 . S
C133 C132 1.397 . S
C133 C134 1.438 . S
C133 C138 1.429 . S
C134 C133 1.438 . S
C134 C135 1.428 . S
C134 C147 1.394 . S
C135 H127 0.949 . S
C135 C134 1.428 . S
C135 C136 1.345 . S
C136 H128 0.950 . S
C136 C135 1.345 . S
C136 C137 1.424 . S
C137 H129 0.951 . S
C137 C136 1.424 . S
C137 C138 1.347 . S
C138 H130 0.951 . S
C138 C133 1.429 . S
C138 C137 1.347 . S
H139 C140 0.951 . S
C140 H139 0.951 . S
C140 C146 1.265 . S
H141 C146 0.950 . S
H142 C150 0.949 . S
H143 C151 0.950 . S
H144 C152 0.951 . S
H145 C153 0.956 . S
C146 C140 1.265 . S
C146 H141 0.950 . S
C146 C147 1.478 . S
C147 C134 1.394 . S
C147 C146 1.478 . S
C147 C148 1.397 . S
C148 C147 1.397 . S
C148 C149 1.438 . S
C148 C153 1.433 . S
C149 C132 1.394 . S
C149 C148 1.438 . S
C149 C150 1.428 1_556 S
C150 H142 0.949 . S
C150 C149 1.428 1_554 S
C150 C151 1.345 . S
C151 H143 0.950 . S
C151 C150 1.345 . S
C151 C152 1.424 . S
C152 H144 0.951 . S
C152 C151 1.424 . S
C152 C153 1.338 1_554 S
C153 H145 0.956 . S
C153 C148 1.433 . S
C153 C152 1.338 1_556 S
H154 C155 0.951 . S
C155 H154 0.951 . S
C155 C161 1.265 . S
H156 C161 0.950 . S
H157 C165 0.949 1_554 S
H158 C166 0.950 . S
H159 C167 0.951 . S
H160 C168 0.951 . S
C161 C155 1.265 . S
C161 H156 0.950 . S
C161 C162 1.478 . S
C162 C161 1.478 . S
C162 C163 1.397 . S
C162 C179 1.394 . S
C163 C162 1.397 . S
C163 C164 1.438 . S
C163 C168 1.429 1_554 S
C164 C163 1.438 . S
C164 C165 1.428 1_554 S
C164 C177 1.394 . S
C165 H157 0.949 1_556 S
C165 C164 1.428 1_556 S
C165 C166 1.345 . S
C166 H158 0.950 . S
C166 C165 1.345 . S
C166 C167 1.424 . S
C167 H159 0.951 . S
C167 C166 1.424 . S
C167 C168 1.347 . S
C168 H160 0.951 . S
C168 C163 1.429 1_556 S
C168 C167 1.347 . S
H169 C170 0.951 . S
C170 H169 0.951 . S
C170 C176 1.265 . S
H171 C176 0.950 . S
H172 C180 0.949 . S
H173 C181 0.950 . S
H174 C182 0.951 . S
H175 C183 0.951 . S
C176 C170 1.265 . S
C176 H171 0.950 . S
C176 C177 1.478 . S
C177 C164 1.394 . S
C177 C176 1.478 . S
C177 C178 1.397 . S
C178 C177 1.397 . S
C178 C179 1.438 . S
C178 C183 1.429 . S
C179 C162 1.394 . S
C179 C178 1.438 . S
C179 C180 1.428 . S
C180 H172 0.949 . S
C180 C179 1.428 . S
C180 C181 1.345 . S
C181 H173 0.950 . S
C181 C180 1.345 . S
C181 C182 1.424 . S
C182 H174 0.951 . S
C182 C181 1.424 . S
C182 C183 1.347 . S
C183 H175 0.951 . S
C183 C178 1.429 . S
C183 C182 1.347 . S
H184 C185 0.951 . S
C185 H184 0.951 . S
C185 C191 1.265 . S
H186 C191 0.950 . S
H187 C195 0.949 . S
H188 C196 0.950 . S
H189 C197 0.951 . S
H190 C198 0.951 . S
C191 C185 1.265 . S
C191 H186 0.950 . S
C191 C192 1.478 . S
C192 C191 1.478 . S
C192 C193 1.397 . S
C192 C209 1.394 . S
C193 C192 1.397 . S
C193 C194 1.438 . S
C193 C198 1.429 1_556 S
C194 C193 1.438 . S
C194 C195 1.428 . S
C194 C207 1.394 . S
C195 H187 0.949 . S
C195 C194 1.428 . S
C195 C196 1.345 1_556 S
C196 H188 0.950 . S
C196 C195 1.345 1_554 S
C196 C197 1.424 . S
C197 H189 0.951 . S
C197 C196 1.424 . S
C197 C198 1.347 . S
C198 H190 0.951 . S
C198 C193 1.429 1_554 S
C198 C197 1.347 . S
H199 C200 0.951 . S
C200 H199 0.951 . S
C200 C206 1.265 . S
H201 C206 0.950 . S
H202 C210 0.949 . S
H203 C211 0.950 . S
H204 C212 0.951 . S
H205 C213 0.951 . S
C206 C200 1.265 . S
C206 H201 0.950 . S
C206 C207 1.478 . S
C207 C194 1.394 . S
C207 C206 1.478 . S
C207 C208 1.397 . S
C208 C207 1.397 . S
C208 C209 1.438 . S
C208 C213 1.429 . S
C209 C192 1.394 . S
C209 C208 1.438 . S
C209 C210 1.428 . S
C210 H202 0.949 . S
C210 C209 1.428 . S
C210 C211 1.345 . S
C211 H203 0.950 . S
C211 C210 1.345 . S
C211 C212 1.424 . S
C212 H204 0.951 . S
C212 C211 1.424 . S
C212 C213 1.347 . S
C213 H205 0.951 . S
C213 C208 1.429 . S
C213 C212 1.347 . S
H214 C215 0.951 . S
C215 H214 0.951 . S
C215 C221 1.265 . S
H216 C221 0.950 . S
H217 C225 0.949 . S
H218 C226 0.950 . S
H219 C227 0.951 . S
H220 C228 0.951 . S
C221 C215 1.265 . S
C221 H216 0.950 . S
C221 C222 1.478 . S
C222 C221 1.478 . S
C222 C223 1.397 . S
C222 C239 1.394 . S
C223 C222 1.397 . S
C223 C224 1.438 . S
C223 C228 1.429 . S
C224 C223 1.438 . S
C224 C225 1.428 . S
C224 C237 1.394 . S
C225 H217 0.949 . S
C225 C224 1.428 . S
C225 C226 1.345 . S
C226 H218 0.950 . S
C226 C225 1.345 . S
C226 C227 1.424 . S
C227 H219 0.951 . S
C227 C226 1.424 . S
C227 C228 1.347 . S
C228 H220 0.951 . S
C228 C223 1.429 . S
C228 C227 1.347 . S
H229 C230 0.951 . S
C230 H229 0.951 . S
C230 C236 1.265 . S
H231 C236 0.950 . S
H232 C240 0.949 . S
H233 C241 0.950 . S
H234 C242 0.951 . S
H235 C243 0.951 . S
C236 C230 1.265 . S
C236 H231 0.950 . S
C236 C237 1.478 . S
C237 C224 1.394 . S
C237 C236 1.478 . S
C237 C238 1.397 . S
C238 C237 1.397 . S
C238 C239 1.438 . S
C238 C243 1.429 . S
C239 C222 1.394 . S
C239 C238 1.438 . S
C239 C240 1.428 . S
C240 H232 0.949 . S
C240 C239 1.428 . S
C240 C241 1.345 . S
C241 H233 0.950 . S
C241 C240 1.345 . S
C241 C242 1.424 . S
C242 H234 0.951 . S
C242 C241 1.424 . S
C242 C243 1.347 . S
C243 H235 0.951 . S
C243 C238 1.429 . S
C243 C242 1.347 . S
H244 C245 0.951 . S
C245 H244 0.951 . S
C245 C251 1.265 . S
H246 C251 0.950 . S
H247 C255 0.949 . S
H248 C256 0.950 . S
H249 C257 0.951 . S
H250 C258 0.951 . S
C251 C245 1.265 . S
C251 H246 0.950 . S
C251 C252 1.478 . S
C252 C251 1.478 . S
C252 C253 1.397 . S
C252 C269 1.394 . S
C253 C252 1.397 . S
C253 C254 1.438 . S
C253 C258 1.429 . S
C254 C253 1.438 . S
C254 C255 1.428 . S
C254 C267 1.394 . S
C255 H247 0.949 . S
C255 C254 1.428 . S
C255 C256 1.345 . S
C256 H248 0.950 . S
C256 C255 1.345 . S
C256 C257 1.424 . S
C257 H249 0.951 . S
C257 C256 1.424 . S
C257 C258 1.347 . S
C258 H250 0.951 . S
C258 C253 1.429 . S
C258 C257 1.347 . S
H259 C260 0.951 . S
C260 H259 0.951 . S
C260 C266 1.265 . S
H261 C266 0.950 . S
H262 C270 0.949 . S
H263 C271 0.950 . S
H264 C272 0.951 . S
H265 C273 0.951 . S
C266 C260 1.265 . S
C266 H261 0.950 . S
C266 C267 1.478 . S
C267 C254 1.394 . S
C267 C266 1.478 . S
C267 C268 1.397 . S
C268 C267 1.397 . S
C268 C269 1.438 . S
C268 C273 1.429 . S
C269 C252 1.394 . S
C269 C268 1.438 . S
C269 C270 1.428 . S
C270 H262 0.949 . S
C270 C269 1.428 . S
C270 C271 1.345 . S
C271 H263 0.950 . S
C271 C270 1.345 . S
C271 C272 1.424 . S
C272 H264 0.951 . S
C272 C271 1.424 . S
C272 C273 1.347 . S
C273 H265 0.951 . S
C273 C268 1.429 . S
C273 C272 1.347 . S
H274 C275 0.951 . S
C275 H274 0.951 . S
C275 C281 1.265 . S
H276 C281 0.950 . S
H277 C285 0.949 . S
H278 C286 0.950 . S
H279 C287 0.951 . S
H280 C288 0.951 . S
C281 C275 1.265 . S
C281 H276 0.950 . S
C281 C282 1.478 . S
C282 C281 1.478 . S
C282 C283 1.397 . S
C282 C299 1.394 . S
C283 C282 1.397 . S
C283 C284 1.438 . S
C283 C288 1.429 . S
C284 C283 1.438 . S
C284 C285 1.428 . S
C284 C297 1.394 . S
C285 H277 0.949 . S
C285 C284 1.428 . S
C285 C286 1.345 . S
C286 H278 0.950 . S
C286 C285 1.345 . S
C286 C287 1.424 . S
C287 H279 0.951 . S
C287 C286 1.424 . S
C287 C288 1.347 . S
C288 H280 0.951 . S
C288 C283 1.429 . S
C288 C287 1.347 . S
H289 C290 0.951 . S
C290 H289 0.951 . S
C290 C296 1.265 . S
H291 C296 0.950 . S
H292 C300 0.949 . S
H293 C301 0.950 . S
H294 C302 0.951 . S
H295 C303 0.951 . S
C296 C290 1.265 . S
C296 H291 0.950 . S
C296 C297 1.478 . S
C297 C284 1.394 . S
C297 C296 1.478 . S
C297 C298 1.397 . S
C298 C297 1.397 . S
C298 C299 1.438 . S
C298 C303 1.429 . S
C299 C282 1.394 . S
C299 C298 1.438 . S
C299 C300 1.428 . S
C300 H292 0.949 . S
C300 C299 1.428 . S
C300 C301 1.345 . S
C301 H293 0.950 . S
C301 C300 1.345 . S
C301 C302 1.424 . S
C302 H294 0.951 . S
C302 C301 1.424 . S
C302 C303 1.347 . S
C303 H295 0.951 . S
C303 C298 1.429 . S
C303 C302 1.347 . S
H304 C305 0.951 . S
C305 H304 0.951 . S
C305 C311 1.265 . S
H306 C311 0.950 . S
H307 C315 0.949 . S
H308 C316 0.950 . S
H309 C317 0.951 . S
H310 C318 0.951 . S
C311 C305 1.265 . S
C311 H306 0.950 . S
C311 C312 1.478 . S
C312 C311 1.478 . S
C312 C313 1.397 . S
C312 C329 1.394 . S
C313 C312 1.397 . S
C313 C314 1.438 . S
C313 C318 1.429 . S
C314 C313 1.438 . S
C314 C315 1.428 . S
C314 C327 1.394 . S
C315 H307 0.949 . S
C315 C314 1.428 . S
C315 C316 1.345 . S
C316 H308 0.950 . S
C316 C315 1.345 . S
C316 C317 1.424 . S
C317 H309 0.951 . S
C317 C316 1.424 . S
C317 C318 1.347 . S
C318 H310 0.951 . S
C318 C313 1.429 . S
C318 C317 1.347 . S
H319 C320 0.951 . S
C320 H319 0.951 . S
C320 C326 1.265 . S
H321 C326 0.950 . S
H322 C330 0.949 . S
H323 C331 0.950 . S
H324 C332 0.951 . S
H325 C333 0.951 . S
C326 C320 1.265 . S
C326 H321 0.950 . S
C326 C327 1.478 . S
C327 C314 1.394 . S
C327 C326 1.478 . S
C327 C328 1.397 . S
C328 C327 1.397 . S
C328 C329 1.438 . S
C328 C333 1.429 . S
C329 C312 1.394 . S
C329 C328 1.438 . S
C329 C330 1.428 . S
C330 H322 0.949 . S
C330 C329 1.428 . S
C330 C331 1.345 . S
C331 H323 0.950 . S
C331 C330 1.345 . S
C331 C332 1.424 . S
C332 H324 0.951 . S
C332 C331 1.424 . S
C332 C333 1.347 . S
C333 H325 0.951 . S
C333 C328 1.429 . S
C333 C332 1.347 . S
H334 C335 0.951 . S
C335 H334 0.951 . S
C335 C341 1.265 . S
H336 C341 0.950 1_655 S
H337 C345 0.949 . S
H338 C346 0.950 . S
H339 C347 0.951 . S
H340 C348 0.951 . S
C341 C335 1.265 . S
C341 H336 0.950 1_455 S
C341 C342 1.478 . S
C342 C341 1.478 . S
C342 C343 1.397 . S
C342 C359 1.394 1_565 S
C343 C342 1.397 . S
C343 C344 1.438 . S
C343 C348 1.429 . S
C344 C343 1.438 . S
C344 C345 1.428 . S
C344 C357 1.386 1_565 S
C345 H337 0.949 . S
C345 C344 1.428 . S
C345 C346 1.345 . S
C346 H338 0.950 . S
C346 C345 1.345 . S
C346 C347 1.424 . S
C347 H339 0.951 . S
C347 C346 1.424 . S
C347 C348 1.347 . S
C348 H340 0.951 . S
C348 C343 1.429 . S
C348 C347 1.347 . S
H349 C350 0.951 1_565 S
C350 H349 0.951 1_545 S
C350 C356 1.265 . S
H351 C356 0.950 . S
H352 C360 0.949 . S
H353 C361 0.950 . S
H354 C362 0.951 . S
H355 C363 0.951 . S
C356 C350 1.265 . S
C356 H351 0.950 . S
C356 C357 1.481 . S
C357 C344 1.386 1_545 S
C357 C356 1.481 . S
C357 C358 1.402 . S
C358 C357 1.402 . S
C358 C359 1.438 . S
C358 C363 1.429 . S
C359 C342 1.394 1_545 S
C359 C358 1.438 . S
C359 C360 1.428 . S
C360 H352 0.949 . S
C360 C359 1.428 . S
C360 C361 1.345 . S
C361 H353 0.950 . S
C361 C360 1.345 . S
C361 C362 1.424 . S
C362 H354 0.951 . S
C362 C361 1.424 . S
C362 C363 1.347 . S
C363 H355 0.951 . S
C363 C358 1.429 . S
C363 C362 1.347 . S
H364 C365 0.951 . S
C365 H364 0.951 . S
C365 C371 1.265 1_565 S
H366 C371 0.950 1_655 S
H367 C375 0.949 . S
H368 C376 0.950 . S
H369 C377 0.951 . S
H370 C378 0.951 . S
C371 C365 1.265 1_545 S
C371 H366 0.950 1_455 S
C371 C372 1.478 . S
C372 C371 1.478 . S
C372 C373 1.397 . S
C372 C389 1.394 1_545 S
C373 C372 1.397 . S
C373 C374 1.438 . S
C373 C378 1.429 1_455 S
C374 C373 1.438 . S
C374 C375 1.428 . S
C374 C387 1.394 . S
C375 H367 0.949 . S
C375 C374 1.428 . S
C375 C376 1.345 1_455 S
C376 H368 0.950 . S
C376 C375 1.345 1_655 S
C376 C377 1.424 . S
C377 H369 0.951 . S
C377 C376 1.424 . S
C377 C378 1.347 . S
C378 H370 0.951 . S
C378 C373 1.429 1_655 S
C378 C377 1.347 . S
H379 C380 0.951 1_655 S
C380 H379 0.951 1_455 S
C380 C386 1.265 . S
H381 C386 0.950 . S
H382 C390 0.949 . S
H383 C391 0.950 . S
H384 C392 0.951 . S
H385 C393 0.951 . S
C386 C380 1.265 . S
C386 H381 0.950 . S
C386 C387 1.478 . S
C387 C374 1.394 . S
C387 C386 1.478 . S
C387 C388 1.397 1_545 S
C388 C387 1.397 1_565 S
C388 C389 1.438 . S
C388 C393 1.429 . S
C389 C372 1.394 1_565 S
C389 C388 1.438 . S
C389 C390 1.428 . S
C390 H382 0.949 . S
C390 C389 1.428 . S
C390 C391 1.345 . S
C391 H383 0.950 . S
C391 C390 1.345 . S
C391 C392 1.424 . S
C392 H384 0.951 . S
C392 C391 1.424 . S
C392 C393 1.347 . S
C393 H385 0.951 . S
C393 C388 1.429 . S
C393 C392 1.347 . S
H394 C395 0.951 . S
C395 H394 0.951 . S
C395 C401 1.265 . S
H396 C401 0.950 . S
H397 C405 0.949 . S
H398 C406 0.950 . S
H399 C407 0.951 . S
H400 C408 0.951 . S
C401 C395 1.265 . S
C401 H396 0.950 . S
C401 C402 1.478 . S
C402 C401 1.478 . S
C402 C403 1.397 . S
C402 C419 1.394 . S
C403 C402 1.397 . S
C403 C404 1.438 . S
C403 C408 1.429 . S
C404 C403 1.438 . S
C404 C405 1.428 . S
C404 C417 1.394 . S
C405 H397 0.949 . S
C405 C404 1.428 . S
C405 C406 1.345 . S
C406 H398 0.950 . S
C406 C405 1.345 . S
C406 C407 1.424 . S
C407 H399 0.951 . S
C407 C406 1.424 . S
C407 C408 1.347 . S
C408 H400 0.951 . S
C408 C403 1.429 . S
C408 C407 1.347 . S
H409 C410 0.951 . S
C410 H409 0.951 . S
C410 C416 1.265 . S
H411 C416 0.950 . S
H412 C420 0.949 . S
H413 C421 0.950 . S
H414 C422 0.951 . S
H415 C423 0.951 . S
C416 C410 1.265 . S
C416 H411 0.950 . S
C416 C417 1.478 . S
C417 C404 1.394 . S
C417 C416 1.478 . S
C417 C418 1.397 . S
C418 C417 1.397 . S
C418 C419 1.438 . S
C418 C423 1.429 . S
C419 C402 1.394 . S
C419 C418 1.438 . S
C419 C420 1.428 . S
C420 H412 0.949 . S
C420 C419 1.428 . S
C420 C421 1.345 . S
C421 H413 0.950 . S
C421 C420 1.345 . S
C421 C422 1.424 . S
C422 H414 0.951 . S
C422 C421 1.424 . S
C422 C423 1.347 . S
C423 H415 0.951 . S
C423 C418 1.429 . S
C423 C422 1.347 . S
H424 C425 0.951 . S
C425 H424 0.951 . S
C425 C431 1.265 . S
H426 C431 0.950 . S
H427 C435 0.949 . S
H428 C436 0.950 . S
H429 C437 0.951 . S
H430 C438 0.951 . S
C431 C425 1.265 . S
C431 H426 0.950 . S
C431 C432 1.478 . S
C432 C431 1.478 . S
C432 C433 1.397 . S
C432 C449 1.394 . S
C433 C432 1.397 . S
C433 C434 1.438 . S
C433 C438 1.429 . S
C434 C433 1.438 . S
C434 C435 1.428 . S
C434 C447 1.394 . S
C435 H427 0.949 . S
C435 C434 1.428 . S
C435 C436 1.345 . S
C436 H428 0.950 . S
C436 C435 1.345 . S
C436 C437 1.424 . S
C437 H429 0.951 . S
C437 C436 1.424 . S
C437 C438 1.347 . S
C438 H430 0.951 . S
C438 C433 1.429 . S
C438 C437 1.347 . S
H439 C440 0.951 . S
C440 H439 0.951 . S
C440 C446 1.265 . S
H441 C446 0.950 . S
H442 C450 0.949 . S
H443 C451 0.950 . S
H444 C452 0.951 . S
H445 C453 0.951 . S
C446 C440 1.265 . S
C446 H441 0.950 . S
C446 C447 1.478 . S
C447 C434 1.394 . S
C447 C446 1.478 . S
C447 C448 1.397 . S
C448 C447 1.397 . S
C448 C449 1.438 . S
C448 C453 1.429 . S
C449 C432 1.394 . S
C449 C448 1.438 . S
C449 C450 1.428 . S
C450 H442 0.949 . S
C450 C449 1.428 . S
C450 C451 1.345 . S
C451 H443 0.950 . S
C451 C450 1.345 . S
C451 C452 1.424 . S
C452 H444 0.951 . S
C452 C451 1.424 . S
C452 C453 1.347 . S
C453 H445 0.951 . S
C453 C448 1.429 . S
C453 C452 1.347 . S
C110 C85 1.238 . S
C95 C3 1.092 . S
C125 C4 1.441 1_556 S
C140 C72 1.436 . S
C155 C19 1.582 . S
C170 C89 1.667 . S
C185 C7 1.271 . S
C200 C76 1.307 . S
C215 C37 1.046 . S
C230 C59 1.124 . S
C245 C28 1.474 . S
C260 C46 1.460 . S
C290 C63 1.677 . S
C275 C41 1.561 . S
C320 C50 1.305 . S
C305 C25 1.271 . S
C335 C20 1.252 . S
C350 C51 1.493 . S
C365 C16 1.440 . S
C380 C64 1.529 . S
C410 C77 1.491 . S
C395 C40 1.407 . S
C425 C24 1.440 . S
C440 C90 1.529 . S
