# Generated by pormake.
# Topology ctn, (3,4)-cn, num edge types: 1
# Building blocks:
#     Node 0, Type 0, BuildingBlock: ESEHIV_clean_linker_0, # of connection points: 3
#     Node 1, Type 0, BuildingBlock: ESEHIV_clean_linker_0, # of connection points: 3
#     Node 2, Type 0, BuildingBlock: ESEHIV_clean_linker_0, # of connection points: 3
#     Node 3, Type 0, BuildingBlock: ESEHIV_clean_linker_0, # of connection points: 3
#     Node 4, Type 0, BuildingBlock: ESEHIV_clean_linker_0, # of connection points: 3
#     Node 5, Type 0, BuildingBlock: ESEHIV_clean_linker_0, # of connection points: 3
#     Node 6, Type 0, BuildingBlock: ESEHIV_clean_linker_0, # of connection points: 3
#     Node 7, Type 0, BuildingBlock: ESEHIV_clean_linker_0, # of connection points: 3
#     Node 8, Type 0, BuildingBlock: ESEHIV_clean_linker_0, # of connection points: 3
#     Node 9, Type 0, BuildingBlock: ESEHIV_clean_linker_0, # of connection points: 3
#     Node 10, Type 0, BuildingBlock: ESEHIV_clean_linker_0, # of connection points: 3
#     Node 11, Type 0, BuildingBlock: ESEHIV_clean_linker_0, # of connection points: 3
#     Node 12, Type 0, BuildingBlock: ESEHIV_clean_linker_0, # of connection points: 3
#     Node 13, Type 0, BuildingBlock: ESEHIV_clean_linker_0, # of connection points: 3
#     Node 14, Type 0, BuildingBlock: ESEHIV_clean_linker_0, # of connection points: 3
#     Node 15, Type 0, BuildingBlock: ESEHIV_clean_linker_0, # of connection points: 3
#     Node 16, Type 1, BuildingBlock: TATPOV_clean_sbu_0, # of connection points: 4
#     Node 17, Type 1, BuildingBlock: TATPOV_clean_sbu_0, # of connection points: 4
#     Node 18, Type 1, BuildingBlock: TATPOV_clean_sbu_0, # of connection points: 4
#     Node 19, Type 1, BuildingBlock: TATPOV_clean_sbu_0, # of connection points: 4
#     Node 20, Type 1, BuildingBlock: TATPOV_clean_sbu_0, # of connection points: 4
#     Node 21, Type 1, BuildingBlock: TATPOV_clean_sbu_0, # of connection points: 4
#     Node 22, Type 1, BuildingBlock: TATPOV_clean_sbu_0, # of connection points: 4
#     Node 23, Type 1, BuildingBlock: TATPOV_clean_sbu_0, # of connection points: 4
#     Node 24, Type 1, BuildingBlock: TATPOV_clean_sbu_0, # of connection points: 4
#     Node 25, Type 1, BuildingBlock: TATPOV_clean_sbu_0, # of connection points: 4
#     Node 26, Type 1, BuildingBlock: TATPOV_clean_sbu_0, # of connection points: 4
#     Node 27, Type 1, BuildingBlock: TATPOV_clean_sbu_0, # of connection points: 4
#     Edge 28, Type (0, 1), BuildingBlock: TEMPAE_clean_linker_10, # of connection points: 2
#     Edge 29, Type (0, 1), BuildingBlock: TEMPAE_clean_linker_10, # of connection points: 2
#     Edge 30, Type (0, 1), BuildingBlock: TEMPAE_clean_linker_10, # of connection points: 2
#     Edge 31, Type (0, 1), BuildingBlock: TEMPAE_clean_linker_10, # of connection points: 2
#     Edge 32, Type (0, 1), BuildingBlock: TEMPAE_clean_linker_10, # of connection points: 2
#     Edge 33, Type (0, 1), BuildingBlock: TEMPAE_clean_linker_10, # of connection points: 2
#     Edge 34, Type (0, 1), BuildingBlock: TEMPAE_clean_linker_10, # of connection points: 2
#     Edge 35, Type (0, 1), BuildingBlock: TEMPAE_clean_linker_10, # of connection points: 2
#     Edge 36, Type (0, 1), BuildingBlock: TEMPAE_clean_linker_10, # of connection points: 2
#     Edge 37, Type (0, 1), BuildingBlock: TEMPAE_clean_linker_10, # of connection points: 2
#     Edge 38, Type (0, 1), BuildingBlock: TEMPAE_clean_linker_10, # of connection points: 2
#     Edge 39, Type (0, 1), BuildingBlock: TEMPAE_clean_linker_10, # of connection points: 2
#     Edge 40, Type (0, 1), BuildingBlock: TEMPAE_clean_linker_10, # of connection points: 2
#     Edge 41, Type (0, 1), BuildingBlock: TEMPAE_clean_linker_10, # of connection points: 2
#     Edge 42, Type (0, 1), BuildingBlock: TEMPAE_clean_linker_10, # of connection points: 2
#     Edge 43, Type (0, 1), BuildingBlock: TEMPAE_clean_linker_10, # of connection points: 2
#     Edge 44, Type (0, 1), BuildingBlock: TEMPAE_clean_linker_10, # of connection points: 2
#     Edge 45, Type (0, 1), BuildingBlock: TEMPAE_clean_linker_10, # of connection points: 2
#     Edge 46, Type (0, 1), BuildingBlock: TEMPAE_clean_linker_10, # of connection points: 2
#     Edge 47, Type (0, 1), BuildingBlock: TEMPAE_clean_linker_10, # of connection points: 2
#     Edge 48, Type (0, 1), BuildingBlock: TEMPAE_clean_linker_10, # of connection points: 2
#     Edge 49, Type (0, 1), BuildingBlock: TEMPAE_clean_linker_10, # of connection points: 2
#     Edge 50, Type (0, 1), BuildingBlock: TEMPAE_clean_linker_10, # of connection points: 2
#     Edge 51, Type (0, 1), BuildingBlock: TEMPAE_clean_linker_10, # of connection points: 2
#     Edge 52, Type (0, 1), BuildingBlock: TEMPAE_clean_linker_10, # of connection points: 2
#     Edge 53, Type (0, 1), BuildingBlock: TEMPAE_clean_linker_10, # of connection points: 2
#     Edge 54, Type (0, 1), BuildingBlock: TEMPAE_clean_linker_10, # of connection points: 2
#     Edge 55, Type (0, 1), BuildingBlock: TEMPAE_clean_linker_10, # of connection points: 2
#     Edge 56, Type (0, 1), BuildingBlock: TEMPAE_clean_linker_10, # of connection points: 2
#     Edge 57, Type (0, 1), BuildingBlock: TEMPAE_clean_linker_10, # of connection points: 2
#     Edge 58, Type (0, 1), BuildingBlock: TEMPAE_clean_linker_10, # of connection points: 2
#     Edge 59, Type (0, 1), BuildingBlock: TEMPAE_clean_linker_10, # of connection points: 2
#     Edge 60, Type (0, 1), BuildingBlock: TEMPAE_clean_linker_10, # of connection points: 2
#     Edge 61, Type (0, 1), BuildingBlock: TEMPAE_clean_linker_10, # of connection points: 2
#     Edge 62, Type (0, 1), BuildingBlock: TEMPAE_clean_linker_10, # of connection points: 2
#     Edge 63, Type (0, 1), BuildingBlock: TEMPAE_clean_linker_10, # of connection points: 2
#     Edge 64, Type (0, 1), BuildingBlock: TEMPAE_clean_linker_10, # of connection points: 2
#     Edge 65, Type (0, 1), BuildingBlock: TEMPAE_clean_linker_10, # of connection points: 2
#     Edge 66, Type (0, 1), BuildingBlock: TEMPAE_clean_linker_10, # of connection points: 2
#     Edge 67, Type (0, 1), BuildingBlock: TEMPAE_clean_linker_10, # of connection points: 2
#     Edge 68, Type (0, 1), BuildingBlock: TEMPAE_clean_linker_10, # of connection points: 2
#     Edge 69, Type (0, 1), BuildingBlock: TEMPAE_clean_linker_10, # of connection points: 2
#     Edge 70, Type (0, 1), BuildingBlock: TEMPAE_clean_linker_10, # of connection points: 2
#     Edge 71, Type (0, 1), BuildingBlock: TEMPAE_clean_linker_10, # of connection points: 2
#     Edge 72, Type (0, 1), BuildingBlock: TEMPAE_clean_linker_10, # of connection points: 2
#     Edge 73, Type (0, 1), BuildingBlock: TEMPAE_clean_linker_10, # of connection points: 2
#     Edge 74, Type (0, 1), BuildingBlock: TEMPAE_clean_linker_10, # of connection points: 2
#     Edge 75, Type (0, 1), BuildingBlock: TEMPAE_clean_linker_10, # of connection points: 2
# Relax obj value: 0.003
# Max RMSD: 0.047
# Mean RMSD: 0.021
data_MOF--net-ctn--node1-TATPOV_clean_sbu_0--node2-ESEHIV_clean_linker_0--edge1-TEMPAE_clean_linker_10
_symmetry_space_group_name_H-M    P1
_symmetry_Int_Tables_number       1
_symmetry_cell_setting            triclinic
loop_
_symmetry_equiv_pos_as_xyz
'x, y, z'
_cell_length_a     52.185343
_cell_length_b     52.159239
_cell_length_c     52.067361
_cell_angle_alpha  91.049768
_cell_angle_beta   91.283613
_cell_angle_gamma 91.245361
loop_
_atom_site_label
_atom_site_type_symbol
_atom_site_fract_x
_atom_site_fract_y
_atom_site_fract_z
_atom_type_partial_charge
H0 H 0.98893 0.05889 0.02059 0.0
H1 H 0.03001 0.99203 0.04321 0.0
H2 H 0.05374 0.03423 0.97747 0.0
C3 C 0.00408 0.0454 0.01732 0.0
C4 C 0.02095 0.04918 0.99692 0.0
C5 C 0.00728 0.02489 0.0342 0.0
C6 C 0.02742 0.00789 0.0303 0.0
C7 C 0.04438 0.01127 0.01003 0.0
C8 C 0.04099 0.03192 0.99345 0.0
H9 H 0.27706 0.67906 0.26552 0.0
H10 H 0.29402 0.74675 0.22327 0.0
H11 H 0.22559 0.70141 0.2048 0.0
C12 C 0.2719 0.69218 0.25044 0.0
C13 C 0.24891 0.6883 0.23627 0.0
C14 C 0.28818 0.71309 0.24562 0.0
C15 C 0.28134 0.73048 0.22657 0.0
C16 C 0.25895 0.72641 0.21123 0.0
C17 C 0.24265 0.70532 0.21657 0.0
H18 H 0.97099 0.47241 0.09843 0.0
H19 H 0.00638 0.40216 0.07456 0.0
H20 H 0.95332 0.4395 0.02391 0.0
C21 C 0.97339 0.45709 0.08439 0.0
C22 C 0.96005 0.45788 0.06081 0.0
C23 C 0.99054 0.43725 0.08941 0.0
C24 C 0.99369 0.41787 0.07065 0.0
C25 C 0.98015 0.41836 0.04706 0.0
C26 C 0.96353 0.4386 0.04223 0.0
H27 H 0.70942 0.72465 0.21171 0.0
H28 H 0.771 0.77431 0.18822 0.0
H29 H 0.72644 0.79538 0.25328 0.0
C30 C 0.72098 0.74198 0.2147 0.0
C31 C 0.71521 0.75931 0.23468 0.0
C32 C 0.74132 0.74701 0.19813 0.0
C33 C 0.75588 0.76984 0.20148 0.0
C34 C 0.75021 0.78759 0.221 0.0
C35 C 0.7302 0.78198 0.23775 0.0
H36 H 0.03317 0.94115 0.42289 0.0
H37 H 0.07732 0.00687 0.39895 0.0
H38 H 0.09852 0.96786 0.46797 0.0
C39 C 0.04914 0.9546 0.42571 0.0
C40 C 0.0652 0.95239 0.44751 0.0
C41 C 0.05295 0.97445 0.40814 0.0
C42 C 0.07404 0.99145 0.41218 0.0
C43 C 0.09087 0.98892 0.43341 0.0
C44 C 0.08609 0.96952 0.45115 0.0
H45 H 0.18139 0.76787 0.7682 0.0
H46 H 0.24878 0.7272 0.78974 0.0
H47 H 0.20637 0.70566 0.72029 0.0
C48 C 0.19509 0.75311 0.76401 0.0
C49 C 0.19215 0.73794 0.74152 0.0
C50 C 0.21538 0.74909 0.78141 0.0
C51 C 0.23301 0.72987 0.77623 0.0
C52 C 0.22979 0.71356 0.75447 0.0
C53 C 0.20931 0.71797 0.73711 0.0
H54 H 0.90169 0.56501 0.50951 0.0
H55 H 0.97311 0.58363 0.4735 0.0
H56 H 0.93316 0.51288 0.45421 0.0
C57 C 0.91674 0.56011 0.4964 0.0
C58 C 0.91487 0.53694 0.48219 0.0
C59 C 0.93759 0.57725 0.49321 0.0
C60 C 0.95678 0.57075 0.47587 0.0
C61 C 0.95511 0.54777 0.46151 0.0
C62 C 0.9341 0.53102 0.46474 0.0
H63 H 0.79802 0.83101 0.86179 0.0
H64 H 0.83423 0.86441 0.79665 0.0
H65 H 0.86509 0.79686 0.83055 0.0
C66 C 0.81357 0.83141 0.84833 0.0
C67 C 0.83183 0.81201 0.84887 0.0
C68 C 0.81428 0.85037 0.82953 0.0
C69 C 0.83401 0.85025 0.81163 0.0
C70 C 0.85241 0.83102 0.81187 0.0
C71 C 0.85138 0.81217 0.83076 0.0
H72 H 0.31562 0.35523 0.37437 0.0
H73 H 0.35229 0.37987 0.3057 0.0
H74 H 0.3793 0.31374 0.34526 0.0
C75 C 0.33099 0.35353 0.36082 0.0
C76 C 0.34772 0.33291 0.36272 0.0
C77 C 0.33248 0.37058 0.34029 0.0
C78 C 0.35168 0.36738 0.32209 0.0
C79 C 0.36865 0.34688 0.32371 0.0
C80 C 0.36686 0.33009 0.34441 0.0
H81 H 0.46841 0.9738 0.58169 0.0
H82 H 0.50826 0.906 0.55925 0.0
H83 H 0.44783 0.93492 0.51078 0.0
C84 C 0.47116 0.95807 0.5682 0.0
C85 C 0.45625 0.95653 0.54551 0.0
C86 C 0.48955 0.93954 0.57359 0.0
C87 C 0.49357 0.91984 0.55541 0.0
C88 C 0.47882 0.91796 0.53243 0.0
C89 C 0.45976 0.93618 0.52806 0.0
H90 H 0.19252 0.23276 0.69492 0.0
H91 H 0.25597 0.28196 0.67466 0.0
H92 H 0.20898 0.30264 0.738 0.0
C93 C 0.20429 0.24988 0.69843 0.0
C94 C 0.19853 0.26669 0.71884 0.0
C95 C 0.22483 0.25534 0.68218 0.0
C96 C 0.23997 0.27763 0.6869 0.0
C97 C 0.23428 0.29476 0.70691 0.0
C98 C 0.21356 0.28919 0.72276 0.0
H99 H 0.77047 0.1782 0.76627 0.0
H100 H 0.78806 0.24062 0.71664 0.0
H101 H 0.71696 0.19791 0.70596 0.0
C102 C 0.7651 0.19022 0.75034 0.0
C103 C 0.74173 0.18555 0.73694 0.0
C104 C 0.78187 0.20999 0.74306 0.0
C105 C 0.77492 0.22553 0.72245 0.0
C106 C 0.75142 0.22156 0.70908 0.0
C107 C 0.73491 0.20144 0.71643 0.0
H108 H 0.49016 0.5486 0.52718 0.0
H109 H 0.52772 0.48244 0.55695 0.0
H110 H 0.55571 0.51862 0.48916 0.0
C111 C 0.50512 0.53457 0.52596 0.0
C112 C 0.52269 0.53593 0.50593 0.0
C113 C 0.50676 0.51537 0.54451 0.0
C114 C 0.52628 0.49728 0.54273 0.0
C115 C 0.54402 0.49824 0.5228 0.0
C116 C 0.54206 0.51766 0.50451 0.0
H117 H 0.51187 0.45654 0.93819 0.0
H118 H 0.55841 0.52108 0.91619 0.0
H119 H 0.58195 0.47431 0.9797 0.0
C120 C 0.52914 0.46835 0.94067 0.0
C121 C 0.54633 0.46334 0.96091 0.0
C122 C 0.53349 0.48897 0.92426 0.0
C123 C 0.55529 0.50492 0.92857 0.0
C124 C 0.57306 0.49998 0.94859 0.0
C125 C 0.56831 0.47899 0.9646 0.0
H126 H 0.67775 0.25492 0.27541 0.0
H127 H 0.74624 0.21415 0.29292 0.0
H128 H 0.70208 0.19489 0.22414 0.0
C129 C 0.69121 0.24021 0.27034 0.0
C130 C 0.68731 0.22547 0.24766 0.0
C131 C 0.71255 0.23637 0.28649 0.0
C132 C 0.73027 0.21766 0.27988 0.0
C133 C 0.7266 0.20243 0.25747 0.0
C134 C 0.70516 0.20665 0.24135 0.0
H135 H 0.40695 0.05697 0.01673 0.0
H136 H 0.47155 0.08163 0.97281 0.0
H137 H 0.43106 0.01189 0.95174 0.0
C138 C 0.41965 0.05393 0.00086 0.0
C139 C 0.41669 0.03167 0.9852 0.0
C140 C 0.43895 0.07244 0.99612 0.0
C141 C 0.45605 0.06799 0.97614 0.0
C142 C 0.45329 0.04613 0.96026 0.0
C143 C 0.43329 0.02846 0.9645 0.0
Zn144 Zn 0.27806 0.83249 0.0033 0.0
Zn145 Zn 0.23555 0.86094 0.00479 0.0
O146 O 0.23439 0.83927 0.03796 0.0
O147 O 0.26683 0.81316 0.0342 0.0
O148 O 0.20384 0.88244 0.00729 0.0
O149 O 0.29949 0.86545 0.00762 0.0
O150 O 0.26444 0.88815 0.00424 0.0
C151 C 0.24754 0.82069 0.04628 0.0
C152 C 0.24548 0.82551 0.95824 0.0
O153 O 0.23122 0.84109 0.97015 0.0
O154 O 0.26672 0.81904 0.96814 0.0
C155 C 0.19279 0.89201 0.98778 0.0
O156 O 0.20188 0.88747 0.96485 0.0
C157 C 0.28873 0.88693 0.00635 0.0
Zn158 Zn 0.10556 0.4392 0.30886 0.0
Zn159 Zn 0.12207 0.48641 0.29437 0.0
O160 O 0.09843 0.49525 0.324 0.0
O161 O 0.08538 0.45709 0.33646 0.0
O162 O 0.13535 0.52038 0.28196 0.0
O163 O 0.14233 0.42977 0.31607 0.0
O164 O 0.15519 0.46828 0.30466 0.0
C165 C 0.08526 0.48132 0.33888 0.0
C166 C 0.09094 0.45069 0.25695 0.0
O167 O 0.10281 0.47169 0.26263 0.0
O168 O 0.08945 0.43313 0.27337 0.0
C169 C 0.14543 0.53713 0.29729 0.0
O170 O 0.14644 0.53246 0.322 0.0
C171 C 0.16029 0.44603 0.31277 0.0
Zn172 Zn 0.79848 0.59353 0.94912 0.0
Zn173 Zn 0.78911 0.61976 0.99331 0.0
O174 O 0.81768 0.59527 0.00432 0.0
O175 O 0.82511 0.57371 0.96852 0.0
O176 O 0.78221 0.64041 0.02533 0.0
O177 O 0.80752 0.62728 0.93221 0.0
O178 O 0.79995 0.64769 0.96849 0.0
C179 C 0.82969 0.57797 0.99222 0.0
C180 C 0.74681 0.58663 0.96634 0.0
O181 O 0.75428 0.60217 0.98428 0.0
O182 O 0.76204 0.57976 0.94905 0.0
C183 C 0.77805 0.63039 0.04695 0.0
O184 O 0.77825 0.60531 0.04885 0.0
C185 C 0.80657 0.64806 0.94512 0.0
Zn186 Zn 0.85451 0.00253 0.28375 0.0
Zn187 Zn 0.87295 0.00583 0.23659 0.0
O188 O 0.85045 0.0381 0.24069 0.0
O189 O 0.83369 0.0339 0.27881 0.0
O190 O 0.88886 0.01088 0.20181 0.0
O191 O 0.88982 0.00627 0.29956 0.0
O192 O 0.90513 0.00396 0.26049 0.0
C193 C 0.8359 0.0463 0.25829 0.0
C194 C 0.84121 0.95848 0.25104 0.0
O195 O 0.8525 0.97142 0.23389 0.0
O196 O 0.84009 0.96737 0.2738 0.0
C197 C 0.8967 0.99257 0.18777 0.0
O198 O 0.89359 0.96887 0.19545 0.0
C199 C 0.90867 0.00523 0.28478 0.0
Zn200 Zn 0.30481 0.10886 0.43711 0.0
Zn201 Zn 0.29246 0.12721 0.48429 0.0
O202 O 0.3211 0.10227 0.49275 0.0
O203 O 0.33179 0.08754 0.45463 0.0
O204 O 0.28329 0.14215 0.51883 0.0
O205 O 0.3136 0.14482 0.42624 0.0
O206 O 0.3036 0.15929 0.4646 0.0
C207 C 0.33482 0.08792 0.47886 0.0
C208 C 0.25279 0.09687 0.45046 0.0
O209 O 0.25947 0.10876 0.4712 0.0
O210 O 0.26858 0.09457 0.43247 0.0
C211 C 0.26091 0.15021 0.52306 0.0
O212 O 0.24328 0.14826 0.50469 0.0
C213 C 0.31145 0.16338 0.44201 0.0
Zn214 Zn 0.33433 0.50533 0.78322 0.0
Zn215 Zn 0.36422 0.50759 0.74232 0.0
O216 O 0.34326 0.54069 0.7393 0.0
O217 O 0.3157 0.53629 0.77051 0.0
O218 O 0.38798 0.50861 0.71216 0.0
O219 O 0.3653 0.50904 0.80697 0.0
O220 O 0.38977 0.50795 0.77314 0.0
C221 C 0.32403 0.54864 0.75161 0.0
C222 C 0.32823 0.46082 0.75083 0.0
O223 O 0.34352 0.47335 0.73666 0.0
O224 O 0.32191 0.47007 0.77236 0.0
C225 C 0.38007 0.50994 0.68896 0.0
O226 O 0.3553 0.51082 0.68406 0.0
C227 C 0.38741 0.50895 0.79745 0.0
Zn228 Zn 0.78495 0.33128 0.50071 0.0
Zn229 Zn 0.74223 0.35837 0.50434 0.0
O230 O 0.74167 0.33618 0.53718 0.0
O231 O 0.77794 0.31558 0.53474 0.0
O232 O 0.71108 0.38063 0.50708 0.0
O233 O 0.80649 0.36375 0.49915 0.0
O234 O 0.77135 0.38577 0.50346 0.0
C235 C 0.75762 0.32044 0.54656 0.0
C236 C 0.7494 0.32102 0.45873 0.0
O237 O 0.73644 0.33822 0.46996 0.0
O238 O 0.7706 0.31414 0.46837 0.0
C239 C 0.68845 0.37227 0.51098 0.0
O240 O 0.68441 0.34749 0.51345 0.0
C241 C 0.79559 0.38512 0.50111 0.0
Zn242 Zn 0.59172 0.93564 0.79819 0.0
Zn243 Zn 0.61274 0.98187 0.78629 0.0
O244 O 0.58831 0.99141 0.81509 0.0
O245 O 0.57148 0.954 0.82542 0.0
O246 O 0.62882 0.01548 0.77607 0.0
O247 O 0.62712 0.92307 0.80683 0.0
O248 O 0.64381 0.96074 0.79734 0.0
C249 C 0.57329 0.97811 0.82877 0.0
C250 C 0.58142 0.94969 0.74598 0.0
O251 O 0.59441 0.96966 0.75299 0.0
O252 O 0.57751 0.93188 0.76173 0.0
C253 C 0.63745 0.032 0.79248 0.0
O254 O 0.63561 0.02722 0.81707 0.0
C255 C 0.64655 0.93783 0.80487 0.0
Zn256 Zn 0.99305 0.29564 0.83714 0.0
Zn257 Zn -0.00076 0.25189 0.86236 0.0
O258 O 0.03111 0.25288 0.83918 0.0
O259 O 0.02553 0.28879 0.81838 0.0
O260 O 0.0032 0.22029 0.88394 0.0
O261 O 0.99459 0.31642 0.86994 0.0
O262 O 0.99861 0.28029 0.89062 0.0
C263 C 0.03863 0.26911 0.82274 0.0
C264 C 0.95111 0.25973 0.8284 0.0
O265 O 0.96469 0.24554 0.84276 0.0
O266 O 0.95893 0.28218 0.8233 0.0
C267 C 0.0037 0.19741 0.87514 0.0
O268 O 0.00202 0.19334 0.85018 0.0
C269 C 0.99686 0.30465 0.89087 0.0
Zn270 Zn 0.50685 0.77711 0.33655 0.0
Zn271 Zn 0.50728 0.73488 0.36571 0.0
O272 O 0.54142 0.73349 0.34578 0.0
O273 O 0.53879 0.76602 0.3194 0.0
O274 O 0.50843 0.70389 0.38848 0.0
O275 O 0.50886 0.79925 0.36904 0.0
O276 O 0.50503 0.76436 0.39208 0.0
C277 C 0.55051 0.74674 0.32759 0.0
C278 C 0.46269 0.74387 0.32756 0.0
O279 O 0.47372 0.7299 0.34416 0.0
O280 O 0.47281 0.76505 0.32126 0.0
C281 C 0.51136 0.68113 0.38005 0.0
O282 O 0.51355 0.67714 0.35521 0.0
C283 C 0.50666 0.78866 0.39058 0.0
Zn284 Zn 0.94369 0.80291 0.59131 0.0
Zn285 Zn 0.98842 0.78951 0.61422 0.0
O286 O 0.00031 0.81698 0.58905 0.0
O287 O 0.96403 0.82842 0.57062 0.0
O288 O 0.02046 0.77991 0.63367 0.0
O289 O 0.92958 0.81334 0.62563 0.0
O290 O 0.96601 0.80199 0.64366 0.0
C291 C 0.9882 0.83067 0.57301 0.0
C292 C 0.95596 0.74961 0.58326 0.0
O293 O 0.976 0.7559 0.59655 0.0
O294 O 0.93912 0.76612 0.57853 0.0
C295 C 0.04169 0.77478 0.62347 0.0
O296 O 0.04353 0.77555 0.59837 0.0
C297 C 0.94352 0.81075 0.64559 0.0
Zn298 Zn 0.43954 0.2958 0.09874 0.0
Zn299 Zn 0.48685 0.28482 0.11801 0.0
O300 O 0.49485 0.31324 0.09254 0.0
O301 O 0.45674 0.32254 0.07671 0.0
O302 O 0.52142 0.27675 0.13364 0.0
O303 O 0.42859 0.30571 0.13448 0.0
O304 O 0.46695 0.29652 0.14959 0.0
C305 C 0.48083 0.32634 0.0776 0.0
C306 C 0.45365 0.24347 0.08919 0.0
O307 O 0.4743 0.25099 0.10077 0.0
O308 O 0.43546 0.25889 0.08603 0.0
C309 C 0.5264 0.25462 0.14202 0.0
O310 O 0.5088 0.23627 0.13992 0.0
C311 C 0.44432 0.30429 0.15326 0.0
C312 C 0.19754 0.76125 0.82379 0.0
C313 C 0.21721 0.7636 0.80607 0.0
C314 C 0.20011 0.7725 0.84844 0.0
C315 C 0.22266 0.7869 0.85523 0.0
C316 C 0.24204 0.79032 0.83687 0.0
C317 C 0.23924 0.77828 0.8126 0.0
C318 C 0.17931 0.76786 0.86762 0.0
C319 C 0.2661 0.80599 0.84315 0.0
C320 C 0.22363 0.82985 0.91525 0.0
C321 C 0.23784 0.81517 0.93252 0.0
C322 C 0.21842 0.82092 0.88997 0.0
C323 C 0.22703 0.79648 0.88212 0.0
C324 C 0.24053 0.78122 0.89987 0.0
C325 C 0.24608 0.79091 0.9247 0.0
C326 C 0.20448 0.83796 0.87143 0.0
C327 C 0.24943 0.75477 0.89252 0.0
H328 H 0.18062 0.74965 0.81871 0.0
H329 H 0.25438 0.78008 0.79877 0.0
H330 H 0.1869 0.75613 0.88352 0.0
H331 H 0.17317 0.78628 0.8762 0.0
H332 H 0.16226 0.75772 0.85881 0.0
H333 H 0.27794 0.80909 0.82597 0.0
H334 H 0.26114 0.82494 0.85148 0.0
H335 H 0.27784 0.79606 0.85777 0.0
H336 H 0.21744 0.84871 0.9212 0.0
H337 H 0.2569 0.77944 0.9381 0.0
H338 H 0.18731 0.82776 0.86305 0.0
H339 H 0.21717 0.84275 0.8553 0.0
H340 H 0.19838 0.85609 0.88073 0.0
H341 H 0.23307 0.7429 0.88468 0.0
H342 H 0.25818 0.74473 0.90907 0.0
H343 H 0.26382 0.75619 0.87722 0.0
C344 C 0.0014 0.54313 0.45104 0.0
C345 C 0.9755 0.54094 0.4434 0.0
C346 C 0.02078 0.53533 0.43454 0.0
C347 C 0.01403 0.52525 0.40983 0.0
C348 C 0.98794 0.52373 0.40175 0.0
C349 C 0.96898 0.53152 0.41868 0.0
C350 C 0.04838 0.53707 0.44387 0.0
C351 C 0.98 0.51328 0.37546 0.0
C352 C 0.06363 0.5195 0.35783 0.0
C353 C 0.06875 0.49322 0.35833 0.0
C354 C 0.04629 0.53041 0.3749 0.0
C355 C 0.03398 0.51467 0.39298 0.0
C356 C 0.03978 0.48834 0.39418 0.0
C357 C 0.05702 0.47793 0.3768 0.0
C358 C 0.04049 0.55856 0.37305 0.0
C359 C 0.02724 0.47098 0.41336 0.0
H360 H 0.00647 0.55022 0.47023 0.0
H361 H 0.94898 0.53015 0.41263 0.0
H362 H 0.0561 0.5175 0.4455 0.0
H363 H 0.06024 0.54745 0.42984 0.0
H364 H 0.05055 0.54699 0.46288 0.0
H365 H 0.95908 0.51485 0.37157 0.0
H366 H 0.99047 0.5237 0.36039 0.0
H367 H 0.9851 0.49278 0.37378 0.0
H368 H 0.07262 0.53145 0.34362 0.0
H369 H 0.06101 0.45764 0.37747 0.0
H370 H 0.04316 0.5682 0.39211 0.0
H371 H 0.02015 0.5608 0.36701 0.0
H372 H 0.05284 0.56849 0.35906 0.0
H373 H 0.03007 0.47906 0.4331 0.0
H374 H 0.03495 0.4513 0.41278 0.0
H375 H 0.00627 0.46968 0.40934 0.0
C376 C 0.80471 0.77803 0.86886 0.0
C377 C 0.82884 0.78995 0.86627 0.0
C378 C 0.80179 0.75573 0.88322 0.0
C379 C 0.82356 0.74502 0.89524 0.0
C380 C 0.84787 0.75734 0.89334 0.0
C381 C 0.85023 0.77966 0.87883 0.0
C382 C 0.77555 0.74313 0.88474 0.0
C383 C 0.87148 0.74654 0.90603 0.0
C384 C 0.8107 0.69604 0.94674 0.0
C385 C 0.81241 0.67286 0.93281 0.0
C386 C 0.81493 0.7197 0.93494 0.0
C387 C 0.82096 0.72018 0.90859 0.0
C388 C 0.8233 0.69687 0.89458 0.0
C389 C 0.81901 0.6735 0.90685 0.0
C390 C 0.81231 0.74418 0.9505 0.0
C391 C 0.82974 0.69661 0.86644 0.0
H392 H 0.78817 0.78559 0.85883 0.0
H393 H 0.86888 0.78893 0.87705 0.0
H394 H 0.77558 0.72399 0.87508 0.0
H395 H 0.77059 0.74011 0.90508 0.0
H396 H 0.76037 0.75469 0.87555 0.0
H397 H 0.88864 0.75927 0.90407 0.0
H398 H 0.86822 0.74354 0.92675 0.0
H399 H 0.87554 0.72754 0.89727 0.0
H400 H 0.80569 0.69576 0.96682 0.0
H401 H 0.82046 0.65571 0.89594 0.0
H402 H 0.79603 0.75522 0.94274 0.0
H403 H 0.82984 0.75643 0.94896 0.0
H404 H 0.809 0.7405 0.97112 0.0
H405 H 0.81436 0.70602 0.85524 0.0
H406 H 0.83194 0.67686 0.85858 0.0
H407 H 0.84779 0.70769 0.86348 0.0
C408 C 0.04214 0.98807 0.3629 0.0
C409 C 0.03421 0.97822 0.38648 0.0
C410 C 0.02429 0.99339 0.34319 0.0
C411 C 0.99796 0.98791 0.34678 0.0
C412 C 0.98992 0.97702 0.37003 0.0
C413 C 0.008 0.97282 0.38971 0.0
C414 C 0.03348 0.00558 0.3189 0.0
C415 C 0.96205 0.97035 0.37445 0.0
C416 C 0.94297 0.02183 0.31467 0.0
C417 C 0.93447 0.00346 0.29634 0.0
C418 C 0.96513 0.01799 0.3297 0.0
C419 C 0.97837 0.9947 0.32701 0.0
C420 C 0.97052 0.97665 0.30757 0.0
C421 C 0.94877 0.98145 0.29215 0.0
C422 C 0.97335 0.03811 0.3496 0.0
C423 C 0.98364 0.9513 0.30453 0.0
H424 H 0.06231 0.99188 0.35983 0.0
H425 H 0.00134 0.96586 0.40791 0.0
H426 H 0.02698 0.99395 0.30184 0.0
H427 H 0.02503 0.02481 0.31699 0.0
H428 H 0.0547 0.00777 0.31867 0.0
H429 H 0.95934 0.95966 0.39248 0.0
H430 H 0.95085 0.98815 0.37555 0.0
H431 H 0.95398 0.95854 0.35814 0.0
H432 H 0.93176 0.03882 0.31784 0.0
H433 H 0.94185 0.96712 0.27816 0.0
H434 H 0.99441 0.04151 0.34933 0.0
H435 H 0.96856 0.03132 0.36901 0.0
H436 H 0.96369 0.0566 0.34646 0.0
H437 H 0.00477 0.95404 0.3048 0.0
H438 H 0.9776 0.94104 0.28643 0.0
H439 H 0.97878 0.93895 0.32094 0.0
C440 C 0.22859 0.21164 0.66152 0.0
C441 C 0.2299 0.23844 0.65962 0.0
C442 C 0.23326 0.19567 0.64019 0.0
C443 C 0.23951 0.20677 0.61646 0.0
C444 C 0.24085 0.23378 0.61442 0.0
C445 C 0.2359 0.24926 0.63595 0.0
C446 C 0.23155 0.16693 0.64303 0.0
C447 C 0.24746 0.24638 0.58945 0.0
C448 C 0.27492 0.1691 0.56581 0.0
C449 C 0.25517 0.16298 0.54786 0.0
C450 C 0.26998 0.18275 0.58858 0.0
C451 C 0.24466 0.1903 0.59361 0.0
C452 C 0.22451 0.18344 0.57599 0.0
C453 C 0.23002 0.16995 0.55328 0.0
C454 C 0.29199 0.18985 0.60684 0.0
C455 C 0.19722 0.19096 0.58079 0.0
H456 H 0.22419 0.20314 0.67979 0.0
H457 H 0.23644 0.26993 0.63416 0.0
H458 H 0.21718 0.15856 0.62907 0.0
H459 H 0.25026 0.15838 0.63863 0.0
H460 H 0.22612 0.16133 0.66269 0.0
H461 H 0.24809 0.26764 0.59119 0.0
H462 H 0.2664 0.23987 0.58298 0.0
H463 H 0.23311 0.24062 0.57427 0.0
H464 H 0.29441 0.16378 0.56179 0.0
H465 H 0.21462 0.16514 0.53961 0.0
H466 H 0.2877 0.18343 0.62651 0.0
H467 H 0.29464 0.21101 0.60782 0.0
H468 H 0.31029 0.18129 0.60087 0.0
H469 H 0.19131 0.18458 0.60003 0.0
H470 H 0.18352 0.18264 0.5661 0.0
H471 H 0.19583 0.21215 0.58064 0.0
C472 C 0.48105 0.53696 0.57858 0.0
C473 C 0.48817 0.51436 0.56581 0.0
C474 C 0.46343 0.53636 0.59857 0.0
C475 C 0.4527 0.51256 0.6061 0.0
C476 C 0.45985 0.48967 0.59338 0.0
C477 C 0.47746 0.49085 0.57338 0.0
C478 C 0.45635 0.56119 0.61168 0.0
C479 C 0.44884 0.46393 0.60084 0.0
C480 C 0.42502 0.50853 0.67294 0.0
C481 C 0.39863 0.51048 0.66773 0.0
C482 C 0.44279 0.50905 0.65307 0.0
C483 C 0.43402 0.51166 0.62735 0.0
C484 C 0.40742 0.5136 0.62194 0.0
C485 C 0.39005 0.51296 0.64218 0.0
C486 C 0.47099 0.50685 0.65963 0.0
C487 C 0.39731 0.51647 0.59477 0.0
H488 H 0.48951 0.55517 0.57313 0.0
H489 H 0.48259 0.47333 0.56342 0.0
H490 H 0.43535 0.56382 0.61 0.0
H491 H 0.46139 0.56055 0.63247 0.0
H492 H 0.46623 0.5781 0.60339 0.0
H493 H 0.45653 0.4479 0.5892 0.0
H494 H 0.4532 0.46047 0.62142 0.0
H495 H 0.42766 0.46375 0.59837 0.0
H496 H 0.43186 0.50656 0.6926 0.0
H497 H 0.36973 0.51449 0.63793 0.0
H498 H 0.48161 0.52414 0.65318 0.0
H499 H 0.47889 0.49008 0.64934 0.0
H500 H 0.47468 0.50471 0.68057 0.0
H501 H 0.40567 0.53408 0.58636 0.0
H502 H 0.37608 0.51759 0.59375 0.0
H503 H 0.4032 0.49999 0.58266 0.0
C504 C 0.75042 0.2642 0.68769 0.0
C505 C 0.74514 0.2377 0.68663 0.0
C506 C 0.7485 0.2791 0.66559 0.0
C507 C 0.74104 0.26723 0.64184 0.0
C508 C 0.73383 0.24087 0.64104 0.0
C509 C 0.73601 0.2264 0.66345 0.0
C510 C 0.75629 0.30713 0.66734 0.0
C511 C 0.72563 0.22751 0.61614 0.0
C512 C 0.72917 0.30874 0.5833 0.0
C513 C 0.75288 0.30745 0.5712 0.0
C514 C 0.72484 0.2957 0.60632 0.0
C515 C 0.74474 0.28123 0.61748 0.0
C516 C 0.76873 0.2801 0.60543 0.0
C517 C 0.77246 0.29312 0.58251 0.0
C518 C 0.69899 0.29723 0.61861 0.0
C519 C 0.79058 0.26508 0.61675 0.0
H520 H 0.75698 0.27315 0.70568 0.0
H521 H 0.73197 0.20593 0.66243 0.0
H522 H 0.77507 0.31 0.6581 0.0
H523 H 0.74218 0.31896 0.65694 0.0
H524 H 0.7581 0.31422 0.68756 0.0
H525 H 0.71694 0.20823 0.61936 0.0
H526 H 0.7116 0.23915 0.60539 0.0
H527 H 0.74256 0.22519 0.60387 0.0
H528 H 0.71392 0.3197 0.57467 0.0
H529 H 0.79091 0.29206 0.57345 0.0
H530 H 0.70122 0.30509 0.63849 0.0
H531 H 0.69028 0.27772 0.61994 0.0
H532 H 0.68559 0.30945 0.60766 0.0
H533 H 0.79547 0.27237 0.63644 0.0
H534 H 0.80808 0.26627 0.60503 0.0
H535 H 0.78473 0.2446 0.61828 0.0
C536 C 0.53063 0.9358 0.59924 0.0
C537 C 0.5043 0.94077 0.59834 0.0
C538 C 0.54457 0.9368 0.62262 0.0
C539 C 0.53192 0.94316 0.64557 0.0
C540 C 0.50541 0.9483 0.64477 0.0
C541 C 0.4919 0.94688 0.62121 0.0
C542 C 0.5728 0.93106 0.62279 0.0
C543 C 0.49126 0.95524 0.66884 0.0
C544 C 0.55905 0.92437 0.71054 0.0
C545 C 0.57018 0.94762 0.71964 0.0
C546 C 0.54722 0.92244 0.68611 0.0
C547 C 0.54626 0.94436 0.67053 0.0
C548 C 0.55789 0.96775 0.67937 0.0
C549 C 0.56983 0.96907 0.70378 0.0
C550 C 0.53525 0.8971 0.6772 0.0
C551 C 0.55705 0.99159 0.66335 0.0
H552 H 0.54041 0.9314 0.58161 0.0
H553 H 0.47149 0.9503 0.62075 0.0
H554 H 0.58407 0.94792 0.63039 0.0
H555 H 0.57673 0.91487 0.63573 0.0
H556 H 0.57969 0.92606 0.60333 0.0
H557 H 0.47074 0.95921 0.66483 0.0
H558 H 0.49238 0.93936 0.68268 0.0
H559 H 0.50039 0.97245 0.67831 0.0
H560 H 0.5594 0.90765 0.7226 0.0
H561 H 0.57835 0.98712 0.71067 0.0
H562 H 0.54274 0.89142 0.6582 0.0
H563 H 0.51421 0.89902 0.6748 0.0
H564 H 0.53901 0.88151 0.69095 0.0
H565 H 0.56494 0.98768 0.64411 0.0
H566 H 0.56802 0.00795 0.6725 0.0
H567 H 0.53686 0.99732 0.66039 0.0
C568 C 0.82944 0.21645 0.74269 0.0
C569 C 0.80689 0.21421 0.75666 0.0
C570 C 0.85316 0.22155 0.75515 0.0
C571 C 0.85427 0.22485 0.78222 0.0
C572 C 0.83162 0.22198 0.79648 0.0
C573 C 0.8082 0.21652 0.78352 0.0
C574 C 0.87691 0.22414 0.73928 0.0
C575 C 0.83197 0.22571 0.82531 0.0
C576 C 0.91963 0.22418 0.81625 0.0
C577 C 0.92602 0.25043 0.81763 0.0
C578 C 0.89621 0.21547 0.80495 0.0
C579 C 0.8787 0.23349 0.79523 0.0
C580 C 0.88482 0.26001 0.7972 0.0
C581 C 0.90844 0.26813 0.80818 0.0
C582 C 0.89043 0.18701 0.8029 0.0
C583 C 0.86654 0.27988 0.78741 0.0
H584 H 0.82848 0.21429 0.72193 0.0
H585 H 0.79073 0.21488 0.79432 0.0
H586 H 0.88431 0.24424 0.7404 0.0
H587 H 0.89222 0.2118 0.747 0.0
H588 H 0.87316 0.21884 0.71876 0.0
H589 H 0.8131 0.221 0.83373 0.0
H590 H 0.84672 0.21356 0.83433 0.0
H591 H 0.83717 0.24596 0.83032 0.0
H592 H 0.93316 0.21041 0.82345 0.0
H593 H 0.91311 0.28848 0.80941 0.0
H594 H 0.88842 0.18106 0.78237 0.0
H595 H 0.87194 0.18241 0.81204 0.0
H596 H 0.90568 0.17554 0.81209 0.0
H597 H 0.86353 0.27738 0.76635 0.0
H598 H 0.8737 0.29979 0.79148 0.0
H599 H 0.84759 0.27732 0.79637 0.0
C600 C 0.49176 0.8731 0.51998 0.0
C601 C 0.48359 0.8975 0.51274 0.0
C602 C 0.49684 0.85404 0.50148 0.0
C603 C 0.49266 0.8591 0.47513 0.0
C604 C 0.48398 0.88341 0.46766 0.0
C605 C 0.48016 0.90244 0.48645 0.0
C606 C 0.50686 0.82858 0.51011 0.0
C607 C 0.47863 0.88936 0.43978 0.0
C608 C 0.52388 0.82213 0.42124 0.0
C609 C 0.50423 0.80475 0.41375 0.0
C610 C 0.52092 0.83897 0.44225 0.0
C611 C 0.49732 0.83908 0.45519 0.0
C612 C 0.47752 0.82127 0.44775 0.0
C613 C 0.48143 0.80395 0.42735 0.0
C614 C 0.5428 0.85702 0.4502 0.0
C615 C 0.45177 0.82141 0.46041 0.0
H616 H 0.49408 0.86871 0.54013 0.0
H617 H 0.47463 0.92131 0.48035 0.0
H618 H 0.49293 0.81296 0.50465 0.0
H619 H 0.52502 0.82441 0.50031 0.0
H620 H 0.51042 0.82818 0.53121 0.0
H621 H 0.47024 0.90859 0.43735 0.0
H622 H 0.49663 0.88866 0.4289 0.0
H623 H 0.46517 0.87473 0.43106 0.0
H624 H 0.54151 0.82257 0.41061 0.0
H625 H 0.4662 0.79058 0.42121 0.0
H626 H 0.54643 0.85623 0.47125 0.0
H627 H 0.53772 0.87701 0.44571 0.0
H628 H 0.56077 0.85242 0.44021 0.0
H629 H 0.45416 0.81962 0.4815 0.0
H630 H 0.43879 0.80564 0.45305 0.0
H631 H 0.44243 0.83997 0.45687 0.0
C632 C 0.17783 0.2669 0.76193 0.0
C633 C 0.17614 0.26159 0.73541 0.0
C634 C 0.15616 0.26503 0.77732 0.0
C635 C 0.1322 0.25748 0.76599 0.0
C636 C 0.13066 0.25062 0.73955 0.0
C637 C 0.1526 0.25287 0.72455 0.0
C638 C 0.15864 0.27255 0.80543 0.0
C639 C 0.1055 0.24235 0.72674 0.0
C640 C 0.07584 0.24242 0.8091 0.0
C641 C 0.06277 0.26565 0.80866 0.0
C642 C 0.09849 0.23932 0.79525 0.0
C643 C 0.10833 0.26 0.7809 0.0
C644 C 0.09533 0.28352 0.78065 0.0
C645 C 0.07274 0.28599 0.7944 0.0
C646 C 0.11176 0.21391 0.79579 0.0
C647 C 0.10528 0.30616 0.76582 0.0
H648 H 0.19606 0.27314 0.77058 0.0
H649 H 0.15101 0.24889 0.70407 0.0
H650 H 0.14858 0.29079 0.80885 0.0
H651 H 0.14944 0.25779 0.81744 0.0
H652 H 0.17897 0.27525 0.81189 0.0
H653 H 0.10811 0.23448 0.70702 0.0
H654 H 0.09563 0.2276 0.73827 0.0
H655 H 0.09274 0.25904 0.72551 0.0
H656 H 0.06824 0.22659 0.82001 0.0
H657 H 0.06293 0.30409 0.79404 0.0
H658 H 0.13175 0.21668 0.80317 0.0
H659 H 0.11277 0.2058 0.77599 0.0
H660 H 0.10175 0.19977 0.80797 0.0
H661 H 0.12502 0.31151 0.77258 0.0
H662 H 0.09305 0.32322 0.76788 0.0
H663 H 0.10621 0.30096 0.74511 0.0
C664 C 0.54313 0.56996 0.47913 0.0
C665 C 0.52097 0.55665 0.48668 0.0
C666 C 0.54173 0.58992 0.46143 0.0
C667 C 0.51759 0.59675 0.45099 0.0
C668 C 0.49517 0.58325 0.45835 0.0
C669 C 0.49714 0.56338 0.4761 0.0
C670 C 0.56606 0.6039 0.45414 0.0
C671 C 0.46909 0.58988 0.44759 0.0
C672 C 0.51078 0.66389 0.42469 0.0
C673 C 0.51266 0.65947 0.39813 0.0
C674 C 0.51229 0.64366 0.44206 0.0
C675 C 0.51574 0.61834 0.4327 0.0
C676 C 0.51755 0.61371 0.40593 0.0
C677 C 0.516 0.63431 0.38897 0.0
C678 C 0.51027 0.64941 0.47047 0.0
C679 C 0.52121 0.58698 0.3952 0.0
H680 H 0.56157 0.5651 0.48746 0.0
H681 H 0.47997 0.55296 0.48157 0.0
H682 H 0.56832 0.60287 0.43301 0.0
H683 H 0.56498 0.62448 0.45969 0.0
H684 H 0.58337 0.59588 0.46354 0.0
H685 H 0.45358 0.57731 0.45499 0.0
H686 H 0.46482 0.61009 0.45258 0.0
H687 H 0.46891 0.58815 0.42631 0.0
H688 H 0.5082 0.68323 0.43199 0.0
H689 H 0.51746 0.63067 0.3685 0.0
H690 H 0.52791 0.64334 0.48076 0.0
H691 H 0.49395 0.63834 0.47837 0.0
H692 H 0.5075 0.67012 0.47464 0.0
H693 H 0.53922 0.57907 0.40315 0.0
H694 H 0.52203 0.58654 0.37389 0.0
H695 H 0.50525 0.57412 0.40107 0.0
C696 C 0.88333 0.85059 0.78123 0.0
C697 C 0.8705 0.82882 0.7904 0.0
C698 C 0.89795 0.84914 0.75896 0.0
C699 C 0.89956 0.82541 0.74552 0.0
C700 C 0.88753 0.80318 0.75532 0.0
C701 C 0.87316 0.80516 0.77764 0.0
C702 C 0.91074 0.87319 0.74922 0.0
C703 C 0.88869 0.77753 0.74148 0.0
C704 C 0.90758 0.82413 0.67341 0.0
C705 C 0.93311 0.81666 0.67122 0.0
C706 C 0.89671 0.82782 0.69752 0.0
C707 C 0.91177 0.8241 0.72004 0.0
C708 C 0.93782 0.81751 0.71803 0.0
C709 C 0.94818 0.8138 0.69362 0.0
C710 C 0.86882 0.8348 0.69888 0.0
C711 C 0.95448 0.81359 0.74165 0.0
H712 H 0.88147 0.86887 0.79119 0.0
H713 H 0.86297 0.78834 0.78441 0.0
H714 H 0.93107 0.86963 0.74483 0.0
H715 H 0.90107 0.87893 0.73108 0.0
H716 H 0.90999 0.88942 0.76328 0.0
H717 H 0.88001 0.76176 0.75267 0.0
H718 H 0.87829 0.77845 0.7227 0.0
H719 H 0.90885 0.77279 0.7375 0.0
H720 H 0.8958 0.82649 0.65624 0.0
H721 H 0.96797 0.80816 0.69212 0.0
H722 H 0.86674 0.85229 0.71103 0.0
H723 H 0.8578 0.81908 0.70794 0.0
H724 H 0.86013 0.83825 0.67961 0.0
H725 H 0.95336 0.83031 0.75502 0.0
H726 H 0.97488 0.81075 0.73685 0.0
H727 H 0.94745 0.79651 0.75199 0.0
C728 C 0.05814 0.94078 0.49324 0.0
C729 C 0.05898 0.93323 0.46729 0.0
C730 C 0.0493 0.92378 0.51182 0.0
C731 C 0.04121 0.89863 0.50424 0.0
C732 C 0.04329 0.89051 0.47829 0.0
C733 C 0.05207 0.90795 0.46009 0.0
C734 C 0.04725 0.93321 0.53927 0.0
C735 C 0.0351 0.86376 0.4695 0.0
C736 C 0.02899 0.8483 0.55482 0.0
C737 C 0.00219 0.84879 0.55647 0.0
C738 C 0.04209 0.86456 0.53806 0.0
C739 C 0.02805 0.88178 0.52279 0.0
C740 C 0.00108 0.88271 0.52479 0.0
C741 C 0.9885 0.86618 0.54151 0.0
C742 C 0.07085 0.86301 0.53634 0.0
C743 C 0.98542 0.90097 0.50899 0.0
H744 H 0.06325 0.96038 0.49885 0.0
H745 H 0.05303 0.90198 0.44008 0.0
H746 H 0.02674 0.93484 0.54411 0.0
H747 H 0.05584 0.91933 0.55267 0.0
H748 H 0.05686 0.95224 0.54256 0.0
H749 H 0.04039 0.85963 0.44932 0.0
H750 H 0.04394 0.8493 0.48208 0.0
H751 H 0.01399 0.86146 0.47094 0.0
H752 H 0.0397 0.83487 0.56626 0.0
H753 H 0.96782 0.86681 0.54275 0.0
H754 H 0.07992 0.88216 0.54021 0.0
H755 H 0.07601 0.85704 0.51659 0.0
H756 H 0.07903 0.84918 0.5501 0.0
H757 H 0.99242 0.92098 0.51258 0.0
H758 H 0.96469 0.89981 0.51336 0.0
H759 H 0.98766 0.89663 0.48823 0.0
C760 C 0.15581 0.72222 0.71253 0.0
C761 C 0.17078 0.74268 0.72297 0.0
C762 C 0.1352 0.72661 0.69548 0.0
C763 C 0.12946 0.75205 0.68871 0.0
C764 C 0.14473 0.77274 0.6989 0.0
C765 C 0.16519 0.7678 0.71592 0.0
C766 C 0.11928 0.70406 0.6851 0.0
C767 C 0.13928 0.80014 0.69207 0.0
C768 C 0.08805 0.76384 0.62919 0.0
C769 C 0.06412 0.76838 0.63996 0.0
C770 C 0.10947 0.75827 0.64479 0.0
C771 C 0.10686 0.75717 0.67177 0.0
C772 C 0.08272 0.76147 0.68271 0.0
C773 C 0.06167 0.76703 0.66669 0.0
C774 C 0.13493 0.75381 0.63245 0.0
C775 C 0.07915 0.76043 0.71138 0.0
H776 H 0.15985 0.70279 0.71814 0.0
H777 H 0.17692 0.78365 0.72366 0.0
H778 H 0.09928 0.70559 0.69166 0.0
H779 H 0.11859 0.70418 0.66379 0.0
H780 H 0.1269 0.68542 0.6914 0.0
H781 H 0.15348 0.81397 0.70099 0.0
H782 H 0.13943 0.80231 0.67092 0.0
H783 H 0.11989 0.80522 0.69852 0.0
H784 H 0.09012 0.76482 0.60857 0.0
H785 H 0.04326 0.77044 0.67522 0.0
H786 H 0.14213 0.7347 0.6377 0.0
H787 H 0.14929 0.76833 0.63972 0.0
H788 H 0.13366 0.75485 0.61117 0.0
H789 H 0.08494 0.74148 0.7186 0.0
H790 H 0.05899 0.76369 0.7168 0.0
H791 H 0.09165 0.77517 0.72127 0.0
C792 C 0.93351 0.60339 0.53385 0.0
C793 C 0.9394 0.60205 0.50771 0.0
C794 C 0.93574 0.6267 0.54775 0.0
C795 C 0.94417 0.6491 0.53521 0.0
C796 C 0.95004 0.64788 0.50882 0.0
C797 C 0.94745 0.62442 0.49538 0.0
C798 C 0.92917 0.62735 0.57584 0.0
C799 C 0.95906 0.67137 0.49475 0.0
C800 C 0.92902 0.71535 0.56104 0.0
C801 C 0.95251 0.7232 0.57261 0.0
C802 C 0.92578 0.69093 0.54956 0.0
C803 C 0.94661 0.67402 0.54946 0.0
C804 C 0.97018 0.68154 0.56165 0.0
C805 C 0.97282 0.70602 0.57319 0.0
C806 C 0.90028 0.68351 0.53695 0.0
C807 C 0.99286 0.66404 0.56177 0.0
H808 H 0.92754 0.58613 0.54356 0.0
H809 H 0.95159 0.62363 0.47508 0.0
H810 H 0.94617 0.63383 0.58759 0.0
H811 H 0.91385 0.64135 0.57924 0.0
H812 H 0.9226 0.6083 0.58267 0.0
H813 H 0.96329 0.66705 0.47433 0.0
H814 H 0.94421 0.68624 0.49539 0.0
H815 H 0.97663 0.67966 0.50433 0.0
H816 H 0.91314 0.72841 0.56069 0.0
H817 H 0.99104 0.71193 0.58208 0.0
H818 H 0.89318 0.66494 0.54442 0.0
H819 H 0.90262 0.68089 0.51594 0.0
H820 H 0.88553 0.69818 0.54019 0.0
H821 H 0.98736 0.64513 0.56963 0.0
H822 H 0.00937 0.67218 0.5733 0.0
H823 H -0.00089 0.66064 0.54179 0.0
C824 C 0.75112 0.83538 0.22594 0.0
C825 C 0.76449 0.81249 0.22333 0.0
C826 C 0.7642 0.8591 0.22854 0.0
C827 C 0.79134 0.85994 0.22881 0.0
C828 C 0.80496 0.83692 0.22574 0.0
C829 C 0.79135 0.81346 0.22289 0.0
C830 C 0.74896 0.88321 0.2315 0.0
C831 C 0.8339 0.837 0.22625 0.0
C832 C 0.82477 0.92467 0.21937 0.0
C833 C 0.82942 0.93291 0.24488 0.0
C834 C 0.81265 0.90079 0.21375 0.0
C835 C 0.80536 0.88471 0.23411 0.0
C836 C 0.81062 0.89269 0.25984 0.0
C837 C 0.82242 0.91669 0.2649 0.0
C838 C 0.80713 0.893 0.18608 0.0
C839 C 0.80345 0.876 0.28211 0.0
H840 H 0.73034 0.83472 0.22586 0.0
H841 H 0.80173 0.79577 0.22096 0.0
H842 H 0.75285 0.89202 0.25079 0.0
H843 H 0.7549 0.89745 0.2171 0.0
H844 H 0.72799 0.87945 0.2292 0.0
H845 H 0.84157 0.81768 0.22217 0.0
H846 H 0.84145 0.85054 0.21193 0.0
H847 H 0.84126 0.84371 0.24543 0.0
H848 H 0.83011 0.93708 0.20382 0.0
H849 H 0.82616 0.92275 0.28468 0.0
H850 H 0.78612 0.89086 0.1827 0.0
H851 H 0.81559 0.87411 0.1818 0.0
H852 H 0.81482 0.90724 0.17246 0.0
H853 H 0.78234 0.87313 0.28236 0.0
H854 H 0.80999 0.88448 0.30092 0.0
H855 H 0.81196 0.8568 0.27985 0.0
C856 C 0.73416 0.1568 0.24411 0.0
C857 C 0.74414 0.18093 0.25207 0.0
C858 C 0.75006 0.13556 0.24182 0.0
C859 C 0.77657 0.13843 0.24781 0.0
C860 C 0.787 0.16298 0.25457 0.0
C861 C 0.77066 0.18394 0.25659 0.0
C862 C 0.73817 0.10972 0.2345 0.0
C863 C 0.81517 0.16686 0.26107 0.0
C864 C 0.80812 0.08031 0.27618 0.0
C865 C 0.82143 0.07029 0.25525 0.0
C866 C 0.79382 0.1026 0.27399 0.0
C867 C 0.79261 0.11529 0.25023 0.0
C868 C 0.80616 0.10552 0.22903 0.0
C869 C 0.8205 0.08314 0.2318 0.0
C870 C 0.77979 0.11243 0.29714 0.0
C871 C 0.80523 0.11853 0.20338 0.0
H872 H 0.71368 0.15418 0.24084 0.0
H873 H 0.77859 0.20261 0.26232 0.0
H874 H 0.74946 0.10017 0.21942 0.0
H875 H 0.73836 0.09719 0.2515 0.0
H876 H 0.71804 0.11125 0.22739 0.0
H877 H 0.82076 0.18749 0.263 0.0
H878 H 0.81975 0.15745 0.2795 0.0
H879 H 0.82699 0.15782 0.24611 0.0
H880 H 0.8088 0.07068 0.29444 0.0
H881 H 0.83071 0.07555 0.21554 0.0
H882 H 0.75887 0.11248 0.29283 0.0
H883 H 0.78597 0.1325 0.30178 0.0
H884 H 0.78318 0.10063 0.31439 0.0
H885 H 0.7852 0.11841 0.19576 0.0
H886 H 0.81746 0.10902 0.18903 0.0
H887 H 0.81159 0.13889 0.20569 0.0
C888 C 0.37293 0.01799 0.00073 0.0
C889 C 0.39668 0.01154 0.99041 0.0
C890 C 0.35411 -0.00095 0.00541 0.0
C891 C 0.35864 0.97318 0.99862 0.0
C892 C 0.3824 0.96652 0.9881 0.0
C893 C 0.40128 0.98559 0.98479 0.0
C894 C 0.32935 0.00674 0.01756 0.0
C895 C 0.38781 0.93923 0.97998 0.0
C896 C 0.32277 0.91595 0.02546 0.0
C897 C 0.30464 0.91049 0.00581 0.0
C898 C 0.33939 0.93739 0.02417 0.0
C899 C 0.33859 0.9529 0.00212 0.0
C900 C 0.31998 0.94757 0.98239 0.0
C901 C 0.30285 0.92666 0.98475 0.0
C902 C 0.35824 0.94302 0.04607 0.0
C903 C 0.31911 0.963 0.95814 0.0
H904 H 0.36881 0.03787 0.00491 0.0
H905 H 0.41974 0.98 0.97772 0.0
H906 H 0.31311 0.00335 0.00375 0.0
H907 H 0.32562 0.99478 0.03455 0.0
H908 H 0.32966 0.02726 0.0237 0.0
H909 H 0.40663 0.93754 0.97061 0.0
H910 H 0.38769 0.92668 0.99693 0.0
H911 H 0.37258 0.93188 0.96638 0.0
H912 H 0.32395 0.90339 0.0418 0.0
H913 H 0.28889 0.92216 0.96949 0.0
H914 H 0.35794 0.96364 0.0517 0.0
H915 H 0.37794 0.93886 0.03989 0.0
H916 H 0.35406 0.93136 0.06318 0.0
H917 H 0.31753 0.98371 0.96286 0.0
H918 H 0.3028 0.95705 0.94513 0.0
H919 H 0.33722 0.96059 0.94767 0.0
C920 C 0.29945 0.3895 0.31129 0.0
C921 C 0.31133 0.38865 0.33569 0.0
C922 C 0.27653 0.40255 0.30749 0.0
C923 C 0.26517 0.41499 0.32861 0.0
C924 C 0.27799 0.41578 0.35287 0.0
C925 C 0.30094 0.40254 0.35614 0.0
C926 C 0.26348 0.40125 0.28129 0.0
C927 C 0.26661 0.42909 0.3758 0.0
C928 C 0.20758 0.45626 0.31413 0.0
C929 C 0.1872 0.43881 0.31796 0.0
C930 C 0.23315 0.44907 0.31814 0.0
C931 C 0.23838 0.42387 0.32606 0.0
C932 C 0.21788 0.40639 0.33045 0.0
C933 C 0.1926 0.41408 0.32638 0.0
C934 C 0.25454 0.46822 0.31339 0.0
C935 C 0.22266 0.3793 0.3389 0.0
H936 H 0.30713 0.37855 0.29545 0.0
H937 H 0.31022 0.40218 0.37497 0.0
H938 H 0.24628 0.38842 0.28193 0.0
H939 H 0.25693 0.42048 0.27564 0.0
H940 H 0.27629 0.3938 0.26626 0.0
H941 H 0.28064 0.43132 0.39209 0.0
H942 H 0.25967 0.4483 0.37056 0.0
H943 H 0.24986 0.4177 0.38234 0.0
H944 H 0.2036 0.47545 0.30772 0.0
H945 H 0.17702 0.40048 0.32949 0.0
H946 H 0.26602 0.46151 0.297 0.0
H947 H 0.26767 0.46984 0.33043 0.0
H948 H 0.24725 0.48755 0.30902 0.0
H949 H 0.23352 0.36894 0.32403 0.0
H950 H 0.20458 0.36836 0.34226 0.0
H951 H 0.23448 0.37958 0.35688 0.0
C952 C 0.11145 0.03287 0.43264 0.0
C953 C 0.11348 0.00652 0.43706 0.0
C954 C 0.13296 0.04944 0.43516 0.0
C955 C 0.15698 0.03942 0.44241 0.0
C956 C 0.15905 0.01295 0.44738 0.0
C957 C 0.1373 0.99681 0.44455 0.0
C958 C 0.13005 0.07757 0.42968 0.0
C959 C 0.18435 0.00156 0.45521 0.0
C960 C 0.21905 0.07282 0.42439 0.0
C961 C 0.2271 0.08434 0.44785 0.0
C962 C 0.19579 0.05891 0.42214 0.0
C963 C 0.18027 0.05633 0.44392 0.0
C964 C 0.18781 0.06863 0.46743 0.0
C965 C 0.21112 0.08257 0.4691 0.0
C966 C 0.18825 0.04627 0.39667 0.0
C967 C 0.17175 0.06624 0.49107 0.0
H968 H 0.09302 0.04057 0.42726 0.0
H969 H 0.13908 0.97644 0.44768 0.0
H970 H 0.13677 0.08937 0.44656 0.0
H971 H 0.14219 0.08297 0.41333 0.0
H972 H 0.1099 0.08244 0.42495 0.0
H973 H 0.18247 0.98081 0.45945 0.0
H974 H 0.19828 0.00398 0.43961 0.0
H975 H 0.19248 0.01179 0.47251 0.0
H976 H 0.23116 0.07424 0.40781 0.0
H977 H 0.21716 0.09144 0.48729 0.0
H978 H 0.16857 0.0517 0.3908 0.0
H979 H 0.18815 0.02511 0.39857 0.0
H980 H 0.20156 0.05158 0.38118 0.0
H981 H 0.1517 0.07161 0.4867 0.0
H982 H 0.17934 0.07849 0.50732 0.0
H983 H 0.17127 0.046 0.49726 0.0
C984 C 0.69843 0.16634 0.74626 0.0
C985 C 0.72496 0.16353 0.74404 0.0
C986 C 0.68267 0.14573 0.75375 0.0
C987 C 0.69373 0.12178 0.75903 0.0
C988 C 0.72044 0.11876 0.75644 0.0
C989 C 0.7357 0.13965 0.74896 0.0
C990 C 0.65426 0.14965 0.75633 0.0
C991 C 0.73296 0.09349 0.7617 0.0
C992 C 0.66065 0.07378 0.80193 0.0
C993 C 0.65045 0.05581 0.7839 0.0
C994 C 0.67416 0.09574 0.79406 0.0
C995 C 0.67757 0.09981 0.76753 0.0
C996 C 0.66676 0.08209 0.74921 0.0
C997 C 0.65333 0.06031 0.75761 0.0
C998 C 0.68537 0.11424 0.81417 0.0
C999 C 0.66998 0.08577 0.72075 0.0
H1000 H 0.69007 0.18481 0.74265 0.0
H1001 H 0.75613 0.13725 0.74683 0.0
H1002 H 0.64331 0.13553 0.74397 0.0
H1003 H 0.64865 0.14632 0.77644 0.0
H1004 H 0.64857 0.16927 0.75094 0.0
H1005 H 0.75394 0.09426 0.75853 0.0
H1006 H 0.7297 0.08794 0.78186 0.0
H1007 H 0.72418 0.07817 0.74909 0.0
H1008 H 0.65845 0.07053 0.82227 0.0
H1009 H 0.64544 0.04659 0.74352 0.0
H1010 H 0.67903 0.13399 0.81031 0.0
H1011 H 0.7066 0.11445 0.81332 0.0
H1012 H 0.67977 0.10911 0.83392 0.0
H1013 H 0.66341 0.10503 0.71521 0.0
H1014 H 0.65916 0.07105 0.70897 0.0
H1015 H 0.69057 0.08477 0.71606 0.0
C1016 C 0.44536 0.00269 0.54126 0.0
C1017 C 0.43772 0.97677 0.53941 0.0
C1018 C 0.42878 0.02202 0.53345 0.0
C1019 C 0.40397 0.01521 0.52373 0.0
C1020 C 0.39582 0.98913 0.52277 0.0
C1021 C 0.41286 0.97019 0.53051 0.0
C1022 C 0.43821 0.0496 0.53457 0.0
C1023 C 0.36939 0.98116 0.51278 0.0
C1024 C 0.35312 0.06589 0.51729 0.0
C1025 C 0.35361 0.07072 0.49088 0.0
C1026 C 0.36966 0.0481 0.52841 0.0
C1027 C 0.38721 0.03509 0.51276 0.0
C1028 C 0.3883 0.04046 0.48626 0.0
C1029 C 0.37143 0.05811 0.47563 0.0
C1030 C 0.36789 0.04273 0.55671 0.0
C1031 C 0.40698 0.02717 0.46901 0.0
H1032 H 0.46466 0.00778 0.54793 0.0
H1033 H 0.40686 0.95016 0.52937 0.0
H1034 H 0.43976 0.05693 0.51478 0.0
H1035 H 0.42434 0.06175 0.54472 0.0
H1036 H 0.45724 0.05185 0.54444 0.0
H1037 H 0.36536 0.96034 0.51513 0.0
H1038 H 0.35459 0.99213 0.52294 0.0
H1039 H 0.36754 0.9856 0.49207 0.0
H1040 H 0.33935 0.0755 0.52918 0.0
H1041 H 0.37206 0.06186 0.45524 0.0
H1042 H 0.38695 0.04552 0.56633 0.0
H1043 H 0.36186 0.02244 0.55935 0.0
H1044 H 0.354 0.05527 0.56643 0.0
H1045 H 0.42683 0.02997 0.47678 0.0
H1046 H 0.40617 0.03436 0.44906 0.0
H1047 H 0.40272 0.00623 0.46838 0.0
C1048 C 0.57091 0.46792 0.49746 0.0
C1049 C 0.56475 0.47911 0.52119 0.0
C1050 C 0.59068 0.45017 0.49559 0.0
C1051 C 0.60466 0.44339 0.51798 0.0
C1052 C 0.59843 0.45446 0.54202 0.0
C1053 C 0.57857 0.47218 0.54333 0.0
C1054 C 0.59667 0.43874 0.46961 0.0
C1055 C 0.61294 0.44782 0.56633 0.0
C1056 C 0.64191 0.3814 0.51708 0.0
C1057 C 0.66696 0.39039 0.51276 0.0
C1058 C 0.62145 0.3984 0.51882 0.0
C1059 C 0.62613 0.42507 0.51619 0.0
C1060 C 0.65135 0.43427 0.51184 0.0
C1061 C 0.67143 0.41685 0.51017 0.0
C1062 C 0.59483 0.38784 0.52348 0.0
C1063 C 0.65715 0.46255 0.50893 0.0
H1064 H 0.5601 0.47291 0.48032 0.0
H1065 H 0.57416 0.48097 0.56168 0.0
H1066 H 0.61678 0.44354 0.46476 0.0
H1067 H 0.59483 0.41752 0.47009 0.0
H1068 H 0.5838 0.44576 0.45411 0.0
H1069 H 0.60537 0.45767 0.58358 0.0
H1070 H 0.61189 0.42681 0.56925 0.0
H1071 H 0.63349 0.45328 0.56462 0.0
H1072 H 0.63823 0.36101 0.51911 0.0
H1073 H 0.69069 0.42404 0.50684 0.0
H1074 H 0.58162 0.39321 0.50756 0.0
H1075 H 0.58737 0.39634 0.54144 0.0
H1076 H 0.59436 0.36663 0.52505 0.0
H1077 H 0.6458 0.47004 0.49254 0.0
H1078 H 0.67779 0.46662 0.50566 0.0
H1079 H 0.65146 0.47325 0.52643 0.0
C1080 C 0.69621 0.2503 0.32911 0.0
C1081 C 0.71569 0.25099 0.31103 0.0
C1082 C 0.69957 0.26257 0.35321 0.0
C1083 C 0.72274 0.27629 0.35907 0.0
C1084 C 0.74207 0.27783 0.34043 0.0
C1085 C 0.73843 0.26485 0.31673 0.0
C1086 C 0.67878 0.25995 0.37276 0.0
C1087 C 0.76683 0.29269 0.34574 0.0
C1088 C 0.72649 0.32322 0.41604 0.0
C1089 C 0.74037 0.30915 0.43409 0.0
C1090 C 0.72033 0.31272 0.39153 0.0
C1091 C 0.72766 0.28739 0.38531 0.0
C1092 C 0.74068 0.27278 0.40394 0.0
C1093 C 0.74717 0.28396 0.42795 0.0
C1094 C 0.70689 0.32905 0.37198 0.0
C1095 C 0.74825 0.24548 0.39835 0.0
H1096 H 0.67869 0.23938 0.32469 0.0
H1097 H 0.75339 0.26548 0.30261 0.0
H1098 H 0.68608 0.24908 0.38942 0.0
H1099 H 0.67332 0.27911 0.38011 0.0
H1100 H 0.66136 0.24985 0.3647 0.0
H1101 H 0.77884 0.29396 0.32844 0.0
H1102 H 0.76277 0.3124 0.35267 0.0
H1103 H 0.77803 0.28328 0.36112 0.0
H1104 H 0.72139 0.34277 0.42069 0.0
H1105 H 0.75771 0.27297 0.44198 0.0
H1106 H 0.68932 0.319 0.36432 0.0
H1107 H 0.71962 0.33232 0.35552 0.0
H1108 H 0.70152 0.34795 0.38016 0.0
H1109 H 0.73133 0.23394 0.3913 0.0
H1110 H 0.75656 0.23615 0.41554 0.0
H1111 H 0.76261 0.24516 0.38296 0.0
C1112 C 0.4633 0.03369 0.91505 0.0
C1113 C 0.47191 0.04098 0.93985 0.0
C1114 C 0.48062 0.02612 0.8963 0.0
C1115 C 0.50712 0.02555 0.90267 0.0
C1116 C 0.51601 0.03391 0.92738 0.0
C1117 C 0.49827 0.04164 0.94567 0.0
C1118 C 0.47043 0.01767 0.87005 0.0
C1119 C 0.54409 0.03336 0.93495 0.0
C1120 C 0.54471 0.97578 0.86648 0.0
C1121 C 0.5574 0.99067 0.84834 0.0
C1122 C 0.52873 0.98703 0.88455 0.0
C1123 C 0.52511 0.01384 0.88435 0.0
C1124 C 0.53809 0.02908 0.86633 0.0
C1125 C 0.55423 0.01732 0.8486 0.0
C1126 C 0.51545 0.97014 0.90367 0.0
C1127 C 0.5345 0.0577 0.86545 0.0
H1128 H 0.44292 0.03348 0.91047 0.0
H1129 H 0.50492 0.04711 0.96491 0.0
H1130 H 0.48127 0.02747 0.85484 0.0
H1131 H 0.47306 0.99675 0.86737 0.0
H1132 H 0.44974 0.02172 0.86736 0.0
H1133 H 0.54814 0.04277 0.95396 0.0
H1134 H 0.55028 0.01317 0.93582 0.0
H1135 H 0.55587 0.04302 0.92036 0.0
H1136 H 0.54719 0.9552 0.86655 0.0
H1137 H 0.56393 0.02895 0.83459 0.0
H1138 H 0.49437 0.97105 0.90077 0.0
H1139 H 0.52002 0.97711 0.92355 0.0
H1140 H 0.52111 0.94978 0.90192 0.0
H1141 H 0.51413 0.06173 0.86088 0.0
H1142 H 0.54666 0.06695 0.85086 0.0
H1143 H 0.53916 0.06665 0.88452 0.0
C1144 C 0.31752 0.30196 0.38302 0.0
C1145 C 0.34257 0.31189 0.38089 0.0
C1146 C 0.31264 0.2794 0.39643 0.0
C1147 C 0.33332 0.26641 0.40795 0.0
C1148 C 0.35842 0.27721 0.40734 0.0
C1149 C 0.36277 0.29982 0.39372 0.0
C1150 C 0.28559 0.2685 0.39657 0.0
C1151 C 0.38092 0.26404 0.41964 0.0
C1152 C 0.31653 0.21072 0.45112 0.0
C1153 C 0.31791 0.18978 0.4339 0.0
C1154 C 0.32211 0.23581 0.4432 0.0
C1155 C 0.32908 0.24 0.41748 0.0
C1156 C 0.33087 0.21892 0.40016 0.0
C1157 C 0.32532 0.19412 0.40858 0.0
C1158 C 0.32014 0.25786 0.46219 0.0
C1159 C 0.33814 0.22259 0.37251 0.0
H1160 H 0.30184 0.31093 0.37285 0.0
H1161 H 0.38213 0.30758 0.39233 0.0
H1162 H 0.28422 0.25108 0.38401 0.0
H1163 H 0.28043 0.26269 0.41621 0.0
H1164 H 0.27134 0.28241 0.38955 0.0
H1165 H 0.39838 0.27663 0.4207 0.0
H1166 H 0.37627 0.25789 0.43931 0.0
H1167 H 0.38529 0.24655 0.40824 0.0
H1168 H 0.31093 0.20755 0.47074 0.0
H1169 H 0.32651 0.1781 0.39513 0.0
H1170 H 0.30467 0.27074 0.4559 0.0
H1171 H 0.33827 0.26939 0.46291 0.0
H1172 H 0.31599 0.25125 0.48186 0.0
H1173 H 0.32377 0.23459 0.36268 0.0
H1174 H 0.33935 0.2041 0.3617 0.0
H1175 H 0.35695 0.23284 0.37165 0.0
C1176 C 0.50419 0.47316 0.88839 0.0
C1177 C 0.51489 0.4938 0.90293 0.0
C1178 C 0.4849 0.47695 0.86977 0.0
C1179 C 0.47626 0.50205 0.86533 0.0
C1180 C 0.48781 0.52313 0.87904 0.0
C1181 C 0.50693 0.51875 0.89778 0.0
C1182 C 0.47305 0.45394 0.85561 0.0
C1183 C 0.47926 0.5502 0.87465 0.0
C1184 C 0.43516 0.51063 0.80498 0.0
C1185 C 0.41035 0.50892 0.81479 0.0
C1186 C 0.4569 0.50925 0.82129 0.0
C1187 C 0.45371 0.50582 0.84795 0.0
C1188 C 0.42875 0.50461 0.85801 0.0
C1189 C 0.40742 0.50629 0.84134 0.0
C1190 C 0.48324 0.5109 0.80995 0.0
C1191 C 0.42453 0.50077 0.88631 0.0
H1192 H 0.51063 0.45389 0.89188 0.0
H1193 H 0.51498 0.53479 0.90902 0.0
H1194 H 0.45261 0.4517 0.86077 0.0
H1195 H 0.47356 0.45675 0.83457 0.0
H1196 H 0.48297 0.4359 0.86021 0.0
H1197 H 0.49198 0.56465 0.88477 0.0
H1198 H 0.47884 0.55434 0.85383 0.0
H1199 H 0.45949 0.55239 0.88165 0.0
H1200 H 0.43761 0.51279 0.78451 0.0
H1201 H 0.38837 0.50495 0.84915 0.0
H1202 H 0.49301 0.49239 0.81234 0.0
H1203 H 0.49513 0.52584 0.82028 0.0
H1204 H 0.48248 0.51541 0.78918 0.0
H1205 H 0.43232 0.48206 0.89213 0.0
H1206 H 0.40393 0.50112 0.89118 0.0
H1207 H 0.43496 0.51592 0.89783 0.0
C1208 C 0.72672 0.7183 0.16127 0.0
C1209 C 0.7468 0.72886 0.17672 0.0
C1210 C 0.73165 0.70165 0.14058 0.0
C1211 C 0.75726 0.69541 0.13519 0.0
C1212 C 0.77759 0.70577 0.15087 0.0
C1213 C 0.77212 0.72241 0.17143 0.0
C1214 C 0.70946 0.69109 0.12422 0.0
C1215 C 0.80515 0.69948 0.14579 0.0
C1216 C 0.76879 0.63616 0.09374 0.0
C1217 C 0.7729 0.64693 0.06964 0.0
C1218 C 0.76378 0.6517 0.11529 0.0
C1219 C 0.76282 0.67864 0.11266 0.0
C1220 C 0.767 0.68963 0.08842 0.0
C1221 C 0.772 0.67366 0.06722 0.0
C1222 C 0.75945 0.63931 0.14086 0.0
C1223 C 0.76608 0.71827 0.08483 0.0
H1224 H 0.70715 0.7235 0.16504 0.0
H1225 H 0.78767 0.7303 0.18349 0.0
H1226 H 0.71132 0.69767 0.10418 0.0
H1227 H 0.70972 0.66983 0.12362 0.0
H1228 H 0.69063 0.69718 0.13146 0.0
H1229 H 0.81867 0.70859 0.16018 0.0
H1230 H 0.80762 0.67841 0.146 0.0
H1231 H 0.81038 0.70605 0.12641 0.0
H1232 H 0.76946 0.61555 0.0958 0.0
H1233 H 0.77514 0.68218 0.0487 0.0
H1234 H 0.74012 0.64396 0.1478 0.0
H1235 H 0.77361 0.64705 0.15538 0.0
H1236 H 0.76108 0.61812 0.13976 0.0
H1237 H 0.74699 0.72535 0.09015 0.0
H1238 H 0.76984 0.72378 0.06473 0.0
H1239 H 0.7805 0.72815 0.09773 0.0
C1240 C 0.00021 0.01627 0.08072 0.0
C1241 C 0.98998 0.02136 0.05624 0.0
C1242 C 0.98423 0.01219 0.10165 0.0
C1243 C 0.95728 0.01306 0.09804 0.0
C1244 C 0.94681 0.01842 0.07342 0.0
C1245 C 0.9633 0.02262 0.05284 0.0
C1246 C 0.9962 0.00683 0.12762 0.0
C1247 C 0.9182 0.01932 0.06875 0.0
C1248 C 0.91777 0.97788 0.14742 0.0
C1249 C 0.91072 0.998 0.16388 0.0
C1250 C 0.9323 0.9826 0.12553 0.0
C1251 C 0.94018 0.00803 0.12004 0.0
C1252 C 0.93268 0.02848 0.13627 0.0
C1253 C 0.91797 0.02324 0.15792 0.0
C1254 C 0.9397 0.96028 0.10859 0.0
C1255 C 0.94082 0.05585 0.13118 0.0
H1256 H 0.02083 0.01563 0.08354 0.0
H1257 H 0.95529 0.02636 0.03391 0.0
H1258 H 0.98988 0.02115 0.14203 0.0
H1259 H 0.98972 0.98767 0.13412 0.0
H1260 H 0.01748 0.00736 0.12734 0.0
H1261 H 0.91312 0.02414 0.0486 0.0
H1262 H 0.90923 0.00046 0.07312 0.0
H1263 H 0.90978 0.03376 0.08179 0.0
H1264 H 0.91216 0.95833 0.15177 0.0
H1265 H 0.91265 0.03893 0.1705 0.0
H1266 H 0.96084 0.9584 0.10911 0.0
H1267 H 0.93382 0.9637 0.08835 0.0
H1268 H 0.93084 0.94186 0.11465 0.0
H1269 H 0.96202 0.05779 0.13255 0.0
H1270 H 0.93249 0.06968 0.14497 0.0
H1271 H 0.93492 0.06112 0.1114 0.0
C1272 C 0.22843 0.74811 0.18049 0.0
C1273 C 0.25366 0.74302 0.18865 0.0
C1274 C 0.22349 0.76192 0.15801 0.0
C1275 C 0.24423 0.77149 0.1437 0.0
C1276 C 0.26968 0.76743 0.15241 0.0
C1277 C 0.27406 0.75293 0.17441 0.0
C1278 C 0.1961 0.76542 0.14906 0.0
C1279 C 0.29241 0.77767 0.13798 0.0
C1280 C 0.24229 0.78143 0.07194 0.0
C1281 C 0.24142 0.80817 0.0706 0.0
C1282 C 0.24101 0.7691 0.09559 0.0
C1283 C 0.23979 0.78399 0.11853 0.0
C1284 C 0.23762 0.81099 0.11715 0.0
C1285 C 0.23811 0.82277 0.09306 0.0
C1286 C 0.2426 0.74024 0.09608 0.0
C1287 C 0.23686 0.8276 0.14115 0.0
H1288 H 0.21246 0.74104 0.19146 0.0
H1289 H 0.29364 0.74873 0.17989 0.0
H1290 H 0.19254 0.78594 0.14543 0.0
H1291 H 0.19258 0.7548 0.13061 0.0
H1292 H 0.1821 0.75839 0.16322 0.0
H1293 H 0.3108 0.77526 0.14875 0.0
H1294 H 0.29358 0.76743 0.11919 0.0
H1295 H 0.29014 0.79834 0.13404 0.0
H1296 H 0.24474 0.77017 0.05448 0.0
H1297 H 0.23771 0.8435 0.09198 0.0
H1298 H 0.22806 0.7321 0.10905 0.0
H1299 H 0.26174 0.73483 0.10363 0.0
H1300 H 0.23967 0.73135 0.07666 0.0
H1301 H 0.22303 0.8196 0.15491 0.0
H1302 H 0.23159 0.84761 0.13684 0.0
H1303 H 0.25605 0.828 0.15079 0.0
C1304 C 0.99414 0.44389 0.13716 0.0
C1305 C 0.00561 0.4372 0.11395 0.0
C1306 C 0.00845 0.44515 0.16028 0.0
C1307 C 0.03483 0.43939 0.16021 0.0
C1308 C 0.04642 0.43209 0.13696 0.0
C1309 C 0.03169 0.43117 0.11408 0.0
C1310 C 0.99543 0.45303 0.18472 0.0
C1311 C 0.07449 0.42571 0.13618 0.0
C1312 C 0.07632 0.46792 0.2147 0.0
C1313 C 0.07787 0.44728 0.23153 0.0
C1314 C 0.06266 0.46548 0.19125 0.0
C1315 C 0.05042 0.44179 0.18438 0.0
C1316 C 0.05243 0.42069 0.20095 0.0
C1317 C 0.06607 0.42371 0.22438 0.0
C1318 C 0.06085 0.48844 0.17409 0.0
C1319 C 0.0398 0.39506 0.19413 0.0
H1320 H 0.97391 0.44817 0.13726 0.0
H1321 H 0.04077 0.42632 0.09617 0.0
H1322 H 0.99763 0.43797 0.19932 0.0
H1323 H 0.00466 0.47086 0.1928 0.0
H1324 H 0.97466 0.45644 0.18156 0.0
H1325 H 0.08026 0.41913 0.11678 0.0
H1326 H 0.08635 0.44287 0.14191 0.0
H1327 H 0.07887 0.4105 0.15012 0.0
H1328 H 0.08534 0.48621 0.22005 0.0
H1329 H 0.06726 0.40763 0.23721 0.0
H1330 H 0.04052 0.49394 0.17176 0.0
H1331 H 0.06786 0.48357 0.15468 0.0
H1332 H 0.0721 0.50528 0.18187 0.0
H1333 H 0.01871 0.39713 0.19267 0.0
H1334 H 0.04416 0.38026 0.20856 0.0
H1335 H 0.04623 0.3882 0.17508 0.0
C1336 C 0.33084 0.6961 0.25803 0.0
C1337 C 0.31315 0.71586 0.25947 0.0
C1338 C 0.35523 0.69883 0.26978 0.0
C1339 C 0.36178 0.72167 0.28375 0.0
C1340 C 0.3436 0.74135 0.28594 0.0
C1341 C 0.31958 0.73834 0.27344 0.0
C1342 C 0.37427 0.67771 0.26643 0.0
C1343 C 0.34969 0.76575 0.30111 0.0
C1344 C 0.41941 0.72247 0.32993 0.0
C1345 C 0.43762 0.73608 0.31586 0.0
C1346 C 0.39459 0.7175 0.31972 0.0
C1347 C 0.38819 0.72573 0.29464 0.0
C1348 C 0.40691 0.73852 0.28001 0.0
C1349 C 0.43126 0.74385 0.29094 0.0
C1350 C 0.37497 0.70427 0.33607 0.0
C1351 C 0.40109 0.74698 0.25294 0.0
H1352 H 0.32583 0.67879 0.24701 0.0
H1353 H 0.30575 0.75351 0.27462 0.0
H1354 H 0.39096 0.68501 0.25569 0.0
H1355 H 0.38162 0.67148 0.28542 0.0
H1356 H 0.36581 0.66076 0.25586 0.0
H1357 H 0.33276 0.77818 0.30273 0.0
H1358 H 0.35675 0.76117 0.32072 0.0
H1359 H 0.36519 0.77674 0.29171 0.0
H1360 H 0.42425 0.71666 0.3493 0.0
H1361 H 0.4454 0.75421 0.27996 0.0
H1362 H 0.36684 0.687 0.32585 0.0
H1363 H 0.35887 0.71733 0.3396 0.0
H1364 H 0.38319 0.69843 0.35488 0.0
H1365 H 0.3935 0.73051 0.24107 0.0
H1366 H 0.41828 0.75515 0.24358 0.0
H1367 H 0.38608 0.76171 0.25316 0.0
C1368 C 0.96224 0.38749 0.01364 0.0
C1369 C 0.9836 0.39813 0.0271 0.0
C1370 C 0.96521 0.37013 0.99311 0.0
C1371 C 0.99017 0.3633 0.98582 0.0
C1372 C 0.01177 0.37309 6e-05 0.0
C1373 C 0.00822 0.3904 0.02058 0.0
C1374 C 0.94168 0.35999 0.97852 0.0
C1375 C 0.03867 0.36628 0.99284 0.0
C1376 C 0.99565 0.30685 0.93909 0.0
C1377 C 0.99672 0.31937 0.91549 0.0
C1378 C 0.99406 0.32088 0.9623 0.0
C1379 C 0.99362 0.348 0.96183 0.0
C1380 C 0.99536 0.36072 0.93815 0.0
C1381 C 0.99685 0.34628 0.91531 0.0
C1382 C 0.99222 0.30669 0.98722 0.0
C1383 C 0.99505 0.38963 0.93684 0.0
H1384 H 0.94315 0.39309 0.01893 0.0
H1385 H 0.02479 0.39869 0.03086 0.0
H1386 H 0.94141 0.36771 0.9588 0.0
H1387 H 0.94212 0.33878 0.97666 0.0
H1388 H 0.92364 0.36539 0.98797 0.0
H1389 H 0.05318 0.3733 0.00741 0.0
H1390 H 0.04029 0.3452 0.99051 0.0
H1391 H 0.04324 0.37489 0.97412 0.0
H1392 H 0.99555 0.28608 0.93941 0.0
H1393 H 0.99783 0.35616 0.89722 0.0
H1394 H 0.9734 0.31024 0.99596 0.0
H1395 H 0.00725 0.3139 0.00111 0.0
H1396 H 0.99431 0.28567 0.98448 0.0
H1397 H 0.97655 0.3967 0.94394 0.0
H1398 H 0.99763 0.39658 0.917 0.0
H1399 H 0.01048 0.39824 0.94943 0.0
C1400 C 0.68587 0.72925 0.25841 0.0
C1401 C 0.69285 0.75434 0.25148 0.0
C1402 C 0.66367 0.72428 0.27246 0.0
C1403 C 0.64839 0.74494 0.28035 0.0
C1404 C 0.65593 0.77036 0.27449 0.0
C1405 C 0.67778 0.77471 0.25985 0.0
C1406 C 0.65603 0.69689 0.27797 0.0
C1407 C 0.6404 0.79301 0.2829 0.0
C1408 C 0.5768 0.73975 0.28927 0.0
C1409 C 0.57516 0.74063 0.31605 0.0
C1410 C 0.60062 0.73905 0.27742 0.0
C1411 C 0.62336 0.74017 0.29279 0.0
C1412 C 0.62176 0.73973 0.31994 0.0
C1413 C 0.59754 0.73965 0.33129 0.0
C1414 C 0.60142 0.73878 0.24844 0.0
C1415 C 0.64552 0.7414 0.33699 0.0
H1416 H 0.69759 0.71336 0.25259 0.0
H1417 H 0.68252 0.79413 0.25433 0.0
H1418 H 0.65242 0.69466 0.29873 0.0
H1419 H 0.63788 0.69175 0.2674 0.0
H1420 H 0.67089 0.68313 0.27217 0.0
H1421 H 0.65028 0.81162 0.27919 0.0
H1422 H 0.62164 0.79257 0.27242 0.0
H1423 H 0.63647 0.79202 0.30372 0.0
H1424 H 0.55939 0.74052 0.27755 0.0
H1425 H 0.59618 0.74068 0.35203 0.0
H1426 H 0.61516 0.7244 0.24154 0.0
H1427 H 0.60811 0.75783 0.2418 0.0
H1428 H 0.58229 0.73438 0.23942 0.0
H1429 H 0.66014 0.72789 0.33021 0.0
H1430 H 0.64124 0.73723 0.35732 0.0
H1431 H 0.65405 0.76104 0.33619 0.0
C1432 C 0.99357 0.07833 0.97043 0.0
C1433 C 0.01794 0.07123 0.97933 0.0
C1434 C 0.99063 0.09882 0.95351 0.0
C1435 C 0.01258 0.1125 0.9452 0.0
C1436 C 0.03721 0.1055 0.95419 0.0
C1437 C 0.03958 0.08506 0.97118 0.0
C1438 C 0.96403 0.10574 0.94442 0.0
C1439 C 0.06109 0.11962 0.94584 0.0
C1440 C 0.00814 0.15044 0.88351 0.0
C1441 C 0.00582 0.17562 0.893 0.0
C1442 C 0.01022 0.12971 0.90026 0.0
C1443 C 0.00985 0.13422 0.92716 0.0
C1444 C 0.00733 0.15955 0.93686 0.0
C1445 C 0.00541 0.17992 0.91969 0.0
C1446 C 0.01302 0.10299 0.88918 0.0
C1447 C 0.00674 0.16516 0.96539 0.0
H1448 H 0.97677 0.0676 0.97637 0.0
H1449 H 0.05845 0.08002 0.97829 0.0
H1450 H 0.96035 0.12607 0.94949 0.0
H1451 H 0.96246 0.10379 0.92318 0.0
H1452 H 0.94891 0.09345 0.95293 0.0
H1453 H 0.07884 0.11163 0.95438 0.0
H1454 H 0.06235 0.11864 0.9246 0.0
H1455 H 0.0602 0.14018 0.9515 0.0
H1456 H 0.00849 0.14689 0.86295 0.0
H1457 H 0.00354 0.19928 0.92724 0.0
H1458 H 0.99731 0.09026 0.89584 0.0
H1459 H 0.03134 0.09486 0.8961 0.0
H1460 H 0.01269 0.10265 0.86783 0.0
H1461 H 0.99085 0.15407 0.97405 0.0
H1462 H 0.0042 0.18586 0.96983 0.0
H1463 H 0.02484 0.15902 0.97475 0.0
C1464 C 0.39858 0.36022 0.28901 0.0
C1465 C 0.38523 0.34075 0.3017 0.0
C1466 C 0.41124 0.355 0.26603 0.0
C1467 C 0.41043 0.32975 0.25553 0.0
C1468 C 0.39812 0.3098 0.26895 0.0
C1469 C 0.38563 0.31555 0.29181 0.0
C1470 C 0.42434 0.37674 0.25235 0.0
C1471 C 0.39677 0.28263 0.25838 0.0
C1472 C 0.41126 0.32021 0.18326 0.0
C1473 C 0.4362 0.31163 0.17944 0.0
C1474 C 0.40291 0.3267 0.20788 0.0
C1475 C 0.4199 0.32459 0.22927 0.0
C1476 C 0.44525 0.3164 0.22557 0.0
C1477 C 0.45312 0.30998 0.20067 0.0
C1478 C 0.37568 0.33533 0.21103 0.0
C1479 C 0.46388 0.31398 0.24795 0.0
H1480 H 0.39851 0.37967 0.29669 0.0
H1481 H 0.375 0.30045 0.30122 0.0
H1482 H 0.44384 0.37124 0.2466 0.0
H1483 H 0.4133 0.381 0.23453 0.0
H1484 H 0.42588 0.3945 0.26444 0.0
H1485 H 0.38883 0.26892 0.27239 0.0
H1486 H 0.38439 0.28178 0.24076 0.0
H1487 H 0.41608 0.27628 0.2529 0.0
H1488 H 0.39806 0.32165 0.16701 0.0
H1489 H 0.47245 0.30346 0.1979 0.0
H1490 H 0.3756 0.35431 0.22099 0.0
H1491 H 0.3651 0.32158 0.22313 0.0
H1492 H 0.36518 0.33679 0.19233 0.0
H1493 H 0.46535 0.3323 0.2591 0.0
H1494 H 0.48333 0.30875 0.24169 0.0
H1495 H 0.45677 0.29907 0.26112 0.0
C1496 C 0.53361 0.41773 0.96885 0.0
C1497 C 0.54073 0.44213 0.97861 0.0
C1498 C 0.52609 0.39809 0.98529 0.0
C1499 C 0.52531 0.40314 0.01207 0.0
C1500 C 0.53327 0.42752 0.02209 0.0
C1501 C 0.54105 0.44671 0.00522 0.0
C1502 C 0.51812 0.37222 0.97392 0.0
C1503 C 0.53241 0.43373 0.05049 0.0
C1504 C 0.47691 0.36398 0.04892 0.0
C1505 C 0.49249 0.34613 0.0612 0.0
C1506 C 0.48744 0.38278 0.03316 0.0
C1507 C 0.5142 0.38361 0.0293 0.0
C1508 C 0.53009 0.36568 0.04161 0.0
C1509 C 0.51905 0.34723 0.05757 0.0
C1510 C 0.46988 0.40176 0.0206 0.0
C1511 C 0.55867 0.36582 0.03768 0.0
H1512 H 0.53364 0.41414 0.94827 0.0
H1513 H 0.54638 0.46565 0.01274 0.0
H1514 H 0.52834 0.35675 0.98398 0.0
H1515 H 0.49729 0.36883 0.97657 0.0
H1516 H 0.52206 0.3707 0.95307 0.0
H1517 H 0.54098 0.45293 0.05538 0.0
H1518 H 0.51221 0.43329 0.05672 0.0
H1519 H 0.54275 0.4191 0.06165 0.0
H1520 H 0.45639 0.36339 0.05174 0.0
H1521 H 0.53121 0.33345 0.06691 0.0
H1522 H 0.4709 0.39987 -0.00061 0.0
H1523 H 0.47616 0.42163 0.026 0.0
H1524 H 0.44959 0.39894 0.02613 0.0
H1525 H 0.56261 0.36287 0.01699 0.0
H1526 H 0.56837 0.35068 0.04876 0.0
H1527 H 0.56723 0.38474 0.04357 0.0
C1528 C 0.66593 0.22882 0.20414 0.0
C1529 C 0.66421 0.22928 0.23101 0.0
C1530 C 0.64421 0.2325 0.18832 0.0
C1531 C 0.62026 0.23694 0.19964 0.0
C1532 C 0.61839 0.23739 0.22672 0.0
C1533 C 0.64032 0.23341 0.24205 0.0
C1534 C 0.6469 0.23173 0.15951 0.0
C1535 C 0.59319 0.24213 0.23954 0.0
C1536 C 0.56793 0.27047 0.16216 0.0
C1537 C 0.55121 0.24993 0.15531 0.0
C1538 C 0.59074 0.26646 0.17617 0.0
C1539 C 0.59709 0.24127 0.18328 0.0
C1540 C 0.58067 0.22037 0.17578 0.0
C1541 C 0.55787 0.22496 0.16199 0.0
C1542 C 0.60768 0.28925 0.18399 0.0
C1543 C 0.58694 0.19321 0.18278 0.0
H1544 H 0.68434 0.22593 0.19545 0.0
H1545 H 0.6387 0.2333 0.26276 0.0
H1546 H 0.63362 0.21694 0.15079 0.0
H1547 H 0.64152 0.25044 0.15141 0.0
H1548 H 0.66674 0.22745 0.15372 0.0
H1549 H 0.59505 0.24217 0.26083 0.0
H1550 H 0.58559 0.26086 0.23355 0.0
H1551 H 0.57885 0.22712 0.23338 0.0
H1552 H 0.56293 0.28983 0.1571 0.0
H1553 H 0.54514 0.20897 0.15662 0.0
H1554 H 0.62749 0.28638 0.17739 0.0
H1555 H 0.60867 0.29116 0.20525 0.0
H1556 H 0.60057 0.30746 0.17603 0.0
H1557 H 0.60639 0.18848 0.17622 0.0
H1558 H 0.57295 0.17896 0.17421 0.0
H1559 H 0.58705 0.19131 0.20397 0.0
C1560 C 0.43789 0.0968 0.03828 0.0
C1561 C 0.4411 0.0967 0.01158 0.0
C1562 C 0.43976 0.11977 0.0528 0.0
C1563 C 0.44516 0.14311 0.04035 0.0
C1564 C 0.44854 0.1431 0.01346 0.0
C1565 C 0.4463 0.11997 -0.00058 0.0
C1566 C 0.43588 0.11909 0.08143 0.0
C1567 C 0.45439 0.16759 -0.00054 0.0
C1568 C 0.42734 0.20745 0.06909 0.0
C1569 C 0.45114 0.21695 0.0786 0.0
C1570 C 0.42494 0.18298 0.05753 0.0
C1571 C 0.4469 0.16774 0.05518 0.0
C1572 C 0.47083 0.17689 0.06539 0.0
C1573 C 0.47264 0.20134 0.0771 0.0
C1574 C 0.39903 0.17377 0.04714 0.0
C1575 C 0.49472 0.16126 0.06306 0.0
H1576 H 0.43417 0.07888 0.04788 0.0
H1577 H 0.44832 0.12016 0.97875 0.0
H1578 H 0.45325 0.12679 0.09181 0.0
H1579 H 0.41975 0.13152 0.08668 0.0
H1580 H 0.43171 0.09938 0.08818 0.0
H1581 H 0.45723 0.16417 0.9786 0.0
H1582 H 0.43846 0.18111 0.00178 0.0
H1583 H 0.47196 0.17709 0.00785 0.0
H1584 H 0.41058 0.21927 0.07038 0.0
H1585 H 0.49109 0.20851 0.08442 0.0
H1586 H 0.39426 0.15449 0.05458 0.0
H1587 H 0.3995 0.17196 0.02589 0.0
H1588 H 0.38351 0.18703 0.05232 0.0
H1589 H 0.49139 0.14176 0.07062 0.0
H1590 H 0.51145 0.17032 0.07353 0.0
H1591 H 0.49953 0.159 0.0425 0.0
C1592 C 0.27638 0.31844 0.71245 0.0
C1593 C 0.24955 0.31888 0.71083 0.0
C1594 C 0.29094 0.34108 0.71713 0.0
C1595 C 0.27832 0.36471 0.7199 0.0
C1596 C 0.25125 0.36532 0.71742 0.0
C1597 C 0.23719 0.34236 0.7131 0.0
C1598 C 0.31971 0.3396 0.72004 0.0
C1599 C 0.23709 0.39015 0.71995 0.0
C1600 C 0.30803 0.41864 0.76103 0.0
C1601 C 0.31739 0.43546 0.74253 0.0
C1602 C 0.29612 0.39519 0.75388 0.0
C1603 C 0.29307 0.38849 0.72752 0.0
C1604 C 0.30299 0.40507 0.70871 0.0
C1605 C 0.31527 0.42832 0.71646 0.0
C1606 C 0.28623 0.37788 0.77457 0.0
C1607 C 0.29984 0.39866 0.68042 0.0
H1608 H 0.28594 0.30025 0.71078 0.0
H1609 H 0.21645 0.34275 0.71146 0.0
H1610 H 0.3292 0.35344 0.7072 0.0
H1611 H 0.32569 0.34495 0.74004 0.0
H1612 H 0.3267 0.32008 0.71561 0.0
H1613 H 0.21626 0.38762 0.7155 0.0
H1614 H 0.2395 0.39795 0.73985 0.0
H1615 H 0.2452 0.40464 0.70689 0.0
H1616 H 0.30989 0.4239 0.78124 0.0
H1617 H 0.32241 0.44129 0.7021 0.0
H1618 H 0.2938 0.3583 0.77204 0.0
H1619 H 0.26501 0.37622 0.77303 0.0
H1620 H 0.29165 0.38511 0.79419 0.0
H1621 H 0.3073 0.37933 0.67619 0.0
H1622 H 0.30988 0.41282 0.66829 0.0
H1623 H 0.27916 0.39819 0.67492 0.0
C1624 C 0.25586 0.67768 0.77226 0.0
C1625 C 0.24668 0.69101 0.75085 0.0
C1626 C 0.27048 0.65563 0.76937 0.0
C1627 C 0.27538 0.64595 0.74444 0.0
C1628 C 0.26661 0.65937 0.72269 0.0
C1629 C 0.25271 0.68194 0.72615 0.0
C1630 C 0.27991 0.64218 0.79313 0.0
C1631 C 0.271 0.64936 0.6958 0.0
C1632 C 0.32654 0.59521 0.74148 0.0
C1633 C 0.31175 0.57289 0.74502 0.0
C1634 C 0.31491 0.61924 0.74008 0.0
C1635 C 0.28788 0.6207 0.74151 0.0
C1636 C 0.27284 0.59788 0.74309 0.0
C1637 C 0.285 0.5743 0.74531 0.0
C1638 C 0.33166 0.64314 0.73903 0.0
C1639 C 0.24395 0.59846 0.74388 0.0
H1640 H 0.25099 0.68392 0.79145 0.0
H1641 H 0.24628 0.69223 0.70941 0.0
H1642 H 0.26952 0.62353 0.79483 0.0
H1643 H 0.30062 0.63811 0.79171 0.0
H1644 H 0.27701 0.65369 0.81095 0.0
H1645 H 0.26447 0.66289 0.68091 0.0
H1646 H 0.29163 0.64566 0.69312 0.0
H1647 H 0.26046 0.63081 0.69274 0.0
H1648 H 0.34727 0.59408 0.74152 0.0
H1649 H 0.27359 0.55695 0.74791 0.0
H1650 H 0.33138 0.65343 0.75786 0.0
H1651 H 0.32425 0.65637 0.72433 0.0
H1652 H 0.35185 0.63867 0.7347 0.0
H1653 H 0.23808 0.60676 0.76255 0.0
H1654 H 0.23502 0.579 0.74157 0.0
H1655 H 0.23627 0.6108 0.72851 0.0
C1656 C 0.88128 0.50602 0.46467 0.0
C1657 C 0.89342 0.51832 0.48595 0.0
C1658 C 0.8632 0.48611 0.46784 0.0
C1659 C 0.85714 0.47829 0.49291 0.0
C1660 C 0.86834 0.49152 0.5145 0.0
C1661 C 0.88635 0.51143 0.51076 0.0
C1662 C 0.85155 0.47263 0.44431 0.0
C1663 C 0.86236 0.48375 0.54154 0.0
C1664 C 0.79948 0.43321 0.49998 0.0
C1665 C 0.81116 0.40921 0.50016 0.0
C1666 C 0.81419 0.45598 0.49809 0.0
C1667 C 0.84117 0.45468 0.49639 0.0
C1668 C 0.85307 0.43057 0.49705 0.0
C1669 C 0.83795 0.40818 0.4989 0.0
C1670 C 0.80086 0.48136 0.49743 0.0
C1671 C 0.88181 0.42836 0.49535 0.0
H1672 H 0.88639 0.51159 0.44545 0.0
H1673 H 0.89579 0.52079 0.52727 0.0
H1674 H 0.85864 0.45275 0.44307 0.0
H1675 H 0.83039 0.47132 0.44569 0.0
H1676 H 0.85641 0.48256 0.4263 0.0
H1677 H 0.87037 0.4977 0.55614 0.0
H1678 H 0.84133 0.48193 0.54395 0.0
H1679 H 0.87055 0.46469 0.54532 0.0
H1680 H 0.7788 0.43421 0.50097 0.0
H1681 H 0.8472 0.38978 0.49914 0.0
H1682 H 0.8041 0.4906 0.47872 0.0
H1683 H 0.80901 0.49451 0.51263 0.0
H1684 H 0.77987 0.47921 0.50014 0.0
H1685 H 0.88829 0.43588 0.47673 0.0
H1686 H 0.88814 0.40825 0.49701 0.0
H1687 H 0.89152 0.44013 0.5108 0.0
C1688 C 0.781 0.87126 0.80233 0.0
C1689 C 0.79259 0.86811 0.8266 0.0
C1690 C 0.75857 0.88531 0.79946 0.0
C1691 C 0.74744 0.89649 0.8214 0.0
C1692 C 0.7597 0.89445 0.84579 0.0
C1693 C 0.78211 0.88017 0.84812 0.0
C1694 C 0.74601 0.8869 0.77313 0.0
C1695 C 0.74851 0.90632 0.86957 0.0
C1696 C 0.69438 0.94382 0.80889 0.0
C1697 C 0.67243 0.92796 0.81063 0.0
C1698 C 0.71899 0.93409 0.81312 0.0
C1699 C 0.72166 0.90789 0.81906 0.0
C1700 C 0.69956 0.89197 0.82142 0.0
C1701 C 0.67526 0.9022 0.81724 0.0
C1702 C 0.74214 0.95165 0.81063 0.0
C1703 C 0.70159 0.86389 0.82764 0.0
H1704 H 0.78877 0.86168 0.78568 0.0
H1705 H 0.79115 0.87796 0.86688 0.0
H1706 H 0.72762 0.87579 0.77272 0.0
H1707 H 0.74152 0.90706 0.76875 0.0
H1708 H 0.75829 0.87919 0.75777 0.0
H1709 H 0.76183 0.90555 0.88647 0.0
H1710 H 0.74369 0.92662 0.8662 0.0
H1711 H 0.73045 0.89597 0.87421 0.0
H1712 H 0.69237 0.96378 0.80391 0.0
H1713 H 0.65846 0.88978 0.81871 0.0
H1714 H 0.75355 0.9453 0.79405 0.0
H1715 H 0.75471 0.95068 0.82804 0.0
H1716 H 0.73677 0.97191 0.80779 0.0
H1717 H 0.71188 0.85378 0.81216 0.0
H1718 H 0.68252 0.85437 0.82973 0.0
H1719 H 0.71287 0.86164 0.84574 0.0
C1720 C 0.60951 0.52647 0.93128 0.0
C1721 C 0.59689 0.51613 0.95242 0.0
C1722 C 0.63273 0.54035 0.93449 0.0
C1723 C 0.64418 0.54318 0.95929 0.0
C1724 C 0.6314 0.53334 0.98078 0.0
C1725 C 0.6077 0.5204 0.97715 0.0
C1726 C 0.64545 0.55119 0.91115 0.0
C1727 C 0.64329 0.53542 0.00748 0.0
C1728 C 0.71664 0.54958 0.96002 0.0
C1729 C 0.72057 0.57568 0.96589 0.0
C1730 C 0.69188 0.53865 0.95871 0.0
C1731 C 0.6705 0.55446 0.96238 0.0
C1732 C 0.67438 0.58091 0.96829 0.0
C1733 C 0.6995 0.59115 0.97046 0.0
C1734 C 0.68863 0.51021 0.95324 0.0
C1735 C 0.65204 0.5985 0.97146 0.0
H1736 H 0.60175 0.5231 0.91203 0.0
H1737 H 0.59789 0.51325 0.99376 0.0
H1738 H 0.65162 0.57144 0.91487 0.0
H1739 H 0.66286 0.5402 0.90689 0.0
H1740 H 0.63255 0.55032 0.89388 0.0
H1741 H 0.63038 0.52773 0.02231 0.0
H1742 H 0.66137 0.5246 0.00811 0.0
H1743 H 0.64828 0.55569 0.01248 0.0
H1744 H 0.73304 0.53763 0.95672 0.0
H1745 H 0.70265 0.6114 0.97481 0.0
H1746 H 0.67855 0.50693 0.93445 0.0
H1747 H 0.67665 0.50123 0.96811 0.0
H1748 H 0.70728 0.50035 0.95276 0.0
H1749 H 0.64048 0.59867 0.95331 0.0
H1750 H 0.65832 0.61848 0.97651 0.0
H1751 H 0.63927 0.59138 0.98663 0.0
C1752 C 0.24202 0.64196 0.24615 0.0
C1753 C 0.23174 0.6662 0.24211 0.0
C1754 C 0.22653 0.62134 0.25388 0.0
C1755 C 0.20009 0.62506 0.2577 0.0
C1756 C 0.18941 0.64928 0.25285 0.0
C1757 C 0.20538 0.66959 0.24504 0.0
C1758 C 0.23862 0.59575 0.25861 0.0
C1759 C 0.1613 0.65395 0.25671 0.0
C1760 C 0.15855 0.56454 0.26059 0.0
C1761 C 0.15756 0.56073 0.28718 0.0
C1762 C 0.17165 0.58584 0.2507 0.0
C1763 C 0.184 0.60379 0.2678 0.0
C1764 C 0.18233 0.60053 0.29465 0.0
C1765 C 0.16916 0.57903 0.30402 0.0
C1766 C 0.17299 0.58868 0.22195 0.0
C1767 C 0.19517 0.61934 0.31351 0.0
H1768 H 0.26233 0.63917 0.2435 0.0
H1769 H 0.19741 0.68835 0.24208 0.0
H1770 H 0.23693 0.5908 0.27914 0.0
H1771 H 0.22838 0.58045 0.24711 0.0
H1772 H 0.25922 0.59574 0.25366 0.0
H1773 H 0.15567 0.67336 0.25054 0.0
H1774 H 0.1494 0.63942 0.2458 0.0
H1775 H 0.15683 0.65195 0.27732 0.0
H1776 H 0.14957 0.55055 0.24741 0.0
H1777 H 0.16839 0.57633 0.32458 0.0
H1778 H 0.19311 0.58669 0.21587 0.0
H1779 H 0.1668 0.60804 0.21634 0.0
H1780 H 0.16086 0.57409 0.21131 0.0
H1781 H 0.21626 0.61896 0.31134 0.0
H1782 H 0.19072 0.61495 0.33374 0.0
H1783 H 0.18905 0.63912 0.30946 0.0
C1784 C 0.91973 0.48121 0.06863 0.0
C1785 C 0.94252 0.47894 0.05521 0.0
C1786 C 0.90138 0.4991 0.06124 0.0
C1787 C 0.90632 0.51531 0.04029 0.0
C1788 C 0.93009 0.51405 0.02775 0.0
C1789 C 0.94779 0.4956 0.03516 0.0
C1790 C 0.8761 0.4995 0.07476 0.0
C1791 C 0.93631 0.53132 0.00568 0.0
C1792 C 0.85171 0.53661 0.99727 0.0
C1793 C 0.84846 0.56196 0.00572 0.0
C1794 C 0.86984 0.52102 0.00906 0.0
C1795 C 0.88563 0.53125 0.02937 0.0
C1796 C 0.88228 0.55679 0.03821 0.0
C1797 C 0.86341 0.57179 0.02647 0.0
C1798 C 0.87234 0.49368 -0.00053 0.0
C1799 C 0.89915 0.56848 0.05944 0.0
H1800 H 0.91576 0.46814 0.08408 0.0
H1801 H 0.96557 0.4938 0.02496 0.0
H1802 H 0.87112 0.51943 0.08012 0.0
H1803 H 0.86068 0.49184 0.06153 0.0
H1804 H 0.87634 0.48776 0.09235 0.0
H1805 H 0.95674 0.53024 0.00028 0.0
H1806 H 0.92417 0.52568 0.98865 0.0
H1807 H 0.93204 0.55153 0.01069 0.0
H1808 H 0.83991 0.52887 0.98144 0.0
H1809 H 0.86093 0.59143 0.03295 0.0
H1810 H 0.87097 0.48027 0.0157 0.0
H1811 H 0.8914 0.49121 0.99086 0.0
H1812 H 0.85735 0.48816 0.98479 0.0
H1813 H 0.89868 0.55631 0.07668 0.0
H1814 H 0.89328 0.58813 0.06495 0.0
H1815 H 0.91931 0.5694 0.05311 0.0
C1816 C 0.09068 0.00296 0.00214 0.0
C1817 C 0.06583 0.99339 0.00634 0.0
C1818 C 0.11124 0.98634 -0.00096 0.0
C1819 C 0.10681 0.95949 -7e-05 0.0
C1820 C 0.08172 0.94971 0.00395 0.0
C1821 C 0.06155 0.96679 0.00723 0.0
C1822 C 0.13775 0.99753 0.99505 0.0
C1823 C 0.07617 0.92121 0.00474 0.0
C1824 C 0.15619 0.91661 0.9694 0.0
C1825 C 0.17039 0.90873 0.99094 0.0
C1826 C 0.13526 0.93287 0.97207 0.0
C1827 C 0.1285 0.94166 0.99685 0.0
C1828 C 0.14269 0.9337 0.01867 0.0
C1829 C 0.16337 0.91723 0.01547 0.0
C1830 C 0.12044 0.94073 0.94835 0.0
C1831 C 0.13621 0.94282 0.04539 0.0
H1832 H 0.09412 0.02352 0.00172 0.0
H1833 H 0.04232 0.95932 0.0102 0.0
H1834 H 0.151 0.99134 0.0106 0.0
H1835 H 0.14534 0.99029 0.97662 0.0
H1836 H 0.13797 0.01883 0.99482 0.0
H1837 H 0.05555 0.9167 0.00768 0.0
H1838 H 0.08201 0.91188 0.98653 0.0
H1839 H 0.08755 0.91264 0.02052 0.0
H1840 H 0.1614 0.91006 0.95038 0.0
H1841 H 0.17427 0.91131 0.03222 0.0
H1842 H 0.12166 0.96187 0.94644 0.0
H1843 H 0.09987 0.93536 0.95009 0.0
H1844 H 0.12771 0.93168 0.93054 0.0
H1845 H 0.13776 0.96406 0.04666 0.0
H1846 H 0.14904 0.93476 0.06038 0.0
H1847 H 0.11612 0.93733 0.04964 0.0
loop_
_geom_bond_atom_site_label_1
_geom_bond_atom_site_label_2
_geom_bond_distance
_geom_bond_site_symmetry_2
_ccdc_geom_bond_type
H0 C3 0.931 . S
H1 C6 0.928 . S
H2 C8 0.930 . S
C3 H0 0.931 . S
C3 C4 1.413 . S
C3 C5 1.360 . S
C4 C3 1.413 . S
C4 C8 1.429 . S
C5 C3 1.360 . S
C5 C6 1.372 . S
C6 H1 0.928 . S
C6 C5 1.372 . S
C6 C7 1.404 . S
C7 C6 1.404 . S
C7 C8 1.391 . S
C8 H2 0.930 . S
C8 C4 1.429 . S
C8 C7 1.391 . S
H9 C12 0.931 . S
H10 C15 0.928 . S
H11 C17 0.930 . S
C12 H9 0.931 . S
C12 C13 1.413 . S
C12 C14 1.360 . S
C13 C12 1.413 . S
C13 C17 1.429 . S
C14 C12 1.360 . S
C14 C15 1.372 . S
C15 H10 0.928 . S
C15 C14 1.372 . S
C15 C16 1.404 . S
C16 C15 1.404 . S
C16 C17 1.391 . S
C17 H11 0.930 . S
C17 C13 1.429 . S
C17 C16 1.391 . S
H18 C21 0.931 . S
H19 C24 0.928 . S
H20 C26 0.930 . S
C21 H18 0.931 . S
C21 C22 1.413 . S
C21 C23 1.360 . S
C22 C21 1.413 . S
C22 C26 1.429 . S
C23 C21 1.360 . S
C23 C24 1.372 . S
C24 H19 0.928 . S
C24 C23 1.372 . S
C24 C25 1.404 . S
C25 C24 1.404 . S
C25 C26 1.391 . S
C26 H20 0.930 . S
C26 C22 1.429 . S
C26 C25 1.391 . S
H27 C30 0.931 . S
H28 C33 0.928 . S
H29 C35 0.930 . S
C30 H27 0.931 . S
C30 C31 1.413 . S
C30 C32 1.360 . S
C31 C30 1.413 . S
C31 C35 1.429 . S
C32 C30 1.360 . S
C32 C33 1.372 . S
C33 H28 0.928 . S
C33 C32 1.372 . S
C33 C34 1.404 . S
C34 C33 1.404 . S
C34 C35 1.391 . S
C35 H29 0.930 . S
C35 C31 1.429 . S
C35 C34 1.391 . S
H36 C39 0.931 . S
H37 C42 0.928 . S
H38 C44 0.930 . S
C39 H36 0.931 . S
C39 C40 1.413 . S
C39 C41 1.360 . S
C40 C39 1.413 . S
C40 C44 1.429 . S
C41 C39 1.360 . S
C41 C42 1.372 . S
C42 H37 0.928 . S
C42 C41 1.372 . S
C42 C43 1.404 . S
C43 C42 1.404 . S
C43 C44 1.391 . S
C44 H38 0.930 . S
C44 C40 1.429 . S
C44 C43 1.391 . S
H45 C48 0.931 . S
H46 C51 0.928 . S
H47 C53 0.930 . S
C48 H45 0.931 . S
C48 C49 1.413 . S
C48 C50 1.360 . S
C49 C48 1.413 . S
C49 C53 1.429 . S
C50 C48 1.360 . S
C50 C51 1.372 . S
C51 H46 0.928 . S
C51 C50 1.372 . S
C51 C52 1.404 . S
C52 C51 1.404 . S
C52 C53 1.391 . S
C53 H47 0.930 . S
C53 C49 1.429 . S
C53 C52 1.391 . S
H54 C57 0.931 . S
H55 C60 0.928 . S
H56 C62 0.930 . S
C57 H54 0.931 . S
C57 C58 1.413 . S
C57 C59 1.360 . S
C58 C57 1.413 . S
C58 C62 1.429 . S
C59 C57 1.360 . S
C59 C60 1.372 . S
C60 H55 0.928 . S
C60 C59 1.372 . S
C60 C61 1.404 . S
C61 C60 1.404 . S
C61 C62 1.391 . S
C62 H56 0.930 . S
C62 C58 1.429 . S
C62 C61 1.391 . S
H63 C66 0.931 . S
H64 C69 0.928 . S
H65 C71 0.930 . S
C66 H63 0.931 . S
C66 C67 1.413 . S
C66 C68 1.360 . S
C67 C66 1.413 . S
C67 C71 1.429 . S
C68 C66 1.360 . S
C68 C69 1.372 . S
C69 H64 0.928 . S
C69 C68 1.372 . S
C69 C70 1.404 . S
C70 C69 1.404 . S
C70 C71 1.391 . S
C71 H65 0.930 . S
C71 C67 1.429 . S
C71 C70 1.391 . S
H72 C75 0.931 . S
H73 C78 0.928 . S
H74 C80 0.930 . S
C75 H72 0.931 . S
C75 C76 1.413 . S
C75 C77 1.360 . S
C76 C75 1.413 . S
C76 C80 1.429 . S
C77 C75 1.360 . S
C77 C78 1.372 . S
C78 H73 0.928 . S
C78 C77 1.372 . S
C78 C79 1.404 . S
C79 C78 1.404 . S
C79 C80 1.391 . S
C80 H74 0.930 . S
C80 C76 1.429 . S
C80 C79 1.391 . S
H81 C84 0.931 . S
H82 C87 0.928 . S
H83 C89 0.930 . S
C84 H81 0.931 . S
C84 C85 1.413 . S
C84 C86 1.360 . S
C85 C84 1.413 . S
C85 C89 1.429 . S
C86 C84 1.360 . S
C86 C87 1.372 . S
C87 H82 0.928 . S
C87 C86 1.372 . S
C87 C88 1.404 . S
C88 C87 1.404 . S
C88 C89 1.391 . S
C89 H83 0.930 . S
C89 C85 1.429 . S
C89 C88 1.391 . S
H90 C93 0.931 . S
H91 C96 0.928 . S
H92 C98 0.930 . S
C93 H90 0.931 . S
C93 C94 1.413 . S
C93 C95 1.360 . S
C94 C93 1.413 . S
C94 C98 1.429 . S
C95 C93 1.360 . S
C95 C96 1.372 . S
C96 H91 0.928 . S
C96 C95 1.372 . S
C96 C97 1.404 . S
C97 C96 1.404 . S
C97 C98 1.391 . S
C98 H92 0.930 . S
C98 C94 1.429 . S
C98 C97 1.391 . S
H99 C102 0.931 . S
H100 C105 0.928 . S
H101 C107 0.930 . S
C102 H99 0.931 . S
C102 C103 1.413 . S
C102 C104 1.360 . S
C103 C102 1.413 . S
C103 C107 1.429 . S
C104 C102 1.360 . S
C104 C105 1.372 . S
C105 H100 0.928 . S
C105 C104 1.372 . S
C105 C106 1.404 . S
C106 C105 1.404 . S
C106 C107 1.391 . S
C107 H101 0.930 . S
C107 C103 1.429 . S
C107 C106 1.391 . S
H108 C111 0.931 . S
H109 C114 0.928 . S
H110 C116 0.930 . S
C111 H108 0.931 . S
C111 C112 1.413 . S
C111 C113 1.360 . S
C112 C111 1.413 . S
C112 C116 1.429 . S
C113 C111 1.360 . S
C113 C114 1.372 . S
C114 H109 0.928 . S
C114 C113 1.372 . S
C114 C115 1.404 . S
C115 C114 1.404 . S
C115 C116 1.391 . S
C116 H110 0.930 . S
C116 C112 1.429 . S
C116 C115 1.391 . S
H117 C120 0.931 . S
H118 C123 0.928 . S
H119 C125 0.930 . S
C120 H117 0.931 . S
C120 C121 1.413 . S
C120 C122 1.360 . S
C121 C120 1.413 . S
C121 C125 1.429 . S
C122 C120 1.360 . S
C122 C123 1.372 . S
C123 H118 0.928 . S
C123 C122 1.372 . S
C123 C124 1.404 . S
C124 C123 1.404 . S
C124 C125 1.391 . S
C125 H119 0.930 . S
C125 C121 1.429 . S
C125 C124 1.391 . S
H126 C129 0.931 . S
H127 C132 0.928 . S
H128 C134 0.930 . S
C129 H126 0.931 . S
C129 C130 1.413 . S
C129 C131 1.360 . S
C130 C129 1.413 . S
C130 C134 1.429 . S
C131 C129 1.360 . S
C131 C132 1.372 . S
C132 H127 0.928 . S
C132 C131 1.372 . S
C132 C133 1.404 . S
C133 C132 1.404 . S
C133 C134 1.391 . S
C134 H128 0.930 . S
C134 C130 1.429 . S
C134 C133 1.391 . S
H135 C138 0.931 . S
H136 C141 0.928 . S
H137 C143 0.930 . S
C138 H135 0.931 . S
C138 C139 1.413 . S
C138 C140 1.360 . S
C139 C138 1.413 . S
C139 C143 1.429 . S
C140 C138 1.360 . S
C140 C141 1.372 . S
C141 H136 0.928 . S
C141 C140 1.372 . S
C141 C142 1.404 . S
C142 C141 1.404 . S
C142 C143 1.391 . S
C143 H137 0.930 . S
C143 C139 1.429 . S
C143 C142 1.391 . S
Zn144 O147 2.031 1_556 S
Zn144 O149 2.049 . S
Zn144 O154 2.067 . S
Zn145 O146 1.962 . S
Zn145 O148 1.986 . S
Zn145 O150 1.996 . S
Zn145 O153 1.943 1_554 S
O146 Zn145 1.962 . S
O146 C151 1.254 . S
O147 Zn144 2.031 1_554 S
O147 C151 1.269 . S
O148 Zn145 1.986 . S
O148 C155 1.262 . S
O149 Zn144 2.049 . S
O149 C157 1.260 . S
O150 Zn145 1.996 . S
O150 C157 1.257 1_554 S
C151 O146 1.254 . S
C151 O147 1.269 . S
C152 O153 1.249 . S
C152 O154 1.270 . S
O153 Zn145 1.943 1_556 S
O153 C152 1.249 . S
O154 Zn144 2.067 . S
O154 C152 1.270 . S
C155 O148 1.262 . S
C155 O156 1.232 . S
O156 C155 1.232 . S
C157 O149 1.260 . S
C157 O150 1.257 1_556 S
Zn158 O161 2.031 . S
Zn158 O163 2.049 . S
Zn158 O168 2.067 . S
Zn159 O160 1.962 . S
Zn159 O162 1.986 . S
Zn159 O164 1.996 . S
Zn159 O167 1.943 . S
O160 Zn159 1.962 . S
O160 C165 1.254 . S
O161 Zn158 2.031 . S
O161 C165 1.269 . S
O162 Zn159 1.986 . S
O162 C169 1.262 . S
O163 Zn158 2.049 . S
O163 C171 1.260 . S
O164 Zn159 1.996 . S
O164 C171 1.257 . S
C165 O160 1.254 . S
C165 O161 1.269 . S
C166 O167 1.249 . S
C166 O168 1.270 . S
O167 Zn159 1.943 . S
O167 C166 1.249 . S
O168 Zn158 2.067 . S
O168 C166 1.270 . S
C169 O162 1.262 . S
C169 O170 1.232 . S
O170 C169 1.232 . S
C171 O163 1.260 . S
C171 O164 1.257 . S
Zn172 O175 2.031 . S
Zn172 O177 2.049 . S
Zn172 O182 2.067 . S
Zn173 O174 1.962 . S
Zn173 O176 1.986 . S
Zn173 O178 1.996 1_554 S
Zn173 O181 1.943 . S
O174 Zn173 1.962 . S
O174 C179 1.254 . S
O175 Zn172 2.031 . S
O175 C179 1.269 1_556 S
O176 Zn173 1.986 . S
O176 C183 1.262 . S
O177 Zn172 2.049 . S
O177 C185 1.260 . S
O178 Zn173 1.996 1_556 S
O178 C185 1.257 . S
C179 O174 1.254 . S
C179 O175 1.269 1_554 S
C180 O181 1.249 1_556 S
C180 O182 1.270 . S
O181 Zn173 1.943 . S
O181 C180 1.249 1_554 S
O182 Zn172 2.067 . S
O182 C180 1.270 . S
C183 O176 1.262 . S
C183 O184 1.232 . S
O184 C183 1.232 . S
C185 O177 1.260 . S
C185 O178 1.257 . S
Zn186 O189 2.027 1_565 S
Zn186 O191 2.053 . S
Zn186 O196 2.074 . S
Zn187 O188 1.962 . S
Zn187 O190 1.986 . S
Zn187 O192 1.996 . S
Zn187 O195 1.943 1_545 S
O188 Zn187 1.962 . S
O188 C193 1.254 . S
O189 Zn186 2.027 1_545 S
O189 C193 1.269 . S
O190 Zn187 1.986 . S
O190 C197 1.262 . S
O191 Zn186 2.053 . S
O191 C199 1.260 . S
O192 Zn187 1.996 . S
O192 C199 1.257 1_545 S
C193 O188 1.254 . S
C193 O189 1.269 . S
C194 O195 1.249 . S
C194 O196 1.270 . S
O195 Zn187 1.943 1_565 S
O195 C194 1.249 . S
O196 Zn186 2.074 . S
O196 C194 1.270 . S
C197 O190 1.262 . S
C197 O198 1.232 . S
O198 C197 1.232 . S
C199 O191 1.260 . S
C199 O192 1.257 1_565 S
Zn200 O203 2.031 . S
Zn200 O205 2.049 . S
Zn200 O210 2.067 . S
Zn201 O202 1.962 . S
Zn201 O204 1.986 . S
Zn201 O206 1.996 . S
Zn201 O209 1.943 . S
O202 Zn201 1.962 . S
O202 C207 1.254 . S
O203 Zn200 2.031 . S
O203 C207 1.269 . S
O204 Zn201 1.986 . S
O204 C211 1.262 . S
O205 Zn200 2.049 . S
O205 C213 1.260 . S
O206 Zn201 1.996 . S
O206 C213 1.257 . S
C207 O202 1.254 . S
C207 O203 1.269 . S
C208 O209 1.249 . S
C208 O210 1.270 . S
O209 Zn201 1.943 . S
O209 C208 1.249 . S
O210 Zn200 2.067 . S
O210 C208 1.270 . S
C211 O204 1.262 . S
C211 O212 1.232 . S
O212 C211 1.232 . S
C213 O205 1.260 . S
C213 O206 1.257 . S
Zn214 O217 2.031 . S
Zn214 O219 2.049 . S
Zn214 O224 2.067 . S
Zn215 O216 1.962 . S
Zn215 O218 1.986 . S
Zn215 O220 1.996 . S
Zn215 O223 1.943 . S
O216 Zn215 1.962 . S
O216 C221 1.254 . S
O217 Zn214 2.031 . S
O217 C221 1.269 . S
O218 Zn215 1.986 . S
O218 C225 1.262 . S
O219 Zn214 2.049 . S
O219 C227 1.260 . S
O220 Zn215 1.996 . S
O220 C227 1.257 . S
C221 O216 1.254 . S
C221 O217 1.269 . S
C222 O223 1.249 . S
C222 O224 1.270 . S
O223 Zn215 1.943 . S
O223 C222 1.249 . S
O224 Zn214 2.067 . S
O224 C222 1.270 . S
C225 O218 1.262 . S
C225 O226 1.232 . S
O226 C225 1.232 . S
C227 O219 1.260 . S
C227 O220 1.257 . S
Zn228 O231 2.031 . S
Zn228 O233 2.049 . S
Zn228 O238 2.067 . S
Zn229 O230 1.962 . S
Zn229 O232 1.986 . S
Zn229 O234 1.996 . S
Zn229 O237 1.943 . S
O230 Zn229 1.962 . S
O230 C235 1.254 . S
O231 Zn228 2.031 . S
O231 C235 1.269 . S
O232 Zn229 1.986 . S
O232 C239 1.262 . S
O233 Zn228 2.049 . S
O233 C241 1.260 . S
O234 Zn229 1.996 . S
O234 C241 1.257 . S
C235 O230 1.254 . S
C235 O231 1.269 . S
C236 O237 1.249 . S
C236 O238 1.270 . S
O237 Zn229 1.943 . S
O237 C236 1.249 . S
O238 Zn228 2.067 . S
O238 C236 1.270 . S
C239 O232 1.262 . S
C239 O240 1.232 . S
O240 C239 1.232 . S
C241 O233 1.260 . S
C241 O234 1.257 . S
Zn242 O245 2.031 . S
Zn242 O247 2.049 . S
Zn242 O252 2.067 . S
Zn243 O244 1.962 . S
Zn243 O246 1.986 . S
Zn243 O248 1.996 1_545 S
Zn243 O251 1.943 . S
O244 Zn243 1.962 . S
O244 C249 1.254 . S
O245 Zn242 2.031 . S
O245 C249 1.269 1_565 S
O246 Zn243 1.986 . S
O246 C253 1.262 . S
O247 Zn242 2.049 . S
O247 C255 1.260 . S
O248 Zn243 1.996 1_565 S
O248 C255 1.257 . S
C249 O244 1.254 . S
C249 O245 1.269 1_545 S
C250 O251 1.249 1_565 S
C250 O252 1.270 . S
O251 Zn243 1.943 . S
O251 C250 1.249 1_545 S
O252 Zn242 2.067 . S
O252 C250 1.270 . S
C253 O246 1.262 . S
C253 O254 1.232 . S
O254 C253 1.232 . S
C255 O247 1.260 . S
C255 O248 1.257 . S
Zn256 O259 2.019 1_655 S
Zn256 O261 2.058 . S
Zn256 O266 2.084 . S
Zn257 O258 1.962 . S
Zn257 O260 1.986 . S
Zn257 O262 1.996 . S
Zn257 O265 1.943 1_455 S
O258 Zn257 1.962 . S
O258 C263 1.254 . S
O259 Zn256 2.019 1_455 S
O259 C263 1.269 . S
O260 Zn257 1.986 . S
O260 C267 1.262 . S
O261 Zn256 2.058 . S
O261 C269 1.260 . S
O262 Zn257 1.996 . S
O262 C269 1.257 1_455 S
C263 O258 1.254 . S
C263 O259 1.269 . S
C264 O265 1.249 . S
C264 O266 1.270 . S
O265 Zn257 1.943 1_655 S
O265 C264 1.249 . S
O266 Zn256 2.084 . S
O266 C264 1.270 . S
C267 O260 1.262 . S
C267 O268 1.232 . S
O268 C267 1.232 . S
C269 O261 1.260 . S
C269 O262 1.257 1_655 S
Zn270 O273 2.031 . S
Zn270 O275 2.049 . S
Zn270 O280 2.067 . S
Zn271 O272 1.962 . S
Zn271 O274 1.986 . S
Zn271 O276 1.996 . S
Zn271 O279 1.943 . S
O272 Zn271 1.962 . S
O272 C277 1.254 . S
O273 Zn270 2.031 . S
O273 C277 1.269 . S
O274 Zn271 1.986 . S
O274 C281 1.262 . S
O275 Zn270 2.049 . S
O275 C283 1.260 . S
O276 Zn271 1.996 . S
O276 C283 1.257 . S
C277 O272 1.254 . S
C277 O273 1.269 . S
C278 O279 1.249 . S
C278 O280 1.270 . S
O279 Zn271 1.943 . S
O279 C278 1.249 . S
O280 Zn270 2.067 . S
O280 C278 1.270 . S
C281 O274 1.262 . S
C281 O282 1.232 . S
O282 C281 1.232 . S
C283 O275 1.260 . S
C283 O276 1.257 . S
Zn284 O287 2.031 . S
Zn284 O289 2.049 . S
Zn284 O294 2.067 . S
Zn285 O286 1.962 . S
Zn285 O288 1.986 . S
Zn285 O290 1.996 1_455 S
Zn285 O293 1.943 . S
O286 Zn285 1.962 . S
O286 C291 1.254 . S
O287 Zn284 2.031 . S
O287 C291 1.269 1_655 S
O288 Zn285 1.986 . S
O288 C295 1.262 . S
O289 Zn284 2.049 . S
O289 C297 1.260 . S
O290 Zn285 1.996 1_655 S
O290 C297 1.257 . S
C291 O286 1.254 . S
C291 O287 1.269 1_455 S
C292 O293 1.249 1_655 S
C292 O294 1.270 . S
O293 Zn285 1.943 . S
O293 C292 1.249 1_455 S
O294 Zn284 2.067 . S
O294 C292 1.270 . S
C295 O288 1.262 . S
C295 O296 1.232 . S
O296 C295 1.232 . S
C297 O289 1.260 . S
C297 O290 1.257 . S
Zn298 O301 2.031 . S
Zn298 O303 2.049 . S
Zn298 O308 2.067 . S
Zn299 O300 1.962 . S
Zn299 O302 1.986 . S
Zn299 O304 1.996 . S
Zn299 O307 1.943 . S
O300 Zn299 1.962 . S
O300 C305 1.254 . S
O301 Zn298 2.031 . S
O301 C305 1.269 . S
O302 Zn299 1.986 . S
O302 C309 1.262 . S
O303 Zn298 2.049 . S
O303 C311 1.260 . S
O304 Zn299 1.996 . S
O304 C311 1.257 . S
C305 O300 1.254 . S
C305 O301 1.269 . S
C306 O307 1.249 . S
C306 O308 1.270 . S
O307 Zn299 1.943 . S
O307 C306 1.249 . S
O308 Zn298 2.067 . S
O308 C306 1.270 . S
C309 O302 1.262 . S
C309 O310 1.232 . S
O310 C309 1.232 . S
C311 O303 1.260 . S
C311 O304 1.257 . S
C312 C313 1.391 . S
C312 C314 1.394 . S
C312 H328 0.931 . S
C313 C312 1.391 . S
C313 C317 1.376 . S
C314 C312 1.394 . S
C314 C315 1.369 . S
C314 C318 1.531 . S
C315 C314 1.369 . S
C315 C316 1.410 . S
C315 C323 1.503 . S
C316 C315 1.410 . S
C316 C317 1.392 . S
C316 C319 1.511 . S
C317 C313 1.376 . S
C317 C316 1.392 . S
C317 H329 0.929 . S
C318 C314 1.531 . S
C318 H330 0.960 . S
C318 H331 0.962 . S
C318 H332 0.960 . S
C319 C316 1.511 . S
C319 H333 0.961 . S
C319 H334 0.961 . S
C319 H335 0.961 . S
C320 C321 1.370 . S
C320 C322 1.363 . S
C320 H336 0.931 . S
C321 C320 1.370 . S
C321 C325 1.408 . S
C322 C320 1.363 . S
C322 C323 1.370 . S
C322 C326 1.524 . S
C323 C315 1.503 . S
C323 C322 1.370 . S
C323 C324 1.403 . S
C324 C323 1.403 . S
C324 C325 1.404 . S
C324 C327 1.539 . S
C325 C321 1.408 . S
C325 C324 1.404 . S
C325 H337 0.930 . S
C326 C322 1.524 . S
C326 H338 0.956 . S
C326 H339 0.961 . S
C326 H340 0.961 . S
C327 C324 1.539 . S
C327 H341 0.958 . S
C327 H342 0.961 . S
C327 H343 0.960 . S
H328 C312 0.931 . S
H329 C317 0.929 . S
H330 C318 0.960 . S
H331 C318 0.962 . S
H332 C318 0.960 . S
H333 C319 0.961 . S
H334 C319 0.961 . S
H335 C319 0.961 . S
H336 C320 0.931 . S
H337 C325 0.930 . S
H338 C326 0.956 . S
H339 C326 0.961 . S
H340 C326 0.961 . S
H341 C327 0.958 . S
H342 C327 0.961 . S
H343 C327 0.960 . S
C344 C345 1.391 1_455 S
C344 C346 1.394 . S
C344 H360 0.931 . S
C345 C344 1.391 1_655 S
C345 C349 1.376 . S
C346 C344 1.394 . S
C346 C347 1.369 . S
C346 C350 1.531 . S
C347 C346 1.369 . S
C347 C348 1.410 . S
C347 C355 1.503 . S
C348 C347 1.410 . S
C348 C349 1.392 1_455 S
C348 C351 1.511 . S
C349 C345 1.376 . S
C349 C348 1.392 1_655 S
C349 H361 0.929 . S
C350 C346 1.531 . S
C350 H362 0.960 . S
C350 H363 0.962 . S
C350 H364 0.960 . S
C351 C348 1.511 . S
C351 H365 0.961 1_455 S
C351 H366 0.961 . S
C351 H367 0.961 1_455 S
C352 C353 1.370 . S
C352 C354 1.363 . S
C352 H368 0.931 . S
C353 C352 1.370 . S
C353 C357 1.408 . S
C354 C352 1.363 . S
C354 C355 1.370 . S
C354 C358 1.524 . S
C355 C347 1.503 . S
C355 C354 1.370 . S
C355 C356 1.403 . S
C356 C355 1.403 . S
C356 C357 1.404 . S
C356 C359 1.539 . S
C357 C353 1.408 . S
C357 C356 1.404 . S
C357 H369 0.930 . S
C358 C354 1.524 . S
C358 H370 0.956 . S
C358 H371 0.961 . S
C358 H372 0.961 . S
C359 C356 1.539 . S
C359 H373 0.958 . S
C359 H374 0.961 . S
C359 H375 0.960 1_455 S
H360 C344 0.931 . S
H361 C349 0.929 . S
H362 C350 0.960 . S
H363 C350 0.962 . S
H364 C350 0.960 . S
H365 C351 0.961 1_655 S
H366 C351 0.961 . S
H367 C351 0.961 1_655 S
H368 C352 0.931 . S
H369 C357 0.930 . S
H370 C358 0.956 . S
H371 C358 0.961 . S
H372 C358 0.961 . S
H373 C359 0.958 . S
H374 C359 0.961 . S
H375 C359 0.960 1_655 S
C376 C377 1.391 . S
C376 C378 1.394 . S
C376 H392 0.931 . S
C377 C376 1.391 . S
C377 C381 1.376 . S
C378 C376 1.394 . S
C378 C379 1.369 . S
C378 C382 1.531 . S
C379 C378 1.369 . S
C379 C380 1.410 . S
C379 C387 1.503 . S
C380 C379 1.410 . S
C380 C381 1.392 . S
C380 C383 1.511 . S
C381 C377 1.376 . S
C381 C380 1.392 . S
C381 H393 0.929 . S
C382 C378 1.531 . S
C382 H394 0.960 . S
C382 H395 0.962 . S
C382 H396 0.960 . S
C383 C380 1.511 . S
C383 H397 0.961 . S
C383 H398 0.961 . S
C383 H399 0.961 . S
C384 C385 1.370 . S
C384 C386 1.363 . S
C384 H400 0.931 . S
C385 C384 1.370 . S
C385 C389 1.408 . S
C386 C384 1.363 . S
C386 C387 1.370 . S
C386 C390 1.524 . S
C387 C379 1.503 . S
C387 C386 1.370 . S
C387 C388 1.403 . S
C388 C387 1.403 . S
C388 C389 1.404 . S
C388 C391 1.539 . S
C389 C385 1.408 . S
C389 C388 1.404 . S
C389 H401 0.930 . S
C390 C386 1.524 . S
C390 H402 0.956 . S
C390 H403 0.961 . S
C390 H404 0.961 . S
C391 C388 1.539 . S
C391 H405 0.958 . S
C391 H406 0.961 . S
C391 H407 0.960 . S
H392 C376 0.931 . S
H393 C381 0.929 . S
H394 C382 0.960 . S
H395 C382 0.962 . S
H396 C382 0.960 . S
H397 C383 0.961 . S
H398 C383 0.961 . S
H399 C383 0.961 . S
H400 C384 0.931 . S
H401 C389 0.930 . S
H402 C390 0.956 . S
H403 C390 0.961 . S
H404 C390 0.961 . S
H405 C391 0.958 . S
H406 C391 0.961 . S
H407 C391 0.960 . S
C408 C409 1.391 . S
C408 C410 1.394 . S
C408 H424 0.931 . S
C409 C408 1.391 . S
C409 C413 1.376 1_455 S
C410 C408 1.394 . S
C410 C411 1.369 1_455 S
C410 C414 1.531 . S
C411 C410 1.369 1_655 S
C411 C412 1.410 . S
C411 C419 1.503 . S
C412 C411 1.410 . S
C412 C413 1.392 . S
C412 C415 1.511 . S
C413 C409 1.376 1_655 S
C413 C412 1.392 . S
C413 H425 0.929 . S
C414 C410 1.531 . S
C414 H426 0.960 . S
C414 H427 0.962 . S
C414 H428 0.960 . S
C415 C412 1.511 . S
C415 H429 0.961 . S
C415 H430 0.961 . S
C415 H431 0.961 . S
C416 C417 1.370 1_545 S
C416 C418 1.363 1_545 S
C416 H432 0.931 . S
C417 C416 1.370 1_565 S
C417 C421 1.408 . S
C418 C416 1.363 1_565 S
C418 C419 1.370 . S
C418 C422 1.524 1_565 S
C419 C411 1.503 . S
C419 C418 1.370 . S
C419 C420 1.403 . S
C420 C419 1.403 . S
C420 C421 1.404 . S
C420 C423 1.539 . S
C421 C417 1.408 . S
C421 C420 1.404 . S
C421 H433 0.930 . S
C422 C418 1.524 1_545 S
C422 H434 0.956 . S
C422 H435 0.961 . S
C422 H436 0.961 . S
C423 C420 1.539 . S
C423 H437 0.958 . S
C423 H438 0.961 . S
C423 H439 0.960 . S
H424 C408 0.931 . S
H425 C413 0.929 . S
H426 C414 0.960 . S
H427 C414 0.962 . S
H428 C414 0.960 . S
H429 C415 0.961 . S
H430 C415 0.961 . S
H431 C415 0.961 . S
H432 C416 0.931 . S
H433 C421 0.930 . S
H434 C422 0.956 . S
H435 C422 0.961 . S
H436 C422 0.961 . S
H437 C423 0.958 . S
H438 C423 0.961 . S
H439 C423 0.960 . S
C440 C441 1.391 . S
C440 C442 1.394 . S
C440 H456 0.931 . S
C441 C440 1.391 . S
C441 C445 1.376 . S
C442 C440 1.394 . S
C442 C443 1.369 . S
C442 C446 1.531 . S
C443 C442 1.369 . S
C443 C444 1.410 . S
C443 C451 1.503 . S
C444 C443 1.410 . S
C444 C445 1.392 . S
C444 C447 1.511 . S
C445 C441 1.376 . S
C445 C444 1.392 . S
C445 H457 0.929 . S
C446 C442 1.531 . S
C446 H458 0.960 . S
C446 H459 0.962 . S
C446 H460 0.960 . S
C447 C444 1.511 . S
C447 H461 0.961 . S
C447 H462 0.961 . S
C447 H463 0.961 . S
C448 C449 1.370 . S
C448 C450 1.363 . S
C448 H464 0.931 . S
C449 C448 1.370 . S
C449 C453 1.408 . S
C450 C448 1.363 . S
C450 C451 1.370 . S
C450 C454 1.524 . S
C451 C443 1.503 . S
C451 C450 1.370 . S
C451 C452 1.403 . S
C452 C451 1.403 . S
C452 C453 1.404 . S
C452 C455 1.539 . S
C453 C449 1.408 . S
C453 C452 1.404 . S
C453 H465 0.930 . S
C454 C450 1.524 . S
C454 H466 0.956 . S
C454 H467 0.961 . S
C454 H468 0.961 . S
C455 C452 1.539 . S
C455 H469 0.958 . S
C455 H470 0.961 . S
C455 H471 0.960 . S
H456 C440 0.931 . S
H457 C445 0.929 . S
H458 C446 0.960 . S
H459 C446 0.962 . S
H460 C446 0.960 . S
H461 C447 0.961 . S
H462 C447 0.961 . S
H463 C447 0.961 . S
H464 C448 0.931 . S
H465 C453 0.930 . S
H466 C454 0.956 . S
H467 C454 0.961 . S
H468 C454 0.961 . S
H469 C455 0.958 . S
H470 C455 0.961 . S
H471 C455 0.960 . S
C472 C473 1.391 . S
C472 C474 1.394 . S
C472 H488 0.931 . S
C473 C472 1.391 . S
C473 C477 1.376 . S
C474 C472 1.394 . S
C474 C475 1.369 . S
C474 C478 1.531 . S
C475 C474 1.369 . S
C475 C476 1.410 . S
C475 C483 1.503 . S
C476 C475 1.410 . S
C476 C477 1.392 . S
C476 C479 1.511 . S
C477 C473 1.376 . S
C477 C476 1.392 . S
C477 H489 0.929 . S
C478 C474 1.531 . S
C478 H490 0.960 . S
C478 H491 0.962 . S
C478 H492 0.960 . S
C479 C476 1.511 . S
C479 H493 0.961 . S
C479 H494 0.961 . S
C479 H495 0.961 . S
C480 C481 1.370 . S
C480 C482 1.363 . S
C480 H496 0.931 . S
C481 C480 1.370 . S
C481 C485 1.408 . S
C482 C480 1.363 . S
C482 C483 1.370 . S
C482 C486 1.524 . S
C483 C475 1.503 . S
C483 C482 1.370 . S
C483 C484 1.403 . S
C484 C483 1.403 . S
C484 C485 1.404 . S
C484 C487 1.539 . S
C485 C481 1.408 . S
C485 C484 1.404 . S
C485 H497 0.930 . S
C486 C482 1.524 . S
C486 H498 0.956 . S
C486 H499 0.961 . S
C486 H500 0.961 . S
C487 C484 1.539 . S
C487 H501 0.958 . S
C487 H502 0.961 . S
C487 H503 0.960 . S
H488 C472 0.931 . S
H489 C477 0.929 . S
H490 C478 0.960 . S
H491 C478 0.962 . S
H492 C478 0.960 . S
H493 C479 0.961 . S
H494 C479 0.961 . S
H495 C479 0.961 . S
H496 C480 0.931 . S
H497 C485 0.930 . S
H498 C486 0.956 . S
H499 C486 0.961 . S
H500 C486 0.961 . S
H501 C487 0.958 . S
H502 C487 0.961 . S
H503 C487 0.960 . S
C504 C505 1.391 . S
C504 C506 1.394 . S
C504 H520 0.931 . S
C505 C504 1.391 . S
C505 C509 1.376 . S
C506 C504 1.394 . S
C506 C507 1.369 . S
C506 C510 1.531 . S
C507 C506 1.369 . S
C507 C508 1.410 . S
C507 C515 1.503 . S
C508 C507 1.410 . S
C508 C509 1.392 . S
C508 C511 1.511 . S
C509 C505 1.376 . S
C509 C508 1.392 . S
C509 H521 0.929 . S
C510 C506 1.531 . S
C510 H522 0.960 . S
C510 H523 0.962 . S
C510 H524 0.960 . S
C511 C508 1.511 . S
C511 H525 0.961 . S
C511 H526 0.961 . S
C511 H527 0.961 . S
C512 C513 1.370 . S
C512 C514 1.363 . S
C512 H528 0.931 . S
C513 C512 1.370 . S
C513 C517 1.408 . S
C514 C512 1.363 . S
C514 C515 1.370 . S
C514 C518 1.524 . S
C515 C507 1.503 . S
C515 C514 1.370 . S
C515 C516 1.403 . S
C516 C515 1.403 . S
C516 C517 1.404 . S
C516 C519 1.539 . S
C517 C513 1.408 . S
C517 C516 1.404 . S
C517 H529 0.930 . S
C518 C514 1.524 . S
C518 H530 0.956 . S
C518 H531 0.961 . S
C518 H532 0.961 . S
C519 C516 1.539 . S
C519 H533 0.958 . S
C519 H534 0.961 . S
C519 H535 0.960 . S
H520 C504 0.931 . S
H521 C509 0.929 . S
H522 C510 0.960 . S
H523 C510 0.962 . S
H524 C510 0.960 . S
H525 C511 0.961 . S
H526 C511 0.961 . S
H527 C511 0.961 . S
H528 C512 0.931 . S
H529 C517 0.930 . S
H530 C518 0.956 . S
H531 C518 0.961 . S
H532 C518 0.961 . S
H533 C519 0.958 . S
H534 C519 0.961 . S
H535 C519 0.960 . S
C536 C537 1.391 . S
C536 C538 1.394 . S
C536 H552 0.931 . S
C537 C536 1.391 . S
C537 C541 1.376 . S
C538 C536 1.394 . S
C538 C539 1.369 . S
C538 C542 1.531 . S
C539 C538 1.369 . S
C539 C540 1.410 . S
C539 C547 1.503 . S
C540 C539 1.410 . S
C540 C541 1.392 . S
C540 C543 1.511 1_565 S
C541 C537 1.376 . S
C541 C540 1.392 . S
C541 H553 0.929 . S
C542 C538 1.531 . S
C542 H554 0.960 . S
C542 H555 0.962 . S
C542 H556 0.960 . S
C543 C540 1.511 1_545 S
C543 H557 0.961 . S
C543 H558 0.961 . S
C543 H559 0.961 . S
C544 C545 1.370 . S
C544 C546 1.363 . S
C544 H560 0.931 . S
C545 C544 1.370 . S
C545 C549 1.408 1_565 S
C546 C544 1.363 . S
C546 C547 1.370 . S
C546 C550 1.524 . S
C547 C539 1.503 . S
C547 C546 1.370 . S
C547 C548 1.403 1_565 S
C548 C547 1.403 1_545 S
C548 C549 1.404 . S
C548 C551 1.539 . S
C549 C545 1.408 1_545 S
C549 C548 1.404 . S
C549 H561 0.930 . S
C550 C546 1.524 . S
C550 H562 0.956 . S
C550 H563 0.961 . S
C550 H564 0.961 . S
C551 C548 1.539 . S
C551 H565 0.958 . S
C551 H566 0.961 . S
C551 H567 0.960 . S
H552 C536 0.931 . S
H553 C541 0.929 . S
H554 C542 0.960 . S
H555 C542 0.962 . S
H556 C542 0.960 . S
H557 C543 0.961 . S
H558 C543 0.961 . S
H559 C543 0.961 . S
H560 C544 0.931 . S
H561 C549 0.930 . S
H562 C550 0.956 . S
H563 C550 0.961 . S
H564 C550 0.961 . S
H565 C551 0.958 . S
H566 C551 0.961 . S
H567 C551 0.960 . S
C568 C569 1.391 . S
C568 C570 1.394 . S
C568 H584 0.931 . S
C569 C568 1.391 . S
C569 C573 1.376 . S
C570 C568 1.394 . S
C570 C571 1.369 . S
C570 C574 1.531 . S
C571 C570 1.369 . S
C571 C572 1.410 . S
C571 C579 1.503 . S
C572 C571 1.410 . S
C572 C573 1.392 . S
C572 C575 1.511 . S
C573 C569 1.376 . S
C573 C572 1.392 . S
C573 H585 0.929 . S
C574 C570 1.531 . S
C574 H586 0.960 . S
C574 H587 0.962 . S
C574 H588 0.960 . S
C575 C572 1.511 . S
C575 H589 0.961 . S
C575 H590 0.961 . S
C575 H591 0.961 . S
C576 C577 1.370 . S
C576 C578 1.363 . S
C576 H592 0.931 . S
C577 C576 1.370 . S
C577 C581 1.408 . S
C578 C576 1.363 . S
C578 C579 1.370 . S
C578 C582 1.524 . S
C579 C571 1.503 . S
C579 C578 1.370 . S
C579 C580 1.403 . S
C580 C579 1.403 . S
C580 C581 1.404 . S
C580 C583 1.539 . S
C581 C577 1.408 . S
C581 C580 1.404 . S
C581 H593 0.930 . S
C582 C578 1.524 . S
C582 H594 0.956 . S
C582 H595 0.961 . S
C582 H596 0.961 . S
C583 C580 1.539 . S
C583 H597 0.958 . S
C583 H598 0.961 . S
C583 H599 0.960 . S
H584 C568 0.931 . S
H585 C573 0.929 . S
H586 C574 0.960 . S
H587 C574 0.962 . S
H588 C574 0.960 . S
H589 C575 0.961 . S
H590 C575 0.961 . S
H591 C575 0.961 . S
H592 C576 0.931 . S
H593 C581 0.930 . S
H594 C582 0.956 . S
H595 C582 0.961 . S
H596 C582 0.961 . S
H597 C583 0.958 . S
H598 C583 0.961 . S
H599 C583 0.960 . S
C600 C601 1.391 . S
C600 C602 1.394 . S
C600 H616 0.931 . S
C601 C600 1.391 . S
C601 C605 1.376 . S
C602 C600 1.394 . S
C602 C603 1.369 . S
C602 C606 1.531 . S
C603 C602 1.369 . S
C603 C604 1.410 . S
C603 C611 1.503 . S
C604 C603 1.410 . S
C604 C605 1.392 . S
C604 C607 1.511 . S
C605 C601 1.376 . S
C605 C604 1.392 . S
C605 H617 0.929 . S
C606 C602 1.531 . S
C606 H618 0.960 . S
C606 H619 0.962 . S
C606 H620 0.960 . S
C607 C604 1.511 . S
C607 H621 0.961 . S
C607 H622 0.961 . S
C607 H623 0.961 . S
C608 C609 1.370 . S
C608 C610 1.363 . S
C608 H624 0.931 . S
C609 C608 1.370 . S
C609 C613 1.408 . S
C610 C608 1.363 . S
C610 C611 1.370 . S
C610 C614 1.524 . S
C611 C603 1.503 . S
C611 C610 1.370 . S
C611 C612 1.403 . S
C612 C611 1.403 . S
C612 C613 1.404 . S
C612 C615 1.539 . S
C613 C609 1.408 . S
C613 C612 1.404 . S
C613 H625 0.930 . S
C614 C610 1.524 . S
C614 H626 0.956 . S
C614 H627 0.961 . S
C614 H628 0.961 . S
C615 C612 1.539 . S
C615 H629 0.958 . S
C615 H630 0.961 . S
C615 H631 0.960 . S
H616 C600 0.931 . S
H617 C605 0.929 . S
H618 C606 0.960 . S
H619 C606 0.962 . S
H620 C606 0.960 . S
H621 C607 0.961 . S
H622 C607 0.961 . S
H623 C607 0.961 . S
H624 C608 0.931 . S
H625 C613 0.930 . S
H626 C614 0.956 . S
H627 C614 0.961 . S
H628 C614 0.961 . S
H629 C615 0.958 . S
H630 C615 0.961 . S
H631 C615 0.960 . S
C632 C633 1.391 . S
C632 C634 1.394 . S
C632 H648 0.931 . S
C633 C632 1.391 . S
C633 C637 1.376 . S
C634 C632 1.394 . S
C634 C635 1.369 . S
C634 C638 1.531 . S
C635 C634 1.369 . S
C635 C636 1.410 . S
C635 C643 1.503 . S
C636 C635 1.410 . S
C636 C637 1.392 . S
C636 C639 1.511 . S
C637 C633 1.376 . S
C637 C636 1.392 . S
C637 H649 0.929 . S
C638 C634 1.531 . S
C638 H650 0.960 . S
C638 H651 0.962 . S
C638 H652 0.960 . S
C639 C636 1.511 . S
C639 H653 0.961 . S
C639 H654 0.961 . S
C639 H655 0.961 . S
C640 C641 1.370 . S
C640 C642 1.363 . S
C640 H656 0.931 . S
C641 C640 1.370 . S
C641 C645 1.408 . S
C642 C640 1.363 . S
C642 C643 1.370 . S
C642 C646 1.524 . S
C643 C635 1.503 . S
C643 C642 1.370 . S
C643 C644 1.403 . S
C644 C643 1.403 . S
C644 C645 1.404 . S
C644 C647 1.539 . S
C645 C641 1.408 . S
C645 C644 1.404 . S
C645 H657 0.930 . S
C646 C642 1.524 . S
C646 H658 0.956 . S
C646 H659 0.961 . S
C646 H660 0.961 . S
C647 C644 1.539 . S
C647 H661 0.958 . S
C647 H662 0.961 . S
C647 H663 0.960 . S
H648 C632 0.931 . S
H649 C637 0.929 . S
H650 C638 0.960 . S
H651 C638 0.962 . S
H652 C638 0.960 . S
H653 C639 0.961 . S
H654 C639 0.961 . S
H655 C639 0.961 . S
H656 C640 0.931 . S
H657 C645 0.930 . S
H658 C646 0.956 . S
H659 C646 0.961 . S
H660 C646 0.961 . S
H661 C647 0.958 . S
H662 C647 0.961 . S
H663 C647 0.960 . S
C664 C665 1.391 . S
C664 C666 1.394 . S
C664 H680 0.931 . S
C665 C664 1.391 . S
C665 C669 1.376 . S
C666 C664 1.394 . S
C666 C667 1.369 . S
C666 C670 1.531 . S
C667 C666 1.369 . S
C667 C668 1.410 . S
C667 C675 1.503 . S
C668 C667 1.410 . S
C668 C669 1.392 . S
C668 C671 1.511 . S
C669 C665 1.376 . S
C669 C668 1.392 . S
C669 H681 0.929 . S
C670 C666 1.531 . S
C670 H682 0.960 . S
C670 H683 0.962 . S
C670 H684 0.960 . S
C671 C668 1.511 . S
C671 H685 0.961 . S
C671 H686 0.961 . S
C671 H687 0.961 . S
C672 C673 1.370 . S
C672 C674 1.363 . S
C672 H688 0.931 . S
C673 C672 1.370 . S
C673 C677 1.408 . S
C674 C672 1.363 . S
C674 C675 1.370 . S
C674 C678 1.524 . S
C675 C667 1.503 . S
C675 C674 1.370 . S
C675 C676 1.403 . S
C676 C675 1.403 . S
C676 C677 1.404 . S
C676 C679 1.539 . S
C677 C673 1.408 . S
C677 C676 1.404 . S
C677 H689 0.930 . S
C678 C674 1.524 . S
C678 H690 0.956 . S
C678 H691 0.961 . S
C678 H692 0.961 . S
C679 C676 1.539 . S
C679 H693 0.958 . S
C679 H694 0.961 . S
C679 H695 0.960 . S
H680 C664 0.931 . S
H681 C669 0.929 . S
H682 C670 0.960 . S
H683 C670 0.962 . S
H684 C670 0.960 . S
H685 C671 0.961 . S
H686 C671 0.961 . S
H687 C671 0.961 . S
H688 C672 0.931 . S
H689 C677 0.930 . S
H690 C678 0.956 . S
H691 C678 0.961 . S
H692 C678 0.961 . S
H693 C679 0.958 . S
H694 C679 0.961 . S
H695 C679 0.960 . S
C696 C697 1.391 . S
C696 C698 1.394 . S
C696 H712 0.931 . S
C697 C696 1.391 . S
C697 C701 1.376 . S
C698 C696 1.394 . S
C698 C699 1.369 . S
C698 C702 1.531 . S
C699 C698 1.369 . S
C699 C700 1.410 . S
C699 C707 1.503 . S
C700 C699 1.410 . S
C700 C701 1.392 . S
C700 C703 1.511 . S
C701 C697 1.376 . S
C701 C700 1.392 . S
C701 H713 0.929 . S
C702 C698 1.531 . S
C702 H714 0.960 . S
C702 H715 0.962 . S
C702 H716 0.960 . S
C703 C700 1.511 . S
C703 H717 0.961 . S
C703 H718 0.961 . S
C703 H719 0.961 . S
C704 C705 1.370 . S
C704 C706 1.363 . S
C704 H720 0.931 . S
C705 C704 1.370 . S
C705 C709 1.408 . S
C706 C704 1.363 . S
C706 C707 1.370 . S
C706 C710 1.524 . S
C707 C699 1.503 . S
C707 C706 1.370 . S
C707 C708 1.403 . S
C708 C707 1.403 . S
C708 C709 1.404 . S
C708 C711 1.539 . S
C709 C705 1.408 . S
C709 C708 1.404 . S
C709 H721 0.930 . S
C710 C706 1.524 . S
C710 H722 0.956 . S
C710 H723 0.961 . S
C710 H724 0.961 . S
C711 C708 1.539 . S
C711 H725 0.958 . S
C711 H726 0.961 . S
C711 H727 0.960 . S
H712 C696 0.931 . S
H713 C701 0.929 . S
H714 C702 0.960 . S
H715 C702 0.962 . S
H716 C702 0.960 . S
H717 C703 0.961 . S
H718 C703 0.961 . S
H719 C703 0.961 . S
H720 C704 0.931 . S
H721 C709 0.930 . S
H722 C710 0.956 . S
H723 C710 0.961 . S
H724 C710 0.961 . S
H725 C711 0.958 . S
H726 C711 0.961 . S
H727 C711 0.960 . S
C728 C729 1.391 . S
C728 C730 1.394 . S
C728 H744 0.931 . S
C729 C728 1.391 . S
C729 C733 1.376 . S
C730 C728 1.394 . S
C730 C731 1.369 . S
C730 C734 1.531 . S
C731 C730 1.369 . S
C731 C732 1.410 . S
C731 C739 1.503 . S
C732 C731 1.410 . S
C732 C733 1.392 . S
C732 C735 1.511 . S
C733 C729 1.376 . S
C733 C732 1.392 . S
C733 H745 0.929 . S
C734 C730 1.531 . S
C734 H746 0.960 . S
C734 H747 0.962 . S
C734 H748 0.960 . S
C735 C732 1.511 . S
C735 H749 0.961 . S
C735 H750 0.961 . S
C735 H751 0.922 1_455 S
C736 C737 1.370 . S
C736 C738 1.363 . S
C736 H752 0.931 . S
C737 C736 1.370 . S
C737 C741 1.408 1_455 S
C738 C736 1.363 . S
C738 C739 1.370 . S
C738 C742 1.524 . S
C739 C731 1.503 . S
C739 C738 1.370 . S
C739 C740 1.403 . S
C740 C739 1.403 . S
C740 C741 1.404 1_455 S
C740 C743 1.539 1_455 S
C741 C737 1.408 1_655 S
C741 C740 1.404 1_655 S
C741 H753 0.930 . S
C742 C738 1.524 . S
C742 H754 0.956 . S
C742 H755 0.961 . S
C742 H756 0.961 . S
C743 C740 1.539 1_655 S
C743 H757 0.958 . S
C743 H758 0.961 . S
C743 H759 0.960 . S
H744 C728 0.931 . S
H745 C733 0.929 . S
H746 C734 0.960 . S
H747 C734 0.962 . S
H748 C734 0.960 . S
H749 C735 0.961 . S
H750 C735 0.961 . S
H751 C735 0.922 1_655 S
H752 C736 0.931 . S
H753 C741 0.930 . S
H754 C742 0.956 . S
H755 C742 0.961 . S
H756 C742 0.961 . S
H757 C743 0.958 . S
H758 C743 0.961 . S
H759 C743 0.960 . S
C760 C761 1.391 . S
C760 C762 1.394 . S
C760 H776 0.931 . S
C761 C760 1.391 . S
C761 C765 1.376 . S
C762 C760 1.394 . S
C762 C763 1.369 . S
C762 C766 1.531 . S
C763 C762 1.369 . S
C763 C764 1.410 . S
C763 C771 1.503 . S
C764 C763 1.410 . S
C764 C765 1.392 . S
C764 C767 1.511 . S
C765 C761 1.376 . S
C765 C764 1.392 . S
C765 H777 0.929 . S
C766 C762 1.531 . S
C766 H778 0.960 . S
C766 H779 0.962 . S
C766 H780 0.960 . S
C767 C764 1.511 . S
C767 H781 0.961 . S
C767 H782 0.961 . S
C767 H783 0.961 . S
C768 C769 1.370 . S
C768 C770 1.363 . S
C768 H784 0.931 . S
C769 C768 1.370 . S
C769 C773 1.408 . S
C770 C768 1.363 . S
C770 C771 1.370 . S
C770 C774 1.524 . S
C771 C763 1.503 . S
C771 C770 1.370 . S
C771 C772 1.403 . S
C772 C771 1.403 . S
C772 C773 1.404 . S
C772 C775 1.539 . S
C773 C769 1.408 . S
C773 C772 1.404 . S
C773 H785 0.930 . S
C774 C770 1.524 . S
C774 H786 0.956 . S
C774 H787 0.961 . S
C774 H788 0.961 . S
C775 C772 1.539 . S
C775 H789 0.958 . S
C775 H790 0.961 . S
C775 H791 0.960 . S
H776 C760 0.931 . S
H777 C765 0.929 . S
H778 C766 0.960 . S
H779 C766 0.962 . S
H780 C766 0.960 . S
H781 C767 0.961 . S
H782 C767 0.961 . S
H783 C767 0.961 . S
H784 C768 0.931 . S
H785 C773 0.930 . S
H786 C774 0.956 . S
H787 C774 0.961 . S
H788 C774 0.961 . S
H789 C775 0.958 . S
H790 C775 0.961 . S
H791 C775 0.960 . S
C792 C793 1.391 . S
C792 C794 1.394 . S
C792 H808 0.931 . S
C793 C792 1.391 . S
C793 C797 1.376 . S
C794 C792 1.394 . S
C794 C795 1.369 . S
C794 C798 1.531 . S
C795 C794 1.369 . S
C795 C796 1.410 . S
C795 C803 1.503 . S
C796 C795 1.410 . S
C796 C797 1.392 . S
C796 C799 1.511 . S
C797 C793 1.376 . S
C797 C796 1.392 . S
C797 H809 0.929 . S
C798 C794 1.531 . S
C798 H810 0.960 . S
C798 H811 0.962 . S
C798 H812 0.960 . S
C799 C796 1.511 . S
C799 H813 0.961 . S
C799 H814 0.961 . S
C799 H815 0.961 1_655 S
C800 C801 1.370 . S
C800 C802 1.363 . S
C800 H816 0.931 . S
C801 C800 1.370 . S
C801 C805 1.408 1_655 S
C802 C800 1.363 . S
C802 C803 1.370 . S
C802 C806 1.524 . S
C803 C795 1.503 . S
C803 C802 1.370 . S
C803 C804 1.403 1_655 S
C804 C803 1.403 1_455 S
C804 C805 1.404 . S
C804 C807 1.539 . S
C805 C801 1.408 1_455 S
C805 C804 1.404 . S
C805 H817 0.930 . S
C806 C802 1.524 . S
C806 H818 0.956 . S
C806 H819 0.961 . S
C806 H820 0.961 . S
C807 C804 1.539 . S
C807 H821 0.958 . S
C807 H822 0.961 . S
C807 H823 0.960 . S
H808 C792 0.931 . S
H809 C797 0.929 . S
H810 C798 0.960 . S
H811 C798 0.962 . S
H812 C798 0.960 . S
H813 C799 0.961 . S
H814 C799 0.961 . S
H815 C799 0.961 1_455 S
H816 C800 0.931 . S
H817 C805 0.930 . S
H818 C806 0.956 . S
H819 C806 0.961 . S
H820 C806 0.961 . S
H821 C807 0.958 . S
H822 C807 0.961 . S
H823 C807 0.960 . S
C824 C825 1.391 . S
C824 C826 1.394 . S
C824 H840 0.931 . S
C825 C824 1.391 . S
C825 C829 1.376 . S
C826 C824 1.394 . S
C826 C827 1.369 . S
C826 C830 1.531 . S
C827 C826 1.369 . S
C827 C828 1.410 . S
C827 C835 1.503 . S
C828 C827 1.410 . S
C828 C829 1.392 . S
C828 C831 1.511 . S
C829 C825 1.376 . S
C829 C828 1.392 . S
C829 H841 0.929 . S
C830 C826 1.531 . S
C830 H842 0.960 . S
C830 H843 0.962 . S
C830 H844 0.960 . S
C831 C828 1.511 . S
C831 H845 0.961 . S
C831 H846 0.961 . S
C831 H847 0.961 . S
C832 C833 1.370 . S
C832 C834 1.363 . S
C832 H848 0.931 . S
C833 C832 1.370 . S
C833 C837 1.408 . S
C834 C832 1.363 . S
C834 C835 1.370 . S
C834 C838 1.524 . S
C835 C827 1.503 . S
C835 C834 1.370 . S
C835 C836 1.403 . S
C836 C835 1.403 . S
C836 C837 1.404 . S
C836 C839 1.539 . S
C837 C833 1.408 . S
C837 C836 1.404 . S
C837 H849 0.930 . S
C838 C834 1.524 . S
C838 H850 0.956 . S
C838 H851 0.961 . S
C838 H852 0.961 . S
C839 C836 1.539 . S
C839 H853 0.958 . S
C839 H854 0.961 . S
C839 H855 0.960 . S
H840 C824 0.931 . S
H841 C829 0.929 . S
H842 C830 0.960 . S
H843 C830 0.962 . S
H844 C830 0.960 . S
H845 C831 0.961 . S
H846 C831 0.961 . S
H847 C831 0.961 . S
H848 C832 0.931 . S
H849 C837 0.930 . S
H850 C838 0.956 . S
H851 C838 0.961 . S
H852 C838 0.961 . S
H853 C839 0.958 . S
H854 C839 0.961 . S
H855 C839 0.960 . S
C856 C857 1.391 . S
C856 C858 1.394 . S
C856 H872 0.931 . S
C857 C856 1.391 . S
C857 C861 1.376 . S
C858 C856 1.394 . S
C858 C859 1.369 . S
C858 C862 1.531 . S
C859 C858 1.369 . S
C859 C860 1.410 . S
C859 C867 1.503 . S
C860 C859 1.410 . S
C860 C861 1.392 . S
C860 C863 1.511 . S
C861 C857 1.376 . S
C861 C860 1.392 . S
C861 H873 0.929 . S
C862 C858 1.531 . S
C862 H874 0.960 . S
C862 H875 0.962 . S
C862 H876 0.960 . S
C863 C860 1.511 . S
C863 H877 0.961 . S
C863 H878 0.961 . S
C863 H879 0.961 . S
C864 C865 1.370 . S
C864 C866 1.363 . S
C864 H880 0.931 . S
C865 C864 1.370 . S
C865 C869 1.408 . S
C866 C864 1.363 . S
C866 C867 1.370 . S
C866 C870 1.524 . S
C867 C859 1.503 . S
C867 C866 1.370 . S
C867 C868 1.403 . S
C868 C867 1.403 . S
C868 C869 1.404 . S
C868 C871 1.539 . S
C869 C865 1.408 . S
C869 C868 1.404 . S
C869 H881 0.930 . S
C870 C866 1.524 . S
C870 H882 0.956 . S
C870 H883 0.961 . S
C870 H884 0.961 . S
C871 C868 1.539 . S
C871 H885 0.958 . S
C871 H886 0.961 . S
C871 H887 0.960 . S
H872 C856 0.931 . S
H873 C861 0.929 . S
H874 C862 0.960 . S
H875 C862 0.962 . S
H876 C862 0.960 . S
H877 C863 0.961 . S
H878 C863 0.961 . S
H879 C863 0.961 . S
H880 C864 0.931 . S
H881 C869 0.930 . S
H882 C870 0.956 . S
H883 C870 0.961 . S
H884 C870 0.961 . S
H885 C871 0.958 . S
H886 C871 0.961 . S
H887 C871 0.960 . S
C888 C889 1.391 . S
C888 C890 1.394 . S
C888 H904 0.931 . S
C889 C888 1.391 . S
C889 C893 1.376 1_545 S
C890 C888 1.394 . S
C890 C891 1.369 1_545 S
C890 C894 1.531 . S
C891 C890 1.369 1_565 S
C891 C892 1.410 . S
C891 C899 1.503 . S
C892 C891 1.410 . S
C892 C893 1.392 . S
C892 C895 1.511 . S
C893 C889 1.376 1_565 S
C893 C892 1.392 . S
C893 H905 0.929 . S
C894 C890 1.531 . S
C894 H906 0.960 . S
C894 H907 0.962 . S
C894 H908 0.960 . S
C895 C892 1.511 . S
C895 H909 0.961 . S
C895 H910 0.961 . S
C895 H911 0.961 . S
C896 C897 1.370 1_554 S
C896 C898 1.363 1_554 S
C896 H912 0.931 . S
C897 C896 1.370 1_556 S
C897 C901 1.408 . S
C898 C896 1.363 1_556 S
C898 C899 1.370 . S
C898 C902 1.524 1_556 S
C899 C891 1.503 . S
C899 C898 1.370 . S
C899 C900 1.403 . S
C900 C899 1.403 . S
C900 C901 1.404 . S
C900 C903 1.539 . S
C901 C897 1.408 . S
C901 C900 1.404 . S
C901 H913 0.930 . S
C902 C898 1.524 1_554 S
C902 H914 0.956 . S
C902 H915 0.961 . S
C902 H916 0.961 . S
C903 C900 1.539 . S
C903 H917 0.958 . S
C903 H918 0.961 . S
C903 H919 0.960 . S
H904 C888 0.931 . S
H905 C893 0.929 . S
H906 C894 0.960 . S
H907 C894 0.962 . S
H908 C894 0.960 . S
H909 C895 0.961 . S
H910 C895 0.961 . S
H911 C895 0.961 . S
H912 C896 0.931 . S
H913 C901 0.930 . S
H914 C902 0.956 . S
H915 C902 0.961 . S
H916 C902 0.961 . S
H917 C903 0.958 . S
H918 C903 0.961 . S
H919 C903 0.960 . S
C920 C921 1.391 . S
C920 C922 1.394 . S
C920 H936 0.931 . S
C921 C920 1.391 . S
C921 C925 1.376 . S
C922 C920 1.394 . S
C922 C923 1.369 . S
C922 C926 1.531 . S
C923 C922 1.369 . S
C923 C924 1.410 . S
C923 C931 1.503 . S
C924 C923 1.410 . S
C924 C925 1.392 . S
C924 C927 1.511 . S
C925 C921 1.376 . S
C925 C924 1.392 . S
C925 H937 0.929 . S
C926 C922 1.531 . S
C926 H938 0.960 . S
C926 H939 0.962 . S
C926 H940 0.960 . S
C927 C924 1.511 . S
C927 H941 0.961 . S
C927 H942 0.961 . S
C927 H943 0.961 . S
C928 C929 1.370 . S
C928 C930 1.363 . S
C928 H944 0.931 . S
C929 C928 1.370 . S
C929 C933 1.408 . S
C930 C928 1.363 . S
C930 C931 1.370 . S
C930 C934 1.524 . S
C931 C923 1.503 . S
C931 C930 1.370 . S
C931 C932 1.403 . S
C932 C931 1.403 . S
C932 C933 1.404 . S
C932 C935 1.539 . S
C933 C929 1.408 . S
C933 C932 1.404 . S
C933 H945 0.930 . S
C934 C930 1.524 . S
C934 H946 0.956 . S
C934 H947 0.961 . S
C934 H948 0.961 . S
C935 C932 1.539 . S
C935 H949 0.958 . S
C935 H950 0.961 . S
C935 H951 0.960 . S
H936 C920 0.931 . S
H937 C925 0.929 . S
H938 C926 0.960 . S
H939 C926 0.962 . S
H940 C926 0.960 . S
H941 C927 0.961 . S
H942 C927 0.961 . S
H943 C927 0.961 . S
H944 C928 0.931 . S
H945 C933 0.930 . S
H946 C934 0.956 . S
H947 C934 0.961 . S
H948 C934 0.961 . S
H949 C935 0.958 . S
H950 C935 0.961 . S
H951 C935 0.960 . S
C952 C953 1.391 1_545 S
C952 C954 1.394 . S
C952 H968 0.931 . S
C953 C952 1.391 1_565 S
C953 C957 1.376 . S
C954 C952 1.394 . S
C954 C955 1.369 . S
C954 C958 1.531 . S
C955 C954 1.369 . S
C955 C956 1.381 1_545 S
C955 C963 1.503 . S
C956 C955 1.381 1_565 S
C956 C957 1.416 . S
C956 C959 1.517 . S
C957 C953 1.376 . S
C957 C956 1.416 . S
C957 H969 0.929 . S
C958 C954 1.531 . S
C958 H970 0.960 . S
C958 H971 0.962 . S
C958 H972 0.960 . S
C959 C956 1.517 . S
C959 H973 0.961 . S
C959 H974 0.961 1_565 S
C959 H975 0.961 . S
C960 C961 1.370 . S
C960 C962 1.363 . S
C960 H976 0.931 . S
C961 C960 1.370 . S
C961 C965 1.408 . S
C962 C960 1.363 . S
C962 C963 1.370 . S
C962 C966 1.524 . S
C963 C955 1.503 . S
C963 C962 1.370 . S
C963 C964 1.403 . S
C964 C963 1.403 . S
C964 C965 1.404 . S
C964 C967 1.539 . S
C965 C961 1.408 . S
C965 C964 1.404 . S
C965 H977 0.930 . S
C966 C962 1.524 . S
C966 H978 0.956 . S
C966 H979 0.961 . S
C966 H980 0.961 . S
C967 C964 1.539 . S
C967 H981 0.958 . S
C967 H982 0.961 . S
C967 H983 0.965 . S
H968 C952 0.931 . S
H969 C957 0.929 . S
H970 C958 0.960 . S
H971 C958 0.962 . S
H972 C958 0.960 . S
H973 C959 0.961 . S
H974 C959 0.961 1_545 S
H975 C959 0.961 . S
H976 C960 0.931 . S
H977 C965 0.930 . S
H978 C966 0.956 . S
H979 C966 0.961 . S
H980 C966 0.961 . S
H981 C967 0.958 . S
H982 C967 0.961 . S
H983 C967 0.965 . S
C984 C985 1.391 . S
C984 C986 1.394 . S
C984 H1000 0.931 . S
C985 C984 1.391 . S
C985 C989 1.376 . S
C986 C984 1.394 . S
C986 C987 1.369 . S
C986 C990 1.531 . S
C987 C986 1.369 . S
C987 C988 1.410 . S
C987 C995 1.503 . S
C988 C987 1.410 . S
C988 C989 1.392 . S
C988 C991 1.511 . S
C989 C985 1.376 . S
C989 C988 1.392 . S
C989 H1001 0.929 . S
C990 C986 1.531 . S
C990 H1002 0.960 . S
C990 H1003 0.962 . S
C990 H1004 0.960 . S
C991 C988 1.511 . S
C991 H1005 0.961 . S
C991 H1006 0.961 . S
C991 H1007 0.961 . S
C992 C993 1.370 . S
C992 C994 1.363 . S
C992 H1008 0.931 . S
C993 C992 1.370 . S
C993 C997 1.408 . S
C994 C992 1.363 . S
C994 C995 1.370 . S
C994 C998 1.524 . S
C995 C987 1.503 . S
C995 C994 1.370 . S
C995 C996 1.403 . S
C996 C995 1.403 . S
C996 C997 1.404 . S
C996 C999 1.539 . S
C997 C993 1.408 . S
C997 C996 1.404 . S
C997 H1009 0.930 . S
C998 C994 1.524 . S
C998 H1010 0.956 . S
C998 H1011 0.961 . S
C998 H1012 0.961 . S
C999 C996 1.539 . S
C999 H1013 0.958 . S
C999 H1014 0.961 . S
C999 H1015 0.960 . S
H1000 C984 0.931 . S
H1001 C989 0.929 . S
H1002 C990 0.960 . S
H1003 C990 0.962 . S
H1004 C990 0.960 . S
H1005 C991 0.961 . S
H1006 C991 0.961 . S
H1007 C991 0.961 . S
H1008 C992 0.931 . S
H1009 C997 0.930 . S
H1010 C998 0.956 . S
H1011 C998 0.961 . S
H1012 C998 0.961 . S
H1013 C999 0.958 . S
H1014 C999 0.961 . S
H1015 C999 0.960 . S
C1016 C1017 1.391 1_545 S
C1016 C1018 1.394 . S
C1016 H1032 0.931 . S
C1017 C1016 1.391 1_565 S
C1017 C1021 1.376 . S
C1018 C1016 1.394 . S
C1018 C1019 1.369 . S
C1018 C1022 1.531 . S
C1019 C1018 1.369 . S
C1019 C1020 1.410 1_545 S
C1019 C1027 1.503 . S
C1020 C1019 1.410 1_565 S
C1020 C1021 1.392 . S
C1020 C1023 1.511 . S
C1021 C1017 1.376 . S
C1021 C1020 1.392 . S
C1021 H1033 0.929 . S
C1022 C1018 1.531 . S
C1022 H1034 0.960 . S
C1022 H1035 0.962 . S
C1022 H1036 0.960 . S
C1023 C1020 1.511 . S
C1023 H1037 0.961 . S
C1023 H1038 0.946 1_565 S
C1023 H1039 0.961 . S
C1024 C1025 1.370 . S
C1024 C1026 1.363 . S
C1024 H1040 0.931 . S
C1025 C1024 1.370 . S
C1025 C1029 1.408 . S
C1026 C1024 1.363 . S
C1026 C1027 1.370 . S
C1026 C1030 1.524 . S
C1027 C1019 1.503 . S
C1027 C1026 1.370 . S
C1027 C1028 1.403 . S
C1028 C1027 1.403 . S
C1028 C1029 1.404 . S
C1028 C1031 1.539 . S
C1029 C1025 1.408 . S
C1029 C1028 1.404 . S
C1029 H1041 0.930 . S
C1030 C1026 1.524 . S
C1030 H1042 0.956 . S
C1030 H1043 0.961 . S
C1030 H1044 0.961 . S
C1031 C1028 1.539 . S
C1031 H1045 0.958 . S
C1031 H1046 0.961 . S
C1031 H1047 0.960 . S
H1032 C1016 0.931 . S
H1033 C1021 0.929 . S
H1034 C1022 0.960 . S
H1035 C1022 0.962 . S
H1036 C1022 0.960 . S
H1037 C1023 0.961 . S
H1038 C1023 0.946 1_545 S
H1039 C1023 0.961 . S
H1040 C1024 0.931 . S
H1041 C1029 0.930 . S
H1042 C1030 0.956 . S
H1043 C1030 0.961 . S
H1044 C1030 0.961 . S
H1045 C1031 0.958 . S
H1046 C1031 0.961 . S
H1047 C1031 0.960 . S
C1048 C1049 1.391 . S
C1048 C1050 1.394 . S
C1048 H1064 0.931 . S
C1049 C1048 1.391 . S
C1049 C1053 1.376 . S
C1050 C1048 1.394 . S
C1050 C1051 1.369 . S
C1050 C1054 1.531 . S
C1051 C1050 1.369 . S
C1051 C1052 1.410 . S
C1051 C1059 1.503 . S
C1052 C1051 1.410 . S
C1052 C1053 1.392 . S
C1052 C1055 1.511 . S
C1053 C1049 1.376 . S
C1053 C1052 1.392 . S
C1053 H1065 0.929 . S
C1054 C1050 1.531 . S
C1054 H1066 0.960 . S
C1054 H1067 0.962 . S
C1054 H1068 0.960 . S
C1055 C1052 1.511 . S
C1055 H1069 0.961 . S
C1055 H1070 0.961 . S
C1055 H1071 0.961 . S
C1056 C1057 1.370 . S
C1056 C1058 1.363 . S
C1056 H1072 0.931 . S
C1057 C1056 1.370 . S
C1057 C1061 1.408 . S
C1058 C1056 1.363 . S
C1058 C1059 1.370 . S
C1058 C1062 1.524 . S
C1059 C1051 1.503 . S
C1059 C1058 1.370 . S
C1059 C1060 1.403 . S
C1060 C1059 1.403 . S
C1060 C1061 1.404 . S
C1060 C1063 1.539 . S
C1061 C1057 1.408 . S
C1061 C1060 1.404 . S
C1061 H1073 0.930 . S
C1062 C1058 1.524 . S
C1062 H1074 0.956 . S
C1062 H1075 0.961 . S
C1062 H1076 0.961 . S
C1063 C1060 1.539 . S
C1063 H1077 0.958 . S
C1063 H1078 0.961 . S
C1063 H1079 0.960 . S
H1064 C1048 0.931 . S
H1065 C1053 0.929 . S
H1066 C1054 0.960 . S
H1067 C1054 0.962 . S
H1068 C1054 0.960 . S
H1069 C1055 0.961 . S
H1070 C1055 0.961 . S
H1071 C1055 0.961 . S
H1072 C1056 0.931 . S
H1073 C1061 0.930 . S
H1074 C1062 0.956 . S
H1075 C1062 0.961 . S
H1076 C1062 0.961 . S
H1077 C1063 0.958 . S
H1078 C1063 0.961 . S
H1079 C1063 0.960 . S
C1080 C1081 1.391 . S
C1080 C1082 1.394 . S
C1080 H1096 0.931 . S
C1081 C1080 1.391 . S
C1081 C1085 1.376 . S
C1082 C1080 1.394 . S
C1082 C1083 1.369 . S
C1082 C1086 1.531 . S
C1083 C1082 1.369 . S
C1083 C1084 1.410 . S
C1083 C1091 1.503 . S
C1084 C1083 1.410 . S
C1084 C1085 1.392 . S
C1084 C1087 1.511 . S
C1085 C1081 1.376 . S
C1085 C1084 1.392 . S
C1085 H1097 0.929 . S
C1086 C1082 1.531 . S
C1086 H1098 0.960 . S
C1086 H1099 0.962 . S
C1086 H1100 0.960 . S
C1087 C1084 1.511 . S
C1087 H1101 0.961 . S
C1087 H1102 0.961 . S
C1087 H1103 0.961 . S
C1088 C1089 1.370 . S
C1088 C1090 1.363 . S
C1088 H1104 0.931 . S
C1089 C1088 1.370 . S
C1089 C1093 1.408 . S
C1090 C1088 1.363 . S
C1090 C1091 1.370 . S
C1090 C1094 1.524 . S
C1091 C1083 1.503 . S
C1091 C1090 1.370 . S
C1091 C1092 1.403 . S
C1092 C1091 1.403 . S
C1092 C1093 1.404 . S
C1092 C1095 1.539 . S
C1093 C1089 1.408 . S
C1093 C1092 1.404 . S
C1093 H1105 0.930 . S
C1094 C1090 1.524 . S
C1094 H1106 0.956 . S
C1094 H1107 0.961 . S
C1094 H1108 0.961 . S
C1095 C1092 1.539 . S
C1095 H1109 0.958 . S
C1095 H1110 0.961 . S
C1095 H1111 0.960 . S
H1096 C1080 0.931 . S
H1097 C1085 0.929 . S
H1098 C1086 0.960 . S
H1099 C1086 0.962 . S
H1100 C1086 0.960 . S
H1101 C1087 0.961 . S
H1102 C1087 0.961 . S
H1103 C1087 0.961 . S
H1104 C1088 0.931 . S
H1105 C1093 0.930 . S
H1106 C1094 0.956 . S
H1107 C1094 0.961 . S
H1108 C1094 0.961 . S
H1109 C1095 0.958 . S
H1110 C1095 0.961 . S
H1111 C1095 0.960 . S
C1112 C1113 1.391 . S
C1112 C1114 1.394 . S
C1112 H1128 0.931 . S
C1113 C1112 1.391 . S
C1113 C1117 1.376 . S
C1114 C1112 1.394 . S
C1114 C1115 1.369 . S
C1114 C1118 1.531 . S
C1115 C1114 1.369 . S
C1115 C1116 1.410 . S
C1115 C1123 1.503 . S
C1116 C1115 1.410 . S
C1116 C1117 1.392 . S
C1116 C1119 1.511 . S
C1117 C1113 1.376 . S
C1117 C1116 1.392 . S
C1117 H1129 0.929 . S
C1118 C1114 1.531 . S
C1118 H1130 0.960 . S
C1118 H1131 0.962 . S
C1118 H1132 0.960 . S
C1119 C1116 1.511 . S
C1119 H1133 0.961 . S
C1119 H1134 0.961 . S
C1119 H1135 0.961 . S
C1120 C1121 1.370 . S
C1120 C1122 1.363 . S
C1120 H1136 0.931 1_545 S
C1121 C1120 1.370 . S
C1121 C1125 1.408 . S
C1122 C1120 1.363 . S
C1122 C1123 1.370 . S
C1122 C1126 1.524 1_545 S
C1123 C1115 1.503 . S
C1123 C1122 1.370 . S
C1123 C1124 1.403 . S
C1124 C1123 1.403 . S
C1124 C1125 1.404 . S
C1124 C1127 1.539 . S
C1125 C1121 1.408 . S
C1125 C1124 1.404 . S
C1125 H1137 0.930 . S
C1126 C1122 1.524 1_565 S
C1126 H1138 0.956 . S
C1126 H1139 0.961 . S
C1126 H1140 0.961 . S
C1127 C1124 1.539 . S
C1127 H1141 0.958 . S
C1127 H1142 0.961 . S
C1127 H1143 0.960 . S
H1128 C1112 0.931 . S
H1129 C1117 0.929 . S
H1130 C1118 0.960 . S
H1131 C1118 0.962 . S
H1132 C1118 0.960 . S
H1133 C1119 0.961 . S
H1134 C1119 0.961 . S
H1135 C1119 0.961 . S
H1136 C1120 0.931 1_565 S
H1137 C1125 0.930 . S
H1138 C1126 0.956 . S
H1139 C1126 0.961 . S
H1140 C1126 0.961 . S
H1141 C1127 0.958 . S
H1142 C1127 0.961 . S
H1143 C1127 0.960 . S
C1144 C1145 1.391 . S
C1144 C1146 1.394 . S
C1144 H1160 0.931 . S
C1145 C1144 1.391 . S
C1145 C1149 1.376 . S
C1146 C1144 1.394 . S
C1146 C1147 1.369 . S
C1146 C1150 1.531 . S
C1147 C1146 1.369 . S
C1147 C1148 1.410 . S
C1147 C1155 1.503 . S
C1148 C1147 1.410 . S
C1148 C1149 1.392 . S
C1148 C1151 1.511 . S
C1149 C1145 1.376 . S
C1149 C1148 1.392 . S
C1149 H1161 0.929 . S
C1150 C1146 1.531 . S
C1150 H1162 0.960 . S
C1150 H1163 0.962 . S
C1150 H1164 0.960 . S
C1151 C1148 1.511 . S
C1151 H1165 0.961 . S
C1151 H1166 0.961 . S
C1151 H1167 0.961 . S
C1152 C1153 1.370 . S
C1152 C1154 1.363 . S
C1152 H1168 0.931 . S
C1153 C1152 1.370 . S
C1153 C1157 1.408 . S
C1154 C1152 1.363 . S
C1154 C1155 1.370 . S
C1154 C1158 1.524 . S
C1155 C1147 1.503 . S
C1155 C1154 1.370 . S
C1155 C1156 1.403 . S
C1156 C1155 1.403 . S
C1156 C1157 1.404 . S
C1156 C1159 1.539 . S
C1157 C1153 1.408 . S
C1157 C1156 1.404 . S
C1157 H1169 0.930 . S
C1158 C1154 1.524 . S
C1158 H1170 0.956 . S
C1158 H1171 0.961 . S
C1158 H1172 0.961 . S
C1159 C1156 1.539 . S
C1159 H1173 0.958 . S
C1159 H1174 0.961 . S
C1159 H1175 0.960 . S
H1160 C1144 0.931 . S
H1161 C1149 0.929 . S
H1162 C1150 0.960 . S
H1163 C1150 0.962 . S
H1164 C1150 0.960 . S
H1165 C1151 0.961 . S
H1166 C1151 0.961 . S
H1167 C1151 0.961 . S
H1168 C1152 0.931 . S
H1169 C1157 0.930 . S
H1170 C1158 0.956 . S
H1171 C1158 0.961 . S
H1172 C1158 0.961 . S
H1173 C1159 0.958 . S
H1174 C1159 0.961 . S
H1175 C1159 0.960 . S
C1176 C1177 1.391 . S
C1176 C1178 1.394 . S
C1176 H1192 0.931 . S
C1177 C1176 1.391 . S
C1177 C1181 1.376 . S
C1178 C1176 1.394 . S
C1178 C1179 1.369 . S
C1178 C1182 1.531 . S
C1179 C1178 1.369 . S
C1179 C1180 1.410 . S
C1179 C1187 1.503 . S
C1180 C1179 1.410 . S
C1180 C1181 1.392 . S
C1180 C1183 1.511 . S
C1181 C1177 1.376 . S
C1181 C1180 1.392 . S
C1181 H1193 0.929 . S
C1182 C1178 1.531 . S
C1182 H1194 0.960 . S
C1182 H1195 0.962 . S
C1182 H1196 0.960 . S
C1183 C1180 1.511 . S
C1183 H1197 0.961 . S
C1183 H1198 0.961 . S
C1183 H1199 0.961 . S
C1184 C1185 1.370 . S
C1184 C1186 1.363 . S
C1184 H1200 0.931 . S
C1185 C1184 1.370 . S
C1185 C1189 1.408 . S
C1186 C1184 1.363 . S
C1186 C1187 1.370 . S
C1186 C1190 1.524 . S
C1187 C1179 1.503 . S
C1187 C1186 1.370 . S
C1187 C1188 1.403 . S
C1188 C1187 1.403 . S
C1188 C1189 1.404 . S
C1188 C1191 1.539 . S
C1189 C1185 1.408 . S
C1189 C1188 1.404 . S
C1189 H1201 0.930 . S
C1190 C1186 1.524 . S
C1190 H1202 0.956 . S
C1190 H1203 0.961 . S
C1190 H1204 0.961 . S
C1191 C1188 1.539 . S
C1191 H1205 0.958 . S
C1191 H1206 0.961 . S
C1191 H1207 0.960 . S
H1192 C1176 0.931 . S
H1193 C1181 0.929 . S
H1194 C1182 0.960 . S
H1195 C1182 0.962 . S
H1196 C1182 0.960 . S
H1197 C1183 0.961 . S
H1198 C1183 0.961 . S
H1199 C1183 0.961 . S
H1200 C1184 0.931 . S
H1201 C1189 0.930 . S
H1202 C1190 0.956 . S
H1203 C1190 0.961 . S
H1204 C1190 0.961 . S
H1205 C1191 0.958 . S
H1206 C1191 0.961 . S
H1207 C1191 0.960 . S
C1208 C1209 1.391 . S
C1208 C1210 1.394 . S
C1208 H1224 0.931 . S
C1209 C1208 1.391 . S
C1209 C1213 1.376 . S
C1210 C1208 1.394 . S
C1210 C1211 1.369 . S
C1210 C1214 1.531 . S
C1211 C1210 1.369 . S
C1211 C1212 1.410 . S
C1211 C1219 1.503 . S
C1212 C1211 1.410 . S
C1212 C1213 1.392 . S
C1212 C1215 1.511 . S
C1213 C1209 1.376 . S
C1213 C1212 1.392 . S
C1213 H1225 0.929 . S
C1214 C1210 1.531 . S
C1214 H1226 0.960 . S
C1214 H1227 0.962 . S
C1214 H1228 0.960 . S
C1215 C1212 1.511 . S
C1215 H1229 0.961 . S
C1215 H1230 0.961 . S
C1215 H1231 0.961 . S
C1216 C1217 1.370 . S
C1216 C1218 1.363 . S
C1216 H1232 0.931 . S
C1217 C1216 1.370 . S
C1217 C1221 1.408 . S
C1218 C1216 1.363 . S
C1218 C1219 1.370 . S
C1218 C1222 1.524 . S
C1219 C1211 1.503 . S
C1219 C1218 1.370 . S
C1219 C1220 1.403 . S
C1220 C1219 1.403 . S
C1220 C1221 1.404 . S
C1220 C1223 1.539 . S
C1221 C1217 1.408 . S
C1221 C1220 1.404 . S
C1221 H1233 0.930 . S
C1222 C1218 1.524 . S
C1222 H1234 0.956 . S
C1222 H1235 0.961 . S
C1222 H1236 0.961 . S
C1223 C1220 1.539 . S
C1223 H1237 0.958 . S
C1223 H1238 0.961 . S
C1223 H1239 0.960 . S
H1224 C1208 0.931 . S
H1225 C1213 0.929 . S
H1226 C1214 0.960 . S
H1227 C1214 0.962 . S
H1228 C1214 0.960 . S
H1229 C1215 0.961 . S
H1230 C1215 0.961 . S
H1231 C1215 0.961 . S
H1232 C1216 0.931 . S
H1233 C1221 0.930 . S
H1234 C1222 0.956 . S
H1235 C1222 0.961 . S
H1236 C1222 0.961 . S
H1237 C1223 0.958 . S
H1238 C1223 0.961 . S
H1239 C1223 0.960 . S
C1240 C1241 1.391 . S
C1240 C1242 1.394 . S
C1240 H1256 0.931 . S
C1241 C1240 1.391 . S
C1241 C1245 1.376 1_455 S
C1242 C1240 1.394 . S
C1242 C1243 1.369 1_455 S
C1242 C1246 1.531 1_545 S
C1243 C1242 1.369 1_655 S
C1243 C1244 1.410 . S
C1243 C1251 1.503 . S
C1244 C1243 1.410 . S
C1244 C1245 1.392 . S
C1244 C1247 1.511 . S
C1245 C1241 1.376 1_655 S
C1245 C1244 1.392 . S
C1245 H1257 0.929 . S
C1246 C1242 1.531 1_565 S
C1246 H1258 0.960 1_565 S
C1246 H1259 0.962 . S
C1246 H1260 0.960 . S
C1247 C1244 1.511 . S
C1247 H1261 0.961 . S
C1247 H1262 0.961 . S
C1247 H1263 0.961 . S
C1248 C1249 1.370 . S
C1248 C1250 1.363 . S
C1248 H1264 0.931 1_545 S
C1249 C1248 1.370 . S
C1249 C1253 1.408 . S
C1250 C1248 1.363 . S
C1250 C1251 1.370 . S
C1250 C1254 1.524 1_545 S
C1251 C1243 1.503 . S
C1251 C1250 1.370 . S
C1251 C1252 1.403 . S
C1252 C1251 1.403 . S
C1252 C1253 1.404 . S
C1252 C1255 1.539 . S
C1253 C1249 1.408 . S
C1253 C1252 1.404 . S
C1253 H1265 0.930 . S
C1254 C1250 1.524 1_565 S
C1254 H1266 0.956 . S
C1254 H1267 0.961 1_565 S
C1254 H1268 0.961 . S
C1255 C1252 1.539 . S
C1255 H1269 0.958 1_655 S
C1255 H1270 0.961 . S
C1255 H1271 0.960 . S
H1256 C1240 0.931 . S
H1257 C1245 0.929 . S
H1258 C1246 0.960 1_545 S
H1259 C1246 0.962 . S
H1260 C1246 0.960 . S
H1261 C1247 0.961 . S
H1262 C1247 0.961 . S
H1263 C1247 0.961 . S
H1264 C1248 0.931 1_565 S
H1265 C1253 0.930 . S
H1266 C1254 0.956 . S
H1267 C1254 0.961 1_545 S
H1268 C1254 0.961 . S
H1269 C1255 0.958 1_455 S
H1270 C1255 0.961 . S
H1271 C1255 0.960 . S
C1272 C1273 1.391 . S
C1272 C1274 1.394 . S
C1272 H1288 0.931 . S
C1273 C1272 1.391 . S
C1273 C1277 1.376 . S
C1274 C1272 1.394 . S
C1274 C1275 1.369 . S
C1274 C1278 1.531 . S
C1275 C1274 1.369 . S
C1275 C1276 1.410 . S
C1275 C1283 1.503 . S
C1276 C1275 1.410 . S
C1276 C1277 1.392 . S
C1276 C1279 1.511 . S
C1277 C1273 1.376 . S
C1277 C1276 1.392 . S
C1277 H1289 0.929 . S
C1278 C1274 1.531 . S
C1278 H1290 0.960 . S
C1278 H1291 0.962 . S
C1278 H1292 0.960 . S
C1279 C1276 1.511 . S
C1279 H1293 0.961 . S
C1279 H1294 0.961 . S
C1279 H1295 0.961 . S
C1280 C1281 1.370 . S
C1280 C1282 1.363 . S
C1280 H1296 0.931 . S
C1281 C1280 1.370 . S
C1281 C1285 1.408 . S
C1282 C1280 1.363 . S
C1282 C1283 1.370 . S
C1282 C1286 1.524 . S
C1283 C1275 1.503 . S
C1283 C1282 1.370 . S
C1283 C1284 1.403 . S
C1284 C1283 1.403 . S
C1284 C1285 1.404 . S
C1284 C1287 1.539 . S
C1285 C1281 1.408 . S
C1285 C1284 1.404 . S
C1285 H1297 0.930 . S
C1286 C1282 1.524 . S
C1286 H1298 0.956 . S
C1286 H1299 0.961 . S
C1286 H1300 0.961 . S
C1287 C1284 1.539 . S
C1287 H1301 0.958 . S
C1287 H1302 0.961 . S
C1287 H1303 0.960 . S
H1288 C1272 0.931 . S
H1289 C1277 0.929 . S
H1290 C1278 0.960 . S
H1291 C1278 0.962 . S
H1292 C1278 0.960 . S
H1293 C1279 0.961 . S
H1294 C1279 0.961 . S
H1295 C1279 0.961 . S
H1296 C1280 0.931 . S
H1297 C1285 0.930 . S
H1298 C1286 0.956 . S
H1299 C1286 0.961 . S
H1300 C1286 0.961 . S
H1301 C1287 0.958 . S
H1302 C1287 0.961 . S
H1303 C1287 0.960 . S
C1304 C1305 1.391 . S
C1304 C1306 1.394 1_655 S
C1304 H1320 0.931 . S
C1305 C1304 1.391 . S
C1305 C1309 1.355 1_655 S
C1306 C1304 1.394 1_455 S
C1306 C1307 1.369 . S
C1306 C1310 1.531 . S
C1307 C1306 1.369 . S
C1307 C1308 1.410 . S
C1307 C1315 1.503 . S
C1308 C1307 1.410 . S
C1308 C1309 1.425 . S
C1308 C1311 1.511 . S
C1309 C1305 1.355 1_455 S
C1309 C1308 1.425 . S
C1309 H1321 0.919 1_455 S
C1310 C1306 1.531 . S
C1310 H1322 0.960 . S
C1310 H1323 0.962 . S
C1310 H1324 0.960 . S
C1311 C1308 1.511 . S
C1311 H1325 0.961 . S
C1311 H1326 0.961 . S
C1311 H1327 0.961 . S
C1312 C1313 1.370 . S
C1312 C1314 1.363 . S
C1312 H1328 0.931 . S
C1313 C1312 1.370 . S
C1313 C1317 1.408 . S
C1314 C1312 1.363 . S
C1314 C1315 1.370 . S
C1314 C1318 1.524 . S
C1315 C1307 1.503 . S
C1315 C1314 1.370 . S
C1315 C1316 1.403 . S
C1316 C1315 1.403 . S
C1316 C1317 1.404 . S
C1316 C1319 1.539 . S
C1317 C1313 1.408 . S
C1317 C1316 1.404 . S
C1317 H1329 0.930 . S
C1318 C1314 1.524 . S
C1318 H1330 0.956 1_455 S
C1318 H1331 0.961 . S
C1318 H1332 0.961 . S
C1319 C1316 1.539 . S
C1319 H1333 0.958 . S
C1319 H1334 0.961 . S
C1319 H1335 0.960 . S
H1320 C1304 0.931 . S
H1321 C1309 0.919 1_655 S
H1322 C1310 0.960 . S
H1323 C1310 0.962 . S
H1324 C1310 0.960 . S
H1325 C1311 0.961 . S
H1326 C1311 0.961 . S
H1327 C1311 0.961 . S
H1328 C1312 0.931 . S
H1329 C1317 0.930 . S
H1330 C1318 0.956 1_655 S
H1331 C1318 0.961 . S
H1332 C1318 0.961 . S
H1333 C1319 0.958 . S
H1334 C1319 0.961 . S
H1335 C1319 0.960 . S
C1336 C1337 1.391 . S
C1336 C1338 1.394 . S
C1336 H1352 0.931 . S
C1337 C1336 1.391 . S
C1337 C1341 1.376 . S
C1338 C1336 1.394 . S
C1338 C1339 1.369 . S
C1338 C1342 1.531 . S
C1339 C1338 1.369 . S
C1339 C1340 1.410 . S
C1339 C1347 1.503 . S
C1340 C1339 1.410 . S
C1340 C1341 1.392 . S
C1340 C1343 1.511 . S
C1341 C1337 1.376 . S
C1341 C1340 1.392 . S
C1341 H1353 0.929 . S
C1342 C1338 1.531 . S
C1342 H1354 0.960 . S
C1342 H1355 0.962 . S
C1342 H1356 0.960 . S
C1343 C1340 1.511 . S
C1343 H1357 0.961 . S
C1343 H1358 0.961 . S
C1343 H1359 0.961 . S
C1344 C1345 1.370 . S
C1344 C1346 1.363 . S
C1344 H1360 0.931 . S
C1345 C1344 1.370 . S
C1345 C1349 1.408 . S
C1346 C1344 1.363 . S
C1346 C1347 1.370 . S
C1346 C1350 1.524 . S
C1347 C1339 1.503 . S
C1347 C1346 1.370 . S
C1347 C1348 1.403 . S
C1348 C1347 1.403 . S
C1348 C1349 1.404 . S
C1348 C1351 1.539 . S
C1349 C1345 1.408 . S
C1349 C1348 1.404 . S
C1349 H1361 0.930 . S
C1350 C1346 1.524 . S
C1350 H1362 0.956 . S
C1350 H1363 0.961 . S
C1350 H1364 0.961 . S
C1351 C1348 1.539 . S
C1351 H1365 0.958 . S
C1351 H1366 0.961 . S
C1351 H1367 0.960 . S
H1352 C1336 0.931 . S
H1353 C1341 0.929 . S
H1354 C1342 0.960 . S
H1355 C1342 0.962 . S
H1356 C1342 0.960 . S
H1357 C1343 0.961 . S
H1358 C1343 0.961 . S
H1359 C1343 0.961 . S
H1360 C1344 0.931 . S
H1361 C1349 0.930 . S
H1362 C1350 0.956 . S
H1363 C1350 0.961 . S
H1364 C1350 0.961 . S
H1365 C1351 0.958 . S
H1366 C1351 0.961 . S
H1367 C1351 0.960 . S
C1368 C1369 1.391 . S
C1368 C1370 1.394 1_554 S
C1368 H1384 0.931 . S
C1369 C1368 1.391 . S
C1369 C1373 1.376 . S
C1370 C1368 1.394 1_556 S
C1370 C1371 1.369 . S
C1370 C1374 1.531 . S
C1371 C1370 1.369 . S
C1371 C1372 1.410 . S
C1371 C1379 1.503 . S
C1372 C1371 1.410 . S
C1372 C1373 1.392 1_556 S
C1372 C1375 1.511 1_655 S
C1373 C1369 1.376 . S
C1373 C1372 1.392 1_554 S
C1373 H1385 0.929 . S
C1374 C1370 1.531 . S
C1374 H1386 0.960 . S
C1374 H1387 0.962 . S
C1374 H1388 0.960 . S
C1375 C1372 1.511 1_455 S
C1375 H1389 0.961 1_556 S
C1375 H1390 0.961 . S
C1375 H1391 0.961 . S
C1376 C1377 1.370 . S
C1376 C1378 1.363 . S
C1376 H1392 0.931 . S
C1377 C1376 1.370 . S
C1377 C1381 1.408 . S
C1378 C1376 1.363 . S
C1378 C1379 1.370 . S
C1378 C1382 1.524 . S
C1379 C1371 1.503 . S
C1379 C1378 1.370 . S
C1379 C1380 1.403 . S
C1380 C1379 1.403 . S
C1380 C1381 1.404 . S
C1380 C1383 1.539 . S
C1381 C1377 1.408 . S
C1381 C1380 1.404 . S
C1381 H1393 0.930 . S
C1382 C1378 1.524 . S
C1382 H1394 0.959 . S
C1382 H1395 0.961 1_556 S
C1382 H1396 0.956 1_556 S
C1383 C1380 1.539 . S
C1383 H1397 0.958 . S
C1383 H1398 0.961 1_655 S
C1383 H1399 0.960 . S
H1384 C1368 0.931 . S
H1385 C1373 0.929 . S
H1386 C1374 0.960 . S
H1387 C1374 0.962 . S
H1388 C1374 0.960 . S
H1389 C1375 0.961 1_554 S
H1390 C1375 0.961 . S
H1391 C1375 0.961 . S
H1392 C1376 0.931 . S
H1393 C1381 0.930 . S
H1394 C1382 0.959 . S
H1395 C1382 0.961 1_554 S
H1396 C1382 0.956 1_554 S
H1397 C1383 0.958 . S
H1398 C1383 0.961 1_455 S
H1399 C1383 0.960 . S
C1400 C1401 1.391 . S
C1400 C1402 1.394 . S
C1400 H1416 0.931 . S
C1401 C1400 1.391 . S
C1401 C1405 1.376 . S
C1402 C1400 1.394 . S
C1402 C1403 1.369 . S
C1402 C1406 1.531 . S
C1403 C1402 1.369 . S
C1403 C1404 1.410 . S
C1403 C1411 1.503 . S
C1404 C1403 1.410 . S
C1404 C1405 1.392 . S
C1404 C1407 1.511 . S
C1405 C1401 1.376 . S
C1405 C1404 1.392 . S
C1405 H1417 0.929 . S
C1406 C1402 1.531 . S
C1406 H1418 0.960 . S
C1406 H1419 0.962 . S
C1406 H1420 0.960 . S
C1407 C1404 1.511 . S
C1407 H1421 0.961 . S
C1407 H1422 0.961 . S
C1407 H1423 0.961 . S
C1408 C1409 1.370 . S
C1408 C1410 1.363 . S
C1408 H1424 0.931 . S
C1409 C1408 1.370 . S
C1409 C1413 1.408 . S
C1410 C1408 1.363 . S
C1410 C1411 1.370 . S
C1410 C1414 1.524 . S
C1411 C1403 1.503 . S
C1411 C1410 1.370 . S
C1411 C1412 1.403 . S
C1412 C1411 1.403 . S
C1412 C1413 1.404 . S
C1412 C1415 1.539 . S
C1413 C1409 1.408 . S
C1413 C1412 1.404 . S
C1413 H1425 0.930 . S
C1414 C1410 1.524 . S
C1414 H1426 0.956 . S
C1414 H1427 0.961 . S
C1414 H1428 0.961 . S
C1415 C1412 1.539 . S
C1415 H1429 0.958 . S
C1415 H1430 0.961 . S
C1415 H1431 0.960 . S
H1416 C1400 0.931 . S
H1417 C1405 0.929 . S
H1418 C1406 0.960 . S
H1419 C1406 0.962 . S
H1420 C1406 0.960 . S
H1421 C1407 0.961 . S
H1422 C1407 0.961 . S
H1423 C1407 0.961 . S
H1424 C1408 0.931 . S
H1425 C1413 0.930 . S
H1426 C1414 0.956 . S
H1427 C1414 0.961 . S
H1428 C1414 0.961 . S
H1429 C1415 0.958 . S
H1430 C1415 0.961 . S
H1431 C1415 0.960 . S
C1432 C1433 1.391 . S
C1432 C1434 1.394 1_554 S
C1432 H1448 0.931 1_455 S
C1433 C1432 1.391 . S
C1433 C1437 1.376 1_554 S
C1434 C1432 1.394 1_556 S
C1434 C1435 1.369 . S
C1434 C1438 1.531 1_455 S
C1435 C1434 1.369 . S
C1435 C1436 1.410 . S
C1435 C1443 1.503 . S
C1436 C1435 1.410 . S
C1436 C1437 1.392 . S
C1436 C1439 1.511 . S
C1437 C1433 1.376 1_556 S
C1437 C1436 1.392 . S
C1437 H1449 0.931 . S
C1438 C1434 1.531 1_655 S
C1438 H1450 0.960 . S
C1438 H1451 0.962 . S
C1438 H1452 0.960 1_556 S
C1439 C1436 1.511 . S
C1439 H1453 0.961 . S
C1439 H1454 0.961 . S
C1439 H1455 0.961 . S
C1440 C1441 1.370 . S
C1440 C1442 1.363 . S
C1440 H1456 0.931 . S
C1441 C1440 1.370 . S
C1441 C1445 1.408 . S
C1442 C1440 1.363 . S
C1442 C1443 1.370 . S
C1442 C1446 1.524 . S
C1443 C1435 1.503 . S
C1443 C1442 1.370 . S
C1443 C1444 1.403 . S
C1444 C1443 1.403 . S
C1444 C1445 1.404 . S
C1444 C1447 1.504 1_556 S
C1445 C1441 1.408 . S
C1445 C1444 1.404 . S
C1445 H1457 0.930 . S
C1446 C1442 1.524 . S
C1446 H1458 0.956 1_455 S
C1446 H1459 0.961 . S
C1446 H1460 0.961 . S
C1447 C1444 1.504 1_554 S
C1447 H1461 0.982 . S
C1447 H1462 0.961 . S
C1447 H1463 0.974 . S
H1448 C1432 0.931 1_655 S
H1449 C1437 0.931 . S
H1450 C1438 0.960 . S
H1451 C1438 0.962 . S
H1452 C1438 0.960 1_554 S
H1453 C1439 0.961 . S
H1454 C1439 0.961 . S
H1455 C1439 0.961 . S
H1456 C1440 0.931 . S
H1457 C1445 0.930 . S
H1458 C1446 0.956 1_655 S
H1459 C1446 0.961 . S
H1460 C1446 0.961 . S
H1461 C1447 0.982 . S
H1462 C1447 0.961 . S
H1463 C1447 0.974 . S
C1464 C1465 1.391 . S
C1464 C1466 1.394 . S
C1464 H1480 0.931 . S
C1465 C1464 1.391 . S
C1465 C1469 1.376 . S
C1466 C1464 1.394 . S
C1466 C1467 1.369 . S
C1466 C1470 1.531 . S
C1467 C1466 1.369 . S
C1467 C1468 1.410 . S
C1467 C1475 1.503 . S
C1468 C1467 1.410 . S
C1468 C1469 1.392 . S
C1468 C1471 1.511 . S
C1469 C1465 1.376 . S
C1469 C1468 1.392 . S
C1469 H1481 0.929 . S
C1470 C1466 1.531 . S
C1470 H1482 0.960 . S
C1470 H1483 0.962 . S
C1470 H1484 0.960 . S
C1471 C1468 1.511 . S
C1471 H1485 0.961 . S
C1471 H1486 0.961 . S
C1471 H1487 0.961 . S
C1472 C1473 1.370 . S
C1472 C1474 1.363 . S
C1472 H1488 0.931 . S
C1473 C1472 1.370 . S
C1473 C1477 1.408 . S
C1474 C1472 1.363 . S
C1474 C1475 1.370 . S
C1474 C1478 1.524 . S
C1475 C1467 1.503 . S
C1475 C1474 1.370 . S
C1475 C1476 1.403 . S
C1476 C1475 1.403 . S
C1476 C1477 1.404 . S
C1476 C1479 1.539 . S
C1477 C1473 1.408 . S
C1477 C1476 1.404 . S
C1477 H1489 0.930 . S
C1478 C1474 1.524 . S
C1478 H1490 0.956 . S
C1478 H1491 0.961 . S
C1478 H1492 0.961 . S
C1479 C1476 1.539 . S
C1479 H1493 0.958 . S
C1479 H1494 0.961 . S
C1479 H1495 0.960 . S
H1480 C1464 0.931 . S
H1481 C1469 0.929 . S
H1482 C1470 0.960 . S
H1483 C1470 0.962 . S
H1484 C1470 0.960 . S
H1485 C1471 0.961 . S
H1486 C1471 0.961 . S
H1487 C1471 0.961 . S
H1488 C1472 0.931 . S
H1489 C1477 0.930 . S
H1490 C1478 0.956 . S
H1491 C1478 0.961 . S
H1492 C1478 0.961 . S
H1493 C1479 0.958 . S
H1494 C1479 0.961 . S
H1495 C1479 0.960 . S
C1496 C1497 1.391 1_554 S
C1496 C1498 1.394 . S
C1496 H1512 0.931 . S
C1497 C1496 1.391 1_556 S
C1497 C1501 1.379 . S
C1498 C1496 1.394 . S
C1498 C1499 1.369 . S
C1498 C1502 1.531 . S
C1499 C1498 1.369 . S
C1499 C1500 1.410 . S
C1499 C1507 1.503 . S
C1500 C1499 1.410 . S
C1500 C1501 1.383 1_554 S
C1500 C1503 1.511 . S
C1501 C1497 1.379 . S
C1501 C1500 1.383 1_556 S
C1501 H1513 0.935 . S
C1502 C1498 1.531 . S
C1502 H1514 0.960 . S
C1502 H1515 0.962 . S
C1502 H1516 0.960 . S
C1503 C1500 1.511 . S
C1503 H1517 0.961 . S
C1503 H1518 0.961 . S
C1503 H1519 0.961 . S
C1504 C1505 1.370 . S
C1504 C1506 1.363 . S
C1504 H1520 0.931 . S
C1505 C1504 1.370 . S
C1505 C1509 1.408 . S
C1506 C1504 1.363 . S
C1506 C1507 1.370 . S
C1506 C1510 1.524 . S
C1507 C1499 1.503 . S
C1507 C1506 1.370 . S
C1507 C1508 1.403 . S
C1508 C1507 1.403 . S
C1508 C1509 1.404 . S
C1508 C1511 1.539 . S
C1509 C1505 1.408 . S
C1509 C1508 1.404 . S
C1509 H1521 0.930 . S
C1510 C1506 1.524 . S
C1510 H1522 0.956 . S
C1510 H1523 0.961 1_554 S
C1510 H1524 0.961 . S
C1511 C1508 1.539 . S
C1511 H1525 0.958 . S
C1511 H1526 0.961 . S
C1511 H1527 0.960 . S
H1512 C1496 0.931 . S
H1513 C1501 0.935 . S
H1514 C1502 0.960 . S
H1515 C1502 0.962 . S
H1516 C1502 0.960 . S
H1517 C1503 0.961 . S
H1518 C1503 0.961 . S
H1519 C1503 0.961 . S
H1520 C1504 0.931 . S
H1521 C1509 0.930 . S
H1522 C1510 0.956 . S
H1523 C1510 0.961 1_556 S
H1524 C1510 0.961 . S
H1525 C1511 0.958 . S
H1526 C1511 0.961 . S
H1527 C1511 0.960 . S
C1528 C1529 1.391 . S
C1528 C1530 1.394 . S
C1528 H1544 0.931 . S
C1529 C1528 1.391 . S
C1529 C1533 1.376 . S
C1530 C1528 1.394 . S
C1530 C1531 1.369 . S
C1530 C1534 1.531 . S
C1531 C1530 1.369 . S
C1531 C1532 1.410 . S
C1531 C1539 1.503 . S
C1532 C1531 1.410 . S
C1532 C1533 1.392 . S
C1532 C1535 1.511 . S
C1533 C1529 1.376 . S
C1533 C1532 1.392 . S
C1533 H1545 0.929 . S
C1534 C1530 1.531 . S
C1534 H1546 0.960 . S
C1534 H1547 0.962 . S
C1534 H1548 0.960 . S
C1535 C1532 1.511 . S
C1535 H1549 0.961 . S
C1535 H1550 0.961 . S
C1535 H1551 0.961 . S
C1536 C1537 1.370 . S
C1536 C1538 1.363 . S
C1536 H1552 0.931 . S
C1537 C1536 1.370 . S
C1537 C1541 1.408 . S
C1538 C1536 1.363 . S
C1538 C1539 1.370 . S
C1538 C1542 1.524 . S
C1539 C1531 1.503 . S
C1539 C1538 1.370 . S
C1539 C1540 1.403 . S
C1540 C1539 1.403 . S
C1540 C1541 1.404 . S
C1540 C1543 1.539 . S
C1541 C1537 1.408 . S
C1541 C1540 1.404 . S
C1541 H1553 0.930 . S
C1542 C1538 1.524 . S
C1542 H1554 0.956 . S
C1542 H1555 0.961 . S
C1542 H1556 0.961 . S
C1543 C1540 1.539 . S
C1543 H1557 0.958 . S
C1543 H1558 0.961 . S
C1543 H1559 0.960 . S
H1544 C1528 0.931 . S
H1545 C1533 0.929 . S
H1546 C1534 0.960 . S
H1547 C1534 0.962 . S
H1548 C1534 0.960 . S
H1549 C1535 0.961 . S
H1550 C1535 0.961 . S
H1551 C1535 0.961 . S
H1552 C1536 0.931 . S
H1553 C1541 0.930 . S
H1554 C1542 0.956 . S
H1555 C1542 0.961 . S
H1556 C1542 0.961 . S
H1557 C1543 0.958 . S
H1558 C1543 0.961 . S
H1559 C1543 0.960 . S
C1560 C1561 1.391 1_554 S
C1560 C1562 1.394 . S
C1560 H1576 0.931 . S
C1561 C1560 1.391 1_556 S
C1561 C1565 1.376 . S
C1562 C1560 1.394 . S
C1562 C1563 1.369 . S
C1562 C1566 1.531 . S
C1563 C1562 1.369 . S
C1563 C1564 1.410 1_554 S
C1563 C1571 1.503 . S
C1564 C1563 1.410 1_556 S
C1564 C1565 1.392 . S
C1564 C1567 1.511 . S
C1565 C1561 1.376 . S
C1565 C1564 1.392 . S
C1565 H1577 0.929 . S
C1566 C1562 1.531 . S
C1566 H1578 0.960 . S
C1566 H1579 0.962 . S
C1566 H1580 0.960 . S
C1567 C1564 1.511 . S
C1567 H1581 0.961 . S
C1567 H1582 0.961 1_556 S
C1567 H1583 0.961 . S
C1568 C1569 1.370 . S
C1568 C1570 1.363 . S
C1568 H1584 0.931 . S
C1569 C1568 1.370 . S
C1569 C1573 1.408 . S
C1570 C1568 1.363 . S
C1570 C1571 1.370 . S
C1570 C1574 1.524 . S
C1571 C1563 1.503 . S
C1571 C1570 1.370 . S
C1571 C1572 1.403 . S
C1572 C1571 1.403 . S
C1572 C1573 1.404 . S
C1572 C1575 1.539 . S
C1573 C1569 1.408 . S
C1573 C1572 1.404 . S
C1573 H1585 0.930 . S
C1574 C1570 1.524 . S
C1574 H1586 0.956 . S
C1574 H1587 0.961 . S
C1574 H1588 0.961 . S
C1575 C1572 1.539 . S
C1575 H1589 0.958 . S
C1575 H1590 0.961 . S
C1575 H1591 0.960 . S
H1576 C1560 0.931 . S
H1577 C1565 0.929 . S
H1578 C1566 0.960 . S
H1579 C1566 0.962 . S
H1580 C1566 0.960 . S
H1581 C1567 0.961 . S
H1582 C1567 0.961 1_554 S
H1583 C1567 0.961 . S
H1584 C1568 0.931 . S
H1585 C1573 0.930 . S
H1586 C1574 0.956 . S
H1587 C1574 0.961 . S
H1588 C1574 0.961 . S
H1589 C1575 0.958 . S
H1590 C1575 0.961 . S
H1591 C1575 0.960 . S
C1592 C1593 1.391 . S
C1592 C1594 1.394 . S
C1592 H1608 0.931 . S
C1593 C1592 1.391 . S
C1593 C1597 1.376 . S
C1594 C1592 1.394 . S
C1594 C1595 1.369 . S
C1594 C1598 1.531 . S
C1595 C1594 1.369 . S
C1595 C1596 1.410 . S
C1595 C1603 1.503 . S
C1596 C1595 1.410 . S
C1596 C1597 1.392 . S
C1596 C1599 1.511 . S
C1597 C1593 1.376 . S
C1597 C1596 1.392 . S
C1597 H1609 0.929 . S
C1598 C1594 1.531 . S
C1598 H1610 0.960 . S
C1598 H1611 0.962 . S
C1598 H1612 0.960 . S
C1599 C1596 1.511 . S
C1599 H1613 0.961 . S
C1599 H1614 0.961 . S
C1599 H1615 0.961 . S
C1600 C1601 1.370 . S
C1600 C1602 1.363 . S
C1600 H1616 0.931 . S
C1601 C1600 1.370 . S
C1601 C1605 1.408 . S
C1602 C1600 1.363 . S
C1602 C1603 1.370 . S
C1602 C1606 1.524 . S
C1603 C1595 1.503 . S
C1603 C1602 1.370 . S
C1603 C1604 1.403 . S
C1604 C1603 1.403 . S
C1604 C1605 1.404 . S
C1604 C1607 1.539 . S
C1605 C1601 1.408 . S
C1605 C1604 1.404 . S
C1605 H1617 0.930 . S
C1606 C1602 1.524 . S
C1606 H1618 0.956 . S
C1606 H1619 0.961 . S
C1606 H1620 0.961 . S
C1607 C1604 1.539 . S
C1607 H1621 0.958 . S
C1607 H1622 0.961 . S
C1607 H1623 0.960 . S
H1608 C1592 0.931 . S
H1609 C1597 0.929 . S
H1610 C1598 0.960 . S
H1611 C1598 0.962 . S
H1612 C1598 0.960 . S
H1613 C1599 0.961 . S
H1614 C1599 0.961 . S
H1615 C1599 0.961 . S
H1616 C1600 0.931 . S
H1617 C1605 0.930 . S
H1618 C1606 0.956 . S
H1619 C1606 0.961 . S
H1620 C1606 0.961 . S
H1621 C1607 0.958 . S
H1622 C1607 0.961 . S
H1623 C1607 0.960 . S
C1624 C1625 1.391 . S
C1624 C1626 1.394 . S
C1624 H1640 0.931 . S
C1625 C1624 1.391 . S
C1625 C1629 1.376 . S
C1626 C1624 1.394 . S
C1626 C1627 1.369 . S
C1626 C1630 1.531 . S
C1627 C1626 1.369 . S
C1627 C1628 1.410 . S
C1627 C1635 1.503 . S
C1628 C1627 1.410 . S
C1628 C1629 1.392 . S
C1628 C1631 1.511 . S
C1629 C1625 1.376 . S
C1629 C1628 1.392 . S
C1629 H1641 0.929 . S
C1630 C1626 1.531 . S
C1630 H1642 0.960 . S
C1630 H1643 0.962 . S
C1630 H1644 0.960 . S
C1631 C1628 1.511 . S
C1631 H1645 0.961 . S
C1631 H1646 0.961 . S
C1631 H1647 0.961 . S
C1632 C1633 1.370 . S
C1632 C1634 1.363 . S
C1632 H1648 0.931 . S
C1633 C1632 1.370 . S
C1633 C1637 1.408 . S
C1634 C1632 1.363 . S
C1634 C1635 1.370 . S
C1634 C1638 1.524 . S
C1635 C1627 1.503 . S
C1635 C1634 1.370 . S
C1635 C1636 1.403 . S
C1636 C1635 1.403 . S
C1636 C1637 1.404 . S
C1636 C1639 1.539 . S
C1637 C1633 1.408 . S
C1637 C1636 1.404 . S
C1637 H1649 0.930 . S
C1638 C1634 1.524 . S
C1638 H1650 0.956 . S
C1638 H1651 0.961 . S
C1638 H1652 0.961 . S
C1639 C1636 1.539 . S
C1639 H1653 0.958 . S
C1639 H1654 0.961 . S
C1639 H1655 0.960 . S
H1640 C1624 0.931 . S
H1641 C1629 0.929 . S
H1642 C1630 0.960 . S
H1643 C1630 0.962 . S
H1644 C1630 0.960 . S
H1645 C1631 0.961 . S
H1646 C1631 0.961 . S
H1647 C1631 0.961 . S
H1648 C1632 0.931 . S
H1649 C1637 0.930 . S
H1650 C1638 0.956 . S
H1651 C1638 0.961 . S
H1652 C1638 0.961 . S
H1653 C1639 0.958 . S
H1654 C1639 0.961 . S
H1655 C1639 0.960 . S
C1656 C1657 1.391 . S
C1656 C1658 1.394 . S
C1656 H1672 0.931 . S
C1657 C1656 1.391 . S
C1657 C1661 1.376 . S
C1658 C1656 1.394 . S
C1658 C1659 1.369 . S
C1658 C1662 1.531 . S
C1659 C1658 1.369 . S
C1659 C1660 1.410 . S
C1659 C1667 1.503 . S
C1660 C1659 1.410 . S
C1660 C1661 1.392 . S
C1660 C1663 1.511 . S
C1661 C1657 1.376 . S
C1661 C1660 1.392 . S
C1661 H1673 0.929 . S
C1662 C1658 1.531 . S
C1662 H1674 0.960 . S
C1662 H1675 0.962 . S
C1662 H1676 0.960 . S
C1663 C1660 1.511 . S
C1663 H1677 0.961 . S
C1663 H1678 0.961 . S
C1663 H1679 0.961 . S
C1664 C1665 1.370 . S
C1664 C1666 1.363 . S
C1664 H1680 0.931 . S
C1665 C1664 1.370 . S
C1665 C1669 1.408 . S
C1666 C1664 1.363 . S
C1666 C1667 1.370 . S
C1666 C1670 1.524 . S
C1667 C1659 1.503 . S
C1667 C1666 1.370 . S
C1667 C1668 1.403 . S
C1668 C1667 1.403 . S
C1668 C1669 1.404 . S
C1668 C1671 1.539 . S
C1669 C1665 1.408 . S
C1669 C1668 1.404 . S
C1669 H1681 0.930 . S
C1670 C1666 1.524 . S
C1670 H1682 0.956 . S
C1670 H1683 0.961 . S
C1670 H1684 0.961 . S
C1671 C1668 1.539 . S
C1671 H1685 0.958 . S
C1671 H1686 0.961 . S
C1671 H1687 0.960 . S
H1672 C1656 0.931 . S
H1673 C1661 0.929 . S
H1674 C1662 0.960 . S
H1675 C1662 0.962 . S
H1676 C1662 0.960 . S
H1677 C1663 0.961 . S
H1678 C1663 0.961 . S
H1679 C1663 0.961 . S
H1680 C1664 0.931 . S
H1681 C1669 0.930 . S
H1682 C1670 0.956 . S
H1683 C1670 0.961 . S
H1684 C1670 0.961 . S
H1685 C1671 0.958 . S
H1686 C1671 0.961 . S
H1687 C1671 0.960 . S
C1688 C1689 1.391 . S
C1688 C1690 1.394 . S
C1688 H1704 0.931 . S
C1689 C1688 1.391 . S
C1689 C1693 1.376 . S
C1690 C1688 1.394 . S
C1690 C1691 1.369 . S
C1690 C1694 1.531 . S
C1691 C1690 1.369 . S
C1691 C1692 1.410 . S
C1691 C1699 1.503 . S
C1692 C1691 1.410 . S
C1692 C1693 1.392 . S
C1692 C1695 1.511 . S
C1693 C1689 1.376 . S
C1693 C1692 1.392 . S
C1693 H1705 0.929 . S
C1694 C1690 1.531 . S
C1694 H1706 0.960 . S
C1694 H1707 0.962 . S
C1694 H1708 0.960 . S
C1695 C1692 1.511 . S
C1695 H1709 0.961 . S
C1695 H1710 0.961 . S
C1695 H1711 0.961 . S
C1696 C1697 1.370 . S
C1696 C1698 1.363 . S
C1696 H1712 0.931 . S
C1697 C1696 1.370 . S
C1697 C1701 1.408 . S
C1698 C1696 1.363 . S
C1698 C1699 1.370 . S
C1698 C1702 1.524 . S
C1699 C1691 1.503 . S
C1699 C1698 1.370 . S
C1699 C1700 1.403 . S
C1700 C1699 1.403 . S
C1700 C1701 1.404 . S
C1700 C1703 1.539 . S
C1701 C1697 1.408 . S
C1701 C1700 1.404 . S
C1701 H1713 0.930 . S
C1702 C1698 1.524 . S
C1702 H1714 0.956 . S
C1702 H1715 0.961 . S
C1702 H1716 0.961 . S
C1703 C1700 1.539 . S
C1703 H1717 0.958 . S
C1703 H1718 0.961 . S
C1703 H1719 0.960 . S
H1704 C1688 0.931 . S
H1705 C1693 0.929 . S
H1706 C1694 0.960 . S
H1707 C1694 0.962 . S
H1708 C1694 0.960 . S
H1709 C1695 0.961 . S
H1710 C1695 0.961 . S
H1711 C1695 0.961 . S
H1712 C1696 0.931 . S
H1713 C1701 0.930 . S
H1714 C1702 0.956 . S
H1715 C1702 0.961 . S
H1716 C1702 0.961 . S
H1717 C1703 0.958 . S
H1718 C1703 0.961 . S
H1719 C1703 0.960 . S
C1720 C1721 1.391 . S
C1720 C1722 1.394 . S
C1720 H1736 0.931 . S
C1721 C1720 1.391 . S
C1721 C1725 1.376 . S
C1722 C1720 1.394 . S
C1722 C1723 1.369 . S
C1722 C1726 1.531 . S
C1723 C1722 1.369 . S
C1723 C1724 1.410 . S
C1723 C1731 1.503 . S
C1724 C1723 1.410 . S
C1724 C1725 1.392 . S
C1724 C1727 1.511 1_556 S
C1725 C1721 1.376 . S
C1725 C1724 1.392 . S
C1725 H1737 0.929 1_556 S
C1726 C1722 1.531 . S
C1726 H1738 0.960 . S
C1726 H1739 0.962 . S
C1726 H1740 0.960 . S
C1727 C1724 1.511 1_554 S
C1727 H1741 0.961 . S
C1727 H1742 0.961 . S
C1727 H1743 0.961 . S
C1728 C1729 1.370 . S
C1728 C1730 1.363 . S
C1728 H1744 0.938 . S
C1729 C1728 1.370 . S
C1729 C1733 1.408 . S
C1730 C1728 1.363 . S
C1730 C1731 1.370 . S
C1730 C1734 1.524 . S
C1731 C1723 1.503 . S
C1731 C1730 1.370 . S
C1731 C1732 1.403 . S
C1732 C1731 1.403 . S
C1732 C1733 1.404 . S
C1732 C1735 1.539 . S
C1733 C1729 1.408 . S
C1733 C1732 1.404 . S
C1733 H1745 0.930 . S
C1734 C1730 1.524 . S
C1734 H1746 0.956 . S
C1734 H1747 0.961 1_556 S
C1734 H1748 0.961 1_556 S
C1735 C1732 1.539 . S
C1735 H1749 0.958 . S
C1735 H1750 0.961 . S
C1735 H1751 0.960 . S
H1736 C1720 0.931 . S
H1737 C1725 0.929 1_554 S
H1738 C1726 0.960 . S
H1739 C1726 0.962 . S
H1740 C1726 0.960 . S
H1741 C1727 0.961 . S
H1742 C1727 0.961 . S
H1743 C1727 0.961 . S
H1744 C1728 0.938 . S
H1745 C1733 0.930 . S
H1746 C1734 0.956 . S
H1747 C1734 0.961 1_554 S
H1748 C1734 0.961 1_554 S
H1749 C1735 0.958 . S
H1750 C1735 0.961 . S
H1751 C1735 0.960 . S
C1752 C1753 1.391 . S
C1752 C1754 1.394 . S
C1752 H1768 0.931 . S
C1753 C1752 1.391 . S
C1753 C1757 1.376 . S
C1754 C1752 1.394 . S
C1754 C1755 1.369 . S
C1754 C1758 1.531 . S
C1755 C1754 1.369 . S
C1755 C1756 1.410 . S
C1755 C1763 1.503 . S
C1756 C1755 1.410 . S
C1756 C1757 1.392 . S
C1756 C1759 1.511 . S
C1757 C1753 1.376 . S
C1757 C1756 1.392 . S
C1757 H1769 0.929 . S
C1758 C1754 1.531 . S
C1758 H1770 0.960 . S
C1758 H1771 0.962 . S
C1758 H1772 0.960 . S
C1759 C1756 1.511 . S
C1759 H1773 0.961 . S
C1759 H1774 0.961 . S
C1759 H1775 0.961 . S
C1760 C1761 1.370 . S
C1760 C1762 1.363 . S
C1760 H1776 0.931 . S
C1761 C1760 1.370 . S
C1761 C1765 1.408 . S
C1762 C1760 1.363 . S
C1762 C1763 1.370 . S
C1762 C1766 1.524 . S
C1763 C1755 1.503 . S
C1763 C1762 1.370 . S
C1763 C1764 1.403 . S
C1764 C1763 1.403 . S
C1764 C1765 1.404 . S
C1764 C1767 1.539 . S
C1765 C1761 1.408 . S
C1765 C1764 1.404 . S
C1765 H1777 0.930 . S
C1766 C1762 1.524 . S
C1766 H1778 0.956 . S
C1766 H1779 0.961 . S
C1766 H1780 0.961 . S
C1767 C1764 1.539 . S
C1767 H1781 0.958 . S
C1767 H1782 0.961 . S
C1767 H1783 0.960 . S
H1768 C1752 0.931 . S
H1769 C1757 0.929 . S
H1770 C1758 0.960 . S
H1771 C1758 0.962 . S
H1772 C1758 0.960 . S
H1773 C1759 0.961 . S
H1774 C1759 0.961 . S
H1775 C1759 0.961 . S
H1776 C1760 0.931 . S
H1777 C1765 0.930 . S
H1778 C1766 0.956 . S
H1779 C1766 0.961 . S
H1780 C1766 0.961 . S
H1781 C1767 0.958 . S
H1782 C1767 0.961 . S
H1783 C1767 0.960 . S
C1784 C1785 1.391 . S
C1784 C1786 1.394 . S
C1784 H1800 0.931 . S
C1785 C1784 1.391 . S
C1785 C1789 1.376 . S
C1786 C1784 1.394 . S
C1786 C1787 1.369 . S
C1786 C1790 1.531 . S
C1787 C1786 1.369 . S
C1787 C1788 1.410 . S
C1787 C1795 1.503 . S
C1788 C1787 1.410 . S
C1788 C1789 1.392 . S
C1788 C1791 1.511 1_554 S
C1789 C1785 1.376 . S
C1789 C1788 1.392 . S
C1789 H1801 0.929 . S
C1790 C1786 1.531 . S
C1790 H1802 0.960 . S
C1790 H1803 0.962 . S
C1790 H1804 0.960 . S
C1791 C1788 1.511 1_556 S
C1791 H1805 0.961 . S
C1791 H1806 0.961 . S
C1791 H1807 0.961 . S
C1792 C1793 1.370 . S
C1792 C1794 1.363 . S
C1792 H1808 0.931 . S
C1793 C1792 1.370 . S
C1793 C1797 1.408 . S
C1794 C1792 1.363 . S
C1794 C1795 1.370 . S
C1794 C1798 1.524 . S
C1795 C1787 1.503 . S
C1795 C1794 1.370 . S
C1795 C1796 1.403 . S
C1796 C1795 1.403 . S
C1796 C1797 1.404 . S
C1796 C1799 1.539 . S
C1797 C1793 1.408 . S
C1797 C1796 1.404 . S
C1797 H1809 0.930 . S
C1798 C1794 1.524 . S
C1798 H1810 0.956 . S
C1798 H1811 0.961 . S
C1798 H1812 0.961 . S
C1799 C1796 1.539 . S
C1799 H1813 0.958 . S
C1799 H1814 0.961 . S
C1799 H1815 0.960 . S
H1800 C1784 0.931 . S
H1801 C1789 0.929 . S
H1802 C1790 0.960 . S
H1803 C1790 0.962 . S
H1804 C1790 0.960 . S
H1805 C1791 0.961 . S
H1806 C1791 0.961 . S
H1807 C1791 0.961 . S
H1808 C1792 0.931 . S
H1809 C1797 0.930 . S
H1810 C1798 0.956 . S
H1811 C1798 0.961 . S
H1812 C1798 0.961 . S
H1813 C1799 0.958 . S
H1814 C1799 0.961 . S
H1815 C1799 0.960 . S
C1816 C1817 1.391 . S
C1816 C1818 1.394 . S
C1816 H1832 0.931 . S
C1817 C1816 1.391 . S
C1817 C1821 1.376 1_545 S
C1818 C1816 1.394 . S
C1818 C1819 1.369 1_545 S
C1818 C1822 1.529 1_554 S
C1819 C1818 1.369 1_565 S
C1819 C1820 1.410 . S
C1819 C1827 1.503 . S
C1820 C1819 1.410 . S
C1820 C1821 1.392 . S
C1820 C1823 1.511 . S
C1821 C1817 1.376 1_565 S
C1821 C1820 1.392 . S
C1821 H1833 0.929 . S
C1822 C1818 1.529 1_556 S
C1822 H1834 0.959 1_556 S
C1822 H1835 0.963 . S
C1822 H1836 0.959 . S
C1823 C1820 1.511 . S
C1823 H1837 0.961 . S
C1823 H1838 0.961 . S
C1823 H1839 0.961 . S
C1824 C1825 1.370 . S
C1824 C1826 1.363 . S
C1824 H1840 0.931 1_554 S
C1825 C1824 1.370 . S
C1825 C1829 1.408 . S
C1826 C1824 1.363 . S
C1826 C1827 1.370 . S
C1826 C1830 1.524 1_554 S
C1827 C1819 1.503 . S
C1827 C1826 1.370 . S
C1827 C1828 1.403 . S
C1828 C1827 1.403 . S
C1828 C1829 1.404 . S
C1828 C1831 1.539 . S
C1829 C1825 1.408 . S
C1829 C1828 1.404 . S
C1829 H1841 0.930 . S
C1830 C1826 1.524 1_556 S
C1830 H1842 0.956 . S
C1830 H1843 0.934 1_556 S
C1830 H1844 0.961 . S
C1831 C1828 1.539 . S
C1831 H1845 0.956 1_565 S
C1831 H1846 0.961 . S
C1831 H1847 0.960 . S
H1832 C1816 0.931 . S
H1833 C1821 0.929 . S
H1834 C1822 0.959 1_554 S
H1835 C1822 0.963 . S
H1836 C1822 0.959 . S
H1837 C1823 0.961 . S
H1838 C1823 0.961 . S
H1839 C1823 0.961 . S
H1840 C1824 0.931 1_556 S
H1841 C1829 0.930 . S
H1842 C1830 0.956 . S
H1843 C1830 0.934 1_554 S
H1844 C1830 0.961 . S
H1845 C1831 0.956 1_545 S
H1846 C1831 0.961 . S
H1847 C1831 0.960 . S
C321 C152 1.491 . S
C313 C50 1.516 . S
C353 C165 1.468 . S
C345 C61 1.477 . S
C377 C67 1.607 . S
C385 C185 1.516 . S
C417 C199 1.371 . S
C409 C41 1.444 . S
C449 C211 1.506 . S
C441 C95 1.507 . S
C481 C225 1.442 . S
C473 C113 1.445 . S
C505 C106 1.475 . S
C513 C235 1.467 . S
C545 C250 1.518 . S
C537 C86 1.532 . S
C569 C104 1.500 . S
C577 C264 1.471 . S
C609 C283 1.381 . S
C601 C88 1.455 . S
C633 C94 1.501 . S
C641 C263 1.489 . S
C673 C281 1.430 . S
C665 C112 1.432 . S
C697 C70 1.607 . S
C705 C297 1.507 . S
C729 C40 1.484 . S
C737 C291 1.477 . S
C761 C49 1.512 . S
C769 C295 1.513 . S
C793 C59 1.536 . S
C801 C292 1.518 . S
C825 C34 1.500 . S
C833 C194 1.470 . S
C857 C133 1.480 . S
C865 C193 1.481 . S
C897 C157 1.381 . S
C889 C139 1.452 . S
C929 C171 1.507 . S
C921 C77 1.611 . S
C953 C43 1.524 . S
C961 C208 1.498 . S
C993 C253 1.511 . S
C985 C103 1.510 . S
C1025 C207 1.488 . S
C1017 C85 1.494 . S
C1057 C239 1.428 . S
C1049 C115 1.424 . S
C1089 C236 1.488 . S
C1081 C131 1.515 . S
C1113 C142 1.477 . S
C1121 C249 1.477 . S
C1145 C76 1.614 . S
C1153 C213 1.497 . S
C1185 C227 1.362 . S
C1177 C122 1.444 . S
C1209 C32 1.502 . S
C1217 C183 1.503 . S
C1249 C197 1.441 . S
C1241 C5 1.436 . S
C1281 C151 1.468 . S
C1273 C16 1.475 . S
C1313 C166 1.509 . S
C1305 C23 1.531 . S
C1337 C14 1.506 . S
C1345 C278 1.484 . S
C1369 C25 1.444 . S
C1377 C269 1.361 . S
C1401 C31 1.499 . S
C1409 C277 1.497 . S
C1433 C4 1.427 . S
C1441 C267 1.431 . S
C1473 C311 1.515 . S
C1465 C79 1.603 . S
C1505 C305 1.481 . S
C1497 C121 1.483 . S
C1537 C309 1.512 . S
C1529 C130 1.512 . S
C1561 C140 1.539 . S
C1569 C306 1.516 . S
C1593 C97 1.504 . S
C1601 C222 1.486 . S
C1633 C221 1.478 . S
C1625 C52 1.483 . S
C1665 C241 1.366 . S
C1657 C58 1.448 . S
C1697 C255 1.510 . S
C1689 C68 1.611 . S
C1721 C124 1.516 . S
C1729 C180 1.491 . S
C1761 C169 1.504 . S
C1753 C13 1.507 . S
C1785 C22 1.494 . S
C1793 C179 1.492 . S
C1825 C155 1.424 . S
C1817 C7 1.419 . S
