# Generated by pormake.
# Topology tsx, (6,3)-cn, num edge types: 1
# Building blocks:
#     Node 0, Type 0, BuildingBlock: CIFDUS_clean_sbu_1, # of connection points: 6
#     Node 1, Type 0, BuildingBlock: CIFDUS_clean_sbu_1, # of connection points: 6
#     Node 2, Type 1, BuildingBlock: INOVEN_clean_linker_0, # of connection points: 3
#     Node 3, Type 1, BuildingBlock: INOVEN_clean_linker_0, # of connection points: 3
#     Node 4, Type 1, BuildingBlock: INOVEN_clean_linker_0, # of connection points: 3
#     Node 5, Type 1, BuildingBlock: INOVEN_clean_linker_0, # of connection points: 3
#     Edge 6, Type (0, 1), BuildingBlock: XIVTED_clean_linker_0, # of connection points: 2
#     Edge 7, Type (0, 1), BuildingBlock: XIVTED_clean_linker_0, # of connection points: 2
#     Edge 8, Type (0, 1), BuildingBlock: XIVTED_clean_linker_0, # of connection points: 2
#     Edge 9, Type (0, 1), BuildingBlock: XIVTED_clean_linker_0, # of connection points: 2
#     Edge 10, Type (0, 1), BuildingBlock: XIVTED_clean_linker_0, # of connection points: 2
#     Edge 11, Type (0, 1), BuildingBlock: XIVTED_clean_linker_0, # of connection points: 2
#     Edge 12, Type (0, 1), BuildingBlock: XIVTED_clean_linker_0, # of connection points: 2
#     Edge 13, Type (0, 1), BuildingBlock: XIVTED_clean_linker_0, # of connection points: 2
#     Edge 14, Type (0, 1), BuildingBlock: XIVTED_clean_linker_0, # of connection points: 2
#     Edge 15, Type (0, 1), BuildingBlock: XIVTED_clean_linker_0, # of connection points: 2
#     Edge 16, Type (0, 1), BuildingBlock: XIVTED_clean_linker_0, # of connection points: 2
#     Edge 17, Type (0, 1), BuildingBlock: XIVTED_clean_linker_0, # of connection points: 2
# Relax obj value: 0.088
# Max RMSD: 0.136
# Mean RMSD: 0.102
data_MOF--net-tsx--node1-CIFDUS_clean_sbu_1--node2-INOVEN_clean_linker_0--edge1-XIVTED_clean_linker_0
_symmetry_space_group_name_H-M    P1
_symmetry_Int_Tables_number       1
_symmetry_cell_setting            triclinic
loop_
_symmetry_equiv_pos_as_xyz
'x, y, z'
_cell_length_a     17.510637
_cell_length_b     23.108318
_cell_length_c     35.004182
_cell_angle_alpha  96.374215
_cell_angle_beta   107.37467
_cell_angle_gamma 92.369816
loop_
_atom_site_label
_atom_site_type_symbol
_atom_site_fract_x
_atom_site_fract_y
_atom_site_fract_z
_atom_type_partial_charge
O0 O 1.02703 0.09891 0.00578 0.0
Mn1 Mn 0.08257 0.01965 0.00405 0.0
O2 O 0.8973 0.07902 0.96951 0.0
Mn3 Mn 0.91629 0.01306 0.94009 0.0
O4 O 0.13975 0.94162 0.00317 0.0
O5 O 0.18853 0.06511 0.03061 0.0
Mn6 Mn 0.24695 0.03297 0.07171 0.0
O7 O 0.0677 0.00886 0.0602 0.0
O8 O 0.26093 0.95859 0.05046 0.0
O9 O 0.09724 0.03055 0.94822 0.0
O10 O 0.97256 0.02614 0.9042 0.0
O11 O 0.30839 0.09772 0.06745 0.0
O12 O 0.18727 0.03616 0.10725 0.0
C13 C 0.91907 0.9319 0.9644 0.0
C14 C 0.95406 0.11298 0.99401 0.0
C15 C 0.20872 0.92531 0.02241 0.0
C16 C 0.24666 0.10461 0.03741 0.0
C17 C 0.11252 0.02064 0.09707 0.0
C18 C 0.04876 0.03265 0.91278 0.0
O19 O 0.97673 0.97294 0.97613 0.0
O20 O 0.85783 0.94323 0.9355 0.0
O21 O 0.53321 0.59214 0.50411 0.0
Mn22 Mn 0.59166 0.51402 0.50555 0.0
O23 O 0.40925 0.57119 0.4602 0.0
Mn24 Mn 0.4337 0.50316 0.4351 0.0
O25 O 0.65095 0.43683 0.50764 0.0
O26 O 0.69509 0.56052 0.53549 0.0
Mn27 Mn 0.74987 0.52886 0.5777 0.0
O28 O 0.56798 0.50386 0.55976 0.0
O29 O 0.76867 0.45523 0.55739 0.0
O30 O 0.61639 0.5246 0.45181 0.0
O31 O 0.49791 0.51189 0.4023 0.0
O32 O 0.81159 0.59484 0.57542 0.0
O33 O 0.68366 0.5299 0.61012 0.0
C34 C 0.43102 0.42447 0.46187 0.0
C35 C 0.4612 0.60547 0.48744 0.0
C36 C 0.7192 0.42139 0.52852 0.0
C37 C 0.75255 0.60084 0.54387 0.0
C38 C 0.60866 0.51468 0.59736 0.0
C39 C 0.57399 0.52169 0.41465 0.0
O40 O 0.48829 0.46581 0.47465 0.0
O41 O 0.37381 0.43404 0.43046 0.0
H42 H 0.13688 0.98813 0.48809 0.0
H43 H 0.1836 0.92398 0.37731 0.0
H44 H 1.00584 0.04627 0.37636 0.0
N45 N 1.02195 0.056 0.45516 0.0
N46 N 0.95738 0.07423 0.43588 0.0
C47 C 0.12434 0.98662 0.45579 0.0
C48 C 0.1668 0.9507 0.43538 0.0
C49 C 0.06522 0.0203 0.43455 0.0
C50 C 0.05078 0.01979 0.39286 0.0
C51 C 0.09438 0.98632 0.37221 0.0
C52 C 0.15132 0.95106 0.39348 0.0
H53 H 1.03983 -0.00146 0.52203 0.0
H54 H 0.99402 0.95175 0.62919 0.0
H55 H 0.17585 0.08745 0.63905 0.0
N56 N 0.15807 0.08033 0.55918 0.0
N57 N 0.21522 0.11586 0.57951 0.0
C58 C 0.05303 0.00456 0.55448 0.0
C59 C 1.00899 0.97032 0.5726 0.0
C60 C 0.11373 0.04668 0.57815 0.0
C61 C 0.12954 0.05493 0.62034 0.0
C62 C 0.08661 0.02071 0.63874 0.0
C63 C 1.0267 0.97852 0.6148 0.0
H64 H 0.6275 0.49103 0.98668 0.0
H65 H 0.67765 0.42524 0.87734 0.0
H66 H 0.49159 0.54168 0.87298 0.0
N67 N 0.51028 0.55646 0.95231 0.0
N68 N 0.44737 0.57637 0.93264 0.0
C69 C 0.61462 0.4884 0.9543 0.0
C70 C 0.65917 0.45343 0.93467 0.0
C71 C 0.55373 0.52007 0.9322 0.0
C72 C 0.53837 0.51724 0.89024 0.0
C73 C 0.58338 0.48392 0.8703 0.0
C74 C 0.64328 0.4517 0.89266 0.0
H75 H 0.53502 0.50646 0.02289 0.0
H76 H 0.50365 0.44578 0.12951 0.0
H77 H 0.68705 0.58086 0.14075 0.0
N78 N 0.65893 0.58346 0.06079 0.0
N79 N 0.71862 0.61664 0.08136 0.0
C80 C 0.55259 0.50819 0.05536 0.0
C81 C 0.51109 0.47123 0.07311 0.0
C82 C 0.6166 0.54753 0.07945 0.0
C83 C 0.63801 0.55061 0.12177 0.0
C84 C 0.59729 0.51413 0.13987 0.0
C85 C 0.53436 0.4745 0.11541 0.0
H86 H 0.33743 0.1247 0.98954 0.0
H87 H 0.5076 0.39863 0.00464 0.0
H88 H 0.16346 0.20078 0.0402 0.0
H89 H 0.36707 0.44186 0.08466 0.0
H90 H 0.41582 0.3122 0.97393 0.0
H91 H 0.38287 0.22109 0.97998 0.0
C92 C 0.30589 0.1618 0.99661 0.0
C93 C 0.24642 0.15503 0.01538 0.0
C94 C 0.40478 0.3403 -0.00177 0.0
C95 C 0.29997 0.26672 0.00615 0.0
C96 C 0.45676 0.39035 0.0154 0.0
C97 C 0.44673 0.42641 0.04829 0.0
C98 C 0.34303 0.32587 0.01452 0.0
C99 C 0.37891 0.41403 0.06041 0.0
C100 C 0.33225 0.21737 0.99143 0.0
C101 C 0.20885 0.20435 0.02511 0.0
N102 N 0.33069 0.36433 0.04409 0.0
N103 N 0.23771 0.25836 0.02138 0.0
H104 H 0.13762 0.84657 0.9543 0.0
H105 H 0.48892 0.62963 0.01059 0.0
H106 H 0.33194 0.86855 0.06629 0.0
H107 H 0.30976 0.61568 0.89411 0.0
H108 H 0.41948 0.70854 0.03529 0.0
H109 H 0.18701 0.75324 0.93529 0.0
C110 C 0.19002 0.83158 0.97504 0.0
C111 C 0.23136 0.86598 0.01163 0.0
C112 C 0.39469 0.6878 0.00444 0.0
C113 C 0.28814 0.75946 0.99016 0.0
C114 C 0.43421 0.64266 0.99045 0.0
C115 C 0.4046 0.61664 0.95017 0.0
C116 C 0.32561 0.70695 0.97793 0.0
C117 C 0.33388 0.6351 0.9253 0.0
C118 C 0.21833 0.77839 0.96416 0.0
C119 C 0.2988 0.84413 0.03743 0.0
N120 N 0.29699 0.67946 0.9394 0.0
N121 N 0.32529 0.79264 0.02609 0.0
H122 H 0.85253 0.82743 0.92336 0.0
H123 H 0.84033 0.69306 0.12202 0.0
H124 H 0.9788 0.91074 0.04337 0.0
H125 H 0.69525 0.62472 0.0014 0.0
H126 H 0.91123 0.76324 0.09406 0.0
H127 H 0.81774 0.74203 0.95155 0.0
C128 C 0.8746 0.82708 0.95574 0.0
C129 C 0.91819 0.87627 0.98119 0.0
C130 C 0.86447 0.73255 0.07369 0.0
C131 C 0.8765 0.77923 0.01386 0.0
C132 C 0.82416 0.69274 0.08961 0.0
C133 C 0.76176 0.65387 0.06406 0.0
C134 C 0.84208 0.73321 0.03175 0.0
C135 C 0.74263 0.65444 0.02223 0.0
C136 C 0.85424 0.77844 0.97184 0.0
C137 C 0.94555 0.87358 0.0228 0.0
N138 N 0.7824 0.69381 0.00743 0.0
N139 N 0.92298 0.82617 0.038 0.0
H140 H 0.83215 0.14345 0.02279 0.0
H141 H 0.81082 0.43898 0.92976 0.0
H142 H 1.02581 0.21656 0.98646 0.0
H143 H 0.64521 0.383 0.99056 0.0
H144 H 0.90009 0.36561 0.95842 0.0
H145 H 0.77394 0.23769 0.02104 0.0
C146 C 0.86372 0.18012 0.01571 0.0
C147 C 0.93382 0.17252 0.00485 0.0
C148 C 0.84495 0.37001 0.96612 0.0
C149 C 0.86598 0.2799 0.00107 0.0
C150 C 0.79376 0.41168 0.94958 0.0
C151 C 0.71982 0.41638 0.95723 0.0
C152 C 0.82155 0.33212 0.99003 0.0
C153 C 0.70144 0.38072 0.98372 0.0
C154 C 0.83029 0.23385 0.01447 0.0
C155 C 0.97211 0.221 0.99546 0.0
N156 N 0.75122 0.33941 -0.00143 0.0
N157 N 0.93669 0.27241 0.99289 0.0
H158 H 0.6597 0.69259 0.53987 0.0
H159 H 1.02135 0.8859 0.51376 0.0
H160 H 0.85493 0.62482 0.50244 0.0
H161 H 0.85749 0.94752 0.57698 0.0
H162 H 0.93224 0.79676 0.48615 0.0
H163 H 0.70116 0.7906 0.52896 0.0
C164 C 0.70872 0.69798 0.52732 0.0
C165 C 0.75399 0.65103 0.52186 0.0
C166 C 0.91486 0.83039 0.50533 0.0
C167 C 0.80377 0.76256 0.51093 0.0
C168 C 0.96556 0.88136 0.52094 0.0
C169 C 0.94763 0.92338 0.54845 0.0
C170 C 0.84587 0.82157 0.51733 0.0
C171 C 0.87443 0.91539 0.55666 0.0
C172 C 0.7332 0.75396 0.52167 0.0
C173 C 0.81852 0.66024 0.5068 0.0
N174 N 0.8269 0.86502 0.54174 0.0
N175 N 0.84246 0.71515 0.50253 0.0
H176 H 0.84355 0.36689 0.57392 0.0
H177 H 0.81522 0.10777 0.3986 0.0
H178 H 0.6525 0.34148 0.46065 0.0
H179 H 1.00255 0.13226 0.51265 0.0
H180 H 0.7457 0.18613 0.42377 0.0
H181 H 0.89348 0.27489 0.55499 0.0
C182 C 0.81167 0.34183 0.54507 0.0
C183 C 0.74423 0.36257 0.51855 0.0
C184 C 0.80142 0.17399 0.44355 0.0
C185 C 0.80172 0.25664 0.49667 0.0
C186 C 0.84073 0.12927 0.42923 0.0
C187 C 0.91417 0.11396 0.4535 0.0
C188 C 0.83653 0.20402 0.48247 0.0
C189 C 0.94581 0.14287 0.49296 0.0
C190 C 0.84029 0.28908 0.53435 0.0
C191 C 0.70496 0.32751 0.48192 0.0
N192 N 0.90704 0.18701 0.50608 0.0
N193 N 0.73485 0.27655 0.47187 0.0
H194 H 0.49169 0.40535 0.54164 0.0
H195 H 0.19907 0.11525 0.4994 0.0
H196 H 0.35618 0.32077 0.42326 0.0
H197 H 0.3325 0.19649 0.61901 0.0
H198 H 0.27199 0.18271 0.47111 0.0
H199 H 0.45276 0.32153 0.57095 0.0
C200 C 0.45569 0.36862 0.52179 0.0
C201 C 0.42624 0.37036 0.4801 0.0
C202 C 0.28606 0.18562 0.5036 0.0
C203 C 0.38033 0.27491 0.51312 0.0
C204 C 0.24423 0.14712 0.51969 0.0
C205 C 0.25967 0.1511 0.56162 0.0
C206 C 0.34307 0.22859 0.52956 0.0
C207 C 0.31905 0.19276 0.58653 0.0
C208 C 0.4328 0.32091 0.53848 0.0
C209 C 0.37919 0.32157 0.45569 0.0
N210 N 0.35816 0.23042 0.57019 0.0
N211 N 0.35696 0.27627 0.47255 0.0
H212 H 0.32987 0.62786 0.50988 0.0
H213 H 0.15368 0.88708 0.49526 0.0
H214 H 0.53055 0.7132 0.48562 0.0
H215 H 0.31176 0.92293 0.42538 0.0
H216 H 0.23865 0.81193 0.52358 0.0
H217 H 0.26706 0.71966 0.50964 0.0
C218 C 0.362 0.6668 0.50602 0.0
C219 C 0.43567 0.66331 0.49818 0.0
C220 C 0.2546 0.83579 0.50182 0.0
C221 C 0.36386 0.7692 0.49736 0.0
C222 C 0.20661 0.87955 0.48606 0.0
C223 C 0.22417 0.91051 0.45698 0.0
C224 C 0.32019 0.82218 0.48801 0.0
C225 C 0.29414 0.89883 0.4466 0.0
C226 C 0.32624 0.71953 0.50601 0.0
C227 C 0.47432 0.71451 0.49251 0.0
N228 N 0.33893 0.85515 0.46169 0.0
N229 N 0.43708 0.76522 0.49134 0.0
H230 H 0.05518 0.92118 0.11784 0.0
H231 H 0.07911 0.08475 0.33517 0.0
H232 H 0.10106 0.10703 0.15291 0.0
H233 H 0.08107 0.89771 0.3104 0.0
H234 H 0.05995 0.09243 0.26423 0.0
H235 H 1.03512 0.91092 0.18346 0.0
C236 C 0.05801 0.95993 0.13884 0.0
C237 C 0.07883 0.01508 0.13018 0.0
C238 C 0.06407 0.0496 0.27416 0.0
C239 C 0.05851 0.00377 0.20509 0.0
C240 C 0.07471 0.04514 0.31468 0.0
C241 C 0.08183 0.99047 0.32878 0.0
C242 C 0.06085 -0.0009 0.24729 0.0
C243 C 0.07693 0.94078 0.30089 0.0
C244 C 0.04774 0.95405 0.17639 0.0
C245 C 0.08436 0.06389 0.1586 0.0
N246 N 0.06703 0.94628 0.26141 0.0
N247 N 0.07482 0.05707 0.19491 0.0
H248 H 0.15996 0.97152 0.88854 0.0
H249 H 0.08713 0.12196 0.68687 0.0
H250 H 1.00696 0.11231 0.86074 0.0
H251 H 0.12299 0.93897 0.69068 0.0
H252 H 0.10003 0.13321 0.75918 0.0
H253 H 0.18943 0.97438 0.82415 0.0
C254 C 0.13461 0.00407 0.86939 0.0
C255 C 0.08079 0.04155 0.87946 0.0
C256 C 0.10627 0.09085 0.74423 0.0
C257 C 0.11412 0.04527 0.80675 0.0
C258 C 0.09911 0.08447 0.70317 0.0
C259 C 0.10312 0.02936 0.68298 0.0
C260 C 0.1188 0.04196 0.76518 0.0
C261 C 0.11851 0.98199 0.70526 0.0
C262 C 0.15086 0.0054 0.83272 0.0
C263 C 0.04846 0.08254 0.85367 0.0
N264 N 0.12553 0.98929 0.74525 0.0
N265 N 0.06538 0.08322 0.81834 0.0
H266 H 0.56679 0.6003 0.64435 0.0
H267 H 0.57637 0.39191 0.81188 0.0
H268 H 0.57065 0.41354 0.62252 0.0
H269 H 0.5581 0.57813 0.82866 0.0
H270 H 0.55814 0.39629 0.74009 0.0
H271 H 0.54169 0.59048 0.70846 0.0
C272 C 0.55948 0.55705 0.65261 0.0
C273 C 0.5697 0.5076 0.62831 0.0
C274 C 0.55721 0.43605 0.75944 0.0
C275 C 0.54514 0.49589 0.70223 0.0
C276 C 0.56836 0.43364 0.80046 0.0
C277 C 0.56919 0.48476 0.82637 0.0
C278 C 0.54743 0.49004 0.74432 0.0
C279 C 0.55719 0.53751 0.80981 0.0
C280 C 0.54608 0.55137 0.68935 0.0
C281 C 0.56184 0.45252 0.64046 0.0
N282 N 0.54743 0.53881 0.77 0.0
N283 N 0.55129 0.44812 0.67701 0.0
H284 H 0.58919 0.61836 0.37954 0.0
H285 H 0.62336 0.42437 0.18574 0.0
H286 H 0.64032 0.43762 0.37776 0.0
H287 H 0.62104 0.6119 0.19505 0.0
H288 H 0.64498 0.43016 0.25839 0.0
H289 H 0.61865 0.62025 0.31549 0.0
C290 C 0.60938 0.5797 0.36617 0.0
C291 C 0.61328 0.52795 0.38372 0.0
C292 C 0.64091 0.47019 0.24473 0.0
C293 C 0.64364 0.52875 0.31002 0.0
C294 C 0.62804 0.46681 0.20324 0.0
C295 C 0.61933 0.51767 0.18439 0.0
C296 C 0.64386 0.52477 0.26747 0.0
C297 C 0.62726 0.57165 0.20847 0.0
C298 C 0.62559 0.58054 0.32954 0.0
C299 C 0.63772 0.47847 0.36511 0.0
N300 N 0.63785 0.57374 0.24869 0.0
N301 N 0.65076 0.47977 0.32884 0.0
loop_
_geom_bond_atom_site_label_1
_geom_bond_atom_site_label_2
_geom_bond_distance
_geom_bond_site_symmetry_2
_ccdc_geom_bond_type
O0 Mn1 2.163 . S
O0 C14 1.244 1_454 S
Mn1 O0 2.163 . S
Mn1 O4 2.160 1_544 S
Mn1 O5 2.221 . S
Mn1 O7 2.163 . S
Mn1 O9 2.160 1_554 S
Mn1 O19 2.221 1_444 S
O2 Mn3 2.087 1_545 S
O2 C14 1.256 . S
Mn3 O2 2.087 1_565 S
Mn3 O10 2.089 1_565 S
Mn3 O19 2.290 . S
Mn3 O20 2.251 . S
O4 Mn1 2.160 1_566 S
O4 C15 1.239 1_556 S
O5 Mn1 2.221 . S
O5 Mn6 2.290 . S
O5 C16 1.278 . S
Mn6 O5 2.290 . S
Mn6 O8 2.089 1_545 S
Mn6 O11 2.251 . S
Mn6 O12 2.087 . S
O7 Mn1 2.163 . S
O7 C17 1.244 . S
O8 Mn6 2.089 1_565 S
O8 C15 1.256 . S
O9 Mn1 2.160 1_556 S
O9 C18 1.239 . S
O10 Mn3 2.089 1_545 S
O10 C18 1.256 1_655 S
O11 Mn6 2.251 . S
O11 C16 1.241 . S
O12 Mn6 2.087 . S
O12 C17 1.256 . S
C13 O19 1.278 . S
C13 O20 1.241 . S
C14 O0 1.244 1_656 S
C14 O2 1.256 . S
C15 O4 1.239 1_554 S
C15 O8 1.256 . S
C16 O5 1.278 . S
C16 O11 1.241 . S
C17 O7 1.244 . S
C17 O12 1.256 . S
C18 O9 1.239 . S
C18 O10 1.256 1_455 S
O19 Mn1 2.221 1_666 S
O19 Mn3 2.290 . S
O19 C13 1.278 . S
O20 Mn3 2.251 . S
O20 C13 1.241 . S
O21 Mn22 2.163 . S
O21 C35 1.244 . S
Mn22 O21 2.163 . S
Mn22 O25 2.160 . S
Mn22 O26 2.221 . S
Mn22 O28 2.163 . S
Mn22 O30 2.160 . S
Mn22 O40 2.221 . S
O23 Mn24 2.087 . S
O23 C35 1.256 . S
Mn24 O23 2.087 . S
Mn24 O31 2.089 . S
Mn24 O40 2.290 . S
Mn24 O41 2.251 . S
O25 Mn22 2.160 . S
O25 C36 1.239 . S
O26 Mn22 2.221 . S
O26 Mn27 2.290 . S
O26 C37 1.278 . S
Mn27 O26 2.290 . S
Mn27 O29 2.089 . S
Mn27 O32 2.251 . S
Mn27 O33 2.087 . S
O28 Mn22 2.163 . S
O28 C38 1.244 . S
O29 Mn27 2.089 . S
O29 C36 1.256 . S
O30 Mn22 2.160 . S
O30 C39 1.239 . S
O31 Mn24 2.089 . S
O31 C39 1.256 . S
O32 Mn27 2.251 . S
O32 C37 1.241 . S
O33 Mn27 2.087 . S
O33 C38 1.256 . S
C34 O40 1.278 . S
C34 O41 1.241 . S
C35 O21 1.244 . S
C35 O23 1.256 . S
C36 O25 1.239 . S
C36 O29 1.256 . S
C37 O26 1.278 . S
C37 O32 1.241 . S
C38 O28 1.244 . S
C38 O33 1.256 . S
C39 O30 1.239 . S
C39 O31 1.256 . S
O40 Mn22 2.221 . S
O40 Mn24 2.290 . S
O40 C34 1.278 . S
O41 Mn24 2.251 . S
O41 C34 1.241 . S
H42 C47 0.929 . S
H43 C52 0.931 . S
H44 C50 0.930 . S
N45 N46 1.234 . S
N45 C49 1.454 1_655 S
N46 N45 1.234 . S
C47 H42 0.929 . S
C47 C48 1.373 . S
C47 C49 1.368 1_565 S
C48 C47 1.373 . S
C48 C52 1.397 . S
C49 N45 1.454 1_455 S
C49 C47 1.368 1_545 S
C49 C50 1.373 . S
C50 H44 0.930 . S
C50 C49 1.373 . S
C50 C51 1.371 1_545 S
C51 C50 1.371 1_565 S
C51 C52 1.383 . S
C52 H43 0.931 . S
C52 C48 1.397 . S
C52 C51 1.383 . S
H53 C58 0.929 . S
H54 C63 0.931 1_565 S
H55 C61 0.930 . S
N56 N57 1.234 . S
N56 C60 1.453 . S
N57 N56 1.234 . S
C58 H53 0.929 . S
C58 C59 1.373 1_545 S
C58 C60 1.368 1_655 S
C59 C58 1.373 1_565 S
C59 C63 1.397 1_565 S
C60 N56 1.453 . S
C60 C58 1.368 1_455 S
C60 C61 1.373 . S
C61 H55 0.930 . S
C61 C60 1.373 . S
C61 C62 1.371 1_455 S
C62 C61 1.371 1_655 S
C62 C63 1.383 . S
C63 H54 0.931 1_545 S
C63 C59 1.397 1_545 S
C63 C62 1.383 . S
H64 C69 0.950 . S
H65 C74 0.931 . S
H66 C72 0.930 . S
N67 N68 1.234 . S
N67 C71 1.453 . S
N68 N67 1.234 . S
C69 H64 0.950 . S
C69 C70 1.373 . S
C69 C71 1.368 . S
C70 C69 1.373 . S
C70 C74 1.397 . S
C71 N67 1.453 . S
C71 C69 1.368 . S
C71 C72 1.373 . S
C72 H66 0.930 . S
C72 C71 1.373 . S
C72 C73 1.371 . S
C73 C72 1.371 . S
C73 C74 1.383 . S
C74 H65 0.931 . S
C74 C70 1.397 . S
C74 C73 1.383 . S
H75 C80 0.929 . S
H76 C85 0.931 . S
H77 C83 0.930 . S
N78 N79 1.234 . S
N78 C82 1.453 . S
N79 N78 1.234 . S
C80 H75 0.929 . S
C80 C81 1.373 . S
C80 C82 1.368 . S
C81 C80 1.373 . S
C81 C85 1.397 . S
C82 N78 1.453 . S
C82 C80 1.368 . S
C82 C83 1.373 . S
C83 H77 0.930 . S
C83 C82 1.373 . S
C83 C84 1.371 . S
C84 C83 1.371 . S
C84 C85 1.383 . S
C85 H76 0.931 . S
C85 C81 1.397 . S
C85 C84 1.383 . S
H86 C92 0.930 . S
H87 C96 0.930 . S
H88 C101 0.929 . S
H89 C99 0.929 1_556 S
H90 C94 0.929 . S
H91 C100 0.929 . S
C92 H86 0.930 . S
C92 C93 1.367 1_556 S
C92 C100 1.378 . S
C93 C92 1.367 1_554 S
C93 C101 1.433 . S
C94 H90 0.929 . S
C94 C96 1.378 . S
C94 C98 1.350 . S
C95 C98 1.463 . S
C95 C100 1.350 1_554 S
C95 N103 1.427 . S
C96 H87 0.930 . S
C96 C94 1.378 . S
C96 C97 1.367 . S
C97 C96 1.367 . S
C97 C99 1.433 . S
C98 C94 1.350 . S
C98 C95 1.463 . S
C98 N102 1.427 . S
C99 H89 0.929 1_554 S
C99 C97 1.433 . S
C99 N102 1.384 . S
C100 H91 0.929 . S
C100 C92 1.378 . S
C100 C95 1.350 1_556 S
C101 H88 0.929 . S
C101 C93 1.433 . S
C101 N103 1.384 . S
N102 C98 1.427 . S
N102 C99 1.384 . S
N103 C95 1.427 . S
N103 C101 1.384 . S
H104 C110 0.930 . S
H105 C114 0.930 . S
H106 C119 0.929 . S
H107 C117 0.929 . S
H108 C112 0.929 . S
H109 C118 0.929 . S
C110 H104 0.930 . S
C110 C111 1.367 . S
C110 C118 1.378 . S
C111 C110 1.367 . S
C111 C119 1.433 1_554 S
C112 H108 0.929 . S
C112 C114 1.378 . S
C112 C116 1.350 . S
C113 C116 1.463 1_554 S
C113 C118 1.350 . S
C113 N121 1.427 1_554 S
C114 H105 0.930 . S
C114 C112 1.378 . S
C114 C115 1.367 . S
C115 C114 1.367 . S
C115 C117 1.433 1_556 S
C116 C112 1.350 . S
C116 C113 1.463 1_556 S
C116 N120 1.427 1_556 S
C117 H107 0.929 . S
C117 C115 1.433 1_554 S
C117 N120 1.384 . S
C118 H109 0.929 . S
C118 C110 1.378 . S
C118 C113 1.350 . S
C119 H106 0.929 . S
C119 C111 1.433 1_556 S
C119 N121 1.384 . S
N120 C116 1.427 1_554 S
N120 C117 1.384 . S
N121 C113 1.427 1_556 S
N121 C119 1.384 . S
H122 C128 0.930 . S
H123 C132 0.930 . S
H124 C137 0.929 . S
H125 C135 0.929 1_556 S
H126 C130 0.929 . S
H127 C136 0.929 . S
C128 H122 0.930 . S
C128 C129 1.367 1_556 S
C128 C136 1.378 . S
C129 C128 1.367 1_554 S
C129 C137 1.433 . S
C130 H126 0.929 . S
C130 C132 1.378 . S
C130 C134 1.350 . S
C131 C134 1.463 . S
C131 C136 1.350 1_554 S
C131 N139 1.427 . S
C132 H123 0.930 . S
C132 C130 1.378 . S
C132 C133 1.367 . S
C133 C132 1.367 . S
C133 C135 1.433 . S
C134 C130 1.350 . S
C134 C131 1.463 . S
C134 N138 1.427 1_554 S
C135 H125 0.929 1_554 S
C135 C133 1.433 . S
C135 N138 1.384 1_554 S
C136 H127 0.929 . S
C136 C128 1.378 . S
C136 C131 1.350 1_556 S
C137 H124 0.929 . S
C137 C129 1.433 . S
C137 N139 1.384 . S
N138 C134 1.427 1_556 S
N138 C135 1.384 1_556 S
N139 C131 1.427 . S
N139 C137 1.384 . S
H140 C146 0.930 . S
H141 C150 0.930 . S
H142 C155 0.929 . S
H143 C153 0.929 . S
H144 C148 0.929 1_554 S
H145 C154 0.929 . S
C146 H140 0.930 . S
C146 C147 1.367 . S
C146 C154 1.378 . S
C147 C146 1.367 . S
C147 C155 1.433 1_556 S
C148 H144 0.929 1_556 S
C148 C150 1.378 . S
C148 C152 1.350 . S
C149 C152 1.463 . S
C149 C154 1.350 . S
C149 N157 1.427 1_556 S
C150 H141 0.930 . S
C150 C148 1.378 . S
C150 C151 1.367 . S
C151 C150 1.367 . S
C151 C153 1.433 . S
C152 C148 1.350 . S
C152 C149 1.463 . S
C152 N156 1.427 . S
C153 H143 0.929 . S
C153 C151 1.433 . S
C153 N156 1.384 . S
C154 H145 0.929 . S
C154 C146 1.378 . S
C154 C149 1.350 . S
C155 H142 0.929 . S
C155 C147 1.433 1_554 S
C155 N157 1.384 . S
N156 C152 1.427 . S
N156 C153 1.384 . S
N157 C149 1.427 1_554 S
N157 C155 1.384 . S
H158 C164 0.930 . S
H159 C168 0.930 . S
H160 C173 0.929 . S
H161 C171 0.929 . S
H162 C166 0.929 . S
H163 C172 0.929 . S
C164 H158 0.930 . S
C164 C165 1.367 . S
C164 C172 1.378 . S
C165 C164 1.367 . S
C165 C173 1.433 . S
C166 H162 0.929 . S
C166 C168 1.378 . S
C166 C170 1.350 . S
C167 C170 1.463 . S
C167 C172 1.350 . S
C167 N175 1.427 . S
C168 H159 0.930 . S
C168 C166 1.378 . S
C168 C169 1.367 . S
C169 C168 1.367 . S
C169 C171 1.433 . S
C170 C166 1.350 . S
C170 C167 1.463 . S
C170 N174 1.427 . S
C171 H161 0.929 . S
C171 C169 1.433 . S
C171 N174 1.384 . S
C172 H163 0.929 . S
C172 C164 1.378 . S
C172 C167 1.350 . S
C173 H160 0.929 . S
C173 C165 1.433 . S
C173 N175 1.384 . S
N174 C170 1.427 . S
N174 C171 1.384 . S
N175 C167 1.427 . S
N175 C173 1.384 . S
H176 C182 0.930 . S
H177 C186 0.930 . S
H178 C191 0.929 . S
H179 C189 0.929 . S
H180 C184 0.929 . S
H181 C190 0.929 . S
C182 H176 0.930 . S
C182 C183 1.367 . S
C182 C190 1.378 . S
C183 C182 1.367 . S
C183 C191 1.433 . S
C184 H180 0.929 . S
C184 C186 1.378 . S
C184 C188 1.350 . S
C185 C188 1.463 . S
C185 C190 1.350 . S
C185 N193 1.427 . S
C186 H177 0.930 . S
C186 C184 1.378 . S
C186 C187 1.367 . S
C187 C186 1.367 . S
C187 C189 1.433 . S
C188 C184 1.350 . S
C188 C185 1.463 . S
C188 N192 1.427 . S
C189 H179 0.929 . S
C189 C187 1.433 . S
C189 N192 1.384 . S
C190 H181 0.929 . S
C190 C182 1.378 . S
C190 C185 1.350 . S
C191 H178 0.929 . S
C191 C183 1.433 . S
C191 N193 1.384 . S
N192 C188 1.427 . S
N192 C189 1.384 . S
N193 C185 1.427 . S
N193 C191 1.384 . S
H194 C200 0.930 . S
H195 C204 0.930 . S
H196 C209 0.929 . S
H197 C207 0.929 . S
H198 C202 0.929 . S
H199 C208 0.929 . S
C200 H194 0.930 . S
C200 C201 1.367 . S
C200 C208 1.378 . S
C201 C200 1.367 . S
C201 C209 1.433 . S
C202 H198 0.929 . S
C202 C204 1.378 . S
C202 C206 1.350 . S
C203 C206 1.463 . S
C203 C208 1.350 . S
C203 N211 1.427 . S
C204 H195 0.930 . S
C204 C202 1.378 . S
C204 C205 1.367 . S
C205 C204 1.367 . S
C205 C207 1.433 . S
C206 C202 1.350 . S
C206 C203 1.463 . S
C206 N210 1.427 . S
C207 H197 0.929 . S
C207 C205 1.433 . S
C207 N210 1.384 . S
C208 H199 0.929 . S
C208 C200 1.378 . S
C208 C203 1.350 . S
C209 H196 0.929 . S
C209 C201 1.433 . S
C209 N211 1.384 . S
N210 C206 1.427 . S
N210 C207 1.384 . S
N211 C203 1.427 . S
N211 C209 1.384 . S
H212 C218 0.930 . S
H213 C222 0.930 . S
H214 C227 0.929 . S
H215 C225 0.929 . S
H216 C220 0.929 . S
H217 C226 0.929 . S
C218 H212 0.930 . S
C218 C219 1.367 . S
C218 C226 1.378 . S
C219 C218 1.367 . S
C219 C227 1.433 . S
C220 H216 0.929 . S
C220 C222 1.378 . S
C220 C224 1.350 . S
C221 C224 1.463 . S
C221 C226 1.350 . S
C221 N229 1.427 . S
C222 H213 0.930 . S
C222 C220 1.378 . S
C222 C223 1.367 . S
C223 C222 1.367 . S
C223 C225 1.433 . S
C224 C220 1.350 . S
C224 C221 1.463 . S
C224 N228 1.427 . S
C225 H215 0.929 . S
C225 C223 1.433 . S
C225 N228 1.384 . S
C226 H217 0.929 . S
C226 C218 1.378 . S
C226 C221 1.350 . S
C227 H214 0.929 . S
C227 C219 1.433 . S
C227 N229 1.384 . S
N228 C224 1.427 . S
N228 C225 1.384 . S
N229 C221 1.427 . S
N229 C227 1.384 . S
H230 C236 0.930 . S
H231 C240 0.930 . S
H232 C245 0.929 . S
H233 C243 0.929 . S
H234 C238 0.929 . S
H235 C244 0.929 . S
C236 H230 0.930 . S
C236 C237 1.367 1_565 S
C236 C244 1.378 . S
C237 C236 1.367 1_545 S
C237 C245 1.433 . S
C238 H234 0.929 . S
C238 C240 1.378 . S
C238 C242 1.350 1_545 S
C239 C242 1.463 . S
C239 C244 1.350 . S
C239 N247 1.427 1_565 S
C240 H231 0.930 . S
C240 C238 1.378 . S
C240 C241 1.367 1_545 S
C241 C240 1.367 1_565 S
C241 C243 1.433 . S
C242 C238 1.350 1_565 S
C242 C239 1.463 . S
C242 N246 1.427 . S
C243 H233 0.929 . S
C243 C241 1.433 . S
C243 N246 1.384 . S
C244 H235 0.929 . S
C244 C236 1.378 . S
C244 C239 1.350 . S
C245 H232 0.929 . S
C245 C237 1.433 . S
C245 N247 1.384 . S
N246 C242 1.427 . S
N246 C243 1.384 . S
N247 C239 1.427 1_545 S
N247 C245 1.384 . S
H248 C254 0.930 . S
H249 C258 0.930 . S
H250 C263 0.929 . S
H251 C261 0.929 1_565 S
H252 C256 0.929 . S
H253 C262 0.929 1_565 S
C254 H248 0.930 . S
C254 C255 1.367 1_565 S
C254 C262 1.378 1_565 S
C255 C254 1.367 1_545 S
C255 C263 1.433 1_455 S
C256 H252 0.929 . S
C256 C258 1.378 . S
C256 C260 1.350 1_655 S
C257 C260 1.463 . S
C257 C262 1.350 . S
C257 N265 1.427 1_455 S
C258 H249 0.930 . S
C258 C256 1.378 . S
C258 C259 1.367 . S
C259 C258 1.367 . S
C259 C261 1.433 1_655 S
C260 C256 1.350 1_455 S
C260 C257 1.463 . S
C260 N264 1.427 . S
C261 H251 0.929 1_545 S
C261 C259 1.433 1_455 S
C261 N264 1.384 . S
C262 H253 0.929 1_545 S
C262 C254 1.378 1_545 S
C262 C257 1.350 . S
C263 H250 0.929 . S
C263 C255 1.433 1_655 S
C263 N265 1.384 . S
N264 C260 1.427 . S
N264 C261 1.384 . S
N265 C257 1.427 1_655 S
N265 C263 1.384 . S
H266 C272 0.930 . S
H267 C276 0.930 . S
H268 C281 0.929 . S
H269 C279 0.929 . S
H270 C274 0.929 . S
H271 C280 0.929 . S
C272 H266 0.930 . S
C272 C273 1.367 . S
C272 C280 1.378 . S
C273 C272 1.367 . S
C273 C281 1.433 . S
C274 H270 0.929 . S
C274 C276 1.378 . S
C274 C278 1.350 . S
C275 C278 1.463 . S
C275 C280 1.350 . S
C275 N283 1.427 . S
C276 H267 0.930 . S
C276 C274 1.378 . S
C276 C277 1.367 . S
C277 C276 1.367 . S
C277 C279 1.433 . S
C278 C274 1.350 . S
C278 C275 1.463 . S
C278 N282 1.427 . S
C279 H269 0.929 . S
C279 C277 1.433 . S
C279 N282 1.384 . S
C280 H271 0.929 . S
C280 C272 1.378 . S
C280 C275 1.350 . S
C281 H268 0.929 . S
C281 C273 1.433 . S
C281 N283 1.384 . S
N282 C278 1.427 . S
N282 C279 1.384 . S
N283 C275 1.427 . S
N283 C281 1.384 . S
H284 C290 0.930 . S
H285 C294 0.930 . S
H286 C299 0.929 . S
H287 C297 0.929 . S
H288 C292 0.929 . S
H289 C298 0.929 . S
C290 H284 0.930 . S
C290 C291 1.367 . S
C290 C298 1.378 . S
C291 C290 1.367 . S
C291 C299 1.433 . S
C292 H288 0.929 . S
C292 C294 1.378 . S
C292 C296 1.350 . S
C293 C296 1.463 . S
C293 C298 1.350 . S
C293 N301 1.427 . S
C294 H285 0.930 . S
C294 C292 1.378 . S
C294 C295 1.367 . S
C295 C294 1.367 . S
C295 C297 1.433 . S
C296 C292 1.350 . S
C296 C293 1.463 . S
C296 N300 1.427 . S
C297 H287 0.929 . S
C297 C295 1.433 . S
C297 N300 1.384 . S
C298 H289 0.929 . S
C298 C290 1.378 . S
C298 C293 1.350 . S
C299 H286 0.929 . S
C299 C291 1.433 . S
C299 N301 1.384 . S
N300 C296 1.427 . S
N300 C297 1.384 . S
N301 C293 1.427 . S
N301 C299 1.384 . S
C97 C81 1.446 . S
C93 C16 1.324 . S
C111 C15 1.434 . S
C115 N68 1.399 . S
C129 C13 1.271 1_554 S
C133 N79 1.416 . S
C147 C14 1.412 . S
C151 C70 1.456 . S
C165 C37 1.306 . S
C169 C59 1.455 . S
C183 C36 1.431 . S
C187 N46 1.397 . S
C205 N57 1.427 . S
C201 C34 1.274 . S
C223 C48 1.450 . S
C219 C35 1.424 . S
C237 C17 1.573 . S
C241 C51 1.612 . S
C255 C18 1.395 . S
C259 C62 1.420 . S
C277 C73 1.609 . S
C273 C38 1.570 . S
C291 C39 1.395 . S
C295 C84 1.413 . S
