# Generated by pormake.
# Topology rtl, (3,6)-cn, num edge types: 1
# Building blocks:
#     Node 0, Type 0, BuildingBlock: VETTIZ_charged_linker_0, # of connection points: 3
#     Node 1, Type 0, BuildingBlock: VETTIZ_charged_linker_0, # of connection points: 3
#     Node 2, Type 0, BuildingBlock: VETTIZ_charged_linker_0, # of connection points: 3
#     Node 3, Type 0, BuildingBlock: VETTIZ_charged_linker_0, # of connection points: 3
#     Node 4, Type 1, BuildingBlock: KUMJIN_clean_sbu_1, # of connection points: 6
#     Node 5, Type 1, BuildingBlock: KUMJIN_clean_sbu_1, # of connection points: 6
#     Edge 6, Type (0, 1), BuildingBlock: OJICUG_clean_linker_0, # of connection points: 2
#     Edge 7, Type (0, 1), BuildingBlock: OJICUG_clean_linker_0, # of connection points: 2
#     Edge 8, Type (0, 1), BuildingBlock: OJICUG_clean_linker_0, # of connection points: 2
#     Edge 9, Type (0, 1), BuildingBlock: OJICUG_clean_linker_0, # of connection points: 2
#     Edge 10, Type (0, 1), BuildingBlock: OJICUG_clean_linker_0, # of connection points: 2
#     Edge 11, Type (0, 1), BuildingBlock: OJICUG_clean_linker_0, # of connection points: 2
#     Edge 12, Type (0, 1), BuildingBlock: OJICUG_clean_linker_0, # of connection points: 2
#     Edge 13, Type (0, 1), BuildingBlock: OJICUG_clean_linker_0, # of connection points: 2
#     Edge 14, Type (0, 1), BuildingBlock: OJICUG_clean_linker_0, # of connection points: 2
#     Edge 15, Type (0, 1), BuildingBlock: OJICUG_clean_linker_0, # of connection points: 2
#     Edge 16, Type (0, 1), BuildingBlock: OJICUG_clean_linker_0, # of connection points: 2
#     Edge 17, Type (0, 1), BuildingBlock: OJICUG_clean_linker_0, # of connection points: 2
# Relax obj value: 0.018
# Max RMSD: 0.114
# Mean RMSD: 0.067
data_MOF--net-rtl--node1-KUMJIN_clean_sbu_1--node2-VETTIZ_charged_linker_0--edge1-OJICUG_clean_linker_0
_symmetry_space_group_name_H-M    P1
_symmetry_Int_Tables_number       1
_symmetry_cell_setting            triclinic
loop_
_symmetry_equiv_pos_as_xyz
'x, y, z'
_cell_length_a     30.761282
_cell_length_b     31.66493
_cell_length_c     28.314689
_cell_angle_alpha  77.127604
_cell_angle_beta   99.222249
_cell_angle_gamma 90.808603
loop_
_atom_site_label
_atom_site_type_symbol
_atom_site_fract_x
_atom_site_fract_y
_atom_site_fract_z
_atom_type_partial_charge
C0 C 0.1812 0.91444 0.83943 0.0
C1 C 0.14506 0.94345 0.82706 0.0
C2 C 0.12899 0.95849 0.86431 0.0
C3 C 0.18213 0.91196 0.92579 0.0
C4 C 0.19917 0.89917 0.88878 0.0
C5 C 0.23637 0.86661 0.90809 0.0
H6 H 0.33554 0.71085 0.09256 0.0
C7 C 0.20536 0.88653 0.97314 0.0
C8 C 0.2372 0.86004 0.96308 0.0
H9 H 0.36477 0.7518 0.94458 0.0
H10 H 0.31555 0.81268 0.92952 0.0
H11 H 0.34463 0.81167 0.10726 0.0
H12 H 0.23067 0.73561 0.0746 0.0
H13 H 0.22475 0.76078 0.12318 0.0
H14 H 0.26896 0.72214 0.13106 0.0
H15 H 0.32579 0.77076 0.15391 0.0
H16 H 0.30313 0.82537 0.13749 0.0
C17 C 0.27913 0.88747 0.89181 0.0
C18 C 0.22327 0.82505 0.88937 0.0
C19 C 0.15684 0.90188 0.13106 0.0
C20 C 0.16973 0.88149 0.18069 0.0
C21 C 0.20104 0.84703 0.19289 0.0
C22 C 0.22006 0.8341 0.15618 0.0
C23 C 0.20754 0.85579 0.1068 0.0
C24 C 0.17614 0.88885 0.09511 0.0
C25 C 0.16609 0.90813 0.04102 0.0
C26 C 0.19812 0.88269 0.02213 0.0
C27 C 0.22212 0.8517 0.0606 0.0
C28 C 0.17699 0.95693 0.03213 0.0
C29 C 0.11741 0.89857 0.02283 0.0
C30 C 0.33145 0.73289 0.05689 0.0
C31 C 0.3524 0.72463 0.0188 0.0
C32 C 0.3472 0.75544 0.9737 0.0
C33 C 0.31881 0.79121 0.96494 0.0
C34 C 0.29543 0.79692 1.00163 0.0
C35 C 0.30369 0.76971 0.04763 0.0
C36 C 0.27997 0.78528 0.08359 0.0
C37 C 0.25381 0.82419 0.05023 0.0
C38 C 0.26234 0.82977 0.00203 0.0
C39 C 0.31493 0.79878 0.12298 0.0
C40 C 0.24951 0.74911 0.10461 0.0
H41 H 0.13309 0.95465 0.94063 0.0
H42 H 0.19453 0.9031 0.81117 0.0
H43 H 0.18946 0.81544 0.89602 0.0
H44 H 0.24493 0.79683 0.90767 0.0
H45 H 0.22365 0.83044 0.8493 0.0
H46 H 0.27567 0.92331 0.87903 0.0
H47 H 0.28834 0.87475 0.86115 0.0
H48 H 0.30723 0.88215 0.92256 0.0
H49 H 0.13203 0.92766 0.1202 0.0
H50 H 0.21146 0.8307 0.23087 0.0
H51 H 0.24382 0.80785 0.16755 0.0
H52 H 0.20707 0.96238 0.05746 0.0
H53 H 0.14958 0.97633 0.0385 0.0
H54 H 0.1845 0.97028 0.99491 0.0
H55 H 0.10711 0.86743 0.04472 0.0
H56 H 0.11169 0.89441 0.98464 0.0
H57 H 0.09483 0.92448 0.02604 0.0
H58 H 0.10109 0.98095 0.85532 0.0
C59 C 0.14737 0.94287 0.91372 0.0
C60 C 0.64764 0.65622 0.79416 0.0
C61 C 0.61298 0.62702 0.80088 0.0
C62 C 0.59207 0.61064 0.76102 0.0
C63 C 0.63937 0.6523 0.70834 0.0
C64 C 0.65994 0.66886 0.74725 0.0
C65 C 0.69476 0.70093 0.73191 0.0
H66 H 0.79455 0.8137 0.54559 0.0
C67 C 0.65877 0.67196 0.66442 0.0
C68 C 0.69089 0.70118 0.67747 0.0
H69 H 0.8263 0.8162 0.69945 0.0
H70 H 0.76868 0.76508 0.71772 0.0
H71 H 0.79395 0.71495 0.56476 0.0
H72 H 0.68953 0.81 0.537 0.0
H73 H 0.67133 0.77125 0.50283 0.0
H74 H 0.72007 0.80145 0.49085 0.0
H75 H 0.77266 0.74449 0.50389 0.0
H76 H 0.74969 0.69378 0.53096 0.0
C77 C 0.74 0.68271 0.76095 0.0
C78 C 0.68196 0.74538 0.74032 0.0
C79 C 0.61182 0.62074 0.50617 0.0
C80 C 0.62405 0.63299 0.45926 0.0
C81 C 0.65199 0.66849 0.44951 0.0
C82 C 0.66891 0.69018 0.48621 0.0
C83 C 0.65789 0.6764 0.53341 0.0
C84 C 0.629 0.6429 0.54248 0.0
C85 C 0.62 0.63372 0.59447 0.0
C86 C 0.65004 0.66586 0.61562 0.0
C87 C 0.67215 0.6905 0.57972 0.0
C88 C 0.63452 0.58622 0.61914 0.0
C89 C 0.57055 0.64407 0.5931 0.0
C90 C 0.7898 0.80316 0.58346 0.0
C91 C 0.81562 0.81919 0.62096 0.0
C92 C 0.80684 0.80492 0.66949 0.0
C93 C 0.77354 0.7749 0.68017 0.0
C94 C 0.74886 0.75858 0.64209 0.0
C95 C 0.75762 0.77274 0.59481 0.0
C96 C 0.7309 0.7503 0.55907 0.0
C97 C 0.70392 0.72067 0.59227 0.0
C98 C 0.71389 0.72577 0.64093 0.0
C99 C 0.76312 0.7247 0.53812 0.0
C100 C 0.70151 0.78483 0.52001 0.0
H101 H 0.5879 0.60902 0.68638 0.0
H102 H 0.66412 0.66931 0.82436 0.0
H103 H 0.64627 0.7527 0.72683 0.0
H104 H 0.69948 0.77243 0.72029 0.0
H105 H 0.68844 0.74562 0.78 0.0
H106 H 0.7424 0.64707 0.7646 0.0
H107 H 0.74505 0.68896 0.79851 0.0
H108 H 0.76775 0.69608 0.74242 0.0
H109 H 0.59038 0.5937 0.51501 0.0
H110 H 0.66104 0.67944 0.41341 0.0
H111 H 0.69039 0.71654 0.47646 0.0
H112 H 0.66667 0.57845 0.60943 0.0
H113 H 0.61 0.56323 0.60681 0.0
H114 H 0.6397 0.5796 0.65959 0.0
H115 H 0.55616 0.66678 0.55827 0.0
H116 H 0.56531 0.66078 0.62225 0.0
H117 H 0.55077 0.61424 0.59635 0.0
H118 H 0.56574 0.5878 0.76567 0.0
C119 C 0.60508 0.62298 0.71499 0.0
C120 C 0.82945 0.08833 0.24712 0.0
C121 C 0.86571 0.05944 0.25938 0.0
C122 C 0.88189 0.04475 0.22195 0.0
C123 C 0.82876 0.09151 0.16065 0.0
C124 C 0.81162 0.10397 0.19779 0.0
C125 C 0.77465 0.13682 0.17866 0.0
H126 H 0.67647 0.29398 0.99505 0.0
C127 C 0.80571 0.11735 0.1134 0.0
C128 C 0.77397 0.14384 0.12366 0.0
H129 H 0.64719 0.25266 0.14297 0.0
H130 H 0.69604 0.19154 0.15768 0.0
H131 H 0.78114 0.26869 0.01283 0.0
H132 H 0.66669 0.19342 0.9797 0.0
H133 H 0.70805 0.17962 0.94935 0.0
H134 H 0.68572 0.23435 0.93323 0.0
H135 H 0.74284 0.28257 0.9564 0.0
H136 H 0.78683 0.24374 0.964 0.0
C137 C 0.78802 0.17807 0.19794 0.0
C138 C 0.73169 0.11613 0.19454 0.0
C139 C 0.85414 0.10283 0.95513 0.0
C140 C 0.84129 0.12348 0.90557 0.0
C141 C 0.81005 0.15798 0.8936 0.0
C142 C 0.79108 0.17072 0.93047 0.0
C143 C 0.80358 0.14879 0.97976 0.0
C144 C 0.83487 0.11565 0.99123 0.0
C145 C 0.84489 0.09609 0.04526 0.0
C146 C 0.81296 0.12146 0.06438 0.0
C147 C 0.78906 0.15268 0.02608 0.0
C148 C 0.89361 0.10543 0.06358 0.0
C149 C 0.83384 0.04734 0.0538 0.0
C150 C 0.68045 0.27181 0.03063 0.0
C151 C 0.6596 0.28003 0.06881 0.0
C152 C 0.66469 0.24906 0.11379 0.0
C153 C 0.69286 0.21313 0.12233 0.0
C154 C 0.71612 0.20742 0.08553 0.0
C155 C 0.70798 0.23484 0.03966 0.0
C156 C 0.73155 0.21934 0.00353 0.0
C157 C 0.75752 0.18021 0.03667 0.0
C158 C 0.74899 0.17443 0.0849 0.0
C159 C 0.76218 0.25543 0.9827 0.0
C160 C 0.69645 0.20619 0.96403 0.0
H161 H 0.87795 0.04915 0.14553 0.0
H162 H 0.81601 0.09945 0.27545 0.0
H163 H 0.73478 0.08021 0.20653 0.0
H164 H 0.70359 0.12215 0.1638 0.0
H165 H 0.72271 0.12834 0.22564 0.0
H166 H 0.82202 0.18736 0.19176 0.0
H167 H 0.78729 0.17245 0.23796 0.0
H168 H 0.76677 0.20658 0.17963 0.0
H169 H 0.8789 0.07701 0.96584 0.0
H170 H 0.79965 0.1745 0.85569 0.0
H171 H 0.76736 0.19702 0.91926 0.0
H172 H 0.90407 0.13654 0.04178 0.0
H173 H 0.91609 0.07944 0.06036 0.0
H174 H 0.8993 0.10953 0.10179 0.0
H175 H 0.8036 0.04214 0.02856 0.0
H176 H 0.82654 0.03377 0.09106 0.0
H177 H 0.86109 0.02798 0.04703 0.0
H178 H 0.90989 0.02241 0.23079 0.0
C179 C 0.86357 0.06065 0.17256 0.0
C180 C 0.36425 0.34831 0.29347 0.0
C181 C 0.39832 0.37821 0.28691 0.0
C182 C 0.41737 0.39624 0.32625 0.0
C183 C 0.36816 0.35605 0.3776 0.0
C184 C 0.35 0.33729 0.33947 0.0
C185 C 0.31559 0.30468 0.35466 0.0
H186 H 0.18974 0.21771 0.52773 0.0
C187 C 0.34574 0.33911 0.42004 0.0
C188 C 0.31483 0.30875 0.40718 0.0
H189 H 0.19388 0.17919 0.391 0.0
H190 H 0.24852 0.23332 0.37169 0.0
H191 H 0.28876 0.21185 0.55749 0.0
H192 H 0.20095 0.3205 0.49134 0.0
H193 H 0.23857 0.33577 0.53797 0.0
H194 H 0.20361 0.29037 0.55351 0.0
H195 H 0.2598 0.23786 0.59368 0.0
H196 H 0.31344 0.25525 0.57982 0.0
C197 C 0.33223 0.2593 0.35278 0.0
C198 C 0.27126 0.31907 0.32094 0.0
C199 C 0.38387 0.39878 0.57401 0.0
C200 C 0.3682 0.38996 0.61924 0.0
C201 C 0.33526 0.35884 0.62678 0.0
C202 C 0.31787 0.33747 0.58997 0.0
C203 C 0.33374 0.34675 0.54504 0.0
C204 C 0.36641 0.3767 0.53776 0.0
C205 C 0.37975 0.38171 0.48797 0.0
C206 C 0.34969 0.34966 0.46672 0.0
C207 C 0.32271 0.32968 0.5002 0.0
C208 C 0.42906 0.36802 0.49535 0.0
C209 C 0.36892 0.42907 0.45935 0.0
C210 C 0.20248 0.21993 0.49383 0.0
C211 C 0.18705 0.19331 0.46131 0.0
C212 C 0.20436 0.19925 0.41688 0.0
C213 C 0.23661 0.23044 0.40587 0.0
C214 C 0.25248 0.25556 0.43991 0.0
C215 C 0.23555 0.24948 0.48321 0.0
C216 C 0.25831 0.27563 0.51749 0.0
C217 C 0.29133 0.29927 0.48747 0.0
C218 C 0.28758 0.28821 0.44155 0.0
C219 C 0.2811 0.24383 0.56478 0.0
C220 C 0.22377 0.30716 0.52603 0.0
H221 H 0.4182 0.40071 0.39962 0.0
H222 H 0.34951 0.33367 0.26377 0.0
H223 H 0.26445 0.35405 0.31798 0.0
H224 H 0.24305 0.30156 0.33488 0.0
H225 H 0.27193 0.31422 0.28338 0.0
H226 H 0.3686 0.25596 0.36397 0.0
H227 H 0.3242 0.25354 0.31508 0.0
H228 H 0.31878 0.23293 0.37861 0.0
H229 H 0.40885 0.4227 0.5666 0.0
H230 H 0.32313 0.35056 0.66146 0.0
H231 H 0.2927 0.31448 0.59811 0.0
H232 H 0.43868 0.34349 0.53026 0.0
H233 H 0.45079 0.39618 0.49669 0.0
H234 H 0.4367 0.35201 0.46659 0.0
H235 H 0.33727 0.44059 0.4669 0.0
H236 H 0.36424 0.43296 0.41915 0.0
H237 H 0.39501 0.45124 0.47028 0.0
H238 H 0.44348 0.4194 0.32172 0.0
C239 C 0.40247 0.38546 0.37138 0.0
Eu240 Eu 0.04201 0.95911 0.52231 0.0
C241 C 0.92559 0.13159 0.49019 0.0
N242 N 0.96387 0.11992 0.52174 0.0
C243 C 0.98942 0.19257 0.50194 0.0
C244 C 0.91804 0.17451 0.46263 0.0
C245 C 0.99546 0.14963 0.5285 0.0
C246 C 0.95062 0.20505 0.46876 0.0
C247 C 0.85434 0.11128 0.45182 0.0
C248 C 0.89406 0.10033 0.48481 0.0
C249 C 0.84673 0.15401 0.42435 0.0
C250 C 0.87848 0.18552 0.42974 0.0
Eu251 Eu 0.9709 0.04674 0.56412 0.0
N252 N 0.90304 0.0588 0.51042 0.0
C253 C 0.82366 0.07878 0.44704 0.0
C254 C 0.87271 0.02734 0.50725 0.0
C255 C 0.83278 0.03671 0.47514 0.0
H256 H 0.02516 0.1404 0.55481 0.0
H257 H 0.80902 0.01152 0.47215 0.0
H258 H 0.99633 0.86152 0.53337 0.0
H259 H 0.20124 0.00611 0.61014 0.0
H260 H 0.87929 0.99503 0.52932 0.0
H261 H 0.7928 0.08587 0.422 0.0
H262 H 0.13138 0.01669 0.55224 0.0
H263 H 0.01462 0.21604 0.50721 0.0
H264 H 0.81647 0.163 0.39869 0.0
H265 H 0.87216 0.21832 0.40818 0.0
H266 H 0.01138 0.7871 0.58353 0.0
H267 H 0.94608 0.23834 0.44822 0.0
H268 H 0.22128 0.93396 0.66419 0.0
N269 N 0.05456 0.88684 0.56659 0.0
C270 C 0.09304 0.87827 0.59849 0.0
C271 C 0.03447 0.8125 0.58836 0.0
C272 C 0.10328 0.83622 0.62753 0.0
C273 C 0.0257 0.85471 0.56047 0.0
C274 C 0.07331 0.80324 0.62226 0.0
N275 N 0.11066 0.95231 0.57512 0.0
C276 C 0.13911 0.98556 0.57638 0.0
C277 C 0.16197 0.90403 0.63588 0.0
C278 C 0.12207 0.91181 0.60261 0.0
C279 C 0.19037 0.93858 0.63901 0.0
C280 C 0.17907 0.97941 0.60876 0.0
H281 H 0.07999 0.77051 0.64388 0.0
H282 H 0.15121 0.7964 0.68365 0.0
H283 H 0.20252 0.85574 0.69103 0.0
O284 O 0.08818 0.97112 0.47027 0.0
O285 O 0.04507 0.95557 0.60403 0.0
O286 O 0.03755 0.0263 0.60941 0.0
O287 O 0.04677 0.91534 0.47319 0.0
O288 O 0.05217 0.03144 0.49397 0.0
O289 O 0.04172 0.06299 0.55726 0.0
O290 O 0.92548 0.03328 0.61692 0.0
O291 O 0.96445 0.04833 0.48247 0.0
O292 O 0.97517 0.97794 0.4767 0.0
O293 O 0.96513 0.09032 0.61321 0.0
O294 O 0.95746 0.97499 0.58976 0.0
O295 O 0.97199 0.93902 0.53093 0.0
C296 C 0.05128 0.98626 0.62875 0.0
C297 C 0.06426 0.95055 0.39619 0.0
C298 C 0.07914 0.94503 0.31571 0.0
C299 C 0.04591 0.97664 0.29368 0.0
C300 C 0.03224 0.98287 0.37344 0.0
C301 C 0.02261 0.99535 0.32246 0.0
C302 C 0.08763 0.93146 0.36726 0.0
C303 C 0.05905 0.06277 0.51778 0.0
C304 C 0.07505 0.93905 0.44999 0.0
C305 C 0.14288 0.82846 0.6609 0.0
C306 C 0.17212 0.86225 0.66508 0.0
C307 C 0.95938 0.0174 0.45797 0.0
C308 C 0.94831 0.05501 0.69057 0.0
C309 C 0.93288 0.06092 0.77072 0.0
C310 C 0.96654 0.02987 0.79316 0.0
C311 C 0.98075 0.02326 0.71373 0.0
C312 C 0.92444 0.07404 0.71913 0.0
C313 C 0.99034 0.01126 0.76475 0.0
C314 C 0.95054 0.94317 0.56658 0.0
C315 C 0.93752 0.06587 0.63674 0.0
H316 H 0.03823 0.98718 0.2541 0.0
H317 H 0.01543 0.99901 0.39527 0.0
H318 H 0.99758 0.02013 0.30523 0.0
H319 H 0.11337 0.90743 0.38482 0.0
H320 H 0.97415 0.01967 0.83277 0.0
H321 H 0.99789 0.00715 0.69218 0.0
H322 H 0.89836 0.09762 0.70129 0.0
H323 H 0.01569 0.98688 0.78228 0.0
Eu324 Eu 0.45905 0.48215 0.99629 0.0
C325 C 0.64445 0.55677 0.05852 0.0
N326 N 0.62757 0.5195 0.08204 0.0
C327 C 0.69691 0.48246 0.09175 0.0
C328 C 0.68835 0.55793 0.04973 0.0
C329 C 0.65314 0.48283 0.09936 0.0
C330 C 0.71455 0.52011 0.06658 0.0
C331 C 0.6338 0.63257 0.01695 0.0
C332 C 0.61734 0.59364 0.04215 0.0
C333 C 0.67741 0.63373 0.00786 0.0
C334 C 0.7046 0.59653 0.02421 0.0
Eu335 Eu 0.55309 0.52256 0.09192 0.0
N336 N 0.57478 0.59126 0.05022 0.0
C337 C 0.60599 0.66929 0.00181 0.0
C338 C 0.54857 0.62768 0.03825 0.0
C339 C 0.5634 0.66696 0.01314 0.0
H340 H 0.63999 0.45411 0.1199 0.0
H341 H 0.54213 0.69556 0.00311 0.0
H342 H 0.37187 0.5501 0.97103 0.0
H343 H 0.4714 0.30851 0.08217 0.0
H344 H 0.51671 0.62716 0.04902 0.0
H345 H 0.61738 0.69979 0.98237 0.0
H346 H 0.49592 0.37746 0.03655 0.0
H347 H 0.71705 0.45321 0.10547 0.0
H348 H 0.69049 0.6633 0.98834 0.0
H349 H 0.73819 0.59797 0.01695 0.0
H350 H 0.29522 0.55017 0.98692 0.0
H351 H 0.74844 0.5197 0.06059 0.0
H352 H 0.39677 0.30349 0.10463 0.0
N353 N 0.38492 0.48449 0.00776 0.0
C354 C 0.36848 0.44688 0.03102 0.0
C355 C 0.31555 0.52099 0.99985 0.0
C356 C 0.32481 0.44525 0.04063 0.0
C357 C 0.3591 0.52108 0.99143 0.0
C358 C 0.29838 0.48297 0.02481 0.0
N359 N 0.43816 0.41294 0.03751 0.0
C360 C 0.46442 0.37663 0.04825 0.0
C361 C 0.37983 0.37086 0.07139 0.0
C362 C 0.39583 0.41013 0.04643 0.0
C363 C 0.40781 0.33425 0.0854 0.0
C364 C 0.45006 0.33702 0.07312 0.0
H365 H 0.26465 0.48302 0.03144 0.0
H366 H 0.27565 0.4045 0.07384 0.0
H367 H 0.32375 0.33939 0.10067 0.0
O368 O 0.46524 0.44629 0.94004 0.0
O369 O 0.44657 0.47773 0.07442 0.0
O370 O 0.51481 0.46326 0.12159 0.0
O371 O 0.41304 0.49419 0.92715 0.0
O372 O 0.52757 0.45051 0.01103 0.0
O373 O 0.55628 0.45144 0.09147 0.0
O374 O 0.54628 0.55959 0.14692 0.0
O375 O 0.56587 0.52698 0.01394 0.0
O376 O 0.49758 0.54143 0.96694 0.0
O377 O 0.59803 0.51088 0.16179 0.0
O378 O 0.48458 0.55425 0.077 0.0
O379 O 0.45589 0.55327 0.99661 0.0
C380 C 0.4718 0.45949 0.11562 0.0
C381 C 0.44245 0.4841 0.8586 0.0
C382 C 0.43648 0.47766 0.77364 0.0
C383 C 0.4625 0.51444 0.76386 0.0
C384 C 0.46786 0.52101 0.84805 0.0
C385 C 0.47781 0.53613 0.80092 0.0
C386 C 0.42656 0.46261 0.82128 0.0
C387 C 0.5547 0.43522 0.05224 0.0
C388 C 0.43302 0.46745 0.90852 0.0
C389 C 0.30904 0.4063 0.06596 0.0
C390 C 0.33647 0.36924 0.08131 0.0
C391 C 0.54062 0.54505 0.97272 0.0
C392 C 0.56755 0.52291 0.22904 0.0
C393 C 0.56866 0.53402 0.31172 0.0
C394 C 0.54587 0.49524 0.32341 0.0
C395 C 0.54539 0.48408 0.24151 0.0
C396 C 0.5792 0.54774 0.26418 0.0
C397 C 0.53449 0.47038 0.28844 0.0
C398 C 0.45748 0.56954 0.03579 0.0
C399 C 0.57788 0.53834 0.1793 0.0
H400 H 0.47027 0.52686 0.72739 0.0
H401 H 0.47982 0.53802 0.87631 0.0
H402 H 0.4972 0.56484 0.79307 0.0
H403 H 0.40696 0.43396 0.82945 0.0
H404 H 0.53768 0.4837 0.35983 0.0
H405 H 0.53675 0.46448 0.21494 0.0
H406 H 0.59612 0.57793 0.25432 0.0
H407 H 0.51749 0.44027 0.29782 0.0
C408 C 0.15286 0.14022 0.52492 0.0
C409 C 0.15424 0.15907 0.47505 0.0
H410 H 0.12101 0.09639 0.57715 0.0
C411 C 0.12375 0.1451 0.4392 0.0
H412 H 0.1766 0.14822 0.55399 0.0
C413 C 0.09296 0.11348 0.45294 0.0
C414 C 0.09113 0.09615 0.50273 0.0
H415 H 0.12309 0.1589 0.40053 0.0
H416 H 0.06999 0.1032 0.42467 0.0
C417 C 0.12115 0.10999 0.5385 0.0
C418 C 0.40332 0.66338 0.0698 0.0
C419 C 0.37856 0.68398 0.02448 0.0
H420 H 0.44719 0.61079 0.10917 0.0
C421 C 0.37922 0.66563 0.98362 0.0
H422 H 0.40413 0.67664 0.102 0.0
C423 C 0.4051 0.62898 0.98732 0.0
C424 C 0.42971 0.60831 0.03246 0.0
H425 H 0.35971 0.67952 0.94833 0.0
H426 H 0.40586 0.61708 0.95445 0.0
C427 C 0.42836 0.62576 0.07381 0.0
C428 C 0.87492 0.84704 0.57064 0.0
C429 C 0.85167 0.84999 0.60888 0.0
H430 H 0.92222 0.87474 0.5259 0.0
C431 C 0.86226 0.88341 0.63393 0.0
H432 H 0.8687 0.82132 0.55103 0.0
C433 C 0.89471 0.91321 0.62067 0.0
C434 C 0.91711 0.91069 0.58166 0.0
H435 H 0.84484 0.88726 0.66308 0.0
H436 H 0.90173 0.93862 0.64065 0.0
C437 C 0.90654 0.87734 0.55672 0.0
C438 C 0.63274 0.33888 0.10427 0.0
C439 C 0.63355 0.32075 0.06327 0.0
H440 H 0.60597 0.38725 0.13362 0.0
C441 C 0.60903 0.34163 0.01792 0.0
H442 H 0.65206 0.32479 0.1396 0.0
C443 C 0.58409 0.37929 0.01401 0.0
C444 C 0.58254 0.39649 0.05549 0.0
H445 H 0.60832 0.32856 0.98561 0.0
H446 H 0.56544 0.39446 0.97862 0.0
C447 C 0.60692 0.37557 0.10065 0.0
C448 C 0.14432 0.94179 0.21424 0.0
C449 C 0.15053 0.89707 0.21884 0.0
H450 H 0.11734 0.99174 0.2414 0.0
C451 C 0.13603 0.868 0.25821 0.0
H452 H 0.1561 0.96512 0.18511 0.0
C453 C 0.11392 0.88343 0.29086 0.0
C454 C 0.10584 0.92811 0.28447 0.0
H455 H 0.14024 0.83337 0.26264 0.0
H456 H 0.10171 0.8604 0.31991 0.0
C457 C 0.12215 0.95708 0.24649 0.0
C458 C 0.62387 0.58442 0.88783 0.0
C459 C 0.59769 0.61268 0.84873 0.0
H460 H 0.62601 0.54005 0.95749 0.0
C461 C 0.55407 0.62174 0.85276 0.0
H462 H 0.65747 0.57668 0.88525 0.0
C463 C 0.53621 0.60135 0.89417 0.0
C464 C 0.56125 0.57058 0.93181 0.0
H465 H 0.53327 0.64339 0.82291 0.0
H466 H 0.50221 0.60846 0.89582 0.0
C467 C 0.60574 0.56338 0.92898 0.0
C468 C 0.90118 0.08085 0.33556 0.0
C469 C 0.88873 0.04788 0.31056 0.0
H470 H 0.9344 0.09722 0.40088 0.0
C471 C 0.89916 0.00459 0.33435 0.0
H472 H 0.89407 0.11457 0.31767 0.0
C473 C 0.92136 0.99446 0.38271 0.0
C474 C 0.93425 0.02757 0.40761 0.0
H475 H 0.88985 0.97867 0.31567 0.0
H476 H 0.92889 0.96077 0.40034 0.0
C477 C 0.92407 0.07085 0.38336 0.0
C478 C 0.43068 0.42326 0.66648 0.0
C479 C 0.38584 0.41293 0.65848 0.0
H480 H 0.48183 0.45179 0.70929 0.0
C481 C 0.35792 0.42441 0.68865 0.0
H482 H 0.45331 0.41433 0.64455 0.0
C483 C 0.37449 0.4451 0.72622 0.0
C484 C 0.41919 0.45536 0.73405 0.0
H485 H 0.32306 0.41789 0.68296 0.0
H486 H 0.35216 0.45372 0.74869 0.0
C487 C 0.44711 0.44451 0.70369 0.0
C488 C 0.56643 0.59171 0.41537 0.0
C489 C 0.60924 0.60806 0.4211 0.0
H490 H 0.51988 0.55575 0.37601 0.0
C491 C 0.63839 0.59981 0.39051 0.0
H492 H 0.54299 0.59788 0.43791 0.0
C493 C 0.62504 0.57605 0.35492 0.0
C494 C 0.58233 0.55968 0.34926 0.0
H495 H 0.67191 0.61103 0.3946 0.0
H496 H 0.64849 0.56979 0.33242 0.0
C497 C 0.55316 0.56765 0.3799 0.0
C498 C 0.86687 0.06347 0.87165 0.0
C499 C 0.86053 0.10815 0.86727 0.0
H500 H 0.8943 0.01381 0.84442 0.0
C501 C 0.87503 0.13741 0.82802 0.0
H502 H 0.85509 0.04 0.90064 0.0
C503 C 0.89735 0.12221 0.79536 0.0
C504 C 0.90567 0.07759 0.80166 0.0
H505 H 0.8707 0.17201 0.82373 0.0
H506 H 0.9096 0.14537 0.76646 0.0
C507 C 0.88929 0.04842 0.83942 0.0
C508 C 0.45813 0.38365 0.23611 0.0
C509 C 0.41422 0.39226 0.23941 0.0
H510 H 0.51035 0.397 0.19355 0.0
C511 C 0.38812 0.42012 0.19989 0.0
H512 H 0.47889 0.3624 0.26636 0.0
C513 C 0.40648 0.44112 0.15892 0.0
C514 C 0.45112 0.43419 0.15661 0.0
H515 H 0.35432 0.42761 0.20198 0.0
H516 H 0.38621 0.4642 0.13014 0.0
C517 C 0.47622 0.40392 0.19479 0.0
C518 C 0.11309 0.99844 0.75177 0.0
C519 C 0.12217 0.95503 0.7759 0.0
H520 H 0.0844 0.04252 0.68557 0.0
C521 C 0.10851 0.92209 0.75127 0.0
H522 H 0.12342 0.02432 0.77017 0.0
C523 C 0.08551 0.93229 0.70351 0.0
C524 C 0.07655 0.97569 0.67899 0.0
H525 H 0.11473 0.88831 0.76944 0.0
H526 H 0.07424 0.90604 0.68616 0.0
C527 C 0.09088 0.00874 0.70346 0.0
loop_
_geom_bond_atom_site_label_1
_geom_bond_atom_site_label_2
_geom_bond_distance
_geom_bond_site_symmetry_2
_ccdc_geom_bond_type
C0 C1 1.391 . S
C0 C4 1.391 . S
C0 H42 0.948 . S
C1 C0 1.391 . S
C1 C2 1.391 . S
C2 C1 1.391 . S
C2 H58 0.947 . S
C2 C59 1.392 . S
C3 C4 1.391 . S
C3 C7 1.397 . S
C3 C59 1.419 . S
C4 C0 1.391 . S
C4 C3 1.391 . S
C4 C5 1.399 . S
C5 C4 1.399 . S
C5 C8 1.396 . S
C5 C17 1.453 . S
C5 C18 1.684 . S
H6 C30 0.948 . S
C7 C3 1.397 . S
C7 C8 1.394 . S
C7 C26 1.723 1_556 S
C8 C5 1.396 . S
C8 C7 1.394 . S
C8 C38 1.723 1_556 S
H9 C32 0.947 . S
H10 C33 0.948 . S
H11 C39 0.982 . S
H12 C40 0.979 . S
H13 C40 0.980 . S
H14 C40 0.983 . S
H15 C39 0.979 . S
H16 C39 0.977 . S
C17 C5 1.453 . S
C17 H46 0.982 . S
C17 H47 0.979 . S
C17 H48 0.977 . S
C18 C5 1.684 . S
C18 H43 0.979 . S
C18 H44 0.980 . S
C18 H45 0.983 . S
C19 C20 1.391 . S
C19 C24 1.391 . S
C19 H49 0.948 . S
C20 C19 1.391 . S
C20 C21 1.391 . S
C21 C20 1.391 . S
C21 C22 1.392 . S
C21 H50 0.947 . S
C22 C21 1.392 . S
C22 C23 1.419 . S
C22 H51 0.948 . S
C23 C22 1.419 . S
C23 C24 1.391 . S
C23 C27 1.397 . S
C24 C19 1.391 . S
C24 C23 1.391 . S
C24 C25 1.399 . S
C25 C24 1.399 . S
C25 C26 1.396 . S
C25 C28 1.453 . S
C25 C29 1.684 . S
C26 C7 1.723 1_554 S
C26 C25 1.396 . S
C26 C27 1.394 . S
C27 C23 1.397 . S
C27 C26 1.394 . S
C27 C37 1.723 . S
C28 C25 1.453 . S
C28 H52 0.982 . S
C28 H53 0.979 . S
C28 H54 0.977 1_554 S
C29 C25 1.684 . S
C29 H55 0.979 . S
C29 H56 0.980 1_554 S
C29 H57 0.983 . S
C30 H6 0.948 . S
C30 C31 1.391 . S
C30 C35 1.391 . S
C31 C30 1.391 . S
C31 C32 1.391 1_554 S
C32 H9 0.947 . S
C32 C31 1.391 1_556 S
C32 C33 1.392 . S
C33 H10 0.948 . S
C33 C32 1.392 . S
C33 C34 1.419 1_556 S
C34 C33 1.419 1_554 S
C34 C35 1.391 . S
C34 C38 1.397 . S
C35 C30 1.391 . S
C35 C34 1.391 . S
C35 C36 1.399 . S
C36 C35 1.399 . S
C36 C37 1.396 . S
C36 C39 1.453 . S
C36 C40 1.684 . S
C37 C27 1.723 . S
C37 C36 1.396 . S
C37 C38 1.394 . S
C38 C8 1.723 1_554 S
C38 C34 1.397 . S
C38 C37 1.394 . S
C39 H11 0.982 . S
C39 H15 0.979 . S
C39 H16 0.977 . S
C39 C36 1.453 . S
C40 H12 0.979 . S
C40 H13 0.980 . S
C40 H14 0.983 . S
C40 C36 1.684 . S
H41 C59 0.948 . S
H42 C0 0.948 . S
H43 C18 0.979 . S
H44 C18 0.980 . S
H45 C18 0.983 . S
H46 C17 0.982 . S
H47 C17 0.979 . S
H48 C17 0.977 . S
H49 C19 0.948 . S
H50 C21 0.947 . S
H51 C22 0.948 . S
H52 C28 0.982 . S
H53 C28 0.979 . S
H54 C28 0.977 1_556 S
H55 C29 0.979 . S
H56 C29 0.980 1_556 S
H57 C29 0.983 . S
H58 C2 0.947 . S
C59 C2 1.392 . S
C59 C3 1.419 . S
C59 H41 0.948 . S
C60 C61 1.391 . S
C60 C64 1.391 . S
C60 H102 0.948 . S
C61 C60 1.391 . S
C61 C62 1.391 . S
C62 C61 1.391 . S
C62 H118 0.947 . S
C62 C119 1.392 . S
C63 C64 1.391 . S
C63 C67 1.397 . S
C63 C119 1.419 . S
C64 C60 1.391 . S
C64 C63 1.391 . S
C64 C65 1.399 . S
C65 C64 1.399 . S
C65 C68 1.396 . S
C65 C77 1.453 . S
C65 C78 1.684 . S
H66 C90 0.948 . S
C67 C63 1.397 . S
C67 C68 1.394 . S
C67 C86 1.723 . S
C68 C65 1.396 . S
C68 C67 1.394 . S
C68 C98 1.723 . S
H69 C92 0.947 . S
H70 C93 0.948 . S
H71 C99 0.982 . S
H72 C100 0.979 . S
H73 C100 0.980 . S
H74 C100 0.983 . S
H75 C99 0.979 . S
H76 C99 0.977 . S
C77 C65 1.453 . S
C77 H106 0.982 . S
C77 H107 0.979 . S
C77 H108 0.977 . S
C78 C65 1.684 . S
C78 H103 0.979 . S
C78 H104 0.980 . S
C78 H105 0.983 . S
C79 C80 1.391 . S
C79 C84 1.391 . S
C79 H109 0.948 . S
C80 C79 1.391 . S
C80 C81 1.391 . S
C81 C80 1.391 . S
C81 C82 1.392 . S
C81 H110 0.947 . S
C82 C81 1.392 . S
C82 C83 1.419 . S
C82 H111 0.948 . S
C83 C82 1.419 . S
C83 C84 1.391 . S
C83 C87 1.397 . S
C84 C79 1.391 . S
C84 C83 1.391 . S
C84 C85 1.399 . S
C85 C84 1.399 . S
C85 C86 1.396 . S
C85 C88 1.453 . S
C85 C89 1.684 . S
C86 C67 1.723 . S
C86 C85 1.396 . S
C86 C87 1.394 . S
C87 C83 1.397 . S
C87 C86 1.394 . S
C87 C97 1.723 . S
C88 C85 1.453 . S
C88 H112 0.982 . S
C88 H113 0.979 . S
C88 H114 0.977 . S
C89 C85 1.684 . S
C89 H115 0.979 . S
C89 H116 0.980 . S
C89 H117 0.983 . S
C90 H66 0.948 . S
C90 C91 1.391 . S
C90 C95 1.391 . S
C91 C90 1.391 . S
C91 C92 1.391 . S
C92 H69 0.947 . S
C92 C91 1.391 . S
C92 C93 1.392 . S
C93 H70 0.948 . S
C93 C92 1.392 . S
C93 C94 1.419 . S
C94 C93 1.419 . S
C94 C95 1.391 . S
C94 C98 1.397 . S
C95 C90 1.391 . S
C95 C94 1.391 . S
C95 C96 1.399 . S
C96 C95 1.399 . S
C96 C97 1.396 . S
C96 C99 1.453 . S
C96 C100 1.684 . S
C97 C87 1.723 . S
C97 C96 1.396 . S
C97 C98 1.394 . S
C98 C68 1.723 . S
C98 C94 1.397 . S
C98 C97 1.394 . S
C99 H71 0.982 . S
C99 H75 0.979 . S
C99 H76 0.977 . S
C99 C96 1.453 . S
C100 H72 0.979 . S
C100 H73 0.980 . S
C100 H74 0.983 . S
C100 C96 1.684 . S
H101 C119 0.948 . S
H102 C60 0.948 . S
H103 C78 0.979 . S
H104 C78 0.980 . S
H105 C78 0.983 . S
H106 C77 0.982 . S
H107 C77 0.979 . S
H108 C77 0.977 . S
H109 C79 0.948 . S
H110 C81 0.947 . S
H111 C82 0.948 . S
H112 C88 0.982 . S
H113 C88 0.979 . S
H114 C88 0.977 . S
H115 C89 0.979 . S
H116 C89 0.980 . S
H117 C89 0.983 . S
H118 C62 0.947 . S
C119 C62 1.392 . S
C119 C63 1.419 . S
C119 H101 0.948 . S
C120 C121 1.391 . S
C120 C124 1.391 . S
C120 H162 0.948 . S
C121 C120 1.391 . S
C121 C122 1.391 . S
C122 C121 1.391 . S
C122 H178 0.947 . S
C122 C179 1.392 . S
C123 C124 1.391 . S
C123 C127 1.397 . S
C123 C179 1.419 . S
C124 C120 1.391 . S
C124 C123 1.391 . S
C124 C125 1.399 . S
C125 C124 1.399 . S
C125 C128 1.396 . S
C125 C137 1.453 . S
C125 C138 1.684 . S
H126 C150 0.948 1_556 S
C127 C123 1.397 . S
C127 C128 1.394 . S
C127 C146 1.723 . S
C128 C125 1.396 . S
C128 C127 1.394 . S
C128 C158 1.723 . S
H129 C152 0.947 . S
H130 C153 0.948 . S
H131 C159 0.982 . S
H132 C160 0.979 . S
H133 C160 0.980 . S
H134 C160 0.983 . S
H135 C159 0.979 . S
H136 C159 0.977 . S
C137 C125 1.453 . S
C137 H166 0.982 . S
C137 H167 0.979 . S
C137 H168 0.977 . S
C138 C125 1.684 . S
C138 H163 0.979 . S
C138 H164 0.980 . S
C138 H165 0.983 . S
C139 C140 1.391 . S
C139 C144 1.391 . S
C139 H169 0.948 . S
C140 C139 1.391 . S
C140 C141 1.391 . S
C141 C140 1.391 . S
C141 C142 1.392 . S
C141 H170 0.947 . S
C142 C141 1.392 . S
C142 C143 1.419 . S
C142 H171 0.948 . S
C143 C142 1.419 . S
C143 C144 1.391 . S
C143 C147 1.397 1_556 S
C144 C139 1.391 . S
C144 C143 1.391 . S
C144 C145 1.399 1_556 S
C145 C144 1.399 1_554 S
C145 C146 1.396 . S
C145 C148 1.453 . S
C145 C149 1.684 . S
C146 C127 1.723 . S
C146 C145 1.396 . S
C146 C147 1.394 . S
C147 C143 1.397 1_554 S
C147 C146 1.394 . S
C147 C157 1.723 . S
C148 C145 1.453 . S
C148 H172 0.982 . S
C148 H173 0.979 . S
C148 H174 0.977 . S
C149 C145 1.684 . S
C149 H175 0.979 . S
C149 H176 0.980 . S
C149 H177 0.983 . S
C150 H126 0.948 1_554 S
C150 C151 1.391 . S
C150 C155 1.391 . S
C151 C150 1.391 . S
C151 C152 1.391 . S
C152 H129 0.947 . S
C152 C151 1.391 . S
C152 C153 1.392 . S
C153 H130 0.948 . S
C153 C152 1.392 . S
C153 C154 1.419 . S
C154 C153 1.419 . S
C154 C155 1.391 . S
C154 C158 1.397 . S
C155 C150 1.391 . S
C155 C154 1.391 . S
C155 C156 1.399 1_554 S
C156 C155 1.399 1_556 S
C156 C157 1.396 1_556 S
C156 C159 1.453 . S
C156 C160 1.684 . S
C157 C147 1.723 . S
C157 C156 1.396 1_554 S
C157 C158 1.394 . S
C158 C128 1.723 . S
C158 C154 1.397 . S
C158 C157 1.394 . S
C159 H131 0.982 . S
C159 H135 0.979 . S
C159 H136 0.977 . S
C159 C156 1.453 . S
C160 H132 0.979 . S
C160 H133 0.980 . S
C160 H134 0.983 . S
C160 C156 1.684 . S
H161 C179 0.948 . S
H162 C120 0.948 . S
H163 C138 0.979 . S
H164 C138 0.980 . S
H165 C138 0.983 . S
H166 C137 0.982 . S
H167 C137 0.979 . S
H168 C137 0.977 . S
H169 C139 0.948 . S
H170 C141 0.947 . S
H171 C142 0.948 . S
H172 C148 0.982 . S
H173 C148 0.979 . S
H174 C148 0.977 . S
H175 C149 0.979 . S
H176 C149 0.980 . S
H177 C149 0.983 . S
H178 C122 0.947 . S
C179 C122 1.392 . S
C179 C123 1.419 . S
C179 H161 0.948 . S
C180 C181 1.391 . S
C180 C184 1.391 . S
C180 H222 0.948 . S
C181 C180 1.391 . S
C181 C182 1.391 . S
C182 C181 1.391 . S
C182 H238 0.947 . S
C182 C239 1.392 . S
C183 C184 1.391 . S
C183 C187 1.397 . S
C183 C239 1.419 . S
C184 C180 1.391 . S
C184 C183 1.391 . S
C184 C185 1.399 . S
C185 C184 1.399 . S
C185 C188 1.396 . S
C185 C197 1.453 . S
C185 C198 1.684 . S
H186 C210 0.948 . S
C187 C183 1.397 . S
C187 C188 1.394 . S
C187 C206 1.723 . S
C188 C185 1.396 . S
C188 C187 1.394 . S
C188 C218 1.723 . S
H189 C212 0.947 . S
H190 C213 0.948 . S
H191 C219 0.982 . S
H192 C220 0.979 . S
H193 C220 0.980 . S
H194 C220 0.983 . S
H195 C219 0.979 . S
H196 C219 0.977 . S
C197 C185 1.453 . S
C197 H226 0.982 . S
C197 H227 0.979 . S
C197 H228 0.977 . S
C198 C185 1.684 . S
C198 H223 0.979 . S
C198 H224 0.980 . S
C198 H225 0.983 . S
C199 C200 1.391 . S
C199 C204 1.391 . S
C199 H229 0.948 . S
C200 C199 1.391 . S
C200 C201 1.391 . S
C201 C200 1.391 . S
C201 C202 1.392 . S
C201 H230 0.947 . S
C202 C201 1.392 . S
C202 C203 1.419 . S
C202 H231 0.948 . S
C203 C202 1.419 . S
C203 C204 1.391 . S
C203 C207 1.397 . S
C204 C199 1.391 . S
C204 C203 1.391 . S
C204 C205 1.399 . S
C205 C204 1.399 . S
C205 C206 1.396 . S
C205 C208 1.453 . S
C205 C209 1.684 . S
C206 C187 1.723 . S
C206 C205 1.396 . S
C206 C207 1.394 . S
C207 C203 1.397 . S
C207 C206 1.394 . S
C207 C217 1.723 . S
C208 C205 1.453 . S
C208 H232 0.982 . S
C208 H233 0.979 . S
C208 H234 0.977 . S
C209 C205 1.684 . S
C209 H235 0.979 . S
C209 H236 0.980 . S
C209 H237 0.983 . S
C210 H186 0.948 . S
C210 C211 1.391 . S
C210 C215 1.391 . S
C211 C210 1.391 . S
C211 C212 1.391 . S
C212 H189 0.947 . S
C212 C211 1.391 . S
C212 C213 1.392 . S
C213 H190 0.948 . S
C213 C212 1.392 . S
C213 C214 1.419 . S
C214 C213 1.419 . S
C214 C215 1.391 . S
C214 C218 1.397 . S
C215 C210 1.391 . S
C215 C214 1.391 . S
C215 C216 1.399 . S
C216 C215 1.399 . S
C216 C217 1.396 . S
C216 C219 1.453 . S
C216 C220 1.684 . S
C217 C207 1.723 . S
C217 C216 1.396 . S
C217 C218 1.394 . S
C218 C188 1.723 . S
C218 C214 1.397 . S
C218 C217 1.394 . S
C219 H191 0.982 . S
C219 H195 0.979 . S
C219 H196 0.977 . S
C219 C216 1.453 . S
C220 H192 0.979 . S
C220 H193 0.980 . S
C220 H194 0.983 . S
C220 C216 1.684 . S
H221 C239 0.948 . S
H222 C180 0.948 . S
H223 C198 0.979 . S
H224 C198 0.980 . S
H225 C198 0.983 . S
H226 C197 0.982 . S
H227 C197 0.979 . S
H228 C197 0.977 . S
H229 C199 0.948 . S
H230 C201 0.947 . S
H231 C202 0.948 . S
H232 C208 0.982 . S
H233 C208 0.979 . S
H234 C208 0.977 . S
H235 C209 0.979 . S
H236 C209 0.980 . S
H237 C209 0.983 . S
H238 C182 0.947 . S
C239 C182 1.392 . S
C239 C183 1.419 . S
C239 H221 0.948 . S
Eu240 N269 2.600 . S
Eu240 N275 2.562 . S
Eu240 O284 2.462 . S
Eu240 O285 2.373 . S
Eu240 O287 2.432 . S
Eu240 O288 2.291 1_565 S
Eu240 O292 2.336 1_455 S
Eu240 O295 2.372 1_455 S
Eu240 C304 2.787 . S
C241 N242 1.365 . S
C241 C244 1.405 . S
C241 C248 1.448 . S
N242 C241 1.365 . S
N242 C245 1.319 . S
N242 Eu251 2.600 . S
C243 C245 1.397 . S
C243 C246 1.367 . S
C243 H263 0.931 1_655 S
C244 C241 1.405 . S
C244 C246 1.403 . S
C244 C250 1.439 . S
C245 N242 1.319 . S
C245 C243 1.397 . S
C245 H256 0.930 1_655 S
C246 C243 1.367 . S
C246 C244 1.403 . S
C246 H267 0.929 . S
C247 C248 1.430 . S
C247 C249 1.387 . S
C247 C253 1.404 . S
C248 C241 1.448 . S
C248 C247 1.430 . S
C248 N252 1.351 . S
C249 C247 1.387 . S
C249 C250 1.374 . S
C249 H264 0.931 . S
C250 C244 1.439 . S
C250 C249 1.374 . S
C250 H265 0.931 . S
Eu251 N242 2.600 . S
Eu251 N252 2.562 . S
Eu251 O286 2.335 1_655 S
Eu251 O289 2.372 1_655 S
Eu251 O290 2.462 . S
Eu251 O291 2.373 . S
Eu251 O293 2.432 . S
Eu251 O294 2.291 1_545 S
Eu251 C315 2.787 . S
N252 C248 1.351 . S
N252 Eu251 2.562 . S
N252 C254 1.325 . S
C253 C247 1.404 . S
C253 C255 1.366 . S
C253 H261 0.930 . S
C254 N252 1.325 . S
C254 C255 1.416 . S
C254 H260 0.929 . S
C255 C253 1.366 . S
C255 C254 1.416 . S
C255 H257 0.930 . S
H256 C245 0.930 1_455 S
H257 C255 0.930 . S
H258 C273 0.930 1_655 S
H259 C280 0.930 . S
H260 C254 0.929 . S
H261 C253 0.930 . S
H262 C276 0.929 . S
H263 C243 0.931 1_455 S
H264 C249 0.931 . S
H265 C250 0.931 . S
H266 C271 0.931 1_655 S
H267 C246 0.929 . S
H268 C279 0.930 . S
N269 Eu240 2.600 . S
N269 C270 1.365 . S
N269 C273 1.319 . S
C270 N269 1.365 . S
C270 C272 1.405 . S
C270 C278 1.448 . S
C271 H266 0.931 1_455 S
C271 C273 1.397 . S
C271 C274 1.367 . S
C272 C270 1.405 . S
C272 C274 1.403 . S
C272 C305 1.439 . S
C273 H258 0.930 1_455 S
C273 N269 1.319 . S
C273 C271 1.397 . S
C274 C271 1.367 . S
C274 C272 1.403 . S
C274 H281 0.929 . S
N275 Eu240 2.562 . S
N275 C276 1.325 . S
N275 C278 1.351 . S
C276 H262 0.929 . S
C276 N275 1.325 . S
C276 C280 1.416 . S
C277 C278 1.430 . S
C277 C279 1.404 . S
C277 C306 1.387 . S
C278 C270 1.448 . S
C278 N275 1.351 . S
C278 C277 1.430 . S
C279 H268 0.930 . S
C279 C277 1.404 . S
C279 C280 1.366 . S
C280 H259 0.930 . S
C280 C276 1.416 . S
C280 C279 1.366 . S
H281 C274 0.929 . S
H282 C305 0.931 . S
H283 C306 0.931 . S
O284 Eu240 2.462 . S
O284 C304 1.252 . S
O285 Eu240 2.373 . S
O285 C296 1.249 . S
O286 Eu251 2.335 1_455 S
O286 C296 1.264 1_545 S
O287 Eu240 2.432 . S
O287 C304 1.268 . S
O288 Eu240 2.291 1_545 S
O288 C303 1.255 . S
O289 Eu251 2.372 1_455 S
O289 C303 1.257 . S
O290 Eu251 2.462 . S
O290 C315 1.252 . S
O291 Eu251 2.373 . S
O291 C307 1.249 . S
O292 Eu240 2.336 1_655 S
O292 C307 1.262 1_565 S
O293 Eu251 2.432 . S
O293 C315 1.268 . S
O294 Eu251 2.291 1_565 S
O294 C314 1.255 . S
O295 Eu240 2.372 1_655 S
O295 C314 1.257 . S
C296 O285 1.249 . S
C296 O286 1.264 1_565 S
C297 C300 1.382 . S
C297 C302 1.390 . S
C297 C304 1.506 . S
C298 C299 1.398 . S
C298 C302 1.392 . S
C299 C298 1.398 . S
C299 C301 1.372 . S
C299 H316 0.931 . S
C300 C297 1.382 . S
C300 C301 1.390 . S
C300 H317 0.931 . S
C301 C299 1.372 . S
C301 C300 1.390 . S
C301 H318 0.929 . S
C302 C297 1.390 . S
C302 C298 1.392 . S
C302 H319 0.930 . S
C303 O288 1.255 . S
C303 O289 1.257 . S
C304 Eu240 2.787 . S
C304 O284 1.252 . S
C304 O287 1.268 . S
C304 C297 1.506 . S
C305 C272 1.439 . S
C305 H282 0.931 . S
C305 C306 1.374 . S
C306 C277 1.387 . S
C306 H283 0.931 . S
C306 C305 1.374 . S
C307 O291 1.249 . S
C307 O292 1.262 1_545 S
C308 C311 1.382 . S
C308 C312 1.390 . S
C308 C315 1.506 . S
C309 C310 1.398 . S
C309 C312 1.392 . S
C310 C309 1.398 . S
C310 C313 1.372 . S
C310 H320 0.931 . S
C311 C308 1.382 . S
C311 C313 1.390 . S
C311 H321 0.931 . S
C312 C308 1.390 . S
C312 C309 1.392 . S
C312 H322 0.930 . S
C313 C310 1.372 . S
C313 C311 1.390 . S
C313 H323 0.929 . S
C314 O294 1.255 . S
C314 O295 1.257 . S
C315 Eu251 2.787 . S
C315 O290 1.252 . S
C315 O293 1.268 . S
C315 C308 1.506 . S
H316 C299 0.931 . S
H317 C300 0.931 . S
H318 C301 0.929 . S
H319 C302 0.930 . S
H320 C310 0.931 . S
H321 C311 0.931 . S
H322 C312 0.930 . S
H323 C313 0.929 . S
Eu324 N353 2.600 . S
Eu324 N359 2.562 1_556 S
Eu324 O368 2.462 . S
Eu324 O369 2.373 1_556 S
Eu324 O371 2.432 . S
Eu324 O372 2.291 1_556 S
Eu324 O376 2.335 . S
Eu324 O379 2.372 1_556 S
Eu324 C388 2.787 . S
C325 N326 1.365 . S
C325 C328 1.405 . S
C325 C332 1.448 . S
N326 C325 1.365 . S
N326 C329 1.319 . S
N326 Eu335 2.600 . S
C327 C329 1.397 . S
C327 C330 1.367 . S
C327 H347 0.931 . S
C328 C325 1.405 . S
C328 C330 1.403 . S
C328 C334 1.439 . S
C329 N326 1.319 . S
C329 C327 1.397 . S
C329 H340 0.930 . S
C330 C327 1.367 . S
C330 C328 1.403 . S
C330 H351 0.929 . S
C331 C332 1.430 . S
C331 C333 1.387 . S
C331 C337 1.404 . S
C332 C325 1.448 . S
C332 C331 1.430 . S
C332 N336 1.351 . S
C333 C331 1.387 . S
C333 C334 1.374 . S
C333 H348 0.931 . S
C334 C328 1.439 . S
C334 C333 1.374 . S
C334 H349 0.931 . S
Eu335 N326 2.600 . S
Eu335 N336 2.562 . S
Eu335 O370 2.335 . S
Eu335 O373 2.372 . S
Eu335 O374 2.462 . S
Eu335 O375 2.373 . S
Eu335 O377 2.432 . S
Eu335 O378 2.291 . S
Eu335 C399 2.787 . S
N336 C332 1.351 . S
N336 Eu335 2.562 . S
N336 C338 1.325 . S
C337 C331 1.404 . S
C337 C339 1.366 . S
C337 H345 0.930 . S
C338 N336 1.325 . S
C338 C339 1.416 . S
C338 H344 0.929 . S
C339 C337 1.366 . S
C339 C338 1.416 . S
C339 H341 0.930 . S
H340 C329 0.930 . S
H341 C339 0.930 . S
H342 C357 0.930 . S
H343 C364 0.930 . S
H344 C338 0.929 . S
H345 C337 0.930 . S
H346 C360 0.929 . S
H347 C327 0.931 . S
H348 C333 0.931 . S
H349 C334 0.931 . S
H350 C355 0.931 . S
H351 C330 0.929 . S
H352 C363 0.930 . S
N353 Eu324 2.600 . S
N353 C354 1.365 1_556 S
N353 C357 1.319 . S
C354 N353 1.365 1_554 S
C354 C356 1.405 . S
C354 C362 1.448 . S
C355 H350 0.931 . S
C355 C357 1.397 . S
C355 C358 1.367 1_556 S
C356 C354 1.405 . S
C356 C358 1.403 . S
C356 C389 1.439 . S
C357 H342 0.930 . S
C357 N353 1.319 . S
C357 C355 1.397 . S
C358 C355 1.367 1_554 S
C358 C356 1.403 . S
C358 H365 0.929 . S
N359 Eu324 2.562 1_554 S
N359 C360 1.325 . S
N359 C362 1.351 . S
C360 H346 0.929 . S
C360 N359 1.325 . S
C360 C364 1.416 . S
C361 C362 1.430 . S
C361 C363 1.404 . S
C361 C390 1.387 . S
C362 C354 1.448 . S
C362 N359 1.351 . S
C362 C361 1.430 . S
C363 H352 0.930 . S
C363 C361 1.404 . S
C363 C364 1.366 . S
C364 H343 0.930 . S
C364 C360 1.416 . S
C364 C363 1.366 . S
H365 C358 0.929 . S
H366 C389 0.931 . S
H367 C390 0.931 . S
O368 Eu324 2.462 . S
O368 C388 1.252 . S
O369 Eu324 2.373 1_554 S
O369 C380 1.249 . S
O370 Eu335 2.335 . S
O370 C380 1.264 . S
O371 Eu324 2.432 . S
O371 C388 1.268 . S
O372 Eu324 2.291 1_554 S
O372 C387 1.255 . S
O373 Eu335 2.372 . S
O373 C387 1.257 . S
O374 Eu335 2.462 . S
O374 C399 1.252 . S
O375 Eu335 2.373 . S
O375 C391 1.249 1_554 S
O376 Eu324 2.335 . S
O376 C391 1.264 . S
O377 Eu335 2.432 . S
O377 C399 1.268 . S
O378 Eu335 2.291 . S
O378 C398 1.255 . S
O379 Eu324 2.372 1_554 S
O379 C398 1.257 . S
C380 O369 1.249 . S
C380 O370 1.264 . S
C381 C384 1.382 . S
C381 C386 1.390 . S
C381 C388 1.506 . S
C382 C383 1.398 . S
C382 C386 1.392 . S
C383 C382 1.398 . S
C383 C385 1.372 . S
C383 H400 0.931 . S
C384 C381 1.382 . S
C384 C385 1.390 . S
C384 H401 0.931 . S
C385 C383 1.372 . S
C385 C384 1.390 . S
C385 H402 0.929 . S
C386 C381 1.390 . S
C386 C382 1.392 . S
C386 H403 0.930 . S
C387 O372 1.255 . S
C387 O373 1.257 . S
C388 Eu324 2.787 . S
C388 O368 1.252 . S
C388 O371 1.268 . S
C388 C381 1.506 . S
C389 C356 1.439 . S
C389 H366 0.931 . S
C389 C390 1.374 . S
C390 C361 1.387 . S
C390 H367 0.931 . S
C390 C389 1.374 . S
C391 O375 1.249 1_556 S
C391 O376 1.264 . S
C392 C395 1.382 . S
C392 C396 1.390 . S
C392 C399 1.506 . S
C393 C394 1.398 . S
C393 C396 1.392 . S
C394 C393 1.398 . S
C394 C397 1.372 . S
C394 H404 0.931 . S
C395 C392 1.382 . S
C395 C397 1.390 . S
C395 H405 0.931 . S
C396 C392 1.390 . S
C396 C393 1.392 . S
C396 H406 0.930 . S
C397 C394 1.372 . S
C397 C395 1.390 . S
C397 H407 0.929 . S
C398 O378 1.255 . S
C398 O379 1.257 . S
C399 Eu335 2.787 . S
C399 O374 1.252 . S
C399 O377 1.268 . S
C399 C392 1.506 . S
H400 C383 0.931 . S
H401 C384 0.931 . S
H402 C385 0.929 . S
H403 C386 0.930 . S
H404 C394 0.931 . S
H405 C395 0.931 . S
H406 C396 0.930 . S
H407 C397 0.929 . S
C408 C409 1.387 . S
C408 H412 0.950 . S
C408 C417 1.390 . S
C409 C408 1.387 . S
C409 C411 1.387 . S
H410 C417 0.950 . S
C411 C409 1.387 . S
C411 C413 1.390 . S
C411 H415 0.950 . S
H412 C408 0.950 . S
C413 C411 1.390 . S
C413 C414 1.387 . S
C413 H416 0.950 . S
C414 C413 1.387 . S
C414 C417 1.387 . S
H415 C411 0.950 . S
H416 C413 0.950 . S
C417 C408 1.390 . S
C417 H410 0.950 . S
C417 C414 1.387 . S
C418 C419 1.387 . S
C418 H422 0.950 . S
C418 C427 1.390 . S
C419 C418 1.387 . S
C419 C421 1.387 . S
H420 C427 0.950 . S
C421 C419 1.387 . S
C421 C423 1.390 . S
C421 H425 0.950 1_554 S
H422 C418 0.950 . S
C423 C421 1.390 . S
C423 C424 1.387 . S
C423 H426 0.950 1_554 S
C424 C423 1.387 . S
C424 C427 1.387 . S
H425 C421 0.950 1_556 S
H426 C423 0.950 1_556 S
C427 C418 1.390 . S
C427 H420 0.950 . S
C427 C424 1.387 . S
C428 C429 1.387 . S
C428 H432 0.950 . S
C428 C437 1.390 . S
C429 C428 1.387 . S
C429 C431 1.387 . S
H430 C437 0.950 . S
C431 C429 1.387 . S
C431 C433 1.390 . S
C431 H435 0.950 . S
H432 C428 0.950 . S
C433 C431 1.390 . S
C433 C434 1.387 . S
C433 H436 0.950 . S
C434 C433 1.387 . S
C434 C437 1.387 . S
H435 C431 0.950 . S
H436 C433 0.950 . S
C437 C428 1.390 . S
C437 H430 0.950 . S
C437 C434 1.387 . S
C438 C439 1.387 . S
C438 H442 0.950 . S
C438 C447 1.390 . S
C439 C438 1.387 . S
C439 C441 1.387 1_554 S
H440 C447 0.950 . S
C441 C439 1.387 1_556 S
C441 C443 1.390 . S
C441 H445 0.950 . S
H442 C438 0.950 . S
C443 C441 1.390 . S
C443 C444 1.387 1_556 S
C443 H446 0.950 . S
C444 C443 1.387 1_554 S
C444 C447 1.387 . S
H445 C441 0.950 . S
H446 C443 0.950 . S
C447 C438 1.390 . S
C447 H440 0.950 . S
C447 C444 1.387 . S
C448 C449 1.387 . S
C448 H452 0.950 . S
C448 C457 1.390 . S
C449 C448 1.387 . S
C449 C451 1.387 . S
H450 C457 0.950 1_545 S
C451 C449 1.387 . S
C451 C453 1.390 . S
C451 H455 0.950 . S
H452 C448 0.950 . S
C453 C451 1.390 . S
C453 C454 1.387 . S
C453 H456 0.950 . S
C454 C453 1.387 . S
C454 C457 1.387 . S
H455 C451 0.950 . S
H456 C453 0.950 . S
C457 C448 1.390 . S
C457 H450 0.950 1_565 S
C457 C454 1.387 . S
C458 C459 1.387 . S
C458 H462 0.950 . S
C458 C467 1.390 . S
C459 C458 1.387 . S
C459 C461 1.387 . S
H460 C467 0.950 . S
C461 C459 1.387 . S
C461 C463 1.390 . S
C461 H465 0.950 . S
H462 C458 0.950 . S
C463 C461 1.390 . S
C463 C464 1.387 . S
C463 H466 0.950 . S
C464 C463 1.387 . S
C464 C467 1.387 . S
H465 C461 0.950 . S
H466 C463 0.950 . S
C467 C458 1.390 . S
C467 H460 0.950 . S
C467 C464 1.387 . S
C468 C469 1.387 . S
C468 H472 0.950 . S
C468 C477 1.390 . S
C469 C468 1.387 . S
C469 C471 1.387 . S
H470 C477 0.950 . S
C471 C469 1.387 . S
C471 C473 1.390 . S
C471 H475 0.950 1_545 S
H472 C468 0.950 . S
C473 C471 1.390 . S
C473 C474 1.387 . S
C473 H476 0.950 1_545 S
C474 C473 1.387 . S
C474 C477 1.387 . S
H475 C471 0.950 1_565 S
H476 C473 0.950 1_565 S
C477 C468 1.390 . S
C477 H470 0.950 . S
C477 C474 1.387 . S
C478 C479 1.387 . S
C478 H482 0.950 . S
C478 C487 1.390 . S
C479 C478 1.387 . S
C479 C481 1.387 . S
H480 C487 0.950 . S
C481 C479 1.387 . S
C481 C483 1.390 . S
C481 H485 0.950 . S
H482 C478 0.950 . S
C483 C481 1.390 . S
C483 C484 1.387 . S
C483 H486 0.950 . S
C484 C483 1.387 . S
C484 C487 1.387 . S
H485 C481 0.950 . S
H486 C483 0.950 . S
C487 C478 1.390 . S
C487 H480 0.950 . S
C487 C484 1.387 . S
C488 C489 1.387 . S
C488 H492 0.950 . S
C488 C497 1.390 . S
C489 C488 1.387 . S
C489 C491 1.387 . S
H490 C497 0.950 . S
C491 C489 1.387 . S
C491 C493 1.390 . S
C491 H495 0.950 . S
H492 C488 0.950 . S
C493 C491 1.390 . S
C493 C494 1.387 . S
C493 H496 0.950 . S
C494 C493 1.387 . S
C494 C497 1.387 . S
H495 C491 0.950 . S
H496 C493 0.950 . S
C497 C488 1.390 . S
C497 H490 0.950 . S
C497 C494 1.387 . S
C498 C499 1.387 . S
C498 H502 0.950 . S
C498 C507 1.390 . S
C499 C498 1.387 . S
C499 C501 1.387 . S
H500 C507 0.950 1_565 S
C501 C499 1.387 . S
C501 C503 1.390 . S
C501 H505 0.950 . S
H502 C498 0.950 . S
C503 C501 1.390 . S
C503 C504 1.387 . S
C503 H506 0.950 . S
C504 C503 1.387 . S
C504 C507 1.387 . S
H505 C501 0.950 . S
H506 C503 0.950 . S
C507 C498 1.390 . S
C507 H500 0.950 1_545 S
C507 C504 1.387 . S
C508 C509 1.387 . S
C508 H512 0.950 . S
C508 C517 1.390 . S
C509 C508 1.387 . S
C509 C511 1.387 . S
H510 C517 0.950 . S
C511 C509 1.387 . S
C511 C513 1.390 . S
C511 H515 0.950 . S
H512 C508 0.950 . S
C513 C511 1.390 . S
C513 C514 1.387 . S
C513 H516 0.950 . S
C514 C513 1.387 . S
C514 C517 1.387 . S
H515 C511 0.950 . S
H516 C513 0.950 . S
C517 C508 1.390 . S
C517 H510 0.950 . S
C517 C514 1.387 . S
C518 C519 1.387 1_545 S
C518 H522 0.950 . S
C518 C527 1.390 . S
C519 C518 1.387 1_565 S
C519 C521 1.387 . S
H520 C527 0.950 . S
C521 C519 1.387 . S
C521 C523 1.390 . S
C521 H525 0.950 . S
H522 C518 0.950 . S
C523 C521 1.390 . S
C523 C524 1.387 . S
C523 H526 0.950 . S
C524 C523 1.387 . S
C524 C527 1.387 1_565 S
H525 C521 0.950 . S
H526 C523 0.950 . S
C527 C518 1.390 . S
C527 H520 0.950 . S
C527 C524 1.387 1_545 S
C414 C303 1.673 . S
C409 C211 1.646 . S
C419 C31 1.556 . S
C424 C398 1.667 . S
C429 C91 1.683 . S
C434 C314 1.672 . S
C439 C151 1.625 . S
C444 C387 1.668 . S
C454 C298 1.434 . S
C449 C20 1.518 . S
C464 C391 1.632 . S
C459 C61 1.573 . S
C469 C121 1.653 . S
C474 C307 1.672 . S
C479 C200 1.482 . S
C484 C382 1.410 . S
C494 C393 1.414 . S
C489 C80 1.503 . S
C504 C309 1.435 . S
C499 C140 1.553 . S
C514 C380 1.632 . S
C509 C181 1.533 . S
C519 C1 1.580 . S
C524 C296 1.672 . S
