# Generated by pormake.
# Topology rtl, (3,6)-cn, num edge types: 1
# Building blocks:
#     Node 0, Type 0, BuildingBlock: ESEHIV_clean_linker_0, # of connection points: 3
#     Node 1, Type 0, BuildingBlock: ESEHIV_clean_linker_0, # of connection points: 3
#     Node 2, Type 0, BuildingBlock: ESEHIV_clean_linker_0, # of connection points: 3
#     Node 3, Type 0, BuildingBlock: ESEHIV_clean_linker_0, # of connection points: 3
#     Node 4, Type 1, BuildingBlock: KUMJIN_clean_sbu_1, # of connection points: 6
#     Node 5, Type 1, BuildingBlock: KUMJIN_clean_sbu_1, # of connection points: 6
#     Edge 6, Type (0, 1), BuildingBlock: CIFDUS_clean_linker_0, # of connection points: 2
#     Edge 7, Type (0, 1), BuildingBlock: CIFDUS_clean_linker_0, # of connection points: 2
#     Edge 8, Type (0, 1), BuildingBlock: CIFDUS_clean_linker_0, # of connection points: 2
#     Edge 9, Type (0, 1), BuildingBlock: CIFDUS_clean_linker_0, # of connection points: 2
#     Edge 10, Type (0, 1), BuildingBlock: CIFDUS_clean_linker_0, # of connection points: 2
#     Edge 11, Type (0, 1), BuildingBlock: CIFDUS_clean_linker_0, # of connection points: 2
#     Edge 12, Type (0, 1), BuildingBlock: CIFDUS_clean_linker_0, # of connection points: 2
#     Edge 13, Type (0, 1), BuildingBlock: CIFDUS_clean_linker_0, # of connection points: 2
#     Edge 14, Type (0, 1), BuildingBlock: CIFDUS_clean_linker_0, # of connection points: 2
#     Edge 15, Type (0, 1), BuildingBlock: CIFDUS_clean_linker_0, # of connection points: 2
#     Edge 16, Type (0, 1), BuildingBlock: CIFDUS_clean_linker_0, # of connection points: 2
#     Edge 17, Type (0, 1), BuildingBlock: CIFDUS_clean_linker_0, # of connection points: 2
# Relax obj value: 0.019
# Max RMSD: 0.128
# Mean RMSD: 0.076
data_MOF--net-rtl--node1-KUMJIN_clean_sbu_1--node2-ESEHIV_clean_linker_0--edge1-CIFDUS_clean_linker_0
_symmetry_space_group_name_H-M    P1
_symmetry_Int_Tables_number       1
_symmetry_cell_setting            triclinic
loop_
_symmetry_equiv_pos_as_xyz
'x, y, z'
_cell_length_a     26.737437
_cell_length_b     27.686465
_cell_length_c     24.76749
_cell_angle_alpha  75.155531
_cell_angle_beta   99.154097
_cell_angle_gamma 90.70491
loop_
_atom_site_label
_atom_site_type_symbol
_atom_site_fract_x
_atom_site_fract_y
_atom_site_fract_z
_atom_type_partial_charge
H0 H 0.13745 0.88432 0.03337 0.0
H1 H 0.26368 0.78701 0.12567 0.0
H2 H 0.23837 0.8276 0.94371 0.0
C3 C 0.17057 0.86193 0.03388 0.0
C4 C 0.18423 0.8583 0.98243 0.0
C5 C 0.20034 0.83771 0.08581 0.0
C6 C 0.24271 0.80818 0.08567 0.0
C7 C 0.25686 0.80392 0.03481 0.0
C8 C 0.22784 0.8301 0.98339 0.0
H9 H 0.59284 0.67794 0.61655 0.0
H10 H 0.70562 0.77218 0.54273 0.0
H11 H 0.69992 0.74759 0.72053 0.0
C12 C 0.62478 0.70189 0.62112 0.0
C13 C 0.64303 0.71074 0.67414 0.0
C14 C 0.64728 0.72403 0.5738 0.0
C15 C 0.68871 0.75477 0.5797 0.0
C16 C 0.70866 0.76311 0.63245 0.0
C17 C 0.68534 0.74109 0.67967 0.0
H18 H 0.85456 0.10191 0.12049 0.0
H19 H 0.75275 0.17935 0.18868 0.0
H20 H 0.74305 0.20812 0.00829 0.0
C21 C 0.82286 0.12796 0.11359 0.0
C22 C 0.80107 0.15366 0.05802 0.0
C23 C 0.80457 0.13627 0.16066 0.0
C24 C 0.76492 0.1712 0.15215 0.0
C25 C 0.74268 0.19763 0.09757 0.0
C26 C 0.76077 0.1885 0.05057 0.0
H27 H 0.39832 0.36635 0.44024 0.0
H28 H 0.28555 0.28886 0.53076 0.0
H29 H 0.29404 0.27416 0.36294 0.0
C30 C 0.36643 0.34171 0.44187 0.0
C31 C 0.34751 0.32316 0.3951 0.0
C32 C 0.34416 0.32852 0.49069 0.0
C33 C 0.30307 0.29696 0.49298 0.0
C34 C 0.28511 0.27548 0.44826 0.0
C35 C 0.30707 0.28977 0.39839 0.0
Eu36 Eu 0.05536 0.96207 0.53705 0.0
C37 C 0.92969 0.15427 0.49663 0.0
N38 N 0.97099 0.13812 0.53696 0.0
C39 C 0.00865 0.21795 0.50878 0.0
C40 C 0.92738 0.2023 0.45897 0.0
C41 C 0.00884 0.17026 0.54557 0.0
C42 C 0.96819 0.23372 0.4646 0.0
C43 C 0.84357 0.14028 0.45628 0.0
C44 C 0.88824 0.12387 0.49525 0.0
C45 C 0.842 0.18707 0.41693 0.0
C46 C 0.88384 0.21801 0.41824 0.0
Eu47 Eu 0.96953 0.05452 0.59301 0.0
N48 N 0.89125 0.07843 0.53304 0.0
C49 C 0.80159 0.10945 0.45873 0.0
C50 C 0.8498 0.04927 0.53773 0.0
C51 C 0.80451 0.06407 0.5002 0.0
H52 H 0.0392 0.15963 0.58107 0.0
H53 H 0.77202 0.0404 0.50307 0.0
H54 H 0.02064 0.84888 0.60343 0.0
H55 H 0.24566 0.03787 0.54045 0.0
H56 H 0.85234 0.01406 0.56956 0.0
H57 H 0.76657 0.12071 0.4295 0.0
H58 H 0.15604 0.0313 0.50089 0.0
H59 H 0.03942 0.24274 0.51498 0.0
H60 H 0.80826 0.20012 0.38613 0.0
H61 H 0.88163 0.25455 0.38856 0.0
H62 H 0.05626 0.7769 0.68218 0.0
H63 H 0.96792 0.27087 0.4365 0.0
H64 H 0.28531 0.97501 0.62654 0.0
N65 N 0.08754 0.8906 0.60898 0.0
C66 C 0.13667 0.89131 0.63327 0.0
C67 C 0.07916 0.80898 0.66908 0.0
C68 C 0.15851 0.8514 0.67837 0.0
C69 C 0.05912 0.84956 0.6246 0.0
C70 C 0.12887 0.81017 0.6966 0.0
N71 N 0.14332 0.96858 0.56723 0.0
C72 C 0.17217 0.00492 0.53986 0.0
C73 C 0.21686 0.93303 0.63517 0.0
C74 C 0.16526 0.93173 0.61208 0.0
C75 C 0.24558 0.97259 0.61004 0.0
C76 C 0.22332 0.00819 0.56153 0.0
H77 H 0.14427 0.77873 0.73112 0.0
H78 H 0.2266 0.82351 0.73823 0.0
H79 H 0.27778 0.89495 0.70027 0.0
O80 O 0.09872 0.94228 0.47776 0.0
O81 O 0.04712 0.94544 0.63028 0.0
O82 O 0.04564 0.02402 0.64317 0.0
O83 O 0.02118 0.91992 0.47759 0.0
O84 O 0.06989 0.04567 0.51426 0.0
O85 O 0.05334 0.07251 0.59066 0.0
O86 O 0.93204 0.02867 0.66707 0.0
O87 O 0.94268 0.03545 0.50861 0.0
O88 O 0.01865 0.0333 0.47954 0.0
O89 O 0.95222 0.10561 0.6426 0.0
O90 O 0.94772 0.97267 0.61241 0.0
O91 O 0.97466 0.93836 0.54472 0.0
C92 C 0.05706 0.97632 0.66248 0.0
C93 C 0.07543 0.87268 0.44208 0.0
C94 C 0.09749 0.83135 0.37296 0.0
C95 C 0.10492 0.78605 0.415 0.0
C96 C 0.08284 0.82723 0.48381 0.0
C97 C 0.0974 0.78404 0.47015 0.0
C98 C 0.08261 0.87454 0.38665 0.0
C99 C 0.07877 0.0752 0.54852 0.0
C100 C 0.0619 0.91913 0.45517 0.0
C101 C 0.20925 0.85357 0.70313 0.0
C102 C 0.23837 0.8943 0.68156 0.0
C103 C 0.96959 0.04042 0.46773 0.0
C104 C 0.95614 0.06797 0.74035 0.0
C105 C 0.94468 0.06896 0.83603 0.0
C106 C 0.9959 0.05431 0.8553 0.0
C107 C 0.00742 0.05434 0.76045 0.0
C108 C 0.92488 0.07598 0.7782 0.0
C109 C 0.02708 0.0474 0.81761 0.0
C110 C 0.94533 0.93893 0.58279 0.0
C111 C 0.93489 0.07103 0.68081 0.0
H112 H 0.11677 0.75243 0.40518 0.0
H113 H 0.07776 0.8252 0.52675 0.0
H114 H 0.10328 0.74903 0.50248 0.0
H115 H 0.07741 0.90973 0.35436 0.0
H116 H 0.01186 0.04857 0.8996 0.0
H117 H 0.03219 0.04857 0.73208 0.0
H118 H 0.88517 0.08633 0.76309 0.0
H119 H 0.06656 0.03632 0.83281 0.0
Eu120 Eu 0.45017 0.48375 0.98091 0.0
C121 C 0.66852 0.54655 0.0847 0.0
N122 N 0.63919 0.50925 0.10872 0.0
C123 C 0.71207 0.45408 0.14376 0.0
C124 C 0.72119 0.53879 0.08921 0.0
C125 C 0.66007 0.46363 0.13855 0.0
C126 C 0.74277 0.49177 0.11891 0.0
C127 C 0.67521 0.63235 0.03063 0.0
C128 C 0.64579 0.59274 0.05542 0.0
C129 C 0.72767 0.6247 0.03497 0.0
C130 C 0.75058 0.57804 0.06406 0.0
Eu131 Eu 0.55178 0.52858 0.09614 0.0
N132 N 0.59463 0.5987 0.05064 0.0
C133 C 0.65094 0.67846 1.00218 0.0
C134 C 0.57102 0.64401 0.02474 0.0
C135 C 0.59871 0.68438 0.99958 0.0
H136 H 0.63662 0.43466 0.15873 0.0
H137 H 0.57979 0.72009 0.97832 0.0
H138 H 0.33866 0.53834 0.97753 0.0
H139 H 0.50263 0.28364 0.04302 0.0
H140 H 0.53084 0.64902 0.02312 0.0
H141 H 0.67223 0.70981 0.98251 0.0
H142 H 0.5087 0.37178 0.99264 0.0
H143 H 0.72848 0.41774 0.16715 0.0
H144 H 0.75089 0.65464 0.01599 0.0
H145 H 0.7911 0.57274 0.06704 0.0
H146 H 0.2574 0.5159 0.01236 0.0
H147 H 0.78309 0.48429 0.12318 0.0
H148 H 0.43115 0.25693 0.09493 0.0
N149 N 0.37128 0.46527 0.01135 0.0
C150 C 0.36491 0.41708 0.03939 0.0
C151 C 0.28736 0.48782 0.02035 0.0
C152 C 0.31948 0.4027 0.0604 0.0
C153 C 0.33321 0.50045 1.00067 0.0
C154 C 0.2806 0.43883 0.05074 0.0
N155 N 0.44638 0.39674 0.02352 0.0
C156 C 0.47946 0.36154 0.01849 0.0
C157 C 0.39741 0.33148 0.07362 0.0
C158 C 0.40386 0.38208 0.04648 0.0
C159 C 0.4347 0.29614 0.07458 0.0
C160 C 0.47522 0.31108 0.04557 0.0
H161 H 0.24514 0.42922 0.06623 0.0
H162 H 0.27982 0.34126 0.1071 0.0
H163 H 0.34782 0.27879 0.11822 0.0
O164 O 0.45542 0.45671 0.90663 0.0
O165 O 0.43084 0.48754 0.06642 0.0
O166 O 0.50515 0.46097 0.12492 0.0
O167 O 0.39006 0.50114 0.90712 0.0
O168 O 0.53198 0.45502 0.99837 0.0
O169 O 0.5522 0.44766 0.09353 0.0
O170 O 0.52589 0.56896 0.15231 0.0
O171 O 0.57032 0.5442 0.00662 0.0
O172 O 0.49486 0.55092 0.94445 0.0
O173 O 0.5932 0.52152 0.18156 0.0
O174 O 0.47832 0.57579 0.06365 0.0
O175 O 0.4401 0.56543 0.97597 0.0
C176 C 0.45558 0.4637 0.11604 0.0
C177 C 0.3789 0.44042 0.85492 0.0
C178 C 0.35265 0.40517 0.775 0.0
C179 C 0.32442 0.36979 0.80815 0.0
C180 C 0.35017 0.40524 0.8876 0.0
C181 C 0.3229 0.37017 0.86414 0.0
C182 C 0.37957 0.44066 0.7984 0.0
C183 C 0.56034 0.43598 0.04754 0.0
C184 C 0.41112 0.4748 0.87989 0.0
C185 C 0.3142 0.35289 0.09005 0.0
C186 C 0.35306 0.31738 0.09665 0.0
C187 C 0.54353 0.55877 0.9556 0.0
C188 C 0.59087 0.5937 0.21516 0.0
C189 C 0.61035 0.63725 0.28989 0.0
C190 C 0.64111 0.6696 0.25648 0.0
C191 C 0.62159 0.62667 0.18285 0.0
C192 C 0.58541 0.59894 0.26898 0.0
C193 C 0.64655 0.66428 0.20336 0.0
C194 C 0.44556 0.58942 0.01605 0.0
C195 C 0.56449 0.55423 0.19257 0.0
H196 H 0.30356 0.34202 0.79063 0.0
H197 H 0.3493 0.40447 0.93122 0.0
H198 H 0.30102 0.3429 0.88958 0.0
H199 H 0.40215 0.46745 0.77315 0.0
H200 H 0.6617 0.69865 0.27181 0.0
H201 H 0.62656 0.62341 0.14185 0.0
H202 H 0.56155 0.57371 0.29411 0.0
H203 H 0.6704 0.68927 0.17805 0.0
H204 H 0.27044 0.20773 0.5458 0.0
H205 H 0.208 0.25683 0.36795 0.0
H206 H 0.13927 0.19823 0.38323 0.0
H207 H 0.09508 0.13516 0.44827 0.0
H208 H 0.15228 0.09602 0.62722 0.0
H209 H 0.22383 0.15095 0.61075 0.0
C210 C 0.2413 0.207 0.51023 0.0
C211 C 0.2444 0.23779 0.45578 0.0
C212 C 0.20049 0.17548 0.51981 0.0
C213 C 0.20721 0.23366 0.41024 0.0
C214 C 0.16747 0.2005 0.41907 0.0
C215 C 0.12315 0.13916 0.48354 0.0
C216 C 0.11877 0.11191 0.53889 0.0
C217 C 0.16344 0.17168 0.47379 0.0
C218 C 0.15485 0.11722 0.58446 0.0
C219 C 0.19584 0.1482 0.57494 0.0
H220 H 0.26456 0.7459 0.96234 0.0
H221 H 0.34676 0.78469 0.10949 0.0
H222 H 0.41306 0.72271 0.11612 0.0
H223 H 0.44572 0.65465 0.0826 0.0
H224 H 0.36588 0.62185 0.93069 0.0
H225 H 0.30171 0.68563 0.92273 0.0
C226 C 0.29745 0.74199 0.99513 0.0
C227 C 0.3 0.76984 0.03567 0.0
C228 C 0.33606 0.70718 0.99799 0.0
C229 C 0.34286 0.76305 0.0784 0.0
C230 C 0.38111 0.72782 0.08203 0.0
C231 C 0.41452 0.66167 0.0475 0.0
C232 C 0.41028 0.6325 0.00812 0.0
C233 C 0.37772 0.69909 0.04255 0.0
C234 C 0.36996 0.64292 0.96233 0.0
C235 C 0.33305 0.67952 0.95761 0.0
H236 H 0.79271 0.76328 0.58378 0.0
H237 H 0.7251 0.83589 0.69036 0.0
H238 H 0.79414 0.89507 0.68743 0.0
H239 H 0.87033 0.92993 0.64844 0.0
H240 H 0.93378 0.85879 0.53724 0.0
H241 H 0.86933 0.79599 0.54758 0.0
C242 C 0.79289 0.79214 0.6063 0.0
C243 C 0.75335 0.79547 0.63663 0.0
C244 C 0.83176 0.82673 0.60312 0.0
C245 C 0.7551 0.83226 0.66685 0.0
C246 C 0.79435 0.86641 0.66476 0.0
C247 C 0.87024 0.90061 0.62661 0.0
C248 C 0.90692 0.89961 0.59174 0.0
C249 C 0.83237 0.86462 0.63206 0.0
C250 C 0.90609 0.86101 0.56408 0.0
C251 C 0.86917 0.82486 0.56998 0.0
H252 H 0.73007 0.29051 0.02388 0.0
H253 H 0.6643 0.19134 0.1574 0.0
H254 H 0.60528 0.25775 0.15715 0.0
H255 H 0.5732 0.34468 0.12056 0.0
H256 H 0.63199 0.44138 0.98055 0.0
H257 H 0.69326 0.37564 0.98202 0.0
C258 C 0.70225 0.28312 0.0522 0.0
C259 C 0.70228 0.23615 0.09118 0.0
C260 C 0.66771 0.32133 0.05131 0.0
C261 C 0.66598 0.22746 0.12779 0.0
C262 C 0.63211 0.26538 0.12771 0.0
C263 C 0.59982 0.35123 0.0908 0.0
C264 C 0.5989 0.39754 0.051 0.0
C265 C 0.63315 0.31266 0.09031 0.0
C266 C 0.63251 0.40575 0.01167 0.0
C267 C 0.66726 0.36822 0.01239 0.0
H268 H 0.10718 0.83285 0.11941 0.0
H269 H 0.26552 0.85245 0.17602 0.0
H270 H 0.24762 0.85225 0.26954 0.0
H271 H 0.18755 0.84356 0.33677 0.0
H272 H 0.02919 0.82564 0.28109 0.0
H273 H 0.04614 0.8285 0.18568 0.0
C274 C 0.13759 0.83779 0.15198 0.0
C275 C 0.1877 0.84212 0.14081 0.0
C276 C 0.12703 0.83764 0.20596 0.0
C277 C 0.22675 0.84816 0.18372 0.0
C278 C 0.21657 0.8482 0.23722 0.0
C279 C 0.15694 0.8404 0.30349 0.0
C280 C 0.1074 0.83406 0.31538 0.0
C281 C 0.16703 0.8423 0.24906 0.0
C282 C 0.06766 0.83031 0.27241 0.0
C283 C 0.07738 0.83199 0.21806 0.0
H284 H 0.68639 0.65951 0.78028 0.0
H285 H 0.5418 0.71085 0.67753 0.0
H286 H 0.49819 0.66917 0.75556 0.0
H287 H 0.50089 0.61622 0.85211 0.0
H288 H 0.64541 0.56195 0.95367 0.0
H289 H 0.68913 0.60724 0.87769 0.0
C290 C 0.64539 0.66201 0.77533 0.0
C291 C 0.61736 0.68807 0.72321 0.0
C292 C 0.62048 0.63743 0.82021 0.0
C293 C 0.56418 0.69056 0.7171 0.0
C294 C 0.53922 0.66682 0.76171 0.0
C295 C 0.54194 0.61423 0.85763 0.0
C296 C 0.56973 0.58619 0.90891 0.0
C297 C 0.56693 0.63967 0.81325 0.0
C298 C 0.62297 0.58409 0.91521 0.0
C299 C 0.6481 0.60971 0.87153 0.0
H300 H 0.90469 0.12704 0.20445 0.0
H301 H 0.75679 0.09042 0.24883 0.0
H302 H 0.79449 0.0572 0.34811 0.0
H303 H 0.86963 0.04037 0.42267 0.0
H304 H 0.0171 0.07923 0.37774 0.0
H305 H 0.97963 0.10883 0.27848 0.0
C306 C 0.88088 0.11093 0.23573 0.0
C307 C 0.82816 0.11103 0.2194 0.0
C308 C 0.90271 0.0925 0.29274 0.0
C309 C 0.79757 0.09088 0.26053 0.0
C310 C 0.81905 0.07195 0.31725 0.0
C311 C 0.89339 0.05578 0.3912 0.0
C312 C 0.9459 0.05805 0.40775 0.0
C313 C 0.87155 0.07312 0.33397 0.0
C314 C 0.97647 0.07703 0.36626 0.0
C315 C 0.95512 0.09406 0.30937 0.0
H316 H 0.32101 0.41404 0.51584 0.0
H317 H 0.40843 0.27598 0.58077 0.0
H318 H 0.42227 0.28945 0.67583 0.0
H319 H 0.39934 0.33482 0.74208 0.0
H320 H 0.31165 0.47277 0.67816 0.0
H321 H 0.30793 0.4656 0.58083 0.0
C322 C 0.34459 0.38807 0.55061 0.0
C323 C 0.36429 0.34449 0.54188 0.0
C324 C 0.35125 0.39556 0.60524 0.0
C325 C 0.3938 0.31016 0.58695 0.0
C326 C 0.40112 0.31756 0.64122 0.0
C327 C 0.38007 0.36349 0.70655 0.0
C328 C 0.35516 0.4038 0.71653 0.0
C329 C 0.37841 0.35913 0.65117 0.0
C330 C 0.3307 0.44128 0.67082 0.0
C331 C 0.3286 0.43715 0.61543 0.0
H332 H 0.63385 0.63449 0.54798 0.0
H333 H 0.61978 0.79366 0.47437 0.0
H334 H 0.60042 0.78018 0.37965 0.0
H335 H 0.59619 0.72385 0.31776 0.0
H336 H 0.61568 0.56474 0.38983 0.0
H337 H 0.62265 0.57719 0.48514 0.0
C338 C 0.62553 0.66603 0.51114 0.0
C339 C 0.62854 0.71499 0.51782 0.0
C340 C 0.6156 0.65798 0.45666 0.0
C341 C 0.61811 0.7557 0.46997 0.0
C342 C 0.60707 0.74801 0.41592 0.0
C343 C 0.60168 0.69185 0.35434 0.0
C344 C 0.6062 0.64354 0.34681 0.0
C345 C 0.60718 0.69942 0.40874 0.0
C346 C 0.61202 0.60232 0.39448 0.0
C347 C 0.61644 0.60947 0.44899 0.0
H348 H 0.83545 0.06552 0.04439 0.0
H349 H 0.81305 0.22238 0.95913 0.0
H350 H 0.85043 0.20907 0.88022 0.0
H351 H 0.89544 0.15385 0.83807 0.0
H352 H 0.92369 0.99891 0.92747 0.0
H353 H 0.87871 0.0105 1.00213 0.0
C354 C 0.839 0.09699 0.00884 0.0
C355 C 0.82149 0.14497 0.00827 0.0
C356 C 0.86184 0.08938 0.96417 0.0
C357 C 0.82548 0.18488 0.96082 0.0
C358 C 0.84729 0.1774 0.91569 0.0
C359 C 0.89094 0.12261 0.87355 0.0
C360 C 0.9125 0.07555 0.87733 0.0
C361 C 0.86623 0.12995 0.91719 0.0
C362 C 0.90724 0.03541 0.92381 0.0
C363 C 0.88168 0.04208 0.9665 0.0
H364 H 0.30895 0.38781 0.29547 0.0
H365 H 0.44043 0.29503 0.38157 0.0
H366 H 0.4853 0.32901 0.30171 0.0
H367 H 0.48868 0.38874 0.20978 0.0
H368 H 0.3591 0.4858 0.12665 0.0
H369 H 0.31177 0.44653 0.20222 0.0
C370 C 0.34707 0.37453 0.29598 0.0
C371 C 0.37134 0.33866 0.34364 0.0
C372 C 0.37305 0.39536 0.25065 0.0
C373 C 0.42105 0.32228 0.34481 0.0
C374 C 0.44673 0.34193 0.2994 0.0
C375 C 0.45011 0.40132 0.20828 0.0
C376 C 0.42729 0.43987 0.16234 0.0
C377 C 0.42345 0.37916 0.25255 0.0
C378 C 0.37726 0.45566 0.16101 0.0
C379 C 0.35023 0.43337 0.2044 0.0
H380 H 0.2148 0.91577 0.88757 0.0
H381 H 0.08191 0.85255 0.95355 0.0
H382 H 0.03054 0.88276 0.85976 0.0
H383 H 0.02442 0.92387 0.75751 0.0
H384 H 0.15615 0.99153 0.6934 0.0
H385 H 0.20751 0.96187 0.78736 0.0
C386 C 0.17454 0.90883 0.88137 0.0
C387 C 0.1522 0.88172 0.92727 0.0
C388 C 0.14537 0.9263 0.82746 0.0
C389 C 0.09987 0.87361 0.91893 0.0
C390 C 0.07061 0.89048 0.86525 0.0
C391 C 0.06443 0.93177 0.76449 0.0
C392 C 0.0872 0.95845 0.71899 0.0
C393 C 0.0931 0.91617 0.81902 0.0
C394 C 0.13851 0.96999 0.72804 0.0
C395 C 0.16764 0.95337 0.78168 0.0
loop_
_geom_bond_atom_site_label_1
_geom_bond_atom_site_label_2
_geom_bond_distance
_geom_bond_site_symmetry_2
_ccdc_geom_bond_type
H0 C3 0.929 . S
H1 C6 0.928 . S
H2 C8 0.930 . S
C3 H0 0.929 . S
C3 C4 1.413 1_554 S
C3 C5 1.360 . S
C4 C3 1.413 1_556 S
C4 C8 1.429 . S
C5 C3 1.360 . S
C5 C6 1.372 . S
C6 H1 0.928 . S
C6 C5 1.372 . S
C6 C7 1.404 . S
C7 C6 1.404 . S
C7 C8 1.391 1_554 S
C8 H2 0.930 . S
C8 C4 1.429 . S
C8 C7 1.391 1_556 S
H9 C12 0.931 . S
H10 C15 0.928 . S
H11 C17 0.930 . S
C12 H9 0.931 . S
C12 C13 1.413 . S
C12 C14 1.360 . S
C13 C12 1.413 . S
C13 C17 1.429 . S
C14 C12 1.360 . S
C14 C15 1.372 . S
C15 H10 0.928 . S
C15 C14 1.372 . S
C15 C16 1.404 . S
C16 C15 1.404 . S
C16 C17 1.391 . S
C17 H11 0.930 . S
C17 C13 1.429 . S
C17 C16 1.391 . S
H18 C21 0.931 . S
H19 C24 0.928 . S
H20 C26 0.930 1_556 S
C21 H18 0.931 . S
C21 C22 1.413 . S
C21 C23 1.360 . S
C22 C21 1.413 . S
C22 C26 1.429 . S
C23 C21 1.360 . S
C23 C24 1.372 . S
C24 H19 0.928 . S
C24 C23 1.372 . S
C24 C25 1.404 . S
C25 C24 1.404 . S
C25 C26 1.391 . S
C26 H20 0.930 1_554 S
C26 C22 1.429 . S
C26 C25 1.391 . S
H27 C30 0.931 . S
H28 C33 0.928 . S
H29 C35 0.930 . S
C30 H27 0.931 . S
C30 C31 1.413 . S
C30 C32 1.360 . S
C31 C30 1.413 . S
C31 C35 1.429 . S
C32 C30 1.360 . S
C32 C33 1.372 . S
C33 H28 0.928 . S
C33 C32 1.372 . S
C33 C34 1.404 . S
C34 C33 1.404 . S
C34 C35 1.391 . S
C35 H29 0.930 . S
C35 C31 1.429 . S
C35 C34 1.391 . S
Eu36 N65 2.600 . S
Eu36 N71 2.562 . S
Eu36 O80 2.462 . S
Eu36 O81 2.373 . S
Eu36 O83 2.432 . S
Eu36 O84 2.291 1_565 S
Eu36 O88 2.326 1_465 S
Eu36 O91 2.372 1_455 S
Eu36 C100 2.787 . S
C37 N38 1.365 . S
C37 C40 1.405 . S
C37 C44 1.448 . S
N38 C37 1.365 . S
N38 C41 1.319 . S
N38 Eu47 2.600 . S
C39 C41 1.397 . S
C39 C42 1.367 . S
C39 H59 0.931 1_655 S
C40 C37 1.405 . S
C40 C42 1.403 . S
C40 C46 1.439 . S
C41 N38 1.319 . S
C41 C39 1.397 . S
C41 H52 0.930 1_655 S
C42 C39 1.367 . S
C42 C40 1.403 . S
C42 H63 0.929 . S
C43 C44 1.430 . S
C43 C45 1.387 . S
C43 C49 1.404 . S
C44 C37 1.448 . S
C44 C43 1.430 . S
C44 N48 1.351 . S
C45 C43 1.387 . S
C45 C46 1.374 . S
C45 H60 0.931 . S
C46 C40 1.439 . S
C46 C45 1.374 . S
C46 H61 0.931 . S
Eu47 N38 2.600 . S
Eu47 N48 2.562 . S
Eu47 O82 2.335 1_655 S
Eu47 O85 2.372 1_655 S
Eu47 O86 2.462 . S
Eu47 O87 2.373 . S
Eu47 O89 2.432 . S
Eu47 O90 2.291 1_545 S
Eu47 C111 2.787 . S
N48 C44 1.351 . S
N48 Eu47 2.562 . S
N48 C50 1.325 . S
C49 C43 1.404 . S
C49 C51 1.366 . S
C49 H57 0.930 . S
C50 N48 1.325 . S
C50 C51 1.416 . S
C50 H56 0.929 . S
C51 C49 1.366 . S
C51 C50 1.416 . S
C51 H53 0.930 . S
H52 C41 0.930 1_455 S
H53 C51 0.930 . S
H54 C69 0.930 1_655 S
H55 C76 0.930 . S
H56 C50 0.929 . S
H57 C49 0.930 . S
H58 C72 0.929 . S
H59 C39 0.931 1_455 S
H60 C45 0.931 . S
H61 C46 0.931 . S
H62 C67 0.931 1_655 S
H63 C42 0.929 . S
H64 C75 0.930 . S
N65 Eu36 2.600 . S
N65 C66 1.365 . S
N65 C69 1.319 . S
C66 N65 1.365 . S
C66 C68 1.405 . S
C66 C74 1.448 . S
C67 H62 0.931 1_455 S
C67 C69 1.397 . S
C67 C70 1.367 . S
C68 C66 1.405 . S
C68 C70 1.403 . S
C68 C101 1.439 . S
C69 H54 0.930 1_455 S
C69 N65 1.319 . S
C69 C67 1.397 . S
C70 C67 1.367 . S
C70 C68 1.403 . S
C70 H77 0.929 . S
N71 Eu36 2.562 . S
N71 C72 1.325 . S
N71 C74 1.351 . S
C72 H58 0.929 . S
C72 N71 1.325 . S
C72 C76 1.416 . S
C73 C74 1.430 . S
C73 C75 1.404 . S
C73 C102 1.387 . S
C74 C66 1.448 . S
C74 N71 1.351 . S
C74 C73 1.430 . S
C75 H64 0.930 . S
C75 C73 1.404 . S
C75 C76 1.366 . S
C76 H55 0.930 . S
C76 C72 1.416 . S
C76 C75 1.366 . S
H77 C70 0.929 . S
H78 C101 0.931 . S
H79 C102 0.931 . S
O80 Eu36 2.462 . S
O80 C100 1.252 . S
O81 Eu36 2.373 . S
O81 C92 1.249 . S
O82 Eu47 2.335 1_455 S
O82 C92 1.264 1_545 S
O83 Eu36 2.432 . S
O83 C100 1.268 . S
O84 Eu36 2.291 1_545 S
O84 C99 1.255 . S
O85 Eu47 2.372 1_455 S
O85 C99 1.257 . S
O86 Eu47 2.462 . S
O86 C111 1.252 . S
O87 Eu47 2.373 . S
O87 C103 1.249 . S
O88 Eu36 2.326 1_645 S
O88 C103 1.279 . S
O89 Eu47 2.432 . S
O89 C111 1.268 . S
O90 Eu47 2.291 1_565 S
O90 C110 1.255 . S
O91 Eu36 2.372 1_655 S
O91 C110 1.257 . S
C92 O81 1.249 . S
C92 O82 1.264 1_565 S
C93 C96 1.382 . S
C93 C98 1.390 . S
C93 C100 1.506 . S
C94 C95 1.398 . S
C94 C98 1.392 . S
C95 C94 1.398 . S
C95 C97 1.372 . S
C95 H112 0.931 . S
C96 C93 1.382 . S
C96 C97 1.390 . S
C96 H113 0.931 . S
C97 C95 1.372 . S
C97 C96 1.390 . S
C97 H114 0.929 . S
C98 C93 1.390 . S
C98 C94 1.392 . S
C98 H115 0.930 . S
C99 O84 1.255 . S
C99 O85 1.257 . S
C100 Eu36 2.787 . S
C100 O80 1.252 . S
C100 O83 1.268 . S
C100 C93 1.506 . S
C101 C68 1.439 . S
C101 H78 0.931 . S
C101 C102 1.374 . S
C102 C73 1.387 . S
C102 H79 0.931 . S
C102 C101 1.374 . S
C103 O87 1.249 . S
C103 O88 1.279 . S
C104 C107 1.382 . S
C104 C108 1.390 . S
C104 C111 1.506 . S
C105 C106 1.398 . S
C105 C108 1.392 . S
C106 C105 1.398 . S
C106 C109 1.372 . S
C106 H116 0.931 . S
C107 C104 1.382 . S
C107 C109 1.390 . S
C107 H117 0.931 . S
C108 C104 1.390 . S
C108 C105 1.392 . S
C108 H118 0.930 . S
C109 C106 1.372 . S
C109 C107 1.390 . S
C109 H119 0.929 . S
C110 O90 1.255 . S
C110 O91 1.257 . S
C111 Eu47 2.787 . S
C111 O86 1.252 . S
C111 O89 1.268 . S
C111 C104 1.506 . S
H112 C95 0.931 . S
H113 C96 0.931 . S
H114 C97 0.929 . S
H115 C98 0.930 . S
H116 C106 0.931 . S
H117 C107 0.931 . S
H118 C108 0.930 . S
H119 C109 0.929 . S
Eu120 N149 2.600 1_556 S
Eu120 N155 2.562 1_556 S
Eu120 O164 2.462 . S
Eu120 O165 2.373 1_556 S
Eu120 O167 2.432 . S
Eu120 O168 2.291 1_556 S
Eu120 O172 2.335 . S
Eu120 O175 2.372 1_556 S
Eu120 C184 2.787 . S
C121 N122 1.365 . S
C121 C124 1.405 . S
C121 C128 1.448 . S
N122 C121 1.365 . S
N122 C125 1.319 . S
N122 Eu131 2.600 . S
C123 C125 1.397 . S
C123 C126 1.367 . S
C123 H143 0.931 . S
C124 C121 1.405 . S
C124 C126 1.403 . S
C124 C130 1.439 . S
C125 N122 1.319 . S
C125 C123 1.397 . S
C125 H136 0.930 . S
C126 C123 1.367 . S
C126 C124 1.403 . S
C126 H147 0.929 . S
C127 C128 1.430 . S
C127 C129 1.387 . S
C127 C133 1.404 . S
C128 C121 1.448 . S
C128 C127 1.430 . S
C128 N132 1.351 . S
C129 C127 1.387 . S
C129 C130 1.374 . S
C129 H144 0.931 . S
C130 C124 1.439 . S
C130 C129 1.374 . S
C130 H145 0.931 . S
Eu131 N122 2.600 . S
Eu131 N132 2.562 . S
Eu131 O166 2.335 . S
Eu131 O169 2.372 . S
Eu131 O170 2.462 . S
Eu131 O171 2.373 . S
Eu131 O173 2.432 . S
Eu131 O174 2.291 . S
Eu131 C195 2.787 . S
N132 C128 1.351 . S
N132 Eu131 2.562 . S
N132 C134 1.325 . S
C133 C127 1.404 . S
C133 C135 1.366 . S
C133 H141 0.930 . S
C134 N132 1.325 . S
C134 C135 1.416 . S
C134 H140 0.929 . S
C135 C133 1.366 . S
C135 C134 1.416 . S
C135 H137 0.930 . S
H136 C125 0.930 . S
H137 C135 0.930 . S
H138 C153 0.930 . S
H139 C160 0.930 . S
H140 C134 0.929 . S
H141 C133 0.930 . S
H142 C156 0.929 . S
H143 C123 0.931 . S
H144 C129 0.931 . S
H145 C130 0.931 . S
H146 C151 0.931 . S
H147 C126 0.929 . S
H148 C159 0.930 . S
N149 Eu120 2.600 1_554 S
N149 C150 1.365 . S
N149 C153 1.319 1_554 S
C150 N149 1.365 . S
C150 C152 1.405 . S
C150 C158 1.448 . S
C151 H146 0.931 . S
C151 C153 1.397 . S
C151 C154 1.367 1_556 S
C152 C150 1.405 . S
C152 C154 1.403 . S
C152 C185 1.439 . S
C153 H138 0.930 . S
C153 N149 1.319 1_556 S
C153 C151 1.397 . S
C154 C151 1.367 1_554 S
C154 C152 1.403 . S
C154 H161 0.929 . S
N155 Eu120 2.562 1_554 S
N155 C156 1.325 . S
N155 C158 1.351 . S
C156 H142 0.929 . S
C156 N155 1.325 . S
C156 C160 1.416 . S
C157 C158 1.430 . S
C157 C159 1.404 . S
C157 C186 1.387 . S
C158 C150 1.448 . S
C158 N155 1.351 . S
C158 C157 1.430 . S
C159 H148 0.930 . S
C159 C157 1.404 . S
C159 C160 1.366 . S
C160 H139 0.930 . S
C160 C156 1.416 . S
C160 C159 1.366 . S
H161 C154 0.929 . S
H162 C185 0.931 . S
H163 C186 0.931 . S
O164 Eu120 2.462 . S
O164 C184 1.252 . S
O165 Eu120 2.373 1_554 S
O165 C176 1.249 . S
O166 Eu131 2.335 . S
O166 C176 1.264 . S
O167 Eu120 2.432 . S
O167 C184 1.268 . S
O168 Eu120 2.291 1_554 S
O168 C183 1.255 . S
O169 Eu131 2.372 . S
O169 C183 1.257 . S
O170 Eu131 2.462 . S
O170 C195 1.252 . S
O171 Eu131 2.373 . S
O171 C187 1.249 1_554 S
O172 Eu120 2.335 . S
O172 C187 1.264 . S
O173 Eu131 2.432 . S
O173 C195 1.268 . S
O174 Eu131 2.291 . S
O174 C194 1.255 . S
O175 Eu120 2.372 1_554 S
O175 C194 1.257 . S
C176 O165 1.249 . S
C176 O166 1.264 . S
C177 C180 1.382 . S
C177 C182 1.390 . S
C177 C184 1.506 . S
C178 C179 1.398 . S
C178 C182 1.392 . S
C179 C178 1.398 . S
C179 C181 1.372 . S
C179 H196 0.931 . S
C180 C177 1.382 . S
C180 C181 1.390 . S
C180 H197 0.931 . S
C181 C179 1.372 . S
C181 C180 1.390 . S
C181 H198 0.929 . S
C182 C177 1.390 . S
C182 C178 1.392 . S
C182 H199 0.930 . S
C183 O168 1.255 . S
C183 O169 1.257 . S
C184 Eu120 2.787 . S
C184 O164 1.252 . S
C184 O167 1.268 . S
C184 C177 1.506 . S
C185 C152 1.439 . S
C185 H162 0.931 . S
C185 C186 1.374 . S
C186 C157 1.387 . S
C186 H163 0.931 . S
C186 C185 1.374 . S
C187 O171 1.249 1_556 S
C187 O172 1.264 . S
C188 C191 1.382 . S
C188 C192 1.390 . S
C188 C195 1.506 . S
C189 C190 1.398 . S
C189 C192 1.392 . S
C190 C189 1.398 . S
C190 C193 1.372 . S
C190 H200 0.931 . S
C191 C188 1.382 . S
C191 C193 1.390 . S
C191 H201 0.931 . S
C192 C188 1.390 . S
C192 C189 1.392 . S
C192 H202 0.930 . S
C193 C190 1.372 . S
C193 C191 1.390 . S
C193 H203 0.929 . S
C194 O174 1.255 . S
C194 O175 1.257 . S
C195 Eu131 2.787 . S
C195 O170 1.252 . S
C195 O173 1.268 . S
C195 C188 1.506 . S
H196 C179 0.931 . S
H197 C180 0.931 . S
H198 C181 0.929 . S
H199 C182 0.930 . S
H200 C190 0.931 . S
H201 C191 0.931 . S
H202 C192 0.930 . S
H203 C193 0.929 . S
H204 C210 0.930 . S
H205 C213 0.930 . S
H206 C214 0.930 . S
H207 C215 0.930 . S
H208 C218 0.930 . S
H209 C219 0.930 . S
C210 H204 0.930 . S
C210 C211 1.355 . S
C210 C212 1.415 . S
C211 C210 1.355 . S
C211 C213 1.419 . S
C212 C210 1.415 . S
C212 C217 1.425 . S
C212 C219 1.409 . S
C213 H205 0.930 . S
C213 C211 1.419 . S
C213 C214 1.362 . S
C214 H206 0.930 . S
C214 C213 1.362 . S
C214 C217 1.409 . S
C215 H207 0.930 . S
C215 C216 1.355 . S
C215 C217 1.415 . S
C216 C215 1.355 . S
C216 C218 1.419 . S
C217 C212 1.425 . S
C217 C214 1.409 . S
C217 C215 1.415 . S
C218 H208 0.930 . S
C218 C216 1.419 . S
C218 C219 1.362 . S
C219 H209 0.930 . S
C219 C212 1.409 . S
C219 C218 1.362 . S
H220 C226 0.926 1_556 S
H221 C229 0.930 . S
H222 C230 0.930 . S
H223 C231 0.930 . S
H224 C234 0.930 . S
H225 C235 0.930 . S
C226 H220 0.926 1_554 S
C226 C227 1.359 . S
C226 C228 1.414 . S
C227 C226 1.359 . S
C227 C229 1.419 . S
C228 C226 1.414 . S
C228 C233 1.425 . S
C228 C235 1.409 1_554 S
C229 H221 0.930 . S
C229 C227 1.419 . S
C229 C230 1.362 . S
C230 H222 0.930 . S
C230 C229 1.362 . S
C230 C233 1.409 . S
C231 H223 0.930 . S
C231 C232 1.355 . S
C231 C233 1.415 . S
C232 C231 1.355 . S
C232 C234 1.419 1_554 S
C233 C228 1.425 . S
C233 C230 1.409 . S
C233 C231 1.415 . S
C234 H224 0.930 . S
C234 C232 1.419 1_556 S
C234 C235 1.362 . S
C235 H225 0.930 . S
C235 C228 1.409 1_556 S
C235 C234 1.362 . S
H236 C242 0.930 . S
H237 C245 0.930 . S
H238 C246 0.930 . S
H239 C247 0.930 . S
H240 C250 0.930 . S
H241 C251 0.930 . S
C242 H236 0.930 . S
C242 C243 1.355 . S
C242 C244 1.415 . S
C243 C242 1.355 . S
C243 C245 1.419 . S
C244 C242 1.415 . S
C244 C249 1.425 . S
C244 C251 1.409 . S
C245 H237 0.930 . S
C245 C243 1.419 . S
C245 C246 1.362 . S
C246 H238 0.930 . S
C246 C245 1.362 . S
C246 C249 1.409 . S
C247 H239 0.930 . S
C247 C248 1.355 . S
C247 C249 1.415 . S
C248 C247 1.355 . S
C248 C250 1.419 . S
C249 C244 1.425 . S
C249 C246 1.409 . S
C249 C247 1.415 . S
C250 H240 0.930 . S
C250 C248 1.419 . S
C250 C251 1.362 . S
C251 H241 0.930 . S
C251 C244 1.409 . S
C251 C250 1.362 . S
H252 C258 0.930 . S
H253 C261 0.930 . S
H254 C262 0.930 . S
H255 C263 0.930 . S
H256 C266 0.930 . S
H257 C267 0.930 . S
C258 H252 0.930 . S
C258 C259 1.355 . S
C258 C260 1.415 . S
C259 C258 1.355 . S
C259 C261 1.419 . S
C260 C258 1.415 . S
C260 C265 1.425 . S
C260 C267 1.409 . S
C261 H253 0.930 . S
C261 C259 1.419 . S
C261 C262 1.362 . S
C262 H254 0.930 . S
C262 C261 1.362 . S
C262 C265 1.409 . S
C263 H255 0.930 . S
C263 C264 1.355 . S
C263 C265 1.415 . S
C264 C263 1.355 . S
C264 C266 1.419 . S
C265 C260 1.425 . S
C265 C262 1.409 . S
C265 C263 1.415 . S
C266 H256 0.930 . S
C266 C264 1.419 . S
C266 C267 1.362 . S
C267 H257 0.930 . S
C267 C260 1.409 . S
C267 C266 1.362 . S
H268 C274 0.930 . S
H269 C277 0.930 . S
H270 C278 0.930 . S
H271 C279 0.930 . S
H272 C282 0.930 . S
H273 C283 0.930 . S
C274 H268 0.930 . S
C274 C275 1.355 . S
C274 C276 1.415 . S
C275 C274 1.355 . S
C275 C277 1.419 . S
C276 C274 1.415 . S
C276 C281 1.425 . S
C276 C283 1.409 . S
C277 H269 0.930 . S
C277 C275 1.419 . S
C277 C278 1.362 . S
C278 H270 0.930 . S
C278 C277 1.362 . S
C278 C281 1.409 . S
C279 H271 0.930 . S
C279 C280 1.355 . S
C279 C281 1.415 . S
C280 C279 1.355 . S
C280 C282 1.419 . S
C281 C276 1.425 . S
C281 C278 1.409 . S
C281 C279 1.415 . S
C282 H272 0.930 . S
C282 C280 1.419 . S
C282 C283 1.362 . S
C283 H273 0.930 . S
C283 C276 1.409 . S
C283 C282 1.362 . S
H284 C290 0.930 . S
H285 C293 0.930 . S
H286 C294 0.930 . S
H287 C295 0.930 . S
H288 C298 0.930 . S
H289 C299 0.930 . S
C290 H284 0.930 . S
C290 C291 1.355 . S
C290 C292 1.415 . S
C291 C290 1.355 . S
C291 C293 1.419 . S
C292 C290 1.415 . S
C292 C297 1.425 . S
C292 C299 1.409 . S
C293 H285 0.930 . S
C293 C291 1.419 . S
C293 C294 1.362 . S
C294 H286 0.930 . S
C294 C293 1.362 . S
C294 C297 1.409 . S
C295 H287 0.930 . S
C295 C296 1.355 . S
C295 C297 1.415 . S
C296 C295 1.355 . S
C296 C298 1.419 . S
C297 C292 1.425 . S
C297 C294 1.409 . S
C297 C295 1.415 . S
C298 H288 0.930 . S
C298 C296 1.419 . S
C298 C299 1.362 . S
C299 H289 0.930 . S
C299 C292 1.409 . S
C299 C298 1.362 . S
H300 C306 0.930 . S
H301 C309 0.930 . S
H302 C310 0.930 . S
H303 C311 0.930 . S
H304 C314 0.930 . S
H305 C315 0.930 . S
C306 H300 0.930 . S
C306 C307 1.355 . S
C306 C308 1.415 . S
C307 C306 1.355 . S
C307 C309 1.419 . S
C308 C306 1.415 . S
C308 C313 1.425 . S
C308 C315 1.409 . S
C309 H301 0.930 . S
C309 C307 1.419 . S
C309 C310 1.362 . S
C310 H302 0.930 . S
C310 C309 1.362 . S
C310 C313 1.409 . S
C311 H303 0.930 . S
C311 C312 1.355 . S
C311 C313 1.415 . S
C312 C311 1.355 . S
C312 C314 1.419 . S
C313 C308 1.425 . S
C313 C310 1.409 . S
C313 C311 1.415 . S
C314 H304 0.930 . S
C314 C312 1.419 . S
C314 C315 1.362 . S
C315 H305 0.930 . S
C315 C308 1.409 . S
C315 C314 1.362 . S
H316 C322 0.930 . S
H317 C325 0.930 . S
H318 C326 0.930 . S
H319 C327 0.930 . S
H320 C330 0.930 . S
H321 C331 0.930 . S
C322 H316 0.930 . S
C322 C323 1.355 . S
C322 C324 1.415 . S
C323 C322 1.355 . S
C323 C325 1.419 . S
C324 C322 1.415 . S
C324 C329 1.425 . S
C324 C331 1.409 . S
C325 H317 0.930 . S
C325 C323 1.419 . S
C325 C326 1.362 . S
C326 H318 0.930 . S
C326 C325 1.362 . S
C326 C329 1.409 . S
C327 H319 0.930 . S
C327 C328 1.355 . S
C327 C329 1.415 . S
C328 C327 1.355 . S
C328 C330 1.419 . S
C329 C324 1.425 . S
C329 C326 1.409 . S
C329 C327 1.415 . S
C330 H320 0.930 . S
C330 C328 1.419 . S
C330 C331 1.362 . S
C331 H321 0.930 . S
C331 C324 1.409 . S
C331 C330 1.362 . S
H332 C338 0.930 . S
H333 C341 0.930 . S
H334 C342 0.930 . S
H335 C343 0.930 . S
H336 C346 0.930 . S
H337 C347 0.930 . S
C338 H332 0.930 . S
C338 C339 1.355 . S
C338 C340 1.415 . S
C339 C338 1.355 . S
C339 C341 1.419 . S
C340 C338 1.415 . S
C340 C345 1.425 . S
C340 C347 1.409 . S
C341 H333 0.930 . S
C341 C339 1.419 . S
C341 C342 1.362 . S
C342 H334 0.930 . S
C342 C341 1.362 . S
C342 C345 1.409 . S
C343 H335 0.930 . S
C343 C344 1.355 . S
C343 C345 1.415 . S
C344 C343 1.355 . S
C344 C346 1.419 . S
C345 C340 1.425 . S
C345 C342 1.409 . S
C345 C343 1.415 . S
C346 H336 0.930 . S
C346 C344 1.419 . S
C346 C347 1.362 . S
C347 H337 0.930 . S
C347 C340 1.409 . S
C347 C346 1.362 . S
H348 C354 0.930 1_554 S
H349 C357 0.930 . S
H350 C358 0.930 . S
H351 C359 0.930 . S
H352 C362 0.930 1_565 S
H353 C363 0.930 1_565 S
C354 H348 0.930 1_556 S
C354 C355 1.355 . S
C354 C356 1.415 . S
C355 C354 1.355 . S
C355 C357 1.419 . S
C356 C354 1.415 . S
C356 C361 1.425 . S
C356 C363 1.409 . S
C357 H349 0.930 . S
C357 C355 1.419 . S
C357 C358 1.362 . S
C358 H350 0.930 . S
C358 C357 1.362 . S
C358 C361 1.409 . S
C359 H351 0.930 . S
C359 C360 1.355 . S
C359 C361 1.415 . S
C360 C359 1.355 . S
C360 C362 1.419 . S
C361 C356 1.425 . S
C361 C358 1.409 . S
C361 C359 1.415 . S
C362 H352 0.930 1_545 S
C362 C360 1.419 . S
C362 C363 1.362 . S
C363 H353 0.930 1_545 S
C363 C356 1.409 . S
C363 C362 1.362 . S
H364 C370 0.930 . S
H365 C373 0.930 . S
H366 C374 0.930 . S
H367 C375 0.930 . S
H368 C378 0.930 . S
H369 C379 0.930 . S
C370 H364 0.930 . S
C370 C371 1.355 . S
C370 C372 1.415 . S
C371 C370 1.355 . S
C371 C373 1.419 . S
C372 C370 1.415 . S
C372 C377 1.425 . S
C372 C379 1.409 . S
C373 H365 0.930 . S
C373 C371 1.419 . S
C373 C374 1.362 . S
C374 H366 0.930 . S
C374 C373 1.362 . S
C374 C377 1.409 . S
C375 H367 0.930 . S
C375 C376 1.355 . S
C375 C377 1.415 . S
C376 C375 1.355 . S
C376 C378 1.419 . S
C377 C372 1.425 . S
C377 C374 1.409 . S
C377 C375 1.415 . S
C378 H368 0.930 . S
C378 C376 1.419 . S
C378 C379 1.362 . S
C379 H369 0.930 . S
C379 C372 1.409 . S
C379 C378 1.362 . S
H380 C386 0.930 . S
H381 C389 0.930 . S
H382 C390 0.930 . S
H383 C391 0.930 . S
H384 C394 0.930 . S
H385 C395 0.930 . S
C386 H380 0.930 . S
C386 C387 1.355 . S
C386 C388 1.415 . S
C387 C386 1.355 . S
C387 C389 1.419 . S
C388 C386 1.415 . S
C388 C393 1.425 . S
C388 C395 1.409 . S
C389 H381 0.930 . S
C389 C387 1.419 . S
C389 C390 1.362 . S
C390 H382 0.930 . S
C390 C389 1.362 . S
C390 C393 1.409 . S
C391 H383 0.930 . S
C391 C392 1.355 . S
C391 C393 1.415 . S
C392 C391 1.355 . S
C392 C394 1.419 . S
C393 C388 1.425 . S
C393 C390 1.409 . S
C393 C391 1.415 . S
C394 H384 0.930 . S
C394 C392 1.419 . S
C394 C395 1.362 . S
C395 H385 0.930 . S
C395 C388 1.409 . S
C395 C394 1.362 . S
C216 C99 1.538 . S
C211 C34 1.560 . S
C227 C7 1.549 . S
C232 C194 1.509 . S
C243 C16 1.579 . S
C248 C110 1.528 . S
C259 C25 1.555 . S
C264 C183 1.536 . S
C280 C94 1.300 . S
C275 C5 1.525 . S
C296 C187 1.554 . S
C291 C13 1.562 . S
C307 C23 1.547 . S
C312 C103 1.547 . S
C323 C32 1.515 . S
C328 C178 1.303 . S
C344 C189 1.372 . S
C339 C14 1.501 . S
C360 C105 1.415 . S
C355 C22 1.511 1_556 S
C376 C176 1.553 . S
C371 C31 1.558 . S
C387 C4 1.530 . S
C392 C92 1.550 . S
