# Generated by pormake.
# Topology ptr, (4,4)-cn, num edge types: 1
# Building blocks:
#     Node 0, Type 0, BuildingBlock: NAHDIM_clean_sbu_0, # of connection points: 4
#     Node 1, Type 0, BuildingBlock: NAHDIM_clean_sbu_0, # of connection points: 4
#     Node 2, Type 0, BuildingBlock: NAHDIM_clean_sbu_0, # of connection points: 4
#     Node 3, Type 0, BuildingBlock: NAHDIM_clean_sbu_0, # of connection points: 4
#     Node 4, Type 0, BuildingBlock: NAHDIM_clean_sbu_0, # of connection points: 4
#     Node 5, Type 0, BuildingBlock: NAHDIM_clean_sbu_0, # of connection points: 4
#     Node 6, Type 0, BuildingBlock: NAHDIM_clean_sbu_0, # of connection points: 4
#     Node 7, Type 0, BuildingBlock: NAHDIM_clean_sbu_0, # of connection points: 4
#     Node 8, Type 0, BuildingBlock: NAHDIM_clean_sbu_0, # of connection points: 4
#     Node 9, Type 0, BuildingBlock: NAHDIM_clean_sbu_0, # of connection points: 4
#     Node 10, Type 0, BuildingBlock: NAHDIM_clean_sbu_0, # of connection points: 4
#     Node 11, Type 0, BuildingBlock: NAHDIM_clean_sbu_0, # of connection points: 4
#     Node 12, Type 0, BuildingBlock: NAHDIM_clean_sbu_0, # of connection points: 4
#     Node 13, Type 0, BuildingBlock: NAHDIM_clean_sbu_0, # of connection points: 4
#     Node 14, Type 0, BuildingBlock: NAHDIM_clean_sbu_0, # of connection points: 4
#     Node 15, Type 0, BuildingBlock: NAHDIM_clean_sbu_0, # of connection points: 4
#     Node 16, Type 0, BuildingBlock: NAHDIM_clean_sbu_0, # of connection points: 4
#     Node 17, Type 0, BuildingBlock: NAHDIM_clean_sbu_0, # of connection points: 4
#     Node 18, Type 1, BuildingBlock: GIZVER_clean_linker_0, # of connection points: 4
#     Node 19, Type 1, BuildingBlock: GIZVER_clean_linker_0, # of connection points: 4
#     Node 20, Type 1, BuildingBlock: GIZVER_clean_linker_0, # of connection points: 4
#     Node 21, Type 1, BuildingBlock: GIZVER_clean_linker_0, # of connection points: 4
#     Node 22, Type 1, BuildingBlock: GIZVER_clean_linker_0, # of connection points: 4
#     Node 23, Type 1, BuildingBlock: GIZVER_clean_linker_0, # of connection points: 4
#     Node 24, Type 1, BuildingBlock: GIZVER_clean_linker_0, # of connection points: 4
#     Node 25, Type 1, BuildingBlock: GIZVER_clean_linker_0, # of connection points: 4
#     Node 26, Type 1, BuildingBlock: GIZVER_clean_linker_0, # of connection points: 4
#     Node 27, Type 1, BuildingBlock: GIZVER_clean_linker_0, # of connection points: 4
#     Node 28, Type 1, BuildingBlock: GIZVER_clean_linker_0, # of connection points: 4
#     Node 29, Type 1, BuildingBlock: GIZVER_clean_linker_0, # of connection points: 4
#     Node 30, Type 1, BuildingBlock: GIZVER_clean_linker_0, # of connection points: 4
#     Node 31, Type 1, BuildingBlock: GIZVER_clean_linker_0, # of connection points: 4
#     Node 32, Type 1, BuildingBlock: GIZVER_clean_linker_0, # of connection points: 4
#     Node 33, Type 1, BuildingBlock: GIZVER_clean_linker_0, # of connection points: 4
#     Node 34, Type 1, BuildingBlock: GIZVER_clean_linker_0, # of connection points: 4
#     Node 35, Type 1, BuildingBlock: GIZVER_clean_linker_0, # of connection points: 4
#     Edge 36, Type (0, 1), BuildingBlock: XIVTED_clean_linker_0, # of connection points: 2
#     Edge 37, Type (0, 1), BuildingBlock: XIVTED_clean_linker_0, # of connection points: 2
#     Edge 38, Type (0, 1), BuildingBlock: XIVTED_clean_linker_0, # of connection points: 2
#     Edge 39, Type (0, 1), BuildingBlock: XIVTED_clean_linker_0, # of connection points: 2
#     Edge 40, Type (0, 1), BuildingBlock: XIVTED_clean_linker_0, # of connection points: 2
#     Edge 41, Type (0, 1), BuildingBlock: XIVTED_clean_linker_0, # of connection points: 2
#     Edge 42, Type (0, 1), BuildingBlock: XIVTED_clean_linker_0, # of connection points: 2
#     Edge 43, Type (0, 1), BuildingBlock: XIVTED_clean_linker_0, # of connection points: 2
#     Edge 44, Type (0, 1), BuildingBlock: XIVTED_clean_linker_0, # of connection points: 2
#     Edge 45, Type (0, 1), BuildingBlock: XIVTED_clean_linker_0, # of connection points: 2
#     Edge 46, Type (0, 1), BuildingBlock: XIVTED_clean_linker_0, # of connection points: 2
#     Edge 47, Type (0, 1), BuildingBlock: XIVTED_clean_linker_0, # of connection points: 2
#     Edge 48, Type (0, 1), BuildingBlock: XIVTED_clean_linker_0, # of connection points: 2
#     Edge 49, Type (0, 1), BuildingBlock: XIVTED_clean_linker_0, # of connection points: 2
#     Edge 50, Type (0, 1), BuildingBlock: XIVTED_clean_linker_0, # of connection points: 2
#     Edge 51, Type (0, 1), BuildingBlock: XIVTED_clean_linker_0, # of connection points: 2
#     Edge 52, Type (0, 1), BuildingBlock: XIVTED_clean_linker_0, # of connection points: 2
#     Edge 53, Type (0, 1), BuildingBlock: XIVTED_clean_linker_0, # of connection points: 2
#     Edge 54, Type (0, 1), BuildingBlock: XIVTED_clean_linker_0, # of connection points: 2
#     Edge 55, Type (0, 1), BuildingBlock: XIVTED_clean_linker_0, # of connection points: 2
#     Edge 56, Type (0, 1), BuildingBlock: XIVTED_clean_linker_0, # of connection points: 2
#     Edge 57, Type (0, 1), BuildingBlock: XIVTED_clean_linker_0, # of connection points: 2
#     Edge 58, Type (0, 1), BuildingBlock: XIVTED_clean_linker_0, # of connection points: 2
#     Edge 59, Type (0, 1), BuildingBlock: XIVTED_clean_linker_0, # of connection points: 2
#     Edge 60, Type (0, 1), BuildingBlock: XIVTED_clean_linker_0, # of connection points: 2
#     Edge 61, Type (0, 1), BuildingBlock: XIVTED_clean_linker_0, # of connection points: 2
#     Edge 62, Type (0, 1), BuildingBlock: XIVTED_clean_linker_0, # of connection points: 2
#     Edge 63, Type (0, 1), BuildingBlock: XIVTED_clean_linker_0, # of connection points: 2
#     Edge 64, Type (0, 1), BuildingBlock: XIVTED_clean_linker_0, # of connection points: 2
#     Edge 65, Type (0, 1), BuildingBlock: XIVTED_clean_linker_0, # of connection points: 2
#     Edge 66, Type (0, 1), BuildingBlock: XIVTED_clean_linker_0, # of connection points: 2
#     Edge 67, Type (0, 1), BuildingBlock: XIVTED_clean_linker_0, # of connection points: 2
#     Edge 68, Type (0, 1), BuildingBlock: XIVTED_clean_linker_0, # of connection points: 2
#     Edge 69, Type (0, 1), BuildingBlock: XIVTED_clean_linker_0, # of connection points: 2
#     Edge 70, Type (0, 1), BuildingBlock: XIVTED_clean_linker_0, # of connection points: 2
#     Edge 71, Type (0, 1), BuildingBlock: XIVTED_clean_linker_0, # of connection points: 2
#     Edge 72, Type (0, 1), BuildingBlock: XIVTED_clean_linker_0, # of connection points: 2
#     Edge 73, Type (0, 1), BuildingBlock: XIVTED_clean_linker_0, # of connection points: 2
#     Edge 74, Type (0, 1), BuildingBlock: XIVTED_clean_linker_0, # of connection points: 2
#     Edge 75, Type (0, 1), BuildingBlock: XIVTED_clean_linker_0, # of connection points: 2
#     Edge 76, Type (0, 1), BuildingBlock: XIVTED_clean_linker_0, # of connection points: 2
#     Edge 77, Type (0, 1), BuildingBlock: XIVTED_clean_linker_0, # of connection points: 2
#     Edge 78, Type (0, 1), BuildingBlock: XIVTED_clean_linker_0, # of connection points: 2
#     Edge 79, Type (0, 1), BuildingBlock: XIVTED_clean_linker_0, # of connection points: 2
#     Edge 80, Type (0, 1), BuildingBlock: XIVTED_clean_linker_0, # of connection points: 2
#     Edge 81, Type (0, 1), BuildingBlock: XIVTED_clean_linker_0, # of connection points: 2
#     Edge 82, Type (0, 1), BuildingBlock: XIVTED_clean_linker_0, # of connection points: 2
#     Edge 83, Type (0, 1), BuildingBlock: XIVTED_clean_linker_0, # of connection points: 2
#     Edge 84, Type (0, 1), BuildingBlock: XIVTED_clean_linker_0, # of connection points: 2
#     Edge 85, Type (0, 1), BuildingBlock: XIVTED_clean_linker_0, # of connection points: 2
#     Edge 86, Type (0, 1), BuildingBlock: XIVTED_clean_linker_0, # of connection points: 2
#     Edge 87, Type (0, 1), BuildingBlock: XIVTED_clean_linker_0, # of connection points: 2
#     Edge 88, Type (0, 1), BuildingBlock: XIVTED_clean_linker_0, # of connection points: 2
#     Edge 89, Type (0, 1), BuildingBlock: XIVTED_clean_linker_0, # of connection points: 2
#     Edge 90, Type (0, 1), BuildingBlock: XIVTED_clean_linker_0, # of connection points: 2
#     Edge 91, Type (0, 1), BuildingBlock: XIVTED_clean_linker_0, # of connection points: 2
#     Edge 92, Type (0, 1), BuildingBlock: XIVTED_clean_linker_0, # of connection points: 2
#     Edge 93, Type (0, 1), BuildingBlock: XIVTED_clean_linker_0, # of connection points: 2
#     Edge 94, Type (0, 1), BuildingBlock: XIVTED_clean_linker_0, # of connection points: 2
#     Edge 95, Type (0, 1), BuildingBlock: XIVTED_clean_linker_0, # of connection points: 2
#     Edge 96, Type (0, 1), BuildingBlock: XIVTED_clean_linker_0, # of connection points: 2
#     Edge 97, Type (0, 1), BuildingBlock: XIVTED_clean_linker_0, # of connection points: 2
#     Edge 98, Type (0, 1), BuildingBlock: XIVTED_clean_linker_0, # of connection points: 2
#     Edge 99, Type (0, 1), BuildingBlock: XIVTED_clean_linker_0, # of connection points: 2
#     Edge 100, Type (0, 1), BuildingBlock: XIVTED_clean_linker_0, # of connection points: 2
#     Edge 101, Type (0, 1), BuildingBlock: XIVTED_clean_linker_0, # of connection points: 2
#     Edge 102, Type (0, 1), BuildingBlock: XIVTED_clean_linker_0, # of connection points: 2
#     Edge 103, Type (0, 1), BuildingBlock: XIVTED_clean_linker_0, # of connection points: 2
#     Edge 104, Type (0, 1), BuildingBlock: XIVTED_clean_linker_0, # of connection points: 2
#     Edge 105, Type (0, 1), BuildingBlock: XIVTED_clean_linker_0, # of connection points: 2
#     Edge 106, Type (0, 1), BuildingBlock: XIVTED_clean_linker_0, # of connection points: 2
#     Edge 107, Type (0, 1), BuildingBlock: XIVTED_clean_linker_0, # of connection points: 2
# Relax obj value: 0.076
# Max RMSD: 0.210
# Mean RMSD: 0.115
data_MOF--net-ptr--node1-NAHDIM_clean_sbu_0--node2-GIZVER_clean_linker_0--edge1-XIVTED_clean_linker_0
_symmetry_space_group_name_H-M    P1
_symmetry_Int_Tables_number       1
_symmetry_cell_setting            triclinic
loop_
_symmetry_equiv_pos_as_xyz
'x, y, z'
_cell_length_a     81.246547
_cell_length_b     79.914706
_cell_length_c     47.324349
_cell_angle_alpha  92.007832
_cell_angle_beta   89.432518
_cell_angle_gamma 121.70624
loop_
_atom_site_label
_atom_site_type_symbol
_atom_site_fract_x
_atom_site_fract_y
_atom_site_fract_z
_atom_type_partial_charge
C0 C 0.03649 0.36863 0.99383 0.0
O1 O 0.02124 0.35369 0.98125 0.0
O2 O 0.98767 0.35465 0.00721 0.0
Zn3 Zn 0.01043 0.38286 0.00542 0.0
O4 O 0.01193 0.39938 0.03968 0.0
C5 C 0.99295 0.3919 0.95976 0.0
O6 O 0.97674 0.3776 0.97012 0.0
O7 O 0.03521 0.38265 0.00485 0.0
C8 C 1.00178 0.40716 0.04279 0.0
O9 O 0.98881 0.40386 0.0235 0.0
C10 C 0.97134 0.34916 0.01833 0.0
O11 O 0.96819 0.36234 0.03006 0.0
O12 O 0.00896 0.39621 0.97084 0.0
C13 C 0.67056 0.64543 0.01844 0.0
O14 O 0.67018 0.66094 0.02755 0.0
O15 O 0.63097 0.65363 0.01015 0.0
Zn16 Zn 0.62875 0.62728 0.00812 0.0
O17 O 0.61593 0.61318 0.97148 0.0
C18 C 0.60957 0.59501 0.0467 0.0
O19 O 0.61815 0.58757 0.03191 0.0
O20 O 0.65495 0.63004 0.00997 0.0
C21 C 0.59775 0.60163 0.96827 0.0
O22 O 0.58628 0.59867 0.98977 0.0
C23 C 0.64044 0.66737 0.99302 0.0
O24 O 0.64993 0.66487 0.97233 0.0
O25 O 0.61228 0.6116 0.0404 0.0
C26 C 0.36836 0.04351 0.03163 0.0
O27 O 0.35506 0.02891 0.04628 0.0
O28 O 0.35537 0.99199 0.01713 0.0
Zn29 Zn 0.38208 0.01673 0.01686 0.0
O30 O 0.39647 0.01679 0.98173 0.0
C31 C 0.40059 0.00293 0.05142 0.0
O32 O 0.39344 0.98906 0.03139 0.0
O33 O 0.38085 0.04143 0.01821 0.0
C34 C 0.39251 1.0012 0.96776 0.0
O35 O 0.3778 0.98419 0.9754 0.0
C36 C 0.34035 0.98984 0.00528 0.0
O37 O 0.34162 0.00448 0.99157 0.0
O38 O 0.39738 0.01685 0.05034 0.0
C39 C 0.97308 0.64817 0.02678 0.0
O40 O 0.9889 0.66309 0.03826 0.0
O41 O 0.02147 0.65892 0.004 0.0
Zn42 Zn 0.99765 0.63244 0.01145 0.0
O43 O 0.99397 0.61381 0.97916 0.0
C44 C 0.99599 0.6043 0.05057 0.0
O45 O 0.98497 0.59122 0.03091 0.0
O46 O 0.97366 0.63395 0.01496 0.0
C47 C 0.00747 0.61088 0.97257 0.0
O48 O 0.02384 0.62036 0.98692 0.0
C49 C 0.02216 0.67265 0.99021 0.0
O50 O 0.0062 0.67029 0.97945 0.0
O51 O 1.00242 0.62243 0.04703 0.0
C52 C 0.33616 0.38057 0.98958 0.0
O53 O 0.33698 0.36796 0.97196 0.0
O54 O 0.36868 0.36353 0.00138 0.0
Zn55 Zn 0.37552 0.3918 0.00331 0.0
O56 O 0.39047 0.40415 0.03943 0.0
C57 C 0.39056 0.3966 0.94722 0.0
O58 O 0.37773 0.37761 0.94559 0.0
O59 O 0.35101 0.39243 0.00446 0.0
C60 C 0.40618 0.42078 0.04155 0.0
O61 O 0.4134 0.43139 0.01906 0.0
C62 C 0.38117 0.35939 0.0084 0.0
O63 O 0.3984 0.37369 0.01692 0.0
O64 O 0.39204 0.40621 0.96998 0.0
C65 C 0.64158 0.96903 0.98876 0.0
O66 O 0.65473 0.98402 0.97454 0.0
O67 O 0.6565 0.01878 0.0048 0.0
Zn68 Zn 0.62871 0.99587 0.00443 0.0
O69 O 0.61558 0.99615 0.0408 0.0
C70 C 0.61669 0.01254 0.96156 0.0
O71 O 0.6306 0.02927 0.97284 0.0
O72 O 0.6289 0.97066 0.00243 0.0
C73 C 0.60277 1.00073 0.04263 0.0
O74 O 0.59782 0.00615 0.01998 0.0
C75 C 0.66236 0.03556 0.0166 0.0
O76 O 0.64986 0.03891 0.02928 0.0
O77 O 0.61358 0.99646 0.97113 0.0
C78 C 0.70809 0.7031 0.32241 0.0
O79 O 0.69315 0.68854 0.3087 0.0
O80 O 0.65868 0.68863 0.33583 0.0
Zn81 Zn 0.68155 0.71657 0.33556 0.0
O82 O 0.68182 0.73079 0.37164 0.0
C83 C 0.69298 0.74783 0.29665 0.0
O84 O 0.70874 0.75669 0.31242 0.0
O85 O 0.70643 0.71659 0.33453 0.0
C86 C 0.67546 0.74229 0.37411 0.0
O87 O 0.66777 0.74528 0.35203 0.0
C88 C 0.64149 0.68511 0.33602 0.0
O89 O 0.63876 0.69992 0.33591 0.0
O90 O 0.67956 0.73046 0.30227 0.0
C91 C 0.33762 0.97247 0.3543 0.0
O92 O 0.33775 0.98791 0.36509 0.0
O93 O 0.30326 0.98575 0.34408 0.0
Zn94 Zn 0.29679 0.95751 0.3448 0.0
O95 O 0.28157 0.94175 0.31016 0.0
C96 C 0.27001 0.9482 0.39132 0.0
O97 O 0.26847 0.96249 0.38151 0.0
O98 O 0.3218 0.95776 0.34492 0.0
C99 C 0.26347 0.93427 0.30702 0.0
O100 O 0.25368 0.93708 0.32687 0.0
C101 C 0.29282 0.99155 0.33358 0.0
O102 O 0.27608 0.97866 0.32184 0.0
O103 O 0.28144 0.94387 0.37937 0.0
C104 C 0.03279 0.37274 0.3457 0.0
O105 O 0.0167 0.35681 0.35314 0.0
O106 O 0.01933 0.32291 0.34162 0.0
Zn107 Zn 0.04698 0.34599 0.34012 0.0
O108 O 0.05997 0.3436 0.30507 0.0
C109 C 0.0687 0.33448 0.37221 0.0
O110 O 0.06507 0.32316 0.34943 0.0
O111 O 0.04751 0.37165 0.33973 0.0
C112 C 0.07708 0.35745 0.29977 0.0
O113 O 0.08538 0.37327 0.31653 0.0
C114 C 0.01376 0.30587 0.33104 0.0
O115 O 0.02636 0.30275 0.3182 0.0
O116 O 0.06211 0.34583 0.37368 0.0
C117 C 0.63445 0.96866 0.35955 0.0
O118 O 0.64924 0.98264 0.37424 0.0
O119 O 0.6845 0.98157 0.3481 0.0
Zn120 Zn 0.6604 0.95445 0.34572 0.0
O121 O 0.66166 0.94174 0.30903 0.0
C122 C 0.67425 0.93562 0.37991 0.0
O123 O 0.68796 0.94276 0.36087 0.0
O124 O 0.63607 0.95547 0.34632 0.0
C125 C 0.65555 0.92354 0.30544 0.0
O126 O 0.64717 0.91166 0.32643 0.0
C127 C 0.68684 0.99617 0.33467 0.0
O128 O 0.67265 0.99419 0.31894 0.0
O129 O 0.66054 0.93882 0.37801 0.0
C130 C 0.00492 0.70936 0.32354 0.0
O131 O 0.00601 0.69606 0.30796 0.0
O132 O 0.03991 0.69578 0.33917 0.0
Zn133 Zn 0.04511 0.72339 0.33724 0.0
O134 O 0.06081 0.73918 0.37132 0.0
C135 C 0.0605 0.72652 0.28109 0.0
O136 O 0.04933 0.70725 0.28097 0.0
O137 O 0.0198 0.72248 0.33723 0.0
C138 C 0.06078 0.75427 0.38061 0.0
O139 O 0.05001 0.75956 0.36788 0.0
C140 C 0.05281 0.69269 0.34787 0.0
O141 O 0.06977 0.70776 0.35588 0.0
O142 O 0.06072 0.73654 0.30268 0.0
C143 C 0.31161 0.30296 0.31805 0.0
O144 O 0.32619 0.31822 0.30612 0.0
O145 O 0.32662 0.35299 0.33437 0.0
Zn146 Zn 0.29887 0.3303 0.33146 0.0
O147 O 0.28469 0.3302 0.36663 0.0
C148 C 0.26828 0.31925 0.29113 0.0
O149 O 0.25963 0.30329 0.30601 0.0
O150 O 0.29826 0.30468 0.32928 0.0
C151 C 0.27376 0.33716 0.36842 0.0
O152 O 0.27163 0.34548 0.34646 0.0
C153 C 0.33106 0.3707 0.33847 0.0
O154 O 0.3172 0.3745 0.34066 0.0
O155 O 0.28551 0.33277 0.29763 0.0
C156 C 0.37182 0.03605 0.66322 0.0
O157 O 0.35668 0.02122 0.65027 0.0
O158 O 0.32257 0.02246 0.6781 0.0
Zn159 Zn 0.34568 0.05014 0.67591 0.0
O160 O 0.34678 0.0656 0.71105 0.0
C161 C 0.35648 0.0799 0.63451 0.0
O162 O 0.3725 0.08938 0.64965 0.0
O163 O 0.37038 0.04983 0.67476 0.0
C164 C 0.34097 0.0776 0.71282 0.0
O165 O 0.33339 0.08043 0.69048 0.0
C166 C 0.30578 0.01963 0.68189 0.0
O167 O 0.30381 0.0349 0.68434 0.0
O168 O 0.34318 0.06282 0.64157 0.0
C169 C 0.9942 0.28458 0.67058 0.0
O170 O 0.97922 0.26742 0.66254 0.0
O171 O 0.96875 0.32196 0.67719 0.0
Zn172 Zn 0.96511 0.2951 0.67886 0.0
O173 O 0.95003 0.27946 0.64413 0.0
C174 C 0.95114 0.26913 0.72703 0.0
O175 O 0.96381 0.26455 0.71884 0.0
O176 O 0.99156 0.29831 0.67883 0.0
C177 C 0.93853 0.2609 0.64371 0.0
O178 O 0.93634 0.25118 0.66666 0.0
C179 C 0.95428 0.32386 0.67441 0.0
O180 O 0.93682 0.30802 0.67289 0.0
O181 O 0.94971 0.28185 0.71367 0.0
C182 C 0.69869 0.70097 0.68926 0.0
O183 O 0.68485 0.68576 0.70232 0.0
O184 O 0.68736 0.65025 0.67443 0.0
Zn185 Zn 0.7138 0.6753 0.67544 0.0
O186 O 0.72897 0.67612 0.64091 0.0
C187 C 0.73278 0.66253 0.71174 0.0
O188 O 0.72668 0.64856 0.69196 0.0
O189 O 0.71193 0.69959 0.67691 0.0
C190 C 0.72587 0.66069 0.62732 0.0
O191 O 0.71173 0.6434 0.63515 0.0
C192 C 0.67293 0.64783 0.66044 0.0
O193 O 0.67478 0.66231 0.64561 0.0
O194 O 0.7287 0.67578 0.70965 0.0
C195 C 0.30342 0.30513 0.68407 0.0
O196 O 0.31803 0.31882 0.69936 0.0
O197 O 0.3535 0.31757 0.67155 0.0
Zn198 Zn 0.32918 0.29056 0.67209 0.0
O199 O 0.32979 0.27496 0.63837 0.0
C200 C 0.34139 0.27134 0.70826 0.0
O201 O 0.35346 0.27512 0.6873 0.0
O202 O 0.30504 0.29191 0.67094 0.0
C203 C 0.31505 0.25888 0.62959 0.0
O204 O 0.2984 0.2523 0.64229 0.0
C205 C 0.35541 0.33174 0.65745 0.0
O206 O 0.3407 0.32937 0.64264 0.0
O207 O 0.32931 0.27684 0.70687 0.0
C208 C 0.66709 0.03983 0.65952 0.0
O209 O 0.66708 0.02615 0.64327 0.0
O210 O 0.70003 0.02323 0.66772 0.0
Zn211 Zn 0.70693 0.05155 0.67074 0.0
O212 O 0.72248 0.0642 0.70646 0.0
C213 C 0.73979 0.06951 0.63438 0.0
O214 O 0.74675 0.06347 0.65379 0.0
O215 O 0.68251 0.05234 0.67278 0.0
C216 C 0.73467 0.08254 0.70999 0.0
O217 O 0.73742 0.09444 0.68956 0.0
C218 C 0.7102 0.01762 0.67966 0.0
O219 O 0.7256 0.03051 0.69441 0.0
O220 O 0.7227 0.06607 0.637 0.0
C221 C 0.94875 0.62414 0.67425 0.0
O222 O 0.93174 0.62173 0.67957 0.0
O223 O 0.98758 0.68925 0.67157 0.0
Zn224 Zn 0.96044 0.66515 0.67152 0.0
O225 O 0.94688 0.66462 0.70785 0.0
C226 C 0.94705 0.68 0.62789 0.0
O227 O 0.96029 0.6971 0.63915 0.0
O228 O 0.96298 0.64131 0.66964 0.0
C229 C 0.9336 0.66853 0.70954 0.0
O230 O 0.92837 0.67362 0.68682 0.0
C231 C 0.99251 0.70587 0.68313 0.0
O232 O 0.97939 0.70824 0.69583 0.0
O233 O 0.94474 0.66434 0.6379 0.0
H234 H 0.15198 0.32936 0.13393 0.0
H235 H 0.14649 0.33624 0.04517 0.0
H236 H 0.12684 0.36195 0.10782 0.0
H237 H 0.15156 0.30581 0.09331 0.0
H238 H 0.15758 0.31527 0.05864 0.0
H239 H 0.17561 0.3205 0.13251 0.0
H240 H 0.23531 0.3555 0.10913 0.0
H241 H 0.19086 0.341 0.04757 0.0
C242 C 0.14818 0.33564 0.11717 0.0
C243 C 0.13979 0.34672 0.12408 0.0
C244 C 0.15125 0.3323 0.08874 0.0
C245 C 0.145 0.33948 0.06715 0.0
C246 C 0.13628 0.35033 0.07392 0.0
C247 C 0.13422 0.35425 0.10241 0.0
C248 C 0.15959 0.31965 0.08152 0.0
C249 C 0.18081 0.33006 0.08938 0.0
C250 C 0.18649 0.32893 0.11695 0.0
C251 C 0.20616 0.33843 0.12439 0.0
C252 C 0.22011 0.34895 0.10393 0.0
C253 C 0.21478 0.34983 0.07621 0.0
C254 C 0.19508 0.34048 0.06903 0.0
H255 H 0.69449 0.83594 0.12944 0.0
H256 H 0.67609 0.8164 0.04306 0.0
H257 H 0.66104 0.77424 0.10744 0.0
H258 H 0.70989 0.85856 0.08876 0.0
H259 H 0.69969 0.85078 0.05398 0.0
H260 H 0.68871 0.86123 0.1281 0.0
H261 H 0.65541 0.88471 0.0988 0.0
H262 H 0.67799 0.86042 0.03878 0.0
C263 C 0.68649 0.82417 0.11382 0.0
C264 C 0.67718 0.80456 0.12201 0.0
C265 C 0.68568 0.82862 0.08549 0.0
C266 C 0.67617 0.81315 0.06508 0.0
C267 C 0.66714 0.7935 0.07303 0.0
C268 C 0.66743 0.78941 0.1015 0.0
C269 C 0.696 0.84979 0.07681 0.0
C270 C 0.68393 0.85882 0.08284 0.0
C271 C 0.68173 0.8638 0.11089 0.0
C272 C 0.67151 0.87319 0.1167 0.0
C273 C 0.66311 0.87721 0.09435 0.0
C274 C 0.66543 0.87278 0.06626 0.0
C275 C 0.67585 0.86355 0.06051 0.0
H276 H 0.16757 0.80461 0.12548 0.0
H277 H 0.16267 0.8047 0.03481 0.0
H278 H 0.11171 0.77436 0.08549 0.0
H279 H 0.19529 0.81226 0.09265 0.0
H280 H 0.19366 0.81616 0.05617 0.0
H281 H 0.1928 0.83622 0.12956 0.0
H282 H 0.22808 0.89613 0.1056 0.0
H283 H 0.21004 0.84939 0.04283 0.0
C284 C 0.1588 0.80127 0.10662 0.0
C285 C 0.13861 0.78938 0.10861 0.0
C286 C 0.16767 0.80748 0.0801 0.0
C287 C 0.15602 0.80115 0.05545 0.0
C288 C 0.1358 0.78928 0.05739 0.0
C289 C 0.12729 0.78403 0.08403 0.0
C290 C 0.18949 0.81844 0.07777 0.0
C291 C 0.19896 0.84021 0.08491 0.0
C292 C 0.1995 0.84674 0.11307 0.0
C293 C 0.20965 0.86688 0.12047 0.0
C294 C 0.21931 0.88062 0.09953 0.0
C295 C 0.21982 0.87446 0.07159 0.0
C296 C 0.20936 0.85422 0.06427 0.0
H297 H 0.37186 0.20541 0.87725 0.0
H298 H 0.37883 0.22449 0.96491 0.0
H299 H 0.35071 0.24186 0.90676 0.0
H300 H 0.39887 0.20859 0.9104 0.0
H301 H 0.39568 0.2094 0.94759 0.0
H302 H 0.3739 0.17881 0.88067 0.0
H303 H 0.3499 0.12439 0.92299 0.0
H304 H 0.37823 0.17904 0.97132 0.0
C305 C 0.36901 0.21265 0.89461 0.0
C306 C 0.35952 0.22267 0.88909 0.0
C307 C 0.37558 0.21273 0.92208 0.0
C308 C 0.37301 0.22353 0.944 0.0
C309 C 0.3639 0.23397 0.93863 0.0
C310 C 0.35684 0.23303 0.91132 0.0
C311 C 0.38769 0.20377 0.92711 0.0
C312 C 0.37587 0.18148 0.92628 0.0
C313 C 0.36999 0.17096 0.90013 0.0
C314 C 0.3606 0.15037 0.89879 0.0
C315 C 0.35677 0.14027 0.92395 0.0
C316 C 0.36336 0.15045 0.95007 0.0
C317 C 0.37269 0.17108 0.95124 0.0
H318 H 0.8586 0.17634 0.88995 0.0
H319 H 0.85902 0.19393 0.97725 0.0
H320 H 0.88725 0.23756 0.91451 0.0
H321 H 0.85156 0.1534 0.9302 0.0
H322 H 0.84749 0.15995 0.96487 0.0
H323 H 0.82816 0.14955 0.88964 0.0
H324 H 0.76914 0.12084 0.91629 0.0
H325 H 0.81481 0.14739 0.97844 0.0
C326 C 0.86207 0.1877 0.90603 0.0
C327 C 0.87285 0.20751 0.89866 0.0
C328 C 0.85631 0.18257 0.93417 0.0
C329 C 0.86236 0.19761 0.95526 0.0
C330 C 0.87341 0.21745 0.94806 0.0
C331 C 0.87809 0.22222 0.91976 0.0
C332 C 0.84546 0.16118 0.94199 0.0
C333 C 0.82411 0.15086 0.93479 0.0
C334 C 0.81779 0.14592 0.90639 0.0
C335 C 0.79799 0.13505 0.89963 0.0
C336 C 0.78448 0.1295 0.92137 0.0
C337 C 0.79041 0.13378 0.94971 0.0
C338 C 0.81024 0.14451 0.95646 0.0
H339 H 0.83614 0.639 0.87607 0.0
H340 H 0.83983 0.63871 0.96675 0.0
H341 H 0.89153 0.66526 0.91721 0.0
H342 H 0.80799 0.61521 0.90597 0.0
H343 H 0.80906 0.61893 0.94342 0.0
H344 H 0.80945 0.64187 0.87489 0.0
H345 H 0.77612 0.66505 0.90934 0.0
H346 H 0.79578 0.63696 0.96354 0.0
C347 C 0.84475 0.64373 0.8953 0.0
C348 C 0.86496 0.65318 0.89349 0.0
C349 C 0.83554 0.63896 0.92173 0.0
C350 C 0.84681 0.64337 0.94646 0.0
C351 C 0.86703 0.65286 0.94486 0.0
C352 C 0.87595 0.65827 0.91846 0.0
C353 C 0.8137 0.62678 0.92319 0.0
C354 C 0.80465 0.63901 0.91989 0.0
C355 C 0.80335 0.64525 0.893 0.0
C356 C 0.79332 0.65493 0.88906 0.0
C357 C 0.78482 0.65861 0.91247 0.0
C358 C 0.78551 0.65208 0.93929 0.0
C359 C 0.79562 0.64246 0.94299 0.0
H360 H 0.81528 0.65463 0.46413 0.0
H361 H 0.81706 0.66956 0.37701 0.0
H362 H 0.78971 0.68714 0.43933 0.0
H363 H 0.82184 0.63705 0.42415 0.0
H364 H 0.82652 0.64664 0.38948 0.0
H365 H 0.84539 0.65756 0.4646 0.0
H366 H 0.90453 0.69334 0.43934 0.0
H367 H 0.85919 0.67037 0.37667 0.0
C368 C 0.81239 0.66204 0.44798 0.0
C369 C 0.80248 0.67159 0.45517 0.0
C370 C 0.81825 0.66173 0.41996 0.0
C371 C 0.81333 0.67041 0.39884 0.0
C372 C 0.80315 0.67975 0.4058 0.0
C373 C 0.7982 0.6806 0.43405 0.0
C374 C 0.82845 0.65092 0.41239 0.0
C375 C 0.84975 0.66323 0.41991 0.0
C376 C 0.8559 0.66506 0.4482 0.0
C377 C 0.87563 0.67628 0.45536 0.0
C378 C 0.88923 0.68548 0.434 0.0
C379 C 0.8835 0.68322 0.4056 0.0
C380 C 0.86369 0.67225 0.39862 0.0
H381 H 0.35753 0.16543 0.464 0.0
H382 H 0.33988 0.14642 0.37725 0.0
H383 H 0.327 0.10391 0.44016 0.0
H384 H 0.3715 0.18898 0.42462 0.0
H385 H 0.36228 0.18113 0.38934 0.0
H386 H 0.34592 0.18608 0.46295 0.0
H387 H 0.31313 0.20983 0.43273 0.0
H388 H 0.34188 0.1919 0.37348 0.0
C389 C 0.35006 0.15373 0.44809 0.0
C390 C 0.34174 0.13408 0.45574 0.0
C391 C 0.3489 0.15833 0.41998 0.0
C392 C 0.34015 0.14305 0.39916 0.0
C393 C 0.33221 0.12344 0.40658 0.0
C394 C 0.33271 0.11908 0.43481 0.0
C395 C 0.35804 0.17956 0.41197 0.0
C396 C 0.34458 0.18705 0.41747 0.0
C397 C 0.34002 0.18965 0.44541 0.0
C398 C 0.32833 0.19745 0.45097 0.0
C399 C 0.32128 0.20281 0.42835 0.0
C400 C 0.32627 0.20112 0.40039 0.0
C401 C 0.33778 0.19303 0.39501 0.0
H402 H 0.83926 0.13688 0.46727 0.0
H403 H 0.82978 0.12501 0.37757 0.0
H404 H 0.78167 0.10592 0.43358 0.0
H405 H 0.8639 0.13564 0.43242 0.0
H406 H 0.8616 0.1386 0.39582 0.0
H407 H 0.86767 0.1629 0.4681 0.0
H408 H 0.90518 0.22077 0.43808 0.0
H409 H 0.87891 0.17132 0.379 0.0
C410 C 0.82973 0.13179 0.4491 0.0
C411 C 0.80973 0.12239 0.45351 0.0
C412 C 0.83729 0.1337 0.42165 0.0
C413 C 0.82432 0.12492 0.39859 0.0
C414 C 0.80423 0.11491 0.40284 0.0
C415 C 0.79716 0.11436 0.43016 0.0
C416 C 0.85881 0.14243 0.41743 0.0
C417 C 0.87075 0.16456 0.42275 0.0
C418 C 0.87391 0.17251 0.45058 0.0
C419 C 0.88578 0.19281 0.4562 0.0
C420 C 0.89502 0.20522 0.43367 0.0
C421 C 0.89284 0.19765 0.40585 0.0
C422 C 0.88045 0.17729 0.4004 0.0
H423 H 0.04518 0.54788 0.20802 0.0
H424 H 0.05112 0.55825 0.29846 0.0
H425 H 0.02344 0.58086 0.24914 0.0
H426 H 0.07049 0.54599 0.23802 0.0
H427 H 0.06754 0.54415 0.27538 0.0
H428 H 0.04399 0.51908 0.20555 0.0
H429 H 0.01746 0.46136 0.23833 0.0
H430 H 0.04898 0.51209 0.29434 0.0
C431 C 0.04199 0.55319 0.22736 0.0
C432 C 0.03308 0.56414 0.22568 0.0
C433 C 0.04806 0.55043 0.25368 0.0
C434 C 0.04553 0.55927 0.27832 0.0
C435 C 0.03657 0.57021 0.27675 0.0
C436 C 0.02995 0.57203 0.25052 0.0
C437 C 0.05945 0.54037 0.25498 0.0
C438 C 0.04674 0.51824 0.25083 0.0
C439 C 0.04008 0.5098 0.22358 0.0
C440 C 0.02913 0.48932 0.21916 0.0
C441 C 0.02498 0.47718 0.2421 0.0
C442 C 0.03241 0.48523 0.26915 0.0
C443 C 0.04301 0.5058 0.27355 0.0
H444 H 0.52869 0.50721 0.22147 0.0
H445 H 0.5304 0.52853 0.30706 0.0
H446 H 0.55635 0.56913 0.24 0.0
H447 H 0.52192 0.4859 0.26397 0.0
H448 H 0.51832 0.494 0.29789 0.0
H449 H 0.49849 0.48171 0.22276 0.0
H450 H 0.43981 0.45618 0.24949 0.0
H451 H 0.4856 0.4816 0.31149 0.0
C452 C 0.53229 0.51919 0.2365 0.0
C453 C 0.54225 0.53853 0.22715 0.0
C454 C 0.52716 0.51531 0.26512 0.0
C455 C 0.53339 0.53122 0.28477 0.0
C456 C 0.54391 0.55066 0.27566 0.0
C457 C 0.54779 0.5541 0.24686 0.0
C458 C 0.51614 0.49432 0.27478 0.0
C459 C 0.49476 0.48411 0.2678 0.0
C460 C 0.48829 0.47884 0.2395 0.0
C461 C 0.46852 0.46881 0.23278 0.0
C462 C 0.45516 0.46413 0.25452 0.0
C463 C 0.46115 0.46845 0.28284 0.0
C464 C 0.48098 0.47853 0.28953 0.0
H465 H 0.50245 0.96741 0.20496 0.0
H466 H 0.50299 0.96172 0.29504 0.0
H467 H 0.55639 0.99134 0.24963 0.0
H468 H 0.4733 0.94209 0.23122 0.0
H469 H 0.47309 0.94309 0.2689 0.0
H470 H 0.47544 0.97057 0.2044 0.0
H471 H 0.44176 0.99209 0.24312 0.0
H472 H 0.46001 0.96044 0.29218 0.0
C473 C 0.51041 0.971 0.22471 0.0
C474 C 0.53067 0.98054 0.22427 0.0
C475 C 0.50029 0.96464 0.25029 0.0
C476 C 0.51068 0.96761 0.27552 0.0
C477 C 0.53094 0.97726 0.27531 0.0
C478 C 0.54077 0.98424 0.24984 0.0
C479 C 0.47843 0.95239 0.25002 0.0
C480 C 0.4696 0.96494 0.24878 0.0
C481 C 0.46896 0.97289 0.22304 0.0
C482 C 0.45914 0.98296 0.22086 0.0
C483 C 0.45028 0.98534 0.24495 0.0
C484 C 0.45043 0.9772 0.27065 0.0
C485 C 0.46027 0.96716 0.27255 0.0
H486 H 0.48108 0.99114 0.80635 0.0
H487 H 0.48143 0.00372 0.7184 0.0
H488 H 0.45562 0.02348 0.78015 0.0
H489 H 0.48622 0.97203 0.76695 0.0
H490 H 0.49056 0.98078 0.73182 0.0
H491 H 0.51068 0.99214 0.80601 0.0
H492 H 0.56944 0.02632 0.7784 0.0
H493 H 0.52304 0.00455 0.71772 0.0
C494 C 0.47802 0.99821 0.78986 0.0
C495 C 0.46839 0.00811 0.79666 0.0
C496 C 0.4833 0.99703 0.76176 0.0
C497 C 0.47817 0.00527 0.74025 0.0
C498 C 0.46831 0.01499 0.74685 0.0
C499 C 0.46391 0.01669 0.77512 0.0
C500 C 0.49293 0.98561 0.75453 0.0
C501 C 0.51436 0.99763 0.76125 0.0
C502 C 0.52096 0.99939 0.78925 0.0
C503 C 0.54083 0.0101 0.7956 0.0
C504 C 0.55408 0.01894 0.77373 0.0
C505 C 0.54787 0.01687 0.74559 0.0
C506 C 0.52794 0.00635 0.73945 0.0
H507 H 0.0062 0.49094 0.80063 0.0
H508 H 0.9918 0.47543 0.71224 0.0
H509 H 0.97113 0.43036 0.77335 0.0
H510 H 0.02514 0.51454 0.76046 0.0
H511 H 0.01435 0.50914 0.72602 0.0
H512 H 0.00892 0.52085 0.80178 0.0
H513 H 0.9747 0.54524 0.78092 0.0
H514 H 0.99111 0.51838 0.71543 0.0
C515 C 0.99844 0.48 0.78391 0.0
C516 C 0.98786 0.46002 0.79043 0.0
C517 C 0.99933 0.48579 0.75586 0.0
C518 C 0.99035 0.47124 0.73408 0.0
C519 C 0.98006 0.45123 0.74043 0.0
C520 C 0.97846 0.44584 0.76862 0.0
C521 C 0.01103 0.50734 0.74898 0.0
C522 C 1.00058 0.5177 0.75778 0.0
C523 C 1.00092 0.52351 0.78629 0.0
C524 C 0.99126 0.53306 0.79489 0.0
C525 C 0.98141 0.53702 0.77464 0.0
C526 C 0.98148 0.53202 0.74599 0.0
C527 C 0.99094 0.52218 0.73759 0.0
H528 H 0.50029 0.47255 0.79288 0.0
H529 H 0.49529 0.46573 0.70198 0.0
H530 H 0.44435 0.44021 0.75308 0.0
H531 H 0.52738 0.47628 0.76183 0.0
H532 H 0.52594 0.47739 0.72447 0.0
H533 H 0.52939 0.50383 0.79358 0.0
H534 H 0.56406 0.56075 0.7581 0.0
H535 H 0.54049 0.50883 0.7041 0.0
C536 C 0.49149 0.46795 0.77382 0.0
C537 C 0.47129 0.45644 0.77597 0.0
C538 C 0.50034 0.47188 0.74707 0.0
C539 C 0.48866 0.46399 0.72252 0.0
C540 C 0.46842 0.45271 0.72463 0.0
C541 C 0.45994 0.44965 0.75131 0.0
C542 C 0.52205 0.48166 0.74494 0.0
C543 C 0.5324 0.50382 0.74816 0.0
C544 C 0.53511 0.51284 0.77523 0.0
C545 C 0.54673 0.53337 0.77898 0.0
C546 C 0.55479 0.5449 0.75524 0.0
C547 C 0.55286 0.53621 0.7283 0.0
C548 C 0.5415 0.51564 0.72475 0.0
H549 H 0.7019 0.86535 0.5451 0.0
H550 H 0.70779 0.88314 0.63324 0.0
H551 H 0.67946 0.90043 0.57528 0.0
H552 H 0.72896 0.86872 0.57895 0.0
H553 H 0.72474 0.86816 0.61599 0.0
H554 H 0.7055 0.83972 0.54687 0.0
H555 H 0.68034 0.78389 0.58552 0.0
H556 H 0.70661 0.83693 0.63751 0.0
C557 C 0.69869 0.87214 0.56266 0.0
C558 C 0.68892 0.88189 0.55737 0.0
C559 C 0.70507 0.87196 0.59015 0.0
C560 C 0.70211 0.88234 0.61229 0.0
C561 C 0.69277 0.8926 0.60711 0.0
C562 C 0.68582 0.8918 0.57977 0.0
C563 C 0.71733 0.86315 0.59503 0.0
C564 C 0.70582 0.84087 0.59259 0.0
C565 C 0.70095 0.83122 0.56575 0.0
C566 C 0.6917 0.81068 0.56306 0.0
C567 C 0.68707 0.79974 0.5875 0.0
C568 C 0.6927 0.80906 0.61432 0.0
C569 C 0.70184 0.82964 0.61686 0.0
H570 H 0.18811 0.85047 0.55683 0.0
H571 H 0.1892 0.86553 0.64551 0.0
H572 H 0.2167 0.91095 0.58499 0.0
H573 H 0.18012 0.82585 0.5953 0.0
H574 H 0.17638 0.83163 0.63071 0.0
H575 H 0.15753 0.8259 0.55577 0.0
H576 H 0.09851 0.79819 0.58166 0.0
H577 H 0.14355 0.81829 0.64431 0.0
C578 C 0.19169 0.86134 0.57373 0.0
C579 C 0.20214 0.88135 0.56746 0.0
C580 C 0.18608 0.85539 0.60169 0.0
C581 C 0.19244 0.86984 0.62373 0.0
C582 C 0.20349 0.8899 0.61765 0.0
C583 C 0.20774 0.89545 0.58953 0.0
C584 C 0.17452 0.83372 0.6081 0.0
C585 C 0.15324 0.82443 0.60099 0.0
C586 C 0.14712 0.82158 0.57257 0.0
C587 C 0.12747 0.81256 0.56549 0.0
C588 C 0.11379 0.80609 0.5871 0.0
C589 C 0.11942 0.80781 0.61546 0.0
C590 C 0.13919 0.81718 0.62242 0.0
H591 H 0.17172 0.30235 0.52771 0.0
H592 H 0.17071 0.29546 0.61766 0.0
H593 H 0.22492 0.3266 0.57444 0.0
H594 H 0.14249 0.27629 0.55224 0.0
H595 H 0.14157 0.27615 0.58987 0.0
H596 H 0.1444 0.30551 0.52729 0.0
H597 H 0.10682 0.3222 0.56581 0.0
H598 H 0.1265 0.2912 0.61352 0.0
C599 C 0.17932 0.30586 0.54777 0.0
C600 C 0.1996 0.31571 0.54817 0.0
C601 C 0.16876 0.29895 0.5729 0.0
C602 C 0.17873 0.30181 0.59853 0.0
C603 C 0.19903 0.31184 0.59915 0.0
C604 C 0.20927 0.31932 0.57411 0.0
C605 C 0.14695 0.28603 0.57162 0.0
C606 C 0.13736 0.29789 0.57092 0.0
C607 C 0.13698 0.30656 0.54575 0.0
C608 C 0.12622 0.31566 0.54384 0.0
C609 C 0.1161 0.31631 0.56763 0.0
C610 C 0.11601 0.30745 0.59275 0.0
C611 C 0.12688 0.29848 0.5944 0.0
H612 H 0.97635 0.4158 0.06733 0.0
H613 H 0.05398 0.49689 0.17574 0.0
H614 H 0.03493 0.42888 0.07391 0.0
H615 H 0.99379 0.46086 0.19765 0.0
H616 H 0.04701 0.47813 0.13073 0.0
H617 H 0.98248 0.43796 0.1086 0.0
C618 C 0.9905 0.4234 0.07738 0.0
C619 C 0.00513 0.42044 0.06741 0.0
C620 C 0.03531 0.47454 0.14526 0.0
C621 C 0.01229 0.44597 0.11383 0.0
C622 C 0.03922 0.48533 0.17072 0.0
C623 C 0.0244 0.48036 0.19027 0.0
C624 C 0.01641 0.4589 0.13919 0.0
C625 C 0.00556 0.46506 0.18303 0.0
C626 C 0.99395 0.43597 0.10084 0.0
C627 C 0.02321 0.43062 0.08113 0.0
N628 N 1.00207 0.45481 0.158 0.0
N629 N 0.02632 0.44303 0.10356 0.0
H630 H 0.58641 0.60417 0.07694 0.0
H631 H 0.55894 0.52333 0.19256 0.0
H632 H 0.60401 0.56173 0.07112 0.0
H633 H 0.53931 0.5641 0.19403 0.0
H634 H 0.5729 0.53474 0.14585 0.0
H635 H 0.56693 0.58768 0.11787 0.0
C636 C 0.58615 0.59133 0.08424 0.0
C637 C 0.59702 0.58444 0.07073 0.0
C638 C 0.56534 0.54101 0.15626 0.0
C639 C 0.57468 0.56543 0.11781 0.0
C640 C 0.55725 0.53441 0.18281 0.0
C641 C 0.54815 0.54295 0.19728 0.0
C642 C 0.56431 0.55627 0.1442 0.0
C643 C 0.54651 0.55737 0.18379 0.0
C644 C 0.57494 0.58186 0.10761 0.0
C645 C 0.59593 0.56761 0.08099 0.0
N646 N 0.55466 0.56369 0.15817 0.0
N647 N 0.58508 0.55876 0.10409 0.0
H648 H 0.41747 0.02876 0.09696 0.0
H649 H 0.45001 0.96201 0.17038 0.0
H650 H 0.41009 0.97528 0.05898 0.0
H651 H 0.45963 0.01648 0.20795 0.0
H652 H 0.43874 0.96872 0.12716 0.0
H653 H 0.43549 0.02619 0.13599 0.0
C654 C 0.41969 0.01652 0.09677 0.0
C655 C 0.4121 0.00212 0.07479 0.0
C656 C 0.44353 0.97934 0.14472 0.0
C657 C 0.43275 0.99913 0.11931 0.0
C658 C 0.45018 0.97561 0.16936 0.0
C659 C 0.45564 0.98862 0.19298 0.0
C660 C 0.44218 0.99613 0.14369 0.0
C661 C 0.45523 0.00587 0.19044 0.0
C662 C 0.43003 0.0151 0.11901 0.0
C663 C 0.41553 0.98666 0.07556 0.0
N664 N 0.44839 0.00902 0.16638 0.0
N665 N 0.4255 0.98552 0.09751 0.0
H666 H 0.39108 0.97051 0.93775 0.0
H667 H 0.47187 0.03918 0.828 0.0
H668 H 0.42247 0.034 0.94395 0.0
H669 H 0.44754 0.97656 0.83019 0.0
H670 H 0.45483 0.03773 0.8716 0.0
H671 H 0.41196 0.9724 0.89888 0.0
C672 C 0.40234 0.98486 0.93093 0.0
C673 C 0.40494 0.00213 0.94404 0.0
C674 C 0.4534 0.02433 0.8628 0.0
C675 C 0.42896 0.00439 0.89959 0.0
C676 C 0.46315 0.02517 0.83797 0.0
C677 C 0.46104 0.00796 0.82549 0.0
C678 C 0.44122 0.00609 0.87507 0.0
C679 C 0.44964 0.99019 0.83925 0.0
C680 C 0.41434 0.98592 0.90883 0.0
C681 C 0.41988 0.02029 0.93442 0.0
N682 N 0.43995 0.98967 0.86313 0.0
N683 N 0.43124 0.02094 0.9127 0.0
H684 H 0.02354 0.42378 0.93501 0.0
H685 H 0.9571 0.43276 0.82053 0.0
H686 H 0.96124 0.3867 0.93165 0.0
H687 H 0.01908 0.47169 0.82521 0.0
H688 H 0.95821 0.41758 0.8638 0.0
H689 H 0.0222 0.44286 0.89677 0.0
C690 C 0.00958 0.41963 0.92623 0.0
C691 C 0.99247 0.40352 0.93645 0.0
C692 C 0.97156 0.42959 0.85561 0.0
C693 C 0.99085 0.42539 0.89278 0.0
C694 C 0.97091 0.43829 0.83097 0.0
C695 C 0.98803 0.45341 0.81924 0.0
C696 C 0.98949 0.43592 0.86853 0.0
C697 C 0.00554 0.46014 0.83366 0.0
C698 C 0.00883 0.43059 0.90447 0.0
C699 C 0.9748 0.39893 0.92438 0.0
N700 N 0.00586 0.45117 0.85739 0.0
N701 N 0.97447 0.40975 0.90314 0.0
H702 H 0.61759 0.60534 0.91975 0.0
H703 H 0.52488 0.52721 0.82703 0.0
H704 H 0.55982 0.57466 0.95368 0.0
H705 H 0.58337 0.5605 0.79624 0.0
H706 H 0.53673 0.54354 0.87389 0.0
H707 H 0.60465 0.58836 0.87441 0.0
C708 C 0.60214 0.59502 0.91768 0.0
C709 C 0.58978 0.59144 0.94059 0.0
C710 C 0.5469 0.54728 0.85677 0.0
C711 C 0.57476 0.57179 0.88843 0.0
C712 C 0.54016 0.53795 0.83012 0.0
C713 C 0.5531 0.54277 0.80761 0.0
C714 C 0.56671 0.56133 0.86082 0.0
C715 C 0.57277 0.55669 0.81275 0.0
C716 C 0.59473 0.58529 0.8917 0.0
C717 C 0.56987 0.57788 0.93655 0.0
N718 N 0.57892 0.56545 0.8387 0.0
N719 N 0.56295 0.56851 0.91093 0.0
H720 H 0.03417 0.60327 0.94998 0.0
H721 H 0.96226 0.53088 0.82747 0.0
H722 H 0.97461 0.58692 0.9414 0.0
H723 H 0.02335 0.55246 0.82935 0.0
H724 H 0.96562 0.54754 0.87321 0.0
H725 H 0.02963 0.58129 0.90951 0.0
C726 C 0.02012 0.595 0.93968 0.0
C727 C 0.0048 0.59708 0.94892 0.0
C728 C 0.97827 0.54849 0.86377 0.0
C729 C 0.99949 0.57187 0.90272 0.0
C730 C 0.97635 0.53898 0.83767 0.0
C731 C 0.99259 0.54048 0.82446 0.0
C732 C 0.99658 0.55966 0.87677 0.0
C733 C 0.01045 0.55088 0.83883 0.0
C734 C 0.01754 0.58245 0.9166 0.0
C735 C 0.98688 0.58592 0.93486 0.0
N736 N 0.01201 0.56026 0.8641 0.0
N737 N 0.98476 0.57387 0.91241 0.0
H738 H 0.41846 0.43583 0.94233 0.0
H739 H 0.44829 0.41807 0.78757 0.0
H740 H 0.39242 0.37956 0.89739 0.0
H741 H 0.47273 0.47616 0.82597 0.0
H742 H 0.42977 0.40395 0.83008 0.0
H743 H 0.43998 0.45116 0.90208 0.0
C744 C 0.41725 0.42671 0.92403 0.0
C745 C 0.40356 0.40637 0.92319 0.0
C746 C 0.43917 0.41979 0.82943 0.0
C747 C 0.42817 0.42377 0.87734 0.0
C748 C 0.44975 0.42785 0.80513 0.0
C749 C 0.46178 0.4483 0.80319 0.0
C750 C 0.44052 0.43223 0.85216 0.0
C751 C 0.46349 0.46031 0.8267 0.0
C752 C 0.42955 0.43547 0.90113 0.0
C753 C 0.40266 0.39527 0.89902 0.0
N754 N 0.45279 0.45209 0.85025 0.0
N755 N 0.41477 0.40411 0.87715 0.0
H756 H 0.6196 0.04423 0.93628 0.0
H757 H 0.53023 0.97931 0.8302 0.0
H758 H 0.58493 0.98075 0.93589 0.0
H759 H 0.56891 0.04212 0.82566 0.0
H760 H 0.54711 0.97989 0.87323 0.0
H761 H 0.59873 0.04396 0.89934 0.0
C762 C 0.60759 0.03021 0.92844 0.0
C763 C 0.60411 0.01247 0.93907 0.0
C764 C 0.55174 0.99358 0.86302 0.0
C765 C 0.58003 0.01207 0.89678 0.0
C766 C 0.54198 0.99328 0.83865 0.0
C767 C 0.54829 0.01068 0.82432 0.0
C768 C 0.56787 0.01142 0.87307 0.0
C769 C 0.56374 0.02834 0.83595 0.0
C770 C 0.59564 0.03007 0.90737 0.0
C771 C 0.58824 0.99478 0.92818 0.0
N772 N 0.5731 0.02824 0.85949 0.0
N773 N 0.57683 0.99502 0.90757 0.0
H774 H 0.60911 0.98944 0.0932 0.0
H775 H 0.52578 0.99577 0.17579 0.0
H776 H 0.57383 0.008 0.05391 0.0
H777 H 0.55934 0.97367 0.21065 0.0
H778 H 0.54365 1.00162 0.13137 0.0
H779 H 0.5918 0.9853 0.13721 0.0
C780 C 0.59775 0.99271 0.09383 0.0
C781 C 0.59288 0.99901 0.06976 0.0
C782 C 0.54713 0.99559 0.14885 0.0
C783 C 0.57287 0.99422 0.12024 0.0
C784 C 0.5369 0.99219 0.17413 0.0
C785 C 0.54124 0.98448 0.19712 0.0
C786 C 0.56171 0.99114 0.1466 0.0
C787 C 0.5558 0.9801 0.19381 0.0
C788 C 0.58783 0.99031 0.119 0.0
C789 C 0.57804 0.00307 0.07193 0.0
N790 N 0.56547 0.9835 0.16912 0.0
N791 N 0.56851 1.00055 0.09672 0.0
H792 H 0.01875 0.62765 0.09481 0.0
H793 H 0.01347 0.53979 0.17958 0.0
H794 H 0.98647 0.5671 0.06412 0.0
H795 H 0.04322 0.60051 0.20912 0.0
H796 H 0.00471 0.5492 0.13579 0.0
H797 H 0.02875 0.61766 0.13598 0.0
C798 C 0.01371 0.61222 0.09675 0.0
C799 C 1.0017 0.5982 0.07599 0.0
C800 C 0.01319 0.56043 0.15188 0.0
C801 C 0.0132 0.58658 0.12323 0.0
C802 C 0.01826 0.55508 0.17672 0.0
C803 C 0.02881 0.56935 0.19809 0.0
C804 C 0.0189 0.58019 0.14847 0.0
C805 C 0.03472 0.58897 0.19341 0.0
C806 C 0.01947 0.6065 0.12029 0.0
C807 C 0.9957 0.57841 0.07966 0.0
N808 N 0.02962 0.59377 0.16923 0.0
N809 N 1.00151 0.57317 0.10286 0.0
H810 H 0.39648 0.40099 0.09065 0.0
H811 H 0.48156 0.48926 0.18372 0.0
H812 H 0.43904 0.45637 0.05539 0.0
H813 H 0.4394 0.43238 0.21515 0.0
H814 H 0.46751 0.47758 0.13605 0.0
H815 H 0.413 0.41244 0.13613 0.0
C816 C 0.40932 0.4156 0.09247 0.0
C817 C 0.41632 0.42777 0.06917 0.0
C818 C 0.46141 0.46768 0.1534 0.0
C819 C 0.43544 0.44105 0.12145 0.0
C820 C 0.46947 0.4743 0.18052 0.0
C821 C 0.46142 0.46186 0.20342 0.0
C822 C 0.4453 0.44848 0.14932 0.0
C823 C 0.44577 0.44261 0.1982 0.0
C824 C 0.41881 0.42213 0.1185 0.0
C825 C 0.43311 0.44652 0.07283 0.0
N826 N 0.43819 0.43658 0.17179 0.0
N827 N 0.44209 0.45263 0.09854 0.0
H828 H 0.66525 0.76947 0.38703 0.0
H829 H 0.69998 0.78267 0.5483 0.0
H830 H 0.6896 0.73841 0.42388 0.0
H831 H 0.67778 0.8163 0.51365 0.0
H832 H 0.69544 0.76599 0.50256 0.0
H833 H 0.66891 0.78645 0.43284 0.0
C834 C 0.67133 0.76619 0.40472 0.0
C835 C 0.67715 0.7525 0.40159 0.0
C836 C 0.69148 0.77696 0.50484 0.0
C837 C 0.68137 0.77186 0.45392 0.0
C838 C 0.69394 0.78641 0.53108 0.0
C839 C 0.68897 0.8007 0.53492 0.0
C840 C 0.68404 0.78181 0.48203 0.0
C841 C 0.68176 0.80534 0.51157 0.0
C842 C 0.67343 0.77591 0.43083 0.0
C843 C 0.68493 0.74885 0.42523 0.0
N844 N 0.67944 0.79586 0.48607 0.0
N845 N 0.68681 0.75846 0.45031 0.0
H846 H 0.24456 0.95392 0.42203 0.0
H847 H 0.21935 0.86859 0.52961 0.0
H848 H 0.26838 0.91672 0.41571 0.0
H849 H 0.20013 0.90951 0.53951 0.0
H850 H 0.23414 0.88325 0.48456 0.0
H851 H 0.22545 0.93546 0.46231 0.0
C852 C 0.24577 0.94185 0.42908 0.0
C853 C 0.25821 0.93696 0.41558 0.0
C854 C 0.22653 0.88889 0.49646 0.0
C855 C 0.23627 0.91568 0.46171 0.0
C856 C 0.21794 0.88041 0.52203 0.0
C857 C 0.20864 0.88796 0.53836 0.0
C858 C 0.22574 0.90498 0.4872 0.0
C859 C 0.2074 0.90344 0.52771 0.0
C860 C 0.23482 0.93128 0.45208 0.0
C861 C 0.25908 0.9211 0.42559 0.0
N862 N 0.21596 0.91152 0.50293 0.0
N863 N 0.24831 0.91106 0.44811 0.0
H864 H 0.08342 0.31076 0.37606 0.0
H865 H 0.12493 0.34853 0.5332 0.0
H866 H 0.08016 0.35657 0.42198 0.0
H867 H 0.11961 0.29688 0.49183 0.0
H868 H 0.11351 0.35514 0.48982 0.0
H869 H 0.10122 0.30876 0.41567 0.0
C870 C 0.0865 0.32046 0.39444 0.0
C871 C 0.08011 0.33373 0.39579 0.0
C872 C 0.11507 0.3425 0.49014 0.0
C873 C 0.10061 0.33154 0.44126 0.0
C874 C 0.12161 0.33873 0.51487 0.0
C875 C 0.12304 0.322 0.51629 0.0
C876 C 0.10994 0.32947 0.46659 0.0
C877 C 0.11886 0.31001 0.49174 0.0
C878 C 0.0967 0.31932 0.41705 0.0
C879 C 0.08467 0.34601 0.4201 0.0
N880 N 0.1123 0.31386 0.46802 0.0
N881 N 0.09456 0.34456 0.44193 0.0
H882 H 0.06779 0.32422 0.26815 0.0
H883 H 0.14868 0.38051 0.15329 0.0
H884 H 0.11078 0.38627 0.27671 0.0
H885 H 0.11851 0.31759 0.16093 0.0
H886 H 0.13505 0.38315 0.19842 0.0
H887 H 0.08567 0.3215 0.22817 0.0
C888 C 0.08098 0.33728 0.2616 0.0
C889 C 0.08774 0.35554 0.27565 0.0
C890 C 0.13165 0.36879 0.19049 0.0
C891 C 0.10825 0.35251 0.22997 0.0
C892 C 0.13946 0.36731 0.16482 0.0
C893 C 0.13469 0.34882 0.15352 0.0
C894 C 0.11868 0.35162 0.20464 0.0
C895 C 0.12263 0.33212 0.16911 0.0
C896 C 0.09125 0.33568 0.23892 0.0
C897 C 0.10502 0.37192 0.26644 0.0
N898 N 0.11479 0.33388 0.19371 0.0
N899 N 0.11458 0.37006 0.24401 0.0
H900 H 0.71985 0.78356 0.27538 0.0
H901 H 0.64829 0.77681 0.15425 0.0
H902 H 0.66067 0.73553 0.26419 0.0
H903 H 0.70944 0.82026 0.15619 0.0
H904 H 0.65175 0.76455 0.19892 0.0
H905 H 0.71559 0.79981 0.23564 0.0
C906 C 0.70595 0.77645 0.26463 0.0
C907 C 0.69064 0.75807 0.27299 0.0
C908 C 0.66441 0.77688 0.18976 0.0
C909 C 0.68565 0.77666 0.22769 0.0
C910 C 0.66243 0.78391 0.16428 0.0
C911 C 0.67864 0.79942 0.15134 0.0
C912 C 0.68277 0.78538 0.20245 0.0
C913 C 0.69656 0.80829 0.16548 0.0
C914 C 0.70354 0.78575 0.24198 0.0
C915 C 0.67294 0.7496 0.25836 0.0
N916 N 0.69819 0.801 0.19015 0.0
N917 N 0.67095 0.75894 0.23643 0.0
H918 H 0.27433 0.91374 0.27269 0.0
H919 H 0.20392 0.89452 0.14657 0.0
H920 H 0.23017 0.92801 0.28267 0.0
H921 H 0.22411 0.85535 0.16185 0.0
H922 H 0.21488 0.90926 0.19438 0.0
H923 H 0.25818 0.89476 0.22929 0.0
C924 C 0.26123 0.91287 0.26572 0.0
C925 C 0.25357 0.92247 0.28118 0.0
C926 C 0.21656 0.89719 0.18739 0.0
C927 C 0.2352 0.90099 0.23154 0.0
C928 C 0.21033 0.88882 0.16023 0.0
C929 C 0.21306 0.87368 0.15047 0.0
C930 C 0.22604 0.89071 0.2044 0.0
C931 C 0.22157 0.86686 0.16877 0.0
C932 C 0.25196 0.90193 0.24111 0.0
C933 C 0.23649 0.92076 0.27134 0.0
N934 N 0.22807 0.87565 0.19471 0.0
N935 N 0.22798 0.91042 0.24686 0.0
H936 H 0.67137 0.94409 0.25766 0.0
H937 H 0.66184 0.85306 0.16612 0.0
H938 H 0.64677 0.8861 0.29083 0.0
H939 H 0.67959 0.90969 0.13302 0.0
H940 H 0.65866 0.86517 0.21314 0.0
H941 H 0.67661 0.93193 0.21277 0.0
C942 C 0.66704 0.92876 0.25551 0.0
C943 C 0.65853 0.91608 0.27804 0.0
C944 C 0.66328 0.87492 0.19555 0.0
C945 C 0.66457 0.902 0.2265 0.0
C946 C 0.66519 0.86805 0.16884 0.0
C947 C 0.67073 0.88033 0.14568 0.0
C948 C 0.66715 0.89422 0.19901 0.0
C949 C 0.67492 0.89963 0.15023 0.0
C950 C 0.67005 0.92181 0.22982 0.0
C951 C 0.65329 0.89637 0.27397 0.0
N952 N 0.67299 0.90593 0.17629 0.0
N953 N 0.65639 0.88991 0.24866 0.0
H954 H 0.08669 0.766 0.27502 0.0
H955 H 0.11373 0.75061 0.11727 0.0
H956 H 0.06309 0.70946 0.23157 0.0
H957 H 0.14191 0.80739 0.16078 0.0
H958 H 0.0957 0.73551 0.15987 0.0
H959 H 0.10735 0.78169 0.23426 0.0
C960 C 0.08583 0.75688 0.25693 0.0
C961 C 0.07306 0.73637 0.25668 0.0
C962 C 0.10585 0.75126 0.1603 0.0
C963 C 0.0967 0.75423 0.21008 0.0
C964 C 0.11612 0.75989 0.13593 0.0
C965 C 0.12912 0.78029 0.13546 0.0
C966 C 0.10847 0.76309 0.18451 0.0
C967 C 0.13196 0.7916 0.16034 0.0
C968 C 0.09768 0.76586 0.23372 0.0
C969 C 0.07264 0.72531 0.23273 0.0
N970 N 0.12155 0.78286 0.18387 0.0
N971 N 0.08423 0.73438 0.21043 0.0
H972 H 0.23247 0.29237 0.26882 0.0
H973 H 0.2351 0.36714 0.15795 0.0
H974 H 0.28 0.3523 0.26116 0.0
H975 H 0.19219 0.30498 0.15476 0.0
H976 H 0.24912 0.36271 0.20027 0.0
H977 H 0.21533 0.29734 0.2309 0.0
C978 C 0.23931 0.30657 0.25919 0.0
C979 C 0.25777 0.32191 0.26807 0.0
C980 C 0.23655 0.35004 0.19049 0.0
C981 C 0.23815 0.32773 0.22489 0.0
C982 C 0.22851 0.35257 0.16636 0.0
C983 C 0.21259 0.33637 0.15263 0.0
C984 C 0.22863 0.33115 0.20107 0.0
C985 C 0.20443 0.31788 0.16472 0.0
C986 C 0.2295 0.30939 0.23758 0.0
C987 C 0.26587 0.34001 0.25489 0.0
N988 N 0.21267 0.31573 0.18812 0.0
N989 N 0.25602 0.3424 0.23399 0.0
H990 H 0.24695 0.34767 0.37893 0.0
H991 H 0.22784 0.30805 0.53608 0.0
H992 H 0.27604 0.32202 0.41798 0.0
H993 H 0.19614 0.33162 0.4993 0.0
H994 H 0.24614 0.31424 0.49286 0.0
H995 H 0.22875 0.34308 0.4226 0.0
C996 C 0.24957 0.34114 0.39668 0.0
C997 C 0.26303 0.33518 0.39477 0.0
C998 C 0.23526 0.31818 0.49413 0.0
C999 C 0.24226 0.32989 0.44462 0.0
C1000 C 0.22488 0.31479 0.51897 0.0
C1001 C 0.21065 0.31965 0.52152 0.0
C1002 C 0.2314 0.32642 0.47135 0.0
C1003 C 0.20703 0.32772 0.49822 0.0
C1004 C 0.23915 0.33851 0.42155 0.0
C1005 C 0.26581 0.3268 0.4184 0.0
N1006 N 0.2174 0.33092 0.47406 0.0
N1007 N 0.25551 0.3244 0.44225 0.0
H1008 H 0.70204 0.92712 0.39105 0.0
H1009 H 0.65551 0.87832 0.53823 0.0
H1010 H 0.648 0.91823 0.42235 0.0
H1011 H 0.7116 0.89124 0.51029 0.0
H1012 H 0.65029 0.88822 0.49254 0.0
H1013 H 0.70373 0.90984 0.43144 0.0
C1014 C 0.69047 0.92145 0.40633 0.0
C1015 C 0.67495 0.92432 0.40347 0.0
C1016 C 0.66364 0.88865 0.49624 0.0
C1017 C 0.67679 0.90448 0.44973 0.0
C1018 C 0.6666 0.88297 0.52229 0.0
C1019 C 0.68409 0.88414 0.52815 0.0
C1020 C 0.67831 0.89567 0.47591 0.0
C1021 C 0.69788 0.89003 0.50663 0.0
C1022 C 0.69144 0.91156 0.42938 0.0
C1023 C 0.66032 0.91653 0.42383 0.0
N1024 N 0.69479 0.89581 0.48159 0.0
N1025 N 0.66167 0.90708 0.44618 0.0
H1026 H 0.05979 0.78336 0.41155 0.0
H1027 H 0.13901 0.79639 0.52397 0.0
H1028 H 0.08853 0.75074 0.407 0.0
H1029 H 0.10047 0.81752 0.53936 0.0
H1030 H 0.12481 0.78467 0.47673 0.0
H1031 H 0.07842 0.80061 0.4545 0.0
C1032 C 0.07009 0.77991 0.41948 0.0
C1033 C 0.07249 0.76547 0.40582 0.0
C1034 C 0.11959 0.79204 0.49034 0.0
C1035 C 0.09389 0.78521 0.45476 0.0
C1036 C 0.12781 0.7989 0.51719 0.0
C1037 C 0.12083 0.80786 0.53562 0.0
C1038 C 0.10432 0.79422 0.48182 0.0
C1039 C 0.1061 0.81049 0.52588 0.0
C1040 C 0.08069 0.78974 0.44399 0.0
C1041 C 0.08608 0.76163 0.41699 0.0
N1042 N 0.09825 0.8036 0.49968 0.0
N1043 N 0.09623 0.77141 0.44083 0.0
H1044 H 0.33161 0.10556 0.72447 0.0
H1045 H 0.36808 0.12162 0.88518 0.0
H1046 H 0.35516 0.07426 0.76291 0.0
H1047 H 0.34567 0.15475 0.84942 0.0
H1048 H 0.36257 0.1038 0.84025 0.0
H1049 H 0.33586 0.12345 0.76964 0.0
C1050 C 0.33764 0.10242 0.74237 0.0
C1051 C 0.34306 0.0884 0.73988 0.0
C1052 C 0.35875 0.11489 0.84212 0.0
C1053 C 0.34795 0.10878 0.79147 0.0
C1054 C 0.36175 0.12499 0.86792 0.0
C1055 C 0.35705 0.13951 0.87122 0.0
C1056 C 0.35105 0.11933 0.81918 0.0
C1057 C 0.34947 0.14365 0.84777 0.0
C1058 C 0.34007 0.11265 0.76812 0.0
C1059 C 0.35079 0.08494 0.76377 0.0
N1060 N 0.34666 0.13356 0.82269 0.0
N1061 N 0.353 0.09505 0.78847 0.0
H1062 H 0.92414 0.27587 0.7507 0.0
H1063 H 0.89077 0.19305 0.86567 0.0
H1064 H 0.94784 0.23878 0.75692 0.0
H1065 H 0.87323 0.23549 0.86652 0.0
H1066 H 0.90815 0.20648 0.82166 0.0
H1067 H 0.90243 0.25862 0.78964 0.0
C1068 C 0.92479 0.2641 0.76024 0.0
C1069 C 0.93794 0.25887 0.75066 0.0
C1070 C 0.90033 0.21272 0.83131 0.0
C1071 C 0.913 0.23895 0.79513 0.0
C1072 C 0.89024 0.20492 0.85626 0.0
C1073 C 0.88064 0.21325 0.86981 0.0
C1074 C 0.90078 0.22894 0.81983 0.0
C1075 C 0.88064 0.2288 0.8569 0.0
C1076 C 0.91235 0.25423 0.78244 0.0
C1077 C 0.93803 0.24341 0.76374 0.0
N1078 N 0.89068 0.23623 0.83274 0.0
N1079 N 0.92578 0.23403 0.78534 0.0
H1080 H 0.7434 0.63609 0.72259 0.0
H1081 H 0.79367 0.68746 0.87134 0.0
H1082 H 0.74844 0.68956 0.75611 0.0
H1083 H 0.783 0.63092 0.84143 0.0
H1084 H 0.78127 0.69082 0.82637 0.0
H1085 H 0.76159 0.63613 0.76333 0.0
C1086 C 0.74837 0.64788 0.73848 0.0
C1087 C 0.74423 0.66276 0.73603 0.0
C1088 C 0.78186 0.67778 0.82953 0.0
C1089 C 0.76516 0.66292 0.78277 0.0
C1090 C 0.78895 0.67587 0.85517 0.0
C1091 C 0.78923 0.65881 0.86028 0.0
C1092 C 0.77495 0.66251 0.80882 0.0
C1093 C 0.78319 0.64439 0.83842 0.0
C1094 C 0.75879 0.64791 0.76173 0.0
C1095 C 0.75117 0.67772 0.75722 0.0
N1096 N 0.77612 0.64648 0.81378 0.0
N1097 N 0.76122 0.67737 0.77976 0.0
H1098 H 0.7257 0.63071 0.59712 0.0
H1099 H 0.80518 0.70189 0.48759 0.0
H1100 H 0.75501 0.69409 0.60357 0.0
H1101 H 0.78186 0.63938 0.48768 0.0
H1102 H 0.78803 0.69947 0.53144 0.0
H1103 H 0.74672 0.63357 0.55788 0.0
C1104 C 0.73655 0.64523 0.5903 0.0
C1105 C 0.7385 0.66219 0.60356 0.0
C1106 C 0.78683 0.6863 0.5221 0.0
C1107 C 0.76267 0.66555 0.55869 0.0
C1108 C 0.79664 0.68769 0.49711 0.0
C1109 C 0.79485 0.6708 0.48398 0.0
C1110 C 0.77494 0.66783 0.53391 0.0
C1111 C 0.7837 0.65278 0.49724 0.0
C1112 C 0.74861 0.64685 0.56797 0.0
C1113 C 0.75292 0.68061 0.59392 0.0
N1114 N 0.77397 0.65172 0.52131 0.0
N1115 N 0.76436 0.68179 0.57199 0.0
H1116 H 0.32393 0.06571 0.60182 0.0
H1117 H 0.37357 0.15168 0.49104 0.0
H1118 H 0.38266 0.11502 0.61099 0.0
H1119 H 0.3137 0.10444 0.4868 0.0
H1120 H 0.37684 0.13994 0.53653 0.0
H1121 H 0.31971 0.08067 0.56073 0.0
C1122 C 0.33596 0.0797 0.59521 0.0
C1123 C 0.35373 0.08905 0.6098 0.0
C1124 C 0.36294 0.13226 0.52576 0.0
C1125 C 0.34897 0.10634 0.56262 0.0
C1126 C 0.36103 0.13905 0.49991 0.0
C1127 C 0.34338 0.12891 0.48498 0.0
C1128 C 0.3471 0.11519 0.53671 0.0
C1129 C 0.32767 0.1125 0.49735 0.0
C1130 C 0.33351 0.08829 0.57175 0.0
C1131 C 0.36874 0.10725 0.60032 0.0
N1132 N 0.32994 0.10607 0.52232 0.0
N1133 N 0.36605 0.11525 0.57723 0.0
H1134 H 0.9342 0.27639 0.59581 0.0
H1135 H 0.89206 0.17748 0.50313 0.0
H1136 H 0.91965 0.2213 0.63146 0.0
H1137 H 0.88954 0.22723 0.47648 0.0
H1138 H 0.90227 0.19309 0.55017 0.0
H1139 H 0.91855 0.25878 0.55148 0.0
C1140 C 0.92765 0.26058 0.59434 0.0
C1141 C 0.92832 0.2503 0.61729 0.0
C1142 C 0.89928 0.20048 0.53409 0.0
C1143 C 0.91048 0.23008 0.5666 0.0
C1144 C 0.89331 0.19151 0.50725 0.0
C1145 C 0.89003 0.2011 0.48569 0.0
C1146 C 0.90223 0.21927 0.53935 0.0
C1147 C 0.89227 0.21947 0.49226 0.0
C1148 C 0.91865 0.25052 0.56907 0.0
C1149 C 0.91949 0.2298 0.61427 0.0
N1150 N 0.89842 0.22804 0.5184 0.0
N1151 N 0.91109 0.22037 0.58927 0.0
H1152 H 0.34817 0.26461 0.60523 0.0
H1153 H 0.29444 0.18997 0.47505 0.0
H1154 H 0.28596 0.22769 0.59894 0.0
H1155 H 0.35529 0.21655 0.49308 0.0
H1156 H 0.29067 0.2028 0.52082 0.0
H1157 H 0.35091 0.24678 0.56438 0.0
C1158 C 0.33507 0.25273 0.59527 0.0
C1159 C 0.31679 0.24773 0.60538 0.0
C1160 C 0.30479 0.20558 0.51495 0.0
C1161 C 0.31984 0.22724 0.55852 0.0
C1162 C 0.30694 0.19828 0.48887 0.0
C1163 C 0.32521 0.20228 0.48028 0.0
C1164 C 0.3211 0.21721 0.53238 0.0
C1165 C 0.34093 0.21302 0.49897 0.0
C1166 C 0.33665 0.24247 0.57203 0.0
C1167 C 0.30033 0.23207 0.59178 0.0
N1168 N 0.33856 0.22033 0.52399 0.0
N1169 N 0.30224 0.22249 0.56887 0.0
H1170 H 0.77608 0.07759 0.62128 0.0
H1171 H 0.77933 0.12498 0.47351 0.0
H1172 H 0.73045 0.08506 0.59105 0.0
H1173 H 0.82129 0.11083 0.49935 0.0
H1174 H 0.76339 0.11438 0.51915 0.0
H1175 H 0.79483 0.09348 0.57932 0.0
C1176 C 0.77002 0.08264 0.60588 0.0
C1177 C 0.75158 0.07984 0.6096 0.0
C1178 C 0.7762 0.11377 0.51494 0.0
C1179 C 0.77303 0.09811 0.56148 0.0
C1180 C 0.7853 0.11982 0.48889 0.0
C1181 C 0.80161 0.11869 0.4825 0.0
C1182 C 0.78343 0.10651 0.53478 0.0
C1183 C 0.80887 0.11214 0.50339 0.0
C1184 C 0.78075 0.09173 0.58191 0.0
C1185 C 0.74454 0.08679 0.58898 0.0
N1186 N 0.79964 0.10615 0.52849 0.0
N1187 N 0.75524 0.09552 0.56575 0.0
H1188 H 0.91668 0.64718 0.60155 0.0
H1189 H 0.90186 0.70891 0.48625 0.0
H1190 H 0.94891 0.71067 0.60103 0.0
H1191 H 0.86582 0.64578 0.49015 0.0
H1192 H 0.91759 0.70984 0.5305 0.0
H1193 H 0.89666 0.64623 0.56248 0.0
C1194 C 0.91954 0.66092 0.59326 0.0
C1195 C 0.93461 0.67904 0.60447 0.0
C1196 C 0.90608 0.69578 0.52194 0.0
C1197 C 0.91169 0.67804 0.55983 0.0
C1198 C 0.89708 0.69527 0.49673 0.0
C1199 C 0.88261 0.67724 0.48452 0.0
C1200 C 0.90074 0.6781 0.53493 0.0
C1201 C 0.87686 0.65999 0.49897 0.0
C1202 C 0.90805 0.66036 0.57103 0.0
C1203 C 0.93755 0.69636 0.593 0.0
N1204 N 0.88612 0.66081 0.52326 0.0
N1205 N 0.92627 0.69542 0.57125 0.0
H1206 H 0.94013 0.6574 0.76014 0.0
H1207 H 0.85853 0.66617 0.84395 0.0
H1208 H 0.90453 0.67559 0.7209 0.0
H1209 H 0.89306 0.64548 0.87966 0.0
H1210 H 0.87516 0.67024 0.79873 0.0
H1211 H 0.92329 0.65386 0.80447 0.0
C1212 C 0.92879 0.6607 0.76084 0.0
C1213 C 0.92373 0.66679 0.73672 0.0
C1214 C 0.8791 0.66488 0.81654 0.0
C1215 C 0.90427 0.6627 0.78758 0.0
C1216 C 0.86958 0.66249 0.84228 0.0
C1217 C 0.8746 0.65575 0.86574 0.0
C1218 C 0.89365 0.66038 0.81429 0.0
C1219 C 0.88903 0.65119 0.8624 0.0
C1220 C 0.91913 0.65864 0.7862 0.0
C1221 C 0.90889 0.67084 0.73897 0.0
N1222 N 0.89803 0.65362 0.83726 0.0
N1223 N 0.89966 0.66871 0.76395 0.0
H1224 H 0.31704 0.25886 0.75365 0.0
H1225 H 0.38103 0.22946 0.84102 0.0
H1226 H 0.36737 0.26046 0.71979 0.0
H1227 H 0.32679 0.22095 0.87054 0.0
H1228 H 0.37495 0.23824 0.79504 0.0
H1229 H 0.31936 0.24315 0.79553 0.0
C1230 C 0.32854 0.25585 0.75497 0.0
C1231 C 0.34213 0.26114 0.73327 0.0
C1232 C 0.36425 0.23421 0.81145 0.0
C1233 C 0.34487 0.24315 0.78119 0.0
C1234 C 0.36763 0.229 0.83766 0.0
C1235 C 0.35448 0.22463 0.85978 0.0
C1236 C 0.34766 0.23518 0.80737 0.0
C1237 C 0.33749 0.22457 0.85424 0.0
C1238 C 0.32982 0.24681 0.77886 0.0
C1239 C 0.35664 0.25674 0.73606 0.0
N1240 N 0.33468 0.23 0.82873 0.0
N1241 N 0.35771 0.24815 0.75967 0.0
H1242 H 0.73209 0.0618 0.75619 0.0
H1243 H 0.80869 0.15584 0.85074 0.0
H1244 H 0.76208 0.12083 0.72538 0.0
H1245 H 0.7716 0.09758 0.88206 0.0
H1246 H 0.79475 0.1432 0.80315 0.0
H1247 H 0.74932 0.07461 0.80106 0.0
C1248 C 0.74233 0.07748 0.75883 0.0
C1249 C 0.74552 0.09027 0.73702 0.0
C1250 C 0.78975 0.13322 0.82047 0.0
C1251 C 0.76539 0.1051 0.78857 0.0
C1252 C 0.79774 0.14039 0.84751 0.0
C1253 C 0.79106 0.12777 0.87033 0.0
C1254 C 0.77517 0.11327 0.81635 0.0
C1255 C 0.77689 0.10788 0.86512 0.0
C1256 C 0.75219 0.0848 0.78451 0.0
C1257 C 0.75908 0.11045 0.74168 0.0
N1258 N 0.7694 0.10129 0.83876 0.0
N1259 N 0.76849 0.11727 0.76701 0.0
H1260 H 0.0712 0.39782 0.01634 0.0
H1261 H 0.11123 0.32651 0.03177 0.0
H1262 H 0.04258 0.3386 0.98049 0.0
H1263 H 0.13919 0.38565 0.06752 0.0
H1264 H 0.08947 0.33275 0.00493 0.0
H1265 H 0.09915 0.39556 0.02788 0.0
C1266 C 0.07085 0.38439 0.01063 0.0
C1267 C 0.05437 0.36826 -0.00219 0.0
C1268 C 0.10062 0.34451 0.01819 0.0
C1269 C 0.08638 0.36552 0.01116 0.0
C1270 C 0.11318 0.34101 0.03327 0.0
C1271 C 0.12687 0.35552 0.05212 0.0
C1272 C 0.10176 0.36261 0.0221 0.0
C1273 C 0.12864 0.37398 0.05349 0.0
C1274 C 0.08686 0.38312 0.0172 0.0
C1275 C 0.05488 0.35133 0.99064 0.0
N1276 N 0.11604 0.37689 0.03906 0.0
N1277 N 0.07051 0.35031 -0.00226 0.0
H1278 H 0.6658 0.70292 0.96969 0.0
H1279 H 0.63149 0.75994 0.07249 0.0
H1280 H 0.61778 0.67513 0.02705 0.0
H1281 H 0.6851 0.78903 0.02681 0.0
H1282 H 0.62212 0.72926 0.04633 0.0
H1283 H 0.6693 0.73475 0.98175 0.0
C1284 C 0.65585 0.70346 0.98453 0.0
C1285 C 0.64166 0.68639 -0.00229 0.0
C1286 C 0.63578 0.74241 0.04157 0.0
C1287 C 0.6455 0.72265 0.01141 0.0
C1288 C 0.64104 0.75993 0.05635 0.0
C1289 C 0.65915 0.77692 0.05195 0.0
C1290 C 0.64882 0.7418 0.02248 0.0
C1291 C 0.671 0.77621 0.03078 0.0
C1292 C 0.65786 0.72162 0.9914 0.0
C1293 C 0.62911 0.68795 0.01669 0.0
N1294 N 0.66579 0.75881 0.01716 0.0
N1295 N 0.63142 0.70575 0.0231 0.0
H1296 H 0.3336 0.95377 0.01848 0.0
H1297 H 0.22438 0.9096 0.05752 0.0
H1298 H 0.30409 0.98389 -0.0005 0.0
H1299 H 0.24843 0.87317 0.04309 0.0
H1300 H 0.25277 0.93682 0.03513 0.0
H1301 H 0.30236 0.924 0.02725 0.0
C1302 C 0.32052 0.95407 0.01599 0.0
C1303 C 0.32145 0.97137 0.00846 0.0
C1304 C 0.25163 0.92274 0.03627 0.0
C1305 C 0.28563 0.93738 0.01871 0.0
C1306 C 0.23542 0.90722 0.04894 0.0
C1307 C 0.23409 0.88915 0.0521 0.0
C1308 C 0.2668 0.92029 0.02734 0.0
C1309 C 0.24884 0.88682 0.04085 0.0
C1310 C 0.30269 0.93704 0.02083 0.0
C1311 C 0.30403 0.97088 0.00531 0.0
N1312 N 0.26476 0.90233 0.02946 0.0
N1313 N 0.28684 0.95424 0.01087 0.0
H1314 H 0.33786 0.04863 0.04058 0.0
H1315 H 0.39465 0.15702 0.98021 0.0
H1316 H 0.39773 0.0796 0.01562 0.0
H1317 H 0.33281 0.1179 0.9733 0.0
H1318 H 0.3963 0.13283 0.00847 0.0
H1319 H 0.33649 0.07772 0.03 0.0
C1320 C 0.3508 0.06164 0.03333 0.0
C1321 C 0.36787 0.06162 0.0286 0.0
C1322 C 0.38232 0.12977 0.00141 0.0
C1323 C 0.36644 0.09492 0.01686 0.0
C1324 C 0.38134 0.14368 0.98563 0.0
C1325 C 0.36357 0.13937 0.97436 0.0
C1326 C 0.3654 0.11153 0.00605 0.0
C1327 C 0.34678 0.1217 0.98158 0.0
C1328 C 0.34998 0.0782 0.02728 0.0
C1329 C 0.3842 0.07889 0.01919 0.0
N1330 N 0.34812 0.10829 -0.00334 0.0
N1331 N 0.38306 0.09481 0.0135 0.0
H1332 H 0.97432 0.31689 0.00915 0.0
H1333 H 0.86747 0.24764 0.95826 0.0
H1334 H 0.93233 0.33392 0.02154 0.0
H1335 H 0.9021 0.22455 0.98445 0.0
H1336 H 0.89007 0.27899 0.98297 0.0
H1337 H 0.94788 0.28279 0.00075 0.0
C1338 C 0.95953 0.31341 0.01034 0.0
C1339 C 0.95551 0.32827 0.01582 0.0
C1340 C 0.89243 0.26689 0.98405 0.0
C1341 C 0.92522 0.28935 0.00595 0.0
C1342 C 0.87947 0.249 0.97015 0.0
C1343 C 0.88291 0.23355 0.96966 0.0
C1344 C 0.90921 0.26946 -0.0033 0.0
C1345 C 0.89888 0.2361 0.98473 0.0
C1346 C 0.94445 0.29394 0.00574 0.0
C1347 C 0.93607 0.32292 0.01732 0.0
N1348 N 0.9117 0.25389 -0.00286 0.0
N1349 N 0.92164 0.30394 0.01191 0.0
H1350 H 0.67636 0.61493 0.00915 0.0
H1351 H 0.78377 0.68374 0.95877 0.0
H1352 H 0.70721 0.67817 0.02025 0.0
H1353 H 0.75781 0.62145 0.96908 0.0
H1354 H 0.75733 0.68254 0.98575 0.0
H1355 H 0.70688 0.61713 -0.00162 0.0
C1356 C 0.68959 0.62928 0.0096 0.0
C1357 C 0.68919 0.64642 0.01525 0.0
C1358 C 0.75763 0.66921 0.98272 0.0
C1359 C 0.72422 0.64906 0.00271 0.0
C1360 C 0.77275 0.66992 0.96743 0.0
C1361 C 0.77289 0.65265 0.96163 0.0
C1362 C 0.74233 0.65102 0.99177 0.0
C1363 C 0.75827 0.63511 0.97321 0.0
C1364 C 0.70704 0.63052 0.00357 0.0
C1365 C 0.70682 0.66458 0.01584 0.0
N1366 N 0.74337 0.63465 0.98725 0.0
N1367 N 0.72357 0.66545 0.00918 0.0
H1368 H 0.9362 0.61744 0.01654 0.0
H1369 H 0.90016 0.68511 0.96618 0.0
H1370 H 0.96946 0.68038 0.03167 0.0
H1371 H 0.8616 0.62293 0.9772 0.0
H1372 H 0.9245 0.68438 0.99529 0.0
H1373 H 0.90776 0.61924 0.00656 0.0
C1374 C 0.93745 0.63162 0.01809 0.0
C1375 C 0.95528 0.64881 0.02457 0.0
C1376 C 0.91053 0.67099 0.99205 0.0
C1377 C 0.92281 0.65104 0.01285 0.0
C1378 C 0.89662 0.67145 0.97557 0.0
C1379 C 0.87894 0.65404 0.96921 0.0
C1380 C 0.90686 0.6529 0.00165 0.0
C1381 C 0.87505 0.63668 0.9817 0.0
C1382 C 0.92117 0.63264 0.01253 0.0
C1383 C 0.95602 0.66677 0.02659 0.0
N1384 N 0.88907 0.63645 -0.00322 0.0
N1385 N 0.9401 0.66747 0.02022 0.0
H1386 H 0.34683 0.32609 0.99266 0.0
H1387 H 0.39435 0.26134 0.97162 0.0
H1388 H 0.40554 0.34603 0.01723 0.0
H1389 H 0.33461 0.24016 0.95232 0.0
H1390 H 0.39722 0.29032 0.99573 0.0
H1391 H 0.34079 0.293 0.98397 0.0
C1392 C 0.35842 0.32349 -0.00356 0.0
C1393 C 0.3768 0.33893 0.00533 0.0
C1394 C 0.38337 0.27916 0.98671 0.0
C1395 C 0.37 0.30104 0.99534 0.0
C1396 C 0.38166 0.26248 0.97321 0.0
C1397 C 0.36428 0.24844 0.95961 0.0
C1398 C 0.36762 0.28187 0.98641 0.0
C1399 C 0.34838 0.25082 0.96211 0.0
C1400 C 0.35494 0.30456 0.99155 0.0
C1401 C 0.3912 0.33463 0.01012 0.0
N1402 N 0.35051 0.26737 0.97477 0.0
N1403 N 0.38756 0.31615 0.00477 0.0
H1404 H 0.69343 0.0319 0.00581 0.0
H1405 H 0.76204 0.14101 0.96353 0.0
H1406 H 0.67806 0.0754 0.02247 0.0
H1407 H 0.7838 0.10378 0.98259 0.0
H1408 H 0.7318 0.11833 0.98747 0.0
H1409 H 0.72691 0.05834 -0.00146 0.0
C1410 C 0.69714 0.04703 0.00814 0.0
C1411 C 0.68291 0.05146 0.01449 0.0
C1412 C 0.74339 0.1154 0.98719 0.0
C1413 C 0.72118 0.08181 0.00598 0.0
C1414 C 0.76066 0.12842 0.97375 0.0
C1415 C 0.77538 0.12427 0.97141 0.0
C1416 C 0.74067 0.09786 -0.00247 0.0
C1417 C 0.77283 0.10756 0.98433 0.0
C1418 C 0.71628 0.06212 0.00419 0.0
C1419 C 0.68857 0.07133 0.01751 0.0
N1420 N 0.75561 0.09471 -0.00368 0.0
N1421 N 0.70721 0.08579 0.01275 0.0
H1422 H 0.67027 0.96302 0.9702 0.0
H1423 H 0.62919 0.86586 0.0581 0.0
H1424 H 0.61557 0.93447 0.01344 0.0
H1425 H 0.68688 0.89772 0.02457 0.0
H1426 H 0.62099 0.88611 0.03122 0.0
H1427 H 0.67375 0.93519 0.98022 0.0
C1428 C 0.65885 0.95079 0.98146 0.0
C1429 C 0.64274 0.95125 0.9914 0.0
C1430 C 0.63533 0.88843 0.02919 0.0
C1431 C 0.64664 0.91933 0.00288 0.0
C1432 C 0.63994 0.87675 0.04433 0.0
C1433 C 0.65876 0.88027 0.04367 0.0
C1434 C 0.64973 0.90391 0.01354 0.0
C1435 C 0.67219 0.89454 0.02557 0.0
C1436 C 0.66086 0.93491 0.98717 0.0
C1437 C 0.62837 0.93491 0.00571 0.0
N1438 N 0.66754 0.90614 0.01163 0.0
N1439 N 0.63075 0.91974 0.01125 0.0
H1440 H 0.05864 0.67944 0.99391 0.0
H1441 H 0.10388 0.78921 0.03959 0.0
H1442 H 0.02774 0.7092 0.98318 0.0
H1443 H 0.13852 0.76403 0.02068 0.0
H1444 H 0.07712 0.76228 0.01217 0.0
H1445 H 0.08888 0.71129 -0.00206 0.0
C1446 C 0.05827 0.69272 0.99206 0.0
C1447 C 0.04065 0.69172 0.98866 0.0
C1448 C 0.09077 0.76297 0.01314 0.0
C1449 C 0.07521 0.72829 0.99359 0.0
C1450 C 0.10609 0.77845 0.02858 0.0
C1451 C 0.12332 0.77871 0.03248 0.0
C1452 C 0.09262 0.74746 0.0022 0.0
C1453 C 0.12545 0.76434 0.01811 0.0
C1454 C 0.07556 0.71091 0.99417 0.0
C1455 C 0.04102 0.70935 0.98601 0.0
N1456 N 0.11008 0.74897 0.00424 0.0
N1457 N 0.05799 0.72695 0.98915 0.0
H1458 H 0.30031 0.35353 0.96744 0.0
H1459 H 0.24734 0.38647 0.07805 0.0
H1460 H 0.32956 0.40491 0.02344 0.0
H1461 H 0.21764 0.33294 0.02669 0.0
H1462 H 0.2765 0.39725 0.05016 0.0
H1463 H 0.2693 0.34933 0.9813 0.0
C1464 C 0.30025 0.3641 0.98235 0.0
C1465 C 0.31757 0.37941 0.99467 0.0
C1466 C 0.26353 0.38332 0.04454 0.0
C1467 C 0.2821 0.37466 0.01063 0.0
C1468 C 0.24686 0.37725 0.06034 0.0
C1469 C 0.23018 0.35874 0.05477 0.0
C1470 C 0.2636 0.37066 0.02325 0.0
C1471 C 0.23023 0.34733 0.03161 0.0
C1472 C 0.28253 0.36168 0.99025 0.0
C1473 C 0.31659 0.39272 0.01369 0.0
N1474 N 0.24683 0.3533 0.01701 0.0
N1475 N 0.29916 0.38991 0.02131 0.0
H1476 H 0.74201 0.73138 0.348 0.0
H1477 H 0.78163 0.65935 0.35888 0.0
H1478 H 0.71482 0.67381 0.30672 0.0
H1479 H 0.80605 0.7153 0.40397 0.0
H1480 H 0.76157 0.66744 0.33112 0.0
H1481 H 0.7695 0.72858 0.36052 0.0
C1482 C 0.7419 0.71822 0.34128 0.0
C1483 C 0.72591 0.70266 0.32669 0.0
C1484 C 0.77162 0.67814 0.34665 0.0
C1485 C 0.75738 0.6993 0.34115 0.0
C1486 C 0.78322 0.67361 0.36227 0.0
C1487 C 0.79534 0.68661 0.3839 0.0
C1488 C 0.77218 0.69578 0.35281 0.0
C1489 C 0.79671 0.7048 0.38767 0.0
C1490 C 0.75764 0.71664 0.34843 0.0
C1491 C 0.72673 0.68609 0.31825 0.0
N1492 N 0.78506 0.70872 0.3726 0.0
N1493 N 0.74207 0.68473 0.32594 0.0
H1494 H 0.3293 0.02332 0.34293 0.0
H1495 H 0.29507 0.09367 0.39624 0.0
H1496 H 0.27009 0.0074 0.33161 0.0
H1497 H 0.35384 0.11581 0.37076 0.0
H1498 H 0.28508 0.06234 0.37107 0.0
H1499 H 0.33859 0.05749 0.35239 0.0
C1500 C 0.31828 0.02706 0.34221 0.0
C1501 C 0.29887 0.0125 0.33672 0.0
C1502 C 0.30007 0.07423 0.37027 0.0
C1503 C 0.30936 0.0515 0.3478 0.0
C1504 C 0.30571 0.0921 0.38444 0.0
C1505 C 0.32522 0.10726 0.38517 0.0
C1506 C 0.31418 0.0714 0.35759 0.0
C1507 C 0.33862 0.10447 0.37027 0.0
C1508 C 0.32361 0.04658 0.34742 0.0
C1509 C 0.28521 0.01818 0.33582 0.0
N1510 N 0.33292 0.08671 0.35753 0.0
N1511 N 0.29066 0.03719 0.3418 0.0
H1512 H 0.98309 0.30786 0.35112 0.0
H1513 H 0.91638 0.19245 0.36961 0.0
H1514 H 0.99828 0.26646 0.31942 0.0
H1515 H 0.89949 0.23385 0.39352 0.0
H1516 H 0.94399 0.21837 0.34427 0.0
H1517 H 0.95061 0.28045 0.36098 0.0
C1518 C 0.97956 0.293 0.34604 0.0
C1519 C 0.99353 0.28946 0.33477 0.0
C1520 C 0.93402 0.22169 0.35453 0.0
C1521 C 0.95628 0.25789 0.34614 0.0
C1522 C 0.91812 0.20682 0.36873 0.0
C1523 C 0.90578 0.21109 0.38395 0.0
C1524 C 0.93761 0.24095 0.35576 0.0
C1525 C 0.90884 0.23003 0.38236 0.0
C1526 C 0.96095 0.27732 0.35159 0.0
C1527 C 0.98803 0.26988 0.32833 0.0
N1528 N 0.92461 0.24433 0.36899 0.0
N1529 N 0.96992 0.25483 0.33444 0.0
H1530 H 0.06423 0.40939 0.33584 0.0
H1531 H 1.00064 0.4518 0.28807 0.0
H1532 H 1.00235 0.37843 0.34689 0.0
H1533 H 0.06261 0.4878 0.29785 0.0
H1534 H 1.00077 0.42577 0.31363 0.0
H1535 H 0.06408 0.43903 0.3252 0.0
C1536 C 0.05063 0.40886 0.33628 0.0
C1537 C 0.03324 0.39131 0.34195 0.0
C1538 C 0.01431 0.43952 0.31079 0.0
C1539 C 0.03296 0.4252 0.32961 0.0
C1540 C 0.0142 0.4544 0.29633 0.0
C1541 C 0.03163 0.47192 0.29085 0.0
C1542 C 0.03203 0.44204 0.31929 0.0
C1543 C 0.04885 0.47454 0.30182 0.0
C1544 C 0.05057 0.42583 0.33031 0.0
C1545 C 0.01609 0.39157 0.34245 0.0
N1546 N 0.04867 0.4596 0.31504 0.0
N1547 N 0.01635 0.40815 0.33597 0.0
H1548 H 0.60331 0.67227 0.32715 0.0
H1549 H 0.57055 0.55874 0.3167 0.0
H1550 H 0.64151 0.65111 0.34208 0.0
H1551 H 0.53924 0.58205 0.27826 0.0
H1552 H 0.59274 0.59128 0.33881 0.0
H1553 H 0.57634 0.63821 0.321 0.0
C1554 C 0.606 0.66048 0.32943 0.0
C1555 C 0.62476 0.66457 0.33473 0.0
C1556 C 0.58072 0.58914 0.32611 0.0
C1557 C 0.59391 0.62556 0.32793 0.0
C1558 C 0.56794 0.57055 0.31383 0.0
C1559 C 0.55313 0.56782 0.29569 0.0
C1560 C 0.57856 0.60501 0.32022 0.0
C1561 C 0.55052 0.58364 0.29216 0.0
C1562 C 0.59059 0.64104 0.32593 0.0
C1563 C 0.62734 0.64866 0.33764 0.0
N1564 N 0.56326 0.60163 0.30403 0.0
N1565 N 0.61211 0.62986 0.33402 0.0
H1566 H 0.37464 0.00417 0.36055 0.0
H1567 H 0.42212 0.94516 0.29746 0.0
H1568 H 0.34246 0.94193 0.33911 0.0
H1569 H 0.44904 0.0081 0.29445 0.0
H1570 H 0.3959 0.94363 0.32558 0.0
H1571 H 0.40461 0.0054 0.34852 0.0
C1572 C 0.37388 0.9907 0.3537 0.0
C1573 C 0.35598 0.97296 0.35042 0.0
C1574 C 0.40776 0.95782 0.31928 0.0
C1575 C 0.39023 0.97429 0.3368 0.0
C1576 C 0.42282 0.95872 0.30352 0.0
C1577 C 0.43766 0.97678 0.29352 0.0
C1578 C 0.40764 0.97511 0.32514 0.0
C1579 C 0.43775 0.99389 0.30162 0.0
C1580 C 0.391 0.99144 0.34681 0.0
C1581 C 0.35591 0.95597 0.34158 0.0
N1582 N 0.42284 0.99262 0.3167 0.0
N1583 N 0.37276 0.95708 0.33488 0.0
H1584 H 0.59862 0.93852 0.34264 0.0
H1585 H 0.56306 0.00828 0.30098 0.0
H1586 H 0.62983 1.00003 0.36843 0.0
H1587 H 0.52467 0.94537 0.30345 0.0
H1588 H 0.58646 0.00594 0.33012 0.0
H1589 H 0.57042 0.94055 0.33172 0.0
C1590 C 0.59946 0.95241 0.34628 0.0
C1591 C 0.61666 0.96919 0.35612 0.0
C1592 C 0.57269 0.9927 0.325 0.0
C1593 C 0.58449 0.97169 0.34339 0.0
C1594 C 0.55931 0.99406 0.30852 0.0
C1595 C 0.54199 0.97699 0.29977 0.0
C1596 C 0.56887 0.97407 0.33216 0.0
C1597 C 0.53784 0.95889 0.30986 0.0
C1598 C 0.58331 0.95355 0.3402 0.0
C1599 C 0.61688 0.98676 0.36074 0.0
N1600 N 0.55139 0.95784 0.32498 0.0
N1601 N 0.60115 0.98765 0.35383 0.0
H1602 H 0.07861 0.68131 0.35834 0.0
H1603 H 0.00628 0.57224 0.29803 0.0
H1604 H 0.01895 0.65802 0.33523 0.0
H1605 H 0.06767 0.59762 0.30826 0.0
H1606 H 0.00905 0.60046 0.32446 0.0
H1607 H 0.07329 0.64832 0.35157 0.0
C1608 C 0.06433 0.66923 0.35217 0.0
C1609 C 0.04929 0.67251 0.34688 0.0
C1610 C 0.02186 0.59966 0.32157 0.0
C1611 C 0.04309 0.6347 0.33923 0.0
C1612 C 0.02024 0.58346 0.30675 0.0
C1613 C 0.03681 0.58276 0.30072 0.0
C1614 C 0.04022 0.61534 0.33019 0.0
C1615 C 0.05455 0.59763 0.31246 0.0
C1616 C 0.0613 0.65039 0.34836 0.0
C1617 C 0.03105 0.65625 0.33916 0.0
N1618 N 0.05587 0.61356 0.32613 0.0
N1619 N 0.02853 0.63811 0.33531 0.0
H1620 H 0.36328 0.36802 0.3411 0.0
H1621 H 0.4335 0.47699 0.29499 0.0
H1622 H 0.34575 0.41039 0.33746 0.0
H1623 H 0.45348 0.43879 0.31729 0.0
H1624 H 0.40244 0.45473 0.31708 0.0
H1625 H 0.39703 0.39477 0.33784 0.0
C1626 C 0.36653 0.38297 0.33984 0.0
C1627 C 0.35163 0.38693 0.33912 0.0
C1628 C 0.41377 0.45146 0.31795 0.0
C1629 C 0.3903 0.41767 0.3353 0.0
C1630 C 0.43156 0.46429 0.30562 0.0
C1631 C 0.446 0.4597 0.30451 0.0
C1632 C 0.41028 0.43368 0.32858 0.0
C1633 C 0.44272 0.44289 0.31801 0.0
C1634 C 0.38583 0.39827 0.33814 0.0
C1635 C 0.35674 0.40662 0.33781 0.0
N1636 N 0.42503 0.43023 0.32895 0.0
N1637 N 0.37562 0.42121 0.33552 0.0
H1638 H 0.34051 0.29609 0.30431 0.0
H1639 H 0.29129 0.19685 0.38914 0.0
H1640 H 0.28327 0.26822 0.33981 0.0
H1641 H 0.35059 0.22735 0.36175 0.0
H1642 H 0.28581 0.21877 0.36148 0.0
H1643 H 0.34221 0.26746 0.31609 0.0
C1644 C 0.32819 0.28385 0.31422 0.0
C1645 C 0.31184 0.28471 0.32149 0.0
C1646 C 0.29994 0.22046 0.36104 0.0
C1647 C 0.31371 0.2519 0.33505 0.0
C1648 C 0.30303 0.20789 0.37672 0.0
C1649 C 0.32148 0.21046 0.37799 0.0
C1650 C 0.31545 0.23587 0.34673 0.0
C1651 C 0.33615 0.22487 0.36134 0.0
C1652 C 0.32918 0.26751 0.32096 0.0
C1653 C 0.29627 0.26834 0.33415 0.0
N1654 N 0.33292 0.23728 0.34679 0.0
N1655 N 0.29768 0.25273 0.34078 0.0
H1656 H 0.69372 0.03303 0.32575 0.0
H1657 H 0.80496 0.08598 0.372 0.0
H1658 H 0.72218 0.00259 0.34889 0.0
H1659 H 0.77125 0.11292 0.38496 0.0
H1660 H 0.77725 0.05792 0.3476 0.0
H1661 H 0.72442 0.06454 0.33326 0.0
C1662 C 0.70647 0.03298 0.33207 0.0
C1663 C 0.70539 0.01522 0.3371 0.0
C1664 C 0.77609 0.07022 0.35515 0.0
C1665 C 0.74044 0.05101 0.34509 0.0
C1666 C 0.79197 0.08634 0.36872 0.0
C1667 C 0.7903 0.10168 0.38063 0.0
C1668 C 0.75851 0.06955 0.35337 0.0
C1669 C 0.77303 0.10128 0.37618 0.0
C1670 C 0.72393 0.05092 0.33632 0.0
C1671 C 0.72232 0.01596 0.34519 0.0
N1672 N 0.75767 0.0853 0.36321 0.0
N1673 N 0.73914 0.03355 0.34899 0.0
H1674 H 0.96901 0.68011 0.30428 0.0
H1675 H 0.91554 0.72005 0.4018 0.0
H1676 H 0.99793 0.73536 0.35208 0.0
H1677 H 0.88644 0.66243 0.36083 0.0
H1678 H 0.94456 0.72888 0.37458 0.0
H1679 H 0.93784 0.67621 0.31633 0.0
C1680 C 0.96883 0.69155 0.317 0.0
C1681 C 0.98612 0.70794 0.32757 0.0
C1682 C 0.93173 0.71442 0.37106 0.0
C1683 C 0.95048 0.70356 0.34141 0.0
C1684 C 0.91514 0.70945 0.38646 0.0
C1685 C 0.89868 0.69043 0.38372 0.0
C1686 C 0.93196 0.7002 0.35303 0.0
C1687 C 0.89885 0.67725 0.36352 0.0
C1688 C 0.95102 0.6893 0.32386 0.0
C1689 C 0.98498 0.72235 0.34378 0.0
N1690 N 0.91538 0.68225 0.34931 0.0
N1691 N 0.96748 0.71972 0.35042 0.0
H1692 H 0.40619 0.06497 0.68693 0.0
H1693 H 0.44601 0.99336 0.70115 0.0
H1694 H 0.37826 0.00636 0.64898 0.0
H1695 H 0.4712 0.05046 0.7431 0.0
H1696 H 0.42549 1.0007 0.67312 0.0
H1697 H 0.4339 0.06253 0.69925 0.0
C1698 C 0.40596 0.05165 0.6809 0.0
C1699 C 0.3897 0.03571 0.66733 0.0
C1700 C 0.43581 0.0118 0.68801 0.0
C1701 C 0.42145 0.03276 0.68156 0.0
C1702 C 0.44766 0.0077 0.70377 0.0
C1703 C 0.46014 0.02126 0.72464 0.0
C1704 C 0.43646 0.02957 0.69325 0.0
C1705 C 0.46158 0.03952 0.72743 0.0
C1706 C 0.42183 0.05027 0.68793 0.0
C1707 C 0.39038 0.01893 0.65974 0.0
N1708 N 0.44967 0.04303 0.71225 0.0
N1709 N 0.40586 0.01779 0.6673 0.0
H1710 H 0.98807 0.35935 0.66927 0.0
H1711 H 0.94372 0.41925 0.73182 0.0
H1712 H 0.92667 0.33353 0.68052 0.0
H1713 H 1.00194 0.44693 0.7005 0.0
H1714 H 0.9359 0.38861 0.70677 0.0
H1715 H 0.99268 0.39202 0.67512 0.0
C1716 C 0.97553 0.36055 0.67272 0.0
C1717 C 0.95699 0.34368 0.67489 0.0
C1718 C 0.95024 0.40151 0.70465 0.0
C1719 C 0.96217 0.38108 0.68174 0.0
C1720 C 0.95463 0.41902 0.71876 0.0
C1721 C 0.97349 0.43552 0.71822 0.0
C1722 C 0.96497 0.40043 0.69051 0.0
C1723 C 0.98721 0.4345 0.7013 0.0
C1724 C 0.97815 0.37924 0.67589 0.0
C1725 C 0.94125 0.34614 0.67899 0.0
N1726 N 0.98281 0.41708 0.68863 0.0
N1727 N 0.94423 0.36448 0.68275 0.0
H1728 H 0.66574 0.612 0.6759 0.0
H1729 H 0.55617 0.56922 0.70704 0.0
H1730 H 0.63694 0.64143 0.64952 0.0
H1731 H 0.58046 0.53257 0.70107 0.0
H1732 H 0.58447 0.59505 0.68265 0.0
H1733 H 0.63422 0.58222 0.6831 0.0
C1734 C 0.65276 0.61214 0.67142 0.0
C1735 C 0.65395 0.62927 0.66239 0.0
C1736 C 0.58337 0.58115 0.68592 0.0
C1737 C 0.6178 0.59527 0.67079 0.0
C1738 C 0.56717 0.56639 0.69965 0.0
C1739 C 0.56603 0.54879 0.706 0.0
C1740 C 0.59872 0.57844 0.67919 0.0
C1741 C 0.58075 0.54589 0.69636 0.0
C1742 C 0.63477 0.59509 0.67534 0.0
C1743 C 0.63667 0.62856 0.65662 0.0
N1744 N 0.59671 0.56075 0.68401 0.0
N1745 N 0.61929 0.61194 0.66138 0.0
H1746 H 0.72859 0.73773 0.67702 0.0
H1747 H 0.66148 0.77587 0.63489 0.0
H1748 H 0.66771 0.70555 0.69633 0.0
H1749 H 0.72312 0.81454 0.64554 0.0
H1750 H 0.66293 0.751 0.66171 0.0
H1751 H 0.72692 0.76679 0.66867 0.0
C1752 C 0.71489 0.73684 0.67975 0.0
C1753 C 0.69821 0.71913 0.68705 0.0
C1754 C 0.67607 0.76513 0.65894 0.0
C1755 C 0.69615 0.75232 0.67728 0.0
C1756 C 0.6752 0.77936 0.64382 0.0
C1757 C 0.69221 0.79721 0.63801 0.0
C1758 C 0.69414 0.76865 0.66765 0.0
C1759 C 0.70967 0.80098 0.64972 0.0
C1760 C 0.71397 0.75348 0.67516 0.0
C1761 C 0.6809 0.71888 0.69059 0.0
N1762 N 0.71027 0.78663 0.66341 0.0
N1763 N 0.68023 0.73513 0.68517 0.0
H1764 H 0.26765 0.00846 0.68035 0.0
H1765 H 0.23063 0.89459 0.65552 0.0
H1766 H 0.30458 0.98469 0.68263 0.0
H1767 H 0.19944 0.92126 0.62834 0.0
H1768 H 0.25419 0.9257 0.67994 0.0
H1769 H 0.23953 0.97501 0.67472 0.0
C1770 C 0.26985 0.99621 0.68001 0.0
C1771 C 0.28854 0.99941 0.68148 0.0
C1772 C 0.24188 0.92457 0.66931 0.0
C1773 C 0.25638 0.96109 0.67526 0.0
C1774 C 0.22832 0.90677 0.65575 0.0
C1775 C 0.21316 0.90548 0.63997 0.0
C1776 C 0.24016 0.94108 0.66705 0.0
C1777 C 0.21096 0.92175 0.64037 0.0
C1778 C 0.25377 0.97713 0.67682 0.0
C1779 C 0.29046 0.98294 0.68115 0.0
N1780 N 0.22449 0.93899 0.65334 0.0
N1781 N 0.2746 0.96449 0.67784 0.0
H1782 H 0.02871 0.31988 0.67562 0.0
H1783 H 0.08968 0.27362 0.61838 0.0
H1784 H 0.00485 0.2578 0.65902 0.0
H1785 H 0.10975 0.33538 0.61645 0.0
H1786 H 0.06153 0.26814 0.64535 0.0
H1787 H 0.06097 0.32603 0.66528 0.0
C1788 C 0.03027 0.30751 0.67017 0.0
C1789 C 0.01401 0.28832 0.66774 0.0
C1790 C 0.07228 0.28296 0.63951 0.0
C1791 C 0.05088 0.29527 0.65598 0.0
C1792 C 0.08847 0.28613 0.6244 0.0
C1793 C 0.10195 0.30496 0.61495 0.0
C1794 C 0.06959 0.29874 0.64522 0.0
C1795 C 0.09954 0.3206 0.62306 0.0
C1796 C 0.04869 0.31104 0.66424 0.0
C1797 C 0.01694 0.27286 0.66075 0.0
N1798 N 0.08352 0.3171 0.63741 0.0
N1799 N 0.03498 0.27669 0.65489 0.0
H1800 H 0.29885 0.33645 0.69413 0.0
H1801 H 0.19236 0.2796 0.62676 0.0
H1802 H 0.26778 0.2755 0.66539 0.0
H1803 H 0.23087 0.34258 0.62593 0.0
H1804 H 0.21593 0.2775 0.65584 0.0
H1805 H 0.27039 0.33816 0.6828 0.0
C1806 C 0.28596 0.32335 0.68585 0.0
C1807 C 0.28576 0.30587 0.6803 0.0
C1808 C 0.219 0.29183 0.64992 0.0
C1809 C 0.25318 0.30769 0.66769 0.0
C1810 C 0.20544 0.29306 0.63366 0.0
C1811 C 0.20977 0.31128 0.62383 0.0
C1812 C 0.23692 0.30895 0.65644 0.0
C1813 C 0.22708 0.32825 0.633 0.0
C1814 C 0.26975 0.32436 0.67939 0.0
C1815 C 0.26865 0.28935 0.66961 0.0
N1816 N 0.24018 0.32666 0.64847 0.0
N1817 N 0.25309 0.29069 0.66351 0.0
H1818 H 0.67733 0.98603 0.65626 0.0
H1819 H 0.72265 0.91946 0.64151 0.0
H1820 H 0.73216 0.00235 0.69403 0.0
H1821 H 0.6633 0.8987 0.62004 0.0
H1822 H 0.7252 0.94819 0.66593 0.0
H1823 H 0.67088 0.95287 0.64659 0.0
C1824 C 0.68796 0.98261 0.66269 0.0
C1825 C 0.70542 0.99707 0.67567 0.0
C1826 C 0.71149 0.93716 0.65638 0.0
C1827 C 0.69816 0.9591 0.66457 0.0
C1828 C 0.70996 0.92062 0.64267 0.0
C1829 C 0.69282 0.9068 0.62833 0.0
C1830 C 0.69583 0.93999 0.65546 0.0
C1831 C 0.67691 0.90921 0.63034 0.0
C1832 C 0.68423 0.96363 0.65729 0.0
C1833 C 0.71857 0.99172 0.68379 0.0
N1834 N 0.67891 0.92567 0.64313 0.0
N1835 N 0.71479 0.97325 0.67778 0.0
H1836 H 0.00587 0.74527 0.68847 0.0
H1837 H 0.11442 0.77808 0.64789 0.0
H1838 H 0.02499 0.70468 0.67222 0.0
H1839 H 0.08907 0.81215 0.6289 0.0
H1840 H 0.08443 0.75431 0.6715 0.0
H1841 H 0.03891 0.77273 0.68016 0.0
C1842 C 0.01706 0.74214 0.68353 0.0
C1843 C 0.01265 0.72266 0.68068 0.0
C1844 C 0.08562 0.76725 0.66276 0.0
C1845 C 0.0504 0.75394 0.67162 0.0
C1846 C 0.10279 0.78091 0.64964 0.0
C1847 C 0.10413 0.79703 0.6365 0.0
C1848 C 0.06983 0.76987 0.6629 0.0
C1849 C 0.08853 0.79987 0.63884 0.0
C1850 C 0.03587 0.75781 0.67878 0.0
C1851 C 0.02771 0.71947 0.67427 0.0
N1852 N 0.07192 0.78631 0.65154 0.0
N1853 N 0.0459 0.73494 0.66988 0.0
H1854 H 0.98148 0.62345 0.66214 0.0
H1855 H 0.94498 0.52532 0.74369 0.0
H1856 H 0.92298 0.58687 0.6916 0.0
H1857 H 1.00032 0.5566 0.70282 0.0
H1858 H 0.93498 0.5449 0.71882 0.0
H1859 H 0.98733 0.59711 0.67139 0.0
C1860 C 0.96979 0.6098 0.67027 0.0
C1861 C 0.95179 0.6075 0.6765 0.0
C1862 C 0.94916 0.54722 0.71471 0.0
C1863 C 0.95844 0.57727 0.68728 0.0
C1864 C 0.95479 0.53595 0.72877 0.0
C1865 C 0.97349 0.53943 0.72529 0.0
C1866 C 0.96247 0.56238 0.69749 0.0
C1867 C 0.98574 0.55343 0.70593 0.0
C1868 C 0.97313 0.59472 0.67547 0.0
C1869 C 0.93714 0.5894 0.68674 0.0
N1870 N 0.98016 0.56468 0.69316 0.0
N1871 N 0.94087 0.5751 0.69217 0.0
H1872 H 0.39116 0.33889 0.67093 0.0
H1873 H 0.43635 0.45089 0.70326 0.0
H1874 H 0.3618 0.36817 0.64651 0.0
H1875 H 0.47116 0.42495 0.69404 0.0
H1876 H 0.40983 0.42222 0.67794 0.0
H1877 H 0.4212 0.37083 0.67648 0.0
C1878 C 0.39108 0.35206 0.66655 0.0
C1879 C 0.37392 0.35091 0.65859 0.0
C1880 C 0.42347 0.42307 0.6806 0.0
C1881 C 0.40826 0.38758 0.66507 0.0
C1882 C 0.43865 0.43951 0.69482 0.0
C1883 C 0.45589 0.4402 0.70075 0.0
C1884 C 0.42546 0.40708 0.67296 0.0
C1885 C 0.45811 0.42499 0.68975 0.0
C1886 C 0.40827 0.37029 0.66949 0.0
C1887 C 0.3747 0.36842 0.65284 0.0
N1888 N 0.44287 0.40879 0.67703 0.0
N1889 N 0.39152 0.38609 0.6567 0.0
H1890 H 0.66249 0.06742 0.68824 0.0
H1891 H 0.54861 0.99584 0.69926 0.0
H1892 H 0.63023 0.01153 0.64251 0.0
H1893 H 0.58112 0.05285 0.7417 0.0
H1894 H 0.57711 0.00392 0.67097 0.0
H1895 H 0.63212 0.06479 0.70131 0.0
C1896 C 0.64902 0.05467 0.6807 0.0
C1897 C 0.64891 0.03952 0.66463 0.0
C1898 C 0.5779 0.01485 0.68601 0.0
C1899 C 0.61398 0.03633 0.6797 0.0
C1900 C 0.56156 0.01031 0.70194 0.0
C1901 C 0.56262 0.02361 0.72307 0.0
C1902 C 0.5954 0.03277 0.69142 0.0
C1903 C 0.57981 0.04209 0.72587 0.0
C1904 C 0.63165 0.05319 0.68812 0.0
C1905 C 0.631 0.02347 0.65518 0.0
N1906 N 0.59561 0.04598 0.71061 0.0
N1907 N 0.61425 0.02216 0.6632 0.0
loop_
_geom_bond_atom_site_label_1
_geom_bond_atom_site_label_2
_geom_bond_distance
_geom_bond_site_symmetry_2
_ccdc_geom_bond_type
C0 O1 1.160 . S
C0 O7 1.185 . S
O1 C0 1.160 . S
O2 Zn3 1.899 1_656 S
O2 C10 1.272 1_556 S
Zn3 O2 1.899 1_454 S
Zn3 O4 2.032 . S
Zn3 O7 2.086 . S
Zn3 O12 1.977 1_554 S
O4 Zn3 2.032 . S
O4 C8 1.278 1_455 S
C5 O6 1.203 1_455 S
C5 O12 1.267 . S
O6 C5 1.203 1_655 S
O7 C0 1.185 . S
O7 Zn3 2.086 . S
C8 O4 1.278 1_655 S
C8 O9 1.211 . S
O9 C8 1.211 . S
C10 O2 1.272 1_554 S
C10 O11 1.295 . S
O11 C10 1.295 . S
O12 Zn3 1.977 1_556 S
O12 C5 1.267 . S
C13 O14 1.160 . S
C13 O20 1.185 1_556 S
O14 C13 1.160 . S
O15 Zn16 1.899 . S
O15 C23 1.284 . S
Zn16 O15 1.899 . S
Zn16 O17 2.032 1_554 S
Zn16 O20 2.086 . S
Zn16 O25 1.977 . S
O17 Zn16 2.032 1_556 S
O17 C21 1.278 . S
C18 O19 1.203 . S
C18 O25 1.267 . S
O19 C18 1.203 . S
O20 C13 1.185 1_554 S
O20 Zn16 2.086 . S
C21 O17 1.278 . S
C21 O22 1.211 . S
O22 C21 1.211 . S
C23 O15 1.284 . S
C23 O24 1.273 . S
O24 C23 1.273 . S
O25 Zn16 1.977 . S
O25 C18 1.267 . S
C26 O27 1.152 1_554 S
C26 O33 1.197 . S
O27 C26 1.152 1_556 S
O28 Zn29 1.899 1_565 S
O28 C36 1.284 . S
Zn29 O28 1.899 1_545 S
Zn29 O30 2.032 1_554 S
Zn29 O33 2.086 . S
Zn29 O38 1.977 . S
O30 Zn29 2.032 1_556 S
O30 C34 1.240 1_545 S
C31 O32 1.203 1_545 S
C31 O38 1.267 . S
O32 C31 1.203 1_565 S
O33 C26 1.197 . S
O33 Zn29 2.086 . S
C34 O30 1.240 1_565 S
C34 O35 1.242 . S
O35 C34 1.242 . S
C36 O28 1.284 . S
C36 O37 1.273 . S
O37 C36 1.273 . S
O38 Zn29 1.977 . S
O38 C31 1.267 . S
C39 O40 1.160 . S
C39 O46 1.185 1_556 S
O40 C39 1.160 . S
O41 Zn42 1.899 1_455 S
O41 C49 1.284 . S
Zn42 O41 1.899 1_655 S
Zn42 O43 2.032 1_554 S
Zn42 O46 2.086 . S
Zn42 O51 1.977 . S
O43 Zn42 2.032 1_556 S
O43 C47 1.278 1_655 S
C44 O45 1.203 1_655 S
C44 O51 1.267 . S
O45 C44 1.203 1_455 S
O46 C39 1.185 1_554 S
O46 Zn42 2.086 . S
C47 O43 1.278 1_455 S
C47 O48 1.211 . S
O48 C47 1.211 . S
C49 O41 1.284 . S
C49 O50 1.273 . S
O50 C49 1.273 . S
O51 Zn42 1.977 . S
O51 C44 1.267 . S
C52 O53 1.160 . S
C52 O59 1.185 . S
O53 C52 1.160 . S
O54 Zn55 1.899 1_556 S
O54 C62 1.284 . S
Zn55 O54 1.899 1_554 S
Zn55 O56 2.032 . S
Zn55 O59 2.086 . S
Zn55 O64 1.977 1_554 S
O56 Zn55 2.032 . S
O56 C60 1.278 . S
C57 O58 1.203 . S
C57 O64 1.267 . S
O58 C57 1.203 . S
O59 C52 1.185 . S
O59 Zn55 2.086 . S
C60 O56 1.278 . S
C60 O61 1.211 . S
O61 C60 1.211 . S
C62 O54 1.284 . S
C62 O63 1.273 1_556 S
O63 C62 1.273 1_554 S
O64 Zn55 1.977 1_556 S
O64 C57 1.267 . S
C65 O66 1.160 . S
C65 O72 1.185 . S
O66 C65 1.160 . S
O67 Zn68 1.899 1_546 S
O67 C75 1.284 . S
Zn68 O67 1.899 1_564 S
Zn68 O69 2.032 . S
Zn68 O72 2.086 . S
Zn68 O77 1.977 1_554 S
O69 Zn68 2.032 . S
O69 C73 1.278 1_565 S
C70 O71 1.203 1_565 S
C70 O77 1.267 . S
O71 C70 1.203 1_545 S
O72 C65 1.185 . S
O72 Zn68 2.086 . S
C73 O69 1.278 1_545 S
C73 O74 1.211 . S
O74 C73 1.211 . S
C75 O67 1.284 . S
C75 O76 1.273 1_556 S
O76 C75 1.273 1_554 S
O77 Zn68 1.977 1_556 S
O77 C70 1.267 . S
C78 O79 1.160 . S
C78 O85 1.185 . S
O79 C78 1.160 . S
O80 Zn81 1.899 . S
O80 C88 1.284 . S
Zn81 O80 1.899 . S
Zn81 O82 2.032 . S
Zn81 O85 2.086 . S
Zn81 O90 1.977 . S
O82 Zn81 2.032 . S
O82 C86 1.278 . S
C83 O84 1.203 . S
C83 O90 1.267 . S
O84 C83 1.203 . S
O85 C78 1.185 . S
O85 Zn81 2.086 . S
C86 O82 1.278 . S
C86 O87 1.211 . S
O87 C86 1.211 . S
C88 O80 1.284 . S
C88 O89 1.273 . S
O89 C88 1.273 . S
O90 Zn81 1.977 . S
O90 C83 1.267 . S
C91 O92 1.160 1_565 S
C91 O98 1.185 . S
O92 C91 1.160 1_545 S
O93 Zn94 1.899 1_545 S
O93 C101 1.284 . S
Zn94 O93 1.899 1_565 S
Zn94 O95 2.032 . S
Zn94 O98 2.086 . S
Zn94 O103 1.977 . S
O95 Zn94 2.032 . S
O95 C99 1.278 . S
C96 O97 1.203 . S
C96 O103 1.267 . S
O97 C96 1.203 . S
O98 C91 1.185 . S
O98 Zn94 2.086 . S
C99 O95 1.278 . S
C99 O100 1.211 . S
O100 C99 1.211 . S
C101 O93 1.284 . S
C101 O102 1.273 . S
O102 C101 1.273 . S
O103 Zn94 1.977 . S
O103 C96 1.267 . S
C104 O105 1.160 . S
C104 O111 1.185 . S
O105 C104 1.160 . S
O106 Zn107 1.877 1_655 S
O106 C114 1.281 . S
Zn107 O106 1.877 1_455 S
Zn107 O108 2.032 . S
Zn107 O111 2.086 . S
Zn107 O116 1.977 . S
O108 Zn107 2.032 . S
O108 C112 1.278 . S
C109 O110 1.203 . S
C109 O116 1.267 . S
O110 C109 1.203 . S
O111 C104 1.185 . S
O111 Zn107 2.086 . S
C112 O108 1.278 . S
C112 O113 1.211 . S
O113 C112 1.211 . S
C114 O106 1.281 . S
C114 O115 1.273 1_655 S
O115 C114 1.273 1_455 S
O116 Zn107 1.977 . S
O116 C109 1.267 . S
C117 O118 1.160 1_565 S
C117 O124 1.185 . S
O118 C117 1.160 1_545 S
O119 Zn120 1.899 1_545 S
O119 C127 1.284 . S
Zn120 O119 1.899 1_565 S
Zn120 O121 2.032 . S
Zn120 O124 2.086 . S
Zn120 O129 1.977 . S
O121 Zn120 2.032 . S
O121 C125 1.278 . S
C122 O123 1.203 . S
C122 O129 1.267 . S
O123 C122 1.203 . S
O124 C117 1.185 . S
O124 Zn120 2.086 . S
C125 O121 1.278 . S
C125 O126 1.211 . S
O126 C125 1.211 . S
C127 O119 1.284 . S
C127 O128 1.273 . S
O128 C127 1.273 . S
O129 Zn120 1.977 . S
O129 C122 1.267 . S
C130 O131 1.160 . S
C130 O137 1.185 . S
O131 C130 1.160 . S
O132 Zn133 1.899 . S
O132 C140 1.284 . S
Zn133 O132 1.899 . S
Zn133 O134 2.032 . S
Zn133 O137 2.086 1_455 S
Zn133 O142 1.977 . S
O134 Zn133 2.032 . S
O134 C138 1.278 . S
C135 O136 1.203 . S
C135 O142 1.267 . S
O136 C135 1.203 . S
O137 C130 1.185 . S
O137 Zn133 2.086 1_655 S
C138 O134 1.278 . S
C138 O139 1.211 . S
O139 C138 1.211 . S
C140 O132 1.284 . S
C140 O141 1.273 . S
O141 C140 1.273 . S
O142 Zn133 1.977 . S
O142 C135 1.267 . S
C143 O144 1.160 . S
C143 O150 1.185 . S
O144 C143 1.160 . S
O145 Zn146 1.899 . S
O145 C153 1.284 . S
Zn146 O145 1.899 . S
Zn146 O147 2.032 . S
Zn146 O150 2.086 . S
Zn146 O155 1.977 . S
O147 Zn146 2.032 . S
O147 C151 1.278 . S
C148 O149 1.203 . S
C148 O155 1.267 . S
O149 C148 1.203 . S
O150 C143 1.185 . S
O150 Zn146 2.086 . S
C151 O147 1.278 . S
C151 O152 1.211 . S
O152 C151 1.211 . S
C153 O145 1.284 . S
C153 O154 1.273 . S
O154 C153 1.273 . S
O155 Zn146 1.977 . S
O155 C148 1.267 . S
C156 O157 1.142 1_545 S
C156 O163 1.185 . S
O157 C156 1.142 1_565 S
O158 Zn159 1.899 1_565 S
O158 C166 1.284 . S
Zn159 O158 1.899 1_545 S
Zn159 O160 2.032 . S
Zn159 O163 2.086 . S
Zn159 O168 1.977 . S
O160 Zn159 2.032 . S
O160 C164 1.278 . S
C161 O162 1.203 . S
C161 O168 1.267 . S
O162 C161 1.203 . S
O163 C156 1.185 . S
O163 Zn159 2.086 . S
C164 O160 1.278 . S
C164 O165 1.211 . S
O165 C164 1.211 . S
C166 O158 1.284 . S
C166 O167 1.273 . S
O167 C166 1.273 . S
O168 Zn159 1.977 . S
O168 C161 1.267 . S
C169 O170 1.160 . S
C169 O176 1.185 . S
O170 C169 1.160 . S
O171 Zn172 1.899 . S
O171 C179 1.284 . S
Zn172 O171 1.899 . S
Zn172 O173 2.032 . S
Zn172 O176 2.086 1_655 S
Zn172 O181 1.977 . S
O173 Zn172 2.032 . S
O173 C177 1.278 . S
C174 O175 1.203 . S
C174 O181 1.267 . S
O175 C174 1.203 . S
O176 C169 1.185 . S
O176 Zn172 2.086 1_455 S
C177 O173 1.278 . S
C177 O178 1.211 . S
O178 C177 1.211 . S
C179 O171 1.284 . S
C179 O180 1.273 . S
O180 C179 1.273 . S
O181 Zn172 1.977 . S
O181 C174 1.267 . S
C182 O183 1.160 . S
C182 O189 1.185 . S
O183 C182 1.160 . S
O184 Zn185 1.899 . S
O184 C192 1.284 . S
Zn185 O184 1.899 . S
Zn185 O186 2.032 . S
Zn185 O189 2.086 . S
Zn185 O194 1.977 . S
O186 Zn185 2.032 . S
O186 C190 1.278 . S
C187 O188 1.203 . S
C187 O194 1.267 . S
O188 C187 1.203 . S
O189 C182 1.185 . S
O189 Zn185 2.086 . S
C190 O186 1.278 . S
C190 O191 1.211 . S
O191 C190 1.211 . S
C192 O184 1.284 . S
C192 O193 1.273 . S
O193 C192 1.273 . S
O194 Zn185 1.977 . S
O194 C187 1.267 . S
C195 O196 1.160 . S
C195 O202 1.185 . S
O196 C195 1.160 . S
O197 Zn198 1.899 . S
O197 C205 1.284 . S
Zn198 O197 1.899 . S
Zn198 O199 2.032 . S
Zn198 O202 2.086 . S
Zn198 O207 1.977 . S
O199 Zn198 2.032 . S
O199 C203 1.278 . S
C200 O201 1.203 . S
C200 O207 1.267 . S
O201 C200 1.203 . S
O202 C195 1.185 . S
O202 Zn198 2.086 . S
C203 O199 1.278 . S
C203 O204 1.211 . S
O204 C203 1.211 . S
C205 O197 1.284 . S
C205 O206 1.273 . S
O206 C205 1.273 . S
O207 Zn198 1.977 . S
O207 C200 1.267 . S
C208 O209 1.136 1_545 S
C208 O215 1.185 . S
O209 C208 1.136 1_565 S
O210 Zn211 1.899 1_565 S
O210 C218 1.284 . S
Zn211 O210 1.899 1_545 S
Zn211 O212 2.032 . S
Zn211 O215 2.086 . S
Zn211 O220 1.977 . S
O212 Zn211 2.032 . S
O212 C216 1.278 . S
C213 O214 1.203 . S
C213 O220 1.267 . S
O214 C213 1.203 . S
O215 C208 1.185 . S
O215 Zn211 2.086 . S
C216 O212 1.278 . S
C216 O217 1.211 . S
O217 C216 1.211 . S
C218 O210 1.284 . S
C218 O219 1.276 . S
O219 C218 1.276 . S
O220 Zn211 1.977 . S
O220 C213 1.267 . S
C221 O222 1.160 . S
C221 O228 1.185 . S
O222 C221 1.160 . S
O223 Zn224 1.891 1_455 S
O223 C231 1.283 . S
Zn224 O223 1.891 1_655 S
Zn224 O225 2.032 . S
Zn224 O228 2.086 . S
Zn224 O233 1.977 . S
O225 Zn224 2.032 . S
O225 C229 1.278 . S
C226 O227 1.203 . S
C226 O233 1.267 . S
O227 C226 1.203 . S
O228 C221 1.185 . S
O228 Zn224 2.086 . S
C229 O225 1.278 . S
C229 O230 1.211 . S
O230 C229 1.211 . S
C231 O223 1.283 . S
C231 O232 1.251 1_455 S
O232 C231 1.251 1_655 S
O233 Zn224 1.977 . S
O233 C226 1.267 . S
H234 C242 0.930 . S
H235 C245 0.930 . S
H236 C247 0.930 . S
H237 C248 0.970 . S
H238 C248 0.970 . S
H239 C250 0.930 . S
H240 C252 0.930 . S
H241 C254 0.930 . S
C242 H234 0.930 . S
C242 C243 1.382 . S
C242 C244 1.426 . S
C243 C242 1.382 . S
C243 C247 1.389 . S
C244 C242 1.426 . S
C244 C245 1.375 . S
C244 C248 1.532 . S
C245 H235 0.930 . S
C245 C244 1.375 . S
C245 C246 1.416 . S
C246 C245 1.416 . S
C246 C247 1.371 . S
C247 H236 0.930 . S
C247 C243 1.389 . S
C247 C246 1.371 . S
C248 H237 0.970 . S
C248 H238 0.970 . S
C248 C244 1.532 . S
C248 C249 1.499 . S
C249 C248 1.499 . S
C249 C250 1.370 . S
C249 C254 1.415 . S
C250 H239 0.930 . S
C250 C249 1.370 . S
C250 C251 1.407 . S
C251 C250 1.407 . S
C251 C252 1.365 . S
C252 H240 0.930 . S
C252 C251 1.365 . S
C252 C253 1.393 . S
C253 C252 1.393 . S
C253 C254 1.387 . S
C254 H241 0.930 . S
C254 C249 1.415 . S
C254 C253 1.387 . S
H255 C263 0.930 . S
H256 C266 0.930 . S
H257 C268 0.930 . S
H258 C269 0.970 . S
H259 C269 0.970 . S
H260 C271 0.930 . S
H261 C273 0.930 . S
H262 C275 0.930 . S
C263 H255 0.930 . S
C263 C264 1.382 . S
C263 C265 1.426 . S
C264 C263 1.382 . S
C264 C268 1.389 . S
C265 C263 1.426 . S
C265 C266 1.375 . S
C265 C269 1.532 . S
C266 H256 0.930 . S
C266 C265 1.375 . S
C266 C267 1.416 . S
C267 C266 1.416 . S
C267 C268 1.371 . S
C268 H257 0.930 . S
C268 C264 1.389 . S
C268 C267 1.371 . S
C269 H258 0.970 . S
C269 H259 0.970 . S
C269 C265 1.532 . S
C269 C270 1.499 . S
C270 C269 1.499 . S
C270 C271 1.370 . S
C270 C275 1.415 . S
C271 H260 0.930 . S
C271 C270 1.370 . S
C271 C272 1.407 . S
C272 C271 1.407 . S
C272 C273 1.365 . S
C273 H261 0.930 . S
C273 C272 1.365 . S
C273 C274 1.393 . S
C274 C273 1.393 . S
C274 C275 1.387 . S
C275 H262 0.930 . S
C275 C270 1.415 . S
C275 C274 1.387 . S
H276 C284 0.930 . S
H277 C287 0.930 . S
H278 C289 0.930 . S
H279 C290 0.970 . S
H280 C290 0.970 . S
H281 C292 0.930 . S
H282 C294 0.930 . S
H283 C296 0.930 . S
C284 H276 0.930 . S
C284 C285 1.382 . S
C284 C286 1.426 . S
C285 C284 1.382 . S
C285 C289 1.389 . S
C286 C284 1.426 . S
C286 C287 1.375 . S
C286 C290 1.532 . S
C287 H277 0.930 . S
C287 C286 1.375 . S
C287 C288 1.416 . S
C288 C287 1.416 . S
C288 C289 1.371 . S
C289 H278 0.930 . S
C289 C285 1.389 . S
C289 C288 1.371 . S
C290 H279 0.970 . S
C290 H280 0.970 . S
C290 C286 1.532 . S
C290 C291 1.499 . S
C291 C290 1.499 . S
C291 C292 1.370 . S
C291 C296 1.415 . S
C292 H281 0.930 . S
C292 C291 1.370 . S
C292 C293 1.407 . S
C293 C292 1.407 . S
C293 C294 1.365 . S
C294 H282 0.930 . S
C294 C293 1.365 . S
C294 C295 1.393 . S
C295 C294 1.393 . S
C295 C296 1.387 . S
C296 H283 0.930 . S
C296 C291 1.415 . S
C296 C295 1.387 . S
H297 C305 0.930 . S
H298 C308 0.930 . S
H299 C310 0.930 . S
H300 C311 0.970 . S
H301 C311 0.970 . S
H302 C313 0.930 . S
H303 C315 0.930 . S
H304 C317 0.930 . S
C305 H297 0.930 . S
C305 C306 1.382 . S
C305 C307 1.426 . S
C306 C305 1.382 . S
C306 C310 1.389 . S
C307 C305 1.426 . S
C307 C308 1.375 . S
C307 C311 1.532 . S
C308 H298 0.930 . S
C308 C307 1.375 . S
C308 C309 1.416 . S
C309 C308 1.416 . S
C309 C310 1.371 . S
C310 H299 0.930 . S
C310 C306 1.389 . S
C310 C309 1.371 . S
C311 H300 0.970 . S
C311 H301 0.970 . S
C311 C307 1.532 . S
C311 C312 1.499 . S
C312 C311 1.499 . S
C312 C313 1.370 . S
C312 C317 1.415 . S
C313 H302 0.930 . S
C313 C312 1.370 . S
C313 C314 1.407 . S
C314 C313 1.407 . S
C314 C315 1.365 . S
C315 H303 0.930 . S
C315 C314 1.365 . S
C315 C316 1.393 . S
C316 C315 1.393 . S
C316 C317 1.387 . S
C317 H304 0.930 . S
C317 C312 1.415 . S
C317 C316 1.387 . S
H318 C326 0.930 . S
H319 C329 0.930 . S
H320 C331 0.930 . S
H321 C332 0.970 . S
H322 C332 0.970 . S
H323 C334 0.930 . S
H324 C336 0.930 . S
H325 C338 0.930 . S
C326 H318 0.930 . S
C326 C327 1.382 . S
C326 C328 1.426 . S
C327 C326 1.382 . S
C327 C331 1.389 . S
C328 C326 1.426 . S
C328 C329 1.375 . S
C328 C332 1.532 . S
C329 H319 0.930 . S
C329 C328 1.375 . S
C329 C330 1.416 . S
C330 C329 1.416 . S
C330 C331 1.371 . S
C331 H320 0.930 . S
C331 C327 1.389 . S
C331 C330 1.371 . S
C332 H321 0.970 . S
C332 H322 0.970 . S
C332 C328 1.532 . S
C332 C333 1.499 . S
C333 C332 1.499 . S
C333 C334 1.370 . S
C333 C338 1.415 . S
C334 H323 0.930 . S
C334 C333 1.370 . S
C334 C335 1.407 . S
C335 C334 1.407 . S
C335 C336 1.365 . S
C336 H324 0.930 . S
C336 C335 1.365 . S
C336 C337 1.393 . S
C337 C336 1.393 . S
C337 C338 1.387 . S
C338 H325 0.930 . S
C338 C333 1.415 . S
C338 C337 1.387 . S
H339 C347 0.930 . S
H340 C350 0.930 . S
H341 C352 0.930 . S
H342 C353 0.970 . S
H343 C353 0.970 . S
H344 C355 0.930 . S
H345 C357 0.930 . S
H346 C359 0.930 . S
C347 H339 0.930 . S
C347 C348 1.382 . S
C347 C349 1.426 . S
C348 C347 1.382 . S
C348 C352 1.389 . S
C349 C347 1.426 . S
C349 C350 1.375 . S
C349 C353 1.532 . S
C350 H340 0.930 . S
C350 C349 1.375 . S
C350 C351 1.416 . S
C351 C350 1.416 . S
C351 C352 1.371 . S
C352 H341 0.930 . S
C352 C348 1.389 . S
C352 C351 1.371 . S
C353 H342 0.970 . S
C353 H343 0.970 . S
C353 C349 1.532 . S
C353 C354 1.499 . S
C354 C353 1.499 . S
C354 C355 1.370 . S
C354 C359 1.415 . S
C355 H344 0.930 . S
C355 C354 1.370 . S
C355 C356 1.407 . S
C356 C355 1.407 . S
C356 C357 1.365 . S
C357 H345 0.930 . S
C357 C356 1.365 . S
C357 C358 1.393 . S
C358 C357 1.393 . S
C358 C359 1.387 . S
C359 H346 0.930 . S
C359 C354 1.415 . S
C359 C358 1.387 . S
H360 C368 0.930 . S
H361 C371 0.930 . S
H362 C373 0.930 . S
H363 C374 0.970 . S
H364 C374 0.970 . S
H365 C376 0.930 . S
H366 C378 0.930 . S
H367 C380 0.930 . S
C368 H360 0.930 . S
C368 C369 1.382 . S
C368 C370 1.426 . S
C369 C368 1.382 . S
C369 C373 1.389 . S
C370 C368 1.426 . S
C370 C371 1.375 . S
C370 C374 1.532 . S
C371 H361 0.930 . S
C371 C370 1.375 . S
C371 C372 1.416 . S
C372 C371 1.416 . S
C372 C373 1.371 . S
C373 H362 0.930 . S
C373 C369 1.389 . S
C373 C372 1.371 . S
C374 H363 0.970 . S
C374 H364 0.970 . S
C374 C370 1.532 . S
C374 C375 1.499 . S
C375 C374 1.499 . S
C375 C376 1.370 . S
C375 C380 1.415 . S
C376 H365 0.930 . S
C376 C375 1.370 . S
C376 C377 1.407 . S
C377 C376 1.407 . S
C377 C378 1.365 . S
C378 H366 0.930 . S
C378 C377 1.365 . S
C378 C379 1.393 . S
C379 C378 1.393 . S
C379 C380 1.387 . S
C380 H367 0.930 . S
C380 C375 1.415 . S
C380 C379 1.387 . S
H381 C389 0.930 . S
H382 C392 0.930 . S
H383 C394 0.930 . S
H384 C395 0.970 . S
H385 C395 0.970 . S
H386 C397 0.930 . S
H387 C399 0.930 . S
H388 C401 0.930 . S
C389 H381 0.930 . S
C389 C390 1.382 . S
C389 C391 1.426 . S
C390 C389 1.382 . S
C390 C394 1.389 . S
C391 C389 1.426 . S
C391 C392 1.375 . S
C391 C395 1.532 . S
C392 H382 0.930 . S
C392 C391 1.375 . S
C392 C393 1.416 . S
C393 C392 1.416 . S
C393 C394 1.371 . S
C394 H383 0.930 . S
C394 C390 1.389 . S
C394 C393 1.371 . S
C395 H384 0.970 . S
C395 H385 0.970 . S
C395 C391 1.532 . S
C395 C396 1.499 . S
C396 C395 1.499 . S
C396 C397 1.370 . S
C396 C401 1.415 . S
C397 H386 0.930 . S
C397 C396 1.370 . S
C397 C398 1.407 . S
C398 C397 1.407 . S
C398 C399 1.365 . S
C399 H387 0.930 . S
C399 C398 1.365 . S
C399 C400 1.393 . S
C400 C399 1.393 . S
C400 C401 1.387 . S
C401 H388 0.930 . S
C401 C396 1.415 . S
C401 C400 1.387 . S
H402 C410 0.930 . S
H403 C413 0.930 . S
H404 C415 0.930 . S
H405 C416 0.970 . S
H406 C416 0.970 . S
H407 C418 0.930 . S
H408 C420 0.930 . S
H409 C422 0.930 . S
C410 H402 0.930 . S
C410 C411 1.382 . S
C410 C412 1.426 . S
C411 C410 1.382 . S
C411 C415 1.389 . S
C412 C410 1.426 . S
C412 C413 1.375 . S
C412 C416 1.532 . S
C413 H403 0.930 . S
C413 C412 1.375 . S
C413 C414 1.416 . S
C414 C413 1.416 . S
C414 C415 1.371 . S
C415 H404 0.930 . S
C415 C411 1.389 . S
C415 C414 1.371 . S
C416 H405 0.970 . S
C416 H406 0.970 . S
C416 C412 1.532 . S
C416 C417 1.499 . S
C417 C416 1.499 . S
C417 C418 1.370 . S
C417 C422 1.415 . S
C418 H407 0.930 . S
C418 C417 1.370 . S
C418 C419 1.407 . S
C419 C418 1.407 . S
C419 C420 1.365 . S
C420 H408 0.930 . S
C420 C419 1.365 . S
C420 C421 1.393 . S
C421 C420 1.393 . S
C421 C422 1.387 . S
C422 H409 0.930 . S
C422 C417 1.415 . S
C422 C421 1.387 . S
H423 C431 0.930 . S
H424 C434 0.930 . S
H425 C436 0.930 . S
H426 C437 0.970 . S
H427 C437 0.970 . S
H428 C439 0.930 . S
H429 C441 0.930 . S
H430 C443 0.930 . S
C431 H423 0.930 . S
C431 C432 1.382 . S
C431 C433 1.426 . S
C432 C431 1.382 . S
C432 C436 1.389 1_455 S
C433 C431 1.426 . S
C433 C434 1.375 . S
C433 C437 1.532 . S
C434 H424 0.930 . S
C434 C433 1.375 . S
C434 C435 1.416 . S
C435 C434 1.416 . S
C435 C436 1.371 1_455 S
C436 H425 0.930 . S
C436 C432 1.389 1_655 S
C436 C435 1.371 1_655 S
C437 H426 0.970 . S
C437 H427 0.970 . S
C437 C433 1.532 . S
C437 C438 1.499 . S
C438 C437 1.499 . S
C438 C439 1.370 . S
C438 C443 1.415 . S
C439 H428 0.930 . S
C439 C438 1.370 . S
C439 C440 1.407 . S
C440 C439 1.407 . S
C440 C441 1.365 1_455 S
C441 H429 0.930 . S
C441 C440 1.365 1_655 S
C441 C442 1.393 1_655 S
C442 C441 1.393 1_455 S
C442 C443 1.387 . S
C443 H430 0.930 . S
C443 C438 1.415 . S
C443 C442 1.387 . S
H444 C452 0.930 . S
H445 C455 0.930 . S
H446 C457 0.930 . S
H447 C458 0.970 . S
H448 C458 0.970 . S
H449 C460 0.930 . S
H450 C462 0.930 . S
H451 C464 0.930 . S
C452 H444 0.930 . S
C452 C453 1.382 . S
C452 C454 1.426 . S
C453 C452 1.382 . S
C453 C457 1.389 . S
C454 C452 1.426 . S
C454 C455 1.375 . S
C454 C458 1.532 . S
C455 H445 0.930 . S
C455 C454 1.375 . S
C455 C456 1.416 . S
C456 C455 1.416 . S
C456 C457 1.371 . S
C457 H446 0.930 . S
C457 C453 1.389 . S
C457 C456 1.371 . S
C458 H447 0.970 . S
C458 H448 0.970 . S
C458 C454 1.532 . S
C458 C459 1.499 . S
C459 C458 1.499 . S
C459 C460 1.370 . S
C459 C464 1.415 . S
C460 H449 0.930 . S
C460 C459 1.370 . S
C460 C461 1.407 . S
C461 C460 1.407 . S
C461 C462 1.365 . S
C462 H450 0.930 . S
C462 C461 1.365 . S
C462 C463 1.393 . S
C463 C462 1.393 . S
C463 C464 1.387 . S
C464 H451 0.930 . S
C464 C459 1.415 . S
C464 C463 1.387 . S
H465 C473 0.930 . S
H466 C476 0.930 . S
H467 C478 0.930 . S
H468 C479 0.970 . S
H469 C479 0.970 . S
H470 C481 0.930 . S
H471 C483 0.930 . S
H472 C485 0.930 . S
C473 H465 0.930 . S
C473 C474 1.382 . S
C473 C475 1.426 . S
C474 C473 1.382 . S
C474 C478 1.389 1_565 S
C475 C473 1.426 . S
C475 C476 1.375 . S
C475 C479 1.532 . S
C476 H466 0.930 . S
C476 C475 1.375 . S
C476 C477 1.416 . S
C477 C476 1.416 . S
C477 C478 1.371 1_565 S
C478 H467 0.930 . S
C478 C474 1.389 1_545 S
C478 C477 1.371 1_545 S
C479 H468 0.970 . S
C479 H469 0.970 . S
C479 C475 1.532 . S
C479 C480 1.499 . S
C480 C479 1.499 . S
C480 C481 1.370 . S
C480 C485 1.415 . S
C481 H470 0.930 . S
C481 C480 1.370 . S
C481 C482 1.406 . S
C482 C481 1.406 . S
C482 C483 1.365 1_565 S
C483 H471 0.930 . S
C483 C482 1.365 1_545 S
C483 C484 1.393 1_545 S
C484 C483 1.393 1_565 S
C484 C485 1.387 . S
C485 H472 0.930 . S
C485 C480 1.415 . S
C485 C484 1.387 . S
H486 C494 0.930 . S
H487 C497 0.930 . S
H488 C499 0.930 . S
H489 C500 0.970 . S
H490 C500 0.970 . S
H491 C502 0.930 . S
H492 C504 0.930 . S
H493 C506 0.930 . S
C494 H486 0.930 . S
C494 C495 1.382 . S
C494 C496 1.426 . S
C495 C494 1.382 . S
C495 C499 1.389 1_565 S
C496 C494 1.426 . S
C496 C497 1.375 . S
C496 C500 1.532 . S
C497 H487 0.930 . S
C497 C496 1.375 . S
C497 C498 1.467 . S
C498 C497 1.467 . S
C498 C499 1.354 1_565 S
C499 H488 0.930 . S
C499 C495 1.389 1_545 S
C499 C498 1.354 1_545 S
C500 H489 0.970 . S
C500 H490 0.970 . S
C500 C496 1.532 . S
C500 C501 1.499 . S
C501 C500 1.499 . S
C501 C502 1.370 . S
C501 C506 1.415 . S
C502 H491 0.930 . S
C502 C501 1.370 . S
C502 C503 1.407 . S
C503 C502 1.407 . S
C503 C504 1.365 1_565 S
C504 H492 0.930 . S
C504 C503 1.365 1_545 S
C504 C505 1.393 1_545 S
C505 C504 1.393 1_565 S
C505 C506 1.387 . S
C506 H493 0.930 . S
C506 C501 1.415 . S
C506 C505 1.387 . S
H507 C515 0.930 . S
H508 C518 0.930 . S
H509 C520 0.930 . S
H510 C521 0.970 . S
H511 C521 0.970 . S
H512 C523 0.930 . S
H513 C525 0.930 . S
H514 C527 0.930 . S
C515 H507 0.930 . S
C515 C516 1.382 . S
C515 C517 1.426 . S
C516 C515 1.382 . S
C516 C520 1.389 1_455 S
C517 C515 1.426 . S
C517 C518 1.375 . S
C517 C521 1.532 . S
C518 H508 0.930 . S
C518 C517 1.375 . S
C518 C519 1.416 . S
C519 C518 1.416 . S
C519 C520 1.371 1_455 S
C520 H509 0.930 . S
C520 C516 1.389 1_655 S
C520 C519 1.371 1_655 S
C521 H510 0.970 . S
C521 H511 0.970 . S
C521 C517 1.532 . S
C521 C522 1.499 . S
C522 C521 1.499 . S
C522 C523 1.370 . S
C522 C527 1.415 . S
C523 H512 0.930 . S
C523 C522 1.370 . S
C523 C524 1.407 . S
C524 C523 1.407 . S
C524 C525 1.365 1_455 S
C525 H513 0.930 . S
C525 C524 1.365 1_655 S
C525 C526 1.393 1_655 S
C526 C525 1.393 1_455 S
C526 C527 1.387 . S
C527 H514 0.930 . S
C527 C522 1.415 . S
C527 C526 1.387 . S
H528 C536 0.930 . S
H529 C539 0.930 . S
H530 C541 0.930 . S
H531 C542 0.970 . S
H532 C542 0.970 . S
H533 C544 0.930 . S
H534 C546 0.930 . S
H535 C548 0.930 . S
C536 H528 0.930 . S
C536 C537 1.382 . S
C536 C538 1.426 . S
C537 C536 1.382 . S
C537 C541 1.389 . S
C538 C536 1.426 . S
C538 C539 1.375 . S
C538 C542 1.532 . S
C539 H529 0.930 . S
C539 C538 1.375 . S
C539 C540 1.416 . S
C540 C539 1.416 . S
C540 C541 1.371 . S
C541 H530 0.930 . S
C541 C537 1.389 . S
C541 C540 1.371 . S
C542 H531 0.970 . S
C542 H532 0.970 . S
C542 C538 1.532 . S
C542 C543 1.499 . S
C543 C542 1.499 . S
C543 C544 1.370 . S
C543 C548 1.415 . S
C544 H533 0.930 . S
C544 C543 1.370 . S
C544 C545 1.407 . S
C545 C544 1.407 . S
C545 C546 1.365 . S
C546 H534 0.930 . S
C546 C545 1.365 . S
C546 C547 1.393 . S
C547 C546 1.393 . S
C547 C548 1.387 . S
C548 H535 0.930 . S
C548 C543 1.415 . S
C548 C547 1.387 . S
H549 C557 0.930 . S
H550 C560 0.930 . S
H551 C562 0.930 . S
H552 C563 0.970 . S
H553 C563 0.970 . S
H554 C565 0.930 . S
H555 C567 0.930 . S
H556 C569 0.930 . S
C557 H549 0.930 . S
C557 C558 1.382 . S
C557 C559 1.426 . S
C558 C557 1.382 . S
C558 C562 1.389 . S
C559 C557 1.426 . S
C559 C560 1.375 . S
C559 C563 1.532 . S
C560 H550 0.930 . S
C560 C559 1.375 . S
C560 C561 1.416 . S
C561 C560 1.416 . S
C561 C562 1.371 . S
C562 H551 0.930 . S
C562 C558 1.389 . S
C562 C561 1.371 . S
C563 H552 0.970 . S
C563 H553 0.970 . S
C563 C559 1.532 . S
C563 C564 1.499 . S
C564 C563 1.499 . S
C564 C565 1.370 . S
C564 C569 1.415 . S
C565 H554 0.930 . S
C565 C564 1.370 . S
C565 C566 1.407 . S
C566 C565 1.407 . S
C566 C567 1.365 . S
C567 H555 0.930 . S
C567 C566 1.365 . S
C567 C568 1.393 . S
C568 C567 1.393 . S
C568 C569 1.387 . S
C569 H556 0.930 . S
C569 C564 1.415 . S
C569 C568 1.387 . S
H570 C578 0.930 . S
H571 C581 0.930 . S
H572 C583 0.930 . S
H573 C584 0.970 . S
H574 C584 0.970 . S
H575 C586 0.930 . S
H576 C588 0.930 . S
H577 C590 0.930 . S
C578 H570 0.930 . S
C578 C579 1.382 . S
C578 C580 1.426 . S
C579 C578 1.382 . S
C579 C583 1.389 . S
C580 C578 1.426 . S
C580 C581 1.375 . S
C580 C584 1.532 . S
C581 H571 0.930 . S
C581 C580 1.375 . S
C581 C582 1.416 . S
C582 C581 1.416 . S
C582 C583 1.371 . S
C583 H572 0.930 . S
C583 C579 1.389 . S
C583 C582 1.371 . S
C584 H573 0.970 . S
C584 H574 0.970 . S
C584 C580 1.532 . S
C584 C585 1.499 . S
C585 C584 1.499 . S
C585 C586 1.370 . S
C585 C590 1.415 . S
C586 H575 0.930 . S
C586 C585 1.370 . S
C586 C587 1.407 . S
C587 C586 1.407 . S
C587 C588 1.365 . S
C588 H576 0.930 . S
C588 C587 1.365 . S
C588 C589 1.393 . S
C589 C588 1.393 . S
C589 C590 1.387 . S
C590 H577 0.930 . S
C590 C585 1.415 . S
C590 C589 1.387 . S
H591 C599 0.930 . S
H592 C602 0.930 . S
H593 C604 0.930 . S
H594 C605 0.970 . S
H595 C605 0.970 . S
H596 C607 0.930 . S
H597 C609 0.930 . S
H598 C611 0.930 . S
C599 H591 0.930 . S
C599 C600 1.382 . S
C599 C601 1.426 . S
C600 C599 1.382 . S
C600 C604 1.389 . S
C601 C599 1.426 . S
C601 C602 1.375 . S
C601 C605 1.532 . S
C602 H592 0.930 . S
C602 C601 1.375 . S
C602 C603 1.416 . S
C603 C602 1.416 . S
C603 C604 1.371 . S
C604 H593 0.930 . S
C604 C600 1.389 . S
C604 C603 1.371 . S
C605 H594 0.970 . S
C605 H595 0.970 . S
C605 C601 1.532 . S
C605 C606 1.499 . S
C606 C605 1.499 . S
C606 C607 1.370 . S
C606 C611 1.415 . S
C607 H596 0.930 . S
C607 C606 1.370 . S
C607 C608 1.407 . S
C608 C607 1.407 . S
C608 C609 1.365 . S
C609 H597 0.930 . S
C609 C608 1.365 . S
C609 C610 1.393 . S
C610 C609 1.393 . S
C610 C611 1.387 . S
C611 H598 0.930 . S
C611 C606 1.415 . S
C611 C610 1.387 . S
H612 C618 0.930 . S
H613 C622 0.930 . S
H614 C627 0.929 . S
H615 C625 0.929 . S
H616 C620 0.929 . S
H617 C626 0.929 . S
C618 H612 0.930 . S
C618 C619 1.367 . S
C618 C626 1.378 . S
C619 C618 1.367 . S
C619 C627 1.433 1_655 S
C620 H616 0.929 . S
C620 C622 1.378 . S
C620 C624 1.350 1_455 S
C621 C624 1.463 . S
C621 C626 1.350 . S
C621 N629 1.427 1_655 S
C622 H613 0.930 . S
C622 C620 1.378 . S
C622 C623 1.367 1_455 S
C623 C622 1.367 1_655 S
C623 C625 1.433 . S
C624 C620 1.350 1_655 S
C624 C621 1.463 . S
C624 N628 1.427 . S
C625 H615 0.929 . S
C625 C623 1.433 . S
C625 N628 1.384 . S
C626 H617 0.929 . S
C626 C618 1.378 . S
C626 C621 1.350 . S
C627 H614 0.929 . S
C627 C619 1.433 1_455 S
C627 N629 1.384 . S
N628 C624 1.427 . S
N628 C625 1.384 . S
N629 C621 1.427 1_455 S
N629 C627 1.384 . S
H630 C636 0.930 . S
H631 C640 0.930 . S
H632 C645 0.929 . S
H633 C643 0.929 . S
H634 C638 0.929 . S
H635 C644 0.929 . S
C636 H630 0.930 . S
C636 C637 1.367 . S
C636 C644 1.378 . S
C637 C636 1.367 . S
C637 C645 1.433 . S
C638 H634 0.929 . S
C638 C640 1.378 . S
C638 C642 1.350 . S
C639 C642 1.463 . S
C639 C644 1.350 . S
C639 N647 1.427 . S
C640 H631 0.930 . S
C640 C638 1.378 . S
C640 C641 1.367 . S
C641 C640 1.367 . S
C641 C643 1.433 . S
C642 C638 1.350 . S
C642 C639 1.463 . S
C642 N646 1.427 . S
C643 H633 0.929 . S
C643 C641 1.433 . S
C643 N646 1.384 . S
C644 H635 0.929 . S
C644 C636 1.378 . S
C644 C639 1.350 . S
C645 H632 0.929 . S
C645 C637 1.433 . S
C645 N647 1.384 . S
N646 C642 1.427 . S
N646 C643 1.384 . S
N647 C639 1.427 . S
N647 C645 1.384 . S
H648 C654 0.930 . S
H649 C658 0.930 . S
H650 C663 0.928 1_565 S
H651 C661 0.929 . S
H652 C656 0.929 . S
H653 C662 0.929 . S
C654 H648 0.930 . S
C654 C655 1.367 . S
C654 C662 1.378 . S
C655 C654 1.367 . S
C655 C663 1.435 . S
C656 H652 0.929 . S
C656 C658 1.378 . S
C656 C660 1.350 1_565 S
C657 C660 1.463 . S
C657 C662 1.350 . S
C657 N665 1.427 1_545 S
C658 H649 0.930 . S
C658 C656 1.378 . S
C658 C659 1.367 1_565 S
C659 C658 1.367 1_545 S
C659 C661 1.433 . S
C660 C656 1.350 1_545 S
C660 C657 1.463 . S
C660 N664 1.427 . S
C661 H651 0.929 . S
C661 C659 1.433 . S
C661 N664 1.384 . S
C662 H653 0.929 . S
C662 C654 1.378 . S
C662 C657 1.350 . S
C663 H650 0.928 1_545 S
C663 C655 1.435 . S
C663 N665 1.382 1_545 S
N664 C660 1.427 . S
N664 C661 1.384 . S
N665 C657 1.427 1_565 S
N665 C663 1.382 1_565 S
H666 C672 0.930 . S
H667 C676 0.930 . S
H668 C681 0.929 . S
H669 C679 0.929 . S
H670 C674 0.929 . S
H671 C680 0.929 . S
C672 H666 0.930 . S
C672 C673 1.367 . S
C672 C680 1.378 . S
C673 C672 1.367 . S
C673 C681 1.433 1_565 S
C674 H670 0.929 . S
C674 C676 1.378 . S
C674 C678 1.350 1_545 S
C675 C678 1.463 . S
C675 C680 1.350 . S
C675 N683 1.427 1_565 S
C676 H667 0.930 . S
C676 C674 1.378 . S
C676 C677 1.367 1_545 S
C677 C676 1.367 1_565 S
C677 C679 1.433 . S
C678 C674 1.350 1_565 S
C678 C675 1.463 . S
C678 N682 1.427 . S
C679 H669 0.929 . S
C679 C677 1.433 . S
C679 N682 1.384 . S
C680 H671 0.929 . S
C680 C672 1.378 . S
C680 C675 1.350 . S
C681 H668 0.929 . S
C681 C673 1.433 1_545 S
C681 N683 1.384 . S
N682 C678 1.427 . S
N682 C679 1.384 . S
N683 C675 1.427 1_545 S
N683 C681 1.384 . S
H684 C690 0.930 . S
H685 C694 0.930 . S
H686 C699 0.929 . S
H687 C697 0.929 . S
H688 C692 0.929 . S
H689 C698 0.929 . S
C690 H684 0.930 . S
C690 C691 1.367 . S
C690 C698 1.378 . S
C691 C690 1.367 . S
C691 C699 1.433 1_455 S
C692 H688 0.929 . S
C692 C694 1.378 . S
C692 C696 1.350 1_655 S
C693 C696 1.463 . S
C693 C698 1.350 . S
C693 N701 1.427 1_455 S
C694 H685 0.930 . S
C694 C692 1.378 . S
C694 C695 1.367 1_655 S
C695 C694 1.367 1_455 S
C695 C697 1.433 . S
C696 C692 1.350 1_455 S
C696 C693 1.463 . S
C696 N700 1.427 . S
C697 H687 0.929 . S
C697 C695 1.433 . S
C697 N700 1.384 . S
C698 H689 0.929 . S
C698 C690 1.378 . S
C698 C693 1.350 . S
C699 H686 0.929 . S
C699 C691 1.433 1_655 S
C699 N701 1.384 . S
N700 C696 1.427 . S
N700 C697 1.384 . S
N701 C693 1.427 1_655 S
N701 C699 1.384 . S
H702 C708 0.930 . S
H703 C712 0.930 . S
H704 C717 0.929 . S
H705 C715 0.929 . S
H706 C710 0.929 . S
H707 C716 0.929 . S
C708 H702 0.930 . S
C708 C709 1.367 . S
C708 C716 1.378 . S
C709 C708 1.367 . S
C709 C717 1.433 . S
C710 H706 0.929 . S
C710 C712 1.378 . S
C710 C714 1.350 . S
C711 C714 1.463 . S
C711 C716 1.350 . S
C711 N719 1.427 . S
C712 H703 0.930 . S
C712 C710 1.378 . S
C712 C713 1.367 . S
C713 C712 1.367 . S
C713 C715 1.433 . S
C714 C710 1.350 . S
C714 C711 1.463 . S
C714 N718 1.427 . S
C715 H705 0.929 . S
C715 C713 1.433 . S
C715 N718 1.384 . S
C716 H707 0.929 . S
C716 C708 1.378 . S
C716 C711 1.350 . S
C717 H704 0.929 . S
C717 C709 1.433 . S
C717 N719 1.384 . S
N718 C714 1.427 . S
N718 C715 1.384 . S
N719 C711 1.427 . S
N719 C717 1.384 . S
H720 C726 0.930 . S
H721 C730 0.930 . S
H722 C735 0.929 . S
H723 C733 0.929 . S
H724 C728 0.929 . S
H725 C734 0.929 . S
C726 H720 0.930 . S
C726 C727 1.367 . S
C726 C734 1.378 . S
C727 C726 1.367 . S
C727 C735 1.433 1_455 S
C728 H724 0.929 . S
C728 C730 1.378 . S
C728 C732 1.350 1_655 S
C729 C732 1.463 . S
C729 C734 1.350 . S
C729 N737 1.427 1_455 S
C730 H721 0.930 . S
C730 C728 1.378 . S
C730 C731 1.322 1_655 S
C731 C730 1.322 1_455 S
C731 C733 1.463 . S
C732 C728 1.350 1_455 S
C732 C729 1.463 . S
C732 N736 1.427 . S
C733 H723 0.929 . S
C733 C731 1.463 . S
C733 N736 1.384 . S
C734 H725 0.929 . S
C734 C726 1.378 . S
C734 C729 1.350 . S
C735 H722 0.929 . S
C735 C727 1.433 1_655 S
C735 N737 1.384 . S
N736 C732 1.427 . S
N736 C733 1.384 . S
N737 C729 1.427 1_655 S
N737 C735 1.384 . S
H738 C744 0.930 . S
H739 C748 0.930 . S
H740 C753 0.929 . S
H741 C751 0.929 . S
H742 C746 0.929 . S
H743 C752 0.929 . S
C744 H738 0.930 . S
C744 C745 1.367 . S
C744 C752 1.378 . S
C745 C744 1.367 . S
C745 C753 1.433 . S
C746 H742 0.929 . S
C746 C748 1.378 . S
C746 C750 1.350 . S
C747 C750 1.463 . S
C747 C752 1.350 . S
C747 N755 1.427 . S
C748 H739 0.930 . S
C748 C746 1.378 . S
C748 C749 1.367 . S
C749 C748 1.367 . S
C749 C751 1.433 . S
C750 C746 1.350 . S
C750 C747 1.463 . S
C750 N754 1.427 . S
C751 H741 0.929 . S
C751 C749 1.433 . S
C751 N754 1.384 . S
C752 H743 0.929 . S
C752 C744 1.378 . S
C752 C747 1.350 . S
C753 H740 0.929 . S
C753 C745 1.433 . S
C753 N755 1.384 . S
N754 C750 1.427 . S
N754 C751 1.384 . S
N755 C747 1.427 . S
N755 C753 1.384 . S
H756 C762 0.930 . S
H757 C766 0.930 . S
H758 C771 0.929 . S
H759 C769 0.929 . S
H760 C764 0.929 . S
H761 C770 0.929 . S
C762 H756 0.930 . S
C762 C763 1.367 1_545 S
C762 C770 1.378 . S
C763 C762 1.367 1_565 S
C763 C771 1.433 . S
C764 H760 0.929 . S
C764 C766 1.378 . S
C764 C768 1.350 . S
C765 C768 1.463 . S
C765 C770 1.350 1_565 S
C765 N773 1.427 . S
C766 H757 0.930 . S
C766 C764 1.378 . S
C766 C767 1.367 . S
C767 C766 1.367 . S
C767 C769 1.433 1_565 S
C768 C764 1.350 . S
C768 C765 1.463 . S
C768 N772 1.427 1_565 S
C769 H759 0.929 . S
C769 C767 1.433 1_545 S
C769 N772 1.384 . S
C770 H761 0.929 . S
C770 C762 1.378 . S
C770 C765 1.350 1_545 S
C771 H758 0.929 . S
C771 C763 1.433 . S
C771 N773 1.384 . S
N772 C768 1.427 1_545 S
N772 C769 1.384 . S
N773 C765 1.427 . S
N773 C771 1.384 . S
H774 C780 0.930 . S
H775 C784 0.930 . S
H776 C789 0.929 . S
H777 C787 0.929 . S
H778 C782 0.929 . S
H779 C788 0.929 . S
C780 H774 0.930 . S
C780 C781 1.367 1_565 S
C780 C788 1.378 . S
C781 C780 1.367 1_545 S
C781 C789 1.433 . S
C782 H778 0.929 . S
C782 C784 1.378 . S
C782 C786 1.350 . S
C783 C786 1.463 . S
C783 C788 1.350 1_545 S
C783 N791 1.427 . S
C784 H775 0.930 . S
C784 C782 1.378 . S
C784 C785 1.367 . S
C785 C784 1.367 . S
C785 C787 1.433 1_545 S
C786 C782 1.350 . S
C786 C783 1.463 . S
C786 N790 1.427 1_545 S
C787 H777 0.929 . S
C787 C785 1.433 1_565 S
C787 N790 1.384 . S
C788 H779 0.929 . S
C788 C780 1.378 . S
C788 C783 1.350 1_565 S
C789 H776 0.929 . S
C789 C781 1.433 . S
C789 N791 1.384 . S
N790 C786 1.427 1_565 S
N790 C787 1.384 . S
N791 C783 1.427 . S
N791 C789 1.384 . S
H792 C798 0.930 . S
H793 C802 0.930 . S
H794 C807 0.929 . S
H795 C805 0.929 . S
H796 C800 0.929 . S
H797 C806 0.929 . S
C798 H792 0.930 . S
C798 C799 1.367 . S
C798 C806 1.378 . S
C799 C798 1.367 . S
C799 C807 1.433 1_655 S
C800 H796 0.929 . S
C800 C802 1.378 . S
C800 C804 1.350 1_455 S
C801 C804 1.463 . S
C801 C806 1.350 . S
C801 N809 1.427 1_655 S
C802 H793 0.930 . S
C802 C800 1.378 . S
C802 C803 1.367 1_455 S
C803 C802 1.367 1_655 S
C803 C805 1.433 . S
C804 C800 1.350 1_655 S
C804 C801 1.463 . S
C804 N808 1.427 . S
C805 H795 0.929 . S
C805 C803 1.433 . S
C805 N808 1.384 . S
C806 H797 0.929 . S
C806 C798 1.378 . S
C806 C801 1.350 . S
C807 H794 0.929 . S
C807 C799 1.433 1_455 S
C807 N809 1.384 . S
N808 C804 1.427 . S
N808 C805 1.384 . S
N809 C801 1.427 1_455 S
N809 C807 1.384 . S
H810 C816 0.930 . S
H811 C820 0.930 . S
H812 C825 0.929 . S
H813 C823 0.929 . S
H814 C818 0.929 . S
H815 C824 0.929 . S
C816 H810 0.930 . S
C816 C817 1.367 . S
C816 C824 1.378 . S
C817 C816 1.367 . S
C817 C825 1.433 . S
C818 H814 0.929 . S
C818 C820 1.378 . S
C818 C822 1.350 . S
C819 C822 1.463 . S
C819 C824 1.350 . S
C819 N827 1.427 . S
C820 H811 0.930 . S
C820 C818 1.378 . S
C820 C821 1.367 . S
C821 C820 1.367 . S
C821 C823 1.433 . S
C822 C818 1.350 . S
C822 C819 1.463 . S
C822 N826 1.427 . S
C823 H813 0.929 . S
C823 C821 1.433 . S
C823 N826 1.384 . S
C824 H815 0.929 . S
C824 C816 1.378 . S
C824 C819 1.350 . S
C825 H812 0.929 . S
C825 C817 1.433 . S
C825 N827 1.384 . S
N826 C822 1.427 . S
N826 C823 1.384 . S
N827 C819 1.427 . S
N827 C825 1.384 . S
H828 C834 0.930 . S
H829 C838 0.930 . S
H830 C843 0.929 . S
H831 C841 0.929 . S
H832 C836 0.929 . S
H833 C842 0.929 . S
C834 H828 0.930 . S
C834 C835 1.367 . S
C834 C842 1.378 . S
C835 C834 1.367 . S
C835 C843 1.433 . S
C836 H832 0.929 . S
C836 C838 1.378 . S
C836 C840 1.350 . S
C837 C840 1.463 . S
C837 C842 1.350 . S
C837 N845 1.427 . S
C838 H829 0.930 . S
C838 C836 1.378 . S
C838 C839 1.367 . S
C839 C838 1.367 . S
C839 C841 1.433 . S
C840 C836 1.350 . S
C840 C837 1.463 . S
C840 N844 1.427 . S
C841 H831 0.929 . S
C841 C839 1.433 . S
C841 N844 1.384 . S
C842 H833 0.929 . S
C842 C834 1.378 . S
C842 C837 1.350 . S
C843 H830 0.929 . S
C843 C835 1.433 . S
C843 N845 1.384 . S
N844 C840 1.427 . S
N844 C841 1.384 . S
N845 C837 1.427 . S
N845 C843 1.384 . S
H846 C852 0.930 . S
H847 C856 0.930 . S
H848 C861 0.929 . S
H849 C859 0.929 . S
H850 C854 0.929 . S
H851 C860 0.929 . S
C852 H846 0.930 . S
C852 C853 1.367 . S
C852 C860 1.378 . S
C853 C852 1.367 . S
C853 C861 1.433 . S
C854 H850 0.929 . S
C854 C856 1.378 . S
C854 C858 1.350 . S
C855 C858 1.463 . S
C855 C860 1.350 . S
C855 N863 1.427 . S
C856 H847 0.930 . S
C856 C854 1.378 . S
C856 C857 1.367 . S
C857 C856 1.367 . S
C857 C859 1.433 . S
C858 C854 1.350 . S
C858 C855 1.463 . S
C858 N862 1.427 . S
C859 H849 0.929 . S
C859 C857 1.433 . S
C859 N862 1.384 . S
C860 H851 0.929 . S
C860 C852 1.378 . S
C860 C855 1.350 . S
C861 H848 0.929 . S
C861 C853 1.433 . S
C861 N863 1.384 . S
N862 C858 1.427 . S
N862 C859 1.384 . S
N863 C855 1.427 . S
N863 C861 1.384 . S
H864 C870 0.930 . S
H865 C874 0.930 . S
H866 C879 0.929 . S
H867 C877 0.929 . S
H868 C872 0.929 . S
H869 C878 0.929 . S
C870 H864 0.930 . S
C870 C871 1.367 . S
C870 C878 1.378 . S
C871 C870 1.367 . S
C871 C879 1.433 . S
C872 H868 0.929 . S
C872 C874 1.378 . S
C872 C876 1.350 . S
C873 C876 1.463 . S
C873 C878 1.350 . S
C873 N881 1.427 . S
C874 H865 0.930 . S
C874 C872 1.378 . S
C874 C875 1.367 . S
C875 C874 1.367 . S
C875 C877 1.433 . S
C876 C872 1.350 . S
C876 C873 1.463 . S
C876 N880 1.427 . S
C877 H867 0.929 . S
C877 C875 1.433 . S
C877 N880 1.384 . S
C878 H869 0.929 . S
C878 C870 1.378 . S
C878 C873 1.350 . S
C879 H866 0.929 . S
C879 C871 1.433 . S
C879 N881 1.384 . S
N880 C876 1.427 . S
N880 C877 1.384 . S
N881 C873 1.427 . S
N881 C879 1.384 . S
H882 C888 0.930 . S
H883 C892 0.930 . S
H884 C897 0.929 . S
H885 C895 0.929 . S
H886 C890 0.929 . S
H887 C896 0.929 . S
C888 H882 0.930 . S
C888 C889 1.367 . S
C888 C896 1.378 . S
C889 C888 1.367 . S
C889 C897 1.433 . S
C890 H886 0.929 . S
C890 C892 1.378 . S
C890 C894 1.350 . S
C891 C894 1.463 . S
C891 C896 1.350 . S
C891 N899 1.427 . S
C892 H883 0.930 . S
C892 C890 1.378 . S
C892 C893 1.367 . S
C893 C892 1.367 . S
C893 C895 1.433 . S
C894 C890 1.350 . S
C894 C891 1.463 . S
C894 N898 1.427 . S
C895 H885 0.929 . S
C895 C893 1.433 . S
C895 N898 1.384 . S
C896 H887 0.929 . S
C896 C888 1.378 . S
C896 C891 1.350 . S
C897 H884 0.929 . S
C897 C889 1.433 . S
C897 N899 1.384 . S
N898 C894 1.427 . S
N898 C895 1.384 . S
N899 C891 1.427 . S
N899 C897 1.384 . S
H900 C906 0.930 . S
H901 C910 0.930 . S
H902 C915 0.929 . S
H903 C913 0.929 . S
H904 C908 0.929 . S
H905 C914 0.929 . S
C906 H900 0.930 . S
C906 C907 1.367 . S
C906 C914 1.378 . S
C907 C906 1.367 . S
C907 C915 1.433 . S
C908 H904 0.929 . S
C908 C910 1.378 . S
C908 C912 1.350 . S
C909 C912 1.463 . S
C909 C914 1.350 . S
C909 N917 1.427 . S
C910 H901 0.930 . S
C910 C908 1.378 . S
C910 C911 1.367 . S
C911 C910 1.367 . S
C911 C913 1.433 . S
C912 C908 1.350 . S
C912 C909 1.463 . S
C912 N916 1.427 . S
C913 H903 0.929 . S
C913 C911 1.433 . S
C913 N916 1.384 . S
C914 H905 0.929 . S
C914 C906 1.378 . S
C914 C909 1.350 . S
C915 H902 0.929 . S
C915 C907 1.433 . S
C915 N917 1.384 . S
N916 C912 1.427 . S
N916 C913 1.384 . S
N917 C909 1.427 . S
N917 C915 1.384 . S
H918 C924 0.930 . S
H919 C928 0.930 . S
H920 C933 0.929 . S
H921 C931 0.929 . S
H922 C926 0.929 . S
H923 C932 0.929 . S
C924 H918 0.930 . S
C924 C925 1.367 . S
C924 C932 1.378 . S
C925 C924 1.367 . S
C925 C933 1.433 . S
C926 H922 0.929 . S
C926 C928 1.378 . S
C926 C930 1.350 . S
C927 C930 1.463 . S
C927 C932 1.350 . S
C927 N935 1.427 . S
C928 H919 0.930 . S
C928 C926 1.378 . S
C928 C929 1.367 . S
C929 C928 1.367 . S
C929 C931 1.433 . S
C930 C926 1.350 . S
C930 C927 1.463 . S
C930 N934 1.427 . S
C931 H921 0.929 . S
C931 C929 1.433 . S
C931 N934 1.384 . S
C932 H923 0.929 . S
C932 C924 1.378 . S
C932 C927 1.350 . S
C933 H920 0.929 . S
C933 C925 1.433 . S
C933 N935 1.384 . S
N934 C930 1.427 . S
N934 C931 1.384 . S
N935 C927 1.427 . S
N935 C933 1.384 . S
H936 C942 0.930 . S
H937 C946 0.930 . S
H938 C951 0.929 . S
H939 C949 0.929 . S
H940 C944 0.929 . S
H941 C950 0.929 . S
C942 H936 0.930 . S
C942 C943 1.367 . S
C942 C950 1.378 . S
C943 C942 1.367 . S
C943 C951 1.433 . S
C944 H940 0.929 . S
C944 C946 1.378 . S
C944 C948 1.350 . S
C945 C948 1.463 . S
C945 C950 1.350 . S
C945 N953 1.427 . S
C946 H937 0.930 . S
C946 C944 1.378 . S
C946 C947 1.367 . S
C947 C946 1.367 . S
C947 C949 1.433 . S
C948 C944 1.350 . S
C948 C945 1.463 . S
C948 N952 1.427 . S
C949 H939 0.929 . S
C949 C947 1.433 . S
C949 N952 1.384 . S
C950 H941 0.929 . S
C950 C942 1.378 . S
C950 C945 1.350 . S
C951 H938 0.929 . S
C951 C943 1.433 . S
C951 N953 1.384 . S
N952 C948 1.427 . S
N952 C949 1.384 . S
N953 C945 1.427 . S
N953 C951 1.384 . S
H954 C960 0.930 . S
H955 C964 0.930 . S
H956 C969 0.929 . S
H957 C967 0.929 . S
H958 C962 0.929 . S
H959 C968 0.929 . S
C960 H954 0.930 . S
C960 C961 1.367 . S
C960 C968 1.378 . S
C961 C960 1.367 . S
C961 C969 1.433 . S
C962 H958 0.929 . S
C962 C964 1.378 . S
C962 C966 1.350 . S
C963 C966 1.463 . S
C963 C968 1.350 . S
C963 N971 1.427 . S
C964 H955 0.930 . S
C964 C962 1.378 . S
C964 C965 1.367 . S
C965 C964 1.367 . S
C965 C967 1.433 . S
C966 C962 1.350 . S
C966 C963 1.463 . S
C966 N970 1.427 . S
C967 H957 0.929 . S
C967 C965 1.433 . S
C967 N970 1.384 . S
C968 H959 0.929 . S
C968 C960 1.378 . S
C968 C963 1.350 . S
C969 H956 0.929 . S
C969 C961 1.433 . S
C969 N971 1.384 . S
N970 C966 1.427 . S
N970 C967 1.384 . S
N971 C963 1.427 . S
N971 C969 1.384 . S
H972 C978 0.930 . S
H973 C982 0.930 . S
H974 C987 0.929 . S
H975 C985 0.929 . S
H976 C980 0.929 . S
H977 C986 0.929 . S
C978 H972 0.930 . S
C978 C979 1.367 . S
C978 C986 1.378 . S
C979 C978 1.367 . S
C979 C987 1.433 . S
C980 H976 0.929 . S
C980 C982 1.378 . S
C980 C984 1.350 . S
C981 C984 1.463 . S
C981 C986 1.350 . S
C981 N989 1.427 . S
C982 H973 0.930 . S
C982 C980 1.378 . S
C982 C983 1.367 . S
C983 C982 1.367 . S
C983 C985 1.433 . S
C984 C980 1.350 . S
C984 C981 1.463 . S
C984 N988 1.427 . S
C985 H975 0.929 . S
C985 C983 1.433 . S
C985 N988 1.384 . S
C986 H977 0.929 . S
C986 C978 1.378 . S
C986 C981 1.350 . S
C987 H974 0.929 . S
C987 C979 1.433 . S
C987 N989 1.384 . S
N988 C984 1.427 . S
N988 C985 1.384 . S
N989 C981 1.427 . S
N989 C987 1.384 . S
H990 C996 0.930 . S
H991 C1000 0.930 . S
H992 C1005 0.929 . S
H993 C1003 0.929 . S
H994 C998 0.929 . S
H995 C1004 0.929 . S
C996 H990 0.930 . S
C996 C997 1.367 . S
C996 C1004 1.378 . S
C997 C996 1.367 . S
C997 C1005 1.433 . S
C998 H994 0.929 . S
C998 C1000 1.378 . S
C998 C1002 1.350 . S
C999 C1002 1.463 . S
C999 C1004 1.350 . S
C999 N1007 1.427 . S
C1000 H991 0.930 . S
C1000 C998 1.378 . S
C1000 C1001 1.367 . S
C1001 C1000 1.367 . S
C1001 C1003 1.433 . S
C1002 C998 1.350 . S
C1002 C999 1.463 . S
C1002 N1006 1.427 . S
C1003 H993 0.929 . S
C1003 C1001 1.433 . S
C1003 N1006 1.384 . S
C1004 H995 0.929 . S
C1004 C996 1.378 . S
C1004 C999 1.350 . S
C1005 H992 0.929 . S
C1005 C997 1.433 . S
C1005 N1007 1.384 . S
N1006 C1002 1.427 . S
N1006 C1003 1.384 . S
N1007 C999 1.427 . S
N1007 C1005 1.384 . S
H1008 C1014 0.930 . S
H1009 C1018 0.930 . S
H1010 C1023 0.929 . S
H1011 C1021 0.929 . S
H1012 C1016 0.929 . S
H1013 C1022 0.929 . S
C1014 H1008 0.930 . S
C1014 C1015 1.367 . S
C1014 C1022 1.378 . S
C1015 C1014 1.367 . S
C1015 C1023 1.433 . S
C1016 H1012 0.929 . S
C1016 C1018 1.378 . S
C1016 C1020 1.350 . S
C1017 C1020 1.463 . S
C1017 C1022 1.350 . S
C1017 N1025 1.427 . S
C1018 H1009 0.930 . S
C1018 C1016 1.378 . S
C1018 C1019 1.367 . S
C1019 C1018 1.367 . S
C1019 C1021 1.433 . S
C1020 C1016 1.350 . S
C1020 C1017 1.463 . S
C1020 N1024 1.427 . S
C1021 H1011 0.929 . S
C1021 C1019 1.433 . S
C1021 N1024 1.384 . S
C1022 H1013 0.929 . S
C1022 C1014 1.378 . S
C1022 C1017 1.350 . S
C1023 H1010 0.929 . S
C1023 C1015 1.433 . S
C1023 N1025 1.384 . S
N1024 C1020 1.427 . S
N1024 C1021 1.384 . S
N1025 C1017 1.427 . S
N1025 C1023 1.384 . S
H1026 C1032 0.930 . S
H1027 C1036 0.930 . S
H1028 C1041 0.929 . S
H1029 C1039 0.929 . S
H1030 C1034 0.929 . S
H1031 C1040 0.929 . S
C1032 H1026 0.930 . S
C1032 C1033 1.367 . S
C1032 C1040 1.378 . S
C1033 C1032 1.367 . S
C1033 C1041 1.433 . S
C1034 H1030 0.929 . S
C1034 C1036 1.378 . S
C1034 C1038 1.350 . S
C1035 C1038 1.463 . S
C1035 C1040 1.350 . S
C1035 N1043 1.427 . S
C1036 H1027 0.930 . S
C1036 C1034 1.378 . S
C1036 C1037 1.367 . S
C1037 C1036 1.367 . S
C1037 C1039 1.433 . S
C1038 C1034 1.350 . S
C1038 C1035 1.463 . S
C1038 N1042 1.427 . S
C1039 H1029 0.929 . S
C1039 C1037 1.433 . S
C1039 N1042 1.384 . S
C1040 H1031 0.929 . S
C1040 C1032 1.378 . S
C1040 C1035 1.350 . S
C1041 H1028 0.929 . S
C1041 C1033 1.433 . S
C1041 N1043 1.384 . S
N1042 C1038 1.427 . S
N1042 C1039 1.384 . S
N1043 C1035 1.427 . S
N1043 C1041 1.384 . S
H1044 C1050 0.930 . S
H1045 C1054 0.930 . S
H1046 C1059 0.929 . S
H1047 C1057 0.929 . S
H1048 C1052 0.929 . S
H1049 C1058 0.929 . S
C1050 H1044 0.930 . S
C1050 C1051 1.367 . S
C1050 C1058 1.378 . S
C1051 C1050 1.367 . S
C1051 C1059 1.433 . S
C1052 H1048 0.929 . S
C1052 C1054 1.378 . S
C1052 C1056 1.350 . S
C1053 C1056 1.463 . S
C1053 C1058 1.350 . S
C1053 N1061 1.427 . S
C1054 H1045 0.930 . S
C1054 C1052 1.378 . S
C1054 C1055 1.367 . S
C1055 C1054 1.367 . S
C1055 C1057 1.433 . S
C1056 C1052 1.350 . S
C1056 C1053 1.463 . S
C1056 N1060 1.427 . S
C1057 H1047 0.929 . S
C1057 C1055 1.433 . S
C1057 N1060 1.384 . S
C1058 H1049 0.929 . S
C1058 C1050 1.378 . S
C1058 C1053 1.350 . S
C1059 H1046 0.929 . S
C1059 C1051 1.433 . S
C1059 N1061 1.384 . S
N1060 C1056 1.427 . S
N1060 C1057 1.384 . S
N1061 C1053 1.427 . S
N1061 C1059 1.384 . S
H1062 C1068 0.930 . S
H1063 C1072 0.930 . S
H1064 C1077 0.929 . S
H1065 C1075 0.929 . S
H1066 C1070 0.929 . S
H1067 C1076 0.929 . S
C1068 H1062 0.930 . S
C1068 C1069 1.367 . S
C1068 C1076 1.378 . S
C1069 C1068 1.367 . S
C1069 C1077 1.433 . S
C1070 H1066 0.929 . S
C1070 C1072 1.378 . S
C1070 C1074 1.350 . S
C1071 C1074 1.463 . S
C1071 C1076 1.350 . S
C1071 N1079 1.427 . S
C1072 H1063 0.930 . S
C1072 C1070 1.378 . S
C1072 C1073 1.367 . S
C1073 C1072 1.367 . S
C1073 C1075 1.433 . S
C1074 C1070 1.350 . S
C1074 C1071 1.463 . S
C1074 N1078 1.427 . S
C1075 H1065 0.929 . S
C1075 C1073 1.433 . S
C1075 N1078 1.384 . S
C1076 H1067 0.929 . S
C1076 C1068 1.378 . S
C1076 C1071 1.350 . S
C1077 H1064 0.929 . S
C1077 C1069 1.433 . S
C1077 N1079 1.384 . S
N1078 C1074 1.427 . S
N1078 C1075 1.384 . S
N1079 C1071 1.427 . S
N1079 C1077 1.384 . S
H1080 C1086 0.930 . S
H1081 C1090 0.930 . S
H1082 C1095 0.929 . S
H1083 C1093 0.929 . S
H1084 C1088 0.929 . S
H1085 C1094 0.929 . S
C1086 H1080 0.930 . S
C1086 C1087 1.367 . S
C1086 C1094 1.378 . S
C1087 C1086 1.367 . S
C1087 C1095 1.433 . S
C1088 H1084 0.929 . S
C1088 C1090 1.378 . S
C1088 C1092 1.350 . S
C1089 C1092 1.463 . S
C1089 C1094 1.350 . S
C1089 N1097 1.427 . S
C1090 H1081 0.930 . S
C1090 C1088 1.378 . S
C1090 C1091 1.367 . S
C1091 C1090 1.367 . S
C1091 C1093 1.433 . S
C1092 C1088 1.350 . S
C1092 C1089 1.463 . S
C1092 N1096 1.427 . S
C1093 H1083 0.929 . S
C1093 C1091 1.433 . S
C1093 N1096 1.384 . S
C1094 H1085 0.929 . S
C1094 C1086 1.378 . S
C1094 C1089 1.350 . S
C1095 H1082 0.929 . S
C1095 C1087 1.433 . S
C1095 N1097 1.384 . S
N1096 C1092 1.427 . S
N1096 C1093 1.384 . S
N1097 C1089 1.427 . S
N1097 C1095 1.384 . S
H1098 C1104 0.930 . S
H1099 C1108 0.930 . S
H1100 C1113 0.929 . S
H1101 C1111 0.929 . S
H1102 C1106 0.929 . S
H1103 C1112 0.929 . S
C1104 H1098 0.930 . S
C1104 C1105 1.367 . S
C1104 C1112 1.378 . S
C1105 C1104 1.367 . S
C1105 C1113 1.433 . S
C1106 H1102 0.929 . S
C1106 C1108 1.378 . S
C1106 C1110 1.350 . S
C1107 C1110 1.463 . S
C1107 C1112 1.350 . S
C1107 N1115 1.427 . S
C1108 H1099 0.930 . S
C1108 C1106 1.378 . S
C1108 C1109 1.367 . S
C1109 C1108 1.367 . S
C1109 C1111 1.433 . S
C1110 C1106 1.350 . S
C1110 C1107 1.463 . S
C1110 N1114 1.427 . S
C1111 H1101 0.929 . S
C1111 C1109 1.433 . S
C1111 N1114 1.384 . S
C1112 H1103 0.929 . S
C1112 C1104 1.378 . S
C1112 C1107 1.350 . S
C1113 H1100 0.929 . S
C1113 C1105 1.433 . S
C1113 N1115 1.384 . S
N1114 C1110 1.427 . S
N1114 C1111 1.384 . S
N1115 C1107 1.427 . S
N1115 C1113 1.384 . S
H1116 C1122 0.930 . S
H1117 C1126 0.930 . S
H1118 C1131 0.929 . S
H1119 C1129 0.929 . S
H1120 C1124 0.929 . S
H1121 C1130 0.929 . S
C1122 H1116 0.930 . S
C1122 C1123 1.367 . S
C1122 C1130 1.378 . S
C1123 C1122 1.367 . S
C1123 C1131 1.433 . S
C1124 H1120 0.929 . S
C1124 C1126 1.378 . S
C1124 C1128 1.350 . S
C1125 C1128 1.463 . S
C1125 C1130 1.350 . S
C1125 N1133 1.427 . S
C1126 H1117 0.930 . S
C1126 C1124 1.378 . S
C1126 C1127 1.367 . S
C1127 C1126 1.367 . S
C1127 C1129 1.433 . S
C1128 C1124 1.350 . S
C1128 C1125 1.463 . S
C1128 N1132 1.427 . S
C1129 H1119 0.929 . S
C1129 C1127 1.433 . S
C1129 N1132 1.384 . S
C1130 H1121 0.929 . S
C1130 C1122 1.378 . S
C1130 C1125 1.350 . S
C1131 H1118 0.929 . S
C1131 C1123 1.433 . S
C1131 N1133 1.384 . S
N1132 C1128 1.427 . S
N1132 C1129 1.384 . S
N1133 C1125 1.427 . S
N1133 C1131 1.384 . S
H1134 C1140 0.930 . S
H1135 C1144 0.930 . S
H1136 C1149 0.929 . S
H1137 C1147 0.929 . S
H1138 C1142 0.929 . S
H1139 C1148 0.929 . S
C1140 H1134 0.930 . S
C1140 C1141 1.367 . S
C1140 C1148 1.378 . S
C1141 C1140 1.367 . S
C1141 C1149 1.433 . S
C1142 H1138 0.929 . S
C1142 C1144 1.378 . S
C1142 C1146 1.350 . S
C1143 C1146 1.463 . S
C1143 C1148 1.350 . S
C1143 N1151 1.427 . S
C1144 H1135 0.930 . S
C1144 C1142 1.378 . S
C1144 C1145 1.367 . S
C1145 C1144 1.367 . S
C1145 C1147 1.433 . S
C1146 C1142 1.350 . S
C1146 C1143 1.463 . S
C1146 N1150 1.427 . S
C1147 H1137 0.929 . S
C1147 C1145 1.433 . S
C1147 N1150 1.384 . S
C1148 H1139 0.929 . S
C1148 C1140 1.378 . S
C1148 C1143 1.350 . S
C1149 H1136 0.929 . S
C1149 C1141 1.433 . S
C1149 N1151 1.384 . S
N1150 C1146 1.427 . S
N1150 C1147 1.384 . S
N1151 C1143 1.427 . S
N1151 C1149 1.384 . S
H1152 C1158 0.930 . S
H1153 C1162 0.930 . S
H1154 C1167 0.929 . S
H1155 C1165 0.929 . S
H1156 C1160 0.929 . S
H1157 C1166 0.929 . S
C1158 H1152 0.930 . S
C1158 C1159 1.367 . S
C1158 C1166 1.378 . S
C1159 C1158 1.367 . S
C1159 C1167 1.433 . S
C1160 H1156 0.929 . S
C1160 C1162 1.378 . S
C1160 C1164 1.350 . S
C1161 C1164 1.463 . S
C1161 C1166 1.350 . S
C1161 N1169 1.427 . S
C1162 H1153 0.930 . S
C1162 C1160 1.378 . S
C1162 C1163 1.367 . S
C1163 C1162 1.367 . S
C1163 C1165 1.433 . S
C1164 C1160 1.350 . S
C1164 C1161 1.463 . S
C1164 N1168 1.427 . S
C1165 H1155 0.929 . S
C1165 C1163 1.433 . S
C1165 N1168 1.384 . S
C1166 H1157 0.929 . S
C1166 C1158 1.378 . S
C1166 C1161 1.350 . S
C1167 H1154 0.929 . S
C1167 C1159 1.433 . S
C1167 N1169 1.384 . S
N1168 C1164 1.427 . S
N1168 C1165 1.384 . S
N1169 C1161 1.427 . S
N1169 C1167 1.384 . S
H1170 C1176 0.930 . S
H1171 C1180 0.930 . S
H1172 C1185 0.929 . S
H1173 C1183 0.929 . S
H1174 C1178 0.929 . S
H1175 C1184 0.929 . S
C1176 H1170 0.930 . S
C1176 C1177 1.367 . S
C1176 C1184 1.378 . S
C1177 C1176 1.367 . S
C1177 C1185 1.433 . S
C1178 H1174 0.929 . S
C1178 C1180 1.378 . S
C1178 C1182 1.350 . S
C1179 C1182 1.463 . S
C1179 C1184 1.350 . S
C1179 N1187 1.427 . S
C1180 H1171 0.930 . S
C1180 C1178 1.378 . S
C1180 C1181 1.367 . S
C1181 C1180 1.367 . S
C1181 C1183 1.433 . S
C1182 C1178 1.350 . S
C1182 C1179 1.463 . S
C1182 N1186 1.427 . S
C1183 H1173 0.929 . S
C1183 C1181 1.433 . S
C1183 N1186 1.384 . S
C1184 H1175 0.929 . S
C1184 C1176 1.378 . S
C1184 C1179 1.350 . S
C1185 H1172 0.929 . S
C1185 C1177 1.433 . S
C1185 N1187 1.384 . S
N1186 C1182 1.427 . S
N1186 C1183 1.384 . S
N1187 C1179 1.427 . S
N1187 C1185 1.384 . S
H1188 C1194 0.930 . S
H1189 C1198 0.930 . S
H1190 C1203 0.929 . S
H1191 C1201 0.929 . S
H1192 C1196 0.929 . S
H1193 C1202 0.929 . S
C1194 H1188 0.930 . S
C1194 C1195 1.367 . S
C1194 C1202 1.378 . S
C1195 C1194 1.367 . S
C1195 C1203 1.433 . S
C1196 H1192 0.929 . S
C1196 C1198 1.378 . S
C1196 C1200 1.350 . S
C1197 C1200 1.463 . S
C1197 C1202 1.350 . S
C1197 N1205 1.427 . S
C1198 H1189 0.930 . S
C1198 C1196 1.378 . S
C1198 C1199 1.367 . S
C1199 C1198 1.367 . S
C1199 C1201 1.433 . S
C1200 C1196 1.350 . S
C1200 C1197 1.463 . S
C1200 N1204 1.427 . S
C1201 H1191 0.929 . S
C1201 C1199 1.433 . S
C1201 N1204 1.384 . S
C1202 H1193 0.929 . S
C1202 C1194 1.378 . S
C1202 C1197 1.350 . S
C1203 H1190 0.929 . S
C1203 C1195 1.433 . S
C1203 N1205 1.384 . S
N1204 C1200 1.427 . S
N1204 C1201 1.384 . S
N1205 C1197 1.427 . S
N1205 C1203 1.384 . S
H1206 C1212 0.930 . S
H1207 C1216 0.930 . S
H1208 C1221 0.929 . S
H1209 C1219 0.929 . S
H1210 C1214 0.929 . S
H1211 C1220 0.929 . S
C1212 H1206 0.930 . S
C1212 C1213 1.367 . S
C1212 C1220 1.378 . S
C1213 C1212 1.367 . S
C1213 C1221 1.433 . S
C1214 H1210 0.929 . S
C1214 C1216 1.378 . S
C1214 C1218 1.350 . S
C1215 C1218 1.463 . S
C1215 C1220 1.350 . S
C1215 N1223 1.427 . S
C1216 H1207 0.930 . S
C1216 C1214 1.378 . S
C1216 C1217 1.367 . S
C1217 C1216 1.367 . S
C1217 C1219 1.433 . S
C1218 C1214 1.350 . S
C1218 C1215 1.463 . S
C1218 N1222 1.427 . S
C1219 H1209 0.929 . S
C1219 C1217 1.433 . S
C1219 N1222 1.384 . S
C1220 H1211 0.929 . S
C1220 C1212 1.378 . S
C1220 C1215 1.350 . S
C1221 H1208 0.929 . S
C1221 C1213 1.433 . S
C1221 N1223 1.384 . S
N1222 C1218 1.427 . S
N1222 C1219 1.384 . S
N1223 C1215 1.427 . S
N1223 C1221 1.384 . S
H1224 C1230 0.930 . S
H1225 C1234 0.930 . S
H1226 C1239 0.929 . S
H1227 C1237 0.929 . S
H1228 C1232 0.929 . S
H1229 C1238 0.929 . S
C1230 H1224 0.930 . S
C1230 C1231 1.367 . S
C1230 C1238 1.378 . S
C1231 C1230 1.367 . S
C1231 C1239 1.433 . S
C1232 H1228 0.929 . S
C1232 C1234 1.378 . S
C1232 C1236 1.350 . S
C1233 C1236 1.463 . S
C1233 C1238 1.350 . S
C1233 N1241 1.427 . S
C1234 H1225 0.930 . S
C1234 C1232 1.378 . S
C1234 C1235 1.367 . S
C1235 C1234 1.367 . S
C1235 C1237 1.433 . S
C1236 C1232 1.350 . S
C1236 C1233 1.463 . S
C1236 N1240 1.427 . S
C1237 H1227 0.929 . S
C1237 C1235 1.433 . S
C1237 N1240 1.384 . S
C1238 H1229 0.929 . S
C1238 C1230 1.378 . S
C1238 C1233 1.350 . S
C1239 H1226 0.929 . S
C1239 C1231 1.433 . S
C1239 N1241 1.384 . S
N1240 C1236 1.427 . S
N1240 C1237 1.384 . S
N1241 C1233 1.427 . S
N1241 C1239 1.384 . S
H1242 C1248 0.930 . S
H1243 C1252 0.930 . S
H1244 C1257 0.929 . S
H1245 C1255 0.929 . S
H1246 C1250 0.929 . S
H1247 C1256 0.929 . S
C1248 H1242 0.930 . S
C1248 C1249 1.367 . S
C1248 C1256 1.378 . S
C1249 C1248 1.367 . S
C1249 C1257 1.433 . S
C1250 H1246 0.929 . S
C1250 C1252 1.378 . S
C1250 C1254 1.350 . S
C1251 C1254 1.463 . S
C1251 C1256 1.350 . S
C1251 N1259 1.427 . S
C1252 H1243 0.930 . S
C1252 C1250 1.378 . S
C1252 C1253 1.367 . S
C1253 C1252 1.367 . S
C1253 C1255 1.433 . S
C1254 C1250 1.350 . S
C1254 C1251 1.463 . S
C1254 N1258 1.427 . S
C1255 H1245 0.929 . S
C1255 C1253 1.433 . S
C1255 N1258 1.384 . S
C1256 H1247 0.929 . S
C1256 C1248 1.378 . S
C1256 C1251 1.350 . S
C1257 H1244 0.929 . S
C1257 C1249 1.433 . S
C1257 N1259 1.384 . S
N1258 C1254 1.427 . S
N1258 C1255 1.384 . S
N1259 C1251 1.427 . S
N1259 C1257 1.384 . S
H1260 C1266 0.930 . S
H1261 C1270 0.930 . S
H1262 C1275 0.929 . S
H1263 C1273 0.929 . S
H1264 C1268 0.929 . S
H1265 C1274 0.929 . S
C1266 H1260 0.930 . S
C1266 C1267 1.367 . S
C1266 C1274 1.378 . S
C1267 C1266 1.367 . S
C1267 C1275 1.433 . S
C1268 H1264 0.929 . S
C1268 C1270 1.378 . S
C1268 C1272 1.350 . S
C1269 C1272 1.463 . S
C1269 C1274 1.350 . S
C1269 N1277 1.427 . S
C1270 H1261 0.930 . S
C1270 C1268 1.378 . S
C1270 C1271 1.367 . S
C1271 C1270 1.367 . S
C1271 C1273 1.433 . S
C1272 C1268 1.350 . S
C1272 C1269 1.463 . S
C1272 N1276 1.427 . S
C1273 H1263 0.929 . S
C1273 C1271 1.433 . S
C1273 N1276 1.384 . S
C1274 H1265 0.929 . S
C1274 C1266 1.378 . S
C1274 C1269 1.350 . S
C1275 H1262 0.929 . S
C1275 C1267 1.433 . S
C1275 N1277 1.384 . S
N1276 C1272 1.427 . S
N1276 C1273 1.384 . S
N1277 C1269 1.427 . S
N1277 C1275 1.384 . S
H1278 C1284 0.930 1_556 S
H1279 C1288 0.930 . S
H1280 C1293 0.929 . S
H1281 C1291 0.929 . S
H1282 C1286 0.929 . S
H1283 C1292 0.929 . S
C1284 H1278 0.930 1_554 S
C1284 C1285 1.367 . S
C1284 C1292 1.378 . S
C1285 C1284 1.367 . S
C1285 C1293 1.433 . S
C1286 H1282 0.929 . S
C1286 C1288 1.378 . S
C1286 C1290 1.350 . S
C1287 C1290 1.463 . S
C1287 C1292 1.350 . S
C1287 N1295 1.427 . S
C1288 H1279 0.930 . S
C1288 C1286 1.378 . S
C1288 C1289 1.367 . S
C1289 C1288 1.367 . S
C1289 C1291 1.433 . S
C1290 C1286 1.350 . S
C1290 C1287 1.463 . S
C1290 N1294 1.427 . S
C1291 H1281 0.929 . S
C1291 C1289 1.433 . S
C1291 N1294 1.384 . S
C1292 H1283 0.929 . S
C1292 C1284 1.378 . S
C1292 C1287 1.350 . S
C1293 H1280 0.929 . S
C1293 C1285 1.433 . S
C1293 N1295 1.384 . S
N1294 C1290 1.427 . S
N1294 C1291 1.384 . S
N1295 C1287 1.427 . S
N1295 C1293 1.384 . S
H1296 C1302 0.930 . S
H1297 C1306 0.930 . S
H1298 C1311 0.929 1_556 S
H1299 C1309 0.929 . S
H1300 C1304 0.929 . S
H1301 C1310 0.929 . S
C1302 H1296 0.930 . S
C1302 C1303 1.367 . S
C1302 C1310 1.378 . S
C1303 C1302 1.367 . S
C1303 C1311 1.433 . S
C1304 H1300 0.929 . S
C1304 C1306 1.378 . S
C1304 C1308 1.350 . S
C1305 C1308 1.463 . S
C1305 C1310 1.350 . S
C1305 N1313 1.427 . S
C1306 H1297 0.930 . S
C1306 C1304 1.378 . S
C1306 C1307 1.367 . S
C1307 C1306 1.367 . S
C1307 C1309 1.433 . S
C1308 C1304 1.350 . S
C1308 C1305 1.463 . S
C1308 N1312 1.427 . S
C1309 H1299 0.929 . S
C1309 C1307 1.433 . S
C1309 N1312 1.384 . S
C1310 H1301 0.929 . S
C1310 C1302 1.378 . S
C1310 C1305 1.350 . S
C1311 H1298 0.929 1_554 S
C1311 C1303 1.433 . S
C1311 N1313 1.384 . S
N1312 C1308 1.427 . S
N1312 C1309 1.384 . S
N1313 C1305 1.427 . S
N1313 C1311 1.384 . S
H1314 C1320 0.930 . S
H1315 C1324 0.930 . S
H1316 C1329 0.929 . S
H1317 C1327 0.929 . S
H1318 C1322 0.929 . S
H1319 C1328 0.929 . S
C1320 H1314 0.930 . S
C1320 C1321 1.367 . S
C1320 C1328 1.378 . S
C1321 C1320 1.367 . S
C1321 C1329 1.433 . S
C1322 H1318 0.929 . S
C1322 C1324 1.378 . S
C1322 C1326 1.350 . S
C1323 C1326 1.463 . S
C1323 C1328 1.350 . S
C1323 N1331 1.427 . S
C1324 H1315 0.930 . S
C1324 C1322 1.378 . S
C1324 C1325 1.367 . S
C1325 C1324 1.367 . S
C1325 C1327 1.433 . S
C1326 C1322 1.350 . S
C1326 C1323 1.463 . S
C1326 N1330 1.427 . S
C1327 H1317 0.929 . S
C1327 C1325 1.433 . S
C1327 N1330 1.384 . S
C1328 H1319 0.929 . S
C1328 C1320 1.378 . S
C1328 C1323 1.350 . S
C1329 H1316 0.929 . S
C1329 C1321 1.433 . S
C1329 N1331 1.384 . S
N1330 C1326 1.427 . S
N1330 C1327 1.384 . S
N1331 C1323 1.427 . S
N1331 C1329 1.384 . S
H1332 C1338 0.930 1_554 S
H1333 C1342 0.930 . S
H1334 C1347 0.929 . S
H1335 C1345 0.929 . S
H1336 C1340 0.929 . S
H1337 C1346 0.929 . S
C1338 H1332 0.930 1_556 S
C1338 C1339 1.367 . S
C1338 C1346 1.378 . S
C1339 C1338 1.367 . S
C1339 C1347 1.433 . S
C1340 H1336 0.929 . S
C1340 C1342 1.378 . S
C1340 C1344 1.350 . S
C1341 C1344 1.463 . S
C1341 C1346 1.350 . S
C1341 N1349 1.427 . S
C1342 H1333 0.930 . S
C1342 C1340 1.378 . S
C1342 C1343 1.367 . S
C1343 C1342 1.367 . S
C1343 C1345 1.433 . S
C1344 C1340 1.350 . S
C1344 C1341 1.463 . S
C1344 N1348 1.427 . S
C1345 H1335 0.929 . S
C1345 C1343 1.433 . S
C1345 N1348 1.384 . S
C1346 H1337 0.929 . S
C1346 C1338 1.378 . S
C1346 C1341 1.350 . S
C1347 H1334 0.929 . S
C1347 C1339 1.433 . S
C1347 N1349 1.384 . S
N1348 C1344 1.427 . S
N1348 C1345 1.384 . S
N1349 C1341 1.427 . S
N1349 C1347 1.384 . S
H1350 C1356 0.930 . S
H1351 C1360 0.930 . S
H1352 C1365 0.929 . S
H1353 C1363 0.929 . S
H1354 C1358 0.929 . S
H1355 C1364 0.929 . S
C1356 H1350 0.930 . S
C1356 C1357 1.367 . S
C1356 C1364 1.378 . S
C1357 C1356 1.367 . S
C1357 C1365 1.433 . S
C1358 H1354 0.929 . S
C1358 C1360 1.378 . S
C1358 C1362 1.350 . S
C1359 C1362 1.463 . S
C1359 C1364 1.350 . S
C1359 N1367 1.427 . S
C1360 H1351 0.930 . S
C1360 C1358 1.378 . S
C1360 C1361 1.367 . S
C1361 C1360 1.367 . S
C1361 C1363 1.433 . S
C1362 C1358 1.350 . S
C1362 C1359 1.463 . S
C1362 N1366 1.427 . S
C1363 H1353 0.929 . S
C1363 C1361 1.433 . S
C1363 N1366 1.384 . S
C1364 H1355 0.929 . S
C1364 C1356 1.378 . S
C1364 C1359 1.350 . S
C1365 H1352 0.929 . S
C1365 C1357 1.433 . S
C1365 N1367 1.384 . S
N1366 C1362 1.427 . S
N1366 C1363 1.384 . S
N1367 C1359 1.427 . S
N1367 C1365 1.384 . S
H1368 C1374 0.930 . S
H1369 C1378 0.930 . S
H1370 C1383 0.929 1_554 S
H1371 C1381 0.929 . S
H1372 C1376 0.929 . S
H1373 C1382 0.929 . S
C1374 H1368 0.930 . S
C1374 C1375 1.367 . S
C1374 C1382 1.378 . S
C1375 C1374 1.367 . S
C1375 C1383 1.433 . S
C1376 H1372 0.929 . S
C1376 C1378 1.378 . S
C1376 C1380 1.350 . S
C1377 C1380 1.463 . S
C1377 C1382 1.350 . S
C1377 N1385 1.427 . S
C1378 H1369 0.930 . S
C1378 C1376 1.378 . S
C1378 C1379 1.367 . S
C1379 C1378 1.367 . S
C1379 C1381 1.433 . S
C1380 C1376 1.350 . S
C1380 C1377 1.463 . S
C1380 N1384 1.427 . S
C1381 H1371 0.929 . S
C1381 C1379 1.433 . S
C1381 N1384 1.384 . S
C1382 H1373 0.929 . S
C1382 C1374 1.378 . S
C1382 C1377 1.350 . S
C1383 H1370 0.929 1_556 S
C1383 C1375 1.433 . S
C1383 N1385 1.384 . S
N1384 C1380 1.427 . S
N1384 C1381 1.384 . S
N1385 C1377 1.427 . S
N1385 C1383 1.384 . S
H1386 C1392 0.930 . S
H1387 C1396 0.930 . S
H1388 C1401 0.929 . S
H1389 C1399 0.929 . S
H1390 C1394 0.929 . S
H1391 C1400 0.929 . S
C1392 H1386 0.930 . S
C1392 C1393 1.367 . S
C1392 C1400 1.378 . S
C1393 C1392 1.367 . S
C1393 C1401 1.433 . S
C1394 H1390 0.929 . S
C1394 C1396 1.378 . S
C1394 C1398 1.350 . S
C1395 C1398 1.463 . S
C1395 C1400 1.350 . S
C1395 N1403 1.427 . S
C1396 H1387 0.930 . S
C1396 C1394 1.378 . S
C1396 C1397 1.367 . S
C1397 C1396 1.367 . S
C1397 C1399 1.433 . S
C1398 C1394 1.350 . S
C1398 C1395 1.463 . S
C1398 N1402 1.427 . S
C1399 H1389 0.929 . S
C1399 C1397 1.433 . S
C1399 N1402 1.384 . S
C1400 H1391 0.929 . S
C1400 C1392 1.378 . S
C1400 C1395 1.350 . S
C1401 H1388 0.929 . S
C1401 C1393 1.433 . S
C1401 N1403 1.384 . S
N1402 C1398 1.427 . S
N1402 C1399 1.384 . S
N1403 C1395 1.427 . S
N1403 C1401 1.384 . S
H1404 C1410 0.930 . S
H1405 C1414 0.930 . S
H1406 C1419 0.916 1_554 S
H1407 C1417 0.929 . S
H1408 C1412 0.929 . S
H1409 C1418 0.929 . S
C1410 H1404 0.930 . S
C1410 C1411 1.367 . S
C1410 C1418 1.378 . S
C1411 C1410 1.367 . S
C1411 C1419 1.441 . S
C1412 H1408 0.929 . S
C1412 C1414 1.378 . S
C1412 C1416 1.350 . S
C1413 C1416 1.463 . S
C1413 C1418 1.350 . S
C1413 N1421 1.427 . S
C1414 H1405 0.930 . S
C1414 C1412 1.378 . S
C1414 C1415 1.367 . S
C1415 C1414 1.367 . S
C1415 C1417 1.433 . S
C1416 C1412 1.350 . S
C1416 C1413 1.463 . S
C1416 N1420 1.427 . S
C1417 H1407 0.929 . S
C1417 C1415 1.433 . S
C1417 N1420 1.384 . S
C1418 H1409 0.929 . S
C1418 C1410 1.378 . S
C1418 C1413 1.350 . S
C1419 H1406 0.916 1_556 S
C1419 C1411 1.441 . S
C1419 N1421 1.390 . S
N1420 C1416 1.427 . S
N1420 C1417 1.384 . S
N1421 C1413 1.427 . S
N1421 C1419 1.390 . S
H1422 C1428 0.930 . S
H1423 C1432 0.930 . S
H1424 C1437 0.929 . S
H1425 C1435 0.929 . S
H1426 C1430 0.929 . S
H1427 C1436 0.929 . S
C1428 H1422 0.930 . S
C1428 C1429 1.367 . S
C1428 C1436 1.378 . S
C1429 C1428 1.367 . S
C1429 C1437 1.433 . S
C1430 H1426 0.929 . S
C1430 C1432 1.378 . S
C1430 C1434 1.350 . S
C1431 C1434 1.463 . S
C1431 C1436 1.350 . S
C1431 N1439 1.427 . S
C1432 H1423 0.930 . S
C1432 C1430 1.378 . S
C1432 C1433 1.367 . S
C1433 C1432 1.367 . S
C1433 C1435 1.433 . S
C1434 C1430 1.350 . S
C1434 C1431 1.463 . S
C1434 N1438 1.427 . S
C1435 H1425 0.929 . S
C1435 C1433 1.433 . S
C1435 N1438 1.384 . S
C1436 H1427 0.929 . S
C1436 C1428 1.378 . S
C1436 C1431 1.350 . S
C1437 H1424 0.929 . S
C1437 C1429 1.433 . S
C1437 N1439 1.384 . S
N1438 C1434 1.427 . S
N1438 C1435 1.384 . S
N1439 C1431 1.427 . S
N1439 C1437 1.384 . S
H1440 C1446 0.930 . S
H1441 C1450 0.930 . S
H1442 C1455 0.929 1_556 S
H1443 C1453 0.929 . S
H1444 C1448 0.929 . S
H1445 C1454 0.929 . S
C1446 H1440 0.930 . S
C1446 C1447 1.367 . S
C1446 C1454 1.378 . S
C1447 C1446 1.367 . S
C1447 C1455 1.433 . S
C1448 H1444 0.929 . S
C1448 C1450 1.378 . S
C1448 C1452 1.350 . S
C1449 C1452 1.463 . S
C1449 C1454 1.350 . S
C1449 N1457 1.427 . S
C1450 H1441 0.930 . S
C1450 C1448 1.378 . S
C1450 C1451 1.367 . S
C1451 C1450 1.367 . S
C1451 C1453 1.433 . S
C1452 C1448 1.350 . S
C1452 C1449 1.463 . S
C1452 N1456 1.427 . S
C1453 H1443 0.929 . S
C1453 C1451 1.433 . S
C1453 N1456 1.384 . S
C1454 H1445 0.929 . S
C1454 C1446 1.378 . S
C1454 C1449 1.350 . S
C1455 H1442 0.929 1_554 S
C1455 C1447 1.433 . S
C1455 N1457 1.384 . S
N1456 C1452 1.427 . S
N1456 C1453 1.384 . S
N1457 C1449 1.427 . S
N1457 C1455 1.384 . S
H1458 C1464 0.930 . S
H1459 C1468 0.930 . S
H1460 C1473 0.929 1_556 S
H1461 C1471 0.929 . S
H1462 C1466 0.929 . S
H1463 C1472 0.929 . S
C1464 H1458 0.930 . S
C1464 C1465 1.367 . S
C1464 C1472 1.378 . S
C1465 C1464 1.367 . S
C1465 C1473 1.433 . S
C1466 H1462 0.929 . S
C1466 C1468 1.378 . S
C1466 C1470 1.350 . S
C1467 C1470 1.463 . S
C1467 C1472 1.350 . S
C1467 N1475 1.427 . S
C1468 H1459 0.930 . S
C1468 C1466 1.378 . S
C1468 C1469 1.367 . S
C1469 C1468 1.367 . S
C1469 C1471 1.433 . S
C1470 C1466 1.350 . S
C1470 C1467 1.463 . S
C1470 N1474 1.427 . S
C1471 H1461 0.929 . S
C1471 C1469 1.433 . S
C1471 N1474 1.384 . S
C1472 H1463 0.929 . S
C1472 C1464 1.378 . S
C1472 C1467 1.350 . S
C1473 H1460 0.929 1_554 S
C1473 C1465 1.433 . S
C1473 N1475 1.384 . S
N1474 C1470 1.427 . S
N1474 C1471 1.384 . S
N1475 C1467 1.427 . S
N1475 C1473 1.384 . S
H1476 C1482 0.930 . S
H1477 C1486 0.930 . S
H1478 C1491 0.929 . S
H1479 C1489 0.929 . S
H1480 C1484 0.929 . S
H1481 C1490 0.929 . S
C1482 H1476 0.930 . S
C1482 C1483 1.367 . S
C1482 C1490 1.378 . S
C1483 C1482 1.367 . S
C1483 C1491 1.433 . S
C1484 H1480 0.929 . S
C1484 C1486 1.378 . S
C1484 C1488 1.350 . S
C1485 C1488 1.463 . S
C1485 C1490 1.350 . S
C1485 N1493 1.427 . S
C1486 H1477 0.930 . S
C1486 C1484 1.378 . S
C1486 C1487 1.367 . S
C1487 C1486 1.367 . S
C1487 C1489 1.433 . S
C1488 C1484 1.350 . S
C1488 C1485 1.463 . S
C1488 N1492 1.427 . S
C1489 H1479 0.929 . S
C1489 C1487 1.433 . S
C1489 N1492 1.384 . S
C1490 H1481 0.929 . S
C1490 C1482 1.378 . S
C1490 C1485 1.350 . S
C1491 H1478 0.929 . S
C1491 C1483 1.433 . S
C1491 N1493 1.384 . S
N1492 C1488 1.427 . S
N1492 C1489 1.384 . S
N1493 C1485 1.427 . S
N1493 C1491 1.384 . S
H1494 C1500 0.930 . S
H1495 C1504 0.930 . S
H1496 C1509 0.929 . S
H1497 C1507 0.929 . S
H1498 C1502 0.929 . S
H1499 C1508 0.929 . S
C1500 H1494 0.930 . S
C1500 C1501 1.367 . S
C1500 C1508 1.378 . S
C1501 C1500 1.367 . S
C1501 C1509 1.433 . S
C1502 H1498 0.929 . S
C1502 C1504 1.378 . S
C1502 C1506 1.350 . S
C1503 C1506 1.463 . S
C1503 C1508 1.350 . S
C1503 N1511 1.427 . S
C1504 H1495 0.930 . S
C1504 C1502 1.378 . S
C1504 C1505 1.367 . S
C1505 C1504 1.367 . S
C1505 C1507 1.433 . S
C1506 C1502 1.350 . S
C1506 C1503 1.463 . S
C1506 N1510 1.427 . S
C1507 H1497 0.929 . S
C1507 C1505 1.433 . S
C1507 N1510 1.384 . S
C1508 H1499 0.929 . S
C1508 C1500 1.378 . S
C1508 C1503 1.350 . S
C1509 H1496 0.929 . S
C1509 C1501 1.433 . S
C1509 N1511 1.384 . S
N1510 C1506 1.427 . S
N1510 C1507 1.384 . S
N1511 C1503 1.427 . S
N1511 C1509 1.384 . S
H1512 C1518 0.930 . S
H1513 C1522 0.930 . S
H1514 C1527 0.929 . S
H1515 C1525 0.929 . S
H1516 C1520 0.929 . S
H1517 C1526 0.929 . S
C1518 H1512 0.930 . S
C1518 C1519 1.367 . S
C1518 C1526 1.378 . S
C1519 C1518 1.367 . S
C1519 C1527 1.433 . S
C1520 H1516 0.929 . S
C1520 C1522 1.378 . S
C1520 C1524 1.350 . S
C1521 C1524 1.463 . S
C1521 C1526 1.350 . S
C1521 N1529 1.427 . S
C1522 H1513 0.930 . S
C1522 C1520 1.378 . S
C1522 C1523 1.367 . S
C1523 C1522 1.367 . S
C1523 C1525 1.433 . S
C1524 C1520 1.350 . S
C1524 C1521 1.463 . S
C1524 N1528 1.427 . S
C1525 H1515 0.929 . S
C1525 C1523 1.433 . S
C1525 N1528 1.384 . S
C1526 H1517 0.929 . S
C1526 C1518 1.378 . S
C1526 C1521 1.350 . S
C1527 H1514 0.929 . S
C1527 C1519 1.433 . S
C1527 N1529 1.384 . S
N1528 C1524 1.427 . S
N1528 C1525 1.384 . S
N1529 C1521 1.427 . S
N1529 C1527 1.384 . S
H1530 C1536 0.930 . S
H1531 C1540 0.930 . S
H1532 C1545 0.929 1_655 S
H1533 C1543 0.929 . S
H1534 C1538 0.929 . S
H1535 C1544 0.929 . S
C1536 H1530 0.930 . S
C1536 C1537 1.367 . S
C1536 C1544 1.378 . S
C1537 C1536 1.367 . S
C1537 C1545 1.433 . S
C1538 H1534 0.929 . S
C1538 C1540 1.378 . S
C1538 C1542 1.350 1_655 S
C1539 C1542 1.463 . S
C1539 C1544 1.350 . S
C1539 N1547 1.415 1_455 S
C1540 H1531 0.930 . S
C1540 C1538 1.378 . S
C1540 C1541 1.367 1_655 S
C1541 C1540 1.367 1_455 S
C1541 C1543 1.433 . S
C1542 C1538 1.350 1_455 S
C1542 C1539 1.463 . S
C1542 N1546 1.427 . S
C1543 H1533 0.929 . S
C1543 C1541 1.433 . S
C1543 N1546 1.384 . S
C1544 H1535 0.929 . S
C1544 C1536 1.378 . S
C1544 C1539 1.350 . S
C1545 H1532 0.929 1_455 S
C1545 C1537 1.433 . S
C1545 N1547 1.350 1_455 S
N1546 C1542 1.427 . S
N1546 C1543 1.384 . S
N1547 C1539 1.415 1_655 S
N1547 C1545 1.350 1_655 S
H1548 C1554 0.930 . S
H1549 C1558 0.930 . S
H1550 C1563 0.929 . S
H1551 C1561 0.929 . S
H1552 C1556 0.929 . S
H1553 C1562 0.929 . S
C1554 H1548 0.930 . S
C1554 C1555 1.367 . S
C1554 C1562 1.378 . S
C1555 C1554 1.367 . S
C1555 C1563 1.433 . S
C1556 H1552 0.929 . S
C1556 C1558 1.378 . S
C1556 C1560 1.350 . S
C1557 C1560 1.463 . S
C1557 C1562 1.350 . S
C1557 N1565 1.427 . S
C1558 H1549 0.930 . S
C1558 C1556 1.378 . S
C1558 C1559 1.367 . S
C1559 C1558 1.367 . S
C1559 C1561 1.433 . S
C1560 C1556 1.350 . S
C1560 C1557 1.463 . S
C1560 N1564 1.427 . S
C1561 H1551 0.929 . S
C1561 C1559 1.433 . S
C1561 N1564 1.384 . S
C1562 H1553 0.929 . S
C1562 C1554 1.378 . S
C1562 C1557 1.350 . S
C1563 H1550 0.929 . S
C1563 C1555 1.433 . S
C1563 N1565 1.384 . S
N1564 C1560 1.427 . S
N1564 C1561 1.384 . S
N1565 C1557 1.427 . S
N1565 C1563 1.384 . S
H1566 C1572 0.930 . S
H1567 C1576 0.930 . S
H1568 C1581 0.929 . S
H1569 C1579 0.929 . S
H1570 C1574 0.929 . S
H1571 C1580 0.929 . S
C1572 H1566 0.930 . S
C1572 C1573 1.367 1_545 S
C1572 C1580 1.378 . S
C1573 C1572 1.367 1_565 S
C1573 C1581 1.433 . S
C1574 H1570 0.929 . S
C1574 C1576 1.378 . S
C1574 C1578 1.350 . S
C1575 C1578 1.463 . S
C1575 C1580 1.350 1_565 S
C1575 N1583 1.427 . S
C1576 H1567 0.930 . S
C1576 C1574 1.378 . S
C1576 C1577 1.367 . S
C1577 C1576 1.367 . S
C1577 C1579 1.433 1_565 S
C1578 C1574 1.350 . S
C1578 C1575 1.463 . S
C1578 N1582 1.427 1_565 S
C1579 H1569 0.929 . S
C1579 C1577 1.433 1_545 S
C1579 N1582 1.384 . S
C1580 H1571 0.929 . S
C1580 C1572 1.378 . S
C1580 C1575 1.350 1_545 S
C1581 H1568 0.929 . S
C1581 C1573 1.433 . S
C1581 N1583 1.384 . S
N1582 C1578 1.427 1_545 S
N1582 C1579 1.384 . S
N1583 C1575 1.427 . S
N1583 C1581 1.384 . S
H1584 C1590 0.930 . S
H1585 C1594 0.930 . S
H1586 C1599 0.929 . S
H1587 C1597 0.929 . S
H1588 C1592 0.929 . S
H1589 C1598 0.929 . S
C1590 H1584 0.930 . S
C1590 C1591 1.367 . S
C1590 C1598 1.378 . S
C1591 C1590 1.367 . S
C1591 C1599 1.433 1_565 S
C1592 H1588 0.929 . S
C1592 C1594 1.378 . S
C1592 C1596 1.350 1_545 S
C1593 C1596 1.463 . S
C1593 C1598 1.350 . S
C1593 N1601 1.427 1_565 S
C1594 H1585 0.930 . S
C1594 C1592 1.378 . S
C1594 C1595 1.367 1_545 S
C1595 C1594 1.367 1_565 S
C1595 C1597 1.433 . S
C1596 C1592 1.350 1_565 S
C1596 C1593 1.463 . S
C1596 N1600 1.427 . S
C1597 H1587 0.929 . S
C1597 C1595 1.433 . S
C1597 N1600 1.384 . S
C1598 H1589 0.929 . S
C1598 C1590 1.378 . S
C1598 C1593 1.350 . S
C1599 H1586 0.929 . S
C1599 C1591 1.433 1_545 S
C1599 N1601 1.384 . S
N1600 C1596 1.427 . S
N1600 C1597 1.384 . S
N1601 C1593 1.427 1_545 S
N1601 C1599 1.384 . S
H1602 C1608 0.930 . S
H1603 C1612 0.930 . S
H1604 C1617 0.929 . S
H1605 C1615 0.929 . S
H1606 C1610 0.929 . S
H1607 C1616 0.929 . S
C1608 H1602 0.930 . S
C1608 C1609 1.367 . S
C1608 C1616 1.378 . S
C1609 C1608 1.367 . S
C1609 C1617 1.433 1_455 S
C1610 H1606 0.929 . S
C1610 C1612 1.378 . S
C1610 C1614 1.350 1_655 S
C1611 C1614 1.463 . S
C1611 C1616 1.350 . S
C1611 N1619 1.427 1_455 S
C1612 H1603 0.930 . S
C1612 C1610 1.378 . S
C1612 C1613 1.327 1_655 S
C1613 C1612 1.327 1_455 S
C1613 C1615 1.458 . S
C1614 C1610 1.350 1_455 S
C1614 C1611 1.463 . S
C1614 N1618 1.427 . S
C1615 H1605 0.929 . S
C1615 C1613 1.458 . S
C1615 N1618 1.384 . S
C1616 H1607 0.929 . S
C1616 C1608 1.378 . S
C1616 C1611 1.350 . S
C1617 H1604 0.929 . S
C1617 C1609 1.433 1_655 S
C1617 N1619 1.384 . S
N1618 C1614 1.427 . S
N1618 C1615 1.384 . S
N1619 C1611 1.427 1_655 S
N1619 C1617 1.384 . S
H1620 C1626 0.930 . S
H1621 C1630 0.930 . S
H1622 C1635 0.929 . S
H1623 C1633 0.929 . S
H1624 C1628 0.929 . S
H1625 C1634 0.929 . S
C1626 H1620 0.930 . S
C1626 C1627 1.367 . S
C1626 C1634 1.378 . S
C1627 C1626 1.367 . S
C1627 C1635 1.433 . S
C1628 H1624 0.929 . S
C1628 C1630 1.378 . S
C1628 C1632 1.350 . S
C1629 C1632 1.463 . S
C1629 C1634 1.350 . S
C1629 N1637 1.427 . S
C1630 H1621 0.930 . S
C1630 C1628 1.378 . S
C1630 C1631 1.367 . S
C1631 C1630 1.367 . S
C1631 C1633 1.433 . S
C1632 C1628 1.350 . S
C1632 C1629 1.463 . S
C1632 N1636 1.427 . S
C1633 H1623 0.929 . S
C1633 C1631 1.433 . S
C1633 N1636 1.384 . S
C1634 H1625 0.929 . S
C1634 C1626 1.378 . S
C1634 C1629 1.350 . S
C1635 H1622 0.929 . S
C1635 C1627 1.433 . S
C1635 N1637 1.384 . S
N1636 C1632 1.427 . S
N1636 C1633 1.384 . S
N1637 C1629 1.427 . S
N1637 C1635 1.384 . S
H1638 C1644 0.930 . S
H1639 C1648 0.930 . S
H1640 C1653 0.929 . S
H1641 C1651 0.929 . S
H1642 C1646 0.929 . S
H1643 C1652 0.929 . S
C1644 H1638 0.930 . S
C1644 C1645 1.367 . S
C1644 C1652 1.378 . S
C1645 C1644 1.367 . S
C1645 C1653 1.433 . S
C1646 H1642 0.929 . S
C1646 C1648 1.378 . S
C1646 C1650 1.350 . S
C1647 C1650 1.463 . S
C1647 C1652 1.350 . S
C1647 N1655 1.427 . S
C1648 H1639 0.930 . S
C1648 C1646 1.378 . S
C1648 C1649 1.367 . S
C1649 C1648 1.367 . S
C1649 C1651 1.433 . S
C1650 C1646 1.350 . S
C1650 C1647 1.463 . S
C1650 N1654 1.427 . S
C1651 H1641 0.929 . S
C1651 C1649 1.433 . S
C1651 N1654 1.384 . S
C1652 H1643 0.929 . S
C1652 C1644 1.378 . S
C1652 C1647 1.350 . S
C1653 H1640 0.929 . S
C1653 C1645 1.433 . S
C1653 N1655 1.384 . S
N1654 C1650 1.427 . S
N1654 C1651 1.384 . S
N1655 C1647 1.427 . S
N1655 C1653 1.384 . S
H1656 C1662 0.930 . S
H1657 C1666 0.930 . S
H1658 C1671 0.929 . S
H1659 C1669 0.929 . S
H1660 C1664 0.929 . S
H1661 C1670 0.929 . S
C1662 H1656 0.930 . S
C1662 C1663 1.367 . S
C1662 C1670 1.378 . S
C1663 C1662 1.367 . S
C1663 C1671 1.433 . S
C1664 H1660 0.929 . S
C1664 C1666 1.378 . S
C1664 C1668 1.350 . S
C1665 C1668 1.463 . S
C1665 C1670 1.350 . S
C1665 N1673 1.427 . S
C1666 H1657 0.930 . S
C1666 C1664 1.378 . S
C1666 C1667 1.367 . S
C1667 C1666 1.367 . S
C1667 C1669 1.433 . S
C1668 C1664 1.350 . S
C1668 C1665 1.463 . S
C1668 N1672 1.427 . S
C1669 H1659 0.929 . S
C1669 C1667 1.433 . S
C1669 N1672 1.384 . S
C1670 H1661 0.929 . S
C1670 C1662 1.378 . S
C1670 C1665 1.350 . S
C1671 H1658 0.929 . S
C1671 C1663 1.433 . S
C1671 N1673 1.384 . S
N1672 C1668 1.427 . S
N1672 C1669 1.384 . S
N1673 C1665 1.427 . S
N1673 C1671 1.384 . S
H1674 C1680 0.930 . S
H1675 C1684 0.930 . S
H1676 C1689 0.929 . S
H1677 C1687 0.929 . S
H1678 C1682 0.929 . S
H1679 C1688 0.929 . S
C1680 H1674 0.930 . S
C1680 C1681 1.367 . S
C1680 C1688 1.378 . S
C1681 C1680 1.367 . S
C1681 C1689 1.433 . S
C1682 H1678 0.929 . S
C1682 C1684 1.378 . S
C1682 C1686 1.350 . S
C1683 C1686 1.463 . S
C1683 C1688 1.350 . S
C1683 N1691 1.427 . S
C1684 H1675 0.930 . S
C1684 C1682 1.378 . S
C1684 C1685 1.367 . S
C1685 C1684 1.367 . S
C1685 C1687 1.433 . S
C1686 C1682 1.350 . S
C1686 C1683 1.463 . S
C1686 N1690 1.427 . S
C1687 H1677 0.929 . S
C1687 C1685 1.433 . S
C1687 N1690 1.384 . S
C1688 H1679 0.929 . S
C1688 C1680 1.378 . S
C1688 C1683 1.350 . S
C1689 H1676 0.929 . S
C1689 C1681 1.433 . S
C1689 N1691 1.384 . S
N1690 C1686 1.427 . S
N1690 C1687 1.384 . S
N1691 C1683 1.427 . S
N1691 C1689 1.384 . S
H1692 C1698 0.930 . S
H1693 C1702 0.930 . S
H1694 C1707 0.929 . S
H1695 C1705 0.929 . S
H1696 C1700 0.929 . S
H1697 C1706 0.929 . S
C1698 H1692 0.930 . S
C1698 C1699 1.367 . S
C1698 C1706 1.378 . S
C1699 C1698 1.367 . S
C1699 C1707 1.433 . S
C1700 H1696 0.929 . S
C1700 C1702 1.378 . S
C1700 C1704 1.350 . S
C1701 C1704 1.463 . S
C1701 C1706 1.350 . S
C1701 N1709 1.427 . S
C1702 H1693 0.930 . S
C1702 C1700 1.378 . S
C1702 C1703 1.367 . S
C1703 C1702 1.367 . S
C1703 C1705 1.433 . S
C1704 C1700 1.350 . S
C1704 C1701 1.463 . S
C1704 N1708 1.427 . S
C1705 H1695 0.929 . S
C1705 C1703 1.433 . S
C1705 N1708 1.384 . S
C1706 H1697 0.929 . S
C1706 C1698 1.378 . S
C1706 C1701 1.350 . S
C1707 H1694 0.929 . S
C1707 C1699 1.433 . S
C1707 N1709 1.384 . S
N1708 C1704 1.427 . S
N1708 C1705 1.384 . S
N1709 C1701 1.427 . S
N1709 C1707 1.384 . S
H1710 C1716 0.930 . S
H1711 C1720 0.930 . S
H1712 C1725 0.929 . S
H1713 C1723 0.929 . S
H1714 C1718 0.929 . S
H1715 C1724 0.929 . S
C1716 H1710 0.930 . S
C1716 C1717 1.367 1_455 S
C1716 C1724 1.378 . S
C1717 C1716 1.367 1_655 S
C1717 C1725 1.433 . S
C1718 H1714 0.929 . S
C1718 C1720 1.378 . S
C1718 C1722 1.350 . S
C1719 C1722 1.463 . S
C1719 C1724 1.350 1_655 S
C1719 N1727 1.427 . S
C1720 H1711 0.930 . S
C1720 C1718 1.378 . S
C1720 C1721 1.367 . S
C1721 C1720 1.367 . S
C1721 C1723 1.433 1_655 S
C1722 C1718 1.350 . S
C1722 C1719 1.463 . S
C1722 N1726 1.427 1_655 S
C1723 H1713 0.929 . S
C1723 C1721 1.433 1_455 S
C1723 N1726 1.384 . S
C1724 H1715 0.929 . S
C1724 C1716 1.378 . S
C1724 C1719 1.350 1_455 S
C1725 H1712 0.929 . S
C1725 C1717 1.433 . S
C1725 N1727 1.384 . S
N1726 C1722 1.427 1_455 S
N1726 C1723 1.384 . S
N1727 C1719 1.427 . S
N1727 C1725 1.384 . S
H1728 C1734 0.930 . S
H1729 C1738 0.930 . S
H1730 C1743 0.929 . S
H1731 C1741 0.929 . S
H1732 C1736 0.929 . S
H1733 C1742 0.929 . S
C1734 H1728 0.930 . S
C1734 C1735 1.367 . S
C1734 C1742 1.378 . S
C1735 C1734 1.367 . S
C1735 C1743 1.433 . S
C1736 H1732 0.929 . S
C1736 C1738 1.378 . S
C1736 C1740 1.350 . S
C1737 C1740 1.463 . S
C1737 C1742 1.350 . S
C1737 N1745 1.427 . S
C1738 H1729 0.930 . S
C1738 C1736 1.378 . S
C1738 C1739 1.367 . S
C1739 C1738 1.367 . S
C1739 C1741 1.433 . S
C1740 C1736 1.350 . S
C1740 C1737 1.463 . S
C1740 N1744 1.427 . S
C1741 H1731 0.929 . S
C1741 C1739 1.433 . S
C1741 N1744 1.384 . S
C1742 H1733 0.929 . S
C1742 C1734 1.378 . S
C1742 C1737 1.350 . S
C1743 H1730 0.929 . S
C1743 C1735 1.433 . S
C1743 N1745 1.384 . S
N1744 C1740 1.427 . S
N1744 C1741 1.384 . S
N1745 C1737 1.427 . S
N1745 C1743 1.384 . S
H1746 C1752 0.930 . S
H1747 C1756 0.930 . S
H1748 C1761 0.929 . S
H1749 C1759 0.929 . S
H1750 C1754 0.929 . S
H1751 C1760 0.929 . S
C1752 H1746 0.930 . S
C1752 C1753 1.367 . S
C1752 C1760 1.378 . S
C1753 C1752 1.367 . S
C1753 C1761 1.433 . S
C1754 H1750 0.929 . S
C1754 C1756 1.378 . S
C1754 C1758 1.350 . S
C1755 C1758 1.463 . S
C1755 C1760 1.350 . S
C1755 N1763 1.427 . S
C1756 H1747 0.930 . S
C1756 C1754 1.378 . S
C1756 C1757 1.367 . S
C1757 C1756 1.367 . S
C1757 C1759 1.433 . S
C1758 C1754 1.350 . S
C1758 C1755 1.463 . S
C1758 N1762 1.427 . S
C1759 H1749 0.929 . S
C1759 C1757 1.433 . S
C1759 N1762 1.384 . S
C1760 H1751 0.929 . S
C1760 C1752 1.378 . S
C1760 C1755 1.350 . S
C1761 H1748 0.929 . S
C1761 C1753 1.433 . S
C1761 N1763 1.384 . S
N1762 C1758 1.427 . S
N1762 C1759 1.384 . S
N1763 C1755 1.427 . S
N1763 C1761 1.384 . S
H1764 C1770 0.930 . S
H1765 C1774 0.930 . S
H1766 C1779 0.929 . S
H1767 C1777 0.929 . S
H1768 C1772 0.929 . S
H1769 C1778 0.929 . S
C1770 H1764 0.930 . S
C1770 C1771 1.367 . S
C1770 C1778 1.378 . S
C1771 C1770 1.367 . S
C1771 C1779 1.433 . S
C1772 H1768 0.929 . S
C1772 C1774 1.378 . S
C1772 C1776 1.350 . S
C1773 C1776 1.463 . S
C1773 C1778 1.350 . S
C1773 N1781 1.427 . S
C1774 H1765 0.930 . S
C1774 C1772 1.378 . S
C1774 C1775 1.367 . S
C1775 C1774 1.367 . S
C1775 C1777 1.433 . S
C1776 C1772 1.350 . S
C1776 C1773 1.463 . S
C1776 N1780 1.427 . S
C1777 H1767 0.929 . S
C1777 C1775 1.433 . S
C1777 N1780 1.384 . S
C1778 H1769 0.929 . S
C1778 C1770 1.378 . S
C1778 C1773 1.350 . S
C1779 H1766 0.929 . S
C1779 C1771 1.433 . S
C1779 N1781 1.384 . S
N1780 C1776 1.427 . S
N1780 C1777 1.384 . S
N1781 C1773 1.427 . S
N1781 C1779 1.384 . S
H1782 C1788 0.930 . S
H1783 C1792 0.930 . S
H1784 C1797 0.929 . S
H1785 C1795 0.929 . S
H1786 C1790 0.929 . S
H1787 C1796 0.929 . S
C1788 H1782 0.930 . S
C1788 C1789 1.367 . S
C1788 C1796 1.378 . S
C1789 C1788 1.367 . S
C1789 C1797 1.433 . S
C1790 H1786 0.929 . S
C1790 C1792 1.378 . S
C1790 C1794 1.350 . S
C1791 C1794 1.463 . S
C1791 C1796 1.350 . S
C1791 N1799 1.427 . S
C1792 H1783 0.930 . S
C1792 C1790 1.378 . S
C1792 C1793 1.367 . S
C1793 C1792 1.367 . S
C1793 C1795 1.433 . S
C1794 C1790 1.350 . S
C1794 C1791 1.463 . S
C1794 N1798 1.427 . S
C1795 H1785 0.929 . S
C1795 C1793 1.433 . S
C1795 N1798 1.384 . S
C1796 H1787 0.929 . S
C1796 C1788 1.378 . S
C1796 C1791 1.350 . S
C1797 H1784 0.929 . S
C1797 C1789 1.433 . S
C1797 N1799 1.384 . S
N1798 C1794 1.427 . S
N1798 C1795 1.384 . S
N1799 C1791 1.427 . S
N1799 C1797 1.384 . S
H1800 C1806 0.930 . S
H1801 C1810 0.930 . S
H1802 C1815 0.929 . S
H1803 C1813 0.929 . S
H1804 C1808 0.929 . S
H1805 C1814 0.929 . S
C1806 H1800 0.930 . S
C1806 C1807 1.367 . S
C1806 C1814 1.378 . S
C1807 C1806 1.367 . S
C1807 C1815 1.433 . S
C1808 H1804 0.929 . S
C1808 C1810 1.378 . S
C1808 C1812 1.350 . S
C1809 C1812 1.463 . S
C1809 C1814 1.350 . S
C1809 N1817 1.427 . S
C1810 H1801 0.930 . S
C1810 C1808 1.378 . S
C1810 C1811 1.367 . S
C1811 C1810 1.367 . S
C1811 C1813 1.433 . S
C1812 C1808 1.350 . S
C1812 C1809 1.463 . S
C1812 N1816 1.427 . S
C1813 H1803 0.929 . S
C1813 C1811 1.433 . S
C1813 N1816 1.384 . S
C1814 H1805 0.929 . S
C1814 C1806 1.378 . S
C1814 C1809 1.350 . S
C1815 H1802 0.929 . S
C1815 C1807 1.433 . S
C1815 N1817 1.384 . S
N1816 C1812 1.427 . S
N1816 C1813 1.384 . S
N1817 C1809 1.427 . S
N1817 C1815 1.384 . S
H1818 C1824 0.930 . S
H1819 C1828 0.930 . S
H1820 C1833 0.929 . S
H1821 C1831 0.929 . S
H1822 C1826 0.929 . S
H1823 C1832 0.929 . S
C1824 H1818 0.930 . S
C1824 C1825 1.367 . S
C1824 C1832 1.378 . S
C1825 C1824 1.367 . S
C1825 C1833 1.433 . S
C1826 H1822 0.929 . S
C1826 C1828 1.378 . S
C1826 C1830 1.350 . S
C1827 C1830 1.463 . S
C1827 C1832 1.350 . S
C1827 N1835 1.427 . S
C1828 H1819 0.930 . S
C1828 C1826 1.378 . S
C1828 C1829 1.367 . S
C1829 C1828 1.367 . S
C1829 C1831 1.433 . S
C1830 C1826 1.350 . S
C1830 C1827 1.463 . S
C1830 N1834 1.427 . S
C1831 H1821 0.929 . S
C1831 C1829 1.433 . S
C1831 N1834 1.384 . S
C1832 H1823 0.929 . S
C1832 C1824 1.378 . S
C1832 C1827 1.350 . S
C1833 H1820 0.929 . S
C1833 C1825 1.433 . S
C1833 N1835 1.384 . S
N1834 C1830 1.427 . S
N1834 C1831 1.384 . S
N1835 C1827 1.427 . S
N1835 C1833 1.384 . S
H1836 C1842 0.930 . S
H1837 C1846 0.930 . S
H1838 C1851 0.929 . S
H1839 C1849 0.929 . S
H1840 C1844 0.929 . S
H1841 C1850 0.929 . S
C1842 H1836 0.930 . S
C1842 C1843 1.367 . S
C1842 C1850 1.378 . S
C1843 C1842 1.367 . S
C1843 C1851 1.433 . S
C1844 H1840 0.929 . S
C1844 C1846 1.378 . S
C1844 C1848 1.350 . S
C1845 C1848 1.463 . S
C1845 C1850 1.350 . S
C1845 N1853 1.427 . S
C1846 H1837 0.930 . S
C1846 C1844 1.378 . S
C1846 C1847 1.367 . S
C1847 C1846 1.367 . S
C1847 C1849 1.433 . S
C1848 C1844 1.350 . S
C1848 C1845 1.463 . S
C1848 N1852 1.427 . S
C1849 H1839 0.929 . S
C1849 C1847 1.433 . S
C1849 N1852 1.384 . S
C1850 H1841 0.929 . S
C1850 C1842 1.378 . S
C1850 C1845 1.350 . S
C1851 H1838 0.929 . S
C1851 C1843 1.433 . S
C1851 N1853 1.384 . S
N1852 C1848 1.427 . S
N1852 C1849 1.384 . S
N1853 C1845 1.427 . S
N1853 C1851 1.384 . S
H1854 C1860 0.930 . S
H1855 C1864 0.930 . S
H1856 C1869 0.929 . S
H1857 C1867 0.929 . S
H1858 C1862 0.929 . S
H1859 C1868 0.929 1_455 S
C1860 H1854 0.930 . S
C1860 C1861 1.367 . S
C1860 C1868 1.378 . S
C1861 C1860 1.367 . S
C1861 C1869 1.433 . S
C1862 H1858 0.929 . S
C1862 C1864 1.378 . S
C1862 C1866 1.350 . S
C1863 C1866 1.463 . S
C1863 C1868 1.350 . S
C1863 N1871 1.427 . S
C1864 H1855 0.930 . S
C1864 C1862 1.378 . S
C1864 C1865 1.367 . S
C1865 C1864 1.367 . S
C1865 C1867 1.433 1_655 S
C1866 C1862 1.350 . S
C1866 C1863 1.463 . S
C1866 N1870 1.427 1_655 S
C1867 H1857 0.929 . S
C1867 C1865 1.433 1_455 S
C1867 N1870 1.384 . S
C1868 H1859 0.929 1_655 S
C1868 C1860 1.378 . S
C1868 C1863 1.350 . S
C1869 H1856 0.929 . S
C1869 C1861 1.433 . S
C1869 N1871 1.384 . S
N1870 C1866 1.427 1_455 S
N1870 C1867 1.384 . S
N1871 C1863 1.427 . S
N1871 C1869 1.384 . S
H1872 C1878 0.930 . S
H1873 C1882 0.930 . S
H1874 C1887 0.929 . S
H1875 C1885 0.929 . S
H1876 C1880 0.929 . S
H1877 C1886 0.929 . S
C1878 H1872 0.930 . S
C1878 C1879 1.367 . S
C1878 C1886 1.378 . S
C1879 C1878 1.367 . S
C1879 C1887 1.433 . S
C1880 H1876 0.929 . S
C1880 C1882 1.378 . S
C1880 C1884 1.350 . S
C1881 C1884 1.463 . S
C1881 C1886 1.350 . S
C1881 N1889 1.427 . S
C1882 H1873 0.930 . S
C1882 C1880 1.378 . S
C1882 C1883 1.367 . S
C1883 C1882 1.367 . S
C1883 C1885 1.433 . S
C1884 C1880 1.350 . S
C1884 C1881 1.463 . S
C1884 N1888 1.427 . S
C1885 H1875 0.929 . S
C1885 C1883 1.433 . S
C1885 N1888 1.384 . S
C1886 H1877 0.929 . S
C1886 C1878 1.378 . S
C1886 C1881 1.350 . S
C1887 H1874 0.929 . S
C1887 C1879 1.433 . S
C1887 N1889 1.384 . S
N1888 C1884 1.427 . S
N1888 C1885 1.384 . S
N1889 C1881 1.427 . S
N1889 C1887 1.384 . S
H1890 C1896 0.930 . S
H1891 C1900 0.930 . S
H1892 C1905 0.929 . S
H1893 C1903 0.929 . S
H1894 C1898 0.929 . S
H1895 C1904 0.929 . S
C1896 H1890 0.930 . S
C1896 C1897 1.367 . S
C1896 C1904 1.378 . S
C1897 C1896 1.367 . S
C1897 C1905 1.433 1_545 S
C1898 H1894 0.929 . S
C1898 C1900 1.378 . S
C1898 C1902 1.350 1_565 S
C1899 C1902 1.463 . S
C1899 C1904 1.350 . S
C1899 N1907 1.427 1_545 S
C1900 H1891 0.930 . S
C1900 C1898 1.378 . S
C1900 C1901 1.367 1_565 S
C1901 C1900 1.367 1_545 S
C1901 C1903 1.433 . S
C1902 C1898 1.350 1_545 S
C1902 C1899 1.463 . S
C1902 N1906 1.427 . S
C1903 H1893 0.929 . S
C1903 C1901 1.433 . S
C1903 N1906 1.384 . S
C1904 H1895 0.929 . S
C1904 C1896 1.378 . S
C1904 C1899 1.350 . S
C1905 H1892 0.929 . S
C1905 C1897 1.433 1_565 S
C1905 N1907 1.384 . S
N1906 C1902 1.427 . S
N1906 C1903 1.384 . S
N1907 C1899 1.427 1_565 S
N1907 C1905 1.384 . S
C619 C8 1.505 . S
C623 C440 1.513 1_655 S
C637 C18 1.527 . S
C641 C453 1.527 . S
C659 C482 1.522 1_545 S
C655 C31 1.528 . S
C673 C34 1.528 . S
C677 C495 1.542 . S
C691 C5 1.534 . S
C695 C516 1.539 . S
C709 C21 1.524 . S
C713 C545 1.521 . S
C727 C47 1.500 . S
C731 C524 1.535 . S
C749 C537 1.510 . S
C745 C57 1.510 . S
C767 C503 1.525 . S
C763 C70 1.524 . S
C781 C73 1.497 . S
C785 C474 1.529 1_545 S
C803 C432 1.536 1_655 S
C799 C44 1.532 . S
C817 C60 1.514 . S
C821 C461 1.532 . S
C835 C86 1.544 . S
C839 C566 1.543 . S
C853 C96 1.539 . S
C857 C579 1.541 . S
C875 C608 1.543 . S
C871 C109 1.582 . S
C889 C112 1.575 . S
C893 C243 1.608 . S
C907 C83 1.587 . S
C911 C264 1.597 . S
C925 C99 1.539 . S
C929 C293 1.537 . S
C943 C125 1.524 . S
C947 C272 1.548 . S
C961 C135 1.530 . S
C965 C285 1.524 . S
C983 C251 1.566 . S
C979 C148 1.564 . S
C1001 C600 1.556 . S
C997 C151 1.564 . S
C1019 C558 1.532 . S
C1015 C122 1.553 . S
C1037 C587 1.552 . S
C1033 C138 1.530 . S
C1051 C164 1.527 . S
C1055 C314 1.522 . S
C1069 C174 1.537 . S
C1073 C327 1.543 . S
C1087 C187 1.573 . S
C1091 C356 1.535 . S
C1105 C190 1.588 . S
C1109 C369 1.623 . S
C1127 C390 1.580 . S
C1123 C161 1.584 . S
C1145 C419 1.544 . S
C1141 C177 1.558 . S
C1163 C398 1.579 . S
C1159 C203 1.553 . S
C1181 C411 1.532 . S
C1177 C213 1.533 . S
C1195 C226 1.568 . S
C1199 C377 1.555 . S
C1217 C348 1.542 . S
C1213 C229 1.551 . S
C1231 C200 1.572 . S
C1235 C306 1.541 . S
C1253 C335 1.559 . S
C1249 C216 1.540 . S
C1271 C246 1.303 . S
C1267 C0 1.363 . S
C1285 C23 1.340 . S
C1289 C267 1.227 . S
C1307 C295 1.294 . S
C1303 C36 1.398 . S
C1325 C316 1.295 . S
C1321 C26 1.350 1_556 S
C1343 C330 1.256 . S
C1339 C10 1.350 1_556 S
C1361 C358 1.246 . S
C1357 C13 1.331 . S
C1375 C39 1.384 . S
C1379 C351 1.278 . S
C1393 C62 1.358 . S
C1397 C309 1.189 . S
C1411 C75 1.390 . S
C1415 C337 1.313 . S
C1429 C65 1.400 . S
C1433 C274 1.367 . S
C1451 C288 1.228 . S
C1447 C49 1.377 . S
C1465 C52 1.344 . S
C1469 C253 1.321 . S
C1487 C372 1.288 . S
C1483 C78 1.365 . S
C1501 C101 1.398 . S
C1505 C393 1.288 . S
C1519 C114 1.425 . S
C1523 C421 1.306 . S
C1541 C442 1.247 . S
C1537 C104 1.325 . S
C1555 C88 1.358 . S
C1559 C456 1.236 . S
C1573 C91 1.268 . S
C1577 C484 1.197 . S
C1591 C117 1.317 . S
C1595 C477 1.212 . S
C1609 C140 1.314 . S
C1613 C435 1.217 . S
C1631 C463 1.314 . S
C1627 C153 1.401 . S
C1645 C143 1.376 . S
C1649 C400 1.345 . S
C1663 C127 1.428 . S
C1667 C414 1.248 . S
C1685 C379 1.338 . S
C1681 C130 1.383 . S
C1703 C498 1.182 1_545 S
C1699 C156 1.314 . S
C1717 C179 1.305 . S
C1721 C519 1.199 1_655 S
C1735 C192 1.382 . S
C1739 C547 1.286 . S
C1757 C568 1.268 . S
C1753 C182 1.354 . S
C1775 C582 1.286 . S
C1771 C166 1.411 . S
C1789 C169 1.373 . S
C1793 C610 1.275 . S
C1807 C195 1.376 . S
C1811 C603 1.246 . S
C1825 C218 1.414 . S
C1829 C561 1.239 . S
C1847 C589 1.324 . S
C1843 C231 1.423 . S
C1865 C526 1.258 1_655 S
C1861 C221 1.313 . S
C1883 C540 1.232 . S
C1879 C205 1.380 . S
C1897 C208 1.294 . S
C1901 C505 1.233 1_545 S
