# Generated by pormake.
# Topology anh, (6,3)-cn, num edge types: 1
# Building blocks:
#     Node 0, Type 0, BuildingBlock: INOVEN_clean_sbu_0, # of connection points: 6
#     Node 1, Type 0, BuildingBlock: INOVEN_clean_sbu_0, # of connection points: 6
#     Node 2, Type 0, BuildingBlock: INOVEN_clean_sbu_0, # of connection points: 6
#     Node 3, Type 1, BuildingBlock: PAMTOO_clean_linker_0, # of connection points: 3
#     Node 4, Type 1, BuildingBlock: PAMTOO_clean_linker_0, # of connection points: 3
#     Node 5, Type 1, BuildingBlock: PAMTOO_clean_linker_0, # of connection points: 3
#     Node 6, Type 1, BuildingBlock: PAMTOO_clean_linker_0, # of connection points: 3
#     Node 7, Type 1, BuildingBlock: PAMTOO_clean_linker_0, # of connection points: 3
#     Node 8, Type 1, BuildingBlock: PAMTOO_clean_linker_0, # of connection points: 3
#     Edge 9, Type (0, 1), BuildingBlock: XUDNAN_clean_linker_2, # of connection points: 2
#     Edge 10, Type (0, 1), BuildingBlock: XUDNAN_clean_linker_2, # of connection points: 2
#     Edge 11, Type (0, 1), BuildingBlock: XUDNAN_clean_linker_2, # of connection points: 2
#     Edge 12, Type (0, 1), BuildingBlock: XUDNAN_clean_linker_2, # of connection points: 2
#     Edge 13, Type (0, 1), BuildingBlock: XUDNAN_clean_linker_2, # of connection points: 2
#     Edge 14, Type (0, 1), BuildingBlock: XUDNAN_clean_linker_2, # of connection points: 2
#     Edge 15, Type (0, 1), BuildingBlock: XUDNAN_clean_linker_2, # of connection points: 2
#     Edge 16, Type (0, 1), BuildingBlock: XUDNAN_clean_linker_2, # of connection points: 2
#     Edge 17, Type (0, 1), BuildingBlock: XUDNAN_clean_linker_2, # of connection points: 2
#     Edge 18, Type (0, 1), BuildingBlock: XUDNAN_clean_linker_2, # of connection points: 2
#     Edge 19, Type (0, 1), BuildingBlock: XUDNAN_clean_linker_2, # of connection points: 2
#     Edge 20, Type (0, 1), BuildingBlock: XUDNAN_clean_linker_2, # of connection points: 2
#     Edge 21, Type (0, 1), BuildingBlock: XUDNAN_clean_linker_2, # of connection points: 2
#     Edge 22, Type (0, 1), BuildingBlock: XUDNAN_clean_linker_2, # of connection points: 2
#     Edge 23, Type (0, 1), BuildingBlock: XUDNAN_clean_linker_2, # of connection points: 2
#     Edge 24, Type (0, 1), BuildingBlock: XUDNAN_clean_linker_2, # of connection points: 2
#     Edge 25, Type (0, 1), BuildingBlock: XUDNAN_clean_linker_2, # of connection points: 2
#     Edge 26, Type (0, 1), BuildingBlock: XUDNAN_clean_linker_2, # of connection points: 2
# Relax obj value: 0.165
# Max RMSD: 0.188
# Mean RMSD: 0.129
data_MOF--net-anh--node1-INOVEN_clean_sbu_0--node2-PAMTOO_clean_linker_0--edge1-XUDNAN_clean_linker_2
_symmetry_space_group_name_H-M    P1
_symmetry_Int_Tables_number       1
_symmetry_cell_setting            triclinic
loop_
_symmetry_equiv_pos_as_xyz
'x, y, z'
_cell_length_a     32.367466
_cell_length_b     37.995958
_cell_length_c     49.239687
_cell_angle_alpha  88.09516
_cell_angle_beta   92.427913
_cell_angle_gamma 130.1305
loop_
_atom_site_label
_atom_site_type_symbol
_atom_site_fract_x
_atom_site_fract_y
_atom_site_fract_z
_atom_type_partial_charge
Gd0 Gd 0.18188 0.5663 0.15174 0.0
Gd1 Gd 0.1073 0.58629 0.15694 0.0
C2 C 0.23722 0.67392 0.15684 0.0
C3 C 0.24417 0.55073 0.13768 0.0
C4 C 0.28496 0.55438 0.12258 0.0
C5 C 0.31816 0.54846 0.13713 0.0
C6 C 0.28181 0.55175 0.09407 0.0
C7 C 0.33305 0.52516 0.09574 0.0
C8 C 0.30601 0.53746 0.08072 0.0
C9 C 0.34195 0.53388 0.12389 0.0
C10 C 0.14725 0.5567 0.20281 0.0
C11 C 1.05345 0.48021 0.1544 0.0
C12 C 1.0444 0.60196 0.16924 0.0
C13 C 0.98553 0.57107 0.16422 0.0
C14 C 0.96373 0.55101 0.13852 0.0
C15 C 0.95107 0.55362 0.18634 0.0
C16 C 0.8756 0.49293 0.1579 0.0
C17 C 0.89645 0.51481 0.18322 0.0
C18 C 0.90931 0.51245 0.13541 0.0
C19 C 0.11642 0.56845 0.10539 0.0
O20 O 0.24486 0.64492 0.15017 0.0
O21 O 0.18807 0.65884 0.16178 0.0
O22 O 0.25708 0.57762 0.15819 0.0
O23 O 0.19842 0.53383 0.12503 0.0
O24 O 0.15481 0.53014 0.193 0.0
O25 O 0.1611 0.58767 0.1859 0.0
O26 O 1.04975 0.50916 0.16566 0.0
O27 O 0.09925 0.49631 0.14314 0.0
O28 O 0.07486 0.62071 0.14781 0.0
O29 O 1.05959 0.58532 0.18678 0.0
O30 O 0.0714 0.55383 0.11542 0.0
O31 O 0.15412 0.59259 0.1227 0.0
H32 H 0.32099 0.5502 0.15913 0.0
H33 H 0.25671 0.55663 0.08236 0.0
H34 H 0.29964 0.53235 0.05895 0.0
H35 H 0.36219 0.52475 0.13635 0.0
H36 H 0.98921 0.56335 0.12108 0.0
H37 H 0.96716 0.56813 0.20641 0.0
H38 H 0.8713 0.50059 0.20089 0.0
H39 H 0.89398 0.4971 0.11547 0.0
Gd40 Gd 0.68534 0.04431 0.47201 0.0
Gd41 Gd 0.61355 0.06862 0.46674 0.0
C42 C 0.55326 0.96084 0.46708 0.0
C43 C 0.7313 1.01077 0.48737 0.0
C44 C 0.71827 0.96576 0.49009 0.0
C45 C 0.70702 0.9392 0.4673 0.0
C46 C 0.71883 0.94976 0.51607 0.0
C47 C 0.69843 0.88191 0.49656 0.0
C48 C 0.70876 0.90823 0.5193 0.0
C49 C 0.69722 0.89768 0.47052 0.0
C50 C 0.66999 0.06123 0.4208 0.0
C51 C 0.74635 0.15183 0.47118 0.0
C52 C 0.56792 0.10336 0.45381 0.0
C53 C 0.58162 0.14822 0.45714 0.0
C54 C 0.54025 0.14972 0.46133 0.0
C55 C 0.63558 0.18933 0.45757 0.0
C56 C 0.60656 0.23285 0.46712 0.0
C57 C 0.64794 0.23129 0.46245 0.0
C58 C 0.55255 0.19162 0.46626 0.0
C59 C 0.63238 0.05456 0.51838 0.0
O60 O 0.60108 0.97406 0.47504 0.0
O61 O 0.54839 0.99177 0.45919 0.0
O62 O 0.73491 0.0267 0.46282 0.0
O63 O 0.70727 0.01822 0.50403 0.0
O64 O 0.71514 0.07231 0.42993 0.0
O65 O 0.63385 0.03892 0.43835 0.0
O66 O 0.69882 0.13951 0.4633 0.0
O67 O 0.75009 0.12039 0.47924 0.0
O68 O 0.5583 0.08013 0.47623 0.0
O69 O 0.59714 0.10193 0.43708 0.0
O70 O 0.58655 0.04241 0.5096 0.0
O71 O 0.66661 0.07574 0.49996 0.0
H72 H 0.7064 0.95067 0.44697 0.0
H73 H 0.72742 0.9696 0.53396 0.0
H74 H 0.709 0.89673 0.53969 0.0
H75 H 0.68992 0.8785 0.45256 0.0
H76 H 0.4984 0.11835 0.46112 0.0
H77 H 0.66824 0.189 0.45453 0.0
H78 H 0.68995 0.26233 0.46326 0.0
H79 H 0.51971 0.19173 0.4694 0.0
Gd80 Gd 0.65779 0.56888 0.85008 0.0
Gd81 Gd 0.5776 0.46337 0.83904 0.0
C82 C 0.52112 0.51339 0.84394 0.0
C83 C 0.71216 0.65707 0.84696 0.0
C84 C 0.70381 0.69046 0.84093 0.0
C85 C 0.7457 0.73691 0.84705 0.0
C86 C 0.65537 0.67707 0.82901 0.0
C87 C 0.69102 0.75663 0.82975 0.0
C88 C 0.64905 0.7099 0.82342 0.0
C89 C 0.73948 0.76962 0.84152 0.0
C90 C 0.61867 0.51229 0.89348 0.0
C91 C 0.71423 0.51913 0.84622 0.0
C92 C 0.52494 0.37692 0.84786 0.0
C93 C 0.5308 0.34416 0.8377 0.0
C94 C 0.54688 0.34769 0.81101 0.0
C95 C 0.5242 0.31116 0.85533 0.0
C96 C 0.55093 0.28634 0.81989 0.0
C97 C 0.53412 0.28253 0.84655 0.0
C98 C 0.55648 0.31897 0.80217 0.0
C99 C 0.61783 0.50795 0.79109 0.0
O100 O 0.57292 0.55349 0.84597 0.0
O101 O 0.51353 0.47411 0.84195 0.0
O102 O 0.69252 0.63346 0.86962 0.0
O103 O 0.70536 0.63228 0.82665 0.0
O104 O 0.66826 0.55098 0.8931 0.0
O105 O 0.59375 0.5075 0.87188 0.0
O106 O 0.66223 0.47998 0.84362 0.0
O107 O 0.7233 0.55904 0.8481 0.0
O108 O 0.50846 0.39244 0.83007 0.0
O109 O 0.56463 0.40908 0.86393 0.0
O110 O 0.58159 0.4636 0.79347 0.0
O111 O 0.62901 0.52573 0.81425 0.0
H112 H 0.78351 0.748 0.85608 0.0
H113 H 0.6225 0.64133 0.82407 0.0
H114 H 0.61107 0.69859 0.81456 0.0
H115 H 0.77304 0.8053 0.84622 0.0
H116 H 0.55282 0.37315 0.79703 0.0
H117 H 0.51249 0.30822 0.87611 0.0
H118 H 0.53006 0.25832 0.86091 0.0
H119 H 0.56841 0.32249 0.78138 0.0
H120 H 0.7383 0.17907 0.22445 0.0
H121 H 0.60304 0.03447 0.21739 0.0
H122 H 0.69438 0.112 0.14678 0.0
H123 H 0.57024 1.01031 0.13064 0.0
C124 C 0.56393 1.00835 0.15282 0.0
O125 O 0.61295 0.02771 0.16643 0.0
H126 H 0.55148 0.02916 0.15621 0.0
C127 C 0.7113 0.14906 0.21173 0.0
C128 C 0.72151 0.15237 0.18381 0.0
C129 C 0.66909 0.10695 0.22404 0.0
C130 C 0.63546 0.06714 0.2081 0.0
C131 C 0.64378 0.06846 0.18032 0.0
C132 C 0.68722 0.11116 0.16816 0.0
H133 H 0.68796 0.64828 0.59566 0.0
H134 H 0.68674 0.53435 0.59309 0.0
H135 H 0.6805 0.59293 0.51888 0.0
H136 H 0.60996 0.49481 0.51687 0.0
C137 C 0.62987 0.48767 0.5323 0.0
O138 O 0.67931 0.52848 0.54021 0.0
H139 H 0.60339 0.47067 0.5502 0.0
C140 C 0.68819 0.62457 0.58417 0.0
C141 C 0.68493 0.62521 0.5556 0.0
C142 C 0.68873 0.59192 0.59804 0.0
C143 C 0.68633 0.55986 0.58291 0.0
C144 C 0.68307 0.56023 0.5545 0.0
C145 C 0.68281 0.59299 0.5409 0.0
H146 H 1.04227 0.54545 0.90491 0.0
H147 H 0.16508 0.53328 0.90191 0.0
H148 H 0.07175 0.51069 0.82904 0.0
H149 H 0.23576 0.56983 0.86573 0.0
C150 C 0.2171 0.54359 0.84949 0.0
O151 O 0.15842 0.51351 0.85201 0.0
H152 H 0.22681 0.56327 0.83024 0.0
C153 C 0.06411 0.53931 0.89274 0.0
C154 C 1.04885 0.52821 0.86505 0.0
C155 C 0.1054 0.54135 0.90581 0.0
C156 C 0.13511 0.53324 0.8912 0.0
C157 C 0.1271 0.52395 0.86338 0.0
C158 C 0.08174 0.52023 0.85022 0.0
H159 H 1.02801 0.46196 0.39894 0.0
H160 H 0.17482 0.60215 0.40625 0.0
H161 H 0.10547 0.51739 0.47785 0.0
H162 H 0.18345 0.63562 0.48626 0.0
C163 C 0.19727 0.64002 0.46522 0.0
O164 O 0.18901 0.60057 0.45817 0.0
H165 H 0.17241 0.64428 0.45157 0.0
C166 C 1.05962 0.49025 0.41178 0.0
C167 C 1.06006 0.48353 0.4401 0.0
C168 C 0.10023 0.53291 0.39957 0.0
C169 C 0.14257 0.56954 0.41566 0.0
C170 C 0.14476 0.56463 0.44379 0.0
C171 C 0.10335 0.52146 0.4561 0.0
H172 H 0.66094 0.96373 0.71944 0.0
H173 H 0.63103 0.05889 0.71859 0.0
H174 H 0.62891 0.99844 0.79399 0.0
H175 H 0.55325 0.02317 0.79183 0.0
C176 C 0.57372 0.04748 0.77439 0.0
O177 O 0.623 0.05825 0.77114 0.0
H178 H 0.54751 0.03058 0.75582 0.0
C179 C 0.65098 0.98169 0.73023 0.0
C180 C 0.6452 0.9766 0.75868 0.0
C181 C 0.64496 1.01064 0.71554 0.0
C182 C 0.63407 0.03536 0.72952 0.0
C183 C 0.62876 0.03114 0.75773 0.0
C184 C 0.63353 1.00143 0.77217 0.0
H185 H 0.55448 0.33021 0.06412 0.0
H186 H 0.4243 0.33271 0.06824 0.0
H187 H 0.46301 0.28565 0.13706 0.0
H188 H 0.32422 0.26644 0.12998 0.0
C189 C 0.34933 0.28261 0.11168 0.0
O190 O 0.4024 0.30434 0.11916 0.0
H191 H 0.33362 0.25482 0.09675 0.0
C192 C 0.5207 0.32206 0.07492 0.0
C193 C 0.51215 0.30615 0.10195 0.0
C194 C 0.48837 0.33077 0.06243 0.0
C195 C 0.44741 0.32357 0.07721 0.0
C196 C 0.43709 0.30582 0.10378 0.0
C197 C 0.46889 0.29645 0.11593 0.0
H198 H 0.41511 0.52284 0.10745 0.0
H199 H 0.26721 0.45584 0.05891 0.0
H200 H 0.2645 0.39097 0.0511 0.0
H201 H 0.46803 0.47064 0.07236 0.0
H202 H 0.49107 0.46444 0.1047 0.0
H203 H 0.49193 0.51202 0.09882 0.0
H204 H 0.4349 0.48795 0.14163 0.0
H205 H 0.43263 0.43985 0.14731 0.0
H206 H 0.37057 0.43058 0.14388 0.0
H207 H 0.26501 0.32567 0.05754 0.0
H208 H 0.27344 0.26859 0.07518 0.0
H209 H 0.41499 0.37538 0.12322 0.0
C210 C 0.38322 0.49532 0.09436 0.0
C211 C 0.34143 0.49468 0.08391 0.0
C212 C 0.30045 0.45793 0.06681 0.0
C213 C 0.29826 0.4205 0.06238 0.0
C214 C 0.33742 0.42035 0.07505 0.0
C215 C 0.37978 0.45726 0.09032 0.0
C216 C 0.41148 0.44576 0.10543 0.0
C217 C 0.46904 0.47495 0.09468 0.0
C218 C 0.41238 0.45134 0.13637 0.0
C219 C 0.3782 0.39581 0.09775 0.0
C220 C 0.33664 0.38205 0.07957 0.0
C221 C 0.29831 0.33638 0.0712 0.0
C222 C 0.30306 0.30415 0.08145 0.0
C223 C 0.34539 0.31769 0.10007 0.0
C224 C 0.38296 0.36409 0.10844 0.0
H225 H 0.76788 0.22727 0.44325 0.0
H226 H 0.84011 0.19009 0.50042 0.0
H227 H 0.92471 0.27079 0.50123 0.0
H228 H 0.88693 0.30689 0.4046 0.0
H229 H 0.87548 0.34707 0.39843 0.0
H230 H 0.81905 0.28696 0.40371 0.0
H231 H 0.78781 0.30778 0.44296 0.0
H232 H 0.8443 0.36802 0.43796 0.0
H233 H 0.83404 0.34172 0.47089 0.0
H234 H 1.00387 0.35638 0.49508 0.0
H235 H 0.07154 0.43738 0.48001 0.0
H236 H 0.95011 0.42033 0.42623 0.0
C237 C 0.80123 0.23621 0.45622 0.0
C238 C 0.79665 0.2018 0.47194 0.0
C239 C 0.84203 0.2153 0.48817 0.0
C240 C 0.89049 0.26134 0.48886 0.0
C241 C 0.89387 0.29424 0.47306 0.0
C242 C 0.85053 0.28226 0.4569 0.0
C243 C 0.86599 0.32404 0.4408 0.0
C244 C 0.8616 0.31573 0.41006 0.0
C245 C 0.83095 0.3361 0.44863 0.0
C246 C 0.92474 0.36108 0.45022 0.0
C247 C 0.93981 0.34327 0.46908 0.0
C248 C 0.99229 0.37064 0.48038 0.0
C249 C 1.03057 0.41697 0.47183 0.0
C250 C 1.01689 0.43598 0.45187 0.0
C251 C 0.96259 0.4073 0.44136 0.0
H252 H 0.64348 0.76557 0.78497 0.0
H253 H 0.72449 0.82801 0.86261 0.0
H254 H 0.71974 0.88945 0.85324 0.0
H255 H 0.70766 0.86976 0.74746 0.0
H256 H 0.64849 0.84969 0.72722 0.0
H257 H 0.65615 0.80929 0.74027 0.0
H258 H 0.56383 0.76252 0.76354 0.0
H259 H 0.55572 0.80265 0.75042 0.0
H260 H 0.55198 0.79109 0.78643 0.0
H261 H 0.7103 0.94622 0.83477 0.0
H262 H 0.69484 0.99355 0.80894 0.0
H263 H 0.61618 0.89323 0.74389 0.0
C264 C 0.65951 0.79177 0.80018 0.0
C265 C 0.68476 0.79198 0.82449 0.0
C266 C 0.7058 0.82738 0.84365 0.0
C267 C 0.703 0.86235 0.8386 0.0
C268 C 0.67872 0.86153 0.81432 0.0
C269 C 0.65702 0.82707 0.79547 0.0
C270 C 0.63405 0.83494 0.77077 0.0
C271 C 0.66335 0.8413 0.7449 0.0
C272 C 0.57275 0.79545 0.76761 0.0
C273 C 0.64683 0.87945 0.77858 0.0
C274 C 0.67249 0.89407 0.80382 0.0
C275 C 0.6896 0.93482 0.81513 0.0
C276 C 0.68022 0.96136 0.80031 0.0
C277 C 0.6537 0.94718 0.77438 0.0
C278 C 0.63681 0.90543 0.76352 0.0
H279 H 0.78465 0.47161 0.17842 0.0
H280 H 0.83969 0.41666 0.12967 0.0
H281 H 0.74524 0.34862 0.11916 0.0
H282 H 0.65424 0.35451 0.2022 0.0
H283 H 0.61855 0.3763 0.19973 0.0
H284 H 0.6894 0.41415 0.20936 0.0
H285 H 0.70967 0.46993 0.16996 0.0
H286 H 0.63931 0.43259 0.16045 0.0
H287 H 0.68834 0.4482 0.13576 0.0
H288 H 0.64912 0.29808 0.10509 0.0
H289 H 0.55982 0.2706 0.08814 0.0
H290 H 0.5651 0.35519 0.14735 0.0
C291 C 0.77668 0.44431 0.16647 0.0
C292 C 0.81928 0.44937 0.15481 0.0
C293 C 0.80748 0.41367 0.13855 0.0
C294 C 0.75397 0.37457 0.13279 0.0
C295 C 0.71266 0.37138 0.14372 0.0
C296 C 0.72339 0.4051 0.16049 0.0
C297 C 0.67243 0.39728 0.16609 0.0
C298 C 0.6578 0.3848 0.19613 0.0
C299 C 0.67778 0.43946 0.15752 0.0
C300 C 0.63231 0.3563 0.14802 0.0
C301 C 0.65588 0.34092 0.13593 0.0
C302 C 0.6295 0.30856 0.11511 0.0
C303 C 0.57889 0.29313 0.10557 0.0
C304 C 0.55546 0.31017 0.11689 0.0
C305 C 0.58134 0.34032 0.13917 0.0
H306 H 0.44385 0.91575 0.45519 0.0
H307 H 0.55264 0.88942 0.47861 0.0
H308 H 0.47575 0.80614 0.47919 0.0
H309 H 0.33333 0.82578 0.4968 0.0
H310 H 0.28126 0.81049 0.47227 0.0
H311 H 0.34503 0.86835 0.47304 0.0
H312 H 0.35729 0.8625 0.42224 0.0
H313 H 0.29361 0.80454 0.42135 0.0
H314 H 0.3542 0.81605 0.41123 0.0
H315 H 0.38556 0.72409 0.47855 0.0
H316 H 0.29039 0.65158 0.47663 0.0
H317 H 0.2387 0.72917 0.45336 0.0
C318 C 0.45161 0.89252 0.46033 0.0
C319 C 0.50508 0.90994 0.46681 0.0
C320 C 0.51266 0.87773 0.47354 0.0
C321 C 0.46897 0.82997 0.47392 0.0
C322 C 0.41706 0.81403 0.46752 0.0
C323 C 0.40811 0.84433 0.46085 0.0
C324 C 0.34798 0.81793 0.45523 0.0
C325 C 0.32559 0.83145 0.47554 0.0
C326 C 0.33768 0.82573 0.42576 0.0
C327 C 0.3247 0.7683 0.45981 0.0
C328 C 0.3653 0.76681 0.46686 0.0
C329 C 0.35361 0.72495 0.47272 0.0
C330 C 0.29929 0.68373 0.47145 0.0
C331 C 0.25677 0.6841 0.46403 0.0
C332 C 0.27017 0.72735 0.45836 0.0
H333 H 0.49939 0.19511 0.83247 0.0
H334 H 0.63267 0.31197 0.78672 0.0
H335 H 0.65331 0.26428 0.77052 0.0
H336 H 0.56759 0.15111 0.85372 0.0
H337 H 0.50713 0.09168 0.85096 0.0
H338 H 0.50248 0.13495 0.85891 0.0
H339 H 0.43642 0.10948 0.81775 0.0
H340 H 0.4409 0.06618 0.80965 0.0
H341 H 0.45641 0.10834 0.78439 0.0
H342 H 0.65772 0.2031 0.75786 0.0
H343 H 0.6476 0.13361 0.75128 0.0
H344 H 0.51475 0.05752 0.80692 0.0
C345 C 0.5333 0.21092 0.81929 0.0
C346 C 0.56398 0.2574 0.81072 0.0
C347 C 0.60766 0.2763 0.79316 0.0
C348 C 0.62005 0.24955 0.78399 0.0
C349 C 0.58877 0.2039 0.79266 0.0
C350 C 0.5465 0.18477 0.81004 0.0
C351 C 0.51923 0.1348 0.81629 0.0
C352 C 0.52444 0.12774 0.84678 0.0
C353 C 0.45972 0.10282 0.80642 0.0
C354 C 0.5526 0.12878 0.79958 0.0
C355 C 0.59244 0.16905 0.78606 0.0
C356 C 0.62721 0.17158 0.76868 0.0
C357 C 0.62131 0.132 0.76514 0.0
C358 C 0.58156 0.0906 0.77928 0.0
C359 C 0.54644 0.08904 0.79644 0.0
H360 H 0.75212 0.86562 0.53209 0.0
H361 H 0.62564 0.80031 0.46918 0.0
H362 H 0.61134 0.7284 0.47579 0.0
H363 H 0.8062 0.81028 0.51698 0.0
H364 H 0.81864 0.80451 0.55221 0.0
H365 H 0.82065 0.85138 0.54149 0.0
H366 H 0.74892 0.8265 0.57687 0.0
H367 H 0.74674 0.77962 0.58773 0.0
H368 H 0.68546 0.76835 0.57654 0.0
H369 H 0.609 0.66276 0.4905 0.0
H370 H 0.61742 0.6083 0.51279 0.0
H371 H 0.74439 0.71685 0.56644 0.0
C372 C 0.72115 0.83618 0.51977 0.0
C373 C 0.69 0.83868 0.5001 0.0
C374 C 0.65052 0.79947 0.48413 0.0
C375 C 0.64193 0.75841 0.48781 0.0
C376 C 0.67316 0.75715 0.50753 0.0
C377 C 0.71192 0.79501 0.52325 0.0
C378 C 0.73905 0.78446 0.54361 0.0
C379 C 0.79973 0.81444 0.53824 0.0
C380 C 0.72944 0.79006 0.57292 0.0
C381 C 0.70911 0.73453 0.53711 0.0
C382 C 0.67152 0.71944 0.51612 0.0
C383 C 0.63852 0.67429 0.50684 0.0
C384 C 0.6438 0.64369 0.51952 0.0
C385 C 0.68163 0.65837 0.54131 0.0
C386 C 0.71485 0.70453 0.54998 0.0
H387 H 0.82802 0.5781 0.86855 0.0
H388 H 0.7134 0.45271 0.82291 0.0
H389 H 0.78192 0.44341 0.82017 0.0
H390 H 0.95218 0.61834 0.83446 0.0
H391 H 0.99397 0.63873 0.86501 0.0
H392 H 0.93708 0.63721 0.86261 0.0
H393 H 0.89888 0.5876 0.90618 0.0
H394 H 0.95577 0.58915 0.90873 0.0
H395 H 0.88792 0.53467 0.90807 0.0
H396 H 0.87147 0.44843 0.82132 0.0
H397 H 0.9573 0.46269 0.83051 0.0
H398 H 1.01594 0.58146 0.87809 0.0
C399 C 0.81681 0.54861 0.85774 0.0
C400 C 0.76228 0.51647 0.84561 0.0
C401 C 0.75268 0.4786 0.83243 0.0
C402 C 0.79251 0.47292 0.8307 0.0
C403 C 0.84484 0.5047 0.84263 0.0
C404 C 0.85666 0.54169 0.85634 0.0
C405 C 0.9153 0.56972 0.86861 0.0
C406 C 0.9518 0.61895 0.857 0.0
C407 C 0.91443 0.57035 0.89975 0.0
C408 C 0.93482 0.54353 0.85965 0.0
C409 C 0.89361 0.50621 0.84432 0.0
C410 C 0.90303 0.47775 0.83351 0.0
C411 C 0.95339 0.48649 0.83868 0.0
C412 C 0.99697 0.52356 0.85513 0.0
C413 C 0.98565 0.55237 0.86541 0.0
H414 H 0.33565 0.73169 0.12966 0.0
H415 H 0.247 0.73119 0.19349 0.0
H416 H 0.32335 0.81343 0.20192 0.0
H417 H 0.47146 0.8138 0.16049 0.0
H418 H 0.50325 0.84284 0.12893 0.0
H419 H 0.44342 0.78292 0.12889 0.0
H420 H 0.3956 0.80072 0.09502 0.0
H421 H 0.4554 0.86057 0.09479 0.0
H422 H 0.39138 0.84417 0.10329 0.0
H423 H 0.41016 0.8968 0.2039 0.0
H424 H 0.49456 0.97612 0.19513 0.0
H425 H 0.52668 0.92649 0.12808 0.0
C426 C 0.33254 0.74884 0.14555 0.0
C427 C 0.28489 0.72434 0.16104 0.0
C428 C 0.28254 0.74871 0.18127 0.0
C429 C 0.32607 0.79561 0.18635 0.0
C430 C 0.37222 0.81875 0.17081 0.0
C431 C 0.3755 0.79641 0.15049 0.0
C432 C 0.42837 0.83049 0.1355 0.0
C433 C 0.46371 0.81668 0.13865 0.0
C434 C 0.417 0.8342 0.10536 0.0
C435 C 0.45408 0.87526 0.15051 0.0
C436 C 0.42126 0.8674 0.17111 0.0
C437 C 0.43597 0.90323 0.18775 0.0
C438 C 0.48431 0.9483 0.18274 0.0
C439 C 0.51765 0.95798 0.16098 0.0
C440 C 0.50252 0.92044 0.14503 0.0
H441 H 0.56152 0.24841 0.50574 0.0
H442 H 0.68125 0.31728 0.44293 0.0
H443 H 0.70237 0.39063 0.45352 0.0
H444 H 0.51138 0.3085 0.49356 0.0
H445 H 0.50167 0.31096 0.52901 0.0
H446 H 0.49718 0.26442 0.51679 0.0
H447 H 0.57057 0.28414 0.5524 0.0
H448 H 0.57542 0.33085 0.56468 0.0
H449 H 0.635 0.34165 0.55345 0.0
H450 H 0.70787 0.45596 0.47004 0.0
H451 H 0.69855 0.50827 0.49194 0.0
H452 H 0.5758 0.39629 0.54392 0.0
C453 C 0.59193 0.27882 0.49406 0.0
C454 C 0.61962 0.27708 0.47343 0.0
C455 C 0.65983 0.31788 0.45897 0.0
C456 C 0.67194 0.35964 0.46476 0.0
C457 C 0.64367 0.36004 0.48516 0.0
C458 C 0.6046 0.3207 0.49962 0.0
C459 C 0.57984 0.33017 0.52046 0.0
C460 C 0.51891 0.30184 0.51459 0.0
C461 C 0.59089 0.32118 0.54946 0.0
C462 C 0.61078 0.38096 0.51536 0.0
C463 C 0.64744 0.39762 0.49493 0.0
C464 C 0.67969 0.44338 0.48624 0.0
C465 C 0.67427 0.47282 0.49878 0.0
C466 C 0.6373 0.45644 0.51991 0.0
C467 C 0.60507 0.40987 0.52814 0.0
H468 H 0.50714 0.58351 0.8485 0.0
H469 H 0.4111 0.43621 0.84084 0.0
H470 H 0.32789 0.42618 0.8418 0.0
H471 H 0.4154 0.57831 0.89442 0.0
H472 H 0.42503 0.62689 0.87926 0.0
H473 H 0.47765 0.62312 0.87782 0.0
H474 H 0.47779 0.63099 0.8257 0.0
H475 H 0.42525 0.63488 0.82697 0.0
H476 H 0.41558 0.59168 0.80632 0.0
H477 H 0.24639 0.43175 0.84341 0.0
H478 H 0.18798 0.45298 0.84539 0.0
H479 H 0.33197 0.59589 0.85245 0.0
C480 C 0.46885 0.54885 0.84698 0.0
C481 C 0.46899 0.51066 0.8445 0.0
C482 C 0.41552 0.4668 0.8427 0.0
C483 C 0.36661 0.46058 0.84326 0.0
C484 C 0.368 0.49828 0.8457 0.0
C485 C 0.41842 0.54187 0.84753 0.0
C486 C 0.40864 0.57684 0.84999 0.0
C487 C 0.43317 0.60286 0.87697 0.0
C488 C 0.43331 0.61063 0.82582 0.0
C489 C 0.34577 0.54674 0.84938 0.0
C490 C 0.32281 0.50124 0.84683 0.0
C491 C 0.26532 0.4676 0.84556 0.0
C492 C 0.23139 0.48005 0.84683 0.0
C493 C 0.25282 0.52646 0.84969 0.0
C494 C 0.31201 0.55973 0.85077 0.0
H495 H 0.95553 0.43036 0.18142 0.0
H496 H 1.04257 0.41286 0.12669 0.0
H497 H 0.96631 0.3291 0.12595 0.0
H498 H 0.89853 0.32741 0.22085 0.0
H499 H 0.83479 0.31404 0.2255 0.0
H500 H 0.89509 0.37292 0.22078 0.0
H501 H 0.8487 0.38121 0.18003 0.0
H502 H 0.78822 0.32234 0.18465 0.0
H503 H 0.82028 0.3413 0.15222 0.0
H504 H 0.8792 0.24489 0.13177 0.0
H505 H 0.79369 0.16979 0.14576 0.0
H506 H 0.7624 0.24095 0.19673 0.0
C507 C 0.95854 0.40902 0.16913 0.0
C508 C 1.00578 0.429 0.15403 0.0
C509 C 1.00745 0.39912 0.13848 0.0
C510 C 0.96398 0.35117 0.13786 0.0
C511 C 0.9183 0.33266 0.15298 0.0
C512 C 0.91541 0.36073 0.16844 0.0
C513 C 0.86246 0.33185 0.1836 0.0
C514 C 0.87338 0.33686 0.21452 0.0
C515 C 0.82787 0.34497 0.17459 0.0
C516 C 0.83625 0.28331 0.17442 0.0
C517 C 0.86889 0.2845 0.15657 0.0
C518 C 0.8534 0.24381 0.14569 0.0
C519 C 0.80419 0.20102 0.1536 0.0
C520 C 0.77039 0.19849 0.17248 0.0
C521 C 0.78692 0.24085 0.18251 0.0
H522 H 1.03975 0.5245 0.06384 0.0
H523 H 0.21211 0.60951 0.08103 0.0
H524 H 0.22785 0.61214 0.03207 0.0
H525 H 1.0344 0.45788 0.00983 0.0
H526 H 0.98421 0.45478 0.98982 0.0
H527 H 0.98646 0.45887 0.02628 0.0
H528 H 0.99431 0.53106 0.02127 0.0
H529 H 0.99262 0.52745 0.9848 0.0
H530 H 1.04812 0.57971 0.00172 0.0
H531 H 0.22549 0.60921 0.98109 0.0
H532 H 0.20492 0.59598 0.93192 0.0
H533 H 1.03346 0.50942 0.94751 0.0
C534 C 0.08073 0.5434 0.05727 0.0
C535 C 0.1248 0.56708 0.07621 0.0
C536 C 0.17781 0.59131 0.06687 0.0
C537 C 0.18715 0.59305 0.03909 0.0
C538 C 0.14301 0.57008 0.02087 0.0
C539 C 0.09077 0.54524 0.02956 0.0
C540 C 1.05056 0.5234 0.00569 0.0
C541 C 1.01161 0.4706 0.00805 0.0
C542 C 1.01958 0.5415 0.00323 0.0
C543 C 0.08841 0.5403 0.98222 0.0
C544 C 0.14155 0.5673 0.99146 0.0
C545 C 0.18396 0.58763 0.97365 0.0
C546 C 0.17178 0.5797 0.9457 0.0
C547 C 0.1175 0.55125 0.93562 0.0
C548 C 0.07541 0.53163 0.95433 0.0
H549 H 0.65138 0.0144 0.3749 0.0
H550 H 0.67541 0.13279 0.40413 0.0
H551 H 0.67002 0.15408 0.35682 0.0
H552 H 0.73394 0.07006 0.31826 0.0
H553 H 0.6926 0.02117 0.296 0.0
H554 H 0.69213 0.01246 0.33217 0.0
H555 H 0.58812 0.96345 0.3315 0.0
H556 H 0.58826 0.97195 0.29526 0.0
H557 H 0.55878 0.98737 0.317 0.0
H558 H 0.66894 0.1655 0.3062 0.0
H559 H 0.67293 0.16674 0.25612 0.0
H560 H 0.65181 0.04173 0.25974 0.0
C561 C 0.65415 0.04412 0.37122 0.0
C562 C 0.66188 0.07121 0.39296 0.0
C563 C 0.66733 0.11077 0.38765 0.0
C564 C 0.66474 0.12324 0.36087 0.0
C565 C 0.65705 0.09585 0.33972 0.0
C566 C 0.65177 0.05706 0.34458 0.0
C567 C 0.64744 0.03529 0.31821 0.0
C568 C 0.69432 0.03474 0.31604 0.0
C569 C 0.59237 0.98663 0.31533 0.0
C570 C 0.65214 0.06833 0.29776 0.0
C571 C 0.65727 0.10284 0.31057 0.0
C572 C 0.66451 0.13844 0.29595 0.0
C573 C 0.66702 0.139 0.26753 0.0
C574 C 0.66246 0.10426 0.25397 0.0
C575 C 0.65437 0.06828 0.26942 0.0
H576 H 0.58766 0.46745 0.74202 0.0
H577 H 0.69476 0.60131 0.78018 0.0
H578 H 0.72678 0.63836 0.73479 0.0
H579 H 0.67711 0.49144 0.68987 0.0
H580 H 0.62335 0.45778 0.66474 0.0
H581 H 0.61001 0.44274 0.70021 0.0
H582 H 0.53381 0.44782 0.69699 0.0
H583 H 0.54678 0.46273 0.66151 0.0
H584 H 0.54882 0.49995 0.68435 0.0
H585 H 0.74515 0.65984 0.68426 0.0
H586 H 0.7485 0.66399 0.63401 0.0
H587 H 0.62831 0.51503 0.63035 0.0
C588 C 0.61795 0.50462 0.74093 0.0
C589 C 0.63861 0.53168 0.76461 0.0
C590 C 0.67819 0.58009 0.76229 0.0
C591 C 0.69665 0.60129 0.73659 0.0
C592 C 0.67512 0.5734 0.71359 0.0
C593 C 0.63665 0.52606 0.71565 0.0
C594 C 0.6192 0.50345 0.6881 0.0
C595 C 0.63328 0.47201 0.68559 0.0
C596 C 0.55857 0.47695 0.68241 0.0
C597 C 0.65365 0.54543 0.67001 0.0
C598 C 0.68574 0.58553 0.68497 0.0
C599 C 0.72023 0.62861 0.67241 0.0
C600 C 0.72168 0.63063 0.64388 0.0
C601 C 0.68885 0.58981 0.62824 0.0
C602 C 0.65465 0.54681 0.64167 0.0
H603 H 0.5664 0.02332 0.56169 0.0
H604 H 0.72628 0.07718 0.53983 0.0
H605 H 0.74529 0.06776 0.58751 0.0
H606 H 0.60917 0.08231 0.62539 0.0
H607 H 0.54831 0.03627 0.64248 0.0
H608 H 0.54623 0.04431 0.60635 0.0
H609 H 0.50486 0.95997 0.59852 0.0
H610 H 0.50697 0.95171 0.63463 0.0
H611 H 0.53961 0.94037 0.61211 0.0
H612 H 0.74582 0.05099 0.63782 0.0
H613 H 0.73155 0.03599 0.68734 0.0
H614 H 0.57441 0.99938 0.67671 0.0
C615 C 0.60529 0.03286 0.56691 0.0
C616 C 0.64446 0.04995 0.54696 0.0
C617 C 0.69526 0.06298 0.55467 0.0
C618 C 0.70645 0.05789 0.58172 0.0
C619 C 0.66676 0.04057 0.60089 0.0
C620 C 0.6175 0.02892 0.59388 0.0
C621 C 0.58296 0.01369 0.61856 0.0
C622 C 0.57098 0.04608 0.62348 0.0
C623 C 0.5305 0.96345 0.61578 0.0
C624 C 0.62036 0.01844 0.64058 0.0
C625 C 0.66822 0.03337 0.62995 0.0
C626 C 0.70861 0.03951 0.64636 0.0
C627 C 0.70012 0.03073 0.67438 0.0
C628 C 0.65202 0.01669 0.68572 0.0
C629 C 0.61167 1.01035 0.66852 0.0
H630 H 0.66322 0.51305 0.94298 0.0
H631 H 0.51328 0.43651 0.89508 0.0
H632 H 0.46523 0.38054 0.93231 0.0
H633 H 0.63754 0.4126 0.97519 0.0
H634 H 0.66695 0.44025 0.00759 0.0
H635 H 0.69099 0.47412 0.97674 0.0
H636 H 0.67145 0.52486 -0.00445 0.0
H637 H 0.64742 0.49119 0.02644 0.0
H638 H 0.6046 0.49799 0.00686 0.0
H639 H 0.43175 0.33506 0.97476 0.0
H640 H 0.41522 0.30103 0.02075 0.0
H641 H 0.58579 0.40495 0.04179 0.0
C642 C 0.62041 0.48431 0.94038 0.0
C643 C 0.59202 0.47902 0.91615 0.0
C644 C 0.53593 0.44117 0.91345 0.0
C645 C 0.50816 0.4091 0.93447 0.0
C646 C 0.537 0.41522 0.95812 0.0
C647 C 0.59182 0.45166 0.96129 0.0
C648 C 0.61239 0.4503 0.98923 0.0
C649 C 0.65446 0.44393 0.98704 0.0
C650 C 0.6353 0.49366 0.00547 0.0
C651 C 0.56042 0.40779 0.00118 0.0
C652 C 0.51753 0.38819 0.98281 0.0
C653 C 0.46502 0.34975 0.98932 0.0
C654 C 0.45597 0.33079 0.01543 0.0
C655 C 0.49925 0.35017 0.0346 0.0
C656 C 0.55218 0.389 0.0273 0.0
H657 H 0.12121 0.49473 0.24376 0.0
H658 H 0.14416 0.61884 0.22582 0.0
H659 H 0.12713 0.62234 0.27355 0.0
H660 H 1.01392 0.44638 0.29383 0.0
H661 H 1.03863 0.4239 0.31543 0.0
H662 H 1.0481 0.42867 0.27927 0.0
H663 H 0.1513 0.4776 0.28766 0.0
H664 H 0.14216 0.47301 0.32378 0.0
H665 H 0.18773 0.52893 0.3079 0.0
H666 H 0.11603 0.61687 0.32351 0.0
H667 H 0.10935 0.60146 0.37296 0.0
H668 H 0.09164 0.48013 0.35921 0.0
C669 C 0.1219 0.52223 0.24988 0.0
C670 C 0.13383 0.55645 0.23113 0.0
C671 C 0.1348 0.59213 0.23984 0.0
C672 C 0.12514 0.59441 0.2669 0.0
C673 C 0.11418 0.56056 0.28501 0.0
C674 C 0.11212 0.52494 0.27692 0.0
C675 C 0.10183 0.49425 0.30086 0.0
C676 C 1.04737 0.4454 0.29712 0.0
C677 C 0.14855 0.49343 0.30531 0.0
C678 C 0.10005 0.51901 0.32372 0.0
C679 C 0.10691 0.557 0.31403 0.0
C680 C 0.1099 0.58689 0.33133 0.0
C681 C 0.10629 0.57801 0.35934 0.0
C682 C 0.09962 0.53951 0.36977 0.0
C683 C 0.09573 0.50932 0.35167 0.0
loop_
_geom_bond_atom_site_label_1
_geom_bond_atom_site_label_2
_geom_bond_distance
_geom_bond_site_symmetry_2
_ccdc_geom_bond_type
Gd0 C3 2.818 . S
Gd0 O20 2.377 . S
Gd0 O22 2.448 . S
Gd0 O23 2.506 . S
Gd0 O24 2.435 . S
Gd0 O25 2.717 1_455 S
Gd0 O27 2.395 1_455 S
Gd0 O31 2.327 . S
Gd1 C12 2.818 . S
Gd1 O21 2.395 1_655 S
Gd1 O25 2.327 . S
Gd1 O26 2.377 . S
Gd1 O28 2.448 . S
Gd1 O29 2.506 . S
Gd1 O30 2.435 . S
Gd1 O31 2.717 1_655 S
C2 O20 1.240 . S
C2 O21 1.240 . S
C3 Gd0 2.818 . S
C3 C4 1.510 . S
C3 O22 1.249 . S
C3 O23 1.252 . S
C4 C3 1.510 . S
C4 C5 1.404 . S
C4 C6 1.352 . S
C5 C4 1.404 . S
C5 C9 1.389 . S
C5 H32 0.930 . S
C6 C4 1.352 . S
C6 C8 1.374 . S
C6 H33 0.931 . S
C7 C8 1.359 . S
C7 C9 1.364 . S
C8 C6 1.374 . S
C8 C7 1.359 . S
C8 H34 0.931 . S
C9 C5 1.389 . S
C9 C7 1.364 . S
C9 H35 0.931 . S
C10 O24 1.256 . S
C10 O25 1.257 1_455 S
C11 O26 1.240 . S
C11 O27 1.240 . S
C12 Gd1 2.818 . S
C12 C13 1.510 . S
C12 O28 1.249 . S
C12 O29 1.252 . S
C13 C12 1.510 . S
C13 C14 1.404 . S
C13 C15 1.352 . S
C14 C13 1.404 . S
C14 C18 1.389 . S
C14 H36 0.930 . S
C15 C13 1.352 . S
C15 C17 1.374 . S
C15 H37 0.931 . S
C16 C17 1.359 . S
C16 C18 1.364 . S
C17 C15 1.374 . S
C17 C16 1.359 . S
C17 H38 0.931 . S
C18 C14 1.389 . S
C18 C16 1.364 . S
C18 H39 0.931 . S
C19 O30 1.256 1_455 S
C19 O31 1.257 . S
O20 Gd0 2.377 . S
O20 C2 1.240 . S
O21 Gd1 2.395 1_455 S
O21 C2 1.240 . S
O22 Gd0 2.448 . S
O22 C3 1.249 . S
O23 Gd0 2.506 . S
O23 C3 1.252 . S
O24 Gd0 2.435 . S
O24 C10 1.256 . S
O25 Gd0 2.717 1_655 S
O25 Gd1 2.327 . S
O25 C10 1.257 1_655 S
O26 Gd1 2.377 . S
O26 C11 1.240 . S
O27 Gd0 2.395 1_655 S
O27 C11 1.240 . S
O28 Gd1 2.448 . S
O28 C12 1.249 . S
O29 Gd1 2.506 . S
O29 C12 1.252 . S
O30 Gd1 2.435 . S
O30 C19 1.256 1_655 S
O31 Gd0 2.327 . S
O31 Gd1 2.717 1_455 S
O31 C19 1.257 . S
H32 C5 0.930 . S
H33 C6 0.931 . S
H34 C8 0.931 . S
H35 C9 0.931 . S
H36 C14 0.930 . S
H37 C15 0.931 . S
H38 C17 0.931 . S
H39 C18 0.931 . S
Gd40 C43 2.811 1_545 S
Gd40 O60 2.376 1_545 S
Gd40 O62 2.441 1_545 S
Gd40 O63 2.500 1_545 S
Gd40 O64 2.437 . S
Gd40 O65 2.723 . S
Gd40 O67 2.402 . S
Gd40 O71 2.331 . S
Gd41 C52 2.818 . S
Gd41 O61 2.395 1_545 S
Gd41 O65 2.327 . S
Gd41 O66 2.377 . S
Gd41 O68 2.448 . S
Gd41 O69 2.506 . S
Gd41 O70 2.435 . S
Gd41 O71 2.717 . S
C42 O60 1.240 . S
C42 O61 1.240 . S
C43 Gd40 2.811 1_565 S
C43 C44 1.510 . S
C43 O62 1.249 . S
C43 O63 1.252 . S
C44 C43 1.510 . S
C44 C45 1.404 . S
C44 C46 1.352 . S
C45 C44 1.404 . S
C45 C49 1.389 . S
C45 H72 0.930 . S
C46 C44 1.352 . S
C46 C48 1.374 . S
C46 H73 0.931 . S
C47 C48 1.359 . S
C47 C49 1.364 . S
C48 C46 1.374 . S
C48 C47 1.359 . S
C48 H74 0.931 . S
C49 C45 1.389 . S
C49 C47 1.364 . S
C49 H75 0.931 . S
C50 O64 1.256 . S
C50 O65 1.257 . S
C51 O66 1.240 . S
C51 O67 1.240 . S
C52 Gd41 2.818 . S
C52 C53 1.510 . S
C52 O68 1.249 . S
C52 O69 1.252 . S
C53 C52 1.510 . S
C53 C54 1.404 . S
C53 C55 1.352 . S
C54 C53 1.404 . S
C54 C58 1.389 . S
C54 H76 0.930 . S
C55 C53 1.352 . S
C55 C57 1.374 . S
C55 H77 0.931 . S
C56 C57 1.359 . S
C56 C58 1.364 . S
C57 C55 1.374 . S
C57 C56 1.359 . S
C57 H78 0.931 . S
C58 C54 1.389 . S
C58 C56 1.364 . S
C58 H79 0.931 . S
C59 O70 1.256 . S
C59 O71 1.257 . S
O60 Gd40 2.376 1_565 S
O60 C42 1.240 . S
O61 Gd41 2.395 1_565 S
O61 C42 1.240 . S
O62 Gd40 2.441 1_565 S
O62 C43 1.249 . S
O63 Gd40 2.500 1_565 S
O63 C43 1.252 . S
O64 Gd40 2.437 . S
O64 C50 1.256 . S
O65 Gd40 2.723 . S
O65 Gd41 2.327 . S
O65 C50 1.257 . S
O66 Gd41 2.377 . S
O66 C51 1.240 . S
O67 Gd40 2.402 . S
O67 C51 1.240 . S
O68 Gd41 2.448 . S
O68 C52 1.249 . S
O69 Gd41 2.506 . S
O69 C52 1.252 . S
O70 Gd41 2.435 . S
O70 C59 1.256 . S
O71 Gd40 2.331 . S
O71 Gd41 2.717 . S
O71 C59 1.257 . S
H72 C45 0.930 . S
H73 C46 0.931 . S
H74 C48 0.931 . S
H75 C49 0.931 . S
H76 C54 0.930 . S
H77 C55 0.931 . S
H78 C57 0.931 . S
H79 C58 0.931 . S
Gd80 C83 2.818 . S
Gd80 O100 2.377 . S
Gd80 O102 2.448 . S
Gd80 O103 2.506 . S
Gd80 O104 2.435 . S
Gd80 O105 2.717 . S
Gd80 O107 2.395 . S
Gd80 O111 2.327 . S
Gd81 C92 2.818 . S
Gd81 O101 2.395 . S
Gd81 O105 2.327 . S
Gd81 O106 2.377 . S
Gd81 O108 2.448 . S
Gd81 O109 2.506 . S
Gd81 O110 2.435 . S
Gd81 O111 2.717 . S
C82 O100 1.240 . S
C82 O101 1.240 . S
C83 Gd80 2.818 . S
C83 C84 1.510 . S
C83 O102 1.249 . S
C83 O103 1.252 . S
C84 C83 1.510 . S
C84 C85 1.404 . S
C84 C86 1.352 . S
C85 C84 1.404 . S
C85 C89 1.389 . S
C85 H112 0.930 . S
C86 C84 1.352 . S
C86 C88 1.374 . S
C86 H113 0.931 . S
C87 C88 1.359 . S
C87 C89 1.364 . S
C88 C86 1.374 . S
C88 C87 1.359 . S
C88 H114 0.931 . S
C89 C85 1.389 . S
C89 C87 1.364 . S
C89 H115 0.931 . S
C90 O104 1.256 . S
C90 O105 1.257 . S
C91 O106 1.240 . S
C91 O107 1.240 . S
C92 Gd81 2.818 . S
C92 C93 1.510 . S
C92 O108 1.249 . S
C92 O109 1.252 . S
C93 C92 1.510 . S
C93 C94 1.404 . S
C93 C95 1.352 . S
C94 C93 1.404 . S
C94 C98 1.389 . S
C94 H116 0.930 . S
C95 C93 1.352 . S
C95 C97 1.374 . S
C95 H117 0.931 . S
C96 C97 1.359 . S
C96 C98 1.364 . S
C97 C95 1.374 . S
C97 C96 1.359 . S
C97 H118 0.931 . S
C98 C94 1.389 . S
C98 C96 1.364 . S
C98 H119 0.931 . S
C99 O110 1.256 . S
C99 O111 1.257 . S
O100 Gd80 2.377 . S
O100 C82 1.240 . S
O101 Gd81 2.395 . S
O101 C82 1.240 . S
O102 Gd80 2.448 . S
O102 C83 1.249 . S
O103 Gd80 2.506 . S
O103 C83 1.252 . S
O104 Gd80 2.435 . S
O104 C90 1.256 . S
O105 Gd80 2.717 . S
O105 Gd81 2.327 . S
O105 C90 1.257 . S
O106 Gd81 2.377 . S
O106 C91 1.240 . S
O107 Gd80 2.395 . S
O107 C91 1.240 . S
O108 Gd81 2.448 . S
O108 C92 1.249 . S
O109 Gd81 2.506 . S
O109 C92 1.252 . S
O110 Gd81 2.435 . S
O110 C99 1.256 . S
O111 Gd80 2.327 . S
O111 Gd81 2.717 . S
O111 C99 1.257 . S
H112 C85 0.930 . S
H113 C86 0.931 . S
H114 C88 0.931 . S
H115 C89 0.931 . S
H116 C94 0.930 . S
H117 C95 0.931 . S
H118 C97 0.931 . S
H119 C98 0.931 . S
H120 C127 0.929 . S
H121 C130 0.930 . S
H122 C132 0.929 . S
H123 C124 0.969 . S
C124 H123 0.969 . S
C124 O125 1.550 . S
C124 H126 0.973 . S
O125 C124 1.550 . S
O125 C131 1.412 . S
H126 C124 0.973 . S
C127 H120 0.929 . S
C127 C128 1.400 . S
C127 C129 1.364 . S
C128 C127 1.400 . S
C128 C132 1.377 . S
C129 C127 1.364 . S
C129 C130 1.374 1_545 S
C130 H121 0.930 . S
C130 C129 1.374 1_565 S
C130 C131 1.383 . S
C131 O125 1.412 . S
C131 C130 1.383 . S
C131 C132 1.394 1_565 S
C132 H122 0.929 . S
C132 C128 1.377 . S
C132 C131 1.394 1_545 S
H133 C140 0.929 . S
H134 C143 0.930 . S
H135 C145 0.929 . S
H136 C137 0.969 . S
C137 H136 0.969 . S
C137 O138 1.550 . S
C137 H139 0.973 . S
O138 C137 1.550 . S
O138 C144 1.412 . S
H139 C137 0.973 . S
C140 H133 0.929 . S
C140 C141 1.400 . S
C140 C142 1.364 . S
C141 C140 1.400 . S
C141 C145 1.377 . S
C142 C140 1.364 . S
C142 C143 1.374 . S
C143 H134 0.930 . S
C143 C142 1.374 . S
C143 C144 1.383 . S
C144 O138 1.412 . S
C144 C143 1.383 . S
C144 C145 1.394 . S
C145 H135 0.929 . S
C145 C141 1.377 . S
C145 C144 1.394 . S
H146 C153 0.929 . S
H147 C156 0.930 . S
H148 C158 0.929 . S
H149 C150 0.969 . S
C150 H149 0.969 . S
C150 O151 1.550 . S
C150 H152 0.973 . S
O151 C150 1.550 . S
O151 C157 1.412 . S
H152 C150 0.973 . S
C153 H146 0.929 . S
C153 C154 1.400 . S
C153 C155 1.364 . S
C154 C153 1.400 . S
C154 C158 1.377 . S
C155 C153 1.364 . S
C155 C156 1.374 . S
C156 H147 0.930 . S
C156 C155 1.374 . S
C156 C157 1.383 . S
C157 O151 1.412 . S
C157 C156 1.383 . S
C157 C158 1.394 . S
C158 H148 0.929 . S
C158 C154 1.377 . S
C158 C157 1.394 . S
H159 C166 0.929 . S
H160 C169 0.930 . S
H161 C171 0.929 . S
H162 C163 0.969 . S
C163 H162 0.969 . S
C163 O164 1.550 . S
C163 H165 0.973 . S
O164 C163 1.550 . S
O164 C170 1.412 . S
H165 C163 0.973 . S
C166 H159 0.929 . S
C166 C167 1.400 . S
C166 C168 1.364 1_655 S
C167 C166 1.400 . S
C167 C171 1.377 1_655 S
C168 C166 1.364 1_455 S
C168 C169 1.374 . S
C169 H160 0.930 . S
C169 C168 1.374 . S
C169 C170 1.383 . S
C170 O164 1.412 . S
C170 C169 1.383 . S
C170 C171 1.394 . S
C171 H161 0.929 . S
C171 C167 1.377 1_455 S
C171 C170 1.394 . S
H172 C179 0.929 . S
H173 C182 0.930 . S
H174 C184 0.929 . S
H175 C176 0.969 . S
C176 H175 0.969 . S
C176 O177 1.550 . S
C176 H178 0.973 . S
O177 C176 1.550 . S
O177 C183 1.412 . S
H178 C176 0.973 . S
C179 H172 0.929 . S
C179 C180 1.400 . S
C179 C181 1.364 1_565 S
C180 C179 1.400 . S
C180 C184 1.377 1_565 S
C181 C179 1.364 1_545 S
C181 C182 1.374 . S
C182 H173 0.930 . S
C182 C181 1.374 . S
C182 C183 1.383 . S
C183 O177 1.412 . S
C183 C182 1.383 . S
C183 C184 1.394 . S
C184 H174 0.929 . S
C184 C180 1.377 1_545 S
C184 C183 1.394 . S
H185 C192 0.929 . S
H186 C195 0.930 . S
H187 C197 0.929 . S
H188 C189 0.969 . S
C189 H188 0.969 . S
C189 O190 1.550 . S
C189 H191 0.973 . S
O190 C189 1.550 . S
O190 C196 1.412 . S
H191 C189 0.973 . S
C192 H185 0.929 . S
C192 C193 1.400 . S
C192 C194 1.364 . S
C193 C192 1.400 . S
C193 C197 1.377 . S
C194 C192 1.364 . S
C194 C195 1.374 . S
C195 H186 0.930 . S
C195 C194 1.374 . S
C195 C196 1.383 . S
C196 O190 1.412 . S
C196 C195 1.383 . S
C196 C197 1.394 . S
C197 H187 0.929 . S
C197 C193 1.377 . S
C197 C196 1.394 . S
H198 C210 0.930 . S
H199 C212 0.930 . S
H200 C213 0.930 . S
H201 C217 0.959 . S
H202 C217 0.959 . S
H203 C217 0.961 . S
H204 C218 0.960 . S
H205 C218 0.961 . S
H206 C218 0.959 . S
H207 C221 0.929 . S
H208 C222 0.931 . S
H209 C224 0.930 . S
C210 H198 0.930 . S
C210 C211 1.399 . S
C210 C215 1.399 . S
C211 C210 1.399 . S
C211 C212 1.376 . S
C212 H199 0.930 . S
C212 C211 1.376 . S
C212 C213 1.388 . S
C213 H200 0.930 . S
C213 C212 1.388 . S
C213 C214 1.390 . S
C214 C213 1.390 . S
C214 C215 1.394 . S
C214 C220 1.465 . S
C215 C210 1.399 . S
C215 C214 1.394 . S
C215 C216 1.516 . S
C216 C215 1.516 . S
C216 C217 1.502 . S
C216 C218 1.561 . S
C216 C219 1.526 . S
C217 H201 0.959 . S
C217 H202 0.959 . S
C217 H203 0.961 . S
C217 C216 1.502 . S
C218 H204 0.960 . S
C218 H205 0.961 . S
C218 H206 0.959 . S
C218 C216 1.561 . S
C219 C216 1.526 . S
C219 C220 1.396 . S
C219 C224 1.390 . S
C220 C214 1.465 . S
C220 C219 1.396 . S
C220 C221 1.399 . S
C221 H207 0.929 . S
C221 C220 1.399 . S
C221 C222 1.385 . S
C222 H208 0.931 . S
C222 C221 1.385 . S
C222 C223 1.389 . S
C223 C222 1.389 . S
C223 C224 1.387 . S
C224 H209 0.930 . S
C224 C219 1.390 . S
C224 C223 1.387 . S
H225 C237 0.930 . S
H226 C239 0.930 . S
H227 C240 0.930 . S
H228 C244 0.959 . S
H229 C244 0.959 . S
H230 C244 0.961 . S
H231 C245 0.960 . S
H232 C245 0.961 . S
H233 C245 0.959 . S
H234 C248 0.929 . S
H235 C249 0.931 . S
H236 C251 0.930 . S
C237 H225 0.930 . S
C237 C238 1.399 . S
C237 C242 1.399 . S
C238 C237 1.399 . S
C238 C239 1.376 . S
C239 H226 0.930 . S
C239 C238 1.376 . S
C239 C240 1.388 . S
C240 H227 0.930 . S
C240 C239 1.388 . S
C240 C241 1.390 . S
C241 C240 1.390 . S
C241 C242 1.394 . S
C241 C247 1.465 . S
C242 C237 1.399 . S
C242 C241 1.394 . S
C242 C243 1.516 . S
C243 C242 1.516 . S
C243 C244 1.502 . S
C243 C245 1.561 . S
C243 C246 1.526 . S
C244 H228 0.959 . S
C244 H229 0.959 . S
C244 H230 0.961 . S
C244 C243 1.502 . S
C245 H231 0.960 . S
C245 H232 0.961 . S
C245 H233 0.959 . S
C245 C243 1.561 . S
C246 C243 1.526 . S
C246 C247 1.396 . S
C246 C251 1.390 . S
C247 C241 1.465 . S
C247 C246 1.396 . S
C247 C248 1.399 . S
C248 H234 0.929 . S
C248 C247 1.399 . S
C248 C249 1.385 . S
C249 H235 0.931 . S
C249 C248 1.385 . S
C249 C250 1.389 . S
C250 C249 1.389 . S
C250 C251 1.387 . S
C251 H236 0.930 . S
C251 C246 1.390 . S
C251 C250 1.387 . S
H252 C264 0.930 . S
H253 C266 0.930 . S
H254 C267 0.930 . S
H255 C271 0.959 . S
H256 C271 0.959 . S
H257 C271 0.961 . S
H258 C272 0.960 . S
H259 C272 0.961 . S
H260 C272 0.959 . S
H261 C275 0.929 . S
H262 C276 0.931 . S
H263 C278 0.930 . S
C264 H252 0.930 . S
C264 C265 1.399 . S
C264 C269 1.399 . S
C265 C264 1.399 . S
C265 C266 1.376 . S
C266 H253 0.930 . S
C266 C265 1.376 . S
C266 C267 1.388 . S
C267 H254 0.930 . S
C267 C266 1.388 . S
C267 C268 1.390 . S
C268 C267 1.390 . S
C268 C269 1.394 . S
C268 C274 1.465 . S
C269 C264 1.399 . S
C269 C268 1.394 . S
C269 C270 1.516 . S
C270 C269 1.516 . S
C270 C271 1.502 . S
C270 C272 1.561 . S
C270 C273 1.526 . S
C271 H255 0.959 . S
C271 H256 0.959 . S
C271 H257 0.961 . S
C271 C270 1.502 . S
C272 H258 0.960 . S
C272 H259 0.961 . S
C272 H260 0.959 . S
C272 C270 1.561 . S
C273 C270 1.526 . S
C273 C274 1.396 . S
C273 C278 1.390 . S
C274 C268 1.465 . S
C274 C273 1.396 . S
C274 C275 1.399 . S
C275 H261 0.929 . S
C275 C274 1.399 . S
C275 C276 1.385 . S
C276 H262 0.931 . S
C276 C275 1.385 . S
C276 C277 1.389 . S
C277 C276 1.389 . S
C277 C278 1.387 . S
C278 H263 0.930 . S
C278 C273 1.390 . S
C278 C277 1.387 . S
H279 C291 0.930 . S
H280 C293 0.930 . S
H281 C294 0.930 . S
H282 C298 0.959 . S
H283 C298 0.959 . S
H284 C298 0.961 . S
H285 C299 0.960 . S
H286 C299 0.961 . S
H287 C299 0.959 . S
H288 C302 0.929 . S
H289 C303 0.931 . S
H290 C305 0.930 . S
C291 H279 0.930 . S
C291 C292 1.399 . S
C291 C296 1.399 . S
C292 C291 1.399 . S
C292 C293 1.376 . S
C293 H280 0.930 . S
C293 C292 1.376 . S
C293 C294 1.388 . S
C294 H281 0.930 . S
C294 C293 1.388 . S
C294 C295 1.390 . S
C295 C294 1.390 . S
C295 C296 1.394 . S
C295 C301 1.465 . S
C296 C291 1.399 . S
C296 C295 1.394 . S
C296 C297 1.516 . S
C297 C296 1.516 . S
C297 C298 1.502 . S
C297 C299 1.561 . S
C297 C300 1.526 . S
C298 H282 0.959 . S
C298 H283 0.959 . S
C298 H284 0.961 . S
C298 C297 1.502 . S
C299 H285 0.960 . S
C299 H286 0.961 . S
C299 H287 0.959 . S
C299 C297 1.561 . S
C300 C297 1.526 . S
C300 C301 1.396 . S
C300 C305 1.390 . S
C301 C295 1.465 . S
C301 C300 1.396 . S
C301 C302 1.399 . S
C302 H288 0.929 . S
C302 C301 1.399 . S
C302 C303 1.385 . S
C303 H289 0.931 . S
C303 C302 1.385 . S
C303 C304 1.389 . S
C304 C303 1.389 . S
C304 C305 1.387 . S
C305 H290 0.930 . S
C305 C300 1.390 . S
C305 C304 1.387 . S
H306 C318 0.930 . S
H307 C320 0.930 . S
H308 C321 0.930 . S
H309 C325 0.959 . S
H310 C325 0.959 . S
H311 C325 0.961 . S
H312 C326 0.960 . S
H313 C326 0.961 . S
H314 C326 0.959 . S
H315 C329 0.929 . S
H316 C330 0.931 . S
H317 C332 0.930 . S
C318 H306 0.930 . S
C318 C319 1.399 . S
C318 C323 1.399 . S
C319 C318 1.399 . S
C319 C320 1.376 . S
C320 H307 0.930 . S
C320 C319 1.376 . S
C320 C321 1.388 . S
C321 H308 0.930 . S
C321 C320 1.388 . S
C321 C322 1.390 . S
C322 C321 1.390 . S
C322 C323 1.394 . S
C322 C328 1.465 . S
C323 C318 1.399 . S
C323 C322 1.394 . S
C323 C324 1.516 . S
C324 C323 1.516 . S
C324 C325 1.502 . S
C324 C326 1.561 . S
C324 C327 1.526 . S
C325 H309 0.959 . S
C325 H310 0.959 . S
C325 H311 0.961 . S
C325 C324 1.502 . S
C326 H312 0.960 . S
C326 H313 0.961 . S
C326 H314 0.959 . S
C326 C324 1.561 . S
C327 C324 1.526 . S
C327 C328 1.396 . S
C327 C332 1.390 . S
C328 C322 1.465 . S
C328 C327 1.396 . S
C328 C329 1.399 . S
C329 H315 0.929 . S
C329 C328 1.399 . S
C329 C330 1.385 . S
C330 H316 0.931 . S
C330 C329 1.385 . S
C330 C331 1.389 . S
C331 C330 1.389 . S
C331 C332 1.387 . S
C332 H317 0.930 . S
C332 C327 1.390 . S
C332 C331 1.387 . S
H333 C345 0.930 . S
H334 C347 0.930 . S
H335 C348 0.930 . S
H336 C352 0.959 . S
H337 C352 0.959 . S
H338 C352 0.961 . S
H339 C353 0.960 . S
H340 C353 0.961 . S
H341 C353 0.959 . S
H342 C356 0.929 . S
H343 C357 0.931 . S
H344 C359 0.930 . S
C345 H333 0.930 . S
C345 C346 1.399 . S
C345 C350 1.399 . S
C346 C345 1.399 . S
C346 C347 1.376 . S
C347 H334 0.930 . S
C347 C346 1.376 . S
C347 C348 1.388 . S
C348 H335 0.930 . S
C348 C347 1.388 . S
C348 C349 1.390 . S
C349 C348 1.390 . S
C349 C350 1.394 . S
C349 C355 1.465 . S
C350 C345 1.399 . S
C350 C349 1.394 . S
C350 C351 1.516 . S
C351 C350 1.516 . S
C351 C352 1.502 . S
C351 C353 1.561 . S
C351 C354 1.526 . S
C352 H336 0.959 . S
C352 H337 0.959 . S
C352 H338 0.961 . S
C352 C351 1.502 . S
C353 H339 0.960 . S
C353 H340 0.961 . S
C353 H341 0.959 . S
C353 C351 1.561 . S
C354 C351 1.526 . S
C354 C355 1.396 . S
C354 C359 1.390 . S
C355 C349 1.465 . S
C355 C354 1.396 . S
C355 C356 1.399 . S
C356 H342 0.929 . S
C356 C355 1.399 . S
C356 C357 1.385 . S
C357 H343 0.931 . S
C357 C356 1.385 . S
C357 C358 1.389 . S
C358 C357 1.389 . S
C358 C359 1.387 . S
C359 H344 0.930 . S
C359 C354 1.390 . S
C359 C358 1.387 . S
H360 C372 0.930 . S
H361 C374 0.930 . S
H362 C375 0.930 . S
H363 C379 0.959 . S
H364 C379 0.959 . S
H365 C379 0.961 . S
H366 C380 0.960 . S
H367 C380 0.961 . S
H368 C380 0.959 . S
H369 C383 0.929 . S
H370 C384 0.931 . S
H371 C386 0.930 . S
C372 H360 0.930 . S
C372 C373 1.399 . S
C372 C377 1.399 . S
C373 C372 1.399 . S
C373 C374 1.376 . S
C374 H361 0.930 . S
C374 C373 1.376 . S
C374 C375 1.388 . S
C375 H362 0.930 . S
C375 C374 1.388 . S
C375 C376 1.390 . S
C376 C375 1.390 . S
C376 C377 1.394 . S
C376 C382 1.465 . S
C377 C372 1.399 . S
C377 C376 1.394 . S
C377 C378 1.516 . S
C378 C377 1.516 . S
C378 C379 1.502 . S
C378 C380 1.561 . S
C378 C381 1.526 . S
C379 H363 0.959 . S
C379 H364 0.959 . S
C379 H365 0.961 . S
C379 C378 1.502 . S
C380 H366 0.960 . S
C380 H367 0.961 . S
C380 H368 0.959 . S
C380 C378 1.561 . S
C381 C378 1.526 . S
C381 C382 1.396 . S
C381 C386 1.390 . S
C382 C376 1.465 . S
C382 C381 1.396 . S
C382 C383 1.399 . S
C383 H369 0.929 . S
C383 C382 1.399 . S
C383 C384 1.385 . S
C384 H370 0.931 . S
C384 C383 1.385 . S
C384 C385 1.389 . S
C385 C384 1.389 . S
C385 C386 1.387 . S
C386 H371 0.930 . S
C386 C381 1.390 . S
C386 C385 1.387 . S
H387 C399 0.930 . S
H388 C401 0.930 . S
H389 C402 0.930 . S
H390 C406 0.959 . S
H391 C406 0.959 . S
H392 C406 0.961 . S
H393 C407 0.960 . S
H394 C407 0.961 . S
H395 C407 0.959 . S
H396 C410 0.929 . S
H397 C411 0.931 . S
H398 C413 0.930 . S
C399 H387 0.930 . S
C399 C400 1.399 . S
C399 C404 1.399 . S
C400 C399 1.399 . S
C400 C401 1.376 . S
C401 H388 0.930 . S
C401 C400 1.376 . S
C401 C402 1.388 . S
C402 H389 0.930 . S
C402 C401 1.388 . S
C402 C403 1.390 . S
C403 C402 1.390 . S
C403 C404 1.394 . S
C403 C409 1.465 . S
C404 C399 1.399 . S
C404 C403 1.394 . S
C404 C405 1.516 . S
C405 C404 1.516 . S
C405 C406 1.502 . S
C405 C407 1.561 . S
C405 C408 1.526 . S
C406 H390 0.959 . S
C406 H391 0.959 . S
C406 H392 0.961 . S
C406 C405 1.502 . S
C407 H393 0.960 . S
C407 H394 0.961 . S
C407 H395 0.959 . S
C407 C405 1.561 . S
C408 C405 1.526 . S
C408 C409 1.396 . S
C408 C413 1.390 . S
C409 C403 1.465 . S
C409 C408 1.396 . S
C409 C410 1.399 . S
C410 H396 0.929 . S
C410 C409 1.399 . S
C410 C411 1.385 . S
C411 H397 0.931 . S
C411 C410 1.385 . S
C411 C412 1.389 . S
C412 C411 1.389 . S
C412 C413 1.387 . S
C413 H398 0.930 . S
C413 C408 1.390 . S
C413 C412 1.387 . S
H414 C426 0.930 . S
H415 C428 0.930 . S
H416 C429 0.930 . S
H417 C433 0.959 . S
H418 C433 0.959 . S
H419 C433 0.961 . S
H420 C434 0.960 . S
H421 C434 0.961 . S
H422 C434 0.959 . S
H423 C437 0.929 . S
H424 C438 0.931 . S
H425 C440 0.930 . S
C426 H414 0.930 . S
C426 C427 1.399 . S
C426 C431 1.399 . S
C427 C426 1.399 . S
C427 C428 1.376 . S
C428 H415 0.930 . S
C428 C427 1.376 . S
C428 C429 1.388 . S
C429 H416 0.930 . S
C429 C428 1.388 . S
C429 C430 1.390 . S
C430 C429 1.390 . S
C430 C431 1.394 . S
C430 C436 1.465 . S
C431 C426 1.399 . S
C431 C430 1.394 . S
C431 C432 1.516 . S
C432 C431 1.516 . S
C432 C433 1.502 . S
C432 C434 1.561 . S
C432 C435 1.526 . S
C433 H417 0.959 . S
C433 H418 0.959 . S
C433 H419 0.961 . S
C433 C432 1.502 . S
C434 H420 0.960 . S
C434 H421 0.961 . S
C434 H422 0.959 . S
C434 C432 1.561 . S
C435 C432 1.526 . S
C435 C436 1.396 . S
C435 C440 1.390 . S
C436 C430 1.465 . S
C436 C435 1.396 . S
C436 C437 1.399 . S
C437 H423 0.929 . S
C437 C436 1.399 . S
C437 C438 1.385 . S
C438 H424 0.931 . S
C438 C437 1.385 . S
C438 C439 1.389 . S
C439 C438 1.389 . S
C439 C440 1.387 . S
C440 H425 0.930 . S
C440 C435 1.390 . S
C440 C439 1.387 . S
H441 C453 0.930 . S
H442 C455 0.930 . S
H443 C456 0.930 . S
H444 C460 0.959 . S
H445 C460 0.959 . S
H446 C460 0.961 . S
H447 C461 0.960 . S
H448 C461 0.961 . S
H449 C461 0.959 . S
H450 C464 0.929 . S
H451 C465 0.931 . S
H452 C467 0.930 . S
C453 H441 0.930 . S
C453 C454 1.399 . S
C453 C458 1.399 . S
C454 C453 1.399 . S
C454 C455 1.376 . S
C455 H442 0.930 . S
C455 C454 1.376 . S
C455 C456 1.388 . S
C456 H443 0.930 . S
C456 C455 1.388 . S
C456 C457 1.390 . S
C457 C456 1.390 . S
C457 C458 1.394 . S
C457 C463 1.465 . S
C458 C453 1.399 . S
C458 C457 1.394 . S
C458 C459 1.516 . S
C459 C458 1.516 . S
C459 C460 1.502 . S
C459 C461 1.561 . S
C459 C462 1.526 . S
C460 H444 0.959 . S
C460 H445 0.959 . S
C460 H446 0.961 . S
C460 C459 1.502 . S
C461 H447 0.960 . S
C461 H448 0.961 . S
C461 H449 0.959 . S
C461 C459 1.561 . S
C462 C459 1.526 . S
C462 C463 1.396 . S
C462 C467 1.390 . S
C463 C457 1.465 . S
C463 C462 1.396 . S
C463 C464 1.399 . S
C464 H450 0.929 . S
C464 C463 1.399 . S
C464 C465 1.385 . S
C465 H451 0.931 . S
C465 C464 1.385 . S
C465 C466 1.389 . S
C466 C465 1.389 . S
C466 C467 1.387 . S
C467 H452 0.930 . S
C467 C462 1.390 . S
C467 C466 1.387 . S
H468 C480 0.930 . S
H469 C482 0.930 . S
H470 C483 0.930 . S
H471 C487 0.959 . S
H472 C487 0.959 . S
H473 C487 0.961 . S
H474 C488 0.960 . S
H475 C488 0.961 . S
H476 C488 0.959 . S
H477 C491 0.929 . S
H478 C492 0.931 . S
H479 C494 0.930 . S
C480 H468 0.930 . S
C480 C481 1.399 . S
C480 C485 1.399 . S
C481 C480 1.399 . S
C481 C482 1.376 . S
C482 H469 0.930 . S
C482 C481 1.376 . S
C482 C483 1.388 . S
C483 H470 0.930 . S
C483 C482 1.388 . S
C483 C484 1.390 . S
C484 C483 1.390 . S
C484 C485 1.394 . S
C484 C490 1.465 . S
C485 C480 1.399 . S
C485 C484 1.394 . S
C485 C486 1.516 . S
C486 C485 1.516 . S
C486 C487 1.502 . S
C486 C488 1.561 . S
C486 C489 1.526 . S
C487 H471 0.959 . S
C487 H472 0.959 . S
C487 H473 0.961 . S
C487 C486 1.502 . S
C488 H474 0.960 . S
C488 H475 0.961 . S
C488 H476 0.959 . S
C488 C486 1.561 . S
C489 C486 1.526 . S
C489 C490 1.396 . S
C489 C494 1.390 . S
C490 C484 1.465 . S
C490 C489 1.396 . S
C490 C491 1.399 . S
C491 H477 0.929 . S
C491 C490 1.399 . S
C491 C492 1.385 . S
C492 H478 0.931 . S
C492 C491 1.385 . S
C492 C493 1.389 . S
C493 C492 1.389 . S
C493 C494 1.387 . S
C494 H479 0.930 . S
C494 C489 1.390 . S
C494 C493 1.387 . S
H495 C507 0.930 . S
H496 C509 0.930 . S
H497 C510 0.930 . S
H498 C514 0.959 . S
H499 C514 0.959 . S
H500 C514 0.961 . S
H501 C515 0.960 . S
H502 C515 0.961 . S
H503 C515 0.959 . S
H504 C518 0.929 . S
H505 C519 0.931 . S
H506 C521 0.930 . S
C507 H495 0.930 . S
C507 C508 1.399 . S
C507 C512 1.399 . S
C508 C507 1.399 . S
C508 C509 1.376 . S
C509 H496 0.930 . S
C509 C508 1.376 . S
C509 C510 1.388 . S
C510 H497 0.930 . S
C510 C509 1.388 . S
C510 C511 1.390 . S
C511 C510 1.390 . S
C511 C512 1.394 . S
C511 C517 1.465 . S
C512 C507 1.399 . S
C512 C511 1.394 . S
C512 C513 1.516 . S
C513 C512 1.516 . S
C513 C514 1.502 . S
C513 C515 1.561 . S
C513 C516 1.526 . S
C514 H498 0.959 . S
C514 H499 0.959 . S
C514 H500 0.961 . S
C514 C513 1.502 . S
C515 H501 0.960 . S
C515 H502 0.961 . S
C515 H503 0.959 . S
C515 C513 1.561 . S
C516 C513 1.526 . S
C516 C517 1.396 . S
C516 C521 1.390 . S
C517 C511 1.465 . S
C517 C516 1.396 . S
C517 C518 1.399 . S
C518 H504 0.929 . S
C518 C517 1.399 . S
C518 C519 1.385 . S
C519 H505 0.931 . S
C519 C518 1.385 . S
C519 C520 1.389 . S
C520 C519 1.389 . S
C520 C521 1.387 . S
C521 H506 0.930 . S
C521 C516 1.390 . S
C521 C520 1.387 . S
H522 C534 0.930 . S
H523 C536 0.930 . S
H524 C537 0.930 . S
H525 C541 0.959 . S
H526 C541 0.959 1_556 S
H527 C541 0.961 . S
H528 C542 0.946 1_554 S
H529 C542 0.976 . S
H530 C542 0.962 . S
H531 C545 0.929 . S
H532 C546 0.931 . S
H533 C548 0.930 . S
C534 H522 0.930 . S
C534 C535 1.399 . S
C534 C539 1.399 . S
C535 C534 1.399 . S
C535 C536 1.376 . S
C536 H523 0.930 . S
C536 C535 1.376 . S
C536 C537 1.388 . S
C537 H524 0.930 . S
C537 C536 1.388 . S
C537 C538 1.390 . S
C538 C537 1.390 . S
C538 C539 1.394 . S
C538 C544 1.465 1_554 S
C539 C534 1.399 . S
C539 C538 1.394 . S
C539 C540 1.516 . S
C540 C539 1.516 . S
C540 C541 1.502 . S
C540 C542 1.558 1_454 S
C540 C543 1.526 1_554 S
C541 H525 0.959 . S
C541 H526 0.959 1_554 S
C541 H527 0.961 . S
C541 C540 1.502 . S
C542 H528 0.946 1_556 S
C542 H529 0.976 . S
C542 H530 0.962 . S
C542 C540 1.558 1_656 S
C543 C540 1.526 1_556 S
C543 C544 1.396 . S
C543 C548 1.390 . S
C544 C538 1.465 1_556 S
C544 C543 1.396 . S
C544 C545 1.399 . S
C545 H531 0.929 . S
C545 C544 1.399 . S
C545 C546 1.385 . S
C546 H532 0.931 . S
C546 C545 1.385 . S
C546 C547 1.389 . S
C547 C546 1.389 . S
C547 C548 1.387 . S
C548 H533 0.930 . S
C548 C543 1.390 . S
C548 C547 1.387 . S
H549 C561 0.930 . S
H550 C563 0.930 . S
H551 C564 0.930 . S
H552 C568 0.959 . S
H553 C568 0.959 . S
H554 C568 0.961 . S
H555 C569 0.960 . S
H556 C569 0.961 . S
H557 C569 0.959 . S
H558 C572 0.929 . S
H559 C573 0.931 . S
H560 C575 0.930 . S
C561 H549 0.930 . S
C561 C562 1.399 1_565 S
C561 C566 1.399 1_565 S
C562 C561 1.399 1_545 S
C562 C563 1.376 . S
C563 H550 0.930 . S
C563 C562 1.376 . S
C563 C564 1.388 . S
C564 H551 0.930 . S
C564 C563 1.388 . S
C564 C565 1.390 . S
C565 C564 1.390 . S
C565 C566 1.394 . S
C565 C571 1.465 . S
C566 C561 1.399 1_545 S
C566 C565 1.394 . S
C566 C567 1.516 1_545 S
C567 C566 1.516 1_565 S
C567 C568 1.502 . S
C567 C569 1.561 . S
C567 C570 1.533 . S
C568 H552 0.959 . S
C568 H553 0.959 . S
C568 H554 0.961 . S
C568 C567 1.502 . S
C569 H555 0.960 . S
C569 H556 0.961 . S
C569 H557 0.959 . S
C569 C567 1.561 . S
C570 C567 1.533 . S
C570 C571 1.385 1_565 S
C570 C575 1.391 . S
C571 C565 1.465 . S
C571 C570 1.385 1_545 S
C571 C572 1.399 . S
C572 H558 0.929 . S
C572 C571 1.399 . S
C572 C573 1.385 . S
C573 H559 0.931 . S
C573 C572 1.385 . S
C573 C574 1.389 . S
C574 C573 1.389 . S
C574 C575 1.387 1_545 S
C575 H560 0.930 . S
C575 C570 1.391 . S
C575 C574 1.387 1_565 S
H576 C588 0.930 . S
H577 C590 0.930 . S
H578 C591 0.930 . S
H579 C595 0.959 . S
H580 C595 0.959 . S
H581 C595 0.961 . S
H582 C596 0.960 . S
H583 C596 0.961 . S
H584 C596 0.959 . S
H585 C599 0.929 . S
H586 C600 0.931 . S
H587 C602 0.930 . S
C588 H576 0.930 . S
C588 C589 1.399 . S
C588 C593 1.399 . S
C589 C588 1.399 . S
C589 C590 1.376 . S
C590 H577 0.930 . S
C590 C589 1.376 . S
C590 C591 1.388 . S
C591 H578 0.930 . S
C591 C590 1.388 . S
C591 C592 1.390 . S
C592 C591 1.390 . S
C592 C593 1.394 . S
C592 C598 1.465 . S
C593 C588 1.399 . S
C593 C592 1.394 . S
C593 C594 1.516 . S
C594 C593 1.516 . S
C594 C595 1.502 . S
C594 C596 1.561 . S
C594 C597 1.526 . S
C595 H579 0.959 . S
C595 H580 0.959 . S
C595 H581 0.961 . S
C595 C594 1.502 . S
C596 H582 0.960 . S
C596 H583 0.961 . S
C596 H584 0.959 . S
C596 C594 1.561 . S
C597 C594 1.526 . S
C597 C598 1.396 . S
C597 C602 1.390 . S
C598 C592 1.465 . S
C598 C597 1.396 . S
C598 C599 1.399 . S
C599 H585 0.929 . S
C599 C598 1.399 . S
C599 C600 1.385 . S
C600 H586 0.931 . S
C600 C599 1.385 . S
C600 C601 1.389 . S
C601 C600 1.389 . S
C601 C602 1.387 . S
C602 H587 0.930 . S
C602 C597 1.390 . S
C602 C601 1.387 . S
H603 C615 0.930 . S
H604 C617 0.930 . S
H605 C618 0.930 . S
H606 C622 0.959 . S
H607 C622 0.959 . S
H608 C622 0.961 . S
H609 C623 0.960 . S
H610 C623 0.961 . S
H611 C623 0.959 . S
H612 C626 0.929 . S
H613 C627 0.931 . S
H614 C629 0.930 . S
C615 H603 0.930 . S
C615 C616 1.399 1_565 S
C615 C620 1.399 . S
C616 C615 1.399 1_545 S
C616 C617 1.376 . S
C617 H604 0.930 . S
C617 C616 1.376 . S
C617 C618 1.388 . S
C618 H605 0.930 . S
C618 C617 1.388 . S
C618 C619 1.390 . S
C619 C618 1.390 . S
C619 C620 1.394 1_545 S
C619 C625 1.465 . S
C620 C615 1.399 . S
C620 C619 1.394 1_565 S
C620 C621 1.516 . S
C621 C620 1.516 . S
C621 C622 1.502 . S
C621 C623 1.561 . S
C621 C624 1.526 . S
C622 H606 0.959 . S
C622 H607 0.959 . S
C622 H608 0.961 . S
C622 C621 1.502 . S
C623 H609 0.960 . S
C623 H610 0.961 . S
C623 H611 0.959 . S
C623 C621 1.561 . S
C624 C621 1.526 . S
C624 C625 1.396 1_565 S
C624 C629 1.390 . S
C625 C619 1.465 . S
C625 C624 1.396 1_545 S
C625 C626 1.399 . S
C626 H612 0.929 . S
C626 C625 1.399 . S
C626 C627 1.385 . S
C627 H613 0.931 . S
C627 C626 1.385 . S
C627 C628 1.389 . S
C628 C627 1.389 . S
C628 C629 1.387 1_545 S
C629 H614 0.930 . S
C629 C624 1.390 . S
C629 C628 1.387 1_565 S
H630 C642 0.930 . S
H631 C644 0.930 . S
H632 C645 0.930 . S
H633 C649 0.959 . S
H634 C649 0.959 1_554 S
H635 C649 0.961 . S
H636 C650 0.960 . S
H637 C650 0.961 1_554 S
H638 C650 0.959 . S
H639 C653 0.929 . S
H640 C654 0.931 . S
H641 C656 0.930 . S
C642 H630 0.930 . S
C642 C643 1.399 . S
C642 C647 1.399 . S
C643 C642 1.399 . S
C643 C644 1.376 . S
C644 H631 0.930 . S
C644 C643 1.376 . S
C644 C645 1.388 . S
C645 H632 0.930 . S
C645 C644 1.388 . S
C645 C646 1.390 . S
C646 C645 1.390 . S
C646 C647 1.394 . S
C646 C652 1.465 . S
C647 C642 1.399 . S
C647 C646 1.394 . S
C647 C648 1.516 . S
C648 C647 1.516 . S
C648 C649 1.502 . S
C648 C650 1.561 . S
C648 C651 1.526 1_556 S
C649 H633 0.959 . S
C649 H634 0.959 1_556 S
C649 H635 0.961 . S
C649 C648 1.502 . S
C650 H636 0.960 . S
C650 H637 0.961 1_556 S
C650 H638 0.959 . S
C650 C648 1.561 . S
C651 C648 1.526 1_554 S
C651 C652 1.396 1_554 S
C651 C656 1.390 . S
C652 C646 1.465 . S
C652 C651 1.396 1_556 S
C652 C653 1.399 . S
C653 H639 0.929 . S
C653 C652 1.399 . S
C653 C654 1.385 1_556 S
C654 H640 0.931 . S
C654 C653 1.385 1_554 S
C654 C655 1.389 . S
C655 C654 1.389 . S
C655 C656 1.387 . S
C656 H641 0.930 . S
C656 C651 1.390 . S
C656 C655 1.387 . S
H657 C669 0.930 . S
H658 C671 0.930 . S
H659 C672 0.930 . S
H660 C676 0.959 . S
H661 C676 0.959 . S
H662 C676 0.961 . S
H663 C677 0.960 . S
H664 C677 0.961 . S
H665 C677 0.959 1_455 S
H666 C680 0.929 . S
H667 C681 0.931 . S
H668 C683 0.930 . S
C669 H657 0.930 . S
C669 C670 1.399 1_655 S
C669 C674 1.399 . S
C670 C669 1.399 1_455 S
C670 C671 1.376 . S
C671 H658 0.930 . S
C671 C670 1.376 . S
C671 C672 1.388 . S
C672 H659 0.930 . S
C672 C671 1.388 . S
C672 C673 1.390 . S
C673 C672 1.390 . S
C673 C674 1.394 1_455 S
C673 C679 1.465 . S
C674 C669 1.399 . S
C674 C673 1.394 1_655 S
C674 C675 1.516 . S
C675 C674 1.516 . S
C675 C676 1.502 . S
C675 C677 1.561 . S
C675 C678 1.526 . S
C676 H660 0.959 . S
C676 H661 0.959 . S
C676 H662 0.961 . S
C676 C675 1.502 . S
C677 H663 0.960 . S
C677 H664 0.961 . S
C677 H665 0.959 1_655 S
C677 C675 1.561 . S
C678 C675 1.526 . S
C678 C679 1.396 1_655 S
C678 C683 1.390 . S
C679 C673 1.465 . S
C679 C678 1.396 1_455 S
C679 C680 1.399 . S
C680 H666 0.929 . S
C680 C679 1.399 . S
C680 C681 1.385 . S
C681 H667 0.931 . S
C681 C680 1.385 . S
C681 C682 1.389 . S
C682 C681 1.389 . S
C682 C683 1.387 1_455 S
C683 H668 0.930 . S
C683 C678 1.390 . S
C683 C682 1.387 1_655 S
C211 C7 0.569 . S
C223 C189 0.616 . S
C238 C51 1.823 . S
C250 C167 1.771 . S
C265 C87 1.194 . S
C277 C180 1.203 . S
C292 C16 0.445 . S
C304 C193 0.256 . S
C331 C163 1.912 . S
C319 C42 2.046 . S
C358 C176 1.229 . S
C346 C96 1.323 . S
C373 C47 1.091 . S
C385 C141 1.088 . S
C400 C91 3.026 . S
C412 C154 2.995 1_655 S
C427 C2 2.018 . S
C439 C124 1.852 . S
C466 C137 1.371 . S
C454 C56 1.398 . S
C493 C150 2.850 . S
C481 C82 3.040 . S
C508 C11 1.821 . S
C520 C128 1.788 . S
C547 C155 1.735 . S
C535 C19 1.666 . S
C562 C50 1.485 . S
C574 C129 1.484 . S
C589 C99 1.556 . S
C601 C142 1.596 . S
C628 C181 1.538 . S
C616 C59 1.481 . S
C655 C194 1.353 . S
C643 C90 1.313 . S
C670 C10 1.409 . S
C682 C168 1.486 . S
