# Generated by pormake.
# Topology zzz, (3,6)-cn, num edge types: 1
# Building blocks:
#     Node 0, Type 0, BuildingBlock: VETTIZ_charged_linker_0, # of connection points: 3
#     Node 1, Type 0, BuildingBlock: VETTIZ_charged_linker_0, # of connection points: 3
#     Node 2, Type 0, BuildingBlock: VETTIZ_charged_linker_0, # of connection points: 3
#     Node 3, Type 0, BuildingBlock: VETTIZ_charged_linker_0, # of connection points: 3
#     Node 4, Type 0, BuildingBlock: VETTIZ_charged_linker_0, # of connection points: 3
#     Node 5, Type 0, BuildingBlock: VETTIZ_charged_linker_0, # of connection points: 3
#     Node 6, Type 0, BuildingBlock: VETTIZ_charged_linker_0, # of connection points: 3
#     Node 7, Type 0, BuildingBlock: VETTIZ_charged_linker_0, # of connection points: 3
#     Node 8, Type 1, BuildingBlock: KUMBOL_clean_sbu_0, # of connection points: 6
#     Node 9, Type 1, BuildingBlock: KUMBOL_clean_sbu_0, # of connection points: 6
#     Node 10, Type 1, BuildingBlock: KUMBOL_clean_sbu_0, # of connection points: 6
#     Node 11, Type 1, BuildingBlock: KUMBOL_clean_sbu_0, # of connection points: 6
#     Edge 12, Type (0, 1), BuildingBlock: UVAHIK_clean_linker_0, # of connection points: 2
#     Edge 13, Type (0, 1), BuildingBlock: UVAHIK_clean_linker_0, # of connection points: 2
#     Edge 14, Type (0, 1), BuildingBlock: UVAHIK_clean_linker_0, # of connection points: 2
#     Edge 15, Type (0, 1), BuildingBlock: UVAHIK_clean_linker_0, # of connection points: 2
#     Edge 16, Type (0, 1), BuildingBlock: UVAHIK_clean_linker_0, # of connection points: 2
#     Edge 17, Type (0, 1), BuildingBlock: UVAHIK_clean_linker_0, # of connection points: 2
#     Edge 18, Type (0, 1), BuildingBlock: UVAHIK_clean_linker_0, # of connection points: 2
#     Edge 19, Type (0, 1), BuildingBlock: UVAHIK_clean_linker_0, # of connection points: 2
#     Edge 20, Type (0, 1), BuildingBlock: UVAHIK_clean_linker_0, # of connection points: 2
#     Edge 21, Type (0, 1), BuildingBlock: UVAHIK_clean_linker_0, # of connection points: 2
#     Edge 22, Type (0, 1), BuildingBlock: UVAHIK_clean_linker_0, # of connection points: 2
#     Edge 23, Type (0, 1), BuildingBlock: UVAHIK_clean_linker_0, # of connection points: 2
#     Edge 24, Type (0, 1), BuildingBlock: UVAHIK_clean_linker_0, # of connection points: 2
#     Edge 25, Type (0, 1), BuildingBlock: UVAHIK_clean_linker_0, # of connection points: 2
#     Edge 26, Type (0, 1), BuildingBlock: UVAHIK_clean_linker_0, # of connection points: 2
#     Edge 27, Type (0, 1), BuildingBlock: UVAHIK_clean_linker_0, # of connection points: 2
#     Edge 28, Type (0, 1), BuildingBlock: UVAHIK_clean_linker_0, # of connection points: 2
#     Edge 29, Type (0, 1), BuildingBlock: UVAHIK_clean_linker_0, # of connection points: 2
#     Edge 30, Type (0, 1), BuildingBlock: UVAHIK_clean_linker_0, # of connection points: 2
#     Edge 31, Type (0, 1), BuildingBlock: UVAHIK_clean_linker_0, # of connection points: 2
#     Edge 32, Type (0, 1), BuildingBlock: UVAHIK_clean_linker_0, # of connection points: 2
#     Edge 33, Type (0, 1), BuildingBlock: UVAHIK_clean_linker_0, # of connection points: 2
#     Edge 34, Type (0, 1), BuildingBlock: UVAHIK_clean_linker_0, # of connection points: 2
#     Edge 35, Type (0, 1), BuildingBlock: UVAHIK_clean_linker_0, # of connection points: 2
# Relax obj value: 0.280
# Max RMSD: 0.230
# Mean RMSD: 0.213
data_MOF--net-zzz--node1-KUMBOL_clean_sbu_0--node2-VETTIZ_charged_linker_0--edge1-UVAHIK_clean_linker_0
_symmetry_space_group_name_H-M    P1
_symmetry_Int_Tables_number       1
_symmetry_cell_setting            triclinic
loop_
_symmetry_equiv_pos_as_xyz
'x, y, z'
_cell_length_a     70.469084
_cell_length_b     70.372749
_cell_length_c     24.631741
_cell_angle_alpha  90.608105
_cell_angle_beta   90.031548
_cell_angle_gamma 89.937089
loop_
_atom_site_label
_atom_site_type_symbol
_atom_site_fract_x
_atom_site_fract_y
_atom_site_fract_z
_atom_type_partial_charge
C0 C 0.7888 0.53496 0.20687 0.0
C1 C 0.80572 0.54248 0.2297 0.0
C2 C 0.81275 0.5598 0.21032 0.0
C3 C 0.78807 0.56085 0.14231 0.0
C4 C 0.7799 0.54476 0.16369 0.0
C5 C 0.7612 0.54031 0.13528 0.0
H6 H 0.70233 0.56048 0.92033 0.0
C7 C 0.7771 0.56672 0.09443 0.0
C8 C 0.7609 0.55514 0.09008 0.0
H9 H 0.69034 0.52164 0.05053 0.0
H10 H 0.7212 0.52856 0.09077 0.0
H11 H 0.71965 0.59437 0.9937 0.0
H12 H 0.74344 0.54781 0.9026 0.0
H13 H 0.76068 0.56572 0.90034 0.0
H14 H 0.73758 0.56983 0.87084 0.0
H15 H 0.71902 0.59231 0.92097 0.0
H16 H 0.73886 0.60308 0.95542 0.0
C17 C 0.74502 0.54358 0.17655 0.0
C18 C 0.76189 0.51986 0.11232 0.0
C19 C 0.81 0.60941 0.9606 0.0
C20 C 0.80653 0.61319 0.90558 0.0
C21 C 0.78832 0.60937 0.88433 0.0
C22 C 0.77451 0.6003 0.91601 0.0
C23 C 0.77907 0.59469 0.96918 0.0
C24 C 0.79638 0.59983 0.99102 0.0
C25 C 0.79966 0.59144 0.046 0.0
C26 C 0.78175 0.57971 0.05282 0.0
C27 C 0.76969 0.58178 0.0081 0.0
C28 C 0.80082 0.608 0.08805 0.0
C29 C 0.81778 0.57885 0.04244 0.0
C30 C 0.706 0.55369 0.95817 0.0
C31 C 0.69351 0.54081 0.98261 0.0
C32 C 0.69954 0.53172 0.03069 0.0
C33 C 0.71737 0.53592 0.05444 0.0
C34 C 0.72935 0.5494 0.0301 0.0
C35 C 0.72348 0.55786 0.98245 0.0
C36 C 0.7378 0.57152 0.96066 0.0
C37 C 0.75276 0.57096 1.00466 0.0
C38 C 0.74814 0.55774 0.04533 0.0
C39 C 0.72843 0.5914 0.95704 0.0
C40 C 0.74525 0.56349 0.90565 0.0
H41 H 0.81048 0.58186 0.15383 0.0
H42 H 0.78275 0.52194 0.22222 0.0
H43 H 0.77504 0.51764 0.08811 0.0
H44 H 0.74983 0.51671 0.08514 0.0
H45 H 0.76181 0.50935 0.14566 0.0
H46 H 0.74751 0.55681 0.20064 0.0
H47 H 0.74409 0.53157 0.20534 0.0
H48 H 0.73111 0.54552 0.1569 0.0
H49 H 0.82388 0.61184 0.97819 0.0
H50 H 0.78517 0.61231 0.8422 0.0
H51 H 0.76118 0.59713 0.89691 0.0
H52 H 0.79433 0.6213 0.07245 0.0
H53 H 0.81576 0.61133 0.09888 0.0
H54 H 0.79277 0.60491 0.12562 0.0
H55 H 0.81804 0.57063 1.00359 0.0
H56 H 0.81881 0.56807 0.07428 0.0
H57 H 0.83083 0.58767 0.04419 0.0
H58 H 0.82555 0.56595 0.22742 0.0
C59 C 0.80401 0.56901 0.16727 0.0
C60 C 0.90628 0.79976 0.90719 0.0
C61 C 0.90031 0.81872 0.91486 0.0
C62 C 0.90331 0.82741 0.96606 0.0
C63 C 0.92161 0.80025 0.99543 0.0
C64 C 0.91711 0.79095 0.94759 0.0
C65 C 0.9269 0.77199 0.94287 0.0
H66 H 0.99637 0.71173 0.01842 0.0
C67 C 0.93604 0.7888 0.02413 0.0
C68 C 0.9392 0.77221 0.99384 0.0
H69 H 0.95391 0.70559 0.89254 0.0
H70 H 0.93914 0.73442 0.92132 0.0
H71 H 1.0018 0.76016 1.00741 0.0
H72 H 0.96435 0.73018 0.1177 0.0
H73 H 0.97985 0.74679 0.14986 0.0
H74 H 0.98954 0.72588 0.11794 0.0
H75 H 0.01117 0.74363 0.05586 0.0
H76 H 1.00416 0.76716 0.07657 0.0
C77 C 0.93901 0.77201 0.89024 0.0
C78 C 0.91143 0.75629 0.94468 0.0
C79 C 0.96679 0.81876 0.18861 0.0
C80 C 0.98257 0.81477 0.22109 0.0
C81 C 0.99308 0.79803 0.20933 0.0
C82 C 0.98755 0.78548 0.1665 0.0
C83 C 0.97157 0.78987 0.13433 0.0
C84 C 0.96174 0.80649 0.146 0.0
C85 C 0.94618 0.81033 0.10654 0.0
C86 C 0.94751 0.79302 0.06995 0.0
C87 C 0.96232 0.78068 0.08569 0.0
C88 C 0.95109 0.82902 0.07628 0.0
C89 C 0.92715 0.81081 0.13816 0.0
C90 C 0.98383 0.71672 0.99757 0.0
C91 C 0.97648 0.70646 0.95217 0.0
C92 C 0.96004 0.71328 0.92664 0.0
C93 C 0.9514 0.73012 0.94358 0.0
C94 C 0.95922 0.74075 0.98648 0.0
C95 C 0.97485 0.73397 0.01417 0.0
C96 C 0.98029 0.74758 0.06031 0.0
C97 C 0.96535 0.76338 0.05498 0.0
C98 C 0.95343 0.75917 0.01042 0.0
C99 C 1.0005 0.75505 0.04982 0.0
C100 C 0.9785 0.73709 0.11461 0.0
H101 H 0.91614 0.826 0.04337 0.0
H102 H 0.90378 0.79242 0.86902 0.0
H103 H 0.89787 0.76163 0.96225 0.0
H104 H 0.91558 0.74434 0.9712 0.0
H105 H 0.90819 0.75066 0.90341 0.0
H106 H 0.94633 0.7859 0.88552 0.0
H107 H 0.92999 0.76965 0.85379 0.0
H108 H 0.95044 0.76132 0.88985 0.0
H109 H 0.95872 0.83171 0.19504 0.0
H110 H 1.00543 0.79459 0.2335 0.0
H111 H 0.99595 0.77295 0.15957 0.0
H112 H 0.96652 0.83233 0.07822 0.0
H113 H 0.94343 0.84139 0.09408 0.0
H114 H 0.94804 0.82816 0.03227 0.0
H115 H 0.92702 0.79988 0.17048 0.0
H116 H 0.91476 0.80741 0.1123 0.0
H117 H 0.92485 0.82487 0.158 0.0
H118 H 0.89899 0.84196 0.97379 0.0
C119 C 0.91373 0.81822 1.00639 0.0
C120 C 0.80807 0.97426 0.044 0.0
C121 C 0.81805 0.96678 0.99846 0.0
C122 C 0.81064 0.95081 0.9711 0.0
C123 C 0.78236 0.95203 0.02613 0.0
C124 C 0.79015 0.96638 0.05758 0.0
C125 C 0.77686 0.97171 0.10413 0.0
H126 H 0.68923 0.957 0.22184 0.0
C127 C 0.76299 0.94813 0.04506 0.0
C128 C 0.75959 0.95901 0.09241 0.0
H129 H 0.73268 0.9946 0.28299 0.0
H130 H 0.75329 0.98577 0.20665 0.0
H131 H 0.6912 0.97156 0.11143 0.0
H132 H 0.71509 0.92167 0.18094 0.0
H133 H 0.70523 0.91504 0.11766 0.0
H134 H 0.69028 0.92576 0.16882 0.0
H135 H 0.67868 0.94951 0.109 0.0
H136 H 0.69432 0.95664 0.05482 0.0
C137 C 0.77188 0.99298 0.1003 0.0
C138 C 0.78663 0.9665 0.15796 0.0
C139 C 0.71702 0.91792 0.91193 0.0
C140 C 0.69708 0.91681 0.91269 0.0
C141 C 0.68774 0.91824 0.96333 0.0
C142 C 0.69777 0.92295 0.0106 0.0
C143 C 0.71725 0.92686 1.00731 0.0
C144 C 0.72674 0.92344 0.95924 0.0
C145 C 0.7474 0.92867 0.9631 0.0
C146 C 0.74817 0.9376 0.01988 0.0
C147 C 0.73049 0.93642 0.04531 0.0
C148 C 0.75171 0.94328 0.91804 0.0
C149 C 0.75927 0.9101 0.95875 0.0
C150 C 0.70335 0.96305 0.21966 0.0
C151 C 0.70949 0.97608 0.25917 0.0
C152 C 0.72769 0.9843 0.25332 0.0
C153 C 0.73964 0.9791 0.2092 0.0
C154 C 0.73317 0.96584 0.17 0.0
C155 C 0.71509 0.95839 0.17577 0.0
C156 C 0.70925 0.94622 0.12864 0.0
C157 C 0.72723 0.94615 0.09515 0.0
C158 C 0.74147 0.95765 0.11886 0.0
C159 C 0.69248 0.95632 0.09944 0.0
C160 C 0.70457 0.9261 0.14981 0.0
H161 H 0.78817 0.9314 0.9619 0.0
H162 H 0.81372 0.98618 0.0669 0.0
H163 H 0.7924 0.95179 0.1557 0.0
H164 H 0.77678 0.96686 0.19268 0.0
H165 H 0.79861 0.97633 0.16674 0.0
H166 H 0.76735 0.99651 0.05833 0.0
H167 H 0.78436 1.00193 0.11078 0.0
H168 H 0.76005 0.99704 0.12738 0.0
H169 H 0.72477 0.91608 0.87432 0.0
H170 H 0.67245 0.91735 0.96619 0.0
H171 H 0.68971 0.92447 0.04724 0.0
H172 H 0.74102 0.95493 0.91874 0.0
H173 H 0.75133 0.93643 0.87725 0.0
H174 H 0.76565 0.95015 0.92222 0.0
H175 H 0.75036 0.89709 0.96124 0.0
H176 H 0.76959 0.9089 0.99263 0.0
H177 H 0.76706 0.90921 0.9196 0.0
H178 H 0.81829 0.94442 0.93735 0.0
C179 C 0.79308 0.94331 0.98508 0.0
C180 C 0.54048 0.72965 0.22212 0.0
C181 C 0.54828 0.71224 0.23976 0.0
C182 C 0.56318 0.70393 0.20989 0.0
C183 C 0.56171 0.72918 0.1442 0.0
C184 C 0.5477 0.73807 0.17448 0.0
C185 C 0.54226 0.75702 0.14999 0.0
H186 H 0.55002 0.81668 0.9328 0.0
C187 C 0.56558 0.74065 0.09568 0.0
C188 C 0.55451 0.75728 0.09874 0.0
H189 H 0.51743 0.82712 0.07817 0.0
H190 H 0.52852 0.79705 0.1158 0.0
H191 H 0.5875 0.80201 0.99314 0.0
H192 H 0.53956 0.77472 0.91856 0.0
H193 H 0.55882 0.75974 0.90457 0.0
H194 H 0.55894 0.78372 0.87939 0.0
H195 H 0.58393 0.8009 0.92103 0.0
H196 H 0.59644 0.7824 0.9565 0.0
C197 C 0.54792 0.77295 0.19044 0.0
C198 C 0.52087 0.75671 0.13652 0.0
C199 C 0.60362 0.71075 0.94227 0.0
C200 C 0.60678 0.71619 0.88822 0.0
C201 C 0.60235 0.73491 0.87291 0.0
C202 C 0.59365 0.74751 0.90971 0.0
C203 C 0.58906 0.74126 0.96221 0.0
C204 C 0.59462 0.72337 0.97821 0.0
C205 C 0.58796 0.7188 0.03459 0.0
C206 C 0.57682 0.73666 0.04905 0.0
C207 C 0.5775 0.74968 1.00655 0.0
C208 C 0.60571 0.71638 0.07127 0.0
C209 C 0.57502 0.701 0.03067 0.0
C210 C 0.54532 0.81253 0.97288 0.0
C211 C 0.53282 0.82408 1.00248 0.0
C212 C 0.52711 0.81834 0.0547 0.0
C213 C 0.53355 0.80094 0.07633 0.0
C214 C 0.54599 0.78937 0.04558 0.0
C215 C 0.55178 0.79553 0.99503 0.0
C216 C 0.56505 0.78197 0.96737 0.0
C217 C 0.5667 0.76665 0.00963 0.0
C218 C 0.55535 0.7707 0.05549 0.0
C219 C 0.58424 0.79226 0.95849 0.0
C220 C 0.55529 0.77467 0.91453 0.0
H221 H 0.58108 0.70496 0.14157 0.0
H222 H 0.52926 0.73654 0.24503 0.0
H223 H 0.51717 0.74347 0.11381 0.0
H224 H 0.51653 0.76864 0.11068 0.0
H225 H 0.51224 0.75718 0.17424 0.0
H226 H 0.56197 0.76987 0.20904 0.0
H227 H 0.53736 0.77426 0.22375 0.0
H228 H 0.54952 0.78686 0.17079 0.0
H229 H 0.60658 0.69639 0.95524 0.0
H230 H 0.6048 0.73949 0.83166 0.0
H231 H 0.59004 0.76133 0.89494 0.0
H232 H 0.61833 0.72376 0.0544 0.0
H233 H 0.60954 0.70116 0.07575 0.0
H234 H 0.60372 0.72286 0.11208 0.0
H235 H 0.56556 0.70185 0.99458 0.0
H236 H 0.56537 0.69943 0.06549 0.0
H237 H 0.58359 0.68781 0.02662 0.0
H238 H 0.56941 0.69061 0.22269 0.0
C239 C 0.56992 0.71227 0.16258 0.0
C240 C 0.31211 0.48691 0.1627 0.0
C241 C 0.32117 0.47954 0.20919 0.0
C242 C 0.31203 0.46536 0.23917 0.0
C243 C 0.28544 0.46555 0.17682 0.0
C244 C 0.29419 0.47961 0.14706 0.0
C245 C 0.28204 0.4854 0.09902 0.0
H246 H 0.20407 0.46463 0.94179 0.0
C247 C 0.26769 0.46002 0.1491 0.0
C248 C 0.26575 0.47113 0.10212 0.0
H249 H 0.23927 0.51442 0.92843 0.0
H250 H 0.25949 0.50292 1.00201 0.0
H251 H 0.23813 0.43319 0.9721 0.0
H252 H 0.19613 0.46752 0.04611 0.0
H253 H 0.20172 0.45281 0.10061 0.0
H254 H 0.19217 0.44264 0.03881 0.0
H255 H 0.21293 0.42941 0.97205 0.0
H256 H 0.22797 0.41947 0.02396 0.0
C257 C 0.2936 0.48303 0.04624 0.0
C258 C 0.27512 0.50596 0.10924 0.0
C259 C 0.21924 0.41749 0.23984 0.0
C260 C 0.2017 0.41031 0.22093 0.0
C261 C 0.19832 0.40969 0.1645 0.0
C262 C 0.21087 0.41826 0.12846 0.0
C263 C 0.22683 0.42779 0.1489 0.0
C264 C 0.2317 0.42605 0.20283 0.0
C265 C 0.25039 0.43569 0.21505 0.0
C266 C 0.25403 0.4459 0.16161 0.0
C267 C 0.2399 0.44142 0.12375 0.0
C268 C 0.26543 0.42006 0.22626 0.0
C269 C 0.24761 0.4499 0.26277 0.0
C270 C 0.21637 0.47292 0.95374 0.0
C271 C 0.22025 0.49024 0.92874 0.0
C272 C 0.23602 0.50094 0.94705 0.0
C273 C 0.24761 0.49433 0.98996 0.0
C274 C 0.24297 0.47719 0.016 0.0
C275 C 0.22738 0.46701 0.99763 0.0
C276 C 0.22267 0.45051 0.03284 0.0
C277 C 0.23787 0.45234 0.07608 0.0
C278 C 0.25024 0.4676 0.06574 0.0
C279 C 0.2254 0.4321 0.99864 0.0
C280 C 0.20218 0.45334 0.05571 0.0
H281 H 0.28809 0.44759 0.24798 0.0
H282 H 0.31884 0.49792 0.13916 0.0
H283 H 0.27127 0.50816 0.15267 0.0
H284 H 0.26216 0.50937 0.0862 0.0
H285 H 0.28637 0.51638 0.09904 0.0
H286 H 0.29995 0.46857 0.04386 0.0
H287 H 0.3053 0.49357 0.04471 0.0
H288 H 0.28476 0.48477 0.00963 0.0
H289 H 0.22255 0.41754 0.28276 0.0
H290 H 0.18514 0.40413 0.14827 0.0
H291 H 0.20707 0.4181 0.08639 0.0
H292 H 0.26033 0.40561 0.21472 0.0
H293 H 0.26927 0.4196 0.26998 0.0
H294 H 0.27852 0.42217 0.20206 0.0
H295 H 0.23497 0.45901 0.25555 0.0
H296 H 0.25979 0.45957 0.26821 0.0
H297 H 0.24544 0.44228 0.30153 0.0
H298 H 0.31875 0.4596 0.27503 0.0
C299 C 0.29431 0.45833 0.22326 0.0
C300 C 0.11207 0.2257 0.26418 0.0
C301 C 0.11761 0.20656 0.25863 0.0
C302 C 0.11477 0.1973 0.20823 0.0
C303 C 0.09724 0.22449 0.17533 0.0
C304 C 0.10168 0.23424 0.2225 0.0
C305 C 0.09226 0.25339 0.22525 0.0
H306 H 0.02755 0.3164 0.13453 0.0
C307 C 0.08322 0.23595 0.14503 0.0
C308 C 0.08024 0.25287 0.17386 0.0
H309 H 0.06827 0.32162 0.26543 0.0
H310 H 0.08044 0.29089 0.24496 0.0
H311 H 0.05837 0.29384 0.04303 0.0
H312 H 0.01832 0.26783 0.15419 0.0
H313 H 0.01622 0.25987 0.0858 0.0
H314 H 0.01032 0.28404 0.10297 0.0
H315 H 0.0335 0.29961 0.04042 0.0
H316 H 0.04214 0.27767 0.01195 0.0
C317 C 0.10808 0.26873 0.22268 0.0
C318 C 0.07984 0.25416 0.27732 0.0
C319 C 0.05313 0.20536 0.98064 0.0
C320 C 0.03757 0.20935 0.94734 0.0
C321 C 0.02737 0.22641 0.95723 0.0
C322 C 0.03298 0.23928 0.99917 0.0
C323 C 0.04869 0.23486 0.03236 0.0
C324 C 0.0582 0.21792 0.02253 0.0
C325 C 0.07329 0.21401 0.0634 0.0
C326 C 0.07205 0.23163 0.09872 0.0
C327 C 0.05774 0.24423 0.08099 0.0
C328 C 0.09258 0.21279 0.03327 0.0
C329 C 0.06763 0.19572 0.09452 0.0
C330 C 0.03906 0.31071 0.15853 0.0
C331 C 0.04706 0.32163 0.20175 0.0
C332 C 0.06202 0.31376 0.23181 0.0
C333 C 0.06914 0.29577 0.21974 0.0
C334 C 0.06134 0.28505 0.177 0.0
C335 C 0.04666 0.29239 0.14639 0.0
C336 C 0.04096 0.27838 0.10147 0.0
C337 C 0.05496 0.26191 0.11009 0.0
C338 C 0.06649 0.2661 0.15548 0.0
C339 C 0.04382 0.28784 0.046 0.0
C340 C 0.02029 0.27218 0.11127 0.0
H341 H 0.10238 0.19805 0.13015 0.0
H342 H 0.11442 0.23338 0.30192 0.0
H343 H 0.07276 0.24026 0.28407 0.0
H344 H 0.06813 0.26454 0.27525 0.0
H345 H 0.08857 0.25745 0.31377 0.0
H346 H 0.12145 0.26301 0.20484 0.0
H347 H 0.11159 0.27438 0.26374 0.0
H348 H 0.10417 0.2807 0.19598 0.0
H349 H 0.06091 0.19217 0.9756 0.0
H350 H 0.01518 0.22982 0.93238 0.0
H351 H 0.02483 0.25206 1.00474 0.0
H352 H 0.09333 0.22351 1.00045 0.0
H353 H 0.09464 0.19855 0.01427 0.0
H354 H 0.10482 0.21598 0.05991 0.0
H355 H 0.05212 0.19288 0.09204 0.0
H356 H 0.07046 0.1968 0.13862 0.0
H357 H 0.07501 0.18299 0.0778 0.0
H358 H 0.11885 0.18258 0.20242 0.0
C359 C 0.10477 0.20622 0.16648 0.0
C360 C 0.30396 0.03298 0.97536 0.0
C361 C 0.32288 0.03835 0.96343 0.0
C362 C 0.3313 0.0531 0.99374 0.0
C363 C 0.30291 0.05664 0.0482 0.0
C364 C 0.2942 0.04238 0.0183 0.0
C365 C 0.27431 0.03856 0.03962 0.0
H366 H 0.20438 0.06492 0.22111 0.0
C367 C 0.2896 0.06358 0.09018 0.0
C368 C 0.27246 0.05345 0.0852 0.0
H369 H 0.20237 0.01712 0.11047 0.0
H370 H 0.23364 0.02556 0.07492 0.0
H371 H 0.24122 0.05612 0.26371 0.0
H372 H 0.22614 0.09579 0.14069 0.0
H373 H 0.24274 0.10705 0.18383 0.0
H374 H 0.22071 0.09844 0.21158 0.0
H375 H 0.23519 0.08017 0.28068 0.0
H376 H 0.25934 0.07301 0.26736 0.0
C377 C 0.27385 0.01813 0.06183 0.0
C378 C 0.25989 0.04192 0.99364 0.0
C379 C 0.31415 0.10731 0.2385 0.0
C380 C 0.30574 0.11477 0.28611 0.0
C381 C 0.28573 0.11499 0.28948 0.0
C382 C 0.27462 0.10577 0.24995 0.0
C383 C 0.28356 0.0963 0.20637 0.0
C384 C 0.30286 0.09819 0.19948 0.0
C385 C 0.30992 0.08765 0.15007 0.0
C386 C 0.29192 0.0776 0.13152 0.0
C387 C 0.27662 0.08258 0.1649 0.0
C388 C 0.32542 0.07335 0.16827 0.0
C389 C 0.31673 0.10256 0.10833 0.0
C390 C 0.21051 0.05646 0.18851 0.0
C391 C 0.20086 0.04059 0.16795 0.0
C392 C 0.20957 0.02952 0.12672 0.0
C393 C 0.22772 0.03439 0.10642 0.0
C394 C 0.23745 0.05015 0.1287 0.0
C395 C 0.22869 0.06073 0.16936 0.0
C396 C 0.24136 0.07568 0.19316 0.0
C397 C 0.25915 0.07276 0.15975 0.0
C398 C 0.25697 0.058 0.12097 0.0
C399 C 0.24443 0.07122 0.25433 0.0
C400 C 0.2323 0.09534 0.18226 0.0
H401 H 0.32895 0.07321 0.05703 0.0
H402 H 0.29717 0.02161 0.95269 0.0
H403 H 0.26244 0.05594 0.97455 0.0
H404 H 0.24511 0.04206 0.0084 0.0
H405 H 0.26119 0.03076 0.96163 0.0
H406 H 0.28685 0.01517 0.08594 0.0
H407 H 0.27314 0.00754 0.02812 0.0
H408 H 0.26184 0.01574 0.08958 0.0
H409 H 0.32939 0.10688 0.2336 0.0
H410 H 0.27867 0.12127 0.32433 0.0
H411 H 0.25957 0.10551 0.25638 0.0
H412 H 0.32133 0.06653 0.20709 0.0
H413 H 0.33924 0.0806 0.17477 0.0
H414 H 0.3276 0.06148 0.13938 0.0
H415 H 0.31058 0.11688 0.11657 0.0
H416 H 0.31211 0.09901 0.06641 0.0
H417 H 0.33241 0.10411 0.10906 0.0
H418 H 0.34571 0.05751 0.98512 0.0
C419 C 0.32146 0.06229 0.03547 0.0
C420 C 0.46781 0.29733 0.93768 0.0
C421 C 0.46284 0.31613 0.9232 0.0
C422 C 0.45138 0.32687 0.95888 0.0
C423 C 0.44939 0.30061 0.02088 0.0
C424 C 0.46074 0.28979 0.9868 0.0
C425 C 0.46383 0.27005 0.00965 0.0
H426 H 0.44445 0.2079 0.21539 0.0
C427 C 0.44415 0.28917 0.06829 0.0
C428 C 0.45231 0.27102 0.06233 0.0
H429 H 0.48004 0.19687 0.07599 0.0
H430 H 0.47385 0.22884 0.04299 0.0
H431 H 0.46128 0.24634 0.24148 0.0
H432 H 0.41088 0.23104 0.15339 0.0
H433 H 0.40499 0.25009 0.19715 0.0
H434 H 0.41361 0.22817 0.22532 0.0
H435 H 0.43959 0.24073 0.27566 0.0
H436 H 0.44509 0.26465 0.25517 0.0
C437 C 0.48523 0.26748 0.02078 0.0
C438 C 0.45567 0.25531 0.96914 0.0
C439 C 0.40882 0.32146 0.22268 0.0
C440 C 0.40401 0.31562 0.27529 0.0
C441 C 0.4054 0.29617 0.28794 0.0
C442 C 0.41277 0.28306 0.2501 0.0
C443 C 0.41904 0.28949 0.19925 0.0
C444 C 0.41644 0.3083 0.18579 0.0
C445 C 0.42456 0.31289 0.13116 0.0
C446 C 0.4332 0.2939 0.11485 0.0
C447 C 0.42992 0.28028 0.15467 0.0
C448 C 0.43993 0.32849 0.13926 0.0
C449 C 0.40784 0.31849 0.09343 0.0
C450 C 0.45066 0.21215 0.17716 0.0
C451 C 0.46244 0.1997 0.14784 0.0
C452 C 0.47081 0.20618 0.0993 0.0
C453 C 0.46718 0.22471 0.0802 0.0
C454 C 0.45528 0.23699 0.11036 0.0
C455 C 0.44739 0.2305 0.15817 0.0
C456 C 0.43607 0.2454 0.18746 0.0
C457 C 0.43787 0.26187 0.14896 0.0
C458 C 0.44911 0.2571 0.10335 0.0
C459 C 0.44581 0.24951 0.24298 0.0
C460 C 0.41529 0.23838 0.19158 0.0
H461 H 0.436 0.32841 0.03167 0.0
H462 H 0.47664 0.28871 0.91119 0.0
H463 H 0.44133 0.25976 0.95522 0.0
H464 H 0.45388 0.24116 0.98721 0.0
H465 H 0.46493 0.25389 0.93282 0.0
H466 H 0.49117 0.28039 0.04093 0.0
H467 H 0.49314 0.26507 0.9823 0.0
H468 H 0.48823 0.25562 0.0484 0.0
H469 H 0.40827 0.33632 0.21174 0.0
H470 H 0.40162 0.29125 0.32804 0.0
H471 H 0.41404 0.26858 0.2628 0.0
H472 H 0.44742 0.32676 0.1787 0.0
H473 H 0.43354 0.34293 0.13917 0.0
H474 H 0.45136 0.32786 0.10865 0.0
H475 H 0.39435 0.31161 0.10602 0.0
H476 H 0.40995 0.31363 0.05097 0.0
H477 H 0.40543 0.33408 0.09409 0.0
H478 H 0.44769 0.34145 0.94974 0.0
C479 C 0.44461 0.31926 1.00697 0.0
Gd480 Gd 0.99508 0.01326 0.5499 0.0
Gd481 Gd 0.03062 1.00209 0.6554 0.0
C482 C 0.05286 0.05022 0.7656 0.0
C483 C 0.08581 0.05246 0.73765 0.0
C484 C 0.06502 0.0287 0.69691 0.0
C485 C 0.05008 0.03531 0.72762 0.0
C486 C 0.08326 0.03671 0.70295 0.0
C487 C 0.07061 0.05921 0.76901 0.0
C488 C 0.03793 0.05517 0.80035 0.0
C489 C 0.0211 0.04481 0.79813 0.0
N490 N 0.03321 0.02617 0.72332 0.0
C491 C 0.01906 0.03013 0.7598 0.0
H492 H 0.00585 0.02253 0.75885 0.0
C493 C 0.07721 1.00364 0.64318 0.0
N494 N 0.06208 0.01322 0.665 0.0
C495 C 0.09554 0.01114 0.64708 0.0
C496 C 0.09852 0.02802 0.67614 0.0
H497 H 0.07496 0.99044 0.62131 0.0
H498 H 0.07291 0.07091 0.79722 0.0
H499 H 0.01954 0.9942 0.44131 0.0
H500 H 0.03945 0.06657 0.82995 0.0
H501 H 0.00959 0.04821 0.82565 0.0
H502 H 0.09965 0.059 0.74224 0.0
H503 H 0.95164 0.02311 0.59589 0.0
H504 H 0.98371 0.95446 0.36031 0.0
H505 H 0.0146 0.97067 0.36986 0.0
H506 H 0.92382 0.96233 0.44908 0.0
H507 H 0.10734 1.00385 0.62796 0.0
H508 H 0.11275 0.03371 0.67967 0.0
H509 H 0.94999 0.95118 0.39079 0.0
H510 H 0.91879 0.01157 0.58455 0.0
N511 N 0.99173 0.99154 0.47567 0.0
C512 C 0.98573 0.96492 0.39238 0.0
C513 C 1.00316 0.97406 0.39762 0.0
C514 C 0.97094 0.96982 0.42758 0.0
C515 C 0.97437 0.98347 0.46892 0.0
C516 C 0.00586 0.98754 0.43903 0.0
N517 N 0.96333 1.00338 0.53894 0.0
C518 C 0.95971 0.98959 0.50171 0.0
C519 C 0.93016 1.0052 0.5611 0.0
C520 C 0.92638 0.99023 0.52509 0.0
C521 C 0.94878 0.01174 0.56722 0.0
C522 C 0.94117 0.98243 0.49419 0.0
H523 H 0.91196 0.98515 0.52045 0.0
O524 O 0.97779 0.03756 0.5281 0.0
O525 O 0.01392 0.02502 0.61562 0.0
O526 O 1.00037 1.00052 0.68842 0.0
O527 O 0.98017 0.99599 0.61447 0.0
O528 O 0.986 0.03411 0.61495 0.0
O529 O 1.00432 0.03249 0.48664 0.0
O530 O 0.04693 0.97742 0.6798 0.0
O531 O 0.01168 0.99079 0.59031 0.0
O532 O 0.02489 0.01365 0.51417 0.0
O533 O 0.04692 0.01491 0.58531 0.0
O534 O 0.03811 0.9784 0.59592 0.0
O535 O 0.02372 0.98743 0.7299 0.0
C536 C 1.00225 0.03642 0.63784 0.0
C537 C 0.9379 0.96818 0.455 0.0
C538 C 0.95279 0.96185 0.4218 0.0
C539 C 0.99118 0.04491 0.49869 0.0
C540 C 0.99765 0.06413 0.51561 0.0
C541 C 0.98588 0.07589 0.54768 0.0
C542 C 0.0163 0.07007 0.50485 0.0
C543 C 0.02338 0.08709 0.5272 0.0
C544 C 0.99284 0.09282 0.56998 0.0
C545 C 0.01153 0.09836 0.56022 0.0
C546 C 0.98365 0.99581 0.6674 0.0
C547 C 0.02219 0.97793 0.57027 0.0
C548 C 0.03591 0.97384 0.72065 0.0
C549 C 0.02877 0.95426 0.72308 0.0
C550 C 0.04126 0.93962 0.73713 0.0
C551 C 0.00987 0.94992 0.7095 0.0
C552 C 1.00333 0.93108 0.71108 0.0
C553 C 0.03496 0.92085 0.73803 0.0
C554 C 0.01613 0.91657 0.72532 0.0
C555 C 0.04238 0.01592 0.53314 0.0
H556 H 0.97144 0.07176 0.55689 0.0
H557 H 0.02555 0.06125 0.48026 0.0
H558 H 0.98377 0.10161 0.59531 0.0
H559 H 0.0166 0.1116 0.57767 0.0
H560 H 0.05592 0.94272 0.74719 0.0
H561 H 1.00028 0.96113 0.69758 0.0
H562 H 0.04465 0.9096 0.74912 0.0
H563 H 0.01149 0.90195 0.72799 0.0
Gd564 Gd 0.50251 0.99287 0.51267 0.0
Gd565 Gd 0.51183 0.02876 0.61667 0.0
C566 C 0.49073 0.03412 0.79168 0.0
C567 C 0.45987 0.04891 0.78091 0.0
C568 C 0.47961 0.04226 0.7016 0.0
C569 C 0.49333 0.03449 0.73484 0.0
C570 C 0.46281 0.04984 0.72464 0.0
C571 C 0.47379 0.04105 0.81436 0.0
C572 C 0.50541 0.02717 0.82421 0.0
C573 C 0.52239 0.02135 0.80016 0.0
N574 N 0.50956 0.02791 0.71193 0.0
C575 C 0.52433 0.02208 0.74378 0.0
H576 H 0.53753 0.01758 0.72542 0.0
C577 C 0.46958 0.05102 0.61389 0.0
N578 N 0.48272 0.0426 0.64706 0.0
C579 C 0.45295 0.05901 0.6351 0.0
C580 C 0.44946 0.05827 0.6906 0.0
H581 H 0.47107 0.05122 0.57061 0.0
H582 H 0.47148 0.04071 0.85782 0.0
H583 H 0.5242 0.02558 0.43356 0.0
H584 H 0.50394 0.02665 0.86796 0.0
H585 H 0.53399 0.01631 0.82498 0.0
H586 H 0.44696 0.05444 0.79903 0.0
H587 H 0.50013 0.94658 0.54376 0.0
H588 H 0.5725 1.00017 0.35859 0.0
H589 H 0.55129 0.02778 0.37242 0.0
H590 H 0.57242 0.93669 0.42614 0.0
H591 H 0.44261 0.06535 0.60827 0.0
H592 H 0.43641 0.06422 0.70673 0.0
H593 H 0.5806 0.96645 0.3802 0.0
H594 H 0.51943 0.91751 0.53438 0.0
N595 N 0.52913 0.99664 0.45471 0.0
C596 C 0.56035 0.99899 0.38527 0.0
C597 C 0.54841 0.01457 0.39295 0.0
C598 C 0.55648 0.98207 0.41223 0.0
C599 C 0.54045 0.98126 0.44657 0.0
C600 C 0.53285 0.01317 0.42791 0.0
N601 N 0.52004 0.96423 0.50339 0.0
C602 C 0.53592 0.96462 0.47247 0.0
C603 C 0.52441 0.93071 0.51733 0.0
C604 C 0.54145 0.93123 0.48867 0.0
C605 C 0.51363 0.94729 0.52317 0.0
C606 C 0.54719 0.9482 0.46471 0.0
H607 H 0.54971 0.91833 0.48374 0.0
O608 O 0.48386 0.97114 0.47917 0.0
O609 O 0.48933 0.01281 0.57332 0.0
O610 O 0.51146 1.0002 0.65977 0.0
O611 O 0.50932 0.97708 0.59065 0.0
O612 O 0.47815 0.98554 0.56848 0.0
O613 O 0.48785 0.99736 0.4363 0.0
O614 O 0.52809 0.05032 0.57458 0.0
O615 O 0.52452 0.01159 0.54883 0.0
O616 O 0.49475 0.02141 0.47711 0.0
O617 O 0.5013 0.04443 0.54332 0.0
O618 O 0.53863 0.01122 0.62196 0.0
O619 O 0.527 0.05096 0.66144 0.0
C620 C 0.47694 1.00176 0.59285 0.0
C621 C 0.5635 0.94909 0.43212 0.0
C622 C 0.56811 0.96599 0.4058 0.0
C623 C 0.47774 0.982 0.44069 0.0
C624 C 0.45703 0.9843 0.43841 0.0
C625 C 0.44562 0.96866 0.42469 0.0
C626 C 0.44844 1.00153 0.45435 0.0
C627 C 0.42862 1.00308 0.45696 0.0
C628 C 0.42588 0.97014 0.42731 0.0
C629 C 0.41739 0.98721 0.44359 0.0
C630 C 0.51112 0.98226 0.64243 0.0
C631 C 0.5393 1.00549 0.57225 0.0
C632 C 0.53518 0.05767 0.61849 0.0
C633 C 0.55603 0.05885 0.61914 0.0
C634 C 0.56539 0.0731 0.59036 0.0
C635 C 0.56666 0.04427 0.64262 0.0
C636 C 0.58639 0.04297 0.63516 0.0
C637 C 0.58514 0.07255 0.58481 0.0
C638 C 0.59559 0.0575 0.60651 0.0
C639 C 0.49576 0.0393 0.494 0.0
H640 H 0.452 0.95522 0.41288 0.0
H641 H 0.45711 0.01362 0.4659 0.0
H642 H 0.41714 0.958 0.41687 0.0
H643 H 0.40205 0.98812 0.44482 0.0
H644 H 0.55742 0.08439 0.57133 0.0
H645 H 0.55932 0.03345 0.66475 0.0
H646 H 0.59233 0.0836 0.56255 0.0
H647 H 0.61082 0.05732 0.60088 0.0
Gd648 Gd 0.48689 0.51544 0.61833 0.0
Gd649 Gd 0.53256 0.50913 0.54557 0.0
C650 C 0.591 0.52618 0.6099 0.0
C651 C 0.59813 0.55408 0.5563 0.0
C652 C 0.56861 0.53685 0.54208 0.0
C653 C 0.57339 0.52445 0.58304 0.0
C654 C 0.58105 0.55164 0.52763 0.0
C655 C 0.60313 0.54133 0.59724 0.0
C656 C 0.59616 0.5123 0.6474 0.0
C657 C 0.58405 0.49697 0.65637 0.0
N658 N 0.56127 0.51008 0.59456 0.0
C659 C 0.56662 0.49603 0.62931 0.0
H660 H 0.55731 0.48418 0.63695 0.0
C661 C 0.54783 0.5445 0.47012 0.0
N662 N 0.55212 0.53394 0.51482 0.0
C663 C 0.55961 0.55948 0.45461 0.0
C664 C 0.57618 0.56322 0.48391 0.0
H665 H 0.53495 0.54184 0.44756 0.0
H666 H 0.6166 0.54304 0.61795 0.0
H667 H 0.46443 0.545 0.53242 0.0
H668 H 0.60958 0.51308 0.6688 0.0
H669 H 0.58804 0.48597 0.68456 0.0
H670 H 0.6078 0.56546 0.54613 0.0
H671 H 0.48156 0.47993 0.70618 0.0
H672 H 0.41053 0.52116 0.49193 0.0
H673 H 0.4343 0.54674 0.48285 0.0
H674 H 0.40765 0.46513 0.60043 0.0
H675 H 0.55586 0.56816 0.42022 0.0
H676 H 0.58531 0.57479 0.4717 0.0
H677 H 0.40088 0.49049 0.53513 0.0
H678 H 0.45875 0.4542 0.72535 0.0
N679 N 0.4584 0.51832 0.56861 0.0
C680 C 0.4238 0.5203 0.51402 0.0
C681 C 0.43718 0.53475 0.50877 0.0
C682 C 0.42758 0.50508 0.54844 0.0
C683 C 0.44513 0.50463 0.57611 0.0
C684 C 0.4544 0.53363 0.53688 0.0
N685 N 0.46536 0.49118 0.64103 0.0
C686 C 0.44883 0.49049 0.61303 0.0
C687 C 0.45579 0.46427 0.69352 0.0
C688 C 0.43912 0.46279 0.66312 0.0
C689 C 0.46864 0.47887 0.68267 0.0
C690 C 0.43528 0.47621 0.62301 0.0
H691 H 0.42912 0.45155 0.67183 0.0
O692 O 0.47706 0.5214 0.7 0.0
O693 O 0.51833 0.51719 0.62289 0.0
O694 O 0.52452 0.48325 0.59622 0.0
O695 O 0.49151 0.48443 0.59698 0.0
O696 O 0.50494 0.50774 0.69169 0.0
O697 O 0.47748 0.54388 0.64012 0.0
O698 O 0.53836 0.49883 0.46377 0.0
O699 O 0.50121 0.50687 0.54243 0.0
O700 O 0.49546 0.54145 0.56829 0.0
O701 O 0.52849 0.54018 0.56555 0.0
O702 O 0.51397 0.51494 0.47147 0.0
O703 O 0.54866 0.48326 0.53341 0.0
C704 C 0.52113 0.51201 0.6711 0.0
C705 C 0.41817 0.47607 0.59372 0.0
C706 C 0.41431 0.49052 0.55659 0.0
C707 C 0.47546 0.53956 0.69126 0.0
C708 C 0.48514 0.55179 0.73111 0.0
C709 C 0.47725 0.55401 0.78302 0.0
C710 C 0.50289 0.55993 0.71956 0.0
C711 C 0.51275 0.56999 0.76009 0.0
C712 C 0.48703 0.56407 0.8233 0.0
C713 C 0.50475 0.57193 0.81208 0.0
C714 C 0.50769 0.47507 0.60229 0.0
C715 C 0.49793 0.51115 0.49385 0.0
C716 C 0.54666 0.48343 0.48087 0.0
C717 C 0.54035 0.46547 0.45661 0.0
C718 C 0.55361 0.45381 0.4301 0.0
C719 C 0.52156 0.45923 0.46303 0.0
C720 C 0.51621 0.44113 0.44412 0.0
C721 C 0.54826 0.43593 0.41056 0.0
C722 C 0.5297 0.42953 0.41782 0.0
C723 C 0.51231 0.54961 0.56129 0.0
H724 H 0.46367 0.54767 0.79263 0.0
H725 H 0.50923 0.55807 0.67978 0.0
H726 H 0.48092 0.56568 0.8634 0.0
H727 H 0.51214 0.57973 0.84381 0.0
H728 H 0.56817 0.45844 0.42521 0.0
H729 H 0.51132 0.46819 0.48391 0.0
H730 H 0.55856 0.42693 0.3902 0.0
H731 H 0.52583 0.41558 0.40249 0.0
Gd732 Gd 1.00291 0.49534 0.62997 0.0
Gd733 Gd 0.01968 0.53102 0.53214 0.0
C734 C 0.04764 0.58747 0.58121 0.0
C735 C 0.0205 0.60725 0.60407 0.0
C736 C 0.01589 0.57494 0.5701 0.0
C737 C 0.03524 0.57241 0.56753 0.0
C738 C 0.00828 0.59264 0.58687 0.0
C739 C 0.04017 0.60467 0.60121 0.0
C740 C 0.0671 0.58506 0.57232 0.0
C741 C 0.07364 0.56833 0.54783 0.0
N742 N 0.04194 0.5557 0.54763 0.0
C743 C 0.06076 0.55392 0.53459 0.0
H744 H 0.06594 0.54097 0.51571 0.0
C745 C 0.98538 0.56347 0.54819 0.0
N746 N 1.00451 0.56045 0.55341 0.0
C747 C 0.97722 0.58081 0.56387 0.0
C748 C 0.98866 0.59532 0.58439 0.0
H749 H 0.97599 0.55263 0.53315 0.0
H750 H 0.04947 0.61629 0.61275 0.0
H751 H 0.95664 0.48673 0.64889 0.0
H752 H 0.07708 0.59627 0.5823 0.0
H753 H 0.08859 0.56652 0.53913 0.0
H754 H 0.01489 0.62079 0.618 0.0
H755 H 0.04653 0.47317 0.6232 0.0
H756 H 0.94401 0.43051 0.5917 0.0
H757 H 0.93335 0.46124 0.63078 0.0
H758 H 1.00533 0.40442 0.55324 0.0
H759 H 0.96204 0.58286 0.56069 0.0
H760 H 0.98227 0.60868 0.59694 0.0
H761 H 0.97094 0.40953 0.56194 0.0
H762 H 0.05954 0.44251 0.59685 0.0
N763 N 0.98016 0.4709 0.6184 0.0
C764 C 0.95426 0.44168 0.59942 0.0
C765 C 0.94821 0.45896 0.62158 0.0
C766 C 0.9736 0.43875 0.58956 0.0
C767 C 0.98638 0.45377 0.60029 0.0
C768 C 0.96144 0.47334 0.63178 0.0
N769 N 0.01748 0.46549 0.6091 0.0
C770 C 0.00566 0.45092 0.59586 0.0
C771 C 0.04434 0.44468 0.59617 0.0
C772 C 0.03237 0.43003 0.57944 0.0
C773 C 0.03667 0.46228 0.61138 0.0
C774 C 0.01277 0.4329 0.57999 0.0
H775 H 0.03838 0.41645 0.56733 0.0
O776 O 0.01804 0.49391 0.70705 0.0
O777 O 0.00905 0.52594 0.61573 0.0
O778 O 0.04397 0.52684 0.59109 0.0
O779 O 0.03395 0.50198 0.6463 0.0
O780 O 0.98351 0.51984 0.65218 0.0
O781 O 0.98774 0.49021 0.70501 0.0
O782 O 1.00544 0.53614 0.45508 0.0
O783 O 0.01317 0.50043 0.54602 0.0
O784 O 0.97838 0.49974 0.57168 0.0
O785 O 0.98902 0.52341 0.51329 0.0
O786 O 0.03863 0.50633 0.50868 0.0
O787 O 0.03598 0.53445 0.45829 0.0
C788 C 0.99472 0.53339 0.63821 0.0
C789 C 1.00012 0.41822 0.56626 0.0
C790 C 0.98054 0.42114 0.5711 0.0
C791 C 1.0025 0.49341 0.73539 0.0
C792 C 1.00044 0.50811 0.77846 0.0
C793 C 0.01484 0.51092 0.81698 0.0
C794 C 0.9843 0.51984 0.78033 0.0
C795 C 0.98221 0.53414 0.82025 0.0
C796 C 0.01306 0.52519 0.8566 0.0
C797 C 0.99688 0.53673 0.85841 0.0
C798 C 0.04684 0.51442 0.63021 0.0
C799 C 0.02735 0.49288 0.52302 0.0
C800 C 0.02106 0.53451 0.42721 0.0
C801 C 0.02085 0.52071 0.38139 0.0
C802 C 0.00654 0.52159 0.34194 0.0
C803 C 0.03475 0.50642 0.37707 0.0
C804 C 0.03468 0.49319 0.33378 0.0
C805 C 0.0062 0.50844 0.29899 0.0
C806 C 0.02016 0.49436 0.29475 0.0
C807 C 0.97584 0.51151 0.53068 0.0
H808 H 0.02749 0.50215 0.81624 0.0
H809 H 0.97338 0.51797 0.74998 0.0
H810 H 0.02423 0.52726 0.88625 0.0
H811 H 0.99575 0.54738 0.89026 0.0
H812 H 0.99561 0.53241 0.34441 0.0
H813 H 0.04563 0.50548 0.40784 0.0
H814 H 0.99512 0.50925 0.26864 0.0
H815 H 0.01972 0.48465 0.26041 0.0
C816 C 0.16689 0.04788 0.19014 0.0
C817 C 0.1824 0.0354 0.19311 0.0
C818 C 0.15062 0.04499 0.22182 0.0
C819 C 0.12717 0.00985 0.31554 0.0
H820 H 0.10084 0.05491 0.36756 0.0
C821 C 0.07558 0.00968 0.49942 0.0
C822 C 0.05789 0.01862 0.49269 0.0
C823 C 0.08995 0.01148 0.46051 0.0
C824 C 0.10794 0.04217 0.35304 0.0
H825 H 0.19309 0.01009 0.23151 0.0
H826 H 0.16514 1.00524 0.28814 0.0
H827 H 0.12711 0.05808 0.3041 0.0
H828 H 0.04134 0.03593 0.43802 0.0
H829 H 0.06674 0.03982 0.37108 0.0
H830 H 0.10839 0.99412 0.36691 0.0
C831 C 0.16503 0.01696 0.26007 0.0
C832 C 0.12301 0.04393 0.31617 0.0
C833 C 0.18115 0.01969 0.22752 0.0
C834 C 0.05491 0.02927 0.44539 0.0
C835 C 0.06946 0.03145 0.4069 0.0
C836 C 0.11234 0.00815 0.3532 0.0
C837 C 0.14958 0.02978 0.2586 0.0
C838 C 0.13296 0.0278 0.29674 0.0
C839 C 0.08713 0.02245 0.41384 0.0
C840 C 0.10256 0.02428 0.37254 0.0
H841 H 0.16757 0.06022 0.16428 0.0
H842 H 0.139 0.05495 0.21799 0.0
H843 H 0.13401 0.99699 0.30109 0.0
H844 H 0.07815 1.0007 0.53376 0.0
H845 H 0.10336 1.00431 0.46707 0.0
C846 C 0.48476 0.17338 0.17523 0.0
C847 C 0.46617 0.1804 0.17005 0.0
C848 C 0.48829 0.15663 0.20409 0.0
C849 C 0.46479 0.11394 0.2635 0.0
H850 H 0.50675 0.11586 0.36518 0.0
C851 C 0.48521 0.0503 0.40149 0.0
C852 C 0.49102 0.05463 0.45491 0.0
C853 C 0.48216 0.06479 0.36377 0.0
C854 C 0.49489 0.1151 0.33725 0.0
H855 H 0.43664 0.17468 0.18817 0.0
H856 H 0.44275 0.14572 0.2384 0.0
H857 H 0.50185 0.14199 0.30263 0.0
H858 H 0.49759 0.07783 0.51059 0.0
H859 H 0.49209 0.10292 0.44532 0.0
H860 H 0.45751 0.08729 0.29936 0.0
C861 C 0.45466 0.15302 0.22033 0.0
C862 C 0.49225 0.13 0.30072 0.0
C863 C 0.45115 0.16974 0.1918 0.0
C864 C 0.49323 0.07386 0.46986 0.0
C865 C 0.49023 0.0883 0.43217 0.0
C866 C 0.46746 0.09901 0.29999 0.0
C867 C 0.47331 0.14644 0.22805 0.0
C868 C 0.47703 0.12976 0.26373 0.0
C869 C 0.4849 0.08399 0.37839 0.0
C870 C 0.48242 0.09949 0.33786 0.0
H871 H 0.49664 0.1813 0.1592 0.0
H872 H 0.50282 0.15186 0.20852 0.0
H873 H 0.45302 0.11313 0.23528 0.0
H874 H 0.48333 0.03568 0.38838 0.0
H875 H 0.47815 0.06089 0.3227 0.0
C876 C 0.35645 0.4756 0.21224 0.0
C877 C 0.34024 0.48595 0.22751 0.0
C878 C 0.37398 0.47904 0.23758 0.0
C879 C 0.4002 0.51357 0.3265 0.0
H880 H 0.43077 0.46947 0.36106 0.0
C881 C 0.4753 0.52088 0.42106 0.0
C882 C 0.48011 0.50834 0.46284 0.0
C883 C 0.45869 0.51817 0.39054 0.0
C884 C 0.42239 0.48195 0.35208 0.0
H885 H 0.32956 0.50799 0.28109 0.0
H886 H 0.36012 0.5142 0.32523 0.0
H887 H 0.40112 0.46541 0.31127 0.0
H888 H 0.47219 0.48222 0.5024 0.0
H889 H 0.44301 0.47761 0.45001 0.0
H890 H 0.42125 0.53005 0.36859 0.0
C891 C 0.3595 0.50363 0.29304 0.0
C892 C 0.40544 0.47965 0.32277 0.0
C893 C 0.34197 0.50015 0.26768 0.0
C894 C 0.46851 0.49245 0.47161 0.0
C895 C 0.45195 0.48965 0.44085 0.0
C896 C 0.41717 0.51587 0.3557 0.0
C897 C 0.37571 0.49285 0.27919 0.0
C898 C 0.39406 0.49542 0.30948 0.0
C899 C 0.44664 0.50261 0.40031 0.0
C900 C 0.42854 0.50011 0.36892 0.0
H901 H 0.35539 0.46433 0.18208 0.0
H902 H 0.38612 0.47063 0.22513 0.0
H903 H 0.39196 0.52608 0.3169 0.0
H904 H 0.48427 0.53298 0.41256 0.0
H905 H 0.45536 0.52824 0.359 0.0
C906 C 0.02288 0.34464 0.24099 0.0
C907 C 0.04084 0.34125 0.21784 0.0
C908 C 0.01933 0.36149 0.27098 0.0
C909 C 0.04548 0.39496 0.35767 0.0
H910 H 1.0025 0.42906 0.34728 0.0
C911 C 0.04451 0.46639 0.47559 0.0
C912 C 0.02726 0.47444 0.49261 0.0
C913 C 0.04488 0.44972 0.44401 0.0
C914 C 0.01443 0.41951 0.35175 0.0
H915 H 0.06865 0.35346 0.20509 0.0
H916 H 0.06252 0.38256 0.25691 0.0
H917 H 1.00478 0.40152 0.286 0.0
H918 H 0.99672 0.47169 0.48763 0.0
H919 H 0.99724 0.44244 0.43296 0.0
H920 H 0.055 0.41224 0.42405 0.0
C921 C 0.0512 0.37225 0.25243 0.0
C922 C 0.01577 0.40376 0.31612 0.0
C923 C 0.05464 0.35565 0.22216 0.0
C924 C 0.01028 0.46561 0.47611 0.0
C925 C 0.01062 0.44892 0.44409 0.0
C926 C 0.04398 0.4104 0.39386 0.0
C927 C 0.03376 0.37512 0.27894 0.0
C928 C 0.0315 0.39146 0.31804 0.0
C929 C 0.02796 0.44069 0.42719 0.0
C930 C 0.02861 0.42322 0.39105 0.0
H931 H 0.01207 0.33372 0.23927 0.0
H932 H 0.00573 0.36327 0.29083 0.0
H933 H 0.05764 0.38561 0.36097 0.0
H934 H 0.05783 0.47307 0.48664 0.0
H935 H 0.05858 0.4443 0.43151 0.0
C936 C 0.85301 0.97502 1.00143 0.0
C937 C 0.83538 0.97557 0.97484 0.0
C938 C 0.86988 0.97888 0.97282 0.0
C939 C 0.88783 0.9971 0.838 0.0
H940 H 0.93205 0.96651 0.8711 0.0
C941 C 0.94977 0.98599 0.68611 0.0
C942 C 0.96776 0.99144 0.7056 0.0
C943 C 0.93432 0.98418 0.72156 0.0
C944 C 0.91981 0.97519 0.86155 0.0
H945 H 0.82154 0.98129 0.89834 0.0
H946 H 0.85042 0.98761 0.84869 0.0
H947 H 0.90402 0.96487 0.92945 0.0
H948 H 0.98381 0.99731 0.7792 0.0
H949 H 0.957 0.99348 0.84094 0.0
H950 H 0.90342 0.00671 0.7687 0.0
C951 C 0.85161 0.98467 0.89159 0.0
C952 C 0.90374 0.97441 0.8953 0.0
C953 C 0.8349 0.981 0.92012 0.0
C954 C 0.97014 0.99355 0.76221 0.0
C955 C 0.95478 0.99128 0.79782 0.0
C956 C 0.9037 0.99755 0.80379 0.0
C957 C 0.86948 0.98325 0.91689 0.0
C958 C 0.88736 0.98523 0.88381 0.0
C959 C 0.93657 0.98709 0.77776 0.0
C960 C 0.91983 0.98653 0.81488 0.0
H961 H 0.85383 0.97061 0.04336 0.0
H962 H 0.88324 0.97795 0.99429 0.0
H963 H 0.87587 0.00609 0.82816 0.0
H964 H 0.94753 0.98329 0.64334 0.0
H965 H 0.92055 0.9805 0.70499 0.0
C966 C 0.53239 0.85962 0.99387 0.0
C967 C 0.52583 0.84171 0.97672 0.0
C968 C 0.52925 0.87572 0.96179 0.0
C969 C 0.52008 0.88755 0.81755 0.0
H970 H 0.51173 0.93869 0.87244 0.0
C971 C 0.50339 0.94935 0.67354 0.0
C972 C 0.51224 0.96693 0.68345 0.0
C973 C 0.50443 0.93474 0.71151 0.0
C974 C 0.51423 0.92451 0.8565 0.0
H975 H 0.51008 0.82664 0.91446 0.0
H976 H 0.50392 0.85464 0.85966 0.0
H977 H 0.51371 0.91222 0.93592 0.0
H978 H 0.52903 0.9829 0.74169 0.0
H979 H 0.53078 0.95745 0.80831 0.0
H980 H 0.52067 0.8997 0.73837 0.0
C981 C 0.51192 0.85636 0.89694 0.0
C982 C 0.51536 0.90932 0.89292 0.0
C983 C 0.51519 0.84033 0.92866 0.0
C984 C 0.52188 0.96964 0.73292 0.0
C985 C 0.5229 0.95502 0.77114 0.0
C986 C 0.51891 0.90266 0.78131 0.0
C987 C 0.51947 0.87417 0.91196 0.0
C988 C 0.51817 0.89058 0.87388 0.0
C989 C 0.51431 0.93729 0.76071 0.0
C990 C 0.51587 0.92134 0.80013 0.0
H991 H 0.54091 0.86096 0.03034 0.0
H992 H 0.53536 0.88914 0.97463 0.0
H993 H 0.5228 0.87345 0.80125 0.0
H994 H 0.49533 0.94693 0.63678 0.0
H995 H 0.49728 0.92146 0.70249 0.0
C996 C 0.66444 0.55232 0.93291 0.0
C997 C 0.67438 0.53729 0.95743 0.0
C998 C 0.64734 0.54914 0.90534 0.0
C999 C 0.61837 0.51063 0.84029 0.0
H1000 H 0.58004 0.55013 0.83662 0.0
C1001 C 0.54318 0.50116 0.74391 0.0
C1002 C 0.53844 0.51465 0.70447 0.0
C1003 C 0.55931 0.50358 0.77663 0.0
C1004 C 0.59072 0.53909 0.83673 0.0
H1005 H 0.67346 0.50708 0.97329 0.0
H1006 H 0.64324 0.5016 0.92677 0.0
H1007 H 0.60843 0.55468 0.89183 0.0
H1008 H 0.54592 0.54201 0.67131 0.0
H1009 H 0.57412 0.54633 0.7289 0.0
H1010 H 0.60019 0.49497 0.78585 0.0
C1011 C 0.649 0.51585 0.92768 0.0
C1012 C 0.60707 0.54164 0.86845 0.0
C1013 C 0.66626 0.51903 0.95513 0.0
C1014 C 0.54956 0.53114 0.70034 0.0
C1015 C 0.56554 0.5337 0.73372 0.0
C1016 C 0.60188 0.50803 0.809 0.0
C1017 C 0.63935 0.53085 0.9018 0.0
C1018 C 0.62132 0.52756 0.8703 0.0
C1019 C 0.5707 0.51986 0.77189 0.0
C1020 C 0.58798 0.52234 0.80634 0.0
H1021 H 0.66994 0.56667 0.93455 0.0
H1022 H 0.64065 0.56109 0.88565 0.0
H1023 H 0.62901 0.49953 0.83981 0.0
H1024 H 0.53458 0.48855 0.74872 0.0
H1025 H 0.56281 0.49278 0.80601 0.0
C1026 C 0.99028 0.6892 0.87232 0.0
C1027 C 0.98543 0.68906 0.92775 0.0
C1028 C 0.99349 0.67225 0.84342 0.0
C1029 C 1.00349 0.62066 0.85217 0.0
H1030 H 0.9753 0.61806 0.71691 0.0
C1031 C 0.01188 0.55911 0.69118 0.0
C1032 C 0.99491 0.55157 0.6699 0.0
C1033 C 0.01166 0.57556 0.72419 0.0
C1034 C 0.98326 0.61851 0.75456 0.0
H1035 H 0.98113 0.67086 0.99683 0.0
H1036 H 0.98734 0.64103 0.94651 0.0
H1037 H 0.97415 0.64694 0.77263 0.0
H1038 H 0.96441 0.55493 0.66847 0.0
H1039 H 0.96407 0.58409 0.72356 0.0
H1040 H 0.01265 0.59213 0.83353 0.0
C1041 C 0.98857 0.6544 0.92545 0.0
C1042 C 0.98272 0.63515 0.78641 0.0
C1043 C 0.98518 0.67149 0.95448 0.0
C1044 C 0.97774 0.56066 0.68318 0.0
C1045 C 0.97757 0.57736 0.71479 0.0
C1046 C 1.0043 0.60407 0.81969 0.0
C1047 C 0.99205 0.65454 0.86901 0.0
C1048 C 0.99282 0.63652 0.8357 0.0
C1049 C 0.9945 0.58499 0.73615 0.0
C1050 C 0.99412 0.60274 0.7705 0.0
H1051 H 0.99045 0.70248 0.85042 0.0
H1052 H 0.99646 0.673 0.80036 0.0
H1053 H 0.01145 0.62118 0.88977 0.0
H1054 H 0.02531 0.55218 0.68277 0.0
H1055 H 0.02497 0.58105 0.73972 0.0
C1056 C 0.13456 0.17946 0.30425 0.0
C1057 C 0.12223 0.19517 0.3074 0.0
C1058 C 0.13442 0.16567 0.34483 0.0
C1059 C 0.10963 0.15296 0.47537 0.0
H1060 H 0.1025 0.10488 0.40023 0.0
C1061 C 0.05488 0.10069 0.55502 0.0
C1062 C 0.04286 0.09347 0.51429 0.0
C1063 C 0.07245 0.10857 0.54158 0.0
C1064 C 0.10437 0.1182 0.42199 0.0
H1065 H 0.10156 0.20961 0.35861 0.0
H1066 H 0.10113 0.18594 0.42776 0.0
H1067 H 0.12062 0.12972 0.35732 0.0
H1068 H 0.04008 0.08799 0.428 0.0
H1069 H 0.07001 0.10244 0.40405 0.0
H1070 H 0.0914 0.14236 0.53687 0.0
C1071 C 0.11118 0.18409 0.39491 0.0
C1072 C 0.11516 0.13242 0.39774 0.0
C1073 C 0.1114 0.19784 0.35474 0.0
C1074 C 0.04911 0.09339 0.46027 0.0
C1075 C 0.06646 0.10155 0.44669 0.0
C1076 C 0.0984 0.13894 0.49891 0.0
C1077 C 0.12184 0.16727 0.38905 0.0
C1078 C 0.11678 0.15047 0.42246 0.0
C1079 C 0.07817 0.10978 0.48695 0.0
C1080 C 0.09457 0.12187 0.47074 0.0
H1081 H 0.1434 0.17721 0.26881 0.0
H1082 H 0.14324 0.15317 0.33967 0.0
H1083 H 0.11124 0.1664 0.49668 0.0
H1084 H 0.05052 0.10063 0.59712 0.0
H1085 H 0.08121 0.11431 0.57391 0.0
C1086 C 0.33708 0.12304 0.32976 0.0
C1087 C 0.31778 0.11826 0.33518 0.0
C1088 C 0.35002 0.11858 0.37074 0.0
C1089 C 0.35152 0.07978 0.46695 0.0
H1090 H 0.40468 0.09356 0.47441 0.0
C1091 C 0.40484 0.02207 0.50993 0.0
C1092 C 0.41958 0.0214 0.4717 0.0
C1093 C 0.39453 0.0388 0.51819 0.0
C1094 C 0.38985 0.08955 0.47306 0.0
H1095 H 0.29654 0.10904 0.39338 0.0
H1096 H 0.31879 0.10279 0.46552 0.0
H1097 H 0.38131 0.11709 0.4456 0.0
H1098 H 0.43615 0.03795 0.41531 0.0
H1099 H 0.41756 0.06684 0.42724 0.0
H1100 H 0.35989 0.05207 0.49049 0.0
C1101 C 0.32415 0.10867 0.42809 0.0
C1102 C 0.37645 0.10306 0.45664 0.0
C1103 C 0.31128 0.11256 0.38657 0.0
C1104 C 0.42474 0.03809 0.44479 0.0
C1105 C 0.41417 0.05472 0.45213 0.0
C1106 C 0.36483 0.06638 0.48321 0.0
C1107 C 0.34379 0.10982 0.41861 0.0
C1108 C 0.35722 0.09803 0.4508 0.0
C1109 C 0.39839 0.05504 0.48719 0.0
C1110 C 0.38428 0.07077 0.48393 0.0
H1111 H 0.34254 0.12842 0.29183 0.0
H1112 H 0.365 0.12012 0.36213 0.0
H1113 H 0.33698 0.07511 0.46237 0.0
H1114 H 0.40095 0.00948 0.53226 0.0
H1115 H 0.38286 0.03868 0.54678 0.0
C1116 C 0.39164 0.34728 0.30761 0.0
C1117 C 0.40133 0.33025 0.3185 0.0
C1118 C 0.3944 0.36332 0.34066 0.0
C1119 C 0.42161 0.3811 0.46247 0.0
H1120 H 0.43894 0.41875 0.36011 0.0
C1121 C 0.49358 0.41614 0.47394 0.0
C1122 C 0.49664 0.43413 0.45163 0.0
C1123 C 0.4754 0.40835 0.47484 0.0
C1124 C 0.43379 0.40879 0.38989 0.0
H1125 H 0.41959 0.31609 0.37632 0.0
H1126 H 0.42451 0.34379 0.43319 0.0
H1127 H 0.41628 0.39501 0.33107 0.0
H1128 H 0.48317 0.45856 0.41545 0.0
H1129 H 0.45121 0.4448 0.41631 0.0
H1130 H 0.44054 0.39413 0.5199 0.0
C1131 C 0.41467 0.34495 0.39961 0.0
C1132 C 0.42067 0.39509 0.3732 0.0
C1133 C 0.41185 0.32893 0.36675 0.0
C1134 C 0.48107 0.44469 0.43309 0.0
C1135 C 0.46285 0.43681 0.43349 0.0
C1136 C 0.43484 0.39478 0.4791 0.0
C1137 C 0.40698 0.36264 0.38499 0.0
C1138 C 0.41534 0.38036 0.40825 0.0
C1139 C 0.45993 0.41831 0.45286 0.0
C1140 C 0.44192 0.40803 0.44191 0.0
H1141 H 0.3831 0.3486 0.27126 0.0
H1142 H 0.38786 0.37661 0.32905 0.0
H1143 H 0.41741 0.37026 0.49092 0.0
H1144 H 0.50537 0.40785 0.48911 0.0
H1145 H 0.47374 0.39399 0.48948 0.0
C1146 C 0.17134 0.39383 0.2462 0.0
C1147 C 0.18545 0.40737 0.25843 0.0
C1148 C 0.15318 0.39554 0.26867 0.0
C1149 C 0.12374 0.42455 0.36529 0.0
H1150 H 0.08908 0.42729 0.24316 0.0
C1151 C 0.06838 0.48265 0.34803 0.0
C1152 C 0.04991 0.47847 0.32971 0.0
C1153 C 0.08248 0.46878 0.34764 0.0
C1154 C 0.09837 0.42622 0.27805 0.0
H1155 H 0.19217 0.43179 0.30937 0.0
H1156 H 0.16088 0.4346 0.34874 0.0
H1157 H 0.11898 0.41024 0.23324 0.0
H1158 H 0.03218 0.45625 0.29479 0.0
H1159 H 0.05732 0.43225 0.2914 0.0
H1160 H 0.10358 0.44166 0.40879 0.0
C1161 C 0.16365 0.4227 0.32164 0.0
C1162 C 0.11552 0.41637 0.27253 0.0
C1163 C 0.18174 0.42105 0.29905 0.0
C1164 C 0.04622 0.46012 0.30879 0.0
C1165 C 0.06055 0.44628 0.30735 0.0
C1166 C 0.10664 0.43446 0.3707 0.0
C1167 C 0.14885 0.4107 0.30417 0.0
C1168 C 0.12882 0.41624 0.31523 0.0
C1169 C 0.07871 0.45041 0.32782 0.0
C1170 C 0.09426 0.43619 0.32625 0.0
H1171 H 0.17388 0.38284 0.21596 0.0
H1172 H 0.1422 0.38577 0.2554 0.0
H1173 H 0.13348 0.42438 0.39931 0.0
H1174 H 0.07211 0.49674 0.36241 0.0
H1175 H 0.09652 0.47259 0.36194 0.0
C1176 C 0.90456 0.82837 0.81815 0.0
C1177 C 0.89483 0.83066 0.86768 0.0
C1178 C 0.90466 0.84289 0.7801 0.0
C1179 C 0.90625 0.8769 0.70703 0.0
H1180 H 0.92583 0.91712 0.79978 0.0
C1181 C 0.97779 0.90968 0.6747 0.0
C1182 C 0.98298 0.92657 0.70163 0.0
C1183 C 0.95904 0.90334 0.67584 0.0
C1184 C 0.91999 0.90651 0.77236 0.0
H1185 H 0.87488 0.84866 0.91143 0.0
H1186 H 0.87557 0.87431 0.84547 0.0
H1187 H 0.90417 0.89421 0.83669 0.0
H1188 H 0.97215 0.95115 0.74551 0.0
H1189 H 0.93931 0.94052 0.74563 0.0
H1190 H 0.92317 0.88863 0.64353 0.0
C1191 C 0.88334 0.86136 0.83666 0.0
C1192 C 0.90743 0.89326 0.79378 0.0
C1193 C 0.88308 0.8467 0.87461 0.0
C1194 C 0.96865 0.93804 0.72451 0.0
C1195 C 0.94982 0.93182 0.72506 0.0
C1196 C 0.91871 0.8903 0.68538 0.0
C1197 C 0.89518 0.86011 0.79083 0.0
C1198 C 0.90157 0.87751 0.7625 0.0
C1199 C 0.94497 0.91386 0.70353 0.0
C1200 C 0.92687 0.90439 0.71901 0.0
H1201 H 0.91382 0.81632 0.81096 0.0
H1202 H 0.91399 0.8414 0.74536 0.0
H1203 H 0.90161 0.86515 0.68159 0.0
H1204 H 0.98842 0.90078 0.65537 0.0
H1205 H 0.95603 0.88943 0.65881 0.0
C1206 C 0.66702 0.91192 0.85867 0.0
C1207 C 0.68591 0.91838 0.86139 0.0
C1208 C 0.65455 0.91925 0.82001 0.0
C1209 C 0.63639 0.95747 0.79052 0.0
H1210 H 0.63616 0.96505 0.63492 0.0
C1211 C 0.59059 0.01639 0.70162 0.0
C1212 C 0.59685 0.02594 0.65507 0.0
C1213 C 0.59935 0.99971 0.71833 0.0
C1214 C 0.63618 0.9633 0.67851 0.0
H1215 H 0.70705 0.93537 0.81943 0.0
H1216 H 0.68551 0.94729 0.75134 0.0
H1217 H 0.65571 0.93979 0.67381 0.0
H1218 H 0.61749 0.02504 0.5896 0.0
H1219 H 0.6341 0.99719 0.62227 0.0
H1220 H 0.61881 0.98183 0.7973 0.0
C1221 C 0.68031 0.93689 0.77983 0.0
C1222 C 0.64714 0.94862 0.70048 0.0
C1223 C 0.69269 0.92994 0.81917 0.0
C1224 C 0.61246 0.01843 0.62636 0.0
C1225 C 0.62173 1.00206 0.6444 0.0
C1226 C 0.62599 0.97241 0.76901 0.0
C1227 C 0.66094 0.93263 0.78237 0.0
C1228 C 0.64733 0.94569 0.75671 0.0
C1229 C 0.61533 0.99247 0.69085 0.0
C1230 C 0.62575 0.97569 0.71269 0.0
H1231 H 0.66142 0.90249 0.88917 0.0
H1232 H 0.63962 0.91571 0.82237 0.0
H1233 H 0.63677 0.95581 0.83421 0.0
H1234 H 0.5789 0.02175 0.7258 0.0
H1235 H 0.59349 0.99261 0.75325 0.0
C1236 C 0.62344 0.68627 0.85888 0.0
C1237 C 0.61105 0.70131 0.84682 0.0
C1238 C 0.6225 0.66923 0.82935 0.0
C1239 C 0.59875 0.63444 0.81225 0.0
H1240 H 0.58031 0.62505 0.66621 0.0
C1241 C 0.54705 0.57434 0.78056 0.0
C1242 C 0.53126 0.57883 0.74866 0.0
C1243 C 0.56372 0.58489 0.7764 0.0
C1244 C 0.58537 0.6274 0.70722 0.0
H1245 H 0.5899 0.71122 0.78964 0.0
H1246 H 0.58817 0.68164 0.73871 0.0
H1247 H 0.59917 0.65345 0.68569 0.0
H1248 H 0.52068 0.59685 0.68482 0.0
H1249 H 0.54918 0.61631 0.68024 0.0
H1250 H 0.58371 0.60986 0.83584 0.0
C1251 C 0.59867 0.68288 0.77067 0.0
C1252 C 0.59635 0.6436 0.71817 0.0
C1253 C 0.59964 0.69992 0.80009 0.0
C1254 C 0.53274 0.59322 0.70999 0.0
C1255 C 0.54921 0.60425 0.70712 0.0
C1256 C 0.5876 0.61854 0.80162 0.0
C1257 C 0.60908 0.66695 0.78751 0.0
C1258 C 0.60247 0.64767 0.77137 0.0
C1259 C 0.56465 0.60075 0.74214 0.0
C1260 C 0.58003 0.61517 0.74948 0.0
H1261 H 0.63268 0.6871 0.89399 0.0
H1262 H 0.63101 0.6573 0.84249 0.0
H1263 H 0.60293 0.63723 0.85391 0.0
H1264 H 0.54627 0.56303 0.80998 0.0
H1265 H 0.57553 0.58122 0.80231 0.0
C1266 C 0.82535 0.60435 0.82368 0.0
C1267 C 0.82311 0.61627 0.8694 0.0
C1268 C 0.84343 0.60057 0.80317 0.0
C1269 C 0.89487 0.60855 0.81114 0.0
H1270 H 0.89589 0.55499 0.84654 0.0
C1271 C 0.96488 0.56514 0.83888 0.0
C1272 C 0.9646 0.54597 0.82171 0.0
C1273 C 0.94826 0.57612 0.83827 0.0
C1274 C 0.89595 0.56981 0.83518 0.0
H1275 H 0.83751 0.63639 0.92243 0.0
H1276 H 0.86919 0.62949 0.88692 0.0
H1277 H 0.86601 0.57181 0.84624 0.0
H1278 H 0.9461 0.52334 0.79246 0.0
H1279 H 0.918 0.54254 0.78766 0.0
H1280 H 0.92501 0.60635 0.79949 0.0
C1281 C 0.85701 0.62294 0.86748 0.0
C1282 C 0.87875 0.57947 0.83513 0.0
C1283 C 0.83887 0.62679 0.88797 0.0
C1284 C 0.94724 0.53813 0.80444 0.0
C1285 C 0.93086 0.54913 0.80276 0.0
C1286 C 0.91223 0.5987 0.81006 0.0
C1287 C 0.85949 0.60869 0.82788 0.0
C1288 C 0.87798 0.59887 0.82296 0.0
C1289 C 0.93101 0.56818 0.82037 0.0
C1290 C 0.91292 0.57915 0.8219 0.0
H1291 H 0.81359 0.59605 0.80805 0.0
H1292 H 0.84503 0.58969 0.77204 0.0
H1293 H 0.89461 0.6236 0.80246 0.0
H1294 H 0.97796 0.5718 0.85196 0.0
H1295 H 0.94892 0.59072 0.85249 0.0
C1296 C 0.04625 0.187 0.87078 0.0
C1297 C 0.03217 0.19495 0.9047 0.0
C1298 C 0.04243 0.17108 0.83775 0.0
C1299 C 0.01021 0.12949 0.82957 0.0
H1300 H 0.03294 0.12168 0.68772 0.0
C1301 C 0.99219 0.0632 0.69838 0.0
C1302 C 0.00657 0.05453 0.66729 0.0
C1303 C 0.9952 0.08067 0.72478 0.0
C1304 C 0.02666 0.12347 0.72757 0.0
H1305 H 1.00275 0.19266 0.92869 0.0
H1306 H 0.99593 0.16493 0.87059 0.0
H1307 H 0.03755 0.15184 0.73604 0.0
H1308 H 0.03506 0.05816 0.63646 0.0
H1309 H 0.04074 0.08838 0.68467 0.0
H1310 H 0.99961 0.10108 0.82182 0.0
C1311 C 0.01006 0.17094 0.86995 0.0
C1312 C 0.02925 0.14088 0.75531 0.0
C1313 C 0.01387 0.18703 0.90276 0.0
C1314 C 0.02391 0.06417 0.66157 0.0
C1315 C 0.02701 0.08169 0.68844 0.0
C1316 C 0.00771 0.11209 0.80203 0.0
C1317 C 0.02442 0.16246 0.83778 0.0
C1318 C 0.02104 0.14419 0.80679 0.0
C1319 C 0.01271 0.09018 0.72079 0.0
C1320 C 0.01583 0.10876 0.75047 0.0
H1321 H 0.06052 0.19271 0.87129 0.0
H1322 H 0.05392 0.16502 0.81407 0.0
H1323 H 1.00399 0.13122 0.86951 0.0
H1324 H 0.97849 0.05638 0.70246 0.0
H1325 H 0.98362 0.08681 0.7479 0.0
C1326 C 0.33244 0.03351 0.86593 0.0
C1327 C 0.33476 0.02898 0.92093 0.0
C1328 C 0.3467 0.02902 0.8279 0.0
C1329 C 0.39149 1.00079 0.80783 0.0
H1330 H 0.40392 0.04043 0.70577 0.0
C1331 C 0.46196 0.99998 0.68498 0.0
C1332 C 0.46135 0.00628 0.63114 0.0
C1333 C 0.4462 1.00235 0.71932 0.0
C1334 C 0.40056 0.02908 0.73351 0.0
H1335 H 0.35351 0.0158 0.97897 0.0
H1336 H 0.37814 0.0077 0.91317 0.0
H1337 H 0.37638 0.04409 0.76487 0.0
H1338 H 0.44342 0.01859 0.5697 0.0
H1339 H 0.41585 0.02269 0.62908 0.0
H1340 H 0.41577 0.98586 0.77676 0.0
C1341 C 0.36533 0.0145 0.89874 0.0
C1342 C 0.38465 0.03116 0.76743 0.0
C1343 C 0.35116 0.01907 0.9366 0.0
C1344 C 0.44444 0.01423 0.6116 0.0
C1345 C 0.42866 0.01656 0.64573 0.0
C1346 C 0.40739 0.99872 0.77392 0.0
C1347 C 0.36362 0.0199 0.84406 0.0
C1348 C 0.37991 0.01709 0.80536 0.0
C1349 C 0.42927 0.01065 0.70018 0.0
C1350 C 0.41224 0.01287 0.73638 0.0
H1351 H 0.32015 0.04152 0.85294 0.0
H1352 H 0.3447 0.03318 0.7861 0.0
H1353 H 0.38823 0.98951 0.83586 0.0
H1354 H 0.47461 0.99321 0.70057 0.0
H1355 H 0.44733 0.99772 0.76097 0.0
C1356 C 0.48832 0.32608 0.85682 0.0
C1357 C 0.46912 0.32535 0.87197 0.0
C1358 C 0.49435 0.33855 0.81596 0.0
C1359 C 0.47527 0.37385 0.71329 0.0
H1360 H 0.52433 0.39723 0.73514 0.0
C1361 C 0.49349 0.44259 0.59827 0.0
C1362 C 0.50669 0.45523 0.62104 0.0
C1363 C 0.49123 0.42433 0.61937 0.0
C1364 C 0.51037 0.39127 0.72881 0.0
H1365 H 0.44103 0.33584 0.85278 0.0
H1366 H 0.45129 0.35792 0.78515 0.0
H1367 H 0.51565 0.37003 0.78827 0.0
H1368 H 0.52771 0.45897 0.68408 0.0
H1369 H 0.52276 0.42808 0.72419 0.0
H1370 H 0.46899 0.39603 0.65848 0.0
C1371 C 0.46196 0.34887 0.80295 0.0
C1372 C 0.50553 0.37512 0.75876 0.0
C1373 C 0.45598 0.33623 0.84264 0.0
C1374 C 0.51765 0.44932 0.66522 0.0
C1375 C 0.51482 0.43136 0.68796 0.0
C1376 C 0.47978 0.39039 0.685 0.0
C1377 C 0.48132 0.35074 0.78978 0.0
C1378 C 0.48769 0.36635 0.75251 0.0
C1379 C 0.50141 0.41849 0.66583 0.0
C1380 C 0.4973 0.39971 0.69279 0.0
H1381 H 0.49879 0.31785 0.87858 0.0
H1382 H 0.50931 0.33902 0.80629 0.0
H1383 H 0.46168 0.36731 0.70505 0.0
H1384 H 0.48483 0.44689 0.56417 0.0
H1385 H 0.48124 0.41502 0.59914 0.0
C1386 C 0.20082 0.48514 0.84451 0.0
C1387 C 0.20654 0.49723 0.88731 0.0
C1388 C 0.18502 0.48956 0.81252 0.0
C1389 C 0.13975 0.5156 0.8215 0.0
H1390 H 0.13597 0.50321 0.66813 0.0
C1391 C 0.08204 0.52115 0.63258 0.0
C1392 C 0.06562 0.5143 0.65827 0.0
C1393 C 0.09972 0.52069 0.65878 0.0
C1394 C 0.13678 0.50691 0.71085 0.0
H1395 H 0.20053 0.52382 0.92872 0.0
H1396 H 0.1729 0.53169 0.87254 0.0
H1397 H 0.16654 0.50054 0.71428 0.0
H1398 H 0.05512 0.50162 0.73227 0.0
H1399 H 0.08584 0.50082 0.77782 0.0
H1400 H 0.10996 0.52178 0.81822 0.0
C1401 C 0.18064 0.5187 0.86389 0.0
C1402 C 0.15431 0.50523 0.73745 0.0
C1403 C 0.19663 0.51435 0.8956 0.0
C1404 C 0.0674 0.50702 0.71105 0.0
C1405 C 0.08504 0.50671 0.73744 0.0
C1406 C 0.12219 0.51712 0.795 0.0
C1407 C 0.17433 0.50611 0.82279 0.0
C1408 C 0.15603 0.5094 0.79328 0.0
C1409 C 0.10149 0.51347 0.71164 0.0
C1410 C 0.1204 0.51264 0.73939 0.0
H1411 H 0.20809 0.47177 0.83743 0.0
H1412 H 0.18057 0.47944 0.78164 0.0
H1413 H 0.14043 0.51873 0.8646 0.0
H1414 H 0.08137 0.52651 0.59172 0.0
H1415 H 0.11202 0.52611 0.63767 0.0
C1416 C 0.97347 0.83639 0.29908 0.0
C1417 C 0.98775 0.82871 0.26531 0.0
C1418 C 0.97722 0.85166 0.33453 0.0
C1419 C 0.0163 0.88012 0.39947 0.0
H1420 H 0.97693 0.91839 0.41434 0.0
C1421 C 0.03098 0.95343 0.50086 0.0
C1422 C 0.01693 0.96173 0.53395 0.0
C1423 C 0.02718 0.9371 0.46965 0.0
C1424 C 0.98802 0.90777 0.41131 0.0
H1425 H 0.01745 0.83088 0.2442 0.0
H1426 H 0.02409 0.8576 0.30598 0.0
H1427 H 0.97129 0.89017 0.35836 0.0
H1428 H 0.98808 0.9587 0.56254 0.0
H1429 H 0.98126 0.93013 0.50762 0.0
H1430 H 0.03309 0.89786 0.452 0.0
C1431 C 0.00993 0.85167 0.3054 0.0
C1432 C 0.98479 0.89146 0.37908 0.0
C1433 C 0.00616 0.83626 0.26994 0.0
C1434 C 0.999 0.95301 0.53605 0.0
C1435 C 0.99516 0.93657 0.50471 0.0
C1436 C 0.01955 0.89645 0.43157 0.0
C1437 C 0.99539 0.85993 0.33744 0.0
C1438 C 0.99888 0.87733 0.3725 0.0
C1439 C 0.00925 0.9283 0.47111 0.0
C1440 C 0.00549 0.91059 0.43791 0.0
H1441 H 0.95916 0.83083 0.29712 0.0
H1442 H 0.96572 0.85711 0.35934 0.0
H1443 H 0.02744 0.86956 0.39643 0.0
H1444 H 0.04502 0.95965 0.49903 0.0
H1445 H 0.03834 0.93143 0.44399 0.0
C1446 C 0.68966 0.99984 0.3118 0.0
C1447 C 0.69619 0.98112 0.30435 0.0
C1448 C 0.67434 1.00377 0.34686 0.0
C1449 C 0.64496 0.98397 0.45922 0.0
H1450 H 0.605 0.01511 0.3987 0.0
C1451 C 0.56883 0.98668 0.55187 0.0
C1452 C 0.55807 1.00331 0.54571 0.0
C1453 C 0.58674 0.9849 0.52717 0.0
C1454 C 0.61608 0.00665 0.41701 0.0
H1455 H 0.69237 0.95202 0.3297 0.0
H1456 H 0.66609 0.95886 0.39153 0.0
H1457 H 0.63461 0.011 0.34925 0.0
H1458 H 0.55843 0.0319 0.51455 0.0
H1459 H 0.58973 0.02917 0.47294 0.0
H1460 H 0.62647 0.97964 0.52709 0.0
C1461 C 0.67266 0.97056 0.37038 0.0
C1462 C 0.63314 1.00428 0.38837 0.0
C1463 C 0.68774 0.96661 0.33488 0.0
C1464 C 0.5661 0.01862 0.51789 0.0
C1465 C 0.58408 0.01699 0.49395 0.0
C1466 C 0.62794 0.9865 0.48819 0.0
C1467 C 0.66537 0.9891 0.37584 0.0
C1468 C 0.64778 0.99276 0.40874 0.0
C1469 C 0.59453 0.99994 0.49694 0.0
C1470 C 0.61312 0.99776 0.46735 0.0
H1471 H 0.69571 0.01128 0.28838 0.0
H1472 H 0.66924 0.01825 0.35041 0.0
H1473 H 0.65596 0.97513 0.47648 0.0
H1474 H 0.56315 0.97486 0.57453 0.0
H1475 H 0.59419 0.97151 0.5306 0.0
C1476 C 0.52306 0.69363 0.28779 0.0
C1477 C 0.5412 0.70188 0.28798 0.0
C1478 C 0.51833 0.67965 0.32583 0.0
C1479 C 0.54267 0.64352 0.4093 0.0
H1480 H 0.4927 0.63439 0.46912 0.0
C1481 C 0.52986 0.58032 0.55116 0.0
C1482 C 0.51335 0.56955 0.54221 0.0
C1483 C 0.53214 0.59808 0.52689 0.0
C1484 C 0.50672 0.63666 0.45246 0.0
H1485 H 0.56811 0.703 0.33015 0.0
H1486 H 0.55974 0.67926 0.39747 0.0
H1487 H 0.4984 0.6629 0.41547 0.0
H1488 H 0.48594 0.56939 0.50236 0.0
H1489 H 0.48991 0.60029 0.45973 0.0
H1490 H 0.55098 0.61723 0.44493 0.0
C1491 C 0.54927 0.68309 0.3673 0.0
C1492 C 0.50999 0.65304 0.42168 0.0
C1493 C 0.554 0.6969 0.3292 0.0
C1494 C 0.49876 0.57738 0.51053 0.0
C1495 C 0.50106 0.59514 0.486 0.0
C1496 C 0.53941 0.62721 0.43987 0.0
C1497 C 0.53167 0.67367 0.36484 0.0
C1498 C 0.52803 0.6567 0.39961 0.0
C1499 C 0.51799 0.60554 0.49275 0.0
C1500 C 0.5214 0.62347 0.4619 0.0
H1501 H 0.51304 0.69698 0.2559 0.0
H1502 H 0.50467 0.67271 0.32245 0.0
H1503 H 0.55663 0.64551 0.39193 0.0
H1504 H 0.5413 0.5748 0.57587 0.0
H1505 H 0.54519 0.6058 0.53419 0.0
C1506 C 0.82167 0.54227 0.32027 0.0
C1507 C 0.81728 0.53266 0.27152 0.0
C1508 C 0.83704 0.53655 0.35233 0.0
C1509 C 0.88349 0.51272 0.33644 0.0
H1510 H 0.88622 0.51957 0.49259 0.0
C1511 C 0.95527 0.5198 0.45043 0.0
C1512 C 0.95712 0.51153 0.50199 0.0
C1513 C 0.93769 0.52021 0.4237 0.0
C1514 C 0.88573 0.51737 0.44904 0.0
H1515 H 0.82502 0.50895 0.21957 0.0
H1516 H 0.85167 0.4986 0.27615 0.0
H1517 H 0.85575 0.52259 0.44639 0.0
H1518 H 0.94149 0.49749 0.56572 0.0
H1519 H 0.91104 0.49789 0.51904 0.0
H1520 H 0.91345 0.50755 0.33904 0.0
C1521 C 0.84333 0.51072 0.28941 0.0
C1522 C 0.86822 0.51928 0.4224 0.0
C1523 C 0.82784 0.5164 0.25743 0.0
C1524 C 0.94081 0.50369 0.5259 0.0
C1525 C 0.9232 0.50415 0.49926 0.0
C1526 C 0.901 0.51087 0.36305 0.0
C1527 C 0.84858 0.52114 0.33629 0.0
C1528 C 0.86685 0.51721 0.36558 0.0
C1529 C 0.92135 0.51245 0.44775 0.0
C1530 C 0.90245 0.51341 0.4197 0.0
H1531 H 0.81401 0.55506 0.33158 0.0
H1532 H 0.84063 0.54508 0.38772 0.0
H1533 H 0.88314 0.51124 0.29265 0.0
H1534 H 0.96743 0.52601 0.43049 0.0
H1535 H 0.93686 0.52698 0.38449 0.0
loop_
_geom_bond_atom_site_label_1
_geom_bond_atom_site_label_2
_geom_bond_distance
_geom_bond_site_symmetry_2
_ccdc_geom_bond_type
C0 C1 1.391 . S
C0 C4 1.391 . S
C0 H42 0.948 . S
C1 C0 1.391 . S
C1 C2 1.391 . S
C2 C1 1.391 . S
C2 H58 0.947 . S
C2 C59 1.392 . S
C3 C4 1.391 . S
C3 C7 1.397 . S
C3 C59 1.419 . S
C4 C0 1.391 . S
C4 C3 1.391 . S
C4 C5 1.399 . S
C5 C4 1.399 . S
C5 C8 1.396 . S
C5 C17 1.453 . S
C5 C18 1.684 . S
H6 C30 0.948 . S
C7 C3 1.397 . S
C7 C8 1.394 . S
C7 C26 1.723 . S
C8 C5 1.396 . S
C8 C7 1.394 . S
C8 C38 1.723 . S
H9 C32 0.947 . S
H10 C33 0.948 . S
H11 C39 0.982 . S
H12 C40 0.979 1_554 S
H13 C40 0.980 . S
H14 C40 0.983 . S
H15 C39 0.979 1_556 S
H16 C39 0.977 1_556 S
C17 C5 1.453 . S
C17 H46 0.982 . S
C17 H47 0.979 . S
C17 H48 0.977 . S
C18 C5 1.684 . S
C18 H43 0.979 . S
C18 H44 0.980 . S
C18 H45 0.983 . S
C19 C20 1.391 1_554 S
C19 C24 1.391 . S
C19 H49 0.948 . S
C20 C19 1.391 1_556 S
C20 C21 1.391 . S
C21 C20 1.391 . S
C21 C22 1.392 . S
C21 H50 0.947 . S
C22 C21 1.392 . S
C22 C23 1.419 1_556 S
C22 H51 0.948 . S
C23 C22 1.419 1_554 S
C23 C24 1.391 . S
C23 C27 1.397 . S
C24 C19 1.391 . S
C24 C23 1.391 . S
C24 C25 1.399 . S
C25 C24 1.399 . S
C25 C26 1.396 . S
C25 C28 1.453 . S
C25 C29 1.684 . S
C26 C7 1.723 . S
C26 C25 1.396 . S
C26 C27 1.394 . S
C27 C23 1.397 . S
C27 C26 1.394 . S
C27 C37 1.723 . S
C28 C25 1.453 . S
C28 H52 0.982 . S
C28 H53 0.979 . S
C28 H54 0.977 . S
C29 C25 1.684 . S
C29 H55 0.979 . S
C29 H56 0.980 . S
C29 H57 0.983 . S
C30 H6 0.948 . S
C30 C31 1.391 . S
C30 C35 1.391 . S
C31 C30 1.391 . S
C31 C32 1.391 . S
C32 H9 0.947 . S
C32 C31 1.391 . S
C32 C33 1.392 . S
C33 H10 0.948 . S
C33 C32 1.392 . S
C33 C34 1.419 . S
C34 C33 1.419 . S
C34 C35 1.391 . S
C34 C38 1.397 . S
C35 C30 1.391 . S
C35 C34 1.391 . S
C35 C36 1.399 . S
C36 C35 1.399 . S
C36 C37 1.396 . S
C36 C39 1.453 . S
C36 C40 1.684 1_554 S
C37 C27 1.723 . S
C37 C36 1.396 . S
C37 C38 1.394 . S
C38 C8 1.723 . S
C38 C34 1.397 . S
C38 C37 1.394 . S
C39 H11 0.982 . S
C39 H15 0.979 1_554 S
C39 H16 0.977 1_554 S
C39 C36 1.453 . S
C40 H12 0.979 1_556 S
C40 H13 0.980 . S
C40 H14 0.983 . S
C40 C36 1.684 1_556 S
H41 C59 0.948 . S
H42 C0 0.948 . S
H43 C18 0.979 . S
H44 C18 0.980 . S
H45 C18 0.983 . S
H46 C17 0.982 . S
H47 C17 0.979 . S
H48 C17 0.977 . S
H49 C19 0.948 . S
H50 C21 0.947 . S
H51 C22 0.948 . S
H52 C28 0.982 . S
H53 C28 0.979 . S
H54 C28 0.977 . S
H55 C29 0.979 . S
H56 C29 0.980 . S
H57 C29 0.983 . S
H58 C2 0.947 . S
C59 C2 1.392 . S
C59 C3 1.419 . S
C59 H41 0.948 . S
C60 C61 1.391 . S
C60 C64 1.391 1_556 S
C60 H102 0.948 . S
C61 C60 1.391 . S
C61 C62 1.391 1_556 S
C62 C61 1.391 1_554 S
C62 H118 0.947 . S
C62 C119 1.392 . S
C63 C64 1.391 . S
C63 C67 1.397 . S
C63 C119 1.419 . S
C64 C60 1.391 1_554 S
C64 C63 1.391 . S
C64 C65 1.399 . S
C65 C64 1.399 . S
C65 C68 1.396 . S
C65 C77 1.455 . S
C65 C78 1.684 1_554 S
H66 C90 0.948 . S
C67 C63 1.397 . S
C67 C68 1.394 . S
C67 C86 1.723 . S
C68 C65 1.396 . S
C68 C67 1.394 . S
C68 C98 1.723 . S
H69 C92 0.947 . S
H70 C93 0.948 . S
H71 C99 0.982 . S
H72 C100 0.979 . S
H73 C100 0.980 . S
H74 C100 0.983 . S
H75 C99 0.979 . S
H76 C99 0.977 . S
C77 C65 1.455 . S
C77 H106 0.983 . S
C77 H107 0.976 1_554 S
C77 H108 0.977 . S
C78 C65 1.684 1_556 S
C78 H103 0.979 . S
C78 H104 0.980 . S
C78 H105 0.983 . S
C79 C80 1.391 . S
C79 C84 1.391 . S
C79 H109 0.948 . S
C80 C79 1.391 . S
C80 C81 1.391 . S
C81 C80 1.391 . S
C81 C82 1.392 . S
C81 H110 0.947 . S
C82 C81 1.392 . S
C82 C83 1.419 . S
C82 H111 0.948 . S
C83 C82 1.419 . S
C83 C84 1.391 . S
C83 C87 1.397 . S
C84 C79 1.391 . S
C84 C83 1.391 . S
C84 C85 1.399 . S
C85 C84 1.399 . S
C85 C86 1.396 . S
C85 C88 1.453 . S
C85 C89 1.684 . S
C86 C67 1.723 . S
C86 C85 1.396 . S
C86 C87 1.394 . S
C87 C83 1.397 . S
C87 C86 1.394 . S
C87 C97 1.723 . S
C88 C85 1.453 . S
C88 H112 0.982 . S
C88 H113 0.979 . S
C88 H114 0.977 . S
C89 C85 1.684 . S
C89 H115 0.979 . S
C89 H116 0.980 . S
C89 H117 0.983 . S
C90 H66 0.948 . S
C90 C91 1.391 . S
C90 C95 1.391 . S
C91 C90 1.391 . S
C91 C92 1.391 . S
C92 H69 0.947 . S
C92 C91 1.391 . S
C92 C93 1.392 . S
C93 H70 0.948 . S
C93 C92 1.392 . S
C93 C94 1.419 . S
C94 C93 1.419 . S
C94 C95 1.391 . S
C94 C98 1.397 . S
C95 C90 1.391 . S
C95 C94 1.391 . S
C95 C96 1.399 . S
C96 C95 1.399 . S
C96 C97 1.396 . S
C96 C99 1.453 . S
C96 C100 1.684 . S
C97 C87 1.723 . S
C97 C96 1.396 . S
C97 C98 1.394 . S
C98 C68 1.723 . S
C98 C94 1.397 . S
C98 C97 1.394 . S
C99 H71 0.982 . S
C99 H75 0.979 . S
C99 H76 0.977 . S
C99 C96 1.453 . S
C100 H72 0.979 . S
C100 H73 0.980 . S
C100 H74 0.983 . S
C100 C96 1.684 . S
H101 C119 0.948 . S
H102 C60 0.948 . S
H103 C78 0.979 . S
H104 C78 0.980 . S
H105 C78 0.983 . S
H106 C77 0.983 . S
H107 C77 0.976 1_556 S
H108 C77 0.977 . S
H109 C79 0.948 . S
H110 C81 0.947 . S
H111 C82 0.948 . S
H112 C88 0.982 . S
H113 C88 0.979 . S
H114 C88 0.977 . S
H115 C89 0.979 . S
H116 C89 0.980 . S
H117 C89 0.983 . S
H118 C62 0.947 . S
C119 C62 1.392 . S
C119 C63 1.419 . S
C119 H101 0.948 . S
C120 C121 1.391 . S
C120 C124 1.391 . S
C120 H162 0.948 . S
C121 C120 1.391 . S
C121 C122 1.391 . S
C122 C121 1.391 . S
C122 H178 0.947 . S
C122 C179 1.392 . S
C123 C124 1.391 . S
C123 C127 1.397 . S
C123 C179 1.419 . S
C124 C120 1.391 . S
C124 C123 1.391 . S
C124 C125 1.399 . S
C125 C124 1.399 . S
C125 C128 1.396 . S
C125 C137 1.453 . S
C125 C138 1.684 . S
H126 C150 0.948 . S
C127 C123 1.397 . S
C127 C128 1.394 . S
C127 C146 1.723 . S
C128 C125 1.396 . S
C128 C127 1.394 . S
C128 C158 1.723 . S
H129 C152 0.947 . S
H130 C153 0.948 . S
H131 C159 0.982 . S
H132 C160 0.979 . S
H133 C160 0.980 . S
H134 C160 0.983 . S
H135 C159 0.979 . S
H136 C159 0.977 . S
C137 C125 1.453 . S
C137 H166 0.982 . S
C137 H167 0.979 . S
C137 H168 0.977 . S
C138 C125 1.684 . S
C138 H163 0.979 . S
C138 H164 0.980 . S
C138 H165 0.983 . S
C139 C140 1.391 . S
C139 C144 1.391 1_556 S
C139 H169 0.948 . S
C140 C139 1.391 . S
C140 C141 1.391 1_556 S
C141 C140 1.391 1_554 S
C141 C142 1.392 . S
C141 H170 0.947 . S
C142 C141 1.392 . S
C142 C143 1.419 . S
C142 H171 0.948 . S
C143 C142 1.419 . S
C143 C144 1.391 . S
C143 C147 1.397 . S
C144 C139 1.391 1_554 S
C144 C143 1.391 . S
C144 C145 1.399 . S
C145 C144 1.399 . S
C145 C146 1.396 . S
C145 C148 1.453 . S
C145 C149 1.684 1_554 S
C146 C127 1.723 . S
C146 C145 1.396 . S
C146 C147 1.394 . S
C147 C143 1.397 . S
C147 C146 1.394 . S
C147 C157 1.723 . S
C148 C145 1.453 . S
C148 H172 0.982 . S
C148 H173 0.979 1_554 S
C148 H174 0.977 . S
C149 C145 1.684 1_556 S
C149 H175 0.979 . S
C149 H176 0.980 . S
C149 H177 0.983 . S
C150 H126 0.948 . S
C150 C151 1.391 . S
C150 C155 1.391 . S
C151 C150 1.391 . S
C151 C152 1.391 . S
C152 H129 0.947 . S
C152 C151 1.391 . S
C152 C153 1.392 . S
C153 H130 0.948 . S
C153 C152 1.392 . S
C153 C154 1.419 . S
C154 C153 1.419 . S
C154 C155 1.391 . S
C154 C158 1.397 . S
C155 C150 1.391 . S
C155 C154 1.391 . S
C155 C156 1.399 . S
C156 C155 1.399 . S
C156 C157 1.396 . S
C156 C159 1.453 . S
C156 C160 1.684 . S
C157 C147 1.723 . S
C157 C156 1.396 . S
C157 C158 1.394 . S
C158 C128 1.723 . S
C158 C154 1.397 . S
C158 C157 1.394 . S
C159 H131 0.982 . S
C159 H135 0.979 . S
C159 H136 0.977 . S
C159 C156 1.453 . S
C160 H132 0.979 . S
C160 H133 0.980 . S
C160 H134 0.983 . S
C160 C156 1.684 . S
H161 C179 0.948 . S
H162 C120 0.948 . S
H163 C138 0.979 . S
H164 C138 0.980 . S
H165 C138 0.983 . S
H166 C137 0.982 . S
H167 C137 0.979 . S
H168 C137 0.977 . S
H169 C139 0.948 . S
H170 C141 0.947 . S
H171 C142 0.948 . S
H172 C148 0.982 . S
H173 C148 0.979 1_556 S
H174 C148 0.977 . S
H175 C149 0.979 . S
H176 C149 0.980 . S
H177 C149 0.983 . S
H178 C122 0.947 . S
C179 C122 1.392 . S
C179 C123 1.419 . S
C179 H161 0.948 . S
C180 C181 1.391 . S
C180 C184 1.391 . S
C180 H222 0.948 . S
C181 C180 1.391 . S
C181 C182 1.391 . S
C182 C181 1.391 . S
C182 H238 0.947 . S
C182 C239 1.392 . S
C183 C184 1.391 . S
C183 C187 1.397 . S
C183 C239 1.419 . S
C184 C180 1.391 . S
C184 C183 1.391 . S
C184 C185 1.399 . S
C185 C184 1.399 . S
C185 C188 1.396 . S
C185 C197 1.453 . S
C185 C198 1.684 . S
H186 C210 0.948 . S
C187 C183 1.397 . S
C187 C188 1.394 . S
C187 C206 1.723 . S
C188 C185 1.396 . S
C188 C187 1.394 . S
C188 C218 1.723 . S
H189 C212 0.947 . S
H190 C213 0.948 . S
H191 C219 0.982 . S
H192 C220 0.979 1_554 S
H193 C220 0.980 . S
H194 C220 0.983 . S
H195 C219 0.979 1_556 S
H196 C219 0.977 1_556 S
C197 C185 1.453 . S
C197 H226 0.982 . S
C197 H227 0.979 . S
C197 H228 0.977 . S
C198 C185 1.684 . S
C198 H223 0.979 . S
C198 H224 0.980 . S
C198 H225 0.983 . S
C199 C200 1.391 1_554 S
C199 C204 1.391 . S
C199 H229 0.948 . S
C200 C199 1.391 1_556 S
C200 C201 1.391 . S
C201 C200 1.391 . S
C201 C202 1.392 . S
C201 H230 0.947 . S
C202 C201 1.392 . S
C202 C203 1.419 1_556 S
C202 H231 0.948 . S
C203 C202 1.419 1_554 S
C203 C204 1.391 . S
C203 C207 1.397 . S
C204 C199 1.391 . S
C204 C203 1.391 . S
C204 C205 1.399 . S
C205 C204 1.399 . S
C205 C206 1.396 . S
C205 C208 1.453 . S
C205 C209 1.684 . S
C206 C187 1.723 . S
C206 C205 1.396 . S
C206 C207 1.394 . S
C207 C203 1.397 . S
C207 C206 1.394 . S
C207 C217 1.723 . S
C208 C205 1.453 . S
C208 H232 0.982 . S
C208 H233 0.979 . S
C208 H234 0.977 . S
C209 C205 1.684 . S
C209 H235 0.979 . S
C209 H236 0.980 . S
C209 H237 0.983 . S
C210 H186 0.948 . S
C210 C211 1.391 . S
C210 C215 1.391 . S
C211 C210 1.391 . S
C211 C212 1.391 . S
C212 H189 0.947 . S
C212 C211 1.391 . S
C212 C213 1.392 . S
C213 H190 0.948 . S
C213 C212 1.392 . S
C213 C214 1.419 . S
C214 C213 1.419 . S
C214 C215 1.391 . S
C214 C218 1.397 . S
C215 C210 1.391 . S
C215 C214 1.391 . S
C215 C216 1.399 . S
C216 C215 1.399 . S
C216 C217 1.396 . S
C216 C219 1.453 . S
C216 C220 1.684 1_554 S
C217 C207 1.723 . S
C217 C216 1.396 . S
C217 C218 1.394 . S
C218 C188 1.723 . S
C218 C214 1.397 . S
C218 C217 1.394 . S
C219 H191 0.982 . S
C219 H195 0.979 1_554 S
C219 H196 0.977 1_554 S
C219 C216 1.453 . S
C220 H192 0.979 1_556 S
C220 H193 0.980 . S
C220 H194 0.983 . S
C220 C216 1.684 1_556 S
H221 C239 0.948 . S
H222 C180 0.948 . S
H223 C198 0.979 . S
H224 C198 0.980 . S
H225 C198 0.983 . S
H226 C197 0.982 . S
H227 C197 0.979 . S
H228 C197 0.977 . S
H229 C199 0.948 . S
H230 C201 0.947 . S
H231 C202 0.948 . S
H232 C208 0.982 . S
H233 C208 0.979 . S
H234 C208 0.977 . S
H235 C209 0.979 . S
H236 C209 0.980 . S
H237 C209 0.983 . S
H238 C182 0.947 . S
C239 C182 1.392 . S
C239 C183 1.419 . S
C239 H221 0.948 . S
C240 C241 1.391 . S
C240 C244 1.391 . S
C240 H282 0.948 1_554 S
C241 C240 1.391 . S
C241 C242 1.391 . S
C242 C241 1.391 . S
C242 H298 0.947 . S
C242 C299 1.392 . S
C243 C244 1.391 . S
C243 C247 1.397 . S
C243 C299 1.419 . S
C244 C240 1.391 . S
C244 C243 1.391 . S
C244 C245 1.399 1_554 S
C245 C244 1.399 1_556 S
C245 C248 1.396 . S
C245 C257 1.453 . S
C245 C258 1.684 . S
H246 C270 0.948 . S
C247 C243 1.397 . S
C247 C248 1.394 1_554 S
C247 C266 1.723 . S
C248 C245 1.396 . S
C248 C247 1.394 1_556 S
C248 C278 1.723 . S
H249 C272 0.947 . S
H250 C273 0.948 . S
H251 C279 0.982 . S
H252 C280 0.979 . S
H253 C280 0.980 . S
H254 C280 0.983 . S
H255 C279 0.979 . S
H256 C279 0.977 . S
C257 C245 1.453 . S
C257 H286 0.982 . S
C257 H287 0.979 . S
C257 H288 0.977 . S
C258 C245 1.684 . S
C258 H283 0.979 . S
C258 H284 0.980 . S
C258 H285 0.983 . S
C259 C260 1.391 . S
C259 C264 1.391 . S
C259 H289 0.948 . S
C260 C259 1.391 . S
C260 C261 1.391 . S
C261 C260 1.391 . S
C261 C262 1.392 . S
C261 H290 0.947 . S
C262 C261 1.392 . S
C262 C263 1.419 . S
C262 H291 0.948 . S
C263 C262 1.419 . S
C263 C264 1.391 . S
C263 C267 1.397 . S
C264 C259 1.391 . S
C264 C263 1.391 . S
C264 C265 1.399 . S
C265 C264 1.399 . S
C265 C266 1.396 . S
C265 C268 1.453 . S
C265 C269 1.684 . S
C266 C247 1.723 . S
C266 C265 1.396 . S
C266 C267 1.394 . S
C267 C263 1.397 . S
C267 C266 1.394 . S
C267 C277 1.723 1_554 S
C268 C265 1.453 . S
C268 H292 0.982 . S
C268 H293 0.979 . S
C268 H294 0.977 . S
C269 C265 1.684 . S
C269 H295 0.979 . S
C269 H296 0.980 . S
C269 H297 0.983 . S
C270 H246 0.948 . S
C270 C271 1.391 . S
C270 C275 1.391 . S
C271 C270 1.391 . S
C271 C272 1.391 . S
C272 H249 0.947 . S
C272 C271 1.391 . S
C272 C273 1.392 . S
C273 H250 0.948 . S
C273 C272 1.392 . S
C273 C274 1.419 . S
C274 C273 1.419 . S
C274 C275 1.391 . S
C274 C278 1.397 . S
C275 C270 1.391 . S
C275 C274 1.391 . S
C275 C276 1.399 . S
C276 C275 1.399 . S
C276 C277 1.396 . S
C276 C279 1.453 . S
C276 C280 1.684 . S
C277 C267 1.723 1_556 S
C277 C276 1.396 . S
C277 C278 1.394 . S
C278 C248 1.723 . S
C278 C274 1.397 . S
C278 C277 1.394 . S
C279 H251 0.982 . S
C279 H255 0.979 . S
C279 H256 0.977 . S
C279 C276 1.453 . S
C280 H252 0.979 . S
C280 H253 0.980 . S
C280 H254 0.983 . S
C280 C276 1.684 . S
H281 C299 0.948 . S
H282 C240 0.948 1_556 S
H283 C258 0.979 . S
H284 C258 0.980 . S
H285 C258 0.983 . S
H286 C257 0.982 . S
H287 C257 0.979 . S
H288 C257 0.977 . S
H289 C259 0.948 . S
H290 C261 0.947 . S
H291 C262 0.948 . S
H292 C268 0.982 . S
H293 C268 0.979 . S
H294 C268 0.977 . S
H295 C269 0.979 . S
H296 C269 0.980 . S
H297 C269 0.983 . S
H298 C242 0.947 . S
C299 C242 1.392 . S
C299 C243 1.419 . S
C299 H281 0.948 . S
C300 C301 1.391 . S
C300 C304 1.391 . S
C300 H342 0.948 . S
C301 C300 1.391 . S
C301 C302 1.391 . S
C302 C301 1.391 . S
C302 H358 0.947 . S
C302 C359 1.392 . S
C303 C304 1.391 . S
C303 C307 1.397 . S
C303 C359 1.419 . S
C304 C300 1.391 . S
C304 C303 1.391 . S
C304 C305 1.399 . S
C305 C304 1.399 . S
C305 C308 1.396 . S
C305 C317 1.453 . S
C305 C318 1.684 . S
H306 C330 0.948 1_556 S
C307 C303 1.397 . S
C307 C308 1.394 . S
C307 C326 1.723 1_554 S
C308 C305 1.396 . S
C308 C307 1.394 . S
C308 C338 1.723 . S
H309 C332 0.947 . S
H310 C333 0.948 . S
H311 C339 0.982 . S
H312 C340 0.979 . S
H313 C340 0.980 . S
H314 C340 0.983 . S
H315 C339 0.979 . S
H316 C339 0.977 . S
C317 C305 1.453 . S
C317 H346 0.982 . S
C317 H347 0.979 . S
C317 H348 0.977 . S
C318 C305 1.684 . S
C318 H343 0.979 . S
C318 H344 0.980 . S
C318 H345 0.983 . S
C319 C320 1.391 . S
C319 C324 1.391 . S
C319 H349 0.948 . S
C320 C319 1.391 . S
C320 C321 1.391 . S
C321 C320 1.391 . S
C321 C322 1.392 . S
C321 H350 0.947 . S
C322 C321 1.392 . S
C322 C323 1.419 . S
C322 H351 0.948 . S
C323 C322 1.419 . S
C323 C324 1.391 . S
C323 C327 1.397 . S
C324 C319 1.391 . S
C324 C323 1.391 . S
C324 C325 1.399 . S
C325 C324 1.399 . S
C325 C326 1.396 . S
C325 C328 1.453 . S
C325 C329 1.684 . S
C326 C307 1.723 1_556 S
C326 C325 1.396 . S
C326 C327 1.394 . S
C327 C323 1.397 . S
C327 C326 1.394 . S
C327 C337 1.723 . S
C328 C325 1.453 . S
C328 H352 0.982 . S
C328 H353 0.979 . S
C328 H354 0.977 . S
C329 C325 1.684 . S
C329 H355 0.979 . S
C329 H356 0.980 . S
C329 H357 0.983 . S
C330 H306 0.948 1_554 S
C330 C331 1.391 . S
C330 C335 1.391 . S
C331 C330 1.391 . S
C331 C332 1.391 . S
C332 H309 0.947 . S
C332 C331 1.391 . S
C332 C333 1.392 . S
C333 H310 0.948 . S
C333 C332 1.392 . S
C333 C334 1.419 . S
C334 C333 1.419 . S
C334 C335 1.391 . S
C334 C338 1.397 . S
C335 C330 1.391 . S
C335 C334 1.391 . S
C335 C336 1.399 1_554 S
C336 C335 1.399 1_556 S
C336 C337 1.396 . S
C336 C339 1.453 . S
C336 C340 1.684 . S
C337 C327 1.723 . S
C337 C336 1.396 . S
C337 C338 1.394 1_556 S
C338 C308 1.723 . S
C338 C334 1.397 . S
C338 C337 1.394 1_554 S
C339 H311 0.982 . S
C339 H315 0.979 . S
C339 H316 0.977 . S
C339 C336 1.453 . S
C340 H312 0.979 . S
C340 H313 0.980 . S
C340 H314 0.983 . S
C340 C336 1.684 . S
H341 C359 0.948 . S
H342 C300 0.948 . S
H343 C318 0.979 . S
H344 C318 0.980 . S
H345 C318 0.983 . S
H346 C317 0.982 . S
H347 C317 0.979 . S
H348 C317 0.977 . S
H349 C319 0.948 . S
H350 C321 0.947 . S
H351 C322 0.948 . S
H352 C328 0.982 . S
H353 C328 0.979 . S
H354 C328 0.977 . S
H355 C329 0.979 . S
H356 C329 0.980 . S
H357 C329 0.983 . S
H358 C302 0.947 . S
C359 C302 1.392 . S
C359 C303 1.419 . S
C359 H341 0.948 . S
C360 C361 1.391 . S
C360 C364 1.391 . S
C360 H402 0.948 . S
C361 C360 1.391 . S
C361 C362 1.391 . S
C362 C361 1.391 . S
C362 H418 0.947 . S
C362 C419 1.392 . S
C363 C364 1.391 . S
C363 C367 1.397 . S
C363 C419 1.419 . S
C364 C360 1.391 . S
C364 C363 1.391 . S
C364 C365 1.399 . S
C365 C364 1.399 . S
C365 C368 1.396 . S
C365 C377 1.453 . S
C365 C378 1.684 . S
H366 C390 0.948 . S
C367 C363 1.397 . S
C367 C368 1.394 . S
C367 C386 1.723 1_556 S
C368 C365 1.396 . S
C368 C367 1.394 . S
C368 C398 1.723 1_556 S
H369 C392 0.947 . S
H370 C393 0.948 . S
H371 C399 0.982 . S
H372 C400 0.979 . S
H373 C400 0.980 . S
H374 C400 0.983 . S
H375 C399 0.979 . S
H376 C399 0.977 . S
C377 C365 1.453 . S
C377 H406 0.982 . S
C377 H407 0.979 . S
C377 H408 0.977 . S
C378 C365 1.684 . S
C378 H403 0.979 . S
C378 H404 0.980 . S
C378 H405 0.983 . S
C379 C380 1.391 . S
C379 C384 1.391 . S
C379 H409 0.948 . S
C380 C379 1.391 . S
C380 C381 1.391 . S
C381 C380 1.391 . S
C381 C382 1.392 . S
C381 H410 0.947 . S
C382 C381 1.392 . S
C382 C383 1.419 . S
C382 H411 0.948 . S
C383 C382 1.419 . S
C383 C384 1.391 . S
C383 C387 1.397 . S
C384 C379 1.391 . S
C384 C383 1.391 . S
C384 C385 1.399 . S
C385 C384 1.399 . S
C385 C386 1.396 . S
C385 C388 1.453 . S
C385 C389 1.683 1_554 S
C386 C367 1.723 1_554 S
C386 C385 1.396 . S
C386 C387 1.394 . S
C387 C383 1.397 . S
C387 C386 1.394 . S
C387 C397 1.723 . S
C388 C385 1.453 . S
C388 H412 0.982 . S
C388 H413 0.979 . S
C388 H414 0.977 1_554 S
C389 C385 1.683 1_556 S
C389 H415 0.978 1_556 S
C389 H416 0.981 . S
C389 H417 0.982 1_556 S
C390 H366 0.948 . S
C390 C391 1.391 . S
C390 C395 1.391 . S
C391 C390 1.391 . S
C391 C392 1.391 1_554 S
C392 H369 0.947 . S
C392 C391 1.391 1_556 S
C392 C393 1.392 . S
C393 H370 0.948 . S
C393 C392 1.392 . S
C393 C394 1.419 1_556 S
C394 C393 1.419 1_554 S
C394 C395 1.391 . S
C394 C398 1.397 . S
C395 C390 1.391 . S
C395 C394 1.391 . S
C395 C396 1.399 . S
C396 C395 1.399 . S
C396 C397 1.396 . S
C396 C399 1.453 . S
C396 C400 1.684 . S
C397 C387 1.723 . S
C397 C396 1.396 . S
C397 C398 1.394 . S
C398 C368 1.723 1_554 S
C398 C394 1.397 . S
C398 C397 1.394 . S
C399 H371 0.982 . S
C399 H375 0.979 . S
C399 H376 0.977 . S
C399 C396 1.453 . S
C400 H372 0.979 . S
C400 H373 0.980 . S
C400 H374 0.983 . S
C400 C396 1.684 . S
H401 C419 0.948 . S
H402 C360 0.948 . S
H403 C378 0.979 . S
H404 C378 0.980 . S
H405 C378 0.983 . S
H406 C377 0.982 . S
H407 C377 0.979 . S
H408 C377 0.977 . S
H409 C379 0.948 . S
H410 C381 0.947 . S
H411 C382 0.948 . S
H412 C388 0.982 . S
H413 C388 0.979 . S
H414 C388 0.977 1_556 S
H415 C389 0.978 1_554 S
H416 C389 0.981 . S
H417 C389 0.982 1_554 S
H418 C362 0.947 . S
C419 C362 1.392 . S
C419 C363 1.419 . S
C419 H401 0.948 . S
C420 C421 1.391 . S
C420 C424 1.391 . S
C420 H462 0.948 . S
C421 C420 1.391 . S
C421 C422 1.391 . S
C422 C421 1.391 . S
C422 H478 0.947 . S
C422 C479 1.392 . S
C423 C424 1.391 . S
C423 C427 1.397 . S
C423 C479 1.419 . S
C424 C420 1.391 . S
C424 C423 1.391 . S
C424 C425 1.399 . S
C425 C424 1.399 . S
C425 C428 1.396 . S
C425 C437 1.453 . S
C425 C438 1.684 . S
H426 C450 0.948 . S
C427 C423 1.397 . S
C427 C428 1.394 . S
C427 C446 1.723 1_556 S
C428 C425 1.396 . S
C428 C427 1.394 . S
C428 C458 1.723 1_556 S
H429 C452 0.947 1_556 S
H430 C453 0.948 . S
H431 C459 0.982 . S
H432 C460 0.979 . S
H433 C460 0.980 . S
H434 C460 0.983 . S
H435 C459 0.979 . S
H436 C459 0.977 . S
C437 C425 1.453 . S
C437 H466 0.982 . S
C437 H467 0.979 . S
C437 H468 0.977 . S
C438 C425 1.684 . S
C438 H463 0.979 . S
C438 H464 0.980 . S
C438 H465 0.983 . S
C439 C440 1.391 . S
C439 C444 1.391 . S
C439 H469 0.948 . S
C440 C439 1.391 . S
C440 C441 1.391 . S
C441 C440 1.391 . S
C441 C442 1.392 . S
C441 H470 0.947 . S
C442 C441 1.392 . S
C442 C443 1.419 . S
C442 H471 0.948 . S
C443 C442 1.419 . S
C443 C444 1.391 . S
C443 C447 1.397 . S
C444 C439 1.391 . S
C444 C443 1.391 . S
C444 C445 1.399 . S
C445 C444 1.399 . S
C445 C446 1.396 . S
C445 C448 1.453 . S
C445 C449 1.684 . S
C446 C427 1.723 1_554 S
C446 C445 1.396 . S
C446 C447 1.394 . S
C447 C443 1.397 . S
C447 C446 1.394 . S
C447 C457 1.723 . S
C448 C445 1.453 . S
C448 H472 0.982 . S
C448 H473 0.979 . S
C448 H474 0.977 1_554 S
C449 C445 1.684 . S
C449 H475 0.979 . S
C449 H476 0.980 1_554 S
C449 H477 0.983 . S
C450 H426 0.948 . S
C450 C451 1.391 . S
C450 C455 1.391 . S
C451 C450 1.391 . S
C451 C452 1.391 . S
C452 H429 0.947 1_554 S
C452 C451 1.391 . S
C452 C453 1.392 1_554 S
C453 H430 0.948 . S
C453 C452 1.392 1_556 S
C453 C454 1.419 1_556 S
C454 C453 1.419 1_554 S
C454 C455 1.391 . S
C454 C458 1.397 . S
C455 C450 1.391 . S
C455 C454 1.391 . S
C455 C456 1.399 . S
C456 C455 1.399 . S
C456 C457 1.396 . S
C456 C459 1.453 . S
C456 C460 1.684 . S
C457 C447 1.723 . S
C457 C456 1.396 . S
C457 C458 1.394 . S
C458 C428 1.723 1_554 S
C458 C454 1.397 . S
C458 C457 1.394 . S
C459 H431 0.982 . S
C459 H435 0.979 . S
C459 H436 0.977 . S
C459 C456 1.453 . S
C460 H432 0.979 . S
C460 H433 0.980 . S
C460 H434 0.983 . S
C460 C456 1.684 . S
H461 C479 0.948 . S
H462 C420 0.948 . S
H463 C438 0.979 . S
H464 C438 0.980 . S
H465 C438 0.983 . S
H466 C437 0.982 . S
H467 C437 0.979 . S
H468 C437 0.977 . S
H469 C439 0.948 . S
H470 C441 0.947 . S
H471 C442 0.948 . S
H472 C448 0.982 . S
H473 C448 0.979 . S
H474 C448 0.977 1_556 S
H475 C449 0.979 . S
H476 C449 0.980 1_556 S
H477 C449 0.983 . S
H478 C422 0.947 . S
C479 C422 1.392 . S
C479 C423 1.419 . S
C479 H461 0.948 . S
Gd480 N511 2.661 . S
Gd480 N517 2.601 . S
Gd480 O524 2.545 . S
Gd480 O525 2.606 1_655 S
Gd480 O527 2.429 . S
Gd480 O528 2.545 1_655 S
Gd480 O529 2.412 . S
Gd480 O531 2.362 1_545 S
Gd480 O532 2.324 1_655 S
Gd480 C539 2.828 . S
Gd481 N490 2.661 1_565 S
Gd481 N494 2.601 . S
Gd481 O525 2.362 1_565 S
Gd481 O526 2.324 1_455 S
Gd481 O530 2.545 . S
Gd481 O531 2.606 1_455 S
Gd481 O533 2.429 . S
Gd481 O534 2.545 . S
Gd481 O535 2.412 . S
Gd481 C548 2.828 . S
C482 C485 1.417 . S
C482 C487 1.431 . S
C482 C488 1.412 . S
C483 C486 1.437 . S
C483 C487 1.317 . S
C483 H502 0.929 . S
C484 C485 1.426 . S
C484 C486 1.413 . S
C484 N494 1.359 1_545 S
C485 C482 1.417 . S
C485 C484 1.426 . S
C485 N490 1.350 . S
C486 C483 1.437 . S
C486 C484 1.413 . S
C486 C496 1.391 1_545 S
C487 C482 1.431 . S
C487 C483 1.317 . S
C487 H498 0.930 . S
C488 C482 1.412 . S
C488 C489 1.355 . S
C488 H500 0.930 . S
C489 C488 1.355 . S
C489 C491 1.402 . S
C489 H501 0.930 1_455 S
N490 Gd481 2.661 1_545 S
N490 C485 1.350 . S
N490 C491 1.307 . S
C491 C489 1.402 . S
C491 N490 1.307 . S
C491 H492 0.930 1_455 S
H492 C491 0.930 1_655 S
C493 N494 1.334 . S
C493 C495 1.394 . S
C493 H497 0.930 . S
N494 Gd481 2.601 . S
N494 C484 1.359 1_565 S
N494 C493 1.334 . S
C495 C493 1.394 . S
C495 C496 1.359 . S
C495 H507 0.930 . S
C496 C486 1.391 1_565 S
C496 C495 1.359 . S
C496 H508 0.929 . S
H497 C493 0.930 . S
H498 C487 0.930 . S
H499 C516 0.930 . S
H500 C488 0.930 . S
H501 C489 0.930 1_655 S
H502 C483 0.929 . S
H503 C521 0.930 . S
H504 C512 0.930 . S
H505 C513 0.930 . S
H506 C537 0.929 . S
H507 C495 0.930 . S
H508 C496 0.929 . S
H509 C538 0.930 . S
H510 C519 0.930 . S
N511 Gd480 2.661 . S
N511 C515 1.345 1_545 S
N511 C516 1.307 1_645 S
C512 H504 0.930 . S
C512 C513 1.355 1_655 S
C512 C514 1.412 . S
C513 H505 0.930 . S
C513 C512 1.355 1_455 S
C513 C516 1.402 . S
C514 C512 1.412 . S
C514 C515 1.435 . S
C514 C538 1.431 . S
C515 N511 1.345 1_565 S
C515 C514 1.435 . S
C515 C518 1.414 1_565 S
C516 H499 0.930 . S
C516 N511 1.307 1_465 S
C516 C513 1.402 . S
N517 Gd480 2.601 . S
N517 C518 1.359 . S
N517 C521 1.334 . S
C518 C515 1.414 1_545 S
C518 N517 1.359 . S
C518 C522 1.413 . S
C519 H510 0.930 . S
C519 C520 1.359 . S
C519 C521 1.394 . S
C520 C519 1.359 . S
C520 C522 1.391 . S
C520 H523 0.929 . S
C521 H503 0.930 . S
C521 N517 1.334 . S
C521 C519 1.394 . S
C522 C518 1.413 . S
C522 C520 1.391 . S
C522 C537 1.437 1_545 S
H523 C520 0.929 . S
O524 Gd480 2.545 . S
O524 C539 1.258 . S
O525 Gd480 2.606 1_455 S
O525 Gd481 2.362 1_545 S
O525 C536 1.284 . S
O526 Gd481 2.324 1_655 S
O526 C546 1.254 1_565 S
O527 Gd480 2.429 . S
O527 C546 1.268 . S
O528 Gd480 2.545 1_455 S
O528 C536 1.250 . S
O529 Gd480 2.412 . S
O529 C539 1.252 . S
O530 Gd481 2.545 . S
O530 C548 1.258 . S
O531 Gd480 2.362 1_565 S
O531 Gd481 2.606 1_655 S
O531 C547 1.284 . S
O532 Gd480 2.324 1_455 S
O532 C555 1.254 . S
O533 Gd481 2.429 . S
O533 C555 1.268 1_565 S
O534 Gd481 2.545 . S
O534 C547 1.250 1_455 S
O535 Gd481 2.412 . S
O535 C548 1.252 . S
C536 O525 1.284 . S
C536 O528 1.250 . S
C537 H506 0.929 . S
C537 C522 1.437 1_565 S
C537 C538 1.317 . S
C538 H509 0.930 . S
C538 C514 1.431 . S
C538 C537 1.317 . S
C539 Gd480 2.828 . S
C539 O524 1.258 . S
C539 O529 1.252 . S
C539 C540 1.497 . S
C540 C539 1.497 . S
C540 C541 1.395 . S
C540 C542 1.380 . S
C541 C540 1.395 . S
C541 C544 1.398 . S
C541 H556 0.930 . S
C542 C540 1.380 . S
C542 C543 1.391 . S
C542 H557 0.930 1_655 S
C543 C542 1.391 . S
C543 C545 1.387 . S
C544 C541 1.398 . S
C544 C545 1.380 . S
C544 H558 0.930 . S
C545 C543 1.387 . S
C545 C544 1.380 . S
C545 H559 0.930 . S
C546 O526 1.254 1_545 S
C546 O527 1.268 . S
C547 O531 1.284 . S
C547 O534 1.250 1_655 S
C548 Gd481 2.828 . S
C548 O530 1.258 . S
C548 O535 1.252 . S
C548 C549 1.497 . S
C549 C548 1.497 . S
C549 C550 1.395 . S
C549 C551 1.380 . S
C550 C549 1.395 . S
C550 C553 1.398 . S
C550 H560 0.930 . S
C551 C549 1.380 . S
C551 C552 1.391 . S
C551 H561 0.930 1_455 S
C552 C551 1.391 . S
C552 C554 1.387 . S
C553 C550 1.398 . S
C553 C554 1.380 . S
C553 H562 0.930 . S
C554 C552 1.387 . S
C554 C553 1.380 . S
C554 H563 0.930 . S
C555 O532 1.254 . S
C555 O533 1.268 1_545 S
H556 C541 0.930 . S
H557 C542 0.930 1_455 S
H558 C544 0.930 . S
H559 C545 0.930 . S
H560 C550 0.930 . S
H561 C551 0.930 1_655 S
H562 C553 0.930 . S
H563 C554 0.930 . S
Gd564 N595 2.661 . S
Gd564 N601 2.601 . S
Gd564 O608 2.545 . S
Gd564 O609 2.606 1_565 S
Gd564 O611 2.429 . S
Gd564 O612 2.545 1_565 S
Gd564 O613 2.412 . S
Gd564 O615 2.362 . S
Gd564 O616 2.324 1_565 S
Gd564 C623 2.828 . S
Gd565 N574 2.661 . S
Gd565 N578 2.601 . S
Gd565 O609 2.362 . S
Gd565 O610 2.324 1_545 S
Gd565 O614 2.545 . S
Gd565 O615 2.606 1_545 S
Gd565 O617 2.429 . S
Gd565 O618 2.545 . S
Gd565 O619 2.412 . S
Gd565 C632 2.828 . S
C566 C569 1.417 . S
C566 C571 1.431 . S
C566 C572 1.412 . S
C567 C570 1.437 . S
C567 C571 1.317 . S
C567 H586 0.929 . S
C568 C569 1.426 . S
C568 C570 1.413 . S
C568 N578 1.359 . S
C569 C566 1.417 . S
C569 C568 1.426 . S
C569 N574 1.350 . S
C570 C567 1.437 . S
C570 C568 1.413 . S
C570 C580 1.391 . S
C571 C566 1.431 . S
C571 C567 1.317 . S
C571 H582 0.930 . S
C572 C566 1.412 . S
C572 C573 1.355 . S
C572 H584 0.930 . S
C573 C572 1.355 . S
C573 C575 1.402 . S
C573 H585 0.930 1_545 S
N574 Gd565 2.661 . S
N574 C569 1.350 . S
N574 C575 1.307 . S
C575 C573 1.402 . S
C575 N574 1.307 . S
C575 H576 0.930 1_545 S
H576 C575 0.930 1_565 S
C577 N578 1.334 . S
C577 C579 1.394 . S
C577 H581 0.930 . S
N578 Gd565 2.601 . S
N578 C568 1.359 . S
N578 C577 1.334 . S
C579 C577 1.394 . S
C579 C580 1.359 . S
C579 H591 0.930 . S
C580 C570 1.391 . S
C580 C579 1.359 . S
C580 H592 0.929 . S
H581 C577 0.930 . S
H582 C571 0.930 . S
H583 C600 0.930 . S
H584 C572 0.930 . S
H585 C573 0.930 1_565 S
H586 C567 0.929 . S
H587 C605 0.930 . S
H588 C596 0.930 . S
H589 C597 0.930 . S
H590 C621 0.929 . S
H591 C579 0.930 . S
H592 C580 0.929 . S
H593 C622 0.930 . S
H594 C603 0.930 . S
N595 Gd564 2.661 . S
N595 C599 1.350 . S
N595 C600 1.307 1_565 S
C596 H588 0.930 . S
C596 C597 1.355 1_565 S
C596 C598 1.412 . S
C597 H589 0.930 . S
C597 C596 1.355 1_545 S
C597 C600 1.402 . S
C598 C596 1.412 . S
C598 C599 1.417 . S
C598 C622 1.431 . S
C599 N595 1.350 . S
C599 C598 1.417 . S
C599 C602 1.426 . S
C600 H583 0.930 . S
C600 N595 1.307 1_545 S
C600 C597 1.402 . S
N601 Gd564 2.601 . S
N601 C602 1.359 . S
N601 C605 1.334 . S
C602 C599 1.426 . S
C602 N601 1.359 . S
C602 C606 1.413 . S
C603 H594 0.930 . S
C603 C604 1.359 . S
C603 C605 1.394 . S
C604 C603 1.359 . S
C604 C606 1.391 . S
C604 H607 0.929 . S
C605 H587 0.930 . S
C605 N601 1.334 . S
C605 C603 1.394 . S
C606 C602 1.413 . S
C606 C604 1.391 . S
C606 C621 1.437 . S
H607 C604 0.929 . S
O608 Gd564 2.545 . S
O608 C623 1.258 . S
O609 Gd564 2.606 1_545 S
O609 Gd565 2.362 . S
O609 C620 1.284 . S
O610 Gd565 2.324 1_565 S
O610 C630 1.254 . S
O611 Gd564 2.429 . S
O611 C630 1.268 . S
O612 Gd564 2.545 1_545 S
O612 C620 1.250 . S
O613 Gd564 2.412 . S
O613 C623 1.252 . S
O614 Gd565 2.545 . S
O614 C632 1.258 . S
O615 Gd564 2.362 . S
O615 Gd565 2.606 1_565 S
O615 C631 1.284 . S
O616 Gd564 2.324 1_545 S
O616 C639 1.254 . S
O617 Gd565 2.429 . S
O617 C639 1.268 . S
O618 Gd565 2.545 . S
O618 C631 1.250 1_545 S
O619 Gd565 2.412 . S
O619 C632 1.252 . S
C620 O609 1.284 . S
C620 O612 1.250 . S
C621 H590 0.929 . S
C621 C606 1.437 . S
C621 C622 1.317 . S
C622 H593 0.930 . S
C622 C598 1.431 . S
C622 C621 1.317 . S
C623 Gd564 2.828 . S
C623 O608 1.258 . S
C623 O613 1.252 . S
C623 C624 1.497 . S
C624 C623 1.497 . S
C624 C625 1.395 . S
C624 C626 1.380 . S
C625 C624 1.395 . S
C625 C628 1.398 . S
C625 H640 0.930 . S
C626 C624 1.380 . S
C626 C627 1.391 . S
C626 H641 0.930 1_565 S
C627 C626 1.391 . S
C627 C629 1.387 . S
C628 C625 1.398 . S
C628 C629 1.380 . S
C628 H642 0.930 . S
C629 C627 1.387 . S
C629 C628 1.380 . S
C629 H643 0.930 . S
C630 O610 1.254 . S
C630 O611 1.268 . S
C631 O615 1.284 . S
C631 O618 1.250 1_565 S
C632 Gd565 2.828 . S
C632 O614 1.258 . S
C632 O619 1.252 . S
C632 C633 1.497 . S
C633 C632 1.497 . S
C633 C634 1.395 . S
C633 C635 1.380 . S
C634 C633 1.395 . S
C634 C637 1.398 . S
C634 H644 0.930 . S
C635 C633 1.380 . S
C635 C636 1.391 . S
C635 H645 0.938 . S
C636 C635 1.391 . S
C636 C638 1.387 . S
C637 C634 1.398 . S
C637 C638 1.380 . S
C637 H646 0.930 . S
C638 C636 1.387 . S
C638 C637 1.380 . S
C638 H647 0.930 . S
C639 O616 1.254 . S
C639 O617 1.268 . S
H640 C625 0.930 . S
H641 C626 0.930 1_545 S
H642 C628 0.930 . S
H643 C629 0.930 . S
H644 C634 0.930 . S
H645 C635 0.938 . S
H646 C637 0.930 . S
H647 C638 0.930 . S
Gd648 N679 2.661 . S
Gd648 N685 2.601 . S
Gd648 O692 2.545 . S
Gd648 O693 2.606 . S
Gd648 O695 2.429 . S
Gd648 O696 2.545 . S
Gd648 O697 2.412 . S
Gd648 O699 2.362 . S
Gd648 O700 2.324 . S
Gd648 C707 2.828 . S
Gd649 N658 2.661 . S
Gd649 N662 2.601 . S
Gd649 O693 2.362 . S
Gd649 O694 2.324 . S
Gd649 O698 2.545 . S
Gd649 O699 2.606 . S
Gd649 O701 2.429 . S
Gd649 O702 2.545 . S
Gd649 O703 2.412 . S
Gd649 C716 2.828 . S
C650 C653 1.417 . S
C650 C655 1.431 . S
C650 C656 1.412 . S
C651 C654 1.437 . S
C651 C655 1.317 . S
C651 H670 0.929 . S
C652 C653 1.426 . S
C652 C654 1.413 . S
C652 N662 1.359 . S
C653 C650 1.417 . S
C653 C652 1.426 . S
C653 N658 1.350 . S
C654 C651 1.437 . S
C654 C652 1.413 . S
C654 C664 1.391 . S
C655 C650 1.431 . S
C655 C651 1.317 . S
C655 H666 0.930 . S
C656 C650 1.412 . S
C656 C657 1.355 . S
C656 H668 0.930 . S
C657 C656 1.355 . S
C657 C659 1.402 . S
C657 H669 0.930 . S
N658 Gd649 2.661 . S
N658 C653 1.350 . S
N658 C659 1.307 . S
C659 C657 1.402 . S
C659 N658 1.307 . S
C659 H660 0.930 . S
H660 C659 0.930 . S
C661 N662 1.334 . S
C661 C663 1.394 . S
C661 H665 0.930 . S
N662 Gd649 2.601 . S
N662 C652 1.359 . S
N662 C661 1.334 . S
C663 C661 1.394 . S
C663 C664 1.359 . S
C663 H675 0.930 . S
C664 C654 1.391 . S
C664 C663 1.359 . S
C664 H676 0.929 . S
H665 C661 0.930 . S
H666 C655 0.930 . S
H667 C684 0.930 . S
H668 C656 0.930 . S
H669 C657 0.930 . S
H670 C651 0.929 . S
H671 C689 0.930 . S
H672 C680 0.930 . S
H673 C681 0.930 . S
H674 C705 0.929 . S
H675 C663 0.930 . S
H676 C664 0.929 . S
H677 C706 0.930 . S
H678 C687 0.930 . S
N679 Gd648 2.661 . S
N679 C683 1.350 . S
N679 C684 1.307 . S
C680 H672 0.930 . S
C680 C681 1.355 . S
C680 C682 1.412 . S
C681 H673 0.930 . S
C681 C680 1.355 . S
C681 C684 1.402 . S
C682 C680 1.412 . S
C682 C683 1.417 . S
C682 C706 1.431 . S
C683 N679 1.350 . S
C683 C682 1.417 . S
C683 C686 1.426 . S
C684 H667 0.930 . S
C684 N679 1.307 . S
C684 C681 1.402 . S
N685 Gd648 2.601 . S
N685 C686 1.359 . S
N685 C689 1.334 . S
C686 C683 1.426 . S
C686 N685 1.359 . S
C686 C690 1.413 . S
C687 H678 0.930 . S
C687 C688 1.359 . S
C687 C689 1.394 . S
C688 C687 1.359 . S
C688 C690 1.391 . S
C688 H691 0.929 . S
C689 H671 0.930 . S
C689 N685 1.334 . S
C689 C687 1.394 . S
C690 C686 1.413 . S
C690 C688 1.391 . S
C690 C705 1.437 . S
H691 C688 0.929 . S
O692 Gd648 2.545 . S
O692 C707 1.258 . S
O693 Gd648 2.606 . S
O693 Gd649 2.362 . S
O693 C704 1.284 . S
O694 Gd649 2.324 . S
O694 C714 1.254 . S
O695 Gd648 2.429 . S
O695 C714 1.268 . S
O696 Gd648 2.545 . S
O696 C704 1.250 . S
O697 Gd648 2.412 . S
O697 C707 1.252 . S
O698 Gd649 2.545 . S
O698 C716 1.258 . S
O699 Gd648 2.362 . S
O699 Gd649 2.606 . S
O699 C715 1.284 . S
O700 Gd648 2.324 . S
O700 C723 1.254 . S
O701 Gd649 2.429 . S
O701 C723 1.268 . S
O702 Gd649 2.545 . S
O702 C715 1.250 . S
O703 Gd649 2.412 . S
O703 C716 1.252 . S
C704 O693 1.284 . S
C704 O696 1.250 . S
C705 H674 0.929 . S
C705 C690 1.437 . S
C705 C706 1.317 . S
C706 H677 0.930 . S
C706 C682 1.431 . S
C706 C705 1.317 . S
C707 Gd648 2.828 . S
C707 O692 1.258 . S
C707 O697 1.252 . S
C707 C708 1.497 . S
C708 C707 1.497 . S
C708 C709 1.395 . S
C708 C710 1.380 . S
C709 C708 1.395 . S
C709 C712 1.398 . S
C709 H724 0.930 . S
C710 C708 1.380 . S
C710 C711 1.391 . S
C710 H725 0.930 . S
C711 C710 1.391 . S
C711 C713 1.387 . S
C712 C709 1.398 . S
C712 C713 1.380 . S
C712 H726 0.930 . S
C713 C711 1.387 . S
C713 C712 1.380 . S
C713 H727 0.930 . S
C714 O694 1.254 . S
C714 O695 1.268 . S
C715 O699 1.284 . S
C715 O702 1.250 . S
C716 Gd649 2.828 . S
C716 O698 1.258 . S
C716 O703 1.252 . S
C716 C717 1.497 . S
C717 C716 1.497 . S
C717 C718 1.395 . S
C717 C719 1.380 . S
C718 C717 1.395 . S
C718 C721 1.398 . S
C718 H728 0.930 . S
C719 C717 1.380 . S
C719 C720 1.391 . S
C719 H729 0.930 . S
C720 C719 1.391 . S
C720 C722 1.387 . S
C721 C718 1.398 . S
C721 C722 1.380 . S
C721 H730 0.930 . S
C722 C720 1.387 . S
C722 C721 1.380 . S
C722 H731 0.930 . S
C723 O700 1.254 . S
C723 O701 1.268 . S
H724 C709 0.930 . S
H725 C710 0.930 . S
H726 C712 0.930 . S
H727 C713 0.930 . S
H728 C718 0.930 . S
H729 C719 0.930 . S
H730 C721 0.930 . S
H731 C722 0.930 . S
Gd732 N763 2.661 . S
Gd732 N769 2.601 . S
Gd732 O776 2.545 . S
Gd732 O777 2.586 1_655 S
Gd732 O779 2.429 1_655 S
Gd732 O780 2.545 . S
Gd732 O781 2.412 . S
Gd732 O783 2.362 1_655 S
Gd732 O784 2.324 . S
Gd732 C791 2.828 . S
Gd733 N742 2.661 . S
Gd733 N746 2.601 . S
Gd733 O777 2.394 . S
Gd733 O778 2.324 . S
Gd733 O782 2.545 . S
Gd733 O783 2.606 . S
Gd733 O785 2.429 1_455 S
Gd733 O786 2.545 . S
Gd733 O787 2.412 . S
Gd733 C800 2.828 . S
C734 C737 1.417 . S
C734 C739 1.431 . S
C734 C740 1.412 . S
C735 C738 1.437 . S
C735 C739 1.317 . S
C735 H754 0.929 . S
C736 C737 1.426 . S
C736 C738 1.413 . S
C736 N746 1.359 . S
C737 C734 1.417 . S
C737 C736 1.426 . S
C737 N742 1.350 . S
C738 C735 1.437 . S
C738 C736 1.413 . S
C738 C748 1.391 . S
C739 C734 1.431 . S
C739 C735 1.317 . S
C739 H750 0.930 . S
C740 C734 1.412 . S
C740 C741 1.355 . S
C740 H752 0.930 . S
C741 C740 1.355 . S
C741 C743 1.402 . S
C741 H753 0.930 . S
N742 Gd733 2.661 . S
N742 C737 1.350 . S
N742 C743 1.307 . S
C743 C741 1.402 . S
C743 N742 1.307 . S
C743 H744 0.930 . S
H744 C743 0.930 . S
C745 N746 1.334 . S
C745 C747 1.394 . S
C745 H749 0.930 1_455 S
N746 Gd733 2.601 . S
N746 C736 1.359 . S
N746 C745 1.334 . S
C747 C745 1.394 . S
C747 C748 1.359 . S
C747 H759 0.930 1_455 S
C748 C738 1.391 . S
C748 C747 1.359 . S
C748 H760 0.929 . S
H749 C745 0.930 1_655 S
H750 C739 0.930 . S
H751 C768 0.930 . S
H752 C740 0.930 . S
H753 C741 0.930 . S
H754 C735 0.929 . S
H755 C773 0.930 . S
H756 C764 0.930 . S
H757 C765 0.930 . S
H758 C789 0.929 . S
H759 C747 0.930 1_655 S
H760 C748 0.929 . S
H761 C790 0.930 . S
H762 C771 0.930 . S
N763 Gd732 2.661 . S
N763 C767 1.350 . S
N763 C768 1.307 . S
C764 H756 0.930 . S
C764 C765 1.355 . S
C764 C766 1.412 . S
C765 H757 0.930 . S
C765 C764 1.355 . S
C765 C768 1.402 . S
C766 C764 1.412 . S
C766 C767 1.417 . S
C766 C790 1.431 . S
C767 N763 1.350 . S
C767 C766 1.417 . S
C767 C770 1.426 . S
C768 H751 0.930 . S
C768 N763 1.307 . S
C768 C765 1.402 . S
N769 Gd732 2.601 . S
N769 C770 1.359 . S
N769 C773 1.334 1_655 S
C770 C767 1.426 . S
C770 N769 1.359 . S
C770 C774 1.413 . S
C771 H762 0.930 . S
C771 C772 1.359 1_455 S
C771 C773 1.394 . S
C772 C771 1.359 1_655 S
C772 C774 1.391 . S
C772 H775 0.929 . S
C773 H755 0.930 . S
C773 N769 1.334 1_455 S
C773 C771 1.394 . S
C774 C770 1.413 . S
C774 C772 1.391 . S
C774 C789 1.437 . S
H775 C772 0.929 . S
O776 Gd732 2.545 . S
O776 C791 1.258 . S
O777 Gd732 2.586 1_455 S
O777 Gd733 2.394 . S
O777 C788 1.263 1_455 S
O778 Gd733 2.324 . S
O778 C798 1.254 . S
O779 Gd732 2.429 1_455 S
O779 C798 1.268 . S
O780 Gd732 2.545 . S
O780 C788 1.250 . S
O781 Gd732 2.412 . S
O781 C791 1.252 . S
O782 Gd733 2.545 . S
O782 C800 1.258 . S
O783 Gd732 2.362 1_455 S
O783 Gd733 2.606 . S
O783 C799 1.284 . S
O784 Gd732 2.324 . S
O784 C807 1.254 . S
O785 Gd733 2.429 1_655 S
O785 C807 1.268 . S
O786 Gd733 2.545 . S
O786 C799 1.250 . S
O787 Gd733 2.412 . S
O787 C800 1.252 . S
C788 O777 1.263 1_655 S
C788 O780 1.250 . S
C789 H758 0.929 . S
C789 C774 1.437 . S
C789 C790 1.317 . S
C790 H761 0.930 . S
C790 C766 1.431 . S
C790 C789 1.317 . S
C791 Gd732 2.828 . S
C791 O776 1.258 . S
C791 O781 1.252 . S
C791 C792 1.497 . S
C792 C791 1.497 . S
C792 C793 1.395 . S
C792 C794 1.380 . S
C793 C792 1.395 . S
C793 C796 1.398 . S
C793 H808 0.930 . S
C794 C792 1.380 . S
C794 C795 1.391 . S
C794 H809 0.930 . S
C795 C794 1.391 . S
C795 C797 1.387 . S
C796 C793 1.398 . S
C796 C797 1.380 . S
C796 H810 0.930 . S
C797 C795 1.387 . S
C797 C796 1.380 . S
C797 H811 0.930 . S
C798 O778 1.254 . S
C798 O779 1.268 . S
C799 O783 1.284 . S
C799 O786 1.250 . S
C800 Gd733 2.828 . S
C800 O782 1.258 . S
C800 O787 1.252 . S
C800 C801 1.497 . S
C801 C800 1.497 . S
C801 C802 1.395 . S
C801 C803 1.380 . S
C802 C801 1.395 . S
C802 C805 1.398 . S
C802 H812 0.930 . S
C803 C801 1.380 . S
C803 C804 1.391 . S
C803 H813 0.930 . S
C804 C803 1.391 . S
C804 C806 1.387 . S
C805 C802 1.398 . S
C805 C806 1.380 . S
C805 H814 0.930 . S
C806 C804 1.387 . S
C806 C805 1.380 . S
C806 H815 0.930 . S
C807 O784 1.254 . S
C807 O785 1.268 . S
H808 C793 0.930 . S
H809 C794 0.930 . S
H810 C796 0.930 . S
H811 C797 0.930 . S
H812 C802 0.930 . S
H813 C803 0.930 . S
H814 C805 0.930 . S
H815 C806 0.930 . S
C816 C817 1.349 . S
C816 C818 1.327 . S
C816 H841 0.950 . S
C817 C816 1.349 . S
C817 C833 1.349 . S
C818 C816 1.327 . S
C818 C837 1.429 . S
C818 H842 0.950 . S
C819 C836 1.574 . S
C819 C838 1.368 . S
C819 H843 0.949 . S
H820 C824 0.949 . S
C821 C822 1.349 . S
C821 C823 1.327 . S
C821 H844 0.950 1_545 S
C822 C821 1.349 . S
C822 C834 1.349 . S
C823 C821 1.327 . S
C823 C839 1.429 . S
C823 H845 0.950 . S
C824 H820 0.949 . S
C824 C832 1.574 . S
C824 C840 1.368 . S
H825 C833 0.950 . S
H826 C831 0.950 . S
H827 C832 0.949 . S
H828 C834 0.950 . S
H829 C835 0.950 . S
H830 C836 0.949 . S
C831 H826 0.950 . S
C831 C833 1.327 . S
C831 C837 1.429 . S
C832 C824 1.574 . S
C832 H827 0.949 . S
C832 C838 1.368 . S
C833 C817 1.349 . S
C833 H825 0.950 . S
C833 C831 1.327 . S
C834 C822 1.349 . S
C834 H828 0.950 . S
C834 C835 1.327 . S
C835 H829 0.950 . S
C835 C834 1.327 . S
C835 C839 1.429 . S
C836 C819 1.574 . S
C836 H830 0.949 . S
C836 C840 1.368 . S
C837 C818 1.429 . S
C837 C831 1.429 . S
C837 C838 1.523 . S
C838 C819 1.368 . S
C838 C832 1.368 . S
C838 C837 1.523 . S
C839 C823 1.429 . S
C839 C835 1.429 . S
C839 C840 1.523 . S
C840 C824 1.368 . S
C840 C836 1.368 . S
C840 C839 1.523 . S
H841 C816 0.950 . S
H842 C818 0.950 . S
H843 C819 0.949 . S
H844 C821 0.950 1_565 S
H845 C823 0.950 . S
C846 C847 1.349 . S
C846 C848 1.327 . S
C846 H871 0.950 . S
C847 C846 1.349 . S
C847 C863 1.349 . S
C848 C846 1.327 . S
C848 C867 1.429 . S
C848 H872 0.950 . S
C849 C866 1.574 . S
C849 C868 1.368 . S
C849 H873 0.949 . S
H850 C854 0.949 . S
C851 C852 1.349 . S
C851 C853 1.327 . S
C851 H874 0.950 . S
C852 C851 1.349 . S
C852 C864 1.349 . S
C853 C851 1.327 . S
C853 C869 1.429 . S
C853 H875 0.950 . S
C854 H850 0.949 . S
C854 C862 1.574 . S
C854 C870 1.368 . S
H855 C863 0.950 . S
H856 C861 0.950 . S
H857 C862 0.949 . S
H858 C864 0.950 . S
H859 C865 0.950 . S
H860 C866 0.949 . S
C861 H856 0.950 . S
C861 C863 1.327 . S
C861 C867 1.429 . S
C862 C854 1.574 . S
C862 H857 0.949 . S
C862 C868 1.368 . S
C863 C847 1.349 . S
C863 H855 0.950 . S
C863 C861 1.327 . S
C864 C852 1.349 . S
C864 H858 0.950 . S
C864 C865 1.327 . S
C865 H859 0.950 . S
C865 C864 1.327 . S
C865 C869 1.429 . S
C866 C849 1.574 . S
C866 H860 0.949 . S
C866 C870 1.368 . S
C867 C848 1.429 . S
C867 C861 1.429 . S
C867 C868 1.523 . S
C868 C849 1.368 . S
C868 C862 1.368 . S
C868 C867 1.523 . S
C869 C853 1.429 . S
C869 C865 1.429 . S
C869 C870 1.523 . S
C870 C854 1.368 . S
C870 C866 1.368 . S
C870 C869 1.523 . S
H871 C846 0.950 . S
H872 C848 0.950 . S
H873 C849 0.949 . S
H874 C851 0.950 . S
H875 C853 0.950 . S
C876 C877 1.349 . S
C876 C878 1.327 . S
C876 H901 0.950 . S
C877 C876 1.349 . S
C877 C893 1.349 . S
C878 C876 1.327 . S
C878 C897 1.429 . S
C878 H902 0.950 . S
C879 C896 1.574 . S
C879 C898 1.368 . S
C879 H903 0.949 . S
H880 C884 0.949 . S
C881 C882 1.349 . S
C881 C883 1.327 . S
C881 H904 0.950 . S
C882 C881 1.349 . S
C882 C894 1.349 . S
C883 C881 1.327 . S
C883 C899 1.429 . S
C883 H905 0.950 . S
C884 H880 0.949 . S
C884 C892 1.574 . S
C884 C900 1.368 . S
H885 C893 0.950 . S
H886 C891 0.950 . S
H887 C892 0.949 . S
H888 C894 0.950 . S
H889 C895 0.950 . S
H890 C896 0.949 . S
C891 H886 0.950 . S
C891 C893 1.327 . S
C891 C897 1.429 . S
C892 C884 1.574 . S
C892 H887 0.949 . S
C892 C898 1.368 . S
C893 C877 1.349 . S
C893 H885 0.950 . S
C893 C891 1.327 . S
C894 C882 1.349 . S
C894 H888 0.950 . S
C894 C895 1.327 . S
C895 H889 0.950 . S
C895 C894 1.327 . S
C895 C899 1.429 . S
C896 C879 1.574 . S
C896 H890 0.949 . S
C896 C900 1.368 . S
C897 C878 1.429 . S
C897 C891 1.429 . S
C897 C898 1.523 . S
C898 C879 1.368 . S
C898 C892 1.368 . S
C898 C897 1.523 . S
C899 C883 1.429 . S
C899 C895 1.429 . S
C899 C900 1.523 . S
C900 C884 1.368 . S
C900 C896 1.368 . S
C900 C899 1.523 . S
H901 C876 0.950 . S
H902 C878 0.950 . S
H903 C879 0.949 . S
H904 C881 0.950 . S
H905 C883 0.950 . S
C906 C907 1.349 . S
C906 C908 1.327 . S
C906 H931 0.950 . S
C907 C906 1.349 . S
C907 C923 1.349 . S
C908 C906 1.327 . S
C908 C927 1.429 . S
C908 H932 0.950 . S
C909 C926 1.574 . S
C909 C928 1.368 . S
C909 H933 0.949 . S
H910 C914 0.949 . S
C911 C912 1.349 . S
C911 C913 1.327 . S
C911 H934 0.950 . S
C912 C911 1.349 . S
C912 C924 1.349 . S
C913 C911 1.327 . S
C913 C929 1.429 . S
C913 H935 0.950 . S
C914 H910 0.949 . S
C914 C922 1.574 . S
C914 C930 1.368 . S
H915 C923 0.950 . S
H916 C921 0.950 . S
H917 C922 0.949 . S
H918 C924 0.950 . S
H919 C925 0.950 . S
H920 C926 0.949 . S
C921 H916 0.950 . S
C921 C923 1.327 . S
C921 C927 1.429 . S
C922 C914 1.574 . S
C922 H917 0.949 . S
C922 C928 1.368 . S
C923 C907 1.349 . S
C923 H915 0.950 . S
C923 C921 1.327 . S
C924 C912 1.349 . S
C924 H918 0.950 . S
C924 C925 1.327 . S
C925 H919 0.950 . S
C925 C924 1.327 . S
C925 C929 1.429 . S
C926 C909 1.574 . S
C926 H920 0.949 . S
C926 C930 1.368 . S
C927 C908 1.429 . S
C927 C921 1.429 . S
C927 C928 1.523 . S
C928 C909 1.368 . S
C928 C922 1.368 . S
C928 C927 1.523 . S
C929 C913 1.429 . S
C929 C925 1.429 . S
C929 C930 1.523 . S
C930 C914 1.368 . S
C930 C926 1.368 . S
C930 C929 1.523 . S
H931 C906 0.950 . S
H932 C908 0.950 . S
H933 C909 0.949 . S
H934 C911 0.950 . S
H935 C913 0.950 . S
C936 C937 1.349 1_556 S
C936 C938 1.327 . S
C936 H961 0.950 . S
C937 C936 1.349 1_554 S
C937 C953 1.349 . S
C938 C936 1.327 . S
C938 C957 1.429 . S
C938 H962 0.950 . S
C939 C956 1.574 . S
C939 C958 1.368 . S
C939 H963 0.949 . S
H940 C944 0.949 . S
C941 C942 1.349 . S
C941 C943 1.327 . S
C941 H964 0.950 1_565 S
C942 C941 1.349 . S
C942 C954 1.349 . S
C943 C941 1.327 . S
C943 C959 1.429 . S
C943 H965 0.951 . S
C944 H940 0.949 . S
C944 C952 1.574 . S
C944 C960 1.368 . S
H945 C953 0.950 . S
H946 C951 0.950 . S
H947 C952 0.949 . S
H948 C954 0.950 . S
H949 C955 0.950 . S
H950 C956 0.949 . S
C951 H946 0.950 . S
C951 C953 1.327 . S
C951 C957 1.429 1_554 S
C952 C944 1.574 . S
C952 H947 0.949 . S
C952 C958 1.368 . S
C953 C937 1.349 . S
C953 H945 0.950 . S
C953 C951 1.327 . S
C954 C942 1.349 . S
C954 H948 0.950 . S
C954 C955 1.327 . S
C955 H949 0.950 . S
C955 C954 1.327 . S
C955 C959 1.429 . S
C956 C939 1.574 . S
C956 H950 0.949 . S
C956 C960 1.368 . S
C957 C938 1.429 . S
C957 C951 1.429 1_556 S
C957 C958 1.523 . S
C958 C939 1.368 . S
C958 C952 1.368 . S
C958 C957 1.523 . S
C959 C943 1.429 . S
C959 C955 1.429 . S
C959 C960 1.523 . S
C960 C944 1.368 . S
C960 C956 1.368 . S
C960 C959 1.523 . S
H961 C936 0.950 . S
H962 C938 0.950 . S
H963 C939 0.949 . S
H964 C941 0.950 1_545 S
H965 C943 0.951 . S
C966 C967 1.349 . S
C966 C968 1.327 1_554 S
C966 H991 0.950 . S
C967 C966 1.349 . S
C967 C983 1.349 1_554 S
C968 C966 1.327 1_556 S
C968 C987 1.429 . S
C968 H992 0.950 . S
C969 C986 1.574 . S
C969 C988 1.368 . S
C969 H993 0.949 . S
H970 C974 0.949 . S
C971 C972 1.349 . S
C971 C973 1.327 . S
C971 H994 0.950 . S
C972 C971 1.349 . S
C972 C984 1.349 . S
C973 C971 1.327 . S
C973 C989 1.429 . S
C973 H995 0.950 . S
C974 H970 0.949 . S
C974 C982 1.574 . S
C974 C990 1.368 . S
H975 C983 0.950 . S
H976 C981 0.950 . S
H977 C982 0.949 . S
H978 C984 0.950 . S
H979 C985 0.950 . S
H980 C986 0.949 . S
C981 H976 0.950 . S
C981 C983 1.327 . S
C981 C987 1.429 . S
C982 C974 1.574 . S
C982 H977 0.949 . S
C982 C988 1.368 . S
C983 C967 1.349 1_556 S
C983 H975 0.950 . S
C983 C981 1.327 . S
C984 C972 1.349 . S
C984 H978 0.950 . S
C984 C985 1.327 . S
C985 H979 0.950 . S
C985 C984 1.327 . S
C985 C989 1.429 . S
C986 C969 1.574 . S
C986 H980 0.949 . S
C986 C990 1.368 . S
C987 C968 1.429 . S
C987 C981 1.429 . S
C987 C988 1.523 . S
C988 C969 1.368 . S
C988 C982 1.368 . S
C988 C987 1.523 . S
C989 C973 1.429 . S
C989 C985 1.429 . S
C989 C990 1.523 . S
C990 C974 1.368 . S
C990 C986 1.368 . S
C990 C989 1.523 . S
H991 C966 0.950 . S
H992 C968 0.950 . S
H993 C969 0.949 . S
H994 C971 0.950 . S
H995 C973 0.950 . S
C996 C997 1.349 1_556 S
C996 C998 1.327 . S
C996 H1021 0.950 1_556 S
C997 C996 1.349 1_554 S
C997 C1013 1.349 . S
C998 C996 1.327 . S
C998 C1017 1.429 . S
C998 H1022 0.950 . S
C999 C1016 1.574 . S
C999 C1018 1.368 . S
C999 H1023 0.949 . S
H1000 C1004 0.949 . S
C1001 C1002 1.349 . S
C1001 C1003 1.327 . S
C1001 H1024 0.950 . S
C1002 C1001 1.349 . S
C1002 C1014 1.349 . S
C1003 C1001 1.327 . S
C1003 C1019 1.429 . S
C1003 H1025 0.950 . S
C1004 H1000 0.949 . S
C1004 C1012 1.574 . S
C1004 C1020 1.368 . S
H1005 C1013 0.950 . S
H1006 C1011 0.950 . S
H1007 C1012 0.949 . S
H1008 C1014 0.950 . S
H1009 C1015 0.950 . S
H1010 C1016 0.949 . S
C1011 H1006 0.950 . S
C1011 C1013 1.327 1_556 S
C1011 C1017 1.429 . S
C1012 C1004 1.574 . S
C1012 H1007 0.949 . S
C1012 C1018 1.368 . S
C1013 C997 1.349 . S
C1013 H1005 0.950 . S
C1013 C1011 1.327 1_554 S
C1014 C1002 1.349 . S
C1014 H1008 0.950 . S
C1014 C1015 1.327 . S
C1015 H1009 0.950 . S
C1015 C1014 1.327 . S
C1015 C1019 1.429 . S
C1016 C999 1.574 . S
C1016 H1010 0.949 . S
C1016 C1020 1.368 . S
C1017 C998 1.429 . S
C1017 C1011 1.429 . S
C1017 C1018 1.523 . S
C1018 C999 1.368 . S
C1018 C1012 1.368 . S
C1018 C1017 1.523 . S
C1019 C1003 1.429 . S
C1019 C1015 1.429 . S
C1019 C1020 1.523 . S
C1020 C1004 1.368 . S
C1020 C1016 1.368 . S
C1020 C1019 1.523 . S
H1021 C996 0.950 1_554 S
H1022 C998 0.950 . S
H1023 C999 0.949 . S
H1024 C1001 0.950 . S
H1025 C1003 0.950 . S
C1026 C1027 1.349 1_556 S
C1026 C1028 1.327 . S
C1026 H1051 0.950 . S
C1027 C1026 1.349 1_554 S
C1027 C1043 1.349 . S
C1028 C1026 1.327 . S
C1028 C1047 1.429 . S
C1028 H1052 0.950 . S
C1029 C1046 1.574 . S
C1029 C1048 1.368 . S
C1029 H1053 0.949 . S
H1030 C1034 0.949 . S
C1031 C1032 1.349 . S
C1031 C1033 1.327 . S
C1031 H1054 0.950 . S
C1032 C1031 1.349 . S
C1032 C1044 1.349 . S
C1033 C1031 1.327 . S
C1033 C1049 1.429 . S
C1033 H1055 0.950 . S
C1034 H1030 0.949 . S
C1034 C1042 1.574 . S
C1034 C1050 1.368 . S
H1035 C1043 0.950 . S
H1036 C1041 0.950 . S
H1037 C1042 0.949 . S
H1038 C1044 0.950 . S
H1039 C1045 0.950 . S
H1040 C1046 0.949 . S
C1041 H1036 0.950 . S
C1041 C1043 1.327 . S
C1041 C1047 1.429 1_554 S
C1042 C1034 1.574 . S
C1042 H1037 0.949 . S
C1042 C1048 1.368 . S
C1043 C1027 1.349 . S
C1043 H1035 0.950 . S
C1043 C1041 1.327 . S
C1044 C1032 1.349 . S
C1044 H1038 0.950 . S
C1044 C1045 1.327 . S
C1045 H1039 0.950 . S
C1045 C1044 1.327 . S
C1045 C1049 1.429 . S
C1046 C1029 1.574 . S
C1046 H1040 0.949 . S
C1046 C1050 1.368 . S
C1047 C1028 1.429 . S
C1047 C1041 1.429 1_556 S
C1047 C1048 1.523 . S
C1048 C1029 1.368 . S
C1048 C1042 1.368 . S
C1048 C1047 1.523 . S
C1049 C1033 1.429 . S
C1049 C1045 1.429 . S
C1049 C1050 1.523 . S
C1050 C1034 1.368 . S
C1050 C1046 1.368 . S
C1050 C1049 1.523 . S
H1051 C1026 0.950 . S
H1052 C1028 0.950 . S
H1053 C1029 0.949 . S
H1054 C1031 0.950 . S
H1055 C1033 0.950 . S
C1056 C1057 1.349 . S
C1056 C1058 1.327 . S
C1056 H1081 0.950 . S
C1057 C1056 1.349 . S
C1057 C1073 1.349 . S
C1058 C1056 1.327 . S
C1058 C1077 1.429 . S
C1058 H1082 0.950 . S
C1059 C1076 1.574 . S
C1059 C1078 1.368 . S
C1059 H1083 0.949 . S
H1060 C1064 0.949 . S
C1061 C1062 1.350 1_655 S
C1061 C1063 1.329 1_655 S
C1061 H1084 0.947 . S
C1062 C1061 1.350 1_455 S
C1062 C1074 1.349 . S
C1063 C1061 1.329 1_455 S
C1063 C1079 1.429 . S
C1063 H1085 0.950 . S
C1064 H1060 0.949 . S
C1064 C1072 1.574 . S
C1064 C1080 1.368 . S
H1065 C1073 0.950 . S
H1066 C1071 0.950 . S
H1067 C1072 0.949 . S
H1068 C1074 0.950 . S
H1069 C1075 0.950 . S
H1070 C1076 0.949 . S
C1071 H1066 0.950 . S
C1071 C1073 1.327 . S
C1071 C1077 1.429 . S
C1072 C1064 1.574 . S
C1072 H1067 0.949 . S
C1072 C1078 1.368 . S
C1073 C1057 1.349 . S
C1073 H1065 0.950 . S
C1073 C1071 1.327 . S
C1074 C1062 1.349 . S
C1074 H1068 0.950 . S
C1074 C1075 1.327 . S
C1075 H1069 0.950 . S
C1075 C1074 1.327 . S
C1075 C1079 1.429 . S
C1076 C1059 1.574 . S
C1076 H1070 0.949 . S
C1076 C1080 1.368 . S
C1077 C1058 1.429 . S
C1077 C1071 1.429 . S
C1077 C1078 1.523 . S
C1078 C1059 1.368 . S
C1078 C1072 1.368 . S
C1078 C1077 1.523 . S
C1079 C1063 1.429 . S
C1079 C1075 1.429 . S
C1079 C1080 1.523 . S
C1080 C1064 1.368 . S
C1080 C1076 1.368 . S
C1080 C1079 1.523 . S
H1081 C1056 0.950 . S
H1082 C1058 0.950 . S
H1083 C1059 0.949 . S
H1084 C1061 0.947 . S
H1085 C1063 0.950 . S
C1086 C1087 1.349 . S
C1086 C1088 1.327 . S
C1086 H1111 0.950 . S
C1087 C1086 1.349 . S
C1087 C1103 1.349 . S
C1088 C1086 1.327 . S
C1088 C1107 1.429 . S
C1088 H1112 0.950 . S
C1089 C1106 1.574 . S
C1089 C1108 1.368 . S
C1089 H1113 0.949 . S
H1090 C1094 0.949 . S
C1091 C1092 1.349 1_565 S
C1091 C1093 1.327 1_565 S
C1091 H1114 0.950 . S
C1092 C1091 1.349 1_545 S
C1092 C1104 1.349 . S
C1093 C1091 1.327 1_545 S
C1093 C1109 1.429 . S
C1093 H1115 0.950 1_545 S
C1094 H1090 0.949 . S
C1094 C1102 1.574 . S
C1094 C1110 1.368 . S
H1095 C1103 0.950 . S
H1096 C1101 0.950 . S
H1097 C1102 0.949 . S
H1098 C1104 0.950 . S
H1099 C1105 0.950 . S
H1100 C1106 0.949 . S
C1101 H1096 0.950 . S
C1101 C1103 1.327 . S
C1101 C1107 1.429 . S
C1102 C1094 1.574 . S
C1102 H1097 0.949 . S
C1102 C1108 1.368 . S
C1103 C1087 1.349 . S
C1103 H1095 0.950 . S
C1103 C1101 1.327 . S
C1104 C1092 1.349 . S
C1104 H1098 0.950 . S
C1104 C1105 1.327 . S
C1105 H1099 0.950 . S
C1105 C1104 1.327 . S
C1105 C1109 1.429 . S
C1106 C1089 1.574 . S
C1106 H1100 0.949 . S
C1106 C1110 1.368 . S
C1107 C1088 1.429 . S
C1107 C1101 1.429 . S
C1107 C1108 1.523 . S
C1108 C1089 1.368 . S
C1108 C1102 1.368 . S
C1108 C1107 1.523 . S
C1109 C1093 1.429 . S
C1109 C1105 1.429 . S
C1109 C1110 1.523 . S
C1110 C1094 1.368 . S
C1110 C1106 1.368 . S
C1110 C1109 1.523 . S
H1111 C1086 0.950 . S
H1112 C1088 0.950 . S
H1113 C1089 0.949 . S
H1114 C1091 0.950 . S
H1115 C1093 0.950 1_565 S
C1116 C1117 1.349 . S
C1116 C1118 1.327 . S
C1116 H1141 0.950 . S
C1117 C1116 1.349 . S
C1117 C1133 1.349 . S
C1118 C1116 1.327 . S
C1118 C1137 1.429 . S
C1118 H1142 0.950 . S
C1119 C1136 1.574 . S
C1119 C1138 1.368 . S
C1119 H1143 0.949 . S
H1120 C1124 0.949 . S
C1121 C1122 1.349 . S
C1121 C1123 1.327 . S
C1121 H1144 0.950 . S
C1122 C1121 1.349 . S
C1122 C1134 1.349 . S
C1123 C1121 1.327 . S
C1123 C1139 1.429 . S
C1123 H1145 0.950 . S
C1124 H1120 0.949 . S
C1124 C1132 1.574 . S
C1124 C1140 1.368 . S
H1125 C1133 0.950 . S
H1126 C1131 0.950 . S
H1127 C1132 0.949 . S
H1128 C1134 0.950 . S
H1129 C1135 0.950 . S
H1130 C1136 0.949 . S
C1131 H1126 0.950 . S
C1131 C1133 1.327 . S
C1131 C1137 1.429 . S
C1132 C1124 1.574 . S
C1132 H1127 0.949 . S
C1132 C1138 1.368 . S
C1133 C1117 1.349 . S
C1133 H1125 0.950 . S
C1133 C1131 1.327 . S
C1134 C1122 1.349 . S
C1134 H1128 0.950 . S
C1134 C1135 1.327 . S
C1135 H1129 0.950 . S
C1135 C1134 1.327 . S
C1135 C1139 1.429 . S
C1136 C1119 1.574 . S
C1136 H1130 0.949 . S
C1136 C1140 1.368 . S
C1137 C1118 1.429 . S
C1137 C1131 1.429 . S
C1137 C1138 1.523 . S
C1138 C1119 1.368 . S
C1138 C1132 1.368 . S
C1138 C1137 1.523 . S
C1139 C1123 1.429 . S
C1139 C1135 1.429 . S
C1139 C1140 1.523 . S
C1140 C1124 1.368 . S
C1140 C1136 1.368 . S
C1140 C1139 1.523 . S
H1141 C1116 0.950 . S
H1142 C1118 0.950 . S
H1143 C1119 0.949 . S
H1144 C1121 0.950 . S
H1145 C1123 0.950 . S
C1146 C1147 1.349 . S
C1146 C1148 1.327 . S
C1146 H1171 0.950 . S
C1147 C1146 1.349 . S
C1147 C1163 1.349 . S
C1148 C1146 1.327 . S
C1148 C1167 1.429 . S
C1148 H1172 0.950 . S
C1149 C1166 1.574 . S
C1149 C1168 1.368 . S
C1149 H1173 0.949 . S
H1150 C1154 0.949 . S
C1151 C1152 1.349 . S
C1151 C1153 1.327 . S
C1151 H1174 0.950 . S
C1152 C1151 1.349 . S
C1152 C1164 1.349 . S
C1153 C1151 1.327 . S
C1153 C1169 1.429 . S
C1153 H1175 0.950 . S
C1154 H1150 0.949 . S
C1154 C1162 1.574 . S
C1154 C1170 1.368 . S
H1155 C1163 0.950 . S
H1156 C1161 0.950 . S
H1157 C1162 0.949 . S
H1158 C1164 0.950 . S
H1159 C1165 0.950 . S
H1160 C1166 0.949 . S
C1161 H1156 0.950 . S
C1161 C1163 1.327 . S
C1161 C1167 1.429 . S
C1162 C1154 1.574 . S
C1162 H1157 0.949 . S
C1162 C1168 1.368 . S
C1163 C1147 1.349 . S
C1163 H1155 0.950 . S
C1163 C1161 1.327 . S
C1164 C1152 1.349 . S
C1164 H1158 0.950 . S
C1164 C1165 1.327 . S
C1165 H1159 0.950 . S
C1165 C1164 1.327 . S
C1165 C1169 1.429 . S
C1166 C1149 1.574 . S
C1166 H1160 0.949 . S
C1166 C1170 1.368 . S
C1167 C1148 1.429 . S
C1167 C1161 1.429 . S
C1167 C1168 1.523 . S
C1168 C1149 1.368 . S
C1168 C1162 1.368 . S
C1168 C1167 1.523 . S
C1169 C1153 1.429 . S
C1169 C1165 1.429 . S
C1169 C1170 1.523 . S
C1170 C1154 1.368 . S
C1170 C1166 1.368 . S
C1170 C1169 1.523 . S
H1171 C1146 0.950 . S
H1172 C1148 0.950 . S
H1173 C1149 0.949 . S
H1174 C1151 0.950 . S
H1175 C1153 0.950 . S
C1176 C1177 1.349 . S
C1176 C1178 1.327 . S
C1176 H1201 0.950 1_556 S
C1177 C1176 1.349 . S
C1177 C1193 1.349 . S
C1178 C1176 1.327 . S
C1178 C1197 1.429 . S
C1178 H1202 0.950 . S
C1179 C1196 1.574 . S
C1179 C1198 1.368 . S
C1179 H1203 0.949 . S
H1180 C1184 0.949 . S
C1181 C1182 1.349 1_655 S
C1181 C1183 1.327 . S
C1181 H1204 0.950 . S
C1182 C1181 1.349 1_455 S
C1182 C1194 1.349 . S
C1183 C1181 1.327 . S
C1183 C1199 1.429 . S
C1183 H1205 0.950 . S
C1184 H1180 0.949 . S
C1184 C1192 1.574 . S
C1184 C1200 1.368 . S
H1185 C1193 0.950 . S
H1186 C1191 0.950 . S
H1187 C1192 0.949 . S
H1188 C1194 0.950 . S
H1189 C1195 0.950 . S
H1190 C1196 0.949 . S
C1191 H1186 0.950 . S
C1191 C1193 1.327 . S
C1191 C1197 1.429 . S
C1192 C1184 1.574 . S
C1192 H1187 0.949 . S
C1192 C1198 1.368 . S
C1193 C1177 1.349 . S
C1193 H1185 0.950 . S
C1193 C1191 1.327 . S
C1194 C1182 1.349 . S
C1194 H1188 0.950 . S
C1194 C1195 1.327 1_455 S
C1195 H1189 0.950 . S
C1195 C1194 1.327 1_655 S
C1195 C1199 1.429 . S
C1196 C1179 1.574 . S
C1196 H1190 0.949 . S
C1196 C1200 1.368 . S
C1197 C1178 1.429 . S
C1197 C1191 1.429 . S
C1197 C1198 1.523 . S
C1198 C1179 1.368 . S
C1198 C1192 1.368 . S
C1198 C1197 1.523 . S
C1199 C1183 1.429 . S
C1199 C1195 1.429 . S
C1199 C1200 1.523 . S
C1200 C1184 1.368 . S
C1200 C1196 1.368 . S
C1200 C1199 1.523 . S
H1201 C1176 0.950 1_554 S
H1202 C1178 0.950 . S
H1203 C1179 0.949 . S
H1204 C1181 0.950 . S
H1205 C1183 0.950 . S
C1206 C1207 1.349 . S
C1206 C1208 1.327 . S
C1206 H1231 0.950 . S
C1207 C1206 1.349 . S
C1207 C1223 1.349 . S
C1208 C1206 1.327 . S
C1208 C1227 1.429 . S
C1208 H1232 0.950 . S
C1209 C1226 1.574 . S
C1209 C1228 1.368 . S
C1209 H1233 0.949 . S
H1210 C1214 0.949 . S
C1211 C1212 1.349 . S
C1211 C1213 1.327 . S
C1211 H1234 0.950 . S
C1212 C1211 1.349 . S
C1212 C1224 1.349 1_545 S
C1213 C1211 1.327 . S
C1213 C1229 1.429 1_545 S
C1213 H1235 0.950 . S
C1214 H1210 0.949 . S
C1214 C1222 1.574 . S
C1214 C1230 1.368 . S
H1215 C1223 0.950 1_554 S
H1216 C1221 0.950 . S
H1217 C1222 0.949 . S
H1218 C1224 0.950 . S
H1219 C1225 0.950 . S
H1220 C1226 0.949 . S
C1221 H1216 0.950 . S
C1221 C1223 1.327 . S
C1221 C1227 1.429 . S
C1222 C1214 1.574 . S
C1222 H1217 0.949 . S
C1222 C1228 1.368 . S
C1223 C1207 1.349 . S
C1223 H1215 0.950 1_556 S
C1223 C1221 1.327 . S
C1224 C1212 1.349 1_565 S
C1224 H1218 0.950 . S
C1224 C1225 1.327 . S
C1225 H1219 0.950 . S
C1225 C1224 1.327 . S
C1225 C1229 1.429 . S
C1226 C1209 1.574 . S
C1226 H1220 0.949 . S
C1226 C1230 1.368 . S
C1227 C1208 1.429 . S
C1227 C1221 1.429 . S
C1227 C1228 1.523 . S
C1228 C1209 1.368 . S
C1228 C1222 1.368 . S
C1228 C1227 1.523 . S
C1229 C1213 1.429 1_565 S
C1229 C1225 1.429 . S
C1229 C1230 1.523 . S
C1230 C1214 1.368 . S
C1230 C1226 1.368 . S
C1230 C1229 1.523 . S
H1231 C1206 0.950 . S
H1232 C1208 0.950 . S
H1233 C1209 0.949 . S
H1234 C1211 0.950 . S
H1235 C1213 0.950 . S
C1236 C1237 1.349 . S
C1236 C1238 1.327 . S
C1236 H1261 0.950 . S
C1237 C1236 1.349 . S
C1237 C1253 1.349 . S
C1238 C1236 1.327 . S
C1238 C1257 1.429 . S
C1238 H1262 0.950 . S
C1239 C1256 1.574 . S
C1239 C1258 1.368 . S
C1239 H1263 0.949 . S
H1240 C1244 0.949 . S
C1241 C1242 1.349 . S
C1241 C1243 1.327 . S
C1241 H1264 0.950 . S
C1242 C1241 1.349 . S
C1242 C1254 1.349 . S
C1243 C1241 1.327 . S
C1243 C1259 1.429 . S
C1243 H1265 0.950 . S
C1244 H1240 0.949 . S
C1244 C1252 1.574 . S
C1244 C1260 1.368 . S
H1245 C1253 0.950 1_554 S
H1246 C1251 0.950 . S
H1247 C1252 0.949 . S
H1248 C1254 0.950 . S
H1249 C1255 0.950 . S
H1250 C1256 0.949 . S
C1251 H1246 0.950 . S
C1251 C1253 1.327 . S
C1251 C1257 1.429 . S
C1252 C1244 1.574 . S
C1252 H1247 0.949 . S
C1252 C1258 1.368 . S
C1253 C1237 1.349 . S
C1253 H1245 0.950 1_556 S
C1253 C1251 1.327 . S
C1254 C1242 1.349 . S
C1254 H1248 0.950 . S
C1254 C1255 1.327 . S
C1255 H1249 0.950 . S
C1255 C1254 1.327 . S
C1255 C1259 1.429 . S
C1256 C1239 1.574 . S
C1256 H1250 0.949 . S
C1256 C1260 1.368 . S
C1257 C1238 1.429 . S
C1257 C1251 1.429 . S
C1257 C1258 1.523 . S
C1258 C1239 1.368 . S
C1258 C1252 1.368 . S
C1258 C1257 1.523 . S
C1259 C1243 1.429 . S
C1259 C1255 1.429 . S
C1259 C1260 1.523 . S
C1260 C1244 1.368 . S
C1260 C1256 1.368 . S
C1260 C1259 1.523 . S
H1261 C1236 0.950 . S
H1262 C1238 0.950 . S
H1263 C1239 0.949 . S
H1264 C1241 0.950 . S
H1265 C1243 0.950 . S
C1266 C1267 1.349 . S
C1266 C1268 1.327 . S
C1266 H1291 0.950 . S
C1267 C1266 1.349 . S
C1267 C1283 1.349 . S
C1268 C1266 1.327 . S
C1268 C1287 1.429 . S
C1268 H1292 0.950 . S
C1269 C1286 1.574 . S
C1269 C1288 1.368 . S
C1269 H1293 0.949 . S
H1270 C1274 0.949 . S
C1271 C1272 1.349 . S
C1271 C1273 1.327 . S
C1271 H1294 0.950 . S
C1272 C1271 1.349 . S
C1272 C1284 1.349 . S
C1273 C1271 1.327 . S
C1273 C1289 1.429 . S
C1273 H1295 0.950 . S
C1274 H1270 0.949 . S
C1274 C1282 1.574 . S
C1274 C1290 1.368 . S
H1275 C1283 0.950 . S
H1276 C1281 0.950 . S
H1277 C1282 0.949 . S
H1278 C1284 0.950 . S
H1279 C1285 0.950 . S
H1280 C1286 0.949 . S
C1281 H1276 0.950 . S
C1281 C1283 1.327 . S
C1281 C1287 1.429 . S
C1282 C1274 1.574 . S
C1282 H1277 0.949 . S
C1282 C1288 1.368 . S
C1283 C1267 1.349 . S
C1283 H1275 0.950 . S
C1283 C1281 1.327 . S
C1284 C1272 1.349 . S
C1284 H1278 0.950 . S
C1284 C1285 1.327 . S
C1285 H1279 0.950 . S
C1285 C1284 1.327 . S
C1285 C1289 1.429 . S
C1286 C1269 1.574 . S
C1286 H1280 0.949 . S
C1286 C1290 1.368 . S
C1287 C1268 1.429 . S
C1287 C1281 1.429 . S
C1287 C1288 1.523 . S
C1288 C1269 1.368 . S
C1288 C1282 1.368 . S
C1288 C1287 1.523 . S
C1289 C1273 1.429 . S
C1289 C1285 1.429 . S
C1289 C1290 1.523 . S
C1290 C1274 1.368 . S
C1290 C1286 1.368 . S
C1290 C1289 1.523 . S
H1291 C1266 0.950 . S
H1292 C1268 0.950 . S
H1293 C1269 0.949 . S
H1294 C1271 0.950 . S
H1295 C1273 0.950 . S
C1296 C1297 1.349 . S
C1296 C1298 1.327 . S
C1296 H1321 0.950 . S
C1297 C1296 1.349 . S
C1297 C1313 1.349 . S
C1298 C1296 1.327 . S
C1298 C1317 1.429 . S
C1298 H1322 0.950 . S
C1299 C1316 1.574 . S
C1299 C1318 1.368 . S
C1299 H1323 0.949 . S
H1300 C1304 0.949 . S
C1301 C1302 1.349 . S
C1301 C1303 1.327 . S
C1301 H1324 0.950 . S
C1302 C1301 1.349 . S
C1302 C1314 1.349 . S
C1303 C1301 1.327 . S
C1303 C1319 1.429 . S
C1303 H1325 0.950 . S
C1304 H1300 0.949 . S
C1304 C1312 1.574 . S
C1304 C1320 1.368 . S
H1305 C1313 0.950 . S
H1306 C1311 0.950 . S
H1307 C1312 0.949 . S
H1308 C1314 0.950 . S
H1309 C1315 0.950 . S
H1310 C1316 0.949 . S
C1311 H1306 0.950 . S
C1311 C1313 1.327 . S
C1311 C1317 1.429 . S
C1312 C1304 1.574 . S
C1312 H1307 0.949 . S
C1312 C1318 1.368 . S
C1313 C1297 1.349 . S
C1313 H1305 0.950 . S
C1313 C1311 1.327 . S
C1314 C1302 1.349 . S
C1314 H1308 0.950 . S
C1314 C1315 1.327 . S
C1315 H1309 0.950 . S
C1315 C1314 1.327 . S
C1315 C1319 1.429 . S
C1316 C1299 1.574 . S
C1316 H1310 0.949 . S
C1316 C1320 1.368 . S
C1317 C1298 1.429 . S
C1317 C1311 1.429 . S
C1317 C1318 1.523 . S
C1318 C1299 1.368 . S
C1318 C1312 1.368 . S
C1318 C1317 1.523 . S
C1319 C1303 1.429 . S
C1319 C1315 1.429 . S
C1319 C1320 1.523 . S
C1320 C1304 1.368 . S
C1320 C1316 1.368 . S
C1320 C1319 1.523 . S
H1321 C1296 0.950 . S
H1322 C1298 0.950 . S
H1323 C1299 0.949 . S
H1324 C1301 0.950 . S
H1325 C1303 0.950 . S
C1326 C1327 1.349 . S
C1326 C1328 1.327 . S
C1326 H1351 0.950 . S
C1327 C1326 1.349 . S
C1327 C1343 1.349 . S
C1328 C1326 1.327 . S
C1328 C1347 1.429 . S
C1328 H1352 0.950 . S
C1329 C1346 1.574 . S
C1329 C1348 1.368 . S
C1329 H1353 0.949 . S
H1330 C1334 0.949 . S
C1331 C1332 1.349 . S
C1331 C1333 1.327 . S
C1331 H1354 0.950 . S
C1332 C1331 1.349 . S
C1332 C1344 1.349 . S
C1333 C1331 1.327 . S
C1333 C1349 1.429 . S
C1333 H1355 0.950 . S
C1334 H1330 0.949 . S
C1334 C1342 1.574 . S
C1334 C1350 1.368 . S
H1335 C1343 0.950 . S
H1336 C1341 0.950 . S
H1337 C1342 0.949 . S
H1338 C1344 0.950 . S
H1339 C1345 0.950 . S
H1340 C1346 0.949 . S
C1341 H1336 0.950 . S
C1341 C1343 1.327 . S
C1341 C1347 1.429 . S
C1342 C1334 1.574 . S
C1342 H1337 0.949 . S
C1342 C1348 1.368 . S
C1343 C1327 1.349 . S
C1343 H1335 0.950 . S
C1343 C1341 1.327 . S
C1344 C1332 1.349 . S
C1344 H1338 0.950 . S
C1344 C1345 1.327 . S
C1345 H1339 0.950 . S
C1345 C1344 1.327 . S
C1345 C1349 1.429 . S
C1346 C1329 1.574 . S
C1346 H1340 0.949 . S
C1346 C1350 1.368 . S
C1347 C1328 1.429 . S
C1347 C1341 1.429 . S
C1347 C1348 1.523 . S
C1348 C1329 1.368 . S
C1348 C1342 1.368 . S
C1348 C1347 1.523 . S
C1349 C1333 1.429 . S
C1349 C1345 1.429 . S
C1349 C1350 1.523 . S
C1350 C1334 1.368 . S
C1350 C1346 1.368 . S
C1350 C1349 1.523 . S
H1351 C1326 0.950 . S
H1352 C1328 0.950 . S
H1353 C1329 0.949 . S
H1354 C1331 0.950 . S
H1355 C1333 0.950 . S
C1356 C1357 1.349 . S
C1356 C1358 1.327 . S
C1356 H1381 0.950 . S
C1357 C1356 1.349 . S
C1357 C1373 1.349 . S
C1358 C1356 1.327 . S
C1358 C1377 1.429 . S
C1358 H1382 0.950 . S
C1359 C1376 1.574 . S
C1359 C1378 1.368 . S
C1359 H1383 0.949 . S
H1360 C1364 0.949 . S
C1361 C1362 1.349 . S
C1361 C1363 1.327 . S
C1361 H1384 0.950 . S
C1362 C1361 1.349 . S
C1362 C1374 1.349 . S
C1363 C1361 1.327 . S
C1363 C1379 1.429 . S
C1363 H1385 0.950 . S
C1364 H1360 0.949 . S
C1364 C1372 1.574 . S
C1364 C1380 1.368 . S
H1365 C1373 0.950 . S
H1366 C1371 0.950 . S
H1367 C1372 0.949 . S
H1368 C1374 0.950 . S
H1369 C1375 0.950 . S
H1370 C1376 0.949 . S
C1371 H1366 0.950 . S
C1371 C1373 1.327 . S
C1371 C1377 1.429 . S
C1372 C1364 1.574 . S
C1372 H1367 0.949 . S
C1372 C1378 1.368 . S
C1373 C1357 1.349 . S
C1373 H1365 0.950 . S
C1373 C1371 1.327 . S
C1374 C1362 1.349 . S
C1374 H1368 0.950 . S
C1374 C1375 1.327 . S
C1375 H1369 0.950 . S
C1375 C1374 1.327 . S
C1375 C1379 1.429 . S
C1376 C1359 1.574 . S
C1376 H1370 0.949 . S
C1376 C1380 1.368 . S
C1377 C1358 1.429 . S
C1377 C1371 1.429 . S
C1377 C1378 1.523 . S
C1378 C1359 1.368 . S
C1378 C1372 1.368 . S
C1378 C1377 1.523 . S
C1379 C1363 1.429 . S
C1379 C1375 1.429 . S
C1379 C1380 1.523 . S
C1380 C1364 1.368 . S
C1380 C1376 1.368 . S
C1380 C1379 1.523 . S
H1381 C1356 0.950 . S
H1382 C1358 0.950 . S
H1383 C1359 0.949 . S
H1384 C1361 0.950 . S
H1385 C1363 0.950 . S
C1386 C1387 1.349 . S
C1386 C1388 1.327 . S
C1386 H1411 0.950 . S
C1387 C1386 1.349 . S
C1387 C1403 1.349 . S
C1388 C1386 1.327 . S
C1388 C1407 1.429 . S
C1388 H1412 0.950 . S
C1389 C1406 1.574 . S
C1389 C1408 1.368 . S
C1389 H1413 0.949 . S
H1390 C1394 0.949 . S
C1391 C1392 1.349 . S
C1391 C1393 1.327 . S
C1391 H1414 0.950 . S
C1392 C1391 1.349 . S
C1392 C1404 1.349 . S
C1393 C1391 1.327 . S
C1393 C1409 1.429 . S
C1393 H1415 0.950 . S
C1394 H1390 0.949 . S
C1394 C1402 1.574 . S
C1394 C1410 1.368 . S
H1395 C1403 0.950 . S
H1396 C1401 0.950 . S
H1397 C1402 0.949 . S
H1398 C1404 0.950 . S
H1399 C1405 0.950 . S
H1400 C1406 0.949 . S
C1401 H1396 0.950 . S
C1401 C1403 1.327 . S
C1401 C1407 1.429 . S
C1402 C1394 1.574 . S
C1402 H1397 0.949 . S
C1402 C1408 1.368 . S
C1403 C1387 1.349 . S
C1403 H1395 0.950 . S
C1403 C1401 1.327 . S
C1404 C1392 1.349 . S
C1404 H1398 0.950 . S
C1404 C1405 1.327 . S
C1405 H1399 0.950 . S
C1405 C1404 1.327 . S
C1405 C1409 1.429 . S
C1406 C1389 1.574 . S
C1406 H1400 0.949 . S
C1406 C1410 1.368 . S
C1407 C1388 1.429 . S
C1407 C1401 1.429 . S
C1407 C1408 1.523 . S
C1408 C1389 1.368 . S
C1408 C1402 1.368 . S
C1408 C1407 1.523 . S
C1409 C1393 1.429 . S
C1409 C1405 1.429 . S
C1409 C1410 1.523 . S
C1410 C1394 1.368 . S
C1410 C1406 1.368 . S
C1410 C1409 1.523 . S
H1411 C1386 0.950 . S
H1412 C1388 0.950 . S
H1413 C1389 0.949 . S
H1414 C1391 0.950 . S
H1415 C1393 0.950 . S
C1416 C1417 1.349 . S
C1416 C1418 1.327 . S
C1416 H1441 0.950 . S
C1417 C1416 1.349 . S
C1417 C1433 1.349 . S
C1418 C1416 1.327 . S
C1418 C1437 1.429 . S
C1418 H1442 0.950 . S
C1419 C1436 1.574 . S
C1419 C1438 1.368 . S
C1419 H1443 0.949 . S
H1420 C1424 0.949 . S
C1421 C1422 1.349 . S
C1421 C1423 1.327 . S
C1421 H1444 0.950 . S
C1422 C1421 1.349 . S
C1422 C1434 1.349 . S
C1423 C1421 1.327 . S
C1423 C1439 1.429 . S
C1423 H1445 0.950 . S
C1424 H1420 0.949 . S
C1424 C1432 1.574 . S
C1424 C1440 1.368 . S
H1425 C1433 0.950 . S
H1426 C1431 0.950 . S
H1427 C1432 0.949 . S
H1428 C1434 0.950 . S
H1429 C1435 0.950 . S
H1430 C1436 0.949 . S
C1431 H1426 0.950 . S
C1431 C1433 1.327 . S
C1431 C1437 1.429 . S
C1432 C1424 1.574 . S
C1432 H1427 0.949 . S
C1432 C1438 1.368 . S
C1433 C1417 1.349 . S
C1433 H1425 0.950 . S
C1433 C1431 1.327 . S
C1434 C1422 1.349 . S
C1434 H1428 0.950 . S
C1434 C1435 1.327 . S
C1435 H1429 0.950 . S
C1435 C1434 1.327 . S
C1435 C1439 1.429 . S
C1436 C1419 1.574 . S
C1436 H1430 0.949 . S
C1436 C1440 1.368 . S
C1437 C1418 1.429 . S
C1437 C1431 1.429 . S
C1437 C1438 1.523 . S
C1438 C1419 1.368 . S
C1438 C1432 1.368 . S
C1438 C1437 1.523 . S
C1439 C1423 1.429 . S
C1439 C1435 1.429 . S
C1439 C1440 1.523 . S
C1440 C1424 1.368 . S
C1440 C1436 1.368 . S
C1440 C1439 1.523 . S
H1441 C1416 0.950 . S
H1442 C1418 0.950 . S
H1443 C1419 0.949 . S
H1444 C1421 0.950 . S
H1445 C1423 0.950 . S
C1446 C1447 1.349 . S
C1446 C1448 1.327 . S
C1446 H1471 0.950 . S
C1447 C1446 1.349 . S
C1447 C1463 1.349 . S
C1448 C1446 1.327 . S
C1448 C1467 1.429 . S
C1448 H1472 0.950 . S
C1449 C1466 1.574 . S
C1449 C1468 1.368 . S
C1449 H1473 0.949 . S
H1450 C1454 0.949 . S
C1451 C1452 1.349 . S
C1451 C1453 1.327 . S
C1451 H1474 0.950 . S
C1452 C1451 1.349 . S
C1452 C1464 1.349 . S
C1453 C1451 1.327 . S
C1453 C1469 1.429 . S
C1453 H1475 0.950 . S
C1454 H1450 0.949 . S
C1454 C1462 1.574 . S
C1454 C1470 1.368 . S
H1455 C1463 0.950 . S
H1456 C1461 0.950 . S
H1457 C1462 0.949 . S
H1458 C1464 0.950 . S
H1459 C1465 0.950 . S
H1460 C1466 0.949 . S
C1461 H1456 0.950 . S
C1461 C1463 1.327 . S
C1461 C1467 1.429 . S
C1462 C1454 1.574 . S
C1462 H1457 0.949 . S
C1462 C1468 1.368 . S
C1463 C1447 1.349 . S
C1463 H1455 0.950 . S
C1463 C1461 1.327 . S
C1464 C1452 1.349 . S
C1464 H1458 0.950 . S
C1464 C1465 1.327 . S
C1465 H1459 0.950 . S
C1465 C1464 1.327 . S
C1465 C1469 1.429 . S
C1466 C1449 1.574 . S
C1466 H1460 0.949 . S
C1466 C1470 1.368 . S
C1467 C1448 1.429 . S
C1467 C1461 1.429 . S
C1467 C1468 1.523 . S
C1468 C1449 1.368 . S
C1468 C1462 1.368 . S
C1468 C1467 1.523 . S
C1469 C1453 1.429 . S
C1469 C1465 1.429 . S
C1469 C1470 1.523 . S
C1470 C1454 1.368 . S
C1470 C1466 1.368 . S
C1470 C1469 1.523 . S
H1471 C1446 0.950 . S
H1472 C1448 0.950 . S
H1473 C1449 0.949 . S
H1474 C1451 0.950 . S
H1475 C1453 0.950 . S
C1476 C1477 1.349 . S
C1476 C1478 1.327 . S
C1476 H1501 0.950 . S
C1477 C1476 1.349 . S
C1477 C1493 1.349 . S
C1478 C1476 1.327 . S
C1478 C1497 1.429 . S
C1478 H1502 0.950 . S
C1479 C1496 1.574 . S
C1479 C1498 1.368 . S
C1479 H1503 0.949 . S
H1480 C1484 0.949 . S
C1481 C1482 1.349 . S
C1481 C1483 1.327 . S
C1481 H1504 0.950 . S
C1482 C1481 1.349 . S
C1482 C1494 1.349 . S
C1483 C1481 1.327 . S
C1483 C1499 1.429 . S
C1483 H1505 0.950 . S
C1484 H1480 0.949 . S
C1484 C1492 1.574 . S
C1484 C1500 1.368 . S
H1485 C1493 0.950 . S
H1486 C1491 0.950 . S
H1487 C1492 0.949 . S
H1488 C1494 0.950 . S
H1489 C1495 0.950 . S
H1490 C1496 0.949 . S
C1491 H1486 0.950 . S
C1491 C1493 1.327 . S
C1491 C1497 1.429 . S
C1492 C1484 1.574 . S
C1492 H1487 0.949 . S
C1492 C1498 1.368 . S
C1493 C1477 1.349 . S
C1493 H1485 0.950 . S
C1493 C1491 1.327 . S
C1494 C1482 1.349 . S
C1494 H1488 0.950 . S
C1494 C1495 1.327 . S
C1495 H1489 0.950 . S
C1495 C1494 1.327 . S
C1495 C1499 1.429 . S
C1496 C1479 1.574 . S
C1496 H1490 0.949 . S
C1496 C1500 1.368 . S
C1497 C1478 1.429 . S
C1497 C1491 1.429 . S
C1497 C1498 1.523 . S
C1498 C1479 1.368 . S
C1498 C1492 1.368 . S
C1498 C1497 1.523 . S
C1499 C1483 1.429 . S
C1499 C1495 1.429 . S
C1499 C1500 1.523 . S
C1500 C1484 1.368 . S
C1500 C1496 1.368 . S
C1500 C1499 1.523 . S
H1501 C1476 0.950 . S
H1502 C1478 0.950 . S
H1503 C1479 0.949 . S
H1504 C1481 0.950 . S
H1505 C1483 0.950 . S
C1506 C1507 1.349 . S
C1506 C1508 1.327 . S
C1506 H1531 0.950 . S
C1507 C1506 1.349 . S
C1507 C1523 1.349 . S
C1508 C1506 1.327 . S
C1508 C1527 1.429 . S
C1508 H1532 0.950 . S
C1509 C1526 1.574 . S
C1509 C1528 1.368 . S
C1509 H1533 0.949 . S
H1510 C1514 0.949 . S
C1511 C1512 1.349 . S
C1511 C1513 1.327 . S
C1511 H1534 0.950 . S
C1512 C1511 1.349 . S
C1512 C1524 1.349 . S
C1513 C1511 1.327 . S
C1513 C1529 1.429 . S
C1513 H1535 0.950 . S
C1514 H1510 0.949 . S
C1514 C1522 1.574 . S
C1514 C1530 1.368 . S
H1515 C1523 0.950 . S
H1516 C1521 0.950 . S
H1517 C1522 0.949 . S
H1518 C1524 0.950 . S
H1519 C1525 0.950 . S
H1520 C1526 0.949 . S
C1521 H1516 0.950 . S
C1521 C1523 1.327 . S
C1521 C1527 1.429 . S
C1522 C1514 1.574 . S
C1522 H1517 0.949 . S
C1522 C1528 1.368 . S
C1523 C1507 1.349 . S
C1523 H1515 0.950 . S
C1523 C1521 1.327 . S
C1524 C1512 1.349 . S
C1524 H1518 0.950 . S
C1524 C1525 1.327 . S
C1525 H1519 0.950 . S
C1525 C1524 1.327 . S
C1525 C1529 1.429 . S
C1526 C1509 1.574 . S
C1526 H1520 0.949 . S
C1526 C1530 1.368 . S
C1527 C1508 1.429 . S
C1527 C1521 1.429 . S
C1527 C1528 1.523 . S
C1528 C1509 1.368 . S
C1528 C1522 1.368 . S
C1528 C1527 1.523 . S
C1529 C1513 1.429 . S
C1529 C1525 1.429 . S
C1529 C1530 1.523 . S
C1530 C1514 1.368 . S
C1530 C1526 1.368 . S
C1530 C1529 1.523 . S
H1531 C1506 0.950 . S
H1532 C1508 0.950 . S
H1533 C1509 0.949 . S
H1534 C1511 0.950 . S
H1535 C1513 0.950 . S
C817 C391 2.163 . S
C822 C555 2.115 . S
C852 C639 2.149 . S
C847 C451 2.194 . S
C882 C715 2.111 . S
C877 C241 2.050 . S
C912 C799 2.087 . S
C907 C331 2.027 . S
C942 C546 2.115 1_565 S
C937 C121 1.955 . S
C967 C211 2.133 . S
C972 C630 2.149 . S
C997 C31 2.262 . S
C1002 C704 2.110 . S
C1027 C91 2.095 . S
C1032 C788 2.087 . S
C1062 C543 0.427 1_455 S
C1057 C301 0.581 . S
C1092 C627 0.401 1_545 S
C1087 C380 0.325 . S
C1122 C720 0.444 . S
C1117 C440 0.295 . S
C1147 C260 0.595 . S
C1152 C804 0.452 . S
C1177 C61 0.474 . S
C1182 C552 0.427 . S
C1212 C636 0.401 . S
C1207 C140 0.447 . S
C1242 C711 0.444 . S
C1237 C200 0.481 . S
C1267 C20 0.498 . S
C1272 C795 0.452 . S
C1297 C320 2.682 . S
C1302 C536 2.702 . S
C1327 C361 2.383 . S
C1332 C620 2.655 . S
C1362 C714 2.663 . S
C1357 C421 2.263 . S
C1392 C798 2.703 . S
C1387 C271 2.543 . S
C1417 C80 2.739 . S
C1422 C547 2.701 . S
C1452 C631 2.655 . S
C1447 C151 2.692 . S
C1482 C723 2.663 . S
C1477 C181 2.198 . S
C1507 C1 2.234 . S
C1512 C807 2.703 . S
