# Generated by pormake.
# Topology rtl, (3,6)-cn, num edge types: 1
# Building blocks:
#     Node 0, Type 0, BuildingBlock: BELTOD_clean_linker_0, # of connection points: 3
#     Node 1, Type 0, BuildingBlock: BELTOD_clean_linker_0, # of connection points: 3
#     Node 2, Type 0, BuildingBlock: BELTOD_clean_linker_0, # of connection points: 3
#     Node 3, Type 0, BuildingBlock: BELTOD_clean_linker_0, # of connection points: 3
#     Node 4, Type 1, BuildingBlock: KUMBOL_clean_sbu_1, # of connection points: 6
#     Node 5, Type 1, BuildingBlock: KUMBOL_clean_sbu_1, # of connection points: 6
#     Edge 6, Type (0, 1), BuildingBlock: TEMPAE_clean_linker_10, # of connection points: 2
#     Edge 7, Type (0, 1), BuildingBlock: TEMPAE_clean_linker_10, # of connection points: 2
#     Edge 8, Type (0, 1), BuildingBlock: TEMPAE_clean_linker_10, # of connection points: 2
#     Edge 9, Type (0, 1), BuildingBlock: TEMPAE_clean_linker_10, # of connection points: 2
#     Edge 10, Type (0, 1), BuildingBlock: TEMPAE_clean_linker_10, # of connection points: 2
#     Edge 11, Type (0, 1), BuildingBlock: TEMPAE_clean_linker_10, # of connection points: 2
#     Edge 12, Type (0, 1), BuildingBlock: TEMPAE_clean_linker_10, # of connection points: 2
#     Edge 13, Type (0, 1), BuildingBlock: TEMPAE_clean_linker_10, # of connection points: 2
#     Edge 14, Type (0, 1), BuildingBlock: TEMPAE_clean_linker_10, # of connection points: 2
#     Edge 15, Type (0, 1), BuildingBlock: TEMPAE_clean_linker_10, # of connection points: 2
#     Edge 16, Type (0, 1), BuildingBlock: TEMPAE_clean_linker_10, # of connection points: 2
#     Edge 17, Type (0, 1), BuildingBlock: TEMPAE_clean_linker_10, # of connection points: 2
# Relax obj value: 0.019
# Max RMSD: 0.098
# Mean RMSD: 0.063
data_MOF--net-rtl--node1-KUMBOL_clean_sbu_1--node2-BELTOD_clean_linker_0--edge1-TEMPAE_clean_linker_10
_symmetry_space_group_name_H-M    P1
_symmetry_Int_Tables_number       1
_symmetry_cell_setting            triclinic
loop_
_symmetry_equiv_pos_as_xyz
'x, y, z'
_cell_length_a     37.709494
_cell_length_b     38.268813
_cell_length_c     33.123886
_cell_angle_alpha  78.710765
_cell_angle_beta   99.877612
_cell_angle_gamma 90.449502
loop_
_atom_site_label
_atom_site_type_symbol
_atom_site_fract_x
_atom_site_fract_y
_atom_site_fract_z
_atom_type_partial_charge
P0 P 0.26383 0.89541 0.01886 0.0
H1 H 0.27652 0.93559 0.08639 0.0
H2 H 0.24361 0.94109 0.14202 0.0
H3 H 0.16838 0.86323 0.10278 0.0
H4 H 0.2002 0.85999 0.04528 0.0
H5 H 0.32311 0.87655 0.98131 0.0
H6 H 0.35174 0.81964 0.9809 0.0
H7 H 0.28677 0.7661 0.06863 0.0
H8 H 0.25787 0.82293 0.06829 0.0
H9 H 0.21544 0.95497 0.97572 0.0
H10 H 0.24092 0.85028 0.95663 0.0
O11 O 0.29278 0.9286 0.01472 0.0
H12 H 0.17454 0.96643 0.90821 0.0
H13 H 0.20052 0.8617 0.88948 0.0
C14 C 0.24079 0.89737 0.06173 0.0
C15 C 0.25291 0.91974 0.08973 0.0
C16 C 0.23417 0.92257 0.12191 0.0
C17 C 0.2032 0.90257 0.12723 0.0
C18 C 0.19164 0.87959 0.09939 0.0
C19 C 0.21003 0.87736 0.0667 0.0
C20 C 0.28871 0.85414 0.02523 0.0
C21 C 0.31556 0.85264 0.0011 0.0
C22 C 0.33186 0.82007 1.00084 0.0
C23 C 0.32145 0.7883 0.02462 0.0
C24 C 0.29504 0.79003 0.04951 0.0
C25 C 0.2787 0.82266 0.04965 0.0
C26 C 0.2316 0.90205 0.97101 0.0
C27 C 0.21207 0.93441 0.95717 0.0
C28 C 0.18865 0.94086 0.91875 0.0
C29 C 0.18464 0.91503 0.89349 0.0
C30 C 0.20353 0.88225 0.90804 0.0
C31 C 0.22666 0.87573 0.94656 0.0
P32 P 0.72033 0.65431 0.63779 0.0
H33 H 0.74561 0.62183 0.57512 0.0
H34 H 0.71601 0.60864 0.50847 0.0
H35 H 0.61753 0.65861 0.52214 0.0
H36 H 0.64744 0.67147 0.58924 0.0
H37 H 0.78368 0.6792 0.68657 0.0
H38 H 0.81879 0.73307 0.67505 0.0
H39 H 0.74239 0.77504 0.56322 0.0
H40 H 0.70691 0.72148 0.57565 0.0
H41 H 0.66148 0.60658 0.65223 0.0
H42 H 0.7129 0.69225 0.70542 0.0
O43 O 0.75149 0.62194 0.6575 0.0
H44 H 0.62444 0.59559 0.70674 0.0
H45 H 0.67584 0.68128 0.76031 0.0
C46 C 0.69841 0.64669 0.5876 0.0
C47 C 0.71765 0.62994 0.56379 0.0
C48 C 0.70077 0.62272 0.52548 0.0
C49 C 0.66433 0.63238 0.51012 0.0
C50 C 0.64546 0.65033 0.53346 0.0
C51 C 0.66249 0.65768 0.57177 0.0
C52 C 0.74312 0.69605 0.63154 0.0
C53 C 0.77433 0.70016 0.65979 0.0
C54 C 0.79447 0.73088 0.65303 0.0
C55 C 0.78373 0.75813 0.61783 0.0
C56 C 0.75138 0.75464 0.5907 0.0
C57 C 0.73117 0.72388 0.59762 0.0
C58 C 0.68933 0.65081 0.67407 0.0
C59 C 0.66413 0.62368 0.675 0.0
C60 C 0.64296 0.61738 0.70624 0.0
C61 C 0.64707 0.63769 0.73774 0.0
C62 C 0.67213 0.66515 0.73652 0.0
C63 C 0.69314 0.67161 0.70495 0.0
P64 P 0.83811 0.21355 0.03973 0.0
H65 H 0.86383 0.23962 0.96184 0.0
H66 H 0.86809 0.21296 0.90176 0.0
H67 H 0.81077 0.12159 0.95383 0.0
H68 H 0.80631 0.14882 0.01411 0.0
H69 H 0.82923 0.2762 0.07456 0.0
H70 H 0.77741 0.31388 0.07391 0.0
H71 H 0.71042 0.25209 0.99584 0.0
H72 H 0.76236 0.21322 0.9987 0.0
H73 H 0.87091 0.14135 0.06217 0.0
H74 H 0.81925 0.21227 0.122 0.0
O75 O 0.87488 0.23803 0.0441 0.0
H76 H 0.8836 0.09848 0.12796 0.0
H77 H 0.83444 0.17131 0.18829 0.0
C78 C 0.83593 0.19559 0.99305 0.0
C79 C 0.8518 0.21404 0.96018 0.0
C80 C 0.85392 0.19889 0.92562 0.0
C81 C 0.84006 0.165 0.92328 0.0
C82 C 0.82212 0.14752 0.95512 0.0
C83 C 0.81965 0.16298 0.98955 0.0
C84 C 0.79974 0.24231 0.03614 0.0
C85 C 0.80343 0.27091 0.05706 0.0
C86 C 0.77372 0.29258 0.05647 0.0
C87 C 0.73966 0.28636 0.03444 0.0
C88 C 0.7361 0.25751 0.01346 0.0
C89 C 0.76587 0.23547 0.01465 0.0
C90 C 0.84297 0.17961 0.08659 0.0
C91 C 0.86158 0.14745 0.08918 0.0
C92 C 0.86944 0.12315 0.1272 0.0
C93 C 0.86014 0.13121 0.16383 0.0
C94 C 0.84125 0.16347 0.16083 0.0
C95 C 0.83269 0.18727 0.12267 0.0
P96 P 0.36599 0.27155 0.48012 0.0
H97 H 0.34457 0.25401 0.56136 0.0
H98 H 0.34353 0.28699 0.61727 0.0
H99 H 0.38386 0.37928 0.54307 0.0
H100 H 0.38588 0.3458 0.48746 0.0
H101 H 0.35331 0.19907 0.46619 0.0
H102 H 0.30021 0.16203 0.46561 0.0
H103 H 0.23724 0.25077 0.48144 0.0
H104 H 0.29025 0.28791 0.48046 0.0
H105 H 0.40658 0.255 0.41884 0.0
H106 H 0.33661 0.3405 0.4284 0.0
O107 O 0.40109 0.24327 0.49879 0.0
H108 H 0.41651 0.28745 0.35065 0.0
H109 H 0.34749 0.37377 0.36037 0.0
C110 C 0.36398 0.29779 0.51949 0.0
C111 C 0.35285 0.28147 0.55683 0.0
C112 C 0.3525 0.30022 0.5889 0.0
C113 C 0.36334 0.33575 0.58432 0.0
C114 C 0.37482 0.35207 0.54706 0.0
C115 C 0.37571 0.33302 0.51514 0.0
C116 C 0.32585 0.24591 0.47442 0.0
C117 C 0.32798 0.21061 0.46915 0.0
C118 C 0.29763 0.18941 0.46909 0.0
C119 C 0.26455 0.20318 0.47427 0.0
C120 C 0.26218 0.23926 0.47728 0.0
C121 C 0.29254 0.2605 0.47702 0.0
C122 C 0.37199 0.29597 0.42946 0.0
C123 C 0.39357 0.28092 0.40644 0.0
C124 C 0.39903 0.29934 0.36731 0.0
C125 C 0.38306 0.33324 0.35048 0.0
C126 C 0.3605 0.34786 0.37297 0.0
C127 C 0.35446 0.32901 0.41186 0.0
C128 C 0.93911 0.10145 0.47593 0.0
C129 C 0.87944 0.08216 0.45048 0.0
C130 C 0.91282 0.07575 0.47782 0.0
C131 C 0.87328 0.11411 0.42077 0.0
C132 C 0.93301 0.13357 0.44615 0.0
C133 C 0.90001 0.13969 0.41853 0.0
N134 N 0.97121 0.0944 0.50221 0.0
C135 C 0.99798 0.11855 0.50123 0.0
C136 C 0.96051 0.15834 0.44461 0.0
C137 C 0.99309 0.15083 0.47237 0.0
Gd138 Gd 0.02847 0.95966 0.51435 0.0
Gd139 Gd 0.97758 0.03919 0.54837 0.0
N140 N 0.91978 0.04472 0.50649 0.0
C141 C 0.85296 0.05652 0.45426 0.0
C142 C 0.89288 0.02119 0.51254 0.0
C143 C 0.85951 0.02621 0.48593 0.0
H144 H 0.89626 0.99912 0.53861 0.0
H145 H 0.83859 0.00703 0.49041 0.0
H146 H 0.11004 0.99563 0.53935 0.0
H147 H 0.02299 0.11303 0.52297 0.0
H148 H 0.16498 0.98106 0.59167 0.0
H149 H 0.827 0.06042 0.43382 0.0
H150 H 0.84778 0.11943 0.39962 0.0
H151 H 0.97806 0.88741 0.52563 0.0
H152 H 0.95689 0.18329 0.42211 0.0
H153 H 0.01445 0.16989 0.47156 0.0
H154 H 0.14567 0.86374 0.66615 0.0
H155 H 0.89488 0.16414 0.39532 0.0
H156 H 0.0341 0.80868 0.62577 0.0
H157 H 0.98035 0.82797 0.57169 0.0
N158 N 0.02921 0.90194 0.55444 0.0
C159 C 0.05948 0.89152 0.58307 0.0
C160 C 0.00123 0.87947 0.54973 0.0
C161 C 0.03313 0.83484 0.6058 0.0
C162 C 0.00266 0.84568 0.57543 0.0
C163 C 0.0621 0.85776 0.60982 0.0
H164 H 0.09577 0.82225 0.66072 0.0
N165 N 0.08368 0.94807 0.561 0.0
C166 C 0.08755 0.91518 0.58638 0.0
C167 C 0.14681 0.92969 0.61868 0.0
C168 C 0.119 0.90537 0.61634 0.0
C169 C 0.11154 0.97102 0.56167 0.0
C170 C 0.14321 0.96247 0.5909 0.0
O171 O 0.98304 0.04332 0.48076 0.0
O172 O 0.97867 0.98569 0.47136 0.0
O173 O 0.0629 0.96374 0.4674 0.0
O174 O 0.02907 0.91825 0.47801 0.0
O175 O 0.95907 0.98233 0.56571 0.0
O176 O 0.9686 0.95545 0.51173 0.0
O177 O 0.02616 0.95637 0.58296 0.0
O178 O 0.02801 0.01461 0.59063 0.0
O179 O 0.94623 0.0377 0.59794 0.0
O180 O 0.97836 0.08332 0.58089 0.0
O181 O 0.04985 0.01566 0.49938 0.0
O182 O 0.0372 0.04598 0.54973 0.0
C183 C 0.97316 0.02002 0.45716 0.0
C184 C 0.95221 0.95735 0.54327 0.0
C185 C 0.03865 0.93947 0.40911 0.0
C186 C 0.05262 0.94074 0.33971 0.0
C187 C 0.99232 0.95645 0.34766 0.0
C188 C 0.00298 0.94998 0.39099 0.0
C189 C 0.01707 0.95219 0.32204 0.0
C190 C 0.06335 0.93439 0.38337 0.0
C191 C 0.05052 0.93523 0.45451 0.0
C192 C 0.1217 0.87173 0.64299 0.0
C193 C 0.09331 0.84805 0.63982 0.0
H194 H 0.17138 0.92317 0.64129 0.0
C195 C 0.03526 0.98065 0.60548 0.0
C196 C 0.05562 0.04171 0.52049 0.0
C197 C 0.97326 0.06603 0.65179 0.0
C198 C 0.96433 0.0728 0.72113 0.0
C199 C 0.02274 0.05347 0.71038 0.0
C200 C 0.00935 0.05592 0.66798 0.0
C201 C 0.00042 0.06172 0.73689 0.0
C202 C 0.95081 0.07448 0.67839 0.0
C203 C 0.9588 0.0674 0.60735 0.0
H204 H 0.96481 0.96469 0.33392 0.0
H205 H 0.98346 0.95316 0.4104 0.0
H206 H 0.00833 0.9572 0.28846 0.0
H207 H 0.09092 0.92607 0.39717 0.0
H208 H 0.05056 0.04541 0.72266 0.0
H209 H 0.02719 0.05014 0.64779 0.0
H210 H 0.01145 0.05951 0.76974 0.0
H211 H 0.92315 0.08307 0.66559 0.0
C212 C 0.59463 0.55578 0.03455 0.0
C213 C 0.58413 0.61919 0.00716 0.0
C214 C 0.57267 0.58607 0.02694 0.0
C215 C 0.61758 0.62116 0.99379 0.0
C216 C 0.62883 0.55794 0.02255 0.0
C217 C 0.63985 0.59058 0.00138 0.0
N218 N 0.58341 0.52474 0.05574 0.0
C219 C 0.60671 0.49615 0.06987 0.0
C220 C 0.65146 0.52752 0.03355 0.0
C221 C 0.64061 0.49671 0.05806 0.0
Gd222 Gd 0.45212 0.4819 0.99109 0.0
Gd223 Gd 0.52476 0.52616 0.07116 0.0
N224 N 0.54007 0.58315 0.03932 0.0
C225 C 0.56168 0.64935 0.00173 0.0
C226 C 0.51891 0.61267 0.0362 0.0
C227 C 0.52912 0.64613 0.01678 0.0
H228 H 0.49399 0.61022 0.04829 0.0
H229 H 0.51192 0.66939 0.0135 0.0
H230 H 0.49526 0.40398 0.99209 0.0
H231 H 0.59967 0.47315 0.09114 0.0
H232 H 0.49261 0.34066 0.02426 0.0
H233 H 0.56948 0.67528 0.98658 0.0
H234 H 0.62672 0.6463 0.97813 0.0
H235 H 0.3752 0.51988 0.99863 0.0
H236 H 0.67791 0.52804 0.02488 0.0
H237 H 0.65862 0.47363 0.06861 0.0
H238 H 0.38548 0.33369 0.08517 0.0
H239 H 0.66593 0.59267 0.99168 0.0
H240 H 0.31277 0.44034 0.0627 0.0
H241 H 0.31999 0.50283 0.02807 0.0
N242 N 0.39861 0.46768 0.01677 0.0
C243 C 0.39451 0.43295 0.03391 0.0
C244 C 0.37207 0.49257 0.0136 0.0
C245 C 0.33682 0.44763 0.04954 0.0
C246 C 0.34084 0.48297 0.03012 0.0
C247 C 0.36378 0.42207 0.05152 0.0
H248 H 0.33787 0.37742 0.08483 0.0
N249 N 0.45028 0.41987 0.01596 0.0
C250 C 0.4215 0.40845 0.03425 0.0
C251 C 0.44477 0.34779 0.04946 0.0
C252 C 0.41821 0.37219 0.05202 0.0
C253 C 0.47466 0.39573 0.01054 0.0
C254 C 0.47275 0.35954 0.02794 0.0
O255 O 0.51041 0.55144 0.00229 0.0
O256 O 0.50317 0.50358 0.97047 0.0
O257 O 0.4357 0.45525 0.93897 0.0
O258 O 0.421 0.51083 0.93295 0.0
O259 O 0.4666 0.54429 0.06122 0.0
O260 O 0.44118 0.53969 0.99343 0.0
O261 O 0.44416 0.48143 0.0574 0.0
O262 O 0.50127 0.47309 0.09478 0.0
O263 O 0.50988 0.54782 0.122 0.0
O264 O 0.56475 0.53053 0.12549 0.0
O265 O 0.51049 0.46321 0.00133 0.0
O266 O 0.53571 0.4683 0.06881 0.0
C267 C 0.51516 0.53559 0.97194 0.0
C268 C 0.4438 0.55522 0.02612 0.0
C269 C 0.38404 0.47716 0.88952 0.0
C270 C 0.35251 0.45654 0.82785 0.0
C271 C 0.31894 0.48208 0.87225 0.0
C272 C 0.351 0.4873 0.89832 0.0
C273 C 0.31959 0.46697 0.83719 0.0
C274 C 0.38461 0.46159 0.85461 0.0
C275 C 0.4186 0.4832 0.91515 0.0
C276 C 0.38822 0.36136 0.0709 0.0
C277 C 0.36104 0.38623 0.07058 0.0
H278 H 0.44325 0.3197 0.06271 0.0
C279 C 0.46666 0.46712 0.09126 0.0
C280 C 0.53446 0.45354 0.03577 0.0
C281 C 0.5428 0.52439 0.18866 0.0
C282 C 0.55693 0.52535 0.26317 0.0
C283 C 0.53266 0.47222 0.23966 0.0
C284 C 0.5317 0.48918 0.19819 0.0
C285 C 0.5451 0.49013 0.27201 0.0
C286 C 0.55542 0.54243 0.22114 0.0
C287 C 0.5417 0.5423 0.14499 0.0
H288 H 0.29348 0.4901 0.87901 0.0
H289 H 0.34995 0.49944 0.92498 0.0
H290 H 0.29437 0.46398 0.81709 0.0
H291 H 0.41026 0.45329 0.84848 0.0
H292 H 0.52393 0.44505 0.24678 0.0
H293 H 0.52252 0.47487 0.17352 0.0
H294 H 0.54538 0.47643 0.30394 0.0
H295 H 0.5647 0.56943 0.21364 0.0
C296 C 0.23848 0.14471 0.50218 0.0
C297 C 0.23324 0.17957 0.47861 0.0
C298 C 0.20931 0.12242 0.50798 0.0
C299 C 0.1739 0.13531 0.49007 0.0
C300 C 0.16833 0.17036 0.46606 0.0
C301 C 0.19806 0.19204 0.46052 0.0
C302 C 0.21636 0.08519 0.53378 0.0
C303 C 0.13094 0.18503 0.4465 0.0
C304 C 0.10154 0.06672 0.477 0.0
C305 C 0.08527 0.06633 0.51214 0.0
C306 C 0.13011 0.08934 0.46915 0.0
C307 C 0.14271 0.11218 0.49706 0.0
C308 C 0.1262 0.11217 0.53236 0.0
C309 C 0.09776 0.08919 0.53954 0.0
C310 C 0.14709 0.08849 0.43124 0.0
C311 C 0.13885 0.13615 0.56285 0.0
H312 H 0.26544 0.13502 0.51695 0.0
H313 H 0.19376 0.21876 0.44188 0.0
H314 H 0.20299 0.08213 0.56156 0.0
H315 H 0.20474 0.06533 0.51526 0.0
H316 H 0.24556 0.07886 0.54457 0.0
H317 H 0.13117 0.21275 0.42854 0.0
H318 H 0.11761 0.16795 0.42522 0.0
H319 H 0.11432 0.1847 0.47116 0.0
H320 H 0.09204 0.04923 0.45557 0.0
H321 H 0.08557 0.08893 0.56694 0.0
H322 H 0.17592 0.08027 0.44119 0.0
H323 H 0.14597 0.11553 0.41135 0.0
H324 H 0.13359 0.06983 0.41206 0.0
H325 H 0.16734 0.12944 0.57742 0.0
H326 H 0.12243 0.13374 0.58804 0.0
H327 H 0.13768 0.16435 0.54616 0.0
C328 C 0.37441 0.74983 0.02256 0.0
C329 C 0.33742 0.75342 0.02261 0.0
C330 C 0.38982 0.71705 0.02073 0.0
C331 C 0.36773 0.6871 0.01906 0.0
C332 C 0.33033 0.6906 0.01858 0.0
C333 C 0.31561 0.72374 0.0203 0.0
C334 C 0.42987 0.71429 0.02141 0.0
C335 C 0.30597 0.65923 0.01686 0.0
C336 C 0.40658 0.60841 0.98495 0.0
C337 C 0.42101 0.58705 0.02363 0.0
C338 C 0.38834 0.64078 0.98284 0.0
C339 C 0.38425 0.6517 0.0203 0.0
C340 C 0.3975 0.62947 0.05935 0.0
C341 C 0.41577 0.59749 0.06053 0.0
C342 C 0.37466 0.66389 0.94065 0.0
C343 C 0.39338 0.63997 0.09999 0.0
H344 H 0.39148 0.77254 0.02474 0.0
H345 H 0.28691 0.72647 0.01954 0.0
H346 H 0.44272 0.69555 0.05006 0.0
H347 H 0.43513 0.70341 0.99425 0.0
H348 H 0.44297 0.74046 0.02068 0.0
H349 H 0.27725 0.66671 0.01508 0.0
H350 H 0.30848 0.64754 0.98933 0.0
H351 H 0.31423 0.63813 0.04508 0.0
H352 H 0.4107 0.60053 0.95635 0.0
H353 H 0.42654 0.5809 0.09056 0.0
H354 H 0.38972 0.68903 0.93719 0.0
H355 H 0.34584 0.67125 0.93799 0.0
H356 H 0.37772 0.65048 0.91453 0.0
H357 H 0.40854 0.6645 0.10336 0.0
H358 H 0.4034 0.61873 0.12759 0.0
H359 H 0.36468 0.64607 0.10003 0.0
C360 C 0.84461 0.78365 0.61327 0.0
C361 C 0.80721 0.78903 0.6083 0.0
C362 C 0.86724 0.8121 0.60314 0.0
C363 C 0.85215 0.84686 0.58742 0.0
C364 C 0.81448 0.85261 0.5826 0.0
C365 C 0.79244 0.82362 0.5931 0.0
C366 C 0.90725 0.8048 0.60839 0.0
C367 C 0.79746 0.88933 0.56603 0.0
C368 C 0.91634 0.92337 0.59411 0.0
C369 C 0.92507 0.93053 0.55388 0.0
C370 C 0.89199 0.89675 0.60521 0.0
C371 C 0.87591 0.87694 0.5753 0.0
C372 C 0.88388 0.88476 0.53429 0.0
C373 C 0.90829 0.91153 0.52405 0.0
C374 C 0.88425 0.88914 0.64928 0.0
C375 C 0.86723 0.86431 0.50146 0.0
H376 H 0.85621 0.75694 0.62421 0.0
H377 H 0.76363 0.82805 0.58955 0.0
H378 H 0.91563 0.81018 0.5773 0.0
H379 H 0.92245 0.82282 0.62718 0.0
H380 H 0.915 0.77679 0.62378 0.0
H381 H 0.76783 0.88944 0.56474 0.0
H382 H 0.80936 0.90802 0.58603 0.0
H383 H 0.80312 0.89966 0.53413 0.0
H384 H 0.92921 0.93801 0.6173 0.0
H385 H 0.91455 0.91732 0.49271 0.0
H386 H 0.894 0.86176 0.66504 0.0
H387 H 0.8548 0.89034 0.64884 0.0
H388 H 0.89737 0.90823 0.66811 0.0
H389 H 0.87594 0.83584 0.51134 0.0
H390 H 0.87489 0.87482 0.47051 0.0
H391 H 0.83745 0.86543 0.49797 0.0
C392 C 0.67387 0.29568 0.03565 0.0
C393 C 0.70815 0.30985 0.03378 0.0
C394 C 0.64423 0.31759 0.0359 0.0
C395 C 0.64911 0.35443 0.03495 0.0
C396 C 0.68354 0.36892 0.03303 0.0
C397 C 0.71251 0.34656 0.03206 0.0
C398 C 0.60773 0.30134 0.03727 0.0
C399 C 0.68991 0.40802 0.03253 0.0
C400 C 0.57043 0.42057 0.998 0.0
C401 C 0.56247 0.42664 0.03593 0.0
C402 C 0.59786 0.39635 0.99727 0.0
C403 C 0.61818 0.37809 0.0354 0.0
C404 C 0.60988 0.38361 0.07383 0.0
C405 C 0.58181 0.40755 0.07363 0.0
C406 C 0.60563 0.39091 0.95565 0.0
C407 C 0.63125 0.36493 0.11513 0.0
H408 H 0.67023 0.26732 0.03758 0.0
H409 H 0.73865 0.35797 0.02978 0.0
H410 H 0.598 0.3051 0.06593 0.0
H411 H 0.58792 0.31503 0.01015 0.0
H412 H 0.60826 0.2724 0.03685 0.0
H413 H 0.71801 0.41536 0.02942 0.0
H414 H 0.67133 0.42467 0.00636 0.0
H415 H 0.68421 0.41466 0.06195 0.0
H416 H 0.55558 0.43521 0.9687 0.0
H417 H 0.57539 0.41175 0.10302 0.0
H418 H 0.60514 0.36213 0.95447 0.0
H419 H 0.633 0.40023 0.95176 0.0
H420 H 0.58594 0.40552 0.92894 0.0
H421 H 0.63085 0.33565 0.11729 0.0
H422 H 0.62069 0.37136 0.14221 0.0
H423 H 0.65978 0.37283 0.11735 0.0
C424 C 0.14488 0.90477 0.15404 0.0
C425 C 0.18261 0.90641 0.1609 0.0
C426 C 0.12506 0.9092 0.18496 0.0
C427 C 0.14323 0.91639 0.22342 0.0
C428 C 0.18123 0.91806 0.23073 0.0
C429 C 0.20047 0.9126 0.19964 0.0
C430 C 0.08457 0.90664 0.17622 0.0
C431 C 0.20152 0.92622 0.2711 0.0
C432 C 0.08611 0.96328 0.2816 0.0
C433 C 0.07815 0.93506 0.31228 0.0
C434 C 0.10843 0.95782 0.25348 0.0
C435 C 0.12224 0.92308 0.25545 0.0
C436 C 0.11458 0.89457 0.28681 0.0
C437 C 0.09291 0.90102 0.31523 0.0
C438 C 0.11669 0.98908 0.22118 0.0
C439 C 0.12812 0.85704 0.28936 0.0
H440 H 0.13059 0.9007 0.12411 0.0
H441 H 0.2296 0.91323 0.2058 0.0
H442 H 0.07545 0.88698 0.20147 0.0
H443 H 0.07182 0.93277 0.17574 0.0
H444 H 0.07475 0.89862 0.14586 0.0
H445 H 0.23109 0.92668 0.2719 0.0
H446 H 0.19233 0.95252 0.27539 0.0
H447 H 0.19582 0.90605 0.298 0.0
H448 H 0.07469 0.98962 0.27958 0.0
H449 H 0.0864 0.87921 0.33885 0.0
H450 H 0.10461 0.98519 0.18945 0.0
H451 H 0.14622 0.9909 0.22229 0.0
H452 H 0.10613 0.01474 0.22587 0.0
H453 H 0.11652 0.84768 0.26034 0.0
H454 H 0.12087 0.83813 0.31651 0.0
H455 H 0.15781 0.85639 0.29176 0.0
C456 C 0.59036 0.62018 0.76561 0.0
C457 C 0.62691 0.62842 0.77305 0.0
C458 C 0.57192 0.60784 0.79882 0.0
C459 C 0.59053 0.60341 0.84052 0.0
C460 C 0.62712 0.61279 0.84824 0.0
C461 C 0.64481 0.62538 0.81441 0.0
C462 C 0.53285 0.59834 0.78926 0.0
C463 C 0.64784 0.60868 0.8922 0.0
C464 C 0.53425 0.5905 0.92712 0.0
C465 C 0.53509 0.5533 0.93928 0.0
C466 C 0.55282 0.60737 0.89564 0.0
C467 C 0.57237 0.58643 0.87569 0.0
C468 C 0.57356 0.54882 0.88828 0.0
C469 C 0.55482 0.53273 0.91982 0.0
C470 C 0.55119 0.64751 0.88345 0.0
C471 C 0.59442 0.5255 0.86818 0.0
H472 H 0.57629 0.62291 0.7337 0.0
H473 H 0.67313 0.63146 0.82037 0.0
H474 H 0.53004 0.56925 0.79985 0.0
H475 H 0.51648 0.61212 0.80653 0.0
H476 H 0.52164 0.60556 0.75534 0.0
H477 H 0.67681 0.61454 0.89286 0.0
H478 H 0.63616 0.62717 0.90861 0.0
H479 H 0.64559 0.5812 0.90992 0.0
H480 H 0.51861 0.60638 0.94182 0.0
H481 H 0.55575 0.50394 0.92945 0.0
H482 H 0.54016 0.65589 0.84965 0.0
H483 H 0.57872 0.65803 0.88877 0.0
H484 H 0.53428 0.65985 0.90153 0.0
H485 H 0.58331 0.52919 0.83432 0.0
H486 H 0.59351 0.49677 0.88246 0.0
H487 H 0.62299 0.53339 0.87112 0.0
C488 C 0.90651 0.09035 0.21447 0.0
C489 C 0.87265 0.10789 0.20553 0.0
C490 C 0.92065 0.07211 0.25499 0.0
C491 C 0.90099 0.07224 0.28769 0.0
C492 C 0.86613 0.08828 0.27867 0.0
C493 C 0.85221 0.10548 0.23763 0.0
C494 C 0.95749 0.05425 0.26321 0.0
C495 C 0.84446 0.08982 0.31264 0.0
C496 C 0.93179 0.01077 0.3927 0.0
C497 C 0.95437 0.03304 0.41395 0.0
C498 C 0.9142 0.02306 0.35145 0.0
C499 C 0.91848 0.05873 0.33166 0.0
C500 C 0.94034 0.08161 0.35352 0.0
C501 C 0.95853 0.06828 0.3941 0.0
C502 C 0.89107 0.99795 0.32907 0.0
C503 C 0.94456 0.12021 0.33407 0.0
H504 H 0.9229 0.09217 0.19034 0.0
H505 H 0.82565 0.11806 0.23107 0.0
H506 H 0.97701 0.0692 0.28197 0.0
H507 H 0.95687 0.02677 0.28159 0.0
H508 H 0.96744 0.05297 0.23384 0.0
H509 H 0.81526 0.09405 0.29983 0.0
H510 H 0.84827 0.06526 0.33723 0.0
H511 H 0.8536 0.11258 0.32763 0.0
H512 H 0.92777 0.98376 0.40833 0.0
H513 H 0.97616 0.08553 0.41027 0.0
H514 H 0.90004 0.99678 0.29914 0.0
H515 H 0.86271 0.00799 0.32134 0.0
H516 H 0.89202 0.97053 0.34811 0.0
H517 H 0.95713 0.12198 0.30584 0.0
H518 H 0.96138 0.13478 0.35598 0.0
H519 H 0.91771 0.13382 0.324 0.0
C520 C 0.37907 0.33982 0.65968 0.0
C521 C 0.36299 0.3553 0.61876 0.0
C522 C 0.37784 0.35722 0.693 0.0
C523 C 0.35954 0.39067 0.68533 0.0
C524 C 0.34344 0.40655 0.64398 0.0
C525 C 0.34565 0.3888 0.6111 0.0
C526 C 0.39595 0.33969 0.73647 0.0
C527 C 0.32326 0.44192 0.63463 0.0
C528 C 0.32723 0.41667 0.77836 0.0
C529 C 0.35356 0.44055 0.79039 0.0
C530 C 0.32842 0.40088 0.74371 0.0
C531 C 0.3569 0.4087 0.72077 0.0
C532 C 0.38341 0.43293 0.73249 0.0
C533 C 0.38125 0.44876 0.76686 0.0
C534 C 0.29945 0.3754 0.73199 0.0
C535 C 0.41437 0.44174 0.70907 0.0
H536 H 0.3928 0.31406 0.66556 0.0
H537 H 0.33296 0.40064 0.5795 0.0
H538 H 0.41572 0.35792 0.74962 0.0
H539 H 0.37566 0.33417 0.75735 0.0
H540 H 0.41014 0.31425 0.73691 0.0
H541 H 0.31264 0.45088 0.60075 0.0
H542 H 0.30038 0.43984 0.65196 0.0
H543 H 0.34114 0.46263 0.64541 0.0
H544 H 0.30598 0.40974 0.79652 0.0
H545 H 0.40133 0.4677 0.77523 0.0
H546 H 0.31153 0.3484 0.73552 0.0
H547 H 0.28678 0.384 0.69871 0.0
H548 H 0.27813 0.37358 0.7516 0.0
H549 H 0.43022 0.41709 0.71046 0.0
H550 H 0.43267 0.46128 0.72199 0.0
H551 H 0.404 0.45282 0.67563 0.0
C552 C 0.61179 0.60702 0.469 0.0
C553 C 0.6459 0.62215 0.47088 0.0
C554 C 0.59564 0.59385 0.43373 0.0
C555 C 0.61402 0.59588 0.39952 0.0
C556 C 0.64775 0.61249 0.4005 0.0
C557 C 0.6633 0.62539 0.43618 0.0
C558 C 0.55964 0.57632 0.43389 0.0
C559 C 0.66807 0.61543 0.36451 0.0
C560 C 0.59481 0.52534 0.3331 0.0
C561 C 0.57155 0.54378 0.29783 0.0
C562 C 0.60875 0.54203 0.3663 0.0
C563 C 0.59933 0.57816 0.36422 0.0
C564 C 0.57604 0.59706 0.32864 0.0
C565 C 0.56241 0.57963 0.29584 0.0
C566 C 0.63362 0.52098 0.40363 0.0
C567 C 0.56538 0.63559 0.32534 0.0
H568 H 0.59834 0.60412 0.49583 0.0
H569 H 0.6894 0.63757 0.43719 0.0
H570 H 0.5406 0.58766 0.40491 0.0
H571 H 0.56299 0.54741 0.43459 0.0
H572 H 0.54749 0.57955 0.46126 0.0
H573 H 0.69258 0.63153 0.36875 0.0
H574 H 0.67627 0.58841 0.36147 0.0
H575 H 0.6505 0.62769 0.33475 0.0
H576 H 0.60249 0.49782 0.33456 0.0
H577 H 0.54417 0.59395 0.26887 0.0
H578 H 0.6222 0.52048 0.43245 0.0
H579 H 0.66004 0.53398 0.40777 0.0
H580 H 0.63817 0.49306 0.40046 0.0
H581 H 0.55132 0.63819 0.35145 0.0
H582 H 0.54744 0.64666 0.29533 0.0
H583 H 0.58976 0.65196 0.32812 0.0
C584 C 0.86253 0.1121 0.90035 0.0
C585 C 0.84783 0.1469 0.8899 0.0
C586 C 0.87687 0.09711 0.87101 0.0
C587 C 0.87637 0.11743 0.83029 0.0
C588 C 0.85894 0.15144 0.81863 0.0
C589 C 0.84495 0.16582 0.84865 0.0
C590 C 0.89515 0.06074 0.88466 0.0
C591 C 0.85738 0.17375 0.77537 0.0
C592 C 0.95581 0.10468 0.77795 0.0
C593 C 0.94141 0.08379 0.74904 0.0
C594 C 0.93489 0.11554 0.80458 0.0
C595 C 0.89848 0.1055 0.80215 0.0
C596 C 0.88362 0.08452 0.77297 0.0
C597 C 0.9053 0.07387 0.74673 0.0
C598 C 0.95178 0.13797 0.83523 0.0
C599 C 0.84493 0.07334 0.76954 0.0
H600 H 0.86503 0.09743 0.93226 0.0
H601 H 0.83311 0.19254 0.84032 0.0
H602 H 0.88721 0.04421 0.86074 0.0
H603 H 0.92477 0.06369 0.88826 0.0
H604 H 0.88865 0.04637 0.91494 0.0
H605 H 0.83855 0.19709 0.76948 0.0
H606 H 0.88462 0.18364 0.77169 0.0
H607 H 0.84892 0.15753 0.75123 0.0
H608 H 0.98346 0.11302 0.77939 0.0
H609 H 0.8941 0.05745 0.72471 0.0
H610 H 0.94983 0.12444 0.86758 0.0
H611 H 0.93702 0.16396 0.829 0.0
H612 H 0.98058 0.14309 0.8335 0.0
H613 H 0.84033 0.05739 0.79987 0.0
H614 H 0.83736 0.0573 0.74496 0.0
H615 H 0.82674 0.09722 0.76228 0.0
C616 C 0.38796 0.33783 0.27512 0.0
C617 C 0.39126 0.35362 0.31035 0.0
C618 C 0.39809 0.35596 0.23783 0.0
C619 C 0.41258 0.39036 0.2361 0.0
C620 C 0.41549 0.4066 0.27144 0.0
C621 C 0.40446 0.38815 0.30803 0.0
C622 C 0.39377 0.33814 0.20049 0.0
C623 C 0.43138 0.44299 0.27108 0.0
C624 C 0.4747 0.4218 0.15792 0.0
C625 C 0.45248 0.44653 0.12748 0.0
C626 C 0.46202 0.40326 0.19336 0.0
C627 C 0.42595 0.40893 0.19792 0.0
C628 C 0.40308 0.43305 0.16658 0.0
C629 C 0.41677 0.45187 0.13202 0.0
C630 C 0.48735 0.37789 0.22614 0.0
C631 C 0.36423 0.43919 0.1697 0.0
H632 H 0.37754 0.31119 0.27685 0.0
H633 H 0.40739 0.40021 0.33539 0.0
H634 H 0.37792 0.35578 0.17277 0.0
H635 H 0.42054 0.33342 0.19267 0.0
H636 H 0.38016 0.31222 0.20615 0.0
H637 H 0.43065 0.45241 0.3006 0.0
H638 H 0.45978 0.44213 0.26643 0.0
H639 H 0.41657 0.46274 0.24463 0.0
H640 H 0.50219 0.41718 0.15422 0.0
H641 H 0.39958 0.47122 0.10882 0.0
H642 H 0.47726 0.3504 0.2285 0.0
H643 H 0.48851 0.3851 0.25719 0.0
H644 H 0.51509 0.37799 0.219 0.0
H645 H 0.34989 0.41365 0.17153 0.0
H646 H 0.34997 0.45873 0.14255 0.0
H647 H 0.36265 0.44903 0.1987 0.0
C648 C 0.1753 0.91537 0.81689 0.0
C649 C 0.16193 0.92272 0.85141 0.0
C650 C 0.15477 0.92357 0.77657 0.0
C651 C 0.11989 0.93914 0.77075 0.0
C652 C 0.106 0.9461 0.80558 0.0
C653 C 0.12731 0.938 0.84551 0.0
C654 C 0.17063 0.91618 0.74012 0.0
C655 C 0.06885 0.96258 0.80055 0.0
C656 C 0.08079 0.99368 0.66418 0.0
C657 C 0.05705 0.96974 0.6475 0.0
C658 C 0.10145 0.984 0.70424 0.0
C659 C 0.09848 0.94943 0.728 0.0
C660 C 0.07507 0.92487 0.71094 0.0
C661 C 0.05456 0.93536 0.67083 0.0
C662 C 0.12648 0.01079 0.72108 0.0
C663 C 0.07147 0.88764 0.73516 0.0
H664 H 0.20224 0.90396 0.8213 0.0
H665 H 0.11683 0.94344 0.87222 0.0
H666 H 0.15279 0.89858 0.72332 0.0
H667 H 0.1725 0.94144 0.71759 0.0
H668 H 0.19788 0.90333 0.75003 0.0
H669 H 0.06113 0.96412 0.83106 0.0
H670 H 0.06785 0.98991 0.78141 0.0
H671 H 0.04857 0.94691 0.78376 0.0
H672 H 0.08349 0.01997 0.64573 0.0
H673 H 0.03628 0.91678 0.65787 0.0
H674 H 0.15459 1.00006 0.72823 0.0
H675 H 0.11944 0.01567 0.7507 0.0
H676 H 0.12535 0.03667 0.6987 0.0
H677 H 0.09808 0.87352 0.74349 0.0
H678 H 0.0523 0.87172 0.71722 0.0
H679 H 0.06209 0.88893 0.76482 0.0
loop_
_geom_bond_atom_site_label_1
_geom_bond_atom_site_label_2
_geom_bond_distance
_geom_bond_site_symmetry_2
_ccdc_geom_bond_type
P0 O11 1.490 . S
P0 C14 1.812 . S
P0 C20 1.803 . S
P0 C26 1.819 1_554 S
H1 C15 0.941 . S
H2 C16 0.939 . S
H3 C18 0.940 . S
H4 C19 0.940 . S
H5 C21 0.939 . S
H6 C22 0.942 . S
H7 C24 0.940 . S
H8 C25 0.939 . S
H9 C27 0.941 . S
H10 C31 0.939 . S
O11 P0 1.490 . S
H12 C28 0.939 . S
H13 C30 0.940 . S
C14 P0 1.812 . S
C14 C15 1.389 . S
C14 C19 1.391 . S
C15 H1 0.941 . S
C15 C14 1.389 . S
C15 C16 1.397 . S
C16 H2 0.939 . S
C16 C15 1.397 . S
C16 C17 1.378 . S
C17 C16 1.378 . S
C17 C18 1.378 . S
C18 H3 0.940 . S
C18 C17 1.378 . S
C18 C19 1.396 . S
C19 H4 0.940 . S
C19 C14 1.391 . S
C19 C18 1.396 . S
C20 P0 1.803 . S
C20 C21 1.378 . S
C20 C25 1.400 . S
C21 H5 0.939 . S
C21 C20 1.378 . S
C21 C22 1.361 . S
C22 H6 0.942 . S
C22 C21 1.361 . S
C22 C23 1.369 . S
C23 C22 1.369 . S
C23 C24 1.404 . S
C24 H7 0.940 . S
C24 C23 1.404 . S
C24 C25 1.389 . S
C25 H8 0.939 . S
C25 C20 1.400 . S
C25 C24 1.389 . S
C26 P0 1.819 1_556 S
C26 C27 1.391 . S
C26 C31 1.391 . S
C27 H9 0.941 . S
C27 C26 1.391 . S
C27 C28 1.396 . S
C28 H12 0.939 . S
C28 C27 1.396 . S
C28 C29 1.397 . S
C29 C28 1.397 . S
C29 C30 1.385 . S
C30 H13 0.940 . S
C30 C29 1.385 . S
C30 C31 1.388 . S
C31 H10 0.939 . S
C31 C26 1.391 . S
C31 C30 1.388 . S
P32 O43 1.490 . S
P32 C46 1.812 . S
P32 C52 1.803 . S
P32 C58 1.819 . S
H33 C47 0.941 . S
H34 C48 0.939 . S
H35 C50 0.940 . S
H36 C51 0.940 . S
H37 C53 0.939 . S
H38 C54 0.942 . S
H39 C56 0.940 . S
H40 C57 0.939 . S
H41 C59 0.941 . S
H42 C63 0.939 . S
O43 P32 1.490 . S
H44 C60 0.939 . S
H45 C62 0.940 . S
C46 P32 1.812 . S
C46 C47 1.389 . S
C46 C51 1.391 . S
C47 H33 0.941 . S
C47 C46 1.389 . S
C47 C48 1.397 . S
C48 H34 0.939 . S
C48 C47 1.397 . S
C48 C49 1.378 . S
C49 C48 1.378 . S
C49 C50 1.378 . S
C50 H35 0.940 . S
C50 C49 1.378 . S
C50 C51 1.396 . S
C51 H36 0.940 . S
C51 C46 1.391 . S
C51 C50 1.396 . S
C52 P32 1.803 . S
C52 C53 1.378 . S
C52 C57 1.400 . S
C53 H37 0.939 . S
C53 C52 1.378 . S
C53 C54 1.361 . S
C54 H38 0.942 . S
C54 C53 1.361 . S
C54 C55 1.369 . S
C55 C54 1.369 . S
C55 C56 1.404 . S
C56 H39 0.940 . S
C56 C55 1.404 . S
C56 C57 1.389 . S
C57 H40 0.939 . S
C57 C52 1.400 . S
C57 C56 1.389 . S
C58 P32 1.819 . S
C58 C59 1.391 . S
C58 C63 1.391 . S
C59 H41 0.941 . S
C59 C58 1.391 . S
C59 C60 1.396 . S
C60 H44 0.939 . S
C60 C59 1.396 . S
C60 C61 1.397 . S
C61 C60 1.397 . S
C61 C62 1.385 . S
C62 H45 0.940 . S
C62 C61 1.385 . S
C62 C63 1.388 . S
C63 H42 0.939 . S
C63 C58 1.391 . S
C63 C62 1.388 . S
P64 O75 1.490 . S
P64 C78 1.812 . S
P64 C84 1.803 . S
P64 C90 1.819 . S
H65 C79 0.941 . S
H66 C80 0.939 . S
H67 C82 0.940 . S
H68 C83 0.940 . S
H69 C85 0.939 . S
H70 C86 0.942 . S
H71 C88 0.940 . S
H72 C89 0.939 . S
H73 C91 0.941 . S
H74 C95 0.939 . S
O75 P64 1.490 . S
H76 C92 0.939 . S
H77 C94 0.940 . S
C78 P64 1.812 . S
C78 C79 1.389 1_554 S
C78 C83 1.391 . S
C79 H65 0.941 . S
C79 C78 1.389 1_556 S
C79 C80 1.397 . S
C80 H66 0.939 . S
C80 C79 1.397 . S
C80 C81 1.378 . S
C81 C80 1.378 . S
C81 C82 1.378 . S
C82 H67 0.940 . S
C82 C81 1.378 . S
C82 C83 1.396 1_556 S
C83 H68 0.940 . S
C83 C78 1.391 . S
C83 C82 1.396 1_554 S
C84 P64 1.803 . S
C84 C85 1.378 . S
C84 C89 1.400 . S
C85 H69 0.939 . S
C85 C84 1.378 . S
C85 C86 1.361 . S
C86 H70 0.942 . S
C86 C85 1.361 . S
C86 C87 1.369 . S
C87 C86 1.369 . S
C87 C88 1.404 . S
C88 H71 0.940 . S
C88 C87 1.404 . S
C88 C89 1.389 . S
C89 H72 0.939 . S
C89 C84 1.400 . S
C89 C88 1.389 . S
C90 P64 1.819 . S
C90 C91 1.391 . S
C90 C95 1.391 . S
C91 H73 0.941 . S
C91 C90 1.391 . S
C91 C92 1.396 . S
C92 H76 0.939 . S
C92 C91 1.396 . S
C92 C93 1.397 . S
C93 C92 1.397 . S
C93 C94 1.385 . S
C94 H77 0.940 . S
C94 C93 1.385 . S
C94 C95 1.388 . S
C95 H74 0.939 . S
C95 C90 1.391 . S
C95 C94 1.388 . S
P96 O107 1.490 . S
P96 C110 1.812 . S
P96 C116 1.803 . S
P96 C122 1.819 . S
H97 C111 0.941 . S
H98 C112 0.939 . S
H99 C114 0.940 . S
H100 C115 0.940 . S
H101 C117 0.939 . S
H102 C118 0.942 . S
H103 C120 0.940 . S
H104 C121 0.939 . S
H105 C123 0.941 . S
H106 C127 0.939 . S
O107 P96 1.490 . S
H108 C124 0.939 . S
H109 C126 0.940 . S
C110 P96 1.812 . S
C110 C111 1.389 . S
C110 C115 1.391 . S
C111 H97 0.941 . S
C111 C110 1.389 . S
C111 C112 1.397 . S
C112 H98 0.939 . S
C112 C111 1.397 . S
C112 C113 1.378 . S
C113 C112 1.378 . S
C113 C114 1.378 . S
C114 H99 0.940 . S
C114 C113 1.378 . S
C114 C115 1.396 . S
C115 H100 0.940 . S
C115 C110 1.391 . S
C115 C114 1.396 . S
C116 P96 1.803 . S
C116 C117 1.378 . S
C116 C121 1.400 . S
C117 H101 0.939 . S
C117 C116 1.378 . S
C117 C118 1.361 . S
C118 H102 0.942 . S
C118 C117 1.361 . S
C118 C119 1.369 . S
C119 C118 1.369 . S
C119 C120 1.404 . S
C120 H103 0.940 . S
C120 C119 1.404 . S
C120 C121 1.389 . S
C121 H104 0.939 . S
C121 C116 1.400 . S
C121 C120 1.389 . S
C122 P96 1.819 . S
C122 C123 1.391 . S
C122 C127 1.391 . S
C123 H105 0.941 . S
C123 C122 1.391 . S
C123 C124 1.396 . S
C124 H108 0.939 . S
C124 C123 1.396 . S
C124 C125 1.397 . S
C125 C124 1.397 . S
C125 C126 1.385 . S
C126 H109 0.940 . S
C126 C125 1.385 . S
C126 C127 1.388 . S
C127 H106 0.939 . S
C127 C122 1.391 . S
C127 C126 1.388 . S
C128 C130 1.422 . S
C128 C132 1.415 . S
C128 N134 1.369 . S
C129 C130 1.421 . S
C129 C131 1.417 . S
C129 C141 1.422 . S
C130 C128 1.422 . S
C130 C129 1.421 . S
C130 N140 1.359 . S
C131 C129 1.417 . S
C131 C133 1.329 . S
C131 H150 0.930 . S
C132 C128 1.415 . S
C132 C133 1.437 . S
C132 C136 1.413 . S
C133 C131 1.329 . S
C133 C132 1.437 . S
C133 H155 0.929 . S
N134 C128 1.369 . S
N134 C135 1.320 1_655 S
N134 Gd139 2.622 . S
C135 N134 1.320 1_455 S
C135 C137 1.378 1_455 S
C135 H147 0.948 . S
C136 C132 1.413 . S
C136 C137 1.348 . S
C136 H152 0.931 . S
C137 C135 1.378 1_655 S
C137 C136 1.348 . S
C137 H153 0.930 1_655 S
Gd138 N158 2.622 . S
Gd138 N165 2.570 . S
Gd138 O172 2.347 1_465 S
Gd138 O173 2.468 . S
Gd138 O174 2.427 . S
Gd138 O176 2.388 1_455 S
Gd138 O177 2.386 . S
Gd138 O181 2.307 1_565 S
Gd138 C191 2.805 . S
Gd139 N134 2.622 . S
Gd139 N140 2.570 . S
Gd139 O171 2.386 . S
Gd139 O175 2.307 1_545 S
Gd139 O178 2.353 1_655 S
Gd139 O179 2.468 . S
Gd139 O180 2.427 . S
Gd139 O182 2.388 1_655 S
Gd139 C203 2.805 . S
N140 C130 1.359 . S
N140 Gd139 2.570 . S
N140 C142 1.343 . S
C141 C129 1.422 . S
C141 C143 1.321 . S
C141 H149 0.931 . S
C142 N140 1.343 . S
C142 C143 1.390 . S
C142 H144 0.931 . S
C143 C141 1.321 . S
C143 C142 1.390 . S
C143 H145 0.930 . S
H144 C142 0.931 . S
H145 C143 0.930 . S
H146 C169 0.931 . S
H147 C135 0.948 . S
H148 C170 0.930 . S
H149 C141 0.931 . S
H150 C131 0.930 . S
H151 C160 0.929 1_655 S
H152 C136 0.931 . S
H153 C137 0.930 1_455 S
H154 C192 0.930 . S
H155 C133 0.929 . S
H156 C161 0.931 . S
H157 C162 0.930 1_655 S
N158 Gd138 2.622 . S
N158 C159 1.369 . S
N158 C160 1.338 . S
C159 N158 1.369 . S
C159 C163 1.415 . S
C159 C166 1.422 . S
C160 H151 0.929 1_455 S
C160 N158 1.338 . S
C160 C162 1.378 . S
C161 H156 0.931 . S
C161 C162 1.348 . S
C161 C163 1.413 . S
C162 H157 0.930 1_455 S
C162 C160 1.378 . S
C162 C161 1.348 . S
C163 C159 1.415 . S
C163 C161 1.413 . S
C163 C193 1.437 . S
H164 C193 0.929 . S
N165 Gd138 2.570 . S
N165 C166 1.359 . S
N165 C169 1.343 . S
C166 C159 1.422 . S
C166 N165 1.359 . S
C166 C168 1.421 . S
C167 C168 1.422 . S
C167 C170 1.321 . S
C167 H194 0.931 . S
C168 C166 1.421 . S
C168 C167 1.422 . S
C168 C192 1.417 . S
C169 H146 0.931 . S
C169 N165 1.343 . S
C169 C170 1.390 . S
C170 H148 0.930 . S
C170 C167 1.321 . S
C170 C169 1.390 . S
O171 Gd139 2.386 . S
O171 C183 1.265 . S
O172 Gd138 2.347 1_645 S
O172 C183 1.251 . S
O173 Gd138 2.468 . S
O173 C191 1.263 . S
O174 Gd138 2.427 . S
O174 C191 1.252 . S
O175 Gd139 2.307 1_565 S
O175 C184 1.261 . S
O176 Gd138 2.388 1_655 S
O176 C184 1.252 . S
O177 Gd138 2.386 . S
O177 C195 1.265 . S
O178 Gd139 2.353 1_455 S
O178 C195 1.242 1_545 S
O179 Gd139 2.468 . S
O179 C203 1.263 . S
O180 Gd139 2.427 . S
O180 C203 1.252 . S
O181 Gd138 2.307 1_545 S
O181 C196 1.261 . S
O182 Gd139 2.388 1_455 S
O182 C196 1.252 . S
C183 O171 1.265 . S
C183 O172 1.251 . S
C184 O175 1.261 . S
C184 O176 1.252 . S
C185 C188 1.394 . S
C185 C190 1.370 . S
C185 C191 1.500 . S
C186 C189 1.383 . S
C186 C190 1.395 . S
C187 C188 1.396 . S
C187 C189 1.365 . S
C187 H204 0.929 . S
C188 C185 1.394 . S
C188 C187 1.396 . S
C188 H205 0.930 . S
C189 C186 1.383 . S
C189 C187 1.365 . S
C189 H206 0.931 . S
C190 C185 1.370 . S
C190 C186 1.395 . S
C190 H207 0.930 . S
C191 Gd138 2.805 . S
C191 O173 1.263 . S
C191 O174 1.252 . S
C191 C185 1.500 . S
C192 H154 0.930 . S
C192 C168 1.417 . S
C192 C193 1.329 . S
C193 C163 1.437 . S
C193 H164 0.929 . S
C193 C192 1.329 . S
H194 C167 0.931 . S
C195 O177 1.265 . S
C195 O178 1.242 1_565 S
C196 O181 1.261 . S
C196 O182 1.252 . S
C197 C200 1.394 . S
C197 C202 1.370 . S
C197 C203 1.500 . S
C198 C201 1.383 . S
C198 C202 1.395 . S
C199 C200 1.396 . S
C199 C201 1.365 . S
C199 H208 0.929 . S
C200 C197 1.394 . S
C200 C199 1.396 . S
C200 H209 0.930 . S
C201 C198 1.383 . S
C201 C199 1.365 . S
C201 H210 0.931 . S
C202 C197 1.370 . S
C202 C198 1.395 . S
C202 H211 0.930 . S
C203 Gd139 2.805 . S
C203 O179 1.263 . S
C203 O180 1.252 . S
C203 C197 1.500 . S
H204 C187 0.929 . S
H205 C188 0.930 . S
H206 C189 0.931 . S
H207 C190 0.930 . S
H208 C199 0.929 . S
H209 C200 0.930 . S
H210 C201 0.931 . S
H211 C202 0.930 . S
C212 C214 1.422 . S
C212 C216 1.415 . S
C212 N218 1.369 . S
C213 C214 1.421 . S
C213 C215 1.417 . S
C213 C225 1.422 . S
C214 C212 1.422 . S
C214 C213 1.421 . S
C214 N224 1.359 . S
C215 C213 1.417 . S
C215 C217 1.329 . S
C215 H234 0.930 . S
C216 C212 1.415 . S
C216 C217 1.437 . S
C216 C220 1.413 . S
C217 C215 1.329 . S
C217 C216 1.437 . S
C217 H239 0.929 . S
N218 C212 1.369 . S
N218 C219 1.338 . S
N218 Gd223 2.622 . S
C219 N218 1.338 . S
C219 C221 1.378 . S
C219 H231 0.929 . S
C220 C216 1.413 . S
C220 C221 1.348 . S
C220 H236 0.931 . S
C221 C219 1.378 . S
C221 C220 1.348 . S
C221 H237 0.930 . S
Gd222 N242 2.622 . S
Gd222 N249 2.570 1_556 S
Gd222 O256 2.353 . S
Gd222 O257 2.468 . S
Gd222 O258 2.427 . S
Gd222 O260 2.387 1_556 S
Gd222 O261 2.386 1_556 S
Gd222 O265 2.307 1_556 S
Gd222 C275 2.805 . S
Gd223 N218 2.622 . S
Gd223 N224 2.570 . S
Gd223 O255 2.367 1_554 S
Gd223 O259 2.307 . S
Gd223 O262 2.353 . S
Gd223 O263 2.468 . S
Gd223 O264 2.427 . S
Gd223 O266 2.388 . S
Gd223 C287 2.805 . S
N224 C214 1.359 . S
N224 Gd223 2.570 . S
N224 C226 1.343 . S
C225 C213 1.422 . S
C225 C227 1.321 . S
C225 H233 0.931 . S
C226 N224 1.343 . S
C226 C227 1.390 . S
C226 H228 0.931 . S
C227 C225 1.321 . S
C227 C226 1.390 . S
C227 H229 0.930 . S
H228 C226 0.931 . S
H229 C227 0.930 . S
H230 C253 0.931 . S
H231 C219 0.929 . S
H232 C254 0.930 . S
H233 C225 0.931 . S
H234 C215 0.930 . S
H235 C244 0.929 . S
H236 C220 0.931 . S
H237 C221 0.930 . S
H238 C276 0.930 . S
H239 C217 0.929 . S
H240 C245 0.931 . S
H241 C246 0.930 . S
N242 Gd222 2.622 . S
N242 C243 1.369 1_556 S
N242 C244 1.338 . S
C243 N242 1.369 1_554 S
C243 C247 1.415 . S
C243 C250 1.422 . S
C244 H235 0.929 . S
C244 N242 1.338 . S
C244 C246 1.378 . S
C245 H240 0.931 . S
C245 C246 1.348 1_554 S
C245 C247 1.413 . S
C246 H241 0.930 . S
C246 C244 1.378 . S
C246 C245 1.348 1_556 S
C247 C243 1.415 . S
C247 C245 1.413 . S
C247 C277 1.437 . S
H248 C277 0.929 . S
N249 Gd222 2.570 1_554 S
N249 C250 1.359 . S
N249 C253 1.343 . S
C250 C243 1.422 . S
C250 N249 1.359 . S
C250 C252 1.421 . S
C251 C252 1.422 . S
C251 C254 1.321 . S
C251 H278 0.931 . S
C252 C250 1.421 . S
C252 C251 1.422 . S
C252 C276 1.417 . S
C253 H230 0.931 . S
C253 N249 1.343 . S
C253 C254 1.390 . S
C254 H232 0.930 . S
C254 C251 1.321 . S
C254 C253 1.390 . S
O255 Gd223 2.367 1_556 S
O255 C267 1.280 . S
O256 Gd222 2.353 . S
O256 C267 1.242 . S
O257 Gd222 2.468 . S
O257 C275 1.263 . S
O258 Gd222 2.427 . S
O258 C275 1.252 . S
O259 Gd223 2.307 . S
O259 C268 1.261 . S
O260 Gd222 2.387 1_554 S
O260 C268 1.252 . S
O261 Gd222 2.386 1_554 S
O261 C279 1.265 . S
O262 Gd223 2.353 . S
O262 C279 1.242 . S
O263 Gd223 2.468 . S
O263 C287 1.263 . S
O264 Gd223 2.427 . S
O264 C287 1.252 . S
O265 Gd222 2.307 1_554 S
O265 C280 1.261 . S
O266 Gd223 2.388 . S
O266 C280 1.252 . S
C267 O255 1.280 . S
C267 O256 1.242 . S
C268 O259 1.261 . S
C268 O260 1.252 . S
C269 C272 1.394 . S
C269 C274 1.370 . S
C269 C275 1.500 . S
C270 C273 1.383 . S
C270 C274 1.395 . S
C271 C272 1.396 . S
C271 C273 1.365 . S
C271 H288 0.929 . S
C272 C269 1.394 . S
C272 C271 1.396 . S
C272 H289 0.930 . S
C273 C270 1.383 . S
C273 C271 1.365 . S
C273 H290 0.931 . S
C274 C269 1.370 . S
C274 C270 1.395 . S
C274 H291 0.930 . S
C275 Gd222 2.805 . S
C275 O257 1.263 . S
C275 O258 1.252 . S
C275 C269 1.500 . S
C276 H238 0.930 . S
C276 C252 1.417 . S
C276 C277 1.329 . S
C277 C247 1.437 . S
C277 H248 0.929 . S
C277 C276 1.329 . S
H278 C251 0.931 . S
C279 O261 1.265 . S
C279 O262 1.242 . S
C280 O265 1.261 . S
C280 O266 1.252 . S
C281 C284 1.394 . S
C281 C286 1.370 . S
C281 C287 1.500 . S
C282 C285 1.383 . S
C282 C286 1.395 . S
C283 C284 1.396 . S
C283 C285 1.365 . S
C283 H292 0.929 . S
C284 C281 1.394 . S
C284 C283 1.396 . S
C284 H293 0.930 . S
C285 C282 1.383 . S
C285 C283 1.365 . S
C285 H294 0.931 . S
C286 C281 1.370 . S
C286 C282 1.395 . S
C286 H295 0.930 . S
C287 Gd223 2.805 . S
C287 O263 1.263 . S
C287 O264 1.252 . S
C287 C281 1.500 . S
H288 C271 0.929 . S
H289 C272 0.930 . S
H290 C273 0.931 . S
H291 C274 0.930 . S
H292 C283 0.929 . S
H293 C284 0.930 . S
H294 C285 0.931 . S
H295 C286 0.930 . S
C296 C297 1.391 . S
C296 C298 1.394 . S
C296 H312 0.931 . S
C297 C296 1.391 . S
C297 C301 1.376 . S
C298 C296 1.394 . S
C298 C299 1.369 . S
C298 C302 1.531 . S
C299 C298 1.369 . S
C299 C300 1.410 . S
C299 C307 1.503 . S
C300 C299 1.410 . S
C300 C301 1.392 . S
C300 C303 1.511 . S
C301 C297 1.376 . S
C301 C300 1.392 . S
C301 H313 0.929 . S
C302 C298 1.531 . S
C302 H314 0.960 . S
C302 H315 0.962 . S
C302 H316 0.960 . S
C303 C300 1.511 . S
C303 H317 0.961 . S
C303 H318 0.961 . S
C303 H319 0.961 . S
C304 C305 1.370 . S
C304 C306 1.363 . S
C304 H320 0.931 . S
C305 C304 1.370 . S
C305 C309 1.408 . S
C306 C304 1.363 . S
C306 C307 1.370 . S
C306 C310 1.524 . S
C307 C299 1.503 . S
C307 C306 1.370 . S
C307 C308 1.403 . S
C308 C307 1.403 . S
C308 C309 1.404 . S
C308 C311 1.539 . S
C309 C305 1.408 . S
C309 C308 1.404 . S
C309 H321 0.930 . S
C310 C306 1.524 . S
C310 H322 0.956 . S
C310 H323 0.961 . S
C310 H324 0.961 . S
C311 C308 1.539 . S
C311 H325 0.958 . S
C311 H326 0.961 . S
C311 H327 0.960 . S
H312 C296 0.931 . S
H313 C301 0.929 . S
H314 C302 0.960 . S
H315 C302 0.962 . S
H316 C302 0.960 . S
H317 C303 0.961 . S
H318 C303 0.961 . S
H319 C303 0.961 . S
H320 C304 0.931 . S
H321 C309 0.930 . S
H322 C310 0.956 . S
H323 C310 0.961 . S
H324 C310 0.961 . S
H325 C311 0.958 . S
H326 C311 0.961 . S
H327 C311 0.960 . S
C328 C329 1.391 . S
C328 C330 1.394 . S
C328 H344 0.931 . S
C329 C328 1.391 . S
C329 C333 1.376 . S
C330 C328 1.394 . S
C330 C331 1.369 . S
C330 C334 1.531 . S
C331 C330 1.369 . S
C331 C332 1.410 . S
C331 C339 1.503 . S
C332 C331 1.410 . S
C332 C333 1.392 . S
C332 C335 1.511 1_554 S
C333 C329 1.376 . S
C333 C332 1.392 . S
C333 H345 0.929 . S
C334 C330 1.531 . S
C334 H346 0.960 . S
C334 H347 0.962 . S
C334 H348 0.960 . S
C335 C332 1.511 1_556 S
C335 H349 0.961 . S
C335 H350 0.961 . S
C335 H351 0.961 1_556 S
C336 C337 1.370 . S
C336 C338 1.363 . S
C336 H352 0.931 1_554 S
C337 C336 1.370 . S
C337 C341 1.408 . S
C338 C336 1.363 . S
C338 C339 1.370 . S
C338 C342 1.524 1_554 S
C339 C331 1.503 . S
C339 C338 1.370 . S
C339 C340 1.403 . S
C340 C339 1.403 . S
C340 C341 1.404 . S
C340 C343 1.539 . S
C341 C337 1.408 . S
C341 C340 1.404 . S
C341 H353 0.930 . S
C342 C338 1.524 1_556 S
C342 H354 0.956 . S
C342 H355 0.961 . S
C342 H356 0.961 . S
C343 C340 1.539 . S
C343 H357 0.958 . S
C343 H358 0.961 . S
C343 H359 0.960 . S
H344 C328 0.931 . S
H345 C333 0.929 . S
H346 C334 0.960 . S
H347 C334 0.962 . S
H348 C334 0.960 . S
H349 C335 0.961 . S
H350 C335 0.961 . S
H351 C335 0.961 1_554 S
H352 C336 0.931 1_556 S
H353 C341 0.930 . S
H354 C342 0.956 . S
H355 C342 0.961 . S
H356 C342 0.961 . S
H357 C343 0.958 . S
H358 C343 0.961 . S
H359 C343 0.960 . S
C360 C361 1.391 . S
C360 C362 1.394 . S
C360 H376 0.931 . S
C361 C360 1.391 . S
C361 C365 1.376 . S
C362 C360 1.394 . S
C362 C363 1.369 . S
C362 C366 1.531 . S
C363 C362 1.369 . S
C363 C364 1.410 . S
C363 C371 1.503 . S
C364 C363 1.410 . S
C364 C365 1.392 . S
C364 C367 1.511 . S
C365 C361 1.376 . S
C365 C364 1.392 . S
C365 H377 0.929 . S
C366 C362 1.531 . S
C366 H378 0.960 . S
C366 H379 0.962 . S
C366 H380 0.960 . S
C367 C364 1.511 . S
C367 H381 0.961 . S
C367 H382 0.961 . S
C367 H383 0.961 . S
C368 C369 1.370 . S
C368 C370 1.363 . S
C368 H384 0.931 . S
C369 C368 1.370 . S
C369 C373 1.408 . S
C370 C368 1.363 . S
C370 C371 1.370 . S
C370 C374 1.524 . S
C371 C363 1.503 . S
C371 C370 1.370 . S
C371 C372 1.403 . S
C372 C371 1.403 . S
C372 C373 1.404 . S
C372 C375 1.539 . S
C373 C369 1.408 . S
C373 C372 1.404 . S
C373 H385 0.930 . S
C374 C370 1.524 . S
C374 H386 0.956 . S
C374 H387 0.961 . S
C374 H388 0.961 . S
C375 C372 1.539 . S
C375 H389 0.958 . S
C375 H390 0.961 . S
C375 H391 0.960 . S
H376 C360 0.931 . S
H377 C365 0.929 . S
H378 C366 0.960 . S
H379 C366 0.962 . S
H380 C366 0.960 . S
H381 C367 0.961 . S
H382 C367 0.961 . S
H383 C367 0.961 . S
H384 C368 0.931 . S
H385 C373 0.930 . S
H386 C374 0.956 . S
H387 C374 0.961 . S
H388 C374 0.961 . S
H389 C375 0.958 . S
H390 C375 0.961 . S
H391 C375 0.960 . S
C392 C393 1.391 . S
C392 C394 1.394 . S
C392 H408 0.931 . S
C393 C392 1.391 . S
C393 C397 1.376 . S
C394 C392 1.394 . S
C394 C395 1.369 . S
C394 C398 1.531 . S
C395 C394 1.369 . S
C395 C396 1.410 . S
C395 C403 1.503 . S
C396 C395 1.410 . S
C396 C397 1.392 . S
C396 C399 1.511 . S
C397 C393 1.376 . S
C397 C396 1.392 . S
C397 H409 0.929 . S
C398 C394 1.531 . S
C398 H410 0.960 . S
C398 H411 0.962 . S
C398 H412 0.960 . S
C399 C396 1.511 . S
C399 H413 0.961 1_554 S
C399 H414 0.961 1_554 S
C399 H415 0.961 . S
C400 C401 1.370 . S
C400 C402 1.363 . S
C400 H416 0.931 1_554 S
C401 C400 1.370 . S
C401 C405 1.408 . S
C402 C400 1.363 . S
C402 C403 1.370 . S
C402 C406 1.524 1_554 S
C403 C395 1.503 . S
C403 C402 1.370 . S
C403 C404 1.403 . S
C404 C403 1.403 . S
C404 C405 1.404 . S
C404 C407 1.539 . S
C405 C401 1.408 . S
C405 C404 1.404 . S
C405 H417 0.930 . S
C406 C402 1.524 1_556 S
C406 H418 0.956 . S
C406 H419 0.961 . S
C406 H420 0.961 . S
C407 C404 1.539 . S
C407 H421 0.958 . S
C407 H422 0.961 . S
C407 H423 0.960 . S
H408 C392 0.931 . S
H409 C397 0.929 . S
H410 C398 0.960 . S
H411 C398 0.962 . S
H412 C398 0.960 . S
H413 C399 0.961 1_556 S
H414 C399 0.961 1_556 S
H415 C399 0.961 . S
H416 C400 0.931 1_556 S
H417 C405 0.930 . S
H418 C406 0.956 . S
H419 C406 0.961 . S
H420 C406 0.961 . S
H421 C407 0.958 . S
H422 C407 0.961 . S
H423 C407 0.960 . S
C424 C425 1.391 . S
C424 C426 1.394 . S
C424 H440 0.931 . S
C425 C424 1.391 . S
C425 C429 1.376 . S
C426 C424 1.394 . S
C426 C427 1.369 . S
C426 C430 1.531 . S
C427 C426 1.369 . S
C427 C428 1.410 . S
C427 C435 1.503 . S
C428 C427 1.410 . S
C428 C429 1.392 . S
C428 C431 1.511 . S
C429 C425 1.376 . S
C429 C428 1.392 . S
C429 H441 0.929 . S
C430 C426 1.531 . S
C430 H442 0.960 . S
C430 H443 0.962 . S
C430 H444 0.960 . S
C431 C428 1.511 . S
C431 H445 0.961 . S
C431 H446 0.961 . S
C431 H447 0.961 . S
C432 C433 1.370 . S
C432 C434 1.363 . S
C432 H448 0.931 1_565 S
C433 C432 1.370 . S
C433 C437 1.408 . S
C434 C432 1.363 . S
C434 C435 1.370 . S
C434 C438 1.524 . S
C435 C427 1.503 . S
C435 C434 1.370 . S
C435 C436 1.403 . S
C436 C435 1.403 . S
C436 C437 1.404 . S
C436 C439 1.539 . S
C437 C433 1.408 . S
C437 C436 1.404 . S
C437 H449 0.930 . S
C438 C434 1.524 . S
C438 H450 0.956 . S
C438 H451 0.961 . S
C438 H452 0.961 1_565 S
C439 C436 1.539 . S
C439 H453 0.958 . S
C439 H454 0.961 . S
C439 H455 0.960 . S
H440 C424 0.931 . S
H441 C429 0.929 . S
H442 C430 0.960 . S
H443 C430 0.962 . S
H444 C430 0.960 . S
H445 C431 0.961 . S
H446 C431 0.961 . S
H447 C431 0.961 . S
H448 C432 0.931 1_545 S
H449 C437 0.930 . S
H450 C438 0.956 . S
H451 C438 0.961 . S
H452 C438 0.961 1_545 S
H453 C439 0.958 . S
H454 C439 0.961 . S
H455 C439 0.960 . S
C456 C457 1.391 . S
C456 C458 1.394 . S
C456 H472 0.931 . S
C457 C456 1.391 . S
C457 C461 1.376 . S
C458 C456 1.394 . S
C458 C459 1.369 . S
C458 C462 1.531 . S
C459 C458 1.369 . S
C459 C460 1.410 . S
C459 C467 1.503 . S
C460 C459 1.410 . S
C460 C461 1.392 . S
C460 C463 1.511 . S
C461 C457 1.376 . S
C461 C460 1.392 . S
C461 H473 0.929 . S
C462 C458 1.531 . S
C462 H474 0.960 . S
C462 H475 0.962 . S
C462 H476 0.960 . S
C463 C460 1.511 . S
C463 H477 0.961 . S
C463 H478 0.961 . S
C463 H479 0.961 . S
C464 C465 1.370 . S
C464 C466 1.363 . S
C464 H480 0.931 . S
C465 C464 1.370 . S
C465 C469 1.408 . S
C466 C464 1.363 . S
C466 C467 1.370 . S
C466 C470 1.524 . S
C467 C459 1.503 . S
C467 C466 1.370 . S
C467 C468 1.403 . S
C468 C467 1.403 . S
C468 C469 1.404 . S
C468 C471 1.539 . S
C469 C465 1.408 . S
C469 C468 1.404 . S
C469 H481 0.930 . S
C470 C466 1.524 . S
C470 H482 0.956 . S
C470 H483 0.961 . S
C470 H484 0.961 . S
C471 C468 1.539 . S
C471 H485 0.958 . S
C471 H486 0.961 . S
C471 H487 0.960 . S
H472 C456 0.931 . S
H473 C461 0.929 . S
H474 C462 0.960 . S
H475 C462 0.962 . S
H476 C462 0.960 . S
H477 C463 0.961 . S
H478 C463 0.961 . S
H479 C463 0.961 . S
H480 C464 0.931 . S
H481 C469 0.930 . S
H482 C470 0.956 . S
H483 C470 0.961 . S
H484 C470 0.961 . S
H485 C471 0.958 . S
H486 C471 0.961 . S
H487 C471 0.960 . S
C488 C489 1.391 . S
C488 C490 1.394 . S
C488 H504 0.931 . S
C489 C488 1.391 . S
C489 C493 1.376 . S
C490 C488 1.394 . S
C490 C491 1.369 . S
C490 C494 1.531 . S
C491 C490 1.369 . S
C491 C492 1.410 . S
C491 C499 1.503 . S
C492 C491 1.410 . S
C492 C493 1.392 . S
C492 C495 1.511 . S
C493 C489 1.376 . S
C493 C492 1.392 . S
C493 H505 0.929 . S
C494 C490 1.531 . S
C494 H506 0.960 . S
C494 H507 0.962 . S
C494 H508 0.960 . S
C495 C492 1.511 . S
C495 H509 0.961 . S
C495 H510 0.961 . S
C495 H511 0.961 . S
C496 C497 1.370 . S
C496 C498 1.363 . S
C496 H512 0.931 1_545 S
C497 C496 1.370 . S
C497 C501 1.408 . S
C498 C496 1.363 . S
C498 C499 1.370 . S
C498 C502 1.524 1_545 S
C499 C491 1.503 . S
C499 C498 1.370 . S
C499 C500 1.403 . S
C500 C499 1.403 . S
C500 C501 1.404 . S
C500 C503 1.539 . S
C501 C497 1.408 . S
C501 C500 1.404 . S
C501 H513 0.930 . S
C502 C498 1.524 1_565 S
C502 H514 0.956 1_565 S
C502 H515 0.961 . S
C502 H516 0.961 . S
C503 C500 1.539 . S
C503 H517 0.958 . S
C503 H518 0.961 . S
C503 H519 0.960 . S
H504 C488 0.931 . S
H505 C493 0.929 . S
H506 C494 0.960 . S
H507 C494 0.962 . S
H508 C494 0.960 . S
H509 C495 0.961 . S
H510 C495 0.961 . S
H511 C495 0.961 . S
H512 C496 0.931 1_565 S
H513 C501 0.930 . S
H514 C502 0.956 1_545 S
H515 C502 0.961 . S
H516 C502 0.961 . S
H517 C503 0.958 . S
H518 C503 0.961 . S
H519 C503 0.960 . S
C520 C521 1.391 . S
C520 C522 1.394 . S
C520 H536 0.931 . S
C521 C520 1.391 . S
C521 C525 1.376 . S
C522 C520 1.394 . S
C522 C523 1.369 . S
C522 C526 1.531 . S
C523 C522 1.369 . S
C523 C524 1.410 . S
C523 C531 1.503 . S
C524 C523 1.410 . S
C524 C525 1.392 . S
C524 C527 1.511 . S
C525 C521 1.376 . S
C525 C524 1.392 . S
C525 H537 0.929 . S
C526 C522 1.531 . S
C526 H538 0.960 . S
C526 H539 0.962 . S
C526 H540 0.960 . S
C527 C524 1.511 . S
C527 H541 0.961 . S
C527 H542 0.961 . S
C527 H543 0.961 . S
C528 C529 1.370 . S
C528 C530 1.363 . S
C528 H544 0.931 . S
C529 C528 1.370 . S
C529 C533 1.408 . S
C530 C528 1.363 . S
C530 C531 1.370 . S
C530 C534 1.524 . S
C531 C523 1.503 . S
C531 C530 1.370 . S
C531 C532 1.403 . S
C532 C531 1.403 . S
C532 C533 1.404 . S
C532 C535 1.539 . S
C533 C529 1.408 . S
C533 C532 1.404 . S
C533 H545 0.930 . S
C534 C530 1.524 . S
C534 H546 0.956 . S
C534 H547 0.961 . S
C534 H548 0.961 . S
C535 C532 1.539 . S
C535 H549 0.958 . S
C535 H550 0.961 . S
C535 H551 0.960 . S
H536 C520 0.931 . S
H537 C525 0.929 . S
H538 C526 0.960 . S
H539 C526 0.962 . S
H540 C526 0.960 . S
H541 C527 0.961 . S
H542 C527 0.961 . S
H543 C527 0.961 . S
H544 C528 0.931 . S
H545 C533 0.930 . S
H546 C534 0.956 . S
H547 C534 0.961 . S
H548 C534 0.961 . S
H549 C535 0.958 . S
H550 C535 0.961 . S
H551 C535 0.960 . S
C552 C553 1.391 . S
C552 C554 1.394 . S
C552 H568 0.931 . S
C553 C552 1.391 . S
C553 C557 1.376 . S
C554 C552 1.394 . S
C554 C555 1.369 . S
C554 C558 1.531 . S
C555 C554 1.369 . S
C555 C556 1.410 . S
C555 C563 1.503 . S
C556 C555 1.410 . S
C556 C557 1.392 . S
C556 C559 1.511 . S
C557 C553 1.376 . S
C557 C556 1.392 . S
C557 H569 0.929 . S
C558 C554 1.531 . S
C558 H570 0.960 . S
C558 H571 0.962 . S
C558 H572 0.960 . S
C559 C556 1.511 . S
C559 H573 0.961 . S
C559 H574 0.961 . S
C559 H575 0.961 . S
C560 C561 1.370 . S
C560 C562 1.363 . S
C560 H576 0.931 . S
C561 C560 1.370 . S
C561 C565 1.408 . S
C562 C560 1.363 . S
C562 C563 1.370 . S
C562 C566 1.524 . S
C563 C555 1.503 . S
C563 C562 1.370 . S
C563 C564 1.403 . S
C564 C563 1.403 . S
C564 C565 1.404 . S
C564 C567 1.539 . S
C565 C561 1.408 . S
C565 C564 1.404 . S
C565 H577 0.930 . S
C566 C562 1.524 . S
C566 H578 0.956 . S
C566 H579 0.961 . S
C566 H580 0.961 . S
C567 C564 1.539 . S
C567 H581 0.958 . S
C567 H582 0.961 . S
C567 H583 0.960 . S
H568 C552 0.931 . S
H569 C557 0.929 . S
H570 C558 0.960 . S
H571 C558 0.962 . S
H572 C558 0.960 . S
H573 C559 0.961 . S
H574 C559 0.961 . S
H575 C559 0.961 . S
H576 C560 0.931 . S
H577 C565 0.930 . S
H578 C566 0.956 . S
H579 C566 0.961 . S
H580 C566 0.961 . S
H581 C567 0.958 . S
H582 C567 0.961 . S
H583 C567 0.960 . S
C584 C585 1.391 . S
C584 C586 1.394 . S
C584 H600 0.931 . S
C585 C584 1.391 . S
C585 C589 1.376 . S
C586 C584 1.394 . S
C586 C587 1.369 . S
C586 C590 1.531 . S
C587 C586 1.369 . S
C587 C588 1.410 . S
C587 C595 1.503 . S
C588 C587 1.410 . S
C588 C589 1.392 . S
C588 C591 1.511 . S
C589 C585 1.376 . S
C589 C588 1.392 . S
C589 H601 0.929 . S
C590 C586 1.531 . S
C590 H602 0.960 . S
C590 H603 0.962 . S
C590 H604 0.960 . S
C591 C588 1.511 . S
C591 H605 0.961 . S
C591 H606 0.961 . S
C591 H607 0.961 . S
C592 C593 1.370 . S
C592 C594 1.363 . S
C592 H608 0.931 . S
C593 C592 1.370 . S
C593 C597 1.408 . S
C594 C592 1.363 . S
C594 C595 1.370 . S
C594 C598 1.524 . S
C595 C587 1.503 . S
C595 C594 1.370 . S
C595 C596 1.403 . S
C596 C595 1.403 . S
C596 C597 1.404 . S
C596 C599 1.539 1_545 S
C597 C593 1.408 . S
C597 C596 1.404 . S
C597 H609 0.930 1_545 S
C598 C594 1.524 . S
C598 H610 0.956 . S
C598 H611 0.961 . S
C598 H612 0.961 . S
C599 C596 1.539 1_565 S
C599 H613 0.958 . S
C599 H614 0.961 . S
C599 H615 0.960 1_565 S
H600 C584 0.931 . S
H601 C589 0.929 . S
H602 C590 0.960 . S
H603 C590 0.962 . S
H604 C590 0.960 . S
H605 C591 0.961 . S
H606 C591 0.961 . S
H607 C591 0.961 . S
H608 C592 0.931 . S
H609 C597 0.930 1_565 S
H610 C598 0.956 . S
H611 C598 0.961 . S
H612 C598 0.961 . S
H613 C599 0.958 . S
H614 C599 0.961 . S
H615 C599 0.960 1_545 S
C616 C617 1.391 . S
C616 C618 1.394 . S
C616 H632 0.931 . S
C617 C616 1.391 . S
C617 C621 1.376 . S
C618 C616 1.394 . S
C618 C619 1.369 . S
C618 C622 1.531 . S
C619 C618 1.369 . S
C619 C620 1.410 . S
C619 C627 1.503 . S
C620 C619 1.410 . S
C620 C621 1.392 . S
C620 C623 1.511 . S
C621 C617 1.376 . S
C621 C620 1.392 . S
C621 H633 0.929 . S
C622 C618 1.531 . S
C622 H634 0.960 . S
C622 H635 0.962 . S
C622 H636 0.960 . S
C623 C620 1.511 . S
C623 H637 0.961 . S
C623 H638 0.961 . S
C623 H639 0.961 . S
C624 C625 1.370 . S
C624 C626 1.363 . S
C624 H640 0.931 . S
C625 C624 1.370 . S
C625 C629 1.408 . S
C626 C624 1.363 . S
C626 C627 1.370 . S
C626 C630 1.524 . S
C627 C619 1.503 . S
C627 C626 1.370 . S
C627 C628 1.403 . S
C628 C627 1.403 . S
C628 C629 1.404 . S
C628 C631 1.539 . S
C629 C625 1.408 . S
C629 C628 1.404 . S
C629 H641 0.930 . S
C630 C626 1.524 . S
C630 H642 0.956 . S
C630 H643 0.961 . S
C630 H644 0.961 . S
C631 C628 1.539 . S
C631 H645 0.958 . S
C631 H646 0.961 . S
C631 H647 0.960 . S
H632 C616 0.931 . S
H633 C621 0.929 . S
H634 C622 0.960 . S
H635 C622 0.962 . S
H636 C622 0.960 . S
H637 C623 0.961 . S
H638 C623 0.961 . S
H639 C623 0.961 . S
H640 C624 0.931 . S
H641 C629 0.930 . S
H642 C630 0.956 . S
H643 C630 0.961 . S
H644 C630 0.961 . S
H645 C631 0.958 . S
H646 C631 0.961 . S
H647 C631 0.960 . S
C648 C649 1.391 . S
C648 C650 1.394 . S
C648 H664 0.931 . S
C649 C648 1.391 . S
C649 C653 1.376 . S
C650 C648 1.394 . S
C650 C651 1.369 . S
C650 C654 1.531 . S
C651 C650 1.369 . S
C651 C652 1.410 . S
C651 C659 1.503 . S
C652 C651 1.410 . S
C652 C653 1.392 . S
C652 C655 1.511 . S
C653 C649 1.376 . S
C653 C652 1.392 . S
C653 H665 0.929 . S
C654 C650 1.531 . S
C654 H666 0.960 . S
C654 H667 0.962 . S
C654 H668 0.960 . S
C655 C652 1.511 . S
C655 H669 0.961 . S
C655 H670 0.961 . S
C655 H671 0.961 . S
C656 C657 1.370 . S
C656 C658 1.363 . S
C656 H672 0.931 1_565 S
C657 C656 1.370 . S
C657 C661 1.408 . S
C658 C656 1.363 . S
C658 C659 1.370 . S
C658 C662 1.524 1_565 S
C659 C651 1.503 . S
C659 C658 1.370 . S
C659 C660 1.403 . S
C660 C659 1.403 . S
C660 C661 1.404 . S
C660 C663 1.539 . S
C661 C657 1.408 . S
C661 C660 1.404 . S
C661 H673 0.930 . S
C662 C658 1.524 1_545 S
C662 H674 0.956 . S
C662 H675 0.961 . S
C662 H676 0.961 . S
C663 C660 1.539 . S
C663 H677 0.958 . S
C663 H678 0.961 . S
C663 H679 0.960 . S
H664 C648 0.931 . S
H665 C653 0.929 . S
H666 C654 0.960 . S
H667 C654 0.962 . S
H668 C654 0.960 . S
H669 C655 0.961 . S
H670 C655 0.961 . S
H671 C655 0.961 . S
H672 C656 0.931 1_545 S
H673 C661 0.930 . S
H674 C662 0.956 . S
H675 C662 0.961 . S
H676 C662 0.961 . S
H677 C663 0.958 . S
H678 C663 0.961 . S
H679 C663 0.960 . S
C305 C196 1.614 . S
C297 C119 1.603 . S
C329 C23 1.612 . S
C337 C268 1.597 . S
C361 C55 1.575 . S
C369 C184 1.616 . S
C393 C87 1.510 . S
C401 C280 1.586 . S
C433 C186 1.375 . S
C425 C17 1.544 . S
C465 C267 1.603 . S
C457 C61 1.515 . S
C489 C93 1.466 . S
C497 C183 1.597 . S
C521 C113 1.535 . S
C529 C270 1.383 . S
C561 C282 1.414 . S
C553 C49 1.518 . S
C593 C198 1.412 . S
C585 C81 1.520 . S
C625 C279 1.603 . S
C617 C125 1.598 . S
C649 C29 1.584 . S
C657 C195 1.597 . S
