# Generated by pormake.
# Topology eea, (3,6)-cn, num edge types: 1
# Building blocks:
#     Node 0, Type 0, BuildingBlock: CUQRIR_clean_linker_1, # of connection points: 3
#     Node 1, Type 0, BuildingBlock: CUQRIR_clean_linker_1, # of connection points: 3
#     Node 2, Type 0, BuildingBlock: CUQRIR_clean_linker_1, # of connection points: 3
#     Node 3, Type 0, BuildingBlock: CUQRIR_clean_linker_1, # of connection points: 3
#     Node 4, Type 0, BuildingBlock: CUQRIR_clean_linker_1, # of connection points: 3
#     Node 5, Type 0, BuildingBlock: CUQRIR_clean_linker_1, # of connection points: 3
#     Node 6, Type 0, BuildingBlock: CUQRIR_clean_linker_1, # of connection points: 3
#     Node 7, Type 0, BuildingBlock: CUQRIR_clean_linker_1, # of connection points: 3
#     Node 8, Type 0, BuildingBlock: CUQRIR_clean_linker_1, # of connection points: 3
#     Node 9, Type 0, BuildingBlock: CUQRIR_clean_linker_1, # of connection points: 3
#     Node 10, Type 0, BuildingBlock: CUQRIR_clean_linker_1, # of connection points: 3
#     Node 11, Type 0, BuildingBlock: CUQRIR_clean_linker_1, # of connection points: 3
#     Node 12, Type 0, BuildingBlock: CUQRIR_clean_linker_1, # of connection points: 3
#     Node 13, Type 0, BuildingBlock: CUQRIR_clean_linker_1, # of connection points: 3
#     Node 14, Type 0, BuildingBlock: CUQRIR_clean_linker_1, # of connection points: 3
#     Node 15, Type 0, BuildingBlock: CUQRIR_clean_linker_1, # of connection points: 3
#     Node 16, Type 0, BuildingBlock: CUQRIR_clean_linker_1, # of connection points: 3
#     Node 17, Type 0, BuildingBlock: CUQRIR_clean_linker_1, # of connection points: 3
#     Node 18, Type 1, BuildingBlock: NUHQIS_clean_sbu_0, # of connection points: 6
#     Node 19, Type 1, BuildingBlock: NUHQIS_clean_sbu_0, # of connection points: 6
#     Node 20, Type 1, BuildingBlock: NUHQIS_clean_sbu_0, # of connection points: 6
#     Node 21, Type 1, BuildingBlock: NUHQIS_clean_sbu_0, # of connection points: 6
#     Node 22, Type 1, BuildingBlock: NUHQIS_clean_sbu_0, # of connection points: 6
#     Node 23, Type 1, BuildingBlock: NUHQIS_clean_sbu_0, # of connection points: 6
#     Node 24, Type 1, BuildingBlock: NUHQIS_clean_sbu_0, # of connection points: 6
#     Node 25, Type 1, BuildingBlock: NUHQIS_clean_sbu_0, # of connection points: 6
#     Node 26, Type 1, BuildingBlock: NUHQIS_clean_sbu_0, # of connection points: 6
#     Edge 27, Type (0, 1), BuildingBlock: UVAHIK_clean_linker_0, # of connection points: 2
#     Edge 28, Type (0, 1), BuildingBlock: UVAHIK_clean_linker_0, # of connection points: 2
#     Edge 29, Type (0, 1), BuildingBlock: UVAHIK_clean_linker_0, # of connection points: 2
#     Edge 30, Type (0, 1), BuildingBlock: UVAHIK_clean_linker_0, # of connection points: 2
#     Edge 31, Type (0, 1), BuildingBlock: UVAHIK_clean_linker_0, # of connection points: 2
#     Edge 32, Type (0, 1), BuildingBlock: UVAHIK_clean_linker_0, # of connection points: 2
#     Edge 33, Type (0, 1), BuildingBlock: UVAHIK_clean_linker_0, # of connection points: 2
#     Edge 34, Type (0, 1), BuildingBlock: UVAHIK_clean_linker_0, # of connection points: 2
#     Edge 35, Type (0, 1), BuildingBlock: UVAHIK_clean_linker_0, # of connection points: 2
#     Edge 36, Type (0, 1), BuildingBlock: UVAHIK_clean_linker_0, # of connection points: 2
#     Edge 37, Type (0, 1), BuildingBlock: UVAHIK_clean_linker_0, # of connection points: 2
#     Edge 38, Type (0, 1), BuildingBlock: UVAHIK_clean_linker_0, # of connection points: 2
#     Edge 39, Type (0, 1), BuildingBlock: UVAHIK_clean_linker_0, # of connection points: 2
#     Edge 40, Type (0, 1), BuildingBlock: UVAHIK_clean_linker_0, # of connection points: 2
#     Edge 41, Type (0, 1), BuildingBlock: UVAHIK_clean_linker_0, # of connection points: 2
#     Edge 42, Type (0, 1), BuildingBlock: UVAHIK_clean_linker_0, # of connection points: 2
#     Edge 43, Type (0, 1), BuildingBlock: UVAHIK_clean_linker_0, # of connection points: 2
#     Edge 44, Type (0, 1), BuildingBlock: UVAHIK_clean_linker_0, # of connection points: 2
#     Edge 45, Type (0, 1), BuildingBlock: UVAHIK_clean_linker_0, # of connection points: 2
#     Edge 46, Type (0, 1), BuildingBlock: UVAHIK_clean_linker_0, # of connection points: 2
#     Edge 47, Type (0, 1), BuildingBlock: UVAHIK_clean_linker_0, # of connection points: 2
#     Edge 48, Type (0, 1), BuildingBlock: UVAHIK_clean_linker_0, # of connection points: 2
#     Edge 49, Type (0, 1), BuildingBlock: UVAHIK_clean_linker_0, # of connection points: 2
#     Edge 50, Type (0, 1), BuildingBlock: UVAHIK_clean_linker_0, # of connection points: 2
#     Edge 51, Type (0, 1), BuildingBlock: UVAHIK_clean_linker_0, # of connection points: 2
#     Edge 52, Type (0, 1), BuildingBlock: UVAHIK_clean_linker_0, # of connection points: 2
#     Edge 53, Type (0, 1), BuildingBlock: UVAHIK_clean_linker_0, # of connection points: 2
#     Edge 54, Type (0, 1), BuildingBlock: UVAHIK_clean_linker_0, # of connection points: 2
#     Edge 55, Type (0, 1), BuildingBlock: UVAHIK_clean_linker_0, # of connection points: 2
#     Edge 56, Type (0, 1), BuildingBlock: UVAHIK_clean_linker_0, # of connection points: 2
#     Edge 57, Type (0, 1), BuildingBlock: UVAHIK_clean_linker_0, # of connection points: 2
#     Edge 58, Type (0, 1), BuildingBlock: UVAHIK_clean_linker_0, # of connection points: 2
#     Edge 59, Type (0, 1), BuildingBlock: UVAHIK_clean_linker_0, # of connection points: 2
#     Edge 60, Type (0, 1), BuildingBlock: UVAHIK_clean_linker_0, # of connection points: 2
#     Edge 61, Type (0, 1), BuildingBlock: UVAHIK_clean_linker_0, # of connection points: 2
#     Edge 62, Type (0, 1), BuildingBlock: UVAHIK_clean_linker_0, # of connection points: 2
#     Edge 63, Type (0, 1), BuildingBlock: UVAHIK_clean_linker_0, # of connection points: 2
#     Edge 64, Type (0, 1), BuildingBlock: UVAHIK_clean_linker_0, # of connection points: 2
#     Edge 65, Type (0, 1), BuildingBlock: UVAHIK_clean_linker_0, # of connection points: 2
#     Edge 66, Type (0, 1), BuildingBlock: UVAHIK_clean_linker_0, # of connection points: 2
#     Edge 67, Type (0, 1), BuildingBlock: UVAHIK_clean_linker_0, # of connection points: 2
#     Edge 68, Type (0, 1), BuildingBlock: UVAHIK_clean_linker_0, # of connection points: 2
#     Edge 69, Type (0, 1), BuildingBlock: UVAHIK_clean_linker_0, # of connection points: 2
#     Edge 70, Type (0, 1), BuildingBlock: UVAHIK_clean_linker_0, # of connection points: 2
#     Edge 71, Type (0, 1), BuildingBlock: UVAHIK_clean_linker_0, # of connection points: 2
#     Edge 72, Type (0, 1), BuildingBlock: UVAHIK_clean_linker_0, # of connection points: 2
#     Edge 73, Type (0, 1), BuildingBlock: UVAHIK_clean_linker_0, # of connection points: 2
#     Edge 74, Type (0, 1), BuildingBlock: UVAHIK_clean_linker_0, # of connection points: 2
#     Edge 75, Type (0, 1), BuildingBlock: UVAHIK_clean_linker_0, # of connection points: 2
#     Edge 76, Type (0, 1), BuildingBlock: UVAHIK_clean_linker_0, # of connection points: 2
#     Edge 77, Type (0, 1), BuildingBlock: UVAHIK_clean_linker_0, # of connection points: 2
#     Edge 78, Type (0, 1), BuildingBlock: UVAHIK_clean_linker_0, # of connection points: 2
#     Edge 79, Type (0, 1), BuildingBlock: UVAHIK_clean_linker_0, # of connection points: 2
#     Edge 80, Type (0, 1), BuildingBlock: UVAHIK_clean_linker_0, # of connection points: 2
# Relax obj value: 0.103
# Max RMSD: 0.236
# Mean RMSD: 0.172
data_MOF--net-eea--node1-NUHQIS_clean_sbu_0--node2-CUQRIR_clean_linker_1--edge1-UVAHIK_clean_linker_0
_symmetry_space_group_name_H-M    P1
_symmetry_Int_Tables_number       1
_symmetry_cell_setting            triclinic
loop_
_symmetry_equiv_pos_as_xyz
'x, y, z'
_cell_length_a     64.463068
_cell_length_b     67.217653
_cell_length_c     83.113447
_cell_angle_alpha  87.352485
_cell_angle_beta   93.391121
_cell_angle_gamma 118.70145
loop_
_atom_site_label
_atom_site_type_symbol
_atom_site_fract_x
_atom_site_fract_y
_atom_site_fract_z
_atom_type_partial_charge
C0 C 0.22786 0.10633 0.39864 0.0
N1 N 0.23769 0.12451 0.40835 0.0
N2 N 0.23549 0.09132 0.40336 0.0
C3 C 0.21006 0.10279 0.38504 0.0
C4 C 0.25035 0.10105 0.41624 0.0
N5 N 0.2519 0.12137 0.41917 0.0
C6 C 0.26229 0.09017 0.42657 0.0
H7 H 0.19214 0.0949 0.38996 0.0
H8 H 0.2102 0.09135 0.37591 0.0
H9 H 0.21364 0.11924 0.37918 0.0
H10 H 0.28176 0.10081 0.4261 0.0
H11 H 0.25746 0.07294 0.42255 0.0
H12 H 0.25753 0.08929 0.4393 0.0
C13 C 0.90041 0.11578 0.40888 0.0
N14 N 0.91183 0.13333 0.41915 0.0
N15 N 0.88126 0.09856 0.41574 0.0
C16 C 0.90905 0.11458 0.3927 0.0
C17 C 0.88149 0.1062 0.43058 0.0
N18 N 0.90012 0.12716 0.43272 0.0
C19 C 0.86292 0.09358 0.44277 0.0
H20 H 0.90172 0.12212 0.38338 0.0
H21 H 0.90311 0.09675 0.38952 0.0
H22 H 0.92865 0.12424 0.39263 0.0
H23 H 0.86853 0.08313 0.4507 0.0
H24 H 0.8456 0.0822 0.43676 0.0
H25 H 0.86075 0.10545 0.45047 0.0
C26 C 0.90873 0.81451 0.42777 0.0
N27 N 0.92066 0.80568 0.43679 0.0
N28 N 0.88853 0.81016 0.43485 0.0
C29 C 0.91516 0.82469 0.41107 0.0
C30 C 0.88856 0.79822 0.44841 0.0
N31 N 0.90798 0.79541 0.44955 0.0
C32 C 0.86948 0.78899 0.4605 0.0
H33 H 0.92602 0.84337 0.41199 0.0
H34 H 0.89911 0.82095 0.40337 0.0
H35 H 0.92556 0.81815 0.40512 0.0
H36 H 0.85699 0.77098 0.45783 0.0
H37 H 0.85956 0.7987 0.46 0.0
H38 H 0.87727 0.78961 0.47286 0.0
C39 C 0.11793 0.25403 0.62476 0.0
N40 N 0.13513 0.26162 0.61392 0.0
N41 N 0.09813 0.25366 0.61801 0.0
C42 C 0.11949 0.24441 0.64125 0.0
C43 C 0.10378 0.26102 0.60264 0.0
N44 N 0.12622 0.26568 0.60012 0.0
C45 C 0.08774 0.26461 0.59036 0.0
H46 H 0.1313 0.23666 0.64146 0.0
H47 H 0.1018 0.23137 0.64513 0.0
H48 H 0.12687 0.25834 0.65004 0.0
H49 H 0.07482 0.26799 0.59631 0.0
H50 H 0.0778 0.24907 0.58314 0.0
H51 H 0.09816 0.27897 0.58204 0.0
C52 C 0.77066 0.88234 0.62215 0.0
N53 N 0.76617 0.86619 0.61126 0.0
N54 N 0.76987 0.90041 0.61481 0.0
C55 C 0.77512 0.88011 0.63996 0.0
C56 C 0.76494 0.89474 0.5991 0.0
N57 N 0.76293 0.87408 0.59693 0.0
C58 C 0.76178 0.90925 0.5859 0.0
H59 H 0.75795 0.86935 0.64561 0.0
H60 H 0.78371 0.89668 0.64599 0.0
H61 H 0.7863 0.87175 0.64211 0.0
H62 H 0.77235 0.92751 0.58873 0.0
H63 H 0.74282 0.90482 0.58473 0.0
H64 H 0.76701 0.90617 0.57417 0.0
C65 C 0.1063 0.90211 0.61176 0.0
N66 N 0.09642 0.88291 0.60301 0.0
N67 N 0.1281 0.91696 0.60653 0.0
C68 C 0.09477 0.90631 0.62547 0.0
C69 C 0.13112 0.90593 0.59436 0.0
N70 N 0.11197 0.88524 0.59231 0.0
C71 C 0.15271 0.91547 0.58437 0.0
H72 H 0.07522 0.89728 0.62385 0.0
H73 H 0.10093 0.92471 0.62663 0.0
H74 H 0.0996 0.89993 0.63684 0.0
H75 H 0.15617 0.90191 0.58032 0.0
H76 H 0.16863 0.92792 0.59125 0.0
H77 H 0.14971 0.92411 0.57349 0.0
C78 C 0.89882 0.44124 0.73142 0.0
N79 N 0.90737 0.45932 0.74124 0.0
N80 N 0.90595 0.42618 0.73705 0.0
C81 C 0.88307 0.43794 0.71658 0.0
C82 C 0.91928 0.43577 0.75053 0.0
N83 N 0.92037 0.45601 0.75297 0.0
C84 C 0.92997 0.42477 0.76191 0.0
H85 H 0.86433 0.42885 0.72003 0.0
H86 H 0.88549 0.42756 0.70765 0.0
H87 H 0.88672 0.45449 0.71088 0.0
H88 H 0.92802 0.40882 0.75709 0.0
H89 H 0.92132 0.42112 0.77364 0.0
H90 H 0.94907 0.43657 0.76418 0.0
C91 C 0.57049 0.44842 0.74292 0.0
N92 N 0.58124 0.46607 0.75314 0.0
N93 N 0.54907 0.43286 0.74825 0.0
C94 C 0.58063 0.44641 0.72761 0.0
C95 C 0.54712 0.44177 0.76201 0.0
N96 N 0.56655 0.46199 0.76493 0.0
C97 C 0.52631 0.43058 0.77272 0.0
H98 H 0.57444 0.45388 0.7175 0.0
H99 H 0.57444 0.42835 0.72496 0.0
H100 H 0.60022 0.45564 0.72823 0.0
H101 H 0.52998 0.42039 0.78221 0.0
H102 H 0.50993 0.41915 0.76575 0.0
H103 H 0.52336 0.44332 0.77874 0.0
C104 C 0.57507 0.14644 0.76129 0.0
N105 N 0.58719 0.13764 0.77012 0.0
N106 N 0.55478 0.14164 0.76843 0.0
C107 C 0.58145 0.15705 0.7447 0.0
C108 C 0.55494 0.12946 0.78182 0.0
N109 N 0.57454 0.12694 0.7828 0.0
C110 C 0.53586 0.11975 0.7939 0.0
H111 H 0.59211 0.17572 0.74584 0.0
H112 H 0.56538 0.15329 0.73702 0.0
H113 H 0.59204 0.15086 0.73859 0.0
H114 H 0.52355 0.10176 0.79106 0.0
H115 H 0.52573 0.12925 0.7936 0.0
H116 H 0.54366 0.1202 0.80624 0.0
C117 C 0.78543 0.58825 0.95928 0.0
N118 N 0.80199 0.59537 0.948 0.0
N119 N 0.76505 0.58694 0.95282 0.0
C120 C 0.78815 0.57985 0.97599 0.0
C121 C 0.7697 0.59324 0.93718 0.0
N122 N 0.79208 0.59817 0.93422 0.0
C123 C 0.75265 0.59534 0.92496 0.0
H124 H 0.80011 0.57226 0.97619 0.0
H125 H 0.77084 0.56699 0.98054 0.0
H126 H 0.79595 0.5944 0.98426 0.0
H127 H 0.73967 0.59863 0.93093 0.0
H128 H 0.74286 0.57925 0.91833 0.0
H129 H 0.76227 0.60923 0.91611 0.0
C130 C 0.43612 0.21519 0.95558 0.0
N131 N 0.43181 0.19945 0.94439 0.0
N132 N 0.43443 0.23307 0.94869 0.0
C133 C 0.44146 0.21282 0.97323 0.0
C134 C 0.42916 0.22772 0.93295 0.0
N135 N 0.42777 0.20743 0.93032 0.0
C136 C 0.42527 0.24229 0.92013 0.0
H137 H 0.44941 0.22918 0.97949 0.0
H138 H 0.45354 0.20536 0.9748 0.0
H139 H 0.42473 0.20117 0.97909 0.0
H140 H 0.43583 0.26052 0.92305 0.0
H141 H 0.40626 0.23771 0.91945 0.0
H142 H 0.43002 0.23948 0.90814 0.0
C143 C 0.77387 0.23439 0.94732 0.0
N144 N 0.76327 0.21547 0.93821 0.0
N145 N 0.79567 0.24898 0.94197 0.0
C146 C 0.76261 0.23885 0.9611 0.0
C147 C 0.79802 0.23815 0.92942 0.0
N148 N 0.77848 0.21778 0.92722 0.0
C149 C 0.81908 0.24787 0.91892 0.0
H150 H 0.75054 0.2453 0.95619 0.0
H151 H 0.7758 0.25173 0.96936 0.0
H152 H 0.75206 0.22295 0.96807 0.0
H153 H 0.82298 0.23446 0.91515 0.0
H154 H 0.83508 0.26112 0.92524 0.0
H155 H 0.81503 0.25551 0.90788 0.0
C156 C 0.56563 0.77499 0.06433 0.0
N157 N 0.57406 0.793 0.07419 0.0
N158 N 0.57266 0.75988 0.06999 0.0
C159 C 0.55011 0.7718 0.04937 0.0
C160 C 0.5858 0.76936 0.08356 0.0
N161 N 0.58689 0.78961 0.08601 0.0
C162 C 0.59637 0.75828 0.09499 0.0
H163 H 0.5313 0.76264 0.05268 0.0
H164 H 0.55273 0.76152 0.04046 0.0
H165 H 0.55381 0.78839 0.04372 0.0
H166 H 0.61582 0.76924 0.09612 0.0
H167 H 0.5927 0.74141 0.09086 0.0
H168 H 0.58927 0.75651 0.10712 0.0
C169 C 0.23319 0.78397 0.07488 0.0
N170 N 0.24477 0.80137 0.08525 0.0
N171 N 0.21438 0.76648 0.08186 0.0
C172 C 0.24141 0.78316 0.05846 0.0
C173 C 0.215 0.77381 0.09687 0.0
N174 N 0.23354 0.79484 0.099 0.0
C175 C 0.19675 0.76095 0.10922 0.0
H176 H 0.23373 0.79074 0.04943 0.0
H177 H 0.23554 0.76542 0.05505 0.0
H178 H 0.26098 0.79296 0.05814 0.0
H179 H 0.20276 0.75071 0.11704 0.0
H180 H 0.17938 0.74937 0.10335 0.0
H181 H 0.1945 0.77271 0.11699 0.0
C182 C 0.24277 0.4817 0.09425 0.0
N183 N 0.25502 0.47302 0.10305 0.0
N184 N 0.22266 0.47709 0.10156 0.0
C185 C 0.24883 0.49202 0.07756 0.0
C186 C 0.22307 0.46516 0.11503 0.0
N187 N 0.24265 0.46261 0.11589 0.0
C188 C 0.20421 0.45565 0.12727 0.0
H189 H 0.25944 0.51072 0.07852 0.0
H190 H 0.23262 0.48808 0.06999 0.0
H191 H 0.25936 0.48578 0.07143 0.0
H192 H 0.19193 0.43758 0.12462 0.0
H193 H 0.19402 0.46508 0.12694 0.0
H194 H 0.21224 0.45637 0.13956 0.0
C195 C 0.45125 0.92413 0.28993 0.0
N196 N 0.46926 0.93123 0.27978 0.0
N197 N 0.43246 0.92496 0.28242 0.0
C198 C 0.45093 0.91378 0.30645 0.0
C199 C 0.43957 0.93256 0.26731 0.0
N200 N 0.46187 0.9362 0.26567 0.0
C201 C 0.42507 0.93726 0.25438 0.0
H202 H 0.43267 0.90124 0.30964 0.0
H203 H 0.45816 0.92744 0.31545 0.0
H204 H 0.46201 0.90523 0.30716 0.0
H205 H 0.41213 0.9412 0.25974 0.0
H206 H 0.41518 0.92201 0.24687 0.0
H207 H 0.43665 0.95163 0.24645 0.0
C208 C 0.10218 0.54763 0.28925 0.0
N209 N 0.09761 0.53161 0.27824 0.0
N210 N 0.10125 0.56574 0.28209 0.0
C211 C 0.10682 0.54523 0.30701 0.0
C212 C 0.09615 0.56022 0.26637 0.0
N213 N 0.09417 0.53961 0.26401 0.0
C214 C 0.09283 0.57483 0.25332 0.0
H215 H 0.08971 0.53445 0.31273 0.0
H216 H 0.11553 0.56176 0.3131 0.0
H217 H 0.11797 0.53681 0.30898 0.0
H218 H 0.10346 0.59307 0.25622 0.0
H219 H 0.07387 0.57043 0.25233 0.0
H220 H 0.09787 0.57184 0.2415 0.0
C221 C 0.44002 0.56742 0.28085 0.0
N222 N 0.4293 0.54853 0.27172 0.0
N223 N 0.46184 0.58192 0.27549 0.0
C224 C 0.42887 0.57195 0.29467 0.0
C225 C 0.46408 0.57106 0.26292 0.0
N226 N 0.44446 0.55075 0.26071 0.0
C227 C 0.48511 0.5807 0.25239 0.0
H228 H 0.4169 0.57854 0.28979 0.0
H229 H 0.44213 0.58474 0.30294 0.0
H230 H 0.41822 0.55605 0.30161 0.0
H231 H 0.48896 0.56724 0.24866 0.0
H232 H 0.50114 0.59396 0.25868 0.0
H233 H 0.48105 0.58831 0.24134 0.0
Tb234 Tb 0.50249 0.98945 0.99783 0.0
Eu235 Eu 0.51746 0.01675 0.03171 0.0
C236 C 0.52313 0.9729 0.02697 0.0
C237 C 0.46729 0.97234 0.02658 0.0
C238 C 0.50402 0.98028 0.95506 0.0
C239 C 0.51567 0.97576 0.92881 0.0
C240 C 0.50533 0.96643 0.94353 0.0
C241 C 0.51324 0.00359 0.95178 0.0
C242 C 0.52341 0.0129 0.93707 0.0
C243 C 0.52486 0.99914 0.92541 0.0
C244 C 0.49458 0.97081 0.97091 0.0
O245 O 0.50062 0.02047 0.99238 0.0
O246 O 0.49352 0.02766 0.01759 0.0
O247 O 0.54144 0.04091 0.01315 0.0
O248 O 0.54046 0.01356 0.9974 0.0
C249 C 0.4928 0.0303 1.00184 0.0
O250 O 0.50889 0.02899 0.05285 0.0
O251 O 0.54513 0.03678 0.04952 0.0
O252 O 0.53398 0.99368 0.03234 0.0
O253 O 0.5062 0.96678 0.01573 0.0
O254 O 0.46956 0.97547 0.01085 0.0
O255 O 0.48523 0.98342 0.03678 0.0
C256 C 0.55044 0.0348 1.00186 0.0
O257 O 0.51016 0.97097 0.9817 0.0
O258 O 0.48096 0.97789 0.97673 0.0
C259 C 0.53193 0.02977 0.07594 0.0
C260 C 0.53269 0.0146 0.108 0.0
C261 C 0.53634 0.03674 0.10462 0.0
C262 C 0.53594 0.04425 0.0887 0.0
C263 C 0.5287 0.00783 0.0792 0.0
C264 C 0.52913 1.00032 0.09509 0.0
C265 C 0.53028 0.03726 0.05931 0.0
H266 H 0.51676 0.96472 0.9202 0.0
H267 H 0.49863 0.94845 0.94598 0.0
H268 H 0.51267 0.01465 0.96063 0.0
H269 H 0.52989 0.03087 0.93479 0.0
H270 H 0.5388 0.04804 0.11429 0.0
H271 H 0.53835 0.06121 0.08635 0.0
H272 H 0.52557 0.99644 0.06943 0.0
H273 H 0.52654 0.98328 0.09728 0.0
Tb274 Tb 0.01292 0.51884 0.99115 0.0
Eu275 Eu 0.9897 0.50382 0.02699 0.0
C276 C 0.03457 0.55168 0.02075 0.0
C277 C 0.0344 0.49916 0.01804 0.0
C278 C 0.02168 0.52701 0.94684 0.0
C279 C 0.02807 0.53831 0.91866 0.0
C280 C 0.03604 0.54148 0.9348 0.0
C281 C 0.99911 0.50936 0.94261 0.0
C282 C 0.99113 0.5061 0.92644 0.0
C283 C 0.00557 0.52051 0.91426 0.0
C284 C 0.03037 0.53095 0.96371 0.0
O285 O 0.98833 0.48241 0.9898 0.0
O286 O 0.96325 0.47815 0.00984 0.0
O287 O 0.97609 0.52599 0.0145 0.0
O288 O 0.97891 0.51801 0.98849 0.0
C289 C 0.96821 0.47065 0.99709 0.0
O290 O 0.97343 0.47809 0.04594 0.0
O291 O 0.97901 0.51217 0.04899 0.0
O292 O 0.02539 0.53433 0.03085 0.0
O293 O 0.02767 0.54966 0.0054 0.0
O294 O 0.03892 0.51482 0.00675 0.0
O295 O 0.01382 0.48877 0.02471 0.0
C296 C 0.97059 0.52598 0.99904 0.0
O297 O 0.02325 0.54246 0.97189 0.0
O298 O 0.02937 0.51354 0.97197 0.0
C299 C 0.98333 0.49257 0.07217 0.0
C300 C 0.00265 0.49225 0.10351 0.0
C301 C 0.97925 0.47608 0.09918 0.0
C302 C 0.96969 0.47628 0.08366 0.0
C303 C 0.00677 0.50856 0.07631 0.0
C304 C 0.01629 0.50848 0.09185 0.0
C305 C 0.9731 0.49241 0.05585 0.0
H306 H 0.03948 0.54995 0.90965 0.0
H307 H 0.05342 0.55533 0.93791 0.0
H308 H 0.98774 0.4981 0.95181 0.0
H309 H 0.97382 0.4921 0.92345 0.0
H310 H 0.96835 0.46311 0.10773 0.0
H311 H 0.95165 0.46366 0.08061 0.0
H312 H 0.01769 0.52119 0.06756 0.0
H313 H 0.03424 0.52138 0.09479 0.0
Tb314 Tb 0.49114 0.48412 0.0318 0.0
Eu315 Eu 0.48488 0.497 0.99329 0.0
C316 C 0.47679 0.44794 0.00534 0.0
C317 C 0.53253 0.49924 0.00794 0.0
C318 C 0.48537 0.47853 0.07652 0.0
C319 C 0.47149 0.46546 0.10355 0.0
C320 C 0.47876 0.46198 0.08888 0.0
C321 C 0.4841 0.49848 0.0789 0.0
C322 C 0.47702 0.50206 0.09362 0.0
C323 C 0.47084 0.48568 0.10617 0.0
C324 C 0.49407 0.47494 0.06145 0.0
O325 O 0.4899 0.51587 0.03181 0.0
O326 O 0.5049 0.52945 0.00698 0.0
O327 O 0.4551 0.49686 0.00622 0.0
O328 O 0.45367 0.47102 0.02566 0.0
C329 C 0.50054 0.53282 0.02155 0.0
O330 O 0.49843 0.52083 0.97297 0.0
O331 O 0.46595 0.48921 0.96975 0.0
O332 O 0.46826 0.45898 0.99615 0.0
O333 O 0.49081 0.45722 0.01805 0.0
O334 O 0.52653 0.50123 0.02238 0.0
O335 O 0.51728 0.49271 0.99559 0.0
C336 C 0.44412 0.48218 0.0178 0.0
O337 O 0.47815 0.46087 0.05131 0.0
O338 O 0.50985 0.49301 0.05413 0.0
C339 C 0.49055 0.50475 0.94726 0.0
C340 C 0.50869 0.5017 0.91777 0.0
C341 C 0.50304 0.51913 0.92018 0.0
C342 C 0.49406 0.52059 0.93474 0.0
C343 C 0.49617 0.48733 0.94504 0.0
C344 C 0.50508 0.48578 0.93042 0.0
C345 C 0.48211 0.50744 0.96273 0.0
H346 H 0.46705 0.45261 0.11301 0.0
H347 H 0.47958 0.44647 0.08728 0.0
H348 H 0.48887 0.51143 0.06948 0.0
H349 H 0.47642 0.51768 0.09519 0.0
H350 H 0.50597 0.53196 0.91091 0.0
H351 H 0.49011 0.53432 0.93628 0.0
H352 H 0.49378 0.47501 0.95462 0.0
H353 H 0.50895 0.47198 0.92899 0.0
Tb354 Tb 0.16861 0.32244 0.33075 0.0
Eu355 Eu 0.18316 0.34903 0.36503 0.0
C356 C 0.19035 0.3059 0.35952 0.0
C357 C 0.13393 0.30377 0.35984 0.0
C358 C 0.16974 0.3144 0.28765 0.0
C359 C 0.1819 0.31054 0.2614 0.0
C360 C 0.17153 0.30089 0.27605 0.0
C361 C 0.17846 0.33768 0.28448 0.0
C362 C 0.18866 0.34729 0.26983 0.0
C363 C 0.19064 0.33389 0.25812 0.0
C364 C 0.16049 0.3046 0.30348 0.0
O365 O 0.1665 0.35349 0.32596 0.0
O366 O 0.15809 0.35875 0.35127 0.0
O367 O 0.20732 0.37357 0.34667 0.0
O368 O 0.20645 0.34675 0.33037 0.0
C369 C 0.15775 0.36222 0.33561 0.0
O370 O 0.17397 0.36106 0.38599 0.0
O371 O 0.21034 0.36883 0.3832 0.0
O372 O 0.19974 0.32605 0.36591 0.0
O373 O 0.17404 0.29989 0.34784 0.0
O374 O 0.13589 0.30726 0.34411 0.0
O375 O 0.15189 0.31503 0.36997 0.0
C376 C 0.21641 0.36781 0.33522 0.0
O377 O 0.17618 0.30454 0.31406 0.0
O378 O 0.14693 0.31149 0.30965 0.0
C379 C 0.19625 0.36149 0.4094 0.0
C380 C 0.19565 0.3458 0.44145 0.0
C381 C 0.19972 0.36808 0.4381 0.0
C382 C 0.19999 0.37584 0.42217 0.0
C383 C 0.19263 0.33941 0.41262 0.0
C384 C 0.19237 0.33164 0.42852 0.0
C385 C 0.19517 0.36921 0.39275 0.0
H386 H 0.1834 0.29977 0.25276 0.0
H387 H 0.16523 0.28296 0.27843 0.0
H388 H 0.17754 0.34847 0.29338 0.0
H389 H 0.1948 0.36523 0.26764 0.0
H390 H 0.20198 0.3793 0.44777 0.0
H391 H 0.20269 0.3929 0.41984 0.0
H392 H 0.18969 0.3281 0.40284 0.0
H393 H 0.18948 0.3145 0.43069 0.0
Tb394 Tb 0.67836 0.85194 0.32462 0.0
Eu395 Eu 0.65568 0.8366 0.36061 0.0
C396 C 0.70034 0.88463 0.35427 0.0
C397 C 0.70048 0.83239 0.35113 0.0
C398 C 0.68539 0.85957 0.28026 0.0
C399 C 0.68928 0.8709 0.25199 0.0
C400 C 0.69819 0.87467 0.26793 0.0
C401 C 0.66344 0.84068 0.27653 0.0
C402 C 0.65457 0.83681 0.26056 0.0
C403 C 0.66742 0.85189 0.24812 0.0
C404 C 0.69493 0.86407 0.29694 0.0
O405 O 0.65413 0.81542 0.32334 0.0
O406 O 0.62917 0.81088 0.34353 0.0
O407 O 0.64153 0.85851 0.34843 0.0
O408 O 0.64412 0.85067 0.32235 0.0
C409 C 0.63411 0.8035 0.33071 0.0
O410 O 0.63992 0.81073 0.37956 0.0
O411 O 0.64517 0.84466 0.3828 0.0
O412 O 0.69129 0.86722 0.36434 0.0
O413 O 0.6933 0.88269 0.33895 0.0
O414 O 0.70475 0.84807 0.33989 0.0
O415 O 0.67999 0.82185 0.35792 0.0
C416 C 0.63577 0.85844 0.33301 0.0
O417 O 0.68782 0.87544 0.30528 0.0
O418 O 0.69472 0.84701 0.30523 0.0
C419 C 0.6501 0.82512 0.40581 0.0
C420 C 0.66995 0.82495 0.43699 0.0
C421 C 0.64659 0.80857 0.43277 0.0
C422 C 0.63677 0.8087 0.41733 0.0
C423 C 0.67351 0.8413 0.40984 0.0
C424 C 0.6833 0.84129 0.4253 0.0
C425 C 0.63958 0.82492 0.38958 0.0
H426 H 0.6997 0.88266 0.24265 0.0
H427 H 0.71512 0.88938 0.27064 0.0
H428 H 0.6532 0.82899 0.28595 0.0
H429 H 0.63757 0.82215 0.25796 0.0
H430 H 0.63592 0.79551 0.44135 0.0
H431 H 0.61875 0.79594 0.41437 0.0
H432 H 0.68419 0.85403 0.40106 0.0
H433 H 0.7012 0.85434 0.42815 0.0
Tb434 Tb 0.15894 0.81772 0.36425 0.0
Eu435 Eu 0.14847 0.82846 0.32604 0.0
C436 C 0.1425 0.78039 0.33855 0.0
C437 C 0.198 0.83309 0.3385 0.0
C438 C 0.15671 0.81344 0.40916 0.0
C439 C 0.14359 0.79997 0.4363 0.0
C440 C 0.15068 0.79682 0.42145 0.0
C441 C 0.15512 0.83315 0.41184 0.0
C442 C 0.14823 0.8364 0.42674 0.0
C443 C 0.14255 0.81993 0.43919 0.0
C444 C 0.16493 0.81007 0.39379 0.0
O445 O 0.15632 0.84874 0.36427 0.0
O446 O 0.16892 0.86167 0.33885 0.0
O447 O 0.11925 0.82767 0.33998 0.0
O448 O 0.12089 0.80387 0.36013 0.0
C449 C 0.16559 0.86537 0.35361 0.0
O450 O 0.15811 0.85194 0.30543 0.0
O451 O 0.12896 0.81797 0.30274 0.0
O452 O 0.13248 0.79065 0.33 0.0
O453 O 0.15796 0.79059 0.35042 0.0
O454 O 0.19331 0.83543 0.35327 0.0
O455 O 0.1815 0.82535 0.32696 0.0
C456 C 0.10996 0.81383 0.35232 0.0
O457 O 0.1489 0.79502 0.38421 0.0
O458 O 0.17931 0.82831 0.38588 0.0
C459 C 0.15299 0.83493 0.28029 0.0
C460 C 0.17255 0.83314 0.25108 0.0
C461 C 0.15059 0.83296 0.25103 0.0
C462 C 0.14096 0.83388 0.26548 0.0
C463 C 0.17474 0.83482 0.28046 0.0
C464 C 0.18444 0.83399 0.26603 0.0
C465 C 0.14315 0.83686 0.29539 0.0
H466 H 0.13952 0.78705 0.44567 0.0
H467 H 0.15174 0.78147 0.41963 0.0
H468 H 0.15941 0.84614 0.4025 0.0
H469 H 0.14731 0.85182 0.42851 0.0
H470 H 0.14069 0.83191 0.23982 0.0
H471 H 0.12413 0.83389 0.26508 0.0
H472 H 0.18438 0.83565 0.29177 0.0
H473 H 0.20148 0.83444 0.2666 0.0
Tb474 Tb 0.83668 0.65702 0.6649 0.0
Eu475 Eu 0.85302 0.68416 0.69896 0.0
C476 C 0.85797 0.64007 0.69353 0.0
C477 C 0.80242 0.63976 0.69427 0.0
C478 C 0.83717 0.64813 0.62201 0.0
C479 C 0.84794 0.6436 0.59547 0.0
C480 C 0.83766 0.6342 0.61019 0.0
C481 C 0.84718 0.67157 0.61903 0.0
C482 C 0.85728 0.68095 0.60432 0.0
C483 C 0.85788 0.66711 0.59235 0.0
C484 C 0.82786 0.63856 0.63786 0.0
O485 O 0.83486 0.68818 0.65998 0.0
O486 O 0.8288 0.69525 0.6855 0.0
O487 O 0.87718 0.70826 0.68048 0.0
O488 O 0.87453 0.68113 0.66367 0.0
C489 C 0.82747 0.69795 0.6698 0.0
O490 O 0.84523 0.69708 0.72009 0.0
O491 O 0.88092 0.70307 0.71697 0.0
O492 O 0.86903 0.66074 0.69907 0.0
O493 O 0.84091 0.63419 0.68241 0.0
O494 O 0.80423 0.64259 0.67848 0.0
O495 O 0.82063 0.65106 0.70424 0.0
C496 C 0.88533 0.70218 0.66864 0.0
O497 O 0.84348 0.63831 0.64845 0.0
O498 O 0.81466 0.64592 0.64397 0.0
C499 C 0.8671 0.69592 0.74326 0.0
C500 C 0.86433 0.67849 0.77498 0.0
C501 C 0.86734 0.70051 0.77205 0.0
C502 C 0.8687 0.70913 0.75629 0.0
C503 C 0.8647 0.6742 0.74611 0.0
C504 C 0.86342 0.66559 0.76184 0.0
C505 C 0.86638 0.70417 0.72672 0.0
H506 H 0.84838 0.63248 0.58663 0.0
H507 H 0.83037 0.61611 0.61242 0.0
H508 H 0.84728 0.68268 0.62812 0.0
H509 H 0.86436 0.69904 0.60228 0.0
H510 H 0.86776 0.71075 0.78187 0.0
H511 H 0.87037 0.72587 0.75425 0.0
H512 H 0.86334 0.66374 0.73615 0.0
H513 H 0.86139 0.6487 0.7637 0.0
Tb514 Tb 0.34706 0.18538 0.657 0.0
Eu515 Eu 0.32384 0.17086 0.69285 0.0
C516 C 0.36909 0.21855 0.68645 0.0
C517 C 0.36823 0.16564 0.68401 0.0
C518 C 0.35522 0.19228 0.61267 0.0
C519 C 0.36005 0.20361 0.58441 0.0
C520 C 0.36848 0.20732 0.60046 0.0
C521 C 0.33331 0.17348 0.60871 0.0
C522 C 0.32491 0.16967 0.59263 0.0
C523 C 0.33821 0.18471 0.58032 0.0
C524 C 0.36427 0.19677 0.62946 0.0
O525 O 0.32212 0.14899 0.65586 0.0
O526 O 0.29708 0.14534 0.67575 0.0
O527 O 0.3105 0.19318 0.6803 0.0
O528 O 0.31331 0.18513 0.6543 0.0
C529 C 0.30188 0.13755 0.66308 0.0
O530 O 0.30765 0.14532 0.71193 0.0
O531 O 0.31313 0.17941 0.71475 0.0
O532 O 0.3596 0.20132 0.69664 0.0
O533 O 0.36242 0.21641 0.67105 0.0
O534 O 0.37293 0.18129 0.6727 0.0
O535 O 0.3476 0.15539 0.69061 0.0
C536 C 0.30506 0.19319 0.66483 0.0
O537 O 0.35733 0.20857 0.63747 0.0
O538 O 0.36341 0.17961 0.63798 0.0
C539 C 0.3176 0.16011 0.73808 0.0
C540 C 0.33701 0.16016 0.76945 0.0
C541 C 0.31393 0.14339 0.765 0.0
C542 C 0.30433 0.14341 0.74947 0.0
C543 C 0.34072 0.17671 0.74236 0.0
C544 C 0.35028 0.17681 0.75791 0.0
C545 C 0.30732 0.15975 0.72174 0.0
H546 H 0.37079 0.21534 0.57518 0.0
H547 H 0.38539 0.22195 0.60334 0.0
H548 H 0.32271 0.16183 0.61804 0.0
H549 H 0.30791 0.1551 0.58986 0.0
H550 H 0.30334 0.13009 0.77346 0.0
H551 H 0.28654 0.13032 0.74632 0.0
H552 H 0.35137 0.18968 0.7337 0.0
H553 H 0.36796 0.19017 0.76094 0.0
Tb554 Tb 0.82462 0.15068 0.69835 0.0
Eu555 Eu 0.81729 0.16339 0.65999 0.0
C556 C 0.8099 0.11446 0.67184 0.0
C557 C 0.86536 0.16581 0.6739 0.0
C558 C 0.81971 0.14535 0.7431 0.0
C559 C 0.80607 0.13234 0.77019 0.0
C560 C 0.81328 0.12885 0.7555 0.0
C561 C 0.81836 0.16525 0.74549 0.0
C562 C 0.81135 0.16884 0.76024 0.0
C563 C 0.80532 0.15251 0.77282 0.0
C564 C 0.82825 0.14173 0.72796 0.0
O565 O 0.82319 0.18232 0.69851 0.0
O566 O 0.83767 0.19589 0.67358 0.0
O567 O 0.78775 0.16304 0.67334 0.0
O568 O 0.787 0.13732 0.69266 0.0
C569 C 0.83361 0.19926 0.68822 0.0
O570 O 0.83018 0.18729 0.63964 0.0
O571 O 0.79787 0.15546 0.63662 0.0
O572 O 0.80107 0.1254 0.66281 0.0
O573 O 0.82408 0.12379 0.68448 0.0
O574 O 0.85976 0.16774 0.68849 0.0
O575 O 0.84978 0.15927 0.66174 0.0
C576 C 0.77713 0.14835 0.68499 0.0
O577 O 0.81223 0.1275 0.71795 0.0
O578 O 0.84379 0.1598 0.72051 0.0
C579 C 0.82216 0.17107 0.61399 0.0
C580 C 0.8404 0.1681 0.58452 0.0
C581 C 0.83562 0.18602 0.58716 0.0
C582 C 0.82658 0.18745 0.60171 0.0
C583 C 0.82688 0.15313 0.61151 0.0
C584 C 0.83582 0.15161 0.5969 0.0
C585 C 0.8138 0.17373 0.6295 0.0
H586 H 0.80175 0.11952 0.77967 0.0
H587 H 0.81415 0.11337 0.75389 0.0
H588 H 0.82299 0.17816 0.73605 0.0
H589 H 0.81067 0.18442 0.7618 0.0
H590 H 0.83929 0.19927 0.5781 0.0
H591 H 0.82333 0.20158 0.60345 0.0
H592 H 0.82379 0.14039 0.62089 0.0
H593 H 0.83898 0.13741 0.59529 0.0
C594 C 0.26653 0.83529 0.06808 0.0
C595 C 0.26585 0.82247 0.08206 0.0
C596 C 0.28796 0.85313 0.06301 0.0
C597 C 0.35 0.89253 0.07522 0.0
H598 H 0.36163 0.88953 0.03038 0.0
C599 C 0.44261 0.94803 0.04922 0.0
C600 C 0.44405 0.95576 0.03309 0.0
C601 C 0.42082 0.93254 0.0555 0.0
C602 C 0.35864 0.89098 0.04285 0.0
H603 H 0.28671 0.81903 0.10222 0.0
H604 H 0.32436 0.85077 0.09361 0.0
H605 H 0.32382 0.86246 0.04123 0.0
H606 H 0.4235 0.95337 0.01098 0.0
H607 H 0.38544 0.92697 0.022 0.0
H608 H 0.38463 0.92129 0.07682 0.0
C609 C 0.30829 0.84689 0.0865 0.0
C610 C 0.33691 0.87534 0.0491 0.0
C611 C 0.28678 0.82883 0.0915 0.0
C612 C 0.42309 0.94765 0.02342 0.0
C613 C 0.40122 0.93236 0.02975 0.0
C614 C 0.37168 0.9084 0.06892 0.0
C615 C 0.30922 0.85875 0.0719 0.0
C616 C 0.33231 0.87587 0.06536 0.0
C617 C 0.39973 0.92449 0.0459 0.0
C618 C 0.3764 0.90783 0.05263 0.0
H619 H 0.25055 0.83081 0.06071 0.0
H620 H 0.28798 0.86219 0.05188 0.0
H621 H 0.34694 0.89349 0.08777 0.0
H622 H 0.45841 0.95377 0.05702 0.0
H623 H 0.42064 0.92663 0.06786 0.0
C624 C 0.20723 0.50146 0.0889 0.0
C625 C 0.2033 0.48011 0.09482 0.0
C626 C 0.18891 0.5039 0.08086 0.0
C627 C 0.12483 0.47869 0.07594 0.0
H628 H 0.13634 0.50514 0.03277 0.0
C629 C 0.04899 0.47614 0.03467 0.0
C630 C 0.05384 0.49551 0.02509 0.0
C631 C 0.06737 0.47389 0.04276 0.0
C632 C 0.13289 0.49802 0.04489 0.0
H633 H 0.17738 0.44464 0.0972 0.0
H634 H 0.14499 0.44902 0.08374 0.0
H635 H 0.16832 0.50331 0.04882 0.0
H636 H 0.08172 0.52759 0.01626 0.0
H637 H 0.11368 0.52405 0.03072 0.0
H638 H 0.08967 0.47388 0.07232 0.0
C639 C 0.16221 0.46384 0.08529 0.0
C640 C 0.15121 0.49696 0.05404 0.0
C641 C 0.18063 0.46135 0.09305 0.0
C642 C 0.07745 0.51233 0.02342 0.0
C643 C 0.0958 0.51026 0.0317 0.0
C644 C 0.10661 0.48006 0.0669 0.0
C645 C 0.16632 0.48505 0.0789 0.0
C646 C 0.14727 0.48717 0.06959 0.0
C647 C 0.09097 0.49116 0.04165 0.0
C648 C 0.11036 0.48961 0.05122 0.0
H649 H 0.22463 0.51609 0.0902 0.0
H650 H 0.1924 0.52044 0.0761 0.0
H651 H 0.12148 0.47119 0.08797 0.0
H652 H 0.03094 0.46284 0.03609 0.0
H653 H 0.06304 0.4587 0.05 0.0
C654 C 0.57229 0.73356 0.0502 0.0
C655 C 0.56447 0.73725 0.06458 0.0
C656 C 0.56484 0.71145 0.04526 0.0
C657 C 0.54194 0.65302 0.06118 0.0
H658 H 0.52269 0.63613 0.01663 0.0
C659 C 0.50062 0.56013 0.04115 0.0
C660 C 0.50745 0.55618 0.02639 0.0
C661 C 0.5072 0.58222 0.04568 0.0
C662 C 0.52828 0.64063 0.02908 0.0
H663 H 0.54281 0.72135 0.08502 0.0
H664 H 0.52965 0.6825 0.07648 0.0
H665 H 0.53501 0.67483 0.02465 0.0
H666 H 0.52667 0.57239 0.00485 0.0
H667 H 0.53847 0.61085 0.01289 0.0
H668 H 0.53552 0.61898 0.06563 0.0
C669 C 0.54165 0.69657 0.06905 0.0
C670 C 0.5353 0.6628 0.03367 0.0
C671 C 0.54901 0.71866 0.07391 0.0
C672 C 0.52099 0.5748 0.01627 0.0
C673 C 0.52766 0.59688 0.02084 0.0
C674 C 0.53504 0.6309 0.05659 0.0
C675 C 0.54957 0.69271 0.05471 0.0
C676 C 0.54217 0.66921 0.04978 0.0
C677 C 0.52085 0.60088 0.0356 0.0
C678 C 0.52809 0.62441 0.04049 0.0
H679 H 0.58437 0.74782 0.04296 0.0
H680 H 0.57142 0.70902 0.03423 0.0
H681 H 0.54749 0.65755 0.07364 0.0
H682 H 0.49007 0.54617 0.04919 0.0
H683 H 0.50135 0.58464 0.05703 0.0
C684 C 0.82173 0.27471 0.96339 0.0
C685 C 0.81213 0.27143 0.94752 0.0
C686 C 0.83822 0.29644 0.96859 0.0
C687 C 0.88501 0.35044 0.95527 0.0
H688 H 0.87225 0.37646 0.99159 0.0
C689 C 0.94896 0.44282 0.97468 0.0
C690 C 0.95064 0.44802 0.99103 0.0
C691 C 0.93187 0.42151 0.96907 0.0
C692 C 0.87646 0.36941 0.98163 0.0
H693 H 0.81248 0.28803 0.92455 0.0
H694 H 0.84215 0.32603 0.93344 0.0
H695 H 0.84331 0.33867 0.98276 0.0
H696 H 0.93628 0.43476 0.01443 0.0
H697 H 0.9076 0.39744 0.00497 0.0
H698 H 0.91855 0.38046 0.95446 0.0
C699 C 0.83655 0.31184 0.94192 0.0
C700 C 0.85969 0.34776 0.97651 0.0
C701 C 0.81964 0.2902 0.93685 0.0
C702 C 0.93521 0.43137 1.0017 0.0
C703 C 0.91856 0.40993 0.9962 0.0
C704 C 0.90208 0.37188 0.96062 0.0
C705 C 0.84592 0.31517 0.95786 0.0
C706 C 0.86377 0.33811 0.96327 0.0
C707 C 0.91638 0.40467 0.97976 0.0
C708 C 0.89809 0.38177 0.97389 0.0
H709 H 0.81664 0.26039 0.97169 0.0
H710 H 0.84536 0.29856 0.9809 0.0
H711 H 0.88862 0.34325 0.94508 0.0
H712 H 0.96051 0.45539 0.96615 0.0
H713 H 0.93063 0.41846 0.95629 0.0
C714 C 0.72274 0.55932 0.95318 0.0
C715 C 0.74265 0.5776 0.96022 0.0
C716 C 0.70107 0.54974 0.96054 0.0
C717 C 0.66812 0.56205 0.9897 0.0
H718 H 0.62611 0.49719 0.98741 0.0
C719 C 0.57552 0.51874 0.0164 0.0
C720 C 0.55732 0.50541 0.00526 0.0
C721 C 0.59915 0.52615 0.01312 0.0
C722 C 0.63771 0.51532 0.98816 0.0
H723 H 0.75595 0.60021 0.98038 0.0
H724 H 0.71803 0.58319 0.99361 0.0
H725 H 0.666 0.51328 0.97753 0.0
H726 H 0.54946 0.48852 0.98232 0.0
H727 H 0.59066 0.50131 0.9767 0.0
H728 H 0.63966 0.56402 1.00023 0.0
C729 C 0.71901 0.57647 0.98226 0.0
C730 C 0.66047 0.52456 0.98244 0.0
C731 C 0.74068 0.58613 0.97479 0.0
C732 C 0.56311 0.49889 0.9911 0.0
C733 C 0.58667 0.50606 0.98793 0.0
C734 C 0.64541 0.55277 0.99555 0.0
C735 C 0.69896 0.55814 0.9752 0.0
C736 C 0.67573 0.54809 0.98279 0.0
C737 C 0.60491 0.52006 0.99877 0.0
C738 C 0.62984 0.5294 0.99449 0.0
H739 H 0.72406 0.55232 0.94206 0.0
H740 H 0.68592 0.53591 0.95464 0.0
H741 H 0.67933 0.58027 0.99 0.0
H742 H 0.57158 0.52404 0.02741 0.0
H743 H 0.61294 0.53685 0.02169 0.0
C744 C 0.44927 0.17527 0.9384 0.0
C745 C 0.43325 0.17881 0.94691 0.0
C746 C 0.45321 0.15689 0.94238 0.0
C747 C 0.43104 0.10325 0.96738 0.0
H748 H 0.49654 0.11648 0.96661 0.0
C749 C 0.47022 0.05185 0.00322 0.0
C750 C 0.4842 0.04562 0.99454 0.0
C751 C 0.46231 0.06649 0.99626 0.0
C752 C 0.47814 0.11248 0.96675 0.0
H753 H 0.40769 0.16539 0.96552 0.0
H754 H 0.4153 0.13395 0.97317 0.0
H755 H 0.48536 0.14453 0.95612 0.0
H756 H 0.50085 0.04984 0.97177 0.0
H757 H 0.48746 0.07579 0.95981 0.0
H758 H 0.42429 0.07151 0.97877 0.0
C759 C 0.42459 0.14495 0.96318 0.0
C760 C 0.47164 0.12848 0.96063 0.0
C761 C 0.4204 0.16312 0.95897 0.0
C762 C 0.49007 0.05428 0.97877 0.0
C763 C 0.4825 0.06919 0.97193 0.0
C764 C 0.43767 0.08738 0.97376 0.0
C765 C 0.4415 0.14189 0.95519 0.0
C766 C 0.448 0.12415 0.96089 0.0
C767 C 0.46858 0.07546 0.98061 0.0
C768 C 0.46129 0.0919 0.97353 0.0
H769 H 0.45955 0.1873 0.92917 0.0
H770 H 0.46592 0.15483 0.93567 0.0
H771 H 0.41262 0.09909 0.96757 0.0
H772 H 0.46533 0.04538 0.01537 0.0
H773 H 0.45173 0.07121 0.00324 0.0
C774 C 0.73858 0.17415 0.94281 0.0
C775 C 0.74049 0.19581 0.94062 0.0
C776 C 0.71725 0.15561 0.94755 0.0
C777 C 0.66711 0.14373 0.97133 0.0
H778 H 0.63493 0.08457 0.95183 0.0
C779 C 0.57751 0.07527 0.99421 0.0
C780 C 0.5718 0.05233 0.99384 0.0
C781 C 0.59753 0.09202 0.98672 0.0
C782 C 0.64384 0.10084 0.95763 0.0
H783 H 0.72117 0.21469 0.94026 0.0
H784 H 0.68419 0.1826 0.9491 0.0
H785 H 0.67081 0.11472 0.9401 0.0
H786 H 0.58262 0.02896 0.98517 0.0
H787 H 0.61824 0.05825 0.97273 0.0
H788 H 0.64121 0.13005 0.98925 0.0
C789 C 0.69919 0.17996 0.94731 0.0
C790 C 0.66434 0.11815 0.9508 0.0
C791 C 0.72033 0.19832 0.94232 0.0
C792 C 0.58655 0.04651 0.98568 0.0
C793 C 0.60691 0.06336 0.97842 0.0
C794 C 0.64698 0.1264 0.97833 0.0
C795 C 0.69758 0.15852 0.95034 0.0
C796 C 0.67601 0.13985 0.95749 0.0
C797 C 0.6128 0.08644 0.97889 0.0
C798 C 0.6348 0.10471 0.97151 0.0
H799 H 0.75391 0.17182 0.94163 0.0
H800 H 0.71651 0.13929 0.94981 0.0
H801 H 0.67599 0.16018 0.97693 0.0
H802 H 0.5663 0.08033 1.00013 0.0
H803 H 0.60083 0.10939 0.98699 0.0
C804 C 0.84052 0.60817 0.96235 0.0
C805 C 0.82447 0.59577 0.94988 0.0
C806 C 0.86007 0.60503 0.96641 0.0
C807 C 0.89687 0.58088 0.95357 0.0
H808 H 0.89704 0.56336 0.99869 0.0
C809 C 0.9447 0.5313 0.97763 0.0
C810 C 0.95531 0.53578 0.99323 0.0
C811 C 0.93087 0.54115 0.97192 0.0
C812 C 0.89765 0.56863 0.98614 0.0
H813 H 0.81669 0.5715 0.93123 0.0
H814 H 0.85126 0.56629 0.93805 0.0
H815 H 0.87082 0.57815 0.98873 0.0
H816 H 0.96014 0.55441 0.01499 0.0
H817 H 0.93655 0.57209 0.0049 0.0
H818 H 0.92372 0.57136 0.95095 0.0
C819 C 0.84879 0.57845 0.94468 0.0
C820 C 0.88258 0.57709 0.98044 0.0
C821 C 0.8291 0.58145 0.94074 0.0
C822 C 0.95193 0.5504 0.00298 0.0
C823 C 0.93836 0.5605 0.9972 0.0
C824 C 0.9122 0.57266 0.95932 0.0
C825 C 0.86393 0.58958 0.95794 0.0
C826 C 0.88182 0.583 0.96407 0.0
C827 C 0.92759 0.55595 0.98161 0.0
C828 C 0.9125 0.5661 0.97563 0.0
H829 H 0.83716 0.61935 0.96946 0.0
H830 H 0.87164 0.61398 0.97658 0.0
H831 H 0.89666 0.58543 0.94091 0.0
H832 H 0.94692 0.52002 0.96985 0.0
H833 H 0.92247 0.53688 0.95999 0.0
C834 C 0.45911 0.26812 0.96367 0.0
C835 C 0.43737 0.25317 0.95615 0.0
C836 C 0.46235 0.28828 0.97014 0.0
C837 C 0.44248 0.33033 0.96469 0.0
H838 H 0.4683 0.3486 0.00811 0.0
C839 C 0.45122 0.41193 0.99078 0.0
C840 C 0.47111 0.4248 1.00087 0.0
C841 C 0.44614 0.39029 0.98616 0.0
C842 C 0.46139 0.34394 0.99588 0.0
H843 H 0.40207 0.24733 0.94929 0.0
H844 H 0.40783 0.28302 0.96024 0.0
H845 H 0.46158 0.31212 0.99847 0.0
H846 H 0.50133 0.42517 0.01405 0.0
H847 H 0.49306 0.38781 0.00551 0.0
H848 H 0.44309 0.3623 0.96172 0.0
C849 C 0.42225 0.27901 0.96132 0.0
C850 C 0.45744 0.32299 0.99042 0.0
C851 C 0.41893 0.25869 0.9551 0.0
C852 C 0.48576 0.41556 0.00635 0.0
C853 C 0.48091 0.39405 1.00151 0.0
C854 C 0.44678 0.35141 0.97004 0.0
C855 C 0.44402 0.29402 0.96885 0.0
C856 C 0.4479 0.316 0.97479 0.0
C857 C 0.46108 0.38115 0.99129 0.0
C858 C 0.45626 0.35852 0.98572 0.0
H859 H 0.47368 0.26433 0.96425 0.0
H860 H 0.47938 0.29972 0.97571 0.0
H861 H 0.43541 0.32543 0.95251 0.0
H862 H 0.43946 0.41852 0.9865 0.0
H863 H 0.43041 0.38071 0.9786 0.0
C864 C 0.1924 0.72462 0.08331 0.0
C865 C 0.19753 0.74502 0.07501 0.0
C866 C 0.17515 0.70384 0.07714 0.0
C867 C 0.14244 0.67569 0.0398 0.0
H868 H 0.09659 0.63244 0.06903 0.0
C869 C 0.06075 0.59371 0.01705 0.0
C870 C 0.05322 0.57395 0.02675 0.0
C871 C 0.0784 0.61466 0.02275 0.0
C872 C 0.10943 0.64413 0.06071 0.0
H873 H 0.18906 0.75979 0.05368 0.0
H874 H 0.1591 0.72339 0.04263 0.0
H875 H 0.12766 0.66856 0.07914 0.0
H876 H 0.05866 0.56075 0.05001 0.0
H877 H 0.08972 0.59704 0.05977 0.0
H878 H 0.1245 0.65118 0.02141 0.0
C879 C 0.16841 0.72344 0.05392 0.0
C880 C 0.12722 0.6649 0.06653 0.0
C881 C 0.18553 0.74425 0.0602 0.0
C882 C 0.06386 0.57564 0.04225 0.0
C883 C 0.08164 0.59654 0.0479 0.0
C884 C 0.12475 0.65482 0.034 0.0
C885 C 0.16283 0.70301 0.06242 0.0
C886 C 0.14395 0.68093 0.05615 0.0
C887 C 0.08913 0.61639 0.03826 0.0
C888 C 0.10798 0.63872 0.04438 0.0
H889 H 0.20171 0.7248 0.09463 0.0
H890 H 0.17154 0.6884 0.08385 0.0
H891 H 0.15522 0.68759 0.03154 0.0
H892 H 0.05287 0.59305 0.00508 0.0
H893 H 0.08338 0.62957 0.01506 0.0
C894 C 0.29602 0.49383 0.0947 0.0
C895 C 0.27617 0.47314 0.09838 0.0
C896 C 0.31468 0.49426 0.08675 0.0
C897 C 0.32586 0.45823 0.05999 0.0
H898 H 0.39082 0.50622 0.06459 0.0
C899 C 0.40602 0.45936 0.03122 0.0
C900 C 0.42195 0.47979 0.0237 0.0
C901 C 0.3872 0.45808 0.03948 0.0
C902 C 0.37267 0.49286 0.0631 0.0
H903 H 0.26055 0.43667 0.09743 0.0
H904 H 0.2938 0.43716 0.08446 0.0
H905 H 0.36158 0.5042 0.08286 0.0
H906 H 0.43042 0.51468 0.01845 0.0
H907 H 0.39754 0.51254 0.03322 0.0
H908 H 0.33735 0.44657 0.04053 0.0
C909 C 0.29474 0.45316 0.08723 0.0
C910 C 0.35591 0.49167 0.07356 0.0
C911 C 0.2759 0.4528 0.09499 0.0
C912 C 0.4182 0.49868 0.024 0.0
C913 C 0.3996 0.49752 0.03256 0.0
C914 C 0.34272 0.45923 0.04972 0.0
C915 C 0.31397 0.47391 0.08248 0.0
C916 C 0.33223 0.47441 0.07208 0.0
C917 C 0.38426 0.47733 0.04063 0.0
C918 C 0.36621 0.47664 0.05112 0.0
H919 H 0.29634 0.50967 0.09714 0.0
H920 H 0.32899 0.51057 0.08317 0.0
H921 H 0.30773 0.445 0.05821 0.0
H922 H 0.40861 0.44458 0.03119 0.0
H923 H 0.37564 0.44237 0.04566 0.0
C924 C 0.58865 0.83436 0.07266 0.0
C925 C 0.56971 0.81213 0.07256 0.0
C926 C 0.5845 0.85284 0.06956 0.0
C927 C 0.54303 0.86635 0.04684 0.0
H928 H 0.56809 0.92072 0.07218 0.0
C929 C 0.51266 0.93252 0.03256 0.0
C930 C 0.52917 0.95561 0.03395 0.0
C931 C 0.51827 0.91586 0.03845 0.0
C932 C 0.56124 0.9058 0.06484 0.0
H933 H 0.53164 0.79173 0.07049 0.0
H934 H 0.52434 0.82389 0.06456 0.0
H935 H 0.57706 0.89017 0.0807 0.0
H936 H 0.56439 0.97941 0.04294 0.0
H937 H 0.57464 0.9502 0.05276 0.0
H938 H 0.52786 0.88186 0.03069 0.0
C939 C 0.54238 0.82706 0.06684 0.0
C940 C 0.5663 0.8883 0.06978 0.0
C941 C 0.54652 0.8087 0.07015 0.0
C942 C 0.55132 0.96172 0.0417 0.0
C943 C 0.55712 0.94496 0.04739 0.0
C944 C 0.53829 0.88388 0.04179 0.0
C945 C 0.56135 0.84926 0.06618 0.0
C946 C 0.55692 0.8683 0.06093 0.0
C947 C 0.54074 0.92179 0.04563 0.0
C948 C 0.54697 0.9037 0.05084 0.0
H949 H 0.60666 0.83731 0.07454 0.0
H950 H 0.59942 0.8698 0.0691 0.0
H951 H 0.53599 0.85129 0.03962 0.0
H952 H 0.49526 0.92725 0.02692 0.0
H953 H 0.5049 0.89827 0.03731 0.0
C954 C 0.95366 0.16074 0.42584 0.0
C955 C 0.93308 0.1543 0.41602 0.0
C956 C 0.97534 0.17878 0.42111 0.0
C957 C 0.00248 0.22694 0.3909 0.0
H958 H 0.05737 0.21802 0.39872 0.0
C959 C 0.08975 0.27844 0.35703 0.0
C960 C 0.11095 0.28687 0.36651 0.0
C961 C 0.06809 0.26316 0.36366 0.0
C962 C 0.04225 0.22087 0.39654 0.0
H963 H 0.91857 0.16231 0.39415 0.0
H964 H 0.95619 0.19324 0.38558 0.0
H965 H 0.01973 0.19086 0.40985 0.0
H966 H 0.12591 0.2855 0.39036 0.0
H967 H 0.0883 0.2587 0.40176 0.0
H968 H 0.02505 0.25662 0.37714 0.0
C969 C 0.95588 0.1848 0.39704 0.0
C970 C 0.02063 0.20534 0.40303 0.0
C971 C 0.93428 0.16695 0.40186 0.0
C972 C 0.10996 0.27941 0.38269 0.0
C973 C 0.08839 0.26394 0.38923 0.0
C974 C 0.02406 0.24231 0.38426 0.0
C975 C 0.9769 0.19066 0.40638 0.0
C976 C 0.00035 0.20806 0.40026 0.0
C977 C 0.06716 0.25572 0.37984 0.0
C978 C 0.04419 0.23942 0.38695 0.0
H979 H 0.95321 0.15112 0.43674 0.0
H980 H 0.99096 0.18303 0.42883 0.0
H981 H 0.98748 0.22993 0.38871 0.0
H982 H 0.08983 0.28386 0.34455 0.0
H983 H 0.05206 0.25698 0.35606 0.0
C984 C 0.87357 0.8347 0.42181 0.0
C985 C 0.86939 0.81331 0.42785 0.0
C986 C 0.85541 0.83727 0.41366 0.0
C987 C 0.79132 0.81231 0.4087 0.0
H988 H 0.80289 0.839 0.3656 0.0
C989 C 0.7154 0.80943 0.36747 0.0
C990 C 0.72007 0.82884 0.358 0.0
C991 C 0.73389 0.80729 0.37548 0.0
C992 C 0.79943 0.8318 0.3777 0.0
H993 H 0.84324 0.77793 0.4302 0.0
H994 H 0.81115 0.78255 0.41652 0.0
H995 H 0.83487 0.83711 0.38165 0.0
H996 H 0.74775 0.86108 0.34923 0.0
H997 H 0.77992 0.85771 0.36356 0.0
H998 H 0.75614 0.80745 0.40506 0.0
C999 C 0.82843 0.79729 0.41809 0.0
C1000 C 0.81774 0.83072 0.38685 0.0
C1001 C 0.84667 0.79466 0.42599 0.0
C1002 C 0.74362 0.8458 0.35631 0.0
C1003 C 0.76209 0.84383 0.36452 0.0
C1004 C 0.7731 0.81369 0.39966 0.0
C1005 C 0.83274 0.81854 0.41166 0.0
C1006 C 0.81376 0.82082 0.40236 0.0
C1007 C 0.75741 0.8247 0.37441 0.0
C1008 C 0.77687 0.82328 0.38399 0.0
H1009 H 0.89101 0.84925 0.42317 0.0
H1010 H 0.85906 0.85385 0.40886 0.0
H1011 H 0.78793 0.80476 0.42071 0.0
H1012 H 0.69741 0.79601 0.36888 0.0
H1013 H 0.72968 0.79207 0.38266 0.0
C1014 C 0.23343 0.06547 0.38256 0.0
C1015 C 0.22704 0.06881 0.39762 0.0
C1016 C 0.22607 0.0435 0.37734 0.0
C1017 C 0.20693 0.9855 0.39305 0.0
H1018 H 0.18375 0.96777 0.34912 0.0
C1019 C 0.16641 0.89269 0.37346 0.0
C1020 C 0.17207 0.8887 0.35829 0.0
C1021 C 0.1727 0.9147 0.37797 0.0
C1022 C 0.19045 0.97252 0.36138 0.0
H1023 H 0.20784 0.05243 0.41895 0.0
H1024 H 0.19482 0.01383 0.40992 0.0
H1025 H 0.19543 0.00624 0.3574 0.0
H1026 H 0.1888 0.90474 0.33595 0.0
H1027 H 0.20011 0.94318 0.34393 0.0
H1028 H 0.20225 0.95197 0.39704 0.0
C1029 C 0.20567 0.02807 0.40217 0.0
C1030 C 0.1971 0.99455 0.36612 0.0
C1031 C 0.21294 0.05001 0.40731 0.0
C1032 C 0.18408 0.90721 0.3477 0.0
C1033 C 0.19046 0.92925 0.35225 0.0
C1034 C 0.20039 0.96353 0.3883 0.0
C1035 C 0.21231 0.02456 0.38718 0.0
C1036 C 0.20533 1.00124 0.38203 0.0
C1037 C 0.1849 0.93327 0.36746 0.0
C1038 C 0.19199 0.95674 0.37243 0.0
H1039 H 0.24442 0.07991 0.37502 0.0
H1040 H 0.23164 0.04136 0.3658 0.0
H1041 H 0.2136 0.99026 0.40532 0.0
H1042 H 0.15703 0.87882 0.38188 0.0
H1043 H 0.16779 0.91713 0.38967 0.0
C1044 C 0.48587 0.62313 0.27039 0.0
C1045 C 0.47837 0.60434 0.28104 0.0
C1046 C 0.50281 0.64474 0.27547 0.0
C1047 C 0.52593 0.68052 0.31011 0.0
H1048 H 0.58475 0.7134 0.28802 0.0
C1049 C 0.60135 0.76412 0.33534 0.0
C1050 C 0.61664 0.78085 0.32466 0.0
C1051 C 0.58475 0.74267 0.32982 0.0
C1052 C 0.56828 0.70476 0.29419 0.0
H1053 H 0.48293 0.59322 0.30517 0.0
H1054 H 0.5117 0.63136 0.31441 0.0
H1055 H 0.55486 0.67619 0.27861 0.0
H1056 H 0.62637 0.78834 0.29975 0.0
H1057 H 0.5966 0.75138 0.28988 0.0
H1058 H 0.53846 0.70917 0.32523 0.0
C1059 C 0.50454 0.62927 0.3021 0.0
C1060 C 0.55124 0.68332 0.28882 0.0
C1061 C 0.48803 0.60756 0.29689 0.0
C1062 C 0.61492 0.77571 0.30829 0.0
C1063 C 0.59789 0.75438 0.30267 0.0
C1064 C 0.54268 0.70216 0.31525 0.0
C1065 C 0.5122 0.64802 0.2914 0.0
C1066 C 0.53003 0.67094 0.29683 0.0
C1067 C 0.58252 0.73747 0.31337 0.0
C1068 C 0.56429 0.71458 0.30749 0.0
H1069 H 0.47867 0.62098 0.2581 0.0
H1070 H 0.50838 0.65895 0.26701 0.0
H1071 H 0.50957 0.67139 0.31637 0.0
H1072 H 0.60246 0.76747 0.34807 0.0
H1073 H 0.57388 0.73012 0.3386 0.0
C1074 C 0.40618 0.9242 0.30304 0.0
C1075 C 0.40922 0.91655 0.2884 0.0
C1076 C 0.38364 0.91526 0.30916 0.0
C1077 C 0.32069 0.88626 0.29671 0.0
H1078 H 0.31051 0.86659 0.34152 0.0
C1079 C 0.2272 0.83457 0.31949 0.0
C1080 C 0.22262 0.84054 0.33433 0.0
C1081 C 0.25035 0.84332 0.31467 0.0
C1082 C 0.31312 0.87224 0.32903 0.0
H1083 H 0.39162 0.8935 0.26878 0.0
H1084 H 0.35206 0.87806 0.27927 0.0
H1085 H 0.35047 0.8839 0.33143 0.0
H1086 H 0.23874 0.85974 0.35604 0.0
H1087 H 0.27931 0.87539 0.34747 0.0
H1088 H 0.28356 0.8749 0.29424 0.0
C1089 C 0.36697 0.89111 0.28595 0.0
C1090 C 0.33597 0.88214 0.32327 0.0
C1091 C 0.38949 0.89993 0.27992 0.0
C1092 C 0.24173 0.8548 0.34454 0.0
C1093 C 0.26496 0.86371 0.33965 0.0
C1094 C 0.29794 0.87651 0.30246 0.0
C1095 C 0.36383 0.89864 0.30065 0.0
C1096 C 0.33989 0.88904 0.30701 0.0
C1097 C 0.26946 0.85841 0.32452 0.0
C1098 C 0.29384 0.86917 0.31864 0.0
H1099 H 0.42127 0.93705 0.30969 0.0
H1100 H 0.38166 0.92148 0.32045 0.0
H1101 H 0.32329 0.89178 0.28419 0.0
H1102 H 0.21287 0.82338 0.31143 0.0
H1103 H 0.25325 0.83845 0.30312 0.0
C1104 C 0.11381 0.50603 0.27329 0.0
C1105 C 0.09783 0.51045 0.28114 0.0
C1106 C 0.11665 0.48716 0.27783 0.0
C1107 C 0.11352 0.4529 0.31347 0.0
H1108 H 0.11908 0.41255 0.28426 0.0
C1109 C 0.13327 0.38172 0.33757 0.0
C1110 C 0.1483 0.37708 0.32873 0.0
C1111 C 0.12456 0.39597 0.33112 0.0
C1112 C 0.11788 0.42383 0.29259 0.0
H1113 H 0.07116 0.49808 0.29902 0.0
H1114 H 0.07648 0.46528 0.30732 0.0
H1115 H 0.10799 0.44077 0.27359 0.0
H1116 H 0.16603 0.38376 0.30618 0.0
H1117 H 0.1517 0.40931 0.29519 0.0
H1118 H 0.12442 0.43697 0.3324 0.0
C1119 C 0.08689 0.47643 0.29772 0.0
C1120 C 0.11137 0.43988 0.28645 0.0
C1121 C 0.08386 0.49513 0.29302 0.0
C1122 C 0.15436 0.38691 0.31327 0.0
C1123 C 0.14597 0.40145 0.30691 0.0
C1124 C 0.12036 0.43713 0.31958 0.0
C1125 C 0.10372 0.47257 0.29043 0.0
C1126 C 0.1092 0.4546 0.29684 0.0
C1127 C 0.131 0.40625 0.31576 0.0
C1128 C 0.12276 0.42243 0.30923 0.0
H1129 H 0.12498 0.51784 0.26427 0.0
H1130 H 0.12988 0.48468 0.2721 0.0
H1131 H 0.11237 0.46431 0.32173 0.0
H1132 H 0.12806 0.37419 0.34945 0.0
H1133 H 0.1127 0.39884 0.33818 0.0
C1134 C 0.40443 0.50723 0.27627 0.0
C1135 C 0.40647 0.52894 0.27413 0.0
C1136 C 0.38307 0.48876 0.28102 0.0
C1137 C 0.33324 0.47702 0.30501 0.0
H1138 H 0.30047 0.41812 0.28517 0.0
C1139 C 0.24371 0.40846 0.32809 0.0
C1140 C 0.23785 0.38552 0.32738 0.0
C1141 C 0.26372 0.42531 0.32065 0.0
C1142 C 0.30955 0.43431 0.29107 0.0
H1143 H 0.38736 0.54802 0.27389 0.0
H1144 H 0.35032 0.51604 0.28278 0.0
H1145 H 0.33633 0.44822 0.27342 0.0
H1146 H 0.24847 0.36224 0.31825 0.0
H1147 H 0.28405 0.39165 0.30592 0.0
H1148 H 0.30753 0.46328 0.32306 0.0
C1149 C 0.36524 0.5133 0.28092 0.0
C1150 C 0.33003 0.4516 0.28422 0.0
C1151 C 0.38641 0.53159 0.2759 0.0
C1152 C 0.25249 0.37979 0.319 0.0
C1153 C 0.27284 0.39671 0.3118 0.0
C1154 C 0.31313 0.4597 0.31204 0.0
C1155 C 0.3635 0.49181 0.28389 0.0
C1156 C 0.34192 0.47319 0.29104 0.0
C1157 C 0.27883 0.41979 0.31254 0.0
C1158 C 0.30075 0.43809 0.30511 0.0
H1159 H 0.41968 0.5048 0.27504 0.0
H1160 H 0.38222 0.47239 0.28324 0.0
H1161 H 0.3423 0.4934 0.31069 0.0
H1162 H 0.23259 0.41344 0.33421 0.0
H1163 H 0.26714 0.44269 0.32115 0.0
C1164 C 0.49596 0.91632 0.27353 0.0
C1165 C 0.49081 0.93009 0.28289 0.0
C1166 C 0.51483 0.91228 0.27811 0.0
C1167 C 0.54576 0.90751 0.31463 0.0
H1168 H 0.58935 0.90471 0.28578 0.0
C1169 C 0.61569 0.88153 0.33744 0.0
C1170 C 0.62005 0.86784 0.32737 0.0
C1171 C 0.60175 0.89131 0.33179 0.0
C1172 C 0.57713 0.90517 0.29396 0.0
H1173 H 0.50171 0.95147 0.3037 0.0
H1174 H 0.53472 0.94426 0.31192 0.0
H1175 H 0.5626 0.91909 0.2757 0.0
H1176 H 0.6129 0.85335 0.30359 0.0
H1177 H 0.58794 0.86973 0.29393 0.0
H1178 H 0.55942 0.8928 0.33273 0.0
C1179 C 0.52416 0.93652 0.3011 0.0
C1180 C 0.56195 0.91354 0.28819 0.0
C1181 C 0.50545 0.9407 0.29641 0.0
C1182 C 0.60997 0.86391 0.31162 0.0
C1183 C 0.59582 0.87348 0.30603 0.0
C1184 C 0.56073 0.89893 0.32035 0.0
C1185 C 0.52862 0.92179 0.29222 0.0
C1186 C 0.54604 0.91464 0.29846 0.0
C1187 C 0.59165 0.88741 0.31601 0.0
C1188 C 0.57647 0.89747 0.31006 0.0
H1189 H 0.48461 0.90771 0.2632 0.0
H1190 H 0.51775 0.90069 0.27113 0.0
H1191 H 0.53336 0.9078 0.32273 0.0
H1192 H 0.62342 0.88506 0.34959 0.0
H1193 H 0.59919 0.9022 0.33973 0.0
C1194 C 0.08578 0.59151 0.28812 0.0
C1195 C 0.10417 0.58594 0.28938 0.0
C1196 C 0.08901 0.61181 0.29433 0.0
C1197 C 0.12431 0.65583 0.32358 0.0
H1198 H 0.10844 0.69452 0.29533 0.0
C1199 C 0.15208 0.74839 0.33929 0.0
C1200 C 0.13688 0.7572 0.33424 0.0
C1201 C 0.14733 0.72689 0.3345 0.0
C1202 C 0.11258 0.6838 0.30352 0.0
H1203 H 0.14031 0.59695 0.29784 0.0
H1204 H 0.14591 0.63236 0.30919 0.0
H1205 H 0.10113 0.65784 0.28598 0.0
H1206 H 0.10434 0.7501 0.32071 0.0
H1207 H 0.09558 0.71236 0.31285 0.0
H1208 H 0.13537 0.68151 0.34126 0.0
C1209 C 0.12896 0.62098 0.30349 0.0
C1210 C 0.10847 0.66281 0.29811 0.0
C1211 C 0.12579 0.60081 0.29707 0.0
C1212 C 0.11654 0.74387 0.32465 0.0
C1213 C 0.1116 0.72227 0.32006 0.0
C1214 C 0.12813 0.67671 0.3291 0.0
C1215 C 0.11066 0.62676 0.30203 0.0
C1216 C 0.11442 0.64869 0.30804 0.0
C1217 C 0.12709 0.71359 0.32473 0.0
C1218 C 0.12244 0.69104 0.3191 0.0
H1219 H 0.069 0.58018 0.28219 0.0
H1220 H 0.07459 0.61581 0.29313 0.0
H1221 H 0.12885 0.64513 0.33153 0.0
H1222 H 0.16799 0.75833 0.3466 0.0
H1223 H 0.15986 0.72097 0.33814 0.0
C1224 C 0.85867 0.05673 0.41732 0.0
C1225 C 0.86434 0.07715 0.40888 0.0
C1226 C 0.84134 0.03603 0.4111 0.0
C1227 C 0.80911 0.00801 0.37356 0.0
H1228 H 0.76241 0.96527 0.40255 0.0
C1229 C 0.72689 0.9266 0.35058 0.0
C1230 C 0.71911 0.90683 0.36029 0.0
C1231 C 0.74467 0.94748 0.3563 0.0
C1232 C 0.77547 0.97682 0.39431 0.0
H1233 H 0.85672 0.09205 0.38727 0.0
H1234 H 0.82658 0.05579 0.37616 0.0
H1235 H 0.79368 1.00122 0.41275 0.0
H1236 H 0.72422 0.89354 0.3836 0.0
H1237 H 0.75546 0.92969 0.39341 0.0
H1238 H 0.79115 0.98353 0.35516 0.0
C1239 C 0.83556 0.05575 0.38758 0.0
C1240 C 0.79339 0.99748 0.40017 0.0
C1241 C 0.85278 0.07647 0.3939 0.0
C1242 C 0.72961 0.90843 0.37583 0.0
C1243 C 0.74749 0.92925 0.3815 0.0
C1244 C 0.79128 0.98724 0.36771 0.0
C1245 C 0.82945 0.0353 0.39621 0.0
C1246 C 0.81044 0.01332 0.38988 0.0
C1247 C 0.75524 0.9491 0.37185 0.0
C1248 C 0.77421 0.97134 0.37801 0.0
H1249 H 0.86764 0.05684 0.42877 0.0
H1250 H 0.83732 0.02057 0.41792 0.0
H1251 H 0.82213 0.01975 0.36537 0.0
H1252 H 0.71913 0.92601 0.33857 0.0
H1253 H 0.74988 0.9624 0.34859 0.0
C1254 C 0.96176 0.82601 0.4286 0.0
C1255 C 0.94179 0.8055 0.43242 0.0
C1256 C 0.98054 0.82606 0.42105 0.0
C1257 C 0.99219 0.7888 0.3958 0.0
H1258 H 0.05682 0.83761 0.39972 0.0
C1259 C 0.0734 0.79093 0.36744 0.0
C1260 C 0.08798 0.81095 0.3589 0.0
C1261 C 0.05467 0.78941 0.37597 0.0
C1262 C 0.03877 0.82399 0.39846 0.0
H1263 H 0.92608 0.76897 0.43218 0.0
H1264 H 0.95954 0.76884 0.42001 0.0
H1265 H 0.02744 0.836 0.41768 0.0
H1266 H 0.09421 0.84487 0.35223 0.0
H1267 H 0.0616 0.84234 0.3675 0.0
H1268 H 0.00399 0.7765 0.37688 0.0
C1269 C 0.96048 0.78498 0.42231 0.0
C1270 C 0.02192 0.82303 0.40872 0.0
C1271 C 0.94151 0.78498 0.42961 0.0
C1272 C 0.08304 0.82916 0.35857 0.0
C1273 C 0.0646 0.82781 0.3674 0.0
C1274 C 0.00918 0.78954 0.38576 0.0
C1275 C 0.97986 0.80551 0.41739 0.0
C1276 C 0.99832 0.80556 0.40741 0.0
C1277 C 0.05055 0.80806 0.37638 0.0
C1278 C 0.03251 0.80728 0.38689 0.0
H1279 H 0.96213 0.84198 0.43062 0.0
H1280 H 0.99492 0.84222 0.41732 0.0
H1281 H 0.97414 0.77536 0.39414 0.0
H1282 H 0.07691 0.77668 0.36791 0.0
H1283 H 0.04408 0.77404 0.38285 0.0
C1284 C 0.25264 0.16546 0.40389 0.0
C1285 C 0.23385 0.1439 0.40721 0.0
C1286 C 0.24848 0.18394 0.401 0.0
C1287 C 0.23673 0.22278 0.40032 0.0
H1288 H 0.17877 0.20909 0.37551 0.0
C1289 C 0.20848 0.29116 0.38134 0.0
C1290 C 0.19725 0.28894 0.366 0.0
C1291 C 0.21348 0.27415 0.38766 0.0
C1292 C 0.19515 0.21329 0.38232 0.0
H1293 H 0.19649 0.12466 0.41135 0.0
H1294 H 0.18908 0.15696 0.40686 0.0
H1295 H 0.18662 0.1785 0.38453 0.0
H1296 H 0.18341 0.26768 0.345 0.0
H1297 H 0.19267 0.23856 0.35575 0.0
H1298 H 0.24566 0.2578 0.39735 0.0
C1299 C 0.20692 0.15965 0.40585 0.0
C1300 C 0.19949 0.19564 0.38777 0.0
C1301 C 0.21108 0.14119 0.40851 0.0
C1302 C 0.19178 0.26977 0.35695 0.0
C1303 C 0.19695 0.25296 0.36317 0.0
C1304 C 0.23245 0.24052 0.39474 0.0
C1305 C 0.22543 0.18116 0.4016 0.0
C1306 C 0.22041 0.20011 0.39674 0.0
C1307 C 0.20749 0.2547 0.37871 0.0
C1308 C 0.21173 0.23599 0.38548 0.0
H1309 H 0.27032 0.16773 0.40285 0.0
H1310 H 0.26314 0.20013 0.39763 0.0
H1311 H 0.2529 0.22686 0.40737 0.0
H1312 H 0.21283 0.30571 0.38863 0.0
H1313 H 0.22147 0.27598 0.39971 0.0
C1314 C 0.62467 0.48395 0.7527 0.0
C1315 C 0.60393 0.48589 0.75126 0.0
C1316 C 0.64629 0.50198 0.74802 0.0
C1317 C 0.67006 0.553 0.7211 0.0
H1318 H 0.73003 0.56463 0.74205 0.0
C1319 C 0.75982 0.60912 0.69115 0.0
C1320 C 0.77944 0.62309 0.70115 0.0
C1321 C 0.73839 0.59328 0.69781 0.0
C1322 C 0.71347 0.56182 0.7361 0.0
H1323 H 0.5894 0.50823 0.74462 0.0
H1324 H 0.62732 0.54021 0.73675 0.0
H1325 H 0.69323 0.53667 0.75373 0.0
H1326 H 0.79161 0.63144 0.72607 0.0
H1327 H 0.7544 0.60427 0.73756 0.0
H1328 H 0.69032 0.57842 0.7036 0.0
C1329 C 0.62693 0.52464 0.74117 0.0
C1330 C 0.69229 0.54554 0.74273 0.0
C1331 C 0.60529 0.50652 0.74586 0.0
C1332 C 0.77699 0.62091 0.71795 0.0
C1333 C 0.7556 0.60517 0.72458 0.0
C1334 C 0.69125 0.56932 0.71448 0.0
C1335 C 0.64765 0.52243 0.74181 0.0
C1336 C 0.67025 0.54077 0.73528 0.0
C1337 C 0.73599 0.59103 0.71464 0.0
C1338 C 0.71329 0.57388 0.72182 0.0
H1339 H 0.62384 0.46805 0.75674 0.0
H1340 H 0.66169 0.49947 0.74857 0.0
H1341 H 0.6535 0.54965 0.71487 0.0
H1342 H 0.76103 0.61024 0.67817 0.0
H1343 H 0.72383 0.58252 0.68974 0.0
C1344 C 0.51288 0.12614 0.75961 0.0
C1345 C 0.53556 0.14482 0.76162 0.0
C1346 C 0.49463 0.12881 0.75177 0.0
C1347 C 0.48426 0.16244 0.72063 0.0
H1348 H 0.42247 0.13942 0.7385 0.0
C1349 C 0.41118 0.17853 0.68962 0.0
C1350 C 0.38751 0.1618 0.69115 0.0
C1351 C 0.42937 0.17628 0.698 0.0
C1352 C 0.43948 0.14559 0.73319 0.0
H1353 H 0.55705 0.18087 0.75733 0.0
H1354 H 0.52511 0.18554 0.74307 0.0
H1355 H 0.45396 0.13638 0.7543 0.0
H1356 H 0.36432 0.12909 0.70197 0.0
H1357 H 0.39612 0.12462 0.71603 0.0
H1358 H 0.46979 0.17095 0.69931 0.0
C1359 C 0.5215 0.16891 0.74772 0.0
C1360 C 0.45752 0.14401 0.74232 0.0
C1361 C 0.53965 0.16629 0.75584 0.0
C1362 C 0.38242 0.14233 0.70067 0.0
C1363 C 0.40064 0.13989 0.70885 0.0
C1364 C 0.46613 0.1637 0.71138 0.0
C1365 C 0.49891 0.15013 0.74553 0.0
C1366 C 0.48005 0.15247 0.73612 0.0
C1367 C 0.4243 0.15707 0.70789 0.0
C1368 C 0.44351 0.15531 0.71756 0.0
H1369 H 0.50952 0.10935 0.76364 0.0
H1370 H 0.4774 0.11405 0.75004 0.0
H1371 H 0.50145 0.16878 0.71553 0.0
H1372 H 0.41563 0.19386 0.68251 0.0
H1373 H 0.4473 0.19 0.69713 0.0
C1374 C 0.90518 0.39989 0.71709 0.0
C1375 C 0.89783 0.40355 0.73166 0.0
C1376 C 0.89776 0.37779 0.71213 0.0
C1377 C 0.87588 0.31946 0.72808 0.0
H1378 H 0.85508 0.30236 0.68372 0.0
C1379 C 0.8342 0.22656 0.70805 0.0
C1380 C 0.84058 0.22261 0.69311 0.0
C1381 C 0.84085 0.24863 0.71264 0.0
C1382 C 0.86111 0.30693 0.69611 0.0
H1383 H 0.8771 0.38762 0.7525 0.0
H1384 H 0.864 0.3488 0.74394 0.0
H1385 H 0.86745 0.34103 0.69184 0.0
H1386 H 0.85909 0.23882 0.67134 0.0
H1387 H 0.87101 0.27727 0.67947 0.0
H1388 H 0.86981 0.2855 0.73236 0.0
C1389 C 0.87559 0.36287 0.73636 0.0
C1390 C 0.86816 0.32907 0.70076 0.0
C1391 C 0.88292 0.38495 0.74123 0.0
C1392 C 0.85377 0.24123 0.68289 0.0
C1393 C 0.8605 0.2633 0.68752 0.0
C1394 C 0.86893 0.29736 0.72343 0.0
C1395 C 0.883 0.35904 0.72178 0.0
C1396 C 0.87558 0.33556 0.71679 0.0
C1397 C 0.85413 0.26728 0.70245 0.0
C1398 C 0.86143 0.2908 0.70739 0.0
H1399 H 0.91687 0.41415 0.70968 0.0
H1400 H 0.90396 0.37537 0.70093 0.0
H1401 H 0.88186 0.32405 0.74047 0.0
H1402 H 0.82393 0.2126 0.71618 0.0
H1403 H 0.83535 0.25105 0.72412 0.0
C1404 C 0.15416 0.95794 0.60142 0.0
C1405 C 0.14429 0.9394 0.61229 0.0
C1406 C 0.17097 0.97944 0.60679 0.0
C1407 C 0.19142 0.01609 0.64145 0.0
H1408 H 0.25221 0.04645 0.62157 0.0
C1409 C 0.26752 0.09891 0.66745 0.0
C1410 C 0.28399 0.11503 0.657 0.0
C1411 C 0.25059 0.07759 0.66191 0.0
C1412 C 0.23523 0.03853 0.6271 0.0
H1413 H 0.14392 0.92893 0.63732 0.0
H1414 H 0.17255 0.96685 0.64689 0.0
H1415 H 0.222 0.00952 0.61198 0.0
H1416 H 0.29541 0.12151 0.63243 0.0
H1417 H 0.26518 0.08481 0.62249 0.0
H1418 H 0.20392 0.04522 0.65612 0.0
C1419 C 0.16747 0.9646 0.63417 0.0
C1420 C 0.21797 0.01723 0.62164 0.0
C1421 C 0.15104 0.94297 0.62873 0.0
C1422 C 0.28306 0.10939 0.64081 0.0
C1423 C 0.26575 0.0882 0.63516 0.0
C1424 C 0.20845 0.03759 0.64669 0.0
C1425 C 0.17783 0.98298 0.62321 0.0
C1426 C 0.19596 0.00574 0.62884 0.0
C1427 C 0.24924 0.0719 0.64563 0.0
C1428 C 0.23076 0.04912 0.6397 0.0
H1429 H 0.14895 0.95572 0.58874 0.0
H1430 H 0.17848 0.99336 0.59812 0.0
H1431 H 0.17449 0.00769 0.64709 0.0
H1432 H 0.26795 0.10262 0.68005 0.0
H1433 H 0.23876 0.0655 0.67053 0.0
C1434 C 0.07335 0.25251 0.63982 0.0
C1435 C 0.07544 0.24466 0.62499 0.0
C1436 C 0.05147 0.24294 0.64699 0.0
C1437 C 0.99245 0.19179 0.6459 0.0
H1438 H 0.97255 0.2307 0.66561 0.0
C1439 C 0.89545 0.16592 0.65631 0.0
C1440 C 0.89006 0.17205 0.6708 0.0
C1441 C 0.91889 0.17321 0.65272 0.0
C1442 C 0.97803 0.21959 0.66039 0.0
H1443 H 0.05679 0.22081 0.60598 0.0
H1444 H 0.01828 0.20456 0.6181 0.0
H1445 H 0.0121 0.24711 0.65515 0.0
H1446 H 0.90495 0.19009 0.69311 0.0
H1447 H 0.94609 0.20305 0.6867 0.0
H1448 H 0.95801 0.16441 0.65066 0.0
C1449 C 0.03351 0.21777 0.62442 0.0
C1450 C 0.00067 0.22897 0.65439 0.0
C1451 C 0.0554 0.22727 0.61733 0.0
C1452 C 0.90856 0.1851 0.68184 0.0
C1453 C 0.93208 0.19261 0.67816 0.0
C1454 C 0.96978 0.18245 0.65179 0.0
C1455 C 0.03132 0.22539 0.63938 0.0
C1456 C 0.00798 0.21523 0.64683 0.0
C1457 C 0.93744 0.18693 0.66349 0.0
C1458 C 0.96224 0.19633 0.65885 0.0
H1459 H 0.08872 0.26592 0.64587 0.0
H1460 H 0.05042 0.24905 0.65858 0.0
H1461 H 0.99774 0.18066 0.64048 0.0
H1462 H 0.88157 0.15578 0.64758 0.0
H1463 H 0.92254 0.16876 0.64125 0.0
C1464 C 0.78243 0.8406 0.60652 0.0
C1465 C 0.76649 0.8451 0.61434 0.0
C1466 C 0.78544 0.82187 0.61124 0.0
C1467 C 0.78335 0.78873 0.6472 0.0
H1468 H 0.7877 0.74717 0.61849 0.0
C1469 C 0.80384 0.71826 0.67203 0.0
C1470 C 0.8182 0.71298 0.66298 0.0
C1471 C 0.79508 0.73245 0.66554 0.0
C1472 C 0.78687 0.75881 0.62668 0.0
H1473 H 0.73998 0.83295 0.63233 0.0
H1474 H 0.74565 0.80045 0.64099 0.0
H1475 H 0.77631 0.77506 0.60755 0.0
H1476 H 0.83477 0.71853 0.64006 0.0
H1477 H 0.82043 0.74402 0.629 0.0
H1478 H 0.79497 0.77351 0.66622 0.0
C1479 C 0.7559 0.81143 0.63126 0.0
C1480 C 0.78017 0.77465 0.62039 0.0
C1481 C 0.75268 0.82996 0.62637 0.0
C1482 C 0.82362 0.72217 0.6473 0.0
C1483 C 0.8152 0.73667 0.64091 0.0
C1484 C 0.79042 0.77317 0.65345 0.0
C1485 C 0.77271 0.80752 0.624 0.0
C1486 C 0.77841 0.78979 0.6306 0.0
C1487 C 0.80081 0.74204 0.64994 0.0
C1488 C 0.79239 0.75804 0.64328 0.0
H1489 H 0.79347 0.85225 0.59739 0.0
H1490 H 0.79863 0.81932 0.60552 0.0
H1491 H 0.78251 0.80047 0.6553 0.0
H1492 H 0.79913 0.71121 0.68408 0.0
H1493 H 0.78367 0.73576 0.67275 0.0
C1494 C 0.07456 0.84354 0.61322 0.0
C1495 C 0.07443 0.86267 0.60589 0.0
C1496 C 0.05342 0.82495 0.6181 0.0
C1497 C 0.99308 0.81133 0.62931 0.0
H1498 H 0.98182 0.74924 0.62975 0.0
C1499 C 0.92014 0.74131 0.66706 0.0
C1500 C 0.90692 0.71951 0.66064 0.0
C1501 C 0.94006 0.75796 0.6594 0.0
C1502 C 0.98454 0.76644 0.62959 0.0
H1503 H 0.05241 0.87718 0.59698 0.0
H1504 H 0.01523 0.84458 0.60511 0.0
H1505 H 0.01683 0.77916 0.61713 0.0
H1506 H 0.90441 0.69821 0.64099 0.0
H1507 H 0.93907 0.72737 0.6275 0.0
H1508 H 0.96072 0.79868 0.64153 0.0
C1509 C 0.03161 0.84399 0.60753 0.0
C1510 C 0.0048 0.78368 0.62249 0.0
C1511 C 0.05278 0.86256 0.60273 0.0
C1512 C 0.91426 0.71476 0.64636 0.0
C1513 C 0.9342 0.73149 0.63864 0.0
C1514 C 0.97287 0.79414 0.63636 0.0
C1515 C 0.03167 0.82513 0.61565 0.0
C1516 C 0.00946 0.80642 0.62237 0.0
C1517 C 0.94732 0.75338 0.64501 0.0
C1518 C 0.96841 0.77147 0.63678 0.0
H1519 H 0.09118 0.84344 0.61578 0.0
H1520 H 0.05429 0.8109 0.62441 0.0
H1521 H 0.99612 0.82861 0.62967 0.0
H1522 H 0.91514 0.7456 0.67807 0.0
H1523 H 0.94991 0.77443 0.66487 0.0
C1524 C 0.17281 0.27325 0.62918 0.0
C1525 C 0.15742 0.2617 0.61619 0.0
C1526 C 0.19225 0.26997 0.63333 0.0
C1527 C 0.23011 0.24729 0.61994 0.0
H1528 H 0.22967 0.22814 0.66472 0.0
C1529 C 0.27936 0.19867 0.64335 0.0
C1530 C 0.28968 0.20289 0.65903 0.0
C1531 C 0.26522 0.20824 0.63772 0.0
C1532 C 0.23043 0.23385 0.65226 0.0
H1533 H 0.15066 0.23879 0.59676 0.0
H1534 H 0.18502 0.23328 0.60379 0.0
H1535 H 0.20296 0.24247 0.65499 0.0
H1536 H 0.2937 0.22079 0.68102 0.0
H1537 H 0.26955 0.23795 0.6711 0.0
H1538 H 0.2576 0.23866 0.61719 0.0
C1539 C 0.18214 0.24489 0.61075 0.0
C1540 C 0.21508 0.24205 0.64669 0.0
C1541 C 0.16257 0.24805 0.6067 0.0
C1542 C 0.28574 0.217 0.66894 0.0
C1543 C 0.27184 0.22679 0.66325 0.0
C1544 C 0.2457 0.23931 0.62555 0.0
C1545 C 0.19665 0.2552 0.62445 0.0
C1546 C 0.21458 0.2486 0.63045 0.0
C1547 C 0.26131 0.22246 0.6476 0.0
C1548 C 0.2458 0.23221 0.64175 0.0
H1549 H 0.16908 0.28393 0.63654 0.0
H1550 H 0.20335 0.27832 0.64382 0.0
H1551 H 0.23013 0.25236 0.60737 0.0
H1552 H 0.282 0.1878 0.63543 0.0
H1553 H 0.25704 0.20418 0.62572 0.0
C1554 C 0.75443 0.92638 0.62037 0.0
C1555 C 0.77275 0.9207 0.62192 0.0
C1556 C 0.75761 0.94671 0.62648 0.0
C1557 C 0.79178 0.99015 0.65618 0.0
H1558 H 0.77797 0.02981 0.62748 0.0
C1559 C 0.81915 0.08227 0.67273 0.0
C1560 C 0.80446 0.09145 0.66722 0.0
C1561 C 0.81459 0.06091 0.66775 0.0
C1562 C 0.78152 0.01881 0.63579 0.0
H1563 H 0.80871 0.9316 0.63077 0.0
H1564 H 0.81415 0.96702 0.64202 0.0
H1565 H 0.77082 0.9932 0.61804 0.0
H1566 H 0.77303 0.08519 0.65258 0.0
H1567 H 0.76449 0.04764 0.64439 0.0
H1568 H 0.80197 0.01539 0.67408 0.0
C1569 C 0.79732 0.95571 0.63614 0.0
C1570 C 0.77752 0.99788 0.63032 0.0
C1571 C 0.79424 0.93553 0.62978 0.0
C1572 C 0.78482 0.07865 0.65691 0.0
C1573 C 0.78003 0.05716 0.65212 0.0
C1574 C 0.79545 0.01095 0.66176 0.0
C1575 C 0.7791 0.96156 0.63441 0.0
C1576 C 0.78274 0.98343 0.64043 0.0
C1577 C 0.79501 0.0481 0.65731 0.0
C1578 C 0.79051 0.02564 0.65159 0.0
H1579 H 0.73776 0.9151 0.61431 0.0
H1580 H 0.74326 0.9508 0.62507 0.0
H1581 H 0.79574 0.97918 0.66425 0.0
H1582 H 0.83455 0.09181 0.68059 0.0
H1583 H 0.82676 0.05472 0.6718 0.0
C1584 C 0.52464 0.3913 0.75056 0.0
C1585 C 0.53243 0.41142 0.74131 0.0
C1586 C 0.50746 0.3706 0.74425 0.0
C1587 C 0.47889 0.34132 0.70617 0.0
H1588 H 0.42841 0.30106 0.73379 0.0
C1589 C 0.39698 0.26018 0.68225 0.0
C1590 C 0.38786 0.24081 0.69243 0.0
C1591 C 0.41473 0.28111 0.68795 0.0
C1592 C 0.44252 0.31192 0.72595 0.0
H1593 H 0.52878 0.42578 0.71821 0.0
H1594 H 0.49879 0.3895 0.70699 0.0
H1595 H 0.45942 0.33708 0.74406 0.0
H1596 H 0.39056 0.22831 0.71659 0.0
H1597 H 0.42165 0.26456 0.72639 0.0
H1598 H 0.4621 0.31607 0.68809 0.0
C1599 C 0.50603 0.38968 0.71911 0.0
C1600 C 0.46032 0.33263 0.73185 0.0
C1601 C 0.52316 0.41042 0.72548 0.0
C1602 C 0.39701 0.24288 0.70842 0.0
C1603 C 0.4148 0.26375 0.71408 0.0
C1604 C 0.46113 0.32053 0.70027 0.0
C1605 C 0.49776 0.36954 0.72849 0.0
C1606 C 0.47877 0.34757 0.72206 0.0
C1607 C 0.42388 0.2832 0.70395 0.0
C1608 C 0.44272 0.3055 0.71011 0.0
H1609 H 0.53181 0.39167 0.76272 0.0
H1610 H 0.50182 0.35539 0.75171 0.0
H1611 H 0.49298 0.35233 0.69836 0.0
H1612 H 0.39033 0.25925 0.66988 0.0
H1613 H 0.42102 0.29573 0.67984 0.0
C1614 C 0.62831 0.15857 0.76202 0.0
C1615 C 0.60845 0.13784 0.76559 0.0
C1616 C 0.64711 0.15909 0.75419 0.0
C1617 C 0.65875 0.1232 0.72759 0.0
H1618 H 0.72353 0.17153 0.73229 0.0
C1619 C 0.7394 0.12526 0.69879 0.0
C1620 C 0.755 0.14572 0.69114 0.0
C1621 C 0.72055 0.12376 0.70715 0.0
C1622 C 0.70544 0.15807 0.73079 0.0
H1623 H 0.59296 0.10138 0.76464 0.0
H1624 H 0.62645 0.10203 0.75191 0.0
H1625 H 0.69411 0.16926 0.7505 0.0
H1626 H 0.7629 0.18045 0.68582 0.0
H1627 H 0.73001 0.17791 0.70078 0.0
H1628 H 0.67049 0.11171 0.70817 0.0
C1629 C 0.62728 0.11799 0.75464 0.0
C1630 C 0.68857 0.15673 0.7412 0.0
C1631 C 0.60831 0.11755 0.76226 0.0
C1632 C 0.75093 0.16442 0.69146 0.0
C1633 C 0.73233 0.16304 0.70013 0.0
C1634 C 0.67573 0.12435 0.71737 0.0
C1635 C 0.64653 0.13878 0.74997 0.0
C1636 C 0.66494 0.13937 0.73967 0.0
C1637 C 0.71729 0.14282 0.70829 0.0
C1638 C 0.69915 0.1419 0.7188 0.0
H1639 H 0.62855 0.17438 0.76443 0.0
H1640 H 0.66142 0.17542 0.75068 0.0
H1641 H 0.64067 0.1099 0.72577 0.0
H1642 H 0.74223 0.11062 0.69874 0.0
H1643 H 0.70922 0.10801 0.71339 0.0
C1644 C 0.92208 0.50067 0.73957 0.0
C1645 C 0.90308 0.47848 0.73961 0.0
C1646 C 0.918 0.51918 0.7364 0.0
C1647 C 0.87672 0.53275 0.7136 0.0
H1648 H 0.90196 0.58729 0.73875 0.0
C1649 C 0.84727 0.59954 0.69875 0.0
C1650 C 0.86386 0.62258 0.70032 0.0
C1651 C 0.85266 0.58274 0.70465 0.0
C1652 C 0.89507 0.57233 0.73145 0.0
H1653 H 0.86499 0.45818 0.73772 0.0
H1654 H 0.8578 0.49039 0.73164 0.0
H1655 H 0.91063 0.55664 0.74748 0.0
H1656 H 0.89903 0.64614 0.70955 0.0
H1657 H 0.90891 0.61669 0.71936 0.0
H1658 H 0.86184 0.54833 0.69726 0.0
C1659 C 0.87583 0.4935 0.73389 0.0
C1660 C 0.89995 0.55476 0.73652 0.0
C1661 C 0.87991 0.47511 0.73727 0.0
C1662 C 0.8859 0.62849 0.70817 0.0
C1663 C 0.89148 0.6116 0.71387 0.0
C1664 C 0.87216 0.55035 0.70841 0.0
C1665 C 0.89486 0.51566 0.73309 0.0
C1666 C 0.89051 0.5347 0.72774 0.0
C1667 C 0.87499 0.58847 0.71202 0.0
C1668 C 0.88094 0.57026 0.71737 0.0
H1669 H 0.94008 0.50358 0.74137 0.0
H1670 H 0.93296 0.5361 0.73583 0.0
H1671 H 0.86963 0.51763 0.70643 0.0
H1672 H 0.82996 0.59442 0.69302 0.0
H1673 H 0.8392 0.56519 0.70343 0.0
C1674 C 0.4651 0.93038 0.23718 0.0
C1675 C 0.47484 0.94303 0.25117 0.0
C1676 C 0.47666 0.93782 0.22272 0.0
C1677 C 0.51673 0.99006 0.20188 0.0
H1678 H 0.51561 0.94868 0.1704 0.0
C1679 C 0.54698 0.02002 0.1371 0.0
C1680 C 0.5314 0.00607 0.12491 0.0
C1681 C 0.54464 0.01237 0.15316 0.0
C1682 C 0.51603 0.96045 0.17906 0.0
H1683 H 0.50453 0.97263 0.26147 0.0
H1684 H 0.52504 0.98596 0.23601 0.0
H1685 H 0.50357 0.93494 0.19778 0.0
H1686 H 0.50129 0.97307 0.12003 0.0
H1687 H 0.4972 0.95978 0.14794 0.0
H1688 H 0.5283 0.01536 0.18304 0.0
C1689 C 0.50836 0.97036 0.23619 0.0
C1690 C 0.50918 0.95259 0.19473 0.0
C1691 C 0.49679 0.96277 0.25071 0.0
C1692 C 0.51383 0.98412 0.12908 0.0
C1693 C 0.5115 0.97648 0.1451 0.0
C1694 C 0.52353 0.99792 0.1862 0.0
C1695 C 0.49821 0.95812 0.22199 0.0
C1696 C 0.50886 0.96717 0.20618 0.0
C1697 C 0.52669 0.9906 0.15736 0.0
C1698 C 0.52265 0.98304 0.1745 0.0
H1699 H 0.4483 0.91493 0.23743 0.0
H1700 H 0.46824 0.92812 0.21198 0.0
H1701 H 0.51642 1.00165 0.21038 0.0
H1702 H 0.56092 0.03691 0.13424 0.0
H1703 H 0.55679 0.02355 0.16231 0.0
C1704 C 0.10239 0.5311 0.23748 0.0
C1705 C 0.08621 0.52737 0.24926 0.0
C1706 C 0.09436 0.52293 0.22193 0.0
C1707 C 0.04008 0.48607 0.19681 0.0
H1708 H 0.07377 0.52987 0.16313 0.0
C1709 C 0.99854 0.48786 0.13357 0.0
C1710 C 0.01265 0.4925 0.12017 0.0
C1711 C 0.00816 0.48902 0.14924 0.0
C1712 C 0.06435 0.51729 0.17235 0.0
H1713 H 0.04929 0.5121 0.25454 0.0
H1714 H 0.03491 0.49807 0.22729 0.0
H1715 H 0.08959 0.53679 0.19078 0.0
H1716 H 0.04783 0.50117 0.11285 0.0
H1717 H 0.06469 0.50368 0.14022 0.0
H1718 H 0.0143 0.46711 0.1783 0.0
C1719 C 0.05381 0.50668 0.22999 0.0
C1720 C 0.07347 0.52119 0.18824 0.0
C1721 C 0.06193 0.51467 0.24557 0.0
C1722 C 0.03654 0.49794 0.12286 0.0
C1723 C 0.0462 0.49928 0.13854 0.0
C1724 C 0.03085 0.48228 0.18091 0.0
C1725 C 0.06993 0.51126 0.21783 0.0
C1726 C 0.06131 0.50579 0.20073 0.0
C1727 C 0.03216 0.49502 0.1519 0.0
C1728 C 0.04275 0.498 0.16855 0.0
H1729 H 0.12121 0.54122 0.24015 0.0
H1730 H 0.10729 0.52644 0.21298 0.0
H1731 H 0.03042 0.47366 0.20606 0.0
H1732 H 0.98019 0.48396 0.132 0.0
H1733 H 0.99698 0.48597 0.1593 0.0
C1734 C 0.45237 0.52447 0.24591 0.0
C1735 C 0.43963 0.53629 0.24722 0.0
C1736 C 0.45233 0.51504 0.23125 0.0
C1737 C 0.42372 0.50002 0.19026 0.0
H1738 H 0.48745 0.51759 0.17794 0.0
C1739 C 0.44576 0.47297 0.13058 0.0
C1740 C 0.46473 0.49005 0.12217 0.0
C1741 C 0.44077 0.47691 0.14594 0.0
C1742 C 0.46954 0.5126 0.18117 0.0
H1743 H 0.41565 0.54636 0.23487 0.0
H1744 H 0.41524 0.52965 0.20911 0.0
H1745 H 0.481 0.52572 0.20488 0.0
H1746 H 0.49328 0.52468 0.12333 0.0
H1747 H 0.4846 0.53154 0.15007 0.0
H1748 H 0.41242 0.48722 0.16633 0.0
C1749 C 0.42525 0.52757 0.21937 0.0
C1750 C 0.46579 0.51699 0.19669 0.0
C1751 C 0.42539 0.53708 0.23406 0.0
C1752 C 0.47842 0.51122 0.12941 0.0
C1753 C 0.47359 0.51508 0.1448 0.0
C1754 C 0.42746 0.4954 0.17473 0.0
C1755 C 0.43948 0.51723 0.21763 0.0
C1756 C 0.44287 0.51093 0.20141 0.0
C1757 C 0.45484 0.49793 0.1533 0.0
C1758 C 0.45048 0.5019 0.16995 0.0
H1759 H 0.46347 0.52378 0.25598 0.0
H1760 H 0.46315 0.50684 0.2304 0.0
H1761 H 0.40585 0.4951 0.19354 0.0
H1762 H 0.43477 0.45653 0.12528 0.0
H1763 H 0.42626 0.46333 0.15221 0.0
C1764 C 0.95453 0.47946 0.77078 0.0
C1765 C 0.93014 0.46927 0.7672 0.0
C1766 C 0.96369 0.48877 0.78589 0.0
C1767 C 0.94985 0.5064 0.82373 0.0
H1768 H 0.99365 0.487 0.84299 0.0
C1769 C 0.97382 0.5107 0.89226 0.0
C1770 C 0.99741 0.51689 0.89701 0.0
C1771 C 0.96622 0.50706 0.87603 0.0
C1772 C 0.98174 0.49289 0.83775 0.0
H1773 H 0.89619 0.46175 0.77589 0.0
H1774 H 0.91205 0.47799 0.80253 0.0
H1775 H 0.97982 0.47824 0.81508 0.0
H1776 H 0.03148 0.52405 0.88836 0.0
H1777 H 0.01839 0.51825 0.86011 0.0
H1778 H 0.95162 0.52083 0.84657 0.0
C1779 C 0.92421 0.479 0.79368 0.0
C1780 C 0.97382 0.48789 0.82171 0.0
C1781 C 0.9151 0.46972 0.77851 0.0
C1782 C 0.01325 0.51954 0.88513 0.0
C1783 C 0.00567 0.51595 0.86893 0.0
C1784 C 0.95784 0.51147 0.83981 0.0
C1785 C 0.94853 0.48795 0.79771 0.0
C1786 C 0.95774 0.49452 0.81452 0.0
C1787 C 0.98203 0.50951 0.86419 0.0
C1788 C 0.97382 0.50469 0.84702 0.0
H1789 H 0.96632 0.47936 0.76206 0.0
H1790 H 0.98255 0.49596 0.7885 0.0
H1791 H 0.93759 0.51187 0.81849 0.0
H1792 H 0.96123 0.50878 0.90108 0.0
H1793 H 0.94783 0.5019 0.87281 0.0
C1794 C 0.55904 0.48745 0.78094 0.0
C1795 C 0.5711 0.47508 0.77916 0.0
C1796 C 0.5572 0.49432 0.7962 0.0
C1797 C 0.55759 0.47619 0.83888 0.0
H1798 H 0.54933 0.52828 0.84678 0.0
C1799 C 0.53606 0.49371 0.90188 0.0
C1800 C 0.51842 0.50034 0.90219 0.0
C1801 C 0.54528 0.49268 0.88727 0.0
C1802 C 0.55147 0.51358 0.84475 0.0
H1803 H 0.59199 0.4614 0.79149 0.0
H1804 H 0.58978 0.47417 0.81819 0.0
H1805 H 0.56249 0.52466 0.82066 0.0
H1806 H 0.49645 0.51067 0.88712 0.0
H1807 H 0.51267 0.5091 0.86178 0.0
H1808 H 0.54636 0.46503 0.86291 0.0
C1809 C 0.5812 0.47817 0.80792 0.0
C1810 C 0.55904 0.5115 0.82976 0.0
C1811 C 0.58288 0.47121 0.79264 0.0
C1812 C 0.51031 0.50591 0.88746 0.0
C1813 C 0.51962 0.50501 0.87288 0.0
C1814 C 0.55017 0.47835 0.85389 0.0
C1815 C 0.56747 0.48898 0.81001 0.0
C1816 C 0.56188 0.49259 0.82651 0.0
C1817 C 0.53722 0.49837 0.87258 0.0
C1818 C 0.54665 0.49689 0.85695 0.0
H1819 H 0.54946 0.49016 0.77068 0.0
H1820 H 0.54631 0.5024 0.79725 0.0
H1821 H 0.55908 0.46115 0.83681 0.0
H1822 H 0.54307 0.48965 0.91296 0.0
H1823 H 0.55899 0.48771 0.8875 0.0
C1824 C 0.59236 0.12114 0.80828 0.0
C1825 C 0.57864 0.11233 0.79411 0.0
C1826 C 0.59131 0.10656 0.82117 0.0
C1827 C 0.54749 0.05201 0.83745 0.0
H1828 H 0.59711 0.0601 0.86936 0.0
C1829 C 0.52518 0.99745 0.89528 0.0
C1830 C 0.53538 0.00917 0.90965 0.0
C1831 C 0.53371 0.00773 0.88038 0.0
C1832 C 0.58305 0.05768 0.86057 0.0
H1833 H 0.55428 0.08188 0.78161 0.0
H1834 H 0.55293 0.05616 0.80382 0.0
H1835 H 0.60723 0.08261 0.84424 0.0
H1836 H 0.56362 0.04037 0.91961 0.0
H1837 H 0.57782 0.05862 0.89363 0.0
H1838 H 0.52318 0.02792 0.85383 0.0
C1839 C 0.56423 0.07423 0.80521 0.0
C1840 C 0.58887 0.07053 0.84618 0.0
C1841 C 0.56517 0.08881 0.79246 0.0
C1842 C 0.555 0.03103 0.90877 0.0
C1843 C 0.56341 0.04138 0.89386 0.0
C1844 C 0.54169 0.0393 0.85178 0.0
C1845 C 0.57643 0.08299 0.81997 0.0
C1846 C 0.57109 0.06799 0.83455 0.0
C1847 C 0.55251 0.03005 0.87946 0.0
C1848 C 0.55932 0.04214 0.86362 0.0
H1849 H 0.60249 0.13932 0.80976 0.0
H1850 H 0.60076 0.11386 0.83241 0.0
H1851 H 0.53326 0.04999 0.82893 0.0
H1852 H 0.51 0.98064 0.89547 0.0
H1853 H 0.52516 0.99836 0.86953 0.0
C1854 C 0.15974 0.29293 0.5843 0.0
C1855 C 0.13812 0.27288 0.58519 0.0
C1856 C 0.17046 0.30066 0.5695 0.0
C1857 C 0.16981 0.28274 0.52785 0.0
H1858 H 0.18914 0.34564 0.51645 0.0
C1859 C 0.17575 0.31515 0.46225 0.0
C1860 C 0.19368 0.33704 0.45833 0.0
C1861 C 0.17285 0.3073 0.47823 0.0
C1862 C 0.18427 0.32815 0.51952 0.0
H1863 H 0.11127 0.24446 0.57186 0.0
H1864 H 0.12967 0.25795 0.54591 0.0
H1865 H 0.17742 0.33178 0.54378 0.0
H1866 H 0.22319 0.36756 0.46805 0.0
H1867 H 0.21807 0.35383 0.49603 0.0
H1868 H 0.17608 0.27897 0.50346 0.0
C1869 C 0.13849 0.26776 0.55654 0.0
C1870 C 0.17755 0.32021 0.5352 0.0
C1871 C 0.1278 0.26016 0.57129 0.0
C1872 C 0.20899 0.35073 0.47072 0.0
C1873 C 0.20608 0.34287 0.48673 0.0
C1874 C 0.17656 0.29068 0.51218 0.0
C1875 C 0.15975 0.28828 0.55542 0.0
C1876 C 0.16973 0.2973 0.53943 0.0
C1877 C 0.1878 0.32115 0.49068 0.0
C1878 C 0.18334 0.31335 0.50774 0.0
H1879 H 0.16794 0.30286 0.59497 0.0
H1880 H 0.18695 0.31641 0.56904 0.0
H1881 H 0.16424 0.26508 0.53084 0.0
H1882 H 0.1634 0.30431 0.45303 0.0
H1883 H 0.15832 0.29065 0.48088 0.0
C1884 C 0.77117 0.86554 0.57041 0.0
C1885 C 0.75502 0.86166 0.58226 0.0
C1886 C 0.76309 0.85717 0.55491 0.0
C1887 C 0.70884 0.81952 0.53007 0.0
H1888 H 0.74164 0.86338 0.49619 0.0
C1889 C 0.66623 0.82047 0.46708 0.0
C1890 C 0.68021 0.8253 0.45358 0.0
C1891 C 0.67609 0.82177 0.48269 0.0
C1892 C 0.73247 0.85078 0.50546 0.0
H1893 H 0.71813 0.84586 0.58771 0.0
H1894 H 0.70367 0.83147 0.56056 0.0
H1895 H 0.75774 0.87064 0.52377 0.0
H1896 H 0.71541 0.83445 0.44602 0.0
H1897 H 0.73268 0.8372 0.47329 0.0
H1898 H 0.68301 0.8002 0.51168 0.0
C1899 C 0.72258 0.84037 0.56317 0.0
C1900 C 0.74176 0.85487 0.52131 0.0
C1901 C 0.73075 0.84857 0.5787 0.0
C1902 C 0.70421 0.83106 0.45611 0.0
C1903 C 0.7141 0.83254 0.47173 0.0
C1904 C 0.69944 0.81553 0.51421 0.0
C1905 C 0.73865 0.84512 0.55093 0.0
C1906 C 0.72991 0.83946 0.53387 0.0
C1907 C 0.7002 0.82811 0.48519 0.0
C1908 C 0.71101 0.83128 0.50178 0.0
H1909 H 0.78997 0.87593 0.57299 0.0
H1910 H 0.77599 0.86082 0.54591 0.0
H1911 H 0.69943 0.8071 0.53937 0.0
H1912 H 0.6478 0.81632 0.46563 0.0
H1913 H 0.665 0.81858 0.49282 0.0
C1914 C 0.12089 0.85884 0.57848 0.0
C1915 C 0.10774 0.87036 0.57918 0.0
C1916 C 0.12141 0.84909 0.5641 0.0
C1917 C 0.0937 0.83271 0.52293 0.0
H1918 H 0.15798 0.85125 0.51136 0.0
C1919 C 0.11755 0.80649 0.46363 0.0
C1920 C 0.13638 0.82388 0.4553 0.0
C1921 C 0.11231 0.81014 0.479 0.0
C1922 C 0.13993 0.84596 0.51439 0.0
H1923 H 0.08352 0.87947 0.56609 0.0
H1924 H 0.08404 0.86218 0.54085 0.0
H1925 H 0.15069 0.85941 0.53807 0.0
H1926 H 0.16447 0.8587 0.45663 0.0
H1927 H 0.15537 0.86504 0.48339 0.0
H1928 H 0.08309 0.81964 0.49903 0.0
C1929 C 0.09399 0.86061 0.55134 0.0
C1930 C 0.1357 0.85038 0.52978 0.0
C1931 C 0.09359 0.87045 0.56574 0.0
C1932 C 0.14973 0.84501 0.46265 0.0
C1933 C 0.14467 0.84857 0.47806 0.0
C1934 C 0.09793 0.82807 0.50754 0.0
C1935 C 0.10866 0.85061 0.55018 0.0
C1936 C 0.11258 0.84403 0.53421 0.0
C1937 C 0.12598 0.83116 0.48646 0.0
C1938 C 0.12114 0.83495 0.50303 0.0
H1939 H 0.13192 0.85868 0.58878 0.0
H1940 H 0.13257 0.84118 0.56368 0.0
H1941 H 0.07569 0.82755 0.52598 0.0
H1942 H 0.10682 0.79007 0.45824 0.0
H1943 H 0.09787 0.79636 0.48518 0.0
C1944 C 0.58128 0.80412 0.11109 0.0
C1945 C 0.59645 0.80276 0.10032 0.0
C1946 C 0.58989 0.81315 0.12639 0.0
C1947 C 0.63632 0.81838 0.15597 0.0
H1948 H 0.61662 0.85449 0.17955 0.0
C1949 C 0.64894 0.82574 0.22485 0.0
C1950 C 0.65837 0.84759 0.2311 0.0
C1951 C 0.64147 0.82186 0.20864 0.0
C1952 C 0.62237 0.84451 0.17307 0.0
H1953 H 0.63252 0.8111 0.09626 0.0
H1954 H 0.64783 0.82703 0.123 0.0
H1955 H 0.60451 0.84684 0.15102 0.0
H1956 H 0.66668 0.88237 0.2254 0.0
H1957 H 0.65365 0.87557 0.197 0.0
H1958 H 0.65402 0.81587 0.17793 0.0
C1959 C 0.62923 0.82081 0.11983 0.0
C1960 C 0.61533 0.84004 0.1568 0.0
C1961 C 0.62058 0.81184 0.10456 0.0
C1962 C 0.6597 0.86539 0.22087 0.0
C1963 C 0.65206 0.86147 0.20467 0.0
C1964 C 0.64317 0.82269 0.17222 0.0
C1965 C 0.61382 0.82086 0.1311 0.0
C1966 C 0.6222 0.82686 0.1481 0.0
C1967 C 0.64314 0.83971 0.19834 0.0
C1968 C 0.63616 0.83567 0.18098 0.0
H1969 H 0.56255 0.79701 0.10799 0.0
H1970 H 0.57757 0.81284 0.13483 0.0
H1971 H 0.64162 0.8079 0.14968 0.0
H1972 H 0.64784 0.81172 0.2324 0.0
H1973 H 0.63442 0.80485 0.20414 0.0
C1974 C 0.23028 0.82306 0.11488 0.0
C1975 C 0.23889 0.80766 0.11347 0.0
C1976 C 0.22795 0.8297 0.13014 0.0
C1977 C 0.21752 0.80564 0.17139 0.0
H1978 H 0.2232 0.86343 0.18257 0.0
C1979 C 0.19523 0.81998 0.23464 0.0
C1980 C 0.18298 0.83244 0.23564 0.0
C1981 C 0.20472 0.81906 0.22015 0.0
C1982 C 0.22131 0.84711 0.17959 0.0
H1983 H 0.25322 0.78821 0.12651 0.0
H1984 H 0.25011 0.80035 0.15317 0.0
H1985 H 0.2367 0.85948 0.1566 0.0
H1986 H 0.17174 0.85419 0.22203 0.0
H1987 H 0.1876 0.85199 0.19668 0.0
H1988 H 0.20162 0.79301 0.19405 0.0
C1989 C 0.2447 0.80706 0.14261 0.0
C1990 C 0.22914 0.84489 0.16471 0.0
C1991 C 0.24691 0.80041 0.12739 0.0
C1992 C 0.18072 0.84414 0.22172 0.0
C1993 C 0.19016 0.84316 0.20719 0.0
C1994 C 0.20965 0.80783 0.18618 0.0
C1995 C 0.23416 0.82094 0.14423 0.0
C1996 C 0.22729 0.82408 0.1604 0.0
C1997 C 0.20217 0.83048 0.20617 0.0
C1998 C 0.21133 0.82855 0.19051 0.0
H1999 H 0.22348 0.82837 0.10427 0.0
H2000 H 0.21966 0.84031 0.13089 0.0
H2001 H 0.21523 0.78919 0.16835 0.0
H2002 H 0.19718 0.81057 0.24502 0.0
H2003 H 0.21411 0.80937 0.21993 0.0
C2004 C 0.23365 0.42455 0.12548 0.0
C2005 C 0.24686 0.44807 0.12721 0.0
C2006 C 0.23256 0.40996 0.13826 0.0
C2007 C 0.25617 0.40631 0.17961 0.0
H2008 H 0.19035 0.36324 0.18642 0.0
C2009 C 0.22075 0.36626 0.2418 0.0
C2010 C 0.20134 0.34425 0.24248 0.0
C2011 C 0.22944 0.3768 0.22698 0.0
C2012 C 0.20889 0.37475 0.18461 0.0
H2013 H 0.27004 0.47507 0.14308 0.0
H2014 H 0.26805 0.44959 0.16578 0.0
H2015 H 0.20099 0.3854 0.16158 0.0
H2016 H 0.17662 0.31569 0.22806 0.0
H2017 H 0.19228 0.33376 0.20229 0.0
H2018 H 0.26387 0.39593 0.20297 0.0
C2019 C 0.25895 0.4423 0.15444 0.0
C2020 C 0.21502 0.38751 0.17031 0.0
C2021 C 0.26016 0.45689 0.14153 0.0
C2022 C 0.19162 0.33262 0.22802 0.0
C2023 C 0.20043 0.34309 0.21321 0.0
C2024 C 0.25003 0.39342 0.19396 0.0
C2025 C 0.24431 0.41871 0.15315 0.0
C2026 C 0.23866 0.40365 0.1677 0.0
C2027 C 0.21906 0.36552 0.21249 0.0
C2028 C 0.22624 0.37771 0.19672 0.0
H2029 H 0.22302 0.4176 0.11454 0.0
H2030 H 0.22145 0.39187 0.1368 0.0
H2031 H 0.27455 0.41852 0.1779 0.0
H2032 H 0.229 0.37555 0.25272 0.0
H2033 H 0.24369 0.39412 0.2269 0.0
C2034 C 0.79196 0.58969 0.90581 0.0
C2035 C 0.80282 0.60409 0.91886 0.0
C2036 C 0.80102 0.59623 0.8905 0.0
C2037 C 0.85306 0.63743 0.868 0.0
H2038 H 0.80546 0.62649 0.83376 0.0
C2039 C 0.87346 0.68161 0.80489 0.0
C2040 C 0.86053 0.6685 0.79155 0.0
C2041 C 0.86838 0.67261 0.82055 0.0
C2042 C 0.81899 0.62938 0.84312 0.0
H2043 H 0.83209 0.63588 0.92666 0.0
H2044 H 0.84799 0.64778 0.8997 0.0
H2045 H 0.79324 0.61274 0.86093 0.0
H2046 H 0.83247 0.63547 0.7842 0.0
H2047 H 0.82398 0.61969 0.81143 0.0
H2048 H 0.87881 0.65453 0.85006 0.0
C2049 C 0.83259 0.63133 0.90126 0.0
C2050 C 0.81198 0.62148 0.85871 0.0
C2051 C 0.82353 0.62466 0.91663 0.0
C2052 C 0.84294 0.64597 0.79418 0.0
C2053 C 0.83787 0.637 0.8098 0.0
C2054 C 0.86009 0.64541 0.85234 0.0
C2055 C 0.82107 0.61739 0.88796 0.0
C2056 C 0.8289 0.62538 0.87134 0.0
C2057 C 0.85021 0.65034 0.82317 0.0
C2058 C 0.8431 0.64146 0.83974 0.0
H2059 H 0.77622 0.57353 0.90746 0.0
H2060 H 0.79207 0.58485 0.8806 0.0
H2061 H 0.86651 0.64055 0.87745 0.0
H2062 H 0.88731 0.69893 0.80324 0.0
H2063 H 0.87811 0.68334 0.83062 0.0
C2064 C 0.43651 0.20046 0.90346 0.0
C2065 C 0.42022 0.19553 0.91542 0.0
C2066 C 0.42865 0.1925 0.88785 0.0
C2067 C 0.37502 0.15429 0.8627 0.0
H2068 H 0.40708 0.19938 0.82932 0.0
C2069 C 0.33273 0.15512 0.79949 0.0
C2070 C 0.34706 0.16057 0.78612 0.0
C2071 C 0.34237 0.15645 0.81517 0.0
C2072 C 0.39813 0.18646 0.83845 0.0
H2073 H 0.3833 0.17837 0.9209 0.0
H2074 H 0.36919 0.16473 0.89353 0.0
H2075 H 0.42282 0.2064 0.85698 0.0
H2076 H 0.38267 0.17084 0.77886 0.0
H2077 H 0.39954 0.17367 0.80626 0.0
H2078 H 0.34974 0.13485 0.84408 0.0
C2079 C 0.38808 0.17411 0.89615 0.0
C2080 C 0.40721 0.19042 0.85435 0.0
C2081 C 0.39604 0.18188 0.9118 0.0
C2082 C 0.37119 0.16697 0.78885 0.0
C2083 C 0.38086 0.16849 0.80454 0.0
C2084 C 0.36581 0.15044 0.84679 0.0
C2085 C 0.40426 0.17986 0.88385 0.0
C2086 C 0.39565 0.17451 0.86673 0.0
C2087 C 0.3666 0.16344 0.81787 0.0
C2088 C 0.37714 0.16661 0.83454 0.0
H2089 H 0.45521 0.21132 0.90607 0.0
H2090 H 0.44165 0.19692 0.8788 0.0
H2091 H 0.36584 0.1415 0.87185 0.0
H2092 H 0.31417 0.15046 0.7979 0.0
H2093 H 0.33101 0.15276 0.82522 0.0
C2094 C 0.78662 0.1916 0.91247 0.0
C2095 C 0.77376 0.20331 0.91374 0.0
C2096 C 0.78667 0.18217 0.89783 0.0
C2097 C 0.75808 0.1669 0.85685 0.0
H2098 H 0.82189 0.18472 0.84455 0.0
C2099 C 0.78032 0.13977 0.79727 0.0
C2100 C 0.79923 0.15688 0.78883 0.0
C2101 C 0.77532 0.14374 0.81261 0.0
C2102 C 0.80396 0.17965 0.84777 0.0
H2103 H 0.74966 0.21319 0.90134 0.0
H2104 H 0.74939 0.19647 0.87562 0.0
H2105 H 0.81536 0.1929 0.87145 0.0
H2106 H 0.82765 0.19158 0.78992 0.0
H2107 H 0.81895 0.19848 0.81663 0.0
H2108 H 0.74683 0.15396 0.83294 0.0
C2109 C 0.75944 0.19449 0.88589 0.0
C2110 C 0.80017 0.18408 0.86328 0.0
C2111 C 0.75949 0.20399 0.90056 0.0
C2112 C 0.81284 0.1781 0.79602 0.0
C2113 C 0.808 0.18198 0.8114 0.0
C2114 C 0.76187 0.16224 0.84133 0.0
C2115 C 0.77378 0.18426 0.88419 0.0
C2116 C 0.77723 0.17794 0.86799 0.0
C2117 C 0.7893 0.16481 0.81994 0.0
C2118 C 0.78491 0.16883 0.83657 0.0
H2119 H 0.79774 0.19099 0.92255 0.0
H2120 H 0.79757 0.17406 0.89701 0.0
H2121 H 0.7402 0.16191 0.86012 0.0
H2122 H 0.76939 0.1233 0.792 0.0
H2123 H 0.76085 0.13015 0.81891 0.0
C2124 C 0.24857 0.13666 0.4446 0.0
C2125 C 0.26271 0.13458 0.43333 0.0
C2126 C 0.2583 0.14595 0.45966 0.0
C2127 C 0.30595 0.15103 0.48804 0.0
H2128 H 0.28825 0.18834 0.51202 0.0
C2129 C 0.32 0.15875 0.55692 0.0
C2130 C 0.32955 0.18059 0.56322 0.0
C2131 C 0.31263 0.15498 0.54068 0.0
C2132 C 0.29348 0.17805 0.50543 0.0
H2133 H 0.29816 0.14189 0.42821 0.0
H2134 H 0.3154 0.15819 0.4546 0.0
H2135 H 0.275 0.18037 0.48371 0.0
H2136 H 0.33834 0.2155 0.55755 0.0
H2137 H 0.32548 0.2089 0.52912 0.0
H2138 H 0.32424 0.1485 0.50972 0.0
C2139 C 0.29674 0.15235 0.45195 0.0
C2140 C 0.28578 0.17339 0.48927 0.0
C2141 C 0.28698 0.14313 0.43689 0.0
C2142 C 0.33125 0.19852 0.55299 0.0
C2143 C 0.32371 0.19472 0.53677 0.0
C2144 C 0.31349 0.15555 0.50418 0.0
C2145 C 0.28234 0.15322 0.46368 0.0
C2146 C 0.29182 0.1597 0.48044 0.0
C2147 C 0.31452 0.17294 0.53041 0.0
C2148 C 0.30716 0.16892 0.5131 0.0
H2149 H 0.22975 0.12992 0.44207 0.0
H2150 H 0.24672 0.14623 0.46847 0.0
H2151 H 0.31064 0.14018 0.48164 0.0
H2152 H 0.31863 0.14463 0.56447 0.0
H2153 H 0.30537 0.13796 0.53617 0.0
C2154 C 0.91492 0.13513 0.46077 0.0
C2155 C 0.90497 0.14042 0.44689 0.0
C2156 C 0.9129 0.14218 0.4759 0.0
C2157 C 0.89247 0.17746 0.49707 0.0
H2158 H 0.87575 0.12974 0.52973 0.0
C2159 C 0.84309 0.17331 0.55428 0.0
C2160 C 0.85029 0.16678 0.569 0.0
C2161 C 0.85247 0.17228 0.53976 0.0
C2162 C 0.88068 0.14339 0.52085 0.0
H2163 H 0.88589 0.15778 0.43768 0.0
H2164 H 0.882 0.17008 0.46406 0.0
H2165 H 0.88873 0.12544 0.50388 0.0
H2166 H 0.87351 0.15439 0.57982 0.0
H2167 H 0.88948 0.1522 0.55448 0.0
H2168 H 0.88354 0.19499 0.51401 0.0
C2169 C 0.89192 0.16096 0.46338 0.0
C2170 C 0.88827 0.141 0.50598 0.0
C2171 C 0.89423 0.15409 0.44823 0.0
C2172 C 0.86716 0.15917 0.56874 0.0
C2173 C 0.87642 0.158 0.5542 0.0
C2174 C 0.88469 0.17977 0.51193 0.0
C2175 C 0.90039 0.1543 0.47752 0.0
C2176 C 0.89414 0.15792 0.4938 0.0
C2177 C 0.86919 0.16453 0.53952 0.0
C2178 C 0.87852 0.16267 0.52396 0.0
H2179 H 0.92286 0.12422 0.45997 0.0
H2180 H 0.92016 0.13716 0.48642 0.0
H2181 H 0.8971 0.19099 0.48812 0.0
H2182 H 0.82985 0.17889 0.5539 0.0
H2183 H 0.8462 0.17708 0.52865 0.0
C2184 C 0.89772 0.75719 0.45947 0.0
C2185 C 0.9117 0.78068 0.46096 0.0
C2186 C 0.89659 0.74262 0.47228 0.0
C2187 C 0.9215 0.73856 0.51301 0.0
H2188 H 0.85564 0.69727 0.52119 0.0
C2189 C 0.88828 0.6988 0.57571 0.0
C2190 C 0.86825 0.67721 0.57657 0.0
C2191 C 0.89656 0.70927 0.5608 0.0
C2192 C 0.87418 0.70827 0.51898 0.0
H2193 H 0.93621 0.80762 0.4764 0.0
H2194 H 0.93414 0.78216 0.49917 0.0
H2195 H 0.86574 0.71938 0.49631 0.0
H2196 H 0.842 0.64925 0.56233 0.0
H2197 H 0.85696 0.66711 0.53641 0.0
H2198 H 0.92978 0.72768 0.536 0.0
C2199 C 0.92444 0.77488 0.48799 0.0
C2200 C 0.87999 0.72101 0.50467 0.0
C2201 C 0.92568 0.78945 0.47505 0.0
C2202 C 0.8575 0.66584 0.56216 0.0
C2203 C 0.86592 0.67622 0.54727 0.0
C2204 C 0.91568 0.72567 0.52737 0.0
C2205 C 0.9091 0.75138 0.48694 0.0
C2206 C 0.90366 0.73648 0.50157 0.0
C2207 C 0.88514 0.69831 0.54639 0.0
C2208 C 0.89189 0.71057 0.53061 0.0
H2209 H 0.88665 0.75029 0.44868 0.0
H2210 H 0.88492 0.72459 0.471 0.0
H2211 H 0.93992 0.75027 0.51091 0.0
H2212 H 0.89732 0.70786 0.58657 0.0
H2213 H 0.91132 0.72633 0.56061 0.0
loop_
_geom_bond_atom_site_label_1
_geom_bond_atom_site_label_2
_geom_bond_distance
_geom_bond_site_symmetry_2
_ccdc_geom_bond_type
C0 N1 1.317 . S
C0 N2 1.348 . S
C0 C3 1.485 . S
N1 C0 1.317 . S
N1 N5 1.370 . S
N2 C0 1.348 . S
N2 C4 1.346 . S
C3 C0 1.485 . S
C3 H7 0.960 . S
C3 H8 0.961 . S
C3 H9 0.960 . S
C4 N2 1.346 . S
C4 N5 1.307 . S
C4 C6 1.486 . S
N5 N1 1.370 . S
N5 C4 1.307 . S
C6 C4 1.486 . S
C6 H10 0.960 . S
C6 H11 0.960 . S
C6 H12 0.959 . S
H7 C3 0.960 . S
H8 C3 0.961 . S
H9 C3 0.960 . S
H10 C6 0.960 . S
H11 C6 0.960 . S
H12 C6 0.959 . S
C13 N14 1.317 . S
C13 N15 1.348 . S
C13 C16 1.485 . S
N14 C13 1.317 . S
N14 N18 1.370 . S
N15 C13 1.348 . S
N15 C17 1.346 . S
C16 C13 1.485 . S
C16 H20 0.960 . S
C16 H21 0.961 . S
C16 H22 0.960 . S
C17 N15 1.346 . S
C17 N18 1.307 . S
C17 C19 1.486 . S
N18 N14 1.370 . S
N18 C17 1.307 . S
C19 C17 1.486 . S
C19 H23 0.960 . S
C19 H24 0.960 . S
C19 H25 0.959 . S
H20 C16 0.960 . S
H21 C16 0.961 . S
H22 C16 0.960 . S
H23 C19 0.960 . S
H24 C19 0.960 . S
H25 C19 0.959 . S
C26 N27 1.317 . S
C26 N28 1.348 . S
C26 C29 1.485 . S
N27 C26 1.317 . S
N27 N31 1.370 . S
N28 C26 1.348 . S
N28 C30 1.346 . S
C29 C26 1.485 . S
C29 H33 0.960 . S
C29 H34 0.961 . S
C29 H35 0.960 . S
C30 N28 1.346 . S
C30 N31 1.307 . S
C30 C32 1.486 . S
N31 N27 1.370 . S
N31 C30 1.307 . S
C32 C30 1.486 . S
C32 H36 0.960 . S
C32 H37 0.960 . S
C32 H38 0.959 . S
H33 C29 0.960 . S
H34 C29 0.961 . S
H35 C29 0.960 . S
H36 C32 0.960 . S
H37 C32 0.960 . S
H38 C32 0.959 . S
C39 N40 1.317 . S
C39 N41 1.348 . S
C39 C42 1.485 . S
N40 C39 1.317 . S
N40 N44 1.370 . S
N41 C39 1.348 . S
N41 C43 1.346 . S
C42 C39 1.485 . S
C42 H46 0.960 . S
C42 H47 0.961 . S
C42 H48 0.960 . S
C43 N41 1.346 . S
C43 N44 1.307 . S
C43 C45 1.486 . S
N44 N40 1.370 . S
N44 C43 1.307 . S
C45 C43 1.486 . S
C45 H49 0.960 . S
C45 H50 0.960 . S
C45 H51 0.959 . S
H46 C42 0.960 . S
H47 C42 0.961 . S
H48 C42 0.960 . S
H49 C45 0.960 . S
H50 C45 0.960 . S
H51 C45 0.959 . S
C52 N53 1.317 . S
C52 N54 1.348 . S
C52 C55 1.485 . S
N53 C52 1.317 . S
N53 N57 1.370 . S
N54 C52 1.348 . S
N54 C56 1.346 . S
C55 C52 1.485 . S
C55 H59 0.960 . S
C55 H60 0.961 . S
C55 H61 0.960 . S
C56 N54 1.346 . S
C56 N57 1.307 . S
C56 C58 1.486 . S
N57 N53 1.370 . S
N57 C56 1.307 . S
C58 C56 1.486 . S
C58 H62 0.960 . S
C58 H63 0.960 . S
C58 H64 0.959 . S
H59 C55 0.960 . S
H60 C55 0.961 . S
H61 C55 0.960 . S
H62 C58 0.960 . S
H63 C58 0.960 . S
H64 C58 0.959 . S
C65 N66 1.317 . S
C65 N67 1.348 . S
C65 C68 1.485 . S
N66 C65 1.317 . S
N66 N70 1.370 . S
N67 C65 1.348 . S
N67 C69 1.346 . S
C68 C65 1.485 . S
C68 H72 0.960 . S
C68 H73 0.961 . S
C68 H74 0.960 . S
C69 N67 1.346 . S
C69 N70 1.307 . S
C69 C71 1.486 . S
N70 N66 1.370 . S
N70 C69 1.307 . S
C71 C69 1.486 . S
C71 H75 0.960 . S
C71 H76 0.960 . S
C71 H77 0.959 . S
H72 C68 0.960 . S
H73 C68 0.961 . S
H74 C68 0.960 . S
H75 C71 0.960 . S
H76 C71 0.960 . S
H77 C71 0.959 . S
C78 N79 1.317 . S
C78 N80 1.348 . S
C78 C81 1.485 . S
N79 C78 1.317 . S
N79 N83 1.370 . S
N80 C78 1.348 . S
N80 C82 1.346 . S
C81 C78 1.485 . S
C81 H85 0.960 . S
C81 H86 0.961 . S
C81 H87 0.960 . S
C82 N80 1.346 . S
C82 N83 1.307 . S
C82 C84 1.486 . S
N83 N79 1.370 . S
N83 C82 1.307 . S
C84 C82 1.486 . S
C84 H88 0.960 . S
C84 H89 0.960 . S
C84 H90 0.959 . S
H85 C81 0.960 . S
H86 C81 0.961 . S
H87 C81 0.960 . S
H88 C84 0.960 . S
H89 C84 0.960 . S
H90 C84 0.959 . S
C91 N92 1.317 . S
C91 N93 1.348 . S
C91 C94 1.485 . S
N92 C91 1.317 . S
N92 N96 1.370 . S
N93 C91 1.348 . S
N93 C95 1.346 . S
C94 C91 1.485 . S
C94 H98 0.960 . S
C94 H99 0.961 . S
C94 H100 0.960 . S
C95 N93 1.346 . S
C95 N96 1.307 . S
C95 C97 1.486 . S
N96 N92 1.370 . S
N96 C95 1.307 . S
C97 C95 1.486 . S
C97 H101 0.960 . S
C97 H102 0.960 . S
C97 H103 0.959 . S
H98 C94 0.960 . S
H99 C94 0.961 . S
H100 C94 0.960 . S
H101 C97 0.960 . S
H102 C97 0.960 . S
H103 C97 0.959 . S
C104 N105 1.317 . S
C104 N106 1.348 . S
C104 C107 1.485 . S
N105 C104 1.317 . S
N105 N109 1.370 . S
N106 C104 1.348 . S
N106 C108 1.346 . S
C107 C104 1.485 . S
C107 H111 0.960 . S
C107 H112 0.961 . S
C107 H113 0.960 . S
C108 N106 1.346 . S
C108 N109 1.307 . S
C108 C110 1.486 . S
N109 N105 1.370 . S
N109 C108 1.307 . S
C110 C108 1.486 . S
C110 H114 0.960 . S
C110 H115 0.960 . S
C110 H116 0.959 . S
H111 C107 0.960 . S
H112 C107 0.961 . S
H113 C107 0.960 . S
H114 C110 0.960 . S
H115 C110 0.960 . S
H116 C110 0.959 . S
C117 N118 1.317 . S
C117 N119 1.348 . S
C117 C120 1.485 . S
N118 C117 1.317 . S
N118 N122 1.370 . S
N119 C117 1.348 . S
N119 C121 1.346 . S
C120 C117 1.485 . S
C120 H124 0.960 . S
C120 H125 0.961 . S
C120 H126 0.960 . S
C121 N119 1.346 . S
C121 N122 1.307 . S
C121 C123 1.486 . S
N122 N118 1.370 . S
N122 C121 1.307 . S
C123 C121 1.486 . S
C123 H127 0.960 . S
C123 H128 0.960 . S
C123 H129 0.959 . S
H124 C120 0.960 . S
H125 C120 0.961 . S
H126 C120 0.960 . S
H127 C123 0.960 . S
H128 C123 0.960 . S
H129 C123 0.959 . S
C130 N131 1.317 . S
C130 N132 1.348 . S
C130 C133 1.490 1_556 S
N131 C130 1.317 . S
N131 N135 1.370 . S
N132 C130 1.348 . S
N132 C134 1.346 . S
C133 C130 1.490 1_554 S
C133 H137 0.957 . S
C133 H138 0.960 . S
C133 H139 0.959 1_554 S
C134 N132 1.346 . S
C134 N135 1.307 . S
C134 C136 1.486 . S
N135 N131 1.370 . S
N135 C134 1.307 . S
C136 C134 1.486 . S
C136 H140 0.960 . S
C136 H141 0.960 . S
C136 H142 0.959 . S
H137 C133 0.957 . S
H138 C133 0.960 . S
H139 C133 0.959 1_556 S
H140 C136 0.960 . S
H141 C136 0.960 . S
H142 C136 0.959 . S
C143 N144 1.317 . S
C143 N145 1.348 . S
C143 C146 1.485 . S
N144 C143 1.317 . S
N144 N148 1.370 . S
N145 C143 1.348 . S
N145 C147 1.346 . S
C146 C143 1.485 . S
C146 H150 0.960 . S
C146 H151 0.961 1_556 S
C146 H152 0.960 . S
C147 N145 1.346 . S
C147 N148 1.307 . S
C147 C149 1.486 . S
N148 N144 1.370 . S
N148 C147 1.307 . S
C149 C147 1.486 . S
C149 H153 0.960 . S
C149 H154 0.960 . S
C149 H155 0.959 . S
H150 C146 0.960 . S
H151 C146 0.961 1_554 S
H152 C146 0.960 . S
H153 C149 0.960 . S
H154 C149 0.960 . S
H155 C149 0.959 . S
C156 N157 1.317 . S
C156 N158 1.348 . S
C156 C159 1.485 . S
N157 C156 1.317 . S
N157 N161 1.370 . S
N158 C156 1.348 . S
N158 C160 1.346 . S
C159 C156 1.485 . S
C159 H163 0.960 . S
C159 H164 0.961 . S
C159 H165 0.960 . S
C160 N158 1.346 . S
C160 N161 1.307 . S
C160 C162 1.486 . S
N161 N157 1.370 . S
N161 C160 1.307 . S
C162 C160 1.486 . S
C162 H166 0.960 . S
C162 H167 0.960 . S
C162 H168 0.959 . S
H163 C159 0.960 . S
H164 C159 0.961 . S
H165 C159 0.960 . S
H166 C162 0.960 . S
H167 C162 0.960 . S
H168 C162 0.959 . S
C169 N170 1.317 . S
C169 N171 1.348 . S
C169 C172 1.485 . S
N170 C169 1.317 . S
N170 N174 1.370 . S
N171 C169 1.348 . S
N171 C173 1.346 . S
C172 C169 1.485 . S
C172 H176 0.960 . S
C172 H177 0.961 . S
C172 H178 0.960 . S
C173 N171 1.346 . S
C173 N174 1.307 . S
C173 C175 1.486 . S
N174 N170 1.370 . S
N174 C173 1.307 . S
C175 C173 1.486 . S
C175 H179 0.960 . S
C175 H180 0.960 . S
C175 H181 0.959 . S
H176 C172 0.960 . S
H177 C172 0.961 . S
H178 C172 0.960 . S
H179 C175 0.960 . S
H180 C175 0.960 . S
H181 C175 0.959 . S
C182 N183 1.317 . S
C182 N184 1.348 . S
C182 C185 1.485 . S
N183 C182 1.317 . S
N183 N187 1.370 . S
N184 C182 1.348 . S
N184 C186 1.346 . S
C185 C182 1.485 . S
C185 H189 0.960 . S
C185 H190 0.961 . S
C185 H191 0.960 . S
C186 N184 1.346 . S
C186 N187 1.307 . S
C186 C188 1.486 . S
N187 N183 1.370 . S
N187 C186 1.307 . S
C188 C186 1.486 . S
C188 H192 0.960 . S
C188 H193 0.960 . S
C188 H194 0.959 . S
H189 C185 0.960 . S
H190 C185 0.961 . S
H191 C185 0.960 . S
H192 C188 0.960 . S
H193 C188 0.960 . S
H194 C188 0.959 . S
C195 N196 1.317 . S
C195 N197 1.348 . S
C195 C198 1.485 . S
N196 C195 1.317 . S
N196 N200 1.370 . S
N197 C195 1.348 . S
N197 C199 1.346 . S
C198 C195 1.485 . S
C198 H202 0.960 . S
C198 H203 0.961 . S
C198 H204 0.960 . S
C199 N197 1.346 . S
C199 N200 1.307 . S
C199 C201 1.486 . S
N200 N196 1.370 . S
N200 C199 1.307 . S
C201 C199 1.486 . S
C201 H205 0.960 . S
C201 H206 0.960 . S
C201 H207 0.959 . S
H202 C198 0.960 . S
H203 C198 0.961 . S
H204 C198 0.960 . S
H205 C201 0.960 . S
H206 C201 0.960 . S
H207 C201 0.959 . S
C208 N209 1.317 . S
C208 N210 1.348 . S
C208 C211 1.485 . S
N209 C208 1.317 . S
N209 N213 1.370 . S
N210 C208 1.348 . S
N210 C212 1.346 . S
C211 C208 1.485 . S
C211 H215 0.960 . S
C211 H216 0.961 . S
C211 H217 0.960 . S
C212 N210 1.346 . S
C212 N213 1.307 . S
C212 C214 1.486 . S
N213 N209 1.370 . S
N213 C212 1.307 . S
C214 C212 1.486 . S
C214 H218 0.960 . S
C214 H219 0.960 . S
C214 H220 0.959 . S
H215 C211 0.960 . S
H216 C211 0.961 . S
H217 C211 0.960 . S
H218 C214 0.960 . S
H219 C214 0.960 . S
H220 C214 0.959 . S
C221 N222 1.317 . S
C221 N223 1.348 . S
C221 C224 1.485 . S
N222 C221 1.317 . S
N222 N226 1.370 . S
N223 C221 1.348 . S
N223 C225 1.346 . S
C224 C221 1.485 . S
C224 H228 0.960 . S
C224 H229 0.961 . S
C224 H230 0.960 . S
C225 N223 1.346 . S
C225 N226 1.307 . S
C225 C227 1.486 . S
N226 N222 1.370 . S
N226 C225 1.307 . S
C227 C225 1.486 . S
C227 H231 0.960 . S
C227 H232 0.960 . S
C227 H233 0.959 . S
H228 C224 0.960 . S
H229 C224 0.961 . S
H230 C224 0.960 . S
H231 C227 0.960 . S
H232 C227 0.960 . S
H233 C227 0.959 . S
Tb234 C244 2.825 1_565 S
Tb234 O245 2.347 1_566 S
Tb234 O248 2.366 1_565 S
Tb234 O253 2.418 . S
Tb234 O254 2.384 1_556 S
Tb234 O257 2.479 . S
Tb234 O258 2.471 1_565 S
Eu235 O246 2.418 . S
Eu235 O247 2.384 . S
Eu235 O250 2.479 . S
Eu235 O251 2.471 1_545 S
Eu235 O252 2.347 1_545 S
Eu235 O255 2.366 1_545 S
Eu235 C265 2.825 1_545 S
C236 O252 1.259 . S
C236 O253 1.265 1_554 S
C237 O254 1.255 . S
C237 O255 1.265 . S
C238 C240 1.380 . S
C238 C241 1.374 . S
C238 C244 1.507 . S
C239 C240 1.384 . S
C239 C243 1.387 . S
C239 H266 0.930 . S
C240 C238 1.380 . S
C240 C239 1.384 . S
C240 H267 0.931 1_545 S
C241 C238 1.374 . S
C241 C242 1.390 . S
C241 H268 0.930 . S
C242 C241 1.390 . S
C242 C243 1.391 . S
C242 H269 0.930 . S
C243 C239 1.387 . S
C243 C242 1.391 . S
C244 Tb234 2.825 1_545 S
C244 C238 1.507 . S
C244 O257 1.238 1_545 S
C244 O258 1.247 . S
O245 Tb234 2.347 1_544 S
O245 C249 1.259 . S
O246 Eu235 2.418 . S
O246 C249 1.265 . S
O247 Eu235 2.384 . S
O247 C256 1.255 . S
O248 Tb234 2.366 1_545 S
O248 C256 1.265 1_556 S
C249 O245 1.259 . S
C249 O246 1.265 . S
O250 Eu235 2.479 . S
O250 C265 1.238 1_545 S
O251 Eu235 2.471 1_565 S
O251 C265 1.247 . S
O252 Eu235 2.347 1_565 S
O252 C236 1.259 . S
O253 Tb234 2.418 . S
O253 C236 1.265 1_556 S
O254 Tb234 2.384 1_554 S
O254 C237 1.255 . S
O255 Eu235 2.366 1_565 S
O255 C237 1.265 . S
C256 O247 1.255 . S
C256 O248 1.265 1_554 S
O257 Tb234 2.479 . S
O257 C244 1.238 1_565 S
O258 Tb234 2.471 1_545 S
O258 C244 1.247 . S
C259 C262 1.380 . S
C259 C263 1.374 . S
C259 C265 1.507 . S
C260 C261 1.387 . S
C260 C264 1.391 . S
C261 C260 1.387 . S
C261 C262 1.384 . S
C261 H270 0.930 . S
C262 C259 1.380 . S
C262 C261 1.384 . S
C262 H271 0.931 1_565 S
C263 C259 1.374 . S
C263 C264 1.390 . S
C263 H272 0.930 . S
C264 C260 1.391 . S
C264 C263 1.390 . S
C264 H273 0.930 . S
C265 Eu235 2.825 1_565 S
C265 O250 1.238 1_565 S
C265 O251 1.247 . S
C265 C259 1.507 . S
H266 C239 0.930 . S
H267 C240 0.931 1_565 S
H268 C241 0.930 . S
H269 C242 0.930 . S
H270 C261 0.930 . S
H271 C262 0.931 1_545 S
H272 C263 0.930 . S
H273 C264 0.930 . S
Tb274 C284 2.825 . S
Tb274 O285 2.347 1_455 S
Tb274 O288 2.366 1_455 S
Tb274 O293 2.418 . S
Tb274 O294 2.384 1_556 S
Tb274 O297 2.479 . S
Tb274 O298 2.471 1_455 S
Eu275 O286 2.418 . S
Eu275 O287 2.384 . S
Eu275 O290 2.479 . S
Eu275 O291 2.471 1_655 S
Eu275 O292 2.347 1_655 S
Eu275 O295 2.366 1_655 S
Eu275 C305 2.825 1_655 S
C276 O292 1.259 . S
C276 O293 1.265 1_554 S
C277 O294 1.255 . S
C277 O295 1.265 . S
C278 C280 1.379 . S
C278 C281 1.375 1_455 S
C278 C284 1.506 . S
C279 C280 1.384 . S
C279 C283 1.387 1_455 S
C279 H306 0.930 . S
C280 C278 1.379 . S
C280 C279 1.384 . S
C280 H307 0.931 . S
C281 C278 1.375 1_655 S
C281 C282 1.390 . S
C281 H308 0.930 . S
C282 C281 1.390 . S
C282 C283 1.391 . S
C282 H309 0.930 . S
C283 C279 1.387 1_655 S
C283 C282 1.391 . S
C284 Tb274 2.825 . S
C284 C278 1.506 . S
C284 O297 1.238 . S
C284 O298 1.247 1_455 S
O285 Tb274 2.347 1_655 S
O285 C289 1.259 1_556 S
O286 Eu275 2.418 . S
O286 C289 1.265 . S
O287 Eu275 2.384 . S
O287 C296 1.255 1_554 S
O288 Tb274 2.366 1_655 S
O288 C296 1.265 . S
C289 O285 1.259 1_554 S
C289 O286 1.265 . S
O290 Eu275 2.479 . S
O290 C305 1.238 1_655 S
O291 Eu275 2.471 1_455 S
O291 C305 1.247 . S
O292 Eu275 2.347 1_455 S
O292 C276 1.259 . S
O293 Tb274 2.418 . S
O293 C276 1.265 1_556 S
O294 Tb274 2.384 1_554 S
O294 C277 1.255 . S
O295 Eu275 2.366 1_455 S
O295 C277 1.265 . S
C296 O287 1.255 1_556 S
C296 O288 1.265 . S
O297 Tb274 2.479 . S
O297 C284 1.238 . S
O298 Tb274 2.471 1_655 S
O298 C284 1.247 1_655 S
C299 C302 1.380 . S
C299 C303 1.374 . S
C299 C305 1.507 . S
C300 C301 1.387 . S
C300 C304 1.391 . S
C301 C300 1.387 . S
C301 C302 1.384 . S
C301 H310 0.937 . S
C302 C299 1.380 . S
C302 C301 1.384 . S
C302 H311 0.931 1_455 S
C303 C299 1.374 . S
C303 C304 1.390 . S
C303 H312 0.930 . S
C304 C300 1.391 . S
C304 C303 1.390 . S
C304 H313 0.930 . S
C305 Eu275 2.825 1_455 S
C305 O290 1.238 1_455 S
C305 O291 1.247 . S
C305 C299 1.507 . S
H306 C279 0.930 . S
H307 C280 0.931 . S
H308 C281 0.930 . S
H309 C282 0.930 . S
H310 C301 0.937 . S
H311 C302 0.931 1_655 S
H312 C303 0.930 . S
H313 C304 0.930 . S
Tb314 C324 2.825 . S
Tb314 O325 2.347 . S
Tb314 O328 2.366 . S
Tb314 O333 2.418 . S
Tb314 O334 2.384 . S
Tb314 O337 2.479 . S
Tb314 O338 2.471 . S
Eu315 O326 2.418 1_556 S
Eu315 O327 2.384 1_556 S
Eu315 O330 2.479 . S
Eu315 O331 2.471 . S
Eu315 O332 2.347 1_556 S
Eu315 O335 2.366 . S
Eu315 C345 2.825 . S
C316 O332 1.259 . S
C316 O333 1.265 . S
C317 O334 1.255 . S
C317 O335 1.265 1_554 S
C318 C320 1.380 . S
C318 C321 1.374 . S
C318 C324 1.507 . S
C319 C320 1.384 . S
C319 C323 1.387 . S
C319 H346 0.930 . S
C320 C318 1.380 . S
C320 C319 1.384 . S
C320 H347 0.931 . S
C321 C318 1.374 . S
C321 C322 1.390 . S
C321 H348 0.930 . S
C322 C321 1.390 . S
C322 C323 1.391 . S
C322 H349 0.930 . S
C323 C319 1.387 . S
C323 C322 1.391 . S
C324 Tb314 2.825 . S
C324 C318 1.507 . S
C324 O337 1.238 . S
C324 O338 1.247 . S
O325 Tb314 2.347 . S
O325 C329 1.259 . S
O326 Eu315 2.418 1_554 S
O326 C329 1.265 . S
O327 Eu315 2.384 1_554 S
O327 C336 1.255 . S
O328 Tb314 2.366 . S
O328 C336 1.265 . S
C329 O325 1.259 . S
C329 O326 1.265 . S
O330 Eu315 2.479 . S
O330 C345 1.238 . S
O331 Eu315 2.471 . S
O331 C345 1.247 . S
O332 Eu315 2.347 1_554 S
O332 C316 1.259 . S
O333 Tb314 2.418 . S
O333 C316 1.265 . S
O334 Tb314 2.384 . S
O334 C317 1.255 . S
O335 Eu315 2.366 . S
O335 C317 1.265 1_556 S
C336 O327 1.255 . S
C336 O328 1.265 . S
O337 Tb314 2.479 . S
O337 C324 1.238 . S
O338 Tb314 2.471 . S
O338 C324 1.247 . S
C339 C342 1.380 . S
C339 C343 1.374 . S
C339 C345 1.507 . S
C340 C341 1.387 . S
C340 C344 1.391 . S
C341 C340 1.387 . S
C341 C342 1.384 . S
C341 H350 0.930 . S
C342 C339 1.380 . S
C342 C341 1.384 . S
C342 H351 0.931 . S
C343 C339 1.374 . S
C343 C344 1.390 . S
C343 H352 0.930 . S
C344 C340 1.391 . S
C344 C343 1.390 . S
C344 H353 0.930 . S
C345 Eu315 2.825 . S
C345 O330 1.238 . S
C345 O331 1.247 . S
C345 C339 1.507 . S
H346 C319 0.930 . S
H347 C320 0.931 . S
H348 C321 0.930 . S
H349 C322 0.930 . S
H350 C341 0.930 . S
H351 C342 0.931 . S
H352 C343 0.930 . S
H353 C344 0.930 . S
Tb354 C364 2.825 . S
Tb354 O365 2.347 . S
Tb354 O368 2.366 . S
Tb354 O373 2.418 . S
Tb354 O374 2.384 . S
Tb354 O377 2.479 . S
Tb354 O378 2.471 . S
Eu355 O366 2.418 . S
Eu355 O367 2.384 . S
Eu355 O370 2.479 . S
Eu355 O371 2.471 . S
Eu355 O372 2.347 . S
Eu355 O375 2.366 . S
Eu355 C385 2.825 . S
C356 O372 1.259 . S
C356 O373 1.265 . S
C357 O374 1.255 . S
C357 O375 1.265 . S
C358 C360 1.380 . S
C358 C361 1.374 . S
C358 C364 1.507 . S
C359 C360 1.384 . S
C359 C363 1.387 . S
C359 H386 0.930 . S
C360 C358 1.380 . S
C360 C359 1.384 . S
C360 H387 0.931 . S
C361 C358 1.374 . S
C361 C362 1.390 . S
C361 H388 0.930 . S
C362 C361 1.390 . S
C362 C363 1.391 . S
C362 H389 0.930 . S
C363 C359 1.387 . S
C363 C362 1.391 . S
C364 Tb354 2.825 . S
C364 C358 1.507 . S
C364 O377 1.238 . S
C364 O378 1.247 . S
O365 Tb354 2.347 . S
O365 C369 1.259 . S
O366 Eu355 2.418 . S
O366 C369 1.265 . S
O367 Eu355 2.384 . S
O367 C376 1.255 . S
O368 Tb354 2.366 . S
O368 C376 1.265 . S
C369 O365 1.259 . S
C369 O366 1.265 . S
O370 Eu355 2.479 . S
O370 C385 1.238 . S
O371 Eu355 2.471 . S
O371 C385 1.247 . S
O372 Eu355 2.347 . S
O372 C356 1.259 . S
O373 Tb354 2.418 . S
O373 C356 1.265 . S
O374 Tb354 2.384 . S
O374 C357 1.255 . S
O375 Eu355 2.366 . S
O375 C357 1.265 . S
C376 O367 1.255 . S
C376 O368 1.265 . S
O377 Tb354 2.479 . S
O377 C364 1.238 . S
O378 Tb354 2.471 . S
O378 C364 1.247 . S
C379 C382 1.380 . S
C379 C383 1.374 . S
C379 C385 1.507 . S
C380 C381 1.387 . S
C380 C384 1.391 . S
C381 C380 1.387 . S
C381 C382 1.384 . S
C381 H390 0.930 . S
C382 C379 1.380 . S
C382 C381 1.384 . S
C382 H391 0.931 . S
C383 C379 1.374 . S
C383 C384 1.390 . S
C383 H392 0.930 . S
C384 C380 1.391 . S
C384 C383 1.390 . S
C384 H393 0.930 . S
C385 Eu355 2.825 . S
C385 O370 1.238 . S
C385 O371 1.247 . S
C385 C379 1.507 . S
H386 C359 0.930 . S
H387 C360 0.931 . S
H388 C361 0.930 . S
H389 C362 0.930 . S
H390 C381 0.930 . S
H391 C382 0.931 . S
H392 C383 0.930 . S
H393 C384 0.930 . S
Tb394 C404 2.825 . S
Tb394 O405 2.347 . S
Tb394 O408 2.366 . S
Tb394 O413 2.418 . S
Tb394 O414 2.384 . S
Tb394 O417 2.479 . S
Tb394 O418 2.471 . S
Eu395 O406 2.418 . S
Eu395 O407 2.384 . S
Eu395 O410 2.479 . S
Eu395 O411 2.471 . S
Eu395 O412 2.347 . S
Eu395 O415 2.366 . S
Eu395 C425 2.825 . S
C396 O412 1.259 . S
C396 O413 1.265 . S
C397 O414 1.255 . S
C397 O415 1.265 . S
C398 C400 1.380 . S
C398 C401 1.374 . S
C398 C404 1.507 . S
C399 C400 1.384 . S
C399 C403 1.387 . S
C399 H426 0.930 . S
C400 C398 1.380 . S
C400 C399 1.384 . S
C400 H427 0.931 . S
C401 C398 1.374 . S
C401 C402 1.390 . S
C401 H428 0.930 . S
C402 C401 1.390 . S
C402 C403 1.391 . S
C402 H429 0.930 . S
C403 C399 1.387 . S
C403 C402 1.391 . S
C404 Tb394 2.825 . S
C404 C398 1.507 . S
C404 O417 1.238 . S
C404 O418 1.247 . S
O405 Tb394 2.347 . S
O405 C409 1.259 . S
O406 Eu395 2.418 . S
O406 C409 1.265 . S
O407 Eu395 2.384 . S
O407 C416 1.255 . S
O408 Tb394 2.366 . S
O408 C416 1.265 . S
C409 O405 1.259 . S
C409 O406 1.265 . S
O410 Eu395 2.479 . S
O410 C425 1.238 . S
O411 Eu395 2.471 . S
O411 C425 1.247 . S
O412 Eu395 2.347 . S
O412 C396 1.259 . S
O413 Tb394 2.418 . S
O413 C396 1.265 . S
O414 Tb394 2.384 . S
O414 C397 1.255 . S
O415 Eu395 2.366 . S
O415 C397 1.265 . S
C416 O407 1.255 . S
C416 O408 1.265 . S
O417 Tb394 2.479 . S
O417 C404 1.238 . S
O418 Tb394 2.471 . S
O418 C404 1.247 . S
C419 C422 1.380 . S
C419 C423 1.374 . S
C419 C425 1.507 . S
C420 C421 1.387 . S
C420 C424 1.391 . S
C421 C420 1.387 . S
C421 C422 1.384 . S
C421 H430 0.930 . S
C422 C419 1.380 . S
C422 C421 1.384 . S
C422 H431 0.931 . S
C423 C419 1.374 . S
C423 C424 1.390 . S
C423 H432 0.930 . S
C424 C420 1.391 . S
C424 C423 1.390 . S
C424 H433 0.930 . S
C425 Eu395 2.825 . S
C425 O410 1.238 . S
C425 O411 1.247 . S
C425 C419 1.507 . S
H426 C399 0.930 . S
H427 C400 0.931 . S
H428 C401 0.930 . S
H429 C402 0.930 . S
H430 C421 0.930 . S
H431 C422 0.931 . S
H432 C423 0.930 . S
H433 C424 0.930 . S
Tb434 C444 2.825 . S
Tb434 O445 2.347 . S
Tb434 O448 2.366 . S
Tb434 O453 2.418 . S
Tb434 O454 2.384 . S
Tb434 O457 2.479 . S
Tb434 O458 2.471 . S
Eu435 O446 2.418 . S
Eu435 O447 2.384 . S
Eu435 O450 2.479 . S
Eu435 O451 2.471 . S
Eu435 O452 2.347 . S
Eu435 O455 2.366 . S
Eu435 C465 2.825 . S
C436 O452 1.259 . S
C436 O453 1.265 . S
C437 O454 1.255 . S
C437 O455 1.265 . S
C438 C440 1.380 . S
C438 C441 1.374 . S
C438 C444 1.507 . S
C439 C440 1.384 . S
C439 C443 1.387 . S
C439 H466 0.930 . S
C440 C438 1.380 . S
C440 C439 1.384 . S
C440 H467 0.931 . S
C441 C438 1.374 . S
C441 C442 1.390 . S
C441 H468 0.930 . S
C442 C441 1.390 . S
C442 C443 1.391 . S
C442 H469 0.930 . S
C443 C439 1.387 . S
C443 C442 1.391 . S
C444 Tb434 2.825 . S
C444 C438 1.507 . S
C444 O457 1.238 . S
C444 O458 1.247 . S
O445 Tb434 2.347 . S
O445 C449 1.259 . S
O446 Eu435 2.418 . S
O446 C449 1.265 . S
O447 Eu435 2.384 . S
O447 C456 1.255 . S
O448 Tb434 2.366 . S
O448 C456 1.265 . S
C449 O445 1.259 . S
C449 O446 1.265 . S
O450 Eu435 2.479 . S
O450 C465 1.238 . S
O451 Eu435 2.471 . S
O451 C465 1.247 . S
O452 Eu435 2.347 . S
O452 C436 1.259 . S
O453 Tb434 2.418 . S
O453 C436 1.265 . S
O454 Tb434 2.384 . S
O454 C437 1.255 . S
O455 Eu435 2.366 . S
O455 C437 1.265 . S
C456 O447 1.255 . S
C456 O448 1.265 . S
O457 Tb434 2.479 . S
O457 C444 1.238 . S
O458 Tb434 2.471 . S
O458 C444 1.247 . S
C459 C462 1.380 . S
C459 C463 1.374 . S
C459 C465 1.507 . S
C460 C461 1.387 . S
C460 C464 1.391 . S
C461 C460 1.387 . S
C461 C462 1.384 . S
C461 H470 0.930 . S
C462 C459 1.380 . S
C462 C461 1.384 . S
C462 H471 0.931 . S
C463 C459 1.374 . S
C463 C464 1.390 . S
C463 H472 0.930 . S
C464 C460 1.391 . S
C464 C463 1.390 . S
C464 H473 0.930 . S
C465 Eu435 2.825 . S
C465 O450 1.238 . S
C465 O451 1.247 . S
C465 C459 1.507 . S
H466 C439 0.930 . S
H467 C440 0.931 . S
H468 C441 0.930 . S
H469 C442 0.930 . S
H470 C461 0.930 . S
H471 C462 0.931 . S
H472 C463 0.930 . S
H473 C464 0.930 . S
Tb474 C484 2.825 . S
Tb474 O485 2.347 . S
Tb474 O488 2.366 . S
Tb474 O493 2.418 . S
Tb474 O494 2.384 . S
Tb474 O497 2.479 . S
Tb474 O498 2.471 . S
Eu475 O486 2.418 . S
Eu475 O487 2.384 . S
Eu475 O490 2.479 . S
Eu475 O491 2.471 . S
Eu475 O492 2.347 . S
Eu475 O495 2.366 . S
Eu475 C505 2.825 . S
C476 O492 1.259 . S
C476 O493 1.265 . S
C477 O494 1.255 . S
C477 O495 1.265 . S
C478 C480 1.380 . S
C478 C481 1.374 . S
C478 C484 1.507 . S
C479 C480 1.384 . S
C479 C483 1.387 . S
C479 H506 0.930 . S
C480 C478 1.380 . S
C480 C479 1.384 . S
C480 H507 0.931 . S
C481 C478 1.374 . S
C481 C482 1.390 . S
C481 H508 0.930 . S
C482 C481 1.390 . S
C482 C483 1.391 . S
C482 H509 0.930 . S
C483 C479 1.387 . S
C483 C482 1.391 . S
C484 Tb474 2.825 . S
C484 C478 1.507 . S
C484 O497 1.238 . S
C484 O498 1.247 . S
O485 Tb474 2.347 . S
O485 C489 1.259 . S
O486 Eu475 2.418 . S
O486 C489 1.265 . S
O487 Eu475 2.384 . S
O487 C496 1.255 . S
O488 Tb474 2.366 . S
O488 C496 1.265 . S
C489 O485 1.259 . S
C489 O486 1.265 . S
O490 Eu475 2.479 . S
O490 C505 1.238 . S
O491 Eu475 2.471 . S
O491 C505 1.247 . S
O492 Eu475 2.347 . S
O492 C476 1.259 . S
O493 Tb474 2.418 . S
O493 C476 1.265 . S
O494 Tb474 2.384 . S
O494 C477 1.255 . S
O495 Eu475 2.366 . S
O495 C477 1.265 . S
C496 O487 1.255 . S
C496 O488 1.265 . S
O497 Tb474 2.479 . S
O497 C484 1.238 . S
O498 Tb474 2.471 . S
O498 C484 1.247 . S
C499 C502 1.380 . S
C499 C503 1.374 . S
C499 C505 1.507 . S
C500 C501 1.387 . S
C500 C504 1.391 . S
C501 C500 1.387 . S
C501 C502 1.384 . S
C501 H510 0.930 . S
C502 C499 1.380 . S
C502 C501 1.384 . S
C502 H511 0.931 . S
C503 C499 1.374 . S
C503 C504 1.390 . S
C503 H512 0.930 . S
C504 C500 1.391 . S
C504 C503 1.390 . S
C504 H513 0.930 . S
C505 Eu475 2.825 . S
C505 O490 1.238 . S
C505 O491 1.247 . S
C505 C499 1.507 . S
H506 C479 0.930 . S
H507 C480 0.931 . S
H508 C481 0.930 . S
H509 C482 0.930 . S
H510 C501 0.930 . S
H511 C502 0.931 . S
H512 C503 0.930 . S
H513 C504 0.930 . S
Tb514 C524 2.825 . S
Tb514 O525 2.347 . S
Tb514 O528 2.366 . S
Tb514 O533 2.418 . S
Tb514 O534 2.384 . S
Tb514 O537 2.479 . S
Tb514 O538 2.471 . S
Eu515 O526 2.418 . S
Eu515 O527 2.384 . S
Eu515 O530 2.479 . S
Eu515 O531 2.471 . S
Eu515 O532 2.347 . S
Eu515 O535 2.366 . S
Eu515 C545 2.825 . S
C516 O532 1.259 . S
C516 O533 1.265 . S
C517 O534 1.255 . S
C517 O535 1.265 . S
C518 C520 1.380 . S
C518 C521 1.374 . S
C518 C524 1.507 . S
C519 C520 1.384 . S
C519 C523 1.387 . S
C519 H546 0.930 . S
C520 C518 1.380 . S
C520 C519 1.384 . S
C520 H547 0.931 . S
C521 C518 1.374 . S
C521 C522 1.390 . S
C521 H548 0.930 . S
C522 C521 1.390 . S
C522 C523 1.391 . S
C522 H549 0.930 . S
C523 C519 1.387 . S
C523 C522 1.391 . S
C524 Tb514 2.825 . S
C524 C518 1.507 . S
C524 O537 1.238 . S
C524 O538 1.247 . S
O525 Tb514 2.347 . S
O525 C529 1.259 . S
O526 Eu515 2.418 . S
O526 C529 1.265 . S
O527 Eu515 2.384 . S
O527 C536 1.255 . S
O528 Tb514 2.366 . S
O528 C536 1.265 . S
C529 O525 1.259 . S
C529 O526 1.265 . S
O530 Eu515 2.479 . S
O530 C545 1.238 . S
O531 Eu515 2.471 . S
O531 C545 1.247 . S
O532 Eu515 2.347 . S
O532 C516 1.259 . S
O533 Tb514 2.418 . S
O533 C516 1.265 . S
O534 Tb514 2.384 . S
O534 C517 1.255 . S
O535 Eu515 2.366 . S
O535 C517 1.265 . S
C536 O527 1.255 . S
C536 O528 1.265 . S
O537 Tb514 2.479 . S
O537 C524 1.238 . S
O538 Tb514 2.471 . S
O538 C524 1.247 . S
C539 C542 1.380 . S
C539 C543 1.374 . S
C539 C545 1.507 . S
C540 C541 1.387 . S
C540 C544 1.391 . S
C541 C540 1.387 . S
C541 C542 1.384 . S
C541 H550 0.930 . S
C542 C539 1.380 . S
C542 C541 1.384 . S
C542 H551 0.931 . S
C543 C539 1.374 . S
C543 C544 1.390 . S
C543 H552 0.930 . S
C544 C540 1.391 . S
C544 C543 1.390 . S
C544 H553 0.930 . S
C545 Eu515 2.825 . S
C545 O530 1.238 . S
C545 O531 1.247 . S
C545 C539 1.507 . S
H546 C519 0.930 . S
H547 C520 0.931 . S
H548 C521 0.930 . S
H549 C522 0.930 . S
H550 C541 0.930 . S
H551 C542 0.931 . S
H552 C543 0.930 . S
H553 C544 0.930 . S
Tb554 C564 2.825 . S
Tb554 O565 2.347 . S
Tb554 O568 2.366 . S
Tb554 O573 2.418 . S
Tb554 O574 2.384 . S
Tb554 O577 2.479 . S
Tb554 O578 2.471 . S
Eu555 O566 2.418 . S
Eu555 O567 2.384 . S
Eu555 O570 2.479 . S
Eu555 O571 2.471 . S
Eu555 O572 2.347 . S
Eu555 O575 2.366 . S
Eu555 C585 2.825 . S
C556 O572 1.259 . S
C556 O573 1.265 . S
C557 O574 1.255 . S
C557 O575 1.265 . S
C558 C560 1.380 . S
C558 C561 1.374 . S
C558 C564 1.507 . S
C559 C560 1.384 . S
C559 C563 1.387 . S
C559 H586 0.930 . S
C560 C558 1.380 . S
C560 C559 1.384 . S
C560 H587 0.931 . S
C561 C558 1.374 . S
C561 C562 1.390 . S
C561 H588 0.930 . S
C562 C561 1.390 . S
C562 C563 1.391 . S
C562 H589 0.930 . S
C563 C559 1.387 . S
C563 C562 1.391 . S
C564 Tb554 2.825 . S
C564 C558 1.507 . S
C564 O577 1.238 . S
C564 O578 1.247 . S
O565 Tb554 2.347 . S
O565 C569 1.259 . S
O566 Eu555 2.418 . S
O566 C569 1.265 . S
O567 Eu555 2.384 . S
O567 C576 1.255 . S
O568 Tb554 2.366 . S
O568 C576 1.265 . S
C569 O565 1.259 . S
C569 O566 1.265 . S
O570 Eu555 2.479 . S
O570 C585 1.238 . S
O571 Eu555 2.471 . S
O571 C585 1.247 . S
O572 Eu555 2.347 . S
O572 C556 1.259 . S
O573 Tb554 2.418 . S
O573 C556 1.265 . S
O574 Tb554 2.384 . S
O574 C557 1.255 . S
O575 Eu555 2.366 . S
O575 C557 1.265 . S
C576 O567 1.255 . S
C576 O568 1.265 . S
O577 Tb554 2.479 . S
O577 C564 1.238 . S
O578 Tb554 2.471 . S
O578 C564 1.247 . S
C579 C582 1.380 . S
C579 C583 1.374 . S
C579 C585 1.507 . S
C580 C581 1.387 . S
C580 C584 1.391 . S
C581 C580 1.387 . S
C581 C582 1.384 . S
C581 H590 0.930 . S
C582 C579 1.380 . S
C582 C581 1.384 . S
C582 H591 0.931 . S
C583 C579 1.374 . S
C583 C584 1.390 . S
C583 H592 0.930 . S
C584 C580 1.391 . S
C584 C583 1.390 . S
C584 H593 0.930 . S
C585 Eu555 2.825 . S
C585 O570 1.238 . S
C585 O571 1.247 . S
C585 C579 1.507 . S
H586 C559 0.930 . S
H587 C560 0.931 . S
H588 C561 0.930 . S
H589 C562 0.930 . S
H590 C581 0.930 . S
H591 C582 0.931 . S
H592 C583 0.930 . S
H593 C584 0.930 . S
C594 C595 1.349 . S
C594 C596 1.327 . S
C594 H619 0.950 . S
C595 C594 1.349 . S
C595 C611 1.349 . S
C596 C594 1.327 . S
C596 C615 1.429 . S
C596 H620 0.950 . S
C597 C614 1.574 . S
C597 C616 1.368 . S
C597 H621 0.949 . S
H598 C602 0.949 . S
C599 C600 1.349 . S
C599 C601 1.327 . S
C599 H622 0.950 . S
C600 C599 1.349 . S
C600 C612 1.349 . S
C601 C599 1.327 . S
C601 C617 1.429 . S
C601 H623 0.950 . S
C602 H598 0.949 . S
C602 C610 1.574 . S
C602 C618 1.368 . S
H603 C611 0.950 . S
H604 C609 0.950 . S
H605 C610 0.949 . S
H606 C612 0.950 . S
H607 C613 0.950 . S
H608 C614 0.949 . S
C609 H604 0.950 . S
C609 C611 1.327 . S
C609 C615 1.429 . S
C610 C602 1.574 . S
C610 H605 0.949 . S
C610 C616 1.368 . S
C611 C595 1.349 . S
C611 H603 0.950 . S
C611 C609 1.327 . S
C612 C600 1.349 . S
C612 H606 0.950 . S
C612 C613 1.327 . S
C613 H607 0.950 . S
C613 C612 1.327 . S
C613 C617 1.429 . S
C614 C597 1.574 . S
C614 H608 0.949 . S
C614 C618 1.368 . S
C615 C596 1.429 . S
C615 C609 1.429 . S
C615 C616 1.523 . S
C616 C597 1.368 . S
C616 C610 1.368 . S
C616 C615 1.523 . S
C617 C601 1.429 . S
C617 C613 1.429 . S
C617 C618 1.523 . S
C618 C602 1.368 . S
C618 C614 1.368 . S
C618 C617 1.523 . S
H619 C594 0.950 . S
H620 C596 0.950 . S
H621 C597 0.949 . S
H622 C599 0.950 . S
H623 C601 0.950 . S
C624 C625 1.349 . S
C624 C626 1.327 . S
C624 H649 0.950 . S
C625 C624 1.349 . S
C625 C641 1.349 . S
C626 C624 1.327 . S
C626 C645 1.429 . S
C626 H650 0.950 . S
C627 C644 1.574 . S
C627 C646 1.368 . S
C627 H651 0.949 . S
H628 C632 0.949 . S
C629 C630 1.349 . S
C629 C631 1.327 . S
C629 H652 0.950 . S
C630 C629 1.349 . S
C630 C642 1.349 . S
C631 C629 1.327 . S
C631 C647 1.429 . S
C631 H653 0.950 . S
C632 H628 0.949 . S
C632 C640 1.574 . S
C632 C648 1.368 . S
H633 C641 0.950 . S
H634 C639 0.950 . S
H635 C640 0.949 . S
H636 C642 0.950 . S
H637 C643 0.950 . S
H638 C644 0.949 . S
C639 H634 0.950 . S
C639 C641 1.327 . S
C639 C645 1.429 . S
C640 C632 1.574 . S
C640 H635 0.949 . S
C640 C646 1.368 . S
C641 C625 1.349 . S
C641 H633 0.950 . S
C641 C639 1.327 . S
C642 C630 1.349 . S
C642 H636 0.950 . S
C642 C643 1.327 . S
C643 H637 0.950 . S
C643 C642 1.327 . S
C643 C647 1.429 . S
C644 C627 1.574 . S
C644 H638 0.949 . S
C644 C648 1.368 . S
C645 C626 1.429 . S
C645 C639 1.429 . S
C645 C646 1.523 . S
C646 C627 1.368 . S
C646 C640 1.368 . S
C646 C645 1.523 . S
C647 C631 1.429 . S
C647 C643 1.429 . S
C647 C648 1.523 . S
C648 C632 1.368 . S
C648 C644 1.368 . S
C648 C647 1.523 . S
H649 C624 0.950 . S
H650 C626 0.950 . S
H651 C627 0.949 . S
H652 C629 0.950 . S
H653 C631 0.950 . S
C654 C655 1.349 . S
C654 C656 1.327 . S
C654 H679 0.950 . S
C655 C654 1.349 . S
C655 C671 1.349 . S
C656 C654 1.327 . S
C656 C675 1.429 . S
C656 H680 0.950 . S
C657 C674 1.574 . S
C657 C676 1.368 . S
C657 H681 0.949 . S
H658 C662 0.949 . S
C659 C660 1.349 . S
C659 C661 1.327 . S
C659 H682 0.950 . S
C660 C659 1.349 . S
C660 C672 1.349 . S
C661 C659 1.327 . S
C661 C677 1.429 . S
C661 H683 0.950 . S
C662 H658 0.949 . S
C662 C670 1.574 . S
C662 C678 1.368 . S
H663 C671 0.950 . S
H664 C669 0.950 . S
H665 C670 0.949 . S
H666 C672 0.950 . S
H667 C673 0.950 . S
H668 C674 0.949 . S
C669 H664 0.950 . S
C669 C671 1.327 . S
C669 C675 1.429 . S
C670 C662 1.574 . S
C670 H665 0.949 . S
C670 C676 1.368 . S
C671 C655 1.349 . S
C671 H663 0.950 . S
C671 C669 1.327 . S
C672 C660 1.349 . S
C672 H666 0.950 . S
C672 C673 1.327 . S
C673 H667 0.950 . S
C673 C672 1.327 . S
C673 C677 1.429 . S
C674 C657 1.574 . S
C674 H668 0.949 . S
C674 C678 1.368 . S
C675 C656 1.429 . S
C675 C669 1.429 . S
C675 C676 1.523 . S
C676 C657 1.368 . S
C676 C670 1.368 . S
C676 C675 1.523 . S
C677 C661 1.429 . S
C677 C673 1.429 . S
C677 C678 1.523 . S
C678 C662 1.368 . S
C678 C674 1.368 . S
C678 C677 1.523 . S
H679 C654 0.950 . S
H680 C656 0.950 . S
H681 C657 0.949 . S
H682 C659 0.950 . S
H683 C661 0.950 . S
C684 C685 1.349 . S
C684 C686 1.327 . S
C684 H709 0.950 . S
C685 C684 1.349 . S
C685 C701 1.349 . S
C686 C684 1.327 . S
C686 C705 1.429 . S
C686 H710 0.950 1_556 S
C687 C704 1.574 . S
C687 C706 1.368 . S
C687 H711 0.949 . S
H688 C692 0.949 . S
C689 C690 1.349 . S
C689 C691 1.327 . S
C689 H712 0.950 . S
C690 C689 1.349 . S
C690 C702 1.349 1_556 S
C691 C689 1.327 . S
C691 C707 1.429 . S
C691 H713 0.950 . S
C692 H688 0.949 . S
C692 C700 1.574 1_554 S
C692 C708 1.368 1_554 S
H693 C701 0.950 . S
H694 C699 0.950 . S
H695 C700 0.949 1_554 S
H696 C702 0.950 . S
H697 C703 0.950 . S
H698 C704 0.949 . S
C699 H694 0.950 . S
C699 C701 1.327 . S
C699 C705 1.429 . S
C700 C692 1.574 1_556 S
C700 H695 0.949 1_556 S
C700 C706 1.368 . S
C701 C685 1.349 . S
C701 H693 0.950 . S
C701 C699 1.327 . S
C702 C690 1.349 1_554 S
C702 H696 0.950 . S
C702 C703 1.327 . S
C703 H697 0.950 . S
C703 C702 1.327 . S
C703 C707 1.429 1_554 S
C704 C687 1.574 . S
C704 H698 0.949 . S
C704 C708 1.368 . S
C705 C686 1.429 . S
C705 C699 1.429 . S
C705 C706 1.523 . S
C706 C687 1.368 . S
C706 C700 1.368 . S
C706 C705 1.523 . S
C707 C691 1.429 . S
C707 C703 1.429 1_556 S
C707 C708 1.523 . S
C708 C692 1.368 1_556 S
C708 C704 1.368 . S
C708 C707 1.523 . S
H709 C684 0.950 . S
H710 C686 0.950 1_554 S
H711 C687 0.949 . S
H712 C689 0.950 . S
H713 C691 0.950 . S
C714 C715 1.349 . S
C714 C716 1.327 . S
C714 H739 0.950 . S
C715 C714 1.349 . S
C715 C731 1.349 . S
C716 C714 1.327 . S
C716 C735 1.429 . S
C716 H740 0.950 . S
C717 C734 1.574 . S
C717 C736 1.368 . S
C717 H741 0.949 . S
H718 C722 0.949 . S
C719 C720 1.340 1_556 S
C719 C721 1.356 . S
C719 H742 0.933 1_556 S
C720 C719 1.340 1_554 S
C720 C732 1.349 1_554 S
C721 C719 1.356 . S
C721 C737 1.429 . S
C721 H743 0.950 . S
C722 H718 0.949 . S
C722 C730 1.574 . S
C722 C738 1.368 . S
H723 C731 0.950 . S
H724 C729 0.950 . S
H725 C730 0.949 . S
H726 C732 0.949 . S
H727 C733 0.950 . S
H728 C734 0.949 . S
C729 H724 0.950 . S
C729 C731 1.327 . S
C729 C735 1.429 . S
C730 C722 1.574 . S
C730 H725 0.949 . S
C730 C736 1.368 . S
C731 C715 1.349 . S
C731 H723 0.950 . S
C731 C729 1.327 . S
C732 C720 1.349 1_556 S
C732 H726 0.949 . S
C732 C733 1.327 . S
C733 H727 0.950 . S
C733 C732 1.327 . S
C733 C737 1.429 . S
C734 C717 1.574 . S
C734 H728 0.949 . S
C734 C738 1.368 . S
C735 C716 1.429 . S
C735 C729 1.429 . S
C735 C736 1.523 . S
C736 C717 1.368 . S
C736 C730 1.368 . S
C736 C735 1.523 . S
C737 C721 1.429 . S
C737 C733 1.429 . S
C737 C738 1.523 . S
C738 C722 1.368 . S
C738 C734 1.368 . S
C738 C737 1.523 . S
H739 C714 0.950 . S
H740 C716 0.950 . S
H741 C717 0.949 . S
H742 C719 0.933 1_554 S
H743 C721 0.950 . S
C744 C745 1.349 . S
C744 C746 1.327 . S
C744 H769 0.950 . S
C745 C744 1.349 . S
C745 C761 1.349 . S
C746 C744 1.327 . S
C746 C765 1.429 . S
C746 H770 0.950 . S
C747 C764 1.574 1_556 S
C747 C766 1.368 . S
C747 H771 0.949 1_556 S
H748 C752 0.949 . S
C749 C750 1.349 . S
C749 C751 1.327 . S
C749 H772 0.950 . S
C750 C749 1.349 . S
C750 C762 1.349 1_554 S
C751 C749 1.327 . S
C751 C767 1.429 1_554 S
C751 H773 0.950 . S
C752 H748 0.949 . S
C752 C760 1.574 . S
C752 C768 1.368 . S
H753 C761 0.950 . S
H754 C759 0.950 . S
H755 C760 0.949 . S
H756 C762 0.950 . S
H757 C763 0.950 . S
H758 C764 0.949 . S
C759 H754 0.950 . S
C759 C761 1.327 . S
C759 C765 1.429 . S
C760 C752 1.574 . S
C760 H755 0.949 . S
C760 C766 1.368 . S
C761 C745 1.349 . S
C761 H753 0.950 . S
C761 C759 1.327 . S
C762 C750 1.349 1_556 S
C762 H756 0.950 . S
C762 C763 1.327 . S
C763 H757 0.950 . S
C763 C762 1.327 . S
C763 C767 1.429 . S
C764 C747 1.574 1_554 S
C764 H758 0.949 . S
C764 C768 1.368 1_554 S
C765 C746 1.429 . S
C765 C759 1.429 . S
C765 C766 1.523 . S
C766 C747 1.368 . S
C766 C760 1.368 . S
C766 C765 1.523 . S
C767 C751 1.429 1_556 S
C767 C763 1.429 . S
C767 C768 1.523 . S
C768 C752 1.368 . S
C768 C764 1.368 1_556 S
C768 C767 1.523 . S
H769 C744 0.950 . S
H770 C746 0.950 . S
H771 C747 0.949 1_554 S
H772 C749 0.950 . S
H773 C751 0.950 . S
C774 C775 1.349 . S
C774 C776 1.327 . S
C774 H799 0.950 . S
C775 C774 1.349 . S
C775 C791 1.349 . S
C776 C774 1.327 . S
C776 C795 1.429 . S
C776 H800 0.950 . S
C777 C794 1.571 1_556 S
C777 C796 1.368 . S
C777 H801 0.949 1_556 S
H778 C782 0.949 . S
C779 C780 1.302 1_554 S
C779 C781 1.327 . S
C779 H802 0.950 . S
C780 C779 1.302 1_556 S
C780 C792 1.415 . S
C781 C779 1.327 . S
C781 C797 1.429 1_554 S
C781 H803 0.950 . S
C782 H778 0.949 . S
C782 C790 1.574 . S
C782 C798 1.368 . S
H783 C791 0.950 . S
H784 C789 0.950 . S
H785 C790 0.949 . S
H786 C792 0.950 . S
H787 C793 0.950 . S
H788 C794 0.957 . S
C789 H784 0.950 . S
C789 C791 1.327 . S
C789 C795 1.429 . S
C790 C782 1.574 . S
C790 H785 0.949 . S
C790 C796 1.368 . S
C791 C775 1.349 . S
C791 H783 0.950 . S
C791 C789 1.327 . S
C792 C780 1.415 . S
C792 H786 0.950 . S
C792 C793 1.327 . S
C793 H787 0.950 . S
C793 C792 1.327 . S
C793 C797 1.429 . S
C794 C777 1.571 1_554 S
C794 H788 0.957 . S
C794 C798 1.362 1_554 S
C795 C776 1.429 . S
C795 C789 1.429 . S
C795 C796 1.523 . S
C796 C777 1.368 . S
C796 C790 1.368 . S
C796 C795 1.523 . S
C797 C781 1.429 1_556 S
C797 C793 1.429 . S
C797 C798 1.523 . S
C798 C782 1.368 . S
C798 C794 1.362 1_556 S
C798 C797 1.523 . S
H799 C774 0.950 . S
H800 C776 0.950 . S
H801 C777 0.949 1_554 S
H802 C779 0.950 . S
H803 C781 0.950 . S
C804 C805 1.349 . S
C804 C806 1.327 . S
C804 H829 0.950 . S
C805 C804 1.349 . S
C805 C821 1.349 . S
C806 C804 1.327 . S
C806 C825 1.429 . S
C806 H830 0.950 . S
C807 C824 1.574 . S
C807 C826 1.368 . S
C807 H831 0.949 . S
H808 C812 0.949 . S
C809 C810 1.349 . S
C809 C811 1.327 . S
C809 H832 0.950 . S
C810 C809 1.349 . S
C810 C822 1.349 . S
C811 C809 1.327 . S
C811 C827 1.429 . S
C811 H833 0.950 . S
C812 H808 0.949 . S
C812 C820 1.574 . S
C812 C828 1.368 . S
H813 C821 0.950 . S
H814 C819 0.950 . S
H815 C820 0.949 . S
H816 C822 0.950 . S
H817 C823 0.950 . S
H818 C824 0.949 . S
C819 H814 0.950 . S
C819 C821 1.327 . S
C819 C825 1.429 . S
C820 C812 1.574 . S
C820 H815 0.949 . S
C820 C826 1.368 . S
C821 C805 1.349 . S
C821 H813 0.950 . S
C821 C819 1.327 . S
C822 C810 1.349 . S
C822 H816 0.950 . S
C822 C823 1.327 . S
C823 H817 0.950 . S
C823 C822 1.327 . S
C823 C827 1.429 . S
C824 C807 1.574 . S
C824 H818 0.949 . S
C824 C828 1.368 . S
C825 C806 1.429 . S
C825 C819 1.429 . S
C825 C826 1.523 . S
C826 C807 1.368 . S
C826 C820 1.368 . S
C826 C825 1.523 . S
C827 C811 1.429 . S
C827 C823 1.429 . S
C827 C828 1.523 . S
C828 C812 1.368 . S
C828 C824 1.368 . S
C828 C827 1.523 . S
H829 C804 0.950 . S
H830 C806 0.950 . S
H831 C807 0.949 . S
H832 C809 0.950 . S
H833 C811 0.950 . S
C834 C835 1.349 . S
C834 C836 1.327 1_556 S
C834 H859 0.950 1_556 S
C835 C834 1.349 . S
C835 C851 1.349 . S
C836 C834 1.327 1_554 S
C836 C855 1.429 1_554 S
C836 H860 0.950 . S
C837 C854 1.574 . S
C837 C856 1.368 . S
C837 H861 0.949 . S
H838 C842 0.949 . S
C839 C840 1.328 1_556 S
C839 C841 1.334 . S
C839 H862 0.964 . S
C840 C839 1.328 1_554 S
C840 C852 1.349 . S
C841 C839 1.334 . S
C841 C857 1.429 1_556 S
C841 H863 0.950 . S
C842 H838 0.949 . S
C842 C850 1.574 . S
C842 C858 1.368 . S
H843 C851 0.950 . S
H844 C849 0.950 . S
H845 C850 0.949 . S
H846 C852 0.950 . S
H847 C853 0.950 . S
H848 C854 0.949 . S
C849 H844 0.950 . S
C849 C851 1.327 . S
C849 C855 1.429 . S
C850 C842 1.574 . S
C850 H845 0.949 . S
C850 C856 1.368 1_554 S
C851 C835 1.349 . S
C851 H843 0.950 . S
C851 C849 1.327 . S
C852 C840 1.349 . S
C852 H846 0.950 . S
C852 C853 1.327 . S
C853 H847 0.950 . S
C853 C852 1.327 . S
C853 C857 1.429 . S
C854 C837 1.574 . S
C854 H848 0.949 . S
C854 C858 1.368 1_556 S
C855 C836 1.429 1_556 S
C855 C849 1.429 . S
C855 C856 1.523 . S
C856 C837 1.368 . S
C856 C850 1.368 1_556 S
C856 C855 1.523 . S
C857 C841 1.429 1_554 S
C857 C853 1.429 . S
C857 C858 1.523 . S
C858 C842 1.368 . S
C858 C854 1.368 1_554 S
C858 C857 1.523 . S
H859 C834 0.950 1_554 S
H860 C836 0.950 . S
H861 C837 0.949 . S
H862 C839 0.964 . S
H863 C841 0.950 . S
C864 C865 1.349 . S
C864 C866 1.327 . S
C864 H889 0.950 . S
C865 C864 1.349 . S
C865 C881 1.349 . S
C866 C864 1.327 . S
C866 C885 1.429 . S
C866 H890 0.950 . S
C867 C884 1.574 . S
C867 C886 1.368 . S
C867 H891 0.949 . S
H868 C872 0.949 . S
C869 C870 1.349 . S
C869 C871 1.327 . S
C869 H892 0.950 1_554 S
C870 C869 1.349 . S
C870 C882 1.349 . S
C871 C869 1.327 . S
C871 C887 1.429 . S
C871 H893 0.950 . S
C872 H868 0.949 . S
C872 C880 1.574 . S
C872 C888 1.368 . S
H873 C881 0.950 . S
H874 C879 0.950 . S
H875 C880 0.949 . S
H876 C882 0.950 . S
H877 C883 0.950 . S
H878 C884 0.949 . S
C879 H874 0.950 . S
C879 C881 1.327 . S
C879 C885 1.429 . S
C880 C872 1.574 . S
C880 H875 0.949 . S
C880 C886 1.368 . S
C881 C865 1.349 . S
C881 H873 0.950 . S
C881 C879 1.327 . S
C882 C870 1.349 . S
C882 H876 0.950 . S
C882 C883 1.327 . S
C883 H877 0.950 . S
C883 C882 1.327 . S
C883 C887 1.429 . S
C884 C867 1.574 . S
C884 H878 0.949 . S
C884 C888 1.368 . S
C885 C866 1.429 . S
C885 C879 1.429 . S
C885 C886 1.523 . S
C886 C867 1.368 . S
C886 C880 1.368 . S
C886 C885 1.523 . S
C887 C871 1.429 . S
C887 C883 1.429 . S
C887 C888 1.523 . S
C888 C872 1.368 . S
C888 C884 1.368 . S
C888 C887 1.523 . S
H889 C864 0.950 . S
H890 C866 0.950 . S
H891 C867 0.949 . S
H892 C869 0.950 1_556 S
H893 C871 0.950 . S
C894 C895 1.349 . S
C894 C896 1.327 . S
C894 H919 0.950 . S
C895 C894 1.349 . S
C895 C911 1.349 . S
C896 C894 1.327 . S
C896 C915 1.429 . S
C896 H920 0.950 . S
C897 C914 1.574 . S
C897 C916 1.368 . S
C897 H921 0.949 . S
H898 C902 0.949 . S
C899 C900 1.349 . S
C899 C901 1.327 . S
C899 H922 0.950 . S
C900 C899 1.349 . S
C900 C912 1.349 . S
C901 C899 1.327 . S
C901 C917 1.429 . S
C901 H923 0.950 . S
C902 H898 0.949 . S
C902 C910 1.574 . S
C902 C918 1.368 . S
H903 C911 0.950 . S
H904 C909 0.950 . S
H905 C910 0.949 . S
H906 C912 0.950 . S
H907 C913 0.950 . S
H908 C914 0.949 . S
C909 H904 0.950 . S
C909 C911 1.327 . S
C909 C915 1.429 . S
C910 C902 1.574 . S
C910 H905 0.949 . S
C910 C916 1.368 . S
C911 C895 1.349 . S
C911 H903 0.950 . S
C911 C909 1.327 . S
C912 C900 1.349 . S
C912 H906 0.950 . S
C912 C913 1.327 . S
C913 H907 0.950 . S
C913 C912 1.327 . S
C913 C917 1.429 . S
C914 C897 1.574 . S
C914 H908 0.949 . S
C914 C918 1.368 . S
C915 C896 1.429 . S
C915 C909 1.429 . S
C915 C916 1.523 . S
C916 C897 1.368 . S
C916 C910 1.368 . S
C916 C915 1.523 . S
C917 C901 1.429 . S
C917 C913 1.429 . S
C917 C918 1.523 . S
C918 C902 1.368 . S
C918 C914 1.368 . S
C918 C917 1.523 . S
H919 C894 0.950 . S
H920 C896 0.950 . S
H921 C897 0.949 . S
H922 C899 0.950 . S
H923 C901 0.950 . S
C924 C925 1.349 . S
C924 C926 1.327 . S
C924 H949 0.950 . S
C925 C924 1.349 . S
C925 C941 1.349 . S
C926 C924 1.327 . S
C926 C945 1.429 . S
C926 H950 0.950 . S
C927 C944 1.574 . S
C927 C946 1.368 . S
C927 H951 0.949 . S
H928 C932 0.949 . S
C929 C930 1.349 . S
C929 C931 1.327 . S
C929 H952 0.950 1_554 S
C930 C929 1.349 . S
C930 C942 1.349 . S
C931 C929 1.327 . S
C931 C947 1.429 . S
C931 H953 0.950 . S
C932 H928 0.949 . S
C932 C940 1.574 . S
C932 C948 1.368 . S
H933 C941 0.950 . S
H934 C939 0.950 . S
H935 C940 0.949 . S
H936 C942 0.950 . S
H937 C943 0.950 . S
H938 C944 0.949 . S
C939 H934 0.950 . S
C939 C941 1.327 . S
C939 C945 1.429 . S
C940 C932 1.574 . S
C940 H935 0.949 . S
C940 C946 1.368 . S
C941 C925 1.349 . S
C941 H933 0.950 . S
C941 C939 1.327 . S
C942 C930 1.349 . S
C942 H936 0.950 . S
C942 C943 1.327 . S
C943 H937 0.950 . S
C943 C942 1.327 . S
C943 C947 1.429 . S
C944 C927 1.574 . S
C944 H938 0.949 . S
C944 C948 1.368 . S
C945 C926 1.429 . S
C945 C939 1.429 . S
C945 C946 1.523 . S
C946 C927 1.368 . S
C946 C940 1.368 . S
C946 C945 1.523 . S
C947 C931 1.429 . S
C947 C943 1.429 . S
C947 C948 1.523 . S
C948 C932 1.368 . S
C948 C944 1.368 . S
C948 C947 1.523 . S
H949 C924 0.950 . S
H950 C926 0.950 . S
H951 C927 0.949 . S
H952 C929 0.950 1_556 S
H953 C931 0.950 . S
C954 C955 1.349 . S
C954 C956 1.327 . S
C954 H979 0.950 . S
C955 C954 1.349 . S
C955 C971 1.349 . S
C956 C954 1.327 . S
C956 C975 1.429 . S
C956 H980 0.950 . S
C957 C974 1.574 1_655 S
C957 C976 1.368 . S
C957 H981 0.949 . S
H958 C962 0.949 . S
C959 C960 1.349 . S
C959 C961 1.327 . S
C959 H982 0.950 . S
C960 C959 1.349 . S
C960 C972 1.349 . S
C961 C959 1.327 . S
C961 C977 1.429 . S
C961 H983 0.950 . S
C962 H958 0.949 . S
C962 C970 1.574 . S
C962 C978 1.368 . S
H963 C971 0.950 . S
H964 C969 0.950 . S
H965 C970 0.949 1_655 S
H966 C972 0.950 . S
H967 C973 0.950 . S
H968 C974 0.949 . S
C969 H964 0.950 . S
C969 C971 1.327 . S
C969 C975 1.429 . S
C970 C962 1.574 . S
C970 H965 0.949 1_455 S
C970 C976 1.368 1_455 S
C971 C955 1.349 . S
C971 H963 0.950 . S
C971 C969 1.327 . S
C972 C960 1.349 . S
C972 H966 0.950 . S
C972 C973 1.327 . S
C973 H967 0.950 . S
C973 C972 1.327 . S
C973 C977 1.429 . S
C974 C957 1.574 1_455 S
C974 H968 0.949 . S
C974 C978 1.368 . S
C975 C956 1.429 . S
C975 C969 1.429 . S
C975 C976 1.523 . S
C976 C957 1.368 . S
C976 C970 1.368 1_655 S
C976 C975 1.523 . S
C977 C961 1.429 . S
C977 C973 1.429 . S
C977 C978 1.523 . S
C978 C962 1.368 . S
C978 C974 1.368 . S
C978 C977 1.523 . S
H979 C954 0.950 . S
H980 C956 0.950 . S
H981 C957 0.949 . S
H982 C959 0.950 . S
H983 C961 0.950 . S
C984 C985 1.349 . S
C984 C986 1.327 . S
C984 H1009 0.950 . S
C985 C984 1.349 . S
C985 C1001 1.349 . S
C986 C984 1.327 . S
C986 C1005 1.429 . S
C986 H1010 0.950 . S
C987 C1004 1.574 . S
C987 C1006 1.368 . S
C987 H1011 0.949 . S
H988 C992 0.949 . S
C989 C990 1.349 . S
C989 C991 1.327 . S
C989 H1012 0.950 . S
C990 C989 1.349 . S
C990 C1002 1.349 . S
C991 C989 1.327 . S
C991 C1007 1.429 . S
C991 H1013 0.950 . S
C992 H988 0.949 . S
C992 C1000 1.574 . S
C992 C1008 1.368 . S
H993 C1001 0.950 . S
H994 C999 0.950 . S
H995 C1000 0.949 . S
H996 C1002 0.950 . S
H997 C1003 0.950 . S
H998 C1004 0.949 . S
C999 H994 0.950 . S
C999 C1001 1.327 . S
C999 C1005 1.429 . S
C1000 C992 1.574 . S
C1000 H995 0.949 . S
C1000 C1006 1.368 . S
C1001 C985 1.349 . S
C1001 H993 0.950 . S
C1001 C999 1.327 . S
C1002 C990 1.349 . S
C1002 H996 0.950 . S
C1002 C1003 1.327 . S
C1003 H997 0.950 . S
C1003 C1002 1.327 . S
C1003 C1007 1.429 . S
C1004 C987 1.574 . S
C1004 H998 0.949 . S
C1004 C1008 1.368 . S
C1005 C986 1.429 . S
C1005 C999 1.429 . S
C1005 C1006 1.523 . S
C1006 C987 1.368 . S
C1006 C1000 1.368 . S
C1006 C1005 1.523 . S
C1007 C991 1.429 . S
C1007 C1003 1.429 . S
C1007 C1008 1.523 . S
C1008 C992 1.368 . S
C1008 C1004 1.368 . S
C1008 C1007 1.523 . S
H1009 C984 0.950 . S
H1010 C986 0.950 . S
H1011 C987 0.949 . S
H1012 C989 0.950 . S
H1013 C991 0.950 . S
C1014 C1015 1.349 . S
C1014 C1016 1.327 . S
C1014 H1039 0.950 . S
C1015 C1014 1.349 . S
C1015 C1031 1.349 . S
C1016 C1014 1.327 . S
C1016 C1035 1.429 . S
C1016 H1040 0.950 . S
C1017 C1034 1.580 1_545 S
C1017 C1036 1.367 . S
C1017 H1041 0.945 . S
H1018 C1022 0.949 . S
C1019 C1020 1.349 . S
C1019 C1021 1.327 . S
C1019 H1042 0.950 . S
C1020 C1019 1.349 . S
C1020 C1032 1.349 . S
C1021 C1019 1.327 . S
C1021 C1037 1.429 . S
C1021 H1043 0.950 . S
C1022 H1018 0.949 . S
C1022 C1030 1.574 1_565 S
C1022 C1038 1.368 . S
H1023 C1031 0.950 . S
H1024 C1029 0.950 . S
H1025 C1030 0.949 . S
H1026 C1032 0.950 . S
H1027 C1033 0.950 . S
H1028 C1034 0.949 . S
C1029 H1024 0.950 . S
C1029 C1031 1.327 . S
C1029 C1035 1.429 . S
C1030 C1022 1.574 1_545 S
C1030 H1025 0.949 . S
C1030 C1036 1.368 . S
C1031 C1015 1.349 . S
C1031 H1023 0.950 . S
C1031 C1029 1.327 . S
C1032 C1020 1.349 . S
C1032 H1026 0.950 . S
C1032 C1033 1.327 . S
C1033 H1027 0.950 . S
C1033 C1032 1.327 . S
C1033 C1037 1.429 . S
C1034 C1017 1.580 1_565 S
C1034 H1028 0.949 . S
C1034 C1038 1.368 . S
C1035 C1016 1.429 . S
C1035 C1029 1.429 . S
C1035 C1036 1.523 . S
C1036 C1017 1.367 . S
C1036 C1030 1.368 . S
C1036 C1035 1.523 . S
C1037 C1021 1.429 . S
C1037 C1033 1.429 . S
C1037 C1038 1.523 . S
C1038 C1022 1.368 . S
C1038 C1034 1.368 . S
C1038 C1037 1.523 . S
H1039 C1014 0.950 . S
H1040 C1016 0.950 . S
H1041 C1017 0.945 . S
H1042 C1019 0.950 . S
H1043 C1021 0.950 . S
C1044 C1045 1.349 . S
C1044 C1046 1.327 . S
C1044 H1069 0.950 . S
C1045 C1044 1.349 . S
C1045 C1061 1.349 . S
C1046 C1044 1.327 . S
C1046 C1065 1.429 . S
C1046 H1070 0.950 . S
C1047 C1064 1.574 . S
C1047 C1066 1.368 . S
C1047 H1071 0.949 . S
H1048 C1052 0.949 . S
C1049 C1050 1.349 . S
C1049 C1051 1.327 . S
C1049 H1072 0.950 . S
C1050 C1049 1.349 . S
C1050 C1062 1.349 . S
C1051 C1049 1.327 . S
C1051 C1067 1.429 . S
C1051 H1073 0.950 . S
C1052 H1048 0.949 . S
C1052 C1060 1.574 . S
C1052 C1068 1.368 . S
H1053 C1061 0.950 . S
H1054 C1059 0.950 . S
H1055 C1060 0.949 . S
H1056 C1062 0.950 . S
H1057 C1063 0.950 . S
H1058 C1064 0.949 . S
C1059 H1054 0.950 . S
C1059 C1061 1.327 . S
C1059 C1065 1.429 . S
C1060 C1052 1.574 . S
C1060 H1055 0.949 . S
C1060 C1066 1.368 . S
C1061 C1045 1.349 . S
C1061 H1053 0.950 . S
C1061 C1059 1.327 . S
C1062 C1050 1.349 . S
C1062 H1056 0.950 . S
C1062 C1063 1.327 . S
C1063 H1057 0.950 . S
C1063 C1062 1.327 . S
C1063 C1067 1.429 . S
C1064 C1047 1.574 . S
C1064 H1058 0.949 . S
C1064 C1068 1.368 . S
C1065 C1046 1.429 . S
C1065 C1059 1.429 . S
C1065 C1066 1.523 . S
C1066 C1047 1.368 . S
C1066 C1060 1.368 . S
C1066 C1065 1.523 . S
C1067 C1051 1.429 . S
C1067 C1063 1.429 . S
C1067 C1068 1.523 . S
C1068 C1052 1.368 . S
C1068 C1064 1.368 . S
C1068 C1067 1.523 . S
H1069 C1044 0.950 . S
H1070 C1046 0.950 . S
H1071 C1047 0.949 . S
H1072 C1049 0.950 . S
H1073 C1051 0.950 . S
C1074 C1075 1.349 . S
C1074 C1076 1.327 . S
C1074 H1099 0.950 . S
C1075 C1074 1.349 . S
C1075 C1091 1.349 . S
C1076 C1074 1.327 . S
C1076 C1095 1.429 . S
C1076 H1100 0.950 . S
C1077 C1094 1.574 . S
C1077 C1096 1.368 . S
C1077 H1101 0.949 . S
H1078 C1082 0.949 . S
C1079 C1080 1.349 . S
C1079 C1081 1.327 . S
C1079 H1102 0.950 . S
C1080 C1079 1.349 . S
C1080 C1092 1.349 . S
C1081 C1079 1.327 . S
C1081 C1097 1.429 . S
C1081 H1103 0.950 . S
C1082 H1078 0.949 . S
C1082 C1090 1.574 . S
C1082 C1098 1.368 . S
H1083 C1091 0.950 . S
H1084 C1089 0.950 . S
H1085 C1090 0.949 . S
H1086 C1092 0.950 . S
H1087 C1093 0.950 . S
H1088 C1094 0.949 . S
C1089 H1084 0.950 . S
C1089 C1091 1.327 . S
C1089 C1095 1.429 . S
C1090 C1082 1.574 . S
C1090 H1085 0.949 . S
C1090 C1096 1.368 . S
C1091 C1075 1.349 . S
C1091 H1083 0.950 . S
C1091 C1089 1.327 . S
C1092 C1080 1.349 . S
C1092 H1086 0.950 . S
C1092 C1093 1.327 . S
C1093 H1087 0.950 . S
C1093 C1092 1.327 . S
C1093 C1097 1.429 . S
C1094 C1077 1.574 . S
C1094 H1088 0.949 . S
C1094 C1098 1.368 . S
C1095 C1076 1.429 . S
C1095 C1089 1.429 . S
C1095 C1096 1.523 . S
C1096 C1077 1.368 . S
C1096 C1090 1.368 . S
C1096 C1095 1.523 . S
C1097 C1081 1.429 . S
C1097 C1093 1.429 . S
C1097 C1098 1.523 . S
C1098 C1082 1.368 . S
C1098 C1094 1.368 . S
C1098 C1097 1.523 . S
H1099 C1074 0.950 . S
H1100 C1076 0.950 . S
H1101 C1077 0.949 . S
H1102 C1079 0.950 . S
H1103 C1081 0.950 . S
C1104 C1105 1.349 . S
C1104 C1106 1.327 . S
C1104 H1129 0.950 . S
C1105 C1104 1.349 . S
C1105 C1121 1.349 . S
C1106 C1104 1.327 . S
C1106 C1125 1.429 . S
C1106 H1130 0.950 . S
C1107 C1124 1.574 . S
C1107 C1126 1.368 . S
C1107 H1131 0.949 . S
H1108 C1112 0.949 . S
C1109 C1110 1.349 . S
C1109 C1111 1.327 . S
C1109 H1132 0.950 . S
C1110 C1109 1.349 . S
C1110 C1122 1.349 . S
C1111 C1109 1.327 . S
C1111 C1127 1.429 . S
C1111 H1133 0.950 . S
C1112 H1108 0.949 . S
C1112 C1120 1.574 . S
C1112 C1128 1.368 . S
H1113 C1121 0.950 . S
H1114 C1119 0.950 . S
H1115 C1120 0.949 . S
H1116 C1122 0.950 . S
H1117 C1123 0.950 . S
H1118 C1124 0.949 . S
C1119 H1114 0.950 . S
C1119 C1121 1.327 . S
C1119 C1125 1.429 . S
C1120 C1112 1.574 . S
C1120 H1115 0.949 . S
C1120 C1126 1.368 . S
C1121 C1105 1.349 . S
C1121 H1113 0.950 . S
C1121 C1119 1.327 . S
C1122 C1110 1.349 . S
C1122 H1116 0.950 . S
C1122 C1123 1.327 . S
C1123 H1117 0.950 . S
C1123 C1122 1.327 . S
C1123 C1127 1.429 . S
C1124 C1107 1.574 . S
C1124 H1118 0.949 . S
C1124 C1128 1.368 . S
C1125 C1106 1.429 . S
C1125 C1119 1.429 . S
C1125 C1126 1.523 . S
C1126 C1107 1.368 . S
C1126 C1120 1.368 . S
C1126 C1125 1.523 . S
C1127 C1111 1.429 . S
C1127 C1123 1.429 . S
C1127 C1128 1.523 . S
C1128 C1112 1.368 . S
C1128 C1124 1.368 . S
C1128 C1127 1.523 . S
H1129 C1104 0.950 . S
H1130 C1106 0.950 . S
H1131 C1107 0.949 . S
H1132 C1109 0.950 . S
H1133 C1111 0.950 . S
C1134 C1135 1.349 . S
C1134 C1136 1.327 . S
C1134 H1159 0.950 . S
C1135 C1134 1.349 . S
C1135 C1151 1.349 . S
C1136 C1134 1.327 . S
C1136 C1155 1.429 . S
C1136 H1160 0.950 . S
C1137 C1154 1.574 . S
C1137 C1156 1.368 . S
C1137 H1161 0.949 . S
H1138 C1142 0.949 . S
C1139 C1140 1.349 . S
C1139 C1141 1.327 . S
C1139 H1162 0.950 . S
C1140 C1139 1.349 . S
C1140 C1152 1.349 . S
C1141 C1139 1.327 . S
C1141 C1157 1.429 . S
C1141 H1163 0.950 . S
C1142 H1138 0.949 . S
C1142 C1150 1.574 . S
C1142 C1158 1.368 . S
H1143 C1151 0.950 . S
H1144 C1149 0.950 . S
H1145 C1150 0.949 . S
H1146 C1152 0.950 . S
H1147 C1153 0.950 . S
H1148 C1154 0.949 . S
C1149 H1144 0.950 . S
C1149 C1151 1.327 . S
C1149 C1155 1.429 . S
C1150 C1142 1.574 . S
C1150 H1145 0.949 . S
C1150 C1156 1.368 . S
C1151 C1135 1.349 . S
C1151 H1143 0.950 . S
C1151 C1149 1.327 . S
C1152 C1140 1.349 . S
C1152 H1146 0.950 . S
C1152 C1153 1.327 . S
C1153 H1147 0.950 . S
C1153 C1152 1.327 . S
C1153 C1157 1.429 . S
C1154 C1137 1.574 . S
C1154 H1148 0.949 . S
C1154 C1158 1.368 . S
C1155 C1136 1.429 . S
C1155 C1149 1.429 . S
C1155 C1156 1.523 . S
C1156 C1137 1.368 . S
C1156 C1150 1.368 . S
C1156 C1155 1.523 . S
C1157 C1141 1.429 . S
C1157 C1153 1.429 . S
C1157 C1158 1.523 . S
C1158 C1142 1.368 . S
C1158 C1154 1.368 . S
C1158 C1157 1.523 . S
H1159 C1134 0.950 . S
H1160 C1136 0.950 . S
H1161 C1137 0.949 . S
H1162 C1139 0.950 . S
H1163 C1141 0.950 . S
C1164 C1165 1.349 . S
C1164 C1166 1.327 . S
C1164 H1189 0.950 . S
C1165 C1164 1.349 . S
C1165 C1181 1.349 . S
C1166 C1164 1.327 . S
C1166 C1185 1.429 . S
C1166 H1190 0.950 . S
C1167 C1184 1.574 . S
C1167 C1186 1.368 . S
C1167 H1191 0.949 . S
H1168 C1172 0.949 . S
C1169 C1170 1.349 . S
C1169 C1171 1.327 . S
C1169 H1192 0.950 . S
C1170 C1169 1.349 . S
C1170 C1182 1.349 . S
C1171 C1169 1.327 . S
C1171 C1187 1.429 . S
C1171 H1193 0.950 . S
C1172 H1168 0.949 . S
C1172 C1180 1.574 . S
C1172 C1188 1.368 . S
H1173 C1181 0.950 . S
H1174 C1179 0.950 . S
H1175 C1180 0.949 . S
H1176 C1182 0.950 . S
H1177 C1183 0.950 . S
H1178 C1184 0.949 . S
C1179 H1174 0.950 . S
C1179 C1181 1.327 . S
C1179 C1185 1.429 . S
C1180 C1172 1.574 . S
C1180 H1175 0.949 . S
C1180 C1186 1.368 . S
C1181 C1165 1.349 . S
C1181 H1173 0.950 . S
C1181 C1179 1.327 . S
C1182 C1170 1.349 . S
C1182 H1176 0.950 . S
C1182 C1183 1.327 . S
C1183 H1177 0.950 . S
C1183 C1182 1.327 . S
C1183 C1187 1.429 . S
C1184 C1167 1.574 . S
C1184 H1178 0.949 . S
C1184 C1188 1.368 . S
C1185 C1166 1.429 . S
C1185 C1179 1.429 . S
C1185 C1186 1.523 . S
C1186 C1167 1.368 . S
C1186 C1180 1.368 . S
C1186 C1185 1.523 . S
C1187 C1171 1.429 . S
C1187 C1183 1.429 . S
C1187 C1188 1.523 . S
C1188 C1172 1.368 . S
C1188 C1184 1.368 . S
C1188 C1187 1.523 . S
H1189 C1164 0.950 . S
H1190 C1166 0.950 . S
H1191 C1167 0.949 . S
H1192 C1169 0.950 . S
H1193 C1171 0.950 . S
C1194 C1195 1.349 . S
C1194 C1196 1.327 . S
C1194 H1219 0.950 . S
C1195 C1194 1.349 . S
C1195 C1211 1.349 . S
C1196 C1194 1.327 . S
C1196 C1215 1.429 . S
C1196 H1220 0.950 . S
C1197 C1214 1.574 . S
C1197 C1216 1.368 . S
C1197 H1221 0.949 . S
H1198 C1202 0.949 . S
C1199 C1200 1.349 . S
C1199 C1201 1.327 . S
C1199 H1222 0.950 . S
C1200 C1199 1.349 . S
C1200 C1212 1.349 . S
C1201 C1199 1.327 . S
C1201 C1217 1.429 . S
C1201 H1223 0.950 . S
C1202 H1198 0.949 . S
C1202 C1210 1.574 . S
C1202 C1218 1.368 . S
H1203 C1211 0.950 . S
H1204 C1209 0.950 . S
H1205 C1210 0.949 . S
H1206 C1212 0.950 . S
H1207 C1213 0.950 . S
H1208 C1214 0.949 . S
C1209 H1204 0.950 . S
C1209 C1211 1.327 . S
C1209 C1215 1.429 . S
C1210 C1202 1.574 . S
C1210 H1205 0.949 . S
C1210 C1216 1.368 . S
C1211 C1195 1.349 . S
C1211 H1203 0.950 . S
C1211 C1209 1.327 . S
C1212 C1200 1.349 . S
C1212 H1206 0.950 . S
C1212 C1213 1.327 . S
C1213 H1207 0.950 . S
C1213 C1212 1.327 . S
C1213 C1217 1.429 . S
C1214 C1197 1.574 . S
C1214 H1208 0.949 . S
C1214 C1218 1.368 . S
C1215 C1196 1.429 . S
C1215 C1209 1.429 . S
C1215 C1216 1.523 . S
C1216 C1197 1.368 . S
C1216 C1210 1.368 . S
C1216 C1215 1.523 . S
C1217 C1201 1.429 . S
C1217 C1213 1.429 . S
C1217 C1218 1.523 . S
C1218 C1202 1.368 . S
C1218 C1214 1.368 . S
C1218 C1217 1.523 . S
H1219 C1194 0.950 . S
H1220 C1196 0.950 . S
H1221 C1197 0.949 . S
H1222 C1199 0.950 . S
H1223 C1201 0.950 . S
C1224 C1225 1.349 . S
C1224 C1226 1.327 . S
C1224 H1249 0.950 . S
C1225 C1224 1.349 . S
C1225 C1241 1.349 . S
C1226 C1224 1.327 . S
C1226 C1245 1.429 . S
C1226 H1250 0.950 . S
C1227 C1244 1.574 1_545 S
C1227 C1246 1.368 . S
C1227 H1251 0.949 . S
H1228 C1232 0.949 . S
C1229 C1230 1.349 . S
C1229 C1231 1.327 . S
C1229 H1252 0.950 . S
C1230 C1229 1.349 . S
C1230 C1242 1.349 . S
C1231 C1229 1.327 . S
C1231 C1247 1.429 . S
C1231 H1253 0.950 . S
C1232 H1228 0.949 . S
C1232 C1240 1.574 1_565 S
C1232 C1248 1.368 . S
H1233 C1241 0.950 . S
H1234 C1239 0.950 . S
H1235 C1240 0.949 . S
H1236 C1242 0.950 . S
H1237 C1243 0.950 . S
H1238 C1244 0.949 . S
C1239 H1234 0.950 . S
C1239 C1241 1.327 . S
C1239 C1245 1.429 . S
C1240 C1232 1.574 1_545 S
C1240 H1235 0.949 . S
C1240 C1246 1.368 . S
C1241 C1225 1.349 . S
C1241 H1233 0.950 . S
C1241 C1239 1.327 . S
C1242 C1230 1.349 . S
C1242 H1236 0.950 . S
C1242 C1243 1.327 . S
C1243 H1237 0.950 . S
C1243 C1242 1.327 . S
C1243 C1247 1.429 . S
C1244 C1227 1.574 1_565 S
C1244 H1238 0.949 . S
C1244 C1248 1.368 . S
C1245 C1226 1.429 . S
C1245 C1239 1.429 . S
C1245 C1246 1.523 . S
C1246 C1227 1.368 . S
C1246 C1240 1.368 . S
C1246 C1245 1.523 . S
C1247 C1231 1.429 . S
C1247 C1243 1.429 . S
C1247 C1248 1.523 . S
C1248 C1232 1.368 . S
C1248 C1244 1.368 . S
C1248 C1247 1.523 . S
H1249 C1224 0.950 . S
H1250 C1226 0.950 . S
H1251 C1227 0.949 . S
H1252 C1229 0.950 . S
H1253 C1231 0.950 . S
C1254 C1255 1.349 . S
C1254 C1256 1.327 . S
C1254 H1279 0.950 . S
C1255 C1254 1.349 . S
C1255 C1271 1.349 . S
C1256 C1254 1.327 . S
C1256 C1275 1.429 . S
C1256 H1280 0.950 . S
C1257 C1274 1.574 1_655 S
C1257 C1276 1.367 . S
C1257 H1281 0.949 . S
H1258 C1262 0.949 . S
C1259 C1260 1.349 . S
C1259 C1261 1.327 . S
C1259 H1282 0.950 . S
C1260 C1259 1.349 . S
C1260 C1272 1.349 . S
C1261 C1259 1.327 . S
C1261 C1277 1.429 . S
C1261 H1283 0.950 . S
C1262 H1258 0.949 . S
C1262 C1270 1.574 . S
C1262 C1278 1.368 . S
H1263 C1271 0.950 . S
H1264 C1269 0.950 . S
H1265 C1270 0.949 . S
H1266 C1272 0.950 . S
H1267 C1273 0.950 . S
H1268 C1274 0.949 . S
C1269 H1264 0.950 . S
C1269 C1271 1.327 . S
C1269 C1275 1.429 . S
C1270 C1262 1.574 . S
C1270 H1265 0.949 . S
C1270 C1276 1.364 1_455 S
C1271 C1255 1.349 . S
C1271 H1263 0.950 . S
C1271 C1269 1.327 . S
C1272 C1260 1.349 . S
C1272 H1266 0.950 . S
C1272 C1273 1.327 . S
C1273 H1267 0.950 . S
C1273 C1272 1.327 . S
C1273 C1277 1.429 . S
C1274 C1257 1.574 1_455 S
C1274 H1268 0.949 . S
C1274 C1278 1.368 . S
C1275 C1256 1.429 . S
C1275 C1269 1.429 . S
C1275 C1276 1.531 . S
C1276 C1257 1.367 . S
C1276 C1270 1.364 1_655 S
C1276 C1275 1.531 . S
C1277 C1261 1.429 . S
C1277 C1273 1.429 . S
C1277 C1278 1.523 . S
C1278 C1262 1.368 . S
C1278 C1274 1.368 . S
C1278 C1277 1.523 . S
H1279 C1254 0.950 . S
H1280 C1256 0.950 . S
H1281 C1257 0.949 . S
H1282 C1259 0.950 . S
H1283 C1261 0.950 . S
C1284 C1285 1.349 . S
C1284 C1286 1.327 . S
C1284 H1309 0.950 . S
C1285 C1284 1.349 . S
C1285 C1301 1.349 . S
C1286 C1284 1.327 . S
C1286 C1305 1.429 . S
C1286 H1310 0.950 . S
C1287 C1304 1.574 . S
C1287 C1306 1.368 . S
C1287 H1311 0.949 . S
H1288 C1292 0.949 . S
C1289 C1290 1.349 . S
C1289 C1291 1.327 . S
C1289 H1312 0.950 . S
C1290 C1289 1.349 . S
C1290 C1302 1.349 . S
C1291 C1289 1.327 . S
C1291 C1307 1.429 . S
C1291 H1313 0.950 . S
C1292 H1288 0.949 . S
C1292 C1300 1.574 . S
C1292 C1308 1.368 . S
H1293 C1301 0.950 . S
H1294 C1299 0.950 . S
H1295 C1300 0.949 . S
H1296 C1302 0.950 . S
H1297 C1303 0.950 . S
H1298 C1304 0.949 . S
C1299 H1294 0.950 . S
C1299 C1301 1.327 . S
C1299 C1305 1.429 . S
C1300 C1292 1.574 . S
C1300 H1295 0.949 . S
C1300 C1306 1.368 . S
C1301 C1285 1.349 . S
C1301 H1293 0.950 . S
C1301 C1299 1.327 . S
C1302 C1290 1.349 . S
C1302 H1296 0.950 . S
C1302 C1303 1.327 . S
C1303 H1297 0.950 . S
C1303 C1302 1.327 . S
C1303 C1307 1.429 . S
C1304 C1287 1.574 . S
C1304 H1298 0.949 . S
C1304 C1308 1.368 . S
C1305 C1286 1.429 . S
C1305 C1299 1.429 . S
C1305 C1306 1.523 . S
C1306 C1287 1.368 . S
C1306 C1300 1.368 . S
C1306 C1305 1.523 . S
C1307 C1291 1.429 . S
C1307 C1303 1.429 . S
C1307 C1308 1.523 . S
C1308 C1292 1.368 . S
C1308 C1304 1.368 . S
C1308 C1307 1.523 . S
H1309 C1284 0.950 . S
H1310 C1286 0.950 . S
H1311 C1287 0.949 . S
H1312 C1289 0.950 . S
H1313 C1291 0.950 . S
C1314 C1315 1.349 . S
C1314 C1316 1.327 . S
C1314 H1339 0.950 . S
C1315 C1314 1.349 . S
C1315 C1331 1.349 . S
C1316 C1314 1.327 . S
C1316 C1335 1.429 . S
C1316 H1340 0.950 . S
C1317 C1334 1.574 . S
C1317 C1336 1.368 . S
C1317 H1341 0.949 . S
H1318 C1322 0.949 . S
C1319 C1320 1.349 . S
C1319 C1321 1.327 . S
C1319 H1342 0.950 . S
C1320 C1319 1.349 . S
C1320 C1332 1.349 . S
C1321 C1319 1.327 . S
C1321 C1337 1.429 . S
C1321 H1343 0.950 . S
C1322 H1318 0.949 . S
C1322 C1330 1.574 . S
C1322 C1338 1.368 . S
H1323 C1331 0.950 . S
H1324 C1329 0.950 . S
H1325 C1330 0.949 . S
H1326 C1332 0.950 . S
H1327 C1333 0.950 . S
H1328 C1334 0.949 . S
C1329 H1324 0.950 . S
C1329 C1331 1.327 . S
C1329 C1335 1.429 . S
C1330 C1322 1.574 . S
C1330 H1325 0.949 . S
C1330 C1336 1.368 . S
C1331 C1315 1.349 . S
C1331 H1323 0.950 . S
C1331 C1329 1.327 . S
C1332 C1320 1.349 . S
C1332 H1326 0.950 . S
C1332 C1333 1.327 . S
C1333 H1327 0.950 . S
C1333 C1332 1.327 . S
C1333 C1337 1.429 . S
C1334 C1317 1.574 . S
C1334 H1328 0.949 . S
C1334 C1338 1.368 . S
C1335 C1316 1.429 . S
C1335 C1329 1.429 . S
C1335 C1336 1.523 . S
C1336 C1317 1.368 . S
C1336 C1330 1.368 . S
C1336 C1335 1.523 . S
C1337 C1321 1.429 . S
C1337 C1333 1.429 . S
C1337 C1338 1.523 . S
C1338 C1322 1.368 . S
C1338 C1334 1.368 . S
C1338 C1337 1.523 . S
H1339 C1314 0.950 . S
H1340 C1316 0.950 . S
H1341 C1317 0.949 . S
H1342 C1319 0.950 . S
H1343 C1321 0.950 . S
C1344 C1345 1.349 . S
C1344 C1346 1.327 . S
C1344 H1369 0.950 . S
C1345 C1344 1.349 . S
C1345 C1361 1.349 . S
C1346 C1344 1.327 . S
C1346 C1365 1.429 . S
C1346 H1370 0.950 . S
C1347 C1364 1.574 . S
C1347 C1366 1.368 . S
C1347 H1371 0.949 . S
H1348 C1352 0.949 . S
C1349 C1350 1.349 . S
C1349 C1351 1.327 . S
C1349 H1372 0.950 . S
C1350 C1349 1.349 . S
C1350 C1362 1.349 . S
C1351 C1349 1.327 . S
C1351 C1367 1.429 . S
C1351 H1373 0.950 . S
C1352 H1348 0.949 . S
C1352 C1360 1.574 . S
C1352 C1368 1.368 . S
H1353 C1361 0.950 . S
H1354 C1359 0.950 . S
H1355 C1360 0.949 . S
H1356 C1362 0.950 . S
H1357 C1363 0.950 . S
H1358 C1364 0.949 . S
C1359 H1354 0.950 . S
C1359 C1361 1.327 . S
C1359 C1365 1.429 . S
C1360 C1352 1.574 . S
C1360 H1355 0.949 . S
C1360 C1366 1.368 . S
C1361 C1345 1.349 . S
C1361 H1353 0.950 . S
C1361 C1359 1.327 . S
C1362 C1350 1.349 . S
C1362 H1356 0.950 . S
C1362 C1363 1.327 . S
C1363 H1357 0.950 . S
C1363 C1362 1.327 . S
C1363 C1367 1.429 . S
C1364 C1347 1.574 . S
C1364 H1358 0.949 . S
C1364 C1368 1.368 . S
C1365 C1346 1.429 . S
C1365 C1359 1.429 . S
C1365 C1366 1.523 . S
C1366 C1347 1.368 . S
C1366 C1360 1.368 . S
C1366 C1365 1.523 . S
C1367 C1351 1.429 . S
C1367 C1363 1.429 . S
C1367 C1368 1.523 . S
C1368 C1352 1.368 . S
C1368 C1364 1.368 . S
C1368 C1367 1.523 . S
H1369 C1344 0.950 . S
H1370 C1346 0.950 . S
H1371 C1347 0.949 . S
H1372 C1349 0.950 . S
H1373 C1351 0.950 . S
C1374 C1375 1.349 . S
C1374 C1376 1.327 . S
C1374 H1399 0.950 . S
C1375 C1374 1.349 . S
C1375 C1391 1.349 . S
C1376 C1374 1.327 . S
C1376 C1395 1.429 . S
C1376 H1400 0.950 . S
C1377 C1394 1.574 . S
C1377 C1396 1.368 . S
C1377 H1401 0.949 . S
H1378 C1382 0.949 . S
C1379 C1380 1.349 . S
C1379 C1381 1.327 . S
C1379 H1402 0.950 . S
C1380 C1379 1.349 . S
C1380 C1392 1.349 . S
C1381 C1379 1.327 . S
C1381 C1397 1.429 . S
C1381 H1403 0.950 . S
C1382 H1378 0.949 . S
C1382 C1390 1.574 . S
C1382 C1398 1.368 . S
H1383 C1391 0.950 . S
H1384 C1389 0.950 . S
H1385 C1390 0.949 . S
H1386 C1392 0.950 . S
H1387 C1393 0.950 . S
H1388 C1394 0.949 . S
C1389 H1384 0.950 . S
C1389 C1391 1.327 . S
C1389 C1395 1.429 . S
C1390 C1382 1.574 . S
C1390 H1385 0.949 . S
C1390 C1396 1.368 . S
C1391 C1375 1.349 . S
C1391 H1383 0.950 . S
C1391 C1389 1.327 . S
C1392 C1380 1.349 . S
C1392 H1386 0.950 . S
C1392 C1393 1.327 . S
C1393 H1387 0.950 . S
C1393 C1392 1.327 . S
C1393 C1397 1.429 . S
C1394 C1377 1.574 . S
C1394 H1388 0.949 . S
C1394 C1398 1.368 . S
C1395 C1376 1.429 . S
C1395 C1389 1.429 . S
C1395 C1396 1.523 . S
C1396 C1377 1.368 . S
C1396 C1390 1.368 . S
C1396 C1395 1.523 . S
C1397 C1381 1.429 . S
C1397 C1393 1.429 . S
C1397 C1398 1.523 . S
C1398 C1382 1.368 . S
C1398 C1394 1.368 . S
C1398 C1397 1.523 . S
H1399 C1374 0.950 . S
H1400 C1376 0.950 . S
H1401 C1377 0.949 . S
H1402 C1379 0.950 . S
H1403 C1381 0.950 . S
C1404 C1405 1.349 . S
C1404 C1406 1.327 . S
C1404 H1429 0.950 . S
C1405 C1404 1.349 . S
C1405 C1421 1.349 . S
C1406 C1404 1.327 . S
C1406 C1425 1.429 . S
C1406 H1430 0.950 . S
C1407 C1424 1.574 . S
C1407 C1426 1.368 1_545 S
C1407 H1431 0.949 1_545 S
H1408 C1412 0.949 . S
C1409 C1410 1.349 . S
C1409 C1411 1.327 . S
C1409 H1432 0.950 . S
C1410 C1409 1.349 . S
C1410 C1422 1.349 . S
C1411 C1409 1.327 . S
C1411 C1427 1.429 . S
C1411 H1433 0.950 . S
C1412 H1408 0.949 . S
C1412 C1420 1.574 . S
C1412 C1428 1.368 . S
H1413 C1421 0.950 . S
H1414 C1419 0.950 . S
H1415 C1420 0.949 . S
H1416 C1422 0.950 . S
H1417 C1423 0.950 . S
H1418 C1424 0.949 . S
C1419 H1414 0.950 . S
C1419 C1421 1.327 . S
C1419 C1425 1.429 . S
C1420 C1412 1.574 . S
C1420 H1415 0.949 . S
C1420 C1426 1.368 1_545 S
C1421 C1405 1.349 . S
C1421 H1413 0.950 . S
C1421 C1419 1.327 . S
C1422 C1410 1.349 . S
C1422 H1416 0.950 . S
C1422 C1423 1.327 . S
C1423 H1417 0.950 . S
C1423 C1422 1.327 . S
C1423 C1427 1.429 . S
C1424 C1407 1.574 . S
C1424 H1418 0.949 . S
C1424 C1428 1.368 . S
C1425 C1406 1.429 . S
C1425 C1419 1.429 . S
C1425 C1426 1.523 . S
C1426 C1407 1.368 1_565 S
C1426 C1420 1.368 1_565 S
C1426 C1425 1.523 . S
C1427 C1411 1.429 . S
C1427 C1423 1.429 . S
C1427 C1428 1.523 . S
C1428 C1412 1.368 . S
C1428 C1424 1.368 . S
C1428 C1427 1.523 . S
H1429 C1404 0.950 . S
H1430 C1406 0.950 . S
H1431 C1407 0.949 1_565 S
H1432 C1409 0.950 . S
H1433 C1411 0.950 . S
C1434 C1435 1.349 . S
C1434 C1436 1.327 . S
C1434 H1459 0.950 . S
C1435 C1434 1.349 . S
C1435 C1451 1.349 . S
C1436 C1434 1.327 . S
C1436 C1455 1.429 . S
C1436 H1460 0.950 . S
C1437 C1454 1.574 . S
C1437 C1456 1.368 . S
C1437 H1461 0.949 . S
H1438 C1442 0.949 . S
C1439 C1440 1.349 . S
C1439 C1441 1.327 . S
C1439 H1462 0.950 . S
C1440 C1439 1.349 . S
C1440 C1452 1.349 . S
C1441 C1439 1.327 . S
C1441 C1457 1.429 . S
C1441 H1463 0.950 . S
C1442 H1438 0.949 . S
C1442 C1450 1.574 . S
C1442 C1458 1.368 . S
H1443 C1451 0.950 . S
H1444 C1449 0.950 . S
H1445 C1450 0.949 . S
H1446 C1452 0.950 . S
H1447 C1453 0.950 . S
H1448 C1454 0.949 . S
C1449 H1444 0.950 . S
C1449 C1451 1.327 . S
C1449 C1455 1.429 . S
C1450 C1442 1.574 . S
C1450 H1445 0.949 . S
C1450 C1456 1.368 . S
C1451 C1435 1.349 . S
C1451 H1443 0.950 . S
C1451 C1449 1.327 . S
C1452 C1440 1.349 . S
C1452 H1446 0.950 . S
C1452 C1453 1.327 . S
C1453 H1447 0.950 . S
C1453 C1452 1.327 . S
C1453 C1457 1.429 . S
C1454 C1437 1.574 . S
C1454 H1448 0.949 . S
C1454 C1458 1.368 . S
C1455 C1436 1.429 . S
C1455 C1449 1.429 . S
C1455 C1456 1.523 1_455 S
C1456 C1437 1.368 . S
C1456 C1450 1.368 . S
C1456 C1455 1.523 1_655 S
C1457 C1441 1.429 . S
C1457 C1453 1.429 . S
C1457 C1458 1.523 . S
C1458 C1442 1.368 . S
C1458 C1454 1.368 . S
C1458 C1457 1.523 . S
H1459 C1434 0.950 . S
H1460 C1436 0.950 . S
H1461 C1437 0.949 . S
H1462 C1439 0.950 . S
H1463 C1441 0.950 . S
C1464 C1465 1.349 . S
C1464 C1466 1.327 . S
C1464 H1489 0.950 . S
C1465 C1464 1.349 . S
C1465 C1481 1.349 . S
C1466 C1464 1.327 . S
C1466 C1485 1.429 . S
C1466 H1490 0.950 . S
C1467 C1484 1.574 . S
C1467 C1486 1.368 . S
C1467 H1491 0.949 . S
H1468 C1472 0.949 . S
C1469 C1470 1.349 . S
C1469 C1471 1.327 . S
C1469 H1492 0.950 . S
C1470 C1469 1.349 . S
C1470 C1482 1.349 . S
C1471 C1469 1.327 . S
C1471 C1487 1.429 . S
C1471 H1493 0.950 . S
C1472 H1468 0.949 . S
C1472 C1480 1.574 . S
C1472 C1488 1.368 . S
H1473 C1481 0.950 . S
H1474 C1479 0.950 . S
H1475 C1480 0.949 . S
H1476 C1482 0.950 . S
H1477 C1483 0.950 . S
H1478 C1484 0.949 . S
C1479 H1474 0.950 . S
C1479 C1481 1.327 . S
C1479 C1485 1.429 . S
C1480 C1472 1.574 . S
C1480 H1475 0.949 . S
C1480 C1486 1.368 . S
C1481 C1465 1.349 . S
C1481 H1473 0.950 . S
C1481 C1479 1.327 . S
C1482 C1470 1.349 . S
C1482 H1476 0.950 . S
C1482 C1483 1.327 . S
C1483 H1477 0.950 . S
C1483 C1482 1.327 . S
C1483 C1487 1.429 . S
C1484 C1467 1.574 . S
C1484 H1478 0.949 . S
C1484 C1488 1.368 . S
C1485 C1466 1.429 . S
C1485 C1479 1.429 . S
C1485 C1486 1.523 . S
C1486 C1467 1.368 . S
C1486 C1480 1.368 . S
C1486 C1485 1.523 . S
C1487 C1471 1.429 . S
C1487 C1483 1.429 . S
C1487 C1488 1.523 . S
C1488 C1472 1.368 . S
C1488 C1484 1.368 . S
C1488 C1487 1.523 . S
H1489 C1464 0.950 . S
H1490 C1466 0.950 . S
H1491 C1467 0.949 . S
H1492 C1469 0.950 . S
H1493 C1471 0.950 . S
C1494 C1495 1.349 . S
C1494 C1496 1.327 . S
C1494 H1519 0.950 . S
C1495 C1494 1.349 . S
C1495 C1511 1.349 . S
C1496 C1494 1.327 . S
C1496 C1515 1.429 . S
C1496 H1520 0.950 . S
C1497 C1514 1.574 . S
C1497 C1516 1.368 . S
C1497 H1521 0.949 . S
H1498 C1502 0.949 . S
C1499 C1500 1.349 . S
C1499 C1501 1.327 . S
C1499 H1522 0.950 . S
C1500 C1499 1.349 . S
C1500 C1512 1.349 . S
C1501 C1499 1.327 . S
C1501 C1517 1.429 . S
C1501 H1523 0.950 . S
C1502 H1498 0.949 . S
C1502 C1510 1.574 . S
C1502 C1518 1.372 1_455 S
H1503 C1511 0.950 . S
H1504 C1509 0.950 . S
H1505 C1510 0.949 . S
H1506 C1512 0.950 . S
H1507 C1513 0.950 . S
H1508 C1514 0.949 1_655 S
C1509 H1504 0.950 . S
C1509 C1511 1.327 . S
C1509 C1515 1.429 . S
C1510 C1502 1.574 . S
C1510 H1505 0.949 . S
C1510 C1516 1.368 . S
C1511 C1495 1.349 . S
C1511 H1503 0.950 . S
C1511 C1509 1.327 . S
C1512 C1500 1.349 . S
C1512 H1506 0.950 . S
C1512 C1513 1.327 . S
C1513 H1507 0.950 . S
C1513 C1512 1.327 . S
C1513 C1517 1.429 . S
C1514 C1497 1.574 . S
C1514 H1508 0.949 1_455 S
C1514 C1518 1.368 1_455 S
C1515 C1496 1.429 . S
C1515 C1509 1.429 . S
C1515 C1516 1.523 . S
C1516 C1497 1.368 . S
C1516 C1510 1.368 . S
C1516 C1515 1.523 . S
C1517 C1501 1.429 . S
C1517 C1513 1.429 . S
C1517 C1518 1.519 . S
C1518 C1502 1.372 1_655 S
C1518 C1514 1.368 1_655 S
C1518 C1517 1.519 . S
H1519 C1494 0.950 . S
H1520 C1496 0.950 . S
H1521 C1497 0.949 . S
H1522 C1499 0.950 . S
H1523 C1501 0.950 . S
C1524 C1525 1.349 . S
C1524 C1526 1.327 . S
C1524 H1549 0.950 . S
C1525 C1524 1.349 . S
C1525 C1541 1.349 . S
C1526 C1524 1.327 . S
C1526 C1545 1.429 . S
C1526 H1550 0.950 . S
C1527 C1544 1.574 . S
C1527 C1546 1.368 . S
C1527 H1551 0.949 . S
H1528 C1532 0.949 . S
C1529 C1530 1.349 . S
C1529 C1531 1.327 . S
C1529 H1552 0.950 . S
C1530 C1529 1.349 . S
C1530 C1542 1.349 . S
C1531 C1529 1.327 . S
C1531 C1547 1.429 . S
C1531 H1553 0.950 . S
C1532 H1528 0.949 . S
C1532 C1540 1.574 . S
C1532 C1548 1.368 . S
H1533 C1541 0.950 . S
H1534 C1539 0.950 . S
H1535 C1540 0.949 . S
H1536 C1542 0.950 . S
H1537 C1543 0.950 . S
H1538 C1544 0.949 . S
C1539 H1534 0.950 . S
C1539 C1541 1.327 . S
C1539 C1545 1.429 . S
C1540 C1532 1.574 . S
C1540 H1535 0.949 . S
C1540 C1546 1.368 . S
C1541 C1525 1.349 . S
C1541 H1533 0.950 . S
C1541 C1539 1.327 . S
C1542 C1530 1.349 . S
C1542 H1536 0.950 . S
C1542 C1543 1.327 . S
C1543 H1537 0.950 . S
C1543 C1542 1.327 . S
C1543 C1547 1.429 . S
C1544 C1527 1.574 . S
C1544 H1538 0.949 . S
C1544 C1548 1.368 . S
C1545 C1526 1.429 . S
C1545 C1539 1.429 . S
C1545 C1546 1.523 . S
C1546 C1527 1.368 . S
C1546 C1540 1.368 . S
C1546 C1545 1.523 . S
C1547 C1531 1.429 . S
C1547 C1543 1.429 . S
C1547 C1548 1.523 . S
C1548 C1532 1.368 . S
C1548 C1544 1.368 . S
C1548 C1547 1.523 . S
H1549 C1524 0.950 . S
H1550 C1526 0.950 . S
H1551 C1527 0.949 . S
H1552 C1529 0.950 . S
H1553 C1531 0.950 . S
C1554 C1555 1.349 . S
C1554 C1556 1.327 . S
C1554 H1579 0.950 . S
C1555 C1554 1.349 . S
C1555 C1571 1.349 . S
C1556 C1554 1.327 . S
C1556 C1575 1.429 . S
C1556 H1580 0.950 . S
C1557 C1574 1.574 1_565 S
C1557 C1576 1.368 . S
C1557 H1581 0.949 . S
H1558 C1562 0.949 . S
C1559 C1560 1.349 . S
C1559 C1561 1.327 . S
C1559 H1582 0.950 . S
C1560 C1559 1.349 . S
C1560 C1572 1.349 . S
C1561 C1559 1.327 . S
C1561 C1577 1.429 . S
C1561 H1583 0.950 . S
C1562 H1558 0.949 . S
C1562 C1570 1.574 1_545 S
C1562 C1578 1.368 . S
H1563 C1571 0.950 . S
H1564 C1569 0.950 . S
H1565 C1570 0.949 . S
H1566 C1572 0.950 . S
H1567 C1573 0.950 . S
H1568 C1574 0.949 . S
C1569 H1564 0.950 . S
C1569 C1571 1.327 . S
C1569 C1575 1.429 . S
C1570 C1562 1.574 1_565 S
C1570 H1565 0.949 . S
C1570 C1576 1.368 . S
C1571 C1555 1.349 . S
C1571 H1563 0.950 . S
C1571 C1569 1.327 . S
C1572 C1560 1.349 . S
C1572 H1566 0.950 . S
C1572 C1573 1.327 . S
C1573 H1567 0.950 . S
C1573 C1572 1.327 . S
C1573 C1577 1.429 . S
C1574 C1557 1.574 1_545 S
C1574 H1568 0.949 . S
C1574 C1578 1.368 . S
C1575 C1556 1.429 . S
C1575 C1569 1.429 . S
C1575 C1576 1.523 . S
C1576 C1557 1.368 . S
C1576 C1570 1.368 . S
C1576 C1575 1.523 . S
C1577 C1561 1.429 . S
C1577 C1573 1.429 . S
C1577 C1578 1.523 . S
C1578 C1562 1.368 . S
C1578 C1574 1.368 . S
C1578 C1577 1.523 . S
H1579 C1554 0.950 . S
H1580 C1556 0.950 . S
H1581 C1557 0.949 . S
H1582 C1559 0.950 . S
H1583 C1561 0.950 . S
C1584 C1585 1.349 . S
C1584 C1586 1.327 . S
C1584 H1609 0.950 . S
C1585 C1584 1.349 . S
C1585 C1601 1.349 . S
C1586 C1584 1.327 . S
C1586 C1605 1.429 . S
C1586 H1610 0.950 . S
C1587 C1604 1.574 . S
C1587 C1606 1.368 . S
C1587 H1611 0.949 . S
H1588 C1592 0.949 . S
C1589 C1590 1.349 . S
C1589 C1591 1.327 . S
C1589 H1612 0.950 . S
C1590 C1589 1.349 . S
C1590 C1602 1.349 . S
C1591 C1589 1.327 . S
C1591 C1607 1.429 . S
C1591 H1613 0.950 . S
C1592 H1588 0.949 . S
C1592 C1600 1.574 . S
C1592 C1608 1.368 . S
H1593 C1601 0.950 . S
H1594 C1599 0.950 . S
H1595 C1600 0.949 . S
H1596 C1602 0.950 . S
H1597 C1603 0.950 . S
H1598 C1604 0.949 . S
C1599 H1594 0.950 . S
C1599 C1601 1.327 . S
C1599 C1605 1.429 . S
C1600 C1592 1.574 . S
C1600 H1595 0.949 . S
C1600 C1606 1.368 . S
C1601 C1585 1.349 . S
C1601 H1593 0.950 . S
C1601 C1599 1.327 . S
C1602 C1590 1.349 . S
C1602 H1596 0.950 . S
C1602 C1603 1.327 . S
C1603 H1597 0.950 . S
C1603 C1602 1.327 . S
C1603 C1607 1.429 . S
C1604 C1587 1.574 . S
C1604 H1598 0.949 . S
C1604 C1608 1.368 . S
C1605 C1586 1.429 . S
C1605 C1599 1.429 . S
C1605 C1606 1.523 . S
C1606 C1587 1.368 . S
C1606 C1600 1.368 . S
C1606 C1605 1.523 . S
C1607 C1591 1.429 . S
C1607 C1603 1.429 . S
C1607 C1608 1.523 . S
C1608 C1592 1.368 . S
C1608 C1604 1.368 . S
C1608 C1607 1.523 . S
H1609 C1584 0.950 . S
H1610 C1586 0.950 . S
H1611 C1587 0.949 . S
H1612 C1589 0.950 . S
H1613 C1591 0.950 . S
C1614 C1615 1.349 . S
C1614 C1616 1.327 . S
C1614 H1639 0.950 . S
C1615 C1614 1.349 . S
C1615 C1631 1.349 . S
C1616 C1614 1.327 . S
C1616 C1635 1.429 . S
C1616 H1640 0.950 . S
C1617 C1634 1.574 . S
C1617 C1636 1.368 . S
C1617 H1641 0.949 . S
H1618 C1622 0.949 . S
C1619 C1620 1.349 . S
C1619 C1621 1.327 . S
C1619 H1642 0.950 . S
C1620 C1619 1.349 . S
C1620 C1632 1.349 . S
C1621 C1619 1.327 . S
C1621 C1637 1.429 . S
C1621 H1643 0.950 . S
C1622 H1618 0.949 . S
C1622 C1630 1.574 . S
C1622 C1638 1.368 . S
H1623 C1631 0.950 . S
H1624 C1629 0.950 . S
H1625 C1630 0.949 . S
H1626 C1632 0.950 . S
H1627 C1633 0.950 . S
H1628 C1634 0.949 . S
C1629 H1624 0.950 . S
C1629 C1631 1.327 . S
C1629 C1635 1.429 . S
C1630 C1622 1.574 . S
C1630 H1625 0.949 . S
C1630 C1636 1.368 . S
C1631 C1615 1.349 . S
C1631 H1623 0.950 . S
C1631 C1629 1.327 . S
C1632 C1620 1.349 . S
C1632 H1626 0.950 . S
C1632 C1633 1.327 . S
C1633 H1627 0.950 . S
C1633 C1632 1.327 . S
C1633 C1637 1.429 . S
C1634 C1617 1.574 . S
C1634 H1628 0.949 . S
C1634 C1638 1.368 . S
C1635 C1616 1.429 . S
C1635 C1629 1.429 . S
C1635 C1636 1.523 . S
C1636 C1617 1.368 . S
C1636 C1630 1.368 . S
C1636 C1635 1.523 . S
C1637 C1621 1.429 . S
C1637 C1633 1.429 . S
C1637 C1638 1.523 . S
C1638 C1622 1.368 . S
C1638 C1634 1.368 . S
C1638 C1637 1.523 . S
H1639 C1614 0.950 . S
H1640 C1616 0.950 . S
H1641 C1617 0.949 . S
H1642 C1619 0.950 . S
H1643 C1621 0.950 . S
C1644 C1645 1.349 . S
C1644 C1646 1.327 . S
C1644 H1669 0.950 . S
C1645 C1644 1.349 . S
C1645 C1661 1.349 . S
C1646 C1644 1.327 . S
C1646 C1665 1.429 . S
C1646 H1670 0.950 . S
C1647 C1664 1.574 . S
C1647 C1666 1.368 . S
C1647 H1671 0.949 . S
H1648 C1652 0.949 . S
C1649 C1650 1.349 . S
C1649 C1651 1.327 . S
C1649 H1672 0.950 . S
C1650 C1649 1.349 . S
C1650 C1662 1.349 . S
C1651 C1649 1.327 . S
C1651 C1667 1.429 . S
C1651 H1673 0.950 . S
C1652 H1648 0.949 . S
C1652 C1660 1.574 . S
C1652 C1668 1.368 . S
H1653 C1661 0.950 . S
H1654 C1659 0.950 . S
H1655 C1660 0.949 . S
H1656 C1662 0.950 . S
H1657 C1663 0.950 . S
H1658 C1664 0.949 . S
C1659 H1654 0.950 . S
C1659 C1661 1.327 . S
C1659 C1665 1.429 . S
C1660 C1652 1.574 . S
C1660 H1655 0.949 . S
C1660 C1666 1.368 . S
C1661 C1645 1.349 . S
C1661 H1653 0.950 . S
C1661 C1659 1.327 . S
C1662 C1650 1.349 . S
C1662 H1656 0.950 . S
C1662 C1663 1.327 . S
C1663 H1657 0.950 . S
C1663 C1662 1.327 . S
C1663 C1667 1.429 . S
C1664 C1647 1.574 . S
C1664 H1658 0.949 . S
C1664 C1668 1.368 . S
C1665 C1646 1.429 . S
C1665 C1659 1.429 . S
C1665 C1666 1.523 . S
C1666 C1647 1.368 . S
C1666 C1660 1.368 . S
C1666 C1665 1.523 . S
C1667 C1651 1.429 . S
C1667 C1663 1.429 . S
C1667 C1668 1.523 . S
C1668 C1652 1.368 . S
C1668 C1664 1.368 . S
C1668 C1667 1.523 . S
H1669 C1644 0.950 . S
H1670 C1646 0.950 . S
H1671 C1647 0.949 . S
H1672 C1649 0.950 . S
H1673 C1651 0.950 . S
C1674 C1675 1.349 . S
C1674 C1676 1.327 . S
C1674 H1699 0.950 . S
C1675 C1674 1.349 . S
C1675 C1691 1.349 . S
C1676 C1674 1.327 . S
C1676 C1695 1.429 . S
C1676 H1700 0.950 . S
C1677 C1694 1.574 . S
C1677 C1696 1.368 . S
C1677 H1701 0.949 . S
H1678 C1682 0.949 . S
C1679 C1680 1.349 . S
C1679 C1681 1.327 . S
C1679 H1702 0.950 . S
C1680 C1679 1.349 . S
C1680 C1692 1.349 . S
C1681 C1679 1.327 . S
C1681 C1697 1.429 . S
C1681 H1703 0.950 . S
C1682 H1678 0.949 . S
C1682 C1690 1.574 . S
C1682 C1698 1.368 . S
H1683 C1691 0.950 . S
H1684 C1689 0.950 . S
H1685 C1690 0.949 . S
H1686 C1692 0.950 . S
H1687 C1693 0.950 . S
H1688 C1694 0.949 . S
C1689 H1684 0.950 . S
C1689 C1691 1.327 . S
C1689 C1695 1.429 . S
C1690 C1682 1.574 . S
C1690 H1685 0.949 . S
C1690 C1696 1.368 . S
C1691 C1675 1.349 . S
C1691 H1683 0.950 . S
C1691 C1689 1.327 . S
C1692 C1680 1.349 . S
C1692 H1686 0.950 . S
C1692 C1693 1.327 . S
C1693 H1687 0.950 . S
C1693 C1692 1.327 . S
C1693 C1697 1.429 . S
C1694 C1677 1.574 . S
C1694 H1688 0.949 . S
C1694 C1698 1.368 . S
C1695 C1676 1.429 . S
C1695 C1689 1.429 . S
C1695 C1696 1.523 . S
C1696 C1677 1.368 . S
C1696 C1690 1.368 . S
C1696 C1695 1.523 . S
C1697 C1681 1.429 . S
C1697 C1693 1.429 . S
C1697 C1698 1.523 . S
C1698 C1682 1.368 . S
C1698 C1694 1.368 . S
C1698 C1697 1.523 . S
H1699 C1674 0.950 . S
H1700 C1676 0.950 . S
H1701 C1677 0.949 . S
H1702 C1679 0.950 . S
H1703 C1681 0.950 . S
C1704 C1705 1.349 . S
C1704 C1706 1.327 . S
C1704 H1729 0.950 . S
C1705 C1704 1.349 . S
C1705 C1721 1.349 . S
C1706 C1704 1.327 . S
C1706 C1725 1.429 . S
C1706 H1730 0.950 . S
C1707 C1724 1.574 . S
C1707 C1726 1.368 . S
C1707 H1731 0.949 . S
H1708 C1712 0.949 . S
C1709 C1710 1.349 . S
C1709 C1711 1.327 . S
C1709 H1732 0.950 . S
C1710 C1709 1.349 . S
C1710 C1722 1.349 . S
C1711 C1709 1.327 . S
C1711 C1727 1.429 . S
C1711 H1733 0.950 . S
C1712 H1708 0.949 . S
C1712 C1720 1.574 . S
C1712 C1728 1.368 . S
H1713 C1721 0.950 . S
H1714 C1719 0.950 . S
H1715 C1720 0.949 . S
H1716 C1722 0.950 . S
H1717 C1723 0.950 . S
H1718 C1724 0.949 . S
C1719 H1714 0.950 . S
C1719 C1721 1.327 . S
C1719 C1725 1.429 . S
C1720 C1712 1.574 . S
C1720 H1715 0.949 . S
C1720 C1726 1.368 . S
C1721 C1705 1.349 . S
C1721 H1713 0.950 . S
C1721 C1719 1.327 . S
C1722 C1710 1.349 . S
C1722 H1716 0.950 . S
C1722 C1723 1.327 . S
C1723 H1717 0.950 . S
C1723 C1722 1.327 . S
C1723 C1727 1.429 . S
C1724 C1707 1.574 . S
C1724 H1718 0.949 . S
C1724 C1728 1.368 . S
C1725 C1706 1.429 . S
C1725 C1719 1.429 . S
C1725 C1726 1.523 . S
C1726 C1707 1.368 . S
C1726 C1720 1.368 . S
C1726 C1725 1.523 . S
C1727 C1711 1.429 . S
C1727 C1723 1.429 . S
C1727 C1728 1.523 . S
C1728 C1712 1.368 . S
C1728 C1724 1.368 . S
C1728 C1727 1.523 . S
H1729 C1704 0.950 . S
H1730 C1706 0.950 . S
H1731 C1707 0.949 . S
H1732 C1709 0.950 . S
H1733 C1711 0.950 . S
C1734 C1735 1.349 . S
C1734 C1736 1.327 . S
C1734 H1759 0.950 . S
C1735 C1734 1.349 . S
C1735 C1751 1.349 . S
C1736 C1734 1.327 . S
C1736 C1755 1.429 . S
C1736 H1760 0.950 . S
C1737 C1754 1.574 . S
C1737 C1756 1.368 . S
C1737 H1761 0.949 . S
H1738 C1742 0.949 . S
C1739 C1740 1.349 . S
C1739 C1741 1.327 . S
C1739 H1762 0.950 . S
C1740 C1739 1.349 . S
C1740 C1752 1.349 . S
C1741 C1739 1.327 . S
C1741 C1757 1.429 . S
C1741 H1763 0.950 . S
C1742 H1738 0.949 . S
C1742 C1750 1.574 . S
C1742 C1758 1.368 . S
H1743 C1751 0.950 . S
H1744 C1749 0.950 . S
H1745 C1750 0.949 . S
H1746 C1752 0.950 . S
H1747 C1753 0.950 . S
H1748 C1754 0.949 . S
C1749 H1744 0.950 . S
C1749 C1751 1.327 . S
C1749 C1755 1.429 . S
C1750 C1742 1.574 . S
C1750 H1745 0.949 . S
C1750 C1756 1.368 . S
C1751 C1735 1.349 . S
C1751 H1743 0.950 . S
C1751 C1749 1.327 . S
C1752 C1740 1.349 . S
C1752 H1746 0.950 . S
C1752 C1753 1.327 . S
C1753 H1747 0.950 . S
C1753 C1752 1.327 . S
C1753 C1757 1.429 . S
C1754 C1737 1.574 . S
C1754 H1748 0.949 . S
C1754 C1758 1.368 . S
C1755 C1736 1.429 . S
C1755 C1749 1.429 . S
C1755 C1756 1.523 . S
C1756 C1737 1.368 . S
C1756 C1750 1.368 . S
C1756 C1755 1.523 . S
C1757 C1741 1.429 . S
C1757 C1753 1.429 . S
C1757 C1758 1.523 . S
C1758 C1742 1.368 . S
C1758 C1754 1.368 . S
C1758 C1757 1.523 . S
H1759 C1734 0.950 . S
H1760 C1736 0.950 . S
H1761 C1737 0.949 . S
H1762 C1739 0.950 . S
H1763 C1741 0.950 . S
C1764 C1765 1.349 . S
C1764 C1766 1.327 . S
C1764 H1789 0.950 . S
C1765 C1764 1.349 . S
C1765 C1781 1.349 . S
C1766 C1764 1.327 . S
C1766 C1785 1.429 . S
C1766 H1790 0.950 . S
C1767 C1784 1.574 . S
C1767 C1786 1.368 . S
C1767 H1791 0.949 . S
H1768 C1772 0.949 1_455 S
C1769 C1770 1.349 . S
C1769 C1771 1.327 . S
C1769 H1792 0.950 . S
C1770 C1769 1.349 . S
C1770 C1782 1.349 . S
C1771 C1769 1.327 . S
C1771 C1787 1.429 . S
C1771 H1793 0.950 . S
C1772 H1768 0.949 1_655 S
C1772 C1780 1.574 . S
C1772 C1788 1.368 . S
H1773 C1781 0.950 . S
H1774 C1779 0.950 . S
H1775 C1780 0.949 1_455 S
H1776 C1782 0.950 1_455 S
H1777 C1783 0.950 1_455 S
H1778 C1784 0.949 . S
C1779 H1774 0.950 . S
C1779 C1781 1.327 . S
C1779 C1785 1.429 . S
C1780 C1772 1.574 . S
C1780 H1775 0.949 1_655 S
C1780 C1786 1.368 . S
C1781 C1765 1.349 . S
C1781 H1773 0.950 . S
C1781 C1779 1.327 . S
C1782 C1770 1.349 . S
C1782 H1776 0.950 1_655 S
C1782 C1783 1.327 . S
C1783 H1777 0.950 1_655 S
C1783 C1782 1.327 . S
C1783 C1787 1.429 . S
C1784 C1767 1.574 . S
C1784 H1778 0.949 . S
C1784 C1788 1.368 . S
C1785 C1766 1.429 . S
C1785 C1779 1.429 . S
C1785 C1786 1.523 . S
C1786 C1767 1.368 . S
C1786 C1780 1.368 . S
C1786 C1785 1.523 . S
C1787 C1771 1.429 . S
C1787 C1783 1.429 . S
C1787 C1788 1.523 . S
C1788 C1772 1.368 . S
C1788 C1784 1.368 . S
C1788 C1787 1.523 . S
H1789 C1764 0.950 . S
H1790 C1766 0.950 . S
H1791 C1767 0.949 . S
H1792 C1769 0.950 . S
H1793 C1771 0.950 . S
C1794 C1795 1.349 . S
C1794 C1796 1.327 . S
C1794 H1819 0.950 . S
C1795 C1794 1.349 . S
C1795 C1811 1.349 . S
C1796 C1794 1.327 . S
C1796 C1815 1.429 . S
C1796 H1820 0.950 . S
C1797 C1814 1.574 . S
C1797 C1816 1.368 . S
C1797 H1821 0.949 . S
H1798 C1802 0.949 . S
C1799 C1800 1.349 . S
C1799 C1801 1.327 . S
C1799 H1822 0.950 . S
C1800 C1799 1.349 . S
C1800 C1812 1.349 . S
C1801 C1799 1.327 . S
C1801 C1817 1.429 . S
C1801 H1823 0.950 . S
C1802 H1798 0.949 . S
C1802 C1810 1.574 . S
C1802 C1818 1.368 . S
H1803 C1811 0.950 . S
H1804 C1809 0.950 . S
H1805 C1810 0.949 . S
H1806 C1812 0.950 . S
H1807 C1813 0.950 . S
H1808 C1814 0.949 . S
C1809 H1804 0.950 . S
C1809 C1811 1.327 . S
C1809 C1815 1.429 . S
C1810 C1802 1.574 . S
C1810 H1805 0.949 . S
C1810 C1816 1.368 . S
C1811 C1795 1.349 . S
C1811 H1803 0.950 . S
C1811 C1809 1.327 . S
C1812 C1800 1.349 . S
C1812 H1806 0.950 . S
C1812 C1813 1.327 . S
C1813 H1807 0.950 . S
C1813 C1812 1.327 . S
C1813 C1817 1.429 . S
C1814 C1797 1.574 . S
C1814 H1808 0.949 . S
C1814 C1818 1.368 . S
C1815 C1796 1.429 . S
C1815 C1809 1.429 . S
C1815 C1816 1.523 . S
C1816 C1797 1.368 . S
C1816 C1810 1.368 . S
C1816 C1815 1.523 . S
C1817 C1801 1.429 . S
C1817 C1813 1.429 . S
C1817 C1818 1.523 . S
C1818 C1802 1.368 . S
C1818 C1814 1.368 . S
C1818 C1817 1.523 . S
H1819 C1794 0.950 . S
H1820 C1796 0.950 . S
H1821 C1797 0.949 . S
H1822 C1799 0.950 . S
H1823 C1801 0.950 . S
C1824 C1825 1.349 . S
C1824 C1826 1.327 . S
C1824 H1849 0.950 . S
C1825 C1824 1.349 . S
C1825 C1841 1.349 . S
C1826 C1824 1.327 . S
C1826 C1845 1.429 . S
C1826 H1850 0.950 . S
C1827 C1844 1.574 . S
C1827 C1846 1.368 . S
C1827 H1851 0.949 . S
H1828 C1832 0.949 . S
C1829 C1830 1.349 . S
C1829 C1831 1.327 . S
C1829 H1852 0.950 . S
C1830 C1829 1.349 . S
C1830 C1842 1.349 . S
C1831 C1829 1.327 . S
C1831 C1847 1.429 . S
C1831 H1853 0.950 . S
C1832 H1828 0.949 . S
C1832 C1840 1.574 . S
C1832 C1848 1.368 . S
H1833 C1841 0.950 . S
H1834 C1839 0.950 . S
H1835 C1840 0.949 . S
H1836 C1842 0.950 . S
H1837 C1843 0.950 . S
H1838 C1844 0.949 . S
C1839 H1834 0.950 . S
C1839 C1841 1.327 . S
C1839 C1845 1.429 . S
C1840 C1832 1.574 . S
C1840 H1835 0.949 . S
C1840 C1846 1.368 . S
C1841 C1825 1.349 . S
C1841 H1833 0.950 . S
C1841 C1839 1.327 . S
C1842 C1830 1.349 . S
C1842 H1836 0.950 . S
C1842 C1843 1.327 . S
C1843 H1837 0.950 . S
C1843 C1842 1.327 . S
C1843 C1847 1.429 . S
C1844 C1827 1.574 . S
C1844 H1838 0.949 . S
C1844 C1848 1.368 . S
C1845 C1826 1.429 . S
C1845 C1839 1.429 . S
C1845 C1846 1.523 . S
C1846 C1827 1.368 . S
C1846 C1840 1.368 . S
C1846 C1845 1.523 . S
C1847 C1831 1.429 . S
C1847 C1843 1.429 . S
C1847 C1848 1.523 . S
C1848 C1832 1.368 . S
C1848 C1844 1.368 . S
C1848 C1847 1.523 . S
H1849 C1824 0.950 . S
H1850 C1826 0.950 . S
H1851 C1827 0.949 . S
H1852 C1829 0.950 . S
H1853 C1831 0.950 . S
C1854 C1855 1.349 . S
C1854 C1856 1.327 . S
C1854 H1879 0.950 . S
C1855 C1854 1.349 . S
C1855 C1871 1.349 . S
C1856 C1854 1.327 . S
C1856 C1875 1.429 . S
C1856 H1880 0.950 . S
C1857 C1874 1.574 . S
C1857 C1876 1.368 . S
C1857 H1881 0.949 . S
H1858 C1862 0.949 . S
C1859 C1860 1.349 . S
C1859 C1861 1.327 . S
C1859 H1882 0.950 . S
C1860 C1859 1.349 . S
C1860 C1872 1.349 . S
C1861 C1859 1.327 . S
C1861 C1877 1.429 . S
C1861 H1883 0.950 . S
C1862 H1858 0.949 . S
C1862 C1870 1.574 . S
C1862 C1878 1.368 . S
H1863 C1871 0.950 . S
H1864 C1869 0.950 . S
H1865 C1870 0.949 . S
H1866 C1872 0.950 . S
H1867 C1873 0.950 . S
H1868 C1874 0.949 . S
C1869 H1864 0.950 . S
C1869 C1871 1.327 . S
C1869 C1875 1.429 . S
C1870 C1862 1.574 . S
C1870 H1865 0.949 . S
C1870 C1876 1.368 . S
C1871 C1855 1.349 . S
C1871 H1863 0.950 . S
C1871 C1869 1.327 . S
C1872 C1860 1.349 . S
C1872 H1866 0.950 . S
C1872 C1873 1.327 . S
C1873 H1867 0.950 . S
C1873 C1872 1.327 . S
C1873 C1877 1.429 . S
C1874 C1857 1.574 . S
C1874 H1868 0.949 . S
C1874 C1878 1.368 . S
C1875 C1856 1.429 . S
C1875 C1869 1.429 . S
C1875 C1876 1.523 . S
C1876 C1857 1.368 . S
C1876 C1870 1.368 . S
C1876 C1875 1.523 . S
C1877 C1861 1.429 . S
C1877 C1873 1.429 . S
C1877 C1878 1.523 . S
C1878 C1862 1.368 . S
C1878 C1874 1.368 . S
C1878 C1877 1.523 . S
H1879 C1854 0.950 . S
H1880 C1856 0.950 . S
H1881 C1857 0.949 . S
H1882 C1859 0.950 . S
H1883 C1861 0.950 . S
C1884 C1885 1.349 . S
C1884 C1886 1.327 . S
C1884 H1909 0.950 . S
C1885 C1884 1.349 . S
C1885 C1901 1.349 . S
C1886 C1884 1.327 . S
C1886 C1905 1.429 . S
C1886 H1910 0.950 . S
C1887 C1904 1.574 . S
C1887 C1906 1.368 . S
C1887 H1911 0.949 . S
H1888 C1892 0.949 . S
C1889 C1890 1.349 . S
C1889 C1891 1.327 . S
C1889 H1912 0.950 . S
C1890 C1889 1.349 . S
C1890 C1902 1.349 . S
C1891 C1889 1.327 . S
C1891 C1907 1.429 . S
C1891 H1913 0.950 . S
C1892 H1888 0.949 . S
C1892 C1900 1.574 . S
C1892 C1908 1.368 . S
H1893 C1901 0.950 . S
H1894 C1899 0.950 . S
H1895 C1900 0.949 . S
H1896 C1902 0.950 . S
H1897 C1903 0.950 . S
H1898 C1904 0.949 . S
C1899 H1894 0.950 . S
C1899 C1901 1.327 . S
C1899 C1905 1.429 . S
C1900 C1892 1.574 . S
C1900 H1895 0.949 . S
C1900 C1906 1.368 . S
C1901 C1885 1.349 . S
C1901 H1893 0.950 . S
C1901 C1899 1.327 . S
C1902 C1890 1.349 . S
C1902 H1896 0.950 . S
C1902 C1903 1.327 . S
C1903 H1897 0.950 . S
C1903 C1902 1.327 . S
C1903 C1907 1.429 . S
C1904 C1887 1.574 . S
C1904 H1898 0.949 . S
C1904 C1908 1.368 . S
C1905 C1886 1.429 . S
C1905 C1899 1.429 . S
C1905 C1906 1.523 . S
C1906 C1887 1.368 . S
C1906 C1900 1.368 . S
C1906 C1905 1.523 . S
C1907 C1891 1.429 . S
C1907 C1903 1.429 . S
C1907 C1908 1.523 . S
C1908 C1892 1.368 . S
C1908 C1904 1.368 . S
C1908 C1907 1.523 . S
H1909 C1884 0.950 . S
H1910 C1886 0.950 . S
H1911 C1887 0.949 . S
H1912 C1889 0.950 . S
H1913 C1891 0.950 . S
C1914 C1915 1.349 . S
C1914 C1916 1.327 . S
C1914 H1939 0.950 . S
C1915 C1914 1.349 . S
C1915 C1931 1.349 . S
C1916 C1914 1.327 . S
C1916 C1935 1.429 . S
C1916 H1940 0.950 . S
C1917 C1934 1.574 . S
C1917 C1936 1.368 . S
C1917 H1941 0.949 . S
H1918 C1922 0.949 . S
C1919 C1920 1.349 . S
C1919 C1921 1.327 . S
C1919 H1942 0.950 . S
C1920 C1919 1.349 . S
C1920 C1932 1.349 . S
C1921 C1919 1.327 . S
C1921 C1937 1.429 . S
C1921 H1943 0.950 . S
C1922 H1918 0.949 . S
C1922 C1930 1.574 . S
C1922 C1938 1.368 . S
H1923 C1931 0.950 . S
H1924 C1929 0.950 . S
H1925 C1930 0.949 . S
H1926 C1932 0.950 . S
H1927 C1933 0.950 . S
H1928 C1934 0.949 . S
C1929 H1924 0.950 . S
C1929 C1931 1.327 . S
C1929 C1935 1.429 . S
C1930 C1922 1.574 . S
C1930 H1925 0.949 . S
C1930 C1936 1.368 . S
C1931 C1915 1.349 . S
C1931 H1923 0.950 . S
C1931 C1929 1.327 . S
C1932 C1920 1.349 . S
C1932 H1926 0.950 . S
C1932 C1933 1.327 . S
C1933 H1927 0.950 . S
C1933 C1932 1.327 . S
C1933 C1937 1.429 . S
C1934 C1917 1.574 . S
C1934 H1928 0.949 . S
C1934 C1938 1.368 . S
C1935 C1916 1.429 . S
C1935 C1929 1.429 . S
C1935 C1936 1.523 . S
C1936 C1917 1.368 . S
C1936 C1930 1.368 . S
C1936 C1935 1.523 . S
C1937 C1921 1.429 . S
C1937 C1933 1.429 . S
C1937 C1938 1.523 . S
C1938 C1922 1.368 . S
C1938 C1934 1.368 . S
C1938 C1937 1.523 . S
H1939 C1914 0.950 . S
H1940 C1916 0.950 . S
H1941 C1917 0.949 . S
H1942 C1919 0.950 . S
H1943 C1921 0.950 . S
C1944 C1945 1.349 . S
C1944 C1946 1.327 . S
C1944 H1969 0.950 . S
C1945 C1944 1.349 . S
C1945 C1961 1.349 . S
C1946 C1944 1.327 . S
C1946 C1965 1.429 . S
C1946 H1970 0.950 . S
C1947 C1964 1.574 . S
C1947 C1966 1.368 . S
C1947 H1971 0.949 . S
H1948 C1952 0.949 . S
C1949 C1950 1.349 . S
C1949 C1951 1.327 . S
C1949 H1972 0.950 . S
C1950 C1949 1.349 . S
C1950 C1962 1.349 . S
C1951 C1949 1.327 . S
C1951 C1967 1.429 . S
C1951 H1973 0.950 . S
C1952 H1948 0.949 . S
C1952 C1960 1.574 . S
C1952 C1968 1.368 . S
H1953 C1961 0.950 . S
H1954 C1959 0.950 . S
H1955 C1960 0.949 . S
H1956 C1962 0.950 . S
H1957 C1963 0.950 . S
H1958 C1964 0.949 . S
C1959 H1954 0.950 . S
C1959 C1961 1.327 . S
C1959 C1965 1.429 . S
C1960 C1952 1.574 . S
C1960 H1955 0.949 . S
C1960 C1966 1.368 . S
C1961 C1945 1.349 . S
C1961 H1953 0.950 . S
C1961 C1959 1.327 . S
C1962 C1950 1.349 . S
C1962 H1956 0.950 . S
C1962 C1963 1.327 . S
C1963 H1957 0.950 . S
C1963 C1962 1.327 . S
C1963 C1967 1.429 . S
C1964 C1947 1.574 . S
C1964 H1958 0.949 . S
C1964 C1968 1.368 . S
C1965 C1946 1.429 . S
C1965 C1959 1.429 . S
C1965 C1966 1.523 . S
C1966 C1947 1.368 . S
C1966 C1960 1.368 . S
C1966 C1965 1.523 . S
C1967 C1951 1.429 . S
C1967 C1963 1.429 . S
C1967 C1968 1.523 . S
C1968 C1952 1.368 . S
C1968 C1964 1.368 . S
C1968 C1967 1.523 . S
H1969 C1944 0.950 . S
H1970 C1946 0.950 . S
H1971 C1947 0.949 . S
H1972 C1949 0.950 . S
H1973 C1951 0.950 . S
C1974 C1975 1.349 . S
C1974 C1976 1.327 . S
C1974 H1999 0.950 . S
C1975 C1974 1.349 . S
C1975 C1991 1.349 . S
C1976 C1974 1.327 . S
C1976 C1995 1.429 . S
C1976 H2000 0.950 . S
C1977 C1994 1.574 . S
C1977 C1996 1.368 . S
C1977 H2001 0.949 . S
H1978 C1982 0.949 . S
C1979 C1980 1.349 . S
C1979 C1981 1.327 . S
C1979 H2002 0.950 . S
C1980 C1979 1.349 . S
C1980 C1992 1.349 . S
C1981 C1979 1.327 . S
C1981 C1997 1.429 . S
C1981 H2003 0.950 . S
C1982 H1978 0.949 . S
C1982 C1990 1.574 . S
C1982 C1998 1.368 . S
H1983 C1991 0.950 . S
H1984 C1989 0.950 . S
H1985 C1990 0.949 . S
H1986 C1992 0.950 . S
H1987 C1993 0.950 . S
H1988 C1994 0.949 . S
C1989 H1984 0.950 . S
C1989 C1991 1.327 . S
C1989 C1995 1.429 . S
C1990 C1982 1.574 . S
C1990 H1985 0.949 . S
C1990 C1996 1.368 . S
C1991 C1975 1.349 . S
C1991 H1983 0.950 . S
C1991 C1989 1.327 . S
C1992 C1980 1.349 . S
C1992 H1986 0.950 . S
C1992 C1993 1.327 . S
C1993 H1987 0.950 . S
C1993 C1992 1.327 . S
C1993 C1997 1.429 . S
C1994 C1977 1.574 . S
C1994 H1988 0.949 . S
C1994 C1998 1.368 . S
C1995 C1976 1.429 . S
C1995 C1989 1.429 . S
C1995 C1996 1.523 . S
C1996 C1977 1.368 . S
C1996 C1990 1.368 . S
C1996 C1995 1.523 . S
C1997 C1981 1.429 . S
C1997 C1993 1.429 . S
C1997 C1998 1.523 . S
C1998 C1982 1.368 . S
C1998 C1994 1.368 . S
C1998 C1997 1.523 . S
H1999 C1974 0.950 . S
H2000 C1976 0.950 . S
H2001 C1977 0.949 . S
H2002 C1979 0.950 . S
H2003 C1981 0.950 . S
C2004 C2005 1.349 . S
C2004 C2006 1.327 . S
C2004 H2029 0.950 . S
C2005 C2004 1.349 . S
C2005 C2021 1.349 . S
C2006 C2004 1.327 . S
C2006 C2025 1.429 . S
C2006 H2030 0.950 . S
C2007 C2024 1.574 . S
C2007 C2026 1.368 . S
C2007 H2031 0.949 . S
H2008 C2012 0.949 . S
C2009 C2010 1.349 . S
C2009 C2011 1.327 . S
C2009 H2032 0.950 . S
C2010 C2009 1.349 . S
C2010 C2022 1.349 . S
C2011 C2009 1.327 . S
C2011 C2027 1.429 . S
C2011 H2033 0.950 . S
C2012 H2008 0.949 . S
C2012 C2020 1.574 . S
C2012 C2028 1.368 . S
H2013 C2021 0.950 . S
H2014 C2019 0.950 . S
H2015 C2020 0.949 . S
H2016 C2022 0.950 . S
H2017 C2023 0.950 . S
H2018 C2024 0.949 . S
C2019 H2014 0.950 . S
C2019 C2021 1.327 . S
C2019 C2025 1.429 . S
C2020 C2012 1.574 . S
C2020 H2015 0.949 . S
C2020 C2026 1.368 . S
C2021 C2005 1.349 . S
C2021 H2013 0.950 . S
C2021 C2019 1.327 . S
C2022 C2010 1.349 . S
C2022 H2016 0.950 . S
C2022 C2023 1.327 . S
C2023 H2017 0.950 . S
C2023 C2022 1.327 . S
C2023 C2027 1.429 . S
C2024 C2007 1.574 . S
C2024 H2018 0.949 . S
C2024 C2028 1.368 . S
C2025 C2006 1.429 . S
C2025 C2019 1.429 . S
C2025 C2026 1.523 . S
C2026 C2007 1.368 . S
C2026 C2020 1.368 . S
C2026 C2025 1.523 . S
C2027 C2011 1.429 . S
C2027 C2023 1.429 . S
C2027 C2028 1.523 . S
C2028 C2012 1.368 . S
C2028 C2024 1.368 . S
C2028 C2027 1.523 . S
H2029 C2004 0.950 . S
H2030 C2006 0.950 . S
H2031 C2007 0.949 . S
H2032 C2009 0.950 . S
H2033 C2011 0.950 . S
C2034 C2035 1.349 . S
C2034 C2036 1.327 . S
C2034 H2059 0.950 . S
C2035 C2034 1.349 . S
C2035 C2051 1.349 . S
C2036 C2034 1.327 . S
C2036 C2055 1.429 . S
C2036 H2060 0.950 . S
C2037 C2054 1.574 . S
C2037 C2056 1.368 . S
C2037 H2061 0.949 . S
H2038 C2042 0.949 . S
C2039 C2040 1.349 . S
C2039 C2041 1.327 . S
C2039 H2062 0.950 . S
C2040 C2039 1.349 . S
C2040 C2052 1.349 . S
C2041 C2039 1.327 . S
C2041 C2057 1.429 . S
C2041 H2063 0.950 . S
C2042 H2038 0.949 . S
C2042 C2050 1.574 . S
C2042 C2058 1.368 . S
H2043 C2051 0.950 . S
H2044 C2049 0.950 . S
H2045 C2050 0.949 . S
H2046 C2052 0.950 . S
H2047 C2053 0.950 . S
H2048 C2054 0.949 . S
C2049 H2044 0.950 . S
C2049 C2051 1.327 . S
C2049 C2055 1.429 . S
C2050 C2042 1.574 . S
C2050 H2045 0.949 . S
C2050 C2056 1.368 . S
C2051 C2035 1.349 . S
C2051 H2043 0.950 . S
C2051 C2049 1.327 . S
C2052 C2040 1.349 . S
C2052 H2046 0.950 . S
C2052 C2053 1.327 . S
C2053 H2047 0.950 . S
C2053 C2052 1.327 . S
C2053 C2057 1.429 . S
C2054 C2037 1.574 . S
C2054 H2048 0.949 . S
C2054 C2058 1.368 . S
C2055 C2036 1.429 . S
C2055 C2049 1.429 . S
C2055 C2056 1.523 . S
C2056 C2037 1.368 . S
C2056 C2050 1.368 . S
C2056 C2055 1.523 . S
C2057 C2041 1.429 . S
C2057 C2053 1.429 . S
C2057 C2058 1.523 . S
C2058 C2042 1.368 . S
C2058 C2054 1.368 . S
C2058 C2057 1.523 . S
H2059 C2034 0.950 . S
H2060 C2036 0.950 . S
H2061 C2037 0.949 . S
H2062 C2039 0.950 . S
H2063 C2041 0.950 . S
C2064 C2065 1.349 . S
C2064 C2066 1.327 . S
C2064 H2089 0.950 . S
C2065 C2064 1.349 . S
C2065 C2081 1.349 . S
C2066 C2064 1.327 . S
C2066 C2085 1.429 . S
C2066 H2090 0.950 . S
C2067 C2084 1.574 . S
C2067 C2086 1.368 . S
C2067 H2091 0.949 . S
H2068 C2072 0.949 . S
C2069 C2070 1.349 . S
C2069 C2071 1.327 . S
C2069 H2092 0.950 . S
C2070 C2069 1.349 . S
C2070 C2082 1.349 . S
C2071 C2069 1.327 . S
C2071 C2087 1.429 . S
C2071 H2093 0.950 . S
C2072 H2068 0.949 . S
C2072 C2080 1.574 . S
C2072 C2088 1.368 . S
H2073 C2081 0.950 . S
H2074 C2079 0.950 . S
H2075 C2080 0.949 . S
H2076 C2082 0.950 . S
H2077 C2083 0.950 . S
H2078 C2084 0.949 . S
C2079 H2074 0.950 . S
C2079 C2081 1.327 . S
C2079 C2085 1.429 . S
C2080 C2072 1.574 . S
C2080 H2075 0.949 . S
C2080 C2086 1.368 . S
C2081 C2065 1.349 . S
C2081 H2073 0.950 . S
C2081 C2079 1.327 . S
C2082 C2070 1.349 . S
C2082 H2076 0.950 . S
C2082 C2083 1.327 . S
C2083 H2077 0.950 . S
C2083 C2082 1.327 . S
C2083 C2087 1.429 . S
C2084 C2067 1.574 . S
C2084 H2078 0.949 . S
C2084 C2088 1.368 . S
C2085 C2066 1.429 . S
C2085 C2079 1.429 . S
C2085 C2086 1.523 . S
C2086 C2067 1.368 . S
C2086 C2080 1.368 . S
C2086 C2085 1.523 . S
C2087 C2071 1.429 . S
C2087 C2083 1.429 . S
C2087 C2088 1.523 . S
C2088 C2072 1.368 . S
C2088 C2084 1.368 . S
C2088 C2087 1.523 . S
H2089 C2064 0.950 . S
H2090 C2066 0.950 . S
H2091 C2067 0.949 . S
H2092 C2069 0.950 . S
H2093 C2071 0.950 . S
C2094 C2095 1.349 . S
C2094 C2096 1.327 . S
C2094 H2119 0.950 . S
C2095 C2094 1.349 . S
C2095 C2111 1.349 . S
C2096 C2094 1.327 . S
C2096 C2115 1.429 . S
C2096 H2120 0.950 . S
C2097 C2114 1.574 . S
C2097 C2116 1.368 . S
C2097 H2121 0.949 . S
H2098 C2102 0.949 . S
C2099 C2100 1.349 . S
C2099 C2101 1.327 . S
C2099 H2122 0.950 . S
C2100 C2099 1.349 . S
C2100 C2112 1.349 . S
C2101 C2099 1.327 . S
C2101 C2117 1.429 . S
C2101 H2123 0.950 . S
C2102 H2098 0.949 . S
C2102 C2110 1.574 . S
C2102 C2118 1.368 . S
H2103 C2111 0.950 . S
H2104 C2109 0.950 . S
H2105 C2110 0.949 . S
H2106 C2112 0.950 . S
H2107 C2113 0.950 . S
H2108 C2114 0.949 . S
C2109 H2104 0.950 . S
C2109 C2111 1.327 . S
C2109 C2115 1.429 . S
C2110 C2102 1.574 . S
C2110 H2105 0.949 . S
C2110 C2116 1.368 . S
C2111 C2095 1.349 . S
C2111 H2103 0.950 . S
C2111 C2109 1.327 . S
C2112 C2100 1.349 . S
C2112 H2106 0.950 . S
C2112 C2113 1.327 . S
C2113 H2107 0.950 . S
C2113 C2112 1.327 . S
C2113 C2117 1.429 . S
C2114 C2097 1.574 . S
C2114 H2108 0.949 . S
C2114 C2118 1.368 . S
C2115 C2096 1.429 . S
C2115 C2109 1.429 . S
C2115 C2116 1.523 . S
C2116 C2097 1.368 . S
C2116 C2110 1.368 . S
C2116 C2115 1.523 . S
C2117 C2101 1.429 . S
C2117 C2113 1.429 . S
C2117 C2118 1.523 . S
C2118 C2102 1.368 . S
C2118 C2114 1.368 . S
C2118 C2117 1.523 . S
H2119 C2094 0.950 . S
H2120 C2096 0.950 . S
H2121 C2097 0.949 . S
H2122 C2099 0.950 . S
H2123 C2101 0.950 . S
C2124 C2125 1.349 . S
C2124 C2126 1.327 . S
C2124 H2149 0.950 . S
C2125 C2124 1.349 . S
C2125 C2141 1.349 . S
C2126 C2124 1.327 . S
C2126 C2145 1.429 . S
C2126 H2150 0.950 . S
C2127 C2144 1.574 . S
C2127 C2146 1.368 . S
C2127 H2151 0.949 . S
H2128 C2132 0.949 . S
C2129 C2130 1.349 . S
C2129 C2131 1.327 . S
C2129 H2152 0.950 . S
C2130 C2129 1.349 . S
C2130 C2142 1.349 . S
C2131 C2129 1.327 . S
C2131 C2147 1.429 . S
C2131 H2153 0.950 . S
C2132 H2128 0.949 . S
C2132 C2140 1.574 . S
C2132 C2148 1.368 . S
H2133 C2141 0.950 . S
H2134 C2139 0.950 . S
H2135 C2140 0.949 . S
H2136 C2142 0.950 . S
H2137 C2143 0.950 . S
H2138 C2144 0.949 . S
C2139 H2134 0.950 . S
C2139 C2141 1.327 . S
C2139 C2145 1.429 . S
C2140 C2132 1.574 . S
C2140 H2135 0.949 . S
C2140 C2146 1.368 . S
C2141 C2125 1.349 . S
C2141 H2133 0.950 . S
C2141 C2139 1.327 . S
C2142 C2130 1.349 . S
C2142 H2136 0.950 . S
C2142 C2143 1.327 . S
C2143 H2137 0.950 . S
C2143 C2142 1.327 . S
C2143 C2147 1.429 . S
C2144 C2127 1.574 . S
C2144 H2138 0.949 . S
C2144 C2148 1.368 . S
C2145 C2126 1.429 . S
C2145 C2139 1.429 . S
C2145 C2146 1.523 . S
C2146 C2127 1.368 . S
C2146 C2140 1.368 . S
C2146 C2145 1.523 . S
C2147 C2131 1.429 . S
C2147 C2143 1.429 . S
C2147 C2148 1.523 . S
C2148 C2132 1.368 . S
C2148 C2144 1.368 . S
C2148 C2147 1.523 . S
H2149 C2124 0.950 . S
H2150 C2126 0.950 . S
H2151 C2127 0.949 . S
H2152 C2129 0.950 . S
H2153 C2131 0.950 . S
C2154 C2155 1.349 . S
C2154 C2156 1.327 . S
C2154 H2179 0.950 . S
C2155 C2154 1.349 . S
C2155 C2171 1.349 . S
C2156 C2154 1.327 . S
C2156 C2175 1.429 . S
C2156 H2180 0.950 . S
C2157 C2174 1.574 . S
C2157 C2176 1.368 . S
C2157 H2181 0.949 . S
H2158 C2162 0.949 . S
C2159 C2160 1.349 . S
C2159 C2161 1.327 . S
C2159 H2182 0.950 . S
C2160 C2159 1.349 . S
C2160 C2172 1.349 . S
C2161 C2159 1.327 . S
C2161 C2177 1.429 . S
C2161 H2183 0.950 . S
C2162 H2158 0.949 . S
C2162 C2170 1.574 . S
C2162 C2178 1.368 . S
H2163 C2171 0.950 . S
H2164 C2169 0.950 . S
H2165 C2170 0.949 . S
H2166 C2172 0.950 . S
H2167 C2173 0.950 . S
H2168 C2174 0.949 . S
C2169 H2164 0.950 . S
C2169 C2171 1.327 . S
C2169 C2175 1.429 . S
C2170 C2162 1.574 . S
C2170 H2165 0.949 . S
C2170 C2176 1.368 . S
C2171 C2155 1.349 . S
C2171 H2163 0.950 . S
C2171 C2169 1.327 . S
C2172 C2160 1.349 . S
C2172 H2166 0.950 . S
C2172 C2173 1.327 . S
C2173 H2167 0.950 . S
C2173 C2172 1.327 . S
C2173 C2177 1.429 . S
C2174 C2157 1.574 . S
C2174 H2168 0.949 . S
C2174 C2178 1.368 . S
C2175 C2156 1.429 . S
C2175 C2169 1.429 . S
C2175 C2176 1.523 . S
C2176 C2157 1.368 . S
C2176 C2170 1.368 . S
C2176 C2175 1.523 . S
C2177 C2161 1.429 . S
C2177 C2173 1.429 . S
C2177 C2178 1.523 . S
C2178 C2162 1.368 . S
C2178 C2174 1.368 . S
C2178 C2177 1.523 . S
H2179 C2154 0.950 . S
H2180 C2156 0.950 . S
H2181 C2157 0.949 . S
H2182 C2159 0.950 . S
H2183 C2161 0.950 . S
C2184 C2185 1.349 . S
C2184 C2186 1.327 . S
C2184 H2209 0.950 . S
C2185 C2184 1.349 . S
C2185 C2201 1.349 . S
C2186 C2184 1.327 . S
C2186 C2205 1.429 . S
C2186 H2210 0.950 . S
C2187 C2204 1.574 . S
C2187 C2206 1.368 . S
C2187 H2211 0.949 . S
H2188 C2192 0.949 . S
C2189 C2190 1.349 . S
C2189 C2191 1.327 . S
C2189 H2212 0.950 . S
C2190 C2189 1.349 . S
C2190 C2202 1.349 . S
C2191 C2189 1.327 . S
C2191 C2207 1.429 . S
C2191 H2213 0.950 . S
C2192 H2188 0.949 . S
C2192 C2200 1.574 . S
C2192 C2208 1.368 . S
H2193 C2201 0.950 . S
H2194 C2199 0.950 . S
H2195 C2200 0.949 . S
H2196 C2202 0.950 . S
H2197 C2203 0.950 . S
H2198 C2204 0.949 . S
C2199 H2194 0.950 . S
C2199 C2201 1.327 . S
C2199 C2205 1.429 . S
C2200 C2192 1.574 . S
C2200 H2195 0.949 . S
C2200 C2206 1.368 . S
C2201 C2185 1.349 . S
C2201 H2193 0.950 . S
C2201 C2199 1.327 . S
C2202 C2190 1.349 . S
C2202 H2196 0.950 . S
C2202 C2203 1.327 . S
C2203 H2197 0.950 . S
C2203 C2202 1.327 . S
C2203 C2207 1.429 . S
C2204 C2187 1.574 . S
C2204 H2198 0.949 . S
C2204 C2208 1.368 . S
C2205 C2186 1.429 . S
C2205 C2199 1.429 . S
C2205 C2206 1.523 . S
C2206 C2187 1.368 . S
C2206 C2200 1.368 . S
C2206 C2205 1.523 . S
C2207 C2191 1.429 . S
C2207 C2203 1.429 . S
C2207 C2208 1.523 . S
C2208 C2192 1.368 . S
C2208 C2204 1.368 . S
C2208 C2207 1.523 . S
H2209 C2184 0.950 . S
H2210 C2186 0.950 . S
H2211 C2187 0.949 . S
H2212 C2189 0.950 . S
H2213 C2191 0.950 . S
C595 N170 2.206 . S
C600 C237 2.251 . S
C625 N184 1.089 . S
C630 C277 1.088 . S
C655 N158 1.704 . S
C660 C329 1.694 . S
C685 N145 1.554 . S
C690 C289 1.538 1_556 S
C720 C317 0.700 . S
C715 N119 0.700 . S
C745 N131 1.889 . S
C750 C249 1.917 . S
C780 C256 1.814 1_556 S
C775 N144 1.822 . S
C810 C296 1.701 . S
C805 N118 1.703 . S
C835 N132 1.570 . S
C840 C316 1.581 . S
C865 N171 1.458 . S
C870 C276 1.459 . S
C895 N183 1.280 . S
C900 C336 1.290 . S
C930 C236 1.445 . S
C925 N157 1.456 . S
C960 C357 2.251 . S
C955 N14 2.206 . S
C985 N28 1.089 . S
C990 C397 1.088 . S
C1015 N2 1.704 . S
C1020 C449 1.694 . S
C1045 N223 1.554 . S
C1050 C409 1.538 . S
C1075 N197 0.700 . S
C1080 C437 0.700 . S
C1105 N209 1.889 . S
C1110 C369 1.917 . S
C1135 N222 1.822 . S
C1140 C376 1.834 . S
C1165 N196 1.703 . S
C1170 C416 1.701 . S
C1200 C436 1.580 . S
C1195 N210 1.570 . S
C1225 N15 1.458 . S
C1230 C396 1.459 . S
C1260 C456 1.289 . S
C1255 N27 1.280 . S
C1285 N1 1.456 . S
C1290 C356 1.444 . S
C1320 C477 2.251 . S
C1315 N92 2.206 . S
C1345 N106 1.089 . S
C1350 C517 1.088 . S
C1380 C569 1.694 . S
C1375 N80 1.704 . S
C1410 C529 1.538 . S
C1405 N67 1.553 . S
C1440 C557 0.700 . S
C1435 N41 0.700 . S
C1465 N53 1.889 . S
C1470 C489 1.917 . S
C1495 N66 1.822 . S
C1500 C496 1.834 . S
C1525 N40 1.703 . S
C1530 C536 1.701 . S
C1560 C556 1.581 . S
C1555 N54 1.570 . S
C1585 N93 1.458 . S
C1590 C516 1.459 . S
C1615 N105 1.280 . S
C1620 C576 1.290 . S
C1645 N79 1.456 . S
C1650 C476 1.444 . S
C1675 N200 0.870 . S
C1680 C260 0.873 . S
C1710 C300 2.147 . S
C1705 N213 2.127 . S
C1735 N226 1.581 . S
C1740 C323 1.589 . S
C1765 N83 1.847 . S
C1770 C283 1.836 . S
C1795 N96 1.905 . S
C1800 C340 1.940 . S
C1830 C243 1.005 . S
C1825 N109 1.011 . S
C1855 N44 0.870 . S
C1860 C380 0.873 . S
C1885 N57 2.127 . S
C1890 C420 2.147 . S
C1915 N70 1.581 . S
C1920 C443 1.589 . S
C1945 N161 1.847 . S
C1950 C403 1.836 . S
C1980 C460 1.940 . S
C1975 N174 1.905 . S
C2005 N187 1.011 . S
C2010 C363 1.005 . S
C2035 N122 0.870 . S
C2040 C500 0.873 . S
C2065 N135 2.127 . S
C2070 C540 2.147 . S
C2100 C563 1.590 . S
C2095 N148 1.581 . S
C2125 N5 1.847 . S
C2130 C523 1.836 . S
C2155 N18 1.905 . S
C2160 C580 1.940 . S
C2185 N31 1.011 . S
C2190 C483 1.005 . S
