# Generated by pormake.
# Topology zzz, (3,6)-cn, num edge types: 1
# Building blocks:
#     Node 0, Type 0, BuildingBlock: KAKCAD_clean_linker_0, # of connection points: 3
#     Node 1, Type 0, BuildingBlock: KAKCAD_clean_linker_0, # of connection points: 3
#     Node 2, Type 0, BuildingBlock: KAKCAD_clean_linker_0, # of connection points: 3
#     Node 3, Type 0, BuildingBlock: KAKCAD_clean_linker_0, # of connection points: 3
#     Node 4, Type 0, BuildingBlock: KAKCAD_clean_linker_0, # of connection points: 3
#     Node 5, Type 0, BuildingBlock: KAKCAD_clean_linker_0, # of connection points: 3
#     Node 6, Type 0, BuildingBlock: KAKCAD_clean_linker_0, # of connection points: 3
#     Node 7, Type 0, BuildingBlock: KAKCAD_clean_linker_0, # of connection points: 3
#     Node 8, Type 1, BuildingBlock: PAMTOO_clean_sbu_0, # of connection points: 6
#     Node 9, Type 1, BuildingBlock: PAMTOO_clean_sbu_0, # of connection points: 6
#     Node 10, Type 1, BuildingBlock: PAMTOO_clean_sbu_0, # of connection points: 6
#     Node 11, Type 1, BuildingBlock: PAMTOO_clean_sbu_0, # of connection points: 6
#     Edge 12, Type (0, 1), BuildingBlock: XIVTED_clean_linker_0, # of connection points: 2
#     Edge 13, Type (0, 1), BuildingBlock: XIVTED_clean_linker_0, # of connection points: 2
#     Edge 14, Type (0, 1), BuildingBlock: XIVTED_clean_linker_0, # of connection points: 2
#     Edge 15, Type (0, 1), BuildingBlock: XIVTED_clean_linker_0, # of connection points: 2
#     Edge 16, Type (0, 1), BuildingBlock: XIVTED_clean_linker_0, # of connection points: 2
#     Edge 17, Type (0, 1), BuildingBlock: XIVTED_clean_linker_0, # of connection points: 2
#     Edge 18, Type (0, 1), BuildingBlock: XIVTED_clean_linker_0, # of connection points: 2
#     Edge 19, Type (0, 1), BuildingBlock: XIVTED_clean_linker_0, # of connection points: 2
#     Edge 20, Type (0, 1), BuildingBlock: XIVTED_clean_linker_0, # of connection points: 2
#     Edge 21, Type (0, 1), BuildingBlock: XIVTED_clean_linker_0, # of connection points: 2
#     Edge 22, Type (0, 1), BuildingBlock: XIVTED_clean_linker_0, # of connection points: 2
#     Edge 23, Type (0, 1), BuildingBlock: XIVTED_clean_linker_0, # of connection points: 2
#     Edge 24, Type (0, 1), BuildingBlock: XIVTED_clean_linker_0, # of connection points: 2
#     Edge 25, Type (0, 1), BuildingBlock: XIVTED_clean_linker_0, # of connection points: 2
#     Edge 26, Type (0, 1), BuildingBlock: XIVTED_clean_linker_0, # of connection points: 2
#     Edge 27, Type (0, 1), BuildingBlock: XIVTED_clean_linker_0, # of connection points: 2
#     Edge 28, Type (0, 1), BuildingBlock: XIVTED_clean_linker_0, # of connection points: 2
#     Edge 29, Type (0, 1), BuildingBlock: XIVTED_clean_linker_0, # of connection points: 2
#     Edge 30, Type (0, 1), BuildingBlock: XIVTED_clean_linker_0, # of connection points: 2
#     Edge 31, Type (0, 1), BuildingBlock: XIVTED_clean_linker_0, # of connection points: 2
#     Edge 32, Type (0, 1), BuildingBlock: XIVTED_clean_linker_0, # of connection points: 2
#     Edge 33, Type (0, 1), BuildingBlock: XIVTED_clean_linker_0, # of connection points: 2
#     Edge 34, Type (0, 1), BuildingBlock: XIVTED_clean_linker_0, # of connection points: 2
#     Edge 35, Type (0, 1), BuildingBlock: XIVTED_clean_linker_0, # of connection points: 2
# Relax obj value: 0.347
# Max RMSD: 0.276
# Mean RMSD: 0.219
data_MOF--net-zzz--node1-PAMTOO_clean_sbu_0--node2-KAKCAD_clean_linker_0--edge1-XIVTED_clean_linker_0
_symmetry_space_group_name_H-M    P1
_symmetry_Int_Tables_number       1
_symmetry_cell_setting            triclinic
loop_
_symmetry_equiv_pos_as_xyz
'x, y, z'
_cell_length_a     64.755681
_cell_length_b     56.229674
_cell_length_c     21.065121
_cell_angle_alpha  91.294941
_cell_angle_beta   81.568601
_cell_angle_gamma 84.756257
loop_
_atom_site_label
_atom_site_type_symbol
_atom_site_fract_x
_atom_site_fract_y
_atom_site_fract_z
_atom_type_partial_charge
C0 C 0.796 0.5776 0.18772 0.0
C1 C 0.81764 0.57107 0.1818 0.0
C2 C 0.78313 0.57539 0.24639 0.0
C3 C 0.79159 0.56563 0.29928 0.0
C4 C 0.81353 0.56088 0.29378 0.0
C5 C 0.82635 0.56388 0.2362 0.0
C6 C 0.7779 0.55697 0.35584 0.0
C7 C 0.75872 0.54826 0.34853 0.0
C8 C 0.74781 0.53543 0.39686 0.0
C9 C 0.75685 0.53006 0.45259 0.0
C10 C 0.77571 0.53955 0.46167 0.0
C11 C 0.78539 0.55383 0.4146 0.0
C12 C 0.78761 0.53288 0.51479 0.0
C13 C 0.7925 0.55092 0.55576 0.0
C14 C 0.79911 0.51037 0.51213 0.0
C15 C 0.8163 0.50662 0.54548 0.0
C16 C 0.82236 0.52532 0.58231 0.0
C17 C 0.72755 0.52717 0.38453 0.0
C18 C 0.71182 0.54415 0.36982 0.0
C19 C 0.72551 0.50283 0.37365 0.0
C20 C 0.70875 0.49577 0.34442 0.0
C21 C 0.69374 0.51292 0.32548 0.0
C22 C 0.69516 0.53716 0.34078 0.0
C23 C 0.80956 0.54715 0.58945 0.0
H24 H 0.78897 0.58327 0.14629 0.0
H25 H 0.76644 0.58012 0.24896 0.0
H26 H 0.82098 0.55289 0.33189 0.0
H27 H 0.84296 0.55831 0.23277 0.0
H28 H 0.7526 0.55017 0.30359 0.0
H29 H 0.79975 0.56113 0.42249 0.0
H30 H 0.74927 0.51892 0.48845 0.0
H31 H 0.78409 0.56856 0.55787 0.0
H32 H 0.79602 0.49636 0.47965 0.0
H33 H 0.82575 0.4896 0.53831 0.0
H34 H 0.71318 0.56306 0.37698 0.0
H35 H 0.73757 0.48941 0.38372 0.0
H36 H 0.81333 0.5618 0.61854 0.0
H37 H 0.68421 0.55101 0.32652 0.0
H38 H 0.70802 0.47691 0.33448 0.0
C39 C 0.0596 0.74762 0.12253 0.0
C40 C 0.07738 0.75751 0.13906 0.0
C41 C 0.04749 0.73445 0.16651 0.0
C42 C 0.05277 0.73101 0.22815 0.0
C43 C 0.07134 0.73932 0.24317 0.0
C44 C 0.08361 0.7523 0.19889 0.0
C45 C 0.03758 0.72151 0.27851 0.0
C46 C 0.02714 0.70167 0.26542 0.0
C47 C 0.01071 0.69466 0.30996 0.0
C48 C 1.00447 0.7078 0.36837 0.0
C49 C 0.01516 0.72755 0.38253 0.0
C50 C 0.03176 0.73404 0.33757 0.0
C51 C 0.00836 0.74328 0.44068 0.0
C52 C 0.98801 0.75502 0.45207 0.0
C53 C 0.02337 0.75019 0.47748 0.0
C54 C 0.0187 0.76973 0.52095 0.0
C55 C 0.99891 0.7829 0.52841 0.0
C56 C 1.00029 0.67379 0.29217 0.0
C57 C 0.98502 0.67668 0.25138 0.0
C58 C 0.00951 0.6508 0.30102 0.0
C59 C 1.00491 0.63125 0.2652 0.0
C60 C 0.99112 0.63443 0.21963 0.0
C61 C 0.98035 0.6571 0.21563 0.0
C62 C 0.98334 0.77471 0.49546 0.0
H63 H 0.05409 0.75146 0.0774 0.0
H64 H 0.03315 0.72844 0.15379 0.0
H65 H 0.07592 0.73659 0.29011 0.0
H66 H 0.09745 0.75919 0.2127 0.0
H67 H 0.03156 0.69183 0.21983 0.0
H68 H 0.0393 0.74994 0.34694 0.0
H69 H 0.99145 0.70277 0.40219 0.0
H70 H 0.97621 0.75015 0.42398 0.0
H71 H 0.03919 0.74142 0.46946 0.0
H72 H 0.03113 0.77554 0.54506 0.0
H73 H 0.97807 0.69438 0.24295 0.0
H74 H 0.02159 0.64829 0.33147 0.0
H75 H 0.96783 0.78422 0.50089 0.0
H76 H 0.96979 0.66018 0.18063 0.0
H77 H 0.0133 0.61395 0.26976 0.0
C78 C 0.73041 0.05841 0.07214 0.0
C79 C 0.71222 0.07346 0.09594 0.0
C80 C 0.74277 0.04734 0.11406 0.0
C81 C 0.73763 0.05161 0.18084 0.0
C82 C 0.72084 0.06873 0.20395 0.0
C83 C 0.70813 0.07927 0.16223 0.0
C84 C 0.7482 0.03649 0.22612 0.0
C85 C 0.76925 0.02735 0.21038 0.0
C86 C 0.7785 0.0106 0.24877 0.0
C87 C 0.76662 0.00353 0.30585 0.0
C88 C 0.74556 0.01321 0.32334 0.0
C89 C 0.73662 0.02935 0.28288 0.0
C90 C 0.73167 0.00644 0.3815 0.0
C91 C 0.72478 0.98348 0.38584 0.0
C92 C 0.7215 0.02455 0.42514 0.0
C93 C 0.704 0.02032 0.46933 0.0
C94 C 0.69609 0.99779 0.47122 0.0
C95 C 0.80025 1.00018 0.22471 0.0
C96 C 0.80437 0.98853 0.16389 0.0
C97 C 0.81723 0.00576 0.25491 0.0
C98 C 0.83793 0.00094 0.22309 0.0
C99 C 0.84202 0.99044 0.16043 0.0
C100 C 0.8249 0.98374 0.13223 0.0
C101 C 0.70718 0.97919 0.43025 0.0
H102 H 0.73456 0.05412 0.02124 0.0
H103 H 0.75556 0.03436 0.09398 0.0
H104 H 0.71681 0.07316 0.25482 0.0
H105 H 0.69435 0.09073 0.18293 0.0
H106 H 0.77854 0.03295 0.16722 0.0
H107 H 0.72012 0.03551 0.29474 0.0
H108 H 0.77355 0.99053 0.33564 0.0
H109 H 0.7321 0.96929 0.35207 0.0
H110 H 0.72626 0.04252 0.42214 0.0
H111 H 0.69592 0.03524 0.49911 0.0
H112 H 0.79154 0.98436 0.13915 0.0
H113 H 0.81446 0.01508 0.30138 0.0
H114 H 0.70183 0.96149 0.43085 0.0
H115 H 0.82716 0.97601 0.08389 0.0
H116 H 0.85067 0.00607 0.24686 0.0
C117 C 0.51959 0.70209 0.4284 0.0
C118 C 0.53791 0.69413 0.45349 0.0
C119 C 0.5204 0.71777 0.3779 0.0
C120 C 0.5395 0.72582 0.35098 0.0
C121 C 0.55747 0.71971 0.37924 0.0
C122 C 0.55666 0.70412 0.43041 0.0
C123 C 0.54152 0.73409 0.28455 0.0
C124 C 0.54371 0.75801 0.26891 0.0
C125 C 0.54441 0.76475 0.2045 0.0
C126 C 0.54261 0.74745 0.1567 0.0
C127 C 0.5404 0.72366 0.17236 0.0
C128 C 0.5401 0.71716 0.23609 0.0
C129 C 0.5367 0.70559 0.12426 0.0
C130 C 0.52028 0.70986 0.08795 0.0
C131 C 0.54771 0.68281 0.12096 0.0
C132 C 0.54157 0.66422 0.08536 0.0
C133 C 0.52421 0.66797 0.05259 0.0
C134 C 0.54561 0.78993 0.18614 0.0
C135 C 0.53045 0.80793 0.21494 0.0
C136 C 0.5602 0.79548 0.13369 0.0
C137 C 0.55895 0.81821 0.10817 0.0
C138 C 0.54289 0.83576 0.13406 0.0
C139 C 0.52901 0.83061 0.18884 0.0
C140 C 0.51406 0.69117 0.05238 0.0
H141 H 0.50487 0.69475 0.4438 0.0
H142 H 0.50643 0.72191 0.35597 0.0
H143 H 0.57245 0.72543 0.35853 0.0
H144 H 0.57099 0.69889 0.44938 0.0
H145 H 0.54459 0.77123 0.3064 0.0
H146 H 0.53796 0.69885 0.24871 0.0
H147 H 0.54248 0.7526 0.10744 0.0
H148 H 0.51145 0.72726 0.09019 0.0
H149 H 0.56057 0.67917 0.14801 0.0
H150 H 0.55007 0.64669 0.085 0.0
H151 H 0.51894 0.80404 0.25513 0.0
H152 H 0.57204 0.78189 0.1107 0.0
H153 H 0.50063 0.69461 0.02764 0.0
H154 H 0.51658 0.84386 0.21008 0.0
H155 H 0.56976 0.82155 0.06572 0.0
C156 C 0.19508 0.42315 0.26166 0.0
C157 C 0.18129 0.4096 0.23385 0.0
C158 C 0.21299 0.43009 0.22448 0.0
C159 C 0.21758 0.42342 0.15887 0.0
C160 C 0.20558 0.40681 0.13391 0.0
C161 C 0.18746 0.4001 0.17098 0.0
C162 C 0.23142 0.43767 0.11519 0.0
C163 C 0.24897 0.44681 0.13487 0.0
C164 C 0.25908 0.46471 0.10068 0.0
C165 C 0.25175 0.47323 0.04457 0.0
C166 C 0.2345 0.46353 0.02319 0.0
C167 C 0.22471 0.44578 0.05854 0.0
C168 C 0.22431 0.47284 0.96884 0.0
C169 C 0.21159 0.49464 0.97669 0.0
C170 C 0.22198 0.45682 0.91876 0.0
C171 C 0.20596 0.46139 0.88151 0.0
C172 C 0.19185 0.48209 0.89344 0.0
C173 C 0.27614 0.47514 0.12859 0.0
C174 C 0.2716 0.48641 0.18989 0.0
C175 C 0.29718 0.47004 0.10078 0.0
C176 C 0.31339 0.47492 0.13533 0.0
C177 C 0.30885 0.48505 0.19831 0.0
C178 C 0.28772 0.49139 0.22421 0.0
C179 C 0.19553 0.49929 0.93912 0.0
H180 H 0.19084 0.43084 0.30994 0.0
H181 H 0.22179 0.44283 0.24566 0.0
H182 H 0.20911 0.40071 0.08402 0.0
H183 H 0.17734 0.38923 0.14871 0.0
H184 H 0.25436 0.44065 0.17859 0.0
H185 H 0.21061 0.43968 0.04416 0.0
H186 H 0.259 0.48754 0.01895 0.0
H187 H 0.21272 0.50704 0.01586 0.0
H188 H 0.23137 0.43973 0.9123 0.0
H189 H 0.2038 0.44797 0.846 0.0
H190 H 0.25547 0.49021 0.2127 0.0
H191 H 0.30106 0.46104 0.05396 0.0
H192 H 0.18493 0.51539 0.94965 0.0
H193 H 0.2835 0.49894 0.27262 0.0
H194 H 0.32947 0.47008 0.11346 0.0
C195 C 0.95338 0.25429 0.31145 0.0
C196 C 0.95384 0.22929 0.30773 0.0
C197 C 0.96632 0.26619 0.26592 0.0
C198 C 0.9803 0.25319 0.21695 0.0
C199 C 0.98052 0.22813 0.21383 0.0
C200 C 0.96732 0.21642 0.25806 0.0
C201 C 0.99568 0.26507 0.17156 0.0
C202 C 1.00529 0.28472 0.19166 0.0
C203 C 0.02212 0.29344 0.15199 0.0
C204 C 0.02991 0.28195 0.09202 0.0
C205 C 0.01987 0.2628 0.07065 0.0
C206 C 1.00249 0.25512 0.10957 0.0
C207 C 0.02814 0.24817 0.01183 0.0
C208 C 0.01668 0.24879 0.96023 0.0
C209 C 0.0429 0.22862 0.01608 0.0
C210 C 0.04458 0.20887 0.9734 0.0
C211 C 0.03157 0.20836 0.92542 0.0
C212 C 0.03155 0.31409 0.17638 0.0
C213 C 0.01967 0.33635 0.18516 0.0
C214 C 0.05031 0.31071 0.20233 0.0
C215 C 0.05639 0.32894 0.24006 0.0
C216 C 0.04383 0.35084 0.2521 0.0
C217 C 0.0258 0.35459 0.22224 0.0
C218 C 0.01854 0.22917 0.91699 0.0
H219 H 0.94316 0.26454 0.34976 0.0
H220 H 0.96554 0.2855 0.26963 0.0
H221 H 0.9915 0.21726 0.17875 0.0
H222 H 0.9684 0.19707 0.25516 0.0
H223 H 1.00042 0.29269 0.23944 0.0
H224 H 0.99492 0.24036 0.09222 0.0
H225 H 0.04351 0.28785 0.06248 0.0
H226 H 1.00496 0.26353 0.9567 0.0
H227 H 0.05152 0.22754 0.05646 0.0
H228 H 0.05471 0.19324 0.98194 0.0
H229 H 1.00496 0.33914 0.16636 0.0
H230 H 0.05953 0.29352 0.19686 0.0
H231 H 0.00869 0.22973 0.87962 0.0
H232 H 0.01559 0.37105 0.23109 0.0
H233 H 0.07045 0.32556 0.26196 0.0
C234 C 0.27485 1.00033 0.44217 0.0
C235 C 0.29233 0.01334 0.44262 0.0
C236 C 0.26228 0.00353 0.39408 0.0
C237 C 0.26695 0.01986 0.34567 0.0
C238 C 0.2832 0.03447 0.34975 0.0
C239 C 0.29579 0.03125 0.39783 0.0
C240 C 0.25699 0.01897 0.28681 0.0
C241 C 0.23568 0.01595 0.29067 0.0
C242 C 0.22689 0.01067 0.23558 0.0
C243 C 0.23973 0.00893 0.17483 0.0
C244 C 0.26124 0.0125 0.17046 0.0
C245 C 0.26952 0.01769 0.2265 0.0
C246 C 0.27652 0.0085 0.11045 0.0
C247 C 0.28987 0.98716 0.10237 0.0
C248 C 0.28202 0.02791 0.07276 0.0
C249 C 0.3011 0.02645 0.03062 0.0
C250 C 0.31525 0.0057 0.02647 0.0
C251 C 0.20475 0.00497 0.24609 0.0
C252 C 0.19989 0.98446 0.27982 0.0
C253 C 0.18844 0.02251 0.23929 0.0
C254 C 0.16786 0.02023 0.26916 0.0
C255 C 0.16323 0.0005 0.30728 0.0
C256 C 0.17948 0.98225 0.31006 0.0
C257 C 0.30901 0.98578 0.06103 0.0
H258 H 0.27166 0.98664 0.47666 0.0
H259 H 0.24991 0.99192 0.39218 0.0
H260 H 0.28694 0.04743 0.31356 0.0
H261 H 0.30919 0.04152 0.39674 0.0
H262 H 0.22593 0.01682 0.33735 0.0
H263 H 0.28622 0.01921 0.22326 0.0
H264 H 0.23329 0.00406 0.13223 0.0
H265 H 0.28628 0.97215 0.13203 0.0
H266 H 0.27233 0.04479 0.07951 0.0
H267 H 0.30548 0.04215 0.00502 0.0
H268 H 0.21229 0.97096 0.28713 0.0
H269 H 0.19185 0.03872 0.21468 0.0
H270 H 0.31943 0.96947 0.05853 0.0
H271 H 0.17689 0.96694 0.33935 0.0
H272 H 0.15579 0.03444 0.2645 0.0
C273 C 0.48008 0.3123 0.09923 0.0
C274 C 0.48998 0.30661 0.03604 0.0
C275 C 0.484 0.29743 0.14924 0.0
C276 C 0.49776 0.27651 0.13714 0.0
C277 C 0.50596 0.2695 0.07347 0.0
C278 C 0.50207 0.2844 0.02325 0.0
C279 C 0.50785 0.26635 0.19036 0.0
C280 C 0.50476 0.24345 0.21347 0.0
C281 C 0.51463 0.23506 0.26537 0.0
C282 C 0.5276 0.2499 0.29305 0.0
C283 C 0.53103 0.27251 0.26931 0.0
C284 C 0.52105 0.28052 0.21817 0.0
C285 C 0.54388 0.28865 0.2999 0.0
C286 C 0.54084 0.29233 0.36692 0.0
C287 C 0.55766 0.30237 0.26187 0.0
C288 C 0.56692 0.32063 0.2898 0.0
C289 C 0.5626 0.32554 0.35636 0.0
C290 C 0.51109 0.21137 0.29343 0.0
C291 C 0.49093 0.20335 0.30408 0.0
C292 C 0.52768 0.19766 0.31571 0.0
C293 C 0.52398 0.17761 0.35193 0.0
C294 C 0.50368 0.17042 0.36568 0.0
C295 C 0.48728 0.18294 0.33969 0.0
C296 C 0.55012 0.31061 0.39489 0.0
H297 H 0.47081 0.32925 0.11117 0.0
H298 H 0.47775 0.30333 0.19818 0.0
H299 H 0.51684 0.2536 0.06313 0.0
H300 H 0.50964 0.27927 0.97497 0.0
H301 H 0.4947 0.23241 0.19149 0.0
H302 H 0.52319 0.29824 0.20046 0.0
H303 H 0.53488 0.24404 0.33387 0.0
H304 H 0.53021 0.28216 0.39743 0.0
H305 H 0.56061 0.29959 0.21015 0.0
H306 H 0.57673 0.33159 0.259 0.0
H307 H 0.47778 0.2135 0.28787 0.0
H308 H 0.54351 0.2029 0.30696 0.0
H309 H 0.54629 0.31407 0.44625 0.0
H310 H 0.47148 0.1777 0.34976 0.0
H311 H 0.53693 0.16802 0.37065 0.0
Dy312 Dy 0.98743 0.00606 0.7006 0.0
Dy313 Dy 0.02194 0.98619 0.78962 0.0
C314 C 0.03559 0.99699 0.64311 0.0
O315 O 0.99418 0.96739 0.67129 0.0
O316 O 0.00877 0.95316 0.75803 0.0
O317 O 0.97671 0.01284 0.60971 0.0
O318 O 0.95599 0.02205 0.69905 0.0
O319 O 0.99194 0.99891 0.85433 0.0
O320 O 0.97109 0.98782 0.78384 0.0
O321 O 0.02583 0.02508 0.78224 0.0
O322 O 0.99339 0.03803 0.75814 0.0
O323 O 0.02875 0.97101 0.878 0.0
O324 O 0.05414 0.98036 0.80699 0.0
C325 C 1.00046 0.94961 0.70559 0.0
O326 O 0.01897 0.01255 0.64753 0.0
O327 O 0.03715 0.98092 0.68694 0.0
C328 C 0.95265 0.04712 0.61355 0.0
C329 C 0.94022 0.09272 0.5718 0.0
C330 C 0.9601 0.0878 0.59077 0.0
C331 C 0.96622 0.06521 0.61171 0.0
C332 C 0.93275 0.05194 0.59563 0.0
C333 C 0.92656 0.07456 0.57494 0.0
C334 C 0.95873 0.02354 0.63681 0.0
C335 C 0.97381 0.99252 0.84297 0.0
C336 C 0.01119 0.04235 0.77697 0.0
C337 C 0.06078 0.94708 0.86963 0.0
C338 C 0.08073 0.90315 0.90054 0.0
C339 C 0.06352 0.90374 0.86659 0.0
C340 C 0.05366 0.92553 0.85111 0.0
C341 C 0.07856 0.94661 0.90035 0.0
C342 C 0.08852 0.92482 0.91551 0.0
C343 C 0.04901 0.97004 0.86101 0.0
H344 H 0.97115 0.10121 0.58799 0.0
H345 H 0.98158 0.06182 0.62614 0.0
H346 H 0.92199 0.03822 0.59776 0.0
H347 H 0.91107 0.07783 0.56147 0.0
H348 H 0.0569 0.88747 0.85494 0.0
H349 H 0.03998 0.92558 0.82702 0.0
H350 H 0.08435 0.96312 0.91446 0.0
H351 H 0.10194 0.92499 0.94068 0.0
Dy352 Dy 0.50165 0.98301 0.70633 0.0
Dy353 Dy 0.51135 0.02361 0.80786 0.0
C354 C 0.49672 0.03826 0.67573 0.0
O355 O 0.53672 0.97949 0.69654 0.0
O356 O 0.54064 0.017 0.73577 0.0
O357 O 0.50387 0.96716 0.61076 0.0
O358 O 0.4867 0.95099 0.6918 0.0
O359 O 0.52584 0.98923 0.84021 0.0
O360 O 0.50384 0.96545 0.79944 0.0
O361 O 0.47925 0.01312 0.84509 0.0
O362 O 0.47042 0.00184 0.74849 0.0
O363 O 0.51416 0.03631 0.90355 0.0
O364 O 0.51873 0.05969 0.82348 0.0
C365 C 0.54841 0.99705 0.70362 0.0
O366 O 0.50324 0.01666 0.6521 0.0
O367 O 0.49381 0.04291 0.73783 0.0
C368 C 0.47084 0.9541 0.59961 0.0
C369 C 0.42965 0.96284 0.57218 0.0
C370 C 0.44432 0.97949 0.5564 0.0
C371 C 0.46467 0.97524 0.57029 0.0
C372 C 0.45669 0.93667 0.61115 0.0
C373 C 0.43622 0.941 0.59757 0.0
C374 C 0.49003 0.95232 0.62956 0.0
C375 C 0.51699 0.96919 0.83957 0.0
C376 C 0.465 0.00811 0.80956 0.0
C377 C 0.54075 0.06235 0.90075 0.0
C378 C 0.58044 0.07458 0.92194 0.0
C379 C 0.5777 0.05114 0.90225 0.0
C380 C 0.55808 0.04513 0.89137 0.0
C381 C 0.54324 0.08567 0.92105 0.0
C382 C 0.56295 0.09177 0.93169 0.0
C383 C 0.52065 0.05652 0.88344 0.0
H384 H 0.43986 0.99623 0.53528 0.0
H385 H 0.47516 0.98914 0.56122 0.0
H386 H 0.46106 0.92037 0.63443 0.0
H387 H 0.42526 0.92784 0.61031 0.0
H388 H 0.5907 0.03732 0.89554 0.0
H389 H 0.55649 0.02709 0.87481 0.0
H390 H 0.53004 0.09925 0.92744 0.0
H391 H 0.56456 0.11001 0.9463 0.0
Dy392 Dy 0.53922 0.49554 0.75871 0.0
Dy393 Dy 0.49538 0.49418 0.68608 0.0
C394 C 0.50852 0.45318 0.78134 0.0
O395 O 0.55092 0.48223 0.65844 0.0
O396 O 0.52049 0.46736 0.63751 0.0
O397 O 0.56873 0.47985 0.78404 0.0
O398 O 0.55558 0.51517 0.82159 0.0
O399 O 0.51069 0.52574 0.64615 0.0
O400 O 0.53809 0.52919 0.70438 0.0
O401 O 0.49029 0.52482 0.75739 0.0
O402 O 0.50973 0.50596 0.82594 0.0
O403 O 0.48424 0.49124 0.59565 0.0
O404 O 0.46147 0.49438 0.68451 0.0
C405 C 0.54079 0.46873 0.62452 0.0
O406 O 0.5277 0.45972 0.77617 0.0
O407 O 0.49299 0.46616 0.76063 0.0
C408 C 0.57981 0.49403 0.88069 0.0
C409 C 0.60015 0.49167 0.99137 0.0
C410 C 0.57863 0.49959 0.9964 0.0
C411 C 0.56858 0.50081 0.94163 0.0
C412 C 0.60101 0.48537 0.87587 0.0
C413 C 0.61106 0.48422 0.93031 0.0
C414 C 0.57082 0.49824 0.82071 0.0
C415 C 0.52617 0.53704 0.66237 0.0
C416 C 0.4966 0.5238 0.8137 0.0
C417 C 0.44789 0.49065 0.58073 0.0
C418 C 0.4168 0.48887 0.49896 0.0
C419 C 0.43809 0.48241 0.4755 0.0
C420 C 0.45338 0.48332 0.51571 0.0
C421 C 0.42662 0.49694 0.60474 0.0
C422 C 0.41124 0.49616 0.5642 0.0
C423 C 0.4646 0.4923 0.62165 0.0
H424 H 0.56958 0.50514 0.04255 0.0
H425 H 0.5522 0.50763 0.94677 0.0
H426 H 0.61008 0.48031 0.82934 0.0
H427 H 0.62766 0.47841 0.92386 0.0
H428 H 0.44306 0.47705 0.42548 0.0
H429 H 0.46962 0.47837 0.4955 0.0
H430 H 0.4219 0.50271 0.65457 0.0
H431 H 0.39499 0.50108 0.58409 0.0
Dy432 Dy 0.01499 0.52189 0.6755 0.0
Dy433 Dy 1.00329 0.47683 0.76341 0.0
C434 C 0.02474 0.46782 0.62002 0.0
O435 O 0.97994 0.52584 0.69982 0.0
O436 O 0.97709 0.48598 0.7069 0.0
O437 O 0.00832 0.54241 0.59413 0.0
O438 O 0.03337 0.55101 0.64522 0.0
O439 O 0.99009 0.50995 0.82273 0.0
O440 O 0.0117 0.53668 0.77546 0.0
O441 O 0.0354 0.48296 0.78299 0.0
O442 O 0.04612 0.50526 0.696 0.0
O443 O 0.99979 0.45961 0.85445 0.0
O444 O 0.9899 0.44296 0.77185 0.0
C445 C 0.96869 0.50761 0.69897 0.0
O446 O 0.01685 0.48954 0.61049 0.0
O447 O 0.02471 0.46014 0.6783 0.0
C448 C 0.04132 0.54493 0.53246 0.0
C449 C 0.06721 0.51127 0.44904 0.0
C450 C 0.04702 0.51885 0.43641 0.0
C451 C 0.03415 0.53567 0.47779 0.0
C452 C 0.06265 0.54025 0.53827 0.0
C453 C 0.07542 0.52336 0.49729 0.0
C454 C 0.02602 0.55204 0.5907 0.0
C455 C 0.999 0.52998 0.82474 0.0
C456 C 0.05009 0.49305 0.7462 0.0
C457 C 0.96599 0.44698 0.86865 0.0
C458 C 0.92788 0.47204 0.92414 0.0
C459 C 0.93018 0.46269 0.86098 0.0
C460 C 0.94909 0.45016 0.83344 0.0
C461 C 0.96246 0.45325 0.93451 0.0
C462 C 0.94359 0.46587 0.96194 0.0
C463 C 0.98774 0.44452 0.83448 0.0
H464 H 0.04046 0.51011 0.39867 0.0
H465 H 0.01789 0.53925 0.4712 0.0
H466 H 0.06892 0.5475 0.57876 0.0
H467 H 0.09127 0.51846 0.50636 0.0
H468 H 0.91821 0.46699 0.83101 0.0
H469 H 0.95112 0.44523 0.78276 0.0
H470 H 0.97509 0.45081 0.96299 0.0
H471 H 0.94191 0.47238 0.01141 0.0
H472 H 0.14204 0.96119 0.34368 0.0
H473 H 0.0446 0.03413 0.5642 0.0
H474 H 0.13636 0.03817 0.3671 0.0
H475 H 0.06635 0.96135 0.59794 0.0
H476 H 0.07431 0.03511 0.47746 0.0
H477 H 0.11041 0.96026 0.42217 0.0
C478 C 0.13423 0.97794 0.36496 0.0
C479 C 0.14231 0.99979 0.34869 0.0
C480 C 0.0725 0.01892 0.50376 0.0
C481 C 0.1055 0.99875 0.4381 0.0
C482 C 0.05551 0.0183 0.55311 0.0
C483 C 0.05299 0.99765 0.58867 0.0
C484 C 0.08688 0.99859 0.48892 0.0
C485 C 0.06771 0.97771 0.57219 0.0
C486 C 0.11606 0.97735 0.40973 0.0
C487 C 0.13084 0.02086 0.37705 0.0
N488 N 0.08393 0.97865 0.52346 0.0
N489 N 0.11312 0.01979 0.4203 0.0
H490 H 0.48592 0.1286 0.34765 0.0
H491 H 0.49338 0.08623 0.70428 0.0
H492 H 0.5123 0.16868 0.48765 0.0
H493 H 0.49406 0.03563 0.54657 0.0
H494 H 0.49244 0.11873 0.62953 0.0
H495 H 0.48145 0.09623 0.42424 0.0
C496 C 0.49058 0.13062 0.39465 0.0
C497 C 0.49963 0.15115 0.41142 0.0
C498 C 0.49265 0.10052 0.61137 0.0
C499 C 0.49433 0.11468 0.49891 0.0
C500 C 0.49307 0.08193 0.65406 0.0
C501 C 0.49397 0.05811 0.63163 0.0
C502 C 0.49287 0.09536 0.54575 0.0
C503 C 0.49357 0.05372 0.56586 0.0
C504 C 0.48812 0.11219 0.43807 0.0
C505 C 0.50545 0.15299 0.47277 0.0
N506 N 0.49308 0.07218 0.52513 0.0
N507 N 0.50265 0.13505 0.5143 0.0
H508 H 0.31254 0.52113 0.28589 0.0
H509 H 0.41441 0.45498 0.40495 0.0
H510 H 0.34357 0.45368 0.20516 0.0
H511 H 0.38246 0.52106 0.49189 0.0
H512 H 0.38909 0.45491 0.32978 0.0
H513 H 0.3385 0.52223 0.35916 0.0
C514 C 0.32482 0.50656 0.28333 0.0
C515 C 0.32574 0.48724 0.23906 0.0
C516 C 0.38757 0.46945 0.36525 0.0
C517 C 0.35567 0.48845 0.3232 0.0
C518 C 0.40211 0.46955 0.40819 0.0
C519 C 0.4007 0.48812 0.45492 0.0
C520 C 0.37139 0.48807 0.36859 0.0
C521 C 0.38411 0.50625 0.45723 0.0
C522 C 0.33969 0.50724 0.32522 0.0
C523 C 0.34228 0.46911 0.23765 0.0
N524 N 0.37018 0.50581 0.41464 0.0
N525 N 0.35647 0.47012 0.27915 0.0
H526 H 0.0557 0.34224 0.36978 0.0
H527 H 0.02806 0.47827 0.49302 0.0
H528 H 0.04045 0.39989 0.24783 0.0
H529 H 0.03927 0.42019 0.61784 0.0
H530 H 0.03844 0.45085 0.40024 0.0
H531 H 0.05599 0.37139 0.45731 0.0
C532 C 0.05288 0.36106 0.36086 0.0
C533 C 0.04781 0.36858 0.30141 0.0
C534 C 0.03874 0.44408 0.44785 0.0
C535 C 0.04767 0.40207 0.40214 0.0
C536 C 0.03283 0.45977 0.50101 0.0
C537 C 0.03251 0.4515 0.56354 0.0
C538 C 0.0442 0.41979 0.45705 0.0
C539 C 0.03904 0.42733 0.57064 0.0
C540 C 0.05286 0.3777 0.41116 0.0
C541 C 0.04405 0.39324 0.29315 0.0
N542 N 0.04439 0.41228 0.51809 0.0
N543 N 0.04384 0.40905 0.34309 0.0
H544 H 0.86014 0.95472 0.07244 0.0
H545 H 0.96732 0.01367 0.96471 0.0
H546 H 0.87345 0.02071 0.15992 0.0
H547 H 0.93997 0.96707 0.84169 0.0
H548 H 0.93667 0.01166 0.04818 0.0
H549 H 0.89319 0.95405 0.9997 0.0
C550 C 0.86997 0.96908 0.07669 0.0
C551 C 0.86362 0.98803 0.12213 0.0
C552 C 0.9375 0.0018 1.00297 0.0
C553 C 0.90196 0.98704 0.03903 0.0
C554 C 0.955 0.00286 0.95546 0.0
C555 C 0.95618 0.99063 0.89594 0.0
C556 C 0.92128 0.98802 0.99131 0.0
C557 C 0.93969 0.97696 0.88656 0.0
C558 C 0.88893 0.9686 0.03511 0.0
C559 C 0.87757 0.00565 0.12615 0.0
N560 N 0.92303 0.97598 0.93363 0.0
N561 N 0.89599 0.0048 0.08496 0.0
H562 H 0.57175 0.86587 0.08291 0.0
H563 H 0.49293 0.93327 0.87675 0.0
H564 H 0.50581 0.85612 0.10449 0.0
H565 H 0.54962 0.96316 0.9102 0.0
H566 H 0.49901 0.9028 0.95402 0.0
H567 H 0.56551 0.89997 0.01489 0.0
C568 C 0.55595 0.87106 0.07388 0.0
C569 C 0.53926 0.85816 0.09949 0.0
C570 C 0.5101 0.91606 0.94475 0.0
C571 C 0.53212 0.89677 0.02116 0.0
C572 C 0.50672 0.9334 0.90025 0.0
C573 C 0.52083 0.95077 0.88678 0.0
C574 C 0.52792 0.91573 0.97553 0.0
C575 C 0.53834 0.95011 0.91924 0.0
C576 C 0.5524 0.89052 0.03526 0.0
C577 C 0.51909 0.86569 0.08642 0.0
N578 N 0.54151 0.93271 0.96178 0.0
N579 N 0.51614 0.88428 0.04762 0.0
H580 H 0.69832 0.47774 0.22978 0.0
H581 H 0.5942 0.52487 0.09248 0.0
H582 H 0.65303 0.53286 0.32629 0.0
H583 H 0.63248 0.46025 0.0206 0.0
H584 H 0.61496 0.52751 0.1798 0.0
H585 H 0.67401 0.47029 0.15497 0.0
C586 C 0.68315 0.48803 0.23619 0.0
C587 C 0.67792 0.50612 0.28464 0.0
C588 C 0.61872 0.51264 0.1452 0.0
C589 C 0.65005 0.49801 0.19733 0.0
C590 C 0.60674 0.51101 0.09534 0.0
C591 C 0.61156 0.49237 0.04832 0.0
C592 C 0.63584 0.49564 0.14819 0.0
C593 C 0.62835 0.47525 0.0546 0.0
C594 C 0.6693 0.48387 0.19289 0.0
C595 C 0.65806 0.51907 0.28916 0.0
N596 N 0.63993 0.47741 0.10306 0.0
N597 N 0.64499 0.51493 0.24583 0.0
H598 H 0.02485 0.60829 0.15189 0.0
H599 H 0.96609 0.53234 0.92486 0.0
H600 H 0.95735 0.61859 0.16986 0.0
H601 H 0.02507 0.56084 0.8624 0.0
H602 H 0.96279 0.55617 0.02635 0.0
H603 H 0.02556 0.5816 0.0587 0.0
C604 C 0.01011 0.60451 0.13715 0.0
C605 C 0.99099 0.61564 0.16894 0.0
C606 C 0.97636 0.55716 0.99006 0.0
C607 C 0.99179 0.58527 0.06141 0.0
C608 C 0.97827 0.54361 0.9324 0.0
C609 C 0.99583 0.54475 0.88503 0.0
C610 C 0.99242 0.57125 1.00074 0.0
C611 C 0.01118 0.55958 0.89721 0.0
C612 C 0.01057 0.58949 0.08347 0.0
C613 C 0.97242 0.61042 0.14655 0.0
N614 N 0.00922 0.57203 0.954 0.0
N615 N 0.97325 0.59556 0.09397 0.0
H616 H 0.95404 0.2327 0.43705 0.0
H617 H 0.91895 0.10166 0.47029 0.0
H618 H 0.92806 0.19463 0.29232 0.0
H619 H 0.94825 0.13739 0.61208 0.0
H620 H 0.91386 0.1394 0.41783 0.0
H621 H 0.94344 0.2025 0.51413 0.0
C622 C 0.94545 0.21842 0.42223 0.0
C623 C 0.94217 0.21584 0.35823 0.0
C624 C 0.92114 0.1391 0.46096 0.0
C625 C 0.93048 0.18107 0.44515 0.0
C626 C 0.92396 0.11752 0.49124 0.0
C627 C 0.93441 0.1162 0.5451 0.0
C628 C 0.92902 0.15952 0.48417 0.0
C629 C 0.94066 0.13741 0.56961 0.0
C630 C 0.93958 0.20106 0.46597 0.0
C631 C 0.93112 0.19697 0.34114 0.0
N632 N 0.93816 0.15813 0.53839 0.0
N633 N 0.926 0.18006 0.38403 0.0
H634 H 0.31493 0.04134 0.50989 0.0
H635 H 0.40231 0.93396 0.52884 0.0
H636 H 0.30771 0.9678 0.46204 0.0
H637 H 0.40614 0.00558 0.60151 0.0
H638 H 0.36608 0.94531 0.51381 0.0
H639 H 0.34668 0.02809 0.55448 0.0
C640 C 0.31983 0.0224 0.50982 0.0
C641 C 0.30878 0.00568 0.48175 0.0
C642 C 0.3748 0.95851 0.53349 0.0
C643 C 0.34514 0.99041 0.53175 0.0
C644 C 0.39548 0.95201 0.5421 0.0
C645 C 0.40738 0.96896 0.56529 0.0
C646 C 0.36602 0.98215 0.54789 0.0
C647 C 0.39773 0.99212 0.58167 0.0
C648 C 0.33793 0.01482 0.53525 0.0
C649 C 0.31566 0.98132 0.48352 0.0
N650 N 0.37769 0.9981 0.57208 0.0
N651 N 0.33357 0.97445 0.50714 0.0
H652 H 0.55993 0.3699 0.30677 0.0
H653 H 0.57425 0.43646 0.63365 0.0
H654 H 0.57764 0.33263 0.47042 0.0
H655 H 0.53275 0.46275 0.50329 0.0
H656 H 0.58713 0.40248 0.55797 0.0
H657 H 0.56223 0.40783 0.36238 0.0
C658 C 0.56491 0.36963 0.35367 0.0
C659 C 0.56833 0.34803 0.38437 0.0
C660 C 0.57564 0.41609 0.54532 0.0
C661 C 0.57067 0.39148 0.44851 0.0
C662 C 0.56845 0.43549 0.58804 0.0
C663 C 0.55246 0.45221 0.57425 0.0
C664 C 0.56693 0.41383 0.48844 0.0
C665 C 0.54509 0.45009 0.51537 0.0
C666 C 0.56605 0.39133 0.38553 0.0
C667 C 0.57449 0.3489 0.44555 0.0
N668 N 0.55229 0.43113 0.47472 0.0
N669 N 0.57519 0.37032 0.47608 0.0
H670 H 0.14655 0.41926 0.17626 0.0
H671 H 0.08579 0.47417 0.50708 0.0
H672 H 0.16531 0.40453 0.3608 0.0
H673 H 0.07398 0.4975 0.321 0.0
H674 H 0.10758 0.43932 0.45566 0.0
H675 H 0.11256 0.43673 0.23014 0.0
C676 C 0.14326 0.41877 0.2281 0.0
C677 C 0.15904 0.411 0.26422 0.0
C678 C 0.10008 0.45191 0.42603 0.0
C679 C 0.12036 0.43174 0.32605 0.0
C680 C 0.08786 0.47194 0.45523 0.0
C681 C 0.0788 0.48918 0.41785 0.0
C682 C 0.10344 0.44918 0.35886 0.0
C683 C 0.0811 0.48488 0.35132 0.0
C684 C 0.12388 0.42908 0.25887 0.0
C685 C 0.15378 0.41092 0.33122 0.0
N686 N 0.09355 0.4655 0.32373 0.0
N687 N 0.13506 0.42175 0.36012 0.0
H688 H 0.09224 0.7986 0.17838 0.0
H689 H 0.08657 0.858 0.84306 0.0
H690 H 0.08455 0.75894 0.00674 0.0
H691 H 0.09286 0.89618 0.01833 0.0
H692 H 0.09335 0.82028 0.89541 0.0
H693 H 0.10097 0.83242 0.11366 0.0
C694 C 0.09291 0.79668 0.12685 0.0
C695 C 0.08722 0.77591 0.09829 0.0
C696 C 0.09363 0.83694 0.92195 0.0
C697 C 0.09654 0.81518 0.02384 0.0
C698 C 0.08965 0.85848 0.8922 0.0
C699 C 0.08877 0.88035 0.9266 0.0
C700 C 0.09664 0.83726 0.98664 0.0
C701 C 0.0934 0.87985 0.98967 0.0
C702 C 0.0977 0.81621 0.08985 0.0
C703 C 0.08821 0.77481 0.03116 0.0
N704 N 0.09682 0.85869 0.01785 0.0
N705 N 0.09235 0.79434 0.99634 0.0
H706 H 0.68421 0.11415 0.10313 0.0
H707 H 0.61869 0.05954 0.85199 0.0
H708 H 0.70286 0.04782 0.99302 0.0
H709 H 0.59015 0.10371 0.01777 0.0
H710 H 0.65318 0.06485 0.88088 0.0
H711 H 0.65324 0.1197 0.04907 0.0
C712 C 0.68206 0.1009 0.0672 0.0
C713 C 0.6961 0.08017 0.05401 0.0
C714 C 0.63935 0.07364 0.91033 0.0
C715 C 0.66103 0.08692 0.99083 0.0
C716 C 0.61965 0.07048 0.89424 0.0
C717 C 0.60144 0.08068 0.93348 0.0
C718 C 0.64089 0.08723 0.96576 0.0
C719 C 0.60373 0.09541 0.98628 0.0
C720 C 0.66443 0.10422 0.03616 0.0
C721 C 0.69273 0.06415 0.00509 0.0
N722 N 0.62311 0.09801 1.00139 0.0
N723 N 0.67546 0.06776 0.97587 0.0
H724 H 0.51974 0.62383 0.10091 0.0
H725 H 0.48329 0.56957 0.78632 0.0
H726 H 0.50963 0.66535 0.93646 0.0
H727 H 0.5039 0.52722 0.93779 0.0
H728 H 0.48604 0.60583 0.84959 0.0
H729 H 0.50791 0.58939 0.0495 0.0
C730 C 0.51511 0.62567 0.05376 0.0
C731 C 0.51608 0.64738 0.02235 0.0
C732 C 0.48963 0.58859 0.86936 0.0
C733 C 0.50214 0.60803 0.96359 0.0
C734 C 0.48788 0.56786 0.83356 0.0
C735 C 0.49356 0.54533 0.85665 0.0
C736 C 0.49702 0.58671 0.92864 0.0
C737 C 0.49954 0.54422 0.91793 0.0
C738 C 0.50819 0.60604 0.02467 0.0
C739 C 0.50921 0.64893 0.96226 0.0
N740 N 0.50131 0.56462 0.95151 0.0
N741 N 0.5027 0.62942 0.93451 0.0
H742 H 0.8095 0.54445 0.08065 0.0
H743 H 0.93165 0.51494 0.9805 0.0
H744 H 0.85609 0.58634 0.14132 0.0
H745 H 0.88574 0.47257 0.91721 0.0
H746 H 0.90385 0.54604 0.02047 0.0
H747 H 0.83628 0.52427 0.99837 0.0
C748 C 0.82519 0.55014 0.07474 0.0
C749 C 0.83077 0.56672 0.11846 0.0
C750 C 0.89977 0.53004 0.99755 0.0
C751 C 0.86153 0.5432 0.02632 0.0
C752 C 0.91562 0.51214 0.97548 0.0
C753 C 0.91085 0.49087 0.94737 0.0
C754 C 0.87889 0.52659 0.99227 0.0
C755 C 0.88997 0.48856 0.93969 0.0
C756 C 0.84054 0.53837 0.02835 0.0
C757 C 0.8513 0.57335 0.10906 0.0
N758 N 0.87467 0.50606 0.96303 0.0
N759 N 0.86608 0.56116 0.06496 0.0
H760 H 0.99581 0.19215 0.89144 0.0
H761 H 0.04728 0.05883 0.80705 0.0
H762 H 0.06207 0.17139 0.88324 0.0
H763 H 0.98385 0.08298 0.78198 0.0
H764 H 0.05308 0.09988 0.83431 0.0
H765 H 0.99144 0.15273 0.84852 0.0
C766 C 0.00958 0.17955 0.87943 0.0
C767 C 0.0294 0.18534 0.89122 0.0
C768 C 0.03792 0.09623 0.82257 0.0
C769 C 0.02424 0.13952 0.84366 0.0
C770 C 0.03455 0.07274 0.80722 0.0
C771 C 0.01497 0.06733 0.7926 0.0
C772 C 0.02158 0.11454 0.82382 0.0
C773 C 0.99916 0.08622 0.79322 0.0
C774 C 1.00698 0.15685 0.85546 0.0
C775 C 0.04644 0.16777 0.87602 0.0
N776 N 1.00277 0.10892 0.80895 0.0
N777 N 0.04343 0.14564 0.85361 0.0
H778 H 0.35158 0.99082 0.07132 0.0
H779 H 0.42982 0.00871 0.74975 0.0
H780 H 0.32911 0.02081 0.90475 0.0
H781 H 0.44894 0.00853 0.93754 0.0
H782 H 0.39319 0.00837 0.8007 0.0
H783 H 0.38764 0.99187 0.01793 0.0
C784 C 0.35422 0.99741 0.02315 0.0
C785 C 0.33722 0.0056 0.99238 0.0
C786 C 0.40542 0.00852 0.83063 0.0
C787 C 0.3787 0.0069 0.93075 0.0
C788 C 0.42635 0.00867 0.80164 0.0
C789 C 0.44258 0.00875 0.83936 0.0
C790 C 0.40065 0.00794 0.89783 0.0
C791 C 0.43704 0.00863 0.90641 0.0
C792 C 0.37485 0.99819 0.9929 0.0
C793 C 0.34171 0.01434 0.93031 0.0
N794 N 0.41665 0.00804 0.93333 0.0
N795 N 0.36199 0.01461 0.90135 0.0
H796 H 0.45802 0.33984 0.01235 0.0
H797 H 0.53764 0.41689 0.79988 0.0
H798 H 0.52338 0.3168 0.9491 0.0
H799 H 0.47082 0.43653 0.83108 0.0
H800 H 0.53192 0.3796 0.85265 0.0
H801 H 0.46142 0.37443 0.94391 0.0
C802 C 0.473 0.34183 0.98351 0.0
C803 C 0.49045 0.32532 0.98684 0.0
C804 C 0.51843 0.39193 0.8478 0.0
C805 C 0.49446 0.36497 0.9088 0.0
C806 C 0.5217 0.41338 0.81786 0.0
C807 C 0.50469 0.43005 0.81143 0.0
C808 C 0.49799 0.38701 0.87246 0.0
C809 C 0.4844 0.42424 0.83509 0.0
C810 C 0.4749 0.36158 0.94438 0.0
C811 C 0.5094 0.32877 0.9478 0.0
N812 N 0.48161 0.40328 0.86515 0.0
N813 N 0.51092 0.34827 0.91115 0.0
H814 H 0.17249 0.52124 0.84061 0.0
H815 H 0.06726 0.45976 0.82091 0.0
H816 H 0.16551 0.44748 0.88317 0.0
H817 H 0.08226 0.52115 0.7101 0.0
H818 H 0.10221 0.45711 0.8523 0.0
H819 H 0.13854 0.52379 0.80028 0.0
C820 C 0.16391 0.50558 0.84113 0.0
C821 C 0.17199 0.48405 0.86482 0.0
C822 C 0.09793 0.4711 0.82084 0.0
C823 C 0.13306 0.48695 0.8198 0.0
C824 C 0.07791 0.47268 0.803 0.0
C825 C 0.07175 0.4907 0.76269 0.0
C826 C 0.11191 0.48792 0.79933 0.0
C827 C 0.08635 0.50688 0.74097 0.0
C828 C 0.14459 0.50702 0.81794 0.0
C829 C 0.16013 0.46433 0.86443 0.0
N830 N 0.10568 0.50525 0.76002 0.0
N831 N 0.14128 0.46632 0.84289 0.0
H832 H 0.01225 0.79555 0.64191 0.0
H833 H 0.98162 0.9352 0.60493 0.0
H834 H 0.97858 0.82446 0.49431 0.0
H835 H 0.01387 0.90733 0.75687 0.0
H836 H 0.97863 0.89445 0.56807 0.0
H837 H 0.011 0.83589 0.68947 0.0
C838 C 1.00442 0.81032 0.61983 0.0
C839 C 0.99558 0.80653 0.56377 0.0
C840 C 0.9863 0.8972 0.60965 0.0
C841 C 0.99416 0.85282 0.61792 0.0
C842 C 0.98806 0.92054 0.63072 0.0
C843 C 0.99813 0.92481 0.68398 0.0
C844 C 0.99472 0.87784 0.64174 0.0
C845 C 1.00604 0.90497 0.71549 0.0
C846 C 1.00369 0.83336 0.64708 0.0
C847 C 0.98541 0.82636 0.53785 0.0
N848 N 1.00426 0.88237 0.69371 0.0
N849 N 0.98515 0.84861 0.56476 0.0
H850 H 0.67997 0.01786 0.59129 0.0
H851 H 0.56861 0.96419 0.61081 0.0
H852 H 0.66475 0.97065 0.44403 0.0
H853 H 0.57952 0.02468 0.72693 0.0
H854 H 0.60515 0.96216 0.55816 0.0
H855 H 0.64475 0.01627 0.65025 0.0
C856 C 0.66932 0.00709 0.57121 0.0
C857 C 0.6755 0.99457 0.51184 0.0
C858 C 0.59955 0.97582 0.59533 0.0
C859 C 0.63492 0.99245 0.58025 0.0
C860 C 0.57868 0.97695 0.62562 0.0
C861 C 0.57085 0.99472 0.67327 0.0
C862 C 0.61284 0.9924 0.61321 0.0
C863 C 0.58474 0.01078 0.69017 0.0
C864 C 0.64916 0.00615 0.60519 0.0
C865 C 0.66095 0.98046 0.48965 0.0
N866 N 0.60498 0.00922 0.66029 0.0
N867 N 0.64139 0.97988 0.5236 0.0
H868 H 0.50615 0.68257 0.54688 0.0
H869 H 0.56263 0.5589 0.6384 0.0
H870 H 0.56921 0.65777 0.45871 0.0
H871 H 0.49649 0.56935 0.62652 0.0
H872 H 0.5667 0.59884 0.59533 0.0
H873 H 0.50397 0.64483 0.6015 0.0
C874 C 0.51962 0.66938 0.5392 0.0
C875 C 0.53776 0.67341 0.49682 0.0
C876 C 0.55134 0.59229 0.60232 0.0
C877 C 0.53543 0.63032 0.56088 0.0
C878 C 0.549 0.56959 0.62678 0.0
C879 C 0.52924 0.56072 0.63524 0.0
C880 C 0.53368 0.60641 0.5881 0.0
C881 C 0.51206 0.57534 0.61978 0.0
C882 C 0.51833 0.64786 0.57063 0.0
C883 C 0.55491 0.65575 0.49095 0.0
N884 N 0.51465 0.5975 0.59738 0.0
N885 N 0.55328 0.63495 0.52231 0.0
H886 H 0.84208 0.48581 0.63253 0.0
H887 H 0.94619 0.5491 0.67133 0.0
H888 H 0.85014 0.55927 0.58801 0.0
H889 H 0.94046 0.47404 0.69891 0.0
H890 H 0.91005 0.55385 0.6485 0.0
H891 H 0.87705 0.48183 0.66457 0.0
C892 C 0.8511 0.50114 0.62963 0.0
C893 C 0.84294 0.52293 0.60743 0.0
C894 C 0.91668 0.53635 0.65973 0.0
C895 C 0.88317 0.51848 0.64451 0.0
C896 C 0.93735 0.53362 0.67284 0.0
C897 C 0.94652 0.51111 0.68685 0.0
C898 C 0.90496 0.51644 0.66076 0.0
C899 C 0.93417 0.49174 0.68818 0.0
C900 C 0.87109 0.49886 0.64816 0.0
C901 C 0.85544 0.54221 0.60572 0.0
N902 N 0.91412 0.49484 0.67522 0.0
N903 N 0.87485 0.5395 0.62368 0.0
loop_
_geom_bond_atom_site_label_1
_geom_bond_atom_site_label_2
_geom_bond_distance
_geom_bond_site_symmetry_2
_ccdc_geom_bond_type
C0 C1 1.386 . S
C0 C2 1.397 . S
C0 H24 0.931 . S
C1 C0 1.386 . S
C1 C5 1.397 . S
C2 C0 1.397 . S
C2 C3 1.384 . S
C2 H25 0.930 . S
C3 C2 1.384 . S
C3 C4 1.377 . S
C3 C6 1.481 . S
C4 C3 1.377 . S
C4 C5 1.389 . S
C4 H26 0.929 . S
C5 C1 1.397 . S
C5 C4 1.389 . S
C5 H27 0.931 . S
C6 C3 1.481 . S
C6 C7 1.387 . S
C6 C11 1.390 . S
C7 C6 1.387 . S
C7 C8 1.401 . S
C7 H28 0.930 . S
C8 C7 1.401 . S
C8 C9 1.376 . S
C8 C17 1.511 . S
C9 C8 1.376 . S
C9 C10 1.392 . S
C9 H30 0.931 . S
C10 C9 1.392 . S
C10 C11 1.361 . S
C10 C12 1.500 . S
C11 C6 1.390 . S
C11 C10 1.361 . S
C11 H29 0.931 . S
C12 C10 1.500 . S
C12 C13 1.371 . S
C12 C14 1.365 . S
C13 C12 1.371 . S
C13 C23 1.386 . S
C13 H31 0.931 . S
C14 C12 1.365 . S
C14 C15 1.409 . S
C14 H32 0.929 . S
C15 C14 1.409 . S
C15 C16 1.380 . S
C15 H33 0.930 . S
C16 C15 1.380 . S
C16 C23 1.357 . S
C17 C8 1.511 . S
C17 C18 1.341 . S
C17 C19 1.371 . S
C18 C17 1.341 . S
C18 C22 1.394 . S
C18 H34 0.930 . S
C19 C17 1.371 . S
C19 C20 1.392 . S
C19 H35 0.931 . S
C20 C19 1.392 . S
C20 C21 1.331 . S
C20 H38 0.932 . S
C21 C20 1.331 . S
C21 C22 1.336 . S
C22 C18 1.394 . S
C22 C21 1.336 . S
C22 H37 0.929 . S
C23 C13 1.386 . S
C23 C16 1.357 . S
C23 H36 0.928 . S
H24 C0 0.931 . S
H25 C2 0.930 . S
H26 C4 0.929 . S
H27 C5 0.931 . S
H28 C7 0.930 . S
H29 C11 0.931 . S
H30 C9 0.931 . S
H31 C13 0.931 . S
H32 C14 0.929 . S
H33 C15 0.930 . S
H34 C18 0.930 . S
H35 C19 0.931 . S
H36 C23 0.928 . S
H37 C22 0.929 . S
H38 C20 0.932 . S
C39 C40 1.386 . S
C39 C41 1.397 . S
C39 H63 0.931 . S
C40 C39 1.386 . S
C40 C44 1.397 1_655 S
C41 C39 1.397 . S
C41 C42 1.384 . S
C41 H64 0.930 . S
C42 C41 1.384 . S
C42 C43 1.377 1_655 S
C42 C45 1.481 . S
C43 C42 1.377 1_455 S
C43 C44 1.389 . S
C43 H65 0.929 . S
C44 C40 1.397 1_455 S
C44 C43 1.389 . S
C44 H66 0.931 . S
C45 C42 1.481 . S
C45 C46 1.387 . S
C45 C50 1.390 . S
C46 C45 1.387 . S
C46 C47 1.401 . S
C46 H67 0.930 . S
C47 C46 1.401 . S
C47 C48 1.376 . S
C47 C56 1.511 . S
C48 C47 1.376 . S
C48 C49 1.392 . S
C48 H69 0.931 . S
C49 C48 1.392 . S
C49 C50 1.361 . S
C49 C51 1.500 . S
C50 C45 1.390 . S
C50 C49 1.361 . S
C50 H68 0.931 . S
C51 C49 1.500 . S
C51 C52 1.371 . S
C51 C53 1.365 1_655 S
C52 C51 1.371 . S
C52 C62 1.386 . S
C52 H70 0.931 . S
C53 C51 1.365 1_455 S
C53 C54 1.409 . S
C53 H71 0.929 . S
C54 C53 1.409 . S
C54 C55 1.380 1_455 S
C54 H72 0.930 . S
C55 C54 1.380 1_655 S
C55 C62 1.357 . S
C56 C47 1.511 . S
C56 C57 1.341 . S
C56 C58 1.371 . S
C57 C56 1.341 . S
C57 C61 1.394 . S
C57 H73 0.930 . S
C58 C56 1.371 . S
C58 C59 1.388 . S
C58 H74 0.931 1_655 S
C59 C58 1.388 . S
C59 C60 1.354 . S
C59 H77 0.916 1_655 S
C60 C59 1.354 . S
C60 C61 1.336 . S
C61 C57 1.394 . S
C61 C60 1.336 . S
C61 H76 0.929 . S
C62 C52 1.386 . S
C62 C55 1.357 . S
C62 H75 0.928 . S
H63 C39 0.931 . S
H64 C41 0.930 . S
H65 C43 0.929 . S
H66 C44 0.931 . S
H67 C46 0.930 . S
H68 C50 0.931 . S
H69 C48 0.931 . S
H70 C52 0.931 . S
H71 C53 0.929 . S
H72 C54 0.930 . S
H73 C57 0.930 . S
H74 C58 0.931 1_455 S
H75 C62 0.928 . S
H76 C61 0.929 . S
H77 C59 0.916 1_455 S
C78 C79 1.393 . S
C78 C80 1.397 . S
C78 H102 0.931 . S
C79 C78 1.393 . S
C79 C83 1.389 1_565 S
C80 C78 1.397 . S
C80 C81 1.388 . S
C80 H103 0.930 . S
C81 C80 1.388 . S
C81 C82 1.373 1_565 S
C81 C84 1.482 . S
C82 C81 1.373 1_545 S
C82 C83 1.389 . S
C82 H104 0.929 . S
C83 C79 1.389 1_545 S
C83 C82 1.389 . S
C83 H105 0.931 . S
C84 C81 1.482 . S
C84 C85 1.385 . S
C84 C89 1.391 . S
C85 C84 1.385 . S
C85 C86 1.404 . S
C85 H106 0.930 . S
C86 C85 1.404 . S
C86 C87 1.375 . S
C86 C95 1.509 . S
C87 C86 1.375 . S
C87 C88 1.396 . S
C87 H108 0.932 . S
C88 C87 1.396 . S
C88 C89 1.361 . S
C88 C90 1.501 1_565 S
C89 C84 1.391 . S
C89 C88 1.361 . S
C89 H107 0.932 . S
C90 C88 1.501 1_545 S
C90 C91 1.363 1_545 S
C90 C92 1.373 . S
C91 C90 1.363 1_565 S
C91 C101 1.386 . S
C91 H109 0.931 . S
C92 C90 1.373 . S
C92 C93 1.409 . S
C92 H110 0.929 . S
C93 C92 1.409 . S
C93 C94 1.379 . S
C93 H111 0.930 . S
C94 C93 1.379 . S
C94 C101 1.358 1_545 S
C95 C86 1.509 . S
C95 C96 1.341 . S
C95 C97 1.371 1_565 S
C96 C95 1.341 . S
C96 C100 1.394 . S
C96 H112 0.930 . S
C97 C95 1.371 1_545 S
C97 C98 1.392 . S
C97 H113 0.931 . S
C98 C97 1.392 . S
C98 C99 1.324 1_545 S
C98 H116 0.932 . S
C99 C98 1.324 1_565 S
C99 C100 1.347 . S
C100 C96 1.394 . S
C100 C99 1.347 . S
C100 H115 0.929 . S
C101 C91 1.386 . S
C101 C94 1.358 1_565 S
C101 H114 0.928 . S
H102 C78 0.931 . S
H103 C80 0.930 . S
H104 C82 0.929 . S
H105 C83 0.931 . S
H106 C85 0.930 . S
H107 C89 0.932 . S
H108 C87 0.932 . S
H109 C91 0.931 . S
H110 C92 0.929 . S
H111 C93 0.930 . S
H112 C96 0.930 . S
H113 C97 0.931 . S
H114 C101 0.928 . S
H115 C100 0.929 . S
H116 C98 0.932 . S
C117 C118 1.386 . S
C117 C119 1.397 . S
C117 H141 0.931 . S
C118 C117 1.386 . S
C118 C122 1.397 . S
C119 C117 1.397 . S
C119 C120 1.384 . S
C119 H142 0.930 . S
C120 C119 1.384 . S
C120 C121 1.377 . S
C120 C123 1.481 . S
C121 C120 1.377 . S
C121 C122 1.389 . S
C121 H143 0.929 . S
C122 C118 1.397 . S
C122 C121 1.389 . S
C122 H144 0.931 . S
C123 C120 1.481 . S
C123 C124 1.387 . S
C123 C128 1.390 . S
C124 C123 1.387 . S
C124 C125 1.401 . S
C124 H145 0.930 . S
C125 C124 1.401 . S
C125 C126 1.376 . S
C125 C134 1.511 . S
C126 C125 1.376 . S
C126 C127 1.392 . S
C126 H147 0.931 . S
C127 C126 1.392 . S
C127 C128 1.361 . S
C127 C129 1.500 . S
C128 C123 1.390 . S
C128 C127 1.361 . S
C128 H146 0.931 . S
C129 C127 1.500 . S
C129 C130 1.371 1_554 S
C129 C131 1.365 . S
C130 C129 1.371 1_556 S
C130 C140 1.386 . S
C130 H148 0.931 . S
C131 C129 1.365 . S
C131 C132 1.409 1_554 S
C131 H149 0.929 . S
C132 C131 1.409 1_556 S
C132 C133 1.380 . S
C132 H150 0.930 . S
C133 C132 1.380 . S
C133 C140 1.357 . S
C134 C125 1.511 . S
C134 C135 1.341 . S
C134 C136 1.371 . S
C135 C134 1.341 . S
C135 C139 1.394 . S
C135 H151 0.930 . S
C136 C134 1.371 . S
C136 C137 1.392 . S
C136 H152 0.931 1_554 S
C137 C136 1.392 . S
C137 C138 1.331 . S
C137 H155 0.932 1_554 S
C138 C137 1.331 . S
C138 C139 1.336 . S
C139 C135 1.394 . S
C139 C138 1.336 . S
C139 H154 0.929 . S
C140 C130 1.386 . S
C140 C133 1.357 . S
C140 H153 0.928 . S
H141 C117 0.931 . S
H142 C119 0.930 . S
H143 C121 0.929 . S
H144 C122 0.931 . S
H145 C124 0.930 . S
H146 C128 0.931 . S
H147 C126 0.931 . S
H148 C130 0.931 . S
H149 C131 0.929 . S
H150 C132 0.930 . S
H151 C135 0.930 . S
H152 C136 0.931 1_556 S
H153 C140 0.928 . S
H154 C139 0.929 . S
H155 C137 0.932 1_556 S
C156 C157 1.386 . S
C156 C158 1.397 . S
C156 H180 0.931 . S
C157 C156 1.386 . S
C157 C161 1.397 . S
C158 C156 1.397 . S
C158 C159 1.384 . S
C158 H181 0.930 . S
C159 C158 1.384 . S
C159 C160 1.377 . S
C159 C162 1.481 . S
C160 C159 1.377 . S
C160 C161 1.389 . S
C160 H182 0.929 . S
C161 C157 1.397 . S
C161 C160 1.389 . S
C161 H183 0.931 . S
C162 C159 1.481 . S
C162 C163 1.387 . S
C162 C167 1.390 1_554 S
C163 C162 1.387 . S
C163 C164 1.401 . S
C163 H184 0.930 . S
C164 C163 1.401 . S
C164 C165 1.376 1_554 S
C164 C173 1.511 . S
C165 C164 1.376 1_556 S
C165 C166 1.392 . S
C165 H186 0.931 . S
C166 C165 1.392 . S
C166 C167 1.361 . S
C166 C168 1.500 . S
C167 C162 1.390 1_556 S
C167 C166 1.361 . S
C167 H185 0.931 . S
C168 C166 1.500 . S
C168 C169 1.371 . S
C168 C170 1.365 . S
C169 C168 1.371 . S
C169 C179 1.386 . S
C169 H187 0.931 . S
C170 C168 1.365 . S
C170 C171 1.409 . S
C170 H188 0.929 . S
C171 C170 1.409 . S
C171 C172 1.380 . S
C171 H189 0.930 . S
C172 C171 1.380 . S
C172 C179 1.357 . S
C173 C164 1.511 . S
C173 C174 1.341 . S
C173 C175 1.371 1_554 S
C174 C173 1.341 . S
C174 C178 1.394 . S
C174 H190 0.930 . S
C175 C173 1.371 1_556 S
C175 C176 1.392 . S
C175 H191 0.931 . S
C176 C175 1.392 . S
C176 C177 1.331 1_556 S
C176 H194 0.932 . S
C177 C176 1.331 1_554 S
C177 C178 1.336 . S
C178 C174 1.394 . S
C178 C177 1.336 . S
C178 H193 0.929 . S
C179 C169 1.386 . S
C179 C172 1.357 . S
C179 H192 0.928 . S
H180 C156 0.931 . S
H181 C158 0.930 . S
H182 C160 0.929 . S
H183 C161 0.931 . S
H184 C163 0.930 . S
H185 C167 0.931 . S
H186 C165 0.931 . S
H187 C169 0.931 . S
H188 C170 0.929 . S
H189 C171 0.930 . S
H190 C174 0.930 . S
H191 C175 0.931 . S
H192 C179 0.928 . S
H193 C178 0.929 . S
H194 C176 0.932 . S
C195 C196 1.386 1_655 S
C195 C197 1.397 . S
C195 H219 0.931 . S
C196 C195 1.386 1_455 S
C196 C200 1.397 . S
C197 C195 1.397 . S
C197 C198 1.384 1_655 S
C197 H220 0.930 . S
C198 C197 1.384 1_455 S
C198 C199 1.377 . S
C198 C201 1.481 . S
C199 C198 1.377 . S
C199 C200 1.389 . S
C199 H221 0.929 . S
C200 C196 1.397 . S
C200 C199 1.389 . S
C200 H222 0.931 . S
C201 C198 1.481 . S
C201 C202 1.387 . S
C201 C206 1.390 . S
C202 C201 1.387 . S
C202 C203 1.401 . S
C202 H223 0.930 . S
C203 C202 1.401 . S
C203 C204 1.376 . S
C203 C212 1.511 . S
C204 C203 1.376 . S
C204 C205 1.392 . S
C204 H225 0.931 . S
C205 C204 1.392 . S
C205 C206 1.361 . S
C205 C207 1.500 1_554 S
C206 C201 1.390 . S
C206 C205 1.361 . S
C206 H224 0.931 . S
C207 C205 1.500 1_556 S
C207 C208 1.371 . S
C207 C209 1.365 . S
C208 C207 1.371 . S
C208 C218 1.386 . S
C208 H226 0.931 1_455 S
C209 C207 1.365 . S
C209 C210 1.409 . S
C209 H227 0.929 . S
C210 C209 1.409 . S
C210 C211 1.380 . S
C210 H228 0.930 . S
C211 C210 1.380 . S
C211 C218 1.357 . S
C212 C203 1.511 . S
C212 C213 1.341 . S
C212 C214 1.371 . S
C213 C212 1.341 . S
C213 C217 1.394 . S
C213 H229 0.931 . S
C214 C212 1.371 . S
C214 C215 1.392 . S
C214 H230 0.931 . S
C215 C214 1.392 . S
C215 C216 1.331 . S
C215 H233 0.932 . S
C216 C215 1.331 . S
C216 C217 1.336 . S
C217 C213 1.394 . S
C217 C216 1.336 . S
C217 H232 0.929 . S
C218 C208 1.386 . S
C218 C211 1.357 . S
C218 H231 0.928 1_455 S
H219 C195 0.931 . S
H220 C197 0.930 . S
H221 C199 0.929 . S
H222 C200 0.931 . S
H223 C202 0.930 . S
H224 C206 0.931 . S
H225 C204 0.931 . S
H226 C208 0.931 1_655 S
H227 C209 0.929 . S
H228 C210 0.930 . S
H229 C213 0.931 . S
H230 C214 0.931 . S
H231 C218 0.928 1_655 S
H232 C217 0.929 . S
H233 C215 0.932 . S
C234 C235 1.388 . S
C234 C236 1.397 . S
C234 H258 0.931 . S
C235 C234 1.388 . S
C235 C239 1.395 1_565 S
C236 C234 1.397 . S
C236 C237 1.382 . S
C236 H259 0.930 . S
C237 C236 1.382 . S
C237 C238 1.380 1_565 S
C237 C240 1.479 . S
C238 C237 1.380 1_545 S
C238 C239 1.389 . S
C238 H260 0.929 . S
C239 C235 1.395 1_545 S
C239 C238 1.389 . S
C239 H261 0.931 . S
C240 C237 1.479 . S
C240 C241 1.390 . S
C240 C245 1.389 . S
C241 C240 1.390 . S
C241 C242 1.401 . S
C241 H262 0.930 . S
C242 C241 1.401 . S
C242 C243 1.377 . S
C242 C251 1.514 . S
C243 C242 1.377 . S
C243 C244 1.388 1_565 S
C243 H264 0.935 . S
C244 C243 1.388 1_545 S
C244 C245 1.361 1_545 S
C244 C246 1.497 . S
C245 C240 1.389 . S
C245 C244 1.361 1_565 S
C245 H263 0.930 . S
C246 C244 1.497 . S
C246 C247 1.356 1_545 S
C246 C248 1.383 . S
C247 C246 1.356 1_565 S
C247 C257 1.386 1_554 S
C247 H265 0.931 . S
C248 C246 1.383 . S
C248 C249 1.409 1_554 S
C248 H266 0.929 . S
C249 C248 1.409 1_556 S
C249 C250 1.385 . S
C249 H267 0.930 . S
C250 C249 1.385 . S
C250 C257 1.352 1_545 S
C251 C242 1.514 . S
C251 C252 1.341 . S
C251 C253 1.371 1_565 S
C252 C251 1.341 . S
C252 C256 1.394 . S
C252 H268 0.930 . S
C253 C251 1.371 1_545 S
C253 C254 1.392 . S
C253 H269 0.931 . S
C254 C253 1.392 . S
C254 C255 1.324 1_545 S
C254 H272 0.932 . S
C255 C254 1.324 1_565 S
C255 C256 1.341 . S
C256 C252 1.394 . S
C256 C255 1.341 . S
C256 H271 0.929 . S
C257 C247 1.386 1_556 S
C257 C250 1.352 1_565 S
C257 H270 0.928 . S
H258 C234 0.931 . S
H259 C236 0.930 . S
H260 C238 0.929 . S
H261 C239 0.931 . S
H262 C241 0.930 . S
H263 C245 0.930 . S
H264 C243 0.935 . S
H265 C247 0.931 . S
H266 C248 0.929 . S
H267 C249 0.930 . S
H268 C252 0.930 . S
H269 C253 0.931 . S
H270 C257 0.928 . S
H271 C256 0.929 . S
H272 C254 0.932 . S
C273 C274 1.386 . S
C273 C275 1.397 . S
C273 H297 0.931 . S
C274 C273 1.386 . S
C274 C278 1.397 . S
C275 C273 1.397 . S
C275 C276 1.384 . S
C275 H298 0.930 . S
C276 C275 1.384 . S
C276 C277 1.377 . S
C276 C279 1.481 . S
C277 C276 1.377 . S
C277 C278 1.389 . S
C277 H299 0.929 . S
C278 C274 1.397 . S
C278 C277 1.389 . S
C278 H300 0.931 . S
C279 C276 1.481 . S
C279 C280 1.387 . S
C279 C284 1.390 . S
C280 C279 1.387 . S
C280 C281 1.401 . S
C280 H301 0.930 . S
C281 C280 1.401 . S
C281 C282 1.376 . S
C281 C290 1.511 . S
C282 C281 1.376 . S
C282 C283 1.392 . S
C282 H303 0.931 . S
C283 C282 1.392 . S
C283 C284 1.361 . S
C283 C285 1.500 . S
C284 C279 1.390 . S
C284 C283 1.361 . S
C284 H302 0.931 . S
C285 C283 1.500 . S
C285 C286 1.371 . S
C285 C287 1.365 . S
C286 C285 1.371 . S
C286 C296 1.386 . S
C286 H304 0.931 . S
C287 C285 1.365 . S
C287 C288 1.409 . S
C287 H305 0.929 . S
C288 C287 1.409 . S
C288 C289 1.380 . S
C288 H306 0.930 . S
C289 C288 1.380 . S
C289 C296 1.357 . S
C290 C281 1.511 . S
C290 C291 1.341 . S
C290 C292 1.371 . S
C291 C290 1.341 . S
C291 C295 1.394 . S
C291 H307 0.930 . S
C292 C290 1.371 . S
C292 C293 1.392 . S
C292 H308 0.931 . S
C293 C292 1.392 . S
C293 C294 1.331 . S
C293 H311 0.932 . S
C294 C293 1.331 . S
C294 C295 1.336 . S
C295 C291 1.394 . S
C295 C294 1.336 . S
C295 H310 0.929 . S
C296 C286 1.386 . S
C296 C289 1.357 . S
C296 H309 0.928 . S
H297 C273 0.931 . S
H298 C275 0.930 . S
H299 C277 0.929 . S
H300 C278 0.931 . S
H301 C280 0.930 . S
H302 C284 0.931 . S
H303 C282 0.931 . S
H304 C286 0.931 . S
H305 C287 0.929 . S
H306 C288 0.930 . S
H307 C291 0.930 . S
H308 C292 0.931 . S
H309 C296 0.928 . S
H310 C295 0.929 . S
H311 C293 0.932 . S
Dy312 O315 2.307 1_545 S
Dy312 O317 2.395 1_655 S
Dy312 O318 2.379 . S
Dy312 O320 2.339 . S
Dy312 O322 2.298 . S
Dy312 O326 2.275 1_655 S
Dy312 C334 2.738 . S
Dy313 O316 2.298 . S
Dy313 O319 2.275 1_455 S
Dy313 O321 2.307 1_565 S
Dy313 O323 2.396 . S
Dy313 O324 2.379 . S
Dy313 O327 2.339 . S
Dy313 C343 2.738 . S
C314 O326 1.254 1_565 S
C314 O327 1.257 . S
O315 Dy312 2.307 1_565 S
O315 C325 1.266 . S
O316 Dy313 2.298 . S
O316 C325 1.236 1_455 S
O317 Dy312 2.395 1_455 S
O317 C334 1.255 1_455 S
O318 Dy312 2.379 . S
O318 C334 1.249 . S
O319 Dy313 2.275 1_655 S
O319 C335 1.254 1_565 S
O320 Dy312 2.339 . S
O320 C335 1.257 . S
O321 Dy313 2.307 1_545 S
O321 C336 1.266 . S
O322 Dy312 2.298 . S
O322 C336 1.236 1_655 S
O323 Dy313 2.396 . S
O323 C343 1.257 . S
O324 Dy313 2.379 . S
O324 C343 1.249 . S
C325 O315 1.266 . S
C325 O316 1.236 1_655 S
O326 Dy312 2.275 1_455 S
O326 C314 1.254 1_545 S
O327 Dy313 2.339 . S
O327 C314 1.257 . S
C328 C331 1.344 1_655 S
C328 C332 1.328 . S
C328 C334 1.516 . S
C329 C330 1.304 1_655 S
C329 C333 1.323 . S
C330 C329 1.304 1_455 S
C330 C331 1.371 . S
C330 H344 0.930 . S
C331 C328 1.344 1_455 S
C331 C330 1.371 . S
C331 H345 0.931 . S
C332 C328 1.328 . S
C332 C333 1.433 . S
C332 H346 0.931 . S
C333 C329 1.323 . S
C333 C332 1.433 . S
C333 H347 0.933 . S
C334 Dy312 2.738 . S
C334 O317 1.255 1_655 S
C334 O318 1.249 . S
C334 C328 1.516 . S
C335 O319 1.254 1_545 S
C335 O320 1.257 . S
C336 O321 1.266 . S
C336 O322 1.236 1_455 S
C337 C340 1.344 . S
C337 C341 1.328 . S
C337 C343 1.516 . S
C338 C339 1.304 . S
C338 C342 1.323 . S
C339 C338 1.304 . S
C339 C340 1.371 . S
C339 H348 0.930 1_455 S
C340 C337 1.344 . S
C340 C339 1.371 . S
C340 H349 0.931 1_455 S
C341 C337 1.328 . S
C341 C342 1.433 . S
C341 H350 0.931 . S
C342 C338 1.323 . S
C342 C341 1.433 . S
C342 H351 0.933 . S
C343 Dy313 2.738 . S
C343 O323 1.257 . S
C343 O324 1.249 . S
C343 C337 1.516 . S
H344 C330 0.930 . S
H345 C331 0.931 . S
H346 C332 0.931 . S
H347 C333 0.933 . S
H348 C339 0.930 1_655 S
H349 C340 0.931 1_655 S
H350 C341 0.931 . S
H351 C342 0.933 . S
Dy352 O355 2.307 . S
Dy352 O357 2.395 1_565 S
Dy352 O358 2.379 . S
Dy352 O360 2.339 . S
Dy352 O362 2.298 . S
Dy352 O366 2.275 1_565 S
Dy352 C374 2.738 . S
Dy353 O356 2.298 . S
Dy353 O359 2.275 1_545 S
Dy353 O361 2.307 . S
Dy353 O363 2.395 1_545 S
Dy353 O364 2.379 . S
Dy353 O367 2.339 . S
Dy353 C383 2.738 . S
C354 O366 1.254 . S
C354 O367 1.257 . S
O355 Dy352 2.307 . S
O355 C365 1.266 . S
O356 Dy353 2.298 . S
O356 C365 1.236 1_545 S
O357 Dy352 2.395 1_545 S
O357 C374 1.255 1_545 S
O358 Dy352 2.379 . S
O358 C374 1.249 . S
O359 Dy353 2.275 1_565 S
O359 C375 1.254 . S
O360 Dy352 2.339 . S
O360 C375 1.257 . S
O361 Dy353 2.307 . S
O361 C376 1.266 . S
O362 Dy352 2.298 . S
O362 C376 1.236 1_565 S
O363 Dy353 2.395 1_565 S
O363 C383 1.255 1_565 S
O364 Dy353 2.379 . S
O364 C383 1.249 . S
C365 O355 1.266 . S
C365 O356 1.236 1_565 S
O366 Dy352 2.275 1_545 S
O366 C354 1.254 . S
O367 Dy353 2.339 . S
O367 C354 1.257 . S
C368 C371 1.327 1_565 S
C368 C372 1.328 . S
C368 C374 1.516 . S
C369 C370 1.304 . S
C369 C373 1.323 . S
C370 C369 1.304 . S
C370 C371 1.368 1_565 S
C370 H384 0.930 1_565 S
C371 C368 1.327 1_545 S
C371 C370 1.368 1_545 S
C371 H385 0.952 . S
C372 C368 1.328 . S
C372 C373 1.433 . S
C372 H386 0.931 . S
C373 C369 1.323 . S
C373 C372 1.433 . S
C373 H387 0.933 . S
C374 Dy352 2.738 . S
C374 O357 1.255 1_565 S
C374 O358 1.249 . S
C374 C368 1.516 . S
C375 O359 1.254 . S
C375 O360 1.257 . S
C376 O361 1.266 . S
C376 O362 1.236 1_545 S
C377 C380 1.335 1_545 S
C377 C381 1.328 . S
C377 C383 1.516 . S
C378 C379 1.304 . S
C378 C382 1.323 . S
C379 C378 1.304 . S
C379 C380 1.369 1_545 S
C379 H388 0.930 1_545 S
C380 C377 1.335 1_565 S
C380 C379 1.369 1_565 S
C380 H389 0.942 . S
C381 C377 1.328 . S
C381 C382 1.433 . S
C381 H390 0.931 . S
C382 C378 1.323 . S
C382 C381 1.433 . S
C382 H391 0.933 . S
C383 Dy353 2.738 . S
C383 O363 1.255 1_545 S
C383 O364 1.249 . S
C383 C377 1.516 . S
H384 C370 0.930 1_545 S
H385 C371 0.952 . S
H386 C372 0.931 . S
H387 C373 0.933 . S
H388 C379 0.930 1_565 S
H389 C380 0.942 . S
H390 C381 0.931 . S
H391 C382 0.933 . S
Dy392 O395 2.307 . S
Dy392 O397 2.395 . S
Dy392 O398 2.379 . S
Dy392 O400 2.339 . S
Dy392 O402 2.298 . S
Dy392 O406 2.275 . S
Dy392 C414 2.738 . S
Dy393 O396 2.298 . S
Dy393 O399 2.275 . S
Dy393 O401 2.307 . S
Dy393 O403 2.395 . S
Dy393 O404 2.379 . S
Dy393 O407 2.339 . S
Dy393 C423 2.738 . S
C394 O406 1.254 . S
C394 O407 1.257 . S
O395 Dy392 2.307 . S
O395 C405 1.266 . S
O396 Dy393 2.298 . S
O396 C405 1.236 . S
O397 Dy392 2.395 . S
O397 C414 1.255 . S
O398 Dy392 2.379 . S
O398 C414 1.249 . S
O399 Dy393 2.275 . S
O399 C415 1.254 . S
O400 Dy392 2.339 . S
O400 C415 1.257 . S
O401 Dy393 2.307 . S
O401 C416 1.266 . S
O402 Dy392 2.298 . S
O402 C416 1.236 . S
O403 Dy393 2.395 . S
O403 C423 1.255 . S
O404 Dy393 2.379 . S
O404 C423 1.249 . S
C405 O395 1.266 . S
C405 O396 1.236 . S
O406 Dy392 2.275 . S
O406 C394 1.254 . S
O407 Dy393 2.339 . S
O407 C394 1.257 . S
C408 C411 1.344 . S
C408 C412 1.328 . S
C408 C414 1.516 . S
C409 C410 1.304 . S
C409 C413 1.323 . S
C410 C409 1.304 . S
C410 C411 1.371 . S
C410 H424 0.930 . S
C411 C408 1.344 . S
C411 C410 1.371 . S
C411 H425 0.931 . S
C412 C408 1.328 . S
C412 C413 1.433 . S
C412 H426 0.931 . S
C413 C409 1.323 . S
C413 C412 1.433 . S
C413 H427 0.933 . S
C414 Dy392 2.738 . S
C414 O397 1.255 . S
C414 O398 1.249 . S
C414 C408 1.516 . S
C415 O399 1.254 . S
C415 O400 1.257 . S
C416 O401 1.266 . S
C416 O402 1.236 . S
C417 C420 1.344 . S
C417 C421 1.328 . S
C417 C423 1.516 . S
C418 C419 1.304 . S
C418 C422 1.323 . S
C419 C418 1.304 . S
C419 C420 1.371 . S
C419 H428 0.930 . S
C420 C417 1.344 . S
C420 C419 1.371 . S
C420 H429 0.931 . S
C421 C417 1.328 . S
C421 C422 1.433 . S
C421 H430 0.931 . S
C422 C418 1.323 . S
C422 C421 1.433 . S
C422 H431 0.933 . S
C423 Dy393 2.738 . S
C423 O403 1.255 . S
C423 O404 1.249 . S
C423 C417 1.516 . S
H424 C410 0.930 . S
H425 C411 0.931 . S
H426 C412 0.931 . S
H427 C413 0.933 . S
H428 C419 0.930 . S
H429 C420 0.931 . S
H430 C421 0.931 . S
H431 C422 0.933 . S
Dy432 O435 2.307 1_455 S
Dy432 O437 2.395 . S
Dy432 O438 2.379 . S
Dy432 O440 2.339 . S
Dy432 O442 2.298 . S
Dy432 O446 2.275 . S
Dy432 C454 2.738 . S
Dy433 O436 2.298 . S
Dy433 O439 2.275 . S
Dy433 O441 2.307 1_655 S
Dy433 O443 2.395 . S
Dy433 O444 2.379 . S
Dy433 O447 2.339 . S
Dy433 C463 2.738 . S
C434 O446 1.254 . S
C434 O447 1.257 1_455 S
O435 Dy432 2.307 1_655 S
O435 C445 1.266 . S
O436 Dy433 2.298 . S
O436 C445 1.236 . S
O437 Dy432 2.395 . S
O437 C454 1.255 . S
O438 Dy432 2.379 . S
O438 C454 1.249 . S
O439 Dy433 2.275 . S
O439 C455 1.254 1_655 S
O440 Dy432 2.339 . S
O440 C455 1.257 . S
O441 Dy433 2.307 1_455 S
O441 C456 1.266 . S
O442 Dy432 2.298 . S
O442 C456 1.236 . S
O443 Dy433 2.395 . S
O443 C463 1.255 . S
O444 Dy433 2.379 . S
O444 C463 1.249 . S
C445 O435 1.266 . S
C445 O436 1.236 . S
O446 Dy432 2.275 . S
O446 C434 1.254 . S
O447 Dy433 2.339 . S
O447 C434 1.257 1_655 S
C448 C451 1.344 . S
C448 C452 1.328 . S
C448 C454 1.516 . S
C449 C450 1.304 . S
C449 C453 1.323 . S
C450 C449 1.304 . S
C450 C451 1.371 . S
C450 H464 0.930 . S
C451 C448 1.344 . S
C451 C450 1.371 . S
C451 H465 0.931 . S
C452 C448 1.328 . S
C452 C453 1.433 . S
C452 H466 0.931 . S
C453 C449 1.323 . S
C453 C452 1.433 . S
C453 H467 0.933 . S
C454 Dy432 2.738 . S
C454 O437 1.255 . S
C454 O438 1.249 . S
C454 C448 1.516 . S
C455 O439 1.254 1_455 S
C455 O440 1.257 . S
C456 O441 1.266 . S
C456 O442 1.236 . S
C457 C460 1.344 . S
C457 C461 1.328 . S
C457 C463 1.516 . S
C458 C459 1.304 1_554 S
C458 C462 1.323 1_554 S
C459 C458 1.304 1_556 S
C459 C460 1.371 . S
C459 H468 0.930 1_556 S
C460 C457 1.344 . S
C460 C459 1.371 . S
C460 H469 0.931 . S
C461 C457 1.328 . S
C461 C462 1.433 . S
C461 H470 0.931 . S
C462 C458 1.323 1_556 S
C462 C461 1.433 . S
C462 H471 0.933 . S
C463 Dy433 2.738 . S
C463 O443 1.255 . S
C463 O444 1.249 . S
C463 C457 1.516 . S
H464 C450 0.930 . S
H465 C451 0.931 . S
H466 C452 0.931 . S
H467 C453 0.933 . S
H468 C459 0.930 1_554 S
H469 C460 0.931 . S
H470 C461 0.931 . S
H471 C462 0.933 . S
H472 C478 0.930 . S
H473 C482 0.930 . S
H474 C487 0.929 . S
H475 C485 0.929 . S
H476 C480 0.929 . S
H477 C486 0.929 . S
C478 H472 0.930 . S
C478 C479 1.377 . S
C478 C486 1.378 . S
C479 C478 1.377 . S
C479 C487 1.424 1_565 S
C480 H476 0.929 . S
C480 C482 1.378 . S
C480 C484 1.350 . S
C481 C484 1.463 1_565 S
C481 C486 1.363 . S
C481 N489 1.413 1_565 S
C482 H473 0.930 . S
C482 C480 1.378 . S
C482 C483 1.367 . S
C483 C482 1.367 . S
C483 C485 1.433 1_545 S
C484 C480 1.350 . S
C484 C481 1.463 1_545 S
C484 N488 1.427 1_545 S
C485 H475 0.929 . S
C485 C483 1.433 1_565 S
C485 N488 1.384 . S
C486 H477 0.929 . S
C486 C478 1.378 . S
C486 C481 1.363 . S
C487 H474 0.929 . S
C487 C479 1.424 1_545 S
C487 N489 1.384 . S
N488 C484 1.427 1_565 S
N488 C485 1.384 . S
N489 C481 1.413 1_545 S
N489 C487 1.384 . S
H490 C496 0.930 . S
H491 C500 0.930 . S
H492 C505 0.929 . S
H493 C503 0.929 . S
H494 C498 0.929 . S
H495 C504 0.929 . S
C496 H490 0.930 . S
C496 C497 1.367 . S
C496 C504 1.378 . S
C497 C496 1.367 . S
C497 C505 1.433 . S
C498 H494 0.929 . S
C498 C500 1.378 . S
C498 C502 1.350 . S
C499 C502 1.463 . S
C499 C504 1.350 . S
C499 N507 1.427 . S
C500 H491 0.930 . S
C500 C498 1.378 . S
C500 C501 1.367 . S
C501 C500 1.367 . S
C501 C503 1.433 . S
C502 C498 1.350 . S
C502 C499 1.463 . S
C502 N506 1.427 . S
C503 H493 0.929 . S
C503 C501 1.433 . S
C503 N506 1.384 . S
C504 H495 0.929 . S
C504 C496 1.378 . S
C504 C499 1.350 . S
C505 H492 0.929 . S
C505 C497 1.433 . S
C505 N507 1.384 . S
N506 C502 1.427 . S
N506 C503 1.384 . S
N507 C499 1.427 . S
N507 C505 1.384 . S
H508 C514 0.930 . S
H509 C518 0.930 . S
H510 C523 0.929 . S
H511 C521 0.929 . S
H512 C516 0.929 . S
H513 C522 0.929 . S
C514 H508 0.930 . S
C514 C515 1.367 . S
C514 C522 1.378 . S
C515 C514 1.367 . S
C515 C523 1.433 . S
C516 H512 0.929 . S
C516 C518 1.378 . S
C516 C520 1.350 . S
C517 C520 1.463 . S
C517 C522 1.350 . S
C517 N525 1.427 . S
C518 H509 0.930 . S
C518 C516 1.378 . S
C518 C519 1.367 . S
C519 C518 1.367 . S
C519 C521 1.433 . S
C520 C516 1.350 . S
C520 C517 1.463 . S
C520 N524 1.427 . S
C521 H511 0.929 . S
C521 C519 1.433 . S
C521 N524 1.384 . S
C522 H513 0.929 . S
C522 C514 1.378 . S
C522 C517 1.350 . S
C523 H510 0.929 . S
C523 C515 1.433 . S
C523 N525 1.384 . S
N524 C520 1.427 . S
N524 C521 1.384 . S
N525 C517 1.427 . S
N525 C523 1.384 . S
H526 C532 0.930 . S
H527 C536 0.930 . S
H528 C541 0.910 1_655 S
H529 C539 0.929 . S
H530 C534 0.929 . S
H531 C540 0.929 . S
C532 H526 0.930 . S
C532 C533 1.367 . S
C532 C540 1.378 . S
C533 C532 1.367 . S
C533 C541 1.449 . S
C534 H530 0.929 . S
C534 C536 1.378 . S
C534 C538 1.350 1_655 S
C535 C538 1.463 . S
C535 C540 1.350 . S
C535 N543 1.425 . S
C536 H527 0.930 . S
C536 C534 1.378 . S
C536 C537 1.367 1_655 S
C537 C536 1.367 1_455 S
C537 C539 1.433 . S
C538 C534 1.350 1_455 S
C538 C535 1.463 . S
C538 N542 1.427 . S
C539 H529 0.929 . S
C539 C537 1.433 . S
C539 N542 1.384 . S
C540 H531 0.929 . S
C540 C532 1.378 . S
C540 C535 1.350 . S
C541 H528 0.910 1_455 S
C541 C533 1.449 . S
C541 N543 1.391 . S
N542 C538 1.427 . S
N542 C539 1.384 . S
N543 C535 1.425 . S
N543 C541 1.391 . S
H544 C550 0.930 . S
H545 C554 0.930 . S
H546 C559 0.929 . S
H547 C557 0.929 . S
H548 C552 0.929 1_554 S
H549 C558 0.929 1_556 S
C550 H544 0.930 . S
C550 C551 1.372 . S
C550 C558 1.378 . S
C551 C550 1.372 . S
C551 C559 1.427 1_565 S
C552 H548 0.929 1_556 S
C552 C554 1.378 . S
C552 C556 1.356 . S
C553 C556 1.459 1_564 S
C553 C558 1.365 . S
C553 N561 1.414 1_565 S
C554 H545 0.930 . S
C554 C552 1.378 . S
C554 C555 1.364 . S
C555 C554 1.364 . S
C555 C557 1.437 1_545 S
C556 C552 1.356 . S
C556 C553 1.459 1_546 S
C556 N560 1.422 1_545 S
C557 H547 0.929 . S
C557 C555 1.437 1_565 S
C557 N560 1.384 . S
C558 H549 0.929 1_554 S
C558 C550 1.378 . S
C558 C553 1.365 . S
C559 H546 0.929 . S
C559 C551 1.427 1_545 S
C559 N561 1.384 . S
N560 C556 1.422 1_565 S
N560 C557 1.384 . S
N561 C553 1.414 1_545 S
N561 C559 1.384 . S
H562 C568 0.930 . S
H563 C572 0.930 . S
H564 C577 0.925 1_554 S
H565 C575 0.929 . S
H566 C570 0.929 . S
H567 C576 0.929 . S
C568 H562 0.930 . S
C568 C569 1.367 1_556 S
C568 C576 1.378 . S
C569 C568 1.367 1_554 S
C569 C577 1.430 1_554 S
C570 H566 0.929 . S
C570 C572 1.378 . S
C570 C574 1.350 . S
C571 C574 1.463 . S
C571 C576 1.350 . S
C571 N579 1.427 . S
C572 H563 0.930 . S
C572 C570 1.378 . S
C572 C573 1.367 . S
C573 C572 1.367 . S
C573 C575 1.433 . S
C574 C570 1.350 . S
C574 C571 1.463 . S
C574 N578 1.427 . S
C575 H565 0.929 . S
C575 C573 1.433 . S
C575 N578 1.384 . S
C576 H567 0.929 . S
C576 C568 1.378 . S
C576 C571 1.350 . S
C577 H564 0.925 1_556 S
C577 C569 1.430 1_556 S
C577 N579 1.391 . S
N578 C574 1.427 . S
N578 C575 1.384 . S
N579 C571 1.427 . S
N579 C577 1.391 . S
H580 C586 0.930 . S
H581 C590 0.930 . S
H582 C595 0.929 . S
H583 C593 0.929 . S
H584 C588 0.929 . S
H585 C594 0.929 . S
C586 H580 0.930 . S
C586 C587 1.367 . S
C586 C594 1.378 . S
C587 C586 1.367 . S
C587 C595 1.433 . S
C588 H584 0.929 . S
C588 C590 1.378 . S
C588 C592 1.350 . S
C589 C592 1.463 . S
C589 C594 1.350 . S
C589 N597 1.427 . S
C590 H581 0.930 . S
C590 C588 1.378 . S
C590 C591 1.367 . S
C591 C590 1.367 . S
C591 C593 1.433 . S
C592 C588 1.350 . S
C592 C589 1.463 . S
C592 N596 1.427 . S
C593 H583 0.929 . S
C593 C591 1.433 . S
C593 N596 1.384 . S
C594 H585 0.929 . S
C594 C586 1.378 . S
C594 C589 1.350 . S
C595 H582 0.929 . S
C595 C587 1.433 . S
C595 N597 1.384 . S
N596 C592 1.427 . S
N596 C593 1.384 . S
N597 C589 1.427 . S
N597 C595 1.384 . S
H598 C604 0.930 . S
H599 C608 0.930 . S
H600 C613 0.929 . S
H601 C611 0.929 . S
H602 C606 0.929 1_554 S
H603 C612 0.929 . S
C604 H598 0.930 . S
C604 C605 1.367 1_455 S
C604 C612 1.378 . S
C605 C604 1.367 1_655 S
C605 C613 1.433 . S
C606 H602 0.929 1_556 S
C606 C608 1.378 . S
C606 C610 1.350 1_556 S
C607 C610 1.463 . S
C607 C612 1.350 1_655 S
C607 N615 1.427 . S
C608 H599 0.930 . S
C608 C606 1.378 . S
C608 C609 1.367 . S
C609 C608 1.367 . S
C609 C611 1.433 1_655 S
C610 C606 1.350 1_554 S
C610 C607 1.463 . S
C610 N614 1.427 1_654 S
C611 H601 0.929 . S
C611 C609 1.433 1_455 S
C611 N614 1.384 . S
C612 H603 0.929 . S
C612 C604 1.378 . S
C612 C607 1.350 1_455 S
C613 H600 0.929 . S
C613 C605 1.433 . S
C613 N615 1.384 . S
N614 C610 1.427 1_456 S
N614 C611 1.384 . S
N615 C607 1.427 . S
N615 C613 1.384 . S
H616 C622 0.930 . S
H617 C626 0.930 . S
H618 C631 0.917 1_655 S
H619 C629 0.929 . S
H620 C624 0.929 . S
H621 C630 0.929 . S
C622 H616 0.930 . S
C622 C623 1.367 . S
C622 C630 1.378 . S
C623 C622 1.367 . S
C623 C631 1.455 . S
C624 H620 0.929 . S
C624 C626 1.378 . S
C624 C628 1.350 . S
C625 C628 1.463 1_455 S
C625 C630 1.350 . S
C625 N633 1.427 1_455 S
C626 H617 0.930 . S
C626 C624 1.378 . S
C626 C627 1.367 . S
C627 C626 1.367 . S
C627 C629 1.433 . S
C628 C624 1.350 . S
C628 C625 1.463 1_655 S
C628 N632 1.407 1_655 S
C629 H619 0.929 . S
C629 C627 1.433 . S
C629 N632 1.370 1_655 S
C630 H621 0.929 . S
C630 C622 1.378 . S
C630 C625 1.350 . S
C631 H618 0.917 1_455 S
C631 C623 1.455 . S
C631 N633 1.375 1_455 S
N632 C628 1.407 1_455 S
N632 C629 1.370 1_455 S
N633 C625 1.427 1_655 S
N633 C631 1.375 1_655 S
H634 C640 0.930 . S
H635 C644 0.930 . S
H636 C649 0.929 . S
H637 C647 0.940 . S
H638 C642 0.929 . S
H639 C648 0.929 . S
C640 H634 0.930 . S
C640 C641 1.367 . S
C640 C648 1.378 . S
C641 C640 1.367 . S
C641 C649 1.433 1_545 S
C642 H638 0.929 . S
C642 C644 1.378 . S
C642 C646 1.350 . S
C643 C646 1.463 . S
C643 C648 1.350 1_565 S
C643 N651 1.427 . S
C644 H635 0.930 . S
C644 C642 1.378 . S
C644 C645 1.367 . S
C645 C644 1.367 . S
C645 C647 1.433 . S
C646 C642 1.350 . S
C646 C643 1.463 . S
C646 N650 1.427 . S
C647 H637 0.940 . S
C647 C645 1.433 . S
C647 N650 1.384 . S
C648 H639 0.929 . S
C648 C640 1.378 . S
C648 C643 1.350 1_545 S
C649 H636 0.929 . S
C649 C641 1.433 1_565 S
C649 N651 1.384 . S
N650 C646 1.427 . S
N650 C647 1.384 . S
N651 C643 1.427 . S
N651 C649 1.384 . S
H652 C658 0.930 . S
H653 C662 0.930 . S
H654 C667 0.929 . S
H655 C665 0.929 . S
H656 C660 0.929 . S
H657 C666 0.929 . S
C658 H652 0.930 . S
C658 C659 1.367 . S
C658 C666 1.378 . S
C659 C658 1.367 . S
C659 C667 1.433 . S
C660 H656 0.929 . S
C660 C662 1.378 . S
C660 C664 1.350 . S
C661 C664 1.463 . S
C661 C666 1.350 . S
C661 N669 1.427 . S
C662 H653 0.930 . S
C662 C660 1.378 . S
C662 C663 1.367 . S
C663 C662 1.367 . S
C663 C665 1.433 . S
C664 C660 1.350 . S
C664 C661 1.463 . S
C664 N668 1.427 . S
C665 H655 0.929 . S
C665 C663 1.433 . S
C665 N668 1.384 . S
C666 H657 0.929 . S
C666 C658 1.378 . S
C666 C661 1.350 . S
C667 H654 0.929 . S
C667 C659 1.433 . S
C667 N669 1.384 . S
N668 C664 1.427 . S
N668 C665 1.384 . S
N669 C661 1.427 . S
N669 C667 1.384 . S
H670 C676 0.930 . S
H671 C680 0.930 . S
H672 C685 0.929 . S
H673 C683 0.929 . S
H674 C678 0.929 . S
H675 C684 0.929 . S
C676 H670 0.930 . S
C676 C677 1.367 . S
C676 C684 1.378 . S
C677 C676 1.367 . S
C677 C685 1.433 . S
C678 H674 0.929 . S
C678 C680 1.378 . S
C678 C682 1.350 . S
C679 C682 1.463 . S
C679 C684 1.350 . S
C679 N687 1.427 . S
C680 H671 0.930 . S
C680 C678 1.378 . S
C680 C681 1.367 . S
C681 C680 1.367 . S
C681 C683 1.433 . S
C682 C678 1.350 . S
C682 C679 1.463 . S
C682 N686 1.427 . S
C683 H673 0.929 . S
C683 C681 1.433 . S
C683 N686 1.384 . S
C684 H675 0.929 . S
C684 C676 1.378 . S
C684 C679 1.350 . S
C685 H672 0.929 . S
C685 C677 1.433 . S
C685 N687 1.384 . S
N686 C682 1.427 . S
N686 C683 1.384 . S
N687 C679 1.427 . S
N687 C685 1.384 . S
H688 C694 0.930 . S
H689 C698 0.930 . S
H690 C703 0.929 . S
H691 C701 0.929 . S
H692 C696 0.929 1_655 S
H693 C702 0.929 . S
C694 H688 0.930 . S
C694 C695 1.367 1_455 S
C694 C702 1.378 . S
C695 C694 1.367 1_655 S
C695 C703 1.433 . S
C696 H692 0.929 1_455 S
C696 C698 1.378 . S
C696 C700 1.350 1_556 S
C697 C700 1.463 . S
C697 C702 1.350 . S
C697 N705 1.427 1_455 S
C698 H689 0.930 . S
C698 C696 1.378 . S
C698 C699 1.367 . S
C699 C698 1.367 . S
C699 C701 1.433 1_556 S
C700 C696 1.350 1_554 S
C700 C697 1.463 . S
C700 N704 1.427 . S
C701 H691 0.929 . S
C701 C699 1.433 1_554 S
C701 N704 1.384 . S
C702 H693 0.929 . S
C702 C694 1.378 . S
C702 C697 1.350 . S
C703 H690 0.929 . S
C703 C695 1.433 . S
C703 N705 1.384 . S
N704 C700 1.427 . S
N704 C701 1.384 . S
N705 C697 1.427 1_655 S
N705 C703 1.384 . S
H706 C712 0.930 . S
H707 C716 0.930 1_565 S
H708 C721 0.929 . S
H709 C719 0.929 . S
H710 C714 0.923 1_565 S
H711 C720 0.929 . S
C712 H706 0.930 . S
C712 C713 1.356 1_545 S
C712 C720 1.378 . S
C713 C712 1.356 1_565 S
C713 C721 1.442 . S
C714 H710 0.923 1_545 S
C714 C716 1.379 . S
C714 C718 1.354 . S
C715 C718 1.463 1_554 S
C715 C720 1.350 . S
C715 N723 1.427 1_544 S
C716 H707 0.930 1_545 S
C716 C714 1.379 . S
C716 C717 1.367 . S
C717 C716 1.367 . S
C717 C719 1.433 1_556 S
C718 C714 1.354 . S
C718 C715 1.463 1_556 S
C718 N722 1.427 1_556 S
C719 H709 0.929 . S
C719 C717 1.433 1_554 S
C719 N722 1.384 . S
C720 H711 0.929 . S
C720 C712 1.378 . S
C720 C715 1.350 . S
C721 H708 0.929 . S
C721 C713 1.442 . S
C721 N723 1.384 1_554 S
N722 C718 1.427 1_554 S
N722 C719 1.384 . S
N723 C715 1.427 1_566 S
N723 C721 1.384 1_556 S
H724 C730 0.930 . S
H725 C734 0.930 . S
H726 C739 0.929 . S
H727 C737 0.929 . S
H728 C732 0.929 . S
H729 C738 0.929 . S
C730 H724 0.930 . S
C730 C731 1.367 . S
C730 C738 1.378 . S
C731 C730 1.367 . S
C731 C739 1.433 . S
C732 H728 0.929 . S
C732 C734 1.378 . S
C732 C736 1.350 . S
C733 C736 1.463 . S
C733 C738 1.350 . S
C733 N741 1.427 . S
C734 H725 0.930 . S
C734 C732 1.378 . S
C734 C735 1.367 . S
C735 C734 1.367 . S
C735 C737 1.433 . S
C736 C732 1.350 . S
C736 C733 1.463 . S
C736 N740 1.427 . S
C737 H727 0.929 . S
C737 C735 1.433 . S
C737 N740 1.384 . S
C738 H729 0.929 . S
C738 C730 1.378 . S
C738 C733 1.350 . S
C739 H726 0.929 . S
C739 C731 1.433 . S
C739 N741 1.384 . S
N740 C736 1.427 . S
N740 C737 1.384 . S
N741 C733 1.427 . S
N741 C739 1.384 . S
H742 C748 0.930 . S
H743 C752 0.930 . S
H744 C757 0.929 . S
H745 C755 0.929 . S
H746 C750 0.929 . S
H747 C756 0.929 . S
C748 H742 0.930 . S
C748 C749 1.367 . S
C748 C756 1.378 . S
C749 C748 1.367 . S
C749 C757 1.433 . S
C750 H746 0.929 . S
C750 C752 1.378 . S
C750 C754 1.350 . S
C751 C754 1.463 . S
C751 C756 1.350 . S
C751 N759 1.427 . S
C752 H743 0.930 . S
C752 C750 1.378 . S
C752 C753 1.367 . S
C753 C752 1.367 . S
C753 C755 1.433 1_554 S
C754 C750 1.350 . S
C754 C751 1.463 . S
C754 N758 1.427 . S
C755 H745 0.929 . S
C755 C753 1.433 1_556 S
C755 N758 1.384 1_556 S
C756 H747 0.929 . S
C756 C748 1.378 . S
C756 C751 1.350 . S
C757 H744 0.929 . S
C757 C749 1.433 . S
C757 N759 1.384 . S
N758 C754 1.427 . S
N758 C755 1.384 1_554 S
N759 C751 1.427 . S
N759 C757 1.384 . S
H760 C766 0.930 . S
H761 C770 0.930 . S
H762 C775 0.929 . S
H763 C773 0.929 . S
H764 C768 0.929 . S
H765 C774 0.929 . S
C766 H760 0.930 . S
C766 C767 1.367 1_655 S
C766 C774 1.378 . S
C767 C766 1.367 1_455 S
C767 C775 1.433 . S
C768 H764 0.929 . S
C768 C770 1.378 . S
C768 C772 1.350 . S
C769 C772 1.463 . S
C769 C774 1.350 1_455 S
C769 N777 1.427 . S
C770 H761 0.930 . S
C770 C768 1.378 . S
C770 C771 1.367 . S
C771 C770 1.367 . S
C771 C773 1.433 1_455 S
C772 C768 1.350 . S
C772 C769 1.463 . S
C772 N776 1.427 1_455 S
C773 H763 0.929 . S
C773 C771 1.433 1_655 S
C773 N776 1.384 . S
C774 H765 0.929 . S
C774 C766 1.378 . S
C774 C769 1.350 1_655 S
C775 H762 0.929 . S
C775 C767 1.433 . S
C775 N777 1.384 . S
N776 C772 1.427 1_655 S
N776 C773 1.384 . S
N777 C769 1.427 . S
N777 C775 1.384 . S
H778 C784 0.922 1_565 S
H779 C788 0.930 . S
H780 C793 0.929 . S
H781 C791 0.929 . S
H782 C786 0.929 . S
H783 C792 0.929 . S
C784 H778 0.922 1_545 S
C784 C785 1.367 . S
C784 C792 1.382 . S
C785 C784 1.367 . S
C785 C793 1.433 . S
C786 H782 0.929 . S
C786 C788 1.378 . S
C786 C790 1.350 . S
C787 C790 1.463 . S
C787 C792 1.350 . S
C787 N795 1.427 . S
C788 H779 0.930 . S
C788 C786 1.378 . S
C788 C789 1.367 . S
C789 C788 1.367 . S
C789 C791 1.433 . S
C790 C786 1.350 . S
C790 C787 1.463 . S
C790 N794 1.427 . S
C791 H781 0.929 . S
C791 C789 1.433 . S
C791 N794 1.384 . S
C792 H783 0.929 . S
C792 C784 1.382 . S
C792 C787 1.350 . S
C793 H780 0.929 . S
C793 C785 1.433 . S
C793 N795 1.384 . S
N794 C790 1.427 . S
N794 C791 1.384 . S
N795 C787 1.427 . S
N795 C793 1.384 . S
H796 C802 0.930 . S
H797 C806 0.930 . S
H798 C811 0.929 . S
H799 C809 0.929 . S
H800 C804 0.929 1_554 S
H801 C810 0.929 . S
C802 H796 0.930 . S
C802 C803 1.367 1_556 S
C802 C810 1.378 . S
C803 C802 1.367 1_554 S
C803 C811 1.433 . S
C804 H800 0.929 1_556 S
C804 C806 1.378 . S
C804 C808 1.350 . S
C805 C808 1.463 . S
C805 C810 1.350 . S
C805 N813 1.427 1_556 S
C806 H797 0.930 . S
C806 C804 1.378 . S
C806 C807 1.367 . S
C807 C806 1.367 . S
C807 C809 1.433 . S
C808 C804 1.350 . S
C808 C805 1.463 . S
C808 N812 1.427 . S
C809 H799 0.929 . S
C809 C807 1.433 . S
C809 N812 1.384 . S
C810 H801 0.929 . S
C810 C802 1.378 . S
C810 C805 1.350 . S
C811 H798 0.929 . S
C811 C803 1.433 . S
C811 N813 1.384 . S
N812 C808 1.427 . S
N812 C809 1.384 . S
N813 C805 1.427 1_554 S
N813 C811 1.384 . S
H814 C820 0.930 . S
H815 C824 0.930 . S
H816 C829 0.929 . S
H817 C827 0.929 . S
H818 C822 0.929 . S
H819 C828 0.929 . S
C820 H814 0.930 . S
C820 C821 1.367 . S
C820 C828 1.378 . S
C821 C820 1.367 . S
C821 C829 1.433 . S
C822 H818 0.929 . S
C822 C824 1.378 . S
C822 C826 1.350 . S
C823 C826 1.463 . S
C823 C828 1.350 . S
C823 N831 1.427 . S
C824 H815 0.930 . S
C824 C822 1.378 . S
C824 C825 1.367 . S
C825 C824 1.367 . S
C825 C827 1.433 . S
C826 C822 1.350 . S
C826 C823 1.463 . S
C826 N830 1.427 . S
C827 H817 0.929 . S
C827 C825 1.433 . S
C827 N830 1.384 . S
C828 H819 0.929 . S
C828 C820 1.378 . S
C828 C823 1.350 . S
C829 H816 0.929 . S
C829 C821 1.433 . S
C829 N831 1.384 . S
N830 C826 1.427 . S
N830 C827 1.384 . S
N831 C823 1.427 . S
N831 C829 1.384 . S
H832 C838 0.930 . S
H833 C842 0.930 . S
H834 C847 0.929 . S
H835 C845 0.929 . S
H836 C840 0.929 . S
H837 C846 0.929 . S
C838 H832 0.930 . S
C838 C839 1.367 1_455 S
C838 C846 1.378 . S
C839 C838 1.367 1_655 S
C839 C847 1.433 . S
C840 H836 0.929 . S
C840 C842 1.378 . S
C840 C844 1.350 . S
C841 C844 1.463 . S
C841 C846 1.350 1_655 S
C841 N849 1.427 . S
C842 H833 0.930 . S
C842 C840 1.378 . S
C842 C843 1.367 . S
C843 C842 1.367 . S
C843 C845 1.433 1_655 S
C844 C840 1.350 . S
C844 C841 1.463 . S
C844 N848 1.427 1_655 S
C845 H835 0.929 . S
C845 C843 1.433 1_455 S
C845 N848 1.384 . S
C846 H837 0.929 . S
C846 C838 1.378 . S
C846 C841 1.350 1_455 S
C847 H834 0.929 . S
C847 C839 1.433 . S
C847 N849 1.384 . S
N848 C844 1.427 1_455 S
N848 C845 1.384 . S
N849 C841 1.427 . S
N849 C847 1.384 . S
H850 C856 0.930 . S
H851 C860 0.930 . S
H852 C865 0.929 . S
H853 C863 0.929 . S
H854 C858 0.929 . S
H855 C864 0.929 . S
C856 H850 0.930 . S
C856 C857 1.367 . S
C856 C864 1.378 . S
C857 C856 1.367 . S
C857 C865 1.433 . S
C858 H854 0.929 . S
C858 C860 1.378 . S
C858 C862 1.350 . S
C859 C862 1.463 . S
C859 C864 1.350 . S
C859 N867 1.427 . S
C860 H851 0.930 . S
C860 C858 1.378 . S
C860 C861 1.367 . S
C861 C860 1.367 . S
C861 C863 1.433 . S
C862 C858 1.350 . S
C862 C859 1.463 . S
C862 N866 1.427 . S
C863 H853 0.929 . S
C863 C861 1.433 . S
C863 N866 1.384 . S
C864 H855 0.929 . S
C864 C856 1.378 . S
C864 C859 1.350 . S
C865 H852 0.929 . S
C865 C857 1.433 . S
C865 N867 1.384 . S
N866 C862 1.427 . S
N866 C863 1.384 . S
N867 C859 1.427 . S
N867 C865 1.384 . S
H868 C874 0.930 . S
H869 C878 0.930 . S
H870 C883 0.929 . S
H871 C881 0.929 . S
H872 C876 0.929 . S
H873 C882 0.929 . S
C874 H868 0.930 . S
C874 C875 1.367 . S
C874 C882 1.378 . S
C875 C874 1.367 . S
C875 C883 1.433 . S
C876 H872 0.929 . S
C876 C878 1.378 . S
C876 C880 1.350 . S
C877 C880 1.463 . S
C877 C882 1.350 . S
C877 N885 1.427 . S
C878 H869 0.930 . S
C878 C876 1.378 . S
C878 C879 1.367 . S
C879 C878 1.367 . S
C879 C881 1.433 . S
C880 C876 1.350 . S
C880 C877 1.463 . S
C880 N884 1.427 . S
C881 H871 0.929 . S
C881 C879 1.433 . S
C881 N884 1.384 . S
C882 H873 0.929 . S
C882 C874 1.378 . S
C882 C877 1.350 . S
C883 H870 0.929 . S
C883 C875 1.433 . S
C883 N885 1.384 . S
N884 C880 1.427 . S
N884 C881 1.384 . S
N885 C877 1.427 . S
N885 C883 1.384 . S
H886 C892 0.930 . S
H887 C896 0.930 . S
H888 C901 0.929 . S
H889 C899 0.929 . S
H890 C894 0.929 . S
H891 C900 0.929 . S
C892 H886 0.930 . S
C892 C893 1.367 . S
C892 C900 1.378 . S
C893 C892 1.367 . S
C893 C901 1.433 . S
C894 H890 0.929 . S
C894 C896 1.378 . S
C894 C898 1.350 . S
C895 C898 1.463 . S
C895 C900 1.350 . S
C895 N903 1.427 . S
C896 H887 0.930 . S
C896 C894 1.378 . S
C896 C897 1.367 . S
C897 C896 1.367 . S
C897 C899 1.433 . S
C898 C894 1.350 . S
C898 C895 1.463 . S
C898 N902 1.427 . S
C899 H889 0.929 . S
C899 C897 1.433 . S
C899 N902 1.384 . S
C900 H891 0.929 . S
C900 C892 1.378 . S
C900 C895 1.350 . S
C901 H888 0.929 . S
C901 C893 1.433 . S
C901 N903 1.384 . S
N902 C898 1.427 . S
N902 C899 1.384 . S
N903 C895 1.427 . S
N903 C901 1.384 . S
C479 C255 2.053 . S
C483 C314 2.148 1_545 S
C501 C354 2.162 . S
C497 C294 2.094 . S
C519 C418 2.518 . S
C515 C177 2.423 . S
C537 C434 2.189 . S
C533 C216 1.980 . S
C555 C335 2.141 . S
C551 C99 2.047 . S
C569 C138 2.086 . S
C573 C375 2.164 . S
C587 C21 2.432 . S
C591 C409 2.516 1_554 S
C605 C60 1.984 . S
C609 C455 2.194 1_655 S
C627 C329 0.425 . S
C623 C196 0.344 . S
C645 C369 0.576 . S
C641 C235 0.570 1_545 S
C663 C405 0.527 . S
C659 C289 0.506 . S
C677 C157 0.646 . S
C681 C449 0.669 . S
C695 C40 0.284 . S
C699 C338 0.393 . S
C717 C378 0.543 . S
C713 C79 0.538 . S
C735 C416 0.511 . S
C731 C133 0.481 . S
C749 C1 0.663 . S
C753 C458 0.688 . S
C767 C211 2.604 . S
C771 C336 2.944 . S
C785 C250 2.434 . S
C789 C376 2.730 . S
C807 C394 1.978 . S
C803 C274 1.934 . S
C825 C456 3.359 . S
C821 C172 2.963 . S
C839 C55 2.615 . S
C843 C325 2.955 . S
C861 C365 2.734 . S
C857 C94 2.447 1_565 S
C879 C415 1.973 . S
C875 C118 1.925 . S
C893 C16 2.966 . S
C897 C445 3.360 . S
