# Generated by pormake.
# Topology pyr, (3,6)-cn, num edge types: 1
# Building blocks:
#     Node 0, Type 0, BuildingBlock: BELTOD_clean_linker_0, # of connection points: 3
#     Node 1, Type 0, BuildingBlock: BELTOD_clean_linker_0, # of connection points: 3
#     Node 2, Type 0, BuildingBlock: BELTOD_clean_linker_0, # of connection points: 3
#     Node 3, Type 0, BuildingBlock: BELTOD_clean_linker_0, # of connection points: 3
#     Node 4, Type 0, BuildingBlock: BELTOD_clean_linker_0, # of connection points: 3
#     Node 5, Type 0, BuildingBlock: BELTOD_clean_linker_0, # of connection points: 3
#     Node 6, Type 0, BuildingBlock: BELTOD_clean_linker_0, # of connection points: 3
#     Node 7, Type 0, BuildingBlock: BELTOD_clean_linker_0, # of connection points: 3
#     Node 8, Type 1, BuildingBlock: BETDAH_clean_sbu_0, # of connection points: 6
#     Node 9, Type 1, BuildingBlock: BETDAH_clean_sbu_0, # of connection points: 6
#     Node 10, Type 1, BuildingBlock: BETDAH_clean_sbu_0, # of connection points: 6
#     Node 11, Type 1, BuildingBlock: BETDAH_clean_sbu_0, # of connection points: 6
#     Edge 12, Type (0, 1), BuildingBlock: MIFKUJ_clean_linker_0, # of connection points: 2
#     Edge 13, Type (0, 1), BuildingBlock: MIFKUJ_clean_linker_0, # of connection points: 2
#     Edge 14, Type (0, 1), BuildingBlock: MIFKUJ_clean_linker_0, # of connection points: 2
#     Edge 15, Type (0, 1), BuildingBlock: MIFKUJ_clean_linker_0, # of connection points: 2
#     Edge 16, Type (0, 1), BuildingBlock: MIFKUJ_clean_linker_0, # of connection points: 2
#     Edge 17, Type (0, 1), BuildingBlock: MIFKUJ_clean_linker_0, # of connection points: 2
#     Edge 18, Type (0, 1), BuildingBlock: MIFKUJ_clean_linker_0, # of connection points: 2
#     Edge 19, Type (0, 1), BuildingBlock: MIFKUJ_clean_linker_0, # of connection points: 2
#     Edge 20, Type (0, 1), BuildingBlock: MIFKUJ_clean_linker_0, # of connection points: 2
#     Edge 21, Type (0, 1), BuildingBlock: MIFKUJ_clean_linker_0, # of connection points: 2
#     Edge 22, Type (0, 1), BuildingBlock: MIFKUJ_clean_linker_0, # of connection points: 2
#     Edge 23, Type (0, 1), BuildingBlock: MIFKUJ_clean_linker_0, # of connection points: 2
#     Edge 24, Type (0, 1), BuildingBlock: MIFKUJ_clean_linker_0, # of connection points: 2
#     Edge 25, Type (0, 1), BuildingBlock: MIFKUJ_clean_linker_0, # of connection points: 2
#     Edge 26, Type (0, 1), BuildingBlock: MIFKUJ_clean_linker_0, # of connection points: 2
#     Edge 27, Type (0, 1), BuildingBlock: MIFKUJ_clean_linker_0, # of connection points: 2
#     Edge 28, Type (0, 1), BuildingBlock: MIFKUJ_clean_linker_0, # of connection points: 2
#     Edge 29, Type (0, 1), BuildingBlock: MIFKUJ_clean_linker_0, # of connection points: 2
#     Edge 30, Type (0, 1), BuildingBlock: MIFKUJ_clean_linker_0, # of connection points: 2
#     Edge 31, Type (0, 1), BuildingBlock: MIFKUJ_clean_linker_0, # of connection points: 2
#     Edge 32, Type (0, 1), BuildingBlock: MIFKUJ_clean_linker_0, # of connection points: 2
#     Edge 33, Type (0, 1), BuildingBlock: MIFKUJ_clean_linker_0, # of connection points: 2
#     Edge 34, Type (0, 1), BuildingBlock: MIFKUJ_clean_linker_0, # of connection points: 2
#     Edge 35, Type (0, 1), BuildingBlock: MIFKUJ_clean_linker_0, # of connection points: 2
# Relax obj value: 0.077
# Max RMSD: 0.122
# Mean RMSD: 0.056
data_MOF--net-pyr--node1-BETDAH_clean_sbu_0--node2-BELTOD_clean_linker_0--edge1-MIFKUJ_clean_linker_0
_symmetry_space_group_name_H-M    P1
_symmetry_Int_Tables_number       1
_symmetry_cell_setting            triclinic
loop_
_symmetry_equiv_pos_as_xyz
'x, y, z'
_cell_length_a     54.36849
_cell_length_b     57.243754
_cell_length_c     51.726739
_cell_angle_alpha  90.790048
_cell_angle_beta   88.765231
_cell_angle_gamma 99.612424
loop_
_atom_site_label
_atom_site_type_symbol
_atom_site_fract_x
_atom_site_fract_y
_atom_site_fract_z
_atom_type_partial_charge
P0 P 0.32735 0.29613 0.23436 0.0
H1 H 0.3555 0.29403 0.1854 0.0
H2 H 0.37552 0.26287 0.16517 0.0
H3 H 0.35655 0.21927 0.23249 0.0
H4 H 0.33628 0.25018 0.25242 0.0
H5 H 0.31527 0.34381 0.23488 0.0
H6 H 0.29076 0.36407 0.20626 0.0
H7 H 0.2828 0.30387 0.15389 0.0
H8 H 0.30637 0.28342 0.18315 0.0
H9 H 0.32064 0.29246 0.29084 0.0
H10 H 0.27978 0.26672 0.2228 0.0
O11 O 0.34748 0.31491 0.25173 0.0
H12 H 0.28749 0.27059 0.31817 0.0
H13 H 0.24633 0.24569 0.24977 0.0
C14 C 0.34354 0.27405 0.21997 0.0
C15 C 0.35545 0.27769 0.1957 0.0
C16 C 0.36691 0.25993 0.18418 0.0
C17 C 0.3673 0.23858 0.19716 0.0
C18 C 0.35649 0.23553 0.22205 0.0
C19 C 0.34473 0.25314 0.23335 0.0
C20 C 0.31322 0.31238 0.21084 0.0
C21 C 0.30869 0.3352 0.21696 0.0
C22 C 0.29469 0.34679 0.20052 0.0
C23 C 0.28481 0.33564 0.1777 0.0
C24 C 0.2899 0.31291 0.1714 0.0
C25 C 0.30374 0.30131 0.18795 0.0
C26 C 0.30246 0.28152 0.25482 0.0
C27 C 0.30438 0.28241 0.2818 0.0
C28 C 0.28538 0.26996 0.29739 0.0
C29 C 0.26424 0.25635 0.28617 0.0
C30 C 0.26247 0.25568 0.25908 0.0
C31 C 0.28148 0.26798 0.24359 0.0
P32 P 0.37128 0.94335 0.55596 0.0
H33 H 0.41504 0.95884 0.58756 0.0
H34 H 0.42042 0.96361 0.63433 0.0
H35 H 0.34106 0.94148 0.6463 0.0
H36 H 0.33583 0.93722 0.59971 0.0
H37 H 0.39721 0.92233 0.51355 0.0
H38 H 0.40196 0.88136 0.50333 0.0
H39 H 0.35838 0.85778 0.5718 0.0
H40 H 0.35337 0.89849 0.58155 0.0
H41 H 0.34672 0.98446 0.5613 0.0
H42 H 0.32843 0.9129 0.53186 0.0
O43 O 0.39263 0.96242 0.53996 0.0
H44 H 0.30413 0.99076 0.55327 0.0
H45 H 0.28587 0.91889 0.52433 0.0
C46 C 0.375 0.94824 0.59017 0.0
C47 C 0.3988 0.95534 0.60029 0.0
C48 C 0.40186 0.95784 0.62701 0.0
C49 C 0.38113 0.95306 0.64404 0.0
C50 C 0.35733 0.94579 0.63373 0.0
C51 C 0.35432 0.94332 0.60705 0.0
C52 C 0.37539 0.91346 0.54859 0.0
C53 C 0.38879 0.90832 0.52638 0.0
C54 C 0.39148 0.88494 0.52056 0.0
C55 C 0.38052 0.86636 0.53675 0.0
C56 C 0.36677 0.87164 0.55876 0.0
C57 C 0.36417 0.89497 0.56456 0.0
C58 C 0.34072 0.94825 0.54728 0.0
C59 C 0.33359 0.97019 0.55294 0.0
C60 C 0.30922 0.97367 0.54856 0.0
C61 C 0.2916 0.95525 0.53835 0.0
C62 C 0.29906 0.93348 0.53202 0.0
C63 C 0.32343 0.93001 0.53646 0.0
P64 P 0.66912 0.34302 0.83717 0.0
H65 H 0.7138 0.33075 0.85963 0.0
H66 H 0.74836 0.35293 0.88342 0.0
H67 H 0.7144 0.41585 0.87926 0.0
H68 H 0.67915 0.393 0.85612 0.0
H69 H 0.62026 0.31399 0.8272 0.0
H70 H 0.59593 0.28036 0.84968 0.0
H71 H 0.64936 0.28962 0.91124 0.0
H72 H 0.67237 0.324 0.88956 0.0
H73 H 0.68649 0.36712 0.78955 0.0
H74 H 0.61995 0.35994 0.83751 0.0
O75 O 0.68326 0.32586 0.81747 0.0
H76 H 0.667 0.38882 0.75773 0.0
H77 H 0.59997 0.38149 0.80535 0.0
C78 C 0.69391 0.36018 0.85587 0.0
C79 C 0.7137 0.34931 0.86388 0.0
C80 C 0.73366 0.36216 0.87736 0.0
C81 C 0.7346 0.38643 0.88305 0.0
C82 C 0.7144 0.39721 0.87542 0.0
C83 C 0.69422 0.38419 0.86202 0.0
C84 C 0.64793 0.32212 0.85682 0.0
C85 C 0.62622 0.30934 0.84602 0.0
C86 C 0.61255 0.28966 0.85875 0.0
C87 C 0.62061 0.28176 0.88237 0.0
C88 C 0.64208 0.29509 0.89341 0.0
C89 C 0.65547 0.31495 0.88084 0.0
C90 C 0.65457 0.36142 0.81573 0.0
C91 C 0.66762 0.37024 0.79327 0.0
C92 C 0.65633 0.38254 0.77492 0.0
C93 C 0.63165 0.38658 0.77857 0.0
C94 C 0.61896 0.3787 0.80177 0.0
C95 C 0.63033 0.36626 0.82018 0.0
P96 P 0.82912 0.69838 0.33317 0.0
H97 H 0.8508 0.74583 0.31631 0.0
H98 H 0.873 0.78063 0.33853 0.0
H99 H 0.87268 0.7398 0.40826 0.0
H100 H 0.85132 0.70469 0.38534 0.0
H101 H 0.84641 0.70691 0.28 0.0
H102 H 0.86849 0.68526 0.2489 0.0
H103 H 0.87486 0.63322 0.30702 0.0
H104 H 0.85315 0.6556 0.33846 0.0
H105 H 0.8036 0.70902 0.38123 0.0
H106 H 0.80472 0.64823 0.33142 0.0
O107 O 0.81033 0.71074 0.31442 0.0
H108 H 0.76963 0.68688 0.40674 0.0
H109 H 0.77087 0.62571 0.35719 0.0
C110 C 0.84874 0.72278 0.34932 0.0
C111 C 0.85569 0.74428 0.33633 0.0
C112 C 0.86823 0.7643 0.3492 0.0
C113 C 0.87417 0.76338 0.37551 0.0
C114 C 0.86844 0.74135 0.38807 0.0
C115 C 0.85604 0.72121 0.37502 0.0
C116 C 0.84742 0.68256 0.31142 0.0
C117 C 0.85252 0.69083 0.28615 0.0
C118 C 0.86508 0.67829 0.26824 0.0
C119 C 0.87307 0.65709 0.27511 0.0
C120 C 0.86898 0.6494 0.30091 0.0
C121 C 0.8564 0.6621 0.31892 0.0
C122 C 0.80779 0.68004 0.35506 0.0
C123 C 0.7973 0.69057 0.37636 0.0
C124 C 0.77762 0.67786 0.39093 0.0
C125 C 0.76747 0.65435 0.38426 0.0
C126 C 0.77809 0.64377 0.36294 0.0
C127 C 0.79784 0.65654 0.34839 0.0
P128 P 0.73666 0.81215 0.8548 0.0
H129 H 0.71562 0.80984 0.90686 0.0
H130 H 0.68058 0.82604 0.92632 0.0
H131 H 0.65901 0.84478 0.85042 0.0
H132 H 0.69364 0.82814 0.83113 0.0
H133 H 0.78354 0.7951 0.85526 0.0
H134 H 0.79539 0.75752 0.86696 0.0
H135 H 0.71819 0.72919 0.88469 0.0
H136 H 0.70644 0.76728 0.873 0.0
H137 H 0.74656 0.85341 0.82194 0.0
H138 H 0.73274 0.77747 0.81174 0.0
O139 O 0.75832 0.83295 0.86759 0.0
H140 H 0.7578 0.85819 0.77628 0.0
H141 H 0.7439 0.7821 0.76575 0.0
C142 C 0.70719 0.81773 0.8676 0.0
C143 C 0.70285 0.81675 0.89438 0.0
C144 C 0.68297 0.8262 0.90547 0.0
C145 C 0.66722 0.83694 0.88993 0.0
C146 C 0.67067 0.83646 0.86291 0.0
C147 C 0.69058 0.827 0.85184 0.0
C148 C 0.74425 0.78407 0.86382 0.0
C149 C 0.76915 0.78083 0.86173 0.0
C150 C 0.77585 0.75923 0.86813 0.0
C151 C 0.75769 0.74033 0.87661 0.0
C152 C 0.73259 0.74351 0.87837 0.0
C153 C 0.72587 0.76523 0.87178 0.0
C154 C 0.73944 0.81513 0.82028 0.0
C155 C 0.74542 0.83777 0.8097 0.0
C156 C 0.7516 0.84046 0.78349 0.0
C157 C 0.75186 0.82048 0.76739 0.0
C158 C 0.74409 0.79779 0.77774 0.0
C159 C 0.73776 0.79514 0.80401 0.0
P160 P 0.77325 0.24551 0.41658 0.0
H161 H 0.76342 0.28961 0.44078 0.0
H162 H 0.72908 0.29905 0.46767 0.0
H163 H 0.69561 0.22494 0.46786 0.0
H164 H 0.72928 0.21599 0.43958 0.0
H165 H 0.82454 0.24006 0.40473 0.0
H166 H 0.85356 0.21801 0.42549 0.0
H167 H 0.79779 0.19501 0.4846 0.0
H168 H 0.76909 0.21697 0.46403 0.0
H169 H 0.7543 0.25776 0.36727 0.0
H170 H 0.75895 0.19417 0.4093 0.0
O171 O 0.78905 0.27066 0.40455 0.0
H172 H 0.7307 0.23414 0.33361 0.0
H173 H 0.73459 0.17042 0.37622 0.0
C174 C 0.7488 0.25215 0.438 0.0
C175 C 0.74869 0.2754 0.44661 0.0
C176 C 0.72911 0.28071 0.46232 0.0
C177 C 0.70946 0.26275 0.4701 0.0
C178 C 0.71012 0.23931 0.46195 0.0
C179 C 0.72947 0.23413 0.44586 0.0
C180 C 0.79474 0.23038 0.43292 0.0
C181 C 0.81869 0.23047 0.42232 0.0
C182 C 0.83525 0.21794 0.4342 0.0
C183 C 0.82788 0.20484 0.45664 0.0
C184 C 0.80386 0.20482 0.4672 0.0
C185 C 0.78744 0.21749 0.45545 0.0
C186 C 0.75876 0.22767 0.39048 0.0
C187 C 0.75049 0.23866 0.36907 0.0
C188 C 0.73673 0.22514 0.35001 0.0
C189 C 0.73062 0.20036 0.35225 0.0
C190 C 0.73926 0.1894 0.37366 0.0
C191 C 0.75318 0.20297 0.39263 0.0
P192 P 0.36436 0.68734 0.19228 0.0
H193 H 0.34625 0.66238 0.14506 0.0
H194 H 0.30499 0.64572 0.12963 0.0
H195 H 0.27156 0.67167 0.1984 0.0
H196 H 0.31344 0.68836 0.214 0.0
H197 H 0.41201 0.71382 0.17402 0.0
H198 H 0.42529 0.7541 0.15917 0.0
H199 H 0.35228 0.77044 0.17869 0.0
H200 H 0.33882 0.72941 0.19266 0.0
H201 H 0.34044 0.64941 0.22679 0.0
H202 H 0.40103 0.7083 0.23052 0.0
O203 O 0.38331 0.67232 0.17554 0.0
H204 H 0.35303 0.63478 0.26779 0.0
H205 H 0.41372 0.69384 0.27163 0.0
C206 C 0.33309 0.67626 0.18099 0.0
C207 C 0.33016 0.66445 0.15701 0.0
C208 C 0.30645 0.65482 0.14818 0.0
C209 C 0.28489 0.65701 0.16291 0.0
C210 C 0.28776 0.66962 0.18657 0.0
C211 C 0.31167 0.67911 0.19556 0.0
C212 C 0.37428 0.71835 0.18419 0.0
C213 C 0.39879 0.72601 0.17519 0.0
C214 C 0.40647 0.74931 0.16685 0.0
C215 C 0.38995 0.76585 0.16757 0.0
C216 C 0.3655 0.75825 0.17735 0.0
C217 C 0.35777 0.73478 0.18559 0.0
C218 C 0.36926 0.68043 0.22577 0.0
C219 C 0.35591 0.65972 0.23686 0.0
C220 C 0.36326 0.65125 0.26036 0.0
C221 C 0.38451 0.66301 0.27314 0.0
C222 C 0.39743 0.68413 0.2623 0.0
C223 C 0.38995 0.69266 0.23889 0.0
P224 P 0.17464 0.34946 0.72903 0.0
H225 H 0.18637 0.30258 0.71811 0.0
H226 H 0.16601 0.26839 0.69367 0.0
H227 H 0.10747 0.30699 0.67352 0.0
H228 H 0.12832 0.34157 0.69818 0.0
H229 H 0.21905 0.38303 0.74255 0.0
H230 H 0.25341 0.40498 0.71738 0.0
H231 H 0.21916 0.37495 0.64703 0.0
H232 H 0.18399 0.35433 0.67246 0.0
H233 H 0.12586 0.33667 0.75519 0.0
H234 H 0.17965 0.4002 0.74329 0.0
O235 O 0.18961 0.33787 0.75221 0.0
H236 H 0.10327 0.35791 0.78682 0.0
H237 H 0.15762 0.42115 0.7752 0.0
C238 C 0.15856 0.32448 0.7106 0.0
C239 C 0.16902 0.30372 0.70869 0.0
C240 C 0.15728 0.28406 0.6947 0.0
C241 C 0.13482 0.28468 0.68192 0.0
C242 C 0.1247 0.30584 0.68316 0.0
C243 C 0.1365 0.32558 0.69738 0.0
C244 C 0.19879 0.3671 0.70949 0.0
C245 C 0.21871 0.3815 0.72166 0.0
C246 C 0.23863 0.39382 0.70715 0.0
C247 C 0.23952 0.39165 0.67998 0.0
C248 C 0.21921 0.37742 0.66781 0.0
C249 C 0.19902 0.36541 0.6824 0.0
C250 C 0.15435 0.36679 0.74637 0.0
C251 C 0.13246 0.35533 0.75875 0.0
C252 C 0.11963 0.36746 0.77701 0.0
C253 C 0.1288 0.39117 0.78377 0.0
C254 C 0.15023 0.40282 0.77069 0.0
C255 C 0.16278 0.3908 0.7522 0.0
Ho256 Ho 0.00898 0.03532 0.49978 0.0
Ho257 Ho 0.00962 1.0131 0.5525 0.0
C258 C 0.03586 0.06632 0.5482 0.0
C259 C 1.00684 0.0626 0.46077 0.0
C260 C 0.02519 0.08113 0.44869 0.0
C261 C 0.02276 0.08694 0.42277 0.0
C262 C 0.04114 0.10333 0.41059 0.0
C263 C 0.06222 0.11419 0.42421 0.0
C264 C 0.06435 0.10859 0.45034 0.0
C265 C 0.04605 0.09209 0.46245 0.0
C266 C 0.04775 1.01229 0.50758 0.0
C267 C 0.9816 0.98247 0.50448 0.0
C268 C 0.01094 0.9846 0.5903 0.0
C269 C 0.99068 0.96632 0.59965 0.0
C270 C 0.99545 0.9476 0.61484 0.0
C271 C 0.97569 0.93043 0.62354 0.0
C272 C 0.95088 0.93188 0.61723 0.0
C273 C 0.94641 0.9506 0.60164 0.0
C274 C 0.9661 0.9675 0.59279 0.0
C275 C 0.97161 0.03715 0.54543 0.0
O276 O 0.024 0.06638 0.52607 0.0
O277 O 0.03698 0.04623 0.56016 0.0
O278 O 0.0121 0.04122 0.45858 0.0
O279 O 0.99912 0.06728 0.48409 0.0
O280 O 0.03709 1.013 0.48559 0.0
O281 O 0.03875 1.02526 0.52369 0.0
O282 O 0.994 0.98223 0.52622 0.0
O283 O 0.98072 1.00263 0.49265 0.0
O284 O 1.00684 1.00633 0.59349 0.0
O285 O 0.01968 0.98077 0.56715 0.0
O286 O 0.98201 0.03556 0.56743 0.0
O287 O 0.98023 1.02404 0.52911 0.0
H288 H 1.00681 0.07855 0.41188 0.0
H289 H 0.03891 0.1075 0.3905 0.0
H290 H 0.0805 0.11646 0.46123 0.0
H291 H 0.04839 0.0876 0.48242 0.0
H292 H 0.01438 0.94629 0.62 0.0
H293 H 0.97984 0.91605 0.63517 0.0
H294 H 0.92763 0.95263 0.59675 0.0
H295 H 0.96209 0.98173 0.5808 0.0
Ho296 Ho 0.52277 0.03667 0.04691 0.0
Ho297 Ho 0.47297 1.01972 1.01618 0.0
C298 C 0.47125 0.05451 0.06565 0.0
C299 C 0.56141 0.06055 0.06889 0.0
C300 C 0.56932 0.0691 0.09488 0.0
C301 C 0.58031 0.09287 0.09817 0.0
C302 C 0.58934 0.10124 0.12221 0.0
C303 C 0.58767 0.08591 0.14341 0.0
C304 C 0.57622 0.06218 0.14023 0.0
C305 C 0.567 0.05385 0.11619 0.0
C306 C 0.49659 0.99384 0.06048 0.0
C307 C 0.52485 1.00454 0.99698 0.0
C308 C 0.43369 0.99451 0.99726 0.0
C309 C 0.42779 0.98739 0.97046 0.0
C310 C 0.40335 0.97789 0.96361 0.0
C311 C 0.39778 0.97216 0.93775 0.0
C312 C 0.41664 0.97585 0.91844 0.0
C313 C 0.44116 0.98521 0.92557 0.0
C314 C 0.44666 0.99096 0.95131 0.0
C315 C 0.50151 0.05812 0.99282 0.0
O316 O 0.49547 0.05518 0.069 0.0
O317 O 0.45837 0.04126 0.04772 0.0
O318 O 0.55848 0.03767 0.06465 0.0
O319 O 0.54407 0.07044 0.05845 0.0
O320 O 0.52061 0.99973 0.06197 0.0
O321 O 0.48734 1.01179 0.05422 0.0
O322 O 0.50038 0.99818 0.99928 0.0
O323 O 0.53718 1.02269 1.01001 0.0
O324 O 0.43549 1.01726 1.0021 0.0
O325 O 0.45185 0.98531 1.0072 0.0
O326 O 0.48039 0.04738 0.98408 0.0
O327 O 0.50574 0.04711 1.0126 0.0
H328 H 0.58234 0.1049 0.08197 0.0
H329 H 0.59834 0.11954 0.124 0.0
H330 H 0.5745 0.05005 0.1563 0.0
H331 H 0.55842 0.03544 0.11422 0.0
H332 H 0.38857 0.9751 0.97819 0.0
H333 H 0.37876 0.96483 0.93287 0.0
H334 H 0.45602 0.98866 0.91114 0.0
H335 H 0.46562 0.99852 0.95626 0.0
Ho336 Ho 0.50576 0.50773 0.51299 0.0
Ho337 Ho 0.4974 0.54571 0.54952 0.0
C338 C 0.52315 0.5054 0.57321 0.0
C339 C 0.52415 0.47595 0.48671 0.0
C340 C 0.53161 0.45348 0.49398 0.0
C341 C 0.55378 0.44757 0.48358 0.0
C342 C 0.56232 0.42732 0.49184 0.0
C343 C 0.54874 0.41259 0.51054 0.0
C344 C 0.5263 0.41828 0.52065 0.0
C345 C 0.51791 0.43874 0.51262 0.0
C346 C 0.46051 0.49996 0.5373 0.0
C347 C 0.48078 0.54826 0.48948 0.0
C348 C 0.47875 0.57725 0.57617 0.0
C349 C 0.46759 0.59819 0.56971 0.0
C350 C 0.44565 0.59608 0.5553 0.0
C351 C 0.43582 0.61623 0.54888 0.0
C352 C 0.44788 0.63882 0.5565 0.0
C353 C 0.46975 0.64092 0.5709 0.0
C354 C 0.47942 0.62077 0.57758 0.0
C355 C 0.54286 0.55314 0.52542 0.0
O356 O 0.52596 0.4987 0.54882 0.0
O357 O 0.50978 0.52206 0.57908 0.0
O358 O 0.50028 0.47684 0.48798 0.0
O359 O 0.53783 0.49491 0.4963 0.0
O360 O 0.46418 0.49509 0.51313 0.0
O361 O 0.48106 0.50803 0.54752 0.0
O362 O 0.47597 0.55345 0.51393 0.0
O363 O 0.49586 0.53304 0.48374 0.0
O364 O 0.50259 0.57881 0.571 0.0
O365 O 0.46609 0.55649 0.5701 0.0
O366 O 0.53905 0.55839 0.54947 0.0
O367 O 0.5223 0.54524 0.51517 0.0
H368 H 0.56468 0.45883 0.46937 0.0
H369 H 0.57953 0.42308 0.48353 0.0
H370 H 0.51559 0.40719 0.53513 0.0
H371 H 0.50094 0.44321 0.52125 0.0
H372 H 0.43616 0.57893 0.54879 0.0
H373 H 0.41902 0.61421 0.53759 0.0
H374 H 0.47924 0.65815 0.57719 0.0
H375 H 0.49629 0.62283 0.58876 0.0
Ho376 Ho 0.01011 0.50073 0.04127 0.0
Ho377 Ho 0.99851 0.54672 0.02219 0.0
C378 C 0.05085 0.54603 0.05135 0.0
C379 C 0.0209 0.45873 0.04612 0.0
C380 C 0.04405 0.44939 0.05032 0.0
C381 C 0.06724 0.46186 0.04193 0.0
C382 C 0.08922 0.45338 0.04733 0.0
C383 C 0.08841 0.43236 0.06136 0.0
C384 C 0.06504 0.41983 0.06941 0.0
C385 C 0.04309 0.42827 0.06389 0.0
C386 C 0.98959 0.52668 0.07753 0.0
C387 C 0.95702 0.50182 1.01292 0.0
C388 C 0.98699 0.58774 1.01355 0.0
C389 C 0.96514 0.59448 1.00109 0.0
C390 C 0.9525 0.61124 1.01311 0.0
C391 C 0.93059 0.61643 1.00262 0.0
C392 C 0.92106 0.60505 0.97982 0.0
C393 C 0.93385 0.58842 0.96766 0.0
C394 C 0.95559 0.58302 0.97832 0.0
C395 C 0.01824 0.51984 0.98633 0.0
O396 O 0.04768 0.52295 0.0469 0.0
O397 O 0.03306 0.55845 0.04615 0.0
O398 O 0.01325 0.47082 0.0654 0.0
O399 O 0.01914 0.46866 0.02378 0.0
O400 O 1.00664 0.51405 0.08224 0.0
O401 O 0.98322 0.5238 0.05424 0.0
O402 O 0.9609 0.52506 1.01575 0.0
O403 O 0.97415 0.48905 1.01931 0.0
O404 O 1.0023 0.57806 0.99863 0.0
O405 O 0.98228 0.57685 0.0356 0.0
O406 O 1.00021 0.53136 0.98187 0.0
O407 O 0.02532 0.52363 1.00928 0.0
H408 H 0.06837 0.47828 0.03145 0.0
H409 H 0.10684 0.46329 0.04052 0.0
H410 H 0.06371 0.40382 0.08062 0.0
H411 H 0.02536 0.41851 0.07065 0.0
H412 H 0.95941 0.62006 0.03082 0.0
H413 H 0.92121 0.62951 1.01222 0.0
H414 H 0.92679 0.5793 0.95017 0.0
H415 H 0.9647 0.56966 0.96892 0.0
H416 H 0.24447 0.26965 0.33234 0.0
H417 H 0.21024 0.2473 0.35797 0.0
H418 H 0.20409 0.19004 0.30218 0.0
H419 H 0.23856 0.21187 0.27685 0.0
H420 H 0.15871 0.20359 0.31458 0.0
H421 H 0.2302 0.18437 0.35851 0.0
H422 H 0.26983 0.19361 0.38173 0.0
H423 H 0.23394 0.22952 0.44132 0.0
H424 H 0.19414 0.22076 0.41824 0.0
H425 H 0.08338 0.1084 0.37683 0.0
H426 H 0.11727 0.13489 0.35531 0.0
H427 H 0.12062 0.18356 0.42009 0.0
H428 H 0.08678 0.15688 0.44191 0.0
H429 H 0.1663 0.178 0.4049 0.0
H430 H 0.0944 0.19559 0.3631 0.0
H431 H 0.05451 0.187 0.34026 0.0
H432 H 0.09053 0.15579 0.27709 0.0
H433 H 0.13059 0.16388 0.29972 0.0
C434 C 0.23607 0.25216 0.32572 0.0
C435 C 0.24416 0.24262 0.30244 0.0
C436 C 0.21646 0.23947 0.34034 0.0
C437 C 0.20465 0.21705 0.33192 0.0
C438 C 0.21285 0.2074 0.30889 0.0
C439 C 0.23249 0.21997 0.29438 0.0
C440 C 0.18331 0.20373 0.34666 0.0
C441 C 0.1604 0.1978 0.33425 0.0
C442 C 0.18537 0.19692 0.3726 0.0
C443 C 0.20927 0.20216 0.38649 0.0
C444 C 0.23081 0.19443 0.37644 0.0
C445 C 0.25329 0.19953 0.3896 0.0
C446 C 0.25442 0.21221 0.41295 0.0
C447 C 0.23305 0.21974 0.42321 0.0
C448 C 0.21052 0.2147 0.4101 0.0
C449 C 0.09114 0.12488 0.38636 0.0
C450 C 0.08233 0.13067 0.41096 0.0
C451 C 0.11052 0.14 0.37406 0.0
C452 C 0.12124 0.16139 0.38592 0.0
C453 C 0.11259 0.16717 0.41057 0.0
C454 C 0.0933 0.15193 0.423 0.0
C455 C 0.14175 0.17744 0.37264 0.0
C456 C 0.16449 0.18396 0.38531 0.0
C457 C 0.1395 0.18498 0.34697 0.0
C458 C 0.11547 0.18019 0.33321 0.0
C459 C 0.09378 0.18675 0.34442 0.0
C460 C 0.07115 0.18199 0.3315 0.0
C461 C 0.06998 0.17081 0.30726 0.0
C462 C 0.09146 0.16443 0.29587 0.0
C463 C 0.11415 0.16912 0.30872 0.0
H464 H 0.05243 0.16714 0.29729 0.0
H465 H 0.27184 0.21614 0.42312 0.0
H466 H 0.41786 0.93934 0.67281 0.0
H467 H 0.4225 0.94224 0.71969 0.0
H468 H 0.35577 0.97361 0.72656 0.0
H469 H 0.35151 0.97157 0.6796 0.0
H470 H 0.39181 0.99667 0.75622 0.0
H471 H 0.35494 0.91556 0.74158 0.0
H472 H 0.3514 0.87579 0.72164 0.0
H473 H 0.4223 0.86788 0.75225 0.0
H474 H 0.42644 0.90776 0.77208 0.0
H475 H 0.37663 0.98569 0.89192 0.0
H476 H 0.36885 0.98008 0.84567 0.0
H477 H 0.43609 0.94988 0.83611 0.0
H478 H 0.44359 0.95475 0.88246 0.0
H479 H 0.3985 0.92576 0.80804 0.0
H480 H 0.43598 1.00717 0.82139 0.0
H481 H 0.43982 0.04702 0.84121 0.0
H482 H 0.36789 0.05433 0.81281 0.0
H483 H 0.36347 1.01436 0.79312 0.0
C484 C 0.40433 0.94711 0.68426 0.0
C485 C 0.38427 0.95517 0.67248 0.0
C486 C 0.40685 0.94851 0.71108 0.0
C487 C 0.38927 0.95782 0.72665 0.0
C488 C 0.36947 0.96623 0.71492 0.0
C489 C 0.36696 0.96489 0.68811 0.0
C490 C 0.39165 0.95901 0.75516 0.0
C491 C 0.39289 0.9811 0.7676 0.0
C492 C 0.3936 0.93877 0.76992 0.0
C493 C 0.3911 0.91474 0.75812 0.0
C494 C 0.36987 0.90541 0.7439 0.0
C495 C 0.36774 0.88284 0.73264 0.0
C496 C 0.38664 0.86934 0.73562 0.0
C497 C 0.40768 0.87837 0.74993 0.0
C498 C 0.40992 0.90095 0.7612 0.0
C499 C 0.38952 0.97747 0.88006 0.0
C500 C 0.41083 0.97082 0.89081 0.0
C501 C 0.38518 0.97448 0.8536 0.0
C502 C 0.40211 0.96491 0.83741 0.0
C503 C 0.42287 0.95742 0.84824 0.0
C504 C 0.42722 0.96039 0.87468 0.0
C505 C 0.39868 0.96341 0.80905 0.0
C506 C 0.39729 0.94129 0.79665 0.0
C507 C 0.39662 0.98361 0.7943 0.0
C508 C 0.39929 1.00768 0.80602 0.0
C509 C 0.4209 1.0172 0.81955 0.0
C510 C 0.4232 0.03982 0.83073 0.0
C511 C 0.40408 0.05317 0.82833 0.0
C512 C 0.38266 0.04395 0.81469 0.0
C513 C 0.38026 1.02133 0.8035 0.0
H514 H 0.4059 0.07068 0.83699 0.0
H515 H 0.38495 0.85187 0.72689 0.0
H516 H 0.63462 0.38004 0.726 0.0
H517 H 0.61593 0.40002 0.69203 0.0
H518 H 0.58172 0.44001 0.74969 0.0
H519 H 0.60033 0.41985 0.78396 0.0
H520 H 0.54958 0.42648 0.71237 0.0
H521 H 0.63492 0.46471 0.71363 0.0
H522 H 0.68062 0.46697 0.71265 0.0
H523 H 0.67711 0.43448 0.6372 0.0
H524 H 0.63133 0.43172 0.63788 0.0
H525 H 0.51969 0.51296 0.62565 0.0
H526 H 0.53744 0.49284 0.66032 0.0
H527 H 0.56949 0.45 0.60388 0.0
H528 H 0.55194 0.47019 0.56901 0.0
H529 H 0.60267 0.46549 0.64087 0.0
H530 H 0.51719 0.42745 0.63973 0.0
H531 H 0.47157 0.42579 0.64062 0.0
H532 H 0.47546 0.45857 0.71593 0.0
H533 H 0.52118 0.46075 0.71531 0.0
C534 C 0.6233 0.39323 0.73156 0.0
C535 C 0.61932 0.39847 0.75788 0.0
C536 C 0.61256 0.40469 0.71201 0.0
C537 C 0.59771 0.42198 0.71808 0.0
C538 C 0.59314 0.42684 0.74434 0.0
C539 C 0.60379 0.41524 0.76399 0.0
C540 C 0.5871 0.43492 0.69702 0.0
C541 C 0.5613 0.4353 0.69698 0.0
C542 C 0.60213 0.44609 0.67643 0.0
C543 C 0.62967 0.44781 0.67591 0.0
C544 C 0.64387 0.45789 0.69691 0.0
C545 C 0.66979 0.45929 0.69639 0.0
C546 C 0.68175 0.45082 0.6749 0.0
C547 C 0.66782 0.441 0.65385 0.0
C548 C 0.64188 0.43954 0.65428 0.0
C549 C 0.53051 0.49927 0.62052 0.0
C550 C 0.53429 0.49326 0.5944 0.0
C551 C 0.54059 0.48766 0.64046 0.0
C552 C 0.55465 0.46963 0.63489 0.0
C553 C 0.55873 0.46379 0.60881 0.0
C554 C 0.5486 0.47536 0.58883 0.0
C555 C 0.56519 0.45699 0.65621 0.0
C556 C 0.59097 0.45669 0.65629 0.0
C557 C 0.55016 0.44596 0.67684 0.0
C558 C 0.52265 0.44447 0.67736 0.0
C559 C 0.50835 0.43447 0.6564 0.0
C560 C 0.48246 0.43341 0.65687 0.0
C561 C 0.47063 0.44213 0.67829 0.0
C562 C 0.48466 0.45185 0.69933 0.0
C563 C 0.51055 0.45299 0.69894 0.0
H564 H 0.45059 0.4413 0.67861 0.0
H565 H 0.70183 0.45192 0.67454 0.0
H566 H 0.91223 0.63246 0.28079 0.0
H567 H 0.93184 0.61018 0.24774 0.0
H568 H 0.88129 0.62811 0.19101 0.0
H569 H 0.86105 0.64956 0.22402 0.0
H570 H 0.88595 0.58354 0.18481 0.0
H571 H 0.94348 0.65626 0.19456 0.0
H572 H 0.97134 0.68755 0.21796 0.0
H573 H 0.01595 0.63663 0.24143 0.0
H574 H 0.98813 0.60495 0.21846 0.0
H575 H 0.95051 0.55095 0.07198 0.0
H576 H 0.93115 0.57332 0.10524 0.0
H577 H 0.98207 0.5552 0.16154 0.0
H578 H 1.00186 0.53346 0.12821 0.0
H579 H 0.97733 0.5998 0.16806 0.0
H580 H 0.9195 0.52704 0.15839 0.0
H581 H 0.89192 0.49599 0.13434 0.0
H582 H 0.84808 0.54733 0.11025 0.0
H583 H 0.8756 0.57875 0.1339 0.0
C584 C 0.90511 0.6315 0.26135 0.0
C585 C 0.88511 0.64308 0.25518 0.0
C586 C 0.91655 0.61892 0.24233 0.0
C587 C 0.90838 0.61767 0.21662 0.0
C588 C 0.88813 0.62883 0.21057 0.0
C589 C 0.87669 0.64135 0.22952 0.0
C590 C 0.92071 0.60472 0.196 0.0
C591 C 0.90591 0.58734 0.18099 0.0
C592 C 0.94685 0.60919 0.19115 0.0
C593 C 0.96355 0.62819 0.20504 0.0
C594 C 0.9591 0.65169 0.2049 0.0
C595 C 0.97491 0.66951 0.21805 0.0
C596 C 0.99535 0.66406 0.23124 0.0
C597 C 1.00007 0.64081 0.23125 0.0
C598 C 0.9843 0.62292 0.21816 0.0
C599 C 0.95763 0.55185 0.09143 0.0
C600 C 0.97769 0.54038 0.09746 0.0
C601 C 0.94643 0.56451 0.11052 0.0
C602 C 0.95483 0.56576 0.13616 0.0
C603 C 0.97513 0.55455 0.14203 0.0
C604 C 0.98638 0.54201 0.12294 0.0
C605 C 0.94257 0.57863 0.1569 0.0
C606 C 0.95738 0.59599 0.17192 0.0
C607 C 0.91644 0.57417 0.16175 0.0
C608 C 0.89974 0.55527 0.14772 0.0
C609 C 0.90407 0.53173 0.14783 0.0
C610 C 0.88843 0.51407 0.13429 0.0
C611 C 0.8683 0.5197 0.12072 0.0
C612 C 0.8637 0.543 0.12074 0.0
C613 C 0.87929 0.56074 0.13423 0.0
H614 H 0.85622 0.506 0.11024 0.0
H615 H 1.00758 0.67788 0.2414 0.0
H616 H 0.40002 0.2128 0.21761 0.0
H617 H 0.417 0.17985 0.19712 0.0
H618 H 0.37595 0.18751 0.12819 0.0
H619 H 0.35901 0.22054 0.14852 0.0
H620 H 0.37171 0.13976 0.14659 0.0
H621 H 0.43463 0.20773 0.12655 0.0
H622 H 0.46486 0.24343 0.13744 0.0
H623 H 0.50451 0.20194 0.18501 0.0
H624 H 0.47428 0.16603 0.17469 0.0
H625 H 0.42848 0.07135 0.05536 0.0
H626 H 0.40996 0.10078 0.08014 0.0
H627 H 0.46592 0.10202 0.13834 0.0
H628 H 0.4852 0.07334 0.11297 0.0
H629 H 0.4623 0.14455 0.12798 0.0
H630 H 0.40204 0.07646 0.14804 0.0
H631 H 0.37192 0.04009 0.13953 0.0
H632 H 0.32727 0.0799 0.09578 0.0
H633 H 0.35731 0.11648 0.10373 0.0
C634 C 0.39466 0.20744 0.19808 0.0
C635 C 0.37829 0.21923 0.18458 0.0
C636 C 0.40439 0.1887 0.18641 0.0
C637 C 0.39772 0.18133 0.16117 0.0
C638 C 0.38127 0.19297 0.1477 0.0
C639 C 0.3718 0.21191 0.15923 0.0
C640 C 0.40795 0.16149 0.14873 0.0
C641 C 0.39148 0.1408 0.14224 0.0
C642 C 0.43381 0.16269 0.14395 0.0
C643 C 0.45204 0.18425 0.15007 0.0
C644 C 0.44966 0.20626 0.13952 0.0
C645 C 0.46682 0.22652 0.14555 0.0
C646 C 0.48655 0.22497 0.16197 0.0
C647 C 0.48919 0.20313 0.17233 0.0
C648 C 0.47206 0.18281 0.16638 0.0
C649 C 0.43661 0.07761 0.07364 0.0
C650 C 0.45829 0.07003 0.08222 0.0
C651 C 0.42593 0.0944 0.08787 0.0
C652 C 0.43634 0.10349 0.11133 0.0
C653 C 0.45757 0.09535 0.1203 0.0
C654 C 0.46853 0.07889 0.10582 0.0
C655 C 0.42607 0.12256 0.12559 0.0
C656 C 0.44253 0.14323 0.13245 0.0
C657 C 0.40021 0.12115 0.13109 0.0
C658 C 0.38205 0.09919 0.12631 0.0
C659 C 0.3859 0.07744 0.13645 0.0
C660 C 0.36882 0.05678 0.13175 0.0
C661 C 0.34772 0.05767 0.11708 0.0
C662 C 0.34363 0.07923 0.10712 0.0
C663 C 0.36066 0.09994 0.11175 0.0
H664 H 0.33452 0.04166 0.11346 0.0
H665 H 0.49982 0.24067 0.16661 0.0
H666 H 0.26254 0.97668 0.57174 0.0
H667 H 0.21944 0.98234 0.56614 0.0
H668 H 0.21795 0.94623 0.49229 0.0
H669 H 0.26138 0.9411 0.49742 0.0
H670 H 0.19894 0.98674 0.48971 0.0
H671 H 0.18774 0.91883 0.54438 0.0
H672 H 0.1949 0.89549 0.58239 0.0
H673 H 0.16888 0.94687 0.63267 0.0
H674 H 0.16189 0.9707 0.59498 0.0
H675 H 0.06992 0.98495 0.47394 0.0
H676 H 0.10958 0.97078 0.4792 0.0
H677 H 0.11686 1.00346 0.55497 0.0
H678 H 0.0769 1.01706 0.55006 0.0
H679 H 0.13199 0.96149 0.55511 0.0
H680 H 0.14678 0.03095 0.50163 0.0
H681 H 0.13998 0.05518 0.46421 0.0
H682 H 0.1599 1.0018 0.41242 0.0
H683 H 0.16649 0.9771 0.44955 0.0
C684 C 0.2531 0.9701 0.55422 0.0
C685 C 0.26537 0.95851 0.53498 0.0
C686 C 0.22839 0.9731 0.55119 0.0
C687 C 0.21541 0.96443 0.52895 0.0
C688 C 0.22761 0.95292 0.50966 0.0
C689 C 0.25235 0.9499 0.51269 0.0
C690 C 0.18942 0.96822 0.52545 0.0
C691 C 0.18418 0.98084 0.50376 0.0
C692 C 0.17036 0.96099 0.54413 0.0
C693 C 0.17449 0.94665 0.56684 0.0
C694 C 0.18373 0.92525 0.56355 0.0
C695 C 0.18772 0.91192 0.58504 0.0
C696 C 0.1824 0.91972 0.60993 0.0
C697 C 0.17302 0.94086 0.61338 0.0
C698 C 0.16901 0.95427 0.59196 0.0
C699 C 0.07992 0.9889 0.49178 0.0
C700 C 0.0706 1.00232 0.51147 0.0
C701 C 0.10256 0.98088 0.49474 0.0
C702 C 0.11638 0.98645 0.51728 0.0
C703 C 0.10654 0.99903 0.53739 0.0
C704 C 0.0838 1.00688 0.53452 0.0
C705 C 0.1416 0.98018 0.51948 0.0
C706 C 0.14671 0.96716 0.54094 0.0
C707 C 0.16062 0.98717 0.50068 0.0
C708 C 0.15687 1.00208 0.47835 0.0
C709 C 0.14954 1.02432 0.48225 0.0
C710 C 0.14575 0.03814 0.4611 0.0
C711 C 0.14944 0.03001 0.43595 0.0
C712 C 0.15701 1.00806 0.43191 0.0
C713 C 0.16079 0.99415 0.453 0.0
H714 H 0.14649 0.04074 0.41959 0.0
H715 H 0.18551 0.90937 0.62654 0.0
H716 H 0.78397 0.3818 0.8773 0.0
H717 H 0.81971 0.40222 0.90091 0.0
H718 H 0.7721 0.44344 0.94254 0.0
H719 H 0.73586 0.42257 0.9194 0.0
H720 H 0.8174 0.47079 0.92655 0.0
H721 H 0.7904 0.39861 0.97228 0.0
H722 H 0.77782 0.35544 0.97697 0.0
H723 H 0.84954 0.34442 0.94769 0.0
H724 H 0.86243 0.38753 0.94246 0.0
H725 H 0.91149 0.5161 1.01608 0.0
H726 H 0.8725 0.49742 0.99647 0.0
H727 H 0.90996 0.44305 0.96303 0.0
H728 H 0.94854 0.46087 0.98418 0.0
H729 H 0.8673 0.42306 0.977 0.0
H730 H 0.89303 0.49472 0.92715 0.0
H731 H 0.9059 0.53791 0.92222 0.0
H732 H 0.83765 0.54994 0.9593 0.0
H733 H 0.8243 0.50681 0.96428 0.0
C734 C 0.78088 0.395 0.89166 0.0
C735 C 0.75673 0.40016 0.89659 0.0
C736 C 0.80148 0.4068 0.90508 0.0
C737 C 0.79866 0.4242 0.9238 0.0
C738 C 0.7748 0.43007 0.92822 0.0
C739 C 0.75407 0.41813 0.91487 0.0
C740 C 0.82059 0.43572 0.93903 0.0
C741 C 0.82814 0.46039 0.93784 0.0
C742 C 0.83493 0.42223 0.95351 0.0
C743 C 0.82729 0.39629 0.95677 0.0
C744 C 0.80342 0.38697 0.96665 0.0
C745 C 0.79625 0.36251 0.96944 0.0
C746 C 0.81285 0.34719 0.96258 0.0
C747 C 0.83669 0.35631 0.95297 0.0
C748 C 0.84395 0.38076 0.95012 0.0
C749 C 0.91135 0.50008 1.00464 0.0
C750 C 0.93313 0.48998 1.00167 0.0
C751 C 0.88904 0.4895 0.99315 0.0
C752 C 0.88816 0.46906 0.9775 0.0
C753 C 0.90992 0.45881 0.97487 0.0
C754 C 0.93205 0.46902 0.98698 0.0
C755 C 0.86468 0.45817 0.96406 0.0
C756 C 0.8567 0.43356 0.96567 0.0
C757 C 0.85007 0.47173 0.94985 0.0
C758 C 0.85774 0.49758 0.94619 0.0
C759 C 0.88078 0.50659 0.93422 0.0
C760 C 0.88813 0.53104 0.9314 0.0
C761 C 0.87258 0.54663 0.94044 0.0
C762 C 0.84965 0.53782 0.95229 0.0
C763 C 0.84211 0.51338 0.95498 0.0
H764 H 0.87825 0.56552 0.93816 0.0
H765 H 0.80726 0.32826 0.96475 0.0
H766 H 0.75708 0.65513 0.43656 0.0
H767 H 0.71952 0.63612 0.45964 0.0
H768 H 0.68969 0.60505 0.38813 0.0
H769 H 0.72683 0.62472 0.36474 0.0
H770 H 0.65449 0.62247 0.41473 0.0
H771 H 0.71308 0.57184 0.4345 0.0
H772 H 0.75271 0.56192 0.44974 0.0
H773 H 0.73874 0.58996 0.52506 0.0
H774 H 0.69916 0.60035 0.51016 0.0
H775 H 0.55282 0.54617 0.47406 0.0
H776 H 0.59135 0.56074 0.44968 0.0
H777 H 0.62472 0.59292 0.51924 0.0
H778 H 0.58647 0.57782 0.54377 0.0
H779 H 0.65804 0.57343 0.49246 0.0
H780 H 0.60013 0.62535 0.47201 0.0
H781 H 0.56008 0.63442 0.45692 0.0
H782 H 0.57269 0.60347 0.38274 0.0
H783 H 0.61268 0.59391 0.39752 0.0
C784 C 0.74253 0.64432 0.42566 0.0
C785 C 0.74515 0.6415 0.3987 0.0
C786 C 0.72109 0.63324 0.43897 0.0
C787 C 0.70174 0.61887 0.42575 0.0
C788 C 0.70431 0.61595 0.39885 0.0
C789 C 0.72575 0.62704 0.38551 0.0
C790 C 0.67863 0.60738 0.43986 0.0
C791 C 0.65529 0.61146 0.43149 0.0
C792 C 0.67951 0.59334 0.46209 0.0
C793 C 0.70326 0.58707 0.47113 0.0
C794 C 0.71854 0.57606 0.45425 0.0
C795 C 0.74098 0.57032 0.46284 0.0
C796 C 0.74826 0.57536 0.48833 0.0
C797 C 0.73309 0.5861 0.50531 0.0
C798 C 0.71064 0.59189 0.49681 0.0
C799 C 0.56844 0.55624 0.48416 0.0
C800 C 0.56655 0.56099 0.51081 0.0
C801 C 0.59044 0.56469 0.47018 0.0
C802 C 0.61093 0.57835 0.48245 0.0
C803 C 0.60924 0.58252 0.50923 0.0
C804 C 0.58731 0.57394 0.52325 0.0
C805 C 0.63395 0.58866 0.46743 0.0
C806 C 0.65725 0.58438 0.47564 0.0
C807 C 0.63305 0.60251 0.44505 0.0
C808 C 0.60928 0.60872 0.43595 0.0
C809 C 0.5943 0.62038 0.45252 0.0
C810 C 0.57161 0.62561 0.44402 0.0
C811 C 0.56381 0.61946 0.41891 0.0
C812 C 0.57874 0.60818 0.4022 0.0
C813 C 0.60143 0.60287 0.41062 0.0
H814 H 0.54621 0.62348 0.41239 0.0
H815 H 0.76564 0.57091 0.49495 0.0
H816 H 0.24226 0.31444 0.15388 0.0
H817 H 0.21328 0.33323 0.12935 0.0
H818 H 0.2593 0.40141 0.141 0.0
H819 H 0.28884 0.38265 0.16518 0.0
H820 H 0.20997 0.40165 0.15313 0.0
H821 H 0.25717 0.37629 0.08215 0.0
H822 H 0.27712 0.34794 0.05619 0.0
H823 H 0.2057 0.30455 0.04468 0.0
H824 H 0.18535 0.33248 0.07089 0.0
H825 H 0.1325 0.45894 0.07667 0.0
H826 H 0.16969 0.44478 0.09141 0.0
H827 H 0.13403 0.37257 0.07826 0.0
H828 H 0.09728 0.38663 0.06216 0.0
H829 H 0.18167 0.3774 0.06472 0.0
H830 H 0.13511 0.39917 0.13898 0.0
H831 H 0.11415 0.42594 0.16619 0.0
H832 H 0.18324 0.47427 0.17286 0.0
H833 H 0.20455 0.4479 0.14539 0.0
C834 C 0.24659 0.33336 0.15077 0.0
C835 C 0.26798 0.34701 0.16146 0.0
C836 C 0.22992 0.34408 0.13679 0.0
C837 C 0.23425 0.36868 0.13317 0.0
C838 C 0.25565 0.38238 0.14357 0.0
C839 C 0.27243 0.37164 0.15747 0.0
C840 C 0.21563 0.38011 0.11978 0.0
C841 C 0.20413 0.39673 0.13359 0.0
C842 C 0.2076 0.37319 0.09456 0.0
C843 C 0.21976 0.35641 0.07865 0.0
C844 C 0.24574 0.36062 0.07424 0.0
C845 C 0.25711 0.34463 0.05945 0.0
C846 C 0.24269 0.32443 0.04883 0.0
C847 C 0.21685 0.3202 0.05293 0.0
C848 C 0.20538 0.33612 0.06772 0.0
C849 C 0.13274 0.44006 0.07637 0.0
C850 C 0.11176 0.42391 0.06847 0.0
C851 C 0.15394 0.43198 0.08509 0.0
C852 C 0.15447 0.40759 0.08645 0.0
C853 C 0.134 0.39147 0.07756 0.0
C854 C 0.11288 0.39953 0.06862 0.0
C855 C 0.17581 0.39876 0.09819 0.0
C856 C 0.18775 0.38258 0.08412 0.0
C857 C 0.18411 0.40588 0.12331 0.0
C858 C 0.17135 0.4217 0.13989 0.0
C859 C 0.14579 0.41559 0.14609 0.0
C860 C 0.13385 0.43067 0.16158 0.0
C861 C 0.14734 0.45183 0.17118 0.0
C862 C 0.17281 0.4579 0.16537 0.0
C863 C 0.18482 0.44289 0.14985 0.0
H864 H 0.13806 0.46348 0.18317 0.0
H865 H 0.25154 0.31208 0.03739 0.0
H866 H 0.61552 0.27045 0.93441 0.0
H867 H 0.59674 0.23285 0.95386 0.0
H868 H 0.57636 0.20413 0.87846 0.0
H869 H 0.59617 0.24111 0.85859 0.0
H870 H 0.53715 0.19525 0.91684 0.0
H871 H 0.62408 0.18792 0.90552 0.0
H872 H 0.66928 0.20061 0.91115 0.0
H873 H 0.65896 0.19743 0.99364 0.0
H874 H 0.61362 0.18505 0.9885 0.0
H875 H 0.49986 0.07463 0.94414 0.0
H876 H 0.52092 0.11221 0.92645 0.0
H877 H 0.55598 0.13022 0.99976 0.0
H878 H 0.53571 0.0919 1.01704 0.0
H879 H 0.58772 0.14603 0.96438 0.0
H880 H 0.5026 0.15368 0.9781 0.0
H881 H 0.45688 0.14296 0.97517 0.0
H882 H 0.46247 0.14828 0.89246 0.0
H883 H 0.50827 0.15874 0.89486 0.0
C884 C 0.60738 0.25615 0.92177 0.0
C885 C 0.60762 0.25916 0.89471 0.0
C886 C 0.59646 0.23461 0.93305 0.0
C887 C 0.5852 0.21554 0.91766 0.0
C888 C 0.58483 0.21857 0.89079 0.0
C889 C 0.59607 0.23996 0.87945 0.0
C890 C 0.57393 0.19239 0.92946 0.0
C891 C 0.54825 0.18435 0.92697 0.0
C892 C 0.58817 0.1785 0.94354 0.0
C893 C 0.61543 0.18581 0.94663 0.0
C894 C 0.63142 0.19013 0.92487 0.0
C895 C 0.65707 0.19722 0.92797 0.0
C896 C 0.66698 0.19989 0.95274 0.0
C897 C 0.65126 0.19539 0.97447 0.0
C898 C 0.62559 0.18832 0.97147 0.0
C899 C 0.51226 0.08651 0.95643 0.0
C900 C 0.51612 0.08027 0.98203 0.0
C901 C 0.52415 0.10818 0.94636 0.0
C902 C 0.53963 0.12462 0.96187 0.0
C903 C 0.54409 0.11807 0.98729 0.0
C904 C 0.53253 0.09609 0.99722 0.0
C905 C 0.55081 0.14859 0.95156 0.0
C906 C 0.57649 0.15687 0.95435 0.0
C907 C 0.53644 0.16298 0.9382 0.0
C908 C 0.50889 0.15679 0.93666 0.0
C909 C 0.49409 0.15242 0.95927 0.0
C910 C 0.46816 0.14641 0.95771 0.0
C911 C 0.45679 0.14489 0.93364 0.0
C912 C 0.47131 0.14944 0.91109 0.0
C913 C 0.49726 0.15543 0.91254 0.0
H914 H 0.43671 0.14023 0.93247 0.0
H915 H 0.68685 0.20538 0.9551 0.0
H916 H 0.86432 0.80857 0.36987 0.0
H917 H 0.8827 0.8447 0.39251 0.0
H918 H 0.92725 0.80495 0.43703 0.0
H919 H 0.9093 0.7686 0.414 0.0
H920 H 0.90622 0.83619 0.46744 0.0
H921 H 0.95381 0.83961 0.38829 0.0
H922 H 0.96032 0.83851 0.341 0.0
H923 H 0.92296 0.89839 0.33314 0.0
H924 H 0.91591 0.89964 0.38038 0.0
H925 H 0.98601 0.93739 0.51866 0.0
H926 H 0.96756 0.89998 0.49841 0.0
H927 H 0.92955 0.93794 0.44473 0.0
H928 H 0.94878 0.97552 0.46432 0.0
H929 H 0.94808 0.90654 0.41925 0.0
H930 H 0.89974 0.90276 0.49874 0.0
H931 H 0.89114 0.90214 0.54578 0.0
H932 H 0.92895 0.84253 0.55322 0.0
H933 H 0.93799 0.84292 0.50629 0.0
C934 C 0.87831 0.80743 0.38416 0.0
C935 C 0.88545 0.78549 0.38977 0.0
C936 C 0.88874 0.82819 0.39723 0.0
C937 C 0.90662 0.82771 0.41632 0.0
C938 C 0.91351 0.80584 0.42238 0.0
C939 C 0.90314 0.78501 0.40921 0.0
C940 C 0.91797 0.85003 0.42992 0.0
C941 C 0.9157 0.85149 0.45696 0.0
C942 C 0.92985 0.87023 0.41627 0.0
C943 C 0.93413 0.86957 0.38786 0.0
C944 C 0.9468 0.85242 0.37646 0.0
C945 C 0.95062 0.8518 0.34966 0.0
C946 C 0.942 0.86833 0.33406 0.0
C947 C 0.9296 0.88557 0.34524 0.0
C948 C 0.92571 0.88626 0.37203 0.0
C949 C 0.97357 0.93782 0.50266 0.0
C950 C 0.96893 0.95958 0.49315 0.0
C951 C 0.96283 0.91629 0.49116 0.0
C952 C 0.94676 0.91586 0.47014 0.0
C953 C 0.94185 0.93761 0.46087 0.0
C954 C 0.95283 0.95917 0.47216 0.0
C955 C 0.93609 0.89299 0.45695 0.0
C956 C 0.93857 0.89135 0.42988 0.0
C957 C 0.92437 0.87265 0.47064 0.0
C958 C 0.91976 0.87303 0.49901 0.0
C959 C 0.90648 0.8897 0.51045 0.0
C960 C 0.90146 0.88934 0.53709 0.0
C961 C 0.90952 0.87232 0.55246 0.0
C962 C 0.92273 0.85571 0.54128 0.0
C963 C 0.92779 0.85598 0.51467 0.0
H964 H 0.90542 0.87186 0.57301 0.0
H965 H 0.94498 0.86782 0.31332 0.0
H966 H 0.34568 0.82607 0.54025 0.0
H967 H 0.3529 0.78507 0.53709 0.0
H968 H 0.43047 0.80968 0.51817 0.0
H969 H 0.42345 0.85073 0.52146 0.0
H970 H 0.41071 0.76915 0.49029 0.0
H971 H 0.41371 0.79744 0.57905 0.0
H972 H 0.39688 0.81494 0.61806 0.0
H973 H 0.33454 0.75796 0.62008 0.0
H974 H 0.35084 0.74031 0.58083 0.0
H975 H 0.47298 0.67897 0.53447 0.0
H976 H 0.45676 0.71507 0.52445 0.0
H977 H 0.38364 0.6828 0.55209 0.0
H978 H 0.40006 0.64683 0.56281 0.0
H979 H 0.39633 0.72505 0.57265 0.0
H980 H 0.39383 0.69519 0.48543 0.0
H981 H 0.40934 0.6783 0.4453 0.0
H982 H 0.47004 0.73663 0.44058 0.0
H983 H 0.45458 0.75421 0.48031 0.0
C984 C 0.36424 0.82273 0.53523 0.0
C985 C 0.38409 0.84161 0.53146 0.0
C986 C 0.36829 0.79933 0.53331 0.0
C987 C 0.39228 0.79441 0.52775 0.0
C988 C 0.41181 0.81314 0.52246 0.0
C989 C 0.40777 0.83657 0.52434 0.0
C990 C 0.39755 0.76998 0.5298 0.0
C991 C 0.40768 0.75949 0.50829 0.0
C992 C 0.39301 0.75723 0.55313 0.0
C993 C 0.38334 0.76771 0.57685 0.0
C994 C 0.39632 0.78875 0.58771 0.0
C995 C 0.38689 0.79868 0.60987 0.0
C996 C 0.36462 0.78761 0.6215 0.0
C997 C 0.35177 0.76654 0.61102 0.0
C998 C 0.36109 0.75656 0.58883 0.0
C999 C 0.45345 0.67961 0.53835 0.0
C1000 C 0.43775 0.66022 0.54944 0.0
C1001 C 0.4441 0.70008 0.53227 0.0
C1002 C 0.41888 0.7015 0.53712 0.0
C1003 C 0.40312 0.68202 0.54801 0.0
C1004 C 0.41248 0.66153 0.55412 0.0
C1005 C 0.40968 0.7241 0.53316 0.0
C1006 C 0.39893 0.7344 0.55443 0.0
C1007 C 0.41357 0.73658 0.50959 0.0
C1008 C 0.42315 0.72591 0.48594 0.0
C1009 C 0.41056 0.70435 0.47591 0.0
C1010 C 0.41928 0.69469 0.4532 0.0
C1011 C 0.44078 0.70624 0.44057 0.0
C1012 C 0.45343 0.72766 0.45043 0.0
C1013 C 0.4446 0.73757 0.47293 0.0
H1014 H 0.44755 0.69865 0.42308 0.0
H1015 H 0.35735 0.79532 0.63866 0.0
H1016 H 0.78549 0.79526 0.74567 0.0
H1017 H 0.81472 0.80821 0.71029 0.0
H1018 H 0.77574 0.86619 0.69549 0.0
H1019 H 0.74615 0.85319 0.73075 0.0
H1020 H 0.81835 0.82446 0.65646 0.0
H1021 H 0.81922 0.91491 0.70398 0.0
H1022 H 0.80494 0.93197 0.74461 0.0
H1023 H 0.81609 0.87007 0.78578 0.0
H1024 H 0.83089 0.8529 0.74552 0.0
H1025 H 0.90721 0.91361 0.59322 0.0
H1026 H 0.87032 0.88933 0.61224 0.0
H1027 H 0.90925 0.88649 0.68363 0.0
H1028 H 0.94584 0.91166 0.66519 0.0
H1029 H 0.86545 0.89927 0.69234 0.0
H1030 H 0.89574 0.83771 0.64271 0.0
H1031 H 0.91026 0.81958 0.60291 0.0
H1032 H 0.83995 0.82167 0.56757 0.0
H1033 H 0.82509 0.84008 0.60707 0.0
C1034 C 0.78234 0.81007 0.73411 0.0
C1035 C 0.76387 0.82356 0.74137 0.0
C1036 C 0.79909 0.81743 0.71382 0.0
C1037 C 0.79761 0.83837 0.70066 0.0
C1038 C 0.77726 0.85007 0.70562 0.0
C1039 C 0.7605 0.84274 0.72589 0.0
C1040 C 0.81997 0.85076 0.6868 0.0
C1041 C 0.8286 0.84091 0.66407 0.0
C1042 C 0.83358 0.8719 0.69718 0.0
C1043 C 0.82589 0.88256 0.72172 0.0
C1044 C 0.81879 0.90505 0.72176 0.0
C1045 C 0.8106 0.91472 0.74471 0.0
C1046 C 0.80954 0.90208 0.76775 0.0
C1047 C 0.81688 0.87982 0.76793 0.0
C1048 C 0.82518 0.87012 0.74506 0.0
C1049 C 0.90799 0.9078 0.61297 0.0
C1050 C 0.92953 0.91473 0.62769 0.0
C1051 C 0.88694 0.89368 0.62371 0.0
C1052 C 0.88707 0.88601 0.64932 0.0
C1053 C 0.90878 0.89221 0.66379 0.0
C1054 C 0.92979 0.90642 0.65312 0.0
C1055 C 0.86407 0.87311 0.66176 0.0
C1056 C 0.85524 0.88292 0.68441 0.0
C1057 C 0.8506 0.85184 0.65138 0.0
C1058 C 0.85936 0.84041 0.62779 0.0
C1059 C 0.88341 0.83441 0.62641 0.0
C1060 C 0.89169 0.82404 0.60393 0.0
C1061 C 0.87603 0.81946 0.58274 0.0
C1062 C 0.85204 0.8252 0.58401 0.0
C1063 C 0.84367 0.83556 0.60646 0.0
H1064 H 0.88249 0.81149 0.56533 0.0
H1065 H 0.80308 0.90955 0.78546 0.0
H1066 H 0.6899 0.2119 0.32841 0.0
H1067 H 0.66414 0.18908 0.29584 0.0
H1068 H 0.70832 0.13332 0.30031 0.0
H1069 H 0.73505 0.15664 0.33204 0.0
H1070 H 0.70048 0.14203 0.25184 0.0
H1071 H 0.64875 0.12747 0.32734 0.0
H1072 H 0.62635 0.13745 0.36684 0.0
H1073 H 0.5821 0.17671 0.32189 0.0
H1074 H 0.60449 0.16725 0.28213 0.0
H1075 H 0.6172 0.06401 0.17379 0.0
H1076 H 0.63926 0.07997 0.21262 0.0
H1077 H 0.60641 0.14329 0.20766 0.0
H1078 H 0.58403 0.12732 0.169 0.0
H1079 H 0.60799 0.12702 0.25839 0.0
H1080 H 0.66295 0.14391 0.1837 0.0
H1081 H 0.68531 0.13324 0.14445 0.0
H1082 H 0.72339 0.08816 0.18912 0.0
H1083 H 0.70096 0.09831 0.2286 0.0
C1084 C 0.69434 0.1949 0.3223 0.0
C1085 C 0.71464 0.18616 0.33278 0.0
C1086 C 0.67934 0.18169 0.30394 0.0
C1087 C 0.68403 0.1593 0.29593 0.0
C1088 C 0.70426 0.15049 0.30633 0.0
C1089 C 0.7194 0.16377 0.3246 0.0
C1090 C 0.66842 0.14559 0.27591 0.0
C1091 C 0.68028 0.13835 0.25354 0.0
C1092 C 0.64202 0.14111 0.2779 0.0
C1093 C 0.62845 0.1468 0.30176 0.0
C1094 C 0.63437 0.13838 0.32589 0.0
C1095 C 0.62166 0.14392 0.34833 0.0
C1096 C 0.60285 0.15774 0.34688 0.0
C1097 C 0.59669 0.16601 0.32298 0.0
C1098 C 0.60937 0.16055 0.30048 0.0
C1099 C 0.61431 0.08114 0.18127 0.0
C1100 C 0.59903 0.09451 0.1683 0.0
C1101 C 0.62703 0.09027 0.20333 0.0
C1102 C 0.62464 0.11289 0.21279 0.0
C1103 C 0.60852 0.12581 0.20059 0.0
C1104 C 0.59591 0.11676 0.17844 0.0
C1105 C 0.6401 0.12375 0.23441 0.0
C1106 C 0.6282 0.13048 0.25697 0.0
C1107 C 0.66646 0.12763 0.23271 0.0
C1108 C 0.68007 0.12166 0.20903 0.0
C1109 C 0.67594 0.13157 0.18511 0.0
C1110 C 0.68865 0.12565 0.16283 0.0
C1111 C 0.70571 0.10998 0.16427 0.0
C1112 C 0.71014 0.10026 0.18802 0.0
C1113 C 0.69744 0.1061 0.21035 0.0
H1114 H 0.71553 0.10541 0.147 0.0
H1115 H 0.59303 0.16201 0.36428 0.0
H1116 H 0.43306 0.66074 0.28521 0.0
H1117 H 0.44849 0.64224 0.32253 0.0
H1118 H 0.37315 0.62233 0.35169 0.0
H1119 H 0.35755 0.6412 0.31453 0.0
H1120 H 0.4053 0.63902 0.39064 0.0
H1121 H 0.40266 0.5818 0.32147 0.0
H1122 H 0.412 0.56762 0.2777 0.0
H1123 H 0.4905 0.58344 0.29235 0.0
H1124 H 0.48162 0.59803 0.33611 0.0
H1125 H 0.43393 0.55957 0.48634 0.0
H1126 H 0.41644 0.5785 0.4505 0.0
H1127 H 0.48745 0.5857 0.40974 0.0
H1128 H 0.50405 0.5648 0.44456 0.0
H1129 H 0.45608 0.5755 0.37638 0.0
H1130 H 0.45909 0.6343 0.44539 0.0
H1131 H 0.44947 0.64845 0.48917 0.0
H1132 H 0.37104 0.63048 0.47492 0.0
H1133 H 0.38017 0.61599 0.43121 0.0
C1134 C 0.41972 0.65273 0.29969 0.0
C1135 C 0.39398 0.65254 0.2967 0.0
C1136 C 0.4286 0.64192 0.32098 0.0
C1137 C 0.41203 0.63058 0.33993 0.0
C1138 C 0.38637 0.63085 0.33737 0.0
C1139 C 0.37745 0.64153 0.31597 0.0
C1140 C 0.42144 0.61815 0.36209 0.0
C1141 C 0.41624 0.62498 0.38754 0.0
C1142 C 0.43611 0.60009 0.35822 0.0
C1143 C 0.44148 0.59121 0.33197 0.0
C1144 C 0.42191 0.58242 0.31529 0.0
C1145 C 0.42713 0.57428 0.29049 0.0
C1146 C 0.45183 0.57469 0.28222 0.0
C1147 C 0.47137 0.58317 0.29877 0.0
C1148 C 0.46626 0.59135 0.32358 0.0
C1149 C 0.44574 0.56522 0.46968 0.0
C1150 C 0.47034 0.56067 0.46826 0.0
C1151 C 0.43582 0.57635 0.44921 0.0
C1152 C 0.45064 0.5843 0.4273 0.0
C1153 C 0.47538 0.57985 0.42615 0.0
C1154 C 0.48497 0.56793 0.44616 0.0
C1155 C 0.44044 0.59659 0.40528 0.0
C1156 C 0.44539 0.58968 0.3797 0.0
C1157 C 0.42571 0.61473 0.40907 0.0
C1158 C 0.42032 0.62389 0.43514 0.0
C1159 C 0.43981 0.63329 0.45166 0.0
C1160 C 0.43444 0.64133 0.47646 0.0
C1161 C 0.40966 0.64023 0.48481 0.0
C1162 C 0.39021 0.6312 0.46842 0.0
C1163 C 0.39546 0.62313 0.44363 0.0
H1164 H 0.40545 0.64654 0.50387 0.0
H1165 H 0.45583 0.56838 0.26302 0.0
H1166 H 0.07907 0.39311 0.79233 0.0
H1167 H 0.06013 0.41363 0.82766 0.0
H1168 H 0.13283 0.43676 0.85958 0.0
H1169 H 0.15186 0.4166 0.82419 0.0
H1170 H 0.09407 0.41821 0.89732 0.0
H1171 H 0.10985 0.47514 0.82812 0.0
H1172 H 0.10684 0.48865 0.78341 0.0
H1173 H 0.0269 0.47674 0.79061 0.0
H1174 H 0.02944 0.46282 0.83527 0.0
H1175 H 0.0636 0.50496 0.98732 0.0
H1176 H 0.08238 0.48241 0.95388 0.0
H1177 H 0.01589 0.47791 0.90864 0.0
H1178 H 0.99786 0.50167 0.9413 0.0
H1179 H 0.05175 0.486 0.87752 0.0
H1180 H 0.03384 0.42983 0.94566 0.0
H1181 H 0.03462 0.41464 0.98998 0.0
H1182 H 0.11445 0.42195 0.98503 0.0
H1183 H 0.11421 0.43759 0.94082 0.0
C1184 C 0.09099 0.40251 0.80692 0.0
C1185 C 0.117 0.40336 0.80531 0.0
C1186 C 0.08016 0.41426 0.82709 0.0
C1187 C 0.09505 0.42678 0.84631 0.0
C1188 C 0.12094 0.42721 0.84505 0.0
C1189 C 0.13181 0.41584 0.82467 0.0
C1190 C 0.08376 0.44008 0.86725 0.0
C1191 C 0.085 0.43318 0.89309 0.0
C1192 C 0.07136 0.45922 0.86171 0.0
C1193 C 0.06983 0.46771 0.83493 0.0
C1194 C 0.09163 0.47521 0.82009 0.0
C1195 C 0.09001 0.48298 0.79477 0.0
C1196 C 0.06669 0.48349 0.78415 0.0
C1197 C 0.04495 0.4763 0.79885 0.0
C1198 C 0.04647 0.46848 0.82417 0.0
C1199 C 0.05303 0.49909 0.97023 0.0
C1200 C 0.0293 0.50513 0.96688 0.0
C1201 C 0.06369 0.486 0.95114 0.0
C1202 C 0.05052 0.47798 0.92865 0.0
C1203 C 0.02663 0.48385 0.9256 0.0
C1204 C 0.01624 0.49738 0.94436 0.0
C1205 C 0.06173 0.46412 0.90794 0.0
C1206 C 0.06061 0.47095 0.882 0.0
C1207 C 0.0738 0.44462 0.91343 0.0
C1208 C 0.07402 0.43505 0.93996 0.0
C1209 C 0.05158 0.42834 0.95407 0.0
C1210 C 0.05192 0.41964 0.97916 0.0
C1211 C 0.07456 0.41729 0.99027 0.0
C1212 C 0.09692 0.42374 0.97636 0.0
C1213 C 0.0967 0.43252 0.95128 0.0
H1214 H 0.07476 0.4104 1.00962 0.0
H1215 H 0.06548 0.48951 0.76455 0.0
H1216 H 0.61922 0.83878 0.8756 0.0
H1217 H 0.59192 0.86567 0.89254 0.0
H1218 H 0.64799 0.89434 0.94742 0.0
H1219 H 0.67513 0.86754 0.9308 0.0
H1220 H 0.60321 0.88973 0.96957 0.0
H1221 H 0.64135 0.92201 0.8898 0.0
H1222 H 0.65186 0.92137 0.84321 0.0
H1223 H 0.57399 0.91047 0.82533 0.0
H1224 H 0.56301 0.91071 0.87188 0.0
H1225 H 0.57446 1.00212 0.99929 0.0
H1226 H 0.5961 0.97241 0.97873 0.0
H1227 H 0.52892 0.94253 0.93919 0.0
H1228 H 0.50696 0.97207 0.95987 0.0
H1229 H 0.57539 0.94582 0.90858 0.0
H1230 H 0.53795 0.91644 0.98934 0.0
H1231 H 0.52869 0.9194 0.03603 0.0
H1232 H 0.60675 0.92638 0.05211 0.0
H1233 H 0.61652 0.92395 1.00543 0.0
C1234 C 0.62559 0.85069 0.89142 0.0
C1235 C 0.64932 0.85104 0.90185 0.0
C1236 C 0.61002 0.86606 0.90105 0.0
C1237 C 0.61808 0.88226 0.921 0.0
C1238 C 0.64135 0.88197 0.93207 0.0
C1239 C 0.65682 0.86655 0.9226 0.0
C1240 C 0.60294 0.90028 0.92973 0.0
C1241 C 0.59727 0.90205 0.95622 0.0
C1242 C 0.59479 0.91613 0.91228 0.0
C1243 C 0.60136 0.9161 0.88431 0.0
C1244 C 0.62647 0.91929 0.87594 0.0
C1245 C 0.63251 0.91903 0.84954 0.0
C1246 C 0.6136 0.91581 0.83132 0.0
C1247 C 0.58861 0.91291 0.83947 0.0
C1248 C 0.58247 0.91312 0.86585 0.0
C1249 C 0.5644 0.98956 0.98583 0.0
C1250 C 0.53895 0.9893 0.98137 0.0
C1251 C 0.57677 0.97255 0.97418 0.0
C1252 C 0.56396 0.95519 0.95774 0.0
C1253 C 0.53903 0.95579 0.95191 0.0
C1254 C 0.52654 0.97262 0.9638 0.0
C1255 C 0.57612 0.93538 0.94831 0.0
C1256 C 0.58116 0.93329 0.92179 0.0
C1257 C 0.58385 0.91933 0.96572 0.0
C1258 C 0.57799 0.92023 0.99386 0.0
C1259 C 0.55316 0.91878 1.00281 0.0
C1260 C 0.54782 0.92035 0.02928 0.0
C1261 C 0.56713 0.92312 0.04702 0.0
C1262 C 0.59181 0.92425 0.03833 0.0
C1263 C 0.59727 0.92277 1.01187 0.0
H1264 H 0.56295 0.92435 0.0675 0.0
H1265 H 0.61831 0.91561 0.81089 0.0
H1266 H 0.8167 0.15907 0.47218 0.0
H1267 H 0.84442 0.13513 0.49156 0.0
H1268 H 0.90493 0.19442 0.48775 0.0
H1269 H 0.87722 0.21834 0.46771 0.0
H1270 H 0.92166 0.15695 0.47342 0.0
H1271 H 0.87588 0.17665 0.54604 0.0
H1272 H 0.83925 0.18254 0.5727 0.0
H1273 H 0.81141 0.10783 0.56958 0.0
H1274 H 0.8477 0.10151 0.54255 0.0
H1275 H 0.96179 0.07285 0.57715 0.0
H1276 H 0.94151 0.10635 0.56599 0.0
H1277 H 0.93089 0.07861 0.48831 0.0
H1278 H 0.95095 0.04491 0.49946 0.0
H1279 H 0.89497 0.10732 0.55017 0.0
H1280 H 0.94093 0.1259 0.44678 0.0
H1281 H 0.98235 0.12851 0.4255 0.0
H1282 H 0.01735 0.13693 0.4994 0.0
H1283 H 0.97625 0.13455 0.52113 0.0
C1284 C 0.83585 0.16705 0.4757 0.0
C1285 C 0.84481 0.19058 0.46862 0.0
C1286 C 0.85167 0.1534 0.48685 0.0
C1287 C 0.87665 0.16311 0.49157 0.0
C1288 C 0.8857 0.18659 0.48436 0.0
C1289 C 0.86991 0.20021 0.47291 0.0
C1290 C 0.89336 0.14829 0.50316 0.0
C1291 C 0.91585 0.14615 0.49024 0.0
C1292 C 0.88639 0.13501 0.52583 0.0
C1293 C 0.86446 0.13864 0.5421 0.0
C1294 C 0.86186 0.16149 0.55086 0.0
C1295 C 0.84117 0.1649 0.56607 0.0
C1296 C 0.82299 0.14558 0.57279 0.0
C1297 C 0.8255 0.12279 0.56435 0.0
C1298 C 0.84615 0.11927 0.54911 0.0
C1299 C 0.95495 0.07381 0.55775 0.0
C1300 C 0.95793 0.05637 0.5391 0.0
C1301 C 0.94348 0.09299 0.55141 0.0
C1302 C 0.935 0.09507 0.52627 0.0
C1303 C 0.93768 0.07749 0.50771 0.0
C1304 C 0.94897 0.05821 0.51411 0.0
C1305 C 0.92245 0.1151 0.51954 0.0
C1306 C 0.9008 0.11824 0.53344 0.0
C1307 C 0.93079 0.13005 0.49849 0.0
C1308 C 0.95543 0.12994 0.48559 0.0
C1309 C 0.95745 0.12824 0.4585 0.0
C1310 C 0.98088 0.12971 0.44636 0.0
C1311 C 1.00243 0.13303 0.4611 0.0
C1312 C 1.00062 0.13437 0.48803 0.0
C1313 C 0.97725 0.13287 0.50027 0.0
H1314 H 0.02055 0.13469 0.45164 0.0
H1315 H 0.80699 0.14826 0.58458 0.0
H1316 H 0.27139 0.61269 0.142 0.0
H1317 H 0.23133 0.59495 0.12408 0.0
H1318 H 0.20125 0.65812 0.14391 0.0
H1319 H 0.24139 0.67583 0.16244 0.0
H1320 H 0.16687 0.6209 0.15292 0.0
H1321 H 0.22029 0.64573 0.08057 0.0
H1322 H 0.25829 0.64908 0.05305 0.0
H1323 H 0.24584 0.57365 0.04135 0.0
H1324 H 0.20793 0.56981 0.06911 0.0
H1325 H 0.06222 0.59186 0.06951 0.0
H1326 H 0.10106 0.61134 0.08902 0.0
H1327 H 0.13241 0.54739 0.07861 0.0
H1328 H 0.09368 0.52778 0.05907 0.0
H1329 H 0.16558 0.58671 0.0642 0.0
H1330 H 0.11159 0.5628 0.13756 0.0
H1331 H 0.07302 0.56076 0.16399 0.0
H1332 H 0.086 0.63653 0.17232 0.0
H1333 H 0.12448 0.63905 0.14559 0.0
C1334 C 0.25628 0.62287 0.14252 0.0
C1335 C 0.25977 0.64584 0.15342 0.0
C1336 C 0.23332 0.6127 0.13219 0.0
C1337 C 0.21325 0.62533 0.13199 0.0
C1338 C 0.21639 0.64798 0.14363 0.0
C1339 C 0.23937 0.65811 0.15427 0.0
C1340 C 0.18924 0.61491 0.11936 0.0
C1341 C 0.16661 0.61376 0.13338 0.0
C1342 C 0.18867 0.60523 0.09393 0.0
C1343 C 0.21139 0.60747 0.07712 0.0
C1344 C 0.22575 0.62984 0.07228 0.0
C1345 C 0.24726 0.63183 0.05662 0.0
C1346 C 0.25451 0.61159 0.04551 0.0
C1347 C 0.24022 0.58931 0.04999 0.0
C1348 C 0.21871 0.58722 0.06567 0.0
C1349 C 0.07737 0.58191 0.07129 0.0
C1350 C 0.0747 0.55818 0.06269 0.0
C1351 C 0.09958 0.59308 0.0826 0.0
C1352 C 0.11969 0.58082 0.08556 0.0
C1353 C 0.11721 0.55726 0.07662 0.0
C1354 C 0.09497 0.54603 0.06548 0.0
C1355 C 0.14334 0.5925 0.09785 0.0
C1356 C 0.16588 0.59391 0.08372 0.0
C1357 C 0.14377 0.60263 0.12304 0.0
C1358 C 0.12079 0.60112 0.13935 0.0
C1359 C 0.10613 0.57904 0.14486 0.0
C1360 C 0.08429 0.57779 0.15992 0.0
C1361 C 0.07702 0.5985 0.16977 0.0
C1362 C 0.09163 0.6205 0.16464 0.0
C1363 C 0.11347 0.62185 0.14956 0.0
H1364 H 0.0601 0.59751 0.18141 0.0
H1365 H 0.27117 0.61317 0.03339 0.0
H1366 H 0.28887 0.4003 0.69414 0.0
H1367 H 0.32489 0.42044 0.66974 0.0
H1368 H 0.27774 0.42933 0.60599 0.0
H1369 H 0.24117 0.41024 0.63072 0.0
H1370 H 0.32311 0.4111 0.59221 0.0
H1371 H 0.29661 0.47554 0.6403 0.0
H1372 H 0.28467 0.49585 0.67981 0.0
H1373 H 0.35643 0.49358 0.71183 0.0
H1374 H 0.36867 0.47293 0.67264 0.0
H1375 H 0.41408 0.48573 0.51805 0.0
H1376 H 0.37587 0.46905 0.54173 0.0
H1377 H 0.41624 0.47621 0.61313 0.0
H1378 H 0.45419 0.49397 0.58956 0.0
H1379 H 0.37313 0.48652 0.62281 0.0
H1380 H 0.40018 0.42141 0.57828 0.0
H1381 H 0.41356 0.39904 0.54093 0.0
H1382 H 0.34323 0.3996 0.50491 0.0
H1383 H 0.32956 0.42225 0.54191 0.0
C1384 C 0.28586 0.40688 0.67516 0.0
C1385 C 0.26176 0.40369 0.66468 0.0
C1386 C 0.30665 0.41827 0.66112 0.0
C1387 C 0.30403 0.42652 0.63608 0.0
C1388 C 0.28021 0.42306 0.62527 0.0
C1389 C 0.2593 0.41198 0.63946 0.0
C1390 C 0.32624 0.43863 0.62124 0.0
C1391 C 0.33385 0.42779 0.59863 0.0
C1392 C 0.34075 0.45997 0.63011 0.0
C1393 C 0.33346 0.47248 0.65363 0.0
C1394 C 0.30976 0.47919 0.65586 0.0
C1395 C 0.30296 0.4908 0.67818 0.0
C1396 C 0.31976 0.49595 0.69835 0.0
C1397 C 0.34343 0.48955 0.69621 0.0
C1398 C 0.35032 0.47791 0.67393 0.0
C1399 C 0.41473 0.48387 0.53883 0.0
C1400 C 0.43714 0.49101 0.55192 0.0
C1401 C 0.3929 0.47415 0.55237 0.0
C1402 C 0.39311 0.47075 0.57926 0.0
C1403 C 0.41544 0.47849 0.59243 0.0
C1404 C 0.43718 0.48862 0.57893 0.0
C1405 C 0.37021 0.45903 0.59359 0.0
C1406 C 0.36244 0.46988 0.6162 0.0
C1407 C 0.35582 0.43741 0.58499 0.0
C1408 C 0.36395 0.42374 0.56274 0.0
C1409 C 0.38764 0.41691 0.56231 0.0
C1410 C 0.39526 0.40416 0.54122 0.0
C1411 C 0.37928 0.39796 0.52053 0.0
C1412 C 0.35561 0.40445 0.52093 0.0
C1413 C 0.3479 0.41722 0.54197 0.0
H1414 H 0.38522 0.38809 0.50422 0.0
H1415 H 0.31446 0.50494 0.71561 0.0
H1416 H 0.74231 0.71394 0.91951 0.0
H1417 H 0.76104 0.68148 0.93666 0.0
H1418 H 0.81024 0.68457 0.86978 0.0
H1419 H 0.791 0.71634 0.85213 0.0
H1420 H 0.79785 0.63955 0.88651 0.0
H1421 H 0.82776 0.71706 0.92351 0.0
H1422 H 0.823 0.75421 0.94635 0.0
H1423 H 0.79158 0.71462 1.01254 0.0
H1424 H 0.79584 0.6772 0.98991 0.0
H1425 H 0.91356 0.61565 0.9297 0.0
H1426 H 0.87713 0.62918 0.91203 0.0
H1427 H 0.84015 0.62094 0.98684 0.0
H1428 H 0.87684 0.60776 1.00466 0.0
H1429 H 0.83982 0.6633 0.96928 0.0
H1430 H 0.81665 0.58528 0.93304 0.0
H1431 H 0.82232 0.54906 0.90875 0.0
H1432 H 0.84384 0.59021 0.84077 0.0
H1433 H 0.83794 0.62661 0.86447 0.0
C1434 C 0.75656 0.70718 0.90809 0.0
C1435 C 0.76553 0.71797 0.88471 0.0
C1436 C 0.76735 0.68874 0.91798 0.0
C1437 C 0.78738 0.68097 0.90474 0.0
C1438 C 0.79491 0.69037 0.88039 0.0
C1439 C 0.78408 0.7087 0.87046 0.0
C1440 C 0.80261 0.66539 0.91742 0.0
C1441 C 0.80701 0.64465 0.90464 0.0
C1442 C 0.81427 0.67189 0.94126 0.0
C1443 C 0.81182 0.69436 0.95492 0.0
C1444 C 0.81967 0.71629 0.94287 0.0
C1445 C 0.81708 0.73738 0.95577 0.0
C1446 C 0.80691 0.73677 0.98085 0.0
C1447 C 0.79938 0.71506 0.99309 0.0
C1448 C 0.80188 0.69391 0.98024 0.0
C1449 C 0.89746 0.61631 0.94222 0.0
C1450 C 0.89806 0.61089 0.96858 0.0
C1451 C 0.87656 0.62386 0.93208 0.0
C1452 C 0.85575 0.62586 0.94804 0.0
C1453 C 0.85596 0.61951 0.97415 0.0
C1454 C 0.87695 0.61213 0.98434 0.0
C1455 C 0.83534 0.63743 0.93831 0.0
C1456 C 0.83013 0.65766 0.95156 0.0
C1457 C 0.82319 0.63052 0.91482 0.0
C1458 C 0.82698 0.60869 0.90058 0.0
C1459 C 0.82273 0.58662 0.91295 0.0
C1460 C 0.82594 0.56606 0.89929 0.0
C1461 C 0.83364 0.56737 0.87334 0.0
C1462 C 0.83792 0.58922 0.8609 0.0
C1463 C 0.8345 0.6098 0.87438 0.0
H1464 H 0.83618 0.55143 0.86284 0.0
H1465 H 0.80493 0.75312 0.99082 0.0
H1466 H 0.36258 0.7946 0.14179 0.0
H1467 H 0.37687 0.83413 0.12438 0.0
H1468 H 0.45081 0.83246 0.15203 0.0
H1469 H 0.43635 0.79374 0.17086 0.0
H1470 H 0.44169 0.87423 0.1598 0.0
H1471 H 0.43237 0.82198 0.08579 0.0
H1472 H 0.41013 0.7919 0.05619 0.0
H1473 H 0.35743 0.83774 0.04037 0.0
H1474 H 0.37919 0.868 0.07015 0.0
H1475 H 0.51625 0.95717 0.07936 0.0
H1476 H 0.49451 0.92006 0.09743 0.0
H1477 H 0.42372 0.94064 0.08129 0.0
H1478 H 0.44559 0.97837 0.06334 0.0
H1479 H 0.42731 0.89147 0.06813 0.0
H1480 H 0.44058 0.9452 0.14041 0.0
H1481 H 0.46541 0.97493 0.1685 0.0
H1482 H 0.51355 0.92522 0.1861 0.0
H1483 H 0.48922 0.89529 0.15779 0.0
C1484 C 0.3818 0.80274 0.14458 0.0
C1485 C 0.39827 0.79059 0.15767 0.0
C1486 C 0.39008 0.82533 0.13421 0.0
C1487 C 0.41515 0.83633 0.1363 0.0
C1488 C 0.43143 0.82449 0.14989 0.0
C1489 C 0.42313 0.80207 0.16046 0.0
C1490 C 0.42461 0.86006 0.12444 0.0
C1491 C 0.43865 0.8778 0.13968 0.0
C1492 C 0.42033 0.86527 0.0983 0.0
C1493 C 0.40722 0.84712 0.08042 0.0
C1494 C 0.41592 0.82556 0.07615 0.0
C1495 C 0.40343 0.8085 0.05932 0.0
C1496 C 0.38233 0.81287 0.04647 0.0
C1497 C 0.37374 0.83436 0.05038 0.0
C1498 C 0.38615 0.85148 0.06722 0.0
C1499 C 0.49604 0.95389 0.07959 0.0
C1500 C 0.48266 0.97087 0.07008 0.0
C1501 C 0.48362 0.93259 0.08997 0.0
C1502 C 0.45745 0.92757 0.09101 0.0
C1503 C 0.44393 0.94413 0.08077 0.0
C1504 C 0.45642 0.96569 0.07056 0.0
C1505 C 0.44461 0.90523 0.10342 0.0
C1506 C 0.43003 0.88784 0.08831 0.0
C1507 C 0.44865 0.90018 0.12957 0.0
C1508 C 0.46318 0.91806 0.14682 0.0
C1509 C 0.45657 0.94066 0.15012 0.0
C1510 C 0.47054 0.95754 0.16611 0.0
C1511 C 0.49107 0.95198 0.17904 0.0
C1512 C 0.49765 0.9295 0.17606 0.0
C1513 C 0.48376 0.91257 0.16007 0.0
H1514 H 0.50187 0.96508 0.1914 0.0
H1515 H 0.37269 0.79964 0.03344 0.0
H1516 H 0.12865 0.23841 0.69703 0.0
H1517 H 0.11142 0.20293 0.67256 0.0
H1518 H 0.09523 0.24628 0.60967 0.0
H1519 H 0.11248 0.28209 0.63427 0.0
H1520 H 0.05778 0.20897 0.61637 0.0
H1521 H 0.14632 0.21895 0.60656 0.0
H1522 H 0.18997 0.22539 0.62073 0.0
H1523 H 0.1756 0.16079 0.6638 0.0
H1524 H 0.13175 0.15412 0.65019 0.0
H1525 H 0.03933 0.11089 0.52811 0.0
H1526 H 0.05609 0.14878 0.54858 0.0
H1527 H 0.07494 0.11203 0.61569 0.0
H1528 H 0.05863 0.07403 0.59514 0.0
H1529 H 0.11164 0.1476 0.60374 0.0
H1530 H 0.02196 0.13885 0.61398 0.0
H1531 H 0.97931 0.13173 0.5969 0.0
H1532 H 0.99676 0.19403 0.55031 0.0
H1533 H 0.03966 0.20134 0.56684 0.0
C1534 C 0.1215 0.24048 0.67797 0.0
C1535 C 0.12234 0.26319 0.66752 0.0
C1536 C 0.11159 0.22011 0.66396 0.0
C1537 C 0.10243 0.22178 0.63897 0.0
C1538 C 0.10226 0.24444 0.62885 0.0
C1539 C 0.1121 0.26493 0.64296 0.0
C1540 C 0.09392 0.19981 0.62333 0.0
C1541 C 0.0697 0.19572 0.61333 0.0
C1542 C 0.10928 0.18228 0.6194 0.0
C1543 C 0.13568 0.18615 0.62753 0.0
C1544 C 0.15242 0.2062 0.61921 0.0
C1545 C 0.1772 0.20988 0.62712 0.0
C1546 C 0.18554 0.19354 0.6432 0.0
C1547 C 0.16911 0.17345 0.65136 0.0
C1548 C 0.14429 0.1697 0.64354 0.0
C1549 C 0.04716 0.11082 0.54717 0.0
C1550 C 0.0475 0.08932 0.55999 0.0
C1551 C 0.05665 0.13257 0.55894 0.0
C1552 C 0.06645 0.1334 0.58394 0.0
C1553 C 0.06743 0.11194 0.59646 0.0
C1554 C 0.05805 0.09017 0.58466 0.0
C1555 C 0.07538 0.15653 0.59727 0.0
C1556 C 0.09974 0.16087 0.60676 0.0
C1557 C 0.06019 0.17429 0.60054 0.0
C1558 C 0.03407 0.17056 0.59152 0.0
C1559 C 0.01671 0.15102 0.60007 0.0
C1560 C 0.9925 0.14694 0.59047 0.0
C1561 C 0.98534 0.16241 0.57252 0.0
C1562 C 1.00234 0.18207 0.56423 0.0
C1563 C 0.02659 0.18621 0.57373 0.0
H1564 H 0.96662 0.15916 0.56503 0.0
H1565 H 0.20473 0.19642 0.64931 0.0
H1566 H 0.70933 0.29666 0.50815 0.0
H1567 H 0.67338 0.31142 0.52655 0.0
H1568 H 0.62419 0.25626 0.48657 0.0
H1569 H 0.6601 0.24268 0.46624 0.0
H1570 H 0.61138 0.29472 0.47611 0.0
H1571 H 0.62564 0.26173 0.55589 0.0
H1572 H 0.6489 0.25075 0.59296 0.0
H1573 H 0.67088 0.3242 0.61292 0.0
H1574 H 0.6481 0.33569 0.57576 0.0
H1575 H 0.52361 0.36717 0.51212 0.0
H1576 H 0.54174 0.33119 0.51842 0.0
H1577 H 0.61299 0.37421 0.53399 0.0
H1578 H 0.595 0.41005 0.52772 0.0
H1579 H 0.60339 0.33101 0.56287 0.0
H1580 H 0.59995 0.36041 0.47372 0.0
H1581 H 0.5765 0.37109 0.43658 0.0
H1582 H 0.53275 0.30129 0.43587 0.0
H1583 H 0.55576 0.29035 0.47328 0.0
C1584 C 0.69089 0.28757 0.50328 0.0
C1585 C 0.68773 0.26878 0.48522 0.0
C1586 C 0.67024 0.29573 0.51434 0.0
C1587 C 0.64593 0.28486 0.50817 0.0
C1588 C 0.64273 0.26495 0.49167 0.0
C1589 C 0.66338 0.25708 0.48018 0.0
C1590 C 0.62441 0.29671 0.51538 0.0
C1591 C 0.60913 0.30187 0.49539 0.0
C1592 C 0.62138 0.3063 0.54044 0.0
C1593 C 0.63516 0.29957 0.56292 0.0
C1594 C 0.63555 0.27556 0.56807 0.0
C1595 C 0.64865 0.26924 0.58913 0.0
C1596 C 0.66136 0.28676 0.60528 0.0
C1597 C 0.66099 0.31065 0.60042 0.0
C1598 C 0.64794 0.31707 0.57938 0.0
C1599 C 0.54293 0.36886 0.51765 0.0
C1600 C 0.5581 0.39124 0.51901 0.0
C1601 C 0.55322 0.34836 0.5213 0.0
C1602 C 0.57872 0.35012 0.52648 0.0
C1603 C 0.59327 0.37252 0.5301 0.0
C1604 C 0.58307 0.39293 0.52623 0.0
C1605 C 0.59148 0.32938 0.52343 0.0
C1606 C 0.60509 0.32279 0.54405 0.0
C1607 C 0.59288 0.31818 0.49906 0.0
C1608 C 0.57932 0.32467 0.47642 0.0
C1609 C 0.58522 0.34741 0.46572 0.0
C1610 C 0.57203 0.3535 0.44463 0.0
C1611 C 0.55309 0.3369 0.43392 0.0
C1612 C 0.54737 0.31415 0.44423 0.0
C1613 C 0.56047 0.308 0.46538 0.0
H1614 H 0.5429 0.34164 0.41759 0.0
H1615 H 0.67149 0.28183 0.62157 0.0
loop_
_geom_bond_atom_site_label_1
_geom_bond_atom_site_label_2
_geom_bond_distance
_geom_bond_site_symmetry_2
_ccdc_geom_bond_type
P0 O11 1.490 . S
P0 C14 1.812 . S
P0 C20 1.803 . S
P0 C26 1.819 . S
H1 C15 0.941 . S
H2 C16 0.939 . S
H3 C18 0.940 . S
H4 C19 0.940 . S
H5 C21 0.939 . S
H6 C22 0.942 . S
H7 C24 0.940 . S
H8 C25 0.939 . S
H9 C27 0.941 . S
H10 C31 0.939 . S
O11 P0 1.490 . S
H12 C28 0.939 . S
H13 C30 0.940 . S
C14 P0 1.812 . S
C14 C15 1.389 . S
C14 C19 1.391 . S
C15 H1 0.941 . S
C15 C14 1.389 . S
C15 C16 1.397 . S
C16 H2 0.939 . S
C16 C15 1.397 . S
C16 C17 1.378 . S
C17 C16 1.378 . S
C17 C18 1.378 . S
C18 H3 0.940 . S
C18 C17 1.378 . S
C18 C19 1.396 . S
C19 H4 0.940 . S
C19 C14 1.391 . S
C19 C18 1.396 . S
C20 P0 1.803 . S
C20 C21 1.378 . S
C20 C25 1.400 . S
C21 H5 0.939 . S
C21 C20 1.378 . S
C21 C22 1.361 . S
C22 H6 0.942 . S
C22 C21 1.361 . S
C22 C23 1.369 . S
C23 C22 1.369 . S
C23 C24 1.404 . S
C24 H7 0.940 . S
C24 C23 1.404 . S
C24 C25 1.389 . S
C25 H8 0.939 . S
C25 C20 1.400 . S
C25 C24 1.389 . S
C26 P0 1.819 . S
C26 C27 1.391 . S
C26 C31 1.391 . S
C27 H9 0.941 . S
C27 C26 1.391 . S
C27 C28 1.396 . S
C28 H12 0.939 . S
C28 C27 1.396 . S
C28 C29 1.397 . S
C29 C28 1.397 . S
C29 C30 1.385 . S
C30 H13 0.940 . S
C30 C29 1.385 . S
C30 C31 1.388 . S
C31 H10 0.939 . S
C31 C26 1.391 . S
C31 C30 1.388 . S
P32 O43 1.490 . S
P32 C46 1.812 . S
P32 C52 1.803 . S
P32 C58 1.819 . S
H33 C47 0.941 . S
H34 C48 0.939 . S
H35 C50 0.940 . S
H36 C51 0.940 . S
H37 C53 0.939 . S
H38 C54 0.942 . S
H39 C56 0.940 . S
H40 C57 0.939 . S
H41 C59 0.941 . S
H42 C63 0.939 . S
O43 P32 1.490 . S
H44 C60 0.939 . S
H45 C62 0.940 . S
C46 P32 1.812 . S
C46 C47 1.389 . S
C46 C51 1.391 . S
C47 H33 0.941 . S
C47 C46 1.389 . S
C47 C48 1.397 . S
C48 H34 0.939 . S
C48 C47 1.397 . S
C48 C49 1.378 . S
C49 C48 1.378 . S
C49 C50 1.378 . S
C50 H35 0.940 . S
C50 C49 1.378 . S
C50 C51 1.396 . S
C51 H36 0.940 . S
C51 C46 1.391 . S
C51 C50 1.396 . S
C52 P32 1.803 . S
C52 C53 1.378 . S
C52 C57 1.400 . S
C53 H37 0.939 . S
C53 C52 1.378 . S
C53 C54 1.361 . S
C54 H38 0.942 . S
C54 C53 1.361 . S
C54 C55 1.369 . S
C55 C54 1.369 . S
C55 C56 1.404 . S
C56 H39 0.940 . S
C56 C55 1.404 . S
C56 C57 1.389 . S
C57 H40 0.939 . S
C57 C52 1.400 . S
C57 C56 1.389 . S
C58 P32 1.819 . S
C58 C59 1.391 . S
C58 C63 1.391 . S
C59 H41 0.941 . S
C59 C58 1.391 . S
C59 C60 1.396 . S
C60 H44 0.939 . S
C60 C59 1.396 . S
C60 C61 1.397 . S
C61 C60 1.397 . S
C61 C62 1.385 . S
C62 H45 0.940 . S
C62 C61 1.385 . S
C62 C63 1.388 . S
C63 H42 0.939 . S
C63 C58 1.391 . S
C63 C62 1.388 . S
P64 O75 1.490 . S
P64 C78 1.812 . S
P64 C84 1.803 . S
P64 C90 1.819 . S
H65 C79 0.941 . S
H66 C80 0.939 . S
H67 C82 0.940 . S
H68 C83 0.940 . S
H69 C85 0.939 . S
H70 C86 0.942 . S
H71 C88 0.940 . S
H72 C89 0.939 . S
H73 C91 0.941 . S
H74 C95 0.939 . S
O75 P64 1.490 . S
H76 C92 0.939 . S
H77 C94 0.940 . S
C78 P64 1.812 . S
C78 C79 1.389 . S
C78 C83 1.391 . S
C79 H65 0.941 . S
C79 C78 1.389 . S
C79 C80 1.397 . S
C80 H66 0.939 . S
C80 C79 1.397 . S
C80 C81 1.378 . S
C81 C80 1.378 . S
C81 C82 1.378 . S
C82 H67 0.940 . S
C82 C81 1.378 . S
C82 C83 1.396 . S
C83 H68 0.940 . S
C83 C78 1.391 . S
C83 C82 1.396 . S
C84 P64 1.803 . S
C84 C85 1.378 . S
C84 C89 1.400 . S
C85 H69 0.939 . S
C85 C84 1.378 . S
C85 C86 1.361 . S
C86 H70 0.942 . S
C86 C85 1.361 . S
C86 C87 1.369 . S
C87 C86 1.369 . S
C87 C88 1.404 . S
C88 H71 0.940 . S
C88 C87 1.404 . S
C88 C89 1.389 . S
C89 H72 0.939 . S
C89 C84 1.400 . S
C89 C88 1.389 . S
C90 P64 1.819 . S
C90 C91 1.391 . S
C90 C95 1.391 . S
C91 H73 0.941 . S
C91 C90 1.391 . S
C91 C92 1.396 . S
C92 H76 0.939 . S
C92 C91 1.396 . S
C92 C93 1.397 . S
C93 C92 1.397 . S
C93 C94 1.385 . S
C94 H77 0.940 . S
C94 C93 1.385 . S
C94 C95 1.388 . S
C95 H74 0.939 . S
C95 C90 1.391 . S
C95 C94 1.388 . S
P96 O107 1.490 . S
P96 C110 1.812 . S
P96 C116 1.803 . S
P96 C122 1.819 . S
H97 C111 0.941 . S
H98 C112 0.939 . S
H99 C114 0.940 . S
H100 C115 0.940 . S
H101 C117 0.939 . S
H102 C118 0.942 . S
H103 C120 0.940 . S
H104 C121 0.939 . S
H105 C123 0.941 . S
H106 C127 0.939 . S
O107 P96 1.490 . S
H108 C124 0.939 . S
H109 C126 0.940 . S
C110 P96 1.812 . S
C110 C111 1.389 . S
C110 C115 1.391 . S
C111 H97 0.941 . S
C111 C110 1.389 . S
C111 C112 1.397 . S
C112 H98 0.939 . S
C112 C111 1.397 . S
C112 C113 1.378 . S
C113 C112 1.378 . S
C113 C114 1.378 . S
C114 H99 0.940 . S
C114 C113 1.378 . S
C114 C115 1.396 . S
C115 H100 0.940 . S
C115 C110 1.391 . S
C115 C114 1.396 . S
C116 P96 1.803 . S
C116 C117 1.378 . S
C116 C121 1.400 . S
C117 H101 0.939 . S
C117 C116 1.378 . S
C117 C118 1.361 . S
C118 H102 0.942 . S
C118 C117 1.361 . S
C118 C119 1.369 . S
C119 C118 1.369 . S
C119 C120 1.404 . S
C120 H103 0.940 . S
C120 C119 1.404 . S
C120 C121 1.389 . S
C121 H104 0.939 . S
C121 C116 1.400 . S
C121 C120 1.389 . S
C122 P96 1.819 . S
C122 C123 1.391 . S
C122 C127 1.391 . S
C123 H105 0.941 . S
C123 C122 1.391 . S
C123 C124 1.396 . S
C124 H108 0.939 . S
C124 C123 1.396 . S
C124 C125 1.397 . S
C125 C124 1.397 . S
C125 C126 1.385 . S
C126 H109 0.940 . S
C126 C125 1.385 . S
C126 C127 1.388 . S
C127 H106 0.939 . S
C127 C122 1.391 . S
C127 C126 1.388 . S
P128 O139 1.490 . S
P128 C142 1.812 . S
P128 C148 1.803 . S
P128 C154 1.819 . S
H129 C143 0.941 . S
H130 C144 0.939 . S
H131 C146 0.940 . S
H132 C147 0.940 . S
H133 C149 0.939 . S
H134 C150 0.942 . S
H135 C152 0.940 . S
H136 C153 0.939 . S
H137 C155 0.941 . S
H138 C159 0.939 . S
O139 P128 1.490 . S
H140 C156 0.939 . S
H141 C158 0.940 . S
C142 P128 1.812 . S
C142 C143 1.389 . S
C142 C147 1.391 . S
C143 H129 0.941 . S
C143 C142 1.389 . S
C143 C144 1.397 . S
C144 H130 0.939 . S
C144 C143 1.397 . S
C144 C145 1.378 . S
C145 C144 1.378 . S
C145 C146 1.378 . S
C146 H131 0.940 . S
C146 C145 1.378 . S
C146 C147 1.396 . S
C147 H132 0.940 . S
C147 C142 1.391 . S
C147 C146 1.396 . S
C148 P128 1.803 . S
C148 C149 1.378 . S
C148 C153 1.400 . S
C149 H133 0.939 . S
C149 C148 1.378 . S
C149 C150 1.361 . S
C150 H134 0.942 . S
C150 C149 1.361 . S
C150 C151 1.369 . S
C151 C150 1.369 . S
C151 C152 1.404 . S
C152 H135 0.940 . S
C152 C151 1.404 . S
C152 C153 1.389 . S
C153 H136 0.939 . S
C153 C148 1.400 . S
C153 C152 1.389 . S
C154 P128 1.819 . S
C154 C155 1.391 . S
C154 C159 1.391 . S
C155 H137 0.941 . S
C155 C154 1.391 . S
C155 C156 1.396 . S
C156 H140 0.939 . S
C156 C155 1.396 . S
C156 C157 1.397 . S
C157 C156 1.397 . S
C157 C158 1.385 . S
C158 H141 0.940 . S
C158 C157 1.385 . S
C158 C159 1.388 . S
C159 H138 0.939 . S
C159 C154 1.391 . S
C159 C158 1.388 . S
P160 O171 1.490 . S
P160 C174 1.812 . S
P160 C180 1.803 . S
P160 C186 1.819 . S
H161 C175 0.941 . S
H162 C176 0.939 . S
H163 C178 0.940 . S
H164 C179 0.940 . S
H165 C181 0.939 . S
H166 C182 0.942 . S
H167 C184 0.940 . S
H168 C185 0.939 . S
H169 C187 0.941 . S
H170 C191 0.939 . S
O171 P160 1.490 . S
H172 C188 0.939 . S
H173 C190 0.940 . S
C174 P160 1.812 . S
C174 C175 1.389 . S
C174 C179 1.391 . S
C175 H161 0.941 . S
C175 C174 1.389 . S
C175 C176 1.397 . S
C176 H162 0.939 . S
C176 C175 1.397 . S
C176 C177 1.378 . S
C177 C176 1.378 . S
C177 C178 1.378 . S
C178 H163 0.940 . S
C178 C177 1.378 . S
C178 C179 1.396 . S
C179 H164 0.940 . S
C179 C174 1.391 . S
C179 C178 1.396 . S
C180 P160 1.803 . S
C180 C181 1.378 . S
C180 C185 1.400 . S
C181 H165 0.939 . S
C181 C180 1.378 . S
C181 C182 1.361 . S
C182 H166 0.942 . S
C182 C181 1.361 . S
C182 C183 1.369 . S
C183 C182 1.369 . S
C183 C184 1.404 . S
C184 H167 0.940 . S
C184 C183 1.404 . S
C184 C185 1.389 . S
C185 H168 0.939 . S
C185 C180 1.400 . S
C185 C184 1.389 . S
C186 P160 1.819 . S
C186 C187 1.391 . S
C186 C191 1.391 . S
C187 H169 0.941 . S
C187 C186 1.391 . S
C187 C188 1.396 . S
C188 H172 0.939 . S
C188 C187 1.396 . S
C188 C189 1.397 . S
C189 C188 1.397 . S
C189 C190 1.385 . S
C190 H173 0.940 . S
C190 C189 1.385 . S
C190 C191 1.388 . S
C191 H170 0.939 . S
C191 C186 1.391 . S
C191 C190 1.388 . S
P192 O203 1.490 . S
P192 C206 1.812 . S
P192 C212 1.803 . S
P192 C218 1.819 . S
H193 C207 0.941 . S
H194 C208 0.939 . S
H195 C210 0.940 . S
H196 C211 0.940 . S
H197 C213 0.939 . S
H198 C214 0.942 . S
H199 C216 0.940 . S
H200 C217 0.939 . S
H201 C219 0.941 . S
H202 C223 0.939 . S
O203 P192 1.490 . S
H204 C220 0.939 . S
H205 C222 0.940 . S
C206 P192 1.812 . S
C206 C207 1.389 . S
C206 C211 1.391 . S
C207 H193 0.941 . S
C207 C206 1.389 . S
C207 C208 1.397 . S
C208 H194 0.939 . S
C208 C207 1.397 . S
C208 C209 1.378 . S
C209 C208 1.378 . S
C209 C210 1.378 . S
C210 H195 0.940 . S
C210 C209 1.378 . S
C210 C211 1.396 . S
C211 H196 0.940 . S
C211 C206 1.391 . S
C211 C210 1.396 . S
C212 P192 1.803 . S
C212 C213 1.378 . S
C212 C217 1.400 . S
C213 H197 0.939 . S
C213 C212 1.378 . S
C213 C214 1.361 . S
C214 H198 0.942 . S
C214 C213 1.361 . S
C214 C215 1.369 . S
C215 C214 1.369 . S
C215 C216 1.404 . S
C216 H199 0.940 . S
C216 C215 1.404 . S
C216 C217 1.389 . S
C217 H200 0.939 . S
C217 C212 1.400 . S
C217 C216 1.389 . S
C218 P192 1.819 . S
C218 C219 1.391 . S
C218 C223 1.391 . S
C219 H201 0.941 . S
C219 C218 1.391 . S
C219 C220 1.396 . S
C220 H204 0.939 . S
C220 C219 1.396 . S
C220 C221 1.397 . S
C221 C220 1.397 . S
C221 C222 1.385 . S
C222 H205 0.940 . S
C222 C221 1.385 . S
C222 C223 1.388 . S
C223 H202 0.939 . S
C223 C218 1.391 . S
C223 C222 1.388 . S
P224 O235 1.490 . S
P224 C238 1.812 . S
P224 C244 1.803 . S
P224 C250 1.819 . S
H225 C239 0.941 . S
H226 C240 0.939 . S
H227 C242 0.940 . S
H228 C243 0.940 . S
H229 C245 0.939 . S
H230 C246 0.942 . S
H231 C248 0.940 . S
H232 C249 0.939 . S
H233 C251 0.941 . S
H234 C255 0.939 . S
O235 P224 1.490 . S
H236 C252 0.939 . S
H237 C254 0.940 . S
C238 P224 1.812 . S
C238 C239 1.389 . S
C238 C243 1.391 . S
C239 H225 0.941 . S
C239 C238 1.389 . S
C239 C240 1.397 . S
C240 H226 0.939 . S
C240 C239 1.397 . S
C240 C241 1.378 . S
C241 C240 1.378 . S
C241 C242 1.378 . S
C242 H227 0.940 . S
C242 C241 1.378 . S
C242 C243 1.396 . S
C243 H228 0.940 . S
C243 C238 1.391 . S
C243 C242 1.396 . S
C244 P224 1.803 . S
C244 C245 1.378 . S
C244 C249 1.400 . S
C245 H229 0.939 . S
C245 C244 1.378 . S
C245 C246 1.361 . S
C246 H230 0.942 . S
C246 C245 1.361 . S
C246 C247 1.369 . S
C247 C246 1.369 . S
C247 C248 1.404 . S
C248 H231 0.940 . S
C248 C247 1.404 . S
C248 C249 1.389 . S
C249 H232 0.939 . S
C249 C244 1.400 . S
C249 C248 1.389 . S
C250 P224 1.819 . S
C250 C251 1.391 . S
C250 C255 1.391 . S
C251 H233 0.941 . S
C251 C250 1.391 . S
C251 C252 1.396 . S
C252 H236 0.939 . S
C252 C251 1.396 . S
C252 C253 1.397 . S
C253 C252 1.397 . S
C253 C254 1.385 . S
C254 H237 0.940 . S
C254 C253 1.385 . S
C254 C255 1.388 . S
C255 H234 0.939 . S
C255 C250 1.391 . S
C255 C254 1.388 . S
Ho256 C259 2.811 . S
Ho256 O276 2.322 . S
Ho256 O278 2.378 . S
Ho256 O279 2.524 . S
Ho256 O280 2.381 1_545 S
Ho256 O281 2.669 1_545 S
Ho256 O283 2.346 1_445 S
Ho256 O287 2.305 1_455 S
Ho257 C268 2.787 1_545 S
Ho257 O277 2.373 1_655 S
Ho257 O281 2.292 1_645 S
Ho257 O282 2.302 1_545 S
Ho257 O284 2.365 1_545 S
Ho257 O285 2.493 1_545 S
Ho257 O286 2.399 . S
Ho257 O287 2.684 . S
C258 O276 1.259 . S
C258 O277 1.268 . S
C259 Ho256 2.811 . S
C259 C260 1.488 . S
C259 O278 1.215 . S
C259 O279 1.289 . S
C260 C259 1.488 . S
C260 C261 1.348 . S
C260 C265 1.413 . S
C261 C260 1.348 . S
C261 C262 1.442 . S
C261 H288 0.930 . S
C262 C261 1.442 . S
C262 C263 1.381 . S
C262 H289 0.931 . S
C263 C262 1.381 . S
C263 C264 1.321 . S
C264 C263 1.321 . S
C264 C265 1.403 . S
C264 H290 0.934 . S
C265 C260 1.413 . S
C265 C264 1.403 . S
C265 H291 0.930 . S
C266 O280 1.275 . S
C266 O281 1.256 . S
C267 O282 1.259 . S
C267 O283 1.268 . S
C268 Ho257 2.787 1_565 S
C268 C269 1.488 . S
C268 O284 1.215 . S
C268 O285 1.289 . S
C269 C268 1.488 . S
C269 C270 1.348 . S
C269 C274 1.413 . S
C270 C269 1.348 . S
C270 C271 1.442 . S
C270 H292 0.930 . S
C271 C270 1.442 . S
C271 C272 1.381 . S
C271 H293 0.931 . S
C272 C271 1.381 . S
C272 C273 1.321 . S
C273 C272 1.321 . S
C273 C274 1.403 . S
C273 H294 0.934 . S
C274 C269 1.413 . S
C274 C273 1.403 . S
C274 H295 0.930 . S
C275 O286 1.275 . S
C275 O287 1.256 . S
O276 Ho256 2.322 . S
O276 C258 1.259 . S
O277 Ho257 2.373 1_455 S
O277 C258 1.268 . S
O278 Ho256 2.378 . S
O278 C259 1.215 . S
O279 Ho256 2.524 . S
O279 C259 1.289 . S
O280 Ho256 2.381 1_565 S
O280 C266 1.275 . S
O281 Ho256 2.669 1_565 S
O281 Ho257 2.292 1_465 S
O281 C266 1.256 . S
O282 Ho257 2.302 1_565 S
O282 C267 1.259 . S
O283 Ho256 2.346 1_665 S
O283 C267 1.268 . S
O284 Ho257 2.365 1_565 S
O284 C268 1.215 . S
O285 Ho257 2.493 1_565 S
O285 C268 1.289 . S
O286 Ho257 2.399 . S
O286 C275 1.275 . S
O287 Ho256 2.305 1_655 S
O287 Ho257 2.684 . S
O287 C275 1.256 . S
H288 C261 0.930 . S
H289 C262 0.931 . S
H290 C264 0.934 . S
H291 C265 0.930 . S
H292 C270 0.930 . S
H293 C271 0.931 . S
H294 C273 0.934 . S
H295 C274 0.930 . S
Ho296 C299 2.811 . S
Ho296 O316 2.322 . S
Ho296 O318 2.378 . S
Ho296 O319 2.524 . S
Ho296 O320 2.381 1_545 S
Ho296 O321 2.669 1_545 S
Ho296 O323 2.346 1_544 S
Ho296 O327 2.305 . S
Ho297 C308 2.811 1_545 S
Ho297 O317 2.346 1_556 S
Ho297 O321 2.305 1_546 S
Ho297 O322 2.322 1_545 S
Ho297 O324 2.378 . S
Ho297 O325 2.524 1_545 S
Ho297 O326 2.381 . S
Ho297 O327 2.669 1_556 S
C298 O316 1.259 . S
C298 O317 1.268 . S
C299 Ho296 2.811 . S
C299 C300 1.488 . S
C299 O318 1.215 . S
C299 O319 1.289 . S
C300 C299 1.488 . S
C300 C301 1.348 . S
C300 C305 1.413 . S
C301 C300 1.348 . S
C301 C302 1.442 . S
C301 H328 0.930 . S
C302 C301 1.442 . S
C302 C303 1.381 . S
C302 H329 0.931 . S
C303 C302 1.381 . S
C303 C304 1.321 . S
C304 C303 1.321 . S
C304 C305 1.403 . S
C304 H330 0.934 . S
C305 C300 1.413 . S
C305 C304 1.403 . S
C305 H331 0.930 . S
C306 O320 1.275 . S
C306 O321 1.256 . S
C307 O322 1.259 . S
C307 O323 1.268 . S
C308 Ho297 2.811 1_565 S
C308 C309 1.488 . S
C308 O324 1.215 1_565 S
C308 O325 1.289 . S
C309 C308 1.488 . S
C309 C310 1.348 . S
C309 C314 1.413 . S
C310 C309 1.348 . S
C310 C311 1.442 . S
C310 H332 0.930 . S
C311 C310 1.442 . S
C311 C312 1.381 . S
C311 H333 0.931 . S
C312 C311 1.381 . S
C312 C313 1.321 . S
C313 C312 1.321 . S
C313 C314 1.403 . S
C313 H334 0.934 . S
C314 C309 1.413 . S
C314 C313 1.403 . S
C314 H335 0.930 . S
C315 O326 1.275 . S
C315 O327 1.256 1_556 S
O316 Ho296 2.322 . S
O316 C298 1.259 . S
O317 Ho297 2.346 1_554 S
O317 C298 1.268 . S
O318 Ho296 2.378 . S
O318 C299 1.215 . S
O319 Ho296 2.524 . S
O319 C299 1.289 . S
O320 Ho296 2.381 1_565 S
O320 C306 1.275 . S
O321 Ho296 2.669 1_565 S
O321 Ho297 2.305 1_564 S
O321 C306 1.256 . S
O322 Ho297 2.322 1_565 S
O322 C307 1.259 . S
O323 Ho296 2.346 1_566 S
O323 C307 1.268 . S
O324 Ho297 2.378 . S
O324 C308 1.215 1_545 S
O325 Ho297 2.524 1_565 S
O325 C308 1.289 . S
O326 Ho297 2.381 . S
O326 C315 1.275 . S
O327 Ho296 2.305 . S
O327 Ho297 2.669 1_554 S
O327 C315 1.256 1_554 S
H328 C301 0.930 . S
H329 C302 0.931 . S
H330 C304 0.934 . S
H331 C305 0.930 . S
H332 C310 0.930 . S
H333 C311 0.931 . S
H334 C313 0.934 . S
H335 C314 0.930 . S
Ho336 C339 2.811 . S
Ho336 O356 2.322 . S
Ho336 O358 2.378 . S
Ho336 O359 2.524 . S
Ho336 O360 2.381 . S
Ho336 O361 2.669 . S
Ho336 O363 2.346 . S
Ho336 O367 2.305 . S
Ho337 C348 2.811 . S
Ho337 O357 2.346 . S
Ho337 O361 2.305 . S
Ho337 O362 2.322 . S
Ho337 O364 2.378 . S
Ho337 O365 2.524 . S
Ho337 O366 2.381 . S
Ho337 O367 2.669 . S
C338 O356 1.259 . S
C338 O357 1.268 . S
C339 Ho336 2.811 . S
C339 C340 1.488 . S
C339 O358 1.215 . S
C339 O359 1.289 . S
C340 C339 1.488 . S
C340 C341 1.348 . S
C340 C345 1.413 . S
C341 C340 1.348 . S
C341 C342 1.442 . S
C341 H368 0.930 . S
C342 C341 1.442 . S
C342 C343 1.381 . S
C342 H369 0.931 . S
C343 C342 1.381 . S
C343 C344 1.321 . S
C344 C343 1.321 . S
C344 C345 1.403 . S
C344 H370 0.934 . S
C345 C340 1.413 . S
C345 C344 1.403 . S
C345 H371 0.930 . S
C346 O360 1.275 . S
C346 O361 1.256 . S
C347 O362 1.259 . S
C347 O363 1.268 . S
C348 Ho337 2.811 . S
C348 C349 1.488 . S
C348 O364 1.215 . S
C348 O365 1.289 . S
C349 C348 1.488 . S
C349 C350 1.348 . S
C349 C354 1.413 . S
C350 C349 1.348 . S
C350 C351 1.442 . S
C350 H372 0.930 . S
C351 C350 1.442 . S
C351 C352 1.381 . S
C351 H373 0.931 . S
C352 C351 1.381 . S
C352 C353 1.321 . S
C353 C352 1.321 . S
C353 C354 1.403 . S
C353 H374 0.934 . S
C354 C349 1.413 . S
C354 C353 1.403 . S
C354 H375 0.930 . S
C355 O366 1.275 . S
C355 O367 1.256 . S
O356 Ho336 2.322 . S
O356 C338 1.259 . S
O357 Ho337 2.346 . S
O357 C338 1.268 . S
O358 Ho336 2.378 . S
O358 C339 1.215 . S
O359 Ho336 2.524 . S
O359 C339 1.289 . S
O360 Ho336 2.381 . S
O360 C346 1.275 . S
O361 Ho336 2.669 . S
O361 Ho337 2.305 . S
O361 C346 1.256 . S
O362 Ho337 2.322 . S
O362 C347 1.259 . S
O363 Ho336 2.346 . S
O363 C347 1.268 . S
O364 Ho337 2.378 . S
O364 C348 1.215 . S
O365 Ho337 2.524 . S
O365 C348 1.289 . S
O366 Ho337 2.381 . S
O366 C355 1.275 . S
O367 Ho336 2.305 . S
O367 Ho337 2.669 . S
O367 C355 1.256 . S
H368 C341 0.930 . S
H369 C342 0.931 . S
H370 C344 0.934 . S
H371 C345 0.930 . S
H372 C350 0.930 . S
H373 C351 0.931 . S
H374 C353 0.934 . S
H375 C354 0.930 . S
Ho376 C379 2.811 . S
Ho376 O396 2.322 . S
Ho376 O398 2.378 . S
Ho376 O399 2.524 . S
Ho376 O400 2.381 1_455 S
Ho376 O401 2.669 1_455 S
Ho376 O403 2.346 1_455 S
Ho376 O407 2.305 1_554 S
Ho377 C388 2.811 . S
Ho377 O397 2.346 1_656 S
Ho377 O401 2.305 1_556 S
Ho377 O402 2.322 . S
Ho377 O404 2.378 . S
Ho377 O405 2.524 . S
Ho377 O406 2.381 1_655 S
Ho377 O407 2.669 1_655 S
C378 O396 1.259 . S
C378 O397 1.268 . S
C379 Ho376 2.811 . S
C379 C380 1.488 . S
C379 O398 1.215 . S
C379 O399 1.289 . S
C380 C379 1.488 . S
C380 C381 1.348 . S
C380 C385 1.413 . S
C381 C380 1.348 . S
C381 C382 1.442 . S
C381 H408 0.930 . S
C382 C381 1.442 . S
C382 C383 1.381 . S
C382 H409 0.931 . S
C383 C382 1.381 . S
C383 C384 1.321 . S
C384 C383 1.321 . S
C384 C385 1.403 . S
C384 H410 0.934 . S
C385 C380 1.413 . S
C385 C384 1.403 . S
C385 H411 0.930 . S
C386 O400 1.275 . S
C386 O401 1.256 . S
C387 O402 1.259 . S
C387 O403 1.268 1_556 S
C388 Ho377 2.811 . S
C388 C389 1.488 . S
C388 O404 1.215 . S
C388 O405 1.289 . S
C389 C388 1.488 . S
C389 C390 1.348 . S
C389 C394 1.413 . S
C390 C389 1.348 . S
C390 C391 1.442 . S
C390 H412 0.930 . S
C391 C390 1.442 . S
C391 C392 1.381 . S
C391 H413 0.931 . S
C392 C391 1.381 . S
C392 C393 1.321 . S
C393 C392 1.321 . S
C393 C394 1.403 . S
C393 H414 0.934 . S
C394 C389 1.413 . S
C394 C393 1.403 . S
C394 H415 0.930 . S
C395 O406 1.275 . S
C395 O407 1.256 . S
O396 Ho376 2.322 . S
O396 C378 1.259 . S
O397 Ho377 2.346 1_454 S
O397 C378 1.268 . S
O398 Ho376 2.378 . S
O398 C379 1.215 . S
O399 Ho376 2.524 . S
O399 C379 1.289 . S
O400 Ho376 2.381 1_655 S
O400 C386 1.275 . S
O401 Ho376 2.669 1_655 S
O401 Ho377 2.305 1_554 S
O401 C386 1.256 . S
O402 Ho377 2.322 . S
O402 C387 1.259 . S
O403 Ho376 2.346 1_655 S
O403 C387 1.268 1_554 S
O404 Ho377 2.378 . S
O404 C388 1.215 . S
O405 Ho377 2.524 . S
O405 C388 1.289 . S
O406 Ho377 2.381 1_455 S
O406 C395 1.275 . S
O407 Ho376 2.305 1_556 S
O407 Ho377 2.669 1_455 S
O407 C395 1.256 . S
H408 C381 0.930 . S
H409 C382 0.931 . S
H410 C384 0.934 . S
H411 C385 0.930 . S
H412 C390 0.930 . S
H413 C391 0.931 . S
H414 C393 0.934 . S
H415 C394 0.930 . S
H416 C434 0.951 . S
H417 C436 0.951 . S
H418 C438 0.950 . S
H419 C439 0.950 . S
H420 C441 0.950 . S
H421 C444 0.950 . S
H422 C445 0.950 . S
H423 C447 0.950 . S
H424 C448 0.950 . S
H425 C449 0.951 . S
H426 C451 0.951 . S
H427 C453 0.950 . S
H428 C454 0.950 . S
H429 C456 0.950 . S
H430 C459 0.950 . S
H431 C460 0.950 . S
H432 C462 0.950 . S
H433 C463 0.950 . S
C434 H416 0.951 . S
C434 C435 1.366 . S
C434 C436 1.388 . S
C435 C434 1.366 . S
C435 C439 1.385 . S
C436 H417 0.951 . S
C436 C434 1.388 . S
C436 C437 1.366 . S
C437 C436 1.366 . S
C437 C438 1.414 . S
C437 C440 1.499 . S
C438 H418 0.950 . S
C438 C437 1.414 . S
C438 C439 1.374 . S
C439 H419 0.950 . S
C439 C435 1.385 . S
C439 C438 1.374 . S
C440 C437 1.499 . S
C440 C441 1.373 . S
C440 C442 1.389 . S
C441 H420 0.950 . S
C441 C440 1.373 . S
C441 C457 1.377 . S
C442 C440 1.389 . S
C442 C443 1.524 . S
C442 C456 1.377 . S
C443 C442 1.524 . S
C443 C444 1.397 . S
C443 C448 1.363 . S
C444 H421 0.950 . S
C444 C443 1.397 . S
C444 C445 1.334 . S
C445 H422 0.950 . S
C445 C444 1.334 . S
C445 C446 1.287 . S
C446 C445 1.287 . S
C446 C447 1.524 . S
C446 H465 0.913 . S
C447 H423 0.950 . S
C447 C446 1.524 . S
C447 C448 1.415 . S
C448 H424 0.950 . S
C448 C443 1.363 . S
C448 C447 1.415 . S
C449 H425 0.951 . S
C449 C450 1.366 . S
C449 C451 1.388 . S
C450 C449 1.366 . S
C450 C454 1.385 . S
C451 H426 0.951 . S
C451 C449 1.388 . S
C451 C452 1.366 . S
C452 C451 1.366 . S
C452 C453 1.414 . S
C452 C455 1.499 . S
C453 H427 0.950 . S
C453 C452 1.414 . S
C453 C454 1.374 . S
C454 H428 0.950 . S
C454 C450 1.385 . S
C454 C453 1.374 . S
C455 C452 1.499 . S
C455 C456 1.373 . S
C455 C457 1.389 . S
C456 H429 0.950 . S
C456 C442 1.377 . S
C456 C455 1.373 . S
C457 C441 1.377 . S
C457 C455 1.389 . S
C457 C458 1.524 . S
C458 C457 1.524 . S
C458 C459 1.397 . S
C458 C463 1.363 . S
C459 H430 0.950 . S
C459 C458 1.397 . S
C459 C460 1.334 . S
C460 H431 0.950 . S
C460 C459 1.334 . S
C460 C461 1.287 . S
C461 C460 1.287 . S
C461 C462 1.524 . S
C461 H464 0.999 . S
C462 H432 0.950 . S
C462 C461 1.524 . S
C462 C463 1.415 . S
C463 H433 0.950 . S
C463 C458 1.363 . S
C463 C462 1.415 . S
H464 C461 0.999 . S
H465 C446 0.913 . S
H466 C484 0.951 . S
H467 C486 0.951 . S
H468 C488 0.950 . S
H469 C489 0.950 . S
H470 C491 0.950 . S
H471 C494 0.950 . S
H472 C495 0.950 . S
H473 C497 0.950 . S
H474 C498 0.950 . S
H475 C499 0.951 . S
H476 C501 0.951 . S
H477 C503 0.950 . S
H478 C504 0.950 . S
H479 C506 0.950 . S
H480 C509 0.950 . S
H481 C510 0.950 1_545 S
H482 C512 0.950 . S
H483 C513 0.950 . S
C484 H466 0.951 . S
C484 C485 1.366 . S
C484 C486 1.388 . S
C485 C484 1.366 . S
C485 C489 1.385 . S
C486 H467 0.951 . S
C486 C484 1.388 . S
C486 C487 1.366 . S
C487 C486 1.366 . S
C487 C488 1.414 . S
C487 C490 1.499 . S
C488 H468 0.950 . S
C488 C487 1.414 . S
C488 C489 1.374 . S
C489 H469 0.950 . S
C489 C485 1.385 . S
C489 C488 1.374 . S
C490 C487 1.499 . S
C490 C491 1.373 . S
C490 C492 1.389 . S
C491 H470 0.950 . S
C491 C490 1.373 . S
C491 C507 1.377 . S
C492 C490 1.389 . S
C492 C493 1.524 . S
C492 C506 1.377 . S
C493 C492 1.524 . S
C493 C494 1.397 . S
C493 C498 1.363 . S
C494 H471 0.950 . S
C494 C493 1.397 . S
C494 C495 1.334 . S
C495 H472 0.950 . S
C495 C494 1.334 . S
C495 C496 1.287 . S
C496 C495 1.287 . S
C496 C497 1.524 . S
C496 H515 0.913 . S
C497 H473 0.950 . S
C497 C496 1.524 . S
C497 C498 1.415 . S
C498 H474 0.950 . S
C498 C493 1.363 . S
C498 C497 1.415 . S
C499 H475 0.951 . S
C499 C500 1.366 . S
C499 C501 1.388 . S
C500 C499 1.366 . S
C500 C504 1.385 . S
C501 H476 0.951 . S
C501 C499 1.388 . S
C501 C502 1.366 . S
C502 C501 1.366 . S
C502 C503 1.414 . S
C502 C505 1.499 . S
C503 H477 0.950 . S
C503 C502 1.414 . S
C503 C504 1.374 . S
C504 H478 0.950 . S
C504 C500 1.385 . S
C504 C503 1.374 . S
C505 C502 1.499 . S
C505 C506 1.373 . S
C505 C507 1.389 . S
C506 H479 0.950 . S
C506 C492 1.377 . S
C506 C505 1.373 . S
C507 C491 1.377 . S
C507 C505 1.389 . S
C507 C508 1.524 . S
C508 C507 1.524 . S
C508 C509 1.397 . S
C508 C513 1.363 . S
C509 H480 0.950 . S
C509 C508 1.397 . S
C509 C510 1.334 . S
C510 H481 0.950 1_565 S
C510 C509 1.334 . S
C510 C511 1.287 . S
C511 C510 1.287 . S
C511 C512 1.524 . S
C511 H514 0.999 1_565 S
C512 H482 0.950 . S
C512 C511 1.524 . S
C512 C513 1.415 . S
C513 H483 0.950 . S
C513 C508 1.363 . S
C513 C512 1.415 . S
H514 C511 0.999 1_545 S
H515 C496 0.913 . S
H516 C534 0.951 . S
H517 C536 0.951 . S
H518 C538 0.950 . S
H519 C539 0.950 . S
H520 C541 0.950 . S
H521 C544 0.950 . S
H522 C545 0.950 . S
H523 C547 0.950 . S
H524 C548 0.950 . S
H525 C549 0.951 . S
H526 C551 0.951 . S
H527 C553 0.950 . S
H528 C554 0.950 . S
H529 C556 0.950 . S
H530 C559 0.950 . S
H531 C560 0.950 . S
H532 C562 0.950 . S
H533 C563 0.950 . S
C534 H516 0.951 . S
C534 C535 1.366 . S
C534 C536 1.388 . S
C535 C534 1.366 . S
C535 C539 1.385 . S
C536 H517 0.951 . S
C536 C534 1.388 . S
C536 C537 1.366 . S
C537 C536 1.366 . S
C537 C538 1.414 . S
C537 C540 1.499 . S
C538 H518 0.950 . S
C538 C537 1.414 . S
C538 C539 1.374 . S
C539 H519 0.950 . S
C539 C535 1.385 . S
C539 C538 1.374 . S
C540 C537 1.499 . S
C540 C541 1.373 . S
C540 C542 1.389 . S
C541 H520 0.950 . S
C541 C540 1.373 . S
C541 C557 1.377 . S
C542 C540 1.389 . S
C542 C543 1.524 . S
C542 C556 1.377 . S
C543 C542 1.524 . S
C543 C544 1.397 . S
C543 C548 1.363 . S
C544 H521 0.950 . S
C544 C543 1.397 . S
C544 C545 1.334 . S
C545 H522 0.950 . S
C545 C544 1.334 . S
C545 C546 1.287 . S
C546 C545 1.287 . S
C546 C547 1.524 . S
C546 H565 0.913 . S
C547 H523 0.950 . S
C547 C546 1.524 . S
C547 C548 1.415 . S
C548 H524 0.950 . S
C548 C543 1.363 . S
C548 C547 1.415 . S
C549 H525 0.951 . S
C549 C550 1.366 . S
C549 C551 1.388 . S
C550 C549 1.366 . S
C550 C554 1.385 . S
C551 H526 0.951 . S
C551 C549 1.388 . S
C551 C552 1.366 . S
C552 C551 1.366 . S
C552 C553 1.414 . S
C552 C555 1.499 . S
C553 H527 0.950 . S
C553 C552 1.414 . S
C553 C554 1.374 . S
C554 H528 0.950 . S
C554 C550 1.385 . S
C554 C553 1.374 . S
C555 C552 1.499 . S
C555 C556 1.373 . S
C555 C557 1.389 . S
C556 H529 0.950 . S
C556 C542 1.377 . S
C556 C555 1.373 . S
C557 C541 1.377 . S
C557 C555 1.389 . S
C557 C558 1.524 . S
C558 C557 1.524 . S
C558 C559 1.397 . S
C558 C563 1.363 . S
C559 H530 0.950 . S
C559 C558 1.397 . S
C559 C560 1.334 . S
C560 H531 0.950 . S
C560 C559 1.334 . S
C560 C561 1.287 . S
C561 C560 1.287 . S
C561 C562 1.524 . S
C561 H564 0.999 . S
C562 H532 0.950 . S
C562 C561 1.524 . S
C562 C563 1.415 . S
C563 H533 0.950 . S
C563 C558 1.363 . S
C563 C562 1.415 . S
H564 C561 0.999 . S
H565 C546 0.913 . S
H566 C584 0.951 . S
H567 C586 0.951 . S
H568 C588 0.950 . S
H569 C589 0.950 . S
H570 C591 0.950 . S
H571 C594 0.950 . S
H572 C595 0.950 . S
H573 C597 0.950 1_455 S
H574 C598 0.950 . S
H575 C599 0.951 . S
H576 C601 0.951 . S
H577 C603 0.950 . S
H578 C604 0.950 . S
H579 C606 0.950 . S
H580 C609 0.950 . S
H581 C610 0.950 . S
H582 C612 0.950 . S
H583 C613 0.950 . S
C584 H566 0.951 . S
C584 C585 1.366 . S
C584 C586 1.388 . S
C585 C584 1.366 . S
C585 C589 1.385 . S
C586 H567 0.951 . S
C586 C584 1.388 . S
C586 C587 1.366 . S
C587 C586 1.366 . S
C587 C588 1.414 . S
C587 C590 1.499 . S
C588 H568 0.950 . S
C588 C587 1.414 . S
C588 C589 1.374 . S
C589 H569 0.950 . S
C589 C585 1.385 . S
C589 C588 1.374 . S
C590 C587 1.499 . S
C590 C591 1.373 . S
C590 C592 1.389 . S
C591 H570 0.950 . S
C591 C590 1.373 . S
C591 C607 1.377 . S
C592 C590 1.389 . S
C592 C593 1.524 . S
C592 C606 1.377 . S
C593 C592 1.524 . S
C593 C594 1.397 . S
C593 C598 1.363 . S
C594 H571 0.950 . S
C594 C593 1.397 . S
C594 C595 1.334 . S
C595 H572 0.950 . S
C595 C594 1.334 . S
C595 C596 1.287 . S
C596 C595 1.287 . S
C596 C597 1.524 . S
C596 H615 0.913 . S
C597 H573 0.950 1_655 S
C597 C596 1.524 . S
C597 C598 1.415 . S
C598 H574 0.950 . S
C598 C593 1.363 . S
C598 C597 1.415 . S
C599 H575 0.951 . S
C599 C600 1.366 . S
C599 C601 1.388 . S
C600 C599 1.366 . S
C600 C604 1.385 . S
C601 H576 0.951 . S
C601 C599 1.388 . S
C601 C602 1.366 . S
C602 C601 1.366 . S
C602 C603 1.414 . S
C602 C605 1.499 . S
C603 H577 0.950 . S
C603 C602 1.414 . S
C603 C604 1.374 . S
C604 H578 0.950 . S
C604 C600 1.385 . S
C604 C603 1.374 . S
C605 C602 1.499 . S
C605 C606 1.373 . S
C605 C607 1.389 . S
C606 H579 0.950 . S
C606 C592 1.377 . S
C606 C605 1.373 . S
C607 C591 1.377 . S
C607 C605 1.389 . S
C607 C608 1.524 . S
C608 C607 1.524 . S
C608 C609 1.397 . S
C608 C613 1.363 . S
C609 H580 0.950 . S
C609 C608 1.397 . S
C609 C610 1.334 . S
C610 H581 0.950 . S
C610 C609 1.334 . S
C610 C611 1.287 . S
C611 C610 1.287 . S
C611 C612 1.524 . S
C611 H614 0.999 . S
C612 H582 0.950 . S
C612 C611 1.524 . S
C612 C613 1.415 . S
C613 H583 0.950 . S
C613 C608 1.363 . S
C613 C612 1.415 . S
H614 C611 0.999 . S
H615 C596 0.913 . S
H616 C634 0.951 . S
H617 C636 0.951 . S
H618 C638 0.950 . S
H619 C639 0.950 . S
H620 C641 0.950 . S
H621 C644 0.950 . S
H622 C645 0.950 . S
H623 C647 0.950 . S
H624 C648 0.950 . S
H625 C649 0.951 . S
H626 C651 0.951 . S
H627 C653 0.950 . S
H628 C654 0.950 . S
H629 C656 0.950 . S
H630 C659 0.950 . S
H631 C660 0.950 . S
H632 C662 0.950 . S
H633 C663 0.950 . S
C634 H616 0.951 . S
C634 C635 1.366 . S
C634 C636 1.388 . S
C635 C634 1.366 . S
C635 C639 1.385 . S
C636 H617 0.951 . S
C636 C634 1.388 . S
C636 C637 1.366 . S
C637 C636 1.366 . S
C637 C638 1.414 . S
C637 C640 1.499 . S
C638 H618 0.950 . S
C638 C637 1.414 . S
C638 C639 1.374 . S
C639 H619 0.950 . S
C639 C635 1.385 . S
C639 C638 1.374 . S
C640 C637 1.499 . S
C640 C641 1.373 . S
C640 C642 1.389 . S
C641 H620 0.950 . S
C641 C640 1.373 . S
C641 C657 1.377 . S
C642 C640 1.389 . S
C642 C643 1.524 . S
C642 C656 1.377 . S
C643 C642 1.524 . S
C643 C644 1.397 . S
C643 C648 1.363 . S
C644 H621 0.950 . S
C644 C643 1.397 . S
C644 C645 1.334 . S
C645 H622 0.950 . S
C645 C644 1.334 . S
C645 C646 1.287 . S
C646 C645 1.287 . S
C646 C647 1.524 . S
C646 H665 0.913 . S
C647 H623 0.950 . S
C647 C646 1.524 . S
C647 C648 1.415 . S
C648 H624 0.950 . S
C648 C643 1.363 . S
C648 C647 1.415 . S
C649 H625 0.951 . S
C649 C650 1.366 . S
C649 C651 1.388 . S
C650 C649 1.366 . S
C650 C654 1.385 . S
C651 H626 0.951 . S
C651 C649 1.388 . S
C651 C652 1.366 . S
C652 C651 1.366 . S
C652 C653 1.414 . S
C652 C655 1.499 . S
C653 H627 0.950 . S
C653 C652 1.414 . S
C653 C654 1.374 . S
C654 H628 0.950 . S
C654 C650 1.385 . S
C654 C653 1.374 . S
C655 C652 1.499 . S
C655 C656 1.373 . S
C655 C657 1.389 . S
C656 H629 0.950 . S
C656 C642 1.377 . S
C656 C655 1.373 . S
C657 C641 1.377 . S
C657 C655 1.389 . S
C657 C658 1.524 . S
C658 C657 1.524 . S
C658 C659 1.397 . S
C658 C663 1.363 . S
C659 H630 0.950 . S
C659 C658 1.397 . S
C659 C660 1.334 . S
C660 H631 0.950 . S
C660 C659 1.334 . S
C660 C661 1.287 . S
C661 C660 1.287 . S
C661 C662 1.524 . S
C661 H664 0.999 . S
C662 H632 0.950 . S
C662 C661 1.524 . S
C662 C663 1.415 . S
C663 H633 0.950 . S
C663 C658 1.363 . S
C663 C662 1.415 . S
H664 C661 0.999 . S
H665 C646 0.913 . S
H666 C684 0.951 . S
H667 C686 0.951 . S
H668 C688 0.950 . S
H669 C689 0.950 . S
H670 C691 0.950 . S
H671 C694 0.950 . S
H672 C695 0.950 . S
H673 C697 0.950 . S
H674 C698 0.950 . S
H675 C699 0.951 . S
H676 C701 0.951 . S
H677 C703 0.950 . S
H678 C704 0.950 1_545 S
H679 C706 0.950 . S
H680 C709 0.950 . S
H681 C710 0.950 . S
H682 C712 0.950 . S
H683 C713 0.950 . S
C684 H666 0.951 . S
C684 C685 1.366 . S
C684 C686 1.388 . S
C685 C684 1.366 . S
C685 C689 1.385 . S
C686 H667 0.951 . S
C686 C684 1.388 . S
C686 C687 1.366 . S
C687 C686 1.366 . S
C687 C688 1.414 . S
C687 C690 1.499 . S
C688 H668 0.950 . S
C688 C687 1.414 . S
C688 C689 1.374 . S
C689 H669 0.950 . S
C689 C685 1.385 . S
C689 C688 1.374 . S
C690 C687 1.499 . S
C690 C691 1.373 . S
C690 C692 1.389 . S
C691 H670 0.950 . S
C691 C690 1.373 . S
C691 C707 1.377 . S
C692 C690 1.389 . S
C692 C693 1.524 . S
C692 C706 1.377 . S
C693 C692 1.524 . S
C693 C694 1.397 . S
C693 C698 1.363 . S
C694 H671 0.950 . S
C694 C693 1.397 . S
C694 C695 1.334 . S
C695 H672 0.950 . S
C695 C694 1.334 . S
C695 C696 1.287 . S
C696 C695 1.287 . S
C696 C697 1.524 . S
C696 H715 0.913 . S
C697 H673 0.950 . S
C697 C696 1.524 . S
C697 C698 1.415 . S
C698 H674 0.950 . S
C698 C693 1.363 . S
C698 C697 1.415 . S
C699 H675 0.951 . S
C699 C700 1.366 . S
C699 C701 1.388 . S
C700 C699 1.366 . S
C700 C704 1.385 . S
C701 H676 0.951 . S
C701 C699 1.388 . S
C701 C702 1.366 . S
C702 C701 1.366 . S
C702 C703 1.414 . S
C702 C705 1.499 . S
C703 H677 0.950 . S
C703 C702 1.414 . S
C703 C704 1.374 . S
C704 H678 0.950 1_565 S
C704 C700 1.385 . S
C704 C703 1.374 . S
C705 C702 1.499 . S
C705 C706 1.373 . S
C705 C707 1.389 . S
C706 H679 0.950 . S
C706 C692 1.377 . S
C706 C705 1.373 . S
C707 C691 1.377 . S
C707 C705 1.389 . S
C707 C708 1.524 . S
C708 C707 1.524 . S
C708 C709 1.397 . S
C708 C713 1.363 . S
C709 H680 0.950 . S
C709 C708 1.397 . S
C709 C710 1.334 . S
C710 H681 0.950 . S
C710 C709 1.334 . S
C710 C711 1.287 . S
C711 C710 1.287 . S
C711 C712 1.524 . S
C711 H714 0.999 . S
C712 H682 0.950 . S
C712 C711 1.524 . S
C712 C713 1.415 . S
C713 H683 0.950 . S
C713 C708 1.363 . S
C713 C712 1.415 . S
H714 C711 0.999 . S
H715 C696 0.913 . S
H716 C734 0.951 . S
H717 C736 0.951 . S
H718 C738 0.950 . S
H719 C739 0.950 . S
H720 C741 0.950 . S
H721 C744 0.950 . S
H722 C745 0.950 . S
H723 C747 0.950 . S
H724 C748 0.950 . S
H725 C749 0.951 . S
H726 C751 0.951 . S
H727 C753 0.950 . S
H728 C754 0.950 . S
H729 C756 0.950 . S
H730 C759 0.950 . S
H731 C760 0.950 . S
H732 C762 0.950 . S
H733 C763 0.950 . S
C734 H716 0.951 . S
C734 C735 1.366 . S
C734 C736 1.388 . S
C735 C734 1.366 . S
C735 C739 1.385 . S
C736 H717 0.951 . S
C736 C734 1.388 . S
C736 C737 1.366 . S
C737 C736 1.366 . S
C737 C738 1.414 . S
C737 C740 1.499 . S
C738 H718 0.950 . S
C738 C737 1.414 . S
C738 C739 1.374 . S
C739 H719 0.950 . S
C739 C735 1.385 . S
C739 C738 1.374 . S
C740 C737 1.499 . S
C740 C741 1.373 . S
C740 C742 1.389 . S
C741 H720 0.950 . S
C741 C740 1.373 . S
C741 C757 1.377 . S
C742 C740 1.389 . S
C742 C743 1.524 . S
C742 C756 1.377 . S
C743 C742 1.524 . S
C743 C744 1.397 . S
C743 C748 1.363 . S
C744 H721 0.950 . S
C744 C743 1.397 . S
C744 C745 1.334 . S
C745 H722 0.950 . S
C745 C744 1.334 . S
C745 C746 1.287 . S
C746 C745 1.287 . S
C746 C747 1.524 . S
C746 H765 0.913 . S
C747 H723 0.950 . S
C747 C746 1.524 . S
C747 C748 1.415 . S
C748 H724 0.950 . S
C748 C743 1.363 . S
C748 C747 1.415 . S
C749 H725 0.951 . S
C749 C750 1.366 . S
C749 C751 1.388 . S
C750 C749 1.366 . S
C750 C754 1.385 . S
C751 H726 0.951 . S
C751 C749 1.388 . S
C751 C752 1.366 . S
C752 C751 1.366 . S
C752 C753 1.414 . S
C752 C755 1.499 . S
C753 H727 0.950 . S
C753 C752 1.414 . S
C753 C754 1.374 . S
C754 H728 0.950 . S
C754 C750 1.385 . S
C754 C753 1.374 . S
C755 C752 1.499 . S
C755 C756 1.373 . S
C755 C757 1.389 . S
C756 H729 0.950 . S
C756 C742 1.377 . S
C756 C755 1.373 . S
C757 C741 1.377 . S
C757 C755 1.389 . S
C757 C758 1.524 . S
C758 C757 1.524 . S
C758 C759 1.397 . S
C758 C763 1.363 . S
C759 H730 0.950 . S
C759 C758 1.397 . S
C759 C760 1.334 . S
C760 H731 0.950 . S
C760 C759 1.334 . S
C760 C761 1.287 . S
C761 C760 1.287 . S
C761 C762 1.524 . S
C761 H764 0.999 . S
C762 H732 0.950 . S
C762 C761 1.524 . S
C762 C763 1.415 . S
C763 H733 0.950 . S
C763 C758 1.363 . S
C763 C762 1.415 . S
H764 C761 0.999 . S
H765 C746 0.913 . S
H766 C784 0.951 . S
H767 C786 0.951 . S
H768 C788 0.950 . S
H769 C789 0.950 . S
H770 C791 0.950 . S
H771 C794 0.950 . S
H772 C795 0.950 . S
H773 C797 0.950 . S
H774 C798 0.950 . S
H775 C799 0.951 . S
H776 C801 0.951 . S
H777 C803 0.950 . S
H778 C804 0.950 . S
H779 C806 0.950 . S
H780 C809 0.950 . S
H781 C810 0.950 . S
H782 C812 0.950 . S
H783 C813 0.950 . S
C784 H766 0.951 . S
C784 C785 1.366 . S
C784 C786 1.388 . S
C785 C784 1.366 . S
C785 C789 1.385 . S
C786 H767 0.951 . S
C786 C784 1.388 . S
C786 C787 1.366 . S
C787 C786 1.366 . S
C787 C788 1.414 . S
C787 C790 1.499 . S
C788 H768 0.950 . S
C788 C787 1.414 . S
C788 C789 1.374 . S
C789 H769 0.950 . S
C789 C785 1.385 . S
C789 C788 1.374 . S
C790 C787 1.499 . S
C790 C791 1.373 . S
C790 C792 1.389 . S
C791 H770 0.950 . S
C791 C790 1.373 . S
C791 C807 1.377 . S
C792 C790 1.389 . S
C792 C793 1.524 . S
C792 C806 1.377 . S
C793 C792 1.524 . S
C793 C794 1.397 . S
C793 C798 1.363 . S
C794 H771 0.950 . S
C794 C793 1.397 . S
C794 C795 1.334 . S
C795 H772 0.950 . S
C795 C794 1.334 . S
C795 C796 1.287 . S
C796 C795 1.287 . S
C796 C797 1.524 . S
C796 H815 0.913 . S
C797 H773 0.950 . S
C797 C796 1.524 . S
C797 C798 1.415 . S
C798 H774 0.950 . S
C798 C793 1.363 . S
C798 C797 1.415 . S
C799 H775 0.951 . S
C799 C800 1.366 . S
C799 C801 1.388 . S
C800 C799 1.366 . S
C800 C804 1.385 . S
C801 H776 0.951 . S
C801 C799 1.388 . S
C801 C802 1.366 . S
C802 C801 1.366 . S
C802 C803 1.414 . S
C802 C805 1.499 . S
C803 H777 0.950 . S
C803 C802 1.414 . S
C803 C804 1.374 . S
C804 H778 0.950 . S
C804 C800 1.385 . S
C804 C803 1.374 . S
C805 C802 1.499 . S
C805 C806 1.373 . S
C805 C807 1.389 . S
C806 H779 0.950 . S
C806 C792 1.377 . S
C806 C805 1.373 . S
C807 C791 1.377 . S
C807 C805 1.389 . S
C807 C808 1.524 . S
C808 C807 1.524 . S
C808 C809 1.397 . S
C808 C813 1.363 . S
C809 H780 0.950 . S
C809 C808 1.397 . S
C809 C810 1.334 . S
C810 H781 0.950 . S
C810 C809 1.334 . S
C810 C811 1.287 . S
C811 C810 1.287 . S
C811 C812 1.524 . S
C811 H814 0.999 . S
C812 H782 0.950 . S
C812 C811 1.524 . S
C812 C813 1.415 . S
C813 H783 0.950 . S
C813 C808 1.363 . S
C813 C812 1.415 . S
H814 C811 0.999 . S
H815 C796 0.913 . S
H816 C834 0.951 . S
H817 C836 0.951 . S
H818 C838 0.950 . S
H819 C839 0.950 . S
H820 C841 0.950 . S
H821 C844 0.950 . S
H822 C845 0.950 . S
H823 C847 0.950 . S
H824 C848 0.950 . S
H825 C849 0.951 . S
H826 C851 0.951 . S
H827 C853 0.950 . S
H828 C854 0.950 . S
H829 C856 0.950 . S
H830 C859 0.950 . S
H831 C860 0.950 . S
H832 C862 0.950 . S
H833 C863 0.950 . S
C834 H816 0.951 . S
C834 C835 1.366 . S
C834 C836 1.388 . S
C835 C834 1.366 . S
C835 C839 1.385 . S
C836 H817 0.951 . S
C836 C834 1.388 . S
C836 C837 1.366 . S
C837 C836 1.366 . S
C837 C838 1.414 . S
C837 C840 1.499 . S
C838 H818 0.950 . S
C838 C837 1.414 . S
C838 C839 1.374 . S
C839 H819 0.950 . S
C839 C835 1.385 . S
C839 C838 1.374 . S
C840 C837 1.499 . S
C840 C841 1.373 . S
C840 C842 1.389 . S
C841 H820 0.950 . S
C841 C840 1.373 . S
C841 C857 1.377 . S
C842 C840 1.389 . S
C842 C843 1.524 . S
C842 C856 1.377 . S
C843 C842 1.524 . S
C843 C844 1.397 . S
C843 C848 1.363 . S
C844 H821 0.950 . S
C844 C843 1.397 . S
C844 C845 1.334 . S
C845 H822 0.950 . S
C845 C844 1.334 . S
C845 C846 1.287 . S
C846 C845 1.287 . S
C846 C847 1.524 . S
C846 H865 0.913 . S
C847 H823 0.950 . S
C847 C846 1.524 . S
C847 C848 1.415 . S
C848 H824 0.950 . S
C848 C843 1.363 . S
C848 C847 1.415 . S
C849 H825 0.951 . S
C849 C850 1.366 . S
C849 C851 1.388 . S
C850 C849 1.366 . S
C850 C854 1.385 . S
C851 H826 0.951 . S
C851 C849 1.388 . S
C851 C852 1.366 . S
C852 C851 1.366 . S
C852 C853 1.414 . S
C852 C855 1.499 . S
C853 H827 0.950 . S
C853 C852 1.414 . S
C853 C854 1.374 . S
C854 H828 0.950 . S
C854 C850 1.385 . S
C854 C853 1.374 . S
C855 C852 1.499 . S
C855 C856 1.373 . S
C855 C857 1.389 . S
C856 H829 0.950 . S
C856 C842 1.377 . S
C856 C855 1.373 . S
C857 C841 1.377 . S
C857 C855 1.389 . S
C857 C858 1.524 . S
C858 C857 1.524 . S
C858 C859 1.397 . S
C858 C863 1.363 . S
C859 H830 0.950 . S
C859 C858 1.397 . S
C859 C860 1.334 . S
C860 H831 0.950 . S
C860 C859 1.334 . S
C860 C861 1.287 . S
C861 C860 1.287 . S
C861 C862 1.524 . S
C861 H864 0.999 . S
C862 H832 0.950 . S
C862 C861 1.524 . S
C862 C863 1.415 . S
C863 H833 0.950 . S
C863 C858 1.363 . S
C863 C862 1.415 . S
H864 C861 0.999 . S
H865 C846 0.913 . S
H866 C884 0.951 . S
H867 C886 0.951 . S
H868 C888 0.950 . S
H869 C889 0.950 . S
H870 C891 0.950 . S
H871 C894 0.950 . S
H872 C895 0.950 . S
H873 C897 0.950 1_554 S
H874 C898 0.950 . S
H875 C899 0.951 . S
H876 C901 0.951 . S
H877 C903 0.950 . S
H878 C904 0.950 . S
H879 C906 0.950 . S
H880 C909 0.950 . S
H881 C910 0.950 . S
H882 C912 0.950 . S
H883 C913 0.950 . S
C884 H866 0.951 . S
C884 C885 1.366 . S
C884 C886 1.388 . S
C885 C884 1.366 . S
C885 C889 1.385 . S
C886 H867 0.951 . S
C886 C884 1.388 . S
C886 C887 1.366 . S
C887 C886 1.366 . S
C887 C888 1.414 . S
C887 C890 1.499 . S
C888 H868 0.950 . S
C888 C887 1.414 . S
C888 C889 1.374 . S
C889 H869 0.950 . S
C889 C885 1.385 . S
C889 C888 1.374 . S
C890 C887 1.499 . S
C890 C891 1.373 . S
C890 C892 1.389 . S
C891 H870 0.950 . S
C891 C890 1.373 . S
C891 C907 1.377 . S
C892 C890 1.389 . S
C892 C893 1.524 . S
C892 C906 1.377 . S
C893 C892 1.524 . S
C893 C894 1.397 . S
C893 C898 1.363 . S
C894 H871 0.950 . S
C894 C893 1.397 . S
C894 C895 1.334 . S
C895 H872 0.950 . S
C895 C894 1.334 . S
C895 C896 1.287 . S
C896 C895 1.287 . S
C896 C897 1.524 . S
C896 H915 0.913 . S
C897 H873 0.950 1_556 S
C897 C896 1.524 . S
C897 C898 1.415 . S
C898 H874 0.950 . S
C898 C893 1.363 . S
C898 C897 1.415 . S
C899 H875 0.951 . S
C899 C900 1.366 . S
C899 C901 1.388 . S
C900 C899 1.366 . S
C900 C904 1.385 . S
C901 H876 0.951 . S
C901 C899 1.388 . S
C901 C902 1.366 . S
C902 C901 1.366 . S
C902 C903 1.414 . S
C902 C905 1.499 . S
C903 H877 0.950 . S
C903 C902 1.414 . S
C903 C904 1.374 . S
C904 H878 0.950 . S
C904 C900 1.385 . S
C904 C903 1.374 . S
C905 C902 1.499 . S
C905 C906 1.373 . S
C905 C907 1.389 . S
C906 H879 0.950 . S
C906 C892 1.377 . S
C906 C905 1.373 . S
C907 C891 1.377 . S
C907 C905 1.389 . S
C907 C908 1.524 . S
C908 C907 1.524 . S
C908 C909 1.397 . S
C908 C913 1.363 . S
C909 H880 0.950 . S
C909 C908 1.397 . S
C909 C910 1.334 . S
C910 H881 0.950 . S
C910 C909 1.334 . S
C910 C911 1.287 . S
C911 C910 1.287 . S
C911 C912 1.524 . S
C911 H914 0.999 . S
C912 H882 0.950 . S
C912 C911 1.524 . S
C912 C913 1.415 . S
C913 H883 0.950 . S
C913 C908 1.363 . S
C913 C912 1.415 . S
H914 C911 0.999 . S
H915 C896 0.913 . S
H916 C934 0.951 . S
H917 C936 0.951 . S
H918 C938 0.950 . S
H919 C939 0.950 . S
H920 C941 0.950 . S
H921 C944 0.950 . S
H922 C945 0.950 . S
H923 C947 0.950 . S
H924 C948 0.950 . S
H925 C949 0.951 . S
H926 C951 0.951 . S
H927 C953 0.950 . S
H928 C954 0.950 . S
H929 C956 0.950 . S
H930 C959 0.950 . S
H931 C960 0.950 . S
H932 C962 0.950 . S
H933 C963 0.950 . S
C934 H916 0.951 . S
C934 C935 1.366 . S
C934 C936 1.388 . S
C935 C934 1.366 . S
C935 C939 1.385 . S
C936 H917 0.951 . S
C936 C934 1.388 . S
C936 C937 1.366 . S
C937 C936 1.366 . S
C937 C938 1.414 . S
C937 C940 1.499 . S
C938 H918 0.950 . S
C938 C937 1.414 . S
C938 C939 1.374 . S
C939 H919 0.950 . S
C939 C935 1.385 . S
C939 C938 1.374 . S
C940 C937 1.499 . S
C940 C941 1.373 . S
C940 C942 1.389 . S
C941 H920 0.950 . S
C941 C940 1.373 . S
C941 C957 1.377 . S
C942 C940 1.389 . S
C942 C943 1.524 . S
C942 C956 1.377 . S
C943 C942 1.524 . S
C943 C944 1.397 . S
C943 C948 1.363 . S
C944 H921 0.950 . S
C944 C943 1.397 . S
C944 C945 1.334 . S
C945 H922 0.950 . S
C945 C944 1.334 . S
C945 C946 1.287 . S
C946 C945 1.287 . S
C946 C947 1.524 . S
C946 H965 0.913 . S
C947 H923 0.950 . S
C947 C946 1.524 . S
C947 C948 1.415 . S
C948 H924 0.950 . S
C948 C943 1.363 . S
C948 C947 1.415 . S
C949 H925 0.951 . S
C949 C950 1.366 . S
C949 C951 1.388 . S
C950 C949 1.366 . S
C950 C954 1.385 . S
C951 H926 0.951 . S
C951 C949 1.388 . S
C951 C952 1.366 . S
C952 C951 1.366 . S
C952 C953 1.414 . S
C952 C955 1.499 . S
C953 H927 0.950 . S
C953 C952 1.414 . S
C953 C954 1.374 . S
C954 H928 0.950 . S
C954 C950 1.385 . S
C954 C953 1.374 . S
C955 C952 1.499 . S
C955 C956 1.373 . S
C955 C957 1.389 . S
C956 H929 0.950 . S
C956 C942 1.377 . S
C956 C955 1.373 . S
C957 C941 1.377 . S
C957 C955 1.389 . S
C957 C958 1.524 . S
C958 C957 1.524 . S
C958 C959 1.397 . S
C958 C963 1.363 . S
C959 H930 0.950 . S
C959 C958 1.397 . S
C959 C960 1.334 . S
C960 H931 0.950 . S
C960 C959 1.334 . S
C960 C961 1.287 . S
C961 C960 1.287 . S
C961 C962 1.524 . S
C961 H964 0.999 . S
C962 H932 0.950 . S
C962 C961 1.524 . S
C962 C963 1.415 . S
C963 H933 0.950 . S
C963 C958 1.363 . S
C963 C962 1.415 . S
H964 C961 0.999 . S
H965 C946 0.913 . S
H966 C984 0.951 . S
H967 C986 0.951 . S
H968 C988 0.950 . S
H969 C989 0.950 . S
H970 C991 0.950 . S
H971 C994 0.950 . S
H972 C995 0.950 . S
H973 C997 0.950 . S
H974 C998 0.950 . S
H975 C999 0.951 . S
H976 C1001 0.951 . S
H977 C1003 0.950 . S
H978 C1004 0.950 . S
H979 C1006 0.950 . S
H980 C1009 0.950 . S
H981 C1010 0.950 . S
H982 C1012 0.950 . S
H983 C1013 0.950 . S
C984 H966 0.951 . S
C984 C985 1.366 . S
C984 C986 1.388 . S
C985 C984 1.366 . S
C985 C989 1.385 . S
C986 H967 0.951 . S
C986 C984 1.388 . S
C986 C987 1.366 . S
C987 C986 1.366 . S
C987 C988 1.414 . S
C987 C990 1.499 . S
C988 H968 0.950 . S
C988 C987 1.414 . S
C988 C989 1.374 . S
C989 H969 0.950 . S
C989 C985 1.385 . S
C989 C988 1.374 . S
C990 C987 1.499 . S
C990 C991 1.373 . S
C990 C992 1.389 . S
C991 H970 0.950 . S
C991 C990 1.373 . S
C991 C1007 1.377 . S
C992 C990 1.389 . S
C992 C993 1.524 . S
C992 C1006 1.377 . S
C993 C992 1.524 . S
C993 C994 1.397 . S
C993 C998 1.363 . S
C994 H971 0.950 . S
C994 C993 1.397 . S
C994 C995 1.334 . S
C995 H972 0.950 . S
C995 C994 1.334 . S
C995 C996 1.287 . S
C996 C995 1.287 . S
C996 C997 1.524 . S
C996 H1015 0.913 . S
C997 H973 0.950 . S
C997 C996 1.524 . S
C997 C998 1.415 . S
C998 H974 0.950 . S
C998 C993 1.363 . S
C998 C997 1.415 . S
C999 H975 0.951 . S
C999 C1000 1.366 . S
C999 C1001 1.388 . S
C1000 C999 1.366 . S
C1000 C1004 1.385 . S
C1001 H976 0.951 . S
C1001 C999 1.388 . S
C1001 C1002 1.366 . S
C1002 C1001 1.366 . S
C1002 C1003 1.414 . S
C1002 C1005 1.499 . S
C1003 H977 0.950 . S
C1003 C1002 1.414 . S
C1003 C1004 1.374 . S
C1004 H978 0.950 . S
C1004 C1000 1.385 . S
C1004 C1003 1.374 . S
C1005 C1002 1.499 . S
C1005 C1006 1.373 . S
C1005 C1007 1.389 . S
C1006 H979 0.950 . S
C1006 C992 1.377 . S
C1006 C1005 1.373 . S
C1007 C991 1.377 . S
C1007 C1005 1.389 . S
C1007 C1008 1.524 . S
C1008 C1007 1.524 . S
C1008 C1009 1.397 . S
C1008 C1013 1.363 . S
C1009 H980 0.950 . S
C1009 C1008 1.397 . S
C1009 C1010 1.334 . S
C1010 H981 0.950 . S
C1010 C1009 1.334 . S
C1010 C1011 1.287 . S
C1011 C1010 1.287 . S
C1011 C1012 1.524 . S
C1011 H1014 0.999 . S
C1012 H982 0.950 . S
C1012 C1011 1.524 . S
C1012 C1013 1.415 . S
C1013 H983 0.950 . S
C1013 C1008 1.363 . S
C1013 C1012 1.415 . S
H1014 C1011 0.999 . S
H1015 C996 0.913 . S
H1016 C1034 0.951 . S
H1017 C1036 0.951 . S
H1018 C1038 0.950 . S
H1019 C1039 0.950 . S
H1020 C1041 0.950 . S
H1021 C1044 0.950 . S
H1022 C1045 0.950 . S
H1023 C1047 0.950 . S
H1024 C1048 0.950 . S
H1025 C1049 0.951 . S
H1026 C1051 0.951 . S
H1027 C1053 0.950 . S
H1028 C1054 0.950 . S
H1029 C1056 0.950 . S
H1030 C1059 0.950 . S
H1031 C1060 0.950 . S
H1032 C1062 0.950 . S
H1033 C1063 0.950 . S
C1034 H1016 0.951 . S
C1034 C1035 1.366 . S
C1034 C1036 1.388 . S
C1035 C1034 1.366 . S
C1035 C1039 1.385 . S
C1036 H1017 0.951 . S
C1036 C1034 1.388 . S
C1036 C1037 1.366 . S
C1037 C1036 1.366 . S
C1037 C1038 1.414 . S
C1037 C1040 1.499 . S
C1038 H1018 0.950 . S
C1038 C1037 1.414 . S
C1038 C1039 1.374 . S
C1039 H1019 0.950 . S
C1039 C1035 1.385 . S
C1039 C1038 1.374 . S
C1040 C1037 1.499 . S
C1040 C1041 1.373 . S
C1040 C1042 1.389 . S
C1041 H1020 0.950 . S
C1041 C1040 1.373 . S
C1041 C1057 1.377 . S
C1042 C1040 1.389 . S
C1042 C1043 1.524 . S
C1042 C1056 1.377 . S
C1043 C1042 1.524 . S
C1043 C1044 1.397 . S
C1043 C1048 1.363 . S
C1044 H1021 0.950 . S
C1044 C1043 1.397 . S
C1044 C1045 1.334 . S
C1045 H1022 0.950 . S
C1045 C1044 1.334 . S
C1045 C1046 1.287 . S
C1046 C1045 1.287 . S
C1046 C1047 1.524 . S
C1046 H1065 0.913 . S
C1047 H1023 0.950 . S
C1047 C1046 1.524 . S
C1047 C1048 1.415 . S
C1048 H1024 0.950 . S
C1048 C1043 1.363 . S
C1048 C1047 1.415 . S
C1049 H1025 0.951 . S
C1049 C1050 1.366 . S
C1049 C1051 1.388 . S
C1050 C1049 1.366 . S
C1050 C1054 1.385 . S
C1051 H1026 0.951 . S
C1051 C1049 1.388 . S
C1051 C1052 1.366 . S
C1052 C1051 1.366 . S
C1052 C1053 1.414 . S
C1052 C1055 1.499 . S
C1053 H1027 0.950 . S
C1053 C1052 1.414 . S
C1053 C1054 1.374 . S
C1054 H1028 0.950 . S
C1054 C1050 1.385 . S
C1054 C1053 1.374 . S
C1055 C1052 1.499 . S
C1055 C1056 1.373 . S
C1055 C1057 1.389 . S
C1056 H1029 0.950 . S
C1056 C1042 1.377 . S
C1056 C1055 1.373 . S
C1057 C1041 1.377 . S
C1057 C1055 1.389 . S
C1057 C1058 1.524 . S
C1058 C1057 1.524 . S
C1058 C1059 1.397 . S
C1058 C1063 1.363 . S
C1059 H1030 0.950 . S
C1059 C1058 1.397 . S
C1059 C1060 1.334 . S
C1060 H1031 0.950 . S
C1060 C1059 1.334 . S
C1060 C1061 1.287 . S
C1061 C1060 1.287 . S
C1061 C1062 1.524 . S
C1061 H1064 0.999 . S
C1062 H1032 0.950 . S
C1062 C1061 1.524 . S
C1062 C1063 1.415 . S
C1063 H1033 0.950 . S
C1063 C1058 1.363 . S
C1063 C1062 1.415 . S
H1064 C1061 0.999 . S
H1065 C1046 0.913 . S
H1066 C1084 0.951 . S
H1067 C1086 0.951 . S
H1068 C1088 0.950 . S
H1069 C1089 0.950 . S
H1070 C1091 0.950 . S
H1071 C1094 0.950 . S
H1072 C1095 0.950 . S
H1073 C1097 0.950 . S
H1074 C1098 0.950 . S
H1075 C1099 0.951 . S
H1076 C1101 0.951 . S
H1077 C1103 0.950 . S
H1078 C1104 0.950 . S
H1079 C1106 0.950 . S
H1080 C1109 0.950 . S
H1081 C1110 0.950 . S
H1082 C1112 0.950 . S
H1083 C1113 0.950 . S
C1084 H1066 0.951 . S
C1084 C1085 1.366 . S
C1084 C1086 1.388 . S
C1085 C1084 1.366 . S
C1085 C1089 1.385 . S
C1086 H1067 0.951 . S
C1086 C1084 1.388 . S
C1086 C1087 1.366 . S
C1087 C1086 1.366 . S
C1087 C1088 1.414 . S
C1087 C1090 1.499 . S
C1088 H1068 0.950 . S
C1088 C1087 1.414 . S
C1088 C1089 1.374 . S
C1089 H1069 0.950 . S
C1089 C1085 1.385 . S
C1089 C1088 1.374 . S
C1090 C1087 1.499 . S
C1090 C1091 1.373 . S
C1090 C1092 1.389 . S
C1091 H1070 0.950 . S
C1091 C1090 1.373 . S
C1091 C1107 1.377 . S
C1092 C1090 1.389 . S
C1092 C1093 1.524 . S
C1092 C1106 1.377 . S
C1093 C1092 1.524 . S
C1093 C1094 1.397 . S
C1093 C1098 1.363 . S
C1094 H1071 0.950 . S
C1094 C1093 1.397 . S
C1094 C1095 1.334 . S
C1095 H1072 0.950 . S
C1095 C1094 1.334 . S
C1095 C1096 1.287 . S
C1096 C1095 1.287 . S
C1096 C1097 1.524 . S
C1096 H1115 0.913 . S
C1097 H1073 0.950 . S
C1097 C1096 1.524 . S
C1097 C1098 1.415 . S
C1098 H1074 0.950 . S
C1098 C1093 1.363 . S
C1098 C1097 1.415 . S
C1099 H1075 0.951 . S
C1099 C1100 1.366 . S
C1099 C1101 1.388 . S
C1100 C1099 1.366 . S
C1100 C1104 1.385 . S
C1101 H1076 0.951 . S
C1101 C1099 1.388 . S
C1101 C1102 1.366 . S
C1102 C1101 1.366 . S
C1102 C1103 1.414 . S
C1102 C1105 1.499 . S
C1103 H1077 0.950 . S
C1103 C1102 1.414 . S
C1103 C1104 1.374 . S
C1104 H1078 0.950 . S
C1104 C1100 1.385 . S
C1104 C1103 1.374 . S
C1105 C1102 1.499 . S
C1105 C1106 1.373 . S
C1105 C1107 1.389 . S
C1106 H1079 0.950 . S
C1106 C1092 1.377 . S
C1106 C1105 1.373 . S
C1107 C1091 1.377 . S
C1107 C1105 1.389 . S
C1107 C1108 1.524 . S
C1108 C1107 1.524 . S
C1108 C1109 1.397 . S
C1108 C1113 1.363 . S
C1109 H1080 0.950 . S
C1109 C1108 1.397 . S
C1109 C1110 1.334 . S
C1110 H1081 0.950 . S
C1110 C1109 1.334 . S
C1110 C1111 1.287 . S
C1111 C1110 1.287 . S
C1111 C1112 1.524 . S
C1111 H1114 0.999 . S
C1112 H1082 0.950 . S
C1112 C1111 1.524 . S
C1112 C1113 1.415 . S
C1113 H1083 0.950 . S
C1113 C1108 1.363 . S
C1113 C1112 1.415 . S
H1114 C1111 0.999 . S
H1115 C1096 0.913 . S
H1116 C1134 0.951 . S
H1117 C1136 0.951 . S
H1118 C1138 0.950 . S
H1119 C1139 0.950 . S
H1120 C1141 0.950 . S
H1121 C1144 0.950 . S
H1122 C1145 0.950 . S
H1123 C1147 0.950 . S
H1124 C1148 0.950 . S
H1125 C1149 0.951 . S
H1126 C1151 0.951 . S
H1127 C1153 0.950 . S
H1128 C1154 0.950 . S
H1129 C1156 0.950 . S
H1130 C1159 0.950 . S
H1131 C1160 0.950 . S
H1132 C1162 0.950 . S
H1133 C1163 0.950 . S
C1134 H1116 0.951 . S
C1134 C1135 1.366 . S
C1134 C1136 1.388 . S
C1135 C1134 1.366 . S
C1135 C1139 1.385 . S
C1136 H1117 0.951 . S
C1136 C1134 1.388 . S
C1136 C1137 1.366 . S
C1137 C1136 1.366 . S
C1137 C1138 1.414 . S
C1137 C1140 1.499 . S
C1138 H1118 0.950 . S
C1138 C1137 1.414 . S
C1138 C1139 1.374 . S
C1139 H1119 0.950 . S
C1139 C1135 1.385 . S
C1139 C1138 1.374 . S
C1140 C1137 1.499 . S
C1140 C1141 1.373 . S
C1140 C1142 1.389 . S
C1141 H1120 0.950 . S
C1141 C1140 1.373 . S
C1141 C1157 1.377 . S
C1142 C1140 1.389 . S
C1142 C1143 1.524 . S
C1142 C1156 1.377 . S
C1143 C1142 1.524 . S
C1143 C1144 1.397 . S
C1143 C1148 1.363 . S
C1144 H1121 0.950 . S
C1144 C1143 1.397 . S
C1144 C1145 1.334 . S
C1145 H1122 0.950 . S
C1145 C1144 1.334 . S
C1145 C1146 1.287 . S
C1146 C1145 1.287 . S
C1146 C1147 1.524 . S
C1146 H1165 0.913 . S
C1147 H1123 0.950 . S
C1147 C1146 1.524 . S
C1147 C1148 1.415 . S
C1148 H1124 0.950 . S
C1148 C1143 1.363 . S
C1148 C1147 1.415 . S
C1149 H1125 0.951 . S
C1149 C1150 1.366 . S
C1149 C1151 1.388 . S
C1150 C1149 1.366 . S
C1150 C1154 1.385 . S
C1151 H1126 0.951 . S
C1151 C1149 1.388 . S
C1151 C1152 1.366 . S
C1152 C1151 1.366 . S
C1152 C1153 1.414 . S
C1152 C1155 1.499 . S
C1153 H1127 0.950 . S
C1153 C1152 1.414 . S
C1153 C1154 1.374 . S
C1154 H1128 0.950 . S
C1154 C1150 1.385 . S
C1154 C1153 1.374 . S
C1155 C1152 1.499 . S
C1155 C1156 1.373 . S
C1155 C1157 1.389 . S
C1156 H1129 0.950 . S
C1156 C1142 1.377 . S
C1156 C1155 1.373 . S
C1157 C1141 1.377 . S
C1157 C1155 1.389 . S
C1157 C1158 1.524 . S
C1158 C1157 1.524 . S
C1158 C1159 1.397 . S
C1158 C1163 1.363 . S
C1159 H1130 0.950 . S
C1159 C1158 1.397 . S
C1159 C1160 1.334 . S
C1160 H1131 0.950 . S
C1160 C1159 1.334 . S
C1160 C1161 1.287 . S
C1161 C1160 1.287 . S
C1161 C1162 1.524 . S
C1161 H1164 0.999 . S
C1162 H1132 0.950 . S
C1162 C1161 1.524 . S
C1162 C1163 1.415 . S
C1163 H1133 0.950 . S
C1163 C1158 1.363 . S
C1163 C1162 1.415 . S
H1164 C1161 0.999 . S
H1165 C1146 0.913 . S
H1166 C1184 0.951 . S
H1167 C1186 0.951 . S
H1168 C1188 0.950 . S
H1169 C1189 0.950 . S
H1170 C1191 0.950 . S
H1171 C1194 0.950 . S
H1172 C1195 0.950 . S
H1173 C1197 0.950 . S
H1174 C1198 0.950 . S
H1175 C1199 0.951 . S
H1176 C1201 0.951 . S
H1177 C1203 0.950 . S
H1178 C1204 0.950 . S
H1179 C1206 0.950 . S
H1180 C1209 0.950 . S
H1181 C1210 0.950 . S
H1182 C1212 0.950 . S
H1183 C1213 0.950 . S
C1184 H1166 0.951 . S
C1184 C1185 1.366 . S
C1184 C1186 1.388 . S
C1185 C1184 1.366 . S
C1185 C1189 1.385 . S
C1186 H1167 0.951 . S
C1186 C1184 1.388 . S
C1186 C1187 1.366 . S
C1187 C1186 1.366 . S
C1187 C1188 1.414 . S
C1187 C1190 1.499 . S
C1188 H1168 0.950 . S
C1188 C1187 1.414 . S
C1188 C1189 1.374 . S
C1189 H1169 0.950 . S
C1189 C1185 1.385 . S
C1189 C1188 1.374 . S
C1190 C1187 1.499 . S
C1190 C1191 1.373 . S
C1190 C1192 1.389 . S
C1191 H1170 0.950 . S
C1191 C1190 1.373 . S
C1191 C1207 1.377 . S
C1192 C1190 1.389 . S
C1192 C1193 1.524 . S
C1192 C1206 1.377 . S
C1193 C1192 1.524 . S
C1193 C1194 1.397 . S
C1193 C1198 1.363 . S
C1194 H1171 0.950 . S
C1194 C1193 1.397 . S
C1194 C1195 1.334 . S
C1195 H1172 0.950 . S
C1195 C1194 1.334 . S
C1195 C1196 1.287 . S
C1196 C1195 1.287 . S
C1196 C1197 1.524 . S
C1196 H1215 0.913 . S
C1197 H1173 0.950 . S
C1197 C1196 1.524 . S
C1197 C1198 1.415 . S
C1198 H1174 0.950 . S
C1198 C1193 1.363 . S
C1198 C1197 1.415 . S
C1199 H1175 0.951 . S
C1199 C1200 1.366 . S
C1199 C1201 1.388 . S
C1200 C1199 1.366 . S
C1200 C1204 1.385 . S
C1201 H1176 0.951 . S
C1201 C1199 1.388 . S
C1201 C1202 1.366 . S
C1202 C1201 1.366 . S
C1202 C1203 1.414 . S
C1202 C1205 1.499 . S
C1203 H1177 0.950 . S
C1203 C1202 1.414 . S
C1203 C1204 1.374 . S
C1204 H1178 0.950 . S
C1204 C1200 1.385 . S
C1204 C1203 1.374 . S
C1205 C1202 1.499 . S
C1205 C1206 1.373 . S
C1205 C1207 1.389 . S
C1206 H1179 0.950 . S
C1206 C1192 1.377 . S
C1206 C1205 1.373 . S
C1207 C1191 1.377 . S
C1207 C1205 1.389 . S
C1207 C1208 1.524 . S
C1208 C1207 1.524 . S
C1208 C1209 1.397 . S
C1208 C1213 1.363 . S
C1209 H1180 0.950 . S
C1209 C1208 1.397 . S
C1209 C1210 1.334 . S
C1210 H1181 0.950 . S
C1210 C1209 1.334 . S
C1210 C1211 1.287 . S
C1211 C1210 1.287 . S
C1211 C1212 1.524 . S
C1211 H1214 0.999 . S
C1212 H1182 0.950 . S
C1212 C1211 1.524 . S
C1212 C1213 1.415 . S
C1213 H1183 0.950 . S
C1213 C1208 1.363 . S
C1213 C1212 1.415 . S
H1214 C1211 0.999 . S
H1215 C1196 0.913 . S
H1216 C1234 0.951 . S
H1217 C1236 0.951 . S
H1218 C1238 0.950 . S
H1219 C1239 0.950 . S
H1220 C1241 0.950 . S
H1221 C1244 0.950 . S
H1222 C1245 0.950 . S
H1223 C1247 0.950 . S
H1224 C1248 0.950 . S
H1225 C1249 0.951 . S
H1226 C1251 0.951 . S
H1227 C1253 0.950 . S
H1228 C1254 0.950 . S
H1229 C1256 0.950 . S
H1230 C1259 0.950 . S
H1231 C1260 0.950 . S
H1232 C1262 0.950 . S
H1233 C1263 0.950 . S
C1234 H1216 0.951 . S
C1234 C1235 1.366 . S
C1234 C1236 1.388 . S
C1235 C1234 1.366 . S
C1235 C1239 1.385 . S
C1236 H1217 0.951 . S
C1236 C1234 1.388 . S
C1236 C1237 1.366 . S
C1237 C1236 1.366 . S
C1237 C1238 1.414 . S
C1237 C1240 1.499 . S
C1238 H1218 0.950 . S
C1238 C1237 1.414 . S
C1238 C1239 1.374 . S
C1239 H1219 0.950 . S
C1239 C1235 1.385 . S
C1239 C1238 1.374 . S
C1240 C1237 1.499 . S
C1240 C1241 1.373 . S
C1240 C1242 1.389 . S
C1241 H1220 0.950 . S
C1241 C1240 1.373 . S
C1241 C1257 1.377 . S
C1242 C1240 1.389 . S
C1242 C1243 1.524 . S
C1242 C1256 1.377 . S
C1243 C1242 1.524 . S
C1243 C1244 1.397 . S
C1243 C1248 1.363 . S
C1244 H1221 0.950 . S
C1244 C1243 1.397 . S
C1244 C1245 1.334 . S
C1245 H1222 0.950 . S
C1245 C1244 1.334 . S
C1245 C1246 1.287 . S
C1246 C1245 1.287 . S
C1246 C1247 1.524 . S
C1246 H1265 0.913 . S
C1247 H1223 0.950 . S
C1247 C1246 1.524 . S
C1247 C1248 1.415 . S
C1248 H1224 0.950 . S
C1248 C1243 1.363 . S
C1248 C1247 1.415 . S
C1249 H1225 0.951 . S
C1249 C1250 1.366 . S
C1249 C1251 1.388 . S
C1250 C1249 1.366 . S
C1250 C1254 1.385 . S
C1251 H1226 0.951 . S
C1251 C1249 1.388 . S
C1251 C1252 1.366 . S
C1252 C1251 1.366 . S
C1252 C1253 1.414 . S
C1252 C1255 1.499 . S
C1253 H1227 0.950 . S
C1253 C1252 1.414 . S
C1253 C1254 1.374 . S
C1254 H1228 0.950 . S
C1254 C1250 1.385 . S
C1254 C1253 1.374 . S
C1255 C1252 1.499 . S
C1255 C1256 1.373 . S
C1255 C1257 1.389 . S
C1256 H1229 0.950 . S
C1256 C1242 1.377 . S
C1256 C1255 1.373 . S
C1257 C1241 1.377 . S
C1257 C1255 1.389 . S
C1257 C1258 1.524 . S
C1258 C1257 1.524 . S
C1258 C1259 1.397 . S
C1258 C1263 1.363 . S
C1259 H1230 0.950 . S
C1259 C1258 1.397 . S
C1259 C1260 1.334 . S
C1260 H1231 0.950 . S
C1260 C1259 1.334 . S
C1260 C1261 1.287 . S
C1261 C1260 1.287 . S
C1261 C1262 1.524 . S
C1261 H1264 0.999 1_556 S
C1262 H1232 0.950 . S
C1262 C1261 1.524 . S
C1262 C1263 1.415 . S
C1263 H1233 0.950 . S
C1263 C1258 1.363 . S
C1263 C1262 1.415 . S
H1264 C1261 0.999 1_554 S
H1265 C1246 0.913 . S
H1266 C1284 0.951 . S
H1267 C1286 0.951 . S
H1268 C1288 0.950 . S
H1269 C1289 0.950 . S
H1270 C1291 0.950 . S
H1271 C1294 0.950 . S
H1272 C1295 0.950 . S
H1273 C1297 0.950 . S
H1274 C1298 0.950 . S
H1275 C1299 0.951 . S
H1276 C1301 0.951 . S
H1277 C1303 0.950 . S
H1278 C1304 0.950 . S
H1279 C1306 0.950 . S
H1280 C1309 0.950 . S
H1281 C1310 0.950 . S
H1282 C1312 0.950 . S
H1283 C1313 0.950 . S
C1284 H1266 0.951 . S
C1284 C1285 1.366 . S
C1284 C1286 1.388 . S
C1285 C1284 1.366 . S
C1285 C1289 1.385 . S
C1286 H1267 0.951 . S
C1286 C1284 1.388 . S
C1286 C1287 1.366 . S
C1287 C1286 1.366 . S
C1287 C1288 1.414 . S
C1287 C1290 1.499 . S
C1288 H1268 0.950 . S
C1288 C1287 1.414 . S
C1288 C1289 1.374 . S
C1289 H1269 0.950 . S
C1289 C1285 1.385 . S
C1289 C1288 1.374 . S
C1290 C1287 1.499 . S
C1290 C1291 1.373 . S
C1290 C1292 1.389 . S
C1291 H1270 0.950 . S
C1291 C1290 1.373 . S
C1291 C1307 1.377 . S
C1292 C1290 1.389 . S
C1292 C1293 1.524 . S
C1292 C1306 1.377 . S
C1293 C1292 1.524 . S
C1293 C1294 1.397 . S
C1293 C1298 1.363 . S
C1294 H1271 0.950 . S
C1294 C1293 1.397 . S
C1294 C1295 1.334 . S
C1295 H1272 0.950 . S
C1295 C1294 1.334 . S
C1295 C1296 1.287 . S
C1296 C1295 1.287 . S
C1296 C1297 1.524 . S
C1296 H1315 0.913 . S
C1297 H1273 0.950 . S
C1297 C1296 1.524 . S
C1297 C1298 1.415 . S
C1298 H1274 0.950 . S
C1298 C1293 1.363 . S
C1298 C1297 1.415 . S
C1299 H1275 0.951 . S
C1299 C1300 1.366 . S
C1299 C1301 1.388 . S
C1300 C1299 1.366 . S
C1300 C1304 1.385 . S
C1301 H1276 0.951 . S
C1301 C1299 1.388 . S
C1301 C1302 1.366 . S
C1302 C1301 1.366 . S
C1302 C1303 1.414 . S
C1302 C1305 1.499 . S
C1303 H1277 0.950 . S
C1303 C1302 1.414 . S
C1303 C1304 1.374 . S
C1304 H1278 0.950 . S
C1304 C1300 1.385 . S
C1304 C1303 1.374 . S
C1305 C1302 1.499 . S
C1305 C1306 1.373 . S
C1305 C1307 1.389 . S
C1306 H1279 0.950 . S
C1306 C1292 1.377 . S
C1306 C1305 1.373 . S
C1307 C1291 1.377 . S
C1307 C1305 1.389 . S
C1307 C1308 1.524 . S
C1308 C1307 1.524 . S
C1308 C1309 1.397 . S
C1308 C1313 1.363 . S
C1309 H1280 0.950 . S
C1309 C1308 1.397 . S
C1309 C1310 1.334 . S
C1310 H1281 0.950 . S
C1310 C1309 1.334 . S
C1310 C1311 1.287 . S
C1311 C1310 1.287 . S
C1311 C1312 1.524 . S
C1311 H1314 0.999 . S
C1312 H1282 0.950 . S
C1312 C1311 1.524 . S
C1312 C1313 1.415 . S
C1313 H1283 0.950 . S
C1313 C1308 1.363 . S
C1313 C1312 1.415 . S
H1314 C1311 0.999 . S
H1315 C1296 0.913 . S
H1316 C1334 0.951 . S
H1317 C1336 0.951 . S
H1318 C1338 0.950 . S
H1319 C1339 0.950 . S
H1320 C1341 0.950 . S
H1321 C1344 0.950 . S
H1322 C1345 0.950 . S
H1323 C1347 0.950 . S
H1324 C1348 0.950 . S
H1325 C1349 0.951 . S
H1326 C1351 0.951 . S
H1327 C1353 0.950 . S
H1328 C1354 0.950 . S
H1329 C1356 0.950 . S
H1330 C1359 0.950 . S
H1331 C1360 0.950 . S
H1332 C1362 0.950 . S
H1333 C1363 0.950 . S
C1334 H1316 0.951 . S
C1334 C1335 1.366 . S
C1334 C1336 1.388 . S
C1335 C1334 1.366 . S
C1335 C1339 1.385 . S
C1336 H1317 0.951 . S
C1336 C1334 1.388 . S
C1336 C1337 1.366 . S
C1337 C1336 1.366 . S
C1337 C1338 1.414 . S
C1337 C1340 1.499 . S
C1338 H1318 0.950 . S
C1338 C1337 1.414 . S
C1338 C1339 1.374 . S
C1339 H1319 0.950 . S
C1339 C1335 1.385 . S
C1339 C1338 1.374 . S
C1340 C1337 1.499 . S
C1340 C1341 1.373 . S
C1340 C1342 1.389 . S
C1341 H1320 0.950 . S
C1341 C1340 1.373 . S
C1341 C1357 1.377 . S
C1342 C1340 1.389 . S
C1342 C1343 1.524 . S
C1342 C1356 1.377 . S
C1343 C1342 1.524 . S
C1343 C1344 1.397 . S
C1343 C1348 1.363 . S
C1344 H1321 0.950 . S
C1344 C1343 1.397 . S
C1344 C1345 1.334 . S
C1345 H1322 0.950 . S
C1345 C1344 1.334 . S
C1345 C1346 1.287 . S
C1346 C1345 1.287 . S
C1346 C1347 1.524 . S
C1346 H1365 0.913 . S
C1347 H1323 0.950 . S
C1347 C1346 1.524 . S
C1347 C1348 1.415 . S
C1348 H1324 0.950 . S
C1348 C1343 1.363 . S
C1348 C1347 1.415 . S
C1349 H1325 0.951 . S
C1349 C1350 1.366 . S
C1349 C1351 1.388 . S
C1350 C1349 1.366 . S
C1350 C1354 1.385 . S
C1351 H1326 0.951 . S
C1351 C1349 1.388 . S
C1351 C1352 1.366 . S
C1352 C1351 1.366 . S
C1352 C1353 1.414 . S
C1352 C1355 1.499 . S
C1353 H1327 0.950 . S
C1353 C1352 1.414 . S
C1353 C1354 1.374 . S
C1354 H1328 0.950 . S
C1354 C1350 1.385 . S
C1354 C1353 1.374 . S
C1355 C1352 1.499 . S
C1355 C1356 1.373 . S
C1355 C1357 1.389 . S
C1356 H1329 0.950 . S
C1356 C1342 1.377 . S
C1356 C1355 1.373 . S
C1357 C1341 1.377 . S
C1357 C1355 1.389 . S
C1357 C1358 1.524 . S
C1358 C1357 1.524 . S
C1358 C1359 1.397 . S
C1358 C1363 1.363 . S
C1359 H1330 0.950 . S
C1359 C1358 1.397 . S
C1359 C1360 1.334 . S
C1360 H1331 0.950 . S
C1360 C1359 1.334 . S
C1360 C1361 1.287 . S
C1361 C1360 1.287 . S
C1361 C1362 1.524 . S
C1361 H1364 0.999 . S
C1362 H1332 0.950 . S
C1362 C1361 1.524 . S
C1362 C1363 1.415 . S
C1363 H1333 0.950 . S
C1363 C1358 1.363 . S
C1363 C1362 1.415 . S
H1364 C1361 0.999 . S
H1365 C1346 0.913 . S
H1366 C1384 0.951 . S
H1367 C1386 0.951 . S
H1368 C1388 0.950 . S
H1369 C1389 0.950 . S
H1370 C1391 0.950 . S
H1371 C1394 0.950 . S
H1372 C1395 0.950 . S
H1373 C1397 0.950 . S
H1374 C1398 0.950 . S
H1375 C1399 0.951 . S
H1376 C1401 0.951 . S
H1377 C1403 0.950 . S
H1378 C1404 0.950 . S
H1379 C1406 0.950 . S
H1380 C1409 0.950 . S
H1381 C1410 0.950 . S
H1382 C1412 0.950 . S
H1383 C1413 0.950 . S
C1384 H1366 0.951 . S
C1384 C1385 1.366 . S
C1384 C1386 1.388 . S
C1385 C1384 1.366 . S
C1385 C1389 1.385 . S
C1386 H1367 0.951 . S
C1386 C1384 1.388 . S
C1386 C1387 1.366 . S
C1387 C1386 1.366 . S
C1387 C1388 1.414 . S
C1387 C1390 1.499 . S
C1388 H1368 0.950 . S
C1388 C1387 1.414 . S
C1388 C1389 1.374 . S
C1389 H1369 0.950 . S
C1389 C1385 1.385 . S
C1389 C1388 1.374 . S
C1390 C1387 1.499 . S
C1390 C1391 1.373 . S
C1390 C1392 1.389 . S
C1391 H1370 0.950 . S
C1391 C1390 1.373 . S
C1391 C1407 1.377 . S
C1392 C1390 1.389 . S
C1392 C1393 1.524 . S
C1392 C1406 1.377 . S
C1393 C1392 1.524 . S
C1393 C1394 1.397 . S
C1393 C1398 1.363 . S
C1394 H1371 0.950 . S
C1394 C1393 1.397 . S
C1394 C1395 1.334 . S
C1395 H1372 0.950 . S
C1395 C1394 1.334 . S
C1395 C1396 1.287 . S
C1396 C1395 1.287 . S
C1396 C1397 1.524 . S
C1396 H1415 0.913 . S
C1397 H1373 0.950 . S
C1397 C1396 1.524 . S
C1397 C1398 1.415 . S
C1398 H1374 0.950 . S
C1398 C1393 1.363 . S
C1398 C1397 1.415 . S
C1399 H1375 0.951 . S
C1399 C1400 1.366 . S
C1399 C1401 1.388 . S
C1400 C1399 1.366 . S
C1400 C1404 1.385 . S
C1401 H1376 0.951 . S
C1401 C1399 1.388 . S
C1401 C1402 1.366 . S
C1402 C1401 1.366 . S
C1402 C1403 1.414 . S
C1402 C1405 1.499 . S
C1403 H1377 0.950 . S
C1403 C1402 1.414 . S
C1403 C1404 1.374 . S
C1404 H1378 0.950 . S
C1404 C1400 1.385 . S
C1404 C1403 1.374 . S
C1405 C1402 1.499 . S
C1405 C1406 1.373 . S
C1405 C1407 1.389 . S
C1406 H1379 0.950 . S
C1406 C1392 1.377 . S
C1406 C1405 1.373 . S
C1407 C1391 1.377 . S
C1407 C1405 1.389 . S
C1407 C1408 1.524 . S
C1408 C1407 1.524 . S
C1408 C1409 1.397 . S
C1408 C1413 1.363 . S
C1409 H1380 0.950 . S
C1409 C1408 1.397 . S
C1409 C1410 1.334 . S
C1410 H1381 0.950 . S
C1410 C1409 1.334 . S
C1410 C1411 1.287 . S
C1411 C1410 1.287 . S
C1411 C1412 1.524 . S
C1411 H1414 0.999 . S
C1412 H1382 0.950 . S
C1412 C1411 1.524 . S
C1412 C1413 1.415 . S
C1413 H1383 0.950 . S
C1413 C1408 1.363 . S
C1413 C1412 1.415 . S
H1414 C1411 0.999 . S
H1415 C1396 0.913 . S
H1416 C1434 0.951 . S
H1417 C1436 0.951 . S
H1418 C1438 0.950 . S
H1419 C1439 0.950 . S
H1420 C1441 0.950 . S
H1421 C1444 0.950 . S
H1422 C1445 0.950 . S
H1423 C1447 0.950 . S
H1424 C1448 0.950 . S
H1425 C1449 0.951 . S
H1426 C1451 0.951 . S
H1427 C1453 0.950 . S
H1428 C1454 0.950 . S
H1429 C1456 0.950 . S
H1430 C1459 0.950 . S
H1431 C1460 0.950 . S
H1432 C1462 0.950 . S
H1433 C1463 0.950 . S
C1434 H1416 0.951 . S
C1434 C1435 1.366 . S
C1434 C1436 1.388 . S
C1435 C1434 1.366 . S
C1435 C1439 1.385 . S
C1436 H1417 0.951 . S
C1436 C1434 1.388 . S
C1436 C1437 1.366 . S
C1437 C1436 1.366 . S
C1437 C1438 1.414 . S
C1437 C1440 1.499 . S
C1438 H1418 0.950 . S
C1438 C1437 1.414 . S
C1438 C1439 1.374 . S
C1439 H1419 0.950 . S
C1439 C1435 1.385 . S
C1439 C1438 1.374 . S
C1440 C1437 1.499 . S
C1440 C1441 1.373 . S
C1440 C1442 1.389 . S
C1441 H1420 0.950 . S
C1441 C1440 1.373 . S
C1441 C1457 1.377 . S
C1442 C1440 1.389 . S
C1442 C1443 1.524 . S
C1442 C1456 1.377 . S
C1443 C1442 1.524 . S
C1443 C1444 1.397 . S
C1443 C1448 1.363 . S
C1444 H1421 0.950 . S
C1444 C1443 1.397 . S
C1444 C1445 1.334 . S
C1445 H1422 0.950 . S
C1445 C1444 1.334 . S
C1445 C1446 1.287 . S
C1446 C1445 1.287 . S
C1446 C1447 1.524 . S
C1446 H1465 0.913 . S
C1447 H1423 0.950 . S
C1447 C1446 1.524 . S
C1447 C1448 1.415 . S
C1448 H1424 0.950 . S
C1448 C1443 1.363 . S
C1448 C1447 1.415 . S
C1449 H1425 0.951 . S
C1449 C1450 1.366 . S
C1449 C1451 1.388 . S
C1450 C1449 1.366 . S
C1450 C1454 1.385 . S
C1451 H1426 0.951 . S
C1451 C1449 1.388 . S
C1451 C1452 1.366 . S
C1452 C1451 1.366 . S
C1452 C1453 1.414 . S
C1452 C1455 1.499 . S
C1453 H1427 0.950 . S
C1453 C1452 1.414 . S
C1453 C1454 1.374 . S
C1454 H1428 0.950 . S
C1454 C1450 1.385 . S
C1454 C1453 1.374 . S
C1455 C1452 1.499 . S
C1455 C1456 1.373 . S
C1455 C1457 1.389 . S
C1456 H1429 0.950 . S
C1456 C1442 1.377 . S
C1456 C1455 1.373 . S
C1457 C1441 1.377 . S
C1457 C1455 1.389 . S
C1457 C1458 1.524 . S
C1458 C1457 1.524 . S
C1458 C1459 1.397 . S
C1458 C1463 1.363 . S
C1459 H1430 0.950 . S
C1459 C1458 1.397 . S
C1459 C1460 1.334 . S
C1460 H1431 0.950 . S
C1460 C1459 1.334 . S
C1460 C1461 1.287 . S
C1461 C1460 1.287 . S
C1461 C1462 1.524 . S
C1461 H1464 0.999 . S
C1462 H1432 0.950 . S
C1462 C1461 1.524 . S
C1462 C1463 1.415 . S
C1463 H1433 0.950 . S
C1463 C1458 1.363 . S
C1463 C1462 1.415 . S
H1464 C1461 0.999 . S
H1465 C1446 0.913 . S
H1466 C1484 0.951 . S
H1467 C1486 0.951 . S
H1468 C1488 0.950 . S
H1469 C1489 0.950 . S
H1470 C1491 0.950 . S
H1471 C1494 0.950 . S
H1472 C1495 0.950 . S
H1473 C1497 0.950 . S
H1474 C1498 0.950 . S
H1475 C1499 0.951 . S
H1476 C1501 0.951 . S
H1477 C1503 0.950 . S
H1478 C1504 0.950 . S
H1479 C1506 0.950 . S
H1480 C1509 0.950 . S
H1481 C1510 0.950 . S
H1482 C1512 0.950 . S
H1483 C1513 0.950 . S
C1484 H1466 0.951 . S
C1484 C1485 1.366 . S
C1484 C1486 1.388 . S
C1485 C1484 1.366 . S
C1485 C1489 1.385 . S
C1486 H1467 0.951 . S
C1486 C1484 1.388 . S
C1486 C1487 1.366 . S
C1487 C1486 1.366 . S
C1487 C1488 1.414 . S
C1487 C1490 1.499 . S
C1488 H1468 0.950 . S
C1488 C1487 1.414 . S
C1488 C1489 1.374 . S
C1489 H1469 0.950 . S
C1489 C1485 1.385 . S
C1489 C1488 1.374 . S
C1490 C1487 1.499 . S
C1490 C1491 1.373 . S
C1490 C1492 1.389 . S
C1491 H1470 0.950 . S
C1491 C1490 1.373 . S
C1491 C1507 1.377 . S
C1492 C1490 1.389 . S
C1492 C1493 1.524 . S
C1492 C1506 1.377 . S
C1493 C1492 1.524 . S
C1493 C1494 1.397 . S
C1493 C1498 1.363 . S
C1494 H1471 0.950 . S
C1494 C1493 1.397 . S
C1494 C1495 1.334 . S
C1495 H1472 0.950 . S
C1495 C1494 1.334 . S
C1495 C1496 1.287 . S
C1496 C1495 1.287 . S
C1496 C1497 1.524 . S
C1496 H1515 0.913 . S
C1497 H1473 0.950 . S
C1497 C1496 1.524 . S
C1497 C1498 1.415 . S
C1498 H1474 0.950 . S
C1498 C1493 1.363 . S
C1498 C1497 1.415 . S
C1499 H1475 0.951 . S
C1499 C1500 1.366 . S
C1499 C1501 1.388 . S
C1500 C1499 1.366 . S
C1500 C1504 1.385 . S
C1501 H1476 0.951 . S
C1501 C1499 1.388 . S
C1501 C1502 1.366 . S
C1502 C1501 1.366 . S
C1502 C1503 1.414 . S
C1502 C1505 1.499 . S
C1503 H1477 0.950 . S
C1503 C1502 1.414 . S
C1503 C1504 1.374 . S
C1504 H1478 0.950 . S
C1504 C1500 1.385 . S
C1504 C1503 1.374 . S
C1505 C1502 1.499 . S
C1505 C1506 1.373 . S
C1505 C1507 1.389 . S
C1506 H1479 0.950 . S
C1506 C1492 1.377 . S
C1506 C1505 1.373 . S
C1507 C1491 1.377 . S
C1507 C1505 1.389 . S
C1507 C1508 1.524 . S
C1508 C1507 1.524 . S
C1508 C1509 1.397 . S
C1508 C1513 1.363 . S
C1509 H1480 0.950 . S
C1509 C1508 1.397 . S
C1509 C1510 1.334 . S
C1510 H1481 0.950 . S
C1510 C1509 1.334 . S
C1510 C1511 1.287 . S
C1511 C1510 1.287 . S
C1511 C1512 1.524 . S
C1511 H1514 0.999 . S
C1512 H1482 0.950 . S
C1512 C1511 1.524 . S
C1512 C1513 1.415 . S
C1513 H1483 0.950 . S
C1513 C1508 1.363 . S
C1513 C1512 1.415 . S
H1514 C1511 0.999 . S
H1515 C1496 0.913 . S
H1516 C1534 0.951 . S
H1517 C1536 0.951 . S
H1518 C1538 0.950 . S
H1519 C1539 0.950 . S
H1520 C1541 0.950 . S
H1521 C1544 0.950 . S
H1522 C1545 0.950 . S
H1523 C1547 0.950 . S
H1524 C1548 0.950 . S
H1525 C1549 0.951 . S
H1526 C1551 0.951 . S
H1527 C1553 0.950 . S
H1528 C1554 0.950 . S
H1529 C1556 0.950 . S
H1530 C1559 0.950 . S
H1531 C1560 0.950 . S
H1532 C1562 0.950 . S
H1533 C1563 0.950 . S
C1534 H1516 0.951 . S
C1534 C1535 1.366 . S
C1534 C1536 1.388 . S
C1535 C1534 1.366 . S
C1535 C1539 1.385 . S
C1536 H1517 0.951 . S
C1536 C1534 1.388 . S
C1536 C1537 1.366 . S
C1537 C1536 1.366 . S
C1537 C1538 1.414 . S
C1537 C1540 1.499 . S
C1538 H1518 0.950 . S
C1538 C1537 1.414 . S
C1538 C1539 1.374 . S
C1539 H1519 0.950 . S
C1539 C1535 1.385 . S
C1539 C1538 1.374 . S
C1540 C1537 1.499 . S
C1540 C1541 1.373 . S
C1540 C1542 1.389 . S
C1541 H1520 0.950 . S
C1541 C1540 1.373 . S
C1541 C1557 1.377 . S
C1542 C1540 1.389 . S
C1542 C1543 1.524 . S
C1542 C1556 1.377 . S
C1543 C1542 1.524 . S
C1543 C1544 1.397 . S
C1543 C1548 1.363 . S
C1544 H1521 0.950 . S
C1544 C1543 1.397 . S
C1544 C1545 1.334 . S
C1545 H1522 0.950 . S
C1545 C1544 1.334 . S
C1545 C1546 1.287 . S
C1546 C1545 1.287 . S
C1546 C1547 1.524 . S
C1546 H1565 0.913 . S
C1547 H1523 0.950 . S
C1547 C1546 1.524 . S
C1547 C1548 1.415 . S
C1548 H1524 0.950 . S
C1548 C1543 1.363 . S
C1548 C1547 1.415 . S
C1549 H1525 0.951 . S
C1549 C1550 1.366 . S
C1549 C1551 1.388 . S
C1550 C1549 1.366 . S
C1550 C1554 1.385 . S
C1551 H1526 0.951 . S
C1551 C1549 1.388 . S
C1551 C1552 1.366 . S
C1552 C1551 1.366 . S
C1552 C1553 1.414 . S
C1552 C1555 1.499 . S
C1553 H1527 0.950 . S
C1553 C1552 1.414 . S
C1553 C1554 1.374 . S
C1554 H1528 0.950 . S
C1554 C1550 1.385 . S
C1554 C1553 1.374 . S
C1555 C1552 1.499 . S
C1555 C1556 1.373 . S
C1555 C1557 1.389 . S
C1556 H1529 0.950 . S
C1556 C1542 1.377 . S
C1556 C1555 1.373 . S
C1557 C1541 1.377 . S
C1557 C1555 1.389 . S
C1557 C1558 1.524 . S
C1558 C1557 1.524 . S
C1558 C1559 1.397 . S
C1558 C1563 1.363 . S
C1559 H1530 0.950 . S
C1559 C1558 1.397 . S
C1559 C1560 1.334 1_455 S
C1560 H1531 0.950 . S
C1560 C1559 1.334 1_655 S
C1560 C1561 1.287 . S
C1561 C1560 1.287 . S
C1561 C1562 1.524 1_655 S
C1561 H1564 0.999 . S
C1562 H1532 0.950 . S
C1562 C1561 1.524 1_455 S
C1562 C1563 1.415 . S
C1563 H1533 0.950 . S
C1563 C1558 1.363 . S
C1563 C1562 1.415 . S
H1564 C1561 0.999 . S
H1565 C1546 0.913 . S
H1566 C1584 0.951 . S
H1567 C1586 0.951 . S
H1568 C1588 0.950 . S
H1569 C1589 0.950 . S
H1570 C1591 0.950 . S
H1571 C1594 0.950 . S
H1572 C1595 0.950 . S
H1573 C1597 0.950 . S
H1574 C1598 0.950 . S
H1575 C1599 0.951 . S
H1576 C1601 0.951 . S
H1577 C1603 0.950 . S
H1578 C1604 0.950 . S
H1579 C1606 0.950 . S
H1580 C1609 0.950 . S
H1581 C1610 0.950 . S
H1582 C1612 0.950 . S
H1583 C1613 0.950 . S
C1584 H1566 0.951 . S
C1584 C1585 1.366 . S
C1584 C1586 1.388 . S
C1585 C1584 1.366 . S
C1585 C1589 1.385 . S
C1586 H1567 0.951 . S
C1586 C1584 1.388 . S
C1586 C1587 1.366 . S
C1587 C1586 1.366 . S
C1587 C1588 1.414 . S
C1587 C1590 1.499 . S
C1588 H1568 0.950 . S
C1588 C1587 1.414 . S
C1588 C1589 1.374 . S
C1589 H1569 0.950 . S
C1589 C1585 1.385 . S
C1589 C1588 1.374 . S
C1590 C1587 1.499 . S
C1590 C1591 1.373 . S
C1590 C1592 1.389 . S
C1591 H1570 0.950 . S
C1591 C1590 1.373 . S
C1591 C1607 1.377 . S
C1592 C1590 1.389 . S
C1592 C1593 1.524 . S
C1592 C1606 1.377 . S
C1593 C1592 1.524 . S
C1593 C1594 1.397 . S
C1593 C1598 1.363 . S
C1594 H1571 0.950 . S
C1594 C1593 1.397 . S
C1594 C1595 1.334 . S
C1595 H1572 0.950 . S
C1595 C1594 1.334 . S
C1595 C1596 1.287 . S
C1596 C1595 1.287 . S
C1596 C1597 1.524 . S
C1596 H1615 0.913 . S
C1597 H1573 0.950 . S
C1597 C1596 1.524 . S
C1597 C1598 1.415 . S
C1598 H1574 0.950 . S
C1598 C1593 1.363 . S
C1598 C1597 1.415 . S
C1599 H1575 0.951 . S
C1599 C1600 1.366 . S
C1599 C1601 1.388 . S
C1600 C1599 1.366 . S
C1600 C1604 1.385 . S
C1601 H1576 0.951 . S
C1601 C1599 1.388 . S
C1601 C1602 1.366 . S
C1602 C1601 1.366 . S
C1602 C1603 1.414 . S
C1602 C1605 1.499 . S
C1603 H1577 0.950 . S
C1603 C1602 1.414 . S
C1603 C1604 1.374 . S
C1604 H1578 0.950 . S
C1604 C1600 1.385 . S
C1604 C1603 1.374 . S
C1605 C1602 1.499 . S
C1605 C1606 1.373 . S
C1605 C1607 1.389 . S
C1606 H1579 0.950 . S
C1606 C1592 1.377 . S
C1606 C1605 1.373 . S
C1607 C1591 1.377 . S
C1607 C1605 1.389 . S
C1607 C1608 1.524 . S
C1608 C1607 1.524 . S
C1608 C1609 1.397 . S
C1608 C1613 1.363 . S
C1609 H1580 0.950 . S
C1609 C1608 1.397 . S
C1609 C1610 1.334 . S
C1610 H1581 0.950 . S
C1610 C1609 1.334 . S
C1610 C1611 1.287 . S
C1611 C1610 1.287 . S
C1611 C1612 1.524 . S
C1611 H1614 0.999 . S
C1612 H1582 0.950 . S
C1612 C1611 1.524 . S
C1612 C1613 1.415 . S
C1613 H1583 0.950 . S
C1613 C1608 1.363 . S
C1613 C1612 1.415 . S
H1614 C1611 0.999 . S
H1615 C1596 0.913 . S
C435 C29 1.217 . S
C450 C263 1.216 . S
C485 C49 0.885 . S
C500 C312 0.892 . S
C550 C338 2.479 . S
C535 C93 2.474 . S
C585 C119 2.223 . S
C600 C386 2.222 . S
C650 C298 2.350 . S
C635 C17 2.343 . S
C700 C266 0.915 . S
C685 C61 0.930 . S
C750 C387 1.855 . S
C735 C81 1.870 . S
C800 C355 1.569 . S
C785 C125 1.552 . S
C835 C23 1.649 . S
C850 C383 1.652 . S
C900 C315 2.287 . S
C885 C87 2.316 . S
C935 C113 2.326 . S
C950 C267 2.362 . S
C985 C55 0.731 . S
C1000 C352 0.726 . S
C1050 C272 1.179 . S
C1035 C157 1.075 . S
C1085 C189 0.944 . S
C1100 C303 0.955 . S
C1135 C221 2.425 . S
C1150 C347 2.431 . S
C1185 C253 2.302 . S
C1200 C395 2.314 . S
C1235 C145 2.247 . S
C1250 C307 2.440 . S
C1300 C275 0.853 . S
C1285 C183 0.859 . S
C1350 C378 1.902 . S
C1335 C209 1.898 . S
C1400 C346 1.516 . S
C1385 C247 1.502 . S
C1435 C151 1.538 . S
C1450 C392 1.666 . S
C1500 C306 2.285 . S
C1485 C215 2.308 . S
C1550 C258 2.311 . S
C1535 C241 2.270 . S
C1585 C177 0.722 . S
C1600 C343 0.721 . S
