# Generated by pormake.
# Topology eea, (3,6)-cn, num edge types: 1
# Building blocks:
#     Node 0, Type 0, BuildingBlock: BELTOD_clean_linker_0, # of connection points: 3
#     Node 1, Type 0, BuildingBlock: BELTOD_clean_linker_0, # of connection points: 3
#     Node 2, Type 0, BuildingBlock: BELTOD_clean_linker_0, # of connection points: 3
#     Node 3, Type 0, BuildingBlock: BELTOD_clean_linker_0, # of connection points: 3
#     Node 4, Type 0, BuildingBlock: BELTOD_clean_linker_0, # of connection points: 3
#     Node 5, Type 0, BuildingBlock: BELTOD_clean_linker_0, # of connection points: 3
#     Node 6, Type 0, BuildingBlock: BELTOD_clean_linker_0, # of connection points: 3
#     Node 7, Type 0, BuildingBlock: BELTOD_clean_linker_0, # of connection points: 3
#     Node 8, Type 0, BuildingBlock: BELTOD_clean_linker_0, # of connection points: 3
#     Node 9, Type 0, BuildingBlock: BELTOD_clean_linker_0, # of connection points: 3
#     Node 10, Type 0, BuildingBlock: BELTOD_clean_linker_0, # of connection points: 3
#     Node 11, Type 0, BuildingBlock: BELTOD_clean_linker_0, # of connection points: 3
#     Node 12, Type 0, BuildingBlock: BELTOD_clean_linker_0, # of connection points: 3
#     Node 13, Type 0, BuildingBlock: BELTOD_clean_linker_0, # of connection points: 3
#     Node 14, Type 0, BuildingBlock: BELTOD_clean_linker_0, # of connection points: 3
#     Node 15, Type 0, BuildingBlock: BELTOD_clean_linker_0, # of connection points: 3
#     Node 16, Type 0, BuildingBlock: BELTOD_clean_linker_0, # of connection points: 3
#     Node 17, Type 0, BuildingBlock: BELTOD_clean_linker_0, # of connection points: 3
#     Node 18, Type 1, BuildingBlock: LEVNOQ01_clean_sbu_1, # of connection points: 6
#     Node 19, Type 1, BuildingBlock: LEVNOQ01_clean_sbu_1, # of connection points: 6
#     Node 20, Type 1, BuildingBlock: LEVNOQ01_clean_sbu_1, # of connection points: 6
#     Node 21, Type 1, BuildingBlock: LEVNOQ01_clean_sbu_1, # of connection points: 6
#     Node 22, Type 1, BuildingBlock: LEVNOQ01_clean_sbu_1, # of connection points: 6
#     Node 23, Type 1, BuildingBlock: LEVNOQ01_clean_sbu_1, # of connection points: 6
#     Node 24, Type 1, BuildingBlock: LEVNOQ01_clean_sbu_1, # of connection points: 6
#     Node 25, Type 1, BuildingBlock: LEVNOQ01_clean_sbu_1, # of connection points: 6
#     Node 26, Type 1, BuildingBlock: LEVNOQ01_clean_sbu_1, # of connection points: 6
#     Edge 27, Type (0, 1), BuildingBlock: AJUNOK_clean_linker_0, # of connection points: 2
#     Edge 28, Type (0, 1), BuildingBlock: AJUNOK_clean_linker_0, # of connection points: 2
#     Edge 29, Type (0, 1), BuildingBlock: AJUNOK_clean_linker_0, # of connection points: 2
#     Edge 30, Type (0, 1), BuildingBlock: AJUNOK_clean_linker_0, # of connection points: 2
#     Edge 31, Type (0, 1), BuildingBlock: AJUNOK_clean_linker_0, # of connection points: 2
#     Edge 32, Type (0, 1), BuildingBlock: AJUNOK_clean_linker_0, # of connection points: 2
#     Edge 33, Type (0, 1), BuildingBlock: AJUNOK_clean_linker_0, # of connection points: 2
#     Edge 34, Type (0, 1), BuildingBlock: AJUNOK_clean_linker_0, # of connection points: 2
#     Edge 35, Type (0, 1), BuildingBlock: AJUNOK_clean_linker_0, # of connection points: 2
#     Edge 36, Type (0, 1), BuildingBlock: AJUNOK_clean_linker_0, # of connection points: 2
#     Edge 37, Type (0, 1), BuildingBlock: AJUNOK_clean_linker_0, # of connection points: 2
#     Edge 38, Type (0, 1), BuildingBlock: AJUNOK_clean_linker_0, # of connection points: 2
#     Edge 39, Type (0, 1), BuildingBlock: AJUNOK_clean_linker_0, # of connection points: 2
#     Edge 40, Type (0, 1), BuildingBlock: AJUNOK_clean_linker_0, # of connection points: 2
#     Edge 41, Type (0, 1), BuildingBlock: AJUNOK_clean_linker_0, # of connection points: 2
#     Edge 42, Type (0, 1), BuildingBlock: AJUNOK_clean_linker_0, # of connection points: 2
#     Edge 43, Type (0, 1), BuildingBlock: AJUNOK_clean_linker_0, # of connection points: 2
#     Edge 44, Type (0, 1), BuildingBlock: AJUNOK_clean_linker_0, # of connection points: 2
#     Edge 45, Type (0, 1), BuildingBlock: AJUNOK_clean_linker_0, # of connection points: 2
#     Edge 46, Type (0, 1), BuildingBlock: AJUNOK_clean_linker_0, # of connection points: 2
#     Edge 47, Type (0, 1), BuildingBlock: AJUNOK_clean_linker_0, # of connection points: 2
#     Edge 48, Type (0, 1), BuildingBlock: AJUNOK_clean_linker_0, # of connection points: 2
#     Edge 49, Type (0, 1), BuildingBlock: AJUNOK_clean_linker_0, # of connection points: 2
#     Edge 50, Type (0, 1), BuildingBlock: AJUNOK_clean_linker_0, # of connection points: 2
#     Edge 51, Type (0, 1), BuildingBlock: AJUNOK_clean_linker_0, # of connection points: 2
#     Edge 52, Type (0, 1), BuildingBlock: AJUNOK_clean_linker_0, # of connection points: 2
#     Edge 53, Type (0, 1), BuildingBlock: AJUNOK_clean_linker_0, # of connection points: 2
#     Edge 54, Type (0, 1), BuildingBlock: AJUNOK_clean_linker_0, # of connection points: 2
#     Edge 55, Type (0, 1), BuildingBlock: AJUNOK_clean_linker_0, # of connection points: 2
#     Edge 56, Type (0, 1), BuildingBlock: AJUNOK_clean_linker_0, # of connection points: 2
#     Edge 57, Type (0, 1), BuildingBlock: AJUNOK_clean_linker_0, # of connection points: 2
#     Edge 58, Type (0, 1), BuildingBlock: AJUNOK_clean_linker_0, # of connection points: 2
#     Edge 59, Type (0, 1), BuildingBlock: AJUNOK_clean_linker_0, # of connection points: 2
#     Edge 60, Type (0, 1), BuildingBlock: AJUNOK_clean_linker_0, # of connection points: 2
#     Edge 61, Type (0, 1), BuildingBlock: AJUNOK_clean_linker_0, # of connection points: 2
#     Edge 62, Type (0, 1), BuildingBlock: AJUNOK_clean_linker_0, # of connection points: 2
#     Edge 63, Type (0, 1), BuildingBlock: AJUNOK_clean_linker_0, # of connection points: 2
#     Edge 64, Type (0, 1), BuildingBlock: AJUNOK_clean_linker_0, # of connection points: 2
#     Edge 65, Type (0, 1), BuildingBlock: AJUNOK_clean_linker_0, # of connection points: 2
#     Edge 66, Type (0, 1), BuildingBlock: AJUNOK_clean_linker_0, # of connection points: 2
#     Edge 67, Type (0, 1), BuildingBlock: AJUNOK_clean_linker_0, # of connection points: 2
#     Edge 68, Type (0, 1), BuildingBlock: AJUNOK_clean_linker_0, # of connection points: 2
#     Edge 69, Type (0, 1), BuildingBlock: AJUNOK_clean_linker_0, # of connection points: 2
#     Edge 70, Type (0, 1), BuildingBlock: AJUNOK_clean_linker_0, # of connection points: 2
#     Edge 71, Type (0, 1), BuildingBlock: AJUNOK_clean_linker_0, # of connection points: 2
#     Edge 72, Type (0, 1), BuildingBlock: AJUNOK_clean_linker_0, # of connection points: 2
#     Edge 73, Type (0, 1), BuildingBlock: AJUNOK_clean_linker_0, # of connection points: 2
#     Edge 74, Type (0, 1), BuildingBlock: AJUNOK_clean_linker_0, # of connection points: 2
#     Edge 75, Type (0, 1), BuildingBlock: AJUNOK_clean_linker_0, # of connection points: 2
#     Edge 76, Type (0, 1), BuildingBlock: AJUNOK_clean_linker_0, # of connection points: 2
#     Edge 77, Type (0, 1), BuildingBlock: AJUNOK_clean_linker_0, # of connection points: 2
#     Edge 78, Type (0, 1), BuildingBlock: AJUNOK_clean_linker_0, # of connection points: 2
#     Edge 79, Type (0, 1), BuildingBlock: AJUNOK_clean_linker_0, # of connection points: 2
#     Edge 80, Type (0, 1), BuildingBlock: AJUNOK_clean_linker_0, # of connection points: 2
# Relax obj value: 0.090
# Max RMSD: 0.174
# Mean RMSD: 0.085
data_MOF--net-eea--node1-LEVNOQ01_clean_sbu_1--node2-BELTOD_clean_linker_0--edge1-AJUNOK_clean_linker_0
_symmetry_space_group_name_H-M    P1
_symmetry_Int_Tables_number       1
_symmetry_cell_setting            triclinic
loop_
_symmetry_equiv_pos_as_xyz
'x, y, z'
_cell_length_a     47.942321
_cell_length_b     47.570694
_cell_length_c     47.128626
_cell_angle_alpha  90.542614
_cell_angle_beta   89.854343
_cell_angle_gamma 120.026
loop_
_atom_site_label
_atom_site_type_symbol
_atom_site_fract_x
_atom_site_fract_y
_atom_site_fract_z
_atom_type_partial_charge
P0 P 0.27873 0.12878 0.38417 0.0
H1 H 0.2677 0.09159 0.33183 0.0
H2 H 0.23097 0.03445 0.31971 0.0
H3 H 0.19212 0.01765 0.40461 0.0
H4 H 0.22883 0.07458 0.41668 0.0
H5 H 0.30491 0.19335 0.35948 0.0
H6 H 0.28001 0.2258 0.34687 0.0
H7 H 0.18819 0.14965 0.37688 0.0
H8 H 0.21284 0.11685 0.3888 0.0
H9 H 0.31912 0.11245 0.4184 0.0
H10 H 0.25304 0.14793 0.43245 0.0
O11 O 0.31328 0.14176 0.36665 0.0
H12 H 0.32585 0.11106 0.47003 0.0
H13 H 0.25875 0.14541 0.4833 0.0
C14 C 0.25158 0.08704 0.3753 0.0
C15 C 0.25136 0.07557 0.34782 0.0
C16 C 0.23023 0.04308 0.3409 0.0
C17 C 0.20898 0.02173 0.36136 0.0
C18 C 0.20864 0.03355 0.38865 0.0
C19 C 0.2297 0.06605 0.39552 0.0
C20 C 0.26059 0.15253 0.37461 0.0
C21 C 0.27942 0.18357 0.36325 0.0
C22 C 0.26531 0.20215 0.3563 0.0
C23 C 0.23238 0.19017 0.36129 0.0
C24 C 0.21371 0.15941 0.37323 0.0
C25 C 0.2277 0.14061 0.37969 0.0
C26 C 0.28635 0.13119 0.42158 0.0
C27 C 0.30633 0.12018 0.43252 0.0
C28 C 0.30971 0.11884 0.46187 0.0
C29 C 0.29287 0.12825 0.48044 0.0
C30 C 0.27228 0.13842 0.46933 0.0
C31 C 0.26919 0.14006 0.44018 0.0
P32 P 0.89729 0.0787 0.43442 0.0
H33 H 0.89154 0.02225 0.40383 0.0
H34 H 0.84895 0.98122 0.37341 0.0
H35 H 0.79696 0.03344 0.3792 0.0
H36 H 0.83967 0.07456 0.40942 0.0
H37 H 0.94764 0.13932 0.45853 0.0
H38 H 0.99069 0.18907 0.43759 0.0
H39 H 0.95744 0.14896 0.35374 0.0
H40 H 0.91434 0.09906 0.37483 0.0
H41 H 0.85652 0.03859 0.48027 0.0
H42 H 0.88655 0.1334 0.44632 0.0
O43 O 0.91594 0.06106 0.44963 0.0
H44 H 0.82363 0.04654 0.51582 0.0
H45 H 0.85517 0.14213 0.48244 0.0
C46 C 0.86839 0.05103 0.40921 0.0
C47 C 0.87117 0.02506 0.39829 0.0
C48 C 0.84696 0.00176 0.38088 0.0
C49 C 0.81977 0.00427 0.37418 0.0
C50 C 0.81764 0.03095 0.38432 0.0
C51 C 0.84199 0.05438 0.40151 0.0
C52 C 0.92752 0.11573 0.41829 0.0
C53 C 0.94941 0.14134 0.43564 0.0
C54 C 0.97395 0.16973 0.42366 0.0
C55 C 0.97738 0.17284 0.39404 0.0
C56 C 0.95548 0.14708 0.37662 0.0
C57 C 0.93073 0.11868 0.38868 0.0
C58 C 0.87476 0.08581 0.46129 0.0
C59 C 0.85633 0.06126 0.4807 0.0
C60 C 0.83741 0.06573 0.50085 0.0
C61 C 0.83649 0.0948 0.50176 0.0
C62 C 0.85465 0.11911 0.48189 0.0
C63 C 0.87326 0.11447 0.46159 0.0
P64 P 0.83134 0.69495 0.38053 0.0
H65 H 0.78566 0.68145 0.33418 0.0
H66 H 0.75128 0.70437 0.32305 0.0
H67 H 0.79906 0.77742 0.38831 0.0
H68 H 0.83383 0.7548 0.39897 0.0
H69 H 0.86217 0.68549 0.33096 0.0
H70 H 0.91862 0.7078 0.31772 0.0
H71 H 0.9476 0.77214 0.39056 0.0
H72 H 0.89083 0.75104 0.40272 0.0
H73 H 0.7776 0.68188 0.41782 0.0
H74 H 0.87355 0.69654 0.42697 0.0
O75 O 0.81277 0.6573 0.3671 0.0
H76 H 0.76954 0.6741 0.4692 0.0
H77 H 0.86591 0.6901 0.47833 0.0
C78 C 0.81162 0.71601 0.36788 0.0
C79 C 0.78917 0.70278 0.3457 0.0
C80 C 0.76953 0.71581 0.3394 0.0
C81 C 0.77209 0.74213 0.3553 0.0
C82 C 0.79657 0.75706 0.3758 0.0
C83 C 0.81631 0.74409 0.38199 0.0
C84 C 0.87252 0.71543 0.36868 0.0
C85 C 0.88064 0.70466 0.34391 0.0
C86 C 0.9129 0.71738 0.33638 0.0
C87 C 0.93754 0.74078 0.35374 0.0
C88 C 0.92914 0.7538 0.37698 0.0
C89 C 0.89676 0.74148 0.38417 0.0
C90 C 0.8267 0.69119 0.41859 0.0
C91 C 0.79721 0.6842 0.43089 0.0
C92 C 0.79254 0.67969 0.46017 0.0
C93 C 0.81738 0.68229 0.47762 0.0
C94 C 0.84673 0.68887 0.4653 0.0
C95 C 0.85116 0.69273 0.43596 0.0
P96 P 0.13844 0.29758 0.61705 0.0
H97 H 0.09921 0.29968 0.66336 0.0
H98 H 0.04103 0.27624 0.66914 0.0
H99 H 0.02526 0.2269 0.58832 0.0
H100 H 0.08354 0.2509 0.58243 0.0
H101 H 0.20335 0.3181 0.6349 0.0
H102 H 0.23121 0.28785 0.64365 0.0
H103 H 0.14092 0.19771 0.63776 0.0
H104 H 0.11287 0.22815 0.62884 0.0
H105 H 0.15129 0.35015 0.57826 0.0
H106 H 0.14721 0.25755 0.57382 0.0
O107 O 0.15507 0.33386 0.63309 0.0
H108 H 0.16711 0.35948 0.52838 0.0
H109 H 0.16385 0.26716 0.52406 0.0
C110 C 0.09561 0.27754 0.62222 0.0
C111 C 0.0832 0.28363 0.64699 0.0
C112 C 0.04997 0.26998 0.6504 0.0
C113 C 0.02866 0.24971 0.62919 0.0
C114 C 0.0412 0.24264 0.60489 0.0
C115 C 0.07445 0.25635 0.6015 0.0
C116 C 0.15607 0.27539 0.63162 0.0
C117 C 0.18933 0.29191 0.6365 0.0
C118 C 0.20522 0.27466 0.64134 0.0
C119 C 0.18806 0.24062 0.64134 0.0
C120 C 0.15445 0.224 0.63815 0.0
C121 C 0.1385 0.24136 0.63313 0.0
C122 C 0.14877 0.30354 0.57994 0.0
C123 C 0.15413 0.33199 0.56665 0.0
C124 C 0.1635 0.33742 0.53822 0.0
C125 C 0.1677 0.31447 0.52256 0.0
C126 C 0.16127 0.28546 0.53571 0.0
C127 C 0.15183 0.28002 0.56417 0.0
P128 P 0.82905 0.91754 0.56441 0.0
H129 H 0.8784 0.9756 0.5941 0.0
H130 H 0.8749 0.01616 0.62409 0.0
H131 H 0.7711 0.96093 0.61832 0.0
H132 H 0.77463 0.92043 0.58875 0.0
H133 H 0.84796 0.86969 0.55018 0.0
H134 H 0.8404 0.82093 0.57429 0.0
H135 H 0.78424 0.8346 0.63901 0.0
H136 H 0.7922 0.88339 0.61517 0.0
H137 H 0.82862 0.95815 0.5192 0.0
H138 H 0.76464 0.86252 0.55187 0.0
O139 O 0.86561 0.93508 0.54977 0.0
H140 H 0.78779 0.9508 0.48406 0.0
H141 H 0.72405 0.85495 0.51666 0.0
C142 C 0.8268 0.94526 0.58907 0.0
C143 C 0.85493 0.97209 0.59955 0.0
C144 C 0.85292 -0.00477 0.61653 0.0
C145 C 0.82275 0.99152 0.62341 0.0
C146 C 0.79462 0.96409 0.61356 0.0
C147 C 0.79665 0.94109 0.59657 0.0
C148 C 0.82141 0.88062 0.58129 0.0
C149 C 0.83393 0.8621 0.56951 0.0
C150 C 0.82931 0.83409 0.58309 0.0
C151 C 0.81181 0.82412 0.60852 0.0
C152 C 0.7981 0.84199 0.61956 0.0
C153 C 0.80274 0.86995 0.60598 0.0
C154 C 0.80002 0.91043 0.53736 0.0
C155 C 0.80596 0.93543 0.51852 0.0
C156 C 0.78261 0.93139 0.49873 0.0
C157 C 0.75293 0.90232 0.49773 0.0
C158 C 0.7467 0.87769 0.51721 0.0
C159 C 0.77008 0.88176 0.53697 0.0
P160 P 0.1484 0.84704 0.6222 0.0
H161 H 0.17744 0.88043 0.67574 0.0
H162 H 0.19887 0.93677 0.69149 0.0
H163 H 0.17454 0.96006 0.61017 0.0
H164 H 0.15406 0.90417 0.59433 0.0
H165 H 0.10399 0.78263 0.64533 0.0
H166 H 0.04527 0.75289 0.65152 0.0
H167 H 0.04057 0.83527 0.61987 0.0
H168 H 0.09883 0.86464 0.61341 0.0
H169 H 0.20793 0.87969 0.58984 0.0
H170 H 0.10666 0.81697 0.57235 0.0
O171 O 0.16625 0.82976 0.6394 0.0
H172 H 0.21872 0.88749 0.53873 0.0
H173 H 0.11734 0.82427 0.52167 0.0
C174 C 0.16473 0.88835 0.63378 0.0
C175 C 0.17688 0.89773 0.66132 0.0
C176 C 0.1887 0.92976 0.67037 0.0
C177 C 0.18793 0.95262 0.65211 0.0
C178 C 0.17548 0.94297 0.62461 0.0
C179 C 0.16387 0.91106 0.61556 0.0
C180 C 0.10583 0.82598 0.62923 0.0
C181 C 0.09037 0.79442 0.64008 0.0
C182 C 0.05692 0.77752 0.64367 0.0
C183 C 0.03857 0.79187 0.63607 0.0
C184 C 0.05421 0.82365 0.62568 0.0
C185 C 0.08755 0.84051 0.62219 0.0
C186 C 0.15652 0.8479 0.58488 0.0
C187 C 0.18813 0.86726 0.575 0.0
C188 C 0.19425 0.87185 0.54589 0.0
C189 C 0.16878 0.85691 0.52631 0.0
C190 C 0.13732 0.83672 0.53634 0.0
C191 C 0.13123 0.83223 0.56536 0.0
P192 P 0.95258 0.46592 0.72858 0.0
H193 H 0.96136 0.41373 0.7052 0.0
H194 H 0.92345 0.35646 0.69506 0.0
H195 H 0.84524 0.36832 0.72673 0.0
H196 H 0.8829 0.42581 0.73532 0.0
H197 H 0.96404 0.5293 0.74845 0.0
H198 H 0.94226 0.5639 0.73324 0.0
H199 H 0.88473 0.49272 0.66953 0.0
H200 H 0.90725 0.45886 0.68383 0.0
H201 H 0.00575 0.47475 0.76526 0.0
H202 H 0.90894 0.45742 0.77475 0.0
O203 O 0.98778 0.47832 0.71237 0.0
H204 H 0.0088 0.46851 0.81631 0.0
H205 H 0.9102 0.44716 0.82492 0.0
C206 C 0.92482 0.42413 0.7203 0.0
C207 C 0.93603 0.40407 0.70967 0.0
C208 C 0.91442 0.37127 0.70435 0.0
C209 C 0.88136 0.35804 0.71001 0.0
C210 C 0.87047 0.37799 0.72176 0.0
C211 C 0.89203 0.41082 0.72674 0.0
C212 C 0.93646 0.49108 0.71787 0.0
C213 C 0.94653 0.52104 0.73139 0.0
C214 C 0.93408 0.54066 0.72284 0.0
C215 C 0.91131 0.5303 0.70083 0.0
C216 C 0.90166 0.50061 0.68705 0.0
C217 C 0.91453 0.48134 0.69524 0.0
C218 C 0.95713 0.46657 0.7663 0.0
C219 C 0.98509 0.46941 0.77832 0.0
C220 C 0.98645 0.46493 0.80743 0.0
C221 C 0.95932 0.45616 0.8247 0.0
C222 C 0.93153 0.45379 0.81239 0.0
C223 C 0.9307 0.4595 0.78359 0.0
P224 P 0.55894 0.41129 0.76835 0.0
H225 H 0.55097 0.3566 0.73366 0.0
H226 H 0.50911 0.32082 0.70003 0.0
H227 H 0.46175 0.37718 0.71071 0.0
H228 H 0.5036 0.41283 0.74453 0.0
H229 H 0.62222 0.45928 0.78943 0.0
H230 H 0.66832 0.50579 0.76727 0.0
H231 H 0.61303 0.48831 0.69035 0.0
H232 H 0.56698 0.4423 0.71261 0.0
H233 H 0.50801 0.36818 0.80604 0.0
H234 H 0.56154 0.47104 0.78985 0.0
O235 O 0.57439 0.39005 0.78259 0.0
H236 H 0.47622 0.37694 0.8421 0.0
H237 H 0.53053 0.48008 0.82646 0.0
C238 C 0.52986 0.38677 0.74195 0.0
C239 C 0.53173 0.36139 0.7286 0.0
C240 C 0.50805 0.34124 0.7092 0.0
C241 C 0.48244 0.34651 0.70276 0.0
C242 C 0.48128 0.37269 0.71544 0.0
C243 C 0.50502 0.39288 0.73478 0.0
C244 C 0.59129 0.44722 0.75267 0.0
C245 C 0.61997 0.46564 0.76788 0.0
C246 C 0.64629 0.49201 0.75516 0.0
C247 C 0.64423 0.50047 0.72706 0.0
C248 C 0.61517 0.48245 0.7121 0.0
C249 C 0.58886 0.45605 0.72484 0.0
C250 C 0.53738 0.41902 0.79566 0.0
C251 C 0.51303 0.39268 0.81042 0.0
C252 C 0.49478 0.39765 0.83086 0.0
C253 C 0.50056 0.4291 0.83679 0.0
C254 C 0.52495 0.45546 0.82181 0.0
C255 C 0.54308 0.45042 0.80122 0.0
P256 P 0.50507 0.03607 0.7185 0.0
H257 H 0.4895 0.05511 0.66464 0.0
H258 H 0.46317 0.08657 0.65343 0.0
H259 H 0.45906 0.10465 0.74302 0.0
H260 H 0.48711 0.0756 0.7537 0.0
H261 H 0.54826 0.01027 0.71289 0.0
H262 H 0.60685 0.03597 0.70827 0.0
H263 H 0.61455 0.13037 0.70839 0.0
H264 H 0.55589 0.10455 0.71303 0.0
H265 H 0.44427 -0.00503 0.74706 0.0
H266 H 0.54459 0.0521 0.77033 0.0
O267 O 0.48684 0.00302 0.69784 0.0
H268 H 0.43004 0.98132 0.79701 0.0
H269 H 0.53071 0.03752 0.81989 0.0
C270 C 0.48952 0.06238 0.70999 0.0
C271 C 0.48347 0.06651 0.68172 0.0
C272 C 0.46841 0.0844 0.67538 0.0
C273 C 0.45912 0.0983 0.6973 0.0
C274 C 0.4666 0.09515 0.7255 0.0
C275 C 0.48214 0.07786 0.73172 0.0
C276 C 0.54776 0.05546 0.71271 0.0
C277 C 0.56253 0.03647 0.71154 0.0
C278 C 0.59593 0.05115 0.70912 0.0
C279 C 0.61509 0.08509 0.70779 0.0
C280 C 0.60023 0.10413 0.70892 0.0
C281 C 0.56676 0.08939 0.71156 0.0
C282 C 0.49551 0.02382 0.75489 0.0
C283 C 0.46326 0.00402 0.76285 0.0
C284 C 0.45516 -0.00371 0.79136 0.0
C285 C 0.4793 0.00807 0.81233 0.0
C286 C 0.51157 0.02821 0.80423 0.0
C287 C 0.51958 0.03619 0.7758 0.0
P288 P 0.80401 0.62603 0.94758 0.0
H289 H 0.76133 0.63378 0.98704 0.0
H290 H 0.70292 0.60443 0.99286 0.0
H291 H 0.69431 0.53647 0.92721 0.0
H292 H 0.7528 0.56694 0.92059 0.0
H293 H 0.87067 0.6524 0.96324 0.0
H294 H 0.90238 0.6264 0.97357 0.0
H295 H 0.81545 0.53288 0.975 0.0
H296 H 0.78361 0.55893 0.96484 0.0
H297 H 0.80964 0.67353 0.906 0.0
H298 H 0.81818 0.58746 0.90688 0.0
O299 O 0.81819 0.66298 0.96184 0.0
H300 H 0.82462 0.68117 0.85586 0.0
H301 H 0.83398 0.59548 0.8569 0.0
C302 C 0.76124 0.60292 0.95296 0.0
C303 C 0.74689 0.61264 0.97382 0.0
C304 C 0.71352 0.59566 0.97731 0.0
C305 C 0.69398 0.56843 0.9602 0.0
C306 C 0.70865 0.55788 0.94017 0.0
C307 C 0.74204 0.57516 0.93646 0.0
C308 C 0.82484 0.60766 0.96346 0.0
C309 C 0.85829 0.62645 0.96675 0.0
C310 C 0.87637 0.61162 0.97245 0.0
C311 C 0.8612 0.57774 0.97474 0.0
C312 C 0.8275 0.55908 0.97339 0.0
C313 C 0.80937 0.57398 0.9676 0.0
C314 C 0.81334 0.63032 0.91029 0.0
C315 C 0.81485 0.65636 0.89544 0.0
C316 C 0.8236 0.66078 0.86686 0.0
C317 C 0.83079 0.63908 0.85255 0.0
C318 C 0.82847 0.6125 0.86732 0.0
C319 C 0.81962 0.60805 0.89595 0.0
P320 P 0.49124 0.24802 0.89259 0.0
H321 H 0.54025 0.30638 0.92221 0.0
H322 H 0.53604 0.34512 0.95409 0.0
H323 H 0.43228 0.28631 0.95144 0.0
H324 H 0.43659 0.24748 0.92009 0.0
H325 H 0.50192 0.19648 0.87106 0.0
H326 H 0.49515 0.14648 0.89241 0.0
H327 H 0.45994 0.16827 0.96915 0.0
H328 H 0.46614 0.21736 0.94782 0.0
H329 H 0.48674 0.29223 0.85375 0.0
H330 H 0.42962 0.191 0.87544 0.0
O331 O 0.52752 0.26671 0.87744 0.0
H332 H 0.44567 0.28581 0.81939 0.0
H333 H 0.38894 0.18426 0.84056 0.0
C334 C 0.48873 0.27436 0.91865 0.0
C335 C 0.51665 0.30167 0.92879 0.0
C336 C 0.51423 0.32377 0.94686 0.0
C337 C 0.48385 0.3186 0.95513 0.0
C338 C 0.45597 0.29062 0.94566 0.0
C339 C 0.45843 0.26858 0.92763 0.0
C340 C 0.48479 0.21075 0.9079 0.0
C341 C 0.49255 0.19027 0.89241 0.0
C342 C 0.48873 0.16183 0.90458 0.0
C343 C 0.47673 0.15338 0.93229 0.0
C344 C 0.46858 0.1738 0.94752 0.0
C345 C 0.47239 0.2021 0.93538 0.0
C346 C 0.46167 0.24185 0.86634 0.0
C347 C 0.46554 0.26854 0.85082 0.0
C348 C 0.44202 0.26495 0.83143 0.0
C349 C 0.41435 0.23451 0.82725 0.0
C350 C 0.41002 0.20803 0.84355 0.0
C351 C 0.43349 0.21171 0.86309 0.0
P352 P 0.80906 0.18443 0.94662 0.0
H353 H 0.8379 0.21693 0.00032 0.0
H354 H 0.85468 0.27155 0.01845 0.0
H355 H 0.81892 0.29226 0.94208 0.0
H356 H 0.80232 0.23768 0.92397 0.0
H357 H 0.77618 0.12782 0.9837 0.0
H358 H 0.71911 0.09091 0.99387 0.0
H359 H 0.69329 0.14577 0.938 0.0
H360 H 0.75036 0.18301 0.92845 0.0
H361 H 0.86344 0.2305 0.9125 0.0
H362 H 0.77121 0.1445 0.89793 0.0
O363 O 0.8319 0.17127 0.96156 0.0
H364 H 0.87358 0.23544 0.86123 0.0
H365 H 0.78073 0.14995 0.84695 0.0
C366 C 0.8198 0.22376 0.96053 0.0
C367 C 0.83363 0.23321 0.98753 0.0
C368 C 0.84288 0.26422 -0.00205 0.0
C369 C 0.83827 0.28607 0.98149 0.0
C370 C 0.82307 0.27596 0.95496 0.0
C371 C 0.8137 0.24489 0.94463 0.0
C372 C 0.76736 0.15774 0.95491 0.0
C373 C 0.75825 0.13194 0.97369 0.0
C374 C 0.72567 0.11085 0.97945 0.0
C375 C 0.70181 0.11527 0.96638 0.0
C376 C 0.71118 0.14187 0.9484 0.0
C377 C 0.74372 0.16301 0.94279 0.0
C378 C 0.81628 0.18757 0.90898 0.0
C379 C 0.8452 0.21299 0.89825 0.0
C380 C 0.85083 0.21602 0.869 0.0
C381 C 0.82765 0.19349 0.85011 0.0
C382 C 0.79889 0.16785 0.86104 0.0
C383 C 0.79337 0.16476 0.89021 0.0
P384 P 0.62505 0.80829 0.06586 0.0
H385 H 0.58765 0.78431 0.01286 0.0
H386 H 0.55758 0.72961 0.99245 0.0
H387 H 0.60057 0.69583 0.05395 0.0
H388 H 0.6296 0.75017 0.07492 0.0
H389 H 0.64107 0.87597 0.05934 0.0
H390 H 0.60785 0.90065 0.04951 0.0
H391 H 0.52227 0.80603 0.05235 0.0
H392 H 0.55537 0.78152 0.06211 0.0
H393 H 0.67314 0.83179 0.11151 0.0
H394 H 0.57202 0.76227 0.10098 0.0
O395 O 0.66306 0.83337 0.05613 0.0
H396 H 0.66961 0.81707 0.16154 0.0
H397 H 0.5684 0.74751 0.15097 0.0
C398 C 0.60945 0.7708 0.04632 0.0
C399 C 0.59053 0.76512 0.02201 0.0
C400 C 0.57344 0.7339 0.01031 0.0
C401 C 0.57564 0.70822 0.02249 0.0
C402 C 0.59722 0.71485 0.04505 0.0
C403 C 0.61407 0.74596 0.05682 0.0
C404 C 0.60075 0.82685 0.06066 0.0
C405 C 0.61515 0.8606 0.0581 0.0
C406 C 0.59615 0.87471 0.0529 0.0
C407 C 0.56252 0.85517 0.05036 0.0
C408 C 0.54813 0.82156 0.0543 0.0
C409 C 0.56708 0.80758 0.0597 0.0
C410 C 0.62277 0.79841 0.10272 0.0
C411 C 0.65022 0.81342 0.11994 0.0
C412 C 0.64822 0.80476 0.14838 0.0
C413 C 0.61871 0.78107 0.15994 0.0
C414 C 0.59132 0.76594 0.14255 0.0
C415 C 0.59337 0.77455 0.11411 0.0
P416 P 0.23083 0.74155 0.10828 0.0
H417 H 0.23023 0.68881 0.07533 0.0
H418 H 0.19038 0.64831 0.04256 0.0
H419 H 0.13191 0.69351 0.05143 0.0
H420 H 0.17194 0.73415 0.08348 0.0
H421 H 0.29623 0.78949 0.12443 0.0
H422 H 0.33842 0.83784 0.10091 0.0
H423 H 0.27249 0.82422 0.03295 0.0
H424 H 0.23021 0.77586 0.05659 0.0
H425 H 0.17999 0.69573 0.14472 0.0
H426 H 0.22829 0.79879 0.12951 0.0
O427 O 0.24985 0.72445 0.1238 0.0
H428 H 0.14541 0.70129 0.17997 0.0
H429 H 0.19453 0.80468 0.16531 0.0
C430 C 0.20363 0.71399 0.08211 0.0
C431 C 0.20899 0.69015 0.06992 0.0
C432 C 0.1863 0.6671 0.05128 0.0
C433 C 0.15826 0.66797 0.04444 0.0
C434 C 0.15361 0.69266 0.05596 0.0
C435 C 0.17627 0.71564 0.0745 0.0
C436 C 0.26035 0.77873 0.09198 0.0
C437 C 0.29079 0.79693 0.10452 0.0
C438 C 0.31485 0.82444 0.09107 0.0
C439 C 0.3087 0.8344 0.06501 0.0
C440 C 0.27776 0.81696 0.05303 0.0
C441 C 0.25368 0.78928 0.06649 0.0
C442 C 0.2068 0.74688 0.13475 0.0
C443 C 0.1832 0.71958 0.14909 0.0
C444 C 0.16339 0.72273 0.1691 0.0
C445 C 0.16689 0.75331 0.17507 0.0
C446 C 0.19063 0.78065 0.16058 0.0
C447 C 0.21031 0.77742 0.14042 0.0
P448 P 0.17308 0.36553 0.05266 0.0
H449 H 0.11649 0.34563 0.01667 0.0
H450 H 0.0824 0.36967 0.00914 0.0
H451 H 0.1492 0.45438 0.0574 0.0
H452 H 0.18371 0.43082 0.06426 0.0
H453 H 0.22237 0.3511 0.06892 0.0
H454 H 0.28071 0.37946 0.06299 0.0
H455 H 0.27669 0.45672 0.01914 0.0
H456 H 0.21796 0.42735 0.02395 0.0
H457 H 0.1318 0.30774 0.08647 0.0
H458 H 0.19791 0.40956 0.10139 0.0
O459 O 0.15795 0.32978 0.03589 0.0
H460 H 0.12121 0.29989 0.1373 0.0
H461 H 0.18486 0.40276 0.15163 0.0
C462 C 0.15267 0.38641 0.04105 0.0
C463 C 0.12438 0.36979 0.02489 0.0
C464 C 0.1049 0.38349 0.02059 0.0
C465 C 0.11331 0.41376 0.03277 0.0
C466 C 0.14231 0.43096 0.04787 0.0
C467 C 0.16195 0.41745 0.05183 0.0
C468 C 0.21591 0.38729 0.04726 0.0
C469 C 0.23402 0.37409 0.05793 0.0
C470 C 0.26736 0.39041 0.05467 0.0
C471 C 0.2833 0.4204 0.04072 0.0
C472 C 0.26504 0.4335 0.02973 0.0
C473 C 0.23148 0.41689 0.03278 0.0
C474 C 0.16555 0.35925 0.09013 0.0
C475 C 0.14363 0.32851 0.10063 0.0
C476 C 0.13707 0.32421 0.12971 0.0
C477 C 0.15152 0.35085 0.14866 0.0
C478 C 0.17327 0.38166 0.1378 0.0
C479 C 0.18054 0.38568 0.10893 0.0
P480 P 0.46676 0.96268 0.2815 0.0
H481 H 0.42559 0.97093 0.32274 0.0
H482 H 0.36703 0.94332 0.32894 0.0
H483 H 0.3551 0.87827 0.25954 0.0
H484 H 0.4134 0.90649 0.25285 0.0
H485 H 0.5223 0.98128 0.31861 0.0
H486 H 0.55235 0.95377 0.32988 0.0
H487 H 0.48032 0.86743 0.2866 0.0
H488 H 0.45064 0.89509 0.27502 0.0
H489 H 0.43299 0.96568 0.23048 0.0
H490 H 0.52466 0.97413 0.25084 0.0
O491 O 0.4829 -0.00077 0.29695 0.0
H492 H 0.44689 0.97125 0.18006 0.0
H493 H 0.53889 0.98071 0.20038 0.0
C494 C 0.42381 0.94119 0.28696 0.0
C495 C 0.41037 0.95078 0.30881 0.0
C496 C 0.37696 0.93487 0.31248 0.0
C497 C 0.35655 0.90902 0.29442 0.0
C498 C 0.37023 0.8986 0.27335 0.0
C499 C 0.40357 0.91457 0.26965 0.0
C500 C 0.48397 0.9401 0.29631 0.0
C501 C 0.51239 0.9561 0.31236 0.0
C502 C 0.52953 0.94035 0.31883 0.0
C503 C 0.5185 0.90845 0.30919 0.0
C504 C 0.48924 0.89202 0.2943 0.0
C505 C 0.47214 0.90776 0.28787 0.0
C506 C 0.47722 0.96819 0.24439 0.0
C507 C 0.45587 0.96826 0.22417 0.0
C508 C 0.46382 0.97147 0.19539 0.0
C509 C 0.49361 0.9756 0.18649 0.0
C510 C 0.51557 0.97698 0.2068 0.0
C511 C 0.50739 0.97321 0.23556 0.0
P512 P 0.16373 0.58807 0.22109 0.0
H513 H 0.2222 0.64883 0.23796 0.0
H514 H 0.2305 0.6933 0.27053 0.0
H515 H 0.129 0.64232 0.28985 0.0
H516 H 0.12063 0.59845 0.25737 0.0
H517 H 0.17452 0.53461 0.20507 0.0
H518 H 0.1684 0.48717 0.23078 0.0
H519 H 0.13687 0.51772 0.30482 0.0
H520 H 0.14198 0.56399 0.27907 0.0
H521 H 0.14021 0.62902 0.19741 0.0
H522 H 0.11013 0.52704 0.19862 0.0
O523 O 0.19489 0.60077 0.19898 0.0
H524 H 0.09293 0.61715 0.16904 0.0
H525 H 0.064 0.51525 0.16891 0.0
C526 C 0.17078 0.62045 0.24528 0.0
C527 C 0.20178 0.64733 0.24917 0.0
C528 C 0.20652 0.67268 0.26757 0.0
C529 C 0.18031 0.67097 0.28233 0.0
C530 C 0.14945 0.64401 0.27848 0.0
C531 C 0.14472 0.61899 0.26006 0.0
C532 C 0.15908 0.55316 0.24015 0.0
C533 C 0.16622 0.531 0.22683 0.0
C534 C 0.16276 0.50394 0.24152 0.0
C535 C 0.15185 0.4985 0.26974 0.0
C536 C 0.14462 0.52074 0.2829 0.0
C537 C 0.14788 0.54757 0.26819 0.0
C538 C 0.12848 0.57884 0.20051 0.0
C539 C 0.12339 0.60404 0.19163 0.0
C540 C 0.09651 0.59729 0.17514 0.0
C541 C 0.07474 0.56527 0.16654 0.0
C542 C 0.08 0.54014 0.17554 0.0
C543 C 0.10659 0.54686 0.19237 0.0
P544 P 0.47946 0.53104 0.2844 0.0
H545 H 0.52789 0.5778 0.32363 0.0
H546 H 0.54868 0.63575 0.33195 0.0
H547 H 0.48187 0.63481 0.27027 0.0
H548 H 0.46159 0.57673 0.26125 0.0
H549 H 0.44217 0.46084 0.28859 0.0
H550 H 0.38481 0.4227 0.29601 0.0
H551 H 0.36777 0.50316 0.30642 0.0
H552 H 0.42515 0.54109 0.30026 0.0
H553 H 0.53666 0.5486 0.25049 0.0
H554 H 0.43547 0.51263 0.23593 0.0
O555 O 0.50248 0.5195 0.30147 0.0
H556 H 0.54537 0.54916 0.19902 0.0
H557 H 0.44412 0.51329 0.18477 0.0
C558 C 0.49288 0.57292 0.29217 0.0
C559 C 0.51762 0.58992 0.31189 0.0
C560 C 0.52967 0.62302 0.31644 0.0
C561 C 0.51693 0.63948 0.30152 0.0
C562 C 0.49205 0.62249 0.28185 0.0
C563 C 0.48037 0.58941 0.27694 0.0
C564 C 0.438 0.50382 0.29368 0.0
C565 C 0.42615 0.47027 0.2929 0.0
C566 C 0.39334 0.44851 0.29684 0.0
C567 C 0.37171 0.45998 0.30115 0.0
C568 C 0.38386 0.49363 0.30305 0.0
C569 C 0.41674 0.51537 0.29932 0.0
C570 C 0.48526 0.52946 0.24695 0.0
C571 C 0.51633 0.54061 0.23623 0.0
C572 C 0.52139 0.54143 0.20694 0.0
C573 C 0.49538 0.53122 0.18813 0.0
C574 C 0.46448 0.52106 0.19896 0.0
C575 C 0.45948 0.52032 0.22816 0.0
O576 O 0.46819 0.94421 0.9331 0.0
Mg577 Mg 0.50715 0.95825 0.96091 0.0
O578 O 0.48326 0.99248 0.94929 0.0
Mg579 Mg 0.49277 0.98827 -0.0017 0.0
O580 O 0.50154 0.94311 0.00166 0.0
O581 O 0.51278 0.91958 0.96521 0.0
O582 O 0.50163 0.98567 0.04731 0.0
O583 O 0.43898 0.95073 0.00448 0.0
Mg584 Mg 0.47146 0.0175 0.03631 0.0
O585 O 0.48366 0.03283 -0.00444 0.0
O586 O 0.50863 0.03082 0.06603 0.0
O587 O 0.42755 0.97294 0.04077 0.0
O588 O 0.46367 0.054 0.02721 0.0
C589 C 0.56482 0.02298 0.97268 0.0
C590 C 0.47014 0.97127 0.92964 0.0
C591 C 0.50808 0.92133 0.99194 0.0
C592 C 0.51036 0.0054 0.06828 0.0
C593 C 0.41953 0.94951 0.02354 0.0
C594 C 0.47446 0.05362 0.00219 0.0
O595 O 0.55313 4e-05 0.9545 0.0
O596 O 0.54719 0.02411 0.99244 0.0
O597 O 0.01282 0.48523 0.94512 0.0
Mg598 Mg 0.00602 0.5225 0.96259 0.0
O599 O 0.96535 0.4657 0.96317 0.0
Mg600 Mg 0.98041 0.48938 0.00886 0.0
O601 O 0.02849 0.53962 -1e-05 0.0
O602 O 0.04557 0.56614 0.95847 0.0
O603 O -0.00485 0.51403 0.05441 0.0
O604 O 0.01277 0.46736 0.01371 0.0
Mg605 Mg 0.95748 0.45173 0.05646 0.0
O606 O 0.93383 0.43855 0.01828 0.0
O607 O 0.95479 0.48607 0.08268 0.0
O608 O -0.00037 0.44695 0.0567 0.0
O609 O 0.91598 0.40903 0.05796 0.0
C610 C 0.94503 0.52273 0.97916 0.0
C611 C 0.98336 0.4646 0.94386 0.0
C612 C 0.0494 0.56442 0.98536 0.0
C613 C 0.9813 0.51138 0.07818 0.0
C614 C 0.0172 0.45354 0.03475 0.0
C615 C 0.91257 0.41243 0.0313 0.0
O616 O 0.96307 0.52551 0.95832 0.0
O617 O 0.94843 0.51184 0.00269 0.0
O618 O 0.52074 0.4917 0.0657 0.0
Mg619 Mg 0.47591 0.45909 0.04709 0.0
O620 O 0.49957 0.51903 0.04954 0.0
Mg621 Mg 0.49006 0.49755 0.0021 0.0
O622 O 0.48171 0.44469 0.00858 0.0
O623 O 0.46704 0.41291 0.04706 0.0
O624 O 0.47851 0.47189 0.95685 0.0
O625 O 0.54376 0.51455 -0.00396 0.0
Mg626 Mg 0.4998 0.52833 0.95781 0.0
O627 O 0.50008 0.55183 0.99427 0.0
O628 O 0.45825 0.49681 0.93396 0.0
O629 O 0.54271 0.52594 0.95115 0.0
O630 O 0.51057 0.57392 0.95077 0.0
C631 C 0.42055 0.46939 0.03083 0.0
C632 C 0.51488 0.5144 0.0693 0.0
C633 C 0.47456 0.41735 0.02054 0.0
C634 C 0.46348 0.47341 0.93522 0.0
C635 C 0.55737 0.52225 0.97186 0.0
C636 C 0.50859 0.57676 0.97782 0.0
O637 O 0.43304 0.46241 0.05138 0.0
O638 O 0.43635 0.48047 0.00795 0.0
O639 O 0.13053 0.29427 0.27273 0.0
Mg640 Mg 0.17288 0.30746 0.29706 0.0
O641 O 0.156 0.34398 0.28744 0.0
Mg642 Mg 0.16413 0.33272 0.33518 0.0
O643 O 0.17356 0.28661 0.33405 0.0
O644 O 0.18096 0.27075 0.29101 0.0
O645 O 0.17244 0.32608 0.38384 0.0
O646 O 0.10985 0.29501 0.34033 0.0
Mg647 Mg 0.14305 0.36065 0.37598 0.0
O648 O 0.15498 0.37719 0.33571 0.0
O649 O 0.18185 0.37186 0.40318 0.0
O650 O 0.0999 0.31488 0.37909 0.0
O651 O 0.13594 0.39831 0.36809 0.0
C652 C 0.23324 0.3703 0.30756 0.0
C653 C 0.13853 0.32341 0.26864 0.0
C654 C 0.1801 0.26799 0.31817 0.0
C655 C 0.18292 0.346 0.40474 0.0
C656 C 0.09111 0.29233 0.3607 0.0
C657 C 0.14665 0.39848 0.34291 0.0
O658 O 0.21828 0.34993 0.2878 0.0
O659 O 0.21837 0.36867 0.33045 0.0
O660 O 0.67059 0.82048 0.27379 0.0
Mg661 Mg 0.66785 0.86078 0.28874 0.0
O662 O 0.62549 0.79988 0.29661 0.0
Mg663 Mg 0.64539 0.82694 0.34048 0.0
O664 O 0.69103 0.87525 0.32619 0.0
O665 O 0.71015 0.90348 0.286 0.0
O666 O 0.66342 0.85096 0.38444 0.0
O667 O 0.67602 0.80247 0.34529 0.0
Mg668 Mg 0.61847 0.77819 0.39614 0.0
O669 O 0.60241 0.78277 0.35808 0.0
O670 O 0.63407 0.82128 0.42041 0.0
O671 O 0.65628 0.76921 0.3825 0.0
O672 O 0.57027 0.74361 0.38666 0.0
C673 C 0.60854 0.86082 0.3132 0.0
C674 C 0.64196 0.79794 0.27627 0.0
C675 C 0.71317 0.90027 0.31277 0.0
C676 C 0.65711 0.84755 0.41089 0.0
C677 C 0.67605 0.78142 0.36192 0.0
C678 C 0.57581 0.75596 0.36165 0.0
O679 O 0.6241 0.86338 0.29049 0.0
O680 O 0.61454 0.8505 0.33589 0.0
O681 O 0.14312 0.7985 0.41533 0.0
Mg682 Mg 0.12077 0.76265 0.3843 0.0
O683 O 0.16241 0.84016 0.38567 0.0
Mg684 Mg 0.14989 0.81843 0.33926 0.0
O685 O 0.15161 0.77223 0.35129 0.0
O686 O 0.13589 0.72979 0.37973 0.0
O687 O 0.13882 0.79331 0.29392 0.0
O688 O 0.20425 0.84243 0.32978 0.0
Mg689 Mg 0.15517 0.85226 0.29111 0.0
O690 O 0.15099 0.86774 0.33027 0.0
O691 O 0.11526 0.81438 0.27008 0.0
O692 O 0.20237 0.85853 0.2863 0.0
O693 O 0.15371 0.89384 0.29004 0.0
C694 C 0.07021 0.77011 0.3555 0.0
C695 C 0.15854 0.8287 0.41071 0.0
C696 C 0.15247 0.74628 0.35818 0.0
C697 C 0.12283 0.79271 0.27211 0.0
C698 C 0.21806 0.85487 0.30626 0.0
C699 C 0.15221 0.89241 0.31737 0.0
O700 O 0.07453 0.75057 0.37034 0.0
O701 O 0.09406 0.79567 0.34538 0.0
O702 O 0.80888 0.62173 0.59791 0.0
Mg703 Mg 0.84893 0.63991 0.62545 0.0
O704 O 0.822 0.66868 0.61648 0.0
Mg705 Mg 0.83119 0.65974 0.66501 0.0
O706 O 0.84676 0.61874 0.66341 0.0
O707 O 0.86745 0.61062 0.62316 0.0
O708 O 0.83919 0.65226 0.71353 0.0
O709 O 0.77816 0.61849 0.66919 0.0
Mg710 Mg 0.8075 0.68309 0.7066 0.0
O711 O 0.8179 0.70156 0.66707 0.0
O712 O 0.84699 0.69697 0.73361 0.0
O713 O 0.76625 0.63597 0.70862 0.0
O714 O 0.79731 0.71889 0.70156 0.0
C715 C 0.90083 0.70619 0.63994 0.0
C716 C 0.81036 0.64879 0.59566 0.0
C717 C 0.86115 0.60559 0.6498 0.0
C718 C 0.84866 0.67147 0.73491 0.0
C719 C 0.75896 0.61438 0.68957 0.0
C720 C 0.80783 0.72097 0.67599 0.0
O721 O 0.88945 0.68729 0.61869 0.0
O722 O 0.88428 0.69979 0.66252 0.0
O723 O 0.34861 0.1607 0.60502 0.0
Mg724 Mg 0.33695 0.19502 0.62197 0.0
O725 O 0.29976 0.13796 0.61964 0.0
Mg726 Mg 0.31701 0.16179 0.66595 0.0
O727 O 0.36001 0.21577 0.6577 0.0
O728 O 0.37341 0.24062 0.61526 0.0
O729 O 0.33595 0.18772 0.70991 0.0
O730 O 0.35427 0.14511 0.66679 0.0
Mg731 Mg 0.30239 0.12951 0.71384 0.0
O732 O 0.2752 0.10899 0.67793 0.0
O733 O 0.29782 0.16288 0.74063 0.0
O734 O 0.34829 0.13202 0.71215 0.0
O735 O 0.26588 0.08438 0.72029 0.0
C736 C 0.27333 0.1877 0.64151 0.0
C737 C 0.31962 0.13992 0.60072 0.0
C738 C 0.37803 0.24099 0.64224 0.0
C739 C 0.32481 0.1869 0.73456 0.0
C740 C 0.36343 0.1369 0.68893 0.0
C741 C 0.25855 0.08373 0.69389 0.0
O742 O 0.29071 0.19229 0.61969 0.0
O743 O 0.27999 0.17846 0.66449 0.0
O744 O 0.86029 0.17165 0.72303 0.0
Mg745 Mg 0.81387 0.13371 0.71124 0.0
O746 O 0.83033 0.19141 0.7117 0.0
Mg747 Mg 0.82002 0.16809 0.66472 0.0
O748 O 0.81798 0.11786 0.67274 0.0
O749 O 0.80998 0.0897 0.713 0.0
O750 O 0.80905 0.1454 0.61915 0.0
O751 O 0.87434 0.19191 0.65526 0.0
Mg752 Mg 0.83446 0.21482 0.61173 0.0
O753 O 0.82083 0.21448 0.65253 0.0
O754 O 0.80106 0.17441 0.58764 0.0
O755 O 0.88182 0.22091 0.61619 0.0
O756 O 0.82571 0.2521 0.62242 0.0
C757 C 0.75275 0.13526 0.69713 0.0
C758 C 0.84998 0.19048 0.72927 0.0
C759 C 0.81459 0.09242 0.68595 0.0
C760 C 0.80062 0.14849 0.59424 0.0
C761 C 0.89259 0.21025 0.63555 0.0
C762 C 0.82126 0.24142 0.64804 0.0
O763 O 0.7682 0.13192 0.71749 0.0
O764 O 0.76636 0.14549 0.67326 0.0
C765 C 0.36434 0.86317 0.04525 0.0
C766 C 0.33509 0.86253 0.05034 0.0
C767 C 0.39105 0.89087 0.03437 0.0
C768 C 0.38952 0.91898 0.02875 0.0
H769 H 0.36681 0.84239 0.05047 0.0
H770 H 0.41357 0.89092 0.03196 0.0
S771 S 0.3181 0.92904 0.03617 0.0
N772 N 0.30553 0.8916 0.04688 0.0
N773 N 0.35627 0.94413 0.0272 0.0
C774 C 0.36018 0.9183 0.03261 0.0
C775 C 0.33275 0.88988 0.04316 0.0
C776 C 0.07881 0.43095 0.05825 0.0
C777 C 0.09025 0.42568 0.03242 0.0
C778 C 0.05525 0.44008 0.05879 0.0
C779 C 0.04265 0.44471 0.03349 0.0
H780 H 0.08761 0.42722 0.07821 0.0
H781 H 0.04687 0.44351 0.0792 0.0
S782 S 0.06559 0.43485 0.96027 0.0
N783 N 0.08793 0.42616 0.981 0.0
N784 N 0.04387 0.44383 0.98178 0.0
C785 C 0.05442 0.44012 0.00746 0.0
C786 C 0.07813 0.4304 0.00698 0.0
C787 C 0.55375 0.66843 0.98238 0.0
C788 C 0.55558 0.6746 0.01166 0.0
C789 C 0.53672 0.63673 0.97168 0.0
C790 C 0.52099 0.60982 0.98984 0.0
H791 H 0.56653 0.68815 0.96762 0.0
H792 H 0.53718 0.6334 0.94895 0.0
S793 S 0.5149 0.61353 0.06815 0.0
N794 N 0.53739 0.65179 0.0586 0.0
N795 N 0.5059 0.5919 0.03852 0.0
C796 C 0.52126 0.6158 0.01914 0.0
C797 C 0.5385 0.64823 0.03004 0.0
C798 C 0.84548 0.32669 0.01883 0.0
C799 C 0.85187 0.32005 0.99126 0.0
C800 C 0.86314 0.3579 0.03062 0.0
C801 C 0.88812 0.38353 0.01538 0.0
H802 H 0.82784 0.30724 0.03189 0.0
H803 H 0.8586 0.36139 0.05254 0.0
S804 S 0.9117 0.37898 0.94112 0.0
N805 N 0.88256 0.34181 0.94803 0.0
N806 N 0.91593 0.40052 0.97012 0.0
C807 C 0.89284 0.37769 0.98692 0.0
C808 C 0.87472 0.34587 0.9749 0.0
C809 C 0.64359 0.54576 0.98929 0.0
C810 C 0.65838 0.55245 0.96245 0.0
C811 C 0.61055 0.53445 0.99212 0.0
C812 C 0.59108 0.52959 0.9682 0.0
H813 H 0.65784 0.55003 0.00833 0.0
H814 H 0.60053 0.53073 0.01329 0.0
S815 S 0.6176 0.54092 0.89294 0.0
N816 N 0.65072 0.55178 0.9114 0.0
N817 N 0.58858 0.52979 0.91657 0.0
C818 C 0.60528 0.53459 0.94113 0.0
C819 C 0.63892 0.54618 0.93829 0.0
C820 C 0.50056 0.1192 0.94684 0.0
C821 C 0.474 0.12426 0.94614 0.0
C822 C 0.50014 0.09485 0.96383 0.0
C823 C 0.47328 0.07524 0.98074 0.0
H824 H 0.52238 0.1352 0.93538 0.0
H825 H 0.52151 0.0926 0.96496 0.0
S826 S 0.39563 0.07458 0.98223 0.0
N827 N 0.41853 0.10437 0.9605 0.0
N828 N 0.41809 0.05938 0.99292 0.0
C829 C 0.44586 0.07857 0.97865 0.0
C830 C 0.44613 0.10291 0.96121 0.0
C831 C 0.64502 0.1016 0.97668 0.0
C832 C 0.66716 0.09126 0.96999 0.0
C833 C 0.61182 0.07937 0.97815 0.0
C834 C 0.59973 0.04625 0.97232 0.0
H835 H 0.65343 0.12708 0.98065 0.0
H836 H 0.59549 0.08823 0.98315 0.0
S837 S 0.64762 0.00655 0.95544 0.0
N838 N 0.67462 0.04547 0.95868 0.0
N839 N 0.6124 0.00383 0.96132 0.0
C840 C 0.62165 0.03553 0.96625 0.0
C841 C 0.65534 0.058 0.96514 0.0
C842 C 0.87948 0.5425 -0.00226 0.0
C843 C 0.8809 0.56193 0.97495 0.0
C844 C 0.89976 0.52915 -0.00136 0.0
C845 C 0.92176 0.53448 0.97658 0.0
H846 H 0.86326 0.53837 0.01528 0.0
H847 H 0.89851 0.51501 0.01698 0.0
S848 S 0.9319 0.58127 0.91082 0.0
N849 N 0.90399 0.58414 0.92903 0.0
N850 N 0.94192 0.55904 0.93033 0.0
C851 C 0.92222 0.55282 0.95307 0.0
C852 C 0.90184 0.56657 0.95238 0.0
C853 C 0.49738 0.37582 0.96377 0.0
C854 C 0.48121 0.34323 0.97238 0.0
C855 C 0.49473 0.39957 0.9793 0.0
C856 C 0.47587 0.39156 0.004 0.0
H857 H 0.51195 0.38295 0.94473 0.0
H858 H 0.50792 0.42445 0.97208 0.0
S859 S 0.42879 0.30953 0.03545 0.0
N860 N 0.44594 0.30407 0.00714 0.0
N861 N 0.44054 0.34861 0.03626 0.0
C862 C 0.45952 0.35899 0.01281 0.0
C863 C 0.46222 0.33483 -0.00304 0.0
C864 C 0.12049 0.60923 0.0348 0.0
C865 C 0.13259 0.64183 0.02717 0.0
C866 C 0.09324 0.58421 0.02134 0.0
C867 C 0.07786 0.59097 -0.00067 0.0
H868 H 0.13119 0.60317 0.0522 0.0
H869 H 0.08413 0.55946 0.02825 0.0
S870 S 0.102 0.67195 0.96969 0.0
N871 N 0.12843 0.67935 0.99518 0.0
N872 N 0.07756 0.63223 0.96943 0.0
C873 C 0.09057 0.62329 0.99066 0.0
C874 C 0.11791 0.64877 0.00468 0.0
C875 C 0.33765 0.43983 0.06183 0.0
C876 C 0.31892 0.43749 0.03806 0.0
C877 C 0.37075 0.45171 0.05945 0.0
C878 C 0.3866 0.46182 0.03317 0.0
H879 H 0.32645 0.43155 0.08238 0.0
H880 H 0.38376 0.45197 0.0783 0.0
S881 S 0.34896 0.46362 0.96493 0.0
N882 N 0.31885 0.44831 0.98775 0.0
N883 N 0.38135 0.47124 0.98326 0.0
C884 C 0.36851 0.4615 0.00952 0.0
C885 C 0.33462 0.44921 0.01197 0.0
C886 C 0.52519 0.85602 0.01451 0.0
C887 C 0.54312 0.86906 0.03953 0.0
C888 C 0.51133 0.87179 0.00052 0.0
C889 C 0.51468 0.90105 0.01114 0.0
H890 H 0.5236 0.83459 0.00464 0.0
H891 H 0.49949 0.86195 0.98034 0.0
S892 S 0.55495 0.94234 0.07842 0.0
N893 N 0.56038 0.91071 0.07624 0.0
N894 N 0.53399 0.94043 0.04996 0.0
C895 C 0.53017 0.91288 0.03744 0.0
C896 C 0.54466 0.89694 0.05156 0.0
C897 C 0.0095 0.23332 0.39141 0.0
C898 C 0.00419 0.20296 0.38182 0.0
C899 C 0.03682 0.26215 0.38313 0.0
C900 C 0.06002 0.26186 0.36492 0.0
H901 H 0.99279 0.23474 0.40606 0.0
H902 H 0.04025 0.28483 0.39183 0.0
S903 S 0.0567 0.18859 0.33301 0.0
N904 N 0.02368 0.1742 0.35238 0.0
N905 N 0.07509 0.22848 0.33662 0.0
C906 C 0.05426 0.23171 0.35411 0.0
C907 C 0.02634 0.20225 0.36262 0.0
C908 C 0.75557 0.78423 0.35053 0.0
C909 C 0.74697 0.75144 0.35331 0.0
C910 C 0.73222 0.79373 0.35216 0.0
C911 C 0.69974 0.77081 0.35731 0.0
H912 H 0.78057 0.80267 0.34764 0.0
H913 H 0.7398 0.81928 0.35055 0.0
S914 S 0.66454 0.68191 0.36447 0.0
N915 N 0.70347 0.69595 0.36005 0.0
N916 N 0.65978 0.71395 0.36341 0.0
C917 C 0.69071 0.73793 0.35926 0.0
C918 C 0.7143 0.7282 0.35716 0.0
C919 C 0.16981 0.97792 0.32928 0.0
C920 C 0.18832 0.98696 0.35423 0.0
C921 C 0.1551 0.94601 0.31901 0.0
C922 C 0.1586 0.92203 0.33321 0.0
H923 H 0.16805 -0.00397 0.31685 0.0
H924 H 0.14271 0.94063 0.29877 0.0
S925 S 0.2014 0.93273 0.40149 0.0
N926 N 0.20677 0.96906 0.39451 0.0
N927 N 0.17904 0.90888 0.37527 0.0
C928 C 0.17466 0.93016 0.35956 0.0
C929 C 0.18966 0.96276 0.37002 0.0
C930 C 0.56158 0.69664 0.30423 0.0
C931 C 0.52884 0.67394 0.30826 0.0
C932 C 0.57607 0.72652 0.31862 0.0
C933 C 0.5583 0.73429 0.33773 0.0
H934 H 0.57664 0.69003 0.29199 0.0
H935 H 0.60204 0.74151 0.3176 0.0
S936 S 0.47078 0.68523 0.35177 0.0
N937 N 0.47811 0.66292 0.32922 0.0
N938 N 0.50559 0.71895 0.35686 0.0
C939 C 0.5249 0.71326 0.33947 0.0
C940 C 0.51006 0.68302 0.32454 0.0
C941 C 0.30586 0.88349 0.3233 0.0
C942 C 0.32106 0.89383 0.29683 0.0
C943 C 0.27243 0.87006 0.32606 0.0
C944 C 0.25298 0.86677 0.30247 0.0
H945 H 0.31994 0.88585 0.34204 0.0
H946 H 0.26191 0.86283 0.34696 0.0
S947 S 0.28139 0.89035 0.22836 0.0
N948 N 0.31437 0.9001 0.24663 0.0
N949 N 0.25167 0.87457 0.25153 0.0
C950 C 0.26798 0.87672 0.27578 0.0
C951 C 0.30195 0.89031 0.27303 0.0
C952 C 0.17392 0.46314 0.28611 0.0
C953 C 0.14868 0.47027 0.28588 0.0
C954 C 0.17274 0.43884 0.30375 0.0
C955 C 0.14647 0.42127 0.32194 0.0
H956 H 0.19527 0.47724 0.27341 0.0
H957 H 0.19305 0.43478 0.30404 0.0
S958 S 0.0719 0.42647 0.32568 0.0
N959 N 0.09478 0.45445 0.30253 0.0
N960 N 0.09309 0.40979 0.33622 0.0
C961 C 0.12041 0.42693 0.32075 0.0
C962 C 0.12137 0.45118 0.30259 0.0
C963 C 0.31764 0.43998 0.32392 0.0
C964 C 0.33641 0.43707 0.30235 0.0
C965 C 0.28424 0.41867 0.32521 0.0
C966 C 0.26827 0.39384 0.3048 0.0
H967 H 0.32893 0.4586 0.34017 0.0
H968 H 0.27092 0.42162 0.34246 0.0
S969 S 0.30654 0.37679 0.24333 0.0
N970 N 0.33656 0.40815 0.25963 0.0
N971 N 0.27408 0.36798 0.26205 0.0
C972 C 0.28682 0.39099 0.28288 0.0
C973 C 0.32079 0.41257 0.28169 0.0
C974 C 0.54722 0.88251 0.28684 0.0
C975 C 0.53933 0.89387 0.31151 0.0
C976 C 0.56923 0.87137 0.28769 0.0
C977 C 0.58391 0.87084 0.31332 0.0
H978 H 0.53708 0.88321 0.26651 0.0
H979 H 0.57499 0.86339 0.26805 0.0
S980 S 0.56994 0.89643 0.38415 0.0
N981 N 0.54676 0.90283 0.3624 0.0
N982 N 0.58809 0.88165 0.36423 0.0
C983 C 0.57544 0.88121 0.33834 0.0
C984 C 0.55323 0.89287 0.33737 0.0
C985 C 0.184 0.72404 0.2934 0.0
C986 C 0.18421 0.69621 0.30278 0.0
C987 C 0.17709 0.74275 0.3123 0.0
C988 C 0.16946 0.7335 0.34079 0.0
H989 H 0.18682 0.72993 0.27106 0.0
H990 H 0.17527 0.76294 0.30409 0.0
S991 S 0.17501 0.6672 0.37659 0.0
N992 N 0.18234 0.66381 0.34286 0.0
N993 N 0.1694 0.69869 0.3785 0.0
C994 C 0.1736 0.70803 0.3509 0.0
C995 C 0.18081 0.68929 0.33177 0.0
C996 C 0.76167 0.96249 0.36934 0.0
C997 C 0.7929 0.97823 0.35783 0.0
C998 C 0.73601 0.93677 0.35481 0.0
C999 C 0.74074 0.92628 0.32822 0.0
H1000 H 0.75719 0.9697 0.38996 0.0
H1001 H 0.71227 0.92525 0.36432 0.0
S1002 S 0.81741 0.96082 0.28824 0.0
N1003 N 0.82691 0.98239 0.31795 0.0
N1004 N 0.77851 0.93424 0.29041 0.0
C1005 C 0.77165 0.9423 0.3162 0.0
C1006 C 0.79783 0.96819 0.33112 0.0
C1007 C -0.00296 0.78087 0.35135 0.0
C1008 C 0.97143 0.74854 0.34992 0.0
C1009 C 0.02927 0.78802 0.35146 0.0
C1010 C 0.03685 0.76302 0.3507 0.0
H1011 H 0.99209 0.80068 0.35309 0.0
H1012 H 0.04825 0.81311 0.35357 0.0
S1013 S 0.97898 0.67467 0.34474 0.0
N1014 N 0.95616 0.69153 0.34618 0.0
N1015 N 0.01647 0.70504 0.34625 0.0
C1016 C 0.01157 0.7308 0.348 0.0
C1017 C 0.97893 0.72354 0.34764 0.0
C1018 C 0.21608 0.21329 0.32234 0.0
C1019 C 0.21706 0.20854 0.35148 0.0
C1020 C 0.20269 0.23131 0.312 0.0
C1021 C 0.19016 0.24582 0.33044 0.0
H1022 H 0.22596 0.20314 0.30738 0.0
H1023 H 0.20311 0.23455 0.28926 0.0
S1024 S 0.18623 0.23929 0.40893 0.0
N1025 N 0.20353 0.21827 0.39886 0.0
N1026 N 0.17878 0.25306 0.37951 0.0
C1027 C 0.19039 0.2406 0.35977 0.0
C1028 C 0.20375 0.22172 0.37027 0.0
C1029 C 0.70281 0.52979 0.71475 0.0
C1030 C 0.6726 0.52797 0.71354 0.0
C1031 C 0.73064 0.55703 0.70463 0.0
C1032 C 0.72911 0.58335 0.69318 0.0
H1033 H 0.70507 0.51039 0.72429 0.0
H1034 H 0.7537 0.55829 0.70721 0.0
S1035 S 0.65613 0.59022 0.68398 0.0
N1036 N 0.64282 0.55437 0.69874 0.0
N1037 N 0.69539 0.60579 0.68016 0.0
C1038 C 0.69908 0.58145 0.6909 0.0
C1039 C 0.67069 0.55361 0.70089 0.0
C1040 C 0.41182 0.09625 0.67292 0.0
C1041 C 0.43843 0.11262 0.69137 0.0
C1042 C 0.38845 0.10559 0.67089 0.0
C1043 C 0.3907 0.1312 0.68756 0.0
H1044 H 0.40797 0.07491 0.66118 0.0
H1045 H 0.36757 0.09151 0.65747 0.0
S1046 S 0.45769 0.18529 0.73544 0.0
N1047 N 0.46776 0.15886 0.72335 0.0
N1048 N 0.42261 0.17497 0.72067 0.0
C1049 C 0.41786 0.14895 0.70477 0.0
C1050 C 0.44208 0.14004 0.70636 0.0
C1051 C 0.86543 0.29953 0.70654 0.0
C1052 C 0.85838 0.32432 0.70104 0.0
C1053 C 0.8494 0.26981 0.69197 0.0
C1054 C 0.82611 0.26421 0.67125 0.0
H1055 H 0.88522 0.30411 0.7205 0.0
H1056 H 0.85805 0.25289 0.69455 0.0
S1057 S 0.79475 0.31874 0.65278 0.0
N1058 N 0.82325 0.33942 0.6765 0.0
N1059 N 0.79322 0.28344 0.64911 0.0
C1060 C 0.8163 0.28724 0.66796 0.0
C1061 C 0.83247 0.31743 0.68286 0.0
C1062 C 0.22377 0.01202 0.64388 0.0
C1063 C 0.20149 0.98684 0.66128 0.0
C1064 C 0.24021 0.04423 0.65366 0.0
C1065 C 0.23503 0.05221 0.68122 0.0
H1066 H 0.22989 0.00658 0.62319 0.0
H1067 H 0.25871 0.06251 0.64031 0.0
S1068 S 0.17474 -0.00387 0.73286 0.0
N1069 N 0.17162 0.9727 0.70556 0.0
N1070 N 0.20297 0.03318 0.72422 0.0
C1071 C 0.21099 0.02765 0.69791 0.0
C1072 C 0.19415 -0.00506 0.68789 0.0
C1073 C 0.97784 0.24295 0.60846 0.0
C1074 C -0.00632 0.23805 0.63128 0.0
C1075 C 0.94526 0.23382 0.61013 0.0
C1076 C 0.92703 0.2192 0.63465 0.0
H1077 H 0.99092 0.25457 0.5893 0.0
H1078 H 0.93436 0.23836 0.59194 0.0
S1079 S 0.95711 0.19997 0.70003 0.0
N1080 N 0.98874 0.21686 0.67888 0.0
N1081 N 0.92738 0.19971 0.68221 0.0
C1082 C 0.94252 0.21373 0.65756 0.0
C1083 C 0.97585 0.22321 0.65585 0.0
C1084 C 0.81881 0.80177 0.65374 0.0
C1085 C 0.81019 0.79694 0.62488 0.0
C1086 C 0.81821 0.777 0.66987 0.0
C1087 C 0.80929 0.74656 0.65771 0.0
H1088 H 0.8264 0.82503 0.6639 0.0
H1089 H 0.82505 0.78183 0.69204 0.0
S1090 S 0.78124 0.72037 0.58392 0.0
N1091 N 0.79025 0.75873 0.58527 0.0
N1092 N 0.78954 0.71206 0.61571 0.0
C1093 C 0.8003 0.74117 0.62898 0.0
C1094 C 0.80066 0.76641 0.61253 0.0
C1095 C 0.98756 0.75803 0.66293 0.0
C1096 C 0.003 0.77304 0.63752 0.0
C1097 C 0.95399 0.73813 0.66406 0.0
C1098 C 0.93489 0.7321 0.63965 0.0
H1099 H 0.00161 0.76123 0.68191 0.0
H1100 H 0.94314 0.72605 0.6838 0.0
S1101 S 0.96357 0.76698 0.56834 0.0
N1102 N -0.00336 0.78184 0.58779 0.0
N1103 N 0.9336 0.74398 0.58982 0.0
C1104 C 0.94996 0.74781 0.61438 0.0
C1105 C 0.98403 0.76841 0.61334 0.0
C1106 C 0.22731 0.22871 0.61807 0.0
C1107 C 0.20616 0.22312 0.6407 0.0
C1108 C 0.24766 0.21562 0.61792 0.0
C1109 C 0.24797 0.19678 0.64065 0.0
H1110 H 0.22869 0.24405 0.60063 0.0
H1111 H 0.26422 0.22156 0.60033 0.0
S1112 S 0.19451 0.17257 0.70371 0.0
N1113 N 0.18451 0.1956 0.68527 0.0
N1114 N 0.22318 0.17103 0.68542 0.0
C1115 C 0.22571 0.18972 0.66285 0.0
C1116 C 0.20466 0.20287 0.66276 0.0
C1117 C 0.83751 0.04929 0.63089 0.0
C1118 C 0.82058 0.01686 0.6399 0.0
C1119 C 0.83511 0.07363 0.64571 0.0
C1120 C 0.81591 0.06631 0.67011 0.0
H1121 H 0.85244 0.05582 0.61208 0.0
H1122 H 0.84881 0.09839 0.6383 0.0
S1123 S 0.7667 0.98503 0.70227 0.0
N1124 N 0.78406 0.97862 0.67461 0.0
N1125 N 0.77935 0.02432 0.70246 0.0
C1126 C 0.79885 0.03395 0.67933 0.0
C1127 C 0.80118 0.0092 0.66417 0.0
C1128 C 0.42401 0.3078 0.69572 0.0
C1129 C 0.45554 0.32287 0.68492 0.0
C1130 C 0.39873 0.28162 0.68136 0.0
C1131 C 0.40419 0.27016 0.65561 0.0
H1132 H 0.41916 0.3151 0.71614 0.0
H1133 H 0.37494 0.26978 0.69078 0.0
S1134 S 0.48139 0.30404 0.61664 0.0
N1135 N 0.49027 0.32648 0.64579 0.0
N1136 N 0.44248 0.27741 0.61853 0.0
C1137 C 0.43509 0.28632 0.64367 0.0
C1138 C 0.46091 0.31266 0.65845 0.0
C1139 C 0.66725 0.09199 0.72534 0.0
C1140 C 0.65055 0.10032 0.70578 0.0
C1141 C 0.70049 0.10436 0.72295 0.0
C1142 C 0.71825 0.12521 0.70066 0.0
H1143 H 0.65442 0.0755 0.74249 0.0
H1144 H 0.71212 0.09671 0.73824 0.0
S1145 S 0.68585 0.15561 0.64468 0.0
N1146 N 0.65416 0.13157 0.66409 0.0
N1147 N 0.71671 0.1549 0.6594 0.0
C1148 C 0.70191 0.13443 0.68138 0.0
C1149 C 0.66806 0.12201 0.684 0.0
C1150 C 0.86737 0.5436 0.69518 0.0
C1151 C 0.89946 0.55147 0.69043 0.0
C1152 C 0.85507 0.56203 0.68298 0.0
C1153 C 0.87438 0.58811 0.66512 0.0
H1154 H 0.85165 0.52282 0.708 0.0
H1155 H 0.83012 0.55511 0.6866 0.0
S1156 S 0.96029 0.61916 0.64735 0.0
N1157 N 0.95055 0.58776 0.66805 0.0
N1158 N 0.92741 0.62191 0.64451 0.0
C1159 C 0.90667 0.59654 0.66084 0.0
C1160 C 0.91925 0.57828 0.67364 0.0
C1161 C 0.52743 0.01002 0.14666 0.0
C1162 C 0.5021 0.98013 0.15606 0.0
C1163 C 0.53193 0.01722 0.11764 0.0
C1164 C 0.51174 -0.00556 0.09715 0.0
H1165 H 0.54244 0.02873 0.16188 0.0
H1166 H 0.55014 0.04138 0.11127 0.0
S1167 S 0.44432 0.91126 0.11104 0.0
N1168 N 0.45831 0.9267 0.14286 0.0
N1169 N 0.46725 0.93975 0.08826 0.0
C1170 C 0.48802 0.96349 0.10628 0.0
C1171 C 0.48301 0.95648 0.1358 0.0
C1172 C 0.01761 0.52955 0.15121 0.0
C1173 C 0.04767 0.55755 0.14674 0.0
C1174 C -0.00561 0.51665 0.12968 0.0
C1175 C 0.00049 0.53112 0.10276 0.0
H1176 H 0.01279 0.51631 0.17088 0.0
H1177 H 0.97276 0.49362 0.1335 0.0
S1178 S 0.07085 0.61017 0.08331 0.0
N1179 N 0.07926 0.60325 0.11554 0.0
N1180 N 0.03534 0.5788 0.07504 0.0
C1181 C 0.02857 0.56133 0.09926 0.0
C1182 C 0.05224 0.57464 0.12129 0.0
C1183 C 0.52176 0.55448 0.14118 0.0
C1184 C 0.49964 0.52785 0.15748 0.0
C1185 C 0.52617 0.55069 0.11211 0.0
C1186 C 0.50889 0.52009 0.09889 0.0
H1187 H 0.5357 0.57824 0.15099 0.0
H1188 H 0.5436 0.57145 0.10017 0.0
S1189 S 0.44889 0.44286 0.1326 0.0
N1190 N 0.46081 0.47016 0.15839 0.0
N1191 N 0.46904 0.4629 0.10428 0.0
C1192 C 0.4867 0.49349 0.11508 0.0
C1193 C 0.48211 0.49739 0.14429 0.0
C1194 C 0.9465 0.46441 0.87444 0.0
C1195 C 0.96055 0.45174 0.85577 0.0
C1196 C 0.95085 0.46476 0.90372 0.0
C1197 C 0.97014 0.45329 0.91539 0.0
H1198 H 0.93371 0.47608 0.86643 0.0
H1199 H 0.94141 0.47675 0.91703 0.0
S1200 S 0.0071 0.41205 0.87691 0.0
N1201 N 0.98972 0.42207 0.85184 0.0
N1202 N 2e-05 0.42533 0.90706 0.0
C1203 C 0.98242 0.43848 0.89745 0.0
C1204 C 0.97716 0.43714 0.86758 0.0
C1205 C 0.48177 0.42133 0.88705 0.0
C1206 C 0.48332 0.43485 0.8603 0.0
C1207 C 0.47159 0.43136 0.91097 0.0
C1208 C 0.46286 0.45549 0.9091 0.0
H1209 H 0.4906 0.40457 0.88997 0.0
H1210 H 0.47285 0.42185 0.93139 0.0
S1211 S 0.45528 0.49244 0.84259 0.0
N1212 N 0.46958 0.46884 0.83227 0.0
N1213 N 0.45082 0.48817 0.87732 0.0
C1214 C 0.46082 0.46643 0.88192 0.0
C1215 C 0.47118 0.45615 0.85752 0.0
C1216 C 0.48557 0.02225 0.86417 0.0
C1217 C 0.47144 -0.00136 0.84251 0.0
C1218 C 0.48266 0.0134 0.89278 0.0
C1219 C 0.46577 0.98056 0.90075 0.0
H1220 H 0.50002 0.04771 0.85887 0.0
H1221 H 0.49547 0.03234 0.90851 0.0
S1222 S 0.42081 0.90971 0.85251 0.0
N1223 N 0.43742 0.94128 0.83122 0.0
N1224 N 0.43154 0.92466 0.88495 0.0
C1225 C 0.44948 0.95693 0.87947 0.0
C1226 C 0.45243 0.96596 0.85036 0.0
C1227 C 0.15904 0.29665 0.47147 0.0
C1228 C 0.17717 0.32036 0.49219 0.0
C1229 C 0.16355 0.30402 0.44244 0.0
C1230 C 0.18617 0.33541 0.43329 0.0
H1231 H 0.13974 0.27298 0.47773 0.0
H1232 H 0.14733 0.28591 0.42735 0.0
S1233 S 0.24454 0.40357 0.47864 0.0
N1234 N 0.22249 0.37444 0.50122 0.0
N1235 N 0.23028 0.38855 0.44678 0.0
C1236 C 0.2065 0.35821 0.45362 0.0
C1237 C 0.20213 0.35064 0.48306 0.0
C1238 C 0.69687 0.88383 0.48106 0.0
C1239 C 0.72959 0.896 0.47475 0.0
C1240 C 0.67342 0.871 0.45963 0.0
C1241 C 0.68194 0.86979 0.43124 0.0
H1242 H 0.68921 0.88262 0.50289 0.0
H1243 H 0.64829 0.86003 0.46559 0.0
S1244 S 0.76481 0.89946 0.40395 0.0
N1245 N 0.76962 0.90755 0.43827 0.0
N1246 N 0.72579 0.88295 0.39804 0.0
C1247 C 0.71491 0.88385 0.42452 0.0
C1248 C 0.7387 0.89705 0.44631 0.0
C1249 C 0.15403 0.86654 0.47801 0.0
C1250 C 0.17447 0.86064 0.4953 0.0
C1251 C 0.15249 0.86109 0.44863 0.0
C1252 C 0.17142 0.84971 0.43578 0.0
H1253 H 0.13727 0.87285 0.48754 0.0
H1254 H 0.13399 0.86237 0.4365 0.0
S1255 S 0.23267 0.83603 0.4706 0.0
N1256 N 0.21713 0.84715 0.49672 0.0
N1257 N 0.21423 0.83715 0.44144 0.0
C1258 C 0.19455 0.84747 0.45224 0.0
C1259 C 0.1961 0.85289 0.48212 0.0
C1260 C 0.63957 0.76797 0.20311 0.0
C1261 C 0.61665 0.77415 0.19058 0.0
C1262 C 0.64438 0.77069 0.23247 0.0
C1263 C 0.62651 0.77982 0.25012 0.0
H1264 H 0.65565 0.76365 0.18995 0.0
H1265 H 0.6645 0.7691 0.24104 0.0
S1266 S 0.55964 0.79272 0.2281 0.0
N1267 N 0.57276 0.78506 0.19821 0.0
N1268 N 0.58167 0.78993 0.25358 0.0
C1269 C 0.60074 0.78186 0.23824 0.0
C1270 C 0.59593 0.77925 0.20828 0.0
C1271 C 0.14599 0.74358 0.22478 0.0
C1272 C 0.14787 0.75729 0.19803 0.0
C1273 C 0.1341 0.75237 0.24837 0.0
C1274 C 0.12405 0.77543 0.24616 0.0
H1275 H 0.15571 0.72762 0.22794 0.0
H1276 H 0.13472 0.74258 0.26881 0.0
S1277 S 0.116 0.8114 0.17915 0.0
N1278 N 0.1325 0.78958 0.16941 0.0
N1279 N 0.11063 0.80663 0.21377 0.0
C1280 C 0.12214 0.78619 0.21883 0.0
C1281 C 0.13417 0.77716 0.19479 0.0
C1282 C 0.17219 0.36303 0.19862 0.0
C1283 C 0.14598 0.34635 0.17985 0.0
C1284 C 0.1687 0.35726 0.22779 0.0
C1285 C 0.13907 0.33404 0.23934 0.0
H1286 H 0.19607 0.37963 0.19068 0.0
H1287 H 0.18995 0.36957 0.24113 0.0
S1288 S 0.06192 0.28706 0.2006 0.0
N1289 N 0.08822 0.3087 0.17583 0.0
N1290 N 0.08245 0.29629 0.23065 0.0
C1291 C 0.11233 0.31817 0.22127 0.0
C1292 C 0.11561 0.32468 0.19154 0.0
C1293 C 0.86345 0.67587 0.81336 0.0
C1294 C 0.84036 0.64456 0.82223 0.0
C1295 C 0.86863 0.68357 0.78454 0.0
C1296 C 0.85102 0.66023 0.76347 0.0
H1297 H 0.87642 0.69504 0.82886 0.0
H1298 H 0.88496 0.70857 0.77876 0.0
S1299 S 0.79057 0.57365 0.77543 0.0
N1300 N 0.8019 0.58923 0.80764 0.0
N1301 N 0.81198 0.60361 0.75334 0.0
C1302 C 0.83001 0.62807 0.77194 0.0
C1303 C 0.82454 0.62026 0.80139 0.0
C1304 C 0.35827 0.21253 0.80871 0.0
C1305 C 0.39167 0.22925 0.80389 0.0
C1306 C 0.3364 0.20165 0.786 0.0
C1307 C 0.34723 0.20669 0.75768 0.0
H1308 H 0.34903 0.20648 0.83013 0.0
H1309 H 0.31093 0.18729 0.7907 0.0
S1310 S 0.43274 0.25183 0.73424 0.0
N1311 N 0.43466 0.25268 0.76918 0.0
N1312 N 0.39397 0.23216 0.72645 0.0
C1313 C 0.38069 0.2256 0.75279 0.0
C1314 C 0.40282 0.23681 0.77592 0.0
C1315 C 0.82932 0.16615 0.80562 0.0
C1316 C 0.83424 0.1946 0.81928 0.0
C1317 C 0.83473 0.16562 0.77664 0.0
C1318 C 0.84528 0.19349 0.75988 0.0
H1319 H 0.82137 0.14403 0.81749 0.0
H1320 H 0.83023 0.14285 0.76721 0.0
S1321 S 0.86189 0.2743 0.78525 0.0
N1322 N 0.8504 0.25162 0.81401 0.0
N1323 N 0.86051 0.25038 0.75895 0.0
C1324 C 0.85029 0.22219 0.77308 0.0
C1325 C 0.84498 0.22285 0.80295 0.0
C1326 C 0.29477 0.10343 0.52683 0.0
C1327 C 0.2986 0.13033 0.51132 0.0
C1328 C 0.30015 0.10579 0.55634 0.0
C1329 C 0.3095 0.13511 0.57085 0.0
H1330 H 0.28762 0.08057 0.51609 0.0
H1331 H 0.29772 0.08499 0.56768 0.0
S1332 S 0.32459 0.21282 0.53947 0.0
N1333 N 0.3136 0.18723 0.51241 0.0
N1334 N 0.32325 0.1916 0.56741 0.0
C1335 C 0.31339 0.162 0.55541 0.0
C1336 C 0.30809 0.15964 0.52571 0.0
C1337 C 0.8238 0.09508 0.5532 0.0
C1338 C 0.8193 0.10124 0.52494 0.0
C1339 C 0.81413 0.10744 0.57586 0.0
C1340 C 0.79999 0.12677 0.57113 0.0
H1341 H 0.83706 0.08276 0.55794 0.0
H1342 H 0.82036 0.10409 0.59711 0.0
S1343 S 0.77514 0.14237 0.50121 0.0
N1344 N 0.79372 0.12194 0.49352 0.0
N1345 N 0.7762 0.14591 0.53614 0.0
C1346 C 0.792 0.12985 0.54305 0.0
C1347 C 0.80163 0.11703 0.51995 0.0
C1348 C 0.78909 0.64512 0.51796 0.0
C1349 C 0.81222 0.67606 0.50843 0.0
C1350 C 0.78713 0.63706 0.54674 0.0
C1351 C 0.80782 0.65984 0.56702 0.0
H1352 H 0.7736 0.62651 0.50287 0.0
H1353 H 0.7702 0.6124 0.553 0.0
S1354 S 0.87015 0.74535 0.55294 0.0
N1355 N 0.85444 0.73033 0.52145 0.0
N1356 N 0.8507 0.71548 0.57561 0.0
C1357 C 0.82973 0.69151 0.55788 0.0
C1358 C 0.83196 0.69953 0.52854 0.0
loop_
_geom_bond_atom_site_label_1
_geom_bond_atom_site_label_2
_geom_bond_distance
_geom_bond_site_symmetry_2
_ccdc_geom_bond_type
P0 O11 1.490 . S
P0 C14 1.812 . S
P0 C20 1.803 . S
P0 C26 1.819 . S
H1 C15 0.941 . S
H2 C16 0.939 . S
H3 C18 0.940 . S
H4 C19 0.940 . S
H5 C21 0.939 . S
H6 C22 0.942 . S
H7 C24 0.940 . S
H8 C25 0.939 . S
H9 C27 0.941 . S
H10 C31 0.939 . S
O11 P0 1.490 . S
H12 C28 0.939 . S
H13 C30 0.940 . S
C14 P0 1.812 . S
C14 C15 1.389 . S
C14 C19 1.391 . S
C15 H1 0.941 . S
C15 C14 1.389 . S
C15 C16 1.397 . S
C16 H2 0.939 . S
C16 C15 1.397 . S
C16 C17 1.378 . S
C17 C16 1.378 . S
C17 C18 1.378 . S
C18 H3 0.940 . S
C18 C17 1.378 . S
C18 C19 1.396 . S
C19 H4 0.940 . S
C19 C14 1.391 . S
C19 C18 1.396 . S
C20 P0 1.803 . S
C20 C21 1.378 . S
C20 C25 1.400 . S
C21 H5 0.939 . S
C21 C20 1.378 . S
C21 C22 1.361 . S
C22 H6 0.942 . S
C22 C21 1.361 . S
C22 C23 1.369 . S
C23 C22 1.369 . S
C23 C24 1.404 . S
C24 H7 0.940 . S
C24 C23 1.404 . S
C24 C25 1.389 . S
C25 H8 0.939 . S
C25 C20 1.400 . S
C25 C24 1.389 . S
C26 P0 1.819 . S
C26 C27 1.391 . S
C26 C31 1.391 . S
C27 H9 0.941 . S
C27 C26 1.391 . S
C27 C28 1.396 . S
C28 H12 0.939 . S
C28 C27 1.396 . S
C28 C29 1.397 . S
C29 C28 1.397 . S
C29 C30 1.385 . S
C30 H13 0.940 . S
C30 C29 1.385 . S
C30 C31 1.388 . S
C31 H10 0.939 . S
C31 C26 1.391 . S
C31 C30 1.388 . S
P32 O43 1.490 . S
P32 C46 1.812 . S
P32 C52 1.803 . S
P32 C58 1.819 . S
H33 C47 0.941 . S
H34 C48 0.939 . S
H35 C50 0.940 . S
H36 C51 0.940 . S
H37 C53 0.939 . S
H38 C54 0.942 1_455 S
H39 C56 0.940 . S
H40 C57 0.939 . S
H41 C59 0.941 . S
H42 C63 0.939 . S
O43 P32 1.490 . S
H44 C60 0.939 . S
H45 C62 0.940 . S
C46 P32 1.812 . S
C46 C47 1.389 . S
C46 C51 1.391 . S
C47 H33 0.941 . S
C47 C46 1.389 . S
C47 C48 1.397 . S
C48 H34 0.939 . S
C48 C47 1.397 . S
C48 C49 1.378 . S
C49 C48 1.378 . S
C49 C50 1.378 . S
C50 H35 0.940 . S
C50 C49 1.378 . S
C50 C51 1.396 . S
C51 H36 0.940 . S
C51 C46 1.391 . S
C51 C50 1.396 . S
C52 P32 1.803 . S
C52 C53 1.378 . S
C52 C57 1.400 . S
C53 H37 0.939 . S
C53 C52 1.378 . S
C53 C54 1.361 . S
C54 H38 0.942 1_655 S
C54 C53 1.361 . S
C54 C55 1.369 . S
C55 C54 1.369 . S
C55 C56 1.404 . S
C56 H39 0.940 . S
C56 C55 1.404 . S
C56 C57 1.389 . S
C57 H40 0.939 . S
C57 C52 1.400 . S
C57 C56 1.389 . S
C58 P32 1.819 . S
C58 C59 1.391 . S
C58 C63 1.391 . S
C59 H41 0.941 . S
C59 C58 1.391 . S
C59 C60 1.396 . S
C60 H44 0.939 . S
C60 C59 1.396 . S
C60 C61 1.397 . S
C61 C60 1.397 . S
C61 C62 1.385 . S
C62 H45 0.940 . S
C62 C61 1.385 . S
C62 C63 1.388 . S
C63 H42 0.939 . S
C63 C58 1.391 . S
C63 C62 1.388 . S
P64 O75 1.490 . S
P64 C78 1.812 . S
P64 C84 1.803 . S
P64 C90 1.819 . S
H65 C79 0.941 . S
H66 C80 0.939 . S
H67 C82 0.940 . S
H68 C83 0.940 . S
H69 C85 0.939 . S
H70 C86 0.942 . S
H71 C88 0.940 . S
H72 C89 0.939 . S
H73 C91 0.941 . S
H74 C95 0.939 . S
O75 P64 1.490 . S
H76 C92 0.939 . S
H77 C94 0.940 . S
C78 P64 1.812 . S
C78 C79 1.389 . S
C78 C83 1.391 . S
C79 H65 0.941 . S
C79 C78 1.389 . S
C79 C80 1.397 . S
C80 H66 0.939 . S
C80 C79 1.397 . S
C80 C81 1.378 . S
C81 C80 1.378 . S
C81 C82 1.378 . S
C82 H67 0.940 . S
C82 C81 1.378 . S
C82 C83 1.396 . S
C83 H68 0.940 . S
C83 C78 1.391 . S
C83 C82 1.396 . S
C84 P64 1.803 . S
C84 C85 1.378 . S
C84 C89 1.400 . S
C85 H69 0.939 . S
C85 C84 1.378 . S
C85 C86 1.361 . S
C86 H70 0.942 . S
C86 C85 1.361 . S
C86 C87 1.369 . S
C87 C86 1.369 . S
C87 C88 1.404 . S
C88 H71 0.940 . S
C88 C87 1.404 . S
C88 C89 1.389 . S
C89 H72 0.939 . S
C89 C84 1.400 . S
C89 C88 1.389 . S
C90 P64 1.819 . S
C90 C91 1.391 . S
C90 C95 1.391 . S
C91 H73 0.941 . S
C91 C90 1.391 . S
C91 C92 1.396 . S
C92 H76 0.939 . S
C92 C91 1.396 . S
C92 C93 1.397 . S
C93 C92 1.397 . S
C93 C94 1.385 . S
C94 H77 0.940 . S
C94 C93 1.385 . S
C94 C95 1.388 . S
C95 H74 0.939 . S
C95 C90 1.391 . S
C95 C94 1.388 . S
P96 O107 1.490 . S
P96 C110 1.812 . S
P96 C116 1.803 . S
P96 C122 1.819 . S
H97 C111 0.941 . S
H98 C112 0.939 . S
H99 C114 0.940 . S
H100 C115 0.940 . S
H101 C117 0.939 . S
H102 C118 0.942 . S
H103 C120 0.940 . S
H104 C121 0.939 . S
H105 C123 0.941 . S
H106 C127 0.939 . S
O107 P96 1.490 . S
H108 C124 0.939 . S
H109 C126 0.940 . S
C110 P96 1.812 . S
C110 C111 1.389 . S
C110 C115 1.391 . S
C111 H97 0.941 . S
C111 C110 1.389 . S
C111 C112 1.397 . S
C112 H98 0.939 . S
C112 C111 1.397 . S
C112 C113 1.378 . S
C113 C112 1.378 . S
C113 C114 1.378 . S
C114 H99 0.940 . S
C114 C113 1.378 . S
C114 C115 1.396 . S
C115 H100 0.940 . S
C115 C110 1.391 . S
C115 C114 1.396 . S
C116 P96 1.803 . S
C116 C117 1.378 . S
C116 C121 1.400 . S
C117 H101 0.939 . S
C117 C116 1.378 . S
C117 C118 1.361 . S
C118 H102 0.942 . S
C118 C117 1.361 . S
C118 C119 1.369 . S
C119 C118 1.369 . S
C119 C120 1.404 . S
C120 H103 0.940 . S
C120 C119 1.404 . S
C120 C121 1.389 . S
C121 H104 0.939 . S
C121 C116 1.400 . S
C121 C120 1.389 . S
C122 P96 1.819 . S
C122 C123 1.391 . S
C122 C127 1.391 . S
C123 H105 0.941 . S
C123 C122 1.391 . S
C123 C124 1.396 . S
C124 H108 0.939 . S
C124 C123 1.396 . S
C124 C125 1.397 . S
C125 C124 1.397 . S
C125 C126 1.385 . S
C126 H109 0.940 . S
C126 C125 1.385 . S
C126 C127 1.388 . S
C127 H106 0.939 . S
C127 C122 1.391 . S
C127 C126 1.388 . S
P128 O139 1.490 . S
P128 C142 1.812 . S
P128 C148 1.803 . S
P128 C154 1.819 . S
H129 C143 0.941 . S
H130 C144 0.939 . S
H131 C146 0.940 . S
H132 C147 0.940 . S
H133 C149 0.939 . S
H134 C150 0.942 . S
H135 C152 0.940 . S
H136 C153 0.939 . S
H137 C155 0.941 . S
H138 C159 0.939 . S
O139 P128 1.490 . S
H140 C156 0.939 . S
H141 C158 0.940 . S
C142 P128 1.812 . S
C142 C143 1.389 . S
C142 C147 1.391 . S
C143 H129 0.941 . S
C143 C142 1.389 . S
C143 C144 1.397 . S
C144 H130 0.939 . S
C144 C143 1.397 . S
C144 C145 1.378 . S
C145 C144 1.378 . S
C145 C146 1.378 . S
C146 H131 0.940 . S
C146 C145 1.378 . S
C146 C147 1.396 . S
C147 H132 0.940 . S
C147 C142 1.391 . S
C147 C146 1.396 . S
C148 P128 1.803 . S
C148 C149 1.378 . S
C148 C153 1.400 . S
C149 H133 0.939 . S
C149 C148 1.378 . S
C149 C150 1.361 . S
C150 H134 0.942 . S
C150 C149 1.361 . S
C150 C151 1.369 . S
C151 C150 1.369 . S
C151 C152 1.404 . S
C152 H135 0.940 . S
C152 C151 1.404 . S
C152 C153 1.389 . S
C153 H136 0.939 . S
C153 C148 1.400 . S
C153 C152 1.389 . S
C154 P128 1.819 . S
C154 C155 1.391 . S
C154 C159 1.391 . S
C155 H137 0.941 . S
C155 C154 1.391 . S
C155 C156 1.396 . S
C156 H140 0.939 . S
C156 C155 1.396 . S
C156 C157 1.397 . S
C157 C156 1.397 . S
C157 C158 1.385 . S
C158 H141 0.940 . S
C158 C157 1.385 . S
C158 C159 1.388 . S
C159 H138 0.939 . S
C159 C154 1.391 . S
C159 C158 1.388 . S
P160 O171 1.490 . S
P160 C174 1.812 . S
P160 C180 1.803 . S
P160 C186 1.819 . S
H161 C175 0.941 . S
H162 C176 0.939 . S
H163 C178 0.940 . S
H164 C179 0.940 . S
H165 C181 0.939 . S
H166 C182 0.942 . S
H167 C184 0.940 . S
H168 C185 0.939 . S
H169 C187 0.941 . S
H170 C191 0.939 . S
O171 P160 1.490 . S
H172 C188 0.939 . S
H173 C190 0.940 . S
C174 P160 1.812 . S
C174 C175 1.389 . S
C174 C179 1.391 . S
C175 H161 0.941 . S
C175 C174 1.389 . S
C175 C176 1.397 . S
C176 H162 0.939 . S
C176 C175 1.397 . S
C176 C177 1.378 . S
C177 C176 1.378 . S
C177 C178 1.378 . S
C178 H163 0.940 . S
C178 C177 1.378 . S
C178 C179 1.396 . S
C179 H164 0.940 . S
C179 C174 1.391 . S
C179 C178 1.396 . S
C180 P160 1.803 . S
C180 C181 1.378 . S
C180 C185 1.400 . S
C181 H165 0.939 . S
C181 C180 1.378 . S
C181 C182 1.361 . S
C182 H166 0.942 . S
C182 C181 1.361 . S
C182 C183 1.369 . S
C183 C182 1.369 . S
C183 C184 1.404 . S
C184 H167 0.940 . S
C184 C183 1.404 . S
C184 C185 1.389 . S
C185 H168 0.939 . S
C185 C180 1.400 . S
C185 C184 1.389 . S
C186 P160 1.819 . S
C186 C187 1.391 . S
C186 C191 1.391 . S
C187 H169 0.941 . S
C187 C186 1.391 . S
C187 C188 1.396 . S
C188 H172 0.939 . S
C188 C187 1.396 . S
C188 C189 1.397 . S
C189 C188 1.397 . S
C189 C190 1.385 . S
C190 H173 0.940 . S
C190 C189 1.385 . S
C190 C191 1.388 . S
C191 H170 0.939 . S
C191 C186 1.391 . S
C191 C190 1.388 . S
P192 O203 1.509 . S
P192 C206 1.812 . S
P192 C212 1.803 . S
P192 C218 1.819 . S
H193 C207 0.941 . S
H194 C208 0.939 . S
H195 C210 0.940 . S
H196 C211 0.940 . S
H197 C213 0.939 . S
H198 C214 0.942 . S
H199 C216 0.940 . S
H200 C217 0.939 . S
H201 C219 0.941 1_455 S
H202 C223 0.939 . S
O203 P192 1.509 . S
H204 C220 0.939 1_455 S
H205 C222 0.940 . S
C206 P192 1.812 . S
C206 C207 1.389 . S
C206 C211 1.391 . S
C207 H193 0.941 . S
C207 C206 1.389 . S
C207 C208 1.397 . S
C208 H194 0.939 . S
C208 C207 1.397 . S
C208 C209 1.378 . S
C209 C208 1.378 . S
C209 C210 1.378 . S
C210 H195 0.940 . S
C210 C209 1.378 . S
C210 C211 1.396 . S
C211 H196 0.940 . S
C211 C206 1.391 . S
C211 C210 1.396 . S
C212 P192 1.803 . S
C212 C213 1.378 . S
C212 C217 1.400 . S
C213 H197 0.939 . S
C213 C212 1.378 . S
C213 C214 1.361 . S
C214 H198 0.942 . S
C214 C213 1.361 . S
C214 C215 1.369 . S
C215 C214 1.369 . S
C215 C216 1.404 . S
C216 H199 0.940 . S
C216 C215 1.404 . S
C216 C217 1.389 . S
C217 H200 0.939 . S
C217 C212 1.400 . S
C217 C216 1.389 . S
C218 P192 1.819 . S
C218 C219 1.391 . S
C218 C223 1.391 . S
C219 H201 0.941 1_655 S
C219 C218 1.391 . S
C219 C220 1.396 . S
C220 H204 0.939 1_655 S
C220 C219 1.396 . S
C220 C221 1.397 . S
C221 C220 1.397 . S
C221 C222 1.385 . S
C222 H205 0.940 . S
C222 C221 1.385 . S
C222 C223 1.388 . S
C223 H202 0.939 . S
C223 C218 1.391 . S
C223 C222 1.388 . S
P224 O235 1.490 . S
P224 C238 1.812 . S
P224 C244 1.803 . S
P224 C250 1.819 . S
H225 C239 0.941 . S
H226 C240 0.939 . S
H227 C242 0.940 . S
H228 C243 0.940 . S
H229 C245 0.939 . S
H230 C246 0.942 . S
H231 C248 0.940 . S
H232 C249 0.939 . S
H233 C251 0.941 . S
H234 C255 0.939 . S
O235 P224 1.490 . S
H236 C252 0.939 . S
H237 C254 0.940 . S
C238 P224 1.812 . S
C238 C239 1.389 . S
C238 C243 1.391 . S
C239 H225 0.941 . S
C239 C238 1.389 . S
C239 C240 1.397 . S
C240 H226 0.939 . S
C240 C239 1.397 . S
C240 C241 1.378 . S
C241 C240 1.378 . S
C241 C242 1.378 . S
C242 H227 0.940 . S
C242 C241 1.378 . S
C242 C243 1.396 . S
C243 H228 0.940 . S
C243 C238 1.391 . S
C243 C242 1.396 . S
C244 P224 1.803 . S
C244 C245 1.378 . S
C244 C249 1.400 . S
C245 H229 0.939 . S
C245 C244 1.378 . S
C245 C246 1.361 . S
C246 H230 0.942 . S
C246 C245 1.361 . S
C246 C247 1.369 . S
C247 C246 1.369 . S
C247 C248 1.404 . S
C248 H231 0.940 . S
C248 C247 1.404 . S
C248 C249 1.389 . S
C249 H232 0.939 . S
C249 C244 1.400 . S
C249 C248 1.389 . S
C250 P224 1.819 . S
C250 C251 1.391 . S
C250 C255 1.391 . S
C251 H233 0.941 . S
C251 C250 1.391 . S
C251 C252 1.396 . S
C252 H236 0.939 . S
C252 C251 1.396 . S
C252 C253 1.397 . S
C253 C252 1.397 . S
C253 C254 1.385 . S
C254 H237 0.940 . S
C254 C253 1.385 . S
C254 C255 1.388 . S
C255 H234 0.939 . S
C255 C250 1.391 . S
C255 C254 1.388 . S
P256 O267 1.490 1_545 S
P256 C270 1.812 . S
P256 C276 1.803 . S
P256 C282 1.819 . S
H257 C271 0.941 . S
H258 C272 0.939 . S
H259 C274 0.940 . S
H260 C275 0.940 . S
H261 C277 0.939 . S
H262 C278 0.942 . S
H263 C280 0.940 . S
H264 C281 0.939 . S
H265 C283 0.941 1_565 S
H266 C287 0.939 . S
O267 P256 1.490 1_565 S
H268 C284 0.939 1_565 S
H269 C286 0.940 . S
C270 P256 1.812 . S
C270 C271 1.389 . S
C270 C275 1.391 . S
C271 H257 0.941 . S
C271 C270 1.389 . S
C271 C272 1.397 . S
C272 H258 0.939 . S
C272 C271 1.397 . S
C272 C273 1.378 . S
C273 C272 1.378 . S
C273 C274 1.378 . S
C274 H259 0.940 . S
C274 C273 1.378 . S
C274 C275 1.396 . S
C275 H260 0.940 . S
C275 C270 1.391 . S
C275 C274 1.396 . S
C276 P256 1.803 . S
C276 C277 1.378 . S
C276 C281 1.400 . S
C277 H261 0.939 . S
C277 C276 1.378 . S
C277 C278 1.361 . S
C278 H262 0.942 . S
C278 C277 1.361 . S
C278 C279 1.369 . S
C279 C278 1.369 . S
C279 C280 1.404 . S
C280 H263 0.940 . S
C280 C279 1.404 . S
C280 C281 1.389 . S
C281 H264 0.939 . S
C281 C276 1.400 . S
C281 C280 1.389 . S
C282 P256 1.819 . S
C282 C283 1.391 . S
C282 C287 1.391 . S
C283 H265 0.941 1_545 S
C283 C282 1.391 . S
C283 C284 1.396 . S
C284 H268 0.939 1_545 S
C284 C283 1.396 . S
C284 C285 1.397 . S
C285 C284 1.397 . S
C285 C286 1.385 . S
C286 H269 0.940 . S
C286 C285 1.385 . S
C286 C287 1.388 . S
C287 H266 0.939 . S
C287 C282 1.391 . S
C287 C286 1.388 . S
P288 O299 1.490 . S
P288 C302 1.812 . S
P288 C308 1.803 . S
P288 C314 1.819 . S
H289 C303 0.941 1_554 S
H290 C304 0.939 . S
H291 C306 0.940 . S
H292 C307 0.940 . S
H293 C309 0.939 . S
H294 C310 0.942 . S
H295 C312 0.940 . S
H296 C313 0.939 . S
H297 C315 0.941 . S
H298 C319 0.939 . S
O299 P288 1.490 . S
H300 C316 0.939 . S
H301 C318 0.940 . S
C302 P288 1.812 . S
C302 C303 1.389 . S
C302 C307 1.391 . S
C303 H289 0.941 1_556 S
C303 C302 1.389 . S
C303 C304 1.397 1_556 S
C304 H290 0.939 . S
C304 C303 1.397 1_554 S
C304 C305 1.378 1_554 S
C305 C304 1.378 1_556 S
C305 C306 1.378 . S
C306 H291 0.940 . S
C306 C305 1.378 . S
C306 C307 1.396 . S
C307 H292 0.940 . S
C307 C302 1.391 . S
C307 C306 1.396 . S
C308 P288 1.803 . S
C308 C309 1.378 . S
C308 C313 1.400 . S
C309 H293 0.939 . S
C309 C308 1.378 . S
C309 C310 1.361 . S
C310 H294 0.942 . S
C310 C309 1.361 . S
C310 C311 1.369 . S
C311 C310 1.369 . S
C311 C312 1.404 . S
C312 H295 0.940 . S
C312 C311 1.404 . S
C312 C313 1.389 . S
C313 H296 0.939 . S
C313 C308 1.400 . S
C313 C312 1.389 . S
C314 P288 1.819 . S
C314 C315 1.391 . S
C314 C319 1.391 . S
C315 H297 0.941 . S
C315 C314 1.391 . S
C315 C316 1.396 . S
C316 H300 0.939 . S
C316 C315 1.396 . S
C316 C317 1.397 . S
C317 C316 1.397 . S
C317 C318 1.385 . S
C318 H301 0.940 . S
C318 C317 1.385 . S
C318 C319 1.388 . S
C319 H298 0.939 . S
C319 C314 1.391 . S
C319 C318 1.388 . S
P320 O331 1.490 . S
P320 C334 1.812 . S
P320 C340 1.803 . S
P320 C346 1.819 . S
H321 C335 0.941 . S
H322 C336 0.939 . S
H323 C338 0.940 . S
H324 C339 0.940 . S
H325 C341 0.939 . S
H326 C342 0.942 . S
H327 C344 0.940 1_554 S
H328 C345 0.939 . S
H329 C347 0.941 . S
H330 C351 0.939 . S
O331 P320 1.490 . S
H332 C348 0.939 . S
H333 C350 0.940 . S
C334 P320 1.812 . S
C334 C335 1.389 . S
C334 C339 1.391 . S
C335 H321 0.941 . S
C335 C334 1.389 . S
C335 C336 1.397 . S
C336 H322 0.939 . S
C336 C335 1.397 . S
C336 C337 1.378 . S
C337 C336 1.378 . S
C337 C338 1.378 . S
C338 H323 0.940 . S
C338 C337 1.378 . S
C338 C339 1.396 . S
C339 H324 0.940 . S
C339 C334 1.391 . S
C339 C338 1.396 . S
C340 P320 1.803 . S
C340 C341 1.378 . S
C340 C345 1.400 . S
C341 H325 0.939 . S
C341 C340 1.378 . S
C341 C342 1.361 . S
C342 H326 0.942 . S
C342 C341 1.361 . S
C342 C343 1.369 . S
C343 C342 1.369 . S
C343 C344 1.404 . S
C344 H327 0.940 1_556 S
C344 C343 1.404 . S
C344 C345 1.389 . S
C345 H328 0.939 . S
C345 C340 1.400 . S
C345 C344 1.389 . S
C346 P320 1.819 . S
C346 C347 1.391 . S
C346 C351 1.391 . S
C347 H329 0.941 . S
C347 C346 1.391 . S
C347 C348 1.396 . S
C348 H332 0.939 . S
C348 C347 1.396 . S
C348 C349 1.397 . S
C349 C348 1.397 . S
C349 C350 1.385 . S
C350 H333 0.940 . S
C350 C349 1.385 . S
C350 C351 1.388 . S
C351 H330 0.939 . S
C351 C346 1.391 . S
C351 C350 1.388 . S
P352 O363 1.490 . S
P352 C366 1.812 . S
P352 C372 1.803 . S
P352 C378 1.819 . S
H353 C367 0.941 1_554 S
H354 C368 0.928 1_554 S
H355 C370 0.940 . S
H356 C371 0.940 . S
H357 C373 0.939 . S
H358 C374 0.942 . S
H359 C376 0.940 . S
H360 C377 0.939 . S
H361 C379 0.941 . S
H362 C383 0.939 . S
O363 P352 1.490 . S
H364 C380 0.939 . S
H365 C382 0.940 . S
C366 P352 1.812 . S
C366 C367 1.389 . S
C366 C371 1.391 . S
C367 H353 0.941 1_556 S
C367 C366 1.389 . S
C367 C368 1.400 . S
C368 H354 0.928 1_556 S
C368 C367 1.400 . S
C368 C369 1.386 . S
C369 C368 1.386 . S
C369 C370 1.378 . S
C370 H355 0.940 . S
C370 C369 1.378 . S
C370 C371 1.396 . S
C371 H356 0.940 . S
C371 C366 1.391 . S
C371 C370 1.396 . S
C372 P352 1.803 . S
C372 C373 1.378 . S
C372 C377 1.400 . S
C373 H357 0.939 . S
C373 C372 1.378 . S
C373 C374 1.361 . S
C374 H358 0.942 . S
C374 C373 1.361 . S
C374 C375 1.369 . S
C375 C374 1.369 . S
C375 C376 1.404 . S
C376 H359 0.940 . S
C376 C375 1.404 . S
C376 C377 1.389 . S
C377 H360 0.939 . S
C377 C372 1.400 . S
C377 C376 1.389 . S
C378 P352 1.819 . S
C378 C379 1.391 . S
C378 C383 1.391 . S
C379 H361 0.941 . S
C379 C378 1.391 . S
C379 C380 1.396 . S
C380 H364 0.939 . S
C380 C379 1.396 . S
C380 C381 1.397 . S
C381 C380 1.397 . S
C381 C382 1.385 . S
C382 H365 0.940 . S
C382 C381 1.385 . S
C382 C383 1.388 . S
C383 H362 0.939 . S
C383 C378 1.391 . S
C383 C382 1.388 . S
P384 O395 1.490 . S
P384 C398 1.812 . S
P384 C404 1.803 . S
P384 C410 1.819 . S
H385 C399 0.941 . S
H386 C400 0.939 1_556 S
H387 C402 0.940 . S
H388 C403 0.940 . S
H389 C405 0.939 . S
H390 C406 0.942 . S
H391 C408 0.940 . S
H392 C409 0.939 . S
H393 C411 0.941 . S
H394 C415 0.939 . S
O395 P384 1.490 . S
H396 C412 0.939 . S
H397 C414 0.940 . S
C398 P384 1.812 . S
C398 C399 1.389 . S
C398 C403 1.391 . S
C399 H385 0.941 . S
C399 C398 1.389 . S
C399 C400 1.397 . S
C400 H386 0.939 1_554 S
C400 C399 1.397 . S
C400 C401 1.378 . S
C401 C400 1.378 . S
C401 C402 1.378 . S
C402 H387 0.940 . S
C402 C401 1.378 . S
C402 C403 1.396 . S
C403 H388 0.940 . S
C403 C398 1.391 . S
C403 C402 1.396 . S
C404 P384 1.803 . S
C404 C405 1.378 . S
C404 C409 1.400 . S
C405 H389 0.939 . S
C405 C404 1.378 . S
C405 C406 1.361 . S
C406 H390 0.942 . S
C406 C405 1.361 . S
C406 C407 1.369 . S
C407 C406 1.369 . S
C407 C408 1.404 . S
C408 H391 0.940 . S
C408 C407 1.404 . S
C408 C409 1.389 . S
C409 H392 0.939 . S
C409 C404 1.400 . S
C409 C408 1.389 . S
C410 P384 1.819 . S
C410 C411 1.391 . S
C410 C415 1.391 . S
C411 H393 0.941 . S
C411 C410 1.391 . S
C411 C412 1.396 . S
C412 H396 0.939 . S
C412 C411 1.396 . S
C412 C413 1.397 . S
C413 C412 1.397 . S
C413 C414 1.385 . S
C414 H397 0.940 . S
C414 C413 1.385 . S
C414 C415 1.388 . S
C415 H394 0.939 . S
C415 C410 1.391 . S
C415 C414 1.388 . S
P416 O427 1.490 . S
P416 C430 1.812 . S
P416 C436 1.803 . S
P416 C442 1.819 . S
H417 C431 0.941 . S
H418 C432 0.939 . S
H419 C434 0.940 . S
H420 C435 0.940 . S
H421 C437 0.939 . S
H422 C438 0.942 . S
H423 C440 0.940 . S
H424 C441 0.939 . S
H425 C443 0.941 . S
H426 C447 0.939 . S
O427 P416 1.490 . S
H428 C444 0.939 . S
H429 C446 0.940 . S
C430 P416 1.812 . S
C430 C431 1.389 . S
C430 C435 1.391 . S
C431 H417 0.941 . S
C431 C430 1.389 . S
C431 C432 1.397 . S
C432 H418 0.939 . S
C432 C431 1.397 . S
C432 C433 1.378 . S
C433 C432 1.378 . S
C433 C434 1.378 . S
C434 H419 0.940 . S
C434 C433 1.378 . S
C434 C435 1.396 . S
C435 H420 0.940 . S
C435 C430 1.391 . S
C435 C434 1.396 . S
C436 P416 1.803 . S
C436 C437 1.378 . S
C436 C441 1.400 . S
C437 H421 0.939 . S
C437 C436 1.378 . S
C437 C438 1.361 . S
C438 H422 0.942 . S
C438 C437 1.361 . S
C438 C439 1.369 . S
C439 C438 1.369 . S
C439 C440 1.404 . S
C440 H423 0.940 . S
C440 C439 1.404 . S
C440 C441 1.389 . S
C441 H424 0.939 . S
C441 C436 1.400 . S
C441 C440 1.389 . S
C442 P416 1.819 . S
C442 C443 1.391 . S
C442 C447 1.391 . S
C443 H425 0.941 . S
C443 C442 1.391 . S
C443 C444 1.396 . S
C444 H428 0.939 . S
C444 C443 1.396 . S
C444 C445 1.397 . S
C445 C444 1.397 . S
C445 C446 1.385 . S
C446 H429 0.940 . S
C446 C445 1.385 . S
C446 C447 1.388 . S
C447 H426 0.939 . S
C447 C442 1.391 . S
C447 C446 1.388 . S
P448 O459 1.490 . S
P448 C462 1.812 . S
P448 C468 1.803 . S
P448 C474 1.819 . S
H449 C463 0.941 . S
H450 C464 0.939 1_556 S
H451 C466 0.940 . S
H452 C467 0.940 . S
H453 C469 0.939 . S
H454 C470 0.942 . S
H455 C472 0.940 . S
H456 C473 0.939 . S
H457 C475 0.941 . S
H458 C479 0.939 . S
O459 P448 1.490 . S
H460 C476 0.939 . S
H461 C478 0.940 . S
C462 P448 1.812 . S
C462 C463 1.389 . S
C462 C467 1.391 . S
C463 H449 0.941 . S
C463 C462 1.389 . S
C463 C464 1.397 . S
C464 H450 0.939 1_554 S
C464 C463 1.397 . S
C464 C465 1.378 . S
C465 C464 1.378 . S
C465 C466 1.378 . S
C466 H451 0.940 . S
C466 C465 1.378 . S
C466 C467 1.396 . S
C467 H452 0.940 . S
C467 C462 1.391 . S
C467 C466 1.396 . S
C468 P448 1.803 . S
C468 C469 1.378 . S
C468 C473 1.400 . S
C469 H453 0.939 . S
C469 C468 1.378 . S
C469 C470 1.361 . S
C470 H454 0.942 . S
C470 C469 1.361 . S
C470 C471 1.369 . S
C471 C470 1.369 . S
C471 C472 1.404 . S
C472 H455 0.940 . S
C472 C471 1.404 . S
C472 C473 1.389 . S
C473 H456 0.939 . S
C473 C468 1.400 . S
C473 C472 1.389 . S
C474 P448 1.819 . S
C474 C475 1.391 . S
C474 C479 1.391 . S
C475 H457 0.941 . S
C475 C474 1.391 . S
C475 C476 1.396 . S
C476 H460 0.939 . S
C476 C475 1.396 . S
C476 C477 1.397 . S
C477 C476 1.397 . S
C477 C478 1.385 . S
C478 H461 0.940 . S
C478 C477 1.385 . S
C478 C479 1.388 . S
C479 H458 0.939 . S
C479 C474 1.391 . S
C479 C478 1.388 . S
P480 O491 1.490 1_565 S
P480 C494 1.812 . S
P480 C500 1.803 . S
P480 C506 1.819 . S
H481 C495 0.941 . S
H482 C496 0.939 . S
H483 C498 0.940 . S
H484 C499 0.940 . S
H485 C501 0.939 . S
H486 C502 0.942 . S
H487 C504 0.940 . S
H488 C505 0.939 . S
H489 C507 0.941 1_545 S
H490 C511 0.939 . S
O491 P480 1.490 1_545 S
H492 C508 0.939 1_545 S
H493 C510 0.940 . S
C494 P480 1.812 . S
C494 C495 1.389 . S
C494 C499 1.391 . S
C495 H481 0.941 . S
C495 C494 1.389 . S
C495 C496 1.397 . S
C496 H482 0.939 . S
C496 C495 1.397 . S
C496 C497 1.378 . S
C497 C496 1.378 . S
C497 C498 1.378 . S
C498 H483 0.940 . S
C498 C497 1.378 . S
C498 C499 1.396 . S
C499 H484 0.940 . S
C499 C494 1.391 . S
C499 C498 1.396 . S
C500 P480 1.803 . S
C500 C501 1.378 . S
C500 C505 1.400 . S
C501 H485 0.939 . S
C501 C500 1.378 . S
C501 C502 1.361 . S
C502 H486 0.942 . S
C502 C501 1.361 . S
C502 C503 1.369 . S
C503 C502 1.369 . S
C503 C504 1.404 . S
C504 H487 0.940 . S
C504 C503 1.404 . S
C504 C505 1.389 . S
C505 H488 0.939 . S
C505 C500 1.400 . S
C505 C504 1.389 . S
C506 P480 1.819 . S
C506 C507 1.391 . S
C506 C511 1.391 . S
C507 H489 0.941 1_565 S
C507 C506 1.391 . S
C507 C508 1.396 . S
C508 H492 0.939 1_565 S
C508 C507 1.396 . S
C508 C509 1.397 . S
C509 C508 1.397 . S
C509 C510 1.385 . S
C510 H493 0.940 . S
C510 C509 1.385 . S
C510 C511 1.388 . S
C511 H490 0.939 . S
C511 C506 1.391 . S
C511 C510 1.388 . S
P512 O523 1.490 . S
P512 C526 1.812 . S
P512 C532 1.803 . S
P512 C538 1.819 . S
H513 C527 0.941 . S
H514 C528 0.939 . S
H515 C530 0.940 . S
H516 C531 0.940 . S
H517 C533 0.939 . S
H518 C534 0.942 . S
H519 C536 0.940 . S
H520 C537 0.939 . S
H521 C539 0.941 . S
H522 C543 0.939 . S
O523 P512 1.490 . S
H524 C540 0.939 . S
H525 C542 0.940 . S
C526 P512 1.812 . S
C526 C527 1.389 . S
C526 C531 1.391 . S
C527 H513 0.941 . S
C527 C526 1.389 . S
C527 C528 1.397 . S
C528 H514 0.939 . S
C528 C527 1.397 . S
C528 C529 1.378 . S
C529 C528 1.378 . S
C529 C530 1.378 . S
C530 H515 0.940 . S
C530 C529 1.378 . S
C530 C531 1.396 . S
C531 H516 0.940 . S
C531 C526 1.391 . S
C531 C530 1.396 . S
C532 P512 1.803 . S
C532 C533 1.378 . S
C532 C537 1.400 . S
C533 H517 0.939 . S
C533 C532 1.378 . S
C533 C534 1.361 . S
C534 H518 0.942 . S
C534 C533 1.361 . S
C534 C535 1.369 . S
C535 C534 1.369 . S
C535 C536 1.404 . S
C536 H519 0.940 . S
C536 C535 1.404 . S
C536 C537 1.389 . S
C537 H520 0.939 . S
C537 C532 1.400 . S
C537 C536 1.389 . S
C538 P512 1.819 . S
C538 C539 1.391 . S
C538 C543 1.391 . S
C539 H521 0.941 . S
C539 C538 1.391 . S
C539 C540 1.396 . S
C540 H524 0.939 . S
C540 C539 1.396 . S
C540 C541 1.397 . S
C541 C540 1.397 . S
C541 C542 1.385 . S
C542 H525 0.940 . S
C542 C541 1.385 . S
C542 C543 1.388 . S
C543 H522 0.939 . S
C543 C538 1.391 . S
C543 C542 1.388 . S
P544 O555 1.490 . S
P544 C558 1.812 . S
P544 C564 1.803 . S
P544 C570 1.819 . S
H545 C559 0.941 . S
H546 C560 0.939 . S
H547 C562 0.940 . S
H548 C563 0.940 . S
H549 C565 0.939 . S
H550 C566 0.942 . S
H551 C568 0.940 . S
H552 C569 0.939 . S
H553 C571 0.941 . S
H554 C575 0.939 . S
O555 P544 1.490 . S
H556 C572 0.939 . S
H557 C574 0.940 . S
C558 P544 1.812 . S
C558 C559 1.389 . S
C558 C563 1.391 . S
C559 H545 0.941 . S
C559 C558 1.389 . S
C559 C560 1.397 . S
C560 H546 0.939 . S
C560 C559 1.397 . S
C560 C561 1.378 . S
C561 C560 1.378 . S
C561 C562 1.378 . S
C562 H547 0.940 . S
C562 C561 1.378 . S
C562 C563 1.396 . S
C563 H548 0.940 . S
C563 C558 1.391 . S
C563 C562 1.396 . S
C564 P544 1.803 . S
C564 C565 1.378 . S
C564 C569 1.400 . S
C565 H549 0.939 . S
C565 C564 1.378 . S
C565 C566 1.361 . S
C566 H550 0.942 . S
C566 C565 1.361 . S
C566 C567 1.369 . S
C567 C566 1.369 . S
C567 C568 1.404 . S
C568 H551 0.940 . S
C568 C567 1.404 . S
C568 C569 1.389 . S
C569 H552 0.939 . S
C569 C564 1.400 . S
C569 C568 1.389 . S
C570 P544 1.819 . S
C570 C571 1.391 . S
C570 C575 1.391 . S
C571 H553 0.941 . S
C571 C570 1.391 . S
C571 C572 1.396 . S
C572 H556 0.939 . S
C572 C571 1.396 . S
C572 C573 1.397 . S
C573 C572 1.397 . S
C573 C574 1.385 . S
C574 H557 0.940 . S
C574 C573 1.385 . S
C574 C575 1.388 . S
C575 H554 0.939 . S
C575 C570 1.391 . S
C575 C574 1.388 . S
O576 Mg577 1.990 . S
O576 C590 1.253 1_565 S
Mg577 O576 1.990 . S
Mg577 O580 2.180 1_556 S
Mg577 O581 2.117 . S
Mg577 O595 2.030 1_565 S
O578 Mg579 2.072 1_556 S
O578 C590 1.260 . S
Mg579 O578 2.072 1_554 S
Mg579 O580 2.099 1_545 S
Mg579 O582 2.079 . S
Mg579 O583 2.072 1_545 S
Mg579 O585 2.099 . S
Mg579 O596 2.079 . S
O580 Mg577 2.180 1_554 S
O580 Mg579 2.099 1_565 S
O580 C591 1.279 1_554 S
O581 Mg577 2.117 . S
O581 C591 1.249 . S
O582 Mg579 2.079 . S
O582 C592 1.264 . S
O583 Mg579 2.072 1_565 S
O583 C593 1.260 . S
Mg584 O585 2.180 . S
Mg584 O586 2.016 1_545 S
Mg584 O587 1.990 1_545 S
Mg584 O588 2.117 . S
O585 Mg579 2.099 . S
O585 Mg584 2.180 . S
O585 C594 1.279 . S
O586 Mg584 2.016 1_565 S
O586 C592 1.257 1_565 S
O587 Mg584 1.990 1_565 S
O587 C593 1.253 . S
O588 Mg584 2.117 . S
O588 C594 1.250 . S
C589 O595 1.248 . S
C589 O596 1.264 1_556 S
C590 O576 1.253 1_545 S
C590 O578 1.260 . S
C591 O580 1.279 1_556 S
C591 O581 1.249 . S
C592 O582 1.264 . S
C592 O586 1.257 1_545 S
C593 O583 1.260 . S
C593 O587 1.253 . S
C594 O585 1.279 . S
C594 O588 1.250 . S
O595 Mg577 2.030 1_545 S
O595 C589 1.248 . S
O596 Mg579 2.079 . S
O596 C589 1.264 1_554 S
O597 Mg598 1.990 . S
O597 C611 1.254 1_455 S
Mg598 O597 1.990 . S
Mg598 O601 2.180 1_556 S
Mg598 O602 2.117 . S
Mg598 O616 2.030 1_455 S
O599 Mg600 2.072 1_556 S
O599 C611 1.259 . S
Mg600 O599 2.072 1_554 S
Mg600 O601 2.099 1_655 S
Mg600 O603 2.079 . S
Mg600 O604 2.072 1_655 S
Mg600 O606 2.099 . S
Mg600 O617 2.079 . S
O601 Mg598 2.180 1_554 S
O601 Mg600 2.099 1_455 S
O601 C612 1.279 . S
O602 Mg598 2.117 . S
O602 C612 1.250 1_556 S
O603 Mg600 2.079 . S
O603 C613 1.264 1_655 S
O604 Mg600 2.072 1_455 S
O604 C614 1.260 . S
Mg605 O606 2.180 . S
Mg605 O607 2.030 1_655 S
Mg605 O608 1.990 1_655 S
Mg605 O609 2.117 . S
O606 Mg600 2.099 . S
O606 Mg605 2.180 . S
O606 C615 1.279 . S
O607 Mg605 2.030 1_455 S
O607 C613 1.248 . S
O608 Mg605 1.990 1_455 S
O608 C614 1.253 . S
O609 Mg605 2.117 . S
O609 C615 1.250 . S
C610 O616 1.248 . S
C610 O617 1.264 1_556 S
C611 O597 1.254 1_655 S
C611 O599 1.259 . S
C612 O601 1.279 . S
C612 O602 1.250 1_554 S
C613 O603 1.264 1_455 S
C613 O607 1.248 . S
C614 O604 1.260 . S
C614 O608 1.253 . S
C615 O606 1.279 . S
C615 O609 1.250 . S
O616 Mg598 2.030 1_655 S
O616 C610 1.248 . S
O617 Mg600 2.079 . S
O617 C610 1.264 1_554 S
O618 Mg619 1.990 . S
O618 C632 1.253 . S
Mg619 O618 1.990 . S
Mg619 O622 2.180 . S
Mg619 O623 2.117 . S
Mg619 O637 2.030 . S
O620 Mg621 2.079 . S
O620 C632 1.260 . S
Mg621 O620 2.079 . S
Mg621 O622 2.100 . S
Mg621 O624 2.072 1_554 S
Mg621 O625 2.072 1_554 S
Mg621 O627 2.098 1_554 S
Mg621 O638 2.078 . S
O622 Mg619 2.180 . S
O622 Mg621 2.100 . S
O622 C633 1.279 . S
O623 Mg619 2.117 . S
O623 C633 1.250 . S
O624 Mg621 2.072 1_556 S
O624 C634 1.264 . S
O625 Mg621 2.072 1_556 S
O625 C635 1.260 . S
Mg626 O627 2.180 . S
Mg626 O628 2.030 . S
Mg626 O629 1.990 . S
Mg626 O630 2.126 . S
O627 Mg621 2.098 1_556 S
O627 Mg626 2.180 . S
O627 C636 1.279 1_556 S
O628 Mg626 2.030 . S
O628 C634 1.248 . S
O629 Mg626 1.990 . S
O629 C635 1.253 . S
O630 Mg626 2.126 . S
O630 C636 1.247 1_556 S
C631 O637 1.248 . S
C631 O638 1.285 . S
C632 O618 1.253 . S
C632 O620 1.260 . S
C633 O622 1.279 . S
C633 O623 1.250 . S
C634 O624 1.264 . S
C634 O628 1.248 . S
C635 O625 1.260 . S
C635 O629 1.253 . S
C636 O627 1.279 1_554 S
C636 O630 1.247 1_554 S
O637 Mg619 2.030 . S
O637 C631 1.248 . S
O638 Mg621 2.078 . S
O638 C631 1.285 . S
O639 Mg640 1.990 . S
O639 C653 1.253 . S
Mg640 O639 1.990 . S
Mg640 O643 2.180 . S
Mg640 O644 2.117 . S
Mg640 O658 2.030 . S
O641 Mg642 2.072 . S
O641 C653 1.260 . S
Mg642 O641 2.072 . S
Mg642 O643 2.099 . S
Mg642 O645 2.079 . S
Mg642 O646 2.072 . S
Mg642 O648 2.099 . S
Mg642 O659 2.079 . S
O643 Mg640 2.180 . S
O643 Mg642 2.099 . S
O643 C654 1.279 . S
O644 Mg640 2.117 . S
O644 C654 1.250 . S
O645 Mg642 2.079 . S
O645 C655 1.264 . S
O646 Mg642 2.072 . S
O646 C656 1.260 . S
Mg647 O648 2.180 . S
Mg647 O649 2.030 . S
Mg647 O650 1.990 . S
Mg647 O651 2.117 . S
O648 Mg642 2.099 . S
O648 Mg647 2.180 . S
O648 C657 1.279 . S
O649 Mg647 2.030 . S
O649 C655 1.248 . S
O650 Mg647 1.990 . S
O650 C656 1.253 . S
O651 Mg647 2.117 . S
O651 C657 1.250 . S
C652 O658 1.248 . S
C652 O659 1.264 . S
C653 O639 1.253 . S
C653 O641 1.260 . S
C654 O643 1.279 . S
C654 O644 1.250 . S
C655 O645 1.264 . S
C655 O649 1.248 . S
C656 O646 1.260 . S
C656 O650 1.253 . S
C657 O648 1.279 . S
C657 O651 1.250 . S
O658 Mg640 2.030 . S
O658 C652 1.248 . S
O659 Mg642 2.079 . S
O659 C652 1.264 . S
O660 Mg661 1.990 . S
O660 C674 1.253 . S
Mg661 O660 1.990 . S
Mg661 O664 2.180 . S
Mg661 O665 2.117 . S
Mg661 O679 2.030 . S
O662 Mg663 2.072 . S
O662 C674 1.260 . S
Mg663 O662 2.072 . S
Mg663 O664 2.099 . S
Mg663 O666 2.079 . S
Mg663 O667 2.072 . S
Mg663 O669 2.099 . S
Mg663 O680 2.079 . S
O664 Mg661 2.180 . S
O664 Mg663 2.099 . S
O664 C675 1.279 . S
O665 Mg661 2.117 . S
O665 C675 1.250 . S
O666 Mg663 2.079 . S
O666 C676 1.264 . S
O667 Mg663 2.072 . S
O667 C677 1.260 . S
Mg668 O669 2.180 . S
Mg668 O670 2.030 . S
Mg668 O671 1.990 . S
Mg668 O672 2.117 . S
O669 Mg663 2.099 . S
O669 Mg668 2.180 . S
O669 C678 1.279 . S
O670 Mg668 2.030 . S
O670 C676 1.248 . S
O671 Mg668 1.990 . S
O671 C677 1.253 . S
O672 Mg668 2.117 . S
O672 C678 1.250 . S
C673 O679 1.248 . S
C673 O680 1.264 . S
C674 O660 1.253 . S
C674 O662 1.260 . S
C675 O664 1.279 . S
C675 O665 1.250 . S
C676 O666 1.264 . S
C676 O670 1.248 . S
C677 O667 1.260 . S
C677 O671 1.253 . S
C678 O669 1.279 . S
C678 O672 1.250 . S
O679 Mg661 2.030 . S
O679 C673 1.248 . S
O680 Mg663 2.079 . S
O680 C673 1.264 . S
O681 Mg682 1.990 . S
O681 C695 1.253 . S
Mg682 O681 1.990 . S
Mg682 O685 2.180 . S
Mg682 O686 2.117 . S
Mg682 O700 2.030 . S
O683 Mg684 2.072 . S
O683 C695 1.260 . S
Mg684 O683 2.072 . S
Mg684 O685 2.099 . S
Mg684 O687 2.079 . S
Mg684 O688 2.072 . S
Mg684 O690 2.099 . S
Mg684 O701 2.079 . S
O685 Mg682 2.180 . S
O685 Mg684 2.099 . S
O685 C696 1.279 . S
O686 Mg682 2.117 . S
O686 C696 1.250 . S
O687 Mg684 2.079 . S
O687 C697 1.264 . S
O688 Mg684 2.072 . S
O688 C698 1.260 . S
Mg689 O690 2.180 . S
Mg689 O691 2.030 . S
Mg689 O692 1.990 . S
Mg689 O693 2.117 . S
O690 Mg684 2.099 . S
O690 Mg689 2.180 . S
O690 C699 1.279 . S
O691 Mg689 2.030 . S
O691 C697 1.248 . S
O692 Mg689 1.990 . S
O692 C698 1.253 . S
O693 Mg689 2.117 . S
O693 C699 1.250 . S
C694 O700 1.248 . S
C694 O701 1.264 . S
C695 O681 1.253 . S
C695 O683 1.260 . S
C696 O685 1.279 . S
C696 O686 1.250 . S
C697 O687 1.264 . S
C697 O691 1.248 . S
C698 O688 1.260 . S
C698 O692 1.253 . S
C699 O690 1.279 . S
C699 O693 1.250 . S
O700 Mg682 2.030 . S
O700 C694 1.248 . S
O701 Mg684 2.079 . S
O701 C694 1.264 . S
O702 Mg703 1.990 . S
O702 C716 1.253 . S
Mg703 O702 1.990 . S
Mg703 O706 2.180 . S
Mg703 O707 2.117 . S
Mg703 O721 2.030 . S
O704 Mg705 2.072 . S
O704 C716 1.260 . S
Mg705 O704 2.072 . S
Mg705 O706 2.099 . S
Mg705 O708 2.079 . S
Mg705 O709 2.072 . S
Mg705 O711 2.099 . S
Mg705 O722 2.079 . S
O706 Mg703 2.180 . S
O706 Mg705 2.099 . S
O706 C717 1.279 . S
O707 Mg703 2.117 . S
O707 C717 1.250 . S
O708 Mg705 2.079 . S
O708 C718 1.264 . S
O709 Mg705 2.072 . S
O709 C719 1.260 . S
Mg710 O711 2.180 . S
Mg710 O712 2.030 . S
Mg710 O713 1.990 . S
Mg710 O714 2.117 . S
O711 Mg705 2.099 . S
O711 Mg710 2.180 . S
O711 C720 1.279 . S
O712 Mg710 2.030 . S
O712 C718 1.248 . S
O713 Mg710 1.990 . S
O713 C719 1.253 . S
O714 Mg710 2.117 . S
O714 C720 1.250 . S
C715 O721 1.248 . S
C715 O722 1.264 . S
C716 O702 1.253 . S
C716 O704 1.260 . S
C717 O706 1.279 . S
C717 O707 1.250 . S
C718 O708 1.264 . S
C718 O712 1.248 . S
C719 O709 1.260 . S
C719 O713 1.253 . S
C720 O711 1.279 . S
C720 O714 1.250 . S
O721 Mg703 2.030 . S
O721 C715 1.248 . S
O722 Mg705 2.079 . S
O722 C715 1.264 . S
O723 Mg724 1.990 . S
O723 C737 1.253 . S
Mg724 O723 1.990 . S
Mg724 O727 2.180 . S
Mg724 O728 2.117 . S
Mg724 O742 2.030 . S
O725 Mg726 2.072 . S
O725 C737 1.260 . S
Mg726 O725 2.072 . S
Mg726 O727 2.099 . S
Mg726 O729 2.079 . S
Mg726 O730 2.072 . S
Mg726 O732 2.099 . S
Mg726 O743 2.079 . S
O727 Mg724 2.180 . S
O727 Mg726 2.099 . S
O727 C738 1.279 . S
O728 Mg724 2.117 . S
O728 C738 1.250 . S
O729 Mg726 2.079 . S
O729 C739 1.264 . S
O730 Mg726 2.072 . S
O730 C740 1.260 . S
Mg731 O732 2.180 . S
Mg731 O733 2.030 . S
Mg731 O734 1.990 . S
Mg731 O735 2.117 . S
O732 Mg726 2.099 . S
O732 Mg731 2.180 . S
O732 C741 1.279 . S
O733 Mg731 2.030 . S
O733 C739 1.248 . S
O734 Mg731 1.990 . S
O734 C740 1.253 . S
O735 Mg731 2.117 . S
O735 C741 1.250 . S
C736 O742 1.248 . S
C736 O743 1.264 . S
C737 O723 1.253 . S
C737 O725 1.260 . S
C738 O727 1.279 . S
C738 O728 1.250 . S
C739 O729 1.264 . S
C739 O733 1.248 . S
C740 O730 1.260 . S
C740 O734 1.253 . S
C741 O732 1.279 . S
C741 O735 1.250 . S
O742 Mg724 2.030 . S
O742 C736 1.248 . S
O743 Mg726 2.079 . S
O743 C736 1.264 . S
O744 Mg745 1.990 . S
O744 C758 1.253 . S
Mg745 O744 1.990 . S
Mg745 O748 2.180 . S
Mg745 O749 2.117 . S
Mg745 O763 2.030 . S
O746 Mg747 2.072 . S
O746 C758 1.260 . S
Mg747 O746 2.072 . S
Mg747 O748 2.099 . S
Mg747 O750 2.079 . S
Mg747 O751 2.072 . S
Mg747 O753 2.099 . S
Mg747 O764 2.079 . S
O748 Mg745 2.180 . S
O748 Mg747 2.099 . S
O748 C759 1.279 . S
O749 Mg745 2.117 . S
O749 C759 1.250 . S
O750 Mg747 2.079 . S
O750 C760 1.264 . S
O751 Mg747 2.072 . S
O751 C761 1.260 . S
Mg752 O753 2.180 . S
Mg752 O754 2.030 . S
Mg752 O755 1.990 . S
Mg752 O756 2.117 . S
O753 Mg747 2.099 . S
O753 Mg752 2.180 . S
O753 C762 1.279 . S
O754 Mg752 2.030 . S
O754 C760 1.248 . S
O755 Mg752 1.990 . S
O755 C761 1.253 . S
O756 Mg752 2.117 . S
O756 C762 1.250 . S
C757 O763 1.248 . S
C757 O764 1.264 . S
C758 O744 1.253 . S
C758 O746 1.260 . S
C759 O748 1.279 . S
C759 O749 1.250 . S
C760 O750 1.264 . S
C760 O754 1.248 . S
C761 O751 1.260 . S
C761 O755 1.253 . S
C762 O753 1.279 . S
C762 O756 1.250 . S
O763 Mg745 2.030 . S
O763 C757 1.248 . S
O764 Mg747 2.079 . S
O764 C757 1.264 . S
C765 C766 1.369 . S
C765 C767 1.419 . S
C765 H769 0.930 . S
C766 C765 1.369 . S
C766 C775 1.441 . S
C767 C765 1.419 . S
C767 C768 1.363 . S
C767 H770 0.929 . S
C768 C767 1.363 . S
C768 C774 1.423 1_554 S
H769 C765 0.930 . S
H770 C767 0.929 . S
S771 N772 1.613 . S
S771 N773 1.610 . S
N772 S771 1.613 . S
N772 C775 1.337 1_556 S
N773 S771 1.610 . S
N773 C774 1.357 . S
C774 C768 1.423 1_556 S
C774 N773 1.357 . S
C774 C775 1.433 1_556 S
C775 C766 1.441 . S
C775 N772 1.337 1_554 S
C775 C774 1.433 1_554 S
C776 C777 1.369 . S
C776 C778 1.419 . S
C776 H780 0.930 . S
C777 C776 1.369 . S
C777 C786 1.406 1_554 S
C778 C776 1.419 . S
C778 C779 1.363 . S
C778 H781 0.929 . S
C779 C778 1.363 . S
C779 C785 1.428 1_554 S
H780 C776 0.930 . S
H781 C778 0.929 . S
S782 N783 1.613 . S
S782 N784 1.610 . S
N783 S782 1.613 . S
N783 C786 1.373 . S
N784 S782 1.610 . S
N784 C785 1.351 . S
C785 C779 1.428 1_556 S
C785 N784 1.351 . S
C785 C786 1.437 . S
C786 C777 1.406 1_556 S
C786 N783 1.373 . S
C786 C785 1.437 . S
C787 C788 1.369 . S
C787 C789 1.419 . S
C787 H791 0.930 1_554 S
C788 C787 1.369 . S
C788 C797 1.429 . S
C789 C787 1.419 . S
C789 C790 1.363 . S
C789 H792 0.929 1_554 S
C790 C789 1.363 . S
C790 C796 1.428 . S
H791 C787 0.930 1_556 S
H792 C789 0.929 1_556 S
S793 N794 1.613 . S
S793 N795 1.610 . S
N794 S793 1.613 . S
N794 C797 1.350 . S
N795 S793 1.610 . S
N795 C796 1.351 . S
C796 C790 1.428 . S
C796 N795 1.351 . S
C796 C797 1.434 . S
C797 C788 1.429 . S
C797 N794 1.350 . S
C797 C796 1.434 . S
C798 C799 1.369 1_554 S
C798 C800 1.419 . S
C798 H802 0.930 . S
C799 C798 1.369 1_556 S
C799 C808 1.429 . S
C800 C798 1.419 . S
C800 C801 1.363 1_554 S
C800 H803 0.929 . S
C801 C800 1.363 1_556 S
C801 C807 1.428 . S
H802 C798 0.930 . S
H803 C800 0.929 . S
S804 N805 1.613 . S
S804 N806 1.610 . S
N805 S804 1.613 . S
N805 C808 1.350 . S
N806 S804 1.610 . S
N806 C807 1.351 . S
C807 C801 1.428 . S
C807 N806 1.351 . S
C807 C808 1.434 . S
C808 C799 1.429 . S
C808 N805 1.350 . S
C808 C807 1.434 . S
C809 C810 1.369 1_554 S
C809 C811 1.419 . S
C809 H813 0.930 . S
C810 C809 1.369 1_556 S
C810 C819 1.429 . S
C811 C809 1.419 . S
C811 C812 1.363 1_554 S
C811 H814 0.929 . S
C812 C811 1.363 1_556 S
C812 C818 1.428 . S
H813 C809 0.930 . S
H814 C811 0.929 . S
S815 N816 1.613 . S
S815 N817 1.610 . S
N816 S815 1.613 . S
N816 C819 1.350 . S
N817 S815 1.610 . S
N817 C818 1.351 . S
C818 C812 1.428 . S
C818 N817 1.351 . S
C818 C819 1.434 . S
C819 C810 1.429 . S
C819 N816 1.350 . S
C819 C818 1.434 . S
C820 C821 1.369 . S
C820 C822 1.419 . S
C820 H824 0.930 . S
C821 C820 1.369 . S
C821 C830 1.429 . S
C822 C820 1.419 . S
C822 C823 1.363 . S
C822 H825 0.933 . S
C823 C822 1.363 . S
C823 C829 1.428 . S
H824 C820 0.930 . S
H825 C822 0.933 . S
S826 N827 1.613 . S
S826 N828 1.610 . S
N827 S826 1.613 . S
N827 C830 1.350 . S
N828 S826 1.610 . S
N828 C829 1.351 . S
C829 C823 1.428 . S
C829 N828 1.351 . S
C829 C830 1.434 . S
C830 C821 1.429 . S
C830 N827 1.350 . S
C830 C829 1.434 . S
C831 C832 1.369 . S
C831 C833 1.419 . S
C831 H835 0.930 . S
C832 C831 1.369 . S
C832 C841 1.429 . S
C833 C831 1.419 . S
C833 C834 1.363 . S
C833 H836 0.937 . S
C834 C833 1.363 . S
C834 C840 1.428 . S
H835 C831 0.930 . S
H836 C833 0.937 . S
S837 N838 1.613 . S
S837 N839 1.610 . S
N838 S837 1.613 . S
N838 C841 1.350 . S
N839 S837 1.610 . S
N839 C840 1.351 . S
C840 C834 1.428 . S
C840 N839 1.351 . S
C840 C841 1.434 . S
C841 C832 1.429 . S
C841 N838 1.350 . S
C841 C840 1.434 . S
C842 C843 1.369 1_554 S
C842 C844 1.419 . S
C842 H846 0.930 . S
C843 C842 1.369 1_556 S
C843 C852 1.429 . S
C844 C842 1.419 . S
C844 C845 1.363 1_554 S
C844 H847 0.929 . S
C845 C844 1.363 1_556 S
C845 C851 1.428 . S
H846 C842 0.930 . S
H847 C844 0.929 . S
S848 N849 1.613 . S
S848 N850 1.610 . S
N849 S848 1.613 . S
N849 C852 1.350 . S
N850 S848 1.610 . S
N850 C851 1.351 . S
C851 C845 1.428 . S
C851 N850 1.351 . S
C851 C852 1.434 . S
C852 C843 1.429 . S
C852 N849 1.350 . S
C852 C851 1.434 . S
C853 C854 1.369 . S
C853 C855 1.419 . S
C853 H857 0.930 . S
C854 C853 1.369 . S
C854 C863 1.429 1_556 S
C855 C853 1.419 . S
C855 C856 1.363 . S
C855 H858 0.929 . S
C856 C855 1.363 . S
C856 C862 1.428 1_556 S
H857 C853 0.930 . S
H858 C855 0.929 . S
S859 N860 1.613 . S
S859 N861 1.610 . S
N860 S859 1.613 . S
N860 C863 1.350 . S
N861 S859 1.610 . S
N861 C862 1.351 . S
C862 C856 1.428 1_554 S
C862 N861 1.351 . S
C862 C863 1.434 . S
C863 C854 1.429 1_554 S
C863 N860 1.350 . S
C863 C862 1.434 . S
C864 C865 1.369 . S
C864 C866 1.419 . S
C864 H868 0.930 . S
C865 C864 1.369 . S
C865 C874 1.429 1_554 S
C866 C864 1.419 . S
C866 C867 1.363 . S
C866 H869 0.929 . S
C867 C866 1.363 . S
C867 C873 1.428 1_554 S
H868 C864 0.930 . S
H869 C866 0.929 . S
S870 N871 1.613 . S
S870 N872 1.610 . S
N871 S870 1.613 . S
N871 C874 1.350 . S
N872 S870 1.610 . S
N872 C873 1.351 . S
C873 C867 1.428 1_556 S
C873 N872 1.351 . S
C873 C874 1.434 . S
C874 C865 1.429 1_556 S
C874 N871 1.350 . S
C874 C873 1.434 . S
C875 C876 1.369 . S
C875 C877 1.419 . S
C875 H879 0.930 . S
C876 C875 1.369 . S
C876 C885 1.429 . S
C877 C875 1.419 . S
C877 C878 1.363 . S
C877 H880 0.929 . S
C878 C877 1.363 . S
C878 C884 1.428 . S
H879 C875 0.930 . S
H880 C877 0.929 . S
S881 N882 1.613 . S
S881 N883 1.610 . S
N882 S881 1.613 . S
N882 C885 1.350 1_556 S
N883 S881 1.610 . S
N883 C884 1.351 1_556 S
C884 C878 1.428 . S
C884 N883 1.351 1_554 S
C884 C885 1.434 . S
C885 C876 1.429 . S
C885 N882 1.350 1_554 S
C885 C884 1.434 . S
C886 C887 1.369 1_556 S
C886 C888 1.419 . S
C886 H890 0.930 . S
C887 C886 1.369 1_554 S
C887 C896 1.429 . S
C888 C886 1.419 . S
C888 C889 1.363 1_556 S
C888 H891 0.929 . S
C889 C888 1.363 1_554 S
C889 C895 1.428 . S
H890 C886 0.930 . S
H891 C888 0.929 . S
S892 N893 1.613 . S
S892 N894 1.610 . S
N893 S892 1.613 . S
N893 C896 1.350 . S
N894 S892 1.610 . S
N894 C895 1.351 . S
C895 C889 1.428 . S
C895 N894 1.351 . S
C895 C896 1.434 . S
C896 C887 1.429 . S
C896 N893 1.350 . S
C896 C895 1.434 . S
C897 C898 1.365 1_455 S
C897 C899 1.419 . S
C897 H901 0.930 . S
C898 C897 1.365 1_655 S
C898 C907 1.397 1_655 S
C899 C897 1.419 . S
C899 C900 1.363 . S
C899 H902 0.929 . S
C900 C899 1.363 . S
C900 C906 1.428 . S
H901 C897 0.930 . S
H902 C899 0.929 . S
S903 N904 1.613 . S
S903 N905 1.610 . S
N904 S903 1.613 . S
N904 C907 1.350 . S
N905 S903 1.610 . S
N905 C906 1.351 . S
C906 C900 1.428 . S
C906 N905 1.351 . S
C906 C907 1.434 . S
C907 C898 1.397 1_455 S
C907 N904 1.350 . S
C907 C906 1.434 . S
C908 C909 1.369 . S
C908 C910 1.419 . S
C908 H912 0.930 . S
C909 C908 1.369 . S
C909 C918 1.429 . S
C910 C908 1.419 . S
C910 C911 1.363 . S
C910 H913 0.929 . S
C911 C910 1.363 . S
C911 C917 1.428 . S
H912 C908 0.930 . S
H913 C910 0.929 . S
S914 N915 1.613 . S
S914 N916 1.610 . S
N915 S914 1.613 . S
N915 C918 1.350 . S
N916 S914 1.610 . S
N916 C917 1.351 . S
C917 C911 1.428 . S
C917 N916 1.351 . S
C917 C918 1.434 . S
C918 C909 1.429 . S
C918 N915 1.350 . S
C918 C917 1.434 . S
C919 C920 1.369 1_565 S
C919 C921 1.419 . S
C919 H923 0.930 1_565 S
C920 C919 1.369 1_545 S
C920 C929 1.429 1_545 S
C921 C919 1.419 . S
C921 C922 1.363 . S
C921 H924 0.929 . S
C922 C921 1.363 . S
C922 C928 1.428 . S
H923 C919 0.930 1_545 S
H924 C921 0.929 . S
S925 N926 1.613 . S
S925 N927 1.610 . S
N926 S925 1.613 . S
N926 C929 1.350 . S
N927 S925 1.610 . S
N927 C928 1.351 . S
C928 C922 1.428 . S
C928 N927 1.351 . S
C928 C929 1.434 . S
C929 C920 1.429 1_565 S
C929 N926 1.350 . S
C929 C928 1.434 . S
C930 C931 1.369 . S
C930 C932 1.419 . S
C930 H934 0.930 . S
C931 C930 1.369 . S
C931 C940 1.429 . S
C932 C930 1.419 . S
C932 C933 1.363 . S
C932 H935 0.929 . S
C933 C932 1.363 . S
C933 C939 1.428 . S
H934 C930 0.930 . S
H935 C932 0.929 . S
S936 N937 1.613 . S
S936 N938 1.610 . S
N937 S936 1.613 . S
N937 C940 1.350 . S
N938 S936 1.610 . S
N938 C939 1.351 . S
C939 C933 1.428 . S
C939 N938 1.351 . S
C939 C940 1.434 . S
C940 C931 1.429 . S
C940 N937 1.350 . S
C940 C939 1.434 . S
C941 C942 1.369 . S
C941 C943 1.419 . S
C941 H945 0.930 . S
C942 C941 1.369 . S
C942 C951 1.429 . S
C943 C941 1.419 . S
C943 C944 1.363 . S
C943 H946 0.929 . S
C944 C943 1.363 . S
C944 C950 1.428 . S
H945 C941 0.930 . S
H946 C943 0.929 . S
S947 N948 1.613 . S
S947 N949 1.610 . S
N948 S947 1.613 . S
N948 C951 1.350 . S
N949 S947 1.610 . S
N949 C950 1.351 . S
C950 C944 1.428 . S
C950 N949 1.351 . S
C950 C951 1.434 . S
C951 C942 1.429 . S
C951 N948 1.350 . S
C951 C950 1.434 . S
C952 C953 1.369 . S
C952 C954 1.419 . S
C952 H956 0.930 . S
C953 C952 1.369 . S
C953 C962 1.429 . S
C954 C952 1.419 . S
C954 C955 1.363 . S
C954 H957 0.929 . S
C955 C954 1.363 . S
C955 C961 1.428 . S
H956 C952 0.930 . S
H957 C954 0.929 . S
S958 N959 1.613 . S
S958 N960 1.610 . S
N959 S958 1.613 . S
N959 C962 1.350 . S
N960 S958 1.610 . S
N960 C961 1.351 . S
C961 C955 1.428 . S
C961 N960 1.351 . S
C961 C962 1.434 . S
C962 C953 1.429 . S
C962 N959 1.350 . S
C962 C961 1.434 . S
C963 C964 1.369 . S
C963 C965 1.419 . S
C963 H967 0.930 . S
C964 C963 1.369 . S
C964 C973 1.429 . S
C965 C963 1.419 . S
C965 C966 1.363 . S
C965 H968 0.929 . S
C966 C965 1.363 . S
C966 C972 1.428 . S
H967 C963 0.930 . S
H968 C965 0.929 . S
S969 N970 1.613 . S
S969 N971 1.610 . S
N970 S969 1.613 . S
N970 C973 1.350 . S
N971 S969 1.610 . S
N971 C972 1.351 . S
C972 C966 1.428 . S
C972 N971 1.351 . S
C972 C973 1.434 . S
C973 C964 1.429 . S
C973 N970 1.350 . S
C973 C972 1.434 . S
C974 C975 1.369 . S
C974 C976 1.419 . S
C974 H978 0.930 . S
C975 C974 1.369 . S
C975 C984 1.429 . S
C976 C974 1.419 . S
C976 C977 1.363 . S
C976 H979 0.929 . S
C977 C976 1.363 . S
C977 C983 1.428 . S
H978 C974 0.930 . S
H979 C976 0.929 . S
S980 N981 1.613 . S
S980 N982 1.610 . S
N981 S980 1.613 . S
N981 C984 1.350 . S
N982 S980 1.610 . S
N982 C983 1.351 . S
C983 C977 1.428 . S
C983 N982 1.351 . S
C983 C984 1.434 . S
C984 C975 1.429 . S
C984 N981 1.350 . S
C984 C983 1.434 . S
C985 C986 1.369 . S
C985 C987 1.419 . S
C985 H989 0.930 . S
C986 C985 1.369 . S
C986 C995 1.429 . S
C987 C985 1.419 . S
C987 C988 1.363 . S
C987 H990 0.929 . S
C988 C987 1.363 . S
C988 C994 1.428 . S
H989 C985 0.930 . S
H990 C987 0.929 . S
S991 N992 1.613 . S
S991 N993 1.610 . S
N992 S991 1.613 . S
N992 C995 1.350 . S
N993 S991 1.610 . S
N993 C994 1.351 . S
C994 C988 1.428 . S
C994 N993 1.351 . S
C994 C995 1.434 . S
C995 C986 1.429 . S
C995 N992 1.350 . S
C995 C994 1.434 . S
C996 C997 1.369 1_565 S
C996 C998 1.419 . S
C996 H1000 0.930 . S
C997 C996 1.369 1_545 S
C997 C1006 1.429 1_545 S
C998 C996 1.419 . S
C998 C999 1.363 . S
C998 H1001 0.929 . S
C999 C998 1.363 . S
C999 C1005 1.428 . S
H1000 C996 0.930 . S
H1001 C998 0.929 . S
S1002 N1003 1.624 . S
S1002 N1004 1.610 . S
N1003 S1002 1.624 . S
N1003 C1006 1.351 . S
N1004 S1002 1.610 . S
N1004 C1005 1.351 . S
C1005 C999 1.428 . S
C1005 N1004 1.351 . S
C1005 C1006 1.434 . S
C1006 C997 1.429 1_565 S
C1006 N1003 1.351 . S
C1006 C1005 1.434 . S
C1007 C1008 1.369 1_455 S
C1007 C1009 1.419 . S
C1007 H1011 0.935 . S
C1008 C1007 1.369 1_655 S
C1008 C1017 1.429 1_655 S
C1009 C1007 1.419 . S
C1009 C1010 1.363 . S
C1009 H1012 0.929 . S
C1010 C1009 1.363 . S
C1010 C1016 1.428 . S
H1011 C1007 0.935 . S
H1012 C1009 0.929 . S
S1013 N1014 1.592 1_455 S
S1013 N1015 1.610 . S
N1014 S1013 1.592 1_655 S
N1014 C1017 1.353 1_655 S
N1015 S1013 1.610 . S
N1015 C1016 1.351 . S
C1016 C1010 1.428 . S
C1016 N1015 1.351 . S
C1016 C1017 1.434 . S
C1017 C1008 1.429 1_455 S
C1017 N1014 1.353 1_455 S
C1017 C1016 1.434 . S
C1018 C1019 1.369 . S
C1018 C1020 1.419 . S
C1018 H1022 0.930 . S
C1019 C1018 1.369 . S
C1019 C1028 1.429 . S
C1020 C1018 1.419 . S
C1020 C1021 1.363 . S
C1020 H1023 0.929 . S
C1021 C1020 1.363 . S
C1021 C1027 1.428 . S
H1022 C1018 0.930 . S
H1023 C1020 0.929 . S
S1024 N1025 1.613 . S
S1024 N1026 1.610 . S
N1025 S1024 1.613 . S
N1025 C1028 1.350 . S
N1026 S1024 1.610 . S
N1026 C1027 1.351 . S
C1027 C1021 1.428 . S
C1027 N1026 1.351 . S
C1027 C1028 1.434 . S
C1028 C1019 1.429 . S
C1028 N1025 1.350 . S
C1028 C1027 1.434 . S
C1029 C1030 1.369 . S
C1029 C1031 1.419 . S
C1029 H1033 0.930 . S
C1030 C1029 1.369 . S
C1030 C1039 1.429 . S
C1031 C1029 1.419 . S
C1031 C1032 1.363 . S
C1031 H1034 0.929 . S
C1032 C1031 1.363 . S
C1032 C1038 1.428 . S
H1033 C1029 0.930 . S
H1034 C1031 0.929 . S
S1035 N1036 1.613 . S
S1035 N1037 1.610 . S
N1036 S1035 1.613 . S
N1036 C1039 1.350 . S
N1037 S1035 1.610 . S
N1037 C1038 1.351 . S
C1038 C1032 1.428 . S
C1038 N1037 1.351 . S
C1038 C1039 1.434 . S
C1039 C1030 1.429 . S
C1039 N1036 1.350 . S
C1039 C1038 1.434 . S
C1040 C1041 1.369 . S
C1040 C1042 1.419 . S
C1040 H1044 0.930 . S
C1041 C1040 1.369 . S
C1041 C1050 1.429 . S
C1042 C1040 1.419 . S
C1042 C1043 1.363 . S
C1042 H1045 0.929 . S
C1043 C1042 1.363 . S
C1043 C1049 1.428 . S
H1044 C1040 0.930 . S
H1045 C1042 0.929 . S
S1046 N1047 1.613 . S
S1046 N1048 1.610 . S
N1047 S1046 1.613 . S
N1047 C1050 1.350 . S
N1048 S1046 1.610 . S
N1048 C1049 1.351 . S
C1049 C1043 1.428 . S
C1049 N1048 1.351 . S
C1049 C1050 1.434 . S
C1050 C1041 1.429 . S
C1050 N1047 1.350 . S
C1050 C1049 1.434 . S
C1051 C1052 1.369 . S
C1051 C1053 1.419 . S
C1051 H1055 0.930 . S
C1052 C1051 1.369 . S
C1052 C1061 1.429 . S
C1053 C1051 1.419 . S
C1053 C1054 1.363 . S
C1053 H1056 0.929 . S
C1054 C1053 1.363 . S
C1054 C1060 1.428 . S
H1055 C1051 0.930 . S
H1056 C1053 0.929 . S
S1057 N1058 1.613 . S
S1057 N1059 1.610 . S
N1058 S1057 1.613 . S
N1058 C1061 1.350 . S
N1059 S1057 1.610 . S
N1059 C1060 1.351 . S
C1060 C1054 1.428 . S
C1060 N1059 1.351 . S
C1060 C1061 1.434 . S
C1061 C1052 1.429 . S
C1061 N1058 1.350 . S
C1061 C1060 1.434 . S
C1062 C1063 1.369 1_545 S
C1062 C1064 1.419 . S
C1062 H1066 0.930 . S
C1063 C1062 1.369 1_565 S
C1063 C1072 1.429 1_565 S
C1064 C1062 1.419 . S
C1064 C1065 1.363 . S
C1064 H1067 0.929 . S
C1065 C1064 1.363 . S
C1065 C1071 1.428 . S
H1066 C1062 0.930 . S
H1067 C1064 0.929 . S
S1068 N1069 1.613 1_545 S
S1068 N1070 1.610 . S
N1069 S1068 1.613 1_565 S
N1069 C1072 1.350 1_565 S
N1070 S1068 1.610 . S
N1070 C1071 1.351 . S
C1071 C1065 1.428 . S
C1071 N1070 1.351 . S
C1071 C1072 1.434 . S
C1072 C1063 1.429 1_545 S
C1072 N1069 1.350 1_545 S
C1072 C1071 1.434 . S
C1073 C1074 1.369 1_655 S
C1073 C1075 1.419 . S
C1073 H1077 0.930 . S
C1074 C1073 1.369 1_455 S
C1074 C1083 1.429 1_455 S
C1075 C1073 1.419 . S
C1075 C1076 1.363 . S
C1075 H1078 0.929 . S
C1076 C1075 1.363 . S
C1076 C1082 1.428 . S
H1077 C1073 0.930 . S
H1078 C1075 0.929 . S
S1079 N1080 1.613 1_655 S
S1079 N1081 1.610 . S
N1080 S1079 1.613 1_455 S
N1080 C1083 1.350 1_455 S
N1081 S1079 1.610 . S
N1081 C1082 1.351 . S
C1082 C1076 1.428 . S
C1082 N1081 1.351 . S
C1082 C1083 1.434 . S
C1083 C1074 1.429 1_655 S
C1083 N1080 1.350 1_655 S
C1083 C1082 1.434 . S
C1084 C1085 1.369 . S
C1084 C1086 1.419 . S
C1084 H1088 0.930 . S
C1085 C1084 1.369 . S
C1085 C1094 1.429 . S
C1086 C1084 1.419 . S
C1086 C1087 1.363 . S
C1086 H1089 0.929 . S
C1087 C1086 1.363 . S
C1087 C1093 1.428 . S
H1088 C1084 0.930 . S
H1089 C1086 0.929 . S
S1090 N1091 1.613 . S
S1090 N1092 1.610 . S
N1091 S1090 1.613 . S
N1091 C1094 1.350 . S
N1092 S1090 1.610 . S
N1092 C1093 1.351 . S
C1093 C1087 1.428 . S
C1093 N1092 1.351 . S
C1093 C1094 1.434 . S
C1094 C1085 1.429 . S
C1094 N1091 1.350 . S
C1094 C1093 1.434 . S
C1095 C1096 1.369 1_655 S
C1095 C1097 1.419 . S
C1095 H1099 0.930 1_655 S
C1096 C1095 1.369 1_455 S
C1096 C1105 1.429 1_455 S
C1097 C1095 1.419 . S
C1097 C1098 1.363 . S
C1097 H1100 0.929 . S
C1098 C1097 1.363 . S
C1098 C1104 1.428 . S
H1099 C1095 0.930 1_455 S
H1100 C1097 0.929 . S
S1101 N1102 1.613 1_655 S
S1101 N1103 1.610 . S
N1102 S1101 1.613 1_455 S
N1102 C1105 1.350 1_455 S
N1103 S1101 1.610 . S
N1103 C1104 1.351 . S
C1104 C1098 1.428 . S
C1104 N1103 1.351 . S
C1104 C1105 1.434 . S
C1105 C1096 1.429 1_655 S
C1105 N1102 1.350 1_655 S
C1105 C1104 1.434 . S
C1106 C1107 1.369 . S
C1106 C1108 1.419 . S
C1106 H1110 0.930 . S
C1107 C1106 1.369 . S
C1107 C1116 1.429 . S
C1108 C1106 1.419 . S
C1108 C1109 1.363 . S
C1108 H1111 0.929 . S
C1109 C1108 1.363 . S
C1109 C1115 1.428 . S
H1110 C1106 0.930 . S
H1111 C1108 0.929 . S
S1112 N1113 1.613 . S
S1112 N1114 1.610 . S
N1113 S1112 1.613 . S
N1113 C1116 1.350 . S
N1114 S1112 1.610 . S
N1114 C1115 1.351 . S
C1115 C1109 1.428 . S
C1115 N1114 1.351 . S
C1115 C1116 1.434 . S
C1116 C1107 1.429 . S
C1116 N1113 1.350 . S
C1116 C1115 1.434 . S
C1117 C1118 1.369 1_545 S
C1117 C1119 1.419 . S
C1117 H1121 0.930 . S
C1118 C1117 1.369 1_565 S
C1118 C1127 1.429 1_565 S
C1119 C1117 1.419 . S
C1119 C1120 1.363 . S
C1119 H1122 0.929 . S
C1120 C1119 1.363 . S
C1120 C1126 1.428 . S
H1121 C1117 0.930 . S
H1122 C1119 0.929 . S
S1123 N1124 1.613 . S
S1123 N1125 1.610 . S
N1124 S1123 1.613 . S
N1124 C1127 1.350 . S
N1125 S1123 1.610 . S
N1125 C1126 1.351 . S
C1126 C1120 1.428 . S
C1126 N1125 1.351 . S
C1126 C1127 1.434 . S
C1127 C1118 1.429 1_545 S
C1127 N1124 1.350 . S
C1127 C1126 1.434 . S
C1128 C1129 1.369 . S
C1128 C1130 1.419 . S
C1128 H1132 0.930 . S
C1129 C1128 1.369 . S
C1129 C1138 1.429 . S
C1130 C1128 1.419 . S
C1130 C1131 1.363 . S
C1130 H1133 0.929 . S
C1131 C1130 1.363 . S
C1131 C1137 1.428 . S
H1132 C1128 0.930 . S
H1133 C1130 0.929 . S
S1134 N1135 1.613 . S
S1134 N1136 1.610 . S
N1135 S1134 1.613 . S
N1135 C1138 1.350 . S
N1136 S1134 1.610 . S
N1136 C1137 1.351 . S
C1137 C1131 1.428 . S
C1137 N1136 1.351 . S
C1137 C1138 1.434 . S
C1138 C1129 1.429 . S
C1138 N1135 1.350 . S
C1138 C1137 1.434 . S
C1139 C1140 1.369 . S
C1139 C1141 1.419 . S
C1139 H1143 0.930 . S
C1140 C1139 1.369 . S
C1140 C1149 1.429 . S
C1141 C1139 1.419 . S
C1141 C1142 1.363 . S
C1141 H1144 0.929 . S
C1142 C1141 1.363 . S
C1142 C1148 1.428 . S
H1143 C1139 0.930 . S
H1144 C1141 0.929 . S
S1145 N1146 1.613 . S
S1145 N1147 1.610 . S
N1146 S1145 1.613 . S
N1146 C1149 1.350 . S
N1147 S1145 1.610 . S
N1147 C1148 1.351 . S
C1148 C1142 1.428 . S
C1148 N1147 1.351 . S
C1148 C1149 1.434 . S
C1149 C1140 1.429 . S
C1149 N1146 1.350 . S
C1149 C1148 1.434 . S
C1150 C1151 1.369 . S
C1150 C1152 1.419 . S
C1150 H1154 0.930 . S
C1151 C1150 1.369 . S
C1151 C1160 1.429 . S
C1152 C1150 1.419 . S
C1152 C1153 1.363 . S
C1152 H1155 0.929 . S
C1153 C1152 1.363 . S
C1153 C1159 1.428 . S
H1154 C1150 0.930 . S
H1155 C1152 0.929 . S
S1156 N1157 1.613 . S
S1156 N1158 1.610 . S
N1157 S1156 1.613 . S
N1157 C1160 1.350 . S
N1158 S1156 1.610 . S
N1158 C1159 1.351 . S
C1159 C1153 1.428 . S
C1159 N1158 1.351 . S
C1159 C1160 1.434 . S
C1160 C1151 1.429 . S
C1160 N1157 1.350 . S
C1160 C1159 1.434 . S
C1161 C1162 1.369 . S
C1161 C1163 1.419 . S
C1161 H1165 0.930 . S
C1162 C1161 1.369 . S
C1162 C1171 1.429 . S
C1163 C1161 1.419 . S
C1163 C1164 1.363 . S
C1163 H1166 0.921 . S
C1164 C1163 1.363 . S
C1164 C1170 1.428 . S
H1165 C1161 0.930 . S
H1166 C1163 0.921 . S
S1167 N1168 1.613 . S
S1167 N1169 1.610 . S
N1168 S1167 1.613 . S
N1168 C1171 1.350 . S
N1169 S1167 1.610 . S
N1169 C1170 1.351 . S
C1170 C1164 1.428 . S
C1170 N1169 1.351 . S
C1170 C1171 1.434 . S
C1171 C1162 1.429 . S
C1171 N1168 1.350 . S
C1171 C1170 1.434 . S
C1172 C1173 1.363 1_655 S
C1172 C1174 1.421 . S
C1172 H1176 0.934 . S
C1173 C1172 1.363 1_455 S
C1173 C1182 1.429 . S
C1174 C1172 1.421 . S
C1174 C1175 1.363 1_655 S
C1174 H1177 0.929 . S
C1175 C1174 1.363 1_455 S
C1175 C1181 1.428 . S
H1176 C1172 0.934 . S
H1177 C1174 0.929 . S
S1178 N1179 1.613 . S
S1178 N1180 1.610 . S
N1179 S1178 1.613 . S
N1179 C1182 1.350 . S
N1180 S1178 1.610 . S
N1180 C1181 1.351 . S
C1181 C1175 1.428 . S
C1181 N1180 1.351 . S
C1181 C1182 1.434 . S
C1182 C1173 1.429 . S
C1182 N1179 1.350 . S
C1182 C1181 1.434 . S
C1183 C1184 1.369 . S
C1183 C1185 1.419 . S
C1183 H1187 0.930 . S
C1184 C1183 1.369 . S
C1184 C1193 1.429 . S
C1185 C1183 1.419 . S
C1185 C1186 1.363 . S
C1185 H1188 0.929 . S
C1186 C1185 1.363 . S
C1186 C1192 1.428 . S
H1187 C1183 0.930 . S
H1188 C1185 0.929 . S
S1189 N1190 1.613 . S
S1189 N1191 1.610 . S
N1190 S1189 1.613 . S
N1190 C1193 1.350 . S
N1191 S1189 1.610 . S
N1191 C1192 1.351 . S
C1192 C1186 1.428 . S
C1192 N1191 1.351 . S
C1192 C1193 1.434 . S
C1193 C1184 1.429 . S
C1193 N1190 1.350 . S
C1193 C1192 1.434 . S
C1194 C1195 1.369 . S
C1194 C1196 1.419 . S
C1194 H1198 0.930 . S
C1195 C1194 1.369 . S
C1195 C1204 1.429 . S
C1196 C1194 1.419 . S
C1196 C1197 1.363 . S
C1196 H1199 0.929 . S
C1197 C1196 1.363 . S
C1197 C1203 1.428 . S
H1198 C1194 0.930 . S
H1199 C1196 0.929 . S
S1200 N1201 1.613 . S
S1200 N1202 1.610 . S
N1201 S1200 1.613 . S
N1201 C1204 1.350 . S
N1202 S1200 1.610 . S
N1202 C1203 1.351 . S
C1203 C1197 1.428 . S
C1203 N1202 1.351 . S
C1203 C1204 1.434 . S
C1204 C1195 1.429 . S
C1204 N1201 1.350 . S
C1204 C1203 1.434 . S
C1205 C1206 1.369 . S
C1205 C1207 1.419 . S
C1205 H1209 0.930 . S
C1206 C1205 1.369 . S
C1206 C1215 1.429 . S
C1207 C1205 1.419 . S
C1207 C1208 1.363 . S
C1207 H1210 0.929 . S
C1208 C1207 1.363 . S
C1208 C1214 1.428 . S
H1209 C1205 0.930 . S
H1210 C1207 0.929 . S
S1211 N1212 1.613 . S
S1211 N1213 1.610 . S
N1212 S1211 1.613 . S
N1212 C1215 1.350 . S
N1213 S1211 1.610 . S
N1213 C1214 1.351 . S
C1214 C1208 1.428 . S
C1214 N1213 1.351 . S
C1214 C1215 1.434 . S
C1215 C1206 1.429 . S
C1215 N1212 1.350 . S
C1215 C1214 1.434 . S
C1216 C1217 1.369 . S
C1216 C1218 1.419 . S
C1216 H1220 0.930 . S
C1217 C1216 1.369 . S
C1217 C1226 1.429 1_545 S
C1218 C1216 1.419 . S
C1218 C1219 1.363 . S
C1218 H1221 0.929 . S
C1219 C1218 1.363 . S
C1219 C1225 1.428 1_545 S
H1220 C1216 0.930 . S
H1221 C1218 0.929 . S
S1222 N1223 1.613 . S
S1222 N1224 1.610 . S
N1223 S1222 1.613 . S
N1223 C1226 1.350 . S
N1224 S1222 1.610 . S
N1224 C1225 1.351 . S
C1225 C1219 1.428 1_565 S
C1225 N1224 1.351 . S
C1225 C1226 1.434 . S
C1226 C1217 1.429 1_565 S
C1226 N1223 1.350 . S
C1226 C1225 1.434 . S
C1227 C1228 1.369 . S
C1227 C1229 1.419 . S
C1227 H1231 0.930 . S
C1228 C1227 1.369 . S
C1228 C1237 1.429 . S
C1229 C1227 1.419 . S
C1229 C1230 1.363 . S
C1229 H1232 0.929 . S
C1230 C1229 1.363 . S
C1230 C1236 1.428 . S
H1231 C1227 0.930 . S
H1232 C1229 0.929 . S
S1233 N1234 1.613 . S
S1233 N1235 1.610 . S
N1234 S1233 1.613 . S
N1234 C1237 1.350 . S
N1235 S1233 1.610 . S
N1235 C1236 1.351 . S
C1236 C1230 1.428 . S
C1236 N1235 1.351 . S
C1236 C1237 1.434 . S
C1237 C1228 1.429 . S
C1237 N1234 1.350 . S
C1237 C1236 1.434 . S
C1238 C1239 1.369 . S
C1238 C1240 1.419 . S
C1238 H1242 0.930 . S
C1239 C1238 1.369 . S
C1239 C1248 1.429 . S
C1240 C1238 1.419 . S
C1240 C1241 1.363 . S
C1240 H1243 0.929 . S
C1241 C1240 1.363 . S
C1241 C1247 1.428 . S
H1242 C1238 0.930 . S
H1243 C1240 0.929 . S
S1244 N1245 1.613 . S
S1244 N1246 1.610 . S
N1245 S1244 1.613 . S
N1245 C1248 1.350 . S
N1246 S1244 1.610 . S
N1246 C1247 1.351 . S
C1247 C1241 1.428 . S
C1247 N1246 1.351 . S
C1247 C1248 1.434 . S
C1248 C1239 1.429 . S
C1248 N1245 1.350 . S
C1248 C1247 1.434 . S
C1249 C1250 1.369 . S
C1249 C1251 1.419 . S
C1249 H1253 0.930 . S
C1250 C1249 1.369 . S
C1250 C1259 1.429 . S
C1251 C1249 1.419 . S
C1251 C1252 1.363 . S
C1251 H1254 0.929 . S
C1252 C1251 1.363 . S
C1252 C1258 1.428 . S
H1253 C1249 0.930 . S
H1254 C1251 0.929 . S
S1255 N1256 1.613 . S
S1255 N1257 1.610 . S
N1256 S1255 1.613 . S
N1256 C1259 1.350 . S
N1257 S1255 1.610 . S
N1257 C1258 1.351 . S
C1258 C1252 1.428 . S
C1258 N1257 1.351 . S
C1258 C1259 1.434 . S
C1259 C1250 1.429 . S
C1259 N1256 1.350 . S
C1259 C1258 1.434 . S
C1260 C1261 1.369 . S
C1260 C1262 1.419 . S
C1260 H1264 0.930 . S
C1261 C1260 1.369 . S
C1261 C1270 1.429 . S
C1262 C1260 1.419 . S
C1262 C1263 1.363 . S
C1262 H1265 0.929 . S
C1263 C1262 1.363 . S
C1263 C1269 1.428 . S
H1264 C1260 0.930 . S
H1265 C1262 0.929 . S
S1266 N1267 1.613 . S
S1266 N1268 1.610 . S
N1267 S1266 1.613 . S
N1267 C1270 1.350 . S
N1268 S1266 1.610 . S
N1268 C1269 1.351 . S
C1269 C1263 1.428 . S
C1269 N1268 1.351 . S
C1269 C1270 1.434 . S
C1270 C1261 1.429 . S
C1270 N1267 1.350 . S
C1270 C1269 1.434 . S
C1271 C1272 1.369 . S
C1271 C1273 1.419 . S
C1271 H1275 0.930 . S
C1272 C1271 1.369 . S
C1272 C1281 1.429 . S
C1273 C1271 1.419 . S
C1273 C1274 1.363 . S
C1273 H1276 0.929 . S
C1274 C1273 1.363 . S
C1274 C1280 1.428 . S
H1275 C1271 0.930 . S
H1276 C1273 0.929 . S
S1277 N1278 1.613 . S
S1277 N1279 1.610 . S
N1278 S1277 1.613 . S
N1278 C1281 1.350 . S
N1279 S1277 1.610 . S
N1279 C1280 1.351 . S
C1280 C1274 1.428 . S
C1280 N1279 1.351 . S
C1280 C1281 1.434 . S
C1281 C1272 1.429 . S
C1281 N1278 1.350 . S
C1281 C1280 1.434 . S
C1282 C1283 1.369 . S
C1282 C1284 1.419 . S
C1282 H1286 0.930 . S
C1283 C1282 1.369 . S
C1283 C1292 1.429 . S
C1284 C1282 1.419 . S
C1284 C1285 1.363 . S
C1284 H1287 0.929 . S
C1285 C1284 1.363 . S
C1285 C1291 1.428 . S
H1286 C1282 0.930 . S
H1287 C1284 0.929 . S
S1288 N1289 1.613 . S
S1288 N1290 1.610 . S
N1289 S1288 1.613 . S
N1289 C1292 1.350 . S
N1290 S1288 1.610 . S
N1290 C1291 1.351 . S
C1291 C1285 1.428 . S
C1291 N1290 1.351 . S
C1291 C1292 1.434 . S
C1292 C1283 1.429 . S
C1292 N1289 1.350 . S
C1292 C1291 1.434 . S
C1293 C1294 1.369 . S
C1293 C1295 1.419 . S
C1293 H1297 0.930 . S
C1294 C1293 1.369 . S
C1294 C1303 1.429 . S
C1295 C1293 1.419 . S
C1295 C1296 1.363 . S
C1295 H1298 0.929 . S
C1296 C1295 1.363 . S
C1296 C1302 1.428 . S
H1297 C1293 0.930 . S
H1298 C1295 0.929 . S
S1299 N1300 1.613 . S
S1299 N1301 1.610 . S
N1300 S1299 1.613 . S
N1300 C1303 1.350 . S
N1301 S1299 1.610 . S
N1301 C1302 1.351 . S
C1302 C1296 1.428 . S
C1302 N1301 1.351 . S
C1302 C1303 1.434 . S
C1303 C1294 1.429 . S
C1303 N1300 1.350 . S
C1303 C1302 1.434 . S
C1304 C1305 1.369 . S
C1304 C1306 1.419 . S
C1304 H1308 0.930 . S
C1305 C1304 1.369 . S
C1305 C1314 1.429 . S
C1306 C1304 1.419 . S
C1306 C1307 1.363 . S
C1306 H1309 0.929 . S
C1307 C1306 1.363 . S
C1307 C1313 1.428 . S
H1308 C1304 0.930 . S
H1309 C1306 0.929 . S
S1310 N1311 1.613 . S
S1310 N1312 1.610 . S
N1311 S1310 1.613 . S
N1311 C1314 1.350 . S
N1312 S1310 1.610 . S
N1312 C1313 1.351 . S
C1313 C1307 1.428 . S
C1313 N1312 1.351 . S
C1313 C1314 1.434 . S
C1314 C1305 1.429 . S
C1314 N1311 1.350 . S
C1314 C1313 1.434 . S
C1315 C1316 1.369 . S
C1315 C1317 1.419 . S
C1315 H1319 0.930 . S
C1316 C1315 1.369 . S
C1316 C1325 1.429 . S
C1317 C1315 1.419 . S
C1317 C1318 1.363 . S
C1317 H1320 0.929 . S
C1318 C1317 1.363 . S
C1318 C1324 1.428 . S
H1319 C1315 0.930 . S
H1320 C1317 0.929 . S
S1321 N1322 1.613 . S
S1321 N1323 1.610 . S
N1322 S1321 1.613 . S
N1322 C1325 1.350 . S
N1323 S1321 1.610 . S
N1323 C1324 1.351 . S
C1324 C1318 1.428 . S
C1324 N1323 1.351 . S
C1324 C1325 1.434 . S
C1325 C1316 1.429 . S
C1325 N1322 1.350 . S
C1325 C1324 1.434 . S
C1326 C1327 1.369 . S
C1326 C1328 1.419 . S
C1326 H1330 0.930 . S
C1327 C1326 1.369 . S
C1327 C1336 1.429 . S
C1328 C1326 1.419 . S
C1328 C1329 1.363 . S
C1328 H1331 0.929 . S
C1329 C1328 1.363 . S
C1329 C1335 1.428 . S
H1330 C1326 0.930 . S
H1331 C1328 0.929 . S
S1332 N1333 1.613 . S
S1332 N1334 1.610 . S
N1333 S1332 1.613 . S
N1333 C1336 1.350 . S
N1334 S1332 1.610 . S
N1334 C1335 1.351 . S
C1335 C1329 1.428 . S
C1335 N1334 1.351 . S
C1335 C1336 1.434 . S
C1336 C1327 1.429 . S
C1336 N1333 1.350 . S
C1336 C1335 1.434 . S
C1337 C1338 1.369 . S
C1337 C1339 1.419 . S
C1337 H1341 0.930 . S
C1338 C1337 1.369 . S
C1338 C1347 1.429 . S
C1339 C1337 1.419 . S
C1339 C1340 1.363 . S
C1339 H1342 0.929 . S
C1340 C1339 1.363 . S
C1340 C1346 1.428 . S
H1341 C1337 0.930 . S
H1342 C1339 0.929 . S
S1343 N1344 1.613 . S
S1343 N1345 1.610 . S
N1344 S1343 1.613 . S
N1344 C1347 1.350 . S
N1345 S1343 1.610 . S
N1345 C1346 1.351 . S
C1346 C1340 1.428 . S
C1346 N1345 1.351 . S
C1346 C1347 1.434 . S
C1347 C1338 1.429 . S
C1347 N1344 1.350 . S
C1347 C1346 1.434 . S
C1348 C1349 1.369 . S
C1348 C1350 1.419 . S
C1348 H1352 0.930 . S
C1349 C1348 1.369 . S
C1349 C1358 1.429 . S
C1350 C1348 1.419 . S
C1350 C1351 1.363 . S
C1350 H1353 0.929 . S
C1351 C1350 1.363 . S
C1351 C1357 1.428 . S
H1352 C1348 0.930 . S
H1353 C1350 0.929 . S
S1354 N1355 1.613 . S
S1354 N1356 1.610 . S
N1355 S1354 1.613 . S
N1355 C1358 1.350 . S
N1356 S1354 1.610 . S
N1356 C1357 1.351 . S
C1357 C1351 1.428 . S
C1357 N1356 1.351 . S
C1357 C1358 1.434 . S
C1358 C1349 1.429 . S
C1358 N1355 1.350 . S
C1358 C1357 1.434 . S
C766 C439 1.391 . S
C768 C593 1.382 . S
C777 C465 1.557 . S
C779 C614 1.419 . S
C788 C401 1.459 . S
C790 C636 1.188 . S
C799 C369 1.477 . S
C801 C615 1.180 1_556 S
C812 C635 1.426 . S
C810 C305 1.574 . S
C821 C343 1.355 . S
C823 C594 1.163 1_556 S
C834 C589 1.370 . S
C832 C375 1.499 . S
C845 C610 1.377 . S
C843 C311 1.486 . S
C854 C337 1.420 . S
C856 C633 1.205 1_556 S
C865 C433 1.388 . S
C867 C612 1.185 . S
C876 C471 1.467 . S
C878 C631 1.363 . S
C889 C591 1.235 1_554 S
C887 C407 1.526 . S
C900 C656 1.387 . S
C898 C55 1.404 . S
C909 C81 1.556 . S
C911 C677 1.414 . S
C920 C17 1.459 . S
C922 C699 1.186 . S
C931 C561 1.477 . S
C933 C678 1.186 . S
C942 C497 1.574 . S
C944 C698 1.424 . S
C953 C535 1.355 . S
C955 C657 1.162 . S
C964 C567 1.499 . S
C966 C652 1.370 . S
C975 C503 1.487 . S
C977 C673 1.377 . S
C988 C696 1.206 . S
C986 C529 1.420 . S
C997 C49 1.384 . S
C999 C675 1.190 . S
C1010 C694 1.353 . S
C1008 C87 1.466 . S
C1019 C23 1.526 . S
C1021 C654 1.234 . S
C1032 C719 1.382 . S
C1030 C247 1.391 . S
C1041 C273 1.555 . S
C1043 C740 1.421 . S
C1054 C762 1.187 . S
C1052 C209 1.460 . S
C1065 C741 1.172 . S
C1063 C177 1.479 . S
C1076 C761 1.428 . S
C1074 C113 1.576 . S
C1085 C151 1.348 . S
C1087 C720 1.172 . S
C1096 C183 1.498 . S
C1098 C715 1.379 . S
C1107 C119 1.488 . S
C1109 C736 1.387 . S
C1120 C759 1.208 . S
C1118 C145 1.418 . S
C1129 C241 1.386 . S
C1131 C738 1.187 . S
C1140 C279 1.467 . S
C1142 C757 1.361 . S
C1151 C215 1.527 . S
C1153 C717 1.219 . S
C1162 C509 1.461 . S
C1164 C592 1.413 1_565 S
C1175 C613 1.427 . S
C1173 C541 1.395 . S
C1184 C573 1.524 . S
C1186 C632 1.481 . S
C1195 C221 1.565 . S
C1197 C611 1.532 . S
C1206 C253 1.424 . S
C1208 C634 1.431 . S
C1219 C590 1.510 . S
C1217 C285 1.540 . S
C1228 C125 1.457 . S
C1230 C655 1.417 . S
C1239 C157 1.392 . S
C1241 C676 1.424 . S
C1250 C189 1.526 . S
C1252 C695 1.485 . S
C1261 C413 1.563 . S
C1263 C674 1.524 . S
C1274 C697 1.431 . S
C1272 C445 1.424 . S
C1283 C477 1.542 . S
C1285 C653 1.513 . S
C1294 C317 1.459 . S
C1296 C718 1.418 . S
C1305 C349 1.393 . S
C1307 C739 1.426 . S
C1318 C758 1.487 . S
C1316 C381 1.527 . S
C1327 C29 1.562 . S
C1329 C737 1.524 . S
C1338 C61 1.424 . S
C1340 C760 1.431 . S
C1349 C93 1.543 . S
C1351 C716 1.511 . S
