# Generated by pormake.
# Topology zzz, (3,6)-cn, num edge types: 1
# Building blocks:
#     Node 0, Type 0, BuildingBlock: ESEHIV_clean_linker_0, # of connection points: 3
#     Node 1, Type 0, BuildingBlock: ESEHIV_clean_linker_0, # of connection points: 3
#     Node 2, Type 0, BuildingBlock: ESEHIV_clean_linker_0, # of connection points: 3
#     Node 3, Type 0, BuildingBlock: ESEHIV_clean_linker_0, # of connection points: 3
#     Node 4, Type 0, BuildingBlock: ESEHIV_clean_linker_0, # of connection points: 3
#     Node 5, Type 0, BuildingBlock: ESEHIV_clean_linker_0, # of connection points: 3
#     Node 6, Type 0, BuildingBlock: ESEHIV_clean_linker_0, # of connection points: 3
#     Node 7, Type 0, BuildingBlock: ESEHIV_clean_linker_0, # of connection points: 3
#     Node 8, Type 1, BuildingBlock: MIFKUJ_clean_sbu_0, # of connection points: 6
#     Node 9, Type 1, BuildingBlock: MIFKUJ_clean_sbu_0, # of connection points: 6
#     Node 10, Type 1, BuildingBlock: MIFKUJ_clean_sbu_0, # of connection points: 6
#     Node 11, Type 1, BuildingBlock: MIFKUJ_clean_sbu_0, # of connection points: 6
#     Edge 12, Type (0, 1), BuildingBlock: XUDNAN_clean_linker_2, # of connection points: 2
#     Edge 13, Type (0, 1), BuildingBlock: XUDNAN_clean_linker_2, # of connection points: 2
#     Edge 14, Type (0, 1), BuildingBlock: XUDNAN_clean_linker_2, # of connection points: 2
#     Edge 15, Type (0, 1), BuildingBlock: XUDNAN_clean_linker_2, # of connection points: 2
#     Edge 16, Type (0, 1), BuildingBlock: XUDNAN_clean_linker_2, # of connection points: 2
#     Edge 17, Type (0, 1), BuildingBlock: XUDNAN_clean_linker_2, # of connection points: 2
#     Edge 18, Type (0, 1), BuildingBlock: XUDNAN_clean_linker_2, # of connection points: 2
#     Edge 19, Type (0, 1), BuildingBlock: XUDNAN_clean_linker_2, # of connection points: 2
#     Edge 20, Type (0, 1), BuildingBlock: XUDNAN_clean_linker_2, # of connection points: 2
#     Edge 21, Type (0, 1), BuildingBlock: XUDNAN_clean_linker_2, # of connection points: 2
#     Edge 22, Type (0, 1), BuildingBlock: XUDNAN_clean_linker_2, # of connection points: 2
#     Edge 23, Type (0, 1), BuildingBlock: XUDNAN_clean_linker_2, # of connection points: 2
#     Edge 24, Type (0, 1), BuildingBlock: XUDNAN_clean_linker_2, # of connection points: 2
#     Edge 25, Type (0, 1), BuildingBlock: XUDNAN_clean_linker_2, # of connection points: 2
#     Edge 26, Type (0, 1), BuildingBlock: XUDNAN_clean_linker_2, # of connection points: 2
#     Edge 27, Type (0, 1), BuildingBlock: XUDNAN_clean_linker_2, # of connection points: 2
#     Edge 28, Type (0, 1), BuildingBlock: XUDNAN_clean_linker_2, # of connection points: 2
#     Edge 29, Type (0, 1), BuildingBlock: XUDNAN_clean_linker_2, # of connection points: 2
#     Edge 30, Type (0, 1), BuildingBlock: XUDNAN_clean_linker_2, # of connection points: 2
#     Edge 31, Type (0, 1), BuildingBlock: XUDNAN_clean_linker_2, # of connection points: 2
#     Edge 32, Type (0, 1), BuildingBlock: XUDNAN_clean_linker_2, # of connection points: 2
#     Edge 33, Type (0, 1), BuildingBlock: XUDNAN_clean_linker_2, # of connection points: 2
#     Edge 34, Type (0, 1), BuildingBlock: XUDNAN_clean_linker_2, # of connection points: 2
#     Edge 35, Type (0, 1), BuildingBlock: XUDNAN_clean_linker_2, # of connection points: 2
# Relax obj value: 0.325
# Max RMSD: 0.210
# Mean RMSD: 0.194
data_MOF--net-zzz--node1-MIFKUJ_clean_sbu_0--node2-ESEHIV_clean_linker_0--edge1-XUDNAN_clean_linker_2
_symmetry_space_group_name_H-M    P1
_symmetry_Int_Tables_number       1
_symmetry_cell_setting            triclinic
loop_
_symmetry_equiv_pos_as_xyz
'x, y, z'
_cell_length_a     44.146493
_cell_length_b     44.241863
_cell_length_c     16.447288
_cell_angle_alpha  89.674644
_cell_angle_beta   89.446539
_cell_angle_gamma 90.177932
loop_
_atom_site_label
_atom_site_type_symbol
_atom_site_fract_x
_atom_site_fract_y
_atom_site_fract_z
_atom_type_partial_charge
H0 H 0.77745 0.57745 0.14215 0.0
H1 H 0.71321 0.59441 0.9543 0.0
H2 H 0.68602 0.54624 0.17167 0.0
C3 C 0.75421 0.57779 0.12153 0.0
C4 C 0.73207 0.56331 0.16956 0.0
C5 C 0.74813 0.58758 0.04237 0.0
C6 C 0.71824 0.58632 0.01503 0.0
C7 C 0.6957 0.57099 0.06019 0.0
C8 C 0.70266 0.5595 0.13812 0.0
H9 H 0.02217 0.78189 0.10648 0.0
H10 H 0.00637 0.709 0.94395 0.0
H11 H 0.9969 0.69439 0.20231 0.0
C12 C 0.01873 0.7578 0.09779 0.0
C13 C 0.01166 0.73932 0.16491 0.0
C14 C 0.01583 0.74722 0.01875 0.0
C15 C 0.00959 0.71683 0.00573 0.0
C16 C 0.00373 0.69727 0.07147 0.0
C17 C 0.00369 0.70872 0.15169 0.0
H18 H 0.72055 0.91682 0.11537 0.0
H19 H 0.79535 0.93449 0.95423 0.0
H20 H 0.80215 0.95612 0.20795 0.0
C21 C 0.74429 0.92251 0.10625 0.0
C22 C 0.76083 0.93359 0.17202 0.0
C23 C 0.75622 0.92394 0.02724 0.0
C24 C 0.78637 0.9327 0.01577 0.0
C25 C 0.80329 0.94403 0.08064 0.0
C26 C 0.79025 0.94508 0.15896 0.0
H27 H 0.52686 0.71896 0.16797 0.0
H28 H 0.51086 0.81384 0.1939 0.0
H29 H 0.54195 0.77825 0.96445 0.0
C30 C 0.5291 0.74161 0.14306 0.0
C31 C 0.53597 0.74548 0.06054 0.0
C32 C 0.5204 0.76591 0.19197 0.0
C33 C 0.51941 0.79516 0.15815 0.0
C34 C 0.52775 0.79961 0.07593 0.0
C35 C 0.53658 0.77481 0.02833 0.0
H36 H 0.22333 0.4787 0.0996 0.0
H37 H 0.30301 0.4723 0.24309 0.0
H38 H 0.30646 0.4468 0.98965 0.0
C39 C 0.24716 0.47294 0.10385 0.0
C40 C 0.2628 0.46205 0.03543 0.0
C41 C 0.26169 0.47691 0.17764 0.0
C42 C 0.2919 0.469 0.18518 0.0
C43 C 0.30839 0.45836 0.1178 0.0
C44 C 0.29379 0.45446 0.0423 0.0
H45 H 0.03097 0.22929 0.07586 0.0
H46 H 0.02095 0.31104 0.21072 0.0
H47 H 0.02282 0.31438 0.94903 0.0
C48 C 0.02951 0.25377 0.0771 0.0
C49 C 0.02818 0.26989 0.00368 0.0
C50 C 0.02571 0.26832 0.15148 0.0
C51 C 0.02456 0.29972 0.15307 0.0
C52 C 0.02438 0.31672 0.08092 0.0
C53 C 0.0253 0.30173 0.00513 0.0
H54 H 0.27717 0.06755 0.07048 0.0
H55 H 0.20415 0.06754 0.2429 0.0
H56 H 0.18557 0.05484 0.98883 0.0
C57 C 0.25294 0.06802 0.08232 0.0
C58 C 0.23269 0.06248 0.01888 0.0
C59 C 0.24273 0.0693 0.16273 0.0
C60 C 0.21184 0.06746 0.18001 0.0
C61 C 0.19098 0.0632 0.11741 0.0
C62 C 0.20139 0.0603 0.03656 0.0
H63 H 0.52285 0.27933 0.0573 0.0
H64 H 0.48182 0.19259 0.01187 0.0
H65 H 0.53221 0.20808 0.23164 0.0
C66 C 0.51854 0.2561 0.07566 0.0
C67 C 0.52996 0.24554 0.1492 0.0
C68 C 0.50107 0.23738 0.02595 0.0
C69 C 0.49514 0.20726 0.05017 0.0
C70 C 0.50672 0.19641 0.1246 0.0
C71 C 0.52397 0.21585 0.17324 0.0
Zn72 Zn 0.9754 0.05318 0.57607 0.0
Zn73 Zn 0.99553 0.97157 0.57731 0.0
C74 C 0.98832 0.08373 0.71773 0.0
O75 O 0.95868 0.08111 0.71886 0.0
C76 C 0.0042 0.92528 0.46391 0.0
O77 O 0.03193 0.93284 0.48406 0.0
O78 O 0.96155 0.09267 0.53114 0.0
O79 O 0.99451 0.033 0.4794 0.0
O80 O 0.02728 0.99975 0.52577 0.0
C81 C 0.98339 0.11132 0.52633 0.0
O82 O 0.01108 0.10222 0.54095 0.0
O83 O 0.00323 0.06785 0.66676 0.0
C84 C 0.99076 0.92435 0.67367 0.0
O85 O 0.96475 0.92923 0.63788 0.0
O86 O 0.01309 0.94176 0.65745 0.0
O87 O 0.95989 0.98875 0.64548 0.0
O88 O 0.93966 0.03365 0.62533 0.0
O89 O 0.9824 0.94176 0.48898 0.0
C90 C 0.0207 0.02137 0.47766 0.0
C91 C 0.93994 0.00855 0.66235 0.0
Zn92 Zn 0.45091 0.99587 0.59105 0.0
Zn93 Zn 0.54563 0.00493 0.63055 0.0
C94 C 0.40096 0.99301 0.69961 0.0
O95 O 0.40954 0.96465 0.69744 0.0
C96 C 0.5889 0.99524 0.5004 0.0
O97 O 0.58221 0.02332 0.48171 0.0
O98 O 0.43141 0.99079 0.48308 0.0
O99 O 0.48711 0.02454 0.57145 0.0
O100 O 0.53294 0.04343 0.57433 0.0
C101 C 0.40459 0.98062 0.4774 0.0
O102 O 0.39432 0.96159 0.53268 0.0
O103 O 0.41705 0.01288 0.66269 0.0
C104 C 0.59629 0.01612 0.72393 0.0
O105 O 0.60521 0.03114 0.65886 0.0
O106 O 0.56832 0.01013 0.73305 0.0
O107 O 0.50866 0.97945 0.64488 0.0
O108 O 0.46515 0.95698 0.64694 0.0
O109 O 0.57479 0.9823 0.55862 0.0
C110 C 0.50593 0.04479 0.54807 0.0
C111 C 0.49209 0.95835 0.6726 0.0
Zn112 Zn 0.51753 0.45863 0.59418 0.0
Zn113 Zn 0.47857 0.54553 0.59448 0.0
C114 C 0.52464 0.40822 0.6952 0.0
O115 O 0.55263 0.41453 0.67287 0.0
C116 C 0.46368 0.59454 0.49488 0.0
O117 O 0.43696 0.58361 0.51551 0.0
O118 O 0.54168 0.43587 0.5117 0.0
O119 O 0.48129 0.47656 0.5357 0.0
O120 O 0.45282 0.51743 0.52982 0.0
C121 C 0.52727 0.41218 0.49265 0.0
O122 O 0.49942 0.40847 0.51975 0.0
O123 O 0.50367 0.42637 0.67515 0.0
C124 C 0.4757 0.58714 0.70755 0.0
O125 O 0.50096 0.59106 0.66606 0.0
O126 O 0.45838 0.56512 0.6904 0.0
O127 O 0.5161 0.52624 0.64072 0.0
O128 O 0.5454 0.48667 0.65275 0.0
O129 O 0.48727 0.58026 0.51675 0.0
C130 C 0.45906 0.49093 0.50566 0.0
C131 C 0.53968 0.51394 0.66951 0.0
Zn132 Zn 0.03764 0.49547 0.60252 0.0
Zn133 Zn 0.94495 0.4936 0.58728 0.0
C134 C 0.08175 0.48873 0.71878 0.0
O135 O 0.07811 0.51807 0.71085 0.0
C136 C 0.89752 0.48601 0.48135 0.0
O137 O 0.9009 0.4595 0.51646 0.0
O138 O 0.07043 0.51422 0.53475 0.0
O139 O 0.01456 0.46952 0.52225 0.0
O140 O 0.96628 0.45687 0.54226 0.0
C141 C 0.08852 0.49375 0.51119 0.0
O142 O 0.08134 0.46528 0.52455 0.0
O143 O 0.06335 0.47128 0.68238 0.0
C144 C 0.89975 0.50879 0.6852 0.0
O145 O 0.90426 0.53123 0.63402 0.0
O146 O 0.9154 0.48476 0.67837 0.0
O147 O 0.96776 0.52644 0.64648 0.0
O148 O 0.01723 0.529 0.66368 0.0
O149 O 0.91666 0.50684 0.49648 0.0
C150 C 0.99085 0.45521 0.5014 0.0
C151 C 0.99087 0.53946 0.67564 0.0
H152 H 0.1677 0.0139 0.19286 0.0
H153 H 0.14424 0.1029 0.10363 0.0
H154 H 0.09529 0.09999 0.17866 0.0
H155 H 0.08762 0.98205 0.19831 0.0
H156 H 0.09542 0.961 0.28982 0.0
H157 H 0.12519 0.96779 0.21607 0.0
H158 H 0.15797 0.99161 0.32875 0.0
H159 H 0.12817 0.98569 0.40244 0.0
H160 H 0.14332 0.02313 0.38583 0.0
H161 H 0.05286 0.09019 0.27847 0.0
H162 H 0.01851 0.07351 0.38883 0.0
H163 H 0.07075 0.9912 0.41737 0.0
C164 C 0.1515 0.03207 0.18622 0.0
C165 C 0.15907 0.05827 0.14105 0.0
C166 C 0.13821 0.08232 0.13603 0.0
C167 C 0.11056 0.0809 0.17893 0.0
C168 C 0.10427 0.05519 0.22594 0.0
C169 C 0.12393 0.03096 0.22866 0.0
C170 C 0.11328 0.00723 0.28943 0.0
C171 C 0.10488 0.97777 0.24581 0.0
C172 C 0.13711 0.00162 0.35551 0.0
C173 C 0.08541 0.02256 0.32385 0.0
C174 C 0.08028 0.04991 0.28525 0.0
C175 C 0.05644 0.06862 0.30818 0.0
C176 C 0.03713 0.05897 0.37136 0.0
C177 C 0.04196 0.03104 0.41207 0.0
C178 C 0.06652 0.01269 0.38779 0.0
H179 H 0.54723 0.15679 0.18584 0.0
H180 H 0.45128 0.16876 0.145 0.0
H181 H 0.44008 0.1271 0.2424 0.0
H182 H 0.54818 0.07385 0.23309 0.0
H183 H 0.57547 0.07968 0.31238 0.0
H184 H 0.57551 0.1041 0.22433 0.0
H185 H 0.57113 0.15043 0.31911 0.0
H186 H 0.56999 0.12631 0.40738 0.0
H187 H 0.53977 0.15278 0.38973 0.0
H188 H 0.43957 0.09118 0.36543 0.0
H189 H 0.45038 0.061 0.49002 0.0
H190 H 0.54637 0.07592 0.45253 0.0
C191 C 0.52391 0.14968 0.19464 0.0
C192 C 0.50011 0.16579 0.15766 0.0
C193 C 0.46985 0.15635 0.17167 0.0
C194 C 0.46332 0.13294 0.22765 0.0
C195 C 0.48735 0.11936 0.2687 0.0
C196 C 0.51711 0.12715 0.2516 0.0
C197 C 0.53871 0.1128 0.31119 0.0
C198 C 0.56075 0.09131 0.26763 0.0
C199 C 0.55589 0.13702 0.35967 0.0
C200 C 0.51656 0.09576 0.36504 0.0
C201 C 0.48703 0.0996 0.33983 0.0
C202 C 0.4627 0.08745 0.38419 0.0
C203 C 0.46889 0.07034 0.45455 0.0
C204 C 0.49901 0.06552 0.47969 0.0
C205 C 0.52301 0.07889 0.43472 0.0
H206 H 0.34852 0.50304 0.13374 0.0
H207 H 0.33947 0.40588 0.14354 0.0
H208 H 0.38456 0.40284 0.23149 0.0
H209 H 0.43428 0.51038 0.16768 0.0
H210 H 0.42751 0.54219 0.23336 0.0
H211 H 0.40312 0.53554 0.14799 0.0
H212 H 0.35697 0.53612 0.24614 0.0
H213 H 0.38099 0.54125 0.33236 0.0
H214 H 0.35531 0.50953 0.32954 0.0
H215 H 0.42224 0.4117 0.34493 0.0
H216 H 0.45016 0.43117 0.46386 0.0
H217 H 0.42973 0.52288 0.38907 0.0
C218 C 0.35757 0.48104 0.1494 0.0
C219 C 0.34124 0.45464 0.13008 0.0
C220 C 0.35236 0.42623 0.15545 0.0
C221 C 0.37772 0.42441 0.20647 0.0
C222 C 0.39142 0.45126 0.23169 0.0
C223 C 0.38192 0.47909 0.20277 0.0
C224 C 0.39551 0.50478 0.25087 0.0
C225 C 0.41636 0.52437 0.19674 0.0
C226 C 0.37072 0.52401 0.29213 0.0
C227 C 0.41338 0.48721 0.31296 0.0
C228 C 0.41137 0.45641 0.30031 0.0
C229 C 0.42447 0.4358 0.35411 0.0
C230 C 0.44021 0.44701 0.42169 0.0
C231 C 0.44219 0.4785 0.43576 0.0
C232 C 0.42858 0.49866 0.38028 0.0
H233 H 0.06195 0.3591 0.14153 0.0
H234 H 0.97061 0.3445 0.05793 0.0
H235 H 0.95222 0.38442 0.14984 0.0
H236 H 0.04604 0.36105 0.33298 0.0
H237 H 0.07171 0.39013 0.36633 0.0
H238 H 0.08024 0.36912 0.27595 0.0
H239 H 0.08376 0.41807 0.1898 0.0
H240 H 0.0768 0.43967 0.28071 0.0
H241 H 0.05315 0.44492 0.19304 0.0
H242 H 0.94209 0.41317 0.2774 0.0
H243 H 0.94203 0.4378 0.4113 0.0
H244 H 0.04023 0.43447 0.41415 0.0
C245 C 0.03855 0.3662 0.13776 0.0
C246 C 0.01777 0.3492 0.09152 0.0
C247 C 0.98697 0.35785 0.09095 0.0
C248 C 0.97628 0.38016 0.14431 0.0
C249 C 0.99685 0.39407 0.19621 0.0
C250 C 0.02759 0.3883 0.1912 0.0
C251 C 0.04436 0.40296 0.26103 0.0
C252 C 0.06157 0.3794 0.31203 0.0
C253 C 0.06578 0.4279 0.22925 0.0
C254 C 0.01811 0.41621 0.30878 0.0
C255 C 0.99093 0.41102 0.2701 0.0
C256 C 0.96332 0.41823 0.30681 0.0
C257 C 0.9635 0.43185 0.38367 0.0
C258 C 0.99111 0.43826 0.42351 0.0
C259 C 0.01874 0.43025 0.38508 0.0
H260 H 0.85607 0.92104 0.02347 0.0
H261 H 0.80979 0.00469 0.07696 0.0
H262 H 0.84407 0.032 0.9824 0.0
H263 H 0.93496 0.9567 0.98341 0.0
H264 H 0.94232 0.93049 0.90254 0.0
H265 H 0.92015 0.91874 0.98978 0.0
H266 H 0.87729 0.90223 0.89672 0.0
H267 H 0.89616 0.91508 0.80579 0.0
H268 H 0.85934 0.92948 0.83113 0.0
H269 H 0.87293 0.04665 0.8575 0.0
H270 H 0.90232 0.05074 0.73022 0.0
H271 H 0.93157 0.95774 0.7583 0.0
C272 C 0.85476 0.94545 0.01956 0.0
C273 C 0.83094 0.96099 0.05859 0.0
C274 C 0.82859 0.99268 0.04941 0.0
C275 C 0.84773 0.00826 0.99496 0.0
C276 C 0.86942 0.99182 0.95187 0.0
C277 C 0.87387 0.96131 0.96589 0.0
C278 C 0.89603 0.94816 0.90482 0.0
C279 C 0.92508 0.9379 0.94763 0.0
C280 C 0.88137 0.92221 0.85688 0.0
C281 C 0.90193 0.97551 0.85114 0.0
C282 C 0.88649 0.00049 0.87969 0.0
C283 C 0.88596 0.02754 0.83614 0.0
C284 C 0.9025 0.02948 0.76316 0.0
C285 C 0.91959 0.00457 0.73418 0.0
C286 C 0.91902 0.9772 0.77892 0.0
H287 H 0.48941 0.81095 0.9526 0.0
H288 H 0.55738 0.85316 0.10284 0.0
H289 H 0.55556 0.89921 0.01562 0.0
H290 H 0.5167 0.83675 0.76565 0.0
H291 H 0.48009 0.84286 0.72092 0.0
H292 H 0.48446 0.81478 0.79953 0.0
H293 H 0.44255 0.84036 0.88634 0.0
H294 H 0.43756 0.86818 0.80723 0.0
H295 H 0.44563 0.88003 0.90944 0.0
H296 H 0.54821 0.93901 0.90574 0.0
H297 H 0.53349 0.97082 0.78881 0.0
H298 H 0.47155 0.90132 0.70902 0.0
C299 C 0.50338 0.83022 0.96805 0.0
C300 C 0.52338 0.82888 0.03436 0.0
C301 C 0.54165 0.85416 0.05278 0.0
C302 C 0.54087 0.88019 0.00332 0.0
C303 C 0.52152 0.8804 0.93656 0.0
C304 C 0.50278 0.85621 0.91975 0.0
C305 C 0.48472 0.86152 0.84327 0.0
C306 C 0.49194 0.83755 0.77854 0.0
C307 C 0.45059 0.86259 0.86276 0.0
C308 C 0.49665 0.89227 0.81826 0.0
C309 C 0.51778 0.90284 0.8729 0.0
C310 C 0.53186 0.93081 0.86243 0.0
C311 C 0.52385 0.9485 0.79499 0.0
C312 C 0.50233 0.93809 0.73839 0.0
C313 C 0.48849 0.90964 0.75058 0.0
H314 H 0.69093 0.54495 0.91211 0.0
H315 H 0.63645 0.57887 0.1121 0.0
H316 H 0.5899 0.57027 0.03098 0.0
H317 H 0.64859 0.57882 0.75305 0.0
H318 H 0.65342 0.5475 0.68458 0.0
H319 H 0.6818 0.55535 0.75962 0.0
H320 H 0.67681 0.50085 0.81663 0.0
H321 H 0.64884 0.49259 0.74098 0.0
H322 H 0.64004 0.48672 0.84718 0.0
H323 H 0.54959 0.56008 0.92174 0.0
H324 H 0.51935 0.54299 0.80377 0.0
H325 H 0.60128 0.51582 0.67896 0.0
C326 C 0.66919 0.55054 0.93908 0.0
C327 C 0.66721 0.56296 0.01793 0.0
C328 C 0.63837 0.5694 0.05171 0.0
C329 C 0.61193 0.56479 0.00581 0.0
C330 C 0.6149 0.55358 0.92674 0.0
C331 C 0.64287 0.54614 0.89443 0.0
C332 C 0.64041 0.53429 0.80867 0.0
C333 C 0.65704 0.55524 0.74792 0.0
C334 C 0.65221 0.50167 0.8031 0.0
C335 C 0.60652 0.53573 0.79744 0.0
C336 C 0.59213 0.5474 0.86549 0.0
C337 C 0.56075 0.55106 0.86831 0.0
C338 C 0.54375 0.54182 0.80083 0.0
C339 C 0.55806 0.52892 0.73212 0.0
C340 C 0.58984 0.52605 0.73042 0.0
H341 H 0.03962 0.64998 0.03236 0.0
H342 H 0.94609 0.67807 0.04969 0.0
H343 H 0.93151 0.63765 0.95435 0.0
H344 H 0.04276 0.64006 0.83471 0.0
H345 H 0.066 0.60666 0.83045 0.0
H346 H 0.06854 0.63155 0.91605 0.0
H347 H 0.05588 0.58782 0.01604 0.0
H348 H 0.05468 0.5623 0.93104 0.0
H349 H 0.02272 0.56486 -0.00036 0.0
H350 H 0.92946 0.6028 0.83362 0.0
H351 H 0.93825 0.5692 0.71662 0.0
H352 H 0.03332 0.56309 0.77933 0.0
C353 C 0.01584 0.64615 0.0204 0.0
C354 C 0.99382 0.66644 0.0501 0.0
C355 C 0.96306 0.662 0.02982 0.0
C356 C 0.95469 0.63938 0.97469 0.0
C357 C 0.97734 0.62116 0.9415 0.0
C358 C 0.00717 0.62355 0.96583 0.0
C359 C 0.02759 0.60328 0.91551 0.0
C360 C 0.05268 0.6215 0.8716 0.0
C361 C 0.04101 0.57806 0.96872 0.0
C362 C 0.005 0.59064 0.85581 0.0
C363 C 0.97609 0.60096 0.87219 0.0
C364 C 0.95188 0.59393 0.82177 0.0
C365 C 0.95715 0.57496 0.75489 0.0
C366 C 0.98639 0.56308 0.73879 0.0
C367 C 0.01063 0.57157 0.78966 0.0
H368 H 0.9882 0.21952 0.1598 0.0
H369 H 0.0437 0.27798 0.30898 0.0
H370 H 0.02699 0.24967 0.43142 0.0
H371 H 0.92637 0.20493 0.30812 0.0
H372 H 0.92331 0.16587 0.27856 0.0
H373 H 0.93493 0.19406 0.20494 0.0
H374 H 0.98405 0.16406 0.1735 0.0
H375 H 0.9721 0.13554 0.24494 0.0
H376 H 0.00851 0.15352 0.25606 0.0
H377 H 0.01118 0.21118 0.5319 0.0
H378 H 0.00285 0.16193 0.59969 0.0
H379 H 0.95741 0.12849 0.38622 0.0
C380 C 0.99694 0.22642 0.21816 0.0
C381 C 0.01738 0.25082 0.22502 0.0
C382 C 0.02786 0.25942 0.3026 0.0
C383 C 0.01828 0.24368 0.37237 0.0
C384 C 0.9981 0.21966 0.36324 0.0
C385 C 0.98782 0.2109 0.2879 0.0
C386 C 0.96991 0.18181 0.29249 0.0
C387 C 0.93665 0.18701 0.2697 0.0
C388 C 0.98453 0.15731 0.23865 0.0
C389 C 0.97299 0.17465 0.38189 0.0
C390 C 0.98862 0.19723 0.42209 0.0
C391 C 0.99824 0.19374 0.50195 0.0
C392 C 0.99344 0.16581 0.53994 0.0
C393 C 0.97909 0.14211 0.49788 0.0
C394 C 0.96734 0.14694 0.41995 0.0
H395 H 0.25188 0.01736 0.24347 0.0
H396 H 0.28449 0.10941 0.21934 0.0
H397 H 0.32834 0.0969 0.30633 0.0
H398 H 0.27856 0.00141 0.45377 0.0
H399 H 0.28945 0.96342 0.42756 0.0
H400 H 0.25818 0.98118 0.37659 0.0
H401 H 0.28423 0.97064 0.23778 0.0
H402 H 0.31589 0.95351 0.28819 0.0
H403 H 0.32203 0.98469 0.21893 0.0
H404 H 0.37143 0.07277 0.37597 0.0
H405 H 0.40967 0.03992 0.43693 0.0
H406 H 0.34953 0.96279 0.41673 0.0
C407 C 0.26764 0.0351 0.25979 0.0
C408 C 0.26475 0.0645 0.22744 0.0
C409 C 0.28628 0.08701 0.24575 0.0
C410 C 0.31116 0.08002 0.29455 0.0
C411 C 0.31404 0.05042 0.32311 0.0
C412 C 0.29273 0.02835 0.3072 0.0
C413 C 0.30282 0.9976 0.33731 0.0
C414 C 0.28095 0.98519 0.40275 0.0
C415 C 0.30645 0.97531 0.26632 0.0
C416 C 0.33322 0.00578 0.3726 0.0
C417 C 0.33924 0.03631 0.36313 0.0
C418 C 0.36678 0.04894 0.38487 0.0
C419 C 0.38855 0.02998 0.41861 0.0
C420 C 0.38267 0.99881 0.43137 0.0
C421 C 0.35459 0.98656 0.40791 0.0
H422 H 0.51761 0.25303 0.30886 0.0
H423 H 0.57457 0.28687 0.11259 0.0
H424 H 0.59066 0.32939 0.19883 0.0
H425 H 0.48708 0.31666 0.3558 0.0
H426 H 0.48476 0.312 0.46466 0.0
H427 H 0.486 0.2794 0.40092 0.0
H428 H 0.53325 0.2596 0.47709 0.0
H429 H 0.5315 0.29218 0.54224 0.0
H430 H 0.56597 0.28372 0.48746 0.0
H431 H 0.5904 0.37361 0.29048 0.0
H432 H 0.57244 0.41568 0.37714 0.0
H433 H 0.51472 0.35317 0.51091 0.0
C434 C 0.53478 0.26845 0.28582 0.0
C435 C 0.54512 0.26666 0.2048 0.0
C436 C 0.56652 0.28793 0.17492 0.0
C437 C 0.57599 0.31194 0.22373 0.0
C438 C 0.56404 0.31408 0.30224 0.0
C439 C 0.54414 0.29258 0.33351 0.0
C440 C 0.52981 0.30279 0.41238 0.0
C441 C 0.49488 0.30273 0.408 0.0
C442 C 0.54082 0.28342 0.48403 0.0
C443 C 0.54247 0.33443 0.41643 0.0
C444 C 0.56317 0.3402 0.35457 0.0
C445 C 0.57489 0.36915 0.34048 0.0
C446 C 0.56448 0.39291 0.38938 0.0
C447 C 0.54205 0.38741 0.44946 0.0
C448 C 0.53187 0.35778 0.46491 0.0
H449 H 0.24285 0.44799 0.31399 0.0
H450 H 0.24082 0.53414 0.18874 0.0
H451 H 0.20197 0.55249 0.28545 0.0
H452 H 0.16987 0.43913 0.32766 0.0
H453 H 0.16713 0.42166 0.42675 0.0
H454 H 0.20156 0.41867 0.36883 0.0
H455 H 0.23195 0.44201 0.48706 0.0
H456 H 0.1975 0.44468 0.5464 0.0
H457 H 0.22052 0.47783 0.52893 0.0
H458 H 0.15597 0.55688 0.37082 0.0
H459 H 0.10675 0.54699 0.43934 0.0
H460 H 0.13742 0.4572 0.50549 0.0
C461 C 0.23528 0.47122 0.31034 0.0
C462 C 0.24484 0.49 0.24587 0.0
C463 C 0.23384 0.51983 0.23926 0.0
C464 C 0.21194 0.5304 0.29399 0.0
C465 C 0.20148 0.51078 0.35466 0.0
C466 C 0.21311 0.48188 0.36397 0.0
C467 C 0.19427 0.46336 0.42328 0.0
C468 C 0.18251 0.43402 0.38422 0.0
C469 C 0.21213 0.45659 0.50103 0.0
C470 C 0.16891 0.48536 0.43996 0.0
C471 C 0.17397 0.51296 0.40245 0.0
C472 C 0.15209 0.53566 0.40232 0.0
C473 C 0.12416 0.52981 0.44068 0.0
C474 C 0.11837 0.50127 0.47666 0.0
C475 C 0.14128 0.47919 0.47796 0.0
H476 H 0.05213 0.77663 0.90461 0.0
H477 H 0.96051 0.76868 0.00021 0.0
H478 H 0.94546 0.81373 0.92277 0.0
H479 H 0.05903 0.85415 0.90759 0.0
H480 H 0.07796 0.8594 0.81087 0.0
H481 H 0.08185 0.82424 0.86539 0.0
H482 H 0.06225 0.7944 0.74141 0.0
H483 H 0.05917 0.82942 0.68549 0.0
H484 H 0.02672 0.80487 0.69625 0.0
H485 H 0.94126 0.86088 0.85252 0.0
H486 H 0.94495 0.90616 0.76754 0.0
H487 H 0.03867 0.88582 0.70923 0.0
C488 C 0.02877 0.78399 0.90641 0.0
C489 C 0.00723 0.76942 0.95716 0.0
C490 C 0.97696 0.77958 0.96029 0.0
C491 C 0.96831 0.80514 0.91713 0.0
C492 C 0.99012 0.8198 0.86996 0.0
C493 C 0.01944 0.80934 0.86169 0.0
C494 C 0.03797 0.83014 0.80644 0.0
C495 C 0.06585 0.84273 0.85025 0.0
C496 C 0.04707 0.81373 0.72774 0.0
C497 C 0.01484 0.85468 0.7896 0.0
C498 C 0.98747 0.8478 0.82694 0.0
C499 C 0.96239 0.8664 0.82192 0.0
C500 C 0.9648 0.89224 0.77421 0.0
C501 C 0.99204 0.89956 0.73281 0.0
C502 C 0.01773 0.8809 0.74157 0.0
H503 H 0.7526 0.96986 0.91896 0.0
H504 H 0.7102 0.88492 0.98824 0.0
H505 H 0.66614 0.89758 0.90298 0.0
H506 H 0.69162 0.01206 0.94191 0.0
H507 H 0.69767 0.03786 0.85806 0.0
H508 H 0.72943 0.01939 0.90406 0.0
H509 H 0.74608 0.9972 0.76545 0.0
H510 H 0.71497 0.01654 0.71792 0.0
H511 H 0.71921 0.97631 0.70579 0.0
H512 H 0.6235 0.92364 0.83668 0.0
H513 H 0.58649 0.95887 0.7792 0.0
H514 H 0.65605 0.02783 0.75501 0.0
C515 C 0.73489 0.95309 0.91229 0.0
C516 C 0.73495 0.92611 0.95875 0.0
C517 C 0.71066 0.90542 0.95195 0.0
C518 C 0.68561 0.9125 0.9039 0.0
C519 C 0.68541 0.94023 0.86311 0.0
C520 C 0.7097 0.95997 0.86535 0.0
C521 C 0.70221 0.99004 0.82578 0.0
C522 C 0.70542 0.01636 0.88608 0.0
C523 C 0.72177 0.99532 0.74916 0.0
C524 C 0.66944 0.98464 0.80445 0.0
C525 C 0.66036 0.95568 0.82578 0.0
C526 C 0.63048 0.94618 0.81852 0.0
C527 C 0.60945 0.96661 0.78743 0.0
C528 C 0.61826 0.99629 0.76442 0.0
C529 C 0.64872 0.0053 0.77247 0.0
H530 H 0.51138 0.74133 0.90779 0.0
H531 H 0.5575 0.68818 0.09194 0.0
H532 H 0.53765 0.64156 0.03068 0.0
H533 H 0.44689 0.6999 0.88761 0.0
H534 H 0.44455 0.70141 0.7783 0.0
H535 H 0.46333 0.7313 0.83223 0.0
H536 H 0.51289 0.72343 0.7493 0.0
H537 H 0.49359 0.69497 0.69147 0.0
H538 H 0.52865 0.686 0.74129 0.0
H539 H 0.50483 0.60222 0.96615 0.0
H540 H 0.48104 0.56911 0.86428 0.0
H541 H 0.46456 0.64685 0.71016 0.0
C542 C 0.51851 0.72001 0.93372 0.0
C543 C 0.53493 0.71856 0.00709 0.0
C544 C 0.54382 0.68992 0.03781 0.0
C545 C 0.53253 0.66333 0.00386 0.0
C546 C 0.51371 0.66582 0.93694 0.0
C547 C 0.50846 0.69318 0.89885 0.0
C548 C 0.48937 0.68928 0.82372 0.0
C549 C 0.45926 0.7065 0.83099 0.0
C550 C 0.50719 0.69896 0.74692 0.0
C551 C 0.48422 0.65547 0.82687 0.0
C552 C 0.49751 0.6426 0.89437 0.0
C553 C 0.49503 0.61185 0.91183 0.0
C554 C 0.48118 0.5933 0.85437 0.0
C555 C 0.47167 0.60559 0.77956 0.0
C556 C 0.47138 0.63714 0.76777 0.0
H557 H 0.74962 0.56624 0.88657 0.0
H558 H 0.80544 0.6115 0.06511 0.0
H559 H 0.85124 0.593 0.99454 0.0
H560 H 0.78683 0.50314 0.8694 0.0
H561 H 0.78493 0.49793 0.76094 0.0
H562 H 0.75624 0.51956 0.81239 0.0
H563 H 0.76669 0.56637 0.72113 0.0
H564 H 0.79398 0.54432 0.66518 0.0
H565 H 0.80498 0.58 0.70835 0.0
H566 H 0.88942 0.55948 0.92485 0.0
H567 H 0.91947 0.52766 0.83078 0.0
H568 H 0.83878 0.50845 0.6926 0.0
C569 C 0.77129 0.57393 0.90875 0.0
C570 C 0.77381 0.58952 0.98328 0.0
C571 C 0.80291 0.59877 0.00954 0.0
C572 C 0.82907 0.58829 0.97005 0.0
C573 C 0.82559 0.56989 0.90236 0.0
C574 C 0.79753 0.56429 0.86907 0.0
C575 C 0.79981 0.54312 0.79735 0.0
C576 C 0.78082 0.51425 0.81094 0.0
C577 C 0.79085 0.55943 0.71833 0.0
C578 C 0.83327 0.53629 0.79862 0.0
C579 C 0.84774 0.55173 0.86002 0.0
C580 C 0.87845 0.54777 0.87555 0.0
C581 C 0.89517 0.52918 0.82318 0.0
C582 C 0.88111 0.51529 0.75617 0.0
C583 C 0.84972 0.51819 0.74507 0.0
H584 H 0.97952 0.237 0.96436 0.0
H585 H 0.07121 0.25747 0.88692 0.0
H586 H 0.07143 0.21151 0.80076 0.0
H587 H 0.99283 0.16212 0.9961 0.0
H588 H 0.95606 0.14872 0.96581 0.0
H589 H 0.96024 0.18633 0.00519 0.0
H590 H 0.93665 0.20932 0.87499 0.0
H591 H 0.93119 0.17167 0.83657 0.0
H592 H 0.95186 0.19922 0.77671 0.0
H593 H 0.06317 0.15879 0.73772 0.0
H594 H 0.0455 0.10829 0.69328 0.0
H595 H 0.96106 0.12181 0.82507 0.0
C596 C 0.99896 0.23272 0.92539 0.0
C597 C 0.02496 0.25128 0.92975 0.0
C598 C 0.05071 0.24413 0.88187 0.0
C599 C 0.05114 0.21779 0.83393 0.0
C600 C 0.02577 0.19878 0.83567 0.0
C601 C 0.0 0.20626 0.87956 0.0
C602 C 0.97705 0.18081 0.87999 0.0
C603 C 0.97122 0.16881 0.9669 0.0
C604 C 0.94744 0.19086 0.83961 0.0
C605 C 0.99369 0.15777 0.82902 0.0
C606 C 0.02175 0.16835 0.80378 0.0
C607 C 0.04114 0.15047 0.75682 0.0
C608 C 0.03106 0.12164 0.7326 0.0
C609 C 0.00188 0.11097 0.75563 0.0
C610 C 0.98348 0.12916 0.8062 0.0
H611 H 0.27525 0.09121 0.92399 0.0
H612 H 0.22262 0.00872 0.94577 0.0
H613 H 0.25796 0.98334 0.85171 0.0
H614 H 0.30182 0.07846 0.70146 0.0
H615 H 0.33828 0.0947 0.72374 0.0
H616 H 0.30475 0.10846 0.77473 0.0
H617 H 0.33023 0.09801 0.91321 0.0
H618 H 0.36332 0.08323 0.86313 0.0
H619 H 0.34307 0.06033 0.93672 0.0
H620 H 0.30451 0.96391 0.78618 0.0
H621 H 0.35528 0.95333 0.73129 0.0
H622 H 0.37841 0.04858 0.74648 0.0
C623 C 0.27026 0.06836 0.90487 0.0
C624 C 0.24594 0.05203 0.94092 0.0
C625 C 0.24058 0.02184 0.91714 0.0
C626 C 0.26077 0.00715 0.8644 0.0
C627 C 0.28579 0.02321 0.83465 0.0
C628 C 0.29013 0.05346 0.85173 0.0
C629 C 0.32051 0.06454 0.81888 0.0
C630 C 0.31606 0.08793 0.75064 0.0
C631 C 0.34044 0.07726 0.88708 0.0
C632 C 0.33334 0.03538 0.78549 0.0
C633 C 0.31279 0.01192 0.79472 0.0
C634 C 0.3204 0.98226 0.77619 0.0
C635 C 0.3495 0.97646 0.74584 0.0
C636 C 0.37076 0.00021 0.7339 0.0
C637 C 0.36246 0.03009 0.7537 0.0
H638 H 0.46328 0.28471 0.00193 0.0
H639 H 0.52181 0.2217 0.8768 0.0
H640 H 0.52697 0.25753 0.76215 0.0
H641 H 0.42986 0.32317 0.80516 0.0
H642 H 0.43015 0.3591 0.85628 0.0
H643 H 0.42225 0.3249 0.91292 0.0
H644 H 0.46535 0.33876 0.01122 0.0
H645 H 0.47448 0.37213 0.95344 0.0
H646 H 0.50326 0.34415 0.97175 0.0
H647 H 0.54003 0.30449 0.68971 0.0
H648 H 0.55098 0.35656 0.64445 0.0
H649 H 0.48243 0.39048 0.81053 0.0
C650 C 0.47523 0.27768 0.94745 0.0
C651 C 0.49173 0.25031 0.94712 0.0
C652 C 0.50839 0.24216 0.87701 0.0
C653 C 0.5117 0.26261 0.81205 0.0
C654 C 0.49763 0.29075 0.81773 0.0
C655 C 0.47868 0.29795 0.88219 0.0
C656 C 0.46999 0.33118 0.87975 0.0
C657 C 0.43604 0.33479 0.86247 0.0
C658 C 0.47882 0.34748 0.95869 0.0
C659 C 0.48903 0.34203 0.80816 0.0
C660 C 0.50454 0.31824 0.77287 0.0
C661 C 0.52698 0.32307 0.71413 0.0
C662 C 0.53336 0.35277 0.68971 0.0
C663 C 0.51722 0.37736 0.72333 0.0
C664 C 0.4945 0.37191 0.78255 0.0
H665 H 0.23365 0.50824 0.96445 0.0
H666 H 0.24995 0.41231 0.94123 0.0
H667 H 0.20638 0.40833 0.84711 0.0
H668 H 0.15774 0.49926 0.99138 0.0
H669 H 0.14682 0.53405 0.94244 0.0
H670 H 0.18342 0.531 0.98875 0.0
H671 H 0.21004 0.54567 0.85281 0.0
H672 H 0.17345 0.54986 0.80663 0.0
H673 H 0.20122 0.52509 0.76166 0.0
H674 H 0.15534 0.41462 0.77115 0.0
H675 H 0.10565 0.43084 0.71645 0.0
H676 H 0.12189 0.52134 0.80653 0.0
C677 C 0.22898 0.48666 0.93622 0.0
C678 C 0.24544 0.46068 0.9587 0.0
C679 C 0.23808 0.4326 0.92308 0.0
C680 C 0.2131 0.43014 0.87049 0.0
C681 C 0.19574 0.45594 0.85509 0.0
C682 C 0.20372 0.48372 0.88668 0.0
C683 C 0.17951 0.50717 0.87243 0.0
C684 C 0.1661 0.51852 0.95354 0.0
C685 C 0.19179 0.53349 0.82023 0.0
C686 C 0.15666 0.48855 0.82686 0.0
C687 C 0.1662 0.45907 0.81683 0.0
C688 C 0.1479 0.43774 0.77838 0.0
C689 C 0.11957 0.44705 0.74823 0.0
C690 C 0.10977 0.47734 0.75743 0.0
C691 C 0.12862 0.49803 0.79812 0.0
H692 H 0.05308 0.7737 0.24233 0.0
H693 H 0.95963 0.74426 0.25546 0.0
H694 H 0.94739 0.78786 0.34354 0.0
H695 H 0.05838 0.81091 0.44836 0.0
H696 H 0.08116 0.84099 0.40533 0.0
H697 H 0.08346 0.80347 0.36367 0.0
H698 H 0.07118 0.82565 0.22171 0.0
H699 H 0.0675 0.86299 0.2631 0.0
H700 H 0.03656 0.84647 0.20792 0.0
H701 H 0.94375 0.8406 0.40706 0.0
H702 H 0.95058 0.89317 0.45529 0.0
H703 H 0.04599 0.88869 0.3912 0.0
C704 C 0.03047 0.77542 0.26809 0.0
C705 C 0.00744 0.75526 0.24349 0.0
C706 C 0.97779 0.7589 0.27539 0.0
C707 C 0.97056 0.78396 0.32437 0.0
C708 C 0.9933 0.80503 0.34101 0.0
C709 C 0.02285 0.80058 0.31511 0.0
C710 C 0.04236 0.82809 0.3311 0.0
C711 C 0.06784 0.8204 0.3907 0.0
C712 C 0.05514 0.84158 0.25122 0.0
C713 C 0.01923 0.84895 0.36923 0.0
C714 C 0.99104 0.83538 0.37473 0.0
C715 C 0.96588 0.85117 0.40409 0.0
C716 C 0.96987 0.88117 0.43045 0.0
C717 C 0.9988 0.89514 0.42701 0.0
C718 C 0.02359 0.87871 0.39513 0.0
H719 H 0.73292 0.98557 0.20831 0.0
H720 H 0.74664 0.89424 0.29522 0.0
H721 H 0.70503 0.90083 0.39607 0.0
H722 H 0.70801 0.02072 0.40418 0.0
H723 H 0.68013 0.04335 0.3528 0.0
H724 H 0.71471 0.03312 0.30093 0.0
H725 H 0.68296 0.01016 0.18462 0.0
H726 H 0.64833 0.01939 0.23723 0.0
H727 H 0.65568 0.98089 0.20786 0.0
H728 H 0.65791 0.91575 0.47521 0.0
H729 H 0.61119 0.93849 0.53158 0.0
H730 H 0.62701 0.01891 0.38445 0.0
C731 C 0.72817 0.96763 0.25174 0.0
C732 C 0.7436 0.93987 0.24696 0.0
C733 C 0.7357 0.91602 0.3007 0.0
C734 C 0.71195 0.91951 0.35732 0.0
C735 C 0.69622 0.94683 0.35813 0.0
C736 C 0.70422 0.97058 0.30714 0.0
C737 C 0.68176 0.99624 0.31294 0.0
C738 C 0.69707 0.02506 0.34464 0.0
C739 C 0.66628 0.00199 0.23079 0.0
C740 C 0.65973 0.98325 0.37476 0.0
C741 C 0.66845 0.95481 0.40051 0.0
C742 C 0.65107 0.93813 0.45604 0.0
C743 C 0.62447 0.95116 0.48729 0.0
C744 C 0.61545 0.98049 0.46244 0.0
C745 C 0.63325 0.99647 0.4048 0.0
H746 H 0.54809 0.7389 0.31846 0.0
H747 H 0.46106 0.76983 0.23413 0.0
H748 H 0.43557 0.7313 0.31968 0.0
H749 H 0.53447 0.66808 0.29133 0.0
H750 H 0.55387 0.65192 0.37707 0.0
H751 H 0.56554 0.68802 0.33729 0.0
H752 H 0.55751 0.71348 0.47731 0.0
H753 H 0.54742 0.67705 0.51938 0.0
H754 H 0.52197 0.70854 0.53079 0.0
H755 H 0.42096 0.68146 0.38192 0.0
H756 H 0.41766 0.62924 0.43508 0.0
H757 H 0.51487 0.62894 0.47188 0.0
C758 C 0.52361 0.7391 0.32352 0.0
C759 C 0.50648 0.75763 0.27112 0.0
C760 C 0.4745 0.75643 0.27558 0.0
C761 C 0.45988 0.73418 0.32304 0.0
C762 C 0.47764 0.71378 0.3665 0.0
C763 C 0.50885 0.7166 0.36919 0.0
C764 C 0.52315 0.68908 0.40842 0.0
C765 C 0.54555 0.67337 0.35002 0.0
C766 C 0.53841 0.69755 0.48876 0.0
C767 C 0.49539 0.66974 0.4236 0.0
C768 C 0.4693 0.68448 0.40016 0.0
C769 C 0.44116 0.6701 0.40266 0.0
C770 C 0.43957 0.64031 0.43223 0.0
C771 C 0.46601 0.62505 0.45805 0.0
C772 C 0.49424 0.64001 0.453 0.0
H773 H 0.76574 0.58589 0.29314 0.0
H774 H 0.72701 0.5029 0.20158 0.0
H775 H 0.76335 0.47342 0.28286 0.0
H776 H 0.83734 0.56576 0.2665 0.0
H777 H 0.85343 0.58316 0.35509 0.0
H778 H 0.81928 0.59808 0.31212 0.0
H779 H 0.79077 0.59168 0.44957 0.0
H780 H 0.82517 0.57781 0.49444 0.0
H781 H 0.79098 0.55553 0.50071 0.0
H782 H 0.81023 0.45365 0.34991 0.0
H783 H 0.86009 0.44468 0.41215 0.0
H784 H 0.87059 0.54098 0.452 0.0
C785 C 0.76376 0.56148 0.29427 0.0
C786 C 0.74327 0.54666 0.242 0.0
C787 C 0.74194 0.51471 0.24262 0.0
C788 C 0.76285 0.49779 0.2878 0.0
C789 C 0.78469 0.51321 0.33246 0.0
C790 C 0.78483 0.54439 0.33767 0.0
C791 C 0.81295 0.55571 0.38048 0.0
C792 C 0.83184 0.57692 0.32522 0.0
C793 C 0.80446 0.57109 0.46109 0.0
C794 C 0.82926 0.5262 0.39538 0.0
C795 C 0.81238 0.50192 0.36839 0.0
C796 C 0.82333 0.47247 0.37259 0.0
C797 C 0.85179 0.46764 0.40743 0.0
C798 C 0.86926 0.49215 0.43664 0.0
C799 C 0.85789 0.52183 0.42962 0.0
loop_
_geom_bond_atom_site_label_1
_geom_bond_atom_site_label_2
_geom_bond_distance
_geom_bond_site_symmetry_2
_ccdc_geom_bond_type
H0 C3 0.931 . S
H1 C6 0.928 . S
H2 C8 0.930 . S
C3 H0 0.931 . S
C3 C4 1.413 . S
C3 C5 1.360 1_554 S
C4 C3 1.413 . S
C4 C8 1.429 . S
C5 C3 1.360 1_556 S
C5 C6 1.372 . S
C6 H1 0.928 . S
C6 C5 1.372 . S
C6 C7 1.404 1_556 S
C7 C6 1.404 1_554 S
C7 C8 1.391 . S
C8 H2 0.930 . S
C8 C4 1.429 . S
C8 C7 1.391 . S
H9 C12 0.931 . S
H10 C15 0.928 . S
H11 C17 0.930 . S
C12 H9 0.931 . S
C12 C13 1.413 . S
C12 C14 1.360 1_554 S
C13 C12 1.413 . S
C13 C17 1.429 . S
C14 C12 1.360 1_556 S
C14 C15 1.372 . S
C15 H10 0.928 . S
C15 C14 1.372 . S
C15 C16 1.404 1_556 S
C16 C15 1.404 1_554 S
C16 C17 1.391 . S
C17 H11 0.930 . S
C17 C13 1.429 . S
C17 C16 1.391 . S
H18 C21 0.931 . S
H19 C24 0.928 . S
H20 C26 0.930 . S
C21 H18 0.931 . S
C21 C22 1.413 . S
C21 C23 1.360 1_554 S
C22 C21 1.413 . S
C22 C26 1.429 . S
C23 C21 1.360 1_556 S
C23 C24 1.372 . S
C24 H19 0.928 . S
C24 C23 1.372 . S
C24 C25 1.404 1_556 S
C25 C24 1.404 1_554 S
C25 C26 1.391 . S
C26 H20 0.930 . S
C26 C22 1.429 . S
C26 C25 1.391 . S
H27 C30 0.931 . S
H28 C33 0.928 . S
H29 C35 0.930 . S
C30 H27 0.931 . S
C30 C31 1.413 1_554 S
C30 C32 1.360 . S
C31 C30 1.413 1_556 S
C31 C35 1.429 . S
C32 C30 1.360 . S
C32 C33 1.372 . S
C33 H28 0.928 . S
C33 C32 1.372 . S
C33 C34 1.404 . S
C34 C33 1.404 . S
C34 C35 1.391 1_554 S
C35 H29 0.930 . S
C35 C31 1.429 . S
C35 C34 1.391 1_556 S
H36 C39 0.931 . S
H37 C42 0.928 . S
H38 C44 0.930 . S
C39 H36 0.931 . S
C39 C40 1.413 . S
C39 C41 1.360 . S
C40 C39 1.413 . S
C40 C44 1.429 . S
C41 C39 1.360 . S
C41 C42 1.372 . S
C42 H37 0.928 . S
C42 C41 1.372 . S
C42 C43 1.404 . S
C43 C42 1.404 . S
C43 C44 1.391 . S
C44 H38 0.930 . S
C44 C40 1.429 . S
C44 C43 1.391 . S
H45 C48 0.931 . S
H46 C51 0.928 . S
H47 C53 0.930 . S
C48 H45 0.931 . S
C48 C49 1.413 . S
C48 C50 1.360 . S
C49 C48 1.413 . S
C49 C53 1.429 . S
C50 C48 1.360 . S
C50 C51 1.372 . S
C51 H46 0.928 . S
C51 C50 1.372 . S
C51 C52 1.404 . S
C52 C51 1.404 . S
C52 C53 1.391 . S
C53 H47 0.930 . S
C53 C49 1.429 . S
C53 C52 1.391 . S
H54 C57 0.931 . S
H55 C60 0.928 . S
H56 C62 0.930 . S
C57 H54 0.931 . S
C57 C58 1.413 . S
C57 C59 1.360 . S
C58 C57 1.413 . S
C58 C62 1.429 . S
C59 C57 1.360 . S
C59 C60 1.372 . S
C60 H55 0.928 . S
C60 C59 1.372 . S
C60 C61 1.404 . S
C61 C60 1.404 . S
C61 C62 1.391 . S
C62 H56 0.930 . S
C62 C58 1.429 . S
C62 C61 1.391 . S
H63 C66 0.931 . S
H64 C69 0.928 . S
H65 C71 0.930 . S
C66 H63 0.931 . S
C66 C67 1.413 . S
C66 C68 1.360 . S
C67 C66 1.413 . S
C67 C71 1.429 . S
C68 C66 1.360 . S
C68 C69 1.372 . S
C69 H64 0.928 . S
C69 C68 1.372 . S
C69 C70 1.404 . S
C70 C69 1.404 . S
C70 C71 1.391 . S
C71 H65 0.930 . S
C71 C67 1.429 . S
C71 C70 1.391 . S
Zn72 O78 1.969 . S
Zn72 O79 1.965 1_655 S
Zn72 O83 2.024 1_655 S
Zn72 O88 1.969 . S
Zn73 O80 1.969 . S
Zn73 O86 1.969 . S
Zn73 O87 1.965 1_455 S
Zn73 O89 2.024 1_455 S
C74 O75 1.229 1_455 S
C74 O83 1.058 . S
O75 C74 1.229 1_655 S
C76 O77 1.229 1_655 S
C76 O89 1.058 . S
O77 C76 1.229 1_455 S
O78 Zn72 1.969 . S
O78 C81 1.267 . S
O79 Zn72 1.965 1_455 S
O79 C90 1.260 . S
O80 Zn73 1.969 . S
O80 C90 1.258 1_565 S
C81 O78 1.267 . S
C81 O82 1.228 1_655 S
O82 C81 1.228 1_455 S
O83 Zn72 2.024 1_455 S
O83 C74 1.058 . S
C84 O85 1.228 1_455 S
C84 O86 1.267 . S
O85 C84 1.228 1_655 S
O86 Zn73 1.969 . S
O86 C84 1.267 . S
O87 Zn73 1.965 1_655 S
O87 C91 1.260 1_565 S
O88 Zn72 1.969 . S
O88 C91 1.258 . S
O89 Zn73 2.024 1_655 S
O89 C76 1.058 . S
C90 O79 1.260 . S
C90 O80 1.258 1_545 S
C91 O87 1.260 1_545 S
C91 O88 1.258 . S
Zn92 O98 1.969 1_545 S
Zn92 O99 1.965 . S
Zn92 O103 2.024 . S
Zn92 O108 1.969 1_545 S
Zn93 O100 1.969 1_565 S
Zn93 O106 1.969 1_565 S
Zn93 O107 1.965 . S
Zn93 O109 2.024 . S
C94 O95 1.253 . S
C94 O103 1.058 . S
O95 C94 1.253 . S
C96 O97 1.229 1_565 S
C96 O109 1.058 . S
O97 C96 1.229 1_545 S
O98 Zn92 1.969 1_565 S
O98 C101 1.267 1_565 S
O99 Zn92 1.965 . S
O99 C110 1.260 . S
O100 Zn93 1.969 1_545 S
O100 C110 1.258 . S
C101 O98 1.267 1_545 S
C101 O102 1.228 . S
O102 C101 1.228 . S
O103 Zn92 2.024 . S
O103 C94 1.058 . S
C104 O105 1.228 . S
C104 O106 1.267 1_565 S
O105 C104 1.228 . S
O106 Zn93 1.969 1_545 S
O106 C104 1.267 1_545 S
O107 Zn93 1.965 . S
O107 C111 1.260 . S
O108 Zn92 1.969 1_565 S
O108 C111 1.258 . S
O109 Zn93 2.024 . S
O109 C96 1.058 . S
C110 O99 1.260 . S
C110 O100 1.258 . S
C111 O107 1.260 . S
C111 O108 1.258 . S
Zn112 O118 1.969 . S
Zn112 O119 1.965 . S
Zn112 O123 2.024 . S
Zn112 O128 1.969 . S
Zn113 O120 1.969 . S
Zn113 O126 1.969 . S
Zn113 O127 1.965 . S
Zn113 O129 2.024 . S
C114 O115 1.229 . S
C114 O123 1.058 . S
O115 C114 1.229 . S
C116 O117 1.229 . S
C116 O129 1.058 . S
O117 C116 1.229 . S
O118 Zn112 1.969 . S
O118 C121 1.267 . S
O119 Zn112 1.965 . S
O119 C130 1.260 . S
O120 Zn113 1.969 . S
O120 C130 1.258 . S
C121 O118 1.267 . S
C121 O122 1.228 . S
O122 C121 1.228 . S
O123 Zn112 2.024 . S
O123 C114 1.058 . S
C124 O125 1.228 . S
C124 O126 1.267 . S
O125 C124 1.228 . S
O126 Zn113 1.969 . S
O126 C124 1.267 . S
O127 Zn113 1.965 . S
O127 C131 1.260 . S
O128 Zn112 1.969 . S
O128 C131 1.258 . S
O129 Zn113 2.024 . S
O129 C116 1.058 . S
C130 O119 1.260 . S
C130 O120 1.258 . S
C131 O127 1.260 . S
C131 O128 1.258 . S
Zn132 O138 1.969 . S
Zn132 O139 1.965 . S
Zn132 O143 2.024 . S
Zn132 O148 1.969 . S
Zn133 O140 1.969 . S
Zn133 O146 1.969 . S
Zn133 O147 1.965 . S
Zn133 O149 2.024 . S
C134 O135 1.229 . S
C134 O143 1.058 . S
O135 C134 1.229 . S
C136 O137 1.229 . S
C136 O149 1.058 . S
O137 C136 1.229 . S
O138 Zn132 1.969 . S
O138 C141 1.267 . S
O139 Zn132 1.965 . S
O139 C150 1.253 1_455 S
O140 Zn133 1.969 . S
O140 C150 1.267 . S
C141 O138 1.267 . S
C141 O142 1.228 . S
O142 C141 1.228 . S
O143 Zn132 2.024 . S
O143 C134 1.058 . S
C144 O145 1.228 . S
C144 O146 1.267 . S
O145 C144 1.228 . S
O146 Zn133 1.969 . S
O146 C144 1.267 . S
O147 Zn133 1.965 . S
O147 C151 1.260 1_655 S
O148 Zn132 1.969 . S
O148 C151 1.258 . S
O149 Zn133 2.024 . S
O149 C136 1.058 . S
C150 O139 1.253 1_655 S
C150 O140 1.267 . S
C151 O147 1.260 1_455 S
C151 O148 1.258 . S
H152 C164 0.930 . S
H153 C166 0.930 . S
H154 C167 0.930 . S
H155 C171 0.927 1_545 S
H156 C171 0.985 . S
H157 C171 0.971 . S
H158 C172 0.960 . S
H159 C172 0.961 . S
H160 C172 0.959 . S
H161 C175 0.929 . S
H162 C176 0.931 . S
H163 C178 0.930 1_565 S
C164 H152 0.930 . S
C164 C165 1.399 . S
C164 C169 1.399 . S
C165 C164 1.399 . S
C165 C166 1.376 . S
C166 H153 0.930 . S
C166 C165 1.376 . S
C166 C167 1.388 . S
C167 H154 0.930 . S
C167 C166 1.388 . S
C167 C168 1.390 . S
C168 C167 1.390 . S
C168 C169 1.394 . S
C168 C174 1.465 . S
C169 C164 1.399 . S
C169 C168 1.394 . S
C169 C170 1.516 . S
C170 C169 1.516 . S
C170 C171 1.498 1_545 S
C170 C172 1.561 1_545 S
C170 C173 1.526 . S
C171 H155 0.927 1_565 S
C171 H156 0.985 . S
C171 H157 0.971 . S
C171 C170 1.498 1_565 S
C172 H158 0.960 . S
C172 H159 0.961 . S
C172 H160 0.959 . S
C172 C170 1.561 1_565 S
C173 C170 1.526 . S
C173 C174 1.396 . S
C173 C178 1.390 . S
C174 C168 1.465 . S
C174 C173 1.396 . S
C174 C175 1.399 . S
C175 H161 0.929 . S
C175 C174 1.399 . S
C175 C176 1.385 . S
C176 H162 0.931 . S
C176 C175 1.385 . S
C176 C177 1.389 . S
C177 C176 1.389 . S
C177 C178 1.387 . S
C178 H163 0.930 1_545 S
C178 C173 1.390 . S
C178 C177 1.387 . S
H179 C191 0.930 . S
H180 C193 0.930 . S
H181 C194 0.930 . S
H182 C198 0.959 . S
H183 C198 0.959 . S
H184 C198 0.961 . S
H185 C199 0.960 . S
H186 C199 0.961 . S
H187 C199 0.959 . S
H188 C202 0.929 . S
H189 C203 0.931 . S
H190 C205 0.930 . S
C191 H179 0.930 . S
C191 C192 1.399 . S
C191 C196 1.399 . S
C192 C191 1.399 . S
C192 C193 1.376 . S
C193 H180 0.930 . S
C193 C192 1.376 . S
C193 C194 1.388 . S
C194 H181 0.930 . S
C194 C193 1.388 . S
C194 C195 1.390 . S
C195 C194 1.390 . S
C195 C196 1.394 . S
C195 C201 1.465 . S
C196 C191 1.399 . S
C196 C195 1.394 . S
C196 C197 1.516 . S
C197 C196 1.516 . S
C197 C198 1.502 . S
C197 C199 1.561 . S
C197 C200 1.526 . S
C198 H182 0.959 . S
C198 H183 0.959 . S
C198 H184 0.961 . S
C198 C197 1.502 . S
C199 H185 0.960 . S
C199 H186 0.961 . S
C199 H187 0.959 . S
C199 C197 1.561 . S
C200 C197 1.526 . S
C200 C201 1.396 . S
C200 C205 1.390 . S
C201 C195 1.465 . S
C201 C200 1.396 . S
C201 C202 1.399 . S
C202 H188 0.929 . S
C202 C201 1.399 . S
C202 C203 1.385 . S
C203 H189 0.931 . S
C203 C202 1.385 . S
C203 C204 1.389 . S
C204 C203 1.389 . S
C204 C205 1.387 . S
C205 H190 0.930 . S
C205 C200 1.390 . S
C205 C204 1.387 . S
H206 C218 0.930 . S
H207 C220 0.930 . S
H208 C221 0.930 . S
H209 C225 0.959 . S
H210 C225 0.959 . S
H211 C225 0.961 . S
H212 C226 0.960 . S
H213 C226 0.961 . S
H214 C226 0.959 . S
H215 C229 0.929 . S
H216 C230 0.931 . S
H217 C232 0.930 . S
C218 H206 0.930 . S
C218 C219 1.399 . S
C218 C223 1.399 . S
C219 C218 1.399 . S
C219 C220 1.376 . S
C220 H207 0.930 . S
C220 C219 1.376 . S
C220 C221 1.388 . S
C221 H208 0.930 . S
C221 C220 1.388 . S
C221 C222 1.390 . S
C222 C221 1.390 . S
C222 C223 1.394 . S
C222 C228 1.465 . S
C223 C218 1.399 . S
C223 C222 1.394 . S
C223 C224 1.516 . S
C224 C223 1.516 . S
C224 C225 1.502 . S
C224 C226 1.561 . S
C224 C227 1.526 . S
C225 H209 0.959 . S
C225 H210 0.959 . S
C225 H211 0.961 . S
C225 C224 1.502 . S
C226 H212 0.960 . S
C226 H213 0.961 . S
C226 H214 0.959 . S
C226 C224 1.561 . S
C227 C224 1.526 . S
C227 C228 1.396 . S
C227 C232 1.390 . S
C228 C222 1.465 . S
C228 C227 1.396 . S
C228 C229 1.399 . S
C229 H215 0.929 . S
C229 C228 1.399 . S
C229 C230 1.385 . S
C230 H216 0.931 . S
C230 C229 1.385 . S
C230 C231 1.389 . S
C231 C230 1.389 . S
C231 C232 1.387 . S
C232 H217 0.930 . S
C232 C227 1.390 . S
C232 C231 1.387 . S
H233 C245 0.930 . S
H234 C247 0.930 . S
H235 C248 0.930 . S
H236 C252 0.959 . S
H237 C252 0.959 . S
H238 C252 0.961 . S
H239 C253 0.960 . S
H240 C253 0.961 . S
H241 C253 0.959 . S
H242 C256 0.929 . S
H243 C257 0.931 . S
H244 C259 0.930 . S
C245 H233 0.930 . S
C245 C246 1.399 . S
C245 C250 1.399 . S
C246 C245 1.399 . S
C246 C247 1.376 1_455 S
C247 H234 0.930 . S
C247 C246 1.376 1_655 S
C247 C248 1.388 . S
C248 H235 0.930 . S
C248 C247 1.388 . S
C248 C249 1.390 . S
C249 C248 1.390 . S
C249 C250 1.394 1_655 S
C249 C255 1.465 . S
C250 C245 1.399 . S
C250 C249 1.394 1_455 S
C250 C251 1.516 . S
C251 C250 1.516 . S
C251 C252 1.502 . S
C251 C253 1.561 . S
C251 C254 1.526 . S
C252 H236 0.959 . S
C252 H237 0.959 . S
C252 H238 0.961 . S
C252 C251 1.502 . S
C253 H239 0.960 . S
C253 H240 0.961 . S
C253 H241 0.959 . S
C253 C251 1.561 . S
C254 C251 1.526 . S
C254 C255 1.396 1_455 S
C254 C259 1.390 . S
C255 C249 1.465 . S
C255 C254 1.396 1_655 S
C255 C256 1.399 . S
C256 H242 0.929 . S
C256 C255 1.399 . S
C256 C257 1.385 . S
C257 H243 0.931 . S
C257 C256 1.385 . S
C257 C258 1.381 1_655 S
C258 C257 1.381 1_455 S
C258 C259 1.394 . S
C259 H244 0.930 . S
C259 C254 1.390 . S
C259 C258 1.394 . S
H260 C272 0.930 1_554 S
H261 C274 0.930 . S
H262 C275 0.930 1_545 S
H263 C279 0.959 . S
H264 C279 0.959 . S
H265 C279 0.961 . S
H266 C280 0.960 . S
H267 C280 0.961 . S
H268 C280 0.959 . S
H269 C283 0.929 . S
H270 C284 0.931 . S
H271 C286 0.930 . S
C272 H260 0.930 1_556 S
C272 C273 1.399 . S
C272 C277 1.399 . S
C273 C272 1.399 . S
C273 C274 1.376 . S
C274 H261 0.930 . S
C274 C273 1.376 . S
C274 C275 1.388 . S
C275 H262 0.930 1_565 S
C275 C274 1.388 . S
C275 C276 1.390 . S
C276 C275 1.390 . S
C276 C277 1.394 . S
C276 C282 1.465 . S
C277 C272 1.399 . S
C277 C276 1.394 . S
C277 C278 1.516 . S
C278 C277 1.516 . S
C278 C279 1.502 . S
C278 C280 1.561 . S
C278 C281 1.526 . S
C279 H263 0.959 . S
C279 H264 0.959 . S
C279 H265 0.961 . S
C279 C278 1.502 . S
C280 H266 0.960 . S
C280 H267 0.961 . S
C280 H268 0.959 . S
C280 C278 1.561 . S
C281 C278 1.526 . S
C281 C282 1.396 . S
C281 C286 1.390 . S
C282 C276 1.465 . S
C282 C281 1.396 . S
C282 C283 1.399 1_565 S
C283 H269 0.929 . S
C283 C282 1.399 1_545 S
C283 C284 1.385 . S
C284 H270 0.931 . S
C284 C283 1.385 . S
C284 C285 1.389 1_545 S
C285 C284 1.389 1_565 S
C285 C286 1.387 . S
C286 H271 0.930 . S
C286 C281 1.390 . S
C286 C285 1.387 . S
H287 C299 0.930 . S
H288 C301 0.930 . S
H289 C302 0.930 . S
H290 C306 0.959 . S
H291 C306 0.959 . S
H292 C306 0.961 . S
H293 C307 0.960 . S
H294 C307 0.961 . S
H295 C307 0.959 . S
H296 C310 0.929 . S
H297 C311 0.931 . S
H298 C313 0.930 . S
C299 H287 0.930 . S
C299 C300 1.398 . S
C299 C304 1.399 . S
C300 C299 1.398 . S
C300 C301 1.377 1_556 S
C301 H288 0.930 . S
C301 C300 1.377 1_554 S
C301 C302 1.388 1_554 S
C302 H289 0.930 . S
C302 C301 1.388 1_556 S
C302 C303 1.390 . S
C303 C302 1.390 . S
C303 C304 1.394 . S
C303 C309 1.465 . S
C304 C299 1.399 . S
C304 C303 1.394 . S
C304 C305 1.516 . S
C305 C304 1.516 . S
C305 C306 1.502 . S
C305 C307 1.561 . S
C305 C308 1.526 . S
C306 H290 0.959 . S
C306 H291 0.959 . S
C306 H292 0.961 . S
C306 C305 1.502 . S
C307 H293 0.960 . S
C307 H294 0.961 . S
C307 H295 0.959 . S
C307 C305 1.561 . S
C308 C305 1.526 . S
C308 C309 1.396 . S
C308 C313 1.390 . S
C309 C303 1.465 . S
C309 C308 1.396 . S
C309 C310 1.399 . S
C310 H296 0.929 . S
C310 C309 1.399 . S
C310 C311 1.385 . S
C311 H297 0.931 . S
C311 C310 1.385 . S
C311 C312 1.389 . S
C312 C311 1.389 . S
C312 C313 1.387 . S
C313 H298 0.930 . S
C313 C308 1.390 . S
C313 C312 1.387 . S
H314 C326 0.930 . S
H315 C328 0.930 . S
H316 C329 0.930 1_554 S
H317 C333 0.959 . S
H318 C333 0.959 . S
H319 C333 0.961 . S
H320 C334 0.960 . S
H321 C334 0.961 . S
H322 C334 0.959 . S
H323 C337 0.929 . S
H324 C338 0.931 . S
H325 C340 0.930 . S
C326 H314 0.930 . S
C326 C327 1.399 . S
C326 C331 1.399 . S
C327 C326 1.399 . S
C327 C328 1.376 1_556 S
C328 H315 0.930 . S
C328 C327 1.376 1_554 S
C328 C329 1.388 1_554 S
C329 H316 0.930 1_556 S
C329 C328 1.388 1_556 S
C329 C330 1.390 . S
C330 C329 1.390 . S
C330 C331 1.394 . S
C330 C336 1.465 . S
C331 C326 1.399 . S
C331 C330 1.394 . S
C331 C332 1.516 . S
C332 C331 1.516 . S
C332 C333 1.502 . S
C332 C334 1.561 . S
C332 C335 1.526 . S
C333 H317 0.959 . S
C333 H318 0.959 . S
C333 H319 0.961 . S
C333 C332 1.502 . S
C334 H320 0.960 . S
C334 H321 0.961 . S
C334 H322 0.959 . S
C334 C332 1.561 . S
C335 C332 1.526 . S
C335 C336 1.396 . S
C335 C340 1.390 . S
C336 C330 1.465 . S
C336 C335 1.396 . S
C336 C337 1.399 . S
C337 H323 0.929 . S
C337 C336 1.399 . S
C337 C338 1.385 . S
C338 H324 0.931 . S
C338 C337 1.385 . S
C338 C339 1.389 . S
C339 C338 1.389 . S
C339 C340 1.387 . S
C340 H325 0.930 . S
C340 C335 1.390 . S
C340 C339 1.387 . S
H341 C353 0.930 1_554 S
H342 C355 0.930 . S
H343 C356 0.930 . S
H344 C360 0.959 . S
H345 C360 0.959 . S
H346 C360 0.961 . S
H347 C361 0.960 1_554 S
H348 C361 0.961 . S
H349 C361 0.959 . S
H350 C364 0.929 . S
H351 C365 0.931 . S
H352 C367 0.930 . S
C353 H341 0.930 1_556 S
C353 C354 1.399 1_455 S
C353 C358 1.399 . S
C354 C353 1.399 1_655 S
C354 C355 1.376 . S
C355 H342 0.930 . S
C355 C354 1.376 . S
C355 C356 1.388 . S
C356 H343 0.930 . S
C356 C355 1.388 . S
C356 C357 1.390 . S
C357 C356 1.390 . S
C357 C358 1.394 1_655 S
C357 C363 1.465 . S
C358 C353 1.399 . S
C358 C357 1.394 1_455 S
C358 C359 1.516 . S
C359 C358 1.516 . S
C359 C360 1.502 . S
C359 C361 1.561 1_455 S
C359 C362 1.526 . S
C360 H344 0.959 . S
C360 H345 0.959 . S
C360 H346 0.961 . S
C360 C359 1.502 . S
C361 H347 0.960 1_556 S
C361 H348 0.961 . S
C361 H349 0.959 . S
C361 C359 1.561 1_655 S
C362 C359 1.526 . S
C362 C363 1.396 1_455 S
C362 C367 1.390 . S
C363 C357 1.465 . S
C363 C362 1.396 1_655 S
C363 C364 1.399 . S
C364 H350 0.929 . S
C364 C363 1.399 . S
C364 C365 1.385 . S
C365 H351 0.931 . S
C365 C364 1.385 . S
C365 C366 1.389 1_655 S
C366 C365 1.389 1_455 S
C366 C367 1.387 . S
C367 H352 0.930 . S
C367 C362 1.390 . S
C367 C366 1.387 . S
H368 C380 0.930 . S
H369 C382 0.930 . S
H370 C383 0.930 . S
H371 C387 0.959 . S
H372 C387 0.959 . S
H373 C387 0.961 . S
H374 C388 0.960 . S
H375 C388 0.961 1_655 S
H376 C388 0.959 . S
H377 C391 0.929 . S
H378 C392 0.931 1_455 S
H379 C394 0.930 . S
C380 H368 0.930 . S
C380 C381 1.399 1_655 S
C380 C385 1.399 . S
C381 C380 1.399 1_455 S
C381 C382 1.376 . S
C382 H369 0.930 . S
C382 C381 1.376 . S
C382 C383 1.388 . S
C383 H370 0.930 . S
C383 C382 1.388 . S
C383 C384 1.390 . S
C384 C383 1.390 . S
C384 C385 1.394 1_455 S
C384 C390 1.463 1_455 S
C385 C380 1.399 . S
C385 C384 1.394 1_655 S
C385 C386 1.516 . S
C386 C385 1.516 . S
C386 C387 1.502 . S
C386 C388 1.561 1_655 S
C386 C389 1.526 . S
C387 H371 0.959 . S
C387 H372 0.959 . S
C387 H373 0.961 . S
C387 C386 1.502 . S
C388 H374 0.960 . S
C388 H375 0.961 1_455 S
C388 H376 0.959 . S
C388 C386 1.561 1_455 S
C389 C386 1.526 . S
C389 C390 1.402 . S
C389 C394 1.390 . S
C390 C384 1.463 1_655 S
C390 C389 1.402 . S
C390 C391 1.396 1_655 S
C391 H377 0.929 . S
C391 C390 1.396 1_455 S
C391 C392 1.385 1_455 S
C392 H378 0.931 1_655 S
C392 C391 1.385 1_655 S
C392 C393 1.389 . S
C393 C392 1.389 . S
C393 C394 1.387 . S
C394 H379 0.930 . S
C394 C389 1.390 . S
C394 C393 1.387 . S
H395 C407 0.930 . S
H396 C409 0.930 . S
H397 C410 0.930 . S
H398 C414 0.959 . S
H399 C414 0.959 . S
H400 C414 0.961 . S
H401 C415 0.960 . S
H402 C415 0.961 . S
H403 C415 0.959 . S
H404 C418 0.929 . S
H405 C419 0.931 . S
H406 C421 0.930 . S
C407 H395 0.930 . S
C407 C408 1.399 . S
C407 C412 1.399 . S
C408 C407 1.399 . S
C408 C409 1.376 . S
C409 H396 0.930 . S
C409 C408 1.376 . S
C409 C410 1.388 . S
C410 H397 0.930 . S
C410 C409 1.388 . S
C410 C411 1.390 . S
C411 C410 1.390 . S
C411 C412 1.394 . S
C411 C417 1.465 . S
C412 C407 1.399 . S
C412 C411 1.394 . S
C412 C413 1.516 1_545 S
C413 C412 1.516 1_565 S
C413 C414 1.502 . S
C413 C415 1.561 . S
C413 C416 1.526 1_565 S
C414 H398 0.959 . S
C414 H399 0.959 . S
C414 H400 0.961 . S
C414 C413 1.502 . S
C415 H401 0.960 . S
C415 H402 0.961 . S
C415 H403 0.959 . S
C415 C413 1.561 . S
C416 C413 1.526 1_545 S
C416 C417 1.396 . S
C416 C421 1.390 1_545 S
C417 C411 1.465 . S
C417 C416 1.396 . S
C417 C418 1.399 . S
C418 H404 0.929 . S
C418 C417 1.399 . S
C418 C419 1.385 . S
C419 H405 0.931 . S
C419 C418 1.385 . S
C419 C420 1.389 . S
C420 C419 1.389 . S
C420 C421 1.387 1_545 S
C421 H406 0.930 . S
C421 C416 1.390 1_565 S
C421 C420 1.387 1_565 S
H422 C434 0.930 . S
H423 C436 0.930 . S
H424 C437 0.930 . S
H425 C441 0.959 . S
H426 C441 0.959 . S
H427 C441 0.961 . S
H428 C442 0.960 . S
H429 C442 0.961 . S
H430 C442 0.959 . S
H431 C445 0.929 . S
H432 C446 0.931 . S
H433 C448 0.930 . S
C434 H422 0.930 . S
C434 C435 1.399 . S
C434 C439 1.399 . S
C435 C434 1.399 . S
C435 C436 1.376 . S
C436 H423 0.930 . S
C436 C435 1.376 . S
C436 C437 1.388 . S
C437 H424 0.930 . S
C437 C436 1.388 . S
C437 C438 1.390 . S
C438 C437 1.390 . S
C438 C439 1.394 . S
C438 C444 1.465 . S
C439 C434 1.399 . S
C439 C438 1.394 . S
C439 C440 1.516 . S
C440 C439 1.516 . S
C440 C441 1.502 . S
C440 C442 1.561 . S
C440 C443 1.526 . S
C441 H425 0.959 . S
C441 H426 0.959 . S
C441 H427 0.961 . S
C441 C440 1.502 . S
C442 H428 0.960 . S
C442 H429 0.961 . S
C442 H430 0.959 . S
C442 C440 1.561 . S
C443 C440 1.526 . S
C443 C444 1.396 . S
C443 C448 1.390 . S
C444 C438 1.465 . S
C444 C443 1.396 . S
C444 C445 1.399 . S
C445 H431 0.929 . S
C445 C444 1.399 . S
C445 C446 1.385 . S
C446 H432 0.931 . S
C446 C445 1.385 . S
C446 C447 1.389 . S
C447 C446 1.389 . S
C447 C448 1.387 . S
C448 H433 0.930 . S
C448 C443 1.390 . S
C448 C447 1.387 . S
H449 C461 0.930 . S
H450 C463 0.930 . S
H451 C464 0.930 . S
H452 C468 0.959 . S
H453 C468 0.959 . S
H454 C468 0.961 . S
H455 C469 0.960 . S
H456 C469 0.961 . S
H457 C469 0.959 . S
H458 C472 0.929 . S
H459 C473 0.931 . S
H460 C475 0.930 . S
C461 H449 0.930 . S
C461 C462 1.399 . S
C461 C466 1.399 . S
C462 C461 1.399 . S
C462 C463 1.376 . S
C463 H450 0.930 . S
C463 C462 1.376 . S
C463 C464 1.388 . S
C464 H451 0.930 . S
C464 C463 1.388 . S
C464 C465 1.390 . S
C465 C464 1.390 . S
C465 C466 1.394 . S
C465 C471 1.465 . S
C466 C461 1.399 . S
C466 C465 1.394 . S
C466 C467 1.516 . S
C467 C466 1.516 . S
C467 C468 1.502 . S
C467 C469 1.561 . S
C467 C470 1.526 . S
C468 H452 0.959 . S
C468 H453 0.959 . S
C468 H454 0.961 . S
C468 C467 1.502 . S
C469 H455 0.960 . S
C469 H456 0.961 . S
C469 H457 0.959 . S
C469 C467 1.561 . S
C470 C467 1.526 . S
C470 C471 1.396 . S
C470 C475 1.390 . S
C471 C465 1.465 . S
C471 C470 1.396 . S
C471 C472 1.399 . S
C472 H458 0.929 . S
C472 C471 1.399 . S
C472 C473 1.385 . S
C473 H459 0.931 . S
C473 C472 1.385 . S
C473 C474 1.389 . S
C474 C473 1.389 . S
C474 C475 1.387 . S
C475 H460 0.930 . S
C475 C470 1.390 . S
C475 C474 1.387 . S
H476 C488 0.930 . S
H477 C490 0.930 1_554 S
H478 C491 0.930 . S
H479 C495 0.959 . S
H480 C495 0.959 . S
H481 C495 0.961 . S
H482 C496 0.960 . S
H483 C496 0.961 . S
H484 C496 0.959 1_655 S
H485 C499 0.929 . S
H486 C500 0.931 . S
H487 C502 0.930 . S
C488 H476 0.930 . S
C488 C489 1.399 1_455 S
C488 C493 1.399 . S
C489 C488 1.399 1_655 S
C489 C490 1.376 . S
C490 H477 0.930 1_556 S
C490 C489 1.376 . S
C490 C491 1.388 . S
C491 H478 0.930 . S
C491 C490 1.388 . S
C491 C492 1.390 . S
C492 C491 1.390 . S
C492 C493 1.394 1_655 S
C492 C498 1.465 . S
C493 C488 1.399 . S
C493 C492 1.394 1_455 S
C493 C494 1.516 . S
C494 C493 1.516 . S
C494 C495 1.502 . S
C494 C496 1.561 . S
C494 C497 1.526 . S
C495 H479 0.959 . S
C495 H480 0.959 . S
C495 H481 0.961 . S
C495 C494 1.502 . S
C496 H482 0.960 . S
C496 H483 0.961 . S
C496 H484 0.959 1_455 S
C496 C494 1.561 . S
C497 C494 1.526 . S
C497 C498 1.396 1_455 S
C497 C502 1.390 . S
C498 C492 1.465 . S
C498 C497 1.396 1_655 S
C498 C499 1.399 . S
C499 H485 0.929 . S
C499 C498 1.399 . S
C499 C500 1.385 . S
C500 H486 0.931 . S
C500 C499 1.385 . S
C500 C501 1.389 1_655 S
C501 C500 1.389 1_455 S
C501 C502 1.387 . S
C502 H487 0.930 . S
C502 C497 1.390 . S
C502 C501 1.387 . S
H503 C515 0.930 . S
H504 C517 0.930 . S
H505 C518 0.930 . S
H506 C522 0.959 . S
H507 C522 0.959 . S
H508 C522 0.961 . S
H509 C523 0.960 . S
H510 C523 0.961 . S
H511 C523 0.959 . S
H512 C526 0.929 . S
H513 C527 0.931 . S
H514 C529 0.930 . S
C515 H503 0.930 . S
C515 C516 1.399 . S
C515 C520 1.399 . S
C516 C515 1.399 . S
C516 C517 1.376 . S
C517 H504 0.930 . S
C517 C516 1.376 . S
C517 C518 1.388 . S
C518 H505 0.930 . S
C518 C517 1.388 . S
C518 C519 1.390 . S
C519 C518 1.390 . S
C519 C520 1.394 . S
C519 C525 1.465 . S
C520 C515 1.399 . S
C520 C519 1.394 . S
C520 C521 1.516 1_565 S
C521 C520 1.516 1_545 S
C521 C522 1.502 . S
C521 C523 1.561 . S
C521 C524 1.516 1_545 S
C522 H506 0.959 . S
C522 H507 0.959 . S
C522 H508 0.961 . S
C522 C521 1.502 . S
C523 H509 0.960 . S
C523 H510 0.961 . S
C523 H511 0.959 . S
C523 C521 1.561 . S
C524 C521 1.516 1_565 S
C524 C525 1.423 . S
C524 C529 1.377 1_565 S
C525 C519 1.465 . S
C525 C524 1.423 . S
C525 C526 1.399 . S
C526 H512 0.929 . S
C526 C525 1.399 . S
C526 C527 1.385 . S
C527 H513 0.931 . S
C527 C526 1.385 . S
C527 C528 1.389 . S
C528 C527 1.389 . S
C528 C529 1.387 1_565 S
C529 H514 0.930 . S
C529 C524 1.377 1_545 S
C529 C528 1.387 1_545 S
H530 C542 0.930 . S
H531 C544 0.930 . S
H532 C545 0.930 1_554 S
H533 C549 0.959 . S
H534 C549 0.959 . S
H535 C549 0.961 . S
H536 C550 0.960 . S
H537 C550 0.961 . S
H538 C550 0.959 . S
H539 C553 0.929 . S
H540 C554 0.931 . S
H541 C556 0.930 . S
C542 H530 0.930 . S
C542 C543 1.399 . S
C542 C547 1.399 . S
C543 C542 1.399 . S
C543 C544 1.376 1_556 S
C544 H531 0.930 . S
C544 C543 1.376 1_554 S
C544 C545 1.388 1_554 S
C545 H532 0.930 1_556 S
C545 C544 1.388 1_556 S
C545 C546 1.390 . S
C546 C545 1.390 . S
C546 C547 1.394 . S
C546 C552 1.465 . S
C547 C542 1.399 . S
C547 C546 1.394 . S
C547 C548 1.516 . S
C548 C547 1.516 . S
C548 C549 1.502 . S
C548 C550 1.561 . S
C548 C551 1.526 . S
C549 H533 0.959 . S
C549 H534 0.959 . S
C549 H535 0.961 . S
C549 C548 1.502 . S
C550 H536 0.960 . S
C550 H537 0.961 . S
C550 H538 0.959 . S
C550 C548 1.561 . S
C551 C548 1.526 . S
C551 C552 1.396 . S
C551 C556 1.390 . S
C552 C546 1.465 . S
C552 C551 1.396 . S
C552 C553 1.399 . S
C553 H539 0.929 . S
C553 C552 1.399 . S
C553 C554 1.385 . S
C554 H540 0.931 . S
C554 C553 1.385 . S
C554 C555 1.389 . S
C555 C554 1.389 . S
C555 C556 1.387 . S
C556 H541 0.930 . S
C556 C551 1.390 . S
C556 C555 1.387 . S
H557 C569 0.930 . S
H558 C571 0.930 1_554 S
H559 C572 0.937 . S
H560 C576 0.959 . S
H561 C576 0.959 . S
H562 C576 0.961 . S
H563 C577 0.960 . S
H564 C577 0.961 . S
H565 C577 0.959 . S
H566 C580 0.929 . S
H567 C581 0.931 . S
H568 C583 0.930 . S
C569 H557 0.930 . S
C569 C570 1.399 . S
C569 C574 1.399 . S
C570 C569 1.399 . S
C570 C571 1.376 . S
C571 H558 0.930 1_556 S
C571 C570 1.376 . S
C571 C572 1.388 . S
C572 H559 0.937 . S
C572 C571 1.388 . S
C572 C573 1.390 . S
C573 C572 1.390 . S
C573 C574 1.394 . S
C573 C579 1.465 . S
C574 C569 1.399 . S
C574 C573 1.394 . S
C574 C575 1.516 . S
C575 C574 1.516 . S
C575 C576 1.502 . S
C575 C577 1.561 . S
C575 C578 1.526 . S
C576 H560 0.959 . S
C576 H561 0.959 . S
C576 H562 0.961 . S
C576 C575 1.502 . S
C577 H563 0.960 . S
C577 H564 0.961 . S
C577 H565 0.959 . S
C577 C575 1.561 . S
C578 C575 1.526 . S
C578 C579 1.396 . S
C578 C583 1.390 . S
C579 C573 1.465 . S
C579 C578 1.396 . S
C579 C580 1.399 . S
C580 H566 0.929 . S
C580 C579 1.399 . S
C580 C581 1.385 . S
C581 H567 0.931 . S
C581 C580 1.385 . S
C581 C582 1.389 . S
C582 C581 1.389 . S
C582 C583 1.387 . S
C583 H568 0.930 . S
C583 C578 1.390 . S
C583 C582 1.387 . S
H584 C596 0.916 1_654 S
H585 C598 0.930 . S
H586 C599 0.930 . S
H587 C603 0.959 . S
H588 C603 0.959 . S
H589 C603 0.961 . S
H590 C604 0.960 1_554 S
H591 C604 0.961 . S
H592 C604 0.959 . S
H593 C607 0.929 . S
H594 C608 0.931 . S
H595 C610 0.930 . S
C596 H584 0.916 1_456 S
C596 C597 1.404 . S
C596 C601 1.408 . S
C597 C596 1.404 . S
C597 C598 1.376 . S
C598 H585 0.930 . S
C598 C597 1.376 . S
C598 C599 1.388 . S
C599 H586 0.930 . S
C599 C598 1.388 . S
C599 C600 1.390 . S
C600 C599 1.390 . S
C600 C601 1.394 . S
C600 C606 1.465 . S
C601 C596 1.408 . S
C601 C600 1.394 . S
C601 C602 1.516 1_455 S
C602 C601 1.516 1_655 S
C602 C603 1.502 1_656 S
C602 C604 1.561 . S
C602 C605 1.526 1_655 S
C603 H587 0.959 . S
C603 H588 0.959 . S
C603 H589 0.961 . S
C603 C602 1.502 1_454 S
C604 H590 0.960 1_556 S
C604 H591 0.961 . S
C604 H592 0.959 . S
C604 C602 1.561 . S
C605 C602 1.526 1_455 S
C605 C606 1.396 . S
C605 C610 1.390 . S
C606 C600 1.465 . S
C606 C605 1.396 . S
C606 C607 1.399 . S
C607 H593 0.929 . S
C607 C606 1.399 . S
C607 C608 1.385 . S
C608 H594 0.931 . S
C608 C607 1.385 . S
C608 C609 1.389 . S
C609 C608 1.389 . S
C609 C610 1.387 . S
C610 H595 0.930 . S
C610 C605 1.390 . S
C610 C609 1.387 . S
H611 C623 0.930 . S
H612 C625 0.930 . S
H613 C626 0.930 1_564 S
H614 C630 0.959 . S
H615 C630 0.959 . S
H616 C630 0.961 . S
H617 C631 0.960 . S
H618 C631 0.961 . S
H619 C631 0.959 . S
H620 C634 0.929 1_565 S
H621 C635 0.931 1_565 S
H622 C637 0.930 . S
C623 H611 0.930 . S
C623 C624 1.399 1_556 S
C623 C628 1.399 . S
C624 C623 1.399 1_554 S
C624 C625 1.376 . S
C625 H612 0.930 . S
C625 C624 1.376 . S
C625 C626 1.388 1_554 S
C626 H613 0.930 1_546 S
C626 C625 1.388 1_556 S
C626 C627 1.390 . S
C627 C626 1.390 . S
C627 C628 1.394 . S
C627 C633 1.465 . S
C628 C623 1.399 . S
C628 C627 1.394 . S
C628 C629 1.516 . S
C629 C628 1.516 . S
C629 C630 1.502 . S
C629 C631 1.561 . S
C629 C632 1.526 . S
C630 H614 0.959 . S
C630 H615 0.959 . S
C630 H616 0.961 . S
C630 C629 1.502 . S
C631 H617 0.960 . S
C631 H618 0.961 . S
C631 H619 0.959 . S
C631 C629 1.561 . S
C632 C629 1.526 . S
C632 C633 1.396 . S
C632 C637 1.390 . S
C633 C627 1.465 . S
C633 C632 1.396 . S
C633 C634 1.399 . S
C634 H620 0.929 1_545 S
C634 C633 1.399 . S
C634 C635 1.385 . S
C635 H621 0.931 1_545 S
C635 C634 1.385 . S
C635 C636 1.389 . S
C636 C635 1.389 . S
C636 C637 1.387 . S
C637 H622 0.930 . S
C637 C632 1.390 . S
C637 C636 1.387 . S
H638 C650 0.930 . S
H639 C652 0.930 . S
H640 C653 0.930 . S
H641 C657 0.959 1_556 S
H642 C657 0.959 . S
H643 C657 0.961 . S
H644 C658 0.960 . S
H645 C658 0.961 . S
H646 C658 0.959 . S
H647 C661 0.929 . S
H648 C662 0.931 . S
H649 C664 0.930 . S
C650 H638 0.930 . S
C650 C651 1.396 1_554 S
C650 C655 1.399 1_554 S
C651 C650 1.396 1_556 S
C651 C652 1.386 . S
C652 H639 0.930 . S
C652 C651 1.386 . S
C652 C653 1.388 . S
C653 H640 0.930 . S
C653 C652 1.388 . S
C653 C654 1.390 . S
C654 C653 1.390 . S
C654 C655 1.394 . S
C654 C660 1.465 . S
C655 C650 1.399 1_556 S
C655 C654 1.394 . S
C655 C656 1.516 . S
C656 C655 1.516 . S
C656 C657 1.502 1_556 S
C656 C658 1.561 1_556 S
C656 C659 1.526 . S
C657 H641 0.959 1_554 S
C657 H642 0.959 . S
C657 H643 0.961 . S
C657 C656 1.502 1_554 S
C658 H644 0.960 . S
C658 H645 0.961 . S
C658 H646 0.959 . S
C658 C656 1.561 1_554 S
C659 C656 1.526 . S
C659 C660 1.396 . S
C659 C664 1.390 . S
C660 C654 1.465 . S
C660 C659 1.396 . S
C660 C661 1.399 . S
C661 H647 0.929 . S
C661 C660 1.399 . S
C661 C662 1.385 . S
C662 H648 0.931 . S
C662 C661 1.385 . S
C662 C663 1.389 . S
C663 C662 1.389 . S
C663 C664 1.387 . S
C664 H649 0.930 . S
C664 C659 1.390 . S
C664 C663 1.387 . S
H665 C677 0.930 . S
H666 C679 0.930 . S
H667 C680 0.930 . S
H668 C684 0.959 1_556 S
H669 C684 0.959 . S
H670 C684 0.961 . S
H671 C685 0.960 1_554 S
H672 C685 0.959 1_554 S
H673 C685 0.959 . S
H674 C688 0.929 . S
H675 C689 0.931 . S
H676 C691 0.930 . S
C677 H665 0.930 . S
C677 C678 1.399 1_554 S
C677 C682 1.399 1_554 S
C678 C677 1.399 1_556 S
C678 C679 1.376 . S
C679 H666 0.930 . S
C679 C678 1.376 . S
C679 C680 1.388 . S
C680 H667 0.930 . S
C680 C679 1.388 . S
C680 C681 1.390 . S
C681 C680 1.390 . S
C681 C682 1.394 . S
C681 C687 1.465 . S
C682 C677 1.399 1_556 S
C682 C681 1.394 . S
C682 C683 1.516 . S
C683 C682 1.516 . S
C683 C684 1.502 1_556 S
C683 C685 1.561 . S
C683 C686 1.526 . S
C684 H668 0.959 1_554 S
C684 H669 0.959 . S
C684 H670 0.961 . S
C684 C683 1.502 1_554 S
C685 H671 0.960 1_556 S
C685 H672 0.959 1_556 S
C685 H673 0.959 . S
C685 C683 1.561 . S
C686 C683 1.526 . S
C686 C687 1.396 . S
C686 C691 1.390 . S
C687 C681 1.465 . S
C687 C686 1.396 . S
C687 C688 1.399 . S
C688 H674 0.929 . S
C688 C687 1.399 . S
C688 C689 1.385 . S
C689 H675 0.931 . S
C689 C688 1.385 . S
C689 C690 1.389 . S
C690 C689 1.389 . S
C690 C691 1.387 . S
C691 H676 0.930 . S
C691 C686 1.390 . S
C691 C690 1.387 . S
H692 C704 0.930 . S
H693 C706 0.930 . S
H694 C707 0.930 . S
H695 C711 0.959 . S
H696 C711 0.959 . S
H697 C711 0.961 . S
H698 C712 0.960 . S
H699 C712 0.961 . S
H700 C712 0.959 . S
H701 C715 0.929 . S
H702 C716 0.931 . S
H703 C718 0.930 1_455 S
C704 H692 0.930 . S
C704 C705 1.399 1_455 S
C704 C709 1.399 1_455 S
C705 C704 1.399 1_655 S
C705 C706 1.376 . S
C706 H693 0.930 . S
C706 C705 1.376 . S
C706 C707 1.388 . S
C707 H694 0.930 . S
C707 C706 1.388 . S
C707 C708 1.390 . S
C708 C707 1.390 . S
C708 C709 1.394 . S
C708 C714 1.465 . S
C709 C704 1.399 1_655 S
C709 C708 1.394 . S
C709 C710 1.516 1_655 S
C710 C709 1.516 1_455 S
C710 C711 1.502 . S
C710 C712 1.561 1_455 S
C710 C713 1.526 1_455 S
C711 H695 0.959 . S
C711 H696 0.959 . S
C711 H697 0.961 . S
C711 C710 1.502 . S
C712 H698 0.960 . S
C712 H699 0.961 . S
C712 H700 0.959 . S
C712 C710 1.561 1_655 S
C713 C710 1.526 1_655 S
C713 C714 1.396 . S
C713 C718 1.390 . S
C714 C708 1.465 . S
C714 C713 1.396 . S
C714 C715 1.399 . S
C715 H701 0.929 . S
C715 C714 1.399 . S
C715 C716 1.385 . S
C716 H702 0.931 . S
C716 C715 1.385 . S
C716 C717 1.389 . S
C717 C716 1.389 . S
C717 C718 1.387 . S
C718 H703 0.930 1_655 S
C718 C713 1.390 . S
C718 C717 1.387 . S
H719 C731 0.930 . S
H720 C733 0.930 . S
H721 C734 0.930 . S
H722 C738 0.959 . S
H723 C738 0.959 . S
H724 C738 0.961 . S
H725 C739 0.960 . S
H726 C739 0.961 . S
H727 C739 0.959 1_565 S
H728 C742 0.929 . S
H729 C743 0.931 . S
H730 C745 0.930 1_545 S
C731 H719 0.930 . S
C731 C732 1.399 . S
C731 C736 1.399 . S
C732 C731 1.399 . S
C732 C733 1.376 . S
C733 H720 0.930 . S
C733 C732 1.376 . S
C733 C734 1.388 . S
C734 H721 0.930 . S
C734 C733 1.388 . S
C734 C735 1.390 . S
C735 C734 1.390 . S
C735 C736 1.394 . S
C735 C741 1.465 . S
C736 C731 1.399 . S
C736 C735 1.394 . S
C736 C737 1.516 . S
C737 C736 1.516 . S
C737 C738 1.502 1_565 S
C737 C739 1.561 1_565 S
C737 C740 1.526 . S
C738 H722 0.959 . S
C738 H723 0.959 . S
C738 H724 0.961 . S
C738 C737 1.502 1_545 S
C739 H725 0.960 . S
C739 H726 0.961 . S
C739 H727 0.959 1_545 S
C739 C737 1.561 1_545 S
C740 C737 1.526 . S
C740 C741 1.396 . S
C740 C745 1.390 . S
C741 C735 1.465 . S
C741 C740 1.396 . S
C741 C742 1.399 . S
C742 H728 0.929 . S
C742 C741 1.399 . S
C742 C743 1.385 . S
C743 H729 0.931 . S
C743 C742 1.385 . S
C743 C744 1.389 . S
C744 C743 1.389 . S
C744 C745 1.387 . S
C745 H730 0.930 1_565 S
C745 C740 1.390 . S
C745 C744 1.387 . S
H746 C758 0.930 . S
H747 C760 0.930 . S
H748 C761 0.930 . S
H749 C765 0.959 . S
H750 C765 0.959 . S
H751 C765 0.961 . S
H752 C766 0.960 . S
H753 C766 0.961 . S
H754 C766 0.959 . S
H755 C769 0.929 . S
H756 C770 0.931 . S
H757 C772 0.930 . S
C758 H746 0.930 . S
C758 C759 1.399 . S
C758 C763 1.399 . S
C759 C758 1.399 . S
C759 C760 1.376 . S
C760 H747 0.930 . S
C760 C759 1.376 . S
C760 C761 1.388 . S
C761 H748 0.930 . S
C761 C760 1.388 . S
C761 C762 1.390 . S
C762 C761 1.390 . S
C762 C763 1.394 . S
C762 C768 1.465 . S
C763 C758 1.399 . S
C763 C762 1.394 . S
C763 C764 1.516 . S
C764 C763 1.516 . S
C764 C765 1.502 . S
C764 C766 1.561 . S
C764 C767 1.526 . S
C765 H749 0.959 . S
C765 H750 0.959 . S
C765 H751 0.961 . S
C765 C764 1.502 . S
C766 H752 0.960 . S
C766 H753 0.961 . S
C766 H754 0.959 . S
C766 C764 1.561 . S
C767 C764 1.526 . S
C767 C768 1.396 . S
C767 C772 1.390 . S
C768 C762 1.465 . S
C768 C767 1.396 . S
C768 C769 1.399 . S
C769 H755 0.929 . S
C769 C768 1.399 . S
C769 C770 1.385 . S
C770 H756 0.931 . S
C770 C769 1.385 . S
C770 C771 1.389 . S
C771 C770 1.389 . S
C771 C772 1.387 . S
C772 H757 0.930 . S
C772 C767 1.390 . S
C772 C771 1.387 . S
H773 C785 0.930 . S
H774 C787 0.930 . S
H775 C788 0.930 . S
H776 C792 0.959 . S
H777 C792 0.959 . S
H778 C792 0.961 . S
H779 C793 0.960 . S
H780 C793 0.961 . S
H781 C793 0.959 . S
H782 C796 0.929 . S
H783 C797 0.931 . S
H784 C799 0.930 . S
C785 H773 0.930 . S
C785 C786 1.399 . S
C785 C790 1.399 . S
C786 C785 1.399 . S
C786 C787 1.376 . S
C787 H774 0.930 . S
C787 C786 1.376 . S
C787 C788 1.388 . S
C788 H775 0.930 . S
C788 C787 1.388 . S
C788 C789 1.390 . S
C789 C788 1.390 . S
C789 C790 1.394 . S
C789 C795 1.465 . S
C790 C785 1.399 . S
C790 C789 1.394 . S
C790 C791 1.516 . S
C791 C790 1.516 . S
C791 C792 1.502 . S
C791 C793 1.561 . S
C791 C794 1.526 . S
C792 H776 0.959 . S
C792 H777 0.959 . S
C792 H778 0.961 . S
C792 C791 1.502 . S
C793 H779 0.960 . S
C793 H780 0.961 . S
C793 H781 0.959 . S
C793 C791 1.561 . S
C794 C791 1.526 . S
C794 C795 1.396 . S
C794 C799 1.390 . S
C795 C789 1.465 . S
C795 C794 1.396 . S
C795 C796 1.399 . S
C796 H782 0.929 . S
C796 C795 1.399 . S
C796 C797 1.385 . S
C797 H783 0.931 . S
C797 C796 1.385 . S
C797 C798 1.389 . S
C798 C797 1.389 . S
C798 C799 1.387 . S
C799 H784 0.930 . S
C799 C794 1.390 . S
C799 C798 1.387 . S
C165 C61 1.332 . S
C177 C90 1.409 . S
C204 C110 1.237 . S
C192 C70 1.289 . S
C231 C130 1.535 . S
C219 C43 1.461 . S
C258 C150 1.342 1_455 S
C246 C52 1.392 . S
C285 C91 1.443 1_565 S
C273 C25 1.366 1_556 S
C300 C34 1.337 1_556 S
C312 C111 1.289 . S
C327 C7 1.488 1_556 S
C339 C131 1.441 . S
C354 C16 1.350 1_556 S
C366 C151 1.422 . S
C393 C81 0.687 . S
C381 C50 0.810 . S
C420 C101 0.717 . S
C408 C59 0.822 . S
C447 C121 0.832 . S
C435 C67 0.723 . S
C462 C41 0.747 . S
C474 C141 0.879 . S
C489 C14 0.694 . S
C501 C84 0.699 . S
C528 C104 0.683 . S
C516 C23 0.825 . S
C555 C124 0.755 . S
C543 C31 0.703 . S
C570 C5 0.731 . S
C582 C144 0.742 . S
C597 C49 1.524 1_556 S
C609 C74 1.403 . S
C624 C58 1.421 . S
C636 C94 1.422 . S
C663 C114 1.393 . S
C651 C68 1.509 1_556 S
C690 C134 1.512 . S
C678 C40 1.628 1_556 S
C705 C13 1.550 . S
C717 C76 1.490 . S
C744 C96 1.553 . S
C732 C22 1.542 . S
C771 C116 1.437 . S
C759 C32 1.484 . S
C786 C4 1.525 . S
C798 C136 1.477 . S
