# Generated by pormake.
# Topology ant, (3,6)-cn, num edge types: 1
# Building blocks:
#     Node 0, Type 0, BuildingBlock: VETTIZ_charged_linker_0, # of connection points: 3
#     Node 1, Type 0, BuildingBlock: VETTIZ_charged_linker_0, # of connection points: 3
#     Node 2, Type 0, BuildingBlock: VETTIZ_charged_linker_0, # of connection points: 3
#     Node 3, Type 0, BuildingBlock: VETTIZ_charged_linker_0, # of connection points: 3
#     Node 4, Type 0, BuildingBlock: VETTIZ_charged_linker_0, # of connection points: 3
#     Node 5, Type 0, BuildingBlock: VETTIZ_charged_linker_0, # of connection points: 3
#     Node 6, Type 0, BuildingBlock: VETTIZ_charged_linker_0, # of connection points: 3
#     Node 7, Type 0, BuildingBlock: VETTIZ_charged_linker_0, # of connection points: 3
#     Node 8, Type 1, BuildingBlock: MIDCAF_clean_sbu_0, # of connection points: 6
#     Node 9, Type 1, BuildingBlock: MIDCAF_clean_sbu_0, # of connection points: 6
#     Node 10, Type 1, BuildingBlock: MIDCAF_clean_sbu_0, # of connection points: 6
#     Node 11, Type 1, BuildingBlock: MIDCAF_clean_sbu_0, # of connection points: 6
#     Edge 12, Type (0, 1), BuildingBlock: KIFKEQ_clean_linker_1, # of connection points: 2
#     Edge 13, Type (0, 1), BuildingBlock: KIFKEQ_clean_linker_1, # of connection points: 2
#     Edge 14, Type (0, 1), BuildingBlock: KIFKEQ_clean_linker_1, # of connection points: 2
#     Edge 15, Type (0, 1), BuildingBlock: KIFKEQ_clean_linker_1, # of connection points: 2
#     Edge 16, Type (0, 1), BuildingBlock: KIFKEQ_clean_linker_1, # of connection points: 2
#     Edge 17, Type (0, 1), BuildingBlock: KIFKEQ_clean_linker_1, # of connection points: 2
#     Edge 18, Type (0, 1), BuildingBlock: KIFKEQ_clean_linker_1, # of connection points: 2
#     Edge 19, Type (0, 1), BuildingBlock: KIFKEQ_clean_linker_1, # of connection points: 2
#     Edge 20, Type (0, 1), BuildingBlock: KIFKEQ_clean_linker_1, # of connection points: 2
#     Edge 21, Type (0, 1), BuildingBlock: KIFKEQ_clean_linker_1, # of connection points: 2
#     Edge 22, Type (0, 1), BuildingBlock: KIFKEQ_clean_linker_1, # of connection points: 2
#     Edge 23, Type (0, 1), BuildingBlock: KIFKEQ_clean_linker_1, # of connection points: 2
#     Edge 24, Type (0, 1), BuildingBlock: KIFKEQ_clean_linker_1, # of connection points: 2
#     Edge 25, Type (0, 1), BuildingBlock: KIFKEQ_clean_linker_1, # of connection points: 2
#     Edge 26, Type (0, 1), BuildingBlock: KIFKEQ_clean_linker_1, # of connection points: 2
#     Edge 27, Type (0, 1), BuildingBlock: KIFKEQ_clean_linker_1, # of connection points: 2
#     Edge 28, Type (0, 1), BuildingBlock: KIFKEQ_clean_linker_1, # of connection points: 2
#     Edge 29, Type (0, 1), BuildingBlock: KIFKEQ_clean_linker_1, # of connection points: 2
#     Edge 30, Type (0, 1), BuildingBlock: KIFKEQ_clean_linker_1, # of connection points: 2
#     Edge 31, Type (0, 1), BuildingBlock: KIFKEQ_clean_linker_1, # of connection points: 2
#     Edge 32, Type (0, 1), BuildingBlock: KIFKEQ_clean_linker_1, # of connection points: 2
#     Edge 33, Type (0, 1), BuildingBlock: KIFKEQ_clean_linker_1, # of connection points: 2
#     Edge 34, Type (0, 1), BuildingBlock: KIFKEQ_clean_linker_1, # of connection points: 2
#     Edge 35, Type (0, 1), BuildingBlock: KIFKEQ_clean_linker_1, # of connection points: 2
# Relax obj value: 0.106
# Max RMSD: 0.160
# Mean RMSD: 0.107
data_MOF--net-ant--node1-MIDCAF_clean_sbu_0--node2-VETTIZ_charged_linker_0--edge1-KIFKEQ_clean_linker_1
_symmetry_space_group_name_H-M    P1
_symmetry_Int_Tables_number       1
_symmetry_cell_setting            triclinic
loop_
_symmetry_equiv_pos_as_xyz
'x, y, z'
_cell_length_a     34.327391
_cell_length_b     34.019982
_cell_length_c     94.873528
_cell_angle_alpha  90.287156
_cell_angle_beta   93.793433
_cell_angle_gamma 89.834666
loop_
_atom_site_label
_atom_site_type_symbol
_atom_site_fract_x
_atom_site_fract_y
_atom_site_fract_z
_atom_type_partial_charge
C0 C 0.26353 0.12915 0.09375 0.0
C1 C 0.27181 0.09074 0.08914 0.0
C2 C 0.27013 0.08252 0.07456 0.0
C3 C 0.25024 0.14935 0.06936 0.0
C4 C 0.25349 0.15823 0.08362 0.0
C5 C 0.24518 0.20118 0.08629 0.0
H6 H 0.19649 0.38136 0.05917 0.0
C7 C 0.23784 0.18507 0.06155 0.0
C8 C 0.23559 0.21601 0.07131 0.0
H9 H 0.22276 0.3511 0.10296 0.0
H10 H 0.23247 0.28317 0.0964 0.0
H11 H 0.26318 0.32945 0.04612 0.0
H12 H 0.14244 0.30542 0.05234 0.0
H13 H 0.15226 0.28647 0.03571 0.0
H14 H 0.15711 0.33851 0.03901 0.0
H15 H 0.22391 0.35176 0.03555 0.0
H16 H 0.2437 0.30452 0.031 0.0
C17 C 0.28281 0.2201 0.09315 0.0
C18 C 0.20956 0.20404 0.09541 0.0
C19 C 0.19927 0.17404 0.00913 0.0
C20 C 0.18709 0.20174 -0.00113 0.0
C21 C 0.18527 0.24177 0.00265 0.0
C22 C 0.19451 0.25396 0.01661 0.0
C23 C 0.20601 0.22582 0.02687 0.0
C24 C 0.20899 0.18676 0.02297 0.0
C25 C 0.22388 0.16131 0.03504 0.0
C26 C 0.22735 0.19118 0.04702 0.0
C27 C 0.21666 0.22883 0.0422 0.0
C28 C 0.26425 0.14441 0.03153 0.0
C29 C 0.19249 0.12979 0.0374 0.0
C30 C 0.20472 0.36018 0.06732 0.0
C31 C 0.20907 0.37171 0.08158 0.0
C32 C 0.21901 0.34296 0.0919 0.0
C33 C 0.22488 0.30356 0.08807 0.0
C34 C 0.22062 0.29254 0.07376 0.0
C35 C 0.21032 0.32065 0.06369 0.0
C36 C 0.20549 0.30345 0.04905 0.0
C37 C 0.21567 0.26067 0.05192 0.0
C38 C 0.22467 0.25431 0.06642 0.0
C39 C 0.23532 0.32334 0.03983 0.0
C40 C 0.16223 0.30881 0.0436 0.0
H41 H 0.25781 0.10287 0.05381 0.0
H42 H 0.26482 0.13626 0.10491 0.0
H43 H 0.18697 0.18212 0.09184 0.0
H44 H 0.19473 0.23283 0.0946 0.0
H45 H 0.21818 0.19813 0.1067 0.0
H46 H 0.30913 0.20775 0.08848 0.0
H47 H 0.28573 0.21447 0.10469 0.0
H48 H 0.28431 0.25204 0.09133 0.0
H49 H 0.20163 0.14321 0.00638 0.0
H50 H 0.17601 0.26354 0.99482 0.0
H51 H 0.19217 0.28477 0.01887 0.0
H52 H 0.27784 0.16182 0.02326 0.0
H53 H 0.26169 0.11365 0.02761 0.0
H54 H 0.28584 0.14552 0.04075 0.0
H55 H 0.1629 0.14336 0.03699 0.0
H56 H 0.19627 0.11545 0.04779 0.0
H57 H 0.19239 0.10667 0.02908 0.0
H58 H 0.27587 0.05309 0.07078 0.0
C59 C 0.25934 0.11146 0.0647 0.0
C60 C 0.17512 0.817 0.33686 0.0
C61 C 0.21082 0.82454 0.33079 0.0
C62 C 0.21084 0.82845 0.31601 0.0
C63 C 0.14138 0.81625 0.31348 0.0
C64 C 0.14067 0.81337 0.32799 0.0
C65 C 0.09976 0.80609 0.3324 0.0
H66 H 0.90723 0.78031 0.31208 0.0
C67 C 0.10157 0.80942 0.30713 0.0
C68 C 0.07669 0.80367 0.31811 0.0
H69 H 0.95941 0.78505 0.35482 0.0
H70 H 0.0233 0.79309 0.34585 0.0
H71 H 0.95759 0.84843 0.29896 0.0
H72 H 0.96869 0.72278 0.30108 0.0
H73 H 0.98856 0.73605 0.28523 0.0
H74 H 0.93768 0.74603 0.28764 0.0
H75 H 0.92458 0.81469 0.28978 0.0
H76 H 0.96821 0.83099 0.28212 0.0
C77 C 0.08739 0.84187 0.34119 0.0
C78 C 0.0995 0.76665 0.34041 0.0
C79 C 0.07951 0.80288 0.25369 0.0
C80 C 0.04702 0.79277 0.24463 0.0
C81 C 0.01121 0.7846 0.25039 0.0
C82 C 0.0078 0.78667 0.26503 0.0
C83 C 0.04073 0.79634 0.27401 0.0
C84 C 0.07585 0.80399 0.26828 0.0
C85 C 0.10832 0.81119 0.2794 0.0
C86 C 0.08689 0.80675 0.2928 0.0
C87 C 0.04734 0.79854 0.28956 0.0
C88 C 0.12333 0.85372 0.27761 0.0
C89 C 0.13959 0.77862 0.27796 0.0
C90 C 0.93226 0.78251 0.3196 0.0
C91 C 0.92784 0.7821 0.33421 0.0
C92 C 0.96162 0.78587 0.3435 0.0
C93 C 0.9988 0.79043 0.33827 0.0
C94 C 1.00241 0.79117 0.3236 0.0
C95 C 0.96936 0.78677 0.31458 0.0
C96 C 0.9782 0.78703 0.29932 0.0
C97 C 0.02183 0.79386 0.30057 0.0
C98 C 0.0362 0.79629 0.31479 0.0
C99 C 0.95592 0.8219 0.29204 0.0
C100 C 0.9676 0.74608 0.29287 0.0
H101 H 0.17897 0.82735 0.29624 0.0
H102 H 0.17407 0.81407 0.34819 0.0
H103 H 0.11674 0.74407 0.33499 0.0
H104 H 0.06996 0.75422 0.34081 0.0
H105 H 0.11258 0.77004 0.35137 0.0
H106 H 0.0976 0.86973 0.33659 0.0
H107 H 0.10017 0.84009 0.35224 0.0
H108 H 0.05545 0.84507 0.34133 0.0
H109 H 0.1076 0.80844 0.24952 0.0
H110 H 0.98593 0.7766 0.24354 0.0
H111 H 0.97971 0.78036 0.26879 0.0
H112 H 0.09925 0.87362 0.27369 0.0
H113 H 0.1463 0.85476 0.26991 0.0
H114 H 0.13467 0.86715 0.28769 0.0
H115 H 0.1258 0.7503 0.2745 0.0
H116 H 0.156 0.77163 0.28804 0.0
H117 H 0.16052 0.78673 0.27002 0.0
H118 H 0.23782 0.83351 0.31099 0.0
C119 C 0.17654 0.82444 0.30739 0.0
C120 C 0.7558 0.62866 0.59431 0.0
C121 C 0.76368 0.58974 0.59017 0.0
C122 C 0.76556 0.58089 0.57573 0.0
C123 C 0.74872 0.64803 0.56966 0.0
C124 C 0.7492 0.65754 0.58384 0.0
C125 C 0.74172 0.70084 0.58607 0.0
H126 H 0.70397 0.88106 0.55703 0.0
C127 C 0.7387 0.68364 0.5614 0.0
C128 C 0.73556 0.71516 0.57088 0.0
H129 H 0.71965 0.85208 0.60131 0.0
H130 H 0.7293 0.78358 0.5954 0.0
H131 H 0.77147 0.82448 0.54561 0.0
H132 H 0.64837 0.8089 0.54965 0.0
H133 H 0.65922 0.78534 0.53392 0.0
H134 H 0.66673 0.83762 0.53576 0.0
H135 H 0.73475 0.84957 0.53467 0.0
H136 H 0.75191 0.80131 0.5301 0.0
C137 C 0.77869 0.71886 0.59375 0.0
C138 C 0.70433 0.70534 0.59419 0.0
C139 C 0.70413 0.6705 0.50876 0.0
C140 C 0.6932 0.69792 0.49823 0.0
C141 C 0.69293 0.73825 0.50167 0.0
C142 C 0.7022 0.75104 0.51555 0.0
C143 C 0.71208 0.72319 0.5261 0.0
C144 C 0.71381 0.68379 0.52254 0.0
C145 C 0.72693 0.65864 0.53493 0.0
C146 C 0.73035 0.68918 0.54671 0.0
C147 C 0.72145 0.72685 0.54148 0.0
C148 C 0.76708 0.64017 0.53202 0.0
C149 C 0.69439 0.62829 0.53717 0.0
C150 C 0.71 0.85997 0.56542 0.0
C151 C 0.71149 0.87192 0.57963 0.0
C152 C 0.7184 0.84348 0.59028 0.0
C153 C 0.72416 0.80378 0.58683 0.0
C154 C 0.72258 0.79222 0.57256 0.0
C155 C 0.71514 0.82012 0.56215 0.0
C156 C 0.71187 0.80223 0.54761 0.0
C157 C 0.72009 0.75929 0.55093 0.0
C158 C 0.72659 0.75348 0.56557 0.0
C159 C 0.74391 0.82036 0.53891 0.0
C160 C 0.66955 0.80893 0.54126 0.0
H161 H 0.75888 0.60075 0.55468 0.0
H162 H 0.75451 0.63624 0.60537 0.0
H163 H 0.68184 0.68369 0.59029 0.0
H164 H 0.69031 0.73438 0.59271 0.0
H165 H 0.71063 0.70021 0.60567 0.0
H166 H 0.80557 0.70568 0.58975 0.0
H167 H 0.77935 0.7134 0.6053 0.0
H168 H 0.7814 0.75071 0.59194 0.0
H169 H 0.70533 0.63942 0.50627 0.0
H170 H 0.68464 0.75984 0.49366 0.0
H171 H 0.70097 0.78206 0.51756 0.0
H172 H 0.78163 0.65604 0.5236 0.0
H173 H 0.76394 0.60901 0.52859 0.0
H174 H 0.78814 0.64184 0.54139 0.0
H175 H 0.66533 0.64296 0.53677 0.0
H176 H 0.69767 0.61355 0.5475 0.0
H177 H 0.69354 0.60529 0.5288 0.0
H178 H 0.77126 0.55109 0.57232 0.0
C179 C 0.75805 0.60972 0.56548 0.0
C180 C 0.6831 0.33314 0.83841 0.0
C181 C 0.71909 0.33609 0.83212 0.0
C182 C 0.71959 0.33275 0.81732 0.0
C183 C 0.64981 0.32256 0.81527 0.0
C184 C 0.64871 0.32683 0.82973 0.0
C185 C 0.60741 0.32415 0.8343 0.0
H186 H 0.41563 0.28614 0.81609 0.0
C187 C 0.60985 0.31504 0.80921 0.0
C188 C 0.58452 0.31628 0.82023 0.0
H189 H 0.46628 0.32035 0.85713 0.0
H190 H 0.53039 0.32469 0.84775 0.0
H191 H 0.45689 0.35001 0.79987 0.0
H192 H 0.48751 0.22863 0.8069 0.0
H193 H 0.49166 0.23915 0.78891 0.0
H194 H 0.44507 0.2445 0.79634 0.0
H195 H 0.43396 0.31137 0.78945 0.0
H196 H 0.47864 0.33413 0.78462 0.0
C197 C 0.59644 0.36423 0.84076 0.0
C198 C 0.60526 0.28918 0.84455 0.0
C199 C 0.58922 0.28165 0.75707 0.0
C200 C 0.55591 0.27313 0.74822 0.0
C201 C 0.51894 0.27409 0.7538 0.0
C202 C 0.51539 0.28229 0.76817 0.0
C203 C 0.54916 0.29003 0.77699 0.0
C204 C 0.58516 0.29033 0.77131 0.0
C205 C 0.61768 0.30083 0.78202 0.0
C206 C 0.5954 0.30601 0.79521 0.0
C207 C 0.55545 0.29919 0.79224 0.0
C208 C 0.63624 0.33992 0.77741 0.0
C209 C 0.64626 0.26545 0.78325 0.0
C210 C 0.44069 0.29413 0.82306 0.0
C211 C 0.43636 0.30236 0.83735 0.0
C212 C 0.46926 0.3137 0.84608 0.0
C213 C 0.50629 0.31622 0.84061 0.0
C214 C 0.51019 0.30794 0.82622 0.0
C215 C 0.4775 0.29757 0.8177 0.0
C216 C 0.48623 0.29217 0.80253 0.0
C217 C 0.52965 0.30042 0.8033 0.0
C218 C 0.54388 0.3092 0.81722 0.0
C219 C 0.46264 0.32321 0.79355 0.0
C220 C 0.47702 0.24897 0.79831 0.0
H221 H 0.68812 0.32332 0.79778 0.0
H222 H 0.6818 0.33584 0.84975 0.0
H223 H 0.61999 0.26291 0.8403 0.0
H224 H 0.57508 0.28005 0.84613 0.0
H225 H 0.62001 0.29639 0.85502 0.0
H226 H 0.61046 0.38888 0.83535 0.0
H227 H 0.60612 0.36585 0.85216 0.0
H228 H 0.56482 0.37049 0.83945 0.0
H229 H 0.61791 0.2818 0.75294 0.0
H230 H 0.49294 0.26767 0.74709 0.0
H231 H 0.48654 0.28198 0.77188 0.0
H232 H 0.61536 0.35761 0.77055 0.0
H233 H 0.66238 0.33439 0.77138 0.0
H234 H 0.64434 0.35955 0.78647 0.0
H235 H 0.62993 0.23722 0.783 0.0
H236 H 0.66444 0.26499 0.79328 0.0
H237 H 0.6657 0.26499 0.77435 0.0
H238 H 0.74686 0.33424 0.81222 0.0
C239 C 0.68536 0.32606 0.80892 0.0
C240 C 0.04776 0.84986 0.90883 0.0
C241 C 0.05775 0.88356 0.917 0.0
C242 C 0.06883 0.87899 0.93146 0.0
C243 C 0.06061 0.80835 0.92942 0.0
C244 C 0.04898 0.81267 0.91527 0.0
C245 C 0.03798 0.77378 0.90837 0.0
H246 H 0.01163 0.57671 0.91604 0.0
C247 C 0.0591 0.76608 0.93292 0.0
C248 C 0.04538 0.74553 0.92067 0.0
H249 H 0.99212 0.64328 0.87764 0.0
H250 H 0.01373 0.70302 0.89013 0.0
H251 H 0.09159 0.61143 0.92362 0.0
H252 H 0.9791 0.64039 0.938 0.0
H253 H 0.01234 0.63874 0.95293 0.0
H254 H 1.00479 0.59542 0.94213 0.0
H255 H 0.07147 0.58478 0.93766 0.0
H256 H 0.10115 0.62804 0.94102 0.0
C257 C 0.06568 0.76581 0.89647 0.0
C258 C 0.99432 0.77554 0.90323 0.0
C259 C 0.10408 0.71981 0.98241 0.0
C260 C 0.10704 0.68229 0.98867 0.0
C261 C 0.09537 0.64919 0.98045 0.0
C262 C 0.08074 0.6533 0.96641 0.0
C263 C 0.07789 0.6909 0.96035 0.0
C264 C 0.08972 0.72335 0.96828 0.0
C265 C 0.08514 0.76088 0.95995 0.0
C266 C 0.06904 0.74541 0.94566 0.0
C267 C 0.06457 0.70452 0.94605 0.0
C268 C 0.12614 0.77929 0.95914 0.0
C269 C 0.05527 0.78751 0.96704 0.0
C270 C 0.01127 0.60432 0.91038 0.0
C271 C 0.9992 0.60569 0.89599 0.0
C272 C 1.00075 0.64179 0.88881 0.0
C273 C 0.01328 0.67629 0.89608 0.0
C274 C 0.02501 0.67437 0.9106 0.0
C275 C 0.02434 0.63848 0.91736 0.0
C276 C 0.04042 0.6405 0.93241 0.0
C277 C 0.04949 0.68387 0.93389 0.0
C278 C 0.04025 0.70397 0.92117 0.0
C279 C 0.07794 0.61476 0.93388 0.0
C280 C 0.00774 0.62792 0.94196 0.0
H281 H 0.07935 0.84035 0.94871 0.0
H282 H 0.03867 0.85249 0.89772 0.0
H283 H 0.97692 0.78965 0.91137 0.0
H284 H 0.98132 0.74625 0.90135 0.0
H285 H 0.99005 0.793 0.89339 0.0
H286 H 0.09602 0.77485 0.89984 0.0
H287 H 0.05638 0.78256 0.8868 0.0
H288 H 0.06769 0.73434 0.89374 0.0
H289 H 0.1122 0.74603 0.98841 0.0
H290 H 0.09786 0.61989 0.98483 0.0
H291 H 0.07217 0.62691 0.96084 0.0
H292 H 0.14831 0.75613 0.95741 0.0
H293 H 0.13529 0.79496 0.96911 0.0
H294 H 0.12798 0.79973 0.95022 0.0
H295 H 0.03341 0.76968 0.97233 0.0
H296 H 0.03771 0.8057 0.95936 0.0
H297 H 0.06999 0.80693 0.97519 0.0
H298 H 0.0769 0.90435 0.93795 0.0
C299 C 0.07043 0.84171 0.93768 0.0
C300 C 0.80259 0.80615 0.16049 0.0
C301 C 0.83967 0.80525 0.16785 0.0
C302 C 0.84208 0.8069 0.18271 0.0
C303 C 0.77165 0.81034 0.18276 0.0
C304 C 0.76897 0.80918 0.16816 0.0
C305 C 0.72709 0.81229 0.16224 0.0
H306 H 0.53507 0.83146 0.17546 0.0
C307 C 0.73188 0.81384 0.18765 0.0
C308 C 0.70539 0.81558 0.17571 0.0
H309 H 0.58267 0.82183 0.13455 0.0
H310 H 0.6482 0.8174 0.14584 0.0
H311 H 0.58609 0.76497 0.18951 0.0
H312 H 0.59909 0.89053 0.18936 0.0
H313 H 0.61313 0.87503 0.20658 0.0
H314 H 0.5639 0.86618 0.1994 0.0
H315 H 0.55741 0.7969 0.19982 0.0
H316 H 0.60411 0.77811 0.20659 0.0
C317 C 0.71662 0.77411 0.15396 0.0
C318 C 0.72286 0.84999 0.15323 0.0
C319 C 0.71271 0.80917 0.24034 0.0
C320 C 0.67933 0.81152 0.24814 0.0
C321 C 0.64277 0.81879 0.24094 0.0
C322 C 0.63929 0.82254 0.22623 0.0
C323 C 0.67271 0.81897 0.21853 0.0
C324 C 0.70872 0.81315 0.22561 0.0
C325 C 0.74107 0.81111 0.21568 0.0
C326 C 0.71827 0.8152 0.20146 0.0
C327 C 0.67831 0.81957 0.20321 0.0
C328 C 0.76084 0.77023 0.21736 0.0
C329 C 0.76883 0.84644 0.21894 0.0
C330 C 0.55953 0.82924 0.16885 0.0
C331 C 0.55356 0.82769 0.15407 0.0
C332 C 0.58639 0.82323 0.14596 0.0
C333 C 0.6244 0.82075 0.15254 0.0
C334 C 0.62967 0.82239 0.16739 0.0
C335 C 0.59731 0.82648 0.17522 0.0
C336 C 0.60748 0.82624 0.19083 0.0
C337 C 0.65142 0.82187 0.19122 0.0
C338 C 0.66463 0.81969 0.1775 0.0
C339 C 0.58769 0.78995 0.19714 0.0
C340 C 0.59512 0.86635 0.19699 0.0
H341 H 0.81243 0.81022 0.20146 0.0
H342 H 0.79993 0.80527 0.14905 0.0
H343 H 0.73918 0.87472 0.15856 0.0
H344 H 0.6924 0.86029 0.15169 0.0
H345 H 0.73469 0.84542 0.14273 0.0
H346 H 0.72894 0.74802 0.15972 0.0
H347 H 0.72865 0.77448 0.14337 0.0
H348 H 0.68488 0.76891 0.15265 0.0
H349 H 0.74126 0.80408 0.24558 0.0
H350 H 0.61651 0.82028 0.24666 0.0
H351 H 0.61054 0.82738 0.22141 0.0
H352 H 0.73852 0.74685 0.21821 0.0
H353 H 0.78077 0.76917 0.22707 0.0
H354 H 0.77737 0.76166 0.20825 0.0
H355 H 0.75374 0.87102 0.22414 0.0
H356 H 0.77937 0.8596 0.20925 0.0
H357 H 0.79431 0.8378 0.22609 0.0
H358 H 0.87021 0.80584 0.18859 0.0
C359 C 0.80842 0.80933 0.19017 0.0
C360 C 0.54625 0.33664 0.40895 0.0
C361 C 0.55923 0.37022 0.41671 0.0
C362 C 0.57475 0.36535 0.43072 0.0
C363 C 0.56315 0.29515 0.42926 0.0
C364 C 0.54823 0.29949 0.41546 0.0
C365 C 0.53493 0.26063 0.40901 0.0
H366 H 0.50106 0.06549 0.41897 0.0
C367 C 0.55996 0.25332 0.43316 0.0
C368 C 0.54294 0.23278 0.42141 0.0
H369 H 0.48532 0.12871 0.37968 0.0
H370 H 0.50792 0.18896 0.39159 0.0
H371 H 0.58324 0.09999 0.42676 0.0
H372 H 0.4695 0.13158 0.4395 0.0
H373 H 0.50149 0.13598 0.45464 0.0
H374 H 0.4952 0.08873 0.44605 0.0
H375 H 0.55809 0.07151 0.43915 0.0
H376 H 0.58941 0.1119 0.44475 0.0
C377 C 0.56071 0.25098 0.39668 0.0
C378 C 0.49091 0.26361 0.40456 0.0
C379 C 0.60842 0.20895 0.48244 0.0
C380 C 0.60592 0.17303 0.48959 0.0
C381 C 0.58722 0.14095 0.48266 0.0
C382 C 0.57176 0.14434 0.46867 0.0
C383 C 0.5746 0.18038 0.46158 0.0
C384 C 0.5922 0.21208 0.46854 0.0
C385 C 0.59009 0.24872 0.45968 0.0
C386 C 0.56976 0.23333 0.44604 0.0
C387 C 0.56111 0.19331 0.44721 0.0
C388 C 0.63233 0.26214 0.45751 0.0
C389 C 0.56493 0.27961 0.46709 0.0
C390 C 0.50168 0.09248 0.41297 0.0
C391 C 0.49056 0.09267 0.39848 0.0
C392 C 0.49333 0.12805 0.39092 0.0
C393 C 0.50655 0.16285 0.39783 0.0
C394 C 0.51786 0.16197 0.41239 0.0
C395 C 0.5156 0.12688 0.41959 0.0
C396 C 0.53156 0.12981 0.43464 0.0
C397 C 0.54345 0.17258 0.43548 0.0
C398 C 0.53494 0.19179 0.42253 0.0
C399 C 0.56727 0.10177 0.43658 0.0
C400 C 0.49799 0.12083 0.4443 0.0
H401 H 0.58907 0.32669 0.44766 0.0
H402 H 0.53411 0.33932 0.39817 0.0
H403 H 0.47487 0.27727 0.41315 0.0
H404 H 0.47724 0.23472 0.40245 0.0
H405 H 0.48588 0.28203 0.39497 0.0
H406 H 0.5914 0.26035 0.39925 0.0
H407 H 0.54991 0.26639 0.38688 0.0
H408 H 0.56248 0.21915 0.39449 0.0
H409 H 0.62184 0.23433 0.4877 0.0
H410 H 0.58483 0.11316 0.48806 0.0
H411 H 0.55809 0.11875 0.46394 0.0
H412 H 0.65103 0.23646 0.45517 0.0
H413 H 0.64552 0.2768 0.46716 0.0
H414 H 0.63422 0.28217 0.44847 0.0
H415 H 0.54463 0.26548 0.4742 0.0
H416 H 0.5456 0.29648 0.45952 0.0
H417 H 0.58347 0.30038 0.47362 0.0
H418 H 0.58566 0.39041 0.43685 0.0
C419 C 0.57685 0.32819 0.43699 0.0
C420 C 0.29242 0.30323 0.65864 0.0
C421 C 0.33001 0.30222 0.66559 0.0
C422 C 0.33394 0.30658 0.68038 0.0
C423 C 0.26394 0.31294 0.68119 0.0
C424 C 0.25979 0.3091 0.66666 0.0
C425 C 0.21759 0.31288 0.66118 0.0
H426 H 0.02782 0.33784 0.67633 0.0
C427 C 0.22494 0.31884 0.68649 0.0
C428 C 0.19742 0.31936 0.67484 0.0
H429 H 0.07189 0.32289 0.63499 0.0
H430 H 0.13804 0.31909 0.64564 0.0
H431 H 0.0799 0.27327 0.69116 0.0
H432 H 0.09347 0.39849 0.68833 0.0
H433 H 0.10887 0.38543 0.7057 0.0
H434 H 0.05906 0.3762 0.69926 0.0
H435 H 0.05196 0.30711 0.70101 0.0
H436 H 0.09896 0.28918 0.70781 0.0
C437 C 0.20509 0.27379 0.65385 0.0
C438 C 0.21376 0.34913 0.65141 0.0
C439 C 0.21125 0.32348 0.73949 0.0
C440 C 0.17881 0.32712 0.74771 0.0
C441 C 0.14168 0.33401 0.74087 0.0
C442 C 0.13673 0.33588 0.72612 0.0
C443 C 0.1692 0.33069 0.71803 0.0
C444 C 0.20577 0.32538 0.72474 0.0
C445 C 0.23692 0.32074 0.71444 0.0
C446 C 0.21279 0.32296 0.70044 0.0
C447 C 0.17322 0.3286 0.70261 0.0
C448 C 0.25598 0.27971 0.71679 0.0
C449 C 0.26558 0.35583 0.71654 0.0
C450 C 0.05162 0.33462 0.66946 0.0
C451 C 0.0444 0.33118 0.65474 0.0
C452 C 0.07649 0.32559 0.64635 0.0
C453 C 0.1149 0.32348 0.65255 0.0
C454 C 0.12139 0.32681 0.66733 0.0
C455 C 0.08984 0.33241 0.67545 0.0
C456 C 0.10143 0.33444 0.69096 0.0
C457 C 0.14526 0.32953 0.69091 0.0
C458 C 0.15709 0.32494 0.67706 0.0
C459 C 0.08201 0.29948 0.69824 0.0
C460 C 0.08999 0.37558 0.69649 0.0
H461 H 0.30642 0.31479 0.69939 0.0
H462 H 0.28866 0.30034 0.64726 0.0
H463 H 0.23217 0.37372 0.65581 0.0
H464 H 0.1838 0.36104 0.65033 0.0
H465 H 0.22339 0.34203 0.64073 0.0
H466 H 0.21677 0.24829 0.66012 0.0
H467 H 0.21639 0.27169 0.64317 0.0
H468 H 0.17315 0.2698 0.6529 0.0
H469 H 0.24023 0.31863 0.74442 0.0
H470 H 0.11607 0.33644 0.74691 0.0
H471 H 0.10761 0.3404 0.72159 0.0
H472 H 0.23346 0.25727 0.71874 0.0
H473 H 0.27743 0.28 0.72608 0.0
H474 H 0.27059 0.26868 0.70754 0.0
H475 H 0.2513 0.38186 0.72116 0.0
H476 H 0.27586 0.36659 0.70644 0.0
H477 H 0.29121 0.34804 0.72375 0.0
H478 H 0.36252 0.30556 0.68595 0.0
C479 C 0.30125 0.31185 0.68818 0.0
Zn480 Zn 0.22315 0.70248 0.14165 0.0
Zn481 Zn 0.15184 0.78831 0.10369 0.0
Zn482 Zn 0.18682 0.74285 0.12185 0.0
C483 C 0.16965 0.72015 0.08937 0.0
C484 C 0.21631 0.82959 0.11375 0.0
O485 O 0.15104 0.74375 0.14055 0.0
O486 O 0.19 0.71573 0.15714 0.0
C487 C 0.20243 0.64964 0.11941 0.0
O488 O 0.17819 0.70788 0.10204 0.0
O489 O 0.16035 0.75553 0.08712 0.0
O490 O 0.18429 0.83572 0.10682 0.0
O491 O 0.2239 0.79567 0.11931 0.0
O492 O 0.21562 0.65105 0.13215 0.0
O493 O 0.19182 0.68172 0.11299 0.0
O494 O 0.24659 0.76842 0.12686 0.0
O495 O 0.27509 0.72739 0.14237 0.0
C496 C 0.27679 0.75752 0.13475 0.0
O497 O 0.12857 0.76114 0.12942 0.0
O498 O 0.09869 0.78822 0.11049 0.0
C499 C 0.15848 0.73305 0.15348 0.0
C500 C 0.09767 0.77623 0.12301 0.0
Zn501 Zn 0.53547 0.69543 0.3506 0.0
Zn502 Zn 0.60431 0.78467 0.38976 0.0
Zn503 Zn 0.56914 0.73678 0.37147 0.0
C504 C 0.53451 0.82064 0.38311 0.0
C505 C 0.65566 0.77715 0.36913 0.0
O506 O 0.56238 0.67511 0.37982 0.0
O507 O 0.53565 0.64506 0.36088 0.0
C508 C 0.48259 0.75465 0.35695 0.0
O509 O 0.53093 0.78949 0.37528 0.0
O510 O 0.56492 0.82591 0.39107 0.0
O511 O 0.65266 0.79658 0.38037 0.0
O512 O 0.62738 0.75473 0.36439 0.0
O513 O 0.48622 0.72642 0.34844 0.0
O514 O 0.51049 0.76307 0.36625 0.0
O515 O 0.60466 0.73913 0.35274 0.0
O516 O 0.57401 0.70243 0.33623 0.0
C517 C 0.60207 0.72469 0.34011 0.0
O518 O 0.58127 0.70019 0.39041 0.0
O519 O 0.60857 0.74532 0.40482 0.0
C520 C 0.54893 0.64353 0.37361 0.0
C521 C 0.59716 0.71054 0.40254 0.0
Zn522 Zn 0.64466 0.2828 0.60713 0.0
Zn523 Zn 0.71691 0.19679 0.64171 0.0
Zn524 Zn 0.68004 0.23942 0.62263 0.0
C525 C 0.76831 0.2565 0.63605 0.0
C526 C 0.69948 0.14784 0.61806 0.0
O527 O 0.62074 0.25307 0.63027 0.0
O528 O 0.5897 0.26888 0.61 0.0
C529 C 0.70004 0.3293 0.61921 0.0
O530 O 0.73856 0.26659 0.62783 0.0
O531 O 0.76684 0.22612 0.64358 0.0
O532 O 0.71355 0.14749 0.63069 0.0
O533 O 0.68671 0.18031 0.61246 0.0
O534 O 0.66455 0.33357 0.6152 0.0
O535 O 0.71437 0.29442 0.62082 0.0
O536 O 0.67317 0.20829 0.60203 0.0
O537 O 0.66689 0.26299 0.58973 0.0
C538 C 0.67223 0.22629 0.59009 0.0
O539 O 0.64462 0.23724 0.64147 0.0
O540 O 0.68104 0.20217 0.65696 0.0
C541 C 0.58856 0.26052 0.62288 0.0
C542 C 0.6506 0.22194 0.65385 0.0
Zn543 Zn 0.04334 0.20818 0.85064 0.0
Zn544 Zn 0.1077 0.29406 0.89129 0.0
Zn545 Zn 0.07655 0.24939 0.8716 0.0
C546 C 0.09763 0.22066 0.90322 0.0
C547 C 0.04157 0.33347 0.88288 0.0
O548 O 0.1131 0.25363 0.85323 0.0
O549 O 0.08172 0.21816 0.8365 0.0
C550 C 0.05692 0.1554 0.87301 0.0
O551 O 0.08676 0.21127 0.89038 0.0
O552 O 0.10622 0.25565 0.9065 0.0
O553 O 0.07082 0.33793 0.89147 0.0
O554 O 0.03843 0.30231 0.87505 0.0
O555 O 0.0447 0.15668 0.86017 0.0
O556 O 0.06909 0.18723 0.87938 0.0
O557 O 0.01817 0.27573 0.86613 0.0
O558 O 0.99338 0.23799 0.84872 0.0
C559 C 0.99 0.26677 0.85702 0.0
O560 O 0.1355 0.26762 0.86525 0.0
O561 O 0.15908 0.30263 0.88351 0.0
C562 C 0.10984 0.24026 0.84046 0.0
C563 C 0.16373 0.28716 0.87162 0.0
H564 H 0.23705 0.43794 0.0694 0.0
H565 H 0.16762 0.39985 0.10305 0.0
H566 H 0.23128 0.50609 0.07734 0.0
H567 H 0.16087 0.46776 0.11077 0.0
H568 H 0.20419 0.5793 0.13264 0.0
H569 H 0.20257 0.51414 0.12253 0.0
H570 H 0.19041 0.56362 0.0806 0.0
H571 H 0.19386 0.62983 0.09094 0.0
C572 C 0.22004 0.44423 0.07836 0.0
C573 C 0.20329 0.41346 0.08574 0.0
C574 C 0.21656 0.48332 0.08288 0.0
C575 C 0.196 0.49253 0.09482 0.0
C576 C 0.17778 0.46178 0.10176 0.0
C577 C 0.18159 0.42279 0.09734 0.0
C578 C 0.20108 0.57661 0.12124 0.0
C579 C 0.19895 0.61017 0.1126 0.0
C580 C 0.19969 0.53895 0.11542 0.0
C581 C 0.1959 0.53333 0.10072 0.0
C582 C 0.19345 0.56679 0.09198 0.0
C583 C 0.19493 0.60483 0.09788 0.0
H584 H 0.86549 0.73895 0.32301 0.0
H585 H 0.89935 0.81785 0.35749 0.0
H586 H 0.79885 0.7394 0.33004 0.0
H587 H 0.83339 0.81557 0.36526 0.0
H588 H 0.70567 0.83874 0.36837 0.0
H589 H 0.77062 0.83923 0.35954 0.0
H590 H 0.75605 0.71791 0.3464 0.0
H591 H 0.69028 0.71835 0.35469 0.0
C592 C 0.85886 0.75629 0.33215 0.0
C593 C 0.88798 0.77885 0.33954 0.0
C594 C 0.82055 0.75605 0.33632 0.0
C595 C 0.8103 0.77781 0.34817 0.0
C596 C 0.83976 0.79919 0.35587 0.0
C597 C 0.87797 0.79991 0.35157 0.0
C598 C 0.71624 0.81238 0.36341 0.0
C599 C 0.69293 0.77855 0.36218 0.0
C600 C 0.7537 0.81245 0.35848 0.0
C601 C 0.76918 0.7784 0.35246 0.0
C602 C 0.74522 0.74486 0.35085 0.0
C603 C 0.70744 0.74502 0.35559 0.0
H604 H 0.82262 0.53642 0.59486 0.0
H605 H 0.70863 0.56817 0.60774 0.0
H606 H 0.8187 0.4735 0.60696 0.0
H607 H 0.70318 0.50486 0.61906 0.0
H608 H 0.76236 0.34887 0.60459 0.0
H609 H 0.787 0.41515 0.60174 0.0
H610 H 0.71675 0.45607 0.63515 0.0
H611 H 0.69015 0.3901 0.63706 0.0
C612 C 0.7971 0.53015 0.60059 0.0
C613 C 0.76588 0.55696 0.60038 0.0
C614 C 0.79455 0.49391 0.60738 0.0
C615 C 0.76027 0.48329 0.61379 0.0
C616 C 0.73034 0.51167 0.61445 0.0
C617 C 0.73329 0.54818 0.60792 0.0
C618 C 0.75332 0.3719 0.61161 0.0
C619 C 0.72429 0.36472 0.62096 0.0
C620 C 0.76743 0.4101 0.61002 0.0
C621 C 0.75317 0.44165 0.61795 0.0
C622 C 0.72742 0.43307 0.62847 0.0
C623 C 0.71257 0.39515 0.62976 0.0
H624 H 0.77788 0.38731 0.82779 0.0
H625 H 0.74633 0.29305 0.85506 0.0
H626 H 0.84601 0.38097 0.83662 0.0
H627 H 0.81473 0.28706 0.86405 0.0
H628 H 0.94998 0.28937 0.83303 0.0
H629 H 0.88465 0.31755 0.83046 0.0
H630 H 0.88035 0.32185 0.87581 0.0
H631 H 0.94705 0.29444 0.8784 0.0
C632 C 0.78535 0.36608 0.83601 0.0
C633 C 0.75695 0.34014 0.84054 0.0
C634 C 0.82431 0.36253 0.84107 0.0
C635 C 0.83567 0.33318 0.85086 0.0
C636 C 0.8067 0.31006 0.85655 0.0
C637 C 0.76756 0.3135 0.85141 0.0
C638 C 0.93549 0.29721 0.84246 0.0
C639 C 0.95338 0.28969 0.85589 0.0
C640 C 0.89816 0.31349 0.841 0.0
C641 C 0.87744 0.32187 0.85294 0.0
C642 C 0.89578 0.31566 0.86645 0.0
C643 C 0.93384 0.30021 0.86792 0.0
H644 H 0.0327 0.57023 0.87392 0.0
H645 H 0.94106 0.55629 0.90242 0.0
H646 H 0.0271 0.50078 0.86735 0.0
H647 H 0.93449 0.48718 0.89563 0.0
H648 H 0.00577 0.37001 0.90368 0.0
H649 H 0.98092 0.43683 0.90306 0.0
H650 H 0.99328 0.44083 0.85805 0.0
H651 H 0.01815 0.37302 0.8588 0.0
C652 C 0.01014 0.55269 0.87828 0.0
C653 C 0.98759 0.56838 0.88877 0.0
C654 C 0.00683 0.51285 0.87451 0.0
C655 C 0.98079 0.48814 0.88116 0.0
C656 C 0.95534 0.50515 0.89051 0.0
C657 C 0.95891 0.54476 0.89434 0.0
C658 C 1.00142 0.38453 0.89355 0.0
C659 C 0.01381 0.3665 0.8813 0.0
C660 C 0.98718 0.42297 0.89316 0.0
C661 C 0.98555 0.44456 0.88051 0.0
C662 C 0.99457 0.42516 0.86798 0.0
C663 C 0.00833 0.38623 0.86836 0.0
H664 H 0.90425 0.85131 0.17165 0.0
H665 H 0.85773 0.75252 0.14743 0.0
H666 H 0.96632 0.84412 0.16087 0.0
H667 H 0.92038 0.74396 0.13698 0.0
H668 H 0.02557 0.76156 0.11093 0.0
H669 H 0.9629 0.76975 0.12118 0.0
H670 H 0.02264 0.80546 0.16074 0.0
H671 H 0.08513 0.80014 0.14991 0.0
C672 C 0.90745 0.82795 0.16401 0.0
C673 C 0.8762 0.8025 0.16035 0.0
C674 C 0.94318 0.82353 0.15791 0.0
C675 C 0.94881 0.79317 0.14812 0.0
C676 C 0.91717 0.76803 0.14432 0.0
C677 C 0.8812 0.77285 0.15029 0.0
C678 C 0.02519 0.77103 0.12184 0.0
C679 C 0.06025 0.779 0.12981 0.0
C680 C 0.98924 0.77541 0.12778 0.0
C681 C 0.98738 0.78791 0.14188 0.0
C682 C 0.02268 0.79601 0.14983 0.0
C683 C 0.05866 0.79204 0.14378 0.0
H684 H 0.53557 0.43851 0.429 0.0
H685 H 0.57773 0.39294 0.39028 0.0
H686 H 0.53332 0.50454 0.41912 0.0
H687 H 0.57628 0.45906 0.38044 0.0
H688 H 0.53092 0.57282 0.36132 0.0
H689 H 0.53265 0.5082 0.37177 0.0
H690 H 0.57163 0.5588 0.4121 0.0
H691 H 0.56781 0.62424 0.40162 0.0
C692 C 0.54465 0.44265 0.4184 0.0
C693 C 0.55679 0.41036 0.41042 0.0
C694 C 0.54353 0.48063 0.41274 0.0
C695 C 0.55464 0.48743 0.39896 0.0
C696 C 0.56682 0.45504 0.391 0.0
C697 C 0.56768 0.41702 0.39663 0.0
C698 C 0.5398 0.57051 0.37245 0.0
C699 C 0.54984 0.60422 0.38059 0.0
C700 C 0.54117 0.53308 0.37843 0.0
C701 C 0.55282 0.52785 0.39277 0.0
C702 C 0.56238 0.56152 0.40102 0.0
C703 C 0.56074 0.59921 0.39499 0.0
H704 H 0.01138 0.28467 0.63336 0.0
H705 H 0.98386 0.37783 0.66223 0.0
H706 H 0.94178 0.27676 0.62661 0.0
H707 H 0.91448 0.36883 0.6558 0.0
H708 H 0.8108 0.27711 0.65983 0.0
H709 H 0.87641 0.30469 0.66182 0.0
H710 H 0.87521 0.31305 0.61641 0.0
H711 H 0.80837 0.28631 0.61445 0.0
C712 C 0.9907 0.30417 0.63799 0.0
C713 C 1.00326 0.33134 0.64857 0.0
C714 C 0.95082 0.29961 0.63411 0.0
C715 C 0.92279 0.32193 0.6408 0.0
C716 C 0.93548 0.351 0.65059 0.0
C717 C 0.97522 0.35588 0.65433 0.0
C718 C 0.82414 0.28581 0.65029 0.0
C719 C 0.80465 0.27969 0.637 0.0
C720 C 0.86163 0.30166 0.65142 0.0
C721 C 0.88091 0.3109 0.63927 0.0
C722 C 0.86094 0.30612 0.62594 0.0
C723 C 0.82276 0.29113 0.62482 0.0
H724 H 0.34594 0.24414 0.64672 0.0
H725 H 0.39468 0.34804 0.66718 0.0
H726 H 0.40842 0.23101 0.63651 0.0
H727 H 0.45642 0.33608 0.65669 0.0
H728 H 0.57356 0.28668 0.64902 0.0
H729 H 0.51058 0.29377 0.65916 0.0
H730 H 0.45345 0.25172 0.61999 0.0
H731 H 0.51716 0.24158 0.61051 0.0
C732 C 0.36983 0.26455 0.64878 0.0
C733 C 0.36566 0.29693 0.65779 0.0
C734 C 0.40564 0.25708 0.64297 0.0
C735 C 0.43784 0.2821 0.64596 0.0
C736 C 0.43281 0.31545 0.65448 0.0
C737 C 0.3973 0.3226 0.66039 0.0
C738 C 0.54773 0.27702 0.64296 0.0
C739 C 0.55046 0.26214 0.62929 0.0
C740 C 0.51138 0.28225 0.64853 0.0
C741 C 0.47664 0.27362 0.64036 0.0
C742 C 0.47944 0.25824 0.62667 0.0
C743 C 0.51595 0.25262 0.6212 0.0
H744 H 0.52102 0.7822 0.1323 0.0
H745 H 0.49359 0.87536 0.16115 0.0
H746 H 0.45142 0.77519 0.12521 0.0
H747 H 0.4243 0.86762 0.15429 0.0
H748 H 0.31937 0.77872 0.15836 0.0
H749 H 0.38539 0.80509 0.1603 0.0
H750 H 0.38509 0.81086 0.11485 0.0
H751 H 0.3177 0.7853 0.11293 0.0
C752 C 0.50036 0.80193 0.13683 0.0
C753 C 0.51284 0.82878 0.14751 0.0
C754 C 0.46049 0.79792 0.13275 0.0
C755 C 0.43247 0.82057 0.13932 0.0
C756 C 0.44524 0.8495 0.14916 0.0
C757 C 0.48492 0.85372 0.15314 0.0
C758 C 0.333 0.78658 0.14879 0.0
C759 C 0.31357 0.78004 0.13551 0.0
C760 C 0.37077 0.80174 0.14989 0.0
C761 C 0.39042 0.80994 0.13773 0.0
C762 C 0.37056 0.80472 0.12438 0.0
C763 C 0.33207 0.7904 0.12329 0.0
H764 H 0.39029 0.2379 0.83875 0.0
H765 H 0.39404 0.3621 0.84778 0.0
H766 H 0.32423 0.2345 0.8467 0.0
H767 H 0.32704 0.35987 0.85481 0.0
H768 H 0.22174 0.33837 0.87972 0.0
H769 H 0.28728 0.34128 0.87192 0.0
H770 H 0.25915 0.24826 0.8417 0.0
H771 H 0.19463 0.24273 0.8507 0.0
C772 C 0.3767 0.26449 0.84243 0.0
C773 C 0.39717 0.30014 0.84285 0.0
C774 C 0.33863 0.26277 0.84681 0.0
C775 C 0.31976 0.29693 0.85139 0.0
C776 C 0.34055 0.33269 0.85168 0.0
C777 C 0.37895 0.33415 0.84761 0.0
C778 C 0.22944 0.31854 0.87138 0.0
C779 C 0.20244 0.29085 0.86562 0.0
C780 C 0.26715 0.32048 0.86676 0.0
C781 C 0.27895 0.29524 0.85604 0.0
C782 C 0.25162 0.26793 0.85009 0.0
C783 C 0.21409 0.26537 0.855 0.0
H784 H 0.26998 0.87723 0.32866 0.0
H785 H 0.23809 0.77484 0.35197 0.0
H786 H 0.3377 0.86965 0.33779 0.0
H787 H 0.30601 0.76787 0.36137 0.0
H788 H 0.43654 0.77651 0.37823 0.0
H789 H 0.36923 0.80224 0.37531 0.0
H790 H 0.37926 0.80891 0.33028 0.0
H791 H 0.44525 0.78221 0.33314 0.0
C792 C 0.27724 0.85369 0.33603 0.0
C793 C 0.24881 0.82609 0.33934 0.0
C794 C 0.31599 0.8495 0.34129 0.0
C795 C 0.32715 0.81793 0.35014 0.0
C796 C 0.29813 0.79261 0.35462 0.0
C797 C 0.25924 0.79661 0.34924 0.0
C798 C 0.42446 0.7844 0.36778 0.0
C799 C 0.44584 0.77737 0.35589 0.0
C800 C 0.38603 0.79884 0.36611 0.0
C801 C 0.3691 0.80755 0.35257 0.0
C802 C 0.39163 0.80281 0.34085 0.0
C803 C 0.42936 0.78747 0.34247 0.0
H804 H 0.74829 0.93683 0.57003 0.0
H805 H 0.65995 0.90123 0.59756 0.0
H806 H 0.74124 1.0051 0.57774 0.0
H807 H 0.6512 0.96931 0.60475 0.0
H808 H 0.68584 0.07811 0.6299 0.0
H809 H 0.68586 0.01347 0.61936 0.0
H810 H 0.7044 0.0648 0.57874 0.0
H811 H 0.7071 0.13032 0.58982 0.0
C812 C 0.72691 0.94381 0.57757 0.0
C813 C 0.70515 0.91375 0.58341 0.0
C814 C 0.72261 0.98297 0.58192 0.0
C815 C 0.69602 0.99292 0.59205 0.0
C816 C 0.67282 0.96283 0.59726 0.0
C817 C 0.67766 0.92374 0.59312 0.0
C818 C 0.6897 0.07578 0.61868 0.0
C819 C 0.69585 0.10947 0.61063 0.0
C820 C 0.68923 0.03852 0.61256 0.0
C821 C 0.69457 0.03355 0.5981 0.0
C822 C 0.70021 0.06738 0.58991 0.0
C823 C 0.70098 0.10503 0.59615 0.0
H824 H 0.33292 0.03936 0.09049 0.0
H825 H 0.22536 0.06642 0.10952 0.0
H826 H 0.33396 0.97431 0.10128 0.0
H827 H 0.22551 1.00115 0.11999 0.0
H828 H 0.2235 0.88094 0.13564 0.0
H829 H 0.25019 0.9475 0.13457 0.0
H830 H 0.29325 0.92005 0.09384 0.0
H831 H 0.26709 0.85388 0.09517 0.0
C832 C 0.31017 0.03175 0.09737 0.0
C833 C 0.27883 0.05763 0.09907 0.0
C834 C 0.31057 0.99442 0.10347 0.0
C835 C 0.27938 0.98205 0.11124 0.0
C836 C 0.25018 0.0096 0.11415 0.0
C837 C 0.24999 0.04711 0.10814 0.0
C838 C 0.24039 0.88881 0.12682 0.0
C839 C 0.24369 0.86251 0.11553 0.0
C840 C 0.25523 0.927 0.12611 0.0
C841 C 0.27338 0.93946 0.11403 0.0
C842 C 0.27986 0.91159 0.10338 0.0
C843 C 0.26493 0.87356 0.10411 0.0
H844 H 0.43473 0.04144 0.40587 0.0
H845 H 0.52217 0.05782 0.37585 0.0
H846 H 0.42845 0.97246 0.39891 0.0
H847 H 0.5168 0.98854 0.36908 0.0
H848 H 0.50802 0.86137 0.35966 0.0
H849 H 0.48285 0.92902 0.35988 0.0
H850 H 0.47515 0.9216 0.40508 0.0
H851 H 0.50018 0.85488 0.40472 0.0
C852 C 0.45181 0.03046 0.39748 0.0
C853 C 0.47925 0.05481 0.3915 0.0
C854 C 0.44837 0.9909 0.39353 0.0
C855 C 0.47266 0.97463 0.38363 0.0
C856 C 0.49743 1.0 0.37668 0.0
C857 C 0.50061 0.03977 0.38056 0.0
C858 C 0.49907 0.87375 0.36948 0.0
C859 C 0.5059 0.85306 0.38218 0.0
C860 C 0.48519 0.91264 0.36966 0.0
C861 C 0.47748 0.93109 0.38252 0.0
C862 C 0.48039 0.90852 0.39495 0.0
C863 C 0.49469 0.8701 0.39478 0.0
H864 H 0.08952 0.90643 0.89271 0.0
H865 H 0.02532 0.95089 0.92698 0.0
H866 H 0.09155 0.97226 0.88281 0.0
H867 H 0.02563 0.01661 0.91682 0.0
H868 H 0.0594 0.13778 0.90149 0.0
H869 H 0.06217 0.07282 0.91238 0.0
H870 H 0.05399 0.0194 0.87084 0.0
H871 H 0.05468 0.08378 0.86023 0.0
C872 C 0.0753 0.93026 0.898 0.0
C873 C 0.05718 0.92344 0.91059 0.0
C874 C 0.07633 0.96813 0.89232 0.0
C875 C 0.05862 1.00017 0.89894 0.0
C876 C 0.04025 0.99311 0.91152 0.0
C877 C 0.03977 0.95531 0.91731 0.0
C878 C 0.05964 0.11219 0.89477 0.0
C879 C 0.05803 0.11629 0.88004 0.0
C880 C 0.06027 0.07474 0.90097 0.0
C881 C 0.05862 0.04039 0.89254 0.0
C882 C 0.05635 0.04477 0.87778 0.0
C883 C 0.05627 0.08199 0.87165 0.0
H884 H 0.13116 0.14874 0.99008 0.0
H885 H 0.21777 0.22675 0.97489 0.0
H886 H 0.10761 0.13387 0.9656 0.0
H887 H 0.19503 0.2114 0.95056 0.0
H888 H 0.05028 0.2053 0.92406 0.0
H889 H 0.0739 0.18433 0.94768 0.0
H890 H 0.1855 0.15483 0.93194 0.0
H891 H 0.16137 0.17525 0.90824 0.0
C892 C 0.14566 0.16191 0.98148 0.0
C893 C 0.17597 0.18911 0.98426 0.0
C894 C 0.13231 0.15335 0.96754 0.0
C895 C 0.14977 0.17115 0.95622 0.0
C896 C 0.18149 0.19668 0.95907 0.0
C897 C 0.19423 0.20585 0.97296 0.0
C898 C 0.07894 0.1919 0.92551 0.0
C899 C 0.10403 0.19159 0.91443 0.0
C900 C 0.09258 0.18008 0.93902 0.0
C901 C 0.13174 0.16866 0.94164 0.0
C902 C 0.15526 0.16376 0.93018 0.0
C903 C 0.14136 0.17503 0.91661 0.0
H904 H 0.07335 0.84769 0.22694 0.0
H905 H 0.03173 0.72835 0.22808 0.0
H906 H 0.09134 0.8377 0.20272 0.0
H907 H 0.05142 0.71741 0.20409 0.0
H908 H 0.08405 0.71032 0.15856 0.0
H909 H 0.04748 0.72945 0.17899 0.0
H910 H 0.14434 0.80261 0.19427 0.0
H911 H 0.17945 0.78447 0.17384 0.0
C912 C 0.06765 0.81946 0.22189 0.0
C913 C 0.0516 0.78865 0.22934 0.0
C914 C 0.07812 0.81359 0.20807 0.0
C915 C 0.07365 0.77646 0.20155 0.0
C916 C 0.05509 0.74642 0.20872 0.0
C917 C 0.04397 0.75257 0.22248 0.0
C918 C 0.09684 0.73102 0.16623 0.0
C919 C 0.13414 0.7464 0.16469 0.0
C920 C 0.07617 0.74181 0.17793 0.0
C921 C 0.09281 0.76783 0.18825 0.0
C922 C 0.13004 0.7834 0.18641 0.0
C923 C 0.15041 0.77275 0.17479 0.0
H924 H 0.63663 0.64487 0.49006 0.0
H925 H 0.72262 0.72181 0.47385 0.0
H926 H 0.61167 0.62928 0.46581 0.0
H927 H 0.69832 0.70592 0.44975 0.0
H928 H 0.6627 0.66816 0.4078 0.0
H929 H 0.68838 0.64994 0.43153 0.0
H930 H 0.57665 0.677 0.44765 0.0
H931 H 0.55131 0.69542 0.42392 0.0
C932 C 0.6507 0.65767 0.48129 0.0
C933 C 0.6813 0.68473 0.48373 0.0
C934 C 0.63647 0.64876 0.46747 0.0
C935 C 0.65327 0.6661 0.45592 0.0
C936 C 0.68523 0.69155 0.45843 0.0
C937 C 0.69889 0.70102 0.4722 0.0
C938 C 0.64307 0.66789 0.41629 0.0
C939 C 0.60508 0.68287 0.41413 0.0
C940 C 0.65785 0.65791 0.42987 0.0
C941 C 0.63469 0.66276 0.44143 0.0
C942 C 0.59509 0.67281 0.43892 0.0
C943 C 0.58046 0.68315 0.42534 0.0
H944 H 0.52175 0.30825 0.72467 0.0
H945 H 0.60058 0.21489 0.73832 0.0
H946 H 0.53539 0.29488 0.69996 0.0
H947 H 0.61379 0.20118 0.71381 0.0
H948 H 0.61207 0.16766 0.66825 0.0
H949 H 0.57997 0.17817 0.69028 0.0
H950 H 0.60046 0.30293 0.68734 0.0
H951 H 0.63317 0.29212 0.66546 0.0
C952 C 0.54137 0.28444 0.72232 0.0
C953 C 0.56032 0.26265 0.7333 0.0
C954 C 0.54923 0.2769 0.70827 0.0
C955 C 0.57549 0.24693 0.70501 0.0
C956 C 0.59304 0.22412 0.716 0.0
C957 C 0.58575 0.2321 0.73 0.0
C958 C 0.60854 0.19738 0.67213 0.0
C959 C 0.62403 0.22925 0.66507 0.0
C960 C 0.5904 0.20338 0.68472 0.0
C961 C 0.58767 0.24136 0.69046 0.0
C962 C 0.60159 0.27345 0.68302 0.0
C963 C 0.62019 0.26733 0.67052 0.0
H964 H 0.16569 0.72307 0.00328 0.0
H965 H 0.08156 0.63072 0.00825 0.0
H966 H 0.18568 0.71925 0.02825 0.0
H967 H 0.10341 0.62507 0.03307 0.0
H968 H 0.10649 0.68164 0.07833 0.0
H969 H 0.09544 0.66301 0.0536 0.0
H970 H 0.21724 0.68432 0.04735 0.0
H971 H 0.22746 0.70446 0.0721 0.0
C972 C 0.15168 0.70166 0.00966 0.0
C973 C 0.12161 0.67761 0.00372 0.0
C974 C 0.16372 0.69889 0.02398 0.0
C975 C 0.14626 0.67174 0.03276 0.0
C976 C 0.11728 0.64657 0.02669 0.0
C977 C 0.105 0.64958 0.01239 0.0
C978 C 0.1312 0.68045 0.07179 0.0
C979 C 0.16784 0.69401 0.07705 0.0
C980 C 0.12493 0.66996 0.05757 0.0
C981 C 0.15528 0.67297 0.04835 0.0
C982 C 0.19299 0.68258 0.05406 0.0
C983 C 0.19911 0.6934 0.06828 0.0
H984 H 0.71968 0.75303 0.26239 0.0
H985 H 0.64381 0.85217 0.26866 0.0
H986 H 0.71451 0.73367 0.28696 0.0
H987 H 0.63791 0.83239 0.29307 0.0
H988 H 0.63672 0.79628 0.3376 0.0
H989 H 0.66862 0.82052 0.31705 0.0
H990 H 0.65747 0.7055 0.29771 0.0
H991 H 0.62638 0.68134 0.31828 0.0
C992 C 0.70268 0.77123 0.26911 0.0
C993 C 0.6817 0.80381 0.26355 0.0
C994 C 0.69953 0.76 0.28315 0.0
C995 C 0.67554 0.78128 0.29192 0.0
C996 C 0.65689 0.81551 0.28664 0.0
C997 C 0.65987 0.8266 0.2726 0.0
C998 C 0.6425 0.77588 0.32919 0.0
C999 C 0.62906 0.73696 0.3295 0.0
C1000 C 0.66039 0.78984 0.31737 0.0
C1001 C 0.6652 0.76505 0.30569 0.0
C1002 C 0.65454 0.72532 0.30655 0.0
C1003 C 0.63647 0.71149 0.3183 0.0
H1004 H 0.5666 0.15204 0.51232 0.0
H1005 H 0.68032 0.18636 0.50012 0.0
H1006 H 0.59001 0.1546 0.53713 0.0
H1007 H 0.70487 0.18659 0.52486 0.0
H1008 H 0.70916 0.25111 0.5677 0.0
H1009 H 0.69825 0.22929 0.54349 0.0
H1010 H 0.62791 0.13305 0.55716 0.0
H1011 H 0.63738 0.15691 0.58156 0.0
C1012 C 0.59694 0.15914 0.515 0.0
C1013 C 0.62157 0.16961 0.50442 0.0
C1014 C 0.61057 0.16026 0.52922 0.0
C1015 C 0.64935 0.17124 0.53312 0.0
C1016 C 0.67459 0.17903 0.52234 0.0
C1017 C 0.66068 0.17877 0.50817 0.0
C1018 C 0.69221 0.22466 0.56556 0.0
C1019 C 0.67417 0.20565 0.57647 0.0
C1020 C 0.68609 0.21186 0.55163 0.0
C1021 C 0.6618 0.17949 0.54822 0.0
C1022 C 0.64618 0.15854 0.55933 0.0
C1023 C 0.65208 0.17171 0.57334 0.0
H1024 H 0.14413 0.36814 0.76843 0.0
H1025 H 0.22185 0.27054 0.76199 0.0
H1026 H 0.14056 0.34917 0.79305 0.0
H1027 H 0.21923 0.2523 0.78674 0.0
H1028 H 0.13427 0.19781 0.81851 0.0
H1029 H 0.16359 0.22288 0.79774 0.0
H1030 H 0.17254 0.33815 0.81701 0.0
H1031 H 0.1427 0.31276 0.83789 0.0
C1032 C 0.16111 0.34314 0.77236 0.0
C1033 C 0.18271 0.32046 0.7632 0.0
C1034 C 0.15949 0.33256 0.78652 0.0
C1035 C 0.17936 0.299 0.79181 0.0
C1036 C 0.2033 0.27808 0.78292 0.0
C1037 C 0.20499 0.28871 0.76877 0.0
C1038 C 0.14353 0.22824 0.81847 0.0
C1039 C 0.13601 0.25343 0.82972 0.0
C1040 C 0.16058 0.2426 0.80661 0.0
C1041 C 0.17008 0.28262 0.80567 0.0
C1042 C 0.16517 0.30725 0.81739 0.0
C1043 C 0.14838 0.29271 0.82936 0.0
loop_
_geom_bond_atom_site_label_1
_geom_bond_atom_site_label_2
_geom_bond_distance
_geom_bond_site_symmetry_2
_ccdc_geom_bond_type
C0 C1 1.391 . S
C0 C4 1.391 . S
C0 H42 0.948 . S
C1 C0 1.391 . S
C1 C2 1.391 . S
C2 C1 1.391 . S
C2 H58 0.947 . S
C2 C59 1.392 . S
C3 C4 1.391 . S
C3 C7 1.397 . S
C3 C59 1.419 . S
C4 C0 1.391 . S
C4 C3 1.391 . S
C4 C5 1.399 . S
C5 C4 1.399 . S
C5 C8 1.396 . S
C5 C17 1.453 . S
C5 C18 1.684 . S
H6 C30 0.948 . S
C7 C3 1.397 . S
C7 C8 1.394 . S
C7 C26 1.723 . S
C8 C5 1.396 . S
C8 C7 1.394 . S
C8 C38 1.723 . S
H9 C32 0.947 . S
H10 C33 0.948 . S
H11 C39 0.982 . S
H12 C40 0.979 . S
H13 C40 0.980 . S
H14 C40 0.983 . S
H15 C39 0.979 . S
H16 C39 0.977 . S
C17 C5 1.453 . S
C17 H46 0.982 . S
C17 H47 0.979 . S
C17 H48 0.977 . S
C18 C5 1.684 . S
C18 H43 0.979 . S
C18 H44 0.980 . S
C18 H45 0.983 . S
C19 C20 1.391 . S
C19 C24 1.391 . S
C19 H49 0.948 . S
C20 C19 1.391 . S
C20 C21 1.391 . S
C21 C20 1.391 . S
C21 C22 1.392 . S
C21 H50 0.947 . S
C22 C21 1.392 . S
C22 C23 1.419 . S
C22 H51 0.948 . S
C23 C22 1.419 . S
C23 C24 1.391 . S
C23 C27 1.397 . S
C24 C19 1.391 . S
C24 C23 1.391 . S
C24 C25 1.399 . S
C25 C24 1.399 . S
C25 C26 1.396 . S
C25 C28 1.453 . S
C25 C29 1.684 . S
C26 C7 1.723 . S
C26 C25 1.396 . S
C26 C27 1.394 . S
C27 C23 1.397 . S
C27 C26 1.394 . S
C27 C37 1.723 . S
C28 C25 1.453 . S
C28 H52 0.982 . S
C28 H53 0.979 . S
C28 H54 0.977 . S
C29 C25 1.684 . S
C29 H55 0.979 . S
C29 H56 0.980 . S
C29 H57 0.983 . S
C30 H6 0.948 . S
C30 C31 1.391 . S
C30 C35 1.391 . S
C31 C30 1.391 . S
C31 C32 1.391 . S
C32 H9 0.947 . S
C32 C31 1.391 . S
C32 C33 1.392 . S
C33 H10 0.948 . S
C33 C32 1.392 . S
C33 C34 1.419 . S
C34 C33 1.419 . S
C34 C35 1.391 . S
C34 C38 1.397 . S
C35 C30 1.391 . S
C35 C34 1.391 . S
C35 C36 1.399 . S
C36 C35 1.399 . S
C36 C37 1.396 . S
C36 C39 1.453 . S
C36 C40 1.684 . S
C37 C27 1.723 . S
C37 C36 1.396 . S
C37 C38 1.394 . S
C38 C8 1.723 . S
C38 C34 1.397 . S
C38 C37 1.394 . S
C39 H11 0.982 . S
C39 H15 0.979 . S
C39 H16 0.977 . S
C39 C36 1.453 . S
C40 H12 0.979 . S
C40 H13 0.980 . S
C40 H14 0.983 . S
C40 C36 1.684 . S
H41 C59 0.948 . S
H42 C0 0.948 . S
H43 C18 0.979 . S
H44 C18 0.980 . S
H45 C18 0.983 . S
H46 C17 0.982 . S
H47 C17 0.979 . S
H48 C17 0.977 . S
H49 C19 0.948 . S
H50 C21 0.947 . S
H51 C22 0.948 . S
H52 C28 0.982 . S
H53 C28 0.979 . S
H54 C28 0.977 . S
H55 C29 0.979 . S
H56 C29 0.980 . S
H57 C29 0.983 . S
H58 C2 0.947 . S
C59 C2 1.392 . S
C59 C3 1.419 . S
C59 H41 0.948 . S
C60 C61 1.391 . S
C60 C64 1.391 . S
C60 H102 0.948 . S
C61 C60 1.391 . S
C61 C62 1.391 . S
C62 C61 1.391 . S
C62 H118 0.947 . S
C62 C119 1.392 . S
C63 C64 1.391 . S
C63 C67 1.397 . S
C63 C119 1.419 . S
C64 C60 1.391 . S
C64 C63 1.391 . S
C64 C65 1.399 . S
C65 C64 1.399 . S
C65 C68 1.396 . S
C65 C77 1.453 . S
C65 C78 1.684 . S
H66 C90 0.948 . S
C67 C63 1.397 . S
C67 C68 1.394 . S
C67 C86 1.723 . S
C68 C65 1.396 . S
C68 C67 1.394 . S
C68 C98 1.723 . S
H69 C92 0.947 . S
H70 C93 0.948 . S
H71 C99 0.982 . S
H72 C100 0.979 . S
H73 C100 0.980 . S
H74 C100 0.983 1_655 S
H75 C99 0.979 1_655 S
H76 C99 0.977 . S
C77 C65 1.453 . S
C77 H106 0.982 . S
C77 H107 0.979 . S
C77 H108 0.977 . S
C78 C65 1.684 . S
C78 H103 0.979 . S
C78 H104 0.980 . S
C78 H105 0.983 . S
C79 C80 1.391 . S
C79 C84 1.391 . S
C79 H109 0.948 . S
C80 C79 1.391 . S
C80 C81 1.391 . S
C81 C80 1.391 . S
C81 C82 1.392 . S
C81 H110 0.947 . S
C82 C81 1.392 . S
C82 C83 1.419 . S
C82 H111 0.948 . S
C83 C82 1.419 . S
C83 C84 1.391 . S
C83 C87 1.397 . S
C84 C79 1.391 . S
C84 C83 1.391 . S
C84 C85 1.399 . S
C85 C84 1.399 . S
C85 C86 1.396 . S
C85 C88 1.453 . S
C85 C89 1.684 . S
C86 C67 1.723 . S
C86 C85 1.396 . S
C86 C87 1.394 . S
C87 C83 1.397 . S
C87 C86 1.394 . S
C87 C97 1.723 . S
C88 C85 1.453 . S
C88 H112 0.982 . S
C88 H113 0.979 . S
C88 H114 0.977 . S
C89 C85 1.684 . S
C89 H115 0.979 . S
C89 H116 0.980 . S
C89 H117 0.983 . S
C90 H66 0.948 . S
C90 C91 1.391 . S
C90 C95 1.391 1_655 S
C91 C90 1.391 . S
C91 C92 1.391 1_655 S
C92 H69 0.947 . S
C92 C91 1.391 1_455 S
C92 C93 1.392 . S
C93 H70 0.948 . S
C93 C92 1.392 . S
C93 C94 1.419 . S
C94 C93 1.419 . S
C94 C95 1.391 . S
C94 C98 1.397 . S
C95 C90 1.391 1_455 S
C95 C94 1.391 . S
C95 C96 1.399 . S
C96 C95 1.399 . S
C96 C97 1.396 . S
C96 C99 1.453 . S
C96 C100 1.684 . S
C97 C87 1.723 . S
C97 C96 1.396 . S
C97 C98 1.394 . S
C98 C68 1.723 . S
C98 C94 1.397 . S
C98 C97 1.394 . S
C99 H71 0.982 . S
C99 H75 0.979 1_455 S
C99 H76 0.977 . S
C99 C96 1.453 . S
C100 H72 0.979 . S
C100 H73 0.980 . S
C100 H74 0.983 1_455 S
C100 C96 1.684 . S
H101 C119 0.948 . S
H102 C60 0.948 . S
H103 C78 0.979 . S
H104 C78 0.980 . S
H105 C78 0.983 . S
H106 C77 0.982 . S
H107 C77 0.979 . S
H108 C77 0.977 . S
H109 C79 0.948 . S
H110 C81 0.947 . S
H111 C82 0.948 . S
H112 C88 0.982 . S
H113 C88 0.979 . S
H114 C88 0.977 . S
H115 C89 0.979 . S
H116 C89 0.980 . S
H117 C89 0.983 . S
H118 C62 0.947 . S
C119 C62 1.392 . S
C119 C63 1.419 . S
C119 H101 0.948 . S
C120 C121 1.391 . S
C120 C124 1.391 . S
C120 H162 0.948 . S
C121 C120 1.391 . S
C121 C122 1.391 . S
C122 C121 1.391 . S
C122 H178 0.947 . S
C122 C179 1.392 . S
C123 C124 1.391 . S
C123 C127 1.397 . S
C123 C179 1.419 . S
C124 C120 1.391 . S
C124 C123 1.391 . S
C124 C125 1.399 . S
C125 C124 1.399 . S
C125 C128 1.396 . S
C125 C137 1.453 . S
C125 C138 1.684 . S
H126 C150 0.948 . S
C127 C123 1.397 . S
C127 C128 1.394 . S
C127 C146 1.723 . S
C128 C125 1.396 . S
C128 C127 1.394 . S
C128 C158 1.723 . S
H129 C152 0.947 . S
H130 C153 0.948 . S
H131 C159 0.982 . S
H132 C160 0.979 . S
H133 C160 0.980 . S
H134 C160 0.983 . S
H135 C159 0.979 . S
H136 C159 0.977 . S
C137 C125 1.453 . S
C137 H166 0.982 . S
C137 H167 0.979 . S
C137 H168 0.977 . S
C138 C125 1.684 . S
C138 H163 0.979 . S
C138 H164 0.980 . S
C138 H165 0.983 . S
C139 C140 1.391 . S
C139 C144 1.391 . S
C139 H169 0.948 . S
C140 C139 1.391 . S
C140 C141 1.391 . S
C141 C140 1.391 . S
C141 C142 1.392 . S
C141 H170 0.947 . S
C142 C141 1.392 . S
C142 C143 1.419 . S
C142 H171 0.948 . S
C143 C142 1.419 . S
C143 C144 1.391 . S
C143 C147 1.397 . S
C144 C139 1.391 . S
C144 C143 1.391 . S
C144 C145 1.399 . S
C145 C144 1.399 . S
C145 C146 1.396 . S
C145 C148 1.453 . S
C145 C149 1.684 . S
C146 C127 1.723 . S
C146 C145 1.396 . S
C146 C147 1.394 . S
C147 C143 1.397 . S
C147 C146 1.394 . S
C147 C157 1.723 . S
C148 C145 1.453 . S
C148 H172 0.982 . S
C148 H173 0.979 . S
C148 H174 0.977 . S
C149 C145 1.684 . S
C149 H175 0.979 . S
C149 H176 0.980 . S
C149 H177 0.983 . S
C150 H126 0.948 . S
C150 C151 1.391 . S
C150 C155 1.391 . S
C151 C150 1.391 . S
C151 C152 1.391 . S
C152 H129 0.947 . S
C152 C151 1.391 . S
C152 C153 1.392 . S
C153 H130 0.948 . S
C153 C152 1.392 . S
C153 C154 1.419 . S
C154 C153 1.419 . S
C154 C155 1.391 . S
C154 C158 1.397 . S
C155 C150 1.391 . S
C155 C154 1.391 . S
C155 C156 1.399 . S
C156 C155 1.399 . S
C156 C157 1.396 . S
C156 C159 1.453 . S
C156 C160 1.684 . S
C157 C147 1.723 . S
C157 C156 1.396 . S
C157 C158 1.394 . S
C158 C128 1.723 . S
C158 C154 1.397 . S
C158 C157 1.394 . S
C159 H131 0.982 . S
C159 H135 0.979 . S
C159 H136 0.977 . S
C159 C156 1.453 . S
C160 H132 0.979 . S
C160 H133 0.980 . S
C160 H134 0.983 . S
C160 C156 1.684 . S
H161 C179 0.948 . S
H162 C120 0.948 . S
H163 C138 0.979 . S
H164 C138 0.980 . S
H165 C138 0.983 . S
H166 C137 0.982 . S
H167 C137 0.979 . S
H168 C137 0.977 . S
H169 C139 0.948 . S
H170 C141 0.947 . S
H171 C142 0.948 . S
H172 C148 0.982 . S
H173 C148 0.979 . S
H174 C148 0.977 . S
H175 C149 0.979 . S
H176 C149 0.980 . S
H177 C149 0.983 . S
H178 C122 0.947 . S
C179 C122 1.392 . S
C179 C123 1.419 . S
C179 H161 0.948 . S
C180 C181 1.391 . S
C180 C184 1.391 . S
C180 H222 0.948 . S
C181 C180 1.391 . S
C181 C182 1.391 . S
C182 C181 1.391 . S
C182 H238 0.947 . S
C182 C239 1.392 . S
C183 C184 1.391 . S
C183 C187 1.397 . S
C183 C239 1.419 . S
C184 C180 1.391 . S
C184 C183 1.391 . S
C184 C185 1.399 . S
C185 C184 1.399 . S
C185 C188 1.396 . S
C185 C197 1.453 . S
C185 C198 1.684 . S
H186 C210 0.948 . S
C187 C183 1.397 . S
C187 C188 1.394 . S
C187 C206 1.723 . S
C188 C185 1.396 . S
C188 C187 1.394 . S
C188 C218 1.723 . S
H189 C212 0.947 . S
H190 C213 0.948 . S
H191 C219 0.982 . S
H192 C220 0.979 . S
H193 C220 0.980 . S
H194 C220 0.983 . S
H195 C219 0.979 . S
H196 C219 0.977 . S
C197 C185 1.453 . S
C197 H226 0.982 . S
C197 H227 0.979 . S
C197 H228 0.977 . S
C198 C185 1.684 . S
C198 H223 0.979 . S
C198 H224 0.980 . S
C198 H225 0.983 . S
C199 C200 1.391 . S
C199 C204 1.391 . S
C199 H229 0.948 . S
C200 C199 1.391 . S
C200 C201 1.391 . S
C201 C200 1.391 . S
C201 C202 1.392 . S
C201 H230 0.947 . S
C202 C201 1.392 . S
C202 C203 1.419 . S
C202 H231 0.948 . S
C203 C202 1.419 . S
C203 C204 1.391 . S
C203 C207 1.397 . S
C204 C199 1.391 . S
C204 C203 1.391 . S
C204 C205 1.399 . S
C205 C204 1.399 . S
C205 C206 1.396 . S
C205 C208 1.453 . S
C205 C209 1.684 . S
C206 C187 1.723 . S
C206 C205 1.396 . S
C206 C207 1.394 . S
C207 C203 1.397 . S
C207 C206 1.394 . S
C207 C217 1.723 . S
C208 C205 1.453 . S
C208 H232 0.982 . S
C208 H233 0.979 . S
C208 H234 0.977 . S
C209 C205 1.684 . S
C209 H235 0.979 . S
C209 H236 0.980 . S
C209 H237 0.983 . S
C210 H186 0.948 . S
C210 C211 1.391 . S
C210 C215 1.391 . S
C211 C210 1.391 . S
C211 C212 1.391 . S
C212 H189 0.947 . S
C212 C211 1.391 . S
C212 C213 1.392 . S
C213 H190 0.948 . S
C213 C212 1.392 . S
C213 C214 1.419 . S
C214 C213 1.419 . S
C214 C215 1.391 . S
C214 C218 1.397 . S
C215 C210 1.391 . S
C215 C214 1.391 . S
C215 C216 1.399 . S
C216 C215 1.399 . S
C216 C217 1.396 . S
C216 C219 1.453 . S
C216 C220 1.684 . S
C217 C207 1.723 . S
C217 C216 1.396 . S
C217 C218 1.394 . S
C218 C188 1.723 . S
C218 C214 1.397 . S
C218 C217 1.394 . S
C219 H191 0.982 . S
C219 H195 0.979 . S
C219 H196 0.977 . S
C219 C216 1.453 . S
C220 H192 0.979 . S
C220 H193 0.980 . S
C220 H194 0.983 . S
C220 C216 1.684 . S
H221 C239 0.948 . S
H222 C180 0.948 . S
H223 C198 0.979 . S
H224 C198 0.980 . S
H225 C198 0.983 . S
H226 C197 0.982 . S
H227 C197 0.979 . S
H228 C197 0.977 . S
H229 C199 0.948 . S
H230 C201 0.947 . S
H231 C202 0.948 . S
H232 C208 0.982 . S
H233 C208 0.979 . S
H234 C208 0.977 . S
H235 C209 0.979 . S
H236 C209 0.980 . S
H237 C209 0.983 . S
H238 C182 0.947 . S
C239 C182 1.392 . S
C239 C183 1.419 . S
C239 H221 0.948 . S
C240 C241 1.391 . S
C240 C244 1.391 . S
C240 H282 0.948 . S
C241 C240 1.391 . S
C241 C242 1.391 . S
C242 C241 1.391 . S
C242 H298 0.947 . S
C242 C299 1.392 . S
C243 C244 1.391 . S
C243 C247 1.397 . S
C243 C299 1.419 . S
C244 C240 1.391 . S
C244 C243 1.391 . S
C244 C245 1.399 . S
C245 C244 1.399 . S
C245 C248 1.396 . S
C245 C257 1.453 . S
C245 C258 1.684 . S
H246 C270 0.948 . S
C247 C243 1.397 . S
C247 C248 1.394 . S
C247 C266 1.723 . S
C248 C245 1.396 . S
C248 C247 1.394 . S
C248 C278 1.723 . S
H249 C272 0.947 . S
H250 C273 0.948 . S
H251 C279 0.982 . S
H252 C280 0.979 1_655 S
H253 C280 0.980 . S
H254 C280 0.983 . S
H255 C279 0.979 . S
H256 C279 0.977 . S
C257 C245 1.453 . S
C257 H286 0.982 . S
C257 H287 0.979 . S
C257 H288 0.977 . S
C258 C245 1.684 . S
C258 H283 0.979 1_455 S
C258 H284 0.980 . S
C258 H285 0.983 . S
C259 C260 1.391 . S
C259 C264 1.391 . S
C259 H289 0.948 . S
C260 C259 1.391 . S
C260 C261 1.391 . S
C261 C260 1.391 . S
C261 C262 1.392 . S
C261 H290 0.947 . S
C262 C261 1.392 . S
C262 C263 1.419 . S
C262 H291 0.948 . S
C263 C262 1.419 . S
C263 C264 1.391 . S
C263 C267 1.397 . S
C264 C259 1.391 . S
C264 C263 1.391 . S
C264 C265 1.399 . S
C265 C264 1.399 . S
C265 C266 1.396 . S
C265 C268 1.453 . S
C265 C269 1.684 . S
C266 C247 1.723 . S
C266 C265 1.396 . S
C266 C267 1.394 . S
C267 C263 1.397 . S
C267 C266 1.394 . S
C267 C277 1.723 . S
C268 C265 1.453 . S
C268 H292 0.982 . S
C268 H293 0.979 . S
C268 H294 0.977 . S
C269 C265 1.684 . S
C269 H295 0.979 1_455 S
C269 H296 0.980 . S
C269 H297 0.983 . S
C270 H246 0.948 . S
C270 C271 1.391 . S
C270 C275 1.391 . S
C271 C270 1.391 . S
C271 C272 1.391 . S
C272 H249 0.947 . S
C272 C271 1.391 . S
C272 C273 1.392 . S
C273 H250 0.948 . S
C273 C272 1.392 . S
C273 C274 1.419 . S
C274 C273 1.419 . S
C274 C275 1.391 . S
C274 C278 1.397 . S
C275 C270 1.391 . S
C275 C274 1.391 . S
C275 C276 1.399 . S
C276 C275 1.399 . S
C276 C277 1.396 . S
C276 C279 1.453 . S
C276 C280 1.684 . S
C277 C267 1.723 . S
C277 C276 1.396 . S
C277 C278 1.394 . S
C278 C248 1.723 . S
C278 C274 1.397 . S
C278 C277 1.394 . S
C279 H251 0.982 . S
C279 H255 0.979 . S
C279 H256 0.977 . S
C279 C276 1.453 . S
C280 H252 0.979 1_455 S
C280 H253 0.980 . S
C280 H254 0.983 . S
C280 C276 1.684 . S
H281 C299 0.948 . S
H282 C240 0.948 . S
H283 C258 0.979 1_655 S
H284 C258 0.980 . S
H285 C258 0.983 . S
H286 C257 0.982 . S
H287 C257 0.979 . S
H288 C257 0.977 . S
H289 C259 0.948 . S
H290 C261 0.947 . S
H291 C262 0.948 . S
H292 C268 0.982 . S
H293 C268 0.979 . S
H294 C268 0.977 . S
H295 C269 0.979 1_655 S
H296 C269 0.980 . S
H297 C269 0.983 . S
H298 C242 0.947 . S
C299 C242 1.392 . S
C299 C243 1.419 . S
C299 H281 0.948 . S
C300 C301 1.391 . S
C300 C304 1.391 . S
C300 H342 0.948 . S
C301 C300 1.391 . S
C301 C302 1.391 . S
C302 C301 1.391 . S
C302 H358 0.947 . S
C302 C359 1.392 . S
C303 C304 1.391 . S
C303 C307 1.397 . S
C303 C359 1.419 . S
C304 C300 1.391 . S
C304 C303 1.391 . S
C304 C305 1.399 . S
C305 C304 1.399 . S
C305 C308 1.396 . S
C305 C317 1.453 . S
C305 C318 1.684 . S
H306 C330 0.948 . S
C307 C303 1.397 . S
C307 C308 1.394 . S
C307 C326 1.723 . S
C308 C305 1.396 . S
C308 C307 1.394 . S
C308 C338 1.723 . S
H309 C332 0.947 . S
H310 C333 0.948 . S
H311 C339 0.982 . S
H312 C340 0.979 . S
H313 C340 0.980 . S
H314 C340 0.983 . S
H315 C339 0.979 . S
H316 C339 0.977 . S
C317 C305 1.453 . S
C317 H346 0.982 . S
C317 H347 0.979 . S
C317 H348 0.977 . S
C318 C305 1.684 . S
C318 H343 0.979 . S
C318 H344 0.980 . S
C318 H345 0.983 . S
C319 C320 1.391 . S
C319 C324 1.391 . S
C319 H349 0.948 . S
C320 C319 1.391 . S
C320 C321 1.391 . S
C321 C320 1.391 . S
C321 C322 1.392 . S
C321 H350 0.947 . S
C322 C321 1.392 . S
C322 C323 1.419 . S
C322 H351 0.948 . S
C323 C322 1.419 . S
C323 C324 1.391 . S
C323 C327 1.397 . S
C324 C319 1.391 . S
C324 C323 1.391 . S
C324 C325 1.399 . S
C325 C324 1.399 . S
C325 C326 1.396 . S
C325 C328 1.453 . S
C325 C329 1.684 . S
C326 C307 1.723 . S
C326 C325 1.396 . S
C326 C327 1.394 . S
C327 C323 1.397 . S
C327 C326 1.394 . S
C327 C337 1.723 . S
C328 C325 1.453 . S
C328 H352 0.982 . S
C328 H353 0.979 . S
C328 H354 0.977 . S
C329 C325 1.684 . S
C329 H355 0.979 . S
C329 H356 0.980 . S
C329 H357 0.983 . S
C330 H306 0.948 . S
C330 C331 1.391 . S
C330 C335 1.391 . S
C331 C330 1.391 . S
C331 C332 1.391 . S
C332 H309 0.947 . S
C332 C331 1.391 . S
C332 C333 1.392 . S
C333 H310 0.948 . S
C333 C332 1.392 . S
C333 C334 1.419 . S
C334 C333 1.419 . S
C334 C335 1.391 . S
C334 C338 1.397 . S
C335 C330 1.391 . S
C335 C334 1.391 . S
C335 C336 1.399 . S
C336 C335 1.399 . S
C336 C337 1.396 . S
C336 C339 1.453 . S
C336 C340 1.684 . S
C337 C327 1.723 . S
C337 C336 1.396 . S
C337 C338 1.394 . S
C338 C308 1.723 . S
C338 C334 1.397 . S
C338 C337 1.394 . S
C339 H311 0.982 . S
C339 H315 0.979 . S
C339 H316 0.977 . S
C339 C336 1.453 . S
C340 H312 0.979 . S
C340 H313 0.980 . S
C340 H314 0.983 . S
C340 C336 1.684 . S
H341 C359 0.948 . S
H342 C300 0.948 . S
H343 C318 0.979 . S
H344 C318 0.980 . S
H345 C318 0.983 . S
H346 C317 0.982 . S
H347 C317 0.979 . S
H348 C317 0.977 . S
H349 C319 0.948 . S
H350 C321 0.947 . S
H351 C322 0.948 . S
H352 C328 0.982 . S
H353 C328 0.979 . S
H354 C328 0.977 . S
H355 C329 0.979 . S
H356 C329 0.980 . S
H357 C329 0.983 . S
H358 C302 0.947 . S
C359 C302 1.392 . S
C359 C303 1.419 . S
C359 H341 0.948 . S
C360 C361 1.391 . S
C360 C364 1.391 . S
C360 H402 0.948 . S
C361 C360 1.391 . S
C361 C362 1.391 . S
C362 C361 1.391 . S
C362 H418 0.947 . S
C362 C419 1.392 . S
C363 C364 1.391 . S
C363 C367 1.397 . S
C363 C419 1.419 . S
C364 C360 1.391 . S
C364 C363 1.391 . S
C364 C365 1.399 . S
C365 C364 1.399 . S
C365 C368 1.396 . S
C365 C377 1.453 . S
C365 C378 1.684 . S
H366 C390 0.948 . S
C367 C363 1.397 . S
C367 C368 1.394 . S
C367 C386 1.723 . S
C368 C365 1.396 . S
C368 C367 1.394 . S
C368 C398 1.723 . S
H369 C392 0.947 . S
H370 C393 0.948 . S
H371 C399 0.982 . S
H372 C400 0.979 . S
H373 C400 0.980 . S
H374 C400 0.983 . S
H375 C399 0.979 . S
H376 C399 0.977 . S
C377 C365 1.453 . S
C377 H406 0.982 . S
C377 H407 0.979 . S
C377 H408 0.977 . S
C378 C365 1.684 . S
C378 H403 0.979 . S
C378 H404 0.980 . S
C378 H405 0.983 . S
C379 C380 1.391 . S
C379 C384 1.391 . S
C379 H409 0.948 . S
C380 C379 1.391 . S
C380 C381 1.391 . S
C381 C380 1.391 . S
C381 C382 1.392 . S
C381 H410 0.947 . S
C382 C381 1.392 . S
C382 C383 1.419 . S
C382 H411 0.948 . S
C383 C382 1.419 . S
C383 C384 1.391 . S
C383 C387 1.397 . S
C384 C379 1.391 . S
C384 C383 1.391 . S
C384 C385 1.399 . S
C385 C384 1.399 . S
C385 C386 1.396 . S
C385 C388 1.453 . S
C385 C389 1.684 . S
C386 C367 1.723 . S
C386 C385 1.396 . S
C386 C387 1.394 . S
C387 C383 1.397 . S
C387 C386 1.394 . S
C387 C397 1.723 . S
C388 C385 1.453 . S
C388 H412 0.982 . S
C388 H413 0.979 . S
C388 H414 0.977 . S
C389 C385 1.684 . S
C389 H415 0.979 . S
C389 H416 0.980 . S
C389 H417 0.983 . S
C390 H366 0.948 . S
C390 C391 1.391 . S
C390 C395 1.391 . S
C391 C390 1.391 . S
C391 C392 1.391 . S
C392 H369 0.947 . S
C392 C391 1.391 . S
C392 C393 1.392 . S
C393 H370 0.948 . S
C393 C392 1.392 . S
C393 C394 1.419 . S
C394 C393 1.419 . S
C394 C395 1.391 . S
C394 C398 1.397 . S
C395 C390 1.391 . S
C395 C394 1.391 . S
C395 C396 1.399 . S
C396 C395 1.399 . S
C396 C397 1.396 . S
C396 C399 1.453 . S
C396 C400 1.684 . S
C397 C387 1.723 . S
C397 C396 1.396 . S
C397 C398 1.394 . S
C398 C368 1.723 . S
C398 C394 1.397 . S
C398 C397 1.394 . S
C399 H371 0.982 . S
C399 H375 0.979 . S
C399 H376 0.977 . S
C399 C396 1.453 . S
C400 H372 0.979 . S
C400 H373 0.980 . S
C400 H374 0.983 . S
C400 C396 1.684 . S
H401 C419 0.948 . S
H402 C360 0.948 . S
H403 C378 0.979 . S
H404 C378 0.980 . S
H405 C378 0.983 . S
H406 C377 0.982 . S
H407 C377 0.979 . S
H408 C377 0.977 . S
H409 C379 0.948 . S
H410 C381 0.947 . S
H411 C382 0.948 . S
H412 C388 0.982 . S
H413 C388 0.979 . S
H414 C388 0.977 . S
H415 C389 0.979 . S
H416 C389 0.980 . S
H417 C389 0.983 . S
H418 C362 0.947 . S
C419 C362 1.392 . S
C419 C363 1.419 . S
C419 H401 0.948 . S
C420 C421 1.391 . S
C420 C424 1.391 . S
C420 H462 0.948 . S
C421 C420 1.391 . S
C421 C422 1.391 . S
C422 C421 1.391 . S
C422 H478 0.947 . S
C422 C479 1.392 . S
C423 C424 1.391 . S
C423 C427 1.397 . S
C423 C479 1.419 . S
C424 C420 1.391 . S
C424 C423 1.391 . S
C424 C425 1.399 . S
C425 C424 1.399 . S
C425 C428 1.396 . S
C425 C437 1.453 . S
C425 C438 1.684 . S
H426 C450 0.948 1_655 S
C427 C423 1.397 . S
C427 C428 1.394 . S
C427 C446 1.723 . S
C428 C425 1.396 . S
C428 C427 1.394 . S
C428 C458 1.723 . S
H429 C452 0.947 . S
H430 C453 0.948 . S
H431 C459 0.982 . S
H432 C460 0.979 . S
H433 C460 0.980 . S
H434 C460 0.983 . S
H435 C459 0.979 . S
H436 C459 0.977 . S
C437 C425 1.453 . S
C437 H466 0.982 . S
C437 H467 0.979 . S
C437 H468 0.977 . S
C438 C425 1.684 . S
C438 H463 0.979 . S
C438 H464 0.980 . S
C438 H465 0.983 . S
C439 C440 1.391 . S
C439 C444 1.391 . S
C439 H469 0.948 . S
C440 C439 1.391 . S
C440 C441 1.391 . S
C441 C440 1.391 . S
C441 C442 1.392 . S
C441 H470 0.947 . S
C442 C441 1.392 . S
C442 C443 1.419 . S
C442 H471 0.948 . S
C443 C442 1.419 . S
C443 C444 1.391 . S
C443 C447 1.397 . S
C444 C439 1.391 . S
C444 C443 1.391 . S
C444 C445 1.399 . S
C445 C444 1.399 . S
C445 C446 1.396 . S
C445 C448 1.453 . S
C445 C449 1.684 . S
C446 C427 1.723 . S
C446 C445 1.396 . S
C446 C447 1.394 . S
C447 C443 1.397 . S
C447 C446 1.394 . S
C447 C457 1.723 . S
C448 C445 1.453 . S
C448 H472 0.982 . S
C448 H473 0.979 . S
C448 H474 0.977 . S
C449 C445 1.684 . S
C449 H475 0.979 . S
C449 H476 0.980 . S
C449 H477 0.983 . S
C450 H426 0.948 1_455 S
C450 C451 1.391 . S
C450 C455 1.391 . S
C451 C450 1.391 . S
C451 C452 1.389 . S
C452 H429 0.947 . S
C452 C451 1.389 . S
C452 C453 1.392 . S
C453 H430 0.948 . S
C453 C452 1.392 . S
C453 C454 1.419 . S
C454 C453 1.419 . S
C454 C455 1.391 . S
C454 C458 1.397 . S
C455 C450 1.391 . S
C455 C454 1.391 . S
C455 C456 1.399 . S
C456 C455 1.399 . S
C456 C457 1.396 . S
C456 C459 1.453 . S
C456 C460 1.684 . S
C457 C447 1.723 . S
C457 C456 1.396 . S
C457 C458 1.394 . S
C458 C428 1.723 . S
C458 C454 1.397 . S
C458 C457 1.394 . S
C459 H431 0.982 . S
C459 H435 0.979 . S
C459 H436 0.977 . S
C459 C456 1.453 . S
C460 H432 0.979 . S
C460 H433 0.980 . S
C460 H434 0.983 . S
C460 C456 1.684 . S
H461 C479 0.948 . S
H462 C420 0.948 . S
H463 C438 0.979 . S
H464 C438 0.980 . S
H465 C438 0.983 . S
H466 C437 0.982 . S
H467 C437 0.979 . S
H468 C437 0.977 . S
H469 C439 0.948 . S
H470 C441 0.947 . S
H471 C442 0.948 . S
H472 C448 0.982 . S
H473 C448 0.979 . S
H474 C448 0.977 . S
H475 C449 0.979 . S
H476 C449 0.980 . S
H477 C449 0.983 . S
H478 C422 0.947 . S
C479 C422 1.392 . S
C479 C423 1.419 . S
C479 H461 0.948 . S
Zn480 O486 1.920 . S
Zn480 O492 1.898 . S
Zn480 O495 1.905 . S
Zn481 O489 1.905 . S
Zn481 O490 1.898 . S
Zn481 O498 1.920 . S
Zn482 O485 2.080 . S
Zn482 O488 2.114 . S
Zn482 O491 2.120 . S
Zn482 O493 2.120 . S
Zn482 O494 2.114 . S
Zn482 O497 2.080 . S
C483 O488 1.166 . S
C483 O489 1.182 . S
C484 O490 1.167 . S
C484 O491 1.299 . S
O485 Zn482 2.080 . S
O485 C499 1.305 . S
O486 Zn480 1.920 . S
O486 C499 1.234 . S
C487 O492 1.167 . S
C487 O493 1.299 . S
O488 Zn482 2.114 . S
O488 C483 1.166 . S
O489 Zn481 1.905 . S
O489 C483 1.182 . S
O490 Zn481 1.898 . S
O490 C484 1.167 . S
O491 Zn482 2.120 . S
O491 C484 1.299 . S
O492 Zn480 1.898 . S
O492 C487 1.167 . S
O493 Zn482 2.120 . S
O493 C487 1.299 . S
O494 Zn482 2.114 . S
O494 C496 1.166 . S
O495 Zn480 1.905 . S
O495 C496 1.182 . S
C496 O494 1.166 . S
C496 O495 1.182 . S
O497 Zn482 2.080 . S
O497 C500 1.305 . S
O498 Zn481 1.920 . S
O498 C500 1.234 . S
C499 O485 1.305 . S
C499 O486 1.234 . S
C500 O497 1.305 . S
C500 O498 1.234 . S
Zn501 O507 1.920 . S
Zn501 O513 1.898 . S
Zn501 O516 1.905 . S
Zn502 O510 1.905 . S
Zn502 O511 1.898 . S
Zn502 O519 1.920 . S
Zn503 O506 2.080 . S
Zn503 O509 2.114 . S
Zn503 O512 2.120 . S
Zn503 O514 2.120 . S
Zn503 O515 2.114 . S
Zn503 O518 2.080 . S
C504 O509 1.166 . S
C504 O510 1.182 . S
C505 O511 1.167 . S
C505 O512 1.299 . S
O506 Zn503 2.080 . S
O506 C520 1.305 . S
O507 Zn501 1.920 . S
O507 C520 1.234 . S
C508 O513 1.167 . S
C508 O514 1.299 . S
O509 Zn503 2.114 . S
O509 C504 1.166 . S
O510 Zn502 1.905 . S
O510 C504 1.182 . S
O511 Zn502 1.898 . S
O511 C505 1.167 . S
O512 Zn503 2.120 . S
O512 C505 1.299 . S
O513 Zn501 1.898 . S
O513 C508 1.167 . S
O514 Zn503 2.120 . S
O514 C508 1.299 . S
O515 Zn503 2.114 . S
O515 C517 1.166 . S
O516 Zn501 1.905 . S
O516 C517 1.182 . S
C517 O515 1.166 . S
C517 O516 1.182 . S
O518 Zn503 2.080 . S
O518 C521 1.305 . S
O519 Zn502 1.920 . S
O519 C521 1.234 . S
C520 O506 1.305 . S
C520 O507 1.234 . S
C521 O518 1.305 . S
C521 O519 1.234 . S
Zn522 O528 1.920 . S
Zn522 O534 1.898 . S
Zn522 O537 1.905 . S
Zn523 O531 1.905 . S
Zn523 O532 1.898 . S
Zn523 O540 1.920 . S
Zn524 O527 2.080 . S
Zn524 O530 2.114 . S
Zn524 O533 2.120 . S
Zn524 O535 2.120 . S
Zn524 O536 2.114 . S
Zn524 O539 2.080 . S
C525 O530 1.166 . S
C525 O531 1.182 . S
C526 O532 1.167 . S
C526 O533 1.299 . S
O527 Zn524 2.080 . S
O527 C541 1.305 . S
O528 Zn522 1.920 . S
O528 C541 1.234 . S
C529 O534 1.167 . S
C529 O535 1.299 . S
O530 Zn524 2.114 . S
O530 C525 1.166 . S
O531 Zn523 1.905 . S
O531 C525 1.182 . S
O532 Zn523 1.898 . S
O532 C526 1.167 . S
O533 Zn524 2.120 . S
O533 C526 1.299 . S
O534 Zn522 1.898 . S
O534 C529 1.167 . S
O535 Zn524 2.120 . S
O535 C529 1.299 . S
O536 Zn524 2.114 . S
O536 C538 1.166 . S
O537 Zn522 1.905 . S
O537 C538 1.182 . S
C538 O536 1.166 . S
C538 O537 1.182 . S
O539 Zn524 2.080 . S
O539 C542 1.305 . S
O540 Zn523 1.920 . S
O540 C542 1.234 . S
C541 O527 1.305 . S
C541 O528 1.234 . S
C542 O539 1.305 . S
C542 O540 1.234 . S
Zn543 O549 1.920 . S
Zn543 O555 1.898 . S
Zn543 O558 1.905 . S
Zn544 O552 1.905 . S
Zn544 O553 1.898 . S
Zn544 O561 1.920 . S
Zn545 O548 2.080 . S
Zn545 O551 2.114 . S
Zn545 O554 2.120 . S
Zn545 O556 2.120 . S
Zn545 O557 2.114 . S
Zn545 O560 2.080 . S
C546 O551 1.166 . S
C546 O552 1.182 . S
C547 O553 1.167 . S
C547 O554 1.299 . S
O548 Zn545 2.080 . S
O548 C562 1.305 . S
O549 Zn543 1.920 . S
O549 C562 1.234 . S
C550 O555 1.167 . S
C550 O556 1.299 . S
O551 Zn545 2.114 . S
O551 C546 1.166 . S
O552 Zn544 1.905 . S
O552 C546 1.182 . S
O553 Zn544 1.898 . S
O553 C547 1.167 . S
O554 Zn545 2.120 . S
O554 C547 1.299 . S
O555 Zn543 1.898 . S
O555 C550 1.167 . S
O556 Zn545 2.120 . S
O556 C550 1.299 . S
O557 Zn545 2.114 . S
O557 C559 1.166 . S
O558 Zn543 1.905 . S
O558 C559 1.182 . S
C559 O557 1.166 . S
C559 O558 1.182 . S
O560 Zn545 2.080 . S
O560 C563 1.305 . S
O561 Zn544 1.920 . S
O561 C563 1.234 . S
C562 O548 1.305 . S
C562 O549 1.234 . S
C563 O560 1.305 . S
C563 O561 1.234 . S
H564 C572 0.950 . S
H565 C577 0.950 . S
H566 C574 0.950 . S
H567 C576 0.950 . S
H568 C578 0.950 . S
H569 C580 0.950 . S
H570 C582 0.950 . S
H571 C583 0.950 . S
C572 H564 0.950 . S
C572 C573 1.386 . S
C572 C574 1.391 . S
C573 C572 1.386 . S
C573 C577 1.393 . S
C574 H566 0.950 . S
C574 C572 1.391 . S
C574 C575 1.400 . S
C575 C574 1.400 . S
C575 C576 1.398 . S
C575 C581 1.491 . S
C576 H567 0.950 . S
C576 C575 1.398 . S
C576 C577 1.391 . S
C577 H565 0.950 . S
C577 C573 1.393 . S
C577 C576 1.391 . S
C578 H568 0.950 . S
C578 C579 1.386 . S
C578 C580 1.391 . S
C579 C578 1.386 . S
C579 C583 1.393 . S
C580 H569 0.950 . S
C580 C578 1.391 . S
C580 C581 1.400 . S
C581 C575 1.491 . S
C581 C580 1.400 . S
C581 C582 1.398 . S
C582 H570 0.950 . S
C582 C581 1.398 . S
C582 C583 1.391 . S
C583 H571 0.950 . S
C583 C579 1.393 . S
C583 C582 1.391 . S
H584 C592 0.950 . S
H585 C597 0.950 . S
H586 C594 0.950 . S
H587 C596 0.950 . S
H588 C598 0.950 . S
H589 C600 0.950 . S
H590 C602 0.950 . S
H591 C603 0.950 . S
C592 H584 0.950 . S
C592 C593 1.386 . S
C592 C594 1.391 . S
C593 C592 1.386 . S
C593 C597 1.393 . S
C594 H586 0.950 . S
C594 C592 1.391 . S
C594 C595 1.400 . S
C595 C594 1.400 . S
C595 C596 1.398 . S
C595 C601 1.491 . S
C596 H587 0.950 . S
C596 C595 1.398 . S
C596 C597 1.391 . S
C597 H585 0.950 . S
C597 C593 1.393 . S
C597 C596 1.391 . S
C598 H588 0.950 . S
C598 C599 1.386 . S
C598 C600 1.391 . S
C599 C598 1.386 . S
C599 C603 1.393 . S
C600 H589 0.950 . S
C600 C598 1.391 . S
C600 C601 1.400 . S
C601 C595 1.491 . S
C601 C600 1.400 . S
C601 C602 1.398 . S
C602 H590 0.950 . S
C602 C601 1.398 . S
C602 C603 1.391 . S
C603 H591 0.950 . S
C603 C599 1.393 . S
C603 C602 1.391 . S
H604 C612 0.950 . S
H605 C617 0.950 . S
H606 C614 0.950 . S
H607 C616 0.950 . S
H608 C618 0.950 . S
H609 C620 0.950 . S
H610 C622 0.950 . S
H611 C623 0.950 . S
C612 H604 0.950 . S
C612 C613 1.386 . S
C612 C614 1.391 . S
C613 C612 1.386 . S
C613 C617 1.393 . S
C614 H606 0.950 . S
C614 C612 1.391 . S
C614 C615 1.400 . S
C615 C614 1.400 . S
C615 C616 1.398 . S
C615 C621 1.491 . S
C616 H607 0.950 . S
C616 C615 1.398 . S
C616 C617 1.391 . S
C617 H605 0.950 . S
C617 C613 1.393 . S
C617 C616 1.391 . S
C618 H608 0.950 . S
C618 C619 1.386 . S
C618 C620 1.391 . S
C619 C618 1.386 . S
C619 C623 1.393 . S
C620 H609 0.950 . S
C620 C618 1.391 . S
C620 C621 1.400 . S
C621 C615 1.491 . S
C621 C620 1.400 . S
C621 C622 1.398 . S
C622 H610 0.950 . S
C622 C621 1.398 . S
C622 C623 1.391 . S
C623 H611 0.950 . S
C623 C619 1.393 . S
C623 C622 1.391 . S
H624 C632 0.950 . S
H625 C637 0.950 . S
H626 C634 0.950 . S
H627 C636 0.950 . S
H628 C638 0.950 . S
H629 C640 0.950 . S
H630 C642 0.950 . S
H631 C643 0.950 . S
C632 H624 0.950 . S
C632 C633 1.386 . S
C632 C634 1.391 . S
C633 C632 1.386 . S
C633 C637 1.393 . S
C634 H626 0.950 . S
C634 C632 1.391 . S
C634 C635 1.400 . S
C635 C634 1.400 . S
C635 C636 1.398 . S
C635 C641 1.491 . S
C636 H627 0.950 . S
C636 C635 1.398 . S
C636 C637 1.391 . S
C637 H625 0.950 . S
C637 C633 1.393 . S
C637 C636 1.391 . S
C638 H628 0.950 . S
C638 C639 1.386 1_655 S
C638 C640 1.391 . S
C639 C638 1.386 1_455 S
C639 C643 1.393 1_455 S
C640 H629 0.950 . S
C640 C638 1.391 . S
C640 C641 1.400 . S
C641 C635 1.491 . S
C641 C640 1.400 . S
C641 C642 1.398 . S
C642 H630 0.950 . S
C642 C641 1.398 . S
C642 C643 1.391 . S
C643 H631 0.950 . S
C643 C639 1.393 1_655 S
C643 C642 1.391 . S
H644 C652 0.950 . S
H645 C657 0.950 . S
H646 C654 0.950 . S
H647 C656 0.950 . S
H648 C658 0.950 . S
H649 C660 0.950 . S
H650 C662 0.950 . S
H651 C663 0.950 . S
C652 H644 0.950 . S
C652 C653 1.386 . S
C652 C654 1.391 . S
C653 C652 1.386 . S
C653 C657 1.393 . S
C654 H646 0.950 . S
C654 C652 1.391 . S
C654 C655 1.400 . S
C655 C654 1.400 . S
C655 C656 1.398 . S
C655 C661 1.491 . S
C656 H647 0.950 . S
C656 C655 1.398 . S
C656 C657 1.391 . S
C657 H645 0.950 . S
C657 C653 1.393 . S
C657 C656 1.391 . S
C658 H648 0.950 . S
C658 C659 1.386 . S
C658 C660 1.391 . S
C659 C658 1.386 . S
C659 C663 1.393 . S
C660 H649 0.950 . S
C660 C658 1.391 . S
C660 C661 1.400 . S
C661 C655 1.491 . S
C661 C660 1.400 . S
C661 C662 1.398 . S
C662 H650 0.950 . S
C662 C661 1.398 . S
C662 C663 1.391 . S
C663 H651 0.950 . S
C663 C659 1.393 . S
C663 C662 1.391 . S
H664 C672 0.950 . S
H665 C677 0.950 . S
H666 C674 0.950 . S
H667 C676 0.950 . S
H668 C678 0.959 . S
H669 C680 0.950 . S
H670 C682 0.950 . S
H671 C683 0.950 1_455 S
C672 H664 0.950 . S
C672 C673 1.386 . S
C672 C674 1.391 . S
C673 C672 1.386 . S
C673 C677 1.393 . S
C674 H666 0.950 . S
C674 C672 1.391 . S
C674 C675 1.400 . S
C675 C674 1.400 . S
C675 C676 1.398 . S
C675 C681 1.491 . S
C676 H667 0.950 . S
C676 C675 1.398 . S
C676 C677 1.391 . S
C677 H665 0.950 . S
C677 C673 1.393 . S
C677 C676 1.391 . S
C678 H668 0.959 . S
C678 C679 1.386 1_655 S
C678 C680 1.391 . S
C679 C678 1.386 1_455 S
C679 C683 1.393 1_455 S
C680 H669 0.950 . S
C680 C678 1.391 . S
C680 C681 1.400 . S
C681 C675 1.491 . S
C681 C680 1.400 . S
C681 C682 1.398 . S
C682 H670 0.950 . S
C682 C681 1.398 . S
C682 C683 1.391 . S
C683 H671 0.950 1_655 S
C683 C679 1.393 1_655 S
C683 C682 1.391 . S
H684 C692 0.950 . S
H685 C697 0.950 . S
H686 C694 0.950 . S
H687 C696 0.950 . S
H688 C698 0.950 . S
H689 C700 0.950 . S
H690 C702 0.950 . S
H691 C703 0.950 . S
C692 H684 0.950 . S
C692 C693 1.386 . S
C692 C694 1.391 . S
C693 C692 1.386 . S
C693 C697 1.393 . S
C694 H686 0.950 . S
C694 C692 1.391 . S
C694 C695 1.400 . S
C695 C694 1.400 . S
C695 C696 1.398 . S
C695 C701 1.491 . S
C696 H687 0.950 . S
C696 C695 1.398 . S
C696 C697 1.391 . S
C697 H685 0.950 . S
C697 C693 1.393 . S
C697 C696 1.391 . S
C698 H688 0.950 . S
C698 C699 1.386 . S
C698 C700 1.391 . S
C699 C698 1.386 . S
C699 C703 1.393 . S
C700 H689 0.950 . S
C700 C698 1.391 . S
C700 C701 1.400 . S
C701 C695 1.491 . S
C701 C700 1.400 . S
C701 C702 1.398 . S
C702 H690 0.950 . S
C702 C701 1.398 . S
C702 C703 1.391 . S
C703 H691 0.950 . S
C703 C699 1.393 . S
C703 C702 1.391 . S
H704 C712 0.950 . S
H705 C717 0.950 . S
H706 C714 0.950 . S
H707 C716 0.950 . S
H708 C718 0.950 . S
H709 C720 0.950 . S
H710 C722 0.950 . S
H711 C723 0.950 . S
C712 H704 0.950 . S
C712 C713 1.386 . S
C712 C714 1.391 . S
C713 C712 1.386 . S
C713 C717 1.393 . S
C714 H706 0.950 . S
C714 C712 1.391 . S
C714 C715 1.400 . S
C715 C714 1.400 . S
C715 C716 1.398 . S
C715 C721 1.491 . S
C716 H707 0.950 . S
C716 C715 1.398 . S
C716 C717 1.391 . S
C717 H705 0.950 . S
C717 C713 1.393 . S
C717 C716 1.391 . S
C718 H708 0.950 . S
C718 C719 1.386 . S
C718 C720 1.391 . S
C719 C718 1.386 . S
C719 C723 1.393 . S
C720 H709 0.950 . S
C720 C718 1.391 . S
C720 C721 1.400 . S
C721 C715 1.491 . S
C721 C720 1.400 . S
C721 C722 1.398 . S
C722 H710 0.950 . S
C722 C721 1.398 . S
C722 C723 1.391 . S
C723 H711 0.950 . S
C723 C719 1.393 . S
C723 C722 1.391 . S
H724 C732 0.950 . S
H725 C737 0.950 . S
H726 C734 0.950 . S
H727 C736 0.950 . S
H728 C738 0.950 . S
H729 C740 0.950 . S
H730 C742 0.950 . S
H731 C743 0.950 . S
C732 H724 0.950 . S
C732 C733 1.386 . S
C732 C734 1.391 . S
C733 C732 1.386 . S
C733 C737 1.393 . S
C734 H726 0.950 . S
C734 C732 1.391 . S
C734 C735 1.400 . S
C735 C734 1.400 . S
C735 C736 1.398 . S
C735 C741 1.491 . S
C736 H727 0.950 . S
C736 C735 1.398 . S
C736 C737 1.391 . S
C737 H725 0.950 . S
C737 C733 1.393 . S
C737 C736 1.391 . S
C738 H728 0.950 . S
C738 C739 1.386 . S
C738 C740 1.391 . S
C739 C738 1.386 . S
C739 C743 1.393 . S
C740 H729 0.950 . S
C740 C738 1.391 . S
C740 C741 1.400 . S
C741 C735 1.491 . S
C741 C740 1.400 . S
C741 C742 1.398 . S
C742 H730 0.950 . S
C742 C741 1.398 . S
C742 C743 1.391 . S
C743 H731 0.950 . S
C743 C739 1.393 . S
C743 C742 1.391 . S
H744 C752 0.950 . S
H745 C757 0.950 . S
H746 C754 0.950 . S
H747 C756 0.950 . S
H748 C758 0.950 . S
H749 C760 0.950 . S
H750 C762 0.950 . S
H751 C763 0.950 . S
C752 H744 0.950 . S
C752 C753 1.386 . S
C752 C754 1.391 . S
C753 C752 1.386 . S
C753 C757 1.393 . S
C754 H746 0.950 . S
C754 C752 1.391 . S
C754 C755 1.400 . S
C755 C754 1.400 . S
C755 C756 1.398 . S
C755 C761 1.491 . S
C756 H747 0.950 . S
C756 C755 1.398 . S
C756 C757 1.391 . S
C757 H745 0.950 . S
C757 C753 1.393 . S
C757 C756 1.391 . S
C758 H748 0.950 . S
C758 C759 1.386 . S
C758 C760 1.391 . S
C759 C758 1.386 . S
C759 C763 1.393 . S
C760 H749 0.950 . S
C760 C758 1.391 . S
C760 C761 1.400 . S
C761 C755 1.491 . S
C761 C760 1.400 . S
C761 C762 1.398 . S
C762 H750 0.950 . S
C762 C761 1.398 . S
C762 C763 1.391 . S
C763 H751 0.950 . S
C763 C759 1.393 . S
C763 C762 1.391 . S
H764 C772 0.950 . S
H765 C777 0.950 . S
H766 C774 0.950 . S
H767 C776 0.950 . S
H768 C778 0.950 . S
H769 C780 0.950 . S
H770 C782 0.950 . S
H771 C783 0.950 . S
C772 H764 0.950 . S
C772 C773 1.386 . S
C772 C774 1.391 . S
C773 C772 1.386 . S
C773 C777 1.393 . S
C774 H766 0.950 . S
C774 C772 1.391 . S
C774 C775 1.400 . S
C775 C774 1.400 . S
C775 C776 1.398 . S
C775 C781 1.491 . S
C776 H767 0.950 . S
C776 C775 1.398 . S
C776 C777 1.391 . S
C777 H765 0.950 . S
C777 C773 1.393 . S
C777 C776 1.391 . S
C778 H768 0.950 . S
C778 C779 1.386 . S
C778 C780 1.391 . S
C779 C778 1.386 . S
C779 C783 1.393 . S
C780 H769 0.950 . S
C780 C778 1.391 . S
C780 C781 1.400 . S
C781 C775 1.491 . S
C781 C780 1.400 . S
C781 C782 1.398 . S
C782 H770 0.950 . S
C782 C781 1.398 . S
C782 C783 1.391 . S
C783 H771 0.950 . S
C783 C779 1.393 . S
C783 C782 1.391 . S
H784 C792 0.950 . S
H785 C797 0.950 . S
H786 C794 0.950 . S
H787 C796 0.950 . S
H788 C798 0.950 . S
H789 C800 0.950 . S
H790 C802 0.950 . S
H791 C803 0.950 . S
C792 H784 0.950 . S
C792 C793 1.386 . S
C792 C794 1.391 . S
C793 C792 1.386 . S
C793 C797 1.393 . S
C794 H786 0.950 . S
C794 C792 1.391 . S
C794 C795 1.400 . S
C795 C794 1.400 . S
C795 C796 1.398 . S
C795 C801 1.491 . S
C796 H787 0.950 . S
C796 C795 1.398 . S
C796 C797 1.391 . S
C797 H785 0.950 . S
C797 C793 1.393 . S
C797 C796 1.391 . S
C798 H788 0.950 . S
C798 C799 1.386 . S
C798 C800 1.391 . S
C799 C798 1.386 . S
C799 C803 1.393 . S
C800 H789 0.950 . S
C800 C798 1.391 . S
C800 C801 1.400 . S
C801 C795 1.491 . S
C801 C800 1.400 . S
C801 C802 1.398 . S
C802 H790 0.950 . S
C802 C801 1.398 . S
C802 C803 1.391 . S
C803 H791 0.950 . S
C803 C799 1.393 . S
C803 C802 1.391 . S
H804 C812 0.950 . S
H805 C817 0.950 . S
H806 C814 0.950 1_545 S
H807 C816 0.950 . S
H808 C818 0.950 . S
H809 C820 0.950 . S
H810 C822 0.950 . S
H811 C823 0.950 . S
C812 H804 0.950 . S
C812 C813 1.386 . S
C812 C814 1.391 . S
C813 C812 1.386 . S
C813 C817 1.393 . S
C814 H806 0.950 1_565 S
C814 C812 1.391 . S
C814 C815 1.400 . S
C815 C814 1.400 . S
C815 C816 1.398 . S
C815 C821 1.491 1_565 S
C816 H807 0.950 . S
C816 C815 1.398 . S
C816 C817 1.391 . S
C817 H805 0.950 . S
C817 C813 1.393 . S
C817 C816 1.391 . S
C818 H808 0.950 . S
C818 C819 1.386 . S
C818 C820 1.391 . S
C819 C818 1.386 . S
C819 C823 1.393 . S
C820 H809 0.950 . S
C820 C818 1.391 . S
C820 C821 1.400 . S
C821 C815 1.491 1_545 S
C821 C820 1.400 . S
C821 C822 1.398 . S
C822 H810 0.950 . S
C822 C821 1.398 . S
C822 C823 1.391 . S
C823 H811 0.950 . S
C823 C819 1.393 . S
C823 C822 1.391 . S
H824 C832 0.950 . S
H825 C837 0.950 . S
H826 C834 0.950 . S
H827 C836 0.950 . S
H828 C838 0.950 . S
H829 C840 0.950 . S
H830 C842 0.950 . S
H831 C843 0.950 . S
C832 H824 0.950 . S
C832 C833 1.386 . S
C832 C834 1.391 1_545 S
C833 C832 1.386 . S
C833 C837 1.393 . S
C834 H826 0.950 . S
C834 C832 1.391 1_565 S
C834 C835 1.400 . S
C835 C834 1.400 . S
C835 C836 1.398 1_565 S
C835 C841 1.491 . S
C836 H827 0.950 . S
C836 C835 1.398 1_545 S
C836 C837 1.391 . S
C837 H825 0.950 . S
C837 C833 1.393 . S
C837 C836 1.391 . S
C838 H828 0.950 . S
C838 C839 1.386 . S
C838 C840 1.391 . S
C839 C838 1.386 . S
C839 C843 1.393 . S
C840 H829 0.950 . S
C840 C838 1.391 . S
C840 C841 1.400 . S
C841 C835 1.491 . S
C841 C840 1.400 . S
C841 C842 1.398 . S
C842 H830 0.950 . S
C842 C841 1.398 . S
C842 C843 1.391 . S
C843 H831 0.950 . S
C843 C839 1.393 . S
C843 C842 1.391 . S
H844 C852 0.950 . S
H845 C857 0.950 . S
H846 C854 0.950 . S
H847 C856 0.950 . S
H848 C858 0.950 . S
H849 C860 0.950 . S
H850 C862 0.950 . S
H851 C863 0.950 . S
C852 H844 0.950 . S
C852 C853 1.386 . S
C852 C854 1.391 1_545 S
C853 C852 1.386 . S
C853 C857 1.393 . S
C854 H846 0.950 . S
C854 C852 1.391 1_565 S
C854 C855 1.400 . S
C855 C854 1.400 . S
C855 C856 1.398 1_565 S
C855 C861 1.491 . S
C856 H847 0.950 . S
C856 C855 1.398 1_545 S
C856 C857 1.391 . S
C857 H845 0.950 . S
C857 C853 1.393 . S
C857 C856 1.391 . S
C858 H848 0.950 . S
C858 C859 1.386 . S
C858 C860 1.391 . S
C859 C858 1.386 . S
C859 C863 1.393 . S
C860 H849 0.950 . S
C860 C858 1.391 . S
C860 C861 1.400 . S
C861 C855 1.491 . S
C861 C860 1.400 . S
C861 C862 1.398 . S
C862 H850 0.950 . S
C862 C861 1.398 . S
C862 C863 1.391 . S
C863 H851 0.950 . S
C863 C859 1.393 . S
C863 C862 1.391 . S
H864 C872 0.950 . S
H865 C877 0.950 . S
H866 C874 0.950 . S
H867 C876 0.950 1_545 S
H868 C878 0.950 . S
H869 C880 0.950 . S
H870 C882 0.950 . S
H871 C883 0.950 . S
C872 H864 0.950 . S
C872 C873 1.386 . S
C872 C874 1.391 . S
C873 C872 1.386 . S
C873 C877 1.393 . S
C874 H866 0.950 . S
C874 C872 1.391 . S
C874 C875 1.400 . S
C875 C874 1.400 . S
C875 C876 1.398 . S
C875 C881 1.491 1_565 S
C876 H867 0.950 1_565 S
C876 C875 1.398 . S
C876 C877 1.391 . S
C877 H865 0.950 . S
C877 C873 1.393 . S
C877 C876 1.391 . S
C878 H868 0.950 . S
C878 C879 1.386 . S
C878 C880 1.391 . S
C879 C878 1.386 . S
C879 C883 1.393 . S
C880 H869 0.950 . S
C880 C878 1.391 . S
C880 C881 1.400 . S
C881 C875 1.491 1_545 S
C881 C880 1.400 . S
C881 C882 1.398 . S
C882 H870 0.950 . S
C882 C881 1.398 . S
C882 C883 1.391 . S
C883 H871 0.950 . S
C883 C879 1.393 . S
C883 C882 1.391 . S
H884 C892 0.950 . S
H885 C897 0.950 . S
H886 C894 0.950 . S
H887 C896 0.950 . S
H888 C898 0.950 . S
H889 C900 0.950 . S
H890 C902 0.950 . S
H891 C903 0.950 . S
C892 H884 0.950 . S
C892 C893 1.386 . S
C892 C894 1.391 . S
C893 C892 1.386 . S
C893 C897 1.393 . S
C894 H886 0.950 . S
C894 C892 1.391 . S
C894 C895 1.400 . S
C895 C894 1.400 . S
C895 C896 1.398 . S
C895 C901 1.491 . S
C896 H887 0.950 . S
C896 C895 1.398 . S
C896 C897 1.391 . S
C897 H885 0.950 . S
C897 C893 1.393 . S
C897 C896 1.391 . S
C898 H888 0.950 . S
C898 C899 1.386 . S
C898 C900 1.391 . S
C899 C898 1.386 . S
C899 C903 1.393 . S
C900 H889 0.950 . S
C900 C898 1.391 . S
C900 C901 1.400 . S
C901 C895 1.491 . S
C901 C900 1.400 . S
C901 C902 1.398 . S
C902 H890 0.950 . S
C902 C901 1.398 . S
C902 C903 1.391 . S
C903 H891 0.950 . S
C903 C899 1.393 . S
C903 C902 1.391 . S
H904 C912 0.950 . S
H905 C917 0.950 . S
H906 C914 0.950 . S
H907 C916 0.950 . S
H908 C918 0.950 . S
H909 C920 0.950 . S
H910 C922 0.950 . S
H911 C923 0.950 . S
C912 H904 0.950 . S
C912 C913 1.386 . S
C912 C914 1.391 . S
C913 C912 1.386 . S
C913 C917 1.393 . S
C914 H906 0.950 . S
C914 C912 1.391 . S
C914 C915 1.400 . S
C915 C914 1.400 . S
C915 C916 1.398 . S
C915 C921 1.491 . S
C916 H907 0.950 . S
C916 C915 1.398 . S
C916 C917 1.391 . S
C917 H905 0.950 . S
C917 C913 1.393 . S
C917 C916 1.391 . S
C918 H908 0.950 . S
C918 C919 1.386 . S
C918 C920 1.391 . S
C919 C918 1.386 . S
C919 C923 1.393 . S
C920 H909 0.950 . S
C920 C918 1.391 . S
C920 C921 1.400 . S
C921 C915 1.491 . S
C921 C920 1.400 . S
C921 C922 1.398 . S
C922 H910 0.950 . S
C922 C921 1.398 . S
C922 C923 1.391 . S
C923 H911 0.950 . S
C923 C919 1.393 . S
C923 C922 1.391 . S
H924 C932 0.950 . S
H925 C937 0.950 . S
H926 C934 0.950 . S
H927 C936 0.950 . S
H928 C938 0.950 . S
H929 C940 0.950 . S
H930 C942 0.950 . S
H931 C943 0.950 . S
C932 H924 0.950 . S
C932 C933 1.386 . S
C932 C934 1.391 . S
C933 C932 1.386 . S
C933 C937 1.393 . S
C934 H926 0.950 . S
C934 C932 1.391 . S
C934 C935 1.400 . S
C935 C934 1.400 . S
C935 C936 1.398 . S
C935 C941 1.491 . S
C936 H927 0.950 . S
C936 C935 1.398 . S
C936 C937 1.391 . S
C937 H925 0.950 . S
C937 C933 1.393 . S
C937 C936 1.391 . S
C938 H928 0.950 . S
C938 C939 1.386 . S
C938 C940 1.391 . S
C939 C938 1.386 . S
C939 C943 1.393 . S
C940 H929 0.950 . S
C940 C938 1.391 . S
C940 C941 1.400 . S
C941 C935 1.491 . S
C941 C940 1.400 . S
C941 C942 1.398 . S
C942 H930 0.950 . S
C942 C941 1.398 . S
C942 C943 1.391 . S
C943 H931 0.950 . S
C943 C939 1.393 . S
C943 C942 1.391 . S
H944 C952 0.950 . S
H945 C957 0.950 . S
H946 C954 0.950 . S
H947 C956 0.950 . S
H948 C958 0.950 . S
H949 C960 0.950 . S
H950 C962 0.950 . S
H951 C963 0.950 . S
C952 H944 0.950 . S
C952 C953 1.386 . S
C952 C954 1.391 . S
C953 C952 1.386 . S
C953 C957 1.393 . S
C954 H946 0.950 . S
C954 C952 1.391 . S
C954 C955 1.400 . S
C955 C954 1.400 . S
C955 C956 1.398 . S
C955 C961 1.491 . S
C956 H947 0.950 . S
C956 C955 1.398 . S
C956 C957 1.391 . S
C957 H945 0.950 . S
C957 C953 1.393 . S
C957 C956 1.391 . S
C958 H948 0.950 . S
C958 C959 1.386 . S
C958 C960 1.391 . S
C959 C958 1.386 . S
C959 C963 1.393 . S
C960 H949 0.950 . S
C960 C958 1.391 . S
C960 C961 1.400 . S
C961 C955 1.491 . S
C961 C960 1.400 . S
C961 C962 1.398 . S
C962 H950 0.950 . S
C962 C961 1.398 . S
C962 C963 1.391 . S
C963 H951 0.950 . S
C963 C959 1.393 . S
C963 C962 1.391 . S
H964 C972 0.950 . S
H965 C977 0.950 . S
H966 C974 0.950 . S
H967 C976 0.950 . S
H968 C978 0.950 . S
H969 C980 0.950 . S
H970 C982 0.950 . S
H971 C983 0.950 . S
C972 H964 0.950 . S
C972 C973 1.386 . S
C972 C974 1.391 . S
C973 C972 1.386 . S
C973 C977 1.393 . S
C974 H966 0.950 . S
C974 C972 1.391 . S
C974 C975 1.400 . S
C975 C974 1.400 . S
C975 C976 1.398 . S
C975 C981 1.491 . S
C976 H967 0.950 . S
C976 C975 1.398 . S
C976 C977 1.391 . S
C977 H965 0.950 . S
C977 C973 1.393 . S
C977 C976 1.391 . S
C978 H968 0.950 . S
C978 C979 1.386 . S
C978 C980 1.391 . S
C979 C978 1.386 . S
C979 C983 1.393 . S
C980 H969 0.950 . S
C980 C978 1.391 . S
C980 C981 1.400 . S
C981 C975 1.491 . S
C981 C980 1.400 . S
C981 C982 1.398 . S
C982 H970 0.950 . S
C982 C981 1.398 . S
C982 C983 1.391 . S
C983 H971 0.950 . S
C983 C979 1.393 . S
C983 C982 1.391 . S
H984 C992 0.950 . S
H985 C997 0.950 . S
H986 C994 0.950 . S
H987 C996 0.950 . S
H988 C998 0.950 . S
H989 C1000 0.950 . S
H990 C1002 0.950 . S
H991 C1003 0.950 . S
C992 H984 0.950 . S
C992 C993 1.386 . S
C992 C994 1.391 . S
C993 C992 1.386 . S
C993 C997 1.393 . S
C994 H986 0.950 . S
C994 C992 1.391 . S
C994 C995 1.400 . S
C995 C994 1.400 . S
C995 C996 1.398 . S
C995 C1001 1.491 . S
C996 H987 0.950 . S
C996 C995 1.398 . S
C996 C997 1.391 . S
C997 H985 0.950 . S
C997 C993 1.393 . S
C997 C996 1.391 . S
C998 H988 0.950 . S
C998 C999 1.386 . S
C998 C1000 1.391 . S
C999 C998 1.386 . S
C999 C1003 1.393 . S
C1000 H989 0.950 . S
C1000 C998 1.391 . S
C1000 C1001 1.400 . S
C1001 C995 1.491 . S
C1001 C1000 1.400 . S
C1001 C1002 1.398 . S
C1002 H990 0.950 . S
C1002 C1001 1.398 . S
C1002 C1003 1.391 . S
C1003 H991 0.950 . S
C1003 C999 1.393 . S
C1003 C1002 1.391 . S
H1004 C1012 0.950 . S
H1005 C1017 0.950 . S
H1006 C1014 0.950 . S
H1007 C1016 0.950 . S
H1008 C1018 0.950 . S
H1009 C1020 0.950 . S
H1010 C1022 0.950 . S
H1011 C1023 0.950 . S
C1012 H1004 0.950 . S
C1012 C1013 1.386 . S
C1012 C1014 1.391 . S
C1013 C1012 1.386 . S
C1013 C1017 1.393 . S
C1014 H1006 0.950 . S
C1014 C1012 1.391 . S
C1014 C1015 1.400 . S
C1015 C1014 1.400 . S
C1015 C1016 1.398 . S
C1015 C1021 1.491 . S
C1016 H1007 0.950 . S
C1016 C1015 1.398 . S
C1016 C1017 1.391 . S
C1017 H1005 0.950 . S
C1017 C1013 1.393 . S
C1017 C1016 1.391 . S
C1018 H1008 0.950 . S
C1018 C1019 1.386 . S
C1018 C1020 1.391 . S
C1019 C1018 1.386 . S
C1019 C1023 1.393 . S
C1020 H1009 0.950 . S
C1020 C1018 1.391 . S
C1020 C1021 1.400 . S
C1021 C1015 1.491 . S
C1021 C1020 1.400 . S
C1021 C1022 1.398 . S
C1022 H1010 0.950 . S
C1022 C1021 1.398 . S
C1022 C1023 1.391 . S
C1023 H1011 0.950 . S
C1023 C1019 1.393 . S
C1023 C1022 1.391 . S
H1024 C1032 0.950 . S
H1025 C1037 0.950 . S
H1026 C1034 0.950 . S
H1027 C1036 0.950 . S
H1028 C1038 0.950 . S
H1029 C1040 0.950 . S
H1030 C1042 0.950 . S
H1031 C1043 0.950 . S
C1032 H1024 0.950 . S
C1032 C1033 1.386 . S
C1032 C1034 1.391 . S
C1033 C1032 1.386 . S
C1033 C1037 1.393 . S
C1034 H1026 0.950 . S
C1034 C1032 1.391 . S
C1034 C1035 1.400 . S
C1035 C1034 1.400 . S
C1035 C1036 1.398 . S
C1035 C1041 1.491 . S
C1036 H1027 0.950 . S
C1036 C1035 1.398 . S
C1036 C1037 1.391 . S
C1037 H1025 0.950 . S
C1037 C1033 1.393 . S
C1037 C1036 1.391 . S
C1038 H1028 0.950 . S
C1038 C1039 1.386 . S
C1038 C1040 1.391 . S
C1039 C1038 1.386 . S
C1039 C1043 1.393 . S
C1040 H1029 0.950 . S
C1040 C1038 1.391 . S
C1040 C1041 1.400 . S
C1041 C1035 1.491 . S
C1041 C1040 1.400 . S
C1041 C1042 1.398 . S
C1042 H1030 0.950 . S
C1042 C1041 1.398 . S
C1042 C1043 1.391 . S
C1043 H1031 0.950 . S
C1043 C1039 1.393 . S
C1043 C1042 1.391 . S
C579 C487 1.492 . S
C573 C31 1.638 . S
C599 C505 1.316 . S
C593 C91 1.397 . S
C613 C121 1.324 . S
C619 C529 1.322 . S
C639 C559 1.324 . S
C633 C181 1.397 . S
C659 C547 1.322 . S
C653 C271 1.437 . S
C673 C301 1.339 . S
C679 C500 1.305 . S
C693 C361 1.580 . S
C699 C520 1.485 . S
C713 C451 1.478 1_655 S
C719 C525 1.340 . S
C733 C421 1.343 . S
C739 C541 1.324 . S
C753 C331 1.476 . S
C759 C496 1.336 . S
C779 C563 1.312 . S
C773 C211 1.396 . S
C799 C508 1.293 . S
C793 C61 1.401 . S
C813 C151 1.639 . S
C819 C526 1.489 . S
C833 C1 1.353 . S
C839 C484 1.306 . S
C859 C504 1.300 . S
C853 C391 1.425 . S
C879 C550 1.530 . S
C873 C241 1.617 . S
C899 C546 1.321 . S
C893 C20 1.454 1_556 S
C919 C499 1.370 . S
C913 C80 1.417 . S
C933 C140 1.443 . S
C939 C521 1.328 . S
C953 C200 1.445 . S
C959 C542 1.385 . S
C979 C483 1.349 . S
C973 C260 1.500 1_554 S
C993 C320 1.476 . S
C999 C517 1.379 . S
C1019 C538 1.319 . S
C1013 C380 1.502 . S
C1039 C562 1.385 . S
C1033 C440 1.440 . S
