# Generated by pormake.
# Topology anh, (6,3)-cn, num edge types: 1
# Building blocks:
#     Node 0, Type 0, BuildingBlock: PAMTOO_clean_sbu_0, # of connection points: 6
#     Node 1, Type 0, BuildingBlock: PAMTOO_clean_sbu_0, # of connection points: 6
#     Node 2, Type 0, BuildingBlock: PAMTOO_clean_sbu_0, # of connection points: 6
#     Node 3, Type 1, BuildingBlock: VETTIZ_charged_linker_0, # of connection points: 3
#     Node 4, Type 1, BuildingBlock: VETTIZ_charged_linker_0, # of connection points: 3
#     Node 5, Type 1, BuildingBlock: VETTIZ_charged_linker_0, # of connection points: 3
#     Node 6, Type 1, BuildingBlock: VETTIZ_charged_linker_0, # of connection points: 3
#     Node 7, Type 1, BuildingBlock: VETTIZ_charged_linker_0, # of connection points: 3
#     Node 8, Type 1, BuildingBlock: VETTIZ_charged_linker_0, # of connection points: 3
#     Edge 9, Type (0, 1), BuildingBlock: MIFKUJ_clean_linker_0, # of connection points: 2
#     Edge 10, Type (0, 1), BuildingBlock: MIFKUJ_clean_linker_0, # of connection points: 2
#     Edge 11, Type (0, 1), BuildingBlock: MIFKUJ_clean_linker_0, # of connection points: 2
#     Edge 12, Type (0, 1), BuildingBlock: MIFKUJ_clean_linker_0, # of connection points: 2
#     Edge 13, Type (0, 1), BuildingBlock: MIFKUJ_clean_linker_0, # of connection points: 2
#     Edge 14, Type (0, 1), BuildingBlock: MIFKUJ_clean_linker_0, # of connection points: 2
#     Edge 15, Type (0, 1), BuildingBlock: MIFKUJ_clean_linker_0, # of connection points: 2
#     Edge 16, Type (0, 1), BuildingBlock: MIFKUJ_clean_linker_0, # of connection points: 2
#     Edge 17, Type (0, 1), BuildingBlock: MIFKUJ_clean_linker_0, # of connection points: 2
#     Edge 18, Type (0, 1), BuildingBlock: MIFKUJ_clean_linker_0, # of connection points: 2
#     Edge 19, Type (0, 1), BuildingBlock: MIFKUJ_clean_linker_0, # of connection points: 2
#     Edge 20, Type (0, 1), BuildingBlock: MIFKUJ_clean_linker_0, # of connection points: 2
#     Edge 21, Type (0, 1), BuildingBlock: MIFKUJ_clean_linker_0, # of connection points: 2
#     Edge 22, Type (0, 1), BuildingBlock: MIFKUJ_clean_linker_0, # of connection points: 2
#     Edge 23, Type (0, 1), BuildingBlock: MIFKUJ_clean_linker_0, # of connection points: 2
#     Edge 24, Type (0, 1), BuildingBlock: MIFKUJ_clean_linker_0, # of connection points: 2
#     Edge 25, Type (0, 1), BuildingBlock: MIFKUJ_clean_linker_0, # of connection points: 2
#     Edge 26, Type (0, 1), BuildingBlock: MIFKUJ_clean_linker_0, # of connection points: 2
# Relax obj value: 0.164
# Max RMSD: 0.189
# Mean RMSD: 0.153
data_MOF--net-anh--node1-PAMTOO_clean_sbu_0--node2-VETTIZ_charged_linker_0--edge1-MIFKUJ_clean_linker_0
_symmetry_space_group_name_H-M    P1
_symmetry_Int_Tables_number       1
_symmetry_cell_setting            triclinic
loop_
_symmetry_equiv_pos_as_xyz
'x, y, z'
_cell_length_a     45.29197
_cell_length_b     43.649513
_cell_length_c     82.877873
_cell_angle_alpha  90.098461
_cell_angle_beta   95.402747
_cell_angle_gamma 108.24119
loop_
_atom_site_label
_atom_site_type_symbol
_atom_site_fract_x
_atom_site_fract_y
_atom_site_fract_z
_atom_type_partial_charge
Dy0 Dy 0.05379 0.59481 0.14871 0.0
Dy1 Dy 1.02784 0.51543 0.14491 0.0
C2 C 1.03954 0.55917 0.11442 0.0
O3 O 1.00221 0.58333 0.15182 0.0
O4 O 0.98395 0.53047 0.1423 0.0
O5 O 0.07321 0.64 0.13733 0.0
O6 O 0.06446 0.63982 0.16258 0.0
O7 O 1.02381 0.52772 0.17054 0.0
O8 O 0.0629 0.57608 0.17301 0.0
O9 O 0.08051 0.52628 0.14894 0.0
O10 O 0.09754 0.58137 0.14593 0.0
O11 O 1.02578 0.46819 0.15342 0.0
O12 O 0.99933 0.47295 0.13085 0.0
C13 C 0.97877 0.55705 0.14716 0.0
O14 O 1.03412 0.58156 0.12308 0.0
O15 O 0.0443 0.5339 0.12124 0.0
C16 C 0.10909 0.67989 0.15475 0.0
C17 C 0.16927 0.72512 0.16114 0.0
C18 C 0.16538 0.69465 0.15404 0.0
C19 C 0.13558 0.6722 0.15094 0.0
C20 C 0.11289 0.71005 0.16202 0.0
C21 C 0.14272 0.73247 0.16523 0.0
C22 C 0.07747 0.65703 0.15078 0.0
C23 C 0.04397 0.55112 0.17952 0.0
C24 C 0.10332 0.55364 0.14767 0.0
C25 C 0.97661 0.42813 0.14655 0.0
C26 C 0.92308 0.37944 0.15494 0.0
C27 C 0.94232 0.40183 0.16678 0.0
C28 C 0.96875 0.42605 0.16262 0.0
C29 C 0.9574 0.40584 0.13474 0.0
C30 C 0.93081 0.38182 0.13886 0.0
C31 C 1.00448 0.45332 0.14182 0.0
H32 H 0.18539 0.68812 0.15095 0.0
H33 H 0.13322 0.64895 0.14539 0.0
H34 H 0.09274 0.71643 0.16503 0.0
H35 H 0.14495 0.75583 0.1706 0.0
H36 H 0.93673 0.40082 0.17923 0.0
H37 H 0.98296 0.44311 0.17197 0.0
H38 H 0.96301 0.407 0.12228 0.0
H39 H 0.91659 0.36474 0.12952 0.0
Dy40 Dy 0.55226 0.02389 0.51481 0.0
Dy41 Dy 0.62946 0.0494 0.51856 0.0
C42 C 0.59117 0.03695 0.54885 0.0
O43 O 0.56381 0.07668 0.51083 0.0
O44 O 0.61579 0.09416 0.52098 0.0
O45 O 0.50994 0.0042 0.52627 0.0
O46 O 0.50737 0.01418 0.50066 0.0
O47 O 0.61366 0.05869 0.4933 0.0
O48 O 0.56806 0.01677 0.49075 0.0
O49 O 0.61653 0.99639 0.51289 0.0
O50 O 0.56623 0.97996 0.52009 0.0
O51 O 0.67362 0.05205 0.50991 0.0
O52 O 0.67247 0.07568 0.5328 0.0
C53 C 0.58973 0.09985 0.51568 0.0
O54 O 0.5695 0.04474 0.53978 0.0
O55 O 0.61344 0.02986 0.54221 0.0
C56 C 0.46766 0.96903 0.50935 0.0
C57 C 0.41874 0.91002 0.50351 0.0
C58 C 0.43961 0.9151 0.51766 0.0
C59 C 0.46381 0.94422 0.52054 0.0
C60 C 0.44711 0.96386 0.49511 0.0
C61 C 0.42302 0.93464 0.49218 0.0
C62 C 0.49196 1.00072 0.5127 0.0
C63 C 0.59063 0.03825 0.48422 0.0
C64 C 0.59129 0.97355 0.51633 0.0
C65 C 0.71218 0.10211 0.5167 0.0
C66 C 0.75453 0.16102 0.50822 0.0
C67 C 0.72533 0.14787 0.49913 0.0
C68 C 0.70429 0.11881 0.50339 0.0
C69 C 0.74122 0.11494 0.52578 0.0
C70 C 0.76223 0.14417 0.52161 0.0
C71 C 0.68971 0.07215 0.52162 0.0
H72 H 0.43679 0.89691 0.52677 0.0
H73 H 0.47913 0.9474 0.53169 0.0
H74 H 0.4495 0.98258 0.4863 0.0
H75 H 0.4077 0.93139 0.48103 0.0
H76 H 0.71876 0.15987 0.48861 0.0
H77 H 0.68181 0.10943 0.49631 0.0
H78 H 0.74751 0.10254 0.53622 0.0
H79 H 0.78426 0.1538 0.52904 0.0
Dy80 Dy 0.55124 0.50501 0.84025 0.0
Dy81 Dy 0.47462 0.479 0.83271 0.0
C82 C 0.51934 0.49695 0.80506 0.0
O83 O 0.53688 0.54946 0.83651 0.0
O84 O 0.48492 0.53045 0.84055 0.0
O85 O 0.59405 0.54017 0.83483 0.0
O86 O 0.59539 0.50332 0.85211 0.0
O87 O 0.48419 0.46921 0.8588 0.0
O88 O 0.53302 0.50667 0.86412 0.0
O89 O 0.48795 0.434 0.83074 0.0
O90 O 0.53943 0.45152 0.84172 0.0
O91 O 0.42766 0.47223 0.83862 0.0
O92 O 0.4355 0.45717 0.81491 0.0
C93 C 0.51045 0.55439 0.83897 0.0
O94 O 0.53945 0.48777 0.81454 0.0
O95 O 0.49639 0.50366 0.81115 0.0
C96 C 0.63586 0.51863 0.83455 0.0
C97 C 0.68315 0.50585 0.81848 0.0
C98 C 0.66642 0.5254 0.81141 0.0
C99 C 0.64302 0.53174 0.81935 0.0
C100 C 0.65239 0.49879 0.84153 0.0
C101 C 0.67573 0.49236 0.83355 0.0
C102 C 0.6115 0.52585 0.84315 0.0
C103 C 0.50742 0.48666 0.869 0.0
C104 C 0.51394 0.42838 0.83623 0.0
C105 C 0.3988 0.48452 0.81623 0.0
C106 C 0.36725 0.52851 0.8061 0.0
C107 C 0.4001 0.53819 0.80802 0.0
C108 C 0.41566 0.51634 0.81291 0.0
C109 C 0.36618 0.47409 0.81355 0.0
C110 C 0.35048 0.49587 0.80838 0.0
C111 C 0.41567 0.46367 0.82373 0.0
H112 H 0.67164 0.53606 0.79981 0.0
H113 H 0.63079 0.54717 0.8136 0.0
H114 H 0.64754 0.48855 0.85326 0.0
H115 H 0.6887 0.4777 0.83942 0.0
H116 H 0.41395 0.56306 0.80666 0.0
H117 H 0.44093 0.52472 0.81482 0.0
H118 H 0.35286 0.4495 0.81595 0.0
H119 H 0.3252 0.48739 0.80669 0.0
C120 C 0.63834 0.11865 0.2079 0.0
C121 C 0.66554 0.14075 0.2159 0.0
C122 C 0.66891 0.14288 0.233 0.0
C123 C 0.61925 0.10108 0.23386 0.0
C124 C 0.61556 0.0991 0.21711 0.0
C125 C 0.58529 0.07412 0.2107 0.0
H126 H 0.45305 0.95702 0.22693 0.0
C127 C 0.59161 0.0777 0.23988 0.0
C128 C 0.5714 0.06187 0.22638 0.0
H129 H 0.48309 0.98621 0.17982 0.0
H130 H 0.5286 0.02783 0.19252 0.0
H131 H 0.52148 0.96135 0.24465 0.0
H132 H 0.46615 0.0255 0.24142 0.0
H133 H 0.48773 0.03403 0.26052 0.0
H134 H 0.46011 0.99429 0.25594 0.0
H135 H 0.48528 0.95404 0.25348 0.0
H136 H 0.52181 0.97715 0.26425 0.0
C137 C 0.59321 0.04758 0.20124 0.0
C138 C 0.5652 0.09129 0.20045 0.0
C139 C 0.58634 0.06404 0.30062 0.0
C140 C 0.56304 0.04539 0.30992 0.0
C141 C 0.53433 0.02631 0.30177 0.0
C142 C 0.52935 0.02491 0.28483 0.0
C143 C 0.55313 0.04301 0.27577 0.0
C144 C 0.58072 0.06277 0.28367 0.0
C145 C 0.60245 0.08196 0.27203 0.0
C146 C 0.58362 0.06967 0.25584 0.0
C147 C 0.55503 0.04651 0.25814 0.0
C148 C 0.63286 0.07262 0.27408 0.0
C149 C 0.60725 0.11831 0.27531 0.0
C150 C 0.46961 0.97214 0.21934 0.0
C151 C 0.46484 0.96801 0.2024 0.0
C152 C 0.48639 0.98888 0.19292 0.0
C153 C 0.51282 0.01288 0.20032 0.0
C154 C 0.51759 0.01614 0.21736 0.0
C155 C 0.49587 0.99613 0.22651 0.0
C156 C 0.50401 0.00314 0.24438 0.0
C157 C 0.53469 0.03019 0.24458 0.0
C158 C 0.54271 0.03778 0.22875 0.0
C159 C 0.50826 0.9724 0.25224 0.0
C160 C 0.47819 0.01465 0.25104 0.0
H161 H 0.65017 0.12606 0.25492 0.0
H162 H 0.63504 0.11627 0.19479 0.0
H163 H 0.56753 0.11518 0.20611 0.0
H164 H 0.53999 0.07788 0.19959 0.0
H165 H 0.57263 0.09546 0.18803 0.0
H166 H 0.61373 0.04223 0.20756 0.0
H167 H 0.599 0.05535 0.18885 0.0
H168 H 0.57423 0.02433 0.20029 0.0
H169 H 0.60871 0.07904 0.3063 0.0
H170 H 0.51543 0.01252 0.30847 0.0
H171 H 0.50713 0.00968 0.27945 0.0
H172 H 0.62739 0.04612 0.27545 0.0
H173 H 0.64807 0.08479 0.28505 0.0
H174 H 0.64644 0.07825 0.26349 0.0
H175 H 0.58703 0.12198 0.28076 0.0
H176 H 0.60886 0.1321 0.26406 0.0
H177 H 0.62843 0.12955 0.2838 0.0
H178 H 0.68921 0.16009 0.2395 0.0
C179 C 0.64603 0.12323 0.24198 0.0
C180 C 0.58549 0.62059 0.53486 0.0
C181 C 0.58187 0.64797 0.54241 0.0
C182 C 0.57723 0.64745 0.55895 0.0
C183 C 0.57909 0.59276 0.56033 0.0
C184 C 0.58371 0.59302 0.54406 0.0
C185 C 0.58552 0.56088 0.53817 0.0
H186 H 0.57228 0.40448 0.55543 0.0
C187 C 0.57753 0.56068 0.56647 0.0
C188 C 0.58104 0.54154 0.55358 0.0
H189 H 0.59178 0.44992 0.50973 0.0
H190 H 0.59154 0.50107 0.52147 0.0
H191 H 0.62092 0.45958 0.5762 0.0
H192 H 0.5219 0.43785 0.56473 0.0
H193 H 0.53018 0.44827 0.58554 0.0
H194 H 0.53923 0.41403 0.57778 0.0
H195 H 0.59342 0.42953 0.5867 0.0
H196 H 0.60732 0.47138 0.59354 0.0
C197 C 0.61826 0.56624 0.53252 0.0
C198 C 0.5584 0.54671 0.52478 0.0
C199 C 0.56167 0.53876 0.62577 0.0
C200 C 0.55923 0.51145 0.63517 0.0
C201 C 0.56074 0.48301 0.62771 0.0
C202 C 0.5646 0.48176 0.61118 0.0
C203 C 0.56708 0.50928 0.60195 0.0
C204 C 0.56568 0.53715 0.60928 0.0
C205 C 0.56902 0.56408 0.59763 0.0
C206 C 0.57295 0.54784 0.5821 0.0
C207 C 0.57162 0.5158 0.5847 0.0
C208 C 0.59889 0.59203 0.60366 0.0
C209 C 0.53835 0.57312 0.59636 0.0
C210 C 0.57611 0.42535 0.54788 0.0
C211 C 0.58139 0.42315 0.5316 0.0
C212 C 0.58736 0.45109 0.5223 0.0
C213 C 0.58713 0.48064 0.52913 0.0
C214 C 0.58127 0.48225 0.54546 0.0
C215 C 0.5764 0.45485 0.55454 0.0
C216 C 0.57225 0.4608 0.57185 0.0
C217 C 0.57453 0.49611 0.57172 0.0
C218 C 0.57955 0.50879 0.55623 0.0
C219 C 0.59965 0.45487 0.58274 0.0
C220 C 0.53931 0.43906 0.57532 0.0
H221 H 0.57233 0.6215 0.58047 0.0
H222 H 0.58893 0.62046 0.5221 0.0
H223 H 0.53634 0.54952 0.52841 0.0
H224 H 0.55345 0.52063 0.52245 0.0
H225 H 0.5634 0.55932 0.51324 0.0
H226 H 0.63653 0.58356 0.54091 0.0
H227 H 0.61968 0.57627 0.5202 0.0
H228 H 0.62487 0.54397 0.5325 0.0
H229 H 0.56092 0.56108 0.63118 0.0
H230 H 0.55855 0.46153 0.63465 0.0
H231 H 0.56537 0.45933 0.60625 0.0
H232 H 0.61768 0.58246 0.60885 0.0
H233 H 0.59414 0.60712 0.61327 0.0
H234 H 0.6092 0.60769 0.59386 0.0
H235 H 0.518 0.55218 0.5989 0.0
H236 H 0.5319 0.58009 0.58403 0.0
H237 H 0.53994 0.59292 0.60517 0.0
H238 H 0.57454 0.66837 0.56494 0.0
C239 C 0.57595 0.62016 0.56793 0.0
C240 C 0.17606 0.68027 0.85099 0.0
C241 C 0.20455 0.69373 0.86061 0.0
C242 C 0.20446 0.69433 0.87764 0.0
C243 C 0.14899 0.6646 0.87503 0.0
C244 C 0.14887 0.66571 0.85837 0.0
C245 C 0.11777 0.64714 0.84966 0.0
H246 H 0.97251 0.54341 0.85231 0.0
C247 C 0.1177 0.64399 0.87868 0.0
C248 C 0.09945 0.63369 0.86382 0.0
H249 H 1.0152 0.58855 0.8103 0.0
H250 H 0.06219 0.61754 0.82732 0.0
H251 H 1.03449 0.53113 0.8713 0.0
H252 H 0.99212 0.60628 0.87325 0.0
H253 H 1.0073 0.60288 0.89317 0.0
H254 H 0.97723 0.56888 0.88317 0.0
H255 H 0.99817 0.52599 0.87967 0.0
H256 H 1.03511 0.54152 0.89186 0.0
C257 C 0.12232 0.62008 0.83896 0.0
C258 C 0.10446 0.6713 0.84018 0.0
C259 C 0.09456 0.61807 0.93702 0.0
C260 C 0.06826 0.59774 0.94375 0.0
C261 C 0.04186 0.58041 0.93334 0.0
C262 C 0.04155 0.58315 0.91652 0.0
C263 C 0.06799 0.60335 0.90995 0.0
C264 C 0.09395 0.62039 0.92012 0.0
C265 C 0.12017 0.63991 0.91081 0.0
C266 C 0.10521 0.63253 0.89345 0.0
C267 C 0.07473 0.61095 0.89308 0.0
C268 C 0.14806 0.62665 0.91423 0.0
C269 C 0.12767 0.67596 0.91569 0.0
C270 C 0.99231 0.55903 0.84679 0.0
C271 C 0.99067 0.56329 0.82998 0.0
C272 C 1.01628 0.58473 0.82323 0.0
C273 C 0.04338 0.6016 0.83315 0.0
C274 C 0.04466 0.59723 0.84999 0.0
C275 C 1.01925 0.57646 0.85654 0.0
C276 C 1.02384 0.57653 0.87475 0.0
C277 C 0.05645 0.60043 0.87805 0.0
C278 C 0.06862 0.6121 0.86352 0.0
C279 C 1.02268 0.54204 0.8798 0.0
C280 C 0.99881 0.58903 0.88156 0.0
H281 H 0.17833 0.68045 0.8979 0.0
H282 H 0.17518 0.67869 0.8379 0.0
H283 H 0.11288 0.69567 0.84625 0.0
H284 H 0.0787 0.66436 0.8396 0.0
H285 H 0.11165 0.674 0.82767 0.0
H286 H 0.13914 0.60922 0.84538 0.0
H287 H 0.13166 0.62969 0.82743 0.0
H288 H 0.10074 0.5997 0.83605 0.0
H289 H 0.11532 0.6314 0.94472 0.0
H290 H 1.0212 0.56492 0.93824 0.0
H291 H 1.02069 0.56935 0.90931 0.0
H292 H 0.13975 0.60008 0.91573 0.0
H293 H 0.16271 0.63784 0.92553 0.0
H294 H 0.16295 0.63015 0.90416 0.0
H295 H 0.10577 0.68194 0.91675 0.0
H296 H 0.13988 0.69235 0.9066 0.0
H297 H 0.14199 0.68183 0.92759 0.0
H298 H 0.22602 0.70478 0.88535 0.0
C299 C 0.17679 0.67999 0.88489 0.0
C300 C 0.99444 0.46552 0.45484 0.0
C301 C 0.96747 0.44321 0.44689 0.0
C302 C 0.961 0.44473 0.43001 0.0
C303 C 1.00835 0.48976 0.42913 0.0
C304 C 1.01431 0.48881 0.44576 0.0
C305 C 0.04325 0.51539 0.45228 0.0
H306 H 0.16285 0.64816 0.43764 0.0
C307 C 1.03361 0.51647 0.42325 0.0
C308 C 0.054 0.53187 0.43677 0.0
H309 H 0.14066 0.60681 0.484 0.0
H310 H 0.09756 0.56337 0.47069 0.0
H311 H 0.15649 0.58349 0.42016 0.0
H312 H 0.09198 0.63728 0.42177 0.0
H313 H 0.09137 0.62491 0.40146 0.0
H314 H 0.1273 0.6504 0.41193 0.0
H315 H 0.15769 0.61616 0.40691 0.0
H316 H 0.13375 0.57524 0.40139 0.0
C317 C 0.06698 0.49983 0.46045 0.0
C318 C 1.0334 0.53769 0.46376 0.0
C319 C 1.03688 0.53396 0.36267 0.0
C320 C 0.05845 0.55568 0.35356 0.0
C321 C 0.08445 0.57902 0.36186 0.0
C322 C 0.08889 0.58075 0.37882 0.0
C323 C 0.06731 0.55875 0.38771 0.0
C324 C 0.04189 0.53579 0.37964 0.0
C325 C 1.02192 0.51386 0.39114 0.0
C326 C 1.03985 0.52724 0.40739 0.0
C327 C 0.06621 0.55367 0.40527 0.0
C328 C 1.02184 0.47899 0.38753 0.0
C329 C 0.98914 0.51836 0.38922 0.0
C330 C 0.14847 0.62989 0.44492 0.0
C331 C 0.15463 0.63107 0.46185 0.0
C332 C 0.13611 0.60637 0.47092 0.0
C333 C 0.11108 0.58134 0.46317 0.0
C334 C 0.10476 0.58093 0.4462 0.0
C335 C 0.12371 0.6047 0.43738 0.0
C336 C 0.11467 0.59983 0.41945 0.0
C337 C 0.08629 0.56994 0.41892 0.0
C338 C 0.08043 0.55899 0.4346 0.0
C339 C 0.14199 0.59355 0.41145 0.0
C340 C 0.106 0.62965 0.41318 0.0
H341 H 0.97521 0.46751 0.40826 0.0
H342 H 0.99967 0.46509 0.46785 0.0
H343 H 1.01055 0.54039 0.45903 0.0
H344 H 0.04978 0.56252 0.46485 0.0
H345 H 1.03087 0.52765 0.47604 0.0
H346 H 0.06646 0.47789 0.45342 0.0
H347 H 0.06149 0.4925 0.47293 0.0
H348 H 0.09137 0.51583 0.46093 0.0
H349 H 1.01647 0.51591 0.35676 0.0
H350 H 0.10182 0.59568 0.35525 0.0
H351 H 0.10914 0.59905 0.38433 0.0
H352 H 0.04555 0.47884 0.3851 0.0
H353 H 1.0055 0.46812 0.37668 0.0
H354 H 1.01573 0.46292 0.39778 0.0
H355 H 0.99054 0.5432 0.38546 0.0
H356 H 0.97821 0.51565 0.40074 0.0
H357 H 0.9732 0.5012 0.3799 0.0
H358 H 0.9404 0.42763 0.42366 0.0
C359 C 0.98132 0.46779 0.42109 0.0
C360 C 0.51318 0.90526 0.81724 0.0
C361 C 0.51567 0.87745 0.80958 0.0
C362 C 0.52252 0.87861 0.79337 0.0
C363 C 0.52456 0.93468 0.79247 0.0
C364 C 0.51785 0.93374 0.80845 0.0
C365 C 0.51669 0.96605 0.81447 0.0
H366 H 0.53807 0.12486 0.79906 0.0
C367 C 0.52855 0.96759 0.78671 0.0
C368 C 0.5242 0.98639 0.79955 0.0
H369 H 0.50947 0.0767 0.84305 0.0
H370 H 0.51052 0.02582 0.83127 0.0
H371 H 0.58855 0.08999 0.79166 0.0
H372 H 0.49135 0.07269 0.77642 0.0
H373 H 0.50665 0.06086 0.7597 0.0
H374 H 0.52136 0.10233 0.76714 0.0
H375 H 0.57425 0.11533 0.77809 0.0
H376 H 0.58319 0.0807 0.77072 0.0
C377 C 0.5422 0.97837 0.8288 0.0
C378 C 0.48324 0.96179 0.81885 0.0
C379 C 0.55173 0.99292 0.72837 0.0
C380 C 0.55612 0.02113 0.71945 0.0
C381 C 0.55583 0.04966 0.72732 0.0
C382 C 0.55084 0.05006 0.74371 0.0
C383 C 0.54591 0.02158 0.75242 0.0
C384 C 0.54653 0.99369 0.74476 0.0
C385 C 0.54055 0.96574 0.75595 0.0
C386 C 0.53576 0.98141 0.77149 0.0
C387 C 0.53905 0.01406 0.76931 0.0
C388 C 0.57018 0.95489 0.7579 0.0
C389 C 0.51039 0.93927 0.74887 0.0
C390 C 0.53239 0.1034 0.80622 0.0
C391 C 0.52426 0.1047 0.82203 0.0
C392 C 0.51606 0.07616 0.83085 0.0
C393 C 0.51672 0.04677 0.82399 0.0
C394 C 0.52517 0.04595 0.80809 0.0
C395 C 0.53236 0.07405 0.79949 0.0
C396 C 0.53885 0.06897 0.78248 0.0
C397 C 0.53524 0.03332 0.78225 0.0
C398 C 0.52751 0.01969 0.79728 0.0
C399 C 0.57287 0.08991 0.78046 0.0
C400 C 0.51351 0.07676 0.77073 0.0
H401 H 0.53211 0.90614 0.77247 0.0
H402 H 0.50801 0.90486 0.82975 0.0
H403 H 0.46559 0.94528 0.80986 0.0
H404 H 0.47755 0.9846 0.8186 0.0
H405 H 0.47973 0.95132 0.831 0.0
H406 H 0.56453 0.97509 0.8259 0.0
H407 H 0.53519 0.96485 0.8399 0.0
H408 H 0.5476 0.00435 0.83162 0.0
H409 H 0.55163 0.97056 0.72264 0.0
H410 H 0.55965 0.07182 0.72079 0.0
H411 H 0.55094 0.07258 0.74893 0.0
H412 H 0.59165 0.97549 0.75659 0.0
H413 H 0.56897 0.9361 0.74859 0.0
H414 H 0.57432 0.94585 0.77008 0.0
H415 H 0.49285 0.95026 0.7434 0.0
H416 H 0.49842 0.9232 0.75814 0.0
H417 H 0.5154 0.92441 0.73924 0.0
H418 H 0.52454 0.85741 0.78734 0.0
C419 C 0.52693 0.90696 0.78478 0.0
C420 C 0.62662 0.55459 0.14334 0.0
C421 C 0.6523 0.55234 0.13502 0.0
C422 C 0.64771 0.54826 0.11809 0.0
C423 C 0.59345 0.54643 0.11768 0.0
C424 C 0.59708 0.55158 0.1343 0.0
C425 C 0.56621 0.55334 0.14009 0.0
H426 H 0.40744 0.5295 0.11637 0.0
C427 C 0.56056 0.54214 0.11144 0.0
C428 C 0.54355 0.54592 0.12438 0.0
H429 H 0.45277 0.56487 0.16383 0.0
H430 H 0.50292 0.5621 0.15539 0.0
H431 H 0.45716 0.57524 0.09809 0.0
H432 H 0.4399 0.47691 0.11149 0.0
H433 H 0.45261 0.47843 0.09209 0.0
H434 H 0.41756 0.48837 0.09493 0.0
H435 H 0.42677 0.54248 0.08775 0.0
H436 H 0.46561 0.5561 0.08139 0.0
C437 C 0.57149 0.58772 0.14679 0.0
C438 C 0.55509 0.52783 0.15283 0.0
C439 C 0.53001 0.51527 0.05116 0.0
C440 C 0.5012 0.50622 0.04146 0.0
C441 C 0.47373 0.5028 0.04899 0.0
C442 C 0.47502 0.50924 0.06565 0.0
C443 C 0.50407 0.51897 0.07509 0.0
C444 C 0.53077 0.5211 0.06785 0.0
C445 C 0.55926 0.52968 0.07988 0.0
C446 C 0.54542 0.53359 0.09552 0.0
C447 C 0.51327 0.52775 0.09257 0.0
C448 C 0.58208 0.56214 0.07491 0.0
C449 C 0.57237 0.50069 0.08021 0.0
C450 C 0.42781 0.53641 0.12518 0.0
C451 C 0.42549 0.54692 0.14084 0.0
C452 C 0.45347 0.55655 0.15161 0.0
C453 C 0.48256 0.55498 0.14672 0.0
C454 C 0.48411 0.54438 0.13077 0.0
C455 C 0.45659 0.53573 0.12046 0.0
C456 C 0.46112 0.52695 0.10372 0.0
C457 C 0.49578 0.53181 0.10523 0.0
C458 C 0.51021 0.54147 0.12116 0.0
C459 C 0.45207 0.55112 0.09202 0.0
C460 C 0.44171 0.49092 0.10021 0.0
H461 H 0.61795 0.54245 0.09666 0.0
H462 H 0.62937 0.55813 0.15639 0.0
H463 H 0.55266 0.50339 0.14786 0.0
H464 H 0.53212 0.52749 0.1565 0.0
H465 H 0.57209 0.53286 0.16384 0.0
H466 H 0.58127 0.60579 0.13767 0.0
H467 H 0.5882 0.59295 0.15792 0.0
H468 H 0.54948 0.59116 0.14981 0.0
H469 H 0.55172 0.51829 0.04593 0.0
H470 H 0.45104 0.49499 0.04205 0.0
H471 H 0.45322 0.50655 0.07044 0.0
H472 H 0.56907 0.57825 0.06972 0.0
H473 H 0.59673 0.5582 0.06559 0.0
H474 H 0.59743 0.57631 0.08529 0.0
H475 H 0.55422 0.47778 0.07575 0.0
H476 H 0.58034 0.49541 0.09263 0.0
H477 H 0.59189 0.50477 0.07247 0.0
H478 H 0.66668 0.54688 0.11135 0.0
C479 C 0.61898 0.5455 0.10951 0.0
H480 H 0.15797 0.60426 0.15468 0.0
H481 H 0.21202 0.6042 0.15578 0.0
H482 H 0.17988 0.50285 0.14227 0.0
H483 H 0.12563 0.50253 0.14212 0.0
H484 H 0.22693 0.50988 0.16183 0.0
H485 H 0.21591 0.57278 0.11517 0.0
H486 H 0.20271 0.61689 0.10073 0.0
H487 H 0.27051 0.68679 0.13295 0.0
H488 H 0.28394 0.64297 0.14766 0.0
H489 H 0.3688 0.49954 0.13494 0.0
H490 H 0.31644 0.50211 0.13768 0.0
H491 H 0.35601 0.59847 0.15849 0.0
H492 H 0.40898 0.59604 0.15555 0.0
H493 H 0.30679 0.59607 0.13652 0.0
H494 H 0.32037 0.53178 0.18158 0.0
H495 H 0.33299 0.48692 0.19553 0.0
H496 H 0.25942 0.41841 0.16544 0.0
H497 H 0.24662 0.46287 0.15116 0.0
C498 C 0.16227 0.58188 0.15189 0.0
C499 C 0.1369 0.55344 0.14819 0.0
C500 C 0.19358 0.58191 0.15237 0.0
C501 C 0.20101 0.55371 0.14867 0.0
C502 C 0.17557 0.52518 0.14515 0.0
C503 C 0.14422 0.525 0.14501 0.0
C504 C 0.23486 0.55373 0.14864 0.0
C505 C 0.24407 0.5286 0.15604 0.0
C506 C 0.25836 0.57836 0.14158 0.0
C507 C 0.2508 0.60466 0.13255 0.0
C508 C 0.22796 0.59756 0.11918 0.0
C509 C 0.22044 0.62249 0.11096 0.0
C510 C 0.23575 0.65461 0.11594 0.0
C511 C 0.25871 0.66189 0.12911 0.0
C512 C 0.26634 0.63704 0.13737 0.0
C513 C 0.36658 0.52125 0.14031 0.0
C514 C 0.39363 0.54751 0.14508 0.0
C515 C 0.33631 0.52267 0.14192 0.0
C516 C 0.33154 0.55042 0.14841 0.0
C517 C 0.35852 0.57663 0.15344 0.0
C518 C 0.38903 0.57511 0.15194 0.0
C519 C 0.29854 0.552 0.14949 0.0
C520 C 0.28956 0.5774 0.1423 0.0
C521 C 0.27517 0.52746 0.1566 0.0
C522 C 0.28271 0.50067 0.16521 0.0
C523 C 0.30702 0.50715 0.17786 0.0
C524 C 0.31419 0.48179 0.18584 0.0
C525 C 0.29707 0.44983 0.18135 0.0
C526 C 0.27268 0.44317 0.1689 0.0
C527 C 0.26544 0.46844 0.16087 0.0
H528 H 0.30265 0.43024 0.18754 0.0
H529 H 0.22983 0.67387 0.10959 0.0
H530 H 0.81839 0.17787 0.50914 0.0
H531 H 0.85462 0.22861 0.50111 0.0
H532 H 0.77752 0.26501 0.48863 0.0
H533 H 0.74117 0.21483 0.4971 0.0
H534 H 0.81772 0.27182 0.46434 0.0
H535 H 0.82407 0.29397 0.52168 0.0
H536 H 0.83219 0.28295 0.55064 0.0
H537 H 0.92572 0.28411 0.54478 0.0
H538 H 0.91801 0.29469 0.5157 0.0
H539 H 0.90461 0.42943 0.44688 0.0
H540 H 0.8686 0.38432 0.45969 0.0
H541 H 0.94627 0.35399 0.4794 0.0
H542 H 0.98245 0.40001 0.46712 0.0
H543 H 0.90532 0.34426 0.50058 0.0
H544 H 0.89986 0.31917 0.44384 0.0
H545 H 0.89307 0.32815 0.41454 0.0
H546 H 0.79967 0.32943 0.41869 0.0
H547 H 0.80607 0.32091 0.44807 0.0
C548 C 0.80913 0.19684 0.50496 0.0
C549 C 0.77679 0.19216 0.50373 0.0
C550 C 0.82989 0.22578 0.50033 0.0
C551 C 0.81872 0.25055 0.49434 0.0
C552 C 0.78656 0.24611 0.49318 0.0
C553 C 0.76581 0.21731 0.49793 0.0
C554 C 0.84045 0.28062 0.48866 0.0
C555 C 0.8366 0.28796 0.4723 0.0
C556 C 0.86562 0.30101 0.49898 0.0
C557 C 0.87035 0.29482 0.51647 0.0
C558 C 0.84628 0.29161 0.52653 0.0
C559 C 0.85083 0.28549 0.54298 0.0
C560 C 0.87942 0.28275 0.54954 0.0
C561 C 0.90357 0.2862 0.53967 0.0
C562 C 0.89913 0.29229 0.52321 0.0
C563 C 0.91393 0.41328 0.45411 0.0
C564 C 0.94618 0.4179 0.45593 0.0
C565 C 0.89339 0.38746 0.46135 0.0
C566 C 0.90463 0.36525 0.47017 0.0
C567 C 0.93702 0.3707 0.4726 0.0
C568 C 0.95766 0.39692 0.46559 0.0
C569 C 0.88255 0.33564 0.47621 0.0
C570 C 0.88638 0.32826 0.4926 0.0
C571 C 0.85756 0.31486 0.46587 0.0
C572 C 0.85355 0.31971 0.44818 0.0
C573 C 0.87795 0.32157 0.43852 0.0
C574 C 0.87416 0.32656 0.4219 0.0
C575 C 0.84598 0.32944 0.41476 0.0
C576 C 0.8215 0.32724 0.42423 0.0
C577 C 0.82518 0.32231 0.44087 0.0
H578 H 0.8431 0.3333 0.40189 0.0
H579 H 0.8829 0.27802 0.56227 0.0
H580 H 0.45828 0.57391 0.83598 0.0
H581 H 0.45596 0.62905 0.83421 0.0
H582 H 0.55657 0.66611 0.84054 0.0
H583 H 0.55917 0.61098 0.84208 0.0
H584 H 0.52786 0.70138 0.8587 0.0
H585 H 0.52136 0.65914 0.80483 0.0
H586 H 0.50033 0.62107 0.78149 0.0
H587 H 0.41349 0.64166 0.77953 0.0
H588 H 0.43329 0.67856 0.80348 0.0
H589 H 0.56146 0.8564 0.82415 0.0
H590 H 0.55662 0.80158 0.83292 0.0
H591 H 0.45661 0.7741 0.82168 0.0
H592 H 0.46164 0.82909 0.81278 0.0
H593 H 0.48076 0.73301 0.80752 0.0
H594 H 0.48843 0.77724 0.86099 0.0
H595 H 0.5107 0.8162 0.88394 0.0
H596 H 0.59684 0.79407 0.8855 0.0
H597 H 0.57525 0.75528 0.8624 0.0
C598 C 0.47995 0.59375 0.83712 0.0
C599 C 0.50895 0.58794 0.83907 0.0
C600 C 0.47855 0.62529 0.83608 0.0
C601 C 0.50609 0.65172 0.83716 0.0
C602 C 0.53502 0.64609 0.8397 0.0
C603 C 0.53646 0.61453 0.8405 0.0
C604 C 0.50484 0.68512 0.83488 0.0
C605 C 0.51774 0.70838 0.84748 0.0
C606 C 0.49101 0.69407 0.82035 0.0
C607 C 0.47866 0.67123 0.80618 0.0
C608 C 0.49752 0.65505 0.79968 0.0
C609 C 0.48579 0.63362 0.78634 0.0
C610 C 0.45543 0.62865 0.77916 0.0
C611 C 0.43678 0.64516 0.78529 0.0
C612 C 0.44821 0.66623 0.79879 0.0
C613 C 0.53841 0.83886 0.82407 0.0
C614 C 0.51186 0.84693 0.8181 0.0
C615 C 0.53562 0.80754 0.82904 0.0
C616 C 0.50622 0.78365 0.82806 0.0
C617 C 0.47952 0.79209 0.82259 0.0
C618 C 0.48234 0.8235 0.81766 0.0
C619 C 0.50384 0.74941 0.83133 0.0
C620 C 0.49039 0.72596 0.81886 0.0
C621 C 0.51724 0.74032 0.84594 0.0
C622 C 0.53029 0.76353 0.85988 0.0
C623 C 0.51221 0.78086 0.86615 0.0
C624 C 0.52469 0.80287 0.8792 0.0
C625 C 0.55519 0.80765 0.88615 0.0
C626 C 0.57323 0.79035 0.88009 0.0
C627 C 0.56086 0.76831 0.86704 0.0
H628 H 0.56481 0.82472 0.89625 0.0
H629 H 0.44644 0.61221 0.76877 0.0
H630 H 0.92393 0.50583 0.14218 0.0
H631 H 0.86999 0.50559 0.14253 0.0
H632 H 0.9023 0.60824 0.15261 0.0
H633 H 0.95656 0.60837 0.1528 0.0
H634 H 0.85538 0.58518 0.16909 0.0
H635 H 0.8664 0.56938 0.11319 0.0
H636 H 0.87932 0.54381 0.08943 0.0
H637 H 0.8111 0.45385 0.09882 0.0
H638 H 0.79804 0.47879 0.12277 0.0
H639 H 0.70318 0.6049 0.14573 0.0
H640 H 0.75823 0.60665 0.14978 0.0
H641 H 0.72976 0.50319 0.14332 0.0
H642 H 0.675 0.50162 0.13923 0.0
H643 H 0.77499 0.52807 0.12509 0.0
H644 H 0.76362 0.54573 0.18105 0.0
H645 H 0.75092 0.57289 0.20431 0.0
H646 H 0.81984 0.66165 0.19395 0.0
H647 H 0.83267 0.63512 0.17048 0.0
C648 C 0.91976 0.52849 0.14444 0.0
C649 C 0.94521 0.55717 0.14734 0.0
C650 C 0.88852 0.52838 0.14454 0.0
C651 C 0.88118 0.55703 0.14725 0.0
C652 C 0.90663 0.58564 0.15041 0.0
C653 C 0.93796 0.58572 0.15046 0.0
C654 C 0.84731 0.55708 0.14679 0.0
C655 C 0.83803 0.573 0.15929 0.0
C656 C 0.82377 0.54092 0.13427 0.0
C657 C 0.83147 0.52587 0.11986 0.0
C658 C 0.8543 0.54409 0.11025 0.0
C659 C 0.86163 0.52972 0.09674 0.0
C660 C 0.8461 0.49721 0.09265 0.0
C661 C 0.82314 0.47902 0.10202 0.0
C662 C 0.81575 0.49326 0.11556 0.0
C663 C 0.70855 0.5824 0.14592 0.0
C664 C 0.6842 0.55299 0.14273 0.0
C665 C 0.7403 0.58339 0.14806 0.0
C666 C 0.7489 0.55502 0.14693 0.0
C667 C 0.72441 0.52559 0.14429 0.0
C668 C 0.6928 0.52461 0.14223 0.0
C669 C 0.783 0.55589 0.14745 0.0
C670 C 0.79233 0.5402 0.1349 0.0
C671 C 0.80656 0.57252 0.15983 0.0
C672 C 0.79887 0.58852 0.17391 0.0
C673 C 0.77588 0.57111 0.18365 0.0
C674 C 0.7687 0.58638 0.19689 0.0
C675 C 0.7845 0.619 0.20058 0.0
C676 C 0.80758 0.6364 0.19106 0.0
C677 C 0.81484 0.62125 0.1778 0.0
H678 H 0.77891 0.63077 0.21084 0.0
H679 H 0.8518 0.48613 0.08219 0.0
H680 H 0.35896 0.90286 0.49056 0.0
H681 H 0.315 0.85329 0.48654 0.0
H682 H 0.37318 0.79884 0.50722 0.0
H683 H 0.41787 0.84823 0.5105 0.0
H684 H 0.33835 0.76749 0.48162 0.0
H685 H 0.31854 0.81652 0.52894 0.0
H686 H 0.31246 0.86004 0.54601 0.0
H687 H 0.23554 0.86577 0.51301 0.0
H688 H 0.24143 0.82259 0.4956 0.0
H689 H 0.20292 0.62837 0.48366 0.0
H690 H 0.2484 0.67378 0.49435 0.0
H691 H 0.20943 0.7401 0.46845 0.0
H692 H 0.16426 0.69496 0.45771 0.0
H693 H 0.23595 0.76188 0.50037 0.0
H694 H 0.26104 0.71647 0.45185 0.0
H695 H 0.26728 0.67223 0.43536 0.0
H696 H 0.33489 0.6587 0.47224 0.0
H697 H 0.32867 0.70258 0.48907 0.0
C698 C 0.36261 0.88033 0.49406 0.0
C699 C 0.39203 0.87962 0.50087 0.0
C700 C 0.33728 0.85202 0.49197 0.0
C701 C 0.3406 0.8224 0.49689 0.0
C702 C 0.37 0.82146 0.50347 0.0
C703 C 0.39546 0.84977 0.50545 0.0
C704 C 0.31344 0.79242 0.49481 0.0
C705 C 0.31616 0.76607 0.48602 0.0
C706 C 0.28434 0.79056 0.50042 0.0
C707 C 0.28059 0.81645 0.5109 0.0
C708 C 0.30046 0.8272 0.52526 0.0
C709 C 0.29703 0.8518 0.53501 0.0
C710 C 0.27367 0.8657 0.53058 0.0
C711 C 0.25364 0.85499 0.51642 0.0
C712 C 0.25699 0.83042 0.50661 0.0
C713 C 0.20394 0.65272 0.4805 0.0
C714 C 0.18031 0.65827 0.46981 0.0
C715 C 0.22988 0.67854 0.48653 0.0
C716 C 0.23229 0.71021 0.48208 0.0
C717 C 0.20797 0.71585 0.47202 0.0
C718 C 0.18232 0.69009 0.46584 0.0
C719 C 0.26087 0.73746 0.48697 0.0
C720 C 0.25836 0.76325 0.49625 0.0
C721 C 0.29021 0.73869 0.48196 0.0
C722 C 0.29411 0.71251 0.4718 0.0
C723 C 0.27703 0.70387 0.4565 0.0
C724 C 0.2806 0.6789 0.44709 0.0
C725 C 0.3014 0.6626 0.45277 0.0
C726 C 0.31874 0.67131 0.46787 0.0
C727 C 0.31521 0.69622 0.47735 0.0
H728 H 0.30413 0.64328 0.44546 0.0
H729 H 0.27106 0.88474 0.53815 0.0
H730 H 0.46438 0.37245 0.83452 0.0
H731 H 0.46604 0.31684 0.8347 0.0
H732 H 0.56663 0.35217 0.83782 0.0
H733 H 0.56527 0.40778 0.83789 0.0
H734 H 0.5384 0.30244 0.8137 0.0
H735 H 0.53505 0.32508 0.87013 0.0
H736 H 0.51349 0.34239 0.89344 0.0
H737 H 0.42767 0.26492 0.88276 0.0
H738 H 0.44851 0.24755 0.85914 0.0
H739 H 0.5732 0.15974 0.82688 0.0
H740 H 0.57127 0.21415 0.83234 0.0
H741 H 0.47224 0.17538 0.83632 0.0
H742 H 0.47446 0.12059 0.83139 0.0
H743 H 0.49819 0.22664 0.85701 0.0
H744 H 0.49968 0.20412 0.80067 0.0
H745 H 0.51962 0.18633 0.77687 0.0
H746 H 0.60623 0.26319 0.78642 0.0
H747 H 0.58703 0.28108 0.81048 0.0
C748 C 0.48687 0.3684 0.83524 0.0
C749 C 0.5147 0.3946 0.8362 0.0
C750 C 0.48776 0.3366 0.83542 0.0
C751 C 0.51646 0.33038 0.83635 0.0
C752 C 0.54424 0.35644 0.83712 0.0
C753 C 0.5434 0.38821 0.83721 0.0
C754 C 0.51759 0.29669 0.83624 0.0
C755 C 0.52999 0.28599 0.82327 0.0
C756 C 0.50574 0.27496 0.8485 0.0
C757 C 0.49322 0.28524 0.86275 0.0
C758 C 0.51147 0.31192 0.87265 0.0
C759 C 0.49939 0.32171 0.88594 0.0
C760 C 0.4692 0.30479 0.88957 0.0
C761 C 0.45104 0.27803 0.87992 0.0
C762 C 0.46297 0.2682 0.86657 0.0
C763 C 0.55122 0.16281 0.82938 0.0
C764 C 0.52397 0.1361 0.82872 0.0
C765 C 0.55005 0.19389 0.83237 0.0
C766 C 0.52145 0.19901 0.83432 0.0
C767 C 0.49454 0.17209 0.83476 0.0
C768 C 0.49581 0.14081 0.832 0.0
C769 C 0.51935 0.23244 0.83453 0.0
C770 C 0.50664 0.24306 0.84744 0.0
C771 C 0.53059 0.2541 0.82211 0.0
C772 C 0.54201 0.24376 0.80747 0.0
C773 C 0.52305 0.21712 0.79776 0.0
C774 C 0.53422 0.20701 0.78422 0.0
C775 C 0.5642 0.22358 0.78016 0.0
C776 C 0.58303 0.25036 0.7896 0.0
C777 C 0.57202 0.26049 0.80319 0.0
H778 H 0.57281 0.21572 0.76967 0.0
H779 H 0.45989 0.31236 0.89988 0.0
H780 H 0.54124 0.91945 0.51843 0.0
H781 H 0.54078 0.86351 0.51946 0.0
H782 H 0.63994 0.89388 0.51538 0.0
H783 H 0.64053 0.95015 0.51397 0.0
H784 H 0.61071 0.83891 0.49755 0.0
H785 H 0.6121 0.87594 0.5521 0.0
H786 H 0.59451 0.90132 0.57434 0.0
H787 H 0.50439 0.82896 0.56776 0.0
H788 H 0.52131 0.8034 0.54532 0.0
H789 H 0.63154 0.69264 0.53081 0.0
H790 H 0.63398 0.74748 0.52273 0.0
H791 H 0.53523 0.72464 0.52698 0.0
H792 H 0.53307 0.67033 0.53537 0.0
H793 H 0.56706 0.77681 0.54461 0.0
H794 H 0.56672 0.73934 0.4899 0.0
H795 H 0.58544 0.71445 0.46791 0.0
H796 H 0.67507 0.78745 0.47531 0.0
H797 H 0.65702 0.81253 0.49751 0.0
C798 C 0.563 0.91435 0.5177 0.0
C799 C 0.59101 0.93943 0.5163 0.0
C800 C 0.56269 0.88227 0.51831 0.0
C801 C 0.59042 0.87448 0.51778 0.0
C802 C 0.61827 0.8993 0.51586 0.0
C803 C 0.61857 0.93148 0.51512 0.0
C804 C 0.59034 0.84057 0.51987 0.0
C805 C 0.60152 0.8254 0.50793 0.0
C806 C 0.57805 0.8228 0.53332 0.0
C807 C 0.5679 0.83792 0.54693 0.0
C808 C 0.58847 0.86556 0.55533 0.0
C809 C 0.57863 0.87996 0.56798 0.0
C810 C 0.54833 0.8668 0.57244 0.0
C811 C 0.52785 0.83915 0.56428 0.0
C812 C 0.53756 0.82467 0.55161 0.0
C813 C 0.61025 0.69913 0.52944 0.0
C814 C 0.58207 0.67737 0.53355 0.0
C815 C 0.61163 0.73045 0.52488 0.0
C816 C 0.58478 0.74029 0.52427 0.0
C817 C 0.55627 0.71772 0.52742 0.0
C818 C 0.55497 0.68664 0.53207 0.0
C819 C 0.58674 0.77472 0.52211 0.0
C820 C 0.57615 0.79016 0.53416 0.0
C821 C 0.59975 0.79265 0.50883 0.0
C822 C 0.61061 0.77762 0.49548 0.0
C823 C 0.59051 0.74993 0.48694 0.0
C824 C 0.60098 0.73582 0.47442 0.0
C825 C 0.63145 0.74931 0.47025 0.0
C826 C 0.65149 0.77699 0.47857 0.0
C827 C 0.64114 0.79119 0.49111 0.0
H828 H 0.63951 0.73835 0.46055 0.0
H829 H 0.54076 0.87799 0.58223 0.0
H830 H 0.69794 0.4503 0.81443 0.0
H831 H 0.7474 0.44604 0.8066 0.0
H832 H 0.77868 0.54817 0.79814 0.0
H833 H 0.72937 0.55246 0.80569 0.0
H834 H 0.80325 0.51491 0.77775 0.0
H835 H 0.79042 0.52094 0.8357 0.0
H836 H 0.76356 0.50069 0.85993 0.0
H837 H 0.77973 0.4098 0.85348 0.0
H838 H 0.80631 0.42943 0.82906 0.0
H839 H 0.95659 0.5923 0.81054 0.0
H840 H 0.90241 0.56859 0.79925 0.0
H841 H 0.90382 0.475 0.81545 0.0
H842 H 0.95777 0.49924 0.82746 0.0
H843 H 0.8598 0.48819 0.82716 0.0
H844 H 0.88828 0.49138 0.77363 0.0
H845 H 0.91576 0.51376 0.7499 0.0
H846 H 0.87202 0.58805 0.74774 0.0
H847 H 0.84461 0.56646 0.77159 0.0
C848 C 0.71515 0.47165 0.81055 0.0
C849 C 0.71009 0.5018 0.81093 0.0
C850 C 0.74324 0.46916 0.80598 0.0
C851 C 0.76685 0.4969 0.80205 0.0
C852 C 0.76074 0.52645 0.80108 0.0
C853 C 0.73257 0.52889 0.80547 0.0
C854 C 0.79944 0.49674 0.80183 0.0
C855 C 0.81576 0.50889 0.78845 0.0
C856 C 0.81543 0.48804 0.81567 0.0
C857 C 0.79999 0.47648 0.83049 0.0
C858 C 0.7881 0.49659 0.83942 0.0
C859 C 0.77293 0.48523 0.85318 0.0
C860 C 0.76986 0.45394 0.85822 0.0
C861 C 0.78206 0.434 0.84954 0.0
C862 C 0.79716 0.44522 0.83574 0.0
C863 C 0.9456 0.56649 0.81119 0.0
C864 C 0.96107 0.54756 0.81993 0.0
C865 C 0.91466 0.55283 0.80463 0.0
C866 C 0.89893 0.51987 0.80639 0.0
C867 C 0.9154 0.50046 0.81395 0.0
C868 C 0.94614 0.51426 0.8208 0.0
C869 C 0.86437 0.50741 0.8032 0.0
C870 C 0.84749 0.49303 0.81607 0.0
C871 C 0.84811 0.51422 0.7889 0.0
C872 C 0.86441 0.52729 0.77446 0.0
C873 C 0.88464 0.5126 0.76816 0.0
C874 C 0.9002 0.52514 0.75467 0.0
C875 C 0.89565 0.55232 0.74733 0.0
C876 C 0.87549 0.56698 0.75343 0.0
C877 C 0.85988 0.55455 0.76692 0.0
H878 H 0.90773 0.562 0.73689 0.0
H879 H 0.7581 0.44518 0.86887 0.0
H880 H 0.21542 0.74144 0.14068 0.0
H881 H 0.26694 0.78219 0.14538 0.0
H882 H 0.24602 0.80385 0.19301 0.0
H883 H 0.19436 0.76354 0.18826 0.0
H884 H 0.27188 0.85747 0.17909 0.0
H885 H 0.29508 0.75781 0.18645 0.0
H886 H 0.29673 0.70357 0.17919 0.0
H887 H 0.34779 0.7418 0.13875 0.0
H888 H 0.34606 0.7962 0.14562 0.0
H889 H 0.44468 0.90539 0.21111 0.0
H890 H 0.39594 0.86384 0.20141 0.0
H891 H 0.37402 0.92967 0.1671 0.0
H892 H 0.4228 0.97169 0.17699 0.0
H893 H 0.37013 0.83302 0.17286 0.0
H894 H 0.29473 0.91791 0.1667 0.0
H895 H 0.29493 0.97069 0.17756 0.0
H896 H 0.34912 0.95856 0.22103 0.0
H897 H 0.34884 0.90556 0.21053 0.0
C898 C 0.22193 0.75474 0.1522 0.0
C899 C 0.20084 0.74929 0.16411 0.0
C900 C 0.25139 0.77802 0.15487 0.0
C901 C 0.26052 0.79596 0.1696 0.0
C902 C 0.23949 0.79046 0.18151 0.0
C903 C 0.20995 0.76742 0.17879 0.0
C904 C 0.29176 0.8208 0.17262 0.0
C905 C 0.29331 0.85208 0.17763 0.0
C906 C 0.31985 0.81387 0.17085 0.0
C907 C 0.32019 0.78102 0.16647 0.0
C908 C 0.30637 0.75459 0.17591 0.0
C909 C 0.30739 0.72384 0.17189 0.0
C910 C 0.32241 0.71928 0.15854 0.0
C911 C 0.33622 0.7454 0.1491 0.0
C912 C 0.33522 0.77618 0.15305 0.0
C913 C 0.42958 0.91094 0.20141 0.0
C914 C 0.43732 0.94188 0.19493 0.0
C915 C 0.40186 0.8871 0.1958 0.0
C916 C 0.38119 0.89375 0.18366 0.0
C917 C 0.38953 0.92415 0.17659 0.0
C918 C 0.41744 0.94804 0.18217 0.0
C919 C 0.35011 0.86948 0.17931 0.0
C920 C 0.3486 0.8384 0.17405 0.0
C921 C 0.32207 0.87633 0.18122 0.0
C922 C 0.32209 0.908 0.18773 0.0
C923 C 0.30662 0.9265 0.17859 0.0
C924 C 0.30674 0.95644 0.18468 0.0
C925 C 0.32214 0.96803 0.19995 0.0
C926 C 0.33732 0.94963 0.20918 0.0
C927 C 0.33721 0.91966 0.20316 0.0
H928 H 0.32223 0.99122 0.20464 0.0
H929 H 0.32344 0.69554 0.15552 0.0
H930 H 0.54017 0.12194 0.51805 0.0
H931 H 0.5399 0.17778 0.5178 0.0
H932 H 0.63826 0.21008 0.51133 0.0
H933 H 0.63892 0.15426 0.5125 0.0
H934 H 0.62857 0.24876 0.53155 0.0
H935 H 0.57607 0.20442 0.47992 0.0
H936 H 0.53653 0.16506 0.46135 0.0
H937 H 0.46333 0.18934 0.48231 0.0
H938 H 0.5023 0.22803 0.50143 0.0
H939 H 0.6272 0.40906 0.51665 0.0
H940 H 0.62978 0.35502 0.51008 0.0
H941 H 0.5377 0.3122 0.52534 0.0
H942 H 0.53516 0.36592 0.53193 0.0
H943 H 0.54725 0.28088 0.49792 0.0
H944 H 0.599 0.3189 0.55135 0.0
H945 H 0.63779 0.35731 0.57068 0.0
H946 H 0.7122 0.34496 0.54555 0.0
H947 H 0.67377 0.30684 0.5259 0.0
C948 C 0.56171 0.14095 0.51653 0.0
C949 C 0.58953 0.13371 0.51524 0.0
C950 C 0.56151 0.17292 0.51627 0.0
C951 C 0.5889 0.19832 0.51415 0.0
C952 C 0.61676 0.19105 0.51292 0.0
C953 C 0.61713 0.15911 0.51357 0.0
C954 C 0.58867 0.23245 0.51368 0.0
C955 C 0.61113 0.25578 0.5239 0.0
C956 C 0.56563 0.24182 0.50395 0.0
C957 C 0.54216 0.21902 0.4922 0.0
C958 C 0.55154 0.20126 0.48065 0.0
C959 C 0.52923 0.17905 0.47001 0.0
C960 C 0.49747 0.17478 0.4706 0.0
C961 C 0.48794 0.19268 0.48185 0.0
C962 C 0.51014 0.21471 0.49262 0.0
C963 C 0.60727 0.3881 0.51819 0.0
C964 C 0.58103 0.39155 0.52483 0.0
C965 C 0.60882 0.35729 0.51455 0.0
C966 C 0.58405 0.32956 0.51739 0.0
C967 C 0.55707 0.3332 0.52306 0.0
C968 C 0.55567 0.36386 0.52685 0.0
C969 C 0.58695 0.29672 0.5158 0.0
C970 C 0.56496 0.27373 0.50527 0.0
C971 C 0.61042 0.28762 0.52518 0.0
C972 C 0.63351 0.31035 0.53704 0.0
C973 C 0.62362 0.32459 0.54986 0.0
C974 C 0.64554 0.34627 0.56089 0.0
C975 C 0.67744 0.35365 0.55931 0.0
C976 C 0.68748 0.33928 0.54673 0.0
C977 C 0.66564 0.31764 0.53565 0.0
H978 H 0.69437 0.37043 0.56787 0.0
H979 H 0.48026 0.15758 0.46234 0.0
H980 H 0.31437 0.53015 0.81905 0.0
H981 H 0.29314 0.57475 0.81933 0.0
H982 H 0.36283 0.62901 0.7894 0.0
H983 H 0.38354 0.58348 0.78821 0.0
H984 H 0.36174 0.6601 0.81965 0.0
H985 H 0.29405 0.61458 0.77319 0.0
H986 H 0.25751 0.5716 0.75514 0.0
H987 H 0.19113 0.55141 0.79054 0.0
H988 H 0.22742 0.59392 0.80892 0.0
H989 H 0.21812 0.72359 0.83179 0.0
H990 H 0.25704 0.7166 0.81484 0.0
H991 H 0.29681 0.67397 0.85464 0.0
H992 H 0.25761 0.67978 0.87139 0.0
H993 H 0.25056 0.65424 0.80866 0.0
H994 H 0.37068 0.6761 0.84851 0.0
H995 H 0.40876 0.71954 0.86563 0.0
H996 H 0.37182 0.78953 0.84248 0.0
H997 H 0.33389 0.74664 0.82497 0.0
C998 C 0.32459 0.5509 0.81195 0.0
C999 C 0.35097 0.55321 0.80374 0.0
C1000 C 0.31248 0.57654 0.81223 0.0
C1001 C 0.32661 0.60514 0.80444 0.0
C1002 C 0.35187 0.60711 0.79554 0.0
C1003 C 0.36371 0.58117 0.795 0.0
C1004 C 0.31688 0.63377 0.80739 0.0
C1005 C 0.33757 0.65929 0.8171 0.0
C1006 C 0.28568 0.63307 0.80347 0.0
C1007 C 0.26353 0.6075 0.79245 0.0
C1008 C 0.27173 0.60086 0.77718 0.0
C1009 C 0.25104 0.57659 0.76688 0.0
C1010 C 0.22202 0.55879 0.77169 0.0
C1011 C 0.2136 0.56526 0.78681 0.0
C1012 C 0.23421 0.5895 0.79717 0.0
C1013 C 0.23582 0.7137 0.8371 0.0
C1014 C 0.23415 0.70134 0.85279 0.0
C1015 C 0.25818 0.70996 0.82742 0.0
C1016 C 0.27959 0.69444 0.83341 0.0
C1017 C 0.28069 0.68626 0.84978 0.0
C1018 C 0.25813 0.68963 0.8594 0.0
C1019 C 0.2948 0.67932 0.82209 0.0
C1020 C 0.27505 0.65604 0.81082 0.0
C1021 C 0.32688 0.68215 0.82462 0.0
C1022 C 0.34927 0.70801 0.83542 0.0
C1023 C 0.37073 0.70075 0.84698 0.0
C1024 C 0.39231 0.7253 0.85678 0.0
C1025 C 0.39269 0.75727 0.85516 0.0
C1026 C 0.37144 0.76474 0.84376 0.0
C1027 C 0.34984 0.74029 0.83391 0.0
H1028 H 0.40946 0.77624 0.86273 0.0
H1029 H 0.20604 0.54 0.7637 0.0
H1030 H 0.8642 0.3597 0.13898 0.0
H1031 H 0.81836 0.31678 0.14644 0.0
H1032 H 0.87321 0.29782 0.18837 0.0
H1033 H 0.91912 0.34048 0.18092 0.0
H1034 H 0.8365 0.24184 0.17095 0.0
H1035 H 0.82505 0.33991 0.19298 0.0
H1036 H 0.82103 0.39489 0.19128 0.0
H1037 H 0.73984 0.36046 0.15694 0.0
H1038 H 0.74364 0.30531 0.15827 0.0
H1039 H 0.72868 0.15611 0.22305 0.0
H1040 H 0.76974 0.19417 0.2096 0.0
H1041 H 0.70056 0.21037 0.17414 0.0
H1042 H 0.659 0.17314 0.18805 0.0
H1043 H 0.7416 0.26603 0.18458 0.0
H1044 H 0.74908 0.16737 0.16417 0.0
H1045 H 0.75256 0.11215 0.1651 0.0
H1046 H 0.84005 0.14652 0.19478 0.0
H1047 H 0.83689 0.20191 0.19424 0.0
C1048 C 0.8665 0.34624 0.14973 0.0
C1049 C 0.89522 0.3535 0.1594 0.0
C1050 C 0.84028 0.32187 0.15402 0.0
C1051 C 0.84238 0.30424 0.168 0.0
C1052 C 0.87111 0.31116 0.17754 0.0
C1053 C 0.89723 0.33568 0.17334 0.0
C1054 C 0.81463 0.27876 0.17284 0.0
C1055 C 0.81581 0.24711 0.17405 0.0
C1056 C 0.78725 0.28548 0.17631 0.0
C1057 C 0.78485 0.31858 0.17558 0.0
C1058 C 0.8065 0.34412 0.18496 0.0
C1059 C 0.80423 0.3753 0.18409 0.0
C1060 C 0.78025 0.38118 0.17397 0.0
C1061 C 0.75843 0.35587 0.16474 0.0
C1062 C 0.76062 0.32465 0.16556 0.0
C1063 C 0.72211 0.16779 0.21241 0.0
C1064 C 0.6905 0.16173 0.20671 0.0
C1065 C 0.74569 0.18929 0.2046 0.0
C1066 C 0.73833 0.20491 0.19073 0.0
C1067 C 0.70682 0.19852 0.18479 0.0
C1068 C 0.68311 0.17703 0.19267 0.0
C1069 C 0.76362 0.22905 0.18304 0.0
C1070 C 0.76204 0.26052 0.18128 0.0
C1071 C 0.79054 0.22207 0.17891 0.0
C1072 C 0.79263 0.18879 0.17925 0.0
C1073 C 0.76896 0.16313 0.171 0.0
C1074 C 0.77089 0.1318 0.17144 0.0
C1075 C 0.79648 0.12582 0.18002 0.0
C1076 C 0.82023 0.15119 0.18815 0.0
C1077 C 0.8184 0.18257 0.18776 0.0
H1078 H 0.79794 0.10154 0.18034 0.0
H1079 H 0.77854 0.40534 0.1733 0.0
H1080 H 0.05178 0.61516 0.09806 0.0
H1081 H 0.05792 0.62234 0.06924 0.0
H1082 H 1.03736 0.51948 0.06213 0.0
H1083 H 1.03268 0.5124 0.09115 0.0
H1084 H 0.08321 0.54802 0.04611 0.0
H1085 H 0.98331 0.56158 0.05029 0.0
H1086 H 0.94552 0.5844 0.06112 0.0
H1087 H 0.99781 0.67879 0.04675 0.0
H1088 H 1.03616 0.65658 0.03603 0.0
H1089 H 0.04879 0.54222 0.96031 0.0
H1090 H 0.0454 0.53675 0.9895 0.0
H1091 H 0.08355 0.64011 -0.00342 0.0
H1092 H 0.08678 0.64577 0.96728 0.0
H1093 H 1.02961 0.61235 0.01237 0.0
H1094 H 0.12858 0.59564 0.0072 0.0
H1095 H 0.16371 0.57008 0.99569 0.0
H1096 H 0.10892 0.47761 0.01114 0.0
H1097 H 0.07317 0.50255 0.02254 0.0
C1098 C 0.04834 0.59405 0.09033 0.0
C1099 C 0.04158 0.56319 0.09683 0.0
C1100 C 0.05174 0.59816 0.07382 0.0
C1101 C 0.04758 0.5714 0.0634 0.0
C1102 C 1.04068 0.54052 0.0699 0.0
C1103 C 1.0379 0.53647 0.08647 0.0
C1104 C 0.05117 0.57566 0.04581 0.0
C1105 C 0.07111 0.56172 0.03872 0.0
C1106 C 1.03591 0.59407 0.03615 0.0
C1107 C 1.01277 0.60746 0.0425 0.0
C1108 C 0.98687 0.58723 0.04954 0.0
C1109 C 0.96533 0.60006 0.05564 0.0
C1110 C 0.9693 0.63304 0.05466 0.0
C1111 C 0.99478 0.65325 0.04752 0.0
C1112 C 1.01641 0.64056 0.04142 0.0
C1113 C 0.05649 0.56377 0.96809 0.0
C1114 C 0.068 0.59444 0.96154 0.0
C1115 C 0.05471 0.5606 0.98476 0.0
C1116 C 0.06436 0.58802 0.99518 0.0
C1117 C 0.07603 0.61867 0.98871 0.0
C1118 C 0.07807 0.62185 0.97203 0.0
C1119 C 0.06146 0.58462 0.01279 0.0
C1120 C 0.04167 0.59871 0.01984 0.0
C1121 C 0.07641 0.56591 0.02234 0.0
C1122 C 0.09805 0.55093 0.0156 0.0
C1123 C 0.12388 0.56982 0.00803 0.0
C1124 C 0.14393 0.55545 0.00155 0.0
C1125 C 0.13851 0.52223 0.00265 0.0
C1126 C 0.11307 0.50333 0.01028 0.0
C1127 C 0.09293 0.51757 0.01677 0.0
H1128 H 0.15406 0.51115 -0.00238 0.0
H1129 H 0.95261 0.64292 0.05939 0.0
H1130 H 0.62847 0.08442 0.46646 0.0
H1131 H 0.62674 0.08712 0.43692 0.0
H1132 H 0.54981 0.99834 0.43202 0.0
H1133 H 0.55128 0.9954 0.46153 0.0
H1134 H 0.59709 1.00031 0.41201 0.0
H1135 H 0.53645 0.069 0.42679 0.0
H1136 H 0.52858 0.1152 0.44093 0.0
H1137 H 0.60474 0.1804 0.41876 0.0
H1138 H 0.61331 0.13457 0.40466 0.0
H1139 H 0.5406 0.99544 0.33019 0.0
H1140 H 0.54773 0.99617 0.35958 0.0
H1141 H 0.60745 0.09509 0.36022 0.0
H1142 H 0.59787 0.09566 0.33082 0.0
H1143 H 0.57343 0.09028 0.38282 0.0
H1144 H 0.63547 0.02734 0.36762 0.0
H1145 H 0.64828 0.9843 0.3533 0.0
H1146 H 0.57844 0.91234 0.37628 0.0
H1147 H 0.56489 0.95496 0.39058 0.0
C1148 C 0.61119 0.06542 0.45911 0.0
C1149 C 0.58995 0.03971 0.46636 0.0
C1150 C 0.61019 0.06709 0.44224 0.0
C1151 C 0.588 0.04306 0.43232 0.0
C1152 C 0.56708 0.01715 0.43949 0.0
C1153 C 0.5679 0.01557 0.45635 0.0
C1154 C 0.58655 0.04475 0.41443 0.0
C1155 C 0.59161 0.01978 0.40557 0.0
C1156 C 0.58077 0.07091 0.40614 0.0
C1157 C 0.57571 0.09833 0.4148 0.0
C1158 C 0.55171 0.09316 0.42506 0.0
C1159 C 0.54708 0.11929 0.43304 0.0
C1160 C 0.56619 0.15071 0.43076 0.0
C1161 C 0.58998 0.15606 0.42052 0.0
C1162 C 0.59471 0.13002 0.41253 0.0
C1163 C 0.55482 0.01763 0.33651 0.0
C1164 C 0.56853 0.04554 0.32797 0.0
C1165 C 0.55941 0.01778 0.3534 0.0
C1166 C 0.57874 0.04545 0.36219 0.0
C1167 C 0.59259 0.07333 0.35374 0.0
C1168 C 0.58738 0.07347 0.33685 0.0
C1169 C 0.58357 0.04553 0.38021 0.0
C1170 C 0.57917 0.07085 0.38916 0.0
C1171 C 0.59086 0.02013 0.3886 0.0
C1172 C 0.599 0.99437 0.38007 0.0
C1173 C 0.62269 0.00234 0.36954 0.0
C1174 C 0.63011 0.97802 0.36143 0.0
C1175 C 0.61414 0.94561 0.36385 0.0
C1176 C 0.59077 0.93746 0.37441 0.0
C1177 C 0.58324 0.96169 0.38253 0.0
H1178 H 0.61991 0.92682 0.35756 0.0
H1179 H 0.56255 0.17097 0.43686 0.0
H1180 H 0.48642 0.52236 0.78241 0.0
H1181 H 0.4932 0.52844 0.75354 0.0
H1182 H 0.56729 0.48557 0.75936 0.0
H1183 H 0.56123 0.48018 0.78825 0.0
H1184 H 0.58308 0.53627 0.74088 0.0
H1185 H 0.49258 0.44248 0.74296 0.0
H1186 H 0.44011 0.41234 0.75041 0.0
H1187 H 0.40132 0.47711 0.72352 0.0
H1188 H 0.45367 0.5079 0.71608 0.0
H1189 H 0.589 0.48807 0.66004 0.0
H1190 H 0.58186 0.48918 0.68888 0.0
H1191 H 0.51379 0.53884 0.67878 0.0
H1192 H 0.5204 0.53728 0.64981 0.0
H1193 H 0.49412 0.48859 0.69917 0.0
H1194 H 0.58501 0.57999 0.69554 0.0
H1195 H 0.63769 0.60912 0.68804 0.0
H1196 H 0.67607 0.54765 0.7178 0.0
H1197 H 0.62352 0.51783 0.72529 0.0
C1198 C 0.50415 0.51422 0.77754 0.0
C1199 C 0.52318 0.50062 0.7876 0.0
C1200 C 0.50793 0.51763 0.76103 0.0
C1201 C 0.5305 0.50709 0.75425 0.0
C1202 C 0.54974 0.49387 0.76432 0.0
C1203 C 0.54615 0.49069 0.78083 0.0
C1204 C 0.53406 0.50957 0.73666 0.0
C1205 C 0.5637 0.52557 0.73177 0.0
C1206 C 0.50859 0.49631 0.72476 0.0
C1207 C 0.47708 0.47768 0.72911 0.0
C1208 C 0.47289 0.45042 0.73873 0.0
C1209 C 0.44317 0.4332 0.74294 0.0
C1210 C 0.41741 0.44286 0.73748 0.0
C1211 C 0.42131 0.46969 0.72776 0.0
C1212 C 0.45099 0.48702 0.72354 0.0
C1213 C 0.57239 0.49907 0.66395 0.0
C1214 C 0.55524 0.51258 0.65268 0.0
C1215 C 0.56854 0.49994 0.68044 0.0
C1216 C 0.54752 0.51438 0.68596 0.0
C1217 C 0.53021 0.52771 0.67474 0.0
C1218 C 0.53417 0.52699 0.65824 0.0
C1219 C 0.54321 0.51488 0.70343 0.0
C1220 C 0.51344 0.49948 0.70829 0.0
C1221 C 0.56859 0.52853 0.71531 0.0
C1222 C 0.60026 0.54649 0.71086 0.0
C1223 C 0.60464 0.57251 0.70038 0.0
C1224 C 0.63449 0.58918 0.69615 0.0
C1225 C 0.6602 0.58019 0.70241 0.0
C1226 C 0.65612 0.55456 0.71295 0.0
C1227 C 0.62631 0.53779 0.7172 0.0
H1228 H 0.68329 0.59313 0.69913 0.0
H1229 H 0.39442 0.4295 0.74076 0.0
H1230 H 0.55259 0.05681 0.56679 0.0
H1231 H 0.5497 0.05347 0.59602 0.0
H1232 H 0.62359 0.01032 0.60041 0.0
H1233 H 0.62665 0.01349 0.57107 0.0
H1234 H 0.5734 0.97841 0.61756 0.0
H1235 H 0.64019 0.08656 0.61211 0.0
H1236 H 0.65551 0.14089 0.60083 0.0
H1237 H 0.57517 0.15802 0.61778 0.0
H1238 H 0.55911 0.10358 0.62897 0.0
H1239 H 0.59378 0.9944 0.70424 0.0
H1240 H 0.60212 0.99614 0.67542 0.0
H1241 H 0.53641 0.04901 0.66641 0.0
H1242 H 0.52831 0.04764 0.69515 0.0
H1243 H 0.58675 0.0761 0.65179 0.0
H1244 H 0.51793 0.96787 0.65579 0.0
H1245 H 0.5008 0.91311 0.66651 0.0
H1246 H 0.58276 0.89565 0.65192 0.0
H1247 H 0.60061 0.95051 0.64131 0.0
C1248 C 0.56832 0.04668 0.57395 0.0
C1249 C 0.58995 0.03553 0.56661 0.0
C1250 C 0.56667 0.04487 0.59067 0.0
C1251 C 0.58661 0.0319 0.60038 0.0
C1252 C 0.60805 0.02047 0.59311 0.0
C1253 C 0.60986 0.02245 0.57637 0.0
C1254 C 0.58476 0.03015 0.61812 0.0
C1255 C 0.57683 0.99979 0.62514 0.0
C1256 C 0.58859 0.05801 0.62787 0.0
C1257 C 0.59832 0.09088 0.62126 0.0
C1258 C 0.62566 0.10182 0.61333 0.0
C1259 C 0.6345 0.13265 0.60697 0.0
C1260 C 0.61629 0.15287 0.60855 0.0
C1261 C 0.58924 0.14232 0.61655 0.0
C1262 C 0.58028 0.11149 0.62292 0.0
C1263 C 0.58094 0.00612 0.69606 0.0
C1264 C 0.56049 0.02098 0.70194 0.0
C1265 C 0.5857 0.0071 0.67961 0.0
C1266 C 0.56975 0.02255 0.66873 0.0
C1267 C 0.54912 0.03712 0.67459 0.0
C1268 C 0.54453 0.03635 0.69101 0.0
C1269 C 0.57488 0.02425 0.65127 0.0
C1270 C 0.5835 0.05468 0.64429 0.0
C1271 C 0.57147 0.99641 0.64155 0.0
C1272 C 0.56078 0.96343 0.64793 0.0
C1273 C 0.53244 0.95245 0.655 0.0
C1274 C 0.52257 0.92138 0.66103 0.0
C1275 C 0.54073 0.90095 0.65994 0.0
C1276 C 0.56876 0.91153 0.65278 0.0
C1277 C 0.57875 0.9426 0.64675 0.0
H1278 H 0.53305 0.8769 0.66462 0.0
H1279 H 0.62317 0.17672 0.60362 0.0
H1280 H 0.55469 0.49918 0.89337 0.0
H1281 H 0.55038 0.49763 0.92262 0.0
H1282 H 0.45001 0.46854 0.91367 0.0
H1283 H 0.454 0.46906 0.88432 0.0
H1284 H 0.49748 0.5334 0.93705 0.0
H1285 H 0.45591 0.41564 0.92657 0.0
H1286 H 0.45923 0.36462 0.91531 0.0
H1287 H 0.54817 0.38037 0.94286 0.0
H1288 H 0.54558 0.43182 0.95406 0.0
H1289 H 0.46099 0.51964 0.01765 0.0
H1290 H 0.45899 0.51164 0.9885 0.0
H1291 H 0.53765 0.47558 0.99522 0.0
H1292 H 0.53807 0.48076 0.02453 0.0
H1293 H 0.49988 0.44219 0.97225 0.0
H1294 H 0.54415 0.55544 0.98362 0.0
H1295 H 0.54771 0.60898 0.99484 0.0
H1296 H 0.46326 0.60632 0.96576 0.0
H1297 H 0.45897 0.55255 0.95452 0.0
C1298 C 0.53168 0.49218 0.89762 0.0
C1299 C 0.50466 0.48426 0.88659 0.0
C1300 C 0.52929 0.49121 0.9143 0.0
C1301 C 0.49991 0.48276 0.92018 0.0
C1302 C 0.47286 0.47478 0.90926 0.0
C1303 C 0.47519 0.47508 0.89255 0.0
C1304 C 0.49779 0.48427 0.93779 0.0
C1305 C 0.49739 0.51334 0.94478 0.0
C1306 C 0.49911 0.45851 0.94778 0.0
C1307 C 0.50074 0.42775 0.94097 0.0
C1308 C 0.47636 0.40844 0.93005 0.0
C1309 C 0.47806 0.37939 0.92372 0.0
C1310 C 0.50393 0.36929 0.92834 0.0
C1311 C 0.52816 0.38824 0.93928 0.0
C1312 C 0.52659 0.41734 0.94562 0.0
C1313 C 0.47749 0.50933 0.01303 0.0
C1314 C 0.49979 0.50098 0.02358 0.0
C1315 C 0.47663 0.50527 0.99627 0.0
C1316 C 0.49862 0.49371 0.98959 0.0
C1317 C 0.52054 0.48477 5e-05 0.0
C1318 C 0.52102 0.48818 0.01685 0.0
C1319 C 0.499 0.49135 0.97172 0.0
C1320 C 0.49951 0.46226 0.96462 0.0
C1321 C 0.49854 0.51746 0.96164 0.0
C1322 C 0.50107 0.54982 0.96835 0.0
C1323 C 0.52622 0.56617 0.97971 0.0
C1324 C 0.52838 0.59657 0.98606 0.0
C1325 C 0.50568 0.611 0.98105 0.0
C1326 C 0.4808 0.59509 0.96965 0.0
C1327 C 0.4785 0.56466 0.96327 0.0
H1328 H 0.5074 0.63455 0.98599 0.0
H1329 H 0.50514 0.34672 0.92351 0.0
H1330 H 0.07226 0.60013 0.20175 0.0
H1331 H 0.07343 0.59822 0.23119 0.0
H1332 H 1.02012 0.49698 0.22726 0.0
H1333 H 1.01792 0.499 0.19767 0.0
H1334 H 0.99866 0.52517 0.249 0.0
H1335 H 0.10018 0.52374 0.23927 0.0
H1336 H 0.15096 0.54153 0.22788 0.0
H1337 H 0.17428 0.63316 0.25324 0.0
H1338 H 0.12342 0.61608 0.26461 0.0
H1339 H 1.03669 0.50137 0.33357 0.0
H1340 H 1.03223 0.49848 0.30393 0.0
H1341 H 0.06788 0.60227 0.30303 0.0
H1342 H 0.07124 0.6056 0.33258 0.0
H1343 H 0.09847 0.56907 0.28402 0.0
H1344 H 0.99435 0.56858 0.293 0.0
H1345 H 0.94393 0.54809 0.30461 0.0
H1346 H 0.92662 0.45572 0.2809 0.0
H1347 H 0.97719 0.47554 0.26932 0.0
C1348 C 0.06088 0.5774 0.20713 0.0
C1349 C 0.04515 0.54967 0.19738 0.0
C1350 C 0.06168 0.57631 0.22399 0.0
C1351 C 0.04735 0.54731 0.23148 0.0
C1352 C 1.03142 0.51961 0.22176 0.0
C1353 C 1.03025 0.52078 0.20486 0.0
C1354 C 0.04864 0.54618 0.24943 0.0
C1355 C 1.02056 0.53428 0.25663 0.0
C1356 C 0.07716 0.55837 0.25945 0.0
C1357 C 0.10786 0.56871 0.25269 0.0
C1358 C 0.11604 0.54777 0.24233 0.0
C1359 C 0.14485 0.55771 0.23589 0.0
C1360 C 0.1658 0.58848 0.2398 0.0
C1361 C 0.15801 0.60934 0.2502 0.0
C1362 C 0.12921 0.59953 0.25667 0.0
C1363 C 0.04303 0.52365 0.3271 0.0
C1364 C 0.05445 0.55374 0.33552 0.0
C1365 C 1.04065 0.5219 0.31016 0.0
C1366 C 0.04979 0.55016 0.30135 0.0
C1367 C 0.06092 0.58019 0.30965 0.0
C1368 C 0.06297 0.582 0.32656 0.0
C1369 C 0.04855 0.54852 0.28346 0.0
C1370 C 0.07666 0.55981 0.27632 0.0
C1371 C 1.02016 0.53532 0.27354 0.0
C1372 C 0.98971 0.52344 0.28044 0.0
C1373 C 0.97993 0.54381 0.29038 0.0
C1374 C 0.9513 0.53234 0.29693 0.0
C1375 C 0.93213 0.50059 0.29354 0.0
C1376 C 0.94152 0.48028 0.28354 0.0
C1377 C 0.97015 0.49163 0.27697 0.0
H1378 H 0.90997 0.49176 0.29861 0.0
H1379 H 0.1881 0.59614 0.2348 0.0
loop_
_geom_bond_atom_site_label_1
_geom_bond_atom_site_label_2
_geom_bond_distance
_geom_bond_site_symmetry_2
_ccdc_geom_bond_type
Dy0 O3 2.307 1_455 S
Dy0 O5 2.395 . S
Dy0 O6 2.379 . S
Dy0 O8 2.339 . S
Dy0 O10 2.298 . S
Dy0 O14 2.275 . S
Dy0 C22 2.738 . S
Dy1 O4 2.298 . S
Dy1 O7 2.275 1_655 S
Dy1 O9 2.307 1_655 S
Dy1 O11 2.395 . S
Dy1 O12 2.379 . S
Dy1 O15 2.339 . S
Dy1 C31 2.738 . S
C2 O14 1.254 . S
C2 O15 1.257 1_455 S
O3 Dy0 2.307 1_655 S
O3 C13 1.266 . S
O4 Dy1 2.298 . S
O4 C13 1.236 . S
O5 Dy0 2.395 . S
O5 C22 1.255 . S
O6 Dy0 2.379 . S
O6 C22 1.249 . S
O7 Dy1 2.275 1_455 S
O7 C23 1.254 . S
O8 Dy0 2.339 . S
O8 C23 1.257 . S
O9 Dy1 2.307 1_455 S
O9 C24 1.266 . S
O10 Dy0 2.298 . S
O10 C24 1.236 . S
O11 Dy1 2.395 . S
O11 C31 1.255 . S
O12 Dy1 2.379 . S
O12 C31 1.249 . S
C13 O3 1.266 . S
C13 O4 1.236 . S
O14 Dy0 2.275 . S
O14 C2 1.254 . S
O15 Dy1 2.339 . S
O15 C2 1.257 1_655 S
C16 C19 1.344 . S
C16 C20 1.328 . S
C16 C22 1.516 . S
C17 C18 1.304 . S
C17 C21 1.323 . S
C18 C17 1.304 . S
C18 C19 1.371 . S
C18 H32 0.930 . S
C19 C16 1.344 . S
C19 C18 1.371 . S
C19 H33 0.931 . S
C20 C16 1.328 . S
C20 C21 1.433 . S
C20 H34 0.931 . S
C21 C17 1.323 . S
C21 C20 1.433 . S
C21 H35 0.933 . S
C22 Dy0 2.738 . S
C22 O5 1.255 . S
C22 O6 1.249 . S
C22 C16 1.516 . S
C23 O7 1.254 . S
C23 O8 1.257 . S
C24 O9 1.266 . S
C24 O10 1.236 . S
C25 C28 1.344 . S
C25 C29 1.328 . S
C25 C31 1.516 . S
C26 C27 1.304 . S
C26 C30 1.323 . S
C27 C26 1.304 . S
C27 C28 1.371 . S
C27 H36 0.930 . S
C28 C25 1.344 . S
C28 C27 1.371 . S
C28 H37 0.931 . S
C29 C25 1.328 . S
C29 C30 1.433 . S
C29 H38 0.931 . S
C30 C26 1.323 . S
C30 C29 1.433 . S
C30 H39 0.933 . S
C31 Dy1 2.738 . S
C31 O11 1.255 . S
C31 O12 1.249 . S
C31 C25 1.516 . S
H32 C18 0.930 . S
H33 C19 0.931 . S
H34 C20 0.931 . S
H35 C21 0.933 . S
H36 C27 0.930 . S
H37 C28 0.931 . S
H38 C29 0.931 . S
H39 C30 0.933 . S
Dy40 O43 2.307 . S
Dy40 O45 2.395 1_545 S
Dy40 O46 2.379 1_545 S
Dy40 O48 2.339 . S
Dy40 O50 2.298 1_545 S
Dy40 O54 2.275 . S
Dy40 C62 2.738 1_545 S
Dy41 O44 2.298 . S
Dy41 O47 2.275 . S
Dy41 O49 2.307 1_545 S
Dy41 O51 2.395 . S
Dy41 O52 2.379 . S
Dy41 O55 2.339 . S
Dy41 C71 2.738 . S
C42 O54 1.254 . S
C42 O55 1.257 . S
O43 Dy40 2.307 . S
O43 C53 1.266 . S
O44 Dy41 2.298 . S
O44 C53 1.236 . S
O45 Dy40 2.395 1_565 S
O45 C62 1.255 . S
O46 Dy40 2.379 1_565 S
O46 C62 1.249 . S
O47 Dy41 2.275 . S
O47 C63 1.254 . S
O48 Dy40 2.339 . S
O48 C63 1.257 . S
O49 Dy41 2.307 1_565 S
O49 C64 1.266 . S
O50 Dy40 2.298 1_565 S
O50 C64 1.236 . S
O51 Dy41 2.395 . S
O51 C71 1.255 . S
O52 Dy41 2.379 . S
O52 C71 1.249 . S
C53 O43 1.266 . S
C53 O44 1.236 . S
O54 Dy40 2.275 . S
O54 C42 1.254 . S
O55 Dy41 2.339 . S
O55 C42 1.257 . S
C56 C59 1.344 . S
C56 C60 1.328 . S
C56 C62 1.516 . S
C57 C58 1.304 . S
C57 C61 1.323 . S
C58 C57 1.304 . S
C58 C59 1.371 . S
C58 H72 0.930 . S
C59 C56 1.344 . S
C59 C58 1.371 . S
C59 H73 0.931 . S
C60 C56 1.328 . S
C60 C61 1.433 . S
C60 H74 0.931 . S
C61 C57 1.323 . S
C61 C60 1.433 . S
C61 H75 0.933 . S
C62 Dy40 2.738 1_565 S
C62 O45 1.255 . S
C62 O46 1.249 . S
C62 C56 1.516 . S
C63 O47 1.254 . S
C63 O48 1.257 . S
C64 O49 1.266 . S
C64 O50 1.236 . S
C65 C68 1.344 . S
C65 C69 1.328 . S
C65 C71 1.516 . S
C66 C67 1.304 . S
C66 C70 1.323 . S
C67 C66 1.304 . S
C67 C68 1.371 . S
C67 H76 0.930 . S
C68 C65 1.344 . S
C68 C67 1.371 . S
C68 H77 0.931 . S
C69 C65 1.328 . S
C69 C70 1.433 . S
C69 H78 0.931 . S
C70 C66 1.323 . S
C70 C69 1.433 . S
C70 H79 0.933 . S
C71 Dy41 2.738 . S
C71 O51 1.255 . S
C71 O52 1.249 . S
C71 C65 1.516 . S
H72 C58 0.930 . S
H73 C59 0.931 . S
H74 C60 0.931 . S
H75 C61 0.933 . S
H76 C67 0.930 . S
H77 C68 0.931 . S
H78 C69 0.931 . S
H79 C70 0.933 . S
Dy80 O83 2.307 . S
Dy80 O85 2.395 . S
Dy80 O86 2.379 . S
Dy80 O88 2.339 . S
Dy80 O90 2.298 . S
Dy80 O94 2.275 . S
Dy80 C102 2.738 . S
Dy81 O84 2.298 . S
Dy81 O87 2.275 . S
Dy81 O89 2.307 . S
Dy81 O91 2.395 . S
Dy81 O92 2.379 . S
Dy81 O95 2.339 . S
Dy81 C111 2.738 . S
C82 O94 1.254 . S
C82 O95 1.257 . S
O83 Dy80 2.307 . S
O83 C93 1.266 . S
O84 Dy81 2.298 . S
O84 C93 1.236 . S
O85 Dy80 2.395 . S
O85 C102 1.255 . S
O86 Dy80 2.379 . S
O86 C102 1.249 . S
O87 Dy81 2.275 . S
O87 C103 1.254 . S
O88 Dy80 2.339 . S
O88 C103 1.257 . S
O89 Dy81 2.307 . S
O89 C104 1.266 . S
O90 Dy80 2.298 . S
O90 C104 1.236 . S
O91 Dy81 2.395 . S
O91 C111 1.255 . S
O92 Dy81 2.379 . S
O92 C111 1.249 . S
C93 O83 1.266 . S
C93 O84 1.236 . S
O94 Dy80 2.275 . S
O94 C82 1.254 . S
O95 Dy81 2.339 . S
O95 C82 1.257 . S
C96 C99 1.344 . S
C96 C100 1.328 . S
C96 C102 1.516 . S
C97 C98 1.304 . S
C97 C101 1.323 . S
C98 C97 1.304 . S
C98 C99 1.371 . S
C98 H112 0.930 . S
C99 C96 1.344 . S
C99 C98 1.371 . S
C99 H113 0.931 . S
C100 C96 1.328 . S
C100 C101 1.433 . S
C100 H114 0.931 . S
C101 C97 1.323 . S
C101 C100 1.433 . S
C101 H115 0.933 . S
C102 Dy80 2.738 . S
C102 O85 1.255 . S
C102 O86 1.249 . S
C102 C96 1.516 . S
C103 O87 1.254 . S
C103 O88 1.257 . S
C104 O89 1.266 . S
C104 O90 1.236 . S
C105 C108 1.344 . S
C105 C109 1.328 . S
C105 C111 1.516 . S
C106 C107 1.304 . S
C106 C110 1.323 . S
C107 C106 1.304 . S
C107 C108 1.371 . S
C107 H116 0.930 . S
C108 C105 1.344 . S
C108 C107 1.371 . S
C108 H117 0.931 . S
C109 C105 1.328 . S
C109 C110 1.433 . S
C109 H118 0.931 . S
C110 C106 1.323 . S
C110 C109 1.433 . S
C110 H119 0.933 . S
C111 Dy81 2.738 . S
C111 O91 1.255 . S
C111 O92 1.249 . S
C111 C105 1.516 . S
H112 C98 0.930 . S
H113 C99 0.931 . S
H114 C100 0.931 . S
H115 C101 0.933 . S
H116 C107 0.930 . S
H117 C108 0.931 . S
H118 C109 0.931 . S
H119 C110 0.933 . S
C120 C121 1.391 . S
C120 C124 1.391 . S
C120 H162 0.948 . S
C121 C120 1.391 . S
C121 C122 1.391 . S
C122 C121 1.391 . S
C122 H178 0.947 . S
C122 C179 1.392 . S
C123 C124 1.391 . S
C123 C127 1.397 . S
C123 C179 1.419 . S
C124 C120 1.391 . S
C124 C123 1.391 . S
C124 C125 1.399 . S
C125 C124 1.399 . S
C125 C128 1.396 . S
C125 C137 1.453 . S
C125 C138 1.684 . S
H126 C150 0.948 . S
C127 C123 1.397 . S
C127 C128 1.394 . S
C127 C146 1.723 . S
C128 C125 1.396 . S
C128 C127 1.394 . S
C128 C158 1.723 . S
H129 C152 0.947 . S
H130 C153 0.948 . S
H131 C159 0.982 . S
H132 C160 0.979 . S
H133 C160 0.980 . S
H134 C160 0.983 1_565 S
H135 C159 0.979 . S
H136 C159 0.977 . S
C137 C125 1.453 . S
C137 H166 0.982 . S
C137 H167 0.979 . S
C137 H168 0.977 . S
C138 C125 1.684 . S
C138 H163 0.979 . S
C138 H164 0.980 . S
C138 H165 0.983 . S
C139 C140 1.391 . S
C139 C144 1.391 . S
C139 H169 0.948 . S
C140 C139 1.391 . S
C140 C141 1.391 . S
C141 C140 1.391 . S
C141 C142 1.392 . S
C141 H170 0.947 . S
C142 C141 1.392 . S
C142 C143 1.419 . S
C142 H171 0.948 . S
C143 C142 1.419 . S
C143 C144 1.391 . S
C143 C147 1.397 . S
C144 C139 1.391 . S
C144 C143 1.391 . S
C144 C145 1.399 . S
C145 C144 1.399 . S
C145 C146 1.396 . S
C145 C148 1.453 . S
C145 C149 1.684 . S
C146 C127 1.723 . S
C146 C145 1.396 . S
C146 C147 1.394 . S
C147 C143 1.397 . S
C147 C146 1.394 . S
C147 C157 1.723 . S
C148 C145 1.453 . S
C148 H172 0.982 . S
C148 H173 0.979 . S
C148 H174 0.977 . S
C149 C145 1.684 . S
C149 H175 0.979 . S
C149 H176 0.980 . S
C149 H177 0.983 . S
C150 H126 0.948 . S
C150 C151 1.391 . S
C150 C155 1.391 . S
C151 C150 1.391 . S
C151 C152 1.391 . S
C152 H129 0.947 . S
C152 C151 1.391 . S
C152 C153 1.392 1_565 S
C153 H130 0.948 . S
C153 C152 1.392 1_545 S
C153 C154 1.419 . S
C154 C153 1.419 . S
C154 C155 1.391 1_545 S
C154 C158 1.397 . S
C155 C150 1.391 . S
C155 C154 1.391 1_565 S
C155 C156 1.399 1_565 S
C156 C155 1.399 1_545 S
C156 C157 1.396 . S
C156 C159 1.453 1_545 S
C156 C160 1.684 . S
C157 C147 1.723 . S
C157 C156 1.396 . S
C157 C158 1.394 . S
C158 C128 1.723 . S
C158 C154 1.397 . S
C158 C157 1.394 . S
C159 H131 0.982 . S
C159 H135 0.979 . S
C159 H136 0.977 . S
C159 C156 1.453 1_565 S
C160 H132 0.979 . S
C160 H133 0.980 . S
C160 H134 0.983 1_545 S
C160 C156 1.684 . S
H161 C179 0.948 . S
H162 C120 0.948 . S
H163 C138 0.979 . S
H164 C138 0.980 . S
H165 C138 0.983 . S
H166 C137 0.982 . S
H167 C137 0.979 . S
H168 C137 0.977 . S
H169 C139 0.948 . S
H170 C141 0.947 . S
H171 C142 0.948 . S
H172 C148 0.982 . S
H173 C148 0.979 . S
H174 C148 0.977 . S
H175 C149 0.979 . S
H176 C149 0.980 . S
H177 C149 0.983 . S
H178 C122 0.947 . S
C179 C122 1.392 . S
C179 C123 1.419 . S
C179 H161 0.948 . S
C180 C181 1.391 . S
C180 C184 1.391 . S
C180 H222 0.948 . S
C181 C180 1.391 . S
C181 C182 1.391 . S
C182 C181 1.391 . S
C182 H238 0.947 . S
C182 C239 1.392 . S
C183 C184 1.391 . S
C183 C187 1.397 . S
C183 C239 1.419 . S
C184 C180 1.391 . S
C184 C183 1.391 . S
C184 C185 1.399 . S
C185 C184 1.399 . S
C185 C188 1.396 . S
C185 C197 1.453 . S
C185 C198 1.684 . S
H186 C210 0.948 . S
C187 C183 1.397 . S
C187 C188 1.394 . S
C187 C206 1.723 . S
C188 C185 1.396 . S
C188 C187 1.394 . S
C188 C218 1.723 . S
H189 C212 0.947 . S
H190 C213 0.948 . S
H191 C219 0.982 . S
H192 C220 0.979 . S
H193 C220 0.980 . S
H194 C220 0.983 . S
H195 C219 0.979 . S
H196 C219 0.977 . S
C197 C185 1.453 . S
C197 H226 0.982 . S
C197 H227 0.979 . S
C197 H228 0.977 . S
C198 C185 1.684 . S
C198 H223 0.979 . S
C198 H224 0.980 . S
C198 H225 0.983 . S
C199 C200 1.391 . S
C199 C204 1.391 . S
C199 H229 0.948 . S
C200 C199 1.391 . S
C200 C201 1.391 . S
C201 C200 1.391 . S
C201 C202 1.392 . S
C201 H230 0.947 . S
C202 C201 1.392 . S
C202 C203 1.419 . S
C202 H231 0.948 . S
C203 C202 1.419 . S
C203 C204 1.391 . S
C203 C207 1.397 . S
C204 C199 1.391 . S
C204 C203 1.391 . S
C204 C205 1.399 . S
C205 C204 1.399 . S
C205 C206 1.396 . S
C205 C208 1.453 . S
C205 C209 1.684 . S
C206 C187 1.723 . S
C206 C205 1.396 . S
C206 C207 1.394 . S
C207 C203 1.397 . S
C207 C206 1.394 . S
C207 C217 1.723 . S
C208 C205 1.453 . S
C208 H232 0.982 . S
C208 H233 0.979 . S
C208 H234 0.977 . S
C209 C205 1.684 . S
C209 H235 0.979 . S
C209 H236 0.980 . S
C209 H237 0.983 . S
C210 H186 0.948 . S
C210 C211 1.391 . S
C210 C215 1.391 . S
C211 C210 1.391 . S
C211 C212 1.391 . S
C212 H189 0.947 . S
C212 C211 1.391 . S
C212 C213 1.392 . S
C213 H190 0.948 . S
C213 C212 1.392 . S
C213 C214 1.419 . S
C214 C213 1.419 . S
C214 C215 1.391 . S
C214 C218 1.397 . S
C215 C210 1.391 . S
C215 C214 1.391 . S
C215 C216 1.399 . S
C216 C215 1.399 . S
C216 C217 1.396 . S
C216 C219 1.453 . S
C216 C220 1.684 . S
C217 C207 1.723 . S
C217 C216 1.396 . S
C217 C218 1.394 . S
C218 C188 1.723 . S
C218 C214 1.397 . S
C218 C217 1.394 . S
C219 H191 0.982 . S
C219 H195 0.979 . S
C219 H196 0.977 . S
C219 C216 1.453 . S
C220 H192 0.979 . S
C220 H193 0.980 . S
C220 H194 0.983 . S
C220 C216 1.684 . S
H221 C239 0.948 . S
H222 C180 0.948 . S
H223 C198 0.979 . S
H224 C198 0.980 . S
H225 C198 0.983 . S
H226 C197 0.982 . S
H227 C197 0.979 . S
H228 C197 0.977 . S
H229 C199 0.948 . S
H230 C201 0.947 . S
H231 C202 0.948 . S
H232 C208 0.982 . S
H233 C208 0.979 . S
H234 C208 0.977 . S
H235 C209 0.979 . S
H236 C209 0.980 . S
H237 C209 0.983 . S
H238 C182 0.947 . S
C239 C182 1.392 . S
C239 C183 1.419 . S
C239 H221 0.948 . S
C240 C241 1.391 . S
C240 C244 1.391 . S
C240 H282 0.948 . S
C241 C240 1.391 . S
C241 C242 1.391 . S
C242 C241 1.391 . S
C242 H298 0.947 . S
C242 C299 1.392 . S
C243 C244 1.391 . S
C243 C247 1.397 . S
C243 C299 1.419 . S
C244 C240 1.391 . S
C244 C243 1.391 . S
C244 C245 1.399 . S
C245 C244 1.399 . S
C245 C248 1.396 . S
C245 C257 1.453 . S
C245 C258 1.684 . S
H246 C270 0.948 . S
C247 C243 1.397 . S
C247 C248 1.394 . S
C247 C266 1.723 . S
C248 C245 1.396 . S
C248 C247 1.394 . S
C248 C278 1.723 1_455 S
H249 C272 0.947 . S
H250 C273 0.948 . S
H251 C279 0.982 . S
H252 C280 0.979 . S
H253 C280 0.980 . S
H254 C280 0.983 . S
H255 C279 0.979 . S
H256 C279 0.977 . S
C257 C245 1.453 . S
C257 H286 0.982 . S
C257 H287 0.979 . S
C257 H288 0.977 . S
C258 C245 1.684 . S
C258 H283 0.979 . S
C258 H284 0.980 . S
C258 H285 0.983 . S
C259 C260 1.391 . S
C259 C264 1.391 . S
C259 H289 0.948 . S
C260 C259 1.391 . S
C260 C261 1.391 1_455 S
C261 C260 1.391 1_655 S
C261 C262 1.392 . S
C261 H290 0.947 . S
C262 C261 1.392 . S
C262 C263 1.419 1_655 S
C262 H291 0.948 . S
C263 C262 1.419 1_455 S
C263 C264 1.391 . S
C263 C267 1.397 . S
C264 C259 1.391 . S
C264 C263 1.391 . S
C264 C265 1.399 . S
C265 C264 1.399 . S
C265 C266 1.396 . S
C265 C268 1.453 . S
C265 C269 1.684 . S
C266 C247 1.723 . S
C266 C265 1.396 . S
C266 C267 1.394 . S
C267 C263 1.397 . S
C267 C266 1.394 . S
C267 C277 1.723 1_455 S
C268 C265 1.453 . S
C268 H292 0.982 . S
C268 H293 0.979 . S
C268 H294 0.977 . S
C269 C265 1.684 . S
C269 H295 0.979 . S
C269 H296 0.980 . S
C269 H297 0.983 . S
C270 H246 0.948 . S
C270 C271 1.391 . S
C270 C275 1.391 . S
C271 C270 1.391 . S
C271 C272 1.391 . S
C272 H249 0.947 . S
C272 C271 1.391 . S
C272 C273 1.392 . S
C273 H250 0.948 . S
C273 C272 1.392 . S
C273 C274 1.419 . S
C274 C273 1.419 . S
C274 C275 1.391 . S
C274 C278 1.397 . S
C275 C270 1.391 . S
C275 C274 1.391 . S
C275 C276 1.399 . S
C276 C275 1.399 . S
C276 C277 1.396 . S
C276 C279 1.453 . S
C276 C280 1.684 . S
C277 C267 1.723 1_655 S
C277 C276 1.396 . S
C277 C278 1.394 . S
C278 C248 1.723 1_655 S
C278 C274 1.397 . S
C278 C277 1.394 . S
C279 H251 0.982 . S
C279 H255 0.979 . S
C279 H256 0.977 . S
C279 C276 1.453 . S
C280 H252 0.979 . S
C280 H253 0.980 . S
C280 H254 0.983 . S
C280 C276 1.684 . S
H281 C299 0.948 . S
H282 C240 0.948 . S
H283 C258 0.979 . S
H284 C258 0.980 . S
H285 C258 0.983 . S
H286 C257 0.982 . S
H287 C257 0.979 . S
H288 C257 0.977 . S
H289 C259 0.948 . S
H290 C261 0.947 . S
H291 C262 0.948 . S
H292 C268 0.982 . S
H293 C268 0.979 . S
H294 C268 0.977 . S
H295 C269 0.979 . S
H296 C269 0.980 . S
H297 C269 0.983 . S
H298 C242 0.947 . S
C299 C242 1.392 . S
C299 C243 1.419 . S
C299 H281 0.948 . S
C300 C301 1.391 . S
C300 C304 1.391 . S
C300 H342 0.948 . S
C301 C300 1.391 . S
C301 C302 1.391 . S
C302 C301 1.391 . S
C302 H358 0.947 . S
C302 C359 1.392 . S
C303 C304 1.391 . S
C303 C307 1.397 . S
C303 C359 1.419 . S
C304 C300 1.391 . S
C304 C303 1.391 . S
C304 C305 1.399 . S
C305 C304 1.399 . S
C305 C308 1.396 1_655 S
C305 C317 1.453 1_655 S
C305 C318 1.684 . S
H306 C330 0.948 . S
C307 C303 1.397 . S
C307 C308 1.394 1_655 S
C307 C326 1.723 . S
C308 C305 1.396 1_455 S
C308 C307 1.394 1_455 S
C308 C338 1.723 . S
H309 C332 0.947 . S
H310 C333 0.948 . S
H311 C339 0.982 . S
H312 C340 0.979 . S
H313 C340 0.980 . S
H314 C340 0.983 . S
H315 C339 0.979 . S
H316 C339 0.977 . S
C317 C305 1.453 1_455 S
C317 H346 0.982 . S
C317 H347 0.979 . S
C317 H348 0.977 . S
C318 C305 1.684 . S
C318 H343 0.979 . S
C318 H344 0.980 1_655 S
C318 H345 0.983 . S
C319 C320 1.391 1_655 S
C319 C324 1.391 . S
C319 H349 0.948 . S
C320 C319 1.391 1_455 S
C320 C321 1.391 . S
C321 C320 1.391 . S
C321 C322 1.392 . S
C321 H350 0.947 . S
C322 C321 1.392 . S
C322 C323 1.419 . S
C322 H351 0.948 . S
C323 C322 1.419 . S
C323 C324 1.391 1_455 S
C323 C327 1.397 . S
C324 C319 1.391 . S
C324 C323 1.391 1_655 S
C324 C325 1.399 . S
C325 C324 1.399 . S
C325 C326 1.396 . S
C325 C328 1.453 . S
C325 C329 1.684 . S
C326 C307 1.723 . S
C326 C325 1.396 . S
C326 C327 1.394 1_655 S
C327 C323 1.397 . S
C327 C326 1.394 1_455 S
C327 C337 1.723 . S
C328 C325 1.453 . S
C328 H352 0.982 . S
C328 H353 0.979 . S
C328 H354 0.977 . S
C329 C325 1.684 . S
C329 H355 0.979 . S
C329 H356 0.980 . S
C329 H357 0.983 . S
C330 H306 0.948 . S
C330 C331 1.391 . S
C330 C335 1.391 . S
C331 C330 1.391 . S
C331 C332 1.391 . S
C332 H309 0.947 . S
C332 C331 1.391 . S
C332 C333 1.392 . S
C333 H310 0.948 . S
C333 C332 1.392 . S
C333 C334 1.419 . S
C334 C333 1.419 . S
C334 C335 1.391 . S
C334 C338 1.397 . S
C335 C330 1.391 . S
C335 C334 1.391 . S
C335 C336 1.399 . S
C336 C335 1.399 . S
C336 C337 1.396 . S
C336 C339 1.453 . S
C336 C340 1.684 . S
C337 C327 1.723 . S
C337 C336 1.396 . S
C337 C338 1.394 . S
C338 C308 1.723 . S
C338 C334 1.397 . S
C338 C337 1.394 . S
C339 H311 0.982 . S
C339 H315 0.979 . S
C339 H316 0.977 . S
C339 C336 1.453 . S
C340 H312 0.979 . S
C340 H313 0.980 . S
C340 H314 0.983 . S
C340 C336 1.684 . S
H341 C359 0.948 . S
H342 C300 0.948 . S
H343 C318 0.979 . S
H344 C318 0.980 1_455 S
H345 C318 0.983 . S
H346 C317 0.982 . S
H347 C317 0.979 . S
H348 C317 0.977 . S
H349 C319 0.948 . S
H350 C321 0.947 . S
H351 C322 0.948 . S
H352 C328 0.982 . S
H353 C328 0.979 . S
H354 C328 0.977 . S
H355 C329 0.979 . S
H356 C329 0.980 . S
H357 C329 0.983 . S
H358 C302 0.947 . S
C359 C302 1.392 . S
C359 C303 1.419 . S
C359 H341 0.948 . S
C360 C361 1.391 . S
C360 C364 1.391 . S
C360 H402 0.948 . S
C361 C360 1.391 . S
C361 C362 1.391 . S
C362 C361 1.391 . S
C362 H418 0.947 . S
C362 C419 1.392 . S
C363 C364 1.391 . S
C363 C367 1.397 . S
C363 C419 1.419 . S
C364 C360 1.391 . S
C364 C363 1.391 . S
C364 C365 1.399 . S
C365 C364 1.399 . S
C365 C368 1.396 . S
C365 C377 1.453 . S
C365 C378 1.684 . S
H366 C390 0.948 . S
C367 C363 1.397 . S
C367 C368 1.394 . S
C367 C386 1.723 . S
C368 C365 1.396 . S
C368 C367 1.394 . S
C368 C398 1.723 1_565 S
H369 C392 0.947 . S
H370 C393 0.948 . S
H371 C399 0.982 . S
H372 C400 0.979 . S
H373 C400 0.980 . S
H374 C400 0.983 . S
H375 C399 0.979 . S
H376 C399 0.977 . S
C377 C365 1.453 . S
C377 H406 0.982 1_565 S
C377 H407 0.979 . S
C377 H408 0.977 1_565 S
C378 C365 1.684 . S
C378 H403 0.979 . S
C378 H404 0.980 1_565 S
C378 H405 0.983 . S
C379 C380 1.391 1_565 S
C379 C384 1.391 . S
C379 H409 0.948 . S
C380 C379 1.391 1_545 S
C380 C381 1.391 . S
C381 C380 1.391 . S
C381 C382 1.392 . S
C381 H410 0.947 . S
C382 C381 1.392 . S
C382 C383 1.419 . S
C382 H411 0.948 . S
C383 C382 1.419 . S
C383 C384 1.391 1_545 S
C383 C387 1.397 . S
C384 C379 1.391 . S
C384 C383 1.391 1_565 S
C384 C385 1.399 . S
C385 C384 1.399 . S
C385 C386 1.396 . S
C385 C388 1.453 . S
C385 C389 1.684 . S
C386 C367 1.723 . S
C386 C385 1.396 . S
C386 C387 1.394 1_565 S
C387 C383 1.397 . S
C387 C386 1.394 1_545 S
C387 C397 1.723 . S
C388 C385 1.453 . S
C388 H412 0.982 . S
C388 H413 0.979 . S
C388 H414 0.977 . S
C389 C385 1.684 . S
C389 H415 0.979 . S
C389 H416 0.980 . S
C389 H417 0.983 . S
C390 H366 0.948 . S
C390 C391 1.391 . S
C390 C395 1.391 . S
C391 C390 1.391 . S
C391 C392 1.391 . S
C392 H369 0.947 . S
C392 C391 1.391 . S
C392 C393 1.392 . S
C393 H370 0.948 . S
C393 C392 1.392 . S
C393 C394 1.419 . S
C394 C393 1.419 . S
C394 C395 1.391 . S
C394 C398 1.397 . S
C395 C390 1.391 . S
C395 C394 1.391 . S
C395 C396 1.399 . S
C396 C395 1.399 . S
C396 C397 1.396 . S
C396 C399 1.453 . S
C396 C400 1.684 . S
C397 C387 1.723 . S
C397 C396 1.396 . S
C397 C398 1.394 . S
C398 C368 1.723 1_545 S
C398 C394 1.397 . S
C398 C397 1.394 . S
C399 H371 0.982 . S
C399 H375 0.979 . S
C399 H376 0.977 . S
C399 C396 1.453 . S
C400 H372 0.979 . S
C400 H373 0.980 . S
C400 H374 0.983 . S
C400 C396 1.684 . S
H401 C419 0.948 . S
H402 C360 0.948 . S
H403 C378 0.979 . S
H404 C378 0.980 1_545 S
H405 C378 0.983 . S
H406 C377 0.982 1_545 S
H407 C377 0.979 . S
H408 C377 0.977 1_545 S
H409 C379 0.948 . S
H410 C381 0.947 . S
H411 C382 0.948 . S
H412 C388 0.982 . S
H413 C388 0.979 . S
H414 C388 0.977 . S
H415 C389 0.979 . S
H416 C389 0.980 . S
H417 C389 0.983 . S
H418 C362 0.947 . S
C419 C362 1.392 . S
C419 C363 1.419 . S
C419 H401 0.948 . S
C420 C421 1.391 . S
C420 C424 1.391 . S
C420 H462 0.948 . S
C421 C420 1.391 . S
C421 C422 1.391 . S
C422 C421 1.391 . S
C422 H478 0.947 . S
C422 C479 1.392 . S
C423 C424 1.391 . S
C423 C427 1.397 . S
C423 C479 1.419 . S
C424 C420 1.391 . S
C424 C423 1.391 . S
C424 C425 1.399 . S
C425 C424 1.399 . S
C425 C428 1.396 . S
C425 C437 1.453 . S
C425 C438 1.684 . S
H426 C450 0.948 . S
C427 C423 1.397 . S
C427 C428 1.394 . S
C427 C446 1.723 . S
C428 C425 1.396 . S
C428 C427 1.394 . S
C428 C458 1.723 . S
H429 C452 0.947 . S
H430 C453 0.948 . S
H431 C459 0.982 . S
H432 C460 0.979 . S
H433 C460 0.980 . S
H434 C460 0.983 . S
H435 C459 0.979 . S
H436 C459 0.977 . S
C437 C425 1.453 . S
C437 H466 0.982 . S
C437 H467 0.979 . S
C437 H468 0.977 . S
C438 C425 1.684 . S
C438 H463 0.979 . S
C438 H464 0.980 . S
C438 H465 0.983 . S
C439 C440 1.391 . S
C439 C444 1.391 . S
C439 H469 0.948 . S
C440 C439 1.391 . S
C440 C441 1.391 . S
C441 C440 1.391 . S
C441 C442 1.392 . S
C441 H470 0.947 . S
C442 C441 1.392 . S
C442 C443 1.419 . S
C442 H471 0.948 . S
C443 C442 1.419 . S
C443 C444 1.391 . S
C443 C447 1.397 . S
C444 C439 1.391 . S
C444 C443 1.391 . S
C444 C445 1.399 . S
C445 C444 1.399 . S
C445 C446 1.396 . S
C445 C448 1.453 . S
C445 C449 1.684 . S
C446 C427 1.723 . S
C446 C445 1.396 . S
C446 C447 1.394 . S
C447 C443 1.397 . S
C447 C446 1.394 . S
C447 C457 1.723 . S
C448 C445 1.453 . S
C448 H472 0.982 . S
C448 H473 0.979 . S
C448 H474 0.977 . S
C449 C445 1.684 . S
C449 H475 0.979 . S
C449 H476 0.980 . S
C449 H477 0.983 . S
C450 H426 0.948 . S
C450 C451 1.391 . S
C450 C455 1.391 . S
C451 C450 1.391 . S
C451 C452 1.391 . S
C452 H429 0.947 . S
C452 C451 1.391 . S
C452 C453 1.392 . S
C453 H430 0.948 . S
C453 C452 1.392 . S
C453 C454 1.419 . S
C454 C453 1.419 . S
C454 C455 1.391 . S
C454 C458 1.397 . S
C455 C450 1.391 . S
C455 C454 1.391 . S
C455 C456 1.399 . S
C456 C455 1.399 . S
C456 C457 1.396 . S
C456 C459 1.453 . S
C456 C460 1.684 . S
C457 C447 1.723 . S
C457 C456 1.396 . S
C457 C458 1.394 . S
C458 C428 1.723 . S
C458 C454 1.397 . S
C458 C457 1.394 . S
C459 H431 0.982 . S
C459 H435 0.979 . S
C459 H436 0.977 . S
C459 C456 1.453 . S
C460 H432 0.979 . S
C460 H433 0.980 . S
C460 H434 0.983 . S
C460 C456 1.684 . S
H461 C479 0.948 . S
H462 C420 0.948 . S
H463 C438 0.979 . S
H464 C438 0.980 . S
H465 C438 0.983 . S
H466 C437 0.982 . S
H467 C437 0.979 . S
H468 C437 0.977 . S
H469 C439 0.948 . S
H470 C441 0.947 . S
H471 C442 0.948 . S
H472 C448 0.982 . S
H473 C448 0.979 . S
H474 C448 0.977 . S
H475 C449 0.979 . S
H476 C449 0.980 . S
H477 C449 0.983 . S
H478 C422 0.947 . S
C479 C422 1.392 . S
C479 C423 1.419 . S
C479 H461 0.948 . S
H480 C498 0.951 . S
H481 C500 0.951 . S
H482 C502 0.950 . S
H483 C503 0.950 . S
H484 C505 0.950 . S
H485 C508 0.950 . S
H486 C509 0.950 . S
H487 C511 0.950 . S
H488 C512 0.950 . S
H489 C513 0.951 . S
H490 C515 0.951 . S
H491 C517 0.950 . S
H492 C518 0.950 . S
H493 C520 0.950 . S
H494 C523 0.950 . S
H495 C524 0.950 . S
H496 C526 0.950 . S
H497 C527 0.950 . S
C498 H480 0.951 . S
C498 C499 1.366 . S
C498 C500 1.388 . S
C499 C498 1.366 . S
C499 C503 1.385 . S
C500 H481 0.951 . S
C500 C498 1.388 . S
C500 C501 1.366 . S
C501 C500 1.366 . S
C501 C502 1.414 . S
C501 C504 1.499 . S
C502 H482 0.950 . S
C502 C501 1.414 . S
C502 C503 1.374 . S
C503 H483 0.950 . S
C503 C499 1.385 . S
C503 C502 1.374 . S
C504 C501 1.499 . S
C504 C505 1.373 . S
C504 C506 1.389 . S
C505 H484 0.950 . S
C505 C504 1.373 . S
C505 C521 1.377 . S
C506 C504 1.389 . S
C506 C507 1.524 . S
C506 C520 1.377 . S
C507 C506 1.524 . S
C507 C508 1.397 . S
C507 C512 1.363 . S
C508 H485 0.950 . S
C508 C507 1.397 . S
C508 C509 1.334 . S
C509 H486 0.950 . S
C509 C508 1.334 . S
C509 C510 1.287 . S
C510 C509 1.287 . S
C510 C511 1.524 . S
C510 H529 0.913 . S
C511 H487 0.950 . S
C511 C510 1.524 . S
C511 C512 1.415 . S
C512 H488 0.950 . S
C512 C507 1.363 . S
C512 C511 1.415 . S
C513 H489 0.951 . S
C513 C514 1.366 . S
C513 C515 1.388 . S
C514 C513 1.366 . S
C514 C518 1.385 . S
C515 H490 0.951 . S
C515 C513 1.388 . S
C515 C516 1.366 . S
C516 C515 1.366 . S
C516 C517 1.414 . S
C516 C519 1.499 . S
C517 H491 0.950 . S
C517 C516 1.414 . S
C517 C518 1.374 . S
C518 H492 0.950 . S
C518 C514 1.385 . S
C518 C517 1.374 . S
C519 C516 1.499 . S
C519 C520 1.373 . S
C519 C521 1.389 . S
C520 H493 0.950 . S
C520 C506 1.377 . S
C520 C519 1.373 . S
C521 C505 1.377 . S
C521 C519 1.389 . S
C521 C522 1.524 . S
C522 C521 1.524 . S
C522 C523 1.397 . S
C522 C527 1.363 . S
C523 H494 0.950 . S
C523 C522 1.397 . S
C523 C524 1.334 . S
C524 H495 0.950 . S
C524 C523 1.334 . S
C524 C525 1.287 . S
C525 C524 1.287 . S
C525 C526 1.524 . S
C525 H528 0.999 . S
C526 H496 0.950 . S
C526 C525 1.524 . S
C526 C527 1.415 . S
C527 H497 0.950 . S
C527 C522 1.363 . S
C527 C526 1.415 . S
H528 C525 0.999 . S
H529 C510 0.913 . S
H530 C548 0.951 . S
H531 C550 0.951 . S
H532 C552 0.950 . S
H533 C553 0.950 . S
H534 C555 0.950 . S
H535 C558 0.950 . S
H536 C559 0.950 . S
H537 C561 0.950 . S
H538 C562 0.950 . S
H539 C563 0.951 . S
H540 C565 0.951 . S
H541 C567 0.950 . S
H542 C568 0.950 . S
H543 C570 0.950 . S
H544 C573 0.950 . S
H545 C574 0.950 . S
H546 C576 0.950 . S
H547 C577 0.950 . S
C548 H530 0.951 . S
C548 C549 1.366 . S
C548 C550 1.388 . S
C549 C548 1.366 . S
C549 C553 1.385 . S
C550 H531 0.951 . S
C550 C548 1.388 . S
C550 C551 1.366 . S
C551 C550 1.366 . S
C551 C552 1.414 . S
C551 C554 1.499 . S
C552 H532 0.950 . S
C552 C551 1.414 . S
C552 C553 1.374 . S
C553 H533 0.950 . S
C553 C549 1.385 . S
C553 C552 1.374 . S
C554 C551 1.499 . S
C554 C555 1.373 . S
C554 C556 1.389 . S
C555 H534 0.950 . S
C555 C554 1.373 . S
C555 C571 1.377 . S
C556 C554 1.389 . S
C556 C557 1.524 . S
C556 C570 1.377 . S
C557 C556 1.524 . S
C557 C558 1.397 . S
C557 C562 1.363 . S
C558 H535 0.950 . S
C558 C557 1.397 . S
C558 C559 1.334 . S
C559 H536 0.950 . S
C559 C558 1.334 . S
C559 C560 1.287 . S
C560 C559 1.287 . S
C560 C561 1.524 . S
C560 H579 0.913 . S
C561 H537 0.950 . S
C561 C560 1.524 . S
C561 C562 1.415 . S
C562 H538 0.950 . S
C562 C557 1.363 . S
C562 C561 1.415 . S
C563 H539 0.951 . S
C563 C564 1.366 . S
C563 C565 1.388 . S
C564 C563 1.366 . S
C564 C568 1.385 . S
C565 H540 0.951 . S
C565 C563 1.388 . S
C565 C566 1.366 . S
C566 C565 1.366 . S
C566 C567 1.414 . S
C566 C569 1.499 . S
C567 H541 0.950 . S
C567 C566 1.414 . S
C567 C568 1.374 . S
C568 H542 0.950 . S
C568 C564 1.385 . S
C568 C567 1.374 . S
C569 C566 1.499 . S
C569 C570 1.373 . S
C569 C571 1.389 . S
C570 H543 0.950 . S
C570 C556 1.377 . S
C570 C569 1.373 . S
C571 C555 1.377 . S
C571 C569 1.389 . S
C571 C572 1.524 . S
C572 C571 1.524 . S
C572 C573 1.397 . S
C572 C577 1.363 . S
C573 H544 0.950 . S
C573 C572 1.397 . S
C573 C574 1.334 . S
C574 H545 0.950 . S
C574 C573 1.334 . S
C574 C575 1.287 . S
C575 C574 1.287 . S
C575 C576 1.524 . S
C575 H578 0.999 . S
C576 H546 0.950 . S
C576 C575 1.524 . S
C576 C577 1.415 . S
C577 H547 0.950 . S
C577 C572 1.363 . S
C577 C576 1.415 . S
H578 C575 0.999 . S
H579 C560 0.913 . S
H580 C598 0.951 . S
H581 C600 0.951 . S
H582 C602 0.950 . S
H583 C603 0.950 . S
H584 C605 0.950 . S
H585 C608 0.950 . S
H586 C609 0.950 . S
H587 C611 0.950 . S
H588 C612 0.950 . S
H589 C613 0.951 . S
H590 C615 0.951 . S
H591 C617 0.950 . S
H592 C618 0.950 . S
H593 C620 0.950 . S
H594 C623 0.950 . S
H595 C624 0.950 . S
H596 C626 0.950 . S
H597 C627 0.950 . S
C598 H580 0.951 . S
C598 C599 1.366 . S
C598 C600 1.388 . S
C599 C598 1.366 . S
C599 C603 1.385 . S
C600 H581 0.951 . S
C600 C598 1.388 . S
C600 C601 1.366 . S
C601 C600 1.366 . S
C601 C602 1.414 . S
C601 C604 1.499 . S
C602 H582 0.950 . S
C602 C601 1.414 . S
C602 C603 1.374 . S
C603 H583 0.950 . S
C603 C599 1.385 . S
C603 C602 1.374 . S
C604 C601 1.499 . S
C604 C605 1.373 . S
C604 C606 1.389 . S
C605 H584 0.950 . S
C605 C604 1.373 . S
C605 C621 1.377 . S
C606 C604 1.389 . S
C606 C607 1.524 . S
C606 C620 1.377 . S
C607 C606 1.524 . S
C607 C608 1.397 . S
C607 C612 1.363 . S
C608 H585 0.950 . S
C608 C607 1.397 . S
C608 C609 1.334 . S
C609 H586 0.950 . S
C609 C608 1.334 . S
C609 C610 1.287 . S
C610 C609 1.287 . S
C610 C611 1.524 . S
C610 H629 0.913 . S
C611 H587 0.950 . S
C611 C610 1.524 . S
C611 C612 1.415 . S
C612 H588 0.950 . S
C612 C607 1.363 . S
C612 C611 1.415 . S
C613 H589 0.951 . S
C613 C614 1.366 . S
C613 C615 1.388 . S
C614 C613 1.366 . S
C614 C618 1.385 . S
C615 H590 0.951 . S
C615 C613 1.388 . S
C615 C616 1.366 . S
C616 C615 1.366 . S
C616 C617 1.414 . S
C616 C619 1.499 . S
C617 H591 0.950 . S
C617 C616 1.414 . S
C617 C618 1.374 . S
C618 H592 0.950 . S
C618 C614 1.385 . S
C618 C617 1.374 . S
C619 C616 1.499 . S
C619 C620 1.373 . S
C619 C621 1.389 . S
C620 H593 0.950 . S
C620 C606 1.377 . S
C620 C619 1.373 . S
C621 C605 1.377 . S
C621 C619 1.389 . S
C621 C622 1.524 . S
C622 C621 1.524 . S
C622 C623 1.397 . S
C622 C627 1.363 . S
C623 H594 0.950 . S
C623 C622 1.397 . S
C623 C624 1.334 . S
C624 H595 0.950 . S
C624 C623 1.334 . S
C624 C625 1.287 . S
C625 C624 1.287 . S
C625 C626 1.524 . S
C625 H628 0.999 . S
C626 H596 0.950 . S
C626 C625 1.524 . S
C626 C627 1.415 . S
C627 H597 0.950 . S
C627 C622 1.363 . S
C627 C626 1.415 . S
H628 C625 0.999 . S
H629 C610 0.913 . S
H630 C648 0.951 . S
H631 C650 0.951 . S
H632 C652 0.950 . S
H633 C653 0.950 . S
H634 C655 0.950 . S
H635 C658 0.950 . S
H636 C659 0.950 . S
H637 C661 0.950 . S
H638 C662 0.950 . S
H639 C663 0.951 . S
H640 C665 0.951 . S
H641 C667 0.950 . S
H642 C668 0.950 . S
H643 C670 0.950 . S
H644 C673 0.950 . S
H645 C674 0.950 . S
H646 C676 0.950 . S
H647 C677 0.950 . S
C648 H630 0.951 . S
C648 C649 1.366 . S
C648 C650 1.388 . S
C649 C648 1.366 . S
C649 C653 1.385 . S
C650 H631 0.951 . S
C650 C648 1.388 . S
C650 C651 1.366 . S
C651 C650 1.366 . S
C651 C652 1.414 . S
C651 C654 1.499 . S
C652 H632 0.950 . S
C652 C651 1.414 . S
C652 C653 1.374 . S
C653 H633 0.950 . S
C653 C649 1.385 . S
C653 C652 1.374 . S
C654 C651 1.499 . S
C654 C655 1.373 . S
C654 C656 1.389 . S
C655 H634 0.950 . S
C655 C654 1.373 . S
C655 C671 1.377 . S
C656 C654 1.389 . S
C656 C657 1.524 . S
C656 C670 1.377 . S
C657 C656 1.524 . S
C657 C658 1.397 . S
C657 C662 1.363 . S
C658 H635 0.950 . S
C658 C657 1.397 . S
C658 C659 1.334 . S
C659 H636 0.950 . S
C659 C658 1.334 . S
C659 C660 1.287 . S
C660 C659 1.287 . S
C660 C661 1.524 . S
C660 H679 0.913 . S
C661 H637 0.950 . S
C661 C660 1.524 . S
C661 C662 1.415 . S
C662 H638 0.950 . S
C662 C657 1.363 . S
C662 C661 1.415 . S
C663 H639 0.951 . S
C663 C664 1.366 . S
C663 C665 1.388 . S
C664 C663 1.366 . S
C664 C668 1.385 . S
C665 H640 0.951 . S
C665 C663 1.388 . S
C665 C666 1.366 . S
C666 C665 1.366 . S
C666 C667 1.414 . S
C666 C669 1.499 . S
C667 H641 0.950 . S
C667 C666 1.414 . S
C667 C668 1.374 . S
C668 H642 0.950 . S
C668 C664 1.385 . S
C668 C667 1.374 . S
C669 C666 1.499 . S
C669 C670 1.373 . S
C669 C671 1.389 . S
C670 H643 0.950 . S
C670 C656 1.377 . S
C670 C669 1.373 . S
C671 C655 1.377 . S
C671 C669 1.389 . S
C671 C672 1.524 . S
C672 C671 1.524 . S
C672 C673 1.397 . S
C672 C677 1.363 . S
C673 H644 0.950 . S
C673 C672 1.397 . S
C673 C674 1.334 . S
C674 H645 0.950 . S
C674 C673 1.334 . S
C674 C675 1.287 . S
C675 C674 1.287 . S
C675 C676 1.524 . S
C675 H678 0.999 . S
C676 H646 0.950 . S
C676 C675 1.524 . S
C676 C677 1.415 . S
C677 H647 0.950 . S
C677 C672 1.363 . S
C677 C676 1.415 . S
H678 C675 0.999 . S
H679 C660 0.913 . S
H680 C698 0.951 . S
H681 C700 0.951 . S
H682 C702 0.950 . S
H683 C703 0.950 . S
H684 C705 0.950 . S
H685 C708 0.950 . S
H686 C709 0.950 . S
H687 C711 0.950 . S
H688 C712 0.950 . S
H689 C713 0.951 . S
H690 C715 0.951 . S
H691 C717 0.950 . S
H692 C718 0.950 . S
H693 C720 0.950 . S
H694 C723 0.950 . S
H695 C724 0.950 . S
H696 C726 0.950 . S
H697 C727 0.950 . S
C698 H680 0.951 . S
C698 C699 1.366 . S
C698 C700 1.388 . S
C699 C698 1.366 . S
C699 C703 1.385 . S
C700 H681 0.951 . S
C700 C698 1.388 . S
C700 C701 1.366 . S
C701 C700 1.366 . S
C701 C702 1.414 . S
C701 C704 1.499 . S
C702 H682 0.950 . S
C702 C701 1.414 . S
C702 C703 1.374 . S
C703 H683 0.950 . S
C703 C699 1.385 . S
C703 C702 1.374 . S
C704 C701 1.499 . S
C704 C705 1.373 . S
C704 C706 1.389 . S
C705 H684 0.950 . S
C705 C704 1.373 . S
C705 C721 1.377 . S
C706 C704 1.389 . S
C706 C707 1.524 . S
C706 C720 1.377 . S
C707 C706 1.524 . S
C707 C708 1.397 . S
C707 C712 1.363 . S
C708 H685 0.950 . S
C708 C707 1.397 . S
C708 C709 1.334 . S
C709 H686 0.950 . S
C709 C708 1.334 . S
C709 C710 1.287 . S
C710 C709 1.287 . S
C710 C711 1.524 . S
C710 H729 0.913 . S
C711 H687 0.950 . S
C711 C710 1.524 . S
C711 C712 1.415 . S
C712 H688 0.950 . S
C712 C707 1.363 . S
C712 C711 1.415 . S
C713 H689 0.951 . S
C713 C714 1.366 . S
C713 C715 1.388 . S
C714 C713 1.366 . S
C714 C718 1.385 . S
C715 H690 0.951 . S
C715 C713 1.388 . S
C715 C716 1.366 . S
C716 C715 1.366 . S
C716 C717 1.414 . S
C716 C719 1.499 . S
C717 H691 0.950 . S
C717 C716 1.414 . S
C717 C718 1.374 . S
C718 H692 0.950 . S
C718 C714 1.385 . S
C718 C717 1.374 . S
C719 C716 1.499 . S
C719 C720 1.373 . S
C719 C721 1.389 . S
C720 H693 0.950 . S
C720 C706 1.377 . S
C720 C719 1.373 . S
C721 C705 1.377 . S
C721 C719 1.389 . S
C721 C722 1.524 . S
C722 C721 1.524 . S
C722 C723 1.397 . S
C722 C727 1.363 . S
C723 H694 0.950 . S
C723 C722 1.397 . S
C723 C724 1.334 . S
C724 H695 0.950 . S
C724 C723 1.334 . S
C724 C725 1.287 . S
C725 C724 1.287 . S
C725 C726 1.524 . S
C725 H728 0.999 . S
C726 H696 0.950 . S
C726 C725 1.524 . S
C726 C727 1.415 . S
C727 H697 0.950 . S
C727 C722 1.363 . S
C727 C726 1.415 . S
H728 C725 0.999 . S
H729 C710 0.913 . S
H730 C748 0.951 . S
H731 C750 0.951 . S
H732 C752 0.950 . S
H733 C753 0.950 . S
H734 C755 0.950 . S
H735 C758 0.950 . S
H736 C759 0.950 . S
H737 C761 0.950 . S
H738 C762 0.950 . S
H739 C763 0.951 . S
H740 C765 0.951 . S
H741 C767 0.950 . S
H742 C768 0.950 . S
H743 C770 0.950 . S
H744 C773 0.950 . S
H745 C774 0.950 . S
H746 C776 0.950 . S
H747 C777 0.950 . S
C748 H730 0.951 . S
C748 C749 1.366 . S
C748 C750 1.388 . S
C749 C748 1.366 . S
C749 C753 1.385 . S
C750 H731 0.951 . S
C750 C748 1.388 . S
C750 C751 1.366 . S
C751 C750 1.366 . S
C751 C752 1.414 . S
C751 C754 1.499 . S
C752 H732 0.950 . S
C752 C751 1.414 . S
C752 C753 1.374 . S
C753 H733 0.950 . S
C753 C749 1.385 . S
C753 C752 1.374 . S
C754 C751 1.499 . S
C754 C755 1.373 . S
C754 C756 1.389 . S
C755 H734 0.950 . S
C755 C754 1.373 . S
C755 C771 1.377 . S
C756 C754 1.389 . S
C756 C757 1.524 . S
C756 C770 1.377 . S
C757 C756 1.524 . S
C757 C758 1.397 . S
C757 C762 1.363 . S
C758 H735 0.950 . S
C758 C757 1.397 . S
C758 C759 1.334 . S
C759 H736 0.950 . S
C759 C758 1.334 . S
C759 C760 1.287 . S
C760 C759 1.287 . S
C760 C761 1.524 . S
C760 H779 0.913 . S
C761 H737 0.950 . S
C761 C760 1.524 . S
C761 C762 1.415 . S
C762 H738 0.950 . S
C762 C757 1.363 . S
C762 C761 1.415 . S
C763 H739 0.951 . S
C763 C764 1.366 . S
C763 C765 1.388 . S
C764 C763 1.366 . S
C764 C768 1.385 . S
C765 H740 0.951 . S
C765 C763 1.388 . S
C765 C766 1.366 . S
C766 C765 1.366 . S
C766 C767 1.414 . S
C766 C769 1.499 . S
C767 H741 0.950 . S
C767 C766 1.414 . S
C767 C768 1.374 . S
C768 H742 0.950 . S
C768 C764 1.385 . S
C768 C767 1.374 . S
C769 C766 1.499 . S
C769 C770 1.373 . S
C769 C771 1.389 . S
C770 H743 0.950 . S
C770 C756 1.377 . S
C770 C769 1.373 . S
C771 C755 1.377 . S
C771 C769 1.389 . S
C771 C772 1.524 . S
C772 C771 1.524 . S
C772 C773 1.397 . S
C772 C777 1.363 . S
C773 H744 0.950 . S
C773 C772 1.397 . S
C773 C774 1.334 . S
C774 H745 0.950 . S
C774 C773 1.334 . S
C774 C775 1.287 . S
C775 C774 1.287 . S
C775 C776 1.524 . S
C775 H778 0.999 . S
C776 H746 0.950 . S
C776 C775 1.524 . S
C776 C777 1.415 . S
C777 H747 0.950 . S
C777 C772 1.363 . S
C777 C776 1.415 . S
H778 C775 0.999 . S
H779 C760 0.913 . S
H780 C798 0.951 . S
H781 C800 0.951 . S
H782 C802 0.950 . S
H783 C803 0.950 . S
H784 C805 0.950 . S
H785 C808 0.950 . S
H786 C809 0.950 . S
H787 C811 0.950 . S
H788 C812 0.950 . S
H789 C813 0.951 . S
H790 C815 0.951 . S
H791 C817 0.950 . S
H792 C818 0.950 . S
H793 C820 0.950 . S
H794 C823 0.950 . S
H795 C824 0.950 . S
H796 C826 0.950 . S
H797 C827 0.950 . S
C798 H780 0.951 . S
C798 C799 1.366 . S
C798 C800 1.388 . S
C799 C798 1.366 . S
C799 C803 1.385 . S
C800 H781 0.951 . S
C800 C798 1.388 . S
C800 C801 1.366 . S
C801 C800 1.366 . S
C801 C802 1.414 . S
C801 C804 1.499 . S
C802 H782 0.950 . S
C802 C801 1.414 . S
C802 C803 1.374 . S
C803 H783 0.950 . S
C803 C799 1.385 . S
C803 C802 1.374 . S
C804 C801 1.499 . S
C804 C805 1.373 . S
C804 C806 1.389 . S
C805 H784 0.950 . S
C805 C804 1.373 . S
C805 C821 1.377 . S
C806 C804 1.389 . S
C806 C807 1.524 . S
C806 C820 1.377 . S
C807 C806 1.524 . S
C807 C808 1.397 . S
C807 C812 1.363 . S
C808 H785 0.950 . S
C808 C807 1.397 . S
C808 C809 1.334 . S
C809 H786 0.950 . S
C809 C808 1.334 . S
C809 C810 1.287 . S
C810 C809 1.287 . S
C810 C811 1.524 . S
C810 H829 0.913 . S
C811 H787 0.950 . S
C811 C810 1.524 . S
C811 C812 1.415 . S
C812 H788 0.950 . S
C812 C807 1.363 . S
C812 C811 1.415 . S
C813 H789 0.951 . S
C813 C814 1.366 . S
C813 C815 1.388 . S
C814 C813 1.366 . S
C814 C818 1.385 . S
C815 H790 0.951 . S
C815 C813 1.388 . S
C815 C816 1.366 . S
C816 C815 1.366 . S
C816 C817 1.414 . S
C816 C819 1.499 . S
C817 H791 0.950 . S
C817 C816 1.414 . S
C817 C818 1.374 . S
C818 H792 0.950 . S
C818 C814 1.385 . S
C818 C817 1.374 . S
C819 C816 1.499 . S
C819 C820 1.373 . S
C819 C821 1.389 . S
C820 H793 0.950 . S
C820 C806 1.377 . S
C820 C819 1.373 . S
C821 C805 1.377 . S
C821 C819 1.389 . S
C821 C822 1.524 . S
C822 C821 1.524 . S
C822 C823 1.397 . S
C822 C827 1.363 . S
C823 H794 0.950 . S
C823 C822 1.397 . S
C823 C824 1.334 . S
C824 H795 0.950 . S
C824 C823 1.334 . S
C824 C825 1.287 . S
C825 C824 1.287 . S
C825 C826 1.524 . S
C825 H828 0.999 . S
C826 H796 0.950 . S
C826 C825 1.524 . S
C826 C827 1.415 . S
C827 H797 0.950 . S
C827 C822 1.363 . S
C827 C826 1.415 . S
H828 C825 0.999 . S
H829 C810 0.913 . S
H830 C848 0.951 . S
H831 C850 0.951 . S
H832 C852 0.950 . S
H833 C853 0.950 . S
H834 C855 0.950 . S
H835 C858 0.950 . S
H836 C859 0.950 . S
H837 C861 0.950 . S
H838 C862 0.950 . S
H839 C863 0.951 . S
H840 C865 0.951 . S
H841 C867 0.950 . S
H842 C868 0.950 . S
H843 C870 0.950 . S
H844 C873 0.950 . S
H845 C874 0.950 . S
H846 C876 0.950 . S
H847 C877 0.950 . S
C848 H830 0.951 . S
C848 C849 1.366 . S
C848 C850 1.388 . S
C849 C848 1.366 . S
C849 C853 1.385 . S
C850 H831 0.951 . S
C850 C848 1.388 . S
C850 C851 1.366 . S
C851 C850 1.366 . S
C851 C852 1.414 . S
C851 C854 1.499 . S
C852 H832 0.950 . S
C852 C851 1.414 . S
C852 C853 1.374 . S
C853 H833 0.950 . S
C853 C849 1.385 . S
C853 C852 1.374 . S
C854 C851 1.499 . S
C854 C855 1.373 . S
C854 C856 1.389 . S
C855 H834 0.950 . S
C855 C854 1.373 . S
C855 C871 1.377 . S
C856 C854 1.389 . S
C856 C857 1.524 . S
C856 C870 1.377 . S
C857 C856 1.524 . S
C857 C858 1.397 . S
C857 C862 1.363 . S
C858 H835 0.950 . S
C858 C857 1.397 . S
C858 C859 1.334 . S
C859 H836 0.950 . S
C859 C858 1.334 . S
C859 C860 1.287 . S
C860 C859 1.287 . S
C860 C861 1.524 . S
C860 H879 0.913 . S
C861 H837 0.950 . S
C861 C860 1.524 . S
C861 C862 1.415 . S
C862 H838 0.950 . S
C862 C857 1.363 . S
C862 C861 1.415 . S
C863 H839 0.951 . S
C863 C864 1.366 . S
C863 C865 1.388 . S
C864 C863 1.366 . S
C864 C868 1.385 . S
C865 H840 0.951 . S
C865 C863 1.388 . S
C865 C866 1.366 . S
C866 C865 1.366 . S
C866 C867 1.414 . S
C866 C869 1.499 . S
C867 H841 0.950 . S
C867 C866 1.414 . S
C867 C868 1.374 . S
C868 H842 0.950 . S
C868 C864 1.385 . S
C868 C867 1.374 . S
C869 C866 1.499 . S
C869 C870 1.373 . S
C869 C871 1.389 . S
C870 H843 0.950 . S
C870 C856 1.377 . S
C870 C869 1.373 . S
C871 C855 1.377 . S
C871 C869 1.389 . S
C871 C872 1.524 . S
C872 C871 1.524 . S
C872 C873 1.397 . S
C872 C877 1.363 . S
C873 H844 0.950 . S
C873 C872 1.397 . S
C873 C874 1.334 . S
C874 H845 0.950 . S
C874 C873 1.334 . S
C874 C875 1.287 . S
C875 C874 1.287 . S
C875 C876 1.524 . S
C875 H878 0.999 . S
C876 H846 0.950 . S
C876 C875 1.524 . S
C876 C877 1.415 . S
C877 H847 0.950 . S
C877 C872 1.363 . S
C877 C876 1.415 . S
H878 C875 0.999 . S
H879 C860 0.913 . S
H880 C898 0.951 . S
H881 C900 0.951 . S
H882 C902 0.950 . S
H883 C903 0.950 . S
H884 C905 0.950 . S
H885 C908 0.950 . S
H886 C909 0.950 . S
H887 C911 0.950 . S
H888 C912 0.950 . S
H889 C913 0.951 . S
H890 C915 0.951 . S
H891 C917 0.950 . S
H892 C918 0.950 . S
H893 C920 0.950 . S
H894 C923 0.950 . S
H895 C924 0.950 . S
H896 C926 0.950 . S
H897 C927 0.950 . S
C898 H880 0.951 . S
C898 C899 1.366 . S
C898 C900 1.388 . S
C899 C898 1.366 . S
C899 C903 1.385 . S
C900 H881 0.951 . S
C900 C898 1.388 . S
C900 C901 1.366 . S
C901 C900 1.366 . S
C901 C902 1.414 . S
C901 C904 1.499 . S
C902 H882 0.950 . S
C902 C901 1.414 . S
C902 C903 1.374 . S
C903 H883 0.950 . S
C903 C899 1.385 . S
C903 C902 1.374 . S
C904 C901 1.499 . S
C904 C905 1.373 . S
C904 C906 1.389 . S
C905 H884 0.950 . S
C905 C904 1.373 . S
C905 C921 1.377 . S
C906 C904 1.389 . S
C906 C907 1.524 . S
C906 C920 1.377 . S
C907 C906 1.524 . S
C907 C908 1.397 . S
C907 C912 1.363 . S
C908 H885 0.950 . S
C908 C907 1.397 . S
C908 C909 1.334 . S
C909 H886 0.950 . S
C909 C908 1.334 . S
C909 C910 1.287 . S
C910 C909 1.287 . S
C910 C911 1.524 . S
C910 H929 0.913 . S
C911 H887 0.950 . S
C911 C910 1.524 . S
C911 C912 1.415 . S
C912 H888 0.950 . S
C912 C907 1.363 . S
C912 C911 1.415 . S
C913 H889 0.951 . S
C913 C914 1.366 . S
C913 C915 1.388 . S
C914 C913 1.366 . S
C914 C918 1.385 . S
C915 H890 0.951 . S
C915 C913 1.388 . S
C915 C916 1.366 . S
C916 C915 1.366 . S
C916 C917 1.414 . S
C916 C919 1.499 . S
C917 H891 0.950 . S
C917 C916 1.414 . S
C917 C918 1.374 . S
C918 H892 0.950 . S
C918 C914 1.385 . S
C918 C917 1.374 . S
C919 C916 1.499 . S
C919 C920 1.373 . S
C919 C921 1.389 . S
C920 H893 0.950 . S
C920 C906 1.377 . S
C920 C919 1.373 . S
C921 C905 1.377 . S
C921 C919 1.389 . S
C921 C922 1.524 . S
C922 C921 1.524 . S
C922 C923 1.397 . S
C922 C927 1.363 . S
C923 H894 0.950 . S
C923 C922 1.397 . S
C923 C924 1.334 . S
C924 H895 0.950 . S
C924 C923 1.334 . S
C924 C925 1.287 . S
C925 C924 1.287 . S
C925 C926 1.524 . S
C925 H928 0.999 . S
C926 H896 0.950 . S
C926 C925 1.524 . S
C926 C927 1.415 . S
C927 H897 0.950 . S
C927 C922 1.363 . S
C927 C926 1.415 . S
H928 C925 0.999 . S
H929 C910 0.913 . S
H930 C948 0.951 . S
H931 C950 0.951 . S
H932 C952 0.950 . S
H933 C953 0.950 . S
H934 C955 0.950 . S
H935 C958 0.950 . S
H936 C959 0.950 . S
H937 C961 0.950 . S
H938 C962 0.950 . S
H939 C963 0.951 . S
H940 C965 0.951 . S
H941 C967 0.950 . S
H942 C968 0.950 . S
H943 C970 0.950 . S
H944 C973 0.950 . S
H945 C974 0.950 . S
H946 C976 0.950 . S
H947 C977 0.950 . S
C948 H930 0.951 . S
C948 C949 1.366 . S
C948 C950 1.388 . S
C949 C948 1.366 . S
C949 C953 1.385 . S
C950 H931 0.951 . S
C950 C948 1.388 . S
C950 C951 1.366 . S
C951 C950 1.366 . S
C951 C952 1.414 . S
C951 C954 1.499 . S
C952 H932 0.950 . S
C952 C951 1.414 . S
C952 C953 1.374 . S
C953 H933 0.950 . S
C953 C949 1.385 . S
C953 C952 1.374 . S
C954 C951 1.499 . S
C954 C955 1.373 . S
C954 C956 1.389 . S
C955 H934 0.950 . S
C955 C954 1.373 . S
C955 C971 1.377 . S
C956 C954 1.389 . S
C956 C957 1.524 . S
C956 C970 1.377 . S
C957 C956 1.524 . S
C957 C958 1.397 . S
C957 C962 1.363 . S
C958 H935 0.950 . S
C958 C957 1.397 . S
C958 C959 1.334 . S
C959 H936 0.950 . S
C959 C958 1.334 . S
C959 C960 1.287 . S
C960 C959 1.287 . S
C960 C961 1.524 . S
C960 H979 0.913 . S
C961 H937 0.950 . S
C961 C960 1.524 . S
C961 C962 1.415 . S
C962 H938 0.950 . S
C962 C957 1.363 . S
C962 C961 1.415 . S
C963 H939 0.951 . S
C963 C964 1.366 . S
C963 C965 1.388 . S
C964 C963 1.366 . S
C964 C968 1.385 . S
C965 H940 0.951 . S
C965 C963 1.388 . S
C965 C966 1.366 . S
C966 C965 1.366 . S
C966 C967 1.414 . S
C966 C969 1.499 . S
C967 H941 0.950 . S
C967 C966 1.414 . S
C967 C968 1.374 . S
C968 H942 0.950 . S
C968 C964 1.385 . S
C968 C967 1.374 . S
C969 C966 1.499 . S
C969 C970 1.373 . S
C969 C971 1.389 . S
C970 H943 0.950 . S
C970 C956 1.377 . S
C970 C969 1.373 . S
C971 C955 1.377 . S
C971 C969 1.389 . S
C971 C972 1.524 . S
C972 C971 1.524 . S
C972 C973 1.397 . S
C972 C977 1.363 . S
C973 H944 0.950 . S
C973 C972 1.397 . S
C973 C974 1.334 . S
C974 H945 0.950 . S
C974 C973 1.334 . S
C974 C975 1.287 . S
C975 C974 1.287 . S
C975 C976 1.524 . S
C975 H978 0.999 . S
C976 H946 0.950 . S
C976 C975 1.524 . S
C976 C977 1.415 . S
C977 H947 0.950 . S
C977 C972 1.363 . S
C977 C976 1.415 . S
H978 C975 0.999 . S
H979 C960 0.913 . S
H980 C998 0.951 . S
H981 C1000 0.951 . S
H982 C1002 0.950 . S
H983 C1003 0.950 . S
H984 C1005 0.950 . S
H985 C1008 0.950 . S
H986 C1009 0.950 . S
H987 C1011 0.950 . S
H988 C1012 0.950 . S
H989 C1013 0.951 . S
H990 C1015 0.951 . S
H991 C1017 0.950 . S
H992 C1018 0.950 . S
H993 C1020 0.950 . S
H994 C1023 0.950 . S
H995 C1024 0.950 . S
H996 C1026 0.950 . S
H997 C1027 0.950 . S
C998 H980 0.951 . S
C998 C999 1.366 . S
C998 C1000 1.388 . S
C999 C998 1.366 . S
C999 C1003 1.385 . S
C1000 H981 0.951 . S
C1000 C998 1.388 . S
C1000 C1001 1.366 . S
C1001 C1000 1.366 . S
C1001 C1002 1.414 . S
C1001 C1004 1.499 . S
C1002 H982 0.950 . S
C1002 C1001 1.414 . S
C1002 C1003 1.374 . S
C1003 H983 0.950 . S
C1003 C999 1.385 . S
C1003 C1002 1.374 . S
C1004 C1001 1.499 . S
C1004 C1005 1.373 . S
C1004 C1006 1.389 . S
C1005 H984 0.950 . S
C1005 C1004 1.373 . S
C1005 C1021 1.377 . S
C1006 C1004 1.389 . S
C1006 C1007 1.524 . S
C1006 C1020 1.377 . S
C1007 C1006 1.524 . S
C1007 C1008 1.397 . S
C1007 C1012 1.363 . S
C1008 H985 0.950 . S
C1008 C1007 1.397 . S
C1008 C1009 1.334 . S
C1009 H986 0.950 . S
C1009 C1008 1.334 . S
C1009 C1010 1.287 . S
C1010 C1009 1.287 . S
C1010 C1011 1.524 . S
C1010 H1029 0.913 . S
C1011 H987 0.950 . S
C1011 C1010 1.524 . S
C1011 C1012 1.415 . S
C1012 H988 0.950 . S
C1012 C1007 1.363 . S
C1012 C1011 1.415 . S
C1013 H989 0.951 . S
C1013 C1014 1.366 . S
C1013 C1015 1.388 . S
C1014 C1013 1.366 . S
C1014 C1018 1.385 . S
C1015 H990 0.951 . S
C1015 C1013 1.388 . S
C1015 C1016 1.366 . S
C1016 C1015 1.366 . S
C1016 C1017 1.414 . S
C1016 C1019 1.499 . S
C1017 H991 0.950 . S
C1017 C1016 1.414 . S
C1017 C1018 1.374 . S
C1018 H992 0.950 . S
C1018 C1014 1.385 . S
C1018 C1017 1.374 . S
C1019 C1016 1.499 . S
C1019 C1020 1.373 . S
C1019 C1021 1.389 . S
C1020 H993 0.950 . S
C1020 C1006 1.377 . S
C1020 C1019 1.373 . S
C1021 C1005 1.377 . S
C1021 C1019 1.389 . S
C1021 C1022 1.524 . S
C1022 C1021 1.524 . S
C1022 C1023 1.397 . S
C1022 C1027 1.363 . S
C1023 H994 0.950 . S
C1023 C1022 1.397 . S
C1023 C1024 1.334 . S
C1024 H995 0.950 . S
C1024 C1023 1.334 . S
C1024 C1025 1.287 . S
C1025 C1024 1.287 . S
C1025 C1026 1.524 . S
C1025 H1028 0.999 . S
C1026 H996 0.950 . S
C1026 C1025 1.524 . S
C1026 C1027 1.415 . S
C1027 H997 0.950 . S
C1027 C1022 1.363 . S
C1027 C1026 1.415 . S
H1028 C1025 0.999 . S
H1029 C1010 0.913 . S
H1030 C1048 0.951 . S
H1031 C1050 0.951 . S
H1032 C1052 0.950 . S
H1033 C1053 0.950 . S
H1034 C1055 0.950 . S
H1035 C1058 0.950 . S
H1036 C1059 0.950 . S
H1037 C1061 0.950 . S
H1038 C1062 0.950 . S
H1039 C1063 0.951 . S
H1040 C1065 0.951 . S
H1041 C1067 0.950 . S
H1042 C1068 0.950 . S
H1043 C1070 0.950 . S
H1044 C1073 0.950 . S
H1045 C1074 0.950 . S
H1046 C1076 0.950 . S
H1047 C1077 0.950 . S
C1048 H1030 0.951 . S
C1048 C1049 1.366 . S
C1048 C1050 1.388 . S
C1049 C1048 1.366 . S
C1049 C1053 1.385 . S
C1050 H1031 0.951 . S
C1050 C1048 1.388 . S
C1050 C1051 1.366 . S
C1051 C1050 1.366 . S
C1051 C1052 1.414 . S
C1051 C1054 1.499 . S
C1052 H1032 0.950 . S
C1052 C1051 1.414 . S
C1052 C1053 1.374 . S
C1053 H1033 0.950 . S
C1053 C1049 1.385 . S
C1053 C1052 1.374 . S
C1054 C1051 1.499 . S
C1054 C1055 1.373 . S
C1054 C1056 1.389 . S
C1055 H1034 0.950 . S
C1055 C1054 1.373 . S
C1055 C1071 1.377 . S
C1056 C1054 1.389 . S
C1056 C1057 1.524 . S
C1056 C1070 1.377 . S
C1057 C1056 1.524 . S
C1057 C1058 1.397 . S
C1057 C1062 1.363 . S
C1058 H1035 0.950 . S
C1058 C1057 1.397 . S
C1058 C1059 1.334 . S
C1059 H1036 0.950 . S
C1059 C1058 1.334 . S
C1059 C1060 1.287 . S
C1060 C1059 1.287 . S
C1060 C1061 1.524 . S
C1060 H1079 0.913 . S
C1061 H1037 0.950 . S
C1061 C1060 1.524 . S
C1061 C1062 1.415 . S
C1062 H1038 0.950 . S
C1062 C1057 1.363 . S
C1062 C1061 1.415 . S
C1063 H1039 0.951 . S
C1063 C1064 1.366 . S
C1063 C1065 1.388 . S
C1064 C1063 1.366 . S
C1064 C1068 1.385 . S
C1065 H1040 0.951 . S
C1065 C1063 1.388 . S
C1065 C1066 1.366 . S
C1066 C1065 1.366 . S
C1066 C1067 1.414 . S
C1066 C1069 1.499 . S
C1067 H1041 0.950 . S
C1067 C1066 1.414 . S
C1067 C1068 1.374 . S
C1068 H1042 0.950 . S
C1068 C1064 1.385 . S
C1068 C1067 1.374 . S
C1069 C1066 1.499 . S
C1069 C1070 1.373 . S
C1069 C1071 1.389 . S
C1070 H1043 0.950 . S
C1070 C1056 1.377 . S
C1070 C1069 1.373 . S
C1071 C1055 1.377 . S
C1071 C1069 1.389 . S
C1071 C1072 1.524 . S
C1072 C1071 1.524 . S
C1072 C1073 1.397 . S
C1072 C1077 1.363 . S
C1073 H1044 0.950 . S
C1073 C1072 1.397 . S
C1073 C1074 1.334 . S
C1074 H1045 0.950 . S
C1074 C1073 1.334 . S
C1074 C1075 1.287 . S
C1075 C1074 1.287 . S
C1075 C1076 1.524 . S
C1075 H1078 0.999 . S
C1076 H1046 0.950 . S
C1076 C1075 1.524 . S
C1076 C1077 1.415 . S
C1077 H1047 0.950 . S
C1077 C1072 1.363 . S
C1077 C1076 1.415 . S
H1078 C1075 0.999 . S
H1079 C1060 0.913 . S
H1080 C1098 0.951 . S
H1081 C1100 0.951 . S
H1082 C1102 0.950 . S
H1083 C1103 0.950 . S
H1084 C1105 0.950 1_655 S
H1085 C1108 0.971 . S
H1086 C1109 0.950 . S
H1087 C1111 0.950 . S
H1088 C1112 0.950 . S
H1089 C1113 0.951 1_655 S
H1090 C1115 0.951 1_655 S
H1091 C1117 0.950 . S
H1092 C1118 0.950 . S
H1093 C1120 0.950 . S
H1094 C1123 0.950 . S
H1095 C1124 0.950 . S
H1096 C1126 0.950 . S
H1097 C1127 0.950 . S
C1098 H1080 0.951 . S
C1098 C1099 1.366 . S
C1098 C1100 1.388 . S
C1099 C1098 1.366 . S
C1099 C1103 1.385 1_455 S
C1100 H1081 0.951 . S
C1100 C1098 1.388 . S
C1100 C1101 1.366 . S
C1101 C1100 1.366 . S
C1101 C1102 1.414 1_455 S
C1101 C1104 1.499 . S
C1102 H1082 0.950 . S
C1102 C1101 1.414 1_655 S
C1102 C1103 1.374 . S
C1103 H1083 0.950 . S
C1103 C1099 1.385 1_655 S
C1103 C1102 1.374 . S
C1104 C1101 1.499 . S
C1104 C1105 1.373 . S
C1104 C1106 1.389 . S
C1105 H1084 0.950 1_455 S
C1105 C1104 1.373 . S
C1105 C1121 1.377 . S
C1106 C1104 1.389 . S
C1106 C1107 1.524 . S
C1106 C1120 1.377 . S
C1107 C1106 1.524 . S
C1107 C1108 1.397 . S
C1107 C1112 1.363 . S
C1108 H1085 0.971 . S
C1108 C1107 1.397 . S
C1108 C1109 1.334 . S
C1109 H1086 0.950 . S
C1109 C1108 1.334 . S
C1109 C1110 1.287 . S
C1110 C1109 1.287 . S
C1110 C1111 1.524 . S
C1110 H1129 0.913 . S
C1111 H1087 0.950 . S
C1111 C1110 1.524 . S
C1111 C1112 1.415 . S
C1112 H1088 0.950 . S
C1112 C1107 1.363 . S
C1112 C1111 1.415 . S
C1113 H1089 0.951 1_455 S
C1113 C1114 1.366 . S
C1113 C1115 1.388 1_556 S
C1114 C1113 1.366 . S
C1114 C1118 1.385 . S
C1115 H1090 0.951 1_455 S
C1115 C1113 1.388 1_554 S
C1115 C1116 1.366 . S
C1116 C1115 1.366 . S
C1116 C1117 1.414 . S
C1116 C1119 1.499 . S
C1117 H1091 0.950 . S
C1117 C1116 1.414 . S
C1117 C1118 1.374 1_554 S
C1118 H1092 0.950 . S
C1118 C1114 1.385 . S
C1118 C1117 1.374 1_556 S
C1119 C1116 1.499 . S
C1119 C1120 1.373 . S
C1119 C1121 1.389 . S
C1120 H1093 0.950 . S
C1120 C1106 1.377 . S
C1120 C1119 1.373 . S
C1121 C1105 1.377 . S
C1121 C1119 1.389 . S
C1121 C1122 1.524 . S
C1122 C1121 1.524 . S
C1122 C1123 1.397 . S
C1122 C1127 1.363 1_455 S
C1123 H1094 0.950 . S
C1123 C1122 1.397 . S
C1123 C1124 1.334 . S
C1124 H1095 0.950 . S
C1124 C1123 1.334 . S
C1124 C1125 1.287 1_455 S
C1125 C1124 1.287 1_655 S
C1125 C1126 1.524 . S
C1125 H1128 0.999 . S
C1126 H1096 0.950 . S
C1126 C1125 1.524 . S
C1126 C1127 1.415 . S
C1127 H1097 0.950 . S
C1127 C1122 1.363 1_655 S
C1127 C1126 1.415 . S
H1128 C1125 0.999 . S
H1129 C1110 0.913 . S
H1130 C1148 0.951 . S
H1131 C1150 0.951 . S
H1132 C1152 0.950 1_565 S
H1133 C1153 0.950 1_565 S
H1134 C1155 0.950 . S
H1135 C1158 0.950 . S
H1136 C1159 0.950 . S
H1137 C1161 0.950 . S
H1138 C1162 0.950 . S
H1139 C1163 0.951 . S
H1140 C1165 0.951 . S
H1141 C1167 0.950 . S
H1142 C1168 0.950 . S
H1143 C1170 0.950 . S
H1144 C1173 0.950 . S
H1145 C1174 0.950 . S
H1146 C1176 0.950 . S
H1147 C1177 0.950 . S
C1148 H1130 0.951 . S
C1148 C1149 1.366 . S
C1148 C1150 1.388 . S
C1149 C1148 1.366 . S
C1149 C1153 1.385 . S
C1150 H1131 0.951 . S
C1150 C1148 1.388 . S
C1150 C1151 1.366 . S
C1151 C1150 1.366 . S
C1151 C1152 1.414 . S
C1151 C1154 1.499 . S
C1152 H1132 0.950 1_545 S
C1152 C1151 1.414 . S
C1152 C1153 1.374 . S
C1153 H1133 0.950 1_545 S
C1153 C1149 1.385 . S
C1153 C1152 1.374 . S
C1154 C1151 1.499 . S
C1154 C1155 1.373 . S
C1154 C1156 1.389 . S
C1155 H1134 0.950 . S
C1155 C1154 1.373 . S
C1155 C1171 1.377 . S
C1156 C1154 1.389 . S
C1156 C1157 1.524 . S
C1156 C1170 1.377 . S
C1157 C1156 1.524 . S
C1157 C1158 1.397 . S
C1157 C1162 1.363 . S
C1158 H1135 0.950 . S
C1158 C1157 1.397 . S
C1158 C1159 1.334 . S
C1159 H1136 0.950 . S
C1159 C1158 1.334 . S
C1159 C1160 1.287 . S
C1160 C1159 1.287 . S
C1160 C1161 1.524 . S
C1160 H1179 0.913 . S
C1161 H1137 0.950 . S
C1161 C1160 1.524 . S
C1161 C1162 1.415 . S
C1162 H1138 0.950 . S
C1162 C1157 1.363 . S
C1162 C1161 1.415 . S
C1163 H1139 0.951 . S
C1163 C1164 1.366 . S
C1163 C1165 1.388 . S
C1164 C1163 1.366 . S
C1164 C1168 1.385 . S
C1165 H1140 0.951 . S
C1165 C1163 1.388 . S
C1165 C1166 1.366 . S
C1166 C1165 1.366 . S
C1166 C1167 1.414 . S
C1166 C1169 1.499 . S
C1167 H1141 0.950 . S
C1167 C1166 1.414 . S
C1167 C1168 1.374 . S
C1168 H1142 0.950 . S
C1168 C1164 1.385 . S
C1168 C1167 1.374 . S
C1169 C1166 1.499 . S
C1169 C1170 1.373 . S
C1169 C1171 1.389 . S
C1170 H1143 0.950 . S
C1170 C1156 1.377 . S
C1170 C1169 1.373 . S
C1171 C1155 1.377 . S
C1171 C1169 1.389 . S
C1171 C1172 1.524 . S
C1172 C1171 1.524 . S
C1172 C1173 1.397 . S
C1172 C1177 1.363 1_545 S
C1173 H1144 0.950 . S
C1173 C1172 1.397 . S
C1173 C1174 1.334 . S
C1174 H1145 0.950 . S
C1174 C1173 1.334 . S
C1174 C1175 1.287 1_545 S
C1175 C1174 1.287 1_565 S
C1175 C1176 1.524 . S
C1175 H1178 0.999 . S
C1176 H1146 0.950 . S
C1176 C1175 1.524 . S
C1176 C1177 1.415 . S
C1177 H1147 0.950 . S
C1177 C1172 1.363 1_565 S
C1177 C1176 1.415 . S
H1178 C1175 0.999 . S
H1179 C1160 0.913 . S
H1180 C1198 0.951 . S
H1181 C1200 0.951 . S
H1182 C1202 0.950 . S
H1183 C1203 0.950 . S
H1184 C1205 0.950 . S
H1185 C1208 0.950 . S
H1186 C1209 0.950 . S
H1187 C1211 0.950 . S
H1188 C1212 0.950 . S
H1189 C1213 0.951 . S
H1190 C1215 0.951 . S
H1191 C1217 0.950 . S
H1192 C1218 0.950 . S
H1193 C1220 0.950 . S
H1194 C1223 0.950 . S
H1195 C1224 0.950 . S
H1196 C1226 0.950 . S
H1197 C1227 0.950 . S
C1198 H1180 0.951 . S
C1198 C1199 1.366 . S
C1198 C1200 1.388 . S
C1199 C1198 1.366 . S
C1199 C1203 1.385 . S
C1200 H1181 0.951 . S
C1200 C1198 1.388 . S
C1200 C1201 1.366 . S
C1201 C1200 1.366 . S
C1201 C1202 1.414 . S
C1201 C1204 1.499 . S
C1202 H1182 0.950 . S
C1202 C1201 1.414 . S
C1202 C1203 1.374 . S
C1203 H1183 0.950 . S
C1203 C1199 1.385 . S
C1203 C1202 1.374 . S
C1204 C1201 1.499 . S
C1204 C1205 1.373 . S
C1204 C1206 1.389 . S
C1205 H1184 0.950 . S
C1205 C1204 1.373 . S
C1205 C1221 1.377 . S
C1206 C1204 1.389 . S
C1206 C1207 1.524 . S
C1206 C1220 1.377 . S
C1207 C1206 1.524 . S
C1207 C1208 1.397 . S
C1207 C1212 1.363 . S
C1208 H1185 0.950 . S
C1208 C1207 1.397 . S
C1208 C1209 1.334 . S
C1209 H1186 0.950 . S
C1209 C1208 1.334 . S
C1209 C1210 1.287 . S
C1210 C1209 1.287 . S
C1210 C1211 1.524 . S
C1210 H1229 0.913 . S
C1211 H1187 0.950 . S
C1211 C1210 1.524 . S
C1211 C1212 1.415 . S
C1212 H1188 0.950 . S
C1212 C1207 1.363 . S
C1212 C1211 1.415 . S
C1213 H1189 0.951 . S
C1213 C1214 1.366 . S
C1213 C1215 1.388 . S
C1214 C1213 1.366 . S
C1214 C1218 1.385 . S
C1215 H1190 0.951 . S
C1215 C1213 1.388 . S
C1215 C1216 1.366 . S
C1216 C1215 1.366 . S
C1216 C1217 1.414 . S
C1216 C1219 1.499 . S
C1217 H1191 0.950 . S
C1217 C1216 1.414 . S
C1217 C1218 1.374 . S
C1218 H1192 0.950 . S
C1218 C1214 1.385 . S
C1218 C1217 1.374 . S
C1219 C1216 1.499 . S
C1219 C1220 1.373 . S
C1219 C1221 1.389 . S
C1220 H1193 0.950 . S
C1220 C1206 1.377 . S
C1220 C1219 1.373 . S
C1221 C1205 1.377 . S
C1221 C1219 1.389 . S
C1221 C1222 1.524 . S
C1222 C1221 1.524 . S
C1222 C1223 1.397 . S
C1222 C1227 1.363 . S
C1223 H1194 0.950 . S
C1223 C1222 1.397 . S
C1223 C1224 1.334 . S
C1224 H1195 0.950 . S
C1224 C1223 1.334 . S
C1224 C1225 1.287 . S
C1225 C1224 1.287 . S
C1225 C1226 1.524 . S
C1225 H1228 0.999 . S
C1226 H1196 0.950 . S
C1226 C1225 1.524 . S
C1226 C1227 1.415 . S
C1227 H1197 0.950 . S
C1227 C1222 1.363 . S
C1227 C1226 1.415 . S
H1228 C1225 0.999 . S
H1229 C1210 0.913 . S
H1230 C1248 0.951 . S
H1231 C1250 0.951 . S
H1232 C1252 0.950 1_565 S
H1233 C1253 0.950 1_565 S
H1234 C1255 0.950 . S
H1235 C1258 0.950 . S
H1236 C1259 0.950 . S
H1237 C1261 0.950 . S
H1238 C1262 0.950 . S
H1239 C1263 0.951 . S
H1240 C1265 0.951 . S
H1241 C1267 0.950 . S
H1242 C1268 0.950 . S
H1243 C1270 0.950 . S
H1244 C1273 0.950 . S
H1245 C1274 0.950 . S
H1246 C1276 0.950 . S
H1247 C1277 0.950 . S
C1248 H1230 0.951 . S
C1248 C1249 1.366 . S
C1248 C1250 1.388 . S
C1249 C1248 1.366 . S
C1249 C1253 1.385 . S
C1250 H1231 0.951 . S
C1250 C1248 1.388 . S
C1250 C1251 1.366 . S
C1251 C1250 1.366 . S
C1251 C1252 1.414 . S
C1251 C1254 1.499 . S
C1252 H1232 0.950 1_545 S
C1252 C1251 1.414 . S
C1252 C1253 1.374 . S
C1253 H1233 0.950 1_545 S
C1253 C1249 1.385 . S
C1253 C1252 1.374 . S
C1254 C1251 1.499 . S
C1254 C1255 1.373 1_545 S
C1254 C1256 1.389 . S
C1255 H1234 0.950 . S
C1255 C1254 1.373 1_565 S
C1255 C1271 1.377 . S
C1256 C1254 1.389 . S
C1256 C1257 1.524 . S
C1256 C1270 1.377 . S
C1257 C1256 1.524 . S
C1257 C1258 1.397 . S
C1257 C1262 1.363 . S
C1258 H1235 0.950 . S
C1258 C1257 1.397 . S
C1258 C1259 1.334 . S
C1259 H1236 0.950 . S
C1259 C1258 1.334 . S
C1259 C1260 1.287 . S
C1260 C1259 1.287 . S
C1260 C1261 1.524 . S
C1260 H1279 0.913 . S
C1261 H1237 0.950 . S
C1261 C1260 1.524 . S
C1261 C1262 1.415 . S
C1262 H1238 0.950 . S
C1262 C1257 1.363 . S
C1262 C1261 1.415 . S
C1263 H1239 0.951 . S
C1263 C1264 1.366 1_565 S
C1263 C1265 1.388 . S
C1264 C1263 1.366 1_545 S
C1264 C1268 1.385 . S
C1265 H1240 0.951 . S
C1265 C1263 1.388 . S
C1265 C1266 1.366 1_565 S
C1266 C1265 1.366 1_545 S
C1266 C1267 1.414 . S
C1266 C1269 1.499 . S
C1267 H1241 0.950 . S
C1267 C1266 1.414 . S
C1267 C1268 1.374 . S
C1268 H1242 0.950 . S
C1268 C1264 1.385 . S
C1268 C1267 1.374 . S
C1269 C1266 1.499 . S
C1269 C1270 1.373 . S
C1269 C1271 1.389 1_545 S
C1270 H1243 0.950 . S
C1270 C1256 1.377 . S
C1270 C1269 1.373 . S
C1271 C1255 1.377 . S
C1271 C1269 1.389 1_565 S
C1271 C1272 1.524 . S
C1272 C1271 1.524 . S
C1272 C1273 1.397 . S
C1272 C1277 1.363 . S
C1273 H1244 0.950 . S
C1273 C1272 1.397 . S
C1273 C1274 1.334 . S
C1274 H1245 0.950 . S
C1274 C1273 1.334 . S
C1274 C1275 1.287 . S
C1275 C1274 1.287 . S
C1275 C1276 1.524 . S
C1275 H1278 0.999 . S
C1276 H1246 0.950 . S
C1276 C1275 1.524 . S
C1276 C1277 1.415 . S
C1277 H1247 0.950 . S
C1277 C1272 1.363 . S
C1277 C1276 1.415 . S
H1278 C1275 0.999 . S
H1279 C1260 0.913 . S
H1280 C1298 0.951 . S
H1281 C1300 0.951 . S
H1282 C1302 0.950 . S
H1283 C1303 0.950 . S
H1284 C1305 0.950 . S
H1285 C1308 0.950 . S
H1286 C1309 0.950 . S
H1287 C1311 0.950 . S
H1288 C1312 0.950 . S
H1289 C1313 0.951 . S
H1290 C1315 0.951 . S
H1291 C1317 0.950 . S
H1292 C1318 0.950 . S
H1293 C1320 0.950 . S
H1294 C1323 0.950 . S
H1295 C1324 0.950 . S
H1296 C1326 0.950 . S
H1297 C1327 0.950 . S
C1298 H1280 0.951 . S
C1298 C1299 1.366 . S
C1298 C1300 1.388 . S
C1299 C1298 1.366 . S
C1299 C1303 1.385 . S
C1300 H1281 0.951 . S
C1300 C1298 1.388 . S
C1300 C1301 1.366 . S
C1301 C1300 1.366 . S
C1301 C1302 1.414 . S
C1301 C1304 1.499 . S
C1302 H1282 0.950 . S
C1302 C1301 1.414 . S
C1302 C1303 1.374 . S
C1303 H1283 0.950 . S
C1303 C1299 1.385 . S
C1303 C1302 1.374 . S
C1304 C1301 1.499 . S
C1304 C1305 1.373 . S
C1304 C1306 1.389 . S
C1305 H1284 0.950 . S
C1305 C1304 1.373 . S
C1305 C1321 1.377 . S
C1306 C1304 1.389 . S
C1306 C1307 1.524 . S
C1306 C1320 1.377 . S
C1307 C1306 1.524 . S
C1307 C1308 1.397 . S
C1307 C1312 1.363 . S
C1308 H1285 0.950 . S
C1308 C1307 1.397 . S
C1308 C1309 1.334 . S
C1309 H1286 0.950 . S
C1309 C1308 1.334 . S
C1309 C1310 1.287 . S
C1310 C1309 1.287 . S
C1310 C1311 1.524 . S
C1310 H1329 0.913 . S
C1311 H1287 0.950 . S
C1311 C1310 1.524 . S
C1311 C1312 1.415 . S
C1312 H1288 0.950 . S
C1312 C1307 1.363 . S
C1312 C1311 1.415 . S
C1313 H1289 0.951 . S
C1313 C1314 1.366 . S
C1313 C1315 1.388 1_554 S
C1314 C1313 1.366 . S
C1314 C1318 1.385 . S
C1315 H1290 0.951 . S
C1315 C1313 1.388 1_556 S
C1315 C1316 1.366 . S
C1316 C1315 1.366 . S
C1316 C1317 1.414 . S
C1316 C1319 1.499 . S
C1317 H1291 0.950 . S
C1317 C1316 1.414 . S
C1317 C1318 1.374 1_556 S
C1318 H1292 0.950 . S
C1318 C1314 1.385 . S
C1318 C1317 1.374 1_554 S
C1319 C1316 1.499 . S
C1319 C1320 1.373 . S
C1319 C1321 1.389 . S
C1320 H1293 0.950 . S
C1320 C1306 1.377 . S
C1320 C1319 1.373 . S
C1321 C1305 1.377 . S
C1321 C1319 1.389 . S
C1321 C1322 1.524 . S
C1322 C1321 1.524 . S
C1322 C1323 1.397 . S
C1322 C1327 1.363 . S
C1323 H1294 0.950 . S
C1323 C1322 1.397 . S
C1323 C1324 1.334 . S
C1324 H1295 0.950 . S
C1324 C1323 1.334 . S
C1324 C1325 1.287 . S
C1325 C1324 1.287 . S
C1325 C1326 1.524 . S
C1325 H1328 0.999 . S
C1326 H1296 0.950 . S
C1326 C1325 1.524 . S
C1326 C1327 1.415 . S
C1327 H1297 0.950 . S
C1327 C1322 1.363 . S
C1327 C1326 1.415 . S
H1328 C1325 0.999 . S
H1329 C1310 0.913 . S
H1330 C1348 0.951 . S
H1331 C1350 0.951 . S
H1332 C1352 0.950 . S
H1333 C1353 0.950 . S
H1334 C1355 0.950 . S
H1335 C1358 0.950 . S
H1336 C1359 0.950 . S
H1337 C1361 0.950 . S
H1338 C1362 0.950 . S
H1339 C1363 0.951 . S
H1340 C1365 0.951 . S
H1341 C1367 0.950 . S
H1342 C1368 0.950 . S
H1343 C1370 0.950 . S
H1344 C1373 0.950 . S
H1345 C1374 0.950 . S
H1346 C1376 0.950 . S
H1347 C1377 0.950 . S
C1348 H1330 0.951 . S
C1348 C1349 1.366 . S
C1348 C1350 1.388 . S
C1349 C1348 1.366 . S
C1349 C1353 1.385 1_455 S
C1350 H1331 0.951 . S
C1350 C1348 1.388 . S
C1350 C1351 1.366 . S
C1351 C1350 1.366 . S
C1351 C1352 1.414 1_455 S
C1351 C1354 1.499 . S
C1352 H1332 0.950 . S
C1352 C1351 1.414 1_655 S
C1352 C1353 1.374 . S
C1353 H1333 0.950 . S
C1353 C1349 1.385 1_655 S
C1353 C1352 1.374 . S
C1354 C1351 1.499 . S
C1354 C1355 1.373 1_455 S
C1354 C1356 1.389 . S
C1355 H1334 0.950 . S
C1355 C1354 1.373 1_655 S
C1355 C1371 1.377 . S
C1356 C1354 1.389 . S
C1356 C1357 1.524 . S
C1356 C1370 1.377 . S
C1357 C1356 1.524 . S
C1357 C1358 1.397 . S
C1357 C1362 1.363 . S
C1358 H1335 0.950 . S
C1358 C1357 1.397 . S
C1358 C1359 1.334 . S
C1359 H1336 0.950 . S
C1359 C1358 1.334 . S
C1359 C1360 1.287 . S
C1360 C1359 1.287 . S
C1360 C1361 1.524 . S
C1360 H1379 0.913 . S
C1361 H1337 0.950 . S
C1361 C1360 1.524 . S
C1361 C1362 1.415 . S
C1362 H1338 0.950 . S
C1362 C1357 1.363 . S
C1362 C1361 1.415 . S
C1363 H1339 0.951 . S
C1363 C1364 1.370 . S
C1363 C1365 1.388 . S
C1364 C1363 1.370 . S
C1364 C1368 1.380 1_655 S
C1365 H1340 0.951 . S
C1365 C1363 1.388 . S
C1365 C1366 1.358 1_655 S
C1366 C1365 1.358 1_455 S
C1366 C1367 1.420 . S
C1366 C1369 1.500 . S
C1367 H1341 0.950 . S
C1367 C1366 1.420 . S
C1367 C1368 1.374 . S
C1368 H1342 0.950 . S
C1368 C1364 1.380 1_455 S
C1368 C1367 1.374 . S
C1369 C1366 1.500 . S
C1369 C1370 1.373 . S
C1369 C1371 1.389 1_455 S
C1370 H1343 0.950 . S
C1370 C1356 1.377 . S
C1370 C1369 1.373 . S
C1371 C1355 1.377 . S
C1371 C1369 1.389 1_655 S
C1371 C1372 1.524 . S
C1372 C1371 1.524 . S
C1372 C1373 1.397 . S
C1372 C1377 1.363 . S
C1373 H1344 0.950 . S
C1373 C1372 1.397 . S
C1373 C1374 1.334 . S
C1374 H1345 0.950 . S
C1374 C1373 1.334 . S
C1374 C1375 1.287 . S
C1375 C1374 1.287 . S
C1375 C1376 1.524 . S
C1375 H1378 0.999 . S
C1376 H1346 0.950 . S
C1376 C1375 1.524 . S
C1376 C1377 1.415 . S
C1377 H1347 0.950 . S
C1377 C1372 1.363 . S
C1377 C1376 1.415 . S
H1378 C1375 0.999 . S
H1379 C1360 0.913 . S
C499 C24 2.840 . S
C514 C451 2.828 . S
C549 C66 1.031 . S
C564 C301 1.025 . S
C599 C93 1.723 . S
C614 C361 1.611 . S
C649 C13 2.999 . S
C664 C421 2.839 . S
C714 C331 1.247 . S
C699 C57 1.244 . S
C764 C391 1.900 . S
C749 C104 1.903 . S
C799 C64 1.884 . S
C814 C181 1.741 . S
C849 C97 0.377 . S
C864 C271 0.340 . S
C899 C17 1.213 . S
C914 C151 1.217 . S
C964 C211 1.734 . S
C949 C53 1.737 . S
C1014 C241 0.352 . S
C999 C106 0.308 . S
C1049 C26 1.048 . S
C1064 C121 1.032 . S
C1114 C260 1.075 . S
C1099 C2 1.077 . S
C1149 C63 1.463 . S
C1164 C140 1.473 . S
C1199 C82 1.369 . S
C1214 C200 1.362 . S
C1264 C380 1.389 . S
C1249 C42 1.386 . S
C1314 C440 1.761 . S
C1299 C103 1.731 . S
C1349 C23 1.471 . S
C1364 C320 1.474 1_655 S
