# Generated by pormake.
# Topology pto, (3,4)-cn, num edge types: 1
# Building blocks:
#     Node 0, Type 0, BuildingBlock: QEWDON_clean_linker_0, # of connection points: 3
#     Node 1, Type 0, BuildingBlock: QEWDON_clean_linker_0, # of connection points: 3
#     Node 2, Type 0, BuildingBlock: QEWDON_clean_linker_0, # of connection points: 3
#     Node 3, Type 0, BuildingBlock: QEWDON_clean_linker_0, # of connection points: 3
#     Node 4, Type 0, BuildingBlock: QEWDON_clean_linker_0, # of connection points: 3
#     Node 5, Type 0, BuildingBlock: QEWDON_clean_linker_0, # of connection points: 3
#     Node 6, Type 0, BuildingBlock: QEWDON_clean_linker_0, # of connection points: 3
#     Node 7, Type 0, BuildingBlock: QEWDON_clean_linker_0, # of connection points: 3
#     Node 8, Type 1, BuildingBlock: KOZSID_clean_sbu_0, # of connection points: 4
#     Node 9, Type 1, BuildingBlock: KOZSID_clean_sbu_0, # of connection points: 4
#     Node 10, Type 1, BuildingBlock: KOZSID_clean_sbu_0, # of connection points: 4
#     Node 11, Type 1, BuildingBlock: KOZSID_clean_sbu_0, # of connection points: 4
#     Node 12, Type 1, BuildingBlock: KOZSID_clean_sbu_0, # of connection points: 4
#     Node 13, Type 1, BuildingBlock: KOZSID_clean_sbu_0, # of connection points: 4
#     Edge 14, Type (0, 1), BuildingBlock: XUDNAN_clean_linker_2, # of connection points: 2
#     Edge 15, Type (0, 1), BuildingBlock: XUDNAN_clean_linker_2, # of connection points: 2
#     Edge 16, Type (0, 1), BuildingBlock: XUDNAN_clean_linker_2, # of connection points: 2
#     Edge 17, Type (0, 1), BuildingBlock: XUDNAN_clean_linker_2, # of connection points: 2
#     Edge 18, Type (0, 1), BuildingBlock: XUDNAN_clean_linker_2, # of connection points: 2
#     Edge 19, Type (0, 1), BuildingBlock: XUDNAN_clean_linker_2, # of connection points: 2
#     Edge 20, Type (0, 1), BuildingBlock: XUDNAN_clean_linker_2, # of connection points: 2
#     Edge 21, Type (0, 1), BuildingBlock: XUDNAN_clean_linker_2, # of connection points: 2
#     Edge 22, Type (0, 1), BuildingBlock: XUDNAN_clean_linker_2, # of connection points: 2
#     Edge 23, Type (0, 1), BuildingBlock: XUDNAN_clean_linker_2, # of connection points: 2
#     Edge 24, Type (0, 1), BuildingBlock: XUDNAN_clean_linker_2, # of connection points: 2
#     Edge 25, Type (0, 1), BuildingBlock: XUDNAN_clean_linker_2, # of connection points: 2
#     Edge 26, Type (0, 1), BuildingBlock: XUDNAN_clean_linker_2, # of connection points: 2
#     Edge 27, Type (0, 1), BuildingBlock: XUDNAN_clean_linker_2, # of connection points: 2
#     Edge 28, Type (0, 1), BuildingBlock: XUDNAN_clean_linker_2, # of connection points: 2
#     Edge 29, Type (0, 1), BuildingBlock: XUDNAN_clean_linker_2, # of connection points: 2
#     Edge 30, Type (0, 1), BuildingBlock: XUDNAN_clean_linker_2, # of connection points: 2
#     Edge 31, Type (0, 1), BuildingBlock: XUDNAN_clean_linker_2, # of connection points: 2
#     Edge 32, Type (0, 1), BuildingBlock: XUDNAN_clean_linker_2, # of connection points: 2
#     Edge 33, Type (0, 1), BuildingBlock: XUDNAN_clean_linker_2, # of connection points: 2
#     Edge 34, Type (0, 1), BuildingBlock: XUDNAN_clean_linker_2, # of connection points: 2
#     Edge 35, Type (0, 1), BuildingBlock: XUDNAN_clean_linker_2, # of connection points: 2
#     Edge 36, Type (0, 1), BuildingBlock: XUDNAN_clean_linker_2, # of connection points: 2
#     Edge 37, Type (0, 1), BuildingBlock: XUDNAN_clean_linker_2, # of connection points: 2
# Relax obj value: 0.016
# Max RMSD: 0.202
# Mean RMSD: 0.076
data_MOF--net-pto--node1-KOZSID_clean_sbu_0--node2-QEWDON_clean_linker_0--edge1-XUDNAN_clean_linker_2
_symmetry_space_group_name_H-M    P1
_symmetry_Int_Tables_number       1
_symmetry_cell_setting            triclinic
loop_
_symmetry_equiv_pos_as_xyz
'x, y, z'
_cell_length_a     33.775668
_cell_length_b     51.961975
_cell_length_c     47.114869
_cell_angle_alpha  92.384473
_cell_angle_beta   110.10232
_cell_angle_gamma 103.65541
loop_
_atom_site_label
_atom_site_type_symbol
_atom_site_fract_x
_atom_site_fract_y
_atom_site_fract_z
_atom_type_partial_charge
H0 H 0.30572 0.32289 0.28718 0.0
C1 C 0.30045 0.30254 0.29246 0.0
C2 C 0.30515 0.28246 0.27385 0.0
C3 C 0.29174 0.29674 0.31894 0.0
H4 H 0.30415 0.24107 0.26736 0.0
C5 C 0.29991 0.25634 0.28157 0.0
C6 C 0.28931 0.24982 0.30728 0.0
C7 C 0.28551 0.27033 0.32585 0.0
C8 C 0.29354 0.31848 0.34123 0.0
H9 H 0.27751 0.26588 0.34581 0.0
C10 C 0.26803 0.33684 0.3327 0.0
C11 C 0.27031 0.35712 0.35469 0.0
C12 C 0.32171 0.32081 0.37169 0.0
H13 H 0.3419 0.30712 0.37874 0.0
C14 C 0.32485 0.34108 0.39325 0.0
H15 H 0.24575 0.33481 0.30933 0.0
C16 C 0.29958 0.35912 0.38489 0.0
H17 H 0.30346 0.37488 0.40219 0.0
H18 H 0.34712 0.34288 0.41657 0.0
H19 H 0.27331 0.84613 0.71042 0.0
C20 C 0.25726 0.82571 0.71145 0.0
C21 C 0.27759 0.81252 0.73561 0.0
C22 C 0.21585 0.81301 0.68928 0.0
H23 H 0.27023 0.77639 0.75671 0.0
C24 C 0.25598 0.78629 0.73745 0.0
C25 C 0.21453 0.77346 0.71585 0.0
C26 C 0.19526 0.78665 0.69158 0.0
C27 C 0.19276 0.82744 0.66468 0.0
H28 H 0.16373 0.77622 0.6746 0.0
C29 C 0.21583 0.84652 0.65142 0.0
C30 C 0.19312 0.85931 0.62779 0.0
C31 C 0.1468 0.82219 0.6543 0.0
H32 H 0.12785 0.8086 0.66459 0.0
C33 C 0.12441 0.83468 0.63073 0.0
H34 H 0.25113 0.85107 0.65885 0.0
C35 C 0.14732 0.85299 0.61738 0.0
H36 H 0.12931 0.86272 0.59933 0.0
H37 H 0.08912 0.83032 0.62295 0.0
H38 H 0.8739 0.79941 0.41902 0.0
C39 C 0.85865 0.80046 0.39491 0.0
C40 C 0.87 0.78709 0.37346 0.0
C41 C 0.82501 0.81328 0.3851 0.0
H42 H 0.85689 0.77728 0.32545 0.0
C43 C 0.84865 0.78773 0.34213 0.0
C44 C 0.8153 0.80076 0.33218 0.0
C45 C 0.80359 0.81335 0.3538 0.0
C46 C 0.80747 0.8233 0.40679 0.0
H47 H 0.77697 0.82277 0.34623 0.0
C48 C 0.83087 0.84668 0.42775 0.0
C49 C 0.81118 0.85702 0.44597 0.0
C50 C 0.7652 0.80993 0.40498 0.0
H51 H 0.74676 0.79195 0.38895 0.0
C52 C 0.74621 0.81974 0.42355 0.0
H53 H 0.86325 0.8573 0.42893 0.0
C54 C 0.76885 0.8432 0.44377 0.0
H55 H 0.75326 0.8506 0.45778 0.0
H56 H 0.71362 0.80929 0.42202 0.0
H57 H 0.89255 0.33892 0.93184 0.0
C58 C 0.87572 0.32105 0.91536 0.0
C59 C 0.87755 0.32086 0.88603 0.0
C60 C 0.85345 0.29791 0.92381 0.0
H61 H 0.85756 0.29727 0.8423 0.0
C62 C 0.85613 0.29761 0.86497 0.0
C63 C 0.83404 0.27447 0.87303 0.0
C64 C 0.83267 0.27458 0.90246 0.0
C65 C 0.85457 0.29755 0.95554 0.0
H66 H 0.8165 0.25644 0.90893 0.0
C67 C 0.8158 0.28884 0.96153 0.0
C68 C 0.81711 0.28806 0.99179 0.0
C69 C 0.89485 0.3056 0.98003 0.0
H70 H 0.92513 0.31222 0.97599 0.0
C71 C 0.89653 0.30457 0.00993 0.0
H72 H 0.78473 0.28336 0.94258 0.0
C73 C 0.85813 0.29578 0.01583 0.0
H74 H 0.86077 0.29479 0.03929 0.0
H75 H 0.92781 0.31047 0.02865 0.0
H76 H 0.96502 0.80187 0.83174 0.0
C77 C 0.94673 0.80203 0.84667 0.0
C78 C 0.92705 0.77789 0.85446 0.0
C79 C 0.94311 0.82642 0.85792 0.0
H80 H 0.88878 0.7596 0.88022 0.0
C81 C 0.90427 0.77827 0.87432 0.0
C82 C 0.89984 0.80254 0.88556 0.0
C83 C 0.91899 0.82658 0.87693 0.0
C84 C 0.96563 0.85156 0.85004 0.0
H85 H 0.91638 0.84545 0.88578 0.0
C86 C 0.94215 0.86929 0.83533 0.0
C87 C 0.96323 0.89186 0.82537 0.0
C88 C 0.01059 0.857 0.85558 0.0
H89 H 0.02926 0.84361 0.86691 0.0
C90 C 0.0318 0.8797 0.84645 0.0
H91 H 0.90727 0.86486 0.83046 0.0
C92 C 0.0083 0.89695 0.83127 0.0
H93 H 0.02543 0.91438 0.82424 0.0
H94 H 0.06648 0.88378 0.85088 0.0
H95 H 0.84999 0.3427 0.46385 0.0
C96 C 0.82626 0.33841 0.44071 0.0
C97 C 0.83224 0.35511 0.41893 0.0
C98 C 0.78839 0.3171 0.43316 0.0
H99 H 0.80322 0.36362 0.37301 0.0
C100 C 0.79998 0.35013 0.38954 0.0
C101 C 0.76191 0.32909 0.38194 0.0
C102 C 0.75649 0.31238 0.40366 0.0
C103 C 0.77823 0.303 0.45734 0.0
H104 H 0.72623 0.29683 0.39827 0.0
C105 C 0.79503 0.28134 0.46753 0.0
C106 C 0.78416 0.26804 0.49045 0.0
C107 C 0.75068 0.31136 0.47004 0.0
H108 H 0.73745 0.32799 0.46234 0.0
C109 C 0.73992 0.29835 0.4927 0.0
H110 H 0.81642 0.27497 0.45772 0.0
C111 C 0.75639 0.27683 0.50282 0.0
H112 H 0.7467 0.26676 0.52 0.0
H113 H 0.71848 0.30485 0.50232 0.0
H114 H 0.27686 0.26388 0.71573 0.0
C115 C 0.25857 0.27839 0.716 0.0
C116 C 0.25819 0.28879 0.74396 0.0
C117 C 0.23743 0.28772 0.68875 0.0
H118 H 0.23983 0.31835 0.76643 0.0
C119 C 0.23715 0.309 0.74461 0.0
C120 C 0.21631 0.31883 0.71772 0.0
C121 C 0.21487 0.30708 0.68985 0.0
C122 C 0.24261 0.27978 0.65967 0.0
H123 H 0.19741 0.31381 0.66887 0.0
C124 C 0.2423 0.25337 0.65091 0.0
C125 C 0.24707 0.24659 0.62314 0.0
C126 C 0.24892 0.29928 0.64058 0.0
H127 H 0.25089 0.31994 0.64696 0.0
C128 C 0.25367 0.29262 0.61324 0.0
H129 H 0.2375 0.23806 0.66523 0.0
C130 C 0.25265 0.26651 0.6045 0.0
H131 H 0.25718 0.26201 0.58334 0.0
H132 H 0.25858 0.30786 0.59888 0.0
H133 H 0.31861 0.81739 0.2209 0.0
C134 C 0.31065 0.79991 0.23172 0.0
C135 C 0.29267 0.80133 0.25445 0.0
C136 C 0.31768 0.77583 0.22263 0.0
H137 H 0.26353 0.77898 0.28295 0.0
C138 C 0.28014 0.77809 0.26711 0.0
C139 C 0.28717 0.75377 0.25839 0.0
C140 C 0.30805 0.75351 0.23726 0.0
C141 C 0.33207 0.77271 0.19649 0.0
H142 H 0.31637 0.73563 0.2315 0.0
C143 C 0.3666 0.792 0.19296 0.0
C144 C 0.3812 0.78728 0.16909 0.0
C145 C 0.31134 0.74942 0.17506 0.0
H146 H 0.28397 0.73453 0.17667 0.0
C147 C 0.32556 0.74495 0.15131 0.0
H148 H 0.38288 0.81009 0.20912 0.0
C149 C 0.36052 0.76364 0.14845 0.0
H150 H 0.37105 0.75983 0.12976 0.0
H151 H 0.30946 0.72692 0.13509 0.0
C152 C 0.16906 0.60863 0.38349 0.0
C153 C 0.21118 0.6221 0.40288 0.0
C154 C 0.21203 0.62089 0.43206 0.0
C155 C 0.17077 0.6065 0.42896 0.0
N156 N 0.1442 0.59823 0.39965 0.0
Co157 Co 0.08272 0.57596 0.38519 0.0
N158 N 0.08971 0.56516 0.42616 0.0
C159 C 0.12162 0.57741 0.45267 0.0
C160 C 0.11953 0.56424 0.47698 0.0
C161 C 0.08408 0.54242 0.46501 0.0
C162 C 0.066 0.5437 0.43396 0.0
N163 N 0.02155 0.55353 0.37083 0.0
C164 C 0.00313 0.53334 0.38333 0.0
C165 C 0.95882 0.52323 0.36624 0.0
C166 C 0.94951 0.53763 0.34215 0.0
C167 C 0.98844 0.55572 0.34595 0.0
N168 N 0.07498 0.587 0.34428 0.0
C169 C 0.03629 0.58574 0.32214 0.0
C170 C 0.04064 0.59649 0.29696 0.0
C171 C 0.0848 0.60537 0.3038 0.0
C172 C 0.10513 0.59939 0.33291 0.0
N173 N 0.10138 0.54521 0.3744 0.0
C174 C 0.12898 0.50163 0.35866 0.0
C175 C 0.09299 0.50841 0.33803 0.0
C176 C 0.07957 0.53011 0.34641 0.0
C177 C 0.15065 0.5171 0.38739 0.0
C178 C 0.13654 0.53881 0.39472 0.0
N179 N 0.06402 0.6069 0.39569 0.0
C180 C 0.01515 0.62541 0.41213 0.0
C181 C 0.03256 0.65051 0.40517 0.0
C182 C 0.06671 0.65355 0.39425 0.0
C183 C 0.08162 0.63154 0.38939 0.0
C184 C 0.03189 0.60394 0.40774 0.0
H185 H 0.10672 0.63447 0.37977 0.0
H186 H 0.01817 0.58482 0.41343 0.0
H187 H 0.05155 0.53472 0.33018 0.0
H188 H 0.15431 0.5505 0.41683 0.0
C189 C 0.158 0.59698 0.45268 0.0
C190 C 0.15253 0.60866 0.35025 0.0
C191 C 0.02589 0.52489 0.41248 0.0
C192 C 0.9969 0.57167 0.32442 0.0
H193 H 0.23832 0.63217 0.39667 0.0
H194 H 0.23982 0.62884 0.45301 0.0
H195 H 0.14272 0.56886 0.50024 0.0
H196 H 0.07369 0.52714 0.47776 0.0
H197 H 0.9356 0.50731 0.37081 0.0
H198 H 0.91846 0.53459 0.32355 0.0
H199 H 0.01486 0.5975 0.27599 0.0
H200 H 0.10004 0.61578 0.28925 0.0
H201 H 0.07503 0.49687 0.31568 0.0
H202 H 0.17893 0.5128 0.40394 0.0
H203 H 0.9888 0.62241 0.42081 0.0
H204 H 0.08078 0.67265 0.38846 0.0
C205 C 0.12225 0.58609 0.78714 0.0
C206 C 0.16361 0.60127 0.80594 0.0
C207 C 0.1737 0.5906 0.83267 0.0
C208 C 0.13809 0.56968 0.82882 0.0
N209 N 0.10619 0.56603 0.801 0.0
Co210 Co 0.04791 0.53881 0.78633 0.0
N211 N 0.05861 0.5274 0.82783 0.0
C212 C 0.09369 0.53803 0.85357 0.0
C213 C 0.09192 0.52593 0.87858 0.0
C214 C 0.05364 0.50615 0.86809 0.0
C215 C 0.03439 0.50732 0.83715 0.0
N216 N 0.99047 0.5108 0.77125 0.0
C217 C 0.97395 0.49144 0.78567 0.0
C218 C 0.9344 0.47461 0.76635 0.0
C219 C 0.92597 0.48334 0.73849 0.0
C220 C 0.96077 0.50487 0.74239 0.0
N221 N 0.03625 0.55132 0.74525 0.0
C222 C 1.00027 0.54164 0.71974 0.0
C223 C 1.00021 0.5556 0.69567 0.0
C224 C 0.03775 0.57595 0.70675 0.0
C225 C 0.05849 0.57317 0.73704 0.0
N226 N 0.07532 0.51186 0.77537 0.0
C227 C 0.1119 0.4727 0.75932 0.0
C228 C 0.07863 0.48044 0.73745 0.0
C229 C 0.06073 0.49966 0.74591 0.0
C230 C 0.1266 0.48467 0.78946 0.0
C231 C 0.10833 0.50432 0.79689 0.0
N232 N 0.02059 0.5657 0.79699 0.0
C233 C 0.96341 0.58836 0.78175 0.0
C234 C 0.98798 0.60929 0.80536 0.0
C235 C 0.02769 0.60704 0.82616 0.0
C236 C 0.0432 0.58511 0.82166 0.0
C237 C 0.98005 0.56686 0.77813 0.0
H238 H 0.07428 0.58475 0.83774 0.0
H239 H 0.96014 0.55189 0.75925 0.0
H240 H 0.03497 0.50409 0.72807 0.0
H241 H 0.12153 0.5131 0.82017 0.0
C242 C 0.13015 0.55678 0.8525 0.0
C243 C 0.09755 0.59285 0.75764 0.0
C244 C 0.99557 0.48735 0.81705 0.0
C245 C 0.96658 0.51989 0.7195 0.0
H246 H 0.1837 0.619 0.80162 0.0
H247 H 0.20221 0.5984 0.85323 0.0
H248 H 0.11654 0.5301 0.90135 0.0
H249 H 0.04207 0.49175 0.88135 0.0
H250 H 0.91426 0.45749 0.77177 0.0
H251 H 0.89818 0.47474 0.71774 0.0
H252 H 0.97521 0.55193 0.67308 0.0
H253 H 0.04809 0.59159 0.69433 0.0
H254 H 0.06603 0.47144 0.71384 0.0
H255 H 0.15265 0.4793 0.80707 0.0
H256 H 0.93183 0.58887 0.76561 0.0
H257 H 0.0477 0.62269 0.84499 0.0
C258 C 0.29882 0.99793 0.48888 0.0
C259 C 0.3379 0.99242 0.50571 0.0
C260 C 0.3678 0.00362 0.49304 0.0
C261 C 0.34542 0.01521 0.4692 0.0
N262 N 0.30342 0.01214 0.46623 0.0
Co263 Co 0.25943 0.02459 0.43385 0.0
N264 N 0.30557 0.05053 0.42483 0.0
C265 C 0.34748 0.04982 0.43241 0.0
C266 C 0.37175 0.07009 0.42265 0.0
C267 C 0.3432 0.08432 0.40781 0.0
C268 C 0.30296 0.0719 0.4094 0.0
N269 N 0.21553 0.03686 0.40112 0.0
C270 C 0.22027 0.05943 0.3878 0.0
C271 C 0.18041 0.06058 0.36662 0.0
C272 C 0.15016 0.03761 0.36618 0.0
C273 C 0.17291 0.02385 0.38726 0.0
N274 N 0.21328 0.99873 0.44299 0.0
C275 C 0.17077 0.99004 0.42489 0.0
C276 C 0.14615 0.97332 0.43796 0.0
C277 C 0.17503 0.97115 0.46588 0.0
C278 C 0.21605 0.98641 0.46813 0.0
N279 N 0.25988 0.05189 0.46387 0.0
C280 C 0.26026 0.08975 0.50814 0.0
C281 C 0.2209 0.07486 0.48574 0.0
C282 C 0.22141 0.056 0.46396 0.0
C283 C 0.29948 0.08539 0.50775 0.0
C284 C 0.2986 0.06653 0.48535 0.0
N285 N 0.25901 0.99706 0.40391 0.0
C286 C 0.25725 0.95156 0.38999 0.0
C287 C 0.26099 0.95759 0.36211 0.0
C288 C 0.26308 0.9839 0.35555 0.0
C289 C 0.26169 0.00319 0.37657 0.0
C290 C 0.25666 0.97149 0.41052 0.0
H291 H 0.26324 0.02317 0.37078 0.0
H292 H 0.25444 0.96612 0.43186 0.0
H293 H 0.19057 0.04459 0.44732 0.0
H294 H 0.32926 0.06371 0.48547 0.0
C295 C 0.36399 0.03238 0.45231 0.0
C296 C 0.25727 0.98728 0.49322 0.0
C297 C 0.26225 0.07916 0.39334 0.0
C298 C 0.15411 0.00178 0.39874 0.0
H299 H 0.34405 0.98115 0.52484 0.0
H300 H 0.40203 0.00391 0.50085 0.0
H301 H 0.4063 0.07447 0.42655 0.0
H302 H 0.35095 0.10157 0.39665 0.0
H303 H 0.17366 0.07636 0.35295 0.0
H304 H 0.11535 0.03226 0.35316 0.0
H305 H 0.11107 0.96477 0.42895 0.0
H306 H 0.16655 0.95966 0.48256 0.0
H307 H 0.18982 0.07745 0.48531 0.0
H308 H 0.33069 0.09674 0.52438 0.0
H309 H 0.25447 0.93151 0.39601 0.0
H310 H 0.2665 0.98979 0.33457 0.0
C311 C 0.60196 0.87451 0.05938 0.0
C312 C 0.61104 0.90047 0.07312 0.0
C313 C 0.63884 0.91634 0.06153 0.0
C314 C 0.64563 0.89925 0.04173 0.0
N315 N 0.62386 0.87366 0.04024 0.0
Co316 Co 0.62718 0.84212 0.01686 0.0
N317 N 0.6824 0.86221 0.01312 0.0
C318 C 0.69805 0.88901 0.0174 0.0
C319 C 0.73728 0.89724 0.01344 0.0
C320 C 0.74662 0.87422 0.00588 0.0
C321 C 0.71217 0.85311 0.00536 0.0
N322 N 0.63025 0.81046 0.99358 0.0
C323 C 0.6643 0.80563 0.98738 0.0
C324 C 0.65156 0.78123 0.9691 0.0
C325 C 0.60793 0.77069 0.96351 0.0
C326 C 0.59641 0.78913 0.97858 0.0
N327 N 0.57175 0.82225 0.02023 0.0
C328 C 0.54353 0.80006 0.00208 0.0
C329 C 0.50744 0.79115 0.00983 0.0
C330 C 0.51351 0.80893 0.03432 0.0
C331 C 0.55325 0.82765 0.04023 0.0
N332 N 0.59362 0.85303 0.97862 0.0
C333 C 0.5368 0.86048 0.92222 0.0
C334 C 0.57481 0.85293 0.92446 0.0
C335 C 0.60318 0.84975 0.95296 0.0
C336 C 0.52913 0.86567 0.94896 0.0
C337 C 0.55773 0.86172 0.97684 0.0
N338 N 0.65978 0.83095 0.0551 0.0
C339 C 0.66212 0.79801 0.08954 0.0
C340 C 0.69267 0.81707 0.11373 0.0
C341 C 0.70909 0.84268 0.10743 0.0
C342 C 0.6922 0.84922 0.07791 0.0
C343 C 0.64642 0.80527 0.06041 0.0
H344 H 0.70361 0.86944 0.07396 0.0
H345 H 0.62158 0.79045 0.04255 0.0
H346 H 0.6319 0.84358 0.95399 0.0
H347 H 0.54962 0.86453 0.99676 0.0
C348 C 0.67893 0.90535 0.02986 0.0
C349 C 0.57145 0.85109 0.06374 0.0
C350 C 0.70713 0.825 0.99516 0.0
C351 C 0.55616 0.78569 0.9824 0.0
H352 H 0.59962 0.90731 0.09009 0.0
H353 H 0.65442 0.93752 0.06828 0.0
H354 H 0.75752 0.91749 0.01677 0.0
H355 H 0.77538 0.87318 0.00112 0.0
H356 H 0.6714 0.7723 0.96008 0.0
H357 H 0.58733 0.75164 0.95046 0.0
H358 H 0.48088 0.77324 0.99982 0.0
H359 H 0.4913 0.80817 0.04642 0.0
H360 H 0.5821 0.84904 0.90428 0.0
H361 H 0.49998 0.8714 0.94818 0.0
H362 H 0.64923 0.77783 0.09331 0.0
H363 H 0.73283 0.85799 0.12548 0.0
C364 C 0.89724 0.0478 0.70578 0.0
C365 C 0.9372 0.05096 0.72936 0.0
C366 C 0.96298 0.07561 0.72927 0.0
C367 C 0.93743 0.08616 0.70585 0.0
N368 N 0.89728 0.06964 0.69108 0.0
Co369 Co 0.84983 0.07753 0.65675 0.0
N370 N 0.89181 0.10703 0.64811 0.0
C371 C 0.93284 0.1193 0.66721 0.0
C372 C 0.95422 0.13916 0.65522 0.0
C373 C 0.92464 0.13966 0.62695 0.0
C374 C 0.88661 0.1201 0.62334 0.0
N375 N 0.8023 0.08547 0.6224 0.0
C376 C 0.80454 0.10038 0.59979 0.0
C377 C 0.76305 0.10123 0.58093 0.0
C378 C 0.73405 0.08661 0.5924 0.0
C379 C 0.75926 0.07766 0.61751 0.0
N380 N 0.80788 0.04818 0.66564 0.0
C381 C 0.76421 0.04428 0.65599 0.0
C382 C 0.74355 0.02185 0.66492 0.0
C383 C 0.77628 0.01111 0.68148 0.0
C384 C 0.81533 0.02786 0.68204 0.0
N385 N 0.84167 0.10282 0.68488 0.0
C386 C 0.82404 0.13741 0.72338 0.0
C387 C 0.83232 0.1132 0.73211 0.0
C388 C 0.84088 0.09618 0.71253 0.0
C389 C 0.82593 0.14425 0.69534 0.0
C390 C 0.83502 0.12682 0.67657 0.0
N391 N 0.85759 0.05209 0.62865 0.0
C392 C 0.82613 0.01443 0.58911 0.0
C393 C 0.86767 0.014 0.58945 0.0
C394 C 0.90412 0.03333 0.60987 0.0
C395 C 0.89838 0.05211 0.62929 0.0
C396 C 0.82182 0.03363 0.60859 0.0
H397 H 0.92697 0.06655 0.64495 0.0
H398 H 0.7894 0.03326 0.60765 0.0
H399 H 0.84609 0.07742 0.7196 0.0
H400 H 0.83605 0.13266 0.65512 0.0
C401 C 0.95193 0.10933 0.69422 0.0
C402 C 0.85892 0.02502 0.69991 0.0
C403 C 0.84515 0.11658 0.59764 0.0
C404 C 0.74348 0.05911 0.63435 0.0
H405 H 0.94663 0.0371 0.74528 0.0
H406 H 0.9967 0.08443 0.74396 0.0
H407 H 0.98763 0.15138 0.66548 0.0
H408 H 0.93015 0.15324 0.61105 0.0
H409 H 0.75466 0.11181 0.56133 0.0
H410 H 0.69876 0.08253 0.58313 0.0
H411 H 0.70872 0.01359 0.65898 0.0
H412 H 0.77173 0.99302 0.6919 0.0
H413 H 0.83108 0.10711 0.75357 0.0
H414 H 0.82053 0.16301 0.68794 0.0
H415 H 0.79691 0.99967 0.57435 0.0
H416 H 0.93687 0.0341 0.61083 0.0
C417 C 0.41717 0.30752 0.08309 0.0
C418 C 0.40909 0.3325 0.08165 0.0
C419 C 0.43151 0.34577 0.06484 0.0
C420 C 0.45229 0.32834 0.05723 0.0
N421 N 0.44411 0.30498 0.06811 0.0
Co422 Co 0.47077 0.27516 0.06568 0.0
N423 N 0.51975 0.29878 0.0572 0.0
C424 C 0.51954 0.32268 0.04706 0.0
C425 C 0.55594 0.33386 0.04063 0.0
C426 C 0.58025 0.31572 0.04649 0.0
C427 C 0.55732 0.29429 0.05639 0.0
N428 N 0.49757 0.24519 0.0643 0.0
C429 C 0.53823 0.24557 0.06508 0.0
C430 C 0.54361 0.21987 0.06464 0.0
C431 C 0.50444 0.20287 0.06216 0.0
C432 C 0.47748 0.21902 0.06163 0.0
N433 N 0.42114 0.25177 0.07332 0.0
C434 C 0.4076 0.22496 0.06759 0.0
C435 C 0.37308 0.21456 0.07659 0.0
C436 C 0.36488 0.23623 0.08896 0.0
C437 C 0.39507 0.25861 0.08687 0.0
N438 N 0.43795 0.26696 0.02147 0.0
C439 C 0.40019 0.2643 0.95775 0.0
C440 C 0.43855 0.25641 0.97147 0.0
C441 C 0.45728 0.25857 0.003 0.0
C442 C 0.37891 0.27119 0.97673 0.0
C443 C 0.3979 0.27183 0.00847 0.0
N444 N 0.50387 0.2836 0.10951 0.0
C445 C 0.52701 0.2701 0.15957 0.0
C446 C 0.54949 0.29661 0.17249 0.0
C447 C 0.54888 0.31637 0.15312 0.0
C448 C 0.52597 0.30948 0.12184 0.0
C449 C 0.50443 0.26402 0.12805 0.0
H450 H 0.52597 0.32518 0.10764 0.0
H451 H 0.48715 0.24351 0.11874 0.0
H452 H 0.48854 0.25445 0.01213 0.0
H453 H 0.38113 0.27746 0.02253 0.0
C454 C 0.48689 0.33516 0.04672 0.0
C455 C 0.39856 0.28611 0.09792 0.0
C456 C 0.56928 0.26881 0.06063 0.0
C457 C 0.43493 0.21065 0.06181 0.0
H458 H 0.38998 0.34067 0.09206 0.0
H459 H 0.4347 0.36633 0.06058 0.0
H460 H 0.56398 0.35296 0.0327 0.0
H461 H 0.61061 0.31784 0.04275 0.0
H462 H 0.57227 0.21392 0.06471 0.0
H463 H 0.49671 0.18133 0.0611 0.0
H464 H 0.35791 0.19369 0.07637 0.0
H465 H 0.34046 0.23564 0.09912 0.0
H466 H 0.45536 0.24947 0.95813 0.0
H467 H 0.34887 0.27714 0.9675 0.0
H468 H 0.52636 0.25421 0.1737 0.0
H469 H 0.56645 0.33706 0.16196 0.0
H470 H 0.23174 0.37774 0.38974 0.0
H471 H 0.24709 0.38074 0.30205 0.0
H472 H 0.2073 0.4157 0.29159 0.0
H473 H 0.12445 0.39108 0.36714 0.0
H474 H 0.13832 0.41156 0.40279 0.0
H475 H 0.16325 0.38467 0.40157 0.0
H476 H 0.24011 0.41796 0.4261 0.0
H477 H 0.21547 0.44494 0.4273 0.0
H478 H 0.25396 0.44705 0.40826 0.0
H479 H 0.16997 0.45294 0.29256 0.0
H480 H 0.14019 0.4892 0.30522 0.0
H481 H 0.15318 0.46286 0.39333 0.0
C482 C 0.22679 0.38563 0.36824 0.0
C483 C 0.24286 0.37642 0.34677 0.0
C484 C 0.23474 0.38711 0.31875 0.0
C485 C 0.21233 0.40712 0.31267 0.0
C486 C 0.19814 0.41621 0.3348 0.0
C487 C 0.20503 0.40572 0.362 0.0
C488 C 0.1891 0.41993 0.3829 0.0
C489 C 0.15155 0.40066 0.38894 0.0
C490 C 0.22692 0.43326 0.4129 0.0
C491 C 0.17296 0.44051 0.36353 0.0
C492 C 0.17781 0.43786 0.33567 0.0
C493 C 0.1658 0.45503 0.31423 0.0
C494 C 0.14878 0.47552 0.32157 0.0
C495 C 0.14442 0.4789 0.35027 0.0
C496 C 0.15641 0.46093 0.37131 0.0
H497 H 0.24053 0.72711 0.72548 0.0
H498 H 0.13202 0.76123 0.71639 0.0
H499 H 0.09017 0.71866 0.72561 0.0
H500 H 0.17331 0.66077 0.68705 0.0
H501 H 0.20958 0.64373 0.71163 0.0
H502 H 0.23107 0.6769 0.70432 0.0
H503 H 0.26543 0.69306 0.76245 0.0
H504 H 0.24387 0.65998 0.76992 0.0
H505 H 0.23108 0.68816 0.78486 0.0
H506 H 0.06171 0.67341 0.73853 0.0
H507 H 0.04652 0.62709 0.75088 0.0
H508 H 0.17072 0.62091 0.74771 0.0
C509 C 0.20791 0.7255 0.72536 0.0
C510 C 0.18937 0.74737 0.72019 0.0
C511 C 0.14656 0.74458 0.72004 0.0
C512 C 0.12266 0.72056 0.72538 0.0
C513 C 0.14182 0.69938 0.73047 0.0
C514 C 0.18324 0.70145 0.73015 0.0
C515 C 0.19581 0.67544 0.73577 0.0
C516 C 0.20285 0.66351 0.70804 0.0
C517 C 0.23646 0.67941 0.76499 0.0
C518 C 0.15525 0.65859 0.73969 0.0
C519 C 0.12466 0.67288 0.73678 0.0
C520 C 0.08523 0.66195 0.74059 0.0
C521 C 0.07687 0.63571 0.74756 0.0
C522 C 0.1076 0.62068 0.75041 0.0
C523 C 0.14699 0.63217 0.74602 0.0
H524 H 0.85705 0.73473 0.35295 0.0
H525 H 0.95256 0.80171 0.41717 0.0
H526 H 0.00404 0.77351 0.43407 0.0
H527 H 0.8799 0.68406 0.40192 0.0
H528 H 0.87154 0.65923 0.37105 0.0
H529 H 0.84263 0.68474 0.36406 0.0
H530 H 0.87337 0.6988 0.32199 0.0
H531 H 0.90213 0.67324 0.32871 0.0
H532 H 0.93167 0.70751 0.33105 0.0
H533 H 0.04641 0.73841 0.44155 0.0
H534 H 0.07499 0.69869 0.44073 0.0
H535 H 0.94983 0.65402 0.37406 0.0
C536 C 0.88893 0.74347 0.37045 0.0
C537 C 0.90116 0.77045 0.38358 0.0
C538 C 0.94273 0.78109 0.40683 0.0
C539 C 0.97209 0.76523 0.41652 0.0
C540 C 0.959 0.73867 0.40306 0.0
C541 C 0.91824 0.72783 0.3807 0.0
C542 C 0.91187 0.6987 0.3701 0.0
C543 C 0.87425 0.68062 0.37722 0.0
C544 C 0.90433 0.69432 0.33594 0.0
C545 C 0.95566 0.69488 0.38964 0.0
C546 C 0.98251 0.71821 0.40842 0.0
C547 C 0.02544 0.71996 0.42728 0.0
C548 C 0.04138 0.69738 0.42672 0.0
C549 C 0.01427 0.67332 0.40778 0.0
C550 C 0.97078 0.67203 0.38928 0.0
H551 H 0.87343 0.3731 0.89027 0.0
H552 H 0.93947 0.32086 0.86149 0.0
H553 H 0.97841 0.35825 0.84222 0.0
H554 H 0.85627 0.40822 0.82629 0.0
H555 H 0.86563 0.44031 0.84718 0.0
H556 H 0.84538 0.41014 0.86108 0.0
H557 H 0.91029 0.42517 0.91281 0.0
H558 H 0.93054 0.45552 0.89914 0.0
H559 H 0.9655 0.43391 0.91334 0.0
H560 H 0.00698 0.40012 0.82351 0.0
H561 H 0.02493 0.44491 0.80754 0.0
H562 H 0.94044 0.47034 0.84773 0.0
C563 C 0.89674 0.36978 0.88043 0.0
C564 C 0.90357 0.34418 0.87734 0.0
C565 C 0.93371 0.34034 0.86389 0.0
C566 C 0.95602 0.36144 0.85296 0.0
C567 C 0.94787 0.38628 0.85567 0.0
C568 C 0.91917 0.39066 0.86918 0.0
C569 C 0.91505 0.41907 0.86794 0.0
C570 C 0.86777 0.41944 0.84952 0.0
C571 C 0.93133 0.43432 0.90023 0.0
C572 C 0.94549 0.4298 0.85133 0.0
C573 C 0.9642 0.41054 0.8446 0.0
C574 C 0.99277 0.41543 0.8288 0.0
C575 C 0.00266 0.44076 0.81976 0.0
C576 C 0.98392 0.46068 0.82649 0.0
C577 C 0.95504 0.45522 0.84245 0.0
H578 H 0.30986 0.23232 0.36419 0.0
H579 H 0.252 0.20318 0.26714 0.0
H580 H 0.2416 0.15692 0.27883 0.0
H581 H 0.36476 0.18135 0.38834 0.0
H582 H 0.35256 0.17889 0.42264 0.0
H583 H 0.35755 0.20999 0.40693 0.0
H584 H 0.28007 0.21049 0.40485 0.0
H585 H 0.27494 0.17945 0.42068 0.0
H586 H 0.23436 0.18211 0.385 0.0
H587 H 0.23865 0.1137 0.30071 0.0
H588 H 0.23812 0.07635 0.33161 0.0
H589 H 0.2917 0.13293 0.41425 0.0
C590 C 0.29458 0.21632 0.34529 0.0
C591 C 0.28232 0.22172 0.31463 0.0
C592 C 0.26288 0.19987 0.2908 0.0
C593 C 0.25647 0.17341 0.29719 0.0
C594 C 0.26907 0.16891 0.32755 0.0
C595 C 0.28728 0.18972 0.35124 0.0
C596 C 0.29656 0.17931 0.38186 0.0
C597 C 0.34579 0.1879 0.40107 0.0
C598 C 0.26988 0.18838 0.39911 0.0
C599 C 0.28068 0.1494 0.37164 0.0
C600 C 0.26537 0.14389 0.3402 0.0
C601 C 0.24999 0.11777 0.32531 0.0
C602 C 0.24966 0.09673 0.34297 0.0
C603 C 0.26372 0.10189 0.37512 0.0
C604 C 0.28003 0.12856 0.38964 0.0
H605 H 0.34766 0.7927 0.76447 0.0
H606 H 0.30181 0.86407 0.7637 0.0
H607 H 0.36812 0.88614 0.80818 0.0
H608 H 0.38702 0.79393 0.84329 0.0
H609 H 0.43392 0.78209 0.84551 0.0
H610 H 0.38593 0.77321 0.81122 0.0
H611 H 0.43278 0.7929 0.77979 0.0
H612 H 0.48102 0.80187 0.81406 0.0
H613 H 0.46602 0.82699 0.79041 0.0
H614 H 0.43437 0.89838 0.85644 0.0
H615 H 0.49669 0.90014 0.90411 0.0
H616 H 0.49997 0.82114 0.87341 0.0
C617 C 0.35187 0.81311 0.77339 0.0
C618 C 0.31961 0.8267 0.7604 0.0
C619 C 0.32638 0.85339 0.77281 0.0
C620 C 0.36389 0.86608 0.79819 0.0
C621 C 0.39457 0.85191 0.8108 0.0
C622 C 0.38915 0.82608 0.79867 0.0
C623 C 0.42546 0.81462 0.81772 0.0
C624 C 0.40697 0.78949 0.83017 0.0
C625 C 0.45295 0.80876 0.7994 0.0
C626 C 0.45138 0.83773 0.84299 0.0
C627 C 0.43321 0.85914 0.83846 0.0
C628 C 0.44937 0.88196 0.85995 0.0
C629 C 0.48463 0.88277 0.88696 0.0
C630 C 0.50342 0.86095 0.89216 0.0
C631 C 0.48696 0.83838 0.86961 0.0
H632 H 0.77892 0.89999 0.44813 0.0
H633 H 0.89249 0.87094 0.49139 0.0
H634 H 0.92387 0.91082 0.53088 0.0
H635 H 0.83785 0.97248 0.46474 0.0
H636 H 0.79271 0.98147 0.4708 0.0
H637 H 0.78263 0.95255 0.44424 0.0
H638 H 0.7403 0.92322 0.47323 0.0
H639 H 0.75058 0.95191 0.50001 0.0
H640 H 0.76697 0.9227 0.51349 0.0
H641 H 0.93711 0.95083 0.56945 0.0
H642 H 0.93311 0.98806 0.60177 0.0
H643 H 0.81243 0.99185 0.53103 0.0
C644 C 0.81086 0.90235 0.46557 0.0
C645 C 0.83341 0.8825 0.46684 0.0
C646 C 0.875 0.88612 0.48995 0.0
C647 C 0.89292 0.90864 0.51247 0.0
C648 C 0.86911 0.9275 0.5111 0.0
C649 C 0.82929 0.92475 0.48787 0.0
C650 C 0.8089 0.94686 0.49228 0.0
C651 C 0.80533 0.96438 0.46648 0.0
C652 C 0.76405 0.93548 0.49492 0.0
C653 C 0.84253 0.96194 0.52227 0.0
C654 C 0.87722 0.95068 0.53274 0.0
C655 C 0.91055 0.96014 0.56111 0.0
C656 C 0.90808 0.98143 0.57929 0.0
C657 C 0.87247 0.99308 0.56908 0.0
C658 C 0.83991 0.98338 0.53983 0.0
H659 H 0.79971 0.30697 0.0407 0.0
H660 H 0.74102 0.24967 0.95807 0.0
H661 H 0.67275 0.23665 0.9684 0.0
H662 H 0.75014 0.26476 0.08641 0.0
H663 H 0.74316 0.29264 0.10649 0.0
H664 H 0.78772 0.29735 0.09279 0.0
H665 H 0.76157 0.33479 0.06298 0.0
H666 H 0.71706 0.33021 0.07664 0.0
H667 H 0.70605 0.32774 0.03624 0.0
H668 H 0.60903 0.23255 0.98549 0.0
H669 H 0.55552 0.23647 0.00922 0.0
H670 H 0.65785 0.29237 0.08371 0.0
C671 C 0.77297 0.29128 0.02499 0.0
C672 C 0.77607 0.27949 0.99842 0.0
C673 C 0.73952 0.25948 0.97825 0.0
C674 C 0.70064 0.25171 0.98409 0.0
C675 C 0.69889 0.26377 0.01045 0.0
C676 C 0.73421 0.28294 0.03072 0.0
C677 C 0.72363 0.29309 0.05718 0.0
C678 C 0.75291 0.28656 0.08751 0.0
C679 C 0.7273 0.32324 0.05831 0.0
C680 C 0.67655 0.27691 0.04838 0.0
C681 C 0.66286 0.26021 0.02124 0.0
C682 C 0.61965 0.24503 0.00711 0.0
C683 C 0.58957 0.24724 0.02083 0.0
C684 C 0.60294 0.26413 0.0487 0.0
C685 C 0.64717 0.27877 0.06285 0.0
H686 H 0.18495 0.85859 0.56818 0.0
H687 H 0.25149 0.90697 0.65661 0.0
H688 H 0.27979 0.94483 0.63225 0.0
H689 H 0.27092 0.8862 0.53621 0.0
H690 H 0.23065 0.88418 0.4987 0.0
H691 H 0.22 0.86041 0.52373 0.0
H692 H 0.14808 0.87312 0.51775 0.0
H693 H 0.15883 0.89721 0.49316 0.0
H694 H 0.15005 0.90754 0.52701 0.0
H695 H 0.29147 0.97913 0.59694 0.0
H696 H 0.29208 0.00547 0.55421 0.0
H697 H 0.22318 0.93338 0.48969 0.0
C698 C 0.2065 0.87696 0.58242 0.0
C699 C 0.21642 0.87998 0.61421 0.0
C700 C 0.24415 0.90429 0.63225 0.0
C701 C 0.26012 0.92587 0.61858 0.0
C702 C 0.24866 0.92253 0.58697 0.0
C703 C 0.2233 0.89844 0.56922 0.0
C704 C 0.21432 0.90021 0.53569 0.0
C705 C 0.23523 0.88165 0.52283 0.0
C706 C 0.16489 0.89417 0.51734 0.0
C707 C 0.23719 0.92928 0.53718 0.0
C708 C 0.25675 0.94191 0.56691 0.0
C709 C 0.2769 0.96933 0.57363 0.0
C710 C 0.27694 0.98413 0.54933 0.0
C711 C 0.25704 0.97146 0.51882 0.0
C712 C 0.23796 0.9436 0.51284 0.0
H713 H 0.84618 0.81708 0.28711 0.0
H714 H 0.72737 0.78187 0.30336 0.0
H715 H 0.68373 0.78072 0.24889 0.0
H716 H 0.80061 0.85991 0.23503 0.0
H717 H 0.8308 0.85645 0.21077 0.0
H718 H 0.85319 0.85298 0.25061 0.0
H719 H 0.86085 0.80617 0.23639 0.0
H720 H 0.83854 0.80952 0.19649 0.0
H721 H 0.81356 0.78113 0.21101 0.0
H722 H 0.65295 0.78376 0.1933 0.0
H723 H 0.63615 0.79282 0.14005 0.0
H724 H 0.77426 0.82789 0.15946 0.0
C725 C 0.81102 0.80888 0.279 0.0
C726 C 0.78998 0.79944 0.29925 0.0
C727 C 0.74393 0.78923 0.28811 0.0
C728 C 0.71896 0.78842 0.25725 0.0
C729 C 0.74053 0.79811 0.23787 0.0
C730 C 0.78546 0.8083 0.24825 0.0
C731 C 0.80007 0.8186 0.22279 0.0
C732 C 0.82248 0.84878 0.23025 0.0
C733 C 0.83002 0.80291 0.21629 0.0
C734 C 0.75632 0.81267 0.19657 0.0
C735 C 0.72253 0.80059 0.20577 0.0
C736 C 0.67913 0.79313 0.18577 0.0
C737 C 0.66994 0.79823 0.15555 0.0
C738 C 0.7039 0.81089 0.14559 0.0
C739 C 0.74767 0.81822 0.16646 0.0
H740 H 0.86713 0.23152 0.87452 0.0
H741 H 0.76338 0.2643 0.82035 0.0
H742 H 0.74365 0.22877 0.7774 0.0
H743 H 0.90375 0.2198 0.81767 0.0
H744 H 0.91738 0.18912 0.82804 0.0
H745 H 0.91751 0.21316 0.85666 0.0
H746 H 0.86256 0.17729 0.87098 0.0
H747 H 0.86275 0.1529 0.84269 0.0
H748 H 0.81182 0.15879 0.8417 0.0
H749 H 0.74303 0.1947 0.73827 0.0
H750 H 0.75916 0.163 0.70606 0.0
H751 H 0.86462 0.15269 0.78522 0.0
C752 C 0.83896 0.23031 0.85408 0.0
C753 C 0.8158 0.24998 0.8508 0.0
C754 C 0.78056 0.24885 0.82333 0.0
C755 C 0.76932 0.22885 0.79888 0.0
C756 C 0.79381 0.21023 0.80233 0.0
C757 C 0.82762 0.21058 0.82936 0.0
C758 C 0.85198 0.19029 0.82598 0.0
C759 C 0.90051 0.20392 0.83246 0.0
C760 C 0.84696 0.16852 0.84656 0.0
C761 C 0.82761 0.17917 0.7926 0.0
C762 C 0.79389 0.19073 0.77948 0.0
C763 C 0.76884 0.18517 0.7484 0.0
C764 C 0.7785 0.16734 0.73024 0.0
C765 C 0.81303 0.15534 0.74316 0.0
C766 C 0.8375 0.16117 0.77483 0.0
H767 H 0.37016 0.27023 0.25801 0.0
H768 H 0.26412 0.30811 0.22761 0.0
H769 H 0.27837 0.31523 0.17995 0.0
H770 H 0.44252 0.31406 0.22644 0.0
H771 H 0.46284 0.2874 0.21613 0.0
H772 H 0.44561 0.28649 0.24837 0.0
H773 H 0.39175 0.23987 0.22475 0.0
H774 H 0.4088 0.24067 0.19247 0.0
H775 H 0.35175 0.23561 0.18668 0.0
H776 H 0.29952 0.31388 0.13339 0.0
H777 H 0.32988 0.30757 0.09347 0.0
H778 H 0.4255 0.27359 0.1557 0.0
C779 C 0.3502 0.28021 0.24139 0.0
C780 C 0.31592 0.28857 0.24638 0.0
C781 C 0.29067 0.30172 0.22426 0.0
C782 C 0.29846 0.30576 0.19713 0.0
C783 C 0.33211 0.29692 0.1927 0.0
C784 C 0.358 0.28476 0.21443 0.0
C785 C 0.39176 0.27686 0.20399 0.0
C786 C 0.43845 0.29212 0.22498 0.0
C787 C 0.38562 0.24645 0.20184 0.0
C788 C 0.38018 0.2859 0.17271 0.0
C789 C 0.34564 0.29738 0.16657 0.0
C790 C 0.32738 0.30564 0.1383 0.0
C791 C 0.34508 0.30226 0.11586 0.0
C792 C 0.38118 0.29121 0.12204 0.0
C793 C 0.39865 0.2828 0.15076 0.0
H794 H 0.95237 0.73694 0.88452 0.0
H795 H 0.90878 0.76167 0.79463 0.0
H796 H 0.91698 0.72032 0.77225 0.0
H797 H 0.03438 0.70959 0.87445 0.0
H798 H 0.02554 0.68208 0.89562 0.0
H799 H 0.01346 0.71271 0.90449 0.0
H800 H 0.93406 0.68649 0.89626 0.0
H801 H 0.94596 0.65574 0.88749 0.0
H802 H 0.90082 0.66528 0.8607 0.0
H803 H 0.93229 0.67759 0.75986 0.0
H804 H 0.95488 0.63598 0.75807 0.0
H805 H 0.98945 0.63867 0.85603 0.0
C806 C 0.94396 0.73337 0.86009 0.0
C807 C 0.92985 0.75236 0.84122 0.0
C808 C 0.91985 0.74735 0.80942 0.0
C809 C 0.92423 0.72393 0.79652 0.0
C810 C 0.93878 0.70576 0.81576 0.0
C811 C 0.94855 0.71015 0.84684 0.0
C812 C 0.96546 0.6879 0.86247 0.0
C813 C 0.01251 0.69873 0.88562 0.0
C814 C 0.93473 0.67296 0.87762 0.0
C815 C 0.96398 0.67047 0.83532 0.0
C816 C 0.94816 0.68109 0.8086 0.0
C817 C 0.94434 0.66892 0.78057 0.0
C818 C 0.95704 0.64522 0.77977 0.0
C819 C 0.97349 0.63395 0.80686 0.0
C820 C 0.97702 0.64683 0.83498 0.0
H821 H 0.88683 0.37361 0.38824 0.0
H822 H 0.85787 0.39306 0.46807 0.0
H823 H 0.90966 0.43774 0.47785 0.0
H824 H 0.00513 0.41148 0.42025 0.0
H825 H 0.00377 0.42177 0.38394 0.0
H826 H 0.96855 0.39024 0.38541 0.0
H827 H 0.90119 0.40437 0.35074 0.0
H828 H 0.93608 0.43598 0.34941 0.0
H829 H 0.8913 0.43507 0.36221 0.0
H830 H 0.95381 0.48241 0.47356 0.0
H831 H 0.99517 0.52242 0.45939 0.0
H832 H 1.00097 0.47344 0.38502 0.0
C833 C 0.89232 0.38708 0.4082 0.0
C834 C 0.86867 0.37987 0.42756 0.0
C835 C 0.87625 0.39804 0.45329 0.0
C836 C 0.90538 0.4235 0.45891 0.0
C837 C 0.92721 0.4303 0.43887 0.0
C838 C 0.92177 0.41244 0.41438 0.0
C839 C 0.94759 0.4252 0.39551 0.0
C840 C 0.98339 0.41134 0.39634 0.0
C841 C 0.91721 0.42515 0.36252 0.0
C842 C 0.96717 0.45326 0.41261 0.0
C843 C 0.95492 0.45579 0.43751 0.0
C844 C 0.96509 0.48045 0.45489 0.0
C845 C 0.98883 0.50303 0.44683 0.0
C846 C 0.00312 0.50068 0.42213 0.0
C847 C 0.99187 0.47549 0.40475 0.0
H848 H 0.17719 0.33452 0.75612 0.0
H849 H 0.22243 0.35961 0.68312 0.0
H850 H 0.20041 0.40107 0.68603 0.0
H851 H 0.08466 0.36268 0.73553 0.0
H852 H 0.09263 0.37352 0.77442 0.0
H853 H 0.10979 0.34485 0.7657 0.0
H854 H 0.1882 0.36691 0.80423 0.0
H855 H 0.17134 0.39572 0.81294 0.0
H856 H 0.21683 0.39973 0.80027 0.0
H857 H 0.17412 0.43981 0.69642 0.0
H858 H 0.14531 0.47409 0.71445 0.0
H859 H 0.12141 0.4261 0.783 0.0
C860 C 0.18251 0.3487 0.74074 0.0
C861 C 0.2009 0.34335 0.71899 0.0
C862 C 0.20716 0.3626 0.69932 0.0
C863 C 0.19522 0.38646 0.70101 0.0
C864 C 0.17751 0.3911 0.72274 0.0
C865 C 0.17125 0.37288 0.74234 0.0
C866 C 0.15252 0.38327 0.7641 0.0
C867 C 0.10721 0.36499 0.75966 0.0
C868 C 0.18412 0.38661 0.79736 0.0
C869 C 0.14925 0.41014 0.75354 0.0
C870 C 0.16369 0.41412 0.72954 0.0
C871 C 0.16288 0.43702 0.71528 0.0
C872 C 0.14648 0.45633 0.72562 0.0
C873 C 0.13146 0.45271 0.75014 0.0
C874 C 0.13328 0.42944 0.76447 0.0
H875 H 0.27296 0.74685 0.31289 0.0
H876 H 0.26104 0.7021 0.22877 0.0
H877 H 0.23554 0.66038 0.24693 0.0
H878 H 0.30062 0.69861 0.36453 0.0
H879 H 0.2655 0.70399 0.38431 0.0
H880 H 0.28969 0.73076 0.36731 0.0
H881 H 0.21283 0.73602 0.33607 0.0
H882 H 0.18855 0.70956 0.35328 0.0
H883 H 0.17103 0.70731 0.31234 0.0
H884 H 0.20933 0.62293 0.27321 0.0
H885 H 0.17353 0.59342 0.3024 0.0
H886 H 0.19086 0.6625 0.36463 0.0
C887 C 0.26509 0.72845 0.29808 0.0
C888 C 0.27093 0.7283 0.26968 0.0
C889 C 0.25952 0.70329 0.25132 0.0
C890 C 0.24441 0.67921 0.26128 0.0
C891 C 0.23944 0.68021 0.28932 0.0
C892 C 0.24842 0.70418 0.30714 0.0
C893 C 0.23518 0.69982 0.33457 0.0
C894 C 0.27514 0.70883 0.36445 0.0
C895 C 0.19979 0.71401 0.33401 0.0
C896 C 0.21705 0.6697 0.32913 0.0
C897 C 0.22089 0.65871 0.30333 0.0
C898 C 0.20619 0.63127 0.29352 0.0
C899 C 0.18613 0.61468 0.3102 0.0
C900 C 0.1802 0.6257 0.33589 0.0
C901 C 0.19607 0.65354 0.3455 0.0
H902 H 0.96667 0.91128 0.77295 0.0
H903 H 0.90421 0.91319 0.83924 0.0
H904 H 0.86632 0.94538 0.81214 0.0
H905 H 0.98646 0.97988 0.76517 0.0
H906 H 0.97546 0.97505 0.72481 0.0
H907 H 0.99527 0.95097 0.74829 0.0
H908 H 0.92837 0.91328 0.71352 0.0
H909 H 0.90835 0.9373 0.68993 0.0
H910 H 0.87392 0.91645 0.70662 0.0
H911 H 0.8416 0.98076 0.78093 0.0
H912 H 0.82828 0.01471 0.74605 0.0
H913 H 0.90362 0.9879 0.69853 0.0
C914 C 0.94483 0.91839 0.78167 0.0
C915 C 0.93842 0.90987 0.80824 0.0
C916 C 0.90929 0.91936 0.8188 0.0
C917 C 0.88777 0.93767 0.80361 0.0
C918 C 0.89532 0.94595 0.77771 0.0
C919 C 0.92282 0.93641 0.76664 0.0
C920 C 0.92625 0.94894 0.73883 0.0
C921 C 0.97367 0.96464 0.74464 0.0
C922 C 0.90813 0.92772 0.71055 0.0
C923 C 0.89706 0.96746 0.7363 0.0
C924 C 0.87955 0.96546 0.75895 0.0
C925 C 0.85417 0.982 0.76263 0.0
C926 C 0.84656 1.00108 0.74266 0.0
C927 C 0.86361 0.0031 0.71903 0.0
C928 C 0.88912 0.98606 0.71585 0.0
H929 H 0.72593 0.28832 0.33419 0.0
H930 H 0.71664 0.36582 0.36448 0.0
H931 H 0.65655 0.36402 0.31556 0.0
H932 H 0.71076 0.30016 0.25804 0.0
H933 H 0.67948 0.26649 0.24098 0.0
H934 H 0.71868 0.27261 0.27942 0.0
H935 H 0.65808 0.24817 0.29835 0.0
H936 H 0.61863 0.24206 0.25991 0.0
H937 H 0.60884 0.25903 0.28998 0.0
H938 H 0.59991 0.35474 0.26325 0.0
H939 H 0.55335 0.34012 0.20909 0.0
H940 H 0.6017 0.26958 0.21123 0.0
C941 C 0.71068 0.30465 0.3305 0.0
C942 C 0.72539 0.32715 0.3529 0.0
C943 C 0.70552 0.34846 0.34739 0.0
C944 C 0.67134 0.34754 0.31983 0.0
C945 C 0.65768 0.32521 0.29799 0.0
C946 C 0.67685 0.30422 0.30285 0.0
C947 C 0.65808 0.28356 0.27467 0.0
C948 C 0.69388 0.28054 0.26257 0.0
C949 C 0.63451 0.25661 0.28112 0.0
C950 C 0.62591 0.29643 0.25315 0.0
C951 C 0.6258 0.32024 0.26726 0.0
C952 C 0.5997 0.33614 0.25192 0.0
C953 C 0.57359 0.32775 0.22111 0.0
C954 C 0.57413 0.30383 0.20583 0.0
C955 C 0.60015 0.28779 0.22232 0.0
H956 H 0.20365 0.21739 0.56666 0.0
H957 H 0.29302 0.21439 0.65733 0.0
H958 H 0.30254 0.17182 0.63865 0.0
H959 H 0.15353 0.14449 0.54552 0.0
H960 H 0.14988 0.14588 0.50657 0.0
H961 H 0.14632 0.17415 0.52814 0.0
H962 H 0.21035 0.20449 0.51668 0.0
H963 H 0.21441 0.17633 0.49536 0.0
H964 H 0.26164 0.19581 0.52676 0.0
H965 H 0.30896 0.13251 0.60823 0.0
H966 H 0.30753 0.09808 0.56969 0.0
H967 H 0.2138 0.12725 0.4992 0.0
C968 C 0.22464 0.20752 0.58272 0.0
C969 C 0.24763 0.21915 0.61345 0.0
C970 C 0.27472 0.20564 0.63379 0.0
C971 C 0.28048 0.18155 0.62332 0.0
C972 C 0.25848 0.17113 0.59257 0.0
C973 C 0.23059 0.18352 0.57269 0.0
C974 C 0.2125 0.16913 0.54045 0.0
C975 C 0.16259 0.15773 0.52954 0.0
C976 C 0.22552 0.18754 0.51854 0.0
C977 C 0.23547 0.14707 0.54504 0.0
C978 C 0.26174 0.14846 0.57525 0.0
C979 C 0.28801 0.13103 0.58461 0.0
C980 C 0.28726 0.11169 0.56254 0.0
C981 C 0.26037 0.1099 0.5315 0.0
C982 C 0.23404 0.1278 0.52283 0.0
H983 H 0.45753 0.77923 0.16875 0.0
H984 H 0.38364 0.83822 0.15669 0.0
H985 H 0.43463 0.86628 0.13598 0.0
H986 H 0.56971 0.82891 0.18638 0.0
H987 H 0.58561 0.80571 0.16584 0.0
H988 H 0.54986 0.79345 0.18606 0.0
H989 H 0.49278 0.7643 0.13639 0.0
H990 H 0.52811 0.77645 0.11605 0.0
H991 H 0.47308 0.77995 0.10275 0.0
H992 H 0.48026 0.8811 0.10482 0.0
H993 H 0.52241 0.88432 0.07084 0.0
H994 H 0.57178 0.81812 0.10675 0.0
C995 C 0.45347 0.79865 0.16301 0.0
C996 C 0.41723 0.80687 0.16452 0.0
C997 C 0.41181 0.83196 0.15616 0.0
C998 C 0.44053 0.84793 0.14433 0.0
C999 C 0.47491 0.83868 0.14173 0.0
C1000 C 0.48218 0.81492 0.15159 0.0
C1001 C 0.51834 0.808 0.14332 0.0
C1002 C 0.55825 0.80909 0.17212 0.0
C1003 C 0.50206 0.78057 0.12345 0.0
C1004 C 0.52817 0.83055 0.12541 0.0
C1005 C 0.50317 0.84824 0.12503 0.0
C1006 C 0.5016 0.86823 0.10613 0.0
C1007 C 0.52585 0.87005 0.08704 0.0
C1008 C 0.55193 0.8523 0.08741 0.0
C1009 C 0.55353 0.83262 0.10716 0.0
H1010 H 0.81448 0.25702 0.54916 0.0
H1011 H 0.78933 0.22574 0.45601 0.0
H1012 H 0.80817 0.18445 0.4737 0.0
H1013 H 0.90481 0.22742 0.58667 0.0
H1014 H 0.88715 0.22065 0.61826 0.0
H1015 H 0.8768 0.24878 0.59859 0.0
H1016 H 0.79403 0.23095 0.58846 0.0
H1017 H 0.8041 0.20277 0.60796 0.0
H1018 H 0.76541 0.19746 0.56934 0.0
H1019 H 0.82238 0.14447 0.50137 0.0
H1020 H 0.83313 0.11045 0.53691 0.0
H1021 H 0.8474 0.16822 0.61103 0.0
C1022 C 0.81335 0.24162 0.53247 0.0
C1023 C 0.80038 0.24461 0.50118 0.0
C1024 C 0.7997 0.22405 0.48015 0.0
C1025 C 0.81014 0.20047 0.48997 0.0
C1026 C 0.82153 0.19789 0.52092 0.0
C1027 C 0.82356 0.21807 0.54186 0.0
C1028 C 0.83418 0.20996 0.57352 0.0
C1029 C 0.87837 0.22776 0.59556 0.0
C1030 C 0.79722 0.2103 0.5855 0.0
C1031 C 0.83676 0.18179 0.56709 0.0
C1032 C 0.82976 0.17516 0.5367 0.0
C1033 C 0.82857 0.14962 0.52528 0.0
C1034 C 0.83463 0.13046 0.54547 0.0
C1035 C 0.84172 0.13707 0.57653 0.0
C1036 C 0.84285 0.16301 0.5874 0.0
H1037 H 0.23273 0.27402 0.79174 0.0
H1038 H 0.34355 0.28811 0.76234 0.0
H1039 H 0.3907 0.28158 0.8132 0.0
H1040 H 0.28881 0.30779 0.86614 0.0
H1041 H 0.25999 0.28444 0.88427 0.0
H1042 H 0.23367 0.2881 0.8449 0.0
H1043 H 0.21909 0.23736 0.82928 0.0
H1044 H 0.24491 0.23348 0.86868 0.0
H1045 H 0.26408 0.22225 0.84034 0.0
H1046 H 0.42726 0.27977 0.86813 0.0
H1047 H 0.45073 0.27689 0.92272 0.0
H1048 H 0.31529 0.25914 0.9167 0.0
C1049 C 0.26677 0.27523 0.79596 0.0
C1050 C 0.28457 0.28139 0.77313 0.0
C1051 C 0.32922 0.283 0.77938 0.0
C1052 C 0.35626 0.2795 0.80823 0.0
C1053 C 0.33796 0.27401 0.83041 0.0
C1054 C 0.29413 0.27134 0.82455 0.0
C1055 C 0.28318 0.26575 0.85276 0.0
C1056 C 0.26537 0.28784 0.86259 0.0
C1057 C 0.25091 0.23806 0.84744 0.0
C1058 C 0.328 0.26641 0.87557 0.0
C1059 C 0.35899 0.27138 0.8621 0.0
C1060 C 0.40313 0.27496 0.87875 0.0
C1061 C 0.41603 0.27296 0.90992 0.0
C1062 C 0.3849 0.26672 0.92437 0.0
C1063 C 0.34016 0.26363 0.90671 0.0
H1064 H 0.3146 0.82433 0.31297 0.0
H1065 H 0.25462 0.83569 0.21862 0.0
H1066 H 0.24085 0.87737 0.23563 0.0
H1067 H 0.24228 0.84755 0.34138 0.0
H1068 H 0.2844 0.86403 0.3771 0.0
H1069 H 0.29007 0.83547 0.35741 0.0
H1070 H 0.36481 0.86321 0.35756 0.0
H1071 H 0.35943 0.89184 0.37736 0.0
H1072 H 0.36815 0.89434 0.3418 0.0
H1073 H 0.23049 0.91673 0.26334 0.0
H1074 H 0.22746 0.95155 0.29914 0.0
H1075 H 0.29842 0.91557 0.37533 0.0
C1076 C 0.29854 0.83561 0.2959 0.0
C1077 C 0.28556 0.8268 0.26448 0.0
C1078 C 0.2651 0.84222 0.24281 0.0
C1079 C 0.25699 0.86583 0.25226 0.0
C1080 C 0.26998 0.87387 0.28345 0.0
C1081 C 0.29068 0.85933 0.30493 0.0
C1082 C 0.30171 0.87235 0.33704 0.0
C1083 C 0.27821 0.85374 0.35423 0.0
C1084 C 0.35148 0.88095 0.35446 0.0
C1085 C 0.28347 0.89632 0.33031 0.0
C1086 C 0.26518 0.89683 0.2993 0.0
C1087 C 0.24521 0.9167 0.28768 0.0
C1088 C 0.24394 0.93655 0.30828 0.0
C1089 C 0.26283 0.93659 0.34026 0.0
C1090 C 0.28305 0.91614 0.35116 0.0
H1091 H 0.83791 0.82934 0.88237 0.0
H1092 H 0.90573 0.77586 0.93513 0.0
H1093 H 0.86377 0.77552 0.96911 0.0
H1094 H 0.833 0.86849 0.94536 0.0
H1095 H 0.7791 0.87183 0.92441 0.0
H1096 H 0.81482 0.86801 0.90456 0.0
H1097 H 0.7554 0.82692 0.86946 0.0
H1098 H 0.71953 0.83061 0.88922 0.0
H1099 H 0.73305 0.79931 0.88628 0.0
H1100 H 0.81451 0.78148 0.99768 0.0
H1101 H 0.76091 0.79293 0.01785 0.0
H1102 H 0.72447 0.84128 0.94545 0.0
C1103 C 0.84418 0.81774 0.90123 0.0
C1104 C 0.87512 0.80267 0.9062 0.0
C1105 C 0.88192 0.7874 0.93082 0.0
C1106 C 0.85839 0.78716 0.95028 0.0
C1107 C 0.828 0.80218 0.94469 0.0
C1108 C 0.82075 0.81711 0.92069 0.0
C1109 C 0.78575 0.83115 0.91927 0.0
C1110 C 0.80429 0.86168 0.92367 0.0
C1111 C 0.74609 0.8214 0.88928 0.0
C1112 C 0.77461 0.82193 0.9463 0.0
C1113 C 0.79938 0.80529 0.96078 0.0
C1114 C 0.795 0.79451 0.98654 0.0
C1115 C 0.76466 0.80107 0.99785 0.0
C1116 C 0.73939 0.8182 0.98337 0.0
C1117 C 0.74404 0.82842 0.95709 0.0
loop_
_geom_bond_atom_site_label_1
_geom_bond_atom_site_label_2
_geom_bond_distance
_geom_bond_site_symmetry_2
_ccdc_geom_bond_type
H0 C1 0.949 . S
C1 H0 0.949 . S
C1 C2 1.395 . S
C1 C3 1.391 . S
C2 C1 1.395 . S
C2 C5 1.390 . S
C3 C1 1.391 . S
C3 C7 1.387 . S
C3 C8 1.491 . S
H4 C5 0.950 . S
C5 C2 1.390 . S
C5 H4 0.950 . S
C5 C6 1.378 . S
C6 C5 1.378 . S
C6 C7 1.409 . S
C7 C3 1.387 . S
C7 C6 1.409 . S
C7 H9 0.951 . S
C8 C3 1.491 . S
C8 C10 1.382 . S
C8 C12 1.404 . S
H9 C7 0.951 . S
C10 C8 1.382 . S
C10 C11 1.390 . S
C10 H15 0.949 . S
C11 C10 1.390 . S
C11 C16 1.399 . S
C12 C8 1.404 . S
C12 H13 0.950 . S
C12 C14 1.375 . S
H13 C12 0.950 . S
C14 C12 1.375 . S
C14 C16 1.382 . S
C14 H18 0.950 . S
H15 C10 0.949 . S
C16 C11 1.399 . S
C16 C14 1.382 . S
C16 H17 0.952 . S
H17 C16 0.952 . S
H18 C14 0.950 . S
H19 C20 0.949 . S
C20 H19 0.949 . S
C20 C21 1.395 . S
C20 C22 1.391 . S
C21 C20 1.395 . S
C21 C24 1.390 . S
C22 C20 1.391 . S
C22 C26 1.387 . S
C22 C27 1.491 . S
H23 C24 0.950 . S
C24 C21 1.390 . S
C24 H23 0.950 . S
C24 C25 1.378 . S
C25 C24 1.378 . S
C25 C26 1.409 . S
C26 C22 1.387 . S
C26 C25 1.409 . S
C26 H28 0.951 . S
C27 C22 1.491 . S
C27 C29 1.382 . S
C27 C31 1.404 . S
H28 C26 0.951 . S
C29 C27 1.382 . S
C29 C30 1.390 . S
C29 H34 0.949 . S
C30 C29 1.390 . S
C30 C35 1.399 . S
C31 C27 1.404 . S
C31 H32 0.950 . S
C31 C33 1.375 . S
H32 C31 0.950 . S
C33 C31 1.375 . S
C33 C35 1.382 . S
C33 H37 0.950 . S
H34 C29 0.949 . S
C35 C30 1.399 . S
C35 C33 1.382 . S
C35 H36 0.952 . S
H36 C35 0.952 . S
H37 C33 0.950 . S
H38 C39 0.949 . S
C39 H38 0.949 . S
C39 C40 1.395 . S
C39 C41 1.391 . S
C40 C39 1.395 . S
C40 C43 1.390 . S
C41 C39 1.391 . S
C41 C45 1.387 . S
C41 C46 1.491 . S
H42 C43 0.950 . S
C43 C40 1.390 . S
C43 H42 0.950 . S
C43 C44 1.378 . S
C44 C43 1.378 . S
C44 C45 1.409 . S
C45 C41 1.387 . S
C45 C44 1.409 . S
C45 H47 0.951 . S
C46 C41 1.491 . S
C46 C48 1.382 . S
C46 C50 1.404 . S
H47 C45 0.951 . S
C48 C46 1.382 . S
C48 C49 1.390 . S
C48 H53 0.949 . S
C49 C48 1.390 . S
C49 C54 1.399 . S
C50 C46 1.404 . S
C50 H51 0.950 . S
C50 C52 1.375 . S
H51 C50 0.950 . S
C52 C50 1.375 . S
C52 C54 1.382 . S
C52 H56 0.950 . S
H53 C48 0.949 . S
C54 C49 1.399 . S
C54 C52 1.382 . S
C54 H55 0.952 . S
H55 C54 0.952 . S
H56 C52 0.950 . S
H57 C58 0.949 . S
C58 H57 0.949 . S
C58 C59 1.395 . S
C58 C60 1.391 . S
C59 C58 1.395 . S
C59 C62 1.390 . S
C60 C58 1.391 . S
C60 C64 1.387 . S
C60 C65 1.491 . S
H61 C62 0.950 . S
C62 C59 1.390 . S
C62 H61 0.950 . S
C62 C63 1.378 . S
C63 C62 1.378 . S
C63 C64 1.409 . S
C64 C60 1.387 . S
C64 C63 1.409 . S
C64 H66 0.951 . S
C65 C60 1.491 . S
C65 C67 1.382 . S
C65 C69 1.404 . S
H66 C64 0.951 . S
C67 C65 1.382 . S
C67 C68 1.390 . S
C67 H72 0.949 . S
C68 C67 1.390 . S
C68 C73 1.399 . S
C69 C65 1.404 . S
C69 H70 0.950 . S
C69 C71 1.375 . S
H70 C69 0.950 . S
C71 C69 1.375 . S
C71 C73 1.382 . S
C71 H75 0.950 1_556 S
H72 C67 0.949 . S
C73 C68 1.399 . S
C73 C71 1.382 . S
C73 H74 0.952 1_556 S
H74 C73 0.952 1_554 S
H75 C71 0.950 1_554 S
H76 C77 0.963 . S
C77 H76 0.963 . S
C77 C78 1.395 . S
C77 C79 1.391 . S
C78 C77 1.395 . S
C78 C81 1.390 . S
C79 C77 1.391 . S
C79 C83 1.387 . S
C79 C84 1.491 . S
H80 C81 0.950 . S
C81 C78 1.390 . S
C81 H80 0.950 . S
C81 C82 1.378 . S
C82 C81 1.378 . S
C82 C83 1.409 . S
C83 C79 1.387 . S
C83 C82 1.409 . S
C83 H85 0.951 . S
C84 C79 1.491 . S
C84 C86 1.382 . S
C84 C88 1.404 . S
H85 C83 0.951 . S
C86 C84 1.382 . S
C86 C87 1.390 . S
C86 H91 0.949 . S
C87 C86 1.390 . S
C87 C92 1.399 1_655 S
C88 C84 1.404 . S
C88 H89 0.950 . S
C88 C90 1.375 1_655 S
H89 C88 0.950 . S
C90 C88 1.375 1_455 S
C90 C92 1.382 . S
C90 H94 0.950 . S
H91 C86 0.949 . S
C92 C87 1.399 1_455 S
C92 C90 1.382 . S
C92 H93 0.952 . S
H93 C92 0.952 . S
H94 C90 0.950 . S
H95 C96 0.949 . S
C96 H95 0.949 . S
C96 C97 1.395 . S
C96 C98 1.391 . S
C97 C96 1.395 . S
C97 C100 1.390 . S
C98 C96 1.391 . S
C98 C102 1.387 . S
C98 C103 1.491 . S
H99 C100 0.950 . S
C100 C97 1.390 . S
C100 H99 0.950 . S
C100 C101 1.378 . S
C101 C100 1.378 . S
C101 C102 1.409 . S
C102 C98 1.387 . S
C102 C101 1.409 . S
C102 H104 0.951 . S
C103 C98 1.491 . S
C103 C105 1.382 . S
C103 C107 1.404 . S
H104 C102 0.951 . S
C105 C103 1.382 . S
C105 C106 1.390 . S
C105 H110 0.949 . S
C106 C105 1.390 . S
C106 C111 1.399 . S
C107 C103 1.404 . S
C107 H108 0.950 . S
C107 C109 1.375 . S
H108 C107 0.950 . S
C109 C107 1.375 . S
C109 C111 1.382 . S
C109 H113 0.950 . S
H110 C105 0.949 . S
C111 C106 1.399 . S
C111 C109 1.382 . S
C111 H112 0.952 . S
H112 C111 0.952 . S
H113 C109 0.950 . S
H114 C115 0.949 . S
C115 H114 0.949 . S
C115 C116 1.395 . S
C115 C117 1.391 . S
C116 C115 1.395 . S
C116 C119 1.390 . S
C117 C115 1.391 . S
C117 C121 1.387 . S
C117 C122 1.491 . S
H118 C119 0.950 . S
C119 C116 1.390 . S
C119 H118 0.950 . S
C119 C120 1.378 . S
C120 C119 1.378 . S
C120 C121 1.409 . S
C121 C117 1.387 . S
C121 C120 1.409 . S
C121 H123 0.951 . S
C122 C117 1.491 . S
C122 C124 1.382 . S
C122 C126 1.404 . S
H123 C121 0.951 . S
C124 C122 1.382 . S
C124 C125 1.390 . S
C124 H129 0.949 . S
C125 C124 1.390 . S
C125 C130 1.399 . S
C126 C122 1.404 . S
C126 H127 0.950 . S
C126 C128 1.375 . S
H127 C126 0.950 . S
C128 C126 1.375 . S
C128 C130 1.382 . S
C128 H132 0.950 . S
H129 C124 0.949 . S
C130 C125 1.399 . S
C130 C128 1.382 . S
C130 H131 0.952 . S
H131 C130 0.952 . S
H132 C128 0.950 . S
H133 C134 0.949 . S
C134 H133 0.949 . S
C134 C135 1.395 . S
C134 C136 1.391 . S
C135 C134 1.395 . S
C135 C138 1.390 . S
C136 C134 1.391 . S
C136 C140 1.387 . S
C136 C141 1.491 . S
H137 C138 0.950 . S
C138 C135 1.390 . S
C138 H137 0.950 . S
C138 C139 1.378 . S
C139 C138 1.378 . S
C139 C140 1.409 . S
C140 C136 1.387 . S
C140 C139 1.409 . S
C140 H142 0.951 . S
C141 C136 1.491 . S
C141 C143 1.382 . S
C141 C145 1.404 . S
H142 C140 0.951 . S
C143 C141 1.382 . S
C143 C144 1.390 . S
C143 H148 0.949 . S
C144 C143 1.390 . S
C144 C149 1.399 . S
C145 C141 1.404 . S
C145 H146 0.950 . S
C145 C147 1.375 . S
H146 C145 0.950 . S
C147 C145 1.375 . S
C147 C149 1.382 . S
C147 H151 0.950 . S
H148 C143 0.949 . S
C149 C144 1.399 . S
C149 C147 1.382 . S
C149 H150 0.952 . S
H150 C149 0.952 . S
H151 C147 0.950 . S
C152 C153 1.443 . S
C152 N156 1.376 . S
C152 C190 1.389 . S
C153 C152 1.443 . S
C153 C154 1.340 . S
C153 H193 0.951 . S
C154 C153 1.340 . S
C154 C155 1.439 . S
C154 H194 0.950 . S
C155 C154 1.439 . S
C155 N156 1.374 . S
C155 C189 1.395 . S
N156 C152 1.376 . S
N156 C155 1.374 . S
N156 Co157 2.008 . S
Co157 N156 2.008 . S
Co157 N158 1.995 . S
Co157 N163 2.008 1_455 S
Co157 N168 1.993 . S
Co157 N173 2.282 . S
Co157 N179 2.282 1_455 S
N158 Co157 1.995 . S
N158 C159 1.376 . S
N158 C162 1.383 1_455 S
C159 N158 1.376 . S
C159 C160 1.446 . S
C159 C189 1.391 . S
C160 C159 1.446 . S
C160 C161 1.339 . S
C160 H195 0.949 . S
C161 C160 1.339 . S
C161 C162 1.439 1_455 S
C161 H196 0.950 . S
C162 N158 1.383 1_655 S
C162 C161 1.439 1_655 S
C162 C191 1.392 . S
N163 Co157 2.008 1_655 S
N163 C164 1.376 . S
N163 C167 1.374 . S
C164 N163 1.376 . S
C164 C165 1.443 . S
C164 C191 1.389 . S
C165 C164 1.443 . S
C165 C166 1.340 . S
C165 H197 0.951 . S
C166 C165 1.340 . S
C166 C167 1.439 . S
C166 H198 0.950 . S
C167 N163 1.374 . S
C167 C166 1.439 . S
C167 C192 1.395 . S
N168 Co157 1.993 . S
N168 C169 1.366 1_455 S
N168 C172 1.395 . S
C169 N168 1.366 1_655 S
C169 C170 1.446 . S
C169 C192 1.391 . S
C170 C169 1.446 . S
C170 C171 1.339 1_655 S
C170 H199 0.949 . S
C171 C170 1.339 1_455 S
C171 C172 1.439 . S
C171 H200 0.950 . S
C172 N168 1.395 . S
C172 C171 1.439 . S
C172 C190 1.392 . S
N173 Co157 2.282 . S
N173 C176 1.332 . S
N173 C178 1.332 . S
C174 C175 1.386 . S
C174 C177 1.388 . S
C175 C174 1.386 . S
C175 C176 1.382 . S
C175 H201 0.950 . S
C176 N173 1.332 . S
C176 C175 1.382 . S
C176 H187 0.952 1_455 S
C177 C174 1.388 . S
C177 C178 1.382 . S
C177 H202 0.950 . S
C178 N173 1.332 . S
C178 C177 1.382 . S
C178 H188 0.948 . S
N179 Co157 2.282 1_655 S
N179 C183 1.332 1_655 S
N179 C184 1.332 . S
C180 C181 1.388 . S
C180 C184 1.382 . S
C180 H203 0.950 . S
C181 C180 1.388 . S
C181 C182 1.386 1_655 S
C182 C181 1.386 1_455 S
C182 C183 1.382 . S
C182 H204 0.950 . S
C183 N179 1.332 1_455 S
C183 C182 1.382 . S
C183 H185 0.952 . S
C184 N179 1.332 . S
C184 C180 1.382 . S
C184 H186 0.948 . S
H185 C183 0.952 . S
H186 C184 0.948 . S
H187 C176 0.952 1_655 S
H188 C178 0.948 . S
C189 C155 1.395 . S
C189 C159 1.391 . S
C190 C152 1.389 . S
C190 C172 1.392 . S
C191 C162 1.392 . S
C191 C164 1.389 . S
C192 C167 1.395 . S
C192 C169 1.391 . S
H193 C153 0.951 . S
H194 C154 0.950 . S
H195 C160 0.949 . S
H196 C161 0.950 . S
H197 C165 0.951 . S
H198 C166 0.950 . S
H199 C170 0.949 . S
H200 C171 0.950 . S
H201 C175 0.950 . S
H202 C177 0.950 . S
H203 C180 0.950 . S
H204 C182 0.950 . S
C205 C206 1.443 . S
C205 N209 1.376 . S
C205 C243 1.389 . S
C206 C205 1.443 . S
C206 C207 1.340 . S
C206 H246 0.951 . S
C207 C206 1.340 . S
C207 C208 1.439 . S
C207 H247 0.950 . S
C208 C207 1.439 . S
C208 N209 1.374 . S
C208 C242 1.395 . S
N209 C205 1.376 . S
N209 C208 1.374 . S
N209 Co210 2.008 . S
Co210 N209 2.008 . S
Co210 N211 1.995 . S
Co210 N216 2.008 1_455 S
Co210 N221 1.995 . S
Co210 N226 2.282 . S
Co210 N232 2.282 . S
N211 Co210 1.995 . S
N211 C212 1.376 . S
N211 C215 1.383 . S
C212 N211 1.376 . S
C212 C213 1.446 . S
C212 C242 1.391 . S
C213 C212 1.446 . S
C213 C214 1.339 . S
C213 H248 0.949 . S
C214 C213 1.339 . S
C214 C215 1.439 . S
C214 H249 0.950 . S
C215 N211 1.383 . S
C215 C214 1.439 . S
C215 C244 1.392 1_455 S
N216 Co210 2.008 1_655 S
N216 C217 1.376 . S
N216 C220 1.374 . S
C217 N216 1.376 . S
C217 C218 1.443 . S
C217 C244 1.389 . S
C218 C217 1.443 . S
C218 C219 1.340 . S
C218 H250 0.951 . S
C219 C218 1.340 . S
C219 C220 1.439 . S
C219 H251 0.950 . S
C220 N216 1.374 . S
C220 C219 1.439 . S
C220 C245 1.395 . S
N221 Co210 1.995 . S
N221 C222 1.376 1_455 S
N221 C225 1.383 . S
C222 N221 1.376 1_655 S
C222 C223 1.446 . S
C222 C245 1.391 . S
C223 C222 1.446 . S
C223 C224 1.339 1_655 S
C223 H252 0.949 . S
C224 C223 1.339 1_455 S
C224 C225 1.439 . S
C224 H253 0.950 . S
C225 N221 1.383 . S
C225 C224 1.439 . S
C225 C243 1.392 . S
N226 Co210 2.282 . S
N226 C229 1.332 . S
N226 C231 1.332 . S
C227 C228 1.386 . S
C227 C230 1.388 . S
C228 C227 1.386 . S
C228 C229 1.382 . S
C228 H254 0.950 . S
C229 N226 1.332 . S
C229 C228 1.382 . S
C229 H240 0.952 . S
C230 C227 1.388 . S
C230 C231 1.382 . S
C230 H255 0.950 . S
C231 N226 1.332 . S
C231 C230 1.382 . S
C231 H241 0.948 . S
N232 Co210 2.282 . S
N232 C236 1.332 . S
N232 C237 1.332 1_455 S
C233 C234 1.388 1_655 S
C233 C237 1.382 . S
C233 H256 0.950 . S
C234 C233 1.388 1_455 S
C234 C235 1.386 . S
C235 C234 1.386 . S
C235 C236 1.382 . S
C235 H257 0.950 . S
C236 N232 1.332 . S
C236 C235 1.382 . S
C236 H238 0.952 . S
C237 N232 1.332 1_655 S
C237 C233 1.382 . S
C237 H239 0.948 . S
H238 C236 0.952 . S
H239 C237 0.948 . S
H240 C229 0.952 . S
H241 C231 0.948 . S
C242 C208 1.395 . S
C242 C212 1.391 . S
C243 C205 1.389 . S
C243 C225 1.392 . S
C244 C215 1.392 1_655 S
C244 C217 1.389 . S
C245 C220 1.395 . S
C245 C222 1.391 . S
H246 C206 0.951 . S
H247 C207 0.950 . S
H248 C213 0.949 . S
H249 C214 0.950 . S
H250 C218 0.951 . S
H251 C219 0.950 . S
H252 C223 0.949 . S
H253 C224 0.950 . S
H254 C228 0.950 . S
H255 C230 0.950 . S
H256 C233 0.950 . S
H257 C235 0.950 . S
C258 C259 1.443 . S
C258 N262 1.376 1_565 S
C258 C296 1.389 . S
C259 C258 1.443 . S
C259 C260 1.340 1_565 S
C259 H299 0.951 . S
C260 C259 1.340 1_545 S
C260 C261 1.439 . S
C260 H300 0.950 . S
C261 C260 1.439 . S
C261 N262 1.374 . S
C261 C295 1.395 . S
N262 C258 1.376 1_545 S
N262 C261 1.374 . S
N262 Co263 2.008 . S
Co263 N262 2.008 . S
Co263 N264 1.995 . S
Co263 N269 2.008 . S
Co263 N274 1.995 1_545 S
Co263 N279 2.282 . S
Co263 N285 2.282 1_545 S
N264 Co263 1.995 . S
N264 C265 1.376 . S
N264 C268 1.383 . S
C265 N264 1.376 . S
C265 C266 1.446 . S
C265 C295 1.391 . S
C266 C265 1.446 . S
C266 C267 1.339 . S
C266 H301 0.949 . S
C267 C266 1.339 . S
C267 C268 1.439 . S
C267 H302 0.950 . S
C268 N264 1.383 . S
C268 C267 1.439 . S
C268 C297 1.392 . S
N269 Co263 2.008 . S
N269 C270 1.376 . S
N269 C273 1.374 . S
C270 N269 1.376 . S
C270 C271 1.443 . S
C270 C297 1.389 . S
C271 C270 1.443 . S
C271 C272 1.340 . S
C271 H303 0.951 . S
C272 C271 1.340 . S
C272 C273 1.439 . S
C272 H304 0.950 . S
C273 N269 1.374 . S
C273 C272 1.439 . S
C273 C298 1.395 1_545 S
N274 Co263 1.995 1_565 S
N274 C275 1.376 . S
N274 C278 1.383 . S
C275 N274 1.376 . S
C275 C276 1.446 . S
C275 C298 1.391 . S
C276 C275 1.446 . S
C276 C277 1.339 . S
C276 H305 0.949 . S
C277 C276 1.339 . S
C277 C278 1.439 . S
C277 H306 0.950 . S
C278 N274 1.383 . S
C278 C277 1.439 . S
C278 C296 1.392 . S
N279 Co263 2.282 . S
N279 C282 1.332 . S
N279 C284 1.332 . S
C280 C281 1.386 . S
C280 C283 1.388 . S
C281 C280 1.386 . S
C281 C282 1.382 . S
C281 H307 0.950 . S
C282 N279 1.332 . S
C282 C281 1.382 . S
C282 H293 0.952 . S
C283 C280 1.388 . S
C283 C284 1.382 . S
C283 H308 0.950 . S
C284 N279 1.332 . S
C284 C283 1.382 . S
C284 H294 0.948 . S
N285 Co263 2.282 1_565 S
N285 C289 1.332 . S
N285 C290 1.332 . S
C286 C287 1.388 . S
C286 C290 1.382 . S
C286 H309 0.950 . S
C287 C286 1.388 . S
C287 C288 1.386 . S
C288 C287 1.386 . S
C288 C289 1.382 . S
C288 H310 0.950 . S
C289 N285 1.332 . S
C289 C288 1.382 . S
C289 H291 0.952 1_565 S
C290 N285 1.332 . S
C290 C286 1.382 . S
C290 H292 0.948 . S
H291 C289 0.952 1_545 S
H292 C290 0.948 . S
H293 C282 0.952 . S
H294 C284 0.948 . S
C295 C261 1.395 . S
C295 C265 1.391 . S
C296 C258 1.389 . S
C296 C278 1.392 . S
C297 C268 1.392 . S
C297 C270 1.389 . S
C298 C273 1.395 1_565 S
C298 C275 1.391 . S
H299 C259 0.951 . S
H300 C260 0.950 . S
H301 C266 0.949 . S
H302 C267 0.950 . S
H303 C271 0.951 . S
H304 C272 0.950 . S
H305 C276 0.949 . S
H306 C277 0.950 . S
H307 C281 0.950 . S
H308 C283 0.950 . S
H309 C286 0.950 . S
H310 C288 0.950 . S
C311 C312 1.443 . S
C311 N315 1.376 . S
C311 C349 1.389 . S
C312 C311 1.443 . S
C312 C313 1.340 . S
C312 H352 0.951 . S
C313 C312 1.340 . S
C313 C314 1.439 . S
C313 H353 0.950 . S
C314 C313 1.439 . S
C314 N315 1.374 . S
C314 C348 1.395 . S
N315 C311 1.376 . S
N315 C314 1.374 . S
N315 Co316 2.008 . S
Co316 N315 2.008 . S
Co316 N317 1.994 1_554 S
Co316 N322 2.008 1_554 S
Co316 N327 1.995 . S
Co316 N332 2.282 1_554 S
Co316 N338 2.282 . S
N317 Co316 1.994 1_556 S
N317 C318 1.376 1_556 S
N317 C321 1.384 . S
C318 N317 1.376 1_554 S
C318 C319 1.446 1_554 S
C318 C348 1.391 . S
C319 C318 1.446 1_556 S
C319 C320 1.339 . S
C319 H354 0.949 . S
C320 C319 1.339 . S
C320 C321 1.439 . S
C320 H355 0.950 . S
C321 N317 1.384 . S
C321 C320 1.439 . S
C321 C350 1.392 . S
N322 Co316 2.008 1_556 S
N322 C323 1.376 . S
N322 C326 1.374 . S
C323 N322 1.376 . S
C323 C324 1.443 . S
C323 C350 1.389 . S
C324 C323 1.443 . S
C324 C325 1.340 . S
C324 H356 0.951 . S
C325 C324 1.340 . S
C325 C326 1.439 . S
C325 H357 0.950 . S
C326 N322 1.374 . S
C326 C325 1.439 . S
C326 C351 1.395 1_556 S
N327 Co316 1.995 . S
N327 C328 1.376 . S
N327 C331 1.383 . S
C328 N327 1.376 . S
C328 C329 1.446 . S
C328 C351 1.391 . S
C329 C328 1.446 . S
C329 C330 1.339 . S
C329 H358 0.949 . S
C330 C329 1.339 . S
C330 C331 1.439 . S
C330 H359 0.950 . S
C331 N327 1.383 . S
C331 C330 1.439 . S
C331 C349 1.392 . S
N332 Co316 2.282 1_556 S
N332 C335 1.332 . S
N332 C337 1.332 . S
C333 C334 1.386 . S
C333 C336 1.388 . S
C334 C333 1.386 . S
C334 C335 1.382 . S
C334 H360 0.950 . S
C335 N332 1.332 . S
C335 C334 1.382 . S
C335 H346 0.952 . S
C336 C333 1.388 . S
C336 C337 1.382 . S
C336 H361 0.950 . S
C337 N332 1.332 . S
C337 C336 1.382 . S
C337 H347 0.948 . S
N338 Co316 2.282 . S
N338 C342 1.332 . S
N338 C343 1.332 . S
C339 C340 1.388 . S
C339 C343 1.382 . S
C339 H362 0.950 . S
C340 C339 1.388 . S
C340 C341 1.386 . S
C341 C340 1.386 . S
C341 C342 1.382 . S
C341 H363 0.950 . S
C342 N338 1.332 . S
C342 C341 1.382 . S
C342 H344 0.952 . S
C343 N338 1.332 . S
C343 C339 1.382 . S
C343 H345 0.948 . S
H344 C342 0.952 . S
H345 C343 0.948 . S
H346 C335 0.952 . S
H347 C337 0.948 . S
C348 C314 1.395 . S
C348 C318 1.391 . S
C349 C311 1.389 . S
C349 C331 1.392 . S
C350 C321 1.392 . S
C350 C323 1.389 . S
C351 C326 1.395 1_554 S
C351 C328 1.391 . S
H352 C312 0.951 . S
H353 C313 0.950 . S
H354 C319 0.949 . S
H355 C320 0.950 . S
H356 C324 0.951 . S
H357 C325 0.950 . S
H358 C329 0.949 . S
H359 C330 0.950 . S
H360 C334 0.950 . S
H361 C336 0.950 . S
H362 C339 0.950 . S
H363 C341 0.950 . S
C364 C365 1.443 . S
C364 N368 1.376 . S
C364 C402 1.389 . S
C365 C364 1.443 . S
C365 C366 1.340 . S
C365 H405 0.951 . S
C366 C365 1.340 . S
C366 C367 1.439 . S
C366 H406 0.950 . S
C367 C366 1.439 . S
C367 N368 1.374 . S
C367 C401 1.395 . S
N368 C364 1.376 . S
N368 C367 1.374 . S
N368 Co369 1.985 1_455 S
Co369 N368 1.985 1_655 S
Co369 N370 1.979 1_655 S
Co369 N375 2.031 . S
Co369 N380 2.010 . S
Co369 N385 2.296 . S
Co369 N391 2.268 . S
N370 Co369 1.979 1_455 S
N370 C371 1.376 . S
N370 C374 1.383 . S
C371 N370 1.376 . S
C371 C372 1.446 . S
C371 C401 1.391 . S
C372 C371 1.446 . S
C372 C373 1.339 . S
C372 H407 0.949 . S
C373 C372 1.339 . S
C373 C374 1.439 . S
C373 H408 0.950 . S
C374 N370 1.383 . S
C374 C373 1.439 . S
C374 C403 1.392 1_455 S
N375 Co369 2.031 . S
N375 C376 1.376 . S
N375 C379 1.374 . S
C376 N375 1.376 . S
C376 C377 1.443 . S
C376 C403 1.389 . S
C377 C376 1.443 . S
C377 C378 1.340 . S
C377 H409 0.951 . S
C378 C377 1.340 . S
C378 C379 1.439 . S
C378 H410 0.950 . S
C379 N375 1.374 . S
C379 C378 1.439 . S
C379 C404 1.395 . S
N380 Co369 2.010 . S
N380 C381 1.376 . S
N380 C384 1.383 . S
C381 N380 1.376 . S
C381 C382 1.446 . S
C381 C404 1.391 . S
C382 C381 1.446 . S
C382 C383 1.339 . S
C382 H411 0.949 . S
C383 C382 1.339 . S
C383 C384 1.439 . S
C383 H412 0.950 . S
C384 N380 1.383 . S
C384 C383 1.439 . S
C384 C402 1.392 1_655 S
N385 Co369 2.296 . S
N385 C388 1.332 . S
N385 C390 1.332 1_655 S
C386 C387 1.386 . S
C386 C389 1.388 1_655 S
C387 C386 1.386 . S
C387 C388 1.382 . S
C387 H413 0.950 . S
C388 N385 1.332 . S
C388 C387 1.382 . S
C388 H399 0.952 . S
C389 C386 1.388 1_455 S
C389 C390 1.382 . S
C389 H414 0.950 . S
C390 N385 1.332 1_455 S
C390 C389 1.382 . S
C390 H400 0.948 . S
N391 Co369 2.268 . S
N391 C395 1.335 1_655 S
N391 C396 1.331 . S
C392 C393 1.388 1_655 S
C392 C396 1.382 . S
C392 H415 0.950 . S
C393 C392 1.388 1_455 S
C393 C394 1.386 . S
C394 C393 1.386 . S
C394 C395 1.382 . S
C394 H416 0.950 . S
C395 N391 1.335 1_455 S
C395 C394 1.382 . S
C395 H397 0.952 . S
C396 N391 1.331 . S
C396 C392 1.382 . S
C396 H398 0.948 . S
H397 C395 0.952 . S
H398 C396 0.948 . S
H399 C388 0.952 . S
H400 C390 0.948 . S
C401 C367 1.395 . S
C401 C371 1.391 . S
C402 C364 1.389 . S
C402 C384 1.392 1_455 S
C403 C374 1.392 1_655 S
C403 C376 1.389 . S
C404 C379 1.395 . S
C404 C381 1.391 . S
H405 C365 0.951 . S
H406 C366 0.950 . S
H407 C372 0.949 . S
H408 C373 0.950 . S
H409 C377 0.951 . S
H410 C378 0.950 . S
H411 C382 0.949 . S
H412 C383 0.950 . S
H413 C387 0.950 . S
H414 C389 0.950 . S
H415 C392 0.950 . S
H416 C394 0.950 . S
C417 C418 1.443 . S
C417 N421 1.376 . S
C417 C455 1.389 . S
C418 C417 1.443 . S
C418 C419 1.340 . S
C418 H458 0.951 . S
C419 C418 1.340 . S
C419 C420 1.439 . S
C419 H459 0.950 . S
C420 C419 1.439 . S
C420 N421 1.374 . S
C420 C454 1.395 . S
N421 C417 1.376 . S
N421 C420 1.374 . S
N421 Co422 2.008 . S
Co422 N421 2.008 . S
Co422 N423 1.995 . S
Co422 N428 2.008 . S
Co422 N433 1.995 . S
Co422 N438 2.282 . S
Co422 N444 2.282 . S
N423 Co422 1.995 . S
N423 C424 1.376 . S
N423 C427 1.383 . S
C424 N423 1.376 . S
C424 C425 1.446 . S
C424 C454 1.391 . S
C425 C424 1.446 . S
C425 C426 1.339 . S
C425 H460 0.949 . S
C426 C425 1.339 . S
C426 C427 1.439 . S
C426 H461 0.950 . S
C427 N423 1.383 . S
C427 C426 1.439 . S
C427 C456 1.392 . S
N428 Co422 2.008 . S
N428 C429 1.376 . S
N428 C432 1.374 . S
C429 N428 1.376 . S
C429 C430 1.443 . S
C429 C456 1.389 . S
C430 C429 1.443 . S
C430 C431 1.340 . S
C430 H462 0.951 . S
C431 C430 1.340 . S
C431 C432 1.439 . S
C431 H463 0.950 . S
C432 N428 1.374 . S
C432 C431 1.439 . S
C432 C457 1.395 . S
N433 Co422 1.995 . S
N433 C434 1.376 . S
N433 C437 1.383 . S
C434 N433 1.376 . S
C434 C435 1.446 . S
C434 C457 1.391 . S
C435 C434 1.446 . S
C435 C436 1.339 . S
C435 H464 0.949 . S
C436 C435 1.339 . S
C436 C437 1.439 . S
C436 H465 0.950 . S
C437 N433 1.383 . S
C437 C436 1.439 . S
C437 C455 1.392 . S
N438 Co422 2.282 . S
N438 C441 1.332 . S
N438 C443 1.332 . S
C439 C440 1.386 1_556 S
C439 C442 1.394 . S
C440 C439 1.386 1_554 S
C440 C441 1.382 . S
C440 H466 0.950 1_554 S
C441 N438 1.332 . S
C441 C440 1.382 . S
C441 H452 0.952 . S
C442 C439 1.394 . S
C442 C443 1.365 1_556 S
C442 H467 0.962 . S
C443 N438 1.332 . S
C443 C442 1.365 1_554 S
C443 H453 0.948 . S
N444 Co422 2.282 . S
N444 C448 1.332 . S
N444 C449 1.332 . S
C445 C446 1.388 . S
C445 C449 1.382 . S
C445 H468 0.950 . S
C446 C445 1.388 . S
C446 C447 1.386 . S
C447 C446 1.386 . S
C447 C448 1.382 . S
C447 H469 0.950 . S
C448 N444 1.332 . S
C448 C447 1.382 . S
C448 H450 0.952 . S
C449 N444 1.332 . S
C449 C445 1.382 . S
C449 H451 0.948 . S
H450 C448 0.952 . S
H451 C449 0.948 . S
H452 C441 0.952 . S
H453 C443 0.948 . S
C454 C420 1.395 . S
C454 C424 1.391 . S
C455 C417 1.389 . S
C455 C437 1.392 . S
C456 C427 1.392 . S
C456 C429 1.389 . S
C457 C432 1.395 . S
C457 C434 1.391 . S
H458 C418 0.951 . S
H459 C419 0.950 . S
H460 C425 0.949 . S
H461 C426 0.950 . S
H462 C430 0.951 . S
H463 C431 0.950 . S
H464 C435 0.949 . S
H465 C436 0.950 . S
H466 C440 0.950 1_556 S
H467 C442 0.962 . S
H468 C445 0.950 . S
H469 C447 0.950 . S
H470 C482 0.930 . S
H471 C484 0.930 . S
H472 C485 0.930 . S
H473 C489 0.959 1_655 S
H474 C489 0.959 . S
H475 C489 0.961 . S
H476 C490 0.960 . S
H477 C490 0.961 . S
H478 C490 0.959 . S
H479 C493 0.929 . S
H480 C494 0.931 . S
H481 C496 0.930 . S
C482 H470 0.930 . S
C482 C483 1.399 . S
C482 C487 1.399 . S
C483 C482 1.399 . S
C483 C484 1.376 . S
C484 H471 0.930 . S
C484 C483 1.376 . S
C484 C485 1.388 . S
C485 H472 0.930 . S
C485 C484 1.388 . S
C485 C486 1.390 . S
C486 C485 1.390 . S
C486 C487 1.394 . S
C486 C492 1.465 . S
C487 C482 1.399 . S
C487 C486 1.394 . S
C487 C488 1.516 . S
C488 C487 1.516 . S
C488 C489 1.502 . S
C488 C490 1.561 . S
C488 C491 1.526 . S
C489 H473 0.959 1_455 S
C489 H474 0.959 . S
C489 H475 0.961 . S
C489 C488 1.502 . S
C490 H476 0.960 . S
C490 H477 0.961 . S
C490 H478 0.959 . S
C490 C488 1.561 . S
C491 C488 1.526 . S
C491 C492 1.396 . S
C491 C496 1.390 . S
C492 C486 1.465 . S
C492 C491 1.396 . S
C492 C493 1.399 . S
C493 H479 0.929 . S
C493 C492 1.399 . S
C493 C494 1.385 . S
C494 H480 0.931 . S
C494 C493 1.385 . S
C494 C495 1.389 . S
C495 C494 1.389 . S
C495 C496 1.387 . S
C496 H481 0.930 . S
C496 C491 1.390 . S
C496 C495 1.387 . S
H497 C509 0.930 . S
H498 C511 0.930 . S
H499 C512 0.930 . S
H500 C516 0.959 . S
H501 C516 0.959 . S
H502 C516 0.961 . S
H503 C517 0.960 . S
H504 C517 0.961 . S
H505 C517 0.959 . S
H506 C520 0.929 . S
H507 C521 0.931 . S
H508 C523 0.930 . S
C509 H497 0.930 . S
C509 C510 1.399 . S
C509 C514 1.399 . S
C510 C509 1.399 . S
C510 C511 1.376 . S
C511 H498 0.930 . S
C511 C510 1.376 . S
C511 C512 1.388 . S
C512 H499 0.930 . S
C512 C511 1.388 . S
C512 C513 1.390 . S
C513 C512 1.390 . S
C513 C514 1.394 . S
C513 C519 1.465 . S
C514 C509 1.399 . S
C514 C513 1.394 . S
C514 C515 1.516 . S
C515 C514 1.516 . S
C515 C516 1.502 . S
C515 C517 1.561 . S
C515 C518 1.526 . S
C516 H500 0.959 . S
C516 H501 0.959 . S
C516 H502 0.961 . S
C516 C515 1.502 . S
C517 H503 0.960 . S
C517 H504 0.961 . S
C517 H505 0.959 . S
C517 C515 1.561 . S
C518 C515 1.526 . S
C518 C519 1.396 . S
C518 C523 1.390 . S
C519 C513 1.465 . S
C519 C518 1.396 . S
C519 C520 1.399 . S
C520 H506 0.929 . S
C520 C519 1.399 . S
C520 C521 1.385 . S
C521 H507 0.931 . S
C521 C520 1.385 . S
C521 C522 1.389 . S
C522 C521 1.389 . S
C522 C523 1.387 . S
C523 H508 0.930 . S
C523 C518 1.390 . S
C523 C522 1.387 . S
H524 C536 0.930 . S
H525 C538 0.930 . S
H526 C539 0.930 1_455 S
H527 C543 0.959 . S
H528 C543 0.959 . S
H529 C543 0.961 . S
H530 C544 0.960 . S
H531 C544 0.961 . S
H532 C544 0.959 . S
H533 C547 0.929 . S
H534 C548 0.931 . S
H535 C550 0.930 . S
C536 H524 0.930 . S
C536 C537 1.399 . S
C536 C541 1.399 . S
C537 C536 1.399 . S
C537 C538 1.376 . S
C538 H525 0.930 . S
C538 C537 1.376 . S
C538 C539 1.388 . S
C539 H526 0.930 1_655 S
C539 C538 1.388 . S
C539 C540 1.390 . S
C540 C539 1.390 . S
C540 C541 1.394 . S
C540 C546 1.465 . S
C541 C536 1.399 . S
C541 C540 1.394 . S
C541 C542 1.516 . S
C542 C541 1.516 . S
C542 C543 1.502 . S
C542 C544 1.561 . S
C542 C545 1.526 . S
C543 H527 0.959 . S
C543 H528 0.959 . S
C543 H529 0.961 . S
C543 C542 1.502 . S
C544 H530 0.960 . S
C544 H531 0.961 . S
C544 H532 0.959 . S
C544 C542 1.561 . S
C545 C542 1.526 . S
C545 C546 1.396 . S
C545 C550 1.390 . S
C546 C540 1.465 . S
C546 C545 1.396 . S
C546 C547 1.399 1_655 S
C547 H533 0.929 . S
C547 C546 1.399 1_455 S
C547 C548 1.385 . S
C548 H534 0.931 . S
C548 C547 1.385 . S
C548 C549 1.389 1_455 S
C549 C548 1.389 1_655 S
C549 C550 1.387 . S
C550 H535 0.930 . S
C550 C545 1.390 . S
C550 C549 1.387 . S
H551 C563 0.930 . S
H552 C565 0.930 . S
H553 C566 0.930 . S
H554 C570 0.959 . S
H555 C570 0.959 . S
H556 C570 0.961 . S
H557 C571 0.960 . S
H558 C571 0.961 . S
H559 C571 0.959 . S
H560 C574 0.929 . S
H561 C575 0.931 . S
H562 C577 0.930 . S
C563 H551 0.930 . S
C563 C564 1.399 . S
C563 C568 1.399 . S
C564 C563 1.399 . S
C564 C565 1.376 . S
C565 H552 0.930 . S
C565 C564 1.376 . S
C565 C566 1.388 . S
C566 H553 0.930 . S
C566 C565 1.388 . S
C566 C567 1.390 . S
C567 C566 1.390 . S
C567 C568 1.394 . S
C567 C573 1.465 . S
C568 C563 1.399 . S
C568 C567 1.394 . S
C568 C569 1.516 . S
C569 C568 1.516 . S
C569 C570 1.502 . S
C569 C571 1.561 . S
C569 C572 1.526 . S
C570 H554 0.959 . S
C570 H555 0.959 . S
C570 H556 0.961 . S
C570 C569 1.502 . S
C571 H557 0.960 . S
C571 H558 0.961 . S
C571 H559 0.959 . S
C571 C569 1.561 . S
C572 C569 1.526 . S
C572 C573 1.396 . S
C572 C577 1.390 . S
C573 C567 1.465 . S
C573 C572 1.396 . S
C573 C574 1.399 . S
C574 H560 0.929 . S
C574 C573 1.399 . S
C574 C575 1.385 . S
C575 H561 0.931 . S
C575 C574 1.385 . S
C575 C576 1.389 . S
C576 C575 1.389 . S
C576 C577 1.387 . S
C577 H562 0.930 . S
C577 C572 1.390 . S
C577 C576 1.387 . S
H578 C590 0.930 . S
H579 C592 0.930 . S
H580 C593 0.930 . S
H581 C597 0.959 . S
H582 C597 0.959 . S
H583 C597 0.961 . S
H584 C598 0.960 . S
H585 C598 0.961 . S
H586 C598 0.959 . S
H587 C601 0.929 . S
H588 C602 0.931 . S
H589 C604 0.930 . S
C590 H578 0.930 . S
C590 C591 1.399 . S
C590 C595 1.399 . S
C591 C590 1.399 . S
C591 C592 1.376 . S
C592 H579 0.930 . S
C592 C591 1.376 . S
C592 C593 1.388 . S
C593 H580 0.930 . S
C593 C592 1.388 . S
C593 C594 1.390 . S
C594 C593 1.390 . S
C594 C595 1.394 . S
C594 C600 1.465 . S
C595 C590 1.399 . S
C595 C594 1.394 . S
C595 C596 1.516 . S
C596 C595 1.516 . S
C596 C597 1.502 . S
C596 C598 1.561 . S
C596 C599 1.526 . S
C597 H581 0.959 . S
C597 H582 0.959 . S
C597 H583 0.961 . S
C597 C596 1.502 . S
C598 H584 0.960 . S
C598 H585 0.961 . S
C598 H586 0.959 . S
C598 C596 1.561 . S
C599 C596 1.526 . S
C599 C600 1.396 . S
C599 C604 1.390 . S
C600 C594 1.465 . S
C600 C599 1.396 . S
C600 C601 1.399 . S
C601 H587 0.929 . S
C601 C600 1.399 . S
C601 C602 1.385 . S
C602 H588 0.931 . S
C602 C601 1.385 . S
C602 C603 1.389 . S
C603 C602 1.389 . S
C603 C604 1.387 . S
C604 H589 0.930 . S
C604 C599 1.390 . S
C604 C603 1.387 . S
H605 C617 0.930 . S
H606 C619 0.930 . S
H607 C620 0.930 . S
H608 C624 0.959 . S
H609 C624 0.959 . S
H610 C624 0.961 . S
H611 C625 0.960 . S
H612 C625 0.961 . S
H613 C625 0.959 . S
H614 C628 0.929 . S
H615 C629 0.931 . S
H616 C631 0.930 . S
C617 H605 0.930 . S
C617 C618 1.399 . S
C617 C622 1.399 . S
C618 C617 1.399 . S
C618 C619 1.376 . S
C619 H606 0.930 . S
C619 C618 1.376 . S
C619 C620 1.388 . S
C620 H607 0.930 . S
C620 C619 1.388 . S
C620 C621 1.390 . S
C621 C620 1.390 . S
C621 C622 1.394 . S
C621 C627 1.465 . S
C622 C617 1.399 . S
C622 C621 1.394 . S
C622 C623 1.516 . S
C623 C622 1.516 . S
C623 C624 1.502 . S
C623 C625 1.561 . S
C623 C626 1.526 . S
C624 H608 0.959 . S
C624 H609 0.959 . S
C624 H610 0.961 . S
C624 C623 1.502 . S
C625 H611 0.960 . S
C625 H612 0.961 . S
C625 H613 0.959 . S
C625 C623 1.561 . S
C626 C623 1.526 . S
C626 C627 1.396 . S
C626 C631 1.390 . S
C627 C621 1.465 . S
C627 C626 1.396 . S
C627 C628 1.399 . S
C628 H614 0.929 . S
C628 C627 1.399 . S
C628 C629 1.385 . S
C629 H615 0.931 . S
C629 C628 1.385 . S
C629 C630 1.389 . S
C630 C629 1.389 . S
C630 C631 1.387 . S
C631 H616 0.930 . S
C631 C626 1.390 . S
C631 C630 1.387 . S
H632 C644 0.930 . S
H633 C646 0.930 . S
H634 C647 0.930 . S
H635 C651 0.959 . S
H636 C651 0.959 . S
H637 C651 0.961 . S
H638 C652 0.960 . S
H639 C652 0.961 1_455 S
H640 C652 0.959 . S
H641 C655 0.929 1_565 S
H642 C656 0.931 . S
H643 C658 0.930 . S
C644 H632 0.930 . S
C644 C645 1.399 . S
C644 C649 1.399 . S
C645 C644 1.399 . S
C645 C646 1.376 . S
C646 H633 0.930 . S
C646 C645 1.376 . S
C646 C647 1.388 . S
C647 H634 0.930 . S
C647 C646 1.388 . S
C647 C648 1.390 . S
C648 C647 1.390 . S
C648 C649 1.394 . S
C648 C654 1.465 1_565 S
C649 C644 1.399 . S
C649 C648 1.394 . S
C649 C650 1.516 1_665 S
C650 C649 1.516 1_445 S
C650 C651 1.502 . S
C650 C652 1.561 1_455 S
C650 C653 1.526 1_455 S
C651 H635 0.959 . S
C651 H636 0.959 . S
C651 H637 0.961 . S
C651 C650 1.502 . S
C652 H638 0.960 . S
C652 H639 0.961 1_655 S
C652 H640 0.959 . S
C652 C650 1.561 1_655 S
C653 C650 1.526 1_655 S
C653 C654 1.396 . S
C653 C658 1.390 1_655 S
C654 C648 1.465 1_545 S
C654 C653 1.396 . S
C654 C655 1.399 . S
C655 H641 0.929 1_545 S
C655 C654 1.399 . S
C655 C656 1.385 . S
C656 H642 0.931 . S
C656 C655 1.385 . S
C656 C657 1.389 1_655 S
C657 C656 1.389 1_455 S
C657 C658 1.387 . S
C658 H643 0.930 . S
C658 C653 1.390 1_455 S
C658 C657 1.387 . S
H659 C671 0.930 . S
H660 C673 0.930 . S
H661 C674 0.930 . S
H662 C678 0.959 . S
H663 C678 0.959 . S
H664 C678 0.961 . S
H665 C679 0.960 . S
H666 C679 0.961 . S
H667 C679 0.959 1_556 S
H668 C682 0.921 1_556 S
H669 C683 0.931 . S
H670 C685 0.930 . S
C671 H659 0.930 . S
C671 C672 1.399 1_554 S
C671 C676 1.399 . S
C672 C671 1.399 1_556 S
C672 C673 1.376 . S
C673 H660 0.930 . S
C673 C672 1.376 . S
C673 C674 1.388 . S
C674 H661 0.930 . S
C674 C673 1.388 . S
C674 C675 1.388 . S
C675 C674 1.388 . S
C675 C676 1.394 1_556 S
C675 C681 1.468 1_556 S
C676 C671 1.399 . S
C676 C675 1.394 1_554 S
C676 C677 1.516 . S
C677 C676 1.516 . S
C677 C678 1.502 . S
C677 C679 1.561 . S
C677 C680 1.526 . S
C678 H662 0.959 . S
C678 H663 0.959 . S
C678 H664 0.961 . S
C678 C677 1.502 . S
C679 H665 0.960 . S
C679 H666 0.961 . S
C679 H667 0.959 1_554 S
C679 C677 1.561 . S
C680 C677 1.526 . S
C680 C681 1.396 . S
C680 C685 1.390 . S
C681 C675 1.468 1_554 S
C681 C680 1.396 . S
C681 C682 1.399 . S
C682 H668 0.921 1_554 S
C682 C681 1.399 . S
C682 C683 1.385 . S
C683 H669 0.931 . S
C683 C682 1.385 . S
C683 C684 1.389 . S
C684 C683 1.389 . S
C684 C685 1.387 . S
C685 H670 0.930 . S
C685 C680 1.390 . S
C685 C684 1.387 . S
H686 C698 0.930 . S
H687 C700 0.930 . S
H688 C701 0.930 . S
H689 C705 0.959 . S
H690 C705 0.959 . S
H691 C705 0.961 . S
H692 C706 0.960 . S
H693 C706 0.961 . S
H694 C706 0.959 . S
H695 C709 0.929 . S
H696 C710 0.931 . S
H697 C712 0.930 . S
C698 H686 0.930 . S
C698 C699 1.399 . S
C698 C703 1.399 . S
C699 C698 1.399 . S
C699 C700 1.376 . S
C700 H687 0.930 . S
C700 C699 1.376 . S
C700 C701 1.388 . S
C701 H688 0.930 . S
C701 C700 1.388 . S
C701 C702 1.390 . S
C702 C701 1.390 . S
C702 C703 1.394 . S
C702 C708 1.465 . S
C703 C698 1.399 . S
C703 C702 1.394 . S
C703 C704 1.516 . S
C704 C703 1.516 . S
C704 C705 1.502 . S
C704 C706 1.561 . S
C704 C707 1.526 . S
C705 H689 0.959 . S
C705 H690 0.959 . S
C705 H691 0.961 . S
C705 C704 1.502 . S
C706 H692 0.960 . S
C706 H693 0.961 . S
C706 H694 0.959 . S
C706 C704 1.561 . S
C707 C704 1.526 . S
C707 C708 1.396 . S
C707 C712 1.390 . S
C708 C702 1.465 . S
C708 C707 1.396 . S
C708 C709 1.399 . S
C709 H695 0.929 . S
C709 C708 1.399 . S
C709 C710 1.385 . S
C710 H696 0.931 . S
C710 C709 1.385 . S
C710 C711 1.389 . S
C711 C710 1.389 . S
C711 C712 1.387 . S
C712 H697 0.930 . S
C712 C707 1.390 . S
C712 C711 1.387 . S
H713 C725 0.930 . S
H714 C727 0.930 . S
H715 C728 0.930 . S
H716 C732 0.959 . S
H717 C732 0.959 . S
H718 C732 0.961 . S
H719 C733 0.960 . S
H720 C733 0.961 . S
H721 C733 0.959 . S
H722 C736 0.929 . S
H723 C737 0.931 . S
H724 C739 0.930 . S
C725 H713 0.930 . S
C725 C726 1.399 . S
C725 C730 1.399 . S
C726 C725 1.399 . S
C726 C727 1.376 . S
C727 H714 0.930 . S
C727 C726 1.376 . S
C727 C728 1.388 . S
C728 H715 0.930 . S
C728 C727 1.388 . S
C728 C729 1.390 . S
C729 C728 1.390 . S
C729 C730 1.394 . S
C729 C735 1.465 . S
C730 C725 1.399 . S
C730 C729 1.394 . S
C730 C731 1.516 . S
C731 C730 1.516 . S
C731 C732 1.502 . S
C731 C733 1.561 . S
C731 C734 1.526 . S
C732 H716 0.959 . S
C732 H717 0.959 . S
C732 H718 0.961 . S
C732 C731 1.502 . S
C733 H719 0.960 . S
C733 H720 0.961 . S
C733 H721 0.959 . S
C733 C731 1.561 . S
C734 C731 1.526 . S
C734 C735 1.396 . S
C734 C739 1.390 . S
C735 C729 1.465 . S
C735 C734 1.396 . S
C735 C736 1.399 . S
C736 H722 0.929 . S
C736 C735 1.399 . S
C736 C737 1.385 . S
C737 H723 0.931 . S
C737 C736 1.385 . S
C737 C738 1.389 . S
C738 C737 1.389 . S
C738 C739 1.387 . S
C739 H724 0.930 . S
C739 C734 1.390 . S
C739 C738 1.387 . S
H740 C752 0.930 . S
H741 C754 0.930 . S
H742 C755 0.930 . S
H743 C759 0.959 . S
H744 C759 0.959 . S
H745 C759 0.961 . S
H746 C760 0.960 . S
H747 C760 0.961 . S
H748 C760 0.959 . S
H749 C763 0.929 . S
H750 C764 0.931 . S
H751 C766 0.930 . S
C752 H740 0.930 . S
C752 C753 1.399 . S
C752 C757 1.399 . S
C753 C752 1.399 . S
C753 C754 1.376 . S
C754 H741 0.930 . S
C754 C753 1.376 . S
C754 C755 1.388 . S
C755 H742 0.930 . S
C755 C754 1.388 . S
C755 C756 1.390 . S
C756 C755 1.390 . S
C756 C757 1.394 . S
C756 C762 1.465 . S
C757 C752 1.399 . S
C757 C756 1.394 . S
C757 C758 1.516 . S
C758 C757 1.516 . S
C758 C759 1.502 . S
C758 C760 1.561 . S
C758 C761 1.526 . S
C759 H743 0.959 . S
C759 H744 0.959 . S
C759 H745 0.961 . S
C759 C758 1.502 . S
C760 H746 0.960 . S
C760 H747 0.961 . S
C760 H748 0.959 . S
C760 C758 1.561 . S
C761 C758 1.526 . S
C761 C762 1.396 . S
C761 C766 1.390 . S
C762 C756 1.465 . S
C762 C761 1.396 . S
C762 C763 1.399 . S
C763 H749 0.929 . S
C763 C762 1.399 . S
C763 C764 1.385 . S
C764 H750 0.931 . S
C764 C763 1.385 . S
C764 C765 1.389 . S
C765 C764 1.389 . S
C765 C766 1.387 . S
C766 H751 0.930 . S
C766 C761 1.390 . S
C766 C765 1.387 . S
H767 C779 0.930 . S
H768 C781 0.930 . S
H769 C782 0.930 . S
H770 C786 0.959 . S
H771 C786 0.959 . S
H772 C786 0.961 . S
H773 C787 0.960 . S
H774 C787 0.961 . S
H775 C787 0.959 . S
H776 C790 0.929 . S
H777 C791 0.931 . S
H778 C793 0.930 . S
C779 H767 0.930 . S
C779 C780 1.399 . S
C779 C784 1.399 . S
C780 C779 1.399 . S
C780 C781 1.376 . S
C781 H768 0.930 . S
C781 C780 1.376 . S
C781 C782 1.388 . S
C782 H769 0.930 . S
C782 C781 1.388 . S
C782 C783 1.390 . S
C783 C782 1.390 . S
C783 C784 1.394 . S
C783 C789 1.465 . S
C784 C779 1.399 . S
C784 C783 1.394 . S
C784 C785 1.516 . S
C785 C784 1.516 . S
C785 C786 1.502 . S
C785 C787 1.561 . S
C785 C788 1.526 . S
C786 H770 0.959 . S
C786 H771 0.959 . S
C786 H772 0.961 . S
C786 C785 1.502 . S
C787 H773 0.960 . S
C787 H774 0.961 . S
C787 H775 0.959 . S
C787 C785 1.561 . S
C788 C785 1.526 . S
C788 C789 1.396 . S
C788 C793 1.390 . S
C789 C783 1.465 . S
C789 C788 1.396 . S
C789 C790 1.399 . S
C790 H776 0.929 . S
C790 C789 1.399 . S
C790 C791 1.385 . S
C791 H777 0.931 . S
C791 C790 1.385 . S
C791 C792 1.389 . S
C792 C791 1.389 . S
C792 C793 1.387 . S
C793 H778 0.930 . S
C793 C788 1.390 . S
C793 C792 1.387 . S
H794 C806 0.930 1_455 S
H795 C808 0.930 . S
H796 C809 0.930 . S
H797 C813 0.959 . S
H798 C813 0.959 . S
H799 C813 0.961 . S
H800 C814 0.960 . S
H801 C814 0.961 . S
H802 C814 0.959 . S
H803 C817 0.929 . S
H804 C818 0.931 . S
H805 C820 0.930 . S
C806 H794 0.930 1_655 S
C806 C807 1.399 . S
C806 C811 1.399 . S
C807 C806 1.399 . S
C807 C808 1.376 . S
C808 H795 0.930 . S
C808 C807 1.376 . S
C808 C809 1.388 . S
C809 H796 0.930 . S
C809 C808 1.388 . S
C809 C810 1.390 . S
C810 C809 1.390 . S
C810 C811 1.394 . S
C810 C816 1.465 . S
C811 C806 1.399 . S
C811 C810 1.394 . S
C811 C812 1.516 1_655 S
C812 C811 1.516 1_455 S
C812 C813 1.502 . S
C812 C814 1.561 1_455 S
C812 C815 1.526 1_455 S
C813 H797 0.959 . S
C813 H798 0.959 . S
C813 H799 0.961 . S
C813 C812 1.502 . S
C814 H800 0.960 . S
C814 H801 0.961 . S
C814 H802 0.959 . S
C814 C812 1.561 1_655 S
C815 C812 1.526 1_655 S
C815 C816 1.396 . S
C815 C820 1.390 1_655 S
C816 C810 1.465 . S
C816 C815 1.396 . S
C816 C817 1.399 . S
C817 H803 0.929 . S
C817 C816 1.399 . S
C817 C818 1.385 . S
C818 H804 0.931 . S
C818 C817 1.385 . S
C818 C819 1.389 . S
C819 C818 1.389 . S
C819 C820 1.387 1_655 S
C820 H805 0.930 . S
C820 C815 1.390 1_455 S
C820 C819 1.387 1_455 S
H821 C833 0.930 . S
H822 C835 0.930 . S
H823 C836 0.930 . S
H824 C840 0.959 . S
H825 C840 0.959 . S
H826 C840 0.961 . S
H827 C841 0.960 . S
H828 C841 0.961 . S
H829 C841 0.959 . S
H830 C844 0.929 . S
H831 C845 0.931 . S
H832 C847 0.930 . S
C833 H821 0.930 . S
C833 C834 1.399 . S
C833 C838 1.399 . S
C834 C833 1.399 . S
C834 C835 1.376 . S
C835 H822 0.930 . S
C835 C834 1.376 . S
C835 C836 1.388 . S
C836 H823 0.930 . S
C836 C835 1.388 . S
C836 C837 1.390 . S
C837 C836 1.390 . S
C837 C838 1.394 . S
C837 C843 1.465 . S
C838 C833 1.399 . S
C838 C837 1.394 . S
C838 C839 1.516 . S
C839 C838 1.516 . S
C839 C840 1.502 . S
C839 C841 1.561 . S
C839 C842 1.526 . S
C840 H824 0.959 . S
C840 H825 0.959 . S
C840 H826 0.961 . S
C840 C839 1.502 . S
C841 H827 0.960 . S
C841 H828 0.961 . S
C841 H829 0.959 . S
C841 C839 1.561 . S
C842 C839 1.526 . S
C842 C843 1.396 . S
C842 C847 1.390 . S
C843 C837 1.465 . S
C843 C842 1.396 . S
C843 C844 1.399 . S
C844 H830 0.929 . S
C844 C843 1.399 . S
C844 C845 1.385 . S
C845 H831 0.931 . S
C845 C844 1.385 . S
C845 C846 1.389 . S
C846 C845 1.389 . S
C846 C847 1.387 . S
C847 H832 0.930 . S
C847 C842 1.390 . S
C847 C846 1.387 . S
H848 C860 0.930 . S
H849 C862 0.930 . S
H850 C863 0.930 . S
H851 C867 0.959 . S
H852 C867 0.959 . S
H853 C867 0.961 . S
H854 C868 0.960 . S
H855 C868 0.961 . S
H856 C868 0.959 . S
H857 C871 0.929 . S
H858 C872 0.931 . S
H859 C874 0.930 . S
C860 H848 0.930 . S
C860 C861 1.399 . S
C860 C865 1.399 . S
C861 C860 1.399 . S
C861 C862 1.376 . S
C862 H849 0.930 . S
C862 C861 1.376 . S
C862 C863 1.388 . S
C863 H850 0.930 . S
C863 C862 1.388 . S
C863 C864 1.390 . S
C864 C863 1.390 . S
C864 C865 1.394 . S
C864 C870 1.465 . S
C865 C860 1.399 . S
C865 C864 1.394 . S
C865 C866 1.516 . S
C866 C865 1.516 . S
C866 C867 1.502 . S
C866 C868 1.561 . S
C866 C869 1.526 . S
C867 H851 0.959 . S
C867 H852 0.959 . S
C867 H853 0.961 . S
C867 C866 1.502 . S
C868 H854 0.960 . S
C868 H855 0.961 . S
C868 H856 0.959 . S
C868 C866 1.561 . S
C869 C866 1.526 . S
C869 C870 1.396 . S
C869 C874 1.390 . S
C870 C864 1.465 . S
C870 C869 1.396 . S
C870 C871 1.399 . S
C871 H857 0.929 . S
C871 C870 1.399 . S
C871 C872 1.385 . S
C872 H858 0.931 . S
C872 C871 1.385 . S
C872 C873 1.389 . S
C873 C872 1.389 . S
C873 C874 1.387 . S
C874 H859 0.930 . S
C874 C869 1.390 . S
C874 C873 1.387 . S
H875 C887 0.930 . S
H876 C889 0.930 . S
H877 C890 0.930 . S
H878 C894 0.959 . S
H879 C894 0.959 . S
H880 C894 0.961 . S
H881 C895 0.960 . S
H882 C895 0.961 . S
H883 C895 0.959 . S
H884 C898 0.929 . S
H885 C899 0.931 . S
H886 C901 0.930 . S
C887 H875 0.930 . S
C887 C888 1.399 . S
C887 C892 1.399 . S
C888 C887 1.399 . S
C888 C889 1.376 . S
C889 H876 0.930 . S
C889 C888 1.376 . S
C889 C890 1.388 . S
C890 H877 0.930 . S
C890 C889 1.388 . S
C890 C891 1.390 . S
C891 C890 1.390 . S
C891 C892 1.394 . S
C891 C897 1.465 . S
C892 C887 1.399 . S
C892 C891 1.394 . S
C892 C893 1.516 . S
C893 C892 1.516 . S
C893 C894 1.502 . S
C893 C895 1.561 . S
C893 C896 1.526 . S
C894 H878 0.959 . S
C894 H879 0.959 . S
C894 H880 0.961 . S
C894 C893 1.502 . S
C895 H881 0.960 . S
C895 H882 0.961 . S
C895 H883 0.959 . S
C895 C893 1.561 . S
C896 C893 1.526 . S
C896 C897 1.396 . S
C896 C901 1.390 . S
C897 C891 1.465 . S
C897 C896 1.396 . S
C897 C898 1.399 . S
C898 H884 0.929 . S
C898 C897 1.399 . S
C898 C899 1.385 . S
C899 H885 0.931 . S
C899 C898 1.385 . S
C899 C900 1.389 . S
C900 C899 1.389 . S
C900 C901 1.387 . S
C901 H886 0.930 . S
C901 C896 1.390 . S
C901 C900 1.387 . S
H902 C914 0.930 . S
H903 C916 0.930 . S
H904 C917 0.930 . S
H905 C921 0.944 1_545 S
H906 C921 0.972 . S
H907 C921 0.961 . S
H908 C922 0.960 . S
H909 C922 0.961 1_455 S
H910 C922 0.959 . S
H911 C925 0.929 . S
H912 C926 0.931 . S
H913 C928 0.930 . S
C914 H902 0.930 . S
C914 C915 1.399 1_455 S
C914 C919 1.399 . S
C915 C914 1.399 1_655 S
C915 C916 1.376 . S
C916 H903 0.930 . S
C916 C915 1.376 . S
C916 C917 1.388 . S
C917 H904 0.930 . S
C917 C916 1.388 . S
C917 C918 1.390 . S
C918 C917 1.390 . S
C918 C919 1.394 1_655 S
C918 C924 1.465 1_665 S
C919 C914 1.399 . S
C919 C918 1.394 1_455 S
C919 C920 1.516 . S
C920 C919 1.516 . S
C920 C921 1.502 . S
C920 C922 1.561 1_455 S
C920 C923 1.526 1_565 S
C921 H905 0.944 1_565 S
C921 H906 0.972 . S
C921 H907 0.961 . S
C921 C920 1.502 . S
C922 H908 0.960 . S
C922 H909 0.961 1_655 S
C922 H910 0.959 . S
C922 C920 1.561 1_655 S
C923 C920 1.526 1_545 S
C923 C924 1.412 . S
C923 C928 1.390 . S
C924 C918 1.465 1_445 S
C924 C923 1.412 . S
C924 C925 1.387 1_455 S
C925 H911 0.929 . S
C925 C924 1.387 1_655 S
C925 C926 1.385 . S
C926 H912 0.931 . S
C926 C925 1.385 . S
C926 C927 1.389 1_655 S
C927 C926 1.389 1_455 S
C927 C928 1.387 . S
C928 H913 0.930 . S
C928 C923 1.390 . S
C928 C927 1.387 . S
H929 C941 0.930 . S
H930 C943 0.930 . S
H931 C944 0.930 . S
H932 C948 0.959 . S
H933 C948 0.959 . S
H934 C948 0.961 . S
H935 C949 0.960 . S
H936 C949 0.961 . S
H937 C949 0.959 . S
H938 C952 0.929 . S
H939 C953 0.931 . S
H940 C955 0.930 . S
C941 H929 0.930 . S
C941 C942 1.399 . S
C941 C946 1.399 . S
C942 C941 1.399 . S
C942 C943 1.376 . S
C943 H930 0.930 . S
C943 C942 1.376 . S
C943 C944 1.388 . S
C944 H931 0.930 . S
C944 C943 1.388 . S
C944 C945 1.390 . S
C945 C944 1.390 . S
C945 C946 1.394 . S
C945 C951 1.465 . S
C946 C941 1.399 . S
C946 C945 1.394 . S
C946 C947 1.516 . S
C947 C946 1.516 . S
C947 C948 1.502 . S
C947 C949 1.561 . S
C947 C950 1.526 . S
C948 H932 0.959 . S
C948 H933 0.959 . S
C948 H934 0.961 . S
C948 C947 1.502 . S
C949 H935 0.960 . S
C949 H936 0.961 . S
C949 H937 0.959 . S
C949 C947 1.561 . S
C950 C947 1.526 . S
C950 C951 1.396 . S
C950 C955 1.390 . S
C951 C945 1.465 . S
C951 C950 1.396 . S
C951 C952 1.399 . S
C952 H938 0.929 . S
C952 C951 1.399 . S
C952 C953 1.385 . S
C953 H939 0.931 . S
C953 C952 1.385 . S
C953 C954 1.389 . S
C954 C953 1.389 . S
C954 C955 1.387 . S
C955 H940 0.930 . S
C955 C950 1.390 . S
C955 C954 1.387 . S
H956 C968 0.930 . S
H957 C970 0.930 . S
H958 C971 0.930 . S
H959 C975 0.959 . S
H960 C975 0.959 . S
H961 C975 0.961 . S
H962 C976 0.960 . S
H963 C976 0.961 . S
H964 C976 0.959 . S
H965 C979 0.929 . S
H966 C980 0.931 . S
H967 C982 0.930 . S
C968 H956 0.930 . S
C968 C969 1.399 . S
C968 C973 1.399 . S
C969 C968 1.399 . S
C969 C970 1.376 . S
C970 H957 0.930 . S
C970 C969 1.376 . S
C970 C971 1.388 . S
C971 H958 0.930 . S
C971 C970 1.388 . S
C971 C972 1.390 . S
C972 C971 1.390 . S
C972 C973 1.394 . S
C972 C978 1.465 . S
C973 C968 1.399 . S
C973 C972 1.394 . S
C973 C974 1.516 . S
C974 C973 1.516 . S
C974 C975 1.502 . S
C974 C976 1.561 . S
C974 C977 1.526 . S
C975 H959 0.959 . S
C975 H960 0.959 . S
C975 H961 0.961 . S
C975 C974 1.502 . S
C976 H962 0.960 . S
C976 H963 0.961 . S
C976 H964 0.959 . S
C976 C974 1.561 . S
C977 C974 1.526 . S
C977 C978 1.396 . S
C977 C982 1.390 . S
C978 C972 1.465 . S
C978 C977 1.396 . S
C978 C979 1.399 . S
C979 H965 0.929 . S
C979 C978 1.399 . S
C979 C980 1.385 . S
C980 H966 0.931 . S
C980 C979 1.385 . S
C980 C981 1.389 . S
C981 C980 1.389 . S
C981 C982 1.387 . S
C982 H967 0.930 . S
C982 C977 1.390 . S
C982 C981 1.387 . S
H983 C995 0.930 . S
H984 C997 0.930 . S
H985 C998 0.930 . S
H986 C1002 0.959 . S
H987 C1002 0.959 . S
H988 C1002 0.961 . S
H989 C1003 0.960 . S
H990 C1003 0.961 . S
H991 C1003 0.959 . S
H992 C1006 0.929 . S
H993 C1007 0.931 . S
H994 C1009 0.930 . S
C995 H983 0.930 . S
C995 C996 1.399 . S
C995 C1000 1.399 . S
C996 C995 1.399 . S
C996 C997 1.376 . S
C997 H984 0.930 . S
C997 C996 1.376 . S
C997 C998 1.388 . S
C998 H985 0.930 . S
C998 C997 1.388 . S
C998 C999 1.390 . S
C999 C998 1.390 . S
C999 C1000 1.394 . S
C999 C1005 1.465 . S
C1000 C995 1.399 . S
C1000 C999 1.394 . S
C1000 C1001 1.516 . S
C1001 C1000 1.516 . S
C1001 C1002 1.502 . S
C1001 C1003 1.561 . S
C1001 C1004 1.526 . S
C1002 H986 0.959 . S
C1002 H987 0.959 . S
C1002 H988 0.961 . S
C1002 C1001 1.502 . S
C1003 H989 0.960 . S
C1003 H990 0.961 . S
C1003 H991 0.959 . S
C1003 C1001 1.561 . S
C1004 C1001 1.526 . S
C1004 C1005 1.396 . S
C1004 C1009 1.390 . S
C1005 C999 1.465 . S
C1005 C1004 1.396 . S
C1005 C1006 1.399 . S
C1006 H992 0.929 . S
C1006 C1005 1.399 . S
C1006 C1007 1.385 . S
C1007 H993 0.931 . S
C1007 C1006 1.385 . S
C1007 C1008 1.389 . S
C1008 C1007 1.389 . S
C1008 C1009 1.387 . S
C1009 H994 0.930 . S
C1009 C1004 1.390 . S
C1009 C1008 1.387 . S
H1010 C1022 0.930 . S
H1011 C1024 0.930 . S
H1012 C1025 0.930 . S
H1013 C1029 0.959 . S
H1014 C1029 0.959 . S
H1015 C1029 0.961 . S
H1016 C1030 0.960 . S
H1017 C1030 0.961 . S
H1018 C1030 0.959 . S
H1019 C1033 0.929 . S
H1020 C1034 0.931 . S
H1021 C1036 0.930 . S
C1022 H1010 0.930 . S
C1022 C1023 1.399 . S
C1022 C1027 1.399 . S
C1023 C1022 1.399 . S
C1023 C1024 1.376 . S
C1024 H1011 0.930 . S
C1024 C1023 1.376 . S
C1024 C1025 1.388 . S
C1025 H1012 0.930 . S
C1025 C1024 1.388 . S
C1025 C1026 1.390 . S
C1026 C1025 1.390 . S
C1026 C1027 1.394 . S
C1026 C1032 1.465 . S
C1027 C1022 1.399 . S
C1027 C1026 1.394 . S
C1027 C1028 1.516 . S
C1028 C1027 1.516 . S
C1028 C1029 1.502 . S
C1028 C1030 1.561 . S
C1028 C1031 1.526 . S
C1029 H1013 0.959 . S
C1029 H1014 0.959 . S
C1029 H1015 0.961 . S
C1029 C1028 1.502 . S
C1030 H1016 0.960 . S
C1030 H1017 0.961 . S
C1030 H1018 0.959 . S
C1030 C1028 1.561 . S
C1031 C1028 1.526 . S
C1031 C1032 1.396 . S
C1031 C1036 1.390 . S
C1032 C1026 1.465 . S
C1032 C1031 1.396 . S
C1032 C1033 1.399 . S
C1033 H1019 0.929 . S
C1033 C1032 1.399 . S
C1033 C1034 1.385 . S
C1034 H1020 0.931 . S
C1034 C1033 1.385 . S
C1034 C1035 1.389 . S
C1035 C1034 1.389 . S
C1035 C1036 1.387 . S
C1036 H1021 0.930 . S
C1036 C1031 1.390 . S
C1036 C1035 1.387 . S
H1037 C1049 0.930 . S
H1038 C1051 0.930 . S
H1039 C1052 0.930 . S
H1040 C1056 0.959 . S
H1041 C1056 0.959 . S
H1042 C1056 0.961 . S
H1043 C1057 0.960 . S
H1044 C1057 0.961 . S
H1045 C1057 0.959 . S
H1046 C1060 0.929 . S
H1047 C1061 0.931 . S
H1048 C1063 0.930 . S
C1049 H1037 0.930 . S
C1049 C1050 1.399 . S
C1049 C1054 1.399 . S
C1050 C1049 1.399 . S
C1050 C1051 1.376 . S
C1051 H1038 0.930 . S
C1051 C1050 1.376 . S
C1051 C1052 1.388 . S
C1052 H1039 0.930 . S
C1052 C1051 1.388 . S
C1052 C1053 1.390 . S
C1053 C1052 1.390 . S
C1053 C1054 1.394 . S
C1053 C1059 1.465 . S
C1054 C1049 1.399 . S
C1054 C1053 1.394 . S
C1054 C1055 1.516 . S
C1055 C1054 1.516 . S
C1055 C1056 1.502 . S
C1055 C1057 1.561 . S
C1055 C1058 1.526 . S
C1056 H1040 0.959 . S
C1056 H1041 0.959 . S
C1056 H1042 0.961 . S
C1056 C1055 1.502 . S
C1057 H1043 0.960 . S
C1057 H1044 0.961 . S
C1057 H1045 0.959 . S
C1057 C1055 1.561 . S
C1058 C1055 1.526 . S
C1058 C1059 1.396 . S
C1058 C1063 1.390 . S
C1059 C1053 1.465 . S
C1059 C1058 1.396 . S
C1059 C1060 1.399 . S
C1060 H1046 0.929 . S
C1060 C1059 1.399 . S
C1060 C1061 1.385 . S
C1061 H1047 0.931 . S
C1061 C1060 1.385 . S
C1061 C1062 1.389 . S
C1062 C1061 1.389 . S
C1062 C1063 1.387 . S
C1063 H1048 0.930 . S
C1063 C1058 1.390 . S
C1063 C1062 1.387 . S
H1064 C1076 0.930 . S
H1065 C1078 0.930 . S
H1066 C1079 0.930 . S
H1067 C1083 0.959 . S
H1068 C1083 0.959 . S
H1069 C1083 0.961 . S
H1070 C1084 0.960 . S
H1071 C1084 0.961 . S
H1072 C1084 0.959 . S
H1073 C1087 0.929 . S
H1074 C1088 0.931 . S
H1075 C1090 0.930 . S
C1076 H1064 0.930 . S
C1076 C1077 1.399 . S
C1076 C1081 1.399 . S
C1077 C1076 1.399 . S
C1077 C1078 1.376 . S
C1078 H1065 0.930 . S
C1078 C1077 1.376 . S
C1078 C1079 1.388 . S
C1079 H1066 0.930 . S
C1079 C1078 1.388 . S
C1079 C1080 1.390 . S
C1080 C1079 1.390 . S
C1080 C1081 1.394 . S
C1080 C1086 1.465 . S
C1081 C1076 1.399 . S
C1081 C1080 1.394 . S
C1081 C1082 1.516 . S
C1082 C1081 1.516 . S
C1082 C1083 1.502 . S
C1082 C1084 1.561 . S
C1082 C1085 1.526 . S
C1083 H1067 0.959 . S
C1083 H1068 0.959 . S
C1083 H1069 0.961 . S
C1083 C1082 1.502 . S
C1084 H1070 0.960 . S
C1084 H1071 0.961 . S
C1084 H1072 0.959 . S
C1084 C1082 1.561 . S
C1085 C1082 1.526 . S
C1085 C1086 1.396 . S
C1085 C1090 1.390 . S
C1086 C1080 1.465 . S
C1086 C1085 1.396 . S
C1086 C1087 1.399 . S
C1087 H1073 0.929 . S
C1087 C1086 1.399 . S
C1087 C1088 1.385 . S
C1088 H1074 0.931 . S
C1088 C1087 1.385 . S
C1088 C1089 1.389 . S
C1089 C1088 1.389 . S
C1089 C1090 1.387 . S
C1090 H1075 0.930 . S
C1090 C1085 1.390 . S
C1090 C1089 1.387 . S
H1091 C1103 0.930 . S
H1092 C1105 0.930 . S
H1093 C1106 0.930 . S
H1094 C1110 0.959 . S
H1095 C1110 0.959 . S
H1096 C1110 0.961 . S
H1097 C1111 0.960 . S
H1098 C1111 0.961 . S
H1099 C1111 0.959 . S
H1100 C1114 0.929 . S
H1101 C1115 0.931 . S
H1102 C1117 0.930 . S
C1103 H1091 0.930 . S
C1103 C1104 1.399 . S
C1103 C1108 1.399 . S
C1104 C1103 1.399 . S
C1104 C1105 1.376 . S
C1105 H1092 0.930 . S
C1105 C1104 1.376 . S
C1105 C1106 1.388 . S
C1106 H1093 0.930 . S
C1106 C1105 1.388 . S
C1106 C1107 1.390 . S
C1107 C1106 1.390 . S
C1107 C1108 1.394 . S
C1107 C1113 1.465 . S
C1108 C1103 1.399 . S
C1108 C1107 1.394 . S
C1108 C1109 1.516 . S
C1109 C1108 1.516 . S
C1109 C1110 1.502 . S
C1109 C1111 1.561 . S
C1109 C1112 1.526 . S
C1110 H1094 0.959 . S
C1110 H1095 0.959 . S
C1110 H1096 0.961 . S
C1110 C1109 1.502 . S
C1111 H1097 0.960 . S
C1111 H1098 0.961 . S
C1111 H1099 0.959 . S
C1111 C1109 1.561 . S
C1112 C1109 1.526 . S
C1112 C1113 1.396 . S
C1112 C1117 1.390 . S
C1113 C1107 1.465 . S
C1113 C1112 1.396 . S
C1113 C1114 1.399 . S
C1114 H1100 0.929 . S
C1114 C1113 1.399 . S
C1114 C1115 1.385 . S
C1115 H1101 0.931 . S
C1115 C1114 1.385 . S
C1115 C1116 1.389 . S
C1116 C1115 1.389 . S
C1116 C1117 1.387 . S
C1117 H1102 0.930 . S
C1117 C1112 1.390 . S
C1117 C1116 1.387 . S
C495 C174 1.502 . S
C483 C11 1.372 . S
C522 C243 1.674 . S
C510 C25 1.595 . S
C549 C181 1.238 . S
C537 C40 1.235 . S
C576 C244 1.430 . S
C564 C59 1.355 . S
C603 C297 1.836 . S
C591 C6 1.848 . S
C630 C333 1.749 . S
C618 C21 1.739 . S
C645 C49 1.525 . S
C657 C393 1.604 . S
C684 C456 1.518 . S
C672 C68 1.403 . S
C711 C296 1.801 . S
C699 C30 1.541 . S
C726 C44 1.633 . S
C738 C340 1.677 . S
C765 C386 1.737 . S
C753 C63 1.738 . S
C792 C455 1.680 . S
C780 C2 1.676 . S
C807 C78 1.680 . S
C819 C234 1.736 1_655 S
C846 C191 1.550 . S
C834 C97 1.505 . S
C861 C120 1.654 . S
C873 C227 1.663 . S
C888 C139 1.695 . S
C900 C190 1.680 . S
C927 C402 1.564 . S
C915 C87 1.411 . S
C954 C446 1.619 . S
C942 C101 1.615 . S
C981 C280 1.612 . S
C969 C125 1.498 . S
C996 C144 1.674 . S
C1008 C349 1.740 . S
C1035 C403 1.750 . S
C1023 C106 1.479 . S
C1062 C439 1.618 . S
C1050 C116 1.581 . S
C1089 C287 1.634 . S
C1077 C135 1.614 . S
C1104 C82 1.766 . S
C1116 C350 1.725 . S
