# Generated by pormake.
# Topology zzz, (3,6)-cn, num edge types: 1
# Building blocks:
#     Node 0, Type 0, BuildingBlock: ESEHIV_clean_linker_0, # of connection points: 3
#     Node 1, Type 0, BuildingBlock: ESEHIV_clean_linker_0, # of connection points: 3
#     Node 2, Type 0, BuildingBlock: ESEHIV_clean_linker_0, # of connection points: 3
#     Node 3, Type 0, BuildingBlock: ESEHIV_clean_linker_0, # of connection points: 3
#     Node 4, Type 0, BuildingBlock: ESEHIV_clean_linker_0, # of connection points: 3
#     Node 5, Type 0, BuildingBlock: ESEHIV_clean_linker_0, # of connection points: 3
#     Node 6, Type 0, BuildingBlock: ESEHIV_clean_linker_0, # of connection points: 3
#     Node 7, Type 0, BuildingBlock: ESEHIV_clean_linker_0, # of connection points: 3
#     Node 8, Type 1, BuildingBlock: BETDIP_clean_sbu_0, # of connection points: 6
#     Node 9, Type 1, BuildingBlock: BETDIP_clean_sbu_0, # of connection points: 6
#     Node 10, Type 1, BuildingBlock: BETDIP_clean_sbu_0, # of connection points: 6
#     Node 11, Type 1, BuildingBlock: BETDIP_clean_sbu_0, # of connection points: 6
#     Edge 12, Type (0, 1), BuildingBlock: AJUNOK_clean_linker_0, # of connection points: 2
#     Edge 13, Type (0, 1), BuildingBlock: AJUNOK_clean_linker_0, # of connection points: 2
#     Edge 14, Type (0, 1), BuildingBlock: AJUNOK_clean_linker_0, # of connection points: 2
#     Edge 15, Type (0, 1), BuildingBlock: AJUNOK_clean_linker_0, # of connection points: 2
#     Edge 16, Type (0, 1), BuildingBlock: AJUNOK_clean_linker_0, # of connection points: 2
#     Edge 17, Type (0, 1), BuildingBlock: AJUNOK_clean_linker_0, # of connection points: 2
#     Edge 18, Type (0, 1), BuildingBlock: AJUNOK_clean_linker_0, # of connection points: 2
#     Edge 19, Type (0, 1), BuildingBlock: AJUNOK_clean_linker_0, # of connection points: 2
#     Edge 20, Type (0, 1), BuildingBlock: AJUNOK_clean_linker_0, # of connection points: 2
#     Edge 21, Type (0, 1), BuildingBlock: AJUNOK_clean_linker_0, # of connection points: 2
#     Edge 22, Type (0, 1), BuildingBlock: AJUNOK_clean_linker_0, # of connection points: 2
#     Edge 23, Type (0, 1), BuildingBlock: AJUNOK_clean_linker_0, # of connection points: 2
#     Edge 24, Type (0, 1), BuildingBlock: AJUNOK_clean_linker_0, # of connection points: 2
#     Edge 25, Type (0, 1), BuildingBlock: AJUNOK_clean_linker_0, # of connection points: 2
#     Edge 26, Type (0, 1), BuildingBlock: AJUNOK_clean_linker_0, # of connection points: 2
#     Edge 27, Type (0, 1), BuildingBlock: AJUNOK_clean_linker_0, # of connection points: 2
#     Edge 28, Type (0, 1), BuildingBlock: AJUNOK_clean_linker_0, # of connection points: 2
#     Edge 29, Type (0, 1), BuildingBlock: AJUNOK_clean_linker_0, # of connection points: 2
#     Edge 30, Type (0, 1), BuildingBlock: AJUNOK_clean_linker_0, # of connection points: 2
#     Edge 31, Type (0, 1), BuildingBlock: AJUNOK_clean_linker_0, # of connection points: 2
#     Edge 32, Type (0, 1), BuildingBlock: AJUNOK_clean_linker_0, # of connection points: 2
#     Edge 33, Type (0, 1), BuildingBlock: AJUNOK_clean_linker_0, # of connection points: 2
#     Edge 34, Type (0, 1), BuildingBlock: AJUNOK_clean_linker_0, # of connection points: 2
#     Edge 35, Type (0, 1), BuildingBlock: AJUNOK_clean_linker_0, # of connection points: 2
# Relax obj value: 0.624
# Max RMSD: 0.248
# Mean RMSD: 0.241
data_MOF--net-zzz--node1-BETDIP_clean_sbu_0--node2-ESEHIV_clean_linker_0--edge1-AJUNOK_clean_linker_0
_symmetry_space_group_name_H-M    P1
_symmetry_Int_Tables_number       1
_symmetry_cell_setting            triclinic
loop_
_symmetry_equiv_pos_as_xyz
'x, y, z'
_cell_length_a     32.312914
_cell_length_b     32.370767
_cell_length_c     10.691709
_cell_angle_alpha  89.600197
_cell_angle_beta   89.80179
_cell_angle_gamma 90.13619
loop_
_atom_site_label
_atom_site_type_symbol
_atom_site_fract_x
_atom_site_fract_y
_atom_site_fract_z
_atom_type_partial_charge
H0 H 0.82544 0.44821 0.36928 0.0
H1 H 0.70497 0.44436 0.20284 0.0
H2 H 0.74665 0.55479 0.38974 0.0
C3 C 0.79568 0.46249 0.35179 0.0
C4 C 0.78894 0.50218 0.39869 0.0
C5 C 0.76648 0.4422 0.27658 0.0
C6 C 0.72827 0.46101 0.25478 0.0
C7 C 0.72061 0.50207 0.28913 0.0
C8 C 0.75156 0.52308 0.36212 0.0
H9 H 0.09188 0.82703 0.36509 0.0
H10 H 0.09838 0.70746 0.19525 0.0
H11 H 0.98648 0.74612 0.38219 0.0
C12 C 0.07826 0.79715 0.34558 0.0
C13 C 0.03834 0.7896 0.39146 0.0
C14 C 0.09993 0.76842 0.27183 0.0
C15 C 0.08119 0.73046 0.24624 0.0
C16 C 0.03994 0.72191 0.27974 0.0
C17 C 1.01815 0.75198 0.35389 0.0
H18 H 0.72515 0.08897 0.40323 0.0
H19 H 0.84417 0.09141 0.22483 0.0
H20 H 0.79535 0.97729 0.37991 0.0
C21 C 0.7541 0.07402 0.38034 0.0
C22 C 0.75745 0.03217 0.41062 0.0
C23 C 0.78495 0.09564 0.3133 0.0
C24 C 0.82067 0.07467 0.27723 0.0
C25 C 0.82514 0.03195 0.29702 0.0
C26 C 0.79291 1.01027 0.36434 0.0
H27 H 0.45217 0.72155 0.40526 0.0
H28 H 0.56299 0.79416 0.38052 0.0
H29 H 0.45021 0.839 0.21482 0.0
C30 C 0.46696 0.7503 0.37788 0.0
C31 C 0.44616 0.77853 0.29978 0.0
C32 C 0.50813 0.75608 0.41402 0.0
C33 C 0.53016 0.79084 0.36334 0.0
C34 C 0.50892 0.82101 0.2887 0.0
C35 C 0.46649 0.81539 0.2668 0.0
H36 H 0.22025 0.60382 0.2359 0.0
H37 H 0.33922 0.60706 0.41328 0.0
H38 H 0.29916 0.49722 0.22159 0.0
C39 C 0.24965 0.58943 0.25734 0.0
C40 C 0.25659 0.54952 0.21192 0.0
C41 C 0.27861 0.61026 0.33267 0.0
C42 C 0.31606 0.59063 0.36063 0.0
C43 C 0.32404 0.5496 0.32592 0.0
C44 C 0.29374 0.52872 0.25051 0.0
H45 H 0.94211 0.2271 0.22085 0.0
H46 H 0.94466 0.34747 0.38619 0.0
H47 H 0.05498 0.29772 0.21487 0.0
C48 C 0.95843 0.25557 0.24094 0.0
C49 C 0.99949 0.25916 0.19983 0.0
C50 C 0.93882 0.28645 0.31186 0.0
C51 C 0.96041 0.3229 0.33737 0.0
C52 C 1.00266 0.32742 0.30916 0.0
C53 C 0.02251 0.29504 0.23872 0.0
H54 H 0.31266 0.93859 0.21454 0.0
H55 H 0.20028 0.94747 0.42476 0.0
H56 H 0.2416 0.05136 0.19965 0.0
C57 C 0.28524 0.9561 0.23914 0.0
C58 C 0.28088 0.9964 0.19227 0.0
C59 C 0.25638 0.93875 0.32249 0.0
C60 C 0.22181 0.96132 0.35843 0.0
C61 C 0.21518 1.00173 0.3153 0.0
C62 C 0.2456 1.01996 0.23279 0.0
H63 H 0.58897 0.31423 0.19945 0.0
H64 H 0.47707 0.24194 0.20348 0.0
H65 H 0.58671 0.1981 0.39356 0.0
C66 C 0.57296 0.28573 0.22308 0.0
C67 C 0.59253 0.25625 0.29897 0.0
C68 C 0.53202 0.28117 0.18392 0.0
C69 C 0.5094 0.24547 0.22734 0.0
C70 C 0.52956 0.21449 0.30301 0.0
C71 C 0.57124 0.22049 0.33407 0.0
Tb72 Tb 0.05001 1.01376 0.86167 0.0
Tb73 Tb 0.98561 0.03443 0.72334 0.0
C74 C 0.10788 0.9827 0.98713 0.0
C75 C 0.13817 0.95003 0.96268 0.0
C76 C 0.12711 0.91577 0.89129 0.0
C77 C 0.149 0.87911 0.90377 0.0
C78 C 0.18224 0.87639 0.9886 0.0
C79 C 0.19899 0.91358 0.03384 0.0
C80 C 0.17645 0.95023 1.02328 0.0
C81 C 0.07651 0.04424 0.64063 0.0
C82 C 1.01312 0.94397 0.67836 0.0
C83 C 0.93134 0.06734 0.587 0.0
C84 C 0.90746 0.10567 0.5945 0.0
C85 C 0.92674 0.14213 0.6323 0.0
C86 C 0.90611 0.17949 0.62382 0.0
C87 C 0.86559 0.18146 0.57564 0.0
C88 C 0.84489 0.14427 0.54989 0.0
C89 C 0.86571 0.1065 0.55947 0.0
C90 C 0.95859 1.00115 0.93952 0.0
C91 C 1.02086 0.10283 0.91442 0.0
O92 O 0.06923 0.97087 0.99661 0.0
O93 O 0.11196 1.01617 0.92054 0.0
O94 O 0.04715 1.0189 0.6594 0.0
O95 O 0.08787 0.05669 0.74933 0.0
O96 O 0.03296 0.95112 0.78491 0.0
O97 O 0.99523 0.97589 0.62397 0.0
O98 O 0.97116 0.07149 0.5684 0.0
O99 O 0.92306 0.03984 0.67267 0.0
O100 O 0.98781 0.02726 0.92622 0.0
O101 O 0.94715 0.9907 0.82869 0.0
O102 O 1.00269 0.09666 0.80453 0.0
O103 O 0.03733 0.07018 0.96891 0.0
H104 H 0.09917 0.91586 0.83653 0.0
H105 H 0.13551 0.85208 0.8615 0.0
H106 H 0.22613 0.91325 0.09203 0.0
H107 H 0.18691 0.97749 0.07191 0.0
H108 H 0.95878 0.14224 0.6603 0.0
H109 H 0.92382 0.20711 0.64286 0.0
H110 H 0.8138 0.14471 0.51411 0.0
H111 H 0.84995 0.07828 0.53367 0.0
Tb112 Tb 0.5277 0.04433 0.86212 0.0
Tb113 Tb 0.50453 0.98488 0.70359 0.0
C114 C 0.56173 0.09315 1.01268 0.0
C115 C 0.6001 0.11749 1.01248 0.0
C116 C 0.6377 0.09911 0.97954 0.0
C117 C 0.67464 0.1201 0.99784 0.0
C118 C 0.67485 0.15996 0.05011 0.0
C119 C 0.6369 0.18013 0.06902 0.0
C120 C 0.59967 0.15886 0.05102 0.0
C121 C 0.49703 0.07813 0.65111 0.0
C122 C 0.59609 1.01135 0.66757 0.0
C123 C 0.4712 0.93871 0.54424 0.0
C124 C 0.43792 0.90816 0.53763 0.0
C125 C 0.42233 0.89823 0.42032 0.0
C126 C 0.38798 0.87276 0.40977 0.0
C127 C 0.36696 0.85793 0.51734 0.0
C128 C 0.38473 0.86568 0.63512 0.0
C129 C 0.42004 0.89059 0.64532 0.0
C130 C 0.5355 0.95033 0.91287 0.0
C131 C 0.43632 1.01679 0.90173 0.0
O132 O 0.56567 0.05298 1.0181 0.0
O133 O 0.53399 0.10454 0.93182 0.0
O134 O 0.52181 0.04784 0.65929 0.0
O135 O 0.48667 0.08754 0.76396 0.0
O136 O 0.5897 0.02774 0.77964 0.0
O137 O 0.56343 0.99746 0.6076 0.0
O138 O 0.45996 0.97691 0.56337 0.0
O139 O 0.50335 0.92829 0.61021 0.0
O140 O 0.5111 0.98103 0.90663 0.0
O141 O 0.54394 0.94004 0.79945 0.0
O142 O 0.44291 0.99855 0.79241 0.0
O143 O 0.46836 0.03364 0.95787 0.0
H144 H 0.63888 0.06752 0.94728 0.0
H145 H 0.70308 0.10322 0.98226 0.0
H146 H 0.6361 0.21111 0.10611 0.0
H147 H 0.57071 0.17397 0.07327 0.0
H148 H 0.43514 0.91209 0.33625 0.0
H149 H 0.37585 0.8687 0.31653 0.0
H150 H 0.36922 0.85559 0.71966 0.0
H151 H 0.43187 0.89807 0.73717 0.0
Tb152 Tb 0.49128 0.53035 0.87191 0.0
Tb153 Tb 0.55569 0.50993 0.73012 0.0
C154 C 0.43422 0.56092 1.00283 0.0
C155 C 0.4057 0.59568 0.98392 0.0
C156 C 0.41882 0.63058 0.91741 0.0
C157 C 0.39855 0.66791 0.93293 0.0
C158 C 0.36461 0.67093 1.01579 0.0
C159 C 0.34625 0.63393 0.05855 0.0
C160 C 0.36705 0.59634 0.04359 0.0
C161 C 0.46399 0.50388 0.64886 0.0
C162 C 0.53095 0.60127 0.69541 0.0
C163 C 0.61033 0.48057 0.5871 0.0
C164 C 0.63049 0.4404 0.57549 0.0
C165 C 0.60678 0.40461 0.58874 0.0
C166 C 0.62459 0.36644 0.57087 0.0
C167 C 0.66692 0.36267 0.54088 0.0
C168 C 0.69129 0.39857 0.53173 0.0
C169 C 0.67308 0.4374 0.54963 0.0
C170 C 0.58293 0.53924 0.94986 0.0
C171 C 0.51728 0.43948 0.90963 0.0
O172 O 0.47337 0.5705 1.01504 0.0
O173 O 0.42896 0.52959 0.92937 0.0
O174 O 0.49424 0.528 0.66924 0.0
O175 O 0.45224 0.49024 0.75667 0.0
O176 O 0.51022 0.59334 0.80047 0.0
O177 O 0.54837 0.56994 0.63869 0.0
O178 O 0.57085 0.48157 0.56082 0.0
O179 O 0.61861 0.50056 0.68895 0.0
O180 O 0.55317 0.51398 0.93374 0.0
O181 O 0.59429 0.55172 0.84007 0.0
O182 O 0.53607 0.44688 0.80063 0.0
O183 O 0.50199 0.47154 0.96905 0.0
H184 H 0.44704 0.63015 0.8636 0.0
H185 H 0.41358 0.6948 0.8934 0.0
H186 H 0.31863 0.63475 0.11557 0.0
H187 H 0.35498 0.56872 0.08793 0.0
H188 H 0.5739 0.40608 0.60772 0.0
H189 H 0.60415 0.33996 0.57263 0.0
H190 H 0.72372 0.39667 0.5065 0.0
H191 H 0.69186 0.46501 0.53996 0.0
Tb192 Tb 1.01455 0.49223 0.86315 0.0
Tb193 Tb 0.03504 0.55681 0.72752 0.0
C194 C 0.98227 0.43521 0.9926 0.0
C195 C 0.94768 0.40665 0.97142 0.0
C196 C 0.91365 0.4195 0.9013 0.0
C197 C 0.87646 0.39822 0.90985 0.0
C198 C 0.87265 0.36334 0.9892 0.0
C199 C 0.90936 0.34566 0.03597 0.0
C200 C 0.94661 0.36781 0.02976 0.0
C201 C 0.04513 0.46504 0.6439 0.0
C202 C 0.94576 0.52836 0.67518 0.0
C203 C 0.06609 0.61526 0.60135 0.0
C204 C 0.09895 0.64589 0.62288 0.0
C205 C 0.13364 0.6352 0.69332 0.0
C206 C 0.16995 0.65795 0.68129 0.0
C207 C 0.17215 0.692 0.59802 0.0
C208 C 0.13468 0.70755 0.55008 0.0
C209 C 0.09826 0.68424 0.5613 0.0
C210 C 1.00391 0.58265 0.9477 0.0
C211 C 0.10429 0.52108 0.9142 0.0
O212 O 0.97252 0.47423 1.00306 0.0
O213 O 1.01449 0.43004 0.92154 0.0
O214 O 1.02023 0.49504 0.65934 0.0
O215 O 0.05714 0.45415 0.754 0.0
O216 O 0.95219 0.50993 0.7848 0.0
O217 O 0.97837 0.54502 0.62052 0.0
O218 O 0.0779 0.57674 0.59256 0.0
O219 O 0.03294 0.619 0.6693 0.0
O220 O 0.02947 0.55351 0.9303 0.0
O221 O 0.99182 0.59415 0.83832 0.0
O222 O 0.09771 0.54002 0.80541 0.0
O223 O 0.07189 0.50364 0.96813 0.0
H224 H 0.91436 0.44816 0.84968 0.0
H225 H 0.85006 0.41307 0.86751 0.0
H226 H 0.90822 0.3173 0.0897 0.0
H227 H 0.97362 0.35612 0.07758 0.0
H228 H 0.134 0.6071 0.7481 0.0
H229 H 0.19712 0.64504 0.72486 0.0
H230 H 0.13455 0.73504 0.49209 0.0
H231 H 0.07066 0.6944 0.51337 0.0
C232 C 0.17935 0.05355 0.45713 0.0
C233 C 0.17649 0.0222 0.3666 0.0
C234 C 0.14592 0.0625 0.53933 0.0
C235 C 0.10795 0.04048 0.53555 0.0
H236 H 0.20869 0.06903 0.47146 0.0
H237 H 0.15084 0.08528 0.61151 0.0
S238 S 0.08323 0.95725 0.31078 0.0
N239 N 0.13116 0.9707 0.27516 0.0
N240 N 0.06904 0.98793 0.42575 0.0
C241 C 0.10378 1.01114 0.43986 0.0
C242 C 0.1377 1.00196 0.35686 0.0
C243 C 0.52734 0.1376 0.34992 0.0
C244 C 0.50945 0.17723 0.36548 0.0
C245 C 0.52133 0.10504 0.43768 0.0
C246 C 0.4972 0.11028 0.54661 0.0
H247 H 0.5489 0.13266 0.27382 0.0
H248 H 0.53771 0.07629 0.42341 0.0
S249 S 0.44051 0.20646 0.62812 0.0
N250 N 0.4644 0.21839 0.49586 0.0
N251 N 0.45232 0.1578 0.65849 0.0
C252 C 0.47685 0.1488 0.55895 0.0
C253 C 0.48309 0.18193 0.46943 0.0
C254 C 0.36126 0.49714 0.46509 0.0
C255 C 0.36338 0.53056 0.37983 0.0
C256 C 0.39477 0.48717 0.5457 0.0
C257 C 0.43235 0.50993 0.54531 0.0
H258 H 0.33241 0.48041 0.4763 0.0
H259 H 0.39032 0.46259 0.61368 0.0
S260 S 0.45575 0.59819 0.33285 0.0
N261 N 0.40808 0.58469 0.29586 0.0
N262 N 0.47025 0.56558 0.4436 0.0
C263 C 0.43587 0.54158 0.45482 0.0
C264 C 0.40179 0.5519 0.37357 0.0
C265 C 1.00544 0.40477 0.35551 0.0
C266 C 0.02357 0.36498 0.36791 0.0
C267 C 1.01419 0.43763 0.43918 0.0
C268 C 0.0417 0.43276 0.54054 0.0
H269 H 0.98195 0.40976 0.28501 0.0
H270 H 0.99749 0.46639 0.42804 0.0
S271 S 0.10051 0.33645 0.61003 0.0
N272 N 0.07249 0.3242 0.48677 0.0
N273 N 0.08978 0.38522 0.64061 0.0
C274 C 0.06216 0.39405 0.54879 0.0
C275 C 0.05303 0.36059 0.4638 0.0
C276 C 0.90181 0.03097 0.2437 0.0
C277 C 0.86208 1.01266 0.23146 0.0
C278 C 0.93372 0.02521 0.15415 0.0
C279 C 0.92779 1.00061 0.04736 0.0
H280 H 0.90726 0.05267 0.31856 0.0
H281 H 0.96243 0.04212 0.16522 0.0
S282 S 0.83175 0.94135 0.9777 0.0
N283 N 0.82047 0.96592 0.10826 0.0
N284 N 0.88002 0.95397 0.94302 0.0
C285 C 0.88943 0.97938 0.0395 0.0
C286 C 0.85688 0.98554 0.13045 0.0
C287 C 0.51871 0.897 0.23446 0.0
C288 C 0.52912 0.85524 0.21254 0.0
C289 C 0.52226 0.928 0.1402 0.0
C290 C 0.53713 0.9189 1.01921 0.0
H291 H 0.5056 0.90532 0.32363 0.0
H292 H 0.51179 0.95896 0.16104 0.0
S293 S 0.57362 0.81533 0.91719 0.0
N294 N 0.55791 0.80754 0.06257 0.0
N295 N 0.5666 0.86501 0.8885 0.0
C296 C 0.55087 0.87786 0.99959 0.0
C297 C 0.54652 0.8464 0.09502 0.0
C298 C 0.64353 0.49993 0.23846 0.0
C299 C 0.68198 0.52123 0.23134 0.0
C300 C 0.61068 0.50755 0.15342 0.0
C301 C 0.61434 0.53693 0.05584 0.0
H302 H 0.63986 0.47485 0.30514 0.0
H303 H 0.58316 0.48849 0.15993 0.0
S304 S 0.70623 0.60451 1.00241 0.0
N305 N 0.71978 0.5754 0.1229 0.0
N306 N 0.65864 0.59038 0.96603 0.0
C307 C 0.65138 0.56055 0.05341 0.0
C308 C 0.68481 0.55266 0.14002 0.0
C309 C 0.9906 0.68418 0.13298 0.0
C310 C 0.02195 0.68238 0.2245 0.0
C311 C 0.98317 0.65088 0.04967 0.0
C312 C 1.00664 0.61389 0.05319 0.0
H313 H 0.97379 0.71274 0.119 0.0
H314 H 0.96023 0.65514 0.97716 0.0
S315 S 0.0903 0.59162 0.28046 0.0
N316 N 0.07491 0.63863 0.31666 0.0
N317 N 0.06051 0.57687 0.16388 0.0
C318 C 0.03603 0.61062 0.14957 0.0
C319 C 0.04372 0.64445 0.2337 0.0
C320 C 0.87079 0.2492 0.31604 0.0
C321 C 0.89822 0.27707 0.37376 0.0
C322 C 0.84764 0.22134 0.38871 0.0
C323 C 0.85177 0.22124 0.51964 0.0
H324 H 0.87211 0.24445 0.21589 0.0
H325 H 0.8341 0.19516 0.34164 0.0
S326 S 0.89536 0.30494 0.71084 0.0
N327 N 0.91178 0.31476 0.5673 0.0
N328 N 0.86487 0.26417 0.69973 0.0
C329 C 0.86617 0.25778 0.57425 0.0
C330 C 0.89163 0.28502 0.50219 0.0
C331 C 0.26915 0.89964 0.519 0.0
C332 C 0.26629 0.89972 0.38769 0.0
C333 C 0.29567 0.87182 0.5793 0.0
C334 C 0.32211 0.84696 0.5069 0.0
H335 H 0.25556 0.92428 0.57334 0.0
H336 H 0.30188 0.87686 0.67736 0.0
S337 S 0.3039 0.81686 0.17982 0.0
N338 N 0.27688 0.85955 0.19888 0.0
N339 N 0.32368 0.80577 0.31834 0.0
C340 C 0.30739 0.83667 0.38766 0.0
C341 C 0.28201 0.86553 0.32338 0.0
C342 C 0.63603 0.26258 0.49066 0.0
C343 C 0.63212 0.26712 0.35998 0.0
C344 C 0.66365 0.28758 0.55683 0.0
C345 C 0.68131 0.32203 0.49559 0.0
H346 H 0.6148 0.24331 0.54372 0.0
H347 H 0.66142 0.28722 0.65802 0.0
S348 S 0.69948 0.33021 0.15473 0.0
N349 N 0.66528 0.29264 0.17041 0.0
N350 N 0.71041 0.34567 0.29792 0.0
C351 C 0.68682 0.319 0.36581 0.0
C352 C 0.66194 0.29102 0.29701 0.0
C353 C 0.23815 0.67638 0.33024 0.0
C354 C 0.2669 0.65059 0.39144 0.0
C355 C 0.21086 0.70087 0.3993 0.0
C356 C 0.21212 0.7003 0.53116 0.0
H357 H 0.2329 0.67353 0.23066 0.0
H358 H 0.18475 0.71389 0.34987 0.0
S359 S 0.29958 0.66332 0.7231 0.0
N360 N 0.30694 0.64238 0.58446 0.0
N361 N 0.25825 0.69281 0.70841 0.0
C362 C 0.24926 0.6869 0.58567 0.0
C363 C 0.27579 0.65988 0.51775 0.0
C364 C 0.16388 0.81199 0.26758 0.0
C365 C 0.1398 0.78121 0.21047 0.0
C366 C 0.18531 0.84086 0.19468 0.0
C367 C 0.18664 0.83751 0.06326 0.0
H368 H 0.16097 0.81788 0.36684 0.0
H369 H 0.19504 0.86881 0.241 0.0
S370 S 0.15309 0.74694 0.8807 0.0
N371 N 0.13301 0.73949 1.02118 0.0
N372 N 0.18054 0.78984 0.89008 0.0
C373 C 0.17445 0.79954 1.01228 0.0
C374 C 0.14909 0.77204 0.08418 0.0
C375 C 0.78176 0.1436 0.13013 0.0
C376 C 0.77525 0.13713 0.2593 0.0
C377 C 0.75137 0.16321 0.05809 0.0
C378 C 0.71325 0.17371 0.11341 0.0
H379 H 0.8061 0.12757 0.08062 0.0
H380 H 0.75402 0.16161 0.95715 0.0
S381 S 0.69409 0.18355 0.45419 0.0
N382 N 0.74036 0.16277 0.44379 0.0
N383 N 0.67882 0.19123 0.30873 0.0
C384 C 0.71238 0.1779 0.24433 0.0
C385 C 0.74515 0.16153 0.31754 0.0
C386 C 0.38207 0.7343 0.29194 0.0
C387 C 0.40724 0.7649 0.23531 0.0
C388 C 0.35889 0.70695 0.2193 0.0
C389 C 0.35948 0.71 0.08775 0.0
H390 H 0.38369 0.72841 0.39162 0.0
H391 H 0.34608 0.68005 0.26603 0.0
S392 S 0.39886 0.79835 0.90217 0.0
N393 N 0.41776 0.80541 0.04339 0.0
N394 N 0.36922 0.75695 0.91264 0.0
C395 C 0.3737 0.74736 0.03583 0.0
C396 C 0.39958 0.77389 0.10765 0.0
C397 C 0.80758 0.37695 0.2618 0.0
C398 C 0.77929 0.40453 0.20666 0.0
C399 C 0.83395 0.35327 0.18742 0.0
C400 C 0.83241 0.35639 0.05585 0.0
H401 H 0.81297 0.3774 0.36175 0.0
H402 H 0.85973 0.33869 0.23384 0.0
S403 S 0.74706 0.4021 0.87239 0.0
N404 N 0.74072 0.42015 1.01522 0.0
N405 N 0.78667 0.3701 0.88081 0.0
C406 C 0.79599 0.37279 1.00442 0.0
C407 C 0.77081 0.39943 0.07794 0.0
C408 C 0.0235 0.18427 0.18139 0.0
C409 C 1.01556 0.22278 0.12272 0.0
C410 C 0.02638 0.14668 0.11333 0.0
C411 C 1.02047 0.14474 0.98206 0.0
H412 H 0.02554 0.18283 0.28243 0.0
H413 H 0.03164 0.11842 0.16568 0.0
S414 S 1.00067 0.23687 0.78068 0.0
N415 N 1.00292 0.25621 0.9231 0.0
N416 N 1.00874 0.18668 0.79613 0.0
C417 C 1.01369 0.18327 0.92171 0.0
C418 C 1.01104 0.22164 0.99128 0.0
C419 C 0.35058 0.03146 0.15401 0.0
C420 C 0.31546 1.01113 0.10548 0.0
C421 C 0.38853 0.03423 0.08637 0.0
C422 C 0.39393 1.01632 0.96662 0.0
H423 H 0.34948 0.0434 0.24834 0.0
H424 H 0.41441 0.04938 0.13104 0.0
S425 S 0.3113 0.96032 0.79539 0.0
N426 N 0.28875 0.97343 0.9281 0.0
N427 N 0.35899 0.97865 0.80178 0.0
C428 C 0.35857 0.99699 0.91561 0.0
C429 C 0.31995 0.99432 0.98453 0.0
C430 C 0.50306 0.3537 0.16243 0.0
C431 C 0.51588 0.31679 0.10434 0.0
C432 C 0.5023 0.39222 0.0977 0.0
C433 C 0.51515 0.39656 0.97122 0.0
H434 H 0.496 0.35333 0.26154 0.0
H435 H 0.49322 0.4193 0.14987 0.0
S436 S 0.5495 0.309 0.77301 0.0
N437 N 0.54025 0.28716 0.91034 0.0
N438 N 0.53863 0.35856 0.78914 0.0
C439 C 0.52651 0.35952 0.91068 0.0
C440 C 0.527 0.32023 0.97676 0.0
C441 C 0.18529 0.51716 0.18245 0.0
C442 C 0.22252 0.53204 0.12869 0.0
C443 C 0.14841 0.51218 0.11164 0.0
C444 C 0.14596 0.52279 0.98291 0.0
H445 H 0.18401 0.51123 0.28223 0.0
H446 H 0.12092 0.50157 0.16046 0.0
S447 S 0.23524 0.56118 0.79397 0.0
N448 N 0.25457 0.55602 0.9361 0.0
N449 N 0.18633 0.54642 0.80378 0.0
C450 C 0.18346 0.53635 0.92695 0.0
C451 C 0.22111 0.54115 0.99924 0.0
C452 C 1.00607 0.86085 0.41762 0.0
C453 C 1.02054 0.82386 0.47332 0.0
C454 C 1.00225 0.89836 0.4855 0.0
C455 C 1.01364 0.90175 0.61307 0.0
H456 H 0.99982 0.86145 0.31816 0.0
H457 H 0.99201 0.92557 0.43504 0.0
S458 S 0.05135 0.81363 0.80667 0.0
N459 N 0.04498 0.79322 0.6668 0.0
N460 N 0.03747 0.86258 0.7937 0.0
C461 C 0.02671 0.86456 0.67121 0.0
C462 C 0.03035 0.82627 0.60192 0.0
C463 C 0.71426 0.02651 0.60913 0.0
C464 C 0.72063 1.01456 0.48322 0.0
C465 C 0.67483 0.02424 0.66874 0.0
C466 C 0.63901 1.01044 0.60561 0.0
H467 H 0.73968 0.04019 0.66018 0.0
H468 H 0.67227 0.03486 0.76416 0.0
S469 S 0.63802 0.97571 0.27382 0.0
N470 N 0.68687 0.98839 0.29808 0.0
N471 N 0.61372 0.9836 0.40768 0.0
C472 C 0.64523 0.99723 0.48053 0.0
C473 C 0.68545 0.99949 0.42031 0.0
C474 C 0.53999 0.6852 0.4375 0.0
C475 C 0.52602 0.7218 0.49445 0.0
C476 C 0.54312 0.64741 0.50464 0.0
C477 C 0.53165 0.64368 0.63233 0.0
H478 H 0.54602 0.6851 0.33776 0.0
H479 H 0.55269 0.6203 0.45343 0.0
S480 S 0.49667 0.7312 0.82925 0.0
N481 N 0.50294 0.75222 0.68915 0.0
N482 N 0.50939 0.68202 0.81515 0.0
C483 C 0.51962 0.68058 0.69203 0.0
C484 C 0.51659 0.71915 0.62342 0.0
C485 C 0.8295 0.50645 0.60249 0.0
C486 C 0.82422 0.51968 0.47697 0.0
C487 C 0.86781 0.51069 0.667 0.0
C488 C 0.9036 0.52759 0.60911 0.0
H489 H 0.80424 0.49065 0.64965 0.0
H490 H 0.86957 0.49934 0.76223 0.0
S491 S 0.90704 0.56671 0.28043 0.0
N492 N 0.85883 0.55054 0.29805 0.0
N493 N 0.92989 0.55854 0.41629 0.0
C494 C 0.89833 0.5419 0.48435 0.0
C495 C 0.85924 0.5378 0.41937 0.0
loop_
_geom_bond_atom_site_label_1
_geom_bond_atom_site_label_2
_geom_bond_distance
_geom_bond_site_symmetry_2
_ccdc_geom_bond_type
H0 C3 0.931 . S
H1 C6 0.928 . S
H2 C8 0.930 . S
C3 H0 0.931 . S
C3 C4 1.413 . S
C3 C5 1.360 . S
C4 C3 1.413 . S
C4 C8 1.429 . S
C5 C3 1.360 . S
C5 C6 1.372 . S
C6 H1 0.928 . S
C6 C5 1.372 . S
C6 C7 1.404 . S
C7 C6 1.404 . S
C7 C8 1.391 . S
C8 H2 0.930 . S
C8 C4 1.429 . S
C8 C7 1.391 . S
H9 C12 0.931 . S
H10 C15 0.928 . S
H11 C17 0.930 . S
C12 H9 0.931 . S
C12 C13 1.413 . S
C12 C14 1.360 . S
C13 C12 1.413 . S
C13 C17 1.429 1_655 S
C14 C12 1.360 . S
C14 C15 1.372 . S
C15 H10 0.928 . S
C15 C14 1.372 . S
C15 C16 1.404 . S
C16 C15 1.404 . S
C16 C17 1.390 1_655 S
C17 H11 0.930 . S
C17 C13 1.429 1_455 S
C17 C16 1.390 1_455 S
H18 C21 0.931 . S
H19 C24 0.928 . S
H20 C26 0.929 . S
C21 H18 0.931 . S
C21 C22 1.413 . S
C21 C23 1.360 . S
C22 C21 1.413 . S
C22 C26 1.429 1_565 S
C23 C21 1.360 . S
C23 C24 1.373 . S
C24 H19 0.928 . S
C24 C23 1.373 . S
C24 C25 1.405 . S
C25 C24 1.405 . S
C25 C26 1.390 1_565 S
C26 H20 0.929 . S
C26 C22 1.429 1_545 S
C26 C25 1.390 1_545 S
H27 C30 0.931 . S
H28 C33 0.928 . S
H29 C35 0.930 . S
C30 H27 0.931 . S
C30 C31 1.413 . S
C30 C32 1.360 . S
C31 C30 1.413 . S
C31 C35 1.429 . S
C32 C30 1.360 . S
C32 C33 1.372 . S
C33 H28 0.928 . S
C33 C32 1.372 . S
C33 C34 1.404 . S
C34 C33 1.404 . S
C34 C35 1.391 . S
C35 H29 0.930 . S
C35 C31 1.429 . S
C35 C34 1.391 . S
H36 C39 0.931 1_556 S
H37 C42 0.928 . S
H38 C44 0.930 . S
C39 H36 0.931 1_554 S
C39 C40 1.413 1_554 S
C39 C41 1.360 . S
C40 C39 1.413 1_556 S
C40 C44 1.429 . S
C41 C39 1.360 . S
C41 C42 1.372 . S
C42 H37 0.928 . S
C42 C41 1.372 . S
C42 C43 1.404 . S
C43 C42 1.404 . S
C43 C44 1.391 1_554 S
C44 H38 0.930 . S
C44 C40 1.429 . S
C44 C43 1.391 1_556 S
H45 C48 0.931 . S
H46 C51 0.928 . S
H47 C53 0.930 . S
C48 H45 0.931 . S
C48 C49 1.413 1_554 S
C48 C50 1.360 . S
C49 C48 1.413 1_556 S
C49 C53 1.429 1_655 S
C50 C48 1.360 . S
C50 C51 1.372 . S
C51 H46 0.928 . S
C51 C50 1.372 . S
C51 C52 1.404 . S
C52 C51 1.404 . S
C52 C53 1.391 1_654 S
C53 H47 0.930 . S
C53 C49 1.429 1_455 S
C53 C52 1.391 1_456 S
H54 C57 0.931 1_556 S
H55 C60 0.928 . S
H56 C62 0.930 . S
C57 H54 0.931 1_554 S
C57 C58 1.413 1_554 S
C57 C59 1.360 . S
C58 C57 1.413 1_556 S
C58 C62 1.429 1_565 S
C59 C57 1.360 . S
C59 C60 1.372 . S
C60 H55 0.928 . S
C60 C59 1.372 . S
C60 C61 1.404 . S
C61 C60 1.404 . S
C61 C62 1.391 1_564 S
C62 H56 0.930 . S
C62 C58 1.429 1_545 S
C62 C61 1.391 1_546 S
H63 C66 0.931 1_556 S
H64 C69 0.928 . S
H65 C71 0.930 . S
C66 H63 0.931 1_554 S
C66 C67 1.413 . S
C66 C68 1.360 1_554 S
C67 C66 1.413 . S
C67 C71 1.429 . S
C68 C66 1.360 1_556 S
C68 C69 1.372 . S
C69 H64 0.928 . S
C69 C68 1.372 . S
C69 C70 1.404 1_556 S
C70 C69 1.404 1_554 S
C70 C71 1.391 . S
C71 H65 0.930 . S
C71 C67 1.429 . S
C71 C70 1.391 . S
Tb72 C74 2.809 1_556 S
Tb72 O92 2.484 1_556 S
Tb72 O93 2.440 . S
Tb72 O94 2.658 1_565 S
Tb72 O95 2.409 . S
Tb72 O96 2.378 . S
Tb72 O100 2.325 1_455 S
Tb72 O103 2.341 1_565 S
Tb73 C83 2.809 . S
Tb73 O94 2.325 1_655 S
Tb73 O97 2.341 1_545 S
Tb73 O98 2.484 . S
Tb73 O99 2.440 . S
Tb73 O100 2.658 1_545 S
Tb73 O101 2.409 . S
Tb73 O102 2.378 . S
C74 Tb72 2.809 1_554 S
C74 C75 1.514 . S
C74 O92 1.248 . S
C74 O93 1.266 1_554 S
C75 C74 1.514 . S
C75 C76 1.359 . S
C75 C80 1.348 . S
C76 C75 1.359 . S
C76 C77 1.380 . S
C76 H104 0.929 . S
C77 C76 1.380 . S
C77 C78 1.347 . S
C77 H105 0.931 . S
C78 C77 1.347 . S
C78 C79 1.369 . S
C79 C78 1.369 . S
C79 C80 1.408 . S
C79 H106 0.930 . S
C80 C75 1.348 . S
C80 C79 1.408 . S
C80 H107 0.931 1_554 S
C81 O94 1.281 1_565 S
C81 O95 1.254 . S
C82 O96 1.236 1_655 S
C82 O97 1.266 . S
C83 Tb73 2.809 . S
C83 C84 1.514 . S
C83 O98 1.248 . S
C83 O99 1.266 . S
C84 C83 1.514 . S
C84 C85 1.359 . S
C84 C89 1.348 . S
C85 C84 1.359 . S
C85 C86 1.380 . S
C85 H108 0.956 . S
C86 C85 1.380 . S
C86 C87 1.347 . S
C86 H109 0.931 . S
C87 C86 1.347 . S
C87 C88 1.369 . S
C88 C87 1.369 . S
C88 C89 1.408 . S
C88 H110 0.930 . S
C89 C84 1.348 . S
C89 C88 1.408 . S
C89 H111 0.930 . S
C90 O100 1.281 1_545 S
C90 O101 1.254 . S
C91 O102 1.236 1_455 S
C91 O103 1.266 . S
O92 Tb72 2.484 1_554 S
O92 C74 1.248 . S
O93 Tb72 2.440 . S
O93 C74 1.266 1_556 S
O94 Tb72 2.658 1_545 S
O94 Tb73 2.325 1_455 S
O94 C81 1.281 1_545 S
O95 Tb72 2.409 . S
O95 C81 1.254 . S
O96 Tb72 2.378 . S
O96 C82 1.236 1_455 S
O97 Tb73 2.341 1_565 S
O97 C82 1.266 . S
O98 Tb73 2.484 . S
O98 C83 1.248 . S
O99 Tb73 2.440 . S
O99 C83 1.266 . S
O100 Tb72 2.325 1_655 S
O100 Tb73 2.658 1_565 S
O100 C90 1.281 1_565 S
O101 Tb73 2.409 . S
O101 C90 1.254 . S
O102 Tb73 2.378 . S
O102 C91 1.236 1_655 S
O103 Tb72 2.341 1_545 S
O103 C91 1.266 . S
H104 C76 0.929 . S
H105 C77 0.931 . S
H106 C79 0.930 . S
H107 C80 0.931 1_556 S
H108 C85 0.956 . S
H109 C86 0.931 . S
H110 C88 0.930 . S
H111 C89 0.930 . S
Tb112 C114 2.809 1_556 S
Tb112 O132 2.484 1_556 S
Tb112 O133 2.440 . S
Tb112 O134 2.658 . S
Tb112 O135 2.409 . S
Tb112 O136 2.378 . S
Tb112 O140 2.325 1_545 S
Tb112 O143 2.341 . S
Tb113 C123 2.809 . S
Tb113 O134 2.325 1_565 S
Tb113 O137 2.341 . S
Tb113 O138 2.484 . S
Tb113 O139 2.440 . S
Tb113 O140 2.658 . S
Tb113 O141 2.409 . S
Tb113 O142 2.378 . S
C114 Tb112 2.809 1_554 S
C114 C115 1.514 . S
C114 O132 1.248 . S
C114 O133 1.266 1_554 S
C115 C114 1.514 . S
C115 C116 1.359 . S
C115 C120 1.348 . S
C116 C115 1.359 . S
C116 C117 1.380 . S
C116 H144 0.929 1_545 S
C117 C116 1.380 . S
C117 C118 1.347 . S
C117 H145 0.931 . S
C118 C117 1.347 . S
C118 C119 1.369 . S
C119 C118 1.369 . S
C119 C120 1.408 . S
C119 H146 0.930 . S
C120 C115 1.348 . S
C120 C119 1.408 . S
C120 H147 0.930 . S
C121 O134 1.281 . S
C121 O135 1.254 . S
C122 O136 1.236 1_565 S
C122 O137 1.266 . S
C123 Tb113 2.809 . S
C123 C124 1.514 . S
C123 O138 1.248 . S
C123 O139 1.266 . S
C124 C123 1.514 . S
C124 C125 1.359 . S
C124 C129 1.348 . S
C125 C124 1.359 . S
C125 C126 1.380 . S
C125 H148 0.929 1_565 S
C126 C125 1.380 . S
C126 C127 1.347 . S
C126 H149 0.931 . S
C127 C126 1.347 . S
C127 C128 1.369 . S
C128 C127 1.369 . S
C128 C129 1.408 . S
C128 H150 0.930 . S
C129 C124 1.348 . S
C129 C128 1.408 . S
C129 H151 0.930 . S
C130 O140 1.281 . S
C130 O141 1.254 . S
C131 O142 1.236 1_545 S
C131 O143 1.266 . S
O132 Tb112 2.484 1_554 S
O132 C114 1.248 . S
O133 Tb112 2.440 . S
O133 C114 1.266 1_556 S
O134 Tb112 2.658 . S
O134 Tb113 2.325 1_545 S
O134 C121 1.281 . S
O135 Tb112 2.409 . S
O135 C121 1.254 . S
O136 Tb112 2.378 . S
O136 C122 1.236 1_545 S
O137 Tb113 2.341 . S
O137 C122 1.266 . S
O138 Tb113 2.484 . S
O138 C123 1.248 . S
O139 Tb113 2.440 . S
O139 C123 1.266 . S
O140 Tb112 2.325 1_565 S
O140 Tb113 2.658 . S
O140 C130 1.281 . S
O141 Tb113 2.409 . S
O141 C130 1.254 . S
O142 Tb113 2.378 . S
O142 C131 1.236 1_565 S
O143 Tb112 2.341 . S
O143 C131 1.266 . S
H144 C116 0.929 1_565 S
H145 C117 0.931 . S
H146 C119 0.930 . S
H147 C120 0.930 . S
H148 C125 0.929 1_545 S
H149 C126 0.931 . S
H150 C128 0.930 . S
H151 C129 0.930 . S
Tb152 C154 2.809 1_556 S
Tb152 O172 2.484 1_556 S
Tb152 O173 2.440 . S
Tb152 O174 2.658 . S
Tb152 O175 2.409 . S
Tb152 O176 2.378 . S
Tb152 O180 2.325 . S
Tb152 O183 2.341 . S
Tb153 C163 2.809 . S
Tb153 O174 2.325 . S
Tb153 O177 2.341 . S
Tb153 O178 2.484 . S
Tb153 O179 2.440 . S
Tb153 O180 2.658 . S
Tb153 O181 2.409 . S
Tb153 O182 2.378 . S
C154 Tb152 2.809 1_554 S
C154 C155 1.514 . S
C154 O172 1.248 . S
C154 O173 1.266 1_554 S
C155 C154 1.514 . S
C155 C156 1.359 . S
C155 C160 1.348 . S
C156 C155 1.359 . S
C156 C157 1.380 . S
C156 H184 0.929 . S
C157 C156 1.380 . S
C157 C158 1.347 . S
C157 H185 0.931 . S
C158 C157 1.347 . S
C158 C159 1.369 . S
C159 C158 1.369 . S
C159 C160 1.408 . S
C159 H186 0.930 . S
C160 C155 1.348 . S
C160 C159 1.408 . S
C160 H187 0.930 . S
C161 O174 1.281 . S
C161 O175 1.254 . S
C162 O176 1.236 . S
C162 O177 1.266 . S
C163 Tb153 2.809 . S
C163 C164 1.514 . S
C163 O178 1.248 . S
C163 O179 1.266 . S
C164 C163 1.514 . S
C164 C165 1.359 . S
C164 C169 1.348 . S
C165 C164 1.359 . S
C165 C166 1.380 . S
C165 H188 0.929 . S
C166 C165 1.380 . S
C166 C167 1.347 . S
C166 H189 0.931 . S
C167 C166 1.347 . S
C167 C168 1.369 . S
C168 C167 1.369 . S
C168 C169 1.408 . S
C168 H190 0.930 . S
C169 C164 1.348 . S
C169 C168 1.408 . S
C169 H191 0.930 . S
C170 O180 1.281 . S
C170 O181 1.254 . S
C171 O182 1.236 . S
C171 O183 1.266 . S
O172 Tb152 2.484 1_554 S
O172 C154 1.248 . S
O173 Tb152 2.440 . S
O173 C154 1.266 1_556 S
O174 Tb152 2.658 . S
O174 Tb153 2.325 . S
O174 C161 1.281 . S
O175 Tb152 2.409 . S
O175 C161 1.254 . S
O176 Tb152 2.378 . S
O176 C162 1.236 . S
O177 Tb153 2.341 . S
O177 C162 1.266 . S
O178 Tb153 2.484 . S
O178 C163 1.248 . S
O179 Tb153 2.440 . S
O179 C163 1.266 . S
O180 Tb152 2.325 . S
O180 Tb153 2.658 . S
O180 C170 1.281 . S
O181 Tb153 2.409 . S
O181 C170 1.254 . S
O182 Tb153 2.378 . S
O182 C171 1.236 . S
O183 Tb152 2.341 . S
O183 C171 1.266 . S
H184 C156 0.929 . S
H185 C157 0.931 . S
H186 C159 0.930 . S
H187 C160 0.930 . S
H188 C165 0.929 . S
H189 C166 0.931 . S
H190 C168 0.930 . S
H191 C169 0.930 . S
Tb192 C194 2.809 1_556 S
Tb192 O212 2.484 1_556 S
Tb192 O213 2.440 . S
Tb192 O214 2.658 1_655 S
Tb192 O215 2.409 . S
Tb192 O216 2.378 . S
Tb192 O220 2.325 . S
Tb192 O223 2.341 1_655 S
Tb193 C203 2.809 . S
Tb193 O214 2.325 . S
Tb193 O217 2.341 1_455 S
Tb193 O218 2.484 . S
Tb193 O219 2.440 . S
Tb193 O220 2.658 1_455 S
Tb193 O221 2.409 . S
Tb193 O222 2.378 . S
C194 Tb192 2.809 1_554 S
C194 C195 1.514 . S
C194 O212 1.248 . S
C194 O213 1.266 1_554 S
C195 C194 1.514 . S
C195 C196 1.359 . S
C195 C200 1.348 . S
C196 C195 1.359 . S
C196 C197 1.380 . S
C196 H224 0.929 . S
C197 C196 1.380 . S
C197 C198 1.347 . S
C197 H225 0.931 . S
C198 C197 1.347 . S
C198 C199 1.369 . S
C199 C198 1.369 . S
C199 C200 1.408 . S
C199 H226 0.930 . S
C200 C195 1.348 . S
C200 C199 1.408 . S
C200 H227 0.930 . S
C201 O214 1.280 . S
C201 O215 1.254 1_455 S
C202 O216 1.236 . S
C202 O217 1.266 . S
C203 Tb193 2.809 . S
C203 C204 1.514 . S
C203 O218 1.248 . S
C203 O219 1.266 . S
C204 C203 1.514 . S
C204 C205 1.359 . S
C204 C209 1.348 . S
C205 C204 1.359 . S
C205 C206 1.380 . S
C205 H228 0.929 . S
C206 C205 1.380 . S
C206 C207 1.347 . S
C206 H229 0.931 . S
C207 C206 1.347 . S
C207 C208 1.369 . S
C208 C207 1.369 . S
C208 C209 1.408 . S
C208 H230 0.930 . S
C209 C204 1.348 . S
C209 C208 1.408 . S
C209 H231 0.930 . S
C210 O220 1.280 1_455 S
C210 O221 1.254 . S
C211 O222 1.236 . S
C211 O223 1.266 . S
O212 Tb192 2.484 1_554 S
O212 C194 1.248 . S
O213 Tb192 2.440 . S
O213 C194 1.266 1_556 S
O214 Tb192 2.658 1_455 S
O214 Tb193 2.325 . S
O214 C201 1.280 . S
O215 Tb192 2.409 . S
O215 C201 1.254 1_655 S
O216 Tb192 2.378 . S
O216 C202 1.236 . S
O217 Tb193 2.341 1_655 S
O217 C202 1.266 . S
O218 Tb193 2.484 . S
O218 C203 1.248 . S
O219 Tb193 2.440 . S
O219 C203 1.266 . S
O220 Tb192 2.325 . S
O220 Tb193 2.658 1_655 S
O220 C210 1.280 1_655 S
O221 Tb193 2.409 . S
O221 C210 1.254 . S
O222 Tb193 2.378 . S
O222 C211 1.236 . S
O223 Tb192 2.341 1_455 S
O223 C211 1.266 . S
H224 C196 0.929 . S
H225 C197 0.931 . S
H226 C199 0.930 . S
H227 C200 0.930 . S
H228 C205 0.929 . S
H229 C206 0.931 . S
H230 C208 0.930 . S
H231 C209 0.930 . S
C232 C233 1.349 1_545 S
C232 C234 1.419 . S
C232 H236 0.930 . S
C233 C232 1.349 1_565 S
C233 C242 1.449 . S
C234 C232 1.419 . S
C234 C235 1.363 1_545 S
C234 H237 0.929 . S
C235 C234 1.363 1_565 S
C235 C241 1.428 . S
H236 C232 0.930 . S
H237 C234 0.929 . S
S238 N239 1.613 . S
S238 N240 1.610 . S
N239 S238 1.613 . S
N239 C242 1.350 . S
N240 S238 1.610 . S
N240 C241 1.351 . S
C241 C235 1.428 . S
C241 N240 1.351 . S
C241 C242 1.434 . S
C242 C233 1.449 . S
C242 N239 1.350 . S
C242 C241 1.434 . S
C243 C244 1.369 . S
C243 C245 1.419 . S
C243 H247 0.930 . S
C244 C243 1.369 . S
C244 C253 1.429 . S
C245 C243 1.419 . S
C245 C246 1.363 . S
C245 H248 0.929 . S
C246 C245 1.363 . S
C246 C252 1.428 . S
H247 C243 0.930 . S
H248 C245 0.929 . S
S249 N250 1.613 . S
S249 N251 1.610 . S
N250 S249 1.613 . S
N250 C253 1.350 . S
N251 S249 1.610 . S
N251 C252 1.351 . S
C252 C246 1.428 . S
C252 N251 1.351 . S
C252 C253 1.434 . S
C253 C244 1.429 . S
C253 N250 1.350 . S
C253 C252 1.434 . S
C254 C255 1.369 . S
C254 C256 1.419 . S
C254 H258 0.930 . S
C255 C254 1.369 . S
C255 C264 1.429 . S
C256 C254 1.419 . S
C256 C257 1.363 . S
C256 H259 0.929 . S
C257 C256 1.363 . S
C257 C263 1.428 . S
H258 C254 0.930 . S
H259 C256 0.929 . S
S260 N261 1.613 . S
S260 N262 1.610 . S
N261 S260 1.613 . S
N261 C264 1.350 . S
N262 S260 1.610 . S
N262 C263 1.351 . S
C263 C257 1.428 . S
C263 N262 1.351 . S
C263 C264 1.434 . S
C264 C255 1.429 . S
C264 N261 1.350 . S
C264 C263 1.434 . S
C265 C266 1.357 1_655 S
C265 C267 1.419 . S
C265 H269 0.930 . S
C266 C265 1.357 1_455 S
C266 C275 1.442 . S
C267 C265 1.419 . S
C267 C268 1.363 1_655 S
C267 H270 0.929 . S
C268 C267 1.363 1_455 S
C268 C274 1.428 . S
H269 C265 0.930 . S
H270 C267 0.929 . S
S271 N272 1.613 . S
S271 N273 1.610 . S
N272 S271 1.613 . S
N272 C275 1.350 . S
N273 S271 1.610 . S
N273 C274 1.351 . S
C274 C268 1.428 . S
C274 N273 1.351 . S
C274 C275 1.434 . S
C275 C266 1.442 . S
C275 N272 1.350 . S
C275 C274 1.434 . S
C276 C277 1.371 1_545 S
C276 C278 1.419 . S
C276 H280 0.930 . S
C277 C276 1.371 1_565 S
C277 C286 1.426 . S
C278 C276 1.419 . S
C278 C279 1.383 . S
C278 H281 0.929 . S
C279 C278 1.383 . S
C279 C285 1.409 1_545 S
H280 C276 0.930 . S
H281 C278 0.929 . S
S282 N283 1.613 . S
S282 N284 1.610 . S
N283 S282 1.613 . S
N283 C286 1.350 . S
N284 S282 1.610 . S
N284 C285 1.351 . S
C285 C279 1.409 1_565 S
C285 N284 1.351 . S
C285 C286 1.434 . S
C286 C277 1.426 . S
C286 N283 1.350 . S
C286 C285 1.434 . S
C287 C288 1.369 . S
C287 C289 1.419 . S
C287 H291 0.930 . S
C288 C287 1.369 . S
C288 C297 1.429 . S
C289 C287 1.419 . S
C289 C290 1.363 . S
C289 H292 0.929 . S
C290 C289 1.363 . S
C290 C296 1.428 . S
H291 C287 0.930 . S
H292 C289 0.929 . S
S293 N294 1.613 . S
S293 N295 1.610 . S
N294 S293 1.613 . S
N294 C297 1.350 . S
N295 S293 1.610 . S
N295 C296 1.351 . S
C296 C290 1.428 . S
C296 N295 1.351 . S
C296 C297 1.434 . S
C297 C288 1.429 . S
C297 N294 1.350 . S
C297 C296 1.434 . S
C298 C299 1.369 . S
C298 C300 1.419 . S
C298 H302 0.930 . S
C299 C298 1.369 . S
C299 C308 1.429 . S
C300 C298 1.419 . S
C300 C301 1.363 . S
C300 H303 0.929 . S
C301 C300 1.363 . S
C301 C307 1.428 . S
H302 C298 0.930 . S
H303 C300 0.929 . S
S304 N305 1.613 . S
S304 N306 1.610 . S
N305 S304 1.613 . S
N305 C308 1.350 . S
N306 S304 1.610 . S
N306 C307 1.351 . S
C307 C301 1.428 . S
C307 N306 1.351 . S
C307 C308 1.434 . S
C308 C299 1.429 . S
C308 N305 1.350 . S
C308 C307 1.434 . S
C309 C310 1.376 . S
C309 C311 1.419 . S
C309 H313 0.930 . S
C310 C309 1.376 . S
C310 C319 1.422 1_655 S
C311 C309 1.419 . S
C311 C312 1.363 . S
C311 H314 0.929 . S
C312 C311 1.363 . S
C312 C318 1.428 1_655 S
H313 C309 0.930 . S
H314 C311 0.929 . S
S315 N316 1.613 . S
S315 N317 1.610 . S
N316 S315 1.613 . S
N316 C319 1.350 . S
N317 S315 1.610 . S
N317 C318 1.351 . S
C318 C312 1.428 1_455 S
C318 N317 1.351 . S
C318 C319 1.434 . S
C319 C310 1.422 1_455 S
C319 N316 1.350 . S
C319 C318 1.434 . S
C320 C321 1.369 . S
C320 C322 1.419 . S
C320 H324 0.930 . S
C321 C320 1.369 . S
C321 C330 1.429 . S
C322 C320 1.419 . S
C322 C323 1.363 . S
C322 H325 0.929 . S
C323 C322 1.363 . S
C323 C329 1.428 . S
H324 C320 0.930 . S
H325 C322 0.929 . S
S326 N327 1.613 1_655 S
S326 N328 1.610 . S
N327 S326 1.613 1_455 S
N327 C330 1.350 1_455 S
N328 S326 1.610 . S
N328 C329 1.351 . S
C329 C323 1.428 . S
C329 N328 1.351 . S
C329 C330 1.434 . S
C330 C321 1.429 . S
C330 N327 1.350 1_655 S
C330 C329 1.434 . S
C331 C332 1.369 1_545 S
C331 C333 1.419 1_545 S
C331 H335 0.930 . S
C332 C331 1.369 1_565 S
C332 C341 1.429 . S
C333 C331 1.419 1_565 S
C333 C334 1.363 . S
C333 H336 0.929 . S
C334 C333 1.363 . S
C334 C340 1.428 . S
H335 C331 0.930 . S
H336 C333 0.929 . S
S337 N338 1.613 . S
S337 N339 1.610 . S
N338 S337 1.613 . S
N338 C341 1.350 . S
N339 S337 1.610 . S
N339 C340 1.351 . S
C340 C334 1.428 . S
C340 N339 1.351 . S
C340 C341 1.434 . S
C341 C332 1.429 . S
C341 N338 1.350 . S
C341 C340 1.434 . S
C342 C343 1.369 . S
C342 C344 1.419 . S
C342 H346 0.930 . S
C343 C342 1.369 . S
C343 C352 1.429 . S
C344 C342 1.419 . S
C344 C345 1.363 . S
C344 H347 0.929 . S
C345 C344 1.363 . S
C345 C351 1.428 . S
H346 C342 0.930 . S
H347 C344 0.929 . S
S348 N349 1.613 . S
S348 N350 1.610 . S
N349 S348 1.613 . S
N349 C352 1.350 . S
N350 S348 1.610 . S
N350 C351 1.351 . S
C351 C345 1.428 . S
C351 N350 1.351 . S
C351 C352 1.434 . S
C352 C343 1.429 . S
C352 N349 1.350 . S
C352 C351 1.434 . S
C353 C354 1.369 . S
C353 C355 1.419 . S
C353 H357 0.930 . S
C354 C353 1.369 . S
C354 C363 1.429 . S
C355 C353 1.419 . S
C355 C356 1.363 . S
C355 H358 0.929 . S
C356 C355 1.363 . S
C356 C362 1.428 . S
H357 C353 0.930 . S
H358 C355 0.929 . S
S359 N360 1.613 . S
S359 N361 1.610 . S
N360 S359 1.613 . S
N360 C363 1.350 . S
N361 S359 1.610 . S
N361 C362 1.351 . S
C362 C356 1.428 . S
C362 N361 1.351 . S
C362 C363 1.434 . S
C363 C354 1.429 . S
C363 N360 1.350 . S
C363 C362 1.434 . S
C364 C365 1.369 . S
C364 C366 1.419 . S
C364 H368 0.930 1_455 S
C365 C364 1.369 . S
C365 C374 1.429 . S
C366 C364 1.419 . S
C366 C367 1.363 . S
C366 H369 0.929 . S
C367 C366 1.363 . S
C367 C373 1.428 . S
H368 C364 0.930 1_655 S
H369 C366 0.929 . S
S370 N371 1.613 . S
S370 N372 1.610 . S
N371 S370 1.613 . S
N371 C374 1.350 . S
N372 S370 1.610 . S
N372 C373 1.351 . S
C373 C367 1.428 . S
C373 N372 1.351 . S
C373 C374 1.434 . S
C374 C365 1.429 . S
C374 N371 1.350 . S
C374 C373 1.434 . S
C375 C376 1.369 . S
C375 C377 1.419 . S
C375 H379 0.930 . S
C376 C375 1.369 . S
C376 C385 1.429 . S
C377 C375 1.419 . S
C377 C378 1.363 . S
C377 H380 0.929 . S
C378 C377 1.363 . S
C378 C384 1.428 . S
H379 C375 0.930 . S
H380 C377 0.929 . S
S381 N382 1.613 . S
S381 N383 1.610 . S
N382 S381 1.613 . S
N382 C385 1.350 . S
N383 S381 1.610 . S
N383 C384 1.351 . S
C384 C378 1.428 . S
C384 N383 1.351 . S
C384 C385 1.434 . S
C385 C376 1.429 . S
C385 N382 1.350 . S
C385 C384 1.434 . S
C386 C387 1.369 . S
C386 C388 1.419 . S
C386 H390 0.930 . S
C387 C386 1.369 . S
C387 C396 1.429 . S
C388 C386 1.419 . S
C388 C389 1.363 . S
C388 H391 0.929 . S
C389 C388 1.363 . S
C389 C395 1.428 . S
H390 C386 0.930 . S
H391 C388 0.929 . S
S392 N393 1.613 . S
S392 N394 1.610 . S
N393 S392 1.613 . S
N393 C396 1.350 . S
N394 S392 1.610 . S
N394 C395 1.351 . S
C395 C389 1.428 . S
C395 N394 1.351 . S
C395 C396 1.434 . S
C396 C387 1.429 . S
C396 N393 1.350 . S
C396 C395 1.434 . S
C397 C398 1.369 . S
C397 C399 1.419 . S
C397 H401 0.930 . S
C398 C397 1.369 . S
C398 C407 1.429 . S
C399 C397 1.419 . S
C399 C400 1.363 . S
C399 H402 0.929 . S
C400 C399 1.363 . S
C400 C406 1.428 . S
H401 C397 0.930 . S
H402 C399 0.929 . S
S403 N404 1.613 . S
S403 N405 1.610 . S
N404 S403 1.613 . S
N404 C407 1.350 . S
N405 S403 1.610 . S
N405 C406 1.351 . S
C406 C400 1.428 . S
C406 N405 1.351 . S
C406 C407 1.434 . S
C407 C398 1.429 . S
C407 N404 1.350 . S
C407 C406 1.434 . S
C408 C409 1.369 . S
C408 C410 1.419 . S
C408 H412 0.930 . S
C409 C408 1.369 . S
C409 C418 1.429 1_455 S
C410 C408 1.419 . S
C410 C411 1.363 . S
C410 H413 0.929 . S
C411 C410 1.363 . S
C411 C417 1.428 1_455 S
H412 C408 0.930 . S
H413 C410 0.929 . S
S414 N415 1.613 . S
S414 N416 1.610 . S
N415 S414 1.613 . S
N415 C418 1.350 1_554 S
N416 S414 1.610 . S
N416 C417 1.351 1_554 S
C417 C411 1.428 1_655 S
C417 N416 1.351 1_556 S
C417 C418 1.434 . S
C418 C409 1.429 1_655 S
C418 N415 1.350 1_556 S
C418 C417 1.434 . S
C419 C420 1.369 . S
C419 C421 1.419 . S
C419 H423 0.930 1_556 S
C420 C419 1.369 . S
C420 C429 1.429 . S
C421 C419 1.419 . S
C421 C422 1.363 . S
C421 H424 0.929 1_556 S
C422 C421 1.363 . S
C422 C428 1.428 . S
H423 C419 0.930 1_554 S
H424 C421 0.929 1_554 S
S425 N426 1.613 . S
S425 N427 1.607 1_565 S
N426 S425 1.613 . S
N426 C429 1.350 1_565 S
N427 S425 1.607 1_545 S
N427 C428 1.351 . S
C428 C422 1.428 . S
C428 N427 1.351 . S
C428 C429 1.434 . S
C429 C420 1.429 . S
C429 N426 1.350 1_545 S
C429 C428 1.434 . S
C430 C431 1.369 . S
C430 C432 1.419 . S
C430 H434 0.930 . S
C431 C430 1.369 . S
C431 C440 1.429 . S
C432 C430 1.419 . S
C432 C433 1.363 . S
C432 H435 0.929 . S
C433 C432 1.363 . S
C433 C439 1.428 . S
H434 C430 0.930 . S
H435 C432 0.929 . S
S436 N437 1.613 . S
S436 N438 1.610 . S
N437 S436 1.613 . S
N437 C440 1.350 1_554 S
N438 S436 1.610 . S
N438 C439 1.351 1_554 S
C439 C433 1.428 . S
C439 N438 1.351 1_556 S
C439 C440 1.434 . S
C440 C431 1.429 . S
C440 N437 1.350 1_556 S
C440 C439 1.434 . S
C441 C442 1.369 . S
C441 C443 1.419 . S
C441 H445 0.930 . S
C442 C441 1.369 . S
C442 C451 1.429 . S
C443 C441 1.419 . S
C443 C444 1.363 . S
C443 H446 0.929 . S
C444 C443 1.363 . S
C444 C450 1.428 . S
H445 C441 0.930 . S
H446 C443 0.929 . S
S447 N448 1.613 . S
S447 N449 1.610 . S
N448 S447 1.613 . S
N448 C451 1.350 . S
N449 S447 1.610 . S
N449 C450 1.351 . S
C450 C444 1.428 . S
C450 N449 1.351 . S
C450 C451 1.434 . S
C451 C442 1.429 . S
C451 N448 1.350 . S
C451 C450 1.434 . S
C452 C453 1.369 . S
C452 C454 1.419 . S
C452 H456 0.930 . S
C453 C452 1.369 . S
C453 C462 1.429 1_655 S
C454 C452 1.419 . S
C454 C455 1.363 . S
C454 H457 0.929 . S
C455 C454 1.363 . S
C455 C461 1.428 1_655 S
H456 C452 0.930 . S
H457 C454 0.929 . S
S458 N459 1.613 . S
S458 N460 1.610 . S
N459 S458 1.613 . S
N459 C462 1.350 . S
N460 S458 1.610 . S
N460 C461 1.351 . S
C461 C455 1.428 1_455 S
C461 N460 1.351 . S
C461 C462 1.434 . S
C462 C453 1.429 1_455 S
C462 N459 1.350 . S
C462 C461 1.434 . S
C463 C464 1.369 1_545 S
C463 C465 1.419 . S
C463 H467 0.930 . S
C464 C463 1.369 1_565 S
C464 C473 1.429 . S
C465 C463 1.419 . S
C465 C466 1.363 1_545 S
C465 H468 0.929 . S
C466 C465 1.363 1_565 S
C466 C472 1.428 . S
H467 C463 0.930 . S
H468 C465 0.929 . S
S469 N470 1.613 . S
S469 N471 1.610 . S
N470 S469 1.613 . S
N470 C473 1.350 . S
N471 S469 1.610 . S
N471 C472 1.351 . S
C472 C466 1.428 . S
C472 N471 1.351 . S
C472 C473 1.434 . S
C473 C464 1.429 . S
C473 N470 1.350 . S
C473 C472 1.434 . S
C474 C475 1.369 . S
C474 C476 1.419 . S
C474 H478 0.930 . S
C475 C474 1.369 . S
C475 C484 1.429 . S
C476 C474 1.419 . S
C476 C477 1.363 . S
C476 H479 0.929 . S
C477 C476 1.363 . S
C477 C483 1.428 . S
H478 C474 0.930 . S
H479 C476 0.929 . S
S480 N481 1.613 . S
S480 N482 1.610 . S
N481 S480 1.613 . S
N481 C484 1.350 . S
N482 S480 1.610 . S
N482 C483 1.351 . S
C483 C477 1.428 . S
C483 N482 1.351 . S
C483 C484 1.434 . S
C484 C475 1.429 . S
C484 N481 1.350 . S
C484 C483 1.434 . S
C485 C486 1.369 . S
C485 C487 1.419 . S
C485 H489 0.930 . S
C486 C485 1.369 . S
C486 C495 1.429 . S
C487 C485 1.419 . S
C487 C488 1.363 . S
C487 H490 0.929 . S
C488 C487 1.363 . S
C488 C494 1.428 . S
H489 C485 0.930 . S
H490 C487 0.929 . S
S491 N492 1.613 . S
S491 N493 1.610 . S
N492 S491 1.613 . S
N492 C495 1.350 . S
N493 S491 1.610 . S
N493 C494 1.351 . S
C494 C488 1.428 . S
C494 N493 1.351 . S
C494 C495 1.434 . S
C495 C486 1.429 . S
C495 N492 1.350 . S
C495 C494 1.434 . S
C233 C61 1.974 . S
C235 C81 2.243 . S
C246 C121 2.275 . S
C244 C70 2.015 . S
C257 C161 2.286 . S
C255 C43 2.021 . S
C268 C201 2.263 . S
C266 C52 1.990 1_455 S
C279 C90 2.246 1_554 S
C277 C25 1.974 . S
C288 C34 2.021 . S
C290 C130 2.276 1_554 S
C299 C7 2.020 . S
C301 C170 2.287 1_554 S
C310 C16 1.990 . S
C312 C210 2.262 1_654 S
C323 C87 0.849 . S
C321 C50 0.888 . S
C334 C127 0.844 . S
C332 C59 0.845 . S
C345 C167 0.817 . S
C343 C67 0.832 . S
C354 C41 0.859 . S
C356 C207 0.826 . S
C365 C14 0.876 1_455 S
C367 C78 0.863 . S
C378 C118 0.829 . S
C376 C23 0.860 1_545 S
C389 C158 0.817 . S
C387 C31 0.837 . S
C398 C5 0.849 . S
C400 C198 0.842 . S
C409 C49 2.292 1_455 S
C411 C91 2.602 . S
C420 C58 2.239 1_545 S
C422 C131 2.537 . S
C433 C171 2.518 . S
C431 C68 2.210 . S
C444 C211 2.582 . S
C442 C40 2.279 . S
C453 C13 2.300 . S
C455 C82 2.608 . S
C466 C122 2.538 . S
C464 C22 2.228 . S
C477 C162 2.517 . S
C475 C32 2.219 . S
C486 C4 2.276 . S
C488 C202 2.589 . S
