# Generated by pormake.
# Topology nom, (4,4)-cn, num edge types: 1
# Building blocks:
#     Node 0, Type 0, BuildingBlock: MIFKUJ_clean_linker_1, # of connection points: 4
#     Node 1, Type 0, BuildingBlock: MIFKUJ_clean_linker_1, # of connection points: 4
#     Node 2, Type 0, BuildingBlock: MIFKUJ_clean_linker_1, # of connection points: 4
#     Node 3, Type 0, BuildingBlock: MIFKUJ_clean_linker_1, # of connection points: 4
#     Node 4, Type 0, BuildingBlock: MIFKUJ_clean_linker_1, # of connection points: 4
#     Node 5, Type 0, BuildingBlock: MIFKUJ_clean_linker_1, # of connection points: 4
#     Node 6, Type 1, BuildingBlock: UXUYUI_clean_sbu_0, # of connection points: 4
#     Node 7, Type 1, BuildingBlock: UXUYUI_clean_sbu_0, # of connection points: 4
#     Node 8, Type 1, BuildingBlock: UXUYUI_clean_sbu_0, # of connection points: 4
#     Node 9, Type 1, BuildingBlock: UXUYUI_clean_sbu_0, # of connection points: 4
#     Node 10, Type 1, BuildingBlock: UXUYUI_clean_sbu_0, # of connection points: 4
#     Node 11, Type 1, BuildingBlock: UXUYUI_clean_sbu_0, # of connection points: 4
#     Edge 12, Type (0, 1), None
#     Edge 13, Type (0, 1), None
#     Edge 14, Type (0, 1), None
#     Edge 15, Type (0, 1), None
#     Edge 16, Type (0, 1), None
#     Edge 17, Type (0, 1), None
#     Edge 18, Type (0, 1), None
#     Edge 19, Type (0, 1), None
#     Edge 20, Type (0, 1), None
#     Edge 21, Type (0, 1), None
#     Edge 22, Type (0, 1), None
#     Edge 23, Type (0, 1), None
#     Edge 24, Type (0, 1), None
#     Edge 25, Type (0, 1), None
#     Edge 26, Type (0, 1), None
#     Edge 27, Type (0, 1), None
#     Edge 28, Type (0, 1), None
#     Edge 29, Type (0, 1), None
#     Edge 30, Type (0, 1), None
#     Edge 31, Type (0, 1), None
#     Edge 32, Type (0, 1), None
#     Edge 33, Type (0, 1), None
#     Edge 34, Type (0, 1), None
#     Edge 35, Type (0, 1), None
# Relax obj value: 0.035
# Max RMSD: 0.144
# Mean RMSD: 0.118
data_MOF--net-nom--node1-UXUYUI_clean_sbu_0--node2-MIFKUJ_clean_linker_1--edge1-none
_symmetry_space_group_name_H-M    P1
_symmetry_Int_Tables_number       1
_symmetry_cell_setting            triclinic
loop_
_symmetry_equiv_pos_as_xyz
'x, y, z'
_cell_length_a     39.142856
_cell_length_b     39.100483
_cell_length_c     41.274442
_cell_angle_alpha  89.999252
_cell_angle_beta   89.999881
_cell_angle_gamma 119.98872
loop_
_atom_site_label
_atom_site_type_symbol
_atom_site_fract_x
_atom_site_fract_y
_atom_site_fract_z
_atom_type_partial_charge
H0 H 0.97898 0.45346 0.27618 0.0
H1 H 0.93156 0.42492 0.23184 0.0
H2 H 0.8902 0.50663 0.25217 0.0
H3 H 0.93715 0.53431 0.29698 0.0
H4 H 0.03932 0.53458 0.28244 0.0
H5 H 0.91667 0.43853 0.34242 0.0
H6 H 0.84864 0.41563 0.35978 0.0
H7 H 0.88431 0.53218 0.39664 0.0
H8 H 0.95191 0.5549 0.37896 0.0
H9 H 0.06106 0.59407 0.41555 0.0
H10 H 0.10722 0.61087 0.46048 0.0
H11 H 0.15001 0.53784 0.41871 0.0
H12 H 0.10466 0.52241 0.37323 0.0
H13 H 1.00155 0.52582 0.39811 0.0
H14 H 0.11086 0.6248 0.35091 0.0
H15 H 0.17746 0.66959 0.33207 0.0
H16 H 0.16981 0.57954 0.2668 0.0
H17 H 0.1036 0.53387 0.28719 0.0
C18 C 0.96137 0.49577 0.29 0.0
C19 C 0.95952 0.46505 0.27113 0.0
C20 C 0.93252 0.44891 0.24568 0.0
C21 C 0.90702 0.46346 0.23833 0.0
C22 C 0.90887 0.4942 0.25744 0.0
C23 C 0.9358 0.5102 0.28301 0.0
C24 C 0.99109 0.51336 0.31621 0.0
C25 C 0.0312 0.53196 0.30783 0.0
C26 C 0.98045 0.513 0.349 0.0
C27 C 0.9392 0.49845 0.35923 0.0
C28 C 0.90972 0.4591 0.35413 0.0
C29 C 0.87101 0.44602 0.36429 0.0
C30 C 0.86121 0.47216 0.37957 0.0
C31 C 0.89089 0.51148 0.38467 0.0
C32 C 0.92952 0.52442 0.37474 0.0
C33 C 0.07945 0.55707 0.391 0.0
C34 C 0.08053 0.58184 0.41603 0.0
C35 C 0.10678 0.59115 0.44186 0.0
C36 C 0.13216 0.57538 0.44353 0.0
C37 C 0.13131 0.55092 0.41814 0.0
C38 C 0.10531 0.54198 0.39211 0.0
C39 C 0.04995 0.54524 0.36457 0.0
C40 C 0.00994 0.52801 0.37282 0.0
C41 C 0.06085 0.5494 0.3315 0.0
C42 C 0.10232 0.57559 0.32096 0.0
C43 C 0.12375 0.61426 0.33309 0.0
C44 C 0.16168 0.6402 0.3218 0.0
C45 C 0.17896 0.62837 0.29765 0.0
C46 C 0.15757 0.58955 0.2856 0.0
C47 C 0.1196 0.56344 0.29711 0.0
H48 H 0.41826 0.95275 0.54721 0.0
H49 H 0.37358 0.88571 0.56609 0.0
H50 H 0.45172 0.84782 0.52703 0.0
H51 H 0.49697 0.91549 0.50881 0.0
H52 H 0.49519 1.00234 0.5643 0.0
H53 H 0.42319 0.93468 0.46408 0.0
H54 H 0.40429 0.88771 0.41926 0.0
H55 H 0.52744 0.93137 0.398 0.0
H56 H 0.54596 0.97865 0.44245 0.0
H57 H 0.59245 0.10346 0.45553 0.0
H58 H 0.61371 0.16955 0.43396 0.0
H59 H 0.524 0.17497 0.49104 0.0
H60 H 0.50244 0.1089 0.5119 0.0
H61 H 0.52517 0.03784 0.44836 0.0
H62 H 0.60043 0.10868 0.53751 0.0
H63 H 0.62933 0.15523 0.58238 0.0
H64 H 0.51427 0.10599 0.62678 0.0
H65 H 0.48562 0.05928 0.58198 0.0
C66 C 0.46078 0.93904 0.52639 0.0
C67 C 0.42586 0.93003 0.54279 0.0
C68 C 0.40022 0.89166 0.5534 0.0
C69 C 0.40905 0.86145 0.54798 0.0
C70 C 0.44429 0.87057 0.53183 0.0
C71 C 0.46997 0.90908 0.52112 0.0
C72 C 0.48744 0.98014 0.51555 0.0
C73 C 0.50151 0.01024 0.53893 0.0
C74 C 0.49793 0.99013 0.48267 0.0
C75 C 0.48599 0.95997 0.45675 0.0
C76 C 0.44606 0.93377 0.44998 0.0
C77 C 0.43534 0.90686 0.42436 0.0
C78 C 0.46434 0.90572 0.40492 0.0
C79 C 0.50431 0.93178 0.41209 0.0
C80 C 0.51497 0.95869 0.43762 0.0
C81 C 0.54616 0.10138 0.48562 0.0
C82 C 0.57752 0.119 0.46347 0.0
C83 C 0.58968 0.15677 0.45124 0.0
C84 C 0.57034 0.17734 0.46065 0.0
C85 C 0.53913 0.15967 0.48297 0.0
C86 C 0.52715 0.12211 0.49528 0.0
C87 C 0.53101 0.06027 0.49698 0.0
C88 C 0.51934 0.03014 0.4738 0.0
C89 C 0.52388 0.05018 0.53018 0.0
C90 C 0.54078 0.08047 0.55625 0.0
C91 C 0.58131 0.10826 0.55667 0.0
C92 C 0.59783 0.13488 0.5824 0.0
C93 C 0.5742 0.1342 0.60835 0.0
C94 C 0.53349 0.10683 0.60754 0.0
C95 C 0.517 0.08022 0.58183 0.0
H96 H 0.54897 0.587 0.73389 0.0
H97 H 0.53113 0.61682 0.778 0.0
H98 H 0.40768 0.53848 0.75697 0.0
H99 H 0.42584 0.50919 0.71266 0.0
H100 H 0.52805 0.50745 0.72803 0.0
H101 H 0.50126 0.60173 0.66542 0.0
H102 H 0.45644 0.62496 0.64766 0.0
H103 H 0.37312 0.5072 0.61478 0.0
H104 H 0.41771 0.48422 0.63275 0.0
H105 H 0.48522 0.44253 0.59617 0.0
H106 H 0.51291 0.42387 0.55108 0.0
H107 H 0.62956 0.49417 0.5919 0.0
H108 H 0.60148 0.51196 0.63727 0.0
H109 H 0.49536 0.5108 0.61242 0.0
H110 H 0.50337 0.41236 0.66571 0.0
H111 H 0.52559 0.36825 0.68632 0.0
H112 H 0.61763 0.46477 0.74068 0.0
H113 H 0.59559 0.50914 0.71947 0.0
C114 C 0.48878 0.54616 0.71977 0.0
C115 C 0.51806 0.57642 0.73872 0.0
C116 C 0.5078 0.59331 0.76402 0.0
C117 C 0.46796 0.58009 0.77109 0.0
C118 C 0.43866 0.54988 0.75189 0.0
C119 C 0.44897 0.53301 0.72655 0.0
C120 C 0.50019 0.52744 0.6939 0.0
C121 C 0.52167 0.50889 0.70264 0.0
C122 C 0.48904 0.52642 0.66115 0.0
C123 C 0.46264 0.54123 0.65057 0.0
C124 C 0.47329 0.581 0.65446 0.0
C125 C 0.44784 0.59424 0.64409 0.0
C126 C 0.41129 0.56784 0.62987 0.0
C127 C 0.4009 0.52812 0.62593 0.0
C128 C 0.42641 0.51501 0.63602 0.0
C129 C 0.54121 0.47855 0.62019 0.0
C130 C 0.51673 0.45373 0.59549 0.0
C131 C 0.53269 0.44331 0.56958 0.0
C132 C 0.57358 0.45781 0.56761 0.0
C133 C 0.59793 0.48208 0.59274 0.0
C134 C 0.58189 0.4923 0.61875 0.0
C135 C 0.52481 0.4923 0.64633 0.0
C136 C 0.5023 0.50974 0.63772 0.0
C137 C 0.53274 0.48997 0.67944 0.0
C138 C 0.54815 0.46421 0.6907 0.0
C139 C 0.52869 0.42422 0.68171 0.0
C140 C 0.54106 0.39889 0.69387 0.0
C141 C 0.57316 0.41298 0.71532 0.0
C142 C 0.59291 0.45313 0.72408 0.0
C143 C 0.58032 0.47846 0.71205 0.0
H144 H 0.06372 0.58792 0.77618 0.0
H145 H 0.11114 0.61646 0.73184 0.0
H146 H 0.1525 0.53475 0.75217 0.0
H147 H 0.10555 0.50707 0.79698 0.0
H148 H 1.00339 0.5068 0.78244 0.0
H149 H 0.12603 0.60284 0.84241 0.0
H150 H 0.19406 0.62574 0.85978 0.0
H151 H 0.15839 0.5092 0.89664 0.0
H152 H 0.09079 0.48648 0.87896 0.0
H153 H 0.98164 0.44729 0.91554 0.0
H154 H 0.93548 0.43049 0.96047 0.0
H155 H 0.89269 0.50352 0.91871 0.0
H156 H 0.93803 0.51895 0.87323 0.0
H157 H 0.04115 0.51555 0.89811 0.0
H158 H 0.93184 0.41657 0.85091 0.0
H159 H 0.86525 0.37178 0.83207 0.0
H160 H 0.87289 0.46183 0.76679 0.0
H161 H 0.93911 0.50751 0.78718 0.0
C162 C 0.08134 0.54561 0.79 0.0
C163 C 0.08318 0.57633 0.77113 0.0
C164 C 0.11018 0.59246 0.74568 0.0
C165 C 0.13569 0.57792 0.73833 0.0
C166 C 0.13383 0.54717 0.75744 0.0
C167 C 0.1069 0.53117 0.78301 0.0
C168 C 0.05161 0.52802 0.81621 0.0
C169 C 0.0115 0.50941 0.80782 0.0
C170 C 0.06225 0.52837 0.84899 0.0
C171 C 0.1035 0.54293 0.85923 0.0
C172 C 0.13299 0.58228 0.85413 0.0
C173 C 0.17169 0.59535 0.86429 0.0
C174 C 0.1815 0.56922 0.87957 0.0
C175 C 0.15181 0.52989 0.88467 0.0
C176 C 0.11318 0.51695 0.87474 0.0
C177 C 0.96324 0.4843 0.891 0.0
C178 C 0.96217 0.45953 0.91603 0.0
C179 C 0.93592 0.45022 0.94186 0.0
C180 C 0.91053 0.46599 0.94353 0.0
C181 C 0.91139 0.49045 0.91814 0.0
C182 C 0.93739 0.49939 0.89211 0.0
C183 C 0.99275 0.49613 0.86457 0.0
C184 C 0.03276 0.51336 0.87281 0.0
C185 C 0.98185 0.49197 0.8315 0.0
C186 C 0.94039 0.46579 0.82095 0.0
C187 C 0.91895 0.42712 0.83309 0.0
C188 C 0.88102 0.40117 0.82179 0.0
C189 C 0.86375 0.413 0.79765 0.0
C190 C 0.88514 0.45182 0.78559 0.0
C191 C 0.9231 0.47793 0.79711 0.0
H192 H 0.62444 0.08862 0.04721 0.0
H193 H 0.66912 0.15565 0.06609 0.0
H194 H 0.59099 0.19355 0.02704 0.0
H195 H 0.54574 0.12588 0.00881 0.0
H196 H 0.54752 0.03903 0.06431 0.0
H197 H 0.61952 0.1067 0.96408 0.0
H198 H 0.63842 0.15367 0.91927 0.0
H199 H 0.51527 0.11 0.898 0.0
H200 H 0.49675 0.06273 0.94245 0.0
H201 H 0.45026 0.93792 0.95553 0.0
H202 H 0.429 0.87182 0.93396 0.0
H203 H 0.5187 0.8664 0.99104 0.0
H204 H 0.54026 0.93247 0.0119 0.0
H205 H 0.51754 0.00353 0.94836 0.0
H206 H 0.44228 0.93269 0.03751 0.0
H207 H 0.41338 0.88614 0.08238 0.0
H208 H 0.52843 0.93538 0.12678 0.0
H209 H 0.55708 0.98209 0.08198 0.0
C210 C 0.58193 0.10233 0.0264 0.0
C211 C 0.61685 0.11134 0.0428 0.0
C212 C 0.64248 0.1497 0.05341 0.0
C213 C 0.63365 0.17992 0.04799 0.0
C214 C 0.59841 0.1708 0.03183 0.0
C215 C 0.57274 0.13229 0.02112 0.0
C216 C 0.55526 0.06123 0.01556 0.0
C217 C 0.5412 0.03113 0.03893 0.0
C218 C 0.54478 0.05124 0.98267 0.0
C219 C 0.55672 0.0814 0.95675 0.0
C220 C 0.59665 0.10761 0.94998 0.0
C221 C 0.60737 0.13452 0.92437 0.0
C222 C 0.57837 0.13566 0.90492 0.0
C223 C 0.5384 0.1096 0.9121 0.0
C224 C 0.52774 0.08268 0.93763 0.0
C225 C 0.49655 0.93999 0.98562 0.0
C226 C 0.46519 0.92237 0.96347 0.0
C227 C 0.45302 0.88461 0.95124 0.0
C228 C 0.47236 0.86404 0.96065 0.0
C229 C 0.50358 0.8817 0.98297 0.0
C230 C 0.51555 0.91926 0.99528 0.0
C231 C 0.5117 0.9811 0.99698 0.0
C232 C 0.52336 0.01123 0.97381 0.0
C233 C 0.51882 0.99119 0.03019 0.0
C234 C 0.50193 0.9609 0.05625 0.0
C235 C 0.4614 0.93311 0.05667 0.0
C236 C 0.44487 0.90649 0.0824 0.0
C237 C 0.46851 0.90717 0.10835 0.0
C238 C 0.50922 0.93454 0.10754 0.0
C239 C 0.52571 0.96115 0.08183 0.0
H240 H 0.49373 0.45437 0.23389 0.0
H241 H 0.51157 0.42455 0.278 0.0
H242 H 0.63502 0.50289 0.25697 0.0
H243 H 0.61686 0.53218 0.21265 0.0
H244 H 0.51465 0.53392 0.22802 0.0
H245 H 0.54144 0.43964 0.16542 0.0
H246 H 0.58626 0.41641 0.14766 0.0
H247 H 0.66958 0.53416 0.11477 0.0
H248 H 0.62499 0.55715 0.13274 0.0
H249 H 0.55748 0.59884 0.09617 0.0
H250 H 0.52979 0.61751 0.05108 0.0
H251 H 0.41315 0.5472 0.0919 0.0
H252 H 0.44123 0.52942 0.13726 0.0
H253 H 0.54734 0.53057 0.11241 0.0
H254 H 0.53933 0.62901 0.16571 0.0
H255 H 0.51712 0.67312 0.18632 0.0
H256 H 0.42507 0.5766 0.24068 0.0
H257 H 0.44711 0.53222 0.21947 0.0
C258 C 0.55393 0.49521 0.21977 0.0
C259 C 0.52464 0.46495 0.23871 0.0
C260 C 0.5349 0.44807 0.26402 0.0
C261 C 0.57474 0.46128 0.27108 0.0
C262 C 0.60405 0.49149 0.25189 0.0
C263 C 0.59373 0.50836 0.22655 0.0
C264 C 0.54251 0.51393 0.19389 0.0
C265 C 0.52103 0.53248 0.20264 0.0
C266 C 0.55366 0.51495 0.16114 0.0
C267 C 0.58006 0.50014 0.15056 0.0
C268 C 0.56941 0.46037 0.15446 0.0
C269 C 0.59487 0.44713 0.14409 0.0
C270 C 0.63142 0.47353 0.12986 0.0
C271 C 0.6418 0.51325 0.12592 0.0
C272 C 0.61629 0.52636 0.13601 0.0
C273 C 0.5015 0.56282 0.12018 0.0
C274 C 0.52597 0.58764 0.09549 0.0
C275 C 0.51001 0.59806 0.06958 0.0
C276 C 0.46912 0.58357 0.06761 0.0
C277 C 0.44478 0.5593 0.09274 0.0
C278 C 0.46081 0.54907 0.11874 0.0
C279 C 0.51789 0.54908 0.14633 0.0
C280 C 0.5404 0.53163 0.13771 0.0
C281 C 0.50996 0.5514 0.17943 0.0
C282 C 0.49456 0.57716 0.1907 0.0
C283 C 0.51401 0.61715 0.18171 0.0
C284 C 0.50165 0.64248 0.19387 0.0
C285 C 0.46954 0.62839 0.21532 0.0
C286 C 0.4498 0.58824 0.22408 0.0
C287 C 0.46238 0.56291 0.21205 0.0
Li288 Li 0.63479 0.4083 0.44888 0.0
Li289 Li 0.62525 0.34887 0.42211 0.0
Li290 Li 0.68793 0.41172 0.41467 0.0
Li291 Li 0.6271 0.40205 0.38901 0.0
C292 C 0.67026 0.37008 0.48488 0.0
N293 N 0.67957 0.34805 0.54643 0.0
C294 C 0.63799 0.33994 0.50128 0.0
C295 C 0.70738 0.38866 0.49964 0.0
C296 C 0.64327 0.32931 0.53241 0.0
C297 C 0.71144 0.37722 0.53082 0.0
C298 C 0.55088 0.34608 0.4329 0.0
C299 C 0.48147 0.30625 0.42096 0.0
N300 N 0.4741 0.2968 0.45289 0.0
C301 C 0.54256 0.33622 0.46562 0.0
C302 C 0.52007 0.33124 0.41039 0.0
C303 C 0.50358 0.31118 0.47524 0.0
C304 C 0.59086 0.43537 0.48171 0.0
N305 N 0.62057 0.42742 0.48621 0.0
C306 C 0.62228 0.44093 0.5429 0.0
C307 C 0.63692 0.43071 0.51594 0.0
C308 C 0.5907 0.44814 0.53918 0.0
C309 C 0.57544 0.44583 0.50791 0.0
H310 H 0.57855 0.43273 0.45776 0.0
H311 H 0.66087 0.42481 0.51898 0.0
C312 C 0.63377 0.28425 0.43593 0.0
N313 N 0.60578 0.29389 0.42851 0.0
C314 C 0.62289 0.24592 0.44559 0.0
C315 C 0.55456 0.22766 0.43847 0.0
C316 C 0.56677 0.26633 0.42883 0.0
C317 C 0.58277 0.21728 0.44766 0.0
H318 H 0.66458 0.30684 0.43555 0.0
H319 H 0.54502 0.27438 0.4224 0.0
C320 C 0.69142 0.48385 0.42918 0.0
N321 N 0.74197 0.55526 0.45826 0.0
C322 C 0.69491 0.51878 0.41696 0.0
C323 C 0.71358 0.4852 0.45619 0.0
C324 C 0.72066 0.55461 0.43199 0.0
C325 C 0.73898 0.52159 0.47056 0.0
C326 C 0.63952 0.34723 0.35528 0.0
C327 C 0.66421 0.34662 0.33111 0.0
C328 C 0.59871 0.32281 0.35258 0.0
C329 C 0.64758 0.32152 0.30453 0.0
C330 C 0.58321 0.29807 0.32566 0.0
N331 N 0.60776 0.29796 0.30238 0.0
C332 C 0.75853 0.40995 0.41417 0.0
C333 C 0.7636 0.4683 0.39206 0.0
C334 C 0.79754 0.42236 0.40561 0.0
N335 N 0.74247 0.43288 0.40718 0.0
C336 C 0.80278 0.48202 0.38333 0.0
C337 C 0.82008 0.45873 0.38979 0.0
H338 H 0.74068 0.38158 0.42571 0.0
H339 H 0.74972 0.48541 0.38599 0.0
C340 C 0.57687 0.42196 0.35471 0.0
N341 N 0.60839 0.41649 0.35192 0.0
C342 C 0.56489 0.43589 0.32837 0.0
C343 C 0.61788 0.43798 0.29674 0.0
C344 C 0.62886 0.42408 0.32371 0.0
C345 C 0.58572 0.44447 0.29892 0.0
H346 H 0.56165 0.41643 0.37766 0.0
H347 H 0.65424 0.42009 0.32233 0.0
O348 O 0.66587 0.38118 0.45442 0.0
O349 O 0.5888 0.37067 0.42287 0.0
O350 O 0.66624 0.44858 0.41471 0.0
O351 O 0.6554 0.37219 0.38112 0.0
H352 H 0.60924 0.32468 0.49006 0.0
H353 H 0.73276 0.41181 0.48718 0.0
H354 H 0.61853 0.30609 0.54539 0.0
H355 H 0.73995 0.3915 0.5426 0.0
H356 H 0.45737 0.2944 0.40379 0.0
H357 H 0.56583 0.34795 0.48348 0.0
H358 H 0.52592 0.33878 0.38498 0.0
H359 H 0.49676 0.30326 0.50048 0.0
H360 H 0.63494 0.44217 0.5665 0.0
H361 H 0.55175 0.452 0.50366 0.0
H362 H 0.64558 0.23925 0.45263 0.0
H363 H 0.52333 0.20624 0.43915 0.0
H364 H 0.6779 0.51817 0.39606 0.0
H365 H 0.71124 0.4585 0.46596 0.0
H366 H 0.7237 0.5819 0.42278 0.0
H367 H 0.7563 0.52307 0.49148 0.0
H368 H 0.69589 0.36551 0.33283 0.0
H369 H 0.57921 0.32301 0.37098 0.0
H370 H 0.66632 0.3208 0.28559 0.0
H371 H 0.55166 0.27902 0.32325 0.0
H372 H 0.8099 0.40369 0.4112 0.0
H373 H 0.81899 0.50998 0.37077 0.0
H374 H 0.54036 0.44106 0.33139 0.0
H375 H 0.63455 0.44377 0.27449 0.0
Li376 Li 0.24623 0.63552 0.61939 0.0
Li377 Li 0.29722 0.62651 0.59325 0.0
Li378 Li 0.29504 0.68812 0.58441 0.0
Li379 Li 0.24537 0.62672 0.56013 0.0
C380 C 0.31984 0.68325 0.65404 0.0
N381 N 0.35237 0.716 0.71341 0.0
C382 C 0.33293 0.66396 0.67483 0.0
C383 C 0.32407 0.71959 0.66314 0.0
C384 C 0.34906 0.68087 0.70484 0.0
C385 C 0.34038 0.73555 0.69334 0.0
C386 C 0.23037 0.55331 0.58067 0.0
C387 C 0.24241 0.51652 0.53979 0.0
N388 N 0.2121 0.48242 0.55181 0.0
C389 C 0.19934 0.51794 0.5926 0.0
C390 C 0.25212 0.55266 0.55403 0.0
C391 C 0.19056 0.48238 0.57769 0.0
C392 C 0.17742 0.6176 0.65485 0.0
N393 N 0.2138 0.62139 0.65714 0.0
C394 C 0.20118 0.59841 0.71194 0.0
C395 C 0.22589 0.61188 0.68487 0.0
C396 C 0.16332 0.59403 0.71033 0.0
C397 C 0.15167 0.60407 0.68127 0.0
H398 H 0.168 0.62415 0.63221 0.0
H399 H 0.25432 0.61377 0.68577 0.0
C400 C 0.37029 0.62882 0.59339 0.0
N401 N 0.3316 0.60662 0.60156 0.0
C402 C 0.39703 0.61667 0.60231 0.0
C403 C 0.34338 0.55889 0.62747 0.0
C404 C 0.31781 0.57233 0.61837 0.0
C405 C 0.38361 0.58131 0.61965 0.0
H406 H 0.38046 0.65635 0.58053 0.0
H407 H 0.28712 0.5559 0.62541 0.0
C408 C 0.2239 0.69092 0.59109 0.0
N409 N 0.19789 0.74352 0.60363 0.0
C410 C 0.20327 0.69882 0.56739 0.0
C411 C 0.231 0.70947 0.62125 0.0
C412 C 0.19046 0.72561 0.57417 0.0
C413 C 0.21767 0.73604 0.6271 0.0
C414 C 0.31293 0.674 0.52237 0.0
C415 C 0.29161 0.69125 0.51047 0.0
C416 C 0.34427 0.67645 0.50432 0.0
C417 C 0.30201 0.71064 0.48061 0.0
C418 C 0.35372 0.69606 0.47453 0.0
N419 N 0.33258 0.71262 0.4634 0.0
C420 C 0.36763 0.75815 0.58197 0.0
C421 C 0.31444 0.76535 0.56296 0.0
C422 C 0.39465 0.79698 0.57309 0.0
N423 N 0.32842 0.74315 0.57666 0.0
C424 C 0.34033 0.80429 0.55385 0.0
C425 C 0.38107 0.82049 0.5586 0.0
H426 H 0.37796 0.73956 0.59238 0.0
H427 H 0.28342 0.75254 0.55788 0.0
C428 C 0.17365 0.59929 0.5288 0.0
N429 N 0.21068 0.6056 0.52401 0.0
C430 C 0.14724 0.58841 0.50299 0.0
C431 C 0.19721 0.58966 0.46782 0.0
C432 C 0.22256 0.60011 0.49446 0.0
C433 C 0.15912 0.58432 0.47175 0.0
H434 H 0.16498 0.60368 0.55264 0.0
H435 H 0.25213 0.6051 0.49131 0.0
O436 O 0.30438 0.66732 0.62442 0.0
O437 O 0.23909 0.58829 0.59501 0.0
O438 O 0.23664 0.6648 0.58474 0.0
O439 O 0.30354 0.65506 0.55166 0.0
H440 H 0.33036 0.63605 0.66796 0.0
H441 H 0.31522 0.73553 0.64697 0.0
H442 H 0.35899 0.66611 0.7213 0.0
H443 H 0.34368 0.76359 0.70075 0.0
H444 H 0.25898 0.51557 0.51917 0.0
H445 H 0.18221 0.51799 0.61319 0.0
H446 H 0.27626 0.57969 0.54444 0.0
H447 H 0.16663 0.45477 0.58668 0.0
H448 H 0.2116 0.59128 0.73382 0.0
H449 H 0.1225 0.60037 0.67858 0.0
H450 H 0.42781 0.63466 0.59571 0.0
H451 H 0.33199 0.53179 0.64126 0.0
H452 H 0.1975 0.68463 0.54392 0.0
H453 H 0.24623 0.70311 0.64003 0.0
H454 H 0.17464 0.73216 0.55601 0.0
H455 H 0.22296 0.75062 0.65035 0.0
H456 H 0.26722 0.68957 0.52408 0.0
H457 H 0.36109 0.66329 0.51325 0.0
H458 H 0.28574 0.72409 0.47112 0.0
H459 H 0.37788 0.69814 0.46026 0.0
H460 H 0.4258 0.80842 0.5774 0.0
H461 H 0.32865 0.82112 0.54221 0.0
H462 H 0.11791 0.58361 0.5075 0.0
H463 H 0.20787 0.58711 0.44425 0.0
Li464 Li 0.692 0.29663 0.75963 0.0
Li465 Li 0.631 0.2457 0.78577 0.0
Li466 Li 0.63828 0.24671 0.72601 0.0
Li467 Li 0.62941 0.29722 0.75264 0.0
C468 C 0.69335 0.22429 0.74942 0.0
N469 N 0.74175 0.19629 0.72823 0.0
C470 C 0.70004 0.19915 0.7691 0.0
C471 C 0.71105 0.23502 0.71891 0.0
C472 C 0.72468 0.18536 0.75797 0.0
C473 C 0.73547 0.22059 0.70864 0.0
C474 C 0.64307 0.31297 0.81878 0.0
C475 C 0.58584 0.30347 0.84836 0.0
N476 N 0.60983 0.33056 0.87057 0.0
C477 C 0.66716 0.34074 0.84186 0.0
C478 C 0.60207 0.29412 0.82202 0.0
C479 C 0.64979 0.34921 0.8679 0.0
C480 C 0.75798 0.37 0.76937 0.0
N481 N 0.74667 0.3311 0.76686 0.0
C482 C 0.81122 0.34454 0.78156 0.0
C483 C 0.77241 0.31801 0.77249 0.0
C484 C 0.82352 0.38483 0.78538 0.0
C485 C 0.79643 0.39752 0.77862 0.0
H486 H 0.73662 0.37941 0.76522 0.0
H487 H 0.76271 0.28694 0.77088 0.0
C488 C 0.58044 0.17629 0.82088 0.0
N489 N 0.61259 0.21296 0.82317 0.0
C490 C 0.56839 0.15074 0.84748 0.0
C491 C 0.62252 0.20139 0.87837 0.0
C492 C 0.63359 0.22589 0.85114 0.0
C493 C 0.5897 0.16304 0.87672 0.0
H494 H 0.5647 0.16659 0.79815 0.0
H495 H 0.65935 0.25506 0.85214 0.0
C496 C 0.68459 0.32255 0.69116 0.0
N497 N 0.71585 0.35848 0.63236 0.0
C498 C 0.6627 0.3325 0.67035 0.0
C499 C 0.72269 0.33159 0.6823 0.0
C500 C 0.67894 0.35044 0.64065 0.0
C501 C 0.73788 0.34957 0.65241 0.0
C502 C 0.55844 0.22841 0.73447 0.0
C503 C 0.5612 0.24233 0.70287 0.0
C504 C 0.52138 0.20346 0.74796 0.0
C505 C 0.52674 0.23111 0.68523 0.0
C506 C 0.48758 0.19292 0.72955 0.0
N507 N 0.49094 0.20685 0.69883 0.0
C508 C 0.59511 0.17474 0.69402 0.0
C509 C 0.63693 0.22629 0.65836 0.0
C510 C 0.57901 0.14841 0.66813 0.0
N511 N 0.62318 0.21296 0.68872 0.0
C512 C 0.62166 0.20095 0.63174 0.0
C513 C 0.59192 0.1615 0.63638 0.0
H514 H 0.58462 0.16495 0.7184 0.0
H515 H 0.65919 0.2567 0.65457 0.0
C516 C 0.63775 0.37012 0.7378 0.0
N517 N 0.61017 0.33276 0.74634 0.0
C518 C 0.62639 0.39731 0.7285 0.0
C519 C 0.55848 0.3475 0.73824 0.0
C520 C 0.5712 0.32132 0.74754 0.0
C521 C 0.5862 0.38581 0.72795 0.0
H522 H 0.66855 0.37833 0.73708 0.0
H523 H 0.54986 0.29166 0.75489 0.0
O524 O 0.66929 0.23797 0.76003 0.0
O525 O 0.65976 0.30393 0.79351 0.0
O526 O 0.66919 0.3048 0.72032 0.0
O527 O 0.59175 0.23894 0.75224 0.0
H528 H 0.6864 0.1905 0.79276 0.0
H529 H 0.70589 0.25414 0.70332 0.0
H530 H 0.73023 0.16597 0.77297 0.0
H531 H 0.74939 0.22868 0.68508 0.0
H532 H 0.55416 0.28911 0.85118 0.0
H533 H 0.69897 0.35544 0.83973 0.0
H534 H 0.58294 0.27237 0.80452 0.0
H535 H 0.66808 0.37055 0.88601 0.0
H536 H 0.83121 0.33345 0.78599 0.0
H537 H 0.80434 0.42812 0.78162 0.0
H538 H 0.54333 0.12127 0.84482 0.0
H539 H 0.63957 0.21236 0.90043 0.0
H540 H 0.63351 0.32655 0.67699 0.0
H541 H 0.74039 0.32483 0.69831 0.0
H542 H 0.66224 0.35806 0.62423 0.0
H543 H 0.76722 0.35651 0.64518 0.0
H544 H 0.58962 0.26144 0.69206 0.0
H545 H 0.51878 0.19246 0.77244 0.0
H546 H 0.52847 0.24166 0.66072 0.0
H547 H 0.45868 0.17367 0.73969 0.0
H548 H 0.55666 0.11812 0.67298 0.0
H549 H 0.63232 0.21246 0.60771 0.0
H550 H 0.64867 0.42646 0.72058 0.0
H551 H 0.52726 0.33771 0.7387 0.0
Li552 Li 0.40792 0.63308 0.94888 0.0
Li553 Li 0.41745 0.69251 0.9221 0.0
Li554 Li 0.35477 0.62966 0.91467 0.0
Li555 Li 0.4156 0.63932 0.88901 0.0
C556 C 0.37244 0.6713 0.98488 0.0
N557 N 0.36313 0.69332 0.04643 0.0
C558 C 0.40471 0.70143 1.00128 0.0
C559 C 0.33532 0.65271 0.99964 0.0
C560 C 0.39942 0.71206 0.03241 0.0
C561 C 0.33125 0.66415 0.03082 0.0
C562 C 0.49182 0.69529 0.93289 0.0
C563 C 0.56123 0.73512 0.92096 0.0
N564 N 0.5686 0.74457 0.95289 0.0
C565 C 0.50013 0.70516 0.96562 0.0
C566 C 0.52263 0.71014 0.91039 0.0
C567 C 0.53912 0.7302 0.97523 0.0
C568 C 0.45185 0.60601 0.98171 0.0
N569 N 0.42213 0.61396 0.98621 0.0
C570 C 0.42043 0.60045 0.0429 0.0
C571 C 0.40578 0.61067 0.01594 0.0
C572 C 0.452 0.59324 0.03918 0.0
C573 C 0.46727 0.59554 1.00791 0.0
H574 H 0.46415 0.60864 0.95776 0.0
H575 H 0.38184 0.61657 0.01898 0.0
C576 C 0.40894 0.75713 0.93592 0.0
N577 N 0.43692 0.74748 0.9285 0.0
C578 C 0.41981 0.79545 0.94559 0.0
C579 C 0.48815 0.81371 0.93847 0.0
C580 C 0.47593 0.77504 0.92882 0.0
C581 C 0.45993 0.8241 0.94765 0.0
H582 H 0.37812 0.73453 0.93555 0.0
H583 H 0.49768 0.767 0.9224 0.0
C584 C 0.35128 0.55753 0.92918 0.0
N585 N 0.30073 0.48611 0.95826 0.0
C586 C 0.34779 0.5226 0.91695 0.0
C587 C 0.32912 0.55618 0.95619 0.0
C588 C 0.32203 0.48676 0.93199 0.0
C589 C 0.30373 0.51978 0.97056 0.0
C590 C 0.40318 0.69415 0.85528 0.0
C591 C 0.37849 0.69475 0.83111 0.0
C592 C 0.44399 0.71857 0.85257 0.0
C593 C 0.39512 0.71985 0.80452 0.0
C594 C 0.45949 0.7433 0.82565 0.0
N595 N 0.43494 0.74341 0.80238 0.0
C596 C 0.28417 0.63143 0.91416 0.0
C597 C 0.2791 0.57307 0.89206 0.0
C598 C 0.24516 0.61902 0.9056 0.0
N599 N 0.30023 0.60849 0.90718 0.0
C600 C 0.23992 0.55935 0.88333 0.0
C601 C 0.22262 0.58264 0.88979 0.0
H602 H 0.30202 0.6598 0.92571 0.0
H603 H 0.29298 0.55597 0.88599 0.0
C604 C 0.46583 0.61941 0.85471 0.0
N605 N 0.43431 0.62488 0.85192 0.0
C606 C 0.47781 0.60548 0.82837 0.0
C607 C 0.42483 0.6034 0.79674 0.0
C608 C 0.41385 0.61729 0.8237 0.0
C609 C 0.45698 0.5969 0.79892 0.0
H610 H 0.48105 0.62494 0.87766 0.0
H611 H 0.38847 0.62128 0.82233 0.0
O612 O 0.37683 0.6602 0.95441 0.0
O613 O 0.4539 0.67071 0.92287 0.0
O614 O 0.37646 0.59279 0.91471 0.0
O615 O 0.3873 0.66918 0.88112 0.0
H616 H 0.43346 0.71669 0.99006 0.0
H617 H 0.30994 0.62956 0.98718 0.0
H618 H 0.42416 0.73528 0.04539 0.0
H619 H 0.30275 0.64987 0.0426 0.0
H620 H 0.58533 0.74697 0.90379 0.0
H621 H 0.47687 0.69342 0.98348 0.0
H622 H 0.51679 0.70259 0.88498 0.0
H623 H 0.54594 0.73811 1.00048 0.0
H624 H 0.40777 0.5992 0.0665 0.0
H625 H 0.49095 0.58937 1.00366 0.0
H626 H 0.39713 0.80213 0.95263 0.0
H627 H 0.51938 0.83514 0.93914 0.0
H628 H 0.3648 0.5232 0.89605 0.0
H629 H 0.33147 0.58288 0.96596 0.0
H630 H 0.319 0.45948 0.92278 0.0
H631 H 0.2864 0.51831 0.99148 0.0
H632 H 0.34681 0.67586 0.83283 0.0
H633 H 0.46349 0.71836 0.87098 0.0
H634 H 0.37639 0.72057 0.78558 0.0
H635 H 0.49104 0.76236 0.82325 0.0
H636 H 0.23281 0.63769 0.9112 0.0
H637 H 0.22371 0.5314 0.87077 0.0
H638 H 0.50234 0.60031 0.83139 0.0
H639 H 0.40815 0.5976 0.77449 0.0
Li640 Li 0.74548 0.41485 0.09326 0.0
Li641 Li 0.79647 0.40585 0.11939 0.0
Li642 Li 0.79733 0.41464 0.06013 0.0
Li643 Li 0.74766 0.35325 0.08441 0.0
C644 C 0.81233 0.48806 0.08066 0.0
N645 N 0.8306 0.55894 0.05179 0.0
C646 C 0.84336 0.52343 0.09259 0.0
C647 C 0.79058 0.4887 0.05403 0.0
C648 C 0.85213 0.55898 0.07767 0.0
C649 C 0.80029 0.52484 0.03978 0.0
C650 C 0.72286 0.35813 0.15405 0.0
C651 C 0.70231 0.30582 0.19335 0.0
N652 N 0.69032 0.32539 0.21341 0.0
C653 C 0.70977 0.37743 0.17483 0.0
C654 C 0.71863 0.32178 0.16315 0.0
C655 C 0.69364 0.36052 0.20484 0.0
C656 C 0.67241 0.41255 0.09339 0.0
N657 N 0.7111 0.43475 0.10156 0.0
C658 C 0.69932 0.48248 0.12746 0.0
C659 C 0.72489 0.46904 0.11836 0.0
C660 C 0.65909 0.46006 0.11965 0.0
C661 C 0.64567 0.4247 0.10231 0.0
H662 H 0.66224 0.38501 0.08053 0.0
H663 H 0.75558 0.48547 0.12541 0.0
C664 C 0.86529 0.42378 0.15485 0.0
N665 N 0.82891 0.41998 0.15715 0.0
C666 C 0.89104 0.43731 0.18127 0.0
C667 C 0.84152 0.44296 0.21194 0.0
C668 C 0.81682 0.42949 0.18487 0.0
C669 C 0.87938 0.44735 0.21033 0.0
H670 H 0.8747 0.41722 0.13221 0.0
H671 H 0.78838 0.4276 0.18578 0.0
C672 C 0.72977 0.36736 0.02238 0.0
N673 N 0.71011 0.32872 0.96342 0.0
C674 C 0.75109 0.35012 0.01048 0.0
C675 C 0.69843 0.3649 1.00433 0.0
C676 C 0.74069 0.33071 0.98062 0.0
C677 C 0.68897 0.34528 0.97454 0.0
C678 C 0.8188 0.35045 0.09111 0.0
C679 C 0.83944 0.34255 0.06742 0.0
C680 C 0.8117 0.3319 0.12126 0.0
C681 C 0.85224 0.31576 0.0742 0.0
C682 C 0.82502 0.30533 0.12713 0.0
N683 N 0.84481 0.29785 0.10367 0.0
C684 C 0.86905 0.44208 0.0288 0.0
C685 C 0.82013 0.44125 0.99446 0.0
C686 C 0.89546 0.45296 1.00299 0.0
N687 N 0.83202 0.43576 0.02401 0.0
C688 C 0.84549 0.4517 0.96782 0.0
C689 C 0.88358 0.45704 0.97175 0.0
H690 H 0.87772 0.43769 0.05264 0.0
H691 H 0.79057 0.43626 0.99131 0.0
C692 C 0.67507 0.28321 0.08198 0.0
N693 N 0.71429 0.29822 0.07668 0.0
C694 C 0.64805 0.24438 0.0731 0.0
C695 C 0.70238 0.23708 0.05386 0.0
C696 C 0.72827 0.27602 0.06297 0.0
C697 C 0.66164 0.22088 0.05861 0.0
H698 H 0.66474 0.30181 0.09239 0.0
H699 H 0.75928 0.28883 0.05789 0.0
O700 O 0.80361 0.45308 0.09501 0.0
O701 O 0.73832 0.37405 0.12443 0.0
O702 O 0.73916 0.3863 0.05166 0.0
O703 O 0.80606 0.37656 0.08474 0.0
H704 H 0.86049 0.52338 0.11318 0.0
H705 H 0.76644 0.46167 0.04444 0.0
H706 H 0.87607 0.5866 0.08666 0.0
H707 H 0.78371 0.52579 0.01916 0.0
H708 H 0.69901 0.27779 0.20077 0.0
H709 H 0.71235 0.40533 0.16796 0.0
H710 H 0.72747 0.30584 0.14699 0.0
H711 H 0.68371 0.37529 0.2213 0.0
H712 H 0.71071 0.50958 0.14125 0.0
H713 H 0.61489 0.4067 0.09571 0.0
H714 H 0.92021 0.44101 0.17858 0.0
H715 H 0.83111 0.45009 0.23382 0.0
H716 H 0.77549 0.35179 0.02408 0.0
H717 H 0.6816 0.37805 0.01326 0.0
H718 H 0.75696 0.31726 0.97113 0.0
H719 H 0.66481 0.34319 0.96027 0.0
H720 H 0.84521 0.35673 0.04394 0.0
H721 H 0.79646 0.33827 0.14004 0.0
H722 H 0.86807 0.3092 0.05604 0.0
H723 H 0.81973 0.29076 0.15038 0.0
H724 H 0.92479 0.45776 1.00749 0.0
H725 H 0.83483 0.45425 0.94425 0.0
H726 H 0.61691 0.23294 0.07741 0.0
H727 H 0.71406 0.22025 0.04223 0.0
Li728 Li 0.4117 0.79567 0.28578 0.0
Li729 Li 0.35071 0.74474 0.25963 0.0
Li730 Li 0.4133 0.74415 0.25264 0.0
Li731 Li 0.40443 0.79466 0.22602 0.0
C732 C 0.39964 0.7284 0.31878 0.0
N733 N 0.43288 0.71081 0.37058 0.0
C734 C 0.37554 0.70064 0.34187 0.0
C735 C 0.44064 0.74725 0.32202 0.0
C736 C 0.39292 0.69217 0.36791 0.0
C737 C 0.45687 0.7379 0.34836 0.0
C738 C 0.34936 0.81708 0.24944 0.0
C739 C 0.30725 0.82082 0.20867 0.0
N740 N 0.30097 0.84511 0.22827 0.0
C741 C 0.34267 0.84221 0.26914 0.0
C742 C 0.33167 0.80638 0.21893 0.0
C743 C 0.31803 0.85601 0.25802 0.0
C744 C 0.46227 0.86508 0.32088 0.0
N745 N 0.43012 0.82841 0.32317 0.0
C746 C 0.42019 0.83998 0.37837 0.0
C747 C 0.40912 0.81549 0.35114 0.0
C748 C 0.45301 0.87833 0.37672 0.0
C749 C 0.47432 0.89064 0.34748 0.0
H750 H 0.47802 0.87478 0.29815 0.0
H751 H 0.38336 0.78631 0.35215 0.0
C752 C 0.28473 0.67137 0.26938 0.0
N753 N 0.29604 0.71027 0.26687 0.0
C754 C 0.24628 0.64385 0.27864 0.0
C755 C 0.23148 0.69683 0.28156 0.0
C756 C 0.2703 0.72336 0.27249 0.0
C757 C 0.21919 0.65654 0.28539 0.0
H758 H 0.30609 0.66196 0.26524 0.0
H759 H 0.28 0.75443 0.27088 0.0
C760 C 0.48425 0.81295 0.23446 0.0
N761 N 0.55174 0.83451 0.19879 0.0
C762 C 0.48148 0.79901 0.20287 0.0
C763 C 0.52133 0.83792 0.24794 0.0
C764 C 0.51593 0.81023 0.18521 0.0
C765 C 0.55512 0.84845 0.22951 0.0
C766 C 0.3581 0.71883 0.19117 0.0
C767 C 0.37997 0.70885 0.17035 0.0
C768 C 0.32001 0.70981 0.18232 0.0
C769 C 0.36371 0.69091 0.14066 0.0
C770 C 0.3048 0.69183 0.15243 0.0
N771 N 0.3268 0.6829 0.13237 0.0
C772 C 0.40496 0.67125 0.2378 0.0
C773 C 0.47151 0.72004 0.24754 0.0
C774 C 0.41632 0.64406 0.2285 0.0
N775 N 0.43254 0.70861 0.24635 0.0
C776 C 0.48422 0.69387 0.23824 0.0
C777 C 0.4565 0.65556 0.22795 0.0
H778 H 0.37416 0.66304 0.23708 0.0
H779 H 0.49285 0.74971 0.2549 0.0
C780 C 0.4476 0.86663 0.19402 0.0
N781 N 0.41953 0.82841 0.18873 0.0
C782 C 0.46369 0.89296 0.16813 0.0
C783 C 0.42105 0.84041 0.13174 0.0
C784 C 0.40578 0.81507 0.15837 0.0
C785 C 0.45079 0.87987 0.13638 0.0
H786 H 0.45809 0.87642 0.2184 0.0
H787 H 0.38352 0.78467 0.15457 0.0
O788 O 0.38295 0.73744 0.29351 0.0
O789 O 0.37342 0.8034 0.26003 0.0
O790 O 0.45096 0.80243 0.25224 0.0
O791 O 0.37351 0.73656 0.22032 0.0
H792 H 0.34374 0.68594 0.33974 0.0
H793 H 0.45977 0.76899 0.30453 0.0
H794 H 0.37463 0.67083 0.38603 0.0
H795 H 0.48855 0.75226 0.35119 0.0
H796 H 0.29333 0.81275 0.18511 0.0
H797 H 0.3563 0.85084 0.2928 0.0
H798 H 0.33683 0.78728 0.20332 0.0
H799 H 0.31247 0.87539 0.27304 0.0
H800 H 0.40313 0.82901 0.40043 0.0
H801 H 0.49938 0.9201 0.34482 0.0
H802 H 0.23837 0.61325 0.28164 0.0
H803 H 0.21149 0.70792 0.28599 0.0
H804 H 0.45305 0.77989 0.19208 0.0
H805 H 0.52394 0.84893 0.27241 0.0
H806 H 0.51419 0.79966 0.1607 0.0
H807 H 0.58402 0.86772 0.23964 0.0
H808 H 0.40915 0.71478 0.17699 0.0
H809 H 0.30232 0.71658 0.19834 0.0
H810 H 0.3804 0.68328 0.12423 0.0
H811 H 0.27546 0.68491 0.14521 0.0
H812 H 0.39403 0.61491 0.22058 0.0
H813 H 0.51545 0.70366 0.2387 0.0
H814 H 0.48604 0.92325 0.17298 0.0
H815 H 0.41039 0.82891 0.10771 0.0
loop_
_geom_bond_atom_site_label_1
_geom_bond_atom_site_label_2
_geom_bond_distance
_geom_bond_site_symmetry_2
_ccdc_geom_bond_type
H0 C19 0.949 . S
H1 C20 0.950 . S
H2 C22 0.950 . S
H3 C23 0.950 . S
H4 C25 0.950 . S
H5 C28 0.950 . S
H6 C29 0.950 . S
H7 C31 0.951 . S
H8 C32 0.949 . S
H9 C34 0.949 . S
H10 C35 0.950 . S
H11 C37 0.950 . S
H12 C38 0.950 . S
H13 C40 0.940 1_655 S
H14 C43 0.950 . S
H15 C44 0.950 . S
H16 C46 0.951 . S
H17 C47 0.949 . S
C18 C19 1.376 . S
C18 C23 1.386 . S
C18 C24 1.483 . S
C19 H0 0.949 . S
C19 C18 1.376 . S
C19 C20 1.397 . S
C20 H1 0.950 . S
C20 C19 1.397 . S
C20 C21 1.391 . S
C21 C20 1.391 . S
C21 C22 1.405 . S
C22 H2 0.950 . S
C22 C21 1.405 . S
C22 C23 1.367 . S
C23 H3 0.950 . S
C23 C18 1.386 . S
C23 C22 1.367 . S
C24 C18 1.483 . S
C24 C25 1.382 1_655 S
C24 C26 1.403 . S
C25 H4 0.950 . S
C25 C24 1.382 1_455 S
C25 C41 1.411 . S
C26 C24 1.403 . S
C26 C27 1.489 . S
C26 C40 1.411 1_655 S
C27 C26 1.489 . S
C27 C28 1.383 . S
C27 C32 1.382 . S
C28 H5 0.950 . S
C28 C27 1.383 . S
C28 C29 1.395 . S
C29 H6 0.950 . S
C29 C28 1.395 . S
C29 C30 1.288 . S
C30 C29 1.288 . S
C30 C31 1.392 . S
C31 H7 0.951 . S
C31 C30 1.392 . S
C31 C32 1.392 . S
C32 H8 0.949 . S
C32 C27 1.382 . S
C32 C31 1.392 . S
C33 C34 1.376 . S
C33 C38 1.386 . S
C33 C39 1.483 . S
C34 H9 0.949 . S
C34 C33 1.376 . S
C34 C35 1.397 . S
C35 H10 0.950 . S
C35 C34 1.397 . S
C35 C36 1.391 . S
C36 C35 1.391 . S
C36 C37 1.405 . S
C37 H11 0.950 . S
C37 C36 1.405 . S
C37 C38 1.367 . S
C38 H12 0.950 . S
C38 C33 1.386 . S
C38 C37 1.367 . S
C39 C33 1.483 . S
C39 C40 1.382 . S
C39 C41 1.403 . S
C40 H13 0.940 1_455 S
C40 C26 1.411 1_455 S
C40 C39 1.382 . S
C41 C25 1.411 . S
C41 C39 1.403 . S
C41 C42 1.489 . S
C42 C41 1.489 . S
C42 C43 1.383 . S
C42 C47 1.382 . S
C43 H14 0.950 . S
C43 C42 1.383 . S
C43 C44 1.395 . S
C44 H15 0.950 . S
C44 C43 1.395 . S
C44 C45 1.288 . S
C45 C44 1.288 . S
C45 C46 1.392 . S
C46 H16 0.951 . S
C46 C45 1.392 . S
C46 C47 1.392 . S
C47 H17 0.949 . S
C47 C42 1.382 . S
C47 C46 1.392 . S
H48 C67 0.949 . S
H49 C68 0.950 . S
H50 C70 0.950 . S
H51 C71 0.950 . S
H52 C73 0.950 1_565 S
H53 C76 0.950 . S
H54 C77 0.950 . S
H55 C79 0.951 . S
H56 C80 0.949 . S
H57 C82 0.949 . S
H58 C83 0.950 . S
H59 C85 0.950 . S
H60 C86 0.950 . S
H61 C88 0.950 . S
H62 C91 0.950 . S
H63 C92 0.950 . S
H64 C94 0.951 . S
H65 C95 0.949 . S
C66 C67 1.376 . S
C66 C71 1.386 . S
C66 C72 1.483 . S
C67 H48 0.949 . S
C67 C66 1.376 . S
C67 C68 1.397 . S
C68 H49 0.950 . S
C68 C67 1.397 . S
C68 C69 1.391 . S
C69 C68 1.391 . S
C69 C70 1.405 . S
C70 H50 0.950 . S
C70 C69 1.405 . S
C70 C71 1.367 . S
C71 H51 0.950 . S
C71 C66 1.386 . S
C71 C70 1.367 . S
C72 C66 1.483 . S
C72 C73 1.382 1_565 S
C72 C74 1.403 . S
C73 H52 0.950 1_545 S
C73 C72 1.382 1_545 S
C73 C89 1.411 . S
C74 C72 1.403 . S
C74 C75 1.489 . S
C74 C88 1.411 1_565 S
C75 C74 1.489 . S
C75 C76 1.383 . S
C75 C80 1.382 . S
C76 H53 0.950 . S
C76 C75 1.383 . S
C76 C77 1.395 . S
C77 H54 0.950 . S
C77 C76 1.395 . S
C77 C78 1.288 . S
C78 C77 1.288 . S
C78 C79 1.392 . S
C79 H55 0.951 . S
C79 C78 1.392 . S
C79 C80 1.392 . S
C80 H56 0.949 . S
C80 C75 1.382 . S
C80 C79 1.392 . S
C81 C82 1.376 . S
C81 C86 1.386 . S
C81 C87 1.483 . S
C82 H57 0.949 . S
C82 C81 1.376 . S
C82 C83 1.397 . S
C83 H58 0.950 . S
C83 C82 1.397 . S
C83 C84 1.391 . S
C84 C83 1.391 . S
C84 C85 1.405 . S
C85 H59 0.950 . S
C85 C84 1.405 . S
C85 C86 1.367 . S
C86 H60 0.950 . S
C86 C81 1.386 . S
C86 C85 1.367 . S
C87 C81 1.483 . S
C87 C88 1.382 . S
C87 C89 1.403 . S
C88 H61 0.950 . S
C88 C74 1.411 1_545 S
C88 C87 1.382 . S
C89 C73 1.411 . S
C89 C87 1.403 . S
C89 C90 1.489 . S
C90 C89 1.489 . S
C90 C91 1.383 . S
C90 C95 1.382 . S
C91 H62 0.950 . S
C91 C90 1.383 . S
C91 C92 1.395 . S
C92 H63 0.950 . S
C92 C91 1.395 . S
C92 C93 1.288 . S
C93 C92 1.288 . S
C93 C94 1.392 . S
C94 H64 0.951 . S
C94 C93 1.392 . S
C94 C95 1.392 . S
C95 H65 0.949 . S
C95 C90 1.382 . S
C95 C94 1.392 . S
H96 C115 0.949 . S
H97 C116 0.950 . S
H98 C118 0.950 . S
H99 C119 0.950 . S
H100 C121 0.950 . S
H101 C124 0.950 . S
H102 C125 0.950 . S
H103 C127 0.951 . S
H104 C128 0.949 . S
H105 C130 0.949 . S
H106 C131 0.950 . S
H107 C133 0.950 . S
H108 C134 0.950 . S
H109 C136 0.950 . S
H110 C139 0.950 . S
H111 C140 0.950 . S
H112 C142 0.951 . S
H113 C143 0.949 . S
C114 C115 1.376 . S
C114 C119 1.386 . S
C114 C120 1.483 . S
C115 H96 0.949 . S
C115 C114 1.376 . S
C115 C116 1.397 . S
C116 H97 0.950 . S
C116 C115 1.397 . S
C116 C117 1.391 . S
C117 C116 1.391 . S
C117 C118 1.405 . S
C118 H98 0.950 . S
C118 C117 1.405 . S
C118 C119 1.367 . S
C119 H99 0.950 . S
C119 C114 1.386 . S
C119 C118 1.367 . S
C120 C114 1.483 . S
C120 C121 1.382 . S
C120 C122 1.403 . S
C121 H100 0.950 . S
C121 C120 1.382 . S
C121 C137 1.411 . S
C122 C120 1.403 . S
C122 C123 1.489 . S
C122 C136 1.411 . S
C123 C122 1.489 . S
C123 C124 1.383 . S
C123 C128 1.382 . S
C124 H101 0.950 . S
C124 C123 1.383 . S
C124 C125 1.395 . S
C125 H102 0.950 . S
C125 C124 1.395 . S
C125 C126 1.288 . S
C126 C125 1.288 . S
C126 C127 1.392 . S
C127 H103 0.951 . S
C127 C126 1.392 . S
C127 C128 1.392 . S
C128 H104 0.949 . S
C128 C123 1.382 . S
C128 C127 1.392 . S
C129 C130 1.376 . S
C129 C134 1.386 . S
C129 C135 1.483 . S
C130 H105 0.949 . S
C130 C129 1.376 . S
C130 C131 1.397 . S
C131 H106 0.950 . S
C131 C130 1.397 . S
C131 C132 1.391 . S
C132 C131 1.391 . S
C132 C133 1.405 . S
C133 H107 0.950 . S
C133 C132 1.405 . S
C133 C134 1.367 . S
C134 H108 0.950 . S
C134 C129 1.386 . S
C134 C133 1.367 . S
C135 C129 1.483 . S
C135 C136 1.382 . S
C135 C137 1.403 . S
C136 H109 0.950 . S
C136 C122 1.411 . S
C136 C135 1.382 . S
C137 C121 1.411 . S
C137 C135 1.403 . S
C137 C138 1.489 . S
C138 C137 1.489 . S
C138 C139 1.383 . S
C138 C143 1.382 . S
C139 H110 0.950 . S
C139 C138 1.383 . S
C139 C140 1.395 . S
C140 H111 0.950 . S
C140 C139 1.395 . S
C140 C141 1.288 . S
C141 C140 1.288 . S
C141 C142 1.392 . S
C142 H112 0.951 . S
C142 C141 1.392 . S
C142 C143 1.392 . S
C143 H113 0.949 . S
C143 C138 1.382 . S
C143 C142 1.392 . S
H144 C163 0.949 . S
H145 C164 0.950 . S
H146 C166 0.950 . S
H147 C167 0.950 . S
H148 C169 0.942 1_655 S
H149 C172 0.950 . S
H150 C173 0.950 . S
H151 C175 0.951 . S
H152 C176 0.949 . S
H153 C178 0.949 . S
H154 C179 0.950 . S
H155 C181 0.950 . S
H156 C182 0.950 . S
H157 C184 0.950 . S
H158 C187 0.950 . S
H159 C188 0.950 . S
H160 C190 0.951 . S
H161 C191 0.949 . S
C162 C163 1.376 . S
C162 C167 1.386 . S
C162 C168 1.483 . S
C163 H144 0.949 . S
C163 C162 1.376 . S
C163 C164 1.397 . S
C164 H145 0.950 . S
C164 C163 1.397 . S
C164 C165 1.391 . S
C165 C164 1.391 . S
C165 C166 1.405 . S
C166 H146 0.950 . S
C166 C165 1.405 . S
C166 C167 1.367 . S
C167 H147 0.950 . S
C167 C162 1.386 . S
C167 C166 1.367 . S
C168 C162 1.483 . S
C168 C169 1.382 . S
C168 C170 1.403 . S
C169 H148 0.942 1_455 S
C169 C168 1.382 . S
C169 C185 1.411 1_455 S
C170 C168 1.403 . S
C170 C171 1.489 . S
C170 C184 1.411 . S
C171 C170 1.489 . S
C171 C172 1.383 . S
C171 C176 1.382 . S
C172 H149 0.950 . S
C172 C171 1.383 . S
C172 C173 1.395 . S
C173 H150 0.950 . S
C173 C172 1.395 . S
C173 C174 1.288 . S
C174 C173 1.288 . S
C174 C175 1.392 . S
C175 H151 0.951 . S
C175 C174 1.392 . S
C175 C176 1.392 . S
C176 H152 0.949 . S
C176 C171 1.382 . S
C176 C175 1.392 . S
C177 C178 1.376 . S
C177 C182 1.386 . S
C177 C183 1.483 . S
C178 H153 0.949 . S
C178 C177 1.376 . S
C178 C179 1.397 . S
C179 H154 0.950 . S
C179 C178 1.397 . S
C179 C180 1.391 . S
C180 C179 1.391 . S
C180 C181 1.405 . S
C181 H155 0.950 . S
C181 C180 1.405 . S
C181 C182 1.367 . S
C182 H156 0.950 . S
C182 C177 1.386 . S
C182 C181 1.367 . S
C183 C177 1.483 . S
C183 C184 1.382 1_655 S
C183 C185 1.403 . S
C184 H157 0.950 . S
C184 C170 1.411 . S
C184 C183 1.382 1_455 S
C185 C169 1.411 1_655 S
C185 C183 1.403 . S
C185 C186 1.489 . S
C186 C185 1.489 . S
C186 C187 1.383 . S
C186 C191 1.382 . S
C187 H158 0.950 . S
C187 C186 1.383 . S
C187 C188 1.395 . S
C188 H159 0.950 . S
C188 C187 1.395 . S
C188 C189 1.288 . S
C189 C188 1.288 . S
C189 C190 1.392 . S
C190 H160 0.951 . S
C190 C189 1.392 . S
C190 C191 1.392 . S
C191 H161 0.949 . S
C191 C186 1.382 . S
C191 C190 1.392 . S
H192 C211 0.949 . S
H193 C212 0.950 . S
H194 C214 0.950 . S
H195 C215 0.950 1_556 S
H196 C217 0.950 . S
H197 C220 0.950 . S
H198 C221 0.950 . S
H199 C223 0.951 . S
H200 C224 0.949 . S
H201 C226 0.949 . S
H202 C227 0.950 . S
H203 C229 0.950 . S
H204 C230 0.932 1_554 S
H205 C232 0.950 1_565 S
H206 C235 0.950 . S
H207 C236 0.950 . S
H208 C238 0.951 . S
H209 C239 0.949 . S
C210 C211 1.376 . S
C210 C215 1.386 . S
C210 C216 1.483 . S
C211 H192 0.949 . S
C211 C210 1.376 . S
C211 C212 1.397 . S
C212 H193 0.950 . S
C212 C211 1.397 . S
C212 C213 1.391 . S
C213 C212 1.391 . S
C213 C214 1.405 . S
C214 H194 0.950 . S
C214 C213 1.405 . S
C214 C215 1.367 . S
C215 H195 0.950 1_554 S
C215 C210 1.386 . S
C215 C214 1.367 . S
C216 C210 1.483 . S
C216 C217 1.382 . S
C216 C218 1.403 1_554 S
C217 H196 0.950 . S
C217 C216 1.382 . S
C217 C233 1.411 1_545 S
C218 C216 1.403 1_556 S
C218 C219 1.489 . S
C218 C232 1.411 . S
C219 C218 1.489 . S
C219 C220 1.383 . S
C219 C224 1.382 . S
C220 H197 0.950 . S
C220 C219 1.383 . S
C220 C221 1.395 . S
C221 H198 0.950 . S
C221 C220 1.395 . S
C221 C222 1.288 . S
C222 C221 1.288 . S
C222 C223 1.392 . S
C223 H199 0.951 . S
C223 C222 1.392 . S
C223 C224 1.392 . S
C224 H200 0.949 . S
C224 C219 1.382 . S
C224 C223 1.392 . S
C225 C226 1.376 . S
C225 C230 1.386 . S
C225 C231 1.483 . S
C226 H201 0.949 . S
C226 C225 1.376 . S
C226 C227 1.397 . S
C227 H202 0.950 . S
C227 C226 1.397 . S
C227 C228 1.391 . S
C228 C227 1.391 . S
C228 C229 1.405 . S
C229 H203 0.950 . S
C229 C228 1.405 . S
C229 C230 1.367 . S
C230 H204 0.932 1_556 S
C230 C225 1.386 . S
C230 C229 1.367 . S
C231 C225 1.483 . S
C231 C232 1.382 1_565 S
C231 C233 1.403 1_556 S
C232 H205 0.950 1_545 S
C232 C218 1.411 . S
C232 C231 1.382 1_545 S
C233 C217 1.411 1_565 S
C233 C231 1.403 1_554 S
C233 C234 1.489 . S
C234 C233 1.489 . S
C234 C235 1.383 . S
C234 C239 1.382 . S
C235 H206 0.950 . S
C235 C234 1.383 . S
C235 C236 1.395 . S
C236 H207 0.950 . S
C236 C235 1.395 . S
C236 C237 1.288 . S
C237 C236 1.288 . S
C237 C238 1.392 . S
C238 H208 0.951 . S
C238 C237 1.392 . S
C238 C239 1.392 . S
C239 H209 0.949 . S
C239 C234 1.382 . S
C239 C238 1.392 . S
H240 C259 0.949 . S
H241 C260 0.950 . S
H242 C262 0.950 . S
H243 C263 0.950 . S
H244 C265 0.950 . S
H245 C268 0.950 . S
H246 C269 0.950 . S
H247 C271 0.951 . S
H248 C272 0.949 . S
H249 C274 0.949 . S
H250 C275 0.950 . S
H251 C277 0.950 . S
H252 C278 0.950 . S
H253 C280 0.950 . S
H254 C283 0.950 . S
H255 C284 0.950 . S
H256 C286 0.951 . S
H257 C287 0.949 . S
C258 C259 1.376 . S
C258 C263 1.386 . S
C258 C264 1.483 . S
C259 H240 0.949 . S
C259 C258 1.376 . S
C259 C260 1.397 . S
C260 H241 0.950 . S
C260 C259 1.397 . S
C260 C261 1.391 . S
C261 C260 1.391 . S
C261 C262 1.405 . S
C262 H242 0.950 . S
C262 C261 1.405 . S
C262 C263 1.367 . S
C263 H243 0.950 . S
C263 C258 1.386 . S
C263 C262 1.367 . S
C264 C258 1.483 . S
C264 C265 1.382 . S
C264 C266 1.403 . S
C265 H244 0.950 . S
C265 C264 1.382 . S
C265 C281 1.411 . S
C266 C264 1.403 . S
C266 C267 1.489 . S
C266 C280 1.411 . S
C267 C266 1.489 . S
C267 C268 1.383 . S
C267 C272 1.382 . S
C268 H245 0.950 . S
C268 C267 1.383 . S
C268 C269 1.395 . S
C269 H246 0.950 . S
C269 C268 1.395 . S
C269 C270 1.288 . S
C270 C269 1.288 . S
C270 C271 1.392 . S
C271 H247 0.951 . S
C271 C270 1.392 . S
C271 C272 1.392 . S
C272 H248 0.949 . S
C272 C267 1.382 . S
C272 C271 1.392 . S
C273 C274 1.376 . S
C273 C278 1.386 . S
C273 C279 1.483 . S
C274 H249 0.949 . S
C274 C273 1.376 . S
C274 C275 1.397 . S
C275 H250 0.950 . S
C275 C274 1.397 . S
C275 C276 1.391 . S
C276 C275 1.391 . S
C276 C277 1.405 . S
C277 H251 0.950 . S
C277 C276 1.405 . S
C277 C278 1.367 . S
C278 H252 0.950 . S
C278 C273 1.386 . S
C278 C277 1.367 . S
C279 C273 1.483 . S
C279 C280 1.382 . S
C279 C281 1.403 . S
C280 H253 0.950 . S
C280 C266 1.411 . S
C280 C279 1.382 . S
C281 C265 1.411 . S
C281 C279 1.403 . S
C281 C282 1.489 . S
C282 C281 1.489 . S
C282 C283 1.383 . S
C282 C287 1.382 . S
C283 H254 0.950 . S
C283 C282 1.383 . S
C283 C284 1.395 . S
C284 H255 0.950 . S
C284 C283 1.395 . S
C284 C285 1.288 . S
C285 C284 1.288 . S
C285 C286 1.392 . S
C286 H256 0.951 . S
C286 C285 1.392 . S
C286 C287 1.392 . S
C287 H257 0.949 . S
C287 C282 1.382 . S
C287 C286 1.392 . S
Li288 N305 1.990 . S
Li288 O348 1.956 . S
Li288 O349 1.970 . S
Li288 O350 1.961 . S
Li289 N313 1.990 . S
Li289 O348 1.970 . S
Li289 O349 1.956 . S
Li289 O351 1.961 . S
Li290 N335 1.990 . S
Li290 O348 1.961 . S
Li290 O350 1.956 . S
Li290 O351 1.970 . S
Li291 N341 1.990 . S
Li291 O349 1.961 . S
Li291 O350 1.970 . S
Li291 O351 1.956 . S
C292 C294 1.348 . S
C292 C295 1.356 . S
C292 O348 1.325 . S
N293 C296 1.314 . S
N293 C297 1.279 . S
C294 C292 1.348 . S
C294 C296 1.353 . S
C294 H352 0.929 . S
C295 C292 1.356 . S
C295 C297 1.358 . S
C295 H353 0.930 . S
C296 N293 1.314 . S
C296 C294 1.353 . S
C296 H354 0.930 . S
C297 N293 1.279 . S
C297 C295 1.358 . S
C297 H355 0.930 . S
C298 C301 1.348 . S
C298 C302 1.356 . S
C298 O349 1.325 . S
C299 N300 1.279 . S
C299 C302 1.358 . S
C299 H356 0.930 . S
N300 C299 1.279 . S
N300 C303 1.314 . S
C301 C298 1.348 . S
C301 C303 1.353 . S
C301 H357 0.929 . S
C302 C298 1.356 . S
C302 C299 1.358 . S
C302 H358 0.930 . S
C303 N300 1.314 . S
C303 C301 1.353 . S
C303 H359 0.930 . S
C304 N305 1.314 . S
C304 C309 1.353 . S
C304 H310 0.930 . S
N305 Li288 1.990 . S
N305 C304 1.314 . S
N305 C307 1.279 . S
C306 C307 1.358 . S
C306 C308 1.356 . S
C306 H360 0.930 . S
C307 N305 1.279 . S
C307 C306 1.358 . S
C307 H311 0.930 . S
C308 C306 1.356 . S
C308 C309 1.348 . S
C309 C304 1.353 . S
C309 C308 1.348 . S
C309 H361 0.929 . S
H310 C304 0.930 . S
H311 C307 0.930 . S
C312 N313 1.314 . S
C312 C314 1.353 . S
C312 H318 0.930 . S
N313 Li289 1.990 . S
N313 C312 1.314 . S
N313 C316 1.279 . S
C314 C312 1.353 . S
C314 C317 1.348 . S
C314 H362 0.929 . S
C315 C316 1.358 . S
C315 C317 1.356 . S
C315 H363 0.930 . S
C316 N313 1.279 . S
C316 C315 1.358 . S
C316 H319 0.930 . S
C317 C314 1.348 . S
C317 C315 1.356 . S
H318 C312 0.930 . S
H319 C316 0.930 . S
C320 C322 1.348 . S
C320 C323 1.356 . S
C320 O350 1.325 . S
N321 C324 1.314 . S
N321 C325 1.279 . S
C322 C320 1.348 . S
C322 C324 1.353 . S
C322 H364 0.929 . S
C323 C320 1.356 . S
C323 C325 1.358 . S
C323 H365 0.930 . S
C324 N321 1.314 . S
C324 C322 1.353 . S
C324 H366 0.930 . S
C325 N321 1.279 . S
C325 C323 1.358 . S
C325 H367 0.930 . S
C326 C327 1.348 . S
C326 C328 1.356 . S
C326 O351 1.325 . S
C327 C326 1.348 . S
C327 C329 1.353 . S
C327 H368 0.929 . S
C328 C326 1.356 . S
C328 C330 1.358 . S
C328 H369 0.930 . S
C329 C327 1.353 . S
C329 N331 1.314 . S
C329 H370 0.930 . S
C330 C328 1.358 . S
C330 N331 1.279 . S
C330 H371 0.930 . S
N331 C329 1.314 . S
N331 C330 1.279 . S
C332 C334 1.353 . S
C332 N335 1.314 . S
C332 H338 0.930 . S
C333 N335 1.279 . S
C333 C336 1.358 . S
C333 H339 0.930 . S
C334 C332 1.353 . S
C334 C337 1.348 . S
C334 H372 0.929 . S
N335 Li290 1.990 . S
N335 C332 1.314 . S
N335 C333 1.279 . S
C336 C333 1.358 . S
C336 C337 1.356 . S
C336 H373 0.930 . S
C337 C334 1.348 . S
C337 C336 1.356 . S
H338 C332 0.930 . S
H339 C333 0.930 . S
C340 N341 1.314 . S
C340 C342 1.353 . S
C340 H346 0.930 . S
N341 Li291 1.990 . S
N341 C340 1.314 . S
N341 C344 1.279 . S
C342 C340 1.353 . S
C342 C345 1.348 . S
C342 H374 0.929 . S
C343 C344 1.358 . S
C343 C345 1.356 . S
C343 H375 0.930 . S
C344 N341 1.279 . S
C344 C343 1.358 . S
C344 H347 0.930 . S
C345 C342 1.348 . S
C345 C343 1.356 . S
H346 C340 0.930 . S
H347 C344 0.930 . S
O348 Li288 1.956 . S
O348 Li289 1.970 . S
O348 Li290 1.961 . S
O348 C292 1.325 . S
O349 Li288 1.970 . S
O349 Li289 1.956 . S
O349 Li291 1.961 . S
O349 C298 1.325 . S
O350 Li288 1.961 . S
O350 Li290 1.956 . S
O350 Li291 1.970 . S
O350 C320 1.325 . S
O351 Li289 1.961 . S
O351 Li290 1.970 . S
O351 Li291 1.956 . S
O351 C326 1.325 . S
H352 C294 0.929 . S
H353 C295 0.930 . S
H354 C296 0.930 . S
H355 C297 0.930 . S
H356 C299 0.930 . S
H357 C301 0.929 . S
H358 C302 0.930 . S
H359 C303 0.930 . S
H360 C306 0.930 . S
H361 C309 0.929 . S
H362 C314 0.929 . S
H363 C315 0.930 . S
H364 C322 0.929 . S
H365 C323 0.930 . S
H366 C324 0.930 . S
H367 C325 0.930 . S
H368 C327 0.929 . S
H369 C328 0.930 . S
H370 C329 0.930 . S
H371 C330 0.930 . S
H372 C334 0.929 . S
H373 C336 0.930 . S
H374 C342 0.929 . S
H375 C343 0.930 . S
Li376 N393 1.990 . S
Li376 O436 1.956 . S
Li376 O437 1.970 . S
Li376 O438 1.961 . S
Li377 N401 1.990 . S
Li377 O436 1.970 . S
Li377 O437 1.956 . S
Li377 O439 1.961 . S
Li378 N423 1.990 . S
Li378 O436 1.961 . S
Li378 O438 1.956 . S
Li378 O439 1.970 . S
Li379 N429 1.990 . S
Li379 O437 1.961 . S
Li379 O438 1.970 . S
Li379 O439 1.956 . S
C380 C382 1.348 . S
C380 C383 1.356 . S
C380 O436 1.325 . S
N381 C384 1.314 . S
N381 C385 1.279 . S
C382 C380 1.348 . S
C382 C384 1.353 . S
C382 H440 0.929 . S
C383 C380 1.356 . S
C383 C385 1.358 . S
C383 H441 0.930 . S
C384 N381 1.314 . S
C384 C382 1.353 . S
C384 H442 0.930 . S
C385 N381 1.279 . S
C385 C383 1.358 . S
C385 H443 0.930 . S
C386 C389 1.348 . S
C386 C390 1.356 . S
C386 O437 1.325 . S
C387 N388 1.279 . S
C387 C390 1.358 . S
C387 H444 0.930 . S
N388 C387 1.279 . S
N388 C391 1.314 . S
C389 C386 1.348 . S
C389 C391 1.353 . S
C389 H445 0.929 . S
C390 C386 1.356 . S
C390 C387 1.358 . S
C390 H446 0.930 . S
C391 N388 1.314 . S
C391 C389 1.353 . S
C391 H447 0.930 . S
C392 N393 1.314 . S
C392 C397 1.353 . S
C392 H398 0.930 . S
N393 Li376 1.990 . S
N393 C392 1.314 . S
N393 C395 1.279 . S
C394 C395 1.358 . S
C394 C396 1.356 . S
C394 H448 0.930 . S
C395 N393 1.279 . S
C395 C394 1.358 . S
C395 H399 0.930 . S
C396 C394 1.356 . S
C396 C397 1.348 . S
C397 C392 1.353 . S
C397 C396 1.348 . S
C397 H449 0.929 . S
H398 C392 0.930 . S
H399 C395 0.930 . S
C400 N401 1.314 . S
C400 C402 1.353 . S
C400 H406 0.930 . S
N401 Li377 1.990 . S
N401 C400 1.314 . S
N401 C404 1.279 . S
C402 C400 1.353 . S
C402 C405 1.348 . S
C402 H450 0.929 . S
C403 C404 1.358 . S
C403 C405 1.356 . S
C403 H451 0.930 . S
C404 N401 1.279 . S
C404 C403 1.358 . S
C404 H407 0.930 . S
C405 C402 1.348 . S
C405 C403 1.356 . S
H406 C400 0.930 . S
H407 C404 0.930 . S
C408 C410 1.348 . S
C408 C411 1.356 . S
C408 O438 1.325 . S
N409 C412 1.314 . S
N409 C413 1.279 . S
C410 C408 1.348 . S
C410 C412 1.353 . S
C410 H452 0.929 . S
C411 C408 1.356 . S
C411 C413 1.358 . S
C411 H453 0.930 . S
C412 N409 1.314 . S
C412 C410 1.353 . S
C412 H454 0.930 . S
C413 N409 1.279 . S
C413 C411 1.358 . S
C413 H455 0.930 . S
C414 C415 1.348 . S
C414 C416 1.356 . S
C414 O439 1.325 . S
C415 C414 1.348 . S
C415 C417 1.353 . S
C415 H456 0.929 . S
C416 C414 1.356 . S
C416 C418 1.358 . S
C416 H457 0.930 . S
C417 C415 1.353 . S
C417 N419 1.314 . S
C417 H458 0.930 . S
C418 C416 1.358 . S
C418 N419 1.279 . S
C418 H459 0.930 . S
N419 C417 1.314 . S
N419 C418 1.279 . S
C420 C422 1.353 . S
C420 N423 1.314 . S
C420 H426 0.930 . S
C421 N423 1.279 . S
C421 C424 1.358 . S
C421 H427 0.930 . S
C422 C420 1.353 . S
C422 C425 1.348 . S
C422 H460 0.929 . S
N423 Li378 1.990 . S
N423 C420 1.314 . S
N423 C421 1.279 . S
C424 C421 1.358 . S
C424 C425 1.356 . S
C424 H461 0.930 . S
C425 C422 1.348 . S
C425 C424 1.356 . S
H426 C420 0.930 . S
H427 C421 0.930 . S
C428 N429 1.314 . S
C428 C430 1.353 . S
C428 H434 0.930 . S
N429 Li379 1.990 . S
N429 C428 1.314 . S
N429 C432 1.279 . S
C430 C428 1.353 . S
C430 C433 1.348 . S
C430 H462 0.929 . S
C431 C432 1.358 . S
C431 C433 1.356 . S
C431 H463 0.930 . S
C432 N429 1.279 . S
C432 C431 1.358 . S
C432 H435 0.930 . S
C433 C430 1.348 . S
C433 C431 1.356 . S
H434 C428 0.930 . S
H435 C432 0.930 . S
O436 Li376 1.956 . S
O436 Li377 1.970 . S
O436 Li378 1.961 . S
O436 C380 1.325 . S
O437 Li376 1.970 . S
O437 Li377 1.956 . S
O437 Li379 1.961 . S
O437 C386 1.325 . S
O438 Li376 1.961 . S
O438 Li378 1.956 . S
O438 Li379 1.970 . S
O438 C408 1.325 . S
O439 Li377 1.961 . S
O439 Li378 1.970 . S
O439 Li379 1.956 . S
O439 C414 1.325 . S
H440 C382 0.929 . S
H441 C383 0.930 . S
H442 C384 0.930 . S
H443 C385 0.930 . S
H444 C387 0.930 . S
H445 C389 0.929 . S
H446 C390 0.930 . S
H447 C391 0.930 . S
H448 C394 0.930 . S
H449 C397 0.929 . S
H450 C402 0.929 . S
H451 C403 0.930 . S
H452 C410 0.929 . S
H453 C411 0.930 . S
H454 C412 0.930 . S
H455 C413 0.930 . S
H456 C415 0.929 . S
H457 C416 0.930 . S
H458 C417 0.930 . S
H459 C418 0.930 . S
H460 C422 0.929 . S
H461 C424 0.930 . S
H462 C430 0.929 . S
H463 C431 0.930 . S
Li464 N481 1.990 . S
Li464 O524 1.956 . S
Li464 O525 1.970 . S
Li464 O526 1.961 . S
Li465 N489 1.990 . S
Li465 O524 1.970 . S
Li465 O525 1.956 . S
Li465 O527 1.961 . S
Li466 N511 1.990 . S
Li466 O524 1.961 . S
Li466 O526 1.956 . S
Li466 O527 1.970 . S
Li467 N517 1.990 . S
Li467 O525 1.961 . S
Li467 O526 1.970 . S
Li467 O527 1.956 . S
C468 C470 1.348 . S
C468 C471 1.356 . S
C468 O524 1.325 . S
N469 C472 1.314 . S
N469 C473 1.279 . S
C470 C468 1.348 . S
C470 C472 1.353 . S
C470 H528 0.929 . S
C471 C468 1.356 . S
C471 C473 1.358 . S
C471 H529 0.930 . S
C472 N469 1.314 . S
C472 C470 1.353 . S
C472 H530 0.930 . S
C473 N469 1.279 . S
C473 C471 1.358 . S
C473 H531 0.930 . S
C474 C477 1.348 . S
C474 C478 1.356 . S
C474 O525 1.325 . S
C475 N476 1.279 . S
C475 C478 1.358 . S
C475 H532 0.930 . S
N476 C475 1.279 . S
N476 C479 1.314 . S
C477 C474 1.348 . S
C477 C479 1.353 . S
C477 H533 0.929 . S
C478 C474 1.356 . S
C478 C475 1.358 . S
C478 H534 0.930 . S
C479 N476 1.314 . S
C479 C477 1.353 . S
C479 H535 0.930 . S
C480 N481 1.314 . S
C480 C485 1.353 . S
C480 H486 0.930 . S
N481 Li464 1.990 . S
N481 C480 1.314 . S
N481 C483 1.279 . S
C482 C483 1.358 . S
C482 C484 1.356 . S
C482 H536 0.930 . S
C483 N481 1.279 . S
C483 C482 1.358 . S
C483 H487 0.930 . S
C484 C482 1.356 . S
C484 C485 1.348 . S
C485 C480 1.353 . S
C485 C484 1.348 . S
C485 H537 0.929 . S
H486 C480 0.930 . S
H487 C483 0.930 . S
C488 N489 1.314 . S
C488 C490 1.353 . S
C488 H494 0.930 . S
N489 Li465 1.990 . S
N489 C488 1.314 . S
N489 C492 1.279 . S
C490 C488 1.353 . S
C490 C493 1.348 . S
C490 H538 0.929 . S
C491 C492 1.358 . S
C491 C493 1.356 . S
C491 H539 0.930 . S
C492 N489 1.279 . S
C492 C491 1.358 . S
C492 H495 0.930 . S
C493 C490 1.348 . S
C493 C491 1.356 . S
H494 C488 0.930 . S
H495 C492 0.930 . S
C496 C498 1.348 . S
C496 C499 1.356 . S
C496 O526 1.325 . S
N497 C500 1.314 . S
N497 C501 1.279 . S
C498 C496 1.348 . S
C498 C500 1.353 . S
C498 H540 0.929 . S
C499 C496 1.356 . S
C499 C501 1.358 . S
C499 H541 0.930 . S
C500 N497 1.314 . S
C500 C498 1.353 . S
C500 H542 0.930 . S
C501 N497 1.279 . S
C501 C499 1.358 . S
C501 H543 0.930 . S
C502 C503 1.348 . S
C502 C504 1.356 . S
C502 O527 1.325 . S
C503 C502 1.348 . S
C503 C505 1.353 . S
C503 H544 0.929 . S
C504 C502 1.356 . S
C504 C506 1.358 . S
C504 H545 0.930 . S
C505 C503 1.353 . S
C505 N507 1.314 . S
C505 H546 0.930 . S
C506 C504 1.358 . S
C506 N507 1.279 . S
C506 H547 0.930 . S
N507 C505 1.314 . S
N507 C506 1.279 . S
C508 C510 1.353 . S
C508 N511 1.314 . S
C508 H514 0.930 . S
C509 N511 1.279 . S
C509 C512 1.358 . S
C509 H515 0.930 . S
C510 C508 1.353 . S
C510 C513 1.348 . S
C510 H548 0.929 . S
N511 Li466 1.990 . S
N511 C508 1.314 . S
N511 C509 1.279 . S
C512 C509 1.358 . S
C512 C513 1.356 . S
C512 H549 0.930 . S
C513 C510 1.348 . S
C513 C512 1.356 . S
H514 C508 0.930 . S
H515 C509 0.930 . S
C516 N517 1.314 . S
C516 C518 1.353 . S
C516 H522 0.930 . S
N517 Li467 1.990 . S
N517 C516 1.314 . S
N517 C520 1.279 . S
C518 C516 1.353 . S
C518 C521 1.348 . S
C518 H550 0.929 . S
C519 C520 1.358 . S
C519 C521 1.356 . S
C519 H551 0.930 . S
C520 N517 1.279 . S
C520 C519 1.358 . S
C520 H523 0.930 . S
C521 C518 1.348 . S
C521 C519 1.356 . S
H522 C516 0.930 . S
H523 C520 0.930 . S
O524 Li464 1.956 . S
O524 Li465 1.970 . S
O524 Li466 1.961 . S
O524 C468 1.325 . S
O525 Li464 1.970 . S
O525 Li465 1.956 . S
O525 Li467 1.961 . S
O525 C474 1.325 . S
O526 Li464 1.961 . S
O526 Li466 1.956 . S
O526 Li467 1.970 . S
O526 C496 1.325 . S
O527 Li465 1.961 . S
O527 Li466 1.970 . S
O527 Li467 1.956 . S
O527 C502 1.325 . S
H528 C470 0.929 . S
H529 C471 0.930 . S
H530 C472 0.930 . S
H531 C473 0.930 . S
H532 C475 0.930 . S
H533 C477 0.929 . S
H534 C478 0.930 . S
H535 C479 0.930 . S
H536 C482 0.930 . S
H537 C485 0.929 . S
H538 C490 0.929 . S
H539 C491 0.930 . S
H540 C498 0.929 . S
H541 C499 0.930 . S
H542 C500 0.930 . S
H543 C501 0.930 . S
H544 C503 0.929 . S
H545 C504 0.930 . S
H546 C505 0.930 . S
H547 C506 0.930 . S
H548 C510 0.929 . S
H549 C512 0.930 . S
H550 C518 0.929 . S
H551 C519 0.930 . S
Li552 N569 1.990 . S
Li552 O612 1.956 . S
Li552 O613 1.970 . S
Li552 O614 1.961 . S
Li553 N577 1.990 . S
Li553 O612 1.970 . S
Li553 O613 1.956 . S
Li553 O615 1.961 . S
Li554 N599 1.990 . S
Li554 O612 1.961 . S
Li554 O614 1.956 . S
Li554 O615 1.970 . S
Li555 N605 1.990 . S
Li555 O613 1.961 . S
Li555 O614 1.970 . S
Li555 O615 1.956 . S
C556 C558 1.348 . S
C556 C559 1.356 . S
C556 O612 1.325 . S
N557 C560 1.314 . S
N557 C561 1.279 . S
C558 C556 1.348 . S
C558 C560 1.353 1_556 S
C558 H616 0.929 . S
C559 C556 1.356 . S
C559 C561 1.358 1_556 S
C559 H617 0.930 . S
C560 N557 1.314 . S
C560 C558 1.353 1_554 S
C560 H618 0.930 . S
C561 N557 1.279 . S
C561 C559 1.358 1_554 S
C561 H619 0.930 . S
C562 C565 1.348 . S
C562 C566 1.356 . S
C562 O613 1.325 . S
C563 N564 1.279 . S
C563 C566 1.358 . S
C563 H620 0.930 . S
N564 C563 1.279 . S
N564 C567 1.314 . S
C565 C562 1.348 . S
C565 C567 1.353 . S
C565 H621 0.929 . S
C566 C562 1.356 . S
C566 C563 1.358 . S
C566 H622 0.930 . S
C567 N564 1.314 . S
C567 C565 1.353 . S
C567 H623 0.930 . S
C568 N569 1.314 . S
C568 C573 1.353 1_556 S
C568 H574 0.930 . S
N569 Li552 1.990 . S
N569 C568 1.314 . S
N569 C571 1.279 1_556 S
C570 C571 1.358 . S
C570 C572 1.356 . S
C570 H624 0.930 . S
C571 N569 1.279 1_554 S
C571 C570 1.358 . S
C571 H575 0.930 . S
C572 C570 1.356 . S
C572 C573 1.348 . S
C573 C568 1.353 1_554 S
C573 C572 1.348 . S
C573 H625 0.929 . S
H574 C568 0.930 . S
H575 C571 0.930 . S
C576 N577 1.314 . S
C576 C578 1.353 . S
C576 H582 0.930 . S
N577 Li553 1.990 . S
N577 C576 1.314 . S
N577 C580 1.279 . S
C578 C576 1.353 . S
C578 C581 1.348 . S
C578 H626 0.929 . S
C579 C580 1.358 . S
C579 C581 1.356 . S
C579 H627 0.930 . S
C580 N577 1.279 . S
C580 C579 1.358 . S
C580 H583 0.930 . S
C581 C578 1.348 . S
C581 C579 1.356 . S
H582 C576 0.930 . S
H583 C580 0.930 . S
C584 C586 1.348 . S
C584 C587 1.356 . S
C584 O614 1.325 . S
N585 C588 1.314 . S
N585 C589 1.279 . S
C586 C584 1.348 . S
C586 C588 1.353 . S
C586 H628 0.929 . S
C587 C584 1.356 . S
C587 C589 1.358 . S
C587 H629 0.930 . S
C588 N585 1.314 . S
C588 C586 1.353 . S
C588 H630 0.930 . S
C589 N585 1.279 . S
C589 C587 1.358 . S
C589 H631 0.930 . S
C590 C591 1.348 . S
C590 C592 1.356 . S
C590 O615 1.325 . S
C591 C590 1.348 . S
C591 C593 1.353 . S
C591 H632 0.929 . S
C592 C590 1.356 . S
C592 C594 1.358 . S
C592 H633 0.930 . S
C593 C591 1.353 . S
C593 N595 1.314 . S
C593 H634 0.930 . S
C594 C592 1.358 . S
C594 N595 1.279 . S
C594 H635 0.930 . S
N595 C593 1.314 . S
N595 C594 1.279 . S
C596 C598 1.353 . S
C596 N599 1.314 . S
C596 H602 0.930 . S
C597 N599 1.279 . S
C597 C600 1.358 . S
C597 H603 0.930 . S
C598 C596 1.353 . S
C598 C601 1.348 . S
C598 H636 0.929 . S
N599 Li554 1.990 . S
N599 C596 1.314 . S
N599 C597 1.279 . S
C600 C597 1.358 . S
C600 C601 1.356 . S
C600 H637 0.930 . S
C601 C598 1.348 . S
C601 C600 1.356 . S
H602 C596 0.930 . S
H603 C597 0.930 . S
C604 N605 1.314 . S
C604 C606 1.353 . S
C604 H610 0.930 . S
N605 Li555 1.990 . S
N605 C604 1.314 . S
N605 C608 1.279 . S
C606 C604 1.353 . S
C606 C609 1.348 . S
C606 H638 0.929 . S
C607 C608 1.358 . S
C607 C609 1.356 . S
C607 H639 0.930 . S
C608 N605 1.279 . S
C608 C607 1.358 . S
C608 H611 0.930 . S
C609 C606 1.348 . S
C609 C607 1.356 . S
H610 C604 0.930 . S
H611 C608 0.930 . S
O612 Li552 1.956 . S
O612 Li553 1.970 . S
O612 Li554 1.961 . S
O612 C556 1.325 . S
O613 Li552 1.970 . S
O613 Li553 1.956 . S
O613 Li555 1.961 . S
O613 C562 1.325 . S
O614 Li552 1.961 . S
O614 Li554 1.956 . S
O614 Li555 1.970 . S
O614 C584 1.325 . S
O615 Li553 1.961 . S
O615 Li554 1.970 . S
O615 Li555 1.956 . S
O615 C590 1.325 . S
H616 C558 0.929 . S
H617 C559 0.930 . S
H618 C560 0.930 . S
H619 C561 0.930 . S
H620 C563 0.930 . S
H621 C565 0.929 . S
H622 C566 0.930 . S
H623 C567 0.930 . S
H624 C570 0.930 . S
H625 C573 0.929 . S
H626 C578 0.929 . S
H627 C579 0.930 . S
H628 C586 0.929 . S
H629 C587 0.930 . S
H630 C588 0.930 . S
H631 C589 0.930 . S
H632 C591 0.929 . S
H633 C592 0.930 . S
H634 C593 0.930 . S
H635 C594 0.930 . S
H636 C598 0.929 . S
H637 C600 0.930 . S
H638 C606 0.929 . S
H639 C607 0.930 . S
Li640 N657 1.990 . S
Li640 O700 1.956 . S
Li640 O701 1.970 . S
Li640 O702 1.961 . S
Li641 N665 1.990 . S
Li641 O700 1.970 . S
Li641 O701 1.956 . S
Li641 O703 1.961 . S
Li642 N687 1.990 . S
Li642 O700 1.961 . S
Li642 O702 1.956 . S
Li642 O703 1.970 . S
Li643 N693 1.990 . S
Li643 O701 1.961 . S
Li643 O702 1.970 . S
Li643 O703 1.956 . S
C644 C646 1.348 . S
C644 C647 1.356 . S
C644 O700 1.325 . S
N645 C648 1.314 . S
N645 C649 1.279 . S
C646 C644 1.348 . S
C646 C648 1.353 . S
C646 H704 0.929 . S
C647 C644 1.356 . S
C647 C649 1.358 . S
C647 H705 0.930 . S
C648 N645 1.314 . S
C648 C646 1.353 . S
C648 H706 0.930 . S
C649 N645 1.279 . S
C649 C647 1.358 . S
C649 H707 0.930 . S
C650 C653 1.348 . S
C650 C654 1.356 . S
C650 O701 1.325 . S
C651 N652 1.279 . S
C651 C654 1.358 . S
C651 H708 0.930 . S
N652 C651 1.279 . S
N652 C655 1.314 . S
C653 C650 1.348 . S
C653 C655 1.353 . S
C653 H709 0.929 . S
C654 C650 1.356 . S
C654 C651 1.358 . S
C654 H710 0.930 . S
C655 N652 1.314 . S
C655 C653 1.353 . S
C655 H711 0.930 . S
C656 N657 1.314 . S
C656 C661 1.353 . S
C656 H662 0.930 . S
N657 Li640 1.990 . S
N657 C656 1.314 . S
N657 C659 1.279 . S
C658 C659 1.358 . S
C658 C660 1.356 . S
C658 H712 0.930 . S
C659 N657 1.279 . S
C659 C658 1.358 . S
C659 H663 0.930 . S
C660 C658 1.356 . S
C660 C661 1.348 . S
C661 C656 1.353 . S
C661 C660 1.348 . S
C661 H713 0.929 . S
H662 C656 0.930 . S
H663 C659 0.930 . S
C664 N665 1.314 . S
C664 C666 1.353 . S
C664 H670 0.930 . S
N665 Li641 1.990 . S
N665 C664 1.314 . S
N665 C668 1.279 . S
C666 C664 1.353 . S
C666 C669 1.348 . S
C666 H714 0.929 . S
C667 C668 1.358 . S
C667 C669 1.356 . S
C667 H715 0.930 . S
C668 N665 1.279 . S
C668 C667 1.358 . S
C668 H671 0.930 . S
C669 C666 1.348 . S
C669 C667 1.356 . S
H670 C664 0.930 . S
H671 C668 0.930 . S
C672 C674 1.348 . S
C672 C675 1.356 . S
C672 O702 1.325 . S
N673 C676 1.314 . S
N673 C677 1.279 . S
C674 C672 1.348 . S
C674 C676 1.353 1_554 S
C674 H716 0.929 . S
C675 C672 1.356 . S
C675 C677 1.358 1_554 S
C675 H717 0.930 . S
C676 N673 1.314 . S
C676 C674 1.353 1_556 S
C676 H718 0.930 . S
C677 N673 1.279 . S
C677 C675 1.358 1_556 S
C677 H719 0.930 . S
C678 C679 1.348 . S
C678 C680 1.356 . S
C678 O703 1.325 . S
C679 C678 1.348 . S
C679 C681 1.353 . S
C679 H720 0.929 . S
C680 C678 1.356 . S
C680 C682 1.358 . S
C680 H721 0.930 . S
C681 C679 1.353 . S
C681 N683 1.314 . S
C681 H722 0.930 . S
C682 C680 1.358 . S
C682 N683 1.279 . S
C682 H723 0.930 . S
N683 C681 1.314 . S
N683 C682 1.279 . S
C684 C686 1.353 1_554 S
C684 N687 1.314 . S
C684 H690 0.930 . S
C685 N687 1.279 1_556 S
C685 C688 1.358 . S
C685 H691 0.930 . S
C686 C684 1.353 1_556 S
C686 C689 1.348 . S
C686 H724 0.929 . S
N687 Li642 1.990 . S
N687 C684 1.314 . S
N687 C685 1.279 1_554 S
C688 C685 1.358 . S
C688 C689 1.356 . S
C688 H725 0.930 . S
C689 C686 1.348 . S
C689 C688 1.356 . S
H690 C684 0.930 . S
H691 C685 0.930 . S
C692 N693 1.314 . S
C692 C694 1.353 . S
C692 H698 0.930 . S
N693 Li643 1.990 . S
N693 C692 1.314 . S
N693 C696 1.279 . S
C694 C692 1.353 . S
C694 C697 1.348 . S
C694 H726 0.929 . S
C695 C696 1.358 . S
C695 C697 1.356 . S
C695 H727 0.930 . S
C696 N693 1.279 . S
C696 C695 1.358 . S
C696 H699 0.930 . S
C697 C694 1.348 . S
C697 C695 1.356 . S
H698 C692 0.930 . S
H699 C696 0.930 . S
O700 Li640 1.956 . S
O700 Li641 1.970 . S
O700 Li642 1.961 . S
O700 C644 1.325 . S
O701 Li640 1.970 . S
O701 Li641 1.956 . S
O701 Li643 1.961 . S
O701 C650 1.325 . S
O702 Li640 1.961 . S
O702 Li642 1.956 . S
O702 Li643 1.970 . S
O702 C672 1.325 . S
O703 Li641 1.961 . S
O703 Li642 1.970 . S
O703 Li643 1.956 . S
O703 C678 1.325 . S
H704 C646 0.929 . S
H705 C647 0.930 . S
H706 C648 0.930 . S
H707 C649 0.930 . S
H708 C651 0.930 . S
H709 C653 0.929 . S
H710 C654 0.930 . S
H711 C655 0.930 . S
H712 C658 0.930 . S
H713 C661 0.929 . S
H714 C666 0.929 . S
H715 C667 0.930 . S
H716 C674 0.929 . S
H717 C675 0.930 . S
H718 C676 0.930 . S
H719 C677 0.930 . S
H720 C679 0.929 . S
H721 C680 0.930 . S
H722 C681 0.930 . S
H723 C682 0.930 . S
H724 C686 0.929 . S
H725 C688 0.930 . S
H726 C694 0.929 . S
H727 C695 0.930 . S
Li728 N745 1.990 . S
Li728 O788 1.956 . S
Li728 O789 1.970 . S
Li728 O790 1.961 . S
Li729 N753 1.990 . S
Li729 O788 1.970 . S
Li729 O789 1.956 . S
Li729 O791 1.961 . S
Li730 N775 1.990 . S
Li730 O788 1.961 . S
Li730 O790 1.956 . S
Li730 O791 1.970 . S
Li731 N781 1.990 . S
Li731 O789 1.961 . S
Li731 O790 1.970 . S
Li731 O791 1.956 . S
C732 C734 1.348 . S
C732 C735 1.356 . S
C732 O788 1.325 . S
N733 C736 1.314 . S
N733 C737 1.279 . S
C734 C732 1.348 . S
C734 C736 1.353 . S
C734 H792 0.929 . S
C735 C732 1.356 . S
C735 C737 1.358 . S
C735 H793 0.930 . S
C736 N733 1.314 . S
C736 C734 1.353 . S
C736 H794 0.930 . S
C737 N733 1.279 . S
C737 C735 1.358 . S
C737 H795 0.930 . S
C738 C741 1.348 . S
C738 C742 1.356 . S
C738 O789 1.325 . S
C739 N740 1.279 . S
C739 C742 1.358 . S
C739 H796 0.930 . S
N740 C739 1.279 . S
N740 C743 1.314 . S
C741 C738 1.348 . S
C741 C743 1.353 . S
C741 H797 0.929 . S
C742 C738 1.356 . S
C742 C739 1.358 . S
C742 H798 0.930 . S
C743 N740 1.314 . S
C743 C741 1.353 . S
C743 H799 0.930 . S
C744 N745 1.314 . S
C744 C749 1.353 . S
C744 H750 0.930 . S
N745 Li728 1.990 . S
N745 C744 1.314 . S
N745 C747 1.279 . S
C746 C747 1.358 . S
C746 C748 1.356 . S
C746 H800 0.930 . S
C747 N745 1.279 . S
C747 C746 1.358 . S
C747 H751 0.930 . S
C748 C746 1.356 . S
C748 C749 1.348 . S
C749 C744 1.353 . S
C749 C748 1.348 . S
C749 H801 0.929 . S
H750 C744 0.930 . S
H751 C747 0.930 . S
C752 N753 1.314 . S
C752 C754 1.353 . S
C752 H758 0.930 . S
N753 Li729 1.990 . S
N753 C752 1.314 . S
N753 C756 1.279 . S
C754 C752 1.353 . S
C754 C757 1.348 . S
C754 H802 0.929 . S
C755 C756 1.358 . S
C755 C757 1.356 . S
C755 H803 0.930 . S
C756 N753 1.279 . S
C756 C755 1.358 . S
C756 H759 0.930 . S
C757 C754 1.348 . S
C757 C755 1.356 . S
H758 C752 0.930 . S
H759 C756 0.930 . S
C760 C762 1.348 . S
C760 C763 1.356 . S
C760 O790 1.325 . S
N761 C764 1.314 . S
N761 C765 1.279 . S
C762 C760 1.348 . S
C762 C764 1.353 . S
C762 H804 0.929 . S
C763 C760 1.356 . S
C763 C765 1.358 . S
C763 H805 0.930 . S
C764 N761 1.314 . S
C764 C762 1.353 . S
C764 H806 0.930 . S
C765 N761 1.279 . S
C765 C763 1.358 . S
C765 H807 0.930 . S
C766 C767 1.348 . S
C766 C768 1.356 . S
C766 O791 1.325 . S
C767 C766 1.348 . S
C767 C769 1.353 . S
C767 H808 0.929 . S
C768 C766 1.356 . S
C768 C770 1.358 . S
C768 H809 0.930 . S
C769 C767 1.353 . S
C769 N771 1.314 . S
C769 H810 0.930 . S
C770 C768 1.358 . S
C770 N771 1.279 . S
C770 H811 0.930 . S
N771 C769 1.314 . S
N771 C770 1.279 . S
C772 C774 1.353 . S
C772 N775 1.314 . S
C772 H778 0.930 . S
C773 N775 1.279 . S
C773 C776 1.358 . S
C773 H779 0.930 . S
C774 C772 1.353 . S
C774 C777 1.348 . S
C774 H812 0.929 . S
N775 Li730 1.990 . S
N775 C772 1.314 . S
N775 C773 1.279 . S
C776 C773 1.358 . S
C776 C777 1.356 . S
C776 H813 0.930 . S
C777 C774 1.348 . S
C777 C776 1.356 . S
H778 C772 0.930 . S
H779 C773 0.930 . S
C780 N781 1.314 . S
C780 C782 1.353 . S
C780 H786 0.930 . S
N781 Li731 1.990 . S
N781 C780 1.314 . S
N781 C784 1.279 . S
C782 C780 1.353 . S
C782 C785 1.348 . S
C782 H814 0.929 . S
C783 C784 1.358 . S
C783 C785 1.356 . S
C783 H815 0.930 . S
C784 N781 1.279 . S
C784 C783 1.358 . S
C784 H787 0.930 . S
C785 C782 1.348 . S
C785 C783 1.356 . S
H786 C780 0.930 . S
H787 C784 0.930 . S
O788 Li728 1.956 . S
O788 Li729 1.970 . S
O788 Li730 1.961 . S
O788 C732 1.325 . S
O789 Li728 1.970 . S
O789 Li729 1.956 . S
O789 Li731 1.961 . S
O789 C738 1.325 . S
O790 Li728 1.961 . S
O790 Li730 1.956 . S
O790 Li731 1.970 . S
O790 C760 1.325 . S
O791 Li729 1.961 . S
O791 Li730 1.970 . S
O791 Li731 1.956 . S
O791 C766 1.325 . S
H792 C734 0.929 . S
H793 C735 0.930 . S
H794 C736 0.930 . S
H795 C737 0.930 . S
H796 C739 0.930 . S
H797 C741 0.929 . S
H798 C742 0.930 . S
H799 C743 0.930 . S
H800 C746 0.930 . S
H801 C749 0.929 . S
H802 C754 0.929 . S
H803 C755 0.930 . S
H804 C762 0.929 . S
H805 C763 0.930 . S
H806 C764 0.930 . S
H807 C765 0.930 . S
H808 C767 0.929 . S
H809 C768 0.930 . S
H810 C769 0.930 . S
H811 C770 0.930 . S
H812 C774 0.929 . S
H813 C776 0.930 . S
H814 C782 0.929 . S
H815 C783 0.930 . S
C757 C45 2.640 . S
C84 C317 2.598 . S
C126 C405 2.435 . S
C189 C484 2.640 . S
C581 C228 2.598 . S
C270 C660 2.435 . S
C69 C425 2.524 . S
C141 C521 2.641 . S
C174 C601 2.434 . S
C697 C213 2.524 . S
C777 C285 2.641 . S
C337 C30 2.434 . S
C36 C433 1.690 . S
C93 C513 1.735 . S
C609 C117 1.656 . S
C180 C689 1.690 . S
C785 C237 1.735 . S
C345 C261 1.656 . S
C748 C78 1.642 . S
C132 C308 1.690 . S
C396 C165 1.656 . S
C222 C493 1.641 . S
C276 C572 1.690 . S
C21 C669 1.656 . S
