# Generated by pormake.
# Topology dag, (6,3)-cn, num edge types: 1
# Building blocks:
#     Node 0, Type 0, BuildingBlock: OJICUG_clean_sbu_0, # of connection points: 6
#     Node 1, Type 0, BuildingBlock: OJICUG_clean_sbu_0, # of connection points: 6
#     Node 2, Type 0, BuildingBlock: OJICUG_clean_sbu_0, # of connection points: 6
#     Node 3, Type 0, BuildingBlock: OJICUG_clean_sbu_0, # of connection points: 6
#     Node 4, Type 1, BuildingBlock: PAMTOO_clean_linker_0, # of connection points: 3
#     Node 5, Type 1, BuildingBlock: PAMTOO_clean_linker_0, # of connection points: 3
#     Node 6, Type 1, BuildingBlock: PAMTOO_clean_linker_0, # of connection points: 3
#     Node 7, Type 1, BuildingBlock: PAMTOO_clean_linker_0, # of connection points: 3
#     Node 8, Type 1, BuildingBlock: PAMTOO_clean_linker_0, # of connection points: 3
#     Node 9, Type 1, BuildingBlock: PAMTOO_clean_linker_0, # of connection points: 3
#     Node 10, Type 1, BuildingBlock: PAMTOO_clean_linker_0, # of connection points: 3
#     Node 11, Type 1, BuildingBlock: PAMTOO_clean_linker_0, # of connection points: 3
#     Edge 12, Type (0, 1), BuildingBlock: XIVTED_clean_linker_0, # of connection points: 2
#     Edge 13, Type (0, 1), BuildingBlock: XIVTED_clean_linker_0, # of connection points: 2
#     Edge 14, Type (0, 1), BuildingBlock: XIVTED_clean_linker_0, # of connection points: 2
#     Edge 15, Type (0, 1), BuildingBlock: XIVTED_clean_linker_0, # of connection points: 2
#     Edge 16, Type (0, 1), BuildingBlock: XIVTED_clean_linker_0, # of connection points: 2
#     Edge 17, Type (0, 1), BuildingBlock: XIVTED_clean_linker_0, # of connection points: 2
#     Edge 18, Type (0, 1), BuildingBlock: XIVTED_clean_linker_0, # of connection points: 2
#     Edge 19, Type (0, 1), BuildingBlock: XIVTED_clean_linker_0, # of connection points: 2
#     Edge 20, Type (0, 1), BuildingBlock: XIVTED_clean_linker_0, # of connection points: 2
#     Edge 21, Type (0, 1), BuildingBlock: XIVTED_clean_linker_0, # of connection points: 2
#     Edge 22, Type (0, 1), BuildingBlock: XIVTED_clean_linker_0, # of connection points: 2
#     Edge 23, Type (0, 1), BuildingBlock: XIVTED_clean_linker_0, # of connection points: 2
#     Edge 24, Type (0, 1), BuildingBlock: XIVTED_clean_linker_0, # of connection points: 2
#     Edge 25, Type (0, 1), BuildingBlock: XIVTED_clean_linker_0, # of connection points: 2
#     Edge 26, Type (0, 1), BuildingBlock: XIVTED_clean_linker_0, # of connection points: 2
#     Edge 27, Type (0, 1), BuildingBlock: XIVTED_clean_linker_0, # of connection points: 2
#     Edge 28, Type (0, 1), BuildingBlock: XIVTED_clean_linker_0, # of connection points: 2
#     Edge 29, Type (0, 1), BuildingBlock: XIVTED_clean_linker_0, # of connection points: 2
#     Edge 30, Type (0, 1), BuildingBlock: XIVTED_clean_linker_0, # of connection points: 2
#     Edge 31, Type (0, 1), BuildingBlock: XIVTED_clean_linker_0, # of connection points: 2
#     Edge 32, Type (0, 1), BuildingBlock: XIVTED_clean_linker_0, # of connection points: 2
#     Edge 33, Type (0, 1), BuildingBlock: XIVTED_clean_linker_0, # of connection points: 2
#     Edge 34, Type (0, 1), BuildingBlock: XIVTED_clean_linker_0, # of connection points: 2
#     Edge 35, Type (0, 1), BuildingBlock: XIVTED_clean_linker_0, # of connection points: 2
# Relax obj value: 0.096
# Max RMSD: 0.116
# Mean RMSD: 0.093
data_MOF--net-dag--node1-OJICUG_clean_sbu_0--node2-PAMTOO_clean_linker_0--edge1-XIVTED_clean_linker_0
_symmetry_space_group_name_H-M    P1
_symmetry_Int_Tables_number       1
_symmetry_cell_setting            triclinic
loop_
_symmetry_equiv_pos_as_xyz
'x, y, z'
_cell_length_a     37.521702
_cell_length_b     38.549172
_cell_length_c     39.336187
_cell_angle_alpha  89.869599
_cell_angle_beta   94.880211
_cell_angle_gamma 89.985123
loop_
_atom_site_label
_atom_site_type_symbol
_atom_site_fract_x
_atom_site_fract_y
_atom_site_fract_z
_atom_type_partial_charge
Sc0 Sc 0.13171 0.89174 0.99537 0.0
Sc1 Sc 0.14239 0.80343 0.97804 0.0
Sc2 Sc 0.21781 0.8552 0.0061 0.0
O3 O 0.16407 0.85003 0.99318 0.0
C4 C 0.20033 0.92673 0.96731 0.0
C5 C 0.09799 0.85578 0.92737 0.0
C6 C 0.2143 0.80706 0.93989 0.0
C7 C 0.08386 0.83175 0.02464 0.0
C8 C 0.18397 0.89917 0.06364 0.0
C9 C 0.20222 0.77987 0.03611 0.0
O10 O 0.16701 0.9251 0.97039 0.0
O11 O 0.10874 0.82543 0.93585 0.0
O12 O 0.23031 0.82901 0.96001 0.0
O13 O 0.09242 0.86325 0.02047 0.0
O14 O 0.20984 0.88172 0.05347 0.0
O15 O 0.173 0.77529 0.01787 0.0
O16 O 0.1551 0.90505 0.04524 0.0
O17 O 0.09952 0.80667 0.01118 0.0
O18 O 0.22102 0.80714 0.03434 0.0
O19 O 0.10494 0.8822 0.94597 0.0
O20 O 0.22244 0.90415 0.97973 0.0
O21 O 0.18309 0.79558 0.94369 0.0
Sc22 Sc 0.70127 0.65391 0.48954 0.0
Sc23 Sc 0.62989 0.71101 0.46299 0.0
Sc24 Sc 0.6126 0.63277 0.50349 0.0
O25 O 0.64801 0.66585 0.48523 0.0
C26 C 0.66524 0.58113 0.4691 0.0
C27 C 0.69195 0.6894 0.4162 0.0
C28 C 0.56969 0.65928 0.43412 0.0
C29 C 0.69947 0.73441 0.50955 0.0
C30 C 0.67815 0.62651 0.56063 0.0
C31 C 0.5792 0.70402 0.52387 0.0
O32 O 0.69231 0.60104 0.47291 0.0
O33 O 0.66537 0.70759 0.42321 0.0
O34 O 0.57457 0.63973 0.46016 0.0
O35 O 0.71526 0.70534 0.50743 0.0
O36 O 0.6457 0.6227 0.54942 0.0
O37 O 0.59075 0.7204 0.49901 0.0
O38 O 0.702 0.63794 0.54244 0.0
O39 O 0.66809 0.7403 0.49567 0.0
O40 O 0.58741 0.67271 0.53086 0.0
O41 O 0.70728 0.66781 0.43711 0.0
O42 O 0.63444 0.58949 0.47764 0.0
O43 O 0.58956 0.68527 0.42917 0.0
Sc44 Sc 0.85402 0.19742 0.06055 0.0
Sc45 Sc 0.77996 0.14403 0.03218 0.0
Sc46 Sc 0.86625 0.10862 0.04641 0.0
O47 O 0.83332 0.15009 0.04647 0.0
C48 C 0.91467 0.16791 0.01695 0.0
C49 C 0.79671 0.21756 -0.00105 0.0
C50 C 0.81606 0.09842 0.97724 0.0
C51 C 0.7804 0.195 0.09608 0.0
C52 C 0.89743 0.14715 0.11406 0.0
C53 C 0.79703 0.07415 0.07391 0.0
O54 O 0.89851 0.19323 0.02944 0.0
O55 O 0.77772 0.19057 0.00169 0.0
O56 O 0.84455 0.09343 0.99648 0.0
O57 O 0.81167 0.20667 0.09287 0.0
O58 O 0.8916 0.12021 0.09593 0.0
O59 O 0.77497 0.09618 0.06034 0.0
O60 O 0.8862 0.17713 0.10465 0.0
O61 O 0.7655 0.17198 0.07649 0.0
O62 O 0.83046 0.07585 0.07144 0.0
O63 O 0.82506 0.22336 0.01815 0.0
O64 O 0.90601 0.13651 0.02147 0.0
O65 O 0.78963 0.11578 0.9863 0.0
Sc66 Sc 0.37946 0.37025 0.53657 0.0
Sc67 Sc 0.29051 0.34589 0.54607 0.0
Sc68 Sc 0.36263 0.28997 0.5741 0.0
O69 O 0.34414 0.33533 0.55223 0.0
C70 C 0.41595 0.29948 0.51624 0.0
C71 C 0.3171 0.37362 0.47604 0.0
C72 C 0.29415 0.26529 0.52656 0.0
C73 C 0.32238 0.41998 0.56744 0.0
C74 C 0.4184 0.34482 0.60775 0.0
C75 C 0.29899 0.31024 0.61958 0.0
O76 O 0.40972 0.33165 0.51218 0.0
O77 O 0.29235 0.36269 0.49355 0.0
O78 O 0.32501 0.2598 0.54171 0.0
O79 O 0.35358 0.41298 0.55928 0.0
O80 O 0.40236 0.31577 0.60845 0.0
O81 O 0.28288 0.3308 0.59804 0.0
O82 O 0.41303 0.3664 0.58338 0.0
O83 O 0.29642 0.39878 0.56372 0.0
O84 O 0.32678 0.29339 0.61343 0.0
O85 O 0.34925 0.37756 0.48836 0.0
O86 O 0.40167 0.28102 0.53809 0.0
O87 O 0.27835 0.29446 0.52715 0.0
H88 H 0.10071 0.04585 0.23195 0.0
H89 H 0.11471 0.12198 0.31172 0.0
H90 H 0.19932 0.04985 0.29622 0.0
H91 H 0.19221 0.06239 0.3688 0.0
C92 C 0.17768 0.08756 0.36672 0.0
O93 O 0.17891 0.10078 0.33421 0.0
H94 H 0.14947 0.08268 0.37223 0.0
C95 C 0.11688 0.05709 0.25332 0.0
C96 C 0.15145 0.04424 0.26202 0.0
C97 C 0.10343 0.08522 0.2708 0.0
C98 C 0.12479 0.10039 0.29776 0.0
C99 C 0.15908 0.08716 0.30725 0.0
C100 C 0.17266 0.0596 0.28897 0.0
H101 H 0.35409 0.67116 0.59852 0.0
H102 H 0.29061 0.66697 0.68446 0.0
H103 H 0.35846 0.75452 0.6714 0.0
H104 H 0.36304 0.72917 0.73849 0.0
C105 C 0.33597 0.71774 0.73998 0.0
O106 O 0.31461 0.72558 0.71069 0.0
H107 H 0.33906 0.68911 0.74276 0.0
C108 C 0.34384 0.68373 0.62033 0.0
C109 C 0.35853 0.71551 0.63203 0.0
C110 C 0.31938 0.66593 0.63912 0.0
C111 C 0.30845 0.68091 0.669 0.0
C112 C 0.32225 0.71301 0.68021 0.0
C113 C 0.34681 0.73044 0.66157 0.0
H114 H 0.84175 0.85465 0.1114 0.0
H115 H 0.76773 0.8153 0.17963 0.0
H116 H 0.86287 0.75761 0.16361 0.0
H117 H 0.80222 0.70946 0.17873 0.0
C118 C 0.78487 0.73015 0.18807 0.0
O119 O 0.80511 0.75927 0.19612 0.0
H120 H 0.76336 0.73594 0.16754 0.0
C121 C 0.83356 0.83421 0.12807 0.0
C122 C 0.85615 0.80567 0.13537 0.0
C123 C 0.80164 0.83787 0.14375 0.0
C124 C 0.79171 0.81221 0.1664 0.0
C125 C 0.81343 0.78285 0.17273 0.0
C126 C 0.84551 0.77956 0.1572 0.0
H127 H 0.62309 0.46831 0.72111 0.0
H128 H 0.64535 0.38272 0.79024 0.0
H129 H 0.72406 0.46242 0.78126 0.0
H130 H 0.75812 0.39398 0.79506 0.0
C131 C 0.73398 0.3803 0.80279 0.0
O132 O 0.70933 0.40436 0.81186 0.0
H133 H 0.72284 0.36457 0.78063 0.0
C134 C 0.64048 0.45546 0.74068 0.0
C135 C 0.67441 0.46951 0.74996 0.0
C136 C 0.62958 0.42409 0.75479 0.0
C137 C 0.65313 0.40691 0.7789 0.0
C138 C 0.68699 0.42091 0.78851 0.0
C139 C 0.6977 0.45202 0.77393 0.0
H140 H 0.63604 0.32958 0.43464 0.0
H141 H 0.63105 0.24707 0.36082 0.0
H142 H 0.69642 0.3363 0.34677 0.0
H143 H 0.64834 0.31335 0.2891 0.0
C144 C 0.65211 0.28478 0.29164 0.0
O145 O 0.67366 0.27711 0.32085 0.0
H146 H 0.62532 0.27271 0.29304 0.0
C147 C 0.6458 0.3175 0.41235 0.0
C148 C 0.66909 0.33608 0.39297 0.0
C149 C 0.63148 0.28556 0.40072 0.0
C150 C 0.64246 0.27128 0.37058 0.0
C151 C 0.66613 0.28942 0.35146 0.0
C152 C 0.67942 0.32175 0.36259 0.0
H153 H 0.15886 0.14668 0.93162 0.0
H154 H 0.13419 0.24159 0.87681 0.0
H155 H 0.22983 0.18508 0.86003 0.0
H156 H 0.2319 0.26599 0.86989 0.0
C157 C 0.20977 0.2702 0.84956 0.0
O158 O 0.19089 0.24 0.84286 0.0
H159 H 0.19162 0.29039 0.85858 0.0
C160 C 0.1662 0.16678 0.91417 0.0
C161 C 0.1976 0.16308 0.89764 0.0
C162 C 0.14283 0.19464 0.90651 0.0
C163 C 0.15222 0.22022 0.88354 0.0
C164 C 0.18385 0.21703 0.86728 0.0
C165 C 0.20633 0.18824 0.87393 0.0
H166 H 0.36218 0.53348 0.32233 0.0
H167 H 0.34488 0.61606 0.24894 0.0
H168 H 0.276 0.52663 0.24335 0.0
H169 H 0.28679 0.55565 0.17307 0.0
C170 C 0.29831 0.58085 0.18228 0.0
O171 O 0.28987 0.58647 0.21525 0.0
H172 H 0.32785 0.57949 0.18111 0.0
C173 C 0.34745 0.54439 0.29987 0.0
C174 C 0.31843 0.52603 0.28407 0.0
C175 C 0.35703 0.57705 0.28779 0.0
C176 C 0.33798 0.59081 0.2586 0.0
C177 C 0.30894 0.57248 0.24252 0.0
C178 C 0.29885 0.54032 0.2555 0.0
H179 H 0.89776 0.95747 0.80431 0.0
H180 H 0.88209 0.87916 0.72681 0.0
H181 H 0.79891 0.9534 0.74051 0.0
H182 H 0.77049 0.8857 0.7223 0.0
C183 C 0.79355 0.87446 0.7101 0.0
O184 O 0.81779 0.90029 0.70459 0.0
H185 H 0.80612 0.85439 0.72766 0.0
C186 C 0.88148 0.94611 0.78308 0.0
C187 C 0.84709 0.95929 0.77421 0.0
C188 C 0.89442 0.91723 0.76635 0.0
C189 C 0.87261 0.90155 0.73999 0.0
C190 C 0.83839 0.91495 0.73046 0.0
C191 C 0.82555 0.94358 0.74772 0.0
H192 H 0.13277 0.89402 0.10734 0.0
H193 H 0.21396 0.04079 0.23059 0.0
H194 H 0.239 0.93412 0.09959 0.0
H195 H 0.11874 0.98266 0.24681 0.0
H196 H 0.22838 0.99823 0.18735 0.0
H197 H 0.13122 0.92206 0.1625 0.0
C198 C 0.15598 0.90852 0.11759 0.0
C199 C 0.18591 0.91213 0.09892 0.0
C200 C 0.20476 0.99441 0.20091 0.0
C201 C 0.18415 0.94509 0.16188 0.0
C202 C 0.19664 0.01857 0.22566 0.0
C203 C 0.16483 0.01542 0.24178 0.0
C204 C 0.18077 0.96716 0.19234 0.0
C205 C 0.14319 0.98632 0.23447 0.0
C206 C 0.15517 0.9245 0.14915 0.0
C207 C 0.21544 0.93086 0.11336 0.0
N208 N 0.15129 0.96363 0.20999 0.0
N209 N 0.21358 0.94731 0.14382 0.0
H210 H 0.52605 0.74748 0.49869 0.0
H211 H 0.4219 0.73277 0.66637 0.0
H212 H 0.56791 0.69581 0.591 0.0
H213 H 0.36901 0.72732 0.56476 0.0
H214 H 0.47881 0.74258 0.64189 0.0
H215 H 0.47216 0.76284 0.52662 0.0
C216 C 0.52438 0.74035 0.52517 0.0
C217 C 0.55117 0.72008 0.54258 0.0
C218 C 0.45456 0.74011 0.62504 0.0
C219 C 0.49018 0.73773 0.57441 0.0
C220 C 0.42208 0.73477 0.63891 0.0
C221 C 0.39082 0.72901 0.61746 0.0
C222 C 0.45567 0.74003 0.58953 0.0
C223 C 0.39265 0.73134 0.58207 0.0
C224 C 0.49362 0.74892 0.54091 0.0
C225 C 0.54762 0.71117 0.57668 0.0
N226 N 0.4247 0.73637 0.56912 0.0
N227 N 0.51749 0.71988 0.59146 0.0
H228 H 0.82345 0.04744 0.1347 0.0
H229 H 0.76473 0.86275 0.08625 0.0
H230 H 0.74182 0.03111 0.05245 0.0
H231 H 0.79772 0.88891 0.19056 0.0
H232 H 0.75031 0.92389 0.0746 0.0
H233 H 0.81017 0.99046 0.15787 0.0
C234 C 0.80212 0.03207 0.12202 0.0
C235 C 0.78378 0.04371 0.09162 0.0
C236 C 0.75951 0.91614 0.10034 0.0
C237 C 0.76916 0.97819 0.11728 0.0
C238 C 0.76757 0.88128 0.10697 0.0
C239 C 0.78225 0.87105 0.13938 0.0
C240 C 0.76739 0.94087 0.12605 0.0
C241 C 0.78617 0.89593 0.16531 0.0
C242 C 0.79445 -0.00038 0.13525 0.0
C243 C 0.75644 0.02293 0.07602 0.0
N244 N 0.77966 0.92992 0.15789 0.0
N245 N 0.75054 0.99068 0.08854 0.0
H246 H 0.43415 0.40965 0.63114 0.0
H247 H 0.61385 0.35628 0.7378 0.0
H248 H 0.46268 0.3023 0.6488 0.0
H249 H 0.5654 0.45744 0.74305 0.0
H250 H 0.5582 0.3345 0.70814 0.0
H251 H 0.48151 0.42674 0.67394 0.0
C252 C 0.45032 0.38963 0.64425 0.0
C253 C 0.44474 0.35453 0.6362 0.0
C254 C 0.55961 0.36131 0.7163 0.0
C255 C 0.49945 0.37395 0.68515 0.0
C256 C 0.59129 0.37372 0.73337 0.0
C257 C 0.59448 0.40889 0.74239 0.0
C258 C 0.53113 0.38433 0.70803 0.0
C259 C 0.56444 0.43035 0.73583 0.0
C260 C 0.47728 0.39938 0.66884 0.0
C261 C 0.46619 0.32966 0.65427 0.0
N262 N 0.53428 0.41786 0.71866 0.0
N263 N 0.49306 0.33987 0.67758 0.0
H264 H 0.61823 0.54613 0.42529 0.0
H265 H 0.70264 0.36263 0.45178 0.0
H266 H 0.72211 0.5371 0.48063 0.0
H267 H 0.65115 0.39237 0.35392 0.0
H268 H 0.70634 0.4243 0.46804 0.0
H269 H 0.62467 0.48704 0.4037 0.0
C270 C 0.64242 0.53168 0.43276 0.0
C271 C 0.66972 0.54634 0.45466 0.0
C272 C 0.69487 0.41723 0.44281 0.0
C273 C 0.67689 0.47889 0.43073 0.0
C274 C 0.69278 0.38225 0.43358 0.0
C275 C 0.67687 0.37272 0.40143 0.0
C276 C 0.67984 0.44243 0.42009 0.0
C277 C 0.66399 0.39886 0.37879 0.0
C278 C 0.64615 0.49817 0.42033 0.0
C279 C 0.7006 0.52666 0.46358 0.0
N280 N 0.66515 0.43256 0.38877 0.0
N281 N 0.70316 0.49359 0.452 0.0
H282 H 0.94435 0.12348 0.97373 0.0
H283 H 0.10768 0.24757 0.93677 0.0
H284 H 0.95457 0.22769 0.01346 0.0
H285 H 0.09631 0.14086 0.90492 0.0
H286 H 0.04905 0.24396 0.96037 0.0
H287 H -0.0028 0.13261 0.94342 0.0
C288 C 0.95773 0.14837 0.97608 0.0
C289 C 0.94528 0.17469 0.99659 0.0
C290 C 0.05943 0.22144 0.94809 0.0
C291 C 0.00627 0.18535 0.96184 0.0
C292 C 0.09273 0.22353 0.93462 0.0
C293 C 0.107 0.19428 0.91951 0.0
C294 C 0.04039 0.18999 0.94601 0.0
C295 C 0.08664 0.16377 0.91711 0.0
C296 C 0.98796 0.15361 0.95866 0.0
C297 C 0.9634 0.20662 0.99808 0.0
N298 N 0.05453 0.16241 0.93033 0.0
N299 N 0.99328 0.21098 0.98117 0.0
H300 H 0.25484 0.40237 0.44654 0.0
H301 H 0.35674 0.46636 0.28866 0.0
H302 H 0.36032 0.3698 0.42423 0.0
H303 H 0.25854 0.51196 0.31637 0.0
H304 H 0.34883 0.41857 0.32822 0.0
H305 H 0.24697 0.43062 0.39031 0.0
C306 C 0.27594 0.40043 0.42947 0.0
C307 C 0.30854 0.38435 0.44021 0.0
C308 C 0.32849 0.43853 0.32517 0.0
C309 C 0.29981 0.41644 0.37622 0.0
C310 C 0.33291 0.4656 0.30239 0.0
C311 C 0.3083 0.49297 0.29952 0.0
C312 C 0.29968 0.4393 0.34579 0.0
C313 C 0.27799 0.49113 0.31795 0.0
C314 C 0.27151 0.41665 0.3975 0.0
C315 C 0.33503 0.38254 0.41719 0.0
N316 N 0.27485 0.46508 0.34092 0.0
N317 N 0.33024 0.39873 0.3865 0.0
H318 H 0.09013 0.91465 0.88917 0.0
H319 H 0.91181 0.85039 0.78523 0.0
H320 H 0.05298 0.8089 0.89295 0.0
H321 H 0.95733 0.9523 0.77618 0.0
H322 H 0.96733 0.83135 0.81749 0.0
H323 H 0.04614 0.92585 0.84134 0.0
C324 C 0.07287 0.89365 0.87968 0.0
C325 C 0.07486 0.86093 0.89539 0.0
C326 C 0.96544 0.85767 0.80783 0.0
C327 C 0.02387 0.8737 0.84068 0.0
C328 C 0.93388 0.86844 0.78923 0.0
C329 C 0.92995 0.90306 0.77848 0.0
C330 C 0.99303 0.8818 0.81568 0.0
C331 C 0.95917 0.92551 0.7845 0.0
C332 C 0.04776 0.90003 0.85225 0.0
C333 C 0.0522 0.83456 0.88167 0.0
N334 N 0.98923 0.91464 0.80307 0.0
N335 N 0.02716 0.84167 0.85544 0.0
H336 H 0.87074 0.09796 0.93699 0.0
H337 H 0.78458 0.96259 0.80552 0.0
H338 H 0.75991 0.06868 0.93785 0.0
H339 H 0.8802 0.02055 0.79032 0.0
H340 H 0.77127 0.00353 0.85055 0.0
H341 H 0.87226 0.07179 0.88098 0.0
C342 C 0.84662 0.08606 0.92519 0.0
C343 C 0.81529 0.08501 0.94214 0.0
C344 C 0.79468 0.00774 0.83677 0.0
C345 C 0.81684 0.05456 0.87795 0.0
C346 C 0.80216 0.98453 0.81098 0.0
C347 C 0.83383 0.98798 0.79468 0.0
C348 C 0.81926 0.03422 0.84627 0.0
C349 C 0.85584 0.01666 0.80276 0.0
C350 C 0.84739 0.07131 0.89307 0.0
C351 C 0.78461 0.06981 0.92554 0.0
N352 N 0.84846 0.03831 0.82834 0.0
N353 N 0.7863 0.05451 0.8945 0.0
H354 H 0.46825 0.25399 0.53907 0.0
H355 H 0.56714 0.26865 0.36822 0.0
H356 H 0.42687 0.31069 0.44963 0.0
H357 H 0.62386 0.27216 0.46826 0.0
H358 H 0.51119 0.25971 0.39471 0.0
H359 H 0.52072 0.23753 0.50925 0.0
C360 C 0.46976 0.26209 0.51284 0.0
C361 C 0.44357 0.28395 0.49674 0.0
C362 C 0.53606 0.26147 0.41076 0.0
C363 C 0.50265 0.2649 0.46272 0.0
C364 C 0.56798 0.26629 0.39573 0.0
C365 C 0.60002 0.27141 0.41619 0.0
C366 C 0.53633 0.26139 0.4464 0.0
C367 C 0.59957 0.26862 0.45171 0.0
C368 C 0.49965 0.25284 0.49602 0.0
C369 C 0.44677 0.29408 0.46292 0.0
N370 N 0.56804 0.26416 0.4658 0.0
N371 N 0.47593 0.28457 0.44702 0.0
H372 H 0.17312 0.95442 0.90725 0.0
H373 H 0.23471 0.13817 0.9551 0.0
H374 H 0.25611 0.96923 0.98858 0.0
H375 H 0.20168 0.11215 0.85076 0.0
H376 H 0.24842 0.0769 0.96683 0.0
H377 H 0.18699 0.01128 0.88413 0.0
C378 C 0.19482 0.96946 0.91977 0.0
C379 C 0.21344 0.9574 0.94986 0.0
C380 C 0.2394 0.08472 0.94107 0.0
C381 C 0.22878 0.02277 0.92423 0.0
C382 C 0.23177 0.11965 0.93438 0.0
C383 C 0.21719 0.12998 0.90195 0.0
C384 C 0.23121 0.06002 0.91539 0.0
C385 C 0.21315 0.10508 0.87602 0.0
C386 C 0.20283 0.00182 0.90654 0.0
C387 C 0.24126 0.97774 0.96524 0.0
N388 N 0.2192 0.07104 0.88351 0.0
N389 N 0.24753 0.00994 0.95275 0.0
H390 H 0.55645 0.67767 0.36595 0.0
H391 H 0.36238 0.59022 0.35552 0.0
H392 H 0.51 0.62476 0.44839 0.0
H393 H 0.41635 0.60891 0.26474 0.0
H394 H 0.41283 0.61542 0.38975 0.0
H395 H 0.5025 0.66331 0.32817 0.0
C396 C 0.53497 0.66322 0.3761 0.0
C397 C 0.5379 0.65208 0.41027 0.0
C398 C 0.41373 0.61423 0.36233 0.0
C399 C 0.47642 0.63629 0.36773 0.0
C400 C 0.38491 0.59988 0.34281 0.0
C401 C 0.38559 0.59691 0.30739 0.0
C402 C 0.44376 0.62567 0.34648 0.0
C403 C 0.41504 0.61057 0.29207 0.0
C404 C 0.50434 0.65503 0.35459 0.0
C405 C 0.50929 0.6335 0.42216 0.0
N406 N 0.44333 0.62405 0.3118 0.0
N407 N 0.47991 0.62632 0.40101 0.0
H408 H 0.36518 0.45393 0.61535 0.0
H409 H 0.28989 0.63904 0.57866 0.0
H410 H 0.26677 0.46458 0.55112 0.0
H411 H 0.3311 0.60994 0.68038 0.0
H412 H 0.28468 0.57713 0.56361 0.0
H413 H 0.35797 0.51335 0.63568 0.0
C414 C 0.34192 0.46879 0.60577 0.0
C415 C 0.31645 0.45455 0.58168 0.0
C416 C 0.29417 0.58444 0.58937 0.0
C417 C 0.30854 0.52243 0.60408 0.0
C418 C 0.29718 0.61956 0.5979 0.0
C419 C 0.31073 0.62937 0.63081 0.0
C420 C 0.3059 0.55927 0.61364 0.0
C421 C 0.32018 0.60333 0.65485 0.0
C422 C 0.33775 0.50251 0.61743 0.0
C423 C 0.28678 0.47474 0.56994 0.0
N424 N 0.31823 0.56943 0.64561 0.0
N425 N 0.28391 0.50806 0.58081 0.0
H426 H 0.05628 0.87487 0.07039 0.0
H427 H 0.89022 0.75292 0.10382 0.0
H428 H 0.04308 0.77243 0.02693 0.0
H429 H 0.90429 0.85817 0.1394 0.0
H430 H 0.94906 0.75599 0.08059 0.0
H431 H 0.00381 0.86553 0.10126 0.0
C432 C 0.04235 0.85031 0.06737 0.0
C433 C 0.0538 0.82459 0.04561 0.0
C434 C 0.93925 0.77829 0.09364 0.0
C435 C 0.99325 0.81371 0.08096 0.0
C436 C 0.90582 0.77651 0.10691 0.0
C437 C 0.89225 0.80555 0.12293 0.0
C438 C 0.95911 0.80922 0.09683 0.0
C439 C 0.91344 0.83546 0.12651 0.0
C440 C 0.01234 0.84495 0.0851 0.0
C441 C 0.03502 0.79304 0.04328 0.0
N442 N 0.94565 0.83655 0.11344 0.0
N443 N 0.00535 0.78859 0.06049 0.0
H444 H 0.64075 0.63758 0.61542 0.0
H445 H 0.73447 0.47972 0.71622 0.0
H446 H 0.73676 0.58895 0.58574 0.0
H447 H 0.63881 0.53095 0.74329 0.0
H448 H 0.74453 0.52743 0.67669 0.0
H449 H 0.64867 0.60788 0.67025 0.0
C450 C 0.66396 0.6211 0.62084 0.0
C451 C 0.68789 0.61526 0.596 0.0
C452 C 0.7218 0.52863 0.69186 0.0
C453 C 0.69661 0.5802 0.65831 0.0
C454 C 0.71618 0.50153 0.71452 0.0
C455 C 0.68547 0.50129 0.73252 0.0
C456 C 0.69646 0.55548 0.6873 0.0
C457 C 0.66249 0.52997 0.72939 0.0
C458 C 0.66847 0.60405 0.65212 0.0
C459 C 0.71768 0.59397 0.6043 0.0
N460 N 0.66818 0.55564 0.70685 0.0
N461 N 0.72079 0.5765 0.63455 0.0
H462 H 0.94095 0.19572 0.14786 0.0
H463 H 0.04117 0.04903 0.26318 0.0
H464 H 0.90694 0.08907 0.15323 0.0
H465 H 0.08433 0.15155 0.25164 0.0
H466 H 0.98489 0.06798 0.23322 0.0
H467 H 0.98654 0.18455 0.1952 0.0
C468 C 0.94256 0.1702 0.15946 0.0
C469 C 0.92052 0.14313 0.14625 0.0
C470 C 0.00638 0.0866 0.23762 0.0
C471 C 0.97248 0.13019 0.20016 0.0
C472 C 0.03844 0.07578 0.25483 0.0
C473 C 0.06741 0.09869 0.25948 0.0
C474 C 0.00338 0.12049 0.22446 0.0
C475 C 0.06253 0.13313 0.24845 0.0
C476 C 0.96867 0.1638 0.18635 0.0
C477 C 0.92378 0.11055 0.1622 0.0
N478 N 0.03128 0.14289 0.23086 0.0
N479 N 0.94946 0.10495 0.18802 0.0
H480 H 0.26429 0.77823 0.07847 0.0
H481 H 0.23432 0.58391 0.14303 0.0
H482 H 0.17103 0.7168 0.04695 0.0
H483 H 0.32816 0.64453 0.17299 0.0
H484 H 0.20993 0.63286 0.1086 0.0
H485 H 0.28727 0.73025 0.11448 0.0
C486 C 0.24852 0.75475 0.07919 0.0
C487 C 0.21566 0.75162 0.05947 0.0
C488 C 0.23593 0.63546 0.12255 0.0
C489 C 0.24202 0.69641 0.10069 0.0
C490 C 0.24984 0.60752 0.14204 0.0
C491 C 0.28355 0.61012 0.16013 0.0
C492 C 0.25577 0.66632 0.12146 0.0
C493 C 0.30235 0.64144 0.1588 0.0
C494 C 0.26173 0.72731 0.09975 0.0
C495 C 0.19651 0.72047 0.06158 0.0
N496 N 0.28827 0.66831 0.13968 0.0
N497 N 0.21002 0.69409 0.08172 0.0
H498 H 0.76848 0.73496 0.53861 0.0
H499 H 0.73186 0.88705 0.66904 0.0
H500 H 0.67029 0.79397 0.53377 0.0
H501 H 0.82791 0.8253 0.67501 0.0
H502 H 0.71148 0.85798 0.61547 0.0
H503 H 0.79361 0.77299 0.58385 0.0
C504 C 0.75231 0.7562 0.5467 0.0
C505 C 0.71698 0.76093 0.53256 0.0
C506 C 0.73707 0.85084 0.6284 0.0
C507 C 0.74562 0.80446 0.58484 0.0
C508 C 0.74859 0.86732 0.65896 0.0
C509 C 0.78113 0.85782 0.67668 0.0
C510 C 0.75842 0.82486 0.61544 0.0
C511 C 0.8023 0.83276 0.66232 0.0
C512 C 0.7667 0.77788 0.57267 0.0
C513 C 0.69756 0.78916 0.54397 0.0
N514 N 0.79045 0.81691 0.63268 0.0
N515 N 0.71198 0.80958 0.56974 0.0
H516 H 0.79936 0.24946 0.13826 0.0
H517 H 0.63474 0.2271 0.25273 0.0
H518 H 0.71676 0.17233 0.11806 0.0
H519 H 0.7095 0.31204 0.26296 0.0
H520 H 0.66515 0.20536 0.20429 0.0
H521 H 0.76754 0.27155 0.18503 0.0
C522 C 0.77451 0.23712 0.14361 0.0
C523 C 0.76078 0.2089 0.12414 0.0
C524 C 0.67478 0.22887 0.21697 0.0
C525 C 0.72415 0.23419 0.17789 0.0
C526 C 0.65744 0.24124 0.24451 0.0
C527 C 0.66949 0.27159 0.26132 0.0
C528 C 0.70458 0.24682 0.20656 0.0
C529 C 0.69929 0.28875 0.25025 0.0
C530 C 0.7563 0.24985 0.17033 0.0
C531 C 0.72835 0.19415 0.13231 0.0
N532 N 0.71586 0.27612 0.22353 0.0
N533 N 0.71119 0.20691 0.15866 0.0
H534 H 0.33044 0.27353 0.67344 0.0
H535 H 0.17845 0.31186 0.79881 0.0
H536 H 0.23857 0.33804 0.64454 0.0
H537 H 0.27372 0.25224 0.82634 0.0
H538 H 0.20043 0.32409 0.74297 0.0
H539 H 0.31026 0.26726 0.73001 0.0
C540 C 0.30589 0.28636 0.67888 0.0
C541 C 0.28607 0.30622 0.65393 0.0
C542 C 0.21675 0.30873 0.76138 0.0
C543 C 0.26277 0.29912 0.7193 0.0
C544 C 0.20432 0.30195 0.79322 0.0
C545 C 0.22475 0.28165 0.81724 0.0
C546 C 0.24957 0.29462 0.7535 0.0
C547 C 0.25758 0.26855 0.80865 0.0
C548 C 0.29444 0.28283 0.71139 0.0
C549 C 0.25464 0.32237 0.66286 0.0
N550 N 0.26894 0.27521 0.77746 0.0
N551 N 0.24387 0.31837 0.69483 0.0
H552 H 0.6619 0.72811 0.36297 0.0
H553 H 0.81272 0.68516 0.23753 0.0
H554 H 0.7506 0.6592 0.39046 0.0
H555 H 0.72164 0.75088 0.21107 0.0
H556 H 0.78923 0.67253 0.29258 0.0
H557 H 0.68245 0.73444 0.30642 0.0
C558 C 0.6858 0.71432 0.35721 0.0
C559 C 0.70468 0.69324 0.38175 0.0
C560 C 0.77412 0.68933 0.27456 0.0
C561 C 0.72837 0.7004 0.31654 0.0
C562 C 0.7874 0.69633 0.24316 0.0
C563 C 0.76861 0.71848 0.21967 0.0
C564 C 0.74212 0.70505 0.2826 0.0
C565 C 0.73648 0.73315 0.22834 0.0
C566 C 0.69746 0.71788 0.32474 0.0
C567 C 0.73527 0.67583 0.37246 0.0
N568 N 0.72428 0.72623 0.25914 0.0
N569 N 0.74626 0.67991 0.34061 0.0
H570 H 0.73786 0.21501 0.95259 0.0
H571 H 0.79032 0.38585 0.85177 0.0
H572 H 0.83091 0.27747 0.98215 0.0
H573 H 0.69837 0.32255 0.82198 0.0
H574 H 0.80481 0.34747 0.90081 0.0
H575 H 0.72197 0.2552 0.90583 0.0
C576 C 0.75492 0.23723 0.94939 0.0
C577 C 0.78588 0.24272 0.9714 0.0
C578 C 0.78152 0.34186 0.88351 0.0
C579 C 0.76779 0.28891 0.91762 0.0
C580 C 0.77338 0.36366 0.85554 0.0
C581 C 0.74363 0.35673 0.83257 0.0
C582 C 0.75952 0.31313 0.88865 0.0
C583 C 0.72194 0.32825 0.83887 0.0
C584 C 0.74581 0.26019 0.9226 0.0
C585 C 0.80684 0.27209 0.96588 0.0
N586 N 0.7304 0.30737 0.86624 0.0
N587 N 0.79746 0.29399 0.93949 0.0
H588 H 0.32108 0.20125 0.51152 0.0
H589 H 0.14805 0.14693 0.38955 0.0
H590 H 0.22662 0.26507 0.49394 0.0
H591 H 0.24489 0.08639 0.40066 0.0
H592 H 0.17536 0.18911 0.43039 0.0
H593 H 0.29238 0.15706 0.47405 0.0
C594 C 0.29424 0.20593 0.50002 0.0
C595 C 0.27636 0.23709 0.50586 0.0
C596 C 0.19065 0.16655 0.42406 0.0
C597 C 0.24342 0.18659 0.46276 0.0
C598 C 0.17503 0.14254 0.40084 0.0
C599 C 0.19416 0.1131 0.39221 0.0
C600 C 0.22575 0.16113 0.4386 0.0
C601 C 0.2292 0.10865 0.40702 0.0
C602 C 0.27792 0.1807 0.47852 0.0
C603 C 0.2416 0.2416 0.49015 0.0
N604 N 0.24388 0.13239 0.42958 0.0
N605 N 0.22636 0.21672 0.46929 0.0
H606 H 0.19193 0.75552 0.89548 0.0
H607 H 0.35597 0.77422 0.77973 0.0
H608 H 0.27813 0.82861 0.91726 0.0
H609 H 0.27699 0.69303 0.76785 0.0
H610 H 0.32678 0.79645 0.82874 0.0
H611 H 0.22165 0.7342 0.84716 0.0
C612 C 0.21713 0.76716 0.89014 0.0
C613 C 0.23253 0.79397 0.91058 0.0
C614 C 0.31592 0.77369 0.81552 0.0
C615 C 0.26679 0.76949 0.85499 0.0
C616 C 0.33255 0.76105 0.78765 0.0
C617 C 0.31896 0.73158 0.77024 0.0
C618 C 0.28534 0.75688 0.82568 0.0
C619 C 0.28834 0.71563 0.78099 0.0
C620 C 0.23414 0.75487 0.8625 0.0
C621 C 0.2653 0.80787 0.9023 0.0
N622 N 0.27254 0.72848 0.80807 0.0
N623 N 0.28132 0.7955 0.87507 0.0
loop_
_geom_bond_atom_site_label_1
_geom_bond_atom_site_label_2
_geom_bond_distance
_geom_bond_site_symmetry_2
_ccdc_geom_bond_type
Sc0 O3 2.025 . S
Sc0 O10 2.105 1_554 S
Sc0 O13 2.105 . S
Sc0 O16 2.105 . S
Sc0 O19 2.105 1_554 S
Sc1 O3 2.025 1_556 S
Sc1 O11 2.105 . S
Sc1 O15 2.105 1_556 S
Sc1 O17 2.105 1_556 S
Sc1 O21 2.105 . S
Sc2 O3 2.025 . S
Sc2 O12 2.105 1_554 S
Sc2 O14 2.105 . S
Sc2 O18 2.105 . S
Sc2 O20 2.105 1_554 S
O3 Sc0 2.025 . S
O3 Sc1 2.025 1_554 S
O3 Sc2 2.025 . S
C4 O10 1.268 . S
C4 O20 1.268 . S
C5 O11 1.268 . S
C5 O19 1.268 . S
C6 O12 1.268 . S
C6 O21 1.268 . S
C7 O13 1.268 . S
C7 O17 1.268 . S
C8 O14 1.268 . S
C8 O16 1.268 . S
C9 O15 1.268 . S
C9 O18 1.268 . S
O10 Sc0 2.105 1_556 S
O10 C4 1.268 . S
O11 Sc1 2.105 . S
O11 C5 1.268 . S
O12 Sc2 2.105 1_556 S
O12 C6 1.268 . S
O13 Sc0 2.105 . S
O13 C7 1.268 . S
O14 Sc2 2.105 . S
O14 C8 1.268 . S
O15 Sc1 2.105 1_554 S
O15 C9 1.268 . S
O16 Sc0 2.105 . S
O16 C8 1.268 . S
O17 Sc1 2.105 1_554 S
O17 C7 1.268 . S
O18 Sc2 2.105 . S
O18 C9 1.268 . S
O19 Sc0 2.105 1_556 S
O19 C5 1.268 . S
O20 Sc2 2.105 1_556 S
O20 C4 1.268 . S
O21 Sc1 2.105 . S
O21 C6 1.268 . S
Sc22 O25 2.025 . S
Sc22 O32 2.105 . S
Sc22 O35 2.105 . S
Sc22 O38 2.105 . S
Sc22 O41 2.105 . S
Sc23 O25 2.025 . S
Sc23 O33 2.105 . S
Sc23 O37 2.105 . S
Sc23 O39 2.105 . S
Sc23 O43 2.105 . S
Sc24 O25 2.025 . S
Sc24 O34 2.105 . S
Sc24 O36 2.105 . S
Sc24 O40 2.105 . S
Sc24 O42 2.105 . S
O25 Sc22 2.025 . S
O25 Sc23 2.025 . S
O25 Sc24 2.025 . S
C26 O32 1.268 . S
C26 O42 1.268 . S
C27 O33 1.268 . S
C27 O41 1.268 . S
C28 O34 1.268 . S
C28 O43 1.268 . S
C29 O35 1.268 . S
C29 O39 1.268 . S
C30 O36 1.268 . S
C30 O38 1.268 . S
C31 O37 1.268 . S
C31 O40 1.268 . S
O32 Sc22 2.105 . S
O32 C26 1.268 . S
O33 Sc23 2.105 . S
O33 C27 1.268 . S
O34 Sc24 2.105 . S
O34 C28 1.268 . S
O35 Sc22 2.105 . S
O35 C29 1.268 . S
O36 Sc24 2.105 . S
O36 C30 1.268 . S
O37 Sc23 2.105 . S
O37 C31 1.268 . S
O38 Sc22 2.105 . S
O38 C30 1.268 . S
O39 Sc23 2.105 . S
O39 C29 1.268 . S
O40 Sc24 2.105 . S
O40 C31 1.268 . S
O41 Sc22 2.105 . S
O41 C27 1.268 . S
O42 Sc24 2.105 . S
O42 C26 1.268 . S
O43 Sc23 2.105 . S
O43 C28 1.268 . S
Sc44 O47 2.025 . S
Sc44 O54 2.105 . S
Sc44 O57 2.105 . S
Sc44 O60 2.105 . S
Sc44 O63 2.105 . S
Sc45 O47 2.025 . S
Sc45 O55 2.105 . S
Sc45 O59 2.105 . S
Sc45 O61 2.105 . S
Sc45 O65 2.105 1_554 S
Sc46 O47 2.025 . S
Sc46 O56 2.105 1_554 S
Sc46 O58 2.105 . S
Sc46 O62 2.105 . S
Sc46 O64 2.105 . S
O47 Sc44 2.025 . S
O47 Sc45 2.025 . S
O47 Sc46 2.025 . S
C48 O54 1.268 1_556 S
C48 O64 1.268 1_556 S
C49 O55 1.268 1_556 S
C49 O63 1.268 1_556 S
C50 O56 1.268 . S
C50 O65 1.268 . S
C51 O57 1.268 . S
C51 O61 1.268 . S
C52 O58 1.268 . S
C52 O60 1.268 . S
C53 O59 1.268 . S
C53 O62 1.268 . S
O54 Sc44 2.105 . S
O54 C48 1.268 1_554 S
O55 Sc45 2.105 . S
O55 C49 1.268 1_554 S
O56 Sc46 2.105 1_556 S
O56 C50 1.268 . S
O57 Sc44 2.105 . S
O57 C51 1.268 . S
O58 Sc46 2.105 . S
O58 C52 1.268 . S
O59 Sc45 2.105 . S
O59 C53 1.268 . S
O60 Sc44 2.105 . S
O60 C52 1.268 . S
O61 Sc45 2.105 . S
O61 C51 1.268 . S
O62 Sc46 2.105 . S
O62 C53 1.268 . S
O63 Sc44 2.105 . S
O63 C49 1.268 1_554 S
O64 Sc46 2.105 . S
O64 C48 1.268 1_554 S
O65 Sc45 2.105 1_556 S
O65 C50 1.268 . S
Sc66 O69 2.025 . S
Sc66 O76 2.105 . S
Sc66 O79 2.105 . S
Sc66 O82 2.105 . S
Sc66 O85 2.105 . S
Sc67 O69 2.025 . S
Sc67 O77 2.105 . S
Sc67 O81 2.105 . S
Sc67 O83 2.105 . S
Sc67 O87 2.105 . S
Sc68 O69 2.025 . S
Sc68 O78 2.105 . S
Sc68 O80 2.105 . S
Sc68 O84 2.105 . S
Sc68 O86 2.105 . S
O69 Sc66 2.025 . S
O69 Sc67 2.025 . S
O69 Sc68 2.025 . S
C70 O76 1.268 . S
C70 O86 1.268 . S
C71 O77 1.268 . S
C71 O85 1.268 . S
C72 O78 1.268 . S
C72 O87 1.268 . S
C73 O79 1.268 . S
C73 O83 1.268 . S
C74 O80 1.268 . S
C74 O82 1.268 . S
C75 O81 1.268 . S
C75 O84 1.268 . S
O76 Sc66 2.105 . S
O76 C70 1.268 . S
O77 Sc67 2.105 . S
O77 C71 1.268 . S
O78 Sc68 2.105 . S
O78 C72 1.268 . S
O79 Sc66 2.105 . S
O79 C73 1.268 . S
O80 Sc68 2.105 . S
O80 C74 1.268 . S
O81 Sc67 2.105 . S
O81 C75 1.268 . S
O82 Sc66 2.105 . S
O82 C74 1.268 . S
O83 Sc67 2.105 . S
O83 C73 1.268 . S
O84 Sc68 2.105 . S
O84 C75 1.268 . S
O85 Sc66 2.105 . S
O85 C71 1.268 . S
O86 Sc68 2.105 . S
O86 C70 1.268 . S
O87 Sc67 2.105 . S
O87 C72 1.268 . S
H88 C95 0.929 . S
H89 C98 0.930 . S
H90 C100 0.929 . S
H91 C92 0.969 . S
C92 H91 0.969 . S
C92 O93 1.550 . S
C92 H94 0.973 . S
O93 C92 1.550 . S
O93 C99 1.412 . S
H94 C92 0.973 . S
C95 H88 0.929 . S
C95 C96 1.400 . S
C95 C97 1.364 . S
C96 C95 1.400 . S
C96 C100 1.377 . S
C97 C95 1.364 . S
C97 C98 1.374 . S
C98 H89 0.930 . S
C98 C97 1.374 . S
C98 C99 1.383 . S
C99 O93 1.412 . S
C99 C98 1.383 . S
C99 C100 1.394 . S
C100 H90 0.929 . S
C100 C96 1.377 . S
C100 C99 1.394 . S
H101 C108 0.929 . S
H102 C111 0.930 . S
H103 C113 0.929 . S
H104 C105 0.969 . S
C105 H104 0.969 . S
C105 O106 1.550 . S
C105 H107 0.973 . S
O106 C105 1.550 . S
O106 C112 1.412 . S
H107 C105 0.973 . S
C108 H101 0.929 . S
C108 C109 1.400 . S
C108 C110 1.364 . S
C109 C108 1.400 . S
C109 C113 1.377 . S
C110 C108 1.364 . S
C110 C111 1.374 . S
C111 H102 0.930 . S
C111 C110 1.374 . S
C111 C112 1.383 . S
C112 O106 1.412 . S
C112 C111 1.383 . S
C112 C113 1.394 . S
C113 H103 0.929 . S
C113 C109 1.377 . S
C113 C112 1.394 . S
H114 C121 0.929 . S
H115 C124 0.930 . S
H116 C126 0.929 . S
H117 C118 0.969 . S
C118 H117 0.969 . S
C118 O119 1.550 . S
C118 H120 0.973 . S
O119 C118 1.550 . S
O119 C125 1.412 . S
H120 C118 0.973 . S
C121 H114 0.929 . S
C121 C122 1.400 . S
C121 C123 1.364 . S
C122 C121 1.400 . S
C122 C126 1.377 . S
C123 C121 1.364 . S
C123 C124 1.374 . S
C124 H115 0.930 . S
C124 C123 1.374 . S
C124 C125 1.383 . S
C125 O119 1.412 . S
C125 C124 1.383 . S
C125 C126 1.394 . S
C126 H116 0.929 . S
C126 C122 1.377 . S
C126 C125 1.394 . S
H127 C134 0.929 . S
H128 C137 0.930 . S
H129 C139 0.929 . S
H130 C131 0.969 . S
C131 H130 0.969 . S
C131 O132 1.550 . S
C131 H133 0.973 . S
O132 C131 1.550 . S
O132 C138 1.412 . S
H133 C131 0.973 . S
C134 H127 0.929 . S
C134 C135 1.400 . S
C134 C136 1.364 . S
C135 C134 1.400 . S
C135 C139 1.377 . S
C136 C134 1.364 . S
C136 C137 1.374 . S
C137 H128 0.930 . S
C137 C136 1.374 . S
C137 C138 1.383 . S
C138 O132 1.412 . S
C138 C137 1.383 . S
C138 C139 1.394 . S
C139 H129 0.929 . S
C139 C135 1.377 . S
C139 C138 1.394 . S
H140 C147 0.929 . S
H141 C150 0.930 . S
H142 C152 0.929 . S
H143 C144 0.969 . S
C144 H143 0.969 . S
C144 O145 1.550 . S
C144 H146 0.973 . S
O145 C144 1.550 . S
O145 C151 1.412 . S
H146 C144 0.973 . S
C147 H140 0.929 . S
C147 C148 1.400 . S
C147 C149 1.364 . S
C148 C147 1.400 . S
C148 C152 1.377 . S
C149 C147 1.364 . S
C149 C150 1.374 . S
C150 H141 0.930 . S
C150 C149 1.374 . S
C150 C151 1.383 . S
C151 O145 1.412 . S
C151 C150 1.383 . S
C151 C152 1.394 . S
C152 H142 0.929 . S
C152 C148 1.377 . S
C152 C151 1.394 . S
H153 C160 0.929 . S
H154 C163 0.930 . S
H155 C165 0.929 . S
H156 C157 0.969 . S
C157 H156 0.969 . S
C157 O158 1.550 . S
C157 H159 0.973 . S
O158 C157 1.550 . S
O158 C164 1.412 . S
H159 C157 0.973 . S
C160 H153 0.929 . S
C160 C161 1.400 . S
C160 C162 1.364 . S
C161 C160 1.400 . S
C161 C165 1.377 . S
C162 C160 1.364 . S
C162 C163 1.374 . S
C163 H154 0.930 . S
C163 C162 1.374 . S
C163 C164 1.383 . S
C164 O158 1.412 . S
C164 C163 1.383 . S
C164 C165 1.394 . S
C165 H155 0.929 . S
C165 C161 1.377 . S
C165 C164 1.394 . S
H166 C173 0.929 . S
H167 C176 0.930 . S
H168 C178 0.929 . S
H169 C170 0.969 . S
C170 H169 0.969 . S
C170 O171 1.550 . S
C170 H172 0.973 . S
O171 C170 1.550 . S
O171 C177 1.412 . S
H172 C170 0.973 . S
C173 H166 0.929 . S
C173 C174 1.400 . S
C173 C175 1.364 . S
C174 C173 1.400 . S
C174 C178 1.377 . S
C175 C173 1.364 . S
C175 C176 1.374 . S
C176 H167 0.930 . S
C176 C175 1.374 . S
C176 C177 1.383 . S
C177 O171 1.412 . S
C177 C176 1.383 . S
C177 C178 1.394 . S
C178 H168 0.929 . S
C178 C174 1.377 . S
C178 C177 1.394 . S
H179 C186 0.929 . S
H180 C189 0.930 . S
H181 C191 0.929 . S
H182 C183 0.969 . S
C183 H182 0.969 . S
C183 O184 1.550 . S
C183 H185 0.973 . S
O184 C183 1.550 . S
O184 C190 1.412 . S
H185 C183 0.973 . S
C186 H179 0.929 . S
C186 C187 1.400 . S
C186 C188 1.364 . S
C187 C186 1.400 . S
C187 C191 1.377 . S
C188 C186 1.364 . S
C188 C189 1.374 . S
C189 H180 0.930 . S
C189 C188 1.374 . S
C189 C190 1.383 . S
C190 O184 1.412 . S
C190 C189 1.383 . S
C190 C191 1.394 . S
C191 H181 0.929 . S
C191 C187 1.377 . S
C191 C190 1.394 . S
H192 C198 0.930 . S
H193 C202 0.930 . S
H194 C207 0.929 . S
H195 C205 0.929 . S
H196 C200 0.929 . S
H197 C206 0.929 . S
C198 H192 0.930 . S
C198 C199 1.367 . S
C198 C206 1.378 . S
C199 C198 1.367 . S
C199 C207 1.433 . S
C200 H196 0.929 . S
C200 C202 1.378 . S
C200 C204 1.350 1_545 S
C201 C204 1.463 . S
C201 C206 1.350 . S
C201 N209 1.427 . S
C202 H193 0.930 . S
C202 C200 1.378 . S
C202 C203 1.367 . S
C203 C202 1.367 . S
C203 C205 1.433 1_545 S
C204 C200 1.350 1_565 S
C204 C201 1.463 . S
C204 N208 1.427 . S
C205 H195 0.929 . S
C205 C203 1.433 1_565 S
C205 N208 1.384 . S
C206 H197 0.929 . S
C206 C198 1.378 . S
C206 C201 1.350 . S
C207 H194 0.929 . S
C207 C199 1.433 . S
C207 N209 1.384 . S
N208 C204 1.427 . S
N208 C205 1.384 . S
N209 C201 1.427 . S
N209 C207 1.384 . S
H210 C216 0.930 . S
H211 C220 0.930 . S
H212 C225 0.929 . S
H213 C223 0.929 . S
H214 C218 0.929 . S
H215 C224 0.929 . S
C216 H210 0.930 . S
C216 C217 1.367 . S
C216 C224 1.378 . S
C217 C216 1.367 . S
C217 C225 1.433 . S
C218 H214 0.929 . S
C218 C220 1.378 . S
C218 C222 1.350 . S
C219 C222 1.463 . S
C219 C224 1.350 . S
C219 N227 1.427 . S
C220 H211 0.930 . S
C220 C218 1.378 . S
C220 C221 1.367 . S
C221 C220 1.367 . S
C221 C223 1.433 . S
C222 C218 1.350 . S
C222 C219 1.463 . S
C222 N226 1.427 . S
C223 H213 0.929 . S
C223 C221 1.433 . S
C223 N226 1.384 . S
C224 H215 0.929 . S
C224 C216 1.378 . S
C224 C219 1.350 . S
C225 H212 0.929 . S
C225 C217 1.433 . S
C225 N227 1.384 . S
N226 C222 1.427 . S
N226 C223 1.384 . S
N227 C219 1.427 . S
N227 C225 1.384 . S
H228 C234 0.930 . S
H229 C238 0.930 . S
H230 C243 0.929 . S
H231 C241 0.929 . S
H232 C236 0.929 . S
H233 C242 0.929 . S
C234 H228 0.930 . S
C234 C235 1.367 . S
C234 C242 1.378 1_545 S
C235 C234 1.367 . S
C235 C243 1.433 . S
C236 H232 0.929 . S
C236 C238 1.378 . S
C236 C240 1.350 . S
C237 C240 1.463 . S
C237 C242 1.350 . S
C237 N245 1.427 . S
C238 H229 0.930 . S
C238 C236 1.378 . S
C238 C239 1.367 . S
C239 C238 1.367 . S
C239 C241 1.433 . S
C240 C236 1.350 . S
C240 C237 1.463 . S
C240 N244 1.427 . S
C241 H231 0.929 . S
C241 C239 1.433 . S
C241 N244 1.384 . S
C242 H233 0.929 . S
C242 C234 1.378 1_565 S
C242 C237 1.350 . S
C243 H230 0.929 . S
C243 C235 1.433 . S
C243 N245 1.384 1_545 S
N244 C240 1.427 . S
N244 C241 1.384 . S
N245 C237 1.427 . S
N245 C243 1.384 1_565 S
H246 C252 0.930 . S
H247 C256 0.930 . S
H248 C261 0.929 . S
H249 C259 0.929 . S
H250 C254 0.929 . S
H251 C260 0.929 . S
C252 H246 0.930 . S
C252 C253 1.367 . S
C252 C260 1.378 . S
C253 C252 1.367 . S
C253 C261 1.433 . S
C254 H250 0.929 . S
C254 C256 1.378 . S
C254 C258 1.350 . S
C255 C258 1.463 . S
C255 C260 1.350 . S
C255 N263 1.427 . S
C256 H247 0.930 . S
C256 C254 1.378 . S
C256 C257 1.367 . S
C257 C256 1.367 . S
C257 C259 1.433 . S
C258 C254 1.350 . S
C258 C255 1.463 . S
C258 N262 1.427 . S
C259 H249 0.929 . S
C259 C257 1.433 . S
C259 N262 1.384 . S
C260 H251 0.929 . S
C260 C252 1.378 . S
C260 C255 1.350 . S
C261 H248 0.929 . S
C261 C253 1.433 . S
C261 N263 1.384 . S
N262 C258 1.427 . S
N262 C259 1.384 . S
N263 C255 1.427 . S
N263 C261 1.384 . S
H264 C270 0.930 . S
H265 C274 0.930 . S
H266 C279 0.929 . S
H267 C277 0.929 . S
H268 C272 0.929 . S
H269 C278 0.929 . S
C270 H264 0.930 . S
C270 C271 1.367 . S
C270 C278 1.378 . S
C271 C270 1.367 . S
C271 C279 1.433 . S
C272 H268 0.929 . S
C272 C274 1.378 . S
C272 C276 1.350 . S
C273 C276 1.463 . S
C273 C278 1.350 . S
C273 N281 1.427 . S
C274 H265 0.930 . S
C274 C272 1.378 . S
C274 C275 1.367 . S
C275 C274 1.367 . S
C275 C277 1.433 . S
C276 C272 1.350 . S
C276 C273 1.463 . S
C276 N280 1.427 . S
C277 H267 0.929 . S
C277 C275 1.433 . S
C277 N280 1.384 . S
C278 H269 0.929 . S
C278 C270 1.378 . S
C278 C273 1.350 . S
C279 H266 0.929 . S
C279 C271 1.433 . S
C279 N281 1.384 . S
N280 C276 1.427 . S
N280 C277 1.384 . S
N281 C273 1.427 . S
N281 C279 1.384 . S
H282 C288 0.930 . S
H283 C292 0.930 . S
H284 C297 0.929 . S
H285 C295 0.929 . S
H286 C290 0.929 . S
H287 C296 0.929 . S
C288 H282 0.930 . S
C288 C289 1.367 . S
C288 C296 1.378 1_655 S
C289 C288 1.367 . S
C289 C297 1.433 . S
C290 H286 0.929 . S
C290 C292 1.378 . S
C290 C294 1.350 . S
C291 C294 1.463 . S
C291 C296 1.350 . S
C291 N299 1.427 . S
C292 H283 0.930 . S
C292 C290 1.378 . S
C292 C293 1.367 . S
C293 C292 1.367 . S
C293 C295 1.433 . S
C294 C290 1.350 . S
C294 C291 1.463 . S
C294 N298 1.427 . S
C295 H285 0.929 . S
C295 C293 1.433 . S
C295 N298 1.384 . S
C296 H287 0.929 . S
C296 C288 1.378 1_455 S
C296 C291 1.350 . S
C297 H284 0.929 . S
C297 C289 1.433 . S
C297 N299 1.384 1_655 S
N298 C294 1.427 . S
N298 C295 1.384 . S
N299 C291 1.427 . S
N299 C297 1.384 1_455 S
H300 C306 0.930 . S
H301 C310 0.930 . S
H302 C315 0.929 . S
H303 C313 0.929 . S
H304 C308 0.929 . S
H305 C314 0.929 . S
C306 H300 0.930 . S
C306 C307 1.367 . S
C306 C314 1.378 . S
C307 C306 1.367 . S
C307 C315 1.433 . S
C308 H304 0.929 . S
C308 C310 1.378 . S
C308 C312 1.350 . S
C309 C312 1.463 . S
C309 C314 1.350 . S
C309 N317 1.427 . S
C310 H301 0.930 . S
C310 C308 1.378 . S
C310 C311 1.367 . S
C311 C310 1.367 . S
C311 C313 1.433 . S
C312 C308 1.350 . S
C312 C309 1.463 . S
C312 N316 1.427 . S
C313 H303 0.929 . S
C313 C311 1.433 . S
C313 N316 1.384 . S
C314 H305 0.929 . S
C314 C306 1.378 . S
C314 C309 1.350 . S
C315 H302 0.929 . S
C315 C307 1.433 . S
C315 N317 1.384 . S
N316 C312 1.427 . S
N316 C313 1.384 . S
N317 C309 1.427 . S
N317 C315 1.384 . S
H318 C324 0.930 . S
H319 C328 0.930 . S
H320 C333 0.929 . S
H321 C331 0.929 . S
H322 C326 0.929 . S
H323 C332 0.929 . S
C324 H318 0.930 . S
C324 C325 1.367 . S
C324 C332 1.378 . S
C325 C324 1.367 . S
C325 C333 1.433 . S
C326 H322 0.929 . S
C326 C328 1.378 . S
C326 C330 1.350 . S
C327 C330 1.463 . S
C327 C332 1.350 1_655 S
C327 N335 1.427 . S
C328 H319 0.930 . S
C328 C326 1.378 . S
C328 C329 1.367 . S
C329 C328 1.367 . S
C329 C331 1.433 . S
C330 C326 1.350 . S
C330 C327 1.463 . S
C330 N334 1.427 . S
C331 H321 0.929 . S
C331 C329 1.433 . S
C331 N334 1.384 . S
C332 H323 0.929 . S
C332 C324 1.378 . S
C332 C327 1.350 1_455 S
C333 H320 0.929 . S
C333 C325 1.433 . S
C333 N335 1.384 1_455 S
N334 C330 1.427 . S
N334 C331 1.384 . S
N335 C327 1.427 . S
N335 C333 1.384 1_655 S
H336 C342 0.930 . S
H337 C346 0.930 . S
H338 C351 0.929 . S
H339 C349 0.929 . S
H340 C344 0.930 . S
H341 C350 0.929 . S
C342 H336 0.930 . S
C342 C343 1.367 . S
C342 C350 1.378 . S
C343 C342 1.367 . S
C343 C351 1.433 . S
C344 H340 0.930 . S
C344 C346 1.372 1_545 S
C344 C348 1.354 . S
C345 C348 1.463 . S
C345 C350 1.350 . S
C345 N353 1.427 . S
C346 H337 0.930 . S
C346 C344 1.372 1_565 S
C346 C347 1.367 . S
C347 C346 1.367 . S
C347 C349 1.433 . S
C348 C344 1.354 . S
C348 C345 1.463 . S
C348 N352 1.427 . S
C349 H339 0.929 . S
C349 C347 1.433 . S
C349 N352 1.384 1_565 S
C350 H341 0.929 . S
C350 C342 1.378 . S
C350 C345 1.350 . S
C351 H338 0.929 . S
C351 C343 1.433 . S
C351 N353 1.384 . S
N352 C348 1.427 . S
N352 C349 1.384 1_545 S
N353 C345 1.427 . S
N353 C351 1.384 . S
H354 C360 0.930 . S
H355 C364 0.930 . S
H356 C369 0.929 . S
H357 C367 0.929 . S
H358 C362 0.929 . S
H359 C368 0.929 . S
C360 H354 0.930 . S
C360 C361 1.367 . S
C360 C368 1.378 . S
C361 C360 1.367 . S
C361 C369 1.433 . S
C362 H358 0.929 . S
C362 C364 1.378 . S
C362 C366 1.350 . S
C363 C366 1.463 . S
C363 C368 1.350 . S
C363 N371 1.427 . S
C364 H355 0.930 . S
C364 C362 1.378 . S
C364 C365 1.367 . S
C365 C364 1.367 . S
C365 C367 1.433 . S
C366 C362 1.350 . S
C366 C363 1.463 . S
C366 N370 1.427 . S
C367 H357 0.929 . S
C367 C365 1.433 . S
C367 N370 1.384 . S
C368 H359 0.929 . S
C368 C360 1.378 . S
C368 C363 1.350 . S
C369 H356 0.929 . S
C369 C361 1.433 . S
C369 N371 1.384 . S
N370 C366 1.427 . S
N370 C367 1.384 . S
N371 C363 1.427 . S
N371 C369 1.384 . S
H372 C378 0.930 . S
H373 C382 0.930 . S
H374 C387 0.929 . S
H375 C385 0.929 . S
H376 C380 0.929 . S
H377 C386 0.929 . S
C378 H372 0.930 . S
C378 C379 1.367 . S
C378 C386 1.378 1_565 S
C379 C378 1.367 . S
C379 C387 1.433 . S
C380 H376 0.929 . S
C380 C382 1.378 . S
C380 C384 1.350 . S
C381 C384 1.463 . S
C381 C386 1.350 . S
C381 N389 1.427 . S
C382 H373 0.930 . S
C382 C380 1.378 . S
C382 C383 1.367 . S
C383 C382 1.367 . S
C383 C385 1.433 . S
C384 C380 1.350 . S
C384 C381 1.463 . S
C384 N388 1.427 . S
C385 H375 0.929 . S
C385 C383 1.433 . S
C385 N388 1.384 . S
C386 H377 0.929 . S
C386 C378 1.378 1_545 S
C386 C381 1.350 . S
C387 H374 0.929 . S
C387 C379 1.433 . S
C387 N389 1.384 1_565 S
N388 C384 1.427 . S
N388 C385 1.384 . S
N389 C381 1.427 . S
N389 C387 1.384 1_545 S
H390 C396 0.930 . S
H391 C400 0.930 . S
H392 C405 0.929 . S
H393 C403 0.929 . S
H394 C398 0.929 . S
H395 C404 0.929 . S
C396 H390 0.930 . S
C396 C397 1.367 . S
C396 C404 1.378 . S
C397 C396 1.367 . S
C397 C405 1.433 . S
C398 H394 0.929 . S
C398 C400 1.378 . S
C398 C402 1.350 . S
C399 C402 1.463 . S
C399 C404 1.350 . S
C399 N407 1.427 . S
C400 H391 0.930 . S
C400 C398 1.378 . S
C400 C401 1.367 . S
C401 C400 1.367 . S
C401 C403 1.433 . S
C402 C398 1.350 . S
C402 C399 1.463 . S
C402 N406 1.427 . S
C403 H393 0.929 . S
C403 C401 1.433 . S
C403 N406 1.384 . S
C404 H395 0.929 . S
C404 C396 1.378 . S
C404 C399 1.350 . S
C405 H392 0.929 . S
C405 C397 1.433 . S
C405 N407 1.384 . S
N406 C402 1.427 . S
N406 C403 1.384 . S
N407 C399 1.427 . S
N407 C405 1.384 . S
H408 C414 0.930 . S
H409 C418 0.930 . S
H410 C423 0.929 . S
H411 C421 0.929 . S
H412 C416 0.929 . S
H413 C422 0.929 . S
C414 H408 0.930 . S
C414 C415 1.367 . S
C414 C422 1.378 . S
C415 C414 1.367 . S
C415 C423 1.433 . S
C416 H412 0.929 . S
C416 C418 1.378 . S
C416 C420 1.350 . S
C417 C420 1.463 . S
C417 C422 1.350 . S
C417 N425 1.427 . S
C418 H409 0.930 . S
C418 C416 1.378 . S
C418 C419 1.367 . S
C419 C418 1.367 . S
C419 C421 1.433 . S
C420 C416 1.350 . S
C420 C417 1.463 . S
C420 N424 1.427 . S
C421 H411 0.929 . S
C421 C419 1.433 . S
C421 N424 1.384 . S
C422 H413 0.929 . S
C422 C414 1.378 . S
C422 C417 1.350 . S
C423 H410 0.929 . S
C423 C415 1.433 . S
C423 N425 1.384 . S
N424 C420 1.427 . S
N424 C421 1.384 . S
N425 C417 1.427 . S
N425 C423 1.384 . S
H426 C432 0.930 . S
H427 C436 0.930 . S
H428 C441 0.929 . S
H429 C439 0.929 . S
H430 C434 0.929 . S
H431 C440 0.929 1_655 S
C432 H426 0.930 . S
C432 C433 1.367 . S
C432 C440 1.378 . S
C433 C432 1.367 . S
C433 C441 1.433 . S
C434 H430 0.929 . S
C434 C436 1.378 . S
C434 C438 1.350 . S
C435 C438 1.463 . S
C435 C440 1.350 1_655 S
C435 N443 1.427 . S
C436 H427 0.930 . S
C436 C434 1.378 . S
C436 C437 1.367 . S
C437 C436 1.367 . S
C437 C439 1.433 . S
C438 C434 1.350 . S
C438 C435 1.463 . S
C438 N442 1.427 . S
C439 H429 0.929 . S
C439 C437 1.433 . S
C439 N442 1.384 . S
C440 H431 0.929 1_455 S
C440 C432 1.378 . S
C440 C435 1.350 1_455 S
C441 H428 0.929 . S
C441 C433 1.433 . S
C441 N443 1.384 1_455 S
N442 C438 1.427 . S
N442 C439 1.384 . S
N443 C435 1.427 . S
N443 C441 1.384 1_655 S
H444 C450 0.930 . S
H445 C454 0.930 . S
H446 C459 0.929 . S
H447 C457 0.929 . S
H448 C452 0.929 . S
H449 C458 0.929 . S
C450 H444 0.930 . S
C450 C451 1.367 . S
C450 C458 1.378 . S
C451 C450 1.367 . S
C451 C459 1.433 . S
C452 H448 0.929 . S
C452 C454 1.378 . S
C452 C456 1.350 . S
C453 C456 1.463 . S
C453 C458 1.350 . S
C453 N461 1.427 . S
C454 H445 0.930 . S
C454 C452 1.378 . S
C454 C455 1.367 . S
C455 C454 1.367 . S
C455 C457 1.433 . S
C456 C452 1.350 . S
C456 C453 1.463 . S
C456 N460 1.427 . S
C457 H447 0.929 . S
C457 C455 1.433 . S
C457 N460 1.384 . S
C458 H449 0.929 . S
C458 C450 1.378 . S
C458 C453 1.350 . S
C459 H446 0.929 . S
C459 C451 1.433 . S
C459 N461 1.384 . S
N460 C456 1.427 . S
N460 C457 1.384 . S
N461 C453 1.427 . S
N461 C459 1.384 . S
H462 C468 0.930 . S
H463 C472 0.930 . S
H464 C477 0.929 . S
H465 C475 0.929 . S
H466 C470 0.929 . S
H467 C476 0.929 . S
C468 H462 0.930 . S
C468 C469 1.367 . S
C468 C476 1.378 1_655 S
C469 C468 1.367 . S
C469 C477 1.433 . S
C470 H466 0.929 . S
C470 C472 1.378 . S
C470 C474 1.350 . S
C471 C474 1.463 . S
C471 C476 1.350 . S
C471 N479 1.427 1_455 S
C472 H463 0.930 . S
C472 C470 1.378 . S
C472 C473 1.367 . S
C473 C472 1.367 . S
C473 C475 1.433 . S
C474 C470 1.350 . S
C474 C471 1.463 . S
C474 N478 1.427 . S
C475 H465 0.929 . S
C475 C473 1.433 . S
C475 N478 1.384 . S
C476 H467 0.929 . S
C476 C468 1.378 1_455 S
C476 C471 1.350 . S
C477 H464 0.929 . S
C477 C469 1.433 . S
C477 N479 1.384 . S
N478 C474 1.427 . S
N478 C475 1.384 . S
N479 C471 1.427 1_655 S
N479 C477 1.384 . S
H480 C486 0.930 . S
H481 C490 0.930 . S
H482 C495 0.929 . S
H483 C493 0.929 . S
H484 C488 0.929 . S
H485 C494 0.929 . S
C486 H480 0.930 . S
C486 C487 1.367 . S
C486 C494 1.378 . S
C487 C486 1.367 . S
C487 C495 1.433 . S
C488 H484 0.929 . S
C488 C490 1.378 . S
C488 C492 1.350 . S
C489 C492 1.463 . S
C489 C494 1.350 . S
C489 N497 1.427 . S
C490 H481 0.930 . S
C490 C488 1.378 . S
C490 C491 1.367 . S
C491 C490 1.367 . S
C491 C493 1.433 . S
C492 C488 1.350 . S
C492 C489 1.463 . S
C492 N496 1.427 . S
C493 H483 0.929 . S
C493 C491 1.433 . S
C493 N496 1.384 . S
C494 H485 0.929 . S
C494 C486 1.378 . S
C494 C489 1.350 . S
C495 H482 0.929 . S
C495 C487 1.433 . S
C495 N497 1.384 . S
N496 C492 1.427 . S
N496 C493 1.384 . S
N497 C489 1.427 . S
N497 C495 1.384 . S
H498 C504 0.930 . S
H499 C508 0.930 . S
H500 C513 0.929 . S
H501 C511 0.929 . S
H502 C506 0.929 . S
H503 C512 0.929 . S
C504 H498 0.930 . S
C504 C505 1.367 . S
C504 C512 1.378 . S
C505 C504 1.367 . S
C505 C513 1.433 . S
C506 H502 0.929 . S
C506 C508 1.378 . S
C506 C510 1.350 . S
C507 C510 1.463 . S
C507 C512 1.350 . S
C507 N515 1.427 . S
C508 H499 0.930 . S
C508 C506 1.378 . S
C508 C509 1.367 . S
C509 C508 1.367 . S
C509 C511 1.433 . S
C510 C506 1.350 . S
C510 C507 1.463 . S
C510 N514 1.427 . S
C511 H501 0.929 . S
C511 C509 1.433 . S
C511 N514 1.384 . S
C512 H503 0.929 . S
C512 C504 1.378 . S
C512 C507 1.350 . S
C513 H500 0.929 . S
C513 C505 1.433 . S
C513 N515 1.384 . S
N514 C510 1.427 . S
N514 C511 1.384 . S
N515 C507 1.427 . S
N515 C513 1.384 . S
H516 C522 0.930 . S
H517 C526 0.930 . S
H518 C531 0.929 . S
H519 C529 0.929 . S
H520 C524 0.929 . S
H521 C530 0.929 . S
C522 H516 0.930 . S
C522 C523 1.367 . S
C522 C530 1.378 . S
C523 C522 1.367 . S
C523 C531 1.433 . S
C524 H520 0.929 . S
C524 C526 1.378 . S
C524 C528 1.350 . S
C525 C528 1.463 . S
C525 C530 1.350 . S
C525 N533 1.427 . S
C526 H517 0.930 . S
C526 C524 1.378 . S
C526 C527 1.367 . S
C527 C526 1.367 . S
C527 C529 1.433 . S
C528 C524 1.350 . S
C528 C525 1.463 . S
C528 N532 1.427 . S
C529 H519 0.929 . S
C529 C527 1.433 . S
C529 N532 1.384 . S
C530 H521 0.929 . S
C530 C522 1.378 . S
C530 C525 1.350 . S
C531 H518 0.929 . S
C531 C523 1.433 . S
C531 N533 1.384 . S
N532 C528 1.427 . S
N532 C529 1.384 . S
N533 C525 1.427 . S
N533 C531 1.384 . S
H534 C540 0.930 . S
H535 C544 0.930 . S
H536 C549 0.929 . S
H537 C547 0.929 . S
H538 C542 0.929 . S
H539 C548 0.929 . S
C540 H534 0.930 . S
C540 C541 1.367 . S
C540 C548 1.378 . S
C541 C540 1.367 . S
C541 C549 1.433 . S
C542 H538 0.929 . S
C542 C544 1.378 . S
C542 C546 1.350 . S
C543 C546 1.463 . S
C543 C548 1.350 . S
C543 N551 1.427 . S
C544 H535 0.930 . S
C544 C542 1.378 . S
C544 C545 1.367 . S
C545 C544 1.367 . S
C545 C547 1.433 . S
C546 C542 1.350 . S
C546 C543 1.463 . S
C546 N550 1.427 . S
C547 H537 0.929 . S
C547 C545 1.433 . S
C547 N550 1.384 . S
C548 H539 0.929 . S
C548 C540 1.378 . S
C548 C543 1.350 . S
C549 H536 0.929 . S
C549 C541 1.433 . S
C549 N551 1.384 . S
N550 C546 1.427 . S
N550 C547 1.384 . S
N551 C543 1.427 . S
N551 C549 1.384 . S
H552 C558 0.930 . S
H553 C562 0.930 . S
H554 C567 0.929 . S
H555 C565 0.929 . S
H556 C560 0.929 . S
H557 C566 0.929 . S
C558 H552 0.930 . S
C558 C559 1.367 . S
C558 C566 1.378 . S
C559 C558 1.367 . S
C559 C567 1.433 . S
C560 H556 0.929 . S
C560 C562 1.378 . S
C560 C564 1.350 . S
C561 C564 1.463 . S
C561 C566 1.350 . S
C561 N569 1.427 . S
C562 H553 0.930 . S
C562 C560 1.378 . S
C562 C563 1.367 . S
C563 C562 1.367 . S
C563 C565 1.433 . S
C564 C560 1.350 . S
C564 C561 1.463 . S
C564 N568 1.427 . S
C565 H555 0.929 . S
C565 C563 1.433 . S
C565 N568 1.384 . S
C566 H557 0.929 . S
C566 C558 1.378 . S
C566 C561 1.350 . S
C567 H554 0.929 . S
C567 C559 1.433 . S
C567 N569 1.384 . S
N568 C564 1.427 . S
N568 C565 1.384 . S
N569 C561 1.427 . S
N569 C567 1.384 . S
H570 C576 0.930 . S
H571 C580 0.930 . S
H572 C585 0.929 . S
H573 C583 0.929 . S
H574 C578 0.929 . S
H575 C584 0.929 . S
C576 H570 0.930 . S
C576 C577 1.367 . S
C576 C584 1.378 . S
C577 C576 1.367 . S
C577 C585 1.433 . S
C578 H574 0.929 . S
C578 C580 1.378 . S
C578 C582 1.350 . S
C579 C582 1.463 . S
C579 C584 1.350 . S
C579 N587 1.427 . S
C580 H571 0.930 . S
C580 C578 1.378 . S
C580 C581 1.367 . S
C581 C580 1.367 . S
C581 C583 1.433 . S
C582 C578 1.350 . S
C582 C579 1.463 . S
C582 N586 1.427 . S
C583 H573 0.929 . S
C583 C581 1.433 . S
C583 N586 1.384 . S
C584 H575 0.929 . S
C584 C576 1.378 . S
C584 C579 1.350 . S
C585 H572 0.929 . S
C585 C577 1.433 . S
C585 N587 1.384 . S
N586 C582 1.427 . S
N586 C583 1.384 . S
N587 C579 1.427 . S
N587 C585 1.384 . S
H588 C594 0.930 . S
H589 C598 0.930 . S
H590 C603 0.929 . S
H591 C601 0.929 . S
H592 C596 0.929 . S
H593 C602 0.929 . S
C594 H588 0.930 . S
C594 C595 1.367 . S
C594 C602 1.378 . S
C595 C594 1.367 . S
C595 C603 1.433 . S
C596 H592 0.929 . S
C596 C598 1.378 . S
C596 C600 1.350 . S
C597 C600 1.463 . S
C597 C602 1.350 . S
C597 N605 1.427 . S
C598 H589 0.930 . S
C598 C596 1.378 . S
C598 C599 1.367 . S
C599 C598 1.367 . S
C599 C601 1.433 . S
C600 C596 1.350 . S
C600 C597 1.463 . S
C600 N604 1.427 . S
C601 H591 0.929 . S
C601 C599 1.433 . S
C601 N604 1.384 . S
C602 H593 0.929 . S
C602 C594 1.378 . S
C602 C597 1.350 . S
C603 H590 0.929 . S
C603 C595 1.433 . S
C603 N605 1.384 . S
N604 C600 1.427 . S
N604 C601 1.384 . S
N605 C597 1.427 . S
N605 C603 1.384 . S
H606 C612 0.930 . S
H607 C616 0.930 . S
H608 C621 0.929 . S
H609 C619 0.929 . S
H610 C614 0.929 . S
H611 C620 0.929 . S
C612 H606 0.930 . S
C612 C613 1.367 . S
C612 C620 1.378 . S
C613 C612 1.367 . S
C613 C621 1.433 . S
C614 H610 0.929 . S
C614 C616 1.378 . S
C614 C618 1.350 . S
C615 C618 1.463 . S
C615 C620 1.350 . S
C615 N623 1.427 . S
C616 H607 0.930 . S
C616 C614 1.378 . S
C616 C617 1.367 . S
C617 C616 1.367 . S
C617 C619 1.433 . S
C618 C614 1.350 . S
C618 C615 1.463 . S
C618 N622 1.427 . S
C619 H609 0.929 . S
C619 C617 1.433 . S
C619 N622 1.384 . S
C620 H611 0.929 . S
C620 C612 1.378 . S
C620 C615 1.350 . S
C621 H608 0.929 . S
C621 C613 1.433 . S
C621 N623 1.384 . S
N622 C618 1.427 . S
N622 C619 1.384 . S
N623 C615 1.427 . S
N623 C621 1.384 . S
C199 C8 1.322 . S
C203 C96 1.275 . S
C217 C31 1.208 . S
C221 C109 1.201 . S
C235 C53 1.422 . S
C239 C123 1.409 . S
C257 C136 1.349 . S
C253 C74 1.369 . S
C275 C148 1.275 . S
C271 C26 1.256 . S
C289 C48 1.423 . S
C293 C162 1.375 . S
C307 C71 1.267 . S
C311 C174 1.248 . S
C325 C5 1.372 . S
C329 C188 1.348 . S
C343 C50 1.273 . S
C347 C187 1.239 . S
C365 C149 1.356 . S
C361 C70 1.422 . S
C383 C161 1.278 . S
C379 C4 1.261 . S
C397 C28 1.375 . S
C401 C175 1.342 . S
C419 C110 1.408 . S
C415 C73 1.417 . S
C433 C7 1.217 . S
C437 C122 1.211 . S
C455 C135 1.276 . S
C451 C30 1.321 . S
C473 C97 1.343 . S
C469 C52 1.372 . S
C491 C170 1.321 . S
C487 C9 1.351 . S
C509 C183 1.283 . S
C505 C29 1.357 . S
C523 C51 1.413 . S
C527 C144 1.367 . S
C545 C157 1.400 . S
C541 C75 1.414 . S
C563 C118 1.321 . S
C559 C27 1.353 . S
C577 C49 1.401 . S
C581 C131 1.324 . S
C599 C92 1.350 . S
C595 C72 1.400 . S
C617 C105 1.285 . S
C613 C6 1.354 . S
