# Generated by pormake.
# Topology anh, (6,3)-cn, num edge types: 1
# Building blocks:
#     Node 0, Type 0, BuildingBlock: PAMTUU_clean_sbu_0, # of connection points: 6
#     Node 1, Type 0, BuildingBlock: PAMTUU_clean_sbu_0, # of connection points: 6
#     Node 2, Type 0, BuildingBlock: PAMTUU_clean_sbu_0, # of connection points: 6
#     Node 3, Type 1, BuildingBlock: ESEHIV_clean_linker_0, # of connection points: 3
#     Node 4, Type 1, BuildingBlock: ESEHIV_clean_linker_0, # of connection points: 3
#     Node 5, Type 1, BuildingBlock: ESEHIV_clean_linker_0, # of connection points: 3
#     Node 6, Type 1, BuildingBlock: ESEHIV_clean_linker_0, # of connection points: 3
#     Node 7, Type 1, BuildingBlock: ESEHIV_clean_linker_0, # of connection points: 3
#     Node 8, Type 1, BuildingBlock: ESEHIV_clean_linker_0, # of connection points: 3
#     Edge 9, Type (0, 1), BuildingBlock: AJUNOK_clean_linker_0, # of connection points: 2
#     Edge 10, Type (0, 1), BuildingBlock: AJUNOK_clean_linker_0, # of connection points: 2
#     Edge 11, Type (0, 1), BuildingBlock: AJUNOK_clean_linker_0, # of connection points: 2
#     Edge 12, Type (0, 1), BuildingBlock: AJUNOK_clean_linker_0, # of connection points: 2
#     Edge 13, Type (0, 1), BuildingBlock: AJUNOK_clean_linker_0, # of connection points: 2
#     Edge 14, Type (0, 1), BuildingBlock: AJUNOK_clean_linker_0, # of connection points: 2
#     Edge 15, Type (0, 1), BuildingBlock: AJUNOK_clean_linker_0, # of connection points: 2
#     Edge 16, Type (0, 1), BuildingBlock: AJUNOK_clean_linker_0, # of connection points: 2
#     Edge 17, Type (0, 1), BuildingBlock: AJUNOK_clean_linker_0, # of connection points: 2
#     Edge 18, Type (0, 1), BuildingBlock: AJUNOK_clean_linker_0, # of connection points: 2
#     Edge 19, Type (0, 1), BuildingBlock: AJUNOK_clean_linker_0, # of connection points: 2
#     Edge 20, Type (0, 1), BuildingBlock: AJUNOK_clean_linker_0, # of connection points: 2
#     Edge 21, Type (0, 1), BuildingBlock: AJUNOK_clean_linker_0, # of connection points: 2
#     Edge 22, Type (0, 1), BuildingBlock: AJUNOK_clean_linker_0, # of connection points: 2
#     Edge 23, Type (0, 1), BuildingBlock: AJUNOK_clean_linker_0, # of connection points: 2
#     Edge 24, Type (0, 1), BuildingBlock: AJUNOK_clean_linker_0, # of connection points: 2
#     Edge 25, Type (0, 1), BuildingBlock: AJUNOK_clean_linker_0, # of connection points: 2
#     Edge 26, Type (0, 1), BuildingBlock: AJUNOK_clean_linker_0, # of connection points: 2
# Relax obj value: 0.452
# Max RMSD: 0.222
# Mean RMSD: 0.180
data_MOF--net-anh--node1-PAMTUU_clean_sbu_0--node2-ESEHIV_clean_linker_0--edge1-AJUNOK_clean_linker_0
_symmetry_space_group_name_H-M    P1
_symmetry_Int_Tables_number       1
_symmetry_cell_setting            triclinic
loop_
_symmetry_equiv_pos_as_xyz
'x, y, z'
_cell_length_a     20.090481
_cell_length_b     20.137001
_cell_length_c     37.891638
_cell_angle_alpha  93.050353
_cell_angle_beta   91.131783
_cell_angle_gamma 120.13287
loop_
_atom_site_label
_atom_site_type_symbol
_atom_site_fract_x
_atom_site_fract_y
_atom_site_fract_z
_atom_type_partial_charge
Tb0 Tb 0.26145 0.7713 0.18649 0.0
Tb1 Tb 0.35403 0.68162 0.18066 0.0
C2 C 0.29314 0.71665 0.11093 0.0
C3 C 1.10273 0.80395 0.20273 0.0
C4 C 0.94409 0.69942 0.19586 0.0
C5 C 0.97528 0.76958 0.17982 0.0
C6 C 1.05443 0.82166 0.18323 0.0
C7 C 1.06994 0.7398 0.22319 0.0
C8 C 0.99072 0.68805 0.21996 0.0
C9 C 1.18308 0.83671 0.19315 0.0
O10 O 1.16454 0.64836 0.18516 0.0
O11 O 0.23385 0.58675 0.19011 0.0
O12 O 0.37255 0.73612 0.23306 0.0
O13 O 0.25372 0.7181 0.23592 0.0
O14 O 0.43196 0.65433 0.15746 0.0
O15 O 0.37953 0.60663 0.20616 0.0
O16 O 0.44921 0.80514 0.17976 0.0
O17 O 0.38398 0.86613 0.198 0.0
O18 O 0.28627 0.76955 0.12992 0.0
O19 O 0.30646 0.66773 0.12674 0.0
C20 C 1.16627 0.5841 0.18985 0.0
O21 O 0.23251 0.84207 0.21761 0.0
O22 O 1.19019 0.80665 0.16314 0.0
C23 C 0.3131 0.71966 0.25144 0.0
C24 C 0.40299 0.52852 0.16661 0.0
C25 C 0.38302 0.3945 0.12993 0.0
C26 C 0.32587 0.41498 0.12673 0.0
C27 C 0.33607 0.4821 0.14488 0.0
C28 C 0.45556 0.50389 0.17284 0.0
C29 C 0.44559 0.43727 0.15478 0.0
C30 C 0.42176 0.60514 0.18086 0.0
C31 C 0.45029 0.86954 0.1911 0.0
H32 H 0.94062 0.77957 0.16092 0.0
H33 H 1.07873 0.87066 0.16716 0.0
H34 H 1.10612 0.72482 0.2384 0.0
H35 H 0.96747 0.6347 0.23289 0.0
H36 H 0.27688 0.38289 0.10804 0.0
H37 H 0.29427 0.50015 0.14033 0.0
H38 H 0.50701 0.53882 0.18988 0.0
H39 H 0.49132 0.42396 0.15768 0.0
Tb40 Tb 0.6557 0.17923 0.49764 0.0
Tb41 Tb 0.82964 0.26651 0.52792 0.0
C42 C 0.78725 0.24021 0.4444 0.0
C43 C 0.44823 1.03911 0.4894 0.0
C44 C 0.34001 0.88759 0.50345 0.0
C45 C 0.34083 0.9142 0.46971 0.0
C46 C 0.39452 0.98934 0.46279 0.0
C47 C 0.44292 1.01534 0.52399 0.0
C48 C 0.38862 0.94012 0.53104 0.0
C49 C 0.51432 1.11135 0.47976 0.0
O50 O 0.67969 1.0802 0.50174 0.0
O51 O 0.79645 0.14427 0.53285 0.0
O52 O 0.75776 0.26179 0.57133 0.0
O53 O 0.65476 0.14872 0.55098 0.0
O54 O 0.9075 0.27265 0.56749 0.0
O55 O 0.94563 0.35248 0.52645 0.0
O56 O 0.81035 0.3661 0.52627 0.0
O57 O 0.68063 0.30073 0.51167 0.0
O58 O 0.71844 0.22776 0.45094 0.0
O59 O 0.83462 0.24422 0.47021 0.0
C60 C 0.73708 1.07847 0.51957 0.0
O61 O 0.54686 0.16603 0.50506 0.0
O62 O 0.56494 1.10401 0.46139 0.0
C63 C 0.69291 0.1996 0.577 0.0
C64 C 1.02818 0.30958 0.54487 0.0
C65 C 1.1468 0.29839 0.51224 0.0
C66 C 1.16341 0.36272 0.53549 0.0
C67 C 1.10447 0.36818 0.55155 0.0
C68 C 1.01196 0.24097 0.52572 0.0
C69 C 1.0712 0.23499 0.50988 0.0
C70 C 0.96654 0.32596 0.55253 0.0
C71 C 0.74527 0.36683 0.52105 0.0
H72 H 0.30471 0.87518 0.4477 0.0
H73 H 0.39755 1.00686 0.43604 0.0
H74 H 0.48343 1.05336 0.54507 0.0
H75 H 0.38835 0.92167 0.5574 0.0
H76 H 0.22019 0.41354 0.53797 0.0
H77 H 1.11785 0.42132 0.5664 0.0
H78 H 0.95298 0.19472 0.52052 0.0
H79 H 1.05647 0.18444 0.49256 0.0
Tb80 Tb 0.72414 0.6221 0.83946 0.0
Tb81 Tb 0.82355 0.8017 0.85598 0.0
C82 C 0.77364 0.72844 0.77623 0.0
C83 C 0.56559 0.41758 0.83811 0.0
C84 C 0.41791 0.28659 0.82992 0.0
C85 C 0.48092 0.28182 0.84399 0.0
C86 C 0.55426 0.34672 0.84758 0.0
C87 C 0.50123 0.42542 0.83038 0.0
C88 C 0.42741 0.36017 0.82678 0.0
C89 C 0.64417 0.4779 0.83129 0.0
O90 O 0.84428 0.64353 0.85349 0.0
O91 O 0.91704 0.77359 0.84902 0.0
O92 O 0.82591 0.74236 0.90253 0.0
O93 O 0.70304 0.65112 0.89156 0.0
O94 O 0.90234 0.91444 0.84334 0.0
O95 O 0.85632 0.8916 0.89503 0.0
O96 O 0.70277 0.77798 0.86368 0.0
O97 O 0.63084 0.65332 0.84022 0.0
O98 O 0.76382 0.66422 0.78794 0.0
O99 O 0.78852 0.78715 0.7988 0.0
C100 C 0.91364 0.707 0.85335 0.0
O101 O 0.65051 0.52375 0.80685 0.0
O102 O 0.69117 0.51432 0.85878 0.0
C103 C 0.76155 0.68822 0.91394 0.0
C104 C 0.86904 1.00199 0.8703 0.0
C105 C 0.79317 1.08405 0.85691 0.0
C106 C 0.7839 1.04899 0.88882 0.0
C107 C 0.82183 1.00858 0.89559 0.0
C108 C 0.88438 1.04386 0.8401 0.0
C109 C 0.84646 1.0843 0.83338 0.0
C110 C 0.8935 0.94431 0.87309 0.0
C111 C 0.63395 0.71715 0.8541 0.0
H112 H 0.47649 0.22675 0.84749 0.0
H113 H 0.60307 0.33993 0.85441 0.0
H114 H 0.50861 0.48049 0.82405 0.0
H115 H 0.37975 0.36623 0.81717 0.0
H116 H 0.74365 1.04886 0.90746 0.0
H117 H 0.81 0.97833 0.91954 0.0
H118 H 0.92139 1.04093 0.82042 0.0
H119 H 0.85409 1.11033 0.80838 0.0
H120 H 0.70992 0.13547 0.28477 0.0
H121 H 0.92625 0.34805 0.28595 0.0
H122 H 0.80995 0.22559 0.18594 0.0
C123 C 0.75581 0.1789 0.27033 0.0
C124 C 0.74974 0.1701 0.23295 0.0
C125 C 0.81851 0.24199 0.28977 0.0
C126 C 0.87796 0.3 0.27105 0.0
C127 C 0.87764 0.29686 0.23354 0.0
C128 C 0.8125 0.23005 0.21458 0.0
H129 H 0.74346 0.83583 0.61744 0.0
H130 H 0.75665 0.62961 0.61315 0.0
H131 H 0.73489 0.72103 0.51564 0.0
C132 C 0.74459 0.79005 0.6016 0.0
C133 C 0.74016 0.7897 0.56397 0.0
C134 C 0.74851 0.73201 0.61955 0.0
C135 C 0.75032 0.67203 0.59932 0.0
C136 C 0.74431 0.66438 0.56197 0.0
C137 C 0.73818 0.72408 0.54426 0.0
H138 H 1.16612 0.70285 0.94935 0.0
H139 H 0.38612 0.71567 0.94911 0.0
H140 H 0.27237 0.71073 0.84996 0.0
C141 C 0.213 0.70567 0.93455 0.0
C142 C 0.2086 0.70618 0.89716 0.0
C143 C 0.27603 0.70857 0.95344 0.0
C144 C 0.33757 0.71229 0.93439 0.0
C145 C 0.33919 0.71282 0.89707 0.0
C146 C 0.27326 0.70988 0.87849 0.0
H147 H 0.29093 0.48464 0.37078 0.0
H148 H 0.26667 0.67653 0.40792 0.0
H149 H 0.26831 0.52381 0.48193 0.0
C150 C 0.28519 0.51868 0.39236 0.0
C151 C 0.2823 0.49739 0.42726 0.0
C152 C 0.27897 0.58331 0.38547 0.0
C153 C 0.26888 0.62524 0.4133 0.0
C154 C 0.26577 0.6045 0.44811 0.0
C155 C 0.27272 0.54083 0.45501 0.0
H156 H 0.44502 1.1149 0.69691 0.0
H157 H 0.66079 0.14578 0.73593 0.0
H158 H 0.48882 1.11105 0.80903 0.0
C159 C 0.48139 1.11824 0.71915 0.0
C160 C 0.4561 1.11236 0.75394 0.0
C161 C 0.5565 0.1341 0.71314 0.0
C162 C 0.60377 0.13619 0.74107 0.0
C163 C 0.57848 1.12598 0.77541 0.0
C164 C 0.50503 1.11402 0.78182 0.0
H165 H 0.5975 0.40855 0.00441 0.0
H166 H 0.80469 0.57655 0.06299 0.0
H167 H 0.62138 0.4043 0.11774 0.0
C168 C 0.63138 0.42954 0.02924 0.0
C169 C 0.59851 0.39659 0.06081 0.0
C170 C 0.70441 0.49655 0.0301 0.0
C171 C 0.74958 0.52335 0.06175 0.0
C172 C 0.72015 0.48769 0.09292 0.0
C173 C 0.64509 0.42527 0.09256 0.0
C174 C 0.42396 0.30112 0.11084 0.0
C175 C 0.39213 0.3465 0.10153 0.0
C176 C 0.48341 0.30225 0.0916 0.0
C177 C 0.51294 0.35023 0.06336 0.0
H178 H 0.4131 0.27648 0.13629 0.0
H179 H 0.51501 0.27706 0.10275 0.0
S180 S 0.41528 0.4391 0.01726 0.0
N181 N 0.3685 0.40884 0.05362 0.0
N182 N 0.48098 0.41296 0.01795 0.0
C183 C 0.46592 0.37611 0.04832 0.0
C184 C 0.40463 0.37362 0.06754 0.0
C185 C 1.16753 0.29987 0.44835 0.0
C186 C 0.19944 0.30983 0.48309 0.0
C187 C 0.20516 0.35687 0.42466 0.0
C188 C 0.27532 0.42337 0.43533 0.0
H189 H 1.10773 0.25734 0.44168 0.0
H190 H 1.17268 0.35555 0.40119 0.0
S191 S 0.39951 0.45121 0.51447 0.0
N192 N 0.31833 0.37051 0.51985 0.0
N193 N 0.38844 0.4794 0.47572 0.0
C194 C 0.31662 0.42123 0.46513 0.0
C195 C 0.27863 0.36274 0.489 0.0
C196 C 0.65822 1.05088 0.843 0.0
C197 C 0.73732 1.10631 0.84473 0.0
C198 C 0.6051 1.06096 0.82299 0.0
C199 C 0.62967 0.12665 0.80405 0.0
H200 H 0.6381 0.99647 0.85463 0.0
H201 H 0.54581 1.01432 0.81994 0.0
S202 S 0.82737 0.29543 0.806 0.0
N203 N 0.83553 0.23404 0.83041 0.0
N204 N 0.7354 0.25332 0.79279 0.0
C205 C 0.70712 0.18584 0.80848 0.0
C206 C 0.76115 0.17552 0.8288 0.0
C207 C 0.88313 0.57314 0.16166 0.0
C208 C 0.87452 0.6321 0.17873 0.0
C209 C 0.82877 0.5213 0.13574 0.0
C210 C 0.76363 0.52613 0.12651 0.0
H211 H 0.93578 0.5716 0.16576 0.0
H212 H 0.84051 0.48096 0.12106 0.0
S213 S 0.7082 0.66186 0.16672 0.0
N214 N 0.79177 0.68679 0.18718 0.0
N215 N 0.68831 0.58781 0.13864 0.0
C216 C 0.75054 0.57994 0.14548 0.0
C217 C 0.80642 0.63344 0.17162 0.0
C218 C 0.23033 0.75544 0.48805 0.0
C219 C 0.3019 0.80334 0.50642 0.0
C220 C 0.21184 0.68279 0.47317 0.0
C221 C 0.26398 0.65601 0.47682 0.0
H222 H 0.19366 0.77832 0.4809 0.0
H223 H 1.16152 0.65196 0.45508 0.0
S224 S 0.44288 0.74596 0.53443 0.0
N225 N 0.41358 0.8093 0.53627 0.0
N226 N 0.37781 0.67198 0.50862 0.0
C227 C 0.32735 0.69625 0.50114 0.0
C228 C 0.34656 0.7705 0.51609 0.0
C229 C 0.33818 0.14532 0.81732 0.0
C230 C 0.35844 0.21913 0.8071 0.0
C231 C 0.35439 1.09727 0.79538 0.0
C232 C 0.38928 1.12245 0.763 0.0
H233 H 0.32769 0.13269 0.84477 0.0
H234 H 0.35288 1.04815 0.80656 0.0
S235 S 0.38846 0.27872 0.71536 0.0
N236 N 0.36509 0.28959 0.75587 0.0
N237 N 0.39885 0.20245 0.71484 0.0
C238 C 0.38141 0.18128 0.74839 0.0
C239 C 0.363 0.22848 0.77057 0.0
C240 C 0.78845 1.00372 0.55418 0.0
C241 C 0.7363 1.00197 0.52768 0.0
C242 C 0.79024 0.93686 0.56404 0.0
C243 C 0.74078 0.86119 0.54815 0.0
H244 H 0.82857 1.05811 0.56838 0.0
H245 H 0.83162 0.94509 0.58502 0.0
S246 S 0.59588 0.821 0.47484 0.0
N247 N 0.63501 0.91474 0.48424 0.0
N248 N 0.63909 0.79123 0.50215 0.0
C249 C 0.68965 0.85828 0.52063 0.0
C250 C 0.6871 0.92704 0.51078 0.0
C251 C 0.98993 0.6422 0.8765 0.0
C252 C 0.98987 0.70474 0.86074 0.0
C253 C 1.05935 0.64183 0.8863 0.0
C254 C 1.13482 0.70275 0.88019 0.0
H255 H 0.9354 0.59344 0.8826 0.0
H256 H 1.05365 0.59318 0.89968 0.0
S257 S 1.17082 0.88074 0.83893 0.0
N258 N 1.0758 0.83025 0.83935 0.0
N259 N 0.20291 0.82808 0.85655 0.0
C260 C 1.13574 0.76474 0.86361 0.0
C261 C 1.06505 0.766 0.85427 0.0
C262 C 0.53051 1.01391 0.21504 0.0
C263 C 0.52817 0.948 0.19804 0.0
C264 C 0.60078 1.08519 0.22392 0.0
C265 C 0.67502 1.09776 0.21594 0.0
H266 H 0.47711 1.01007 0.22267 0.0
H267 H 0.59688 0.13098 0.23826 0.0
S268 S 0.70527 0.94661 0.17122 0.0
N269 N 0.61059 0.90298 0.17338 0.0
N270 N 0.73978 1.03488 0.1895 0.0
C271 C 0.67381 1.03316 0.19826 0.0
C272 C 0.60204 0.95983 0.18953 0.0
C273 C 0.80867 0.51047 0.54569 0.0
C274 C 0.7453 0.44462 0.52762 0.0
C275 C 0.80934 0.58118 0.55413 0.0
C276 C 0.7475 0.5934 0.54467 0.0
H277 H 0.85827 0.50694 0.55459 0.0
H278 H 0.85888 0.62675 0.56944 0.0
S279 S 0.568 0.44295 0.49518 0.0
N280 N 0.61888 0.39971 0.49935 0.0
N281 N 0.62067 0.53051 0.51472 0.0
C282 C 0.68459 0.529 0.5256 0.0
C283 C 0.68343 0.45618 0.5173 0.0
C284 C 0.48264 0.65787 0.85079 0.0
C285 C 0.55819 0.71925 0.86179 0.0
C286 C 0.41289 0.65774 0.85973 0.0
C287 C 0.413 0.71897 0.88043 0.0
H288 H 0.47688 0.60803 0.83559 0.0
H289 H 0.35806 0.60735 0.85146 0.0
S290 S 0.59285 0.89401 0.91682 0.0
N291 N 0.6254 0.84388 0.89501 0.0
N292 N 0.49802 0.84298 0.91152 0.0
C293 C 0.48799 0.78075 0.89113 0.0
C294 C 0.55866 0.78119 0.88196 0.0
C295 C 1.02166 0.50703 0.20638 0.0
C296 C 1.09049 0.50776 0.19745 0.0
C297 C 0.95308 0.43916 0.21585 0.0
C298 C 0.94681 0.3656 0.21651 0.0
H299 H 1.02146 0.5606 0.20727 0.0
H300 H 0.90469 0.44509 0.22372 0.0
S301 S 1.10852 0.33203 0.19595 0.0
N302 N 1.14539 0.42464 0.19045 0.0
N303 N 1.01917 0.30004 0.20759 0.0
C304 C 1.0148 0.36511 0.20733 0.0
C305 C 1.08497 0.43444 0.198 0.0
C306 C 0.26845 0.76112 0.05254 0.0
C307 C 0.28725 0.71263 0.0707 0.0
C308 C 0.26369 0.75872 0.01503 0.0
C309 C 0.27827 0.70827 0.99358 0.0
H310 H 0.25742 0.80174 0.0674 0.0
H311 H 0.24982 0.7979 0.00272 0.0
S312 S 0.32581 0.56606 0.02704 0.0
N313 N 0.31788 0.61018 0.0633 0.0
N314 N 0.30893 0.60605 0.99372 0.0
C315 C 0.2961 0.65884 0.01131 0.0
C316 C 0.30051 0.66085 0.04942 0.0
C317 C 0.79584 0.17996 0.38566 0.0
C318 C 0.80837 0.2458 0.40639 0.0
C319 C 0.80161 0.18009 0.34847 0.0
C320 C 0.82025 0.24611 0.33002 0.0
H321 H 0.77856 0.1269 0.39814 0.0
H322 H 0.78993 0.12726 0.33391 0.0
S323 S 0.85926 0.43398 0.37228 0.0
N324 N 0.84095 0.37904 0.40579 0.0
N325 N 0.8523 0.37989 0.33647 0.0
C326 C 0.83494 0.31297 0.35077 0.0
C327 C 0.82853 0.31253 0.38862 0.0
C328 C 0.80544 0.79993 0.71918 0.0
C329 C 0.76416 0.7314 0.73662 0.0
C330 C 0.79922 0.80053 0.68172 0.0
C331 C 0.75083 0.73279 0.65986 0.0
H332 H 0.84456 0.85318 0.73447 0.0
H333 H 0.83425 0.85425 0.66973 0.0
S334 S 0.62083 0.5406 0.69273 0.0
N335 N 0.66744 0.59548 0.72886 0.0
N336 N 0.6541 0.59712 0.65977 0.0
C337 C 0.70648 0.66495 0.67734 0.0
C338 C 0.71353 0.66415 0.71516 0.0
C339 C 0.59297 1.11438 0.61701 0.0
C340 C 0.65949 0.18575 0.61212 0.0
C341 C 0.55805 1.09886 0.64942 0.0
C342 C 0.58899 0.15379 0.67822 0.0
H343 H 0.56773 1.06932 0.59576 0.0
H344 H 0.5079 1.04293 0.65226 0.0
S345 S 0.75989 0.34996 0.67972 0.0
N346 N 0.75319 0.31258 0.63903 0.0
N347 N 0.68786 0.28261 0.70028 0.0
C348 C 0.65478 0.22547 0.67389 0.0
C349 C 0.69013 0.24166 0.64078 0.0
C350 C 0.68577 0.61986 0.96355 0.0
C351 C 0.75669 0.65311 0.94748 0.0
C352 C 0.66995 0.5692 0.99 0.0
C353 C 0.72412 0.549 0.00121 0.0
H354 H 0.6409 0.63104 0.95469 0.0
H355 H 0.61452 0.54548 0.00169 0.0
S356 S 0.92025 0.62326 0.96876 0.0
N357 N 0.88323 0.6653 0.94549 0.0
N358 N 0.85329 0.56928 0.99564 0.0
C359 C 0.79673 0.58432 0.98647 0.0
C360 C 0.81309 0.63661 0.95947 0.0
C361 C 0.23777 0.65891 0.30374 0.0
C362 C 0.30646 0.68611 0.28591 0.0
C363 C 0.22792 0.62242 0.33521 0.0
C364 C 0.28604 0.61104 0.34976 0.0
H365 H 0.19105 0.66578 0.2934 0.0
H366 H 1.1749 0.60386 0.34858 0.0
S367 S 0.47686 0.67155 0.31413 0.0
N368 N 0.43406 0.69924 0.28563 0.0
N369 N 0.41443 0.63 0.34473 0.0
C370 C 0.3545 0.63699 0.33223 0.0
C371 C 0.36514 0.67491 0.30036 0.0
loop_
_geom_bond_atom_site_label_1
_geom_bond_atom_site_label_2
_geom_bond_distance
_geom_bond_site_symmetry_2
_ccdc_geom_bond_type
Tb0 C9 2.764 . S
Tb0 O10 2.325 . S
Tb0 O13 2.303 1_655 S
Tb0 O17 2.322 1_655 S
Tb0 O18 2.349 1_655 S
Tb0 O21 2.415 . S
Tb0 O22 2.399 . S
Tb1 O11 2.322 1_455 S
Tb1 O12 2.349 . S
Tb1 O14 2.415 . S
Tb1 O15 2.399 . S
Tb1 O16 2.325 . S
Tb1 O19 2.303 . S
Tb1 C30 2.764 . S
C2 O18 1.261 . S
C2 O19 1.257 . S
C3 C6 1.358 . S
C3 C7 1.332 . S
C3 C9 1.504 . S
C4 C5 1.373 . S
C4 C8 1.308 . S
C5 C4 1.373 . S
C5 C6 1.429 . S
C5 H32 0.932 . S
C6 C3 1.358 . S
C6 C5 1.429 . S
C6 H33 0.930 . S
C7 C3 1.332 . S
C7 C8 1.394 . S
C7 H34 0.932 . S
C8 C4 1.308 . S
C8 C7 1.394 . S
C8 H35 0.929 . S
C9 Tb0 2.764 . S
C9 C3 1.504 . S
C9 O21 1.239 . S
C9 O22 1.263 . S
O10 Tb0 2.325 . S
O10 C20 1.236 . S
O11 Tb1 2.322 1_655 S
O11 C20 1.257 . S
O12 Tb1 2.349 . S
O12 C23 1.261 . S
O13 Tb0 2.303 1_455 S
O13 C23 1.257 . S
O14 Tb1 2.415 . S
O14 C30 1.239 . S
O15 Tb1 2.399 . S
O15 C30 1.263 . S
O16 Tb1 2.325 . S
O16 C31 1.236 . S
O17 Tb0 2.322 1_455 S
O17 C31 1.257 . S
O18 Tb0 2.349 1_455 S
O18 C2 1.261 . S
O19 Tb1 2.303 . S
O19 C2 1.257 . S
C20 O10 1.236 . S
C20 O11 1.257 . S
O21 Tb0 2.415 . S
O21 C9 1.239 . S
O22 Tb0 2.399 . S
O22 C9 1.263 . S
C23 O12 1.261 . S
C23 O13 1.257 . S
C24 C27 1.358 . S
C24 C28 1.332 . S
C24 C30 1.504 . S
C25 C26 1.373 . S
C25 C29 1.308 . S
C26 C25 1.373 . S
C26 C27 1.429 . S
C26 H36 0.932 . S
C27 C24 1.358 . S
C27 C26 1.429 . S
C27 H37 0.930 . S
C28 C24 1.332 . S
C28 C29 1.394 . S
C28 H38 0.932 . S
C29 C25 1.308 . S
C29 C28 1.394 . S
C29 H39 0.929 . S
C30 Tb1 2.764 . S
C30 O14 1.239 . S
C30 O15 1.263 . S
C30 C24 1.504 . S
C31 O16 1.236 . S
C31 O17 1.257 . S
H32 C5 0.932 . S
H33 C6 0.930 . S
H34 C7 0.932 . S
H35 C8 0.929 . S
H36 C26 0.932 . S
H37 C27 0.930 . S
H38 C28 0.932 . S
H39 C29 0.929 . S
Tb40 C49 2.764 . S
Tb40 O50 2.325 . S
Tb40 O53 2.303 1_565 S
Tb40 O57 2.322 1_565 S
Tb40 O58 2.349 1_565 S
Tb40 O61 2.415 . S
Tb40 O62 2.399 . S
Tb41 O51 2.322 1_545 S
Tb41 O52 2.349 . S
Tb41 O54 2.415 . S
Tb41 O55 2.399 . S
Tb41 O56 2.325 . S
Tb41 O59 2.303 . S
Tb41 C70 2.764 . S
C42 O58 1.261 . S
C42 O59 1.257 . S
C43 C46 1.358 . S
C43 C47 1.332 . S
C43 C49 1.504 . S
C44 C45 1.373 . S
C44 C48 1.308 . S
C45 C44 1.373 . S
C45 C46 1.429 . S
C45 H72 0.932 . S
C46 C43 1.358 . S
C46 C45 1.429 . S
C46 H73 0.930 . S
C47 C43 1.332 . S
C47 C48 1.394 . S
C47 H74 0.932 . S
C48 C44 1.308 . S
C48 C47 1.394 . S
C48 H75 0.929 . S
C49 Tb40 2.764 . S
C49 C43 1.504 . S
C49 O61 1.239 . S
C49 O62 1.263 . S
O50 Tb40 2.325 . S
O50 C60 1.236 . S
O51 Tb41 2.322 1_565 S
O51 C60 1.257 . S
O52 Tb41 2.349 . S
O52 C63 1.261 . S
O53 Tb40 2.303 1_545 S
O53 C63 1.257 . S
O54 Tb41 2.415 . S
O54 C70 1.239 . S
O55 Tb41 2.399 . S
O55 C70 1.263 . S
O56 Tb41 2.325 . S
O56 C71 1.236 . S
O57 Tb40 2.322 1_545 S
O57 C71 1.257 . S
O58 Tb40 2.349 1_545 S
O58 C42 1.261 . S
O59 Tb41 2.303 . S
O59 C42 1.257 . S
C60 O50 1.236 . S
C60 O51 1.257 . S
O61 Tb40 2.415 . S
O61 C49 1.239 . S
O62 Tb40 2.399 . S
O62 C49 1.263 . S
C63 O52 1.261 . S
C63 O53 1.257 . S
C64 C67 1.358 . S
C64 C68 1.332 . S
C64 C70 1.504 . S
C65 C66 1.373 . S
C65 C69 1.308 . S
C66 C65 1.373 . S
C66 C67 1.429 . S
C66 H76 0.932 . S
C67 C64 1.358 . S
C67 C66 1.429 . S
C67 H77 0.930 . S
C68 C64 1.332 . S
C68 C69 1.394 . S
C68 H78 0.932 . S
C69 C65 1.308 . S
C69 C68 1.394 . S
C69 H79 0.929 . S
C70 Tb41 2.764 . S
C70 O54 1.239 . S
C70 O55 1.263 . S
C70 C64 1.504 . S
C71 O56 1.236 . S
C71 O57 1.257 . S
H72 C45 0.932 . S
H73 C46 0.930 . S
H74 C47 0.932 . S
H75 C48 0.929 . S
H76 C66 0.932 . S
H77 C67 0.930 . S
H78 C68 0.932 . S
H79 C69 0.929 . S
Tb80 C89 2.764 . S
Tb80 O90 2.325 . S
Tb80 O93 2.303 . S
Tb80 O97 2.322 . S
Tb80 O98 2.349 . S
Tb80 O101 2.415 . S
Tb80 O102 2.399 . S
Tb81 O91 2.322 . S
Tb81 O92 2.349 . S
Tb81 O94 2.415 . S
Tb81 O95 2.399 . S
Tb81 O96 2.325 . S
Tb81 O99 2.303 . S
Tb81 C110 2.764 . S
C82 O98 1.261 . S
C82 O99 1.257 . S
C83 C86 1.358 . S
C83 C87 1.332 . S
C83 C89 1.504 . S
C84 C85 1.373 . S
C84 C88 1.308 . S
C85 C84 1.373 . S
C85 C86 1.429 . S
C85 H112 0.932 . S
C86 C83 1.358 . S
C86 C85 1.429 . S
C86 H113 0.930 . S
C87 C83 1.332 . S
C87 C88 1.394 . S
C87 H114 0.932 . S
C88 C84 1.308 . S
C88 C87 1.394 . S
C88 H115 0.929 . S
C89 Tb80 2.764 . S
C89 C83 1.504 . S
C89 O101 1.239 . S
C89 O102 1.263 . S
O90 Tb80 2.325 . S
O90 C100 1.236 . S
O91 Tb81 2.322 . S
O91 C100 1.257 . S
O92 Tb81 2.349 . S
O92 C103 1.261 . S
O93 Tb80 2.303 . S
O93 C103 1.257 . S
O94 Tb81 2.415 . S
O94 C110 1.239 . S
O95 Tb81 2.399 . S
O95 C110 1.263 . S
O96 Tb81 2.325 . S
O96 C111 1.236 . S
O97 Tb80 2.322 . S
O97 C111 1.257 . S
O98 Tb80 2.349 . S
O98 C82 1.261 . S
O99 Tb81 2.303 . S
O99 C82 1.257 . S
C100 O90 1.236 . S
C100 O91 1.257 . S
O101 Tb80 2.415 . S
O101 C89 1.239 . S
O102 Tb80 2.399 . S
O102 C89 1.263 . S
C103 O92 1.261 . S
C103 O93 1.257 . S
C104 C107 1.358 . S
C104 C108 1.332 . S
C104 C110 1.504 . S
C105 C106 1.373 . S
C105 C109 1.308 . S
C106 C105 1.373 . S
C106 C107 1.429 . S
C106 H116 0.932 . S
C107 C104 1.358 . S
C107 C106 1.429 . S
C107 H117 0.930 . S
C108 C104 1.332 . S
C108 C109 1.394 . S
C108 H118 0.932 . S
C109 C105 1.308 . S
C109 C108 1.394 . S
C109 H119 0.929 . S
C110 Tb81 2.764 . S
C110 O94 1.239 . S
C110 O95 1.263 . S
C110 C104 1.504 . S
C111 O96 1.236 . S
C111 O97 1.257 . S
H112 C85 0.932 . S
H113 C86 0.930 . S
H114 C87 0.932 . S
H115 C88 0.929 . S
H116 C106 0.932 . S
H117 C107 0.930 . S
H118 C108 0.932 . S
H119 C109 0.929 . S
H120 C123 0.931 . S
H121 C126 0.928 . S
H122 C128 0.930 . S
C123 H120 0.931 . S
C123 C124 1.413 . S
C123 C125 1.360 1_565 S
C124 C123 1.413 . S
C124 C128 1.429 1_565 S
C125 C123 1.360 1_545 S
C125 C126 1.372 . S
C126 H121 0.928 . S
C126 C125 1.372 . S
C126 C127 1.404 . S
C127 C126 1.404 . S
C127 C128 1.391 . S
C128 H122 0.930 . S
C128 C124 1.429 1_545 S
C128 C127 1.391 . S
H129 C132 0.931 . S
H130 C135 0.928 . S
H131 C137 0.930 . S
C132 H129 0.931 . S
C132 C133 1.413 . S
C132 C134 1.360 . S
C133 C132 1.413 . S
C133 C137 1.429 . S
C134 C132 1.360 . S
C134 C135 1.372 . S
C135 H130 0.928 . S
C135 C134 1.372 . S
C135 C136 1.404 . S
C136 C135 1.404 . S
C136 C137 1.391 . S
C137 H131 0.930 . S
C137 C133 1.429 . S
C137 C136 1.391 . S
H138 C141 0.931 1_655 S
H139 C144 0.928 . S
H140 C146 0.930 . S
C141 H138 0.931 1_455 S
C141 C142 1.413 . S
C141 C143 1.360 . S
C142 C141 1.413 . S
C142 C146 1.429 . S
C143 C141 1.360 . S
C143 C144 1.372 . S
C144 H139 0.928 . S
C144 C143 1.372 . S
C144 C145 1.404 . S
C145 C144 1.404 . S
C145 C146 1.391 . S
C146 H140 0.930 . S
C146 C142 1.429 . S
C146 C145 1.391 . S
H147 C150 0.931 . S
H148 C153 0.928 . S
H149 C155 0.930 . S
C150 H147 0.931 . S
C150 C151 1.413 . S
C150 C152 1.360 1_655 S
C151 C150 1.413 . S
C151 C155 1.429 1_655 S
C152 C150 1.360 1_455 S
C152 C153 1.372 . S
C153 H148 0.928 . S
C153 C152 1.372 . S
C153 C154 1.404 . S
C154 C153 1.404 . S
C154 C155 1.391 . S
C155 H149 0.930 . S
C155 C151 1.429 1_455 S
C155 C154 1.391 . S
H156 C159 0.931 . S
H157 C162 0.928 . S
H158 C164 0.930 . S
C159 H156 0.931 . S
C159 C160 1.413 . S
C159 C161 1.366 . S
C160 C159 1.413 . S
C160 C164 1.429 . S
C161 C159 1.366 . S
C161 C162 1.366 1_545 S
C162 H157 0.928 . S
C162 C161 1.366 1_565 S
C162 C163 1.404 . S
C163 C162 1.404 . S
C163 C164 1.391 1_565 S
C164 H158 0.930 . S
C164 C160 1.429 . S
C164 C163 1.391 1_545 S
H165 C168 0.931 . S
H166 C171 0.928 . S
H167 C173 0.930 . S
C168 H165 0.931 . S
C168 C169 1.413 . S
C168 C170 1.360 . S
C169 C168 1.413 . S
C169 C173 1.429 . S
C170 C168 1.360 . S
C170 C171 1.372 . S
C171 H166 0.928 . S
C171 C170 1.372 . S
C171 C172 1.404 . S
C172 C171 1.404 . S
C172 C173 1.391 . S
C173 H167 0.930 . S
C173 C169 1.429 . S
C173 C172 1.391 . S
C174 C175 1.369 . S
C174 C176 1.419 . S
C174 H178 0.930 . S
C175 C174 1.369 . S
C175 C184 1.429 . S
C176 C174 1.419 . S
C176 C177 1.363 . S
C176 H179 0.929 . S
C177 C176 1.363 . S
C177 C183 1.428 . S
H178 C174 0.930 . S
H179 C176 0.929 . S
S180 N181 1.613 . S
S180 N182 1.610 . S
N181 S180 1.613 . S
N181 C184 1.350 . S
N182 S180 1.610 . S
N182 C183 1.351 . S
C183 C177 1.428 . S
C183 N182 1.351 . S
C183 C184 1.434 . S
C184 C175 1.429 . S
C184 N181 1.350 . S
C184 C183 1.434 . S
C185 C186 1.369 . S
C185 C187 1.419 . S
C185 H189 0.930 . S
C186 C185 1.369 . S
C186 C195 1.429 . S
C187 C185 1.419 . S
C187 C188 1.363 . S
C187 H190 0.929 . S
C188 C187 1.363 . S
C188 C194 1.428 . S
H189 C185 0.930 . S
H190 C187 0.929 . S
S191 N192 1.613 . S
S191 N193 1.610 . S
N192 S191 1.613 . S
N192 C195 1.350 . S
N193 S191 1.610 . S
N193 C194 1.351 . S
C194 C188 1.428 . S
C194 N193 1.351 . S
C194 C195 1.434 . S
C195 C186 1.429 . S
C195 N192 1.350 . S
C195 C194 1.434 . S
C196 C197 1.369 . S
C196 C198 1.419 . S
C196 H200 0.930 . S
C197 C196 1.369 . S
C197 C206 1.429 . S
C198 C196 1.419 . S
C198 C199 1.363 . S
C198 H201 0.929 . S
C199 C198 1.363 . S
C199 C205 1.428 . S
H200 C196 0.930 . S
H201 C198 0.929 . S
S202 N203 1.613 1_545 S
S202 N204 1.610 1_545 S
N203 S202 1.613 1_565 S
N203 C206 1.350 . S
N204 S202 1.610 1_565 S
N204 C205 1.351 . S
C205 C199 1.428 . S
C205 N204 1.351 . S
C205 C206 1.434 . S
C206 C197 1.429 . S
C206 N203 1.350 . S
C206 C205 1.434 . S
C207 C208 1.369 . S
C207 C209 1.419 . S
C207 H211 0.930 . S
C208 C207 1.369 . S
C208 C217 1.429 . S
C209 C207 1.419 . S
C209 C210 1.363 . S
C209 H212 0.929 . S
C210 C209 1.363 . S
C210 C216 1.428 . S
H211 C207 0.930 . S
H212 C209 0.929 . S
S213 N214 1.613 . S
S213 N215 1.610 . S
N214 S213 1.613 . S
N214 C217 1.350 . S
N215 S213 1.610 . S
N215 C216 1.351 . S
C216 C210 1.428 . S
C216 N215 1.351 . S
C216 C217 1.434 . S
C217 C208 1.429 . S
C217 N214 1.350 . S
C217 C216 1.434 . S
C218 C219 1.369 . S
C218 C220 1.419 . S
C218 H222 0.930 . S
C219 C218 1.369 . S
C219 C228 1.429 . S
C220 C218 1.419 . S
C220 C221 1.363 . S
C220 H223 0.929 . S
C221 C220 1.363 . S
C221 C227 1.428 . S
H222 C218 0.930 . S
H223 C220 0.929 . S
S224 N225 1.613 . S
S224 N226 1.610 . S
N225 S224 1.613 . S
N225 C228 1.350 . S
N226 S224 1.610 . S
N226 C227 1.351 . S
C227 C221 1.428 . S
C227 N226 1.351 . S
C227 C228 1.434 . S
C228 C219 1.429 . S
C228 N225 1.350 . S
C228 C227 1.434 . S
C229 C230 1.369 . S
C229 C231 1.419 . S
C229 H233 0.930 . S
C230 C229 1.369 . S
C230 C239 1.429 . S
C231 C229 1.419 . S
C231 C232 1.363 . S
C231 H234 0.929 . S
C232 C231 1.363 . S
C232 C238 1.428 . S
H233 C229 0.930 . S
H234 C231 0.929 . S
S235 N236 1.613 . S
S235 N237 1.610 . S
N236 S235 1.613 . S
N236 C239 1.350 . S
N237 S235 1.610 . S
N237 C238 1.351 . S
C238 C232 1.428 . S
C238 N237 1.351 . S
C238 C239 1.434 . S
C239 C230 1.429 . S
C239 N236 1.350 . S
C239 C238 1.434 . S
C240 C241 1.369 . S
C240 C242 1.419 . S
C240 H244 0.930 . S
C241 C240 1.369 . S
C241 C250 1.429 . S
C242 C240 1.419 . S
C242 C243 1.363 . S
C242 H245 0.929 . S
C243 C242 1.363 . S
C243 C249 1.428 . S
H244 C240 0.930 . S
H245 C242 0.929 . S
S246 N247 1.613 . S
S246 N248 1.610 . S
N247 S246 1.613 . S
N247 C250 1.350 . S
N248 S246 1.610 . S
N248 C249 1.351 . S
C249 C243 1.428 . S
C249 N248 1.351 . S
C249 C250 1.434 . S
C250 C241 1.429 . S
C250 N247 1.350 . S
C250 C249 1.434 . S
C251 C252 1.369 . S
C251 C253 1.419 . S
C251 H255 0.930 . S
C252 C251 1.369 . S
C252 C261 1.429 . S
C253 C251 1.419 . S
C253 C254 1.363 . S
C253 H256 0.929 . S
C254 C253 1.363 . S
C254 C260 1.428 . S
H255 C251 0.930 . S
H256 C253 0.929 . S
S257 N258 1.613 . S
S257 N259 1.610 . S
N258 S257 1.613 . S
N258 C261 1.350 . S
N259 S257 1.610 . S
N259 C260 1.351 . S
C260 C254 1.428 . S
C260 N259 1.351 . S
C260 C261 1.434 . S
C261 C252 1.429 . S
C261 N258 1.350 . S
C261 C260 1.434 . S
C262 C263 1.369 . S
C262 C264 1.419 . S
C262 H266 0.930 . S
C263 C262 1.369 . S
C263 C272 1.429 . S
C264 C262 1.419 . S
C264 C265 1.363 . S
C264 H267 0.929 . S
C265 C264 1.363 . S
C265 C271 1.428 . S
H266 C262 0.930 . S
H267 C264 0.929 . S
S268 N269 1.613 . S
S268 N270 1.610 . S
N269 S268 1.613 . S
N269 C272 1.350 . S
N270 S268 1.610 . S
N270 C271 1.351 . S
C271 C265 1.428 . S
C271 N270 1.351 . S
C271 C272 1.434 . S
C272 C263 1.429 . S
C272 N269 1.350 . S
C272 C271 1.434 . S
C273 C274 1.369 . S
C273 C275 1.419 . S
C273 H277 0.930 . S
C274 C273 1.369 . S
C274 C283 1.429 . S
C275 C273 1.419 . S
C275 C276 1.363 . S
C275 H278 0.929 . S
C276 C275 1.363 . S
C276 C282 1.428 . S
H277 C273 0.930 . S
H278 C275 0.929 . S
S279 N280 1.613 . S
S279 N281 1.610 . S
N280 S279 1.613 . S
N280 C283 1.350 . S
N281 S279 1.610 . S
N281 C282 1.351 . S
C282 C276 1.428 . S
C282 N281 1.351 . S
C282 C283 1.434 . S
C283 C274 1.429 . S
C283 N280 1.350 . S
C283 C282 1.434 . S
C284 C285 1.369 . S
C284 C286 1.419 . S
C284 H288 0.930 . S
C285 C284 1.369 . S
C285 C294 1.429 . S
C286 C284 1.419 . S
C286 C287 1.363 . S
C286 H289 0.929 . S
C287 C286 1.363 . S
C287 C293 1.428 . S
H288 C284 0.930 . S
H289 C286 0.929 . S
S290 N291 1.613 . S
S290 N292 1.610 . S
N291 S290 1.613 . S
N291 C294 1.350 . S
N292 S290 1.610 . S
N292 C293 1.351 . S
C293 C287 1.428 . S
C293 N292 1.351 . S
C293 C294 1.434 . S
C294 C285 1.429 . S
C294 N291 1.350 . S
C294 C293 1.434 . S
C295 C296 1.369 . S
C295 C297 1.419 . S
C295 H299 0.930 . S
C296 C295 1.369 . S
C296 C305 1.429 . S
C297 C295 1.419 . S
C297 C298 1.363 . S
C297 H300 0.929 . S
C298 C297 1.363 . S
C298 C304 1.428 . S
H299 C295 0.930 . S
H300 C297 0.929 . S
S301 N302 1.613 . S
S301 N303 1.610 . S
N302 S301 1.613 . S
N302 C305 1.350 . S
N303 S301 1.610 . S
N303 C304 1.351 . S
C304 C298 1.428 . S
C304 N303 1.351 . S
C304 C305 1.434 . S
C305 C296 1.429 . S
C305 N302 1.350 . S
C305 C304 1.434 . S
C306 C307 1.369 . S
C306 C308 1.419 . S
C306 H310 0.930 . S
C307 C306 1.369 . S
C307 C316 1.429 . S
C308 C306 1.419 . S
C308 C309 1.363 1_554 S
C308 H311 0.929 . S
C309 C308 1.363 1_556 S
C309 C315 1.428 1_556 S
H310 C306 0.930 . S
H311 C308 0.929 . S
S312 N313 1.613 1_655 S
S312 N314 1.610 1_654 S
N313 S312 1.613 1_455 S
N313 C316 1.350 . S
N314 S312 1.610 1_456 S
N314 C315 1.351 1_556 S
C315 C309 1.428 1_554 S
C315 N314 1.351 1_554 S
C315 C316 1.434 . S
C316 C307 1.429 . S
C316 N313 1.350 . S
C316 C315 1.434 . S
C317 C318 1.369 . S
C317 C319 1.419 . S
C317 H321 0.930 1_545 S
C318 C317 1.369 . S
C318 C327 1.429 . S
C319 C317 1.419 . S
C319 C320 1.363 . S
C319 H322 0.929 1_545 S
C320 C319 1.363 . S
C320 C326 1.428 . S
H321 C317 0.930 1_565 S
H322 C319 0.929 1_565 S
S323 N324 1.613 . S
S323 N325 1.610 . S
N324 S323 1.613 . S
N324 C327 1.350 . S
N325 S323 1.610 . S
N325 C326 1.351 . S
C326 C320 1.428 . S
C326 N325 1.351 . S
C326 C327 1.434 . S
C327 C318 1.429 . S
C327 N324 1.350 . S
C327 C326 1.434 . S
C328 C329 1.369 . S
C328 C330 1.419 . S
C328 H332 0.930 . S
C329 C328 1.369 . S
C329 C338 1.429 . S
C330 C328 1.419 . S
C330 C331 1.363 . S
C330 H333 0.929 . S
C331 C330 1.363 . S
C331 C337 1.428 . S
H332 C328 0.930 . S
H333 C330 0.929 . S
S334 N335 1.613 . S
S334 N336 1.610 . S
N335 S334 1.613 . S
N335 C338 1.350 . S
N336 S334 1.610 . S
N336 C337 1.351 . S
C337 C331 1.428 . S
C337 N336 1.351 . S
C337 C338 1.434 . S
C338 C329 1.429 . S
C338 N335 1.350 . S
C338 C337 1.434 . S
C339 C340 1.369 1_565 S
C339 C341 1.419 . S
C339 H343 0.930 . S
C340 C339 1.369 1_545 S
C340 C349 1.429 . S
C341 C339 1.419 . S
C341 C342 1.363 1_565 S
C341 H344 0.929 . S
C342 C341 1.363 1_545 S
C342 C348 1.428 . S
H343 C339 0.930 . S
H344 C341 0.929 . S
S345 N346 1.613 . S
S345 N347 1.610 . S
N346 S345 1.613 . S
N346 C349 1.350 . S
N347 S345 1.610 . S
N347 C348 1.351 . S
C348 C342 1.428 . S
C348 N347 1.351 . S
C348 C349 1.434 . S
C349 C340 1.429 . S
C349 N346 1.350 . S
C349 C348 1.434 . S
C350 C351 1.369 . S
C350 C352 1.419 . S
C350 H354 0.930 . S
C351 C350 1.369 . S
C351 C360 1.429 . S
C352 C350 1.419 . S
C352 C353 1.363 1_556 S
C352 H355 0.929 1_556 S
C353 C352 1.363 1_554 S
C353 C359 1.428 1_554 S
H354 C350 0.930 . S
H355 C352 0.929 1_554 S
S356 N357 1.613 . S
S356 N358 1.610 . S
N357 S356 1.613 . S
N357 C360 1.350 . S
N358 S356 1.610 . S
N358 C359 1.351 . S
C359 C353 1.428 1_556 S
C359 N358 1.351 . S
C359 C360 1.434 . S
C360 C351 1.429 . S
C360 N357 1.350 . S
C360 C359 1.434 . S
C361 C362 1.369 1_655 S
C361 C363 1.419 . S
C361 H365 0.930 . S
C362 C361 1.369 1_455 S
C362 C371 1.429 . S
C363 C361 1.419 . S
C363 C364 1.363 1_655 S
C363 H366 0.929 . S
C364 C363 1.363 1_455 S
C364 C370 1.428 . S
H365 C361 0.930 . S
H366 C363 0.929 . S
S367 N368 1.613 . S
S367 N369 1.610 . S
N368 S367 1.613 . S
N368 C371 1.350 . S
N369 S367 1.610 . S
N369 C370 1.351 . S
C370 C364 1.428 . S
C370 N369 1.351 . S
C370 C371 1.434 . S
C371 C362 1.429 . S
C371 N368 1.350 . S
C371 C370 1.434 . S
C175 C25 0.948 . S
C177 C169 1.053 . S
C186 C65 0.927 . S
C188 C151 1.063 . S
C197 C105 1.028 . S
C199 C163 1.200 . S
C208 C4 1.043 . S
C210 C172 1.180 . S
C221 C154 1.036 . S
C219 C44 0.932 . S
C232 C160 1.055 . S
C230 C84 0.960 . S
C241 C60 2.944 . S
C243 C133 2.914 . S
C252 C100 3.024 . S
C254 C142 2.982 1_655 S
C263 C31 3.020 . S
C265 C124 2.996 . S
C276 C136 3.012 . S
C274 C71 3.030 . S
C287 C145 2.950 . S
C285 C111 2.945 . S
C296 C20 2.957 . S
C298 C127 2.926 . S
C309 C143 1.844 . S
C307 C2 1.769 . S
C318 C42 1.783 . S
C320 C125 1.839 . S
C329 C82 1.769 . S
C331 C134 1.843 . S
C342 C161 0.890 . S
C340 C63 0.897 . S
C353 C170 0.977 . S
C351 C103 0.986 . S
C362 C23 0.861 . S
C364 C152 0.857 . S
