# Generated by pormake.
# Topology pyr, (3,6)-cn, num edge types: 1
# Building blocks:
#     Node 0, Type 0, BuildingBlock: QEWDON_clean_linker_0, # of connection points: 3
#     Node 1, Type 0, BuildingBlock: QEWDON_clean_linker_0, # of connection points: 3
#     Node 2, Type 0, BuildingBlock: QEWDON_clean_linker_0, # of connection points: 3
#     Node 3, Type 0, BuildingBlock: QEWDON_clean_linker_0, # of connection points: 3
#     Node 4, Type 0, BuildingBlock: QEWDON_clean_linker_0, # of connection points: 3
#     Node 5, Type 0, BuildingBlock: QEWDON_clean_linker_0, # of connection points: 3
#     Node 6, Type 0, BuildingBlock: QEWDON_clean_linker_0, # of connection points: 3
#     Node 7, Type 0, BuildingBlock: QEWDON_clean_linker_0, # of connection points: 3
#     Node 8, Type 1, BuildingBlock: LEVNOQ01_clean_sbu_1, # of connection points: 6
#     Node 9, Type 1, BuildingBlock: LEVNOQ01_clean_sbu_1, # of connection points: 6
#     Node 10, Type 1, BuildingBlock: LEVNOQ01_clean_sbu_1, # of connection points: 6
#     Node 11, Type 1, BuildingBlock: LEVNOQ01_clean_sbu_1, # of connection points: 6
#     Edge 12, Type (0, 1), BuildingBlock: XIVTED_clean_linker_0, # of connection points: 2
#     Edge 13, Type (0, 1), BuildingBlock: XIVTED_clean_linker_0, # of connection points: 2
#     Edge 14, Type (0, 1), BuildingBlock: XIVTED_clean_linker_0, # of connection points: 2
#     Edge 15, Type (0, 1), BuildingBlock: XIVTED_clean_linker_0, # of connection points: 2
#     Edge 16, Type (0, 1), BuildingBlock: XIVTED_clean_linker_0, # of connection points: 2
#     Edge 17, Type (0, 1), BuildingBlock: XIVTED_clean_linker_0, # of connection points: 2
#     Edge 18, Type (0, 1), BuildingBlock: XIVTED_clean_linker_0, # of connection points: 2
#     Edge 19, Type (0, 1), BuildingBlock: XIVTED_clean_linker_0, # of connection points: 2
#     Edge 20, Type (0, 1), BuildingBlock: XIVTED_clean_linker_0, # of connection points: 2
#     Edge 21, Type (0, 1), BuildingBlock: XIVTED_clean_linker_0, # of connection points: 2
#     Edge 22, Type (0, 1), BuildingBlock: XIVTED_clean_linker_0, # of connection points: 2
#     Edge 23, Type (0, 1), BuildingBlock: XIVTED_clean_linker_0, # of connection points: 2
#     Edge 24, Type (0, 1), BuildingBlock: XIVTED_clean_linker_0, # of connection points: 2
#     Edge 25, Type (0, 1), BuildingBlock: XIVTED_clean_linker_0, # of connection points: 2
#     Edge 26, Type (0, 1), BuildingBlock: XIVTED_clean_linker_0, # of connection points: 2
#     Edge 27, Type (0, 1), BuildingBlock: XIVTED_clean_linker_0, # of connection points: 2
#     Edge 28, Type (0, 1), BuildingBlock: XIVTED_clean_linker_0, # of connection points: 2
#     Edge 29, Type (0, 1), BuildingBlock: XIVTED_clean_linker_0, # of connection points: 2
#     Edge 30, Type (0, 1), BuildingBlock: XIVTED_clean_linker_0, # of connection points: 2
#     Edge 31, Type (0, 1), BuildingBlock: XIVTED_clean_linker_0, # of connection points: 2
#     Edge 32, Type (0, 1), BuildingBlock: XIVTED_clean_linker_0, # of connection points: 2
#     Edge 33, Type (0, 1), BuildingBlock: XIVTED_clean_linker_0, # of connection points: 2
#     Edge 34, Type (0, 1), BuildingBlock: XIVTED_clean_linker_0, # of connection points: 2
#     Edge 35, Type (0, 1), BuildingBlock: XIVTED_clean_linker_0, # of connection points: 2
# Relax obj value: 0.133
# Max RMSD: 0.252
# Mean RMSD: 0.189
data_MOF--net-pry--node1-LEVNOQ01_clean_sbu_1--node2-QEWDON_clean_linker_0--edge1-XIVTED_clean_linker_0
_symmetry_space_group_name_H-M    P1
_symmetry_Int_Tables_number       1
_symmetry_cell_setting            triclinic
loop_
_symmetry_equiv_pos_as_xyz
'x, y, z'
_cell_length_a     36.900499
_cell_length_b     35.855729
_cell_length_c     38.062278
_cell_angle_alpha  92.208822
_cell_angle_beta   91.878146
_cell_angle_gamma 103.80125
loop_
_atom_site_label
_atom_site_type_symbol
_atom_site_fract_x
_atom_site_fract_y
_atom_site_fract_z
_atom_type_partial_charge
H0 H 0.20563 0.22349 0.13521 0.0
C1 C 0.19139 0.20933 0.15728 0.0
C2 C 0.20033 0.17583 0.16968 0.0
C3 C 0.16641 0.22675 0.17487 0.0
H4 H 0.1901 0.13444 0.21015 0.0
C5 C 0.18227 0.15905 0.19935 0.0
C6 C 0.15668 0.17584 0.21712 0.0
C7 C 0.14883 0.20955 0.20435 0.0
C8 C 0.16726 0.26765 0.16926 0.0
H9 H 0.13035 0.22371 0.21834 0.0
C10 C 0.14602 0.2798 0.14223 0.0
C11 C 0.1493 0.31959 0.13824 0.0
C12 C 0.19093 0.29526 0.19209 0.0
H13 H 0.20734 0.2865 0.21297 0.0
C14 C 0.19396 0.33428 0.18822 0.0
H15 H 0.12749 0.25874 0.12458 0.0
C16 C 0.17346 0.34638 0.1615 0.0
H17 H 0.17608 0.37695 0.15929 0.0
H18 H 0.21227 0.35526 0.20605 0.0
H19 H 0.35523 0.94509 0.73048 0.0
C20 C 0.37718 0.93516 0.71763 0.0
C21 C 0.41311 0.94112 0.73429 0.0
C22 C 0.36813 0.91283 0.68597 0.0
H23 H 0.46763 0.92886 0.72967 0.0
C24 C 0.43983 0.9247 0.71779 0.0
C25 C 0.43056 0.90101 0.68683 0.0
C26 C 0.39511 0.89659 0.67058 0.0
C27 C 0.32879 0.89832 0.67303 0.0
H28 H 0.38695 0.8772 0.64758 0.0
C29 C 0.30765 0.92227 0.65823 0.0
C30 C 0.27105 0.90616 0.64407 0.0
C31 C 0.31301 0.85866 0.674 0.0
H32 H 0.32878 0.83979 0.68529 0.0
C33 C 0.27718 0.84276 0.65999 0.0
H34 H 0.3197 0.95288 0.65749 0.0
C35 C 0.25647 0.86615 0.6449 0.0
H36 H 0.22904 0.85261 0.63336 0.0
H37 H 0.26553 0.81209 0.66046 0.0
H38 H 0.65783 0.47798 0.93236 0.0
C39 C 0.64623 0.44773 0.93613 0.0
C40 C 0.66733 0.4261 0.95409 0.0
C41 C 0.611 0.43004 0.92074 0.0
H42 H 0.66793 0.36937 0.97068 0.0
C43 C 0.65233 0.38648 0.95646 0.0
C44 C 0.61773 0.36831 0.93985 0.0
C45 C 0.59666 0.39042 0.92272 0.0
C46 C 0.59244 0.45191 0.89748 0.0
H47 H 0.57032 0.37661 0.9091 0.0
C48 C 0.60734 0.46117 0.86475 0.0
C49 C 0.5912 0.48311 0.84228 0.0
C50 C 0.56077 0.464 0.90765 0.0
H51 H 0.54898 0.45678 0.93291 0.0
C52 C 0.54458 0.48609 0.88527 0.0
H53 H 0.63173 0.45151 0.8569 0.0
C54 C 0.55984 0.49587 0.85274 0.0
H55 H 0.54685 0.51277 0.83555 0.0
H56 H 0.52023 0.49566 0.89312 0.0
H57 H 0.90238 0.67417 0.38679 0.0
C58 C 0.89055 0.66354 0.41116 0.0
C59 C 0.90407 0.68456 0.44292 0.0
C60 C 0.85931 0.63179 0.4104 0.0
H61 H 0.89549 0.68958 0.49849 0.0
C62 C 0.88702 0.67236 0.47426 0.0
C63 C 0.85474 0.64248 0.47383 0.0
C64 C 0.84282 0.6206 0.44242 0.0
C65 C 0.84004 0.61476 0.37609 0.0
H66 H 0.81824 0.59708 0.44248 0.0
C67 C 0.85997 0.6143 0.3451 0.0
C68 C 0.84108 0.60148 0.31242 0.0
C69 C 0.80075 0.60137 0.37354 0.0
H70 H 0.78374 0.60272 0.39591 0.0
C71 C 0.78223 0.58731 0.34152 0.0
H72 H 0.89012 0.62401 0.3462 0.0
C73 C 0.80212 0.58749 0.31113 0.0
H74 H 0.78679 0.57789 0.28638 0.0
H75 H 0.7521 0.57727 0.3401 0.0
H76 H 0.85152 0.88897 0.91916 0.0
C77 C 0.86637 0.90093 0.89655 0.0
C78 C 0.89945 0.89016 0.88703 0.0
C79 C 0.85162 0.92623 0.87614 0.0
H80 H 0.94148 0.89601 0.84748 0.0
C81 C 0.91715 0.90503 0.85628 0.0
C82 C 0.90343 0.93147 0.83657 0.0
C83 C 0.87149 0.94252 0.84736 0.0
C84 C 0.81342 0.93254 0.88099 0.0
H85 H 0.86083 0.9627 0.83192 0.0
C86 C 0.80001 0.94099 0.91417 0.0
C87 C 0.7643 0.94899 0.91598 0.0
C88 C 0.78998 0.93076 0.85065 0.0
H89 H 0.7987 0.92315 0.82499 0.0
C90 C 0.75508 0.93878 0.85265 0.0
H91 H 0.81719 0.942 0.93798 0.0
C92 C 0.74242 0.94808 0.88498 0.0
H93 H 0.71501 0.95405 0.88592 0.0
H94 H 0.73769 0.93766 0.82899 0.0
H95 H 0.68725 0.1937 0.48466 0.0
C96 C 0.67616 0.18317 0.45846 0.0
C97 C 0.697 0.165 0.43617 0.0
C98 C 0.64071 0.18729 0.44724 0.0
H99 H 0.6969 0.13484 0.38618 0.0
C100 C 0.68157 0.15038 0.40272 0.0
C101 C 0.64597 0.15389 0.39111 0.0
C102 C 0.62581 0.17275 0.41364 0.0
C103 C 0.61687 0.20115 0.47263 0.0
H104 H 0.59819 0.17549 0.40546 0.0
C105 C 0.61359 0.23961 0.47435 0.0
C106 C 0.59069 0.25164 0.49939 0.0
C107 C 0.59699 0.17486 0.49553 0.0
H108 H 0.59915 0.14522 0.49443 0.0
C109 C 0.57399 0.18641 0.51983 0.0
H110 H 0.62921 0.25998 0.4568 0.0
C111 C 0.5708 0.22437 0.52179 0.0
H112 H 0.55226 0.23226 0.54067 0.0
H113 H 0.55849 0.16581 0.53722 0.0
H114 H 0.41904 0.72066 0.2459 0.0
C115 C 0.4007 0.71587 0.22248 0.0
C116 C 0.3989 0.7468 0.2018 0.0
C117 C 0.37775 0.67906 0.21356 0.0
H118 H 0.37215 0.76549 0.15705 0.0
C119 C 0.37435 0.74106 0.17226 0.0
C120 C 0.35061 0.70497 0.16368 0.0
C121 C 0.35312 0.6737 0.18382 0.0
C122 C 0.37638 0.64732 0.23745 0.0
H123 H 0.33384 0.64599 0.1781 0.0
C124 C 0.37321 0.65386 0.27365 0.0
C125 C 0.37262 0.62449 0.29714 0.0
C126 C 0.37743 0.61048 0.22438 0.0
H127 H 0.37965 0.60475 0.19648 0.0
C128 C 0.37626 0.5809 0.24742 0.0
H129 H 0.37093 0.68195 0.28343 0.0
C130 C 0.37418 0.58782 0.28357 0.0
H131 H 0.37481 0.56469 0.30086 0.0
H132 H 0.3776 0.55265 0.23729 0.0
H133 H 0.16942 0.46855 0.66882 0.0
C134 C 0.14968 0.45444 0.64798 0.0
C135 C 0.16285 0.44922 0.61431 0.0
C136 C 0.11206 0.4394 0.65518 0.0
H137 H 0.15 0.4185 0.56422 0.0
C138 C 0.13871 0.42545 0.58877 0.0
C139 C 0.10084 0.40985 0.59555 0.0
C140 C 0.08743 0.4214 0.62731 0.0
C141 C 0.09933 0.43675 0.69215 0.0
H142 H 0.05784 0.41357 0.6316 0.0
C143 C 0.11726 0.46315 0.7195 0.0
C144 C 0.10732 0.45722 0.75463 0.0
C145 C 0.07066 0.40506 0.70088 0.0
H146 H 0.05703 0.38301 0.68139 0.0
C147 C 0.05975 0.40024 0.73532 0.0
H148 H 0.13921 0.48786 0.71382 0.0
C149 C 0.07793 0.42598 0.76204 0.0
H150 H 0.06874 0.42154 0.78863 0.0
H151 H 0.03747 0.37601 0.74142 0.0
O152 O 0.02571 0.07309 0.61535 0.0
Mg153 Mg 0.0611 0.10311 0.57798 0.0
O154 O 0.98533 0.03482 0.57721 0.0
Mg155 Mg 0.00568 0.05451 0.51992 0.0
O156 O 0.03064 0.11769 0.53803 0.0
O157 O 0.06808 0.16101 0.57512 0.0
O158 O 0.03287 0.07798 0.46417 0.0
O159 O 0.94969 0.07675 0.51325 0.0
Mg160 Mg 0.97317 0.02584 0.46416 0.0
O161 O 0.97865 0.98792 0.50223 0.0
O162 O 0.01212 0.0296 0.42638 0.0
O163 O 0.93705 0.062 0.45745 0.0
O164 O 0.93828 0.97444 0.45544 0.0
C165 C 0.09452 0.04677 0.5428 0.0
C166 C 0.99692 0.04583 0.60903 0.0
C167 C 0.04477 0.15324 0.54832 0.0
C168 C 0.03414 0.06168 0.43373 0.0
C169 C 0.93042 0.07867 0.48527 0.0
C170 C 0.95467 0.96309 0.48185 0.0
O171 O 0.10337 0.07908 0.5594 0.0
O172 O 0.06117 0.03313 0.53008 0.0
O173 O 0.46261 0.13137 0.1056 0.0
Mg174 Mg 0.51868 0.13017 0.10111 0.0
O175 O 0.44058 0.07119 0.08521 0.0
Mg176 Mg 0.4943 0.04794 0.06982 0.0
O177 O 0.52746 0.10737 0.05343 0.0
O178 O 0.55028 0.16924 0.07105 0.0
O179 O 0.5454 0.02331 0.05323 0.0
O180 O 0.47249 0.04035 0.00935 0.0
Mg181 Mg 0.46237 0.96097 0.03772 0.0
O182 O 0.46225 0.98929 0.08448 0.0
O183 O 0.5204 0.9642 0.03033 0.0
O184 O 0.43342 0.98348 0.99849 0.0
O185 O 0.43396 0.9277 0.07625 0.0
C186 C 0.53914 0.07944 0.15095 0.0
C187 C 0.43521 0.1032 0.09752 0.0
C188 C 0.54588 0.14189 0.04709 0.0
C189 C 0.54886 0.99155 0.03861 0.0
C190 C 0.44887 0.01664 0.98877 0.0
C191 C 0.44461 0.95765 0.09731 0.0
O192 O 0.54705 0.11422 0.14324 0.0
O193 O 0.51884 0.0534 0.12987 0.0
O194 O 0.51388 0.6436 0.65693 0.0
Mg195 Mg 0.50303 0.58361 0.65794 0.0
O196 O 0.51724 0.64864 0.59896 0.0
Mg197 Mg 0.52382 0.58832 0.57404 0.0
O198 O 0.53905 0.56827 0.62542 0.0
O199 O 0.54019 0.55557 0.6815 0.0
O200 O 0.53123 0.52907 0.54986 0.0
O201 O 0.58804 0.61437 0.57017 0.0
Mg202 Mg 0.55148 0.59673 0.49482 0.0
O203 O 0.50836 0.60827 0.52141 0.0
O204 O 0.5473 0.5365 0.49434 0.0
O205 O 0.60168 0.63224 0.51607 0.0
O206 O 0.5156 0.6199 0.4649 0.0
C207 C 0.43778 0.5513 0.60533 0.0
C208 C 0.51547 0.66356 0.62993 0.0
C209 C 0.55399 0.5541 0.65094 0.0
C210 C 0.53984 0.51542 0.5205 0.0
C211 C 0.61129 0.63079 0.54814 0.0
C212 C 0.49665 0.62035 0.49273 0.0
O213 O 0.44961 0.5556 0.6373 0.0
O214 O 0.4595 0.5613 0.57995 0.0
O215 O 0.04506 0.53367 0.0834 0.0
Mg216 Mg 0.04826 0.59217 0.08767 0.0
O217 O 0.03548 0.53868 0.0265 0.0
Mg218 Mg 0.02067 0.60042 0.01847 0.0
O219 O 1.00034 0.60903 0.07633 0.0
O220 O 0.02499 0.60579 0.13099 0.0
O221 O 0.00504 0.66104 0.00776 0.0
O222 O 0.95859 0.56688 0.00798 0.0
Mg223 Mg 0.99187 0.60558 0.93979 0.0
O224 O 0.03825 0.59329 0.96199 0.0
O225 O 0.99304 0.6632 0.95024 0.0
O226 O 0.94222 0.56612 0.95126 0.0
O227 O 0.02751 0.59311 0.90392 0.0
C228 C 0.10734 0.64293 0.05303 0.0
C229 C 0.04161 0.51894 0.05252 0.0
C230 C 0.99872 0.61198 0.11053 0.0
C231 C 0.99712 0.67888 0.98091 0.0
C232 C 0.93476 0.55639 0.98232 0.0
C233 C 0.04891 0.5891 0.9303 0.0
O234 O 0.09934 0.63018 0.08287 0.0
O235 O 0.08361 0.63461 0.02714 0.0
H236 H 0.14558 0.21567 0.27775 0.0
H237 H 0.05702 0.02529 0.37817 0.0
H238 H 0.13192 0.10015 0.23372 0.0
H239 H 0.06566 0.13906 0.42425 0.0
H240 H 0.0886 0.05329 0.32707 0.0
H241 H 0.11935 0.18934 0.33229 0.0
C242 C 0.13681 0.18476 0.27933 0.0
C243 C 0.14072 0.16015 0.25069 0.0
C244 C 0.08394 0.07233 0.34832 0.0
C245 C 0.11133 0.12981 0.31375 0.0
C246 C 0.06593 0.05633 0.37771 0.0
C247 C 0.05842 0.07983 0.40559 0.0
C248 C 0.09461 0.1124 0.34631 0.0
C249 C 0.07096 0.11984 0.40345 0.0
C250 C 0.12214 0.16978 0.31071 0.0
C251 C 0.12973 0.12035 0.25496 0.0
N252 N 0.08816 0.13491 0.37412 0.0
N253 N 0.11552 0.10653 0.28572 0.0
H254 H 0.38332 0.99799 0.76546 0.0
H255 H 0.50537 0.01968 0.94494 0.0
H256 H 0.46132 0.92804 0.78738 0.0
H257 H 0.38868 0.01962 0.94574 0.0
H258 H 0.49907 0.00652 0.88095 0.0
H259 H 0.39364 0.02443 0.8263 0.0
C260 C 0.40269 0.98816 0.78264 0.0
C261 C 0.42135 0.96041 0.77053 0.0
C262 C 0.47516 0.01061 0.89501 0.0
C263 C 0.43434 0.99218 0.84001 0.0
C264 C 0.47885 0.01872 0.93137 0.0
C265 C 0.44767 0.02163 0.95045 0.0
C266 C 0.4402 0.00612 0.8775 0.0
C267 C 0.41351 0.01838 0.93181 0.0
C268 C 0.40871 0.00361 0.81735 0.0
C269 C 0.44681 0.94991 0.79446 0.0
N270 N 0.41064 0.01083 0.8963 0.0
N271 N 0.45259 0.96586 0.82778 0.0
H272 H 0.61594 0.55346 0.81576 0.0
H273 H 0.62729 0.59178 0.65494 0.0
H274 H 0.60174 0.43249 0.79071 0.0
H275 H 0.55478 0.47868 0.64256 0.0
H276 H 0.6628 0.56969 0.70163 0.0
H277 H 0.63415 0.56709 0.75584 0.0
C278 C 0.61744 0.52989 0.79762 0.0
C279 C 0.60672 0.49189 0.80763 0.0
C280 C 0.63996 0.54919 0.68781 0.0
C281 C 0.628 0.50691 0.73909 0.0
C282 C 0.62023 0.56153 0.66048 0.0
C283 C 0.5863 0.53766 0.64745 0.0
C284 C 0.62512 0.51293 0.70111 0.0
C285 C 0.57959 0.49854 0.65398 0.0
C286 C 0.62859 0.53759 0.76355 0.0
C287 C 0.60949 0.4622 0.78356 0.0
N288 N 0.59742 0.4876 0.68206 0.0
N289 N 0.6188 0.47024 0.74998 0.0
H290 H 0.83078 0.54953 0.25598 0.0
H291 H 0.99701 0.6742 0.15154 0.0
H292 H 0.89704 0.66109 0.29295 0.0
H293 H 0.92952 0.5647 0.11185 0.0
H294 H 0.95398 0.67448 0.19883 0.0
H295 H 0.86179 0.55737 0.20008 0.0
C296 C 0.8518 0.57573 0.2523 0.0
C297 C 0.8614 0.60466 0.27925 0.0
C298 C 0.94783 0.65083 0.17928 0.0
C299 C 0.89694 0.61386 0.21526 0.0
C300 C 0.97203 0.65107 0.15195 0.0
C301 C 0.96629 0.6197 0.12768 0.0
C302 C 0.91818 0.61853 0.1827 0.0
C303 C 0.93433 0.58975 0.12979 0.0
C304 C 0.86942 0.58021 0.22035 0.0
C305 C 0.88914 0.63778 0.27317 0.0
N306 N 0.91174 0.5895 0.15735 0.0
N307 N 0.90596 0.64143 0.24186 0.0
H308 H 0.20801 0.10073 0.16062 0.0
H309 H 0.41577 0.17075 0.09362 0.0
H310 H 0.26591 0.21832 0.14538 0.0
H311 H 0.36824 0.0514 0.11202 0.0
H312 H 0.35733 0.1858 0.10759 0.0
H313 H 0.26265 0.07971 0.13954 0.0
C314 C 0.23194 0.12215 0.15269 0.0
C315 C 0.23188 0.1615 0.15463 0.0
C316 C 0.35924 0.15619 0.10852 0.0
C317 C 0.29439 0.13745 0.13019 0.0
C318 C 0.39283 0.1475 0.10046 0.0
C319 C 0.39723 0.10977 0.10196 0.0
C320 C 0.32922 0.12712 0.11857 0.0
C321 C 0.36611 0.0809 0.11054 0.0
C322 C 0.26305 0.11003 0.14052 0.0
C323 C 0.26377 0.18769 0.1437 0.0
N324 N 0.33342 0.09023 0.11892 0.0
N325 N 0.29342 0.1752 0.13213 0.0
H326 H 0.29196 0.96726 0.60074 0.0
H327 H 0.08003 0.96974 0.55234 0.0
H328 H 0.19617 0.89882 0.64979 0.0
H329 H 0.17035 0.06968 0.54194 0.0
H330 H 0.12517 0.93521 0.57465 0.0
H331 H 0.25007 0.99978 0.5689 0.0
C332 C 0.26231 0.95927 0.60507 0.0
C333 C 0.24755 0.9298 0.62762 0.0
C334 C 0.13516 0.96447 0.56678 0.0
C335 C 0.19968 0.96578 0.59049 0.0
C336 C 0.1095 0.98393 0.55351 0.0
C337 C 0.12155 0.02256 0.54536 0.0
C338 C 0.17308 0.98369 0.57149 0.0
C339 C 0.16003 0.03987 0.54806 0.0
C340 C 0.23845 0.97752 0.58662 0.0
C341 C 0.20879 0.92055 0.63199 0.0
N342 N 0.18448 0.02042 0.56119 0.0
N343 N 0.18627 0.93815 0.61338 0.0
H344 H 0.72778 0.39398 0.95361 0.0
H345 H 0.87701 0.58986 0.98281 0.0
H346 H 0.69653 0.49929 0.98315 0.0
H347 H 0.90504 0.48103 0.99512 0.0
H348 H 0.81065 0.55771 0.98406 0.0
H349 H 0.7924 0.42495 0.96992 0.0
C350 C 0.73422 0.42337 0.96423 0.0
C351 C 0.70635 0.44394 0.96699 0.0
C352 C 0.83123 0.5409 0.98723 0.0
C353 C 0.78099 0.48 0.98463 0.0
C354 C 0.86897 0.5592 0.98652 0.0
C355 C 0.89603 0.53783 0.98899 0.0
C356 C 0.82066 0.50083 0.98959 0.0
C357 C 0.88469 0.49828 0.99333 0.0
C358 C 0.77133 0.44111 0.97335 0.0
C359 C 0.71701 0.4824 0.97996 0.0
N360 N 0.84765 0.48084 0.99299 0.0
N361 N 0.75357 0.49934 0.98787 0.0
H362 H 0.80869 0.57999 0.50323 0.0
H363 H 0.66215 0.69533 0.53224 0.0
H364 H 0.83767 0.7042 0.50727 0.0
H365 H 0.65131 0.58716 0.58139 0.0
H366 H 0.72914 0.70107 0.52875 0.0
H367 H 0.75362 0.58167 0.53711 0.0
C368 C 0.80418 0.60752 0.51213 0.0
C369 C 0.82782 0.64192 0.50214 0.0
C370 C 0.71243 0.67665 0.54141 0.0
C371 C 0.76493 0.64404 0.54039 0.0
C372 C 0.67426 0.67355 0.54355 0.0
C373 C 0.65147 0.64085 0.5572 0.0
C374 C 0.72753 0.64609 0.55175 0.0
C375 C 0.66822 0.61298 0.57096 0.0
C376 C 0.77287 0.60848 0.53157 0.0
C377 C 0.82064 0.67684 0.5145 0.0
N378 N 0.70521 0.61561 0.5669 0.0
N379 N 0.78947 0.67696 0.53227 0.0
H380 H 0.07336 0.30971 0.13127 0.0
H381 H 0.09667 0.49644 0.01693 0.0
H382 H 0.17607 0.36697 0.08596 0.0
H383 H 1.00362 0.45423 0.08178 0.0
H384 H 0.11899 0.43831 0.02764 0.0
H385 H 0.04069 0.35094 0.09892 0.0
C386 C 0.08872 0.32998 0.11349 0.0
C387 C 0.12742 0.33497 0.11124 0.0
C388 C 0.09305 0.44119 0.03864 0.0
C389 C 0.09058 0.38284 0.07481 0.0
C390 C 0.08006 0.47412 0.0321 0.0
C391 C 0.04803 0.47986 0.04816 0.0
C392 C 0.07377 0.41382 0.06133 0.0
C393 C 0.02823 0.45064 0.06861 0.0
C394 C 0.0702 0.35384 0.09534 0.0
C395 C 0.14617 0.36221 0.08834 0.0
N396 N 0.04156 0.41914 0.07488 0.0
N397 N 0.12773 0.38541 0.07141 0.0
H398 H 0.65834 0.31639 0.92355 0.0
H399 H 0.61632 0.16453 0.02589 0.0
H400 H 0.54837 0.32407 0.95297 0.0
H401 H 0.50114 0.14877 0.99166 0.0
H402 H 0.63424 0.21277 0.98253 0.0
H403 H 0.64089 0.2472 0.93157 0.0
C404 C 0.63043 0.30336 0.93155 0.0
C405 C 0.60516 0.32599 0.93897 0.0
C406 C 0.60521 0.19739 0.98286 0.0
C407 C 0.58522 0.24727 0.94838 0.0
C408 C 0.59509 0.16956 0.00755 0.0
C409 C 0.55736 0.15273 0.01195 0.0
C410 C 0.57715 0.20903 0.96335 0.0
C411 C 0.5306 0.16105 0.98857 0.0
C412 C 0.6205 0.26396 0.936 0.0
C413 C 0.56888 0.30765 0.94775 0.0
N414 N 0.54086 0.18982 0.96606 0.0
N415 N 0.56017 0.26931 0.9529 0.0
H416 H 0.90036 0.7385 0.39506 0.0
H417 H 1.0028 0.92367 0.5121 0.0
H418 H 0.95914 0.7233 0.4915 0.0
H419 H 0.89732 0.90729 0.45389 0.0
H420 H 1.00095 0.85502 0.49959 0.0
H421 H 0.91921 0.80743 0.40644 0.0
C422 C 0.91841 0.74946 0.41802 0.0
C423 C 0.92725 0.72473 0.44285 0.0
C424 C 0.97823 0.86672 0.48997 0.0
C425 C 0.94752 0.80407 0.4567 0.0
C426 C 0.97893 0.90555 0.49751 0.0
C427 C 0.95029 0.92123 0.48377 0.0
C428 C 0.94912 0.84424 0.46809 0.0
C429 C 0.92024 0.89664 0.46468 0.0
C430 C 0.92856 0.789 0.42482 0.0
C431 C 0.95074 0.74132 0.47217 0.0
N432 N 0.92076 0.85967 0.45698 0.0
N433 N 0.95935 0.78009 0.47885 0.0
H434 H 0.444 0.87746 0.61922 0.0
H435 H 0.51112 0.70011 0.69277 0.0
H436 H 0.4696 0.86263 0.72853 0.0
H437 H 0.50961 0.71864 0.58126 0.0
H438 H 0.49773 0.76163 0.70429 0.0
H439 H 0.47079 0.82302 0.6029 0.0
C440 C 0.45587 0.86333 0.63974 0.0
C441 C 0.45422 0.87466 0.67541 0.0
C442 C 0.5009 0.75287 0.67724 0.0
C443 C 0.48471 0.81235 0.65683 0.0
C444 C 0.50858 0.71735 0.67049 0.0
C445 C 0.5116 0.70374 0.63583 0.0
C446 C 0.49604 0.77576 0.64931 0.0
C447 C 0.50758 0.72786 0.60839 0.0
C448 C 0.47117 0.83229 0.63034 0.0
C449 C 0.47043 0.85551 0.70073 0.0
N450 N 0.49968 0.76269 0.61569 0.0
N451 N 0.48447 0.82518 0.69096 0.0
H452 H 0.92874 0.00658 0.82195 0.0
H453 H 0.95917 0.96952 0.61646 0.0
H454 H 0.91543 0.89223 0.77592 0.0
H455 H 0.99359 0.07941 0.67332 0.0
H456 H 0.93756 0.93981 0.67203 0.0
H457 H 0.9488 0.03302 0.76572 0.0
C458 C 0.93056 0.98705 0.8 0.0
C459 C 0.92077 0.9472 0.80372 0.0
C460 C 0.94968 0.97046 0.67213 0.0
C461 C 0.94295 0.97726 0.7385 0.0
C462 C 0.96159 0.98747 0.64037 0.0
C463 C 0.97822 0.02708 0.64015 0.0
C464 C 0.95409 0.99336 0.70366 0.0
C465 C 0.98113 0.04879 0.6721 0.0
C466 C 0.94183 0.00211 0.76776 0.0
C467 C 0.92328 0.92317 0.77425 0.0
N468 N 0.9693 0.03175 0.70227 0.0
N469 N 0.93386 0.93853 0.74277 0.0
H470 H 0.68226 0.15222 0.32951 0.0
H471 H 0.49953 0.05813 0.20931 0.0
H472 H 0.57302 0.1163 0.37204 0.0
H473 H 0.6111 0.08778 0.17184 0.0
H474 H 0.52558 0.07093 0.27013 0.0
H475 H 0.65658 0.12276 0.27267 0.0
C476 C 0.65287 0.13789 0.32705 0.0
C477 C 0.6299 0.13682 0.35588 0.0
C478 C 0.54443 0.07353 0.24866 0.0
C479 C 0.5999 0.10318 0.29008 0.0
C480 C 0.52957 0.06553 0.21402 0.0
C481 C 0.55331 0.07128 0.18568 0.0
C482 C 0.58322 0.08773 0.25471 0.0
C483 C 0.59194 0.08237 0.19305 0.0
C484 C 0.63814 0.12107 0.29441 0.0
C485 C 0.59178 0.11841 0.35056 0.0
N486 N 0.60563 0.09069 0.22672 0.0
N487 N 0.57797 0.10247 0.31831 0.0
H488 H 0.40738 0.69149 0.33414 0.0
H489 H 0.4266 0.57506 0.49445 0.0
H490 H 0.3399 0.57728 0.34872 0.0
H491 H 0.4879 0.69125 0.4805 0.0
H492 H 0.37647 0.5851 0.45515 0.0
H493 H 0.41823 0.70107 0.39713 0.0
C494 C 0.39396 0.66862 0.35051 0.0
C495 C 0.37355 0.63297 0.33575 0.0
C496 C 0.40006 0.60907 0.46186 0.0
C497 C 0.38744 0.64338 0.40848 0.0
C498 C 0.42842 0.60345 0.48475 0.0
C499 C 0.46156 0.63212 0.48964 0.0
C500 C 0.40574 0.64327 0.44367 0.0
C501 C 0.46284 0.66829 0.4766 0.0
C502 C 0.40036 0.67413 0.38675 0.0
C503 C 0.35719 0.60463 0.35874 0.0
N504 N 0.43585 0.67254 0.45318 0.0
N505 N 0.36532 0.61006 0.3939 0.0
H506 H 0.12499 0.53613 0.75755 0.0
H507 H 0.07252 0.52513 0.94597 0.0
H508 H 0.13166 0.43909 0.81879 0.0
H509 H 0.10444 0.6325 0.89505 0.0
H510 H 0.11292 0.49853 0.90772 0.0
H511 H 0.13673 0.5772 0.81128 0.0
C512 C 0.13012 0.5237 0.78217 0.0
C513 C 0.12578 0.48395 0.78404 0.0
C514 C 0.11253 0.5285 0.90584 0.0
C515 C 0.13812 0.53036 0.84572 0.0
C516 C 0.08971 0.54372 0.92802 0.0
C517 C 0.08472 0.58055 0.92279 0.0
C518 C 0.12936 0.55022 0.87803 0.0
C519 C 0.10723 0.60357 0.89915 0.0
C520 C 0.13676 0.54713 0.81298 0.0
C521 C 0.1332 0.46943 0.81655 0.0
N522 N 0.12773 0.58765 0.87674 0.0
N523 N 0.13783 0.49238 0.84631 0.0
H524 H 0.76324 0.01881 0.94644 0.0
H525 H 0.5666 0.92429 0.01945 0.0
H526 H 0.72252 0.89714 0.9573 0.0
H527 H 0.61665 0.04555 0.03723 0.0
H528 H 0.62587 0.91476 1.00007 0.0
H529 H 0.71441 0.03055 0.98476 0.0
C530 C 0.74511 0.9947 0.95833 0.0
C531 C 0.74723 0.95697 0.94922 0.0
C532 C 0.62424 0.94344 0.00865 0.0
C533 C 0.69014 0.96994 0.99142 0.0
C534 C 0.59017 0.949 0.0196 0.0
C535 C 0.58633 0.98589 0.02984 0.0
C536 C 0.65506 0.97499 1.00733 0.0
C537 C 0.6182 0.01662 0.02952 0.0
C538 C 0.71689 0.00135 0.97976 0.0
C539 C 0.72227 0.92665 0.96425 0.0
N540 N 0.6511 0.01057 0.01797 0.0
N541 N 0.69438 0.93373 0.98401 0.0
H542 H 0.76009 0.178 0.39876 0.0
H543 H 0.88145 0.08864 0.53668 0.0
H544 H 0.71914 0.14024 0.49942 0.0
H545 H 0.91004 0.11497 0.42999 0.0
H546 H 0.82608 0.11534 0.52828 0.0
H547 H 0.81943 0.16329 0.41448 0.0
C548 C 0.76369 0.16672 0.4243 0.0
C549 C 0.73444 0.15992 0.4476 0.0
C550 C 0.84483 0.11564 0.50695 0.0
C551 C 0.80269 0.14275 0.46597 0.0
C552 C 0.87649 0.10069 0.51182 0.0
C553 C 0.9002 0.09942 0.48391 0.0
C554 C 0.83735 0.12972 0.47411 0.0
C555 C 0.89235 0.11503 0.45212 0.0
C556 C 0.79766 0.15834 0.43335 0.0
C557 C 0.74099 0.14593 0.48066 0.0
N558 N 0.86169 0.1293 0.44811 0.0
N559 N 0.77432 0.13739 0.48876 0.0
H560 H 0.3025 0.75107 0.16109 0.0
H561 H 0.16158 0.61519 0.02311 0.0
H562 H 0.32672 0.65161 0.10857 0.0
H563 H 0.14068 0.71481 0.07776 0.0
H564 H 0.22768 0.63628 0.04218 0.0
H565 H 0.24843 0.74507 0.12137 0.0
C566 C 0.29677 0.72836 0.1406 0.0
C567 C 0.31921 0.70198 0.13783 0.0
C568 C 0.20896 0.6543 0.04892 0.0
C569 C 0.25676 0.69448 0.09235 0.0
C570 C 0.17142 0.64263 0.0375 0.0
C571 C 0.14602 0.66353 0.04885 0.0
C572 C 0.22066 0.68687 0.07195 0.0
C573 C 0.15964 0.69819 0.0683 0.0
C574 C 0.2658 0.72487 0.11791 0.0
C575 C 0.30994 0.67244 0.11151 0.0
N576 N 0.19596 0.70845 0.07981 0.0
N577 N 0.27917 0.6693 0.08982 0.0
H578 H 0.20345 0.52145 0.63374 0.0
H579 H 0.39634 0.4987 0.55527 0.0
H580 H 0.21273 0.41696 0.57841 0.0
H581 H 0.38677 0.57628 0.642 0.0
H582 H 0.32751 0.47512 0.55228 0.0
H583 H 0.26954 0.54888 0.62563 0.0
C584 C 0.21938 0.50427 0.61982 0.0
C585 C 0.20253 0.46668 0.60709 0.0
C586 C 0.34069 0.49755 0.57168 0.0
C587 C 0.27834 0.49815 0.59735 0.0
C588 C 0.37973 0.51107 0.57322 0.0
C589 C 0.397 0.5391 0.59912 0.0
C590 C 0.31928 0.51293 0.59573 0.0
C591 C 0.37448 0.55427 0.62191 0.0
C592 C 0.25708 0.52001 0.61506 0.0
C593 C 0.22447 0.44612 0.58851 0.0
N594 N 0.33691 0.541 0.6197 0.0
N595 N 0.26138 0.46203 0.58439 0.0
H596 H 0.8612 0.82747 0.92222 0.0
H597 H 0.04088 0.74713 0.9632 0.0
H598 H 0.97319 0.88913 0.90059 0.0
H599 H 0.93207 0.69517 0.99961 0.0
H600 H 0.01801 0.80272 0.94559 0.0
H601 H 0.88712 0.78169 0.95463 0.0
C602 C 0.89124 0.83183 0.92453 0.0
C603 C 0.91487 0.86247 0.90823 0.0
C604 C 0.99932 0.77976 0.95839 0.0
C605 C 0.94487 0.80921 0.94518 0.0
C606 C 0.01262 0.74832 0.96903 0.0
C607 C 0.98866 0.71706 0.98392 0.0
C608 C 0.96142 0.77953 0.96177 0.0
C609 C 0.95175 0.71923 0.98928 0.0
C610 C 0.90605 0.80541 0.94302 0.0
C611 C 0.95363 0.86572 0.9119 0.0
N612 N 0.93911 0.74958 0.97775 0.0
N613 N 0.9673 0.83939 0.92967 0.0
H614 H 0.37305 0.79693 0.24292 0.0
H615 H 0.3834 0.9381 0.13606 0.0
H616 H 0.46666 0.78697 0.18178 0.0
H617 H 0.5033 0.95976 0.142 0.0
H618 H 0.38045 0.89664 0.18546 0.0
H619 H 0.39119 0.86693 0.23863 0.0
C620 C 0.39852 0.80979 0.23011 0.0
C621 C 0.41834 0.78655 0.2124 0.0
C622 C 0.40764 0.91205 0.17751 0.0
C623 C 0.43825 0.86575 0.2062 0.0
C624 C 0.40922 0.93595 0.14931 0.0
C625 C 0.44357 0.95206 0.13511 0.0
C626 C 0.44061 0.90313 0.19037 0.0
C627 C 0.47628 0.94771 0.15247 0.0
C628 C 0.40859 0.84957 0.22733 0.0
C629 C 0.45075 0.80417 0.19567 0.0
N630 N 0.47398 0.92218 0.17828 0.0
N631 N 0.45931 0.84283 0.19231 0.0
H632 H 0.10729 0.38744 0.52507 0.0
H633 H 0.98402 0.18043 0.56063 0.0
H634 H 0.03956 0.35402 0.61483 0.0
H635 H 0.08435 0.20093 0.50243 0.0
H636 H 0.98403 0.24853 0.5579 0.0
H637 H 0.08009 0.32403 0.49723 0.0
C638 C 0.08653 0.3676 0.53894 0.0
C639 C 0.07731 0.37661 0.57339 0.0
C640 C 0.0051 0.23782 0.54429 0.0
C641 C 0.0445 0.3045 0.54031 0.0
C642 C 0.00479 0.1989 0.54548 0.0
C643 C 0.03426 0.18544 0.53177 0.0
C644 C 0.03532 0.26315 0.52961 0.0
C645 C 0.06113 0.21052 0.51319 0.0
C646 C 0.0706 0.33148 0.5226 0.0
C647 C 0.04841 0.34964 0.58858 0.0
N648 N 0.06158 0.24852 0.51333 0.0
N649 N 0.03361 0.3149 0.57219 0.0
H650 H 0.58839 0.29517 0.55968 0.0
H651 H 0.54652 0.4741 0.46015 0.0
H652 H 0.58356 0.30049 0.44661 0.0
H653 H 0.54502 0.46564 0.57293 0.0
H654 H 0.56071 0.41115 0.45477 0.0
H655 H 0.57465 0.35834 0.56499 0.0
C656 C 0.58446 0.30962 0.53589 0.0
C657 C 0.58665 0.29208 0.50259 0.0
C658 C 0.55714 0.42292 0.4807 0.0
C659 C 0.57108 0.36499 0.50859 0.0
C660 C 0.54889 0.45891 0.48384 0.0
C661 C 0.5445 0.47536 0.5171 0.0
C662 C 0.5613 0.40302 0.51102 0.0
C663 C 0.54791 0.4541 0.54675 0.0
C664 C 0.57666 0.34581 0.53899 0.0
C665 C 0.58222 0.3128 0.47281 0.0
N666 N 0.55628 0.41917 0.54302 0.0
N667 N 0.57443 0.34801 0.47652 0.0
loop_
_geom_bond_atom_site_label_1
_geom_bond_atom_site_label_2
_geom_bond_distance
_geom_bond_site_symmetry_2
_ccdc_geom_bond_type
H0 C1 0.949 . S
C1 H0 0.949 . S
C1 C2 1.395 . S
C1 C3 1.391 . S
C2 C1 1.395 . S
C2 C5 1.390 . S
C3 C1 1.391 . S
C3 C7 1.387 . S
C3 C8 1.491 . S
H4 C5 0.950 . S
C5 C2 1.390 . S
C5 H4 0.950 . S
C5 C6 1.378 . S
C6 C5 1.378 . S
C6 C7 1.409 . S
C7 C3 1.387 . S
C7 C6 1.409 . S
C7 H9 0.951 . S
C8 C3 1.491 . S
C8 C10 1.382 . S
C8 C12 1.404 . S
H9 C7 0.951 . S
C10 C8 1.382 . S
C10 C11 1.390 . S
C10 H15 0.949 . S
C11 C10 1.390 . S
C11 C16 1.399 . S
C12 C8 1.404 . S
C12 H13 0.950 . S
C12 C14 1.375 . S
H13 C12 0.950 . S
C14 C12 1.375 . S
C14 C16 1.382 . S
C14 H18 0.950 . S
H15 C10 0.949 . S
C16 C11 1.399 . S
C16 C14 1.382 . S
C16 H17 0.952 . S
H17 C16 0.952 . S
H18 C14 0.950 . S
H19 C20 0.949 . S
C20 H19 0.949 . S
C20 C21 1.395 . S
C20 C22 1.391 . S
C21 C20 1.395 . S
C21 C24 1.390 . S
C22 C20 1.391 . S
C22 C26 1.387 . S
C22 C27 1.491 . S
H23 C24 0.950 . S
C24 C21 1.390 . S
C24 H23 0.950 . S
C24 C25 1.378 . S
C25 C24 1.378 . S
C25 C26 1.409 . S
C26 C22 1.387 . S
C26 C25 1.409 . S
C26 H28 0.951 . S
C27 C22 1.491 . S
C27 C29 1.382 . S
C27 C31 1.404 . S
H28 C26 0.951 . S
C29 C27 1.382 . S
C29 C30 1.390 . S
C29 H34 0.949 . S
C30 C29 1.390 . S
C30 C35 1.399 . S
C31 C27 1.404 . S
C31 H32 0.950 . S
C31 C33 1.375 . S
H32 C31 0.950 . S
C33 C31 1.375 . S
C33 C35 1.382 . S
C33 H37 0.950 . S
H34 C29 0.949 . S
C35 C30 1.399 . S
C35 C33 1.382 . S
C35 H36 0.952 . S
H36 C35 0.952 . S
H37 C33 0.950 . S
H38 C39 0.949 . S
C39 H38 0.949 . S
C39 C40 1.395 . S
C39 C41 1.391 . S
C40 C39 1.395 . S
C40 C43 1.390 . S
C41 C39 1.391 . S
C41 C45 1.387 . S
C41 C46 1.491 . S
H42 C43 0.950 . S
C43 C40 1.390 . S
C43 H42 0.950 . S
C43 C44 1.378 . S
C44 C43 1.378 . S
C44 C45 1.409 . S
C45 C41 1.387 . S
C45 C44 1.409 . S
C45 H47 0.951 . S
C46 C41 1.491 . S
C46 C48 1.382 . S
C46 C50 1.404 . S
H47 C45 0.951 . S
C48 C46 1.382 . S
C48 C49 1.390 . S
C48 H53 0.949 . S
C49 C48 1.390 . S
C49 C54 1.399 . S
C50 C46 1.404 . S
C50 H51 0.950 . S
C50 C52 1.375 . S
H51 C50 0.950 . S
C52 C50 1.375 . S
C52 C54 1.382 . S
C52 H56 0.950 . S
H53 C48 0.949 . S
C54 C49 1.399 . S
C54 C52 1.382 . S
C54 H55 0.952 . S
H55 C54 0.952 . S
H56 C52 0.950 . S
H57 C58 0.949 . S
C58 H57 0.949 . S
C58 C59 1.395 . S
C58 C60 1.391 . S
C59 C58 1.395 . S
C59 C62 1.390 . S
C60 C58 1.391 . S
C60 C64 1.387 . S
C60 C65 1.491 . S
H61 C62 0.950 . S
C62 C59 1.390 . S
C62 H61 0.950 . S
C62 C63 1.378 . S
C63 C62 1.378 . S
C63 C64 1.409 . S
C64 C60 1.387 . S
C64 C63 1.409 . S
C64 H66 0.951 . S
C65 C60 1.491 . S
C65 C67 1.382 . S
C65 C69 1.404 . S
H66 C64 0.951 . S
C67 C65 1.382 . S
C67 C68 1.390 . S
C67 H72 0.949 . S
C68 C67 1.390 . S
C68 C73 1.399 . S
C69 C65 1.404 . S
C69 H70 0.950 . S
C69 C71 1.375 . S
H70 C69 0.950 . S
C71 C69 1.375 . S
C71 C73 1.382 . S
C71 H75 0.950 . S
H72 C67 0.949 . S
C73 C68 1.399 . S
C73 C71 1.382 . S
C73 H74 0.952 . S
H74 C73 0.952 . S
H75 C71 0.950 . S
H76 C77 0.949 . S
C77 H76 0.949 . S
C77 C78 1.395 . S
C77 C79 1.391 . S
C78 C77 1.395 . S
C78 C81 1.390 . S
C79 C77 1.391 . S
C79 C83 1.387 . S
C79 C84 1.491 . S
H80 C81 0.950 . S
C81 C78 1.390 . S
C81 H80 0.950 . S
C81 C82 1.378 . S
C82 C81 1.378 . S
C82 C83 1.409 . S
C83 C79 1.387 . S
C83 C82 1.409 . S
C83 H85 0.951 . S
C84 C79 1.491 . S
C84 C86 1.382 . S
C84 C88 1.404 . S
H85 C83 0.951 . S
C86 C84 1.382 . S
C86 C87 1.390 . S
C86 H91 0.949 . S
C87 C86 1.390 . S
C87 C92 1.399 . S
C88 C84 1.404 . S
C88 H89 0.950 . S
C88 C90 1.375 . S
H89 C88 0.950 . S
C90 C88 1.375 . S
C90 C92 1.382 . S
C90 H94 0.950 . S
H91 C86 0.949 . S
C92 C87 1.399 . S
C92 C90 1.382 . S
C92 H93 0.952 . S
H93 C92 0.952 . S
H94 C90 0.950 . S
H95 C96 0.949 . S
C96 H95 0.949 . S
C96 C97 1.395 . S
C96 C98 1.391 . S
C97 C96 1.395 . S
C97 C100 1.390 . S
C98 C96 1.391 . S
C98 C102 1.387 . S
C98 C103 1.491 . S
H99 C100 0.950 . S
C100 C97 1.390 . S
C100 H99 0.950 . S
C100 C101 1.378 . S
C101 C100 1.378 . S
C101 C102 1.409 . S
C102 C98 1.387 . S
C102 C101 1.409 . S
C102 H104 0.951 . S
C103 C98 1.491 . S
C103 C105 1.382 . S
C103 C107 1.404 . S
H104 C102 0.951 . S
C105 C103 1.382 . S
C105 C106 1.390 . S
C105 H110 0.949 . S
C106 C105 1.390 . S
C106 C111 1.399 . S
C107 C103 1.404 . S
C107 H108 0.950 . S
C107 C109 1.375 . S
H108 C107 0.950 . S
C109 C107 1.375 . S
C109 C111 1.382 . S
C109 H113 0.950 . S
H110 C105 0.949 . S
C111 C106 1.399 . S
C111 C109 1.382 . S
C111 H112 0.952 . S
H112 C111 0.952 . S
H113 C109 0.950 . S
H114 C115 0.949 . S
C115 H114 0.949 . S
C115 C116 1.395 . S
C115 C117 1.391 . S
C116 C115 1.395 . S
C116 C119 1.390 . S
C117 C115 1.391 . S
C117 C121 1.387 . S
C117 C122 1.491 . S
H118 C119 0.950 . S
C119 C116 1.390 . S
C119 H118 0.950 . S
C119 C120 1.378 . S
C120 C119 1.378 . S
C120 C121 1.409 . S
C121 C117 1.387 . S
C121 C120 1.409 . S
C121 H123 0.951 . S
C122 C117 1.491 . S
C122 C124 1.382 . S
C122 C126 1.404 . S
H123 C121 0.951 . S
C124 C122 1.382 . S
C124 C125 1.390 . S
C124 H129 0.949 . S
C125 C124 1.390 . S
C125 C130 1.399 . S
C126 C122 1.404 . S
C126 H127 0.950 . S
C126 C128 1.375 . S
H127 C126 0.950 . S
C128 C126 1.375 . S
C128 C130 1.382 . S
C128 H132 0.950 . S
H129 C124 0.949 . S
C130 C125 1.399 . S
C130 C128 1.382 . S
C130 H131 0.952 . S
H131 C130 0.952 . S
H132 C128 0.950 . S
H133 C134 0.949 . S
C134 H133 0.949 . S
C134 C135 1.395 . S
C134 C136 1.391 . S
C135 C134 1.395 . S
C135 C138 1.390 . S
C136 C134 1.391 . S
C136 C140 1.387 . S
C136 C141 1.491 . S
H137 C138 0.950 . S
C138 C135 1.390 . S
C138 H137 0.950 . S
C138 C139 1.378 . S
C139 C138 1.378 . S
C139 C140 1.409 . S
C140 C136 1.387 . S
C140 C139 1.409 . S
C140 H142 0.951 . S
C141 C136 1.491 . S
C141 C143 1.382 . S
C141 C145 1.404 . S
H142 C140 0.951 . S
C143 C141 1.382 . S
C143 C144 1.390 . S
C143 H148 0.949 . S
C144 C143 1.390 . S
C144 C149 1.399 . S
C145 C141 1.404 . S
C145 H146 0.950 . S
C145 C147 1.375 . S
H146 C145 0.950 . S
C147 C145 1.375 . S
C147 C149 1.382 . S
C147 H151 0.950 . S
H148 C143 0.949 . S
C149 C144 1.399 . S
C149 C147 1.382 . S
C149 H150 0.952 . S
H150 C149 0.952 . S
H151 C147 0.950 . S
O152 Mg153 1.990 . S
O152 C166 1.253 1_455 S
Mg153 O152 1.990 . S
Mg153 O156 2.180 . S
Mg153 O157 2.117 . S
Mg153 O171 2.030 . S
O154 Mg155 2.072 1_655 S
O154 C166 1.260 . S
Mg155 O154 2.072 1_455 S
Mg155 O156 2.099 . S
Mg155 O158 2.079 . S
Mg155 O159 2.072 1_455 S
Mg155 O161 2.099 1_445 S
Mg155 O172 2.079 . S
O156 Mg153 2.180 . S
O156 Mg155 2.099 . S
O156 C167 1.279 . S
O157 Mg153 2.117 . S
O157 C167 1.250 . S
O158 Mg155 2.079 . S
O158 C168 1.264 . S
O159 Mg155 2.072 1_655 S
O159 C169 1.260 . S
Mg160 O161 2.180 1_545 S
Mg160 O162 2.030 . S
Mg160 O163 1.990 . S
Mg160 O164 2.117 1_545 S
O161 Mg155 2.099 1_665 S
O161 Mg160 2.180 1_565 S
O161 C170 1.279 . S
O162 Mg160 2.030 . S
O162 C168 1.248 1_655 S
O163 Mg160 1.990 . S
O163 C169 1.253 . S
O164 Mg160 2.117 1_565 S
O164 C170 1.250 . S
C165 O171 1.248 . S
C165 O172 1.264 . S
C166 O152 1.253 1_655 S
C166 O154 1.260 . S
C167 O156 1.279 . S
C167 O157 1.250 . S
C168 O158 1.264 . S
C168 O162 1.248 1_455 S
C169 O159 1.260 . S
C169 O163 1.253 . S
C170 O161 1.279 . S
C170 O164 1.250 . S
O171 Mg153 2.030 . S
O171 C165 1.248 . S
O172 Mg155 2.079 . S
O172 C165 1.264 . S
O173 Mg174 1.990 . S
O173 C187 1.253 . S
Mg174 O173 1.990 . S
Mg174 O177 2.180 . S
Mg174 O178 2.117 . S
Mg174 O192 2.030 . S
O175 Mg176 2.072 . S
O175 C187 1.260 . S
Mg176 O175 2.072 . S
Mg176 O177 2.099 . S
Mg176 O179 2.079 . S
Mg176 O180 2.072 . S
Mg176 O182 2.099 1_545 S
Mg176 O193 2.079 . S
O177 Mg174 2.180 . S
O177 Mg176 2.099 . S
O177 C188 1.279 . S
O178 Mg174 2.117 . S
O178 C188 1.250 . S
O179 Mg176 2.079 . S
O179 C189 1.264 . S
O180 Mg176 2.072 . S
O180 C190 1.260 1_554 S
Mg181 O182 2.180 . S
Mg181 O183 2.030 . S
Mg181 O184 1.990 1_554 S
Mg181 O185 2.117 . S
O182 Mg176 2.099 1_565 S
O182 Mg181 2.180 . S
O182 C191 1.279 . S
O183 Mg181 2.030 . S
O183 C189 1.248 1_565 S
O184 Mg181 1.990 1_556 S
O184 C190 1.253 1_565 S
O185 Mg181 2.117 . S
O185 C191 1.250 . S
C186 O192 1.248 . S
C186 O193 1.264 . S
C187 O173 1.253 . S
C187 O175 1.260 . S
C188 O177 1.279 . S
C188 O178 1.250 . S
C189 O179 1.264 . S
C189 O183 1.248 1_545 S
C190 O180 1.260 1_556 S
C190 O184 1.253 1_545 S
C191 O182 1.279 . S
C191 O185 1.250 . S
O192 Mg174 2.030 . S
O192 C186 1.248 . S
O193 Mg176 2.079 . S
O193 C186 1.264 . S
O194 Mg195 1.990 . S
O194 C208 1.253 . S
Mg195 O194 1.990 . S
Mg195 O198 2.180 . S
Mg195 O199 2.117 . S
Mg195 O213 2.030 . S
O196 Mg197 2.072 . S
O196 C208 1.260 . S
Mg197 O196 2.072 . S
Mg197 O198 2.099 . S
Mg197 O200 2.079 . S
Mg197 O201 2.072 . S
Mg197 O203 2.099 . S
Mg197 O214 2.079 . S
O198 Mg195 2.180 . S
O198 Mg197 2.099 . S
O198 C209 1.279 . S
O199 Mg195 2.117 . S
O199 C209 1.250 . S
O200 Mg197 2.079 . S
O200 C210 1.264 . S
O201 Mg197 2.072 . S
O201 C211 1.260 . S
Mg202 O203 2.180 . S
Mg202 O204 2.030 . S
Mg202 O205 1.990 . S
Mg202 O206 2.117 . S
O203 Mg197 2.099 . S
O203 Mg202 2.180 . S
O203 C212 1.279 . S
O204 Mg202 2.030 . S
O204 C210 1.248 . S
O205 Mg202 1.990 . S
O205 C211 1.253 . S
O206 Mg202 2.117 . S
O206 C212 1.250 . S
C207 O213 1.248 . S
C207 O214 1.264 . S
C208 O194 1.253 . S
C208 O196 1.260 . S
C209 O198 1.279 . S
C209 O199 1.250 . S
C210 O200 1.264 . S
C210 O204 1.248 . S
C211 O201 1.260 . S
C211 O205 1.253 . S
C212 O203 1.279 . S
C212 O206 1.250 . S
O213 Mg195 2.030 . S
O213 C207 1.248 . S
O214 Mg197 2.079 . S
O214 C207 1.264 . S
O215 Mg216 1.990 . S
O215 C229 1.253 . S
Mg216 O215 1.990 . S
Mg216 O219 2.180 . S
Mg216 O220 2.117 1_455 S
Mg216 O234 2.030 . S
O217 Mg218 2.072 . S
O217 C229 1.260 . S
Mg218 O217 2.072 . S
Mg218 O219 2.099 . S
Mg218 O221 2.079 . S
Mg218 O222 2.072 1_455 S
Mg218 O224 2.099 1_554 S
Mg218 O235 2.079 . S
O219 Mg216 2.180 . S
O219 Mg218 2.099 . S
O219 C230 1.279 1_455 S
O220 Mg216 2.117 1_655 S
O220 C230 1.250 . S
O221 Mg218 2.079 . S
O221 C231 1.264 1_454 S
O222 Mg218 2.072 1_655 S
O222 C232 1.260 1_554 S
Mg223 O224 2.180 1_655 S
Mg223 O225 2.030 . S
Mg223 O226 1.990 . S
Mg223 O227 2.117 1_655 S
O224 Mg218 2.099 1_556 S
O224 Mg223 2.180 1_455 S
O224 C233 1.279 . S
O225 Mg223 2.030 . S
O225 C231 1.248 . S
O226 Mg223 1.990 . S
O226 C232 1.253 . S
O227 Mg223 2.117 1_455 S
O227 C233 1.250 . S
C228 O234 1.248 . S
C228 O235 1.264 . S
C229 O215 1.253 . S
C229 O217 1.260 . S
C230 O219 1.279 1_655 S
C230 O220 1.250 . S
C231 O221 1.264 1_656 S
C231 O225 1.248 . S
C232 O222 1.260 1_556 S
C232 O226 1.253 . S
C233 O224 1.279 . S
C233 O227 1.250 . S
O234 Mg216 2.030 . S
O234 C228 1.248 . S
O235 Mg218 2.079 . S
O235 C228 1.264 . S
H236 C242 0.930 . S
H237 C246 0.930 . S
H238 C251 0.929 . S
H239 C249 0.929 . S
H240 C244 0.929 . S
H241 C250 0.929 . S
C242 H236 0.930 . S
C242 C243 1.367 . S
C242 C250 1.378 . S
C243 C242 1.367 . S
C243 C251 1.433 . S
C244 H240 0.929 . S
C244 C246 1.378 . S
C244 C248 1.350 . S
C245 C248 1.463 . S
C245 C250 1.350 . S
C245 N253 1.427 . S
C246 H237 0.930 . S
C246 C244 1.378 . S
C246 C247 1.367 . S
C247 C246 1.367 . S
C247 C249 1.433 . S
C248 C244 1.350 . S
C248 C245 1.463 . S
C248 N252 1.427 . S
C249 H239 0.929 . S
C249 C247 1.433 . S
C249 N252 1.384 . S
C250 H241 0.929 . S
C250 C242 1.378 . S
C250 C245 1.350 . S
C251 H238 0.929 . S
C251 C243 1.433 . S
C251 N253 1.384 . S
N252 C248 1.427 . S
N252 C249 1.384 . S
N253 C245 1.427 . S
N253 C251 1.384 . S
H254 C260 0.930 1_545 S
H255 C264 0.930 . S
H256 C269 0.929 . S
H257 C267 0.929 . S
H258 C262 0.929 . S
H259 C268 0.929 . S
C260 H254 0.930 1_565 S
C260 C261 1.367 . S
C260 C268 1.378 1_565 S
C261 C260 1.367 . S
C261 C269 1.433 . S
C262 H258 0.929 . S
C262 C264 1.378 . S
C262 C266 1.350 . S
C263 C266 1.463 . S
C263 C268 1.350 1_565 S
C263 N271 1.427 . S
C264 H255 0.930 . S
C264 C262 1.378 . S
C264 C265 1.367 1_565 S
C265 C264 1.367 1_545 S
C265 C267 1.433 . S
C266 C262 1.350 . S
C266 C263 1.463 . S
C266 N270 1.427 1_565 S
C267 H257 0.929 . S
C267 C265 1.433 . S
C267 N270 1.384 . S
C268 H259 0.929 . S
C268 C260 1.378 1_545 S
C268 C263 1.350 1_545 S
C269 H256 0.929 . S
C269 C261 1.433 . S
C269 N271 1.384 . S
N270 C266 1.427 1_545 S
N270 C267 1.384 . S
N271 C263 1.427 . S
N271 C269 1.384 . S
H272 C278 0.930 . S
H273 C282 0.930 . S
H274 C287 0.929 . S
H275 C285 0.929 . S
H276 C280 0.929 . S
H277 C286 0.929 . S
C278 H272 0.930 . S
C278 C279 1.367 . S
C278 C286 1.378 . S
C279 C278 1.367 . S
C279 C287 1.433 . S
C280 H276 0.929 . S
C280 C282 1.378 . S
C280 C284 1.350 . S
C281 C284 1.463 . S
C281 C286 1.350 . S
C281 N289 1.427 . S
C282 H273 0.930 . S
C282 C280 1.378 . S
C282 C283 1.367 . S
C283 C282 1.367 . S
C283 C285 1.433 . S
C284 C280 1.350 . S
C284 C281 1.463 . S
C284 N288 1.427 . S
C285 H275 0.929 . S
C285 C283 1.433 . S
C285 N288 1.384 . S
C286 H277 0.929 . S
C286 C278 1.378 . S
C286 C281 1.350 . S
C287 H274 0.929 . S
C287 C279 1.433 . S
C287 N289 1.384 . S
N288 C284 1.427 . S
N288 C285 1.384 . S
N289 C281 1.427 . S
N289 C287 1.384 . S
H290 C296 0.930 . S
H291 C300 0.930 1_455 S
H292 C305 0.929 . S
H293 C303 0.929 . S
H294 C298 0.929 . S
H295 C304 0.929 . S
C296 H290 0.930 . S
C296 C297 1.367 . S
C296 C304 1.378 . S
C297 C296 1.367 . S
C297 C305 1.433 . S
C298 H294 0.929 . S
C298 C300 1.378 . S
C298 C302 1.350 . S
C299 C302 1.463 . S
C299 C304 1.350 . S
C299 N307 1.427 . S
C300 H291 0.930 1_655 S
C300 C298 1.378 . S
C300 C301 1.367 . S
C301 C300 1.367 . S
C301 C303 1.433 . S
C302 C298 1.350 . S
C302 C299 1.463 . S
C302 N306 1.427 . S
C303 H293 0.929 . S
C303 C301 1.433 . S
C303 N306 1.384 . S
C304 H295 0.929 . S
C304 C296 1.378 . S
C304 C299 1.350 . S
C305 H292 0.929 . S
C305 C297 1.433 . S
C305 N307 1.384 . S
N306 C302 1.427 . S
N306 C303 1.384 . S
N307 C299 1.427 . S
N307 C305 1.384 . S
H308 C314 0.930 . S
H309 C318 0.930 . S
H310 C323 0.929 . S
H311 C321 0.929 . S
H312 C316 0.929 . S
H313 C322 0.929 . S
C314 H308 0.930 . S
C314 C315 1.367 . S
C314 C322 1.378 . S
C315 C314 1.367 . S
C315 C323 1.433 . S
C316 H312 0.929 . S
C316 C318 1.378 . S
C316 C320 1.350 . S
C317 C320 1.463 . S
C317 C322 1.350 . S
C317 N325 1.427 . S
C318 H309 0.930 . S
C318 C316 1.378 . S
C318 C319 1.367 . S
C319 C318 1.367 . S
C319 C321 1.433 . S
C320 C316 1.350 . S
C320 C317 1.463 . S
C320 N324 1.427 . S
C321 H311 0.929 . S
C321 C319 1.433 . S
C321 N324 1.384 . S
C322 H313 0.929 . S
C322 C314 1.378 . S
C322 C317 1.350 . S
C323 H310 0.929 . S
C323 C315 1.433 . S
C323 N325 1.384 . S
N324 C320 1.427 . S
N324 C321 1.384 . S
N325 C317 1.427 . S
N325 C323 1.384 . S
H326 C332 0.930 . S
H327 C336 0.930 . S
H328 C341 0.929 . S
H329 C339 0.929 . S
H330 C334 0.929 . S
H331 C340 0.929 . S
C332 H326 0.930 . S
C332 C333 1.367 1_545 S
C332 C340 1.378 . S
C333 C332 1.367 1_565 S
C333 C341 1.433 . S
C334 H330 0.929 . S
C334 C336 1.378 . S
C334 C338 1.355 . S
C335 C338 1.471 . S
C335 C340 1.350 1_565 S
C335 N343 1.427 . S
C336 H327 0.930 . S
C336 C334 1.378 . S
C336 C337 1.367 1_565 S
C337 C336 1.367 1_545 S
C337 C339 1.433 . S
C338 C334 1.355 . S
C338 C335 1.471 . S
C338 N342 1.414 1_565 S
C339 H329 0.929 . S
C339 C337 1.433 . S
C339 N342 1.384 . S
C340 H331 0.929 . S
C340 C332 1.378 . S
C340 C335 1.350 1_545 S
C341 H328 0.929 . S
C341 C333 1.433 . S
C341 N343 1.384 . S
N342 C338 1.414 1_545 S
N342 C339 1.384 . S
N343 C335 1.427 . S
N343 C341 1.384 . S
H344 C350 0.930 . S
H345 C354 0.930 . S
H346 C359 0.929 . S
H347 C357 0.929 1_554 S
H348 C352 0.929 . S
H349 C358 0.929 . S
C350 H344 0.930 . S
C350 C351 1.367 . S
C350 C358 1.378 . S
C351 C350 1.367 . S
C351 C359 1.433 . S
C352 H348 0.929 . S
C352 C354 1.378 . S
C352 C356 1.350 . S
C353 C356 1.463 . S
C353 C358 1.350 . S
C353 N361 1.427 . S
C354 H345 0.930 . S
C354 C352 1.378 . S
C354 C355 1.367 . S
C355 C354 1.367 . S
C355 C357 1.433 . S
C356 C352 1.350 . S
C356 C353 1.463 . S
C356 N360 1.427 . S
C357 H347 0.929 1_556 S
C357 C355 1.433 . S
C357 N360 1.384 . S
C358 H349 0.929 . S
C358 C350 1.378 . S
C358 C353 1.350 . S
C359 H346 0.929 . S
C359 C351 1.433 . S
C359 N361 1.384 . S
N360 C356 1.427 . S
N360 C357 1.384 . S
N361 C353 1.427 . S
N361 C359 1.384 . S
H362 C368 0.930 . S
H363 C372 0.930 . S
H364 C377 0.929 . S
H365 C375 0.929 . S
H366 C370 0.929 . S
H367 C376 0.929 . S
C368 H362 0.930 . S
C368 C369 1.367 . S
C368 C376 1.378 . S
C369 C368 1.367 . S
C369 C377 1.433 . S
C370 H366 0.929 . S
C370 C372 1.378 . S
C370 C374 1.350 . S
C371 C374 1.463 . S
C371 C376 1.350 . S
C371 N379 1.427 . S
C372 H363 0.930 . S
C372 C370 1.378 . S
C372 C373 1.367 . S
C373 C372 1.367 . S
C373 C375 1.433 . S
C374 C370 1.350 . S
C374 C371 1.463 . S
C374 N378 1.427 . S
C375 H365 0.929 . S
C375 C373 1.433 . S
C375 N378 1.384 . S
C376 H367 0.929 . S
C376 C368 1.378 . S
C376 C371 1.350 . S
C377 H364 0.929 . S
C377 C369 1.433 . S
C377 N379 1.384 . S
N378 C374 1.427 . S
N378 C375 1.384 . S
N379 C371 1.427 . S
N379 C377 1.384 . S
H380 C386 0.930 . S
H381 C390 0.930 . S
H382 C395 0.929 . S
H383 C393 0.929 1_655 S
H384 C388 0.929 . S
H385 C394 0.929 . S
C386 H380 0.930 . S
C386 C387 1.367 . S
C386 C394 1.378 . S
C387 C386 1.367 . S
C387 C395 1.433 . S
C388 H384 0.929 . S
C388 C390 1.378 . S
C388 C392 1.350 . S
C389 C392 1.463 . S
C389 C394 1.350 . S
C389 N397 1.427 . S
C390 H381 0.930 . S
C390 C388 1.378 . S
C390 C391 1.367 . S
C391 C390 1.367 . S
C391 C393 1.433 . S
C392 C388 1.350 . S
C392 C389 1.463 . S
C392 N396 1.427 . S
C393 H383 0.929 1_455 S
C393 C391 1.433 . S
C393 N396 1.384 . S
C394 H385 0.929 . S
C394 C386 1.378 . S
C394 C389 1.350 . S
C395 H382 0.929 . S
C395 C387 1.433 . S
C395 N397 1.384 . S
N396 C392 1.427 . S
N396 C393 1.384 . S
N397 C389 1.427 . S
N397 C395 1.384 . S
H398 C404 0.930 . S
H399 C408 0.930 . S
H400 C413 0.929 1_554 S
H401 C411 0.929 . S
H402 C406 0.929 . S
H403 C412 0.929 . S
C404 H398 0.930 . S
C404 C405 1.367 . S
C404 C412 1.378 . S
C405 C404 1.367 . S
C405 C413 1.433 . S
C406 H402 0.929 . S
C406 C408 1.378 . S
C406 C410 1.350 1_554 S
C407 C410 1.463 . S
C407 C412 1.350 . S
C407 N415 1.427 . S
C408 H399 0.930 . S
C408 C406 1.378 . S
C408 C409 1.367 . S
C409 C408 1.367 . S
C409 C411 1.433 1_554 S
C410 C406 1.350 1_556 S
C410 C407 1.463 . S
C410 N414 1.427 . S
C411 H401 0.929 . S
C411 C409 1.433 1_556 S
C411 N414 1.384 . S
C412 H403 0.929 . S
C412 C404 1.378 . S
C412 C407 1.350 . S
C413 H400 0.929 1_556 S
C413 C405 1.433 . S
C413 N415 1.384 . S
N414 C410 1.427 . S
N414 C411 1.384 . S
N415 C407 1.427 . S
N415 C413 1.384 . S
H416 C422 0.930 . S
H417 C426 0.930 . S
H418 C431 0.929 . S
H419 C429 0.929 . S
H420 C424 0.929 . S
H421 C430 0.929 . S
C422 H416 0.930 . S
C422 C423 1.367 . S
C422 C430 1.378 . S
C423 C422 1.367 . S
C423 C431 1.433 . S
C424 H420 0.929 . S
C424 C426 1.378 . S
C424 C428 1.350 . S
C425 C428 1.463 . S
C425 C430 1.350 . S
C425 N433 1.427 . S
C426 H417 0.930 . S
C426 C424 1.378 . S
C426 C427 1.367 . S
C427 C426 1.367 . S
C427 C429 1.433 . S
C428 C424 1.350 . S
C428 C425 1.463 . S
C428 N432 1.427 . S
C429 H419 0.929 . S
C429 C427 1.433 . S
C429 N432 1.384 . S
C430 H421 0.929 . S
C430 C422 1.378 . S
C430 C425 1.350 . S
C431 H418 0.929 . S
C431 C423 1.433 . S
C431 N433 1.384 . S
N432 C428 1.427 . S
N432 C429 1.384 . S
N433 C425 1.427 . S
N433 C431 1.384 . S
H434 C440 0.930 . S
H435 C444 0.930 . S
H436 C449 0.929 . S
H437 C447 0.929 . S
H438 C442 0.929 . S
H439 C448 0.929 . S
C440 H434 0.930 . S
C440 C441 1.367 . S
C440 C448 1.378 . S
C441 C440 1.367 . S
C441 C449 1.433 . S
C442 H438 0.929 . S
C442 C444 1.378 . S
C442 C446 1.350 . S
C443 C446 1.463 . S
C443 C448 1.350 . S
C443 N451 1.427 . S
C444 H435 0.930 . S
C444 C442 1.378 . S
C444 C445 1.367 . S
C445 C444 1.367 . S
C445 C447 1.433 . S
C446 C442 1.350 . S
C446 C443 1.463 . S
C446 N450 1.427 . S
C447 H437 0.929 . S
C447 C445 1.433 . S
C447 N450 1.384 . S
C448 H439 0.929 . S
C448 C440 1.378 . S
C448 C443 1.350 . S
C449 H436 0.929 . S
C449 C441 1.433 . S
C449 N451 1.384 . S
N450 C446 1.427 . S
N450 C447 1.384 . S
N451 C443 1.427 . S
N451 C449 1.384 . S
H452 C458 0.930 1_545 S
H453 C462 0.930 . S
H454 C467 0.929 . S
H455 C465 0.929 . S
H456 C460 0.929 . S
H457 C466 0.952 . S
C458 H452 0.930 1_565 S
C458 C459 1.367 . S
C458 C466 1.373 1_565 S
C459 C458 1.367 . S
C459 C467 1.433 . S
C460 H456 0.929 . S
C460 C462 1.378 . S
C460 C464 1.350 . S
C461 C464 1.463 . S
C461 C466 1.332 1_565 S
C461 N469 1.427 . S
C462 H453 0.930 . S
C462 C460 1.378 . S
C462 C463 1.367 . S
C463 C462 1.367 . S
C463 C465 1.433 1_565 S
C464 C460 1.350 . S
C464 C461 1.463 . S
C464 N468 1.427 1_565 S
C465 H455 0.929 . S
C465 C463 1.433 1_545 S
C465 N468 1.384 . S
C466 H457 0.952 . S
C466 C458 1.373 1_545 S
C466 C461 1.332 1_545 S
C467 H454 0.929 . S
C467 C459 1.433 . S
C467 N469 1.384 . S
N468 C464 1.427 1_545 S
N468 C465 1.384 . S
N469 C461 1.427 . S
N469 C467 1.384 . S
H470 C476 0.930 . S
H471 C480 0.930 . S
H472 C485 0.929 . S
H473 C483 0.929 . S
H474 C478 0.929 . S
H475 C484 0.929 . S
C476 H470 0.930 . S
C476 C477 1.367 . S
C476 C484 1.378 . S
C477 C476 1.367 . S
C477 C485 1.433 . S
C478 H474 0.929 . S
C478 C480 1.378 . S
C478 C482 1.350 . S
C479 C482 1.463 . S
C479 C484 1.350 . S
C479 N487 1.427 . S
C480 H471 0.930 . S
C480 C478 1.378 . S
C480 C481 1.367 . S
C481 C480 1.367 . S
C481 C483 1.433 . S
C482 C478 1.350 . S
C482 C479 1.463 . S
C482 N486 1.427 . S
C483 H473 0.929 . S
C483 C481 1.433 . S
C483 N486 1.384 . S
C484 H475 0.929 . S
C484 C476 1.378 . S
C484 C479 1.350 . S
C485 H472 0.929 . S
C485 C477 1.433 . S
C485 N487 1.384 . S
N486 C482 1.427 . S
N486 C483 1.384 . S
N487 C479 1.427 . S
N487 C485 1.384 . S
H488 C494 0.930 . S
H489 C498 0.930 . S
H490 C503 0.929 . S
H491 C501 0.929 . S
H492 C496 0.929 . S
H493 C502 0.929 . S
C494 H488 0.930 . S
C494 C495 1.367 . S
C494 C502 1.378 . S
C495 C494 1.367 . S
C495 C503 1.433 . S
C496 H492 0.929 . S
C496 C498 1.378 . S
C496 C500 1.350 . S
C497 C500 1.463 . S
C497 C502 1.350 . S
C497 N505 1.427 . S
C498 H489 0.930 . S
C498 C496 1.378 . S
C498 C499 1.367 . S
C499 C498 1.367 . S
C499 C501 1.433 . S
C500 C496 1.350 . S
C500 C497 1.463 . S
C500 N504 1.427 . S
C501 H491 0.929 . S
C501 C499 1.433 . S
C501 N504 1.384 . S
C502 H493 0.929 . S
C502 C494 1.378 . S
C502 C497 1.350 . S
C503 H490 0.929 . S
C503 C495 1.433 . S
C503 N505 1.384 . S
N504 C500 1.427 . S
N504 C501 1.384 . S
N505 C497 1.427 . S
N505 C503 1.384 . S
H506 C512 0.930 . S
H507 C516 0.930 . S
H508 C521 0.929 . S
H509 C519 0.929 . S
H510 C514 0.929 . S
H511 C520 0.929 . S
C512 H506 0.930 . S
C512 C513 1.367 . S
C512 C520 1.378 . S
C513 C512 1.367 . S
C513 C521 1.433 . S
C514 H510 0.929 . S
C514 C516 1.378 . S
C514 C518 1.350 . S
C515 C518 1.463 . S
C515 C520 1.350 . S
C515 N523 1.427 . S
C516 H507 0.930 . S
C516 C514 1.378 . S
C516 C517 1.367 . S
C517 C516 1.367 . S
C517 C519 1.433 . S
C518 C514 1.350 . S
C518 C515 1.463 . S
C518 N522 1.427 . S
C519 H509 0.929 . S
C519 C517 1.433 . S
C519 N522 1.384 . S
C520 H511 0.929 . S
C520 C512 1.378 . S
C520 C515 1.350 . S
C521 H508 0.929 . S
C521 C513 1.433 . S
C521 N523 1.384 . S
N522 C518 1.427 . S
N522 C519 1.384 . S
N523 C515 1.427 . S
N523 C521 1.384 . S
H524 C530 0.930 1_554 S
H525 C534 0.930 . S
H526 C539 0.929 . S
H527 C537 0.929 . S
H528 C532 0.929 . S
H529 C538 0.929 . S
C530 H524 0.930 1_556 S
C530 C531 1.367 . S
C530 C538 1.378 1_566 S
C531 C530 1.367 . S
C531 C539 1.433 . S
C532 H528 0.929 . S
C532 C534 1.380 . S
C532 C536 1.350 1_565 S
C533 C536 1.460 1_565 S
C533 C538 1.350 1_566 S
C533 N541 1.427 . S
C534 H525 0.930 . S
C534 C532 1.380 . S
C534 C535 1.365 1_566 S
C535 C534 1.365 1_544 S
C535 C537 1.433 . S
C536 C532 1.350 1_545 S
C536 C533 1.460 1_545 S
C536 N540 1.430 1_556 S
C537 H527 0.929 . S
C537 C535 1.433 . S
C537 N540 1.384 . S
C538 H529 0.929 . S
C538 C530 1.378 1_544 S
C538 C533 1.350 1_544 S
C539 H526 0.929 . S
C539 C531 1.433 . S
C539 N541 1.384 . S
N540 C536 1.430 1_554 S
N540 C537 1.384 . S
N541 C533 1.427 . S
N541 C539 1.384 . S
H542 C548 0.930 . S
H543 C552 0.930 . S
H544 C557 0.929 . S
H545 C555 0.929 . S
H546 C550 0.929 . S
H547 C556 0.929 . S
C548 H542 0.930 . S
C548 C549 1.367 . S
C548 C556 1.378 . S
C549 C548 1.367 . S
C549 C557 1.433 . S
C550 H546 0.929 . S
C550 C552 1.378 . S
C550 C554 1.350 . S
C551 C554 1.463 . S
C551 C556 1.350 . S
C551 N559 1.427 . S
C552 H543 0.930 . S
C552 C550 1.378 . S
C552 C553 1.367 . S
C553 C552 1.367 . S
C553 C555 1.433 . S
C554 C550 1.350 . S
C554 C551 1.463 . S
C554 N558 1.427 . S
C555 H545 0.929 . S
C555 C553 1.433 . S
C555 N558 1.384 . S
C556 H547 0.929 . S
C556 C548 1.378 . S
C556 C551 1.350 . S
C557 H544 0.929 . S
C557 C549 1.433 . S
C557 N559 1.384 . S
N558 C554 1.427 . S
N558 C555 1.384 . S
N559 C551 1.427 . S
N559 C557 1.384 . S
H560 C566 0.930 . S
H561 C570 0.930 . S
H562 C575 0.929 . S
H563 C573 0.929 . S
H564 C568 0.929 . S
H565 C574 0.929 . S
C566 H560 0.930 . S
C566 C567 1.367 . S
C566 C574 1.378 . S
C567 C566 1.367 . S
C567 C575 1.433 . S
C568 H564 0.929 . S
C568 C570 1.378 . S
C568 C572 1.350 . S
C569 C572 1.463 . S
C569 C574 1.350 . S
C569 N577 1.427 . S
C570 H561 0.930 . S
C570 C568 1.378 . S
C570 C571 1.367 . S
C571 C570 1.367 . S
C571 C573 1.433 . S
C572 C568 1.350 . S
C572 C569 1.463 . S
C572 N576 1.427 . S
C573 H563 0.929 . S
C573 C571 1.433 . S
C573 N576 1.384 . S
C574 H565 0.929 . S
C574 C566 1.378 . S
C574 C569 1.350 . S
C575 H562 0.929 . S
C575 C567 1.433 . S
C575 N577 1.384 . S
N576 C572 1.427 . S
N576 C573 1.384 . S
N577 C569 1.427 . S
N577 C575 1.384 . S
H578 C584 0.930 . S
H579 C588 0.930 . S
H580 C593 0.929 . S
H581 C591 0.929 . S
H582 C586 0.929 . S
H583 C592 0.929 . S
C584 H578 0.930 . S
C584 C585 1.367 . S
C584 C592 1.378 . S
C585 C584 1.367 . S
C585 C593 1.433 . S
C586 H582 0.929 . S
C586 C588 1.378 . S
C586 C590 1.350 . S
C587 C590 1.463 . S
C587 C592 1.350 . S
C587 N595 1.427 . S
C588 H579 0.930 . S
C588 C586 1.378 . S
C588 C589 1.367 . S
C589 C588 1.367 . S
C589 C591 1.433 . S
C590 C586 1.350 . S
C590 C587 1.463 . S
C590 N594 1.427 . S
C591 H581 0.929 . S
C591 C589 1.433 . S
C591 N594 1.384 . S
C592 H583 0.929 . S
C592 C584 1.378 . S
C592 C587 1.350 . S
C593 H580 0.929 . S
C593 C585 1.433 . S
C593 N595 1.384 . S
N594 C590 1.427 . S
N594 C591 1.384 . S
N595 C587 1.427 . S
N595 C593 1.384 . S
H596 C602 0.930 . S
H597 C606 0.930 . S
H598 C611 0.929 . S
H599 C609 0.929 . S
H600 C604 0.929 1_455 S
H601 C610 0.929 . S
C602 H596 0.930 . S
C602 C603 1.367 . S
C602 C610 1.378 . S
C603 C602 1.367 . S
C603 C611 1.433 . S
C604 H600 0.929 1_655 S
C604 C606 1.378 1_655 S
C604 C608 1.350 . S
C605 C608 1.463 . S
C605 C610 1.350 . S
C605 N613 1.427 . S
C606 H597 0.930 . S
C606 C604 1.378 1_455 S
C606 C607 1.367 1_455 S
C607 C606 1.367 1_655 S
C607 C609 1.433 . S
C608 C604 1.350 . S
C608 C605 1.463 . S
C608 N612 1.427 . S
C609 H599 0.929 . S
C609 C607 1.433 . S
C609 N612 1.384 . S
C610 H601 0.929 . S
C610 C602 1.378 . S
C610 C605 1.350 . S
C611 H598 0.929 . S
C611 C603 1.433 . S
C611 N613 1.384 . S
N612 C608 1.427 . S
N612 C609 1.384 . S
N613 C605 1.427 . S
N613 C611 1.384 . S
H614 C620 0.930 . S
H615 C624 0.930 . S
H616 C629 0.929 . S
H617 C627 0.929 . S
H618 C622 0.929 . S
H619 C628 0.929 . S
C620 H614 0.930 . S
C620 C621 1.367 . S
C620 C628 1.378 . S
C621 C620 1.367 . S
C621 C629 1.433 . S
C622 H618 0.929 . S
C622 C624 1.378 . S
C622 C626 1.350 . S
C623 C626 1.463 . S
C623 C628 1.350 . S
C623 N631 1.427 . S
C624 H615 0.930 . S
C624 C622 1.378 . S
C624 C625 1.367 . S
C625 C624 1.367 . S
C625 C627 1.433 . S
C626 C622 1.350 . S
C626 C623 1.463 . S
C626 N630 1.427 . S
C627 H617 0.929 . S
C627 C625 1.433 . S
C627 N630 1.384 . S
C628 H619 0.929 . S
C628 C620 1.378 . S
C628 C623 1.350 . S
C629 H616 0.929 . S
C629 C621 1.433 . S
C629 N631 1.384 . S
N630 C626 1.427 . S
N630 C627 1.384 . S
N631 C623 1.427 . S
N631 C629 1.384 . S
H632 C638 0.930 . S
H633 C642 0.930 . S
H634 C647 0.929 . S
H635 C645 0.929 . S
H636 C640 0.929 . S
H637 C646 0.929 . S
C638 H632 0.930 . S
C638 C639 1.367 . S
C638 C646 1.378 . S
C639 C638 1.367 . S
C639 C647 1.433 . S
C640 H636 0.929 . S
C640 C642 1.378 . S
C640 C644 1.350 . S
C641 C644 1.463 . S
C641 C646 1.350 . S
C641 N649 1.427 . S
C642 H633 0.930 . S
C642 C640 1.378 . S
C642 C643 1.367 . S
C643 C642 1.367 . S
C643 C645 1.433 . S
C644 C640 1.350 . S
C644 C641 1.463 . S
C644 N648 1.427 . S
C645 H635 0.929 . S
C645 C643 1.433 . S
C645 N648 1.384 . S
C646 H637 0.929 . S
C646 C638 1.378 . S
C646 C641 1.350 . S
C647 H634 0.929 . S
C647 C639 1.433 . S
C647 N649 1.384 . S
N648 C644 1.427 . S
N648 C645 1.384 . S
N649 C641 1.427 . S
N649 C647 1.384 . S
H650 C656 0.930 . S
H651 C660 0.930 . S
H652 C665 0.929 . S
H653 C663 0.929 . S
H654 C658 0.929 . S
H655 C664 0.929 . S
C656 H650 0.930 . S
C656 C657 1.367 . S
C656 C664 1.378 . S
C657 C656 1.367 . S
C657 C665 1.433 . S
C658 H654 0.929 . S
C658 C660 1.378 . S
C658 C662 1.350 . S
C659 C662 1.463 . S
C659 C664 1.350 . S
C659 N667 1.427 . S
C660 H651 0.930 . S
C660 C658 1.378 . S
C660 C661 1.367 . S
C661 C660 1.367 . S
C661 C663 1.433 . S
C662 C658 1.350 . S
C662 C659 1.463 . S
C662 N666 1.427 . S
C663 H653 0.929 . S
C663 C661 1.433 . S
C663 N666 1.384 . S
C664 H655 0.929 . S
C664 C656 1.378 . S
C664 C659 1.350 . S
C665 H652 0.929 . S
C665 C657 1.433 . S
C665 N667 1.384 . S
N666 C662 1.427 . S
N666 C663 1.384 . S
N667 C659 1.427 . S
N667 C665 1.384 . S
C243 C6 1.860 . S
C247 C168 1.811 . S
C261 C21 1.974 . S
C265 C190 1.929 . S
C283 C209 0.848 . S
C279 C49 0.879 . S
C297 C68 1.404 . S
C301 C230 1.252 . S
C319 C187 2.361 . S
C315 C2 2.453 . S
C337 C165 1.350 . S
C333 C30 1.269 . S
C355 C232 1.102 . S
C351 C40 1.127 . S
C373 C211 1.185 . S
C369 C63 1.276 . S
C387 C11 1.523 . S
C391 C229 1.674 . S
C409 C188 1.411 . S
C405 C44 1.718 . S
C423 C59 1.352 . S
C427 C170 1.217 . S
C441 C25 1.717 . S
C445 C208 1.661 . S
C463 C166 1.972 1_565 S
C459 C82 2.068 . S
C477 C101 1.602 . S
C481 C186 1.574 . S
C495 C125 1.250 . S
C499 C212 1.112 . S
C513 C144 1.087 . S
C517 C233 1.012 . S
C531 C87 1.336 . S
C535 C189 1.439 . S
C553 C169 2.351 . S
C549 C97 2.373 . S
C571 C228 1.030 . S
C567 C120 1.094 . S
C589 C207 1.350 . S
C585 C135 1.355 . S
C603 C78 1.883 . S
C607 C231 1.821 . S
C625 C191 0.963 . S
C621 C116 1.119 . S
C643 C167 1.405 . S
C639 C139 1.604 . S
C657 C106 1.376 . S
C661 C210 1.474 . S
