# Generated by pormake.
# Topology zzz, (3,6)-cn, num edge types: 1
# Building blocks:
#     Node 0, Type 0, BuildingBlock: QEWDON_clean_linker_0, # of connection points: 3
#     Node 1, Type 0, BuildingBlock: QEWDON_clean_linker_0, # of connection points: 3
#     Node 2, Type 0, BuildingBlock: QEWDON_clean_linker_0, # of connection points: 3
#     Node 3, Type 0, BuildingBlock: QEWDON_clean_linker_0, # of connection points: 3
#     Node 4, Type 0, BuildingBlock: QEWDON_clean_linker_0, # of connection points: 3
#     Node 5, Type 0, BuildingBlock: QEWDON_clean_linker_0, # of connection points: 3
#     Node 6, Type 0, BuildingBlock: QEWDON_clean_linker_0, # of connection points: 3
#     Node 7, Type 0, BuildingBlock: QEWDON_clean_linker_0, # of connection points: 3
#     Node 8, Type 1, BuildingBlock: VOLQOD_clean_sbu_1, # of connection points: 6
#     Node 9, Type 1, BuildingBlock: VOLQOD_clean_sbu_1, # of connection points: 6
#     Node 10, Type 1, BuildingBlock: VOLQOD_clean_sbu_1, # of connection points: 6
#     Node 11, Type 1, BuildingBlock: VOLQOD_clean_sbu_1, # of connection points: 6
#     Edge 12, Type (0, 1), BuildingBlock: XUDNAN_clean_linker_2, # of connection points: 2
#     Edge 13, Type (0, 1), BuildingBlock: XUDNAN_clean_linker_2, # of connection points: 2
#     Edge 14, Type (0, 1), BuildingBlock: XUDNAN_clean_linker_2, # of connection points: 2
#     Edge 15, Type (0, 1), BuildingBlock: XUDNAN_clean_linker_2, # of connection points: 2
#     Edge 16, Type (0, 1), BuildingBlock: XUDNAN_clean_linker_2, # of connection points: 2
#     Edge 17, Type (0, 1), BuildingBlock: XUDNAN_clean_linker_2, # of connection points: 2
#     Edge 18, Type (0, 1), BuildingBlock: XUDNAN_clean_linker_2, # of connection points: 2
#     Edge 19, Type (0, 1), BuildingBlock: XUDNAN_clean_linker_2, # of connection points: 2
#     Edge 20, Type (0, 1), BuildingBlock: XUDNAN_clean_linker_2, # of connection points: 2
#     Edge 21, Type (0, 1), BuildingBlock: XUDNAN_clean_linker_2, # of connection points: 2
#     Edge 22, Type (0, 1), BuildingBlock: XUDNAN_clean_linker_2, # of connection points: 2
#     Edge 23, Type (0, 1), BuildingBlock: XUDNAN_clean_linker_2, # of connection points: 2
#     Edge 24, Type (0, 1), BuildingBlock: XUDNAN_clean_linker_2, # of connection points: 2
#     Edge 25, Type (0, 1), BuildingBlock: XUDNAN_clean_linker_2, # of connection points: 2
#     Edge 26, Type (0, 1), BuildingBlock: XUDNAN_clean_linker_2, # of connection points: 2
#     Edge 27, Type (0, 1), BuildingBlock: XUDNAN_clean_linker_2, # of connection points: 2
#     Edge 28, Type (0, 1), BuildingBlock: XUDNAN_clean_linker_2, # of connection points: 2
#     Edge 29, Type (0, 1), BuildingBlock: XUDNAN_clean_linker_2, # of connection points: 2
#     Edge 30, Type (0, 1), BuildingBlock: XUDNAN_clean_linker_2, # of connection points: 2
#     Edge 31, Type (0, 1), BuildingBlock: XUDNAN_clean_linker_2, # of connection points: 2
#     Edge 32, Type (0, 1), BuildingBlock: XUDNAN_clean_linker_2, # of connection points: 2
#     Edge 33, Type (0, 1), BuildingBlock: XUDNAN_clean_linker_2, # of connection points: 2
#     Edge 34, Type (0, 1), BuildingBlock: XUDNAN_clean_linker_2, # of connection points: 2
#     Edge 35, Type (0, 1), BuildingBlock: XUDNAN_clean_linker_2, # of connection points: 2
# Relax obj value: 0.147
# Max RMSD: 0.236
# Mean RMSD: 0.099
data_MOF--net-zzz--node1-VOLQOD_clean_sbu_1--node2-QEWDON_clean_linker_0--edge1-XUDNAN_clean_linker_2
_symmetry_space_group_name_H-M    P1
_symmetry_Int_Tables_number       1
_symmetry_cell_setting            triclinic
loop_
_symmetry_equiv_pos_as_xyz
'x, y, z'
_cell_length_a     54.831876
_cell_length_b     54.608349
_cell_length_c     17.209558
_cell_angle_alpha  90.04406
_cell_angle_beta   89.915028
_cell_angle_gamma 90.627603
loop_
_atom_site_label
_atom_site_type_symbol
_atom_site_fract_x
_atom_site_fract_y
_atom_site_fract_z
_atom_type_partial_charge
H0 H 0.79216 0.52963 0.03146 0.0
C1 C 0.80098 0.53084 0.08765 0.0
C2 C 0.82529 0.52334 0.09535 0.0
C3 C 0.78876 0.54143 0.15169 0.0
H4 H 0.85567 0.51956 0.17278 0.0
C5 C 0.837 0.52574 0.16694 0.0
C6 C 0.8256 0.53669 0.23021 0.0
C7 C 0.80126 0.54395 0.2233 0.0
C8 C 0.76392 0.55194 0.14277 0.0
H9 H 0.79235 0.55217 0.27298 0.0
C10 C 0.74532 0.53972 0.10054 0.0
C11 C 0.72189 0.55009 0.09348 0.0
C12 C 0.75882 0.57477 0.1767 0.0
H13 H 0.77278 0.58496 0.2078 0.0
C14 C 0.73576 0.58497 0.17035 0.0
H15 H 0.74906 0.52223 0.07352 0.0
C16 C 0.71741 0.57274 0.12961 0.0
H17 H 0.69955 0.58097 0.1273 0.0
H18 H 0.73207 0.60246 0.19733 0.0
H19 H 0.01218 0.7725 0.05068 0.0
C20 C 0.00672 0.78303 0.1008 0.0
C21 C 0.01581 0.80712 0.10949 0.0
C22 C 0.98982 0.77295 0.15449 0.0
H23 H 0.01405 0.83964 0.17998 0.0
C24 C 0.00777 0.82096 0.17309 0.0
C25 C 0.99075 0.81175 0.22647 0.0
C26 C 0.98245 0.78748 0.21827 0.0
C27 C 0.9785 0.74811 0.1411 0.0
H28 H 0.96974 0.78025 0.26072 0.0
C29 C 0.9909 0.7296 0.09971 0.0
C30 C 0.97952 0.70685 0.08375 0.0
C31 C 0.95452 0.74304 0.16688 0.0
H32 H 0.94373 0.75678 0.19581 0.0
C33 C 0.94358 0.72027 0.15359 0.0
H34 H 0.00941 0.73267 0.07975 0.0
C35 C 0.9559 0.70231 0.11226 0.0
H36 H 0.94656 0.68514 0.10019 0.0
H37 H 0.92516 0.71675 0.17376 0.0
H38 H 0.72525 0.00747 0.03277 0.0
C39 C 0.71703 0.00516 0.08967 0.0
C40 C 0.69537 0.01748 0.10744 0.0
C41 C 0.72689 0.98829 0.14266 0.0
H42 H 0.66625 0.02112 0.18933 0.0
C43 C 0.68395 0.01311 0.17893 0.0
C44 C 0.69318 0.99616 0.23219 0.0
C45 C 0.71493 0.98404 0.21405 0.0
C46 C 0.74764 0.9727 0.11906 0.0
H47 H 0.72213 0.97066 0.25418 0.0
C48 C 0.76892 0.98296 0.0859 0.0
C49 C 0.78797 0.96783 0.05933 0.0
C50 C 0.74562 0.94715 0.12652 0.0
H51 H 0.72933 0.93876 0.15089 0.0
C52 C 0.76423 0.93209 0.10021 0.0
H53 H 0.77062 1.00269 0.082 0.0
C54 C 0.78511 0.94224 0.06632 0.0
H55 H 0.79878 0.92987 0.04435 0.0
H56 H 0.7623 0.9124 0.10503 0.0
H57 H 0.49419 0.72672 0.05962 0.0
C58 C 0.49868 0.71729 0.11304 0.0
C59 C 0.48597 0.69566 0.13213 0.0
C60 C 0.51866 0.72534 0.15806 0.0
H61 H 0.48289 0.666 0.21329 0.0
C62 C 0.49262 0.68276 0.1989 0.0
C63 C 0.5135 0.68925 0.24135 0.0
C64 C 0.52603 0.71107 0.2222 0.0
C65 C 0.5337 0.74661 0.13101 0.0
H66 H 0.54215 0.71629 0.25473 0.0
C67 C 0.52267 0.76762 0.09945 0.0
C68 C 0.53687 0.78665 0.06603 0.0
C69 C 0.55928 0.74521 0.13116 0.0
H70 H 0.5684 0.72918 0.15332 0.0
C71 C 0.57347 0.76403 0.0995 0.0
H72 H 0.50299 0.76902 0.1011 0.0
C73 C 0.56245 0.78441 0.06644 0.0
H74 H 0.57413 0.79807 0.03949 0.0
H75 H 0.59314 0.76254 0.09881 0.0
H76 H 0.24466 0.5505 0.30306 0.0
C77 C 0.23426 0.54143 0.2577 0.0
C78 C 0.20881 0.54351 0.25647 0.0
C79 C 0.2462 0.52836 0.19834 0.0
H80 H 0.1758 0.53467 0.19684 0.0
C81 C 0.19537 0.53217 0.19746 0.0
C82 C 0.20653 0.5174 0.14146 0.0
C83 C 0.23216 0.51589 0.14166 0.0
C84 C 0.27324 0.52899 0.19197 0.0
H85 H 0.24132 0.50494 0.09828 0.0
C86 C 0.28832 0.52465 0.25675 0.0
C87 C 0.31402 0.52627 0.25006 0.0
C88 C 0.28405 0.53479 0.12018 0.0
H89 H 0.27291 0.53846 0.06966 0.0
C90 C 0.3093 0.53664 0.11321 0.0
H91 H 0.27997 0.5196 0.31157 0.0
C92 C 0.32418 0.53263 0.17744 0.0
H93 H 0.34367 0.53495 0.17008 0.0
H94 H 0.3174 0.54152 0.05786 0.0
H95 H 0.00616 0.22499 0.3061 0.0
C96 C 0.01601 0.21631 0.2591 0.0
C97 C 0.0227 0.19163 0.26579 0.0
C98 C 0.021 0.22946 0.19025 0.0
H99 H 0.03917 0.1612 0.20638 0.0
C100 C 0.03507 0.18057 0.204 0.0
C101 C 0.04005 0.19322 0.13532 0.0
C102 C 0.03276 0.21762 0.12789 0.0
C103 C 0.01255 0.25503 0.18187 0.0
H104 H 0.036 0.2272 0.07365 0.0
C105 C 0.0171 0.27243 0.24064 0.0
C106 C 0.00889 0.29667 0.23304 0.0
C107 C 0.99957 0.26208 0.11536 0.0
H108 H 0.99562 0.24899 0.06962 0.0
C109 C 0.99117 0.28599 0.10791 0.0
H110 H 0.02713 0.26711 0.29204 0.0
C111 C 0.99575 0.3032 0.16623 0.0
H112 H 0.98945 0.32175 0.1583 0.0
H113 H 0.98113 0.29123 0.05654 0.0
H114 H 0.27409 1.0016 0.28971 0.0
C115 C 0.28333 0.01101 0.2426 0.0
C116 C 0.30883 0.01362 0.24505 0.0
C117 C 0.27006 0.02015 0.1786 0.0
H118 H 0.34082 0.02393 0.18115 0.0
C119 C 0.32106 0.02419 0.18193 0.0
C120 C 0.30854 0.0338 0.11855 0.0
C121 C 0.28296 0.03219 0.11801 0.0
C122 C 0.24303 0.01642 0.17256 0.0
H123 H 0.2732 0.04006 0.06962 0.0
C124 C 0.22782 0.01611 0.23903 0.0
C125 C 0.20227 0.01294 0.23209 0.0
C126 C 0.23222 0.01295 0.09911 0.0
H127 H 0.24316 0.01204 0.04683 0.0
C128 C 0.20706 0.01036 0.09169 0.0
H129 H 0.23586 0.01831 0.29598 0.0
C130 C 0.19217 0.01062 0.15721 0.0
H131 H 0.17266 0.00912 0.14871 0.0
H132 H 0.19902 0.00813 0.03465 0.0
H133 H 0.51368 0.27825 0.30939 0.0
C134 C 0.50126 0.28663 0.26865 0.0
C135 C 0.49584 0.31166 0.27551 0.0
C136 C 0.49212 0.27277 0.20567 0.0
H137 H 0.47481 0.3412 0.22772 0.0
C138 C 0.47975 0.32211 0.2221 0.0
C139 C 0.4718 0.30919 0.15675 0.0
C140 C 0.47801 0.28449 0.14831 0.0
C141 C 0.49915 0.24671 0.1964 0.0
H142 H 0.47216 0.27461 0.09686 0.0
C143 C 0.4979 0.23029 0.25962 0.0
C144 C 0.50504 0.20565 0.25097 0.0
C145 C 0.50764 0.23825 0.12427 0.0
H146 H 0.50913 0.2505 0.07499 0.0
C147 C 0.5149 0.21403 0.11541 0.0
H148 H 0.49089 0.23663 0.31488 0.0
C149 C 0.51373 0.19787 0.17806 0.0
H150 H 0.52002 0.17934 0.16942 0.0
H151 H 0.52169 0.20779 0.0598 0.0
O152 O 0.06583 1.00199 0.67841 0.0
Zn153 Zn 0.039 0.99854 0.75822 0.0
O154 O 0.00694 0.99782 0.70587 0.0
Zn155 Zn 0.98829 0.02664 0.73159 0.0
Zn156 Zn 0.01163 0.99565 0.59293 0.0
Zn157 Zn 0.98773 0.97024 0.74246 0.0
O158 O 0.9562 0.01921 0.78366 0.0
O159 O 0.95774 0.97924 0.8048 0.0
O160 O 0.04252 0.02865 0.82764 0.0
O161 O 0.00814 0.04811 0.80084 0.0
O162 O 0.98201 0.04701 0.63817 0.0
O163 O 1.00004 0.02687 0.54201 0.0
O164 O 0.99475 0.96525 0.54842 0.0
O165 O 0.04538 0.96597 0.81356 0.0
O166 O 0.97711 0.94942 0.65351 0.0
O167 O 0.00906 0.94784 0.80066 0.0
C168 C 0.06676 0.99878 0.60517 0.0
C169 C 0.94697 0.99967 0.81183 0.0
C170 C 0.98846 0.04535 0.56751 0.0
C171 C 0.02877 0.04726 0.83444 0.0
C172 C 0.9817 0.9487 0.58113 0.0
C173 C 0.03113 0.94758 0.82303 0.0
O174 O 0.04755 0.99439 0.56574 0.0
O175 O 0.50114 0.06057 0.67288 0.0
Zn176 Zn 0.49993 0.03141 0.74655 0.0
O177 O 0.50023 1.00015 0.68718 0.0
Zn178 Zn 0.47175 0.9799 0.70955 0.0
Zn179 Zn 0.50134 0.00728 0.57624 0.0
Zn180 Zn 0.52797 0.98048 0.71558 0.0
O181 O 0.47894 0.94882 0.76912 0.0
O182 O 0.51927 0.94992 0.7759 0.0
O183 O 0.46751 0.03482 0.80553 0.0
O184 O 0.44861 1.0004 0.76875 0.0
O185 O 0.45294 0.97122 0.6138 0.0
O186 O 0.47095 0.99427 0.52376 0.0
O187 O 0.5323 0.9941 0.52877 0.0
O188 O 0.53073 0.03493 0.81365 0.0
O189 O 0.54821 0.9715 0.62306 0.0
O190 O 0.54991 1.00085 0.78029 0.0
C191 C 0.50149 0.06247 0.59907 0.0
C192 C 0.49895 0.93957 0.7915 0.0
C193 C 0.45378 0.97988 0.54536 0.0
C194 C 0.44853 0.02105 0.80297 0.0
C195 C 0.5486 0.97965 0.5539 0.0
C196 C 0.54951 0.02129 0.81563 0.0
O197 O 0.50155 0.04354 0.55593 0.0
O198 O 0.45036 0.50335 0.68887 0.0
Zn199 Zn 0.47637 0.50234 0.77112 0.0
O200 O 0.50894 0.50234 0.72174 0.0
Zn201 Zn 0.5274 0.47469 0.76027 0.0
Zn202 Zn 0.50582 0.50103 0.6072 0.0
Zn203 Zn 0.52717 0.53141 0.7516 0.0
O204 O 0.55877 0.48399 0.81586 0.0
O205 O 0.55836 0.52448 0.8095 0.0
O206 O 0.47035 0.4714 0.83497 0.0
O207 O 0.50657 0.45372 0.82891 0.0
O208 O 0.53521 0.45233 0.67317 0.0
O209 O 0.51972 0.46888 0.56638 0.0
O210 O 0.52182 0.53119 0.55627 0.0
O211 O 0.4711 0.53316 0.83507 0.0
O212 O 0.53572 0.55143 0.65915 0.0
O213 O 0.50603 0.55312 0.8145 0.0
C214 C 0.45019 0.50313 0.61489 0.0
C215 C 0.56861 0.50474 0.83033 0.0
C216 C 0.53069 0.45145 0.60082 0.0
C217 C 0.48448 0.45375 0.85161 0.0
C218 C 0.53254 0.54982 0.58623 0.0
C219 C 0.48463 0.55214 0.84296 0.0
O220 O 0.46997 0.50195 0.57599 0.0
O221 O 0.98232 0.53362 0.56346 0.0
Zn222 Zn 0.01493 0.53229 0.6218 0.0
O223 O 0.01813 0.50086 0.67844 0.0
Zn224 Zn 0.01993 0.50651 0.79105 0.0
Zn225 Zn 0.99089 0.4788 0.65501 0.0
Zn226 Zn 0.04716 0.48439 0.64486 0.0
O227 O 0.05143 0.4931 0.8384 0.0
O228 O 0.06937 0.47834 0.73298 0.0
O229 O 0.01473 0.56029 0.69875 0.0
O230 O 0.0193 0.54276 0.81421 0.0
O231 O 0.98922 0.4933 0.84131 0.0
O232 O 0.97161 0.47028 0.75036 0.0
O233 O 1.00049 0.44805 0.59642 0.0
O234 O 0.04465 0.53931 0.55288 0.0
O235 O 0.04067 0.45248 0.5907 0.0
O236 O 0.06652 0.50619 0.57633 0.0
C237 C 0.96482 0.518 0.56152 0.0
C238 C 0.06953 0.48283 0.80536 0.0
C239 C 0.97191 0.47924 0.81859 0.0
C240 C 0.01684 0.56179 0.77232 0.0
C241 C 0.02135 0.44029 0.57572 0.0
C242 C 0.0642 0.52707 0.54488 0.0
O243 O 0.96658 0.49706 0.59312 0.0
H244 H 0.15957 0.98637 0.25131 0.0
H245 H 0.20743 0.03776 0.3717 0.0
H246 H 0.17956 0.03704 0.48421 0.0
H247 H 0.10476 0.0152 0.30974 0.0
H248 H 0.08763 0.98694 0.3173 0.0
H249 H 0.11274 0.98932 0.25015 0.0
H250 H 0.13279 0.95158 0.31398 0.0
H251 H 0.10776 0.94914 0.38157 0.0
H252 H 0.1386 0.95169 0.41706 0.0
H253 H 0.14557 0.03154 0.58281 0.0
H254 H 0.10709 0.02425 0.65457 0.0
H255 H 0.07988 0.97992 0.46342 0.0
C256 C 0.16429 0.99769 0.30078 0.0
C257 C 0.18597 0.01207 0.30191 0.0
C258 C 0.19135 0.02613 0.36928 0.0
C259 C 0.1755 0.02598 0.43354 0.0
C260 C 0.15417 0.01191 0.4295 0.0
C261 C 0.14847 0.99821 0.36447 0.0
C262 C 0.12365 0.98598 0.37219 0.0
C263 C 0.10617 0.99491 0.30859 0.0
C264 C 0.12585 0.95794 0.37116 0.0
C265 C 0.11612 0.99513 0.45159 0.0
C266 C 0.13414 0.00972 0.48433 0.0
C267 C 0.13134 0.02017 0.55765 0.0
C268 C 0.10945 0.01586 0.59806 0.0
C269 C 0.09046 1.00158 0.56449 0.0
C270 C 0.094 0.991 0.49046 0.0
H271 H 0.49302 0.15654 0.24629 0.0
H272 H 0.51433 0.21448 0.4062 0.0
H273 H 0.51383 0.18469 0.51414 0.0
H274 H 0.45392 0.12238 0.37743 0.0
H275 H 0.46364 0.09308 0.34119 0.0
H276 H 0.46385 0.11937 0.27801 0.0
H277 H 0.50966 0.1126 0.24846 0.0
H278 H 0.50959 0.08632 0.31153 0.0
H279 H 0.53104 0.11104 0.32773 0.0
H280 H 0.51233 0.14777 0.60449 0.0
H281 H 0.51085 0.10711 0.66785 0.0
H282 H 0.49279 0.07351 0.44629 0.0
C283 C 0.4977 0.16308 0.30381 0.0
C284 C 0.50371 0.18801 0.31729 0.0
C285 C 0.50927 0.19564 0.39414 0.0
C286 C 0.50919 0.17879 0.4559 0.0
C287 C 0.50357 0.15433 0.44006 0.0
C288 C 0.49795 0.14652 0.36577 0.0
C289 C 0.49352 0.11911 0.36318 0.0
C290 C 0.46716 0.11314 0.33851 0.0
C291 C 0.51206 0.10653 0.30956 0.0
C292 C 0.49778 0.11261 0.44751 0.0
C293 C 0.50331 0.13316 0.49123 0.0
C294 C 0.50799 0.13158 0.57073 0.0
C295 C 0.50709 0.1084 0.60624 0.0
C296 C 0.50181 0.08706 0.56213 0.0
C297 C 0.49703 0.08939 0.48174 0.0
H298 H 0.36022 0.50636 0.25035 0.0
H299 H 0.30542 0.5366 0.40488 0.0
H300 H 0.33325 0.53107 0.51559 0.0
H301 H 0.38627 0.4626 0.38353 0.0
H302 H 0.41707 0.46827 0.35088 0.0
H303 H 0.39194 0.47218 0.28485 0.0
H304 H 0.40618 0.51676 0.25766 0.0
H305 H 0.43134 0.51299 0.32346 0.0
H306 H 0.41024 0.53768 0.33782 0.0
H307 H 0.3677 0.52375 0.60913 0.0
H308 H 0.4066 0.51721 0.67716 0.0
H309 H 0.44012 0.49501 0.45979 0.0
C310 C 0.35394 0.51199 0.30718 0.0
C311 C 0.33036 0.52188 0.31817 0.0
C312 C 0.32305 0.5285 0.39441 0.0
C313 C 0.33884 0.52559 0.45786 0.0
C314 C 0.36202 0.51622 0.44437 0.0
C315 C 0.3696 0.50966 0.37082 0.0
C316 C 0.39595 0.50148 0.37106 0.0
C317 C 0.39791 0.47453 0.34611 0.0
C318 C 0.41186 0.51823 0.31946 0.0
C319 C 0.40212 0.50471 0.45625 0.0
C320 C 0.38218 0.5129 0.49767 0.0
C321 C 0.38341 0.51732 0.57727 0.0
C322 C 0.40563 0.51349 0.61541 0.0
C323 C 0.42651 0.50561 0.57393 0.0
C324 C 0.42456 0.50107 0.49323 0.0
H325 H 0.97853 0.33151 0.2944 0.0
H326 H 0.05255 0.30442 0.30625 0.0
H327 H 0.06311 0.337 0.40031 0.0
H328 H 0.99383 0.39466 0.30023 0.0
H329 H 0.96817 0.40324 0.35952 0.0
H330 H 0.96596 0.37686 0.297 0.0
H331 H 0.95399 0.34978 0.41491 0.0
H332 H 0.95612 0.37611 0.47784 0.0
H333 H 0.97359 0.34915 0.49888 0.0
H334 H 0.06647 0.37416 0.48484 0.0
H335 H 0.06207 0.41246 0.55919 0.0
H336 H 0.98559 0.41522 0.49496 0.0
C337 C 0.99693 0.33238 0.31709 0.0
C338 C 0.01472 0.31537 0.29314 0.0
C339 C 0.03855 0.31702 0.32456 0.0
C340 C 0.04474 0.33553 0.37771 0.0
C341 C 0.02686 0.35215 0.39934 0.0
C342 C 1.00339 0.35065 0.37057 0.0
C343 C 0.98777 0.37117 0.40198 0.0
C344 C 0.97839 0.38744 0.33573 0.0
C345 C 0.96662 0.36093 0.45135 0.0
C346 C 0.00627 0.38471 0.45181 0.0
C347 C 0.02869 0.3734 0.44942 0.0
C348 C 0.04895 0.38304 0.48784 0.0
C349 C 0.04627 0.40487 0.52969 0.0
C350 C 0.02346 0.4168 0.53325 0.0
C351 C 1.00318 0.40639 0.49418 0.0
H352 H 0.83487 0.94971 0.06365 0.0
H353 H 0.79254 0.0098 0.97044 0.0
H354 H 0.82946 0.02615 0.90667 0.0
H355 H 0.89216 0.98217 0.09072 0.0
H356 H 0.91022 0.95672 0.05839 0.0
H357 H 0.88116 0.95125 0.10454 0.0
H358 H 0.86685 0.92589 0.98534 0.0
H359 H 0.89586 0.93124 0.93894 0.0
H360 H 0.8681 0.9395 0.88997 0.0
H361 H 0.87078 0.03528 0.84887 0.0
H362 H 0.91237 0.03483 0.79389 0.0
H363 H 0.9265 0.96657 0.91396 0.0
C364 C 0.83313 0.96625 0.02965 0.0
C365 C 0.81053 0.97843 0.02298 0.0
C366 C 0.80956 1.0003 0.97856 0.0
C367 C 0.83047 0.0097 0.94146 0.0
C368 C 0.85222 0.99695 0.94843 0.0
C369 C 0.85364 0.97558 0.99087 0.0
C370 C 0.87873 0.96437 0.98455 0.0
C371 C 0.89131 0.96359 0.0643 0.0
C372 C 0.87729 0.93874 0.94747 0.0
C373 C 0.89115 0.98262 0.931 0.0
C374 C 0.87568 1.00151 0.91199 0.0
C375 C 0.88305 0.02058 0.86336 0.0
C376 C 0.90674 0.02019 0.83257 0.0
C377 C 0.92267 1.00062 0.84941 0.0
C378 C 0.91473 0.98171 0.89973 0.0
H379 H 0.55472 0.83418 0.05507 0.0
H380 H 0.49284 0.78841 0.98802 0.0
H381 H 0.4749 0.8235 0.92006 0.0
H382 H 0.52305 0.89166 0.07637 0.0
H383 H 0.54751 0.90934 0.03331 0.0
H384 H 0.5541 0.88149 0.08487 0.0
H385 H 0.57632 0.8646 0.96342 0.0
H386 H 0.56983 0.89239 0.91159 0.0
H387 H 0.56044 0.86323 0.87185 0.0
H388 H 0.46427 0.8635 0.85465 0.0
H389 H 0.46338 0.90395 0.79017 0.0
H390 H 0.53415 0.92185 0.88886 0.0
C391 C 0.53743 0.83129 0.02607 0.0
C392 C 0.52525 0.80827 0.02803 0.0
C393 C 0.50242 0.80583 0.98972 0.0
C394 C 0.4921 0.82568 0.9502 0.0
C395 C 0.50487 0.84787 0.94849 0.0
C396 C 0.52715 0.8507 0.98491 0.0
C397 C 0.53809 0.87584 0.9696 0.0
C398 C 0.54084 0.89044 0.04557 0.0
C399 C 0.56262 0.87389 0.92654 0.0
C400 C 0.51862 0.88663 0.91802 0.0
C401 C 0.4994 0.87039 0.90764 0.0
C402 C 0.47924 0.87634 0.86239 0.0
C403 C 0.47887 0.89938 0.82614 0.0
C404 C 0.49873 0.916 0.83417 0.0
C405 C 0.51875 0.90949 0.8812 0.0
H406 H 0.6875 0.57103 -0.00055 0.0
H407 H 0.71022 0.5008 0.09056 0.0
H408 H 0.67437 0.48099 0.02868 0.0
H409 H 0.62465 0.5624 0.03533 0.0
H410 H 0.61495 0.57817 0.94892 0.0
H411 H 0.64356 0.58624 0.9938 0.0
H412 H 0.66616 0.5782 0.86402 0.0
H413 H 0.63758 0.57024 0.81855 0.0
H414 H 0.66248 0.54898 0.81639 0.0
H415 H 0.63422 0.46941 0.96246 0.0
H416 H 0.59422 0.46702 0.89649 0.0
H417 H 0.59752 0.54538 0.85468 0.0
C418 C 0.68505 0.55145 0.00644 0.0
C419 C 0.70175 0.53751 0.05024 0.0
C420 C 0.69793 0.51187 0.05659 0.0
C421 C 0.6775 0.50048 0.02205 0.0
C422 C 0.66107 0.51496 0.98119 0.0
C423 C 0.66475 0.53989 0.97304 0.0
C424 C 0.644 0.55162 0.9292 0.0
C425 C 0.63103 0.57073 0.97986 0.0
C426 C 0.65311 0.56292 0.85248 0.0
C427 C 0.62783 0.52947 0.91469 0.0
C428 C 0.63802 0.50843 0.94454 0.0
C429 C 0.62617 0.48578 0.93865 0.0
C430 C 0.60341 0.48461 0.90114 0.0
C431 C 0.59261 0.50601 0.87042 0.0
C432 C 0.60514 0.52867 0.87759 0.0
H433 H 0.98153 0.65698 0.10434 0.0
H434 H 1.00307 0.7151 0.94592 0.0
H435 H 0.01755 0.68424 0.85197 0.0
H436 H 0.03215 0.6152 0.05741 0.0
H437 H 0.01294 0.58832 0.0656 0.0
H438 H 0.00655 0.61506 0.1233 0.0
H439 H 0.96262 0.61575 0.06809 0.0
H440 H 0.96891 0.58918 0.00982 0.0
H441 H 0.95819 0.61676 0.96436 0.0
H442 H 0.02491 0.64708 0.76902 0.0
H443 H 0.02792 0.60629 0.70758 0.0
H444 H 1.00285 0.57232 0.92156 0.0
C445 C 0.98965 0.66321 0.05038 0.0
C446 C 0.99126 0.68846 0.03254 0.0
C447 C 1.002 0.69589 0.96133 0.0
C448 C 0.01013 0.67849 0.90741 0.0
C449 C 0.00767 0.65373 0.92593 0.0
C450 C 0.99802 0.64609 -0.00381 0.0
C451 C 0.99653 0.61839 0.00066 0.0
C452 C 0.01303 0.60868 0.06559 0.0
C453 C 0.96999 0.60951 0.01134 0.0
C454 C 0.00627 0.61166 0.92114 0.0
C455 C 0.01257 0.6323 0.8789 0.0
C456 C 0.02045 0.63077 0.80201 0.0
C457 C 0.02198 0.60755 0.76749 0.0
C458 C 0.01587 0.58614 0.81002 0.0
C459 C 0.0081 0.58832 0.88805 0.0
H460 H 0.04824 0.15551 0.33761 0.0
H461 H 0.97781 0.19095 0.33764 0.0
H462 H 0.961 0.15753 0.41925 0.0
H463 H 0.0249 0.09807 0.30146 0.0
H464 H 0.04683 0.08168 0.3588 0.0
H465 H 0.055 0.11078 0.3167 0.0
H466 H 0.06654 0.12809 0.45227 0.0
H467 H 0.0592 0.09876 0.49458 0.0
H468 H 0.04481 0.12601 0.53077 0.0
H469 H 0.95125 0.11788 0.49207 0.0
H470 H 0.95005 0.07658 0.5524 0.0
H471 H 0.02513 0.06531 0.48366 0.0
C472 C 0.02941 0.1566 0.35623 0.0
C473 C 0.01435 0.17585 0.33111 0.0
C474 C 0.98984 0.17662 0.35715 0.0
C475 C 0.98005 0.15755 0.40277 0.0
C476 C 0.995 0.13787 0.42113 0.0
C477 C 0.01922 0.13741 0.39903 0.0
C478 C 0.03086 0.11321 0.4182 0.0
C479 C 0.03992 0.10018 0.34439 0.0
C480 C 0.05157 0.11673 0.4775 0.0
C481 C 0.00932 0.09986 0.45353 0.0
C482 C 0.98888 0.11446 0.45625 0.0
C483 C 0.96709 0.10624 0.48963 0.0
C484 C 0.96646 0.08276 0.52293 0.0
C485 C 0.98725 0.06765 0.52019 0.0
C486 C 0.00873 0.0762 0.48389 0.0
H487 H 0.34497 0.03869 0.31656 0.0
H488 H 0.30801 0.96816 0.31541 0.0
H489 H 0.34119 0.951 0.39639 0.0
H490 H 0.40137 0.01528 0.27856 0.0
H491 H 0.41831 0.03737 0.33537 0.0
H492 H 0.38939 0.04549 0.29412 0.0
H493 H 0.37264 0.05714 0.43012 0.0
H494 H 0.40184 0.04997 0.47155 0.0
H495 H 0.37456 0.03544 0.50871 0.0
H496 H 0.38098 0.94142 0.47009 0.0
H497 H 0.42212 0.94073 0.53048 0.0
H498 H 0.43417 0.01612 0.46064 0.0
C499 C 0.34346 0.0198 0.33543 0.0
C500 C 0.32395 0.00474 0.31025 0.0
C501 C 0.32264 0.98008 0.33529 0.0
C502 C 0.34154 0.97017 0.38043 0.0
C503 C 0.36152 0.98518 0.39899 0.0
C504 C 0.3624 0.00954 0.37741 0.0
C505 C 0.38674 0.02133 0.39582 0.0
C506 C 0.3997 0.03038 0.32155 0.0
C507 C 0.38376 0.04219 0.4551 0.0
C508 C 0.39967 0.99979 0.43084 0.0
C509 C 0.38483 0.97916 0.43372 0.0
C510 C 0.39277 0.95742 0.4674 0.0
C511 C 0.41618 0.95709 0.50081 0.0
C512 C 0.43149 0.97814 0.49802 0.0
C513 C 0.4232 0.99949 0.46118 0.0
H514 H 0.51128 0.35904 0.25393 0.0
H515 H 0.50853 0.30136 0.42755 0.0
H516 H 0.52526 0.33039 0.52477 0.0
H517 H 0.56412 0.39439 0.3285 0.0
H518 H 0.54977 0.42317 0.30749 0.0
H519 H 0.54334 0.39673 0.24783 0.0
H520 H 0.49708 0.40158 0.27406 0.0
H521 H 0.50333 0.42799 0.33335 0.0
H522 H 0.48623 0.40251 0.37296 0.0
H523 H 0.53756 0.36671 0.60568 0.0
H524 H 0.53975 0.40718 0.66768 0.0
H525 H 0.52915 0.44197 0.44358 0.0
C526 C 0.51417 0.35231 0.3123 0.0
C527 C 0.50825 0.32787 0.33317 0.0
C528 C 0.51308 0.31988 0.4098 0.0
C529 C 0.52258 0.33626 0.46537 0.0
C530 C 0.5271 0.36051 0.44329 0.0
C531 C 0.52285 0.3685 0.36857 0.0
C532 C 0.52554 0.39604 0.36179 0.0
C533 C 0.54698 0.40298 0.30823 0.0
C534 C 0.50163 0.4077 0.33396 0.0
C535 C 0.53104 0.40255 0.44534 0.0
C536 C 0.53272 0.38172 0.4908 0.0
C537 C 0.53652 0.38309 0.57052 0.0
C538 C 0.53778 0.40627 0.60513 0.0
C539 C 0.53458 0.42785 0.56041 0.0
C540 C 0.53183 0.42588 0.47916 0.0
H541 H 0.19972 0.52357 0.39551 0.0
H542 H 0.18343 0.58603 0.2516 0.0
H543 H 0.14556 0.59288 0.32612 0.0
H544 H 0.14588 0.49928 0.38598 0.0
H545 H 0.14325 0.487 0.48286 0.0
H546 H 0.17283 0.49194 0.44084 0.0
H547 H 0.18584 0.51987 0.55543 0.0
H548 H 0.15658 0.5142 0.60028 0.0
H549 H 0.16689 0.54519 0.58318 0.0
H550 H 0.10492 0.58618 0.39279 0.0
H551 H 0.06758 0.56905 0.45484 0.0
H552 H 0.11034 0.50949 0.54819 0.0
C553 C 0.1891 0.53978 0.38403 0.0
C554 C 0.19472 0.55474 0.31982 0.0
C555 C 0.17974 0.57495 0.30256 0.0
C556 C 0.15805 0.57875 0.34404 0.0
C557 C 0.15176 0.56223 0.40269 0.0
C558 C 0.16722 0.54345 0.42397 0.0
C559 C 0.15467 0.52564 0.47856 0.0
C560 C 0.15413 0.49945 0.44498 0.0
C561 C 0.16671 0.52628 0.55916 0.0
C562 C 0.12945 0.53645 0.48104 0.0
C563 C 0.1281 0.5578 0.43847 0.0
C564 C 0.10594 0.56978 0.42783 0.0
C565 C 0.08478 0.55982 0.46256 0.0
C566 C 0.08593 0.53784 0.50594 0.0
C567 C 0.10867 0.52627 0.51524 0.0
H568 H 0.04988 0.84455 0.12666 0.0
H569 H 0.01477 0.79923 0.95082 0.0
H570 H 0.02867 0.82777 0.85065 0.0
H571 H 0.02219 0.89372 0.06697 0.0
H572 H 0.04581 0.91601 0.08755 0.0
H573 H 0.04464 0.88786 0.14088 0.0
H574 H 0.08897 0.87825 0.09983 0.0
H575 H 0.09045 0.9067 0.04675 0.0
H576 H 0.09715 0.87827 -0.00167 0.0
H577 H 0.03442 0.86489 0.77583 0.0
H578 H 0.02881 0.90749 0.73462 0.0
H579 H 0.05315 0.93329 0.95981 0.0
C580 C 0.04544 0.84026 0.06694 0.0
C581 C 0.03069 0.81962 0.04775 0.0
C582 C 0.02623 0.8145 0.96827 0.0
C583 C 0.03402 0.83084 0.91039 0.0
C584 C 0.04592 0.85246 0.93257 0.0
C585 C 0.05161 0.85725 0.00927 0.0
C586 C 0.05828 0.88409 0.02118 0.0
C587 C 0.04174 0.8961 0.08268 0.0
C588 C 0.08533 0.88699 0.04278 0.0
C589 C 0.05346 0.89404 0.94053 0.0
C590 C 0.04763 0.87518 0.88961 0.0
C591 C 0.03957 0.8797 0.81446 0.0
C592 C 0.03633 0.90396 0.79172 0.0
C593 C 0.04079 0.92348 0.84407 0.0
C594 C 0.05034 0.9186 0.91837 0.0
H595 H 0.68256 0.99974 0.96661 0.0
H596 H 0.67357 0.06226 0.11812 0.0
H597 H 0.63697 0.07434 0.04462 0.0
H598 H 0.65441 0.02881 0.78222 0.0
H599 H 0.64065 0.99969 0.7578 0.0
H600 H 0.66988 1.00081 0.80561 0.0
H601 H 0.65258 0.97247 0.91338 0.0
H602 H 0.62315 0.97191 0.86814 0.0
H603 H 0.6261 0.98187 0.96759 0.0
H604 H 0.59601 0.07323 0.97703 0.0
H605 H 0.5573 0.06148 0.9116 0.0
H606 H 0.59362 0.99928 0.80738 0.0
C607 C 0.67387 0.01688 0.98084 0.0
C608 C 0.68098 0.03022 0.04725 0.0
C609 C 0.66853 0.05201 0.06655 0.0
C610 C 0.64763 0.05892 0.02537 0.0
C611 C 0.63974 0.04407 0.96426 0.0
C612 C 0.65293 0.02387 0.9406 0.0
C613 C 0.63892 0.00881 0.88157 0.0
C614 C 0.65173 0.00959 0.80208 0.0
C615 C 0.63496 0.98222 0.90942 0.0
C616 C 0.61525 0.02268 0.87978 0.0
C617 C 0.61607 0.04325 0.92636 0.0
C618 C 0.59538 0.05751 0.93874 0.0
C619 C 0.57342 0.0506 0.90198 0.0
C620 C 0.57231 0.02941 0.85465 0.0
C621 C 0.59368 0.0156 0.84316 0.0
H622 H 0.49887 0.68703 0.98397 0.0
H623 H 0.44192 0.67179 0.15186 0.0
H624 H 0.42949 0.63518 0.07697 0.0
H625 H 0.46694 0.65671 0.80434 0.0
H626 H 0.4962 0.64568 0.77281 0.0
H627 H 0.49405 0.67492 0.82097 0.0
H628 H 0.52606 0.66051 0.9208 0.0
H629 H 0.52764 0.631 0.87587 0.0
H630 H 0.51997 0.63334 0.97748 0.0
H631 H 0.43165 0.59465 0.00798 0.0
H632 H 0.44547 0.55664 0.94322 0.0
H633 H 0.50211 0.59835 0.82493 0.0
C634 C 0.48264 0.67705 0.00178 0.0
C635 C 0.47129 0.68225 0.07332 0.0
C636 C 0.4507 0.66818 0.09666 0.0
C637 C 0.44361 0.64727 0.05459 0.0
C638 C 0.45701 0.64103 0.98865 0.0
C639 C 0.47568 0.65599 0.961 0.0
C640 C 0.49026 0.64334 0.89837 0.0
C641 C 0.48663 0.6559 0.81943 0.0
C642 C 0.51756 0.64197 0.91952 0.0
C643 C 0.47826 0.61834 0.89971 0.0
C644 C 0.45868 0.61741 0.95025 0.0
C645 C 0.44652 0.59537 0.96658 0.0
C646 C 0.4546 0.57384 0.93018 0.0
C647 C 0.47499 0.57452 0.8797 0.0
C648 C 0.48654 0.59718 0.86359 0.0
H649 H 0.86597 0.54537 0.04297 0.0
H650 H 0.81999 0.48142 0.00776 0.0
H651 H 0.85308 0.46203 0.93107 0.0
H652 H 0.90098 0.54376 0.85807 0.0
H653 H 0.9285 0.55314 0.90754 0.0
H654 H 0.89932 0.56313 0.94277 0.0
H655 H 0.90994 0.54529 0.07785 0.0
H656 H 0.93862 0.53417 0.04228 0.0
H657 H 0.91706 0.51327 0.08659 0.0
H658 H 0.89346 0.44876 0.86745 0.0
H659 H 0.93558 0.44403 0.81708 0.0
H660 H 0.95525 0.51493 0.91341 0.0
C661 C 0.86251 0.52772 0.01603 0.0
C662 C 0.8404 0.515 0.02959 0.0
C663 C 0.83664 0.49163 -0.00396 0.0
C664 C 0.85545 0.48042 0.95348 0.0
C665 C 0.87778 0.49284 0.94617 0.0
C666 C 0.88119 0.51613 0.97604 0.0
C667 C 0.90734 0.52476 0.96844 0.0
C668 C 0.90914 0.54753 0.91605 0.0
C669 C 0.91891 0.52964 0.04855 0.0
C670 C 0.91835 0.50265 0.92994 0.0
C671 C 0.90109 0.4845 0.91642 0.0
C672 C 0.90709 0.46283 0.87823 0.0
C673 C 0.93109 0.46017 0.85059 0.0
C674 C 0.94883 0.47884 0.86295 0.0
C675 C 0.94238 0.49997 0.90509 0.0
H676 H 0.01451 0.18039 0.00805 0.0
H677 H 0.0839 0.17074 0.1223 0.0
H678 H 0.09126 0.1336 0.04389 0.0
H679 H 0.99671 0.12303 0.02084 0.0
H680 H 0.98119 0.12004 0.929 0.0
H681 H 0.98436 0.14962 0.97363 0.0
H682 H 0.00582 0.16705 0.85116 0.0
H683 H 1.00189 0.13772 0.80438 0.0
H684 H 0.03183 0.1515 0.81124 0.0
H685 H 0.08655 0.09292 0.97597 0.0
H686 H 0.07221 0.05462 0.91285 0.0
H687 H 0.00498 0.09065 0.84844 0.0
C688 C 0.03196 0.17138 0.01232 0.0
C689 C 0.04897 0.17867 0.06918 0.0
C690 C 0.07105 0.16573 0.07707 0.0
C691 C 0.07523 0.1445 0.03334 0.0
C692 C 0.05717 0.13661 0.98188 0.0
C693 C 0.03619 0.15 0.96983 0.0
C694 C 0.01803 0.13593 0.92049 0.0
C695 C 0.99366 0.13193 0.96362 0.0
C696 C 0.01418 0.14882 0.84215 0.0
C697 C 0.03147 0.11213 0.91016 0.0
C698 C 0.05416 0.1129 0.94474 0.0
C699 C 0.06903 0.09231 0.94714 0.0
C700 C 0.06064 0.07056 0.91189 0.0
C701 C 0.03745 0.06953 0.87574 0.0
C702 C 0.02283 0.0907 0.87529 0.0
H703 H 0.35205 0.05935 0.11843 0.0
H704 H 0.29845 0.02628 0.96425 0.0
H705 H 0.32785 0.02879 0.85668 0.0
H706 H 0.38859 0.09583 0.9655 0.0
H707 H 0.41676 0.08799 0.0128 0.0
H708 H 0.38945 0.09226 0.06958 0.0
H709 H 0.39482 0.04916 0.12906 0.0
H710 H 0.42171 0.04444 0.07164 0.0
H711 H 0.39659 0.02295 0.06559 0.0
H712 H 0.36456 0.02408 0.77793 0.0
H713 H 0.40556 0.01422 0.73056 0.0
H714 H 0.43757 0.04718 0.93641 0.0
C715 C 0.3462 0.05341 0.06131 0.0
C716 C 0.32291 0.04245 0.05012 0.0
C717 C 0.31595 0.03508 0.97444 0.0
C718 C 0.33266 0.03631 0.91285 0.0
C719 C 0.35622 0.04502 0.92778 0.0
C720 C 0.36296 0.05379 1e-05 0.0
C721 C 0.39039 0.05774 0.00511 0.0
C722 C 0.39667 0.08509 0.01373 0.0
C723 C 0.40151 0.04267 0.07174 0.0
C724 C 0.39821 0.04818 0.92634 0.0
C725 C 0.37807 0.04163 0.88207 0.0
C726 C 0.38041 0.02972 0.81109 0.0
C727 C 0.40379 0.02396 0.78513 0.0
C728 C 0.42467 0.02997 0.82999 0.0
C729 C 0.42191 0.04284 0.90051 0.0
H730 H 0.49518 0.32036 0.02438 0.0
H731 H 0.42867 0.33372 0.15193 0.0
H732 H 0.42137 0.37067 0.07257 0.0
H733 H 0.51534 0.37717 0.03285 0.0
H734 H 0.52969 0.37909 0.93872 0.0
H735 H 0.52598 0.34987 0.98516 0.0
H736 H 0.50225 0.33274 0.86669 0.0
H737 H 0.50662 0.36169 0.81804 0.0
H738 H 0.47632 0.3491 0.82995 0.0
H739 H 0.42614 0.41057 -0.00098 0.0
H740 H 0.44121 0.44807 0.93255 0.0
H741 H 0.50612 0.40919 0.86103 0.0
C742 C 0.47823 0.33014 0.03158 0.0
C743 C 0.46203 0.32384 0.09209 0.0
C744 C 0.44079 0.33787 0.10382 0.0
C745 C 0.43667 0.35901 0.05951 0.0
C746 C 0.45402 0.36583 0.00398 0.0
C747 C 0.47421 0.35152 0.98899 0.0
C748 C 0.49218 0.36464 0.93631 0.0
C749 C 0.51725 0.36788 0.97567 0.0
C750 C 0.49447 0.35125 0.85809 0.0
C751 C 0.47956 0.38892 0.92686 0.0
C752 C 0.45737 0.38921 0.96482 0.0
C753 C 0.44329 0.41036 0.96786 0.0
C754 C 0.45206 0.43163 0.93048 0.0
C755 C 0.47492 0.43167 0.89202 0.0
C756 C 0.48863 0.4099 0.89018 0.0
H757 H 0.15973 0.49917 0.16082 0.0
H758 H 0.21738 0.50639 0.98822 0.0
H759 H 0.18933 0.49014 0.88871 0.0
H760 H 0.12516 0.44706 0.07567 0.0
H761 H 0.09628 0.46091 0.09788 0.0
H762 H 0.12226 0.46654 0.15971 0.0
H763 H 0.11715 0.51329 0.1413 0.0
H764 H 0.09124 0.50784 0.07961 0.0
H765 H 0.11671 0.52581 0.0444 0.0
H766 H 0.15409 0.47811 0.80518 0.0
H767 H 0.11428 0.47601 0.74073 0.0
H768 H 0.07797 0.48336 0.96394 0.0
C769 C 0.16671 0.49737 0.1023 0.0
C770 C 0.19098 0.50435 0.08294 0.0
C771 C 0.19917 0.50085 0.00561 0.0
C772 C 0.18327 0.49169 0.94837 0.0
C773 C 0.15918 0.48632 0.96904 0.0
C774 C 0.15089 0.48927 0.0441 0.0
C775 C 0.12339 0.48627 0.04904 0.0
C776 C 0.11636 0.46385 0.09851 0.0
C777 C 0.11143 0.50969 0.0804 0.0
C778 C 0.11734 0.48208 0.96428 0.0
C779 C 0.13836 0.48126 0.91974 0.0
C780 C 0.13755 0.47851 0.83953 0.0
C781 C 0.11472 0.47731 0.80352 0.0
C782 C 0.09287 0.47955 0.8473 0.0
C783 C 0.09428 0.48144 0.92901 0.0
H784 H 0.9811 0.86091 0.2154 0.0
H785 H 0.97969 0.80038 0.37911 0.0
H786 H 0.96961 0.82927 0.48455 0.0
H787 H 0.01514 0.89856 0.33377 0.0
H788 H 1.00114 0.92669 0.30348 0.0
H789 H 1.0019 0.90099 0.2383 0.0
H790 H 0.95488 0.90239 0.22435 0.0
H791 H 0.95394 0.92821 0.28962 0.0
H792 H 0.93596 0.90113 0.31005 0.0
H793 H 0.96465 0.8651 0.57407 0.0
H794 H 0.96919 0.90435 0.64277 0.0
H795 H 0.97965 0.94177 0.42249 0.0
C796 C 0.97858 0.85353 0.27325 0.0
C797 C 0.98142 0.82824 0.28874 0.0
C798 C 0.97732 0.81953 0.36521 0.0
C799 C 0.97164 0.83586 0.42558 0.0
C800 C 0.97026 0.8608 0.40859 0.0
C801 C 0.97378 0.86958 0.33423 0.0
C802 C 0.97509 0.89731 0.33267 0.0
C803 C 0.99978 0.9064 0.30018 0.0
C804 C 0.95369 0.90788 0.28643 0.0
C805 C 0.97264 0.90283 0.41843 0.0
C806 C 0.96904 0.88156 0.46082 0.0
C807 C 0.96721 0.88186 0.54141 0.0
C808 C 0.96978 0.90434 0.57986 0.0
C809 C 0.97476 0.92622 0.53795 0.0
C810 C 0.97571 0.92543 0.45602 0.0
H811 H 0.66487 0.02576 0.32269 0.0
H812 H 0.68498 0.94977 0.29045 0.0
H813 H 0.65152 0.93701 0.37811 0.0
H814 H 0.64007 0.02149 0.52331 0.0
H815 H 0.61556 0.04193 0.50003 0.0
H816 H 0.64455 0.04513 0.45147 0.0
H817 H 0.62253 0.04161 0.31863 0.0
H818 H 0.59359 0.03771 0.36657 0.0
H819 H 0.60388 0.01498 0.29834 0.0
H820 H 0.61278 0.93246 0.45957 0.0
H821 H 0.5728 0.93684 0.52619 0.0
H822 H 0.57536 0.01503 0.48426 0.0
C823 C 0.66264 0.00644 0.3353 0.0
C824 C 0.67763 0.98882 0.29946 0.0
C825 C 0.67411 0.96373 0.31813 0.0
C826 C 0.65495 0.95627 0.36734 0.0
C827 C 0.63941 0.97408 0.39682 0.0
C828 C 0.64318 0.99868 0.38165 0.0
C829 C 0.62237 0.01402 0.41136 0.0
C830 C 0.63117 0.03168 0.47536 0.0
C831 C 0.60986 0.02788 0.34475 0.0
C832 C 0.60594 0.99419 0.44398 0.0
C833 C 0.61626 0.97131 0.437 0.0
C834 C 0.60451 0.95028 0.46497 0.0
C835 C 0.5818 0.95286 0.502 0.0
C836 C 0.57088 0.97614 0.50799 0.0
C837 C 0.58305 0.99693 0.47815 0.0
H838 H 0.51393 0.63915 0.22961 0.0
H839 H 0.53553 0.69874 0.38293 0.0
H840 H 0.54899 0.66842 0.48035 0.0
H841 H 0.48628 0.60404 0.37399 0.0
H842 H 0.49477 0.57496 0.33294 0.0
H843 H 0.49116 0.60111 0.27079 0.0
H844 H 0.53509 0.59545 0.21852 0.0
H845 H 0.53891 0.56931 0.28106 0.0
H846 H 0.56025 0.59461 0.28574 0.0
H847 H 0.55638 0.63169 0.56514 0.0
H848 H 0.55384 0.5926 0.63544 0.0
H849 H 0.52378 0.55729 0.43 0.0
C850 C 0.52142 0.64602 0.28366 0.0
C851 C 0.52337 0.67148 0.29882 0.0
C852 C 0.53397 0.67941 0.36959 0.0
C853 C 0.54165 0.66229 0.42524 0.0
C854 C 0.53864 0.63736 0.4091 0.0
C855 C 0.52864 0.62929 0.34008 0.0
C856 C 0.52478 0.60177 0.33983 0.0
C857 C 0.49764 0.59509 0.32878 0.0
C858 C 0.54072 0.58957 0.27759 0.0
C859 C 0.53348 0.59556 0.42075 0.0
C860 C 0.54198 0.61627 0.45896 0.0
C861 C 0.54993 0.61537 0.53557 0.0
C862 C 0.54839 0.59297 0.57499 0.0
C863 C 0.53852 0.57173 0.53842 0.0
C864 C 0.53163 0.57302 0.45948 0.0
H865 H 0.87039 0.55815 0.23954 0.0
H866 H 0.81445 0.52274 0.37909 0.0
H867 H 0.84355 0.51994 0.4886 0.0
H868 H 0.91572 0.52063 0.28849 0.0
H869 H 0.94015 0.54298 0.29075 0.0
H870 H 0.91384 0.54815 0.23114 0.0
H871 H 0.90622 0.58956 0.29951 0.0
H872 H 0.93289 0.58491 0.35863 0.0
H873 H 0.90385 0.59069 0.40395 0.0
H874 H 0.88026 0.51303 0.56976 0.0
H875 H 0.92113 0.50526 0.62262 0.0
H876 H 0.95402 0.54514 0.43069 0.0
C877 C 0.86404 0.5507 0.29436 0.0
C878 C 0.8402 0.54075 0.30146 0.0
C879 C 0.83251 0.53078 0.3732 0.0
C880 C 0.84897 0.52904 0.43537 0.0
C881 C 0.87284 0.53766 0.42477 0.0
C882 C 0.88025 0.54873 0.35646 0.0
C883 C 0.90753 0.5537 0.35594 0.0
C884 C 0.92003 0.54057 0.28757 0.0
C885 C 0.91294 0.58137 0.35445 0.0
C886 C 0.9146 0.54259 0.43312 0.0
C887 C 0.89423 0.53373 0.4722 0.0
C888 C 0.89623 0.52043 0.5407 0.0
C889 C 0.91955 0.51592 0.56981 0.0
C890 C 0.94067 0.52472 0.53075 0.0
C891 C 0.93814 0.53865 0.46234 0.0
loop_
_geom_bond_atom_site_label_1
_geom_bond_atom_site_label_2
_geom_bond_distance
_geom_bond_site_symmetry_2
_ccdc_geom_bond_type
H0 C1 0.949 . S
C1 H0 0.949 . S
C1 C2 1.395 . S
C1 C3 1.391 1_556 S
C2 C1 1.395 . S
C2 C5 1.390 1_556 S
C3 C1 1.391 1_554 S
C3 C7 1.387 . S
C3 C8 1.491 . S
H4 C5 0.950 . S
C5 C2 1.390 1_554 S
C5 H4 0.950 . S
C5 C6 1.378 . S
C6 C5 1.378 . S
C6 C7 1.409 . S
C7 C3 1.387 . S
C7 C6 1.409 . S
C7 H9 0.951 . S
C8 C3 1.491 . S
C8 C10 1.382 1_554 S
C8 C12 1.404 . S
H9 C7 0.951 . S
C10 C8 1.382 1_556 S
C10 C11 1.390 . S
C10 H15 0.949 . S
C11 C10 1.390 . S
C11 C16 1.399 1_556 S
C12 C8 1.404 . S
C12 H13 0.950 . S
C12 C14 1.375 . S
H13 C12 0.950 . S
C14 C12 1.375 . S
C14 C16 1.382 . S
C14 H18 0.950 . S
H15 C10 0.949 . S
C16 C11 1.399 1_554 S
C16 C14 1.382 . S
C16 H17 0.952 . S
H17 C16 0.952 . S
H18 C14 0.950 . S
H19 C20 0.949 . S
C20 H19 0.949 . S
C20 C21 1.390 1_655 S
C20 C22 1.391 . S
C21 C20 1.390 1_455 S
C21 C24 1.393 . S
C22 C20 1.391 . S
C22 C26 1.387 . S
C22 C27 1.491 . S
H23 C24 0.950 . S
C24 C21 1.393 . S
C24 H23 0.950 . S
C24 C25 1.379 . S
C25 C24 1.379 . S
C25 C26 1.407 1_455 S
C26 C22 1.387 . S
C26 C25 1.407 1_655 S
C26 H28 0.951 . S
C27 C22 1.491 . S
C27 C29 1.382 . S
C27 C31 1.404 . S
H28 C26 0.951 . S
C29 C27 1.382 . S
C29 C30 1.390 . S
C29 H34 0.949 1_655 S
C30 C29 1.390 . S
C30 C35 1.399 . S
C31 C27 1.404 . S
C31 H32 0.950 . S
C31 C33 1.375 . S
H32 C31 0.950 . S
C33 C31 1.375 . S
C33 C35 1.382 . S
C33 H37 0.950 . S
H34 C29 0.949 1_455 S
C35 C30 1.399 . S
C35 C33 1.382 . S
C35 H36 0.952 . S
H36 C35 0.952 . S
H37 C33 0.950 . S
H38 C39 0.949 1_556 S
C39 H38 0.949 1_554 S
C39 C40 1.393 1_565 S
C39 C41 1.391 . S
C40 C39 1.393 1_545 S
C40 C43 1.391 . S
C41 C39 1.391 . S
C41 C45 1.387 . S
C41 C46 1.491 . S
H42 C43 0.950 . S
C43 C40 1.391 . S
C43 H42 0.950 . S
C43 C44 1.378 1_545 S
C44 C43 1.378 1_565 S
C44 C45 1.408 . S
C45 C41 1.387 . S
C45 C44 1.408 . S
C45 H47 0.951 . S
C46 C41 1.491 . S
C46 C48 1.382 . S
C46 C50 1.404 . S
H47 C45 0.951 . S
C48 C46 1.382 . S
C48 C49 1.390 . S
C48 H53 0.949 1_564 S
C49 C48 1.390 . S
C49 C54 1.399 . S
C50 C46 1.404 . S
C50 H51 0.950 . S
C50 C52 1.375 . S
H51 C50 0.950 . S
C52 C50 1.375 . S
C52 C54 1.382 . S
C52 H56 0.950 . S
H53 C48 0.949 1_546 S
C54 C49 1.399 . S
C54 C52 1.382 . S
C54 H55 0.952 . S
H55 C54 0.952 . S
H56 C52 0.950 . S
H57 C58 0.949 . S
C58 H57 0.949 . S
C58 C59 1.395 . S
C58 C60 1.391 1_556 S
C59 C58 1.395 . S
C59 C62 1.390 1_556 S
C60 C58 1.391 1_554 S
C60 C64 1.387 . S
C60 C65 1.491 . S
H61 C62 0.950 . S
C62 C59 1.390 1_554 S
C62 H61 0.950 . S
C62 C63 1.378 . S
C63 C62 1.378 . S
C63 C64 1.409 . S
C64 C60 1.387 . S
C64 C63 1.409 . S
C64 H66 0.951 . S
C65 C60 1.491 . S
C65 C67 1.382 1_554 S
C65 C69 1.404 . S
H66 C64 0.951 . S
C67 C65 1.382 1_556 S
C67 C68 1.390 . S
C67 H72 0.949 . S
C68 C67 1.390 . S
C68 C73 1.399 1_556 S
C69 C65 1.404 . S
C69 H70 0.950 . S
C69 C71 1.375 . S
H70 C69 0.950 . S
C71 C69 1.375 . S
C71 C73 1.382 . S
C71 H75 0.950 . S
H72 C67 0.949 . S
C73 C68 1.399 1_554 S
C73 C71 1.382 . S
C73 H74 0.952 . S
H74 C73 0.952 . S
H75 C71 0.950 . S
H76 C77 0.949 . S
C77 H76 0.949 . S
C77 C78 1.395 . S
C77 C79 1.391 . S
C78 C77 1.395 . S
C78 C81 1.390 . S
C79 C77 1.391 . S
C79 C83 1.387 . S
C79 C84 1.491 . S
H80 C81 0.950 . S
C81 C78 1.390 . S
C81 H80 0.950 . S
C81 C82 1.378 . S
C82 C81 1.378 . S
C82 C83 1.409 . S
C83 C79 1.387 . S
C83 C82 1.409 . S
C83 H85 0.951 . S
C84 C79 1.491 . S
C84 C86 1.382 . S
C84 C88 1.404 . S
H85 C83 0.951 . S
C86 C84 1.382 . S
C86 C87 1.390 . S
C86 H91 0.949 . S
C87 C86 1.390 . S
C87 C92 1.399 . S
C88 C84 1.404 . S
C88 H89 0.950 . S
C88 C90 1.375 . S
H89 C88 0.950 . S
C90 C88 1.375 . S
C90 C92 1.382 . S
C90 H94 0.950 . S
H91 C86 0.949 . S
C92 C87 1.399 . S
C92 C90 1.382 . S
C92 H93 0.952 . S
H93 C92 0.952 . S
H94 C90 0.950 . S
H95 C96 0.949 . S
C96 H95 0.949 . S
C96 C97 1.395 . S
C96 C98 1.391 . S
C97 C96 1.395 . S
C97 C100 1.390 . S
C98 C96 1.391 . S
C98 C102 1.387 . S
C98 C103 1.491 . S
H99 C100 0.950 . S
C100 C97 1.390 . S
C100 H99 0.950 . S
C100 C101 1.378 . S
C101 C100 1.378 . S
C101 C102 1.409 . S
C102 C98 1.387 . S
C102 C101 1.409 . S
C102 H104 0.951 . S
C103 C98 1.491 . S
C103 C105 1.382 . S
C103 C107 1.404 . S
H104 C102 0.951 . S
C105 C103 1.382 . S
C105 C106 1.390 . S
C105 H110 0.949 . S
C106 C105 1.390 . S
C106 C111 1.399 . S
C107 C103 1.404 . S
C107 H108 0.950 1_455 S
C107 C109 1.371 1_455 S
H108 C107 0.950 1_655 S
C109 C107 1.371 1_655 S
C109 C111 1.376 1_655 S
C109 H113 0.960 . S
H110 C105 0.949 . S
C111 C106 1.399 . S
C111 C109 1.376 1_455 S
C111 H112 0.952 . S
H112 C111 0.952 . S
H113 C109 0.960 . S
H114 C115 0.949 . S
C115 H114 0.949 . S
C115 C116 1.395 . S
C115 C117 1.391 . S
C116 C115 1.395 . S
C116 C119 1.390 . S
C117 C115 1.391 . S
C117 C121 1.387 . S
C117 C122 1.491 1_545 S
H118 C119 0.950 . S
C119 C116 1.390 . S
C119 H118 0.950 . S
C119 C120 1.378 . S
C120 C119 1.378 . S
C120 C121 1.409 . S
C121 C117 1.387 . S
C121 C120 1.409 . S
C121 H123 0.951 . S
C122 C117 1.491 1_565 S
C122 C124 1.382 1_565 S
C122 C126 1.404 . S
H123 C121 0.951 . S
C124 C122 1.382 1_545 S
C124 C125 1.390 . S
C124 H129 0.949 . S
C125 C124 1.390 . S
C125 C130 1.399 1_545 S
C126 C122 1.404 . S
C126 H127 0.950 . S
C126 C128 1.375 . S
H127 C126 0.950 . S
C128 C126 1.375 . S
C128 C130 1.382 . S
C128 H132 0.950 . S
H129 C124 0.949 . S
C130 C125 1.399 1_565 S
C130 C128 1.382 . S
C130 H131 0.952 . S
H131 C130 0.952 . S
H132 C128 0.950 . S
H133 C134 0.949 . S
C134 H133 0.949 . S
C134 C135 1.395 . S
C134 C136 1.391 . S
C135 C134 1.395 . S
C135 C138 1.390 . S
C136 C134 1.391 . S
C136 C140 1.387 . S
C136 C141 1.491 . S
H137 C138 0.950 . S
C138 C135 1.390 . S
C138 H137 0.950 . S
C138 C139 1.378 . S
C139 C138 1.378 . S
C139 C140 1.409 . S
C140 C136 1.387 . S
C140 C139 1.409 . S
C140 H142 0.951 . S
C141 C136 1.491 . S
C141 C143 1.382 . S
C141 C145 1.404 . S
H142 C140 0.951 . S
C143 C141 1.382 . S
C143 C144 1.390 . S
C143 H148 0.949 . S
C144 C143 1.390 . S
C144 C149 1.399 . S
C145 C141 1.404 . S
C145 H146 0.950 . S
C145 C147 1.375 . S
H146 C145 0.950 . S
C147 C145 1.375 . S
C147 C149 1.382 . S
C147 H151 0.950 . S
H148 C143 0.949 . S
C149 C144 1.399 . S
C149 C147 1.382 . S
C149 H150 0.952 . S
H150 C149 0.952 . S
H151 C147 0.950 . S
O152 Zn153 1.956 . S
O152 C168 1.225 1_545 S
Zn153 O152 1.956 . S
Zn153 O154 1.948 1_545 S
Zn153 O160 1.946 . S
Zn153 O165 1.891 1_545 S
O154 Zn153 1.948 1_565 S
O154 Zn155 1.902 1_465 S
O154 Zn156 1.952 . S
O154 Zn157 1.965 1_455 S
Zn155 O154 1.902 1_645 S
Zn155 O158 1.933 . S
Zn155 O161 1.941 1_655 S
Zn155 O162 1.965 . S
Zn156 O154 1.952 . S
Zn156 O163 1.938 1_565 S
Zn156 O164 1.906 . S
Zn156 O174 1.953 . S
Zn157 O154 1.965 1_655 S
Zn157 O159 1.932 . S
Zn157 O166 1.977 . S
Zn157 O167 1.910 1_655 S
O158 Zn155 1.933 . S
O158 C169 1.226 . S
O159 Zn157 1.932 . S
O159 C169 1.307 1_565 S
O160 Zn153 1.946 . S
O160 C171 1.253 . S
O161 Zn155 1.941 1_455 S
O161 C171 1.283 . S
O162 Zn155 1.965 . S
O162 C170 1.303 1_655 S
O163 Zn156 1.938 1_545 S
O163 C170 1.247 . S
O164 Zn156 1.906 . S
O164 C172 1.304 1_455 S
O165 Zn153 1.891 1_565 S
O165 C173 1.311 . S
O166 Zn157 1.977 . S
O166 C172 1.272 . S
O167 Zn157 1.910 1_455 S
O167 C173 1.231 . S
C168 O152 1.225 1_565 S
C168 O174 1.298 . S
C169 O158 1.226 . S
C169 O159 1.307 1_545 S
C170 O162 1.303 1_455 S
C170 O163 1.247 . S
C171 O160 1.253 . S
C171 O161 1.283 . S
C172 O164 1.304 1_655 S
C172 O166 1.272 . S
C173 O165 1.311 . S
C173 O167 1.231 . S
O174 Zn156 1.953 . S
O174 C168 1.298 . S
O175 Zn176 1.953 . S
O175 C191 1.225 . S
Zn176 O175 1.953 . S
Zn176 O177 1.949 . S
Zn176 O183 1.919 . S
Zn176 O188 1.924 . S
O177 Zn176 1.949 . S
O177 Zn178 1.923 1_545 S
O177 Zn179 1.950 . S
O177 Zn180 1.945 1_545 S
Zn178 O177 1.923 1_565 S
Zn178 O181 1.933 . S
Zn178 O184 1.941 . S
Zn178 O185 1.965 . S
Zn179 O177 1.950 . S
Zn179 O186 1.938 . S
Zn179 O187 1.906 . S
Zn179 O197 1.953 . S
Zn180 O177 1.945 1_565 S
Zn180 O182 1.932 . S
Zn180 O189 1.977 . S
Zn180 O190 1.910 1_565 S
O181 Zn178 1.933 . S
O181 C192 1.226 . S
O182 Zn180 1.932 . S
O182 C192 1.307 . S
O183 Zn176 1.919 . S
O183 C194 1.253 . S
O184 Zn178 1.941 . S
O184 C194 1.283 1_565 S
O185 Zn178 1.965 . S
O185 C193 1.303 1_565 S
O186 Zn179 1.938 . S
O186 C193 1.247 . S
O187 Zn179 1.906 . S
O187 C195 1.304 1_545 S
O188 Zn176 1.924 . S
O188 C196 1.311 . S
O189 Zn180 1.977 . S
O189 C195 1.272 . S
O190 Zn180 1.910 1_545 S
O190 C196 1.231 . S
C191 O175 1.225 . S
C191 O197 1.298 . S
C192 O181 1.226 . S
C192 O182 1.307 . S
C193 O185 1.303 1_545 S
C193 O186 1.247 . S
C194 O183 1.253 . S
C194 O184 1.283 1_545 S
C195 O187 1.304 1_565 S
C195 O189 1.272 . S
C196 O188 1.311 . S
C196 O190 1.231 . S
O197 Zn179 1.953 . S
O197 C191 1.298 . S
O198 Zn199 1.953 . S
O198 C214 1.225 . S
Zn199 O198 1.953 . S
Zn199 O200 1.949 . S
Zn199 O206 1.919 . S
Zn199 O211 1.924 . S
O200 Zn199 1.949 . S
O200 Zn201 1.923 . S
O200 Zn202 1.950 . S
O200 Zn203 1.945 . S
Zn201 O200 1.923 . S
Zn201 O204 1.933 . S
Zn201 O207 1.941 . S
Zn201 O208 1.965 . S
Zn202 O200 1.950 . S
Zn202 O209 1.938 . S
Zn202 O210 1.906 . S
Zn202 O220 1.953 . S
Zn203 O200 1.945 . S
Zn203 O205 1.932 . S
Zn203 O212 1.977 . S
Zn203 O213 1.910 . S
O204 Zn201 1.933 . S
O204 C215 1.226 . S
O205 Zn203 1.932 . S
O205 C215 1.307 . S
O206 Zn199 1.919 . S
O206 C217 1.253 . S
O207 Zn201 1.941 . S
O207 C217 1.283 . S
O208 Zn201 1.965 . S
O208 C216 1.303 . S
O209 Zn202 1.938 . S
O209 C216 1.247 . S
O210 Zn202 1.906 . S
O210 C218 1.304 . S
O211 Zn199 1.924 . S
O211 C219 1.311 . S
O212 Zn203 1.977 . S
O212 C218 1.272 . S
O213 Zn203 1.910 . S
O213 C219 1.231 . S
C214 O198 1.225 . S
C214 O220 1.298 . S
C215 O204 1.226 . S
C215 O205 1.307 . S
C216 O208 1.303 . S
C216 O209 1.247 . S
C217 O206 1.253 . S
C217 O207 1.283 . S
C218 O210 1.304 . S
C218 O212 1.272 . S
C219 O211 1.311 . S
C219 O213 1.231 . S
O220 Zn202 1.953 . S
O220 C214 1.298 . S
O221 Zn222 1.953 1_655 S
O221 C237 1.225 . S
Zn222 O221 1.953 1_455 S
Zn222 O223 1.949 . S
Zn222 O229 1.919 . S
Zn222 O234 1.924 . S
O223 Zn222 1.949 . S
O223 Zn224 1.917 1_455 S
O223 Zn225 1.929 1_455 S
O223 Zn226 1.973 . S
Zn224 O223 1.917 1_655 S
Zn224 O227 1.933 1_655 S
Zn224 O230 1.941 . S
Zn224 O231 1.965 . S
Zn225 O223 1.929 1_655 S
Zn225 O232 1.938 . S
Zn225 O233 1.906 . S
Zn225 O243 1.953 . S
Zn226 O223 1.973 . S
Zn226 O228 1.932 . S
Zn226 O235 1.977 . S
Zn226 O236 1.910 . S
O227 Zn224 1.933 1_455 S
O227 C238 1.226 . S
O228 Zn226 1.932 . S
O228 C238 1.307 . S
O229 Zn222 1.919 . S
O229 C240 1.254 . S
O230 Zn224 1.941 . S
O230 C240 1.278 1_655 S
O231 Zn224 1.965 . S
O231 C239 1.303 . S
O232 Zn225 1.938 . S
O232 C239 1.247 . S
O233 Zn225 1.906 . S
O233 C241 1.304 1_655 S
O234 Zn222 1.924 . S
O234 C242 1.311 . S
O235 Zn226 1.977 . S
O235 C241 1.272 . S
O236 Zn226 1.910 . S
O236 C242 1.231 . S
C237 O221 1.225 . S
C237 O243 1.298 . S
C238 O227 1.226 . S
C238 O228 1.307 . S
C239 O231 1.303 . S
C239 O232 1.247 . S
C240 O229 1.254 . S
C240 O230 1.278 1_455 S
C241 O233 1.304 1_455 S
C241 O235 1.272 . S
C242 O234 1.311 . S
C242 O236 1.231 . S
O243 Zn225 1.953 . S
O243 C237 1.298 . S
H244 C256 0.930 . S
H245 C258 0.930 . S
H246 C259 0.930 . S
H247 C263 0.943 1_545 S
H248 C263 0.959 . S
H249 C263 0.961 . S
H250 C264 0.960 . S
H251 C264 0.961 . S
H252 C264 0.959 . S
H253 C267 0.929 . S
H254 C268 0.931 . S
H255 C270 0.930 . S
C256 H244 0.930 . S
C256 C257 1.399 1_565 S
C256 C261 1.399 . S
C257 C256 1.399 1_545 S
C257 C258 1.376 . S
C258 H245 0.930 . S
C258 C257 1.376 . S
C258 C259 1.388 . S
C259 H246 0.930 . S
C259 C258 1.388 . S
C259 C260 1.390 . S
C260 C259 1.390 . S
C260 C261 1.394 1_545 S
C260 C266 1.465 . S
C261 C256 1.399 . S
C261 C260 1.394 1_565 S
C261 C262 1.516 . S
C262 C261 1.516 . S
C262 C263 1.502 . S
C262 C264 1.561 . S
C262 C265 1.526 . S
C263 H247 0.943 1_565 S
C263 H248 0.959 . S
C263 H249 0.961 . S
C263 C262 1.502 . S
C264 H250 0.960 . S
C264 H251 0.961 . S
C264 H252 0.959 . S
C264 C262 1.561 . S
C265 C262 1.526 . S
C265 C266 1.396 1_565 S
C265 C270 1.390 . S
C266 C260 1.465 . S
C266 C265 1.396 1_545 S
C266 C267 1.399 . S
C267 H253 0.929 . S
C267 C266 1.399 . S
C267 C268 1.385 . S
C268 H254 0.931 . S
C268 C267 1.385 . S
C268 C269 1.420 . S
C269 C268 1.420 . S
C269 C270 1.364 1_545 S
C270 H255 0.930 . S
C270 C265 1.390 . S
C270 C269 1.364 1_565 S
H271 C283 0.930 . S
H272 C285 0.930 . S
H273 C286 0.930 . S
H274 C290 0.959 . S
H275 C290 0.959 . S
H276 C290 0.961 . S
H277 C291 0.960 . S
H278 C291 0.961 . S
H279 C291 0.959 . S
H280 C294 0.929 . S
H281 C295 0.931 . S
H282 C297 0.930 . S
C283 H271 0.930 . S
C283 C284 1.399 . S
C283 C288 1.399 . S
C284 C283 1.399 . S
C284 C285 1.376 . S
C285 H272 0.930 . S
C285 C284 1.376 . S
C285 C286 1.388 . S
C286 H273 0.930 . S
C286 C285 1.388 . S
C286 C287 1.390 . S
C287 C286 1.390 . S
C287 C288 1.394 . S
C287 C293 1.465 . S
C288 C283 1.399 . S
C288 C287 1.394 . S
C288 C289 1.516 . S
C289 C288 1.516 . S
C289 C290 1.502 . S
C289 C291 1.561 . S
C289 C292 1.526 . S
C290 H274 0.959 . S
C290 H275 0.959 . S
C290 H276 0.961 . S
C290 C289 1.502 . S
C291 H277 0.960 . S
C291 H278 0.961 . S
C291 H279 0.959 . S
C291 C289 1.561 . S
C292 C289 1.526 . S
C292 C293 1.396 . S
C292 C297 1.390 . S
C293 C287 1.465 . S
C293 C292 1.396 . S
C293 C294 1.399 . S
C294 H280 0.929 . S
C294 C293 1.399 . S
C294 C295 1.385 . S
C295 H281 0.931 . S
C295 C294 1.385 . S
C295 C296 1.389 . S
C296 C295 1.389 . S
C296 C297 1.387 . S
C297 H282 0.930 . S
C297 C292 1.390 . S
C297 C296 1.387 . S
H298 C310 0.930 . S
H299 C312 0.930 . S
H300 C313 0.930 . S
H301 C317 0.959 . S
H302 C317 0.959 . S
H303 C317 0.961 . S
H304 C318 0.960 . S
H305 C318 0.961 . S
H306 C318 0.959 . S
H307 C321 0.929 . S
H308 C322 0.931 . S
H309 C324 0.930 . S
C310 H298 0.930 . S
C310 C311 1.399 . S
C310 C315 1.399 . S
C311 C310 1.399 . S
C311 C312 1.376 . S
C312 H299 0.930 . S
C312 C311 1.376 . S
C312 C313 1.388 . S
C313 H300 0.930 . S
C313 C312 1.388 . S
C313 C314 1.390 . S
C314 C313 1.390 . S
C314 C315 1.394 . S
C314 C320 1.465 . S
C315 C310 1.399 . S
C315 C314 1.394 . S
C315 C316 1.516 . S
C316 C315 1.516 . S
C316 C317 1.502 . S
C316 C318 1.561 . S
C316 C319 1.526 . S
C317 H301 0.959 . S
C317 H302 0.959 . S
C317 H303 0.961 . S
C317 C316 1.502 . S
C318 H304 0.960 . S
C318 H305 0.961 . S
C318 H306 0.959 . S
C318 C316 1.561 . S
C319 C316 1.526 . S
C319 C320 1.396 . S
C319 C324 1.390 . S
C320 C314 1.465 . S
C320 C319 1.396 . S
C320 C321 1.399 . S
C321 H307 0.929 . S
C321 C320 1.399 . S
C321 C322 1.385 . S
C322 H308 0.931 . S
C322 C321 1.385 . S
C322 C323 1.389 . S
C323 C322 1.389 . S
C323 C324 1.387 . S
C324 H309 0.930 . S
C324 C319 1.390 . S
C324 C323 1.387 . S
H325 C337 0.930 . S
H326 C339 0.930 . S
H327 C340 0.930 . S
H328 C344 0.959 . S
H329 C344 0.959 . S
H330 C344 0.961 . S
H331 C345 0.960 . S
H332 C345 0.961 . S
H333 C345 0.959 . S
H334 C348 0.929 . S
H335 C349 0.931 . S
H336 C351 0.930 1_655 S
C337 H325 0.930 . S
C337 C338 1.399 . S
C337 C342 1.399 . S
C338 C337 1.399 . S
C338 C339 1.376 . S
C339 H326 0.930 . S
C339 C338 1.376 . S
C339 C340 1.388 . S
C340 H327 0.930 . S
C340 C339 1.388 . S
C340 C341 1.390 . S
C341 C340 1.390 . S
C341 C342 1.394 . S
C341 C347 1.465 . S
C342 C337 1.399 . S
C342 C341 1.394 . S
C342 C343 1.516 . S
C343 C342 1.516 . S
C343 C344 1.502 1_455 S
C343 C345 1.561 . S
C343 C346 1.526 . S
C344 H328 0.959 . S
C344 H329 0.959 . S
C344 H330 0.961 . S
C344 C343 1.502 1_655 S
C345 H331 0.960 . S
C345 H332 0.961 . S
C345 H333 0.959 . S
C345 C343 1.561 . S
C346 C343 1.526 . S
C346 C347 1.396 . S
C346 C351 1.390 . S
C347 C341 1.465 . S
C347 C346 1.396 . S
C347 C348 1.399 . S
C348 H334 0.929 . S
C348 C347 1.399 . S
C348 C349 1.385 . S
C349 H335 0.931 . S
C349 C348 1.385 . S
C349 C350 1.389 . S
C350 C349 1.389 . S
C350 C351 1.387 . S
C351 H336 0.930 1_455 S
C351 C346 1.390 . S
C351 C350 1.387 . S
H352 C364 0.919 1_554 S
H353 C366 0.930 . S
H354 C367 0.929 . S
H355 C371 0.959 . S
H356 C371 0.959 . S
H357 C371 0.961 . S
H358 C372 0.960 . S
H359 C372 0.961 . S
H360 C372 0.959 1_556 S
H361 C375 0.932 . S
H362 C376 0.931 . S
H363 C378 0.930 . S
C364 H352 0.919 1_556 S
C364 C365 1.403 . S
C364 C369 1.405 . S
C365 C364 1.403 . S
C365 C366 1.376 . S
C366 H353 0.930 . S
C366 C365 1.376 . S
C366 C367 1.389 . S
C367 H354 0.929 . S
C367 C366 1.389 . S
C367 C368 1.393 . S
C368 C367 1.393 . S
C368 C369 1.394 . S
C368 C374 1.467 . S
C369 C364 1.405 . S
C369 C368 1.394 . S
C369 C370 1.516 . S
C370 C369 1.516 . S
C370 C371 1.502 1_566 S
C370 C372 1.561 1_556 S
C370 C373 1.526 . S
C371 H355 0.959 . S
C371 H356 0.959 . S
C371 H357 0.961 . S
C371 C370 1.502 1_544 S
C372 H358 0.960 . S
C372 H359 0.961 . S
C372 H360 0.959 1_554 S
C372 C370 1.561 1_554 S
C373 C370 1.526 . S
C373 C374 1.399 . S
C373 C378 1.390 . S
C374 C368 1.467 . S
C374 C373 1.399 . S
C374 C375 1.395 1_565 S
C375 H361 0.932 . S
C375 C374 1.395 1_545 S
C375 C376 1.387 . S
C376 H362 0.931 . S
C376 C375 1.387 . S
C376 C377 1.389 . S
C377 C376 1.389 . S
C377 C378 1.387 1_545 S
C378 H363 0.930 . S
C378 C373 1.390 . S
C378 C377 1.387 1_565 S
H379 C391 0.930 1_554 S
H380 C393 0.930 . S
H381 C394 0.930 . S
H382 C398 0.959 . S
H383 C398 0.959 . S
H384 C398 0.961 1_554 S
H385 C399 0.960 1_554 S
H386 C399 0.962 . S
H387 C399 0.959 . S
H388 C402 0.929 . S
H389 C403 0.931 . S
H390 C405 0.930 . S
C391 H379 0.930 1_556 S
C391 C392 1.399 . S
C391 C396 1.399 . S
C392 C391 1.399 . S
C392 C393 1.376 . S
C393 H380 0.930 . S
C393 C392 1.376 . S
C393 C394 1.388 . S
C394 H381 0.930 . S
C394 C393 1.388 . S
C394 C395 1.390 . S
C395 C394 1.390 . S
C395 C396 1.394 . S
C395 C401 1.465 . S
C396 C391 1.399 . S
C396 C395 1.394 . S
C396 C397 1.516 . S
C397 C396 1.516 . S
C397 C398 1.502 . S
C397 C399 1.561 . S
C397 C400 1.526 . S
C398 H382 0.959 . S
C398 H383 0.959 . S
C398 H384 0.961 1_556 S
C398 C397 1.502 . S
C399 H385 0.960 1_556 S
C399 H386 0.962 . S
C399 H387 0.959 . S
C399 C397 1.561 . S
C400 C397 1.526 . S
C400 C401 1.396 . S
C400 C405 1.390 . S
C401 C395 1.465 . S
C401 C400 1.396 . S
C401 C402 1.399 . S
C402 H388 0.929 . S
C402 C401 1.399 . S
C402 C403 1.385 . S
C403 H389 0.931 . S
C403 C402 1.385 . S
C403 C404 1.389 . S
C404 C403 1.389 . S
C404 C405 1.387 . S
C405 H390 0.930 . S
C405 C400 1.390 . S
C405 C404 1.387 . S
H406 C418 0.930 . S
H407 C420 0.930 . S
H408 C421 0.930 . S
H409 C425 0.959 . S
H410 C425 0.959 . S
H411 C425 0.961 . S
H412 C426 0.960 . S
H413 C426 0.961 . S
H414 C426 0.959 . S
H415 C429 0.929 . S
H416 C430 0.931 . S
H417 C432 0.930 . S
C418 H406 0.930 . S
C418 C419 1.399 . S
C418 C423 1.399 . S
C419 C418 1.399 . S
C419 C420 1.376 . S
C420 H407 0.930 . S
C420 C419 1.376 . S
C420 C421 1.388 . S
C421 H408 0.930 . S
C421 C420 1.388 . S
C421 C422 1.390 . S
C422 C421 1.390 . S
C422 C423 1.394 . S
C422 C428 1.465 . S
C423 C418 1.399 . S
C423 C422 1.394 . S
C423 C424 1.516 . S
C424 C423 1.516 . S
C424 C425 1.502 . S
C424 C426 1.561 . S
C424 C427 1.526 . S
C425 H409 0.959 . S
C425 H410 0.959 . S
C425 H411 0.961 . S
C425 C424 1.502 . S
C426 H412 0.960 . S
C426 H413 0.961 . S
C426 H414 0.959 . S
C426 C424 1.561 . S
C427 C424 1.526 . S
C427 C428 1.396 . S
C427 C432 1.390 . S
C428 C422 1.465 . S
C428 C427 1.396 . S
C428 C429 1.399 . S
C429 H415 0.929 . S
C429 C428 1.399 . S
C429 C430 1.385 . S
C430 H416 0.931 . S
C430 C429 1.385 . S
C430 C431 1.389 . S
C431 C430 1.389 . S
C431 C432 1.387 . S
C432 H417 0.930 . S
C432 C427 1.390 . S
C432 C431 1.387 . S
H433 C445 0.930 . S
H434 C447 0.930 . S
H435 C448 0.930 . S
H436 C452 0.960 . S
H437 C452 0.959 1_554 S
H438 C452 0.960 1_554 S
H439 C453 0.960 . S
H440 C453 0.961 . S
H441 C453 0.959 1_556 S
H442 C456 0.929 . S
H443 C457 0.931 . S
H444 C459 0.930 . S
C445 H433 0.930 . S
C445 C446 1.399 1_454 S
C445 C450 1.399 1_554 S
C446 C445 1.399 1_656 S
C446 C447 1.376 . S
C447 H434 0.930 . S
C447 C446 1.376 . S
C447 C448 1.388 . S
C448 H435 0.930 . S
C448 C447 1.388 . S
C448 C449 1.390 . S
C449 C448 1.390 . S
C449 C450 1.394 1_655 S
C449 C455 1.465 . S
C450 C445 1.399 1_556 S
C450 C449 1.394 1_455 S
C450 C451 1.516 . S
C451 C450 1.516 . S
C451 C452 1.502 . S
C451 C453 1.561 1_456 S
C451 C454 1.526 . S
C452 H436 0.960 . S
C452 H437 0.959 1_556 S
C452 H438 0.960 1_556 S
C452 C451 1.502 . S
C453 H439 0.960 . S
C453 H440 0.961 . S
C453 H441 0.959 1_554 S
C453 C451 1.561 1_654 S
C454 C451 1.526 . S
C454 C455 1.396 1_455 S
C454 C459 1.390 . S
C455 C449 1.465 . S
C455 C454 1.396 1_655 S
C455 C456 1.399 . S
C456 H442 0.929 . S
C456 C455 1.399 . S
C456 C457 1.385 . S
C457 H443 0.931 . S
C457 C456 1.385 . S
C457 C458 1.389 1_655 S
C458 C457 1.389 1_455 S
C458 C459 1.387 . S
C459 H444 0.930 . S
C459 C454 1.390 . S
C459 C458 1.387 . S
H460 C472 0.930 . S
H461 C474 0.930 . S
H462 C475 0.930 . S
H463 C479 0.959 . S
H464 C479 0.959 . S
H465 C479 0.961 . S
H466 C480 0.960 . S
H467 C480 0.961 . S
H468 C480 0.959 1_655 S
H469 C483 0.929 . S
H470 C484 0.931 . S
H471 C486 0.930 . S
C472 H460 0.930 . S
C472 C473 1.399 . S
C472 C477 1.399 . S
C473 C472 1.399 . S
C473 C474 1.376 . S
C474 H461 0.930 . S
C474 C473 1.376 . S
C474 C475 1.388 . S
C475 H462 0.930 . S
C475 C474 1.388 . S
C475 C476 1.390 . S
C476 C475 1.390 . S
C476 C477 1.394 . S
C476 C482 1.465 . S
C477 C472 1.399 . S
C477 C476 1.394 . S
C477 C478 1.516 . S
C478 C477 1.516 . S
C478 C479 1.502 . S
C478 C480 1.561 . S
C478 C481 1.526 . S
C479 H463 0.959 . S
C479 H464 0.959 . S
C479 H465 0.961 . S
C479 C478 1.502 . S
C480 H466 0.960 . S
C480 H467 0.961 . S
C480 H468 0.959 1_455 S
C480 C478 1.561 . S
C481 C478 1.526 . S
C481 C482 1.396 . S
C481 C486 1.390 . S
C482 C476 1.465 . S
C482 C481 1.396 . S
C482 C483 1.399 . S
C483 H469 0.929 . S
C483 C482 1.399 . S
C483 C484 1.385 . S
C484 H470 0.931 . S
C484 C483 1.385 . S
C484 C485 1.389 . S
C485 C484 1.389 . S
C485 C486 1.387 . S
C486 H471 0.930 . S
C486 C481 1.390 . S
C486 C485 1.387 . S
H487 C499 0.930 . S
H488 C501 0.930 . S
H489 C502 0.930 . S
H490 C506 0.959 . S
H491 C506 0.959 . S
H492 C506 0.961 . S
H493 C507 0.960 . S
H494 C507 0.961 . S
H495 C507 0.959 . S
H496 C510 0.929 . S
H497 C511 0.931 . S
H498 C513 0.930 . S
C499 H487 0.930 . S
C499 C500 1.399 . S
C499 C504 1.399 . S
C500 C499 1.399 . S
C500 C501 1.376 1_545 S
C501 H488 0.930 . S
C501 C500 1.376 1_565 S
C501 C502 1.388 . S
C502 H489 0.930 . S
C502 C501 1.388 . S
C502 C503 1.390 . S
C503 C502 1.390 . S
C503 C504 1.394 1_565 S
C503 C509 1.465 . S
C504 C499 1.399 . S
C504 C503 1.394 1_545 S
C504 C505 1.516 . S
C505 C504 1.516 . S
C505 C506 1.502 . S
C505 C507 1.561 . S
C505 C508 1.526 . S
C506 H490 0.959 . S
C506 H491 0.959 . S
C506 H492 0.961 . S
C506 C505 1.502 . S
C507 H493 0.960 . S
C507 H494 0.961 . S
C507 H495 0.959 . S
C507 C505 1.561 . S
C508 C505 1.526 . S
C508 C509 1.396 1_545 S
C508 C513 1.390 . S
C509 C503 1.465 . S
C509 C508 1.396 1_565 S
C509 C510 1.399 . S
C510 H496 0.929 . S
C510 C509 1.399 . S
C510 C511 1.385 . S
C511 H497 0.931 . S
C511 C510 1.385 . S
C511 C512 1.389 1_565 S
C512 C511 1.389 1_545 S
C512 C513 1.387 . S
C513 H498 0.930 . S
C513 C508 1.390 . S
C513 C512 1.387 . S
H514 C526 0.930 . S
H515 C528 0.930 . S
H516 C529 0.930 . S
H517 C533 0.959 . S
H518 C533 0.959 . S
H519 C533 0.961 . S
H520 C534 0.960 . S
H521 C534 0.961 . S
H522 C534 0.959 . S
H523 C537 0.929 . S
H524 C538 0.931 . S
H525 C540 0.930 . S
C526 H514 0.930 . S
C526 C527 1.399 . S
C526 C531 1.399 . S
C527 C526 1.399 . S
C527 C528 1.376 . S
C528 H515 0.930 . S
C528 C527 1.376 . S
C528 C529 1.388 . S
C529 H516 0.930 . S
C529 C528 1.388 . S
C529 C530 1.390 . S
C530 C529 1.390 . S
C530 C531 1.394 . S
C530 C536 1.465 . S
C531 C526 1.399 . S
C531 C530 1.394 . S
C531 C532 1.516 . S
C532 C531 1.516 . S
C532 C533 1.502 . S
C532 C534 1.561 . S
C532 C535 1.526 . S
C533 H517 0.959 . S
C533 H518 0.959 . S
C533 H519 0.961 . S
C533 C532 1.502 . S
C534 H520 0.960 . S
C534 H521 0.961 . S
C534 H522 0.959 . S
C534 C532 1.561 . S
C535 C532 1.526 . S
C535 C536 1.396 . S
C535 C540 1.390 . S
C536 C530 1.465 . S
C536 C535 1.396 . S
C536 C537 1.399 . S
C537 H523 0.929 . S
C537 C536 1.399 . S
C537 C538 1.385 . S
C538 H524 0.931 . S
C538 C537 1.385 . S
C538 C539 1.389 . S
C539 C538 1.389 . S
C539 C540 1.387 . S
C540 H525 0.930 . S
C540 C535 1.390 . S
C540 C539 1.387 . S
H541 C553 0.930 . S
H542 C555 0.930 . S
H543 C556 0.930 . S
H544 C560 0.959 . S
H545 C560 0.959 . S
H546 C560 0.961 . S
H547 C561 0.960 . S
H548 C561 0.961 . S
H549 C561 0.959 . S
H550 C564 0.929 . S
H551 C565 0.931 . S
H552 C567 0.930 . S
C553 H541 0.930 . S
C553 C554 1.399 . S
C553 C558 1.399 . S
C554 C553 1.399 . S
C554 C555 1.376 . S
C555 H542 0.930 . S
C555 C554 1.376 . S
C555 C556 1.388 . S
C556 H543 0.930 . S
C556 C555 1.388 . S
C556 C557 1.390 . S
C557 C556 1.390 . S
C557 C558 1.394 . S
C557 C563 1.465 . S
C558 C553 1.399 . S
C558 C557 1.394 . S
C558 C559 1.516 . S
C559 C558 1.516 . S
C559 C560 1.502 . S
C559 C561 1.561 . S
C559 C562 1.526 . S
C560 H544 0.959 . S
C560 H545 0.959 . S
C560 H546 0.961 . S
C560 C559 1.502 . S
C561 H547 0.960 . S
C561 H548 0.961 . S
C561 H549 0.959 . S
C561 C559 1.561 . S
C562 C559 1.526 . S
C562 C563 1.396 . S
C562 C567 1.390 . S
C563 C557 1.465 . S
C563 C562 1.396 . S
C563 C564 1.399 . S
C564 H550 0.929 . S
C564 C563 1.399 . S
C564 C565 1.385 . S
C565 H551 0.931 . S
C565 C564 1.385 . S
C565 C566 1.389 . S
C566 C565 1.389 . S
C566 C567 1.387 . S
C567 H552 0.930 . S
C567 C562 1.390 . S
C567 C566 1.387 . S
H568 C580 0.930 . S
H569 C582 0.930 . S
H570 C583 0.930 . S
H571 C587 0.959 1_655 S
H572 C587 0.959 . S
H573 C587 0.969 . S
H574 C588 0.960 . S
H575 C588 0.961 . S
H576 C588 0.959 . S
H577 C591 0.929 . S
H578 C592 0.931 . S
H579 C594 0.930 . S
C580 H568 0.930 . S
C580 C581 1.399 . S
C580 C585 1.399 . S
C581 C580 1.399 . S
C581 C582 1.376 1_554 S
C582 H569 0.930 . S
C582 C581 1.376 1_556 S
C582 C583 1.388 . S
C583 H570 0.930 . S
C583 C582 1.388 . S
C583 C584 1.390 . S
C584 C583 1.390 . S
C584 C585 1.394 1_556 S
C584 C590 1.465 . S
C585 C580 1.399 . S
C585 C584 1.394 1_554 S
C585 C586 1.516 . S
C586 C585 1.516 . S
C586 C587 1.502 . S
C586 C588 1.561 . S
C586 C589 1.526 1_554 S
C587 H571 0.959 1_455 S
C587 H572 0.959 . S
C587 H573 0.969 . S
C587 C586 1.502 . S
C588 H574 0.960 . S
C588 H575 0.961 . S
C588 H576 0.959 . S
C588 C586 1.561 . S
C589 C586 1.526 1_556 S
C589 C590 1.396 . S
C589 C594 1.390 . S
C590 C584 1.465 . S
C590 C589 1.396 . S
C590 C591 1.399 . S
C591 H577 0.929 . S
C591 C590 1.399 . S
C591 C592 1.385 . S
C592 H578 0.931 . S
C592 C591 1.385 . S
C592 C593 1.389 . S
C593 C592 1.389 . S
C593 C594 1.387 . S
C594 H579 0.930 . S
C594 C589 1.390 . S
C594 C593 1.387 . S
H595 C607 0.930 . S
H596 C609 0.930 . S
H597 C610 0.930 . S
H598 C614 0.959 1_545 S
H599 C614 0.959 . S
H600 C614 0.961 . S
H601 C615 0.960 . S
H602 C615 0.961 . S
H603 C615 0.959 . S
H604 C618 0.929 . S
H605 C619 0.931 . S
H606 C621 0.930 . S
C607 H595 0.930 . S
C607 C608 1.399 1_565 S
C607 C612 1.399 1_565 S
C608 C607 1.399 1_545 S
C608 C609 1.376 1_556 S
C609 H596 0.930 . S
C609 C608 1.376 1_554 S
C609 C610 1.388 . S
C610 H597 0.930 . S
C610 C609 1.388 . S
C610 C611 1.390 1_554 S
C611 C610 1.390 1_556 S
C611 C612 1.394 . S
C611 C617 1.465 . S
C612 C607 1.399 1_545 S
C612 C611 1.394 . S
C612 C613 1.516 1_545 S
C613 C612 1.516 1_565 S
C613 C614 1.502 . S
C613 C615 1.561 . S
C613 C616 1.526 1_565 S
C614 H598 0.959 1_565 S
C614 H599 0.959 . S
C614 H600 0.961 . S
C614 C613 1.502 . S
C615 H601 0.960 . S
C615 H602 0.961 . S
C615 H603 0.959 . S
C615 C613 1.561 . S
C616 C613 1.526 1_545 S
C616 C617 1.396 . S
C616 C621 1.390 . S
C617 C611 1.465 . S
C617 C616 1.396 . S
C617 C618 1.399 . S
C618 H604 0.929 . S
C618 C617 1.399 . S
C618 C619 1.385 . S
C619 H605 0.931 . S
C619 C618 1.385 . S
C619 C620 1.389 . S
C620 C619 1.389 . S
C620 C621 1.387 . S
C621 H606 0.930 . S
C621 C616 1.390 . S
C621 C620 1.387 . S
H622 C634 0.930 1_554 S
H623 C636 0.930 . S
H624 C637 0.930 . S
H625 C641 0.959 . S
H626 C641 0.959 . S
H627 C641 0.961 1_554 S
H628 C642 0.960 . S
H629 C642 0.961 . S
H630 C642 0.959 . S
H631 C645 0.929 . S
H632 C646 0.931 . S
H633 C648 0.930 . S
C634 H622 0.930 1_556 S
C634 C635 1.399 . S
C634 C639 1.399 . S
C635 C634 1.399 . S
C635 C636 1.376 . S
C636 H623 0.930 . S
C636 C635 1.376 . S
C636 C637 1.388 . S
C637 H624 0.930 . S
C637 C636 1.388 . S
C637 C638 1.390 . S
C638 C637 1.390 . S
C638 C639 1.394 . S
C638 C644 1.465 . S
C639 C634 1.399 . S
C639 C638 1.394 . S
C639 C640 1.516 . S
C640 C639 1.516 . S
C640 C641 1.502 . S
C640 C642 1.561 1_556 S
C640 C643 1.526 . S
C641 H625 0.959 . S
C641 H626 0.959 . S
C641 H627 0.961 1_556 S
C641 C640 1.502 . S
C642 H628 0.960 . S
C642 H629 0.961 . S
C642 H630 0.959 . S
C642 C640 1.561 1_554 S
C643 C640 1.526 . S
C643 C644 1.396 . S
C643 C648 1.390 . S
C644 C638 1.465 . S
C644 C643 1.396 . S
C644 C645 1.399 . S
C645 H631 0.929 . S
C645 C644 1.399 . S
C645 C646 1.385 . S
C646 H632 0.931 . S
C646 C645 1.385 . S
C646 C647 1.389 . S
C647 C646 1.389 . S
C647 C648 1.387 . S
C648 H633 0.930 . S
C648 C643 1.390 . S
C648 C647 1.387 . S
H649 C661 0.930 . S
H650 C663 0.930 . S
H651 C664 0.930 . S
H652 C668 0.959 . S
H653 C668 0.959 . S
H654 C668 0.961 . S
H655 C669 0.960 . S
H656 C669 0.961 . S
H657 C669 0.959 . S
H658 C672 0.929 . S
H659 C673 0.931 . S
H660 C675 0.930 . S
C661 H649 0.930 . S
C661 C662 1.399 . S
C661 C666 1.399 . S
C662 C661 1.399 . S
C662 C663 1.376 . S
C663 H650 0.930 . S
C663 C662 1.376 . S
C663 C664 1.388 . S
C664 H651 0.930 . S
C664 C663 1.388 . S
C664 C665 1.390 . S
C665 C664 1.390 . S
C665 C666 1.394 . S
C665 C671 1.465 . S
C666 C661 1.399 . S
C666 C665 1.394 . S
C666 C667 1.516 . S
C667 C666 1.516 . S
C667 C668 1.502 . S
C667 C669 1.561 . S
C667 C670 1.526 . S
C668 H652 0.959 . S
C668 H653 0.959 . S
C668 H654 0.961 . S
C668 C667 1.502 . S
C669 H655 0.960 . S
C669 H656 0.961 . S
C669 H657 0.959 . S
C669 C667 1.561 . S
C670 C667 1.526 . S
C670 C671 1.396 . S
C670 C675 1.390 . S
C671 C665 1.465 . S
C671 C670 1.396 . S
C671 C672 1.399 . S
C672 H658 0.929 . S
C672 C671 1.399 . S
C672 C673 1.385 . S
C673 H659 0.931 . S
C673 C672 1.385 . S
C673 C674 1.389 . S
C674 C673 1.389 . S
C674 C675 1.387 . S
C675 H660 0.930 . S
C675 C670 1.390 . S
C675 C674 1.387 . S
H676 C688 0.930 . S
H677 C690 0.930 . S
H678 C691 0.930 . S
H679 C695 0.959 . S
H680 C695 0.959 . S
H681 C695 0.961 . S
H682 C696 0.960 . S
H683 C696 0.961 . S
H684 C696 0.959 1_655 S
H685 C699 0.929 . S
H686 C700 0.931 . S
H687 C702 0.930 . S
C688 H676 0.930 . S
C688 C689 1.399 . S
C688 C693 1.399 . S
C689 C688 1.399 . S
C689 C690 1.376 . S
C690 H677 0.930 . S
C690 C689 1.376 . S
C690 C691 1.388 . S
C691 H678 0.930 . S
C691 C690 1.388 . S
C691 C692 1.390 . S
C692 C691 1.390 . S
C692 C693 1.394 . S
C692 C698 1.465 . S
C693 C688 1.399 . S
C693 C692 1.394 . S
C693 C694 1.516 . S
C694 C693 1.516 . S
C694 C695 1.502 . S
C694 C696 1.561 . S
C694 C697 1.526 . S
C695 H679 0.959 . S
C695 H680 0.959 . S
C695 H681 0.961 . S
C695 C694 1.502 . S
C696 H682 0.960 . S
C696 H683 0.961 . S
C696 H684 0.959 1_455 S
C696 C694 1.561 . S
C697 C694 1.526 . S
C697 C698 1.396 . S
C697 C702 1.390 . S
C698 C692 1.465 . S
C698 C697 1.396 . S
C698 C699 1.399 1_554 S
C699 H685 0.929 . S
C699 C698 1.399 1_556 S
C699 C700 1.385 . S
C700 H686 0.931 . S
C700 C699 1.385 . S
C700 C701 1.389 . S
C701 C700 1.389 . S
C701 C702 1.387 1_556 S
C702 H687 0.930 . S
C702 C697 1.390 . S
C702 C701 1.387 1_554 S
H703 C715 0.930 . S
H704 C717 0.930 . S
H705 C718 0.930 . S
H706 C722 0.959 . S
H707 C722 0.959 . S
H708 C722 0.961 . S
H709 C723 0.960 . S
H710 C723 0.971 . S
H711 C723 0.959 . S
H712 C726 0.929 . S
H713 C727 0.931 . S
H714 C729 0.930 . S
C715 H703 0.930 . S
C715 C716 1.399 . S
C715 C720 1.399 . S
C716 C715 1.399 . S
C716 C717 1.376 1_545 S
C717 H704 0.930 . S
C717 C716 1.376 1_565 S
C717 C718 1.388 . S
C718 H705 0.930 . S
C718 C717 1.388 . S
C718 C719 1.390 . S
C719 C718 1.390 . S
C719 C720 1.394 1_565 S
C719 C725 1.465 . S
C720 C715 1.399 . S
C720 C719 1.394 1_545 S
C720 C721 1.516 1_554 S
C721 C720 1.516 1_556 S
C721 C722 1.502 . S
C721 C723 1.561 1_556 S
C721 C724 1.526 . S
C722 H706 0.959 . S
C722 H707 0.959 . S
C722 H708 0.961 . S
C722 C721 1.502 . S
C723 H709 0.960 . S
C723 H710 0.971 . S
C723 H711 0.959 . S
C723 C721 1.561 1_554 S
C724 C721 1.526 . S
C724 C725 1.396 1_546 S
C724 C729 1.390 . S
C725 C719 1.465 . S
C725 C724 1.396 1_564 S
C725 C726 1.399 . S
C726 H712 0.929 . S
C726 C725 1.399 . S
C726 C727 1.385 1_554 S
C727 H713 0.931 . S
C727 C726 1.385 1_556 S
C727 C728 1.389 1_565 S
C728 C727 1.389 1_545 S
C728 C729 1.387 . S
C729 H714 0.930 . S
C729 C724 1.390 . S
C729 C728 1.387 . S
H730 C742 0.930 . S
H731 C744 0.930 . S
H732 C745 0.930 . S
H733 C749 0.959 . S
H734 C749 0.959 . S
H735 C749 0.961 . S
H736 C750 0.960 . S
H737 C750 0.961 . S
H738 C750 0.959 . S
H739 C753 0.929 . S
H740 C754 0.931 . S
H741 C756 0.930 . S
C742 H730 0.930 . S
C742 C743 1.399 . S
C742 C747 1.399 . S
C743 C742 1.399 . S
C743 C744 1.376 . S
C744 H731 0.930 . S
C744 C743 1.376 . S
C744 C745 1.388 1_554 S
C745 H732 0.930 . S
C745 C744 1.388 1_556 S
C745 C746 1.390 . S
C746 C745 1.390 . S
C746 C747 1.394 1_556 S
C746 C752 1.465 . S
C747 C742 1.399 . S
C747 C746 1.394 1_554 S
C747 C748 1.516 . S
C748 C747 1.516 . S
C748 C749 1.502 . S
C748 C750 1.561 . S
C748 C751 1.526 1_554 S
C749 H733 0.959 . S
C749 H734 0.959 . S
C749 H735 0.961 . S
C749 C748 1.502 . S
C750 H736 0.960 . S
C750 H737 0.961 . S
C750 H738 0.959 . S
C750 C748 1.561 . S
C751 C748 1.526 1_556 S
C751 C752 1.396 . S
C751 C756 1.390 . S
C752 C746 1.465 . S
C752 C751 1.396 . S
C752 C753 1.399 . S
C753 H739 0.929 . S
C753 C752 1.399 . S
C753 C754 1.385 . S
C754 H740 0.931 . S
C754 C753 1.385 . S
C754 C755 1.389 . S
C755 C754 1.389 . S
C755 C756 1.387 . S
C756 H741 0.930 . S
C756 C751 1.390 . S
C756 C755 1.387 . S
H757 C769 0.930 . S
H758 C771 0.930 . S
H759 C772 0.930 . S
H760 C776 0.959 . S
H761 C776 0.959 . S
H762 C776 0.961 . S
H763 C777 0.960 . S
H764 C777 0.953 1_556 S
H765 C777 0.959 . S
H766 C780 0.931 . S
H767 C781 0.931 . S
H768 C783 0.930 . S
C769 H757 0.930 . S
C769 C770 1.399 . S
C769 C774 1.399 . S
C770 C769 1.399 . S
C770 C771 1.376 . S
C771 H758 0.930 . S
C771 C770 1.376 . S
C771 C772 1.388 . S
C772 H759 0.930 . S
C772 C771 1.388 . S
C772 C773 1.390 . S
C773 C772 1.390 . S
C773 C774 1.394 . S
C773 C779 1.465 1_554 S
C774 C769 1.399 . S
C774 C773 1.394 . S
C774 C775 1.516 1_554 S
C775 C774 1.516 1_556 S
C775 C776 1.502 . S
C775 C777 1.561 1_556 S
C775 C778 1.526 . S
C776 H760 0.959 . S
C776 H761 0.959 . S
C776 H762 0.961 . S
C776 C775 1.502 . S
C777 H763 0.960 . S
C777 H764 0.953 1_554 S
C777 H765 0.959 . S
C777 C775 1.561 1_554 S
C778 C775 1.526 . S
C778 C779 1.396 . S
C778 C783 1.390 . S
C779 C773 1.465 1_556 S
C779 C778 1.396 . S
C779 C780 1.399 . S
C780 H766 0.931 . S
C780 C779 1.399 . S
C780 C781 1.385 . S
C781 H767 0.931 . S
C781 C780 1.385 . S
C781 C782 1.389 . S
C782 C781 1.389 . S
C782 C783 1.387 . S
C783 H768 0.930 . S
C783 C778 1.390 . S
C783 C782 1.387 . S
H784 C796 0.930 . S
H785 C798 0.930 . S
H786 C799 0.930 . S
H787 C803 0.959 . S
H788 C803 0.959 . S
H789 C803 0.961 . S
H790 C804 0.963 . S
H791 C804 0.973 . S
H792 C804 0.924 1_455 S
H793 C807 0.929 . S
H794 C808 0.931 . S
H795 C810 0.930 . S
C796 H784 0.930 . S
C796 C797 1.399 1_655 S
C796 C801 1.399 . S
C797 C796 1.399 1_455 S
C797 C798 1.376 . S
C798 H785 0.930 . S
C798 C797 1.376 . S
C798 C799 1.388 . S
C799 H786 0.930 . S
C799 C798 1.388 . S
C799 C800 1.390 . S
C800 C799 1.390 . S
C800 C801 1.394 1_455 S
C800 C806 1.465 1_455 S
C801 C796 1.399 . S
C801 C800 1.394 1_655 S
C801 C802 1.516 . S
C802 C801 1.516 . S
C802 C803 1.502 . S
C802 C804 1.583 . S
C802 C805 1.526 . S
C803 H787 0.959 . S
C803 H788 0.959 . S
C803 H789 0.961 . S
C803 C802 1.502 . S
C804 H790 0.963 . S
C804 H791 0.973 . S
C804 H792 0.924 1_655 S
C804 C802 1.583 . S
C805 C802 1.526 . S
C805 C806 1.395 . S
C805 C810 1.390 . S
C806 C800 1.465 1_655 S
C806 C805 1.395 . S
C806 C807 1.399 1_655 S
C807 H793 0.929 . S
C807 C806 1.399 1_455 S
C807 C808 1.385 . S
C808 H794 0.931 . S
C808 C807 1.385 . S
C808 C809 1.389 1_455 S
C809 C808 1.389 1_655 S
C809 C810 1.387 . S
C810 H795 0.930 . S
C810 C805 1.390 . S
C810 C809 1.387 . S
H811 C823 0.930 . S
H812 C825 0.930 . S
H813 C826 0.930 . S
H814 C830 0.959 . S
H815 C830 0.959 . S
H816 C830 0.961 . S
H817 C831 0.960 . S
H818 C831 0.961 . S
H819 C831 0.959 . S
H820 C834 0.929 . S
H821 C835 0.931 . S
H822 C837 0.930 . S
C823 H811 0.930 . S
C823 C824 1.399 1_545 S
C823 C828 1.399 . S
C824 C823 1.399 1_565 S
C824 C825 1.376 . S
C825 H812 0.930 . S
C825 C824 1.376 . S
C825 C826 1.388 . S
C826 H813 0.930 . S
C826 C825 1.388 . S
C826 C827 1.390 . S
C827 C826 1.390 . S
C827 C828 1.394 1_565 S
C827 C833 1.465 . S
C828 C823 1.399 . S
C828 C827 1.394 1_545 S
C828 C829 1.516 . S
C829 C828 1.516 . S
C829 C830 1.502 . S
C829 C831 1.561 . S
C829 C832 1.538 . S
C830 H814 0.959 . S
C830 H815 0.959 . S
C830 H816 0.961 . S
C830 C829 1.502 . S
C831 H817 0.960 . S
C831 H818 0.961 . S
C831 H819 0.959 . S
C831 C829 1.561 . S
C832 C829 1.538 . S
C832 C833 1.381 1_545 S
C832 C837 1.391 . S
C833 C827 1.465 . S
C833 C832 1.381 1_565 S
C833 C834 1.399 . S
C834 H820 0.929 . S
C834 C833 1.399 . S
C834 C835 1.385 . S
C835 H821 0.931 . S
C835 C834 1.385 . S
C835 C836 1.389 . S
C836 C835 1.389 . S
C836 C837 1.387 1_565 S
C837 H822 0.930 . S
C837 C832 1.391 . S
C837 C836 1.387 1_545 S
H838 C850 0.930 . S
H839 C852 0.930 . S
H840 C853 0.930 . S
H841 C857 0.959 . S
H842 C857 0.959 . S
H843 C857 0.961 . S
H844 C858 0.960 . S
H845 C858 0.961 . S
H846 C858 0.959 . S
H847 C861 0.929 . S
H848 C862 0.931 . S
H849 C864 0.930 . S
C850 H838 0.930 . S
C850 C851 1.399 . S
C850 C855 1.399 . S
C851 C850 1.399 . S
C851 C852 1.376 . S
C852 H839 0.930 . S
C852 C851 1.376 . S
C852 C853 1.388 . S
C853 H840 0.930 . S
C853 C852 1.388 . S
C853 C854 1.390 . S
C854 C853 1.390 . S
C854 C855 1.394 . S
C854 C860 1.465 . S
C855 C850 1.399 . S
C855 C854 1.394 . S
C855 C856 1.516 . S
C856 C855 1.516 . S
C856 C857 1.502 . S
C856 C858 1.561 . S
C856 C859 1.526 . S
C857 H841 0.959 . S
C857 H842 0.959 . S
C857 H843 0.961 . S
C857 C856 1.502 . S
C858 H844 0.960 . S
C858 H845 0.961 . S
C858 H846 0.959 . S
C858 C856 1.561 . S
C859 C856 1.526 . S
C859 C860 1.396 . S
C859 C864 1.390 . S
C860 C854 1.465 . S
C860 C859 1.396 . S
C860 C861 1.399 . S
C861 H847 0.929 . S
C861 C860 1.399 . S
C861 C862 1.385 . S
C862 H848 0.931 . S
C862 C861 1.385 . S
C862 C863 1.389 . S
C863 C862 1.389 . S
C863 C864 1.387 . S
C864 H849 0.930 . S
C864 C859 1.390 . S
C864 C863 1.387 . S
H865 C877 0.930 . S
H866 C879 0.930 . S
H867 C880 0.930 . S
H868 C884 0.959 . S
H869 C884 0.959 . S
H870 C884 0.961 . S
H871 C885 0.960 . S
H872 C885 0.961 . S
H873 C885 0.959 . S
H874 C888 0.929 . S
H875 C889 0.931 . S
H876 C891 0.930 . S
C877 H865 0.930 . S
C877 C878 1.399 . S
C877 C882 1.399 . S
C878 C877 1.399 . S
C878 C879 1.376 . S
C879 H866 0.930 . S
C879 C878 1.376 . S
C879 C880 1.388 . S
C880 H867 0.930 . S
C880 C879 1.388 . S
C880 C881 1.390 . S
C881 C880 1.390 . S
C881 C882 1.394 . S
C881 C887 1.465 . S
C882 C877 1.399 . S
C882 C881 1.394 . S
C882 C883 1.516 . S
C883 C882 1.516 . S
C883 C884 1.502 . S
C883 C885 1.561 . S
C883 C886 1.526 . S
C884 H868 0.959 . S
C884 H869 0.959 . S
C884 H870 0.961 . S
C884 C883 1.502 . S
C885 H871 0.960 . S
C885 H872 0.961 . S
C885 H873 0.959 . S
C885 C883 1.561 . S
C886 C883 1.526 . S
C886 C887 1.396 . S
C886 C891 1.390 . S
C887 C881 1.465 . S
C887 C886 1.396 . S
C887 C888 1.399 . S
C888 H874 0.929 . S
C888 C887 1.399 . S
C888 C889 1.385 . S
C889 H875 0.931 . S
C889 C888 1.385 . S
C889 C890 1.389 . S
C890 C889 1.389 . S
C890 C891 1.387 . S
C891 H876 0.930 . S
C891 C886 1.390 . S
C891 C890 1.387 . S
C257 C125 1.574 . S
C269 C168 1.611 1_545 S
C296 C191 1.646 . S
C284 C144 1.545 . S
C323 C214 1.638 . S
C311 C87 1.545 . S
C350 C241 1.487 . S
C338 C106 1.508 . S
C377 C169 1.589 . S
C365 C49 1.524 1_556 S
C392 C68 1.465 . S
C404 C192 1.530 . S
C419 C11 1.498 . S
C431 C215 1.523 . S
C446 C30 1.579 1_556 S
C458 C240 1.595 . S
C485 C170 0.515 . S
C473 C97 0.485 . S
C512 C193 0.467 . S
C500 C116 0.581 . S
C539 C216 0.555 . S
C527 C135 0.685 . S
C554 C78 0.715 . S
C566 C242 0.707 . S
C581 C21 0.840 . S
C593 C173 0.799 . S
C620 C196 0.819 . S
C608 C40 0.683 1_556 S
C647 C219 0.787 . S
C635 C59 0.747 . S
C662 C2 0.453 . S
C674 C239 0.469 . S
C689 C101 1.599 . S
C701 C171 1.545 . S
C716 C120 1.519 . S
C728 C194 1.568 . S
C755 C217 1.510 . S
C743 C139 1.591 . S
C782 C238 1.394 . S
C770 C82 1.338 . S
C797 C25 1.589 . S
C809 C172 1.538 . S
C836 C195 1.539 . S
C824 C44 1.537 . S
C863 C218 1.467 . S
C851 C63 1.564 . S
C878 C6 1.728 . S
C890 C237 1.726 . S
