# Generated by pormake.
# Topology anh, (6,3)-cn, num edge types: 1
# Building blocks:
#     Node 0, Type 0, BuildingBlock: PAMTUU_clean_sbu_0, # of connection points: 6
#     Node 1, Type 0, BuildingBlock: PAMTUU_clean_sbu_0, # of connection points: 6
#     Node 2, Type 0, BuildingBlock: PAMTUU_clean_sbu_0, # of connection points: 6
#     Node 3, Type 1, BuildingBlock: BETDAH_clean_linker_0, # of connection points: 3
#     Node 4, Type 1, BuildingBlock: BETDAH_clean_linker_0, # of connection points: 3
#     Node 5, Type 1, BuildingBlock: BETDAH_clean_linker_0, # of connection points: 3
#     Node 6, Type 1, BuildingBlock: BETDAH_clean_linker_0, # of connection points: 3
#     Node 7, Type 1, BuildingBlock: BETDAH_clean_linker_0, # of connection points: 3
#     Node 8, Type 1, BuildingBlock: BETDAH_clean_linker_0, # of connection points: 3
#     Edge 9, Type (0, 1), BuildingBlock: TEMPAE_clean_linker_10, # of connection points: 2
#     Edge 10, Type (0, 1), BuildingBlock: TEMPAE_clean_linker_10, # of connection points: 2
#     Edge 11, Type (0, 1), BuildingBlock: TEMPAE_clean_linker_10, # of connection points: 2
#     Edge 12, Type (0, 1), BuildingBlock: TEMPAE_clean_linker_10, # of connection points: 2
#     Edge 13, Type (0, 1), BuildingBlock: TEMPAE_clean_linker_10, # of connection points: 2
#     Edge 14, Type (0, 1), BuildingBlock: TEMPAE_clean_linker_10, # of connection points: 2
#     Edge 15, Type (0, 1), BuildingBlock: TEMPAE_clean_linker_10, # of connection points: 2
#     Edge 16, Type (0, 1), BuildingBlock: TEMPAE_clean_linker_10, # of connection points: 2
#     Edge 17, Type (0, 1), BuildingBlock: TEMPAE_clean_linker_10, # of connection points: 2
#     Edge 18, Type (0, 1), BuildingBlock: TEMPAE_clean_linker_10, # of connection points: 2
#     Edge 19, Type (0, 1), BuildingBlock: TEMPAE_clean_linker_10, # of connection points: 2
#     Edge 20, Type (0, 1), BuildingBlock: TEMPAE_clean_linker_10, # of connection points: 2
#     Edge 21, Type (0, 1), BuildingBlock: TEMPAE_clean_linker_10, # of connection points: 2
#     Edge 22, Type (0, 1), BuildingBlock: TEMPAE_clean_linker_10, # of connection points: 2
#     Edge 23, Type (0, 1), BuildingBlock: TEMPAE_clean_linker_10, # of connection points: 2
#     Edge 24, Type (0, 1), BuildingBlock: TEMPAE_clean_linker_10, # of connection points: 2
#     Edge 25, Type (0, 1), BuildingBlock: TEMPAE_clean_linker_10, # of connection points: 2
#     Edge 26, Type (0, 1), BuildingBlock: TEMPAE_clean_linker_10, # of connection points: 2
# Relax obj value: 0.237
# Max RMSD: 0.144
# Mean RMSD: 0.101
data_MOF--net-anh--node1-PAMTUU_clean_sbu_0--node2-BETDAH_clean_linker_0--edge1-TEMPAE_clean_linker_10
_symmetry_space_group_name_H-M    P1
_symmetry_Int_Tables_number       1
_symmetry_cell_setting            triclinic
loop_
_symmetry_equiv_pos_as_xyz
'x, y, z'
_cell_length_a     31.932347
_cell_length_b     31.905383
_cell_length_c     50.271882
_cell_angle_alpha  94.428122
_cell_angle_beta   93.703239
_cell_angle_gamma 120.07206
loop_
_atom_site_label
_atom_site_type_symbol
_atom_site_fract_x
_atom_site_fract_y
_atom_site_fract_z
_atom_type_partial_charge
Tb0 Tb 1.08356 0.64671 0.16081 0.0
Tb1 Tb 0.13481 0.58342 0.15026 0.0
C2 C 0.09486 0.61398 0.10134 0.0
C3 C 0.98535 0.67355 0.16767 0.0
C4 C 0.88274 0.62357 0.16096 0.0
C5 C 0.9088 0.63569 0.13854 0.0
C6 C 0.95958 0.66037 0.14184 0.0
C7 C 0.95946 0.6647 0.19016 0.0
C8 C 0.90854 0.63959 0.18684 0.0
C9 C 1.03786 0.69023 0.17137 0.0
O10 O 1.02336 0.5707 0.16422 0.0
O11 O 1.05627 0.5253 0.14892 0.0
O12 O 0.11648 0.57853 0.1908 0.0
O13 O 0.12791 0.65437 0.19774 0.0
O14 O 0.1346 0.52388 0.12989 0.0
O15 O 0.19106 0.57017 0.16259 0.0
O16 O 0.19818 0.66127 0.15682 0.0
O17 O 0.15943 0.70576 0.15812 0.0
O18 O 1.06873 0.62415 0.11704 0.0
O19 O 0.12788 0.60476 0.11124 0.0
C20 C 1.0187 0.52738 0.15738 0.0
O21 O 1.05009 0.6687 0.18864 0.0
O22 O 1.05953 0.69415 0.14976 0.0
C23 C 0.12646 0.61672 0.20721 0.0
C24 C 0.21085 0.52906 0.12861 0.0
C25 C 0.2658 0.49919 0.09962 0.0
C26 C 0.27125 0.50437 0.12786 0.0
C27 C 0.24388 0.51905 0.1422 0.0
C28 C 0.208 0.52756 0.1005 0.0
C29 C 0.23521 0.51256 0.0861 0.0
C30 C 0.17501 0.53335 0.14372 0.0
C31 C 0.20024 0.70428 0.15831 0.0
H32 H 0.88995 0.62336 0.11831 0.0
H33 H 0.97835 0.66668 0.12407 0.0
H34 H 0.97854 0.67481 0.21031 0.0
H35 H 0.88934 0.63111 0.20445 0.0
H36 H 0.29415 0.49386 0.13884 0.0
H37 H 0.24639 0.51975 0.16386 0.0
H38 H 0.18291 0.53542 0.08953 0.0
H39 H 0.2308 0.50942 0.06436 0.0
Tb40 Tb 0.57613 0.14424 0.49296 0.0
Tb41 Tb 0.69103 0.19885 0.49063 0.0
C42 C 0.61985 0.15757 0.43773 0.0
C43 C 0.4529 0.06105 0.51053 0.0
C44 C 0.39136 0.97339 0.53081 0.0
C45 C 0.37377 0.98834 0.50926 0.0
C46 C 0.40431 1.03183 0.49927 0.0
C47 C 0.46992 1.04812 0.53312 0.0
C48 C 0.43923 1.00479 0.54333 0.0
C49 C 0.48624 0.10247 0.4972 0.0
O50 O 0.58901 0.08113 0.49099 0.0
O51 O 0.67269 0.1228 0.49728 0.0
O52 O 0.68045 0.21651 0.53094 0.0
O53 O 0.6103 0.14529 0.53212 0.0
O54 O 0.75217 0.24297 0.47151 0.0
O55 O 0.75896 0.21216 0.50735 0.0
O56 O 0.67521 0.25992 0.48806 0.0
O57 O 0.59783 0.22281 0.50019 0.0
O58 O 0.58651 0.15909 0.45113 0.0
O59 O 0.65841 0.16076 0.45063 0.0
C60 C 0.63044 0.08083 0.49514 0.0
O61 O 0.51929 0.14105 0.513 0.0
O62 O 0.50433 0.09174 0.47698 0.0
C63 C 0.6503 0.18312 0.54454 0.0
C64 C 0.82771 0.28701 0.49979 0.0
C65 C 0.92414 0.36439 0.51515 0.0
C66 C 0.89692 0.33514 0.5342 0.0
C67 C 0.84909 0.29671 0.52658 0.0
C68 C 0.85383 0.31813 0.48126 0.0
C69 C 0.90141 0.35642 0.48883 0.0
C70 C 0.78195 0.24116 0.48982 0.0
C71 C 0.63709 0.26281 0.49504 0.0
H72 H 0.33751 0.96482 0.49873 0.0
H73 H 0.39068 1.04133 0.48182 0.0
H74 H 0.50746 0.07039 0.54214 0.0
H75 H 0.45377 0.9946 0.56007 0.0
H76 H 0.91329 0.34061 0.55466 0.0
H77 H 0.82986 0.27328 0.54137 0.0
H78 H 0.83849 0.31117 0.46043 0.0
H79 H 0.92145 0.37756 0.47347 0.0
Tb80 Tb 0.54892 0.54881 0.8094 0.0
Tb81 Tb 0.61094 0.66391 0.82882 0.0
C82 C 0.58583 0.62254 0.76699 0.0
C83 C 0.50702 0.41759 0.8037 0.0
C84 C 0.53067 0.34568 0.81257 0.0
C85 C 0.54708 0.38645 0.83195 0.0
C86 C 0.53559 0.42237 0.82747 0.0
C87 C 0.4885 0.37572 0.78502 0.0
C88 C 0.50029 0.34 0.7894 0.0
C89 C 0.49952 0.45756 0.79724 0.0
O90 O 0.62585 0.5631 0.81149 0.0
O91 O 0.66929 0.6444 0.82875 0.0
O92 O 0.58233 0.62735 0.86394 0.0
O93 O 0.58358 0.55905 0.84938 0.0
O94 O 0.6322 0.73561 0.82247 0.0
O95 O 0.66314 0.72071 0.85762 0.0
O96 O 0.53473 0.65059 0.82447 0.0
O97 O 0.49214 0.56694 0.82054 0.0
O98 O 0.54979 0.58173 0.77301 0.0
O99 O 0.61826 0.65586 0.78597 0.0
C100 C 0.66833 0.60321 0.82076 0.0
O101 O 0.49287 0.48106 0.81738 0.0
O102 O 0.52986 0.48713 0.78202 0.0
C103 C 0.58439 0.58875 0.86889 0.0
C104 C 0.66337 0.79587 0.86104 0.0
C105 C 0.69265 0.89129 0.88415 0.0
C106 C 0.70748 0.86276 0.89734 0.0
C107 C 0.69327 0.8156 0.88576 0.0
C108 C 0.64404 0.82217 0.84952 0.0
C109 C 0.65849 0.86933 0.86094 0.0
C110 C 0.66138 0.75407 0.84496 0.0
C111 C 0.4926 0.60898 0.82366 0.0
H112 H 0.57109 0.39194 0.84978 0.0
H113 H 0.55052 0.45468 0.84207 0.0
H114 H 0.46645 0.37154 0.7666 0.0
H115 H 0.48723 0.3088 0.77419 0.0
H116 H 0.73303 0.87817 0.91549 0.0
H117 H 0.70876 0.79615 0.89512 0.0
H118 H 0.62099 0.80813 0.83045 0.0
H119 H 0.64645 0.89003 0.84995 0.0
H120 H 0.51722 1.03908 0.23447 0.0
H121 H 0.65143 0.16839 0.22492 0.0
H122 H 0.56239 0.06428 0.15545 0.0
C123 C 0.54349 0.06012 0.22127 0.0
C124 C 0.53367 1.04293 0.19358 0.0
C125 C 0.58575 0.10394 0.23283 0.0
C126 C 0.61909 0.13477 0.21604 0.0
C127 C 0.61152 0.12191 0.18793 0.0
C128 C 0.56836 0.07535 0.1769 0.0
N129 N 0.64622 0.15368 0.17048 0.0
C130 C 0.69088 0.20057 0.1758 0.0
H131 H 0.62496 0.57381 0.56955 0.0
H132 H 0.62567 0.70725 0.56073 0.0
H133 H 0.63697 0.62458 0.49187 0.0
C134 C 0.6282 0.60085 0.55676 0.0
C135 C 0.63315 0.59319 0.52943 0.0
C136 C 0.62623 0.64157 0.56831 0.0
C137 C 0.62708 0.67604 0.55184 0.0
C138 C 0.63064 0.67096 0.5241 0.0
C139 C 0.63356 0.62889 0.51305 0.0
N140 N 0.63197 0.70696 0.50705 0.0
C141 C 0.63025 0.75126 0.51255 0.0
H142 H 0.98426 0.59778 0.89987 0.0
H143 H 0.12108 0.60789 0.8894 0.0
H144 H 1.03254 0.60967 0.82097 0.0
C145 C 1.01074 0.60194 0.88637 0.0
C146 C 1.00155 0.60565 0.85898 0.0
C147 C 1.0535 0.60377 0.89747 0.0
C148 C 1.08861 0.60691 0.88072 0.0
C149 C 1.08174 0.60787 0.85289 0.0
C150 C 1.03788 0.60768 0.84221 0.0
N151 N 0.11775 0.60956 0.83549 0.0
C152 C 0.16271 0.60915 0.84077 0.0
H153 H 0.22345 0.67398 0.41371 0.0
H154 H 0.24324 0.55251 0.39198 0.0
H155 H 0.27826 0.61909 0.47399 0.0
C156 C 0.23422 0.64835 0.41942 0.0
C157 C 0.25211 0.65164 0.44621 0.0
C158 C 0.23151 0.61329 0.39967 0.0
C159 C 0.24606 0.58043 0.40695 0.0
C160 C 0.2613 0.58156 0.43389 0.0
C161 C 0.26467 0.6174 0.45339 0.0
N162 N 0.26941 0.5443 0.44168 0.0
C163 C 0.24424 0.51833 0.46177 0.0
H164 H 0.68084 0.19401 0.75151 0.0
H165 H 0.82096 0.21229 0.73912 0.0
H166 H 0.78068 0.21361 0.81913 0.0
C167 C 0.71551 0.19865 0.75943 0.0
C168 C 0.72681 0.20313 0.78727 0.0
C169 C 0.74927 0.20256 0.74181 0.0
C170 C 0.79441 0.2093 0.75238 0.0
C171 C 0.80536 0.21192 0.78015 0.0
C172 C 0.77166 0.20954 0.79757 0.0
N173 N 0.84986 0.21596 0.79032 0.0
C174 C 0.85072 0.19101 0.81155 0.0
H175 H 0.61719 0.44257 0.04314 0.0
H176 H 0.47018 0.3442 0.0065 0.0
H177 H 0.52141 0.31838 0.08105 0.0
C178 C 0.58211 0.40957 0.04278 0.0
C179 C 0.57389 0.3814 0.06403 0.0
C180 C 0.54483 0.39705 0.022 0.0
C181 C 0.49972 0.35424 0.02211 0.0
C182 C 0.49132 0.32549 0.04319 0.0
C183 C 0.52856 0.33909 0.06411 0.0
N184 N 0.44367 0.28713 0.04538 0.0
C185 C 0.40607 0.29707 0.04398 0.0
C186 C 0.25773 0.43517 0.06441 0.0
C187 C 0.28709 0.47404 0.08465 0.0
C188 C 0.27412 0.40499 0.05344 0.0
C189 C 0.32088 0.414 0.06299 0.0
C190 C 0.35186 0.45509 0.08214 0.0
C191 C 0.33453 0.48463 0.09276 0.0
C192 C 0.24024 0.36172 0.03292 0.0
C193 C 0.40228 0.46624 0.09257 0.0
C194 C 0.34733 0.31128 0.0659 0.0
C195 C 0.37629 0.31895 0.04511 0.0
C196 C 0.32667 0.34041 0.071 0.0
C197 C 0.33595 0.37823 0.05502 0.0
C198 C 0.36318 0.38423 0.03306 0.0
C199 C 0.38312 0.35433 0.02836 0.0
C200 C 0.29753 0.33273 0.0945 0.0
C201 C 0.3739 0.42413 0.01563 0.0
H202 H 0.22081 0.42651 0.05826 0.0
H203 H 0.35747 0.51502 0.10817 0.0
H204 H 0.25959 0.35954 0.01579 0.0
H205 H 0.22752 0.32759 0.04226 0.0
H206 H 0.20784 0.3634 0.02509 0.0
H207 H 0.42326 0.50186 0.10559 0.0
H208 H 0.39938 0.43714 0.10442 0.0
H209 H 0.42306 0.46679 0.07562 0.0
H210 H 0.34285 0.28417 0.07899 0.0
H211 H 0.40606 0.36036 0.01243 0.0
H212 H 0.26231 0.33019 0.08818 0.0
H213 H 0.3179 0.36447 0.11035 0.0
H214 H 0.29003 0.29914 0.10336 0.0
H215 H 0.34014 0.42433 0.00916 0.0
H216 H 0.39035 0.42007 -0.0025 0.0
H217 H 0.39968 0.46013 0.02738 0.0
C218 C 1.0002 0.44134 0.50921 0.0
C219 C 0.97765 0.39801 0.52099 0.0
C220 C 1.05021 0.46525 0.50693 0.0
C221 C 1.0783 0.44578 0.51722 0.0
C222 C 1.05717 0.40655 0.53268 0.0
C223 C 1.00679 0.38263 0.53416 0.0
C224 C 1.07158 0.5078 0.4908 0.0
C225 C 1.08665 0.38663 0.54525 0.0
C226 C 0.16575 0.45064 0.46895 0.0
C227 C 0.20806 0.49409 0.47938 0.0
C228 C 0.12401 0.43277 0.4822 0.0
C229 C 0.12514 0.45907 0.50659 0.0
C230 C 0.16935 0.50096 0.51831 0.0
C231 C 0.21038 0.5185 0.50425 0.0
C232 C 1.07761 0.3881 0.46884 0.0
C233 C 0.17272 0.52939 0.54456 0.0
H234 H 0.97805 0.45433 0.49982 0.0
H235 H 0.98989 0.34948 0.5436 0.0
H236 H 0.10659 0.53804 0.50143 0.0
H237 H 1.07919 0.49612 0.47121 0.0
H238 H 1.04653 0.52188 0.48684 0.0
H239 H 1.06857 0.36457 0.56146 0.0
H240 H 0.09089 0.36286 0.52968 0.0
H241 H 0.12366 0.41668 0.55367 0.0
H242 H 0.1642 0.43249 0.44944 0.0
H243 H 0.24324 0.55269 0.51199 0.0
H244 H 1.05024 0.39844 0.4629 0.0
H245 H 1.06189 0.36068 0.48304 0.0
H246 H 1.08361 0.37071 0.45062 0.0
H247 H 0.16354 0.55772 0.5405 0.0
H248 H 0.21035 0.54832 0.5552 0.0
H249 H 0.14712 0.50553 0.558 0.0
C250 C 0.69661 0.97188 0.88528 0.0
C251 C 0.71987 0.94545 0.89047 0.0
C252 C 0.72348 1.02048 0.88012 0.0
C253 C 0.77477 1.04322 0.88093 0.0
C254 C 0.79878 1.01967 0.89106 0.0
C255 C 0.771 0.97074 0.89548 0.0
C256 C 0.69625 1.04444 0.86981 0.0
C257 C 0.85352 1.04338 0.89337 0.0
C258 C 0.82132 0.10766 0.82018 0.0
C259 C 0.83964 0.15628 0.83036 0.0
C260 C 0.8015 0.07083 0.83678 0.0
C261 C 0.80043 0.08329 0.86434 0.0
C262 C 0.82108 0.13293 0.875 0.0
C263 C 0.84018 0.16911 0.85768 0.0
C264 C 0.77969 1.01835 0.82445 0.0
C265 C 0.82181 0.14755 0.90437 0.0
H266 H 0.65713 0.95314 0.88245 0.0
H267 H 0.78974 0.9512 0.89989 0.0
H268 H 0.71595 0.08402 0.87713 0.0
H269 H 0.69305 1.04035 0.84752 0.0
H270 H 0.65891 1.02735 0.87591 0.0
H271 H 0.86691 1.02717 0.90805 0.0
H272 H 0.86439 1.03762 0.87351 0.0
H273 H 0.87165 0.08329 0.89956 0.0
H274 H 0.82053 0.09818 0.79887 0.0
H275 H 0.85405 0.20703 0.86526 0.0
H276 H 0.74029 0.9974 0.82678 0.0
H277 H 0.7975 1.00099 0.83492 0.0
H278 H 0.78373 1.01516 0.80272 0.0
H279 H 0.78415 0.13003 0.9099 0.0
H280 H 0.8393 0.18773 0.90944 0.0
H281 H 0.84187 0.13457 0.91686 0.0
C282 C 0.80864 0.54789 0.17039 0.0
C283 C 0.8294 0.58929 0.1568 0.0
C284 C 0.76122 0.50892 0.16184 0.0
C285 C 0.73438 0.5118 0.13929 0.0
C286 C 0.75322 0.55571 0.12748 0.0
C287 C 0.80059 0.59397 0.13641 0.0
C288 C 0.74124 0.46337 0.17555 0.0
C289 C 0.72511 0.56076 0.10383 0.0
C290 C 0.65719 0.40811 0.08476 0.0
C291 C 0.61106 0.40139 0.08757 0.0
C292 C 0.69727 0.44043 0.10348 0.0
C293 C 0.69086 0.46726 0.12504 0.0
C294 C 0.64341 0.45676 0.1294 0.0
C295 C 0.60381 0.42367 0.11051 0.0
C296 C 0.74718 0.44959 0.09854 0.0
C297 C 0.63477 0.48404 0.15221 0.0
H298 H 0.83062 0.54439 0.18643 0.0
H299 H 0.81619 0.62651 0.12637 0.0
H300 H 0.704 0.45218 0.18051 0.0
H301 H 0.73829 0.43293 0.16173 0.0
H302 H 0.76463 0.46857 0.1943 0.0
H303 H 0.7425 0.59889 0.09898 0.0
H304 H 0.72296 0.5369 0.08587 0.0
H305 H 0.68729 0.54886 0.10793 0.0
H306 H 0.66246 0.39083 0.06688 0.0
H307 H 0.56797 0.41862 0.11242 0.0
H308 H 0.76756 0.45008 0.11741 0.0
H309 H 0.76832 0.48585 0.09147 0.0
H310 H 0.74512 0.42147 0.08316 0.0
H311 H 0.66148 0.49416 0.17021 0.0
H312 H 0.59735 0.46205 0.15784 0.0
H313 H 0.6387 0.51819 0.14575 0.0
C314 C 0.38721 0.8951 0.53797 0.0
C315 C 0.36328 0.92175 0.53607 0.0
C316 C 0.36127 0.84421 0.53192 0.0
C317 C 0.31063 0.81997 0.52349 0.0
C318 C 0.28535 0.84554 0.52659 0.0
C319 C 0.31212 0.89649 0.53293 0.0
C320 C 0.38935 0.81781 0.53013 0.0
C321 C 0.23097 0.82044 0.51917 0.0
C322 C 0.28213 0.73999 0.458 0.0
C323 C 0.26154 0.69328 0.46599 0.0
C324 C 0.29562 0.7809 0.47642 0.0
C325 C 0.28905 0.77525 0.50381 0.0
C326 C 0.26642 0.72802 0.51195 0.0
C327 C 0.25299 0.68744 0.49289 0.0
C328 C 0.31917 0.83054 0.46662 0.0
C329 C 0.25827 0.72015 0.54081 0.0
H330 H 0.42668 0.91395 0.54085 0.0
H331 H 0.29323 0.9168 0.53261 0.0
H332 H 0.36853 0.78113 0.53671 0.0
H333 H 0.39553 0.81289 0.50892 0.0
H334 H 0.42543 0.8387 0.54255 0.0
H335 H 0.21558 0.84109 0.52918 0.0
H336 H 0.22296 0.81808 0.49711 0.0
H337 H 0.21246 0.78274 0.52464 0.0
H338 H 0.28971 0.74502 0.43741 0.0
H339 H 0.23648 0.65128 0.49915 0.0
H340 H 0.35756 0.85306 0.47599 0.0
H341 H 0.29984 0.84997 0.47246 0.0
H342 H 0.31899 0.82807 0.44444 0.0
H343 H 0.2909 0.72227 0.55151 0.0
H344 H 0.22651 0.68344 0.54214 0.0
H345 H 0.25236 0.74825 0.55138 0.0
C346 C 0.57336 0.30606 0.79313 0.0
C347 C 0.55094 0.31323 0.8146 0.0
C348 C 0.59802 0.28041 0.79524 0.0
C349 C 0.59956 0.26058 0.81933 0.0
C350 C 0.57498 0.26568 0.84068 0.0
C351 C 0.55157 0.29281 0.83823 0.0
C352 C 0.62409 0.27633 0.77195 0.0
C353 C 0.57458 0.24412 0.8664 0.0
C354 C 0.64404 0.17572 0.80061 0.0
C355 C 0.69438 0.2087 0.805 0.0
C356 C 0.61137 0.18952 0.80934 0.0
C357 C 0.62988 0.23763 0.82198 0.0
C358 C 0.68053 0.26796 0.83011 0.0
C359 C 0.71238 0.25292 0.82156 0.0
C360 C 0.55742 0.15516 0.80173 0.0
C361 C 0.70167 0.31909 0.84421 0.0
H362 H 0.57348 0.3225 0.77502 0.0
H363 H 0.53411 0.29839 0.85483 0.0
H364 H 0.66365 0.29344 0.7786 0.0
H365 H 0.61004 0.23739 0.76464 0.0
H366 H 0.61951 0.29426 0.75482 0.0
H367 H 0.54191 0.23664 0.8764 0.0
H368 H 0.57532 0.20975 0.86281 0.0
H369 H 0.60726 0.27057 0.88044 0.0
H370 H 0.6302 0.14103 0.78822 0.0
H371 H 0.75138 0.27825 0.82514 0.0
H372 H 0.54557 0.16414 0.78283 0.0
H373 H 0.53644 0.15899 0.81755 0.0
H374 H 0.54843 0.11657 0.79838 0.0
H375 H 0.70089 0.34303 0.82952 0.0
H376 H 0.74001 0.33453 0.85316 0.0
H377 H 0.67976 0.31972 0.86029 0.0
C378 C 0.58591 0.98647 0.49749 0.0
C379 C 0.62971 1.03189 0.49806 0.0
C380 C 0.58496 0.94138 0.50039 0.0
C381 C 0.62881 0.93949 0.50402 0.0
C382 C 0.67309 0.98523 0.50468 0.0
C383 C 0.67301 1.02978 0.50181 0.0
C384 C 0.5363 0.89524 0.49951 0.0
C385 C 0.7213 0.98725 0.50841 0.0
C386 C 0.63048 0.82833 0.53381 0.0
C387 C 0.62929 0.79857 0.51103 0.0
C388 C 0.63009 0.87308 0.53191 0.0
C389 C 0.6285 0.89035 0.50657 0.0
C390 C 0.62716 0.86015 0.48358 0.0
C391 C 0.62757 0.81571 0.48606 0.0
C392 C 0.63151 0.90223 0.55734 0.0
C393 C 0.6254 0.87494 0.45596 0.0
H394 H 0.55172 0.98596 0.49479 0.0
H395 H 0.70755 0.06343 0.50248 0.0
H396 H 0.53163 0.8685 0.48242 0.0
H397 H 0.53484 0.87829 0.51815 0.0
H398 H 0.50536 0.90193 0.49733 0.0
H399 H 0.75273 1.02487 0.50887 0.0
H400 H 0.72476 0.97321 0.52745 0.0
H401 H 0.72309 0.96336 0.49183 0.0
H402 H 0.63184 0.81672 0.55338 0.0
H403 H 0.62665 0.79411 0.46806 0.0
H404 H 0.59917 0.90669 0.55623 0.0
H405 H 0.66427 0.93932 0.55957 0.0
H406 H 0.63222 0.88469 0.57548 0.0
H407 H 0.59284 0.87855 0.45195 0.0
H408 H 0.62411 0.8482 0.43993 0.0
H409 H 0.65793 0.91116 0.4549 0.0
C410 C 0.76269 0.64431 0.82168 0.0
C411 C 0.71692 0.60224 0.82328 0.0
C412 C 0.80807 0.64472 0.82462 0.0
C413 C 0.81016 0.60263 0.83061 0.0
C414 C 0.76403 0.56007 0.83243 0.0
C415 C 0.71891 0.56012 0.82833 0.0
C416 C 0.85428 0.69097 0.82127 0.0
C417 C 0.76229 0.51428 0.83959 0.0
C418 C 0.92758 0.59025 0.82389 0.0
C419 C 0.95407 0.60736 0.84997 0.0
C420 C 0.88218 0.58917 0.81718 0.0
C421 C 0.8601 0.60431 0.83684 0.0
C422 C 0.88693 0.62209 0.86292 0.0
C423 C 0.93273 0.62459 0.86874 0.0
C424 C 0.85764 0.57149 0.78872 0.0
C425 C 0.86685 0.63823 0.8853 0.0
H426 H 0.76317 0.67745 0.81776 0.0
H427 H 0.68494 0.52711 0.83001 0.0
H428 H 0.87641 0.70817 0.84108 0.0
H429 H 0.87653 0.68267 0.80814 0.0
H430 H 0.84678 0.71779 0.81249 0.0
H431 H 0.72453 0.48438 0.84083 0.0
H432 H 0.77839 0.50146 0.82438 0.0
H433 H 0.78448 0.52221 0.85923 0.0
H434 H 0.9419 0.57692 0.80857 0.0
H435 H 0.95194 0.64069 0.88866 0.0
H436 H 0.84703 0.59723 0.78142 0.0
H437 H 0.82383 0.53557 0.78802 0.0
H438 H 0.88147 0.56745 0.77486 0.0
H439 H 0.86646 0.6716 0.88102 0.0
H440 H 0.88862 0.64622 0.90511 0.0
H441 H 0.82866 0.60952 0.88669 0.0
C442 C 0.25465 0.79836 0.17117 0.0
C443 C 0.25005 0.75331 0.16109 0.0
C444 C 0.30009 0.844 0.17459 0.0
C445 C 0.34392 0.84707 0.16718 0.0
C446 C 0.33936 0.80188 0.15641 0.0
C447 C 0.29362 0.7564 0.15393 0.0
C448 C 0.30129 0.88926 0.18685 0.0
C449 C 0.38319 0.80142 0.14732 0.0
C450 C 0.45636 0.97807 0.15993 0.0
C451 C 0.48733 0.99112 0.18435 0.0
C452 C 0.41114 0.93183 0.15376 0.0
C453 C 0.39429 0.89634 0.17235 0.0
C454 C 0.42596 0.90893 0.19658 0.0
C455 C 0.47118 0.95436 0.20186 0.0
C456 C 0.38086 0.92122 0.12721 0.0
C457 C 0.41151 0.87456 0.21769 0.0
H458 H 0.22243 0.79798 0.17707 0.0
H459 H 0.29201 0.72302 0.14596 0.0
H460 H 0.32737 0.90513 0.2055 0.0
H461 H 0.31435 0.9172 0.1728 0.0
H462 H 0.26495 0.88176 0.1918 0.0
H463 H 0.37351 0.76533 0.13669 0.0
H464 H 0.40095 0.82966 0.13374 0.0
H465 H 0.41033 0.81048 0.16494 0.0
H466 H 0.46676 1.00449 0.14574 0.0
H467 H 0.49403 0.96116 0.22041 0.0
H468 H 0.34684 0.92112 0.13061 0.0
H469 H 0.37019 0.88443 0.11721 0.0
H470 H 0.40054 0.94868 0.11352 0.0
H471 H 0.37566 0.8667 0.22367 0.0
H472 H 0.4386 0.88962 0.23594 0.0
H473 H 0.40742 0.83932 0.20939 0.0
C474 C 0.67493 0.3556 0.48927 0.0
C475 C 0.63776 0.31234 0.49775 0.0
C476 C 0.6752 0.40107 0.4919 0.0
C477 C 0.63783 0.4056 0.50377 0.0
C478 C 0.6003 0.36205 0.51233 0.0
C479 C 0.60053 0.31699 0.50911 0.0
C480 C 0.71606 0.44476 0.48189 0.0
C481 C 0.55969 0.3631 0.52549 0.0
C482 C 0.66374 0.53307 0.53786 0.0
C483 C 0.63823 0.54784 0.52025 0.0
C484 C 0.66414 0.48848 0.53267 0.0
C485 C 0.63925 0.45567 0.50868 0.0
C486 C 0.61502 0.47096 0.49013 0.0
C487 C 0.61465 0.51589 0.49603 0.0
C488 C 0.69065 0.47588 0.5536 0.0
C489 C 0.58836 0.43911 0.46399 0.0
H490 H 0.70418 0.35403 0.48035 0.0
H491 H 0.57125 0.28505 0.51599 0.0
H492 H 0.70095 0.46033 0.4678 0.0
H493 H 0.73794 0.47358 0.499 0.0
H494 H 0.74061 0.43552 0.47152 0.0
H495 H 0.53265 0.3268 0.53081 0.0
H496 H 0.57504 0.38968 0.54405 0.0
H497 H 0.54056 0.37554 0.51186 0.0
H498 H 0.68347 0.55655 0.55644 0.0
H499 H 0.59443 0.52512 0.48188 0.0
H500 H 0.71874 0.4705 0.54467 0.0
H501 H 0.66463 0.441 0.56075 0.0
H502 H 0.70862 0.50463 0.57119 0.0
H503 H 0.61265 0.42984 0.45339 0.0
H504 H 0.5749 0.45696 0.45054 0.0
H505 H 0.5568 0.40432 0.46807 0.0
C506 C 0.44239 0.65289 0.83021 0.0
C507 C 0.44411 0.60924 0.82666 0.0
C508 C 0.398 0.65349 0.83304 0.0
C509 C 0.35206 0.60941 0.83245 0.0
C510 C 0.3536 0.56527 0.82893 0.0
C511 C 0.39848 0.56571 0.82615 0.0
C512 C 0.40043 0.702 0.83663 0.0
C513 C 0.30724 0.51682 0.82801 0.0
C514 C 0.24021 0.61106 0.86211 0.0
C515 C 0.21053 0.60909 0.8393 0.0
C516 C 0.28526 0.61121 0.86027 0.0
C517 C 0.30299 0.6094 0.83496 0.0
C518 C 0.27297 0.60743 0.81194 0.0
C519 C 0.22821 0.60731 0.81436 0.0
C520 C 0.31419 0.61336 0.88574 0.0
C521 C 0.28823 0.60543 0.78435 0.0
H522 H 0.47619 0.68727 0.83079 0.0
H523 H 0.3976 0.53125 0.82353 0.0
H524 H 0.37697 0.7037 0.81998 0.0
H525 H 0.38616 0.706 0.85562 0.0
H526 H 0.43814 0.73323 0.83709 0.0
H527 H 0.31351 0.48557 0.82554 0.0
H528 H 0.29039 0.51563 0.84677 0.0
H529 H 0.28067 0.51239 0.81109 0.0
H530 H 0.22825 0.61252 0.88167 0.0
H531 H 0.20674 0.60583 0.79632 0.0
H532 H 0.35124 0.64611 0.88783 0.0
H533 H 0.3186 0.58094 0.8848 0.0
H534 H 0.29657 0.61465 0.90389 0.0
H535 H 0.3245 0.63794 0.78335 0.0
H536 H 0.26183 0.60407 0.76829 0.0
H537 H 0.29182 0.57276 0.78029 0.0
C538 C 0.96506 0.43252 0.15602 0.0
C539 C 0.96998 0.47936 0.15997 0.0
C540 C 0.92082 0.38815 0.15896 0.0
C541 C 0.87826 0.38847 0.16601 0.0
C542 C 0.88292 0.43559 0.16985 0.0
C543 C 0.92771 0.47945 0.16698 0.0
C544 C 0.91973 0.34035 0.15446 0.0
C545 C 0.84003 0.43987 0.17697 0.0
C546 C 0.74829 0.26863 0.14949 0.0
C547 C 0.73787 0.24872 0.17408 0.0
C548 C 0.79255 0.31299 0.1467 0.0
C549 C 0.82941 0.34014 0.16894 0.0
C550 C 0.81891 0.32028 0.19392 0.0
C551 C 0.77422 0.27567 0.19615 0.0
C552 C 0.79986 0.33084 0.11953 0.0
C553 C 0.85532 0.34634 0.21861 0.0
H554 H 0.99632 0.43032 0.15073 0.0
H555 H 0.9294 0.51427 0.17021 0.0
H556 H 0.91057 0.3218 0.1728 0.0
H557 H 0.89083 0.31586 0.13792 0.0
H558 H 0.9551 0.34522 0.14934 0.0
H559 H 0.84857 0.47831 0.17938 0.0
H560 H 0.80887 0.41851 0.16103 0.0
H561 H 0.82825 0.42429 0.19595 0.0
H562 H 0.72152 0.24913 0.13202 0.0
H563 H 0.76791 0.26178 0.21539 0.0
H564 H 0.83377 0.3341 0.11294 0.0
H565 H 0.80428 0.36775 0.12085 0.0
H566 H 0.76887 0.30612 0.104 0.0
H567 H 0.89052 0.34912 0.21506 0.0
H568 H 0.84264 0.32743 0.23661 0.0
H569 H 0.86235 0.38412 0.22281 0.0
C570 C 0.10482 0.58796 0.05483 0.0
C571 C 1.08737 0.61195 0.07142 0.0
C572 C 0.09963 0.58607 0.02666 0.0
C573 C 1.07702 0.60938 0.0144 0.0
C574 C 1.05933 0.63378 0.03097 0.0
C575 C 1.0643 0.6344 0.0592 0.0
C576 C 0.11826 0.55882 0.01 0.0
C577 C 1.03557 0.65969 0.01886 0.0
C578 C 0.10376 0.64038 0.94287 0.0
C579 C 1.06117 0.60345 0.9272 0.0
C580 C 0.10919 0.64311 0.97117 0.0
C581 C 1.0715 0.60759 0.98427 0.0
C582 C 1.02893 0.56956 0.96844 0.0
C583 C 1.02416 0.56819 0.94025 0.0
C584 C 0.155 0.68455 0.98712 0.0
C585 C 0.98826 0.53025 0.98129 0.0
H586 H 0.12241 0.57008 0.06387 0.0
H587 H 1.0509 0.65325 0.07171 0.0
H588 H 1.08807 0.52962 -0.00448 0.0
H589 H 0.14639 0.58399 -0.0019 0.0
H590 H 0.13432 0.54199 0.02252 0.0
H591 H 1.02446 0.67768 0.03437 0.0
H592 H 1.06111 0.68774 0.00706 0.0
H593 H 1.00287 0.63334 0.00479 0.0
H594 H 0.13226 0.6681 0.93301 0.0
H595 H 0.99123 0.53938 0.92832 0.0
H596 H 0.17396 0.6699 -0.00085 0.0
H597 H 0.14551 0.70584 0.00145 0.0
H598 H 0.18062 0.70961 0.97406 0.0
H599 H 1.00247 0.51129 -0.00672 0.0
H600 H 0.95791 0.50273 0.96621 0.0
H601 H 0.97356 0.54684 -0.0047 0.0
C602 C 0.65505 0.15977 0.39413 0.0
C603 C 0.61527 0.15307 0.40762 0.0
C604 C 0.65207 0.15528 0.36588 0.0
C605 C 0.60806 0.14332 0.35033 0.0
C606 C 0.5679 0.13714 0.36376 0.0
C607 C 0.57203 0.1423 0.39217 0.0
C608 C 0.69598 0.16253 0.35264 0.0
C609 C 0.52014 0.124 0.34808 0.0
C610 C 0.6103 0.16283 0.27577 0.0
C611 C 0.59444 0.11572 0.26298 0.0
C612 C 0.61485 0.17246 0.30408 0.0
C613 C 0.60328 0.13417 0.32014 0.0
C614 C 0.58815 0.08686 0.30732 0.0
C615 C 0.58428 0.07838 0.27914 0.0
C616 C 0.63163 0.22357 0.31684 0.0
C617 C 0.57571 1.04486 0.3234 0.0
H618 H 0.68891 0.16856 0.40568 0.0
H619 H 0.54108 0.13713 0.40224 0.0
H620 H 0.68748 0.12787 0.34074 0.0
H621 H 0.70533 0.19014 0.3385 0.0
H622 H 0.72841 0.17456 0.36749 0.0
H623 H 0.49307 0.12258 0.36135 0.0
H624 H 0.52614 0.15098 0.33393 0.0
H625 H 0.50458 0.08783 0.33588 0.0
H626 H 0.61804 0.19194 0.26361 0.0
H627 H 0.573 1.04204 0.26967 0.0
H628 H 0.6647 0.23697 0.33137 0.0
H629 H 0.603 0.22346 0.32827 0.0
H630 H 0.64 0.24951 0.30174 0.0
H631 H 0.60795 1.05311 0.33739 0.0
H632 H 0.56356 1.01003 0.31042 0.0
H633 H 0.54632 1.03972 0.33576 0.0
C634 C 0.56166 0.59139 0.71755 0.0
C635 C 0.59092 0.63001 0.73803 0.0
C636 C 0.56748 0.59675 0.69023 0.0
C637 C 0.60316 0.64204 0.68286 0.0
C638 C 0.632 0.68159 0.70335 0.0
C639 C 0.62577 0.67506 0.7306 0.0
C640 C 0.53622 0.55335 0.66925 0.0
C641 C 0.67013 0.73064 0.69652 0.0
C642 C 0.6515 0.63618 0.61593 0.0
C643 C 0.62354 0.64709 0.59807 0.0
C644 C 0.64599 0.63555 0.64348 0.0
C645 C 0.61211 0.6468 0.6539 0.0
C646 C 0.58533 0.66006 0.63628 0.0
C647 C 0.59127 0.65996 0.60863 0.0
C648 C 0.67544 0.62121 0.66129 0.0
C649 C 0.54923 0.67287 0.64648 0.0
H650 H 0.53469 0.55634 0.72287 0.0
H651 H 0.64851 0.70529 0.7461 0.0
H652 H 0.51678 0.56296 0.65402 0.0
H653 H 0.55964 0.5429 0.65859 0.0
H654 H 0.50889 0.52119 0.67807 0.0
H655 H 0.68719 0.75864 0.71448 0.0
H656 H 0.69913 0.72722 0.68735 0.0
H657 H 0.6537 0.74357 0.68148 0.0
H658 H 0.67739 0.62724 0.60824 0.0
H659 H 0.56934 0.66831 0.59515 0.0
H660 H 0.65061 0.58708 0.66951 0.0
H661 H 0.69613 0.64991 0.67862 0.0
H662 H 0.70153 0.61523 0.65037 0.0
H663 H 0.51847 0.64016 0.65305 0.0
H664 H 0.53437 0.6864 0.6309 0.0
H665 H 0.56664 0.70122 0.66423 0.0
C666 C 0.71055 0.22294 0.58569 0.0
C667 C 0.66414 0.18629 0.5736 0.0
C668 C 0.72557 0.22533 0.61284 0.0
C669 C 0.69328 0.19046 0.62838 0.0
C670 C 0.64627 0.15351 0.61639 0.0
C671 C 0.63228 0.15176 0.58908 0.0
C672 C 0.77605 0.26518 0.62489 0.0
C673 C 0.61074 0.11593 0.63244 0.0
C674 C 0.74624 0.17275 0.69361 0.0
C675 C 0.73712 0.20086 0.71259 0.0
C676 C 0.73211 0.16893 0.66606 0.0
C677 C 0.70831 0.19375 0.65741 0.0
C678 C 0.69957 0.22261 0.67647 0.0
C679 C 0.71435 0.22605 0.70378 0.0
C680 C 0.74228 0.13807 0.64623 0.0
C681 C 0.67441 0.24973 0.66805 0.0
H682 H 0.73561 0.2496 0.57385 0.0
H683 H 0.59642 0.12328 0.57986 0.0
H684 H 0.77348 0.28852 0.64148 0.0
H685 H 0.79656 0.2489 0.63362 0.0
H686 H 0.79716 0.2887 0.60987 0.0
H687 H 0.57576 0.0893 0.62006 0.0
H688 H 0.62698 0.09566 0.64118 0.0
H689 H 0.60296 0.13432 0.64942 0.0
H690 H 0.76344 0.15291 0.70035 0.0
H691 H 0.70801 0.24858 0.71832 0.0
H692 H 0.76481 0.1606 0.63132 0.0
H693 H 0.70756 0.10836 0.63497 0.0
H694 H 0.76156 0.12154 0.65618 0.0
H695 H 0.69588 0.27619 0.65431 0.0
H696 H 0.66955 0.26986 0.68547 0.0
H697 H 0.63807 0.22373 0.65684 0.0
C698 C 0.54912 0.56877 0.91201 0.0
C699 C 0.58608 0.57609 0.89618 0.0
C700 C 0.54322 0.54412 0.93473 0.0
C701 C 0.5757 0.52754 0.94177 0.0
C702 C 0.61542 0.53859 0.92696 0.0
C703 C 0.61969 0.56216 0.90409 0.0
C704 C 0.5001 0.53245 0.94985 0.0
C705 C 0.6515 0.52259 0.93412 0.0
C706 C 0.57787 0.48136 0.00888 0.0
C707 C 0.55188 0.43052 0.00148 0.0
C708 C 0.58536 0.5135 0.98977 0.0
C709 C 0.56559 0.49437 0.9627 0.0
C710 C 0.53828 0.44316 0.95519 0.0
C711 C 0.53207 0.41188 0.97462 0.0
C712 C 0.61524 0.56788 -0.00157 0.0
C713 C 0.51635 0.42136 0.92648 0.0
H714 H 0.52272 0.57889 0.90548 0.0
H715 H 0.64812 0.56777 0.89161 0.0
H716 H 0.47311 0.49277 0.94562 0.0
H717 H 0.51144 0.54101 0.97183 0.0
H718 H 0.48193 0.55287 0.94399 0.0
H719 H 0.68358 0.53951 0.92278 0.0
H720 H 0.66443 0.53216 0.95594 0.0
H721 H 0.63347 0.48233 0.92949 0.0
H722 H 0.59229 0.49619 0.02969 0.0
H723 H 0.5123 0.37276 0.96866 0.0
H724 H 0.59402 0.5854 0.99285 0.0
H725 H 0.64823 0.5841 0.98781 0.0
H726 H 0.62689 0.57687 0.02043 0.0
H727 H 0.4938 0.43645 0.91903 0.0
H728 H 0.49329 0.38092 0.92432 0.0
H729 H 0.5458 0.43121 0.9134 0.0
C730 C 0.16565 0.66113 0.25325 0.0
C731 C 0.13807 0.61714 0.23615 0.0
C732 C 0.18018 0.66126 0.28026 0.0
C733 C 0.1661 0.61632 0.29032 0.0
C734 C 0.13681 0.57182 0.27332 0.0
C735 C 0.12342 0.5728 0.24642 0.0
C736 C 0.21168 0.70941 0.29782 0.0
C737 C 0.12033 0.52315 0.28342 0.0
C738 C 0.24121 0.61251 0.35075 0.0
C739 C 0.21379 0.61188 0.3715 0.0
C740 C 0.22644 0.61468 0.32425 0.0
C741 C 0.18291 0.61557 0.31842 0.0
C742 C 0.1547 0.61417 0.33927 0.0
C743 C 0.17064 0.61259 0.36562 0.0
C744 C 0.2576 0.61644 0.30252 0.0
C745 C 0.10765 0.61418 0.33374 0.0
H746 H 0.17716 0.69544 0.24532 0.0
H747 H 0.10164 0.53863 0.23332 0.0
H748 H 0.19422 0.7106 0.31601 0.0
H749 H 0.24731 0.71327 0.3047 0.0
H750 H 0.21837 0.74104 0.28715 0.0
H751 H 0.09571 0.49188 0.26794 0.0
H752 H 0.15248 0.51997 0.28967 0.0
H753 H 0.10101 0.52042 0.30135 0.0
H754 H 0.27486 0.61253 0.35539 0.0
H755 H 0.14927 0.61176 0.38169 0.0
H756 H 0.26857 0.64961 0.29247 0.0
H757 H 0.23634 0.5844 0.28695 0.0
H758 H 0.29098 0.61666 0.3105 0.0
H759 H 0.11459 0.64733 0.32464 0.0
H760 H 0.09007 0.61306 0.35225 0.0
H761 H 1.08174 0.58214 0.31906 0.0
loop_
_geom_bond_atom_site_label_1
_geom_bond_atom_site_label_2
_geom_bond_distance
_geom_bond_site_symmetry_2
_ccdc_geom_bond_type
Tb0 C9 2.764 1_455 S
Tb0 O10 2.325 1_455 S
Tb0 O13 2.303 . S
Tb0 O17 2.322 . S
Tb0 O18 2.349 . S
Tb0 O21 2.415 1_455 S
Tb0 O22 2.399 1_455 S
Tb1 O11 2.322 . S
Tb1 O12 2.349 . S
Tb1 O14 2.415 . S
Tb1 O15 2.399 . S
Tb1 O16 2.325 . S
Tb1 O19 2.303 . S
Tb1 C30 2.764 . S
C2 O18 1.261 . S
C2 O19 1.257 . S
C3 C6 1.358 . S
C3 C7 1.332 . S
C3 C9 1.504 . S
C4 C5 1.373 . S
C4 C8 1.308 . S
C5 C4 1.373 . S
C5 C6 1.429 . S
C5 H32 0.932 . S
C6 C3 1.358 . S
C6 C5 1.429 . S
C6 H33 0.930 . S
C7 C3 1.332 . S
C7 C8 1.394 . S
C7 H34 0.932 . S
C8 C4 1.308 . S
C8 C7 1.394 . S
C8 H35 0.929 . S
C9 Tb0 2.764 1_655 S
C9 C3 1.504 . S
C9 O21 1.239 . S
C9 O22 1.263 . S
O10 Tb0 2.325 1_655 S
O10 C20 1.236 . S
O11 Tb1 2.322 . S
O11 C20 1.257 1_455 S
O12 Tb1 2.349 . S
O12 C23 1.261 . S
O13 Tb0 2.303 . S
O13 C23 1.257 . S
O14 Tb1 2.415 . S
O14 C30 1.239 . S
O15 Tb1 2.399 . S
O15 C30 1.263 . S
O16 Tb1 2.325 . S
O16 C31 1.236 . S
O17 Tb0 2.322 . S
O17 C31 1.257 . S
O18 Tb0 2.349 . S
O18 C2 1.261 . S
O19 Tb1 2.303 . S
O19 C2 1.257 . S
C20 O10 1.236 . S
C20 O11 1.257 1_655 S
O21 Tb0 2.415 1_655 S
O21 C9 1.239 . S
O22 Tb0 2.399 1_655 S
O22 C9 1.263 . S
C23 O12 1.261 . S
C23 O13 1.257 . S
C24 C27 1.358 . S
C24 C28 1.332 . S
C24 C30 1.504 . S
C25 C26 1.373 . S
C25 C29 1.308 . S
C26 C25 1.373 . S
C26 C27 1.429 . S
C26 H36 0.932 . S
C27 C24 1.358 . S
C27 C26 1.429 . S
C27 H37 0.930 . S
C28 C24 1.332 . S
C28 C29 1.394 . S
C28 H38 0.932 . S
C29 C25 1.308 . S
C29 C28 1.394 . S
C29 H39 0.929 . S
C30 Tb1 2.764 . S
C30 O14 1.239 . S
C30 O15 1.263 . S
C30 C24 1.504 . S
C31 O16 1.236 . S
C31 O17 1.257 . S
H32 C5 0.932 . S
H33 C6 0.930 . S
H34 C7 0.932 . S
H35 C8 0.929 . S
H36 C26 0.932 . S
H37 C27 0.930 . S
H38 C28 0.932 . S
H39 C29 0.929 . S
Tb40 C49 2.764 1_545 S
Tb40 O50 2.325 1_545 S
Tb40 O53 2.303 . S
Tb40 O57 2.322 . S
Tb40 O58 2.349 . S
Tb40 O61 2.415 1_545 S
Tb40 O62 2.399 1_545 S
Tb41 O51 2.322 . S
Tb41 O52 2.349 . S
Tb41 O54 2.415 . S
Tb41 O55 2.399 . S
Tb41 O56 2.325 . S
Tb41 O59 2.303 . S
Tb41 C70 2.764 . S
C42 O58 1.261 . S
C42 O59 1.257 . S
C43 C46 1.358 . S
C43 C47 1.332 . S
C43 C49 1.504 . S
C44 C45 1.373 . S
C44 C48 1.308 . S
C45 C44 1.373 . S
C45 C46 1.429 . S
C45 H72 0.932 . S
C46 C43 1.358 . S
C46 C45 1.429 . S
C46 H73 0.930 . S
C47 C43 1.332 . S
C47 C48 1.394 . S
C47 H74 0.932 . S
C48 C44 1.308 . S
C48 C47 1.394 . S
C48 H75 0.929 . S
C49 Tb40 2.764 1_565 S
C49 C43 1.504 . S
C49 O61 1.239 . S
C49 O62 1.263 . S
O50 Tb40 2.325 1_565 S
O50 C60 1.236 . S
O51 Tb41 2.322 . S
O51 C60 1.257 1_545 S
O52 Tb41 2.349 . S
O52 C63 1.261 . S
O53 Tb40 2.303 . S
O53 C63 1.257 . S
O54 Tb41 2.415 . S
O54 C70 1.239 . S
O55 Tb41 2.399 . S
O55 C70 1.263 . S
O56 Tb41 2.325 . S
O56 C71 1.236 . S
O57 Tb40 2.322 . S
O57 C71 1.257 . S
O58 Tb40 2.349 . S
O58 C42 1.261 . S
O59 Tb41 2.303 . S
O59 C42 1.257 . S
C60 O50 1.236 . S
C60 O51 1.257 1_565 S
O61 Tb40 2.415 1_565 S
O61 C49 1.239 . S
O62 Tb40 2.399 1_565 S
O62 C49 1.263 . S
C63 O52 1.261 . S
C63 O53 1.257 . S
C64 C67 1.358 . S
C64 C68 1.332 . S
C64 C70 1.504 . S
C65 C66 1.373 . S
C65 C69 1.308 . S
C66 C65 1.373 . S
C66 C67 1.429 . S
C66 H76 0.932 . S
C67 C64 1.358 . S
C67 C66 1.429 . S
C67 H77 0.930 . S
C68 C64 1.332 . S
C68 C69 1.394 . S
C68 H78 0.932 . S
C69 C65 1.308 . S
C69 C68 1.394 . S
C69 H79 0.929 . S
C70 Tb41 2.764 . S
C70 O54 1.239 . S
C70 O55 1.263 . S
C70 C64 1.504 . S
C71 O56 1.236 . S
C71 O57 1.257 . S
H72 C45 0.932 . S
H73 C46 0.930 . S
H74 C47 0.932 . S
H75 C48 0.929 . S
H76 C66 0.932 . S
H77 C67 0.930 . S
H78 C68 0.932 . S
H79 C69 0.929 . S
Tb80 C89 2.764 . S
Tb80 O90 2.325 . S
Tb80 O93 2.303 . S
Tb80 O97 2.322 . S
Tb80 O98 2.349 . S
Tb80 O101 2.415 . S
Tb80 O102 2.399 . S
Tb81 O91 2.322 . S
Tb81 O92 2.349 . S
Tb81 O94 2.415 . S
Tb81 O95 2.399 . S
Tb81 O96 2.325 . S
Tb81 O99 2.303 . S
Tb81 C110 2.764 . S
C82 O98 1.261 . S
C82 O99 1.257 . S
C83 C86 1.358 . S
C83 C87 1.332 . S
C83 C89 1.504 . S
C84 C85 1.373 . S
C84 C88 1.308 . S
C85 C84 1.373 . S
C85 C86 1.429 . S
C85 H112 0.932 . S
C86 C83 1.358 . S
C86 C85 1.429 . S
C86 H113 0.930 . S
C87 C83 1.332 . S
C87 C88 1.394 . S
C87 H114 0.932 . S
C88 C84 1.308 . S
C88 C87 1.394 . S
C88 H115 0.929 . S
C89 Tb80 2.764 . S
C89 C83 1.504 . S
C89 O101 1.239 . S
C89 O102 1.263 . S
O90 Tb80 2.325 . S
O90 C100 1.236 . S
O91 Tb81 2.322 . S
O91 C100 1.257 . S
O92 Tb81 2.349 . S
O92 C103 1.261 . S
O93 Tb80 2.303 . S
O93 C103 1.257 . S
O94 Tb81 2.415 . S
O94 C110 1.239 . S
O95 Tb81 2.399 . S
O95 C110 1.263 . S
O96 Tb81 2.325 . S
O96 C111 1.236 . S
O97 Tb80 2.322 . S
O97 C111 1.257 . S
O98 Tb80 2.349 . S
O98 C82 1.261 . S
O99 Tb81 2.303 . S
O99 C82 1.257 . S
C100 O90 1.236 . S
C100 O91 1.257 . S
O101 Tb80 2.415 . S
O101 C89 1.239 . S
O102 Tb80 2.399 . S
O102 C89 1.263 . S
C103 O92 1.261 . S
C103 O93 1.257 . S
C104 C107 1.358 . S
C104 C108 1.332 . S
C104 C110 1.504 . S
C105 C106 1.373 . S
C105 C109 1.308 . S
C106 C105 1.373 . S
C106 C107 1.429 . S
C106 H116 0.932 . S
C107 C104 1.358 . S
C107 C106 1.429 . S
C107 H117 0.930 . S
C108 C104 1.332 . S
C108 C109 1.394 . S
C108 H118 0.932 . S
C109 C105 1.308 . S
C109 C108 1.394 . S
C109 H119 0.929 . S
C110 Tb81 2.764 . S
C110 O94 1.239 . S
C110 O95 1.263 . S
C110 C104 1.504 . S
C111 O96 1.236 . S
C111 O97 1.257 . S
H112 C85 0.932 . S
H113 C86 0.930 . S
H114 C87 0.932 . S
H115 C88 0.929 . S
H116 C106 0.932 . S
H117 C107 0.930 . S
H118 C108 0.932 . S
H119 C109 0.929 . S
H120 C123 0.929 . S
H121 C126 0.929 . S
H122 C128 0.930 . S
C123 H120 0.929 . S
C123 C124 1.398 . S
C123 C125 1.396 . S
C124 C123 1.398 . S
C124 C128 1.407 . S
C125 C123 1.396 . S
C125 C126 1.394 . S
C126 H121 0.929 . S
C126 C125 1.394 . S
C126 C127 1.382 . S
C127 C126 1.382 . S
C127 C128 1.392 . S
C127 N129 1.420 . S
C128 H122 0.930 . S
C128 C124 1.407 . S
C128 C127 1.392 . S
N129 C127 1.420 . S
N129 C130 1.244 . S
C130 N129 1.244 . S
H131 C134 0.929 . S
H132 C137 0.929 . S
H133 C139 0.930 . S
C134 H131 0.929 . S
C134 C135 1.398 . S
C134 C136 1.396 . S
C135 C134 1.398 . S
C135 C139 1.407 . S
C136 C134 1.396 . S
C136 C137 1.394 . S
C137 H132 0.929 . S
C137 C136 1.394 . S
C137 C138 1.382 . S
C138 C137 1.382 . S
C138 C139 1.392 . S
C138 N140 1.420 . S
C139 H133 0.930 . S
C139 C135 1.407 . S
C139 C138 1.392 . S
N140 C138 1.420 . S
N140 C141 1.244 . S
C141 N140 1.244 . S
H142 C145 0.929 . S
H143 C148 0.929 . S
H144 C150 0.930 . S
C145 H142 0.929 . S
C145 C146 1.398 . S
C145 C147 1.396 . S
C146 C145 1.398 . S
C146 C150 1.407 . S
C147 C145 1.396 . S
C147 C148 1.394 . S
C148 H143 0.929 . S
C148 C147 1.394 . S
C148 C149 1.382 . S
C149 C148 1.382 . S
C149 C150 1.392 . S
C149 N151 1.420 . S
C150 H144 0.930 . S
C150 C146 1.407 . S
C150 C149 1.392 . S
N151 C149 1.420 . S
N151 C152 1.244 . S
C152 N151 1.244 . S
H153 C156 0.929 . S
H154 C159 0.929 . S
H155 C161 0.930 . S
C156 H153 0.929 . S
C156 C157 1.398 . S
C156 C158 1.396 . S
C157 C156 1.398 . S
C157 C161 1.407 . S
C158 C156 1.396 . S
C158 C159 1.394 1_455 S
C159 H154 0.929 . S
C159 C158 1.394 1_655 S
C159 C160 1.382 . S
C160 C159 1.382 . S
C160 C161 1.392 1_655 S
C160 N162 1.420 . S
C161 H155 0.930 . S
C161 C157 1.407 . S
C161 C160 1.392 1_455 S
N162 C160 1.420 . S
N162 C163 1.244 . S
C163 N162 1.244 . S
H164 C167 0.929 . S
H165 C170 0.929 1_565 S
H166 C172 0.930 . S
C167 H164 0.929 . S
C167 C168 1.398 . S
C167 C169 1.396 . S
C168 C167 1.398 . S
C168 C172 1.407 . S
C169 C167 1.396 . S
C169 C170 1.394 . S
C170 H165 0.929 1_545 S
C170 C169 1.394 . S
C170 C171 1.382 . S
C171 C170 1.382 . S
C171 C172 1.392 . S
C171 N173 1.420 1_545 S
C172 H166 0.930 . S
C172 C168 1.407 . S
C172 C171 1.392 . S
N173 C171 1.420 1_565 S
N173 C174 1.244 . S
C174 N173 1.244 . S
H175 C178 0.929 . S
H176 C181 0.929 . S
H177 C183 0.930 . S
C178 H175 0.929 . S
C178 C179 1.398 . S
C178 C180 1.396 . S
C179 C178 1.398 . S
C179 C183 1.407 . S
C180 C178 1.396 . S
C180 C181 1.394 . S
C181 H176 0.929 . S
C181 C180 1.394 . S
C181 C182 1.382 . S
C182 C181 1.382 . S
C182 C183 1.392 . S
C182 N184 1.420 . S
C183 H177 0.930 . S
C183 C179 1.407 . S
C183 C182 1.392 . S
N184 C182 1.420 . S
N184 C185 1.244 . S
C185 N184 1.244 . S
C186 C187 1.391 . S
C186 C188 1.394 . S
C186 H202 0.931 . S
C187 C186 1.391 . S
C187 C191 1.376 . S
C188 C186 1.394 . S
C188 C189 1.369 . S
C188 C192 1.531 . S
C189 C188 1.369 . S
C189 C190 1.410 . S
C189 C197 1.503 . S
C190 C189 1.410 . S
C190 C191 1.392 . S
C190 C193 1.511 . S
C191 C187 1.376 . S
C191 C190 1.392 . S
C191 H203 0.929 . S
C192 C188 1.531 . S
C192 H204 0.960 . S
C192 H205 0.962 . S
C192 H206 0.960 . S
C193 C190 1.511 . S
C193 H207 0.961 . S
C193 H208 0.961 . S
C193 H209 0.961 . S
C194 C195 1.370 . S
C194 C196 1.363 . S
C194 H210 0.931 . S
C195 C194 1.370 . S
C195 C199 1.408 . S
C196 C194 1.363 . S
C196 C197 1.370 . S
C196 C200 1.524 . S
C197 C189 1.503 . S
C197 C196 1.370 . S
C197 C198 1.403 . S
C198 C197 1.403 . S
C198 C199 1.404 . S
C198 C201 1.539 . S
C199 C195 1.408 . S
C199 C198 1.404 . S
C199 H211 0.930 . S
C200 C196 1.524 . S
C200 H212 0.956 . S
C200 H213 0.961 . S
C200 H214 0.961 . S
C201 C198 1.539 . S
C201 H215 0.958 . S
C201 H216 0.961 . S
C201 H217 0.960 . S
H202 C186 0.931 . S
H203 C191 0.929 . S
H204 C192 0.960 . S
H205 C192 0.962 . S
H206 C192 0.960 . S
H207 C193 0.961 . S
H208 C193 0.961 . S
H209 C193 0.961 . S
H210 C194 0.931 . S
H211 C199 0.930 . S
H212 C200 0.956 . S
H213 C200 0.961 . S
H214 C200 0.961 . S
H215 C201 0.958 . S
H216 C201 0.961 . S
H217 C201 0.960 . S
C218 C219 1.391 . S
C218 C220 1.394 . S
C218 H234 0.931 . S
C219 C218 1.391 . S
C219 C223 1.376 . S
C220 C218 1.394 . S
C220 C221 1.369 . S
C220 C224 1.531 . S
C221 C220 1.369 . S
C221 C222 1.410 . S
C221 C229 1.503 . S
C222 C221 1.410 . S
C222 C223 1.392 . S
C222 C225 1.511 . S
C223 C219 1.376 . S
C223 C222 1.392 . S
C223 H235 0.929 . S
C224 C220 1.531 . S
C224 H236 0.960 . S
C224 H237 0.962 . S
C224 H238 0.960 . S
C225 C222 1.511 . S
C225 H239 0.961 . S
C225 H240 0.961 . S
C225 H241 0.961 . S
C226 C227 1.370 . S
C226 C228 1.363 . S
C226 H242 0.931 . S
C227 C226 1.370 . S
C227 C231 1.408 . S
C228 C226 1.363 . S
C228 C229 1.370 . S
C228 C232 1.524 . S
C229 C221 1.503 . S
C229 C228 1.370 . S
C229 C230 1.403 . S
C230 C229 1.403 . S
C230 C231 1.404 . S
C230 C233 1.539 . S
C231 C227 1.408 . S
C231 C230 1.404 . S
C231 H243 0.930 . S
C232 C228 1.524 . S
C232 H244 0.956 . S
C232 H245 0.961 . S
C232 H246 0.961 . S
C233 C230 1.539 . S
C233 H247 0.958 . S
C233 H248 0.961 . S
C233 H249 0.960 . S
H234 C218 0.931 . S
H235 C223 0.929 . S
H236 C224 0.960 . S
H237 C224 0.962 . S
H238 C224 0.960 . S
H239 C225 0.961 . S
H240 C225 0.961 . S
H241 C225 0.961 . S
H242 C226 0.931 . S
H243 C231 0.930 . S
H244 C232 0.956 . S
H245 C232 0.961 . S
H246 C232 0.961 . S
H247 C233 0.958 . S
H248 C233 0.961 . S
H249 C233 0.960 . S
C250 C251 1.391 . S
C250 C252 1.394 . S
C250 H266 0.931 . S
C251 C250 1.391 . S
C251 C255 1.376 . S
C252 C250 1.394 . S
C252 C253 1.369 . S
C252 C256 1.531 . S
C253 C252 1.369 . S
C253 C254 1.410 . S
C253 C261 1.503 . S
C254 C253 1.410 . S
C254 C255 1.392 . S
C254 C257 1.511 . S
C255 C251 1.376 . S
C255 C254 1.392 . S
C255 H267 0.929 . S
C256 C252 1.531 . S
C256 H268 0.960 . S
C256 H269 0.962 . S
C256 H270 0.960 . S
C257 C254 1.511 . S
C257 H271 0.961 . S
C257 H272 0.961 . S
C257 H273 0.961 . S
C258 C259 1.370 . S
C258 C260 1.363 . S
C258 H274 0.931 . S
C259 C258 1.370 . S
C259 C263 1.408 . S
C260 C258 1.363 . S
C260 C261 1.370 . S
C260 C264 1.524 . S
C261 C253 1.503 . S
C261 C260 1.370 . S
C261 C262 1.403 . S
C262 C261 1.403 . S
C262 C263 1.404 . S
C262 C265 1.539 . S
C263 C259 1.408 . S
C263 C262 1.404 . S
C263 H275 0.930 . S
C264 C260 1.524 . S
C264 H276 0.956 . S
C264 H277 0.961 . S
C264 H278 0.961 . S
C265 C262 1.539 . S
C265 H279 0.958 . S
C265 H280 0.961 . S
C265 H281 0.960 . S
H266 C250 0.931 . S
H267 C255 0.929 . S
H268 C256 0.960 . S
H269 C256 0.962 . S
H270 C256 0.960 . S
H271 C257 0.961 . S
H272 C257 0.961 . S
H273 C257 0.961 . S
H274 C258 0.931 . S
H275 C263 0.930 . S
H276 C264 0.956 . S
H277 C264 0.961 . S
H278 C264 0.961 . S
H279 C265 0.958 . S
H280 C265 0.961 . S
H281 C265 0.960 . S
C282 C283 1.391 . S
C282 C284 1.394 . S
C282 H298 0.931 . S
C283 C282 1.391 . S
C283 C287 1.376 . S
C284 C282 1.394 . S
C284 C285 1.369 . S
C284 C288 1.531 . S
C285 C284 1.369 . S
C285 C286 1.410 . S
C285 C293 1.503 . S
C286 C285 1.410 . S
C286 C287 1.392 . S
C286 C289 1.511 . S
C287 C283 1.376 . S
C287 C286 1.392 . S
C287 H299 0.929 . S
C288 C284 1.531 . S
C288 H300 0.960 . S
C288 H301 0.962 . S
C288 H302 0.960 . S
C289 C286 1.511 . S
C289 H303 0.961 . S
C289 H304 0.961 . S
C289 H305 0.961 . S
C290 C291 1.370 . S
C290 C292 1.363 . S
C290 H306 0.931 . S
C291 C290 1.370 . S
C291 C295 1.408 . S
C292 C290 1.363 . S
C292 C293 1.370 . S
C292 C296 1.524 . S
C293 C285 1.503 . S
C293 C292 1.370 . S
C293 C294 1.403 . S
C294 C293 1.403 . S
C294 C295 1.404 . S
C294 C297 1.539 . S
C295 C291 1.408 . S
C295 C294 1.404 . S
C295 H307 0.930 . S
C296 C292 1.524 . S
C296 H308 0.956 . S
C296 H309 0.961 . S
C296 H310 0.961 . S
C297 C294 1.539 . S
C297 H311 0.958 . S
C297 H312 0.961 . S
C297 H313 0.960 . S
H298 C282 0.931 . S
H299 C287 0.929 . S
H300 C288 0.960 . S
H301 C288 0.962 . S
H302 C288 0.960 . S
H303 C289 0.961 . S
H304 C289 0.961 . S
H305 C289 0.961 . S
H306 C290 0.931 . S
H307 C295 0.930 . S
H308 C296 0.956 . S
H309 C296 0.961 . S
H310 C296 0.961 . S
H311 C297 0.958 . S
H312 C297 0.961 . S
H313 C297 0.960 . S
C314 C315 1.391 . S
C314 C316 1.394 . S
C314 H330 0.931 . S
C315 C314 1.391 . S
C315 C319 1.376 . S
C316 C314 1.394 . S
C316 C317 1.369 . S
C316 C320 1.531 . S
C317 C316 1.369 . S
C317 C318 1.410 . S
C317 C325 1.503 . S
C318 C317 1.410 . S
C318 C319 1.392 . S
C318 C321 1.511 . S
C319 C315 1.376 . S
C319 C318 1.392 . S
C319 H331 0.929 . S
C320 C316 1.531 . S
C320 H332 0.960 . S
C320 H333 0.962 . S
C320 H334 0.960 . S
C321 C318 1.511 . S
C321 H335 0.961 . S
C321 H336 0.961 . S
C321 H337 0.961 . S
C322 C323 1.370 . S
C322 C324 1.363 . S
C322 H338 0.931 . S
C323 C322 1.370 . S
C323 C327 1.408 . S
C324 C322 1.363 . S
C324 C325 1.370 . S
C324 C328 1.524 . S
C325 C317 1.503 . S
C325 C324 1.370 . S
C325 C326 1.403 . S
C326 C325 1.403 . S
C326 C327 1.404 . S
C326 C329 1.539 . S
C327 C323 1.408 . S
C327 C326 1.404 . S
C327 H339 0.930 . S
C328 C324 1.524 . S
C328 H340 0.956 . S
C328 H341 0.961 . S
C328 H342 0.961 . S
C329 C326 1.539 . S
C329 H343 0.958 . S
C329 H344 0.961 . S
C329 H345 0.960 . S
H330 C314 0.931 . S
H331 C319 0.929 . S
H332 C320 0.960 . S
H333 C320 0.962 . S
H334 C320 0.960 . S
H335 C321 0.961 . S
H336 C321 0.961 . S
H337 C321 0.961 . S
H338 C322 0.931 . S
H339 C327 0.930 . S
H340 C328 0.956 . S
H341 C328 0.961 . S
H342 C328 0.961 . S
H343 C329 0.958 . S
H344 C329 0.961 . S
H345 C329 0.960 . S
C346 C347 1.391 . S
C346 C348 1.394 . S
C346 H362 0.931 . S
C347 C346 1.391 . S
C347 C351 1.376 . S
C348 C346 1.394 . S
C348 C349 1.369 . S
C348 C352 1.531 . S
C349 C348 1.369 . S
C349 C350 1.410 . S
C349 C357 1.503 . S
C350 C349 1.410 . S
C350 C351 1.392 . S
C350 C353 1.511 . S
C351 C347 1.376 . S
C351 C350 1.392 . S
C351 H363 0.929 . S
C352 C348 1.531 . S
C352 H364 0.960 . S
C352 H365 0.962 . S
C352 H366 0.960 . S
C353 C350 1.511 . S
C353 H367 0.961 . S
C353 H368 0.961 . S
C353 H369 0.961 . S
C354 C355 1.370 . S
C354 C356 1.363 . S
C354 H370 0.931 . S
C355 C354 1.370 . S
C355 C359 1.408 . S
C356 C354 1.363 . S
C356 C357 1.370 . S
C356 C360 1.524 . S
C357 C349 1.503 . S
C357 C356 1.370 . S
C357 C358 1.403 . S
C358 C357 1.403 . S
C358 C359 1.404 . S
C358 C361 1.539 . S
C359 C355 1.408 . S
C359 C358 1.404 . S
C359 H371 0.930 . S
C360 C356 1.524 . S
C360 H372 0.956 . S
C360 H373 0.961 . S
C360 H374 0.961 . S
C361 C358 1.539 . S
C361 H375 0.958 . S
C361 H376 0.961 . S
C361 H377 0.960 . S
H362 C346 0.931 . S
H363 C351 0.929 . S
H364 C352 0.960 . S
H365 C352 0.962 . S
H366 C352 0.960 . S
H367 C353 0.961 . S
H368 C353 0.961 . S
H369 C353 0.961 . S
H370 C354 0.931 . S
H371 C359 0.930 . S
H372 C360 0.956 . S
H373 C360 0.961 . S
H374 C360 0.961 . S
H375 C361 0.958 . S
H376 C361 0.961 . S
H377 C361 0.960 . S
C378 C379 1.391 . S
C378 C380 1.394 . S
C378 H394 0.931 . S
C379 C378 1.391 . S
C379 C383 1.376 . S
C380 C378 1.394 . S
C380 C381 1.369 . S
C380 C384 1.531 . S
C381 C380 1.369 . S
C381 C382 1.410 . S
C381 C389 1.503 . S
C382 C381 1.410 . S
C382 C383 1.392 . S
C382 C385 1.511 . S
C383 C379 1.376 . S
C383 C382 1.392 . S
C383 H395 0.929 . S
C384 C380 1.531 . S
C384 H396 0.960 . S
C384 H397 0.962 . S
C384 H398 0.960 . S
C385 C382 1.511 . S
C385 H399 0.961 . S
C385 H400 0.961 . S
C385 H401 0.961 . S
C386 C387 1.370 . S
C386 C388 1.363 . S
C386 H402 0.931 . S
C387 C386 1.370 . S
C387 C391 1.408 . S
C388 C386 1.363 . S
C388 C389 1.370 . S
C388 C392 1.524 . S
C389 C381 1.503 . S
C389 C388 1.370 . S
C389 C390 1.403 . S
C390 C389 1.403 . S
C390 C391 1.404 . S
C390 C393 1.539 . S
C391 C387 1.408 . S
C391 C390 1.404 . S
C391 H403 0.930 . S
C392 C388 1.524 . S
C392 H404 0.956 . S
C392 H405 0.961 . S
C392 H406 0.961 . S
C393 C390 1.539 . S
C393 H407 0.958 . S
C393 H408 0.961 . S
C393 H409 0.960 . S
H394 C378 0.931 . S
H395 C383 0.929 . S
H396 C384 0.960 . S
H397 C384 0.962 . S
H398 C384 0.960 . S
H399 C385 0.961 . S
H400 C385 0.961 . S
H401 C385 0.961 . S
H402 C386 0.931 . S
H403 C391 0.930 . S
H404 C392 0.956 . S
H405 C392 0.961 . S
H406 C392 0.961 . S
H407 C393 0.958 . S
H408 C393 0.961 . S
H409 C393 0.960 . S
C410 C411 1.391 . S
C410 C412 1.394 . S
C410 H426 0.931 . S
C411 C410 1.391 . S
C411 C415 1.376 . S
C412 C410 1.394 . S
C412 C413 1.369 . S
C412 C416 1.531 . S
C413 C412 1.369 . S
C413 C414 1.410 . S
C413 C421 1.503 . S
C414 C413 1.410 . S
C414 C415 1.392 . S
C414 C417 1.511 . S
C415 C411 1.376 . S
C415 C414 1.392 . S
C415 H427 0.929 . S
C416 C412 1.531 . S
C416 H428 0.960 . S
C416 H429 0.962 . S
C416 H430 0.960 . S
C417 C414 1.511 . S
C417 H431 0.961 . S
C417 H432 0.961 . S
C417 H433 0.961 . S
C418 C419 1.370 . S
C418 C420 1.363 . S
C418 H434 0.931 . S
C419 C418 1.370 . S
C419 C423 1.408 . S
C420 C418 1.363 . S
C420 C421 1.370 . S
C420 C424 1.524 . S
C421 C413 1.503 . S
C421 C420 1.370 . S
C421 C422 1.403 . S
C422 C421 1.403 . S
C422 C423 1.404 . S
C422 C425 1.539 . S
C423 C419 1.408 . S
C423 C422 1.404 . S
C423 H435 0.930 . S
C424 C420 1.524 . S
C424 H436 0.956 . S
C424 H437 0.961 . S
C424 H438 0.961 . S
C425 C422 1.539 . S
C425 H439 0.958 . S
C425 H440 0.961 . S
C425 H441 0.960 . S
H426 C410 0.931 . S
H427 C415 0.929 . S
H428 C416 0.960 . S
H429 C416 0.962 . S
H430 C416 0.960 . S
H431 C417 0.961 . S
H432 C417 0.961 . S
H433 C417 0.961 . S
H434 C418 0.931 . S
H435 C423 0.930 . S
H436 C424 0.956 . S
H437 C424 0.961 . S
H438 C424 0.961 . S
H439 C425 0.958 . S
H440 C425 0.961 . S
H441 C425 0.960 . S
C442 C443 1.391 . S
C442 C444 1.394 . S
C442 H458 0.931 . S
C443 C442 1.391 . S
C443 C447 1.376 . S
C444 C442 1.394 . S
C444 C445 1.369 . S
C444 C448 1.531 . S
C445 C444 1.369 . S
C445 C446 1.410 . S
C445 C453 1.503 . S
C446 C445 1.410 . S
C446 C447 1.392 . S
C446 C449 1.511 . S
C447 C443 1.376 . S
C447 C446 1.392 . S
C447 H459 0.929 . S
C448 C444 1.531 . S
C448 H460 0.960 . S
C448 H461 0.962 . S
C448 H462 0.960 . S
C449 C446 1.511 . S
C449 H463 0.961 . S
C449 H464 0.961 . S
C449 H465 0.961 . S
C450 C451 1.370 . S
C450 C452 1.363 . S
C450 H466 0.931 . S
C451 C450 1.370 . S
C451 C455 1.408 . S
C452 C450 1.363 . S
C452 C453 1.370 . S
C452 C456 1.524 . S
C453 C445 1.503 . S
C453 C452 1.370 . S
C453 C454 1.403 . S
C454 C453 1.403 . S
C454 C455 1.404 . S
C454 C457 1.539 . S
C455 C451 1.408 . S
C455 C454 1.404 . S
C455 H467 0.930 . S
C456 C452 1.524 . S
C456 H468 0.956 . S
C456 H469 0.961 . S
C456 H470 0.961 . S
C457 C454 1.539 . S
C457 H471 0.958 . S
C457 H472 0.961 . S
C457 H473 0.960 . S
H458 C442 0.931 . S
H459 C447 0.929 . S
H460 C448 0.960 . S
H461 C448 0.962 . S
H462 C448 0.960 . S
H463 C449 0.961 . S
H464 C449 0.961 . S
H465 C449 0.961 . S
H466 C450 0.931 . S
H467 C455 0.930 . S
H468 C456 0.956 . S
H469 C456 0.961 . S
H470 C456 0.961 . S
H471 C457 0.958 . S
H472 C457 0.961 . S
H473 C457 0.960 . S
C474 C475 1.391 . S
C474 C476 1.394 . S
C474 H490 0.931 . S
C475 C474 1.391 . S
C475 C479 1.376 . S
C476 C474 1.394 . S
C476 C477 1.369 . S
C476 C480 1.531 . S
C477 C476 1.369 . S
C477 C478 1.410 . S
C477 C485 1.503 . S
C478 C477 1.410 . S
C478 C479 1.392 . S
C478 C481 1.511 . S
C479 C475 1.376 . S
C479 C478 1.392 . S
C479 H491 0.929 . S
C480 C476 1.531 . S
C480 H492 0.960 . S
C480 H493 0.962 . S
C480 H494 0.960 . S
C481 C478 1.511 . S
C481 H495 0.961 . S
C481 H496 0.961 . S
C481 H497 0.961 . S
C482 C483 1.370 . S
C482 C484 1.363 . S
C482 H498 0.931 . S
C483 C482 1.370 . S
C483 C487 1.408 . S
C484 C482 1.363 . S
C484 C485 1.370 . S
C484 C488 1.524 . S
C485 C477 1.503 . S
C485 C484 1.370 . S
C485 C486 1.403 . S
C486 C485 1.403 . S
C486 C487 1.404 . S
C486 C489 1.539 . S
C487 C483 1.408 . S
C487 C486 1.404 . S
C487 H499 0.930 . S
C488 C484 1.524 . S
C488 H500 0.956 . S
C488 H501 0.961 . S
C488 H502 0.961 . S
C489 C486 1.539 . S
C489 H503 0.958 . S
C489 H504 0.961 . S
C489 H505 0.960 . S
H490 C474 0.931 . S
H491 C479 0.929 . S
H492 C480 0.960 . S
H493 C480 0.962 . S
H494 C480 0.960 . S
H495 C481 0.961 . S
H496 C481 0.961 . S
H497 C481 0.961 . S
H498 C482 0.931 . S
H499 C487 0.930 . S
H500 C488 0.956 . S
H501 C488 0.961 . S
H502 C488 0.961 . S
H503 C489 0.958 . S
H504 C489 0.961 . S
H505 C489 0.960 . S
C506 C507 1.391 . S
C506 C508 1.394 . S
C506 H522 0.931 . S
C507 C506 1.391 . S
C507 C511 1.376 . S
C508 C506 1.394 . S
C508 C509 1.369 . S
C508 C512 1.531 . S
C509 C508 1.369 . S
C509 C510 1.410 . S
C509 C517 1.503 . S
C510 C509 1.410 . S
C510 C511 1.392 . S
C510 C513 1.511 . S
C511 C507 1.376 . S
C511 C510 1.392 . S
C511 H523 0.929 . S
C512 C508 1.531 . S
C512 H524 0.960 . S
C512 H525 0.962 . S
C512 H526 0.960 . S
C513 C510 1.511 . S
C513 H527 0.961 . S
C513 H528 0.961 . S
C513 H529 0.961 . S
C514 C515 1.370 . S
C514 C516 1.363 . S
C514 H530 0.931 . S
C515 C514 1.370 . S
C515 C519 1.408 . S
C516 C514 1.363 . S
C516 C517 1.370 . S
C516 C520 1.524 . S
C517 C509 1.503 . S
C517 C516 1.370 . S
C517 C518 1.403 . S
C518 C517 1.403 . S
C518 C519 1.404 . S
C518 C521 1.539 . S
C519 C515 1.408 . S
C519 C518 1.404 . S
C519 H531 0.930 . S
C520 C516 1.524 . S
C520 H532 0.956 . S
C520 H533 0.961 . S
C520 H534 0.961 . S
C521 C518 1.539 . S
C521 H535 0.958 . S
C521 H536 0.961 . S
C521 H537 0.960 . S
H522 C506 0.931 . S
H523 C511 0.929 . S
H524 C512 0.960 . S
H525 C512 0.962 . S
H526 C512 0.960 . S
H527 C513 0.961 . S
H528 C513 0.961 . S
H529 C513 0.961 . S
H530 C514 0.931 . S
H531 C519 0.930 . S
H532 C520 0.956 . S
H533 C520 0.961 . S
H534 C520 0.961 . S
H535 C521 0.958 . S
H536 C521 0.961 . S
H537 C521 0.960 . S
C538 C539 1.391 . S
C538 C540 1.394 . S
C538 H554 0.931 . S
C539 C538 1.391 . S
C539 C543 1.376 . S
C540 C538 1.394 . S
C540 C541 1.369 . S
C540 C544 1.531 . S
C541 C540 1.369 . S
C541 C542 1.410 . S
C541 C549 1.503 . S
C542 C541 1.410 . S
C542 C543 1.392 . S
C542 C545 1.511 . S
C543 C539 1.376 . S
C543 C542 1.392 . S
C543 H555 0.929 . S
C544 C540 1.531 . S
C544 H556 0.960 . S
C544 H557 0.962 . S
C544 H558 0.960 . S
C545 C542 1.511 . S
C545 H559 0.961 . S
C545 H560 0.961 . S
C545 H561 0.961 . S
C546 C547 1.370 . S
C546 C548 1.363 . S
C546 H562 0.931 . S
C547 C546 1.370 . S
C547 C551 1.408 . S
C548 C546 1.363 . S
C548 C549 1.370 . S
C548 C552 1.524 . S
C549 C541 1.503 . S
C549 C548 1.370 . S
C549 C550 1.403 . S
C550 C549 1.403 . S
C550 C551 1.404 . S
C550 C553 1.539 . S
C551 C547 1.408 . S
C551 C550 1.404 . S
C551 H563 0.930 . S
C552 C548 1.524 . S
C552 H564 0.956 . S
C552 H565 0.961 . S
C552 H566 0.961 . S
C553 C550 1.539 . S
C553 H567 0.958 . S
C553 H568 0.961 . S
C553 H569 0.960 . S
H554 C538 0.931 . S
H555 C543 0.929 . S
H556 C544 0.960 . S
H557 C544 0.962 . S
H558 C544 0.960 . S
H559 C545 0.961 . S
H560 C545 0.961 . S
H561 C545 0.961 . S
H562 C546 0.931 . S
H563 C551 0.930 . S
H564 C552 0.956 . S
H565 C552 0.961 . S
H566 C552 0.961 . S
H567 C553 0.958 . S
H568 C553 0.961 . S
H569 C553 0.960 . S
C570 C571 1.391 . S
C570 C572 1.394 . S
C570 H586 0.931 . S
C571 C570 1.391 . S
C571 C575 1.376 . S
C572 C570 1.394 . S
C572 C573 1.369 . S
C572 C576 1.531 . S
C573 C572 1.369 . S
C573 C574 1.410 . S
C573 C581 1.503 1_554 S
C574 C573 1.410 . S
C574 C575 1.392 . S
C574 C577 1.511 . S
C575 C571 1.376 . S
C575 C574 1.392 . S
C575 H587 0.929 . S
C576 C572 1.531 . S
C576 H588 0.960 . S
C576 H589 0.962 . S
C576 H590 0.960 . S
C577 C574 1.511 . S
C577 H591 0.961 . S
C577 H592 0.961 . S
C577 H593 0.961 1_455 S
C578 C579 1.370 . S
C578 C580 1.363 . S
C578 H594 0.931 . S
C579 C578 1.370 . S
C579 C583 1.408 . S
C580 C578 1.363 . S
C580 C581 1.370 . S
C580 C584 1.524 1_556 S
C581 C573 1.503 1_556 S
C581 C580 1.370 . S
C581 C582 1.403 . S
C582 C581 1.403 . S
C582 C583 1.404 . S
C582 C585 1.539 1_455 S
C583 C579 1.408 . S
C583 C582 1.404 . S
C583 H595 0.930 1_455 S
C584 C580 1.524 1_554 S
C584 H596 0.956 . S
C584 H597 0.961 . S
C584 H598 0.961 . S
C585 C582 1.539 1_655 S
C585 H599 0.958 . S
C585 H600 0.961 . S
C585 H601 0.960 1_556 S
H586 C570 0.931 . S
H587 C575 0.929 . S
H588 C576 0.960 . S
H589 C576 0.962 . S
H590 C576 0.960 . S
H591 C577 0.961 . S
H592 C577 0.961 . S
H593 C577 0.961 1_655 S
H594 C578 0.931 . S
H595 C583 0.930 1_655 S
H596 C584 0.956 . S
H597 C584 0.961 . S
H598 C584 0.961 . S
H599 C585 0.958 . S
H600 C585 0.961 . S
H601 C585 0.960 1_554 S
C602 C603 1.391 . S
C602 C604 1.394 . S
C602 H618 0.931 . S
C603 C602 1.391 . S
C603 C607 1.376 . S
C604 C602 1.394 . S
C604 C605 1.369 . S
C604 C608 1.531 . S
C605 C604 1.369 . S
C605 C606 1.410 . S
C605 C613 1.503 . S
C606 C605 1.410 . S
C606 C607 1.392 . S
C606 C609 1.511 . S
C607 C603 1.376 . S
C607 C606 1.392 . S
C607 H619 0.929 . S
C608 C604 1.531 . S
C608 H620 0.960 . S
C608 H621 0.962 . S
C608 H622 0.960 . S
C609 C606 1.511 . S
C609 H623 0.961 . S
C609 H624 0.961 . S
C609 H625 0.961 . S
C610 C611 1.370 . S
C610 C612 1.363 . S
C610 H626 0.931 . S
C611 C610 1.370 . S
C611 C615 1.408 . S
C612 C610 1.363 . S
C612 C613 1.370 . S
C612 C616 1.524 . S
C613 C605 1.503 . S
C613 C612 1.370 . S
C613 C614 1.403 . S
C614 C613 1.403 . S
C614 C615 1.404 . S
C614 C617 1.539 1_545 S
C615 C611 1.408 . S
C615 C614 1.404 . S
C615 H627 0.930 1_545 S
C616 C612 1.524 . S
C616 H628 0.956 . S
C616 H629 0.961 . S
C616 H630 0.961 . S
C617 C614 1.539 1_565 S
C617 H631 0.958 . S
C617 H632 0.961 . S
C617 H633 0.960 . S
H618 C602 0.931 . S
H619 C607 0.929 . S
H620 C608 0.960 . S
H621 C608 0.962 . S
H622 C608 0.960 . S
H623 C609 0.961 . S
H624 C609 0.961 . S
H625 C609 0.961 . S
H626 C610 0.931 . S
H627 C615 0.930 1_565 S
H628 C616 0.956 . S
H629 C616 0.961 . S
H630 C616 0.961 . S
H631 C617 0.958 . S
H632 C617 0.961 . S
H633 C617 0.960 . S
C634 C635 1.391 . S
C634 C636 1.394 . S
C634 H650 0.931 . S
C635 C634 1.391 . S
C635 C639 1.376 . S
C636 C634 1.394 . S
C636 C637 1.369 . S
C636 C640 1.531 . S
C637 C636 1.369 . S
C637 C638 1.410 . S
C637 C645 1.503 . S
C638 C637 1.410 . S
C638 C639 1.392 . S
C638 C641 1.511 . S
C639 C635 1.376 . S
C639 C638 1.392 . S
C639 H651 0.929 . S
C640 C636 1.531 . S
C640 H652 0.960 . S
C640 H653 0.962 . S
C640 H654 0.960 . S
C641 C638 1.511 . S
C641 H655 0.961 . S
C641 H656 0.961 . S
C641 H657 0.961 . S
C642 C643 1.370 . S
C642 C644 1.363 . S
C642 H658 0.931 . S
C643 C642 1.370 . S
C643 C647 1.408 . S
C644 C642 1.363 . S
C644 C645 1.370 . S
C644 C648 1.524 . S
C645 C637 1.503 . S
C645 C644 1.370 . S
C645 C646 1.403 . S
C646 C645 1.403 . S
C646 C647 1.404 . S
C646 C649 1.539 . S
C647 C643 1.408 . S
C647 C646 1.404 . S
C647 H659 0.930 . S
C648 C644 1.524 . S
C648 H660 0.956 . S
C648 H661 0.961 . S
C648 H662 0.961 . S
C649 C646 1.539 . S
C649 H663 0.958 . S
C649 H664 0.961 . S
C649 H665 0.960 . S
H650 C634 0.931 . S
H651 C639 0.929 . S
H652 C640 0.960 . S
H653 C640 0.962 . S
H654 C640 0.960 . S
H655 C641 0.961 . S
H656 C641 0.961 . S
H657 C641 0.961 . S
H658 C642 0.931 . S
H659 C647 0.930 . S
H660 C648 0.956 . S
H661 C648 0.961 . S
H662 C648 0.961 . S
H663 C649 0.958 . S
H664 C649 0.961 . S
H665 C649 0.960 . S
C666 C667 1.391 . S
C666 C668 1.394 . S
C666 H682 0.931 . S
C667 C666 1.391 . S
C667 C671 1.376 . S
C668 C666 1.394 . S
C668 C669 1.369 . S
C668 C672 1.531 . S
C669 C668 1.369 . S
C669 C670 1.410 . S
C669 C677 1.503 . S
C670 C669 1.410 . S
C670 C671 1.392 . S
C670 C673 1.511 . S
C671 C667 1.376 . S
C671 C670 1.392 . S
C671 H683 0.929 . S
C672 C668 1.531 . S
C672 H684 0.960 . S
C672 H685 0.962 . S
C672 H686 0.960 . S
C673 C670 1.511 . S
C673 H687 0.961 1_545 S
C673 H688 0.961 1_545 S
C673 H689 0.961 . S
C674 C675 1.370 . S
C674 C676 1.363 . S
C674 H690 0.931 1_545 S
C675 C674 1.370 . S
C675 C679 1.408 . S
C676 C674 1.363 . S
C676 C677 1.370 . S
C676 C680 1.524 1_545 S
C677 C669 1.503 . S
C677 C676 1.370 . S
C677 C678 1.403 . S
C678 C677 1.403 . S
C678 C679 1.404 . S
C678 C681 1.539 . S
C679 C675 1.408 . S
C679 C678 1.404 . S
C679 H691 0.930 . S
C680 C676 1.524 1_565 S
C680 H692 0.956 . S
C680 H693 0.961 . S
C680 H694 0.961 . S
C681 C678 1.539 . S
C681 H695 0.958 . S
C681 H696 0.961 . S
C681 H697 0.960 . S
H682 C666 0.931 . S
H683 C671 0.929 . S
H684 C672 0.960 . S
H685 C672 0.962 . S
H686 C672 0.960 . S
H687 C673 0.961 1_565 S
H688 C673 0.961 1_565 S
H689 C673 0.961 . S
H690 C674 0.931 1_565 S
H691 C679 0.930 . S
H692 C680 0.956 . S
H693 C680 0.961 . S
H694 C680 0.961 . S
H695 C681 0.958 . S
H696 C681 0.961 . S
H697 C681 0.960 . S
C698 C699 1.391 . S
C698 C700 1.394 . S
C698 H714 0.931 . S
C699 C698 1.391 . S
C699 C703 1.376 . S
C700 C698 1.394 . S
C700 C701 1.369 . S
C700 C704 1.531 . S
C701 C700 1.369 . S
C701 C702 1.410 . S
C701 C709 1.503 . S
C702 C701 1.410 . S
C702 C703 1.392 . S
C702 C705 1.511 . S
C703 C699 1.376 . S
C703 C702 1.392 . S
C703 H715 0.929 . S
C704 C700 1.531 . S
C704 H716 0.960 . S
C704 H717 0.962 . S
C704 H718 0.960 . S
C705 C702 1.511 . S
C705 H719 0.961 . S
C705 H720 0.961 . S
C705 H721 0.961 . S
C706 C707 1.370 . S
C706 C708 1.363 . S
C706 H722 0.931 . S
C707 C706 1.370 . S
C707 C711 1.408 . S
C708 C706 1.363 . S
C708 C709 1.370 1_554 S
C708 C712 1.524 1_554 S
C709 C701 1.503 . S
C709 C708 1.370 1_556 S
C709 C710 1.387 1_556 S
C710 C709 1.387 1_554 S
C710 C711 1.437 . S
C710 C713 1.524 1_554 S
C711 C707 1.408 . S
C711 C710 1.437 . S
C711 H723 0.930 . S
C712 C708 1.524 1_556 S
C712 H724 0.956 . S
C712 H725 0.961 . S
C712 H726 0.961 1_556 S
C713 C710 1.524 1_556 S
C713 H727 0.958 . S
C713 H728 0.961 . S
C713 H729 0.960 . S
H714 C698 0.931 . S
H715 C703 0.929 . S
H716 C704 0.960 . S
H717 C704 0.962 . S
H718 C704 0.960 . S
H719 C705 0.961 . S
H720 C705 0.961 . S
H721 C705 0.961 . S
H722 C706 0.931 . S
H723 C711 0.930 . S
H724 C712 0.956 . S
H725 C712 0.961 . S
H726 C712 0.961 1_554 S
H727 C713 0.958 . S
H728 C713 0.961 . S
H729 C713 0.960 . S
C730 C731 1.391 . S
C730 C732 1.394 . S
C730 H746 0.931 . S
C731 C730 1.391 . S
C731 C735 1.376 1_455 S
C732 C730 1.394 . S
C732 C733 1.369 . S
C732 C736 1.531 . S
C733 C732 1.369 . S
C733 C734 1.410 1_455 S
C733 C741 1.503 . S
C734 C733 1.410 1_655 S
C734 C735 1.392 . S
C734 C737 1.511 . S
C735 C731 1.376 1_655 S
C735 C734 1.392 . S
C735 H747 0.929 . S
C736 C732 1.531 . S
C736 H748 0.960 . S
C736 H749 0.962 . S
C736 H750 0.960 . S
C737 C734 1.511 . S
C737 H751 0.961 . S
C737 H752 0.961 . S
C737 H753 0.961 . S
C738 C739 1.370 . S
C738 C740 1.363 . S
C738 H754 0.931 . S
C739 C738 1.370 . S
C739 C743 1.408 . S
C740 C738 1.363 . S
C740 C741 1.370 . S
C740 C744 1.524 . S
C741 C733 1.503 . S
C741 C740 1.370 . S
C741 C742 1.403 . S
C742 C741 1.403 . S
C742 C743 1.404 . S
C742 C745 1.539 1_455 S
C743 C739 1.408 . S
C743 C742 1.404 . S
C743 H755 0.930 1_455 S
C744 C740 1.524 . S
C744 H756 0.956 . S
C744 H757 0.961 . S
C744 H758 0.961 . S
C745 C742 1.539 1_655 S
C745 H759 0.958 1_655 S
C745 H760 0.961 . S
C745 H761 0.960 . S
H746 C730 0.931 . S
H747 C735 0.929 . S
H748 C736 0.960 . S
H749 C736 0.962 . S
H750 C736 0.960 . S
H751 C737 0.961 . S
H752 C737 0.961 . S
H753 C737 0.961 . S
H754 C738 0.931 . S
H755 C743 0.930 1_655 S
H756 C744 0.956 . S
H757 C744 0.961 . S
H758 C744 0.961 . S
H759 C745 0.958 1_455 S
H760 C745 0.961 . S
H761 C745 0.960 . S
C187 C25 0.555 . S
C195 C185 0.494 . S
C219 C65 0.451 . S
C227 C163 0.273 . S
C251 C105 0.504 . S
C259 C174 0.286 . S
C283 C4 0.522 . S
C291 C179 0.282 . S
C323 C157 0.210 . S
C315 C44 0.343 . S
C355 C168 0.208 . S
C347 C84 0.243 . S
C379 C60 3.020 . S
C387 C141 2.969 . S
C411 C100 3.015 . S
C419 C146 2.964 1_655 S
C443 C31 2.985 . S
C451 C124 2.938 1_565 S
C483 C135 2.951 . S
C475 C71 2.987 . S
C515 C152 2.949 . S
C507 C111 2.990 . S
C539 C20 3.024 . S
C547 C130 2.966 . S
C579 C147 1.743 . S
C571 C2 1.702 . S
C603 C42 1.727 . S
C611 C125 1.756 . S
C635 C82 1.712 . S
C643 C136 1.757 . S
C675 C169 1.169 . S
C667 C63 1.162 . S
C707 C180 1.245 . S
C699 C103 1.256 . S
C731 C23 1.174 . S
C739 C158 1.161 . S
