# Generated by pormake.
# Topology pto, (3,4)-cn, num edge types: 1
# Building blocks:
#     Node 0, Type 0, BuildingBlock: QEWDON_clean_linker_0, # of connection points: 3
#     Node 1, Type 0, BuildingBlock: QEWDON_clean_linker_0, # of connection points: 3
#     Node 2, Type 0, BuildingBlock: QEWDON_clean_linker_0, # of connection points: 3
#     Node 3, Type 0, BuildingBlock: QEWDON_clean_linker_0, # of connection points: 3
#     Node 4, Type 0, BuildingBlock: QEWDON_clean_linker_0, # of connection points: 3
#     Node 5, Type 0, BuildingBlock: QEWDON_clean_linker_0, # of connection points: 3
#     Node 6, Type 0, BuildingBlock: QEWDON_clean_linker_0, # of connection points: 3
#     Node 7, Type 0, BuildingBlock: QEWDON_clean_linker_0, # of connection points: 3
#     Node 8, Type 1, BuildingBlock: KOZSID_clean_sbu_0, # of connection points: 4
#     Node 9, Type 1, BuildingBlock: KOZSID_clean_sbu_0, # of connection points: 4
#     Node 10, Type 1, BuildingBlock: KOZSID_clean_sbu_0, # of connection points: 4
#     Node 11, Type 1, BuildingBlock: KOZSID_clean_sbu_0, # of connection points: 4
#     Node 12, Type 1, BuildingBlock: KOZSID_clean_sbu_0, # of connection points: 4
#     Node 13, Type 1, BuildingBlock: KOZSID_clean_sbu_0, # of connection points: 4
#     Edge 14, Type (0, 1), BuildingBlock: OJICUG_clean_linker_0, # of connection points: 2
#     Edge 15, Type (0, 1), BuildingBlock: OJICUG_clean_linker_0, # of connection points: 2
#     Edge 16, Type (0, 1), BuildingBlock: OJICUG_clean_linker_0, # of connection points: 2
#     Edge 17, Type (0, 1), BuildingBlock: OJICUG_clean_linker_0, # of connection points: 2
#     Edge 18, Type (0, 1), BuildingBlock: OJICUG_clean_linker_0, # of connection points: 2
#     Edge 19, Type (0, 1), BuildingBlock: OJICUG_clean_linker_0, # of connection points: 2
#     Edge 20, Type (0, 1), BuildingBlock: OJICUG_clean_linker_0, # of connection points: 2
#     Edge 21, Type (0, 1), BuildingBlock: OJICUG_clean_linker_0, # of connection points: 2
#     Edge 22, Type (0, 1), BuildingBlock: OJICUG_clean_linker_0, # of connection points: 2
#     Edge 23, Type (0, 1), BuildingBlock: OJICUG_clean_linker_0, # of connection points: 2
#     Edge 24, Type (0, 1), BuildingBlock: OJICUG_clean_linker_0, # of connection points: 2
#     Edge 25, Type (0, 1), BuildingBlock: OJICUG_clean_linker_0, # of connection points: 2
#     Edge 26, Type (0, 1), BuildingBlock: OJICUG_clean_linker_0, # of connection points: 2
#     Edge 27, Type (0, 1), BuildingBlock: OJICUG_clean_linker_0, # of connection points: 2
#     Edge 28, Type (0, 1), BuildingBlock: OJICUG_clean_linker_0, # of connection points: 2
#     Edge 29, Type (0, 1), BuildingBlock: OJICUG_clean_linker_0, # of connection points: 2
#     Edge 30, Type (0, 1), BuildingBlock: OJICUG_clean_linker_0, # of connection points: 2
#     Edge 31, Type (0, 1), BuildingBlock: OJICUG_clean_linker_0, # of connection points: 2
#     Edge 32, Type (0, 1), BuildingBlock: OJICUG_clean_linker_0, # of connection points: 2
#     Edge 33, Type (0, 1), BuildingBlock: OJICUG_clean_linker_0, # of connection points: 2
#     Edge 34, Type (0, 1), BuildingBlock: OJICUG_clean_linker_0, # of connection points: 2
#     Edge 35, Type (0, 1), BuildingBlock: OJICUG_clean_linker_0, # of connection points: 2
#     Edge 36, Type (0, 1), BuildingBlock: OJICUG_clean_linker_0, # of connection points: 2
#     Edge 37, Type (0, 1), BuildingBlock: OJICUG_clean_linker_0, # of connection points: 2
# Relax obj value: 0.017
# Max RMSD: 0.202
# Mean RMSD: 0.076
data_MOF--net-pto--node1-KOZSID_clean_sbu_0--node2-QEWDON_clean_linker_0--edge1-OJICUG_clean_linker_0
_symmetry_space_group_name_H-M    P1
_symmetry_Int_Tables_number       1
_symmetry_cell_setting            triclinic
loop_
_symmetry_equiv_pos_as_xyz
'x, y, z'
_cell_length_a     25.230305
_cell_length_b     39.42043
_cell_length_c     35.689666
_cell_angle_alpha  91.389108
_cell_angle_beta   109.60765
_cell_angle_gamma 105.16183
loop_
_atom_site_label
_atom_site_type_symbol
_atom_site_fract_x
_atom_site_fract_y
_atom_site_fract_z
_atom_type_partial_charge
H0 H 0.3612 0.30978 0.28643 0.0
C1 C 0.34681 0.28619 0.29959 0.0
C2 C 0.33805 0.2526 0.28045 0.0
C3 C 0.33863 0.28958 0.33617 0.0
H4 H 0.31668 0.19659 0.28422 0.0
C5 C 0.32088 0.22222 0.29842 0.0
C6 C 0.3123 0.22521 0.33538 0.0
C7 C 0.32026 0.25927 0.35337 0.0
C8 C 0.35434 0.32486 0.35852 0.0
H9 H 0.31262 0.26268 0.38112 0.0
C10 C 0.3234 0.34941 0.34342 0.0
C11 C 0.33859 0.38277 0.36554 0.0
C12 C 0.40071 0.33381 0.39563 0.0
H13 H 0.42496 0.31515 0.40765 0.0
C14 C 0.41644 0.36698 0.41735 0.0
H15 H 0.28738 0.34241 0.31484 0.0
C16 C 0.38564 0.39132 0.40252 0.0
H17 H 0.39779 0.41657 0.42048 0.0
H18 H 0.45227 0.37373 0.44595 0.0
H19 H 0.26285 0.85672 0.75505 0.0
C20 C 0.24005 0.82873 0.75111 0.0
C21 C 0.2686 0.80551 0.77344 0.0
C22 C 0.18113 0.81599 0.7251 0.0
H23 H 0.2587 0.7519 0.78758 0.0
C24 C 0.23791 0.7695 0.76898 0.0
C25 C 0.17908 0.75654 0.74365 0.0
C26 C 0.15116 0.77988 0.72156 0.0
C27 C 0.14855 0.84043 0.704 0.0
H28 H 0.10556 0.77002 0.70199 0.0
C29 C 0.16962 0.86354 0.67934 0.0
C30 C 0.13621 0.88511 0.65778 0.0
C31 C 0.09443 0.83962 0.70755 0.0
H32 H 0.07747 0.82226 0.72654 0.0
C33 C 0.0616 0.86108 0.68668 0.0
H34 H 0.2114 0.86431 0.67659 0.0
C35 C 0.082 0.88349 0.66179 0.0
H36 H 0.05465 0.89909 0.64507 0.0
H37 H 0.0198 0.86006 0.68946 0.0
H38 H 0.97521 0.79464 0.43385 0.0
C39 C 0.9508 0.80423 0.40722 0.0
C40 C 0.94091 0.78687 0.36978 0.0
C41 C 0.92775 0.83269 0.41059 0.0
H42 H 0.90271 0.78556 0.3063 0.0
C43 C 0.91081 0.79947 0.33512 0.0
C44 C 0.89083 0.82935 0.33711 0.0
C45 C 0.89857 0.84552 0.37511 0.0
C46 C 0.93226 0.84719 0.45119 0.0
H47 H 0.88123 0.86761 0.37696 0.0
C48 C 0.9368 0.88314 0.46085 0.0
C49 C 0.94324 0.8959 0.49992 0.0
C50 C 0.9319 0.82437 0.48107 0.0
H51 H 0.92535 0.79629 0.47474 0.0
C52 C 0.93921 0.83714 0.5197 0.0
H53 H 0.93641 0.90132 0.43858 0.0
C54 C 0.94533 0.87266 0.52922 0.0
H55 H 0.94977 0.88177 0.55932 0.0
H56 H 0.93935 0.81927 0.54227 0.0
H57 H 0.84469 0.3578 0.93193 0.0
C58 C 0.84643 0.33693 0.91241 0.0
C59 C 0.85086 0.3437 0.87497 0.0
C60 C 0.8483 0.30409 0.92617 0.0
H61 H 0.85667 0.32131 0.82133 0.0
C62 C 0.85495 0.3166 0.85075 0.0
C63 C 0.85719 0.28357 0.86412 0.0
C64 C 0.85395 0.27751 0.90209 0.0
C65 C 0.84923 0.29908 0.96723 0.0
H66 H 0.85702 0.25251 0.91328 0.0
C67 C 0.80034 0.29951 0.97756 0.0
C68 C 0.80277 0.29833 0.01765 0.0
C69 C 0.90067 0.29664 0.99683 0.0
H70 H 0.93888 0.29651 0.98939 0.0
C71 C 0.90389 0.29571 0.03655 0.0
H72 H 0.76048 0.30031 0.95396 0.0
C73 C 0.85578 0.29696 0.04704 0.0
H74 H 0.86073 0.29724 0.07836 0.0
H75 H 0.94417 0.29455 0.05945 0.0
H76 H 0.95229 0.81745 0.84431 0.0
C77 C 0.92148 0.82139 0.8579 0.0
C78 C 0.88198 0.79199 0.86491 0.0
C79 C 0.92298 0.85595 0.86951 0.0
H80 H 0.8139 0.77522 0.89019 0.0
C81 C 0.84377 0.79768 0.88393 0.0
C82 C 0.84527 0.8323 0.89602 0.0
C83 C 0.88471 0.86128 0.88836 0.0
C84 C 0.96764 0.88651 0.86472 0.0
H85 H 0.8867 0.88804 0.89801 0.0
C86 C 0.95101 0.91147 0.83924 0.0
C87 C 0.99386 0.94105 0.83582 0.0
C88 C 0.02734 0.89109 0.88645 0.0
H89 H 0.0409 0.87207 0.9062 0.0
C90 C 0.06987 0.92063 0.88342 0.0
H91 H 0.90497 0.90792 0.82219 0.0
C92 C 0.0533 0.94563 0.85842 0.0
H93 H 0.08693 0.96823 0.85616 0.0
H94 H 0.11581 0.92415 0.90049 0.0
H95 H 0.87681 0.38153 0.46181 0.0
C96 C 0.84667 0.36575 0.43381 0.0
C97 C 0.85361 0.37456 0.39753 0.0
C98 C 0.80105 0.3365 0.43412 0.0
H99 H 0.81763 0.36165 0.33324 0.0
C100 C 0.81393 0.35404 0.36147 0.0
C101 C 0.76683 0.32552 0.36129 0.0
C102 C 0.76104 0.31659 0.39785 0.0
C103 C 0.7935 0.32778 0.47227 0.0
H104 H 0.72465 0.29473 0.39805 0.0
C105 C 0.80644 0.29763 0.48869 0.0
C106 C 0.79953 0.28927 0.5253 0.0
C107 C 0.77353 0.34978 0.49239 0.0
H108 H 0.76348 0.37316 0.48008 0.0
C109 C 0.76569 0.34145 0.5283 0.0
H110 H 0.8233 0.28134 0.47336 0.0
C111 C 0.77837 0.31142 0.54464 0.0
H112 H 0.77113 0.30546 0.57228 0.0
H113 H 0.74962 0.35831 0.54351 0.0
H114 H 0.20542 0.26618 0.74637 0.0
C115 C 0.18164 0.28487 0.74843 0.0
C116 C 0.18161 0.29641 0.78617 0.0
C117 C 0.15322 0.29842 0.71353 0.0
H118 H 0.15644 0.33348 0.81732 0.0
C119 C 0.15259 0.32206 0.78833 0.0
C120 C 0.12153 0.3348 0.75377 0.0
C121 C 0.12076 0.32191 0.71646 0.0
C122 C 0.16202 0.29111 0.67491 0.0
H123 H 0.09567 0.33085 0.68958 0.0
C124 C 0.17116 0.25888 0.66403 0.0
C125 C 0.18301 0.25379 0.62869 0.0
C126 C 0.16497 0.31787 0.6495 0.0
H127 H 0.16065 0.34349 0.65718 0.0
C128 C 0.17541 0.31256 0.61422 0.0
H129 H 0.16964 0.23788 0.68296 0.0
C130 C 0.18438 0.28085 0.60384 0.0
H131 H 0.19238 0.27747 0.57619 0.0
H132 H 0.1773 0.33337 0.59505 0.0
H133 H 0.26077 0.87306 0.22958 0.0
C134 C 0.2561 0.84736 0.24037 0.0
C135 C 0.25547 0.84372 0.27937 0.0
C136 C 0.24981 0.81769 0.21495 0.0
H137 H 0.24669 0.80682 0.32208 0.0
C138 C 0.24836 0.81001 0.29238 0.0
C139 C 0.24149 0.78011 0.26715 0.0
C140 C 0.24278 0.78423 0.22847 0.0
C141 C 0.24526 0.82073 0.17295 0.0
H142 H 0.23606 0.76126 0.20824 0.0
C143 C 0.29557 0.82825 0.16231 0.0
C144 C 0.29053 0.82787 0.1216 0.0
C145 C 0.18969 0.81379 0.14306 0.0
H146 H 0.15052 0.80778 0.15083 0.0
C147 C 0.18419 0.8139 0.10288 0.0
H148 H 0.33824 0.83402 0.18586 0.0
C149 C 0.23395 0.82051 0.09212 0.0
H150 H 0.22762 0.81891 0.06054 0.0
H151 H 0.14105 0.80813 0.07989 0.0
C152 C 0.20742 0.63469 0.35852 0.0
C153 C 0.25508 0.65782 0.38816 0.0
C154 C 0.25643 0.64525 0.42369 0.0
C155 C 0.20953 0.61538 0.41366 0.0
N156 N 0.17927 0.60756 0.37379 0.0
Co157 Co 0.10385 0.56937 0.34641 0.0
N158 N 0.10197 0.55273 0.39881 0.0
C159 C 0.14384 0.56493 0.43542 0.0
C160 C 0.13299 0.54649 0.46538 0.0
C161 C 0.08161 0.52056 0.44677 0.0
C162 C 0.0637 0.5249 0.40637 0.0
N163 N 0.02667 0.53283 0.31909 0.0
C164 C 0.99331 0.50875 0.33454 0.0
C165 C 0.94072 0.48973 0.30513 0.0
C166 C 0.94181 0.50146 0.26969 0.0
C167 C 0.99436 0.52717 0.27948 0.0
N168 N 0.10738 0.58454 0.29392 0.0
C169 C 0.07009 0.56915 0.25692 0.0
C170 C 0.08378 0.58559 0.22659 0.0
C171 C 0.1322 0.61347 0.24538 0.0
C172 C 0.14515 0.61239 0.28625 0.0
N173 N 0.14695 0.53474 0.34202 0.0
C174 C 0.20806 0.48505 0.33807 0.0
C175 C 0.15411 0.48288 0.30835 0.0
C176 C 0.12467 0.50802 0.31071 0.0
C177 C 0.23084 0.51246 0.36956 0.0
C178 C 0.1999 0.53664 0.371 0.0
N179 N 0.06156 0.60426 0.35097 0.0
C180 C 0.00211 0.64215 0.3199 0.0
C181 C 0.01637 0.66153 0.35705 0.0
C182 C 0.05079 0.65039 0.39121 0.0
C183 C 0.07254 0.62191 0.38755 0.0
C184 C 0.02471 0.61364 0.31758 0.0
H185 H 0.09936 0.61526 0.41475 0.0
H186 H 0.01313 0.60016 0.28838 0.0
H187 H 0.08389 0.50515 0.28699 0.0
H188 H 0.2197 0.55632 0.39626 0.0
C189 C 0.19199 0.59438 0.4408 0.0
C190 C 0.189 0.64047 0.31652 0.0
C191 C 0.01117 0.50131 0.37611 0.0
C192 C 0.01741 0.54361 0.2519 0.0
H193 H 0.2849 0.68168 0.38441 0.0
H194 H 0.28702 0.65696 0.45336 0.0
H195 H 0.15954 0.55115 0.49696 0.0
H196 H 0.06023 0.50048 0.46129 0.0
H197 H 0.90588 0.46878 0.30871 0.0
H198 H 0.90913 0.49157 0.24015 0.0
H199 H 0.05928 0.57944 0.1947 0.0
H200 H 0.15366 0.63331 0.23066 0.0
H201 H 0.13485 0.46204 0.28331 0.0
H202 H 0.27194 0.51483 0.39376 0.0
H203 H 0.97527 0.6496 0.29253 0.0
H204 H 0.06153 0.66381 0.42078 0.0
C205 C 0.08613 0.60757 0.80723 0.0
C206 C 0.14236 0.62466 0.8337 0.0
C207 C 0.14678 0.61215 0.86961 0.0
C208 C 0.09326 0.5883 0.86316 0.0
N209 N 0.05522 0.58434 0.82502 0.0
Co210 Co 0.97187 0.55372 0.80288 0.0
N211 N 0.97623 0.53852 0.85677 0.0
C212 C 0.02171 0.54975 0.89195 0.0
C213 C 0.01232 0.53282 0.92327 0.0
C214 C 0.95826 0.50869 0.90684 0.0
C215 C 0.93797 0.51244 0.8664 0.0
N216 N 0.88888 0.52259 0.78073 0.0
C217 C 0.86031 0.49733 0.79784 0.0
C218 C 0.80484 0.479 0.77155 0.0
C219 C 0.79855 0.49269 0.73602 0.0
C220 C 0.85049 0.51838 0.74274 0.0
N221 N 0.96711 0.56926 0.74905 0.0
C222 C 0.92044 0.55904 0.71433 0.0
C223 C 0.9296 0.57563 0.68279 0.0
C224 C 0.98494 0.59837 0.69847 0.0
C225 C 0.00624 0.59431 0.73882 0.0
N226 N 0.99898 0.51298 0.79091 0.0
C227 C 0.03294 0.45286 0.77572 0.0
C228 C 0.99109 0.46362 0.74556 0.0
C229 C 0.97439 0.49333 0.75385 0.0
C230 C 0.05817 0.47289 0.81336 0.0
C231 C 0.04128 0.50285 0.8201 0.0
N232 N 0.94482 0.59454 0.81495 0.0
C233 C 0.88322 0.63363 0.79387 0.0
C234 C 0.91288 0.65561 0.83027 0.0
C235 C 0.9578 0.64606 0.85915 0.0
C236 C 0.97309 0.61588 0.85088 0.0
C237 C 0.89934 0.60328 0.78707 0.0
H238 H 0.00878 0.61085 0.87384 0.0
H239 H 0.87487 0.5876 0.75881 0.0
H240 H 0.94106 0.49963 0.72995 0.0
H241 H 0.06273 0.51718 0.84932 0.0
C242 C 0.07547 0.57223 0.89318 0.0
C243 C 0.06222 0.6165 0.7667 0.0
C244 C 0.88643 0.48755 0.83736 0.0
C245 C 0.86738 0.5356 0.71302 0.0
H246 H 0.17604 0.64505 0.8282 0.0
H247 H 0.18367 0.62068 0.89757 0.0
H248 H 0.0427 0.53597 0.95377 0.0
H249 H 0.93749 0.48915 0.92223 0.0
H250 H 0.77349 0.457 0.77711 0.0
H251 H 0.76192 0.48354 0.70801 0.0
H252 H 0.89895 0.57247 0.65237 0.0
H253 H 0.00662 0.61669 0.68244 0.0
H254 H 0.97047 0.44877 0.71592 0.0
H255 H 0.09141 0.4657 0.83743 0.0
H256 H 0.84765 0.63979 0.77071 0.0
H257 H 0.98253 0.66246 0.88767 0.0
C258 C 0.26042 0.99324 0.54972 0.0
C259 C 0.30814 0.98943 0.58117 0.0
C260 C 0.35696 0.01236 0.57811 0.0
C261 C 0.33637 0.02893 0.54527 0.0
N262 N 0.27733 0.0178 0.52683 0.0
Co263 Co 0.22897 0.03642 0.47937 0.0
N264 N 0.30085 0.07075 0.47555 0.0
C265 C 0.35737 0.07395 0.49829 0.0
C266 C 0.39752 0.09771 0.4868 0.0
C267 C 0.36483 0.11064 0.45488 0.0
C268 C 0.30622 0.09435 0.44906 0.0
N269 N 0.1805 0.05575 0.43265 0.0
C270 C 0.19688 0.08274 0.4122 0.0
C271 C 0.14838 0.08925 0.38388 0.0
C272 C 0.09992 0.06515 0.38589 0.0
C273 C 0.12122 0.04564 0.41553 0.0
N274 N 0.15727 0.00132 0.48245 0.0
C275 C 0.10114 0.9957 0.45742 0.0
C276 C 0.0615 0.96914 0.46627 0.0
C277 C 0.09419 0.95705 0.49904 0.0
C278 C 0.152 0.97735 0.50856 0.0
N279 N 0.22218 0.07217 0.51636 0.0
C280 C 0.21343 0.1272 0.56391 0.0
C281 C 0.1632 0.1032 0.53654 0.0
C282 C 0.16853 0.07611 0.51329 0.0
C283 C 0.26789 0.12207 0.56843 0.0
C284 C 0.27122 0.09452 0.54472 0.0
N285 N 0.23587 0.00087 0.44209 0.0
C286 C 0.19389 0.96007 0.38092 0.0
C287 C 0.24738 0.95278 0.38737 0.0
C288 C 0.29481 0.96983 0.42191 0.0
C289 C 0.28803 0.99328 0.44869 0.0
C290 C 0.18919 0.984 0.40834 0.0
H291 H 0.32584 0.00503 0.47442 0.0
H292 H 0.1473 0.98838 0.40151 0.0
H293 H 0.12867 0.0592 0.49239 0.0
H294 H 0.31404 0.09223 0.54936 0.0
C295 C 0.37139 0.05461 0.53062 0.0
C296 C 0.19991 0.97354 0.54342 0.0
C297 C 0.2575 0.10297 0.41872 0.0
C298 C 0.08671 0.01739 0.42755 0.0
H299 H 0.30772 0.97204 0.60413 0.0
H300 H 0.40208 0.01657 0.59761 0.0
H301 H 0.44494 0.10479 0.50005 0.0
H302 H 0.38234 0.13003 0.43793 0.0
H303 H 0.14767 0.1094 0.36385 0.0
H304 H 0.0545 0.06229 0.36799 0.0
H305 H 0.01436 0.96012 0.45117 0.0
H306 H 0.0774 0.93594 0.51449 0.0
H307 H 0.11997 0.1061 0.53178 0.0
H308 H 0.30802 0.13956 0.58982 0.0
H309 H 0.15535 0.94702 0.35511 0.0
H310 H 0.33741 0.96543 0.42826 0.0
C311 C 0.53115 0.87582 0.07249 0.0
C312 C 0.52654 0.90753 0.08708 0.0
C313 C 0.57603 0.93333 0.08883 0.0
C314 C 0.6082 0.91609 0.07546 0.0
N315 N 0.58174 0.88109 0.065 0.0
Co316 Co 0.61541 0.84648 0.04682 0.0
N317 N 0.67346 0.88443 0.03374 0.0
C318 C 0.68922 0.9192 0.04663 0.0
C319 C 0.7281 0.93923 0.03093 0.0
C320 C 0.73763 0.91552 0.0069 0.0
C321 C 0.70441 0.88214 0.00965 0.0
N322 N 0.64991 0.81198 0.0295 0.0
C323 C 0.68475 0.81586 0.00727 0.0
C324 C 0.7014 0.78534 0.00377 0.0
C325 C 0.67549 0.76155 0.02427 0.0
C326 C 0.64493 0.77884 0.03932 0.0
N327 N 0.55712 0.80821 0.05927 0.0
C328 C 0.55967 0.77476 0.06372 0.0
C329 C 0.5119 0.7537 0.07042 0.0
C330 C 0.47758 0.77535 0.07088 0.0
C331 C 0.50698 0.80878 0.06509 0.0
N332 N 0.55985 0.8423 0.9922 0.0
C333 C 0.47605 0.83624 0.91533 0.0
C334 C 0.48839 0.80613 0.93221 0.0
C335 C 0.53036 0.80973 0.97053 0.0
C336 C 0.50768 0.8695 0.93756 0.0
C337 C 0.54933 0.87194 0.97579 0.0
N338 N 0.6709 0.8509 0.10171 0.0
C339 C 0.6891 0.84921 0.17224 0.0
C340 C 0.7495 0.85505 0.18052 0.0
C341 C 0.76943 0.85982 0.14805 0.0
C342 C 0.72952 0.85691 0.10906 0.0
C343 C 0.65108 0.84792 0.13308 0.0
H344 H 0.74623 0.85931 0.08483 0.0
H345 H 0.6053 0.84384 0.12827 0.0
H346 H 0.53819 0.78608 0.98292 0.0
H347 H 0.57253 0.89787 0.99225 0.0
C348 C 0.65875 0.9323 0.06711 0.0
C349 C 0.48971 0.84103 0.06997 0.0
C350 C 0.70569 0.84862 0.9913 0.0
C351 C 0.60295 0.76296 0.05583 0.0
H352 H 0.49164 0.91157 0.09622 0.0
H353 H 0.58659 0.96141 0.09793 0.0
H354 H 0.7453 0.96779 0.03488 0.0
H355 H 0.76562 0.92224 0.98934 0.0
H356 H 0.72943 0.78073 0.98815 0.0
H357 H 0.67682 0.73443 0.02648 0.0
H358 H 0.50225 0.7257 0.07343 0.0
H359 H 0.43617 0.76744 0.07566 0.0
H360 H 0.46455 0.77979 0.91651 0.0
H361 H 0.50022 0.89352 0.92564 0.0
H362 H 0.67031 0.84463 0.19544 0.0
H363 H 0.81548 0.86549 0.15223 0.0
C364 C 0.98048 0.07087 0.72142 0.0
C365 C 0.03984 0.07471 0.74124 0.0
C366 C 0.07001 0.10385 0.72943 0.0
C367 C 0.02771 0.11594 0.70284 0.0
N368 N 0.97218 0.09632 0.69695 0.0
Co369 Co 0.89784 0.10302 0.65823 0.0
N370 N 0.94227 0.14676 0.6422 0.0
C371 C 1.00106 0.16181 0.65645 0.0
C372 C 0.01832 0.19331 0.64247 0.0
C373 C 0.96774 0.19885 0.61778 0.0
C374 C 0.92214 0.17048 0.6186 0.0
N375 N 0.8236 0.10919 0.61873 0.0
C376 C 0.81489 0.13579 0.59614 0.0
C377 C 0.75584 0.13019 0.57363 0.0
C378 C 0.72621 0.09908 0.5824 0.0
C379 C 0.76852 0.08754 0.60975 0.0
N380 N 0.85309 0.05999 0.67525 0.0
C381 C 0.7941 0.04574 0.66181 0.0
C382 C 0.77564 0.01758 0.68059 0.0
C383 C 0.82578 0.01345 0.70767 0.0
C384 C 0.87229 0.0392 0.70347 0.0
N385 N 0.89102 0.13321 0.70073 0.0
C386 C 0.88159 0.17928 0.75834 0.0
C387 C 0.83196 0.1539 0.73216 0.0
C388 C 0.83764 0.13126 0.70385 0.0
C389 C 0.93613 0.18036 0.75594 0.0
C390 C 0.93981 0.15732 0.72724 0.0
N391 N 0.90516 0.0727 0.61577 0.0
C392 C 0.86688 0.01927 0.56873 0.0
C393 C 0.92119 0.02393 0.56428 0.0
C394 C 0.96608 0.05464 0.58388 0.0
C395 C 0.95696 0.07867 0.60885 0.0
C396 C 0.85987 0.04377 0.59436 0.0
H397 H 0.9931 0.10137 0.62298 0.0
H398 H 0.81795 0.0381 0.5973 0.0
H399 H 0.79817 0.11276 0.68441 0.0
H400 H 0.98263 0.15981 0.72682 0.0
C401 C 0.03871 0.14628 0.68399 0.0
C402 C 0.9338 0.04253 0.72666 0.0
C403 C 0.86048 0.16787 0.59728 0.0
C404 C 0.75719 0.05903 0.63107 0.0
H405 H 0.05953 0.05814 0.76203 0.0
H406 H 0.11719 0.11495 0.73911 0.0
H407 H 0.06219 0.21077 0.6502 0.0
H408 H 0.96471 0.2216 0.6017 0.0
H409 H 0.73575 0.14733 0.55399 0.0
H410 H 0.67913 0.08716 0.5716 0.0
H411 H 0.731 0.00193 0.67524 0.0
H412 H 0.82768 0.99364 0.72814 0.0
H413 H 0.78864 0.15212 0.73265 0.0
H414 H 0.97607 0.19903 0.77607 0.0
H415 H 0.83068 0.99585 0.55416 0.0
H416 H 0.00861 0.05975 0.5807 0.0
C417 C 0.38512 0.28447 0.1135 0.0
C418 C 0.36211 0.31128 0.12046 0.0
C419 C 0.37987 0.33811 0.09947 0.0
C420 C 0.41248 0.32609 0.08092 0.0
N421 N 0.41583 0.29344 0.08898 0.0
Co422 Co 0.45932 0.26611 0.07025 0.0
N423 N 0.51059 0.30954 0.06013 0.0
C424 C 0.49956 0.34118 0.05657 0.0
C425 C 0.54461 0.36674 0.05158 0.0
C426 C 0.58594 0.34996 0.05151 0.0
C427 C 0.56341 0.31475 0.05587 0.0
N428 N 0.50149 0.23833 0.05066 0.0
C429 C 0.55338 0.24922 0.04504 0.0
C430 C 0.56465 0.22115 0.02776 0.0
C431 C 0.51816 0.19184 0.02276 0.0
C432 C 0.48092 0.20355 0.03687 0.0
N433 N 0.40844 0.22297 0.08099 0.0
C434 C 0.39811 0.18958 0.06521 0.0
C435 C 0.36374 0.16527 0.08073 0.0
C436 C 0.352 0.18478 0.10788 0.0
C437 C 0.37966 0.22002 0.10715 0.0
N438 N 0.40348 0.26129 0.01551 0.0
C439 C 0.32526 0.26248 0.93817 0.0
C440 C 0.30464 0.25192 0.96938 0.0
C441 C 0.34437 0.25199 0.00779 0.0
C442 C 0.38606 0.27078 0.94663 0.0
C443 C 0.42392 0.26935 0.98494 0.0
N444 N 0.51527 0.27142 0.12487 0.0
C445 C 0.57425 0.24743 0.17962 0.0
C446 C 0.59321 0.27991 0.20374 0.0
C447 C 0.573 0.30803 0.18762 0.0
C448 C 0.53474 0.30339 0.14809 0.0
C449 C 0.53458 0.24359 0.14029 0.0
H450 H 0.52074 0.32576 0.13637 0.0
H451 H 0.51937 0.21817 0.12237 0.0
H452 H 0.32736 0.24531 0.0315 0.0
H453 H 0.4702 0.27608 0.99006 0.0
C454 C 0.4518 0.34711 0.06489 0.0
C455 C 0.37702 0.25062 0.12997 0.0
C456 C 0.59016 0.28623 0.05253 0.0
C457 C 0.43166 0.18206 0.04346 0.0
H458 H 0.33633 0.31159 0.13928 0.0
H459 H 0.37313 0.3641 0.09999 0.0
H460 H 0.5482 0.39458 0.0499 0.0
H461 H 0.62766 0.3624 0.0485 0.0
H462 H 0.60202 0.22176 0.01907 0.0
H463 H 0.51301 0.16507 0.01124 0.0
H464 H 0.35166 0.1367 0.07493 0.0
H465 H 0.32672 0.17406 0.12623 0.0
H466 H 0.25826 0.24415 0.96466 0.0
H467 H 0.40533 0.27972 0.92445 0.0
H468 H 0.58931 0.22516 0.19125 0.0
H469 H 0.58744 0.33365 0.20532 0.0
C470 C 0.33312 0.44452 0.35551 0.0
C471 C 0.30418 0.40826 0.35163 0.0
H472 H 0.32514 0.49717 0.35328 0.0
C473 C 0.24247 0.3971 0.33809 0.0
H474 H 0.38056 0.45382 0.36511 0.0
C475 C 0.21062 0.42199 0.33129 0.0
C476 C 0.24003 0.4584 0.33794 0.0
H477 H 0.21901 0.36932 0.33502 0.0
H478 H 0.16337 0.41284 0.32318 0.0
C479 C 0.30141 0.4693 0.34871 0.0
C480 C 0.09086 0.71252 0.74884 0.0
C481 C 0.14565 0.71956 0.74405 0.0
H482 H 0.02186 0.67406 0.76007 0.0
C483 C 0.17067 0.69163 0.74365 0.0
H484 H 0.07082 0.73356 0.74977 0.0
C485 C 0.14259 0.65769 0.74956 0.0
C486 C 0.08943 0.65131 0.75632 0.0
H487 H 0.21261 0.69625 0.73969 0.0
H488 H 0.16317 0.6367 0.75011 0.0
C489 C 0.06303 0.67866 0.75498 0.0
C490 C 0.01689 0.75391 0.39034 0.0
C491 C 0.96029 0.75476 0.36666 0.0
H492 H 0.07932 0.72417 0.40525 0.0
C493 C 0.9221 0.7247 0.33982 0.0
H494 H 0.04752 0.77682 0.4109 0.0
C495 C 0.94014 0.69445 0.33667 0.0
C496 C 0.99679 0.69358 0.36031 0.0
H497 H 0.87787 0.72438 0.3216 0.0
H498 H 0.90937 0.67157 0.31614 0.0
C499 C 0.03499 0.7237 0.38712 0.0
C500 C 0.89723 0.39434 0.84444 0.0
C501 C 0.85604 0.37979 0.86253 0.0
H502 H 0.93832 0.43995 0.8221 0.0
C503 C 0.82244 0.40063 0.87034 0.0
H504 H 0.92463 0.37935 0.83865 0.0
C505 C 0.83088 0.4355 0.8611 0.0
C506 C 0.87285 0.44988 0.84385 0.0
H507 H 0.79005 0.39011 0.88392 0.0
H508 H 0.8056 0.45144 0.8681 0.0
C509 C 0.90544 0.42904 0.83516 0.0
C510 C 0.26571 0.15964 0.33473 0.0
C511 C 0.2976 0.19345 0.35628 0.0
H512 H 0.22948 0.1044 0.33759 0.0
C513 C 0.31577 0.19673 0.3985 0.0
H514 H 0.25008 0.15576 0.30233 0.0
C515 C 0.30105 0.16765 0.4183 0.0
C516 C 0.27005 0.13406 0.39677 0.0
H517 H 0.34225 0.22166 0.41673 0.0
H518 H 0.31503 0.17126 0.45071 0.0
C519 C 0.25299 0.13019 0.35483 0.0
C520 C 0.33904 0.84629 0.83499 0.0
C521 C 0.32755 0.81856 0.80532 0.0
H522 H 0.39447 0.8733 0.8933 0.0
C523 C 0.369 0.79962 0.80996 0.0
H524 H 0.30754 0.86104 0.83247 0.0
C525 C 0.41878 0.80658 0.84477 0.0
C526 C 0.42822 0.83258 0.87584 0.0
H527 H 0.36148 0.77829 0.78737 0.0
H528 H 0.44892 0.79077 0.8479 0.0
C529 C 0.38883 0.85321 0.86993 0.0
C530 C 0.98801 0.95277 0.54579 0.0
C531 C 0.94442 0.9327 0.51073 0.0
H532 H 0.01515 0.9976 0.5898 0.0
C533 C 0.89687 0.94548 0.49033 0.0
H534 H 0.02489 0.94333 0.56223 0.0
C535 C 0.89063 0.97633 0.50652 0.0
C536 C 0.93242 0.99519 0.54299 0.0
H537 H 0.86244 0.93031 0.46345 0.0
H538 H 0.85195 0.98464 0.4914 0.0
C539 C 0.98237 0.98385 0.56155 0.0
C540 C 0.70739 0.3136 0.00589 0.0
C541 C 0.75028 0.29803 0.02865 0.0
H542 H 0.62243 0.3209 0.99448 0.0
C543 C 0.74134 0.28101 0.06128 0.0
H544 H 0.7126 0.32769 0.98114 0.0
C545 C 0.69104 0.27926 0.07041 0.0
C546 C 0.6476 0.29361 0.04664 0.0
H547 H 0.77198 0.26783 0.07913 0.0
H548 H 0.68476 0.26526 0.09505 0.0
C549 C 0.65613 0.31066 0.01419 0.0
C550 C 0.14689 0.94228 0.62739 0.0
C551 C 0.15624 0.90858 0.63012 0.0
H552 H 0.15332 0.98903 0.59759 0.0
C553 C 0.18195 0.8969 0.60475 0.0
H554 H 0.12786 0.95232 0.64674 0.0
C555 C 0.19683 0.91815 0.57686 0.0
C556 C 0.18639 0.9514 0.57393 0.0
H557 H 0.18899 0.87095 0.60563 0.0
H558 H 0.21568 0.90847 0.55714 0.0
C559 C 0.16164 0.96339 0.59948 0.0
C560 C 0.87628 0.83844 0.26531 0.0
C561 C 0.85973 0.84179 0.29884 0.0
H562 H 0.85428 0.83783 0.20248 0.0
C563 C 0.81056 0.85399 0.29411 0.0
H564 H 0.91513 0.83042 0.26786 0.0
C565 C 0.7768 0.86037 0.2563 0.0
C566 C 0.79028 0.85375 0.22195 0.0
H567 H 0.79648 0.85719 0.31915 0.0
H568 H 0.73926 0.86963 0.25414 0.0
C569 C 0.84159 0.84355 0.22746 0.0
C570 C 0.83189 0.22057 0.83338 0.0
C571 C 0.86501 0.25623 0.83866 0.0
H572 H 0.81121 0.1682 0.804 0.0
C573 C 0.90477 0.26601 0.8184 0.0
H574 H 0.80074 0.21226 0.84847 0.0
C575 C 0.91038 0.24099 0.79277 0.0
C576 C 0.87655 0.20543 0.7868 0.0
H577 H 0.93156 0.29317 0.82223 0.0
H578 H 0.94046 0.24974 0.77696 0.0
C579 C 0.83745 0.19544 0.8076 0.0
C580 C 0.30601 0.22813 0.20823 0.0
C581 C 0.34916 0.24975 0.24243 0.0
H582 H 0.27997 0.21241 0.14517 0.0
C583 C 0.40206 0.27029 0.23962 0.0
H584 H 0.26454 0.21249 0.20954 0.0
C585 C 0.41133 0.26961 0.20321 0.0
C586 C 0.36785 0.24852 0.16887 0.0
H587 H 0.4361 0.2871 0.26559 0.0
H588 H 0.45222 0.28597 0.2017 0.0
C589 C 0.315 0.22786 0.17157 0.0
C590 C 0.88628 0.74574 0.81717 0.0
C591 C 0.88375 0.75563 0.85452 0.0
H592 H 0.89691 0.70628 0.78012 0.0
C593 C 0.88709 0.73141 0.88289 0.0
H594 H 0.88355 0.76381 0.79466 0.0
C595 C 0.89511 0.69858 0.87467 0.0
C596 C 0.89917 0.68907 0.8377 0.0
H597 H 0.88577 0.73839 0.91204 0.0
H598 H 0.89893 0.68079 0.89746 0.0
C599 C 0.89351 0.71273 0.80875 0.0
C600 C 0.9348 0.40461 0.37377 0.0
C601 C 0.89955 0.40649 0.39654 0.0
H602 H 0.99902 0.43343 0.35039 0.0
C603 C 0.9052 0.43954 0.41564 0.0
H604 H 0.93147 0.37944 0.35892 0.0
C605 C 0.94329 0.47038 0.41037 0.0
C606 C 0.97693 0.46851 0.38648 0.0
H607 H 0.87809 0.44173 0.43303 0.0
H608 H 0.94495 0.49579 0.42372 0.0
C609 C 0.97344 0.43535 0.36901 0.0
C610 C 0.06965 0.36547 0.78717 0.0
C611 C 0.09397 0.36354 0.75719 0.0
H612 H 0.03175 0.39536 0.81663 0.0
C613 C 0.09468 0.3905 0.73195 0.0
H614 H 0.06695 0.34494 0.80663 0.0
C615 C 0.07298 0.41884 0.7371 0.0
C616 C 0.05114 0.42132 0.76808 0.0
H617 H 0.11388 0.39051 0.709 0.0
H618 H 0.07534 0.43957 0.71782 0.0
C619 C 0.04912 0.39422 0.79282 0.0
C620 C 0.18988 0.73483 0.301 0.0
C621 C 0.2297 0.74447 0.28068 0.0
H622 H 0.14626 0.69417 0.32831 0.0
C623 C 0.25752 0.71979 0.27325 0.0
H624 H 0.16703 0.753 0.30663 0.0
C625 C 0.2455 0.68615 0.28573 0.0
C626 C 0.20525 0.67668 0.30553 0.0
H627 H 0.28873 0.72657 0.25799 0.0
H628 H 0.26693 0.66735 0.2795 0.0
C629 C 0.17785 0.70125 0.31334 0.0
C630 C 0.99261 0.00289 0.8225 0.0
C631 C 0.97703 0.96686 0.80815 0.0
H632 H 0.98971 0.05504 0.80779 0.0
C633 C 0.9471 0.95574 0.76701 0.0
H634 H 0.01571 0.01198 0.85416 0.0
C635 C 0.93374 0.98039 0.74051 0.0
C636 C 0.94884 0.0164 0.75487 0.0
H637 H 0.9352 0.92811 0.75531 0.0
H638 H 0.91151 0.9714 0.70876 0.0
C639 C 0.97797 0.02742 0.79611 0.0
C640 C 0.73559 0.2959 0.29119 0.0
C641 C 0.72065 0.30796 0.3226 0.0
H642 H 0.70591 0.27656 0.22869 0.0
C643 C 0.66196 0.30695 0.31544 0.0
H644 H 0.78059 0.2965 0.29601 0.0
C645 C 0.61973 0.29614 0.27699 0.0
C646 C 0.63524 0.28547 0.24529 0.0
H647 H 0.64945 0.31647 0.33902 0.0
H648 H 0.57537 0.29729 0.27164 0.0
C649 C 0.69302 0.2844 0.25287 0.0
C650 C 0.24134 0.22272 0.60339 0.0
C651 C 0.19464 0.2207 0.61713 0.0
H652 H 0.28368 0.19502 0.57583 0.0
C653 C 0.15703 0.1872 0.61657 0.0
H654 H 0.27153 0.24811 0.60389 0.0
C655 C 0.16402 0.15658 0.60047 0.0
C656 C 0.20928 0.15885 0.5851 0.0
H657 H 0.12078 0.1847 0.62696 0.0
H658 H 0.13337 0.1312 0.59938 0.0
C659 C 0.24863 0.19222 0.58764 0.0
C660 C 0.34478 0.84842 0.0743 0.0
C661 C 0.34334 0.83339 0.10959 0.0
H662 H 0.3917 0.86194 0.03386 0.0
C663 C 0.39205 0.82242 0.13244 0.0
H664 H 0.30926 0.85824 0.0564 0.0
C665 C 0.43998 0.82582 0.12009 0.0
C666 C 0.43966 0.83906 0.08388 0.0
H667 H 0.39286 0.81031 0.15944 0.0
H668 H 0.47692 0.81731 0.13842 0.0
C669 C 0.39218 0.8509 0.06143 0.0
C670 C 0.8406 0.25941 0.58549 0.0
C671 C 0.81502 0.25794 0.54359 0.0
H672 H 0.87428 0.23181 0.63509 0.0
C673 C 0.80471 0.22639 0.51947 0.0
H674 H 0.85044 0.2834 0.60505 0.0
C675 C 0.81969 0.19718 0.53681 0.0
C676 C 0.84431 0.19873 0.57858 0.0
H677 H 0.78448 0.22404 0.48719 0.0
H678 H 0.81174 0.17327 0.51766 0.0
C679 C 0.85477 0.23004 0.60277 0.0
C680 C 0.19758 0.28295 0.85742 0.0
C681 C 0.21513 0.28388 0.82382 0.0
H682 H 0.21853 0.27722 0.91942 0.0
C683 C 0.26645 0.27433 0.82737 0.0
H684 H 0.15743 0.28887 0.8559 0.0
C685 C 0.29996 0.26534 0.86356 0.0
C686 C 0.28477 0.26698 0.898 0.0
H687 H 0.28236 0.27482 0.80272 0.0
H688 H 0.33857 0.25782 0.86441 0.0
C689 C 0.2323 0.2753 0.89404 0.0
C690 C 0.29045 0.878 0.34747 0.0
C691 C 0.25853 0.87423 0.30613 0.0
H692 H 0.31089 0.90485 0.40539 0.0
C693 C 0.22577 0.89798 0.2913 0.0
H694 H 0.31677 0.86044 0.35981 0.0
C695 C 0.22318 0.92401 0.31748 0.0
C696 C 0.25317 0.92679 0.35906 0.0
H697 H 0.20035 0.89566 0.25967 0.0
H698 H 0.19712 0.94169 0.30512 0.0
C699 C 0.28757 0.90379 0.3736 0.0
C700 C 0.74766 0.82228 0.90462 0.0
C701 C 0.8086 0.83831 0.91904 0.0
H702 H 0.66705 0.81411 0.91596 0.0
C703 C 0.835 0.85946 0.95639 0.0
H704 H 0.72632 0.80581 0.87596 0.0
C705 C 0.8014 0.86376 0.97937 0.0
C706 C 0.74044 0.84789 0.96493 0.0
H707 H 0.88205 0.87165 0.96846 0.0
H708 H 0.82336 0.8786 0.00897 0.0
C709 C 0.71382 0.82723 0.92727 0.0
loop_
_geom_bond_atom_site_label_1
_geom_bond_atom_site_label_2
_geom_bond_distance
_geom_bond_site_symmetry_2
_ccdc_geom_bond_type
H0 C1 0.949 . S
C1 H0 0.949 . S
C1 C2 1.395 . S
C1 C3 1.391 . S
C2 C1 1.395 . S
C2 C5 1.390 . S
C3 C1 1.391 . S
C3 C7 1.387 . S
C3 C8 1.491 . S
H4 C5 0.950 . S
C5 C2 1.390 . S
C5 H4 0.950 . S
C5 C6 1.378 . S
C6 C5 1.378 . S
C6 C7 1.409 . S
C7 C3 1.387 . S
C7 C6 1.409 . S
C7 H9 0.951 . S
C8 C3 1.491 . S
C8 C10 1.382 . S
C8 C12 1.404 . S
H9 C7 0.951 . S
C10 C8 1.382 . S
C10 C11 1.390 . S
C10 H15 0.949 . S
C11 C10 1.390 . S
C11 C16 1.399 . S
C12 C8 1.404 . S
C12 H13 0.950 . S
C12 C14 1.375 . S
H13 C12 0.950 . S
C14 C12 1.375 . S
C14 C16 1.382 . S
C14 H18 0.950 . S
H15 C10 0.949 . S
C16 C11 1.399 . S
C16 C14 1.382 . S
C16 H17 0.952 . S
H17 C16 0.952 . S
H18 C14 0.950 . S
H19 C20 0.949 . S
C20 H19 0.949 . S
C20 C21 1.395 . S
C20 C22 1.391 . S
C21 C20 1.395 . S
C21 C24 1.390 . S
C22 C20 1.391 . S
C22 C26 1.387 . S
C22 C27 1.491 . S
H23 C24 0.950 . S
C24 C21 1.390 . S
C24 H23 0.950 . S
C24 C25 1.378 . S
C25 C24 1.378 . S
C25 C26 1.409 . S
C26 C22 1.387 . S
C26 C25 1.409 . S
C26 H28 0.951 . S
C27 C22 1.491 . S
C27 C29 1.382 . S
C27 C31 1.404 . S
H28 C26 0.951 . S
C29 C27 1.382 . S
C29 C30 1.390 . S
C29 H34 0.949 . S
C30 C29 1.390 . S
C30 C35 1.399 . S
C31 C27 1.404 . S
C31 H32 0.950 . S
C31 C33 1.375 . S
H32 C31 0.950 . S
C33 C31 1.375 . S
C33 C35 1.382 . S
C33 H37 0.950 . S
H34 C29 0.949 . S
C35 C30 1.399 . S
C35 C33 1.382 . S
C35 H36 0.952 . S
H36 C35 0.952 . S
H37 C33 0.950 . S
H38 C39 0.949 . S
C39 H38 0.949 . S
C39 C40 1.395 . S
C39 C41 1.391 . S
C40 C39 1.395 . S
C40 C43 1.390 . S
C41 C39 1.391 . S
C41 C45 1.387 . S
C41 C46 1.491 . S
H42 C43 0.950 . S
C43 C40 1.390 . S
C43 H42 0.950 . S
C43 C44 1.378 . S
C44 C43 1.378 . S
C44 C45 1.409 . S
C45 C41 1.387 . S
C45 C44 1.409 . S
C45 H47 0.951 . S
C46 C41 1.491 . S
C46 C48 1.382 . S
C46 C50 1.404 . S
H47 C45 0.951 . S
C48 C46 1.382 . S
C48 C49 1.390 . S
C48 H53 0.949 . S
C49 C48 1.390 . S
C49 C54 1.399 . S
C50 C46 1.404 . S
C50 H51 0.950 . S
C50 C52 1.375 . S
H51 C50 0.950 . S
C52 C50 1.375 . S
C52 C54 1.382 . S
C52 H56 0.950 . S
H53 C48 0.949 . S
C54 C49 1.399 . S
C54 C52 1.382 . S
C54 H55 0.952 . S
H55 C54 0.952 . S
H56 C52 0.950 . S
H57 C58 0.949 . S
C58 H57 0.949 . S
C58 C59 1.395 . S
C58 C60 1.391 . S
C59 C58 1.395 . S
C59 C62 1.390 . S
C60 C58 1.391 . S
C60 C64 1.387 . S
C60 C65 1.491 . S
H61 C62 0.950 . S
C62 C59 1.390 . S
C62 H61 0.950 . S
C62 C63 1.378 . S
C63 C62 1.378 . S
C63 C64 1.409 . S
C64 C60 1.387 . S
C64 C63 1.409 . S
C64 H66 0.951 . S
C65 C60 1.491 . S
C65 C67 1.382 . S
C65 C69 1.404 1_556 S
H66 C64 0.951 . S
C67 C65 1.382 . S
C67 C68 1.390 1_556 S
C67 H72 0.949 . S
C68 C67 1.390 1_554 S
C68 C73 1.399 . S
C69 C65 1.404 1_554 S
C69 H70 0.944 1_554 S
C69 C71 1.375 . S
H70 C69 0.944 1_556 S
C71 C69 1.375 . S
C71 C73 1.382 . S
C71 H75 0.950 . S
H72 C67 0.949 . S
C73 C68 1.399 . S
C73 C71 1.382 . S
C73 H74 0.952 . S
H74 C73 0.952 . S
H75 C71 0.950 . S
H76 C77 0.949 1_455 S
C77 H76 0.949 1_655 S
C77 C78 1.395 . S
C77 C79 1.391 . S
C78 C77 1.395 . S
C78 C81 1.390 . S
C79 C77 1.391 . S
C79 C83 1.387 . S
C79 C84 1.491 . S
H80 C81 0.950 . S
C81 C78 1.390 . S
C81 H80 0.950 . S
C81 C82 1.378 . S
C82 C81 1.378 . S
C82 C83 1.409 . S
C83 C79 1.387 . S
C83 C82 1.409 . S
C83 H85 0.951 . S
C84 C79 1.491 . S
C84 C86 1.382 . S
C84 C88 1.404 . S
H85 C83 0.951 . S
C86 C84 1.382 . S
C86 C87 1.390 1_655 S
C86 H91 0.949 . S
C87 C86 1.390 1_455 S
C87 C92 1.399 . S
C88 C84 1.404 . S
C88 H89 0.950 . S
C88 C90 1.375 1_655 S
H89 C88 0.950 . S
C90 C88 1.375 1_455 S
C90 C92 1.382 . S
C90 H94 0.950 . S
H91 C86 0.949 . S
C92 C87 1.399 . S
C92 C90 1.382 . S
C92 H93 0.952 1_565 S
H93 C92 0.952 1_545 S
H94 C90 0.950 . S
H95 C96 0.949 . S
C96 H95 0.949 . S
C96 C97 1.395 . S
C96 C98 1.391 . S
C97 C96 1.395 . S
C97 C100 1.390 . S
C98 C96 1.391 . S
C98 C102 1.387 . S
C98 C103 1.491 . S
H99 C100 0.950 . S
C100 C97 1.390 . S
C100 H99 0.950 . S
C100 C101 1.378 . S
C101 C100 1.378 . S
C101 C102 1.409 . S
C102 C98 1.387 . S
C102 C101 1.409 . S
C102 H104 0.951 . S
C103 C98 1.491 . S
C103 C105 1.382 . S
C103 C107 1.404 . S
H104 C102 0.951 . S
C105 C103 1.382 . S
C105 C106 1.390 . S
C105 H110 0.949 . S
C106 C105 1.390 . S
C106 C111 1.399 . S
C107 C103 1.404 . S
C107 H108 0.950 . S
C107 C109 1.375 . S
H108 C107 0.950 . S
C109 C107 1.375 . S
C109 C111 1.382 . S
C109 H113 0.950 . S
H110 C105 0.949 . S
C111 C106 1.399 . S
C111 C109 1.382 . S
C111 H112 0.952 . S
H112 C111 0.952 . S
H113 C109 0.950 . S
H114 C115 0.949 . S
C115 H114 0.949 . S
C115 C116 1.395 . S
C115 C117 1.391 . S
C116 C115 1.395 . S
C116 C119 1.390 . S
C117 C115 1.391 . S
C117 C121 1.387 . S
C117 C122 1.491 . S
H118 C119 0.950 . S
C119 C116 1.390 . S
C119 H118 0.950 . S
C119 C120 1.378 . S
C120 C119 1.378 . S
C120 C121 1.409 . S
C121 C117 1.387 . S
C121 C120 1.409 . S
C121 H123 0.951 . S
C122 C117 1.491 . S
C122 C124 1.382 . S
C122 C126 1.404 . S
H123 C121 0.951 . S
C124 C122 1.382 . S
C124 C125 1.390 . S
C124 H129 0.949 . S
C125 C124 1.390 . S
C125 C130 1.399 . S
C126 C122 1.404 . S
C126 H127 0.950 . S
C126 C128 1.375 . S
H127 C126 0.950 . S
C128 C126 1.375 . S
C128 C130 1.382 . S
C128 H132 0.950 . S
H129 C124 0.949 . S
C130 C125 1.399 . S
C130 C128 1.382 . S
C130 H131 0.952 . S
H131 C130 0.952 . S
H132 C128 0.950 . S
H133 C134 0.949 . S
C134 H133 0.949 . S
C134 C135 1.395 . S
C134 C136 1.391 . S
C135 C134 1.395 . S
C135 C138 1.390 . S
C136 C134 1.391 . S
C136 C140 1.387 . S
C136 C141 1.491 . S
H137 C138 0.950 . S
C138 C135 1.390 . S
C138 H137 0.950 . S
C138 C139 1.378 . S
C139 C138 1.378 . S
C139 C140 1.409 . S
C140 C136 1.387 . S
C140 C139 1.409 . S
C140 H142 0.951 . S
C141 C136 1.491 . S
C141 C143 1.382 . S
C141 C145 1.404 . S
H142 C140 0.951 . S
C143 C141 1.382 . S
C143 C144 1.390 . S
C143 H148 0.949 . S
C144 C143 1.390 . S
C144 C149 1.399 . S
C145 C141 1.404 . S
C145 H146 0.950 . S
C145 C147 1.375 . S
H146 C145 0.950 . S
C147 C145 1.375 . S
C147 C149 1.382 . S
C147 H151 0.950 . S
H148 C143 0.949 . S
C149 C144 1.399 . S
C149 C147 1.382 . S
C149 H150 0.952 . S
H150 C149 0.952 . S
H151 C147 0.950 . S
C152 C153 1.443 . S
C152 N156 1.376 . S
C152 C190 1.389 . S
C153 C152 1.443 . S
C153 C154 1.340 . S
C153 H193 0.951 . S
C154 C153 1.340 . S
C154 C155 1.439 . S
C154 H194 0.950 . S
C155 C154 1.439 . S
C155 N156 1.374 . S
C155 C189 1.395 . S
N156 C152 1.376 . S
N156 C155 1.374 . S
N156 Co157 2.020 . S
Co157 N156 2.020 . S
Co157 N158 1.994 . S
Co157 N163 1.996 1_455 S
Co157 N168 1.996 1_455 S
Co157 N173 2.293 . S
Co157 N179 2.272 1_455 S
N158 Co157 1.994 . S
N158 C159 1.376 . S
N158 C162 1.383 1_455 S
C159 N158 1.376 . S
C159 C160 1.446 . S
C159 C189 1.391 . S
C160 C159 1.446 . S
C160 C161 1.339 . S
C160 H195 0.949 . S
C161 C160 1.339 . S
C161 C162 1.439 1_455 S
C161 H196 0.950 1_455 S
C162 N158 1.383 1_655 S
C162 C161 1.439 1_655 S
C162 C191 1.392 . S
N163 Co157 1.996 1_655 S
N163 C164 1.376 . S
N163 C167 1.374 . S
C164 N163 1.376 . S
C164 C165 1.443 . S
C164 C191 1.389 . S
C165 C164 1.443 . S
C165 C166 1.340 . S
C165 H197 0.951 . S
C166 C165 1.340 . S
C166 C167 1.439 . S
C166 H198 0.950 . S
C167 N163 1.374 . S
C167 C166 1.439 . S
C167 C192 1.395 . S
N168 Co157 1.996 1_655 S
N168 C169 1.376 . S
N168 C172 1.383 1_655 S
C169 N168 1.376 . S
C169 C170 1.446 . S
C169 C192 1.391 . S
C170 C169 1.446 . S
C170 C171 1.339 . S
C170 H199 0.949 . S
C171 C170 1.339 . S
C171 C172 1.439 1_655 S
C171 H200 0.950 1_655 S
C172 N168 1.383 1_455 S
C172 C171 1.439 1_455 S
C172 C190 1.392 . S
N173 Co157 2.293 . S
N173 C176 1.332 . S
N173 C178 1.332 . S
C174 C175 1.386 . S
C174 C177 1.388 . S
C175 C174 1.386 . S
C175 C176 1.382 . S
C175 H201 0.950 1_455 S
C176 N173 1.332 . S
C176 C175 1.382 . S
C176 H187 0.952 1_455 S
C177 C174 1.388 . S
C177 C178 1.382 . S
C177 H202 0.950 . S
C178 N173 1.332 . S
C178 C177 1.382 . S
C178 H188 0.948 . S
N179 Co157 2.272 1_655 S
N179 C183 1.332 . S
N179 C184 1.332 . S
C180 C181 1.388 . S
C180 C184 1.382 . S
C180 H203 0.950 . S
C181 C180 1.388 . S
C181 C182 1.386 . S
C182 C181 1.386 . S
C182 C183 1.383 . S
C182 H204 0.950 1_655 S
C183 N179 1.332 . S
C183 C182 1.383 . S
C183 H185 0.950 1_655 S
C184 N179 1.332 . S
C184 C180 1.382 . S
C184 H186 0.948 . S
H185 C183 0.950 1_455 S
H186 C184 0.948 . S
H187 C176 0.952 1_655 S
H188 C178 0.948 . S
C189 C155 1.395 . S
C189 C159 1.391 . S
C190 C152 1.389 . S
C190 C172 1.392 . S
C191 C162 1.392 . S
C191 C164 1.389 . S
C192 C167 1.395 . S
C192 C169 1.391 . S
H193 C153 0.951 . S
H194 C154 0.950 . S
H195 C160 0.949 . S
H196 C161 0.950 1_655 S
H197 C165 0.951 . S
H198 C166 0.950 . S
H199 C170 0.949 . S
H200 C171 0.950 1_455 S
H201 C175 0.950 1_655 S
H202 C177 0.950 . S
H203 C180 0.950 . S
H204 C182 0.950 1_455 S
C205 C206 1.443 . S
C205 N209 1.376 . S
C205 C243 1.389 . S
C206 C205 1.443 . S
C206 C207 1.340 . S
C206 H246 0.951 . S
C207 C206 1.340 . S
C207 C208 1.439 . S
C207 H247 0.950 . S
C208 C207 1.439 . S
C208 N209 1.374 . S
C208 C242 1.395 . S
N209 C205 1.376 . S
N209 C208 1.374 . S
N209 Co210 2.008 . S
Co210 N209 2.008 . S
Co210 N211 1.995 . S
Co210 N216 2.008 1_455 S
Co210 N221 1.995 . S
Co210 N226 2.282 . S
Co210 N232 2.282 1_455 S
N211 Co210 1.995 . S
N211 C212 1.376 . S
N211 C215 1.396 . S
C212 N211 1.376 . S
C212 C213 1.446 . S
C212 C242 1.391 . S
C213 C212 1.446 . S
C213 C214 1.339 . S
C213 H248 0.949 . S
C214 C213 1.339 . S
C214 C215 1.442 . S
C214 H249 0.950 . S
C215 N211 1.396 . S
C215 C214 1.442 . S
C215 C244 1.379 1_455 S
N216 Co210 2.008 1_655 S
N216 C217 1.376 . S
N216 C220 1.374 . S
C217 N216 1.376 . S
C217 C218 1.443 . S
C217 C244 1.389 . S
C218 C217 1.443 . S
C218 C219 1.340 . S
C218 H250 0.951 . S
C219 C218 1.340 . S
C219 C220 1.439 . S
C219 H251 0.950 . S
C220 N216 1.374 . S
C220 C219 1.439 . S
C220 C245 1.395 . S
N221 Co210 1.995 . S
N221 C222 1.376 1_455 S
N221 C225 1.383 . S
C222 N221 1.376 1_655 S
C222 C223 1.446 . S
C222 C245 1.391 . S
C223 C222 1.446 . S
C223 C224 1.339 1_655 S
C223 H252 0.949 . S
C224 C223 1.339 1_455 S
C224 C225 1.439 . S
C224 H253 0.950 . S
C225 N221 1.383 . S
C225 C224 1.439 . S
C225 C243 1.392 . S
N226 Co210 2.282 . S
N226 C229 1.332 . S
N226 C231 1.332 . S
C227 C228 1.386 . S
C227 C230 1.388 . S
C228 C227 1.386 . S
C228 C229 1.382 . S
C228 H254 0.950 . S
C229 N226 1.332 . S
C229 C228 1.382 . S
C229 H240 0.952 1_455 S
C230 C227 1.388 . S
C230 C231 1.382 . S
C230 H255 0.950 . S
C231 N226 1.332 . S
C231 C230 1.382 . S
C231 H241 0.948 . S
N232 Co210 2.282 1_655 S
N232 C236 1.332 1_655 S
N232 C237 1.332 . S
C233 C234 1.388 . S
C233 C237 1.382 . S
C233 H256 0.950 . S
C234 C233 1.388 . S
C234 C235 1.386 1_655 S
C235 C234 1.386 1_455 S
C235 C236 1.382 . S
C235 H257 0.950 . S
C236 N232 1.332 1_455 S
C236 C235 1.382 . S
C236 H238 0.952 . S
C237 N232 1.332 . S
C237 C233 1.382 . S
C237 H239 0.948 . S
H238 C236 0.952 . S
H239 C237 0.948 . S
H240 C229 0.952 1_655 S
H241 C231 0.948 . S
C242 C208 1.395 . S
C242 C212 1.391 . S
C243 C205 1.389 . S
C243 C225 1.392 . S
C244 C215 1.379 1_655 S
C244 C217 1.389 . S
C245 C220 1.395 . S
C245 C222 1.391 . S
H246 C206 0.951 . S
H247 C207 0.950 . S
H248 C213 0.949 . S
H249 C214 0.950 . S
H250 C218 0.951 . S
H251 C219 0.950 . S
H252 C223 0.949 . S
H253 C224 0.950 . S
H254 C228 0.950 . S
H255 C230 0.950 . S
H256 C233 0.950 . S
H257 C235 0.950 . S
C258 C259 1.443 . S
C258 N262 1.376 1_565 S
C258 C296 1.389 . S
C259 C258 1.443 . S
C259 C260 1.340 1_565 S
C259 H299 0.951 . S
C260 C259 1.340 1_545 S
C260 C261 1.439 . S
C260 H300 0.950 . S
C261 C260 1.439 . S
C261 N262 1.374 . S
C261 C295 1.395 . S
N262 C258 1.376 1_545 S
N262 C261 1.374 . S
N262 Co263 2.008 . S
Co263 N262 2.008 . S
Co263 N264 1.995 . S
Co263 N269 2.008 . S
Co263 N274 1.995 1_545 S
Co263 N279 2.282 . S
Co263 N285 2.282 1_545 S
N264 Co263 1.995 . S
N264 C265 1.376 . S
N264 C268 1.383 . S
C265 N264 1.376 . S
C265 C266 1.446 . S
C265 C295 1.391 . S
C266 C265 1.446 . S
C266 C267 1.339 . S
C266 H301 0.949 . S
C267 C266 1.339 . S
C267 C268 1.439 . S
C267 H302 0.950 . S
C268 N264 1.383 . S
C268 C267 1.439 . S
C268 C297 1.392 . S
N269 Co263 2.008 . S
N269 C270 1.376 . S
N269 C273 1.374 . S
C270 N269 1.376 . S
C270 C271 1.443 . S
C270 C297 1.389 . S
C271 C270 1.443 . S
C271 C272 1.340 . S
C271 H303 0.951 . S
C272 C271 1.340 . S
C272 C273 1.439 . S
C272 H304 0.950 . S
C273 N269 1.374 . S
C273 C272 1.439 . S
C273 C298 1.395 1_545 S
N274 Co263 1.995 1_565 S
N274 C275 1.376 . S
N274 C278 1.383 . S
C275 N274 1.376 . S
C275 C276 1.446 . S
C275 C298 1.391 . S
C276 C275 1.446 . S
C276 C277 1.339 . S
C276 H305 0.949 . S
C277 C276 1.339 . S
C277 C278 1.439 . S
C277 H306 0.950 . S
C278 N274 1.383 . S
C278 C277 1.439 . S
C278 C296 1.392 . S
N279 Co263 2.282 . S
N279 C282 1.332 . S
N279 C284 1.332 . S
C280 C281 1.386 . S
C280 C283 1.388 . S
C281 C280 1.386 . S
C281 C282 1.382 . S
C281 H307 0.950 . S
C282 N279 1.332 . S
C282 C281 1.382 . S
C282 H293 0.952 . S
C283 C280 1.388 . S
C283 C284 1.382 . S
C283 H308 0.950 . S
C284 N279 1.332 . S
C284 C283 1.382 . S
C284 H294 0.948 . S
N285 Co263 2.282 1_565 S
N285 C289 1.332 . S
N285 C290 1.332 . S
C286 C287 1.388 . S
C286 C290 1.382 . S
C286 H309 0.950 . S
C287 C286 1.388 . S
C287 C288 1.386 . S
C288 C287 1.386 . S
C288 C289 1.382 . S
C288 H310 0.950 . S
C289 N285 1.332 . S
C289 C288 1.382 . S
C289 H291 0.952 1_565 S
C290 N285 1.332 . S
C290 C286 1.382 . S
C290 H292 0.948 . S
H291 C289 0.952 1_545 S
H292 C290 0.948 . S
H293 C282 0.952 . S
H294 C284 0.948 . S
C295 C261 1.395 . S
C295 C265 1.391 . S
C296 C258 1.389 . S
C296 C278 1.392 . S
C297 C268 1.392 . S
C297 C270 1.389 . S
C298 C273 1.395 1_565 S
C298 C275 1.391 . S
H299 C259 0.951 . S
H300 C260 0.950 . S
H301 C266 0.949 . S
H302 C267 0.950 . S
H303 C271 0.951 . S
H304 C272 0.950 . S
H305 C276 0.949 . S
H306 C277 0.950 . S
H307 C281 0.950 . S
H308 C283 0.950 . S
H309 C286 0.950 . S
H310 C288 0.950 . S
C311 C312 1.443 . S
C311 N315 1.376 . S
C311 C349 1.389 . S
C312 C311 1.443 . S
C312 C313 1.340 . S
C312 H352 0.951 . S
C313 C312 1.340 . S
C313 C314 1.439 . S
C313 H353 0.950 . S
C314 C313 1.439 . S
C314 N315 1.374 . S
C314 C348 1.395 . S
N315 C311 1.376 . S
N315 C314 1.374 . S
N315 Co316 2.008 . S
Co316 N315 2.008 . S
Co316 N317 1.995 . S
Co316 N322 2.008 1_554 S
Co316 N327 1.995 . S
Co316 N332 2.282 1_554 S
Co316 N338 2.282 . S
N317 Co316 1.995 . S
N317 C318 1.376 . S
N317 C321 1.383 1_554 S
C318 N317 1.376 . S
C318 C319 1.446 1_554 S
C318 C348 1.391 . S
C319 C318 1.446 1_556 S
C319 C320 1.339 . S
C319 H354 0.949 . S
C320 C319 1.339 . S
C320 C321 1.439 . S
C320 H355 0.950 . S
C321 N317 1.383 1_556 S
C321 C320 1.439 . S
C321 C350 1.392 . S
N322 Co316 2.008 1_556 S
N322 C323 1.376 . S
N322 C326 1.374 . S
C323 N322 1.376 . S
C323 C324 1.443 . S
C323 C350 1.389 . S
C324 C323 1.443 . S
C324 C325 1.340 . S
C324 H356 0.951 . S
C325 C324 1.340 . S
C325 C326 1.439 . S
C325 H357 0.950 . S
C326 N322 1.374 . S
C326 C325 1.439 . S
C326 C351 1.395 1_556 S
N327 Co316 1.995 . S
N327 C328 1.376 . S
N327 C331 1.383 . S
C328 N327 1.376 . S
C328 C329 1.446 . S
C328 C351 1.391 . S
C329 C328 1.446 . S
C329 C330 1.339 . S
C329 H358 0.949 . S
C330 C329 1.339 . S
C330 C331 1.439 . S
C330 H359 0.950 . S
C331 N327 1.383 . S
C331 C330 1.439 . S
C331 C349 1.392 . S
N332 Co316 2.282 1_556 S
N332 C335 1.332 . S
N332 C337 1.332 . S
C333 C334 1.386 . S
C333 C336 1.388 . S
C334 C333 1.386 . S
C334 C335 1.382 . S
C334 H360 0.950 . S
C335 N332 1.332 . S
C335 C334 1.382 . S
C335 H346 0.952 . S
C336 C333 1.388 . S
C336 C337 1.382 . S
C336 H361 0.950 . S
C337 N332 1.332 . S
C337 C336 1.382 . S
C337 H347 0.948 . S
N338 Co316 2.282 . S
N338 C342 1.332 . S
N338 C343 1.332 . S
C339 C340 1.388 . S
C339 C343 1.382 . S
C339 H362 0.950 . S
C340 C339 1.388 . S
C340 C341 1.386 . S
C341 C340 1.386 . S
C341 C342 1.382 . S
C341 H363 0.950 . S
C342 N338 1.332 . S
C342 C341 1.382 . S
C342 H344 0.952 . S
C343 N338 1.332 . S
C343 C339 1.382 . S
C343 H345 0.948 . S
H344 C342 0.952 . S
H345 C343 0.948 . S
H346 C335 0.952 . S
H347 C337 0.948 . S
C348 C314 1.395 . S
C348 C318 1.391 . S
C349 C311 1.389 . S
C349 C331 1.392 . S
C350 C321 1.392 . S
C350 C323 1.389 . S
C351 C326 1.395 1_554 S
C351 C328 1.391 . S
H352 C312 0.951 . S
H353 C313 0.950 . S
H354 C319 0.949 . S
H355 C320 0.950 . S
H356 C324 0.951 . S
H357 C325 0.950 . S
H358 C329 0.949 . S
H359 C330 0.950 . S
H360 C334 0.950 . S
H361 C336 0.950 . S
H362 C339 0.950 . S
H363 C341 0.950 . S
C364 C365 1.443 . S
C364 N368 1.376 . S
C364 C402 1.389 . S
C365 C364 1.443 . S
C365 C366 1.340 . S
C365 H405 0.951 . S
C366 C365 1.340 . S
C366 C367 1.439 . S
C366 H406 0.950 . S
C367 C366 1.439 . S
C367 N368 1.374 . S
C367 C401 1.395 . S
N368 C364 1.376 . S
N368 C367 1.374 . S
N368 Co369 2.008 1_455 S
Co369 N368 2.008 1_655 S
Co369 N370 1.995 1_655 S
Co369 N375 2.008 . S
Co369 N380 1.995 . S
Co369 N385 2.282 . S
Co369 N391 2.282 1_655 S
N370 Co369 1.995 1_455 S
N370 C371 1.376 . S
N370 C374 1.383 . S
C371 N370 1.376 . S
C371 C372 1.446 . S
C371 C401 1.391 . S
C372 C371 1.446 . S
C372 C373 1.339 . S
C372 H407 0.949 . S
C373 C372 1.339 . S
C373 C374 1.439 . S
C373 H408 0.950 . S
C374 N370 1.383 . S
C374 C373 1.439 . S
C374 C403 1.392 1_455 S
N375 Co369 2.008 . S
N375 C376 1.376 . S
N375 C379 1.374 . S
C376 N375 1.376 . S
C376 C377 1.443 . S
C376 C403 1.389 . S
C377 C376 1.443 . S
C377 C378 1.340 . S
C377 H409 0.951 . S
C378 C377 1.340 . S
C378 C379 1.439 . S
C378 H410 0.950 . S
C379 N375 1.374 . S
C379 C378 1.439 . S
C379 C404 1.395 . S
N380 Co369 1.995 . S
N380 C381 1.376 . S
N380 C384 1.383 . S
C381 N380 1.376 . S
C381 C382 1.446 . S
C381 C404 1.391 . S
C382 C381 1.446 . S
C382 C383 1.339 . S
C382 H411 0.949 . S
C383 C382 1.339 . S
C383 C384 1.439 . S
C383 H412 0.950 . S
C384 N380 1.383 . S
C384 C383 1.439 . S
C384 C402 1.392 1_655 S
N385 Co369 2.282 . S
N385 C388 1.332 . S
N385 C390 1.332 1_655 S
C386 C387 1.386 . S
C386 C389 1.388 1_655 S
C387 C386 1.386 . S
C387 C388 1.382 . S
C387 H413 0.950 . S
C388 N385 1.332 . S
C388 C387 1.382 . S
C388 H399 0.952 . S
C389 C386 1.388 1_455 S
C389 C390 1.382 . S
C389 H414 0.950 . S
C390 N385 1.332 1_455 S
C390 C389 1.382 . S
C390 H400 0.948 . S
N391 Co369 2.282 1_455 S
N391 C395 1.332 . S
N391 C396 1.332 1_455 S
C392 C393 1.388 1_655 S
C392 C396 1.382 . S
C392 H415 0.950 . S
C393 C392 1.388 1_455 S
C393 C394 1.386 . S
C394 C393 1.386 . S
C394 C395 1.382 . S
C394 H416 0.950 . S
C395 N391 1.332 . S
C395 C394 1.382 . S
C395 H397 0.952 . S
C396 N391 1.332 1_655 S
C396 C392 1.382 . S
C396 H398 0.948 . S
H397 C395 0.952 . S
H398 C396 0.948 . S
H399 C388 0.952 . S
H400 C390 0.948 . S
C401 C367 1.395 . S
C401 C371 1.391 . S
C402 C364 1.389 . S
C402 C384 1.392 1_455 S
C403 C374 1.392 1_655 S
C403 C376 1.389 . S
C404 C379 1.395 . S
C404 C381 1.391 . S
H405 C365 0.951 . S
H406 C366 0.950 . S
H407 C372 0.949 . S
H408 C373 0.950 . S
H409 C377 0.951 . S
H410 C378 0.950 . S
H411 C382 0.949 . S
H412 C383 0.950 . S
H413 C387 0.950 . S
H414 C389 0.950 . S
H415 C392 0.950 . S
H416 C394 0.950 . S
C417 C418 1.443 . S
C417 N421 1.376 . S
C417 C455 1.389 . S
C418 C417 1.443 . S
C418 C419 1.340 . S
C418 H458 0.951 . S
C419 C418 1.340 . S
C419 C420 1.439 . S
C419 H459 0.950 . S
C420 C419 1.439 . S
C420 N421 1.374 . S
C420 C454 1.395 . S
N421 C417 1.376 . S
N421 C420 1.374 . S
N421 Co422 2.008 . S
Co422 N421 2.008 . S
Co422 N423 1.995 . S
Co422 N428 2.008 . S
Co422 N433 1.995 . S
Co422 N438 2.282 . S
Co422 N444 2.282 . S
N423 Co422 1.995 . S
N423 C424 1.376 . S
N423 C427 1.383 . S
C424 N423 1.376 . S
C424 C425 1.446 . S
C424 C454 1.391 . S
C425 C424 1.446 . S
C425 C426 1.339 . S
C425 H460 0.949 . S
C426 C425 1.339 . S
C426 C427 1.439 . S
C426 H461 0.950 . S
C427 N423 1.383 . S
C427 C426 1.439 . S
C427 C456 1.392 . S
N428 Co422 2.008 . S
N428 C429 1.376 . S
N428 C432 1.374 . S
C429 N428 1.376 . S
C429 C430 1.443 . S
C429 C456 1.389 . S
C430 C429 1.443 . S
C430 C431 1.340 . S
C430 H462 0.951 . S
C431 C430 1.340 . S
C431 C432 1.439 . S
C431 H463 0.950 . S
C432 N428 1.374 . S
C432 C431 1.439 . S
C432 C457 1.395 . S
N433 Co422 1.995 . S
N433 C434 1.376 . S
N433 C437 1.383 . S
C434 N433 1.376 . S
C434 C435 1.446 . S
C434 C457 1.391 . S
C435 C434 1.446 . S
C435 C436 1.339 . S
C435 H464 0.949 . S
C436 C435 1.339 . S
C436 C437 1.439 . S
C436 H465 0.950 . S
C437 N433 1.383 . S
C437 C436 1.439 . S
C437 C455 1.392 . S
N438 Co422 2.282 . S
N438 C441 1.332 . S
N438 C443 1.332 . S
C439 C440 1.386 . S
C439 C442 1.388 . S
C440 C439 1.386 . S
C440 C441 1.382 1_556 S
C440 H466 0.950 . S
C441 N438 1.332 . S
C441 C440 1.382 1_554 S
C441 H452 0.952 . S
C442 C439 1.388 . S
C442 C443 1.382 1_556 S
C442 H467 0.950 . S
C443 N438 1.332 . S
C443 C442 1.382 1_554 S
C443 H453 0.948 . S
N444 Co422 2.282 . S
N444 C448 1.332 . S
N444 C449 1.332 . S
C445 C446 1.388 . S
C445 C449 1.382 . S
C445 H468 0.950 . S
C446 C445 1.388 . S
C446 C447 1.386 . S
C447 C446 1.386 . S
C447 C448 1.382 . S
C447 H469 0.950 . S
C448 N444 1.332 . S
C448 C447 1.382 . S
C448 H450 0.952 . S
C449 N444 1.332 . S
C449 C445 1.382 . S
C449 H451 0.948 . S
H450 C448 0.952 . S
H451 C449 0.948 . S
H452 C441 0.952 . S
H453 C443 0.948 . S
C454 C420 1.395 . S
C454 C424 1.391 . S
C455 C417 1.389 . S
C455 C437 1.392 . S
C456 C427 1.392 . S
C456 C429 1.389 . S
C457 C432 1.395 . S
C457 C434 1.391 . S
H458 C418 0.951 . S
H459 C419 0.950 . S
H460 C425 0.949 . S
H461 C426 0.950 . S
H462 C430 0.951 . S
H463 C431 0.950 . S
H464 C435 0.949 . S
H465 C436 0.950 . S
H466 C440 0.950 . S
H467 C442 0.950 . S
H468 C445 0.950 . S
H469 C447 0.950 . S
C470 C471 1.387 . S
C470 H474 0.950 . S
C470 C479 1.390 . S
C471 C470 1.387 . S
C471 C473 1.387 . S
H472 C479 0.950 . S
C473 C471 1.387 . S
C473 C475 1.390 . S
C473 H477 0.950 . S
H474 C470 0.950 . S
C475 C473 1.390 . S
C475 C476 1.387 . S
C475 H478 0.950 . S
C476 C475 1.387 . S
C476 C479 1.387 . S
H477 C473 0.950 . S
H478 C475 0.950 . S
C479 C470 1.390 . S
C479 H472 0.950 . S
C479 C476 1.387 . S
C480 C481 1.387 . S
C480 H484 0.950 . S
C480 C489 1.390 . S
C481 C480 1.387 . S
C481 C483 1.387 . S
H482 C489 0.950 . S
C483 C481 1.387 . S
C483 C485 1.390 . S
C483 H487 0.950 . S
H484 C480 0.950 . S
C485 C483 1.390 . S
C485 C486 1.387 . S
C485 H488 0.950 . S
C486 C485 1.387 . S
C486 C489 1.387 . S
H487 C483 0.950 . S
H488 C485 0.950 . S
C489 C480 1.390 . S
C489 H482 0.950 . S
C489 C486 1.387 . S
C490 C491 1.387 . S
C490 H494 0.950 . S
C490 C499 1.390 . S
C491 C490 1.387 . S
C491 C493 1.387 . S
H492 C499 0.950 . S
C493 C491 1.387 . S
C493 C495 1.390 . S
C493 H497 0.950 . S
H494 C490 0.950 . S
C495 C493 1.390 . S
C495 C496 1.387 . S
C495 H498 0.950 . S
C496 C495 1.387 . S
C496 C499 1.387 . S
H497 C493 0.950 . S
H498 C495 0.950 . S
C499 C490 1.390 . S
C499 H492 0.950 . S
C499 C496 1.387 . S
C500 C501 1.387 . S
C500 H504 0.950 . S
C500 C509 1.390 . S
C501 C500 1.387 . S
C501 C503 1.387 . S
H502 C509 0.950 . S
C503 C501 1.387 . S
C503 C505 1.390 . S
C503 H507 0.950 . S
H504 C500 0.950 . S
C505 C503 1.390 . S
C505 C506 1.387 . S
C505 H508 0.950 . S
C506 C505 1.387 . S
C506 C509 1.387 . S
H507 C503 0.950 . S
H508 C505 0.950 . S
C509 C500 1.390 . S
C509 H502 0.950 . S
C509 C506 1.387 . S
C510 C511 1.387 . S
C510 H514 0.950 . S
C510 C519 1.390 . S
C511 C510 1.387 . S
C511 C513 1.387 . S
H512 C519 0.950 . S
C513 C511 1.387 . S
C513 C515 1.390 . S
C513 H517 0.950 . S
H514 C510 0.950 . S
C515 C513 1.390 . S
C515 C516 1.387 . S
C515 H518 0.950 . S
C516 C515 1.387 . S
C516 C519 1.387 . S
H517 C513 0.950 . S
H518 C515 0.950 . S
C519 C510 1.390 . S
C519 H512 0.950 . S
C519 C516 1.387 . S
C520 C521 1.387 . S
C520 H524 0.950 . S
C520 C529 1.390 . S
C521 C520 1.387 . S
C521 C523 1.387 . S
H522 C529 0.950 . S
C523 C521 1.387 . S
C523 C525 1.390 . S
C523 H527 0.950 . S
H524 C520 0.950 . S
C525 C523 1.390 . S
C525 C526 1.387 . S
C525 H528 0.950 . S
C526 C525 1.387 . S
C526 C529 1.387 . S
H527 C523 0.950 . S
H528 C525 0.950 . S
C529 C520 1.390 . S
C529 H522 0.950 . S
C529 C526 1.387 . S
C530 C531 1.387 1_455 S
C530 H534 0.950 . S
C530 C539 1.390 1_565 S
C531 C530 1.387 1_655 S
C531 C533 1.387 1_565 S
H532 C539 0.950 . S
C533 C531 1.387 1_545 S
C533 C535 1.390 . S
C533 H537 0.950 . S
H534 C530 0.950 . S
C535 C533 1.390 . S
C535 C536 1.387 1_655 S
C535 H538 0.950 . S
C536 C535 1.387 1_455 S
C536 C539 1.387 . S
H537 C533 0.950 . S
H538 C535 0.950 . S
C539 C530 1.390 1_545 S
C539 H532 0.950 . S
C539 C536 1.387 . S
C540 C541 1.387 . S
C540 H544 0.950 . S
C540 C549 1.390 . S
C541 C540 1.387 . S
C541 C543 1.387 . S
H542 C549 0.950 . S
C543 C541 1.387 . S
C543 C545 1.390 . S
C543 H547 0.950 . S
H544 C540 0.950 . S
C545 C543 1.390 . S
C545 C546 1.387 . S
C545 H548 0.950 . S
C546 C545 1.387 . S
C546 C549 1.387 . S
H547 C543 0.950 . S
H548 C545 0.950 . S
C549 C540 1.390 . S
C549 H542 0.950 . S
C549 C546 1.387 . S
C550 C551 1.387 . S
C550 H554 0.950 . S
C550 C559 1.390 . S
C551 C550 1.387 . S
C551 C553 1.387 . S
H552 C559 0.950 . S
C553 C551 1.387 . S
C553 C555 1.390 . S
C553 H557 0.950 . S
H554 C550 0.950 . S
C555 C553 1.390 . S
C555 C556 1.387 . S
C555 H558 0.950 . S
C556 C555 1.387 . S
C556 C559 1.387 . S
H557 C553 0.950 . S
H558 C555 0.950 . S
C559 C550 1.390 . S
C559 H552 0.950 . S
C559 C556 1.387 . S
C560 C561 1.387 . S
C560 H564 0.950 . S
C560 C569 1.390 . S
C561 C560 1.387 . S
C561 C563 1.387 . S
H562 C569 0.950 . S
C563 C561 1.387 . S
C563 C565 1.390 . S
C563 H567 0.950 . S
H564 C560 0.950 . S
C565 C563 1.390 . S
C565 C566 1.387 . S
C565 H568 0.950 . S
C566 C565 1.387 . S
C566 C569 1.387 . S
H567 C563 0.950 . S
H568 C565 0.950 . S
C569 C560 1.390 . S
C569 H562 0.950 . S
C569 C566 1.387 . S
C570 C571 1.387 . S
C570 H574 0.950 . S
C570 C579 1.390 . S
C571 C570 1.387 . S
C571 C573 1.387 . S
H572 C579 0.950 . S
C573 C571 1.387 . S
C573 C575 1.390 . S
C573 H577 0.950 . S
H574 C570 0.950 . S
C575 C573 1.390 . S
C575 C576 1.387 . S
C575 H578 0.950 1_655 S
C576 C575 1.387 . S
C576 C579 1.387 . S
H577 C573 0.950 . S
H578 C575 0.950 1_455 S
C579 C570 1.390 . S
C579 H572 0.950 . S
C579 C576 1.387 . S
C580 C581 1.387 . S
C580 H584 0.950 . S
C580 C589 1.390 . S
C581 C580 1.387 . S
C581 C583 1.387 . S
H582 C589 0.950 . S
C583 C581 1.387 . S
C583 C585 1.390 . S
C583 H587 0.950 . S
H584 C580 0.950 . S
C585 C583 1.390 . S
C585 C586 1.387 . S
C585 H588 0.950 . S
C586 C585 1.387 . S
C586 C589 1.387 . S
H587 C583 0.950 . S
H588 C585 0.950 . S
C589 C580 1.390 . S
C589 H582 0.950 . S
C589 C586 1.387 . S
C590 C591 1.387 . S
C590 H594 0.950 . S
C590 C599 1.390 . S
C591 C590 1.387 . S
C591 C593 1.387 . S
H592 C599 0.950 . S
C593 C591 1.387 . S
C593 C595 1.390 . S
C593 H597 0.950 . S
H594 C590 0.950 . S
C595 C593 1.390 . S
C595 C596 1.387 . S
C595 H598 0.950 . S
C596 C595 1.387 . S
C596 C599 1.387 . S
H597 C593 0.950 . S
H598 C595 0.950 . S
C599 C590 1.390 . S
C599 H592 0.950 . S
C599 C596 1.387 . S
C600 C601 1.387 . S
C600 H604 0.950 . S
C600 C609 1.390 . S
C601 C600 1.387 . S
C601 C603 1.387 . S
H602 C609 0.950 . S
C603 C601 1.387 . S
C603 C605 1.390 . S
C603 H607 0.950 . S
H604 C600 0.950 . S
C605 C603 1.390 . S
C605 C606 1.387 . S
C605 H608 0.950 . S
C606 C605 1.387 . S
C606 C609 1.387 . S
H607 C603 0.950 . S
H608 C605 0.950 . S
C609 C600 1.390 . S
C609 H602 0.950 . S
C609 C606 1.387 . S
C610 C611 1.387 . S
C610 H614 0.950 . S
C610 C619 1.390 . S
C611 C610 1.387 . S
C611 C613 1.387 . S
H612 C619 0.950 . S
C613 C611 1.387 . S
C613 C615 1.390 . S
C613 H617 0.950 . S
H614 C610 0.950 . S
C615 C613 1.390 . S
C615 C616 1.387 . S
C615 H618 0.950 . S
C616 C615 1.387 . S
C616 C619 1.387 . S
H617 C613 0.950 . S
H618 C615 0.950 . S
C619 C610 1.390 . S
C619 H612 0.950 . S
C619 C616 1.387 . S
C620 C621 1.387 . S
C620 H624 0.950 . S
C620 C629 1.390 . S
C621 C620 1.387 . S
C621 C623 1.387 . S
H622 C629 0.950 . S
C623 C621 1.387 . S
C623 C625 1.390 . S
C623 H627 0.950 . S
H624 C620 0.950 . S
C625 C623 1.390 . S
C625 C626 1.387 . S
C625 H628 0.950 . S
C626 C625 1.387 . S
C626 C629 1.387 . S
H627 C623 0.950 . S
H628 C625 0.950 . S
C629 C620 1.390 . S
C629 H622 0.950 . S
C629 C626 1.387 . S
C630 C631 1.387 1_545 S
C630 H634 0.950 . S
C630 C639 1.390 . S
C631 C630 1.387 1_565 S
C631 C633 1.387 1_455 S
H632 C639 0.950 . S
C633 C631 1.387 1_655 S
C633 C635 1.390 1_565 S
C633 H637 0.950 . S
H634 C630 0.950 . S
C635 C633 1.390 1_545 S
C635 C636 1.387 1_655 S
C635 H638 0.950 . S
C636 C635 1.387 1_455 S
C636 C639 1.387 . S
H637 C633 0.950 . S
H638 C635 0.950 . S
C639 C630 1.390 . S
C639 H632 0.950 . S
C639 C636 1.387 . S
C640 C641 1.387 . S
C640 H644 0.950 . S
C640 C649 1.390 . S
C641 C640 1.387 . S
C641 C643 1.387 . S
H642 C649 0.950 . S
C643 C641 1.387 . S
C643 C645 1.390 . S
C643 H647 0.950 . S
H644 C640 0.950 . S
C645 C643 1.390 . S
C645 C646 1.387 . S
C645 H648 0.950 . S
C646 C645 1.387 . S
C646 C649 1.387 . S
H647 C643 0.950 . S
H648 C645 0.950 . S
C649 C640 1.390 . S
C649 H642 0.950 . S
C649 C646 1.387 . S
C650 C651 1.387 . S
C650 H654 0.950 . S
C650 C659 1.390 . S
C651 C650 1.387 . S
C651 C653 1.387 . S
H652 C659 0.950 . S
C653 C651 1.387 . S
C653 C655 1.390 . S
C653 H657 0.950 . S
H654 C650 0.950 . S
C655 C653 1.390 . S
C655 C656 1.387 . S
C655 H658 0.950 . S
C656 C655 1.387 . S
C656 C659 1.387 . S
H657 C653 0.950 . S
H658 C655 0.950 . S
C659 C650 1.390 . S
C659 H652 0.950 . S
C659 C656 1.387 . S
C660 C661 1.387 . S
C660 H664 0.950 . S
C660 C669 1.390 . S
C661 C660 1.387 . S
C661 C663 1.387 . S
H662 C669 0.950 . S
C663 C661 1.387 . S
C663 C665 1.390 . S
C663 H667 0.950 . S
H664 C660 0.950 . S
C665 C663 1.390 . S
C665 C666 1.387 . S
C665 H668 0.950 . S
C666 C665 1.387 . S
C666 C669 1.387 . S
H667 C663 0.950 . S
H668 C665 0.950 . S
C669 C660 1.390 . S
C669 H662 0.950 . S
C669 C666 1.387 . S
C670 C671 1.387 . S
C670 H674 0.950 . S
C670 C679 1.390 . S
C671 C670 1.387 . S
C671 C673 1.387 . S
H672 C679 0.950 . S
C673 C671 1.387 . S
C673 C675 1.390 . S
C673 H677 0.950 . S
H674 C670 0.950 . S
C675 C673 1.390 . S
C675 C676 1.387 . S
C675 H678 0.950 . S
C676 C675 1.387 . S
C676 C679 1.387 . S
H677 C673 0.950 . S
H678 C675 0.950 . S
C679 C670 1.390 . S
C679 H672 0.950 . S
C679 C676 1.387 . S
C680 C681 1.387 . S
C680 H684 0.950 . S
C680 C689 1.390 . S
C681 C680 1.387 . S
C681 C683 1.387 . S
H682 C689 0.950 . S
C683 C681 1.387 . S
C683 C685 1.390 . S
C683 H687 0.950 . S
H684 C680 0.950 . S
C685 C683 1.390 . S
C685 C686 1.387 . S
C685 H688 0.950 . S
C686 C685 1.387 . S
C686 C689 1.387 . S
H687 C683 0.950 . S
H688 C685 0.950 . S
C689 C680 1.390 . S
C689 H682 0.950 . S
C689 C686 1.387 . S
C690 C691 1.387 . S
C690 H694 0.950 . S
C690 C699 1.390 . S
C691 C690 1.387 . S
C691 C693 1.387 . S
H692 C699 0.950 . S
C693 C691 1.387 . S
C693 C695 1.390 . S
C693 H697 0.950 . S
H694 C690 0.950 . S
C695 C693 1.390 . S
C695 C696 1.387 . S
C695 H698 0.950 . S
C696 C695 1.387 . S
C696 C699 1.387 . S
H697 C693 0.950 . S
H698 C695 0.950 . S
C699 C690 1.390 . S
C699 H692 0.950 . S
C699 C696 1.387 . S
C700 C701 1.387 . S
C700 H704 0.950 . S
C700 C709 1.390 . S
C701 C700 1.387 . S
C701 C703 1.387 . S
H702 C709 0.950 . S
C703 C701 1.387 . S
C703 C705 1.390 . S
C703 H707 0.950 . S
H704 C700 0.950 . S
C705 C703 1.390 . S
C705 C706 1.387 . S
C705 H708 0.950 . S
C706 C705 1.387 . S
C706 C709 1.387 . S
H707 C703 0.950 . S
H708 C705 0.950 . S
C709 C700 1.390 . S
C709 H702 0.950 . S
C709 C706 1.387 . S
C476 C174 1.540 . S
C471 C11 1.356 . S
C486 C243 1.674 . S
C481 C25 1.629 . S
C496 C181 1.307 . S
C491 C40 1.272 . S
C506 C244 1.478 . S
C501 C59 1.427 . S
C516 C297 1.813 . S
C511 C6 1.791 . S
C526 C333 1.747 . S
C521 C21 1.676 . S
C531 C49 1.599 . S
C536 C393 1.619 . S
C546 C456 1.522 . S
C541 C68 1.432 . S
C556 C296 1.760 . S
C551 C30 1.529 . S
C561 C44 1.647 . S
C566 C340 1.660 . S
C576 C386 1.723 . S
C571 C63 1.741 . S
C586 C455 1.692 . S
C581 C2 1.670 . S
C591 C78 1.671 . S
C596 C234 1.715 . S
C606 C191 1.584 . S
C601 C97 1.500 . S
C611 C120 1.618 . S
C616 C227 1.623 . S
C621 C139 1.652 . S
C626 C190 1.669 . S
C636 C402 1.602 . S
C631 C87 1.461 . S
C646 C446 1.642 . S
C641 C101 1.603 . S
C656 C280 1.627 . S
C651 C125 1.461 . S
C661 C144 1.671 . S
C666 C349 1.769 . S
C676 C403 1.804 . S
C671 C106 1.552 . S
C686 C439 1.616 . S
C681 C116 1.592 . S
C696 C287 1.643 . S
C691 C135 1.626 . S
C701 C82 1.749 . S
C706 C350 1.733 . S
