# Generated by pormake.
# Topology nom, (4,4)-cn, num edge types: 1
# Building blocks:
#     Node 0, Type 0, BuildingBlock: MIFKUJ_clean_linker_1, # of connection points: 4
#     Node 1, Type 0, BuildingBlock: MIFKUJ_clean_linker_1, # of connection points: 4
#     Node 2, Type 0, BuildingBlock: MIFKUJ_clean_linker_1, # of connection points: 4
#     Node 3, Type 0, BuildingBlock: MIFKUJ_clean_linker_1, # of connection points: 4
#     Node 4, Type 0, BuildingBlock: MIFKUJ_clean_linker_1, # of connection points: 4
#     Node 5, Type 0, BuildingBlock: MIFKUJ_clean_linker_1, # of connection points: 4
#     Node 6, Type 1, BuildingBlock: QUQFOY_clean_sbu_3, # of connection points: 4
#     Node 7, Type 1, BuildingBlock: QUQFOY_clean_sbu_3, # of connection points: 4
#     Node 8, Type 1, BuildingBlock: QUQFOY_clean_sbu_3, # of connection points: 4
#     Node 9, Type 1, BuildingBlock: QUQFOY_clean_sbu_3, # of connection points: 4
#     Node 10, Type 1, BuildingBlock: QUQFOY_clean_sbu_3, # of connection points: 4
#     Node 11, Type 1, BuildingBlock: QUQFOY_clean_sbu_3, # of connection points: 4
#     Edge 12, Type (0, 1), BuildingBlock: EZIPEK_clean_linker_0, # of connection points: 2
#     Edge 13, Type (0, 1), BuildingBlock: EZIPEK_clean_linker_0, # of connection points: 2
#     Edge 14, Type (0, 1), BuildingBlock: EZIPEK_clean_linker_0, # of connection points: 2
#     Edge 15, Type (0, 1), BuildingBlock: EZIPEK_clean_linker_0, # of connection points: 2
#     Edge 16, Type (0, 1), BuildingBlock: EZIPEK_clean_linker_0, # of connection points: 2
#     Edge 17, Type (0, 1), BuildingBlock: EZIPEK_clean_linker_0, # of connection points: 2
#     Edge 18, Type (0, 1), BuildingBlock: EZIPEK_clean_linker_0, # of connection points: 2
#     Edge 19, Type (0, 1), BuildingBlock: EZIPEK_clean_linker_0, # of connection points: 2
#     Edge 20, Type (0, 1), BuildingBlock: EZIPEK_clean_linker_0, # of connection points: 2
#     Edge 21, Type (0, 1), BuildingBlock: EZIPEK_clean_linker_0, # of connection points: 2
#     Edge 22, Type (0, 1), BuildingBlock: EZIPEK_clean_linker_0, # of connection points: 2
#     Edge 23, Type (0, 1), BuildingBlock: EZIPEK_clean_linker_0, # of connection points: 2
#     Edge 24, Type (0, 1), BuildingBlock: EZIPEK_clean_linker_0, # of connection points: 2
#     Edge 25, Type (0, 1), BuildingBlock: EZIPEK_clean_linker_0, # of connection points: 2
#     Edge 26, Type (0, 1), BuildingBlock: EZIPEK_clean_linker_0, # of connection points: 2
#     Edge 27, Type (0, 1), BuildingBlock: EZIPEK_clean_linker_0, # of connection points: 2
#     Edge 28, Type (0, 1), BuildingBlock: EZIPEK_clean_linker_0, # of connection points: 2
#     Edge 29, Type (0, 1), BuildingBlock: EZIPEK_clean_linker_0, # of connection points: 2
#     Edge 30, Type (0, 1), BuildingBlock: EZIPEK_clean_linker_0, # of connection points: 2
#     Edge 31, Type (0, 1), BuildingBlock: EZIPEK_clean_linker_0, # of connection points: 2
#     Edge 32, Type (0, 1), BuildingBlock: EZIPEK_clean_linker_0, # of connection points: 2
#     Edge 33, Type (0, 1), BuildingBlock: EZIPEK_clean_linker_0, # of connection points: 2
#     Edge 34, Type (0, 1), BuildingBlock: EZIPEK_clean_linker_0, # of connection points: 2
#     Edge 35, Type (0, 1), BuildingBlock: EZIPEK_clean_linker_0, # of connection points: 2
# Relax obj value: 0.002
# Max RMSD: 0.101
# Mean RMSD: 0.065
data_MOF--net-nom--node1-QUQFOY_clean_sbu_3--node2-MIFKUJ_clean_linker_1--edge1-EZIPEK_clean_linker_0
_symmetry_space_group_name_H-M    P1
_symmetry_Int_Tables_number       1
_symmetry_cell_setting            triclinic
loop_
_symmetry_equiv_pos_as_xyz
'x, y, z'
_cell_length_a     41.972085
_cell_length_b     43.108325
_cell_length_c     44.392742
_cell_angle_alpha  90.126582
_cell_angle_beta   89.846005
_cell_angle_gamma 120.0326
loop_
_atom_site_label
_atom_site_type_symbol
_atom_site_fract_x
_atom_site_fract_y
_atom_site_fract_z
_atom_type_partial_charge
H0 H 0.9695 0.45458 0.24581 0.0
H1 H 0.92681 0.43764 0.20348 0.0
H2 H 0.86491 0.47739 0.25133 0.0
H3 H 0.91011 0.49848 0.29197 0.0
H4 H 0.01546 0.51649 0.26494 0.0
H5 H 0.90168 0.41832 0.31553 0.0
H6 H 0.83772 0.39641 0.33213 0.0
H7 H 0.87364 0.49337 0.38341 0.0
H8 H 0.93675 0.51569 0.36637 0.0
H9 H 0.03298 0.56271 0.3867 0.0
H10 H 0.07901 0.58601 0.42714 0.0
H11 H 0.13063 0.52977 0.38939 0.0
H12 H 0.08499 0.50698 0.34847 0.0
H13 H 0.9835 0.4929 0.37324 0.0
H14 H 0.07461 0.59541 0.32686 0.0
H15 H 0.13586 0.64125 0.30982 0.0
H16 H 0.14293 0.56313 0.25368 0.0
H17 H 0.08142 0.51684 0.27095 0.0
C18 C 0.94282 0.47719 0.27261 0.0
C19 C 0.9469 0.4599 0.24723 0.0
C20 C 0.92238 0.44996 0.22313 0.0
C21 C 0.89251 0.45603 0.22428 0.0
C22 C 0.88768 0.47231 0.24999 0.0
C23 C 0.91325 0.48386 0.27346 0.0
C24 C 0.971 0.49006 0.29695 0.0
C25 C 0.00828 0.51036 0.28853 0.0
C26 C 0.96199 0.48448 0.32808 0.0
C27 C 0.92387 0.46875 0.33953 0.0
C28 C 0.89574 0.43469 0.33046 0.0
C29 C 0.85947 0.42219 0.33995 0.0
C30 C 0.85136 0.44343 0.35894 0.0
C31 C 0.87962 0.4767 0.36884 0.0
C32 C 0.91554 0.4893 0.35918 0.0
C33 C 0.05562 0.53309 0.36473 0.0
C34 C 0.0543 0.55553 0.38706 0.0
C35 C 0.08053 0.56891 0.40995 0.0
C36 C 0.10801 0.5595 0.41109 0.0
C37 C 0.10957 0.53727 0.3887 0.0
C38 C 0.08364 0.52433 0.36549 0.0
C39 C 0.02722 0.51837 0.34094 0.0
C40 C -0.00967 0.49774 0.34948 0.0
C41 C 0.03625 0.52562 0.31019 0.0
C42 C 0.07379 0.55264 0.30048 0.0
C43 C 0.08951 0.58794 0.31123 0.0
C44 C 0.12426 0.6141 0.30144 0.0
C45 C 0.14368 0.60539 0.28061 0.0
C46 C 0.12817 0.57014 0.26983 0.0
C47 C 0.09325 0.54389 0.27962 0.0
H48 H 0.4073 0.9216 0.47969 0.0
H49 H 0.36785 0.85902 0.49489 0.0
H50 H 0.45992 0.86088 0.53959 0.0
H51 H 0.49955 0.92389 0.52457 0.0
H52 H 0.49091 0.98224 0.53861 0.0
H53 H 0.43558 0.96857 0.41787 0.0
H54 H 0.41516 0.92647 0.37532 0.0
H55 H 0.48283 0.88405 0.40677 0.0
H56 H 0.50314 0.92598 0.44957 0.0
H57 H 0.56417 0.07809 0.43486 0.0
H58 H 0.58361 0.13948 0.41886 0.0
H59 H 0.51505 0.14695 0.4877 0.0
H60 H 0.49332 0.08486 0.50215 0.0
H61 H 0.50304 0.02143 0.43213 0.0
H62 H 0.58182 0.0823 0.51745 0.0
H63 H 0.60488 0.12549 0.55939 0.0
H64 H 0.49622 0.07414 0.59855 0.0
H65 H 0.47316 0.03079 0.55693 0.0
C66 C 0.45637 0.92714 0.50077 0.0
C67 C 0.4191 0.90849 0.49256 0.0
C68 C 0.39659 0.87298 0.50133 0.0
C69 C 0.41107 0.85558 0.51837 0.0
C70 C 0.44838 0.87407 0.52652 0.0
C71 C 0.47087 0.90981 0.51795 0.0
C72 C 0.47945 0.96523 0.49236 0.0
C73 C 0.49406 0.99093 0.51532 0.0
C74 C 0.48386 0.9764 0.46203 0.0
C75 C 0.47081 0.95033 0.43685 0.0
C76 C 0.44595 0.95016 0.41568 0.0
C77 C 0.43421 0.92614 0.39156 0.0
C78 C 0.44747 0.90225 0.38813 0.0
C79 C 0.47225 0.90226 0.40926 0.0
C80 C 0.48373 0.92607 0.43358 0.0
C81 C 0.5278 0.07693 0.47016 0.0
C82 C 0.55319 0.09284 0.44648 0.0
C83 C 0.56438 0.12784 0.4374 0.0
C84 C 0.55093 0.14773 0.45226 0.0
C85 C 0.52589 0.13206 0.4761 0.0
C86 C 0.51392 0.09678 0.48461 0.0
C87 C 0.51401 0.0389 0.47845 0.0
C88 C 0.50087 0.01305 0.45543 0.0
C89 C 0.51143 0.02765 0.50877 0.0
C90 C 0.52579 0.05343 0.53411 0.0
C91 C 0.563 0.08034 0.53508 0.0
C92 C 0.57613 0.10486 0.5589 0.0
C93 C 0.55212 0.10286 0.58184 0.0
C94 C 0.51501 0.07598 0.58094 0.0
C95 C 0.50198 0.05126 0.55735 0.0
H96 H 0.51578 0.54156 0.73413 0.0
H97 H 0.49451 0.56202 0.77705 0.0
H98 H 0.38909 0.52268 0.7341 0.0
H99 H 0.40858 0.49812 0.69304 0.0
H100 H 0.49689 0.4797 0.71555 0.0
H101 H 0.48257 0.57694 0.66596 0.0
H102 H 0.44281 0.60095 0.65001 0.0
H103 H 0.37314 0.50272 0.60215 0.0
H104 H 0.41179 0.47842 0.61854 0.0
H105 H 0.46295 0.43313 0.59302 0.0
H106 H 0.48519 0.41185 0.55103 0.0
H107 H 0.59528 0.46957 0.58691 0.0
H108 H 0.57304 0.49066 0.62924 0.0
H109 H 0.48222 0.50063 0.60806 0.0
H110 H 0.48424 0.40247 0.64929 0.0
H111 H 0.50845 0.36343 0.66327 0.0
H112 H 0.58112 0.44217 0.72753 0.0
H113 H 0.55889 0.48264 0.71195 0.0
C114 C 0.46418 0.51885 0.70979 0.0
C115 C 0.48793 0.53695 0.73397 0.0
C116 C 0.47595 0.54896 0.75838 0.0
C117 C 0.44033 0.5442 0.75871 0.0
C118 C 0.41678 0.52684 0.73427 0.0
C119 C 0.42816 0.51326 0.71056 0.0
C120 C 0.47707 0.50478 0.68469 0.0
C121 C 0.4944 0.48504 0.69207 0.0
C122 C 0.47183 0.50959 0.65386 0.0
C123 C 0.44992 0.52581 0.6436 0.0
C124 C 0.45875 0.56067 0.65204 0.0
C125 C 0.43627 0.57435 0.64293 0.0
C126 C 0.40527 0.55345 0.62494 0.0
C127 C 0.39706 0.51912 0.61596 0.0
C128 C 0.41915 0.50538 0.62524 0.0
C129 C 0.51638 0.46341 0.61421 0.0
C130 C 0.49186 0.44116 0.5919 0.0
C131 C 0.50443 0.42894 0.56809 0.0
C132 C 0.54176 0.43922 0.56605 0.0
C133 C 0.56636 0.46141 0.58829 0.0
C134 C 0.5537 0.47335 0.61233 0.0
C135 C 0.50282 0.47671 0.63908 0.0
C136 C 0.48548 0.49616 0.63163 0.0
C137 C 0.50649 0.47017 0.66971 0.0
C138 C 0.52049 0.44604 0.67889 0.0
C139 C 0.50606 0.41188 0.66583 0.0
C140 C 0.5195 0.38937 0.67405 0.0
C141 C 0.54668 0.40004 0.69629 0.0
C142 C 0.56029 0.43362 0.71017 0.0
C143 C 0.54752 0.45658 0.70136 0.0
H144 H 0.03348 0.56174 0.75001 0.0
H145 H 0.0747 0.57838 0.70654 0.0
H146 H 0.13541 0.53487 0.75029 0.0
H147 H 0.09147 0.514 0.79191 0.0
H148 H 0.9867 0.50007 0.76808 0.0
H149 H 0.10246 0.59402 0.81969 0.0
H150 H 0.16617 0.61427 0.83583 0.0
H151 H 0.12889 0.514 0.88205 0.0
H152 H 0.06595 0.49345 0.86555 0.0
H153 H 0.96937 0.44862 0.88836 0.0
H154 H 0.9232 0.42451 0.92884 0.0
H155 H 0.87455 0.48509 0.89514 0.0
H156 H 0.92027 0.5087 0.85421 0.0
H157 H 0.02071 0.51806 0.87615 0.0
H158 H 0.92728 0.41932 0.82836 0.0
H159 H 0.86586 0.37483 0.81075 0.0
H160 H 0.85994 0.45612 0.75866 0.0
H161 H 0.92172 0.50107 0.77649 0.0
C162 C 0.05957 0.53719 0.7748 0.0
C163 C 0.05553 0.55557 0.7503 0.0
C164 C 0.07923 0.56536 0.72556 0.0
C165 C 0.1083 0.55809 0.7252 0.0
C166 C 0.11326 0.54091 0.75012 0.0
C167 C 0.08843 0.52949 0.77418 0.0
C168 C 0.03184 0.52405 0.7996 0.0
C169 C -0.00564 0.50507 0.79166 0.0
C170 C 0.04139 0.52791 0.8306 0.0
C171 C 0.07956 0.54218 0.84131 0.0
C172 C 0.10807 0.57653 0.83335 0.0
C173 C 0.14421 0.58806 0.84254 0.0
C174 C 0.15184 0.56547 0.86005 0.0
C175 C 0.12328 0.53168 0.86859 0.0
C176 C 0.08747 0.5201 0.85928 0.0
C177 C 0.94819 0.48047 0.86842 0.0
C178 C 0.94872 0.45664 0.88966 0.0
C179 C 0.92241 0.44281 0.91257 0.0
C180 C 0.89569 0.45314 0.91482 0.0
C181 C 0.89504 0.47688 0.8936 0.0
C182 C 0.92101 0.49029 0.87038 0.0
C183 C 0.97632 0.49528 0.84433 0.0
C184 C 0.01343 0.51446 0.85244 0.0
C185 C 0.9667 0.48958 0.81361 0.0
C186 C 0.92878 0.46357 0.80402 0.0
C187 C 0.91258 0.42779 0.81357 0.0
C188 C 0.87771 0.40241 0.80345 0.0
C189 C 0.85861 0.41236 0.7835 0.0
C190 C 0.87445 0.44815 0.77413 0.0
C191 C 0.90953 0.47364 0.78422 0.0
H192 H 0.59131 0.07313 0.02393 0.0
H193 H 0.6303 0.13612 0.03852 0.0
H194 H 0.55076 0.1608 0.00131 0.0
H195 H 0.51165 0.09763 0.98643 0.0
H196 H 0.51981 0.02392 0.0401 0.0
H197 H 0.58939 0.08015 0.94911 0.0
H198 H 0.61196 0.12131 0.90599 0.0
H199 H 0.50012 0.08756 0.88062 0.0
H200 H 0.47747 0.04607 0.92361 0.0
H201 H 0.42768 0.92566 0.94569 0.0
H202 H 0.40652 0.86312 0.93104 0.0
H203 H 0.50246 0.86989 0.97283 0.0
H204 H 0.52333 0.93191 0.98772 0.0
H205 H 0.49482 0.9894 0.93233 0.0
H206 H 0.42671 0.92345 0.01765 0.0
H207 H 0.40573 0.87919 0.05848 0.0
H208 H 0.51547 0.93139 0.09524 0.0
H209 H 0.53676 0.97546 0.05419 0.0
C210 C 0.54875 0.08087 0.00402 0.0
C211 C 0.58213 0.09203 0.01909 0.0
C212 C 0.60433 0.12781 0.02734 0.0
C213 C 0.59322 0.15278 0.02095 0.0
C214 C 0.55956 0.14167 0.00639 0.0
C215 C 0.53745 0.10585 -0.00213 0.0
C216 C 0.52631 0.04308 0.99451 0.0
C217 C 0.51439 0.01632 0.01655 0.0
C218 C 0.51814 0.03329 0.96391 0.0
C219 C 0.53178 0.06024 0.93953 0.0
C220 C 0.56975 0.08201 0.93454 0.0
C221 C 0.5826 0.10539 0.91001 0.0
C222 C 0.55765 0.10733 0.89023 0.0
C223 C 0.5197 0.08637 0.89572 0.0
C224 C 0.50685 0.06274 0.9201 0.0
C225 C 0.47678 0.93311 0.96806 0.0
C226 C 0.44415 0.91365 0.95154 0.0
C227 C 0.43215 0.87817 0.94321 0.0
C228 C 0.45303 0.86213 0.9509 0.0
C229 C 0.48607 0.88192 0.96675 0.0
C230 C 0.49783 0.91712 0.97531 0.0
C231 C 0.48943 0.97026 0.97787 0.0
C232 C 0.49942 -0.00309 0.95594 0.0
C233 C 0.49586 0.97998 0.00862 0.0
C234 C 0.48335 0.95269 0.03282 0.0
C235 C 0.44639 0.92515 0.03424 0.0
C236 C 0.43439 0.90002 0.0575 0.0
C237 C 0.45914 0.90221 0.07968 0.0
C238 C 0.4961 0.92943 0.0782 0.0
C239 C 0.50812 0.95456 0.05494 0.0
H240 H 0.47551 0.45209 0.23488 0.0
H241 H 0.50137 0.43476 0.27642 0.0
H242 H 0.6041 0.47665 0.22818 0.0
H243 H 0.57988 0.49808 0.18829 0.0
H244 H 0.49183 0.51378 0.21703 0.0
H245 H 0.5061 0.41741 0.16443 0.0
H246 H 0.54865 0.39707 0.14731 0.0
H247 H 0.61046 0.49486 0.09682 0.0
H248 H 0.56907 0.51559 0.11431 0.0
H249 H 0.50709 0.58651 0.12982 0.0
H250 H 0.4893 0.61293 0.08881 0.0
H251 H 0.40862 0.50711 0.05866 0.0
H252 H 0.42635 0.48061 0.09967 0.0
H253 H 0.49824 0.4915 0.10817 0.0
H254 H 0.51592 0.58479 0.20272 0.0
H255 H 0.49463 0.62681 0.21576 0.0
H256 H 0.38796 0.55398 0.17843 0.0
H257 H 0.40928 0.5119 0.1651 0.0
C258 C 0.52537 0.47588 0.20798 0.0
C259 C 0.50372 0.45786 0.23322 0.0
C260 C 0.51835 0.44769 0.25686 0.0
C261 C 0.5546 0.45424 0.25537 0.0
C262 C 0.57601 0.47125 0.22977 0.0
C263 C 0.56194 0.48302 0.20676 0.0
C264 C 0.50986 0.48876 0.18417 0.0
C265 C 0.49289 0.50831 0.19329 0.0
C266 C 0.51222 0.48306 0.15292 0.0
C267 C 0.53465 0.46814 0.14084 0.0
C268 C 0.52865 0.43428 0.14951 0.0
C269 C 0.55273 0.42268 0.13976 0.0
C270 C 0.5825 0.44463 0.12091 0.0
C271 C 0.58752 0.47766 0.1113 0.0
C272 C 0.56384 0.48935 0.12121 0.0
C273 C 0.46776 0.53162 0.11786 0.0
C274 C 0.4852 0.56902 0.11466 0.0
C275 C 0.47519 0.58407 0.09131 0.0
C276 C 0.44767 0.56188 0.07088 0.0
C277 C 0.42984 0.52454 0.07433 0.0
C278 C 0.43996 0.5095 0.0976 0.0
C279 C 0.47999 0.51557 0.1413 0.0
C280 C 0.49625 0.49565 0.13208 0.0
C281 C 0.47856 0.52224 0.17225 0.0
C282 C 0.46417 0.54538 0.18289 0.0
C283 C 0.48777 0.57759 0.19779 0.0
C284 C 0.47576 0.60155 0.2051 0.0
C285 C 0.43987 0.59333 0.19795 0.0
C286 C 0.41574 0.56055 0.18409 0.0
C287 C 0.42788 0.5367 0.17651 0.0
C288 C 0.71288 0.42243 0.40166 0.0
O289 O 0.71316 0.45083 0.40969 0.0
Cd290 Cd 0.65917 0.45148 0.42715 0.0
O291 O 0.68348 0.3922 0.40234 0.0
Cd292 Cd 0.61865 0.36845 0.41543 0.0
C293 C 0.60901 0.41978 0.36274 0.0
O294 O 0.62623 0.40262 0.46119 0.0
O295 O 0.57099 0.3738 0.44283 0.0
O296 O 0.61838 0.31853 0.44025 0.0
C297 C 0.59226 0.39209 0.46413 0.0
O298 O 0.62346 0.44498 0.38205 0.0
C299 C 0.59484 0.29451 0.42305 0.0
O300 O 0.60667 0.38962 0.3678 0.0
O301 O 0.58203 0.30481 0.40182 0.0
C302 C 0.29348 0.58033 0.58007 0.0
O303 O 0.2645 0.55209 0.57198 0.0
Cd304 Cd 0.21128 0.55245 0.55277 0.0
O305 O 0.29601 0.61089 0.5782 0.0
Cd306 Cd 0.2571 0.63534 0.56179 0.0
C307 C 0.19444 0.58784 0.61547 0.0
O308 O 0.23078 0.59934 0.51641 0.0
O309 O 0.20491 0.62892 0.53238 0.0
O310 O 0.31386 0.68293 0.54073 0.0
C311 C 0.20803 0.61005 0.51194 0.0
O312 O 0.18235 0.56207 0.59668 0.0
C313 C 0.30999 0.70836 0.55093 0.0
O314 O 0.22374 0.61736 0.60998 0.0
O315 O 0.28181 0.70002 0.56714 0.0
C316 C 0.72149 0.29374 0.7421 0.0
O317 O 0.72288 0.26624 0.73386 0.0
Cd318 Cd 0.66956 0.21122 0.71928 0.0
O319 O 0.69127 0.29392 0.74209 0.0
Cd320 Cd 0.62606 0.25315 0.72915 0.0
C321 C 0.61572 0.19281 0.78243 0.0
O322 O 0.63541 0.22575 0.68444 0.0
O323 O 0.57951 0.20122 0.7014 0.0
O324 O 0.62142 0.30025 0.70323 0.0
C325 C 0.60161 0.20286 0.68111 0.0
O326 O 0.6349 0.18462 0.76545 0.0
C327 C 0.59915 0.30165 0.7218 0.0
O328 O 0.60948 0.21791 0.77548 0.0
O329 O 0.58918 0.28034 0.74407 0.0
C330 C 0.28975 0.5857 0.90305 0.0
O331 O 0.28877 0.55755 0.91273 0.0
Cd332 Cd 0.34218 0.55684 0.93129 0.0
O333 O 0.31944 0.61572 0.90296 0.0
Cd334 Cd 0.3841 0.64048 0.91736 0.0
C335 C 0.39292 0.58667 0.86641 0.0
O336 O 0.37376 0.60713 0.96397 0.0
O337 O 0.43002 0.6361 0.94803 0.0
O338 O 0.3773 0.68945 0.93616 0.0
C339 C 0.4074 0.61738 0.96847 0.0
O340 O 0.37805 0.5623 0.88637 0.0
C341 C 0.40667 0.71413 0.92445 0.0
O342 O 0.39607 0.61738 0.87048 0.0
O343 O 0.42562 0.70472 0.90848 0.0
C344 C 0.7015 0.42641 0.07868 0.0
O345 O 0.73023 0.45525 0.07118 0.0
Cd346 Cd 0.7854 0.45727 0.05333 0.0
O347 O 0.70028 0.39641 0.07716 0.0
Cd348 Cd 0.74195 0.37441 0.06262 0.0
C349 C 0.80335 0.42388 0.11648 0.0
O350 O 0.76906 0.41026 0.01744 0.0
O351 O 0.79609 0.38253 0.03506 0.0
O352 O 0.68982 0.32508 0.03799 0.0
C353 C 0.79287 0.40065 0.01405 0.0
O354 O 0.8147 0.44959 0.09773 0.0
C355 C 0.69206 0.30066 0.05201 0.0
O356 O 0.77476 0.39381 0.11092 0.0
O357 O 0.71734 0.31027 0.07158 0.0
C358 C 0.28402 0.72147 0.24091 0.0
O359 O 0.28578 0.75044 0.23257 0.0
Cd360 Cd 0.34225 0.80247 0.21742 0.0
O361 O 0.31246 0.71812 0.24093 0.0
Cd362 Cd 0.37827 0.75366 0.22785 0.0
C363 C 0.39346 0.81568 0.28118 0.0
O364 O 0.37194 0.78226 0.18285 0.0
O365 O 0.42751 0.80238 0.19905 0.0
O366 O 0.37258 0.70013 0.20466 0.0
C367 C 0.40622 0.8025 0.17892 0.0
O368 O 0.37783 0.82714 0.26349 0.0
C369 C 0.3979 0.69999 0.22006 0.0
O370 O 0.3957 0.78802 0.27485 0.0
O371 O 0.41411 0.72464 0.23952 0.0
C372 C 0.21093 0.64692 0.28918 0.0
C373 C 0.18009 0.63374 0.26975 0.0
C374 C 0.21855 0.67525 0.23022 0.0
C375 C 0.24839 0.69104 0.25075 0.0
N376 N 0.2718 0.69579 0.3012 0.0
N377 N 0.15264 0.63852 0.22357 0.0
C378 C 0.24436 0.67784 0.28062 0.0
C379 C 0.18335 0.64872 0.24071 0.0
N380 N 0.20843 0.62944 0.31553 0.0
N381 N 0.22415 0.68461 0.20045 0.0
H382 H 0.12633 0.61897 0.23035 0.0
H383 H 0.15277 0.65146 0.20375 0.0
H384 H 0.24967 0.70362 0.19178 0.0
H385 H 0.2044 0.67123 0.18387 0.0
H386 H 0.23097 0.63551 0.32915 0.0
H387 H 0.18429 0.60674 0.32256 0.0
H388 H 0.26886 0.68978 0.3241 0.0
H389 H 0.29655 0.71881 0.29593 0.0
C390 C 0.59985 0.21224 0.44517 0.0
C391 C 0.56251 0.18488 0.44264 0.0
C392 C 0.54563 0.2295 0.42802 0.0
C393 C 0.58345 0.25629 0.42774 0.0
N394 N 0.64694 0.27038 0.42769 0.0
N395 N 0.50152 0.16619 0.42399 0.0
C396 C 0.61073 0.24684 0.43381 0.0
C397 C 0.53589 0.1931 0.43162 0.0
N398 N 0.6247 0.20575 0.45952 0.0
N399 N 0.51888 0.23869 0.4267 0.0
H400 H 0.49362 0.13912 0.42559 0.0
H401 H 0.48228 0.17079 0.41315 0.0
H402 H 0.52448 0.26509 0.42564 0.0
H403 H 0.49105 0.22026 0.42992 0.0
H404 H 0.65138 0.22592 0.46458 0.0
H405 H 0.6177 0.18105 0.46905 0.0
H406 H 0.66739 0.26347 0.42923 0.0
H407 H 0.65593 0.29532 0.41774 0.0
C408 C 0.38538 0.58393 0.58793 0.0
C409 C 0.37999 0.56634 0.61599 0.0
C410 C 0.32108 0.56436 0.62272 0.0
C411 C 0.32426 0.57756 0.59299 0.0
N412 N 0.35795 0.59884 0.54641 0.0
N413 N 0.34316 0.53875 0.6602 0.0
C414 C 0.35624 0.58752 0.57544 0.0
C415 C 0.3481 0.55658 0.6336 0.0
N416 N 0.41841 0.59717 0.57338 0.0
N417 N 0.29261 0.56006 0.6407 0.0
H418 H 0.36322 0.5342 0.66959 0.0
H419 H 0.3186 0.52688 0.67231 0.0
H420 H 0.27223 0.56538 0.63336 0.0
H421 H 0.29063 0.55399 0.66355 0.0
H422 H 0.42557 0.61326 0.55429 0.0
H423 H 0.44005 0.59443 0.58183 0.0
H424 H 0.37855 0.60269 0.53123 0.0
H425 H 0.33735 0.60232 0.53671 0.0
C426 C 0.81982 0.37104 0.74217 0.0
C427 C 0.82244 0.38455 0.77179 0.0
C428 C 0.75878 0.33826 0.78218 0.0
C429 C 0.75554 0.32601 0.75201 0.0
N430 N 0.77983 0.33537 0.70147 0.0
N431 N 0.79309 0.38607 0.81806 0.0
C432 C 0.78516 0.3438 0.73143 0.0
C433 C 0.79141 0.36974 0.79119 0.0
N434 N 0.8507 0.38311 0.72475 0.0
N435 N 0.73151 0.31884 0.8026 0.0
H436 H 0.81667 0.40916 0.82535 0.0
H437 H 0.77031 0.37869 0.83187 0.0
H438 H 0.70732 0.29539 0.79702 0.0
H439 H 0.73411 0.32422 0.82562 0.0
H440 H 0.85119 0.37127 0.70441 0.0
H441 H 0.87665 0.40321 0.73167 0.0
H442 H 0.79925 0.35 0.68494 0.0
H443 H 0.75465 0.3158 0.69271 0.0
C444 C 0.42839 0.79869 0.96725 0.0
C445 C 0.43986 0.82405 0.94355 0.0
C446 C 0.42646 0.77664 0.90672 0.0
C447 C 0.41898 0.75222 0.93073 0.0
N448 N 0.42075 0.7421 0.9841 0.0
N449 N 0.45565 0.83879 0.89118 0.0
C450 C 0.42206 0.76378 0.9611 0.0
C451 C 0.44053 0.81351 0.91336 0.0
N452 N 0.42269 0.8077 -0.0045 0.0
N453 N 0.41869 0.76446 0.8777 0.0
H454 H 0.4662 0.86607 0.89516 0.0
H455 H 0.46053 0.8331 0.86941 0.0
H456 H 0.40772 0.73756 0.87194 0.0
H457 H 0.41991 0.78045 0.85968 0.0
H458 H 0.41071 0.78915 0.01288 0.0
H459 H 0.42658 0.83294 0.00084 0.0
H460 H 0.42661 0.75066 0.0064 0.0
H461 H 0.41772 0.71683 0.98061 0.0
C462 C 0.64205 0.44641 0.13042 0.0
C463 C 0.61025 0.43465 0.11228 0.0
C464 C 0.63774 0.41627 0.07238 0.0
C465 C 0.66942 0.42778 0.09062 0.0
N466 N 0.69929 0.44671 0.13889 0.0
N467 N 0.57423 0.40257 0.06906 0.0
C468 C 0.67083 0.44072 0.12026 0.0
C469 C 0.60694 0.4176 0.08421 0.0
N470 N 0.6452 0.46414 0.15683 0.0
N471 N 0.63781 0.40555 0.04337 0.0
H472 H 0.55135 0.40353 0.07708 0.0
H473 H 0.56867 0.38673 0.0499 0.0
H474 H 0.65973 0.4038 0.03411 0.0
H475 H 0.61734 0.40059 0.02777 0.0
H476 H 0.66942 0.47734 0.16923 0.0
H477 H 0.624 0.46739 0.16569 0.0
H478 H 0.70005 0.45253 0.16173 0.0
H479 H 0.721 0.44304 0.1321 0.0
C480 C 0.3758 0.8088 0.55774 0.0
C481 C 0.38685 0.81769 0.52725 0.0
C482 C 0.34494 0.75571 0.51217 0.0
C483 C 0.3365 0.74604 0.54296 0.0
N484 N 0.34971 0.76204 0.59546 0.0
N485 N 0.38803 0.79851 0.47637 0.0
C486 C 0.35354 0.77221 0.56592 0.0
C487 C 0.3733 0.79076 0.50474 0.0
N488 N 0.38546 0.83532 0.57868 0.0
N489 N 0.32459 0.7321 0.48993 0.0
H490 H 0.40916 0.82389 0.47014 0.0
H491 H 0.38179 0.77904 0.45991 0.0
H492 H 0.30251 0.70659 0.49428 0.0
H493 H 0.32708 0.73912 0.46725 0.0
H494 H 0.3748 0.83055 0.60047 0.0
H495 H 0.40166 0.86248 0.57359 0.0
H496 H 0.36461 0.77957 0.61285 0.0
H497 H 0.33437 0.7354 0.60236 0.0
C498 C 0.598 0.386 0.69948 0.0
C499 C 0.5607 0.37577 0.70491 0.0
C500 C 0.54781 0.316 0.72004 0.0
C501 C 0.58587 0.32742 0.71753 0.0
N502 N 0.64832 0.37672 0.71298 0.0
N503 N 0.50235 0.33414 0.72759 0.0
C504 C 0.61136 0.36347 0.70966 0.0
C505 C 0.53628 0.34172 0.7175 0.0
N506 N 0.62037 0.41639 0.68354 0.0
N507 N 0.52233 0.28047 0.72304 0.0
H508 H 0.49324 0.35264 0.72674 0.0
H509 H 0.48491 0.31095 0.73957 0.0
H510 H 0.52914 0.26031 0.72335 0.0
H511 H 0.49408 0.27067 0.72191 0.0
H512 H 0.64668 0.42293 0.6764 0.0
H513 H 0.61146 0.43319 0.67484 0.0
H514 H 0.66774 0.40373 0.71012 0.0
H515 H 0.65928 0.36173 0.72196 0.0
C516 C 0.20267 0.59157 0.89777 0.0
C517 C 0.18984 0.57603 0.869 0.0
C518 C 0.24546 0.5721 0.86092 0.0
C519 C 0.25606 0.58359 0.89104 0.0
N520 N 0.24494 0.60272 0.93903 0.0
N521 N 0.19714 0.5499 0.82329 0.0
C522 C 0.23489 0.59324 0.90967 0.0
C523 C 0.21089 0.56614 0.85045 0.0
N524 N 0.18406 0.60487 0.9135 0.0
N525 N 0.26881 0.56755 0.84227 0.0
H526 H 0.17267 0.54656 0.81429 0.0
H527 H 0.20882 0.53802 0.81031 0.0
H528 H 0.2941 0.57111 0.84939 0.0
H529 H 0.26456 0.56285 0.81923 0.0
H530 H 0.19368 0.6196 0.93331 0.0
H531 H 0.16012 0.60363 0.90544 0.0
H532 H 0.22865 0.60623 0.95482 0.0
H533 H 0.26882 0.60494 0.94829 0.0
C534 C 0.64294 0.21441 0.00704 0.0
C535 C 0.61769 0.1909 0.02884 0.0
C536 C 0.64007 0.23982 0.06565 0.0
C537 C 0.66712 0.2626 0.04457 0.0
N538 N 0.69864 0.27078 -0.0028 0.0
N539 N 0.59413 0.1792 0.07965 0.0
C540 C 0.66967 0.24973 0.01574 0.0
C541 C 0.61683 0.20302 0.05842 0.0
N542 N 0.64108 0.20306 0.97795 0.0
N543 N 0.63567 0.25372 0.09203 0.0
H544 H 0.57549 0.1524 0.0748 0.0
H545 H 0.59524 0.18532 0.10246 0.0
H546 H 0.65239 0.28051 0.09816 0.0
H547 H 0.61387 0.23955 0.10687 0.0
H548 H 0.65573 0.22008 0.96024 0.0
H549 H 0.62279 0.17694 0.97093 0.0
H550 H 0.7043 0.26172 0.97726 0.0
H551 H 0.7191 0.29664 0.003 0.0
C552 C 0.43172 0.6439 0.18017 0.0
C553 C 0.42832 0.62009 0.2036 0.0
C554 C 0.4028 0.64727 0.23736 0.0
C555 C 0.40879 0.67278 0.21468 0.0
N556 N 0.43402 0.69935 0.16634 0.0
N557 N 0.4147 0.6009 0.25532 0.0
C558 C 0.42448 0.6721 0.1865 0.0
C559 C 0.41507 0.62233 0.23248 0.0
N560 N 0.44156 0.63933 0.1518 0.0
N561 N 0.38396 0.64593 0.26298 0.0
H562 H 0.42193 0.58122 0.25223 0.0
H563 H 0.40952 0.60406 0.27773 0.0
H564 H 0.37453 0.66375 0.26732 0.0
H565 H 0.37511 0.62556 0.27889 0.0
H566 H 0.44018 0.65294 0.13296 0.0
H567 H 0.44875 0.62003 0.14653 0.0
H568 H 0.44918 0.70255 0.14684 0.0
H569 H 0.42953 0.72074 0.17027 0.0
C570 C 0.79338 0.44474 0.34984 0.0
C571 C 0.8131 0.43252 0.36741 0.0
C572 C 0.76638 0.41244 0.40714 0.0
C573 C 0.74665 0.42462 0.38954 0.0
N574 N 0.7364 0.44511 0.34199 0.0
N575 N 0.81604 0.39897 0.4095 0.0
C576 C 0.75867 0.4386 0.36019 0.0
C577 C 0.79872 0.41438 0.39503 0.0
N578 N 0.80851 0.46329 0.32379 0.0
N579 N 0.75501 0.40048 0.43585 0.0
H580 H 0.84005 0.4004 0.40127 0.0
H581 H 0.80528 0.38244 0.42824 0.0
H582 H 0.73118 0.39831 0.44528 0.0
H583 H 0.77022 0.39485 0.45109 0.0
H584 H 0.79789 0.47688 0.31192 0.0
H585 H 0.83303 0.46675 0.3147 0.0
H586 H 0.74173 0.45172 0.31929 0.0
H587 H 0.71083 0.44111 0.34891 0.0
C588 C 0.17 0.60189 0.43289 0.0
C589 C 0.1342 0.57184 0.43662 0.0
C590 C 0.14766 0.56571 0.48931 0.0
C591 C 0.18266 0.59694 0.48604 0.0
N592 N 0.2265 0.64714 0.45653 0.0
N593 N 0.08732 0.52616 0.46809 0.0
C594 C 0.19374 0.61563 0.45826 0.0
C595 C 0.12259 0.55398 0.46478 0.0
N596 N 0.18131 0.61697 0.40499 0.0
N597 N 0.13883 0.54686 0.51573 0.0
H598 H 0.06885 0.5153 0.45023 0.0
H599 H 0.07549 0.51475 0.48872 0.0
H600 H 0.1558 0.55554 0.53463 0.0
H601 H 0.11574 0.52167 0.51865 0.0
H602 H 0.20825 0.63631 0.39983 0.0
H603 H 0.16411 0.60867 0.3862 0.0
H604 H 0.23473 0.66427 0.43807 0.0
H605 H 0.24481 0.6575 0.47454 0.0
C606 C 0.5681 0.16268 0.60344 0.0
C607 C 0.56574 0.12888 0.60707 0.0
C608 C 0.58847 0.1443 0.65892 0.0
C609 C 0.58895 0.17727 0.65577 0.0
N610 N 0.5757 0.21685 0.62712 0.0
N611 N 0.57037 0.08557 0.63823 0.0
C612 C 0.57785 0.18624 0.62856 0.0
C613 C 0.57506 0.11915 0.63483 0.0
N614 N 0.56148 0.17235 0.57584 0.0
N615 N 0.60149 0.13743 0.68479 0.0
H616 H 0.56236 0.06707 0.62065 0.0
H617 H 0.57247 0.0751 0.65873 0.0
H618 H 0.60983 0.15445 0.70343 0.0
H619 H 0.60596 0.11593 0.68744 0.0
H620 H 0.56665 0.19799 0.57065 0.0
H621 H 0.5528 0.15524 0.55724 0.0
H622 H 0.56408 0.22322 0.60922 0.0
H623 H 0.58343 0.23509 0.64488 0.0
C624 C 0.39536 0.53112 0.80121 0.0
C625 C 0.42731 0.55611 0.78525 0.0
C626 C 0.4385 0.60158 0.82353 0.0
C627 C 0.40427 0.57768 0.83738 0.0
N628 N 0.34486 0.52385 0.8322 0.0
N629 N 0.47355 0.61807 0.77713 0.0
C630 C 0.38104 0.54368 0.82403 0.0
C631 C 0.44715 0.59232 0.79512 0.0
N632 N 0.37951 0.4952 0.79575 0.0
N633 N 0.46367 0.63212 0.83794 0.0
H634 H 0.47963 0.61259 0.75565 0.0
H635 H 0.48643 0.64531 0.78223 0.0
H636 H 0.45955 0.63912 0.85948 0.0
H637 H 0.49029 0.64847 0.82981 0.0
H638 H 0.35807 0.47602 0.80887 0.0
H639 H 0.39035 0.48439 0.78058 0.0
H640 H 0.32636 0.50021 0.82119 0.0
H641 H 0.33234 0.53318 0.84717 0.0
C642 C 0.83285 0.4109 0.93538 0.0
C643 C 0.86905 0.4399 0.94013 0.0
C644 C 0.85447 0.4444 0.99293 0.0
C645 C 0.81904 0.4141 0.98863 0.0
N646 N 0.77495 0.36595 0.95748 0.0
N647 N 0.91602 0.48274 0.97328 0.0
C648 C 0.80826 0.3967 0.96027 0.0
C649 C 0.88036 0.45622 0.9689 0.0
N650 N 0.82196 0.39727 0.90699 0.0
N651 N 0.86287 0.46254 0.01973 0.0
H652 H 0.93525 0.49368 0.95588 0.0
H653 H 0.92736 0.49271 0.99436 0.0
H654 H 0.84493 0.45416 0.03809 0.0
H655 H 0.8865 0.48716 0.02335 0.0
H656 H 0.7949 0.37896 0.90119 0.0
H657 H 0.83972 0.40579 0.88851 0.0
H658 H 0.76684 0.34961 0.93849 0.0
H659 H 0.75596 0.35535 0.97508 0.0
C660 C 0.43969 0.88778 0.13359 0.0
C661 C 0.44599 0.87664 0.10518 0.0
C662 C 0.42426 0.81617 0.12477 0.0
C663 C 0.42043 0.82807 0.15366 0.0
N664 N 0.42853 0.87567 0.18707 0.0
N665 N 0.4493 0.83236 0.07416 0.0
C666 C 0.42945 0.86408 0.15854 0.0
C667 C 0.43961 0.84136 0.10084 0.0
N668 N 0.44211 0.9205 0.1364 0.0
N669 N 0.41277 0.78072 0.12018 0.0
H670 H 0.46041 0.85011 0.05611 0.0
H671 H 0.44894 0.80833 0.07053 0.0
H672 H 0.40278 0.7618 0.13747 0.0
H673 H 0.41091 0.7695 0.09901 0.0
H674 H 0.43386 0.92863 0.15554 0.0
H675 H 0.44969 0.93871 0.11867 0.0
H676 H 0.4389 0.90249 0.19268 0.0
H677 H 0.41964 0.85875 0.20576 0.0
C678 C 0.55218 0.40858 0.29211 0.0
C679 C 0.57027 0.44437 0.28127 0.0
C680 C 0.6182 0.46031 0.31911 0.0
C681 C 0.59639 0.42675 0.33356 0.0
N682 N 0.53815 0.37106 0.33608 0.0
N683 N 0.61676 0.5064 0.28955 0.0
C684 C 0.56218 0.40124 0.32063 0.0
C685 C 0.60234 0.4709 0.29611 0.0
N686 N 0.52598 0.38149 0.27499 0.0
N687 N 0.65442 0.48165 0.32649 0.0
H688 H 0.60481 0.51581 0.27422 0.0
H689 H 0.6382 0.52666 0.30189 0.0
H690 H 0.66797 0.4738 0.34169 0.0
H691 H 0.67197 0.50501 0.31471 0.0
H692 H 0.51435 0.35455 0.28084 0.0
H693 H 0.51893 0.38565 0.25348 0.0
H694 H 0.51154 0.35357 0.32852 0.0
H695 H 0.54301 0.36548 0.35785 0.0
C696 C 0.45462 0.89177 0.33363 0.0
C697 C 0.43629 0.87824 0.36153 0.0
C698 C 0.39138 0.8221 0.33719 0.0
C699 C 0.40984 0.8356 0.30934 0.0
N700 N 0.46257 0.87946 0.28158 0.0
N701 N 0.39172 0.82897 0.39155 0.0
C702 C 0.44259 0.86934 0.30774 0.0
C703 C 0.40613 0.84278 0.36385 0.0
N704 N 0.48295 0.9264 0.33179 0.0
N705 N 0.35885 0.7903 0.33785 0.0
H706 H 0.40105 0.84381 0.41141 0.0
H707 H 0.37236 0.80217 0.39527 0.0
H708 H 0.34767 0.77414 0.31888 0.0
H709 H 0.34172 0.78082 0.35662 0.0
H710 H 0.49453 0.9394 0.31158 0.0
H711 H 0.4938 0.94304 0.35055 0.0
H712 H 0.48857 0.90204 0.27962 0.0
H713 H 0.45446 0.86358 0.26221 0.0
C714 C 0.56309 0.44647 0.51245 0.0
C715 C 0.55514 0.42735 0.54002 0.0
C716 C 0.56876 0.38351 0.51697 0.0
C717 C 0.57874 0.4038 0.48999 0.0
N718 N 0.58915 0.45598 0.46213 0.0
N719 N 0.55355 0.38014 0.57015 0.0
C720 C 0.57687 0.43566 0.48771 0.0
C721 C 0.5589 0.39654 0.54276 0.0
N722 N 0.55683 0.4746 0.50983 0.0
N723 N 0.56777 0.35131 0.51759 0.0
H724 H 0.54493 0.3881 0.58924 0.0
H725 H 0.55977 0.36007 0.57462 0.0
H726 H 0.57545 0.3413 0.49925 0.0
H727 H 0.55706 0.33326 0.53539 0.0
H728 H 0.55779 0.48704 0.48952 0.0
H729 H 0.54851 0.48446 0.52786 0.0
H730 H 0.59271 0.48157 0.46017 0.0
H731 H 0.59793 0.44811 0.4431 0.0
C732 C 0.15134 0.60218 0.68646 0.0
C733 C 0.1322 0.5667 0.698 0.0
C734 C 0.16153 0.54856 0.65969 0.0
C735 C 0.17498 0.58197 0.64482 0.0
N736 N 0.1759 0.63853 0.64178 0.0
N737 N 0.11231 0.50399 0.69006 0.0
C738 C 0.16821 0.60841 0.65759 0.0
C739 C 0.13535 0.53921 0.68308 0.0
N740 N 0.15427 0.63007 0.70326 0.0
N741 N 0.1747 0.52621 0.65246 0.0
H742 H 0.09095 0.49553 0.70566 0.0
H743 H 0.11181 0.48312 0.67777 0.0
H744 H 0.1961 0.53317 0.63713 0.0
H745 H 0.1676 0.5029 0.66453 0.0
H746 H 0.17074 0.65677 0.69687 0.0
H747 H 0.14356 0.62677 0.72499 0.0
H748 H 0.16818 0.65677 0.64922 0.0
H749 H 0.18622 0.64337 0.61987 0.0
C750 C 0.59077 0.16754 0.86493 0.0
C751 C 0.57127 0.12962 0.86264 0.0
C752 C 0.57593 0.13393 0.80766 0.0
C753 C 0.59924 0.17157 0.8101 0.0
N754 N 0.63352 0.22398 0.84127 0.0
N755 N 0.55102 0.07642 0.83228 0.0
C756 C 0.60782 0.18843 0.8388 0.0
C757 C 0.56536 0.11269 0.83411 0.0
N758 N 0.5923 0.18357 0.89192 0.0
N759 N 0.56281 0.11856 0.78013 0.0
H760 H 0.54338 0.0598 0.85113 0.0
H761 H 0.54991 0.06325 0.81227 0.0
H762 H 0.56911 0.13331 0.76022 0.0
H763 H 0.54271 0.09176 0.7774 0.0
H764 H 0.60286 0.21104 0.89433 0.0
H765 H 0.5801 0.16908 0.91151 0.0
H766 H 0.64381 0.23677 0.86182 0.0
H767 H 0.64703 0.24012 0.82274 0.0
C768 C 0.41861 0.59569 0.04934 0.0
C769 C 0.43865 0.57758 0.04487 0.0
C770 C 0.43622 0.58367 0.99024 0.0
C771 C 0.41891 0.60439 0.99475 0.0
N772 N 0.39971 0.63591 0.02852 0.0
N773 N 0.47343 0.56098 0.01183 0.0
C774 C 0.41179 0.61205 0.02432 0.0
C775 C 0.44956 0.57359 0.01553 0.0
N776 N 0.4051 0.59627 0.07727 0.0
N777 N 0.43824 0.57199 0.96201 0.0
H778 H 0.48406 0.55352 0.02984 0.0
H779 H 0.48538 0.56111 0.9912 0.0
H780 H 0.4278 0.57778 0.94289 0.0
H781 H 0.44697 0.55361 0.95793 0.0
H782 H 0.38701 0.60574 0.08129 0.0
H783 H 0.40956 0.58459 0.09615 0.0
H784 H 0.39773 0.64543 0.04962 0.0
H785 H 0.39483 0.64877 0.01075 0.0
C786 C 0.86251 0.4735 0.18369 0.0
C787 C 0.86737 0.44671 0.19792 0.0
C788 C 0.83143 0.40453 0.15778 0.0
C789 C 0.82317 0.43019 0.14561 0.0
N790 N 0.82131 0.48475 0.15407 0.0
N791 N 0.84754 0.38378 0.2027 0.0
C792 C 0.83575 0.46337 0.16074 0.0
C793 C 0.84899 0.41123 0.1863 0.0
N794 N 0.8845 0.50885 0.19084 0.0
N795 N 0.8246 0.37481 0.14164 0.0
H796 H 0.85885 0.38742 0.22419 0.0
H797 H 0.83168 0.35699 0.1963 0.0
H798 H 0.81391 0.36971 0.11989 0.0
H799 H 0.83342 0.35726 0.1486 0.0
H800 H 0.88383 0.52936 0.17897 0.0
H801 H 0.90617 0.51796 0.20613 0.0
H802 H 0.82771 0.5078 0.16635 0.0
H803 H 0.79963 0.47718 0.13898 0.0
loop_
_geom_bond_atom_site_label_1
_geom_bond_atom_site_label_2
_geom_bond_distance
_geom_bond_site_symmetry_2
_ccdc_geom_bond_type
H0 C19 0.949 . S
H1 C20 0.950 . S
H2 C22 0.950 . S
H3 C23 0.950 . S
H4 C25 0.950 . S
H5 C28 0.950 . S
H6 C29 0.950 . S
H7 C31 0.951 . S
H8 C32 0.949 . S
H9 C34 0.949 . S
H10 C35 0.950 . S
H11 C37 0.950 . S
H12 C38 0.950 . S
H13 C40 0.950 1_655 S
H14 C43 0.950 . S
H15 C44 0.950 . S
H16 C46 0.951 . S
H17 C47 0.949 . S
C18 C19 1.376 . S
C18 C23 1.386 . S
C18 C24 1.483 . S
C19 H0 0.949 . S
C19 C18 1.376 . S
C19 C20 1.397 . S
C20 H1 0.950 . S
C20 C19 1.397 . S
C20 C21 1.391 . S
C21 C20 1.391 . S
C21 C22 1.405 . S
C22 H2 0.950 . S
C22 C21 1.405 . S
C22 C23 1.367 . S
C23 H3 0.950 . S
C23 C18 1.386 . S
C23 C22 1.367 . S
C24 C18 1.483 . S
C24 C25 1.382 1_655 S
C24 C26 1.403 . S
C25 H4 0.950 . S
C25 C24 1.382 1_455 S
C25 C41 1.411 . S
C26 C24 1.403 . S
C26 C27 1.489 . S
C26 C40 1.411 1_655 S
C27 C26 1.489 . S
C27 C28 1.383 . S
C27 C32 1.382 . S
C28 H5 0.950 . S
C28 C27 1.383 . S
C28 C29 1.395 . S
C29 H6 0.950 . S
C29 C28 1.395 . S
C29 C30 1.288 . S
C30 C29 1.288 . S
C30 C31 1.392 . S
C31 H7 0.951 . S
C31 C30 1.392 . S
C31 C32 1.392 . S
C32 H8 0.949 . S
C32 C27 1.382 . S
C32 C31 1.392 . S
C33 C34 1.376 . S
C33 C38 1.386 . S
C33 C39 1.483 . S
C34 H9 0.949 . S
C34 C33 1.376 . S
C34 C35 1.397 . S
C35 H10 0.950 . S
C35 C34 1.397 . S
C35 C36 1.391 . S
C36 C35 1.391 . S
C36 C37 1.405 . S
C37 H11 0.950 . S
C37 C36 1.405 . S
C37 C38 1.367 . S
C38 H12 0.950 . S
C38 C33 1.386 . S
C38 C37 1.367 . S
C39 C33 1.483 . S
C39 C40 1.382 . S
C39 C41 1.403 . S
C40 H13 0.950 1_455 S
C40 C26 1.411 1_455 S
C40 C39 1.382 . S
C41 C25 1.411 . S
C41 C39 1.403 . S
C41 C42 1.489 . S
C42 C41 1.489 . S
C42 C43 1.383 . S
C42 C47 1.382 . S
C43 H14 0.950 . S
C43 C42 1.383 . S
C43 C44 1.395 . S
C44 H15 0.950 . S
C44 C43 1.395 . S
C44 C45 1.288 . S
C45 C44 1.288 . S
C45 C46 1.392 . S
C46 H16 0.951 . S
C46 C45 1.392 . S
C46 C47 1.392 . S
C47 H17 0.949 . S
C47 C42 1.382 . S
C47 C46 1.392 . S
H48 C67 0.949 . S
H49 C68 0.950 . S
H50 C70 0.950 . S
H51 C71 0.950 . S
H52 C73 0.950 . S
H53 C76 0.950 . S
H54 C77 0.950 . S
H55 C79 0.951 . S
H56 C80 0.949 . S
H57 C82 0.949 . S
H58 C83 0.950 . S
H59 C85 0.950 . S
H60 C86 0.950 . S
H61 C88 0.950 . S
H62 C91 0.950 . S
H63 C92 0.950 . S
H64 C94 0.951 . S
H65 C95 0.949 . S
C66 C67 1.376 . S
C66 C71 1.386 . S
C66 C72 1.483 . S
C67 H48 0.949 . S
C67 C66 1.376 . S
C67 C68 1.397 . S
C68 H49 0.950 . S
C68 C67 1.397 . S
C68 C69 1.391 . S
C69 C68 1.391 . S
C69 C70 1.405 . S
C70 H50 0.950 . S
C70 C69 1.405 . S
C70 C71 1.367 . S
C71 H51 0.950 . S
C71 C66 1.386 . S
C71 C70 1.367 . S
C72 C66 1.483 . S
C72 C73 1.381 . S
C72 C74 1.403 . S
C73 H52 0.950 . S
C73 C72 1.381 . S
C73 C89 1.412 1_565 S
C74 C72 1.403 . S
C74 C75 1.489 . S
C74 C88 1.411 1_565 S
C75 C74 1.489 . S
C75 C76 1.383 . S
C75 C80 1.382 . S
C76 H53 0.950 . S
C76 C75 1.383 . S
C76 C77 1.395 . S
C77 H54 0.950 . S
C77 C76 1.395 . S
C77 C78 1.288 . S
C78 C77 1.288 . S
C78 C79 1.392 . S
C79 H55 0.951 . S
C79 C78 1.392 . S
C79 C80 1.392 . S
C80 H56 0.949 . S
C80 C75 1.382 . S
C80 C79 1.392 . S
C81 C82 1.376 . S
C81 C86 1.386 . S
C81 C87 1.483 . S
C82 H57 0.949 . S
C82 C81 1.376 . S
C82 C83 1.397 . S
C83 H58 0.950 . S
C83 C82 1.397 . S
C83 C84 1.391 . S
C84 C83 1.391 . S
C84 C85 1.405 . S
C85 H59 0.950 . S
C85 C84 1.405 . S
C85 C86 1.367 . S
C86 H60 0.950 . S
C86 C81 1.386 . S
C86 C85 1.367 . S
C87 C81 1.483 . S
C87 C88 1.382 . S
C87 C89 1.403 . S
C88 H61 0.950 . S
C88 C74 1.411 1_545 S
C88 C87 1.382 . S
C89 C73 1.412 1_545 S
C89 C87 1.403 . S
C89 C90 1.489 . S
C90 C89 1.489 . S
C90 C91 1.383 . S
C90 C95 1.382 . S
C91 H62 0.950 . S
C91 C90 1.383 . S
C91 C92 1.395 . S
C92 H63 0.950 . S
C92 C91 1.395 . S
C92 C93 1.288 . S
C93 C92 1.288 . S
C93 C94 1.392 . S
C94 H64 0.951 . S
C94 C93 1.392 . S
C94 C95 1.392 . S
C95 H65 0.949 . S
C95 C90 1.382 . S
C95 C94 1.392 . S
H96 C115 0.949 . S
H97 C116 0.950 . S
H98 C118 0.950 . S
H99 C119 0.950 . S
H100 C121 0.950 . S
H101 C124 0.950 . S
H102 C125 0.950 . S
H103 C127 0.951 . S
H104 C128 0.949 . S
H105 C130 0.949 . S
H106 C131 0.950 . S
H107 C133 0.950 . S
H108 C134 0.950 . S
H109 C136 0.950 . S
H110 C139 0.950 . S
H111 C140 0.950 . S
H112 C142 0.951 . S
H113 C143 0.949 . S
C114 C115 1.376 . S
C114 C119 1.386 . S
C114 C120 1.483 . S
C115 H96 0.949 . S
C115 C114 1.376 . S
C115 C116 1.397 . S
C116 H97 0.950 . S
C116 C115 1.397 . S
C116 C117 1.391 . S
C117 C116 1.391 . S
C117 C118 1.405 . S
C118 H98 0.950 . S
C118 C117 1.405 . S
C118 C119 1.367 . S
C119 H99 0.950 . S
C119 C114 1.386 . S
C119 C118 1.367 . S
C120 C114 1.483 . S
C120 C121 1.382 . S
C120 C122 1.403 . S
C121 H100 0.950 . S
C121 C120 1.382 . S
C121 C137 1.411 . S
C122 C120 1.403 . S
C122 C123 1.489 . S
C122 C136 1.411 . S
C123 C122 1.489 . S
C123 C124 1.383 . S
C123 C128 1.382 . S
C124 H101 0.950 . S
C124 C123 1.383 . S
C124 C125 1.395 . S
C125 H102 0.950 . S
C125 C124 1.395 . S
C125 C126 1.288 . S
C126 C125 1.288 . S
C126 C127 1.392 . S
C127 H103 0.951 . S
C127 C126 1.392 . S
C127 C128 1.392 . S
C128 H104 0.949 . S
C128 C123 1.382 . S
C128 C127 1.392 . S
C129 C130 1.376 . S
C129 C134 1.386 . S
C129 C135 1.483 . S
C130 H105 0.949 . S
C130 C129 1.376 . S
C130 C131 1.397 . S
C131 H106 0.950 . S
C131 C130 1.397 . S
C131 C132 1.391 . S
C132 C131 1.391 . S
C132 C133 1.405 . S
C133 H107 0.950 . S
C133 C132 1.405 . S
C133 C134 1.367 . S
C134 H108 0.950 . S
C134 C129 1.386 . S
C134 C133 1.367 . S
C135 C129 1.483 . S
C135 C136 1.382 . S
C135 C137 1.403 . S
C136 H109 0.950 . S
C136 C122 1.411 . S
C136 C135 1.382 . S
C137 C121 1.411 . S
C137 C135 1.403 . S
C137 C138 1.489 . S
C138 C137 1.489 . S
C138 C139 1.383 . S
C138 C143 1.382 . S
C139 H110 0.950 . S
C139 C138 1.383 . S
C139 C140 1.395 . S
C140 H111 0.950 . S
C140 C139 1.395 . S
C140 C141 1.288 . S
C141 C140 1.288 . S
C141 C142 1.392 . S
C142 H112 0.951 . S
C142 C141 1.392 . S
C142 C143 1.392 . S
C143 H113 0.949 . S
C143 C138 1.382 . S
C143 C142 1.392 . S
H144 C163 0.949 . S
H145 C164 0.950 . S
H146 C166 0.950 . S
H147 C167 0.950 . S
H148 C169 0.950 . S
H149 C172 0.950 . S
H150 C173 0.950 . S
H151 C175 0.951 . S
H152 C176 0.949 . S
H153 C178 0.949 . S
H154 C179 0.950 . S
H155 C181 0.950 . S
H156 C182 0.950 . S
H157 C184 0.950 . S
H158 C187 0.950 . S
H159 C188 0.950 . S
H160 C190 0.951 . S
H161 C191 0.949 . S
C162 C163 1.376 . S
C162 C167 1.386 . S
C162 C168 1.483 . S
C163 H144 0.949 . S
C163 C162 1.376 . S
C163 C164 1.397 . S
C164 H145 0.950 . S
C164 C163 1.397 . S
C164 C165 1.391 . S
C165 C164 1.391 . S
C165 C166 1.405 . S
C166 H146 0.950 . S
C166 C165 1.405 . S
C166 C167 1.367 . S
C167 H147 0.950 . S
C167 C162 1.386 . S
C167 C166 1.367 . S
C168 C162 1.483 . S
C168 C169 1.382 1_455 S
C168 C170 1.403 . S
C169 H148 0.950 . S
C169 C168 1.382 1_655 S
C169 C185 1.411 . S
C170 C168 1.403 . S
C170 C171 1.489 . S
C170 C184 1.411 . S
C171 C170 1.489 . S
C171 C172 1.383 . S
C171 C176 1.382 . S
C172 H149 0.950 . S
C172 C171 1.383 . S
C172 C173 1.395 . S
C173 H150 0.950 . S
C173 C172 1.395 . S
C173 C174 1.288 . S
C174 C173 1.288 . S
C174 C175 1.392 . S
C175 H151 0.951 . S
C175 C174 1.392 . S
C175 C176 1.392 . S
C176 H152 0.949 . S
C176 C171 1.382 . S
C176 C175 1.392 . S
C177 C178 1.376 . S
C177 C182 1.386 . S
C177 C183 1.483 . S
C178 H153 0.949 . S
C178 C177 1.376 . S
C178 C179 1.397 . S
C179 H154 0.950 . S
C179 C178 1.397 . S
C179 C180 1.391 . S
C180 C179 1.391 . S
C180 C181 1.405 . S
C181 H155 0.950 . S
C181 C180 1.405 . S
C181 C182 1.367 . S
C182 H156 0.950 . S
C182 C177 1.386 . S
C182 C181 1.367 . S
C183 C177 1.483 . S
C183 C184 1.382 1_655 S
C183 C185 1.403 . S
C184 H157 0.950 . S
C184 C170 1.411 . S
C184 C183 1.382 1_455 S
C185 C169 1.411 . S
C185 C183 1.403 . S
C185 C186 1.489 . S
C186 C185 1.489 . S
C186 C187 1.383 . S
C186 C191 1.382 . S
C187 H158 0.950 . S
C187 C186 1.383 . S
C187 C188 1.395 . S
C188 H159 0.950 . S
C188 C187 1.395 . S
C188 C189 1.288 . S
C189 C188 1.288 . S
C189 C190 1.392 . S
C190 H160 0.951 . S
C190 C189 1.392 . S
C190 C191 1.392 . S
C191 H161 0.949 . S
C191 C186 1.382 . S
C191 C190 1.392 . S
H192 C211 0.949 . S
H193 C212 0.950 . S
H194 C214 0.950 . S
H195 C215 0.950 1_556 S
H196 C217 0.950 . S
H197 C220 0.950 . S
H198 C221 0.950 . S
H199 C223 0.951 . S
H200 C224 0.949 . S
H201 C226 0.949 . S
H202 C227 0.950 . S
H203 C229 0.950 . S
H204 C230 0.960 . S
H205 C232 0.950 . S
H206 C235 0.950 . S
H207 C236 0.950 . S
H208 C238 0.951 . S
H209 C239 0.949 . S
C210 C211 1.376 . S
C210 C215 1.386 . S
C210 C216 1.489 . S
C211 H192 0.949 . S
C211 C210 1.376 . S
C211 C212 1.397 . S
C212 H193 0.950 . S
C212 C211 1.397 . S
C212 C213 1.391 . S
C213 C212 1.391 . S
C213 C214 1.405 . S
C214 H194 0.950 . S
C214 C213 1.405 . S
C214 C215 1.367 . S
C215 H195 0.950 1_554 S
C215 C210 1.386 . S
C215 C214 1.367 . S
C216 C210 1.489 . S
C216 C217 1.398 . S
C216 C218 1.382 1_554 S
C217 H196 0.950 . S
C217 C216 1.398 . S
C217 C233 1.411 1_545 S
C218 C216 1.382 1_556 S
C218 C219 1.489 . S
C218 C232 1.411 1_545 S
C219 C218 1.489 . S
C219 C220 1.383 . S
C219 C224 1.382 . S
C220 H197 0.950 . S
C220 C219 1.383 . S
C220 C221 1.395 . S
C221 H198 0.950 . S
C221 C220 1.395 . S
C221 C222 1.288 . S
C222 C221 1.288 . S
C222 C223 1.392 . S
C223 H199 0.951 . S
C223 C222 1.392 . S
C223 C224 1.392 . S
C224 H200 0.949 . S
C224 C219 1.382 . S
C224 C223 1.392 . S
C225 C226 1.376 . S
C225 C230 1.386 . S
C225 C231 1.483 . S
C226 H201 0.949 . S
C226 C225 1.376 . S
C226 C227 1.397 . S
C227 H202 0.950 . S
C227 C226 1.397 . S
C227 C228 1.391 . S
C228 C227 1.391 . S
C228 C229 1.405 . S
C229 H203 0.950 . S
C229 C228 1.405 . S
C229 C230 1.367 . S
C230 H204 0.960 . S
C230 C225 1.386 . S
C230 C229 1.367 . S
C231 C225 1.483 . S
C231 C232 1.382 . S
C231 C233 1.403 1_556 S
C232 H205 0.950 . S
C232 C218 1.411 1_565 S
C232 C231 1.382 . S
C233 C217 1.411 1_565 S
C233 C231 1.403 1_554 S
C233 C234 1.489 . S
C234 C233 1.489 . S
C234 C235 1.383 . S
C234 C239 1.382 . S
C235 H206 0.950 . S
C235 C234 1.383 . S
C235 C236 1.395 . S
C236 H207 0.950 . S
C236 C235 1.395 . S
C236 C237 1.288 . S
C237 C236 1.288 . S
C237 C238 1.392 . S
C238 H208 0.951 . S
C238 C237 1.392 . S
C238 C239 1.392 . S
C239 H209 0.949 . S
C239 C234 1.382 . S
C239 C238 1.392 . S
H240 C259 0.949 . S
H241 C260 0.950 . S
H242 C262 0.950 . S
H243 C263 0.950 . S
H244 C265 0.950 . S
H245 C268 0.950 . S
H246 C269 0.950 . S
H247 C271 0.951 . S
H248 C272 0.949 . S
H249 C274 0.949 . S
H250 C275 0.950 . S
H251 C277 0.950 . S
H252 C278 0.950 . S
H253 C280 0.950 . S
H254 C283 0.950 . S
H255 C284 0.950 . S
H256 C286 0.951 . S
H257 C287 0.949 . S
C258 C259 1.376 . S
C258 C263 1.386 . S
C258 C264 1.483 . S
C259 H240 0.949 . S
C259 C258 1.376 . S
C259 C260 1.397 . S
C260 H241 0.950 . S
C260 C259 1.397 . S
C260 C261 1.391 . S
C261 C260 1.391 . S
C261 C262 1.405 . S
C262 H242 0.950 . S
C262 C261 1.405 . S
C262 C263 1.367 . S
C263 H243 0.950 . S
C263 C258 1.386 . S
C263 C262 1.367 . S
C264 C258 1.483 . S
C264 C265 1.382 . S
C264 C266 1.403 . S
C265 H244 0.950 . S
C265 C264 1.382 . S
C265 C281 1.411 . S
C266 C264 1.403 . S
C266 C267 1.489 . S
C266 C280 1.411 . S
C267 C266 1.489 . S
C267 C268 1.383 . S
C267 C272 1.382 . S
C268 H245 0.950 . S
C268 C267 1.383 . S
C268 C269 1.395 . S
C269 H246 0.950 . S
C269 C268 1.395 . S
C269 C270 1.288 . S
C270 C269 1.288 . S
C270 C271 1.392 . S
C271 H247 0.951 . S
C271 C270 1.392 . S
C271 C272 1.392 . S
C272 H248 0.949 . S
C272 C267 1.382 . S
C272 C271 1.392 . S
C273 C274 1.376 . S
C273 C278 1.386 . S
C273 C279 1.483 . S
C274 H249 0.949 . S
C274 C273 1.376 . S
C274 C275 1.397 . S
C275 H250 0.950 . S
C275 C274 1.397 . S
C275 C276 1.391 . S
C276 C275 1.391 . S
C276 C277 1.405 . S
C277 H251 0.950 . S
C277 C276 1.405 . S
C277 C278 1.367 . S
C278 H252 0.950 . S
C278 C273 1.386 . S
C278 C277 1.367 . S
C279 C273 1.483 . S
C279 C280 1.382 . S
C279 C281 1.403 . S
C280 H253 0.950 . S
C280 C266 1.411 . S
C280 C279 1.382 . S
C281 C265 1.411 . S
C281 C279 1.403 . S
C281 C282 1.489 . S
C282 C281 1.489 . S
C282 C283 1.383 . S
C282 C287 1.382 . S
C283 H254 0.950 . S
C283 C282 1.383 . S
C283 C284 1.395 . S
C284 H255 0.950 . S
C284 C283 1.395 . S
C284 C285 1.288 . S
C285 C284 1.288 . S
C285 C286 1.392 . S
C286 H256 0.951 . S
C286 C285 1.392 . S
C286 C287 1.392 . S
C287 H257 0.949 . S
C287 C282 1.382 . S
C287 C286 1.392 . S
C288 O289 1.306 . S
C288 O291 1.160 . S
O289 C288 1.306 . S
O289 Cd290 2.228 . S
Cd290 O289 2.228 . S
Cd290 O294 2.273 . S
Cd290 O298 2.277 . S
O291 C288 1.160 . S
O291 Cd292 2.203 . S
Cd292 O291 2.203 . S
Cd292 O294 2.411 . S
Cd292 O295 2.333 . S
Cd292 O296 2.352 . S
Cd292 O300 2.277 . S
Cd292 O301 2.356 . S
C293 O298 1.209 . S
C293 O300 1.226 . S
O294 Cd290 2.273 . S
O294 Cd292 2.411 . S
O294 C297 1.320 . S
O295 Cd292 2.333 . S
O295 C297 1.214 . S
O296 Cd292 2.352 . S
O296 C299 1.258 . S
C297 O294 1.320 . S
C297 O295 1.214 . S
O298 Cd290 2.277 . S
O298 C293 1.209 . S
C299 O296 1.258 . S
C299 O301 1.282 . S
O300 Cd292 2.277 . S
O300 C293 1.226 . S
O301 Cd292 2.356 . S
O301 C299 1.282 . S
C302 O303 1.306 . S
C302 O305 1.160 . S
O303 C302 1.306 . S
O303 Cd304 2.228 . S
Cd304 O303 2.228 . S
Cd304 O308 2.273 . S
Cd304 O312 2.277 . S
O305 C302 1.160 . S
O305 Cd306 2.203 . S
Cd306 O305 2.203 . S
Cd306 O308 2.411 . S
Cd306 O309 2.333 . S
Cd306 O310 2.352 . S
Cd306 O314 2.277 . S
Cd306 O315 2.356 . S
C307 O312 1.209 . S
C307 O314 1.226 . S
O308 Cd304 2.273 . S
O308 Cd306 2.411 . S
O308 C311 1.320 . S
O309 Cd306 2.333 . S
O309 C311 1.214 . S
O310 Cd306 2.352 . S
O310 C313 1.258 . S
C311 O308 1.320 . S
C311 O309 1.214 . S
O312 Cd304 2.277 . S
O312 C307 1.209 . S
C313 O310 1.258 . S
C313 O315 1.282 . S
O314 Cd306 2.277 . S
O314 C307 1.226 . S
O315 Cd306 2.356 . S
O315 C313 1.282 . S
C316 O317 1.306 . S
C316 O319 1.160 . S
O317 C316 1.306 . S
O317 Cd318 2.228 . S
Cd318 O317 2.228 . S
Cd318 O322 2.273 . S
Cd318 O326 2.277 . S
O319 C316 1.160 . S
O319 Cd320 2.203 . S
Cd320 O319 2.203 . S
Cd320 O322 2.411 . S
Cd320 O323 2.333 . S
Cd320 O324 2.352 . S
Cd320 O328 2.277 . S
Cd320 O329 2.356 . S
C321 O326 1.209 . S
C321 O328 1.226 . S
O322 Cd318 2.273 . S
O322 Cd320 2.411 . S
O322 C325 1.320 . S
O323 Cd320 2.333 . S
O323 C325 1.214 . S
O324 Cd320 2.352 . S
O324 C327 1.258 . S
C325 O322 1.320 . S
C325 O323 1.214 . S
O326 Cd318 2.277 . S
O326 C321 1.209 . S
C327 O324 1.258 . S
C327 O329 1.282 . S
O328 Cd320 2.277 . S
O328 C321 1.226 . S
O329 Cd320 2.356 . S
O329 C327 1.282 . S
C330 O331 1.306 . S
C330 O333 1.160 . S
O331 C330 1.306 . S
O331 Cd332 2.228 . S
Cd332 O331 2.228 . S
Cd332 O336 2.273 . S
Cd332 O340 2.277 . S
O333 C330 1.160 . S
O333 Cd334 2.203 . S
Cd334 O333 2.203 . S
Cd334 O336 2.411 . S
Cd334 O337 2.333 . S
Cd334 O338 2.352 . S
Cd334 O342 2.277 . S
Cd334 O343 2.356 . S
C335 O340 1.209 . S
C335 O342 1.226 . S
O336 Cd332 2.273 . S
O336 Cd334 2.411 . S
O336 C339 1.320 . S
O337 Cd334 2.333 . S
O337 C339 1.214 . S
O338 Cd334 2.352 . S
O338 C341 1.258 . S
C339 O336 1.320 . S
C339 O337 1.214 . S
O340 Cd332 2.277 . S
O340 C335 1.209 . S
C341 O338 1.258 . S
C341 O343 1.282 . S
O342 Cd334 2.277 . S
O342 C335 1.226 . S
O343 Cd334 2.356 . S
O343 C341 1.282 . S
C344 O345 1.306 . S
C344 O347 1.160 . S
O345 C344 1.306 . S
O345 Cd346 2.228 . S
Cd346 O345 2.228 . S
Cd346 O350 2.273 . S
Cd346 O354 2.277 . S
O347 C344 1.160 . S
O347 Cd348 2.203 . S
Cd348 O347 2.203 . S
Cd348 O350 2.411 . S
Cd348 O351 2.333 . S
Cd348 O352 2.352 . S
Cd348 O356 2.277 . S
Cd348 O357 2.356 . S
C349 O354 1.209 . S
C349 O356 1.226 . S
O350 Cd346 2.273 . S
O350 Cd348 2.411 . S
O350 C353 1.320 . S
O351 Cd348 2.333 . S
O351 C353 1.214 . S
O352 Cd348 2.352 . S
O352 C355 1.258 . S
C353 O350 1.320 . S
C353 O351 1.214 . S
O354 Cd346 2.277 . S
O354 C349 1.209 . S
C355 O352 1.258 . S
C355 O357 1.282 . S
O356 Cd348 2.277 . S
O356 C349 1.226 . S
O357 Cd348 2.356 . S
O357 C355 1.282 . S
C358 O359 1.306 . S
C358 O361 1.160 . S
O359 C358 1.306 . S
O359 Cd360 2.228 . S
Cd360 O359 2.228 . S
Cd360 O364 2.273 . S
Cd360 O368 2.277 . S
O361 C358 1.160 . S
O361 Cd362 2.203 . S
Cd362 O361 2.203 . S
Cd362 O364 2.411 . S
Cd362 O365 2.333 . S
Cd362 O366 2.352 . S
Cd362 O370 2.277 . S
Cd362 O371 2.356 . S
C363 O368 1.209 . S
C363 O370 1.226 . S
O364 Cd360 2.273 . S
O364 Cd362 2.411 . S
O364 C367 1.320 . S
O365 Cd362 2.333 . S
O365 C367 1.214 . S
O366 Cd362 2.352 . S
O366 C369 1.258 . S
C367 O364 1.320 . S
C367 O365 1.214 . S
O368 Cd360 2.277 . S
O368 C363 1.209 . S
C369 O366 1.258 . S
C369 O371 1.282 . S
O370 Cd362 2.277 . S
O370 C363 1.226 . S
O371 Cd362 2.356 . S
O371 C369 1.282 . S
C372 C373 1.363 . S
C372 C378 1.379 . S
C372 N380 1.356 . S
C373 C372 1.363 . S
C373 C379 1.363 . S
C374 C375 1.363 . S
C374 C379 1.379 . S
C374 N381 1.356 . S
C375 C374 1.363 . S
C375 C378 1.363 . S
N376 C378 1.356 . S
N376 H388 0.984 . S
N376 H389 0.985 . S
N377 C379 1.356 . S
N377 H382 0.984 . S
N377 H383 0.985 . S
C378 C372 1.379 . S
C378 C375 1.363 . S
C378 N376 1.356 . S
C379 C373 1.363 . S
C379 C374 1.379 . S
C379 N377 1.356 . S
N380 C372 1.356 . S
N380 H386 0.984 . S
N380 H387 0.984 . S
N381 C374 1.356 . S
N381 H384 0.984 . S
N381 H385 0.985 . S
H382 N377 0.984 . S
H383 N377 0.985 . S
H384 N381 0.984 . S
H385 N381 0.985 . S
H386 N380 0.984 . S
H387 N380 0.984 . S
H388 N376 0.984 . S
H389 N376 0.985 . S
C390 C391 1.363 . S
C390 C396 1.379 . S
C390 N398 1.356 . S
C391 C390 1.363 . S
C391 C397 1.363 . S
C392 C393 1.363 . S
C392 C397 1.379 . S
C392 N399 1.356 . S
C393 C392 1.363 . S
C393 C396 1.363 . S
N394 C396 1.356 . S
N394 H406 0.984 . S
N394 H407 0.985 . S
N395 C397 1.356 . S
N395 H400 0.984 . S
N395 H401 0.985 . S
C396 C390 1.379 . S
C396 C393 1.363 . S
C396 N394 1.356 . S
C397 C391 1.363 . S
C397 C392 1.379 . S
C397 N395 1.356 . S
N398 C390 1.356 . S
N398 H404 0.984 . S
N398 H405 0.984 . S
N399 C392 1.356 . S
N399 H402 0.984 . S
N399 H403 0.985 . S
H400 N395 0.984 . S
H401 N395 0.985 . S
H402 N399 0.984 . S
H403 N399 0.985 . S
H404 N398 0.984 . S
H405 N398 0.984 . S
H406 N394 0.984 . S
H407 N394 0.985 . S
C408 C409 1.363 . S
C408 C414 1.379 . S
C408 N416 1.356 . S
C409 C408 1.363 . S
C409 C415 1.363 . S
C410 C411 1.363 . S
C410 C415 1.379 . S
C410 N417 1.356 . S
C411 C410 1.363 . S
C411 C414 1.363 . S
N412 C414 1.356 . S
N412 H424 0.984 . S
N412 H425 0.985 . S
N413 C415 1.356 . S
N413 H418 0.984 . S
N413 H419 0.985 . S
C414 C408 1.379 . S
C414 C411 1.363 . S
C414 N412 1.356 . S
C415 C409 1.363 . S
C415 C410 1.379 . S
C415 N413 1.356 . S
N416 C408 1.356 . S
N416 H422 0.984 . S
N416 H423 0.984 . S
N417 C410 1.356 . S
N417 H420 0.984 . S
N417 H421 0.985 . S
H418 N413 0.984 . S
H419 N413 0.985 . S
H420 N417 0.984 . S
H421 N417 0.985 . S
H422 N416 0.984 . S
H423 N416 0.984 . S
H424 N412 0.984 . S
H425 N412 0.985 . S
C426 C427 1.363 . S
C426 C432 1.379 . S
C426 N434 1.356 . S
C427 C426 1.363 . S
C427 C433 1.363 . S
C428 C429 1.363 . S
C428 C433 1.379 . S
C428 N435 1.356 . S
C429 C428 1.363 . S
C429 C432 1.363 . S
N430 C432 1.356 . S
N430 H442 0.984 . S
N430 H443 0.985 . S
N431 C433 1.356 . S
N431 H436 0.984 . S
N431 H437 0.985 . S
C432 C426 1.379 . S
C432 C429 1.363 . S
C432 N430 1.356 . S
C433 C427 1.363 . S
C433 C428 1.379 . S
C433 N431 1.356 . S
N434 C426 1.356 . S
N434 H440 0.984 . S
N434 H441 0.984 . S
N435 C428 1.356 . S
N435 H438 0.984 . S
N435 H439 0.985 . S
H436 N431 0.984 . S
H437 N431 0.985 . S
H438 N435 0.984 . S
H439 N435 0.985 . S
H440 N434 0.984 . S
H441 N434 0.984 . S
H442 N430 0.984 . S
H443 N430 0.985 . S
C444 C445 1.363 . S
C444 C450 1.379 . S
C444 N452 1.356 . S
C445 C444 1.363 . S
C445 C451 1.363 . S
C446 C447 1.363 . S
C446 C451 1.379 . S
C446 N453 1.356 . S
C447 C446 1.363 . S
C447 C450 1.363 . S
N448 C450 1.356 . S
N448 H460 0.984 . S
N448 H461 0.985 . S
N449 C451 1.356 . S
N449 H454 0.984 . S
N449 H455 0.985 . S
C450 C444 1.379 . S
C450 C447 1.363 . S
C450 N448 1.356 . S
C451 C445 1.363 . S
C451 C446 1.379 . S
C451 N449 1.356 . S
N452 C444 1.356 . S
N452 H458 0.984 1_556 S
N452 H459 0.984 . S
N453 C446 1.356 . S
N453 H456 0.984 . S
N453 H457 0.985 . S
H454 N449 0.984 . S
H455 N449 0.985 . S
H456 N453 0.984 . S
H457 N453 0.985 . S
H458 N452 0.984 1_554 S
H459 N452 0.984 . S
H460 N448 0.984 . S
H461 N448 0.985 . S
C462 C463 1.363 . S
C462 C468 1.379 . S
C462 N470 1.356 . S
C463 C462 1.363 . S
C463 C469 1.363 . S
C464 C465 1.363 . S
C464 C469 1.379 . S
C464 N471 1.356 . S
C465 C464 1.363 . S
C465 C468 1.363 . S
N466 C468 1.356 . S
N466 H478 0.984 . S
N466 H479 0.985 . S
N467 C469 1.356 . S
N467 H472 0.984 . S
N467 H473 0.985 . S
C468 C462 1.379 . S
C468 C465 1.363 . S
C468 N466 1.356 . S
C469 C463 1.363 . S
C469 C464 1.379 . S
C469 N467 1.356 . S
N470 C462 1.356 . S
N470 H476 0.984 . S
N470 H477 0.984 . S
N471 C464 1.356 . S
N471 H474 0.984 . S
N471 H475 0.985 . S
H472 N467 0.984 . S
H473 N467 0.985 . S
H474 N471 0.984 . S
H475 N471 0.985 . S
H476 N470 0.984 . S
H477 N470 0.984 . S
H478 N466 0.984 . S
H479 N466 0.985 . S
C480 C481 1.363 . S
C480 C486 1.379 . S
C480 N488 1.356 . S
C481 C480 1.363 . S
C481 C487 1.363 . S
C482 C483 1.363 . S
C482 C487 1.379 . S
C482 N489 1.356 . S
C483 C482 1.363 . S
C483 C486 1.363 . S
N484 C486 1.356 . S
N484 H496 0.984 . S
N484 H497 0.985 . S
N485 C487 1.356 . S
N485 H490 0.984 . S
N485 H491 0.985 . S
C486 C480 1.379 . S
C486 C483 1.363 . S
C486 N484 1.356 . S
C487 C481 1.363 . S
C487 C482 1.379 . S
C487 N485 1.356 . S
N488 C480 1.356 . S
N488 H494 0.984 . S
N488 H495 0.984 . S
N489 C482 1.356 . S
N489 H492 0.984 . S
N489 H493 0.985 . S
H490 N485 0.984 . S
H491 N485 0.985 . S
H492 N489 0.984 . S
H493 N489 0.985 . S
H494 N488 0.984 . S
H495 N488 0.984 . S
H496 N484 0.984 . S
H497 N484 0.985 . S
C498 C499 1.363 . S
C498 C504 1.379 . S
C498 N506 1.356 . S
C499 C498 1.363 . S
C499 C505 1.363 . S
C500 C501 1.363 . S
C500 C505 1.379 . S
C500 N507 1.356 . S
C501 C500 1.363 . S
C501 C504 1.363 . S
N502 C504 1.356 . S
N502 H514 0.984 . S
N502 H515 0.985 . S
N503 C505 1.356 . S
N503 H508 0.984 . S
N503 H509 0.985 . S
C504 C498 1.379 . S
C504 C501 1.363 . S
C504 N502 1.356 . S
C505 C499 1.363 . S
C505 C500 1.379 . S
C505 N503 1.356 . S
N506 C498 1.356 . S
N506 H512 0.984 . S
N506 H513 0.984 . S
N507 C500 1.356 . S
N507 H510 0.984 . S
N507 H511 0.985 . S
H508 N503 0.984 . S
H509 N503 0.985 . S
H510 N507 0.984 . S
H511 N507 0.985 . S
H512 N506 0.984 . S
H513 N506 0.984 . S
H514 N502 0.984 . S
H515 N502 0.985 . S
C516 C517 1.363 . S
C516 C522 1.379 . S
C516 N524 1.356 . S
C517 C516 1.363 . S
C517 C523 1.363 . S
C518 C519 1.363 . S
C518 C523 1.379 . S
C518 N525 1.356 . S
C519 C518 1.363 . S
C519 C522 1.363 . S
N520 C522 1.356 . S
N520 H532 0.984 . S
N520 H533 0.985 . S
N521 C523 1.356 . S
N521 H526 0.984 . S
N521 H527 0.985 . S
C522 C516 1.379 . S
C522 C519 1.363 . S
C522 N520 1.356 . S
C523 C517 1.363 . S
C523 C518 1.379 . S
C523 N521 1.356 . S
N524 C516 1.356 . S
N524 H530 0.984 . S
N524 H531 0.984 . S
N525 C518 1.356 . S
N525 H528 0.984 . S
N525 H529 0.985 . S
H526 N521 0.984 . S
H527 N521 0.985 . S
H528 N525 0.984 . S
H529 N525 0.985 . S
H530 N524 0.984 . S
H531 N524 0.984 . S
H532 N520 0.984 . S
H533 N520 0.985 . S
C534 C535 1.363 . S
C534 C540 1.379 . S
C534 N542 1.358 . S
C535 C534 1.363 . S
C535 C541 1.363 . S
C536 C537 1.363 . S
C536 C541 1.379 . S
C536 N543 1.356 . S
C537 C536 1.363 . S
C537 C540 1.363 . S
N538 C540 1.356 . S
N538 H550 0.984 1_554 S
N538 H551 0.985 . S
N539 C541 1.356 . S
N539 H544 0.984 . S
N539 H545 0.985 . S
C540 C534 1.379 . S
C540 C537 1.363 . S
C540 N538 1.356 . S
C541 C535 1.363 . S
C541 C536 1.379 . S
C541 N539 1.356 . S
N542 C534 1.358 . S
N542 H548 0.983 1_554 S
N542 H549 0.985 . S
N543 C536 1.356 . S
N543 H546 0.984 . S
N543 H547 0.985 . S
H544 N539 0.984 . S
H545 N539 0.985 . S
H546 N543 0.984 . S
H547 N543 0.985 . S
H548 N542 0.983 1_556 S
H549 N542 0.985 . S
H550 N538 0.984 1_556 S
H551 N538 0.985 . S
C552 C553 1.363 . S
C552 C558 1.379 . S
C552 N560 1.356 . S
C553 C552 1.363 . S
C553 C559 1.363 . S
C554 C555 1.363 . S
C554 C559 1.379 . S
C554 N561 1.356 . S
C555 C554 1.363 . S
C555 C558 1.363 . S
N556 C558 1.356 . S
N556 H568 0.984 . S
N556 H569 0.985 . S
N557 C559 1.356 . S
N557 H562 0.984 . S
N557 H563 0.985 . S
C558 C552 1.379 . S
C558 C555 1.363 . S
C558 N556 1.356 . S
C559 C553 1.363 . S
C559 C554 1.379 . S
C559 N557 1.356 . S
N560 C552 1.356 . S
N560 H566 0.984 . S
N560 H567 0.984 . S
N561 C554 1.356 . S
N561 H564 0.984 . S
N561 H565 0.985 . S
H562 N557 0.984 . S
H563 N557 0.985 . S
H564 N561 0.984 . S
H565 N561 0.985 . S
H566 N560 0.984 . S
H567 N560 0.984 . S
H568 N556 0.984 . S
H569 N556 0.985 . S
C570 C571 1.363 . S
C570 C576 1.379 . S
C570 N578 1.356 . S
C571 C570 1.363 . S
C571 C577 1.363 . S
C572 C573 1.363 . S
C572 C577 1.379 . S
C572 N579 1.356 . S
C573 C572 1.363 . S
C573 C576 1.363 . S
N574 C576 1.356 . S
N574 H586 0.984 . S
N574 H587 0.985 . S
N575 C577 1.356 . S
N575 H580 0.984 . S
N575 H581 0.985 . S
C576 C570 1.379 . S
C576 C573 1.363 . S
C576 N574 1.356 . S
C577 C571 1.363 . S
C577 C572 1.379 . S
C577 N575 1.356 . S
N578 C570 1.356 . S
N578 H584 0.984 . S
N578 H585 0.984 . S
N579 C572 1.356 . S
N579 H582 0.984 . S
N579 H583 0.985 . S
H580 N575 0.984 . S
H581 N575 0.985 . S
H582 N579 0.984 . S
H583 N579 0.985 . S
H584 N578 0.984 . S
H585 N578 0.984 . S
H586 N574 0.984 . S
H587 N574 0.985 . S
C588 C589 1.363 . S
C588 C594 1.379 . S
C588 N596 1.356 . S
C589 C588 1.363 . S
C589 C595 1.363 . S
C590 C591 1.363 . S
C590 C595 1.379 . S
C590 N597 1.356 . S
C591 C590 1.363 . S
C591 C594 1.363 . S
N592 C594 1.356 . S
N592 H604 0.984 . S
N592 H605 0.985 . S
N593 C595 1.356 . S
N593 H598 0.984 . S
N593 H599 0.985 . S
C594 C588 1.379 . S
C594 C591 1.363 . S
C594 N592 1.356 . S
C595 C589 1.363 . S
C595 C590 1.379 . S
C595 N593 1.356 . S
N596 C588 1.356 . S
N596 H602 0.984 . S
N596 H603 0.984 . S
N597 C590 1.356 . S
N597 H600 0.984 . S
N597 H601 0.985 . S
H598 N593 0.984 . S
H599 N593 0.985 . S
H600 N597 0.984 . S
H601 N597 0.985 . S
H602 N596 0.984 . S
H603 N596 0.984 . S
H604 N592 0.984 . S
H605 N592 0.985 . S
C606 C607 1.363 . S
C606 C612 1.379 . S
C606 N614 1.356 . S
C607 C606 1.363 . S
C607 C613 1.363 . S
C608 C609 1.363 . S
C608 C613 1.379 . S
C608 N615 1.356 . S
C609 C608 1.363 . S
C609 C612 1.363 . S
N610 C612 1.356 . S
N610 H622 0.984 . S
N610 H623 0.985 . S
N611 C613 1.356 . S
N611 H616 0.984 . S
N611 H617 0.985 . S
C612 C606 1.379 . S
C612 C609 1.363 . S
C612 N610 1.356 . S
C613 C607 1.363 . S
C613 C608 1.379 . S
C613 N611 1.356 . S
N614 C606 1.356 . S
N614 H620 0.984 . S
N614 H621 0.984 . S
N615 C608 1.356 . S
N615 H618 0.984 . S
N615 H619 0.985 . S
H616 N611 0.984 . S
H617 N611 0.985 . S
H618 N615 0.984 . S
H619 N615 0.985 . S
H620 N614 0.984 . S
H621 N614 0.984 . S
H622 N610 0.984 . S
H623 N610 0.985 . S
C624 C625 1.363 . S
C624 C630 1.379 . S
C624 N632 1.356 . S
C625 C624 1.363 . S
C625 C631 1.363 . S
C626 C627 1.363 . S
C626 C631 1.379 . S
C626 N633 1.356 . S
C627 C626 1.363 . S
C627 C630 1.363 . S
N628 C630 1.356 . S
N628 H640 0.984 . S
N628 H641 0.985 . S
N629 C631 1.356 . S
N629 H634 0.984 . S
N629 H635 0.985 . S
C630 C624 1.379 . S
C630 C627 1.363 . S
C630 N628 1.356 . S
C631 C625 1.363 . S
C631 C626 1.379 . S
C631 N629 1.356 . S
N632 C624 1.356 . S
N632 H638 0.984 . S
N632 H639 0.984 . S
N633 C626 1.356 . S
N633 H636 0.984 . S
N633 H637 0.985 . S
H634 N629 0.984 . S
H635 N629 0.985 . S
H636 N633 0.984 . S
H637 N633 0.985 . S
H638 N632 0.984 . S
H639 N632 0.984 . S
H640 N628 0.984 . S
H641 N628 0.985 . S
C642 C643 1.363 . S
C642 C648 1.379 . S
C642 N650 1.356 . S
C643 C642 1.363 . S
C643 C649 1.363 . S
C644 C645 1.363 . S
C644 C649 1.379 1_554 S
C644 N651 1.356 . S
C645 C644 1.363 . S
C645 C648 1.363 1_554 S
N646 C648 1.356 . S
N646 H658 0.984 . S
N646 H659 0.985 1_556 S
N647 C649 1.356 . S
N647 H652 0.984 . S
N647 H653 0.985 . S
C648 C642 1.379 . S
C648 C645 1.363 1_556 S
C648 N646 1.356 . S
C649 C643 1.363 . S
C649 C644 1.379 1_556 S
C649 N647 1.356 . S
N650 C642 1.356 . S
N650 H656 0.984 . S
N650 H657 0.984 . S
N651 C644 1.356 . S
N651 H654 0.984 . S
N651 H655 0.985 . S
H652 N647 0.984 . S
H653 N647 0.985 . S
H654 N651 0.984 . S
H655 N651 0.985 . S
H656 N650 0.984 . S
H657 N650 0.984 . S
H658 N646 0.984 . S
H659 N646 0.985 1_554 S
C660 C661 1.363 . S
C660 C666 1.379 . S
C660 N668 1.356 . S
C661 C660 1.363 . S
C661 C667 1.363 . S
C662 C663 1.363 . S
C662 C667 1.379 . S
C662 N669 1.356 . S
C663 C662 1.363 . S
C663 C666 1.363 . S
N664 C666 1.356 . S
N664 H676 0.984 . S
N664 H677 0.985 . S
N665 C667 1.356 . S
N665 H670 0.984 . S
N665 H671 0.985 . S
C666 C660 1.379 . S
C666 C663 1.363 . S
C666 N664 1.356 . S
C667 C661 1.363 . S
C667 C662 1.379 . S
C667 N665 1.356 . S
N668 C660 1.356 . S
N668 H674 0.984 . S
N668 H675 0.984 . S
N669 C662 1.356 . S
N669 H672 0.984 . S
N669 H673 0.985 . S
H670 N665 0.984 . S
H671 N665 0.985 . S
H672 N669 0.984 . S
H673 N669 0.985 . S
H674 N668 0.984 . S
H675 N668 0.984 . S
H676 N664 0.984 . S
H677 N664 0.985 . S
C678 C679 1.363 . S
C678 C684 1.379 . S
C678 N686 1.356 . S
C679 C678 1.363 . S
C679 C685 1.363 . S
C680 C681 1.363 . S
C680 C685 1.379 . S
C680 N687 1.356 . S
C681 C680 1.363 . S
C681 C684 1.363 . S
N682 C684 1.356 . S
N682 H694 0.984 . S
N682 H695 0.985 . S
N683 C685 1.356 . S
N683 H688 0.984 . S
N683 H689 0.985 . S
C684 C678 1.379 . S
C684 C681 1.363 . S
C684 N682 1.356 . S
C685 C679 1.363 . S
C685 C680 1.379 . S
C685 N683 1.356 . S
N686 C678 1.356 . S
N686 H692 0.984 . S
N686 H693 0.984 . S
N687 C680 1.356 . S
N687 H690 0.984 . S
N687 H691 0.985 . S
H688 N683 0.984 . S
H689 N683 0.985 . S
H690 N687 0.984 . S
H691 N687 0.985 . S
H692 N686 0.984 . S
H693 N686 0.984 . S
H694 N682 0.984 . S
H695 N682 0.985 . S
C696 C697 1.363 . S
C696 C702 1.379 . S
C696 N704 1.356 . S
C697 C696 1.363 . S
C697 C703 1.363 . S
C698 C699 1.363 . S
C698 C703 1.379 . S
C698 N705 1.356 . S
C699 C698 1.363 . S
C699 C702 1.363 . S
N700 C702 1.356 . S
N700 H712 0.984 . S
N700 H713 0.985 . S
N701 C703 1.356 . S
N701 H706 0.984 . S
N701 H707 0.985 . S
C702 C696 1.379 . S
C702 C699 1.363 . S
C702 N700 1.356 . S
C703 C697 1.363 . S
C703 C698 1.379 . S
C703 N701 1.356 . S
N704 C696 1.356 . S
N704 H710 0.984 . S
N704 H711 0.984 . S
N705 C698 1.356 . S
N705 H708 0.984 . S
N705 H709 0.985 . S
H706 N701 0.984 . S
H707 N701 0.985 . S
H708 N705 0.984 . S
H709 N705 0.985 . S
H710 N704 0.984 . S
H711 N704 0.984 . S
H712 N700 0.984 . S
H713 N700 0.985 . S
C714 C715 1.363 . S
C714 C720 1.379 . S
C714 N722 1.356 . S
C715 C714 1.363 . S
C715 C721 1.363 . S
C716 C717 1.363 . S
C716 C721 1.379 . S
C716 N723 1.356 . S
C717 C716 1.363 . S
C717 C720 1.363 . S
N718 C720 1.356 . S
N718 H730 0.984 . S
N718 H731 0.985 . S
N719 C721 1.356 . S
N719 H724 0.984 . S
N719 H725 0.985 . S
C720 C714 1.379 . S
C720 C717 1.363 . S
C720 N718 1.356 . S
C721 C715 1.363 . S
C721 C716 1.379 . S
C721 N719 1.356 . S
N722 C714 1.356 . S
N722 H728 0.984 . S
N722 H729 0.984 . S
N723 C716 1.356 . S
N723 H726 0.984 . S
N723 H727 0.985 . S
H724 N719 0.984 . S
H725 N719 0.985 . S
H726 N723 0.984 . S
H727 N723 0.985 . S
H728 N722 0.984 . S
H729 N722 0.984 . S
H730 N718 0.984 . S
H731 N718 0.985 . S
C732 C733 1.363 . S
C732 C738 1.379 . S
C732 N740 1.356 . S
C733 C732 1.363 . S
C733 C739 1.363 . S
C734 C735 1.363 . S
C734 C739 1.379 . S
C734 N741 1.356 . S
C735 C734 1.363 . S
C735 C738 1.363 . S
N736 C738 1.356 . S
N736 H748 0.984 . S
N736 H749 0.985 . S
N737 C739 1.356 . S
N737 H742 0.984 . S
N737 H743 0.985 . S
C738 C732 1.379 . S
C738 C735 1.363 . S
C738 N736 1.356 . S
C739 C733 1.363 . S
C739 C734 1.379 . S
C739 N737 1.356 . S
N740 C732 1.356 . S
N740 H746 0.984 . S
N740 H747 0.984 . S
N741 C734 1.356 . S
N741 H744 0.984 . S
N741 H745 0.985 . S
H742 N737 0.984 . S
H743 N737 0.985 . S
H744 N741 0.984 . S
H745 N741 0.985 . S
H746 N740 0.984 . S
H747 N740 0.984 . S
H748 N736 0.984 . S
H749 N736 0.985 . S
C750 C751 1.363 . S
C750 C756 1.379 . S
C750 N758 1.356 . S
C751 C750 1.363 . S
C751 C757 1.363 . S
C752 C753 1.363 . S
C752 C757 1.379 . S
C752 N759 1.356 . S
C753 C752 1.363 . S
C753 C756 1.363 . S
N754 C756 1.356 . S
N754 H766 0.984 . S
N754 H767 0.985 . S
N755 C757 1.356 . S
N755 H760 0.984 . S
N755 H761 0.985 . S
C756 C750 1.379 . S
C756 C753 1.363 . S
C756 N754 1.356 . S
C757 C751 1.363 . S
C757 C752 1.379 . S
C757 N755 1.356 . S
N758 C750 1.356 . S
N758 H764 0.984 . S
N758 H765 0.984 . S
N759 C752 1.356 . S
N759 H762 0.984 . S
N759 H763 0.985 . S
H760 N755 0.984 . S
H761 N755 0.985 . S
H762 N759 0.984 . S
H763 N759 0.985 . S
H764 N758 0.984 . S
H765 N758 0.984 . S
H766 N754 0.984 . S
H767 N754 0.985 . S
C768 C769 1.363 . S
C768 C774 1.379 . S
C768 N776 1.356 . S
C769 C768 1.363 . S
C769 C775 1.363 1_554 S
C770 C771 1.363 . S
C770 C775 1.379 . S
C770 N777 1.356 . S
C771 C770 1.363 . S
C771 C774 1.363 1_556 S
N772 C774 1.356 . S
N772 H784 0.984 . S
N772 H785 0.985 1_554 S
N773 C775 1.356 1_554 S
N773 H778 0.984 . S
N773 H779 0.985 1_554 S
C774 C768 1.379 . S
C774 C771 1.363 1_554 S
C774 N772 1.356 . S
C775 C769 1.363 1_556 S
C775 C770 1.379 . S
C775 N773 1.356 1_556 S
N776 C768 1.356 . S
N776 H782 0.984 . S
N776 H783 0.984 . S
N777 C770 1.356 . S
N777 H780 0.984 . S
N777 H781 0.985 . S
H778 N773 0.984 . S
H779 N773 0.985 1_556 S
H780 N777 0.984 . S
H781 N777 0.985 . S
H782 N776 0.984 . S
H783 N776 0.984 . S
H784 N772 0.984 . S
H785 N772 0.985 1_556 S
C786 C787 1.363 . S
C786 C792 1.379 . S
C786 N794 1.356 . S
C787 C786 1.363 . S
C787 C793 1.363 . S
C788 C789 1.363 . S
C788 C793 1.379 . S
C788 N795 1.356 . S
C789 C788 1.363 . S
C789 C792 1.363 . S
N790 C792 1.356 . S
N790 H802 0.984 . S
N790 H803 0.985 . S
N791 C793 1.356 . S
N791 H796 0.984 . S
N791 H797 0.985 . S
C792 C786 1.379 . S
C792 C789 1.363 . S
C792 N790 1.356 . S
C793 C787 1.363 . S
C793 C788 1.379 . S
C793 N791 1.356 . S
N794 C786 1.356 . S
N794 H800 0.984 . S
N794 H801 0.984 . S
N795 C788 1.356 . S
N795 H798 0.984 . S
N795 H799 0.985 . S
H796 N791 0.984 . S
H797 N791 0.985 . S
H798 N795 0.984 . S
H799 N795 0.985 . S
H800 N794 0.984 . S
H801 N794 0.984 . S
H802 N790 0.984 . S
H803 N790 0.985 . S
C375 C358 1.627 . S
C373 C45 1.621 . S
C391 C84 1.618 . S
C393 C299 1.640 . S
C409 C126 1.566 . S
C411 C302 1.624 . S
C427 C189 1.621 . S
C429 C316 1.627 . S
C447 C341 1.640 . S
C445 C228 1.618 . S
C463 C270 1.566 . S
C465 C344 1.624 . S
C481 C69 1.570 . S
C483 C313 1.611 . S
C499 C141 1.608 . S
C501 C327 1.613 . S
C517 C174 1.548 . S
C519 C330 1.598 . S
C537 C355 1.611 . S
C535 C213 1.570 . S
C555 C369 1.613 . S
C553 C285 1.608 . S
C573 C288 1.598 . S
C571 C30 1.548 . S
C589 C36 1.497 . S
C591 C311 1.489 . S
C607 C93 1.494 . S
C609 C325 1.491 . S
C627 C335 1.502 . S
C625 C117 1.498 . S
C643 C180 1.497 . S
C645 C353 1.489 . S
C663 C367 1.491 . S
C661 C237 1.494 . S
C681 C293 1.502 . S
C679 C261 1.498 . S
C699 C363 1.517 . S
C697 C78 1.510 . S
C715 C132 1.508 . S
C717 C297 1.504 . S
C735 C307 1.514 . S
C733 C165 1.508 . S
C751 C222 1.510 . S
C753 C321 1.517 . S
C769 C276 1.508 . S
C771 C339 1.504 . S
C787 C21 1.508 . S
C789 C349 1.514 . S
