# Generated by pormake.
# Topology eea, (3,6)-cn, num edge types: 1
# Building blocks:
#     Node 0, Type 0, BuildingBlock: VETTIZ_charged_linker_0, # of connection points: 3
#     Node 1, Type 0, BuildingBlock: VETTIZ_charged_linker_0, # of connection points: 3
#     Node 2, Type 0, BuildingBlock: VETTIZ_charged_linker_0, # of connection points: 3
#     Node 3, Type 0, BuildingBlock: VETTIZ_charged_linker_0, # of connection points: 3
#     Node 4, Type 0, BuildingBlock: VETTIZ_charged_linker_0, # of connection points: 3
#     Node 5, Type 0, BuildingBlock: VETTIZ_charged_linker_0, # of connection points: 3
#     Node 6, Type 0, BuildingBlock: VETTIZ_charged_linker_0, # of connection points: 3
#     Node 7, Type 0, BuildingBlock: VETTIZ_charged_linker_0, # of connection points: 3
#     Node 8, Type 0, BuildingBlock: VETTIZ_charged_linker_0, # of connection points: 3
#     Node 9, Type 0, BuildingBlock: VETTIZ_charged_linker_0, # of connection points: 3
#     Node 10, Type 0, BuildingBlock: VETTIZ_charged_linker_0, # of connection points: 3
#     Node 11, Type 0, BuildingBlock: VETTIZ_charged_linker_0, # of connection points: 3
#     Node 12, Type 0, BuildingBlock: VETTIZ_charged_linker_0, # of connection points: 3
#     Node 13, Type 0, BuildingBlock: VETTIZ_charged_linker_0, # of connection points: 3
#     Node 14, Type 0, BuildingBlock: VETTIZ_charged_linker_0, # of connection points: 3
#     Node 15, Type 0, BuildingBlock: VETTIZ_charged_linker_0, # of connection points: 3
#     Node 16, Type 0, BuildingBlock: VETTIZ_charged_linker_0, # of connection points: 3
#     Node 17, Type 0, BuildingBlock: VETTIZ_charged_linker_0, # of connection points: 3
#     Node 18, Type 1, BuildingBlock: HISSIN_clean_sbu_0, # of connection points: 6
#     Node 19, Type 1, BuildingBlock: HISSIN_clean_sbu_0, # of connection points: 6
#     Node 20, Type 1, BuildingBlock: HISSIN_clean_sbu_0, # of connection points: 6
#     Node 21, Type 1, BuildingBlock: HISSIN_clean_sbu_0, # of connection points: 6
#     Node 22, Type 1, BuildingBlock: HISSIN_clean_sbu_0, # of connection points: 6
#     Node 23, Type 1, BuildingBlock: HISSIN_clean_sbu_0, # of connection points: 6
#     Node 24, Type 1, BuildingBlock: HISSIN_clean_sbu_0, # of connection points: 6
#     Node 25, Type 1, BuildingBlock: HISSIN_clean_sbu_0, # of connection points: 6
#     Node 26, Type 1, BuildingBlock: HISSIN_clean_sbu_0, # of connection points: 6
#     Edge 27, Type (0, 1), BuildingBlock: XIVTED_clean_linker_0, # of connection points: 2
#     Edge 28, Type (0, 1), BuildingBlock: XIVTED_clean_linker_0, # of connection points: 2
#     Edge 29, Type (0, 1), BuildingBlock: XIVTED_clean_linker_0, # of connection points: 2
#     Edge 30, Type (0, 1), BuildingBlock: XIVTED_clean_linker_0, # of connection points: 2
#     Edge 31, Type (0, 1), BuildingBlock: XIVTED_clean_linker_0, # of connection points: 2
#     Edge 32, Type (0, 1), BuildingBlock: XIVTED_clean_linker_0, # of connection points: 2
#     Edge 33, Type (0, 1), BuildingBlock: XIVTED_clean_linker_0, # of connection points: 2
#     Edge 34, Type (0, 1), BuildingBlock: XIVTED_clean_linker_0, # of connection points: 2
#     Edge 35, Type (0, 1), BuildingBlock: XIVTED_clean_linker_0, # of connection points: 2
#     Edge 36, Type (0, 1), BuildingBlock: XIVTED_clean_linker_0, # of connection points: 2
#     Edge 37, Type (0, 1), BuildingBlock: XIVTED_clean_linker_0, # of connection points: 2
#     Edge 38, Type (0, 1), BuildingBlock: XIVTED_clean_linker_0, # of connection points: 2
#     Edge 39, Type (0, 1), BuildingBlock: XIVTED_clean_linker_0, # of connection points: 2
#     Edge 40, Type (0, 1), BuildingBlock: XIVTED_clean_linker_0, # of connection points: 2
#     Edge 41, Type (0, 1), BuildingBlock: XIVTED_clean_linker_0, # of connection points: 2
#     Edge 42, Type (0, 1), BuildingBlock: XIVTED_clean_linker_0, # of connection points: 2
#     Edge 43, Type (0, 1), BuildingBlock: XIVTED_clean_linker_0, # of connection points: 2
#     Edge 44, Type (0, 1), BuildingBlock: XIVTED_clean_linker_0, # of connection points: 2
#     Edge 45, Type (0, 1), BuildingBlock: XIVTED_clean_linker_0, # of connection points: 2
#     Edge 46, Type (0, 1), BuildingBlock: XIVTED_clean_linker_0, # of connection points: 2
#     Edge 47, Type (0, 1), BuildingBlock: XIVTED_clean_linker_0, # of connection points: 2
#     Edge 48, Type (0, 1), BuildingBlock: XIVTED_clean_linker_0, # of connection points: 2
#     Edge 49, Type (0, 1), BuildingBlock: XIVTED_clean_linker_0, # of connection points: 2
#     Edge 50, Type (0, 1), BuildingBlock: XIVTED_clean_linker_0, # of connection points: 2
#     Edge 51, Type (0, 1), BuildingBlock: XIVTED_clean_linker_0, # of connection points: 2
#     Edge 52, Type (0, 1), BuildingBlock: XIVTED_clean_linker_0, # of connection points: 2
#     Edge 53, Type (0, 1), BuildingBlock: XIVTED_clean_linker_0, # of connection points: 2
#     Edge 54, Type (0, 1), BuildingBlock: XIVTED_clean_linker_0, # of connection points: 2
#     Edge 55, Type (0, 1), BuildingBlock: XIVTED_clean_linker_0, # of connection points: 2
#     Edge 56, Type (0, 1), BuildingBlock: XIVTED_clean_linker_0, # of connection points: 2
#     Edge 57, Type (0, 1), BuildingBlock: XIVTED_clean_linker_0, # of connection points: 2
#     Edge 58, Type (0, 1), BuildingBlock: XIVTED_clean_linker_0, # of connection points: 2
#     Edge 59, Type (0, 1), BuildingBlock: XIVTED_clean_linker_0, # of connection points: 2
#     Edge 60, Type (0, 1), BuildingBlock: XIVTED_clean_linker_0, # of connection points: 2
#     Edge 61, Type (0, 1), BuildingBlock: XIVTED_clean_linker_0, # of connection points: 2
#     Edge 62, Type (0, 1), BuildingBlock: XIVTED_clean_linker_0, # of connection points: 2
#     Edge 63, Type (0, 1), BuildingBlock: XIVTED_clean_linker_0, # of connection points: 2
#     Edge 64, Type (0, 1), BuildingBlock: XIVTED_clean_linker_0, # of connection points: 2
#     Edge 65, Type (0, 1), BuildingBlock: XIVTED_clean_linker_0, # of connection points: 2
#     Edge 66, Type (0, 1), BuildingBlock: XIVTED_clean_linker_0, # of connection points: 2
#     Edge 67, Type (0, 1), BuildingBlock: XIVTED_clean_linker_0, # of connection points: 2
#     Edge 68, Type (0, 1), BuildingBlock: XIVTED_clean_linker_0, # of connection points: 2
#     Edge 69, Type (0, 1), BuildingBlock: XIVTED_clean_linker_0, # of connection points: 2
#     Edge 70, Type (0, 1), BuildingBlock: XIVTED_clean_linker_0, # of connection points: 2
#     Edge 71, Type (0, 1), BuildingBlock: XIVTED_clean_linker_0, # of connection points: 2
#     Edge 72, Type (0, 1), BuildingBlock: XIVTED_clean_linker_0, # of connection points: 2
#     Edge 73, Type (0, 1), BuildingBlock: XIVTED_clean_linker_0, # of connection points: 2
#     Edge 74, Type (0, 1), BuildingBlock: XIVTED_clean_linker_0, # of connection points: 2
#     Edge 75, Type (0, 1), BuildingBlock: XIVTED_clean_linker_0, # of connection points: 2
#     Edge 76, Type (0, 1), BuildingBlock: XIVTED_clean_linker_0, # of connection points: 2
#     Edge 77, Type (0, 1), BuildingBlock: XIVTED_clean_linker_0, # of connection points: 2
#     Edge 78, Type (0, 1), BuildingBlock: XIVTED_clean_linker_0, # of connection points: 2
#     Edge 79, Type (0, 1), BuildingBlock: XIVTED_clean_linker_0, # of connection points: 2
#     Edge 80, Type (0, 1), BuildingBlock: XIVTED_clean_linker_0, # of connection points: 2
# Relax obj value: 0.035
# Max RMSD: 0.134
# Mean RMSD: 0.075
data_MOF--net-eea--node1-HISSIN_clean_sbu_0--node2-VETTIZ_charged_linker_0--edge1-XIVTED_clean_linker_0
_symmetry_space_group_name_H-M    P1
_symmetry_Int_Tables_number       1
_symmetry_cell_setting            triclinic
loop_
_symmetry_equiv_pos_as_xyz
'x, y, z'
_cell_length_a     62.443091
_cell_length_b     62.398524
_cell_length_c     90.152464
_cell_angle_alpha  93.484586
_cell_angle_beta   93.686849
_cell_angle_gamma 119.71593
loop_
_atom_site_label
_atom_site_type_symbol
_atom_site_fract_x
_atom_site_fract_y
_atom_site_fract_z
_atom_type_partial_charge
C0 C 0.26497 0.20212 0.38936 0.0
C1 C 0.26787 0.22361 0.39736 0.0
C2 C 0.28127 0.23148 0.4117 0.0
C3 C 0.28697 0.19576 0.41023 0.0
C4 C 0.27464 0.18858 0.39596 0.0
C5 C 0.27218 0.16474 0.3892 0.0
H6 H 0.28218 0.06354 0.39843 0.0
C7 C 0.29322 0.17674 0.41418 0.0
C8 C 0.28484 0.15865 0.40184 0.0
H9 H 0.25181 0.07976 0.35903 0.0
H10 H 0.26395 0.12033 0.37108 0.0
H11 H 0.33204 0.11791 0.40483 0.0
H12 H 0.26081 0.08476 0.42167 0.0
H13 H 0.28327 0.10134 0.43697 0.0
H14 H 0.28359 0.07604 0.42648 0.0
H15 H 0.32389 0.09601 0.4184 0.0
H16 H 0.33752 0.12887 0.42387 0.0
C17 C 0.2865 0.17017 0.37521 0.0
C18 C 0.24414 0.14533 0.38604 0.0
C19 C 0.3289 0.18049 0.46712 0.0
C20 C 0.33447 0.16429 0.47444 0.0
C21 C 0.33251 0.14346 0.46604 0.0
C22 C 0.32425 0.13835 0.45075 0.0
C23 C 0.31765 0.15408 0.44376 0.0
C24 C 0.32052 0.17503 0.45185 0.0
C25 C 0.31251 0.18956 0.44257 0.0
C26 C 0.30402 0.17366 0.42763 0.0
C27 C 0.30688 0.15282 0.42845 0.0
C28 C 0.33542 0.21545 0.44169 0.0
C29 C 0.29078 0.19019 0.4496 0.0
C30 C 0.2786 0.07599 0.39225 0.0
C31 C 0.26583 0.06833 0.37779 0.0
C32 C 0.26125 0.08505 0.37027 0.0
C33 C 0.26835 0.10862 0.37728 0.0
C34 C 0.27998 0.11549 0.39202 0.0
C35 C 0.28545 0.09952 0.39912 0.0
C36 C 0.29772 0.10983 0.41479 0.0
C37 C 0.29841 0.13452 0.416 0.0
C38 C 0.28777 0.13761 0.4027 0.0
C39 C 0.32412 0.11324 0.41567 0.0
C40 C 0.28071 0.09214 0.42564 0.0
H41 H 0.30067 0.22452 0.42915 0.0
H42 H 0.2546 0.19541 0.37838 0.0
H43 H 0.2338 0.14722 0.39516 0.0
H44 H 0.24015 0.12599 0.38558 0.0
H45 H 0.23601 0.14784 0.37541 0.0
H46 H 0.30285 0.18928 0.37662 0.0
H47 H 0.27451 0.16856 0.36507 0.0
H48 H 0.29433 0.15791 0.37317 0.0
H49 H 0.33061 0.19688 0.47319 0.0
H50 H 0.33649 0.13056 0.47139 0.0
H51 H 0.32267 0.12194 0.44506 0.0
H52 H 0.35271 0.2144 0.4419 0.0
H53 H 0.33785 0.2288 0.45128 0.0
H54 H 0.33448 0.22323 0.43113 0.0
H55 H 0.27821 0.17202 0.45364 0.0
H56 H 0.27878 0.19338 0.44163 0.0
H57 H 0.29776 0.20463 0.45931 0.0
H58 H 0.28417 0.24822 0.418 0.0
C59 C 0.2909 0.21773 0.41814 0.0
C60 C 0.95222 0.18266 0.40284 0.0
C61 C 0.97138 0.20619 0.40907 0.0
C62 C 0.96896 0.21616 0.42295 0.0
C63 C 0.92867 0.17966 0.42383 0.0
C64 C 0.93124 0.16983 0.41035 0.0
C65 C 0.90939 0.14469 0.4051 0.0
H66 H 0.79584 0.05124 0.41499 0.0
C67 C 0.90428 0.16172 0.42845 0.0
C68 C 0.89297 0.14123 0.41746 0.0
H69 H 0.84224 0.05455 0.38048 0.0
H70 H 0.8734 0.09557 0.39089 0.0
H71 H 0.83931 0.07219 0.44123 0.0
H72 H 0.80714 0.10733 0.41587 0.0
H73 H 0.81321 0.12086 0.43442 0.0
H74 H 0.79184 0.08799 0.4301 0.0
H75 H 0.8096 0.06864 0.44412 0.0
H76 H 0.83794 0.09381 0.45391 0.0
C77 C 0.91845 0.12557 0.40457 0.0
C78 C 0.89743 0.14632 0.38991 0.0
C79 C 0.87576 0.17953 0.47718 0.0
C80 C 0.85365 0.16624 0.48385 0.0
C81 C 0.83436 0.14379 0.47624 0.0
C82 C 0.83703 0.13451 0.46241 0.0
C83 C 0.85929 0.14769 0.45601 0.0
C84 C 0.87811 0.16999 0.46323 0.0
C85 C 0.90014 0.18159 0.45439 0.0
C86 C 0.89163 0.1622 0.44095 0.0
C87 C 0.86772 0.14237 0.44206 0.0
C88 C 0.92293 0.1841 0.46393 0.0
C89 C 0.90333 0.20649 0.44992 0.0
C90 C 0.81275 0.06066 0.40969 0.0
C91 C 0.81631 0.04946 0.39677 0.0
C92 C 0.8386 0.06275 0.39023 0.0
C93 C 0.8569 0.08657 0.39641 0.0
C94 C 0.85316 0.09731 0.4094 0.0
C95 C 0.83142 0.08435 0.41585 0.0
C96 C 0.83115 0.09825 0.43 0.0
C97 C 0.85637 0.12166 0.43097 0.0
C98 C 0.86903 0.12106 0.41881 0.0
C99 C 0.82923 0.0825 0.44306 0.0
C100 C 0.80967 0.10384 0.42763 0.0
H101 H 0.94703 0.21162 0.44084 0.0
H102 H 0.9532 0.1745 0.39214 0.0
H103 H 0.89717 0.16403 0.39005 0.0
H104 H 0.87787 0.13157 0.38725 0.0
H105 H 0.90802 0.14564 0.38063 0.0
H106 H 0.93515 0.13176 0.41267 0.0
H107 H 0.92344 0.12282 0.39328 0.0
H108 H 0.90462 0.10739 0.40786 0.0
H109 H 0.89084 0.19696 0.48266 0.0
H110 H 0.81729 0.13297 0.48117 0.0
H111 H 0.82171 0.11723 0.45733 0.0
H112 H 0.91758 0.16739 0.46994 0.0
H113 H 0.93101 0.20052 0.47243 0.0
H114 H 0.93758 0.18544 0.45717 0.0
H115 H 0.88497 0.20502 0.44724 0.0
H116 H 0.91274 0.2121 0.43972 0.0
H117 H 0.91371 0.22162 0.45917 0.0
H118 H 0.98356 0.23408 0.42816 0.0
C119 C 0.94775 0.20305 0.43034 0.0
C120 C 0.95716 0.77996 0.40697 0.0
C121 C 0.97621 0.776 0.4128 0.0
C122 C 0.97376 0.76545 0.42646 0.0
C123 C 0.93394 0.76309 0.42808 0.0
C124 C 0.93638 0.77339 0.4147 0.0
C125 C 0.91471 0.77652 0.40986 0.0
H126 H 0.80363 0.76407 0.4222 0.0
C127 C 0.91007 0.75859 0.43322 0.0
C128 C 0.8988 0.76645 0.42252 0.0
H129 H 0.84611 0.7939 0.38505 0.0
H130 H 0.87794 0.78652 0.39558 0.0
H131 H 0.813 0.71838 0.42382 0.0
H132 H 0.84988 0.79163 0.44741 0.0
H133 H 0.84873 0.77146 0.46047 0.0
H134 H 0.82019 0.76765 0.45151 0.0
H135 H 0.79961 0.7274 0.43822 0.0
H136 H 0.81993 0.71526 0.44247 0.0
C137 C 0.9019 0.76025 0.39478 0.0
C138 C 0.92436 0.8046 0.40929 0.0
C139 C 0.88316 0.7222 0.48254 0.0
C140 C 0.86228 0.71688 0.49012 0.0
C141 C 0.84378 0.72094 0.48335 0.0
C142 C 0.8461 0.73045 0.46952 0.0
C143 C 0.86718 0.7361 0.46222 0.0
C144 C 0.88526 0.73187 0.46866 0.0
C145 C 0.90645 0.73925 0.45919 0.0
C146 C 0.89807 0.74866 0.4461 0.0
C147 C 0.87501 0.7467 0.44799 0.0
C148 C 0.9077 0.71575 0.45425 0.0
C149 C 0.93038 0.76017 0.46834 0.0
C150 C 0.81988 0.76919 0.41639 0.0
C151 C 0.82219 0.77947 0.4027 0.0
C152 C 0.84358 0.78558 0.39547 0.0
C153 C 0.86218 0.78141 0.40166 0.0
C154 C 0.85955 0.77102 0.41529 0.0
C155 C 0.83868 0.76513 0.42243 0.0
C156 C 0.83913 0.75431 0.43684 0.0
C157 C 0.86367 0.75463 0.43714 0.0
C158 C 0.87551 0.76444 0.42449 0.0
C159 C 0.81672 0.72749 0.43543 0.0
C160 C 0.83932 0.77194 0.4498 0.0
H161 H 0.952 0.75097 0.4444 0.0
H162 H 0.95849 0.78839 0.39666 0.0
H163 H 0.93992 0.81595 0.4182 0.0
H164 H 0.91024 0.80984 0.41141 0.0
H165 H 0.93129 0.81057 0.39838 0.0
H166 H 0.90274 0.74283 0.39437 0.0
H167 H 0.91106 0.77022 0.38522 0.0
H168 H 0.88191 0.75398 0.39301 0.0
H169 H 0.89777 0.71941 0.48744 0.0
H170 H 0.82729 0.71659 0.48875 0.0
H171 H 0.83134 0.73312 0.46507 0.0
H172 H 0.88873 0.69943 0.45147 0.0
H173 H 0.91735 0.71132 0.4633 0.0
H174 H 0.91695 0.71737 0.44401 0.0
H175 H 0.92642 0.77324 0.47492 0.0
H176 H 0.94469 0.77176 0.46127 0.0
H177 H 0.93838 0.75245 0.47633 0.0
H178 H 0.98795 0.7619 0.43118 0.0
C179 C 0.95277 0.75897 0.4341 0.0
C180 C 0.16332 0.21946 0.60872 0.0
C181 C 0.1863 0.22566 0.60353 0.0
C182 C 0.19267 0.2384 0.59066 0.0
C183 C 0.15334 0.23762 0.58818 0.0
C184 C 0.14735 0.22572 0.60098 0.0
C185 C 0.12252 0.22078 0.60523 0.0
H186 H 0.01529 0.22052 0.5887 0.0
C187 C 0.13226 0.24065 0.58258 0.0
C188 C 0.11421 0.2309 0.59256 0.0
H189 H 0.03986 0.19981 0.62861 0.0
H190 H 0.07829 0.21044 0.61901 0.0
H191 H 0.06862 0.27175 0.58834 0.0
H192 H 0.03802 0.1987 0.56471 0.0
H193 H 0.05235 0.22086 0.55212 0.0
H194 H 0.02623 0.21899 0.56065 0.0
H195 H 0.04322 0.2596 0.57382 0.0
H196 H 0.07497 0.27497 0.56962 0.0
C197 C 0.12667 0.23578 0.62057 0.0
C198 C 0.10556 0.19235 0.60503 0.0
C199 C 0.13474 0.27826 0.53383 0.0
C200 C 0.1175 0.28193 0.52516 0.0
C201 C 0.09417 0.27457 0.53026 0.0
C202 C 0.0882 0.2639 0.54376 0.0
C203 C 0.10565 0.26036 0.55229 0.0
C204 C 0.12842 0.26741 0.54721 0.0
C205 C 0.14441 0.26152 0.55739 0.0
C206 C 0.1277 0.25015 0.56956 0.0
C207 C 0.105 0.24956 0.56658 0.0
C208 C 0.16821 0.28618 0.56343 0.0
C209 C 0.14914 0.24247 0.54852 0.0
C210 C 0.02896 0.21841 0.59545 0.0
C211 C 0.0239 0.20862 0.60936 0.0
C212 C 0.04253 0.20636 0.61766 0.0
C213 C 0.06516 0.21287 0.61214 0.0
C214 C 0.06971 0.22217 0.59821 0.0
C215 C 0.052 0.22525 0.5902 0.0
C216 C 0.06089 0.2367 0.57594 0.0
C217 C 0.0867 0.23972 0.57675 0.0
C218 C 0.09152 0.23082 0.58975 0.0
C219 C 0.06189 0.26204 0.57681 0.0
C220 C 0.04348 0.21804 0.56258 0.0
H221 H 0.18232 0.25395 0.57324 0.0
H222 H 0.15756 0.20955 0.61847 0.0
H223 H 0.10772 0.18244 0.59506 0.0
H224 H 0.08565 0.18638 0.60427 0.0
H225 H 0.11038 0.1856 0.61513 0.0
H226 H 0.14581 0.25201 0.62275 0.0
H227 H 0.12383 0.22412 0.6299 0.0
H228 H 0.11449 0.24393 0.62112 0.0
H229 H 0.15264 0.28326 0.53012 0.0
H230 H 0.0806 0.27731 0.52385 0.0
H231 H 0.07018 0.25875 0.54703 0.0
H232 H 0.16401 0.30143 0.5654 0.0
H233 H 0.1823 0.29188 0.55536 0.0
H234 H 0.17658 0.28528 0.57438 0.0
H235 H 0.13253 0.22925 0.54072 0.0
H236 H 0.15267 0.23063 0.55573 0.0
H237 H 0.16492 0.25189 0.54177 0.0
H238 H 0.21042 0.24402 0.58654 0.0
C239 C 0.17636 0.24434 0.58297 0.0
C240 C 0.72741 0.78933 0.62206 0.0
C241 C 0.72538 0.76836 0.61391 0.0
C242 C 0.71374 0.76158 0.5991 0.0
C243 C 0.70791 0.79726 0.60059 0.0
C244 C 0.7186 0.80339 0.61524 0.0
C245 C 0.72056 0.82685 0.62221 0.0
H246 H 0.71279 0.92933 0.61381 0.0
C247 C 0.70218 0.81665 0.59662 0.0
C248 C 0.70937 0.83389 0.60932 0.0
H249 H 0.73959 0.91034 0.65348 0.0
H250 H 0.72783 0.87027 0.64082 0.0
H251 H 0.73579 0.90927 0.59108 0.0
H252 H 0.66297 0.87575 0.6057 0.0
H253 H 0.65872 0.86501 0.5867 0.0
H254 H 0.67221 0.89784 0.59222 0.0
H255 H 0.71364 0.91866 0.58597 0.0
H256 H 0.71444 0.89393 0.57514 0.0
C257 C 0.74846 0.84603 0.62652 0.0
C258 C 0.7046 0.82042 0.63549 0.0
C259 C 0.671 0.81673 0.54308 0.0
C260 C 0.66597 0.83351 0.53601 0.0
C261 C 0.66732 0.85373 0.54475 0.0
C262 C 0.67441 0.85774 0.56015 0.0
C263 C 0.68047 0.84149 0.56694 0.0
C264 C 0.67821 0.82109 0.55851 0.0
C265 C 0.68542 0.80585 0.56773 0.0
C266 C 0.69264 0.8207 0.583 0.0
C267 C 0.68991 0.84165 0.58239 0.0
C268 C 0.70782 0.80577 0.56132 0.0
C269 C 0.66232 0.77978 0.56764 0.0
C270 C 0.71564 0.91636 0.6199 0.0
C271 C 0.72732 0.9231 0.63463 0.0
C272 C 0.73099 0.90574 0.64205 0.0
C273 C 0.72412 0.88247 0.63468 0.0
C274 C 0.71366 0.87655 0.61969 0.0
C275 C 0.70903 0.89313 0.61268 0.0
C276 C 0.69805 0.88385 0.5967 0.0
C277 C 0.69729 0.85912 0.59519 0.0
C278 C 0.70665 0.85507 0.60863 0.0
C279 C 0.71619 0.90232 0.58659 0.0
C280 C 0.67168 0.88055 0.5951 0.0
H281 H 0.6965 0.76992 0.58108 0.0
H282 H 0.73655 0.79532 0.63338 0.0
H283 H 0.688 0.80152 0.63322 0.0
H284 H 0.69701 0.83289 0.63751 0.0
H285 H 0.71534 0.82083 0.64592 0.0
H286 H 0.75992 0.84425 0.6181 0.0
H287 H 0.75521 0.84324 0.63753 0.0
H288 H 0.75272 0.86545 0.62678 0.0
H289 H 0.67022 0.80106 0.53667 0.0
H290 H 0.66305 0.86663 0.53962 0.0
H291 H 0.6754 0.87366 0.56611 0.0
H292 H 0.7209 0.82434 0.55795 0.0
H293 H 0.70166 0.79204 0.55129 0.0
H294 H 0.71904 0.80191 0.5695 0.0
H295 H 0.64508 0.78093 0.56747 0.0
H296 H 0.66265 0.77086 0.5778 0.0
H297 H 0.6603 0.76736 0.55763 0.0
H298 H 0.7116 0.7453 0.59264 0.0
C299 C 0.70492 0.77586 0.59242 0.0
C300 C 0.04149 0.81113 0.61253 0.0
C301 C 0.02155 0.788 0.60634 0.0
C302 C 0.02267 0.77811 0.59209 0.0
C303 C 0.06327 0.81382 0.5907 0.0
C304 C 0.06199 0.82361 0.60457 0.0
C305 C 0.08464 0.84828 0.60969 0.0
H306 H 0.19679 0.94112 0.5967 0.0
C307 C 0.08744 0.83127 0.58564 0.0
C308 C 0.09999 0.85148 0.59676 0.0
H309 H 0.15576 0.93712 0.63432 0.0
H310 H 0.12326 0.89626 0.62424 0.0
H311 H 0.18749 0.88716 0.5955 0.0
H312 H 0.14932 0.91801 0.57154 0.0
H313 H 0.1534 0.89842 0.55861 0.0
H314 H 0.18019 0.92471 0.56883 0.0
H315 H 0.19872 0.90281 0.57926 0.0
H316 H 0.17685 0.86988 0.57786 0.0
C317 C 0.09723 0.84578 0.62436 0.0
C318 C 0.07657 0.8681 0.61113 0.0
C319 C 0.1114 0.81269 0.53539 0.0
C320 C 0.13329 0.82515 0.52843 0.0
C321 C 0.15353 0.84705 0.53589 0.0
C322 C 0.15198 0.8567 0.54991 0.0
C323 C 0.12995 0.84435 0.55666 0.0
C324 C 0.11027 0.82248 0.54958 0.0
C325 C 0.0889 0.81138 0.55896 0.0
C326 C 0.09887 0.83056 0.5726 0.0
C327 C 0.12281 0.84993 0.57104 0.0
C328 C 0.08503 0.78596 0.56289 0.0
C329 C 0.06603 0.81002 0.55022 0.0
C330 C 0.18072 0.9315 0.60272 0.0
C331 C 0.17885 0.94243 0.61631 0.0
C332 C 0.15782 0.92905 0.62391 0.0
C333 C 0.13883 0.90537 0.61797 0.0
C334 C 0.14078 0.89488 0.60424 0.0
C335 C 0.16155 0.90785 0.59692 0.0
C336 C 0.16043 0.89383 0.58245 0.0
C337 C 0.13531 0.8705 0.58218 0.0
C338 C 0.12394 0.87125 0.59496 0.0
C339 C 0.18201 0.88819 0.58368 0.0
C340 C 0.16101 0.90946 0.56961 0.0
H341 H 0.04311 0.78237 0.57348 0.0
H342 H 0.04145 0.8192 0.6235 0.0
H343 H 0.06036 0.86323 0.60289 0.0
H344 H 0.09104 0.88657 0.60863 0.0
H345 H 0.07115 0.86977 0.62245 0.0
H346 H 0.09601 0.82735 0.62393 0.0
H347 H 0.08812 0.84758 0.63416 0.0
H348 H 0.11726 0.85942 0.62635 0.0
H349 H 0.09566 0.79566 0.52998 0.0
H350 H 0.17048 0.85706 0.53069 0.0
H351 H 0.16797 0.87357 0.55488 0.0
H352 H 0.10309 0.78647 0.56464 0.0
H353 H 0.07332 0.77105 0.55375 0.0
H354 H 0.07672 0.78064 0.57345 0.0
H355 H 0.07157 0.82703 0.54449 0.0
H356 H 0.05211 0.80908 0.55751 0.0
H357 H 0.05697 0.79381 0.54155 0.0
H358 H 0.00743 0.76051 0.58693 0.0
C359 C 0.04338 0.79087 0.58425 0.0
C360 C 0.92621 0.51968 0.72092 0.0
C361 C 0.92921 0.54165 0.72833 0.0
C362 C 0.94232 0.55012 0.74275 0.0
C363 C 0.94804 0.51446 0.74239 0.0
C364 C 0.93571 0.50645 0.72813 0.0
C365 C 0.93319 0.48223 0.72207 0.0
H366 H 0.94635 0.38349 0.73434 0.0
C367 C 0.95464 0.49596 0.74694 0.0
C368 C 0.9462 0.47713 0.73501 0.0
H369 H 0.90965 0.39365 0.69533 0.0
H370 H 0.92303 0.43556 0.70558 0.0
H371 H 0.9951 0.43826 0.73852 0.0
H372 H 0.92551 0.40543 0.75722 0.0
H373 H 0.94851 0.42375 0.77192 0.0
H374 H 0.94936 0.39823 0.76214 0.0
H375 H 0.98883 0.41827 0.7531 0.0
H376 H 0.0018 0.45136 0.75721 0.0
C377 C 0.94719 0.48657 0.70799 0.0
C378 C 0.90514 0.46269 0.71926 0.0
C379 C 0.99146 0.50317 0.80021 0.0
C380 C 0.9977 0.48765 0.80781 0.0
C381 C 0.99708 0.46732 0.79964 0.0
C382 C 0.9891 0.46172 0.78434 0.0
C383 C 0.98137 0.47642 0.7771 0.0
C384 C 0.98335 0.49719 0.78489 0.0
C385 C 0.97453 0.51074 0.77522 0.0
C386 C 0.96624 0.49417 0.76051 0.0
C387 C 0.97003 0.47398 0.76178 0.0
C388 C 0.9969 0.53681 0.77394 0.0
C389 C 0.95252 0.511 0.78209 0.0
C390 C 0.94123 0.39475 0.72797 0.0
C391 C 0.92662 0.38511 0.71411 0.0
C392 C 0.92091 0.40061 0.70603 0.0
C393 C 0.92848 0.42487 0.71208 0.0
C394 C 0.94168 0.43361 0.72641 0.0
C395 C 0.9483 0.41878 0.73394 0.0
C396 C 0.9615 0.4306 0.74924 0.0
C397 C 0.96141 0.45488 0.74979 0.0
C398 C 0.94972 0.45653 0.73642 0.0
C399 C 0.98816 0.43475 0.74969 0.0
C400 C 0.94566 0.41372 0.76083 0.0
H401 H 0.96132 0.54398 0.76082 0.0
H402 H 0.91655 0.51281 0.70976 0.0
H403 H 0.89461 0.4662 0.72765 0.0
H404 H 0.90116 0.4436 0.72046 0.0
H405 H 0.89713 0.46319 0.70801 0.0
H406 H 0.96458 0.50492 0.70951 0.0
H407 H 0.93565 0.48629 0.698 0.0
H408 H 0.95319 0.47288 0.70564 0.0
H409 H 0.99177 0.51893 0.80617 0.0
H410 H 0.00236 0.45544 0.80518 0.0
H411 H 0.98855 0.4457 0.77884 0.0
H412 H 0.01457 0.53643 0.77448 0.0
H413 H -0.00117 0.55049 0.78317 0.0
H414 H 0.99572 0.54377 0.76311 0.0
H415 H 0.94029 0.49289 0.7863 0.0
H416 H 0.94029 0.51365 0.77396 0.0
H417 H 0.95922 0.52568 0.79165 0.0
H418 H 0.94469 0.56683 0.7488 0.0
C419 C 0.95182 0.53672 0.74978 0.0
C420 C 0.61402 0.52136 0.73074 0.0
C421 C 0.63522 0.5423 0.73824 0.0
C422 C 0.63429 0.55014 0.75312 0.0
C423 C 0.59194 0.51632 0.75267 0.0
C424 C 0.59291 0.50861 0.73815 0.0
C425 C 0.56971 0.48508 0.73196 0.0
H426 H 0.45612 0.39189 0.74197 0.0
C427 C 0.56727 0.49872 0.75709 0.0
C428 C 0.55425 0.48039 0.74495 0.0
H429 H 0.49904 0.39799 0.70495 0.0
H430 H 0.53075 0.43868 0.71571 0.0
H431 H 0.49881 0.40742 0.76563 0.0
H432 H 0.46931 0.44977 0.74631 0.0
H433 H 0.47692 0.46042 0.76544 0.0
H434 H 0.45419 0.42829 0.75963 0.0
H435 H 0.47124 0.4063 0.77116 0.0
H436 H 0.50159 0.42862 0.78029 0.0
C437 C 0.57654 0.46458 0.72876 0.0
C438 C 0.55792 0.49048 0.71809 0.0
C439 C 0.54423 0.50802 0.80953 0.0
C440 C 0.52277 0.4933 0.81643 0.0
C441 C 0.5019 0.47358 0.80782 0.0
C442 C 0.50259 0.4678 0.79273 0.0
C443 C 0.52452 0.48164 0.78615 0.0
C444 C 0.54472 0.50176 0.79435 0.0
C445 C 0.56633 0.51413 0.78522 0.0
C446 C 0.55585 0.49765 0.77041 0.0
C447 C 0.53141 0.47861 0.77116 0.0
C448 C 0.58849 0.51282 0.7929 0.0
C449 C 0.5716 0.54081 0.78363 0.0
C450 C 0.47233 0.40185 0.73613 0.0
C451 C 0.47495 0.39137 0.72259 0.0
C452 C 0.49623 0.4055 0.71531 0.0
C453 C 0.5149 0.42908 0.72169 0.0
C454 C 0.51257 0.43857 0.73565 0.0
C455 C 0.49142 0.42509 0.74253 0.0
C456 C 0.49278 0.43717 0.75776 0.0
C457 C 0.51844 0.45997 0.75898 0.0
C458 C 0.52982 0.46083 0.74596 0.0
C459 C 0.49085 0.41906 0.76939 0.0
C460 C 0.47218 0.44419 0.75743 0.0
H461 H 0.61329 0.54421 0.77162 0.0
H462 H 0.61369 0.51482 0.71929 0.0
H463 H 0.55842 0.50847 0.72029 0.0
H464 H 0.53817 0.47645 0.71507 0.0
H465 H 0.56814 0.49164 0.70826 0.0
H466 H 0.59384 0.46868 0.73565 0.0
H467 H 0.57952 0.46272 0.71685 0.0
H468 H 0.56234 0.44629 0.73173 0.0
H469 H 0.56051 0.52332 0.81593 0.0
H470 H 0.48506 0.46231 0.81287 0.0
H471 H 0.48618 0.45229 0.78691 0.0
H472 H 0.582 0.49477 0.79759 0.0
H473 H 0.59853 0.52783 0.80224 0.0
H474 H 0.60179 0.51381 0.7851 0.0
H475 H 0.55395 0.54107 0.78174 0.0
H476 H 0.58167 0.54866 0.77394 0.0
H477 H 0.58228 0.55339 0.79392 0.0
H478 H 0.65034 0.56587 0.75938 0.0
C479 C 0.61276 0.53739 0.76031 0.0
C480 C 0.61832 0.10573 0.73692 0.0
C481 C 0.63652 0.10031 0.74241 0.0
C482 C 0.63355 0.08926 0.75593 0.0
C483 C 0.59528 0.08985 0.75822 0.0
C484 C 0.59801 0.10028 0.74488 0.0
C485 C 0.57716 0.1048 0.74032 0.0
H486 H 0.47412 0.10688 0.75638 0.0
C487 C 0.57231 0.08718 0.7638 0.0
C488 C 0.56166 0.09588 0.75326 0.0
H489 H 0.51058 0.12493 0.71593 0.0
H490 H 0.54046 0.11461 0.72583 0.0
H491 H 0.47475 0.05683 0.75752 0.0
H492 H 0.52324 0.13 0.77984 0.0
H493 H 0.51803 0.10887 0.79309 0.0
H494 H 0.49217 0.11036 0.78422 0.0
H495 H 0.46674 0.06851 0.77363 0.0
H496 H 0.48416 0.05257 0.77531 0.0
C497 C 0.56318 0.08852 0.72538 0.0
C498 C 0.58827 0.13306 0.73958 0.0
C499 C 0.54646 0.05415 0.81406 0.0
C500 C 0.52673 0.05111 0.82216 0.0
C501 C 0.5094 0.05716 0.81586 0.0
C502 C 0.51176 0.06639 0.80195 0.0
C503 C 0.53171 0.06972 0.7941 0.0
C504 C 0.54864 0.06358 0.8001 0.0
C505 C 0.56876 0.06871 0.79007 0.0
C506 C 0.56091 0.07871 0.77708 0.0
C507 C 0.53919 0.07926 0.77958 0.0
C508 C 0.56749 0.04387 0.78518 0.0
C509 C 0.59387 0.08859 0.79865 0.0
C510 C 0.48837 0.10845 0.74955 0.0
C511 C 0.49003 0.11728 0.73539 0.0
C512 C 0.5091 0.11899 0.72704 0.0
C513 C 0.52639 0.11269 0.73274 0.0
C514 C 0.52465 0.10426 0.74694 0.0
C515 C 0.50563 0.10186 0.75498 0.0
C516 C 0.50599 0.09136 0.76954 0.0
C517 C 0.52858 0.08821 0.76895 0.0
C518 C 0.53958 0.09612 0.75578 0.0
C519 C 0.48166 0.06609 0.76914 0.0
C520 C 0.50989 0.11096 0.78243 0.0
H521 H 0.61195 0.07566 0.77403 0.0
H522 H 0.61996 0.11446 0.72671 0.0
H523 H 0.60272 0.14381 0.74915 0.0
H524 H 0.57452 0.13915 0.74037 0.0
H525 H 0.5971 0.13878 0.72912 0.0
H526 H 0.56512 0.07174 0.72409 0.0
H527 H 0.57042 0.09897 0.71562 0.0
H528 H 0.54292 0.08109 0.72475 0.0
H529 H 0.56017 0.04981 0.81861 0.0
H530 H 0.49379 0.0546 0.8217 0.0
H531 H 0.49795 0.07067 0.79788 0.0
H532 H 0.54787 0.02856 0.78292 0.0
H533 H 0.57682 0.03877 0.79404 0.0
H534 H 0.5757 0.04417 0.77466 0.0
H535 H 0.59177 0.10303 0.80518 0.0
H536 H 0.60813 0.09879 0.7912 0.0
H537 H 0.60108 0.08016 0.80661 0.0
H538 H 0.64694 0.08441 0.76036 0.0
C539 C 0.6131 0.08404 0.76384 0.0
C540 C 0.83025 0.5491 0.9403 0.0
C541 C 0.85352 0.55599 0.9353 0.0
C542 C 0.86011 0.56944 0.92271 0.0
C543 C 0.82072 0.56851 0.92032 0.0
C544 C 0.81438 0.55571 0.93277 0.0
C545 C 0.78944 0.55051 0.93697 0.0
H546 H 0.68842 0.56342 0.9254 0.0
C547 C 0.80004 0.57241 0.91511 0.0
C548 C 0.78174 0.56207 0.9249 0.0
H549 H 0.70561 0.52709 0.95982 0.0
H550 H 0.7432 0.53601 0.94951 0.0
H551 H 0.74462 0.61002 0.92465 0.0
H552 H 0.70442 0.53834 0.89866 0.0
H553 H 0.72149 0.5605 0.88668 0.0
H554 H 0.69747 0.56253 0.89569 0.0
H555 H 0.71775 0.60103 0.9117 0.0
H556 H 0.74817 0.61379 0.90556 0.0
C557 C 0.79342 0.56415 0.95274 0.0
C558 C 0.77211 0.52197 0.93578 0.0
C559 C 0.80439 0.61404 0.86783 0.0
C560 C 0.78798 0.61948 0.85973 0.0
C561 C 0.76535 0.61371 0.86536 0.0
C562 C 0.75918 0.60265 0.87875 0.0
C563 C 0.77571 0.59707 0.8866 0.0
C564 C 0.7979 0.60284 0.88108 0.0
C565 C 0.81311 0.5953 0.89068 0.0
C566 C 0.7963 0.58371 0.90276 0.0
C567 C 0.77442 0.58488 0.90042 0.0
C568 C 0.83765 0.61906 0.89702 0.0
C569 C 0.81658 0.57597 0.88111 0.0
C570 C 0.7002 0.55726 0.93068 0.0
C571 C 0.69406 0.54496 0.94372 0.0
C572 C 0.71006 0.53727 0.9501 0.0
C573 C 0.73192 0.54231 0.94401 0.0
C574 C 0.7381 0.55511 0.93127 0.0
C575 C 0.72222 0.56207 0.92465 0.0
C576 C 0.73161 0.57471 0.91079 0.0
C577 C 0.75606 0.57486 0.91055 0.0
C578 C 0.7597 0.56339 0.92263 0.0
C579 C 0.73568 0.60128 0.91316 0.0
C580 C 0.71281 0.5584 0.89718 0.0
H581 H 0.85006 0.58584 0.90572 0.0
H582 H 0.8243 0.53858 0.94981 0.0
H583 H 0.77637 0.51255 0.92652 0.0
H584 H 0.75235 0.51618 0.93306 0.0
H585 H 0.77429 0.51443 0.94626 0.0
H586 H 0.81127 0.58209 0.95434 0.0
H587 H 0.79395 0.55281 0.96163 0.0
H588 H 0.77919 0.56932 0.95464 0.0
H589 H 0.82176 0.61785 0.86376 0.0
H590 H 0.75244 0.61792 0.85946 0.0
H591 H 0.74175 0.5988 0.88246 0.0
H592 H 0.83487 0.6353 0.89869 0.0
H593 H 0.85216 0.62374 0.88931 0.0
H594 H 0.84486 0.61757 0.9082 0.0
H595 H 0.79928 0.56307 0.87373 0.0
H596 H 0.82053 0.56392 0.88785 0.0
H597 H 0.83166 0.5852 0.87385 0.0
H598 H 0.87803 0.57555 0.91873 0.0
C599 C 0.84387 0.57563 0.9152 0.0
C600 C 0.39649 0.13255 0.95651 0.0
C601 C 0.3947 0.11149 0.94862 0.0
C602 C 0.3832 0.10434 0.93378 0.0
C603 C 0.3777 0.14019 0.93456 0.0
C604 C 0.38793 0.14654 0.94931 0.0
C605 C 0.38972 0.17015 0.95591 0.0
H606 H 0.38678 0.27433 0.94477 0.0
C607 C 0.3726 0.15974 0.93005 0.0
C608 C 0.37942 0.17724 0.94258 0.0
H609 H 0.40564 0.25338 0.98642 0.0
H610 H 0.39457 0.21333 0.97409 0.0
H611 H 0.41042 0.25205 0.92367 0.0
H612 H 0.33645 0.22277 0.93598 0.0
H613 H 0.33297 0.2105 0.91738 0.0
H614 H 0.34761 0.24371 0.92192 0.0
H615 H 0.39006 0.26315 0.91762 0.0
H616 H 0.38992 0.2375 0.90728 0.0
C617 C 0.41749 0.1892 0.96071 0.0
C618 C 0.37299 0.16403 0.96881 0.0
C619 C 0.34482 0.15943 0.87562 0.0
C620 C 0.3411 0.17656 0.86802 0.0
C621 C 0.3433 0.1976 0.87626 0.0
C622 C 0.34979 0.20195 0.89172 0.0
C623 C 0.35439 0.18521 0.89909 0.0
C624 C 0.3515 0.16416 0.89112 0.0
C625 C 0.35745 0.14866 0.9009 0.0
C626 C 0.36433 0.16392 0.91603 0.0
C627 C 0.36269 0.18539 0.91481 0.0
C628 C 0.37979 0.14754 0.89518 0.0
C629 C 0.33371 0.12304 0.90073 0.0
C630 C 0.38812 0.26107 0.95139 0.0
C631 C 0.39752 0.26738 0.9666 0.0
C632 C 0.39908 0.24937 0.97462 0.0
C633 C 0.39253 0.22603 0.96745 0.0
C634 C 0.38431 0.22056 0.95209 0.0
C635 C 0.38148 0.23766 0.94446 0.0
C636 C 0.37171 0.2284 0.92832 0.0
C637 C 0.36974 0.20312 0.92743 0.0
C638 C 0.37755 0.19882 0.94131 0.0
C639 C 0.39134 0.24615 0.91861 0.0
C640 C 0.34593 0.22634 0.92562 0.0
H641 H 0.36638 0.1123 0.91537 0.0
H642 H 0.40535 0.13871 0.96788 0.0
H643 H 0.35712 0.14466 0.9669 0.0
H644 H 0.36427 0.1757 0.96972 0.0
H645 H 0.38355 0.16602 0.97969 0.0
H646 H 0.42914 0.18854 0.95205 0.0
H647 H 0.424 0.18514 0.97136 0.0
H648 H 0.42158 0.20857 0.96203 0.0
H649 H 0.34339 0.14315 0.86957 0.0
H650 H 0.34009 0.21083 0.8707 0.0
H651 H 0.35144 0.21846 0.89729 0.0
H652 H 0.39342 0.16572 0.8916 0.0
H653 H 0.37366 0.13332 0.88541 0.0
H654 H 0.39043 0.14374 0.9038 0.0
H655 H 0.31686 0.1249 0.90012 0.0
H656 H 0.33322 0.11418 0.91104 0.0
H657 H 0.33166 0.11025 0.89092 0.0
H658 H 0.38109 0.0879 0.92753 0.0
C659 C 0.37462 0.11851 0.92673 0.0
C660 C 0.71021 0.14972 0.94682 0.0
C661 C 0.69075 0.12604 0.94104 0.0
C662 C 0.69307 0.11489 0.92757 0.0
C663 C 0.73357 0.15074 0.92606 0.0
C664 C 0.73133 0.1615 0.93929 0.0
C665 C 0.75373 0.18637 0.94431 0.0
H666 H 0.86689 0.27833 0.93241 0.0
C667 C 0.75803 0.16797 0.9212 0.0
C668 C 0.76993 0.18875 0.93199 0.0
H669 H 0.82401 0.27547 0.96883 0.0
H670 H 0.79182 0.23445 0.95883 0.0
H671 H 0.85758 0.22444 0.93214 0.0
H672 H 0.82036 0.25471 0.90666 0.0
H673 H 0.82445 0.23458 0.89421 0.0
H674 H 0.85123 0.26104 0.90433 0.0
H675 H 0.86968 0.24006 0.91602 0.0
H676 H 0.84797 0.20708 0.91453 0.0
C677 C 0.76537 0.1848 0.95964 0.0
C678 C 0.74558 0.20616 0.94443 0.0
C679 C 0.78357 0.14914 0.87155 0.0
C680 C 0.80559 0.16183 0.86472 0.0
C681 C 0.82566 0.1837 0.87232 0.0
C682 C 0.82377 0.19319 0.8863 0.0
C683 C 0.80156 0.18073 0.89286 0.0
C684 C 0.78208 0.15879 0.8857 0.0
C685 C 0.76053 0.14756 0.89496 0.0
C686 C 0.77001 0.16694 0.90849 0.0
C687 C 0.79397 0.1864 0.90704 0.0
C688 C 0.75695 0.12238 0.89918 0.0
C689 C 0.73759 0.14562 0.88595 0.0
C690 C 0.8505 0.26891 0.93818 0.0
C691 C 0.84801 0.2802 0.95142 0.0
C692 C 0.82654 0.2671 0.95871 0.0
C693 C 0.80776 0.24331 0.95281 0.0
C694 C 0.81036 0.23242 0.93945 0.0
C695 C 0.83152 0.24515 0.93242 0.0
C696 C 0.83102 0.23076 0.91828 0.0
C697 C 0.80594 0.20736 0.91793 0.0
C698 C 0.79396 0.20849 0.93033 0.0
C699 C 0.85272 0.22536 0.92019 0.0
C700 C 0.83196 0.24596 0.90511 0.0
H701 H 0.71493 0.1177 0.90987 0.0
H702 H 0.70907 0.15914 0.95697 0.0
H703 H 0.73055 0.20121 0.93528 0.0
H704 H 0.76056 0.22466 0.9424 0.0
H705 H 0.73841 0.20777 0.95516 0.0
H706 H 0.76315 0.16606 0.9603 0.0
H707 H 0.75638 0.18836 0.96897 0.0
H708 H 0.7856 0.19768 0.96162 0.0
H709 H 0.76799 0.13209 0.86604 0.0
H710 H 0.84272 0.19388 0.86725 0.0
H711 H 0.83964 0.21006 0.89137 0.0
H712 H 0.77501 0.12285 0.90062 0.0
H713 H 0.74472 0.10708 0.89036 0.0
H714 H 0.74936 0.1177 0.91001 0.0
H715 H 0.74276 0.16303 0.88075 0.0
H716 H 0.7228 0.14303 0.89294 0.0
H717 H 0.72974 0.13008 0.87685 0.0
H718 H 0.67863 0.09651 0.92292 0.0
C719 C 0.7143 0.12712 0.92005 0.0
C720 C 0.59651 0.86158 0.05313 0.0
C721 C 0.59759 0.88229 0.06102 0.0
C722 C 0.60829 0.88921 0.07603 0.0
C723 C 0.61517 0.85423 0.07526 0.0
C724 C 0.60533 0.84789 0.06044 0.0
C725 C 0.60445 0.82474 0.05383 0.0
H726 H 0.61515 0.72433 0.06445 0.0
C727 C 0.62135 0.83538 0.07971 0.0
C728 C 0.61528 0.81817 0.06716 0.0
H729 H 0.58931 0.74167 0.02373 0.0
H730 H 0.59949 0.78162 0.03588 0.0
H731 H 0.66389 0.7792 0.07307 0.0
H732 H 0.58986 0.74315 0.08593 0.0
H733 H 0.61004 0.75935 0.10219 0.0
H734 H 0.61263 0.73511 0.09208 0.0
H735 H 0.65433 0.75678 0.08635 0.0
H736 H 0.66657 0.78938 0.09204 0.0
C737 C 0.62129 0.83155 0.04098 0.0
C738 C 0.57689 0.805 0.049 0.0
C739 C 0.65067 0.83722 0.13396 0.0
C740 C 0.65594 0.82103 0.14152 0.0
C741 C 0.65539 0.80083 0.13324 0.0
C742 C 0.64892 0.79633 0.11777 0.0
C743 C 0.6427 0.81205 0.11045 0.0
C744 C 0.64407 0.83236 0.11847 0.0
C745 C 0.63669 0.84693 0.10877 0.0
C746 C 0.63047 0.83186 0.09364 0.0
C747 C 0.63385 0.81137 0.09476 0.0
C748 C 0.65942 0.87329 0.10893 0.0
C749 C 0.61358 0.84637 0.11455 0.0
C750 C 0.6122 0.73694 0.05804 0.0
C751 C 0.60123 0.72976 0.04315 0.0
C752 C 0.59738 0.74663 0.03529 0.0
C753 C 0.6033 0.7698 0.04237 0.0
C754 C 0.61294 0.7761 0.05751 0.0
C755 C 0.61782 0.76004 0.06497 0.0
C756 C 0.62777 0.76963 0.08106 0.0
C757 C 0.62762 0.7939 0.08211 0.0
C758 C 0.61871 0.79747 0.06833 0.0
C759 C 0.65446 0.77386 0.08339 0.0
C760 C 0.60935 0.75091 0.09094 0.0
H761 H 0.62476 0.88137 0.09464 0.0
H762 H 0.58877 0.85598 0.04153 0.0
H763 H 0.5647 0.80625 0.05708 0.0
H764 H 0.57317 0.78576 0.0488 0.0
H765 H 0.57056 0.80769 0.03783 0.0
H766 H 0.63756 0.85063 0.04347 0.0
H767 H 0.61103 0.83092 0.03028 0.0
H768 H 0.62939 0.81945 0.03937 0.0
H769 H 0.6508 0.85282 0.14001 0.0
H770 H 0.65982 0.78837 0.13878 0.0
H771 H 0.64854 0.78048 0.11215 0.0
H772 H 0.67698 0.87271 0.10961 0.0
H773 H 0.66064 0.88573 0.1187 0.0
H774 H 0.65931 0.88187 0.09858 0.0
H775 H 0.60097 0.82795 0.1183 0.0
H776 H 0.60206 0.84902 0.1059 0.0
H777 H 0.61901 0.86062 0.12422 0.0
H778 H 0.6092 0.90497 0.08241 0.0
C779 C 0.61715 0.87536 0.08316 0.0
C780 C 0.28288 0.86339 0.06486 0.0
C781 C 0.30314 0.88501 0.07242 0.0
C782 C 0.30174 0.89224 0.08731 0.0
C783 C 0.26047 0.85638 0.08676 0.0
C784 C 0.26195 0.8495 0.07216 0.0
C785 C 0.23943 0.82568 0.06565 0.0
H786 H 0.13056 0.7253 0.07502 0.0
C787 C 0.23624 0.83737 0.09106 0.0
C788 C 0.22391 0.81944 0.07864 0.0
H789 H 0.17015 0.74064 0.03582 0.0
H790 H 0.20102 0.78087 0.04793 0.0
H791 H 0.17749 0.74624 0.09874 0.0
H792 H 0.13561 0.77811 0.08089 0.0
H793 H 0.1466 0.79256 0.09924 0.0
H794 H 0.12603 0.75934 0.09608 0.0
H795 H 0.14651 0.73724 0.10274 0.0
H796 H 0.17314 0.76234 0.11383 0.0
C797 C 0.24762 0.80638 0.06189 0.0
C798 C 0.22703 0.83118 0.05209 0.0
C799 C 0.21225 0.84163 0.14391 0.0
C800 C 0.19092 0.82583 0.15065 0.0
C801 C 0.17087 0.80553 0.14179 0.0
C802 C 0.17229 0.80031 0.12675 0.0
C803 C 0.19401 0.81547 0.12033 0.0
C804 C 0.21336 0.83608 0.12871 0.0
C805 C 0.23459 0.85032 0.11959 0.0
C806 C 0.22481 0.83449 0.10454 0.0
C807 C 0.20113 0.81398 0.1052 0.0
C808 C 0.25782 0.85053 0.12687 0.0
C809 C 0.23786 0.87643 0.11864 0.0
C810 C 0.14562 0.73748 0.06892 0.0
C811 C 0.14801 0.72965 0.05448 0.0
C812 C 0.1681 0.74604 0.04705 0.0
C813 C 0.18599 0.76943 0.0541 0.0
C814 C 0.18388 0.77655 0.06879 0.0
C815 C 0.16368 0.76086 0.07582 0.0
C816 C 0.16453 0.77138 0.09143 0.0
C817 C 0.18894 0.79575 0.09274 0.0
C818 C 0.20019 0.79859 0.07949 0.0
C819 C 0.16531 0.75344 0.10235 0.0
C820 C 0.14201 0.77546 0.09208 0.0
H821 H 0.28052 0.88449 0.10583 0.0
H822 H 0.28348 0.85694 0.05354 0.0
H823 H 0.22871 0.84975 0.05416 0.0
H824 H 0.20687 0.81803 0.0499 0.0
H825 H 0.23589 0.83108 0.04181 0.0
H826 H 0.2635 0.80953 0.06988 0.0
H827 H 0.25358 0.80754 0.05048 0.0
H828 H 0.23308 0.78712 0.06288 0.0
H829 H 0.2279 0.8575 0.15038 0.0
H830 H 0.15394 0.79351 0.14654 0.0
H831 H 0.15647 0.7844 0.12076 0.0
H832 H 0.25277 0.83208 0.1306 0.0
H833 H 0.26654 0.86453 0.13682 0.0
H834 H 0.27188 0.85416 0.11909 0.0
H835 H 0.21951 0.87538 0.11732 0.0
H836 H 0.24703 0.88511 0.10884 0.0
H837 H 0.24854 0.88896 0.12894 0.0
H838 H 0.31704 0.90892 0.09338 0.0
C839 C 0.28048 0.87809 0.0945 0.0
C840 C 0.29086 0.4454 0.07333 0.0
C841 C 0.30933 0.44057 0.07911 0.0
C842 C 0.30659 0.43007 0.0928 0.0
C843 C 0.26767 0.42961 0.09461 0.0
C844 C 0.27039 0.43981 0.08119 0.0
C845 C 0.2494 0.44405 0.07645 0.0
H846 H 0.14084 0.43719 0.08942 0.0
C847 C 0.24433 0.4264 0.09993 0.0
C848 C 0.23364 0.43488 0.08927 0.0
H849 H 0.18285 0.46438 0.05177 0.0
H850 H 0.21384 0.45579 0.06227 0.0
H851 H 0.14846 0.38998 0.0915 0.0
H852 H 0.18686 0.46395 0.11408 0.0
H853 H 0.18695 0.4446 0.12736 0.0
H854 H 0.15776 0.44041 0.1192 0.0
H855 H 0.13542 0.40067 0.10529 0.0
H856 H 0.15452 0.38755 0.11044 0.0
C857 C 0.23586 0.42773 0.06149 0.0
C858 C 0.2602 0.47229 0.07572 0.0
C859 C 0.21672 0.39106 0.14944 0.0
C860 C 0.19653 0.38741 0.15727 0.0
C861 C 0.17911 0.39321 0.15084 0.0
C862 C 0.18171 0.40263 0.13697 0.0
C863 C 0.20205 0.40651 0.12935 0.0
C864 C 0.21921 0.40082 0.13557 0.0
C865 C 0.24003 0.40701 0.12593 0.0
C866 C 0.23237 0.41716 0.11293 0.0
C867 C 0.21001 0.41666 0.11503 0.0
C868 C 0.23971 0.38271 0.12089 0.0
C869 C 0.26458 0.42709 0.13498 0.0
C870 C 0.15681 0.44148 0.08349 0.0
C871 C 0.15923 0.45136 0.06967 0.0
C872 C 0.18024 0.45638 0.06229 0.0
C873 C 0.19835 0.4515 0.06847 0.0
C874 C 0.19558 0.44146 0.08222 0.0
C875 C 0.17511 0.43667 0.08951 0.0
C876 C 0.17533 0.42607 0.10404 0.0
C877 C 0.19923 0.42517 0.1042 0.0
C878 C 0.21098 0.4342 0.0914 0.0
C879 C 0.1522 0.39975 0.10292 0.0
C880 C 0.17661 0.44448 0.11691 0.0
H881 H 0.28486 0.41653 0.11087 0.0
H882 H 0.29245 0.4538 0.063 0.0
H883 H 0.27596 0.48328 0.08457 0.0
H884 H 0.24673 0.47841 0.07781 0.0
H885 H 0.26719 0.47781 0.06476 0.0
H886 H 0.2359 0.40989 0.0611 0.0
H887 H 0.24502 0.43729 0.05181 0.0
H888 H 0.21604 0.42221 0.05989 0.0
H889 H 0.23052 0.38698 0.15415 0.0
H890 H 0.16326 0.39028 0.15653 0.0
H891 H 0.16776 0.40661 0.13275 0.0
H892 H 0.22033 0.3672 0.11794 0.0
H893 H 0.24845 0.37734 0.12995 0.0
H894 H 0.24906 0.3839 0.11074 0.0
H895 H 0.2616 0.44067 0.1418 0.0
H896 H 0.27893 0.4383 0.12782 0.0
H897 H 0.27209 0.41864 0.14273 0.0
H898 H 0.32033 0.42587 0.09747 0.0
C899 C 0.28589 0.42454 0.10055 0.0
C900 C 0.496 0.88462 0.27666 0.0
C901 C 0.51799 0.88834 0.27105 0.0
C902 C 0.52378 0.89861 0.25733 0.0
C903 C 0.48609 0.90098 0.25511 0.0
C904 C 0.48039 0.89092 0.26852 0.0
C905 C 0.45609 0.88756 0.27279 0.0
H906 H 0.3521 0.89352 0.25607 0.0
C907 C 0.46573 0.90503 0.24939 0.0
C908 C 0.44805 0.89708 0.25967 0.0
H909 H 0.37364 0.86965 0.29562 0.0
H910 H 0.41183 0.87844 0.28616 0.0
H911 H 0.40735 0.94252 0.25539 0.0
H912 H 0.37214 0.8688 0.232 0.0
H913 H 0.38729 0.89049 0.2193 0.0
H914 H 0.36222 0.89061 0.22808 0.0
H915 H 0.38199 0.93172 0.24097 0.0
H916 H 0.41359 0.94498 0.23664 0.0
C917 C 0.46131 0.90409 0.28764 0.0
C918 C 0.43832 0.85945 0.27349 0.0
C919 C 0.47057 0.94269 0.20044 0.0
C920 C 0.45451 0.94813 0.19193 0.0
C921 C 0.43165 0.94254 0.19716 0.0
C922 C 0.42506 0.93197 0.21066 0.0
C923 C 0.44142 0.92677 0.21905 0.0
C924 C 0.46368 0.93204 0.21383 0.0
C925 C 0.47854 0.92473 0.22393 0.0
C926 C 0.46182 0.91465 0.23624 0.0
C927 C 0.44005 0.91588 0.23339 0.0
C928 C 0.50341 0.94845 0.22976 0.0
C929 C 0.48135 0.9043 0.21509 0.0
C930 C 0.36509 0.89031 0.26274 0.0
C931 C 0.35939 0.88036 0.27655 0.0
C932 C 0.37701 0.87655 0.28478 0.0
C933 C 0.3994 0.88189 0.27931 0.0
C934 C 0.4046 0.89133 0.26544 0.0
C935 C 0.38777 0.89571 0.25744 0.0
C936 C 0.39704 0.90655 0.2431 0.0
C937 C 0.42197 0.90757 0.24376 0.0
C938 C 0.42614 0.89846 0.25686 0.0
C939 C 0.40006 0.93277 0.2439 0.0
C940 C 0.37874 0.88836 0.22985 0.0
H941 H 0.51352 0.91262 0.23902 0.0
H942 H 0.49102 0.87711 0.28723 0.0
H943 H 0.44096 0.84819 0.26452 0.0
H944 H 0.41854 0.85395 0.2716 0.0
H945 H 0.44179 0.85367 0.28438 0.0
H946 H 0.47993 0.9211 0.28854 0.0
H947 H 0.46083 0.89401 0.29747 0.0
H948 H 0.44825 0.91112 0.28851 0.0
H949 H 0.48804 0.94626 0.19663 0.0
H950 H 0.41897 0.94664 0.19089 0.0
H951 H 0.40748 0.92824 0.21404 0.0
H952 H 0.50043 0.96438 0.23239 0.0
H953 H 0.51677 0.95366 0.22125 0.0
H954 H 0.51216 0.94665 0.24027 0.0
H955 H 0.46503 0.89276 0.20668 0.0
H956 H 0.48211 0.8909 0.22227 0.0
H957 H 0.4981 0.91253 0.20901 0.0
H958 H 0.54033 0.90136 0.25256 0.0
C959 C 0.50804 0.90497 0.24939 0.0
C960 C 0.06625 0.47401 0.2928 0.0
C961 C 0.06625 0.45388 0.2849 0.0
C962 C 0.05711 0.44771 0.26961 0.0
C963 C 0.04967 0.48233 0.27017 0.0
C964 C 0.05797 0.48792 0.28525 0.0
C965 C 0.05785 0.51055 0.29187 0.0
H966 H 0.05133 0.61276 0.28045 0.0
C967 C 0.04371 0.50124 0.26555 0.0
C968 C 0.04829 0.51772 0.27825 0.0
H969 H 0.06847 0.59141 0.32243 0.0
H970 H 0.05901 0.55192 0.31 0.0
H971 H 0.07722 0.59195 0.2597 0.0
H972 H 0.00236 0.56101 0.27069 0.0
H973 H -0.00014 0.54761 0.2525 0.0
H974 H 0.01314 0.58084 0.25605 0.0
H975 H 0.05681 0.60329 0.25419 0.0
H976 H 0.05703 0.57861 0.24303 0.0
C977 C 0.08496 0.53032 0.29775 0.0
C978 C 0.03957 0.50278 0.30396 0.0
C979 C 0.01971 0.50201 0.21065 0.0
C980 C 0.01428 0.51805 0.203 0.0
C981 C 0.01363 0.53757 0.21133 0.0
C982 C 0.01914 0.5416 0.22687 0.0
C983 C 0.02542 0.52601 0.23427 0.0
C984 C 0.02509 0.50627 0.22624 0.0
C985 C 0.03165 0.49131 0.23612 0.0
C986 C 0.0361 0.50548 0.25137 0.0
C987 C 0.03278 0.52598 0.25014 0.0
C988 C 0.05562 0.49263 0.2313 0.0
C989 C 0.009 0.4647 0.23502 0.0
C990 C 0.05262 0.59951 0.28711 0.0
C991 C 0.06122 0.60562 0.30244 0.0
C992 C 0.06263 0.5876 0.31053 0.0
C993 C 0.05706 0.56462 0.30331 0.0
C994 C 0.05002 0.55953 0.28781 0.0
C995 C 0.047 0.57646 0.2801 0.0
C996 C 0.03842 0.56754 0.26381 0.0
C997 C 0.03781 0.54288 0.2629 0.0
C998 C 0.04501 0.53849 0.27693 0.0
C999 C 0.05822 0.58627 0.25459 0.0
C1000 C 0.01218 0.56418 0.26047 0.0
H1001 H 0.04236 0.45634 0.25056 0.0
H1002 H 0.07274 0.47898 0.3046 0.0
H1003 H 0.0242 0.48326 0.30127 0.0
H1004 H 0.0302 0.51386 0.3047 0.0
H1005 H 0.04909 0.5042 0.31512 0.0
H1006 H 0.09793 0.53082 0.28968 0.0
H1007 H 0.09068 0.52607 0.30859 0.0
H1008 H 0.08814 0.54937 0.29916 0.0
H1009 H 0.02044 0.48686 0.20464 0.0
H1010 H 0.00887 0.54983 0.20581 0.0
H1011 H 0.01865 0.55696 0.2325 0.0
H1012 H 0.06865 0.51147 0.22825 0.0
H1013 H 0.05137 0.47912 0.2214 0.0
H1014 H 0.06624 0.48944 0.24027 0.0
H1015 H 0.99131 0.46497 0.23351 0.0
H1016 H 0.00794 0.45564 0.24532 0.0
H1017 H 0.00911 0.45282 0.22537 0.0
H1018 H 0.05707 0.43242 0.26322 0.0
C1019 C 0.04875 0.46176 0.26223 0.0
C1020 C 0.37331 0.47426 0.27958 0.0
C1021 C 0.35339 0.45108 0.27345 0.0
C1022 C 0.35468 0.44088 0.25935 0.0
C1023 C 0.39506 0.47683 0.25776 0.0
C1024 C 0.39379 0.4867 0.27161 0.0
C1025 C 0.41614 0.51169 0.27652 0.0
H1026 H 0.52611 0.60663 0.26224 0.0
C1027 C 0.41882 0.49471 0.25243 0.0
C1028 C 0.4312 0.51514 0.26343 0.0
H1029 H 0.48646 0.60118 0.30074 0.0
H1030 H 0.45437 0.56004 0.29084 0.0
H1031 H 0.51886 0.55379 0.26069 0.0
H1032 H 0.47715 0.58188 0.23765 0.0
H1033 H 0.48186 0.56303 0.22449 0.0
H1034 H 0.50826 0.59 0.23449 0.0
H1035 H 0.52856 0.56916 0.24418 0.0
H1036 H 0.50768 0.53606 0.2432 0.0
C1037 C 0.42935 0.5097 0.29108 0.0
C1038 C 0.40743 0.53101 0.27805 0.0
C1039 C 0.44162 0.47706 0.20156 0.0
C1040 C 0.46309 0.48999 0.19431 0.0
C1041 C 0.48306 0.51235 0.20149 0.0
C1042 C 0.48166 0.52196 0.21557 0.0
C1043 C 0.46009 0.50906 0.22266 0.0
C1044 C 0.44066 0.48679 0.21582 0.0
C1045 C 0.41984 0.47515 0.22554 0.0
C1046 C 0.42984 0.4944 0.23915 0.0
C1047 C 0.45329 0.51433 0.23724 0.0
C1048 C 0.41707 0.4501 0.22939 0.0
C1049 C 0.39626 0.47292 0.2172 0.0
C1050 C 0.5104 0.59665 0.26847 0.0
C1051 C 0.50883 0.60724 0.28228 0.0
C1052 C 0.48829 0.59338 0.29016 0.0
C1053 C 0.46955 0.56952 0.28433 0.0
C1054 C 0.47125 0.55931 0.27044 0.0
C1055 C 0.4915 0.57278 0.26279 0.0
C1056 C 0.49023 0.55892 0.24823 0.0
C1057 C 0.46566 0.53506 0.24828 0.0
C1058 C 0.45466 0.53543 0.2613 0.0
C1059 C 0.5125 0.5543 0.24897 0.0
C1060 C 0.48948 0.57417 0.23546 0.0
H1061 H 0.37523 0.4449 0.24082 0.0
H1062 H 0.37279 0.48288 0.29024 0.0
H1063 H 0.39108 0.5258 0.26986 0.0
H1064 H 0.42154 0.54965 0.27557 0.0
H1065 H 0.40199 0.53244 0.2894 0.0
H1066 H 0.4285 0.49143 0.2907 0.0
H1067 H 0.42046 0.51147 0.30101 0.0
H1068 H 0.44934 0.52358 0.29283 0.0
H1069 H 0.42612 0.45967 0.19635 0.0
H1070 H 0.49969 0.52268 0.19605 0.0
H1071 H 0.49743 0.53916 0.22034 0.0
H1072 H 0.43543 0.45118 0.23066 0.0
H1073 H 0.4051 0.43493 0.22044 0.0
H1074 H 0.40959 0.4448 0.24018 0.0
H1075 H 0.40093 0.48989 0.2116 0.0
H1076 H 0.38237 0.47122 0.22472 0.0
H1077 H 0.38747 0.4568 0.20846 0.0
H1078 H 0.33972 0.42294 0.25442 0.0
C1079 C 0.37539 0.4536 0.25149 0.0
Eu1080 Eu 0.4875 0.98265 0.99166 0.0
Eu1081 Eu 0.50935 0.01954 0.02366 0.0
C1082 C 0.48102 0.02966 0.99652 0.0
C1083 C 0.47923 0.96696 0.95039 0.0
C1084 C 0.49381 0.99253 0.94945 0.0
C1085 C 0.47732 0.9595 0.92341 0.0
C1086 C 0.5 0.00155 0.93563 0.0
C1087 C 0.47112 0.95047 0.93731 0.0
C1088 C 0.4917 0.9852 0.9224 0.0
C1089 C 0.4729 0.95792 0.9651 0.0
O1090 O 0.47815 0.98264 0.02819 0.0
O1091 O 0.45517 0.97095 1.00542 0.0
C1092 C 0.45673 0.97025 0.01997 0.0
O1093 O 0.49847 0.96244 0.00759 0.0
O1094 O 0.50275 0.03963 0.0418 0.0
O1095 O 0.53646 0.03788 0.04342 0.0
O1096 O 0.52839 0.99705 0.02234 0.0
C1097 C 0.51834 0.97351 0.01735 0.0
O1098 O 0.52774 0.00986 0.99026 0.0
O1099 O 0.53582 0.04248 0.00753 0.0
O1100 O 0.48293 0.02863 0.01101 0.0
O1101 O 0.49123 0.95966 0.97391 0.0
O1102 O 0.45991 0.96562 0.97212 0.0
O1103 O 0.48845 0.01809 0.98748 0.0
C1104 C 0.51671 0.03441 0.06535 0.0
C1105 C 0.50433 0.00883 0.06664 0.0
C1106 C 0.51613 0.04223 0.09205 0.0
C1107 C 0.49759 -2e-05 0.08046 0.0
C1108 C 0.52269 0.05107 0.07815 0.0
C1109 C 0.50325 0.01655 0.09334 0.0
C1110 C 0.52202 0.04343 0.05053 0.0
C1111 C 0.5413 0.03325 0.99579 0.0
H1112 H 0.5004 0.00557 0.95944 0.0
H1113 H 0.47045 0.94641 0.91344 0.0
H1114 H 0.51146 0.02139 0.93533 0.0
H1115 H 0.45989 0.93066 0.93784 0.0
H1116 H 0.49965 0.99567 0.05691 0.0
H1117 H 0.52061 0.05548 0.10171 0.0
H1118 H 0.48802 0.98013 0.08108 0.0
H1119 H 0.53211 0.07087 0.07736 0.0
Eu1120 Eu 0.01979 0.50775 0.99014 0.0
Eu1121 Eu 0.98869 0.49775 0.01959 0.0
C1122 C 0.97219 0.45547 0.99206 0.0
C1123 C 0.04003 0.51511 0.95089 0.0
C1124 C 0.01556 0.50255 0.944 0.0
C1125 C 0.05516 0.52473 0.92669 0.0
C1126 C 0.01093 0.50085 0.92849 0.0
C1127 C 0.05977 0.52632 0.94219 0.0
C1128 C 0.0307 0.51182 0.91967 0.0
C1129 C 0.04516 0.51669 0.9671 0.0
O1130 O 0.02467 0.49974 0.02763 0.0
O1131 O 0.03194 0.48719 1.00505 0.0
C1132 C 0.03577 0.49054 0.01972 0.0
O1133 O 0.04378 0.53892 0.00798 0.0
O1134 O 0.96769 0.47276 0.03564 0.0
O1135 O 0.97308 0.50989 0.03706 0.0
O1136 O 0.01269 0.53912 0.0198 0.0
C1137 C 0.03557 0.55051 0.0164 0.0
O1138 O 0.99292 0.52144 0.98542 0.0
O1139 O 0.96378 0.49974 1.00122 0.0
O1140 O 0.97592 0.4607 0.00664 0.0
O1141 O 0.04277 0.5335 0.97494 0.0
O1142 O 0.0355 0.49561 0.9729 0.0
O1143 O 0.98372 0.47257 0.98315 0.0
C1144 C 0.97119 0.49227 0.05979 0.0
C1145 C 0.96349 0.50557 0.06896 0.0
C1146 C 0.98912 0.48398 0.08191 0.0
C1147 C 0.96865 0.50817 0.08448 0.0
C1148 C 0.98417 0.48159 0.06638 0.0
C1149 C 0.98141 0.4973 0.09111 0.0
C1150 C 0.96518 0.4895 0.04345 0.0
C1151 C 0.97076 0.5131 0.98989 0.0
H1152 H 0.0001 0.49399 0.95061 0.0
H1153 H 0.07076 0.53313 0.92017 0.0
H1154 H 0.99188 0.49105 0.9234 0.0
H1155 H 0.07876 0.53613 0.94739 0.0
H1156 H 0.95339 0.51387 0.06411 0.0
H1157 H -0.00077 0.47566 0.08673 0.0
H1158 H 0.9623 0.51834 0.09131 0.0
H1159 H 0.99049 0.47135 0.05957 0.0
Eu1160 Eu 0.51301 0.49596 0.02321 0.0
Eu1161 Eu 0.48528 0.5006 0.99204 0.0
C1162 C 0.52084 0.5473 0.01448 0.0
C1163 C 0.52254 0.48484 0.0632 0.0
C1164 C 0.49685 0.47197 0.06401 0.0
C1165 C 0.52949 0.48615 0.0901 0.0
C1166 C 0.48751 0.4664 0.07783 0.0
C1167 C 0.53878 0.49162 0.07628 0.0
C1168 C 0.50374 0.47375 0.09108 0.0
C1169 C 0.53251 0.49323 0.04903 0.0
O1170 O 0.52409 0.5114 0.98691 0.0
O1171 O 0.53733 0.49594 0.00578 0.0
C1172 C 0.53991 0.5054 0.99291 0.0
O1173 O 0.48343 0.45725 0.01412 0.0
O1174 O 0.4842 0.52484 0.97595 0.0
O1175 O 0.45732 0.48555 0.97264 0.0
O1176 O 0.48258 0.46335 0.98935 0.0
C1177 C 0.4777 0.44858 0.99994 0.0
O1178 O 0.47942 0.49726 0.02986 0.0
O1179 O 0.45498 0.4851 0.00735 0.0
O1180 O 0.49811 0.53483 0.0079 0.0
O1181 O 0.52504 0.47622 0.03769 0.0
O1182 O 0.53233 0.51303 0.04536 0.0
O1183 O 0.53269 0.5357 0.01818 0.0
C1184 C 0.47366 0.5057 0.95144 0.0
C1185 C 0.4897 0.49676 0.94824 0.0
C1186 C 0.47268 0.51554 0.92585 0.0
C1187 C 0.4971 0.49711 0.93393 0.0
C1188 C 0.46524 0.51514 0.9402 0.0
C1189 C 0.48867 0.50648 0.92256 0.0
C1190 C 0.46709 0.50653 0.96672 0.0
C1191 C 0.4577 0.48852 0.02205 0.0
H1192 H 0.48403 0.46676 0.054 0.0
H1193 H 0.54258 0.49251 0.10006 0.0
H1194 H 0.46761 0.45661 0.07813 0.0
H1195 H 0.55867 0.50184 0.07586 0.0
H1196 H 0.49668 0.48973 0.95686 0.0
H1197 H 0.46569 0.52265 0.91729 0.0
H1198 H 0.50971 0.49033 0.93183 0.0
H1199 H 0.45303 0.52232 0.94254 0.0
Eu1200 Eu 0.15098 0.31495 0.32547 0.0
Eu1201 Eu 0.17233 0.35221 0.3572 0.0
C1202 C 0.14264 0.36167 0.33082 0.0
C1203 C 0.14243 0.29787 0.28371 0.0
C1204 C 0.13416 0.31346 0.27828 0.0
C1205 C 0.16259 0.30061 0.26106 0.0
C1206 C 0.14017 0.32263 0.26444 0.0
C1207 C 0.1564 0.29128 0.27485 0.0
C1208 C 0.15483 0.31669 0.25573 0.0
C1209 C 0.13848 0.29004 0.29898 0.0
O1210 O 0.1315 0.3264 0.35761 0.0
O1211 O 0.12507 0.29271 0.34208 0.0
C1212 C 0.11838 0.30266 0.35283 0.0
O1213 O 0.17822 0.30723 0.33814 0.0
O1214 O 0.1696 0.37682 0.37427 0.0
O1215 O 0.19857 0.36751 0.37748 0.0
O1216 O 0.17162 0.31683 0.36153 0.0
C1217 C 0.17978 0.30586 0.35257 0.0
O1218 O 0.18201 0.35164 0.32053 0.0
O1219 O 0.20481 0.36481 0.34347 0.0
O1220 O 0.16198 0.37255 0.34099 0.0
O1221 O 0.15848 0.2953 0.30751 0.0
O1222 O 0.12329 0.29428 0.30624 0.0
O1223 O 0.13267 0.33816 0.32573 0.0
C1224 C 0.17915 0.36961 0.39878 0.0
C1225 C 0.19737 0.37401 0.4104 0.0
C1226 C 0.14742 0.34886 0.41547 0.0
C1227 C 0.19069 0.36568 0.42438 0.0
C1228 C 0.15409 0.357 0.40148 0.0
C1229 C 0.16559 0.35284 0.42709 0.0
C1230 C 0.18638 0.37694 0.38375 0.0
C1231 C 0.20327 0.36495 0.32886 0.0
H1232 H 0.12343 0.31901 0.28483 0.0
H1233 H 0.17413 0.29581 0.25481 0.0
H1234 H 0.13339 0.33452 0.26062 0.0
H1235 H 0.16315 0.27942 0.27881 0.0
H1236 H 0.21679 0.38349 0.40858 0.0
H1237 H 0.12795 0.33945 0.41714 0.0
H1238 H 0.20522 0.3688 0.43293 0.0
H1239 H 0.13953 0.35314 0.39273 0.0
Eu1240 Eu 0.68044 0.83429 0.3239 0.0
Eu1241 Eu 0.64847 0.82176 0.35304 0.0
C1242 C 0.63315 0.78157 0.32478 0.0
C1243 C 0.6993 0.84208 0.28439 0.0
C1244 C 0.67459 0.82962 0.2779 0.0
C1245 C 0.71325 0.85159 0.25991 0.0
C1246 C 0.66924 0.82794 0.26245 0.0
C1247 C 0.71857 0.85316 0.27535 0.0
C1248 C 0.68853 0.83883 0.25328 0.0
C1249 C 0.70514 0.84364 0.30054 0.0
O1250 O 0.68441 0.82387 0.36124 0.0
O1251 O 0.69351 0.81401 0.33849 0.0
C1252 C 0.69654 0.81615 0.35317 0.0
O1253 O 0.70465 0.86506 0.3419 0.0
O1254 O 0.62908 0.79568 0.36899 0.0
O1255 O 0.62852 0.83012 0.36936 0.0
O1256 O 0.67482 0.86305 0.35633 0.0
C1257 C 0.69719 0.87506 0.35208 0.0
O1258 O 0.65559 0.85063 0.32089 0.0
O1259 O 0.62468 0.8254 0.33454 0.0
O1260 O 0.63745 0.78579 0.33938 0.0
O1261 O 0.70291 0.86031 0.30864 0.0
O1262 O 0.69587 0.82254 0.30628 0.0
O1263 O 0.64401 0.7996 0.31635 0.0
C1264 C 0.62755 0.81345 0.39261 0.0
C1265 C 0.63129 0.83498 0.401 0.0
C1266 C 0.63118 0.79677 0.41574 0.0
C1267 C 0.63507 0.83743 0.41661 0.0
C1268 C 0.62734 0.7943 0.40016 0.0
C1269 C 0.63508 0.81835 0.42416 0.0
C1270 C 0.623 0.81037 0.37611 0.0
C1271 C 0.63284 0.84122 0.32447 0.0
H1272 H 0.65949 0.82112 0.28478 0.0
H1273 H 0.72849 0.85992 0.25312 0.0
H1274 H 0.65002 0.81826 0.25768 0.0
H1275 H 0.73774 0.86287 0.28024 0.0
H1276 H 0.63118 0.84992 0.39554 0.0
H1277 H 0.63136 0.78185 0.42118 0.0
H1278 H 0.63763 0.85413 0.42277 0.0
H1279 H 0.62422 0.77735 0.39403 0.0
Eu1280 Eu 0.1807 0.83456 0.357 0.0
Eu1281 Eu 0.153 0.83954 0.32602 0.0
C1282 C 0.18832 0.88602 0.34863 0.0
C1283 C 0.19154 0.82318 0.39677 0.0
C1284 C 0.20811 0.8305 0.40974 0.0
C1285 C 0.15698 0.80353 0.41164 0.0
C1286 C 0.19921 0.82469 0.42363 0.0
C1287 C 0.16593 0.80945 0.39775 0.0
C1288 C 0.17352 0.8114 0.42479 0.0
C1289 C 0.20101 0.83182 0.38252 0.0
O1290 O 0.19228 0.85163 0.32135 0.0
O1291 O 0.20316 0.8325 0.3389 0.0
C1292 C 0.20689 0.84364 0.32661 0.0
O1293 O 0.14994 0.79617 0.34856 0.0
O1294 O 0.15029 0.86353 0.31034 0.0
O1295 O 0.12621 0.82373 0.30598 0.0
O1296 O 0.14941 0.80181 0.32373 0.0
C1297 C 0.14393 0.78719 0.33444 0.0
O1298 O 0.14707 0.83556 0.36393 0.0
O1299 O 0.12277 0.82461 0.34139 0.0
O1300 O 0.16564 0.87365 0.34197 0.0
O1301 O 0.1934 0.81492 0.37111 0.0
O1302 O 0.20047 0.85154 0.37908 0.0
O1303 O 0.20025 0.87438 0.3521 0.0
C1304 C 0.1418 0.84587 0.28522 0.0
C1305 C 0.12344 0.83257 0.2732 0.0
C1306 C 0.17332 0.8587 0.26793 0.0
C1307 C 0.12996 0.83206 0.25868 0.0
C1308 C 0.16682 0.85899 0.28246 0.0
C1309 C 0.15498 0.84502 0.25591 0.0
C1310 C 0.13479 0.84507 0.30058 0.0
C1311 C 0.12546 0.82749 0.35611 0.0
H1312 H 0.22793 0.84138 0.40919 0.0
H1313 H 0.13712 0.79305 0.41207 0.0
H1314 H 0.2125 0.83146 0.43351 0.0
H1315 H 0.15285 0.80382 0.38783 0.0
H1316 H 0.10406 0.82228 0.27509 0.0
H1317 H 0.19276 0.86858 0.26616 0.0
H1318 H 0.11542 0.8215 0.24961 0.0
H1319 H 0.18143 0.86917 0.29156 0.0
Eu1320 Eu 0.82143 0.6429 0.65854 0.0
Eu1321 Eu 0.84212 0.68072 0.69023 0.0
C1322 C 0.81356 0.68907 0.66256 0.0
C1323 C 0.81313 0.62628 0.61667 0.0
C1324 C 0.79772 0.6329 0.6085 0.0
C1325 C 0.83988 0.63762 0.59653 0.0
C1326 C 0.80358 0.64222 0.5947 0.0
C1327 C 0.83404 0.62832 0.61037 0.0
C1328 C 0.82494 0.64508 0.58863 0.0
C1329 C 0.808 0.6184 0.63192 0.0
O1330 O 0.80986 0.64504 0.69527 0.0
O1331 O 0.78846 0.62983 0.67188 0.0
C1332 C 0.7892 0.63098 0.68654 0.0
O1333 O 0.83049 0.62229 0.6751 0.0
O1334 O 0.8362 0.70271 0.70752 0.0
O1335 O 0.86917 0.69969 0.70994 0.0
O1336 O 0.85971 0.65674 0.69036 0.0
C1337 C 0.84958 0.63314 0.68542 0.0
O1338 O 0.86249 0.66858 0.65881 0.0
O1339 O 0.86831 0.7026 0.67368 0.0
O1340 O 0.81503 0.68823 0.67707 0.0
O1341 O 0.82668 0.621 0.6408 0.0
O1342 O 0.79414 0.62495 0.63893 0.0
O1343 O 0.82206 0.67808 0.6539 0.0
C1344 C 0.84961 0.69889 0.73163 0.0
C1345 C 0.83538 0.67364 0.7336 0.0
C1346 C 0.85122 0.70931 0.75828 0.0
C1347 C 0.8289 0.66627 0.74775 0.0
C1348 C 0.85757 0.71668 0.74406 0.0
C1349 C 0.83662 0.684 0.76028 0.0
C1350 C 0.85519 0.70651 0.71653 0.0
C1351 C 0.87538 0.69243 0.6633 0.0
H1352 H 0.78129 0.63129 0.61289 0.0
H1353 H 0.85652 0.63965 0.59224 0.0
H1354 H 0.79135 0.64728 0.58879 0.0
H1355 H 0.84623 0.62323 0.61629 0.0
H1356 H 0.82912 0.6596 0.72416 0.0
H1357 H 0.85731 0.72346 0.76765 0.0
H1358 H 0.81798 0.64664 0.74889 0.0
H1359 H 0.86847 0.73626 0.74275 0.0
Eu1360 Eu 0.34887 0.17048 0.65629 0.0
Eu1361 Eu 0.31589 0.15869 0.68532 0.0
C1362 C 0.30204 0.11758 0.6577 0.0
C1363 C 0.37086 0.1779 0.61734 0.0
C1364 C 0.34703 0.16926 0.61014 0.0
C1365 C 0.38752 0.18508 0.59344 0.0
C1366 C 0.34346 0.16852 0.59462 0.0
C1367 C 0.39105 0.18579 0.60895 0.0
C1368 C 0.36369 0.17645 0.5861 0.0
C1369 C 0.37498 0.17912 0.6336 0.0
O1370 O 0.3521 0.16231 0.69435 0.0
O1371 O 0.36326 0.15286 0.67217 0.0
C1372 C 0.36552 0.15559 0.68684 0.0
O1373 O 0.37129 0.20308 0.67351 0.0
O1374 O 0.29577 0.13253 0.70109 0.0
O1375 O 0.29615 0.16742 0.70162 0.0
O1376 O 0.34089 0.20017 0.68776 0.0
C1377 C 0.36296 0.21288 0.68322 0.0
O1378 O 0.3223 0.18427 0.65129 0.0
O1379 O 0.29235 0.16204 0.66656 0.0
O1380 O 0.30584 0.12247 0.67229 0.0
O1381 O 0.37252 0.19603 0.64126 0.0
O1382 O 0.36465 0.15794 0.63926 0.0
O1383 O 0.31302 0.13513 0.649 0.0
C1384 C 0.29497 0.15045 0.72479 0.0
C1385 C 0.30248 0.17319 0.73323 0.0
C1386 C 0.29618 0.13246 0.74781 0.0
C1387 C 0.30691 0.17555 0.74881 0.0
C1388 C 0.29164 0.13007 0.73226 0.0
C1389 C 0.30393 0.15524 0.75628 0.0
C1390 C 0.29019 0.14753 0.7083 0.0
C1391 C 0.3 0.17596 0.6555 0.0
H1392 H 0.33125 0.1631 0.61653 0.0
H1393 H 0.40352 0.19164 0.58723 0.0
H1394 H 0.32483 0.1615 0.58928 0.0
H1395 H 0.40958 0.19263 0.6144 0.0
H1396 H 0.30493 0.18918 0.72784 0.0
H1397 H 0.29397 0.11651 0.75316 0.0
H1398 H 0.31244 0.19324 0.755 0.0
H1399 H 0.28564 0.11225 0.72607 0.0
Eu1400 Eu 0.84143 0.15082 0.68904 0.0
Eu1401 Eu 0.81444 0.15711 0.65792 0.0
C1402 C 0.84861 0.203 0.68189 0.0
C1403 C 0.85226 0.14364 0.72978 0.0
C1404 C 0.87055 0.15517 0.742 0.0
C1405 C 0.82047 0.13041 0.74688 0.0
C1406 C 0.86389 0.15441 0.75657 0.0
C1407 C 0.82715 0.1313 0.73234 0.0
C1408 C 0.83874 0.142 0.7592 0.0
C1409 C 0.85945 0.14498 0.71445 0.0
O1410 O 0.84845 0.15668 0.65114 0.0
O1411 O 0.87188 0.16586 0.67393 0.0
C1412 C 0.86961 0.16369 0.65922 0.0
O1413 O 0.82872 0.11686 0.67293 0.0
O1414 O 0.80386 0.17852 0.64384 0.0
O1415 O 0.79425 0.14104 0.63588 0.0
O1416 O 0.79496 0.11685 0.66182 0.0
C1417 C 0.80648 0.10496 0.66563 0.0
O1418 O 0.80207 0.13808 0.6934 0.0
O1419 O 0.78991 0.1561 0.67562 0.0
O1420 O 0.84455 0.19513 0.66763 0.0
O1421 O 0.84407 0.12664 0.70457 0.0
O1422 O 0.86793 0.16646 0.70923 0.0
O1423 O 0.84251 0.18739 0.69204 0.0
C1424 C 0.80491 0.16966 0.61807 0.0
C1425 C 0.82527 0.16798 0.61375 0.0
C1426 C 0.80082 0.18383 0.59411 0.0
C1427 C 0.833 0.17362 0.59959 0.0
C1428 C 0.79301 0.17803 0.60827 0.0
C1429 C 0.82061 0.18123 0.58947 0.0
C1430 C 0.79533 0.16153 0.63243 0.0
C1431 C 0.78674 0.14508 0.68797 0.0
H1432 H 0.89001 0.16495 0.74026 0.0
H1433 H 0.80096 0.12043 0.74845 0.0
H1434 H 0.87846 0.16393 0.76574 0.0
H1435 H 0.81264 0.12229 0.72309 0.0
H1436 H 0.83473 0.16155 0.62116 0.0
H1437 H 0.79112 0.19005 0.58673 0.0
H1438 H 0.84806 0.17105 0.59641 0.0
H1439 H 0.77736 0.17959 0.61145 0.0
H1440 H 0.30597 0.89602 0.04337 0.0
H1441 H 0.45397 0.96215 0.04943 0.0
H1442 H 0.3519 0.90611 0.08403 0.0
H1443 H 0.40793 0.94739 0.00798 0.0
H1444 H 0.41687 0.94243 0.06232 0.0
H1445 H 0.34312 0.91602 0.03041 0.0
C1446 C 0.32389 0.90246 0.04959 0.0
C1447 C 0.32578 0.89921 0.06481 0.0
C1448 C 0.41483 0.9434 0.0504 0.0
C1449 C 0.36848 0.92228 0.05001 0.0
C1450 C 0.43605 0.95464 0.04299 0.0
C1451 C 0.43411 0.95648 0.02756 0.0
C1452 C 0.39139 0.93392 0.04237 0.0
C1453 C 0.41033 0.94634 0.01986 0.0
C1454 C 0.3451 0.91392 0.04218 0.0
C1455 C 0.34954 0.90838 0.07234 0.0
N1456 N 0.3899 0.93557 0.02736 0.0
N1457 N 0.36993 0.91939 0.06484 0.0
H1458 H 0.13368 0.47089 0.08351 0.0
H1459 H 0.0608 0.47002 0.00683 0.0
H1460 H 0.1407 0.44294 0.04019 0.0
H1461 H 0.05041 0.4958 0.04986 0.0
H1462 H 0.08982 0.45973 0.01916 0.0
H1463 H 0.10272 0.47958 0.07173 0.0
C1464 C 0.12862 0.46643 0.07155 0.0
C1465 C 0.13996 0.45628 0.06283 0.0
C1466 C 0.0812 0.4676 0.02595 0.0
C1467 C 0.10469 0.4664 0.04927 0.0
C1468 C 0.06458 0.47352 0.0189 0.0
C1469 C 0.05313 0.48389 0.0273 0.0
C1470 C 0.08659 0.47208 0.04156 0.0
C1471 C 0.05881 0.48789 0.04291 0.0
C1472 C 0.11103 0.47152 0.06483 0.0
C1473 C 0.13283 0.45116 0.04735 0.0
N1474 N 0.07519 0.48203 0.04954 0.0
N1475 N 0.11573 0.45631 0.04109 0.0
H1476 H 0.62357 0.70149 0.04506 0.0
H1477 H 0.50237 0.57757 0.00765 0.0
H1478 H 0.55699 0.69916 0.02628 0.0
H1479 H 0.5679 0.5792 0.02776 0.0
H1480 H 0.52337 0.62266 0.01264 0.0
H1481 H 0.60493 0.65728 0.03681 0.0
C1482 C 0.60511 0.69171 0.03909 0.0
C1483 C 0.59175 0.70399 0.03644 0.0
C1484 C 0.53319 0.61317 0.01593 0.0
C1485 C 0.5703 0.65344 0.027 0.0
C1486 C 0.52118 0.5874 0.01312 0.0
C1487 C 0.53334 0.57457 0.01739 0.0
C1488 C 0.55753 0.62623 0.02308 0.0
C1489 C 0.55776 0.58831 0.02435 0.0
C1490 C 0.59449 0.6665 0.03437 0.0
C1491 C 0.56806 0.69051 0.02846 0.0
N1492 N 0.56903 0.6134 0.02703 0.0
N1493 N 0.55801 0.66592 0.02414 0.0
H1494 H 0.86644 0.29825 0.98066 0.0
H1495 H 0.95796 0.43695 0.96247 0.0
H1496 H 0.87371 0.32031 0.93595 0.0
H1497 H 0.94665 0.41502 0.00713 0.0
H1498 H 0.9286 0.39402 0.95239 0.0
H1499 H 0.89726 0.34075 0.99045 0.0
C1500 C 0.87447 0.31206 0.9729 0.0
C1501 C 0.8674 0.30573 0.95747 0.0
C1502 C 0.93259 0.39864 0.96439 0.0
C1503 C 0.90289 0.35443 0.96858 0.0
C1504 C 0.94936 0.42313 0.97016 0.0
C1505 C 0.95475 0.42962 0.98567 0.0
C1506 C 0.92118 0.38052 0.97422 0.0
C1507 C 0.94304 0.41093 0.99509 0.0
C1508 C 0.89216 0.33631 0.97849 0.0
C1509 C 0.87879 0.3243 0.94792 0.0
N1510 N 0.92682 0.38726 0.98921 0.0
N1511 N 0.89591 0.34783 0.95364 0.0
H1512 H 0.6884 0.54645 0.97367 0.0
H1513 H 0.5477 0.51572 0.96389 0.0
H1514 H 0.64773 0.53266 0.93026 0.0
H1515 H 0.58262 0.50702 1.00418 0.0
H1516 H 0.58498 0.5257 0.95164 0.0
H1517 H 0.6508 0.53617 0.98527 0.0
C1518 C 0.67156 0.5411 0.96651 0.0
C1519 C 0.67133 0.54011 0.95087 0.0
C1520 C 0.58441 0.52152 0.96314 0.0
C1521 C 0.62803 0.52878 0.96427 0.0
C1522 C 0.56316 0.51586 0.97017 0.0
C1523 C 0.56198 0.51051 0.98513 0.0
C1524 C 0.60481 0.52219 0.97117 0.0
C1525 C 0.5826 0.51091 0.99265 0.0
C1526 C 0.65006 0.53533 0.9732 0.0
C1527 C 0.64896 0.53384 0.94233 0.0
N1528 N 0.60317 0.5168 0.98563 0.0
N1529 N 0.62822 0.5284 0.94914 0.0
H1530 H 0.42092 0.0926 0.93538 0.0
H1531 H 0.45772 0.05127 0.01076 0.0
H1532 H 0.39532 0.10033 0.97766 0.0
H1533 H 0.47688 0.03783 0.96734 0.0
H1534 H 0.436 0.0707 0.99919 0.0
H1535 H 0.44199 0.07298 0.94714 0.0
C1536 C 0.41944 0.08989 0.9471 0.0
C1537 C 0.40623 0.09809 0.95552 0.0
C1538 C 0.44501 0.06352 0.99222 0.0
C1539 C 0.43088 0.07608 0.96918 0.0
C1540 C 0.45751 0.05253 0.99883 0.0
C1541 C 0.46912 0.04288 0.99002 0.0
C1542 C 0.44421 0.06491 0.97671 0.0
C1543 C 0.46816 0.04495 0.9746 0.0
C1544 C 0.43169 0.07887 0.95386 0.0
C1545 C 0.4055 0.09456 0.97077 0.0
N1546 N 0.45592 0.05571 0.96846 0.0
N1547 N 0.4177 0.08386 0.97712 0.0
H1548 H 0.64222 0.09587 0.92904 0.0
H1549 H 0.58427 0.07632 0.00707 0.0
H1550 H 0.68768 0.1269 0.97144 0.0
H1551 H 0.54782 0.02622 0.96681 0.0
H1552 H 0.62081 0.1003 0.99375 0.0
H1553 H 0.60572 0.07486 0.94242 0.0
C1554 C 0.64464 0.09819 0.94114 0.0
C1555 C 0.66823 0.11317 0.94906 0.0
C1556 C 0.60471 0.08407 0.98789 0.0
C1557 C 0.62625 0.08957 0.96447 0.0
C1558 C 0.58388 0.07051 0.99544 0.0
C1559 C 0.56309 0.04917 0.98807 0.0
C1560 C 0.60444 0.07642 0.97283 0.0
C1561 C 0.56354 0.04239 0.973 0.0
C1562 C 0.62372 0.08632 0.94878 0.0
C1563 C 0.66992 0.11589 0.96479 0.0
N1564 N 0.58381 0.05597 0.96589 0.0
N1565 N 0.64923 0.10424 0.97197 0.0
H1566 H 0.88588 0.54354 0.92323 0.0
H1567 H 0.92901 0.51075 0.99956 0.0
H1568 H 0.86093 0.55309 0.96544 0.0
H1569 H 0.97223 0.52876 0.96201 0.0
H1570 H 0.90036 0.52098 0.98628 0.0
H1571 H 0.91447 0.53332 0.93642 0.0
C1572 C 0.88645 0.54369 0.93526 0.0
C1573 C 0.87087 0.54933 0.94318 0.0
C1574 C 0.91614 0.52271 0.98097 0.0
C1575 C 0.90328 0.53694 0.95831 0.0
C1576 C 0.93244 0.51677 0.9885 0.0
C1577 C 0.9531 0.51895 0.9819 0.0
C1578 C 0.92027 0.53053 0.96662 0.0
C1579 C 0.95665 0.52695 0.96757 0.0
C1580 C 0.90273 0.53768 0.94277 0.0
C1581 C 0.87217 0.54851 0.95876 0.0
N1582 N 0.94033 0.53232 0.96038 0.0
N1583 N 0.888 0.54237 0.96578 0.0
H1584 H 0.43752 0.29479 0.98783 0.0
H1585 H 0.44795 0.42276 0.97428 0.0
H1586 H 0.37965 0.29903 0.96148 0.0
H1587 H 0.47787 0.413 0.01619 0.0
H1588 H 0.42631 0.37784 0.96757 0.0
H1589 H 0.45551 0.33844 0.99719 0.0
C1590 C 0.4283 0.30466 0.98417 0.0
C1591 C 0.40708 0.2931 0.97369 0.0
C1592 C 0.43753 0.38556 0.97826 0.0
C1593 C 0.4282 0.34331 0.98403 0.0
C1594 C 0.45002 0.41116 0.98204 0.0
C1595 C 0.46475 0.42155 0.99578 0.0
C1596 C 0.44022 0.37033 0.98815 0.0
C1597 C 0.46663 0.40567 1.00549 0.0
C1598 C 0.43874 0.32966 0.98946 0.0
C1599 C 0.39637 0.3072 0.96921 0.0
N1600 N 0.4547 0.38079 1.00142 0.0
N1601 N 0.40724 0.33164 0.97424 0.0
H1602 H 0.09753 0.70251 0.05506 0.0
H1603 H 0.08447 0.57969 0.01234 0.0
H1604 H 0.15877 0.69804 0.03859 0.0
H1605 H 0.0246 0.5818 0.03257 0.0
H1606 H 0.11139 0.62369 0.02071 0.0
H1607 H 0.06985 0.65897 0.04556 0.0
C1608 C 0.10515 0.6924 0.04942 0.0
C1609 C 0.13054 0.70394 0.04766 0.0
C1610 C 0.09237 0.61453 0.02333 0.0
C1611 C 0.09895 0.65415 0.03671 0.0
C1612 C 0.07697 0.58937 0.01857 0.0
C1613 C 0.05223 0.57699 0.02178 0.0
C1614 C 0.08298 0.62748 0.03134 0.0
C1615 C 0.04356 0.59055 0.02988 0.0
C1616 C 0.08933 0.66756 0.04397 0.0
C1617 C 0.1393 0.69003 0.04004 0.0
N1618 N 0.05892 0.61508 0.03437 0.0
N1619 N 0.12355 0.66586 0.03491 0.0
H1620 H 0.35808 0.46039 0.09066 0.0
H1621 H 0.40911 0.46941 0.01045 0.0
H1622 H 0.31103 0.43507 0.04878 0.0
H1623 H 0.45582 0.49194 0.0524 0.0
H1624 H 0.37305 0.45719 0.02429 0.0
H1625 H 0.39406 0.47189 0.07686 0.0
C1626 C 0.35524 0.45704 0.07858 0.0
C1627 C 0.33139 0.44679 0.07091 0.0
C1628 C 0.3912 0.46485 0.03046 0.0
C1629 C 0.37271 0.4603 0.05497 0.0
C1630 C 0.41185 0.4719 0.02256 0.0
C1631 C 0.43564 0.48182 0.03023 0.0
C1632 C 0.39428 0.4677 0.04618 0.0
C1633 C 0.43792 0.48448 0.04595 0.0
C1634 C 0.37586 0.46379 0.07069 0.0
C1635 C 0.32904 0.44327 0.0552 0.0
N1636 N 0.41755 0.47747 0.05338 0.0
N1637 N 0.34938 0.45004 0.04778 0.0
H1638 H 0.61627 0.93258 0.06319 0.0
H1639 H 0.50236 0.92378 0.01145 0.0
H1640 H 0.5543 0.86336 0.04247 0.0
H1641 H 0.56106 0.99147 0.03605 0.0
H1642 H 0.52218 0.90143 0.02137 0.0
H1643 H 0.59731 0.95469 0.05202 0.0
C1644 C 0.59865 0.92203 0.05632 0.0
C1645 C 0.58683 0.89608 0.05381 0.0
C1646 C 0.5307 0.92118 0.02456 0.0
C1647 C 0.56508 0.92128 0.04086 0.0
C1648 C 0.51941 0.93395 0.0189 0.0
C1649 C 0.53001 0.95952 0.02295 0.0
C1650 C 0.55276 0.93413 0.0343 0.0
C1651 C 0.55213 0.97175 0.03264 0.0
C1652 C 0.58787 0.93466 0.04988 0.0
C1653 C 0.56421 0.8834 0.04457 0.0
N1654 N 0.56273 0.95894 0.03797 0.0
N1655 N 0.55403 0.89612 0.03847 0.0
H1656 H 0.99657 0.25623 0.4067 0.0
H1657 H 0.08933 0.25157 0.35077 0.0
H1658 H 0.99624 0.18866 0.3926 0.0
H1659 H 0.09607 0.31903 0.37178 0.0
H1660 H 0.05332 0.22754 0.36438 0.0
H1661 H 0.03173 0.27909 0.39264 0.0
C1662 C 0.00401 0.24619 0.40078 0.0
C1663 C 0.99338 0.22044 0.40091 0.0
C1664 C 0.06273 0.24761 0.36595 0.0
C1665 C 0.03351 0.24654 0.38446 0.0
C1666 C 0.08318 0.26131 0.35814 0.0
C1667 C 0.09579 0.28735 0.36014 0.0
C1668 C 0.05481 0.26009 0.37572 0.0
C1669 C 0.08707 0.299 0.3699 0.0
C1670 C 0.02402 0.25925 0.39263 0.0
C1671 C 0.00358 0.20844 0.39269 0.0
N1672 N 0.06719 0.28532 0.37728 0.0
N1673 N 0.02304 0.22157 0.38478 0.0
H1674 H 0.79514 0.79706 0.41667 0.0
H1675 H 0.7231 0.79761 0.34003 0.0
H1676 H 0.8042 0.77172 0.37315 0.0
H1677 H 0.71037 0.82006 0.3833 0.0
H1678 H 0.75261 0.7878 0.35223 0.0
H1679 H 0.76364 0.80502 0.40496 0.0
C1680 C 0.79041 0.793 0.40467 0.0
C1681 C 0.80249 0.78382 0.39588 0.0
C1682 C 0.74336 0.79482 0.35909 0.0
C1683 C 0.7666 0.79314 0.38239 0.0
C1684 C 0.72646 0.80047 0.35212 0.0
C1685 C 0.7142 0.80975 0.36063 0.0
C1686 C 0.74822 0.7985 0.37474 0.0
C1687 C 0.71938 0.81297 0.37627 0.0
C1688 C 0.7725 0.79768 0.39799 0.0
C1689 C 0.79575 0.77921 0.38036 0.0
N1690 N 0.73604 0.80742 0.38282 0.0
N1691 N 0.77834 0.78395 0.37414 0.0
H1692 H 0.22034 0.03757 0.36218 0.0
H1693 H 0.23579 0.91784 0.36131 0.0
H1694 H 0.28802 0.03981 0.37854 0.0
H1695 H 0.16921 0.91627 0.34324 0.0
H1696 H 0.25587 0.96282 0.36669 0.0
H1697 H 0.20224 0.99362 0.35369 0.0
C1698 C 0.23156 0.02893 0.36377 0.0
C1699 C 0.25572 0.04239 0.37115 0.0
C1700 C 0.2369 0.95265 0.3615 0.0
C1701 C 0.23488 0.99189 0.36174 0.0
C1702 C 0.22538 0.92694 0.35846 0.0
C1703 C 0.20072 0.91325 0.35189 0.0
C1704 C 0.22365 0.96477 0.35798 0.0
C1705 C 0.18821 0.92606 0.34838 0.0
C1706 C 0.22112 0.00375 0.35903 0.0
C1707 C 0.2692 0.03006 0.37311 0.0
N1708 N 0.19979 0.9511 0.35152 0.0
N1709 N 0.25854 0.00547 0.36853 0.0
H1710 H 0.52958 0.62404 0.31127 0.0
H1711 H 0.61715 0.76486 0.295 0.0
H1712 H 0.5325 0.64844 0.26727 0.0
H1713 H 0.60969 0.73981 0.33899 0.0
H1714 H 0.58776 0.72218 0.2843 0.0
H1715 H 0.56052 0.6663 0.32134 0.0
C1716 C 0.53668 0.63832 0.30373 0.0
C1717 C 0.52832 0.63271 0.28842 0.0
C1718 C 0.59262 0.72607 0.29629 0.0
C1719 C 0.56399 0.6812 0.29986 0.0
C1720 C 0.6094 0.75042 0.3024 0.0
C1721 C 0.61585 0.75595 0.31792 0.0
C1722 C 0.5823 0.70718 0.30577 0.0
C1723 C 0.60524 0.73649 0.32697 0.0
C1724 C 0.55445 0.66245 0.30947 0.0
C1725 C 0.53856 0.65189 0.27913 0.0
N1726 N 0.58901 0.71304 0.32076 0.0
N1727 N 0.5558 0.67531 0.28501 0.0
H1728 H 0.33288 0.90496 0.27476 0.0
H1729 H 0.23743 0.82415 0.33099 0.0
H1730 H 0.33098 0.84114 0.29216 0.0
H1731 H 0.22584 0.87309 0.30399 0.0
H1732 H 0.27343 0.83217 0.31798 0.0
H1733 H 0.29491 0.89522 0.28613 0.0
C1734 C 0.32444 0.8888 0.28083 0.0
C1735 C 0.33545 0.87404 0.28259 0.0
C1736 C 0.26296 0.84109 0.31487 0.0
C1737 C 0.29215 0.86307 0.29589 0.0
C1738 C 0.24242 0.83658 0.32233 0.0
C1739 C 0.22855 0.84797 0.31862 0.0
C1740 C 0.26993 0.85736 0.3037 0.0
C1741 C 0.23593 0.86385 0.30724 0.0
C1742 C 0.30281 0.88333 0.2874 0.0
C1743 C 0.32366 0.85347 0.29077 0.0
N1744 N 0.25618 0.86818 0.30025 0.0
N1745 N 0.30284 0.84874 0.29718 0.0
H1746 H 0.04817 0.40368 0.28194 0.0
H1747 H 0.15802 0.41121 0.33719 0.0
H1748 H 0.10787 0.47235 0.30492 0.0
H1749 H 0.10159 0.34432 0.3107 0.0
H1750 H 0.13888 0.4338 0.32668 0.0
H1751 H 0.06647 0.38136 0.2936 0.0
C1752 C 0.06516 0.41407 0.28942 0.0
C1753 C 0.07653 0.43993 0.29241 0.0
C1754 C 0.13072 0.41416 0.3232 0.0
C1755 C 0.09754 0.41447 0.3059 0.0
C1756 C 0.14163 0.40126 0.3292 0.0
C1757 C 0.13145 0.37584 0.32481 0.0
C1758 C 0.10947 0.4015 0.31279 0.0
C1759 C 0.11016 0.36391 0.31442 0.0
C1760 C 0.07556 0.40131 0.29612 0.0
C1761 C 0.09831 0.45237 0.30241 0.0
N1762 N 0.09992 0.37684 0.30878 0.0
N1763 N 0.10815 0.43954 0.30877 0.0
H1764 H 0.30446 0.42576 0.26193 0.0
H1765 H 0.25197 0.39201 0.34127 0.0
H1766 H 0.35161 0.44686 0.30358 0.0
H1767 H 0.20596 0.37051 0.29911 0.0
H1768 H 0.28878 0.41318 0.32795 0.0
H1769 H 0.26818 0.40562 0.27559 0.0
C1770 C 0.30721 0.42598 0.27394 0.0
C1771 C 0.33116 0.43803 0.2816 0.0
C1772 C 0.27059 0.40389 0.32165 0.0
C1773 C 0.28958 0.41528 0.29739 0.0
C1774 C 0.24957 0.39188 0.32925 0.0
C1775 C 0.2258 0.37942 0.32132 0.0
C1776 C 0.26781 0.40342 0.306 0.0
C1777 C 0.22386 0.37981 0.30573 0.0
C1778 C 0.28645 0.41464 0.28176 0.0
C1779 C 0.33351 0.43807 0.29722 0.0
N1780 N 0.24454 0.39153 0.29862 0.0
N1781 N 0.31299 0.42689 0.3046 0.0
H1782 H 0.50514 0.84812 0.28695 0.0
H1783 H 0.64452 0.87711 0.30544 0.0
H1784 H 0.56902 0.91246 0.2741 0.0
H1785 H 0.58281 0.8219 0.3259 0.0
H1786 H 0.6167 0.88873 0.29273 0.0
H1787 H 0.53286 0.83693 0.30031 0.0
C1788 C 0.52497 0.86004 0.28701 0.0
C1789 C 0.53467 0.88133 0.27934 0.0
C1790 C 0.60923 0.87411 0.30002 0.0
C1791 C 0.56656 0.86827 0.29445 0.0
C1792 C 0.62512 0.8674 0.30728 0.0
C1793 C 0.61603 0.84847 0.31679 0.0
C1794 C 0.58397 0.86172 0.30217 0.0
C1795 C 0.59068 0.83663 0.31871 0.0
C1796 C 0.54079 0.85352 0.29459 0.0
C1797 C 0.56058 0.89568 0.27962 0.0
N1798 N 0.57553 0.84339 0.31143 0.0
N1799 N 0.57557 0.88887 0.287 0.0
H1800 H 0.1004 0.63275 0.32417 0.0
H1801 H 0.11398 0.76124 0.30884 0.0
H1802 H 0.04372 0.63746 0.29681 0.0
H1803 H 0.14265 0.75162 0.35123 0.0
H1804 H 0.09123 0.71615 0.3026 0.0
H1805 H 0.11865 0.67649 0.33327 0.0
C1806 C 0.09146 0.64273 0.32025 0.0
C1807 C 0.07054 0.63127 0.30954 0.0
C1808 C 0.1024 0.72395 0.31329 0.0
C1809 C 0.09201 0.68163 0.31958 0.0
C1810 C 0.11553 0.74963 0.3168 0.0
C1811 C 0.13026 0.7601 0.33054 0.0
C1812 C 0.10446 0.70873 0.32345 0.0
C1813 C 0.13145 0.74423 0.34052 0.0
C1814 C 0.10205 0.66779 0.3254 0.0
C1815 C 0.06021 0.64554 0.30473 0.0
N1816 N 0.11892 0.71928 0.33671 0.0
N1817 N 0.07127 0.67006 0.30961 0.0
H1818 H 0.78596 0.00985 0.41167 0.0
H1819 H 0.73762 0.91052 0.34054 0.0
H1820 H 0.80323 0.03031 0.3672 0.0
H1821 H 0.69597 0.89808 0.37865 0.0
H1822 H 0.76574 0.95324 0.3514 0.0
H1823 H 0.756 0.96758 0.40087 0.0
C1824 C 0.78334 0.00563 0.39965 0.0
C1825 C 0.79732 0.02383 0.39036 0.0
C1826 C 0.75041 0.94116 0.35736 0.0
C1827 C 0.76353 0.97522 0.37803 0.0
C1828 C 0.73446 0.91675 0.35123 0.0
C1829 C 0.71445 0.90075 0.35872 0.0
C1830 C 0.74661 0.94953 0.3712 0.0
C1831 C 0.71113 0.90986 0.37249 0.0
C1832 C 0.76632 0.98143 0.39352 0.0
C1833 C 0.79337 0.01691 0.37487 0.0
N1834 N 0.72718 0.93365 0.37836 0.0
N1835 N 0.77701 0.99314 0.36921 0.0
H1836 H 0.02507 0.7971 0.4245 0.0
H1837 H 0.077 0.80885 0.34447 0.0
H1838 H 0.97832 0.77117 0.38249 0.0
H1839 H 0.12338 0.83009 0.38647 0.0
H1840 H 0.04081 0.79604 0.35823 0.0
H1841 H 0.06134 0.80974 0.41082 0.0
C1842 C 0.02236 0.79387 0.41242 0.0
C1843 C -0.0015 0.78308 0.40468 0.0
C1844 C 0.05891 0.80356 0.36444 0.0
C1845 C 0.04014 0.7979 0.38888 0.0
C1846 C 0.07964 0.81096 0.35657 0.0
C1847 C 0.10338 0.82066 0.36428 0.0
C1848 C 0.06184 0.80585 0.38015 0.0
C1849 C 0.10552 0.82281 0.38 0.0
C1850 C 0.04314 0.80126 0.40459 0.0
C1851 C 0.99632 0.77976 0.38897 0.0
N1852 N 0.08506 0.81547 0.38739 0.0
N1853 N 0.01681 0.78716 0.38162 0.0
H1854 H 0.24357 0.24354 0.41191 0.0
H1855 H 0.20165 0.28348 0.33776 0.0
H1856 H 0.26456 0.23383 0.36839 0.0
H1857 H 0.18616 0.29901 0.38189 0.0
H1858 H 0.22366 0.26403 0.34868 0.0
H1859 H 0.22206 0.26352 0.40108 0.0
C1860 C 0.2439 0.24586 0.40011 0.0
C1861 C 0.25592 0.237 0.39105 0.0
C1862 C 0.21542 0.27167 0.35597 0.0
C1863 C 0.23089 0.25945 0.37852 0.0
C1864 C 0.20276 0.2827 0.34974 0.0
C1865 C 0.19204 0.29291 0.35892 0.0
C1866 C 0.21734 0.27078 0.3715 0.0
C1867 C 0.19413 0.2914 0.37437 0.0
C1868 C 0.23144 0.2571 0.39391 0.0
C1869 C 0.25529 0.24009 0.37576 0.0
N1870 N 0.20656 0.28056 0.38017 0.0
N1871 N 0.24294 0.25101 0.36997 0.0
H1872 H 0.66999 0.59228 0.7416 0.0
H1873 H 0.7459 0.58862 0.67514 0.0
H1874 H 0.65315 0.52287 0.7173 0.0
H1875 H 0.78015 0.64204 0.71423 0.0
H1876 H 0.70805 0.56664 0.68767 0.0
H1877 H 0.70738 0.61342 0.72898 0.0
C1878 C 0.67409 0.58138 0.73372 0.0
C1879 C 0.65816 0.55561 0.7306 0.0
C1880 C 0.72395 0.58316 0.69345 0.0
C1881 C 0.70066 0.58003 0.71573 0.0
C1882 C 0.74544 0.59571 0.68632 0.0
C1883 C 0.7662 0.61706 0.69369 0.0
C1884 C 0.72311 0.59245 0.70787 0.0
C1885 C 0.76466 0.62549 0.70818 0.0
C1886 C 0.6954 0.59355 0.72644 0.0
C1887 C 0.6644 0.54277 0.71991 0.0
N1888 N 0.74343 0.61329 0.71474 0.0
N1889 N 0.68505 0.55513 0.71281 0.0
H1890 H 0.49844 0.15419 0.71739 0.0
H1891 H 0.36468 0.14014 0.71478 0.0
H1892 H 0.44039 0.0973 0.73939 0.0
H1893 H 0.40819 0.16073 0.67741 0.0
H1894 H 0.39527 0.1316 0.72756 0.0
H1895 H 0.46829 0.16409 0.70615 0.0
C1896 C 0.47939 0.14363 0.71983 0.0
C1897 C 0.47203 0.12453 0.72923 0.0
C1898 C 0.39804 0.13803 0.71657 0.0
C1899 C 0.4376 0.13659 0.71674 0.0
C1900 C 0.38073 0.143 0.70933 0.0
C1901 C 0.3839 0.15102 0.695 0.0
C1902 C 0.41889 0.14175 0.70958 0.0
C1903 C 0.40494 0.15437 0.6884 0.0
C1904 C 0.46225 0.14948 0.71348 0.0
C1905 C 0.44714 0.11229 0.73235 0.0
N1906 N 0.42173 0.14988 0.69578 0.0
N1907 N 0.43082 0.11855 0.72613 0.0
H1908 H 0.92091 0.36348 0.68547 0.0
H1909 H 0.85821 0.22593 0.71029 0.0
H1910 H 0.90704 0.34591 0.73071 0.0
H1911 H 0.86561 0.24125 0.66423 0.0
H1912 H 0.87755 0.27024 0.7179 0.0
H1913 H 0.90191 0.31905 0.67732 0.0
C1914 C 0.91388 0.35031 0.69368 0.0
C1915 C 0.91577 0.35845 0.70881 0.0
C1916 C 0.87494 0.26395 0.70612 0.0
C1917 C 0.89416 0.30775 0.69961 0.0
C1918 C 0.86389 0.2386 0.70176 0.0
C1919 C 0.86025 0.22984 0.68659 0.0
C1920 C 0.88248 0.28073 0.69525 0.0
C1921 C 0.86802 0.24719 0.67605 0.0
C1922 C 0.90312 0.32499 0.68903 0.0
C1923 C 0.90649 0.34057 0.71898 0.0
N1924 N 0.8788 0.27183 0.68058 0.0
N1925 N 0.89612 0.31613 0.7142 0.0
H1926 H 0.19859 0.95984 0.64544 0.0
H1927 H 0.28741 0.09969 0.62802 0.0
H1928 H 0.20361 0.98303 0.60104 0.0
H1929 H 0.27809 0.07644 0.67246 0.0
H1930 H 0.25854 0.05674 0.61769 0.0
H1931 H 0.22947 0.00225 0.65535 0.0
C1932 C 0.20615 0.97387 0.63778 0.0
C1933 C 0.1984 0.96789 0.6224 0.0
C1934 C 0.26288 0.06107 0.6297 0.0
C1935 C 0.23396 0.01651 0.63365 0.0
C1936 C 0.27937 0.08558 0.63561 0.0
C1937 C 0.28513 0.09171 0.65114 0.0
C1938 C 0.25213 0.0426 0.6394 0.0
C1939 C 0.27416 0.07265 0.66042 0.0
C1940 C 0.22388 -0.00192 0.64343 0.0
C1941 C 0.2092 0.98676 0.61296 0.0
N1942 N 0.25819 0.049 0.65441 0.0
N1943 N 0.22637 0.01024 0.61874 0.0
H1944 H 0.99318 0.22866 0.60589 0.0
H1945 H 0.90961 0.15947 0.66888 0.0
H1946 H -0.00124 0.17081 0.62679 0.0
H1947 H 0.8801 0.18138 0.63195 0.0
H1948 H 0.94629 0.16952 0.65594 0.0
H1949 H 0.95473 0.2168 0.61723 0.0
C1950 C 0.98637 0.21338 0.61272 0.0
C1951 C -0.00033 0.20099 0.61546 0.0
C1952 C 0.93172 0.17203 0.65066 0.0
C1953 C 0.956 0.18794 0.62882 0.0
C1954 C 0.91087 0.16642 0.65806 0.0
C1955 C 0.89174 0.16947 0.65144 0.0
C1956 C 0.93377 0.18136 0.63671 0.0
C1957 C 0.89432 0.17851 0.63738 0.0
C1958 C 0.96446 0.20676 0.61925 0.0
C1959 C 0.98982 0.18154 0.62466 0.0
N1960 N 0.91508 0.18438 0.63053 0.0
N1961 N 0.96883 0.17586 0.63112 0.0
H1962 H 0.75152 0.74945 0.6005 0.0
H1963 H 0.78962 0.71029 0.6763 0.0
H1964 H 0.72531 0.75635 0.64271 0.0
H1965 H 0.80849 0.69553 0.63307 0.0
H1966 H 0.76705 0.72847 0.66435 0.0
H1967 H 0.77276 0.72989 0.61227 0.0
C1968 C 0.74994 0.74656 0.61219 0.0
C1969 C 0.73664 0.75462 0.62063 0.0
C1970 C 0.77615 0.72127 0.65749 0.0
C1971 C 0.76138 0.7327 0.63427 0.0
C1972 C 0.78915 0.71099 0.66432 0.0
C1973 C 0.80099 0.70139 0.65568 0.0
C1974 C 0.77506 0.72202 0.64192 0.0
C1975 C 0.79966 0.70271 0.64018 0.0
C1976 C 0.76227 0.73558 0.61895 0.0
C1977 C 0.73565 0.75077 0.63582 0.0
N1978 N 0.78693 0.71282 0.63381 0.0
N1979 N 0.74795 0.74019 0.64216 0.0
H1980 H 0.99582 0.73798 0.60848 0.0
H1981 H 0.90424 0.7435 0.66507 0.0
H1982 H -0.00163 0.80616 0.62391 0.0
H1983 H 0.89822 0.6759 0.64488 0.0
H1984 H 0.94032 0.7674 0.65151 0.0
H1985 H 0.9611 0.71537 0.62289 0.0
C1986 C 0.98896 0.7482 0.61479 0.0
C1987 C 3e-05 0.77403 0.6149 0.0
C1988 C 0.93108 0.74733 0.65012 0.0
C1989 C 0.96037 0.74822 0.63172 0.0
C1990 C 0.91057 0.7337 0.6579 0.0
C1991 C 0.89811 0.70766 0.6561 0.0
C1992 C 0.93918 0.73477 0.64055 0.0
C1993 C 0.90708 0.69593 0.6466 0.0
C1994 C 0.96921 0.73529 0.62313 0.0
C1995 C 0.99061 0.78629 0.6236 0.0
N1996 N 0.92697 0.70954 0.63921 0.0
N1997 N 0.97132 0.77328 0.63166 0.0
H1998 H 0.19428 0.22366 0.63375 0.0
H1999 H 0.30253 0.19208 0.62775 0.0
H2000 H 0.21744 0.21156 0.59141 0.0
H2001 H 0.25897 0.17538 0.66513 0.0
H2002 H 0.27495 0.2042 0.61505 0.0
H2003 H 0.22124 0.21077 0.64623 0.0
C2004 C 0.20485 0.21817 0.62702 0.0
C2005 C 0.20335 0.21865 0.61142 0.0
C2006 C 0.27141 0.19781 0.62601 0.0
C2007 C 0.23483 0.20443 0.62581 0.0
C2008 C 0.28717 0.19096 0.63329 0.0
C2009 C 0.28304 0.18269 0.64753 0.0
C2010 C 0.2516 0.19678 0.6331 0.0
C2011 C 0.26278 0.18153 0.65413 0.0
C2012 C 0.22036 0.21093 0.6342 0.0
C2013 C 0.21816 0.21192 0.60345 0.0
N2014 N 0.24792 0.18867 0.64691 0.0
N2015 N 0.2333 0.20518 0.61073 0.0
H2016 H 0.77209 0.95267 0.65129 0.0
H2017 H 0.75953 0.07401 0.65195 0.0
H2018 H 0.70593 0.95231 0.6337 0.0
H2019 H 0.82452 0.0739 0.6714 0.0
H2020 H 0.73893 0.02909 0.64621 0.0
H2021 H 0.79056 0.9965 0.66026 0.0
C2022 C 0.76126 0.96169 0.64954 0.0
C2023 C 0.73746 0.94882 0.64166 0.0
C2024 C 0.75767 0.03887 0.65177 0.0
C2025 C 0.75874 -0.00083 0.65162 0.0
C2026 C 0.7695 0.06455 0.65502 0.0
C2027 C 0.79386 0.07777 0.66209 0.0
C2028 C 0.77031 0.02627 0.65559 0.0
C2029 C 0.80577 0.06448 0.66587 0.0
C2030 C 0.77192 0.9868 0.65455 0.0
C2031 C 0.72449 0.96161 0.63952 0.0
N2032 N 0.7939 0.03946 0.66252 0.0
N2033 N 0.73536 0.98612 0.64437 0.0
H2034 H 0.4487 0.3519 0.73858 0.0
H2035 H 0.40046 0.24889 0.66999 0.0
H2036 H 0.45943 0.37073 0.69323 0.0
H2037 H 0.36147 0.23695 0.70924 0.0
H2038 H 0.42639 0.29279 0.67929 0.0
H2039 H 0.42009 0.30888 0.72889 0.0
C2040 C 0.44484 0.3472 0.72658 0.0
C2041 C 0.45656 0.36524 0.71673 0.0
C2042 C 0.4121 0.28055 0.68583 0.0
C2043 C 0.42439 0.3156 0.70566 0.0
C2044 C 0.39744 0.25549 0.6806 0.0
C2045 C 0.37886 0.23927 0.6889 0.0
C2046 C 0.40848 0.28934 0.69958 0.0
C2047 C 0.37557 0.24886 0.7025 0.0
C2048 C 0.4286 0.32252 0.7211 0.0
C2049 C 0.45124 0.35756 0.7013 0.0
N2050 N 0.39042 0.27328 0.7075 0.0
N2051 N 0.43572 0.33327 0.69624 0.0
H2052 H 0.63878 0.09818 0.71193 0.0
H2053 H 0.78145 0.1364 0.71717 0.0
H2054 H 0.68475 0.11673 0.75388 0.0
H2055 H 0.74253 0.14145 0.67742 0.0
H2056 H 0.7451 0.12559 0.73036 0.0
H2057 H 0.67538 0.11033 0.69872 0.0
C2058 C 0.65653 0.10492 0.71842 0.0
C2059 C 0.65854 0.10652 0.73414 0.0
C2060 C 0.7445 0.12913 0.71877 0.0
C2061 C 0.70056 0.12 0.71892 0.0
C2062 C 0.76524 0.13523 0.71119 0.0
C2063 C 0.76503 0.13975 0.69612 0.0
C2064 C 0.72316 0.1272 0.71122 0.0
C2065 C 0.74354 0.13819 0.68904 0.0
C2066 C 0.67743 0.11177 0.71081 0.0
C2067 C 0.68207 0.11481 0.7418 0.0
N2068 N 0.72338 0.13185 0.69661 0.0
N2069 N 0.70209 0.12117 0.73412 0.0
H2070 H 0.94912 0.592 0.72886 0.0
H2071 H 0.83285 0.5832 0.67998 0.0
H2072 H 0.88395 0.52242 0.71177 0.0
H2073 H 0.89212 0.65084 0.70429 0.0
H2074 H 0.85251 0.56066 0.68985 0.0
H2075 H 0.92973 0.61403 0.71817 0.0
C2076 C 0.9307 0.58134 0.7229 0.0
C2077 C 0.91812 0.5553 0.72129 0.0
C2078 C 0.86115 0.58043 0.69301 0.0
C2079 C 0.89588 0.58045 0.70885 0.0
C2080 C 0.84996 0.59331 0.68738 0.0
C2081 C 0.86082 0.61895 0.69133 0.0
C2082 C 0.88342 0.59334 0.70256 0.0
C2083 C 0.883 0.63108 0.70096 0.0
C2084 C 0.91967 0.59394 0.71674 0.0
C2085 C 0.89448 0.5425 0.71316 0.0
N2086 N 0.89357 0.61819 0.70621 0.0
N2087 N 0.8841 0.5552 0.70727 0.0
H2088 H 0.49984 0.98553 0.18606 0.0
H2089 H 0.45883 0.97734 0.09891 0.0
H2090 H 0.42536 0.93633 0.16518 0.0
H2091 H 0.52983 0.03389 0.12115 0.0
H2092 H 0.44664 0.96128 0.1229 0.0
H2093 H 0.51152 0.00271 0.16228 0.0
C2094 C 0.48593 0.97829 0.17647 0.0
C2095 C 0.46157 0.95937 0.17764 0.0
C2096 C 0.46487 0.97724 0.12255 0.0
C2097 C 0.47485 0.97907 0.15031 0.0
C2098 C 0.47191 0.98634 0.10883 0.0
C2099 C 0.49545 0.00696 0.10797 0.0
C2100 C 0.48152 0.98869 0.13557 0.0
C2101 C 0.51144 0.01808 0.12128 0.0
C2102 C 0.4926 0.98821 0.1629 0.0
C2103 C 0.44428 0.95102 0.16486 0.0
N2104 N 0.50423 0.00874 0.13449 0.0
N2105 N 0.45129 0.96081 0.15173 0.0
H2106 H 0.02974 0.55444 0.18409 0.0
H2107 H 0.97532 0.46122 0.10904 0.0
H2108 H 0.98917 0.47473 0.18402 0.0
H2109 H -0.00059 0.53924 0.11058 0.0
H2110 H 0.98376 0.46596 0.13632 0.0
H2111 H 0.02196 0.54931 0.15693 0.0
C2112 C 0.01901 0.53584 0.17839 0.0
C2113 C 0.0099 0.51499 0.18641 0.0
C2114 C 0.98717 0.48202 0.13068 0.0
C2115 C 0.00136 0.50901 0.1552 0.0
C2116 C 0.98251 0.47936 0.11513 0.0
C2117 C 0.98664 0.49988 0.10758 0.0
C2118 C 0.99627 0.50541 0.13869 0.0
C2119 C 0.99572 0.52291 0.11599 0.0
C2120 C 0.0147 0.53294 0.16286 0.0
C2121 C 0.99673 0.49134 0.17832 0.0
N2122 N 0.00029 0.52507 0.1311 0.0
N2123 N 0.99284 0.48899 0.16315 0.0
H2124 H 0.43036 0.47645 0.16915 0.0
H2125 H 0.5211 0.46137 0.11603 0.0
H2126 H 0.50035 0.48343 0.18509 0.0
H2127 H 0.46441 0.47753 0.10019 0.0
H2128 H 0.50815 0.46015 0.14111 0.0
H2129 H 0.43702 0.46728 0.14351 0.0
C2130 C 0.44687 0.47557 0.16726 0.0
C2131 C 0.46495 0.48088 0.17917 0.0
C2132 C 0.49842 0.46375 0.1321 0.0
C2133 C 0.4727 0.47051 0.15005 0.0
C2134 C 0.50587 0.46457 0.11778 0.0
C2135 C 0.49411 0.46993 0.10597 0.0
C2136 C 0.47895 0.46819 0.13466 0.0
C2137 C 0.474 0.47322 0.10889 0.0
C2138 C 0.45075 0.47052 0.15266 0.0
C2139 C 0.48612 0.4797 0.17616 0.0
N2140 N 0.46719 0.47249 0.12296 0.0
N2141 N 0.48947 0.47475 0.16189 0.0
H2142 H 0.98035 0.45249 0.82727 0.0
H2143 H 0.05259 0.54736 0.90052 0.0
H2144 H 0.02685 0.53137 0.82588 0.0
H2145 H 0.99796 0.47015 0.90127 0.0
H2146 H 0.04502 0.54195 0.87319 0.0
H2147 H 0.98843 0.45864 0.85442 0.0
C2148 C 0.99248 0.47111 0.83269 0.0
C2149 C 0.00311 0.49144 0.8243 0.0
C2150 C 0.03464 0.52624 0.87935 0.0
C2151 C 0.01217 0.49868 0.85547 0.0
C2152 C 0.03903 0.52927 0.89493 0.0
C2153 C 0.02586 0.50917 0.90316 0.0
C2154 C 0.0171 0.50288 0.87198 0.0
C2155 C 0.00831 0.48622 0.89538 0.0
C2156 C 0.99692 0.47464 0.84821 0.0
C2157 C 0.01822 0.51521 0.83194 0.0
N2158 N 0.00452 0.48369 0.88023 0.0
N2159 N 0.02237 0.51819 0.84712 0.0
H2160 H 0.51058 0.45896 0.83607 0.0
H2161 H 0.50263 0.54291 0.90352 0.0
H2162 H 0.53278 0.53587 0.8336 0.0
H2163 H 0.49181 0.46953 0.90675 0.0
H2164 H 0.51408 0.54141 0.87812 0.0
H2165 H 0.50461 0.4633 0.86229 0.0
C2166 C 0.51435 0.47685 0.84114 0.0
C2167 C 0.52199 0.49705 0.8327 0.0
C2168 C 0.50935 0.52573 0.88444 0.0
C2169 C 0.51497 0.50218 0.86272 0.0
C2170 C 0.50263 0.52649 0.89889 0.0
C2171 C 0.4962 0.50629 0.90727 0.0
C2172 C 0.50942 0.50453 0.8783 0.0
C2173 C 0.49687 0.48564 0.90079 0.0
C2174 C 0.51097 0.47935 0.85612 0.0
C2175 C 0.52688 0.51989 0.83979 0.0
N2176 N 0.50322 0.48526 0.8867 0.0
N2177 N 0.52301 0.5218 0.8544 0.0
H2178 H 0.53205 0.01266 0.83168 0.0
H2179 H 0.49179 0.0261 0.91292 0.0
H2180 H 0.51514 0.06891 0.84698 0.0
H2181 H 0.50506 0.967 0.89819 0.0
H2182 H 0.50215 0.04277 0.88903 0.0
H2183 H 0.52452 0.99664 0.85619 0.0
C2184 C 0.52698 0.02176 0.84022 0.0
C2185 C 0.524 0.04202 0.83721 0.0
C2186 C 0.50286 0.02617 0.89098 0.0
C2187 C 0.5152 0.02372 0.8652 0.0
C2188 C 0.49706 0.01669 0.9047 0.0
C2189 C 0.49765 0.99514 0.90765 0.0
C2190 C 0.50935 0.01409 0.88001 0.0
C2191 C 0.50414 0.98352 0.89637 0.0
C2192 C 0.52252 0.01252 0.85416 0.0
C2193 C 0.51723 0.05298 0.84867 0.0
N2194 N 0.50977 0.99316 0.88306 0.0
N2195 N 0.51302 0.04368 0.86209 0.0
H2196 H 0.08827 0.26714 0.4983 0.0
H2197 H 0.18987 0.37416 0.45527 0.0
H2198 H 0.16107 0.32192 0.51921 0.0
H2199 H 0.12471 0.30938 0.43272 0.0
H2200 H 0.17803 0.35747 0.47913 0.0
H2201 H 0.09947 0.28489 0.47459 0.0
C2202 C 0.10654 0.28302 0.49794 0.0
C2203 C 0.12376 0.29301 0.51077 0.0
C2204 C 0.16633 0.34694 0.46895 0.0
C2205 C 0.13677 0.31338 0.48362 0.0
C2206 C 0.17314 0.3564 0.45527 0.0
C2207 C 0.15835 0.34322 0.44184 0.0
C2208 C 0.14444 0.32418 0.46929 0.0
C2209 C 0.13657 0.32049 0.44272 0.0
C2210 C 0.11299 0.29304 0.48437 0.0
C2211 C 0.14729 0.31343 0.50957 0.0
N2212 N 0.1303 0.31175 0.45617 0.0
N2213 N 0.15308 0.32295 0.49626 0.0
H2214 H 0.63551 0.79095 0.51733 0.0
H2215 H 0.66783 0.85976 0.44298 0.0
H2216 H 0.68426 0.86977 0.5172 0.0
H2217 H 0.61189 0.78281 0.44314 0.0
H2218 H 0.67473 0.86347 0.47018 0.0
H2219 H 0.62754 0.7871 0.49007 0.0
C2220 C 0.64454 0.80742 0.51156 0.0
C2221 C 0.66048 0.83072 0.51954 0.0
C2222 C 0.6609 0.84578 0.46428 0.0
C2223 C 0.65145 0.8265 0.48842 0.0
C2224 C 0.65685 0.84368 0.44873 0.0
C2225 C 0.63924 0.82094 0.44073 0.0
C2226 C 0.64732 0.82496 0.47192 0.0
C2227 C 0.6259 0.80062 0.44881 0.0
C2228 C 0.63991 0.80525 0.49602 0.0
C2229 C 0.67155 0.8515 0.51152 0.0
N2230 N 0.63024 0.8031 0.46395 0.0
N2231 N 0.66688 0.84888 0.49641 0.0
H2232 H 0.10051 0.81174 0.50331 0.0
H2233 H 0.19235 0.80006 0.4496 0.0
H2234 H 0.17065 0.8188 0.51901 0.0
H2235 H 0.13342 0.81332 0.43422 0.0
H2236 H 0.17962 0.7981 0.47477 0.0
H2237 H 0.10719 0.80306 0.47762 0.0
C2238 C 0.11707 0.81098 0.50136 0.0
C2239 C 0.13518 0.81621 0.51323 0.0
C2240 C 0.16935 0.80122 0.46584 0.0
C2241 C 0.143 0.80648 0.484 0.0
C2242 C 0.17668 0.80246 0.45147 0.0
C2243 C 0.16419 0.80721 0.43975 0.0
C2244 C 0.1493 0.80464 0.46856 0.0
C2245 C 0.14357 0.8095 0.44283 0.0
C2246 C 0.12096 0.80622 0.48672 0.0
C2247 C 0.1564 0.81518 0.51012 0.0
N2248 N 0.1369 0.80839 0.45695 0.0
N2249 N 0.1598 0.81058 0.4958 0.0
H2250 H 0.68542 0.8643 0.15981 0.0
H2251 H 0.65458 0.79755 0.23497 0.0
H2252 H 0.63753 0.78553 0.16079 0.0
H2253 H 0.70982 0.87453 0.23417 0.0
H2254 H 0.64618 0.79356 0.20783 0.0
H2255 H 0.69288 0.86918 0.18714 0.0
C2256 C 0.67645 0.84806 0.16579 0.0
C2257 C 0.66096 0.82446 0.15803 0.0
C2258 C 0.66014 0.81134 0.21358 0.0
C2259 C 0.66939 0.82986 0.18922 0.0
C2260 C 0.66481 0.81367 0.22909 0.0
C2261 C 0.68292 0.83641 0.23684 0.0
C2262 C 0.6736 0.83192 0.20573 0.0
C2263 C 0.69588 0.85659 0.22861 0.0
C2264 C 0.68078 0.85083 0.18136 0.0
C2265 C 0.64992 0.80401 0.16631 0.0
N2266 N 0.69096 0.85388 0.21349 0.0
N2267 N 0.65432 0.80719 0.18144 0.0
H2268 H 0.17254 0.79068 0.17009 0.0
H2269 H 0.18814 0.8827 0.24093 0.0
H2270 H 0.20536 0.86961 0.16821 0.0
H2271 H 0.138 0.80358 0.23624 0.0
H2272 H 0.19954 0.87905 0.2157 0.0
H2273 H 0.16524 0.79598 0.19588 0.0
C2274 C 0.17821 0.80918 0.17511 0.0
C2275 C 0.18914 0.82968 0.16686 0.0
C2276 C 0.18604 0.86254 0.22022 0.0
C2277 C 0.18104 0.83591 0.19659 0.0
C2278 C 0.17959 0.86458 0.2346 0.0
C2279 C 0.16198 0.84341 0.24064 0.0
C2280 C 0.17506 0.83911 0.21194 0.0
C2281 C 0.15138 0.82041 0.23195 0.0
C2282 C 0.17407 0.81218 0.18987 0.0
C2283 C 0.19682 0.8533 0.17414 0.0
N2284 N 0.15814 0.81888 0.21809 0.0
N2285 N 0.19246 0.85577 0.1886 0.0
H2286 H 0.19948 0.34739 0.16605 0.0
H2287 H 0.16719 0.36364 0.24914 0.0
H2288 H 0.18623 0.40572 0.18238 0.0
H2289 H 0.16057 0.29541 0.22959 0.0
H2290 H 0.17909 0.38136 0.22564 0.0
H2291 H 0.1908 0.3304 0.19027 0.0
C2292 C 0.19501 0.35675 0.17478 0.0
C2293 C 0.1934 0.37789 0.17218 0.0
C2294 C 0.17503 0.3625 0.22648 0.0
C2295 C 0.18344 0.35862 0.19983 0.0
C2296 C 0.16802 0.35225 0.2399 0.0
C2297 C 0.16254 0.3278 0.24141 0.0
C2298 C 0.17685 0.34839 0.21441 0.0
C2299 C 0.16477 0.31436 0.22907 0.0
C2300 C 0.18989 0.34697 0.18855 0.0
C2301 C 0.18737 0.38921 0.18385 0.0
N2302 N 0.17171 0.32481 0.21611 0.0
N2303 N 0.18262 0.37946 0.19712 0.0
H2304 H 0.7574 0.60763 0.83359 0.0
H2305 H 0.86504 0.70202 0.78751 0.0
H2306 H 0.83298 0.65635 0.85289 0.0
H2307 H 0.79151 0.64774 0.76733 0.0
H2308 H 0.85284 0.68779 0.81192 0.0
H2309 H 0.76871 0.62444 0.80967 0.0
C2310 C 0.77632 0.62204 0.83286 0.0
C2311 C 0.79427 0.6305 0.8453 0.0
C2312 C 0.83935 0.67901 0.80215 0.0
C2313 C 0.80744 0.6497 0.81783 0.0
C2314 C 0.84627 0.68723 0.78821 0.0
C2315 C 0.82933 0.67601 0.7753 0.0
C2316 C 0.81524 0.65949 0.80326 0.0
C2317 C 0.80533 0.65671 0.77692 0.0
C2318 C 0.78282 0.63151 0.81915 0.0
C2319 C 0.81859 0.649 0.84357 0.0
N2320 N 0.79903 0.64909 0.7906 0.0
N2321 N 0.82445 0.65793 0.83012 0.0
H2322 H 0.36195 0.21152 0.84865 0.0
H2323 H 0.27841 0.12156 0.77586 0.0
H2324 H 0.30862 0.13405 0.84984 0.0
H2325 H 0.34125 0.1948 0.77448 0.0
H2326 H 0.28766 0.12616 0.803 0.0
H2327 H 0.35286 0.20622 0.82153 0.0
C2328 C 0.34821 0.1934 0.84319 0.0
C2329 C 0.3359 0.17322 0.85151 0.0
C2330 C 0.29943 0.14119 0.79674 0.0
C2331 C 0.32551 0.16696 0.82041 0.0
C2332 C 0.29423 0.13856 0.78123 0.0
C2333 C 0.30907 0.15783 0.77282 0.0
C2334 C 0.31953 0.16331 0.80394 0.0
C2335 C 0.32905 0.17959 0.78047 0.0
C2336 C 0.34315 0.19035 0.82769 0.0
C2337 C 0.31861 0.15005 0.84382 0.0
N2338 N 0.33366 0.18174 0.79558 0.0
N2339 N 0.31383 0.14757 0.82869 0.0
H2340 H 0.84343 0.15627 0.85534 0.0
H2341 H 0.79943 0.1452 0.76893 0.0
H2342 H 0.77316 0.14871 0.83945 0.0
H2343 H 0.86173 0.13754 0.78493 0.0
H2344 H 0.78887 0.1455 0.79451 0.0
H2345 H 0.84983 0.14823 0.8296 0.0
C2346 C 0.82922 0.15263 0.84641 0.0
C2347 C 0.8078 0.15329 0.84949 0.0
C2348 C 0.80475 0.14358 0.79241 0.0
C2349 C 0.81511 0.14438 0.81997 0.0
C2350 C 0.81077 0.14331 0.77777 0.0
C2351 C 0.83162 0.14146 0.7747 0.0
C2352 C 0.81977 0.14219 0.80415 0.0
C2353 C 0.84579 0.1395 0.78674 0.0
C2354 C 0.83286 0.14803 0.83172 0.0
C2355 C 0.78987 0.14826 0.83754 0.0
N2356 N 0.8397 0.14006 0.8009 0.0
N2357 N 0.79407 0.14433 0.82327 0.0
H2358 H 0.36934 0.15802 0.49069 0.0
H2359 H 0.33381 0.18906 0.56977 0.0
H2360 H 0.31369 0.17903 0.49567 0.0
H2361 H 0.38524 0.16246 0.5649 0.0
H2362 H 0.32777 0.18752 0.54262 0.0
H2363 H 0.37726 0.16185 0.5179 0.0
C2364 C 0.35881 0.16347 0.4975 0.0
C2365 C 0.3408 0.16817 0.49088 0.0
C2366 C 0.34041 0.18205 0.54749 0.0
C2367 C 0.34983 0.17271 0.52202 0.0
C2368 C 0.34374 0.18277 0.56299 0.0
C2369 C 0.35999 0.1758 0.56963 0.0
C2370 C 0.35341 0.17429 0.53853 0.0
C2371 C 0.37273 0.16826 0.56028 0.0
C2372 C 0.36339 0.16573 0.51303 0.0
C2373 C 0.32797 0.17553 0.50026 0.0
N2374 N 0.36913 0.16766 0.54521 0.0
N2375 N 0.33268 0.17748 0.51534 0.0
H2376 H 0.8128 0.16623 0.49321 0.0
H2377 H 0.86697 0.20129 0.57958 0.0
H2378 H 0.88755 0.18546 0.50889 0.0
H2379 H 0.78941 0.1688 0.56359 0.0
H2380 H 0.8766 0.20235 0.55366 0.0
H2381 H 0.80598 0.17438 0.51878 0.0
C2382 C 0.82785 0.17233 0.50203 0.0
C2383 C 0.85066 0.17478 0.49893 0.0
C2384 C 0.85752 0.19522 0.55586 0.0
C2385 C 0.84298 0.18423 0.5283 0.0
C2386 C 0.85196 0.19448 0.57066 0.0
C2387 C 0.82727 0.18471 0.57386 0.0
C2388 C 0.83829 0.18621 0.54413 0.0
C2389 C 0.80873 0.17671 0.56177 0.0
C2390 C 0.82396 0.17703 0.51664 0.0
C2391 C 0.86968 0.18333 0.51076 0.0
N2392 N 0.8146 0.17748 0.54749 0.0
N2393 N 0.86533 0.18749 0.52496 0.0
H2394 H 0.87181 0.68112 0.49996 0.0
H2395 H 0.82193 0.68463 0.57941 0.0
H2396 H 0.84642 0.7311 0.51441 0.0
H2397 H 0.84413 0.63185 0.56533 0.0
H2398 H 0.83265 0.70283 0.55595 0.0
H2399 H 0.86428 0.66422 0.52421 0.0
C2400 C 0.86487 0.68869 0.50826 0.0
C2401 C 0.85952 0.70741 0.50507 0.0
C2402 C 0.83521 0.68727 0.55795 0.0
C2403 C 0.8507 0.68806 0.53278 0.0
C2404 C 0.82891 0.67672 0.57134 0.0
C2405 C 0.83188 0.65648 0.57435 0.0
C2406 C 0.84462 0.67759 0.54736 0.0
C2407 C 0.84164 0.64751 0.56355 0.0
C2408 C 0.86044 0.67894 0.52206 0.0
C2409 C 0.85039 0.71638 0.51624 0.0
N2410 N 0.84755 0.65805 0.55052 0.0
N2411 N 0.84622 0.7066 0.52952 0.0
loop_
_geom_bond_atom_site_label_1
_geom_bond_atom_site_label_2
_geom_bond_distance
_geom_bond_site_symmetry_2
_ccdc_geom_bond_type
C0 C1 1.391 . S
C0 C4 1.391 . S
C0 H42 0.948 . S
C1 C0 1.391 . S
C1 C2 1.391 . S
C2 C1 1.391 . S
C2 H58 0.947 . S
C2 C59 1.392 . S
C3 C4 1.391 . S
C3 C7 1.397 . S
C3 C59 1.419 . S
C4 C0 1.391 . S
C4 C3 1.391 . S
C4 C5 1.399 . S
C5 C4 1.399 . S
C5 C8 1.396 . S
C5 C17 1.453 . S
C5 C18 1.684 . S
H6 C30 0.948 . S
C7 C3 1.397 . S
C7 C8 1.394 . S
C7 C26 1.723 . S
C8 C5 1.396 . S
C8 C7 1.394 . S
C8 C38 1.723 . S
H9 C32 0.947 . S
H10 C33 0.948 . S
H11 C39 0.982 . S
H12 C40 0.979 . S
H13 C40 0.980 . S
H14 C40 0.983 . S
H15 C39 0.979 . S
H16 C39 0.977 . S
C17 C5 1.453 . S
C17 H46 0.982 . S
C17 H47 0.979 . S
C17 H48 0.977 . S
C18 C5 1.684 . S
C18 H43 0.979 . S
C18 H44 0.980 . S
C18 H45 0.983 . S
C19 C20 1.391 . S
C19 C24 1.391 . S
C19 H49 0.948 . S
C20 C19 1.391 . S
C20 C21 1.391 . S
C21 C20 1.391 . S
C21 C22 1.392 . S
C21 H50 0.947 . S
C22 C21 1.392 . S
C22 C23 1.419 . S
C22 H51 0.948 . S
C23 C22 1.419 . S
C23 C24 1.391 . S
C23 C27 1.397 . S
C24 C19 1.391 . S
C24 C23 1.391 . S
C24 C25 1.399 . S
C25 C24 1.399 . S
C25 C26 1.396 . S
C25 C28 1.453 . S
C25 C29 1.684 . S
C26 C7 1.723 . S
C26 C25 1.396 . S
C26 C27 1.394 . S
C27 C23 1.397 . S
C27 C26 1.394 . S
C27 C37 1.723 . S
C28 C25 1.453 . S
C28 H52 0.982 . S
C28 H53 0.979 . S
C28 H54 0.977 . S
C29 C25 1.684 . S
C29 H55 0.979 . S
C29 H56 0.980 . S
C29 H57 0.983 . S
C30 H6 0.948 . S
C30 C31 1.391 . S
C30 C35 1.391 . S
C31 C30 1.391 . S
C31 C32 1.391 . S
C32 H9 0.947 . S
C32 C31 1.391 . S
C32 C33 1.392 . S
C33 H10 0.948 . S
C33 C32 1.392 . S
C33 C34 1.419 . S
C34 C33 1.419 . S
C34 C35 1.391 . S
C34 C38 1.397 . S
C35 C30 1.391 . S
C35 C34 1.391 . S
C35 C36 1.399 . S
C36 C35 1.399 . S
C36 C37 1.396 . S
C36 C39 1.453 . S
C36 C40 1.684 . S
C37 C27 1.723 . S
C37 C36 1.396 . S
C37 C38 1.394 . S
C38 C8 1.723 . S
C38 C34 1.397 . S
C38 C37 1.394 . S
C39 H11 0.982 . S
C39 H15 0.979 . S
C39 H16 0.977 . S
C39 C36 1.453 . S
C40 H12 0.979 . S
C40 H13 0.980 . S
C40 H14 0.983 . S
C40 C36 1.684 . S
H41 C59 0.948 . S
H42 C0 0.948 . S
H43 C18 0.979 . S
H44 C18 0.980 . S
H45 C18 0.983 . S
H46 C17 0.982 . S
H47 C17 0.979 . S
H48 C17 0.977 . S
H49 C19 0.948 . S
H50 C21 0.947 . S
H51 C22 0.948 . S
H52 C28 0.982 . S
H53 C28 0.979 . S
H54 C28 0.977 . S
H55 C29 0.979 . S
H56 C29 0.980 . S
H57 C29 0.983 . S
H58 C2 0.947 . S
C59 C2 1.392 . S
C59 C3 1.419 . S
C59 H41 0.948 . S
C60 C61 1.391 . S
C60 C64 1.391 . S
C60 H102 0.948 . S
C61 C60 1.391 . S
C61 C62 1.391 . S
C62 C61 1.391 . S
C62 H118 0.947 . S
C62 C119 1.392 . S
C63 C64 1.391 . S
C63 C67 1.397 . S
C63 C119 1.419 . S
C64 C60 1.391 . S
C64 C63 1.391 . S
C64 C65 1.399 . S
C65 C64 1.399 . S
C65 C68 1.396 . S
C65 C77 1.453 . S
C65 C78 1.684 . S
H66 C90 0.948 . S
C67 C63 1.397 . S
C67 C68 1.394 . S
C67 C86 1.723 . S
C68 C65 1.396 . S
C68 C67 1.394 . S
C68 C98 1.723 . S
H69 C92 0.947 . S
H70 C93 0.948 . S
H71 C99 0.982 . S
H72 C100 0.979 . S
H73 C100 0.980 . S
H74 C100 0.983 . S
H75 C99 0.979 . S
H76 C99 0.977 . S
C77 C65 1.453 . S
C77 H106 0.982 . S
C77 H107 0.979 . S
C77 H108 0.977 . S
C78 C65 1.684 . S
C78 H103 0.979 . S
C78 H104 0.980 . S
C78 H105 0.983 . S
C79 C80 1.391 . S
C79 C84 1.391 . S
C79 H109 0.948 . S
C80 C79 1.391 . S
C80 C81 1.391 . S
C81 C80 1.391 . S
C81 C82 1.392 . S
C81 H110 0.947 . S
C82 C81 1.392 . S
C82 C83 1.419 . S
C82 H111 0.948 . S
C83 C82 1.419 . S
C83 C84 1.391 . S
C83 C87 1.397 . S
C84 C79 1.391 . S
C84 C83 1.391 . S
C84 C85 1.399 . S
C85 C84 1.399 . S
C85 C86 1.396 . S
C85 C88 1.453 . S
C85 C89 1.684 . S
C86 C67 1.723 . S
C86 C85 1.396 . S
C86 C87 1.394 . S
C87 C83 1.397 . S
C87 C86 1.394 . S
C87 C97 1.723 . S
C88 C85 1.453 . S
C88 H112 0.982 . S
C88 H113 0.979 . S
C88 H114 0.977 . S
C89 C85 1.684 . S
C89 H115 0.979 . S
C89 H116 0.980 . S
C89 H117 0.983 . S
C90 H66 0.948 . S
C90 C91 1.391 . S
C90 C95 1.391 . S
C91 C90 1.391 . S
C91 C92 1.391 . S
C92 H69 0.947 . S
C92 C91 1.391 . S
C92 C93 1.392 . S
C93 H70 0.948 . S
C93 C92 1.392 . S
C93 C94 1.419 . S
C94 C93 1.419 . S
C94 C95 1.391 . S
C94 C98 1.397 . S
C95 C90 1.391 . S
C95 C94 1.391 . S
C95 C96 1.399 . S
C96 C95 1.399 . S
C96 C97 1.396 . S
C96 C99 1.453 . S
C96 C100 1.684 . S
C97 C87 1.723 . S
C97 C96 1.396 . S
C97 C98 1.394 . S
C98 C68 1.723 . S
C98 C94 1.397 . S
C98 C97 1.394 . S
C99 H71 0.982 . S
C99 H75 0.979 . S
C99 H76 0.977 . S
C99 C96 1.453 . S
C100 H72 0.979 . S
C100 H73 0.980 . S
C100 H74 0.983 . S
C100 C96 1.684 . S
H101 C119 0.948 . S
H102 C60 0.948 . S
H103 C78 0.979 . S
H104 C78 0.980 . S
H105 C78 0.983 . S
H106 C77 0.982 . S
H107 C77 0.979 . S
H108 C77 0.977 . S
H109 C79 0.948 . S
H110 C81 0.947 . S
H111 C82 0.948 . S
H112 C88 0.982 . S
H113 C88 0.979 . S
H114 C88 0.977 . S
H115 C89 0.979 . S
H116 C89 0.980 . S
H117 C89 0.983 . S
H118 C62 0.947 . S
C119 C62 1.392 . S
C119 C63 1.419 . S
C119 H101 0.948 . S
C120 C121 1.391 . S
C120 C124 1.391 . S
C120 H162 0.948 . S
C121 C120 1.391 . S
C121 C122 1.391 . S
C122 C121 1.391 . S
C122 H178 0.947 . S
C122 C179 1.392 . S
C123 C124 1.391 . S
C123 C127 1.397 . S
C123 C179 1.419 . S
C124 C120 1.391 . S
C124 C123 1.391 . S
C124 C125 1.399 . S
C125 C124 1.399 . S
C125 C128 1.396 . S
C125 C137 1.453 . S
C125 C138 1.684 . S
H126 C150 0.948 . S
C127 C123 1.397 . S
C127 C128 1.394 . S
C127 C146 1.723 . S
C128 C125 1.396 . S
C128 C127 1.394 . S
C128 C158 1.723 . S
H129 C152 0.947 . S
H130 C153 0.948 . S
H131 C159 0.982 . S
H132 C160 0.979 . S
H133 C160 0.980 . S
H134 C160 0.983 . S
H135 C159 0.979 . S
H136 C159 0.977 . S
C137 C125 1.453 . S
C137 H166 0.982 . S
C137 H167 0.979 . S
C137 H168 0.977 . S
C138 C125 1.684 . S
C138 H163 0.979 . S
C138 H164 0.980 . S
C138 H165 0.983 . S
C139 C140 1.391 . S
C139 C144 1.391 . S
C139 H169 0.948 . S
C140 C139 1.391 . S
C140 C141 1.391 . S
C141 C140 1.391 . S
C141 C142 1.392 . S
C141 H170 0.947 . S
C142 C141 1.392 . S
C142 C143 1.419 . S
C142 H171 0.948 . S
C143 C142 1.419 . S
C143 C144 1.391 . S
C143 C147 1.397 . S
C144 C139 1.391 . S
C144 C143 1.391 . S
C144 C145 1.399 . S
C145 C144 1.399 . S
C145 C146 1.396 . S
C145 C148 1.453 . S
C145 C149 1.684 . S
C146 C127 1.723 . S
C146 C145 1.396 . S
C146 C147 1.394 . S
C147 C143 1.397 . S
C147 C146 1.394 . S
C147 C157 1.723 . S
C148 C145 1.453 . S
C148 H172 0.982 . S
C148 H173 0.979 . S
C148 H174 0.977 . S
C149 C145 1.684 . S
C149 H175 0.979 . S
C149 H176 0.980 . S
C149 H177 0.983 . S
C150 H126 0.948 . S
C150 C151 1.391 . S
C150 C155 1.391 . S
C151 C150 1.391 . S
C151 C152 1.391 . S
C152 H129 0.947 . S
C152 C151 1.391 . S
C152 C153 1.392 . S
C153 H130 0.948 . S
C153 C152 1.392 . S
C153 C154 1.419 . S
C154 C153 1.419 . S
C154 C155 1.391 . S
C154 C158 1.397 . S
C155 C150 1.391 . S
C155 C154 1.391 . S
C155 C156 1.399 . S
C156 C155 1.399 . S
C156 C157 1.396 . S
C156 C159 1.453 . S
C156 C160 1.684 . S
C157 C147 1.723 . S
C157 C156 1.396 . S
C157 C158 1.394 . S
C158 C128 1.723 . S
C158 C154 1.397 . S
C158 C157 1.394 . S
C159 H131 0.982 . S
C159 H135 0.979 . S
C159 H136 0.977 . S
C159 C156 1.453 . S
C160 H132 0.979 . S
C160 H133 0.980 . S
C160 H134 0.983 . S
C160 C156 1.684 . S
H161 C179 0.948 . S
H162 C120 0.948 . S
H163 C138 0.979 . S
H164 C138 0.980 . S
H165 C138 0.983 . S
H166 C137 0.982 . S
H167 C137 0.979 . S
H168 C137 0.977 . S
H169 C139 0.948 . S
H170 C141 0.947 . S
H171 C142 0.948 . S
H172 C148 0.982 . S
H173 C148 0.979 . S
H174 C148 0.977 . S
H175 C149 0.979 . S
H176 C149 0.980 . S
H177 C149 0.983 . S
H178 C122 0.947 . S
C179 C122 1.392 . S
C179 C123 1.419 . S
C179 H161 0.948 . S
C180 C181 1.391 . S
C180 C184 1.391 . S
C180 H222 0.948 . S
C181 C180 1.391 . S
C181 C182 1.391 . S
C182 C181 1.391 . S
C182 H238 0.947 . S
C182 C239 1.392 . S
C183 C184 1.391 . S
C183 C187 1.397 . S
C183 C239 1.419 . S
C184 C180 1.391 . S
C184 C183 1.391 . S
C184 C185 1.399 . S
C185 C184 1.399 . S
C185 C188 1.396 . S
C185 C197 1.453 . S
C185 C198 1.684 . S
H186 C210 0.948 . S
C187 C183 1.397 . S
C187 C188 1.394 . S
C187 C206 1.723 . S
C188 C185 1.396 . S
C188 C187 1.394 . S
C188 C218 1.723 . S
H189 C212 0.947 . S
H190 C213 0.948 . S
H191 C219 0.982 . S
H192 C220 0.979 . S
H193 C220 0.980 . S
H194 C220 0.983 . S
H195 C219 0.979 . S
H196 C219 0.977 . S
C197 C185 1.453 . S
C197 H226 0.982 . S
C197 H227 0.979 . S
C197 H228 0.977 . S
C198 C185 1.684 . S
C198 H223 0.979 . S
C198 H224 0.980 . S
C198 H225 0.983 . S
C199 C200 1.391 . S
C199 C204 1.391 . S
C199 H229 0.948 . S
C200 C199 1.391 . S
C200 C201 1.391 . S
C201 C200 1.391 . S
C201 C202 1.392 . S
C201 H230 0.947 . S
C202 C201 1.392 . S
C202 C203 1.419 . S
C202 H231 0.948 . S
C203 C202 1.419 . S
C203 C204 1.391 . S
C203 C207 1.397 . S
C204 C199 1.391 . S
C204 C203 1.391 . S
C204 C205 1.399 . S
C205 C204 1.399 . S
C205 C206 1.396 . S
C205 C208 1.453 . S
C205 C209 1.684 . S
C206 C187 1.723 . S
C206 C205 1.396 . S
C206 C207 1.394 . S
C207 C203 1.397 . S
C207 C206 1.394 . S
C207 C217 1.723 . S
C208 C205 1.453 . S
C208 H232 0.982 . S
C208 H233 0.979 . S
C208 H234 0.977 . S
C209 C205 1.684 . S
C209 H235 0.979 . S
C209 H236 0.980 . S
C209 H237 0.983 . S
C210 H186 0.948 . S
C210 C211 1.391 . S
C210 C215 1.391 . S
C211 C210 1.391 . S
C211 C212 1.391 . S
C212 H189 0.947 . S
C212 C211 1.391 . S
C212 C213 1.392 . S
C213 H190 0.948 . S
C213 C212 1.392 . S
C213 C214 1.419 . S
C214 C213 1.419 . S
C214 C215 1.391 . S
C214 C218 1.397 . S
C215 C210 1.391 . S
C215 C214 1.391 . S
C215 C216 1.399 . S
C216 C215 1.399 . S
C216 C217 1.396 . S
C216 C219 1.453 . S
C216 C220 1.684 . S
C217 C207 1.723 . S
C217 C216 1.396 . S
C217 C218 1.394 . S
C218 C188 1.723 . S
C218 C214 1.397 . S
C218 C217 1.394 . S
C219 H191 0.982 . S
C219 H195 0.979 . S
C219 H196 0.977 . S
C219 C216 1.453 . S
C220 H192 0.979 . S
C220 H193 0.980 . S
C220 H194 0.983 . S
C220 C216 1.684 . S
H221 C239 0.948 . S
H222 C180 0.948 . S
H223 C198 0.979 . S
H224 C198 0.980 . S
H225 C198 0.983 . S
H226 C197 0.982 . S
H227 C197 0.979 . S
H228 C197 0.977 . S
H229 C199 0.948 . S
H230 C201 0.947 . S
H231 C202 0.948 . S
H232 C208 0.982 . S
H233 C208 0.979 . S
H234 C208 0.977 . S
H235 C209 0.979 . S
H236 C209 0.980 . S
H237 C209 0.983 . S
H238 C182 0.947 . S
C239 C182 1.392 . S
C239 C183 1.419 . S
C239 H221 0.948 . S
C240 C241 1.391 . S
C240 C244 1.391 . S
C240 H282 0.948 . S
C241 C240 1.391 . S
C241 C242 1.391 . S
C242 C241 1.391 . S
C242 H298 0.947 . S
C242 C299 1.392 . S
C243 C244 1.391 . S
C243 C247 1.397 . S
C243 C299 1.419 . S
C244 C240 1.391 . S
C244 C243 1.391 . S
C244 C245 1.399 . S
C245 C244 1.399 . S
C245 C248 1.396 . S
C245 C257 1.453 . S
C245 C258 1.684 . S
H246 C270 0.948 . S
C247 C243 1.397 . S
C247 C248 1.394 . S
C247 C266 1.723 . S
C248 C245 1.396 . S
C248 C247 1.394 . S
C248 C278 1.723 . S
H249 C272 0.947 . S
H250 C273 0.948 . S
H251 C279 0.982 . S
H252 C280 0.979 . S
H253 C280 0.980 . S
H254 C280 0.983 . S
H255 C279 0.979 . S
H256 C279 0.977 . S
C257 C245 1.453 . S
C257 H286 0.982 . S
C257 H287 0.979 . S
C257 H288 0.977 . S
C258 C245 1.684 . S
C258 H283 0.979 . S
C258 H284 0.980 . S
C258 H285 0.983 . S
C259 C260 1.391 . S
C259 C264 1.391 . S
C259 H289 0.948 . S
C260 C259 1.391 . S
C260 C261 1.391 . S
C261 C260 1.391 . S
C261 C262 1.392 . S
C261 H290 0.947 . S
C262 C261 1.392 . S
C262 C263 1.419 . S
C262 H291 0.948 . S
C263 C262 1.419 . S
C263 C264 1.391 . S
C263 C267 1.397 . S
C264 C259 1.391 . S
C264 C263 1.391 . S
C264 C265 1.399 . S
C265 C264 1.399 . S
C265 C266 1.396 . S
C265 C268 1.453 . S
C265 C269 1.684 . S
C266 C247 1.723 . S
C266 C265 1.396 . S
C266 C267 1.394 . S
C267 C263 1.397 . S
C267 C266 1.394 . S
C267 C277 1.723 . S
C268 C265 1.453 . S
C268 H292 0.982 . S
C268 H293 0.979 . S
C268 H294 0.977 . S
C269 C265 1.684 . S
C269 H295 0.979 . S
C269 H296 0.980 . S
C269 H297 0.983 . S
C270 H246 0.948 . S
C270 C271 1.391 . S
C270 C275 1.391 . S
C271 C270 1.391 . S
C271 C272 1.391 . S
C272 H249 0.947 . S
C272 C271 1.391 . S
C272 C273 1.392 . S
C273 H250 0.948 . S
C273 C272 1.392 . S
C273 C274 1.419 . S
C274 C273 1.419 . S
C274 C275 1.391 . S
C274 C278 1.397 . S
C275 C270 1.391 . S
C275 C274 1.391 . S
C275 C276 1.399 . S
C276 C275 1.399 . S
C276 C277 1.396 . S
C276 C279 1.453 . S
C276 C280 1.684 . S
C277 C267 1.723 . S
C277 C276 1.396 . S
C277 C278 1.394 . S
C278 C248 1.723 . S
C278 C274 1.397 . S
C278 C277 1.394 . S
C279 H251 0.982 . S
C279 H255 0.979 . S
C279 H256 0.977 . S
C279 C276 1.453 . S
C280 H252 0.979 . S
C280 H253 0.980 . S
C280 H254 0.983 . S
C280 C276 1.684 . S
H281 C299 0.948 . S
H282 C240 0.948 . S
H283 C258 0.979 . S
H284 C258 0.980 . S
H285 C258 0.983 . S
H286 C257 0.982 . S
H287 C257 0.979 . S
H288 C257 0.977 . S
H289 C259 0.948 . S
H290 C261 0.947 . S
H291 C262 0.948 . S
H292 C268 0.982 . S
H293 C268 0.979 . S
H294 C268 0.977 . S
H295 C269 0.979 . S
H296 C269 0.980 . S
H297 C269 0.983 . S
H298 C242 0.947 . S
C299 C242 1.392 . S
C299 C243 1.419 . S
C299 H281 0.948 . S
C300 C301 1.391 . S
C300 C304 1.391 . S
C300 H342 0.948 . S
C301 C300 1.391 . S
C301 C302 1.391 . S
C302 C301 1.391 . S
C302 H358 0.947 . S
C302 C359 1.392 . S
C303 C304 1.391 . S
C303 C307 1.397 . S
C303 C359 1.419 . S
C304 C300 1.391 . S
C304 C303 1.391 . S
C304 C305 1.399 . S
C305 C304 1.399 . S
C305 C308 1.396 . S
C305 C317 1.453 . S
C305 C318 1.684 . S
H306 C330 0.948 . S
C307 C303 1.397 . S
C307 C308 1.394 . S
C307 C326 1.723 . S
C308 C305 1.396 . S
C308 C307 1.394 . S
C308 C338 1.723 . S
H309 C332 0.947 . S
H310 C333 0.948 . S
H311 C339 0.982 . S
H312 C340 0.979 . S
H313 C340 0.980 . S
H314 C340 0.983 . S
H315 C339 0.979 . S
H316 C339 0.977 . S
C317 C305 1.453 . S
C317 H346 0.982 . S
C317 H347 0.979 . S
C317 H348 0.977 . S
C318 C305 1.684 . S
C318 H343 0.979 . S
C318 H344 0.980 . S
C318 H345 0.983 . S
C319 C320 1.391 . S
C319 C324 1.391 . S
C319 H349 0.948 . S
C320 C319 1.391 . S
C320 C321 1.391 . S
C321 C320 1.391 . S
C321 C322 1.392 . S
C321 H350 0.947 . S
C322 C321 1.392 . S
C322 C323 1.419 . S
C322 H351 0.948 . S
C323 C322 1.419 . S
C323 C324 1.391 . S
C323 C327 1.397 . S
C324 C319 1.391 . S
C324 C323 1.391 . S
C324 C325 1.399 . S
C325 C324 1.399 . S
C325 C326 1.396 . S
C325 C328 1.453 . S
C325 C329 1.684 . S
C326 C307 1.723 . S
C326 C325 1.396 . S
C326 C327 1.394 . S
C327 C323 1.397 . S
C327 C326 1.394 . S
C327 C337 1.723 . S
C328 C325 1.453 . S
C328 H352 0.982 . S
C328 H353 0.979 . S
C328 H354 0.977 . S
C329 C325 1.684 . S
C329 H355 0.979 . S
C329 H356 0.980 . S
C329 H357 0.983 . S
C330 H306 0.948 . S
C330 C331 1.391 . S
C330 C335 1.391 . S
C331 C330 1.391 . S
C331 C332 1.391 . S
C332 H309 0.947 . S
C332 C331 1.391 . S
C332 C333 1.392 . S
C333 H310 0.948 . S
C333 C332 1.392 . S
C333 C334 1.419 . S
C334 C333 1.419 . S
C334 C335 1.391 . S
C334 C338 1.397 . S
C335 C330 1.391 . S
C335 C334 1.391 . S
C335 C336 1.399 . S
C336 C335 1.399 . S
C336 C337 1.396 . S
C336 C339 1.453 . S
C336 C340 1.684 . S
C337 C327 1.723 . S
C337 C336 1.396 . S
C337 C338 1.394 . S
C338 C308 1.723 . S
C338 C334 1.397 . S
C338 C337 1.394 . S
C339 H311 0.982 . S
C339 H315 0.979 . S
C339 H316 0.977 . S
C339 C336 1.453 . S
C340 H312 0.979 . S
C340 H313 0.980 . S
C340 H314 0.983 . S
C340 C336 1.684 . S
H341 C359 0.948 . S
H342 C300 0.948 . S
H343 C318 0.979 . S
H344 C318 0.980 . S
H345 C318 0.983 . S
H346 C317 0.982 . S
H347 C317 0.979 . S
H348 C317 0.977 . S
H349 C319 0.948 . S
H350 C321 0.947 . S
H351 C322 0.948 . S
H352 C328 0.982 . S
H353 C328 0.979 . S
H354 C328 0.977 . S
H355 C329 0.979 . S
H356 C329 0.980 . S
H357 C329 0.983 . S
H358 C302 0.947 . S
C359 C302 1.392 . S
C359 C303 1.419 . S
C359 H341 0.948 . S
C360 C361 1.391 . S
C360 C364 1.391 . S
C360 H402 0.948 . S
C361 C360 1.391 . S
C361 C362 1.391 . S
C362 C361 1.391 . S
C362 H418 0.947 . S
C362 C419 1.392 . S
C363 C364 1.391 . S
C363 C367 1.397 . S
C363 C419 1.419 . S
C364 C360 1.391 . S
C364 C363 1.391 . S
C364 C365 1.399 . S
C365 C364 1.399 . S
C365 C368 1.396 . S
C365 C377 1.453 . S
C365 C378 1.684 . S
H366 C390 0.948 . S
C367 C363 1.397 . S
C367 C368 1.394 . S
C367 C386 1.723 . S
C368 C365 1.396 . S
C368 C367 1.394 . S
C368 C398 1.723 . S
H369 C392 0.947 . S
H370 C393 0.948 . S
H371 C399 0.982 . S
H372 C400 0.979 . S
H373 C400 0.980 . S
H374 C400 0.983 . S
H375 C399 0.979 . S
H376 C399 0.977 . S
C377 C365 1.453 . S
C377 H406 0.982 . S
C377 H407 0.979 . S
C377 H408 0.977 . S
C378 C365 1.684 . S
C378 H403 0.979 . S
C378 H404 0.980 . S
C378 H405 0.983 . S
C379 C380 1.391 . S
C379 C384 1.391 . S
C379 H409 0.948 . S
C380 C379 1.391 . S
C380 C381 1.391 . S
C381 C380 1.391 . S
C381 C382 1.392 . S
C381 H410 0.947 . S
C382 C381 1.392 . S
C382 C383 1.419 . S
C382 H411 0.948 . S
C383 C382 1.419 . S
C383 C384 1.391 . S
C383 C387 1.397 . S
C384 C379 1.391 . S
C384 C383 1.391 . S
C384 C385 1.399 . S
C385 C384 1.399 . S
C385 C386 1.396 . S
C385 C388 1.453 . S
C385 C389 1.684 . S
C386 C367 1.723 . S
C386 C385 1.396 . S
C386 C387 1.394 . S
C387 C383 1.397 . S
C387 C386 1.394 . S
C387 C397 1.723 . S
C388 C385 1.453 . S
C388 H412 0.982 1_655 S
C388 H413 0.979 . S
C388 H414 0.977 . S
C389 C385 1.684 . S
C389 H415 0.979 . S
C389 H416 0.980 . S
C389 H417 0.983 . S
C390 H366 0.948 . S
C390 C391 1.391 . S
C390 C395 1.391 . S
C391 C390 1.391 . S
C391 C392 1.391 . S
C392 H369 0.947 . S
C392 C391 1.391 . S
C392 C393 1.392 . S
C393 H370 0.948 . S
C393 C392 1.392 . S
C393 C394 1.419 . S
C394 C393 1.419 . S
C394 C395 1.391 . S
C394 C398 1.397 . S
C395 C390 1.391 . S
C395 C394 1.391 . S
C395 C396 1.399 . S
C396 C395 1.399 . S
C396 C397 1.396 . S
C396 C399 1.453 . S
C396 C400 1.684 . S
C397 C387 1.723 . S
C397 C396 1.396 . S
C397 C398 1.394 . S
C398 C368 1.723 . S
C398 C394 1.397 . S
C398 C397 1.394 . S
C399 H371 0.982 . S
C399 H375 0.979 . S
C399 H376 0.977 . S
C399 C396 1.453 . S
C400 H372 0.979 . S
C400 H373 0.980 . S
C400 H374 0.983 . S
C400 C396 1.684 . S
H401 C419 0.948 . S
H402 C360 0.948 . S
H403 C378 0.979 . S
H404 C378 0.980 . S
H405 C378 0.983 . S
H406 C377 0.982 . S
H407 C377 0.979 . S
H408 C377 0.977 . S
H409 C379 0.948 . S
H410 C381 0.947 . S
H411 C382 0.948 . S
H412 C388 0.982 1_455 S
H413 C388 0.979 . S
H414 C388 0.977 . S
H415 C389 0.979 . S
H416 C389 0.980 . S
H417 C389 0.983 . S
H418 C362 0.947 . S
C419 C362 1.392 . S
C419 C363 1.419 . S
C419 H401 0.948 . S
C420 C421 1.391 . S
C420 C424 1.391 . S
C420 H462 0.948 . S
C421 C420 1.391 . S
C421 C422 1.391 . S
C422 C421 1.391 . S
C422 H478 0.947 . S
C422 C479 1.392 . S
C423 C424 1.391 . S
C423 C427 1.397 . S
C423 C479 1.419 . S
C424 C420 1.391 . S
C424 C423 1.391 . S
C424 C425 1.399 . S
C425 C424 1.399 . S
C425 C428 1.396 . S
C425 C437 1.453 . S
C425 C438 1.684 . S
H426 C450 0.948 . S
C427 C423 1.397 . S
C427 C428 1.394 . S
C427 C446 1.723 . S
C428 C425 1.396 . S
C428 C427 1.394 . S
C428 C458 1.723 . S
H429 C452 0.947 . S
H430 C453 0.948 . S
H431 C459 0.982 . S
H432 C460 0.979 . S
H433 C460 0.980 . S
H434 C460 0.983 . S
H435 C459 0.979 . S
H436 C459 0.977 . S
C437 C425 1.453 . S
C437 H466 0.982 . S
C437 H467 0.979 . S
C437 H468 0.977 . S
C438 C425 1.684 . S
C438 H463 0.979 . S
C438 H464 0.980 . S
C438 H465 0.983 . S
C439 C440 1.391 . S
C439 C444 1.391 . S
C439 H469 0.948 . S
C440 C439 1.391 . S
C440 C441 1.391 . S
C441 C440 1.391 . S
C441 C442 1.392 . S
C441 H470 0.947 . S
C442 C441 1.392 . S
C442 C443 1.419 . S
C442 H471 0.948 . S
C443 C442 1.419 . S
C443 C444 1.391 . S
C443 C447 1.397 . S
C444 C439 1.391 . S
C444 C443 1.391 . S
C444 C445 1.399 . S
C445 C444 1.399 . S
C445 C446 1.396 . S
C445 C448 1.453 . S
C445 C449 1.684 . S
C446 C427 1.723 . S
C446 C445 1.396 . S
C446 C447 1.394 . S
C447 C443 1.397 . S
C447 C446 1.394 . S
C447 C457 1.723 . S
C448 C445 1.453 . S
C448 H472 0.982 . S
C448 H473 0.979 . S
C448 H474 0.977 . S
C449 C445 1.684 . S
C449 H475 0.979 . S
C449 H476 0.980 . S
C449 H477 0.983 . S
C450 H426 0.948 . S
C450 C451 1.391 . S
C450 C455 1.391 . S
C451 C450 1.391 . S
C451 C452 1.391 . S
C452 H429 0.947 . S
C452 C451 1.391 . S
C452 C453 1.392 . S
C453 H430 0.948 . S
C453 C452 1.392 . S
C453 C454 1.419 . S
C454 C453 1.419 . S
C454 C455 1.391 . S
C454 C458 1.397 . S
C455 C450 1.391 . S
C455 C454 1.391 . S
C455 C456 1.399 . S
C456 C455 1.399 . S
C456 C457 1.396 . S
C456 C459 1.453 . S
C456 C460 1.684 . S
C457 C447 1.723 . S
C457 C456 1.396 . S
C457 C458 1.394 . S
C458 C428 1.723 . S
C458 C454 1.397 . S
C458 C457 1.394 . S
C459 H431 0.982 . S
C459 H435 0.979 . S
C459 H436 0.977 . S
C459 C456 1.453 . S
C460 H432 0.979 . S
C460 H433 0.980 . S
C460 H434 0.983 . S
C460 C456 1.684 . S
H461 C479 0.948 . S
H462 C420 0.948 . S
H463 C438 0.979 . S
H464 C438 0.980 . S
H465 C438 0.983 . S
H466 C437 0.982 . S
H467 C437 0.979 . S
H468 C437 0.977 . S
H469 C439 0.948 . S
H470 C441 0.947 . S
H471 C442 0.948 . S
H472 C448 0.982 . S
H473 C448 0.979 . S
H474 C448 0.977 . S
H475 C449 0.979 . S
H476 C449 0.980 . S
H477 C449 0.983 . S
H478 C422 0.947 . S
C479 C422 1.392 . S
C479 C423 1.419 . S
C479 H461 0.948 . S
C480 C481 1.391 . S
C480 C484 1.391 . S
C480 H522 0.948 . S
C481 C480 1.391 . S
C481 C482 1.391 . S
C482 C481 1.391 . S
C482 H538 0.947 . S
C482 C539 1.392 . S
C483 C484 1.391 . S
C483 C487 1.397 . S
C483 C539 1.419 . S
C484 C480 1.391 . S
C484 C483 1.391 . S
C484 C485 1.399 . S
C485 C484 1.399 . S
C485 C488 1.396 . S
C485 C497 1.453 . S
C485 C498 1.684 . S
H486 C510 0.948 . S
C487 C483 1.397 . S
C487 C488 1.394 . S
C487 C506 1.723 . S
C488 C485 1.396 . S
C488 C487 1.394 . S
C488 C518 1.723 . S
H489 C512 0.947 . S
H490 C513 0.948 . S
H491 C519 0.982 . S
H492 C520 0.979 . S
H493 C520 0.980 . S
H494 C520 0.983 . S
H495 C519 0.979 . S
H496 C519 0.977 . S
C497 C485 1.453 . S
C497 H526 0.982 . S
C497 H527 0.979 . S
C497 H528 0.977 . S
C498 C485 1.684 . S
C498 H523 0.979 . S
C498 H524 0.980 . S
C498 H525 0.983 . S
C499 C500 1.391 . S
C499 C504 1.391 . S
C499 H529 0.948 . S
C500 C499 1.391 . S
C500 C501 1.391 . S
C501 C500 1.391 . S
C501 C502 1.392 . S
C501 H530 0.947 . S
C502 C501 1.392 . S
C502 C503 1.419 . S
C502 H531 0.948 . S
C503 C502 1.419 . S
C503 C504 1.391 . S
C503 C507 1.397 . S
C504 C499 1.391 . S
C504 C503 1.391 . S
C504 C505 1.399 . S
C505 C504 1.399 . S
C505 C506 1.396 . S
C505 C508 1.453 . S
C505 C509 1.684 . S
C506 C487 1.723 . S
C506 C505 1.396 . S
C506 C507 1.394 . S
C507 C503 1.397 . S
C507 C506 1.394 . S
C507 C517 1.723 . S
C508 C505 1.453 . S
C508 H532 0.982 . S
C508 H533 0.979 . S
C508 H534 0.977 . S
C509 C505 1.684 . S
C509 H535 0.979 . S
C509 H536 0.980 . S
C509 H537 0.983 . S
C510 H486 0.948 . S
C510 C511 1.391 . S
C510 C515 1.391 . S
C511 C510 1.391 . S
C511 C512 1.391 . S
C512 H489 0.947 . S
C512 C511 1.391 . S
C512 C513 1.392 . S
C513 H490 0.948 . S
C513 C512 1.392 . S
C513 C514 1.419 . S
C514 C513 1.419 . S
C514 C515 1.391 . S
C514 C518 1.397 . S
C515 C510 1.391 . S
C515 C514 1.391 . S
C515 C516 1.399 . S
C516 C515 1.399 . S
C516 C517 1.396 . S
C516 C519 1.453 . S
C516 C520 1.684 . S
C517 C507 1.723 . S
C517 C516 1.396 . S
C517 C518 1.394 . S
C518 C488 1.723 . S
C518 C514 1.397 . S
C518 C517 1.394 . S
C519 H491 0.982 . S
C519 H495 0.979 . S
C519 H496 0.977 . S
C519 C516 1.453 . S
C520 H492 0.979 . S
C520 H493 0.980 . S
C520 H494 0.983 . S
C520 C516 1.684 . S
H521 C539 0.948 . S
H522 C480 0.948 . S
H523 C498 0.979 . S
H524 C498 0.980 . S
H525 C498 0.983 . S
H526 C497 0.982 . S
H527 C497 0.979 . S
H528 C497 0.977 . S
H529 C499 0.948 . S
H530 C501 0.947 . S
H531 C502 0.948 . S
H532 C508 0.982 . S
H533 C508 0.979 . S
H534 C508 0.977 . S
H535 C509 0.979 . S
H536 C509 0.980 . S
H537 C509 0.983 . S
H538 C482 0.947 . S
C539 C482 1.392 . S
C539 C483 1.419 . S
C539 H521 0.948 . S
C540 C541 1.391 . S
C540 C544 1.391 . S
C540 H582 0.948 . S
C541 C540 1.391 . S
C541 C542 1.391 . S
C542 C541 1.391 . S
C542 H598 0.947 . S
C542 C599 1.392 . S
C543 C544 1.391 . S
C543 C547 1.397 . S
C543 C599 1.419 . S
C544 C540 1.391 . S
C544 C543 1.391 . S
C544 C545 1.399 . S
C545 C544 1.399 . S
C545 C548 1.396 . S
C545 C557 1.453 . S
C545 C558 1.684 . S
H546 C570 0.948 . S
C547 C543 1.397 . S
C547 C548 1.394 . S
C547 C566 1.723 . S
C548 C545 1.396 . S
C548 C547 1.394 . S
C548 C578 1.723 . S
H549 C572 0.947 . S
H550 C573 0.948 . S
H551 C579 0.982 . S
H552 C580 0.979 . S
H553 C580 0.980 . S
H554 C580 0.983 . S
H555 C579 0.979 . S
H556 C579 0.977 . S
C557 C545 1.453 . S
C557 H586 0.982 . S
C557 H587 0.979 . S
C557 H588 0.977 . S
C558 C545 1.684 . S
C558 H583 0.979 . S
C558 H584 0.980 . S
C558 H585 0.983 . S
C559 C560 1.391 . S
C559 C564 1.391 . S
C559 H589 0.948 . S
C560 C559 1.391 . S
C560 C561 1.391 . S
C561 C560 1.391 . S
C561 C562 1.392 . S
C561 H590 0.947 . S
C562 C561 1.392 . S
C562 C563 1.419 . S
C562 H591 0.948 . S
C563 C562 1.419 . S
C563 C564 1.391 . S
C563 C567 1.397 . S
C564 C559 1.391 . S
C564 C563 1.391 . S
C564 C565 1.399 . S
C565 C564 1.399 . S
C565 C566 1.396 . S
C565 C568 1.453 . S
C565 C569 1.684 . S
C566 C547 1.723 . S
C566 C565 1.396 . S
C566 C567 1.394 . S
C567 C563 1.397 . S
C567 C566 1.394 . S
C567 C577 1.723 . S
C568 C565 1.453 . S
C568 H592 0.982 . S
C568 H593 0.979 . S
C568 H594 0.977 . S
C569 C565 1.684 . S
C569 H595 0.979 . S
C569 H596 0.980 . S
C569 H597 0.983 . S
C570 H546 0.948 . S
C570 C571 1.391 . S
C570 C575 1.391 . S
C571 C570 1.391 . S
C571 C572 1.391 . S
C572 H549 0.947 . S
C572 C571 1.391 . S
C572 C573 1.392 . S
C573 H550 0.948 . S
C573 C572 1.392 . S
C573 C574 1.419 . S
C574 C573 1.419 . S
C574 C575 1.391 . S
C574 C578 1.397 . S
C575 C570 1.391 . S
C575 C574 1.391 . S
C575 C576 1.399 . S
C576 C575 1.399 . S
C576 C577 1.396 . S
C576 C579 1.453 . S
C576 C580 1.684 . S
C577 C567 1.723 . S
C577 C576 1.396 . S
C577 C578 1.394 . S
C578 C548 1.723 . S
C578 C574 1.397 . S
C578 C577 1.394 . S
C579 H551 0.982 . S
C579 H555 0.979 . S
C579 H556 0.977 . S
C579 C576 1.453 . S
C580 H552 0.979 . S
C580 H553 0.980 . S
C580 H554 0.983 . S
C580 C576 1.684 . S
H581 C599 0.948 . S
H582 C540 0.948 . S
H583 C558 0.979 . S
H584 C558 0.980 . S
H585 C558 0.983 . S
H586 C557 0.982 . S
H587 C557 0.979 . S
H588 C557 0.977 . S
H589 C559 0.948 . S
H590 C561 0.947 . S
H591 C562 0.948 . S
H592 C568 0.982 . S
H593 C568 0.979 . S
H594 C568 0.977 . S
H595 C569 0.979 . S
H596 C569 0.980 . S
H597 C569 0.983 . S
H598 C542 0.947 . S
C599 C542 1.392 . S
C599 C543 1.419 . S
C599 H581 0.948 . S
C600 C601 1.391 . S
C600 C604 1.391 . S
C600 H642 0.948 . S
C601 C600 1.391 . S
C601 C602 1.391 . S
C602 C601 1.391 . S
C602 H658 0.947 . S
C602 C659 1.392 . S
C603 C604 1.391 . S
C603 C607 1.397 . S
C603 C659 1.419 . S
C604 C600 1.391 . S
C604 C603 1.391 . S
C604 C605 1.399 . S
C605 C604 1.399 . S
C605 C608 1.396 . S
C605 C617 1.453 . S
C605 C618 1.684 . S
H606 C630 0.948 . S
C607 C603 1.397 . S
C607 C608 1.394 . S
C607 C626 1.723 . S
C608 C605 1.396 . S
C608 C607 1.394 . S
C608 C638 1.723 . S
H609 C632 0.947 . S
H610 C633 0.948 . S
H611 C639 0.982 . S
H612 C640 0.979 . S
H613 C640 0.980 . S
H614 C640 0.983 . S
H615 C639 0.979 . S
H616 C639 0.977 . S
C617 C605 1.453 . S
C617 H646 0.982 . S
C617 H647 0.979 . S
C617 H648 0.977 . S
C618 C605 1.684 . S
C618 H643 0.979 . S
C618 H644 0.980 . S
C618 H645 0.983 . S
C619 C620 1.391 . S
C619 C624 1.391 . S
C619 H649 0.948 . S
C620 C619 1.391 . S
C620 C621 1.391 . S
C621 C620 1.391 . S
C621 C622 1.392 . S
C621 H650 0.947 . S
C622 C621 1.392 . S
C622 C623 1.419 . S
C622 H651 0.948 . S
C623 C622 1.419 . S
C623 C624 1.391 . S
C623 C627 1.397 . S
C624 C619 1.391 . S
C624 C623 1.391 . S
C624 C625 1.399 . S
C625 C624 1.399 . S
C625 C626 1.396 . S
C625 C628 1.453 . S
C625 C629 1.684 . S
C626 C607 1.723 . S
C626 C625 1.396 . S
C626 C627 1.394 . S
C627 C623 1.397 . S
C627 C626 1.394 . S
C627 C637 1.723 . S
C628 C625 1.453 . S
C628 H652 0.982 . S
C628 H653 0.979 . S
C628 H654 0.977 . S
C629 C625 1.684 . S
C629 H655 0.979 . S
C629 H656 0.980 . S
C629 H657 0.983 . S
C630 H606 0.948 . S
C630 C631 1.391 . S
C630 C635 1.391 . S
C631 C630 1.391 . S
C631 C632 1.391 . S
C632 H609 0.947 . S
C632 C631 1.391 . S
C632 C633 1.392 . S
C633 H610 0.948 . S
C633 C632 1.392 . S
C633 C634 1.419 . S
C634 C633 1.419 . S
C634 C635 1.391 . S
C634 C638 1.397 . S
C635 C630 1.391 . S
C635 C634 1.391 . S
C635 C636 1.399 . S
C636 C635 1.399 . S
C636 C637 1.396 . S
C636 C639 1.453 . S
C636 C640 1.684 . S
C637 C627 1.723 . S
C637 C636 1.396 . S
C637 C638 1.394 . S
C638 C608 1.723 . S
C638 C634 1.397 . S
C638 C637 1.394 . S
C639 H611 0.982 . S
C639 H615 0.979 . S
C639 H616 0.977 . S
C639 C636 1.453 . S
C640 H612 0.979 . S
C640 H613 0.980 . S
C640 H614 0.983 . S
C640 C636 1.684 . S
H641 C659 0.948 . S
H642 C600 0.948 . S
H643 C618 0.979 . S
H644 C618 0.980 . S
H645 C618 0.983 . S
H646 C617 0.982 . S
H647 C617 0.979 . S
H648 C617 0.977 . S
H649 C619 0.948 . S
H650 C621 0.947 . S
H651 C622 0.948 . S
H652 C628 0.982 . S
H653 C628 0.979 . S
H654 C628 0.977 . S
H655 C629 0.979 . S
H656 C629 0.980 . S
H657 C629 0.983 . S
H658 C602 0.947 . S
C659 C602 1.392 . S
C659 C603 1.419 . S
C659 H641 0.948 . S
C660 C661 1.391 . S
C660 C664 1.391 . S
C660 H702 0.948 . S
C661 C660 1.391 . S
C661 C662 1.391 . S
C662 C661 1.391 . S
C662 H718 0.947 . S
C662 C719 1.392 . S
C663 C664 1.391 . S
C663 C667 1.397 . S
C663 C719 1.419 . S
C664 C660 1.391 . S
C664 C663 1.391 . S
C664 C665 1.399 . S
C665 C664 1.399 . S
C665 C668 1.396 . S
C665 C677 1.453 . S
C665 C678 1.684 . S
H666 C690 0.948 . S
C667 C663 1.397 . S
C667 C668 1.394 . S
C667 C686 1.723 . S
C668 C665 1.396 . S
C668 C667 1.394 . S
C668 C698 1.723 . S
H669 C692 0.947 . S
H670 C693 0.948 . S
H671 C699 0.982 . S
H672 C700 0.979 . S
H673 C700 0.980 . S
H674 C700 0.983 . S
H675 C699 0.979 . S
H676 C699 0.977 . S
C677 C665 1.453 . S
C677 H706 0.982 . S
C677 H707 0.979 . S
C677 H708 0.977 . S
C678 C665 1.684 . S
C678 H703 0.979 . S
C678 H704 0.980 . S
C678 H705 0.983 . S
C679 C680 1.391 . S
C679 C684 1.391 . S
C679 H709 0.948 . S
C680 C679 1.391 . S
C680 C681 1.391 . S
C681 C680 1.391 . S
C681 C682 1.392 . S
C681 H710 0.947 . S
C682 C681 1.392 . S
C682 C683 1.419 . S
C682 H711 0.948 . S
C683 C682 1.419 . S
C683 C684 1.391 . S
C683 C687 1.397 . S
C684 C679 1.391 . S
C684 C683 1.391 . S
C684 C685 1.399 . S
C685 C684 1.399 . S
C685 C686 1.396 . S
C685 C688 1.453 . S
C685 C689 1.684 . S
C686 C667 1.723 . S
C686 C685 1.396 . S
C686 C687 1.394 . S
C687 C683 1.397 . S
C687 C686 1.394 . S
C687 C697 1.723 . S
C688 C685 1.453 . S
C688 H712 0.982 . S
C688 H713 0.979 . S
C688 H714 0.977 . S
C689 C685 1.684 . S
C689 H715 0.979 . S
C689 H716 0.980 . S
C689 H717 0.983 . S
C690 H666 0.948 . S
C690 C691 1.391 . S
C690 C695 1.391 . S
C691 C690 1.391 . S
C691 C692 1.391 . S
C692 H669 0.947 . S
C692 C691 1.391 . S
C692 C693 1.392 . S
C693 H670 0.948 . S
C693 C692 1.392 . S
C693 C694 1.419 . S
C694 C693 1.419 . S
C694 C695 1.391 . S
C694 C698 1.397 . S
C695 C690 1.391 . S
C695 C694 1.391 . S
C695 C696 1.399 . S
C696 C695 1.399 . S
C696 C697 1.396 . S
C696 C699 1.453 . S
C696 C700 1.684 . S
C697 C687 1.723 . S
C697 C696 1.396 . S
C697 C698 1.394 . S
C698 C668 1.723 . S
C698 C694 1.397 . S
C698 C697 1.394 . S
C699 H671 0.982 . S
C699 H675 0.979 . S
C699 H676 0.977 . S
C699 C696 1.453 . S
C700 H672 0.979 . S
C700 H673 0.980 . S
C700 H674 0.983 . S
C700 C696 1.684 . S
H701 C719 0.948 . S
H702 C660 0.948 . S
H703 C678 0.979 . S
H704 C678 0.980 . S
H705 C678 0.983 . S
H706 C677 0.982 . S
H707 C677 0.979 . S
H708 C677 0.977 . S
H709 C679 0.948 . S
H710 C681 0.947 . S
H711 C682 0.948 . S
H712 C688 0.982 . S
H713 C688 0.979 . S
H714 C688 0.977 . S
H715 C689 0.979 . S
H716 C689 0.980 . S
H717 C689 0.983 . S
H718 C662 0.947 . S
C719 C662 1.392 . S
C719 C663 1.419 . S
C719 H701 0.948 . S
C720 C721 1.391 . S
C720 C724 1.391 . S
C720 H762 0.948 . S
C721 C720 1.391 . S
C721 C722 1.391 . S
C722 C721 1.391 . S
C722 H778 0.947 . S
C722 C779 1.392 . S
C723 C724 1.391 . S
C723 C727 1.397 . S
C723 C779 1.419 . S
C724 C720 1.391 . S
C724 C723 1.391 . S
C724 C725 1.399 . S
C725 C724 1.399 . S
C725 C728 1.396 . S
C725 C737 1.453 . S
C725 C738 1.684 . S
H726 C750 0.948 . S
C727 C723 1.397 . S
C727 C728 1.394 . S
C727 C746 1.723 . S
C728 C725 1.396 . S
C728 C727 1.394 . S
C728 C758 1.723 . S
H729 C752 0.947 . S
H730 C753 0.948 . S
H731 C759 0.982 . S
H732 C760 0.979 . S
H733 C760 0.980 . S
H734 C760 0.983 . S
H735 C759 0.979 . S
H736 C759 0.977 . S
C737 C725 1.453 . S
C737 H766 0.982 . S
C737 H767 0.979 . S
C737 H768 0.977 . S
C738 C725 1.684 . S
C738 H763 0.979 . S
C738 H764 0.980 . S
C738 H765 0.983 . S
C739 C740 1.391 . S
C739 C744 1.391 . S
C739 H769 0.948 . S
C740 C739 1.391 . S
C740 C741 1.391 . S
C741 C740 1.391 . S
C741 C742 1.392 . S
C741 H770 0.947 . S
C742 C741 1.392 . S
C742 C743 1.419 . S
C742 H771 0.948 . S
C743 C742 1.419 . S
C743 C744 1.391 . S
C743 C747 1.397 . S
C744 C739 1.391 . S
C744 C743 1.391 . S
C744 C745 1.399 . S
C745 C744 1.399 . S
C745 C746 1.396 . S
C745 C748 1.453 . S
C745 C749 1.684 . S
C746 C727 1.723 . S
C746 C745 1.396 . S
C746 C747 1.394 . S
C747 C743 1.397 . S
C747 C746 1.394 . S
C747 C757 1.723 . S
C748 C745 1.453 . S
C748 H772 0.982 . S
C748 H773 0.979 . S
C748 H774 0.977 . S
C749 C745 1.684 . S
C749 H775 0.979 . S
C749 H776 0.980 . S
C749 H777 0.983 . S
C750 H726 0.948 . S
C750 C751 1.391 . S
C750 C755 1.391 . S
C751 C750 1.391 . S
C751 C752 1.391 . S
C752 H729 0.947 . S
C752 C751 1.391 . S
C752 C753 1.392 . S
C753 H730 0.948 . S
C753 C752 1.392 . S
C753 C754 1.419 . S
C754 C753 1.419 . S
C754 C755 1.391 . S
C754 C758 1.397 . S
C755 C750 1.391 . S
C755 C754 1.391 . S
C755 C756 1.399 . S
C756 C755 1.399 . S
C756 C757 1.396 . S
C756 C759 1.453 . S
C756 C760 1.684 . S
C757 C747 1.723 . S
C757 C756 1.396 . S
C757 C758 1.394 . S
C758 C728 1.723 . S
C758 C754 1.397 . S
C758 C757 1.394 . S
C759 H731 0.982 . S
C759 H735 0.979 . S
C759 H736 0.977 . S
C759 C756 1.453 . S
C760 H732 0.979 . S
C760 H733 0.980 . S
C760 H734 0.983 . S
C760 C756 1.684 . S
H761 C779 0.948 . S
H762 C720 0.948 . S
H763 C738 0.979 . S
H764 C738 0.980 . S
H765 C738 0.983 . S
H766 C737 0.982 . S
H767 C737 0.979 . S
H768 C737 0.977 . S
H769 C739 0.948 . S
H770 C741 0.947 . S
H771 C742 0.948 . S
H772 C748 0.982 . S
H773 C748 0.979 . S
H774 C748 0.977 . S
H775 C749 0.979 . S
H776 C749 0.980 . S
H777 C749 0.983 . S
H778 C722 0.947 . S
C779 C722 1.392 . S
C779 C723 1.419 . S
C779 H761 0.948 . S
C780 C781 1.391 . S
C780 C784 1.391 . S
C780 H822 0.948 . S
C781 C780 1.391 . S
C781 C782 1.391 . S
C782 C781 1.391 . S
C782 H838 0.947 . S
C782 C839 1.392 . S
C783 C784 1.391 . S
C783 C787 1.397 . S
C783 C839 1.419 . S
C784 C780 1.391 . S
C784 C783 1.391 . S
C784 C785 1.399 . S
C785 C784 1.399 . S
C785 C788 1.396 . S
C785 C797 1.453 . S
C785 C798 1.684 . S
H786 C810 0.948 . S
C787 C783 1.397 . S
C787 C788 1.394 . S
C787 C806 1.723 . S
C788 C785 1.396 . S
C788 C787 1.394 . S
C788 C818 1.723 . S
H789 C812 0.947 . S
H790 C813 0.948 . S
H791 C819 0.982 . S
H792 C820 0.979 . S
H793 C820 0.980 . S
H794 C820 0.983 . S
H795 C819 0.979 . S
H796 C819 0.977 . S
C797 C785 1.453 . S
C797 H826 0.982 . S
C797 H827 0.979 . S
C797 H828 0.977 . S
C798 C785 1.684 . S
C798 H823 0.979 . S
C798 H824 0.980 . S
C798 H825 0.983 . S
C799 C800 1.391 . S
C799 C804 1.391 . S
C799 H829 0.948 . S
C800 C799 1.391 . S
C800 C801 1.391 . S
C801 C800 1.391 . S
C801 C802 1.392 . S
C801 H830 0.947 . S
C802 C801 1.392 . S
C802 C803 1.419 . S
C802 H831 0.948 . S
C803 C802 1.419 . S
C803 C804 1.391 . S
C803 C807 1.397 . S
C804 C799 1.391 . S
C804 C803 1.391 . S
C804 C805 1.399 . S
C805 C804 1.399 . S
C805 C806 1.396 . S
C805 C808 1.453 . S
C805 C809 1.684 . S
C806 C787 1.723 . S
C806 C805 1.396 . S
C806 C807 1.394 . S
C807 C803 1.397 . S
C807 C806 1.394 . S
C807 C817 1.723 . S
C808 C805 1.453 . S
C808 H832 0.982 . S
C808 H833 0.979 . S
C808 H834 0.977 . S
C809 C805 1.684 . S
C809 H835 0.979 . S
C809 H836 0.980 . S
C809 H837 0.983 . S
C810 H786 0.948 . S
C810 C811 1.391 . S
C810 C815 1.391 . S
C811 C810 1.391 . S
C811 C812 1.391 . S
C812 H789 0.947 . S
C812 C811 1.391 . S
C812 C813 1.392 . S
C813 H790 0.948 . S
C813 C812 1.392 . S
C813 C814 1.419 . S
C814 C813 1.419 . S
C814 C815 1.391 . S
C814 C818 1.397 . S
C815 C810 1.391 . S
C815 C814 1.391 . S
C815 C816 1.399 . S
C816 C815 1.399 . S
C816 C817 1.396 . S
C816 C819 1.453 . S
C816 C820 1.684 . S
C817 C807 1.723 . S
C817 C816 1.396 . S
C817 C818 1.394 . S
C818 C788 1.723 . S
C818 C814 1.397 . S
C818 C817 1.394 . S
C819 H791 0.982 . S
C819 H795 0.979 . S
C819 H796 0.977 . S
C819 C816 1.453 . S
C820 H792 0.979 . S
C820 H793 0.980 . S
C820 H794 0.983 . S
C820 C816 1.684 . S
H821 C839 0.948 . S
H822 C780 0.948 . S
H823 C798 0.979 . S
H824 C798 0.980 . S
H825 C798 0.983 . S
H826 C797 0.982 . S
H827 C797 0.979 . S
H828 C797 0.977 . S
H829 C799 0.948 . S
H830 C801 0.947 . S
H831 C802 0.948 . S
H832 C808 0.982 . S
H833 C808 0.979 . S
H834 C808 0.977 . S
H835 C809 0.979 . S
H836 C809 0.980 . S
H837 C809 0.983 . S
H838 C782 0.947 . S
C839 C782 1.392 . S
C839 C783 1.419 . S
C839 H821 0.948 . S
C840 C841 1.391 . S
C840 C844 1.391 . S
C840 H882 0.948 . S
C841 C840 1.391 . S
C841 C842 1.391 . S
C842 C841 1.391 . S
C842 H898 0.947 . S
C842 C899 1.392 . S
C843 C844 1.391 . S
C843 C847 1.397 . S
C843 C899 1.419 . S
C844 C840 1.391 . S
C844 C843 1.391 . S
C844 C845 1.399 . S
C845 C844 1.399 . S
C845 C848 1.396 . S
C845 C857 1.453 . S
C845 C858 1.684 . S
H846 C870 0.948 . S
C847 C843 1.397 . S
C847 C848 1.394 . S
C847 C866 1.723 . S
C848 C845 1.396 . S
C848 C847 1.394 . S
C848 C878 1.723 . S
H849 C872 0.947 . S
H850 C873 0.948 . S
H851 C879 0.982 . S
H852 C880 0.979 . S
H853 C880 0.980 . S
H854 C880 0.983 . S
H855 C879 0.979 . S
H856 C879 0.977 . S
C857 C845 1.453 . S
C857 H886 0.982 . S
C857 H887 0.979 . S
C857 H888 0.977 . S
C858 C845 1.684 . S
C858 H883 0.979 . S
C858 H884 0.980 . S
C858 H885 0.983 . S
C859 C860 1.391 . S
C859 C864 1.391 . S
C859 H889 0.948 . S
C860 C859 1.391 . S
C860 C861 1.391 . S
C861 C860 1.391 . S
C861 C862 1.392 . S
C861 H890 0.947 . S
C862 C861 1.392 . S
C862 C863 1.419 . S
C862 H891 0.948 . S
C863 C862 1.419 . S
C863 C864 1.391 . S
C863 C867 1.397 . S
C864 C859 1.391 . S
C864 C863 1.391 . S
C864 C865 1.399 . S
C865 C864 1.399 . S
C865 C866 1.396 . S
C865 C868 1.453 . S
C865 C869 1.684 . S
C866 C847 1.723 . S
C866 C865 1.396 . S
C866 C867 1.394 . S
C867 C863 1.397 . S
C867 C866 1.394 . S
C867 C877 1.723 . S
C868 C865 1.453 . S
C868 H892 0.982 . S
C868 H893 0.979 . S
C868 H894 0.977 . S
C869 C865 1.684 . S
C869 H895 0.979 . S
C869 H896 0.980 . S
C869 H897 0.983 . S
C870 H846 0.948 . S
C870 C871 1.391 . S
C870 C875 1.391 . S
C871 C870 1.391 . S
C871 C872 1.391 . S
C872 H849 0.947 . S
C872 C871 1.391 . S
C872 C873 1.392 . S
C873 H850 0.948 . S
C873 C872 1.392 . S
C873 C874 1.419 . S
C874 C873 1.419 . S
C874 C875 1.391 . S
C874 C878 1.397 . S
C875 C870 1.391 . S
C875 C874 1.391 . S
C875 C876 1.399 . S
C876 C875 1.399 . S
C876 C877 1.396 . S
C876 C879 1.453 . S
C876 C880 1.684 . S
C877 C867 1.723 . S
C877 C876 1.396 . S
C877 C878 1.394 . S
C878 C848 1.723 . S
C878 C874 1.397 . S
C878 C877 1.394 . S
C879 H851 0.982 . S
C879 H855 0.979 . S
C879 H856 0.977 . S
C879 C876 1.453 . S
C880 H852 0.979 . S
C880 H853 0.980 . S
C880 H854 0.983 . S
C880 C876 1.684 . S
H881 C899 0.948 . S
H882 C840 0.948 . S
H883 C858 0.979 . S
H884 C858 0.980 . S
H885 C858 0.983 . S
H886 C857 0.982 . S
H887 C857 0.979 . S
H888 C857 0.977 . S
H889 C859 0.948 . S
H890 C861 0.947 . S
H891 C862 0.948 . S
H892 C868 0.982 . S
H893 C868 0.979 . S
H894 C868 0.977 . S
H895 C869 0.979 . S
H896 C869 0.980 . S
H897 C869 0.983 . S
H898 C842 0.947 . S
C899 C842 1.392 . S
C899 C843 1.419 . S
C899 H881 0.948 . S
C900 C901 1.391 . S
C900 C904 1.391 . S
C900 H942 0.948 . S
C901 C900 1.391 . S
C901 C902 1.391 . S
C902 C901 1.391 . S
C902 H958 0.947 . S
C902 C959 1.392 . S
C903 C904 1.391 . S
C903 C907 1.397 . S
C903 C959 1.419 . S
C904 C900 1.391 . S
C904 C903 1.391 . S
C904 C905 1.399 . S
C905 C904 1.399 . S
C905 C908 1.396 . S
C905 C917 1.453 . S
C905 C918 1.684 . S
H906 C930 0.948 . S
C907 C903 1.397 . S
C907 C908 1.394 . S
C907 C926 1.723 . S
C908 C905 1.396 . S
C908 C907 1.394 . S
C908 C938 1.723 . S
H909 C932 0.947 . S
H910 C933 0.948 . S
H911 C939 0.982 . S
H912 C940 0.979 . S
H913 C940 0.980 . S
H914 C940 0.983 . S
H915 C939 0.979 . S
H916 C939 0.977 . S
C917 C905 1.453 . S
C917 H946 0.982 . S
C917 H947 0.979 . S
C917 H948 0.977 . S
C918 C905 1.684 . S
C918 H943 0.979 . S
C918 H944 0.980 . S
C918 H945 0.983 . S
C919 C920 1.391 . S
C919 C924 1.391 . S
C919 H949 0.948 . S
C920 C919 1.391 . S
C920 C921 1.391 . S
C921 C920 1.391 . S
C921 C922 1.392 . S
C921 H950 0.947 . S
C922 C921 1.392 . S
C922 C923 1.419 . S
C922 H951 0.948 . S
C923 C922 1.419 . S
C923 C924 1.391 . S
C923 C927 1.397 . S
C924 C919 1.391 . S
C924 C923 1.391 . S
C924 C925 1.399 . S
C925 C924 1.399 . S
C925 C926 1.396 . S
C925 C928 1.453 . S
C925 C929 1.684 . S
C926 C907 1.723 . S
C926 C925 1.396 . S
C926 C927 1.394 . S
C927 C923 1.397 . S
C927 C926 1.394 . S
C927 C937 1.723 . S
C928 C925 1.453 . S
C928 H952 0.982 . S
C928 H953 0.979 . S
C928 H954 0.977 . S
C929 C925 1.684 . S
C929 H955 0.979 . S
C929 H956 0.980 . S
C929 H957 0.983 . S
C930 H906 0.948 . S
C930 C931 1.391 . S
C930 C935 1.391 . S
C931 C930 1.391 . S
C931 C932 1.391 . S
C932 H909 0.947 . S
C932 C931 1.391 . S
C932 C933 1.392 . S
C933 H910 0.948 . S
C933 C932 1.392 . S
C933 C934 1.419 . S
C934 C933 1.419 . S
C934 C935 1.391 . S
C934 C938 1.397 . S
C935 C930 1.391 . S
C935 C934 1.391 . S
C935 C936 1.399 . S
C936 C935 1.399 . S
C936 C937 1.396 . S
C936 C939 1.453 . S
C936 C940 1.684 . S
C937 C927 1.723 . S
C937 C936 1.396 . S
C937 C938 1.394 . S
C938 C908 1.723 . S
C938 C934 1.397 . S
C938 C937 1.394 . S
C939 H911 0.982 . S
C939 H915 0.979 . S
C939 H916 0.977 . S
C939 C936 1.453 . S
C940 H912 0.979 . S
C940 H913 0.980 . S
C940 H914 0.983 . S
C940 C936 1.684 . S
H941 C959 0.948 . S
H942 C900 0.948 . S
H943 C918 0.979 . S
H944 C918 0.980 . S
H945 C918 0.983 . S
H946 C917 0.982 . S
H947 C917 0.979 . S
H948 C917 0.977 . S
H949 C919 0.948 . S
H950 C921 0.947 . S
H951 C922 0.948 . S
H952 C928 0.982 . S
H953 C928 0.979 . S
H954 C928 0.977 . S
H955 C929 0.979 . S
H956 C929 0.980 . S
H957 C929 0.983 . S
H958 C902 0.947 . S
C959 C902 1.392 . S
C959 C903 1.419 . S
C959 H941 0.948 . S
C960 C961 1.391 . S
C960 C964 1.391 . S
C960 H1002 0.948 . S
C961 C960 1.391 . S
C961 C962 1.391 . S
C962 C961 1.391 . S
C962 H1018 0.947 . S
C962 C1019 1.392 . S
C963 C964 1.391 . S
C963 C967 1.397 . S
C963 C1019 1.419 . S
C964 C960 1.391 . S
C964 C963 1.391 . S
C964 C965 1.399 . S
C965 C964 1.399 . S
C965 C968 1.396 . S
C965 C977 1.453 . S
C965 C978 1.684 . S
H966 C990 0.948 . S
C967 C963 1.397 . S
C967 C968 1.394 . S
C967 C986 1.723 . S
C968 C965 1.396 . S
C968 C967 1.394 . S
C968 C998 1.723 . S
H969 C992 0.947 . S
H970 C993 0.948 . S
H971 C999 0.982 . S
H972 C1000 0.979 1_655 S
H973 C1000 0.980 . S
H974 C1000 0.983 . S
H975 C999 0.979 . S
H976 C999 0.977 . S
C977 C965 1.453 . S
C977 H1006 0.982 . S
C977 H1007 0.979 . S
C977 H1008 0.977 . S
C978 C965 1.684 . S
C978 H1003 0.979 . S
C978 H1004 0.980 . S
C978 H1005 0.983 . S
C979 C980 1.391 . S
C979 C984 1.391 . S
C979 H1009 0.948 . S
C980 C979 1.391 . S
C980 C981 1.391 . S
C981 C980 1.391 . S
C981 C982 1.392 . S
C981 H1010 0.947 . S
C982 C981 1.392 . S
C982 C983 1.419 . S
C982 H1011 0.948 . S
C983 C982 1.419 . S
C983 C984 1.391 . S
C983 C987 1.397 . S
C984 C979 1.391 . S
C984 C983 1.391 . S
C984 C985 1.399 . S
C985 C984 1.399 . S
C985 C986 1.396 . S
C985 C988 1.453 . S
C985 C989 1.684 . S
C986 C967 1.723 . S
C986 C985 1.396 . S
C986 C987 1.394 . S
C987 C983 1.397 . S
C987 C986 1.394 . S
C987 C997 1.723 . S
C988 C985 1.453 . S
C988 H1012 0.982 . S
C988 H1013 0.979 . S
C988 H1014 0.977 . S
C989 C985 1.684 . S
C989 H1015 0.979 1_455 S
C989 H1016 0.980 . S
C989 H1017 0.983 . S
C990 H966 0.948 . S
C990 C991 1.391 . S
C990 C995 1.391 . S
C991 C990 1.391 . S
C991 C992 1.391 . S
C992 H969 0.947 . S
C992 C991 1.391 . S
C992 C993 1.392 . S
C993 H970 0.948 . S
C993 C992 1.392 . S
C993 C994 1.419 . S
C994 C993 1.419 . S
C994 C995 1.391 . S
C994 C998 1.397 . S
C995 C990 1.391 . S
C995 C994 1.391 . S
C995 C996 1.399 . S
C996 C995 1.399 . S
C996 C997 1.396 . S
C996 C999 1.453 . S
C996 C1000 1.684 . S
C997 C987 1.723 . S
C997 C996 1.396 . S
C997 C998 1.394 . S
C998 C968 1.723 . S
C998 C994 1.397 . S
C998 C997 1.394 . S
C999 H971 0.982 . S
C999 H975 0.979 . S
C999 H976 0.977 . S
C999 C996 1.453 . S
C1000 H972 0.979 1_455 S
C1000 H973 0.980 . S
C1000 H974 0.983 . S
C1000 C996 1.684 . S
H1001 C1019 0.948 . S
H1002 C960 0.948 . S
H1003 C978 0.979 . S
H1004 C978 0.980 . S
H1005 C978 0.983 . S
H1006 C977 0.982 . S
H1007 C977 0.979 . S
H1008 C977 0.977 . S
H1009 C979 0.948 . S
H1010 C981 0.947 . S
H1011 C982 0.948 . S
H1012 C988 0.982 . S
H1013 C988 0.979 . S
H1014 C988 0.977 . S
H1015 C989 0.979 1_655 S
H1016 C989 0.980 . S
H1017 C989 0.983 . S
H1018 C962 0.947 . S
C1019 C962 1.392 . S
C1019 C963 1.419 . S
C1019 H1001 0.948 . S
C1020 C1021 1.391 . S
C1020 C1024 1.391 . S
C1020 H1062 0.948 . S
C1021 C1020 1.391 . S
C1021 C1022 1.391 . S
C1022 C1021 1.391 . S
C1022 H1078 0.947 . S
C1022 C1079 1.392 . S
C1023 C1024 1.391 . S
C1023 C1027 1.397 . S
C1023 C1079 1.419 . S
C1024 C1020 1.391 . S
C1024 C1023 1.391 . S
C1024 C1025 1.399 . S
C1025 C1024 1.399 . S
C1025 C1028 1.396 . S
C1025 C1037 1.453 . S
C1025 C1038 1.684 . S
H1026 C1050 0.948 . S
C1027 C1023 1.397 . S
C1027 C1028 1.394 . S
C1027 C1046 1.723 . S
C1028 C1025 1.396 . S
C1028 C1027 1.394 . S
C1028 C1058 1.723 . S
H1029 C1052 0.947 . S
H1030 C1053 0.948 . S
H1031 C1059 0.982 . S
H1032 C1060 0.979 . S
H1033 C1060 0.980 . S
H1034 C1060 0.983 . S
H1035 C1059 0.979 . S
H1036 C1059 0.977 . S
C1037 C1025 1.453 . S
C1037 H1066 0.982 . S
C1037 H1067 0.979 . S
C1037 H1068 0.977 . S
C1038 C1025 1.684 . S
C1038 H1063 0.979 . S
C1038 H1064 0.980 . S
C1038 H1065 0.983 . S
C1039 C1040 1.391 . S
C1039 C1044 1.391 . S
C1039 H1069 0.948 . S
C1040 C1039 1.391 . S
C1040 C1041 1.391 . S
C1041 C1040 1.391 . S
C1041 C1042 1.392 . S
C1041 H1070 0.947 . S
C1042 C1041 1.392 . S
C1042 C1043 1.419 . S
C1042 H1071 0.948 . S
C1043 C1042 1.419 . S
C1043 C1044 1.391 . S
C1043 C1047 1.397 . S
C1044 C1039 1.391 . S
C1044 C1043 1.391 . S
C1044 C1045 1.399 . S
C1045 C1044 1.399 . S
C1045 C1046 1.396 . S
C1045 C1048 1.453 . S
C1045 C1049 1.684 . S
C1046 C1027 1.723 . S
C1046 C1045 1.396 . S
C1046 C1047 1.394 . S
C1047 C1043 1.397 . S
C1047 C1046 1.394 . S
C1047 C1057 1.723 . S
C1048 C1045 1.453 . S
C1048 H1072 0.982 . S
C1048 H1073 0.979 . S
C1048 H1074 0.977 . S
C1049 C1045 1.684 . S
C1049 H1075 0.979 . S
C1049 H1076 0.980 . S
C1049 H1077 0.983 . S
C1050 H1026 0.948 . S
C1050 C1051 1.391 . S
C1050 C1055 1.391 . S
C1051 C1050 1.391 . S
C1051 C1052 1.391 . S
C1052 H1029 0.947 . S
C1052 C1051 1.391 . S
C1052 C1053 1.392 . S
C1053 H1030 0.948 . S
C1053 C1052 1.392 . S
C1053 C1054 1.419 . S
C1054 C1053 1.419 . S
C1054 C1055 1.391 . S
C1054 C1058 1.397 . S
C1055 C1050 1.391 . S
C1055 C1054 1.391 . S
C1055 C1056 1.399 . S
C1056 C1055 1.399 . S
C1056 C1057 1.396 . S
C1056 C1059 1.453 . S
C1056 C1060 1.684 . S
C1057 C1047 1.723 . S
C1057 C1056 1.396 . S
C1057 C1058 1.394 . S
C1058 C1028 1.723 . S
C1058 C1054 1.397 . S
C1058 C1057 1.394 . S
C1059 H1031 0.982 . S
C1059 H1035 0.979 . S
C1059 H1036 0.977 . S
C1059 C1056 1.453 . S
C1060 H1032 0.979 . S
C1060 H1033 0.980 . S
C1060 H1034 0.983 . S
C1060 C1056 1.684 . S
H1061 C1079 0.948 . S
H1062 C1020 0.948 . S
H1063 C1038 0.979 . S
H1064 C1038 0.980 . S
H1065 C1038 0.983 . S
H1066 C1037 0.982 . S
H1067 C1037 0.979 . S
H1068 C1037 0.977 . S
H1069 C1039 0.948 . S
H1070 C1041 0.947 . S
H1071 C1042 0.948 . S
H1072 C1048 0.982 . S
H1073 C1048 0.979 . S
H1074 C1048 0.977 . S
H1075 C1049 0.979 . S
H1076 C1049 0.980 . S
H1077 C1049 0.983 . S
H1078 C1022 0.947 . S
C1079 C1022 1.392 . S
C1079 C1023 1.419 . S
C1079 H1061 0.948 . S
Eu1080 C1089 2.828 . S
Eu1080 O1091 2.392 . S
Eu1080 O1093 2.418 . S
Eu1080 O1098 2.373 1_565 S
Eu1080 O1101 2.488 . S
Eu1080 O1102 2.455 1_565 S
Eu1080 O1103 2.349 1_565 S
Eu1081 O1090 2.373 1_545 S
Eu1081 O1094 2.488 . S
Eu1081 O1095 2.461 1_545 S
Eu1081 O1096 2.349 1_545 S
Eu1081 O1099 2.392 . S
Eu1081 O1100 2.418 . S
Eu1081 C1110 2.828 . S
C1082 O1100 1.244 1_556 S
C1082 O1103 1.265 . S
C1083 C1084 1.379 1_565 S
C1083 C1087 1.373 . S
C1083 C1089 1.505 . S
C1084 C1083 1.379 1_545 S
C1084 C1086 1.369 . S
C1084 H1112 0.930 . S
C1085 C1087 1.383 . S
C1085 C1088 1.382 1_565 S
C1085 H1113 0.930 . S
C1086 C1084 1.369 . S
C1086 C1088 1.392 . S
C1086 H1114 0.930 . S
C1087 C1083 1.373 . S
C1087 C1085 1.383 . S
C1087 H1115 0.931 . S
C1088 C1085 1.382 1_545 S
C1088 C1086 1.392 . S
C1089 Eu1080 2.828 . S
C1089 C1083 1.505 . S
C1089 O1101 1.249 . S
C1089 O1102 1.220 1_565 S
O1090 Eu1081 2.373 1_565 S
O1090 C1092 1.258 . S
O1091 Eu1080 2.392 . S
O1091 C1092 1.242 1_556 S
C1092 O1090 1.258 . S
C1092 O1091 1.242 1_554 S
O1093 Eu1080 2.418 . S
O1093 C1097 1.244 1_556 S
O1094 Eu1081 2.488 . S
O1094 C1110 1.249 . S
O1095 Eu1081 2.461 1_565 S
O1095 C1110 1.229 1_565 S
O1096 Eu1081 2.349 1_565 S
O1096 C1097 1.265 . S
C1097 O1093 1.244 1_554 S
C1097 O1096 1.265 . S
O1098 Eu1080 2.373 1_545 S
O1098 C1111 1.258 . S
O1099 Eu1081 2.392 . S
O1099 C1111 1.242 1_554 S
O1100 Eu1081 2.418 . S
O1100 C1082 1.244 1_554 S
O1101 Eu1080 2.488 . S
O1101 C1089 1.249 . S
O1102 Eu1080 2.455 1_545 S
O1102 C1089 1.220 1_545 S
O1103 Eu1080 2.349 1_545 S
O1103 C1082 1.265 . S
C1104 C1105 1.379 1_545 S
C1104 C1108 1.373 . S
C1104 C1110 1.505 . S
C1105 C1104 1.379 1_565 S
C1105 C1107 1.369 . S
C1105 H1116 0.930 . S
C1106 C1108 1.383 . S
C1106 C1109 1.382 1_545 S
C1106 H1117 0.930 . S
C1107 C1105 1.369 . S
C1107 C1109 1.392 . S
C1107 H1118 0.930 . S
C1108 C1104 1.373 . S
C1108 C1106 1.383 . S
C1108 H1119 0.931 . S
C1109 C1106 1.382 1_565 S
C1109 C1107 1.392 . S
C1110 Eu1081 2.828 . S
C1110 O1094 1.249 . S
C1110 O1095 1.229 1_545 S
C1110 C1104 1.505 . S
C1111 O1098 1.258 . S
C1111 O1099 1.242 1_556 S
H1112 C1084 0.930 . S
H1113 C1085 0.930 . S
H1114 C1086 0.930 . S
H1115 C1087 0.931 . S
H1116 C1105 0.930 . S
H1117 C1106 0.930 . S
H1118 C1107 0.930 . S
H1119 C1108 0.931 . S
Eu1120 C1129 2.828 . S
Eu1120 O1131 2.392 1_556 S
Eu1120 O1133 2.418 . S
Eu1120 O1138 2.373 1_455 S
Eu1120 O1141 2.488 . S
Eu1120 O1142 2.471 1_455 S
Eu1120 O1143 2.349 1_455 S
Eu1121 O1130 2.373 1_655 S
Eu1121 O1134 2.488 . S
Eu1121 O1135 2.471 1_655 S
Eu1121 O1136 2.349 1_655 S
Eu1121 O1139 2.392 1_554 S
Eu1121 O1140 2.418 . S
Eu1121 C1150 2.828 . S
C1122 O1140 1.244 1_556 S
C1122 O1143 1.265 . S
C1123 C1124 1.379 1_455 S
C1123 C1127 1.373 . S
C1123 C1129 1.505 . S
C1124 C1123 1.379 1_655 S
C1124 C1126 1.369 . S
C1124 H1152 0.930 . S
C1125 C1127 1.383 . S
C1125 C1128 1.382 1_455 S
C1125 H1153 0.930 . S
C1126 C1124 1.369 . S
C1126 C1128 1.392 . S
C1126 H1154 0.930 . S
C1127 C1123 1.373 . S
C1127 C1125 1.383 . S
C1127 H1155 0.931 . S
C1128 C1125 1.382 1_655 S
C1128 C1126 1.392 . S
C1129 Eu1120 2.828 . S
C1129 C1123 1.505 . S
C1129 O1141 1.249 . S
C1129 O1142 1.244 1_455 S
O1130 Eu1121 2.373 1_455 S
O1130 C1132 1.258 . S
O1131 Eu1120 2.392 1_554 S
O1131 C1132 1.242 . S
C1132 O1130 1.258 . S
C1132 O1131 1.242 . S
O1133 Eu1120 2.418 . S
O1133 C1137 1.244 1_556 S
O1134 Eu1121 2.488 . S
O1134 C1150 1.249 . S
O1135 Eu1121 2.471 1_455 S
O1135 C1150 1.244 1_455 S
O1136 Eu1121 2.349 1_455 S
O1136 C1137 1.265 . S
C1137 O1133 1.244 1_554 S
C1137 O1136 1.265 . S
O1138 Eu1120 2.373 1_655 S
O1138 C1151 1.258 . S
O1139 Eu1121 2.392 1_556 S
O1139 C1151 1.242 . S
O1140 Eu1121 2.418 . S
O1140 C1122 1.244 1_554 S
O1141 Eu1120 2.488 . S
O1141 C1129 1.249 . S
O1142 Eu1120 2.471 1_655 S
O1142 C1129 1.244 1_655 S
O1143 Eu1120 2.349 1_655 S
O1143 C1122 1.265 . S
C1144 C1145 1.379 1_655 S
C1144 C1148 1.373 . S
C1144 C1150 1.505 . S
C1145 C1144 1.379 1_455 S
C1145 C1147 1.369 . S
C1145 H1156 0.930 . S
C1146 C1148 1.383 . S
C1146 C1149 1.382 1_655 S
C1146 H1157 0.930 . S
C1147 C1145 1.369 . S
C1147 C1149 1.392 . S
C1147 H1158 0.930 . S
C1148 C1144 1.373 . S
C1148 C1146 1.383 . S
C1148 H1159 0.931 . S
C1149 C1146 1.382 1_455 S
C1149 C1147 1.392 . S
C1150 Eu1121 2.828 . S
C1150 O1134 1.249 . S
C1150 O1135 1.244 1_655 S
C1150 C1144 1.505 . S
C1151 O1138 1.258 . S
C1151 O1139 1.242 . S
H1152 C1124 0.930 . S
H1153 C1125 0.930 . S
H1154 C1126 0.930 . S
H1155 C1127 0.931 . S
H1156 C1145 0.930 . S
H1157 C1146 0.930 . S
H1158 C1147 0.930 . S
H1159 C1148 0.931 . S
Eu1160 C1169 2.828 . S
Eu1160 O1171 2.415 . S
Eu1160 O1173 2.418 . S
Eu1160 O1178 2.373 . S
Eu1160 O1181 2.488 . S
Eu1160 O1182 2.471 . S
Eu1160 O1183 2.349 . S
Eu1161 O1170 2.373 . S
Eu1161 O1174 2.488 . S
Eu1161 O1175 2.471 . S
Eu1161 O1176 2.349 . S
Eu1161 O1179 2.392 1_556 S
Eu1161 O1180 2.418 . S
Eu1161 C1190 2.828 . S
C1162 O1180 1.244 1_554 S
C1162 O1183 1.265 . S
C1163 C1164 1.379 . S
C1163 C1167 1.373 . S
C1163 C1169 1.505 . S
C1164 C1163 1.379 . S
C1164 C1166 1.369 . S
C1164 H1192 0.930 . S
C1165 C1167 1.383 . S
C1165 C1168 1.382 . S
C1165 H1193 0.930 . S
C1166 C1164 1.369 . S
C1166 C1168 1.392 . S
C1166 H1194 0.930 . S
C1167 C1163 1.373 . S
C1167 C1165 1.383 . S
C1167 H1195 0.931 . S
C1168 C1165 1.382 . S
C1168 C1166 1.392 . S
C1169 Eu1160 2.828 . S
C1169 C1163 1.505 . S
C1169 O1181 1.249 . S
C1169 O1182 1.244 . S
O1170 Eu1161 2.373 . S
O1170 C1172 1.258 . S
O1171 Eu1160 2.415 . S
O1171 C1172 1.216 1_554 S
C1172 O1170 1.258 . S
C1172 O1171 1.216 1_556 S
O1173 Eu1160 2.418 . S
O1173 C1177 1.244 1_554 S
O1174 Eu1161 2.488 . S
O1174 C1190 1.249 . S
O1175 Eu1161 2.471 . S
O1175 C1190 1.244 . S
O1176 Eu1161 2.349 . S
O1176 C1177 1.265 . S
C1177 O1173 1.244 1_556 S
C1177 O1176 1.265 . S
O1178 Eu1160 2.373 . S
O1178 C1191 1.258 . S
O1179 Eu1161 2.392 1_554 S
O1179 C1191 1.242 . S
O1180 Eu1161 2.418 . S
O1180 C1162 1.244 1_556 S
O1181 Eu1160 2.488 . S
O1181 C1169 1.249 . S
O1182 Eu1160 2.471 . S
O1182 C1169 1.244 . S
O1183 Eu1160 2.349 . S
O1183 C1162 1.265 . S
C1184 C1185 1.379 . S
C1184 C1188 1.373 . S
C1184 C1190 1.505 . S
C1185 C1184 1.379 . S
C1185 C1187 1.369 . S
C1185 H1196 0.930 . S
C1186 C1188 1.383 . S
C1186 C1189 1.382 . S
C1186 H1197 0.930 . S
C1187 C1185 1.369 . S
C1187 C1189 1.392 . S
C1187 H1198 0.930 . S
C1188 C1184 1.373 . S
C1188 C1186 1.383 . S
C1188 H1199 0.931 . S
C1189 C1186 1.382 . S
C1189 C1187 1.392 . S
C1190 Eu1161 2.828 . S
C1190 O1174 1.249 . S
C1190 O1175 1.244 . S
C1190 C1184 1.505 . S
C1191 O1178 1.258 . S
C1191 O1179 1.242 . S
H1192 C1164 0.930 . S
H1193 C1165 0.930 . S
H1194 C1166 0.930 . S
H1195 C1167 0.931 . S
H1196 C1185 0.930 . S
H1197 C1186 0.930 . S
H1198 C1187 0.930 . S
H1199 C1188 0.931 . S
Eu1200 C1209 2.828 . S
Eu1200 O1211 2.392 . S
Eu1200 O1213 2.418 . S
Eu1200 O1218 2.373 . S
Eu1200 O1221 2.488 . S
Eu1200 O1222 2.471 . S
Eu1200 O1223 2.349 . S
Eu1201 O1210 2.373 . S
Eu1201 O1214 2.488 . S
Eu1201 O1215 2.471 . S
Eu1201 O1216 2.349 . S
Eu1201 O1219 2.392 . S
Eu1201 O1220 2.418 . S
Eu1201 C1230 2.828 . S
C1202 O1220 1.244 . S
C1202 O1223 1.265 . S
C1203 C1204 1.379 . S
C1203 C1207 1.373 . S
C1203 C1209 1.505 . S
C1204 C1203 1.379 . S
C1204 C1206 1.369 . S
C1204 H1232 0.930 . S
C1205 C1207 1.383 . S
C1205 C1208 1.382 . S
C1205 H1233 0.930 . S
C1206 C1204 1.369 . S
C1206 C1208 1.392 . S
C1206 H1234 0.930 . S
C1207 C1203 1.373 . S
C1207 C1205 1.383 . S
C1207 H1235 0.931 . S
C1208 C1205 1.382 . S
C1208 C1206 1.392 . S
C1209 Eu1200 2.828 . S
C1209 C1203 1.505 . S
C1209 O1221 1.249 . S
C1209 O1222 1.244 . S
O1210 Eu1201 2.373 . S
O1210 C1212 1.258 . S
O1211 Eu1200 2.392 . S
O1211 C1212 1.242 . S
C1212 O1210 1.258 . S
C1212 O1211 1.242 . S
O1213 Eu1200 2.418 . S
O1213 C1217 1.244 . S
O1214 Eu1201 2.488 . S
O1214 C1230 1.249 . S
O1215 Eu1201 2.471 . S
O1215 C1230 1.244 . S
O1216 Eu1201 2.349 . S
O1216 C1217 1.265 . S
C1217 O1213 1.244 . S
C1217 O1216 1.265 . S
O1218 Eu1200 2.373 . S
O1218 C1231 1.258 . S
O1219 Eu1201 2.392 . S
O1219 C1231 1.242 . S
O1220 Eu1201 2.418 . S
O1220 C1202 1.244 . S
O1221 Eu1200 2.488 . S
O1221 C1209 1.249 . S
O1222 Eu1200 2.471 . S
O1222 C1209 1.244 . S
O1223 Eu1200 2.349 . S
O1223 C1202 1.265 . S
C1224 C1225 1.379 . S
C1224 C1228 1.373 . S
C1224 C1230 1.505 . S
C1225 C1224 1.379 . S
C1225 C1227 1.369 . S
C1225 H1236 0.930 . S
C1226 C1228 1.383 . S
C1226 C1229 1.382 . S
C1226 H1237 0.930 . S
C1227 C1225 1.369 . S
C1227 C1229 1.392 . S
C1227 H1238 0.930 . S
C1228 C1224 1.373 . S
C1228 C1226 1.383 . S
C1228 H1239 0.931 . S
C1229 C1226 1.382 . S
C1229 C1227 1.392 . S
C1230 Eu1201 2.828 . S
C1230 O1214 1.249 . S
C1230 O1215 1.244 . S
C1230 C1224 1.505 . S
C1231 O1218 1.258 . S
C1231 O1219 1.242 . S
H1232 C1204 0.930 . S
H1233 C1205 0.930 . S
H1234 C1206 0.930 . S
H1235 C1207 0.931 . S
H1236 C1225 0.930 . S
H1237 C1226 0.930 . S
H1238 C1227 0.930 . S
H1239 C1228 0.931 . S
Eu1240 C1249 2.828 . S
Eu1240 O1251 2.392 . S
Eu1240 O1253 2.418 . S
Eu1240 O1258 2.373 . S
Eu1240 O1261 2.488 . S
Eu1240 O1262 2.471 . S
Eu1240 O1263 2.349 . S
Eu1241 O1250 2.373 . S
Eu1241 O1254 2.488 . S
Eu1241 O1255 2.471 . S
Eu1241 O1256 2.349 . S
Eu1241 O1259 2.392 . S
Eu1241 O1260 2.418 . S
Eu1241 C1270 2.828 . S
C1242 O1260 1.244 . S
C1242 O1263 1.265 . S
C1243 C1244 1.379 . S
C1243 C1247 1.373 . S
C1243 C1249 1.505 . S
C1244 C1243 1.379 . S
C1244 C1246 1.369 . S
C1244 H1272 0.930 . S
C1245 C1247 1.383 . S
C1245 C1248 1.382 . S
C1245 H1273 0.930 . S
C1246 C1244 1.369 . S
C1246 C1248 1.392 . S
C1246 H1274 0.930 . S
C1247 C1243 1.373 . S
C1247 C1245 1.383 . S
C1247 H1275 0.931 . S
C1248 C1245 1.382 . S
C1248 C1246 1.392 . S
C1249 Eu1240 2.828 . S
C1249 C1243 1.505 . S
C1249 O1261 1.249 . S
C1249 O1262 1.244 . S
O1250 Eu1241 2.373 . S
O1250 C1252 1.258 . S
O1251 Eu1240 2.392 . S
O1251 C1252 1.242 . S
C1252 O1250 1.258 . S
C1252 O1251 1.242 . S
O1253 Eu1240 2.418 . S
O1253 C1257 1.244 . S
O1254 Eu1241 2.488 . S
O1254 C1270 1.249 . S
O1255 Eu1241 2.471 . S
O1255 C1270 1.244 . S
O1256 Eu1241 2.349 . S
O1256 C1257 1.265 . S
C1257 O1253 1.244 . S
C1257 O1256 1.265 . S
O1258 Eu1240 2.373 . S
O1258 C1271 1.258 . S
O1259 Eu1241 2.392 . S
O1259 C1271 1.242 . S
O1260 Eu1241 2.418 . S
O1260 C1242 1.244 . S
O1261 Eu1240 2.488 . S
O1261 C1249 1.249 . S
O1262 Eu1240 2.471 . S
O1262 C1249 1.244 . S
O1263 Eu1240 2.349 . S
O1263 C1242 1.265 . S
C1264 C1265 1.379 . S
C1264 C1268 1.373 . S
C1264 C1270 1.505 . S
C1265 C1264 1.379 . S
C1265 C1267 1.369 . S
C1265 H1276 0.930 . S
C1266 C1268 1.383 . S
C1266 C1269 1.382 . S
C1266 H1277 0.930 . S
C1267 C1265 1.369 . S
C1267 C1269 1.392 . S
C1267 H1278 0.930 . S
C1268 C1264 1.373 . S
C1268 C1266 1.383 . S
C1268 H1279 0.931 . S
C1269 C1266 1.382 . S
C1269 C1267 1.392 . S
C1270 Eu1241 2.828 . S
C1270 O1254 1.249 . S
C1270 O1255 1.244 . S
C1270 C1264 1.505 . S
C1271 O1258 1.258 . S
C1271 O1259 1.242 . S
H1272 C1244 0.930 . S
H1273 C1245 0.930 . S
H1274 C1246 0.930 . S
H1275 C1247 0.931 . S
H1276 C1265 0.930 . S
H1277 C1266 0.930 . S
H1278 C1267 0.930 . S
H1279 C1268 0.931 . S
Eu1280 C1289 2.828 . S
Eu1280 O1291 2.392 . S
Eu1280 O1293 2.418 . S
Eu1280 O1298 2.373 . S
Eu1280 O1301 2.488 . S
Eu1280 O1302 2.471 . S
Eu1280 O1303 2.349 . S
Eu1281 O1290 2.373 . S
Eu1281 O1294 2.488 . S
Eu1281 O1295 2.471 . S
Eu1281 O1296 2.349 . S
Eu1281 O1299 2.392 . S
Eu1281 O1300 2.418 . S
Eu1281 C1310 2.828 . S
C1282 O1300 1.244 . S
C1282 O1303 1.265 . S
C1283 C1284 1.379 . S
C1283 C1287 1.373 . S
C1283 C1289 1.505 . S
C1284 C1283 1.379 . S
C1284 C1286 1.369 . S
C1284 H1312 0.930 . S
C1285 C1287 1.383 . S
C1285 C1288 1.382 . S
C1285 H1313 0.930 . S
C1286 C1284 1.369 . S
C1286 C1288 1.392 . S
C1286 H1314 0.930 . S
C1287 C1283 1.373 . S
C1287 C1285 1.383 . S
C1287 H1315 0.931 . S
C1288 C1285 1.382 . S
C1288 C1286 1.392 . S
C1289 Eu1280 2.828 . S
C1289 C1283 1.505 . S
C1289 O1301 1.249 . S
C1289 O1302 1.244 . S
O1290 Eu1281 2.373 . S
O1290 C1292 1.258 . S
O1291 Eu1280 2.392 . S
O1291 C1292 1.242 . S
C1292 O1290 1.258 . S
C1292 O1291 1.242 . S
O1293 Eu1280 2.418 . S
O1293 C1297 1.244 . S
O1294 Eu1281 2.488 . S
O1294 C1310 1.249 . S
O1295 Eu1281 2.471 . S
O1295 C1310 1.244 . S
O1296 Eu1281 2.349 . S
O1296 C1297 1.265 . S
C1297 O1293 1.244 . S
C1297 O1296 1.265 . S
O1298 Eu1280 2.373 . S
O1298 C1311 1.258 . S
O1299 Eu1281 2.392 . S
O1299 C1311 1.242 . S
O1300 Eu1281 2.418 . S
O1300 C1282 1.244 . S
O1301 Eu1280 2.488 . S
O1301 C1289 1.249 . S
O1302 Eu1280 2.471 . S
O1302 C1289 1.244 . S
O1303 Eu1280 2.349 . S
O1303 C1282 1.265 . S
C1304 C1305 1.379 . S
C1304 C1308 1.373 . S
C1304 C1310 1.505 . S
C1305 C1304 1.379 . S
C1305 C1307 1.369 . S
C1305 H1316 0.930 . S
C1306 C1308 1.383 . S
C1306 C1309 1.382 . S
C1306 H1317 0.930 . S
C1307 C1305 1.369 . S
C1307 C1309 1.392 . S
C1307 H1318 0.930 . S
C1308 C1304 1.373 . S
C1308 C1306 1.383 . S
C1308 H1319 0.931 . S
C1309 C1306 1.382 . S
C1309 C1307 1.392 . S
C1310 Eu1281 2.828 . S
C1310 O1294 1.249 . S
C1310 O1295 1.244 . S
C1310 C1304 1.505 . S
C1311 O1298 1.258 . S
C1311 O1299 1.242 . S
H1312 C1284 0.930 . S
H1313 C1285 0.930 . S
H1314 C1286 0.930 . S
H1315 C1287 0.931 . S
H1316 C1305 0.930 . S
H1317 C1306 0.930 . S
H1318 C1307 0.930 . S
H1319 C1308 0.931 . S
Eu1320 C1329 2.828 . S
Eu1320 O1331 2.392 . S
Eu1320 O1333 2.418 . S
Eu1320 O1338 2.373 . S
Eu1320 O1341 2.488 . S
Eu1320 O1342 2.471 . S
Eu1320 O1343 2.349 . S
Eu1321 O1330 2.373 . S
Eu1321 O1334 2.488 . S
Eu1321 O1335 2.471 . S
Eu1321 O1336 2.349 . S
Eu1321 O1339 2.392 . S
Eu1321 O1340 2.418 . S
Eu1321 C1350 2.828 . S
C1322 O1340 1.244 . S
C1322 O1343 1.265 . S
C1323 C1324 1.379 . S
C1323 C1327 1.373 . S
C1323 C1329 1.505 . S
C1324 C1323 1.379 . S
C1324 C1326 1.369 . S
C1324 H1352 0.930 . S
C1325 C1327 1.383 . S
C1325 C1328 1.382 . S
C1325 H1353 0.930 . S
C1326 C1324 1.369 . S
C1326 C1328 1.392 . S
C1326 H1354 0.930 . S
C1327 C1323 1.373 . S
C1327 C1325 1.383 . S
C1327 H1355 0.931 . S
C1328 C1325 1.382 . S
C1328 C1326 1.392 . S
C1329 Eu1320 2.828 . S
C1329 C1323 1.505 . S
C1329 O1341 1.249 . S
C1329 O1342 1.244 . S
O1330 Eu1321 2.373 . S
O1330 C1332 1.258 . S
O1331 Eu1320 2.392 . S
O1331 C1332 1.242 . S
C1332 O1330 1.258 . S
C1332 O1331 1.242 . S
O1333 Eu1320 2.418 . S
O1333 C1337 1.244 . S
O1334 Eu1321 2.488 . S
O1334 C1350 1.249 . S
O1335 Eu1321 2.471 . S
O1335 C1350 1.244 . S
O1336 Eu1321 2.349 . S
O1336 C1337 1.265 . S
C1337 O1333 1.244 . S
C1337 O1336 1.265 . S
O1338 Eu1320 2.373 . S
O1338 C1351 1.258 . S
O1339 Eu1321 2.392 . S
O1339 C1351 1.242 . S
O1340 Eu1321 2.418 . S
O1340 C1322 1.244 . S
O1341 Eu1320 2.488 . S
O1341 C1329 1.249 . S
O1342 Eu1320 2.471 . S
O1342 C1329 1.244 . S
O1343 Eu1320 2.349 . S
O1343 C1322 1.265 . S
C1344 C1345 1.379 . S
C1344 C1348 1.373 . S
C1344 C1350 1.505 . S
C1345 C1344 1.379 . S
C1345 C1347 1.369 . S
C1345 H1356 0.930 . S
C1346 C1348 1.383 . S
C1346 C1349 1.382 . S
C1346 H1357 0.930 . S
C1347 C1345 1.369 . S
C1347 C1349 1.392 . S
C1347 H1358 0.930 . S
C1348 C1344 1.373 . S
C1348 C1346 1.383 . S
C1348 H1359 0.931 . S
C1349 C1346 1.382 . S
C1349 C1347 1.392 . S
C1350 Eu1321 2.828 . S
C1350 O1334 1.249 . S
C1350 O1335 1.244 . S
C1350 C1344 1.505 . S
C1351 O1338 1.258 . S
C1351 O1339 1.242 . S
H1352 C1324 0.930 . S
H1353 C1325 0.930 . S
H1354 C1326 0.930 . S
H1355 C1327 0.931 . S
H1356 C1345 0.930 . S
H1357 C1346 0.930 . S
H1358 C1347 0.930 . S
H1359 C1348 0.931 . S
Eu1360 C1369 2.828 . S
Eu1360 O1371 2.392 . S
Eu1360 O1373 2.418 . S
Eu1360 O1378 2.373 . S
Eu1360 O1381 2.488 . S
Eu1360 O1382 2.471 . S
Eu1360 O1383 2.349 . S
Eu1361 O1370 2.373 . S
Eu1361 O1374 2.488 . S
Eu1361 O1375 2.471 . S
Eu1361 O1376 2.349 . S
Eu1361 O1379 2.392 . S
Eu1361 O1380 2.418 . S
Eu1361 C1390 2.828 . S
C1362 O1380 1.244 . S
C1362 O1383 1.265 . S
C1363 C1364 1.379 . S
C1363 C1367 1.373 . S
C1363 C1369 1.505 . S
C1364 C1363 1.379 . S
C1364 C1366 1.369 . S
C1364 H1392 0.930 . S
C1365 C1367 1.383 . S
C1365 C1368 1.382 . S
C1365 H1393 0.930 . S
C1366 C1364 1.369 . S
C1366 C1368 1.392 . S
C1366 H1394 0.930 . S
C1367 C1363 1.373 . S
C1367 C1365 1.383 . S
C1367 H1395 0.931 . S
C1368 C1365 1.382 . S
C1368 C1366 1.392 . S
C1369 Eu1360 2.828 . S
C1369 C1363 1.505 . S
C1369 O1381 1.249 . S
C1369 O1382 1.244 . S
O1370 Eu1361 2.373 . S
O1370 C1372 1.258 . S
O1371 Eu1360 2.392 . S
O1371 C1372 1.242 . S
C1372 O1370 1.258 . S
C1372 O1371 1.242 . S
O1373 Eu1360 2.418 . S
O1373 C1377 1.244 . S
O1374 Eu1361 2.488 . S
O1374 C1390 1.249 . S
O1375 Eu1361 2.471 . S
O1375 C1390 1.244 . S
O1376 Eu1361 2.349 . S
O1376 C1377 1.265 . S
C1377 O1373 1.244 . S
C1377 O1376 1.265 . S
O1378 Eu1360 2.373 . S
O1378 C1391 1.258 . S
O1379 Eu1361 2.392 . S
O1379 C1391 1.242 . S
O1380 Eu1361 2.418 . S
O1380 C1362 1.244 . S
O1381 Eu1360 2.488 . S
O1381 C1369 1.249 . S
O1382 Eu1360 2.471 . S
O1382 C1369 1.244 . S
O1383 Eu1360 2.349 . S
O1383 C1362 1.265 . S
C1384 C1385 1.379 . S
C1384 C1388 1.373 . S
C1384 C1390 1.505 . S
C1385 C1384 1.379 . S
C1385 C1387 1.369 . S
C1385 H1396 0.930 . S
C1386 C1388 1.383 . S
C1386 C1389 1.382 . S
C1386 H1397 0.930 . S
C1387 C1385 1.369 . S
C1387 C1389 1.392 . S
C1387 H1398 0.930 . S
C1388 C1384 1.373 . S
C1388 C1386 1.383 . S
C1388 H1399 0.931 . S
C1389 C1386 1.382 . S
C1389 C1387 1.392 . S
C1390 Eu1361 2.828 . S
C1390 O1374 1.249 . S
C1390 O1375 1.244 . S
C1390 C1384 1.505 . S
C1391 O1378 1.258 . S
C1391 O1379 1.242 . S
H1392 C1364 0.930 . S
H1393 C1365 0.930 . S
H1394 C1366 0.930 . S
H1395 C1367 0.931 . S
H1396 C1385 0.930 . S
H1397 C1386 0.930 . S
H1398 C1387 0.930 . S
H1399 C1388 0.931 . S
Eu1400 C1409 2.828 . S
Eu1400 O1411 2.392 . S
Eu1400 O1413 2.418 . S
Eu1400 O1418 2.373 . S
Eu1400 O1421 2.488 . S
Eu1400 O1422 2.471 . S
Eu1400 O1423 2.349 . S
Eu1401 O1410 2.373 . S
Eu1401 O1414 2.488 . S
Eu1401 O1415 2.471 . S
Eu1401 O1416 2.349 . S
Eu1401 O1419 2.392 . S
Eu1401 O1420 2.418 . S
Eu1401 C1430 2.828 . S
C1402 O1420 1.244 . S
C1402 O1423 1.265 . S
C1403 C1404 1.379 . S
C1403 C1407 1.373 . S
C1403 C1409 1.505 . S
C1404 C1403 1.379 . S
C1404 C1406 1.369 . S
C1404 H1432 0.930 . S
C1405 C1407 1.383 . S
C1405 C1408 1.382 . S
C1405 H1433 0.930 . S
C1406 C1404 1.369 . S
C1406 C1408 1.392 . S
C1406 H1434 0.930 . S
C1407 C1403 1.373 . S
C1407 C1405 1.383 . S
C1407 H1435 0.931 . S
C1408 C1405 1.382 . S
C1408 C1406 1.392 . S
C1409 Eu1400 2.828 . S
C1409 C1403 1.505 . S
C1409 O1421 1.249 . S
C1409 O1422 1.244 . S
O1410 Eu1401 2.373 . S
O1410 C1412 1.258 . S
O1411 Eu1400 2.392 . S
O1411 C1412 1.242 . S
C1412 O1410 1.258 . S
C1412 O1411 1.242 . S
O1413 Eu1400 2.418 . S
O1413 C1417 1.244 . S
O1414 Eu1401 2.488 . S
O1414 C1430 1.249 . S
O1415 Eu1401 2.471 . S
O1415 C1430 1.244 . S
O1416 Eu1401 2.349 . S
O1416 C1417 1.265 . S
C1417 O1413 1.244 . S
C1417 O1416 1.265 . S
O1418 Eu1400 2.373 . S
O1418 C1431 1.258 . S
O1419 Eu1401 2.392 . S
O1419 C1431 1.242 . S
O1420 Eu1401 2.418 . S
O1420 C1402 1.244 . S
O1421 Eu1400 2.488 . S
O1421 C1409 1.249 . S
O1422 Eu1400 2.471 . S
O1422 C1409 1.244 . S
O1423 Eu1400 2.349 . S
O1423 C1402 1.265 . S
C1424 C1425 1.379 . S
C1424 C1428 1.373 . S
C1424 C1430 1.505 . S
C1425 C1424 1.379 . S
C1425 C1427 1.369 . S
C1425 H1436 0.930 . S
C1426 C1428 1.383 . S
C1426 C1429 1.382 . S
C1426 H1437 0.930 . S
C1427 C1425 1.369 . S
C1427 C1429 1.392 . S
C1427 H1438 0.930 . S
C1428 C1424 1.373 . S
C1428 C1426 1.383 . S
C1428 H1439 0.931 . S
C1429 C1426 1.382 . S
C1429 C1427 1.392 . S
C1430 Eu1401 2.828 . S
C1430 O1414 1.249 . S
C1430 O1415 1.244 . S
C1430 C1424 1.505 . S
C1431 O1418 1.258 . S
C1431 O1419 1.242 . S
H1432 C1404 0.930 . S
H1433 C1405 0.930 . S
H1434 C1406 0.930 . S
H1435 C1407 0.931 . S
H1436 C1425 0.930 . S
H1437 C1426 0.930 . S
H1438 C1427 0.930 . S
H1439 C1428 0.931 . S
H1440 C1446 0.930 . S
H1441 C1450 0.930 . S
H1442 C1455 0.929 . S
H1443 C1453 0.929 . S
H1444 C1448 0.929 . S
H1445 C1454 0.929 . S
C1446 H1440 0.930 . S
C1446 C1447 1.367 . S
C1446 C1454 1.378 . S
C1447 C1446 1.367 . S
C1447 C1455 1.433 . S
C1448 H1444 0.929 . S
C1448 C1450 1.378 . S
C1448 C1452 1.350 . S
C1449 C1452 1.463 . S
C1449 C1454 1.350 . S
C1449 N1457 1.427 . S
C1450 H1441 0.930 . S
C1450 C1448 1.378 . S
C1450 C1451 1.367 . S
C1451 C1450 1.367 . S
C1451 C1453 1.433 . S
C1452 C1448 1.350 . S
C1452 C1449 1.463 . S
C1452 N1456 1.427 . S
C1453 H1443 0.929 . S
C1453 C1451 1.433 . S
C1453 N1456 1.384 . S
C1454 H1445 0.929 . S
C1454 C1446 1.378 . S
C1454 C1449 1.350 . S
C1455 H1442 0.929 . S
C1455 C1447 1.433 . S
C1455 N1457 1.384 . S
N1456 C1452 1.427 . S
N1456 C1453 1.384 . S
N1457 C1449 1.427 . S
N1457 C1455 1.384 . S
H1458 C1464 0.930 . S
H1459 C1468 0.930 . S
H1460 C1473 0.929 . S
H1461 C1471 0.929 . S
H1462 C1466 0.929 . S
H1463 C1472 0.929 . S
C1464 H1458 0.930 . S
C1464 C1465 1.367 . S
C1464 C1472 1.378 . S
C1465 C1464 1.367 . S
C1465 C1473 1.433 . S
C1466 H1462 0.929 . S
C1466 C1468 1.378 . S
C1466 C1470 1.350 . S
C1467 C1470 1.463 . S
C1467 C1472 1.350 . S
C1467 N1475 1.427 . S
C1468 H1459 0.930 . S
C1468 C1466 1.378 . S
C1468 C1469 1.367 . S
C1469 C1468 1.367 . S
C1469 C1471 1.433 . S
C1470 C1466 1.350 . S
C1470 C1467 1.463 . S
C1470 N1474 1.427 . S
C1471 H1461 0.929 . S
C1471 C1469 1.433 . S
C1471 N1474 1.384 . S
C1472 H1463 0.929 . S
C1472 C1464 1.378 . S
C1472 C1467 1.350 . S
C1473 H1460 0.929 . S
C1473 C1465 1.433 . S
C1473 N1475 1.384 . S
N1474 C1470 1.427 . S
N1474 C1471 1.384 . S
N1475 C1467 1.427 . S
N1475 C1473 1.384 . S
H1476 C1482 0.930 . S
H1477 C1486 0.930 . S
H1478 C1491 0.929 . S
H1479 C1489 0.929 . S
H1480 C1484 0.929 . S
H1481 C1490 0.929 . S
C1482 H1476 0.930 . S
C1482 C1483 1.367 . S
C1482 C1490 1.378 . S
C1483 C1482 1.367 . S
C1483 C1491 1.433 . S
C1484 H1480 0.929 . S
C1484 C1486 1.378 . S
C1484 C1488 1.350 . S
C1485 C1488 1.463 . S
C1485 C1490 1.350 . S
C1485 N1493 1.427 . S
C1486 H1477 0.930 . S
C1486 C1484 1.378 . S
C1486 C1487 1.367 . S
C1487 C1486 1.367 . S
C1487 C1489 1.433 . S
C1488 C1484 1.350 . S
C1488 C1485 1.463 . S
C1488 N1492 1.427 . S
C1489 H1479 0.929 . S
C1489 C1487 1.433 . S
C1489 N1492 1.384 . S
C1490 H1481 0.929 . S
C1490 C1482 1.378 . S
C1490 C1485 1.350 . S
C1491 H1478 0.929 . S
C1491 C1483 1.433 . S
C1491 N1493 1.384 . S
N1492 C1488 1.427 . S
N1492 C1489 1.384 . S
N1493 C1485 1.427 . S
N1493 C1491 1.384 . S
H1494 C1500 0.930 . S
H1495 C1504 0.930 . S
H1496 C1509 0.929 . S
H1497 C1507 0.929 1_554 S
H1498 C1502 0.929 . S
H1499 C1508 0.929 . S
C1500 H1494 0.930 . S
C1500 C1501 1.367 . S
C1500 C1508 1.378 . S
C1501 C1500 1.367 . S
C1501 C1509 1.433 . S
C1502 H1498 0.929 . S
C1502 C1504 1.378 . S
C1502 C1506 1.350 . S
C1503 C1506 1.463 . S
C1503 C1508 1.350 . S
C1503 N1511 1.427 . S
C1504 H1495 0.930 . S
C1504 C1502 1.378 . S
C1504 C1505 1.367 . S
C1505 C1504 1.367 . S
C1505 C1507 1.433 . S
C1506 C1502 1.350 . S
C1506 C1503 1.463 . S
C1506 N1510 1.427 . S
C1507 H1497 0.929 1_556 S
C1507 C1505 1.433 . S
C1507 N1510 1.384 . S
C1508 H1499 0.929 . S
C1508 C1500 1.378 . S
C1508 C1503 1.350 . S
C1509 H1496 0.929 . S
C1509 C1501 1.433 . S
C1509 N1511 1.384 . S
N1510 C1506 1.427 . S
N1510 C1507 1.384 . S
N1511 C1503 1.427 . S
N1511 C1509 1.384 . S
H1512 C1518 0.930 . S
H1513 C1522 0.930 . S
H1514 C1527 0.929 . S
H1515 C1525 0.858 1_554 S
H1516 C1520 0.929 . S
H1517 C1526 0.929 . S
C1518 H1512 0.930 . S
C1518 C1519 1.367 . S
C1518 C1526 1.378 . S
C1519 C1518 1.367 . S
C1519 C1527 1.433 . S
C1520 H1516 0.929 . S
C1520 C1522 1.378 . S
C1520 C1524 1.350 . S
C1521 C1524 1.463 . S
C1521 C1526 1.350 . S
C1521 N1529 1.427 . S
C1522 H1513 0.930 . S
C1522 C1520 1.378 . S
C1522 C1523 1.367 . S
C1523 C1522 1.367 . S
C1523 C1525 1.433 . S
C1524 C1520 1.350 . S
C1524 C1521 1.463 . S
C1524 N1528 1.427 . S
C1525 H1515 0.858 1_556 S
C1525 C1523 1.433 . S
C1525 N1528 1.384 . S
C1526 H1517 0.929 . S
C1526 C1518 1.378 . S
C1526 C1521 1.350 . S
C1527 H1514 0.929 . S
C1527 C1519 1.433 . S
C1527 N1529 1.384 . S
N1528 C1524 1.427 . S
N1528 C1525 1.384 . S
N1529 C1521 1.427 . S
N1529 C1527 1.384 . S
H1530 C1536 0.930 . S
H1531 C1540 0.930 1_554 S
H1532 C1545 0.929 . S
H1533 C1543 0.929 . S
H1534 C1538 0.950 . S
H1535 C1544 0.929 . S
C1536 H1530 0.930 . S
C1536 C1537 1.367 . S
C1536 C1544 1.378 . S
C1537 C1536 1.367 . S
C1537 C1545 1.433 . S
C1538 H1534 0.950 . S
C1538 C1540 1.378 . S
C1538 C1542 1.350 . S
C1539 C1542 1.463 . S
C1539 C1544 1.350 . S
C1539 N1547 1.427 . S
C1540 H1531 0.930 1_556 S
C1540 C1538 1.378 . S
C1540 C1541 1.367 . S
C1541 C1540 1.367 . S
C1541 C1543 1.433 . S
C1542 C1538 1.350 . S
C1542 C1539 1.463 . S
C1542 N1546 1.427 . S
C1543 H1533 0.929 . S
C1543 C1541 1.433 . S
C1543 N1546 1.384 . S
C1544 H1535 0.929 . S
C1544 C1536 1.378 . S
C1544 C1539 1.350 . S
C1545 H1532 0.929 . S
C1545 C1537 1.433 . S
C1545 N1547 1.384 . S
N1546 C1542 1.427 . S
N1546 C1543 1.384 . S
N1547 C1539 1.427 . S
N1547 C1545 1.384 . S
H1548 C1554 0.930 . S
H1549 C1558 0.930 1_554 S
H1550 C1563 0.929 . S
H1551 C1561 0.929 . S
H1552 C1556 0.929 . S
H1553 C1562 0.929 . S
C1554 H1548 0.930 . S
C1554 C1555 1.367 . S
C1554 C1562 1.378 . S
C1555 C1554 1.367 . S
C1555 C1563 1.433 . S
C1556 H1552 0.929 . S
C1556 C1558 1.378 . S
C1556 C1560 1.350 . S
C1557 C1560 1.463 . S
C1557 C1562 1.350 . S
C1557 N1565 1.427 . S
C1558 H1549 0.930 1_556 S
C1558 C1556 1.378 . S
C1558 C1559 1.367 . S
C1559 C1558 1.367 . S
C1559 C1561 1.433 . S
C1560 C1556 1.350 . S
C1560 C1557 1.463 . S
C1560 N1564 1.427 . S
C1561 H1551 0.929 . S
C1561 C1559 1.433 . S
C1561 N1564 1.384 . S
C1562 H1553 0.929 . S
C1562 C1554 1.378 . S
C1562 C1557 1.350 . S
C1563 H1550 0.929 . S
C1563 C1555 1.433 . S
C1563 N1565 1.384 . S
N1564 C1560 1.427 . S
N1564 C1561 1.384 . S
N1565 C1557 1.427 . S
N1565 C1563 1.384 . S
H1566 C1572 0.930 . S
H1567 C1576 0.930 . S
H1568 C1581 0.929 . S
H1569 C1579 0.929 . S
H1570 C1574 0.929 . S
H1571 C1580 0.929 . S
C1572 H1566 0.930 . S
C1572 C1573 1.367 . S
C1572 C1580 1.378 . S
C1573 C1572 1.367 . S
C1573 C1581 1.433 . S
C1574 H1570 0.929 . S
C1574 C1576 1.378 . S
C1574 C1578 1.350 . S
C1575 C1578 1.463 . S
C1575 C1580 1.350 . S
C1575 N1583 1.427 . S
C1576 H1567 0.930 . S
C1576 C1574 1.378 . S
C1576 C1577 1.367 . S
C1577 C1576 1.367 . S
C1577 C1579 1.433 . S
C1578 C1574 1.350 . S
C1578 C1575 1.463 . S
C1578 N1582 1.427 . S
C1579 H1569 0.929 . S
C1579 C1577 1.433 . S
C1579 N1582 1.384 . S
C1580 H1571 0.929 . S
C1580 C1572 1.378 . S
C1580 C1575 1.350 . S
C1581 H1568 0.929 . S
C1581 C1573 1.433 . S
C1581 N1583 1.384 . S
N1582 C1578 1.427 . S
N1582 C1579 1.384 . S
N1583 C1575 1.427 . S
N1583 C1581 1.384 . S
H1584 C1590 0.930 . S
H1585 C1594 0.930 . S
H1586 C1599 0.929 . S
H1587 C1597 0.929 1_554 S
H1588 C1592 0.929 . S
H1589 C1598 0.929 . S
C1590 H1584 0.930 . S
C1590 C1591 1.367 . S
C1590 C1598 1.378 . S
C1591 C1590 1.367 . S
C1591 C1599 1.433 . S
C1592 H1588 0.929 . S
C1592 C1594 1.378 . S
C1592 C1596 1.350 . S
C1593 C1596 1.463 . S
C1593 C1598 1.350 . S
C1593 N1601 1.427 . S
C1594 H1585 0.930 . S
C1594 C1592 1.378 . S
C1594 C1595 1.367 . S
C1595 C1594 1.367 . S
C1595 C1597 1.433 . S
C1596 C1592 1.350 . S
C1596 C1593 1.463 . S
C1596 N1600 1.427 . S
C1597 H1587 0.929 1_556 S
C1597 C1595 1.433 . S
C1597 N1600 1.384 . S
C1598 H1589 0.929 . S
C1598 C1590 1.378 . S
C1598 C1593 1.350 . S
C1599 H1586 0.929 . S
C1599 C1591 1.433 . S
C1599 N1601 1.384 . S
N1600 C1596 1.427 . S
N1600 C1597 1.384 . S
N1601 C1593 1.427 . S
N1601 C1599 1.384 . S
H1602 C1608 0.930 . S
H1603 C1612 0.930 . S
H1604 C1617 0.929 . S
H1605 C1615 0.929 . S
H1606 C1610 0.929 . S
H1607 C1616 0.929 . S
C1608 H1602 0.930 . S
C1608 C1609 1.367 . S
C1608 C1616 1.378 . S
C1609 C1608 1.367 . S
C1609 C1617 1.433 . S
C1610 H1606 0.929 . S
C1610 C1612 1.378 . S
C1610 C1614 1.350 . S
C1611 C1614 1.463 . S
C1611 C1616 1.350 . S
C1611 N1619 1.427 . S
C1612 H1603 0.930 . S
C1612 C1610 1.378 . S
C1612 C1613 1.367 . S
C1613 C1612 1.367 . S
C1613 C1615 1.433 . S
C1614 C1610 1.350 . S
C1614 C1611 1.463 . S
C1614 N1618 1.427 . S
C1615 H1605 0.929 . S
C1615 C1613 1.433 . S
C1615 N1618 1.384 . S
C1616 H1607 0.929 . S
C1616 C1608 1.378 . S
C1616 C1611 1.350 . S
C1617 H1604 0.929 . S
C1617 C1609 1.433 . S
C1617 N1619 1.384 . S
N1618 C1614 1.427 . S
N1618 C1615 1.384 . S
N1619 C1611 1.427 . S
N1619 C1617 1.384 . S
H1620 C1626 0.930 . S
H1621 C1630 0.930 . S
H1622 C1635 0.929 . S
H1623 C1633 0.929 . S
H1624 C1628 0.929 . S
H1625 C1634 0.929 . S
C1626 H1620 0.930 . S
C1626 C1627 1.367 . S
C1626 C1634 1.378 . S
C1627 C1626 1.367 . S
C1627 C1635 1.433 . S
C1628 H1624 0.929 . S
C1628 C1630 1.378 . S
C1628 C1632 1.350 . S
C1629 C1632 1.463 . S
C1629 C1634 1.350 . S
C1629 N1637 1.427 . S
C1630 H1621 0.930 . S
C1630 C1628 1.378 . S
C1630 C1631 1.367 . S
C1631 C1630 1.367 . S
C1631 C1633 1.433 . S
C1632 C1628 1.350 . S
C1632 C1629 1.463 . S
C1632 N1636 1.427 . S
C1633 H1623 0.929 . S
C1633 C1631 1.433 . S
C1633 N1636 1.384 . S
C1634 H1625 0.929 . S
C1634 C1626 1.378 . S
C1634 C1629 1.350 . S
C1635 H1622 0.929 . S
C1635 C1627 1.433 . S
C1635 N1637 1.384 . S
N1636 C1632 1.427 . S
N1636 C1633 1.384 . S
N1637 C1629 1.427 . S
N1637 C1635 1.384 . S
H1638 C1644 0.930 . S
H1639 C1648 0.930 1_556 S
H1640 C1653 0.929 . S
H1641 C1651 0.929 . S
H1642 C1646 0.891 1_556 S
H1643 C1652 0.929 . S
C1644 H1638 0.930 . S
C1644 C1645 1.367 . S
C1644 C1652 1.378 . S
C1645 C1644 1.367 . S
C1645 C1653 1.433 . S
C1646 H1642 0.891 1_554 S
C1646 C1648 1.378 . S
C1646 C1650 1.350 . S
C1647 C1650 1.463 . S
C1647 C1652 1.350 . S
C1647 N1655 1.427 . S
C1648 H1639 0.930 1_554 S
C1648 C1646 1.378 . S
C1648 C1649 1.367 . S
C1649 C1648 1.367 . S
C1649 C1651 1.433 . S
C1650 C1646 1.350 . S
C1650 C1647 1.463 . S
C1650 N1654 1.427 . S
C1651 H1641 0.929 . S
C1651 C1649 1.433 . S
C1651 N1654 1.384 . S
C1652 H1643 0.929 . S
C1652 C1644 1.378 . S
C1652 C1647 1.350 . S
C1653 H1640 0.929 . S
C1653 C1645 1.433 . S
C1653 N1655 1.384 . S
N1654 C1650 1.427 . S
N1654 C1651 1.384 . S
N1655 C1647 1.427 . S
N1655 C1653 1.384 . S
H1656 C1662 0.930 . S
H1657 C1666 0.930 . S
H1658 C1671 0.929 . S
H1659 C1669 0.929 . S
H1660 C1664 0.929 . S
H1661 C1670 0.929 . S
C1662 H1656 0.930 . S
C1662 C1663 1.367 . S
C1662 C1670 1.378 1_655 S
C1663 C1662 1.367 . S
C1663 C1671 1.433 . S
C1664 H1660 0.929 . S
C1664 C1666 1.378 . S
C1664 C1668 1.350 . S
C1665 C1668 1.463 . S
C1665 C1670 1.350 . S
C1665 N1673 1.427 . S
C1666 H1657 0.930 . S
C1666 C1664 1.378 . S
C1666 C1667 1.367 . S
C1667 C1666 1.367 . S
C1667 C1669 1.433 . S
C1668 C1664 1.350 . S
C1668 C1665 1.463 . S
C1668 N1672 1.427 . S
C1669 H1659 0.929 . S
C1669 C1667 1.433 . S
C1669 N1672 1.384 . S
C1670 H1661 0.929 . S
C1670 C1662 1.378 1_455 S
C1670 C1665 1.350 . S
C1671 H1658 0.929 . S
C1671 C1663 1.433 . S
C1671 N1673 1.384 1_655 S
N1672 C1668 1.427 . S
N1672 C1669 1.384 . S
N1673 C1665 1.427 . S
N1673 C1671 1.384 1_455 S
H1674 C1680 0.930 . S
H1675 C1684 0.930 . S
H1676 C1689 0.929 . S
H1677 C1687 0.929 . S
H1678 C1682 0.929 . S
H1679 C1688 0.929 . S
C1680 H1674 0.930 . S
C1680 C1681 1.367 . S
C1680 C1688 1.378 . S
C1681 C1680 1.367 . S
C1681 C1689 1.433 . S
C1682 H1678 0.929 . S
C1682 C1684 1.378 . S
C1682 C1686 1.350 . S
C1683 C1686 1.463 . S
C1683 C1688 1.350 . S
C1683 N1691 1.427 . S
C1684 H1675 0.930 . S
C1684 C1682 1.378 . S
C1684 C1685 1.367 . S
C1685 C1684 1.367 . S
C1685 C1687 1.433 . S
C1686 C1682 1.350 . S
C1686 C1683 1.463 . S
C1686 N1690 1.427 . S
C1687 H1677 0.929 . S
C1687 C1685 1.433 . S
C1687 N1690 1.384 . S
C1688 H1679 0.929 . S
C1688 C1680 1.378 . S
C1688 C1683 1.350 . S
C1689 H1676 0.929 . S
C1689 C1681 1.433 . S
C1689 N1691 1.384 . S
N1690 C1686 1.427 . S
N1690 C1687 1.384 . S
N1691 C1683 1.427 . S
N1691 C1689 1.384 . S
H1692 C1698 0.930 . S
H1693 C1702 0.930 . S
H1694 C1707 0.929 . S
H1695 C1705 0.929 . S
H1696 C1700 0.929 . S
H1697 C1706 0.929 1_565 S
C1698 H1692 0.930 . S
C1698 C1699 1.367 . S
C1698 C1706 1.378 . S
C1699 C1698 1.367 . S
C1699 C1707 1.433 . S
C1700 H1696 0.929 . S
C1700 C1702 1.378 . S
C1700 C1704 1.350 . S
C1701 C1704 1.463 . S
C1701 C1706 1.350 1_565 S
C1701 N1709 1.427 1_565 S
C1702 H1693 0.930 . S
C1702 C1700 1.378 . S
C1702 C1703 1.367 . S
C1703 C1702 1.367 . S
C1703 C1705 1.433 . S
C1704 C1700 1.350 . S
C1704 C1701 1.463 . S
C1704 N1708 1.427 . S
C1705 H1695 0.929 . S
C1705 C1703 1.433 . S
C1705 N1708 1.384 . S
C1706 H1697 0.929 1_545 S
C1706 C1698 1.378 . S
C1706 C1701 1.350 1_545 S
C1707 H1694 0.929 . S
C1707 C1699 1.433 . S
C1707 N1709 1.384 . S
N1708 C1704 1.427 . S
N1708 C1705 1.384 . S
N1709 C1701 1.427 1_545 S
N1709 C1707 1.384 . S
H1710 C1716 0.930 . S
H1711 C1720 0.930 . S
H1712 C1725 0.929 . S
H1713 C1723 0.929 . S
H1714 C1718 0.929 . S
H1715 C1724 0.929 . S
C1716 H1710 0.930 . S
C1716 C1717 1.367 . S
C1716 C1724 1.378 . S
C1717 C1716 1.367 . S
C1717 C1725 1.433 . S
C1718 H1714 0.929 . S
C1718 C1720 1.378 . S
C1718 C1722 1.350 . S
C1719 C1722 1.463 . S
C1719 C1724 1.350 . S
C1719 N1727 1.427 . S
C1720 H1711 0.930 . S
C1720 C1718 1.378 . S
C1720 C1721 1.367 . S
C1721 C1720 1.367 . S
C1721 C1723 1.433 . S
C1722 C1718 1.350 . S
C1722 C1719 1.463 . S
C1722 N1726 1.427 . S
C1723 H1713 0.929 . S
C1723 C1721 1.433 . S
C1723 N1726 1.384 . S
C1724 H1715 0.929 . S
C1724 C1716 1.378 . S
C1724 C1719 1.350 . S
C1725 H1712 0.929 . S
C1725 C1717 1.433 . S
C1725 N1727 1.384 . S
N1726 C1722 1.427 . S
N1726 C1723 1.384 . S
N1727 C1719 1.427 . S
N1727 C1725 1.384 . S
H1728 C1734 0.930 . S
H1729 C1738 0.930 . S
H1730 C1743 0.929 . S
H1731 C1741 0.929 . S
H1732 C1736 0.929 . S
H1733 C1742 0.929 . S
C1734 H1728 0.930 . S
C1734 C1735 1.367 . S
C1734 C1742 1.378 . S
C1735 C1734 1.367 . S
C1735 C1743 1.433 . S
C1736 H1732 0.929 . S
C1736 C1738 1.378 . S
C1736 C1740 1.350 . S
C1737 C1740 1.463 . S
C1737 C1742 1.350 . S
C1737 N1745 1.427 . S
C1738 H1729 0.930 . S
C1738 C1736 1.378 . S
C1738 C1739 1.367 . S
C1739 C1738 1.367 . S
C1739 C1741 1.433 . S
C1740 C1736 1.350 . S
C1740 C1737 1.463 . S
C1740 N1744 1.427 . S
C1741 H1731 0.929 . S
C1741 C1739 1.433 . S
C1741 N1744 1.384 . S
C1742 H1733 0.929 . S
C1742 C1734 1.378 . S
C1742 C1737 1.350 . S
C1743 H1730 0.929 . S
C1743 C1735 1.433 . S
C1743 N1745 1.384 . S
N1744 C1740 1.427 . S
N1744 C1741 1.384 . S
N1745 C1737 1.427 . S
N1745 C1743 1.384 . S
H1746 C1752 0.930 . S
H1747 C1756 0.930 . S
H1748 C1761 0.929 . S
H1749 C1759 0.929 . S
H1750 C1754 0.929 . S
H1751 C1760 0.929 . S
C1752 H1746 0.930 . S
C1752 C1753 1.367 . S
C1752 C1760 1.378 . S
C1753 C1752 1.367 . S
C1753 C1761 1.433 . S
C1754 H1750 0.929 . S
C1754 C1756 1.378 . S
C1754 C1758 1.350 . S
C1755 C1758 1.463 . S
C1755 C1760 1.350 . S
C1755 N1763 1.427 . S
C1756 H1747 0.930 . S
C1756 C1754 1.378 . S
C1756 C1757 1.367 . S
C1757 C1756 1.367 . S
C1757 C1759 1.433 . S
C1758 C1754 1.350 . S
C1758 C1755 1.463 . S
C1758 N1762 1.427 . S
C1759 H1749 0.929 . S
C1759 C1757 1.433 . S
C1759 N1762 1.384 . S
C1760 H1751 0.929 . S
C1760 C1752 1.378 . S
C1760 C1755 1.350 . S
C1761 H1748 0.929 . S
C1761 C1753 1.433 . S
C1761 N1763 1.384 . S
N1762 C1758 1.427 . S
N1762 C1759 1.384 . S
N1763 C1755 1.427 . S
N1763 C1761 1.384 . S
H1764 C1770 0.930 . S
H1765 C1774 0.930 . S
H1766 C1779 0.929 . S
H1767 C1777 0.929 . S
H1768 C1772 0.929 . S
H1769 C1778 0.929 . S
C1770 H1764 0.930 . S
C1770 C1771 1.367 . S
C1770 C1778 1.378 . S
C1771 C1770 1.367 . S
C1771 C1779 1.433 . S
C1772 H1768 0.929 . S
C1772 C1774 1.378 . S
C1772 C1776 1.350 . S
C1773 C1776 1.463 . S
C1773 C1778 1.350 . S
C1773 N1781 1.427 . S
C1774 H1765 0.930 . S
C1774 C1772 1.378 . S
C1774 C1775 1.367 . S
C1775 C1774 1.367 . S
C1775 C1777 1.433 . S
C1776 C1772 1.350 . S
C1776 C1773 1.463 . S
C1776 N1780 1.427 . S
C1777 H1767 0.929 . S
C1777 C1775 1.433 . S
C1777 N1780 1.384 . S
C1778 H1769 0.929 . S
C1778 C1770 1.378 . S
C1778 C1773 1.350 . S
C1779 H1766 0.929 . S
C1779 C1771 1.433 . S
C1779 N1781 1.384 . S
N1780 C1776 1.427 . S
N1780 C1777 1.384 . S
N1781 C1773 1.427 . S
N1781 C1779 1.384 . S
H1782 C1788 0.930 . S
H1783 C1792 0.930 . S
H1784 C1797 0.929 . S
H1785 C1795 0.929 . S
H1786 C1790 0.929 . S
H1787 C1796 0.929 . S
C1788 H1782 0.930 . S
C1788 C1789 1.367 . S
C1788 C1796 1.378 . S
C1789 C1788 1.367 . S
C1789 C1797 1.433 . S
C1790 H1786 0.929 . S
C1790 C1792 1.378 . S
C1790 C1794 1.350 . S
C1791 C1794 1.463 . S
C1791 C1796 1.350 . S
C1791 N1799 1.427 . S
C1792 H1783 0.930 . S
C1792 C1790 1.378 . S
C1792 C1793 1.367 . S
C1793 C1792 1.367 . S
C1793 C1795 1.433 . S
C1794 C1790 1.350 . S
C1794 C1791 1.463 . S
C1794 N1798 1.427 . S
C1795 H1785 0.929 . S
C1795 C1793 1.433 . S
C1795 N1798 1.384 . S
C1796 H1787 0.929 . S
C1796 C1788 1.378 . S
C1796 C1791 1.350 . S
C1797 H1784 0.929 . S
C1797 C1789 1.433 . S
C1797 N1799 1.384 . S
N1798 C1794 1.427 . S
N1798 C1795 1.384 . S
N1799 C1791 1.427 . S
N1799 C1797 1.384 . S
H1800 C1806 0.930 . S
H1801 C1810 0.930 . S
H1802 C1815 0.929 . S
H1803 C1813 0.929 . S
H1804 C1808 0.929 . S
H1805 C1814 0.929 . S
C1806 H1800 0.930 . S
C1806 C1807 1.367 . S
C1806 C1814 1.378 . S
C1807 C1806 1.367 . S
C1807 C1815 1.433 . S
C1808 H1804 0.929 . S
C1808 C1810 1.378 . S
C1808 C1812 1.350 . S
C1809 C1812 1.463 . S
C1809 C1814 1.350 . S
C1809 N1817 1.427 . S
C1810 H1801 0.930 . S
C1810 C1808 1.378 . S
C1810 C1811 1.367 . S
C1811 C1810 1.367 . S
C1811 C1813 1.433 . S
C1812 C1808 1.350 . S
C1812 C1809 1.463 . S
C1812 N1816 1.427 . S
C1813 H1803 0.929 . S
C1813 C1811 1.433 . S
C1813 N1816 1.384 . S
C1814 H1805 0.929 . S
C1814 C1806 1.378 . S
C1814 C1809 1.350 . S
C1815 H1802 0.929 . S
C1815 C1807 1.433 . S
C1815 N1817 1.384 . S
N1816 C1812 1.427 . S
N1816 C1813 1.384 . S
N1817 C1809 1.427 . S
N1817 C1815 1.384 . S
H1818 C1824 0.930 . S
H1819 C1828 0.930 . S
H1820 C1833 0.929 . S
H1821 C1831 0.929 . S
H1822 C1826 0.929 . S
H1823 C1832 0.929 . S
C1824 H1818 0.930 . S
C1824 C1825 1.367 . S
C1824 C1832 1.378 1_545 S
C1825 C1824 1.367 . S
C1825 C1833 1.433 . S
C1826 H1822 0.929 . S
C1826 C1828 1.378 . S
C1826 C1830 1.350 . S
C1827 C1830 1.463 . S
C1827 C1832 1.350 . S
C1827 N1835 1.427 1_565 S
C1828 H1819 0.930 . S
C1828 C1826 1.378 . S
C1828 C1829 1.367 . S
C1829 C1828 1.367 . S
C1829 C1831 1.433 . S
C1830 C1826 1.350 . S
C1830 C1827 1.463 . S
C1830 N1834 1.427 . S
C1831 H1821 0.929 . S
C1831 C1829 1.433 . S
C1831 N1834 1.384 . S
C1832 H1823 0.929 . S
C1832 C1824 1.378 1_565 S
C1832 C1827 1.350 . S
C1833 H1820 0.929 . S
C1833 C1825 1.433 . S
C1833 N1835 1.384 . S
N1834 C1830 1.427 . S
N1834 C1831 1.384 . S
N1835 C1827 1.427 1_545 S
N1835 C1833 1.384 . S
H1836 C1842 0.930 . S
H1837 C1846 0.930 . S
H1838 C1851 0.929 . S
H1839 C1849 0.929 . S
H1840 C1844 0.929 . S
H1841 C1850 0.929 . S
C1842 H1836 0.930 . S
C1842 C1843 1.367 1_455 S
C1842 C1850 1.378 . S
C1843 C1842 1.367 1_655 S
C1843 C1851 1.433 . S
C1844 H1840 0.929 . S
C1844 C1846 1.378 . S
C1844 C1848 1.350 . S
C1845 C1848 1.463 . S
C1845 C1850 1.350 . S
C1845 N1853 1.427 . S
C1846 H1837 0.930 . S
C1846 C1844 1.378 . S
C1846 C1847 1.367 . S
C1847 C1846 1.367 . S
C1847 C1849 1.433 . S
C1848 C1844 1.350 . S
C1848 C1845 1.463 . S
C1848 N1852 1.427 . S
C1849 H1839 0.929 . S
C1849 C1847 1.433 . S
C1849 N1852 1.384 . S
C1850 H1841 0.929 . S
C1850 C1842 1.378 . S
C1850 C1845 1.350 . S
C1851 H1838 0.929 . S
C1851 C1843 1.433 . S
C1851 N1853 1.384 1_655 S
N1852 C1848 1.427 . S
N1852 C1849 1.384 . S
N1853 C1845 1.427 . S
N1853 C1851 1.384 1_455 S
H1854 C1860 0.930 . S
H1855 C1864 0.930 . S
H1856 C1869 0.929 . S
H1857 C1867 0.929 . S
H1858 C1862 0.929 . S
H1859 C1868 0.929 . S
C1860 H1854 0.930 . S
C1860 C1861 1.367 . S
C1860 C1868 1.378 . S
C1861 C1860 1.367 . S
C1861 C1869 1.433 . S
C1862 H1858 0.929 . S
C1862 C1864 1.378 . S
C1862 C1866 1.350 . S
C1863 C1866 1.463 . S
C1863 C1868 1.350 . S
C1863 N1871 1.427 . S
C1864 H1855 0.930 . S
C1864 C1862 1.378 . S
C1864 C1865 1.367 . S
C1865 C1864 1.367 . S
C1865 C1867 1.433 . S
C1866 C1862 1.350 . S
C1866 C1863 1.463 . S
C1866 N1870 1.427 . S
C1867 H1857 0.929 . S
C1867 C1865 1.433 . S
C1867 N1870 1.384 . S
C1868 H1859 0.929 . S
C1868 C1860 1.378 . S
C1868 C1863 1.350 . S
C1869 H1856 0.929 . S
C1869 C1861 1.433 . S
C1869 N1871 1.384 . S
N1870 C1866 1.427 . S
N1870 C1867 1.384 . S
N1871 C1863 1.427 . S
N1871 C1869 1.384 . S
H1872 C1878 0.930 . S
H1873 C1882 0.930 . S
H1874 C1887 0.929 . S
H1875 C1885 0.929 . S
H1876 C1880 0.929 . S
H1877 C1886 0.929 . S
C1878 H1872 0.930 . S
C1878 C1879 1.367 . S
C1878 C1886 1.378 . S
C1879 C1878 1.367 . S
C1879 C1887 1.433 . S
C1880 H1876 0.929 . S
C1880 C1882 1.378 . S
C1880 C1884 1.350 . S
C1881 C1884 1.463 . S
C1881 C1886 1.350 . S
C1881 N1889 1.427 . S
C1882 H1873 0.930 . S
C1882 C1880 1.378 . S
C1882 C1883 1.367 . S
C1883 C1882 1.367 . S
C1883 C1885 1.433 . S
C1884 C1880 1.350 . S
C1884 C1881 1.463 . S
C1884 N1888 1.427 . S
C1885 H1875 0.929 . S
C1885 C1883 1.433 . S
C1885 N1888 1.384 . S
C1886 H1877 0.929 . S
C1886 C1878 1.378 . S
C1886 C1881 1.350 . S
C1887 H1874 0.929 . S
C1887 C1879 1.433 . S
C1887 N1889 1.384 . S
N1888 C1884 1.427 . S
N1888 C1885 1.384 . S
N1889 C1881 1.427 . S
N1889 C1887 1.384 . S
H1890 C1896 0.930 . S
H1891 C1900 0.930 . S
H1892 C1905 0.929 . S
H1893 C1903 0.929 . S
H1894 C1898 0.929 . S
H1895 C1904 0.929 . S
C1896 H1890 0.930 . S
C1896 C1897 1.367 . S
C1896 C1904 1.378 . S
C1897 C1896 1.367 . S
C1897 C1905 1.433 . S
C1898 H1894 0.929 . S
C1898 C1900 1.378 . S
C1898 C1902 1.350 . S
C1899 C1902 1.463 . S
C1899 C1904 1.350 . S
C1899 N1907 1.427 . S
C1900 H1891 0.930 . S
C1900 C1898 1.378 . S
C1900 C1901 1.367 . S
C1901 C1900 1.367 . S
C1901 C1903 1.433 . S
C1902 C1898 1.350 . S
C1902 C1899 1.463 . S
C1902 N1906 1.427 . S
C1903 H1893 0.929 . S
C1903 C1901 1.433 . S
C1903 N1906 1.384 . S
C1904 H1895 0.929 . S
C1904 C1896 1.378 . S
C1904 C1899 1.350 . S
C1905 H1892 0.929 . S
C1905 C1897 1.433 . S
C1905 N1907 1.384 . S
N1906 C1902 1.427 . S
N1906 C1903 1.384 . S
N1907 C1899 1.427 . S
N1907 C1905 1.384 . S
H1908 C1914 0.930 . S
H1909 C1918 0.930 . S
H1910 C1923 0.929 . S
H1911 C1921 0.929 . S
H1912 C1916 0.929 . S
H1913 C1922 0.929 . S
C1914 H1908 0.930 . S
C1914 C1915 1.367 . S
C1914 C1922 1.378 . S
C1915 C1914 1.367 . S
C1915 C1923 1.433 . S
C1916 H1912 0.929 . S
C1916 C1918 1.378 . S
C1916 C1920 1.350 . S
C1917 C1920 1.463 . S
C1917 C1922 1.350 . S
C1917 N1925 1.427 . S
C1918 H1909 0.930 . S
C1918 C1916 1.378 . S
C1918 C1919 1.367 . S
C1919 C1918 1.367 . S
C1919 C1921 1.433 . S
C1920 C1916 1.350 . S
C1920 C1917 1.463 . S
C1920 N1924 1.427 . S
C1921 H1911 0.929 . S
C1921 C1919 1.433 . S
C1921 N1924 1.384 . S
C1922 H1913 0.929 . S
C1922 C1914 1.378 . S
C1922 C1917 1.350 . S
C1923 H1910 0.929 . S
C1923 C1915 1.433 . S
C1923 N1925 1.384 . S
N1924 C1920 1.427 . S
N1924 C1921 1.384 . S
N1925 C1917 1.427 . S
N1925 C1923 1.384 . S
H1926 C1932 0.930 . S
H1927 C1936 0.930 . S
H1928 C1941 0.929 . S
H1929 C1939 0.929 . S
H1930 C1934 0.929 . S
H1931 C1940 0.928 1_545 S
C1932 H1926 0.930 . S
C1932 C1933 1.367 . S
C1932 C1940 1.402 . S
C1933 C1932 1.367 . S
C1933 C1941 1.433 . S
C1934 H1930 0.929 . S
C1934 C1936 1.378 . S
C1934 C1938 1.350 . S
C1935 C1938 1.463 . S
C1935 C1940 1.326 1_545 S
C1935 N1943 1.427 . S
C1936 H1927 0.930 . S
C1936 C1934 1.378 . S
C1936 C1937 1.367 . S
C1937 C1936 1.367 . S
C1937 C1939 1.433 . S
C1938 C1934 1.350 . S
C1938 C1935 1.463 . S
C1938 N1942 1.427 . S
C1939 H1929 0.929 . S
C1939 C1937 1.433 . S
C1939 N1942 1.384 . S
C1940 H1931 0.928 1_565 S
C1940 C1932 1.402 . S
C1940 C1935 1.326 1_565 S
C1941 H1928 0.929 . S
C1941 C1933 1.433 . S
C1941 N1943 1.384 1_565 S
N1942 C1938 1.427 . S
N1942 C1939 1.384 . S
N1943 C1935 1.427 . S
N1943 C1941 1.384 1_545 S
H1944 C1950 0.930 1_455 S
H1945 C1954 0.930 . S
H1946 C1959 0.929 . S
H1947 C1957 0.929 . S
H1948 C1952 0.929 . S
H1949 C1958 0.929 . S
C1950 H1944 0.930 1_655 S
C1950 C1951 1.367 1_655 S
C1950 C1958 1.378 . S
C1951 C1950 1.367 1_455 S
C1951 C1959 1.433 . S
C1952 H1948 0.929 . S
C1952 C1954 1.378 . S
C1952 C1956 1.350 . S
C1953 C1956 1.463 . S
C1953 C1958 1.350 . S
C1953 N1961 1.427 . S
C1954 H1945 0.930 . S
C1954 C1952 1.378 . S
C1954 C1955 1.367 . S
C1955 C1954 1.367 . S
C1955 C1957 1.433 . S
C1956 C1952 1.350 . S
C1956 C1953 1.463 . S
C1956 N1960 1.427 . S
C1957 H1947 0.929 . S
C1957 C1955 1.433 . S
C1957 N1960 1.384 . S
C1958 H1949 0.929 . S
C1958 C1950 1.378 . S
C1958 C1953 1.350 . S
C1959 H1946 0.929 . S
C1959 C1951 1.433 . S
C1959 N1961 1.384 1_455 S
N1960 C1956 1.427 . S
N1960 C1957 1.384 . S
N1961 C1953 1.427 . S
N1961 C1959 1.384 1_655 S
H1962 C1968 0.930 . S
H1963 C1972 0.930 . S
H1964 C1977 0.929 . S
H1965 C1975 0.929 . S
H1966 C1970 0.929 . S
H1967 C1976 0.929 . S
C1968 H1962 0.930 . S
C1968 C1969 1.367 . S
C1968 C1976 1.378 . S
C1969 C1968 1.367 . S
C1969 C1977 1.433 . S
C1970 H1966 0.929 . S
C1970 C1972 1.378 . S
C1970 C1974 1.350 . S
C1971 C1974 1.463 . S
C1971 C1976 1.350 . S
C1971 N1979 1.427 . S
C1972 H1963 0.930 . S
C1972 C1970 1.378 . S
C1972 C1973 1.367 . S
C1973 C1972 1.367 . S
C1973 C1975 1.433 . S
C1974 C1970 1.350 . S
C1974 C1971 1.463 . S
C1974 N1978 1.427 . S
C1975 H1965 0.929 . S
C1975 C1973 1.433 . S
C1975 N1978 1.384 . S
C1976 H1967 0.929 . S
C1976 C1968 1.378 . S
C1976 C1971 1.350 . S
C1977 H1964 0.929 . S
C1977 C1969 1.433 . S
C1977 N1979 1.384 . S
N1978 C1974 1.427 . S
N1978 C1975 1.384 . S
N1979 C1971 1.427 . S
N1979 C1977 1.384 . S
H1980 C1986 0.930 . S
H1981 C1990 0.930 . S
H1982 C1995 0.929 . S
H1983 C1993 0.929 . S
H1984 C1988 0.929 . S
H1985 C1994 0.929 . S
C1986 H1980 0.930 . S
C1986 C1987 1.367 . S
C1986 C1994 1.378 1_455 S
C1987 C1986 1.367 . S
C1987 C1995 1.433 . S
C1988 H1984 0.929 . S
C1988 C1990 1.378 . S
C1988 C1992 1.350 . S
C1989 C1992 1.463 . S
C1989 C1994 1.350 . S
C1989 N1997 1.427 . S
C1990 H1981 0.930 . S
C1990 C1988 1.378 . S
C1990 C1991 1.367 . S
C1991 C1990 1.367 . S
C1991 C1993 1.433 . S
C1992 C1988 1.350 . S
C1992 C1989 1.463 . S
C1992 N1996 1.427 . S
C1993 H1983 0.929 . S
C1993 C1991 1.433 . S
C1993 N1996 1.384 . S
C1994 H1985 0.929 . S
C1994 C1986 1.378 1_655 S
C1994 C1989 1.350 . S
C1995 H1982 0.929 . S
C1995 C1987 1.433 . S
C1995 N1997 1.384 1_455 S
N1996 C1992 1.427 . S
N1996 C1993 1.384 . S
N1997 C1989 1.427 . S
N1997 C1995 1.384 1_655 S
H1998 C2004 0.930 . S
H1999 C2008 0.930 . S
H2000 C2013 0.929 . S
H2001 C2011 0.929 . S
H2002 C2006 0.929 . S
H2003 C2012 0.929 . S
C2004 H1998 0.930 . S
C2004 C2005 1.367 . S
C2004 C2012 1.378 . S
C2005 C2004 1.367 . S
C2005 C2013 1.433 . S
C2006 H2002 0.929 . S
C2006 C2008 1.378 . S
C2006 C2010 1.350 . S
C2007 C2010 1.463 . S
C2007 C2012 1.350 . S
C2007 N2015 1.427 . S
C2008 H1999 0.930 . S
C2008 C2006 1.378 . S
C2008 C2009 1.367 . S
C2009 C2008 1.367 . S
C2009 C2011 1.433 . S
C2010 C2006 1.350 . S
C2010 C2007 1.463 . S
C2010 N2014 1.427 . S
C2011 H2001 0.929 . S
C2011 C2009 1.433 . S
C2011 N2014 1.384 . S
C2012 H2003 0.929 . S
C2012 C2004 1.378 . S
C2012 C2007 1.350 . S
C2013 H2000 0.929 . S
C2013 C2005 1.433 . S
C2013 N2015 1.384 . S
N2014 C2010 1.427 . S
N2014 C2011 1.384 . S
N2015 C2007 1.427 . S
N2015 C2013 1.384 . S
H2016 C2022 0.930 . S
H2017 C2026 0.930 . S
H2018 C2031 0.929 . S
H2019 C2029 0.929 . S
H2020 C2024 0.929 . S
H2021 C2030 0.929 1_545 S
C2022 H2016 0.930 . S
C2022 C2023 1.367 . S
C2022 C2030 1.378 . S
C2023 C2022 1.367 . S
C2023 C2031 1.433 . S
C2024 H2020 0.929 . S
C2024 C2026 1.378 . S
C2024 C2028 1.350 . S
C2025 C2028 1.463 . S
C2025 C2030 1.350 1_545 S
C2025 N2033 1.427 1_545 S
C2026 H2017 0.930 . S
C2026 C2024 1.378 . S
C2026 C2027 1.367 . S
C2027 C2026 1.367 . S
C2027 C2029 1.433 . S
C2028 C2024 1.350 . S
C2028 C2025 1.463 . S
C2028 N2032 1.427 . S
C2029 H2019 0.929 . S
C2029 C2027 1.433 . S
C2029 N2032 1.384 . S
C2030 H2021 0.929 1_565 S
C2030 C2022 1.378 . S
C2030 C2025 1.350 1_565 S
C2031 H2018 0.929 . S
C2031 C2023 1.433 . S
C2031 N2033 1.430 . S
N2032 C2028 1.427 . S
N2032 C2029 1.384 . S
N2033 C2025 1.427 1_565 S
N2033 C2031 1.430 . S
H2034 C2040 0.930 . S
H2035 C2044 0.930 . S
H2036 C2049 0.929 . S
H2037 C2047 0.929 . S
H2038 C2042 0.929 . S
H2039 C2048 0.929 . S
C2040 H2034 0.930 . S
C2040 C2041 1.367 . S
C2040 C2048 1.378 . S
C2041 C2040 1.367 . S
C2041 C2049 1.433 . S
C2042 H2038 0.929 . S
C2042 C2044 1.378 . S
C2042 C2046 1.350 . S
C2043 C2046 1.463 . S
C2043 C2048 1.350 . S
C2043 N2051 1.427 . S
C2044 H2035 0.930 . S
C2044 C2042 1.378 . S
C2044 C2045 1.367 . S
C2045 C2044 1.367 . S
C2045 C2047 1.433 . S
C2046 C2042 1.350 . S
C2046 C2043 1.463 . S
C2046 N2050 1.427 . S
C2047 H2037 0.929 . S
C2047 C2045 1.433 . S
C2047 N2050 1.384 . S
C2048 H2039 0.929 . S
C2048 C2040 1.378 . S
C2048 C2043 1.350 . S
C2049 H2036 0.929 . S
C2049 C2041 1.433 . S
C2049 N2051 1.384 . S
N2050 C2046 1.427 . S
N2050 C2047 1.384 . S
N2051 C2043 1.427 . S
N2051 C2049 1.384 . S
H2052 C2058 0.930 . S
H2053 C2062 0.930 . S
H2054 C2067 0.929 . S
H2055 C2065 0.929 . S
H2056 C2060 0.929 . S
H2057 C2066 0.929 . S
C2058 H2052 0.930 . S
C2058 C2059 1.367 . S
C2058 C2066 1.378 . S
C2059 C2058 1.367 . S
C2059 C2067 1.433 . S
C2060 H2056 0.929 . S
C2060 C2062 1.378 . S
C2060 C2064 1.350 . S
C2061 C2064 1.463 . S
C2061 C2066 1.350 . S
C2061 N2069 1.427 . S
C2062 H2053 0.930 . S
C2062 C2060 1.378 . S
C2062 C2063 1.367 . S
C2063 C2062 1.367 . S
C2063 C2065 1.433 . S
C2064 C2060 1.350 . S
C2064 C2061 1.463 . S
C2064 N2068 1.427 . S
C2065 H2055 0.929 . S
C2065 C2063 1.433 . S
C2065 N2068 1.384 . S
C2066 H2057 0.929 . S
C2066 C2058 1.378 . S
C2066 C2061 1.350 . S
C2067 H2054 0.929 . S
C2067 C2059 1.433 . S
C2067 N2069 1.384 . S
N2068 C2064 1.427 . S
N2068 C2065 1.384 . S
N2069 C2061 1.427 . S
N2069 C2067 1.384 . S
H2070 C2076 0.930 . S
H2071 C2080 0.930 . S
H2072 C2085 0.929 . S
H2073 C2083 0.929 . S
H2074 C2078 0.929 . S
H2075 C2084 0.929 . S
C2076 H2070 0.930 . S
C2076 C2077 1.367 . S
C2076 C2084 1.378 . S
C2077 C2076 1.367 . S
C2077 C2085 1.433 . S
C2078 H2074 0.929 . S
C2078 C2080 1.378 . S
C2078 C2082 1.350 . S
C2079 C2082 1.463 . S
C2079 C2084 1.350 . S
C2079 N2087 1.427 . S
C2080 H2071 0.930 . S
C2080 C2078 1.378 . S
C2080 C2081 1.367 . S
C2081 C2080 1.367 . S
C2081 C2083 1.433 . S
C2082 C2078 1.350 . S
C2082 C2079 1.463 . S
C2082 N2086 1.427 . S
C2083 H2073 0.929 . S
C2083 C2081 1.433 . S
C2083 N2086 1.384 . S
C2084 H2075 0.929 . S
C2084 C2076 1.378 . S
C2084 C2079 1.350 . S
C2085 H2072 0.929 . S
C2085 C2077 1.433 . S
C2085 N2087 1.384 . S
N2086 C2082 1.427 . S
N2086 C2083 1.384 . S
N2087 C2079 1.427 . S
N2087 C2085 1.384 . S
H2088 C2094 0.930 . S
H2089 C2098 0.930 . S
H2090 C2103 0.929 . S
H2091 C2101 0.929 . S
H2092 C2096 0.929 . S
H2093 C2102 0.929 1_545 S
C2094 H2088 0.930 . S
C2094 C2095 1.367 . S
C2094 C2102 1.378 . S
C2095 C2094 1.367 . S
C2095 C2103 1.433 . S
C2096 H2092 0.929 . S
C2096 C2098 1.378 . S
C2096 C2100 1.350 . S
C2097 C2100 1.463 . S
C2097 C2102 1.350 . S
C2097 N2105 1.427 . S
C2098 H2089 0.930 . S
C2098 C2096 1.378 . S
C2098 C2099 1.367 . S
C2099 C2098 1.367 . S
C2099 C2101 1.433 1_565 S
C2100 C2096 1.350 . S
C2100 C2097 1.463 . S
C2100 N2104 1.427 1_565 S
C2101 H2091 0.929 . S
C2101 C2099 1.433 1_545 S
C2101 N2104 1.384 . S
C2102 H2093 0.929 1_565 S
C2102 C2094 1.378 . S
C2102 C2097 1.350 . S
C2103 H2090 0.929 . S
C2103 C2095 1.433 . S
C2103 N2105 1.384 . S
N2104 C2100 1.427 1_545 S
N2104 C2101 1.384 . S
N2105 C2097 1.427 . S
N2105 C2103 1.384 . S
H2106 C2112 0.930 . S
H2107 C2116 0.930 . S
H2108 C2121 0.929 . S
H2109 C2119 0.929 . S
H2110 C2114 0.929 . S
H2111 C2120 0.929 . S
C2112 H2106 0.930 . S
C2112 C2113 1.367 . S
C2112 C2120 1.378 . S
C2113 C2112 1.367 . S
C2113 C2121 1.433 1_455 S
C2114 H2110 0.929 . S
C2114 C2116 1.378 . S
C2114 C2118 1.350 1_655 S
C2115 C2118 1.463 . S
C2115 C2120 1.350 . S
C2115 N2123 1.427 1_455 S
C2116 H2107 0.930 . S
C2116 C2114 1.378 . S
C2116 C2117 1.367 1_655 S
C2117 C2116 1.367 1_455 S
C2117 C2119 1.433 . S
C2118 C2114 1.350 1_455 S
C2118 C2115 1.463 . S
C2118 N2122 1.427 . S
C2119 H2109 0.929 . S
C2119 C2117 1.433 . S
C2119 N2122 1.384 . S
C2120 H2111 0.929 . S
C2120 C2112 1.378 . S
C2120 C2115 1.350 . S
C2121 H2108 0.929 . S
C2121 C2113 1.433 1_655 S
C2121 N2123 1.384 . S
N2122 C2118 1.427 . S
N2122 C2119 1.384 . S
N2123 C2115 1.427 1_655 S
N2123 C2121 1.384 . S
H2124 C2130 0.930 . S
H2125 C2134 0.930 . S
H2126 C2139 0.929 . S
H2127 C2137 0.929 . S
H2128 C2132 0.929 . S
H2129 C2138 0.929 . S
C2130 H2124 0.930 . S
C2130 C2131 1.367 . S
C2130 C2138 1.378 . S
C2131 C2130 1.367 . S
C2131 C2139 1.433 . S
C2132 H2128 0.929 . S
C2132 C2134 1.378 . S
C2132 C2136 1.350 . S
C2133 C2136 1.463 . S
C2133 C2138 1.350 . S
C2133 N2141 1.427 . S
C2134 H2125 0.930 . S
C2134 C2132 1.378 . S
C2134 C2135 1.367 . S
C2135 C2134 1.367 . S
C2135 C2137 1.433 . S
C2136 C2132 1.350 . S
C2136 C2133 1.463 . S
C2136 N2140 1.427 . S
C2137 H2127 0.929 . S
C2137 C2135 1.433 . S
C2137 N2140 1.384 . S
C2138 H2129 0.929 . S
C2138 C2130 1.378 . S
C2138 C2133 1.350 . S
C2139 H2126 0.929 . S
C2139 C2131 1.433 . S
C2139 N2141 1.384 . S
N2140 C2136 1.427 . S
N2140 C2137 1.384 . S
N2141 C2133 1.427 . S
N2141 C2139 1.384 . S
H2142 C2148 0.930 . S
H2143 C2152 0.930 . S
H2144 C2157 0.929 . S
H2145 C2155 0.929 . S
H2146 C2150 0.929 . S
H2147 C2156 0.929 . S
C2148 H2142 0.930 . S
C2148 C2149 1.367 . S
C2148 C2156 1.378 . S
C2149 C2148 1.367 . S
C2149 C2157 1.433 . S
C2150 H2146 0.929 . S
C2150 C2152 1.378 . S
C2150 C2154 1.350 . S
C2151 C2154 1.463 . S
C2151 C2156 1.350 . S
C2151 N2159 1.427 . S
C2152 H2143 0.930 . S
C2152 C2150 1.378 . S
C2152 C2153 1.367 . S
C2153 C2152 1.367 . S
C2153 C2155 1.433 . S
C2154 C2150 1.350 . S
C2154 C2151 1.463 . S
C2154 N2158 1.427 . S
C2155 H2145 0.929 . S
C2155 C2153 1.433 . S
C2155 N2158 1.384 . S
C2156 H2147 0.929 . S
C2156 C2148 1.378 . S
C2156 C2151 1.350 . S
C2157 H2144 0.929 . S
C2157 C2149 1.433 . S
C2157 N2159 1.384 . S
N2158 C2154 1.427 . S
N2158 C2155 1.384 . S
N2159 C2151 1.427 . S
N2159 C2157 1.384 . S
H2160 C2166 0.930 . S
H2161 C2170 0.930 . S
H2162 C2175 0.929 . S
H2163 C2173 0.929 . S
H2164 C2168 0.929 . S
H2165 C2174 0.929 . S
C2166 H2160 0.930 . S
C2166 C2167 1.367 . S
C2166 C2174 1.378 . S
C2167 C2166 1.367 . S
C2167 C2175 1.433 . S
C2168 H2164 0.929 . S
C2168 C2170 1.378 . S
C2168 C2172 1.350 . S
C2169 C2172 1.463 . S
C2169 C2174 1.350 . S
C2169 N2177 1.427 . S
C2170 H2161 0.930 . S
C2170 C2168 1.378 . S
C2170 C2171 1.367 . S
C2171 C2170 1.367 . S
C2171 C2173 1.433 . S
C2172 C2168 1.350 . S
C2172 C2169 1.463 . S
C2172 N2176 1.427 . S
C2173 H2163 0.929 . S
C2173 C2171 1.433 . S
C2173 N2176 1.384 . S
C2174 H2165 0.929 . S
C2174 C2166 1.378 . S
C2174 C2169 1.350 . S
C2175 H2162 0.929 . S
C2175 C2167 1.433 . S
C2175 N2177 1.384 . S
N2176 C2172 1.427 . S
N2176 C2173 1.384 . S
N2177 C2169 1.427 . S
N2177 C2175 1.384 . S
H2178 C2184 0.930 . S
H2179 C2188 0.930 . S
H2180 C2193 0.929 . S
H2181 C2191 0.929 . S
H2182 C2186 0.929 . S
H2183 C2192 0.929 . S
C2184 H2178 0.930 . S
C2184 C2185 1.367 . S
C2184 C2192 1.378 . S
C2185 C2184 1.367 . S
C2185 C2193 1.433 . S
C2186 H2182 0.929 . S
C2186 C2188 1.378 . S
C2186 C2190 1.350 . S
C2187 C2190 1.463 . S
C2187 C2192 1.350 . S
C2187 N2195 1.427 . S
C2188 H2179 0.930 . S
C2188 C2186 1.378 . S
C2188 C2189 1.367 . S
C2189 C2188 1.367 . S
C2189 C2191 1.433 1_545 S
C2190 C2186 1.350 . S
C2190 C2187 1.463 . S
C2190 N2194 1.427 . S
C2191 H2181 0.929 . S
C2191 C2189 1.433 1_565 S
C2191 N2194 1.384 1_565 S
C2192 H2183 0.929 . S
C2192 C2184 1.378 . S
C2192 C2187 1.350 . S
C2193 H2180 0.929 . S
C2193 C2185 1.433 . S
C2193 N2195 1.384 . S
N2194 C2190 1.427 . S
N2194 C2191 1.384 1_545 S
N2195 C2187 1.427 . S
N2195 C2193 1.384 . S
H2196 C2202 0.930 . S
H2197 C2206 0.930 . S
H2198 C2211 0.929 . S
H2199 C2209 0.929 . S
H2200 C2204 0.929 . S
H2201 C2210 0.929 . S
C2202 H2196 0.930 . S
C2202 C2203 1.367 . S
C2202 C2210 1.378 . S
C2203 C2202 1.367 . S
C2203 C2211 1.433 . S
C2204 H2200 0.929 . S
C2204 C2206 1.378 . S
C2204 C2208 1.350 . S
C2205 C2208 1.463 . S
C2205 C2210 1.350 . S
C2205 N2213 1.427 . S
C2206 H2197 0.930 . S
C2206 C2204 1.378 . S
C2206 C2207 1.367 . S
C2207 C2206 1.367 . S
C2207 C2209 1.433 . S
C2208 C2204 1.350 . S
C2208 C2205 1.463 . S
C2208 N2212 1.427 . S
C2209 H2199 0.929 . S
C2209 C2207 1.433 . S
C2209 N2212 1.384 . S
C2210 H2201 0.929 . S
C2210 C2202 1.378 . S
C2210 C2205 1.350 . S
C2211 H2198 0.929 . S
C2211 C2203 1.433 . S
C2211 N2213 1.384 . S
N2212 C2208 1.427 . S
N2212 C2209 1.384 . S
N2213 C2205 1.427 . S
N2213 C2211 1.384 . S
H2214 C2220 0.930 . S
H2215 C2224 0.930 . S
H2216 C2229 0.929 . S
H2217 C2227 0.929 . S
H2218 C2222 0.929 . S
H2219 C2228 0.929 . S
C2220 H2214 0.930 . S
C2220 C2221 1.367 . S
C2220 C2228 1.378 . S
C2221 C2220 1.367 . S
C2221 C2229 1.433 . S
C2222 H2218 0.929 . S
C2222 C2224 1.378 . S
C2222 C2226 1.350 . S
C2223 C2226 1.463 . S
C2223 C2228 1.350 . S
C2223 N2231 1.427 . S
C2224 H2215 0.930 . S
C2224 C2222 1.378 . S
C2224 C2225 1.367 . S
C2225 C2224 1.367 . S
C2225 C2227 1.433 . S
C2226 C2222 1.350 . S
C2226 C2223 1.463 . S
C2226 N2230 1.427 . S
C2227 H2217 0.929 . S
C2227 C2225 1.433 . S
C2227 N2230 1.384 . S
C2228 H2219 0.929 . S
C2228 C2220 1.378 . S
C2228 C2223 1.350 . S
C2229 H2216 0.929 . S
C2229 C2221 1.433 . S
C2229 N2231 1.384 . S
N2230 C2226 1.427 . S
N2230 C2227 1.384 . S
N2231 C2223 1.427 . S
N2231 C2229 1.384 . S
H2232 C2238 0.930 . S
H2233 C2242 0.930 . S
H2234 C2247 0.929 . S
H2235 C2245 0.929 . S
H2236 C2240 0.929 . S
H2237 C2246 0.929 . S
C2238 H2232 0.930 . S
C2238 C2239 1.367 . S
C2238 C2246 1.378 . S
C2239 C2238 1.367 . S
C2239 C2247 1.433 . S
C2240 H2236 0.929 . S
C2240 C2242 1.378 . S
C2240 C2244 1.350 . S
C2241 C2244 1.463 . S
C2241 C2246 1.350 . S
C2241 N2249 1.427 . S
C2242 H2233 0.930 . S
C2242 C2240 1.378 . S
C2242 C2243 1.367 . S
C2243 C2242 1.367 . S
C2243 C2245 1.433 . S
C2244 C2240 1.350 . S
C2244 C2241 1.463 . S
C2244 N2248 1.427 . S
C2245 H2235 0.929 . S
C2245 C2243 1.433 . S
C2245 N2248 1.384 . S
C2246 H2237 0.929 . S
C2246 C2238 1.378 . S
C2246 C2241 1.350 . S
C2247 H2234 0.929 . S
C2247 C2239 1.433 . S
C2247 N2249 1.384 . S
N2248 C2244 1.427 . S
N2248 C2245 1.384 . S
N2249 C2241 1.427 . S
N2249 C2247 1.384 . S
H2250 C2256 0.930 . S
H2251 C2260 0.930 . S
H2252 C2265 0.929 . S
H2253 C2263 0.929 . S
H2254 C2258 0.929 . S
H2255 C2264 0.929 . S
C2256 H2250 0.930 . S
C2256 C2257 1.367 . S
C2256 C2264 1.378 . S
C2257 C2256 1.367 . S
C2257 C2265 1.433 . S
C2258 H2254 0.929 . S
C2258 C2260 1.378 . S
C2258 C2262 1.350 . S
C2259 C2262 1.463 . S
C2259 C2264 1.350 . S
C2259 N2267 1.427 . S
C2260 H2251 0.930 . S
C2260 C2258 1.378 . S
C2260 C2261 1.367 . S
C2261 C2260 1.367 . S
C2261 C2263 1.433 . S
C2262 C2258 1.350 . S
C2262 C2259 1.463 . S
C2262 N2266 1.427 . S
C2263 H2253 0.929 . S
C2263 C2261 1.433 . S
C2263 N2266 1.384 . S
C2264 H2255 0.929 . S
C2264 C2256 1.378 . S
C2264 C2259 1.350 . S
C2265 H2252 0.929 . S
C2265 C2257 1.433 . S
C2265 N2267 1.384 . S
N2266 C2262 1.427 . S
N2266 C2263 1.384 . S
N2267 C2259 1.427 . S
N2267 C2265 1.384 . S
H2268 C2274 0.930 . S
H2269 C2278 0.930 . S
H2270 C2283 0.929 . S
H2271 C2281 0.929 . S
H2272 C2276 0.929 . S
H2273 C2282 0.929 . S
C2274 H2268 0.930 . S
C2274 C2275 1.367 . S
C2274 C2282 1.378 . S
C2275 C2274 1.367 . S
C2275 C2283 1.433 . S
C2276 H2272 0.929 . S
C2276 C2278 1.378 . S
C2276 C2280 1.350 . S
C2277 C2280 1.463 . S
C2277 C2282 1.350 . S
C2277 N2285 1.427 . S
C2278 H2269 0.930 . S
C2278 C2276 1.378 . S
C2278 C2279 1.367 . S
C2279 C2278 1.367 . S
C2279 C2281 1.433 . S
C2280 C2276 1.350 . S
C2280 C2277 1.463 . S
C2280 N2284 1.427 . S
C2281 H2271 0.929 . S
C2281 C2279 1.433 . S
C2281 N2284 1.384 . S
C2282 H2273 0.929 . S
C2282 C2274 1.378 . S
C2282 C2277 1.350 . S
C2283 H2270 0.929 . S
C2283 C2275 1.433 . S
C2283 N2285 1.384 . S
N2284 C2280 1.427 . S
N2284 C2281 1.384 . S
N2285 C2277 1.427 . S
N2285 C2283 1.384 . S
H2286 C2292 0.930 . S
H2287 C2296 0.930 . S
H2288 C2301 0.929 . S
H2289 C2299 0.929 . S
H2290 C2294 0.929 . S
H2291 C2300 0.929 . S
C2292 H2286 0.930 . S
C2292 C2293 1.367 . S
C2292 C2300 1.378 . S
C2293 C2292 1.367 . S
C2293 C2301 1.433 . S
C2294 H2290 0.929 . S
C2294 C2296 1.378 . S
C2294 C2298 1.350 . S
C2295 C2298 1.463 . S
C2295 C2300 1.350 . S
C2295 N2303 1.427 . S
C2296 H2287 0.930 . S
C2296 C2294 1.378 . S
C2296 C2297 1.367 . S
C2297 C2296 1.367 . S
C2297 C2299 1.433 . S
C2298 C2294 1.350 . S
C2298 C2295 1.463 . S
C2298 N2302 1.427 . S
C2299 H2289 0.929 . S
C2299 C2297 1.433 . S
C2299 N2302 1.384 . S
C2300 H2291 0.929 . S
C2300 C2292 1.378 . S
C2300 C2295 1.350 . S
C2301 H2288 0.929 . S
C2301 C2293 1.433 . S
C2301 N2303 1.384 . S
N2302 C2298 1.427 . S
N2302 C2299 1.384 . S
N2303 C2295 1.427 . S
N2303 C2301 1.384 . S
H2304 C2310 0.930 . S
H2305 C2314 0.930 . S
H2306 C2319 0.929 . S
H2307 C2317 0.929 . S
H2308 C2312 0.929 . S
H2309 C2318 0.929 . S
C2310 H2304 0.930 . S
C2310 C2311 1.367 . S
C2310 C2318 1.378 . S
C2311 C2310 1.367 . S
C2311 C2319 1.433 . S
C2312 H2308 0.929 . S
C2312 C2314 1.378 . S
C2312 C2316 1.350 . S
C2313 C2316 1.463 . S
C2313 C2318 1.350 . S
C2313 N2321 1.427 . S
C2314 H2305 0.930 . S
C2314 C2312 1.378 . S
C2314 C2315 1.367 . S
C2315 C2314 1.367 . S
C2315 C2317 1.433 . S
C2316 C2312 1.350 . S
C2316 C2313 1.463 . S
C2316 N2320 1.427 . S
C2317 H2307 0.929 . S
C2317 C2315 1.433 . S
C2317 N2320 1.384 . S
C2318 H2309 0.929 . S
C2318 C2310 1.378 . S
C2318 C2313 1.350 . S
C2319 H2306 0.929 . S
C2319 C2311 1.433 . S
C2319 N2321 1.384 . S
N2320 C2316 1.427 . S
N2320 C2317 1.384 . S
N2321 C2313 1.427 . S
N2321 C2319 1.384 . S
H2322 C2328 0.930 . S
H2323 C2332 0.930 . S
H2324 C2337 0.929 . S
H2325 C2335 0.929 . S
H2326 C2330 0.929 . S
H2327 C2336 0.929 . S
C2328 H2322 0.930 . S
C2328 C2329 1.367 . S
C2328 C2336 1.378 . S
C2329 C2328 1.367 . S
C2329 C2337 1.433 . S
C2330 H2326 0.929 . S
C2330 C2332 1.378 . S
C2330 C2334 1.350 . S
C2331 C2334 1.463 . S
C2331 C2336 1.350 . S
C2331 N2339 1.427 . S
C2332 H2323 0.930 . S
C2332 C2330 1.378 . S
C2332 C2333 1.367 . S
C2333 C2332 1.367 . S
C2333 C2335 1.433 . S
C2334 C2330 1.350 . S
C2334 C2331 1.463 . S
C2334 N2338 1.427 . S
C2335 H2325 0.929 . S
C2335 C2333 1.433 . S
C2335 N2338 1.384 . S
C2336 H2327 0.929 . S
C2336 C2328 1.378 . S
C2336 C2331 1.350 . S
C2337 H2324 0.929 . S
C2337 C2329 1.433 . S
C2337 N2339 1.384 . S
N2338 C2334 1.427 . S
N2338 C2335 1.384 . S
N2339 C2331 1.427 . S
N2339 C2337 1.384 . S
H2340 C2346 0.930 . S
H2341 C2350 0.930 . S
H2342 C2355 0.929 . S
H2343 C2353 0.929 . S
H2344 C2348 0.929 . S
H2345 C2354 0.929 . S
C2346 H2340 0.930 . S
C2346 C2347 1.367 . S
C2346 C2354 1.378 . S
C2347 C2346 1.367 . S
C2347 C2355 1.433 . S
C2348 H2344 0.929 . S
C2348 C2350 1.378 . S
C2348 C2352 1.350 . S
C2349 C2352 1.463 . S
C2349 C2354 1.350 . S
C2349 N2357 1.427 . S
C2350 H2341 0.930 . S
C2350 C2348 1.378 . S
C2350 C2351 1.367 . S
C2351 C2350 1.367 . S
C2351 C2353 1.433 . S
C2352 C2348 1.350 . S
C2352 C2349 1.463 . S
C2352 N2356 1.427 . S
C2353 H2343 0.929 . S
C2353 C2351 1.433 . S
C2353 N2356 1.384 . S
C2354 H2345 0.929 . S
C2354 C2346 1.378 . S
C2354 C2349 1.350 . S
C2355 H2342 0.929 . S
C2355 C2347 1.433 . S
C2355 N2357 1.384 . S
N2356 C2352 1.427 . S
N2356 C2353 1.384 . S
N2357 C2349 1.427 . S
N2357 C2355 1.384 . S
H2358 C2364 0.930 . S
H2359 C2368 0.930 . S
H2360 C2373 0.929 . S
H2361 C2371 0.929 . S
H2362 C2366 0.929 . S
H2363 C2372 0.929 . S
C2364 H2358 0.930 . S
C2364 C2365 1.367 . S
C2364 C2372 1.378 . S
C2365 C2364 1.367 . S
C2365 C2373 1.433 . S
C2366 H2362 0.929 . S
C2366 C2368 1.378 . S
C2366 C2370 1.350 . S
C2367 C2370 1.463 . S
C2367 C2372 1.350 . S
C2367 N2375 1.427 . S
C2368 H2359 0.930 . S
C2368 C2366 1.378 . S
C2368 C2369 1.367 . S
C2369 C2368 1.367 . S
C2369 C2371 1.433 . S
C2370 C2366 1.350 . S
C2370 C2367 1.463 . S
C2370 N2374 1.427 . S
C2371 H2361 0.929 . S
C2371 C2369 1.433 . S
C2371 N2374 1.384 . S
C2372 H2363 0.929 . S
C2372 C2364 1.378 . S
C2372 C2367 1.350 . S
C2373 H2360 0.929 . S
C2373 C2365 1.433 . S
C2373 N2375 1.384 . S
N2374 C2370 1.427 . S
N2374 C2371 1.384 . S
N2375 C2367 1.427 . S
N2375 C2373 1.384 . S
H2376 C2382 0.930 . S
H2377 C2386 0.930 . S
H2378 C2391 0.929 . S
H2379 C2389 0.929 . S
H2380 C2384 0.929 . S
H2381 C2390 0.929 . S
C2382 H2376 0.930 . S
C2382 C2383 1.367 . S
C2382 C2390 1.378 . S
C2383 C2382 1.367 . S
C2383 C2391 1.433 . S
C2384 H2380 0.929 . S
C2384 C2386 1.378 . S
C2384 C2388 1.350 . S
C2385 C2388 1.463 . S
C2385 C2390 1.350 . S
C2385 N2393 1.427 . S
C2386 H2377 0.930 . S
C2386 C2384 1.378 . S
C2386 C2387 1.367 . S
C2387 C2386 1.367 . S
C2387 C2389 1.433 . S
C2388 C2384 1.350 . S
C2388 C2385 1.463 . S
C2388 N2392 1.427 . S
C2389 H2379 0.929 . S
C2389 C2387 1.433 . S
C2389 N2392 1.384 . S
C2390 H2381 0.929 . S
C2390 C2382 1.378 . S
C2390 C2385 1.350 . S
C2391 H2378 0.929 . S
C2391 C2383 1.433 . S
C2391 N2393 1.384 . S
N2392 C2388 1.427 . S
N2392 C2389 1.384 . S
N2393 C2385 1.427 . S
N2393 C2391 1.384 . S
H2394 C2400 0.930 . S
H2395 C2404 0.930 . S
H2396 C2409 0.929 . S
H2397 C2407 0.929 . S
H2398 C2402 0.929 . S
H2399 C2408 0.929 . S
C2400 H2394 0.930 . S
C2400 C2401 1.367 . S
C2400 C2408 1.378 . S
C2401 C2400 1.367 . S
C2401 C2409 1.433 . S
C2402 H2398 0.929 . S
C2402 C2404 1.378 . S
C2402 C2406 1.350 . S
C2403 C2406 1.463 . S
C2403 C2408 1.350 . S
C2403 N2411 1.427 . S
C2404 H2395 0.930 . S
C2404 C2402 1.378 . S
C2404 C2405 1.367 . S
C2405 C2404 1.367 . S
C2405 C2407 1.433 . S
C2406 C2402 1.350 . S
C2406 C2403 1.463 . S
C2406 N2410 1.427 . S
C2407 H2397 0.929 . S
C2407 C2405 1.433 . S
C2407 N2410 1.384 . S
C2408 H2399 0.929 . S
C2408 C2400 1.378 . S
C2408 C2403 1.350 . S
C2409 H2396 0.929 . S
C2409 C2401 1.433 . S
C2409 N2411 1.384 . S
N2410 C2406 1.427 . S
N2410 C2407 1.384 . S
N2411 C2403 1.427 . S
N2411 C2409 1.384 . S
C1447 C781 1.689 . S
C1451 C1092 1.697 . S
C1465 C871 1.746 . S
C1469 C1132 1.793 . S
C1483 C751 1.712 . S
C1487 C1162 1.757 . S
C1501 C691 1.542 . S
C1505 C1122 1.575 . S
C1523 C1172 1.477 . S
C1519 C571 1.408 . S
C1537 C601 1.420 . S
C1541 C1082 1.436 . S
C1559 C1111 1.691 . S
C1555 C661 1.610 . S
C1577 C1151 1.795 . S
C1573 C541 1.728 . S
C1591 C631 1.780 . S
C1595 C1177 1.758 . S
C1609 C811 1.599 . S
C1613 C1137 1.569 . S
C1627 C841 1.431 . S
C1631 C1191 1.474 . S
C1649 C1097 1.441 . S
C1645 C721 1.355 . S
C1667 C1212 1.696 . S
C1663 C61 1.684 . S
C1681 C151 1.754 . S
C1685 C1252 1.795 . S
C1699 C31 1.696 . S
C1703 C1282 1.753 . S
C1717 C1051 1.538 . S
C1721 C1242 1.576 . S
C1735 C931 1.418 . S
C1739 C1292 1.479 . S
C1753 C961 1.430 . S
C1757 C1202 1.447 . S
C1771 C1021 1.610 . S
C1775 C1231 1.691 . S
C1789 C901 1.734 . S
C1793 C1271 1.797 . S
C1811 C1297 1.759 . S
C1807 C991 1.781 . S
C1825 C91 1.597 . S
C1829 C1257 1.565 . S
C1847 C1311 1.475 . S
C1843 C121 1.431 . S
C1861 C1 1.347 . S
C1865 C1217 1.439 . S
C1883 C1332 1.697 . S
C1879 C421 1.685 . S
C1897 C511 1.747 . S
C1901 C1372 1.797 . S
C1919 C1402 1.759 . S
C1915 C391 1.707 . S
C1937 C1362 1.575 . S
C1933 C331 1.542 . S
C1955 C1412 1.480 . S
C1951 C211 1.420 . S
C1969 C241 1.419 . S
C1973 C1322 1.439 . S
C1987 C301 1.621 . S
C1991 C1351 1.696 . S
C2005 C181 1.739 . S
C2009 C1391 1.799 . S
C2027 C1417 1.758 . S
C2023 C271 1.780 . S
C2041 C451 1.597 . S
C2045 C1377 1.565 . S
C2059 C481 1.444 . S
C2063 C1431 1.479 . S
C2077 C361 1.355 . S
C2081 C1337 1.443 . S
C2095 C920 1.309 . S
C2099 C1109 1.322 . S
C2117 C1149 1.850 . S
C2113 C980 1.859 . S
C2131 C1040 1.515 . S
C2135 C1168 1.579 . S
C2149 C380 1.800 . S
C2153 C1128 1.856 . S
C2167 C440 1.552 . S
C2171 C1189 1.576 . S
C2189 C1088 1.316 . S
C2185 C500 1.309 . S
C2203 C200 1.297 . S
C2207 C1229 1.315 . S
C2221 C260 1.865 . S
C2225 C1269 1.855 . S
C2239 C320 1.525 . S
C2243 C1288 1.576 . S
C2257 C740 1.808 . S
C2261 C1248 1.851 . S
C2279 C1309 1.576 . S
C2275 C800 1.553 . S
C2293 C860 1.310 . S
C2297 C1208 1.319 . S
C2311 C560 1.297 . S
C2315 C1349 1.317 . S
C2329 C620 1.860 . S
C2333 C1389 1.850 . S
C2351 C1408 1.580 . S
C2347 C680 1.518 . S
C2365 C20 1.807 . S
C2369 C1368 1.857 . S
C2383 C80 1.557 . S
C2387 C1429 1.580 . S
C2401 C140 1.310 . S
C2405 C1328 1.318 . S
