# Generated by pormake.
# Topology zzz, (3,6)-cn, num edge types: 1
# Building blocks:
#     Node 0, Type 0, BuildingBlock: MIDCAF_clean_linker_0, # of connection points: 3
#     Node 1, Type 0, BuildingBlock: MIDCAF_clean_linker_0, # of connection points: 3
#     Node 2, Type 0, BuildingBlock: MIDCAF_clean_linker_0, # of connection points: 3
#     Node 3, Type 0, BuildingBlock: MIDCAF_clean_linker_0, # of connection points: 3
#     Node 4, Type 0, BuildingBlock: MIDCAF_clean_linker_0, # of connection points: 3
#     Node 5, Type 0, BuildingBlock: MIDCAF_clean_linker_0, # of connection points: 3
#     Node 6, Type 0, BuildingBlock: MIDCAF_clean_linker_0, # of connection points: 3
#     Node 7, Type 0, BuildingBlock: MIDCAF_clean_linker_0, # of connection points: 3
#     Node 8, Type 1, BuildingBlock: NUHQIS_clean_sbu_0, # of connection points: 6
#     Node 9, Type 1, BuildingBlock: NUHQIS_clean_sbu_0, # of connection points: 6
#     Node 10, Type 1, BuildingBlock: NUHQIS_clean_sbu_0, # of connection points: 6
#     Node 11, Type 1, BuildingBlock: NUHQIS_clean_sbu_0, # of connection points: 6
#     Edge 12, Type (0, 1), BuildingBlock: CIFDUS_clean_linker_0, # of connection points: 2
#     Edge 13, Type (0, 1), BuildingBlock: CIFDUS_clean_linker_0, # of connection points: 2
#     Edge 14, Type (0, 1), BuildingBlock: CIFDUS_clean_linker_0, # of connection points: 2
#     Edge 15, Type (0, 1), BuildingBlock: CIFDUS_clean_linker_0, # of connection points: 2
#     Edge 16, Type (0, 1), BuildingBlock: CIFDUS_clean_linker_0, # of connection points: 2
#     Edge 17, Type (0, 1), BuildingBlock: CIFDUS_clean_linker_0, # of connection points: 2
#     Edge 18, Type (0, 1), BuildingBlock: CIFDUS_clean_linker_0, # of connection points: 2
#     Edge 19, Type (0, 1), BuildingBlock: CIFDUS_clean_linker_0, # of connection points: 2
#     Edge 20, Type (0, 1), BuildingBlock: CIFDUS_clean_linker_0, # of connection points: 2
#     Edge 21, Type (0, 1), BuildingBlock: CIFDUS_clean_linker_0, # of connection points: 2
#     Edge 22, Type (0, 1), BuildingBlock: CIFDUS_clean_linker_0, # of connection points: 2
#     Edge 23, Type (0, 1), BuildingBlock: CIFDUS_clean_linker_0, # of connection points: 2
#     Edge 24, Type (0, 1), BuildingBlock: CIFDUS_clean_linker_0, # of connection points: 2
#     Edge 25, Type (0, 1), BuildingBlock: CIFDUS_clean_linker_0, # of connection points: 2
#     Edge 26, Type (0, 1), BuildingBlock: CIFDUS_clean_linker_0, # of connection points: 2
#     Edge 27, Type (0, 1), BuildingBlock: CIFDUS_clean_linker_0, # of connection points: 2
#     Edge 28, Type (0, 1), BuildingBlock: CIFDUS_clean_linker_0, # of connection points: 2
#     Edge 29, Type (0, 1), BuildingBlock: CIFDUS_clean_linker_0, # of connection points: 2
#     Edge 30, Type (0, 1), BuildingBlock: CIFDUS_clean_linker_0, # of connection points: 2
#     Edge 31, Type (0, 1), BuildingBlock: CIFDUS_clean_linker_0, # of connection points: 2
#     Edge 32, Type (0, 1), BuildingBlock: CIFDUS_clean_linker_0, # of connection points: 2
#     Edge 33, Type (0, 1), BuildingBlock: CIFDUS_clean_linker_0, # of connection points: 2
#     Edge 34, Type (0, 1), BuildingBlock: CIFDUS_clean_linker_0, # of connection points: 2
#     Edge 35, Type (0, 1), BuildingBlock: CIFDUS_clean_linker_0, # of connection points: 2
# Relax obj value: 0.445
# Max RMSD: 0.254
# Mean RMSD: 0.234
data_MOF--net-zzz--node1-NUHQIS_clean_sbu_0--node2-MIDCAF_clean_linker_0--edge1-CIFDUS_clean_linker_0
_symmetry_space_group_name_H-M    P1
_symmetry_Int_Tables_number       1
_symmetry_cell_setting            triclinic
loop_
_symmetry_equiv_pos_as_xyz
'x, y, z'
_cell_length_a     53.309813
_cell_length_b     53.327129
_cell_length_c     17.250543
_cell_angle_alpha  89.65095
_cell_angle_beta   89.915559
_cell_angle_gamma 90.02305
loop_
_atom_site_label
_atom_site_type_symbol
_atom_site_fract_x
_atom_site_fract_y
_atom_site_fract_z
_atom_type_partial_charge
C0 C 0.80233 0.51835 0.43287 0.0
C1 C 0.81009 0.50139 0.49152 0.0
C2 C 0.79447 0.48068 0.50746 0.0
C3 C 0.77274 0.47634 0.46428 0.0
H4 H 0.7106 0.5301 0.17961 0.0
H5 H 0.67674 0.5436 0.09229 0.0
H6 H 0.63063 0.48242 0.17507 0.0
H7 H 0.66422 0.46932 0.26174 0.0
H8 H 0.73234 0.43691 0.11357 0.0
H9 H 0.76172 0.41015 0.04592 0.0
H10 H 0.78798 0.38064 0.26511 0.0
H11 H 0.75935 0.4086 0.33297 0.0
H12 H 0.77577 0.52639 0.34156 0.0
H13 H 0.81358 0.53469 0.41913 0.0
H14 H 0.79967 0.46682 0.5506 0.0
H15 H 0.76213 0.45937 0.47576 0.0
N16 N 0.72782 0.49666 0.31555 0.0
N17 N 0.71663 0.46217 0.23748 0.0
N18 N 0.75101 0.45912 0.32034 0.0
C19 C 0.71201 0.48584 0.26245 0.0
C20 C 0.73604 0.44873 0.26618 0.0
C21 C 0.7473 0.48285 0.34556 0.0
C22 C 0.68996 0.49884 0.22819 0.0
C23 C 0.69283 0.52026 0.18124 0.0
C24 C 0.67352 0.5277 0.13036 0.0
C25 C 0.65089 0.51396 0.12568 0.0
C26 C 0.64752 0.49368 0.17713 0.0
C27 C 0.66683 0.48615 0.22711 0.0
C28 C 0.74433 0.42546 0.2284 0.0
C29 C 0.74352 0.42386 0.14727 0.0
C30 C 0.76039 0.40834 0.10835 0.0
C31 C 0.778 0.39406 0.15034 0.0
C32 C 0.77526 0.39215 0.23128 0.0
C33 C 0.75882 0.40808 0.2702 0.0
C34 C 0.76567 0.49244 0.40333 0.0
C35 C 0.78035 0.51392 0.38927 0.0
C36 C 0.99232 0.81129 0.36642 0.0
C37 C 1.00376 0.81589 0.43877 0.0
C38 C 0.02022 0.79753 0.46843 0.0
C39 C 0.02654 0.77636 0.42464 0.0
H40 H 0.06364 0.68072 0.18546 0.0
H41 H 0.05399 0.64464 0.10542 0.0
H42 H 0.97701 0.66872 0.08817 0.0
H43 H 0.98676 0.70548 0.16944 0.0
H44 H 0.0894 0.7392 0.08077 0.0
H45 H 0.11828 0.76549 0.0064 0.0
H46 H 0.12078 0.8182 0.19552 0.0
H47 H 0.09258 0.79187 0.26998 0.0
H48 H 0.99102 0.78807 0.26495 0.0
H49 H 0.9798 0.82497 0.34074 0.0
H50 H 0.02905 0.79996 0.52435 0.0
H51 H 0.04077 0.76368 0.44657 0.0
N52 N 0.02045 0.73423 0.26763 0.0
N53 N 0.05668 0.72998 0.19008 0.0
N54 N 0.05221 0.76498 0.2692 0.0
C55 C 0.03435 0.72068 0.21557 0.0
C56 C 0.0657 0.75207 0.21632 0.0
C57 C 0.02981 0.75639 0.29535 0.0
C58 C 0.02604 0.69617 0.1833 0.0
C59 C 0.04446 0.67813 0.16634 0.0
C60 C 0.03896 0.6574 0.12043 0.0
C61 C 0.01483 0.65396 0.08982 0.0
C62 C 0.99575 0.67085 0.11134 0.0
C63 C 1.00131 0.69184 0.15792 0.0
C64 C 0.08807 0.76386 0.18037 0.0
C65 C 0.0968 0.75597 0.1075 0.0
C66 C 0.11333 0.77106 0.06473 0.0
C67 C 0.12143 0.79422 0.09421 0.0
C68 C 0.11502 0.8005 0.17079 0.0
C69 C 0.09852 0.78549 0.21334 0.0
C70 C 0.01624 0.77262 0.35068 0.0
C71 C 0.99853 0.78995 0.32295 0.0
C72 C 0.70699 0.02055 0.48524 0.0
C73 C 0.69308 0.99933 0.46335 0.0
C74 C 0.70346 0.98354 0.40598 0.0
C75 C 0.72612 0.98983 0.3681 0.0
H76 H 0.84199 0.03096 0.26395 0.0
H77 H 0.87537 0.02069 0.17209 0.0
H78 H 0.82279 0.97724 0.03827 0.0
H79 H 0.78944 0.9875 0.13116 0.0
H80 H 0.77181 0.0757 0.11281 0.0
H81 H 0.74078 0.10304 0.05408 0.0
H82 H 0.71608 0.12605 0.2814 0.0
H83 H 0.74659 0.09778 0.34024 0.0
H84 H 0.73867 0.04414 0.46305 0.0
H85 H 0.6998 0.03344 0.5281 0.0
H86 H 0.69363 0.96678 0.38819 0.0
H87 H 0.73264 0.97826 0.32078 0.0
N88 N 0.77662 0.01016 0.29767 0.0
N89 N 0.78823 0.04676 0.22841 0.0
N90 N 0.75473 0.04797 0.31539 0.0
C91 C 0.79234 0.02226 0.2465 0.0
C92 C 0.76948 0.05972 0.26277 0.0
C93 C 0.7579 0.02343 0.33354 0.0
C94 C 0.81325 0.00957 0.20569 0.0
C95 C 0.83786 0.01831 0.2167 0.0
C96 C 0.85697 0.01252 0.16372 0.0
C97 C 0.85181 0.99829 0.09719 0.0
C98 C 0.82742 0.9884 0.08849 0.0
C99 C 0.80837 0.99393 0.14227 0.0
C100 C 0.76089 0.08395 0.23098 0.0
C101 C 0.76069 0.08756 0.1503 0.0
C102 C 0.74283 0.10336 0.11652 0.0
C103 C 0.72524 0.11588 0.16326 0.0
C104 C 0.72886 0.11596 0.24398 0.0
C105 C 0.74641 0.09985 0.27771 0.0
C106 C 0.73887 0.01206 0.38665 0.0
C107 C 0.72944 0.02677 0.44758 0.0
C108 C 0.40644 0.71681 0.26228 0.0
C109 C 0.40382 0.71434 0.1816 0.0
C110 C 0.41318 0.73353 0.1332 0.0
C111 C 0.4284 0.75238 0.16377 0.0
H112 H 0.46683 0.83381 0.21801 0.0
H113 H 0.47854 0.86912 0.13541 0.0
H114 H 0.55025 0.83452 0.09063 0.0
H115 H 0.5385 0.79898 0.17487 0.0
H116 H 0.50123 0.74866 0.48073 0.0
H117 H 0.51297 0.70983 0.54724 0.0
H118 H 0.53646 0.67865 0.32794 0.0
H119 H 0.526 0.71797 0.26362 0.0
H120 H 0.42612 0.73503 0.35409 0.0
H121 H 0.39879 0.70274 0.30126 0.0
H122 H 0.41142 0.73235 0.0708 0.0
H123 H 0.43781 0.76508 0.12398 0.0
N124 N 0.46812 0.78381 0.2329 0.0
N125 N 0.50778 0.77582 0.28841 0.0
N126 N 0.47369 0.74902 0.3138 0.0
C127 C 0.49245 0.7907 0.24396 0.0
C128 C 0.49804 0.75512 0.32477 0.0
C129 C 0.45863 0.76304 0.26786 0.0
C130 C 0.50172 0.81355 0.20301 0.0
C131 C 0.4853 0.83389 0.19172 0.0
C132 C 0.49206 0.85424 0.14458 0.0
C133 C 0.51531 0.85468 0.10613 0.0
C134 C 0.53214 0.83469 0.11916 0.0
C135 C 0.52552 0.81445 0.16785 0.0
C136 C 0.51344 0.73662 0.36744 0.0
C137 C 0.51017 0.7339 0.44783 0.0
C138 C 0.51633 0.71132 0.4855 0.0
C139 C 0.52528 0.69058 0.44328 0.0
C140 C 0.52998 0.69403 0.36335 0.0
C141 C 0.52419 0.71675 0.32611 0.0
C142 C 0.43463 0.75204 0.2428 0.0
C143 C 0.42195 0.73539 0.29263 0.0
C144 C 0.2071 0.50761 0.95439 0.0
C145 C 0.18986 0.4878 0.94289 0.0
C146 C 0.19548 0.46442 0.97732 0.0
C147 C 0.21639 0.46145 0.02577 0.0
H148 H 0.32653 0.44784 0.19124 0.0
H149 H 0.36566 0.45608 0.25924 0.0
H150 H 0.35392 0.53565 0.2287 0.0
H151 H 0.31437 0.52711 0.16205 0.0
H152 H 0.27455 0.48933 0.37886 0.0
H153 H 0.25146 0.50029 0.49577 0.0
H154 H 0.18425 0.46814 0.39907 0.0
H155 H 0.20701 0.45769 0.28087 0.0
H156 H 0.24026 0.52047 0.01368 0.0
H157 H 0.20356 0.526 0.92992 0.0
H158 H 0.18335 0.44841 0.96867 0.0
H159 H 0.21915 0.44361 0.05492 0.0
N160 N 0.27566 0.48407 0.1018 0.0
N161 N 0.27917 0.47724 0.23639 0.0
N162 N 0.23993 0.47468 0.1776 0.0
C163 C 0.29017 0.48215 0.16728 0.0
C164 C 0.25421 0.47364 0.24243 0.0
C165 C 0.25029 0.47975 0.10721 0.0
C166 C 0.31755 0.48679 0.1698 0.0
C167 C 0.33306 0.46704 0.19509 0.0
C168 C 0.35545 0.47183 0.23505 0.0
C169 C 0.36286 0.49658 0.25139 0.0
C170 C 0.34863 0.51633 0.21881 0.0
C171 C 0.3262 0.51148 0.17876 0.0
C172 C 0.24237 0.4732 0.3198 0.0
C173 C 0.25506 0.48375 0.38334 0.0
C174 C 0.24196 0.48998 0.45054 0.0
C175 C 0.2162 0.48515 0.45583 0.0
C176 C 0.20422 0.47187 0.39633 0.0
C177 C 0.21717 0.4661 0.32843 0.0
C178 C 0.23285 0.4815 0.04 0.0
C179 C 0.22834 0.50446 1.00216 0.0
C180 C 0.97913 0.19255 0.95939 0.0
C181 C 1.00359 0.18271 0.96133 0.0
C182 C 0.02197 0.196 1.00354 0.0
C183 C 0.01564 0.21759 0.04622 0.0
H184 H 0.02447 0.29024 0.27671 0.0
H185 H 0.034 0.33006 0.34099 0.0
H186 H 0.97451 0.36589 0.21156 0.0
H187 H 0.96552 0.32628 0.14731 0.0
H188 H 0.93782 0.26637 0.35356 0.0
H189 H 0.91307 0.2422 0.4467 0.0
H190 H 0.89707 0.18766 0.26886 0.0
H191 H 0.92068 0.21209 0.17632 0.0
H192 H 0.95341 0.21987 1.00295 0.0
H193 H 0.96432 0.18291 0.92866 0.0
H194 H 0.0411 0.18924 0.00578 0.0
H195 H 0.02979 0.22643 0.08181 0.0
N196 N 0.99355 0.26594 0.12666 0.0
N197 N 0.96351 0.2729 0.2251 0.0
N198 N 0.9612 0.23682 0.14966 0.0
C199 C 0.98398 0.28069 0.18458 0.0
C200 C 0.95204 0.25097 0.20806 0.0
C201 C 0.98174 0.24388 0.10865 0.0
C202 C 0.99474 0.30536 0.20542 0.0
C203 C 0.01422 0.30693 0.2599 0.0
C204 C 0.01932 0.32968 0.29773 0.0
C205 C 1.00493 0.35134 0.28223 0.0
C206 C 0.98628 0.34987 0.2246 0.0
C207 C 0.98117 0.32717 0.18722 0.0
C208 C 0.93191 0.24069 0.25819 0.0
C209 C 0.92825 0.24968 0.33384 0.0
C210 C 0.91413 0.23575 0.38738 0.0
C211 C 0.90355 0.21259 0.36619 0.0
C212 C 0.90478 0.20535 0.28795 0.0
C213 C 0.91873 0.21926 0.23465 0.0
C214 C 0.99074 0.22622 0.04807 0.0
C215 C 0.97282 0.21384 1.00225 0.0
C216 C 0.30575 1.00086 0.97148 0.0
C217 C 0.31677 0.0186 0.92064 0.0
C218 C 0.30392 0.04131 0.90807 0.0
C219 C 0.28202 0.04698 0.94961 0.0
H220 H 0.19811 0.9952 0.1535 0.0
H221 H 0.15964 0.98371 0.22523 0.0
H222 H 0.14684 0.06174 0.27661 0.0
H223 H 0.18462 0.07304 0.2059 0.0
H224 H 0.24254 0.0807 0.32399 0.0
H225 H 0.27259 0.08405 0.4292 0.0
H226 H 0.33284 0.08837 0.26116 0.0
H227 H 0.30296 0.08675 0.15774 0.0
H228 H 0.27708 0.99351 0.05689 0.0
H229 H 0.31506 0.98321 0.98326 0.0
H230 H 0.31137 0.05527 0.86841 0.0
H231 H 0.27387 0.06549 0.94297 0.0
N232 N 0.23272 0.03195 0.08688 0.0
N233 N 0.23217 0.06004 0.19207 0.0
N234 N 0.26734 0.05809 0.11239 0.0
C235 C 0.2203 0.0425 0.14858 0.0
C236 C 0.25564 0.06787 0.1748 0.0
C237 C 0.25633 0.0404 0.06798 0.0
C238 C 0.19458 0.03502 0.17428 0.0
C239 C 0.18663 0.00987 0.17825 0.0
C240 C 0.16469 1.00331 0.21985 0.0
C241 C 0.15043 0.02177 0.25843 0.0
C242 C 0.15763 0.04696 0.24958 0.0
C243 C 0.17925 0.05344 0.2083 0.0
C244 C 0.27062 0.08169 0.2327 0.0
C245 C 0.26213 0.08358 0.30964 0.0
C246 C 0.27944 0.08528 0.37017 0.0
C247 C 0.30535 0.08449 0.35424 0.0
C248 C 0.3132 0.08813 0.27692 0.0
C249 C 0.29591 0.08694 0.21668 0.0
C250 C 0.27205 0.03008 1.00449 0.0
C251 C 0.28371 0.00658 0.01312 0.0
C252 C 0.60751 0.29834 0.30083 0.0
C253 C 0.60813 0.29116 0.37938 0.0
C254 C 0.59362 0.27049 0.40357 0.0
C255 C 0.57727 0.25871 0.35178 0.0
H256 H 0.48548 0.2196 0.29762 0.0
H257 H 0.47951 0.17954 0.36623 0.0
H258 H 0.53218 0.14444 0.21119 0.0
H259 H 0.53767 0.18428 0.14194 0.0
H260 H 0.48323 0.28182 0.05678 0.0
H261 H 0.47675 0.31615 0.96246 0.0
H262 H 0.55699 0.32157 0.93048 0.0
H263 H 0.5631 0.28746 0.02111 0.0
H264 H 0.59035 0.29363 0.19031 0.0
H265 H 0.61814 0.31433 0.27999 0.0
H266 H 0.59387 0.26433 0.46351 0.0
H267 H 0.56533 0.24375 0.37315 0.0
N268 N 0.54203 0.23722 0.24012 0.0
N269 N 0.51619 0.24357 0.13051 0.0
N270 N 0.5483 0.27217 0.16064 0.0
C271 C 0.52288 0.22952 0.19416 0.0
C272 C 0.52911 0.2652 0.11396 0.0
C273 C 0.55486 0.25847 0.22362 0.0
C274 C 0.51155 0.20491 0.21316 0.0
C275 C 0.49457 0.20295 0.27542 0.0
C276 C 0.49132 0.18006 0.31508 0.0
C277 C 0.50545 0.15887 0.29425 0.0
C278 C 0.52095 0.16041 0.22831 0.0
C279 C 0.52389 0.18315 0.18808 0.0
C280 C 0.52367 0.28175 0.04606 0.0
C281 C 0.4993 0.2899 0.02738 0.0
C282 C 0.49567 0.30986 0.97425 0.0
C283 C 0.51633 0.32189 0.93834 0.0
C284 C 0.54049 0.31276 0.95514 0.0
C285 C 0.54405 0.29311 0.00777 0.0
C286 C 0.5751 0.26749 0.27504 0.0
C287 C 0.5912 0.28668 0.2494 0.0
Tb288 Tb 0.02824 0.99418 0.7593 0.0
Eu289 Eu 0.98554 1.0054 0.62837 0.0
C290 C 0.04369 0.00781 0.58812 0.0
C291 C 1.00604 0.04897 0.74491 0.0
C292 C 0.08151 0.96285 0.85624 0.0
C293 C 0.10063 0.92653 0.7959 0.0
C294 C 0.08686 0.94876 0.78978 0.0
C295 C 0.09148 0.95547 0.92773 0.0
C296 C 0.10513 0.93322 0.93403 0.0
C297 C 0.10899 0.91794 0.86874 0.0
C298 C 0.06273 0.98291 0.85387 0.0
O299 O 0.99261 0.98523 0.81708 0.0
O300 O 0.96484 0.00742 0.74209 0.0
O301 O 0.98811 0.96324 0.63625 0.0
O302 O 0.02788 0.96086 0.68537 0.0
C303 C 0.97032 0.9953 0.80625 0.0
O304 O 0.9483 0.99877 0.58058 0.0
O305 O 0.97369 0.02454 0.52262 0.0
O306 O 0.02205 0.99937 0.56319 0.0
O307 O 0.0467 0.01304 0.66186 0.0
O308 O 0.0157 0.03171 0.79083 0.0
O309 O 0.99702 0.04337 0.67595 0.0
C310 C 0.00865 0.95045 0.6501 0.0
O311 O 0.06513 0.99963 0.79917 0.0
O312 O 0.03966 0.97524 0.86009 0.0
C313 C 0.93114 0.03513 0.52419 0.0
C314 C 0.89984 0.07747 0.5131 0.0
C315 C 0.90957 0.0699 0.5853 0.0
C316 C 0.92521 0.04896 0.59072 0.0
C317 C 0.92009 0.04148 0.45327 0.0
C318 C 0.90452 0.06247 0.4477 0.0
C319 C 0.9508 0.01595 0.52699 0.0
H320 H 0.10351 0.91539 0.74437 0.0
H321 H 0.07925 0.95421 0.73397 0.0
H322 H 0.08736 0.96606 0.97963 0.0
H323 H 0.11088 0.92711 0.99127 0.0
H324 H 0.90615 0.08091 0.6368 0.0
H325 H 0.93364 0.04427 0.64607 0.0
H326 H 0.92457 0.03103 0.4014 0.0
H327 H 0.89769 0.06792 0.39096 0.0
Tb328 Tb 0.51688 0.03274 0.77039 0.0
Eu329 Eu 0.49918 0.98861 0.65597 0.0
C330 C 0.49962 0.04517 0.60183 0.0
C331 C 0.45977 0.01768 0.76265 0.0
C332 C 0.55008 0.07698 0.90621 0.0
C333 C 0.5779 0.1102 0.94902 0.0
C334 C 0.55797 0.10207 0.90316 0.0
C335 C 0.56223 0.06008 0.95612 0.0
C336 C 0.58202 0.06826 1.00253 0.0
C337 C 0.59009 0.09338 0.99919 0.0
C338 C 0.52937 0.06907 0.85602 0.0
O339 O 0.51406 0.99907 0.84392 0.0
O340 O 0.51813 0.96791 0.75354 0.0
O341 O 0.53993 0.99618 0.62607 0.0
O342 O 0.55224 0.01432 0.74028 0.0
C343 C 0.51791 0.97535 0.82596 0.0
O344 O 0.47972 0.95337 0.63219 0.0
O345 O 0.49655 0.97439 0.53793 0.0
O346 O 0.48524 0.0253 0.6051 0.0
O347 O 0.51764 0.04786 0.65252 0.0
O348 O 0.47595 0.03634 0.76273 0.0
O349 O 0.46652 0.9956 0.73698 0.0
C350 C 0.55773 1.00405 0.67291 0.0
O351 O 0.53453 0.06769 0.78254 0.0
O352 O 0.51565 0.05023 0.87921 0.0
C353 C 0.45427 0.96385 0.5247 0.0
C354 C 0.41533 0.99655 0.48117 0.0
C355 C 0.4336 0.98934 0.42681 0.0
C356 C 0.45287 0.97299 0.44831 0.0
C357 C 0.434 0.96829 0.57529 0.0
C358 C 0.41484 0.98467 0.55396 0.0
C359 C 0.47918 0.95831 0.5579 0.0
H360 H 0.5837 0.12965 0.94557 0.0
H361 H 0.54878 0.11536 0.86485 0.0
H362 H 0.55658 0.04058 0.95886 0.0
H363 H 0.59138 0.05481 0.03985 0.0
H364 H 0.43392 0.99758 0.36927 0.0
H365 H 0.46813 0.96979 0.40798 0.0
H366 H 0.43426 0.96144 0.63452 0.0
H367 H 0.40091 0.98963 0.59702 0.0
Tb368 Tb 0.4818 0.51444 0.74709 0.0
Eu369 Eu 0.5299 0.49855 0.63852 0.0
C370 C 0.47347 0.49908 0.5704 0.0
C371 C 0.50075 0.45853 0.74437 0.0
C372 C 0.43699 0.54473 0.88631 0.0
C373 C 0.40496 0.5705 0.94642 0.0
C374 C 0.41182 0.55196 0.89363 0.0
C375 C 0.45525 0.55594 0.93308 0.0
C376 C 0.44838 0.57435 0.98627 0.0
C377 C 0.42319 0.58197 0.99297 0.0
C378 C 0.44384 0.52627 0.82732 0.0
O379 O 0.51296 0.51418 0.83021 0.0
O380 O 0.5472 0.51281 0.74879 0.0
O381 O 0.51962 0.53802 0.6035 0.0
O382 O 0.50066 0.54969 0.71729 0.0
C383 C 0.5374 0.51515 0.81823 0.0
O384 O 0.56939 0.50251 0.60616 0.0
O385 O 0.5457 0.47642 0.54483 0.0
O386 O 0.49564 0.48839 0.56813 0.0
O387 O 0.46647 0.51274 0.62972 0.0
O388 O 0.48114 0.47346 0.74033 0.0
O389 O 0.52283 0.46596 0.71957 0.0
C390 C 0.51097 0.55545 0.64995 0.0
O391 O 0.44868 0.53537 0.75882 0.0
O392 O 0.45997 0.50909 0.84738 0.0
C393 C 0.58651 0.4635 0.57027 0.0
C394 C 0.60965 0.41632 0.58429 0.0
C395 C 0.59925 0.42802 0.64976 0.0
C396 C 0.58762 0.45139 0.64268 0.0
C397 C 0.59903 0.45315 0.50681 0.0
C398 C 0.61059 0.42977 0.51373 0.0
C399 C 0.56857 0.48392 0.55756 0.0
H400 H 0.38543 0.57594 0.95064 0.0
H401 H 0.39752 0.5435 0.85766 0.0
H402 H 0.47482 0.55074 0.92759 0.0
H403 H 0.4629 0.58317 0.02052 0.0
H404 H 0.59844 0.41829 0.70502 0.0
H405 H 0.57793 0.45912 0.69235 0.0
H406 H 0.59816 0.46219 0.45044 0.0
H407 H 0.61812 0.42129 0.46178 0.0
Tb408 Tb 0.99103 0.48007 0.76162 0.0
Eu409 Eu 0.0133 0.5198 0.63419 0.0
C410 C 0.00924 0.46202 0.59838 0.0
C411 C 0.04957 0.49356 0.76234 0.0
C412 C 0.95266 0.43773 0.89353 0.0
C413 C 0.92314 0.4042 0.9227 0.0
C414 C 0.94361 0.41338 0.88065 0.0
C415 C 0.94078 0.45292 0.94868 0.0
C416 C 0.92045 0.44368 0.99111 0.0
C417 C 0.91159 0.41916 0.97901 0.0
C418 C 0.97534 0.44611 0.85218 0.0
O419 O 0.98121 0.51674 0.80978 0.0
O420 O 0.01283 0.53859 0.75068 0.0
O421 O 0.97146 0.52205 0.61647 0.0
O422 O 0.95766 0.48899 0.69224 0.0
C423 C 0.99573 0.53668 0.80514 0.0
O424 O 0.01554 0.55856 0.59322 0.0
O425 O 0.03583 0.52931 0.53291 0.0
O426 O 1.00479 0.48423 0.56869 0.0
O427 O 0.01211 0.45954 0.67359 0.0
O428 O 0.02938 0.48666 0.80102 0.0
O429 O 0.04806 0.50349 0.69234 0.0
C430 C 0.95356 0.50693 0.64081 0.0
O431 O 0.9749 0.44446 0.77689 0.0
O432 O 0.98616 0.46669 0.87526 0.0
C433 C 0.05699 0.56665 0.55379 0.0
C434 C 0.10883 0.57246 0.56981 0.0
C435 C 0.0975 0.57587 0.49697 0.0
C436 C 0.07161 0.57276 0.48891 0.0
C437 C 0.06785 0.56702 0.62796 0.0
C438 C 0.09368 0.56994 0.63593 0.0
C439 C 0.0332 0.55341 0.54328 0.0
H440 H 0.91671 0.38523 0.91246 0.0
H441 H 0.95264 0.40129 0.83875 0.0
H442 H 0.94733 0.47179 0.95972 0.0
H443 H 0.91158 0.45576 0.03332 0.0
H444 H 0.10888 0.57758 0.44511 0.0
H445 H 0.06354 0.57238 0.43131 0.0
H446 H 0.05688 0.56217 0.67882 0.0
H447 H 0.10209 0.56713 0.69249 0.0
H448 H 0.14141 0.03985 0.40278 0.0
H449 H 0.11125 0.98887 0.23391 0.0
H450 H 0.07526 0.98031 0.31923 0.0
H451 H 0.05183 0.98807 0.44229 0.0
H452 H 0.08381 0.03828 0.61087 0.0
H453 H 0.1192 0.04653 0.52516 0.0
C454 C 0.1269 0.02694 0.38425 0.0
C455 C 0.12898 0.01526 0.31137 0.0
C456 C 0.1064 0.02205 0.43371 0.0
C457 C 0.11023 0.99813 0.28954 0.0
C458 C 0.08955 0.99333 0.33827 0.0
C459 C 0.0665 1.0009 0.46002 0.0
C460 C 0.06491 0.01265 0.53317 0.0
C461 C 0.08731 1.00533 0.41047 0.0
C462 C 0.08436 0.02893 0.55532 0.0
C463 C 0.1047 0.0337 0.50618 0.0
H464 H 0.46845 0.12719 0.34998 0.0
H465 H 0.54786 0.14205 0.36159 0.0
H466 H 0.55303 0.10856 0.45717 0.0
H467 H 0.53512 0.07574 0.54032 0.0
H468 H 0.45645 0.05796 0.52419 0.0
H469 H 0.45082 0.09151 0.42761 0.0
C470 C 0.48685 0.1229 0.37322 0.0
C471 C 0.50777 0.1371 0.34856 0.0
C472 C 0.48981 0.1031 0.42754 0.0
C473 C 0.53153 0.13129 0.379 0.0
C474 C 0.53448 0.1122 0.43398 0.0
C475 C 0.51673 0.07917 0.51564 0.0
C476 C 0.49619 0.06452 0.5401 0.0
C477 C 0.51378 0.09809 0.45911 0.0
C478 C 0.47258 0.06897 0.50645 0.0
C479 C 0.46935 0.08823 0.45136 0.0
H480 H 0.40784 0.47179 0.2745 0.0
H481 H 0.36285 0.53235 0.36436 0.0
H482 H 0.39284 0.53861 0.46867 0.0
H483 H 0.4309 0.52592 0.53894 0.0
H484 H 0.47631 0.46556 0.45034 0.0
H485 H 0.44709 0.46012 0.34252 0.0
C486 C 0.4046 0.48642 0.3167 0.0
C487 C 0.38296 0.50163 0.31049 0.0
C488 C 0.42195 0.48984 0.37777 0.0
C489 C 0.37941 0.52062 0.36592 0.0
C490 C 0.39649 0.52407 0.4265 0.0
C491 C 0.43447 0.51154 0.49617 0.0
C492 C 0.45582 0.49606 0.50362 0.0
C493 C 0.41767 0.50863 0.43365 0.0
C494 C 0.46011 0.47775 0.44665 0.0
C495 C 0.44335 0.47461 0.38475 0.0
H496 H 0.01387 0.35535 0.43824 0.0
H497 H 1.0022 0.40048 0.23299 0.0
H498 H 1.00298 0.4385 0.31125 0.0
H499 H 1.00533 0.45911 0.43934 0.0
H500 H 0.01747 0.41357 0.64364 0.0
H501 H 0.01851 0.37594 0.56445 0.0
C502 C 0.01196 0.37349 0.41013 0.0
C503 C 0.00788 0.3748 0.32937 0.0
C504 C 0.0124 0.39541 0.45564 0.0
C505 C 1.00501 0.39866 0.29492 0.0
C506 C 1.00554 0.42052 0.33974 0.0
C507 C 0.00837 0.44099 0.46656 0.0
C508 C 0.01125 0.43939 0.54781 0.0
C509 C 0.0089 0.41915 0.4204 0.0
C510 C 0.01518 0.4156 0.58155 0.0
C511 C 0.01575 0.39393 0.53618 0.0
H512 H 0.9023 0.98795 0.10894 0.0
H513 H 0.84449 1.0046 0.94168 0.0
H514 H 0.87559 1.00488 0.83771 0.0
H515 H 0.91955 1.00209 0.79403 0.0
H516 H 0.97738 0.9841 0.95994 0.0
H517 H 0.94614 0.98277 0.06383 0.0
C518 C 0.89649 0.99153 0.04968 0.0
C519 C 0.87094 0.99619 0.03358 0.0
C520 C 0.91458 0.99159 0.9896 0.0
C521 C 0.86386 1.00059 0.95608 0.0
C522 C 0.88172 1.00096 0.89643 0.0
C523 C 0.92535 0.99781 0.85286 0.0
C524 C 0.95094 0.99335 0.86881 0.0
C525 C 0.90718 0.99673 0.91248 0.0
C526 C 0.95792 0.98759 0.94555 0.0
C527 C 0.94001 0.98687 1.00523 0.0
H528 H 0.50857 0.90523 0.12254 0.0
H529 H 0.53405 0.84984 0.95934 0.0
H530 H 0.53838 0.88228 0.8593 0.0
H531 H 0.53205 0.926 0.81532 0.0
H532 H 0.50727 0.98145 0.97982 0.0
H533 H 0.50563 0.94952 0.08154 0.0
C534 C 0.51525 0.9003 0.06521 0.0
C535 C 0.52085 0.87505 0.04856 0.0
C536 C 0.51768 0.91909 0.00778 0.0
C537 C 0.52979 0.86909 0.97414 0.0
C538 C 0.53209 0.88763 0.91663 0.0
C539 C 0.52649 0.93118 0.87355 0.0
C540 C 0.51959 0.95619 0.88929 0.0
C541 C 0.52567 0.91265 0.93233 0.0
C542 C 0.51267 0.96245 0.96554 0.0
C543 C 0.51164 0.94413 0.02395 0.0
H544 H 0.59918 0.51244 0.13317 0.0
H545 H 0.66033 0.52548 0.97364 0.0
H546 H 0.63078 0.52838 0.86629 0.0
H547 H 0.58793 0.52429 0.81541 0.0
H548 H 0.52648 0.51117 0.97368 0.0
H549 H 0.5557 0.51116 0.08288 0.0
C550 C 0.60607 0.51605 0.075 0.0
C551 C 0.63215 0.51871 0.06217 0.0
C552 C 0.58887 0.51748 0.01276 0.0
C553 C 0.6405 0.5237 0.98613 0.0
C554 C 0.62356 0.52512 0.92425 0.0
C555 C 0.58081 0.5216 0.87378 0.0
C556 C 0.55489 0.51754 0.88568 0.0
C557 C 0.59776 0.52163 0.93658 0.0
C558 C 0.54621 0.51432 0.96222 0.0
C559 C 0.56298 0.51424 0.02491 0.0
H560 H 0.98214 0.61355 0.08475 0.0
H561 H 0.04005 0.65169 0.955 0.0
H562 H 0.0385 0.61959 0.85526 0.0
H563 H 0.02251 0.57996 0.8073 0.0
H564 H 0.96533 0.53998 0.93505 0.0
H565 H 0.96471 0.57336 0.03249 0.0
C566 C 0.99415 0.61487 0.03412 0.0
C567 C 0.01129 0.63498 0.02749 0.0
C568 C 0.99345 0.59591 0.97682 0.0
C569 C 0.02685 0.63637 0.96175 0.0
C570 C 0.02599 0.61799 0.90465 0.0
C571 C 0.00977 0.57842 0.85618 0.0
C572 C 0.99406 0.55726 0.86357 0.0
C573 C 0.00967 0.59752 0.91205 0.0
C574 C 0.97769 0.55594 0.92758 0.0
C575 C 0.97735 0.57507 0.98348 0.0
H576 H 0.86611 0.17736 0.35961 0.0
H577 H 0.92556 0.20438 0.5072 0.0
H578 H 0.9249 0.16538 0.57996 0.0
H579 H 0.91596 0.12062 0.57807 0.0
H580 H 0.85982 0.09161 0.42253 0.0
H581 H 0.85104 0.13409 0.37583 0.0
C582 C 0.87857 0.17491 0.40872 0.0
C583 C 0.89641 0.19357 0.42587 0.0
C584 C 0.87927 0.15171 0.44751 0.0
C585 C 0.91168 0.19046 0.49177 0.0
C586 C 0.91162 0.16789 0.533 0.0
C587 C 0.90107 0.12359 0.53624 0.0
C588 C 0.88897 0.1029 0.50252 0.0
C589 C 0.89675 0.14787 0.50788 0.0
C590 C 0.86982 0.10719 0.44806 0.0
C591 C 0.86481 0.13147 0.42132 0.0
H592 H 0.35618 0.09213 0.36922 0.0
H593 H 0.29475 0.04913 0.4662 0.0
H594 H 0.32404 0.01936 0.52077 0.0
H595 H 0.36584 1.00054 0.51768 0.0
H596 H 0.42701 0.04098 0.41058 0.0
H597 H 0.39891 0.07567 0.37922 0.0
C598 C 0.34912 0.07638 0.40273 0.0
C599 C 0.32307 0.07268 0.41056 0.0
C600 C 0.36597 0.05806 0.42926 0.0
C601 C 0.31455 0.05278 0.45808 0.0
C602 C 0.33132 0.03525 0.48834 0.0
C603 C 0.3731 0.01708 0.4884 0.0
C604 C 0.3983 0.01788 0.46472 0.0
C605 C 0.35685 0.0369 0.47023 0.0
C606 C 0.40745 0.03952 0.42711 0.0
C607 C 0.39148 0.05951 0.41003 0.0
H608 H 0.58898 0.30548 0.5178 0.0
H609 H 0.65313 0.3162 0.36841 0.0
H610 H 0.66321 0.35524 0.43483 0.0
H611 H 0.64735 0.39059 0.51196 0.0
H612 H 0.58146 0.38007 0.65419 0.0
H613 H 0.57938 0.33632 0.61716 0.0
C614 C 0.60583 0.31567 0.50182 0.0
C615 C 0.61977 0.30837 0.43645 0.0
C616 C 0.61105 0.33844 0.53863 0.0
C617 C 0.64163 0.32185 0.41709 0.0
C618 C 0.64736 0.34422 0.4549 0.0
C619 C 0.63297 0.37851 0.53645 0.0
C620 C 0.6142 0.38883 0.58397 0.0
C621 C 0.63116 0.35351 0.51203 0.0
C622 C 0.59612 0.37278 0.61719 0.0
C623 C 0.59469 0.34772 0.59519 0.0
H624 H 0.21419 0.53495 0.47214 0.0
H625 H 0.18247 0.46599 0.55951 0.0
H626 H 0.14813 0.48936 0.61973 0.0
H627 H 0.1229 0.52742 0.61928 0.0
H628 H 0.1518 0.59565 0.51856 0.0
H629 H 0.19176 0.57465 0.49087 0.0
C630 C 0.20027 0.52523 0.50709 0.0
C631 C 0.20064 0.4989 0.51177 0.0
C632 C 0.17992 0.53862 0.53713 0.0
C633 C 0.18239 0.48627 0.55564 0.0
C634 C 0.16272 0.4996 0.58923 0.0
C635 C 0.13842 0.53801 0.59487 0.0
C636 C 0.13478 0.56308 0.57221 0.0
C637 C 0.16063 0.52554 0.57645 0.0
C638 C 0.15448 0.57641 0.53723 0.0
C639 C 0.17716 0.56435 0.52107 0.0
H640 H 0.10603 0.80491 0.94836 0.0
H641 H 0.15848 0.82887 0.12323 0.0
H642 H 0.16344 0.86915 0.05653 0.0
H643 H 0.14565 0.90014 0.96555 0.0
H644 H 0.09063 0.87615 0.79805 0.0
H645 H 0.09493 0.83311 0.84244 0.0
C646 C 0.1194 0.81845 0.97036 0.0
C647 C 0.1314 0.81409 0.04177 0.0
C648 C 0.12147 0.84181 0.93328 0.0
C649 C 0.14857 0.83199 0.06925 0.0
C650 C 0.15134 0.85507 0.03129 0.0
C651 C 0.13499 0.88539 0.93775 0.0
C652 C 0.11741 0.89157 0.87984 0.0
C653 C 0.13667 0.86069 0.966 0.0
C654 C 0.1043 0.87213 0.84279 0.0
C655 C 0.1065 0.84743 0.86881 0.0
H656 H 0.68037 0.10465 0.22662 0.0
H657 H 0.71384 0.13924 0.02465 0.0
H658 H 0.67332 0.13785 0.95801 0.0
H659 H 0.63033 0.12073 0.95117 0.0
H660 H 0.59835 0.08428 0.15226 0.0
H661 H 0.63648 0.09269 0.22584 0.0
C662 C 0.67873 0.11282 0.16913 0.0
C663 C 0.70019 0.12201 0.13064 0.0
C664 C 0.65575 0.11111 0.13053 0.0
C665 C 0.69765 0.13195 0.05539 0.0
C666 C 0.67453 0.131 0.01717 0.0
C667 C 0.63156 0.11515 0.01161 0.0
C668 C 0.61177 0.1016 0.04609 0.0
C669 C 0.65374 0.11964 0.0531 0.0
C670 C 0.61357 0.09432 0.12423 0.0
C671 C 0.63529 0.09921 0.16632 0.0
H672 H 0.41924 0.66908 0.23355 0.0
H673 H 0.37592 0.70394 0.05126 0.0
H674 H 0.37576 0.66442 0.97968 0.0
H675 H 0.39335 0.62209 0.96112 0.0
H676 H 0.43799 0.58849 0.14252 0.0
H677 H 0.43195 0.6255 0.22297 0.0
C678 C 0.40891 0.66792 0.17957 0.0
C679 C 0.39765 0.68953 0.14776 0.0
C680 C 0.40957 0.64548 0.13797 0.0
C681 C 0.38489 0.68765 0.07676 0.0
C682 C 0.3849 0.66509 0.03571 0.0
C683 C 0.40125 0.62266 0.019 0.0
C684 C 0.41639 0.60276 0.04555 0.0
C685 C 0.39805 0.6442 0.06441 0.0
C686 C 0.42666 0.60379 0.12037 0.0
C687 C 0.42314 0.62489 0.16642 0.0
H688 H 0.8239 0.40097 0.21202 0.0
H689 H 0.78719 0.37501 1.00453 0.0
H690 H 0.82697 0.37789 0.9338 0.0
H691 H 0.87022 0.39452 0.92693 0.0
H692 H 0.90539 0.42207 0.13485 0.0
H693 H 0.86801 0.41156 0.20992 0.0
C694 C 0.82462 0.39492 0.15216 0.0
C695 C 0.80246 0.38795 0.11357 0.0
C696 C 0.84719 0.39748 0.11155 0.0
C697 C 0.80391 0.38068 0.03544 0.0
C698 C 0.82661 0.38248 0.9949 0.0
C699 C 0.86983 0.39769 0.98897 0.0
C700 C 0.89027 0.40949 0.02523 0.0
C701 C 0.84807 0.39198 0.03159 0.0
C702 C 0.88962 0.41354 0.10554 0.0
C703 C 0.86833 0.40742 0.14848 0.0
H704 H 0.98591 0.16353 0.82382 0.0
H705 H 0.03303 0.14473 0.01893 0.0
H706 H 0.03852 0.10239 0.96878 0.0
H707 H 0.02818 0.0697 0.87324 0.0
H708 H 0.98065 0.08837 0.67891 0.0
H709 H 0.9769 0.13133 0.72561 0.0
C710 C 0.99741 0.15022 0.85553 0.0
C711 C 0.00899 0.1576 0.92549 0.0
C712 C 1.00026 0.12562 0.8268 0.0
C713 C 0.02413 0.13998 0.96458 0.0
C714 C 0.0271 0.11555 0.93625 0.0
C715 C 0.01704 0.08314 0.84084 0.0
C716 C 1.00465 0.07553 0.77253 0.0
C717 C 0.01498 0.10802 0.86798 0.0
C718 C 0.99045 0.09347 0.73146 0.0
C719 C 0.98825 0.11814 0.75826 0.0
H720 H 0.35501 0.05252 0.90136 0.0
H721 H 0.33656 0.97491 0.86119 0.0
H722 H 0.37856 0.96782 0.80808 0.0
H723 H 0.42103 0.98353 0.77437 0.0
H724 H 0.439 0.06125 0.81578 0.0
H725 H 0.39679 0.06834 0.86559 0.0
C726 C 0.35994 0.03409 0.88002 0.0
C727 C 0.3423 0.01433 0.88531 0.0
C728 C 0.38423 0.0301 0.84963 0.0
C729 C 0.34958 0.99049 0.85873 0.0
C730 C 0.37366 0.98643 0.82795 0.0
C731 C 0.41575 1.00205 0.79409 0.0
C732 C 0.43349 0.02179 0.79118 0.0
C733 C 0.39124 1.00606 0.82343 0.0
C734 C 0.42602 0.04563 0.81715 0.0
C735 C 0.40176 0.04974 0.84583 0.0
H736 H 0.48278 0.36121 0.95072 0.0
H737 H 0.54349 0.33403 0.80807 0.0
H738 H 0.54395 0.37337 0.73606 0.0
H739 H 0.52922 0.4168 0.71814 0.0
H740 H 0.46655 0.44323 0.85309 0.0
H741 H 0.46463 0.40303 0.9221 0.0
C742 C 0.4958 0.36361 0.90293 0.0
C743 C 0.51348 0.34459 0.88671 0.0
C744 C 0.4958 0.38639 0.86031 0.0
C745 C 0.53015 0.3484 0.82413 0.0
C746 C 0.53039 0.37096 0.78233 0.0
C747 C 0.51499 0.4137 0.7622 0.0
C748 C 0.49818 0.43317 0.78067 0.0
C749 C 0.51372 0.39033 0.80096 0.0
C750 C 0.47971 0.42863 0.83742 0.0
C751 C 0.47866 0.40562 0.87722 0.0
H752 H 0.14386 0.46592 0.96982 0.0
H753 H 0.1804 0.51896 0.81696 0.0
H754 H 0.14082 0.52607 0.74982 0.0
H755 H 0.09544 0.51606 0.72979 0.0
H756 H 0.06009 0.46245 0.88336 0.0
H757 H 0.09955 0.45602 0.951 0.0
C758 C 0.14355 0.4786 0.92052 0.0
C759 C 0.16561 0.49163 0.89885 0.0
C760 C 0.12074 0.4822 0.88036 0.0
C761 C 0.16401 0.50864 0.83614 0.0
C762 C 0.14129 0.51251 0.79655 0.0
C763 C 0.09644 0.50282 0.77758 0.0
C764 C 0.07457 0.48971 0.80073 0.0
C765 C 0.11949 0.49924 0.81748 0.0
C766 C 0.07636 0.47291 0.86383 0.0
C767 C 0.09904 0.46915 0.90282 0.0
H768 H 0.03812 0.84308 0.52236 0.0
H769 H 0.9608 0.84452 0.44819 0.0
H770 H 0.95543 0.88567 0.50719 0.0
H771 H 0.97288 0.92197 0.57714 0.0
H772 H 0.04985 0.91974 0.65448 0.0
H773 H 0.05481 0.87812 0.59864 0.0
C774 C 0.01989 0.85205 0.52015 0.0
C775 C 0.99994 0.8404 0.48013 0.0
C776 C 0.01682 0.87576 0.55495 0.0
C777 C 0.97669 0.85294 0.47714 0.0
C778 C 0.97353 0.87652 0.51138 0.0
C779 C 0.99073 0.91237 0.58226 0.0
C780 C 0.01097 0.92427 0.61997 0.0
C781 C 0.99352 0.88825 0.54984 0.0
C782 C 0.03389 0.91129 0.62593 0.0
C783 C 0.03679 0.88739 0.59376 0.0
H784 H 0.67516 0.00889 0.61058 0.0
H785 H 0.65153 0.98122 0.38756 0.0
H786 H 0.60835 0.97883 0.43362 0.0
H787 H 0.57648 0.98729 0.53405 0.0
H788 H 0.59986 0.01672 0.75506 0.0
H789 H 0.64353 0.01609 0.71232 0.0
C790 C 0.66064 1.00237 0.57169 0.0
C791 C 0.66699 0.99531 0.49518 0.0
C792 C 0.63552 1.00159 0.59801 0.0
C793 C 0.64765 0.98644 0.44692 0.0
C794 C 0.62274 0.98532 0.47302 0.0
C795 C 0.5911 0.99341 0.57327 0.0
C796 C 0.58461 1.00212 0.6479 0.0
C797 C 0.61635 0.99322 0.54804 0.0
C798 C 0.60404 0.00997 0.69738 0.0
C799 C 0.62914 0.00963 0.6729 0.0
H800 H 0.49675 0.66988 0.5607 0.0
H801 H 0.55917 0.65302 0.40968 0.0
H802 H 0.56011 0.61018 0.45935 0.0
H803 H 0.54237 0.57675 0.54257 0.0
H804 H 0.48206 0.59448 0.69995 0.0
H805 H 0.48167 0.63773 0.65222 0.0
C806 C 0.51101 0.65716 0.53955 0.0
C807 C 0.52768 0.66503 0.48033 0.0
C808 C 0.51183 0.63249 0.56959 0.0
C809 C 0.54563 0.64769 0.45359 0.0
C810 C 0.54632 0.62308 0.48243 0.0
C811 C 0.52922 0.5901 0.56674 0.0
C812 C 0.51215 0.58222 0.62453 0.0
C813 C 0.5293 0.61514 0.53966 0.0
C814 C 0.49545 0.59993 0.65565 0.0
C815 C 0.49515 0.62471 0.62813 0.0
H816 H 0.85536 0.51938 0.43561 0.0
H817 H 0.82108 0.48925 0.64317 0.0
H818 H 0.86182 0.48777 0.70643 0.0
H819 H 0.90787 0.4933 0.7022 0.0
H820 H 0.94173 0.5264 0.49874 0.0
H821 H 0.90076 0.52874 0.43594 0.0
C822 C 0.85659 0.51293 0.49517 0.0
C823 C 0.83484 0.50397 0.53333 0.0
C824 C 0.88026 0.51251 0.53239 0.0
C825 C 0.8373 0.4956 0.61074 0.0
C826 C 0.86072 0.49486 0.64752 0.0
C827 C 0.90628 0.50112 0.64424 0.0
C828 C 0.92805 0.5095 0.60535 0.0
C829 C 0.88243 0.50285 0.60859 0.0
C830 C 0.92543 0.51984 0.53047 0.0
C831 C 0.90192 0.52114 0.49423 0.0
loop_
_geom_bond_atom_site_label_1
_geom_bond_atom_site_label_2
_geom_bond_distance
_geom_bond_site_symmetry_2
_ccdc_geom_bond_type
C0 C1 1.384 . S
C0 H13 0.947 . S
C0 C35 1.382 . S
C1 C0 1.384 . S
C1 C2 1.378 . S
C2 C1 1.378 . S
C2 C3 1.378 . S
C2 H14 0.952 . S
C3 C2 1.378 . S
C3 H15 0.950 . S
C3 C34 1.383 . S
H4 C23 0.947 . S
H5 C24 0.946 . S
H6 C26 0.953 . S
H7 C27 0.945 . S
H8 C29 0.952 . S
H9 C30 0.949 . S
H10 C32 0.950 . S
H11 C33 0.948 . S
H12 C35 0.951 . S
H13 C0 0.947 . S
H14 C2 0.952 . S
H15 C3 0.950 . S
N16 C19 1.382 . S
N16 C21 1.363 . S
N17 C19 1.371 . S
N17 C20 1.372 . S
N18 C20 1.361 . S
N18 C21 1.377 . S
C19 N16 1.382 . S
C19 N17 1.371 . S
C19 C22 1.480 . S
C20 N17 1.372 . S
C20 N18 1.361 . S
C20 C28 1.457 . S
C21 N16 1.363 . S
C21 N18 1.377 . S
C21 C34 1.479 . S
C22 C19 1.480 . S
C22 C23 1.383 . S
C22 C27 1.385 . S
C23 H4 0.947 . S
C23 C22 1.383 . S
C23 C24 1.388 . S
C24 H5 0.946 . S
C24 C23 1.388 . S
C24 C25 1.384 . S
C25 C24 1.384 . S
C25 C26 1.377 . S
C26 H6 0.953 . S
C26 C25 1.377 . S
C26 C27 1.369 . S
C27 H7 0.945 . S
C27 C22 1.385 . S
C27 C26 1.369 . S
C28 C20 1.457 . S
C28 C29 1.372 . S
C28 C33 1.364 . S
C29 H8 0.952 . S
C29 C28 1.372 . S
C29 C30 1.389 . S
C30 H9 0.949 . S
C30 C29 1.389 . S
C30 C31 1.387 . S
C31 C30 1.387 . S
C31 C32 1.372 . S
C32 H10 0.950 . S
C32 C31 1.372 . S
C32 C33 1.379 . S
C33 H11 0.948 . S
C33 C28 1.364 . S
C33 C32 1.379 . S
C34 C3 1.383 . S
C34 C21 1.479 . S
C34 C35 1.398 . S
C35 C0 1.382 . S
C35 H12 0.951 . S
C35 C34 1.398 . S
C36 C37 1.384 1_655 S
C36 H49 0.948 . S
C36 C71 1.382 1_655 S
C37 C36 1.384 1_455 S
C37 C38 1.378 . S
C38 C37 1.378 . S
C38 C39 1.378 . S
C38 H50 0.952 . S
C39 C38 1.378 . S
C39 H51 0.950 . S
C39 C70 1.383 . S
H40 C59 0.947 . S
H41 C60 0.952 . S
H42 C62 0.953 . S
H43 C63 0.945 . S
H44 C65 0.949 1_655 S
H45 C66 0.956 . S
H46 C68 0.950 . S
H47 C69 0.948 . S
H48 C71 0.951 1_655 S
H49 C36 0.948 . S
H50 C38 0.952 . S
H51 C39 0.950 . S
N52 C55 1.382 . S
N52 C57 1.363 . S
N53 C55 1.371 . S
N53 C56 1.372 . S
N54 C56 1.361 . S
N54 C57 1.377 . S
C55 N52 1.382 . S
C55 N53 1.371 . S
C55 C58 1.480 . S
C56 N53 1.372 . S
C56 N54 1.361 . S
C56 C64 1.457 . S
C57 N52 1.363 . S
C57 N54 1.377 . S
C57 C70 1.479 . S
C58 C55 1.480 . S
C58 C59 1.383 . S
C58 C63 1.385 . S
C59 H40 0.947 . S
C59 C58 1.383 . S
C59 C60 1.386 1_455 S
C60 H41 0.952 . S
C60 C59 1.386 1_655 S
C60 C61 1.381 1_655 S
C61 C60 1.381 1_455 S
C61 C62 1.377 . S
C62 H42 0.953 . S
C62 C61 1.377 . S
C62 C63 1.369 . S
C63 H43 0.945 . S
C63 C58 1.385 . S
C63 C62 1.369 . S
C64 C56 1.457 . S
C64 C65 1.376 . S
C64 C69 1.364 . S
C65 H44 0.949 1_455 S
C65 C64 1.376 . S
C65 C66 1.386 1_455 S
C66 H45 0.956 . S
C66 C65 1.386 1_655 S
C66 C67 1.383 1_655 S
C67 C66 1.383 1_455 S
C67 C68 1.372 . S
C68 H46 0.950 . S
C68 C67 1.372 . S
C68 C69 1.379 . S
C69 H47 0.948 . S
C69 C64 1.364 . S
C69 C68 1.379 . S
C70 C39 1.383 . S
C70 C57 1.479 . S
C70 C71 1.398 . S
C71 C36 1.382 1_455 S
C71 H48 0.951 1_455 S
C71 C70 1.398 . S
C72 C73 1.384 1_565 S
C72 H85 0.948 . S
C72 C107 1.382 1_565 S
C73 C72 1.384 1_545 S
C73 C74 1.378 . S
C74 C73 1.378 . S
C74 C75 1.378 . S
C74 H86 0.952 . S
C75 C74 1.378 . S
C75 H87 0.950 . S
C75 C106 1.383 . S
H76 C95 0.947 . S
H77 C96 0.952 . S
H78 C98 0.953 . S
H79 C99 0.945 . S
H80 C101 0.949 1_565 S
H81 C102 0.957 . S
H82 C104 0.950 . S
H83 C105 0.948 . S
H84 C107 0.951 1_565 S
H85 C72 0.948 . S
H86 C74 0.952 . S
H87 C75 0.950 . S
N88 C91 1.382 . S
N88 C93 1.363 . S
N89 C91 1.371 . S
N89 C92 1.372 . S
N90 C92 1.361 . S
N90 C93 1.377 . S
C91 N88 1.382 . S
C91 N89 1.371 . S
C91 C94 1.480 . S
C92 N89 1.372 . S
C92 N90 1.361 . S
C92 C100 1.457 . S
C93 N88 1.363 . S
C93 N90 1.377 . S
C93 C106 1.479 . S
C94 C91 1.480 . S
C94 C95 1.383 . S
C94 C99 1.385 . S
C95 H76 0.947 . S
C95 C94 1.383 . S
C95 C96 1.386 1_545 S
C96 H77 0.952 . S
C96 C95 1.386 1_565 S
C96 C97 1.382 1_565 S
C97 C96 1.382 1_545 S
C97 C98 1.377 . S
C98 H78 0.953 . S
C98 C97 1.377 . S
C98 C99 1.369 . S
C99 H79 0.945 . S
C99 C94 1.385 . S
C99 C98 1.369 . S
C100 C92 1.457 . S
C100 C101 1.377 . S
C100 C105 1.364 . S
C101 H80 0.949 1_545 S
C101 C100 1.377 . S
C101 C102 1.386 1_545 S
C102 H81 0.957 . S
C102 C101 1.386 1_565 S
C102 C103 1.383 1_565 S
C103 C102 1.383 1_545 S
C103 C104 1.372 . S
C104 H82 0.950 . S
C104 C103 1.372 . S
C104 C105 1.379 . S
C105 H83 0.948 . S
C105 C100 1.364 . S
C105 C104 1.379 . S
C106 C75 1.383 . S
C106 C93 1.479 . S
C106 C107 1.398 . S
C107 C72 1.382 1_545 S
C107 H84 0.951 1_545 S
C107 C106 1.398 . S
C108 C109 1.384 . S
C108 H121 0.947 . S
C108 C143 1.382 . S
C109 C108 1.384 . S
C109 C110 1.378 . S
C110 C109 1.378 . S
C110 C111 1.378 . S
C110 H122 0.952 . S
C111 C110 1.378 . S
C111 H123 0.950 . S
C111 C142 1.383 . S
H112 C131 0.947 . S
H113 C132 0.946 . S
H114 C134 0.953 . S
H115 C135 0.945 . S
H116 C137 0.952 . S
H117 C138 0.949 . S
H118 C140 0.950 . S
H119 C141 0.948 . S
H120 C143 0.951 . S
H121 C108 0.947 . S
H122 C110 0.952 . S
H123 C111 0.950 . S
N124 C127 1.382 . S
N124 C129 1.363 . S
N125 C127 1.371 . S
N125 C128 1.372 . S
N126 C128 1.361 . S
N126 C129 1.377 . S
C127 N124 1.382 . S
C127 N125 1.371 . S
C127 C130 1.480 . S
C128 N125 1.372 . S
C128 N126 1.361 . S
C128 C136 1.457 . S
C129 N124 1.363 . S
C129 N126 1.377 . S
C129 C142 1.479 . S
C130 C127 1.480 . S
C130 C131 1.383 . S
C130 C135 1.385 . S
C131 H112 0.947 . S
C131 C130 1.383 . S
C131 C132 1.388 . S
C132 H113 0.946 . S
C132 C131 1.388 . S
C132 C133 1.384 . S
C133 C132 1.384 . S
C133 C134 1.377 . S
C134 H114 0.953 . S
C134 C133 1.377 . S
C134 C135 1.369 . S
C135 H115 0.945 . S
C135 C130 1.385 . S
C135 C134 1.369 . S
C136 C128 1.457 . S
C136 C137 1.372 . S
C136 C141 1.364 . S
C137 H116 0.952 . S
C137 C136 1.372 . S
C137 C138 1.389 . S
C138 H117 0.949 . S
C138 C137 1.389 . S
C138 C139 1.387 . S
C139 C138 1.387 . S
C139 C140 1.372 . S
C140 H118 0.950 . S
C140 C139 1.372 . S
C140 C141 1.379 . S
C141 H119 0.948 . S
C141 C136 1.364 . S
C141 C140 1.379 . S
C142 C111 1.383 . S
C142 C129 1.479 . S
C142 C143 1.398 . S
C143 C108 1.382 . S
C143 H120 0.951 . S
C143 C142 1.398 . S
C144 C145 1.384 . S
C144 H157 0.947 . S
C144 C179 1.382 . S
C145 C144 1.384 . S
C145 C146 1.378 . S
C146 C145 1.378 . S
C146 C147 1.378 . S
C146 H158 0.952 . S
C147 C146 1.378 . S
C147 H159 0.950 . S
C147 C178 1.383 . S
H148 C167 0.947 1_556 S
H149 C168 0.946 . S
H150 C170 0.953 . S
H151 C171 0.945 . S
H152 C173 0.952 . S
H153 C174 0.949 . S
H154 C176 0.950 . S
H155 C177 0.948 . S
H156 C179 0.951 . S
H157 C144 0.947 . S
H158 C146 0.952 . S
H159 C147 0.950 . S
N160 C163 1.382 1_556 S
N160 C165 1.363 . S
N161 C163 1.371 . S
N161 C164 1.372 . S
N162 C164 1.361 . S
N162 C165 1.377 1_554 S
C163 N160 1.382 1_554 S
C163 N161 1.371 . S
C163 C166 1.480 . S
C164 N161 1.372 . S
C164 N162 1.361 . S
C164 C172 1.457 . S
C165 N160 1.363 . S
C165 N162 1.377 1_556 S
C165 C178 1.479 . S
C166 C163 1.480 . S
C166 C167 1.383 . S
C166 C171 1.385 . S
C167 H148 0.947 1_554 S
C167 C166 1.383 . S
C167 C168 1.388 . S
C168 H149 0.946 . S
C168 C167 1.388 . S
C168 C169 1.384 . S
C169 C168 1.384 . S
C169 C170 1.377 . S
C170 H150 0.953 . S
C170 C169 1.377 . S
C170 C171 1.369 . S
C171 H151 0.945 . S
C171 C166 1.385 . S
C171 C170 1.369 . S
C172 C164 1.457 . S
C172 C173 1.372 . S
C172 C177 1.364 . S
C173 H152 0.952 . S
C173 C172 1.372 . S
C173 C174 1.389 . S
C174 H153 0.949 . S
C174 C173 1.389 . S
C174 C175 1.387 . S
C175 C174 1.387 . S
C175 C176 1.372 . S
C176 H154 0.950 . S
C176 C175 1.372 . S
C176 C177 1.379 . S
C177 H155 0.948 . S
C177 C172 1.364 . S
C177 C176 1.379 . S
C178 C147 1.383 . S
C178 C165 1.479 . S
C178 C179 1.398 . S
C179 C144 1.382 . S
C179 H156 0.951 . S
C179 C178 1.398 . S
C180 C181 1.384 . S
C180 H193 0.948 1_455 S
C180 C215 1.382 . S
C181 C180 1.384 . S
C181 C182 1.378 . S
C182 C181 1.378 . S
C182 C183 1.378 . S
C182 H194 0.952 . S
C183 C182 1.378 . S
C183 H195 0.950 . S
C183 C214 1.383 . S
H184 C203 0.947 1_556 S
H185 C204 0.949 . S
H186 C206 0.953 . S
H187 C207 0.945 . S
H188 C209 0.947 1_655 S
H189 C210 0.954 . S
H190 C212 0.950 . S
H191 C213 0.948 . S
H192 C215 0.950 1_655 S
H193 C180 0.948 1_655 S
H194 C182 0.952 . S
H195 C183 0.950 . S
N196 C199 1.382 1_556 S
N196 C201 1.363 . S
N197 C199 1.371 . S
N197 C200 1.372 . S
N198 C200 1.361 . S
N198 C201 1.377 1_554 S
C199 N196 1.382 1_554 S
C199 N197 1.371 . S
C199 C202 1.480 . S
C200 N197 1.372 . S
C200 N198 1.361 . S
C200 C208 1.457 . S
C201 N196 1.363 . S
C201 N198 1.377 1_556 S
C201 C214 1.479 . S
C202 C199 1.480 . S
C202 C203 1.383 . S
C202 C207 1.385 . S
C203 H184 0.947 1_554 S
C203 C202 1.383 . S
C203 C204 1.387 1_455 S
C204 H185 0.949 . S
C204 C203 1.387 1_655 S
C204 C205 1.382 1_655 S
C205 C204 1.382 1_455 S
C205 C206 1.377 . S
C206 H186 0.953 . S
C206 C205 1.377 . S
C206 C207 1.369 . S
C207 H187 0.945 . S
C207 C202 1.385 . S
C207 C206 1.369 . S
C208 C200 1.457 . S
C208 C209 1.379 . S
C208 C213 1.364 . S
C209 H188 0.947 1_455 S
C209 C208 1.379 . S
C209 C210 1.387 1_455 S
C210 H189 0.954 . S
C210 C209 1.387 1_655 S
C210 C211 1.384 1_655 S
C211 C210 1.384 1_455 S
C211 C212 1.372 . S
C212 H190 0.950 . S
C212 C211 1.372 . S
C212 C213 1.379 . S
C213 H191 0.948 . S
C213 C208 1.364 . S
C213 C212 1.379 . S
C214 C183 1.383 . S
C214 C201 1.479 . S
C214 C215 1.399 . S
C215 C180 1.382 . S
C215 H192 0.950 1_455 S
C215 C214 1.399 . S
C216 C217 1.384 . S
C216 H229 0.948 1_545 S
C216 C251 1.382 . S
C217 C216 1.384 . S
C217 C218 1.378 . S
C218 C217 1.378 . S
C218 C219 1.378 . S
C218 H230 0.952 . S
C219 C218 1.378 . S
C219 H231 0.950 . S
C219 C250 1.383 . S
H220 C239 0.947 1_556 S
H221 C240 0.949 . S
H222 C242 0.953 . S
H223 C243 0.945 . S
H224 C245 0.947 1_565 S
H225 C246 0.954 . S
H226 C248 0.950 . S
H227 C249 0.948 . S
H228 C251 0.950 1_565 S
H229 C216 0.948 1_565 S
H230 C218 0.952 . S
H231 C219 0.950 . S
N232 C235 1.382 1_556 S
N232 C237 1.363 . S
N233 C235 1.371 . S
N233 C236 1.372 . S
N234 C236 1.361 . S
N234 C237 1.377 1_554 S
C235 N232 1.382 1_554 S
C235 N233 1.371 . S
C235 C238 1.480 . S
C236 N233 1.372 . S
C236 N234 1.361 . S
C236 C244 1.457 . S
C237 N232 1.363 . S
C237 N234 1.377 1_556 S
C237 C250 1.479 . S
C238 C235 1.480 . S
C238 C239 1.383 . S
C238 C243 1.385 . S
C239 H220 0.947 1_554 S
C239 C238 1.383 . S
C239 C240 1.387 1_545 S
C240 H221 0.949 . S
C240 C239 1.387 1_565 S
C240 C241 1.382 1_565 S
C241 C240 1.382 1_545 S
C241 C242 1.377 . S
C242 H222 0.953 . S
C242 C241 1.377 . S
C242 C243 1.369 . S
C243 H223 0.945 . S
C243 C238 1.385 . S
C243 C242 1.369 . S
C244 C236 1.457 . S
C244 C245 1.379 . S
C244 C249 1.364 . S
C245 H224 0.947 1_545 S
C245 C244 1.379 . S
C245 C246 1.387 1_545 S
C246 H225 0.954 . S
C246 C245 1.387 1_565 S
C246 C247 1.384 1_565 S
C247 C246 1.384 1_545 S
C247 C248 1.372 . S
C248 H226 0.950 . S
C248 C247 1.372 . S
C248 C249 1.379 . S
C249 H227 0.948 . S
C249 C244 1.364 . S
C249 C248 1.379 . S
C250 C219 1.383 . S
C250 C237 1.479 . S
C250 C251 1.399 . S
C251 C216 1.382 . S
C251 H228 0.950 1_545 S
C251 C250 1.399 . S
C252 C253 1.384 . S
C252 H265 0.947 . S
C252 C287 1.382 . S
C253 C252 1.384 . S
C253 C254 1.378 . S
C254 C253 1.378 . S
C254 C255 1.378 . S
C254 H266 0.952 . S
C255 C254 1.378 . S
C255 H267 0.950 . S
C255 C286 1.383 . S
H256 C275 0.947 . S
H257 C276 0.946 . S
H258 C278 0.958 . S
H259 C279 0.945 1_556 S
H260 C281 0.952 . S
H261 C282 0.949 . S
H262 C284 0.950 . S
H263 C285 0.948 . S
H264 C287 0.951 . S
H265 C252 0.947 . S
H266 C254 0.952 . S
H267 C255 0.950 . S
N268 C271 1.382 . S
N268 C273 1.363 . S
N269 C271 1.371 1_556 S
N269 C272 1.372 . S
N270 C272 1.361 1_554 S
N270 C273 1.377 . S
C271 N268 1.382 . S
C271 N269 1.371 1_554 S
C271 C274 1.480 . S
C272 N269 1.372 . S
C272 N270 1.361 1_556 S
C272 C280 1.457 . S
C273 N268 1.363 . S
C273 N270 1.377 . S
C273 C286 1.479 . S
C274 C271 1.480 . S
C274 C275 1.383 . S
C274 C279 1.385 . S
C275 H256 0.947 . S
C275 C274 1.383 . S
C275 C276 1.388 . S
C276 H257 0.946 . S
C276 C275 1.388 . S
C276 C277 1.384 . S
C277 C276 1.384 . S
C277 C278 1.377 . S
C278 H258 0.958 . S
C278 C277 1.377 . S
C278 C279 1.369 . S
C279 H259 0.945 1_554 S
C279 C274 1.385 . S
C279 C278 1.369 . S
C280 C272 1.457 . S
C280 C281 1.372 . S
C280 C285 1.364 . S
C281 H260 0.952 . S
C281 C280 1.372 . S
C281 C282 1.389 . S
C282 H261 0.949 . S
C282 C281 1.389 . S
C282 C283 1.387 . S
C283 C282 1.387 . S
C283 C284 1.372 . S
C284 H262 0.950 . S
C284 C283 1.372 . S
C284 C285 1.379 . S
C285 H263 0.948 . S
C285 C280 1.364 . S
C285 C284 1.379 . S
C286 C255 1.383 . S
C286 C273 1.479 . S
C286 C287 1.398 . S
C287 C252 1.382 . S
C287 H264 0.951 . S
C287 C286 1.398 . S
Tb288 C298 2.825 . S
Tb288 O299 2.347 1_455 S
Tb288 O302 2.366 . S
Tb288 O307 2.418 . S
Tb288 O308 2.384 1_565 S
Tb288 O311 2.479 . S
Tb288 O312 2.471 . S
Eu289 O300 2.418 . S
Eu289 O301 2.384 1_545 S
Eu289 O304 2.479 . S
Eu289 O305 2.471 . S
Eu289 O306 2.347 1_655 S
Eu289 O309 2.366 . S
Eu289 C319 2.825 . S
C290 O306 1.259 1_565 S
C290 O307 1.265 . S
C291 O308 1.255 . S
C291 O309 1.265 1_455 S
C292 C294 1.380 . S
C292 C295 1.374 . S
C292 C298 1.507 . S
C293 C294 1.384 . S
C293 C297 1.387 . S
C293 H320 0.930 . S
C294 C292 1.380 . S
C294 C293 1.384 . S
C294 H321 0.931 . S
C295 C292 1.374 . S
C295 C296 1.390 . S
C295 H322 0.930 1_455 S
C296 C295 1.390 . S
C296 C297 1.391 . S
C296 H323 0.930 1_455 S
C297 C293 1.387 . S
C297 C296 1.391 . S
C298 Tb288 2.825 . S
C298 C292 1.507 . S
C298 O311 1.238 . S
C298 O312 1.247 . S
O299 Tb288 2.347 1_655 S
O299 C303 1.259 1_565 S
O300 Eu289 2.418 . S
O300 C303 1.265 . S
O301 Eu289 2.384 1_565 S
O301 C310 1.255 . S
O302 Tb288 2.366 . S
O302 C310 1.265 1_455 S
C303 O299 1.259 1_545 S
C303 O300 1.265 . S
O304 Eu289 2.479 . S
O304 C319 1.238 . S
O305 Eu289 2.471 . S
O305 C319 1.247 . S
O306 Eu289 2.347 1_455 S
O306 C290 1.259 1_545 S
O307 Tb288 2.418 . S
O307 C290 1.265 . S
O308 Tb288 2.384 1_545 S
O308 C291 1.255 . S
O309 Eu289 2.366 . S
O309 C291 1.265 1_655 S
C310 O301 1.255 . S
C310 O302 1.265 1_655 S
O311 Tb288 2.479 . S
O311 C298 1.238 . S
O312 Tb288 2.471 . S
O312 C298 1.247 . S
C313 C316 1.380 . S
C313 C317 1.374 . S
C313 C319 1.507 . S
C314 C315 1.387 . S
C314 C318 1.391 . S
C315 C314 1.387 . S
C315 C316 1.384 . S
C315 H324 0.930 . S
C316 C313 1.380 . S
C316 C315 1.384 . S
C316 H325 0.931 . S
C317 C313 1.374 . S
C317 C318 1.390 . S
C317 H326 0.930 1_655 S
C318 C314 1.391 . S
C318 C317 1.390 . S
C318 H327 0.930 1_655 S
C319 Eu289 2.825 . S
C319 O304 1.238 . S
C319 O305 1.247 . S
C319 C313 1.507 . S
H320 C293 0.930 . S
H321 C294 0.931 . S
H322 C295 0.930 1_655 S
H323 C296 0.930 1_655 S
H324 C315 0.930 . S
H325 C316 0.931 . S
H326 C317 0.930 1_455 S
H327 C318 0.930 1_455 S
Tb328 C338 2.825 . S
Tb328 O339 2.347 1_545 S
Tb328 O342 2.366 . S
Tb328 O347 2.418 . S
Tb328 O348 2.384 . S
Tb328 O351 2.479 . S
Tb328 O352 2.471 . S
Eu329 O340 2.418 . S
Eu329 O341 2.384 . S
Eu329 O344 2.479 . S
Eu329 O345 2.471 . S
Eu329 O346 2.347 1_565 S
Eu329 O349 2.366 . S
Eu329 C359 2.825 . S
C330 O346 1.259 . S
C330 O347 1.265 . S
C331 O348 1.255 . S
C331 O349 1.265 1_545 S
C332 C334 1.380 . S
C332 C335 1.374 . S
C332 C338 1.507 . S
C333 C334 1.384 . S
C333 C337 1.387 . S
C333 H360 0.930 . S
C334 C332 1.380 . S
C334 C333 1.384 . S
C334 H361 0.931 . S
C335 C332 1.374 . S
C335 C336 1.390 . S
C335 H362 0.930 1_545 S
C336 C335 1.390 . S
C336 C337 1.391 . S
C336 H363 0.930 1_545 S
C337 C333 1.387 . S
C337 C336 1.391 . S
C338 Tb328 2.825 . S
C338 C332 1.507 . S
C338 O351 1.238 . S
C338 O352 1.247 . S
O339 Tb328 2.347 1_565 S
O339 C343 1.259 . S
O340 Eu329 2.418 . S
O340 C343 1.265 . S
O341 Eu329 2.384 . S
O341 C350 1.255 . S
O342 Tb328 2.366 . S
O342 C350 1.265 1_545 S
C343 O339 1.259 . S
C343 O340 1.265 . S
O344 Eu329 2.479 . S
O344 C359 1.238 . S
O345 Eu329 2.471 . S
O345 C359 1.247 . S
O346 Eu329 2.347 1_545 S
O346 C330 1.259 . S
O347 Tb328 2.418 . S
O347 C330 1.265 . S
O348 Tb328 2.384 . S
O348 C331 1.255 . S
O349 Eu329 2.366 . S
O349 C331 1.265 1_565 S
C350 O341 1.255 . S
C350 O342 1.265 1_565 S
O351 Tb328 2.479 . S
O351 C338 1.238 . S
O352 Tb328 2.471 . S
O352 C338 1.247 . S
C353 C356 1.380 . S
C353 C357 1.374 . S
C353 C359 1.507 . S
C354 C355 1.387 . S
C354 C358 1.391 . S
C355 C354 1.387 . S
C355 C356 1.384 . S
C355 H364 0.930 . S
C356 C353 1.380 . S
C356 C355 1.384 . S
C356 H365 0.931 . S
C357 C353 1.374 . S
C357 C358 1.390 . S
C357 H366 0.930 1_565 S
C358 C354 1.391 . S
C358 C357 1.390 . S
C358 H367 0.930 1_565 S
C359 Eu329 2.825 . S
C359 O344 1.238 . S
C359 O345 1.247 . S
C359 C353 1.507 . S
H360 C333 0.930 . S
H361 C334 0.931 . S
H362 C335 0.930 1_565 S
H363 C336 0.930 1_565 S
H364 C355 0.930 . S
H365 C356 0.931 . S
H366 C357 0.930 1_545 S
H367 C358 0.930 1_545 S
Tb368 C378 2.825 . S
Tb368 O379 2.347 . S
Tb368 O382 2.366 . S
Tb368 O387 2.418 . S
Tb368 O388 2.384 . S
Tb368 O391 2.479 . S
Tb368 O392 2.471 . S
Eu369 O380 2.418 . S
Eu369 O381 2.384 . S
Eu369 O384 2.479 . S
Eu369 O385 2.471 . S
Eu369 O386 2.347 . S
Eu369 O389 2.366 . S
Eu369 C399 2.825 . S
C370 O386 1.259 . S
C370 O387 1.265 . S
C371 O388 1.255 . S
C371 O389 1.265 . S
C372 C374 1.380 . S
C372 C375 1.374 . S
C372 C378 1.507 . S
C373 C374 1.384 . S
C373 C377 1.387 . S
C373 H400 0.930 . S
C374 C372 1.380 . S
C374 C373 1.384 . S
C374 H401 0.931 . S
C375 C372 1.374 . S
C375 C376 1.390 . S
C375 H402 0.930 . S
C376 C375 1.390 . S
C376 C377 1.391 . S
C376 H403 0.930 . S
C377 C373 1.387 . S
C377 C376 1.391 . S
C378 Tb368 2.825 . S
C378 C372 1.507 . S
C378 O391 1.238 . S
C378 O392 1.247 . S
O379 Tb368 2.347 . S
O379 C383 1.259 . S
O380 Eu369 2.418 . S
O380 C383 1.265 . S
O381 Eu369 2.384 . S
O381 C390 1.255 . S
O382 Tb368 2.366 . S
O382 C390 1.265 . S
C383 O379 1.259 . S
C383 O380 1.265 . S
O384 Eu369 2.479 . S
O384 C399 1.238 . S
O385 Eu369 2.471 . S
O385 C399 1.247 . S
O386 Eu369 2.347 . S
O386 C370 1.259 . S
O387 Tb368 2.418 . S
O387 C370 1.265 . S
O388 Tb368 2.384 . S
O388 C371 1.255 . S
O389 Eu369 2.366 . S
O389 C371 1.265 . S
C390 O381 1.255 . S
C390 O382 1.265 . S
O391 Tb368 2.479 . S
O391 C378 1.238 . S
O392 Tb368 2.471 . S
O392 C378 1.247 . S
C393 C396 1.380 . S
C393 C397 1.374 . S
C393 C399 1.507 . S
C394 C395 1.387 . S
C394 C398 1.391 . S
C395 C394 1.387 . S
C395 C396 1.384 . S
C395 H404 0.930 . S
C396 C393 1.380 . S
C396 C395 1.384 . S
C396 H405 0.931 . S
C397 C393 1.374 . S
C397 C398 1.390 . S
C397 H406 0.930 . S
C398 C394 1.391 . S
C398 C397 1.390 . S
C398 H407 0.930 . S
C399 Eu369 2.825 . S
C399 O384 1.238 . S
C399 O385 1.247 . S
C399 C393 1.507 . S
H400 C373 0.930 . S
H401 C374 0.931 . S
H402 C375 0.930 . S
H403 C376 0.930 . S
H404 C395 0.930 . S
H405 C396 0.931 . S
H406 C397 0.930 . S
H407 C398 0.930 . S
Tb408 C418 2.825 . S
Tb408 O419 2.347 . S
Tb408 O422 2.366 . S
Tb408 O427 2.418 . S
Tb408 O428 2.384 1_655 S
Tb408 O431 2.479 . S
Tb408 O432 2.471 . S
Eu409 O420 2.418 . S
Eu409 O421 2.384 1_455 S
Eu409 O424 2.479 . S
Eu409 O425 2.471 . S
Eu409 O426 2.347 . S
Eu409 O429 2.366 . S
Eu409 C439 2.825 . S
C410 O426 1.259 1_655 S
C410 O427 1.265 . S
C411 O428 1.255 . S
C411 O429 1.265 . S
C412 C414 1.380 . S
C412 C415 1.374 . S
C412 C418 1.507 . S
C413 C414 1.384 . S
C413 C417 1.387 . S
C413 H440 0.930 . S
C414 C412 1.380 . S
C414 C413 1.384 . S
C414 H441 0.931 . S
C415 C412 1.374 . S
C415 C416 1.390 . S
C415 H442 0.930 . S
C416 C415 1.390 . S
C416 C417 1.391 . S
C416 H443 0.930 . S
C417 C413 1.387 . S
C417 C416 1.391 . S
C418 Tb408 2.825 . S
C418 C412 1.507 . S
C418 O431 1.238 . S
C418 O432 1.247 . S
O419 Tb408 2.347 . S
O419 C423 1.259 1_655 S
O420 Eu409 2.418 . S
O420 C423 1.265 . S
O421 Eu409 2.384 1_655 S
O421 C430 1.255 . S
O422 Tb408 2.366 . S
O422 C430 1.265 . S
C423 O419 1.259 1_455 S
C423 O420 1.265 . S
O424 Eu409 2.479 . S
O424 C439 1.238 . S
O425 Eu409 2.471 . S
O425 C439 1.247 . S
O426 Eu409 2.347 . S
O426 C410 1.259 1_455 S
O427 Tb408 2.418 . S
O427 C410 1.265 . S
O428 Tb408 2.384 1_455 S
O428 C411 1.255 . S
O429 Eu409 2.366 . S
O429 C411 1.265 . S
C430 O421 1.255 . S
C430 O422 1.265 . S
O431 Tb408 2.479 . S
O431 C418 1.238 . S
O432 Tb408 2.471 . S
O432 C418 1.247 . S
C433 C436 1.380 . S
C433 C437 1.374 . S
C433 C439 1.507 . S
C434 C435 1.387 . S
C434 C438 1.391 . S
C435 C434 1.387 . S
C435 C436 1.384 . S
C435 H444 0.930 . S
C436 C433 1.380 . S
C436 C435 1.384 . S
C436 H445 0.931 . S
C437 C433 1.374 . S
C437 C438 1.390 . S
C437 H446 0.930 . S
C438 C434 1.391 . S
C438 C437 1.390 . S
C438 H447 0.930 . S
C439 Eu409 2.825 . S
C439 O424 1.238 . S
C439 O425 1.247 . S
C439 C433 1.507 . S
H440 C413 0.930 . S
H441 C414 0.931 . S
H442 C415 0.930 . S
H443 C416 0.930 . S
H444 C435 0.930 . S
H445 C436 0.931 . S
H446 C437 0.930 . S
H447 C438 0.930 . S
H448 C454 0.930 . S
H449 C457 0.930 . S
H450 C458 0.930 . S
H451 C459 0.930 . S
H452 C462 0.930 . S
H453 C463 0.930 . S
C454 H448 0.930 . S
C454 C455 1.355 1_545 S
C454 C456 1.415 . S
C455 C454 1.355 1_565 S
C455 C457 1.419 . S
C456 C454 1.415 . S
C456 C461 1.425 1_545 S
C456 C463 1.409 . S
C457 H449 0.930 . S
C457 C455 1.419 . S
C457 C458 1.362 . S
C458 H450 0.930 . S
C458 C457 1.362 . S
C458 C461 1.409 . S
C459 H451 0.930 . S
C459 C460 1.355 1_565 S
C459 C461 1.415 . S
C460 C459 1.355 1_545 S
C460 C462 1.419 . S
C461 C456 1.425 1_565 S
C461 C458 1.409 . S
C461 C459 1.415 . S
C462 H452 0.930 . S
C462 C460 1.419 . S
C462 C463 1.362 . S
C463 H453 0.930 . S
C463 C456 1.409 . S
C463 C462 1.362 . S
H464 C470 0.930 . S
H465 C473 0.930 . S
H466 C474 0.930 . S
H467 C475 0.930 . S
H468 C478 0.930 . S
H469 C479 0.930 . S
C470 H464 0.930 . S
C470 C471 1.355 . S
C470 C472 1.415 . S
C471 C470 1.355 . S
C471 C473 1.419 . S
C472 C470 1.415 . S
C472 C477 1.425 . S
C472 C479 1.409 . S
C473 H465 0.930 . S
C473 C471 1.419 . S
C473 C474 1.362 . S
C474 H466 0.930 . S
C474 C473 1.362 . S
C474 C477 1.409 . S
C475 H467 0.930 . S
C475 C476 1.355 . S
C475 C477 1.415 . S
C476 C475 1.355 . S
C476 C478 1.419 . S
C477 C472 1.425 . S
C477 C474 1.409 . S
C477 C475 1.415 . S
C478 H468 0.930 . S
C478 C476 1.419 . S
C478 C479 1.362 . S
C479 H469 0.930 . S
C479 C472 1.409 . S
C479 C478 1.362 . S
H480 C486 0.930 . S
H481 C489 0.930 . S
H482 C490 0.930 . S
H483 C491 0.930 . S
H484 C494 0.930 . S
H485 C495 0.930 . S
C486 H480 0.930 . S
C486 C487 1.355 . S
C486 C488 1.415 . S
C487 C486 1.355 . S
C487 C489 1.419 . S
C488 C486 1.415 . S
C488 C493 1.425 . S
C488 C495 1.409 . S
C489 H481 0.930 . S
C489 C487 1.419 . S
C489 C490 1.362 . S
C490 H482 0.930 . S
C490 C489 1.362 . S
C490 C493 1.409 . S
C491 H483 0.930 . S
C491 C492 1.355 . S
C491 C493 1.415 . S
C492 C491 1.355 . S
C492 C494 1.419 . S
C493 C488 1.425 . S
C493 C490 1.409 . S
C493 C491 1.415 . S
C494 H484 0.930 . S
C494 C492 1.419 . S
C494 C495 1.362 . S
C495 H485 0.930 . S
C495 C488 1.409 . S
C495 C494 1.362 . S
H496 C502 0.930 . S
H497 C505 0.930 . S
H498 C506 0.930 . S
H499 C507 0.930 . S
H500 C510 0.930 . S
H501 C511 0.930 . S
C502 H496 0.930 . S
C502 C503 1.355 1_655 S
C502 C504 1.415 . S
C503 C502 1.355 1_455 S
C503 C505 1.419 . S
C504 C502 1.415 . S
C504 C509 1.425 1_655 S
C504 C511 1.409 . S
C505 H497 0.930 . S
C505 C503 1.419 . S
C505 C506 1.362 . S
C506 H498 0.930 . S
C506 C505 1.362 . S
C506 C509 1.409 . S
C507 H499 0.930 . S
C507 C508 1.349 1_455 S
C507 C509 1.415 . S
C508 C507 1.349 1_655 S
C508 C510 1.426 . S
C509 C504 1.425 1_455 S
C509 C506 1.409 . S
C509 C507 1.415 . S
C510 H500 0.930 . S
C510 C508 1.426 . S
C510 C511 1.362 . S
C511 H501 0.930 . S
C511 C504 1.409 . S
C511 C510 1.362 . S
H512 C518 0.930 . S
H513 C521 0.930 . S
H514 C522 0.930 . S
H515 C523 0.930 . S
H516 C526 0.930 . S
H517 C527 0.930 . S
C518 H512 0.930 . S
C518 C519 1.355 1_565 S
C518 C520 1.415 . S
C519 C518 1.355 1_545 S
C519 C521 1.419 . S
C520 C518 1.415 . S
C520 C525 1.425 1_565 S
C520 C527 1.409 . S
C521 H513 0.930 . S
C521 C519 1.419 . S
C521 C522 1.362 . S
C522 H514 0.930 . S
C522 C521 1.362 . S
C522 C525 1.409 . S
C523 H515 0.930 . S
C523 C524 1.355 1_545 S
C523 C525 1.415 1_556 S
C524 C523 1.355 1_565 S
C524 C526 1.419 . S
C525 C520 1.425 1_545 S
C525 C522 1.409 . S
C525 C523 1.415 1_554 S
C526 H516 0.930 . S
C526 C524 1.419 . S
C526 C527 1.362 1_556 S
C527 H517 0.930 . S
C527 C520 1.409 . S
C527 C526 1.362 1_554 S
H528 C534 0.930 . S
H529 C537 0.930 . S
H530 C538 0.930 . S
H531 C539 0.930 . S
H532 C542 0.930 . S
H533 C543 0.930 . S
C534 H528 0.930 . S
C534 C535 1.355 . S
C534 C536 1.415 . S
C535 C534 1.355 . S
C535 C537 1.419 . S
C536 C534 1.415 . S
C536 C541 1.425 . S
C536 C543 1.409 . S
C537 H529 0.930 . S
C537 C535 1.419 . S
C537 C538 1.362 . S
C538 H530 0.930 . S
C538 C537 1.362 . S
C538 C541 1.409 . S
C539 H531 0.930 . S
C539 C540 1.355 . S
C539 C541 1.415 1_556 S
C540 C539 1.355 . S
C540 C542 1.419 . S
C541 C536 1.425 . S
C541 C538 1.409 . S
C541 C539 1.415 1_554 S
C542 H532 0.930 . S
C542 C540 1.419 . S
C542 C543 1.362 1_556 S
C543 H533 0.930 . S
C543 C536 1.409 . S
C543 C542 1.362 1_554 S
H544 C550 0.930 . S
H545 C553 0.930 . S
H546 C554 0.930 . S
H547 C555 0.930 . S
H548 C558 0.930 . S
H549 C559 0.930 . S
C550 H544 0.930 . S
C550 C551 1.355 . S
C550 C552 1.415 . S
C551 C550 1.355 . S
C551 C553 1.419 . S
C552 C550 1.415 . S
C552 C557 1.425 . S
C552 C559 1.409 . S
C553 H545 0.930 . S
C553 C551 1.419 . S
C553 C554 1.362 . S
C554 H546 0.930 . S
C554 C553 1.362 . S
C554 C557 1.409 . S
C555 H547 0.930 . S
C555 C556 1.355 . S
C555 C557 1.415 1_556 S
C556 C555 1.355 . S
C556 C558 1.419 . S
C557 C552 1.425 . S
C557 C554 1.409 . S
C557 C555 1.415 1_554 S
C558 H548 0.930 . S
C558 C556 1.419 . S
C558 C559 1.362 1_556 S
C559 H549 0.930 . S
C559 C552 1.409 . S
C559 C558 1.362 1_554 S
H560 C566 0.930 . S
H561 C569 0.930 . S
H562 C570 0.930 . S
H563 C571 0.930 . S
H564 C574 0.930 . S
H565 C575 0.930 . S
C566 H560 0.930 . S
C566 C567 1.355 1_655 S
C566 C568 1.415 . S
C567 C566 1.355 1_455 S
C567 C569 1.419 . S
C568 C566 1.415 . S
C568 C573 1.425 1_655 S
C568 C575 1.409 . S
C569 H561 0.930 . S
C569 C567 1.419 . S
C569 C570 1.362 . S
C570 H562 0.930 . S
C570 C569 1.362 . S
C570 C573 1.409 . S
C571 H563 0.930 . S
C571 C572 1.355 1_455 S
C571 C573 1.415 1_556 S
C572 C571 1.355 1_655 S
C572 C574 1.419 . S
C573 C568 1.425 1_455 S
C573 C570 1.409 . S
C573 C571 1.415 1_554 S
C574 H564 0.930 . S
C574 C572 1.419 . S
C574 C575 1.362 1_556 S
C575 H565 0.930 . S
C575 C568 1.409 . S
C575 C574 1.362 1_554 S
H576 C582 0.930 . S
H577 C585 0.930 . S
H578 C586 0.930 . S
H579 C587 0.930 . S
H580 C590 0.930 . S
H581 C591 0.930 . S
C582 H576 0.930 . S
C582 C583 1.355 1_655 S
C582 C584 1.415 . S
C583 C582 1.355 1_455 S
C583 C585 1.419 . S
C584 C582 1.415 . S
C584 C589 1.425 . S
C584 C591 1.409 . S
C585 H577 0.930 . S
C585 C583 1.419 . S
C585 C586 1.362 . S
C586 H578 0.930 . S
C586 C585 1.362 . S
C586 C589 1.409 1_455 S
C587 H579 0.930 . S
C587 C588 1.355 . S
C587 C589 1.415 . S
C588 C587 1.355 . S
C588 C590 1.419 . S
C589 C584 1.425 . S
C589 C586 1.409 1_655 S
C589 C587 1.415 . S
C590 H580 0.930 . S
C590 C588 1.419 . S
C590 C591 1.362 . S
C591 H581 0.930 . S
C591 C584 1.409 . S
C591 C590 1.362 . S
H592 C598 0.930 . S
H593 C601 0.930 . S
H594 C602 0.930 . S
H595 C603 0.930 . S
H596 C606 0.930 . S
H597 C607 0.930 1_545 S
C598 H592 0.930 . S
C598 C599 1.358 . S
C598 C600 1.415 1_545 S
C599 C598 1.358 . S
C599 C601 1.405 1_545 S
C600 C598 1.415 1_565 S
C600 C605 1.425 . S
C600 C607 1.409 . S
C601 H593 0.930 . S
C601 C599 1.405 1_565 S
C601 C602 1.362 . S
C602 H594 0.930 . S
C602 C601 1.362 . S
C602 C605 1.409 . S
C603 H595 0.930 . S
C603 C604 1.355 . S
C603 C605 1.415 . S
C604 C603 1.355 . S
C604 C606 1.419 . S
C605 C600 1.425 . S
C605 C602 1.409 . S
C605 C603 1.415 . S
C606 H596 0.930 . S
C606 C604 1.419 . S
C606 C607 1.362 . S
C607 H597 0.930 1_565 S
C607 C600 1.409 . S
C607 C606 1.362 . S
H608 C614 0.930 . S
H609 C617 0.930 . S
H610 C618 0.930 . S
H611 C619 0.930 . S
H612 C622 0.930 . S
H613 C623 0.930 . S
C614 H608 0.930 . S
C614 C615 1.355 . S
C614 C616 1.415 . S
C615 C614 1.355 . S
C615 C617 1.419 . S
C616 C614 1.415 . S
C616 C621 1.425 . S
C616 C623 1.409 . S
C617 H609 0.930 . S
C617 C615 1.419 . S
C617 C618 1.362 . S
C618 H610 0.930 . S
C618 C617 1.362 . S
C618 C621 1.409 . S
C619 H611 0.930 . S
C619 C620 1.355 . S
C619 C621 1.415 . S
C620 C619 1.355 . S
C620 C622 1.419 . S
C621 C616 1.425 . S
C621 C618 1.409 . S
C621 C619 1.415 . S
C622 H612 0.930 . S
C622 C620 1.419 . S
C622 C623 1.362 . S
C623 H613 0.930 . S
C623 C616 1.409 . S
C623 C622 1.362 . S
H624 C630 0.930 . S
H625 C633 0.930 . S
H626 C634 0.930 . S
H627 C635 0.930 . S
H628 C638 0.930 . S
H629 C639 0.930 . S
C630 H624 0.930 . S
C630 C631 1.355 . S
C630 C632 1.415 . S
C631 C630 1.355 . S
C631 C633 1.419 . S
C632 C630 1.415 . S
C632 C637 1.425 . S
C632 C639 1.409 . S
C633 H625 0.930 . S
C633 C631 1.419 . S
C633 C634 1.362 . S
C634 H626 0.930 . S
C634 C633 1.362 . S
C634 C637 1.409 . S
C635 H627 0.930 . S
C635 C636 1.355 . S
C635 C637 1.415 . S
C636 C635 1.355 . S
C636 C638 1.419 . S
C637 C632 1.425 . S
C637 C634 1.409 . S
C637 C635 1.415 . S
C638 H628 0.930 . S
C638 C636 1.419 . S
C638 C639 1.362 . S
C639 H629 0.930 . S
C639 C632 1.409 . S
C639 C638 1.362 . S
H640 C646 0.930 . S
H641 C649 0.930 . S
H642 C650 0.930 . S
H643 C651 0.930 . S
H644 C654 0.930 . S
H645 C655 0.930 . S
C646 H640 0.930 . S
C646 C647 1.359 . S
C646 C648 1.415 1_655 S
C647 C646 1.359 . S
C647 C649 1.407 1_655 S
C648 C646 1.415 1_455 S
C648 C653 1.425 . S
C648 C655 1.409 1_454 S
C649 H641 0.930 . S
C649 C647 1.407 1_455 S
C649 C650 1.362 . S
C650 H642 0.930 . S
C650 C649 1.362 . S
C650 C653 1.409 . S
C651 H643 0.930 . S
C651 C652 1.355 1_554 S
C651 C653 1.415 . S
C652 C651 1.355 1_556 S
C652 C654 1.419 . S
C653 C648 1.425 . S
C653 C650 1.409 . S
C653 C651 1.415 . S
C654 H644 0.930 . S
C654 C652 1.419 . S
C654 C655 1.362 1_455 S
C655 H645 0.930 . S
C655 C648 1.409 1_656 S
C655 C654 1.362 1_655 S
H656 C662 0.930 . S
H657 C665 0.930 . S
H658 C666 0.930 . S
H659 C667 0.930 . S
H660 C670 0.930 . S
H661 C671 0.930 . S
C662 H656 0.930 . S
C662 C663 1.355 1_545 S
C662 C664 1.415 . S
C663 C662 1.355 1_565 S
C663 C665 1.419 . S
C664 C662 1.415 . S
C664 C669 1.425 . S
C664 C671 1.409 . S
C665 H657 0.930 . S
C665 C663 1.419 . S
C665 C666 1.362 1_564 S
C666 H658 0.930 . S
C666 C665 1.362 1_546 S
C666 C669 1.409 1_556 S
C667 H659 0.930 . S
C667 C668 1.355 1_556 S
C667 C669 1.415 1_556 S
C668 C667 1.355 1_554 S
C668 C670 1.419 . S
C669 C664 1.425 . S
C669 C666 1.409 1_554 S
C669 C667 1.415 1_554 S
C670 H660 0.930 . S
C670 C668 1.419 . S
C670 C671 1.362 . S
C671 H661 0.930 . S
C671 C664 1.409 . S
C671 C670 1.362 . S
H672 C678 0.930 . S
H673 C681 0.930 . S
H674 C682 0.930 . S
H675 C683 0.930 1_556 S
H676 C686 0.930 . S
H677 C687 0.930 . S
C678 H672 0.930 . S
C678 C679 1.355 . S
C678 C680 1.415 . S
C679 C678 1.355 . S
C679 C681 1.419 . S
C680 C678 1.415 . S
C680 C685 1.425 . S
C680 C687 1.409 . S
C681 H673 0.930 . S
C681 C679 1.419 . S
C681 C682 1.362 . S
C682 H674 0.930 . S
C682 C681 1.362 . S
C682 C685 1.409 . S
C683 H675 0.930 1_554 S
C683 C684 1.355 . S
C683 C685 1.415 . S
C684 C683 1.355 . S
C684 C686 1.419 . S
C685 C680 1.425 . S
C685 C682 1.409 . S
C685 C683 1.415 . S
C686 H676 0.930 . S
C686 C684 1.419 . S
C686 C687 1.362 . S
C687 H677 0.930 . S
C687 C680 1.409 . S
C687 C686 1.362 . S
H688 C694 0.930 . S
H689 C697 0.930 . S
H690 C698 0.930 1_556 S
H691 C699 0.930 . S
H692 C702 0.930 . S
H693 C703 0.930 . S
C694 H688 0.930 . S
C694 C695 1.355 . S
C694 C696 1.415 . S
C695 C694 1.355 . S
C695 C697 1.419 . S
C696 C694 1.415 . S
C696 C701 1.425 . S
C696 C703 1.409 . S
C697 H689 0.930 . S
C697 C695 1.419 . S
C697 C698 1.362 . S
C698 H690 0.930 1_554 S
C698 C697 1.362 . S
C698 C701 1.409 . S
C699 H691 0.930 . S
C699 C700 1.355 1_556 S
C699 C701 1.415 1_556 S
C700 C699 1.355 1_554 S
C700 C702 1.419 . S
C701 C696 1.425 . S
C701 C698 1.409 . S
C701 C699 1.415 1_554 S
C702 H692 0.930 . S
C702 C700 1.419 . S
C702 C703 1.362 . S
C703 H693 0.930 . S
C703 C696 1.409 . S
C703 C702 1.362 . S
H704 C710 0.930 . S
H705 C713 0.930 . S
H706 C714 0.930 . S
H707 C715 0.930 . S
H708 C718 0.930 . S
H709 C719 0.930 . S
C710 H704 0.930 . S
C710 C711 1.355 1_655 S
C710 C712 1.415 . S
C711 C710 1.355 1_455 S
C711 C713 1.419 . S
C712 C710 1.415 . S
C712 C717 1.425 1_655 S
C712 C719 1.409 . S
C713 H705 0.930 . S
C713 C711 1.419 . S
C713 C714 1.362 . S
C714 H706 0.930 . S
C714 C713 1.362 . S
C714 C717 1.409 . S
C715 H707 0.930 . S
C715 C716 1.355 . S
C715 C717 1.415 . S
C716 C715 1.355 . S
C716 C718 1.419 1_455 S
C717 C712 1.425 1_455 S
C717 C714 1.409 . S
C717 C715 1.415 . S
C718 H708 0.930 . S
C718 C716 1.419 1_655 S
C718 C719 1.362 . S
C719 H709 0.930 . S
C719 C712 1.409 . S
C719 C718 1.362 . S
H720 C726 0.930 . S
H721 C729 0.930 . S
H722 C730 0.930 . S
H723 C731 0.930 . S
H724 C734 0.930 . S
H725 C735 0.930 . S
C726 H720 0.930 . S
C726 C727 1.382 . S
C726 C728 1.415 . S
C727 C726 1.382 . S
C727 C729 1.388 1_545 S
C728 C726 1.415 . S
C728 C733 1.425 1_545 S
C728 C735 1.409 . S
C729 H721 0.930 . S
C729 C727 1.388 1_565 S
C729 C730 1.362 . S
C730 H722 0.930 . S
C730 C729 1.362 . S
C730 C733 1.409 . S
C731 H723 0.930 . S
C731 C732 1.355 1_565 S
C731 C733 1.415 . S
C732 C731 1.355 1_545 S
C732 C734 1.419 . S
C733 C728 1.425 1_565 S
C733 C730 1.409 . S
C733 C731 1.415 . S
C734 H724 0.930 . S
C734 C732 1.419 . S
C734 C735 1.362 . S
C735 H725 0.930 . S
C735 C728 1.409 . S
C735 C734 1.362 . S
H736 C742 0.930 . S
H737 C745 0.930 . S
H738 C746 0.930 . S
H739 C747 0.930 . S
H740 C750 0.930 . S
H741 C751 0.930 . S
C742 H736 0.930 . S
C742 C743 1.355 . S
C742 C744 1.415 . S
C743 C742 1.355 . S
C743 C745 1.419 . S
C744 C742 1.415 . S
C744 C749 1.425 . S
C744 C751 1.409 . S
C745 H737 0.930 . S
C745 C743 1.419 . S
C745 C746 1.362 . S
C746 H738 0.930 . S
C746 C745 1.362 . S
C746 C749 1.409 . S
C747 H739 0.930 . S
C747 C748 1.355 . S
C747 C749 1.415 . S
C748 C747 1.355 . S
C748 C750 1.419 . S
C749 C744 1.425 . S
C749 C746 1.409 . S
C749 C747 1.415 . S
C750 H740 0.930 . S
C750 C748 1.419 . S
C750 C751 1.362 . S
C751 H741 0.930 . S
C751 C744 1.409 . S
C751 C750 1.362 . S
H752 C758 0.930 . S
H753 C761 0.930 . S
H754 C762 0.930 . S
H755 C763 0.930 . S
H756 C766 0.930 . S
H757 C767 0.930 . S
C758 H752 0.930 . S
C758 C759 1.355 . S
C758 C760 1.415 . S
C759 C758 1.355 . S
C759 C761 1.419 . S
C760 C758 1.415 . S
C760 C765 1.425 . S
C760 C767 1.409 . S
C761 H753 0.930 . S
C761 C759 1.419 . S
C761 C762 1.362 . S
C762 H754 0.930 . S
C762 C761 1.362 . S
C762 C765 1.409 . S
C763 H755 0.930 . S
C763 C764 1.355 . S
C763 C765 1.415 . S
C764 C763 1.355 . S
C764 C766 1.419 . S
C765 C760 1.425 . S
C765 C762 1.409 . S
C765 C763 1.415 . S
C766 H756 0.930 . S
C766 C764 1.419 . S
C766 C767 1.362 . S
C767 H757 0.930 . S
C767 C760 1.409 . S
C767 C766 1.362 . S
H768 C774 0.930 . S
H769 C777 0.930 . S
H770 C778 0.930 . S
H771 C779 0.930 . S
H772 C782 0.930 . S
H773 C783 0.930 . S
C774 H768 0.930 . S
C774 C775 1.355 1_455 S
C774 C776 1.415 . S
C775 C774 1.355 1_655 S
C775 C777 1.419 . S
C776 C774 1.415 . S
C776 C781 1.425 1_455 S
C776 C783 1.409 . S
C777 H769 0.930 . S
C777 C775 1.419 . S
C777 C778 1.362 . S
C778 H770 0.930 . S
C778 C777 1.362 . S
C778 C781 1.409 . S
C779 H771 0.930 . S
C779 C780 1.355 . S
C779 C781 1.415 . S
C780 C779 1.355 . S
C780 C782 1.419 1_655 S
C781 C776 1.425 1_655 S
C781 C778 1.409 . S
C781 C779 1.415 . S
C782 H772 0.930 . S
C782 C780 1.419 1_455 S
C782 C783 1.362 . S
C783 H773 0.930 . S
C783 C776 1.409 . S
C783 C782 1.362 . S
H784 C790 0.930 . S
H785 C793 0.930 . S
H786 C794 0.930 . S
H787 C795 0.930 . S
H788 C798 0.930 . S
H789 C799 0.930 . S
C790 H784 0.930 . S
C790 C791 1.355 1_545 S
C790 C792 1.415 . S
C791 C790 1.355 1_565 S
C791 C793 1.419 . S
C792 C790 1.415 . S
C792 C797 1.425 1_545 S
C792 C799 1.409 . S
C793 H785 0.930 . S
C793 C791 1.419 . S
C793 C794 1.362 . S
C794 H786 0.930 . S
C794 C793 1.362 . S
C794 C797 1.409 . S
C795 H787 0.930 . S
C795 C796 1.355 . S
C795 C797 1.415 . S
C796 C795 1.355 . S
C796 C798 1.419 1_565 S
C797 C792 1.425 1_565 S
C797 C794 1.409 . S
C797 C795 1.415 . S
C798 H788 0.930 . S
C798 C796 1.419 1_545 S
C798 C799 1.362 . S
C799 H789 0.930 . S
C799 C792 1.409 . S
C799 C798 1.362 . S
H800 C806 0.930 . S
H801 C809 0.930 . S
H802 C810 0.930 . S
H803 C811 0.930 . S
H804 C814 0.930 . S
H805 C815 0.930 . S
C806 H800 0.930 . S
C806 C807 1.355 . S
C806 C808 1.415 . S
C807 C806 1.355 . S
C807 C809 1.419 . S
C808 C806 1.415 . S
C808 C813 1.425 . S
C808 C815 1.409 . S
C809 H801 0.930 . S
C809 C807 1.419 . S
C809 C810 1.362 . S
C810 H802 0.930 . S
C810 C809 1.362 . S
C810 C813 1.409 . S
C811 H803 0.930 . S
C811 C812 1.355 . S
C811 C813 1.415 . S
C812 C811 1.355 . S
C812 C814 1.419 . S
C813 C808 1.425 . S
C813 C810 1.409 . S
C813 C811 1.415 . S
C814 H804 0.930 . S
C814 C812 1.419 . S
C814 C815 1.362 . S
C815 H805 0.930 . S
C815 C808 1.409 . S
C815 C814 1.362 . S
H816 C822 0.930 . S
H817 C825 0.930 . S
H818 C826 0.930 . S
H819 C827 0.930 . S
H820 C830 0.930 . S
H821 C831 0.930 . S
C822 H816 0.930 . S
C822 C823 1.355 . S
C822 C824 1.415 . S
C823 C822 1.355 . S
C823 C825 1.419 . S
C824 C822 1.415 . S
C824 C829 1.425 . S
C824 C831 1.409 . S
C825 H817 0.930 . S
C825 C823 1.419 . S
C825 C826 1.362 . S
C826 H818 0.930 . S
C826 C825 1.362 . S
C826 C829 1.409 . S
C827 H819 0.930 . S
C827 C828 1.355 . S
C827 C829 1.415 . S
C828 C827 1.355 . S
C828 C830 1.419 . S
C829 C824 1.425 . S
C829 C826 1.409 . S
C829 C827 1.415 . S
C830 H820 0.930 . S
C830 C828 1.419 . S
C830 C831 1.362 . S
C831 H821 0.930 . S
C831 C824 1.409 . S
C831 C830 1.362 . S
C455 C241 2.261 1_565 S
C460 C290 2.546 1_545 S
C476 C330 2.564 . S
C471 C277 2.322 . S
C492 C370 2.546 . S
C487 C169 2.233 . S
C508 C410 2.559 . S
C503 C205 2.296 . S
C524 C303 2.534 1_565 S
C519 C97 2.216 . S
C535 C133 2.322 . S
C540 C343 2.570 . S
C551 C25 2.240 . S
C556 C383 2.549 . S
C567 C61 2.239 . S
C572 C423 2.554 1_655 S
C588 C314 0.554 . S
C583 C211 0.595 . S
C604 C354 0.436 . S
C599 C247 0.524 . S
C620 C394 0.400 . S
C615 C253 0.407 . S
C631 C175 0.502 . S
C636 C434 0.573 . S
C647 C67 0.453 1_655 S
C652 C297 0.413 . S
C668 C337 0.562 1_554 S
C663 C103 0.657 1_565 S
C684 C377 0.434 1_554 S
C679 C109 0.493 . S
C695 C31 0.570 . S
C700 C417 0.459 1_554 S
C711 C181 2.980 . S
C716 C291 3.386 . S
C727 C217 2.963 . S
C732 C331 3.369 . S
C748 C371 3.371 . S
C743 C283 2.892 . S
C764 C411 3.394 . S
C759 C145 2.991 . S
C775 C37 3.026 1_655 S
C780 C310 3.408 . S
C796 C350 3.350 . S
C791 C73 2.945 1_565 S
C812 C390 3.358 . S
C807 C139 2.874 . S
C823 C1 3.016 . S
C828 C430 3.397 . S
