# Generated by pormake.
# Topology pyr, (3,6)-cn, num edge types: 1
# Building blocks:
#     Node 0, Type 0, BuildingBlock: BETDIP_clean_linker_0, # of connection points: 3
#     Node 1, Type 0, BuildingBlock: BETDIP_clean_linker_0, # of connection points: 3
#     Node 2, Type 0, BuildingBlock: BETDIP_clean_linker_0, # of connection points: 3
#     Node 3, Type 0, BuildingBlock: BETDIP_clean_linker_0, # of connection points: 3
#     Node 4, Type 0, BuildingBlock: BETDIP_clean_linker_0, # of connection points: 3
#     Node 5, Type 0, BuildingBlock: BETDIP_clean_linker_0, # of connection points: 3
#     Node 6, Type 0, BuildingBlock: BETDIP_clean_linker_0, # of connection points: 3
#     Node 7, Type 0, BuildingBlock: BETDIP_clean_linker_0, # of connection points: 3
#     Node 8, Type 1, BuildingBlock: VOLQOD_clean_sbu_1, # of connection points: 6
#     Node 9, Type 1, BuildingBlock: VOLQOD_clean_sbu_1, # of connection points: 6
#     Node 10, Type 1, BuildingBlock: VOLQOD_clean_sbu_1, # of connection points: 6
#     Node 11, Type 1, BuildingBlock: VOLQOD_clean_sbu_1, # of connection points: 6
#     Edge 12, Type (0, 1), BuildingBlock: KIFKEQ_clean_linker_1, # of connection points: 2
#     Edge 13, Type (0, 1), BuildingBlock: KIFKEQ_clean_linker_1, # of connection points: 2
#     Edge 14, Type (0, 1), BuildingBlock: KIFKEQ_clean_linker_1, # of connection points: 2
#     Edge 15, Type (0, 1), BuildingBlock: KIFKEQ_clean_linker_1, # of connection points: 2
#     Edge 16, Type (0, 1), BuildingBlock: KIFKEQ_clean_linker_1, # of connection points: 2
#     Edge 17, Type (0, 1), BuildingBlock: KIFKEQ_clean_linker_1, # of connection points: 2
#     Edge 18, Type (0, 1), BuildingBlock: KIFKEQ_clean_linker_1, # of connection points: 2
#     Edge 19, Type (0, 1), BuildingBlock: KIFKEQ_clean_linker_1, # of connection points: 2
#     Edge 20, Type (0, 1), BuildingBlock: KIFKEQ_clean_linker_1, # of connection points: 2
#     Edge 21, Type (0, 1), BuildingBlock: KIFKEQ_clean_linker_1, # of connection points: 2
#     Edge 22, Type (0, 1), BuildingBlock: KIFKEQ_clean_linker_1, # of connection points: 2
#     Edge 23, Type (0, 1), BuildingBlock: KIFKEQ_clean_linker_1, # of connection points: 2
#     Edge 24, Type (0, 1), BuildingBlock: KIFKEQ_clean_linker_1, # of connection points: 2
#     Edge 25, Type (0, 1), BuildingBlock: KIFKEQ_clean_linker_1, # of connection points: 2
#     Edge 26, Type (0, 1), BuildingBlock: KIFKEQ_clean_linker_1, # of connection points: 2
#     Edge 27, Type (0, 1), BuildingBlock: KIFKEQ_clean_linker_1, # of connection points: 2
#     Edge 28, Type (0, 1), BuildingBlock: KIFKEQ_clean_linker_1, # of connection points: 2
#     Edge 29, Type (0, 1), BuildingBlock: KIFKEQ_clean_linker_1, # of connection points: 2
#     Edge 30, Type (0, 1), BuildingBlock: KIFKEQ_clean_linker_1, # of connection points: 2
#     Edge 31, Type (0, 1), BuildingBlock: KIFKEQ_clean_linker_1, # of connection points: 2
#     Edge 32, Type (0, 1), BuildingBlock: KIFKEQ_clean_linker_1, # of connection points: 2
#     Edge 33, Type (0, 1), BuildingBlock: KIFKEQ_clean_linker_1, # of connection points: 2
#     Edge 34, Type (0, 1), BuildingBlock: KIFKEQ_clean_linker_1, # of connection points: 2
#     Edge 35, Type (0, 1), BuildingBlock: KIFKEQ_clean_linker_1, # of connection points: 2
# Relax obj value: 0.107
# Max RMSD: 0.184
# Mean RMSD: 0.150
data_MOF--net-pry--node1-VOLQOD_clean_sbu_1--node2-BETDIP_clean_linker_0--edge1-KIFKEQ_clean_linker_1
_symmetry_space_group_name_H-M    P1
_symmetry_Int_Tables_number       1
_symmetry_cell_setting            triclinic
loop_
_symmetry_equiv_pos_as_xyz
'x, y, z'
_cell_length_a     37.325431
_cell_length_b     36.782409
_cell_length_c     38.924357
_cell_angle_alpha  93.192334
_cell_angle_beta   85.838597
_cell_angle_gamma 96.544063
loop_
_atom_site_label
_atom_site_type_symbol
_atom_site_fract_x
_atom_site_fract_y
_atom_site_fract_z
_atom_type_partial_charge
H0 H 0.0927 0.15552 0.19257 0.0
H1 H 0.16865 0.15161 0.1044 0.0
H2 H 0.17479 0.08176 0.18806 0.0
H3 H 0.12435 0.17308 0.07767 0.0
C4 C 0.11267 0.19166 0.09687 0.0
C5 C 0.11531 0.14366 0.17903 0.0
C6 C 0.13195 0.11676 0.19437 0.0
C7 C 0.12782 0.15592 0.14639 0.0
C8 C 0.15808 0.1417 0.12917 0.0
C9 C 0.17522 0.11489 0.14405 0.0
C10 C 0.16173 0.10243 0.17649 0.0
N11 N 0.11028 0.18362 0.13236 0.0
H12 H 0.37019 0.92078 0.68673 0.0
H13 H 0.37912 0.84051 0.60296 0.0
H14 H 0.44177 0.83752 0.69072 0.0
H15 H 0.33327 0.86127 0.58382 0.0
C16 C 0.32727 0.88674 0.59712 0.0
C17 C 0.38237 0.89731 0.67503 0.0
C18 C 0.40716 0.8808 0.69282 0.0
C19 C 0.37183 0.88309 0.64275 0.0
C20 C 0.38696 0.85209 0.62772 0.0
C21 C 0.41206 0.8352 0.64493 0.0
C22 C 0.42199 0.84986 0.67748 0.0
N23 N 0.34537 0.90033 0.62693 0.0
H24 H 0.66446 0.44769 0.88321 0.0
H25 H 0.58017 0.35802 0.87763 0.0
H26 H 0.66386 0.35594 0.94726 0.0
H27 H 0.54974 0.40012 0.85536 0.0
C28 C 0.57084 0.41542 0.83963 0.0
C29 C 0.65196 0.42157 0.89219 0.0
C30 C 0.66799 0.4039 0.91725 0.0
C31 C 0.61987 0.40578 0.87835 0.0
C32 C 0.60386 0.37152 0.88936 0.0
C33 C 0.61966 0.35339 0.91419 0.0
C34 C 0.65142 0.37 0.92829 0.0
N35 N 0.60608 0.42375 0.85156 0.0
H36 H 0.87972 0.54217 0.40568 0.0
H37 H 0.96222 0.63369 0.39844 0.0
H38 H 0.86609 0.64301 0.46397 0.0
H39 H 0.99454 0.59606 0.36788 0.0
C40 C 0.97532 0.57581 0.35585 0.0
C41 C 0.89015 0.56976 0.41389 0.0
C42 C 0.86926 0.59054 0.43719 0.0
C43 C 0.9238 0.58477 0.39985 0.0
C44 C 0.93674 0.6211 0.4095 0.0
C45 C 0.91629 0.64206 0.43304 0.0
C46 C 0.88276 0.62642 0.44704 0.0
N47 N 0.94188 0.56383 0.37364 0.0
H48 H 0.85637 0.90613 0.9486 0.0
H49 H 0.93976 0.9023 0.86657 0.0
H50 H 0.84861 0.96061 0.85472 0.0
H51 H 0.97201 0.88226 0.90826 0.0
C52 C 0.95133 0.86634 0.92393 0.0
C53 C 0.86775 0.91457 0.92349 0.0
C54 C 0.8486 0.93551 0.90363 0.0
C55 C 0.90069 0.90266 0.9107 0.0
C56 C 0.91501 0.91222 0.87752 0.0
C57 C 0.89607 0.93304 0.85737 0.0
C58 C 0.86307 0.94462 0.87051 0.0
N59 N 0.91649 0.87824 0.93062 0.0
H60 H 0.63484 0.07601 0.34968 0.0
H61 H 0.63302 0.15255 0.4371 0.0
H62 H 0.56283 0.15991 0.35557 0.0
H63 H 0.65649 0.10687 0.46305 0.0
C64 C 0.67468 0.09687 0.44253 0.0
C65 C 0.62331 0.09876 0.36355 0.0
C66 C 0.59677 0.11601 0.34894 0.0
C67 C 0.63615 0.11126 0.39547 0.0
C68 C 0.62249 0.14182 0.41296 0.0
C69 C 0.59587 0.15945 0.39876 0.0
C70 C 0.58297 0.14615 0.36689 0.0
N71 N 0.66461 0.09411 0.40789 0.0
H72 H 0.3595 0.55929 0.13015 0.0
H73 H 0.45359 0.63736 0.13988 0.0
H74 H 0.37704 0.65251 0.06648 0.0
H75 H 0.47691 0.58762 0.15942 0.0
C76 C 0.45379 0.57657 0.17569 0.0
C77 C 0.37616 0.58351 0.12135 0.0
C78 C 0.36428 0.60439 0.0961 0.0
C79 C 0.4088 0.59455 0.1366 0.0
C80 C 0.42937 0.62738 0.12705 0.0
C81 C 0.41797 0.64833 0.10173 0.0
C82 C 0.38598 0.63614 0.08585 0.0
N83 N 0.4185 0.57396 0.16364 0.0
H84 H 0.04001 0.39329 0.60697 0.0
H85 H 0.13428 0.47243 0.60588 0.0
H86 H 0.13803 0.36999 0.54887 0.0
H87 H 0.10191 0.50699 0.64012 0.0
C88 C 0.0802 0.48886 0.65213 0.0
C89 C 0.06751 0.40179 0.59736 0.0
C90 C 0.08668 0.37765 0.57593 0.0
C91 C 0.0842 0.43603 0.60841 0.0
C92 C 0.12038 0.44657 0.59713 0.0
C93 C 0.13956 0.42307 0.57508 0.0
C94 C 0.12247 0.3889 0.56427 0.0
N95 N 0.0651 0.45691 0.63388 0.0
O96 O -0.00094 0.08863 0.55422 0.0
Zn97 Zn 0.97664 0.03654 0.5503 0.0
O98 O 0.00772 0.00707 0.52023 0.0
Zn99 Zn 0.98363 0.99009 0.47802 0.0
Zn100 Zn 0.05411 0.03585 0.5083 0.0
Zn101 Zn 0.01665 0.96514 0.54517 0.0
O102 O 0.97763 0.93464 0.47261 0.0
O103 O 0.99847 0.91849 0.52084 0.0
O104 O 0.92851 0.03767 0.53013 0.0
O105 O 0.93373 0.00684 0.47963 0.0
O106 O 0.01219 0.01037 0.43561 0.0
O107 O 0.06155 0.04013 0.45678 0.0
O108 O 0.0969 0.01347 0.52492 0.0
O109 O 0.96792 0.01755 0.59852 0.0
O110 O 0.0695 0.96336 0.5487 0.0
O111 O 0.99331 0.96566 0.59326 0.0
C112 C 0.02969 0.10491 0.54432 0.0
C113 C 0.98439 0.91007 0.4923 0.0
C114 C 0.04274 0.02953 0.43131 0.0
C115 C 0.91551 0.02523 0.50189 0.0
C116 C 0.09818 0.98385 0.54012 0.0
C117 C 0.97564 0.98843 0.61121 0.0
O118 O 0.05367 0.0877 0.52762 0.0
O119 O 0.49784 0.08341 0.98197 0.0
Zn120 Zn 0.47328 0.03255 0.99123 0.0
O121 O 0.50319 0.00631 0.01893 0.0
Zn122 Zn 0.51804 0.96391 0.99187 0.0
Zn123 Zn 0.54673 0.0378 0.03113 0.0
Zn124 Zn 0.47549 0.99021 0.0612 0.0
O125 O 0.50376 0.91802 0.01686 0.0
O126 O 0.47183 0.9351 0.06414 0.0
O127 O 0.46419 0.0055 0.94502 0.0
O128 O 0.4956 0.95798 0.94644 0.0
O129 O 0.57167 0.96743 0.98209 0.0
O130 O 0.59266 0.01754 0.01174 0.0
O131 O 0.54887 0.0456 0.08262 0.0
O132 O 0.42492 0.03831 0.01687 0.0
O133 O 0.49961 0.01228 0.10352 0.0
O134 O 0.42552 0.00684 0.0639 0.0
C135 C 0.52674 0.10117 0.99231 0.0
C136 C 0.48538 0.91033 0.04483 0.0
C137 C 0.598 0.98958 0.99204 0.0
C138 C 0.47513 0.97619 0.93107 0.0
C139 C 0.52835 0.03372 0.10809 0.0
C140 C 0.4096 0.02634 0.04502 0.0
O141 O 0.547 0.08685 0.01145 0.0
O142 O 0.53473 0.50995 0.58862 0.0
Zn143 Zn 0.53564 0.53289 0.54275 0.0
O144 O 0.50571 0.50121 0.51116 0.0
Zn145 Zn 0.53519 0.48623 0.47072 0.0
Zn146 Zn 0.48363 0.457 0.53422 0.0
Zn147 Zn 0.46862 0.52888 0.49592 0.0
O148 O 0.51879 0.50294 0.42661 0.0
O149 O 0.47268 0.53375 0.44449 0.0
O150 O 0.58791 0.54002 0.52398 0.0
O151 O 0.58655 0.50619 0.47491 0.0
O152 O 0.53521 0.43189 0.46629 0.0
O153 O 0.49932 0.41022 0.51011 0.0
O154 O 0.42923 0.45433 0.53573 0.0
O155 O 0.51702 0.58236 0.55208 0.0
O156 O 0.41956 0.50324 0.50807 0.0
O157 O 0.47066 0.57947 0.51906 0.0
C158 C 0.51882 0.48063 0.60111 0.0
C159 C 0.49363 0.52173 0.42028 0.0
C160 C 0.52035 0.4051 0.4834 0.0
C161 C 0.60385 0.52678 0.49685 0.0
C162 C 0.40782 0.47449 0.52394 0.0
C163 C 0.49097 0.5968 0.54084 0.0
O164 O 0.49833 0.45811 0.58323 0.0
O165 O 0.98023 0.50708 0.08276 0.0
Zn166 Zn 0.98261 0.48635 0.03345 0.0
O167 O 0.01475 0.51984 0.00399 0.0
Zn168 Zn 0.98689 0.53639 0.96904 0.0
Zn169 Zn 0.03435 0.56324 0.03067 0.0
Zn170 Zn 0.05476 0.49457 0.98193 0.0
O171 O 0.00718 0.52274 0.92203 0.0
O172 O 0.05523 0.49437 0.92972 0.0
O173 O 0.93149 0.47747 0.01692 0.0
O174 O 0.93588 0.51406 0.97306 0.0
O175 O 0.98588 0.59069 0.97182 0.0
O176 O 0.02068 0.61102 0.01412 0.0
O177 O 0.08816 0.56622 0.02987 0.0
O178 O 0.0029 0.43755 0.03437 0.0
O179 O 0.10308 0.51864 0.99658 0.0
O180 O 0.05122 0.44266 0.99739 0.0
C181 C 0.99642 0.53559 0.09733 0.0
C182 C 0.03407 0.50663 0.90996 0.0
C183 C 0.00057 0.61695 0.9904 0.0
C184 C 0.91736 0.49132 0.99252 0.0
C185 C 0.11187 0.5468 0.01597 0.0
C186 C 0.03003 0.42417 0.01878 0.0
O187 O 0.01752 0.55873 0.08029 0.0
H188 H 0.1721 0.10161 0.24699 0.0
H189 H 0.06174 0.10277 0.22075 0.0
H190 H 0.1507 0.07881 0.30308 0.0
H191 H 0.0403 0.08182 0.27774 0.0
H192 H 0.01345 0.00876 0.36954 0.0
H193 H 0.03496 0.02921 0.31237 0.0
H194 H 0.12304 0.09814 0.35687 0.0
H195 H 0.10226 0.07695 0.41366 0.0
C196 C 0.14323 0.09697 0.25314 0.0
C197 C 0.11867 0.10389 0.22917 0.0
C198 C 0.13094 0.08433 0.28558 0.0
C199 C 0.09372 0.07848 0.29509 0.0
C200 C 0.06913 0.08555 0.27119 0.0
C201 C 0.08145 0.09807 0.23864 0.0
C202 C 0.03751 0.02814 0.3671 0.0
C203 C 0.05615 0.04107 0.39627 0.0
C204 C 0.04971 0.04009 0.33431 0.0
C205 C 0.08076 0.06539 0.3299 0.0
C206 C 0.09939 0.07821 0.35911 0.0
C207 C 0.08733 0.06614 0.3918 0.0
H208 H 0.41333 0.84182 0.74944 0.0
H209 H 0.4222 0.95248 0.71549 0.0
H210 H 0.42848 0.86522 0.80696 0.0
H211 H 0.43764 0.97598 0.77308 0.0
H212 H 0.42999 0.00535 0.88974 0.0
H213 H 0.41269 0.98253 0.83243 0.0
H214 H 0.47955 0.89453 0.83598 0.0
H215 H 0.49612 0.91664 0.89318 0.0
C216 C 0.4189 0.87115 0.75417 0.0
C217 C 0.41675 0.89526 0.72782 0.0
C218 C 0.42755 0.88459 0.78717 0.0
C219 C 0.43441 0.92251 0.79466 0.0
C220 C 0.43205 0.94666 0.76835 0.0
C221 C 0.42329 0.93319 0.73532 0.0
C222 C 0.44092 0.9811 0.8783 0.0
C223 C 0.46436 0.96282 0.89619 0.0
C224 C 0.43117 0.96813 0.84536 0.0
C225 C 0.44464 0.93661 0.82961 0.0
C226 C 0.46816 0.9185 0.84752 0.0
C227 C 0.47784 0.93137 0.88034 0.0
H228 H 0.50627 0.40456 0.81093 0.0
H229 H 0.61652 0.45245 0.79168 0.0
H230 H 0.49201 0.42174 0.7541 0.0
H231 H 0.60264 0.46885 0.73476 0.0
H232 H 0.55796 0.52355 0.64795 0.0
H233 H 0.56904 0.50946 0.70634 0.0
H234 H 0.50509 0.40462 0.69379 0.0
H235 H 0.49327 0.419 0.6356 0.0
C236 C 0.52739 0.41881 0.79453 0.0
C237 C 0.56241 0.4272 0.80571 0.0
C238 C 0.51933 0.42843 0.76193 0.0
C239 C 0.5462 0.44661 0.73983 0.0
C240 C 0.58118 0.45532 0.75129 0.0
C241 C 0.5892 0.44574 0.78388 0.0
C242 C 0.54612 0.49753 0.65763 0.0
C243 C 0.52479 0.47237 0.63698 0.0
C244 C 0.55265 0.48938 0.69109 0.0
C245 C 0.53808 0.45585 0.70472 0.0
C246 C 0.51637 0.43089 0.68425 0.0
C247 C 0.50977 0.43905 0.65078 0.0
H248 H 0.94522 0.51641 0.31839 0.0
H249 H 0.01658 0.61675 0.30946 0.0
H250 H 0.95131 0.50516 0.25604 0.0
H251 H 0.02082 0.60727 0.24707 0.0
H252 H 0.9385 0.51405 0.14158 0.0
H253 H 0.93396 0.52307 0.20428 0.0
H254 H 0.04427 0.57474 0.20076 0.0
H255 H 0.04752 0.56801 0.13836 0.0
C256 C 0.96213 0.5361 0.30294 0.0
C257 C 0.98056 0.56739 0.31852 0.0
C258 C 0.96534 0.52992 0.26715 0.0
C259 C 0.98639 0.55537 0.24618 0.0
C260 C 0.00498 0.58656 0.26215 0.0
C261 C 0.00246 0.5922 0.29795 0.0
C262 C 0.96156 0.52755 0.1544 0.0
C263 C 0.99315 0.54073 0.1352 0.0
C264 C 0.95918 0.53244 0.19036 0.0
C265 C 0.98874 0.54977 0.20788 0.0
C266 C 0.02056 0.56221 0.1884 0.0
C267 C 0.02255 0.55818 0.15252 0.0
H268 H 0.19135 0.04385 0.13814 0.0
H269 H 0.23307 0.15339 0.11011 0.0
H270 H 0.24636 0.02087 0.1122 0.0
H271 H 0.28798 0.13036 0.08401 0.0
H272 H 0.36918 0.0718 0.01461 0.0
H273 H 0.31119 0.09167 0.03609 0.0
H274 H 0.31009 0.02518 0.12425 0.0
H275 H 0.36773 0.00486 0.10265 0.0
C276 C 0.21228 0.06305 0.12649 0.0
C277 C 0.20783 0.10051 0.12635 0.0
C278 C 0.24381 0.04986 0.11161 0.0
C279 C 0.27165 0.07378 0.09612 0.0
C280 C 0.26687 0.1111 0.0953 0.0
C281 C 0.23536 0.12431 0.11026 0.0
C282 C 0.35647 0.06116 0.03844 0.0
C283 C 0.37326 0.03676 0.05692 0.0
C284 C 0.32331 0.07276 0.05086 0.0
C285 C 0.30604 0.06013 0.08195 0.0
C286 C 0.32243 0.03513 0.10002 0.0
C287 C 0.35563 0.02363 0.08769 0.0
H288 H 0.28075 0.85991 0.54954 0.0
H289 H 0.30419 0.95291 0.62019 0.0
H290 H 0.22694 0.8855 0.5338 0.0
H291 H 0.25029 0.9786 0.6043 0.0
H292 H 0.16499 0.0244 0.53973 0.0
H293 H 0.22266 0.00316 0.55176 0.0
H294 H 0.16816 0.895 0.56831 0.0
H295 H 0.11102 0.91588 0.55663 0.0
C296 C 0.27452 0.88597 0.56147 0.0
C297 C 0.29639 0.90421 0.58629 0.0
C298 C 0.24372 0.90055 0.55254 0.0
C299 C 0.23435 0.93391 0.568 0.0
C300 C 0.257 0.95293 0.59188 0.0
C301 C 0.28769 0.93811 0.60111 0.0
C302 C 0.16541 0.99611 0.54591 0.0
C303 C 0.1334 0.97187 0.54724 0.0
C304 C 0.19833 0.98403 0.55291 0.0
C305 C 0.19985 0.94739 0.56073 0.0
C306 C 0.16788 0.92327 0.56192 0.0
C307 C 0.13508 0.93537 0.55545 0.0
H308 H 0.72761 0.43471 0.88036 0.0
H309 H 0.68804 0.40759 0.98387 0.0
H310 H 0.78646 0.45687 0.90106 0.0
H311 H 0.74714 0.42997 0.00473 0.0
H312 H 0.87107 0.43356 0.01738 0.0
H313 H 0.80949 0.41394 0.00095 0.0
H314 H 0.81551 0.50621 0.93597 0.0
H315 H 0.87676 0.52524 0.95161 0.0
C316 C 0.7313 0.43406 0.90765 0.0
C317 C 0.70311 0.41952 0.93047 0.0
C318 C 0.76508 0.44672 0.91955 0.0
C319 C 0.7715 0.44526 0.9546 0.0
C320 C 0.74321 0.43104 0.97753 0.0
C321 C 0.70936 0.41833 0.96559 0.0
C322 C 0.85907 0.44975 0.99982 0.0
C323 C 0.879 0.48067 0.9855 0.0
C324 C 0.82378 0.43861 0.99049 0.0
C325 C 0.80778 0.45828 0.9668 0.0
C326 C 0.8273 0.48996 0.95364 0.0
C327 C 0.86243 0.50095 0.96278 0.0
H328 H 0.81732 0.55821 0.39671 0.0
H329 H 0.83635 0.59277 0.50227 0.0
H330 H 0.7538 0.54155 0.41308 0.0
H331 H 0.77262 0.57508 0.51912 0.0
H332 H 0.64937 0.58226 0.52551 0.0
H333 H 0.71454 0.59508 0.5129 0.0
H334 H 0.71272 0.49916 0.4433 0.0
H335 H 0.64783 0.48736 0.45477 0.0
C336 C 0.80801 0.56136 0.42361 0.0
C337 C 0.83172 0.57659 0.44826 0.0
C338 C 0.77157 0.55183 0.43306 0.0
C339 C 0.75804 0.55696 0.46746 0.0
C340 C 0.78203 0.57132 0.49232 0.0
C341 C 0.81851 0.58119 0.48277 0.0
C342 C 0.66301 0.56397 0.50758 0.0
C343 C 0.64344 0.53415 0.49077 0.0
C344 C 0.70036 0.57111 0.50052 0.0
C345 C 0.71885 0.54829 0.47686 0.0
C346 C 0.69928 0.5178 0.46102 0.0
C347 C 0.66204 0.51098 0.46769 0.0
H348 H 0.08103 0.2456 0.13598 0.0
H349 H 0.11114 0.21122 0.03104 0.0
H350 H 0.05895 0.29998 0.11558 0.0
H351 H 0.08839 0.2652 0.01045 0.0
H352 H 0.08652 0.38758 0.99221 0.0
H353 H 0.1045 0.33062 0.01066 0.0
H354 H 0.01174 0.32045 0.08396 0.0
H355 H 0.99403 0.37795 0.06599 0.0
C356 C 0.08266 0.24951 0.10852 0.0
C357 C 0.0979 0.22421 0.08505 0.0
C358 C 0.06978 0.28058 0.09678 0.0
C359 C 0.07188 0.28705 0.06133 0.0
C360 C 0.08676 0.26139 0.03793 0.0
C361 C 0.09963 0.23037 0.04968 0.0
C362 C 0.0697 0.3731 0.01205 0.0
C363 C 0.03885 0.38755 0.02766 0.0
C364 C 0.07997 0.34026 0.02255 0.0
C365 C 0.05968 0.32095 0.04893 0.0
C366 C 0.0283 0.33488 0.06394 0.0
C367 C 0.01799 0.36774 0.05341 0.0
H368 H 0.65604 0.29434 0.92063 0.0
H369 H 0.5486 0.32836 0.92972 0.0
H370 H 0.63176 0.23386 0.93912 0.0
H371 H 0.52414 0.26745 0.94839 0.0
H372 H 0.4942 0.14059 0.94781 0.0
H373 H 0.51525 0.20179 0.92794 0.0
H374 H 0.60506 0.2083 0.99285 0.0
H375 H 0.58464 0.14742 0.01221 0.0
C376 C 0.62723 0.28894 0.92686 0.0
C377 C 0.60428 0.31623 0.92421 0.0
C378 C 0.61331 0.25429 0.93743 0.0
C379 C 0.5761 0.24604 0.94562 0.0
C380 C 0.55292 0.27297 0.94208 0.0
C381 C 0.5669 0.30779 0.93146 0.0
C382 C 0.51835 0.15517 0.95791 0.0
C383 C 0.53789 0.13894 0.98138 0.0
C384 C 0.5303 0.19025 0.94663 0.0
C385 C 0.56201 0.20966 0.95857 0.0
C386 C 0.58094 0.19375 0.98265 0.0
C387 C 0.56907 0.15885 0.99388 0.0
H388 H 0.91426 0.6782 0.49615 0.0
H389 H 0.94535 0.69414 0.38849 0.0
H390 H 0.93095 0.74319 0.5094 0.0
H391 H 0.96332 0.75898 0.40192 0.0
H392 H 0.95028 0.8797 0.43562 0.0
H393 H 0.93501 0.81463 0.42076 0.0
H394 H 0.9848 0.78689 0.51118 0.0
H395 H -0.0006 0.85146 0.5264 0.0
C396 C 0.92487 0.69559 0.47537 0.0
C397 C 0.92858 0.68109 0.44133 0.0
C398 C 0.93471 0.73273 0.48297 0.0
C399 C 0.94849 0.75618 0.45669 0.0
C400 C 0.95247 0.74164 0.42266 0.0
C401 C 0.94264 0.70445 0.41505 0.0
C402 C 0.958 0.8597 0.45227 0.0
C403 C 0.97584 0.87082 0.4823 0.0
C404 C 0.94943 0.82245 0.44366 0.0
C405 C 0.95855 0.79567 0.46492 0.0
C406 C 0.97686 0.80685 0.4946 0.0
C407 C 0.98537 0.84394 0.50321 0.0
H408 H 0.43316 0.82029 0.57698 0.0
H409 H 0.42494 0.77401 0.67729 0.0
H410 H 0.45454 0.76412 0.55103 0.0
H411 H 0.44715 0.71828 0.65134 0.0
H412 H 0.44456 0.64035 0.51666 0.0
H413 H 0.42823 0.69905 0.54138 0.0
H414 H 0.50243 0.69559 0.62091 0.0
H415 H 0.51881 0.63672 0.59629 0.0
C416 C 0.43582 0.79817 0.59352 0.0
C417 C 0.42709 0.80172 0.62926 0.0
C418 C 0.4482 0.76603 0.57863 0.0
C419 C 0.45249 0.73676 0.59913 0.0
C420 C 0.44457 0.74054 0.63492 0.0
C421 C 0.4319 0.77256 0.64979 0.0
C422 C 0.45762 0.65216 0.53928 0.0
C423 C 0.48294 0.6337 0.55452 0.0
C424 C 0.44838 0.68593 0.55333 0.0
C425 C 0.46398 0.70191 0.58314 0.0
C426 C 0.4897 0.68378 0.59811 0.0
C427 C 0.49924 0.65016 0.58385 0.0
H428 H 0.86722 0.90316 0.79917 0.0
H429 H 0.95371 0.9803 0.83542 0.0
H430 H 0.88714 0.9168 0.73938 0.0
H431 H 0.97327 0.99474 0.77549 0.0
H432 H 0.95985 0.03726 0.66439 0.0
H433 H 0.942 0.02383 0.72465 0.0
H434 H 0.94707 0.90864 0.69995 0.0
H435 H 0.96558 0.92192 0.64005 0.0
C436 C 0.89056 0.92297 0.79416 0.0
C437 C 0.90915 0.94062 0.82155 0.0
C438 C 0.90193 0.93074 0.76012 0.0
C439 C 0.93165 0.95685 0.75296 0.0
C440 C 0.95016 0.97466 0.78044 0.0
C441 C 0.93918 0.96632 0.81453 0.0
C442 C 0.95713 0.00909 0.67185 0.0
C443 C 0.9641 0.98064 0.6475 0.0
C444 C 0.94717 0.00148 0.7063 0.0
C445 C 0.94324 0.96523 0.71681 0.0
C446 C 0.94982 0.9368 0.69243 0.0
C447 C 0.9605 0.94445 0.65821 0.0
H448 H 0.58857 0.15848 0.2953 0.0
H449 H 0.57874 0.04582 0.32388 0.0
H450 H 0.57108 0.13838 0.23748 0.0
H451 H 0.56188 0.02564 0.26574 0.0
H452 H 0.49603 0.00827 0.16892 0.0
H453 H 0.51151 0.02811 0.22741 0.0
H454 H 0.59782 0.10517 0.18635 0.0
H455 H 0.58235 0.08563 0.12791 0.0
C456 C 0.58239 0.12943 0.2893 0.0
C457 C 0.58495 0.10372 0.31415 0.0
C458 C 0.57275 0.11791 0.25608 0.0
C459 C 0.56524 0.08043 0.24703 0.0
C460 C 0.56727 0.05472 0.27203 0.0
C461 C 0.57719 0.06624 0.3052 0.0
C462 C 0.51832 0.02945 0.17233 0.0
C463 C 0.53792 0.04537 0.14367 0.0
C464 C 0.52727 0.04066 0.20586 0.0
C465 C 0.55582 0.06824 0.21147 0.0
C466 C 0.57541 0.08415 0.18285 0.0
C467 C 0.56665 0.07277 0.14935 0.0
H468 H 0.51757 0.57906 0.20511 0.0
H469 H 0.40284 0.55028 0.22537 0.0
H470 H 0.52767 0.56511 0.2641 0.0
H471 H 0.4129 0.53587 0.28407 0.0
H472 H 0.53394 0.50233 0.36186 0.0
H473 H 0.52411 0.51362 0.3023 0.0
H474 H 0.43148 0.56954 0.33718 0.0
H475 H 0.44087 0.55787 0.39664 0.0
C476 C 0.49459 0.56941 0.22212 0.0
C477 C 0.4595 0.56582 0.21073 0.0
C478 C 0.50036 0.56129 0.25581 0.0
C479 C 0.47106 0.54954 0.2788 0.0
C480 C 0.43597 0.54538 0.26713 0.0
C481 C 0.43024 0.5534 0.23342 0.0
C482 C 0.51147 0.51705 0.35686 0.0
C483 C 0.48819 0.52918 0.38409 0.0
C484 C 0.50595 0.52364 0.32272 0.0
C485 C 0.47696 0.54238 0.31502 0.0
C486 C 0.45375 0.55456 0.34222 0.0
C487 C 0.45931 0.54808 0.37635 0.0
H488 H 0.11919 0.53174 0.69805 0.0
H489 H 0.02273 0.4556 0.6906 0.0
H490 H 0.10855 0.53549 0.76099 0.0
H491 H 0.01204 0.45951 0.75324 0.0
H492 H 0.98622 0.51206 0.86154 0.0
H493 H 0.99715 0.50879 0.79908 0.0
H494 H 0.1078 0.49016 0.80994 0.0
H495 H 0.09692 0.49326 0.87284 0.0
C496 C 0.09558 0.51614 0.7099 0.0
C497 C 0.07182 0.4934 0.68961 0.0
C498 C 0.0897 0.51801 0.74579 0.0
C499 C 0.05963 0.4976 0.76185 0.0
C500 C 0.03537 0.47559 0.74144 0.0
C501 C 0.04152 0.47333 0.70564 0.0
C502 C 0.01289 0.50716 0.85069 0.0
C503 C 0.04075 0.50292 0.87212 0.0
C504 C 0.01906 0.50517 0.81494 0.0
C505 C 0.0533 0.49934 0.7998 0.0
C506 C 0.08122 0.49501 0.82109 0.0
C507 C 0.07492 0.49649 0.85699 0.0
H508 H 0.82786 0.96138 0.96861 0.0
H509 H 0.78775 0.93283 0.86816 0.0
H510 H 0.76765 0.97527 0.99056 0.0
H511 H 0.72812 0.9479 0.88971 0.0
H512 H 0.6187 0.933 0.94965 0.0
H513 H 0.67952 0.92156 0.9289 0.0
H514 H 0.72301 0.01902 0.98554 0.0
H515 H 0.66188 0.03033 0.00693 0.0
C516 C 0.80624 0.95823 0.9512 0.0
C517 C 0.81258 0.94594 0.91666 0.0
C518 C 0.77187 0.96653 0.96367 0.0
C519 C 0.74308 0.96254 0.94191 0.0
C520 C 0.74961 0.95082 0.90725 0.0
C521 C 0.78392 0.94261 0.89479 0.0
C522 C 0.64114 0.95206 0.95779 0.0
C523 C 0.63532 0.98266 0.97994 0.0
C524 C 0.67605 0.94559 0.94567 0.0
C525 C 0.70609 0.96952 0.95536 0.0
C526 C 0.70041 -7e-05 0.9778 0.0
C527 C 0.66538 0.00649 0.98992 0.0
H528 H 0.69621 0.08877 0.50644 0.0
H529 H 0.73063 0.07683 0.39851 0.0
H530 H 0.75297 0.06888 0.52181 0.0
H531 H 0.7878 0.05834 0.41366 0.0
H532 H 0.87434 0.99552 0.44969 0.0
H533 H 0.81518 0.01051 0.43623 0.0
H534 H 0.81543 0.08957 0.52267 0.0
H535 H 0.8739 0.07363 0.53683 0.0
C536 C 0.71601 0.08195 0.48604 0.0
C537 C 0.70898 0.08423 0.45136 0.0
C538 C 0.74863 0.07079 0.49479 0.0
C539 C 0.77512 0.06201 0.469 0.0
C540 C 0.76787 0.06422 0.43423 0.0
C541 C 0.73512 0.07507 0.42551 0.0
C542 C 0.86168 0.01597 0.46594 0.0
C543 C 0.87894 0.03339 0.49432 0.0
C544 C 0.82781 0.02475 0.45809 0.0
C545 C 0.81047 0.05141 0.47824 0.0
C546 C 0.82762 0.06851 0.50686 0.0
C547 C 0.86133 0.0595 0.51488 0.0
H548 H 0.3159 0.65164 0.08401 0.0
H549 H 0.33027 0.53644 0.07757 0.0
H550 H 0.25709 0.63781 0.06113 0.0
H551 H 0.26979 0.52228 0.05656 0.0
H552 H 0.17165 0.51426 0.99022 0.0
H553 H 0.23352 0.52765 0.00786 0.0
H554 H 0.19898 0.61166 0.08086 0.0
H555 H 0.138 0.59928 0.06262 0.0
C556 C 0.30662 0.62329 0.0775 0.0
C557 C 0.32805 0.59517 0.08234 0.0
C558 C 0.27254 0.61531 0.06484 0.0
C559 C 0.25855 0.57891 0.05722 0.0
C560 C 0.27993 0.55065 0.06186 0.0
C561 C 0.31437 0.55871 0.07432 0.0
C562 C 0.17742 0.53583 0.00978 0.0
C563 C 0.14987 0.55583 0.02484 0.0
C564 C 0.21279 0.54327 0.0201 0.0
C565 C 0.22125 0.57078 0.04572 0.0
C566 C 0.19365 0.59077 0.06058 0.0
C567 C 0.15853 0.58354 0.05017 0.0
H568 H 0.19165 0.44585 0.61918 0.0
H569 H 0.1753 0.4199 0.51149 0.0
H570 H 0.2568 0.45711 0.60556 0.0
H571 H 0.24065 0.43125 0.49781 0.0
H572 H 0.35492 0.49936 0.48972 0.0
H573 H 0.28963 0.48684 0.50114 0.0
H574 H 0.30619 0.4166 0.58246 0.0
H575 H 0.3716 0.42883 0.57101 0.0
C576 C 0.20203 0.44302 0.59255 0.0
C577 C 0.17859 0.43226 0.5663 0.0
C578 C 0.23923 0.44904 0.58484 0.0
C579 C 0.2536 0.44482 0.5507 0.0
C580 C 0.23013 0.43477 0.52432 0.0
C581 C 0.19291 0.42824 0.53211 0.0
C582 C 0.34466 0.48109 0.50993 0.0
C583 C 0.36838 0.46518 0.52958 0.0
C584 C 0.30733 0.47383 0.51631 0.0
C585 C 0.29305 0.45095 0.54276 0.0
C586 C 0.31666 0.43463 0.56212 0.0
C587 C 0.35401 0.44145 0.55542 0.0
H588 H 0.0165 0.83954 0.92181 0.0
H589 H 0.90449 0.81508 0.95751 0.0
H590 H 0.02945 0.78035 0.94128 0.0
H591 H 0.91738 0.75627 0.97664 0.0
H592 H 0.94618 0.6377 0.9557 0.0
H593 H 0.93534 0.69934 0.94294 0.0
H594 H 0.02873 0.74397 0.9969 0.0
H595 H 0.03965 0.68181 0.01006 0.0
C596 C 0.9948 0.82169 0.93411 0.0
C597 C 0.95954 0.83185 0.93801 0.0
C598 C 0.00223 0.78798 0.94537 0.0
C599 C 0.97436 0.76369 0.9603 0.0
C600 C 0.93929 0.77433 0.96494 0.0
C601 C 0.93197 0.8081 0.95406 0.0
C602 C 0.96441 0.66057 0.965 0.0
C603 C 0.99381 0.65482 0.9839 0.0
C604 C 0.95804 0.69592 0.95784 0.0
C605 C 0.98112 0.72642 0.96902 0.0
C606 C 0.0106 0.72086 0.98789 0.0
C607 C 0.01671 0.68537 0.99555 0.0
H608 H 0.43616 0.67633 0.03864 0.0
H609 H 0.44109 0.70319 0.14773 0.0
H610 H 0.45642 0.73986 0.02636 0.0
H611 H 0.46256 0.76671 0.13545 0.0
H612 H 0.4439 0.88126 0.09985 0.0
H613 H 0.43384 0.81719 0.11472 0.0
H614 H 0.50591 0.78837 0.02808 0.0
H615 H 0.51538 0.85207 0.01274 0.0
C616 C 0.44232 0.69574 0.05993 0.0
C617 C 0.43684 0.68492 0.09411 0.0
C618 C 0.45415 0.73208 0.05293 0.0
C619 C 0.46076 0.7584 0.07998 0.0
C620 C 0.45715 0.74715 0.11411 0.0
C621 C 0.44535 0.71071 0.12111 0.0
C622 C 0.4577 0.86128 0.08406 0.0
C623 C 0.48013 0.87177 0.0549 0.0
C624 C 0.45219 0.82461 0.09275 0.0
C625 C 0.46906 0.7977 0.07253 0.0
C626 C 0.49216 0.80836 0.0439 0.0
C627 C 0.49759 0.84493 0.03516 0.0
H628 H 0.04986 0.33173 0.62223 0.0
H629 H 0.09051 0.33606 0.51556 0.0
H630 H 0.03384 0.2659 0.61442 0.0
H631 H 0.07453 0.27001 0.50778 0.0
H632 H 0.98513 0.15097 0.57869 0.0
H633 H 0.99462 0.21763 0.58459 0.0
H634 H 0.099 0.21652 0.52904 0.0
H635 H 0.08944 0.15 0.52264 0.0
C636 C 0.05448 0.31879 0.59686 0.0
C637 C 0.07156 0.33904 0.56951 0.0
C638 C 0.04545 0.28103 0.59245 0.0
C639 C 0.05338 0.26277 0.56063 0.0
C640 C 0.06879 0.28328 0.5328 0.0
C641 C 0.07777 0.32106 0.53719 0.0
C642 C 0.01019 0.1649 0.56786 0.0
C643 C 0.03653 0.14511 0.55017 0.0
C644 C 0.0156 0.20309 0.57128 0.0
C645 C 0.04738 0.22228 0.55698 0.0
C646 C 0.07392 0.2025 0.53975 0.0
C647 C 0.06858 0.16434 0.53641 0.0
H648 H 0.63727 0.21873 0.4254 0.0
H649 H 0.52642 0.17699 0.40991 0.0
H650 H 0.61765 0.27679 0.44854 0.0
H651 H 0.50679 0.23545 0.43284 0.0
H652 H 0.48773 0.33874 0.50568 0.0
H653 H 0.50498 0.27763 0.48825 0.0
H654 H 0.59104 0.32638 0.4197 0.0
H655 H 0.57403 0.3869 0.4367 0.0
C656 C 0.60865 0.22177 0.42746 0.0
C657 C 0.58339 0.19336 0.41576 0.0
C658 C 0.59746 0.2551 0.44043 0.0
C659 C 0.56073 0.2607 0.44224 0.0
C660 C 0.53525 0.23182 0.43186 0.0
C661 C 0.54651 0.19853 0.41852 0.0
C662 C 0.51026 0.33634 0.48685 0.0
C663 C 0.52947 0.36775 0.47261 0.0
C664 C 0.52005 0.3014 0.47684 0.0
C665 C 0.54955 0.29734 0.45287 0.0
C666 C 0.56854 0.3287 0.4386 0.0
C667 C 0.55854 0.3634 0.4482 0.0
loop_
_geom_bond_atom_site_label_1
_geom_bond_atom_site_label_2
_geom_bond_distance
_geom_bond_site_symmetry_2
_ccdc_geom_bond_type
H0 C5 0.930 . S
H1 C8 0.930 . S
H2 C10 0.930 . S
H3 C4 1.016 . S
C4 H3 1.016 . S
C4 N11 1.286 . S
C5 H0 0.930 . S
C5 C6 1.397 . S
C5 C7 1.361 . S
C6 C5 1.397 . S
C6 C10 1.390 . S
C7 C5 1.361 . S
C7 C8 1.393 . S
C7 N11 1.413 . S
C8 H1 0.930 . S
C8 C7 1.393 . S
C8 C9 1.399 . S
C9 C8 1.399 . S
C9 C10 1.381 . S
C10 H2 0.930 . S
C10 C6 1.390 . S
C10 C9 1.381 . S
N11 C4 1.286 . S
N11 C7 1.413 . S
H12 C17 0.930 . S
H13 C20 0.930 . S
H14 C22 0.930 . S
H15 C16 1.016 . S
C16 H15 1.016 . S
C16 N23 1.286 . S
C17 H12 0.930 . S
C17 C18 1.397 . S
C17 C19 1.361 . S
C18 C17 1.397 . S
C18 C22 1.390 . S
C19 C17 1.361 . S
C19 C20 1.393 . S
C19 N23 1.413 . S
C20 H13 0.930 . S
C20 C19 1.393 . S
C20 C21 1.399 . S
C21 C20 1.399 . S
C21 C22 1.381 . S
C22 H14 0.930 . S
C22 C18 1.390 . S
C22 C21 1.381 . S
N23 C16 1.286 . S
N23 C19 1.413 . S
H24 C29 0.930 . S
H25 C32 0.930 . S
H26 C34 0.930 . S
H27 C28 1.016 . S
C28 H27 1.016 . S
C28 N35 1.286 . S
C29 H24 0.930 . S
C29 C30 1.397 . S
C29 C31 1.361 . S
C30 C29 1.397 . S
C30 C34 1.390 . S
C31 C29 1.361 . S
C31 C32 1.393 . S
C31 N35 1.413 . S
C32 H25 0.930 . S
C32 C31 1.393 . S
C32 C33 1.399 . S
C33 C32 1.399 . S
C33 C34 1.381 . S
C34 H26 0.930 . S
C34 C30 1.390 . S
C34 C33 1.381 . S
N35 C28 1.286 . S
N35 C31 1.413 . S
H36 C41 0.930 . S
H37 C44 0.930 . S
H38 C46 0.930 . S
H39 C40 1.016 . S
C40 H39 1.016 . S
C40 N47 1.286 . S
C41 H36 0.930 . S
C41 C42 1.397 . S
C41 C43 1.361 . S
C42 C41 1.397 . S
C42 C46 1.390 . S
C43 C41 1.361 . S
C43 C44 1.393 . S
C43 N47 1.413 . S
C44 H37 0.930 . S
C44 C43 1.393 . S
C44 C45 1.399 . S
C45 C44 1.399 . S
C45 C46 1.381 . S
C46 H38 0.930 . S
C46 C42 1.390 . S
C46 C45 1.381 . S
N47 C40 1.286 . S
N47 C43 1.413 . S
H48 C53 0.930 . S
H49 C56 0.930 . S
H50 C58 0.930 . S
H51 C52 1.016 . S
C52 H51 1.016 . S
C52 N59 1.286 . S
C53 H48 0.930 . S
C53 C54 1.397 . S
C53 C55 1.361 . S
C54 C53 1.397 . S
C54 C58 1.390 . S
C55 C53 1.361 . S
C55 C56 1.393 . S
C55 N59 1.413 . S
C56 H49 0.930 . S
C56 C55 1.393 . S
C56 C57 1.399 . S
C57 C56 1.399 . S
C57 C58 1.381 . S
C58 H50 0.930 . S
C58 C54 1.390 . S
C58 C57 1.381 . S
N59 C52 1.286 . S
N59 C55 1.413 . S
H60 C65 0.930 . S
H61 C68 0.930 . S
H62 C70 0.930 . S
H63 C64 1.016 . S
C64 H63 1.016 . S
C64 N71 1.286 . S
C65 H60 0.930 . S
C65 C66 1.397 . S
C65 C67 1.361 . S
C66 C65 1.397 . S
C66 C70 1.390 . S
C67 C65 1.361 . S
C67 C68 1.393 . S
C67 N71 1.413 . S
C68 H61 0.930 . S
C68 C67 1.393 . S
C68 C69 1.399 . S
C69 C68 1.399 . S
C69 C70 1.381 . S
C70 H62 0.930 . S
C70 C66 1.390 . S
C70 C69 1.381 . S
N71 C64 1.286 . S
N71 C67 1.413 . S
H72 C77 0.930 . S
H73 C80 0.930 . S
H74 C82 0.930 . S
H75 C76 1.016 . S
C76 H75 1.016 . S
C76 N83 1.286 . S
C77 H72 0.930 . S
C77 C78 1.397 . S
C77 C79 1.361 . S
C78 C77 1.397 . S
C78 C82 1.390 . S
C79 C77 1.361 . S
C79 C80 1.393 . S
C79 N83 1.413 . S
C80 H73 0.930 . S
C80 C79 1.393 . S
C80 C81 1.399 . S
C81 C80 1.399 . S
C81 C82 1.381 . S
C82 H74 0.930 . S
C82 C78 1.390 . S
C82 C81 1.381 . S
N83 C76 1.286 . S
N83 C79 1.413 . S
H84 C89 0.930 . S
H85 C92 0.930 . S
H86 C94 0.930 . S
H87 C88 1.016 . S
C88 H87 1.016 . S
C88 N95 1.286 . S
C89 H84 0.930 . S
C89 C90 1.397 . S
C89 C91 1.361 . S
C90 C89 1.397 . S
C90 C94 1.390 . S
C91 C89 1.361 . S
C91 C92 1.393 . S
C91 N95 1.413 . S
C92 H85 0.930 . S
C92 C91 1.393 . S
C92 C93 1.399 . S
C93 C92 1.399 . S
C93 C94 1.381 . S
C94 H86 0.930 . S
C94 C90 1.390 . S
C94 C93 1.381 . S
N95 C88 1.286 . S
N95 C91 1.413 . S
O96 Zn97 1.957 . S
O96 C112 1.214 1_655 S
Zn97 O96 1.957 . S
Zn97 O98 1.949 1_655 S
Zn97 O104 1.919 . S
Zn97 O109 1.924 . S
O98 Zn97 1.949 1_455 S
O98 Zn99 1.923 1_445 S
O98 Zn100 1.950 . S
O98 Zn101 1.945 1_545 S
Zn99 O98 1.923 1_665 S
Zn99 O102 1.933 . S
Zn99 O105 1.941 1_565 S
Zn99 O106 1.965 1_665 S
Zn100 O98 1.950 . S
Zn100 O107 1.938 . S
Zn100 O108 1.902 1_545 S
Zn100 O118 1.953 . S
Zn101 O98 1.945 1_565 S
Zn101 O103 1.932 1_455 S
Zn101 O110 1.977 . S
Zn101 O111 1.910 1_455 S
O102 Zn99 1.933 . S
O102 C113 1.226 . S
O103 Zn101 1.932 1_655 S
O103 C113 1.307 . S
O104 Zn97 1.919 . S
O104 C115 1.253 . S
O105 Zn99 1.941 1_545 S
O105 C115 1.283 . S
O106 Zn99 1.965 1_445 S
O106 C114 1.303 . S
O107 Zn100 1.938 . S
O107 C114 1.247 . S
O108 Zn100 1.902 1_565 S
O108 C116 1.310 . S
O109 Zn97 1.924 . S
O109 C117 1.311 1_545 S
O110 Zn101 1.977 . S
O110 C116 1.272 . S
O111 Zn101 1.910 1_655 S
O111 C117 1.231 . S
C112 O96 1.214 1_455 S
C112 O118 1.298 . S
C113 O102 1.226 . S
C113 O103 1.307 . S
C114 O106 1.303 . S
C114 O107 1.247 . S
C115 O104 1.253 . S
C115 O105 1.283 . S
C116 O108 1.310 . S
C116 O110 1.272 . S
C117 O109 1.311 1_565 S
C117 O111 1.231 . S
O118 Zn100 1.953 . S
O118 C112 1.298 . S
O119 Zn120 1.953 . S
O119 C135 1.225 . S
Zn120 O119 1.953 . S
Zn120 O121 1.949 1_556 S
Zn120 O127 1.919 . S
Zn120 O132 1.924 1_556 S
O121 Zn120 1.949 1_554 S
O121 Zn122 1.912 1_544 S
O121 Zn123 1.950 . S
O121 Zn124 1.941 1_545 S
Zn122 O121 1.912 1_566 S
Zn122 O125 1.919 1_556 S
Zn122 O128 1.971 . S
Zn122 O129 1.967 . S
Zn123 O121 1.950 . S
Zn123 O130 1.938 . S
Zn123 O131 1.906 . S
Zn123 O141 1.953 . S
Zn124 O121 1.941 1_565 S
Zn124 O126 1.947 . S
Zn124 O133 1.973 1_565 S
Zn124 O134 1.901 1_565 S
O125 Zn122 1.919 1_554 S
O125 C136 1.226 . S
O126 Zn124 1.947 . S
O126 C136 1.307 . S
O127 Zn120 1.919 . S
O127 C138 1.253 1_545 S
O128 Zn122 1.971 . S
O128 C138 1.283 . S
O129 Zn122 1.967 . S
O129 C137 1.303 1_565 S
O130 Zn123 1.938 . S
O130 C137 1.247 1_554 S
O131 Zn123 1.906 . S
O131 C139 1.304 . S
O132 Zn120 1.924 1_554 S
O132 C140 1.311 . S
O133 Zn124 1.973 1_545 S
O133 C139 1.272 . S
O134 Zn124 1.901 1_545 S
O134 C140 1.231 . S
C135 O119 1.225 . S
C135 O141 1.298 1_556 S
C136 O125 1.226 . S
C136 O126 1.307 . S
C137 O129 1.303 1_545 S
C137 O130 1.247 1_556 S
C138 O127 1.253 1_565 S
C138 O128 1.283 . S
C139 O131 1.304 . S
C139 O133 1.272 . S
C140 O132 1.311 . S
C140 O134 1.231 . S
O141 Zn123 1.953 . S
O141 C135 1.298 1_554 S
O142 Zn143 1.953 . S
O142 C158 1.225 . S
Zn143 O142 1.953 . S
Zn143 O144 1.949 . S
Zn143 O150 1.919 . S
Zn143 O155 1.924 . S
O144 Zn143 1.949 . S
O144 Zn145 1.923 . S
O144 Zn146 1.950 . S
O144 Zn147 1.945 . S
Zn145 O144 1.923 . S
Zn145 O148 1.933 . S
Zn145 O151 1.941 . S
Zn145 O152 1.965 . S
Zn146 O144 1.950 . S
Zn146 O153 1.938 . S
Zn146 O154 1.906 . S
Zn146 O164 1.953 . S
Zn147 O144 1.945 . S
Zn147 O149 1.932 . S
Zn147 O156 1.977 . S
Zn147 O157 1.910 . S
O148 Zn145 1.933 . S
O148 C159 1.226 . S
O149 Zn147 1.932 . S
O149 C159 1.307 . S
O150 Zn143 1.919 . S
O150 C161 1.253 . S
O151 Zn145 1.941 . S
O151 C161 1.283 . S
O152 Zn145 1.965 . S
O152 C160 1.303 . S
O153 Zn146 1.938 . S
O153 C160 1.247 . S
O154 Zn146 1.906 . S
O154 C162 1.304 . S
O155 Zn143 1.924 . S
O155 C163 1.311 . S
O156 Zn147 1.977 . S
O156 C162 1.272 . S
O157 Zn147 1.910 . S
O157 C163 1.231 . S
C158 O142 1.225 . S
C158 O164 1.298 . S
C159 O148 1.226 . S
C159 O149 1.307 . S
C160 O152 1.303 . S
C160 O153 1.247 . S
C161 O150 1.253 . S
C161 O151 1.283 . S
C162 O154 1.304 . S
C162 O156 1.272 . S
C163 O155 1.311 . S
C163 O157 1.231 . S
O164 Zn146 1.953 . S
O164 C158 1.298 . S
O165 Zn166 1.953 . S
O165 C181 1.225 . S
Zn166 O165 1.953 . S
Zn166 O167 1.949 1_655 S
Zn166 O173 1.919 . S
Zn166 O178 1.924 . S
O167 Zn166 1.949 1_455 S
O167 Zn168 1.923 1_554 S
O167 Zn169 1.950 . S
O167 Zn170 1.945 1_554 S
Zn168 O167 1.923 1_556 S
Zn168 O171 1.933 . S
Zn168 O174 1.941 1_455 S
Zn168 O175 1.965 . S
Zn169 O167 1.950 . S
Zn169 O176 1.938 . S
Zn169 O177 1.906 . S
Zn169 O187 1.953 . S
Zn170 O167 1.945 1_556 S
Zn170 O172 1.932 . S
Zn170 O179 1.977 1_556 S
Zn170 O180 1.910 1_556 S
O171 Zn168 1.933 . S
O171 C182 1.226 . S
O172 Zn170 1.932 . S
O172 C182 1.307 . S
O173 Zn166 1.919 . S
O173 C184 1.253 1_554 S
O174 Zn168 1.941 1_655 S
O174 C184 1.283 . S
O175 Zn168 1.965 . S
O175 C183 1.303 . S
O176 Zn169 1.938 . S
O176 C183 1.247 1_554 S
O177 Zn169 1.906 . S
O177 C185 1.304 . S
O178 Zn166 1.924 . S
O178 C186 1.311 1_655 S
O179 Zn170 1.977 1_554 S
O179 C185 1.272 . S
O180 Zn170 1.910 1_554 S
O180 C186 1.231 . S
C181 O165 1.225 . S
C181 O187 1.298 1_655 S
C182 O171 1.226 . S
C182 O172 1.307 . S
C183 O175 1.303 . S
C183 O176 1.247 1_556 S
C184 O173 1.253 1_556 S
C184 O174 1.283 . S
C185 O177 1.304 . S
C185 O179 1.272 . S
C186 O178 1.311 1_455 S
C186 O180 1.231 . S
O187 Zn169 1.953 . S
O187 C181 1.298 1_455 S
H188 C196 0.950 . S
H189 C201 0.950 . S
H190 C198 0.950 . S
H191 C200 0.950 . S
H192 C202 0.950 . S
H193 C204 0.950 . S
H194 C206 0.950 . S
H195 C207 0.950 . S
C196 H188 0.950 . S
C196 C197 1.386 . S
C196 C198 1.391 . S
C197 C196 1.386 . S
C197 C201 1.393 . S
C198 H190 0.950 . S
C198 C196 1.391 . S
C198 C199 1.400 . S
C199 C198 1.400 . S
C199 C200 1.398 . S
C199 C205 1.491 . S
C200 H191 0.950 . S
C200 C199 1.398 . S
C200 C201 1.391 . S
C201 H189 0.950 . S
C201 C197 1.393 . S
C201 C200 1.391 . S
C202 H192 0.950 . S
C202 C203 1.386 . S
C202 C204 1.391 . S
C203 C202 1.386 . S
C203 C207 1.393 . S
C204 H193 0.950 . S
C204 C202 1.391 . S
C204 C205 1.400 . S
C205 C199 1.491 . S
C205 C204 1.400 . S
C205 C206 1.398 . S
C206 H194 0.950 . S
C206 C205 1.398 . S
C206 C207 1.391 . S
C207 H195 0.950 . S
C207 C203 1.393 . S
C207 C206 1.391 . S
H208 C216 0.950 . S
H209 C221 0.950 . S
H210 C218 0.950 . S
H211 C220 0.950 . S
H212 C222 0.921 1_545 S
H213 C224 0.950 . S
H214 C226 0.950 . S
H215 C227 0.950 . S
C216 H208 0.950 . S
C216 C217 1.386 . S
C216 C218 1.391 . S
C217 C216 1.386 . S
C217 C221 1.393 . S
C218 H210 0.950 . S
C218 C216 1.391 . S
C218 C219 1.400 . S
C219 C218 1.400 . S
C219 C220 1.398 . S
C219 C225 1.491 . S
C220 H211 0.950 . S
C220 C219 1.398 . S
C220 C221 1.391 . S
C221 H209 0.950 . S
C221 C217 1.393 . S
C221 C220 1.391 . S
C222 H212 0.921 1_565 S
C222 C223 1.386 . S
C222 C224 1.391 . S
C223 C222 1.386 . S
C223 C227 1.393 . S
C224 H213 0.950 . S
C224 C222 1.391 . S
C224 C225 1.400 . S
C225 C219 1.491 . S
C225 C224 1.400 . S
C225 C226 1.398 . S
C226 H214 0.950 . S
C226 C225 1.398 . S
C226 C227 1.391 . S
C227 H215 0.950 . S
C227 C223 1.393 . S
C227 C226 1.391 . S
H228 C236 0.950 . S
H229 C241 0.950 . S
H230 C238 0.950 . S
H231 C240 0.950 . S
H232 C242 0.950 . S
H233 C244 0.950 . S
H234 C246 0.950 . S
H235 C247 0.950 . S
C236 H228 0.950 . S
C236 C237 1.386 . S
C236 C238 1.391 . S
C237 C236 1.386 . S
C237 C241 1.393 . S
C238 H230 0.950 . S
C238 C236 1.391 . S
C238 C239 1.400 . S
C239 C238 1.400 . S
C239 C240 1.398 . S
C239 C245 1.491 . S
C240 H231 0.950 . S
C240 C239 1.398 . S
C240 C241 1.391 . S
C241 H229 0.950 . S
C241 C237 1.393 . S
C241 C240 1.391 . S
C242 H232 0.950 . S
C242 C243 1.386 . S
C242 C244 1.391 . S
C243 C242 1.386 . S
C243 C247 1.393 . S
C244 H233 0.950 . S
C244 C242 1.391 . S
C244 C245 1.400 . S
C245 C239 1.491 . S
C245 C244 1.400 . S
C245 C246 1.398 . S
C246 H234 0.950 . S
C246 C245 1.398 . S
C246 C247 1.391 . S
C247 H235 0.950 . S
C247 C243 1.393 . S
C247 C246 1.391 . S
H248 C256 0.950 . S
H249 C261 0.950 . S
H250 C258 0.950 . S
H251 C260 0.950 . S
H252 C262 0.950 . S
H253 C264 0.950 . S
H254 C266 0.950 1_455 S
H255 C267 0.954 . S
C256 H248 0.950 . S
C256 C257 1.386 . S
C256 C258 1.391 . S
C257 C256 1.386 . S
C257 C261 1.393 . S
C258 H250 0.950 . S
C258 C256 1.391 . S
C258 C259 1.400 . S
C259 C258 1.400 . S
C259 C260 1.398 . S
C259 C265 1.491 . S
C260 H251 0.950 . S
C260 C259 1.398 . S
C260 C261 1.391 . S
C261 H249 0.950 . S
C261 C257 1.393 . S
C261 C260 1.391 . S
C262 H252 0.950 . S
C262 C263 1.386 . S
C262 C264 1.391 . S
C263 C262 1.386 . S
C263 C267 1.389 1_655 S
C264 H253 0.950 . S
C264 C262 1.391 . S
C264 C265 1.400 . S
C265 C259 1.491 . S
C265 C264 1.400 . S
C265 C266 1.398 . S
C266 H254 0.950 1_655 S
C266 C265 1.398 . S
C266 C267 1.389 1_655 S
C267 H255 0.954 . S
C267 C263 1.389 1_455 S
C267 C266 1.389 1_455 S
H268 C276 0.950 . S
H269 C281 0.950 . S
H270 C278 0.950 . S
H271 C280 0.950 . S
H272 C282 0.950 . S
H273 C284 0.950 . S
H274 C286 0.950 . S
H275 C287 0.950 . S
C276 H268 0.950 . S
C276 C277 1.386 . S
C276 C278 1.391 . S
C277 C276 1.386 . S
C277 C281 1.393 . S
C278 H270 0.950 . S
C278 C276 1.391 . S
C278 C279 1.400 . S
C279 C278 1.400 . S
C279 C280 1.398 . S
C279 C285 1.491 . S
C280 H271 0.950 . S
C280 C279 1.398 . S
C280 C281 1.391 . S
C281 H269 0.950 . S
C281 C277 1.393 . S
C281 C280 1.391 . S
C282 H272 0.950 . S
C282 C283 1.386 . S
C282 C284 1.391 . S
C283 C282 1.386 . S
C283 C287 1.393 . S
C284 H273 0.950 . S
C284 C282 1.391 . S
C284 C285 1.400 . S
C285 C279 1.491 . S
C285 C284 1.400 . S
C285 C286 1.398 . S
C286 H274 0.950 . S
C286 C285 1.398 . S
C286 C287 1.391 . S
C287 H275 0.950 . S
C287 C283 1.393 . S
C287 C286 1.391 . S
H288 C296 0.950 . S
H289 C301 0.950 . S
H290 C298 0.950 . S
H291 C300 0.950 . S
H292 C302 0.928 1_545 S
H293 C304 0.950 . S
H294 C306 0.950 . S
H295 C307 0.950 . S
C296 H288 0.950 . S
C296 C297 1.386 . S
C296 C298 1.391 . S
C297 C296 1.386 . S
C297 C301 1.393 . S
C298 H290 0.950 . S
C298 C296 1.391 . S
C298 C299 1.400 . S
C299 C298 1.400 . S
C299 C300 1.398 . S
C299 C305 1.491 . S
C300 H291 0.950 . S
C300 C299 1.398 . S
C300 C301 1.391 . S
C301 H289 0.950 . S
C301 C297 1.393 . S
C301 C300 1.391 . S
C302 H292 0.928 1_565 S
C302 C303 1.386 . S
C302 C304 1.391 . S
C303 C302 1.386 . S
C303 C307 1.393 . S
C304 H293 0.950 . S
C304 C302 1.391 . S
C304 C305 1.400 . S
C305 C299 1.491 . S
C305 C304 1.400 . S
C305 C306 1.398 . S
C306 H294 0.950 . S
C306 C305 1.398 . S
C306 C307 1.391 . S
C307 H295 0.950 . S
C307 C303 1.393 . S
C307 C306 1.391 . S
H308 C316 0.950 . S
H309 C321 0.950 . S
H310 C318 0.950 . S
H311 C320 0.950 . S
H312 C322 0.950 1_554 S
H313 C324 0.950 . S
H314 C326 0.950 . S
H315 C327 0.950 . S
C316 H308 0.950 . S
C316 C317 1.386 . S
C316 C318 1.391 . S
C317 C316 1.386 . S
C317 C321 1.393 . S
C318 H310 0.950 . S
C318 C316 1.391 . S
C318 C319 1.400 . S
C319 C318 1.400 . S
C319 C320 1.398 . S
C319 C325 1.491 . S
C320 H311 0.950 . S
C320 C319 1.398 . S
C320 C321 1.391 . S
C321 H309 0.950 . S
C321 C317 1.393 . S
C321 C320 1.391 . S
C322 H312 0.950 1_556 S
C322 C323 1.386 . S
C322 C324 1.391 . S
C323 C322 1.386 . S
C323 C327 1.393 . S
C324 H313 0.950 . S
C324 C322 1.391 . S
C324 C325 1.400 . S
C325 C319 1.491 . S
C325 C324 1.400 . S
C325 C326 1.398 . S
C326 H314 0.950 . S
C326 C325 1.398 . S
C326 C327 1.391 . S
C327 H315 0.950 . S
C327 C323 1.393 . S
C327 C326 1.391 . S
H328 C336 0.950 . S
H329 C341 0.950 . S
H330 C338 0.950 . S
H331 C340 0.950 . S
H332 C342 0.950 . S
H333 C344 0.950 . S
H334 C346 0.950 . S
H335 C347 0.950 . S
C336 H328 0.950 . S
C336 C337 1.386 . S
C336 C338 1.391 . S
C337 C336 1.386 . S
C337 C341 1.393 . S
C338 H330 0.950 . S
C338 C336 1.391 . S
C338 C339 1.400 . S
C339 C338 1.400 . S
C339 C340 1.398 . S
C339 C345 1.491 . S
C340 H331 0.950 . S
C340 C339 1.398 . S
C340 C341 1.391 . S
C341 H329 0.950 . S
C341 C337 1.393 . S
C341 C340 1.391 . S
C342 H332 0.950 . S
C342 C343 1.386 . S
C342 C344 1.391 . S
C343 C342 1.386 . S
C343 C347 1.393 . S
C344 H333 0.950 . S
C344 C342 1.391 . S
C344 C345 1.400 . S
C345 C339 1.491 . S
C345 C344 1.400 . S
C345 C346 1.398 . S
C346 H334 0.950 . S
C346 C345 1.398 . S
C346 C347 1.391 . S
C347 H335 0.950 . S
C347 C343 1.393 . S
C347 C346 1.391 . S
H348 C356 0.950 . S
H349 C361 0.950 . S
H350 C358 0.950 . S
H351 C360 0.950 . S
H352 C362 0.950 . S
H353 C364 0.950 . S
H354 C366 0.950 . S
H355 C367 0.950 1_655 S
C356 H348 0.950 . S
C356 C357 1.386 . S
C356 C358 1.391 . S
C357 C356 1.386 . S
C357 C361 1.393 . S
C358 H350 0.950 . S
C358 C356 1.391 . S
C358 C359 1.400 . S
C359 C358 1.400 . S
C359 C360 1.398 . S
C359 C365 1.491 . S
C360 H351 0.950 . S
C360 C359 1.398 . S
C360 C361 1.391 . S
C361 H349 0.950 . S
C361 C357 1.393 . S
C361 C360 1.391 . S
C362 H352 0.950 . S
C362 C363 1.386 . S
C362 C364 1.391 . S
C363 C362 1.386 . S
C363 C367 1.393 . S
C364 H353 0.950 . S
C364 C362 1.391 . S
C364 C365 1.400 . S
C365 C359 1.491 . S
C365 C364 1.400 . S
C365 C366 1.398 . S
C366 H354 0.950 . S
C366 C365 1.398 . S
C366 C367 1.391 . S
C367 H355 0.950 1_455 S
C367 C363 1.393 . S
C367 C366 1.391 . S
H368 C376 0.950 . S
H369 C381 0.950 . S
H370 C378 0.950 . S
H371 C380 0.950 . S
H372 C382 0.950 . S
H373 C384 0.950 . S
H374 C386 0.950 . S
H375 C387 0.950 . S
C376 H368 0.950 . S
C376 C377 1.386 . S
C376 C378 1.391 . S
C377 C376 1.386 . S
C377 C381 1.393 . S
C378 H370 0.950 . S
C378 C376 1.391 . S
C378 C379 1.400 . S
C379 C378 1.400 . S
C379 C380 1.398 . S
C379 C385 1.491 . S
C380 H371 0.950 . S
C380 C379 1.398 . S
C380 C381 1.391 . S
C381 H369 0.950 . S
C381 C377 1.393 . S
C381 C380 1.391 . S
C382 H372 0.950 . S
C382 C383 1.386 . S
C382 C384 1.391 . S
C383 C382 1.386 . S
C383 C387 1.393 . S
C384 H373 0.950 . S
C384 C382 1.391 . S
C384 C385 1.400 . S
C385 C379 1.491 . S
C385 C384 1.400 . S
C385 C386 1.398 . S
C386 H374 0.950 . S
C386 C385 1.398 . S
C386 C387 1.391 . S
C387 H375 0.950 . S
C387 C383 1.393 . S
C387 C386 1.391 . S
H388 C396 0.950 . S
H389 C401 0.950 . S
H390 C398 0.950 . S
H391 C400 0.950 . S
H392 C402 0.950 . S
H393 C404 0.950 . S
H394 C406 0.950 . S
H395 C407 0.950 . S
C396 H388 0.950 . S
C396 C397 1.386 . S
C396 C398 1.391 . S
C397 C396 1.386 . S
C397 C401 1.393 . S
C398 H390 0.950 . S
C398 C396 1.391 . S
C398 C399 1.400 . S
C399 C398 1.400 . S
C399 C400 1.398 . S
C399 C405 1.491 . S
C400 H391 0.950 . S
C400 C399 1.398 . S
C400 C401 1.391 . S
C401 H389 0.950 . S
C401 C397 1.393 . S
C401 C400 1.391 . S
C402 H392 0.950 . S
C402 C403 1.386 . S
C402 C404 1.391 . S
C403 C402 1.386 . S
C403 C407 1.393 . S
C404 H393 0.950 . S
C404 C402 1.391 . S
C404 C405 1.400 . S
C405 C399 1.491 . S
C405 C404 1.400 . S
C405 C406 1.398 . S
C406 H394 0.950 . S
C406 C405 1.398 . S
C406 C407 1.391 . S
C407 H395 0.950 . S
C407 C403 1.393 . S
C407 C406 1.391 . S
H408 C416 0.950 . S
H409 C421 0.950 . S
H410 C418 0.950 . S
H411 C420 0.950 . S
H412 C422 0.950 . S
H413 C424 0.950 . S
H414 C426 0.950 . S
H415 C427 0.950 . S
C416 H408 0.950 . S
C416 C417 1.386 . S
C416 C418 1.391 . S
C417 C416 1.386 . S
C417 C421 1.393 . S
C418 H410 0.950 . S
C418 C416 1.391 . S
C418 C419 1.400 . S
C419 C418 1.400 . S
C419 C420 1.398 . S
C419 C425 1.491 . S
C420 H411 0.950 . S
C420 C419 1.398 . S
C420 C421 1.391 . S
C421 H409 0.950 . S
C421 C417 1.393 . S
C421 C420 1.391 . S
C422 H412 0.950 . S
C422 C423 1.386 . S
C422 C424 1.391 . S
C423 C422 1.386 . S
C423 C427 1.393 . S
C424 H413 0.950 . S
C424 C422 1.391 . S
C424 C425 1.400 . S
C425 C419 1.491 . S
C425 C424 1.400 . S
C425 C426 1.398 . S
C426 H414 0.950 . S
C426 C425 1.398 . S
C426 C427 1.391 . S
C427 H415 0.950 . S
C427 C423 1.393 . S
C427 C426 1.391 . S
H428 C436 0.950 . S
H429 C441 0.948 1_545 S
H430 C438 0.950 . S
H431 C440 0.950 . S
H432 C442 0.950 1_455 S
H433 C444 0.950 1_455 S
H434 C446 0.950 . S
H435 C447 0.950 . S
C436 H428 0.950 . S
C436 C437 1.386 . S
C436 C438 1.391 . S
C437 C436 1.386 . S
C437 C441 1.396 . S
C438 H430 0.950 . S
C438 C436 1.391 . S
C438 C439 1.400 . S
C439 C438 1.400 . S
C439 C440 1.398 1_565 S
C439 C445 1.491 . S
C440 H431 0.950 . S
C440 C439 1.398 1_545 S
C440 C441 1.390 1_545 S
C441 H429 0.948 1_565 S
C441 C437 1.396 . S
C441 C440 1.390 1_565 S
C442 H432 0.950 1_655 S
C442 C443 1.386 1_545 S
C442 C444 1.391 . S
C443 C442 1.386 1_565 S
C443 C447 1.393 . S
C444 H433 0.950 1_655 S
C444 C442 1.391 . S
C444 C445 1.400 1_545 S
C445 C439 1.491 . S
C445 C444 1.400 1_565 S
C445 C446 1.398 . S
C446 H434 0.950 . S
C446 C445 1.398 . S
C446 C447 1.391 . S
C447 H435 0.950 . S
C447 C443 1.393 . S
C447 C446 1.391 . S
H448 C456 0.950 . S
H449 C461 0.950 . S
H450 C458 0.950 . S
H451 C460 0.960 . S
H452 C462 0.950 1_565 S
H453 C464 0.950 1_565 S
H454 C466 0.950 . S
H455 C467 0.950 . S
C456 H448 0.950 . S
C456 C457 1.386 . S
C456 C458 1.391 . S
C457 C456 1.386 . S
C457 C461 1.393 . S
C458 H450 0.950 . S
C458 C456 1.391 . S
C458 C459 1.400 . S
C459 C458 1.400 . S
C459 C460 1.398 . S
C459 C465 1.491 . S
C460 H451 0.960 . S
C460 C459 1.398 . S
C460 C461 1.391 . S
C461 H449 0.950 . S
C461 C457 1.393 . S
C461 C460 1.391 . S
C462 H452 0.950 1_545 S
C462 C463 1.386 . S
C462 C464 1.391 . S
C463 C462 1.386 . S
C463 C467 1.393 . S
C464 H453 0.950 1_545 S
C464 C462 1.391 . S
C464 C465 1.400 . S
C465 C459 1.491 . S
C465 C464 1.400 . S
C465 C466 1.398 . S
C466 H454 0.950 . S
C466 C465 1.398 . S
C466 C467 1.391 . S
C467 H455 0.950 . S
C467 C463 1.393 . S
C467 C466 1.391 . S
H468 C476 0.950 . S
H469 C481 0.950 . S
H470 C478 0.950 . S
H471 C480 0.950 . S
H472 C482 0.950 . S
H473 C484 0.950 . S
H474 C486 0.950 . S
H475 C487 0.950 . S
C476 H468 0.950 . S
C476 C477 1.386 . S
C476 C478 1.391 . S
C477 C476 1.386 . S
C477 C481 1.393 . S
C478 H470 0.950 . S
C478 C476 1.391 . S
C478 C479 1.400 . S
C479 C478 1.400 . S
C479 C480 1.398 . S
C479 C485 1.491 . S
C480 H471 0.950 . S
C480 C479 1.398 . S
C480 C481 1.391 . S
C481 H469 0.950 . S
C481 C477 1.393 . S
C481 C480 1.391 . S
C482 H472 0.950 . S
C482 C483 1.386 . S
C482 C484 1.391 . S
C483 C482 1.386 . S
C483 C487 1.393 . S
C484 H473 0.950 . S
C484 C482 1.391 . S
C484 C485 1.400 . S
C485 C479 1.491 . S
C485 C484 1.400 . S
C485 C486 1.398 . S
C486 H474 0.950 . S
C486 C485 1.398 . S
C486 C487 1.391 . S
C487 H475 0.950 . S
C487 C483 1.393 . S
C487 C486 1.391 . S
H488 C496 0.950 . S
H489 C501 0.950 . S
H490 C498 0.950 . S
H491 C500 0.950 . S
H492 C502 0.950 . S
H493 C504 0.950 . S
H494 C506 0.950 . S
H495 C507 0.950 . S
C496 H488 0.950 . S
C496 C497 1.386 . S
C496 C498 1.391 . S
C497 C496 1.386 . S
C497 C501 1.393 . S
C498 H490 0.950 . S
C498 C496 1.391 . S
C498 C499 1.400 . S
C499 C498 1.400 . S
C499 C500 1.398 . S
C499 C505 1.491 . S
C500 H491 0.950 . S
C500 C499 1.398 . S
C500 C501 1.391 . S
C501 H489 0.950 . S
C501 C497 1.393 . S
C501 C500 1.391 . S
C502 H492 0.950 . S
C502 C503 1.386 . S
C502 C504 1.391 . S
C503 C502 1.386 . S
C503 C507 1.393 . S
C504 H493 0.950 . S
C504 C502 1.391 . S
C504 C505 1.400 . S
C505 C499 1.491 . S
C505 C504 1.400 . S
C505 C506 1.398 . S
C506 H494 0.950 . S
C506 C505 1.398 . S
C506 C507 1.391 . S
C507 H495 0.950 . S
C507 C503 1.393 . S
C507 C506 1.391 . S
H508 C516 0.950 . S
H509 C521 0.950 . S
H510 C518 0.950 . S
H511 C520 0.950 . S
H512 C522 0.950 . S
H513 C524 0.950 . S
H514 C526 0.950 1_554 S
H515 C527 0.951 1_554 S
C516 H508 0.950 . S
C516 C517 1.386 1_545 S
C516 C518 1.391 . S
C517 C516 1.386 1_565 S
C517 C521 1.393 . S
C518 H510 0.950 . S
C518 C516 1.391 . S
C518 C519 1.400 1_545 S
C519 C518 1.400 1_565 S
C519 C520 1.398 . S
C519 C525 1.491 . S
C520 H511 0.950 . S
C520 C519 1.398 . S
C520 C521 1.391 . S
C521 H509 0.950 . S
C521 C517 1.393 . S
C521 C520 1.391 . S
C522 H512 0.950 . S
C522 C523 1.373 1_565 S
C522 C524 1.391 . S
C523 C522 1.373 1_545 S
C523 C527 1.399 . S
C524 H513 0.950 . S
C524 C522 1.391 . S
C524 C525 1.400 . S
C525 C519 1.491 . S
C525 C524 1.400 . S
C525 C526 1.398 1_565 S
C526 H514 0.950 1_556 S
C526 C525 1.398 1_545 S
C526 C527 1.391 . S
C527 H515 0.951 1_556 S
C527 C523 1.399 . S
C527 C526 1.391 . S
H528 C536 0.950 . S
H529 C541 0.950 . S
H530 C538 0.950 . S
H531 C540 0.950 . S
H532 C542 0.950 . S
H533 C544 0.950 . S
H534 C546 0.950 . S
H535 C547 0.950 1_565 S
C536 H528 0.950 . S
C536 C537 1.386 . S
C536 C538 1.391 . S
C537 C536 1.386 . S
C537 C541 1.393 . S
C538 H530 0.950 . S
C538 C536 1.391 . S
C538 C539 1.400 . S
C539 C538 1.400 . S
C539 C540 1.398 . S
C539 C545 1.491 . S
C540 H531 0.950 . S
C540 C539 1.398 . S
C540 C541 1.391 . S
C541 H529 0.950 . S
C541 C537 1.393 . S
C541 C540 1.391 . S
C542 H532 0.950 . S
C542 C543 1.386 . S
C542 C544 1.391 . S
C543 C542 1.386 . S
C543 C547 1.393 . S
C544 H533 0.950 . S
C544 C542 1.391 . S
C544 C545 1.400 . S
C545 C539 1.491 . S
C545 C544 1.400 . S
C545 C546 1.398 . S
C546 H534 0.950 . S
C546 C545 1.398 . S
C546 C547 1.391 . S
C547 H535 0.950 1_545 S
C547 C543 1.393 . S
C547 C546 1.391 . S
H548 C556 0.950 . S
H549 C561 0.950 . S
H550 C558 0.950 . S
H551 C560 0.950 . S
H552 C562 0.950 . S
H553 C564 0.950 . S
H554 C566 0.950 . S
H555 C567 0.950 . S
C556 H548 0.950 . S
C556 C557 1.386 . S
C556 C558 1.391 . S
C557 C556 1.386 . S
C557 C561 1.393 . S
C558 H550 0.950 . S
C558 C556 1.391 . S
C558 C559 1.400 . S
C559 C558 1.400 . S
C559 C560 1.398 . S
C559 C565 1.491 . S
C560 H551 0.950 . S
C560 C559 1.398 . S
C560 C561 1.391 . S
C561 H549 0.950 . S
C561 C557 1.393 . S
C561 C560 1.391 . S
C562 H552 0.950 . S
C562 C563 1.386 . S
C562 C564 1.391 . S
C563 C562 1.386 . S
C563 C567 1.393 . S
C564 H553 0.950 . S
C564 C562 1.391 . S
C564 C565 1.400 . S
C565 C559 1.491 . S
C565 C564 1.400 . S
C565 C566 1.398 . S
C566 H554 0.950 . S
C566 C565 1.398 . S
C566 C567 1.391 . S
C567 H555 0.950 . S
C567 C563 1.393 . S
C567 C566 1.391 . S
H568 C576 0.950 . S
H569 C581 0.950 . S
H570 C578 0.950 . S
H571 C580 0.950 . S
H572 C582 0.950 . S
H573 C584 0.950 . S
H574 C586 0.950 . S
H575 C587 0.950 . S
C576 H568 0.950 . S
C576 C577 1.386 . S
C576 C578 1.391 . S
C577 C576 1.386 . S
C577 C581 1.393 . S
C578 H570 0.950 . S
C578 C576 1.391 . S
C578 C579 1.400 . S
C579 C578 1.400 . S
C579 C580 1.398 . S
C579 C585 1.491 . S
C580 H571 0.950 . S
C580 C579 1.398 . S
C580 C581 1.391 . S
C581 H569 0.950 . S
C581 C577 1.393 . S
C581 C580 1.391 . S
C582 H572 0.950 . S
C582 C583 1.386 . S
C582 C584 1.391 . S
C583 C582 1.386 . S
C583 C587 1.393 . S
C584 H573 0.950 . S
C584 C582 1.391 . S
C584 C585 1.400 . S
C585 C579 1.491 . S
C585 C584 1.400 . S
C585 C586 1.398 . S
C586 H574 0.950 . S
C586 C585 1.398 . S
C586 C587 1.391 . S
C587 H575 0.950 . S
C587 C583 1.393 . S
C587 C586 1.391 . S
H588 C596 0.950 1_455 S
H589 C601 0.950 . S
H590 C598 0.941 1_455 S
H591 C600 0.950 . S
H592 C602 0.950 . S
H593 C604 0.950 . S
H594 C606 0.950 . S
H595 C607 0.950 . S
C596 H588 0.950 1_655 S
C596 C597 1.386 . S
C596 C598 1.394 . S
C597 C596 1.386 . S
C597 C601 1.393 . S
C598 H590 0.941 1_655 S
C598 C596 1.394 . S
C598 C599 1.406 . S
C599 C598 1.406 . S
C599 C600 1.398 . S
C599 C605 1.491 . S
C600 H591 0.950 . S
C600 C599 1.398 . S
C600 C601 1.391 . S
C601 H589 0.950 . S
C601 C597 1.393 . S
C601 C600 1.391 . S
C602 H592 0.950 . S
C602 C603 1.386 . S
C602 C604 1.391 . S
C603 C602 1.386 . S
C603 C607 1.393 1_655 S
C604 H593 0.950 . S
C604 C602 1.391 . S
C604 C605 1.400 . S
C605 C599 1.491 . S
C605 C604 1.400 . S
C605 C606 1.398 1_655 S
C606 H594 0.950 . S
C606 C605 1.398 1_455 S
C606 C607 1.391 . S
C607 H595 0.950 . S
C607 C603 1.393 1_455 S
C607 C606 1.391 . S
H608 C616 0.950 . S
H609 C621 0.950 . S
H610 C618 0.950 . S
H611 C620 0.950 . S
H612 C622 0.950 . S
H613 C624 0.950 . S
H614 C626 0.950 . S
H615 C627 0.950 . S
C616 H608 0.950 . S
C616 C617 1.386 . S
C616 C618 1.391 . S
C617 C616 1.386 . S
C617 C621 1.393 . S
C618 H610 0.950 . S
C618 C616 1.391 . S
C618 C619 1.400 . S
C619 C618 1.400 . S
C619 C620 1.398 . S
C619 C625 1.491 . S
C620 H611 0.950 . S
C620 C619 1.398 . S
C620 C621 1.391 . S
C621 H609 0.950 . S
C621 C617 1.393 . S
C621 C620 1.391 . S
C622 H612 0.950 . S
C622 C623 1.386 . S
C622 C624 1.391 . S
C623 C622 1.386 . S
C623 C627 1.393 . S
C624 H613 0.950 . S
C624 C622 1.391 . S
C624 C625 1.400 . S
C625 C619 1.491 . S
C625 C624 1.400 . S
C625 C626 1.398 . S
C626 H614 0.950 . S
C626 C625 1.398 . S
C626 C627 1.391 . S
C627 H615 0.950 . S
C627 C623 1.393 . S
C627 C626 1.391 . S
H628 C636 0.950 . S
H629 C641 0.950 . S
H630 C638 0.950 . S
H631 C640 0.950 . S
H632 C642 0.950 . S
H633 C644 0.950 . S
H634 C646 0.950 . S
H635 C647 0.950 . S
C636 H628 0.950 . S
C636 C637 1.386 . S
C636 C638 1.391 . S
C637 C636 1.386 . S
C637 C641 1.393 . S
C638 H630 0.950 . S
C638 C636 1.391 . S
C638 C639 1.400 . S
C639 C638 1.400 . S
C639 C640 1.398 . S
C639 C645 1.491 . S
C640 H631 0.950 . S
C640 C639 1.398 . S
C640 C641 1.391 . S
C641 H629 0.950 . S
C641 C637 1.393 . S
C641 C640 1.391 . S
C642 H632 0.950 . S
C642 C643 1.386 . S
C642 C644 1.391 . S
C643 C642 1.386 . S
C643 C647 1.393 . S
C644 H633 0.950 . S
C644 C642 1.391 . S
C644 C645 1.400 . S
C645 C639 1.491 . S
C645 C644 1.400 . S
C645 C646 1.398 . S
C646 H634 0.950 . S
C646 C645 1.398 . S
C646 C647 1.391 . S
C647 H635 0.950 . S
C647 C643 1.393 . S
C647 C646 1.391 . S
H648 C656 0.950 . S
H649 C661 0.950 . S
H650 C658 0.950 . S
H651 C660 0.950 . S
H652 C662 0.950 . S
H653 C664 0.950 . S
H654 C666 0.950 . S
H655 C667 0.950 . S
C656 H648 0.950 . S
C656 C657 1.386 . S
C656 C658 1.391 . S
C657 C656 1.386 . S
C657 C661 1.393 . S
C658 H650 0.950 . S
C658 C656 1.391 . S
C658 C659 1.400 . S
C659 C658 1.400 . S
C659 C660 1.398 . S
C659 C665 1.491 . S
C660 H651 0.950 . S
C660 C659 1.398 . S
C660 C661 1.391 . S
C661 H649 0.950 . S
C661 C657 1.393 . S
C661 C660 1.391 . S
C662 H652 0.950 . S
C662 C663 1.386 . S
C662 C664 1.391 . S
C663 C662 1.386 . S
C663 C667 1.393 . S
C664 H653 0.950 . S
C664 C662 1.391 . S
C664 C665 1.400 . S
C665 C659 1.491 . S
C665 C664 1.400 . S
C665 C666 1.398 . S
C666 H654 0.950 . S
C666 C665 1.398 . S
C666 C667 1.391 . S
C667 H655 0.950 . S
C667 C663 1.393 . S
C667 C666 1.391 . S
C197 C6 1.763 . S
C203 C114 1.724 . S
C217 C18 1.871 . S
C223 C138 1.845 . S
C243 C158 1.436 . S
C237 C28 1.424 . S
C257 C40 0.948 . S
C263 C181 0.954 . S
C283 C140 1.929 . S
C277 C9 1.964 . S
C303 C116 1.620 . S
C297 C16 1.655 . S
C323 C184 1.562 . S
C317 C30 1.606 . S
C343 C161 1.269 . S
C337 C42 1.301 . S
C357 C4 1.417 . S
C363 C186 1.385 . S
C383 C135 1.667 . S
C377 C33 1.663 . S
C397 C45 1.376 . S
C403 C113 1.379 . S
C417 C21 1.659 . S
C423 C163 1.619 . S
C443 C117 1.828 . S
C437 C57 1.822 . S
C457 C66 1.830 . S
C463 C139 1.809 . S
C477 C76 1.747 . S
C483 C159 1.765 . S
C497 C88 1.168 . S
C503 C182 1.200 . S
C517 C54 1.770 . S
C523 C137 1.729 . S
C543 C115 1.542 . S
C537 C64 1.548 . S
C563 C185 1.348 . S
C557 C78 1.401 . S
C583 C162 1.220 . S
C577 C93 1.244 . S
C597 C52 1.673 . S
C603 C183 1.663 1_655 S
C623 C136 1.570 . S
C617 C81 1.535 . S
C643 C112 1.338 . S
C637 C90 1.329 . S
C657 C69 2.001 . S
C663 C160 1.985 . S
