# Generated by pormake.
# Topology llk, (3,12)-cn, num edge types: 1
# Building blocks:
#     Node 0, Type 0, BuildingBlock: BETDAH_clean_linker_0, # of connection points: 3
#     Node 1, Type 0, BuildingBlock: BETDAH_clean_linker_0, # of connection points: 3
#     Node 2, Type 0, BuildingBlock: BETDAH_clean_linker_0, # of connection points: 3
#     Node 3, Type 0, BuildingBlock: BETDAH_clean_linker_0, # of connection points: 3
#     Node 4, Type 0, BuildingBlock: BETDAH_clean_linker_0, # of connection points: 3
#     Node 5, Type 0, BuildingBlock: BETDAH_clean_linker_0, # of connection points: 3
#     Node 6, Type 0, BuildingBlock: BETDAH_clean_linker_0, # of connection points: 3
#     Node 7, Type 0, BuildingBlock: BETDAH_clean_linker_0, # of connection points: 3
#     Node 8, Type 0, BuildingBlock: BETDAH_clean_linker_0, # of connection points: 3
#     Node 9, Type 0, BuildingBlock: BETDAH_clean_linker_0, # of connection points: 3
#     Node 10, Type 0, BuildingBlock: BETDAH_clean_linker_0, # of connection points: 3
#     Node 11, Type 0, BuildingBlock: BETDAH_clean_linker_0, # of connection points: 3
#     Node 12, Type 0, BuildingBlock: BETDAH_clean_linker_0, # of connection points: 3
#     Node 13, Type 0, BuildingBlock: BETDAH_clean_linker_0, # of connection points: 3
#     Node 14, Type 0, BuildingBlock: BETDAH_clean_linker_0, # of connection points: 3
#     Node 15, Type 0, BuildingBlock: BETDAH_clean_linker_0, # of connection points: 3
#     Node 16, Type 0, BuildingBlock: BETDAH_clean_linker_0, # of connection points: 3
#     Node 17, Type 0, BuildingBlock: BETDAH_clean_linker_0, # of connection points: 3
#     Node 18, Type 0, BuildingBlock: BETDAH_clean_linker_0, # of connection points: 3
#     Node 19, Type 0, BuildingBlock: BETDAH_clean_linker_0, # of connection points: 3
#     Node 20, Type 0, BuildingBlock: BETDAH_clean_linker_0, # of connection points: 3
#     Node 21, Type 0, BuildingBlock: BETDAH_clean_linker_0, # of connection points: 3
#     Node 22, Type 0, BuildingBlock: BETDAH_clean_linker_0, # of connection points: 3
#     Node 23, Type 0, BuildingBlock: BETDAH_clean_linker_0, # of connection points: 3
#     Node 24, Type 1, BuildingBlock: EZIPEK_clean_sbu_0, # of connection points: 12
#     Node 25, Type 1, BuildingBlock: EZIPEK_clean_sbu_0, # of connection points: 12
#     Node 26, Type 1, BuildingBlock: EZIPEK_clean_sbu_0, # of connection points: 12
#     Node 27, Type 1, BuildingBlock: EZIPEK_clean_sbu_0, # of connection points: 12
#     Node 28, Type 1, BuildingBlock: EZIPEK_clean_sbu_0, # of connection points: 12
#     Node 29, Type 1, BuildingBlock: EZIPEK_clean_sbu_0, # of connection points: 12
#     Edge 30, Type (0, 1), BuildingBlock: OJICUG_clean_linker_0, # of connection points: 2
#     Edge 31, Type (0, 1), BuildingBlock: OJICUG_clean_linker_0, # of connection points: 2
#     Edge 32, Type (0, 1), BuildingBlock: OJICUG_clean_linker_0, # of connection points: 2
#     Edge 33, Type (0, 1), BuildingBlock: OJICUG_clean_linker_0, # of connection points: 2
#     Edge 34, Type (0, 1), BuildingBlock: OJICUG_clean_linker_0, # of connection points: 2
#     Edge 35, Type (0, 1), BuildingBlock: OJICUG_clean_linker_0, # of connection points: 2
#     Edge 36, Type (0, 1), BuildingBlock: OJICUG_clean_linker_0, # of connection points: 2
#     Edge 37, Type (0, 1), BuildingBlock: OJICUG_clean_linker_0, # of connection points: 2
#     Edge 38, Type (0, 1), BuildingBlock: OJICUG_clean_linker_0, # of connection points: 2
#     Edge 39, Type (0, 1), BuildingBlock: OJICUG_clean_linker_0, # of connection points: 2
#     Edge 40, Type (0, 1), BuildingBlock: OJICUG_clean_linker_0, # of connection points: 2
#     Edge 41, Type (0, 1), BuildingBlock: OJICUG_clean_linker_0, # of connection points: 2
#     Edge 42, Type (0, 1), BuildingBlock: OJICUG_clean_linker_0, # of connection points: 2
#     Edge 43, Type (0, 1), BuildingBlock: OJICUG_clean_linker_0, # of connection points: 2
#     Edge 44, Type (0, 1), BuildingBlock: OJICUG_clean_linker_0, # of connection points: 2
#     Edge 45, Type (0, 1), BuildingBlock: OJICUG_clean_linker_0, # of connection points: 2
#     Edge 46, Type (0, 1), BuildingBlock: OJICUG_clean_linker_0, # of connection points: 2
#     Edge 47, Type (0, 1), BuildingBlock: OJICUG_clean_linker_0, # of connection points: 2
#     Edge 48, Type (0, 1), BuildingBlock: OJICUG_clean_linker_0, # of connection points: 2
#     Edge 49, Type (0, 1), BuildingBlock: OJICUG_clean_linker_0, # of connection points: 2
#     Edge 50, Type (0, 1), BuildingBlock: OJICUG_clean_linker_0, # of connection points: 2
#     Edge 51, Type (0, 1), BuildingBlock: OJICUG_clean_linker_0, # of connection points: 2
#     Edge 52, Type (0, 1), BuildingBlock: OJICUG_clean_linker_0, # of connection points: 2
#     Edge 53, Type (0, 1), BuildingBlock: OJICUG_clean_linker_0, # of connection points: 2
#     Edge 54, Type (0, 1), BuildingBlock: OJICUG_clean_linker_0, # of connection points: 2
#     Edge 55, Type (0, 1), BuildingBlock: OJICUG_clean_linker_0, # of connection points: 2
#     Edge 56, Type (0, 1), BuildingBlock: OJICUG_clean_linker_0, # of connection points: 2
#     Edge 57, Type (0, 1), BuildingBlock: OJICUG_clean_linker_0, # of connection points: 2
#     Edge 58, Type (0, 1), BuildingBlock: OJICUG_clean_linker_0, # of connection points: 2
#     Edge 59, Type (0, 1), BuildingBlock: OJICUG_clean_linker_0, # of connection points: 2
#     Edge 60, Type (0, 1), BuildingBlock: OJICUG_clean_linker_0, # of connection points: 2
#     Edge 61, Type (0, 1), BuildingBlock: OJICUG_clean_linker_0, # of connection points: 2
#     Edge 62, Type (0, 1), BuildingBlock: OJICUG_clean_linker_0, # of connection points: 2
#     Edge 63, Type (0, 1), BuildingBlock: OJICUG_clean_linker_0, # of connection points: 2
#     Edge 64, Type (0, 1), BuildingBlock: OJICUG_clean_linker_0, # of connection points: 2
#     Edge 65, Type (0, 1), BuildingBlock: OJICUG_clean_linker_0, # of connection points: 2
#     Edge 66, Type (0, 1), BuildingBlock: OJICUG_clean_linker_0, # of connection points: 2
#     Edge 67, Type (0, 1), BuildingBlock: OJICUG_clean_linker_0, # of connection points: 2
#     Edge 68, Type (0, 1), BuildingBlock: OJICUG_clean_linker_0, # of connection points: 2
#     Edge 69, Type (0, 1), BuildingBlock: OJICUG_clean_linker_0, # of connection points: 2
#     Edge 70, Type (0, 1), BuildingBlock: OJICUG_clean_linker_0, # of connection points: 2
#     Edge 71, Type (0, 1), BuildingBlock: OJICUG_clean_linker_0, # of connection points: 2
#     Edge 72, Type (0, 1), BuildingBlock: OJICUG_clean_linker_0, # of connection points: 2
#     Edge 73, Type (0, 1), BuildingBlock: OJICUG_clean_linker_0, # of connection points: 2
#     Edge 74, Type (0, 1), BuildingBlock: OJICUG_clean_linker_0, # of connection points: 2
#     Edge 75, Type (0, 1), BuildingBlock: OJICUG_clean_linker_0, # of connection points: 2
#     Edge 76, Type (0, 1), BuildingBlock: OJICUG_clean_linker_0, # of connection points: 2
#     Edge 77, Type (0, 1), BuildingBlock: OJICUG_clean_linker_0, # of connection points: 2
#     Edge 78, Type (0, 1), BuildingBlock: OJICUG_clean_linker_0, # of connection points: 2
#     Edge 79, Type (0, 1), BuildingBlock: OJICUG_clean_linker_0, # of connection points: 2
#     Edge 80, Type (0, 1), BuildingBlock: OJICUG_clean_linker_0, # of connection points: 2
#     Edge 81, Type (0, 1), BuildingBlock: OJICUG_clean_linker_0, # of connection points: 2
#     Edge 82, Type (0, 1), BuildingBlock: OJICUG_clean_linker_0, # of connection points: 2
#     Edge 83, Type (0, 1), BuildingBlock: OJICUG_clean_linker_0, # of connection points: 2
#     Edge 84, Type (0, 1), BuildingBlock: OJICUG_clean_linker_0, # of connection points: 2
#     Edge 85, Type (0, 1), BuildingBlock: OJICUG_clean_linker_0, # of connection points: 2
#     Edge 86, Type (0, 1), BuildingBlock: OJICUG_clean_linker_0, # of connection points: 2
#     Edge 87, Type (0, 1), BuildingBlock: OJICUG_clean_linker_0, # of connection points: 2
#     Edge 88, Type (0, 1), BuildingBlock: OJICUG_clean_linker_0, # of connection points: 2
#     Edge 89, Type (0, 1), BuildingBlock: OJICUG_clean_linker_0, # of connection points: 2
#     Edge 90, Type (0, 1), BuildingBlock: OJICUG_clean_linker_0, # of connection points: 2
#     Edge 91, Type (0, 1), BuildingBlock: OJICUG_clean_linker_0, # of connection points: 2
#     Edge 92, Type (0, 1), BuildingBlock: OJICUG_clean_linker_0, # of connection points: 2
#     Edge 93, Type (0, 1), BuildingBlock: OJICUG_clean_linker_0, # of connection points: 2
#     Edge 94, Type (0, 1), BuildingBlock: OJICUG_clean_linker_0, # of connection points: 2
#     Edge 95, Type (0, 1), BuildingBlock: OJICUG_clean_linker_0, # of connection points: 2
#     Edge 96, Type (0, 1), BuildingBlock: OJICUG_clean_linker_0, # of connection points: 2
#     Edge 97, Type (0, 1), BuildingBlock: OJICUG_clean_linker_0, # of connection points: 2
#     Edge 98, Type (0, 1), BuildingBlock: OJICUG_clean_linker_0, # of connection points: 2
#     Edge 99, Type (0, 1), BuildingBlock: OJICUG_clean_linker_0, # of connection points: 2
#     Edge 100, Type (0, 1), BuildingBlock: OJICUG_clean_linker_0, # of connection points: 2
#     Edge 101, Type (0, 1), BuildingBlock: OJICUG_clean_linker_0, # of connection points: 2
# Relax obj value: 0.071
# Max RMSD: 0.165
# Mean RMSD: 0.122
data_MOF--net-llk--node1-EZIPEK_clean_sbu_0--node2-BETDAH_clean_linker_0--edge1-OJICUG_clean_linker_0
_symmetry_space_group_name_H-M    P1
_symmetry_Int_Tables_number       1
_symmetry_cell_setting            triclinic
loop_
_symmetry_equiv_pos_as_xyz
'x, y, z'
_cell_length_a     35.743678
_cell_length_b     35.900691
_cell_length_c     36.079784
_cell_angle_alpha  89.944936
_cell_angle_beta   89.985302
_cell_angle_gamma 90.016317
loop_
_atom_site_label
_atom_site_type_symbol
_atom_site_fract_x
_atom_site_fract_y
_atom_site_fract_z
_atom_type_partial_charge
H0 H 0.01905 0.25297 0.37009 0.0
H1 H 0.02147 0.31381 0.26801 0.0
H2 H 0.02029 0.19361 0.26674 0.0
C3 C 0.02048 0.25301 0.34008 0.0
C4 C 0.02124 0.21904 0.32112 0.0
C5 C 0.02163 0.28709 0.32132 0.0
C6 C 0.02066 0.28743 0.28249 0.0
C7 C 0.0195 0.25371 0.26255 0.0
C8 C 0.02008 0.21955 0.28205 0.0
N9 N 0.01846 0.25327 0.22307 0.0
C10 C 0.01792 0.28507 0.20073 0.0
H11 H 0.65379 0.0062 0.26142 0.0
H12 H 0.75735 0.00569 0.32081 0.0
H13 H 0.75771 1.00165 0.20138 0.0
C14 C 0.68412 0.00631 0.26108 0.0
C15 C 0.70305 0.00537 0.22705 0.0
C16 C 0.70345 0.00718 0.2948 0.0
C17 C 0.74251 0.00486 0.2947 0.0
C18 C 0.76226 0.0022 0.26106 0.0
C19 C 0.7424 0.00266 0.22728 0.0
N20 N 0.80197 0.99963 0.2605 0.0
C21 C 0.82413 1.00048 0.29232 0.0
H22 H 0.0124 0.64079 0.26153 0.0
H23 H 0.00902 0.74337 0.32163 0.0
H24 H 0.00981 0.74459 0.20206 0.0
C25 C 0.01072 0.67094 0.26141 0.0
C26 C 0.00964 0.68994 0.22753 0.0
C27 C 0.00948 0.68987 0.29524 0.0
C28 C 0.00998 0.72884 0.29542 0.0
C29 C 0.01077 0.74885 0.26185 0.0
C30 C 0.01033 0.72923 0.22791 0.0
N31 N 0.01122 0.78852 0.26146 0.0
C32 C 0.01168 0.81066 0.29329 0.0
H33 H 0.26591 0.99932 0.36993 0.0
H34 H 0.32667 0.00345 0.2678 0.0
H35 H 0.20598 0.0039 0.26677 0.0
C36 C 0.26586 1.00122 0.33994 0.0
C37 C 0.2317 0.00299 0.32105 0.0
C38 C 0.30005 0.00262 0.32112 0.0
C39 C 0.30022 0.00243 0.28232 0.0
C40 C 0.26625 0.00212 0.26249 0.0
C41 C 0.23206 0.00275 0.28202 0.0
N42 N 0.2656 0.00228 0.22307 0.0
C43 C 0.29754 0.00194 0.20087 0.0
H44 H 0.01716 0.75072 0.64994 0.0
H45 H 0.01128 0.69034 0.75229 0.0
H46 H 0.02667 0.80956 0.75311 0.0
C47 C 0.0177 0.75059 0.67996 0.0
C48 C 0.02249 0.78429 0.69884 0.0
C49 C 0.01338 0.71676 0.69886 0.0
C50 C 0.01466 0.71646 0.73769 0.0
C51 C 0.01957 0.74989 0.75752 0.0
C52 C 0.023 0.78381 0.73791 0.0
N53 N 0.02117 0.75023 0.79697 0.0
C54 C 0.0193 0.71845 0.81929 0.0
H55 H 0.26195 0.00383 0.64933 0.0
H56 H 0.32613 0.99963 0.74948 0.0
H57 H 0.20558 0.99828 0.7544 0.0
C58 C 0.26302 0.00192 0.6793 0.0
C59 C 0.22951 0.99979 0.69934 0.0
C60 C 0.29787 1.00088 0.697 0.0
C61 C 0.29924 1.00064 0.73577 0.0
C62 C 0.26599 1.00044 0.75671 0.0
C63 C 0.23114 0.99976 0.73833 0.0
N64 N 0.26685 0.99974 0.7961 0.0
C65 C 0.29968 1.00067 0.817 0.0
H66 H 0.01485 0.36211 0.75819 0.0
H67 H 0.00961 0.25982 0.69775 0.0
H68 H 0.01048 0.25816 0.81737 0.0
C69 C 0.01273 0.33198 0.75826 0.0
C70 C 0.01128 0.31292 0.79209 0.0
C71 C 0.01106 0.31318 0.72438 0.0
C72 C 0.0109 0.27421 0.72403 0.0
C73 C 0.01137 0.25406 0.75752 0.0
C74 C 0.0113 0.2736 0.79157 0.0
N75 N 0.011 0.21437 0.75769 0.0
C76 C 0.01065 0.1923 0.72577 0.0
H77 H 0.76307 1.0017 0.65124 0.0
H78 H 0.70236 0.00282 0.75341 0.0
H79 H 0.82314 0.00185 0.75441 0.0
C80 C 0.76317 0.00265 0.68128 0.0
C81 C 0.79731 0.00325 0.70017 0.0
C82 C 0.72906 0.00343 0.70018 0.0
C83 C 0.72885 0.00221 0.73893 0.0
C84 C 0.76278 1.00104 0.75876 0.0
C85 C 0.79701 1.00173 0.7392 0.0
N86 N 0.76328 0.99993 0.79819 0.0
C87 C 0.7312 1.00052 0.82024 0.0
H88 H 0.37354 0.24943 0.00558 0.0
H89 H 0.27186 0.31233 0.00804 0.0
H90 H 0.26792 0.19224 0.00813 0.0
C91 C 0.34324 0.25019 0.00679 0.0
C92 C 0.32322 0.21667 0.00799 0.0
C93 C 0.32503 0.28466 0.00773 0.0
C94 C 0.28591 0.28566 0.00719 0.0
C95 C 0.2651 0.25232 0.00671 0.0
C96 C 0.28391 0.21787 0.0073 0.0
N97 N 0.22536 0.25272 0.00673 0.0
C98 C 0.20429 0.28532 0.00578 0.0
H99 H 0.37375 0.7507 0.01265 0.0
H100 H 0.27065 0.69018 0.00951 0.0
H101 H 0.26952 0.81025 0.00677 0.0
C102 C 0.34343 0.75073 0.01208 0.0
C103 C 0.3242 0.78474 0.01108 0.0
C104 C 0.32433 0.71668 0.01215 0.0
C105 C 0.28532 0.71654 0.00926 0.0
C106 C 0.26539 0.75028 0.00679 0.0
C107 C 0.28497 0.7843 0.00775 0.0
N108 N 0.22574 0.75072 1.00399 0.0
C109 C 0.20381 0.7187 0.00591 0.0
H110 H 0.76615 0.36111 0.99901 0.0
H111 H 0.70272 0.26005 0.00451 0.0
H112 H 0.82335 0.2561 0.00554 0.0
C113 C 0.76529 0.33098 1.00109 0.0
C114 C 0.7989 0.31112 1.00342 0.0
C115 C 0.73062 0.31297 1.00267 0.0
C116 C 0.72952 0.27399 1.00321 0.0
C117 C 0.763 0.25324 1.00348 0.0
C118 C 0.79764 0.27199 1.00384 0.0
N119 N 0.76264 0.21369 0.00476 0.0
C120 C 0.73007 0.19239 0.00509 0.0
H121 H 0.76333 0.64176 0.01992 0.0
H122 H 0.70213 0.74415 0.01806 0.0
H123 H 0.82281 0.74584 0.01905 0.0
C124 C 0.76323 0.67195 0.01904 0.0
C125 C 0.79731 0.69119 0.01809 0.0
C126 C 0.72897 0.69074 0.01795 0.0
C127 C 0.72865 0.72969 0.01904 0.0
C128 C 0.76251 0.74976 0.02025 0.0
C129 C 0.79679 0.73036 0.01955 0.0
N130 N 0.76287 0.78934 0.02102 0.0
C131 C 0.73071 0.81116 0.01889 0.0
H132 H 0.51224 0.75319 0.86985 0.0
H133 H 0.51033 0.81358 0.76752 0.0
H134 H 0.51083 0.69335 0.76679 0.0
C135 C 0.5109 0.75309 0.83983 0.0
C136 C 0.50997 0.71905 0.82104 0.0
C137 C 0.50997 0.78708 0.82091 0.0
C138 C 0.51097 0.78725 0.78209 0.0
C139 C 0.51192 0.75344 0.7623 0.0
C140 C 0.51117 0.71936 0.78196 0.0
N141 N 0.51289 0.75283 0.72282 0.0
C142 C 0.51328 0.78455 0.70034 0.0
H143 H 0.15396 0.50645 0.76101 0.0
H144 H 0.25718 0.50609 0.82103 0.0
H145 H 0.25824 0.50378 0.70156 0.0
C146 C 0.18429 0.50684 0.76089 0.0
C147 C 0.20344 0.5066 0.72699 0.0
C148 C 0.2034 0.50742 0.79474 0.0
C149 C 0.24249 0.50547 0.79484 0.0
C150 C 0.26245 0.50349 0.76126 0.0
C151 C 0.24279 0.50426 0.72739 0.0
N152 N 0.30218 0.50134 0.76081 0.0
C153 C 0.32422 0.50195 0.79269 0.0
H154 H 0.51151 0.14063 0.76204 0.0
H155 H 0.50876 0.24374 0.82156 0.0
H156 H 0.52483 0.24392 0.70307 0.0
C157 C 0.51298 0.17077 0.76195 0.0
C158 C 0.51876 0.18953 0.72837 0.0
C159 C 0.50944 0.19001 0.79552 0.0
C160 C 0.51163 0.22896 0.79561 0.0
C161 C 0.5171 0.24868 0.76232 0.0
C162 C 0.52035 0.2288 0.72869 0.0
N163 N 0.51976 0.28827 0.76193 0.0
C164 C 0.51809 0.31064 0.79358 0.0
H165 H 0.76545 0.49903 0.86955 0.0
H166 H 0.82649 0.50441 0.76768 0.0
H167 H 0.70579 0.50484 0.76631 0.0
C168 C 0.76548 0.50129 0.83959 0.0
C169 C 0.73138 0.5034 0.82065 0.0
C170 C 0.79971 0.50302 0.82089 0.0
C171 C 0.8 0.50318 0.7821 0.0
C172 C 0.7661 0.50298 0.76216 0.0
C173 C 0.73183 0.50351 0.78161 0.0
N174 N 0.76566 0.50338 0.72273 0.0
C175 C 0.79773 0.50274 0.7007 0.0
H176 H 0.51756 0.25006 0.14986 0.0
H177 H 0.5118 0.18996 0.25238 0.0
H178 H 0.52688 0.30922 0.25287 0.0
C179 C 0.51813 0.25002 0.17988 0.0
C180 C 0.52282 0.28378 0.19866 0.0
C181 C 0.51387 0.21623 0.19887 0.0
C182 C 0.51513 0.21604 0.23771 0.0
C183 C 0.51991 0.24955 0.25744 0.0
C184 C 0.5233 0.28341 0.23774 0.0
N185 N 0.5214 0.25007 0.2969 0.0
C186 C 0.51951 0.21841 0.31938 0.0
H187 H 0.76169 0.50348 0.14981 0.0
H188 H 0.82605 0.4981 0.24982 0.0
H189 H 0.7055 0.49755 0.25492 0.0
C190 C 0.76285 0.50132 0.17976 0.0
C191 C 0.72937 0.49919 0.19984 0.0
C192 C 0.79772 0.49985 0.19738 0.0
C193 C 0.79915 0.49941 0.23615 0.0
C194 C 0.76594 0.49938 0.25715 0.0
C195 C 0.73106 0.49896 0.23883 0.0
N196 N 0.76686 0.49861 0.29654 0.0
C197 C 0.7997 0.49952 0.31742 0.0
H198 H 0.51182 0.86239 0.25785 0.0
H199 H 0.5086 0.75932 0.1983 0.0
H200 H 0.52522 0.75904 0.31673 0.0
C201 C 0.51327 0.83224 0.25794 0.0
C202 C 0.51921 0.81348 0.2915 0.0
C203 C 0.50952 0.81301 0.22439 0.0
C204 C 0.51162 0.77407 0.22426 0.0
C205 C 0.51716 0.75431 0.2575 0.0
C206 C 0.52067 0.77418 0.29114 0.0
N207 N 0.51963 0.71468 0.25781 0.0
C208 C 0.51756 0.6923 0.22617 0.0
H209 H 0.2628 0.50273 0.15086 0.0
H210 H 0.20211 0.50437 0.25307 0.0
H211 H 0.32284 0.50168 0.25403 0.0
C212 C 0.26289 0.50362 0.18091 0.0
C213 C 0.29704 0.50366 0.19981 0.0
C214 C 0.22878 0.5048 0.1998 0.0
C215 C 0.22858 0.50345 0.23856 0.0
C216 C 0.2625 0.5017 0.25837 0.0
C217 C 0.29672 0.502 0.23882 0.0
N218 N 0.26301 0.50032 0.29778 0.0
C219 C 0.23096 0.50108 0.31984 0.0
H220 H 0.87363 0.74922 0.50673 0.0
H221 H 0.77184 0.81205 0.50747 0.0
H222 H 0.768 0.69199 0.50687 0.0
C223 C 0.84331 0.74998 0.50736 0.0
C224 C 0.82328 0.71643 0.5079 0.0
C225 C 0.82506 0.78446 0.50801 0.0
C226 C 0.78594 0.7854 0.5068 0.0
C227 C 0.76517 0.75206 0.50584 0.0
C228 C 0.78399 0.71763 0.50651 0.0
N229 N 0.72543 0.75242 0.50522 0.0
C230 C 0.70432 0.785 0.50451 0.0
H231 H 0.87467 0.25108 0.50535 0.0
H232 H 0.77143 0.19075 0.502 0.0
H233 H 0.77049 0.30991 0.51645 0.0
C234 C 0.84437 0.25097 0.50635 0.0
C235 C 0.8252 0.28464 0.51146 0.0
C236 C 0.82523 0.21712 0.50295 0.0
C237 C 0.78613 0.21692 0.50471 0.0
C238 C 0.76617 0.25036 0.50946 0.0
C239 C 0.78584 0.28421 0.51245 0.0
N240 N 0.72647 0.2506 0.5117 0.0
C241 C 0.70481 0.21833 0.51247 0.0
H242 H 0.26552 0.86119 0.4987 0.0
H243 H 0.20274 0.75983 0.50506 0.0
H244 H 0.32341 0.75658 0.50623 0.0
C245 C 0.26489 0.83108 0.50103 0.0
C246 C 0.29863 0.81145 0.50356 0.0
C247 C 0.23034 0.81286 0.50278 0.0
C248 C 0.22947 0.7739 0.50363 0.0
C249 C 0.26308 0.75336 0.50409 0.0
C250 C 0.29761 0.77231 0.50435 0.0
N251 N 0.26292 0.71382 0.50571 0.0
C252 C 0.23038 0.69248 0.50556 0.0
H253 H 0.26392 0.14162 0.52061 0.0
H254 H 0.20252 0.24394 0.51943 0.0
H255 H 0.32319 0.24578 0.51975 0.0
C256 C 0.26373 0.17181 0.51983 0.0
C257 C 0.29776 0.19112 0.51878 0.0
C258 C 0.22942 0.19054 0.51898 0.0
C259 C 0.22905 0.2295 0.5202 0.0
C260 C 0.2629 0.24962 0.52127 0.0
C261 C 0.29719 0.23026 0.52034 0.0
N262 N 0.26332 0.28919 0.52215 0.0
C263 C 0.23125 0.31116 0.52035 0.0
C264 C 0.01726 0.90883 0.59723 0.0
C265 C 0.01337 0.91376 0.41611 0.0
C266 C 0.01032 0.08889 0.60294 0.0
C267 C 0.01768 0.09371 0.42183 0.0
C268 C 0.92283 0.09086 0.50454 0.0
C269 C 0.92334 0.91092 0.50991 0.0
C270 C 0.10318 0.09191 0.51358 0.0
C271 C 0.10399 0.91165 0.50747 0.0
C272 C 0.10529 0.00407 0.42083 0.0
C273 C 0.9249 0.0034 0.41683 0.0
C274 C 0.10233 0.99864 0.60093 0.0
C275 C 0.92158 1.00087 0.59812 0.0
Eu276 Eu 0.0138 0.93066 0.50711 0.0
O277 O 0.98071 0.96884 0.47463 0.0
O278 O 0.04569 0.96757 0.54175 0.0
Eu279 Eu 0.94234 1.00099 0.5078 0.0
Eu280 Eu 0.08365 1.00166 0.51062 0.0
O281 O 0.97967 0.96709 0.54061 0.0
O282 O 0.0475 0.96914 0.47583 0.0
Eu283 Eu 0.01203 0.99918 0.57974 0.0
Eu284 Eu 0.01475 0.00333 0.43933 0.0
O285 O 0.97923 0.0333 0.54273 0.0
O286 O 0.98101 0.03519 0.47718 0.0
O287 O 0.04674 0.03563 0.47822 0.0
O288 O 0.04592 0.03374 0.54434 0.0
Eu289 Eu 0.01323 0.07205 0.51189 0.0
O290 O 0.01855 0.89862 0.56155 0.0
O291 O 0.01254 0.90089 0.45099 0.0
O292 O 0.01047 0.10175 0.56804 0.0
O293 O 0.01822 0.10401 0.45749 0.0
O294 O 0.91085 0.05569 0.50573 0.0
O295 O 0.91114 0.94599 0.50797 0.0
O296 O 0.11438 0.05653 0.51151 0.0
O297 O 0.11479 0.9471 0.51023 0.0
O298 O 0.07011 0.00302 0.40862 0.0
O299 O 0.96083 0.00499 0.40715 0.0
O300 O 0.06673 0.99962 0.61214 0.0
O301 O 0.95668 0.99759 0.61014 0.0
O302 O 0.06788 0.10372 0.51532 0.0
O303 O 0.95828 0.10226 0.50646 0.0
O304 O 0.06884 0.89954 0.5047 0.0
O305 O 0.95897 0.89993 0.51032 0.0
O306 O 0.01446 0.94967 0.40661 0.0
O307 O 0.01535 0.05883 0.40937 0.0
O308 O 0.01343 0.94361 0.60962 0.0
O309 O 0.01086 0.05294 0.61245 0.0
O310 O 0.91087 0.00323 0.56264 0.0
O311 O 0.91214 1.00105 0.4517 0.0
O312 O 0.11396 0.99884 0.56573 0.0
O313 O 0.11584 0.00422 0.45639 0.0
C314 C 0.50977 0.91153 0.09953 0.0
C315 C 0.51103 0.09149 0.09975 0.0
C316 C 0.51287 0.9115 0.92019 0.0
C317 C 0.51067 0.0916 0.92038 0.0
C318 C 0.60699 0.00226 0.92225 0.0
C319 C 0.60272 0.00308 0.10139 0.0
C320 C 0.42384 1.00175 0.91875 0.0
C321 C 0.42047 1.00148 0.09747 0.0
C322 C 0.42289 0.09086 0.00925 0.0
C323 C 0.60552 0.09109 0.00906 0.0
C324 C 0.42394 0.91093 0.0109 0.0
C325 C 0.60609 0.91212 0.01111 0.0
Eu326 Eu 0.51205 0.00189 0.0802 0.0
O327 O 0.54634 0.035 0.04373 0.0
O328 O 0.4806 0.96844 0.04199 0.0
Eu329 Eu 0.58403 1.00153 0.0115 0.0
Eu330 Eu 0.44353 1.00108 0.00836 0.0
O331 O 0.54655 0.96834 0.04431 0.0
O332 O 0.47998 0.03476 0.04187 0.0
Eu333 Eu 0.51474 0.93076 0.01029 0.0
Eu334 Eu 0.51417 0.07215 0.0097 0.0
O335 O 0.54785 0.96822 0.97734 0.0
O336 O 0.54747 0.0344 0.9772 0.0
O337 O 0.48179 0.03423 0.97627 0.0
O338 O 0.48178 0.96783 0.9763 0.0
Eu339 Eu 0.51511 1.00115 0.93915 0.0
O340 O 0.50859 0.94698 0.11055 0.0
O341 O 0.51138 0.05633 0.11159 0.0
O342 O 0.51551 0.94651 0.9082 0.0
O343 O 0.51146 0.05621 0.9091 0.0
O344 O 0.61672 1.00177 0.95794 0.0
O345 O 0.61502 1.00168 0.06649 0.0
O346 O 0.41294 0.00202 0.95402 0.0
O347 O 0.41069 1.00065 0.06182 0.0
O348 O 0.45845 0.10228 0.01072 0.0
O349 O 0.57012 0.10337 0.00916 0.0
O350 O 0.45956 0.89992 0.01291 0.0
O351 O 0.57074 0.89973 0.01076 0.0
O352 O 0.45948 1.00061 0.90717 0.0
O353 O 0.57177 0.00228 0.90949 0.0
O354 O 0.45568 0.00252 0.11007 0.0
O355 O 0.56686 0.00338 0.11194 0.0
O356 O 0.51206 0.10272 0.06446 0.0
O357 O 0.51254 0.10352 0.95532 0.0
O358 O 0.51356 0.89955 0.06476 0.0
O359 O 0.51183 0.90035 0.9555 0.0
O360 O 0.61624 0.94778 0.01149 0.0
O361 O 0.61581 0.05549 0.01034 0.0
O362 O 0.41211 0.94604 0.00767 0.0
O363 O 0.41137 0.05558 0.00733 0.0
C364 C 0.01572 0.40725 0.09632 0.0
C365 C 0.01439 0.41406 0.91707 0.0
C366 C 0.01256 0.58915 0.10253 0.0
C367 C 0.01474 0.59599 0.92326 0.0
C368 C 0.92383 0.59149 0.01261 0.0
C369 C 0.92518 0.41066 0.0071 0.0
C370 C 0.10434 0.59326 0.01259 0.0
C371 C 0.10548 0.4112 0.00579 0.0
C372 C 0.10592 0.50691 0.92079 0.0
C373 C 0.92539 0.5048 0.91949 0.0
C374 C 0.10432 0.50285 0.10026 0.0
C375 C 0.9241 0.4977 0.09886 0.0
Eu376 Eu 0.01527 0.43138 0.00708 0.0
O377 O 0.9821 0.46971 0.97524 0.0
O378 O 0.04845 0.46744 0.0418 0.0
Eu379 Eu 0.94462 0.50125 0.00939 0.0
Eu380 Eu 0.08607 0.50205 0.01003 0.0
O381 O 0.98184 0.46709 0.04148 0.0
O382 O 0.04863 0.47016 0.97555 0.0
Eu383 Eu 0.01454 0.49878 0.08027 0.0
Eu384 Eu 0.01522 0.50446 0.93947 0.0
O385 O 0.98138 0.53319 0.04408 0.0
O386 O 0.98168 0.536 0.97775 0.0
O387 O 0.0479 0.53607 0.97848 0.0
O388 O 0.04764 0.53337 0.04403 0.0
Eu389 Eu 0.01424 0.57206 0.01257 0.0
O390 O 0.01591 0.39789 0.06048 0.0
O391 O 0.0156 0.40136 0.9518 0.0
O392 O 0.01464 0.6019 0.06787 0.0
O393 O 0.01431 0.60541 0.95909 0.0
O394 O 0.91298 0.55595 0.01024 0.0
O395 O 0.91384 0.44608 0.00876 0.0
O396 O 0.11679 0.55813 0.01023 0.0
O397 O 0.11762 0.4464 0.00896 0.0
O398 O 0.0704 0.50764 0.90955 0.0
O399 O 0.96073 0.50481 0.90774 0.0
O400 O 0.06905 0.49977 0.11182 0.0
O401 O 0.95931 0.49773 0.11106 0.0
O402 O 0.06857 0.60346 0.01411 0.0
O403 O 0.95911 0.60339 0.01463 0.0
O404 O 0.06982 0.40066 0.00453 0.0
O405 O 0.96063 0.39919 0.00544 0.0
O406 O 0.01404 0.44998 0.90703 0.0
O407 O 0.01499 0.56102 0.91036 0.0
O408 O 0.01512 0.44219 0.10926 0.0
O409 O 0.01169 0.55325 0.11253 0.0
O410 O 0.91323 0.49882 0.06352 0.0
O411 O 0.91401 0.50367 0.9547 0.0
O412 O 0.11594 0.50412 0.06512 0.0
O413 O 0.11783 0.50385 0.95569 0.0
C414 C 0.51751 0.40847 0.09718 0.0
C415 C 0.51234 0.58853 0.10375 0.0
C416 C 0.51429 0.41413 0.91612 0.0
C417 C 0.51229 0.59424 0.92258 0.0
C418 C 0.60544 0.50446 0.92106 0.0
C419 C 0.60242 0.49869 0.10124 0.0
C420 C 0.42519 0.50397 0.91699 0.0
C421 C 0.42165 0.50018 0.09824 0.0
C422 C 0.42198 0.59022 0.01363 0.0
C423 C 0.6026 0.59253 0.01251 0.0
C424 C 0.42377 0.41071 0.00933 0.0
C425 C 0.60453 0.41218 0.0075 0.0
Eu426 Eu 0.51216 0.49887 0.08004 0.0
O427 O 0.54582 0.53379 0.04479 0.0
O428 O 0.47987 0.46683 0.0407 0.0
Eu429 Eu 0.58375 0.50214 0.01092 0.0
Eu430 Eu 0.44245 0.50077 0.00793 0.0
O431 O 0.54601 0.46759 0.0419 0.0
O432 O 0.47928 0.5327 0.04304 0.0
Eu433 Eu 0.51424 0.43071 0.00717 0.0
Eu434 Eu 0.51272 0.57204 0.01268 0.0
O435 O 0.5477 0.46956 0.97611 0.0
O436 O 0.54671 0.53621 0.97867 0.0
O437 O 0.48077 0.53542 0.97739 0.0
O438 O 0.48112 0.46893 0.97476 0.0
Eu439 Eu 0.515 0.50378 0.93964 0.0
O440 O 0.51359 0.4432 0.10969 0.0
O441 O 0.51124 0.55255 0.11312 0.0
O442 O 0.51483 0.4501 0.90669 0.0
O443 O 0.51598 0.55948 0.91008 0.0
O444 O 0.61598 0.5047 0.95663 0.0
O445 O 0.61408 0.49931 0.06604 0.0
O446 O 0.41236 0.50164 0.95183 0.0
O447 O 0.41096 0.50219 0.06275 0.0
O448 O 0.45735 0.60154 0.0167 0.0
O449 O 0.56721 0.6042 0.0134 0.0
O450 O 0.45944 0.39981 0.00988 0.0
O451 O 0.56943 0.39992 0.00477 0.0
O452 O 0.46115 0.50542 0.90736 0.0
O453 O 0.57026 0.50341 0.90887 0.0
O454 O 0.45675 0.49735 0.11037 0.0
O455 O 0.56682 0.49926 0.11243 0.0
O456 O 0.51333 0.60147 0.06892 0.0
O457 O 0.50976 0.6043 0.95824 0.0
O458 O 0.51891 0.39842 0.06146 0.0
O459 O 0.51374 0.40118 0.95097 0.0
O460 O 0.61518 0.44769 0.01035 0.0
O461 O 0.61407 0.55719 0.01176 0.0
O462 O 0.41146 0.44573 0.0075 0.0
O463 O 0.41046 0.55528 0.00836 0.0
C464 C 0.01229 0.41204 0.59972 0.0
C465 C 0.01898 0.41166 0.42053 0.0
C466 C 0.01086 0.59204 0.59971 0.0
C467 C 0.01167 0.59172 0.4204 0.0
C468 C 0.92275 0.59048 0.50927 0.0
C469 C 0.92545 0.4104 0.51153 0.0
C470 C 0.10529 0.59221 0.50845 0.0
C471 C 0.1075 0.41331 0.51261 0.0
C472 C 0.10701 0.5029 0.42205 0.0
C473 C 0.92389 0.50105 0.41918 0.0
C474 C 0.1035 0.50476 0.60127 0.0
C475 C 0.92117 0.50138 0.59781 0.0
Eu476 Eu 0.01612 0.43124 0.51052 0.0
O477 O 0.98221 0.46746 0.47639 0.0
O478 O 0.04755 0.46921 0.54448 0.0
Eu479 Eu 0.94408 0.50077 0.50866 0.0
Eu480 Eu 0.08464 0.50254 0.51145 0.0
O481 O 0.98166 0.46867 0.54228 0.0
O482 O 0.04852 0.46911 0.47755 0.0
Eu483 Eu 0.01282 0.50242 0.58041 0.0
Eu484 Eu 0.01518 0.50128 0.43933 0.0
O485 O 0.98041 0.53482 0.54199 0.0
O486 O 0.98182 0.53436 0.47643 0.0
O487 O 0.04746 0.53482 0.47727 0.0
O488 O 0.04677 0.53579 0.54381 0.0
Eu489 Eu 0.01415 0.57251 0.50971 0.0
O490 O 0.01557 0.40002 0.56493 0.0
O491 O 0.01944 0.4006 0.45588 0.0
O492 O 0.01173 0.60319 0.56439 0.0
O493 O 0.01322 0.60378 0.4553 0.0
O494 O 0.91148 0.55508 0.50752 0.0
O495 O 0.91324 0.44545 0.50916 0.0
O496 O 0.11595 0.55671 0.5094 0.0
O497 O 0.1174 0.44906 0.51202 0.0
O498 O 0.07173 0.50261 0.40944 0.0
O499 O 0.9595 0.50044 0.40748 0.0
O500 O 0.06769 0.5047 0.61193 0.0
O501 O 0.95641 0.50253 0.61038 0.0
O502 O 0.06981 0.60422 0.50925 0.0
O503 O 0.95822 0.60218 0.51058 0.0
O504 O 0.07224 0.40074 0.51258 0.0
O505 O 0.96124 0.3997 0.51222 0.0
O506 O 0.01649 0.44665 0.40844 0.0
O507 O 0.01209 0.55629 0.40924 0.0
O508 O 0.01073 0.44748 0.61071 0.0
O509 O 0.01159 0.55692 0.61164 0.0
O510 O 0.91136 0.5005 0.56217 0.0
O511 O 0.91315 0.50106 0.4545 0.0
O512 O 0.11573 0.50339 0.56635 0.0
O513 O 0.11695 0.50261 0.45769 0.0
C514 C 0.51455 0.90685 0.59601 0.0
C515 C 0.5191 0.91455 0.41668 0.0
C516 C 0.51773 0.08872 0.60318 0.0
C517 C 0.51506 0.09627 0.42371 0.0
C518 C 0.42431 0.09164 0.51277 0.0
C519 C 0.42504 0.91107 0.50686 0.0
C520 C 0.60481 0.09304 0.51417 0.0
C521 C 0.60539 0.91084 0.50558 0.0
C522 C 0.60661 0.00834 0.42119 0.0
C523 C 0.42609 0.00435 0.41943 0.0
C524 C 0.60483 1.00092 0.60039 0.0
C525 C 0.42461 0.99873 0.59893 0.0
Eu526 Eu 0.51521 0.93135 0.50684 0.0
O527 O 0.48232 0.96986 0.47491 0.0
O528 O 0.54872 0.96707 0.54174 0.0
Eu529 Eu 0.44512 1.00148 0.50942 0.0
Eu530 Eu 0.58648 0.00183 0.51023 0.0
O531 O 0.48221 0.96717 0.54142 0.0
O532 O 0.54886 0.97024 0.47581 0.0
Eu533 Eu 0.51511 0.99848 0.58039 0.0
Eu534 Eu 0.51596 0.00473 0.43959 0.0
O535 O 0.48174 0.03325 0.54456 0.0
O536 O 0.48232 0.03615 0.47793 0.0
O537 O 0.54848 0.03621 0.47883 0.0
O538 O 0.54795 0.03302 0.54404 0.0
Eu539 Eu 0.51464 0.07209 0.51302 0.0
O540 O 0.51498 0.8976 0.56014 0.0
O541 O 0.51573 0.90176 0.45126 0.0
O542 O 0.51515 0.1016 0.56858 0.0
O543 O 0.51494 0.10561 0.45957 0.0
O544 O 0.41346 0.05613 0.51021 0.0
O545 O 0.41394 0.94655 0.50873 0.0
O546 O 0.61723 0.0579 0.51152 0.0
O547 O 0.61769 0.94599 0.5087 0.0
O548 O 0.57113 0.00985 0.40997 0.0
O549 O 0.46146 0.00359 0.40772 0.0
O550 O 0.56962 0.99723 0.6119 0.0
O551 O 0.45982 0.99937 0.61117 0.0
O552 O 0.56904 0.10333 0.51527 0.0
O553 O 0.45959 0.1035 0.515 0.0
O554 O 0.56967 0.90042 0.50445 0.0
O555 O 0.46041 0.89942 0.50501 0.0
O556 O 0.5205 0.95053 0.40693 0.0
O557 O 0.51506 0.06134 0.41072 0.0
O558 O 0.51439 0.94175 0.60907 0.0
O559 O 0.51849 0.05275 0.61297 0.0
O560 O 0.41377 0.99899 0.56356 0.0
O561 O 0.41467 0.00411 0.45465 0.0
O562 O 0.61637 0.00328 0.56529 0.0
O563 O 0.6184 0.00404 0.456 0.0
C564 C 0.19449 0.13774 0.4909 0.0
C565 C 0.19461 0.16855 0.51488 0.0
H566 H 0.16558 0.08937 0.47232 0.0
C567 C 0.16244 0.1763 0.53597 0.0
H568 H 0.21832 0.13171 0.47332 0.0
C569 C 0.13158 0.15221 0.53461 0.0
C570 C 0.13297 0.12002 0.51255 0.0
H571 H 0.16173 0.19994 0.55457 0.0
H572 H 0.10751 0.15778 0.55199 0.0
C573 C 0.16425 0.11354 0.49015 0.0
C574 C 0.87912 0.18157 0.47691 0.0
C575 C 0.84676 0.18212 0.49901 0.0
H576 H 0.92869 0.15207 0.46172 0.0
C577 C 0.83731 0.15026 0.51976 0.0
H578 H 0.88658 0.20523 0.45978 0.0
C579 C 0.86113 0.11937 0.52016 0.0
C580 C 0.89484 0.12033 0.50029 0.0
H581 H 0.81261 0.14992 0.53715 0.0
H582 H 0.85426 0.09572 0.53756 0.0
C583 C 0.90314 0.15115 0.4779 0.0
C584 C 0.83877 0.85102 0.49034 0.0
C585 C 0.84747 0.81904 0.51121 0.0
H586 H 0.8562 0.90587 0.47379 0.0
C587 C 0.87915 0.81944 0.53427 0.0
H588 H 0.81454 0.85153 0.47234 0.0
C589 C 0.90308 0.84992 0.53448 0.0
C590 C 0.89544 0.88106 0.51231 0.0
H591 H 0.88596 0.79578 0.55165 0.0
H592 H 0.92794 0.84892 0.55166 0.0
C593 C 0.86255 0.88201 0.49109 0.0
C594 C 0.16309 0.82673 0.48648 0.0
C595 C 0.19584 0.8354 0.5063 0.0
H596 H 0.10764 0.84434 0.47141 0.0
C597 C 0.19638 0.86727 0.52885 0.0
H598 H 0.16186 0.80225 0.469 0.0
C599 C 0.16612 0.89141 0.5295 0.0
C600 C 0.1341 0.88383 0.50848 0.0
H601 H 0.22065 0.87408 0.54551 0.0
H602 H 0.16802 0.91633 0.54621 0.0
C603 C 0.13221 0.85076 0.48777 0.0
C604 C 0.52827 0.14875 0.18603 0.0
C605 C 0.50872 0.18158 0.17713 0.0
H606 H 0.54409 0.09384 0.16827 0.0
C607 C 0.48695 0.18253 0.14471 0.0
H608 H 0.54532 0.14718 0.21079 0.0
C609 C 0.48751 0.1529 0.12004 0.0
C610 C 0.50851 0.12096 0.12783 0.0
H611 H 0.47054 0.20688 0.13761 0.0
H612 H 0.472 0.15529 0.09447 0.0
C613 C 0.52783 0.11841 0.16163 0.0
C614 C 0.8651 0.51614 0.18389 0.0
C615 C 0.8321 0.49692 0.17455 0.0
H616 H 0.92082 0.53112 0.16709 0.0
C617 C 0.83135 0.4755 0.14197 0.0
H618 H 0.86658 0.53285 0.20881 0.0
C619 C 0.86165 0.47545 0.11796 0.0
C620 C 0.89397 0.49572 0.12642 0.0
H621 H 0.80696 0.45922 0.13455 0.0
H622 H 0.85962 0.45979 0.09246 0.0
C623 C 0.89604 0.51526 0.16005 0.0
C624 C 0.52638 0.82592 0.15804 0.0
C625 C 0.50501 0.83451 0.18964 0.0
H626 H 0.54457 0.84389 0.1042 0.0
C627 C 0.48216 0.86634 0.18928 0.0
H628 H 0.54434 0.80163 0.15758 0.0
C629 C 0.48305 0.89076 0.15937 0.0
C630 C 0.50612 0.8834 0.12883 0.0
H631 H 0.46458 0.87313 0.21279 0.0
H632 H 0.46619 0.91583 0.16045 0.0
C633 C 0.52672 0.85014 0.12765 0.0
C634 C 0.16278 0.4853 0.18559 0.0
C635 C 0.19391 0.50798 0.17802 0.0
H636 H 0.1093 0.46594 0.16643 0.0
C637 C 0.19317 0.53167 0.147 0.0
H638 H 0.16266 0.46683 0.20934 0.0
C639 C 0.16346 0.53043 0.12227 0.0
C640 C 0.13343 0.50622 0.12858 0.0
H641 H 0.2163 0.55027 0.14108 0.0
H642 H 0.16427 0.54802 0.09785 0.0
C643 C 0.13248 0.48463 0.16104 0.0
C644 C 0.52992 0.85282 0.83495 0.0
C645 C 0.50724 0.82182 0.8428 0.0
H646 H 0.54946 0.90619 0.85374 0.0
C647 C 0.48388 0.8226 0.87416 0.0
H648 H 0.54814 0.85296 0.81096 0.0
C649 C 0.48543 0.8522 0.89883 0.0
C650 C 0.50955 0.88218 0.89216 0.0
H651 H 0.46524 0.79961 0.88032 0.0
H652 H 0.46802 0.85143 0.92343 0.0
C653 C 0.53085 0.88305 0.85944 0.0
C654 C 0.15054 0.53429 0.83088 0.0
C655 C 0.18179 0.5106 0.82961 0.0
H656 H 0.10204 0.5514 0.86088 0.0
C657 C 0.19037 0.48855 0.86073 0.0
H658 H 0.14385 0.55247 0.80783 0.0
C659 C 0.16668 0.4886 0.89163 0.0
C660 C 0.13403 0.5103 0.8914 0.0
H661 H 0.2143 0.47006 0.86051 0.0
H662 H 0.17278 0.47029 0.91474 0.0
C663 C 0.1267 0.53383 0.86127 0.0
C664 C 0.48253 0.13648 0.83074 0.0
C665 C 0.50511 0.16852 0.83032 0.0
H666 H 0.46712 0.0868 0.85961 0.0
C667 C 0.52642 0.17734 0.8619 0.0
H668 H 0.46497 0.12951 0.80729 0.0
C669 C 0.52697 0.15315 0.89231 0.0
C670 C 0.5067 0.11969 0.89115 0.0
H671 H 0.54418 0.20178 0.86233 0.0
H672 H 0.54476 0.15957 0.91577 0.0
C673 C 0.4837 0.11207 0.86065 0.0
C674 C 0.86678 0.48593 0.83438 0.0
C675 C 0.83447 0.50657 0.84289 0.0
H676 H 0.92168 0.46939 0.8523 0.0
C677 C 0.83435 0.52936 0.87455 0.0
H678 H 0.86768 0.46825 0.81009 0.0
C679 C 0.86442 0.52917 0.89881 0.0
C680 C 0.89582 0.50715 0.89147 0.0
H681 H 0.81041 0.54661 0.88122 0.0
H682 H 0.8629 0.54591 0.92367 0.0
C683 C 0.8975 0.48646 0.85849 0.0
C684 C 0.69397 0.63804 0.98981 0.0
C685 C 0.69411 0.66889 0.01373 0.0
H686 H 0.66492 0.58974 0.97127 0.0
C687 C 0.66185 0.67688 0.0346 0.0
H688 H 0.71788 0.63184 0.97241 0.0
C689 C 0.63088 0.65296 0.03313 0.0
C690 C 0.63225 0.62072 0.01116 0.0
H691 H 0.66116 0.70056 0.05316 0.0
H692 H 0.60677 0.65863 0.05043 0.0
C693 C 0.66361 0.61401 0.98894 0.0
C694 C 0.37624 0.68014 0.04038 0.0
C695 C 0.34583 0.68164 0.01578 0.0
H696 H 0.4241 0.64984 0.05881 0.0
C697 C 0.33801 0.6506 0.9933 0.0
H698 H 0.38229 0.70315 0.05884 0.0
C699 C 0.36172 0.61957 0.99384 0.0
C700 C 0.39361 0.61958 0.01653 0.0
H701 H 0.31472 0.65101 0.97411 0.0
H702 H 0.35627 0.59659 0.97517 0.0
C703 C 0.40007 0.6496 0.04049 0.0
C704 C 0.37944 0.31932 0.03362 0.0
C705 C 0.34758 0.31913 0.01079 0.0
H706 H 0.42849 0.34851 0.05072 0.0
C707 C 0.3389 0.35115 0.99 0.0
H708 H 0.38623 0.29561 0.05095 0.0
C709 C 0.36286 0.38199 0.99061 0.0
C710 C 0.3959 0.38084 0.0116 0.0
H711 H 0.31451 0.3518 0.97221 0.0
H712 H 0.35649 0.40593 0.97342 0.0
C713 C 0.40354 0.34965 0.03368 0.0
C714 C 0.66343 0.32716 0.98641 0.0
C715 C 0.69624 0.33573 0.00618 0.0
H716 H 0.60802 0.34492 0.97143 0.0
C717 C 0.69696 0.36768 0.02862 0.0
H718 H 0.66205 0.30265 0.96899 0.0
C719 C 0.66681 0.39196 0.02924 0.0
C720 C 0.6347 0.38443 0.00834 0.0
H721 H 0.72126 0.37442 0.04526 0.0
H722 H 0.66883 0.41693 0.04588 0.0
C723 C 0.63266 0.35132 0.9877 0.0
C724 C 0.02769 0.64928 0.68605 0.0
C725 C 0.00829 0.68215 0.67704 0.0
H726 H 0.04347 0.59433 0.66841 0.0
C727 C 0.98673 0.68317 0.64448 0.0
H728 H 0.04459 0.64764 0.71091 0.0
C729 C 0.98739 0.65356 0.61979 0.0
C730 C 0.00823 0.62155 0.62774 0.0
H731 H 0.97043 0.70756 0.63728 0.0
H732 H 0.9721 0.65603 0.5941 0.0
C733 C 0.02732 0.61895 0.66166 0.0
C734 C 0.36503 0.01794 0.68342 0.0
C735 C 0.33234 0.99809 0.6743 0.0
H736 H 0.42059 0.03347 0.66651 0.0
C737 C 0.332 0.9761 0.64211 0.0
H738 H 0.36616 0.03509 0.70806 0.0
C739 C 0.36243 0.97597 0.61825 0.0
C740 C 0.39442 0.99689 0.62644 0.0
H741 H 0.30784 0.95938 0.6349 0.0
H742 H 0.36076 0.95973 0.59309 0.0
C743 C 0.39607 0.0171 0.6597 0.0
C744 C 0.03007 0.32684 0.6586 0.0
C745 C 0.00818 0.33522 0.68987 0.0
H746 H 0.04848 0.34501 0.60484 0.0
C747 C 0.98502 0.36683 0.68928 0.0
H748 H 0.04809 0.30259 0.65834 0.0
C749 C 0.98586 0.39117 0.6594 0.0
C750 C 0.00922 0.384 0.62908 0.0
H751 H 0.96697 0.37337 0.71251 0.0
H752 H 0.96859 0.41597 0.66027 0.0
C753 C 0.0304 0.35107 0.62817 0.0
C754 C 0.69321 0.03029 0.64761 0.0
C755 C 0.6942 0.00629 0.67838 0.0
H756 H 0.6642 0.0468 0.59861 0.0
C757 C 0.6634 0.98307 0.68563 0.0
H758 H 0.71609 0.04928 0.64196 0.0
C759 C 0.63318 0.9822 0.66098 0.0
C760 C 0.63391 0.00415 0.62875 0.0
H761 H 0.66349 0.96437 0.70921 0.0
H762 H 0.61024 0.96316 0.66613 0.0
C763 C 0.6636 0.02888 0.62281 0.0
C764 C 0.04743 0.32231 0.37496 0.0
C765 C 0.02444 0.32176 0.34334 0.0
H766 H 0.06308 0.35104 0.42438 0.0
C767 C 0.00225 0.35304 0.33522 0.0
H768 H 0.06573 0.29913 0.38136 0.0
C769 C 0.00144 0.38332 0.35964 0.0
C770 C 0.02237 0.38226 0.39258 0.0
H771 H 0.98429 0.35338 0.31104 0.0
H772 H 0.98319 0.40666 0.3537 0.0
C773 C 0.04599 0.35198 0.39957 0.0
C774 C 0.69065 0.98902 0.36098 0.0
C775 C 0.68214 0.01094 0.32976 0.0
H776 H 0.67315 0.97123 0.41513 0.0
C777 C 0.65121 0.03505 0.33107 0.0
H778 H 0.71434 0.97021 0.36072 0.0
C779 C 0.62758 0.03511 0.36162 0.0
C780 C 0.63478 0.01165 0.39185 0.0
H781 H 0.64459 0.05311 0.3079 0.0
H782 H 0.60311 0.05294 0.36124 0.0
C783 C 0.66716 0.98954 0.392 0.0
C784 C 0.02861 0.67673 0.36111 0.0
C785 C 0.00672 0.66802 0.32992 0.0
H786 H 0.04721 0.65902 0.41495 0.0
C787 C 0.98373 0.63627 0.33079 0.0
H788 H 0.04653 0.70106 0.36118 0.0
C789 C 0.98482 0.6121 0.3608 0.0
C790 C 0.00817 0.61965 0.39102 0.0
H791 H 0.96564 0.62946 0.30766 0.0
H792 H 0.96776 0.58713 0.36014 0.0
C793 C 0.02912 0.65272 0.39169 0.0
C794 C 0.36701 0.98501 0.33465 0.0
C795 C 0.33494 0.00611 0.34298 0.0
H796 H 0.42178 0.96805 0.35268 0.0
C797 C 0.33516 0.0293 0.37433 0.0
H798 H 0.36763 0.96701 0.31059 0.0
C799 C 0.36534 0.02914 0.39849 0.0
C800 C 0.39649 0.00666 0.39139 0.0
H801 H 0.31141 0.04685 0.38086 0.0
H802 H 0.36408 0.04626 0.42311 0.0
C803 C 0.39782 0.9855 0.35868 0.0
C804 C 0.0461 0.18366 0.3757 0.0
C805 C 0.0238 0.18408 0.34347 0.0
H806 H 0.06083 0.15542 0.42586 0.0
C807 C 0.00175 0.15263 0.33552 0.0
H808 H 0.06438 0.20683 0.3822 0.0
C809 C 0.00053 0.12248 0.36041 0.0
C810 C 0.02083 0.12367 0.39384 0.0
H811 H 0.98426 0.15201 0.31103 0.0
H812 H 0.98252 0.09901 0.35429 0.0
C813 C 0.04414 0.1542 0.40081 0.0
C814 C 0.83584 0.9917 0.35967 0.0
C815 C 0.84851 0.00207 0.32427 0.0
H816 H 0.84999 0.98416 0.41712 0.0
C817 C 0.88547 0.0139 0.31972 0.0
H818 H 0.80728 0.98244 0.36369 0.0
C819 C 0.9098 0.01486 0.34997 0.0
C820 C 0.89769 0.00403 0.3856 0.0
H821 H 0.89569 0.02216 0.29265 0.0
H822 H 0.93828 0.02404 0.34523 0.0
C823 C 0.86023 0.9928 0.3902 0.0
C824 C 0.01452 0.87429 0.31823 0.0
C825 C 0.01224 0.83593 0.32461 0.0
H826 H 0.01672 0.92874 0.34169 0.0
C827 C 0.01043 0.82274 0.36122 0.0
H828 H 0.01596 0.88503 0.29018 0.0
C829 C 0.01086 0.84779 0.39114 0.0
C830 C 0.01306 0.88649 0.38488 0.0
H831 H 0.00865 0.79315 0.36679 0.0
H832 H 0.00938 0.83683 0.41907 0.0
C833 C 0.01493 0.89928 0.34793 0.0
C834 C 0.19707 0.02838 0.37568 0.0
C835 C 0.1967 0.00651 0.34329 0.0
H836 H 0.16914 0.04374 0.42564 0.0
C837 C 0.16411 0.98625 0.33475 0.0
H838 H 0.2211 0.04541 0.3826 0.0
C839 C 0.13353 0.98633 0.35928 0.0
C840 C 0.13544 0.00613 0.39289 0.0
H841 H 0.16286 0.96919 0.31005 0.0
H842 H 0.10913 0.96966 0.35277 0.0
C843 C 0.16721 0.02763 0.40039 0.0
C844 C 0.00472 0.85109 0.68498 0.0
C845 C 0.02581 0.81916 0.67644 0.0
H846 H 0.98535 0.90468 0.66646 0.0
C847 C 0.04653 0.81878 0.64319 0.0
H848 H 0.98833 0.85226 0.71019 0.0
C849 C 0.04385 0.84799 0.61779 0.0
C850 C 0.02128 0.87899 0.62537 0.0
H851 H 0.06387 0.79509 0.63611 0.0
H852 H 0.0593 0.84616 0.59201 0.0
C853 C 0.00272 0.8809 0.65976 0.0
C854 C 0.16188 0.0172 0.68647 0.0
C855 C 0.19385 0.99585 0.67824 0.0
H856 H 0.1072 0.03479 0.66827 0.0
C857 C 0.19316 0.97264 0.64684 0.0
H858 H 0.1615 0.03528 0.71047 0.0
C859 C 0.16292 0.97311 0.62258 0.0
C860 C 0.13194 0.99594 0.62944 0.0
H861 H 0.21679 0.95495 0.6402 0.0
H862 H 0.16408 0.95597 0.59797 0.0
C863 C 0.13095 0.01705 0.66229 0.0
C864 C 0.00975 0.12851 0.70086 0.0
C865 C 0.01026 0.16694 0.69444 0.0
H866 H 0.00928 0.07396 0.67748 0.0
C867 C 0.01049 0.1801 0.65777 0.0
H868 H 0.00957 0.11775 0.72894 0.0
C869 C 0.0103 0.15498 0.62787 0.0
C870 C 0.00989 0.11623 0.63418 0.0
H871 H 0.0109 0.20973 0.65215 0.0
H872 H 0.01062 0.16596 0.59991 0.0
C873 C 0.00957 0.10346 0.67119 0.0
C874 C 0.83256 0.02931 0.64621 0.0
C875 C 0.83222 0.00614 0.67776 0.0
H876 H 0.86043 0.04495 0.59611 0.0
C877 C 0.86345 0.98337 0.68468 0.0
H878 H 0.8095 0.04805 0.64055 0.0
C879 C 0.89329 0.98231 0.65934 0.0
C880 C 0.89193 0.00349 0.6265 0.0
H881 H 0.86405 0.96522 0.70867 0.0
H882 H 0.91662 0.96378 0.66461 0.0
C883 C 0.86169 0.02755 0.62064 0.0
C884 C 0.32229 0.99681 0.13764 0.0
C885 C 0.3289 1.00147 0.17554 0.0
H886 H 0.3457 0.99303 0.08342 0.0
C887 C 0.36576 0.00584 0.18822 0.0
H888 H 0.29401 0.99335 0.12735 0.0
C889 C 0.39573 0.00565 0.16306 0.0
C890 C 0.38923 1.00122 0.12481 0.0
H891 H 0.37143 0.00953 0.21746 0.0
H892 H 0.42389 0.00922 0.17358 0.0
C893 C 0.35204 0.9967 0.11253 0.0
C894 C 0.01846 0.30922 0.13681 0.0
C895 C 0.01739 0.31613 0.17498 0.0
H896 H 0.01879 0.3322 0.08218 0.0
C897 C 0.01578 0.35306 0.18758 0.0
H898 H 0.0197 0.2809 0.12652 0.0
C899 C 0.01527 0.38275 0.16219 0.0
C900 C 0.0163 0.37601 0.12371 0.0
H901 H 0.01489 0.35902 0.21698 0.0
H902 H 0.01402 0.41094 0.17278 0.0
C903 C 0.01791 0.33875 0.11145 0.0
C904 C 0.68871 0.98562 0.16102 0.0
C905 C 0.68064 0.00778 0.19218 0.0
H906 H 0.67027 0.96682 0.10737 0.0
C907 C 0.64861 0.03064 0.19123 0.0
H908 H 0.71308 0.96771 0.16076 0.0
C909 C 0.6238 0.02921 0.16151 0.0
C910 C 0.63086 0.00584 0.13125 0.0
H911 H 0.64208 0.04912 0.21405 0.0
H912 H 0.59886 0.04634 0.16231 0.0
C913 C 0.66413 0.98491 0.1306 0.0
C914 C 0.02866 0.67577 0.16125 0.0
C915 C 0.00709 0.66743 0.19281 0.0
H916 H 0.04734 0.65734 0.10758 0.0
C917 C 0.98517 0.63478 0.19263 0.0
H918 H 0.04584 0.7006 0.16043 0.0
C919 C 0.987 0.60969 0.16324 0.0
C920 C 0.00981 0.61706 0.13255 0.0
H921 H 0.96721 0.62797 0.21586 0.0
H922 H 0.97056 0.58437 0.16462 0.0
C923 C 0.02975 0.65088 0.13118 0.0
C924 C 0.32652 0.01245 0.87827 0.0
C925 C 0.3318 0.00212 0.84134 0.0
H926 H 0.35119 0.02094 0.93126 0.0
C927 C 0.36788 0.99283 0.82893 0.0
H928 H 0.29892 0.01988 0.88831 0.0
C929 C 0.39834 0.99337 0.85363 0.0
C930 C 0.39293 0.00296 0.89108 0.0
H931 H 0.37247 0.98478 0.80037 0.0
H932 H 0.42581 0.98558 0.84363 0.0
C933 C 0.35663 0.0129 0.90283 0.0
C934 C 0.03007 0.32705 0.85856 0.0
C935 C 0.0088 0.3355 0.82684 0.0
H936 H 0.04858 0.34544 0.91233 0.0
C937 C 0.98727 0.36842 0.82684 0.0
H938 H 0.04694 0.30202 0.85955 0.0
C939 C 0.98924 0.3936 0.85615 0.0
C940 C 0.01174 0.3861 0.88702 0.0
H941 H 0.96951 0.37536 0.8035 0.0
H942 H 0.9731 0.41909 0.85459 0.0
C943 C 0.03126 0.35204 0.88858 0.0
C944 C 0.70546 0.0081 0.88289 0.0
C945 C 0.69947 1.00152 0.84517 0.0
H946 H 0.68124 0.01378 0.93661 0.0
C947 C 0.66286 0.99578 0.83227 0.0
H948 H 0.73351 0.01268 0.89336 0.0
C949 C 0.63254 0.99645 0.85705 0.0
C950 C 0.63845 0.00267 0.89513 0.0
H951 H 0.65767 0.99056 0.80317 0.0
H952 H 0.60462 0.99162 0.84642 0.0
C953 C 0.67537 0.00865 0.90761 0.0
C954 C 0.02105 0.65044 0.83237 0.0
C955 C 0.01758 0.68728 0.84486 0.0
H956 H 0.02285 0.59254 0.84718 0.0
C957 C 0.0128 0.69401 0.88277 0.0
H958 H 0.02489 0.64465 0.80316 0.0
C959 C 0.01168 0.6644 0.90801 0.0
C960 C 0.01526 0.62723 0.89589 0.0
H961 H 0.01009 0.72226 0.89298 0.0
H962 H 0.00803 0.67081 0.93711 0.0
C963 C 0.01985 0.62065 0.85763 0.0
C964 C 0.19298 0.35222 0.01901 0.0
C965 C 0.18102 0.3181 1.00413 0.0
H966 H 0.17847 0.40914 0.03096 0.0
C967 C 0.1456 0.31544 0.98805 0.0
H968 H 0.22041 0.35469 0.03153 0.0
C969 C 0.12181 0.34618 0.98772 0.0
C970 C 0.13296 0.38034 1.00349 0.0
H971 H 0.13604 0.28938 0.97622 0.0
H972 H 0.09436 0.34294 0.97541 0.0
C973 C 0.16912 0.38331 0.01854 0.0
C974 C 0.19214 0.65122 0.99669 0.0
C975 C 0.18006 0.68634 0.00891 0.0
H976 H 0.17768 0.59365 0.98854 0.0
C977 C 0.14428 0.69024 0.02397 0.0
H978 H 0.21984 0.64776 0.985 0.0
C979 C 0.12033 0.65964 0.02602 0.0
C980 C 0.13169 0.62438 0.01305 0.0
H981 H 0.13463 0.7171 0.03378 0.0
H982 H 0.09266 0.66383 0.03753 0.0
C983 C 0.16813 0.62032 0.99887 0.0
C984 C 0.337 0.15002 0.9895 0.0
C985 C 0.34459 0.18135 0.01168 0.0
H986 H 0.35613 0.09611 0.97135 0.0
C987 C 0.37566 0.18043 0.03554 0.0
H988 H 0.31323 0.14991 0.9709 0.0
C989 C 0.40035 0.15057 0.03499 0.0
C990 C 0.39417 0.12024 0.01146 0.0
H991 H 0.38173 0.2036 0.05381 0.0
H992 H 0.42472 0.15148 0.05264 0.0
C993 C 0.36158 0.11944 0.9896 0.0
C994 C 0.83435 0.36385 0.03118 0.0
C995 C 0.83422 0.33258 0.00773 0.0
H996 H 0.86278 0.413 0.04851 0.0
C997 C 0.86637 0.32481 0.98661 0.0
H998 H 0.81052 0.37007 0.04868 0.0
C999 C 0.89704 0.34936 0.98729 0.0
C1000 C 0.89553 0.3821 0.00868 0.0
H1001 H 0.8671 0.30087 0.96838 0.0
H1002 H 0.92104 0.34372 0.96985 0.0
C1003 C 0.86431 0.3885 0.03119 0.0
C1004 C 0.66244 0.82294 0.02417 0.0
C1005 C 0.6987 0.83552 0.01591 0.0
H1006 H 0.60423 0.83727 0.02891 0.0
C1007 C 0.70413 0.87243 0.00488 0.0
H1008 H 0.65775 0.79441 0.03281 0.0
C1009 C 0.67384 0.89683 1.00269 0.0
C1010 C 0.63733 0.88481 0.01145 0.0
H1011 H 0.7319 0.88256 0.99824 0.0
H1012 H 0.67924 0.92529 0.99424 0.0
C1013 C 0.63187 0.8474 0.02183 0.0
C1014 C 0.86484 0.67691 0.03444 0.0
C1015 C 0.8324 0.66923 0.01371 0.0
H1016 H 0.91979 0.65813 0.05029 0.0
C1017 C 0.83224 0.63791 0.99026 0.0
H1018 H 0.86588 0.70082 0.05267 0.0
C1019 C 0.8622 0.61324 0.98983 0.0
C1020 C 0.89381 0.61974 0.01177 0.0
H1021 H 0.8083 0.63175 0.9729 0.0
H1022 H 0.86042 0.58875 0.9725 0.0
C1023 C 0.89552 0.65242 0.03324 0.0
C1024 C 0.3771 0.82121 0.03822 0.0
C1025 C 0.34612 0.8199 0.01418 0.0
H1026 H 0.426 0.85071 0.05549 0.0
C1027 C 0.3387 0.85093 0.99147 0.0
H1028 H 0.38301 0.79838 0.05698 0.0
C1029 C 0.36314 0.88159 0.99134 0.0
C1030 C 0.3955 0.88128 0.01349 0.0
H1031 H 0.31509 0.85082 0.97267 0.0
H1032 H 0.35772 0.90464 0.97271 0.0
C1033 C 0.40173 0.85123 0.03749 0.0
C1034 C 0.66214 0.18098 0.01445 0.0
C1035 C 0.69797 0.16797 0.00512 0.0
H1036 H 0.60427 0.16685 0.02289 0.0
C1037 C 0.703 0.13048 0.99618 0.0
H1038 H 0.6578 0.20998 0.02148 0.0
C1039 C 0.67277 0.10595 0.99705 0.0
C1040 C 0.63669 0.1184 0.00691 0.0
H1041 H 0.73044 0.12001 0.98876 0.0
H1042 H 0.67787 0.07707 0.98999 0.0
C1043 C 0.63159 0.15636 0.01519 0.0
C1044 C 0.48462 0.68408 0.87568 0.0
C1045 C 0.50717 0.68424 0.8436 0.0
H1046 H 0.46939 0.65623 0.9259 0.0
C1047 C 0.52929 0.65276 0.83609 0.0
H1048 H 0.46631 0.70731 0.88185 0.0
C1049 C 0.53031 0.62282 0.86124 0.0
C1050 C 0.50973 0.62423 0.89451 0.0
H1051 H 0.54697 0.65195 0.81172 0.0
H1052 H 0.54833 0.59929 0.85539 0.0
C1053 C 0.48635 0.65482 0.90104 0.0
C1054 C 0.38594 0.51397 0.81977 0.0
C1055 C 0.34868 0.50325 0.82456 0.0
H1056 H 0.43906 0.52301 0.84502 0.0
C1057 C 0.33581 0.4937 0.8601 0.0
H1058 H 0.39633 0.52157 0.79257 0.0
C1059 C 0.36028 0.49455 0.89056 0.0
C1060 C 0.39801 0.50473 0.88576 0.0
H1061 H 0.30702 0.48527 0.8643 0.0
H1062 H 0.34983 0.48659 0.91762 0.0
C1063 C 0.41035 0.5147 0.84995 0.0
C1064 C 0.51281 0.37429 0.81834 0.0
C1065 C 0.51656 0.33604 0.8248 0.0
H1066 H 0.50901 0.42875 0.84171 0.0
C1067 C 0.51914 0.32306 0.86143 0.0
H1068 H 0.51078 0.38487 0.79027 0.0
C1069 C 0.51808 0.3482 0.89127 0.0
C1070 C 0.51457 0.38679 0.88493 0.0
H1071 H 0.52217 0.29357 0.86704 0.0
H1072 H 0.52036 0.33739 0.91921 0.0
C1073 C 0.51185 0.39938 0.84797 0.0
C1074 C 0.69705 0.52869 0.8755 0.0
C1075 C 0.69643 0.507 0.84298 0.0
H1076 H 0.66955 0.54374 0.92577 0.0
C1077 C 0.66376 0.48687 0.83453 0.0
H1078 H 0.72117 0.54562 0.88237 0.0
C1079 C 0.63333 0.48689 0.85927 0.0
C1080 C 0.63552 0.50647 0.89301 0.0
H1081 H 0.66231 0.46996 0.80974 0.0
H1082 H 0.60884 0.47034 0.85281 0.0
C1083 C 0.66739 0.52782 0.90043 0.0
C1084 C 0.50502 0.35058 0.18482 0.0
C1085 C 0.52604 0.31862 0.17619 0.0
H1086 H 0.4857 0.40422 0.16643 0.0
C1087 C 0.54665 0.31824 0.14289 0.0
H1088 H 0.4887 0.35175 0.21008 0.0
C1089 C 0.54397 0.3475 0.11754 0.0
C1090 C 0.52149 0.37853 0.12522 0.0
H1091 H 0.56395 0.29454 0.13573 0.0
H1092 H 0.55936 0.34568 0.09172 0.0
C1093 C 0.503 0.38042 0.15965 0.0
C1094 C 0.69298 0.4722 0.14732 0.0
C1095 C 0.69371 0.49539 0.17873 0.0
H1096 H 0.66393 0.45573 0.09834 0.0
C1097 C 0.66185 0.51693 0.18689 0.0
H1098 H 0.71654 0.45439 0.14073 0.0
C1099 C 0.631 0.51696 0.16262 0.0
C1100 C 0.63197 0.49587 0.12976 0.0
H1101 H 0.66152 0.535 0.2109 0.0
H1102 H 0.60732 0.53482 0.16855 0.0
C1103 C 0.66283 0.47287 0.12296 0.0
C1104 C 0.51815 0.67968 0.15832 0.0
C1105 C 0.51563 0.66682 0.195 0.0
H1106 H 0.51898 0.66524 0.10057 0.0
C1107 C 0.51158 0.62859 0.20153 0.0
H1108 H 0.52139 0.70914 0.15263 0.0
C1109 C 0.51026 0.60344 0.17194 0.0
C1110 C 0.51294 0.61592 0.13494 0.0
H1111 H 0.50959 0.61807 0.22963 0.0
H1112 H 0.50725 0.5741 0.17826 0.0
C1113 C 0.51676 0.65449 0.12853 0.0
C1114 C 0.36299 0.48303 0.18449 0.0
C1115 C 0.33202 0.50611 0.17746 0.0
H1116 H 0.41608 0.46297 0.16464 0.0
C1117 C 0.33272 0.52932 0.14595 0.0
H1118 H 0.36331 0.46485 0.20846 0.0
C1119 C 0.36194 0.52731 0.12052 0.0
C1120 C 0.39192 0.50296 0.12649 0.0
H1121 H 0.30988 0.54831 0.14022 0.0
H1122 H 0.36098 0.54477 0.09602 0.0
C1123 C 0.39294 0.48171 0.15929 0.0
C1124 C 0.86601 0.5071 0.68827 0.0
C1125 C 0.82927 0.5019 0.67555 0.0
H1126 H 0.92418 0.51093 0.67377 0.0
C1127 C 0.82293 0.49607 0.63778 0.0
H1128 H 0.87149 0.51169 0.71743 0.0
C1129 C 0.85281 0.49569 0.61282 0.0
C1130 C 0.88987 0.50111 0.62511 0.0
H1131 H 0.79475 0.49193 0.62745 0.0
H1132 H 0.84665 0.49114 0.58379 0.0
C1133 C 0.89613 0.50663 0.66325 0.0
C1134 C 0.51552 0.85253 0.68718 0.0
C1135 C 0.51358 0.81562 0.67457 0.0
H1136 H 0.51736 0.91041 0.67242 0.0
C1137 C 0.51194 0.80876 0.63642 0.0
H1138 H 0.51687 0.85847 0.71656 0.0
C1139 C 0.51225 0.83831 0.61107 0.0
C1140 C 0.51418 0.87555 0.62334 0.0
H1141 H 0.51042 0.78045 0.62611 0.0
H1142 H 0.51092 0.83182 0.5818 0.0
C1143 C 0.51579 0.88224 0.66182 0.0
C1144 C 0.14921 0.53217 0.69118 0.0
C1145 C 0.18125 0.50935 0.69206 0.0
H1146 H 0.09947 0.5479 0.66225 0.0
C1147 C 0.18951 0.48744 0.66077 0.0
H1148 H 0.14256 0.55042 0.71415 0.0
C1149 C 0.165 0.48686 0.6303 0.0
C1150 C 0.13168 0.50768 0.63104 0.0
H1151 H 0.21392 0.46958 0.66048 0.0
H1152 H 0.17122 0.46889 0.607 0.0
C1153 C 0.12449 0.53088 0.66139 0.0
C1154 C 0.50363 0.17634 0.66105 0.0
C1155 C 0.52275 0.16692 0.69382 0.0
H1156 H 0.48694 0.15888 0.60648 0.0
C1157 C 0.54269 0.13308 0.69491 0.0
H1158 H 0.48792 0.20206 0.65926 0.0
C1159 C 0.54123 0.10806 0.66537 0.0
C1160 C 0.52065 0.11656 0.63339 0.0
H1161 H 0.55866 0.12532 0.71923 0.0
H1162 H 0.55609 0.08186 0.6677 0.0
C1163 C 0.50281 0.15146 0.63098 0.0
C1164 C 0.8263 0.51043 0.37895 0.0
C1165 C 0.83178 0.50095 0.34182 0.0
H1166 H 0.85082 0.51835 0.4321 0.0
C1167 C 0.86802 0.49253 0.32926 0.0
H1168 H 0.79858 0.51717 0.38913 0.0
C1169 C 0.89847 0.49315 0.35397 0.0
C1170 C 0.89289 0.50196 0.39159 0.0
H1171 H 0.87276 0.48515 0.30054 0.0
H1172 H 0.92608 0.48608 0.34382 0.0
C1173 C 0.8564 0.51096 0.40353 0.0
C1174 C 0.54347 0.86997 0.32478 0.0
C1175 C 0.52348 0.83613 0.32603 0.0
H1176 H 0.55714 0.92122 0.35182 0.0
C1177 C 0.50457 0.8268 0.35897 0.0
H1178 H 0.55928 0.87769 0.30033 0.0
C1179 C 0.504 0.85172 0.38902 0.0
C1180 C 0.5219 0.88662 0.38647 0.0
H1181 H 0.48882 0.8011 0.36089 0.0
H1182 H 0.48826 0.84435 0.41361 0.0
C1183 C 0.54227 0.89503 0.35432 0.0
C1184 C 0.16274 0.49554 0.33207 0.0
C1185 C 0.19925 0.50224 0.34476 0.0
H1186 H 0.10461 0.49062 0.34647 0.0
C1187 C 0.20519 0.50987 0.38229 0.0
H1188 H 0.15761 0.48951 0.30311 0.0
C1189 C 0.17515 0.51044 0.40705 0.0
C1190 C 0.13834 0.50342 0.39481 0.0
H1191 H 0.23317 0.51521 0.39258 0.0
H1192 H 0.18098 0.51636 0.43591 0.0
C1193 C 0.13245 0.49624 0.35689 0.0
C1194 C 0.51389 0.19426 0.38307 0.0
C1195 C 0.51782 0.18736 0.34509 0.0
H1196 H 0.50981 0.17124 0.43757 0.0
C1197 C 0.52049 0.15045 0.33264 0.0
H1198 H 0.51181 0.22258 0.39325 0.0
C1199 C 0.51932 0.12075 0.358 0.0
C1200 C 0.51555 0.12749 0.39632 0.0
H1201 H 0.52367 0.14452 0.30338 0.0
H1202 H 0.52167 0.09258 0.34754 0.0
C1203 C 0.51278 0.16472 0.40842 0.0
C1204 C 0.64522 0.81492 0.48784 0.0
C1205 C 0.68094 0.81772 0.5032 0.0
H1206 H 0.59371 0.84227 0.47599 0.0
C1207 C 0.69312 0.85194 0.51771 0.0
H1208 H 0.63547 0.78878 0.47632 0.0
C1209 C 0.66921 0.88298 0.51752 0.0
C1210 C 0.63278 0.8799 0.50314 0.0
H1211 H 0.72078 0.85452 0.52969 0.0
H1212 H 0.67877 0.9089 0.5296 0.0
C1213 C 0.62137 0.84562 0.48779 0.0
C1214 C 0.64493 0.18953 0.52878 0.0
C1215 C 0.68093 0.18592 0.51418 0.0
H1216 H 0.59298 0.16296 0.54076 0.0
C1217 C 0.69302 0.15111 0.50107 0.0
H1218 H 0.63522 0.21613 0.53923 0.0
C1219 C 0.66886 0.12027 0.502 0.0
C1220 C 0.63223 0.12407 0.51574 0.0
H1221 H 0.72084 0.14782 0.48966 0.0
H1222 H 0.67846 0.09387 0.49105 0.0
C1223 C 0.62081 0.15899 0.52955 0.0
C1224 C 0.8751 0.67969 0.536 0.0
C1225 C 0.84453 0.68102 0.51154 0.0
H1226 H 0.92365 0.65026 0.55376 0.0
C1227 C 0.83728 0.64998 0.48883 0.0
H1228 H 0.88088 0.70262 0.55465 0.0
C1229 C 0.86176 0.61931 0.48901 0.0
C1230 C 0.89388 0.61972 0.51152 0.0
H1231 H 0.81388 0.65019 0.46977 0.0
H1232 H 0.85664 0.59626 0.47032 0.0
C1233 C 0.89966 0.64971 0.53559 0.0
C1234 C 0.36624 0.82501 0.48705 0.0
C1235 C 0.33385 0.83316 0.50767 0.0
H1236 H 0.42114 0.84353 0.47061 0.0
C1237 C 0.33373 0.86489 0.53051 0.0
H1238 H 0.36719 0.80072 0.4693 0.0
C1239 C 0.36369 0.88953 0.5304 0.0
C1240 C 0.39521 0.88267 0.50842 0.0
H1241 H 0.30974 0.87143 0.54768 0.0
H1242 H 0.36195 0.91435 0.54726 0.0
C1243 C 0.39692 0.84955 0.48764 0.0
C1244 C 0.16292 0.32322 0.52345 0.0
C1245 C 0.19961 0.33602 0.51783 0.0
H1246 H 0.10464 0.33759 0.52606 0.0
C1247 C 0.20579 0.37359 0.5098 0.0
H1248 H 0.15764 0.2942 0.52975 0.0
C1249 C 0.17578 0.39834 0.50773 0.0
C1250 C 0.13878 0.38602 0.51363 0.0
H1251 H 0.23393 0.38392 0.50527 0.0
H1252 H 0.18179 0.42726 0.50153 0.0
C1253 C 0.13266 0.34804 0.52126 0.0
C1254 C 0.33274 0.13811 0.49056 0.0
C1255 C 0.33287 0.16927 0.51421 0.0
H1256 H 0.361 0.0891 0.47248 0.0
C1257 C 0.3653 0.17688 0.53497 0.0
H1258 H 0.30879 0.13202 0.4732 0.0
C1259 C 0.396 0.15245 0.53363 0.0
C1260 C 0.39433 0.1199 0.51197 0.0
H1261 H 0.3663 0.20069 0.55336 0.0
H1262 H 0.42025 0.15808 0.55075 0.0
C1263 C 0.36274 0.1135 0.48996 0.0
C1264 C 0.83815 0.35209 0.49603 0.0
C1265 C 0.84736 0.31949 0.51567 0.0
H1266 H 0.85585 0.40685 0.47928 0.0
C1267 C 0.88051 0.31889 0.53668 0.0
H1268 H 0.81285 0.3534 0.47957 0.0
C1269 C 0.90532 0.34878 0.53572 0.0
C1270 C 0.89723 0.38049 0.51449 0.0
H1271 H 0.88795 0.29466 0.55301 0.0
H1272 H 0.93116 0.34685 0.55132 0.0
C1273 C 0.86283 0.38252 0.49566 0.0
C1274 C 0.16318 0.68068 0.51854 0.0
C1275 C 0.19791 0.66859 0.50487 0.0
H1276 H 0.10599 0.66597 0.53018 0.0
C1277 C 0.20147 0.63249 0.49095 0.0
H1278 H 0.16001 0.70862 0.52941 0.0
C1279 C 0.17099 0.60825 0.49146 0.0
C1280 C 0.13618 0.61967 0.50587 0.0
H1281 H 0.22801 0.62279 0.48008 0.0
H1282 H 0.17488 0.58035 0.48071 0.0
C1283 C 0.13236 0.6564 0.51886 0.0
loop_
_geom_bond_atom_site_label_1
_geom_bond_atom_site_label_2
_geom_bond_distance
_geom_bond_site_symmetry_2
_ccdc_geom_bond_type
H0 C3 0.929 . S
H1 C6 0.929 . S
H2 C8 0.930 . S
C3 H0 0.929 . S
C3 C4 1.398 . S
C3 C5 1.396 . S
C4 C3 1.398 . S
C4 C8 1.407 . S
C5 C3 1.396 . S
C5 C6 1.394 . S
C6 H1 0.929 . S
C6 C5 1.394 . S
C6 C7 1.382 . S
C7 C6 1.382 . S
C7 C8 1.392 . S
C7 N9 1.420 . S
C8 H2 0.930 . S
C8 C4 1.407 . S
C8 C7 1.392 . S
N9 C7 1.420 . S
N9 C10 1.244 . S
C10 N9 1.244 . S
H11 C14 0.929 . S
H12 C17 0.929 . S
H13 C19 0.930 . S
C14 H11 0.929 . S
C14 C15 1.396 1_545 S
C14 C16 1.395 1_545 S
C15 C14 1.396 1_565 S
C15 C19 1.412 . S
C16 C14 1.395 1_565 S
C16 C17 1.395 . S
C17 H12 0.929 . S
C17 C16 1.395 . S
C17 C18 1.382 . S
C18 C17 1.382 . S
C18 C19 1.392 . S
C18 N20 1.420 . S
C19 H13 0.930 . S
C19 C15 1.412 . S
C19 C18 1.392 . S
N20 C18 1.420 . S
N20 C21 1.244 1_565 S
C21 N20 1.244 1_545 S
H22 C25 0.929 . S
H23 C28 0.929 . S
H24 C30 0.930 . S
C25 H22 0.929 . S
C25 C26 1.398 . S
C25 C27 1.396 . S
C26 C25 1.398 . S
C26 C30 1.407 . S
C27 C25 1.396 . S
C27 C28 1.394 . S
C28 H23 0.929 . S
C28 C27 1.394 . S
C28 C29 1.382 . S
C29 C28 1.382 . S
C29 C30 1.392 . S
C29 N31 1.420 . S
C30 H24 0.930 . S
C30 C26 1.407 . S
C30 C29 1.392 . S
N31 C29 1.420 . S
N31 C32 1.244 . S
C32 N31 1.244 . S
H33 C36 0.929 . S
H34 C39 0.929 . S
H35 C41 0.930 . S
C36 H33 0.929 . S
C36 C37 1.396 1_545 S
C36 C38 1.395 1_545 S
C37 C36 1.396 1_565 S
C37 C41 1.411 . S
C38 C36 1.395 1_565 S
C38 C39 1.395 . S
C39 H34 0.929 . S
C39 C38 1.395 . S
C39 C40 1.382 . S
C40 C39 1.382 . S
C40 C41 1.392 . S
C40 N42 1.420 . S
C41 H35 0.930 . S
C41 C37 1.411 . S
C41 C40 1.392 . S
N42 C40 1.420 . S
N42 C43 1.244 1_565 S
C43 N42 1.244 1_545 S
H44 C47 0.929 . S
H45 C50 0.929 . S
H46 C52 0.930 . S
C47 H44 0.929 . S
C47 C48 1.398 . S
C47 C49 1.396 . S
C48 C47 1.398 . S
C48 C52 1.407 . S
C49 C47 1.396 . S
C49 C50 1.394 . S
C50 H45 0.929 . S
C50 C49 1.394 . S
C50 C51 1.382 . S
C51 C50 1.382 . S
C51 C52 1.392 . S
C51 N53 1.420 . S
C52 H46 0.930 . S
C52 C48 1.407 . S
C52 C51 1.392 . S
N53 C51 1.420 . S
N53 C54 1.244 . S
C54 N53 1.244 . S
H55 C58 0.929 . S
H56 C61 0.929 . S
H57 C63 0.930 . S
C58 H55 0.929 . S
C58 C59 1.398 1_565 S
C58 C60 1.393 1_565 S
C59 C58 1.398 1_545 S
C59 C63 1.407 . S
C60 C58 1.393 1_545 S
C60 C61 1.400 . S
C61 H56 0.929 . S
C61 C60 1.400 . S
C61 C62 1.382 . S
C62 C61 1.382 . S
C62 C63 1.392 . S
C62 N64 1.420 . S
C63 H57 0.930 . S
C63 C59 1.407 . S
C63 C62 1.392 . S
N64 C62 1.420 . S
N64 C65 1.238 1_545 S
C65 N64 1.238 1_565 S
H66 C69 0.929 . S
H67 C72 0.929 . S
H68 C74 0.930 . S
C69 H66 0.929 . S
C69 C70 1.398 . S
C69 C71 1.396 . S
C70 C69 1.398 . S
C70 C74 1.407 . S
C71 C69 1.396 . S
C71 C72 1.394 . S
C72 H67 0.929 . S
C72 C71 1.394 . S
C72 C73 1.382 . S
C73 C72 1.382 . S
C73 C74 1.392 . S
C73 N75 1.420 . S
C74 H68 0.930 . S
C74 C70 1.407 . S
C74 C73 1.392 . S
N75 C73 1.420 . S
N75 C76 1.244 . S
C76 N75 1.244 . S
H77 C80 0.929 . S
H78 C83 0.929 . S
H79 C85 0.930 . S
C80 H77 0.929 . S
C80 C81 1.396 1_545 S
C80 C82 1.395 1_545 S
C81 C80 1.396 1_565 S
C81 C85 1.413 . S
C82 C80 1.395 1_565 S
C82 C83 1.396 . S
C83 H78 0.929 . S
C83 C82 1.396 . S
C83 C84 1.382 . S
C84 C83 1.382 . S
C84 C85 1.392 . S
C84 N86 1.420 . S
C85 H79 0.930 . S
C85 C81 1.413 . S
C85 C84 1.392 . S
N86 C84 1.420 . S
N86 C87 1.244 1_565 S
C87 N86 1.244 1_545 S
H88 C91 0.929 . S
H89 C94 0.929 . S
H90 C96 0.930 . S
C91 H88 0.929 . S
C91 C92 1.398 . S
C91 C93 1.396 . S
C92 C91 1.398 . S
C92 C96 1.407 1_554 S
C93 C91 1.396 . S
C93 C94 1.394 1_554 S
C94 H89 0.929 . S
C94 C93 1.394 1_556 S
C94 C95 1.382 . S
C95 C94 1.382 . S
C95 C96 1.392 . S
C95 N97 1.420 . S
C96 H90 0.930 . S
C96 C92 1.407 1_556 S
C96 C95 1.392 . S
N97 C95 1.420 . S
N97 C98 1.244 1_556 S
C98 N97 1.244 1_554 S
H99 C102 0.929 1_556 S
H100 C105 0.929 . S
H101 C107 0.930 . S
C102 H99 0.929 1_554 S
C102 C103 1.398 . S
C102 C104 1.396 . S
C103 C102 1.398 . S
C103 C107 1.407 . S
C104 C102 1.396 . S
C104 C105 1.394 . S
C105 H100 0.929 . S
C105 C104 1.394 . S
C105 C106 1.382 . S
C106 C105 1.382 . S
C106 C107 1.392 . S
C106 N108 1.420 . S
C107 H101 0.930 . S
C107 C103 1.407 . S
C107 C106 1.392 . S
N108 C106 1.420 . S
N108 C109 1.244 . S
C109 N108 1.244 . S
H110 C113 0.929 . S
H111 C116 0.929 . S
H112 C118 0.930 . S
C113 H110 0.929 . S
C113 C114 1.398 . S
C113 C115 1.396 . S
C114 C113 1.398 . S
C114 C118 1.407 1_554 S
C115 C113 1.396 . S
C115 C116 1.394 1_554 S
C116 H111 0.929 . S
C116 C115 1.394 1_556 S
C116 C117 1.382 . S
C117 C116 1.382 . S
C117 C118 1.392 . S
C117 N119 1.420 . S
C118 H112 0.930 . S
C118 C114 1.407 1_556 S
C118 C117 1.392 . S
N119 C117 1.420 . S
N119 C120 1.244 1_556 S
C120 N119 1.244 1_554 S
H121 C124 0.929 1_556 S
H122 C127 0.929 . S
H123 C129 0.930 . S
C124 H121 0.929 1_554 S
C124 C125 1.398 . S
C124 C126 1.396 . S
C125 C124 1.398 . S
C125 C129 1.407 . S
C126 C124 1.396 . S
C126 C127 1.394 . S
C127 H122 0.929 . S
C127 C126 1.394 . S
C127 C128 1.382 . S
C128 C127 1.382 . S
C128 C129 1.392 . S
C128 N130 1.420 . S
C129 H123 0.930 . S
C129 C125 1.407 . S
C129 C128 1.392 . S
N130 C128 1.420 . S
N130 C131 1.244 . S
C131 N130 1.244 . S
H132 C135 0.929 . S
H133 C138 0.929 . S
H134 C140 0.930 . S
C135 H132 0.929 . S
C135 C136 1.398 . S
C135 C137 1.396 . S
C136 C135 1.398 . S
C136 C140 1.407 . S
C137 C135 1.396 . S
C137 C138 1.394 . S
C138 H133 0.929 . S
C138 C137 1.394 . S
C138 C139 1.382 . S
C139 C138 1.382 . S
C139 C140 1.392 . S
C139 N141 1.420 . S
C140 H134 0.930 . S
C140 C136 1.407 . S
C140 C139 1.392 . S
N141 C139 1.420 . S
N141 C142 1.244 . S
C142 N141 1.244 . S
H143 C146 0.929 . S
H144 C149 0.929 . S
H145 C151 0.930 . S
C146 H143 0.929 . S
C146 C147 1.398 . S
C146 C148 1.396 . S
C147 C146 1.398 . S
C147 C151 1.407 . S
C148 C146 1.396 . S
C148 C149 1.394 . S
C149 H144 0.929 . S
C149 C148 1.394 . S
C149 C150 1.382 . S
C150 C149 1.382 . S
C150 C151 1.392 . S
C150 N152 1.420 . S
C151 H145 0.930 . S
C151 C147 1.407 . S
C151 C150 1.392 . S
N152 C150 1.420 . S
N152 C153 1.244 . S
C153 N152 1.244 . S
H154 C157 0.929 . S
H155 C160 0.929 . S
H156 C162 0.930 . S
C157 H154 0.929 . S
C157 C158 1.398 . S
C157 C159 1.396 . S
C158 C157 1.398 . S
C158 C162 1.407 . S
C159 C157 1.396 . S
C159 C160 1.394 . S
C160 H155 0.929 . S
C160 C159 1.394 . S
C160 C161 1.382 . S
C161 C160 1.382 . S
C161 C162 1.392 . S
C161 N163 1.420 . S
C162 H156 0.930 . S
C162 C158 1.407 . S
C162 C161 1.392 . S
N163 C161 1.420 . S
N163 C164 1.244 . S
C164 N163 1.244 . S
H165 C168 0.929 . S
H166 C171 0.929 . S
H167 C173 0.930 . S
C168 H165 0.929 . S
C168 C169 1.398 . S
C168 C170 1.396 . S
C169 C168 1.398 . S
C169 C173 1.407 . S
C170 C168 1.396 . S
C170 C171 1.394 . S
C171 H166 0.929 . S
C171 C170 1.394 . S
C171 C172 1.382 . S
C172 C171 1.382 . S
C172 C173 1.392 . S
C172 N174 1.420 . S
C173 H167 0.930 . S
C173 C169 1.407 . S
C173 C172 1.392 . S
N174 C172 1.420 . S
N174 C175 1.244 . S
C175 N174 1.244 . S
H176 C179 0.929 . S
H177 C182 0.929 . S
H178 C184 0.930 . S
C179 H176 0.929 . S
C179 C180 1.398 . S
C179 C181 1.396 . S
C180 C179 1.398 . S
C180 C184 1.407 . S
C181 C179 1.396 . S
C181 C182 1.394 . S
C182 H177 0.929 . S
C182 C181 1.394 . S
C182 C183 1.382 . S
C183 C182 1.382 . S
C183 C184 1.392 . S
C183 N185 1.420 . S
C184 H178 0.930 . S
C184 C180 1.407 . S
C184 C183 1.392 . S
N185 C183 1.420 . S
N185 C186 1.244 . S
C186 N185 1.244 . S
H187 C190 0.929 . S
H188 C193 0.929 . S
H189 C195 0.930 . S
C190 H187 0.929 . S
C190 C191 1.398 . S
C190 C192 1.396 . S
C191 C190 1.398 . S
C191 C195 1.407 . S
C192 C190 1.396 . S
C192 C193 1.394 . S
C193 H188 0.929 . S
C193 C192 1.394 . S
C193 C194 1.382 . S
C194 C193 1.382 . S
C194 C195 1.392 . S
C194 N196 1.420 . S
C195 H189 0.930 . S
C195 C191 1.407 . S
C195 C194 1.392 . S
N196 C194 1.420 . S
N196 C197 1.244 . S
C197 N196 1.244 . S
H198 C201 0.929 . S
H199 C204 0.929 . S
H200 C206 0.930 . S
C201 H198 0.929 . S
C201 C202 1.398 . S
C201 C203 1.396 . S
C202 C201 1.398 . S
C202 C206 1.407 . S
C203 C201 1.396 . S
C203 C204 1.394 . S
C204 H199 0.929 . S
C204 C203 1.394 . S
C204 C205 1.382 . S
C205 C204 1.382 . S
C205 C206 1.392 . S
C205 N207 1.420 . S
C206 H200 0.930 . S
C206 C202 1.407 . S
C206 C205 1.392 . S
N207 C205 1.420 . S
N207 C208 1.244 . S
C208 N207 1.244 . S
H209 C212 0.929 . S
H210 C215 0.929 . S
H211 C217 0.930 . S
C212 H209 0.929 . S
C212 C213 1.398 . S
C212 C214 1.396 . S
C213 C212 1.398 . S
C213 C217 1.407 . S
C214 C212 1.396 . S
C214 C215 1.394 . S
C215 H210 0.929 . S
C215 C214 1.394 . S
C215 C216 1.382 . S
C216 C215 1.382 . S
C216 C217 1.392 . S
C216 N218 1.420 . S
C217 H211 0.930 . S
C217 C213 1.407 . S
C217 C216 1.392 . S
N218 C216 1.420 . S
N218 C219 1.244 . S
C219 N218 1.244 . S
H220 C223 0.929 . S
H221 C226 0.929 . S
H222 C228 0.930 . S
C223 H220 0.929 . S
C223 C224 1.398 . S
C223 C225 1.396 . S
C224 C223 1.398 . S
C224 C228 1.407 . S
C225 C223 1.396 . S
C225 C226 1.394 . S
C226 H221 0.929 . S
C226 C225 1.394 . S
C226 C227 1.382 . S
C227 C226 1.382 . S
C227 C228 1.392 . S
C227 N229 1.420 . S
C228 H222 0.930 . S
C228 C224 1.407 . S
C228 C227 1.392 . S
N229 C227 1.420 . S
N229 C230 1.244 . S
C230 N229 1.244 . S
H231 C234 0.929 . S
H232 C237 0.929 . S
H233 C239 0.930 . S
C234 H231 0.929 . S
C234 C235 1.398 . S
C234 C236 1.396 . S
C235 C234 1.398 . S
C235 C239 1.407 . S
C236 C234 1.396 . S
C236 C237 1.394 . S
C237 H232 0.929 . S
C237 C236 1.394 . S
C237 C238 1.382 . S
C238 C237 1.382 . S
C238 C239 1.392 . S
C238 N240 1.420 . S
C239 H233 0.930 . S
C239 C235 1.407 . S
C239 C238 1.392 . S
N240 C238 1.420 . S
N240 C241 1.244 . S
C241 N240 1.244 . S
H242 C245 0.929 . S
H243 C248 0.929 . S
H244 C250 0.930 . S
C245 H242 0.929 . S
C245 C246 1.398 . S
C245 C247 1.396 . S
C246 C245 1.398 . S
C246 C250 1.407 . S
C247 C245 1.396 . S
C247 C248 1.394 . S
C248 H243 0.929 . S
C248 C247 1.394 . S
C248 C249 1.382 . S
C249 C248 1.382 . S
C249 C250 1.392 . S
C249 N251 1.420 . S
C250 H244 0.930 . S
C250 C246 1.407 . S
C250 C249 1.392 . S
N251 C249 1.420 . S
N251 C252 1.244 . S
C252 N251 1.244 . S
H253 C256 0.929 . S
H254 C259 0.929 . S
H255 C261 0.930 . S
C256 H253 0.929 . S
C256 C257 1.398 . S
C256 C258 1.396 . S
C257 C256 1.398 . S
C257 C261 1.407 . S
C258 C256 1.396 . S
C258 C259 1.394 . S
C259 H254 0.929 . S
C259 C258 1.394 . S
C259 C260 1.382 . S
C260 C259 1.382 . S
C260 C261 1.392 . S
C260 N262 1.420 . S
C261 H255 0.930 . S
C261 C257 1.407 . S
C261 C260 1.392 . S
N262 C260 1.420 . S
N262 C263 1.244 . S
C263 N262 1.244 . S
C264 O290 1.283 . S
C264 O308 1.283 . S
C265 O291 1.283 . S
C265 O306 1.283 . S
C266 O292 1.283 . S
C266 O309 1.283 . S
C267 O293 1.283 . S
C267 O307 1.283 . S
C268 O294 1.283 . S
C268 O303 1.283 . S
C269 O295 1.283 . S
C269 O305 1.283 . S
C270 O296 1.283 . S
C270 O302 1.283 . S
C271 O297 1.283 . S
C271 O304 1.283 . S
C272 O298 1.283 . S
C272 O313 1.283 . S
C273 O299 1.283 . S
C273 O311 1.283 . S
C274 O300 1.283 . S
C274 O312 1.283 . S
C275 O301 1.283 . S
C275 O310 1.283 . S
Eu276 O277 2.370 1_455 S
Eu276 O278 2.370 . S
Eu276 O281 2.370 1_455 S
Eu276 O282 2.370 . S
Eu276 O290 2.363 . S
Eu276 O291 2.363 . S
Eu276 O304 2.363 . S
Eu276 O305 2.363 1_455 S
O277 Eu276 2.370 1_655 S
O277 Eu279 2.364 1_565 S
O277 Eu284 2.364 1_665 S
O278 Eu276 2.370 . S
O278 Eu280 2.364 1_565 S
O278 Eu283 2.365 1_565 S
Eu279 O277 2.364 1_545 S
Eu279 O281 2.364 1_545 S
Eu279 O285 2.376 . S
Eu279 O286 2.376 . S
Eu279 O294 2.373 . S
Eu279 O295 2.353 1_545 S
Eu279 O310 2.363 . S
Eu279 O311 2.363 . S
Eu280 O278 2.364 1_545 S
Eu280 O282 2.364 1_545 S
Eu280 O287 2.376 . S
Eu280 O288 2.376 . S
Eu280 O296 2.373 . S
Eu280 O297 2.353 1_545 S
Eu280 O312 2.363 . S
Eu280 O313 2.363 . S
O281 Eu276 2.370 1_655 S
O281 Eu279 2.364 1_565 S
O281 Eu283 2.365 1_665 S
O282 Eu276 2.370 . S
O282 Eu280 2.364 1_565 S
O282 Eu284 2.364 1_565 S
Eu283 O278 2.365 1_545 S
Eu283 O281 2.365 1_445 S
Eu283 O285 2.376 1_455 S
Eu283 O288 2.376 . S
Eu283 O300 2.363 . S
Eu283 O301 2.363 1_455 S
Eu283 O308 2.354 1_545 S
Eu283 O309 2.372 . S
Eu284 O277 2.364 1_445 S
Eu284 O282 2.364 1_545 S
Eu284 O286 2.376 1_455 S
Eu284 O287 2.376 . S
Eu284 O298 2.363 . S
Eu284 O299 2.363 1_455 S
Eu284 O306 2.352 1_545 S
Eu284 O307 2.373 . S
O285 Eu279 2.376 . S
O285 Eu283 2.376 1_655 S
O285 Eu289 2.370 1_655 S
O286 Eu279 2.376 . S
O286 Eu284 2.376 1_655 S
O286 Eu289 2.370 1_655 S
O287 Eu280 2.376 . S
O287 Eu284 2.376 . S
O287 Eu289 2.370 . S
O288 Eu280 2.376 . S
O288 Eu283 2.376 . S
O288 Eu289 2.370 . S
Eu289 O285 2.370 1_455 S
Eu289 O286 2.370 1_455 S
Eu289 O287 2.370 . S
Eu289 O288 2.370 . S
Eu289 O292 2.363 . S
Eu289 O293 2.363 . S
Eu289 O302 2.363 . S
Eu289 O303 2.363 1_455 S
O290 C264 1.283 . S
O290 Eu276 2.363 . S
O291 C265 1.283 . S
O291 Eu276 2.363 . S
O292 C266 1.283 . S
O292 Eu289 2.363 . S
O293 C267 1.283 . S
O293 Eu289 2.363 . S
O294 C268 1.283 . S
O294 Eu279 2.373 . S
O295 C269 1.283 . S
O295 Eu279 2.353 1_565 S
O296 C270 1.283 . S
O296 Eu280 2.373 . S
O297 C271 1.283 . S
O297 Eu280 2.353 1_565 S
O298 C272 1.283 . S
O298 Eu284 2.363 . S
O299 C273 1.283 . S
O299 Eu284 2.363 1_655 S
O300 C274 1.283 . S
O300 Eu283 2.363 . S
O301 C275 1.283 . S
O301 Eu283 2.363 1_655 S
O302 C270 1.283 . S
O302 Eu289 2.363 . S
O303 C268 1.283 . S
O303 Eu289 2.363 1_655 S
O304 C271 1.283 . S
O304 Eu276 2.363 . S
O305 C269 1.283 . S
O305 Eu276 2.363 1_655 S
O306 C265 1.283 . S
O306 Eu284 2.352 1_565 S
O307 C267 1.283 . S
O307 Eu284 2.373 . S
O308 C264 1.283 . S
O308 Eu283 2.354 1_565 S
O309 C266 1.283 . S
O309 Eu283 2.372 . S
O310 C275 1.283 . S
O310 Eu279 2.363 . S
O311 C273 1.283 . S
O311 Eu279 2.363 . S
O312 C274 1.283 . S
O312 Eu280 2.363 . S
O313 C272 1.283 . S
O313 Eu280 2.363 . S
C314 O340 1.283 . S
C314 O358 1.283 . S
C315 O341 1.283 . S
C315 O356 1.283 . S
C316 O342 1.283 . S
C316 O359 1.283 . S
C317 O343 1.283 . S
C317 O357 1.283 . S
C318 O344 1.283 . S
C318 O353 1.283 . S
C319 O345 1.283 . S
C319 O355 1.283 . S
C320 O346 1.283 . S
C320 O352 1.283 . S
C321 O347 1.283 . S
C321 O354 1.283 . S
C322 O348 1.283 . S
C322 O363 1.283 . S
C323 O349 1.283 . S
C323 O361 1.283 . S
C324 O350 1.283 . S
C324 O362 1.283 . S
C325 O351 1.283 . S
C325 O360 1.283 . S
Eu326 O327 2.380 . S
Eu326 O328 2.360 1_545 S
Eu326 O331 2.360 1_545 S
Eu326 O332 2.380 . S
Eu326 O340 2.345 1_545 S
Eu326 O341 2.381 . S
Eu326 O354 2.363 . S
Eu326 O355 2.363 . S
O327 Eu326 2.380 . S
O327 Eu329 2.376 . S
O327 Eu334 2.370 . S
O328 Eu326 2.360 1_565 S
O328 Eu330 2.364 1_565 S
O328 Eu333 2.370 . S
Eu329 O327 2.376 . S
Eu329 O331 2.365 1_545 S
Eu329 O335 2.365 1_544 S
Eu329 O336 2.376 1_554 S
Eu329 O344 2.363 1_554 S
Eu329 O345 2.363 . S
Eu329 O360 2.354 1_545 S
Eu329 O361 2.372 . S
Eu330 O328 2.364 1_545 S
Eu330 O332 2.376 . S
Eu330 O337 2.376 1_554 S
Eu330 O338 2.364 1_544 S
Eu330 O346 2.363 1_554 S
Eu330 O347 2.363 . S
Eu330 O362 2.353 1_545 S
Eu330 O363 2.373 . S
O331 Eu326 2.360 1_565 S
O331 Eu329 2.365 1_565 S
O331 Eu333 2.370 . S
O332 Eu326 2.380 . S
O332 Eu330 2.376 . S
O332 Eu334 2.370 . S
Eu333 O328 2.370 . S
Eu333 O331 2.370 . S
Eu333 O335 2.370 1_554 S
Eu333 O338 2.370 1_554 S
Eu333 O350 2.363 . S
Eu333 O351 2.363 . S
Eu333 O358 2.363 . S
Eu333 O359 2.363 1_554 S
Eu334 O327 2.370 . S
Eu334 O332 2.370 . S
Eu334 O336 2.370 1_554 S
Eu334 O337 2.370 1_554 S
Eu334 O348 2.363 . S
Eu334 O349 2.363 . S
Eu334 O356 2.363 . S
Eu334 O357 2.363 1_554 S
O335 Eu329 2.365 1_566 S
O335 Eu333 2.370 1_556 S
O335 Eu339 2.369 1_565 S
O336 Eu329 2.376 1_556 S
O336 Eu334 2.370 1_556 S
O336 Eu339 2.371 . S
O337 Eu330 2.376 1_556 S
O337 Eu334 2.370 1_556 S
O337 Eu339 2.371 . S
O338 Eu330 2.364 1_566 S
O338 Eu333 2.370 1_556 S
O338 Eu339 2.369 1_565 S
Eu339 O335 2.369 1_545 S
Eu339 O336 2.371 . S
Eu339 O337 2.371 . S
Eu339 O338 2.369 1_545 S
Eu339 O342 2.361 1_545 S
Eu339 O343 2.364 . S
Eu339 O352 2.363 . S
Eu339 O353 2.363 . S
O340 C314 1.283 . S
O340 Eu326 2.345 1_565 S
O341 C315 1.283 . S
O341 Eu326 2.381 . S
O342 C316 1.283 . S
O342 Eu339 2.361 1_565 S
O343 C317 1.283 . S
O343 Eu339 2.364 . S
O344 C318 1.283 . S
O344 Eu329 2.363 1_556 S
O345 C319 1.283 . S
O345 Eu329 2.363 . S
O346 C320 1.283 . S
O346 Eu330 2.363 1_556 S
O347 C321 1.283 . S
O347 Eu330 2.363 . S
O348 C322 1.283 . S
O348 Eu334 2.363 . S
O349 C323 1.283 . S
O349 Eu334 2.363 . S
O350 C324 1.283 . S
O350 Eu333 2.363 . S
O351 C325 1.283 . S
O351 Eu333 2.363 . S
O352 C320 1.283 . S
O352 Eu339 2.363 . S
O353 C318 1.283 . S
O353 Eu339 2.363 . S
O354 C321 1.283 . S
O354 Eu326 2.363 . S
O355 C319 1.283 . S
O355 Eu326 2.363 . S
O356 C315 1.283 . S
O356 Eu334 2.363 . S
O357 C317 1.283 . S
O357 Eu334 2.363 1_556 S
O358 C314 1.283 . S
O358 Eu333 2.363 . S
O359 C316 1.283 . S
O359 Eu333 2.363 1_556 S
O360 C325 1.283 . S
O360 Eu329 2.354 1_565 S
O361 C323 1.283 . S
O361 Eu329 2.372 . S
O362 C324 1.283 . S
O362 Eu330 2.353 1_565 S
O363 C322 1.283 . S
O363 Eu330 2.373 . S
C364 O390 1.283 . S
C364 O408 1.283 . S
C365 O391 1.283 . S
C365 O406 1.283 . S
C366 O392 1.283 . S
C366 O409 1.283 . S
C367 O393 1.283 . S
C367 O407 1.283 . S
C368 O394 1.283 . S
C368 O403 1.283 . S
C369 O395 1.283 . S
C369 O405 1.283 . S
C370 O396 1.283 . S
C370 O402 1.283 . S
C371 O397 1.283 . S
C371 O404 1.283 . S
C372 O398 1.283 . S
C372 O413 1.283 . S
C373 O399 1.283 . S
C373 O411 1.283 . S
C374 O400 1.283 . S
C374 O412 1.283 . S
C375 O401 1.283 . S
C375 O410 1.283 . S
Eu376 O377 2.370 1_454 S
Eu376 O378 2.370 . S
Eu376 O381 2.370 1_455 S
Eu376 O382 2.370 1_554 S
Eu376 O390 2.363 . S
Eu376 O391 2.363 1_554 S
Eu376 O404 2.363 . S
Eu376 O405 2.363 1_455 S
O377 Eu376 2.370 1_656 S
O377 Eu379 2.370 1_556 S
O377 Eu384 2.370 1_655 S
O378 Eu376 2.370 . S
O378 Eu380 2.370 . S
O378 Eu383 2.370 . S
Eu379 O377 2.370 1_554 S
Eu379 O381 2.370 . S
Eu379 O385 2.370 . S
Eu379 O386 2.370 1_554 S
Eu379 O394 2.363 . S
Eu379 O395 2.363 . S
Eu379 O410 2.363 . S
Eu379 O411 2.363 1_554 S
Eu380 O378 2.370 . S
Eu380 O382 2.370 1_554 S
Eu380 O387 2.370 1_554 S
Eu380 O388 2.370 . S
Eu380 O396 2.363 . S
Eu380 O397 2.363 . S
Eu380 O412 2.363 . S
Eu380 O413 2.363 1_554 S
O381 Eu376 2.370 1_655 S
O381 Eu379 2.370 . S
O381 Eu383 2.370 1_655 S
O382 Eu376 2.370 1_556 S
O382 Eu380 2.370 1_556 S
O382 Eu384 2.370 . S
Eu383 O378 2.370 . S
Eu383 O381 2.370 1_455 S
Eu383 O385 2.370 1_455 S
Eu383 O388 2.370 . S
Eu383 O400 2.363 . S
Eu383 O401 2.363 1_455 S
Eu383 O408 2.363 . S
Eu383 O409 2.363 . S
Eu384 O377 2.370 1_455 S
Eu384 O382 2.370 . S
Eu384 O386 2.370 1_455 S
Eu384 O387 2.370 . S
Eu384 O398 2.363 . S
Eu384 O399 2.363 1_455 S
Eu384 O406 2.363 . S
Eu384 O407 2.363 . S
O385 Eu379 2.370 . S
O385 Eu383 2.370 1_655 S
O385 Eu389 2.370 1_655 S
O386 Eu379 2.370 1_556 S
O386 Eu384 2.370 1_655 S
O386 Eu389 2.370 1_656 S
O387 Eu380 2.370 1_556 S
O387 Eu384 2.370 . S
O387 Eu389 2.370 1_556 S
O388 Eu380 2.370 . S
O388 Eu383 2.370 . S
O388 Eu389 2.370 . S
Eu389 O385 2.370 1_455 S
Eu389 O386 2.370 1_454 S
Eu389 O387 2.370 1_554 S
Eu389 O388 2.370 . S
Eu389 O392 2.363 . S
Eu389 O393 2.363 1_554 S
Eu389 O402 2.363 . S
Eu389 O403 2.363 1_455 S
O390 C364 1.283 . S
O390 Eu376 2.363 . S
O391 C365 1.283 . S
O391 Eu376 2.363 1_556 S
O392 C366 1.283 . S
O392 Eu389 2.363 . S
O393 C367 1.283 . S
O393 Eu389 2.363 1_556 S
O394 C368 1.283 . S
O394 Eu379 2.363 . S
O395 C369 1.283 . S
O395 Eu379 2.363 . S
O396 C370 1.283 . S
O396 Eu380 2.363 . S
O397 C371 1.283 . S
O397 Eu380 2.363 . S
O398 C372 1.283 . S
O398 Eu384 2.363 . S
O399 C373 1.283 . S
O399 Eu384 2.363 1_655 S
O400 C374 1.283 . S
O400 Eu383 2.363 . S
O401 C375 1.283 . S
O401 Eu383 2.363 1_655 S
O402 C370 1.283 . S
O402 Eu389 2.363 . S
O403 C368 1.283 . S
O403 Eu389 2.363 1_655 S
O404 C371 1.283 . S
O404 Eu376 2.363 . S
O405 C369 1.283 . S
O405 Eu376 2.363 1_655 S
O406 C365 1.283 . S
O406 Eu384 2.363 . S
O407 C367 1.283 . S
O407 Eu384 2.363 . S
O408 C364 1.283 . S
O408 Eu383 2.363 . S
O409 C366 1.283 . S
O409 Eu383 2.363 . S
O410 C375 1.283 . S
O410 Eu379 2.363 . S
O411 C373 1.283 . S
O411 Eu379 2.363 1_556 S
O412 C374 1.283 . S
O412 Eu380 2.363 . S
O413 C372 1.283 . S
O413 Eu380 2.363 1_556 S
C414 O440 1.283 . S
C414 O458 1.283 . S
C415 O441 1.283 . S
C415 O456 1.283 . S
C416 O442 1.283 . S
C416 O459 1.283 . S
C417 O443 1.283 . S
C417 O457 1.283 . S
C418 O444 1.283 . S
C418 O453 1.283 . S
C419 O445 1.283 . S
C419 O455 1.283 . S
C420 O446 1.283 . S
C420 O452 1.283 . S
C421 O447 1.283 . S
C421 O454 1.283 . S
C422 O448 1.283 . S
C422 O463 1.283 . S
C423 O449 1.283 . S
C423 O461 1.283 . S
C424 O450 1.283 . S
C424 O462 1.283 . S
C425 O451 1.283 . S
C425 O460 1.283 . S
Eu426 O427 2.370 . S
Eu426 O428 2.370 . S
Eu426 O431 2.370 . S
Eu426 O432 2.370 . S
Eu426 O440 2.363 . S
Eu426 O441 2.363 . S
Eu426 O454 2.363 . S
Eu426 O455 2.363 . S
O427 Eu426 2.370 . S
O427 Eu429 2.370 . S
O427 Eu434 2.370 . S
O428 Eu426 2.370 . S
O428 Eu430 2.370 . S
O428 Eu433 2.370 . S
Eu429 O427 2.370 . S
Eu429 O431 2.370 . S
Eu429 O435 2.370 1_554 S
Eu429 O436 2.370 1_554 S
Eu429 O444 2.363 1_554 S
Eu429 O445 2.363 . S
Eu429 O460 2.363 . S
Eu429 O461 2.363 . S
Eu430 O428 2.370 . S
Eu430 O432 2.370 . S
Eu430 O437 2.370 1_554 S
Eu430 O438 2.370 1_554 S
Eu430 O446 2.363 1_554 S
Eu430 O447 2.363 . S
Eu430 O462 2.363 . S
Eu430 O463 2.363 . S
O431 Eu426 2.370 . S
O431 Eu429 2.370 . S
O431 Eu433 2.370 . S
O432 Eu426 2.370 . S
O432 Eu430 2.370 . S
O432 Eu434 2.370 . S
Eu433 O428 2.370 . S
Eu433 O431 2.370 . S
Eu433 O435 2.370 1_554 S
Eu433 O438 2.370 1_554 S
Eu433 O450 2.363 . S
Eu433 O451 2.363 . S
Eu433 O458 2.363 . S
Eu433 O459 2.363 1_554 S
Eu434 O427 2.370 . S
Eu434 O432 2.370 . S
Eu434 O436 2.370 1_554 S
Eu434 O437 2.370 1_554 S
Eu434 O448 2.363 . S
Eu434 O449 2.363 . S
Eu434 O456 2.363 . S
Eu434 O457 2.363 1_554 S
O435 Eu429 2.370 1_556 S
O435 Eu433 2.370 1_556 S
O435 Eu439 2.370 . S
O436 Eu429 2.370 1_556 S
O436 Eu434 2.370 1_556 S
O436 Eu439 2.370 . S
O437 Eu430 2.370 1_556 S
O437 Eu434 2.370 1_556 S
O437 Eu439 2.370 . S
O438 Eu430 2.370 1_556 S
O438 Eu433 2.370 1_556 S
O438 Eu439 2.370 . S
Eu439 O435 2.370 . S
Eu439 O436 2.370 . S
Eu439 O437 2.370 . S
Eu439 O438 2.370 . S
Eu439 O442 2.363 . S
Eu439 O443 2.363 . S
Eu439 O452 2.363 . S
Eu439 O453 2.363 . S
O440 C414 1.283 . S
O440 Eu426 2.363 . S
O441 C415 1.283 . S
O441 Eu426 2.363 . S
O442 C416 1.283 . S
O442 Eu439 2.363 . S
O443 C417 1.283 . S
O443 Eu439 2.363 . S
O444 C418 1.283 . S
O444 Eu429 2.363 1_556 S
O445 C419 1.283 . S
O445 Eu429 2.363 . S
O446 C420 1.283 . S
O446 Eu430 2.363 1_556 S
O447 C421 1.283 . S
O447 Eu430 2.363 . S
O448 C422 1.283 . S
O448 Eu434 2.363 . S
O449 C423 1.283 . S
O449 Eu434 2.363 . S
O450 C424 1.283 . S
O450 Eu433 2.363 . S
O451 C425 1.283 . S
O451 Eu433 2.363 . S
O452 C420 1.283 . S
O452 Eu439 2.363 . S
O453 C418 1.283 . S
O453 Eu439 2.363 . S
O454 C421 1.283 . S
O454 Eu426 2.363 . S
O455 C419 1.283 . S
O455 Eu426 2.363 . S
O456 C415 1.283 . S
O456 Eu434 2.363 . S
O457 C417 1.283 . S
O457 Eu434 2.363 1_556 S
O458 C414 1.283 . S
O458 Eu433 2.363 . S
O459 C416 1.283 . S
O459 Eu433 2.363 1_556 S
O460 C425 1.283 . S
O460 Eu429 2.363 . S
O461 C423 1.283 . S
O461 Eu429 2.363 . S
O462 C424 1.283 . S
O462 Eu430 2.363 . S
O463 C422 1.283 . S
O463 Eu430 2.363 . S
C464 O490 1.283 . S
C464 O508 1.283 . S
C465 O491 1.283 . S
C465 O506 1.283 . S
C466 O492 1.283 . S
C466 O509 1.283 . S
C467 O493 1.283 . S
C467 O507 1.283 . S
C468 O494 1.283 . S
C468 O503 1.283 . S
C469 O495 1.283 . S
C469 O505 1.283 . S
C470 O496 1.283 . S
C470 O502 1.283 . S
C471 O497 1.283 . S
C471 O504 1.283 . S
C472 O498 1.283 . S
C472 O513 1.283 . S
C473 O499 1.283 . S
C473 O511 1.283 . S
C474 O500 1.283 . S
C474 O512 1.283 . S
C475 O501 1.283 . S
C475 O510 1.283 . S
Eu476 O477 2.370 1_455 S
Eu476 O478 2.370 . S
Eu476 O481 2.370 1_455 S
Eu476 O482 2.370 . S
Eu476 O490 2.363 . S
Eu476 O491 2.363 . S
Eu476 O504 2.363 . S
Eu476 O505 2.363 1_455 S
O477 Eu476 2.370 1_655 S
O477 Eu479 2.370 . S
O477 Eu484 2.370 1_655 S
O478 Eu476 2.370 . S
O478 Eu480 2.370 . S
O478 Eu483 2.370 . S
Eu479 O477 2.370 . S
Eu479 O481 2.370 . S
Eu479 O485 2.370 . S
Eu479 O486 2.370 . S
Eu479 O494 2.363 . S
Eu479 O495 2.363 . S
Eu479 O510 2.363 . S
Eu479 O511 2.363 . S
Eu480 O478 2.370 . S
Eu480 O482 2.370 . S
Eu480 O487 2.370 . S
Eu480 O488 2.370 . S
Eu480 O496 2.363 . S
Eu480 O497 2.363 . S
Eu480 O512 2.363 . S
Eu480 O513 2.363 . S
O481 Eu476 2.370 1_655 S
O481 Eu479 2.370 . S
O481 Eu483 2.370 1_655 S
O482 Eu476 2.370 . S
O482 Eu480 2.370 . S
O482 Eu484 2.370 . S
Eu483 O478 2.370 . S
Eu483 O481 2.370 1_455 S
Eu483 O485 2.370 1_455 S
Eu483 O488 2.370 . S
Eu483 O500 2.363 . S
Eu483 O501 2.363 1_455 S
Eu483 O508 2.363 . S
Eu483 O509 2.363 . S
Eu484 O477 2.370 1_455 S
Eu484 O482 2.370 . S
Eu484 O486 2.370 1_455 S
Eu484 O487 2.370 . S
Eu484 O498 2.363 . S
Eu484 O499 2.363 1_455 S
Eu484 O506 2.363 . S
Eu484 O507 2.363 . S
O485 Eu479 2.370 . S
O485 Eu483 2.370 1_655 S
O485 Eu489 2.370 1_655 S
O486 Eu479 2.370 . S
O486 Eu484 2.370 1_655 S
O486 Eu489 2.370 1_655 S
O487 Eu480 2.370 . S
O487 Eu484 2.370 . S
O487 Eu489 2.370 . S
O488 Eu480 2.370 . S
O488 Eu483 2.370 . S
O488 Eu489 2.370 . S
Eu489 O485 2.370 1_455 S
Eu489 O486 2.370 1_455 S
Eu489 O487 2.370 . S
Eu489 O488 2.370 . S
Eu489 O492 2.363 . S
Eu489 O493 2.363 . S
Eu489 O502 2.363 . S
Eu489 O503 2.363 1_455 S
O490 C464 1.283 . S
O490 Eu476 2.363 . S
O491 C465 1.283 . S
O491 Eu476 2.363 . S
O492 C466 1.283 . S
O492 Eu489 2.363 . S
O493 C467 1.283 . S
O493 Eu489 2.363 . S
O494 C468 1.283 . S
O494 Eu479 2.363 . S
O495 C469 1.283 . S
O495 Eu479 2.363 . S
O496 C470 1.283 . S
O496 Eu480 2.363 . S
O497 C471 1.283 . S
O497 Eu480 2.363 . S
O498 C472 1.283 . S
O498 Eu484 2.363 . S
O499 C473 1.283 . S
O499 Eu484 2.363 1_655 S
O500 C474 1.283 . S
O500 Eu483 2.363 . S
O501 C475 1.283 . S
O501 Eu483 2.363 1_655 S
O502 C470 1.283 . S
O502 Eu489 2.363 . S
O503 C468 1.283 . S
O503 Eu489 2.363 1_655 S
O504 C471 1.283 . S
O504 Eu476 2.363 . S
O505 C469 1.283 . S
O505 Eu476 2.363 1_655 S
O506 C465 1.283 . S
O506 Eu484 2.363 . S
O507 C467 1.283 . S
O507 Eu484 2.363 . S
O508 C464 1.283 . S
O508 Eu483 2.363 . S
O509 C466 1.283 . S
O509 Eu483 2.363 . S
O510 C475 1.283 . S
O510 Eu479 2.363 . S
O511 C473 1.283 . S
O511 Eu479 2.363 . S
O512 C474 1.283 . S
O512 Eu480 2.363 . S
O513 C472 1.283 . S
O513 Eu480 2.363 . S
C514 O540 1.283 . S
C514 O558 1.283 . S
C515 O541 1.283 . S
C515 O556 1.283 . S
C516 O542 1.283 . S
C516 O559 1.283 . S
C517 O543 1.283 . S
C517 O557 1.283 . S
C518 O544 1.283 . S
C518 O553 1.283 . S
C519 O545 1.283 . S
C519 O555 1.283 . S
C520 O546 1.283 . S
C520 O552 1.283 . S
C521 O547 1.283 . S
C521 O554 1.283 . S
C522 O548 1.283 . S
C522 O563 1.283 . S
C523 O549 1.283 . S
C523 O561 1.283 . S
C524 O550 1.283 . S
C524 O562 1.283 . S
C525 O551 1.283 . S
C525 O560 1.283 . S
Eu526 O527 2.370 . S
Eu526 O528 2.370 . S
Eu526 O531 2.370 . S
Eu526 O532 2.370 . S
Eu526 O540 2.363 . S
Eu526 O541 2.363 . S
Eu526 O554 2.363 . S
Eu526 O555 2.363 . S
O527 Eu526 2.370 . S
O527 Eu529 2.365 1_565 S
O527 Eu534 2.364 1_565 S
O528 Eu526 2.370 . S
O528 Eu530 2.365 1_565 S
O528 Eu533 2.365 1_565 S
Eu529 O527 2.365 1_545 S
Eu529 O531 2.365 1_545 S
Eu529 O535 2.376 . S
Eu529 O536 2.376 . S
Eu529 O544 2.372 . S
Eu529 O545 2.354 1_545 S
Eu529 O560 2.363 . S
Eu529 O561 2.363 . S
Eu530 O528 2.365 1_545 S
Eu530 O532 2.365 1_545 S
Eu530 O537 2.376 . S
Eu530 O538 2.376 . S
Eu530 O546 2.372 . S
Eu530 O547 2.354 1_545 S
Eu530 O562 2.363 . S
Eu530 O563 2.363 . S
O531 Eu526 2.370 . S
O531 Eu529 2.365 1_565 S
O531 Eu533 2.365 1_565 S
O532 Eu526 2.370 . S
O532 Eu530 2.365 1_565 S
O532 Eu534 2.364 1_565 S
Eu533 O528 2.365 1_545 S
Eu533 O531 2.365 1_545 S
Eu533 O535 2.375 . S
Eu533 O538 2.375 . S
Eu533 O550 2.363 . S
Eu533 O551 2.363 . S
Eu533 O558 2.354 1_545 S
Eu533 O559 2.371 . S
Eu534 O527 2.364 1_545 S
Eu534 O532 2.364 1_545 S
Eu534 O536 2.376 . S
Eu534 O537 2.376 . S
Eu534 O548 2.363 . S
Eu534 O549 2.363 . S
Eu534 O556 2.353 1_545 S
Eu534 O557 2.373 . S
O535 Eu529 2.376 . S
O535 Eu533 2.375 . S
O535 Eu539 2.370 . S
O536 Eu529 2.376 . S
O536 Eu534 2.376 . S
O536 Eu539 2.370 . S
O537 Eu530 2.376 . S
O537 Eu534 2.376 . S
O537 Eu539 2.370 . S
O538 Eu530 2.376 . S
O538 Eu533 2.375 . S
O538 Eu539 2.370 . S
Eu539 O535 2.370 . S
Eu539 O536 2.370 . S
Eu539 O537 2.370 . S
Eu539 O538 2.370 . S
Eu539 O542 2.363 . S
Eu539 O543 2.363 . S
Eu539 O552 2.363 . S
Eu539 O553 2.363 . S
O540 C514 1.283 . S
O540 Eu526 2.363 . S
O541 C515 1.283 . S
O541 Eu526 2.363 . S
O542 C516 1.283 . S
O542 Eu539 2.363 . S
O543 C517 1.283 . S
O543 Eu539 2.363 . S
O544 C518 1.283 . S
O544 Eu529 2.372 . S
O545 C519 1.283 . S
O545 Eu529 2.354 1_565 S
O546 C520 1.283 . S
O546 Eu530 2.372 . S
O547 C521 1.283 . S
O547 Eu530 2.354 1_565 S
O548 C522 1.283 . S
O548 Eu534 2.363 . S
O549 C523 1.283 . S
O549 Eu534 2.363 . S
O550 C524 1.283 . S
O550 Eu533 2.363 . S
O551 C525 1.283 . S
O551 Eu533 2.363 . S
O552 C520 1.283 . S
O552 Eu539 2.363 . S
O553 C518 1.283 . S
O553 Eu539 2.363 . S
O554 C521 1.283 . S
O554 Eu526 2.363 . S
O555 C519 1.283 . S
O555 Eu526 2.363 . S
O556 C515 1.283 . S
O556 Eu534 2.353 1_565 S
O557 C517 1.283 . S
O557 Eu534 2.373 . S
O558 C514 1.283 . S
O558 Eu533 2.354 1_565 S
O559 C516 1.283 . S
O559 Eu533 2.371 . S
O560 C525 1.283 . S
O560 Eu529 2.363 . S
O561 C523 1.283 . S
O561 Eu529 2.363 . S
O562 C524 1.283 . S
O562 Eu530 2.363 . S
O563 C522 1.283 . S
O563 Eu530 2.363 . S
C564 C565 1.387 . S
C564 H568 0.950 . S
C564 C573 1.390 . S
C565 C564 1.387 . S
C565 C567 1.387 . S
H566 C573 0.950 . S
C567 C565 1.387 . S
C567 C569 1.390 . S
C567 H571 0.950 . S
H568 C564 0.950 . S
C569 C567 1.390 . S
C569 C570 1.387 . S
C569 H572 0.950 . S
C570 C569 1.387 . S
C570 C573 1.387 . S
H571 C567 0.950 . S
H572 C569 0.950 . S
C573 C564 1.390 . S
C573 H566 0.950 . S
C573 C570 1.387 . S
C574 C575 1.387 . S
C574 H578 0.950 . S
C574 C583 1.390 . S
C575 C574 1.387 . S
C575 C577 1.387 . S
H576 C583 0.950 . S
C577 C575 1.387 . S
C577 C579 1.390 . S
C577 H581 0.950 . S
H578 C574 0.950 . S
C579 C577 1.390 . S
C579 C580 1.387 . S
C579 H582 0.950 . S
C580 C579 1.387 . S
C580 C583 1.387 . S
H581 C577 0.950 . S
H582 C579 0.950 . S
C583 C574 1.390 . S
C583 H576 0.950 . S
C583 C580 1.387 . S
C584 C585 1.387 . S
C584 H588 0.950 . S
C584 C593 1.390 . S
C585 C584 1.387 . S
C585 C587 1.387 . S
H586 C593 0.950 . S
C587 C585 1.387 . S
C587 C589 1.390 . S
C587 H591 0.950 . S
H588 C584 0.950 . S
C589 C587 1.390 . S
C589 C590 1.387 . S
C589 H592 0.950 . S
C590 C589 1.387 . S
C590 C593 1.387 . S
H591 C587 0.950 . S
H592 C589 0.950 . S
C593 C584 1.390 . S
C593 H586 0.950 . S
C593 C590 1.387 . S
C594 C595 1.387 . S
C594 H598 0.950 . S
C594 C603 1.390 . S
C595 C594 1.387 . S
C595 C597 1.387 . S
H596 C603 0.950 . S
C597 C595 1.387 . S
C597 C599 1.390 . S
C597 H601 0.950 . S
H598 C594 0.950 . S
C599 C597 1.390 . S
C599 C600 1.387 . S
C599 H602 0.950 . S
C600 C599 1.387 . S
C600 C603 1.387 . S
H601 C597 0.950 . S
H602 C599 0.950 . S
C603 C594 1.390 . S
C603 H596 0.950 . S
C603 C600 1.387 . S
C604 C605 1.387 . S
C604 H608 0.950 . S
C604 C613 1.390 . S
C605 C604 1.387 . S
C605 C607 1.387 . S
H606 C613 0.950 . S
C607 C605 1.387 . S
C607 C609 1.390 . S
C607 H611 0.950 . S
H608 C604 0.950 . S
C609 C607 1.390 . S
C609 C610 1.387 . S
C609 H612 0.950 . S
C610 C609 1.387 . S
C610 C613 1.387 . S
H611 C607 0.950 . S
H612 C609 0.950 . S
C613 C604 1.390 . S
C613 H606 0.950 . S
C613 C610 1.387 . S
C614 C615 1.387 . S
C614 H618 0.950 . S
C614 C623 1.390 . S
C615 C614 1.387 . S
C615 C617 1.387 . S
H616 C623 0.950 . S
C617 C615 1.387 . S
C617 C619 1.390 . S
C617 H621 0.950 . S
H618 C614 0.950 . S
C619 C617 1.390 . S
C619 C620 1.387 . S
C619 H622 0.950 . S
C620 C619 1.387 . S
C620 C623 1.387 . S
H621 C617 0.950 . S
H622 C619 0.950 . S
C623 C614 1.390 . S
C623 H616 0.950 . S
C623 C620 1.387 . S
C624 C625 1.387 . S
C624 H628 0.950 . S
C624 C633 1.390 . S
C625 C624 1.387 . S
C625 C627 1.387 . S
H626 C633 0.950 . S
C627 C625 1.387 . S
C627 C629 1.390 . S
C627 H631 0.950 . S
H628 C624 0.950 . S
C629 C627 1.390 . S
C629 C630 1.387 . S
C629 H632 0.950 . S
C630 C629 1.387 . S
C630 C633 1.387 . S
H631 C627 0.950 . S
H632 C629 0.950 . S
C633 C624 1.390 . S
C633 H626 0.950 . S
C633 C630 1.387 . S
C634 C635 1.387 . S
C634 H638 0.950 . S
C634 C643 1.390 . S
C635 C634 1.387 . S
C635 C637 1.387 . S
H636 C643 0.950 . S
C637 C635 1.387 . S
C637 C639 1.390 . S
C637 H641 0.950 . S
H638 C634 0.950 . S
C639 C637 1.390 . S
C639 C640 1.387 . S
C639 H642 0.950 . S
C640 C639 1.387 . S
C640 C643 1.387 . S
H641 C637 0.950 . S
H642 C639 0.950 . S
C643 C634 1.390 . S
C643 H636 0.950 . S
C643 C640 1.387 . S
C644 C645 1.387 . S
C644 H648 0.950 . S
C644 C653 1.390 . S
C645 C644 1.387 . S
C645 C647 1.387 . S
H646 C653 0.950 . S
C647 C645 1.387 . S
C647 C649 1.390 . S
C647 H651 0.950 . S
H648 C644 0.950 . S
C649 C647 1.390 . S
C649 C650 1.387 . S
C649 H652 0.950 . S
C650 C649 1.387 . S
C650 C653 1.387 . S
H651 C647 0.950 . S
H652 C649 0.950 . S
C653 C644 1.390 . S
C653 H646 0.950 . S
C653 C650 1.387 . S
C654 C655 1.387 . S
C654 H658 0.950 . S
C654 C663 1.390 . S
C655 C654 1.387 . S
C655 C657 1.387 . S
H656 C663 0.950 . S
C657 C655 1.387 . S
C657 C659 1.390 . S
C657 H661 0.950 . S
H658 C654 0.950 . S
C659 C657 1.390 . S
C659 C660 1.387 . S
C659 H662 0.950 . S
C660 C659 1.387 . S
C660 C663 1.387 . S
H661 C657 0.950 . S
H662 C659 0.950 . S
C663 C654 1.390 . S
C663 H656 0.950 . S
C663 C660 1.387 . S
C664 C665 1.387 . S
C664 H668 0.950 . S
C664 C673 1.390 . S
C665 C664 1.387 . S
C665 C667 1.387 . S
H666 C673 0.950 . S
C667 C665 1.387 . S
C667 C669 1.390 . S
C667 H671 0.950 . S
H668 C664 0.950 . S
C669 C667 1.390 . S
C669 C670 1.387 . S
C669 H672 0.950 . S
C670 C669 1.387 . S
C670 C673 1.387 . S
H671 C667 0.950 . S
H672 C669 0.950 . S
C673 C664 1.390 . S
C673 H666 0.950 . S
C673 C670 1.387 . S
C674 C675 1.387 . S
C674 H678 0.950 . S
C674 C683 1.390 . S
C675 C674 1.387 . S
C675 C677 1.387 . S
H676 C683 0.950 . S
C677 C675 1.387 . S
C677 C679 1.390 . S
C677 H681 0.950 . S
H678 C674 0.950 . S
C679 C677 1.390 . S
C679 C680 1.387 . S
C679 H682 0.950 . S
C680 C679 1.387 . S
C680 C683 1.387 . S
H681 C677 0.950 . S
H682 C679 0.950 . S
C683 C674 1.390 . S
C683 H676 0.950 . S
C683 C680 1.387 . S
C684 C685 1.387 1_556 S
C684 H688 0.950 . S
C684 C693 1.390 . S
C685 C684 1.387 1_554 S
C685 C687 1.387 . S
H686 C693 0.950 . S
C687 C685 1.387 . S
C687 C689 1.390 . S
C687 H691 0.950 . S
H688 C684 0.950 . S
C689 C687 1.390 . S
C689 C690 1.387 . S
C689 H692 0.950 . S
C690 C689 1.387 . S
C690 C693 1.387 1_554 S
H691 C687 0.950 . S
H692 C689 0.950 . S
C693 C684 1.390 . S
C693 H686 0.950 . S
C693 C690 1.387 1_556 S
C694 C695 1.387 . S
C694 H698 0.950 . S
C694 C703 1.390 . S
C695 C694 1.387 . S
C695 C697 1.387 1_554 S
H696 C703 0.950 . S
C697 C695 1.387 1_556 S
C697 C699 1.390 . S
C697 H701 0.950 . S
H698 C694 0.950 . S
C699 C697 1.390 . S
C699 C700 1.387 1_556 S
C699 H702 0.950 . S
C700 C699 1.387 1_554 S
C700 C703 1.387 . S
H701 C697 0.950 . S
H702 C699 0.950 . S
C703 C694 1.390 . S
C703 H696 0.950 . S
C703 C700 1.387 . S
C704 C705 1.387 . S
C704 H708 0.950 . S
C704 C713 1.390 . S
C705 C704 1.387 . S
C705 C707 1.387 1_554 S
H706 C713 0.950 . S
C707 C705 1.387 1_556 S
C707 C709 1.390 . S
C707 H711 0.950 . S
H708 C704 0.950 . S
C709 C707 1.390 . S
C709 C710 1.387 1_556 S
C709 H712 0.950 . S
C710 C709 1.387 1_554 S
C710 C713 1.387 . S
H711 C707 0.950 . S
H712 C709 0.950 . S
C713 C704 1.390 . S
C713 H706 0.950 . S
C713 C710 1.387 . S
C714 C715 1.387 1_556 S
C714 H718 0.950 . S
C714 C723 1.390 . S
C715 C714 1.387 1_554 S
C715 C717 1.387 . S
H716 C723 0.950 . S
C717 C715 1.387 . S
C717 C719 1.390 . S
C717 H721 0.950 . S
H718 C714 0.950 . S
C719 C717 1.390 . S
C719 C720 1.387 . S
C719 H722 0.950 . S
C720 C719 1.387 . S
C720 C723 1.387 1_554 S
H721 C717 0.950 . S
H722 C719 0.950 . S
C723 C714 1.390 . S
C723 H716 0.950 . S
C723 C720 1.387 1_556 S
C724 C725 1.387 . S
C724 H728 0.950 . S
C724 C733 1.390 . S
C725 C724 1.387 . S
C725 C727 1.387 1_455 S
H726 C733 0.950 . S
C727 C725 1.387 1_655 S
C727 C729 1.390 . S
C727 H731 0.950 . S
H728 C724 0.950 . S
C729 C727 1.390 . S
C729 C730 1.387 1_655 S
C729 H732 0.950 . S
C730 C729 1.387 1_455 S
C730 C733 1.387 . S
H731 C727 0.950 . S
H732 C729 0.950 . S
C733 C724 1.390 . S
C733 H726 0.950 . S
C733 C730 1.387 . S
C734 C735 1.394 . S
C734 H738 0.950 . S
C734 C743 1.390 . S
C735 C734 1.394 . S
C735 C737 1.381 1_545 S
H736 C743 0.950 . S
C737 C735 1.381 1_565 S
C737 C739 1.390 . S
C737 H741 0.950 . S
H738 C734 0.950 . S
C739 C737 1.390 . S
C739 C740 1.380 1_565 S
C739 H742 0.950 . S
C740 C739 1.380 1_545 S
C740 C743 1.395 . S
H741 C737 0.950 . S
H742 C739 0.950 . S
C743 C734 1.390 . S
C743 H736 0.950 . S
C743 C740 1.395 . S
C744 C745 1.387 . S
C744 H748 0.950 . S
C744 C753 1.390 . S
C745 C744 1.387 . S
C745 C747 1.387 1_455 S
H746 C753 0.950 . S
C747 C745 1.387 1_655 S
C747 C749 1.390 . S
C747 H751 0.950 . S
H748 C744 0.950 . S
C749 C747 1.390 . S
C749 C750 1.387 1_655 S
C749 H752 0.950 . S
C750 C749 1.387 1_455 S
C750 C753 1.387 . S
H751 C747 0.950 . S
H752 C749 0.950 . S
C753 C744 1.390 . S
C753 H746 0.950 . S
C753 C750 1.387 . S
C754 C755 1.394 . S
C754 H758 0.950 . S
C754 C763 1.390 . S
C755 C754 1.394 . S
C755 C757 1.381 1_545 S
H756 C763 0.950 . S
C757 C755 1.381 1_565 S
C757 C759 1.390 . S
C757 H761 0.950 . S
H758 C754 0.950 . S
C759 C757 1.390 . S
C759 C760 1.380 1_565 S
C759 H762 0.950 . S
C760 C759 1.380 1_545 S
C760 C763 1.395 . S
H761 C757 0.950 . S
H762 C759 0.950 . S
C763 C754 1.390 . S
C763 H756 0.950 . S
C763 C760 1.395 . S
C764 C765 1.387 . S
C764 H768 0.950 . S
C764 C773 1.390 . S
C765 C764 1.387 . S
C765 C767 1.387 1_455 S
H766 C773 0.950 . S
C767 C765 1.387 1_655 S
C767 C769 1.390 . S
C767 H771 0.950 . S
H768 C764 0.950 . S
C769 C767 1.390 . S
C769 C770 1.387 1_655 S
C769 H772 0.950 . S
C770 C769 1.387 1_455 S
C770 C773 1.387 . S
H771 C767 0.950 . S
H772 C769 0.950 . S
C773 C764 1.390 . S
C773 H766 0.950 . S
C773 C770 1.387 . S
C774 C775 1.378 1_565 S
C774 H778 0.950 . S
C774 C783 1.390 . S
C775 C774 1.378 1_545 S
C775 C777 1.397 . S
H776 C783 0.950 . S
C777 C775 1.397 . S
C777 C779 1.390 . S
C777 H781 0.950 . S
H778 C774 0.950 . S
C779 C777 1.390 . S
C779 C780 1.397 . S
C779 H782 0.950 . S
C780 C779 1.397 . S
C780 C783 1.378 1_545 S
H781 C777 0.950 . S
H782 C779 0.950 . S
C783 C774 1.390 . S
C783 H776 0.950 . S
C783 C780 1.378 1_565 S
C784 C785 1.387 . S
C784 H788 0.950 . S
C784 C793 1.390 . S
C785 C784 1.387 . S
C785 C787 1.387 1_455 S
H786 C793 0.950 . S
C787 C785 1.387 1_655 S
C787 C789 1.390 . S
C787 H791 0.950 . S
H788 C784 0.950 . S
C789 C787 1.390 . S
C789 C790 1.387 1_655 S
C789 H792 0.950 . S
C790 C789 1.387 1_455 S
C790 C793 1.387 . S
H791 C787 0.950 . S
H792 C789 0.950 . S
C793 C784 1.390 . S
C793 H786 0.950 . S
C793 C790 1.387 . S
C794 C795 1.376 1_565 S
C794 H798 0.950 . S
C794 C803 1.390 . S
C795 C794 1.376 1_545 S
C795 C797 1.399 . S
H796 C803 0.950 . S
C797 C795 1.399 . S
C797 C799 1.390 . S
C797 H801 0.950 . S
H798 C794 0.950 . S
C799 C797 1.390 . S
C799 C800 1.398 . S
C799 H802 0.950 . S
C800 C799 1.398 . S
C800 C803 1.377 1_545 S
H801 C797 0.950 . S
H802 C799 0.950 . S
C803 C794 1.390 . S
C803 H796 0.950 . S
C803 C800 1.377 1_565 S
C804 C805 1.387 . S
C804 H808 0.950 . S
C804 C813 1.390 . S
C805 C804 1.387 . S
C805 C807 1.387 1_455 S
H806 C813 0.950 . S
C807 C805 1.387 1_655 S
C807 C809 1.390 . S
C807 H811 0.950 . S
H808 C804 0.950 . S
C809 C807 1.390 . S
C809 C810 1.387 1_655 S
C809 H812 0.950 . S
C810 C809 1.387 1_455 S
C810 C813 1.387 . S
H811 C807 0.950 . S
H812 C809 0.950 . S
C813 C804 1.390 . S
C813 H806 0.950 . S
C813 C810 1.387 . S
C814 C815 1.378 1_565 S
C814 H818 0.950 . S
C814 C823 1.390 . S
C815 C814 1.378 1_545 S
C815 C817 1.397 . S
H816 C823 0.950 . S
C817 C815 1.397 . S
C817 C819 1.390 . S
C817 H821 0.950 . S
H818 C814 0.950 . S
C819 C817 1.390 . S
C819 C820 1.398 . S
C819 H822 0.950 . S
C820 C819 1.398 . S
C820 C823 1.377 1_545 S
H821 C817 0.950 . S
H822 C819 0.950 . S
C823 C814 1.390 . S
C823 H816 0.950 . S
C823 C820 1.377 1_565 S
C824 C825 1.387 . S
C824 H828 0.950 . S
C824 C833 1.390 . S
C825 C824 1.387 . S
C825 C827 1.387 1_455 S
H826 C833 0.950 . S
C827 C825 1.387 1_655 S
C827 C829 1.390 . S
C827 H831 0.950 . S
H828 C824 0.950 . S
C829 C827 1.390 . S
C829 C830 1.387 1_655 S
C829 H832 0.950 . S
C830 C829 1.387 1_455 S
C830 C833 1.387 . S
H831 C827 0.950 . S
H832 C829 0.950 . S
C833 C824 1.390 . S
C833 H826 0.950 . S
C833 C830 1.387 . S
C834 C835 1.400 . S
C834 H838 0.950 . S
C834 C843 1.390 . S
C835 C834 1.400 . S
C835 C837 1.375 1_545 S
H836 C843 0.950 . S
C837 C835 1.375 1_565 S
C837 C839 1.390 . S
C837 H841 0.950 . S
H838 C834 0.950 . S
C839 C837 1.390 . S
C839 C840 1.377 1_565 S
C839 H842 0.950 . S
C840 C839 1.377 1_545 S
C840 C843 1.398 . S
H841 C837 0.950 . S
H842 C839 0.950 . S
C843 C834 1.390 . S
C843 H836 0.950 . S
C843 C840 1.398 . S
C844 C845 1.387 . S
C844 H848 0.950 . S
C844 C853 1.390 . S
C845 C844 1.387 . S
C845 C847 1.387 . S
H846 C853 0.950 . S
C847 C845 1.387 . S
C847 C849 1.390 . S
C847 H851 0.950 . S
H848 C844 0.950 . S
C849 C847 1.390 . S
C849 C850 1.387 . S
C849 H852 0.950 . S
C850 C849 1.387 . S
C850 C853 1.387 . S
H851 C847 0.950 . S
H852 C849 0.950 . S
C853 C844 1.390 . S
C853 H846 0.950 . S
C853 C850 1.387 . S
C854 C855 1.394 . S
C854 H858 0.950 . S
C854 C863 1.390 . S
C855 C854 1.394 . S
C855 C857 1.381 1_545 S
H856 C863 0.950 . S
C857 C855 1.381 1_565 S
C857 C859 1.390 . S
C857 H861 0.950 . S
H858 C854 0.950 . S
C859 C857 1.390 . S
C859 C860 1.379 1_565 S
C859 H862 0.950 . S
C860 C859 1.379 1_545 S
C860 C863 1.396 . S
H861 C857 0.950 . S
H862 C859 0.950 . S
C863 C854 1.390 . S
C863 H856 0.950 . S
C863 C860 1.396 . S
C864 C865 1.387 . S
C864 H868 0.950 . S
C864 C873 1.390 . S
C865 C864 1.387 . S
C865 C867 1.387 . S
H866 C873 0.950 . S
C867 C865 1.387 . S
C867 C869 1.390 . S
C867 H871 0.950 1_455 S
H868 C864 0.950 . S
C869 C867 1.390 . S
C869 C870 1.387 . S
C869 H872 0.950 1_455 S
C870 C869 1.387 . S
C870 C873 1.387 . S
H871 C867 0.950 1_655 S
H872 C869 0.950 1_655 S
C873 C864 1.390 . S
C873 H866 0.950 . S
C873 C870 1.387 . S
C874 C875 1.395 . S
C874 H878 0.950 . S
C874 C883 1.390 . S
C875 C874 1.395 . S
C875 C877 1.380 1_545 S
H876 C883 0.950 . S
C877 C875 1.380 1_565 S
C877 C879 1.390 . S
C877 H881 0.950 . S
H878 C874 0.950 . S
C879 C877 1.390 . S
C879 C880 1.379 1_565 S
C879 H882 0.950 . S
C880 C879 1.379 1_545 S
C880 C883 1.396 . S
H881 C877 0.950 . S
H882 C879 0.950 . S
C883 C874 1.390 . S
C883 H876 0.950 . S
C883 C880 1.396 . S
C884 C885 1.374 1_565 S
C884 H888 0.950 . S
C884 C893 1.390 . S
C885 C884 1.374 1_545 S
C885 C887 1.401 . S
H886 C893 0.950 . S
C887 C885 1.401 . S
C887 C889 1.390 . S
C887 H891 0.950 . S
H888 C884 0.950 . S
C889 C887 1.390 . S
C889 C890 1.406 . S
C889 H892 0.950 . S
C890 C889 1.406 . S
C890 C893 1.369 1_545 S
H891 C887 0.950 . S
H892 C889 0.950 . S
C893 C884 1.390 . S
C893 H886 0.950 . S
C893 C890 1.369 1_565 S
C894 C895 1.387 . S
C894 H898 0.950 . S
C894 C903 1.390 . S
C895 C894 1.387 . S
C895 C897 1.387 1_455 S
H896 C903 0.950 . S
C897 C895 1.387 1_655 S
C897 C899 1.390 . S
C897 H901 0.950 . S
H898 C894 0.950 . S
C899 C897 1.390 . S
C899 C900 1.387 1_655 S
C899 H902 0.950 . S
C900 C899 1.387 1_455 S
C900 C903 1.387 . S
H901 C897 0.950 . S
H902 C899 0.950 . S
C903 C894 1.390 . S
C903 H896 0.950 . S
C903 C900 1.387 . S
C904 C905 1.376 1_565 S
C904 H908 0.950 . S
C904 C913 1.390 . S
C905 C904 1.376 1_545 S
C905 C907 1.399 . S
H906 C913 0.950 . S
C907 C905 1.399 . S
C907 C909 1.390 . S
C907 H911 0.950 . S
H908 C904 0.950 . S
C909 C907 1.390 . S
C909 C910 1.405 . S
C909 H912 0.950 . S
C910 C909 1.405 . S
C910 C913 1.370 1_545 S
H911 C907 0.950 . S
H912 C909 0.950 . S
C913 C904 1.390 . S
C913 H906 0.950 . S
C913 C910 1.370 1_565 S
C914 C915 1.387 . S
C914 H918 0.950 . S
C914 C923 1.390 . S
C915 C914 1.387 . S
C915 C917 1.387 1_455 S
H916 C923 0.950 . S
C917 C915 1.387 1_655 S
C917 C919 1.390 . S
C917 H921 0.950 . S
H918 C914 0.950 . S
C919 C917 1.390 . S
C919 C920 1.387 1_655 S
C919 H922 0.950 . S
C920 C919 1.387 1_455 S
C920 C923 1.387 . S
H921 C917 0.950 . S
H922 C919 0.950 . S
C923 C914 1.390 . S
C923 H916 0.950 . S
C923 C920 1.387 . S
C924 C925 1.392 . S
C924 H928 0.950 . S
C924 C933 1.390 . S
C925 C924 1.392 . S
C925 C927 1.383 1_545 S
H926 C933 0.950 . S
C927 C925 1.383 1_565 S
C927 C929 1.390 . S
C927 H931 0.950 . S
H928 C924 0.950 . S
C929 C927 1.390 . S
C929 C930 1.388 1_565 S
C929 H932 0.950 . S
C930 C929 1.388 1_545 S
C930 C933 1.387 . S
H931 C927 0.950 . S
H932 C929 0.950 . S
C933 C924 1.390 . S
C933 H926 0.950 . S
C933 C930 1.387 . S
C934 C935 1.387 . S
C934 H938 0.950 . S
C934 C943 1.390 . S
C935 C934 1.387 . S
C935 C937 1.387 1_455 S
H936 C943 0.950 . S
C937 C935 1.387 1_655 S
C937 C939 1.390 . S
C937 H941 0.950 . S
H938 C934 0.950 . S
C939 C937 1.390 . S
C939 C940 1.387 1_655 S
C939 H942 0.950 . S
C940 C939 1.387 1_455 S
C940 C943 1.387 . S
H941 C937 0.950 . S
H942 C939 0.950 . S
C943 C934 1.390 . S
C943 H936 0.950 . S
C943 C940 1.387 . S
C944 C945 1.393 . S
C944 H948 0.950 . S
C944 C953 1.390 . S
C945 C944 1.393 . S
C945 C947 1.382 1_545 S
H946 C953 0.950 . S
C947 C945 1.382 1_565 S
C947 C949 1.390 . S
C947 H951 0.950 . S
H948 C944 0.950 . S
C949 C947 1.390 . S
C949 C950 1.388 1_565 S
C949 H952 0.950 . S
C950 C949 1.388 1_545 S
C950 C953 1.387 . S
H951 C947 0.950 . S
H952 C949 0.950 . S
C953 C944 1.390 . S
C953 H946 0.950 . S
C953 C950 1.387 . S
C954 C955 1.387 . S
C954 H958 0.950 . S
C954 C963 1.390 . S
C955 C954 1.387 . S
C955 C957 1.387 1_455 S
H956 C963 0.950 . S
C957 C955 1.387 1_655 S
C957 C959 1.390 . S
C957 H961 0.950 . S
H958 C954 0.950 . S
C959 C957 1.390 . S
C959 C960 1.387 1_655 S
C959 H962 0.950 . S
C960 C959 1.387 1_455 S
C960 C963 1.387 . S
H961 C957 0.950 . S
H962 C959 0.950 . S
C963 C954 1.390 . S
C963 H956 0.950 . S
C963 C960 1.387 . S
C964 C965 1.387 . S
C964 H968 0.950 . S
C964 C973 1.390 . S
C965 C964 1.387 . S
C965 C967 1.387 1_554 S
H966 C973 0.950 . S
C967 C965 1.387 1_556 S
C967 C969 1.390 . S
C967 H971 0.950 . S
H968 C964 0.950 . S
C969 C967 1.390 . S
C969 C970 1.387 1_556 S
C969 H972 0.950 . S
C970 C969 1.387 1_554 S
C970 C973 1.387 . S
H971 C967 0.950 . S
H972 C969 0.950 . S
C973 C964 1.390 . S
C973 H966 0.950 . S
C973 C970 1.387 . S
C974 C975 1.387 1_556 S
C974 H978 0.950 . S
C974 C983 1.390 . S
C975 C974 1.387 1_554 S
C975 C977 1.387 . S
H976 C983 0.950 . S
C977 C975 1.387 . S
C977 C979 1.390 . S
C977 H981 0.950 . S
H978 C974 0.950 . S
C979 C977 1.390 . S
C979 C980 1.387 . S
C979 H982 0.950 . S
C980 C979 1.387 . S
C980 C983 1.387 1_554 S
H981 C977 0.950 . S
H982 C979 0.950 . S
C983 C974 1.390 . S
C983 H976 0.950 . S
C983 C980 1.387 1_556 S
C984 C985 1.387 1_556 S
C984 H988 0.950 . S
C984 C993 1.390 . S
C985 C984 1.387 1_554 S
C985 C987 1.387 . S
H986 C993 0.950 . S
C987 C985 1.387 . S
C987 C989 1.390 . S
C987 H991 0.950 . S
H988 C984 0.950 . S
C989 C987 1.390 . S
C989 C990 1.387 . S
C989 H992 0.950 . S
C990 C989 1.387 . S
C990 C993 1.387 1_554 S
H991 C987 0.950 . S
H992 C989 0.950 . S
C993 C984 1.390 . S
C993 H986 0.950 . S
C993 C990 1.387 1_556 S
C994 C995 1.387 . S
C994 H998 0.950 . S
C994 C1003 1.390 . S
C995 C994 1.387 . S
C995 C997 1.387 1_554 S
H996 C1003 0.950 . S
C997 C995 1.387 1_556 S
C997 C999 1.390 . S
C997 H1001 0.950 . S
H998 C994 0.950 . S
C999 C997 1.390 . S
C999 C1000 1.387 1_556 S
C999 H1002 0.950 . S
C1000 C999 1.387 1_554 S
C1000 C1003 1.387 . S
H1001 C997 0.950 . S
H1002 C999 0.950 . S
C1003 C994 1.390 . S
C1003 H996 0.950 . S
C1003 C1000 1.387 . S
C1004 C1005 1.387 . S
C1004 H1008 0.950 . S
C1004 C1013 1.390 . S
C1005 C1004 1.387 . S
C1005 C1007 1.387 1_554 S
H1006 C1013 0.950 . S
C1007 C1005 1.387 1_556 S
C1007 C1009 1.390 . S
C1007 H1011 0.950 . S
H1008 C1004 0.950 . S
C1009 C1007 1.390 . S
C1009 C1010 1.387 1_556 S
C1009 H1012 0.950 . S
C1010 C1009 1.387 1_554 S
C1010 C1013 1.387 . S
H1011 C1007 0.950 . S
H1012 C1009 0.950 . S
C1013 C1004 1.390 . S
C1013 H1006 0.950 . S
C1013 C1010 1.387 . S
C1014 C1015 1.387 . S
C1014 H1018 0.950 . S
C1014 C1023 1.390 . S
C1015 C1014 1.387 . S
C1015 C1017 1.387 1_554 S
H1016 C1023 0.950 . S
C1017 C1015 1.387 1_556 S
C1017 C1019 1.390 . S
C1017 H1021 0.950 . S
H1018 C1014 0.950 . S
C1019 C1017 1.390 . S
C1019 C1020 1.387 1_556 S
C1019 H1022 0.950 . S
C1020 C1019 1.387 1_554 S
C1020 C1023 1.387 . S
H1021 C1017 0.950 . S
H1022 C1019 0.950 . S
C1023 C1014 1.390 . S
C1023 H1016 0.950 . S
C1023 C1020 1.387 . S
C1024 C1025 1.387 . S
C1024 H1028 0.950 . S
C1024 C1033 1.390 . S
C1025 C1024 1.387 . S
C1025 C1027 1.387 1_554 S
H1026 C1033 0.950 . S
C1027 C1025 1.387 1_556 S
C1027 C1029 1.390 . S
C1027 H1031 0.950 . S
H1028 C1024 0.950 . S
C1029 C1027 1.390 . S
C1029 C1030 1.387 1_556 S
C1029 H1032 0.950 . S
C1030 C1029 1.387 1_554 S
C1030 C1033 1.387 . S
H1031 C1027 0.950 . S
H1032 C1029 0.950 . S
C1033 C1024 1.390 . S
C1033 H1026 0.950 . S
C1033 C1030 1.387 . S
C1034 C1035 1.387 . S
C1034 H1038 0.950 . S
C1034 C1043 1.390 . S
C1035 C1034 1.387 . S
C1035 C1037 1.387 1_554 S
H1036 C1043 0.950 . S
C1037 C1035 1.387 1_556 S
C1037 C1039 1.390 . S
C1037 H1041 0.950 . S
H1038 C1034 0.950 . S
C1039 C1037 1.390 . S
C1039 C1040 1.387 1_556 S
C1039 H1042 0.950 . S
C1040 C1039 1.387 1_554 S
C1040 C1043 1.387 . S
H1041 C1037 0.950 . S
H1042 C1039 0.950 . S
C1043 C1034 1.390 . S
C1043 H1036 0.950 . S
C1043 C1040 1.387 . S
C1044 C1045 1.387 . S
C1044 H1048 0.950 . S
C1044 C1053 1.390 . S
C1045 C1044 1.387 . S
C1045 C1047 1.387 . S
H1046 C1053 0.950 . S
C1047 C1045 1.387 . S
C1047 C1049 1.390 . S
C1047 H1051 0.950 . S
H1048 C1044 0.950 . S
C1049 C1047 1.390 . S
C1049 C1050 1.387 . S
C1049 H1052 0.950 . S
C1050 C1049 1.387 . S
C1050 C1053 1.387 . S
H1051 C1047 0.950 . S
H1052 C1049 0.950 . S
C1053 C1044 1.390 . S
C1053 H1046 0.950 . S
C1053 C1050 1.387 . S
C1054 C1055 1.387 . S
C1054 H1058 0.950 . S
C1054 C1063 1.390 . S
C1055 C1054 1.387 . S
C1055 C1057 1.387 . S
H1056 C1063 0.950 . S
C1057 C1055 1.387 . S
C1057 C1059 1.390 . S
C1057 H1061 0.950 . S
H1058 C1054 0.950 . S
C1059 C1057 1.390 . S
C1059 C1060 1.387 . S
C1059 H1062 0.950 . S
C1060 C1059 1.387 . S
C1060 C1063 1.387 . S
H1061 C1057 0.950 . S
H1062 C1059 0.950 . S
C1063 C1054 1.390 . S
C1063 H1056 0.950 . S
C1063 C1060 1.387 . S
C1064 C1065 1.387 . S
C1064 H1068 0.950 . S
C1064 C1073 1.390 . S
C1065 C1064 1.387 . S
C1065 C1067 1.387 . S
H1066 C1073 0.950 . S
C1067 C1065 1.387 . S
C1067 C1069 1.390 . S
C1067 H1071 0.950 . S
H1068 C1064 0.950 . S
C1069 C1067 1.390 . S
C1069 C1070 1.387 . S
C1069 H1072 0.950 . S
C1070 C1069 1.387 . S
C1070 C1073 1.387 . S
H1071 C1067 0.950 . S
H1072 C1069 0.950 . S
C1073 C1064 1.390 . S
C1073 H1066 0.950 . S
C1073 C1070 1.387 . S
C1074 C1075 1.387 . S
C1074 H1078 0.950 . S
C1074 C1083 1.390 . S
C1075 C1074 1.387 . S
C1075 C1077 1.387 . S
H1076 C1083 0.950 . S
C1077 C1075 1.387 . S
C1077 C1079 1.390 . S
C1077 H1081 0.950 . S
H1078 C1074 0.950 . S
C1079 C1077 1.390 . S
C1079 C1080 1.387 . S
C1079 H1082 0.950 . S
C1080 C1079 1.387 . S
C1080 C1083 1.387 . S
H1081 C1077 0.950 . S
H1082 C1079 0.950 . S
C1083 C1074 1.390 . S
C1083 H1076 0.950 . S
C1083 C1080 1.387 . S
C1084 C1085 1.387 . S
C1084 H1088 0.950 . S
C1084 C1093 1.390 . S
C1085 C1084 1.387 . S
C1085 C1087 1.387 . S
H1086 C1093 0.950 . S
C1087 C1085 1.387 . S
C1087 C1089 1.390 . S
C1087 H1091 0.950 . S
H1088 C1084 0.950 . S
C1089 C1087 1.390 . S
C1089 C1090 1.387 . S
C1089 H1092 0.950 . S
C1090 C1089 1.387 . S
C1090 C1093 1.387 . S
H1091 C1087 0.950 . S
H1092 C1089 0.950 . S
C1093 C1084 1.390 . S
C1093 H1086 0.950 . S
C1093 C1090 1.387 . S
C1094 C1095 1.387 . S
C1094 H1098 0.950 . S
C1094 C1103 1.390 . S
C1095 C1094 1.387 . S
C1095 C1097 1.387 . S
H1096 C1103 0.950 . S
C1097 C1095 1.387 . S
C1097 C1099 1.390 . S
C1097 H1101 0.950 . S
H1098 C1094 0.950 . S
C1099 C1097 1.390 . S
C1099 C1100 1.387 . S
C1099 H1102 0.950 . S
C1100 C1099 1.387 . S
C1100 C1103 1.387 . S
H1101 C1097 0.950 . S
H1102 C1099 0.950 . S
C1103 C1094 1.390 . S
C1103 H1096 0.950 . S
C1103 C1100 1.387 . S
C1104 C1105 1.387 . S
C1104 H1108 0.950 . S
C1104 C1113 1.390 . S
C1105 C1104 1.387 . S
C1105 C1107 1.387 . S
H1106 C1113 0.950 . S
C1107 C1105 1.387 . S
C1107 C1109 1.390 . S
C1107 H1111 0.950 . S
H1108 C1104 0.950 . S
C1109 C1107 1.390 . S
C1109 C1110 1.387 . S
C1109 H1112 0.950 . S
C1110 C1109 1.387 . S
C1110 C1113 1.387 . S
H1111 C1107 0.950 . S
H1112 C1109 0.950 . S
C1113 C1104 1.390 . S
C1113 H1106 0.950 . S
C1113 C1110 1.387 . S
C1114 C1115 1.387 . S
C1114 H1118 0.950 . S
C1114 C1123 1.390 . S
C1115 C1114 1.387 . S
C1115 C1117 1.387 . S
H1116 C1123 0.950 . S
C1117 C1115 1.387 . S
C1117 C1119 1.390 . S
C1117 H1121 0.950 . S
H1118 C1114 0.950 . S
C1119 C1117 1.390 . S
C1119 C1120 1.387 . S
C1119 H1122 0.950 . S
C1120 C1119 1.387 . S
C1120 C1123 1.387 . S
H1121 C1117 0.950 . S
H1122 C1119 0.950 . S
C1123 C1114 1.390 . S
C1123 H1116 0.950 . S
C1123 C1120 1.387 . S
C1124 C1125 1.387 . S
C1124 H1128 0.950 . S
C1124 C1133 1.390 . S
C1125 C1124 1.387 . S
C1125 C1127 1.387 . S
H1126 C1133 0.950 . S
C1127 C1125 1.387 . S
C1127 C1129 1.390 . S
C1127 H1131 0.950 . S
H1128 C1124 0.950 . S
C1129 C1127 1.390 . S
C1129 C1130 1.387 . S
C1129 H1132 0.950 . S
C1130 C1129 1.387 . S
C1130 C1133 1.387 . S
H1131 C1127 0.950 . S
H1132 C1129 0.950 . S
C1133 C1124 1.390 . S
C1133 H1126 0.950 . S
C1133 C1130 1.387 . S
C1134 C1135 1.387 . S
C1134 H1138 0.950 . S
C1134 C1143 1.390 . S
C1135 C1134 1.387 . S
C1135 C1137 1.387 . S
H1136 C1143 0.950 . S
C1137 C1135 1.387 . S
C1137 C1139 1.390 . S
C1137 H1141 0.950 . S
H1138 C1134 0.950 . S
C1139 C1137 1.390 . S
C1139 C1140 1.387 . S
C1139 H1142 0.950 . S
C1140 C1139 1.387 . S
C1140 C1143 1.387 . S
H1141 C1137 0.950 . S
H1142 C1139 0.950 . S
C1143 C1134 1.390 . S
C1143 H1136 0.950 . S
C1143 C1140 1.387 . S
C1144 C1145 1.387 . S
C1144 H1148 0.950 . S
C1144 C1153 1.390 . S
C1145 C1144 1.387 . S
C1145 C1147 1.387 . S
H1146 C1153 0.950 . S
C1147 C1145 1.387 . S
C1147 C1149 1.390 . S
C1147 H1151 0.950 . S
H1148 C1144 0.950 . S
C1149 C1147 1.390 . S
C1149 C1150 1.387 . S
C1149 H1152 0.950 . S
C1150 C1149 1.387 . S
C1150 C1153 1.387 . S
H1151 C1147 0.950 . S
H1152 C1149 0.950 . S
C1153 C1144 1.390 . S
C1153 H1146 0.950 . S
C1153 C1150 1.387 . S
C1154 C1155 1.387 . S
C1154 H1158 0.950 . S
C1154 C1163 1.390 . S
C1155 C1154 1.387 . S
C1155 C1157 1.387 . S
H1156 C1163 0.950 . S
C1157 C1155 1.387 . S
C1157 C1159 1.390 . S
C1157 H1161 0.950 . S
H1158 C1154 0.950 . S
C1159 C1157 1.390 . S
C1159 C1160 1.387 . S
C1159 H1162 0.950 . S
C1160 C1159 1.387 . S
C1160 C1163 1.387 . S
H1161 C1157 0.950 . S
H1162 C1159 0.950 . S
C1163 C1154 1.390 . S
C1163 H1156 0.950 . S
C1163 C1160 1.387 . S
C1164 C1165 1.387 . S
C1164 H1168 0.950 . S
C1164 C1173 1.390 . S
C1165 C1164 1.387 . S
C1165 C1167 1.387 . S
H1166 C1173 0.950 . S
C1167 C1165 1.387 . S
C1167 C1169 1.390 . S
C1167 H1171 0.950 . S
H1168 C1164 0.950 . S
C1169 C1167 1.390 . S
C1169 C1170 1.387 . S
C1169 H1172 0.950 . S
C1170 C1169 1.387 . S
C1170 C1173 1.387 . S
H1171 C1167 0.950 . S
H1172 C1169 0.950 . S
C1173 C1164 1.390 . S
C1173 H1166 0.950 . S
C1173 C1170 1.387 . S
C1174 C1175 1.387 . S
C1174 H1178 0.950 . S
C1174 C1183 1.390 . S
C1175 C1174 1.387 . S
C1175 C1177 1.387 . S
H1176 C1183 0.950 . S
C1177 C1175 1.387 . S
C1177 C1179 1.390 . S
C1177 H1181 0.950 . S
H1178 C1174 0.950 . S
C1179 C1177 1.390 . S
C1179 C1180 1.387 . S
C1179 H1182 0.950 . S
C1180 C1179 1.387 . S
C1180 C1183 1.387 . S
H1181 C1177 0.950 . S
H1182 C1179 0.950 . S
C1183 C1174 1.390 . S
C1183 H1176 0.950 . S
C1183 C1180 1.387 . S
C1184 C1185 1.387 . S
C1184 H1188 0.950 . S
C1184 C1193 1.390 . S
C1185 C1184 1.387 . S
C1185 C1187 1.387 . S
H1186 C1193 0.950 . S
C1187 C1185 1.387 . S
C1187 C1189 1.390 . S
C1187 H1191 0.950 . S
H1188 C1184 0.950 . S
C1189 C1187 1.390 . S
C1189 C1190 1.387 . S
C1189 H1192 0.950 . S
C1190 C1189 1.387 . S
C1190 C1193 1.387 . S
H1191 C1187 0.950 . S
H1192 C1189 0.950 . S
C1193 C1184 1.390 . S
C1193 H1186 0.950 . S
C1193 C1190 1.387 . S
C1194 C1195 1.387 . S
C1194 H1198 0.950 . S
C1194 C1203 1.390 . S
C1195 C1194 1.387 . S
C1195 C1197 1.387 . S
H1196 C1203 0.950 . S
C1197 C1195 1.387 . S
C1197 C1199 1.390 . S
C1197 H1201 0.950 . S
H1198 C1194 0.950 . S
C1199 C1197 1.390 . S
C1199 C1200 1.387 . S
C1199 H1202 0.950 . S
C1200 C1199 1.387 . S
C1200 C1203 1.387 . S
H1201 C1197 0.950 . S
H1202 C1199 0.950 . S
C1203 C1194 1.390 . S
C1203 H1196 0.950 . S
C1203 C1200 1.387 . S
C1204 C1205 1.387 . S
C1204 H1208 0.950 . S
C1204 C1213 1.390 . S
C1205 C1204 1.387 . S
C1205 C1207 1.387 . S
H1206 C1213 0.950 . S
C1207 C1205 1.387 . S
C1207 C1209 1.390 . S
C1207 H1211 0.950 . S
H1208 C1204 0.950 . S
C1209 C1207 1.390 . S
C1209 C1210 1.387 . S
C1209 H1212 0.950 . S
C1210 C1209 1.387 . S
C1210 C1213 1.387 . S
H1211 C1207 0.950 . S
H1212 C1209 0.950 . S
C1213 C1204 1.390 . S
C1213 H1206 0.950 . S
C1213 C1210 1.387 . S
C1214 C1215 1.387 . S
C1214 H1218 0.950 . S
C1214 C1223 1.390 . S
C1215 C1214 1.387 . S
C1215 C1217 1.387 . S
H1216 C1223 0.950 . S
C1217 C1215 1.387 . S
C1217 C1219 1.390 . S
C1217 H1221 0.950 . S
H1218 C1214 0.950 . S
C1219 C1217 1.390 . S
C1219 C1220 1.387 . S
C1219 H1222 0.950 . S
C1220 C1219 1.387 . S
C1220 C1223 1.387 . S
H1221 C1217 0.950 . S
H1222 C1219 0.950 . S
C1223 C1214 1.390 . S
C1223 H1216 0.950 . S
C1223 C1220 1.387 . S
C1224 C1225 1.387 . S
C1224 H1228 0.950 . S
C1224 C1233 1.390 . S
C1225 C1224 1.387 . S
C1225 C1227 1.387 . S
H1226 C1233 0.950 . S
C1227 C1225 1.387 . S
C1227 C1229 1.390 . S
C1227 H1231 0.950 . S
H1228 C1224 0.950 . S
C1229 C1227 1.390 . S
C1229 C1230 1.387 . S
C1229 H1232 0.950 . S
C1230 C1229 1.387 . S
C1230 C1233 1.387 . S
H1231 C1227 0.950 . S
H1232 C1229 0.950 . S
C1233 C1224 1.390 . S
C1233 H1226 0.950 . S
C1233 C1230 1.387 . S
C1234 C1235 1.387 . S
C1234 H1238 0.950 . S
C1234 C1243 1.390 . S
C1235 C1234 1.387 . S
C1235 C1237 1.387 . S
H1236 C1243 0.950 . S
C1237 C1235 1.387 . S
C1237 C1239 1.390 . S
C1237 H1241 0.950 . S
H1238 C1234 0.950 . S
C1239 C1237 1.390 . S
C1239 C1240 1.387 . S
C1239 H1242 0.950 . S
C1240 C1239 1.387 . S
C1240 C1243 1.387 . S
H1241 C1237 0.950 . S
H1242 C1239 0.950 . S
C1243 C1234 1.390 . S
C1243 H1236 0.950 . S
C1243 C1240 1.387 . S
C1244 C1245 1.387 . S
C1244 H1248 0.950 . S
C1244 C1253 1.390 . S
C1245 C1244 1.387 . S
C1245 C1247 1.387 . S
H1246 C1253 0.950 . S
C1247 C1245 1.387 . S
C1247 C1249 1.390 . S
C1247 H1251 0.950 . S
H1248 C1244 0.950 . S
C1249 C1247 1.390 . S
C1249 C1250 1.387 . S
C1249 H1252 0.950 . S
C1250 C1249 1.387 . S
C1250 C1253 1.387 . S
H1251 C1247 0.950 . S
H1252 C1249 0.950 . S
C1253 C1244 1.390 . S
C1253 H1246 0.950 . S
C1253 C1250 1.387 . S
C1254 C1255 1.387 . S
C1254 H1258 0.950 . S
C1254 C1263 1.390 . S
C1255 C1254 1.387 . S
C1255 C1257 1.387 . S
H1256 C1263 0.950 . S
C1257 C1255 1.387 . S
C1257 C1259 1.390 . S
C1257 H1261 0.950 . S
H1258 C1254 0.950 . S
C1259 C1257 1.390 . S
C1259 C1260 1.387 . S
C1259 H1262 0.950 . S
C1260 C1259 1.387 . S
C1260 C1263 1.387 . S
H1261 C1257 0.950 . S
H1262 C1259 0.950 . S
C1263 C1254 1.390 . S
C1263 H1256 0.950 . S
C1263 C1260 1.387 . S
C1264 C1265 1.387 . S
C1264 H1268 0.950 . S
C1264 C1273 1.390 . S
C1265 C1264 1.387 . S
C1265 C1267 1.387 . S
H1266 C1273 0.950 . S
C1267 C1265 1.387 . S
C1267 C1269 1.390 . S
C1267 H1271 0.950 . S
H1268 C1264 0.950 . S
C1269 C1267 1.390 . S
C1269 C1270 1.387 . S
C1269 H1272 0.950 . S
C1270 C1269 1.387 . S
C1270 C1273 1.387 . S
H1271 C1267 0.950 . S
H1272 C1269 0.950 . S
C1273 C1264 1.390 . S
C1273 H1266 0.950 . S
C1273 C1270 1.387 . S
C1274 C1275 1.387 . S
C1274 H1278 0.950 . S
C1274 C1283 1.390 . S
C1275 C1274 1.387 . S
C1275 C1277 1.387 . S
H1276 C1283 0.950 . S
C1277 C1275 1.387 . S
C1277 C1279 1.390 . S
C1277 H1281 0.950 . S
H1278 C1274 0.950 . S
C1279 C1277 1.390 . S
C1279 C1280 1.387 . S
C1279 H1282 0.950 . S
C1280 C1279 1.387 . S
C1280 C1283 1.387 . S
H1281 C1277 0.950 . S
H1282 C1279 0.950 . S
C1283 C1274 1.390 . S
C1283 H1276 0.950 . S
C1283 C1280 1.387 . S
C570 C270 1.411 . S
C565 C258 1.411 . S
C575 C236 1.629 . S
C580 C268 1.629 . S
C590 C269 1.629 . S
C585 C225 1.629 . S
C595 C247 1.411 . S
C600 C271 1.411 . S
C610 C315 1.529 . S
C605 C181 1.532 . S
C620 C375 1.463 . S
C615 C192 1.461 . S
C625 C203 1.526 . S
C630 C314 1.524 . S
C640 C374 1.693 . S
C635 C214 1.697 . S
C645 C137 1.593 . S
C650 C316 1.592 . S
C660 C372 1.610 . S
C655 C148 1.610 . S
C665 C159 1.609 . S
C670 C317 1.604 . S
C675 C170 1.392 . S
C680 C373 1.391 . S
C690 C423 1.411 . S
C685 C126 1.411 . S
C695 C104 1.629 . S
C700 C422 1.630 . S
C705 C93 1.629 . S
C710 C424 1.629 . S
C720 C425 1.411 . S
C715 C115 1.410 . S
C725 C49 1.532 . S
C730 C466 1.529 . S
C735 C60 1.460 . S
C740 C525 1.463 . S
C745 C71 1.526 . S
C750 C464 1.524 . S
C755 C82 1.697 1_545 S
C760 C524 1.693 . S
C770 C465 1.592 . S
C765 C5 1.593 . S
C780 C522 1.610 . S
C775 C16 1.609 1_545 S
C785 C27 1.609 . S
C790 C467 1.605 . S
C800 C523 1.392 . S
C795 C38 1.391 1_545 S
C810 C267 1.634 . S
C805 C4 1.588 . S
C815 C21 1.401 . S
C820 C273 1.520 . S
C825 C32 1.374 . S
C830 C265 1.508 . S
C835 C37 1.395 1_545 S
C840 C272 1.461 . S
C845 C48 1.574 . S
C850 C264 1.622 . S
C860 C274 1.500 . S
C855 C59 1.437 . S
C865 C76 1.365 . S
C870 C266 1.499 . S
C880 C275 1.714 . S
C875 C81 1.676 1_545 S
C890 C321 1.448 . S
C885 C43 1.315 . S
C895 C10 1.422 . S
C900 C364 1.546 . S
C910 C319 1.625 . S
C905 C15 1.579 1_545 S
C920 C366 1.694 . S
C915 C26 1.658 . S
C925 C65 1.355 1_545 S
C930 C320 1.475 . S
C940 C365 1.610 . S
C935 C70 1.565 . S
C950 C318 1.532 . S
C945 C87 1.415 . S
C960 C367 1.490 . S
C955 C54 1.353 . S
C970 C371 1.502 . S
C965 C98 1.389 . S
C975 C109 1.390 . S
C980 C370 1.503 . S
C990 C322 1.626 . S
C985 C92 1.583 . S
C1000 C369 1.471 . S
C995 C114 1.406 . S
C1005 C131 1.287 . S
C1010 C325 1.415 . S
C1015 C125 1.411 . S
C1020 C368 1.472 . S
C1030 C324 1.626 . S
C1025 C103 1.583 . S
C1040 C323 1.417 . S
C1035 C120 1.292 . S
C1050 C417 1.634 . S
C1045 C136 1.585 . S
C1060 C420 1.521 . S
C1055 C153 1.406 . S
C1065 C164 1.378 . S
C1070 C416 1.509 . S
C1080 C418 1.461 . S
C1075 C169 1.396 . S
C1090 C414 1.622 . S
C1085 C180 1.573 . S
C1095 C191 1.433 . S
C1100 C419 1.499 . S
C1105 C208 1.365 . S
C1110 C415 1.499 . S
C1120 C421 1.714 . S
C1115 C213 1.679 . S
C1130 C475 1.450 . S
C1125 C175 1.320 . S
C1135 C142 1.422 . S
C1140 C514 1.546 . S
C1150 C474 1.625 . S
C1145 C147 1.577 . S
C1160 C516 1.694 . S
C1155 C158 1.656 . S
C1170 C473 1.475 . S
C1165 C197 1.355 . S
C1175 C202 1.565 . S
C1180 C515 1.610 . S
C1190 C472 1.531 . S
C1185 C219 1.410 . S
C1200 C517 1.491 . S
C1195 C186 1.357 . S
C1210 C521 1.501 . S
C1205 C230 1.385 . S
C1215 C241 1.385 . S
C1220 C520 1.502 . S
C1230 C468 1.626 . S
C1225 C224 1.581 . S
C1235 C246 1.410 . S
C1240 C519 1.472 . S
C1250 C471 1.415 . S
C1245 C263 1.287 . S
C1260 C518 1.471 . S
C1255 C257 1.407 . S
C1270 C469 1.626 . S
C1265 C235 1.580 . S
C1275 C252 1.292 . S
C1280 C470 1.417 . S
