# Generated by pormake.
# Topology ptr, (4,4)-cn, num edge types: 1
# Building blocks:
#     Node 0, Type 0, BuildingBlock: TATPOV_clean_sbu_0, # of connection points: 4
#     Node 1, Type 0, BuildingBlock: TATPOV_clean_sbu_0, # of connection points: 4
#     Node 2, Type 0, BuildingBlock: TATPOV_clean_sbu_0, # of connection points: 4
#     Node 3, Type 0, BuildingBlock: TATPOV_clean_sbu_0, # of connection points: 4
#     Node 4, Type 0, BuildingBlock: TATPOV_clean_sbu_0, # of connection points: 4
#     Node 5, Type 0, BuildingBlock: TATPOV_clean_sbu_0, # of connection points: 4
#     Node 6, Type 0, BuildingBlock: TATPOV_clean_sbu_0, # of connection points: 4
#     Node 7, Type 0, BuildingBlock: TATPOV_clean_sbu_0, # of connection points: 4
#     Node 8, Type 0, BuildingBlock: TATPOV_clean_sbu_0, # of connection points: 4
#     Node 9, Type 0, BuildingBlock: TATPOV_clean_sbu_0, # of connection points: 4
#     Node 10, Type 0, BuildingBlock: TATPOV_clean_sbu_0, # of connection points: 4
#     Node 11, Type 0, BuildingBlock: TATPOV_clean_sbu_0, # of connection points: 4
#     Node 12, Type 0, BuildingBlock: TATPOV_clean_sbu_0, # of connection points: 4
#     Node 13, Type 0, BuildingBlock: TATPOV_clean_sbu_0, # of connection points: 4
#     Node 14, Type 0, BuildingBlock: TATPOV_clean_sbu_0, # of connection points: 4
#     Node 15, Type 0, BuildingBlock: TATPOV_clean_sbu_0, # of connection points: 4
#     Node 16, Type 0, BuildingBlock: TATPOV_clean_sbu_0, # of connection points: 4
#     Node 17, Type 0, BuildingBlock: TATPOV_clean_sbu_0, # of connection points: 4
#     Node 18, Type 1, BuildingBlock: MUDLON_clean_linker_0, # of connection points: 4
#     Node 19, Type 1, BuildingBlock: MUDLON_clean_linker_0, # of connection points: 4
#     Node 20, Type 1, BuildingBlock: MUDLON_clean_linker_0, # of connection points: 4
#     Node 21, Type 1, BuildingBlock: MUDLON_clean_linker_0, # of connection points: 4
#     Node 22, Type 1, BuildingBlock: MUDLON_clean_linker_0, # of connection points: 4
#     Node 23, Type 1, BuildingBlock: MUDLON_clean_linker_0, # of connection points: 4
#     Node 24, Type 1, BuildingBlock: MUDLON_clean_linker_0, # of connection points: 4
#     Node 25, Type 1, BuildingBlock: MUDLON_clean_linker_0, # of connection points: 4
#     Node 26, Type 1, BuildingBlock: MUDLON_clean_linker_0, # of connection points: 4
#     Node 27, Type 1, BuildingBlock: MUDLON_clean_linker_0, # of connection points: 4
#     Node 28, Type 1, BuildingBlock: MUDLON_clean_linker_0, # of connection points: 4
#     Node 29, Type 1, BuildingBlock: MUDLON_clean_linker_0, # of connection points: 4
#     Node 30, Type 1, BuildingBlock: MUDLON_clean_linker_0, # of connection points: 4
#     Node 31, Type 1, BuildingBlock: MUDLON_clean_linker_0, # of connection points: 4
#     Node 32, Type 1, BuildingBlock: MUDLON_clean_linker_0, # of connection points: 4
#     Node 33, Type 1, BuildingBlock: MUDLON_clean_linker_0, # of connection points: 4
#     Node 34, Type 1, BuildingBlock: MUDLON_clean_linker_0, # of connection points: 4
#     Node 35, Type 1, BuildingBlock: MUDLON_clean_linker_0, # of connection points: 4
#     Edge 36, Type (0, 1), BuildingBlock: MIFKUJ_clean_linker_0, # of connection points: 2
#     Edge 37, Type (0, 1), BuildingBlock: MIFKUJ_clean_linker_0, # of connection points: 2
#     Edge 38, Type (0, 1), BuildingBlock: MIFKUJ_clean_linker_0, # of connection points: 2
#     Edge 39, Type (0, 1), BuildingBlock: MIFKUJ_clean_linker_0, # of connection points: 2
#     Edge 40, Type (0, 1), BuildingBlock: MIFKUJ_clean_linker_0, # of connection points: 2
#     Edge 41, Type (0, 1), BuildingBlock: MIFKUJ_clean_linker_0, # of connection points: 2
#     Edge 42, Type (0, 1), BuildingBlock: MIFKUJ_clean_linker_0, # of connection points: 2
#     Edge 43, Type (0, 1), BuildingBlock: MIFKUJ_clean_linker_0, # of connection points: 2
#     Edge 44, Type (0, 1), BuildingBlock: MIFKUJ_clean_linker_0, # of connection points: 2
#     Edge 45, Type (0, 1), BuildingBlock: MIFKUJ_clean_linker_0, # of connection points: 2
#     Edge 46, Type (0, 1), BuildingBlock: MIFKUJ_clean_linker_0, # of connection points: 2
#     Edge 47, Type (0, 1), BuildingBlock: MIFKUJ_clean_linker_0, # of connection points: 2
#     Edge 48, Type (0, 1), BuildingBlock: MIFKUJ_clean_linker_0, # of connection points: 2
#     Edge 49, Type (0, 1), BuildingBlock: MIFKUJ_clean_linker_0, # of connection points: 2
#     Edge 50, Type (0, 1), BuildingBlock: MIFKUJ_clean_linker_0, # of connection points: 2
#     Edge 51, Type (0, 1), BuildingBlock: MIFKUJ_clean_linker_0, # of connection points: 2
#     Edge 52, Type (0, 1), BuildingBlock: MIFKUJ_clean_linker_0, # of connection points: 2
#     Edge 53, Type (0, 1), BuildingBlock: MIFKUJ_clean_linker_0, # of connection points: 2
#     Edge 54, Type (0, 1), BuildingBlock: MIFKUJ_clean_linker_0, # of connection points: 2
#     Edge 55, Type (0, 1), BuildingBlock: MIFKUJ_clean_linker_0, # of connection points: 2
#     Edge 56, Type (0, 1), BuildingBlock: MIFKUJ_clean_linker_0, # of connection points: 2
#     Edge 57, Type (0, 1), BuildingBlock: MIFKUJ_clean_linker_0, # of connection points: 2
#     Edge 58, Type (0, 1), BuildingBlock: MIFKUJ_clean_linker_0, # of connection points: 2
#     Edge 59, Type (0, 1), BuildingBlock: MIFKUJ_clean_linker_0, # of connection points: 2
#     Edge 60, Type (0, 1), BuildingBlock: MIFKUJ_clean_linker_0, # of connection points: 2
#     Edge 61, Type (0, 1), BuildingBlock: MIFKUJ_clean_linker_0, # of connection points: 2
#     Edge 62, Type (0, 1), BuildingBlock: MIFKUJ_clean_linker_0, # of connection points: 2
#     Edge 63, Type (0, 1), BuildingBlock: MIFKUJ_clean_linker_0, # of connection points: 2
#     Edge 64, Type (0, 1), BuildingBlock: MIFKUJ_clean_linker_0, # of connection points: 2
#     Edge 65, Type (0, 1), BuildingBlock: MIFKUJ_clean_linker_0, # of connection points: 2
#     Edge 66, Type (0, 1), BuildingBlock: MIFKUJ_clean_linker_0, # of connection points: 2
#     Edge 67, Type (0, 1), BuildingBlock: MIFKUJ_clean_linker_0, # of connection points: 2
#     Edge 68, Type (0, 1), BuildingBlock: MIFKUJ_clean_linker_0, # of connection points: 2
#     Edge 69, Type (0, 1), BuildingBlock: MIFKUJ_clean_linker_0, # of connection points: 2
#     Edge 70, Type (0, 1), BuildingBlock: MIFKUJ_clean_linker_0, # of connection points: 2
#     Edge 71, Type (0, 1), BuildingBlock: MIFKUJ_clean_linker_0, # of connection points: 2
#     Edge 72, Type (0, 1), BuildingBlock: MIFKUJ_clean_linker_0, # of connection points: 2
#     Edge 73, Type (0, 1), BuildingBlock: MIFKUJ_clean_linker_0, # of connection points: 2
#     Edge 74, Type (0, 1), BuildingBlock: MIFKUJ_clean_linker_0, # of connection points: 2
#     Edge 75, Type (0, 1), BuildingBlock: MIFKUJ_clean_linker_0, # of connection points: 2
#     Edge 76, Type (0, 1), BuildingBlock: MIFKUJ_clean_linker_0, # of connection points: 2
#     Edge 77, Type (0, 1), BuildingBlock: MIFKUJ_clean_linker_0, # of connection points: 2
#     Edge 78, Type (0, 1), BuildingBlock: MIFKUJ_clean_linker_0, # of connection points: 2
#     Edge 79, Type (0, 1), BuildingBlock: MIFKUJ_clean_linker_0, # of connection points: 2
#     Edge 80, Type (0, 1), BuildingBlock: MIFKUJ_clean_linker_0, # of connection points: 2
#     Edge 81, Type (0, 1), BuildingBlock: MIFKUJ_clean_linker_0, # of connection points: 2
#     Edge 82, Type (0, 1), BuildingBlock: MIFKUJ_clean_linker_0, # of connection points: 2
#     Edge 83, Type (0, 1), BuildingBlock: MIFKUJ_clean_linker_0, # of connection points: 2
#     Edge 84, Type (0, 1), BuildingBlock: MIFKUJ_clean_linker_0, # of connection points: 2
#     Edge 85, Type (0, 1), BuildingBlock: MIFKUJ_clean_linker_0, # of connection points: 2
#     Edge 86, Type (0, 1), BuildingBlock: MIFKUJ_clean_linker_0, # of connection points: 2
#     Edge 87, Type (0, 1), BuildingBlock: MIFKUJ_clean_linker_0, # of connection points: 2
#     Edge 88, Type (0, 1), BuildingBlock: MIFKUJ_clean_linker_0, # of connection points: 2
#     Edge 89, Type (0, 1), BuildingBlock: MIFKUJ_clean_linker_0, # of connection points: 2
#     Edge 90, Type (0, 1), BuildingBlock: MIFKUJ_clean_linker_0, # of connection points: 2
#     Edge 91, Type (0, 1), BuildingBlock: MIFKUJ_clean_linker_0, # of connection points: 2
#     Edge 92, Type (0, 1), BuildingBlock: MIFKUJ_clean_linker_0, # of connection points: 2
#     Edge 93, Type (0, 1), BuildingBlock: MIFKUJ_clean_linker_0, # of connection points: 2
#     Edge 94, Type (0, 1), BuildingBlock: MIFKUJ_clean_linker_0, # of connection points: 2
#     Edge 95, Type (0, 1), BuildingBlock: MIFKUJ_clean_linker_0, # of connection points: 2
#     Edge 96, Type (0, 1), BuildingBlock: MIFKUJ_clean_linker_0, # of connection points: 2
#     Edge 97, Type (0, 1), BuildingBlock: MIFKUJ_clean_linker_0, # of connection points: 2
#     Edge 98, Type (0, 1), BuildingBlock: MIFKUJ_clean_linker_0, # of connection points: 2
#     Edge 99, Type (0, 1), BuildingBlock: MIFKUJ_clean_linker_0, # of connection points: 2
#     Edge 100, Type (0, 1), BuildingBlock: MIFKUJ_clean_linker_0, # of connection points: 2
#     Edge 101, Type (0, 1), BuildingBlock: MIFKUJ_clean_linker_0, # of connection points: 2
#     Edge 102, Type (0, 1), BuildingBlock: MIFKUJ_clean_linker_0, # of connection points: 2
#     Edge 103, Type (0, 1), BuildingBlock: MIFKUJ_clean_linker_0, # of connection points: 2
#     Edge 104, Type (0, 1), BuildingBlock: MIFKUJ_clean_linker_0, # of connection points: 2
#     Edge 105, Type (0, 1), BuildingBlock: MIFKUJ_clean_linker_0, # of connection points: 2
#     Edge 106, Type (0, 1), BuildingBlock: MIFKUJ_clean_linker_0, # of connection points: 2
#     Edge 107, Type (0, 1), BuildingBlock: MIFKUJ_clean_linker_0, # of connection points: 2
# Relax obj value: 0.059
# Max RMSD: 0.182
# Mean RMSD: 0.098
data_MOF--net-ptr--node1-TATPOV_clean_sbu_0--node2-MUDLON_clean_linker_0--edge1-MIFKUJ_clean_linker_0
_symmetry_space_group_name_H-M    P1
_symmetry_Int_Tables_number       1
_symmetry_cell_setting            triclinic
loop_
_symmetry_equiv_pos_as_xyz
'x, y, z'
_cell_length_a     128.00764
_cell_length_b     129.80992
_cell_length_c     75.087549
_cell_angle_alpha  89.596207
_cell_angle_beta   90.791949
_cell_angle_gamma 121.33489
loop_
_atom_site_label
_atom_site_type_symbol
_atom_site_fract_x
_atom_site_fract_y
_atom_site_fract_z
_atom_type_partial_charge
Zn0 Zn 0.97628 0.36966 0.0145 0.0
Zn1 Zn 0.99751 0.37005 0.01713 0.0
O2 O 0.98408 0.35189 0.01529 0.0
O3 O 0.96675 0.35156 0.01339 0.0
O4 O 0.01306 0.36972 0.0204 0.0
O5 O 0.9798 0.3782 0.03825 0.0
O6 O 0.99741 0.37899 0.03963 0.0
C7 C 0.97244 0.34599 0.01387 0.0
C8 C 0.9932 0.38265 0.98585 0.0
O9 O 1.00017 0.37993 0.99423 0.0
O10 O 0.98262 0.37922 0.99164 0.0
C11 C 0.01478 0.3621 0.0125 0.0
O12 O 0.00639 0.35442 0.0013 0.0
C13 C 0.98983 0.38144 0.04624 0.0
Zn14 Zn 0.64073 0.61605 0.01842 0.0
Zn15 Zn 0.64089 0.63662 0.02316 0.0
O16 O 0.65897 0.64202 0.01838 0.0
O17 O 0.65883 0.62522 0.01381 0.0
O18 O 0.64153 0.65234 0.02782 0.0
O19 O 0.63466 0.61075 0.04315 0.0
O20 O 0.63334 0.62687 0.04642 0.0
C21 C 0.66463 0.63662 0.01481 0.0
C22 C 0.62511 0.61918 0.99358 0.0
O23 O 0.62948 0.62937 0.00123 0.0
O24 O 0.62827 0.61185 0.99866 0.0
C25 C 0.64957 0.66224 0.02078 0.0
O26 O 0.65748 0.66226 0.0098 0.0
C27 C 0.6317 0.61691 0.05243 0.0
Zn28 Zn 0.37226 0.98554 0.0176 0.0
Zn29 Zn 0.37185 0.00569 0.01399 0.0
O30 O 0.35374 0.99251 0.01818 0.0
O31 O 0.35431 0.9761 0.02323 0.0
O32 O 0.37095 0.02064 0.01024 0.0
O33 O 0.37777 0.98674 0.99246 0.0
O34 O 0.3793 0.00439 0.99032 0.0
C35 C 0.34828 0.98132 0.02202 0.0
C36 C 0.38801 0.00395 0.0427 0.0
O37 O 0.3833 0.00967 0.03593 0.0
O38 O 0.38509 0.99366 0.03684 0.0
C39 C 0.36451 0.02298 0.02024 0.0
O40 O 0.35869 0.01573 0.03361 0.0
C41 C 0.38074 0.9962 0.98364 0.0
Zn42 Zn 0.02654 0.63783 0.00831 0.0
Zn43 Zn 0.00507 0.63699 0.01125 0.0
O44 O 0.01858 0.65512 0.01239 0.0
O45 O 0.03612 0.65596 0.00999 0.0
O46 O 0.98931 0.63719 0.01148 0.0
O47 O 0.02125 0.62966 0.98435 0.0
O48 O 0.00338 0.62801 0.98776 0.0
C49 C 0.03024 0.66126 0.01183 0.0
C50 C 0.01203 0.62433 0.03911 0.0
O51 O 0.00452 0.6273 0.03341 0.0
O52 O 0.02184 0.62768 0.03078 0.0
C53 C 0.98867 0.64565 0.01879 0.0
O54 O 0.99827 0.65418 0.02739 0.0
C55 C 0.01049 0.62598 0.97875 0.0
Zn56 Zn 0.36363 0.38848 0.0164 0.0
Zn57 Zn 0.36191 0.36713 0.01379 0.0
O58 O 0.34409 0.36309 0.01677 0.0
O59 O 0.34538 0.38064 0.01785 0.0
O60 O 0.3594 0.35054 0.01052 0.0
O61 O 0.37215 0.39355 0.9928 0.0
O62 O 0.37085 0.37601 0.99078 0.0
C63 C 0.33895 0.36924 0.01804 0.0
C64 C 0.37673 0.38415 0.04438 0.0
O65 O 0.37293 0.37422 0.03617 0.0
O66 O 0.37377 0.39153 0.03879 0.0
C67 C 0.36738 0.34778 0.01415 0.0
O68 O 0.37805 0.35606 0.02072 0.0
C69 C 0.37433 0.38644 0.98445 0.0
Zn70 Zn 0.63097 0.01887 0.0105 0.0
Zn71 Zn 0.63141 0.99828 0.00931 0.0
O72 O 0.64948 0.01223 0.00651 0.0
O73 O 0.64912 0.02899 0.00686 0.0
O74 O 0.63244 0.98316 0.01017 0.0
O75 O 0.62401 0.01468 0.03531 0.0
O76 O 0.62329 0.9974 0.03326 0.0
C77 C 0.65505 0.02371 0.00555 0.0
C78 C 0.61639 0.00265 0.9816 0.0
O79 O 0.62014 0.99594 0.98781 0.0
O80 O 0.6197 0.01269 0.98893 0.0
C81 C 0.64158 0.98284 0.00442 0.0
O82 O 0.65053 0.99245 0.99671 0.0
C83 C 0.62116 0.00454 0.04186 0.0
Zn84 Zn 0.64209 0.7017 0.34846 0.0
Zn85 Zn 0.66383 0.70309 0.35123 0.0
O86 O 0.65101 0.68483 0.34884 0.0
O87 O 0.6332 0.68356 0.34726 0.0
O88 O 0.67962 0.70328 0.35466 0.0
O89 O 0.64514 0.71002 0.37229 0.0
O90 O 0.66312 0.71163 0.37385 0.0
C91 C 0.63938 0.67848 0.34749 0.0
C92 C 0.65911 0.71543 0.32007 0.0
O93 O 0.66627 0.71296 0.32846 0.0
O94 O 0.64842 0.7116 0.32578 0.0
C95 C 0.68318 0.69857 0.34331 0.0
O96 O 0.67664 0.69384 0.32872 0.0
C97 C 0.65519 0.71361 0.38041 0.0
Zn98 Zn 0.30845 0.95016 0.35499 0.0
Zn99 Zn 0.30729 0.96988 0.35765 0.0
O100 O 0.32583 0.97632 0.35577 0.0
O101 O 0.32683 0.9599 0.3563 0.0
O102 O 0.30705 0.9852 0.36097 0.0
O103 O 0.29856 0.94321 0.37701 0.0
O104 O 0.29881 0.96017 0.38054 0.0
C105 C 0.33213 0.97129 0.35586 0.0
C106 C 0.29543 0.95296 0.32564 0.0
O107 O 0.29737 0.96222 0.33435 0.0
O108 O 0.29964 0.94663 0.33143 0.0
C109 C 0.31211 0.99392 0.35 0.0
O110 O 0.31723 0.99276 0.33572 0.0
C111 C 0.29573 0.94963 0.38593 0.0
Zn112 Zn 0.03582 0.31666 0.36431 0.0
Zn113 Zn 0.03591 0.3369 0.35583 0.0
O114 O 0.01756 0.32399 0.35906 0.0
O115 O 0.01743 0.30732 0.36512 0.0
O116 O 0.03584 0.35203 0.34924 0.0
O117 O 0.04463 0.31817 0.34138 0.0
O118 O 0.04389 0.33425 0.33411 0.0
C119 C 0.01169 0.31274 0.36257 0.0
C120 C 0.04945 0.33582 0.3894 0.0
O121 O 0.04675 0.34175 0.37863 0.0
O122 O 0.04554 0.32479 0.38657 0.0
C123 C 0.02825 0.35449 0.35572 0.0
O124 O 0.02022 0.34705 0.3673 0.0
C125 C 0.04692 0.32657 0.33049 0.0
Zn126 Zn 0.69557 0.96876 0.35095 0.0
Zn127 Zn 0.67479 0.96871 0.34737 0.0
O128 O 0.68789 0.98653 0.3528 0.0
O129 O 0.70495 0.9865 0.35647 0.0
O130 O 0.6596 0.96959 0.34377 0.0
O131 O 0.69404 0.96297 0.32575 0.0
O132 O 0.67638 0.96195 0.32331 0.0
C133 C 0.69934 0.99215 0.35626 0.0
C134 C 0.67707 0.95305 0.37603 0.0
O135 O 0.67081 0.957 0.36856 0.0
O136 O 0.68779 0.95664 0.37077 0.0
C137 C 0.64987 0.96099 0.33682 0.0
O138 O 0.64951 0.95104 0.33237 0.0
C139 C 0.68456 0.96036 0.3167 0.0
Zn140 Zn 0.02621 0.72401 0.3532 0.0
Zn141 Zn 0.02726 0.70446 0.34603 0.0
O142 O 0.00888 0.69774 0.35085 0.0
O143 O 0.0079 0.71402 0.3547 0.0
O144 O 0.02764 0.68948 0.33989 0.0
O145 O 0.03412 0.73144 0.32989 0.0
O146 O 0.03419 0.71497 0.32336 0.0
C147 C 0.00263 0.70266 0.35363 0.0
C148 C 0.04133 0.72047 0.37817 0.0
O149 O 0.03871 0.71156 0.36806 0.0
O150 O 0.03678 0.72694 0.37497 0.0
C151 C 0.02132 0.67963 0.34835 0.0
O152 O 0.0146 0.67925 0.3617 0.0
C153 C 0.03654 0.72551 0.31916 0.0
Zn154 Zn 0.29623 0.35546 0.34438 0.0
Zn155 Zn 0.29846 0.33613 0.34688 0.0
O156 O 0.31597 0.35044 0.34187 0.0
O157 O 0.31431 0.36648 0.34063 0.0
O158 O 0.30138 0.32232 0.34999 0.0
O159 O 0.28938 0.35252 0.36897 0.0
O160 O 0.29084 0.3364 0.37099 0.0
C161 C 0.32085 0.3618 0.3399 0.0
C162 C 0.28177 0.337 0.31814 0.0
O163 O 0.28645 0.33141 0.32551 0.0
O164 O 0.28459 0.34734 0.32369 0.0
C165 C 0.29315 0.31119 0.34892 0.0
O166 O 0.28182 0.30811 0.34525 0.0
C167 C 0.28777 0.34344 0.37769 0.0
Zn168 Zn 0.30515 0.0344 0.67214 0.0
Zn169 Zn 0.32663 0.03586 0.67764 0.0
O170 O 0.3139 0.0176 0.67496 0.0
O171 O 0.2961 0.01625 0.6723 0.0
O172 O 0.34227 0.03591 0.68225 0.0
O173 O 0.30778 0.04365 0.69495 0.0
O174 O 0.32493 0.04397 0.70007 0.0
C175 C 0.30229 0.0112 0.67328 0.0
C176 C 0.32282 0.04782 0.64484 0.0
O177 O 0.3299 0.04603 0.65475 0.0
O178 O 0.31174 0.04341 0.64903 0.0
C179 C 0.34543 0.03039 0.67172 0.0
O180 O 0.33866 0.02515 0.65749 0.0
C181 C 0.31704 0.04659 0.70478 0.0
Zn182 Zn 0.96988 0.28338 0.67417 0.0
Zn183 Zn 0.97249 0.30438 0.68414 0.0
O184 O 0.99034 0.30871 0.68 0.0
O185 O 0.98816 0.29123 0.67311 0.0
O186 O 0.97431 0.32018 0.69151 0.0
O187 O 0.96075 0.27573 0.69693 0.0
O188 O 0.96391 0.2933 0.70563 0.0
C189 C 0.99501 0.30245 0.67584 0.0
C190 C 0.9579 0.2913 0.65021 0.0
O191 O 0.96148 0.29975 0.66161 0.0
O192 O 0.96067 0.28331 0.65217 0.0
C193 C 0.98036 0.32967 0.68218 0.0
O194 O 0.98564 0.32915 0.66761 0.0
C195 C 0.95959 0.2821 0.7085 0.0
Zn196 Zn 0.70358 0.64925 0.68524 0.0
Zn197 Zn 0.70397 0.66995 0.68081 0.0
O198 O 0.68585 0.6572 0.68546 0.0
O199 O 0.68517 0.63993 0.68702 0.0
O200 O 0.70319 0.68485 0.67554 0.0
O201 O 0.71168 0.65136 0.6617 0.0
O202 O 0.71111 0.66786 0.65744 0.0
C203 C 0.67975 0.64577 0.68724 0.0
C204 C 0.71837 0.66743 0.71168 0.0
O205 O 0.71539 0.67399 0.70287 0.0
O206 O 0.71423 0.65661 0.70702 0.0
C207 C 0.70439 0.69269 0.68677 0.0
O208 O 0.70671 0.6916 0.70355 0.0
C209 C 0.71383 0.66026 0.65203 0.0
Zn210 Zn 0.36074 0.29904 0.68355 0.0
Zn211 Zn 0.34116 0.30087 0.6782 0.0
O212 O 0.35478 0.31815 0.68537 0.0
O213 O 0.37065 0.31638 0.69129 0.0
O214 O 0.32686 0.30304 0.67294 0.0
O215 O 0.36053 0.29452 0.65802 0.0
O216 O 0.34345 0.29451 0.65416 0.0
C217 C 0.36588 0.32281 0.6905 0.0
C218 C 0.3406 0.28323 0.70609 0.0
O219 O 0.3355 0.28844 0.69879 0.0
O220 O 0.35122 0.28595 0.70148 0.0
C221 C 0.31919 0.30203 0.68448 0.0
O222 O 0.32021 0.29909 0.70092 0.0
C223 C 0.35164 0.2927 0.64813 0.0
Zn224 Zn 0.69724 0.05836 0.67961 0.0
Zn225 Zn 0.69552 0.03689 0.67764 0.0
O226 O 0.67768 0.03266 0.68158 0.0
O227 O 0.67914 0.05029 0.68317 0.0
O228 O 0.69383 0.02063 0.6742 0.0
O229 O 0.70414 0.06273 0.65491 0.0
O230 O 0.70383 0.04562 0.65421 0.0
C231 C 0.67267 0.03889 0.68355 0.0
C232 C 0.71135 0.05463 0.70684 0.0
O233 O 0.7069 0.04432 0.6995 0.0
O234 O 0.70863 0.0621 0.7008 0.0
C235 C 0.68607 0.01105 0.68225 0.0
O236 O 0.67885 0.01158 0.69399 0.0
C237 C 0.70647 0.0556 0.64698 0.0
Zn238 Zn 0.96548 0.69194 0.6737 0.0
Zn239 Zn 0.96529 0.67138 0.67932 0.0
O240 O 0.9832 0.6839 0.67285 0.0
O241 O 0.98339 0.7007 0.66773 0.0
O242 O 0.96622 0.65661 0.68511 0.0
O243 O 0.96035 0.69178 0.69893 0.0
O244 O 0.9591 0.67436 0.70295 0.0
C245 C 0.98897 0.69503 0.66856 0.0
C246 C 0.94868 0.67234 0.65044 0.0
O247 O 0.9529 0.66652 0.65841 0.0
O248 O 0.95249 0.68317 0.6547 0.0
C249 C 0.96469 0.64857 0.67401 0.0
O250 O 0.96193 0.6494 0.65736 0.0
C251 C 0.95783 0.68284 0.70879 0.0
H252 H 0.19845 0.32936 0.14336 0.0
N253 N 0.18869 0.3121 0.11721 0.0
H254 H 0.20759 0.32822 0.17136 0.0
H255 H 0.18803 0.29285 0.13096 0.0
H256 H 0.19672 0.29139 0.15945 0.0
H257 H 0.21112 0.33317 0.11765 0.0
H258 H 0.2278 0.33884 0.09729 0.0
H259 H 0.18847 0.3003 0.08815 0.0
H260 H 0.20545 0.30594 0.06761 0.0
H261 H 0.19482 0.33556 0.10975 0.0
H262 H 0.16475 0.30002 0.12274 0.0
H263 H 0.1812 0.34322 0.10948 0.0
H264 H 0.15101 0.30784 0.1233 0.0
H265 H 0.13696 0.36212 0.14686 0.0
H266 H 0.12609 0.35892 0.17492 0.0
H267 H 0.10608 0.3205 0.16552 0.0
H268 H 0.11717 0.32376 0.1377 0.0
H269 H 0.11175 0.32766 0.10944 0.0
H270 H 0.09885 0.3303 0.08812 0.0
H271 H 0.1269 0.36787 0.08238 0.0
H272 H 0.13978 0.36515 0.10404 0.0
H273 H 0.15716 0.35626 0.13181 0.0
H274 H 0.17054 0.34814 0.12963 0.0
H275 H 0.14079 0.31554 0.10605 0.0
N276 N 0.13371 0.34561 0.12319 0.0
H277 H 0.1274 0.32358 0.10901 0.0
C278 C 0.19258 0.31116 0.13498 0.0
C279 C 0.1979 0.32099 0.14683 0.0
C280 C 0.20308 0.32029 0.16295 0.0
C281 C 0.20298 0.30972 0.16768 0.0
C282 C 0.19718 0.29974 0.15612 0.0
C283 C 0.19209 0.3005 0.13994 0.0
C284 C 0.19836 0.31632 0.10431 0.0
C285 C 0.2096 0.32725 0.1066 0.0
C286 C 0.21919 0.33051 0.09489 0.0
C287 C 0.21789 0.32287 0.08079 0.0
C288 C 0.20667 0.312 0.07837 0.0
C289 C 0.19698 0.30881 0.08999 0.0
C290 C 0.18084 0.31705 0.11616 0.0
C291 C 0.1853 0.32931 0.11252 0.0
C292 C 0.17745 0.33378 0.11254 0.0
C293 C 0.16497 0.3262 0.11647 0.0
C294 C 0.16051 0.31394 0.11994 0.0
C295 C 0.16836 0.30945 0.11974 0.0
C296 C 0.12782 0.34323 0.14018 0.0
C297 C 0.13034 0.35302 0.15101 0.0
C298 C 0.12414 0.35117 0.16699 0.0
C299 C 0.1152 0.33947 0.17231 0.0
C300 C 0.11284 0.32962 0.16161 0.0
C301 C 0.11917 0.33147 0.14573 0.0
C302 C 0.12682 0.34624 0.10834 0.0
C303 C 0.11532 0.33639 0.10331 0.0
C304 C 0.10791 0.33792 0.09104 0.0
C305 C 0.11181 0.34933 0.08364 0.0
C306 C 0.12357 0.35901 0.08801 0.0
C307 C 0.13098 0.35745 0.10023 0.0
C308 C 0.14135 0.34064 0.12044 0.0
C309 C 0.15359 0.3474 0.12605 0.0
C310 C 0.16122 0.34275 0.12468 0.0
C311 C 0.1568 0.33118 0.11753 0.0
C312 C 0.1445 0.32442 0.11179 0.0
C313 C 0.13682 0.32907 0.11331 0.0
H314 H 0.70174 0.80195 0.12974 0.0
N315 N 0.68529 0.80678 0.117 0.0
H316 H 0.70124 0.79235 0.15811 0.0
H317 H 0.66978 0.80273 0.14473 0.0
H318 H 0.66949 0.79365 0.17324 0.0
H319 H 0.66269 0.78624 0.11922 0.0
H320 H 0.65554 0.7681 0.1015 0.0
H321 H 0.69448 0.80538 0.08624 0.0
H322 H 0.68695 0.78757 0.06741 0.0
H323 H 0.70325 0.82902 0.11032 0.0
H324 H 0.66429 0.80755 0.11734 0.0
H325 H 0.70209 0.84707 0.10694 0.0
H326 H 0.66304 0.82572 0.11559 0.0
H327 H 0.69825 0.90446 0.12129 0.0
H328 H 0.69706 0.9139 0.14864 0.0
H329 H 0.66396 0.88075 0.16273 0.0
H330 H 0.66522 0.87144 0.13513 0.0
H331 H 0.65879 0.87724 0.10708 0.0
H332 H 0.65108 0.88616 0.08616 0.0
H333 H 0.68489 0.90172 0.05695 0.0
H334 H 0.69284 0.89347 0.07895 0.0
H335 H 0.6999 0.87917 0.12167 0.0
H336 H 0.69997 0.86051 0.12351 0.0
H337 H 0.66396 0.84136 0.09897 0.0
N338 N 0.68242 0.88247 0.10931 0.0
H339 H 0.66366 0.86004 0.09854 0.0
C340 C 0.68588 0.80313 0.13502 0.0
C341 C 0.69484 0.80038 0.13937 0.0
C342 C 0.69454 0.79491 0.15562 0.0
C343 C 0.68525 0.79211 0.16794 0.0
C344 C 0.67664 0.79547 0.16394 0.0
C345 C 0.67689 0.80083 0.14763 0.0
C346 C 0.67931 0.79708 0.10429 0.0
C347 C 0.66796 0.78664 0.10781 0.0
C348 C 0.66382 0.77625 0.0975 0.0
C349 C 0.6708 0.77618 0.08319 0.0
C350 C 0.68153 0.78708 0.07868 0.0
C351 C 0.68578 0.79735 0.08924 0.0
C352 C 0.68396 0.81705 0.1145 0.0
C353 C 0.69445 0.82828 0.11135 0.0
C354 C 0.69374 0.83861 0.10964 0.0
C355 C 0.6825 0.83803 0.11145 0.0
C356 C 0.67187 0.82662 0.11407 0.0
C357 C 0.67257 0.8162 0.11535 0.0
C358 C 0.68188 0.8873 0.12625 0.0
C359 C 0.69084 0.89922 0.13042 0.0
C360 C 0.69014 0.90456 0.14605 0.0
C361 C 0.68041 0.89807 0.15787 0.0
C362 C 0.6715 0.88602 0.15381 0.0
C363 C 0.67224 0.88066 0.13813 0.0
C364 C 0.67654 0.88494 0.09479 0.0
C365 C 0.66449 0.88245 0.09607 0.0
C366 C 0.66004 0.88751 0.08391 0.0
C367 C 0.66744 0.89495 0.06997 0.0
C368 C 0.67906 0.89641 0.06781 0.0
C369 C 0.68358 0.89155 0.0802 0.0
C370 C 0.68191 0.8711 0.10978 0.0
C371 C 0.69202 0.87092 0.11674 0.0
C372 C 0.69206 0.86021 0.11757 0.0
C373 C 0.68207 0.84934 0.11105 0.0
C374 C 0.67181 0.84949 0.10423 0.0
C375 C 0.67167 0.86023 0.10379 0.0
H376 H 0.1194 0.79125 0.13035 0.0
N377 N 0.11784 0.80956 0.11448 0.0
H378 H 0.10906 0.78028 0.15706 0.0
H379 H 0.10406 0.81377 0.13587 0.0
H380 H 0.09313 0.8024 0.16244 0.0
H381 H 0.09786 0.80229 0.09478 0.0
H382 H 0.08856 0.7855 0.07367 0.0
H383 H 0.129 0.79814 0.10093 0.0
H384 H 0.1198 0.78138 0.07975 0.0
H385 H 0.13737 0.81021 0.13181 0.0
H386 H 0.12719 0.83071 0.09811 0.0
H387 H 0.15815 0.8271 0.13338 0.0
H388 H 0.1484 0.84761 0.09867 0.0
H389 H 0.22264 0.87795 0.14092 0.0
H390 H 0.23237 0.88845 0.1687 0.0
H391 H 0.20667 0.9005 0.17188 0.0
H392 H 0.19735 0.89031 0.1437 0.0
H393 H 0.20977 0.90091 0.11537 0.0
H394 H 0.22482 0.91479 0.09402 0.0
H395 H 0.22895 0.88585 0.07444 0.0
H396 H 0.21457 0.87235 0.09678 0.0
H397 H 0.19713 0.85499 0.12124 0.0
H398 H 0.17614 0.83811 0.11773 0.0
H399 H 0.16344 0.86318 0.11655 0.0
N400 N 0.20484 0.87826 0.1229 0.0
H401 H 0.18466 0.88001 0.11882 0.0
C402 C 0.11261 0.80348 0.13112 0.0
C403 C 0.11388 0.79393 0.13736 0.0
C404 C 0.1078 0.78752 0.1526 0.0
C405 C 0.10014 0.79036 0.16186 0.0
C406 C 0.09906 0.80005 0.15579 0.0
C407 C 0.10526 0.80654 0.14059 0.0
C408 C 0.11405 0.80144 0.09949 0.0
C409 C 0.10285 0.79798 0.09113 0.0
C410 C 0.09756 0.7884 0.07906 0.0
C411 C 0.1034 0.78204 0.07516 0.0
C412 C 0.11502 0.78601 0.08268 0.0
C413 C 0.12033 0.79565 0.0947 0.0
C414 C 0.13053 0.81919 0.11501 0.0
C415 C 0.13955 0.81829 0.12461 0.0
C416 C 0.1516 0.82802 0.12533 0.0
C417 C 0.15507 0.83882 0.11615 0.0
C418 C 0.14609 0.83957 0.10621 0.0
C419 C 0.13397 0.82988 0.10573 0.0
C420 C 0.20924 0.88325 0.14036 0.0
C421 C 0.21901 0.8827 0.14781 0.0
C422 C 0.22452 0.88868 0.16373 0.0
C423 C 0.2203 0.89532 0.17261 0.0
C424 C 0.21024 0.89559 0.16532 0.0
C425 C 0.20479 0.88964 0.1493 0.0
C426 C 0.2113 0.88568 0.10788 0.0
C427 C 0.21382 0.89754 0.10631 0.0
C428 C 0.22238 0.90545 0.09397 0.0
C429 C 0.22838 0.90155 0.08274 0.0
C430 C 0.22486 0.88931 0.08325 0.0
C431 C 0.21652 0.88151 0.09583 0.0
C432 C 0.19237 0.86865 0.12059 0.0
C433 C 0.18978 0.85678 0.12013 0.0
C434 C 0.17774 0.84715 0.11828 0.0
C435 C 0.16797 0.8492 0.11712 0.0
C436 C 0.17067 0.86121 0.11727 0.0
C437 C 0.18279 0.87086 0.11882 0.0
H438 H 0.35495 0.21856 0.87865 0.0
N439 N 0.34253 0.21022 0.90859 0.0
H440 H 0.34851 0.22407 0.85123 0.0
H441 H 0.31983 0.20673 0.90168 0.0
H442 H 0.31312 0.21178 0.87418 0.0
H443 H 0.32528 0.20742 0.93243 0.0
H444 H 0.32746 0.22265 0.95386 0.0
H445 H 0.36282 0.23062 0.91712 0.0
H446 H 0.36516 0.24582 0.93847 0.0
H447 H 0.35876 0.2038 0.91514 0.0
H448 H 0.32 0.18953 0.91104 0.0
H449 H 0.35493 0.18344 0.91933 0.0
H450 H 0.31604 0.1691 0.91414 0.0
H451 H 0.34456 0.12781 0.89842 0.0
H452 H 0.34454 0.11885 0.87014 0.0
H453 H 0.30551 0.10354 0.8651 0.0
H454 H 0.30572 0.11303 0.8933 0.0
H455 H 0.31082 0.10558 0.93371 0.0
H456 H 0.31768 0.09554 0.95429 0.0
H457 H 0.35488 0.1254 0.94943 0.0
H458 H 0.34792 0.13536 0.92886 0.0
H459 H 0.34495 0.14581 0.90204 0.0
H460 H 0.34901 0.16623 0.90228 0.0
H461 H 0.31608 0.1543 0.93238 0.0
N462 N 0.3246 0.1256 0.91536 0.0
H463 H 0.31174 0.13359 0.93119 0.0
C464 C 0.33791 0.21219 0.89214 0.0
C465 C 0.34576 0.21693 0.87761 0.0
C466 C 0.34202 0.22001 0.86194 0.0
C467 C 0.33027 0.21835 0.86045 0.0
C468 C 0.32228 0.21331 0.87492 0.0
C469 C 0.32607 0.21029 0.89064 0.0
C470 C 0.34391 0.21799 0.92314 0.0
C471 C 0.33403 0.21572 0.93387 0.0
C472 C 0.33528 0.22443 0.94606 0.0
C473 C 0.34647 0.23546 0.94782 0.0
C474 C 0.35647 0.23738 0.93763 0.0
C475 C 0.35516 0.22874 0.9254 0.0
C476 C 0.33973 0.19819 0.91253 0.0
C477 C 0.34941 0.19624 0.91517 0.0
C478 C 0.34719 0.18457 0.91738 0.0
C479 C 0.33516 0.17453 0.91678 0.0
C480 C 0.32541 0.17657 0.91481 0.0
C481 C 0.32767 0.18829 0.91285 0.0
C482 C 0.3251 0.12118 0.89799 0.0
C483 C 0.33602 0.12272 0.89117 0.0
C484 C 0.33597 0.11744 0.87501 0.0
C485 C 0.32501 0.11037 0.86536 0.0
C486 C 0.31415 0.10904 0.87204 0.0
C487 C 0.31423 0.11441 0.88817 0.0
C488 C 0.3288 0.12115 0.9297 0.0
C489 C 0.3204 0.11007 0.93746 0.0
C490 C 0.32435 0.10438 0.94922 0.0
C491 C 0.33684 0.10964 0.9534 0.0
C492 C 0.34521 0.12105 0.9463 0.0
C493 C 0.34123 0.12679 0.9346 0.0
C494 C 0.32788 0.13804 0.91639 0.0
C495 C 0.33855 0.14749 0.90867 0.0
C496 C 0.34095 0.1593 0.909 0.0
C497 C 0.33287 0.16201 0.91731 0.0
C498 C 0.32241 0.15257 0.92555 0.0
C499 C 0.31995 0.14074 0.92503 0.0
H500 H 0.78766 0.11471 0.89589 0.0
N501 N 0.80792 0.11523 0.90953 0.0
H502 H 0.77764 0.10636 0.8674 0.0
H503 H 0.81502 0.1059 0.88422 0.0
H504 H 0.80498 0.09753 0.85531 0.0
H505 H 0.79872 0.09316 0.92256 0.0
H506 H 0.78105 0.08219 0.94174 0.0
H507 H 0.79702 0.12528 0.92831 0.0
H508 H 0.77989 0.11466 0.94843 0.0
H509 H 0.80691 0.13411 0.89407 0.0
H510 H 0.8288 0.12559 0.92816 0.0
H511 H 0.82239 0.15522 0.89555 0.0
H512 H 0.84418 0.14711 0.93081 0.0
H513 H 0.86802 0.21904 0.89085 0.0
H514 H 0.87913 0.2289 0.86349 0.0
H515 H 0.89721 0.20863 0.86653 0.0
H516 H 0.88603 0.19876 0.89357 0.0
H517 H 0.89335 0.20841 0.92153 0.0
H518 H 0.90681 0.22339 0.94332 0.0
H519 H 0.87715 0.22809 0.95913 0.0
H520 H 0.86413 0.21384 0.93606 0.0
H521 H 0.84661 0.19362 0.91147 0.0
H522 H 0.83113 0.1722 0.91301 0.0
H523 H 0.85976 0.16388 0.91606 0.0
N524 N 0.87065 0.20377 0.91141 0.0
H525 H 0.87509 0.18546 0.91604 0.0
C526 C 0.80219 0.11099 0.89221 0.0
C527 C 0.7916 0.11107 0.88713 0.0
C528 C 0.78588 0.10633 0.87075 0.0
C529 C 0.79054 0.10132 0.85907 0.0
C530 C 0.80114 0.10126 0.86409 0.0
C531 C 0.80692 0.1061 0.8805 0.0
C532 C 0.79925 0.11002 0.9239 0.0
C533 C 0.7948 0.09796 0.9285 0.0
C534 C 0.78469 0.09171 0.93957 0.0
C535 C 0.77887 0.09746 0.94656 0.0
C536 C 0.78391 0.10982 0.94297 0.0
C537 C 0.79389 0.116 0.93161 0.0
C538 C 0.81673 0.12807 0.91077 0.0
C539 C 0.81501 0.13671 0.90199 0.0
C540 C 0.8239 0.14896 0.90308 0.0
C541 C 0.83462 0.15302 0.91336 0.0
C542 C 0.83619 0.14439 0.92249 0.0
C543 C 0.82736 0.13207 0.92112 0.0
C544 C 0.87619 0.20822 0.8943 0.0
C545 C 0.87421 0.21659 0.88538 0.0
C546 C 0.88055 0.22218 0.86981 0.0
C547 C 0.8891 0.21959 0.863 0.0
C548 C 0.89078 0.2109 0.87162 0.0
C549 C 0.88433 0.2052 0.88706 0.0
C550 C 0.87782 0.21031 0.9268 0.0
C551 C 0.88972 0.21262 0.92971 0.0
C552 C 0.89741 0.22115 0.94241 0.0
C553 C 0.89323 0.22728 0.95277 0.0
C554 C 0.88089 0.22395 0.95098 0.0
C555 C 0.87334 0.21567 0.93798 0.0
C556 C 0.86194 0.19109 0.91321 0.0
C557 C 0.84949 0.18713 0.91263 0.0
C558 C 0.84066 0.17485 0.91332 0.0
C559 C 0.84411 0.16617 0.91424 0.0
C560 C 0.85669 0.17023 0.91539 0.0
C561 C 0.86552 0.18258 0.91509 0.0
H562 H 0.82118 0.71642 0.88972 0.0
N563 N 0.81515 0.6986 0.91286 0.0
H564 H 0.81133 0.71529 0.86092 0.0
H565 H 0.79749 0.67799 0.89608 0.0
H566 H 0.78747 0.67682 0.86794 0.0
H567 H 0.80011 0.67603 0.92655 0.0
H568 H 0.78263 0.67008 0.94566 0.0
H569 H 0.81037 0.71321 0.93068 0.0
H570 H 0.79349 0.70755 0.95101 0.0
H571 H 0.83616 0.71272 0.92964 0.0
H572 H 0.81579 0.67861 0.9024 0.0
H573 H 0.85339 0.70976 0.93355 0.0
H574 H 0.83316 0.67583 0.90537 0.0
H575 H 0.9099 0.70402 0.90723 0.0
H576 H 0.91819 0.70211 0.87909 0.0
H577 H 0.88333 0.67028 0.86628 0.0
H578 H 0.87516 0.67226 0.89453 0.0
H579 H 0.88143 0.66547 0.92134 0.0
H580 H 0.89007 0.65699 0.94135 0.0
H581 H 0.90752 0.69004 0.97204 0.0
H582 H 0.89958 0.69876 0.95088 0.0
H583 H 0.88684 0.70888 0.91674 0.0
H584 H 0.86874 0.71056 0.9158 0.0
H585 H 0.84593 0.67211 0.92448 0.0
N586 N 0.88787 0.68918 0.92033 0.0
H587 H 0.86422 0.67053 0.92464 0.0
C588 C 0.81017 0.69735 0.89509 0.0
C589 C 0.81398 0.70773 0.8848 0.0
C590 C 0.80826 0.70708 0.86846 0.0
C591 C 0.79856 0.69596 0.86211 0.0
C592 C 0.79502 0.68551 0.87222 0.0
C593 C 0.80076 0.68618 0.88848 0.0
C594 C 0.80636 0.69506 0.92688 0.0
C595 C 0.79873 0.68295 0.93189 0.0
C596 C 0.78879 0.67958 0.94304 0.0
C597 C 0.78643 0.6883 0.9497 0.0
C598 C 0.79472 0.70052 0.94573 0.0
C599 C 0.80449 0.70382 0.93431 0.0
C600 C 0.82478 0.69607 0.91548 0.0
C601 C 0.83544 0.70461 0.92445 0.0
C602 C 0.84531 0.70292 0.92653 0.0
C603 C 0.8448 0.69264 0.91949 0.0
C604 C 0.8339 0.68383 0.91104 0.0
C605 C 0.82395 0.68548 0.90915 0.0
C606 C 0.89197 0.68834 0.90293 0.0
C607 C 0.90403 0.69675 0.89821 0.0
C608 C 0.90872 0.69564 0.88213 0.0
C609 C 0.90141 0.68603 0.87048 0.0
C610 C 0.88921 0.67771 0.87508 0.0
C611 C 0.88451 0.67887 0.89115 0.0
C612 C 0.89015 0.68291 0.93435 0.0
C613 C 0.887 0.67086 0.93246 0.0
C614 C 0.89191 0.66596 0.94412 0.0
C615 C 0.89981 0.6729 0.95818 0.0
C616 C 0.90186 0.68454 0.96103 0.0
C617 C 0.89718 0.68951 0.94912 0.0
C618 C 0.8769 0.68966 0.92093 0.0
C619 C 0.87792 0.70084 0.91856 0.0
C620 C 0.86755 0.70177 0.91815 0.0
C621 C 0.85581 0.69149 0.92026 0.0
C622 C 0.85479 0.68021 0.92269 0.0
C623 C 0.86524 0.67929 0.92294 0.0
H624 H 0.75736 0.63898 0.44987 0.0
N625 N 0.78052 0.65089 0.43969 0.0
H626 H 0.74898 0.64174 0.47739 0.0
H627 H 0.79379 0.66539 0.46798 0.0
H628 H 0.78549 0.66789 0.49558 0.0
H629 H 0.79076 0.67537 0.43894 0.0
H630 H 0.78425 0.68624 0.4195 0.0
H631 H 0.767 0.64248 0.4103 0.0
H632 H 0.76024 0.65318 0.39099 0.0
H633 H 0.77976 0.63016 0.43811 0.0
H634 H 0.80489 0.66855 0.44067 0.0
H635 H 0.79684 0.62684 0.43973 0.0
H636 H 0.82204 0.66537 0.44335 0.0
H637 H 0.85107 0.61895 0.46773 0.0
H638 H 0.86075 0.62017 0.49657 0.0
H639 H 0.86969 0.65705 0.50216 0.0
H640 H 0.85928 0.65538 0.47388 0.0
H641 H 0.86975 0.65945 0.4467 0.0
H642 H 0.88722 0.66575 0.42753 0.0
H643 H 0.87035 0.62958 0.40659 0.0
H644 H 0.8527 0.62328 0.42598 0.0
H645 H 0.82765 0.62361 0.46322 0.0
H646 H 0.81102 0.62748 0.46025 0.0
H647 H 0.83435 0.65939 0.42923 0.0
N648 N 0.85016 0.63644 0.45062 0.0
H649 H 0.85102 0.65585 0.43298 0.0
C650 C 0.77618 0.6518 0.45689 0.0
C651 C 0.76355 0.64519 0.45991 0.0
C652 C 0.75879 0.64683 0.47551 0.0
C653 C 0.76661 0.65503 0.48853 0.0
C654 C 0.77929 0.66144 0.48577 0.0
C655 C 0.78404 0.65996 0.47 0.0
C656 C 0.77935 0.65807 0.42601 0.0
C657 C 0.78446 0.67056 0.42808 0.0
C658 C 0.78061 0.67674 0.41708 0.0
C659 C 0.7716 0.67055 0.40383 0.0
C660 C 0.76726 0.65827 0.40092 0.0
C661 C 0.77111 0.65212 0.41194 0.0
C662 C 0.791 0.64954 0.43939 0.0
C663 C 0.789 0.63787 0.43903 0.0
C664 C 0.79879 0.63601 0.44018 0.0
C665 C 0.81089 0.64582 0.44198 0.0
C666 C 0.8129 0.65758 0.44186 0.0
C667 C 0.80307 0.65943 0.44044 0.0
C668 C 0.85457 0.63707 0.4686 0.0
C669 C 0.85492 0.62719 0.47541 0.0
C670 C 0.8606 0.62798 0.49179 0.0
C671 C 0.86623 0.63879 0.50164 0.0
C672 C 0.8654 0.64855 0.49509 0.0
C673 C 0.85955 0.64767 0.4788 0.0
C674 C 0.85978 0.64086 0.43763 0.0
C675 C 0.86963 0.65289 0.43778 0.0
C676 C 0.87964 0.65651 0.42673 0.0
C677 C 0.88014 0.64816 0.41552 0.0
C678 C 0.87021 0.6362 0.41513 0.0
C679 C 0.86011 0.63261 0.42606 0.0
C680 C 0.84069 0.63934 0.44847 0.0
C681 C 0.8292 0.63149 0.45587 0.0
C682 C 0.81965 0.63367 0.45398 0.0
C683 C 0.82124 0.64371 0.44433 0.0
C684 C 0.83278 0.65164 0.43695 0.0
C685 C 0.84241 0.64954 0.43906 0.0
H686 H 0.36827 0.13523 0.4545 0.0
N687 N 0.35183 0.14019 0.44221 0.0
H688 H 0.36808 0.12584 0.48304 0.0
H689 H 0.33627 0.13585 0.46978 0.0
H690 H 0.33612 0.1266 0.49845 0.0
H691 H 0.32809 0.12134 0.44293 0.0
H692 H 0.31942 0.10294 0.42521 0.0
H693 H 0.36182 0.13646 0.41413 0.0
H694 H 0.3534 0.11791 0.39669 0.0
H695 H 0.36866 0.16302 0.44855 0.0
H696 H 0.33082 0.14021 0.43287 0.0
H697 H 0.36654 0.18059 0.4472 0.0
H698 H 0.32879 0.15779 0.43039 0.0
H699 H 0.36405 0.23343 0.45327 0.0
H700 H 0.36453 0.24352 0.48098 0.0
H701 H 0.32757 0.21478 0.4919 0.0
H702 H 0.32711 0.20499 0.46409 0.0
H703 H 0.32089 0.20586 0.43443 0.0
H704 H 0.31272 0.2158 0.4162 0.0
H705 H 0.34867 0.23934 0.39443 0.0
H706 H 0.35681 0.22971 0.41346 0.0
H707 H 0.3637 0.21183 0.42887 0.0
H708 H 0.36488 0.19367 0.42799 0.0
H709 H 0.32748 0.17261 0.44594 0.0
N710 N 0.34511 0.21379 0.43911 0.0
H711 H 0.32621 0.19074 0.44542 0.0
C712 C 0.35237 0.1363 0.46006 0.0
C713 C 0.36137 0.13356 0.4642 0.0
C714 C 0.3612 0.12815 0.48041 0.0
C715 C 0.35207 0.12547 0.4929 0.0
C716 C 0.34333 0.12868 0.48911 0.0
C717 C 0.34341 0.13396 0.47275 0.0
C718 C 0.34562 0.13035 0.42973 0.0
C719 C 0.33353 0.12082 0.43247 0.0
C720 C 0.32864 0.11022 0.42247 0.0
C721 C 0.33575 0.10885 0.40965 0.0
C722 C 0.34759 0.11866 0.40628 0.0
C723 C 0.35244 0.12929 0.41623 0.0
C724 C 0.35002 0.15028 0.44067 0.0
C725 C 0.35993 0.16183 0.44457 0.0
C726 C 0.3587 0.1719 0.44361 0.0
C727 C 0.34752 0.17073 0.43843 0.0
C728 C 0.33753 0.15909 0.43458 0.0
C729 C 0.33872 0.14897 0.43584 0.0
C730 C 0.34562 0.21846 0.45663 0.0
C731 C 0.35616 0.22924 0.46185 0.0
C732 C 0.3564 0.23496 0.47768 0.0
C733 C 0.34605 0.22999 0.48862 0.0
C734 C 0.33563 0.21894 0.48365 0.0
C735 C 0.3354 0.21324 0.46779 0.0
C736 C 0.33951 0.21719 0.42544 0.0
C737 C 0.32695 0.213 0.42549 0.0
C738 C 0.32228 0.21869 0.41496 0.0
C739 C 0.33008 0.22857 0.4041 0.0
C740 C 0.34245 0.23199 0.40299 0.0
C741 C 0.3471 0.2264 0.41365 0.0
C742 C 0.34499 0.20269 0.4375 0.0
C743 C 0.35573 0.20324 0.43239 0.0
C744 C 0.35641 0.19285 0.43212 0.0
C745 C 0.34636 0.18161 0.43729 0.0
C746 C 0.33541 0.18104 0.44182 0.0
C747 C 0.3347 0.19146 0.44177 0.0
H748 H 0.80178 0.11724 0.46719 0.0
N749 N 0.80333 0.13679 0.45316 0.0
H750 H 0.79007 0.10585 0.49309 0.0
H751 H 0.79224 0.14401 0.47702 0.0
H752 H 0.78118 0.13315 0.50347 0.0
H753 H 0.77972 0.13096 0.44726 0.0
H754 H 0.76543 0.11571 0.42629 0.0
H755 H 0.80932 0.12867 0.42515 0.0
H756 H 0.79524 0.11392 0.40331 0.0
H757 H 0.8274 0.14938 0.45688 0.0
H758 H 0.7964 0.15327 0.44716 0.0
H759 H 0.84101 0.17126 0.45645 0.0
H760 H 0.80984 0.17526 0.44758 0.0
H761 H 0.87953 0.22754 0.46937 0.0
H762 H 0.89052 0.23847 0.49599 0.0
H763 H 0.86528 0.25087 0.50227 0.0
H764 H 0.85382 0.23917 0.47594 0.0
H765 H 0.86783 0.24766 0.43745 0.0
H766 H 0.88497 0.25754 0.41709 0.0
H767 H 0.88733 0.22549 0.41679 0.0
H768 H 0.87081 0.21607 0.43811 0.0
H769 H 0.86038 0.20945 0.47519 0.0
H770 H 0.84629 0.18802 0.47436 0.0
H771 H 0.82557 0.19253 0.43238 0.0
N772 N 0.85957 0.22676 0.45412 0.0
H773 H 0.83961 0.21442 0.43383 0.0
C774 C 0.79802 0.13152 0.47015 0.0
C775 C 0.79745 0.12084 0.47527 0.0
C776 C 0.79077 0.11436 0.49013 0.0
C777 C 0.78457 0.11851 0.50041 0.0
C778 C 0.7856 0.12952 0.4957 0.0
C779 C 0.79213 0.13589 0.48064 0.0
C780 C 0.79555 0.13069 0.43801 0.0
C781 C 0.78323 0.12749 0.43743 0.0
C782 C 0.77505 0.11879 0.42532 0.0
C783 C 0.77911 0.11332 0.41339 0.0
C784 C 0.79172 0.11766 0.41267 0.0
C785 C 0.79983 0.12619 0.42498 0.0
C786 C 0.81094 0.14973 0.45223 0.0
C787 C 0.82355 0.15502 0.45474 0.0
C788 C 0.83128 0.16753 0.45464 0.0
C789 C 0.82653 0.17509 0.45225 0.0
C790 C 0.81385 0.16975 0.44935 0.0
C791 C 0.80612 0.15717 0.44924 0.0
C792 C 0.86569 0.23239 0.47074 0.0
C793 C 0.8762 0.23242 0.47661 0.0
C794 C 0.88261 0.23886 0.49177 0.0
C795 C 0.87893 0.24574 0.50122 0.0
C796 C 0.86833 0.24558 0.49548 0.0
C797 C 0.86177 0.23893 0.48042 0.0
C798 C 0.86797 0.23115 0.43936 0.0
C799 C 0.87191 0.24271 0.43268 0.0
C800 C 0.88171 0.24832 0.42095 0.0
C801 C 0.8877 0.2424 0.41535 0.0
C802 C 0.88318 0.23047 0.42112 0.0
C803 C 0.87355 0.22496 0.43316 0.0
C804 C 0.85112 0.2138 0.45455 0.0
C805 C 0.85285 0.20606 0.46583 0.0
C806 C 0.84475 0.19361 0.46524 0.0
C807 C 0.83482 0.18846 0.45318 0.0
C808 C 0.83303 0.19616 0.44199 0.0
C809 C 0.84108 0.20868 0.44273 0.0
H810 H 0.02205 0.56045 0.22861 0.0
N811 N 0.00291 0.54208 0.24669 0.0
H812 H 0.02094 0.56872 0.19995 0.0
H813 H 0.98354 0.53381 0.22515 0.0
H814 H 0.98234 0.54202 0.19617 0.0
H815 H 0.98657 0.54489 0.26369 0.0
H816 H 0.99043 0.5619 0.28237 0.0
H817 H 0.02538 0.55936 0.26056 0.0
H818 H 0.02929 0.57618 0.27936 0.0
H819 H 0.02625 0.54673 0.24148 0.0
H820 H 0.98954 0.51884 0.25472 0.0
H821 H 0.03282 0.53232 0.24308 0.0
H822 H 0.99578 0.50398 0.25484 0.0
H823 H 0.04414 0.47739 0.22489 0.0
H824 H 0.03883 0.46479 0.19841 0.0
H825 H 0.00239 0.45911 0.19888 0.0
H826 H 0.00766 0.47116 0.22604 0.0
H827 H 0.00918 0.46111 0.25555 0.0
H828 H 0.00895 0.44645 0.27637 0.0
H829 H 0.04755 0.47058 0.28684 0.0
H830 H 0.04771 0.48511 0.26566 0.0
H831 H 0.0384 0.5022 0.22617 0.0
H832 H 0.0321 0.51692 0.22741 0.0
H833 H 0.00617 0.49583 0.26844 0.0
N834 N 0.02958 0.48172 0.24405 0.0
H835 H 0.0119 0.48077 0.26614 0.0
C836 C 0.00285 0.54641 0.22899 0.0
C837 C 0.01339 0.5562 0.22154 0.0
C838 C 0.01274 0.56094 0.20509 0.0
C839 C 0.00154 0.55604 0.19578 0.0
C840 C 0.99107 0.54608 0.20309 0.0
C841 C 0.99175 0.54132 0.21953 0.0
C842 C 0.00559 0.55074 0.26064 0.0
C843 C 0.9959 0.55152 0.26749 0.0
C844 C 0.99814 0.56127 0.27817 0.0
C845 C 0.01019 0.57049 0.28221 0.0
C846 C 0.0199 0.56933 0.27624 0.0
C847 C 0.01764 0.55958 0.26554 0.0
C848 C 0.00738 0.53395 0.24842 0.0
C849 C 0.01958 0.53754 0.24497 0.0
C850 C 0.0233 0.52914 0.24552 0.0
C851 C 0.01485 0.51685 0.24896 0.0
C852 C 0.00265 0.51334 0.25249 0.0
C853 C 0.99902 0.52181 0.25232 0.0
C854 C 0.02638 0.47531 0.22732 0.0
C855 C 0.03506 0.47351 0.21912 0.0
C856 C 0.03199 0.46634 0.2039 0.0
C857 C 0.02016 0.46091 0.19636 0.0
C858 C 0.01153 0.46297 0.20441 0.0
C859 C 0.01456 0.47 0.21984 0.0
C860 C 0.02851 0.47423 0.25905 0.0
C861 C 0.01752 0.46338 0.26268 0.0
C862 C 0.0174 0.455 0.27462 0.0
C863 C 0.02827 0.45728 0.28311 0.0
C864 C 0.03906 0.46847 0.28031 0.0
C865 C 0.03916 0.47684 0.26838 0.0
C866 C 0.02575 0.49037 0.24601 0.0
C867 C 0.03134 0.50077 0.23542 0.0
C868 C 0.02779 0.50926 0.23631 0.0
C869 C 0.01866 0.50773 0.24817 0.0
C870 C 0.0131 0.49731 0.25895 0.0
C871 C 0.01649 0.48866 0.25776 0.0
H872 H 0.5752 0.53538 0.23795 0.0
N873 N 0.55386 0.52812 0.25301 0.0
H874 H 0.58331 0.54733 0.21078 0.0
H875 H 0.5414 0.53463 0.23025 0.0
H876 H 0.54941 0.54658 0.20295 0.0
H877 H 0.54718 0.54468 0.25917 0.0
H878 H 0.55714 0.56141 0.28002 0.0
H879 H 0.56854 0.53029 0.27995 0.0
H880 H 0.57831 0.54683 0.30152 0.0
H881 H 0.54986 0.50725 0.24114 0.0
H882 H 0.53145 0.52374 0.26429 0.0
H883 H 0.53054 0.48809 0.23908 0.0
H884 H 0.51218 0.50444 0.26339 0.0
H885 H 0.46673 0.42627 0.23201 0.0
H886 H 0.45696 0.4175 0.20337 0.0
H887 H 0.46509 0.4526 0.18533 0.0
H888 H 0.47421 0.46109 0.21413 0.0
H889 H 0.45699 0.45389 0.2391 0.0
H890 H 0.43817 0.44539 0.25617 0.0
H891 H 0.45091 0.4273 0.29066 0.0
H892 H 0.4698 0.43592 0.27349 0.0
H893 H 0.49696 0.45248 0.25101 0.0
H894 H 0.51598 0.4718 0.25509 0.0
H895 H 0.49647 0.49029 0.24502 0.0
N896 N 0.4749 0.44851 0.24347 0.0
H897 H 0.47743 0.47089 0.24224 0.0
C898 C 0.55775 0.53412 0.23605 0.0
C899 C 0.56949 0.53767 0.2302 0.0
C900 C 0.57408 0.54448 0.21469 0.0
C901 C 0.567 0.54791 0.20473 0.0
C902 C 0.55512 0.54418 0.21045 0.0
C903 C 0.55051 0.53729 0.22597 0.0
C904 C 0.55719 0.53624 0.26792 0.0
C905 C 0.55372 0.54489 0.26864 0.0
C906 C 0.55943 0.55447 0.28069 0.0
C907 C 0.56868 0.55559 0.29233 0.0
C908 C 0.57141 0.5464 0.2925 0.0
C909 C 0.56574 0.53685 0.28036 0.0
C910 C 0.54221 0.51691 0.25302 0.0
C911 C 0.54165 0.50666 0.24607 0.0
C912 C 0.53057 0.49567 0.24505 0.0
C913 C 0.51971 0.49457 0.25126 0.0
C914 C 0.52028 0.5049 0.25829 0.0
C915 C 0.53139 0.51599 0.259 0.0
C916 C 0.47127 0.44432 0.22536 0.0
C917 C 0.4666 0.43209 0.22172 0.0
C918 C 0.46104 0.42711 0.2053 0.0
C919 C 0.46011 0.43431 0.19202 0.0
C920 C 0.46539 0.44671 0.19535 0.0
C921 C 0.4708 0.45165 0.21187 0.0
C922 C 0.46481 0.44549 0.25504 0.0
C923 C 0.4559 0.44835 0.25058 0.0
C924 C 0.44508 0.44339 0.26026 0.0
C925 C 0.44301 0.43556 0.27462 0.0
C926 C 0.45227 0.43335 0.27973 0.0
C927 C 0.46305 0.43825 0.26996 0.0
C928 C 0.48582 0.46019 0.24607 0.0
C929 C 0.49683 0.46073 0.2498 0.0
C930 C 0.50771 0.47182 0.25196 0.0
C931 C 0.5079 0.48273 0.25011 0.0
C932 C 0.49675 0.48215 0.24671 0.0
C933 C 0.48581 0.47101 0.2449 0.0
H934 H 0.52582 0.95526 0.22271 0.0
N935 N 0.52401 0.97186 0.24039 0.0
H936 H 0.5376 0.95805 0.1959 0.0
H937 H 0.53496 0.99219 0.21945 0.0
H938 H 0.54616 0.99491 0.19223 0.0
H939 H 0.54617 0.99173 0.24888 0.0
H940 H 0.56155 0.99179 0.26856 0.0
H941 H 0.52001 0.95529 0.26461 0.0
H942 H 0.53516 0.95538 0.28494 0.0
H943 H 0.5 0.95746 0.23875 0.0
H944 H 0.52832 0.99448 0.24754 0.0
H945 H 0.48448 0.96289 0.24088 0.0
H946 H 0.51296 1.00027 0.24835 0.0
H947 H 0.43747 0.98398 0.22889 0.0
H948 H 0.43229 0.99219 0.20313 0.0
H949 H 0.46997 0.02123 0.19983 0.0
H950 H 0.47503 0.01306 0.22612 0.0
H951 H 0.46738 0.01465 0.26062 0.0
H952 H 0.45758 0.01852 0.28541 0.0
H953 H 0.43177 0.98017 0.28995 0.0
H954 H 0.44185 0.97651 0.26563 0.0
H955 H 0.46004 0.97653 0.22523 0.0
H956 H 0.4763 0.97208 0.22431 0.0
H957 H 0.4969 1.0 0.26348 0.0
N958 N 0.45909 0.99292 0.24479 0.0
H959 H 0.48085 0.0049 0.26326 0.0
C960 C 0.52938 0.97342 0.22307 0.0
C961 C 0.53008 0.96386 0.2159 0.0
C962 C 0.5368 0.96549 0.20053 0.0
C963 C 0.54292 0.97675 0.19189 0.0
C964 C 0.54177 0.98619 0.1987 0.0
C965 C 0.53518 0.98459 0.21421 0.0
C966 C 0.53199 0.9734 0.25514 0.0
C967 C 0.5436 0.9839 0.25708 0.0
C968 C 0.55239 0.98392 0.26839 0.0
C969 C 0.54967 0.97349 0.27806 0.0
C970 C 0.53766 0.96346 0.27735 0.0
C971 C 0.52893 0.96342 0.26594 0.0
C972 C 0.51526 0.97554 0.24265 0.0
C973 C 0.50284 0.9668 0.241 0.0
C974 C 0.494 0.96999 0.24201 0.0
C975 C 0.49741 0.98211 0.24436 0.0
C976 C 0.50993 0.99085 0.24656 0.0
C977 C 0.51877 0.98758 0.2459 0.0
C978 C 0.45661 0.99784 0.22921 0.0
C979 C 0.44459 0.99212 0.2226 0.0
C980 C 0.44165 0.99687 0.20803 0.0
C981 C 0.45072 0.00738 0.19961 0.0
C982 C 0.46283 0.01311 0.20613 0.0
C983 C 0.46573 0.00845 0.22102 0.0
C984 C 0.45529 0.99527 0.26141 0.0
C985 C 0.45986 0.00711 0.26742 0.0
C986 C 0.45417 0.00929 0.28145 0.0
C987 C 0.44381 0.99967 0.28963 0.0
C988 C 0.43982 0.9878 0.28423 0.0
C989 C 0.44553 0.98566 0.27029 0.0
C990 C 0.46914 0.9909 0.24443 0.0
C991 C 0.46812 0.98173 0.23351 0.0
C992 C 0.47739 0.97912 0.23319 0.0
C993 C 0.48788 0.98549 0.24412 0.0
C994 C 0.48902 0.99492 0.25481 0.0
C995 C 0.47978 0.99768 0.25484 0.0
H996 H 0.42655 0.9735 0.7891 0.0
N997 N 0.44746 0.98734 0.7724 0.0
H998 H 0.42027 0.97737 0.81771 0.0
H999 H 0.46157 0.00638 0.7945 0.0
H1000 H 0.45535 0.01041 0.82316 0.0
H1001 H 0.4571 0.01138 0.76554 0.0
H1002 H 0.44817 0.01977 0.74562 0.0
H1003 H 0.43058 0.97555 0.74736 0.0
H1004 H 0.42143 0.98383 0.72755 0.0
H1005 H 0.44872 0.9687 0.7836 0.0
H1006 H 0.47049 0.00393 0.7601 0.0
H1007 H 0.46654 0.96667 0.78527 0.0
H1008 H 0.48826 0.00168 0.76049 0.0
H1009 H 0.52479 0.96139 0.79406 0.0
H1010 H 0.53479 0.96211 0.82233 0.0
H1011 H 0.53468 0.99422 0.83686 0.0
H1012 H 0.52534 0.99378 0.80832 0.0
H1013 H 0.54001 0.00071 0.78067 0.0
H1014 H 0.55796 0.00821 0.76192 0.0
H1015 H 0.54057 0.9741 0.73408 0.0
H1016 H 0.52264 0.96663 0.75315 0.0
H1017 H 0.49721 0.9608 0.77426 0.0
H1018 H 0.47969 0.9632 0.76988 0.0
H1019 H 0.50322 0.00165 0.7782 0.0
N1020 N 0.52023 0.9777 0.78096 0.0
H1021 H 0.52075 0.99918 0.78103 0.0
C1022 C 0.44446 0.98963 0.78974 0.0
C1023 C 0.4329 0.9815 0.79659 0.0
C1024 C 0.42936 0.98372 0.8129 0.0
C1025 C 0.43733 0.9942 0.82265 0.0
C1026 C 0.44899 0.00233 0.81584 0.0
C1027 C 0.45256 1.00003 0.79953 0.0
C1028 C 0.4445 0.99278 0.75791 0.0
C1029 C 0.44958 0.00533 0.75689 0.0
C1030 C 0.44437 0.01011 0.74561 0.0
C1031 C 0.43397 0.00246 0.73516 0.0
C1032 C 0.42949 0.99001 0.73528 0.0
C1033 C 0.43471 0.98524 0.74657 0.0
C1034 C 0.45816 0.98636 0.77159 0.0
C1035 C 0.45733 0.9759 0.77844 0.0
C1036 C 0.46756 0.97474 0.77924 0.0
C1037 C 0.47895 0.98395 0.77285 0.0
C1038 C 0.47974 0.99443 0.76576 0.0
C1039 C 0.46949 0.99569 0.76532 0.0
C1040 C 0.5242 0.97743 0.79897 0.0
C1041 C 0.52674 0.96846 0.80351 0.0
C1042 C 0.53244 0.96888 0.81974 0.0
C1043 C 0.53567 0.97829 0.83192 0.0
C1044 C 0.53259 0.98698 0.82768 0.0
C1045 C 0.52704 0.98664 0.81134 0.0
C1046 C 0.52996 0.98309 0.76822 0.0
C1047 C 0.5399 0.99497 0.77022 0.0
C1048 C 0.55018 0.99924 0.75948 0.0
C1049 C 0.55073 0.99172 0.74658 0.0
C1050 C 0.5405 0.98006 0.74405 0.0
C1051 C 0.53022 0.97581 0.75478 0.0
C1052 C 0.51023 0.9797 0.77837 0.0
C1053 C 0.49854 0.96974 0.77504 0.0
C1054 C 0.48852 0.97115 0.7727 0.0
C1055 C 0.48988 0.98262 0.774 0.0
C1056 C 0.50172 0.99268 0.77696 0.0
C1057 C 0.51181 0.99126 0.77888 0.0
H1058 H 0.95847 0.52952 0.79869 0.0
N1059 N 0.97519 0.52709 0.78195 0.0
H1060 H 0.96121 0.54105 0.82574 0.0
H1061 H 0.99531 0.53689 0.80443 0.0
H1062 H 0.9979 0.5478 0.83182 0.0
H1063 H 0.99595 0.54894 0.77562 0.0
H1064 H 0.99751 0.56447 0.7554 0.0
H1065 H 0.95926 0.52435 0.75663 0.0
H1066 H 0.96068 0.53992 0.73645 0.0
H1067 H 0.96136 0.50329 0.78409 0.0
H1068 H 0.99839 0.53206 0.77478 0.0
H1069 H 0.96776 0.48857 0.78255 0.0
H1070 H 0.00508 0.5176 0.77439 0.0
H1071 H 0.98587 0.45021 0.80199 0.0
H1072 H 0.98762 0.44137 0.82949 0.0
H1073 H 0.02655 0.46722 0.83103 0.0
H1074 H 0.02449 0.47661 0.80389 0.0
H1075 H 0.01989 0.46542 0.76492 0.0
H1076 H 0.01479 0.44836 0.74548 0.0
H1077 H 0.97635 0.43517 0.75182 0.0
H1078 H 0.98158 0.45234 0.77125 0.0
H1079 H 0.98486 0.46734 0.80114 0.0
H1080 H 0.97799 0.48144 0.79927 0.0
H1081 H 0.00548 0.50202 0.7598 0.0
N1082 N 0.00456 0.4689 0.78357 0.0
H1083 H 0.01287 0.4881 0.76263 0.0
C1084 C 0.97658 0.53222 0.79947 0.0
C1085 C 0.96702 0.53333 0.80607 0.0
C1086 C 0.96861 0.5399 0.82158 0.0
C1087 C 0.97983 0.54547 0.83096 0.0
C1088 C 0.98922 0.54387 0.82477 0.0
C1089 C 0.98767 0.53743 0.80913 0.0
C1090 C 0.97744 0.53543 0.76762 0.0
C1091 C 0.98835 0.54674 0.76673 0.0
C1092 C 0.98918 0.55568 0.75529 0.0
C1093 C 0.97916 0.55349 0.74448 0.0
C1094 C 0.96859 0.54189 0.7445 0.0
C1095 C 0.96776 0.53297 0.756 0.0
C1096 C 0.97935 0.51876 0.77975 0.0
C1097 C 0.97089 0.50641 0.78174 0.0
C1098 C 0.97462 0.49804 0.78105 0.0
C1099 C 0.98701 0.50184 0.77862 0.0
C1100 C 0.99544 0.51425 0.77611 0.0
C1101 C 0.99165 0.5226 0.77649 0.0
C1102 C 0.00505 0.46431 0.80097 0.0
C1103 C 0.99473 0.45426 0.80845 0.0
C1104 C 0.9958 0.44902 0.82411 0.0
C1105 C 0.00727 0.45342 0.83246 0.0
C1106 C 0.01754 0.46364 0.82516 0.0
C1107 C 0.0164 0.46903 0.80962 0.0
C1108 C 0.00117 0.46013 0.76958 0.0
C1109 C 0.01038 0.45902 0.7617 0.0
C1110 C 0.00744 0.44926 0.75059 0.0
C1111 C 0.99515 0.44035 0.74723 0.0
C1112 C 0.98589 0.44181 0.75436 0.0
C1113 C 0.98887 0.45165 0.76539 0.0
C1114 C 0.99962 0.47669 0.78219 0.0
C1115 C 0.98953 0.47484 0.79211 0.0
C1116 C 0.98546 0.48294 0.79086 0.0
C1117 C 0.99115 0.49298 0.77939 0.0
C1118 C 0.00099 0.49459 0.76908 0.0
C1119 C 0.00519 0.48657 0.77055 0.0
H1120 H 0.4767 0.44719 0.81141 0.0
N1121 N 0.47584 0.46451 0.79373 0.0
H1122 H 0.46474 0.43606 0.83747 0.0
H1123 H 0.46201 0.47042 0.81414 0.0
H1124 H 0.45024 0.45952 0.84015 0.0
H1125 H 0.4531 0.46045 0.78515 0.0
H1126 H 0.43874 0.44543 0.76409 0.0
H1127 H 0.48115 0.4538 0.76852 0.0
H1128 H 0.46698 0.43908 0.74669 0.0
H1129 H 0.50002 0.4768 0.79543 0.0
H1130 H 0.46918 0.48125 0.78791 0.0
H1131 H 0.51392 0.49858 0.79318 0.0
H1132 H 0.48282 0.50304 0.78712 0.0
H1133 H 0.55403 0.56021 0.80258 0.0
H1134 H 0.56388 0.57053 0.83016 0.0
H1135 H 0.53162 0.57098 0.84451 0.0
H1136 H 0.52177 0.561 0.81612 0.0
H1137 H 0.53446 0.57336 0.77122 0.0
H1138 H 0.55022 0.58484 0.74912 0.0
H1139 H 0.56228 0.55936 0.7539 0.0
H1140 H 0.54608 0.54767 0.77503 0.0
H1141 H 0.53508 0.5381 0.80783 0.0
H1142 H 0.5214 0.51641 0.80835 0.0
H1143 H 0.49708 0.51959 0.77118 0.0
N1144 N 0.53126 0.55456 0.7901 0.0
H1145 H 0.51049 0.54151 0.77189 0.0
C1146 C 0.47034 0.45966 0.81078 0.0
C1147 C 0.47115 0.45008 0.8179 0.0
C1148 C 0.4643 0.44374 0.83276 0.0
C1149 C 0.45644 0.44684 0.84076 0.0
C1150 C 0.45606 0.45679 0.8341 0.0
C1151 C 0.46292 0.46313 0.81926 0.0
C1152 C 0.46818 0.45808 0.77862 0.0
C1153 C 0.45631 0.45606 0.77655 0.0
C1154 C 0.44809 0.44747 0.76437 0.0
C1155 C 0.45162 0.44085 0.75392 0.0
C1156 C 0.46386 0.44379 0.75485 0.0
C1157 C 0.47202 0.45227 0.76716 0.0
C1158 C 0.48359 0.4774 0.79217 0.0
C1159 C 0.49626 0.48253 0.79352 0.0
C1160 C 0.50418 0.49501 0.7924 0.0
C1161 C 0.49957 0.50272 0.7902 0.0
C1162 C 0.4868 0.49748 0.78862 0.0
C1163 C 0.4789 0.48496 0.78936 0.0
C1164 C 0.53715 0.56004 0.80693 0.0
C1165 C 0.54903 0.56263 0.81134 0.0
C1166 C 0.5547 0.56853 0.8272 0.0
C1167 C 0.54855 0.57167 0.83925 0.0
C1168 C 0.53655 0.56869 0.8353 0.0
C1169 C 0.53094 0.56301 0.81917 0.0
C1170 C 0.53915 0.55976 0.77491 0.0
C1171 C 0.54031 0.57011 0.76705 0.0
C1172 C 0.54943 0.57673 0.75459 0.0
C1173 C 0.55775 0.57321 0.74994 0.0
C1174 C 0.55603 0.56235 0.75696 0.0
C1175 C 0.54676 0.55564 0.76919 0.0
C1176 C 0.52369 0.54154 0.79006 0.0
C1177 C 0.52676 0.5342 0.79993 0.0
C1178 C 0.51894 0.52168 0.80001 0.0
C1179 C 0.50802 0.51611 0.78985 0.0
C1180 C 0.50521 0.52348 0.77954 0.0
C1181 C 0.51292 0.53603 0.77978 0.0
H1182 H 0.67728 0.88826 0.56491 0.0
N1183 N 0.65857 0.86929 0.58278 0.0
H1184 H 0.67597 0.89594 0.53583 0.0
H1185 H 0.63922 0.86029 0.561 0.0
H1186 H 0.6378 0.86804 0.53169 0.0
H1187 H 0.6426 0.87307 0.59898 0.0
H1188 H 0.64697 0.89028 0.61756 0.0
H1189 H 0.68114 0.88593 0.59728 0.0
H1190 H 0.68552 0.9029 0.61602 0.0
H1191 H 0.68189 0.87443 0.57578 0.0
H1192 H 0.64607 0.84621 0.59209 0.0
H1193 H 0.68912 0.86056 0.5772 0.0
H1194 H 0.65292 0.83181 0.592 0.0
H1195 H 0.7037 0.80767 0.56153 0.0
H1196 H 0.6994 0.79547 0.53481 0.0
H1197 H 0.66255 0.78874 0.53324 0.0
H1198 H 0.6668 0.80039 0.56063 0.0
H1199 H 0.66793 0.79005 0.58998 0.0
H1200 H 0.66773 0.77517 0.61038 0.0
H1201 H 0.70582 0.8 0.62315 0.0
H1202 H 0.70594 0.81481 0.60262 0.0
H1203 H 0.69566 0.83111 0.56092 0.0
H1204 H 0.68852 0.84514 0.56202 0.0
H1205 H 0.66421 0.82442 0.60488 0.0
N1206 N 0.68825 0.81122 0.57986 0.0
H1207 H 0.67072 0.80995 0.6027 0.0
C1208 C 0.65834 0.87355 0.56507 0.0
C1209 C 0.66868 0.8836 0.55767 0.0
C1210 C 0.66792 0.88802 0.54101 0.0
C1211 C 0.65678 0.88258 0.53145 0.0
C1212 C 0.64648 0.87247 0.5388 0.0
C1213 C 0.64728 0.86799 0.55543 0.0
C1214 C 0.66145 0.8781 0.59662 0.0
C1215 C 0.65196 0.87939 0.60306 0.0
C1216 C 0.65448 0.88925 0.61368 0.0
C1217 C 0.66662 0.89807 0.61812 0.0
C1218 C 0.67609 0.89639 0.61257 0.0
C1219 C 0.67355 0.88654 0.6019 0.0
C1220 C 0.66343 0.86146 0.58428 0.0
C1221 C 0.67556 0.86527 0.57988 0.0
C1222 C 0.67965 0.85717 0.58033 0.0
C1223 C 0.67163 0.84492 0.58456 0.0
C1224 C 0.65949 0.84116 0.589 0.0
C1225 C 0.65551 0.84937 0.58896 0.0
C1226 C 0.68566 0.80505 0.56297 0.0
C1227 C 0.69475 0.80365 0.55526 0.0
C1228 C 0.69226 0.79671 0.53991 0.0
C1229 C 0.68061 0.79109 0.53173 0.0
C1230 C 0.67157 0.79275 0.53927 0.0
C1231 C 0.67402 0.79955 0.55483 0.0
C1232 C 0.68701 0.80355 0.59472 0.0
C1233 C 0.67614 0.79241 0.59751 0.0
C1234 C 0.67606 0.78389 0.60909 0.0
C1235 C 0.6868 0.78637 0.6182 0.0
C1236 C 0.69738 0.79785 0.61642 0.0
C1237 C 0.69747 0.80633 0.60473 0.0
C1238 C 0.68383 0.81942 0.58162 0.0
C1239 C 0.68875 0.82957 0.57051 0.0
C1240 C 0.68472 0.8377 0.57133 0.0
C1241 C 0.67582 0.83609 0.5837 0.0
C1242 C 0.67093 0.82594 0.59498 0.0
C1243 C 0.67478 0.81763 0.59385 0.0
H1244 H 0.24475 0.87099 0.57651 0.0
N1245 N 0.22156 0.85926 0.58642 0.0
H1246 H 0.25369 0.88424 0.5506 0.0
H1247 H 0.20876 0.86201 0.55877 0.0
H1248 H 0.21763 0.87488 0.53271 0.0
H1249 H 0.21424 0.87559 0.58899 0.0
H1250 H 0.22275 0.89254 0.60955 0.0
H1251 H 0.23411 0.86155 0.6161 0.0
H1252 H 0.24243 0.87834 0.63725 0.0
H1253 H 0.21933 0.83785 0.58487 0.0
H1254 H 0.19811 0.85486 0.58735 0.0
H1255 H 0.20056 0.81808 0.58308 0.0
H1256 H 0.17928 0.83523 0.5846 0.0
H1257 H 0.13738 0.75714 0.55862 0.0
H1258 H 0.12674 0.75009 0.52995 0.0
H1259 H 0.13092 0.78499 0.52108 0.0
H1260 H 0.1412 0.79179 0.55002 0.0
H1261 H 0.12789 0.78523 0.57658 0.0
H1262 H 0.10901 0.77537 0.59354 0.0
H1263 H 0.1192 0.75121 0.61666 0.0
H1264 H 0.13823 0.7613 0.59973 0.0
H1265 H 0.16625 0.78605 0.56021 0.0
H1266 H 0.18474 0.80586 0.56322 0.0
H1267 H 0.16588 0.81673 0.59867 0.0
N1268 N 0.1445 0.77802 0.57462 0.0
H1269 H 0.14737 0.79727 0.595 0.0
C1270 C 0.2261 0.86536 0.5696 0.0
C1271 C 0.23877 0.87164 0.56683 0.0
C1272 C 0.24385 0.87925 0.55217 0.0
C1273 C 0.23632 0.88057 0.53979 0.0
C1274 C 0.2236 0.87394 0.54208 0.0
C1275 C 0.21852 0.86651 0.55697 0.0
C1276 C 0.22363 0.86732 0.60097 0.0
C1277 C 0.22004 0.87588 0.59984 0.0
C1278 C 0.22495 0.88561 0.61166 0.0
C1279 C 0.23346 0.88693 0.6249 0.0
C1280 C 0.23611 0.87774 0.62697 0.0
C1281 C 0.23126 0.86806 0.61507 0.0
C1282 C 0.21017 0.84782 0.58613 0.0
C1283 C 0.21059 0.83729 0.58497 0.0
C1284 C 0.19983 0.82601 0.58376 0.0
C1285 C 0.18833 0.825 0.58345 0.0
C1286 C 0.18793 0.8356 0.58497 0.0
C1287 C 0.19873 0.84689 0.58642 0.0
C1288 C 0.14009 0.77494 0.55647 0.0
C1289 C 0.13619 0.76331 0.5503 0.0
C1290 C 0.13014 0.75933 0.53389 0.0
C1291 C 0.12788 0.76694 0.52324 0.0
C1292 C 0.13231 0.77881 0.52908 0.0
C1293 C 0.1383 0.78277 0.54556 0.0
C1294 C 0.13451 0.77398 0.58691 0.0
C1295 C 0.12619 0.77797 0.58555 0.0
C1296 C 0.11535 0.77227 0.59517 0.0
C1297 C 0.11252 0.7624 0.60626 0.0
C1298 C 0.12114 0.75884 0.60834 0.0
C1299 C 0.13202 0.76458 0.5987 0.0
C1300 C 0.15522 0.78999 0.57705 0.0
C1301 C 0.16607 0.79274 0.56852 0.0
C1302 C 0.1767 0.80407 0.57043 0.0
C1303 C 0.17688 0.81296 0.58126 0.0
C1304 C 0.16606 0.81022 0.58996 0.0
C1305 C 0.15536 0.79892 0.58787 0.0
H1306 H 0.1974 0.30521 0.56447 0.0
N1307 N 0.20108 0.32391 0.58378 0.0
H1308 H 0.20717 0.30564 0.53641 0.0
H1309 H 0.21579 0.344 0.56371 0.0
H1310 H 0.22591 0.34459 0.53633 0.0
H1311 H 0.22355 0.34357 0.59237 0.0
H1312 H 0.23873 0.34344 0.61215 0.0
H1313 H 0.19732 0.30686 0.60703 0.0
H1314 H 0.21255 0.30666 0.62691 0.0
H1315 H 0.17689 0.31154 0.58334 0.0
H1316 H 0.20798 0.34762 0.58908 0.0
H1317 H 0.16317 0.31932 0.58447 0.0
H1318 H 0.19447 0.35559 0.58911 0.0
H1319 H 0.12598 0.33938 0.56444 0.0
H1320 H 0.11707 0.34119 0.53657 0.0
H1321 H 0.14558 0.3787 0.53299 0.0
H1322 H 0.15474 0.37675 0.56087 0.0
H1323 H 0.13948 0.37159 0.59751 0.0
H1324 H 0.12201 0.36551 0.61669 0.0
H1325 H 0.11469 0.329 0.61711 0.0
H1326 H 0.13166 0.33504 0.59698 0.0
H1327 H 0.14315 0.3374 0.56471 0.0
H1328 H 0.15672 0.32972 0.56645 0.0
H1329 H 0.17965 0.35764 0.60434 0.0
N1330 N 0.14598 0.35749 0.58201 0.0
H1331 H 0.1662 0.36577 0.60173 0.0
C1332 C 0.20581 0.32451 0.56623 0.0
C1333 C 0.20343 0.3138 0.55814 0.0
C1334 C 0.20913 0.31409 0.54223 0.0
C1335 C 0.21742 0.32516 0.53414 0.0
C1336 C 0.21947 0.33588 0.542 0.0
C1337 C 0.2137 0.33556 0.55783 0.0
C1338 C 0.20923 0.32516 0.59817 0.0
C1339 C 0.2209 0.33559 0.6002 0.0
C1340 C 0.22965 0.33548 0.61143 0.0
C1341 C 0.22689 0.32499 0.62091 0.0
C1342 C 0.21494 0.3149 0.61988 0.0
C1343 C 0.20622 0.315 0.60855 0.0
C1344 C 0.19344 0.32894 0.58592 0.0
C1345 C 0.18074 0.32115 0.58484 0.0
C1346 C 0.17293 0.32566 0.58529 0.0
C1347 C 0.17767 0.33815 0.58658 0.0
C1348 C 0.19044 0.34593 0.58822 0.0
C1349 C 0.19824 0.34137 0.58801 0.0
C1350 C 0.14123 0.35792 0.56461 0.0
C1351 C 0.13056 0.34792 0.55747 0.0
C1352 C 0.12543 0.34896 0.54154 0.0
C1353 C 0.13067 0.36007 0.53261 0.0
C1354 C 0.14137 0.37004 0.53963 0.0
C1355 C 0.14664 0.36892 0.55543 0.0
C1356 C 0.13697 0.35386 0.59583 0.0
C1357 C 0.13421 0.36232 0.60203 0.0
C1358 C 0.12422 0.35881 0.61309 0.0
C1359 C 0.1168 0.34671 0.61846 0.0
C1360 C 0.11999 0.33834 0.61298 0.0
C1361 C 0.12986 0.34183 0.60163 0.0
C1362 C 0.1537 0.35239 0.58292 0.0
C1363 C 0.15109 0.34202 0.57329 0.0
C1364 C 0.15887 0.33748 0.57449 0.0
C1365 C 0.16934 0.343 0.58558 0.0
C1366 C 0.17181 0.35324 0.59542 0.0
C1367 C 0.16409 0.35787 0.59404 0.0
H1368 H 0.01252 0.39697 0.06027 0.0
H1369 H 0.01756 0.41009 0.08618 0.0
H1370 H 0.97909 0.39489 0.09586 0.0
H1371 H 0.97405 0.38223 0.06943 0.0
H1372 H 0.98956 0.41746 0.09934 0.0
H1373 H 0.99858 0.38856 0.12248 0.0
H1374 H 0.00797 0.3761 0.12336 0.0
H1375 H 0.04376 0.40807 0.12457 0.0
H1376 H 0.03458 0.42073 0.12345 0.0
H1377 H 0.99811 0.44029 0.18878 0.0
H1378 H 0.9929 0.42676 0.16336 0.0
H1379 H 0.02941 0.44905 0.14325 0.0
H1380 H 0.03458 0.46303 0.16804 0.0
H1381 H 0.01989 0.42284 0.14587 0.0
H1382 H 0.00953 0.45135 0.12265 0.0
H1383 H 0.99912 0.46284 0.12336 0.0
H1384 H 0.96422 0.42979 0.12452 0.0
H1385 H 0.97445 0.4181 0.12409 0.0
C1386 C 0.00515 0.39635 0.06804 0.0
C1387 C 0.9929 0.38857 0.06283 0.0
C1388 C 0.00803 0.40381 0.08292 0.0
C1389 C 0.99872 0.40341 0.09319 0.0
C1390 C 0.98646 0.39543 0.08817 0.0
C1391 C 0.98358 0.38816 0.07309 0.0
C1392 C 0.00171 0.41165 0.10865 0.0
C1393 C 0.99605 0.41846 0.10963 0.0
C1394 C 0.01033 0.41317 0.12201 0.0
C1395 C 0.01589 0.40559 0.1227 0.0
C1396 C 0.00845 0.39293 0.12279 0.0
C1397 C 0.01374 0.38584 0.12336 0.0
C1398 C 0.02645 0.39129 0.12397 0.0
C1399 C 0.03391 0.40386 0.12407 0.0
C1400 C 0.02867 0.411 0.12349 0.0
C1401 C 0.005 0.4425 0.17881 0.0
C1402 C 0.0168 0.45281 0.18057 0.0
C1403 C 0.00201 0.43467 0.16437 0.0
C1404 C 0.01079 0.4369 0.15152 0.0
C1405 C 0.02255 0.44714 0.15315 0.0
C1406 C 0.02549 0.45508 0.1674 0.0
C1407 C 0.00772 0.42851 0.1364 0.0
C1408 C 0.01337 0.42173 0.13554 0.0
C1409 C 0.99892 0.42683 0.12335 0.0
C1410 C 0.99277 0.43385 0.12354 0.0
C1411 C 0.99965 0.44653 0.12323 0.0
C1412 C 0.99377 0.45308 0.12354 0.0
C1413 C 0.98102 0.44705 0.12403 0.0
C1414 C 0.9741 0.43445 0.12416 0.0
C1415 C 0.97993 0.42786 0.12387 0.0
H1416 H 0.97649 0.45214 0.12427 0.0
H1417 H 0.03053 0.38579 0.12441 0.0
H1418 H 0.61973 0.62471 0.07362 0.0
H1419 H 0.60752 0.61454 0.1001 0.0
H1420 H 0.61749 0.5876 0.09627 0.0
H1421 H 0.62955 0.59756 0.07005 0.0
H1422 H 0.59288 0.57762 0.09865 0.0
H1423 H 0.62969 0.60904 0.12821 0.0
H1424 H 0.64551 0.63014 0.13498 0.0
H1425 H 0.61791 0.63686 0.15302 0.0
H1426 H 0.6019 0.61582 0.14613 0.0
H1427 H 0.58013 0.54561 0.17842 0.0
H1428 H 0.58966 0.55881 0.15285 0.0
H1429 H 0.57506 0.58066 0.16886 0.0
H1430 H 0.5657 0.56759 0.19484 0.0
H1431 H 0.59915 0.59447 0.15962 0.0
H1432 H 0.56262 0.5625 0.13368 0.0
H1433 H 0.54667 0.54142 0.1271 0.0
H1434 H 0.57324 0.53584 0.10189 0.0
H1435 H 0.58939 0.55683 0.10855 0.0
C1436 C 0.61945 0.61672 0.07861 0.0
C1437 C 0.62554 0.61189 0.06963 0.0
C1438 C 0.61247 0.61092 0.09371 0.0
C1439 C 0.61154 0.60026 0.10005 0.0
C1440 C 0.61799 0.59574 0.0915 0.0
C1441 C 0.62492 0.60148 0.07651 0.0
C1442 C 0.60346 0.59335 0.11507 0.0
C1443 C 0.59428 0.58128 0.112 0.0
C1444 C 0.60498 0.59829 0.13231 0.0
C1445 C 0.61459 0.61091 0.13644 0.0
C1446 C 0.62699 0.61505 0.13346 0.0
C1447 C 0.63599 0.62699 0.13735 0.0
C1448 C 0.63271 0.63485 0.14436 0.0
C1449 C 0.62043 0.63077 0.14755 0.0
C1450 C 0.61139 0.61884 0.14366 0.0
C1451 C 0.57896 0.55323 0.17653 0.0
C1452 C 0.57216 0.55556 0.18864 0.0
C1453 C 0.58433 0.56072 0.16184 0.0
C1454 C 0.58297 0.57065 0.15885 0.0
C1455 C 0.57618 0.57302 0.17089 0.0
C1456 C 0.57075 0.56549 0.18561 0.0
C1457 C 0.5889 0.57861 0.1433 0.0
C1458 C 0.5976 0.59086 0.14621 0.0
C1459 C 0.58693 0.57387 0.12584 0.0
C1460 C 0.57723 0.56123 0.12172 0.0
C1461 C 0.56508 0.55675 0.12685 0.0
C1462 C 0.556 0.54482 0.12308 0.0
C1463 C 0.55895 0.53729 0.11411 0.0
C1464 C 0.57097 0.54168 0.10884 0.0
C1465 C 0.58009 0.5536 0.11259 0.0
H1466 H 0.5519 0.52805 0.1112 0.0
H1467 H 0.63969 0.64409 0.14737 0.0
H1468 H 0.41 0.00587 0.04418 0.0
H1469 H 0.42364 0.01113 0.07002 0.0
H1470 H 0.39949 0.01792 0.10055 0.0
H1471 H 0.38618 0.01334 0.07417 0.0
H1472 H 0.42221 0.03245 0.11167 0.0
H1473 H 0.39718 0.99002 0.10115 0.0
H1474 H 0.3882 0.97119 0.08377 0.0
H1475 H 0.42396 0.97678 0.076 0.0
H1476 H 0.43318 0.99574 0.09314 0.0
H1477 H 0.43229 0.01195 0.19611 0.0
H1478 H 0.42471 0.01611 0.1685 0.0
H1479 H 0.45381 0.01665 0.13943 0.0
H1480 H 0.46151 0.01261 0.16708 0.0
H1481 H 0.42977 0.99966 0.12736 0.0
H1482 H 0.45404 0.04173 0.14203 0.0
H1483 H 0.46147 0.05957 0.16129 0.0
H1484 H 0.4251 0.05325 0.16395 0.0
H1485 H 0.41741 0.03526 0.14491 0.0
C1486 C 0.40778 0.00878 0.0563 0.0
C1487 C 0.39704 0.00912 0.05734 0.0
C1488 C 0.41553 0.01172 0.07108 0.0
C1489 C 0.4124 0.01455 0.08741 0.0
C1490 C 0.40206 0.01568 0.08813 0.0
C1491 C 0.39446 0.01306 0.07311 0.0
C1492 C 0.41926 0.01517 0.10392 0.0
C1493 C 0.42379 0.02525 0.11518 0.0
C1494 C 0.42139 0.0058 0.10849 0.0
C1495 C 0.41588 0.99436 0.09827 0.0
C1496 C 0.40313 0.98727 0.09564 0.0
C1497 C 0.398 0.97657 0.08584 0.0
C1498 C 0.40551 0.9728 0.07874 0.0
C1499 C 0.41816 0.97972 0.08148 0.0
C1500 C 0.42334 0.99044 0.09124 0.0
C1501 C 0.43722 0.01323 0.18387 0.0
C1502 C 0.44744 0.01191 0.18365 0.0
C1503 C 0.43292 0.01567 0.16816 0.0
C1504 C 0.43872 0.01671 0.15196 0.0
C1505 C 0.44926 0.01594 0.15184 0.0
C1506 C 0.45367 0.01368 0.16761 0.0
C1507 C 0.43284 0.01698 0.13498 0.0
C1508 C 0.42836 0.00696 0.12372 0.0
C1509 C 0.43052 0.02625 0.13072 0.0
C1510 C 0.43513 0.03708 0.14216 0.0
C1511 C 0.4476 0.04408 0.14685 0.0
C1512 C 0.45187 0.05423 0.1577 0.0
C1513 C 0.44376 0.05753 0.16387 0.0
C1514 C 0.43137 0.05068 0.15917 0.0
C1515 C 0.42706 0.04051 0.14833 0.0
H1516 H 0.44708 0.06539 0.17227 0.0
H1517 H 0.40152 0.96452 0.07116 0.0
H1518 H 0.38263 0.97945 0.96482 0.0
H1519 H 0.3939 0.98236 0.93759 0.0
H1520 H 0.40348 0.01947 0.93526 0.0
H1521 H 0.39204 0.01662 0.96274 0.0
H1522 H 0.39712 0.00794 0.90185 0.0
H1523 H 0.42448 0.01426 0.94982 0.0
H1524 H 0.43097 0.00987 0.9785 0.0
H1525 H 0.4252 0.97663 0.95737 0.0
H1526 H 0.4185 0.98072 0.92864 0.0
H1527 H 0.43976 0.01535 0.83403 0.0
H1528 H 0.43193 0.01879 0.8616 0.0
H1529 H 0.4179 0.98184 0.87714 0.0
H1530 H 0.42582 0.97841 0.84983 0.0
H1531 H 0.42937 0.99758 0.90476 0.0
H1532 H 0.39932 0.99014 0.85851 0.0
H1533 H 0.39249 0.99431 0.82994 0.0
H1534 H 0.40352 0.02991 0.848 0.0
H1535 H 0.41058 0.026 0.8766 0.0
C1536 C 0.38704 0.98823 0.95852 0.0
C1537 C 0.38655 0.99785 0.96609 0.0
C1538 C 0.39352 0.98988 0.94296 0.0
C1539 C 0.39973 0.00119 0.93463 0.0
C1540 C 0.39881 0.0107 0.9416 0.0
C1541 C 0.39228 0.00905 0.95727 0.0
C1542 C 0.4074 0.00294 0.91897 0.0
C1543 C 0.40436 0.00596 0.90252 0.0
C1544 C 0.41678 1.00024 0.91987 0.0
C1545 C 0.42092 0.99778 0.93709 0.0
C1546 C 0.42452 0.00598 0.95132 0.0
C1547 C 0.42825 0.00354 0.96759 0.0
C1548 C 0.42848 0.99297 0.96977 0.0
C1549 C 0.42502 0.98481 0.95567 0.0
C1550 C 0.42127 0.9872 0.93937 0.0
C1551 C 0.43514 0.00802 0.84346 0.0
C1552 C 0.43333 0.99659 0.83976 0.0
C1553 C 0.4306 0.00997 0.85911 0.0
C1554 C 0.42424 0.00053 0.87132 0.0
C1555 C 0.42276 0.98923 0.86788 0.0
C1556 C 0.42721 0.98727 0.85223 0.0
C1557 C 0.41882 0.00219 0.88755 0.0
C1558 C 0.4223 0.99982 0.90413 0.0
C1559 C 0.40989 0.00551 0.88674 0.0
C1560 C 0.40562 0.00784 0.86959 0.0
C1561 C 0.40039 0.9989 0.85633 0.0
C1562 C 0.39646 0.0012 0.84014 0.0
C1563 C 0.39761 0.01238 0.83713 0.0
C1564 C 0.40266 0.02127 0.85033 0.0
C1565 C 0.40662 0.01901 0.86653 0.0
H1566 H 0.39456 0.01415 0.82459 0.0
H1567 H 0.43137 0.9911 0.98237 0.0
H1568 H 0.97908 0.38274 0.9586 0.0
H1569 H 0.98561 0.39594 0.93253 0.0
H1570 H 0.02314 0.41298 0.95037 0.0
H1571 H 0.0167 0.39946 0.97637 0.0
H1572 H 0.00702 0.42688 0.93986 0.0
H1573 H 0.0253 0.40383 0.92077 0.0
H1574 H 0.02466 0.38474 0.91582 0.0
H1575 H 0.99338 0.37244 0.88125 0.0
H1576 H 0.99373 0.39139 0.88624 0.0
H1577 H 0.02272 0.46309 0.86165 0.0
H1578 H 0.02437 0.45235 0.88733 0.0
H1579 H 0.99578 0.4186 0.86513 0.0
H1580 H 0.99477 0.42909 0.83889 0.0
H1581 H 0.01159 0.41483 0.87927 0.0
H1582 H 0.99115 0.43516 0.89899 0.0
H1583 H 0.98895 0.45266 0.90438 0.0
H1584 H 0.02101 0.46859 0.93798 0.0
H1585 H 0.02347 0.45123 0.9326 0.0
C1586 C 0.98874 0.3892 0.9569 0.0
C1587 C 0.99739 0.39008 0.96951 0.0
C1588 C 0.99245 0.39671 0.94201 0.0
C1589 C 0.00483 0.40537 0.93958 0.0
C1590 C 0.01354 0.40626 0.95202 0.0
C1591 C 0.00986 0.39854 0.96679 0.0
C1592 C 0.00835 0.41376 0.92435 0.0
C1593 C 0.00837 0.42446 0.92664 0.0
C1594 C 0.00966 0.41032 0.90713 0.0
C1595 C 0.00946 0.39896 0.90404 0.0
C1596 C 0.01821 0.39699 0.91228 0.0
C1597 C 0.01791 0.38621 0.90942 0.0
C1598 C 0.00896 0.37736 0.89827 0.0
C1599 C 1.0003 0.37929 0.88991 0.0
C1600 C 1.00055 0.39005 0.89273 0.0
C1601 C 0.01692 0.45336 0.86207 0.0
C1602 C 0.00847 0.44701 0.84821 0.0
C1603 C 0.01778 0.44723 0.87691 0.0
C1604 C 0.01004 0.43466 0.87839 0.0
C1605 C 0.00183 0.4283 0.8644 0.0
C1606 C 0.00112 0.43437 0.84947 0.0
C1607 C 0.01014 0.42803 0.89461 0.0
C1608 C 0.01064 0.41754 0.8925 0.0
C1609 C 0.00905 0.43156 0.91199 0.0
C1610 C 0.00759 0.44199 0.91521 0.0
C1611 C 0.99778 0.44244 0.90741 0.0
C1612 C 0.99648 0.45232 0.91049 0.0
C1613 C 0.00486 0.46175 0.92147 0.0
C1614 C 0.01454 0.4613 0.92944 0.0
C1615 C 0.0159 0.45144 0.92639 0.0
H1616 H 0.00384 0.46939 0.92383 0.0
H1617 H 0.00875 0.36903 0.89607 0.0
H1618 H 0.60451 0.59741 0.98924 0.0
H1619 H 0.59005 0.5905 0.96427 0.0
H1620 H 0.61119 0.62551 0.93954 0.0
H1621 H 0.62524 0.6327 0.96535 0.0
H1622 H 0.58875 0.61743 0.93219 0.0
H1623 H 0.61356 0.60014 0.92775 0.0
H1624 H 0.62347 0.58906 0.93761 0.0
H1625 H 0.58828 0.55709 0.94526 0.0
H1626 H 0.57815 0.56802 0.93566 0.0
H1627 H 0.57009 0.59296 0.84269 0.0
H1628 H 0.58162 0.6023 0.87028 0.0
H1629 H 0.55288 0.57346 0.90083 0.0
H1630 H 0.54117 0.56426 0.87324 0.0
H1631 H 0.5788 0.57863 0.90476 0.0
H1632 H 0.55471 0.59754 0.90642 0.0
H1633 H 0.54657 0.60957 0.8937 0.0
H1634 H 0.58311 0.6398 0.88744 0.0
H1635 H 0.59147 0.62788 0.89988 0.0
C1636 C 0.60598 0.60365 0.97854 0.0
C1637 C 0.61602 0.61552 0.97904 0.0
C1638 C 0.59777 0.59968 0.96421 0.0
C1639 C 0.59973 0.60734 0.94967 0.0
C1640 C 0.60952 0.61939 0.9505 0.0
C1641 C 0.61755 0.62349 0.96519 0.0
C1642 C 0.59181 0.60258 0.93345 0.0
C1643 C 0.5867 0.60901 0.92612 0.0
C1644 C 0.58905 0.59156 0.92543 0.0
C1645 C 0.5951 0.58493 0.93114 0.0
C1646 C 0.60794 0.59076 0.93164 0.0
C1647 C 0.61359 0.58451 0.93717 0.0
C1648 C 0.60651 0.57239 0.9421 0.0
C1649 C 0.59376 0.56648 0.94146 0.0
C1650 C 0.58805 0.5727 0.93596 0.0
C1651 C 0.56617 0.58876 0.85535 0.0
C1652 C 0.55478 0.57793 0.85595 0.0
C1653 C 0.57272 0.5941 0.87104 0.0
C1654 C 0.56806 0.58856 0.88752 0.0
C1655 C 0.55656 0.57787 0.88819 0.0
C1656 C 0.54989 0.57266 0.87251 0.0
C1657 C 0.57569 0.59338 0.90381 0.0
C1658 C 0.58082 0.587 0.911 0.0
C1659 C 0.57874 0.60458 0.91129 0.0
C1660 C 0.57372 0.61177 0.90392 0.0
C1661 C 0.56101 0.60671 0.90218 0.0
C1662 C 0.55636 0.61352 0.89505 0.0
C1663 C 0.56432 0.62543 0.88972 0.0
C1664 C 0.57695 0.63057 0.89156 0.0
C1665 C 0.58165 0.62379 0.89866 0.0
H1666 H 0.5607 0.63069 0.8842 0.0
H1667 H 0.61091 0.56756 0.94638 0.0
H1668 H 0.9868 0.61024 0.96823 0.0
H1669 H 0.9798 0.59667 0.9424 0.0
H1670 H 0.01719 0.61172 0.92629 0.0
H1671 H 0.02426 0.62514 0.95211 0.0
H1672 H 1.00045 0.6082 0.89781 0.0
H1673 H 0.00479 0.58683 0.94805 0.0
H1674 H 1.00047 0.5786 0.97856 0.0
H1675 H 0.96218 0.55708 0.96561 0.0
H1676 H 0.96627 0.56532 0.93506 0.0
H1677 H 0.00087 0.56657 0.8399 0.0
H1678 H 0.00432 0.58004 0.86458 0.0
H1679 H 0.967 0.55674 0.88118 0.0
H1680 H 0.96367 0.54273 0.85709 0.0
H1681 H 0.98124 0.56432 0.9092 0.0
H1682 H 0.97651 0.58371 0.85846 0.0
H1683 H 0.98013 0.59191 0.82795 0.0
H1684 H 0.01774 0.61716 0.84138 0.0
H1685 H 0.01439 0.609 0.87192 0.0
C1686 C 0.99351 0.61076 0.95905 0.0
C1687 C 0.00609 0.61871 0.96224 0.0
C1688 C 0.9895 0.60299 0.94436 0.0
C1689 C 0.998 0.60316 0.93254 0.0
C1690 C 0.0105 0.61145 0.93527 0.0
C1691 C 0.01452 0.61908 0.95006 0.0
C1692 C 0.99401 0.59433 0.91781 0.0
C1693 C 0.99631 0.59861 0.90025 0.0
C1694 C 0.98826 0.58181 0.92104 0.0
C1695 C 0.98582 0.5768 0.93935 0.0
C1696 C 0.99544 0.58042 0.95176 0.0
C1697 C 0.99303 0.57574 0.96905 0.0
C1698 C 0.98105 0.56735 0.97404 0.0
C1699 C 0.97145 0.5636 0.96173 0.0
C1700 C 0.97381 0.56827 0.94443 0.0
C1701 C 0.99343 0.56414 0.84895 0.0
C1702 C 0.98197 0.55351 0.84643 0.0
C1703 C 0.99537 0.57199 0.86293 0.0
C1704 C 0.98584 0.56957 0.87453 0.0
C1705 C 0.97446 0.55887 0.87231 0.0
C1706 C 0.97254 0.55091 0.85842 0.0
C1707 C 0.98788 0.57817 0.88905 0.0
C1708 C 0.98522 0.57388 0.90663 0.0
C1709 C 0.99316 0.59068 0.88579 0.0
C1710 C 0.99521 0.59568 0.86746 0.0
C1711 C 0.98557 0.59096 0.85488 0.0
C1712 C 0.98758 0.59561 0.83758 0.0
C1713 C 0.99917 0.60504 0.83272 0.0
C1714 C 0.00877 0.60986 0.84517 0.0
C1715 C 0.00682 0.60523 0.86248 0.0
H1716 H 1.0007 0.60862 0.81932 0.0
H1717 H 0.97921 0.56374 0.98743 0.0
H1718 H 0.38193 0.37435 0.96339 0.0
H1719 H 0.39606 0.38257 0.93827 0.0
H1720 H 0.39777 0.41647 0.94364 0.0
H1721 H 0.38375 0.40842 0.96855 0.0
H1722 H 0.39548 0.39303 0.9053 0.0
H1723 H 0.42757 0.43878 0.94032 0.0
H1724 H 0.4339 0.44668 0.97086 0.0
H1725 H 0.42602 0.41191 0.98891 0.0
H1726 H 0.41983 0.40386 0.95843 0.0
H1727 H 0.43233 0.43932 0.84469 0.0
H1728 H 0.41866 0.42696 0.8685 0.0
H1729 H 0.44796 0.42462 0.89326 0.0
H1730 H 0.46183 0.43728 0.86964 0.0
H1731 H 0.43603 0.42971 0.91728 0.0
H1732 H 0.425 0.40042 0.87158 0.0
H1733 H 0.41886 0.39174 0.84143 0.0
H1734 H 0.38563 0.39214 0.84513 0.0
H1735 H 0.39164 0.40096 0.87523 0.0
C1736 C 0.38521 0.38351 0.95908 0.0
C1737 C 0.38178 0.39076 0.96809 0.0
C1738 C 0.39326 0.38818 0.94472 0.0
C1739 C 0.39809 0.40017 0.9393 0.0
C1740 C 0.39428 0.40724 0.94779 0.0
C1741 C 0.38623 0.40259 0.96202 0.0
C1742 C 0.40747 0.40561 0.92526 0.0
C1743 C 0.40437 0.40101 0.90788 0.0
C1744 C 0.41916 0.41586 0.92879 0.0
C1745 C 0.42314 0.4207 0.9471 0.0
C1746 C 0.42725 0.43284 0.95078 0.0
C1747 C 0.43081 0.43734 0.96809 0.0
C1748 C 0.43033 0.42979 0.98183 0.0
C1749 C 0.42635 0.41774 0.97827 0.0
C1750 C 0.4228 0.4132 0.96098 0.0
C1751 C 0.43591 0.43627 0.85528 0.0
C1752 C 0.44819 0.43934 0.85534 0.0
C1753 C 0.42803 0.42907 0.86876 0.0
C1754 C 0.43224 0.42473 0.88254 0.0
C1755 C 0.44451 0.42781 0.8827 0.0
C1756 C 0.4524 0.435 0.86917 0.0
C1757 C 0.42392 0.4174 0.89712 0.0
C1758 C 0.42721 0.42165 0.91465 0.0
C1759 C 0.41249 0.40675 0.89374 0.0
C1760 C 0.40882 0.40143 0.87564 0.0
C1761 C 0.41643 0.39874 0.86592 0.0
C1762 C 0.41296 0.39378 0.84884 0.0
C1763 C 0.40187 0.39141 0.84135 0.0
C1764 C 0.39422 0.39398 0.85095 0.0
C1765 C 0.39764 0.39894 0.86803 0.0
H1766 H 0.39918 0.38756 0.82814 0.0
H1767 H 0.43306 0.43329 0.99523 0.0
H1768 H 0.60208 0.97988 0.96751 0.0
H1769 H 0.58718 0.97373 0.94293 0.0
H1770 H 0.59704 0.01073 0.9358 0.0
H1771 H 0.61153 0.01682 0.96054 0.0
H1772 H 0.57354 0.99716 0.93521 0.0
H1773 H 0.60637 0.9956 0.90703 0.0
H1774 H 0.62107 0.98891 0.90348 0.0
H1775 H 0.59144 0.95213 0.89932 0.0
H1776 H 0.57655 0.95859 0.90306 0.0
H1777 H 0.55396 0.99901 0.84758 0.0
H1778 H 0.56608 0.00097 0.87405 0.0
H1779 H 0.54653 0.96231 0.87972 0.0
H1780 H 0.53392 0.9602 0.85356 0.0
H1781 H 0.57273 0.97397 0.88243 0.0
H1782 H 0.53998 0.97654 0.90762 0.0
H1783 H 0.52587 0.98402 0.91007 0.0
H1784 H 0.55627 0.01996 0.91886 0.0
H1785 H 0.57059 0.01273 0.9162 0.0
C1786 C 0.60111 0.98669 0.96059 0.0
C1787 C 0.60796 0.99883 0.96601 0.0
C1788 C 0.59262 0.98318 0.94652 0.0
C1789 C 0.591 0.99178 0.93742 0.0
C1790 C 0.59803 0.00391 0.94265 0.0
C1791 C 0.60636 0.00739 0.9568 0.0
C1792 C 0.58183 0.98827 0.92273 0.0
C1793 C 0.57346 0.99217 0.92362 0.0
C1794 C 0.58143 0.98145 0.90781 0.0
C1795 C 0.59036 0.97756 0.90554 0.0
C1796 C 0.60299 0.98608 0.9055 0.0
C1797 C 0.61136 0.98233 0.90343 0.0
C1798 C 0.60719 0.9701 0.90124 0.0
C1799 C 0.59465 0.96159 0.90106 0.0
C1800 C 0.58625 0.96529 0.90314 0.0
C1801 C 0.552 0.99089 0.8546 0.0
C1802 C 0.54284 0.97944 0.84842 0.0
C1803 C 0.55904 0.99205 0.86967 0.0
C1804 C 0.55716 0.98179 0.87887 0.0
C1805 C 0.54813 0.97033 0.87276 0.0
C1806 C 0.54096 0.96916 0.85776 0.0
C1807 C 0.56477 0.98317 0.89479 0.0
C1808 C 0.57278 0.97885 0.89414 0.0
C1809 C 0.56496 0.98972 0.90987 0.0
C1810 C 0.55636 0.9941 0.91157 0.0
C1811 C 0.54367 0.98605 0.90994 0.0
C1812 C 0.53563 0.99025 0.91139 0.0
C1813 C 0.54017 0.00246 0.91458 0.0
C1814 C 0.55276 0.0105 0.91637 0.0
C1815 C 0.56084 0.00636 0.91492 0.0
H1816 H 0.53393 0.00569 0.9157 0.0
H1817 H 0.61368 0.96722 0.89963 0.0
H1818 H 0.60606 0.98156 0.05402 0.0
H1819 H 0.59329 0.97541 0.08064 0.0
H1820 H 0.60867 0.01273 0.09489 0.0
H1821 H 0.62126 0.01896 0.06815 0.0
H1822 H 0.60569 0.99589 0.12435 0.0
H1823 H 0.5837 0.00119 0.07496 0.0
H1824 H 0.57498 0.99707 0.04452 0.0
H1825 H 0.5528 0.95934 0.05677 0.0
H1826 H 0.56155 0.96323 0.08722 0.0
H1827 H 0.56484 0.99712 0.18403 0.0
H1828 H 0.57828 1.00039 0.15927 0.0
H1829 H 0.5534 0.96414 0.14069 0.0
H1830 H 0.53943 0.96105 0.1648 0.0
H1831 H 0.56124 0.97837 0.11361 0.0
H1832 H 0.58075 0.97224 0.16311 0.0
H1833 H 0.58925 0.97506 0.19356 0.0
H1834 H 0.61587 0.01202 0.18178 0.0
H1835 H 0.60741 0.00948 0.15131 0.0
C1836 C 0.60686 0.98845 0.06297 0.0
C1837 C 0.6146 0.00075 0.05896 0.0
C1838 C 0.59955 0.98492 0.07813 0.0
C1839 C 0.60004 0.99363 0.08964 0.0
C1840 C 0.6082 0.00589 0.08616 0.0
C1841 C 0.61534 0.00943 0.07085 0.0
C1842 C 0.5914 0.99006 0.10457 0.0
C1843 C 0.59598 0.99212 0.12208 0.0
C1844 C 0.5787 0.98479 0.10152 0.0
C1845 C 0.57339 0.98248 0.08328 0.0
C1846 C 0.57705 0.992 0.0711 0.0
C1847 C 0.57209 0.98971 0.05386 0.0
C1848 C 0.56337 0.97794 0.0487 0.0
C1849 C 0.55957 0.96845 0.06078 0.0
C1850 C 0.56453 0.97069 0.07803 0.0
C1851 C 0.56207 0.98988 0.17453 0.0
C1852 C 0.551 0.9788 0.17647 0.0
C1853 C 0.5699 0.99171 0.16051 0.0
C1854 C 0.56701 0.98242 0.14831 0.0
C1855 C 0.55589 0.97141 0.15002 0.0
C1856 C 0.54796 0.96962 0.16392 0.0
C1857 C 0.5755 0.98434 0.1336 0.0
C1858 C 0.57091 0.98198 0.11605 0.0
C1859 C 0.58816 0.98912 0.13668 0.0
C1860 C 0.59338 0.99069 0.15495 0.0
C1861 C 0.58837 0.98099 0.16704 0.0
C1862 C 0.59318 0.98254 0.18431 0.0
C1863 C 0.60307 0.99372 0.18962 0.0
C1864 C 0.6082 0.00336 0.17765 0.0
C1865 C 0.6034 0.00187 0.16037 0.0
H1866 H 0.60678 0.99489 0.203 0.0
H1867 H 0.55953 0.97619 0.03534 0.0
H1868 H 0.02579 0.61588 0.05357 0.0
H1869 H 0.0214 0.60308 0.07962 0.0
H1870 H 0.98786 0.60262 0.0875 0.0
H1871 H 0.99223 0.61561 0.0613 0.0
H1872 H 0.00084 0.60616 0.11887 0.0
H1873 H 0.98629 0.57824 0.07074 0.0
H1874 H 0.9871 0.57016 0.04152 0.0
H1875 H 0.0176 0.56751 0.05954 0.0
H1876 H 0.0171 0.57575 0.0888 0.0
H1877 H 0.98377 0.56064 0.18531 0.0
H1878 H 0.98311 0.57086 0.15819 0.0
H1879 H 0.01701 0.57468 0.14124 0.0
H1880 H 0.01757 0.56419 0.16807 0.0
H1881 H 1.0007 0.56798 0.11391 0.0
H1882 H 0.01643 0.59791 0.16084 0.0
H1883 H 0.01575 0.60621 0.18996 0.0
H1884 H 0.98278 0.60499 0.17403 0.0
H1885 H 0.98318 0.59653 0.14489 0.0
C1886 C 0.01747 0.6131 0.06079 0.0
C1887 C 0.00933 0.61675 0.05526 0.0
C1888 C 0.01495 0.60571 0.07566 0.0
C1889 C 0.00422 0.60174 0.08534 0.0
C1890 C 0.99616 0.60554 0.08014 0.0
C1891 C 0.99867 0.61294 0.06516 0.0
C1892 C 0.00161 0.59371 0.10093 0.0
C1893 C 1.00055 0.59769 0.11776 0.0
C1894 C 0.00141 0.58274 0.09949 0.0
C1895 C 0.0017 0.57769 0.08194 0.0
C1896 C 0.99323 0.57601 0.06844 0.0
C1897 C 0.99362 0.57139 0.05187 0.0
C1898 C 0.00241 0.56834 0.04866 0.0
C1899 C 0.0108 0.56988 0.06204 0.0
C1900 C 0.01045 0.57451 0.07863 0.0
C1901 C 0.99099 0.56349 0.17568 0.0
C1902 C 1.00075 0.56164 0.17888 0.0
C1903 C 0.99065 0.56943 0.16027 0.0
C1904 C 1.00009 0.57366 0.1478 0.0
C1905 C 0.00965 0.57152 0.15072 0.0
C1906 C 0.01001 0.56561 0.16612 0.0
C1907 C 1.00022 0.58057 0.13189 0.0
C1908 C 1.00081 0.57637 0.115 0.0
C1909 C 0.99996 0.59132 0.13329 0.0
C1910 C 0.99976 0.59646 0.15077 0.0
C1911 C 0.00898 0.59932 0.1636 0.0
C1912 C 0.00866 0.60407 0.1801 0.0
C1913 C 0.99921 0.60609 0.18386 0.0
C1914 C 0.99008 0.6034 0.17111 0.0
C1915 C 0.99035 0.59863 0.1546 0.0
H1916 H 0.99897 0.60977 0.19663 0.0
H1917 H 0.0027 0.56477 0.03582 0.0
H1918 H 0.38393 0.40311 0.06682 0.0
H1919 H 0.39921 0.4101 0.09056 0.0
H1920 H 0.40428 0.38027 0.08095 0.0
H1921 H 0.38874 0.37304 0.05705 0.0
H1922 H 0.40428 0.38474 0.11681 0.0
H1923 H 0.42496 0.40726 0.06541 0.0
H1924 H 0.42822 0.41952 0.0385 0.0
H1925 H 0.42959 0.44753 0.0704 0.0
H1926 H 0.42615 0.43536 0.09749 0.0
H1927 H 0.45851 0.41568 0.17228 0.0
H1928 H 0.44545 0.4058 0.14616 0.0
H1929 H 0.43253 0.43053 0.14774 0.0
H1930 H 0.44514 0.44017 0.17408 0.0
H1931 H 0.43866 0.42727 0.11354 0.0
H1932 H 0.4154 0.40315 0.16425 0.0
H1933 H 0.41212 0.39066 0.1909 0.0
H1934 H 0.4162 0.36545 0.15955 0.0
H1935 H 0.41968 0.37791 0.13274 0.0
C1936 C 0.38821 0.39795 0.06976 0.0
C1937 C 0.38519 0.38757 0.05989 0.0
C1938 C 0.39699 0.402 0.08332 0.0
C1939 C 0.40308 0.39586 0.08726 0.0
C1940 C 0.39975 0.38519 0.07801 0.0
C1941 C 0.39088 0.38108 0.06438 0.0
C1942 C 0.41306 0.40087 0.10084 0.0
C1943 C 0.41194 0.39395 0.11593 0.0
C1944 C 0.42303 0.41292 0.09972 0.0
C1945 C 0.42522 0.42035 0.08348 0.0
C1946 C 0.42588 0.416 0.06668 0.0
C1947 C 0.42777 0.42294 0.05139 0.0
C1948 C 0.4291 0.43429 0.05274 0.0
C1949 C 0.42856 0.43873 0.06938 0.0
C1950 C 0.42666 0.43182 0.08471 0.0
C1951 C 0.45285 0.41899 0.16713 0.0
C1952 C 0.45292 0.42876 0.17535 0.0
C1953 C 0.44544 0.41336 0.15216 0.0
C1954 C 0.438 0.41742 0.14507 0.0
C1955 C 0.43827 0.42731 0.15294 0.0
C1956 C 0.44557 0.43287 0.16797 0.0
C1957 C 0.42967 0.41126 0.12972 0.0
C1958 C 0.43112 0.41799 0.11426 0.0
C1959 C 0.42009 0.39903 0.13046 0.0
C1960 C 0.41795 0.39153 0.14655 0.0
C1961 C 0.41571 0.395 0.16307 0.0
C1962 C 0.41379 0.38792 0.1782 0.0
C1963 C 0.41399 0.37729 0.17693 0.0
C1964 C 0.41607 0.3737 0.16052 0.0
C1965 C 0.41801 0.38077 0.14535 0.0
H1966 H 0.4125 0.37181 0.18866 0.0
H1967 H 0.43055 0.43965 0.04088 0.0
H1968 H 0.67757 0.72952 0.39508 0.0
H1969 H 0.68189 0.74236 0.42115 0.0
H1970 H 0.64315 0.72607 0.42973 0.0
H1971 H 0.63882 0.71365 0.40319 0.0
H1972 H 0.65301 0.74862 0.4334 0.0
H1973 H 0.66274 0.72027 0.45685 0.0
H1974 H 0.6727 0.70834 0.45806 0.0
H1975 H 0.70799 0.7409 0.4605 0.0
H1976 H 0.69825 0.75304 0.45907 0.0
H1977 H 0.65906 0.77023 0.52303 0.0
H1978 H 0.65481 0.75712 0.49736 0.0
H1979 H 0.69168 0.78039 0.47916 0.0
H1980 H 0.6959 0.79396 0.50422 0.0
H1981 H 0.68283 0.75438 0.48103 0.0
H1982 H 0.67178 0.78231 0.45764 0.0
H1983 H 0.6608 0.79327 0.45796 0.0
H1984 H 0.6264 0.75967 0.45749 0.0
H1985 H 0.63719 0.7485 0.45743 0.0
C1986 C 0.66998 0.72859 0.40265 0.0
C1987 C 0.65786 0.72058 0.39709 0.0
C1988 C 0.67246 0.73591 0.41761 0.0
C1989 C 0.66285 0.73512 0.42761 0.0
C1990 C 0.65073 0.7269 0.42225 0.0
C1991 C 0.64826 0.71977 0.4071 0.0
C1992 C 0.66539 0.7432 0.44314 0.0
C1993 C 0.6594 0.7497 0.44392 0.0
C1994 C 0.67387 0.74483 0.45681 0.0
C1995 C 0.67977 0.73756 0.45768 0.0
C1996 C 0.67263 0.72489 0.45751 0.0
C1997 C 0.67823 0.71809 0.45826 0.0
C1998 C 0.69097 0.72385 0.45931 0.0
C1999 C 0.69813 0.73644 0.45966 0.0
C2000 C 0.69257 0.74329 0.4589 0.0
C2001 C 0.66623 0.77275 0.51343 0.0
C2002 C 0.67785 0.78322 0.5158 0.0
C2003 C 0.66379 0.76515 0.49884 0.0
C2004 C 0.67295 0.76779 0.48645 0.0
C2005 C 0.68453 0.77818 0.48869 0.0
C2006 C 0.68693 0.78588 0.50311 0.0
C2007 C 0.67043 0.75965 0.47115 0.0
C2008 C 0.67643 0.7532 0.47046 0.0
C2009 C 0.66179 0.75787 0.45776 0.0
C2010 C 0.6553 0.76457 0.45772 0.0
C2011 C 0.66188 0.77726 0.45777 0.0
C2012 C 0.65569 0.7835 0.45787 0.0
C2013 C 0.64291 0.77717 0.45779 0.0
C2014 C 0.6363 0.76456 0.45757 0.0
C2015 C 0.64244 0.75827 0.45749 0.0
H2016 H 0.63814 0.78202 0.45787 0.0
H2017 H 0.69529 0.71857 0.45988 0.0
H2018 H 0.27974 0.92607 0.39305 0.0
H2019 H 0.2688 0.91721 0.42066 0.0
H2020 H 0.28498 0.95263 0.4439 0.0
H2021 H 0.29581 0.96169 0.4159 0.0
H2022 H 0.28714 0.93329 0.46384 0.0
H2023 H 0.25784 0.94138 0.43763 0.0
H2024 H 0.24465 0.94148 0.41347 0.0
H2025 H 0.22517 0.9028 0.41124 0.0
H2026 H 0.23837 0.90247 0.4352 0.0
H2027 H 0.25357 0.90446 0.54177 0.0
H2028 H 0.26284 0.91874 0.51713 0.0
H2029 H 0.24091 0.89019 0.47963 0.0
H2030 H 0.23121 0.87606 0.50437 0.0
H2031 H 0.24193 0.9094 0.46865 0.0
H2032 H 0.27231 0.90078 0.48999 0.0
H2033 H 0.28584 0.89948 0.51241 0.0
H2034 H 0.30364 0.93757 0.52197 0.0
H2035 H 0.29011 0.93907 0.49974 0.0
C2036 C 0.2809 0.93201 0.40397 0.0
C2037 C 0.28866 0.94457 0.40238 0.0
C2038 C 0.27461 0.92693 0.41969 0.0
C2039 C 0.27608 0.93428 0.43423 0.0
C2040 C 0.28373 0.94685 0.43274 0.0
C2041 C 0.28986 0.95199 0.41678 0.0
C2042 C 0.27005 0.92856 0.45118 0.0
C2043 C 0.27727 0.9283 0.46515 0.0
C2044 C 0.25717 0.92177 0.4525 0.0
C2045 C 0.24916 0.92192 0.43814 0.0
C2046 C 0.25081 0.9329 0.43189 0.0
C2047 C 0.24332 0.93299 0.41824 0.0
C2048 C 0.23409 0.92215 0.4108 0.0
C2049 C 0.23232 0.91119 0.41701 0.0
C2050 C 0.2398 0.91105 0.43065 0.0
C2051 C 0.25075 0.90128 0.52823 0.0
C2052 C 0.24179 0.88918 0.52487 0.0
C2053 C 0.25606 0.90942 0.51417 0.0
C2054 C 0.25277 0.90552 0.49646 0.0
C2055 C 0.24363 0.89344 0.49315 0.0
C2056 C 0.23812 0.88536 0.50725 0.0
C2057 C 0.259 0.91387 0.48131 0.0
C2058 C 0.25182 0.91457 0.4676 0.0
C2059 C 0.27193 0.92089 0.48007 0.0
C2060 C 0.28011 0.92001 0.49336 0.0
C2061 C 0.27906 0.90886 0.49696 0.0
C2062 C 0.28674 0.90809 0.50962 0.0
C2063 C 0.29557 0.91843 0.51865 0.0
C2064 C 0.29678 0.92957 0.515 0.0
C2065 C 0.28911 0.93038 0.50236 0.0
H2066 H 0.3015 0.91782 0.52845 0.0
H2067 H 0.2283 0.92224 0.40024 0.0
H2068 H 0.05015 0.32533 0.42042 0.0
H2069 H 0.06513 0.33435 0.44465 0.0
H2070 H 0.08269 0.3686 0.41744 0.0
H2071 H 0.06748 0.35962 0.39313 0.0
H2072 H 0.09862 0.36006 0.42812 0.0
H2073 H 0.06947 0.36781 0.45325 0.0
H2074 H 0.04901 0.36307 0.46238 0.0
H2075 H 0.04647 0.33607 0.49845 0.0
H2076 H 0.06684 0.34051 0.48934 0.0
H2077 H 0.12464 0.37708 0.52609 0.0
H2078 H 0.11252 0.37777 0.50098 0.0
H2079 H 0.11054 0.3464 0.47814 0.0
H2080 H 0.12255 0.34562 0.50323 0.0
H2081 H 0.08867 0.35928 0.49195 0.0
H2082 H 0.11102 0.34957 0.4327 0.0
H2083 H 0.13152 0.35444 0.4235 0.0
H2084 H 0.14802 0.38651 0.45554 0.0
H2085 H 0.12762 0.38194 0.46472 0.0
C2086 C 0.05708 0.33483 0.4197 0.0
C2087 C 0.05767 0.34177 0.40487 0.0
C2088 C 0.06561 0.33998 0.43358 0.0
C2089 C 0.07499 0.35214 0.43283 0.0
C2090 C 0.07548 0.3592 0.41825 0.0
C2091 C 0.06677 0.35409 0.40445 0.0
C2092 C 0.08468 0.35704 0.44679 0.0
C2093 C 0.09651 0.36005 0.44206 0.0
C2094 C 0.08192 0.35715 0.46493 0.0
C2095 C 0.06968 0.35447 0.47053 0.0
C2096 C 0.06451 0.3608 0.46303 0.0
C2097 C 0.05293 0.35818 0.46822 0.0
C2098 C 0.04643 0.34927 0.48097 0.0
C2099 C 0.05152 0.34297 0.48858 0.0
C2100 C 0.06309 0.34556 0.48343 0.0
C2101 C 0.1218 0.37047 0.51553 0.0
C2102 C 0.12452 0.36129 0.51657 0.0
C2103 C 0.11483 0.37084 0.50128 0.0
C2104 C 0.1107 0.36218 0.48769 0.0
C2105 C 0.11375 0.35324 0.48842 0.0
C2106 C 0.12055 0.35277 0.50277 0.0
C2107 C 0.10247 0.36186 0.47332 0.0
C2108 C 0.09088 0.35959 0.47798 0.0
C2109 C 0.10546 0.36246 0.45513 0.0
C2110 C 0.11777 0.36536 0.44949 0.0
C2111 C 0.11902 0.3577 0.43771 0.0
C2112 C 0.13062 0.3604 0.43251 0.0
C2113 C 0.14106 0.37076 0.43896 0.0
C2114 C 0.13992 0.37846 0.4506 0.0
C2115 C 0.12834 0.37581 0.45582 0.0
H2116 H 0.15004 0.37283 0.43493 0.0
H2117 H 0.03747 0.34725 0.48497 0.0
H2118 H 0.05898 0.31505 0.32227 0.0
H2119 H 0.07049 0.31724 0.29548 0.0
H2120 H 0.06091 0.34219 0.2739 0.0
H2121 H 0.04971 0.34039 0.30106 0.0
H2122 H 0.06491 0.31222 0.26253 0.0
H2123 H 0.08338 0.36261 0.24735 0.0
H2124 H 0.08903 0.38135 0.26344 0.0
H2125 H 0.09644 0.3674 0.31083 0.0
H2126 H 0.09098 0.34865 0.29496 0.0
H2127 H 0.09046 0.32584 0.17624 0.0
H2128 H 0.0787 0.3235 0.20295 0.0
H2129 H 0.11223 0.34648 0.23213 0.0
H2130 H 0.12398 0.34911 0.20526 0.0
H2131 H 0.0966 0.35246 0.24011 0.0
H2132 H 0.09523 0.315 0.23725 0.0
H2133 H 0.09152 0.29616 0.22351 0.0
H2134 H 0.05349 0.28409 0.21652 0.0
H2135 H 0.057 0.30293 0.23001 0.0
C2136 C 0.0593 0.32101 0.31183 0.0
C2137 C 0.05348 0.3276 0.31385 0.0
C2138 C 0.06587 0.32222 0.29648 0.0
C2139 C 0.0667 0.32998 0.28272 0.0
C2140 C 0.06062 0.33634 0.28448 0.0
C2141 C 0.05418 0.33526 0.29998 0.0
C2142 C 0.07401 0.33142 0.26666 0.0
C2143 C 0.07182 0.32103 0.25762 0.0
C2144 C 0.08321 0.34289 0.2604 0.0
C2145 C 0.08664 0.35418 0.27001 0.0
C2146 C 0.08625 0.36356 0.26119 0.0
C2147 C 0.08942 0.37418 0.27027 0.0
C2148 C 0.09305 0.37555 0.28816 0.0
C2149 C 0.09357 0.36632 0.29699 0.0
C2150 C 0.09043 0.35568 0.28797 0.0
C2151 C 0.09531 0.3303 0.18841 0.0
C2152 C 0.10813 0.33761 0.18872 0.0
C2153 C 0.08859 0.32895 0.20367 0.0
C2154 C 0.09457 0.3347 0.21965 0.0
C2155 C 0.10739 0.34198 0.21997 0.0
C2156 C 0.11411 0.34346 0.20464 0.0
C2157 C 0.08748 0.33326 0.23597 0.0
C2158 C 0.08967 0.34365 0.245 0.0
C2159 C 0.07856 0.32178 0.24256 0.0
C2160 C 0.07641 0.31043 0.23448 0.0
C2161 C 0.08609 0.30836 0.23266 0.0
C2162 C 0.08402 0.29768 0.22494 0.0
C2163 C 0.07228 0.28895 0.2191 0.0
C2164 C 0.06258 0.29087 0.22102 0.0
C2165 C 0.0646 0.30154 0.22872 0.0
H2166 H 0.0707 0.28068 0.21313 0.0
H2167 H 0.09549 0.38378 0.29517 0.0
H2168 H 0.68254 0.7297 0.30778 0.0
H2169 H 0.68912 0.74293 0.28156 0.0
H2170 H 0.65156 0.73142 0.2695 0.0
H2171 H 0.64494 0.71831 0.29557 0.0
H2172 H 0.66464 0.73185 0.23972 0.0
H2173 H 0.66915 0.75752 0.2897 0.0
H2174 H 0.67737 0.76697 0.319 0.0
H2175 H 0.71399 0.78339 0.29939 0.0
H2176 H 0.70597 0.77389 0.27003 0.0
H2177 H 0.66414 0.77401 0.18258 0.0
H2178 H 0.66191 0.76146 0.20818 0.0
H2179 H 0.70111 0.78063 0.21523 0.0
H2180 H 0.70342 0.7937 0.18999 0.0
H2181 H 0.69012 0.7763 0.24676 0.0
H2182 H 0.68607 0.75278 0.19608 0.0
H2183 H 0.67837 0.74339 0.16662 0.0
H2184 H 0.64191 0.72274 0.18701 0.0
H2185 H 0.64937 0.73214 0.21654 0.0
C2186 C 0.67569 0.72994 0.29947 0.0
C2187 C 0.66322 0.72299 0.30381 0.0
C2188 C 0.67947 0.73753 0.28455 0.0
C2189 C 0.67082 0.73819 0.27367 0.0
C2190 C 0.65837 0.73104 0.27772 0.0
C2191 C 0.65461 0.72358 0.29268 0.0
C2192 C 0.67461 0.74649 0.2582 0.0
C2193 C 0.67016 0.74157 0.24124 0.0
C2194 C 0.68216 0.75914 0.26014 0.0
C2195 C 0.68697 0.76488 0.27775 0.0
C2196 C 0.67895 0.76306 0.29169 0.0
C2197 C 0.68358 0.76844 0.30829 0.0
C2198 C 0.6962 0.77574 0.31107 0.0
C2199 C 0.70422 0.77771 0.29723 0.0
C2200 C 0.69964 0.77233 0.28061 0.0
C2201 C 0.67231 0.77575 0.18973 0.0
C2202 C 0.68397 0.7849 0.18418 0.0
C2203 C 0.67102 0.76843 0.20425 0.0
C2204 C 0.68135 0.76993 0.21342 0.0
C2205 C 0.69301 0.77924 0.20826 0.0
C2206 C 0.69431 0.78665 0.19375 0.0
C2207 C 0.67985 0.76168 0.22829 0.0
C2208 C 0.68475 0.76658 0.24514 0.0
C2209 C 0.67281 0.74898 0.22622 0.0
C2210 C 0.66827 0.74323 0.20851 0.0
C2211 C 0.6764 0.7463 0.19426 0.0
C2212 C 0.67208 0.74096 0.17755 0.0
C2213 C 0.65965 0.73249 0.17494 0.0
C2214 C 0.65153 0.72931 0.18905 0.0
C2215 C 0.6558 0.73463 0.20579 0.0
H2216 H 0.65633 0.72837 0.16199 0.0
H2217 H 0.69976 0.7799 0.32393 0.0
H2218 H 0.28461 0.96389 0.3081 0.0
H2219 H 0.2718 0.95675 0.28099 0.0
H2220 H 0.27635 0.92609 0.27907 0.0
H2221 H 0.2892 0.9332 0.30557 0.0
H2222 H 0.279 0.93532 0.2472 0.0
H2223 H 0.25007 0.9244 0.29528 0.0
H2224 H 0.241 0.92862 0.3209 0.0
H2225 H 0.23382 0.95158 0.28819 0.0
H2226 H 0.24299 0.9476 0.26242 0.0
H2227 H 0.23008 0.88877 0.19991 0.0
H2228 H 0.24272 0.90118 0.2248 0.0
H2229 H 0.23764 0.93006 0.20769 0.0
H2230 H 0.22529 0.91786 0.18227 0.0
H2231 H 0.23595 0.92537 0.24642 0.0
H2232 H 0.26271 0.93364 0.19724 0.0
H2233 H 0.27107 0.92825 0.172 0.0
H2234 H 0.28199 0.90935 0.20747 0.0
H2235 H 0.27351 0.91446 0.23289 0.0
C2236 C 0.28291 0.95567 0.30181 0.0
C2237 C 0.28794 0.94913 0.30903 0.0
C2238 C 0.27555 0.95157 0.28638 0.0
C2239 C 0.27305 0.94083 0.27805 0.0
C2240 C 0.27818 0.93442 0.28518 0.0
C2241 C 0.28553 0.9385 0.30043 0.0
C2242 C 0.26506 0.93601 0.26195 0.0
C2243 C 0.26959 0.93314 0.24708 0.0
C2244 C 0.25286 0.93345 0.26154 0.0
C2245 C 0.24735 0.93583 0.277 0.0
C2246 C 0.24665 0.93043 0.2936 0.0
C2247 C 0.24147 0.93276 0.30813 0.0
C2248 C 0.23688 0.9404 0.30619 0.0
C2249 C 0.23741 0.94569 0.28969 0.0
C2250 C 0.24259 0.9434 0.27512 0.0
C2251 C 0.23165 0.89776 0.20136 0.0
C2252 C 0.22677 0.90235 0.18891 0.0
C2253 C 0.23881 0.90481 0.21567 0.0
C2254 C 0.24119 0.91656 0.21795 0.0
C2255 C 0.23587 0.92099 0.20614 0.0
C2256 C 0.22878 0.91398 0.19167 0.0
C2257 C 0.24983 0.92433 0.2321 0.0
C2258 C 0.24544 0.92777 0.24648 0.0
C2259 C 0.26215 0.92734 0.23218 0.0
C2260 C 0.26739 0.92437 0.21695 0.0
C2261 C 0.26681 0.92826 0.19964 0.0
C2262 C 0.27158 0.92527 0.1853 0.0
C2263 C 0.27704 0.91845 0.18813 0.0
C2264 C 0.27776 0.91463 0.2053 0.0
C2265 C 0.27298 0.91759 0.21969 0.0
H2266 H 0.28073 0.91614 0.17701 0.0
H2267 H 0.23287 0.94219 0.31746 0.0
H2268 H 0.70177 0.95953 0.29693 0.0
H2269 H 0.699 0.94947 0.26851 0.0
H2270 H 0.66096 0.93877 0.26731 0.0
H2271 H 0.66366 0.94888 0.29602 0.0
H2272 H 0.66449 0.91989 0.25994 0.0
H2273 H 0.67977 0.95989 0.23914 0.0
H2274 H 0.69359 0.98197 0.23827 0.0
H2275 H 0.72376 0.97768 0.22594 0.0
H2276 H 0.71016 0.95556 0.22699 0.0
H2277 H 0.65999 0.89676 0.17149 0.0
H2278 H 0.65883 0.90752 0.19733 0.0
H2279 H 0.6976 0.92368 0.2066 0.0
H2280 H 0.69881 0.91295 0.18088 0.0
H2281 H 0.69114 0.94026 0.20811 0.0
H2282 H 0.67643 0.90053 0.23248 0.0
H2283 H 0.66285 0.87842 0.23394 0.0
H2284 H 0.63173 0.88228 0.23979 0.0
H2285 H 0.64512 0.90442 0.23814 0.0
C2286 C 0.69282 0.95514 0.2906 0.0
C2287 C 0.68293 0.95501 0.29876 0.0
C2288 C 0.69127 0.94943 0.27429 0.0
C2289 C 0.6798 0.94345 0.26573 0.0
C2290 C 0.6699 0.94337 0.2737 0.0
C2291 C 0.67147 0.94919 0.29004 0.0
C2292 C 0.67822 0.9369 0.24885 0.0
C2293 C 0.67011 0.92437 0.24843 0.0
C2294 C 0.68572 0.94273 0.23399 0.0
C2295 C 0.69395 0.95605 0.23326 0.0
C2296 C 0.68937 0.96364 0.23637 0.0
C2297 C 0.69716 0.97617 0.23583 0.0
C2298 C 0.70955 0.98122 0.23208 0.0
C2299 C 0.71416 0.97375 0.22884 0.0
C2300 C 0.70641 0.96122 0.22939 0.0
C2301 C 0.66823 0.90248 0.17919 0.0
C2302 C 0.6795 0.90401 0.17412 0.0
C2303 C 0.66756 0.90865 0.19392 0.0
C2304 C 0.67813 0.91639 0.20392 0.0
C2305 C 0.68935 0.91782 0.199 0.0
C2306 C 0.69003 0.91169 0.18429 0.0
C2307 C 0.67765 0.9232 0.21938 0.0
C2308 C 0.68537 0.9358 0.2195 0.0
C2309 C 0.66981 0.91742 0.23396 0.0
C2310 C 0.66176 0.90412 0.23497 0.0
C2311 C 0.66668 0.89666 0.23392 0.0
C2312 C 0.65902 0.88412 0.23482 0.0
C2313 C 0.64643 0.87895 0.2369 0.0
C2314 C 0.64148 0.8863 0.23814 0.0
C2315 C 0.6491 0.89884 0.23724 0.0
H2316 H 0.64051 0.86924 0.23759 0.0
H2317 H 0.71557 0.99092 0.23167 0.0
H2318 H 0.04507 0.74861 0.30848 0.0
H2319 H 0.0549 0.75813 0.28062 0.0
H2320 H 0.05096 0.72476 0.26272 0.0
H2321 H 0.0413 0.71516 0.291 0.0
H2322 H 0.0731 0.74321 0.25523 0.0
H2323 H 0.03254 0.73466 0.24575 0.0
H2324 H 0.01348 0.73411 0.2526 0.0
H2325 H 0.03301 0.77282 0.25375 0.0
H2326 H 0.05224 0.7736 0.24716 0.0
H2327 H 0.08897 0.76588 0.16626 0.0
H2328 H 0.07767 0.75385 0.19203 0.0
H2329 H 0.08356 0.7859 0.21832 0.0
H2330 H 0.09523 0.79811 0.19282 0.0
H2331 H 0.05929 0.76644 0.21971 0.0
H2332 H 0.10011 0.77439 0.23079 0.0
H2333 H 0.11883 0.77442 0.22329 0.0
H2334 H 0.09795 0.73586 0.21799 0.0
H2335 H 0.07907 0.73562 0.22521 0.0
C2336 C 0.04622 0.74323 0.29863 0.0
C2337 C 0.04233 0.73108 0.30195 0.0
C2338 C 0.0518 0.7487 0.28263 0.0
C2339 C 0.05347 0.74211 0.26942 0.0
C2340 C 0.0497 0.73 0.2727 0.0
C2341 C 0.04417 0.72452 0.28883 0.0
C2342 C 0.05943 0.74808 0.25244 0.0
C2343 C 0.06993 0.74809 0.24728 0.0
C2344 C 0.05541 0.7546 0.24218 0.0
C2345 C 0.04386 0.75418 0.24609 0.0
C2346 C 0.03279 0.74306 0.24759 0.0
C2347 C 0.02195 0.7427 0.25141 0.0
C2348 C 0.02204 0.75342 0.25364 0.0
C2349 C 0.03296 0.76452 0.25203 0.0
C2350 C 0.04383 0.76493 0.24823 0.0
C2351 C 0.08803 0.77043 0.17761 0.0
C2352 C 0.09311 0.78301 0.17749 0.0
C2353 C 0.0815 0.76351 0.19228 0.0
C2354 C 0.07986 0.769 0.2071 0.0
C2355 C 0.08472 0.7815 0.20697 0.0
C2356 C 0.09134 0.78845 0.19235 0.0
C2357 C 0.07303 0.76172 0.22276 0.0
C2358 C 0.06236 0.76145 0.22761 0.0
C2359 C 0.07682 0.75487 0.23261 0.0
C2360 C 0.08816 0.755 0.22834 0.0
C2361 C 0.0995 0.76593 0.22787 0.0
C2362 C 0.11014 0.76598 0.2237 0.0
C2363 C 0.10957 0.75515 0.22011 0.0
C2364 C 0.09837 0.74425 0.22074 0.0
C2365 C 0.0877 0.74414 0.22488 0.0
H2366 H 0.11782 0.75521 0.21689 0.0
H2367 H 0.01363 0.75313 0.2566 0.0
H2368 H 0.27733 0.31812 0.29635 0.0
H2369 H 0.26267 0.30974 0.27128 0.0
H2370 H 0.25115 0.33493 0.28189 0.0
H2371 H 0.26573 0.34339 0.30658 0.0
H2372 H 0.23156 0.311 0.27565 0.0
H2373 H 0.27072 0.34125 0.25023 0.0
H2374 H 0.29257 0.34981 0.24386 0.0
H2375 H 0.28402 0.31706 0.21737 0.0
H2376 H 0.26212 0.30826 0.22381 0.0
H2377 H 0.20437 0.31987 0.20026 0.0
H2378 H 0.21653 0.32089 0.22617 0.0
H2379 H 0.22801 0.29939 0.19877 0.0
H2380 H 0.21646 0.29895 0.17235 0.0
H2381 H 0.24685 0.31728 0.21379 0.0
H2382 H 0.20753 0.28801 0.23449 0.0
H2383 H 0.1856 0.27881 0.24082 0.0
H2384 H 0.19381 0.30795 0.2763 0.0
H2385 H 0.21579 0.31742 0.27 0.0
C2386 C 0.27163 0.32181 0.29335 0.0
C2387 C 0.27276 0.33147 0.30336 0.0
C2388 C 0.26328 0.31703 0.27905 0.0
C2389 C 0.25585 0.32174 0.27476 0.0
C2390 C 0.25677 0.33115 0.28503 0.0
C2391 C 0.26518 0.33602 0.29907 0.0
C2392 C 0.24739 0.31733 0.25921 0.0
C2393 C 0.23486 0.31236 0.26209 0.0
C2394 C 0.25168 0.31873 0.24159 0.0
C2395 C 0.26482 0.32405 0.2377 0.0
C2396 C 0.27352 0.33584 0.24319 0.0
C2397 C 0.2859 0.34074 0.23954 0.0
C2398 C 0.28969 0.33397 0.23027 0.0
C2399 C 0.28108 0.32229 0.22459 0.0
C2400 C 0.26868 0.31734 0.22823 0.0
C2401 C 0.2095 0.31538 0.19968 0.0
C2402 C 0.20943 0.30936 0.18413 0.0
C2403 C 0.21632 0.31582 0.21465 0.0
C2404 C 0.22307 0.31006 0.21458 0.0
C2405 C 0.22284 0.30385 0.19921 0.0
C2406 C 0.21611 0.30351 0.18415 0.0
C2407 C 0.23095 0.31123 0.23013 0.0
C2408 C 0.2434 0.31562 0.22728 0.0
C2409 C 0.22654 0.30913 0.2478 0.0
C2410 C 0.21332 0.30347 0.25168 0.0
C2411 C 0.20466 0.2925 0.24355 0.0
C2412 C 0.19222 0.28723 0.24715 0.0
C2413 C 0.18831 0.2928 0.25893 0.0
C2414 C 0.19685 0.30364 0.26717 0.0
C2415 C 0.20931 0.30896 0.26361 0.0
H2416 H 0.17867 0.2887 0.2617 0.0
H2417 H 0.29928 0.33778 0.22746 0.0
H2418 H 0.27928 0.35621 0.39418 0.0
H2419 H 0.26846 0.35175 0.42212 0.0
H2420 H 0.27178 0.32057 0.42942 0.0
H2421 H 0.28248 0.32484 0.40092 0.0
H2422 H 0.24917 0.3152 0.43689 0.0
H2423 H 0.28895 0.34596 0.45491 0.0
H2424 H 0.30849 0.36542 0.45356 0.0
H2425 H 0.28943 0.38434 0.45896 0.0
H2426 H 0.26975 0.365 0.4601 0.0
H2427 H 0.22705 0.31111 0.5265 0.0
H2428 H 0.23951 0.31277 0.50099 0.0
H2429 H 0.23647 0.34219 0.48034 0.0
H2430 H 0.22369 0.34037 0.50543 0.0
H2431 H 0.26061 0.34708 0.48223 0.0
H2432 H 0.22062 0.31559 0.46119 0.0
H2433 H 0.2014 0.29587 0.46306 0.0
H2434 H 0.22172 0.27797 0.46461 0.0
H2435 H 0.24107 0.29762 0.46299 0.0
C2436 C 0.27783 0.34844 0.40172 0.0
C2437 C 0.28181 0.34091 0.3953 0.0
C2438 C 0.27167 0.34593 0.4178 0.0
C2439 C 0.26948 0.33594 0.42805 0.0
C2440 C 0.27343 0.32837 0.42176 0.0
C2441 C 0.27958 0.33084 0.40552 0.0
C2442 C 0.26265 0.33332 0.44495 0.0
C2443 C 0.25182 0.32208 0.447 0.0
C2444 C 0.26603 0.34233 0.45809 0.0
C2445 C 0.27785 0.35401 0.45748 0.0
C2446 C 0.28891 0.35427 0.45569 0.0
C2447 C 0.30002 0.36528 0.45498 0.0
C2448 C 0.3002 0.37611 0.45615 0.0
C2449 C 0.28927 0.37595 0.45806 0.0
C2450 C 0.27814 0.36496 0.45877 0.0
C2451 C 0.22881 0.31778 0.51636 0.0
C2452 C 0.22436 0.32563 0.51808 0.0
C2453 C 0.236 0.31875 0.50185 0.0
C2454 C 0.23892 0.32761 0.48882 0.0
C2455 C 0.23438 0.33534 0.49034 0.0
C2456 C 0.22711 0.33432 0.50474 0.0
C2457 C 0.24701 0.32913 0.47383 0.0
C2458 C 0.25809 0.34016 0.47223 0.0
C2459 C 0.24393 0.31989 0.46126 0.0
C2460 C 0.23229 0.30808 0.46219 0.0
C2461 C 0.22099 0.30746 0.4621 0.0
C2462 C 0.21007 0.29629 0.46308 0.0
C2463 C 0.21034 0.28568 0.46401 0.0
C2464 C 0.22153 0.28621 0.46392 0.0
C2465 C 0.23247 0.29735 0.46296 0.0
H2466 H 0.20188 0.27704 0.46476 0.0
H2467 H 0.30881 0.38462 0.45559 0.0
H2468 H 0.68725 0.9413 0.39163 0.0
H2469 H 0.67955 0.92718 0.41633 0.0
H2470 H 0.64779 0.9305 0.41909 0.0
H2471 H 0.65553 0.94486 0.39413 0.0
H2472 H 0.65827 0.93212 0.4521 0.0
H2473 H 0.64417 0.90486 0.40357 0.0
H2474 H 0.64522 0.89646 0.37479 0.0
H2475 H 0.67295 0.89046 0.39599 0.0
H2476 H 0.6722 0.899 0.42484 0.0
H2477 H 0.63888 0.88671 0.51994 0.0
H2478 H 0.63829 0.89643 0.49213 0.0
H2479 H 0.67228 0.89994 0.47633 0.0
H2480 H 0.67281 0.89009 0.5039 0.0
H2481 H 0.65566 0.89267 0.44864 0.0
H2482 H 0.67197 0.92328 0.49506 0.0
H2483 H 0.67111 0.93195 0.52373 0.0
H2484 H 0.6388 0.93146 0.50606 0.0
H2485 H 0.63938 0.92262 0.47736 0.0
C2486 C 0.6786 0.93904 0.39737 0.0
C2487 C 0.67201 0.94423 0.39086 0.0
C2488 C 0.67416 0.93088 0.41146 0.0
C2489 C 0.66301 0.92765 0.41939 0.0
C2490 C 0.65639 0.93282 0.41306 0.0
C2491 C 0.66081 0.941 0.3988 0.0
C2492 C 0.65874 0.91922 0.43474 0.0
C2493 C 0.65738 0.92335 0.45126 0.0
C2494 C 0.6577 0.90784 0.43369 0.0
C2495 C 0.65817 0.90263 0.41637 0.0
C2496 C 0.65055 0.90183 0.40207 0.0
C2497 C 0.65109 0.89703 0.38574 0.0
C2498 C 0.65916 0.89294 0.38355 0.0
C2499 C 0.6667 0.89362 0.3977 0.0
C2500 C 0.66621 0.89843 0.41406 0.0
C2501 C 0.64612 0.8894 0.5104 0.0
C2502 C 0.65593 0.8877 0.51413 0.0
C2503 C 0.64581 0.89501 0.49459 0.0
C2504 C 0.6553 0.899 0.48224 0.0
C2505 C 0.66487 0.89695 0.48568 0.0
C2506 C 0.66522 0.89141 0.50149 0.0
C2507 C 0.65563 0.90576 0.46603 0.0
C2508 C 0.65625 0.9013 0.44937 0.0
C2509 C 0.65595 0.91681 0.46696 0.0
C2510 C 0.65563 0.92215 0.48417 0.0
C2511 C 0.66462 0.92493 0.49736 0.0
C2512 C 0.6642 0.92989 0.5136 0.0
C2513 C 0.65488 0.93222 0.51674 0.0
C2514 C 0.64599 0.92962 0.50362 0.0
C2515 C 0.64637 0.92464 0.48737 0.0
H2516 H 0.65457 0.93606 0.52932 0.0
H2517 H 0.65956 0.88922 0.3709 0.0
H2518 H 0.05667 0.71202 0.38574 0.0
H2519 H 0.07241 0.71914 0.40925 0.0
H2520 H 0.06151 0.74347 0.42805 0.0
H2521 H 0.04603 0.73662 0.40458 0.0
H2522 H 0.0855 0.75494 0.4248 0.0
H2523 H 0.05435 0.71719 0.45043 0.0
H2524 H 0.04012 0.69515 0.45108 0.0
H2525 H 0.07026 0.68967 0.44607 0.0
H2526 H 0.08466 0.71168 0.44517 0.0
H2527 H 0.1103 0.77136 0.51133 0.0
H2528 H 0.097 0.76295 0.48522 0.0
H2529 H 0.11427 0.74303 0.47204 0.0
H2530 H 0.12785 0.75161 0.49807 0.0
H2531 H 0.0891 0.72897 0.47019 0.0
H2532 H 0.1204 0.76696 0.44755 0.0
H2533 H 0.13445 0.78902 0.44747 0.0
H2534 H 0.10387 0.79409 0.44711 0.0
H2535 H 0.08962 0.77205 0.44744 0.0
C2536 C 0.05756 0.7188 0.39501 0.0
C2537 C 0.05013 0.72379 0.39322 0.0
C2538 C 0.06655 0.72285 0.40845 0.0
C2539 C 0.06815 0.73185 0.42042 0.0
C2540 C 0.06052 0.73659 0.4189 0.0
C2541 C 0.05163 0.73262 0.40547 0.0
C2542 C 0.07799 0.73673 0.43425 0.0
C2543 C 0.08622 0.74926 0.4348 0.0
C2544 C 0.0792 0.7293 0.44695 0.0
C2545 C 0.07056 0.71607 0.44751 0.0
C2546 C 0.05793 0.71128 0.44931 0.0
C2547 C 0.04984 0.6988 0.44976 0.0
C2548 C 0.05428 0.69101 0.44856 0.0
C2549 C 0.06683 0.6957 0.44696 0.0
C2550 C 0.07496 0.70818 0.4465 0.0
C2551 C 0.11148 0.76539 0.50272 0.0
C2552 C 0.12023 0.76224 0.50676 0.0
C2553 C 0.1038 0.76053 0.48783 0.0
C2554 C 0.10471 0.75244 0.4766 0.0
C2555 C 0.11341 0.74925 0.48055 0.0
C2556 C 0.12114 0.75415 0.49544 0.0
C2557 C 0.09635 0.74718 0.461 0.0
C2558 C 0.08846 0.73462 0.46006 0.0
C2559 C 0.0954 0.75457 0.44794 0.0
C2560 C 0.10394 0.76784 0.44765 0.0
C2561 C 0.11667 0.77278 0.44758 0.0
C2562 C 0.12467 0.78528 0.44747 0.0
C2563 C 0.12005 0.79295 0.44732 0.0
C2564 C 0.10743 0.78814 0.44724 0.0
C2565 C 0.09938 0.77564 0.44736 0.0
H2566 H 0.12626 0.80263 0.44724 0.0
H2567 H 0.048 0.68135 0.44891 0.0
H2568 H 0.304 0.05657 0.71566 0.0
H2569 H 0.30669 0.0678 0.74295 0.0
H2570 H 0.33636 0.06306 0.75926 0.0
H2571 H 0.33377 0.05178 0.7318 0.0
H2572 H 0.31936 0.05826 0.78641 0.0
H2573 H 0.34329 0.08954 0.74445 0.0
H2574 H 0.34732 0.10056 0.71606 0.0
H2575 H 0.3186 0.10742 0.72665 0.0
H2576 H 0.31428 0.09628 0.75501 0.0
H2577 H 0.33792 0.0994 0.85841 0.0
H2578 H 0.3377 0.08913 0.83121 0.0
H2579 H 0.31116 0.09629 0.80773 0.0
H2580 H 0.31179 0.10714 0.83459 0.0
H2581 H 0.32792 0.10018 0.78416 0.0
H2582 H 0.30305 0.06822 0.82485 0.0
H2583 H 0.29824 0.05678 0.85297 0.0
H2584 H 0.32775 0.05073 0.84456 0.0
H2585 H 0.33284 0.06228 0.8165 0.0
C2586 C 0.31111 0.05788 0.72502 0.0
C2587 C 0.3187 0.05328 0.72152 0.0
C2588 C 0.31266 0.06436 0.74059 0.0
C2589 C 0.3218 0.06635 0.75303 0.0
C2590 C 0.32928 0.06164 0.74977 0.0
C2591 C 0.32781 0.05523 0.73407 0.0
C2592 C 0.32338 0.0733 0.76947 0.0
C2593 C 0.32145 0.0675 0.78598 0.0
C2594 C 0.32578 0.08523 0.76881 0.0
C2595 C 0.32839 0.09198 0.75179 0.0
C2596 C 0.33777 0.09331 0.74067 0.0
C2597 C 0.34012 0.09959 0.72459 0.0
C2598 C 0.3332 0.10466 0.71953 0.0
C2599 C 0.32394 0.10348 0.73058 0.0
C2600 C 0.32155 0.09719 0.74666 0.0
C2601 C 0.33216 0.09896 0.84738 0.0
C2602 C 0.32487 0.10412 0.84872 0.0
C2603 C 0.33193 0.09293 0.8319 0.0
C2604 C 0.32428 0.09177 0.8175 0.0
C2605 C 0.3171 0.09703 0.81869 0.0
C2606 C 0.31738 0.10313 0.83414 0.0
C2607 C 0.32378 0.08512 0.80118 0.0
C2608 C 0.32591 0.09097 0.78466 0.0
C2609 C 0.32146 0.07319 0.80183 0.0
C2610 C 0.31841 0.06622 0.81868 0.0
C2611 C 0.30857 0.06453 0.82907 0.0
C2612 C 0.30579 0.05801 0.84498 0.0
C2613 C 0.31271 0.05306 0.85057 0.0
C2614 C 0.32241 0.05459 0.84023 0.0
C2615 C 0.32524 0.06111 0.82432 0.0
H2616 H 0.31054 0.04801 0.86289 0.0
H2617 H 0.33504 0.10952 0.70708 0.0
H2618 H 0.9586 0.29316 0.73893 0.0
H2619 H 0.94767 0.28346 0.76638 0.0
H2620 H 0.93422 0.24849 0.74276 0.0
H2621 H 0.94541 0.25806 0.71566 0.0
H2622 H 0.92474 0.26953 0.77407 0.0
H2623 H 0.93081 0.2281 0.77298 0.0
H2624 H 0.94603 0.22313 0.76333 0.0
H2625 H 0.97454 0.26033 0.76836 0.0
H2626 H 0.95953 0.26549 0.77826 0.0
H2627 H 0.88158 0.22416 0.83121 0.0
H2628 H 0.8943 0.23562 0.80592 0.0
H2629 H 0.92653 0.24212 0.83495 0.0
H2630 H 0.91379 0.23037 0.85997 0.0
H2631 H 0.92835 0.237 0.80293 0.0
H2632 H 0.91877 0.26429 0.82932 0.0
H2633 H 0.90557 0.27112 0.84146 0.0
H2634 H 0.88781 0.26564 0.79049 0.0
H2635 H 0.90079 0.25862 0.7781 0.0
C2636 C 0.95336 0.2834 0.73964 0.0
C2637 C 0.95297 0.27639 0.72516 0.0
C2638 C 0.94709 0.27787 0.75531 0.0
C2639 C 0.94026 0.26524 0.75676 0.0
C2640 C 0.93966 0.25824 0.74216 0.0
C2641 C 0.94604 0.26375 0.72662 0.0
C2642 C 0.93364 0.2593 0.77341 0.0
C2643 C 0.92555 0.26244 0.78041 0.0
C2644 C 0.93489 0.25024 0.78197 0.0
C2645 C 0.94402 0.24719 0.77621 0.0
C2646 C 0.94034 0.23521 0.7721 0.0
C2647 C 0.94893 0.23236 0.76657 0.0
C2648 C 0.96124 0.24142 0.76518 0.0
C2649 C 0.965 0.25333 0.76938 0.0
C2650 C 0.95645 0.25623 0.77493 0.0
C2651 C 0.89138 0.22806 0.83216 0.0
C2652 C 0.8967 0.22636 0.84752 0.0
C2653 C 0.89866 0.23465 0.81775 0.0
C2654 C 0.91142 0.23991 0.81859 0.0
C2655 C 0.91672 0.23815 0.83393 0.0
C2656 C 0.90943 0.23142 0.84821 0.0
C2657 C 0.91925 0.24705 0.80341 0.0
C2658 C 0.92756 0.24412 0.79665 0.0
C2659 C 0.91848 0.25657 0.79545 0.0
C2660 C 0.91068 0.26082 0.80283 0.0
C2661 C 0.91199 0.26446 0.82073 0.0
C2662 C 0.90456 0.26838 0.82766 0.0
C2663 C 0.89584 0.26879 0.81677 0.0
C2664 C 0.89456 0.26531 0.79892 0.0
C2665 C 0.90196 0.26137 0.79193 0.0
H2666 H 0.8901 0.27183 0.82215 0.0
H2667 H 0.96787 0.23919 0.76089 0.0
H2668 H 0.72831 0.65639 0.72994 0.0
H2669 H 0.74198 0.66376 0.7556 0.0
H2670 H 0.74144 0.6967 0.75483 0.0
H2671 H 0.72775 0.68941 0.72857 0.0
H2672 H 0.76452 0.70102 0.76125 0.0
H2673 H 0.72524 0.67578 0.78587 0.0
H2674 H 0.7047 0.65765 0.7889 0.0
H2675 H 0.72067 0.63622 0.79981 0.0
H2676 H 0.74132 0.65418 0.7966 0.0
H2677 H 0.79189 0.71184 0.85022 0.0
H2678 H 0.77884 0.7095 0.82451 0.0
H2679 H 0.77619 0.67595 0.81123 0.0
H2680 H 0.78949 0.67837 0.83649 0.0
H2681 H 0.75352 0.67429 0.81406 0.0
H2682 H 0.79288 0.69991 0.78633 0.0
H2683 H 0.8132 0.71839 0.78361 0.0
H2684 H 0.79649 0.7397 0.77973 0.0
H2685 H 0.77607 0.72135 0.78267 0.0
C2686 C 0.73103 0.66521 0.73516 0.0
C2687 C 0.72681 0.67226 0.72726 0.0
C2688 C 0.73885 0.6694 0.74992 0.0
C2689 C 0.74255 0.68068 0.75737 0.0
C2690 C 0.73862 0.68793 0.74935 0.0
C2691 C 0.73078 0.68374 0.7344 0.0
C2692 C 0.75048 0.68465 0.77356 0.0
C2693 C 0.76202 0.69531 0.77296 0.0
C2694 C 0.74725 0.67718 0.78882 0.0
C2695 C 0.73484 0.66633 0.79089 0.0
C2696 C 0.72438 0.66719 0.78881 0.0
C2697 C 0.71271 0.65694 0.79057 0.0
C2698 C 0.71138 0.64579 0.79452 0.0
C2699 C 0.72172 0.64486 0.79675 0.0
C2700 C 0.73341 0.65508 0.79499 0.0
C2701 C 0.78877 0.7041 0.8416 0.0
C2702 C 0.79168 0.69524 0.84553 0.0
C2703 C 0.78126 0.70276 0.82696 0.0
C2704 C 0.77651 0.69253 0.81604 0.0
C2705 C 0.77969 0.68387 0.8196 0.0
C2706 C 0.78725 0.68524 0.8341 0.0
C2707 C 0.76768 0.69039 0.80146 0.0
C2708 C 0.75594 0.68008 0.80245 0.0
C2709 C 0.77069 0.69826 0.78673 0.0
C2710 C 0.78296 0.70928 0.78494 0.0
C2711 C 0.79354 0.70855 0.78507 0.0
C2712 C 0.80508 0.719 0.78345 0.0
C2713 C 0.80614 0.73022 0.78156 0.0
C2714 C 0.79566 0.73101 0.78123 0.0
C2715 C 0.7841 0.72059 0.78286 0.0
H2716 H 0.81508 0.7383 0.7803 0.0
H2717 H 0.70234 0.63786 0.79588 0.0
H2718 H 0.72841 0.65184 0.64246 0.0
H2719 H 0.73785 0.65375 0.61363 0.0
H2720 H 0.7219 0.67371 0.59325 0.0
H2721 H 0.71261 0.67212 0.62241 0.0
H2722 H 0.71839 0.6518 0.57233 0.0
H2723 H 0.74891 0.68973 0.59787 0.0
H2724 H 0.76305 0.70288 0.6215 0.0
H2725 H 0.7821 0.68375 0.61998 0.0
H2726 H 0.76795 0.67035 0.59652 0.0
H2727 H 0.74892 0.66065 0.49037 0.0
H2728 H 0.74038 0.664 0.51714 0.0
H2729 H 0.76404 0.65703 0.54989 0.0
H2730 H 0.77296 0.65422 0.52307 0.0
H2731 H 0.7633 0.67466 0.56361 0.0
H2732 H 0.73252 0.63552 0.54188 0.0
H2733 H 0.71816 0.6208 0.51983 0.0
H2734 H 0.69933 0.64012 0.5158 0.0
H2735 H 0.7137 0.65505 0.53768 0.0
C2736 C 0.72694 0.65669 0.63189 0.0
C2737 C 0.71974 0.66181 0.63465 0.0
C2738 C 0.73237 0.6578 0.61546 0.0
C2739 C 0.73057 0.66388 0.60141 0.0
C2740 C 0.72339 0.66901 0.60403 0.0
C2741 C 0.71814 0.66812 0.62064 0.0
C2742 C 0.73594 0.66442 0.58389 0.0
C2743 C 0.72819 0.657 0.57019 0.0
C2744 C 0.74873 0.6709 0.58148 0.0
C2745 C 0.7573 0.67897 0.59554 0.0
C2746 C 0.75604 0.68825 0.60269 0.0
C2747 C 0.76408 0.69577 0.61603 0.0
C2748 C 0.77345 0.69413 0.62227 0.0
C2749 C 0.77483 0.685 0.61514 0.0
C2750 C 0.76681 0.67745 0.60181 0.0
C2751 C 0.75227 0.65984 0.50331 0.0
C2752 C 0.76151 0.6571 0.50473 0.0
C2753 C 0.74737 0.66172 0.5186 0.0
C2754 C 0.7514 0.66056 0.53558 0.0
C2755 C 0.76078 0.65798 0.53696 0.0
C2756 C 0.76584 0.65634 0.52166 0.0
C2757 C 0.74577 0.66186 0.55195 0.0
C2758 C 0.75348 0.66959 0.56551 0.0
C2759 C 0.73293 0.65546 0.55437 0.0
C2760 C 0.72427 0.64648 0.54125 0.0
C2761 C 0.72538 0.63668 0.53619 0.0
C2762 C 0.71723 0.62829 0.52374 0.0
C2763 C 0.70786 0.62954 0.51638 0.0
C2764 C 0.70661 0.63917 0.52149 0.0
C2765 C 0.71474 0.6476 0.53392 0.0
H2766 H 0.70156 0.62304 0.50674 0.0
H2767 H 0.77966 0.69996 0.63259 0.0
H2768 H 0.30976 0.04648 0.61527 0.0
H2769 H 0.31658 0.05997 0.58967 0.0
H2770 H 0.35287 0.08036 0.61277 0.0
H2771 H 0.34616 0.06643 0.63813 0.0
H2772 H 0.32337 0.08195 0.58787 0.0
H2773 H 0.37393 0.09563 0.58035 0.0
H2774 H 0.38697 0.08701 0.58514 0.0
H2775 H 0.35573 0.05129 0.57833 0.0
H2776 H 0.34254 0.05971 0.57329 0.0
H2777 H 0.34933 0.13049 0.52727 0.0
H2778 H 0.34663 0.11833 0.55387 0.0
H2779 H 0.34947 0.09249 0.52167 0.0
H2780 H 0.35263 0.10485 0.49528 0.0
H2781 H 0.36022 0.09436 0.55177 0.0
H2782 H 0.32126 0.08857 0.53435 0.0
H2783 H 0.30659 0.09488 0.5268 0.0
H2784 H 0.31158 0.1104 0.57884 0.0
H2785 H 0.32641 0.10432 0.58662 0.0
C2786 C 0.31925 0.05374 0.61478 0.0
C2787 C 0.32743 0.05541 0.6287 0.0
C2788 C 0.32313 0.06149 0.60017 0.0
C2789 C 0.33525 0.07124 0.59922 0.0
C2790 C 0.34353 0.07282 0.61299 0.0
C2791 C 0.33968 0.06487 0.62751 0.0
C2792 C 0.3389 0.07995 0.58418 0.0
C2793 C 0.33145 0.08465 0.58002 0.0
C2794 C 0.34938 0.08346 0.57377 0.0
C2795 C 0.35724 0.0783 0.57666 0.0
C2796 C 0.36985 0.08594 0.57983 0.0
C2797 C 0.37727 0.08109 0.5826 0.0
C2798 C 0.37217 0.06861 0.58211 0.0
C2799 C 0.35966 0.06095 0.57879 0.0
C2800 C 0.35221 0.06576 0.576 0.0
C2801 C 0.34947 0.12226 0.52596 0.0
C2802 C 0.35114 0.11858 0.50924 0.0
C2803 C 0.3479 0.1153 0.54113 0.0
C2804 C 0.34764 0.10436 0.53977 0.0
C2805 C 0.34967 0.10088 0.52312 0.0
C2806 C 0.35145 0.10794 0.50803 0.0
C2807 C 0.34459 0.09619 0.55538 0.0
C2808 C 0.35219 0.09168 0.55971 0.0
C2809 C 0.33399 0.09249 0.56559 0.0
C2810 C 0.32504 0.0961 0.56099 0.0
C2811 C 0.31929 0.0934 0.54414 0.0
C2812 C 0.31094 0.09692 0.53983 0.0
C2813 C 0.30818 0.10306 0.55232 0.0
C2814 C 0.31374 0.10566 0.56917 0.0
C2815 C 0.32211 0.10217 0.57354 0.0
H2816 H 0.30171 0.10579 0.54896 0.0
H2817 H 0.37793 0.06487 0.58426 0.0
H2818 H 0.95761 0.2827 0.61732 0.0
H2819 H 0.94335 0.27906 0.59274 0.0
H2820 H 0.92591 0.29346 0.62412 0.0
H2821 H 0.94051 0.29755 0.64871 0.0
H2822 H 0.91107 0.26692 0.60713 0.0
H2823 H 0.93661 0.30931 0.59479 0.0
H2824 H 0.95633 0.32822 0.59031 0.0
H2825 H 0.9639 0.31243 0.54605 0.0
H2826 H 0.94431 0.29336 0.55045 0.0
H2827 H 0.87095 0.25052 0.5323 0.0
H2828 H 0.88331 0.26208 0.55801 0.0
H2829 H 0.91595 0.2688 0.5314 0.0
H2830 H 0.90386 0.25818 0.50524 0.0
H2831 H 0.92134 0.2877 0.54863 0.0
H2832 H 0.89961 0.24521 0.56345 0.0
H2833 H 0.88137 0.22499 0.56786 0.0
H2834 H 0.86813 0.23929 0.60701 0.0
H2835 H 0.88624 0.25963 0.60266 0.0
C2836 C 0.95087 0.28528 0.61888 0.0
C2837 C 0.95013 0.29039 0.63488 0.0
C2838 C 0.94276 0.28322 0.60485 0.0
C2839 C 0.93363 0.28601 0.60668 0.0
C2840 C 0.93297 0.29132 0.6225 0.0
C2841 C 0.94131 0.29368 0.63645 0.0
C2842 C 0.92432 0.28243 0.5924 0.0
C2843 C 0.91311 0.27161 0.59446 0.0
C2844 C 0.92726 0.28839 0.5758 0.0
C2845 C 0.93902 0.29987 0.57305 0.0
C2846 C 0.94253 0.30983 0.58421 0.0
C2847 C 0.95367 0.32059 0.58166 0.0
C2848 C 0.96138 0.32152 0.56793 0.0
C2849 C 0.95793 0.3117 0.55669 0.0
C2850 C 0.9468 0.30092 0.55919 0.0
C2851 C 0.88078 0.25466 0.53176 0.0
C2852 C 0.88635 0.2532 0.51673 0.0
C2853 C 0.88783 0.26117 0.54659 0.0
C2854 C 0.90056 0.26612 0.54686 0.0
C2855 C 0.90615 0.26504 0.53163 0.0
C2856 C 0.89917 0.25875 0.51673 0.0
C2857 C 0.9081 0.27193 0.56312 0.0
C2858 C 0.91905 0.28314 0.56141 0.0
C2859 C 0.90506 0.26615 0.57996 0.0
C2860 C 0.89418 0.25395 0.58256 0.0
C2861 C 0.89276 0.24405 0.5729 0.0
C2862 C 0.88245 0.23257 0.5754 0.0
C2863 C 0.87357 0.23086 0.58766 0.0
C2864 C 0.875 0.24063 0.59748 0.0
C2865 C 0.88528 0.25213 0.59501 0.0
H2866 H 0.8656 0.22197 0.58958 0.0
H2867 H 0.97 0.32986 0.56598 0.0
H2868 H 0.36888 0.29063 0.63041 0.0
H2869 H 0.36682 0.2811 0.60174 0.0
H2870 H 0.33014 0.27417 0.5958 0.0
H2871 H 0.33208 0.28365 0.62481 0.0
H2872 H 0.33127 0.25421 0.58891 0.0
H2873 H 0.35265 0.29519 0.57004 0.0
H2874 H 0.3687 0.31676 0.57083 0.0
H2875 H 0.39617 0.30778 0.56254 0.0
H2876 H 0.38029 0.28614 0.56195 0.0
H2877 H 0.32746 0.23275 0.50018 0.0
H2878 H 0.32748 0.2441 0.52602 0.0
H2879 H 0.36444 0.25378 0.53893 0.0
H2880 H 0.36445 0.24234 0.5132 0.0
H2881 H 0.36166 0.27311 0.54065 0.0
H2882 H 0.3405 0.2322 0.56237 0.0
H2883 H 0.32453 0.21059 0.56195 0.0
H2884 H 0.29669 0.21955 0.56502 0.0
H2885 H 0.3125 0.24123 0.56521 0.0
C2886 C 0.36039 0.2872 0.62298 0.0
C2887 C 0.35063 0.28789 0.62994 0.0
C2888 C 0.35926 0.2818 0.60651 0.0
C2889 C 0.34837 0.27702 0.59654 0.0
C2890 C 0.33864 0.27784 0.60327 0.0
C2891 C 0.33978 0.2833 0.61979 0.0
C2892 C 0.34705 0.27059 0.57962 0.0
C2893 C 0.33775 0.25842 0.57818 0.0
C2894 C 0.35568 0.27601 0.5658 0.0
C2895 C 0.36527 0.28903 0.56608 0.0
C2896 C 0.36212 0.29781 0.56852 0.0
C2897 C 0.37119 0.31005 0.56891 0.0
C2898 C 0.38345 0.31363 0.56677 0.0
C2899 C 0.38666 0.30499 0.5642 0.0
C2900 C 0.37763 0.29273 0.56381 0.0
C2901 C 0.33554 0.23714 0.50866 0.0
C2902 C 0.34594 0.23658 0.50467 0.0
C2903 C 0.33555 0.24368 0.52338 0.0
C2904 C 0.34593 0.24973 0.53446 0.0
C2905 C 0.35634 0.24921 0.53051 0.0
C2906 C 0.35634 0.24268 0.51579 0.0
C2907 C 0.34602 0.25669 0.55011 0.0
C2908 C 0.35509 0.26896 0.55129 0.0
C2909 C 0.33719 0.25136 0.56369 0.0
C2910 C 0.32767 0.23833 0.5636 0.0
C2911 C 0.33097 0.22956 0.5628 0.0
C2912 C 0.32194 0.2173 0.56263 0.0
C2913 C 0.3096 0.2137 0.5634 0.0
C2914 C 0.30626 0.22236 0.56439 0.0
C2915 C 0.31524 0.23463 0.56454 0.0
H2916 H 0.30263 0.20421 0.56327 0.0
H2917 H 0.39046 0.32311 0.56708 0.0
H2918 H 0.70675 0.07152 0.62292 0.0
H2919 H 0.71942 0.07959 0.59643 0.0
H2920 H 0.73417 0.05682 0.60633 0.0
H2921 H 0.72127 0.04846 0.63274 0.0
H2922 H 0.75193 0.0827 0.60197 0.0
H2923 H 0.71724 0.04983 0.57261 0.0
H2924 H 0.69538 0.03683 0.56477 0.0
H2925 H 0.69525 0.06721 0.54206 0.0
H2926 H 0.71706 0.08044 0.55 0.0
H2927 H 0.78808 0.10421 0.52403 0.0
H2928 H 0.77435 0.09127 0.54734 0.0
H2929 H 0.74954 0.10347 0.53469 0.0
H2930 H 0.76272 0.11569 0.51051 0.0
H2931 H 0.73691 0.08066 0.54008 0.0
H2932 H 0.76998 0.11394 0.57189 0.0
H2933 H 0.79146 0.12798 0.5808 0.0
H2934 H 0.79432 0.0983 0.60005 0.0
H2935 H 0.77289 0.08406 0.59104 0.0
C2936 C 0.71255 0.06808 0.61931 0.0
C2937 C 0.71304 0.05937 0.6299 0.0
C2938 C 0.71975 0.07269 0.60417 0.0
C2939 C 0.72771 0.06879 0.59947 0.0
C2940 C 0.72805 0.05991 0.60977 0.0
C2941 C 0.72065 0.05511 0.62476 0.0
C2942 C 0.7362 0.07465 0.58448 0.0
C2943 C 0.74872 0.08208 0.58834 0.0
C2944 C 0.73189 0.07409 0.56688 0.0
C2945 C 0.71877 0.06615 0.56204 0.0
C2946 C 0.71252 0.05377 0.56608 0.0
C2947 C 0.70015 0.04635 0.56159 0.0
C2948 C 0.69392 0.0512 0.55295 0.0
C2949 C 0.70008 0.06347 0.54876 0.0
C2950 C 0.71245 0.07093 0.55323 0.0
C2951 C 0.77965 0.10405 0.52604 0.0
C2952 C 0.77659 0.11109 0.51536 0.0
C2953 C 0.77186 0.09674 0.53956 0.0
C2954 C 0.76097 0.0965 0.54299 0.0
C2955 C 0.7579 0.1035 0.53236 0.0
C2956 C 0.76557 0.11066 0.51867 0.0
C2957 C 0.75271 0.08894 0.55755 0.0
C2958 C 0.74021 0.0812 0.55363 0.0
C2959 C 0.75701 0.08939 0.57519 0.0
C2960 C 0.76989 0.09793 0.5806 0.0
C2961 C 0.77522 0.1104 0.5779 0.0
C2962 C 0.78738 0.1184 0.58299 0.0
C2963 C 0.79426 0.11403 0.59093 0.0
C2964 C 0.78899 0.10167 0.59385 0.0
C2965 C 0.77684 0.09363 0.58877 0.0
H2966 H 0.80367 0.12024 0.59487 0.0
H2967 H 0.68434 0.04544 0.54948 0.0
H2968 H 0.93316 0.67935 0.63868 0.0
H2969 H 0.918 0.67062 0.61468 0.0
H2970 H 0.92761 0.6438 0.60575 0.0
H2971 H 0.94281 0.65243 0.63014 0.0
H2972 H 0.92698 0.65666 0.57433 0.0
H2973 H 0.90168 0.63422 0.62333 0.0
H2974 H 0.89311 0.63152 0.65339 0.0
H2975 H 0.8781 0.65336 0.63913 0.0
H2976 H 0.88674 0.65634 0.60906 0.0
H2977 H 0.88055 0.62913 0.50849 0.0
H2978 H 0.89307 0.63191 0.5348 0.0
H2979 H 0.88174 0.65481 0.55799 0.0
H2980 H 0.86848 0.65141 0.53222 0.0
H2981 H 0.88289 0.64136 0.58284 0.0
H2982 H 0.90982 0.66611 0.53618 0.0
H2983 H 0.91907 0.67038 0.5064 0.0
H2984 H 0.93172 0.64602 0.51641 0.0
H2985 H 0.92239 0.64149 0.54618 0.0
C2986 C 0.93204 0.67155 0.6317 0.0
C2987 C 0.93921 0.66659 0.63628 0.0
C2988 C 0.92332 0.66654 0.61804 0.0
C2989 C 0.92165 0.65654 0.60853 0.0
C2990 C 0.92876 0.65151 0.61301 0.0
C2991 C 0.93739 0.65642 0.62694 0.0
C2992 C 0.91278 0.65177 0.59346 0.0
C2993 C 0.91728 0.65305 0.57617 0.0
C2994 C 0.90022 0.64742 0.59592 0.0
C2995 C 0.89494 0.64558 0.61396 0.0
C2996 C 0.89663 0.63853 0.62664 0.0
C2997 C 0.89175 0.63693 0.64368 0.0
C2998 C 0.88508 0.64228 0.64818 0.0
C2999 C 0.88327 0.64922 0.63563 0.0
C3000 C 0.88814 0.65086 0.61858 0.0
C3001 C 0.88046 0.63455 0.51932 0.0
C3002 C 0.87348 0.64008 0.51811 0.0
C3003 C 0.8878 0.63627 0.53429 0.0
C3004 C 0.88856 0.64377 0.54826 0.0
C3005 C 0.88137 0.64904 0.54735 0.0
C3006 C 0.87389 0.64719 0.53248 0.0
C3007 C 0.89709 0.64641 0.56358 0.0
C3008 C 0.89254 0.64478 0.58095 0.0
C3009 C 0.90966 0.65062 0.56119 0.0
C3010 C 0.91529 0.65335 0.54332 0.0
C3011 C 0.91449 0.66159 0.53197 0.0
C3012 C 0.91976 0.66407 0.51511 0.0
C3013 C 0.92594 0.65844 0.5095 0.0
C3014 C 0.9269 0.65035 0.52076 0.0
C3015 C 0.92163 0.64783 0.53764 0.0
H3016 H 0.93002 0.66038 0.49643 0.0
H3017 H 0.88131 0.64104 0.66138 0.0
H3018 H 0.94647 0.66328 0.73116 0.0
H3019 H 0.93714 0.6622 0.76 0.0
H3020 H 0.94883 0.69984 0.75577 0.0
H3021 H 0.95812 0.70101 0.72713 0.0
H3022 H 0.95276 0.69375 0.78934 0.0
H3023 H 0.92013 0.67874 0.74501 0.0
H3024 H 0.90711 0.66505 0.72095 0.0
H3025 H 0.89518 0.63462 0.75571 0.0
H3026 H 0.90827 0.64813 0.77992 0.0
H3027 H 0.91601 0.70346 0.84661 0.0
H3028 H 0.92577 0.70128 0.82038 0.0
H3029 H 0.90863 0.66314 0.83064 0.0
H3030 H 0.89876 0.66526 0.85692 0.0
H3031 H 0.90782 0.66726 0.7958 0.0
H3032 H 0.93864 0.6822 0.84112 0.0
H3033 H 0.95161 0.69568 0.86538 0.0
H3034 H 0.96717 0.72576 0.82938 0.0
H3035 H 0.95415 0.7125 0.80494 0.0
C3036 C 0.94715 0.67134 0.73647 0.0
C3037 C 0.95297 0.68221 0.72681 0.0
C3038 C 0.94178 0.67069 0.7529 0.0
C3039 C 0.94222 0.68092 0.75993 0.0
C3040 C 0.94838 0.69184 0.75058 0.0
C3041 C 0.95364 0.69248 0.73417 0.0
C3042 C 0.93596 0.68029 0.77672 0.0
C3043 C 0.94292 0.68801 0.79074 0.0
C3044 C 0.92319 0.67253 0.77872 0.0
C3045 C 0.91529 0.66442 0.7642 0.0
C3046 C 0.91481 0.66912 0.74747 0.0
C3047 C 0.9074 0.66139 0.73382 0.0
C3048 C 0.90036 0.64897 0.73678 0.0
C3049 C 0.90067 0.64424 0.75343 0.0
C3050 C 0.90807 0.65193 0.76712 0.0
C3051 C 0.91434 0.69461 0.84331 0.0
C3052 C 0.90669 0.68455 0.8539 0.0
C3053 C 0.91993 0.69337 0.82832 0.0
C3054 C 0.91812 0.68208 0.82374 0.0
C3055 C 0.91019 0.67194 0.83397 0.0
C3056 C 0.90453 0.67316 0.84894 0.0
C3057 C 0.92458 0.68095 0.8083 0.0
C3058 C 0.91767 0.6729 0.79454 0.0
C3059 C 0.93743 0.68835 0.80658 0.0
C3060 C 0.94534 0.69636 0.82122 0.0
C3061 C 0.94476 0.69171 0.8384 0.0
C3062 C 0.95213 0.69931 0.85218 0.0
C3063 C 0.96019 0.71157 0.84893 0.0
C3064 C 0.96091 0.71626 0.83188 0.0
C3065 C 0.95355 0.7087 0.81805 0.0
H3066 H 0.96589 0.71744 0.85963 0.0
H3067 H 0.89463 0.643 0.72619 0.0
H3068 H 0.34455 0.26529 0.71519 0.0
H3069 H 0.3366 0.25183 0.74073 0.0
H3070 H 0.31518 0.26732 0.75526 0.0
H3071 H 0.32308 0.28088 0.72935 0.0
H3072 H 0.33005 0.26725 0.78286 0.0
H3073 H 0.30018 0.23886 0.74281 0.0
H3074 H 0.29217 0.22728 0.71492 0.0
H3075 H 0.31352 0.21091 0.72413 0.0
H3076 H 0.32181 0.22252 0.75195 0.0
H3077 H 0.31695 0.22944 0.85829 0.0
H3078 H 0.31272 0.23779 0.83182 0.0
H3079 H 0.33174 0.22551 0.7995 0.0
H3080 H 0.33542 0.21658 0.8257 0.0
H3081 H 0.31258 0.22302 0.78172 0.0
H3082 H 0.34588 0.25478 0.81678 0.0
H3083 H 0.35516 0.26693 0.84393 0.0
H3084 H 0.32839 0.27741 0.84323 0.0
H3085 H 0.31885 0.26518 0.81618 0.0
C3086 C 0.338 0.26573 0.72364 0.0
C3087 C 0.33449 0.27419 0.72034 0.0
C3088 C 0.33339 0.25796 0.73817 0.0
C3089 C 0.32523 0.25851 0.74982 0.0
C3090 C 0.32141 0.26671 0.74634 0.0
C3091 C 0.3259 0.27441 0.73155 0.0
C3092 C 0.32184 0.25132 0.76646 0.0
C3093 C 0.32589 0.25753 0.7827 0.0
C3094 C 0.31665 0.23868 0.76616 0.0
C3095 C 0.31166 0.23161 0.74946 0.0
C3096 C 0.30324 0.23285 0.73884 0.0
C3097 C 0.29863 0.22627 0.72305 0.0
C3098 C 0.30234 0.21838 0.71775 0.0
C3099 C 0.31065 0.21703 0.72826 0.0
C3100 C 0.31529 0.22359 0.74406 0.0
C3101 C 0.31997 0.22825 0.84549 0.0
C3102 C 0.32666 0.22245 0.84418 0.0
C3103 C 0.31764 0.23314 0.83038 0.0
C3104 C 0.3221 0.23248 0.81371 0.0
C3105 C 0.32825 0.22619 0.81223 0.0
C3106 C 0.33048 0.22121 0.82727 0.0
C3107 C 0.32121 0.23902 0.79799 0.0
C3108 C 0.31639 0.23269 0.78196 0.0
C3109 C 0.32582 0.25158 0.79841 0.0
C3110 C 0.33156 0.25895 0.81462 0.0
C3111 C 0.34192 0.2596 0.8225 0.0
C3112 C 0.34724 0.26651 0.83785 0.0
C3113 C 0.34234 0.2729 0.84533 0.0
C3114 C 0.33215 0.27243 0.83744 0.0
C3115 C 0.32679 0.26551 0.82211 0.0
H3116 H 0.34647 0.27825 0.85722 0.0
H3117 H 0.29877 0.21329 0.70552 0.0
H3118 H 0.72026 0.04161 0.72313 0.0
H3119 H 0.73511 0.04814 0.74784 0.0
H3120 H 0.73673 0.08215 0.74979 0.0
H3121 H 0.72212 0.07582 0.72519 0.0
H3122 H 0.75925 0.08544 0.75096 0.0
H3123 H 0.72046 0.05981 0.78011 0.0
H3124 H 0.70097 0.04076 0.78522 0.0
H3125 H 0.7205 0.02274 0.79658 0.0
H3126 H 0.74011 0.04167 0.79131 0.0
H3127 H 0.78127 0.11067 0.83544 0.0
H3128 H 0.76937 0.10132 0.80836 0.0
H3129 H 0.77347 0.07068 0.81656 0.0
H3130 H 0.7852 0.07991 0.84403 0.0
H3131 H 0.74992 0.06378 0.8087 0.0
H3132 H 0.78892 0.0903 0.78357 0.0
H3133 H 0.80832 0.10951 0.77893 0.0
H3134 H 0.78854 0.12593 0.76006 0.0
H3135 H 0.769 0.10687 0.76483 0.0
C3136 C 0.72376 0.05046 0.72887 0.0
C3137 C 0.71999 0.05819 0.72216 0.0
C3138 C 0.73223 0.05417 0.743 0.0
C3139 C 0.73701 0.06563 0.75067 0.0
C3140 C 0.73322 0.0733 0.74402 0.0
C3141 C 0.7248 0.06963 0.72997 0.0
C3142 C 0.74601 0.06982 0.76562 0.0
C3143 C 0.75719 0.08073 0.76362 0.0
C3144 C 0.7435 0.06347 0.78192 0.0
C3145 C 0.73173 0.05211 0.78509 0.0
C3146 C 0.72059 0.05176 0.78354 0.0
C3147 C 0.70953 0.04099 0.7865 0.0
C3148 C 0.7095 0.03053 0.79116 0.0
C3149 C 0.72054 0.03084 0.79293 0.0
C3150 C 0.73163 0.04159 0.78996 0.0
C3151 C 0.77966 0.10195 0.83148 0.0
C3152 C 0.78415 0.09601 0.84189 0.0
C3153 C 0.77295 0.09666 0.81591 0.0
C3154 C 0.77063 0.08535 0.81034 0.0
C3155 C 0.7752 0.07943 0.82059 0.0
C3156 C 0.78197 0.08475 0.83618 0.0
C3157 C 0.76299 0.07959 0.79421 0.0
C3158 C 0.75208 0.06839 0.79596 0.0
C3159 C 0.76574 0.08567 0.77765 0.0
C3160 C 0.77748 0.09716 0.77467 0.0
C3161 C 0.78869 0.09803 0.77855 0.0
C3162 C 0.79972 0.10889 0.77587 0.0
C3163 C 0.79966 0.11894 0.76923 0.0
C3164 C 0.78857 0.11814 0.76521 0.0
C3165 C 0.77752 0.1073 0.76787 0.0
H3166 H 0.8082 0.12734 0.76717 0.0
H3167 H 0.70092 0.0222 0.79345 0.0
H3168 H 0.03433 0.37717 0.03381 0.0
H3169 H 0.05175 0.37524 0.04216 0.0
H3170 H 0.03746 0.34348 0.00932 0.0
H3171 H 0.01995 0.3453 0.00095 0.0
H3172 H 0.04397 0.33992 0.04228 0.0
H3173 H 0.06236 0.36953 0.99632 0.0
H3174 H 0.06813 0.38843 0.98047 0.0
H3175 H 0.08873 0.40898 0.02623 0.0
H3176 H 0.08295 0.39019 0.04246 0.0
H3177 H 0.09601 0.33494 0.05715 0.0
H3178 H 0.08052 0.33738 0.04148 0.0
H3179 H 0.09251 0.37045 0.07017 0.0
H3180 H 0.10801 0.36812 0.08574 0.0
H3181 H 0.08735 0.37275 0.03646 0.0
H3182 H 0.0675 0.34353 0.08328 0.0
H3183 H 0.06158 0.32484 0.09987 0.0
H3184 H 0.0435 0.30381 0.05317 0.0
H3185 H 0.04947 0.32241 0.03624 0.0
C3186 C 0.03493 0.36983 0.02823 0.0
C3187 C 0.02573 0.36138 0.01672 0.0
C3188 C 0.04494 0.36877 0.03297 0.0
C3189 C 0.04596 0.35926 0.02626 0.0
C3190 C 0.03686 0.35089 0.01463 0.0
C3191 C 0.02688 0.35197 0.00982 0.0
C3192 C 0.05623 0.35776 0.03209 0.0
C3193 C 0.05346 0.34701 0.0407 0.0
C3194 C 0.06861 0.36712 0.03039 0.0
C3195 C 0.07213 0.37844 0.02066 0.0
C3196 C 0.06804 0.37808 0.00306 0.0
C3197 C 0.07133 0.38877 0.994 0.0
C3198 C 0.07877 0.3999 0.00235 0.0
C3199 C 0.08296 0.40035 0.01978 0.0
C3200 C 0.07969 0.38968 0.02891 0.0
C3201 C 0.09538 0.34277 0.06003 0.0
C3202 C 0.10322 0.35131 0.07274 0.0
C3203 C 0.08653 0.34415 0.05107 0.0
C3204 C 0.08523 0.35401 0.05483 0.0
C3205 C 0.09334 0.36278 0.06701 0.0
C3206 C 0.10224 0.36145 0.07588 0.0
C3207 C 0.07508 0.35496 0.0468 0.0
C3208 C 0.07786 0.36561 0.03784 0.0
C3209 C 0.0627 0.34554 0.04826 0.0
C3210 C 0.05905 0.33436 0.05845 0.0
C3211 C 0.06234 0.33492 0.07652 0.0
C3212 C 0.05897 0.32435 0.08599 0.0
C3213 C 0.0522 0.31315 0.07757 0.0
C3214 C 0.04876 0.3125 0.05967 0.0
C3215 C 0.05213 0.32305 0.05013 0.0
H3216 H 0.04959 0.30497 0.08492 0.0
H3217 H 0.08131 0.40817 0.99531 0.0
H3218 H 0.6689 0.68505 0.01552 0.0
H3219 H 0.67107 0.70403 0.02512 0.0
H3220 H 0.63469 0.68461 0.04657 0.0
H3221 H 0.63249 0.66547 0.03728 0.0
H3222 H 0.64162 0.70691 0.02507 0.0
H3223 H 0.6548 0.69265 0.0751 0.0
H3224 H 0.66675 0.68484 0.08947 0.0
H3225 H 0.70016 0.71659 0.07359 0.0
H3226 H 0.6884 0.72451 0.05888 0.0
H3227 H 0.64791 0.75623 0.07613 0.0
H3228 H 0.64314 0.73667 0.06474 0.0
H3229 H 0.6816 0.75049 0.05766 0.0
H3230 H 0.6865 0.76965 0.07032 0.0
H3231 H 0.67234 0.73005 0.07242 0.0
H3232 H 0.66037 0.74455 0.02195 0.0
H3233 H 0.64934 0.75273 0.00584 0.0
H3234 H 0.61498 0.72153 0.02012 0.0
H3235 H 0.62582 0.71323 0.03652 0.0
C3236 C 0.66131 0.68479 0.02215 0.0
C3237 C 0.65053 0.67374 0.02571 0.0
C3238 C 0.66258 0.69565 0.02764 0.0
C3239 C 0.65305 0.6957 0.03657 0.0
C3240 C 0.64212 0.68474 0.03965 0.0
C3241 C 0.64091 0.67383 0.03442 0.0
C3242 C 0.65481 0.70718 0.0434 0.0
C3243 C 0.6482 0.71193 0.0356 0.0
C3244 C 0.66363 0.71382 0.0568 0.0
C3245 C 0.67072 0.70911 0.06574 0.0
C3246 C 0.66469 0.69792 0.07454 0.0
C3247 C 0.67143 0.69348 0.08277 0.0
C3248 C 0.68421 0.7002 0.0824 0.0
C3249 C 0.69027 0.71139 0.07384 0.0
C3250 C 0.68357 0.71586 0.06557 0.0
C3251 C 0.65538 0.75512 0.07224 0.0
C3252 C 0.66762 0.76464 0.07422 0.0
C3253 C 0.65261 0.74394 0.06547 0.0
C3254 C 0.66199 0.74208 0.06016 0.0
C3255 C 0.67417 0.75165 0.06165 0.0
C3256 C 0.67695 0.76273 0.06868 0.0
C3257 C 0.65929 0.73004 0.05392 0.0
C3258 C 0.66572 0.72511 0.0619 0.0
C3259 C 0.65044 0.72337 0.04048 0.0
C3260 C 0.64391 0.72833 0.03063 0.0
C3261 C 0.65046 0.73948 0.02178 0.0
C3262 C 0.64425 0.74413 0.01257 0.0
C3263 C 0.63147 0.73767 0.012 0.0
C3264 C 0.62488 0.72653 0.0206 0.0
C3265 C 0.63106 0.72184 0.02984 0.0
H3266 H 0.62667 0.74128 0.00486 0.0
H3267 H 0.68941 0.69675 0.08878 0.0
H3268 H 0.33185 0.98894 0.01941 0.0
H3269 H 0.30975 0.97696 0.02468 0.0
H3270 H 0.31255 0.94597 0.03707 0.0
H3271 H 0.3344 0.95769 0.03156 0.0
H3272 H 0.29324 0.93964 0.01614 0.0
H3273 H 0.31097 0.96402 0.06977 0.0
H3274 H 0.32263 0.98329 0.08606 0.0
H3275 H 0.29783 0.99385 0.06672 0.0
H3276 H 0.28611 0.97469 0.05016 0.0
H3277 H 0.24931 0.90144 0.07661 0.0
H3278 H 0.2674 0.91627 0.06082 0.0
H3279 H 0.25062 0.9371 0.0497 0.0
H3280 H 0.23206 0.92193 0.06504 0.0
H3281 H 0.27459 0.95074 0.06408 0.0
H3282 H 0.25438 0.9239 0.01585 0.0
H3283 H 0.24271 0.90425 0.00061 0.0
H3284 H 0.27212 0.898 0.01014 0.0
H3285 H 0.2839 0.91753 0.02568 0.0
C3286 C 0.32773 0.97956 0.02322 0.0
C3287 C 0.33491 0.97428 0.0251 0.0
C3288 C 0.31511 0.97274 0.02625 0.0
C3289 C 0.3095 0.96057 0.03135 0.0
C3290 C 0.31665 0.95531 0.03306 0.0
C3291 C 0.32919 0.96207 0.02998 0.0
C3292 C 0.29624 0.95319 0.03535 0.0
C3293 C 0.28916 0.94207 0.02662 0.0
C3294 C 0.29076 0.95655 0.04854 0.0
C3295 C 0.29777 0.96801 0.05856 0.0
C3296 C 0.30807 0.9705 0.0689 0.0
C3297 C 0.31467 0.98139 0.0782 0.0
C3298 C 0.311 0.98981 0.07738 0.0
C3299 C 0.30068 0.98734 0.06731 0.0
C3300 C 0.29405 0.97647 0.05797 0.0
C3301 C 0.24922 0.90895 0.07041 0.0
C3302 C 0.23908 0.91035 0.07198 0.0
C3303 C 0.25966 0.91749 0.06147 0.0
C3304 C 0.26031 0.92772 0.05394 0.0
C3305 C 0.25027 0.92923 0.05539 0.0
C3306 C 0.2397 0.92058 0.06422 0.0
C3307 C 0.27182 0.93698 0.04542 0.0
C3308 C 0.27856 0.94844 0.05326 0.0
C3309 C 0.27702 0.93392 0.03146 0.0
C3310 C 0.27001 0.92218 0.02201 0.0
C3311 C 0.25833 0.9183 0.0148 0.0
C3312 C 0.2517 0.90719 0.00609 0.0
C3313 C 0.25667 0.89988 0.00442 0.0
C3314 C 0.26829 0.90368 0.01143 0.0
C3315 C 0.27496 0.91478 0.02017 0.0
H3316 H 0.25152 0.89128 0.99768 0.0
H3317 H 0.31612 0.99823 0.08458 0.0
H3318 H 0.34969 0.02918 0.03696 0.0
H3319 H 0.34603 0.04533 0.02888 0.0
H3320 H 0.37189 0.05615 0.98619 0.0
H3321 H 0.37568 0.04008 0.99423 0.0
H3322 H 0.3742 0.07567 0.00436 0.0
H3323 H 0.34193 0.03887 0.97739 0.0
H3324 H 0.32494 0.01767 0.97759 0.0
H3325 H 0.30511 0.02671 0.01354 0.0
H3326 H 0.32207 0.04795 0.01374 0.0
H3327 H 0.35624 0.10711 0.94631 0.0
H3328 H 0.36194 0.09395 0.96123 0.0
H3329 H 0.33276 0.08315 0.99871 0.0
H3330 H 0.32694 0.09626 0.98366 0.0
H3331 H 0.33208 0.06408 0.986 0.0
H3332 H 0.3634 0.10119 0.01119 0.0
H3333 H 0.38034 0.12241 0.01135 0.0
H3334 H 0.40189 0.11308 0.97965 0.0
H3335 H 0.38501 0.09182 0.97909 0.0
C3336 C 0.35469 0.03505 0.02594 0.0
C3337 C 0.36292 0.03328 0.01615 0.0
C3338 C 0.35256 0.04426 0.02132 0.0
C3339 C 0.35859 0.05186 0.00681 0.0
C3340 C 0.36713 0.05039 0.99742 0.0
C3341 C 0.36925 0.04116 0.002 0.0
C3342 C 0.35562 0.06098 0.0009 0.0
C3343 C 0.36501 0.07315 0.0002 0.0
C3344 C 0.34357 0.05772 0.99596 0.0
C3345 C 0.33332 0.04497 0.99573 0.0
C3346 C 0.33399 0.03632 0.98544 0.0
C3347 C 0.32435 0.0243 0.98547 0.0
C3348 C 0.31397 0.02083 0.99561 0.0
C3349 C 0.31317 0.0294 0.00571 0.0
C3350 C 0.32279 0.04143 0.00575 0.0
C3351 C 0.35121 0.10215 0.95798 0.0
C3352 C 0.34115 0.10275 0.96383 0.0
C3353 C 0.35448 0.09461 0.96651 0.0
C3354 C 0.34785 0.08761 0.98121 0.0
C3355 C 0.338 0.08844 0.98738 0.0
C3356 C 0.33468 0.09593 0.97877 0.0
C3357 C 0.35068 0.07883 0.9893 0.0
C3358 C 0.34125 0.06668 0.99035 0.0
C3359 C 0.36269 0.08214 0.99464 0.0
C3360 C 0.37289 0.09492 0.99498 0.0
C3361 C 0.37172 0.10368 0.00414 0.0
C3362 C 0.38132 0.11571 0.00432 0.0
C3363 C 0.39218 0.1191 0.99548 0.0
C3364 C 0.39347 0.11045 0.98648 0.0
C3365 C 0.38389 0.0984 0.98625 0.0
H3366 H 0.3996 0.12842 0.99564 0.0
H3367 H 0.30652 0.01152 0.99562 0.0
H3368 H 0.98104 0.33045 0.01529 0.0
H3369 H 0.96925 0.30854 0.01064 0.0
H3370 H 0.93641 0.30971 0.00304 0.0
H3371 H 0.94794 0.33134 0.00814 0.0
H3372 H 0.93133 0.2908 0.02199 0.0
H3373 H 0.95393 0.30914 0.96762 0.0
H3374 H 0.97269 0.3213 0.95018 0.0
H3375 H 0.98558 0.29798 0.96636 0.0
H3376 H 0.96694 0.28577 0.98407 0.0
H3377 H 0.89288 0.24788 0.95892 0.0
H3378 H 0.90764 0.26572 0.97537 0.0
H3379 H 0.92881 0.24936 0.98747 0.0
H3380 H 0.91363 0.23099 0.97177 0.0
H3381 H 0.94215 0.27359 0.97176 0.0
H3382 H 0.91634 0.25272 0.0207 0.0
H3383 H 0.89676 0.24065 0.03628 0.0
H3384 H 0.88912 0.26893 0.02871 0.0
H3385 H 0.90858 0.2811 0.01284 0.0
C3386 C 0.97129 0.326 0.01278 0.0
C3387 C 0.96546 0.33267 0.01201 0.0
C3388 C 0.96457 0.31349 0.01007 0.0
C3389 C 0.95195 0.30747 0.00631 0.0
C3390 C 0.94611 0.31411 0.00598 0.0
C3391 C 0.95276 0.32653 0.00882 0.0
C3392 C 0.94471 0.29439 0.00195 0.0
C3393 C 0.93372 0.28704 0.01102 0.0
C3394 C 0.94797 0.28934 0.988 0.0
C3395 C 0.95914 0.29665 0.97734 0.0
C3396 C 0.96081 0.30667 0.96755 0.0
C3397 C 0.97141 0.31356 0.95761 0.0
C3398 C 0.98034 0.31044 0.95722 0.0
C3399 C 0.97867 0.3004 0.96672 0.0
C3400 C 0.96809 0.2935 0.97671 0.0
C3401 C 0.90042 0.2478 0.9655 0.0
C3402 C 0.90192 0.23783 0.96404 0.0
C3403 C 0.90894 0.25811 0.97479 0.0
C3404 C 0.91927 0.25883 0.98269 0.0
C3405 C 0.92087 0.24896 0.98145 0.0
C3406 C 0.9122 0.23849 0.97237 0.0
C3407 C 0.9286 0.27024 0.99133 0.0
C3408 C 0.93995 0.27726 0.98306 0.0
C3409 C 0.92561 0.27505 0.00586 0.0
C3410 C 0.91391 0.2678 0.0155 0.0
C3411 C 0.91045 0.25633 0.02224 0.0
C3412 C 0.89938 0.24948 0.03115 0.0
C3413 C 0.8917 0.25401 0.03346 0.0
C3414 C 0.89509 0.26543 0.02691 0.0
C3415 C 0.90615 0.27232 0.01798 0.0
H3416 H 0.88312 0.24869 0.04036 0.0
H3417 H 0.98854 0.31578 0.94951 0.0
H3418 H 0.68037 0.62842 0.0162 0.0
H3419 H 0.70198 0.6393 0.0083 0.0
H3420 H 0.70058 0.67118 0.99706 0.0
H3421 H 0.67892 0.66039 0.00524 0.0
H3422 H 0.71039 0.6637 0.96925 0.0
H3423 H 0.7158 0.67204 0.0319 0.0
H3424 H 0.71261 0.66693 0.06383 0.0
H3425 H 0.72792 0.64453 0.05818 0.0
H3426 H 0.73104 0.64937 0.02614 0.0
H3427 H 0.77255 0.69881 0.94847 0.0
H3428 H 0.75311 0.69208 0.96271 0.0
H3429 H 0.75401 0.66212 0.9862 0.0
H3430 H 0.77401 0.66934 0.97312 0.0
H3431 H 0.74458 0.67 0.00887 0.0
H3432 H 0.73745 0.65946 0.94696 0.0
H3433 H 0.73999 0.66305 0.91458 0.0
H3434 H 0.72709 0.68759 0.91812 0.0
H3435 H 0.72462 0.68426 0.95057 0.0
C3436 C 0.68468 0.63779 0.01222 0.0
C3437 C 0.67792 0.64354 0.01128 0.0
C3438 C 0.69704 0.644 0.00779 0.0
C3439 C 0.70287 0.65604 0.00217 0.0
C3440 C 0.69623 0.66189 0.00143 0.0
C3441 C 0.68388 0.65573 0.00615 0.0
C3442 C 0.71568 0.6622 0.996 0.0
C3443 C 0.71793 0.66532 0.97796 0.0
C3444 C 0.72539 0.66389 0.00729 0.0
C3445 C 0.72356 0.66099 0.02657 0.0
C3446 C 0.71839 0.66594 0.03742 0.0
C3447 C 0.71661 0.66311 0.05555 0.0
C3448 C 0.72003 0.65539 0.06302 0.0
C3449 C 0.72527 0.6505 0.05237 0.0
C3450 C 0.72705 0.6533 0.03423 0.0
C3451 C 0.76885 0.69097 0.95704 0.0
C3452 C 0.77493 0.68461 0.95951 0.0
C3453 C 0.75758 0.68702 0.96497 0.0
C3454 C 0.75191 0.67641 0.97517 0.0
C3455 C 0.75813 0.67027 0.97825 0.0
C3456 C 0.76953 0.67435 0.97056 0.0
C3457 C 0.73933 0.67148 0.98202 0.0
C3458 C 0.73709 0.66853 0.00016 0.0
C3459 C 0.72955 0.66973 0.97074 0.0
C3460 C 0.73098 0.67171 0.95122 0.0
C3461 C 0.73524 0.66568 0.94085 0.0
C3462 C 0.73666 0.66766 0.92248 0.0
C3463 C 0.73374 0.67557 0.9143 0.0
C3464 C 0.72937 0.68148 0.92447 0.0
C3465 C 0.72795 0.67955 0.94285 0.0
H3466 H 0.73484 0.67709 0.90008 0.0
H3467 H 0.71865 0.65321 0.07706 0.0
H3468 H 0.96571 0.62804 0.00779 0.0
H3469 H 0.94814 0.6302 0.00137 0.0
H3470 H 0.96956 0.66775 0.01637 0.0
H3471 H 0.98689 0.66548 0.02358 0.0
H3472 H 0.94778 0.65935 0.02733 0.0
H3473 H 0.96463 0.65724 0.97139 0.0
H3474 H 0.97129 0.64817 0.94888 0.0
H3475 H 0.9349 0.61716 0.94564 0.0
H3476 H 0.92806 0.626 0.96831 0.0
H3477 H 0.92322 0.6863 0.97164 0.0
H3478 H 0.93538 0.67916 0.98612 0.0
H3479 H 0.90522 0.64248 0.98168 0.0
H3480 H 0.89257 0.64954 0.96804 0.0
H3481 H 0.92859 0.64759 0.96724 0.0
H3482 H 0.91178 0.65253 0.0208 0.0
H3483 H 0.90617 0.66332 0.04181 0.0
H3484 H 0.94397 0.69112 0.04778 0.0
H3485 H 0.94979 0.68058 0.02659 0.0
C3486 C 0.96661 0.63671 0.00988 0.0
C3487 C 0.97771 0.6466 0.01609 0.0
C3488 C 0.95658 0.63797 0.00612 0.0
C3489 C 0.95756 0.64921 0.00802 0.0
C3490 C 0.96853 0.65897 0.01477 0.0
C3491 C 0.97847 0.65767 0.01885 0.0
C3492 C 0.94742 0.65103 0.00239 0.0
C3493 C 0.94365 0.65682 0.01415 0.0
C3494 C 0.94178 0.64753 0.98532 0.0
C3495 C 0.94587 0.64221 0.97169 0.0
C3496 C 0.95807 0.64845 0.96597 0.0
C3497 C 0.96188 0.64336 0.95317 0.0
C3498 C 0.95354 0.63208 0.94588 0.0
C3499 C 0.94136 0.62589 0.95133 0.0
C3500 C 0.93751 0.63093 0.96415 0.0
C3501 C 0.91893 0.67673 0.97421 0.0
C3502 C 0.90681 0.66853 0.96861 0.0
C3503 C 0.92599 0.67266 0.98238 0.0
C3504 C 0.92119 0.66031 0.98497 0.0
C3505 C 0.90908 0.65207 0.97975 0.0
C3506 C 0.9019 0.65614 0.97183 0.0
C3507 C 0.92921 0.6561 0.99205 0.0
C3508 C 0.93259 0.6499 0.98053 0.0
C3509 C 0.93467 0.65946 0.00917 0.0
C3510 C 0.93121 0.6658 0.022 0.0
C3511 C 0.91889 0.66099 0.02648 0.0
C3512 C 0.91567 0.66706 0.03844 0.0
C3513 C 0.92471 0.67791 0.0461 0.0
C3514 C 0.93698 0.68271 0.04184 0.0
C3515 C 0.94024 0.67669 0.02986 0.0
H3516 H 0.9222 0.68259 0.05537 0.0
H3517 H 0.9565 0.62815 0.93597 0.0
H3518 H 0.38212 0.33864 0.02071 0.0
H3519 H 0.37814 0.31862 0.01307 0.0
H3520 H 0.34293 0.3091 0.99105 0.0
H3521 H 0.34673 0.329 0.99892 0.0
H3522 H 0.34133 0.29057 0.00959 0.0
H3523 H 0.36751 0.31788 0.96421 0.0
H3524 H 0.38589 0.33598 0.9527 0.0
H3525 H 0.40863 0.32403 0.97591 0.0
H3526 H 0.39038 0.30592 0.98776 0.0
H3527 H 0.33026 0.24308 0.9505 0.0
H3528 H 0.33336 0.26106 0.96568 0.0
H3529 H 0.36842 0.26845 0.98542 0.0
H3530 H 0.36538 0.25048 0.97018 0.0
H3531 H 0.37054 0.28781 0.9701 0.0
H3532 H 0.34386 0.25943 0.01343 0.0
H3533 H 0.32526 0.24126 0.0243 0.0
H3534 H 0.30323 0.255 0.00444 0.0
H3535 H 0.32168 0.27318 0.99322 0.0
C3536 C 0.3735 0.33227 0.01433 0.0
C3537 C 0.36479 0.33547 0.0103 0.0
C3538 C 0.37125 0.32083 0.00993 0.0
C3539 C 0.3603 0.3124 0.00127 0.0
C3540 C 0.35145 0.31545 0.99771 0.0
C3541 C 0.35367 0.32687 0.00216 0.0
C3542 C 0.35823 0.30058 0.99532 0.0
C3543 C 0.34766 0.28995 0.00084 0.0
C3544 C 0.36662 0.29976 0.9842 0.0
C3545 C 0.37759 0.31062 0.97704 0.0
C3546 C 0.37643 0.31916 0.96697 0.0
C3547 C 0.38683 0.32941 0.96037 0.0
C3548 C 0.39842 0.33117 0.96362 0.0
C3549 C 0.39964 0.32266 0.97343 0.0
C3550 C 0.38928 0.3124 0.98009 0.0
C3551 C 0.33849 0.24836 0.95844 0.0
C3552 C 0.34759 0.24537 0.9591 0.0
C3553 C 0.34026 0.25866 0.96711 0.0
C3554 C 0.35111 0.26611 0.97677 0.0
C3555 C 0.36 0.26288 0.978 0.0
C3556 C 0.35825 0.25261 0.96928 0.0
C3557 C 0.35361 0.27775 0.98433 0.0
C3558 C 0.36426 0.28838 0.97903 0.0
C3559 C 0.34527 0.27854 0.99558 0.0
C3560 C 0.33415 0.26763 0.00235 0.0
C3561 C 0.33504 0.25854 0.01125 0.0
C3562 C 0.32453 0.24824 0.0175 0.0
C3563 C 0.31307 0.24697 0.01502 0.0
C3564 C 0.31211 0.256 0.00633 0.0
C3565 C 0.32259 0.26631 5e-05 0.0
H3566 H 0.30494 0.23899 0.01987 0.0
H3567 H 0.40646 0.33912 0.95849 0.0
H3568 H 0.67192 0.01665 0.00772 0.0
H3569 H 0.69372 0.02869 0.00015 0.0
H3570 H 0.68982 0.05894 0.98725 0.0
H3571 H 0.66825 0.04717 0.99499 0.0
H3572 H 0.70094 0.05203 0.96022 0.0
H3573 H 0.70357 0.06057 0.02357 0.0
H3574 H 0.7003 0.05489 0.0553 0.0
H3575 H 0.72139 0.03797 0.05044 0.0
H3576 H 0.72463 0.04342 0.01858 0.0
H3577 H 0.75924 0.10056 0.94529 0.0
H3578 H 0.73915 0.08779 0.95802 0.0
H3579 H 0.75074 0.06465 0.98066 0.0
H3580 H 0.77128 0.07797 0.96908 0.0
H3581 H 0.73578 0.06594 0.0027 0.0
H3582 H 0.73427 0.05754 0.94087 0.0
H3583 H 0.7375 0.06204 0.90877 0.0
H3584 H 0.71409 0.07658 0.90976 0.0
H3585 H 0.71086 0.07233 0.94195 0.0
C3586 C 0.67575 0.0259 0.0034 0.0
C3587 C 0.66834 0.03094 0.00193 0.0
C3588 C 0.68818 0.03275 0.99913 0.0
C3589 C 0.69334 0.04469 0.99315 0.0
C3590 C 0.686 0.04975 0.99184 0.0
C3591 C 0.67367 0.043 0.99632 0.0
C3592 C 0.70625 0.05186 0.98748 0.0
C3593 C 0.70857 0.05516 0.96951 0.0
C3594 C 0.71616 0.05552 0.99951 0.0
C3595 C 0.71421 0.05227 0.01865 0.0
C3596 C 0.7074 0.05553 0.02922 0.0
C3597 C 0.70558 0.05238 0.04724 0.0
C3598 C 0.7106 0.04604 0.05487 0.0
C3599 C 0.71748 0.04287 0.0445 0.0
C3600 C 0.71932 0.04599 0.02647 0.0
C3601 C 0.75772 0.09299 0.95339 0.0
C3602 C 0.76697 0.09031 0.95597 0.0
C3603 C 0.7461 0.08554 0.96045 0.0
C3604 C 0.7433 0.07504 0.96985 0.0
C3605 C 0.75262 0.07262 0.97325 0.0
C3606 C 0.76435 0.08019 0.96644 0.0
C3607 C 0.73051 0.06641 0.97544 0.0
C3608 C 0.72819 0.06276 0.99334 0.0
C3609 C 0.72056 0.0622 0.96326 0.0
C3610 C 0.7224 0.0647 0.94386 0.0
C3611 C 0.72987 0.06176 0.93427 0.0
C3612 C 0.73169 0.06427 0.91606 0.0
C3613 C 0.72602 0.06961 0.90724 0.0
C3614 C 0.71848 0.07244 0.91661 0.0
C3615 C 0.71664 0.06998 0.93484 0.0
H3616 H 0.72745 0.07154 0.89314 0.0
H3617 H 0.70918 0.04361 0.06883 0.0
H3618 H 0.66195 0.98133 0.00137 0.0
H3619 H 0.66428 0.96436 0.009 0.0
H3620 H 0.62602 0.94306 0.02228 0.0
H3621 H 0.62375 0.96026 0.01532 0.0
H3622 H 0.63834 0.94014 0.04676 0.0
H3623 H 0.63836 0.93775 0.9837 0.0
H3624 H 0.64423 0.94494 0.95289 0.0
H3625 H 0.68126 0.95489 0.96457 0.0
H3626 H 0.67565 0.94791 0.99553 0.0
H3627 H 0.64417 0.88849 0.0586 0.0
H3628 H 0.63786 0.9014 0.04419 0.0
H3629 H 0.67552 0.93029 0.04143 0.0
H3630 H 0.68191 0.91782 0.0566 0.0
H3631 H 0.66091 0.92687 0.00948 0.0
H3632 H 0.66039 0.93115 0.07377 0.0
H3633 H 0.65385 0.92323 0.10413 0.0
H3634 H 0.61629 0.90851 0.08863 0.0
H3635 H 0.62262 0.9162 0.05808 0.0
C3636 C 0.65398 0.973 0.00572 0.0
C3637 C 0.64265 0.97215 0.00771 0.0
C3638 C 0.65531 0.96324 0.00998 0.0
C3639 C 0.64528 0.95231 0.01595 0.0
C3640 C 0.6339 0.95137 0.01767 0.0
C3641 C 0.6326 0.96121 0.01365 0.0
C3642 C 0.64693 0.94216 0.02139 0.0
C3643 C 0.64303 0.93708 0.03838 0.0
C3644 C 0.65317 0.93818 0.01063 0.0
C3645 C 0.6566 0.94237 0.99199 0.0
C3646 C 0.64777 0.94154 0.97974 0.0
C3647 C 0.65105 0.94557 0.96224 0.0
C3648 C 0.66311 0.95039 0.95678 0.0
C3649 C 0.67192 0.95116 0.96881 0.0
C3650 C 0.66869 0.94715 0.98634 0.0
C3651 C 0.65114 0.89758 0.05498 0.0
C3652 C 0.66358 0.90206 0.05895 0.0
C3653 C 0.6475 0.90491 0.0466 0.0
C3654 C 0.65623 0.9168 0.04181 0.0
C3655 C 0.66865 0.92111 0.04491 0.0
C3656 C 0.67229 0.91388 0.05352 0.0
C3657 C 0.65247 0.9251 0.03478 0.0
C3658 C 0.65601 0.92983 0.01759 0.0
C3659 C 0.64575 0.92864 0.04521 0.0
C3660 C 0.64196 0.92411 0.0636 0.0
C3661 C 0.65073 0.92613 0.0768 0.0
C3662 C 0.64706 0.9217 0.09405 0.0
C3663 C 0.63466 0.91533 0.0983 0.0
C3664 C 0.62589 0.91342 0.08531 0.0
C3665 C 0.62952 0.91781 0.06803 0.0
H3666 H 0.63183 0.91191 0.11166 0.0
H3667 H 0.66563 0.95351 0.94323 0.0
H3668 H 0.02109 0.6755 0.02084 0.0
H3669 H 0.0327 0.6971 0.02766 0.0
H3670 H 0.0663 0.69857 0.01564 0.0
H3671 H 0.05482 0.67707 0.00875 0.0
H3672 H 0.04946 0.70799 0.05384 0.0
H3673 H 0.08704 0.72641 -0.00028 0.0
H3674 H 0.08914 0.72256 0.96824 0.0
H3675 H 0.0507 0.70776 0.95948 0.0
H3676 H 0.04839 0.71168 0.99083 0.0
H3677 H 0.10195 0.76079 0.08294 0.0
H3678 H 0.08902 0.74126 0.06856 0.0
H3679 H 0.07643 0.75754 0.03043 0.0
H3680 H 0.08954 0.77725 0.04462 0.0
H3681 H 0.08062 0.74026 0.0152 0.0
H3682 H 0.05888 0.74374 0.06385 0.0
H3683 H 0.05619 0.74796 0.09486 0.0
H3684 H 0.06112 0.71936 0.11329 0.0
H3685 H 0.06404 0.71509 0.08239 0.0
C3686 C 0.03093 0.68045 0.01942 0.0
C3687 C 0.03702 0.67453 0.01433 0.0
C3688 C 0.03755 0.69279 0.02336 0.0
C3689 C 0.05036 0.69946 0.02207 0.0
C3690 C 0.05642 0.69365 0.0165 0.0
C3691 C 0.04983 0.68132 0.01265 0.0
C3692 C 0.05751 0.71227 0.02778 0.0
C3693 C 0.0562 0.71505 0.04533 0.0
C3694 C 0.06622 0.72152 0.01663 0.0
C3695 C 0.06754 0.71925 0.99768 0.0
C3696 C 0.07905 0.72239 0.99106 0.0
C3697 C 0.08027 0.72018 0.97324 0.0
C3698 C 0.07005 0.71489 0.96188 0.0
C3699 C 0.0586 0.71182 0.96831 0.0
C3700 C 0.05732 0.71401 0.98611 0.0
C3701 C 0.09667 0.7603 0.07124 0.0
C3702 C 0.09676 0.77057 0.06494 0.0
C3703 C 0.0892 0.7491 0.06313 0.0
C3704 C 0.08166 0.74794 0.04859 0.0
C3705 C 0.08215 0.75825 0.04169 0.0
C3706 C 0.08959 0.76948 0.04986 0.0
C3707 C 0.07278 0.73582 0.04135 0.0
C3708 C 0.07378 0.73319 0.02359 0.0
C3709 C 0.06367 0.72671 0.05222 0.0
C3710 C 0.06177 0.72915 0.07081 0.0
C3711 C 0.05948 0.7384 0.07452 0.0
C3712 C 0.0579 0.7408 0.09208 0.0
C3713 C 0.05851 0.73395 0.10604 0.0
C3714 C 0.06066 0.72466 0.10246 0.0
C3715 C 0.06227 0.72224 0.08493 0.0
H3716 H 0.05729 0.73582 0.11963 0.0
H3717 H 0.07102 0.71318 0.94809 0.0
H3718 H 0.32228 0.34508 0.023 0.0
H3719 H 0.30057 0.3357 0.0302 0.0
H3720 H 0.30371 0.37037 0.02627 0.0
H3721 H 0.32531 0.3798 0.01928 0.0
H3722 H 0.29343 0.35929 0.05694 0.0
H3723 H 0.28831 0.34856 0.99472 0.0
H3724 H 0.29091 0.33942 0.96775 0.0
H3725 H 0.27271 0.30468 0.993 0.0
H3726 H 0.27016 0.31364 0.02022 0.0
H3727 H 0.23323 0.34448 0.06494 0.0
H3728 H 0.25268 0.35077 0.05058 0.0
H3729 H 0.24635 0.31493 0.05719 0.0
H3730 H 0.22675 0.30853 0.07141 0.0
H3731 H 0.25801 0.32532 0.02552 0.0
H3732 H 0.26312 0.33567 0.08742 0.0
H3733 H 0.26039 0.34445 0.11469 0.0
H3734 H 0.27892 0.37957 0.09058 0.0
H3735 H 0.28159 0.37096 0.06304 0.0
C3736 C 0.31831 0.35068 0.02346 0.0
C3737 C 0.32557 0.36321 0.02069 0.0
C3738 C 0.30589 0.34529 0.02751 0.0
C3739 C 0.30052 0.35234 0.02876 0.0
C3740 C 0.30767 0.36477 0.02545 0.0
C3741 C 0.32003 0.37014 0.02144 0.0
C3742 C 0.28771 0.34704 0.03472 0.0
C3743 C 0.28568 0.35197 0.0499 0.0
C3744 C 0.27764 0.3372 0.02593 0.0
C3745 C 0.27916 0.3318 0.00958 0.0
C3746 C 0.28496 0.33899 0.99458 0.0
C3747 C 0.2864 0.33384 0.97924 0.0
C3748 C 0.28201 0.32148 0.97868 0.0
C3749 C 0.27613 0.31425 0.99346 0.0
C3750 C 0.27467 0.31936 0.00884 0.0
C3751 C 0.2359 0.33789 0.06308 0.0
C3752 C 0.22857 0.32606 0.06948 0.0
C3753 C 0.247 0.34149 0.05488 0.0
C3754 C 0.25107 0.33338 0.05316 0.0
C3755 C 0.24339 0.32134 0.05844 0.0
C3756 C 0.23221 0.3177 0.06654 0.0
C3757 C 0.26377 0.33781 0.04743 0.0
C3758 C 0.26578 0.33266 0.03248 0.0
C3759 C 0.27389 0.34741 0.05648 0.0
C3760 C 0.27246 0.35265 0.07311 0.0
C3761 C 0.26654 0.34525 0.08789 0.0
C3762 C 0.26501 0.3502 0.1034 0.0
C3763 C 0.26946 0.36255 0.10436 0.0
C3764 C 0.27547 0.36999 0.08982 0.0
C3765 C 0.277 0.36509 0.07426 0.0
H3766 H 0.26826 0.36636 0.11638 0.0
H3767 H 0.28313 0.31751 0.96679 0.0
H3768 H 0.69794 0.7062 0.37303 0.0
H3769 H 0.71508 0.70354 0.37996 0.0
H3770 H 0.71046 0.68644 0.32899 0.0
H3771 H 0.69314 0.68888 0.32208 0.0
H3772 H 0.71256 0.67356 0.35471 0.0
H3773 H 0.735 0.71505 0.33768 0.0
H3774 H 0.74071 0.73635 0.33783 0.0
H3775 H 0.75051 0.73912 0.39327 0.0
H3776 H 0.7447 0.71778 0.39352 0.0
H3777 H 0.76445 0.66855 0.36869 0.0
H3778 H 0.75169 0.67551 0.35511 0.0
H3779 H 0.75216 0.69237 0.40464 0.0
H3780 H 0.76483 0.68545 0.41828 0.0
H3781 H 0.75325 0.70606 0.37653 0.0
H3782 H 0.72873 0.66428 0.39425 0.0
H3783 H 0.72285 0.64292 0.39458 0.0
H3784 H 0.71674 0.64079 0.338 0.0
H3785 H 0.72277 0.66221 0.3373 0.0
C3786 C 0.70063 0.70197 0.36321 0.0
C3787 C 0.69414 0.69773 0.34701 0.0
C3788 C 0.71049 0.70052 0.36715 0.0
C3789 C 0.71416 0.6949 0.35492 0.0
C3790 C 0.70781 0.69082 0.33863 0.0
C3791 C 0.69792 0.69225 0.33468 0.0
C3792 C 0.72413 0.69264 0.35961 0.0
C3793 C 0.72154 0.68072 0.35912 0.0
C3794 C 0.73577 0.70192 0.36575 0.0
C3795 C 0.73932 0.71478 0.36564 0.0
C3796 C 0.73829 0.72017 0.34994 0.0
C3797 C 0.74156 0.73226 0.34995 0.0
C3798 C 0.74595 0.73908 0.36556 0.0
C3799 C 0.7471 0.73382 0.38119 0.0
C3800 C 0.74384 0.72173 0.38125 0.0
C3801 C 0.76195 0.67386 0.37662 0.0
C3802 C 0.76561 0.67636 0.39461 0.0
C3803 C 0.75467 0.67784 0.36884 0.0
C3804 C 0.75081 0.6843 0.37895 0.0
C3805 C 0.75503 0.68741 0.39657 0.0
C3806 C 0.76233 0.68347 0.40434 0.0
C3807 C 0.74162 0.687 0.37173 0.0
C3808 C 0.74433 0.69896 0.37183 0.0
C3809 C 0.73005 0.67776 0.36527 0.0
C3810 C 0.72633 0.66487 0.3657 0.0
C3811 C 0.72622 0.65928 0.38186 0.0
C3812 C 0.72285 0.64716 0.38212 0.0
C3813 C 0.71945 0.64051 0.36631 0.0
C3814 C 0.71939 0.64596 0.35022 0.0
C3815 C 0.72278 0.65808 0.34989 0.0
H3816 H 0.71685 0.63113 0.36654 0.0
H3817 H 0.74847 0.74843 0.36554 0.0
H3818 H 0.30408 0.99989 0.37954 0.0
H3819 H 0.30658 0.01937 0.38672 0.0
H3820 H 0.32436 0.03368 0.33647 0.0
H3821 H 0.32211 0.01426 0.32932 0.0
H3822 H 0.33695 0.0489 0.36244 0.0
H3823 H 0.29503 0.02744 0.34411 0.0
H3824 H 0.27354 0.01065 0.34346 0.0
H3825 H 0.27009 0.01629 0.39881 0.0
H3826 H 0.29161 0.03302 0.39986 0.0
H3827 H 0.33889 0.10416 0.37507 0.0
H3828 H 0.33343 0.08467 0.36221 0.0
H3829 H 0.3172 0.0671 0.41188 0.0
H3830 H 0.32278 0.08648 0.42491 0.0
H3831 H 0.30327 0.05395 0.38331 0.0
H3832 H 0.34568 0.07413 0.40195 0.0
H3833 H 0.36717 0.09092 0.40261 0.0
H3834 H 0.36956 0.08755 0.34618 0.0
H3835 H 0.34801 0.07085 0.34515 0.0
C3836 C 0.30843 0.00714 0.36993 0.0
C3837 C 0.3129 0.0055 0.35385 0.0
C3838 C 0.3098 0.01827 0.37402 0.0
C3839 C 0.31554 0.02798 0.36206 0.0
C3840 C 0.31989 0.02633 0.3459 0.0
C3841 C 0.31856 0.0152 0.34182 0.0
C3842 C 0.31755 0.03999 0.36683 0.0
C3843 C 0.32954 0.05003 0.36666 0.0
C3844 C 0.30793 0.04147 0.37267 0.0
C3845 C 0.29497 0.03143 0.37209 0.0
C3846 C 0.28972 0.02505 0.35618 0.0
C3847 C 0.27752 0.01555 0.35573 0.0
C3848 C 0.27046 0.01239 0.37109 0.0
C3849 C 0.27557 0.01874 0.38692 0.0
C3850 C 0.28776 0.02824 0.38745 0.0
C3851 C 0.33414 0.09615 0.38325 0.0
C3852 C 0.33132 0.09693 0.40106 0.0
C3853 C 0.33099 0.08501 0.37586 0.0
C3854 C 0.32501 0.07445 0.38614 0.0
C3855 C 0.32177 0.07513 0.40367 0.0
C3856 C 0.32493 0.08624 0.41108 0.0
C3857 C 0.32266 0.06276 0.37905 0.0
C3858 C 0.31063 0.0528 0.37885 0.0
C3859 C 0.33223 0.06134 0.37283 0.0
C3860 C 0.3452 0.07134 0.37345 0.0
C3861 C 0.35076 0.07704 0.38966 0.0
C3862 C 0.36295 0.08652 0.39011 0.0
C3863 C 0.36971 0.09032 0.37444 0.0
C3864 C 0.3643 0.08462 0.3583 0.0
C3865 C 0.3521 0.07514 0.35778 0.0
H3866 H 0.37916 0.09767 0.37481 0.0
H3867 H 0.26103 0.00504 0.37072 0.0
H3868 H 0.99714 0.28968 0.37427 0.0
H3869 H 0.97509 0.27839 0.37773 0.0
H3870 H 0.97332 0.30867 0.35761 0.0
H3871 H 0.99565 0.32028 0.35459 0.0
H3872 H 0.95938 0.29975 0.38545 0.0
H3873 H 0.9629 0.28261 0.33225 0.0
H3874 H 0.97084 0.27363 0.3117 0.0
H3875 H 0.95866 0.24324 0.34662 0.0
H3876 H 0.95079 0.25212 0.36753 0.0
H3877 H 0.89394 0.25983 0.38948 0.0
H3878 H 0.91387 0.27229 0.37546 0.0
H3879 H 0.9274 0.25225 0.40305 0.0
H3880 H 0.90788 0.24023 0.41786 0.0
H3881 H 0.93389 0.25718 0.36557 0.0
H3882 H 0.93367 0.27704 0.42053 0.0
H3883 H 0.92541 0.28621 0.44013 0.0
H3884 H 0.93089 0.31183 0.3993 0.0
H3885 H 0.93902 0.30268 0.37935 0.0
C3886 C 0.9921 0.29396 0.37045 0.0
C3887 C 0.99819 0.30589 0.36408 0.0
C3888 C 0.97944 0.28744 0.37231 0.0
C3889 C 0.97248 0.29256 0.36756 0.0
C3890 C 0.97849 0.30449 0.36123 0.0
C3891 C 0.99125 0.31111 0.3595 0.0
C3892 C 0.95901 0.28555 0.37017 0.0
C3893 C 0.95376 0.29054 0.3807 0.0
C3894 C 0.95162 0.2735 0.36406 0.0
C3895 C 0.95631 0.26808 0.35151 0.0
C3896 C 0.96198 0.27405 0.33562 0.0
C3897 C 0.96646 0.26897 0.32389 0.0
C3898 C 0.96527 0.25788 0.32787 0.0
C3899 C 0.95957 0.25183 0.34356 0.0
C3900 C 0.95508 0.25688 0.35534 0.0
C3901 C 0.90114 0.25807 0.39264 0.0
C3902 C 0.89923 0.24901 0.40495 0.0
C3903 C 0.91249 0.26514 0.38448 0.0
C3904 C 0.92208 0.26318 0.38828 0.0
C3905 C 0.92007 0.25383 0.39986 0.0
C3906 C 0.90882 0.2469 0.40824 0.0
C3907 C 0.93449 0.27129 0.38121 0.0
C3908 C 0.9395 0.26649 0.36988 0.0
C3909 C 0.9416 0.28354 0.38635 0.0
C3910 C 0.9368 0.28908 0.39838 0.0
C3911 C 0.93301 0.28456 0.41568 0.0
C3912 C 0.92837 0.28977 0.42686 0.0
C3913 C 0.92758 0.29957 0.42095 0.0
C3914 C 0.93147 0.30422 0.40385 0.0
C3915 C 0.9361 0.29903 0.39261 0.0
H3916 H 0.92399 0.3036 0.42962 0.0
H3917 H 0.96875 0.25396 0.31877 0.0
H3918 H 0.04469 0.37266 0.33413 0.0
H3919 H 0.04454 0.3906 0.3244 0.0
H3920 H 0.01184 0.37918 0.35454 0.0
H3921 H 0.01189 0.36117 0.3643 0.0
H3922 H 0.01019 0.38646 0.32088 0.0
H3923 H 0.03873 0.4019 0.36973 0.0
H3924 H 0.05679 0.40563 0.38728 0.0
H3925 H 0.0801 0.42513 0.34345 0.0
H3926 H 0.06215 0.42137 0.32554 0.0
H3927 H 0.01153 0.44142 0.30718 0.0
H3928 H 0.01141 0.42449 0.32203 0.0
H3929 H 0.04541 0.43418 0.2968 0.0
H3930 H 0.04562 0.45108 0.28205 0.0
H3931 H 0.04577 0.42784 0.33024 0.0
H3932 H 0.01755 0.41129 0.28068 0.0
H3933 H 0.99969 0.40736 0.26239 0.0
H3934 H 0.97604 0.38976 0.30671 0.0
H3935 H 0.99379 0.39373 0.32534 0.0
C3936 C 0.03748 0.37397 0.33875 0.0
C3937 C 0.02832 0.36549 0.35003 0.0
C3938 C 0.03744 0.38426 0.33322 0.0
C3939 C 0.02824 0.38629 0.33887 0.0
C3940 C 0.01904 0.3778 0.35005 0.0
C3941 C 0.01911 0.36754 0.35566 0.0
C3942 C 0.02811 0.39713 0.33279 0.0
C3943 C 0.01788 0.39552 0.32319 0.0
C3944 C 0.03825 0.40894 0.33548 0.0
C3945 C 0.04908 0.41126 0.34624 0.0
C3946 C 0.04769 0.4069 0.36378 0.0
C3947 C 0.05792 0.40903 0.37381 0.0
C3948 C 0.06958 0.41559 0.36647 0.0
C3949 C 0.07106 0.42004 0.34911 0.0
C3950 C 0.06086 0.41793 0.33903 0.0
C3951 C 0.019 0.43996 0.30486 0.0
C3952 C 0.02858 0.44761 0.29342 0.0
C3953 C 0.01891 0.43027 0.31334 0.0
C3954 C 0.02832 0.42796 0.31036 0.0
C3955 C 0.03806 0.43579 0.29936 0.0
C3956 C 0.03819 0.4455 0.29098 0.0
C3957 C 0.0279 0.41718 0.31816 0.0
C3958 C 0.03803 0.41879 0.32807 0.0
C3959 C 0.0177 0.40536 0.31566 0.0
C3960 C 0.00701 0.40293 0.30446 0.0
C3961 C 0.00855 0.40666 0.28656 0.0
C3962 C 0.99845 0.40441 0.27613 0.0
C3963 C 0.98674 0.39834 0.2834 0.0
C3964 C 0.98511 0.39448 0.30111 0.0
C3965 C 0.99519 0.39672 0.31161 0.0
H3966 H 0.97893 0.39661 0.27529 0.0
H3967 H 0.07749 0.41723 0.37425 0.0
H3968 H 0.6148 0.6623 0.34865 0.0
H3969 H 0.60405 0.64063 0.34331 0.0
H3970 H 0.63851 0.64275 0.33638 0.0
H3971 H 0.64942 0.66457 0.34165 0.0
H3972 H 0.62227 0.63038 0.30948 0.0
H3973 H 0.62188 0.62945 0.37303 0.0
H3974 H 0.61855 0.63458 0.40314 0.0
H3975 H 0.58025 0.61854 0.3914 0.0
H3976 H 0.58338 0.61347 0.36112 0.0
H3977 H 0.59343 0.56768 0.29826 0.0
H3978 H 0.60631 0.58746 0.31182 0.0
H3979 H 0.57437 0.58945 0.32241 0.0
H3980 H 0.56132 0.56935 0.30959 0.0
H3981 H 0.59083 0.59938 0.34927 0.0
H3982 H 0.59138 0.6024 0.2853 0.0
H3983 H 0.5943 0.59756 0.25476 0.0
H3984 H 0.63194 0.61009 0.26694 0.0
H3985 H 0.62919 0.61485 0.29766 0.0
C3986 C 0.62014 0.65817 0.34615 0.0
C3987 C 0.63299 0.66519 0.34553 0.0
C3988 C 0.61396 0.64575 0.34321 0.0
C3989 C 0.62047 0.64005 0.33961 0.0
C3990 C 0.63331 0.64697 0.33921 0.0
C3991 C 0.63952 0.65943 0.34227 0.0
C3992 C 0.61377 0.627 0.33514 0.0
C3993 C 0.61559 0.62356 0.31835 0.0
C3994 C 0.60482 0.61816 0.34651 0.0
C3995 C 0.60289 0.62116 0.36475 0.0
C3996 C 0.61276 0.6271 0.37682 0.0
C3997 C 0.61091 0.62998 0.39393 0.0
C3998 C 0.5992 0.62691 0.39917 0.0
C3999 C 0.58932 0.62092 0.38732 0.0
C4000 C 0.59112 0.61803 0.37019 0.0
C4001 C 0.58907 0.57213 0.30391 0.0
C4002 C 0.5763 0.56691 0.30269 0.0
C4003 C 0.59649 0.58354 0.31149 0.0
C4004 C 0.59133 0.59005 0.31779 0.0
C4005 C 0.57856 0.58462 0.31751 0.0
C4006 C 0.57112 0.57317 0.31003 0.0
C4007 C 0.59927 0.6028 0.32357 0.0
C4008 C 0.59765 0.60618 0.34054 0.0
C4009 C 0.60836 0.61163 0.31232 0.0
C4010 C 0.61005 0.60885 0.29383 0.0
C4011 C 0.60026 0.60403 0.2815 0.0
C4012 C 0.60188 0.60132 0.26416 0.0
C4013 C 0.61329 0.60348 0.25893 0.0
C4014 C 0.6231 0.6084 0.27102 0.0
C4015 C 0.62152 0.61111 0.2884 0.0
H4016 H 0.61453 0.60138 0.24549 0.0
H4017 H 0.59779 0.62914 0.41242 0.0
H4018 H 0.34829 0.96438 0.3646 0.0
H4019 H 0.37012 0.97506 0.35853 0.0
H4020 H 0.3684 0.00512 0.33734 0.0
H4021 H 0.34641 0.99444 0.3435 0.0
H4022 H 0.37841 0.99634 0.31416 0.0
H4023 H 0.38492 0.00942 0.37426 0.0
H4024 H 0.38208 0.00754 0.40677 0.0
H4025 H 0.39535 0.98323 0.40895 0.0
H4026 H 0.3981 0.98481 0.37641 0.0
H4027 H 0.43844 0.01754 0.28793 0.0
H4028 H 0.42278 0.01863 0.30448 0.0
H4029 H 0.41565 0.98745 0.33516 0.0
H4030 H 0.4318 0.98673 0.3194 0.0
H4031 H 0.4118 0.00201 0.35504 0.0
H4032 H 0.40018 0.98491 0.29559 0.0
H4033 H 0.40217 0.98529 0.26292 0.0
H4034 H 0.39753 0.01572 0.25966 0.0
H4035 H 0.39568 0.01561 0.29237 0.0
C4036 C 0.35258 0.97335 0.35894 0.0
C4037 C 0.34561 0.97854 0.3544 0.0
C4038 C 0.36509 0.97949 0.3556 0.0
C4039 C 0.37091 0.99092 0.34759 0.0
C4040 C 0.36409 0.99633 0.34363 0.0
C4041 C 0.35154 0.99024 0.34718 0.0
C4042 C 0.3837 0.99638 0.34152 0.0
C4043 C 0.38582 0.99795 0.32315 0.0
C4044 C 0.39326 0.99817 0.35323 0.0
C4045 C 0.39167 0.9972 0.37284 0.0
C4046 C 0.38715 0.00361 0.38164 0.0
C4047 C 0.38557 0.00261 0.40009 0.0
C4048 C 0.38852 0.99526 0.40992 0.0
C4049 C 0.39307 0.98892 0.40132 0.0
C4050 C 0.39467 0.98988 0.38287 0.0
C4051 C 0.43388 0.01118 0.29864 0.0
C4052 C 0.43624 0.00189 0.30209 0.0
C4053 C 0.42482 0.01175 0.30799 0.0
C4054 C 0.4178 0.00291 0.32071 0.0
C4055 C 0.42086 0.9943 0.32528 0.0
C4056 C 0.43002 0.99381 0.3161 0.0
C4057 C 0.40638 0.00165 0.32767 0.0
C4058 C 0.4045 0.00079 0.34613 0.0
C4059 C 0.39693 1.00033 0.31605 0.0
C4060 C 0.39795 1.00035 0.29641 0.0
C4061 C 0.39966 0.99173 0.28791 0.0
C4062 C 0.40076 0.99189 0.26939 0.0
C4063 C 0.40001 0.00055 0.25923 0.0
C4064 C 0.39813 0.00904 0.26756 0.0
C4065 C 0.39706 0.00894 0.28608 0.0
H4066 H 0.40086 0.00067 0.2449 0.0
H4067 H 0.38729 0.9945 0.4242 0.0
H4068 H 0.64773 0.98051 0.34379 0.0
H4069 H 0.63075 0.98324 0.33568 0.0
H4070 H 0.61121 0.94757 0.31275 0.0
H4071 H 0.62818 0.94481 0.32063 0.0
H4072 H 0.61122 0.96395 0.29058 0.0
H4073 H 0.60289 0.95359 0.35265 0.0
H4074 H 0.60769 0.95569 0.38482 0.0
H4075 H 0.61427 0.99167 0.38386 0.0
H4076 H 0.60967 0.98985 0.35161 0.0
H4077 H 0.55269 0.95419 0.27797 0.0
H4078 H 0.56976 0.95295 0.28998 0.0
H4079 H 0.58669 0.98945 0.3094 0.0
H4080 H 0.56933 0.99066 0.29782 0.0
H4081 H 0.58888 0.97428 0.33343 0.0
H4082 H 0.59667 0.9846 0.27183 0.0
H4083 H 0.59196 0.98272 0.23964 0.0
H4084 H 0.58671 0.94726 0.23962 0.0
H4085 H 0.59125 0.94885 0.27187 0.0
C4086 C 0.63978 0.97321 0.33713 0.0
C4087 C 0.63932 0.96244 0.33284 0.0
C4088 C 0.63006 0.97477 0.33256 0.0
C4089 C 0.61967 0.96559 0.3237 0.0
C4090 C 0.61914 0.95479 0.31957 0.0
C4091 C 0.62884 0.95321 0.32414 0.0
C4092 C 0.60953 0.96735 0.31811 0.0
C4093 C 0.60624 0.96606 0.29999 0.0
C4094 C 0.60331 0.97052 0.33029 0.0
C4095 C 0.60606 0.97163 0.34968 0.0
C4096 C 0.60546 0.96199 0.35926 0.0
C4097 C 0.60813 0.96312 0.37752 0.0
C4098 C 0.61132 0.97382 0.38637 0.0
C4099 C 0.61182 0.9834 0.37698 0.0
C4100 C 0.60918 0.98232 0.35872 0.0
C4101 C 0.55987 0.96188 0.28516 0.0
C4102 C 0.5596 0.97253 0.28695 0.0
C4103 C 0.56971 0.9612 0.29184 0.0
C4104 C 0.57958 0.97117 0.30033 0.0
C4105 C 0.57918 0.98167 0.30279 0.0
C4106 C 0.5693 0.98237 0.29608 0.0
C4107 C 0.59045 0.97064 0.30598 0.0
C4108 C 0.5939 0.97221 0.32404 0.0
C4109 C 0.59688 0.96778 0.29374 0.0
C4110 C 0.5942 0.96681 0.27431 0.0
C4111 C 0.59443 0.97636 0.26499 0.0
C4112 C 0.5918 0.97536 0.24673 0.0
C4113 C 0.58901 0.96487 0.2376 0.0
C4114 C 0.58887 0.95537 0.24671 0.0
C4115 C 0.59148 0.95633 0.26498 0.0
H4116 H 0.58697 0.9641 0.22347 0.0
H4117 H 0.61337 0.97468 0.4005 0.0
H4118 H 0.00725 0.65677 0.36157 0.0
H4119 H 0.00634 0.63845 0.3516 0.0
H4120 H 0.03412 0.65912 0.31273 0.0
H4121 H 0.03489 0.67745 0.32238 0.0
H4122 H 0.01616 0.63928 0.29804 0.0
H4123 H 0.04033 0.64831 0.35138 0.0
H4124 H 0.04532 0.65301 0.38324 0.0
H4125 H 0.01339 0.61928 0.39734 0.0
H4126 H 0.00811 0.61444 0.36554 0.0
H4127 H 0.02764 0.59373 0.27401 0.0
H4128 H 0.0305 0.61227 0.2868 0.0
H4129 H 1.0008 0.59142 0.32287 0.0
H4130 H 0.99808 0.57276 0.31046 0.0
H4131 H 0.02004 0.61134 0.3392 0.0
H4132 H 0.99583 0.60264 0.28563 0.0
H4133 H 0.99118 0.59793 0.25369 0.0
H4134 H 0.02369 0.6313 0.24005 0.0
H4135 H 0.02863 0.63613 0.27193 0.0
C4136 C 0.01322 0.65745 0.35097 0.0
C4137 C 0.02115 0.6686 0.34279 0.0
C4138 C 0.01273 0.64696 0.34533 0.0
C4139 C 0.02026 0.6474 0.33154 0.0
C4140 C 0.02823 0.65854 0.3234 0.0
C4141 C 0.02868 0.66902 0.32897 0.0
C4142 C 0.01954 0.63621 0.32519 0.0
C4143 C 0.01721 0.63328 0.30702 0.0
C4144 C 0.0206 0.6282 0.33694 0.0
C4145 C 0.02376 0.63107 0.35607 0.0
C4146 C 0.03432 0.64193 0.36127 0.0
C4147 C 0.03721 0.64461 0.37932 0.0
C4148 C 0.02966 0.63646 0.39231 0.0
C4149 C 0.01922 0.62559 0.38726 0.0
C4150 C 0.01628 0.62287 0.36923 0.0
C4151 C 0.02187 0.59306 0.28493 0.0
C4152 C 0.0126 0.58173 0.29119 0.0
C4153 C 0.02344 0.60368 0.2921 0.0
C4154 C 0.01574 0.60323 0.30561 0.0
C4155 C 0.0068 0.59198 0.31239 0.0
C4156 C 0.00521 0.58132 0.3052 0.0
C4157 C 0.01672 0.61449 0.3121 0.0
C4158 C 0.01905 0.61739 0.33026 0.0
C4159 C 0.0157 0.62251 0.30035 0.0
C4160 C 0.01266 0.61969 0.28117 0.0
C4161 C 0.00203 0.60893 0.27582 0.0
C4162 C 0.99934 0.60625 0.25773 0.0
C4163 C 0.00715 0.61429 0.24485 0.0
C4164 C 0.01765 0.62506 0.25004 0.0
C4165 C 0.0204 0.62779 0.26812 0.0
H4166 H 0.00505 0.61219 0.23085 0.0
H4167 H 0.03192 0.63855 0.40628 0.0
H4168 H 0.33647 0.35512 0.32727 0.0
H4169 H 0.35788 0.36839 0.31898 0.0
H4170 H 0.35657 0.39929 0.3365 0.0
H4171 H 0.33509 0.38615 0.34409 0.0
H4172 H 0.36687 0.40432 0.30658 0.0
H4173 H 0.37254 0.38777 0.36006 0.0
H4174 H 0.36954 0.37184 0.38116 0.0
H4175 H 0.38364 0.35785 0.3429 0.0
H4176 H 0.38657 0.3736 0.32147 0.0
H4177 H 0.43799 0.4317 0.3103 0.0
H4178 H 0.41783 0.42007 0.32416 0.0
H4179 H 0.40061 0.41243 0.27218 0.0
H4180 H 0.42062 0.42416 0.25838 0.0
H4181 H 0.40042 0.39732 0.32251 0.0
H4182 H 0.37357 0.41031 0.27336 0.0
H4183 H 0.37721 0.42775 0.25517 0.0
H4184 H 0.40651 0.45165 0.29042 0.0
H4185 H 0.40293 0.43438 0.30895 0.0
C4186 C 0.34079 0.36474 0.3295 0.0
C4187 C 0.33407 0.3696 0.33626 0.0
C4188 C 0.35306 0.37232 0.32484 0.0
C4189 C 0.35892 0.38487 0.32724 0.0
C4190 C 0.35227 0.38967 0.33443 0.0
C4191 C 0.33998 0.38213 0.3388 0.0
C4192 C 0.37173 0.39309 0.32135 0.0
C4193 C 0.37419 0.40279 0.31015 0.0
C4194 C 0.38141 0.39129 0.32624 0.0
C4195 C 0.37968 0.38181 0.3391 0.0
C4196 C 0.37492 0.38124 0.35609 0.0
C4197 C 0.37324 0.37225 0.36812 0.0
C4198 C 0.37637 0.36382 0.36336 0.0
C4199 C 0.38121 0.36438 0.34656 0.0
C4200 C 0.38289 0.37335 0.33448 0.0
C4201 C 0.42988 0.42758 0.30188 0.0
C4202 C 0.43087 0.42897 0.28327 0.0
C4203 C 0.41838 0.42092 0.30979 0.0
C4204 C 0.40768 0.4155 0.29924 0.0
C4205 C 0.40869 0.41676 0.28065 0.0
C4206 C 0.42015 0.4235 0.27277 0.0
C4207 C 0.39544 0.40838 0.30753 0.0
C4208 C 0.39308 0.39887 0.31909 0.0
C4209 C 0.38593 0.41056 0.30341 0.0
C4210 C 0.38804 0.42103 0.29246 0.0
C4211 C 0.38075 0.41929 0.27728 0.0
C4212 C 0.38281 0.42915 0.26689 0.0
C4213 C 0.39211 0.4408 0.2716 0.0
C4214 C 0.39934 0.44262 0.28675 0.0
C4215 C 0.39731 0.4328 0.29718 0.0
H4216 H 0.39369 0.44841 0.26354 0.0
H4217 H 0.37507 0.35686 0.37269 0.0
H4218 H 0.27813 0.28661 0.34668 0.0
H4219 H 0.28336 0.2713 0.35309 0.0
H4220 H 0.32044 0.29929 0.36563 0.0
H4221 H 0.31537 0.31462 0.35892 0.0
H4222 H 0.32039 0.28227 0.34636 0.0
H4223 H 0.29919 0.28317 0.39837 0.0
H4224 H 0.28195 0.28185 0.41472 0.0
H4225 H 0.25838 0.24553 0.39624 0.0
H4226 H 0.27545 0.24669 0.37959 0.0
H4227 H 0.34235 0.25312 0.401 0.0
H4228 H 0.33502 0.26554 0.38831 0.0
H4229 H 0.30037 0.23364 0.37544 0.0
H4230 H 0.30774 0.22101 0.3879 0.0
H4231 H 0.29762 0.2508 0.39198 0.0
H4232 H 0.31993 0.24948 0.34254 0.0
H4233 H 0.33761 0.25106 0.32718 0.0
H4234 H 0.35954 0.28845 0.34162 0.0
H4235 H 0.34204 0.28706 0.35729 0.0
C4236 C 0.28741 0.28951 0.35075 0.0
C4237 C 0.29631 0.30185 0.35235 0.0
C4238 C 0.29037 0.28074 0.35447 0.0
C4239 C 0.30227 0.28413 0.36005 0.0
C4240 C 0.31121 0.29644 0.36135 0.0
C4241 C 0.30827 0.3052 0.35756 0.0
C4242 C 0.30544 0.27492 0.36477 0.0
C4243 C 0.31546 0.27544 0.35643 0.0
C4244 C 0.29882 0.26578 0.37756 0.0
C4245 C 0.28855 0.26507 0.38756 0.0
C4246 C 0.2903 0.27494 0.39767 0.0
C4247 C 0.28057 0.27421 0.40702 0.0
C4248 C 0.26907 0.26363 0.40647 0.0
C4249 C 0.26729 0.25373 0.39662 0.0
C4250 C 0.27699 0.25442 0.38724 0.0
C4251 C 0.33326 0.24867 0.3951 0.0
C4252 C 0.32569 0.23601 0.39533 0.0
C4253 C 0.32906 0.25582 0.38791 0.0
C4254 C 0.3172 0.25053 0.38073 0.0
C4255 C 0.30958 0.23791 0.38088 0.0
C4256 C 0.3138 0.23071 0.38805 0.0
C4257 C 0.31269 0.2583 0.37379 0.0
C4258 C 0.30244 0.25751 0.38173 0.0
C4259 C 0.31914 0.26724 0.36071 0.0
C4260 C 0.32968 0.26814 0.3512 0.0
C4261 C 0.32854 0.25802 0.34255 0.0
C4262 C 0.33853 0.25888 0.33377 0.0
C4263 C 0.34969 0.26984 0.33345 0.0
C4264 C 0.35088 0.27997 0.34188 0.0
C4265 C 0.34093 0.27915 0.3507 0.0
H4266 H 0.35741 0.27049 0.32665 0.0
H4267 H 0.26154 0.26308 0.41372 0.0
H4268 H 0.69136 0.00816 0.35383 0.0
H4269 H 0.70286 0.02966 0.36183 0.0
H4270 H 0.73406 0.02698 0.37642 0.0
H4271 H 0.72279 0.0057 0.36848 0.0
H4272 H 0.72791 0.03807 0.40222 0.0
H4273 H 0.73384 0.03973 0.33814 0.0
H4274 H 0.72671 0.03594 0.30685 0.0
H4275 H 0.70918 0.05621 0.31398 0.0
H4276 H 0.71607 0.05999 0.34541 0.0
H4277 H 0.78064 0.09339 0.4082 0.0
H4278 H 0.76507 0.07394 0.39639 0.0
H4279 H 0.74121 0.08756 0.38617 0.0
H4280 H 0.75707 0.10744 0.39746 0.0
H4281 H 0.74007 0.07157 0.35925 0.0
H4282 H 0.7363 0.07216 0.42211 0.0
H4283 H 0.74358 0.07625 0.45329 0.0
H4284 H 0.75638 0.05167 0.44894 0.0
H4285 H 0.74936 0.04758 0.41762 0.0
C4286 C 0.70069 0.01218 0.35869 0.0
C4287 C 0.70615 0.0052 0.36054 0.0
C4288 C 0.70724 0.02445 0.3632 0.0
C4289 C 0.7193 0.02988 0.36971 0.0
C4290 C 0.72475 0.02294 0.37148 0.0
C4291 C 0.71828 0.01077 0.36687 0.0
C4292 C 0.72635 0.04273 0.37515 0.0
C4293 C 0.73058 0.04539 0.39282 0.0
C4294 C 0.72945 0.05227 0.36303 0.0
C4295 C 0.72533 0.05001 0.34417 0.0
C4296 C 0.72836 0.04328 0.33308 0.0
C4297 C 0.72439 0.04116 0.31531 0.0
C4298 C 0.71746 0.04579 0.30845 0.0
C4299 C 0.71452 0.0526 0.31933 0.0
C4300 C 0.71846 0.05474 0.33711 0.0
C4301 C 0.77227 0.09246 0.40295 0.0
C4302 C 0.77015 0.10205 0.40382 0.0
C4303 C 0.7633 0.08124 0.39638 0.0
C4304 C 0.75192 0.07925 0.39071 0.0
C4305 C 0.74992 0.08891 0.3906 0.0
C4306 C 0.75896 0.10023 0.39717 0.0
C4307 C 0.742 0.06684 0.38614 0.0
C4308 C 0.73719 0.06425 0.36872 0.0
C4309 C 0.73826 0.05732 0.39853 0.0
C4310 C 0.74236 0.05961 0.41746 0.0
C4311 C 0.74074 0.06768 0.42776 0.0
C4312 C 0.74481 0.07 0.44547 0.0
C4313 C 0.75045 0.06424 0.45309 0.0
C4314 C 0.75201 0.05613 0.44302 0.0
C4315 C 0.74797 0.05379 0.42529 0.0
H4316 H 0.75361 0.06605 0.4668 0.0
H4317 H 0.7144 0.04414 0.29469 0.0
H4318 H 0.98614 0.70964 0.34891 0.0
H4319 H 0.96452 0.69848 0.35636 0.0
H4320 H 0.96721 0.66796 0.37246 0.0
H4321 H 0.98892 0.67903 0.36439 0.0
H4322 H 0.94536 0.66063 0.35628 0.0
H4323 H 0.96896 0.68786 0.40342 0.0
H4324 H 0.98414 0.70744 0.41673 0.0
H4325 H 0.96311 0.72269 0.39852 0.0
H4326 H 0.94788 0.70324 0.38488 0.0
H4327 H 0.89256 0.63634 0.41268 0.0
H4328 H 0.91252 0.64382 0.39908 0.0
H4329 H 0.91312 0.67589 0.38179 0.0
H4330 H 0.89325 0.66851 0.39553 0.0
H4331 H 0.93344 0.68148 0.39925 0.0
H4332 H 0.90957 0.65365 0.35223 0.0
H4333 H 0.89447 0.63377 0.33964 0.0
H4334 H 0.91591 0.6192 0.35882 0.0
H4335 H 0.93106 0.63895 0.37174 0.0
C4336 C 0.98212 0.70051 0.35385 0.0
C4337 C 0.98927 0.69527 0.35632 0.0
C4338 C 0.96975 0.69414 0.35814 0.0
C4339 C 0.96432 0.6825 0.3654 0.0
C4340 C 0.97124 0.67697 0.36699 0.0
C4341 C 0.98364 0.6833 0.36241 0.0
C4342 C 0.95166 0.67654 0.3723 0.0
C4343 C 0.94277 0.66511 0.36584 0.0
C4344 C 0.94824 0.68243 0.38467 0.0
C4345 C 0.95733 0.69411 0.39301 0.0
C4346 C 0.96761 0.69541 0.40216 0.0
C4347 C 0.97622 0.70648 0.40977 0.0
C4348 C 0.9746 0.71631 0.40844 0.0
C4349 C 0.96436 0.71507 0.39953 0.0
C4350 C 0.95573 0.70402 0.39187 0.0
C4351 C 0.89683 0.64486 0.40562 0.0
C4352 C 0.89138 0.65188 0.40523 0.0
C4353 C 0.90824 0.64912 0.39784 0.0
C4354 C 0.91431 0.66041 0.38936 0.0
C4355 C 0.90863 0.66718 0.38833 0.0
C4356 C 0.89729 0.66297 0.39619 0.0
C4357 C 0.92702 0.66568 0.38292 0.0
C4358 C 0.93599 0.67699 0.38963 0.0
C4359 C 0.93046 0.65961 0.37094 0.0
C4360 C 0.92139 0.64775 0.3631 0.0
C4361 C 0.91101 0.64618 0.35389 0.0
C4362 C 0.90246 0.63494 0.34667 0.0
C4363 C 0.90421 0.62522 0.34847 0.0
C4364 C 0.91455 0.62673 0.35745 0.0
C4365 C 0.92313 0.63795 0.36471 0.0
H4366 H 0.89757 0.61653 0.34288 0.0
H4367 H 0.98128 0.72488 0.41433 0.0
H4368 H 0.35401 0.01851 0.65259 0.0
H4369 H 0.37059 0.01521 0.66072 0.0
H4370 H 0.3774 0.03587 0.70879 0.0
H4371 H 0.3609 0.03935 0.70066 0.0
H4372 H 0.3987 0.041 0.69312 0.0
H4373 H 0.36085 0.00543 0.70997 0.0
H4374 H 0.33993 0.98816 0.70488 0.0
H4375 H 0.35324 0.97414 0.66541 0.0
H4376 H 0.37422 0.99143 0.67009 0.0
H4377 H 0.42887 0.01916 0.74724 0.0
H4378 H 0.41562 0.02534 0.7335 0.0
H4379 H 0.40966 0.00249 0.68832 0.0
H4380 H 0.42296 0.99623 0.70205 0.0
H4381 H 0.38858 0.99876 0.70017 0.0
H4382 H 0.42681 0.0336 0.68499 0.0
H4383 H 0.44771 0.05085 0.69027 0.0
H4384 H 0.43389 0.06625 0.72655 0.0
H4385 H 0.41292 0.04901 0.72168 0.0
C4386 C 0.35908 0.02244 0.66483 0.0
C4387 C 0.35605 0.02912 0.67604 0.0
C4388 C 0.36855 0.02051 0.66948 0.0
C4389 C 0.37513 0.02515 0.68549 0.0
C4390 C 0.37243 0.03219 0.6964 0.0
C4391 C 0.36296 0.03413 0.69175 0.0
C4392 C 0.3845 0.02228 0.6912 0.0
C4393 C 0.39648 0.03177 0.69482 0.0
C4394 C 0.38168 0.01023 0.69299 0.0
C4395 C 0.36908 0.99979 0.69024 0.0
C4396 C 0.3593 0.99871 0.70011 0.0
C4397 C 0.34743 0.98891 0.69731 0.0
C4398 C 0.34525 0.98007 0.68479 0.0
C4399 C 0.35494 0.981 0.67508 0.0
C4400 C 0.36682 0.9908 0.67781 0.0
C4401 C 0.42501 0.01567 0.73417 0.0
C4402 C 0.42703 0.00723 0.72572 0.0
C4403 C 0.41739 0.0192 0.72633 0.0
C4404 C 0.41171 0.01447 0.70978 0.0
C4405 C 0.41393 0.00626 0.7011 0.0
C4406 C 0.42153 0.00268 0.70897 0.0
C4407 C 0.40281 0.01748 0.7022 0.0
C4408 C 0.39088 0.008 0.69829 0.0
C4409 C 0.4057 0.02954 0.70015 0.0
C4410 C 0.4183 0.03996 0.70307 0.0
C4411 C 0.42824 0.04062 0.6942 0.0
C4412 C 0.4401 0.0504 0.6971 0.0
C4413 C 0.44213 0.05962 0.70876 0.0
C4414 C 0.4323 0.05909 0.71752 0.0
C4415 C 0.42042 0.04933 0.71468 0.0
H4416 H 0.45132 0.06719 0.71099 0.0
H4417 H 0.33606 0.97249 0.68265 0.0
H4418 H 0.9939 0.35186 0.66658 0.0
H4419 H 0.99568 0.37077 0.67565 0.0
H4420 H 0.97101 0.35241 0.71902 0.0
H4421 H 0.96912 0.33343 0.71 0.0
H4422 H 0.96564 0.3677 0.70119 0.0
H4423 H 0.00116 0.36936 0.72696 0.0
H4424 H 0.02 0.36858 0.72651 0.0
H4425 H 0.0362 0.39837 0.69 0.0
H4426 H 0.01739 0.39922 0.69004 0.0
H4427 H 0.97815 0.41716 0.75624 0.0
H4428 H 0.97481 0.39861 0.74278 0.0
H4429 H 0.00216 0.41945 0.70346 0.0
H4430 H 0.00562 0.4381 0.71701 0.0
H4431 H 0.00612 0.40316 0.71738 0.0
H4432 H 0.97118 0.40239 0.69261 0.0
H4433 H 0.95239 0.40325 0.69276 0.0
H4434 H 0.93507 0.37206 0.72658 0.0
H4435 H 0.95381 0.3711 0.72685 0.0
C4436 C 0.98884 0.35182 0.67804 0.0
C4437 C 0.98141 0.34113 0.68761 0.0
C4438 C 0.98989 0.36266 0.68323 0.0
C4439 C 0.98355 0.36302 0.69809 0.0
C4440 C 0.97598 0.35233 0.7075 0.0
C4441 C 0.97496 0.3415 0.70237 0.0
C4442 C 0.98493 0.37457 0.70398 0.0
C4443 C 0.97446 0.37543 0.70491 0.0
C4444 C 0.99649 0.38474 0.70835 0.0
C4445 C 0.00782 0.38427 0.70836 0.0
C4446 C 0.00871 0.37568 0.71872 0.0
C4447 C 0.01938 0.37524 0.71856 0.0
C4448 C 0.02928 0.3834 0.70819 0.0
C4449 C 0.02852 0.39204 0.698 0.0
C4450 C 0.01786 0.39251 0.6981 0.0
C4451 C 0.98325 0.4178 0.74448 0.0
C4452 C 0.99213 0.42911 0.73767 0.0
C4453 C 0.98135 0.40717 0.73679 0.0
C4454 C 0.98816 0.4076 0.722 0.0
C4455 C 0.99681 0.41888 0.71488 0.0
C4456 C 0.99877 0.42953 0.72264 0.0
C4457 C 0.98681 0.39634 0.71469 0.0
C4458 C 0.99728 0.3955 0.71352 0.0
C4459 C 0.97526 0.38621 0.71003 0.0
C4460 C 0.96395 0.38674 0.70987 0.0
C4461 C 0.9634 0.39577 0.7002 0.0
C4462 C 0.95275 0.39627 0.70018 0.0
C4463 C 0.94255 0.38774 0.7097 0.0
C4464 C 0.94297 0.37867 0.71923 0.0
C4465 C 0.95361 0.37814 0.7193 0.0
H4466 H 0.93431 0.38814 0.70968 0.0
H4467 H 0.03754 0.38304 0.70809 0.0
H4468 H 0.6634 0.62164 0.6836 0.0
H4469 H 0.64163 0.61061 0.69055 0.0
H4470 H 0.64409 0.64393 0.70481 0.0
H4471 H 0.66593 0.65511 0.69768 0.0
H4472 H 0.63336 0.62559 0.73091 0.0
H4473 H 0.62918 0.63065 0.66845 0.0
H4474 H 0.63272 0.6297 0.63648 0.0
H4475 H 0.61614 0.59128 0.64006 0.0
H4476 H 0.61265 0.59202 0.67213 0.0
H4477 H 0.57132 0.59795 0.75048 0.0
H4478 H 0.59068 0.61123 0.73598 0.0
H4479 H 0.58945 0.5805 0.71207 0.0
H4480 H 0.56956 0.56713 0.72552 0.0
H4481 H 0.59939 0.59878 0.68971 0.0
H4482 H 0.60543 0.59331 0.75142 0.0
H4483 H 0.60242 0.59334 0.78378 0.0
H4484 H 0.61627 0.63138 0.78218 0.0
H4485 H 0.6192 0.63154 0.74973 0.0
C4486 C 0.6593 0.62666 0.68804 0.0
C4487 C 0.6664 0.63925 0.69017 0.0
C4488 C 0.64684 0.62034 0.69191 0.0
C4489 C 0.64126 0.62647 0.6981 0.0
C4490 C 0.64825 0.63906 0.69998 0.0
C4491 C 0.6607 0.64542 0.69587 0.0
C4492 C 0.62834 0.61958 0.7038 0.0
C4493 C 0.62588 0.61992 0.72185 0.0
C4494 C 0.61869 0.61188 0.69205 0.0
C4495 C 0.62075 0.6114 0.67274 0.0
C4496 C 0.62638 0.62201 0.66246 0.0
C4497 C 0.62836 0.62151 0.64431 0.0
C4498 C 0.62468 0.61044 0.63625 0.0
C4499 C 0.61899 0.59985 0.64632 0.0
C4500 C 0.617 0.6003 0.66449 0.0
C4501 C 0.57491 0.59397 0.74171 0.0
C4502 C 0.56885 0.58138 0.73936 0.0
C4503 C 0.58612 0.60161 0.73361 0.0
C4504 C 0.59169 0.59685 0.72332 0.0
C4505 C 0.58539 0.58438 0.72011 0.0
C4506 C 0.57407 0.57672 0.72799 0.0
C4507 C 0.60439 0.60477 0.71687 0.0
C4508 C 0.60683 0.60457 0.69874 0.0
C4509 C 0.6141 0.61246 0.72861 0.0
C4510 C 0.61241 0.61241 0.74812 0.0
C4511 C 0.60775 0.60166 0.75795 0.0
C4512 C 0.60607 0.60165 0.77631 0.0
C4513 C 0.60912 0.61235 0.78502 0.0
C4514 C 0.61389 0.6231 0.7754 0.0
C4515 C 0.61557 0.62316 0.75703 0.0
H4516 H 0.60781 0.61232 0.79924 0.0
H4517 H 0.62622 0.61008 0.62219 0.0
H4518 H 0.70849 0.71235 0.70612 0.0
H4519 H 0.70556 0.72872 0.69636 0.0
H4520 H 0.69331 0.71188 0.64479 0.0
H4521 H 0.69653 0.69573 0.65425 0.0
H4522 H 0.70812 0.73486 0.64055 0.0
H4523 H 0.67326 0.71063 0.6773 0.0
H4524 H 0.66242 0.7 0.7046 0.0
H4525 H 0.68039 0.73345 0.73343 0.0
H4526 H 0.69147 0.74427 0.70633 0.0
H4527 H 0.67803 0.76339 0.60686 0.0
H4528 H 0.68096 0.74798 0.62074 0.0
H4529 H 0.70017 0.77188 0.66476 0.0
H4530 H 0.69725 0.78744 0.6509 0.0
H4531 H 0.6828 0.74656 0.67427 0.0
H4532 H 0.71693 0.77063 0.63589 0.0
H4533 H 0.72657 0.78066 0.60764 0.0
H4534 H 0.70856 0.74642 0.58091 0.0
H4535 H 0.69865 0.7362 0.60896 0.0
C4536 C 0.70518 0.71214 0.69269 0.0
C4537 C 0.70274 0.70271 0.68098 0.0
C4538 C 0.70345 0.72148 0.68716 0.0
C4539 C 0.69906 0.72148 0.66989 0.0
C4540 C 0.6967 0.71211 0.65817 0.0
C4541 C 0.69854 0.70285 0.66362 0.0
C4542 C 0.69707 0.73129 0.66383 0.0
C4543 C 0.70248 0.73731 0.64788 0.0
C4544 C 0.68993 0.73472 0.67353 0.0
C4545 C 0.6833 0.72824 0.68984 0.0
C4546 C 0.67498 0.71571 0.6895 0.0
C4547 C 0.66877 0.70965 0.70493 0.0
C4548 C 0.67074 0.71604 0.72076 0.0
C4549 C 0.67889 0.72851 0.72117 0.0
C4550 C 0.68513 0.73461 0.70578 0.0
C4551 C 0.68265 0.7653 0.61968 0.0
C4552 C 0.6874 0.77663 0.6278 0.0
C4553 C 0.68438 0.75651 0.62753 0.0
C4554 C 0.69085 0.75884 0.64369 0.0
C4555 C 0.69516 0.76993 0.65227 0.0
C4556 C 0.69354 0.77881 0.64431 0.0
C4557 C 0.69371 0.74991 0.65096 0.0
C4558 C 0.68849 0.74411 0.66709 0.0
C4559 C 0.70091 0.74657 0.64134 0.0
C4560 C 0.70696 0.75267 0.6245 0.0
C4561 C 0.71495 0.76525 0.62396 0.0
C4562 C 0.72047 0.77097 0.60799 0.0
C4563 C 0.71816 0.76418 0.59248 0.0
C4564 C 0.71033 0.75166 0.59293 0.0
C4565 C 0.70477 0.74591 0.60887 0.0
H4566 H 0.72244 0.76862 0.58013 0.0
H4567 H 0.66593 0.71134 0.73269 0.0
H4568 H 0.2777 0.99504 0.67328 0.0
H4569 H 0.2671 0.97326 0.66922 0.0
H4570 H 0.30173 0.97528 0.66604 0.0
H4571 H 0.31249 0.99721 0.67 0.0
H4572 H 0.2862 0.96206 0.63899 0.0
H4573 H 0.28423 0.96305 0.70228 0.0
H4574 H 0.28021 0.96907 0.73124 0.0
H4575 H 0.2422 0.9527 0.71718 0.0
H4576 H 0.24602 0.94673 0.68802 0.0
H4577 H 0.25787 0.89911 0.63321 0.0
H4578 H 0.27023 0.91929 0.64575 0.0
H4579 H 0.23799 0.9216 0.65066 0.0
H4580 H 0.22541 0.90114 0.63874 0.0
H4581 H 0.2537 0.9323 0.67882 0.0
H4582 H 0.25598 0.93324 0.61478 0.0
H4583 H 0.25974 0.92738 0.58549 0.0
H4584 H 0.29703 0.94043 0.60077 0.0
H4585 H 0.29344 0.94621 0.63027 0.0
C4586 C 0.2831 0.99087 0.67186 0.0
C4587 C 0.29596 0.99789 0.67193 0.0
C4588 C 0.27701 0.97839 0.66965 0.0
C4589 C 0.28362 0.97262 0.6675 0.0
C4590 C 0.29646 0.97955 0.66774 0.0
C4591 C 0.30259 0.99208 0.67005 0.0
C4592 C 0.27703 0.95946 0.66394 0.0
C4593 C 0.27928 0.95552 0.64789 0.0
C4594 C 0.26778 0.95098 0.67533 0.0
C4595 C 0.26543 0.95452 0.69289 0.0
C4596 C 0.27503 0.96081 0.7053 0.0
C4597 C 0.27278 0.9642 0.72177 0.0
C4598 C 0.26096 0.96129 0.72603 0.0
C4599 C 0.25135 0.95496 0.71385 0.0
C4600 C 0.25355 0.95155 0.69736 0.0
C4601 C 0.25331 0.90373 0.63743 0.0
C4602 C 0.24062 0.89849 0.63486 0.0
C4603 C 0.26044 0.91534 0.64442 0.0
C4604 C 0.25507 0.92203 0.64882 0.0
C4605 C 0.24233 0.91662 0.64725 0.0
C4606 C 0.23516 0.90496 0.6403 0.0
C4607 C 0.26282 0.93494 0.65384 0.0
C4608 C 0.26075 0.93883 0.67008 0.0
C4609 C 0.2722 0.94341 0.64259 0.0
C4610 C 0.27441 0.94003 0.6248 0.0
C4611 C 0.26496 0.93478 0.61195 0.0
C4612 C 0.26706 0.93148 0.5953 0.0
C4613 C 0.27861 0.9335 0.59129 0.0
C4614 C 0.28809 0.93885 0.6039 0.0
C4615 C 0.28603 0.94214 0.62059 0.0
H4616 H 0.28022 0.93094 0.57839 0.0
H4617 H 0.25924 0.96392 0.73879 0.0
H4618 H 0.00709 0.29196 0.66314 0.0
H4619 H 0.02886 0.30112 0.65831 0.0
H4620 H 0.03534 0.33499 0.67868 0.0
H4621 H 0.01328 0.32588 0.68311 0.0
H4622 H 0.04826 0.33885 0.6499 0.0
H4623 H 0.04357 0.31735 0.70319 0.0
H4624 H 0.03444 0.30023 0.72411 0.0
H4625 H 0.04229 0.27951 0.68836 0.0
H4626 H 0.05131 0.29644 0.66708 0.0
H4627 H 0.11247 0.35917 0.64406 0.0
H4628 H 0.09298 0.35328 0.65806 0.0
H4629 H 0.07577 0.31924 0.63041 0.0
H4630 H 0.09491 0.32522 0.6156 0.0
H4631 H 0.07004 0.31805 0.66822 0.0
H4632 H 0.07195 0.33947 0.61352 0.0
H4633 H 0.08149 0.35716 0.59363 0.0
H4634 H 0.07954 0.37894 0.63468 0.0
H4635 H 0.07015 0.3614 0.65492 0.0
C4636 C 0.0131 0.30134 0.66674 0.0
C4637 C 0.00841 0.30816 0.67361 0.0
C4638 C 0.02561 0.30656 0.66407 0.0
C4639 C 0.03382 0.31869 0.66848 0.0
C4640 C 0.0292 0.32558 0.6753 0.0
C4641 C 0.0166 0.32036 0.67785 0.0
C4642 C 0.0471 0.32413 0.66508 0.0
C4643 C 0.05309 0.33445 0.65429 0.0
C4644 C 0.05346 0.3184 0.67071 0.0
C4645 C 0.04807 0.30817 0.68348 0.0
C4646 C 0.04328 0.30912 0.69972 0.0
C4647 C 0.03813 0.29944 0.71166 0.0
C4648 C 0.03777 0.28878 0.70756 0.0
C4649 C 0.04258 0.28778 0.69152 0.0
C4650 C 0.04773 0.29742 0.67952 0.0
C4651 C 0.10454 0.35045 0.64083 0.0
C4652 C 0.10534 0.34272 0.62856 0.0
C4653 C 0.09344 0.34708 0.64898 0.0
C4654 C 0.08296 0.33585 0.64522 0.0
C4655 C 0.08379 0.32792 0.63356 0.0
C4656 C 0.09481 0.33135 0.62519 0.0
C4657 C 0.07094 0.33246 0.6527 0.0
C4658 C 0.06523 0.32254 0.66422 0.0
C4659 C 0.06493 0.33866 0.64799 0.0
C4660 C 0.0705 0.34917 0.6358 0.0
C4661 C 0.07367 0.34806 0.61836 0.0
C4662 C 0.07902 0.35805 0.60701 0.0
C4663 C 0.08116 0.36918 0.61291 0.0
C4664 C 0.0779 0.37033 0.63015 0.0
C4665 C 0.07257 0.36036 0.64156 0.0
H4666 H 0.0853 0.37691 0.6041 0.0
H4667 H 0.03378 0.2813 0.71682 0.0
H4668 H 0.31659 0.31145 0.65322 0.0
H4669 H 0.30088 0.31606 0.64532 0.0
H4670 H 0.28407 0.30297 0.69646 0.0
H4671 H 0.2998 0.29833 0.70453 0.0
H4672 H 0.26725 0.29454 0.66814 0.0
H4673 H 0.3003 0.33231 0.69 0.0
H4674 H 0.32166 0.3493 0.69191 0.0
H4675 H 0.32019 0.3577 0.63686 0.0
H4676 H 0.29887 0.34065 0.63455 0.0
H4677 H 0.22628 0.31541 0.6539 0.0
H4678 H 0.24197 0.31237 0.66763 0.0
H4679 H 0.2651 0.32905 0.62215 0.0
H4680 H 0.24963 0.33232 0.60863 0.0
H4681 H 0.27858 0.33603 0.65088 0.0
H4682 H 0.24683 0.29764 0.62769 0.0
H4683 H 0.22571 0.28033 0.62448 0.0
H4684 H 0.22497 0.27275 0.68036 0.0
H4685 H 0.24604 0.29012 0.68394 0.0
C4686 C 0.30955 0.30952 0.6628 0.0
C4687 C 0.30948 0.30455 0.67954 0.0
C4688 C 0.30061 0.31222 0.65829 0.0
C4689 C 0.29139 0.30997 0.67038 0.0
C4690 C 0.29114 0.3048 0.68696 0.0
C4691 C 0.30015 0.30219 0.69156 0.0
C4692 C 0.28199 0.31298 0.66557 0.0
C4693 C 0.26969 0.30365 0.66466 0.0
C4694 C 0.28522 0.32482 0.66069 0.0
C4695 C 0.29801 0.33514 0.66207 0.0
C4696 C 0.30456 0.33773 0.67827 0.0
C4697 C 0.31665 0.34738 0.67943 0.0
C4698 C 0.32228 0.35456 0.66451 0.0
C4699 C 0.31582 0.35212 0.64841 0.0
C4700 C 0.30372 0.34247 0.64717 0.0
C4701 C 0.23477 0.31851 0.64693 0.0
C4702 C 0.23672 0.32411 0.6302 0.0
C4703 C 0.24371 0.31674 0.65475 0.0
C4704 C 0.25466 0.32031 0.6458 0.0
C4705 C 0.25676 0.32623 0.62935 0.0
C4706 C 0.24791 0.32813 0.62165 0.0
C4707 C 0.26381 0.31755 0.65313 0.0
C4708 C 0.2761 0.32694 0.65452 0.0
C4709 C 0.26058 0.30573 0.65826 0.0
C4710 C 0.24795 0.29525 0.65612 0.0
C4711 C 0.24213 0.29233 0.63931 0.0
C4712 C 0.23018 0.2825 0.63742 0.0
C4713 C 0.22399 0.27547 0.65222 0.0
C4714 C 0.22977 0.27822 0.66892 0.0
C4715 C 0.24171 0.28805 0.67089 0.0
H4716 H 0.21474 0.26786 0.65073 0.0
H4717 H 0.33165 0.36203 0.66543 0.0
H4718 H 0.69982 0.00692 0.6591 0.0
H4719 H 0.69684 0.98752 0.65013 0.0
H4720 H 0.6662 0.96918 0.68553 0.0
H4721 H 0.66923 0.9886 0.69481 0.0
H4722 H 0.68012 0.95911 0.68682 0.0
H4723 H 0.66152 0.97051 0.64125 0.0
H4724 H 0.66053 0.98392 0.61875 0.0
H4725 H 0.6896 0.98463 0.58981 0.0
H4726 H 0.69087 0.97135 0.61228 0.0
H4727 H 0.6544 0.90098 0.64565 0.0
H4728 H 0.65809 0.91995 0.65826 0.0
H4729 H 0.68892 0.93985 0.6236 0.0
H4730 H 0.68506 0.92102 0.61056 0.0
H4731 H 0.67432 0.94883 0.6225 0.0
H4732 H 0.69276 0.93721 0.66841 0.0
H4733 H 0.6934 0.92364 0.69095 0.0
H4734 H 0.66414 0.92301 0.71921 0.0
H4735 H 0.66321 0.93645 0.6967 0.0
C4736 C 0.69248 0.99877 0.66507 0.0
C4737 C 0.6847 0.99932 0.67759 0.0
C4738 C 0.69076 0.98768 0.65988 0.0
C4739 C 0.68117 0.97687 0.66695 0.0
C4740 C 0.67363 0.97739 0.67986 0.0
C4741 C 0.67537 0.98851 0.68511 0.0
C4742 C 0.67883 0.96505 0.66046 0.0
C4743 C 0.67869 0.95679 0.67278 0.0
C4744 C 0.67715 0.96208 0.64212 0.0
C4745 C 0.67637 0.97002 0.62854 0.0
C4746 C 0.66776 0.97359 0.63016 0.0
C4747 C 0.66714 0.98116 0.6174 0.0
C4748 C 0.67502 0.98515 0.60289 0.0
C4749 C 0.68351 0.98155 0.60107 0.0
C4750 C 0.68418 0.97399 0.6138 0.0
C4751 C 0.66199 0.9094 0.64075 0.0
C4752 C 0.66945 0.90945 0.62711 0.0
C4753 C 0.66415 0.92024 0.64807 0.0
C4754 C 0.67383 0.93134 0.64195 0.0
C4755 C 0.6814 0.9314 0.62856 0.0
C4756 C 0.67926 0.9206 0.62125 0.0
C4757 C 0.67577 0.94293 0.64882 0.0
C4758 C 0.67576 0.95114 0.63655 0.0
C4759 C 0.67727 0.9458 0.66719 0.0
C4760 C 0.67783 0.93774 0.68076 0.0
C4761 C 0.68639 0.9341 0.67935 0.0
C4762 C 0.68682 0.92644 0.69213 0.0
C4763 C 0.6788 0.92244 0.70647 0.0
C4764 C 0.67034 0.9261 0.70808 0.0
C4765 C 0.66987 0.93375 0.69532 0.0
H4766 H 0.67915 0.91651 0.71636 0.0
H4767 H 0.67453 0.99101 0.59302 0.0
H4768 H 0.00408 0.71897 0.66137 0.0
H4769 H 0.02557 0.72948 0.65322 0.0
H4770 H 0.02546 0.6963 0.65818 0.0
H4771 H 0.00381 0.68562 0.66624 0.0
H4772 H 0.04606 0.73325 0.66995 0.0
H4773 H 0.04423 0.69656 0.62525 0.0
H4774 H 0.02932 0.67909 0.60721 0.0
H4775 H 0.00786 0.69544 0.59897 0.0
H4776 H 0.02272 0.71307 0.61676 0.0
H4777 H 0.10675 0.75287 0.64004 0.0
H4778 H 0.08629 0.74051 0.65274 0.0
H4779 H 0.07019 0.7435 0.60361 0.0
H4780 H 0.09048 0.75554 0.59074 0.0
H4781 H 0.05819 0.72067 0.61564 0.0
H4782 H 0.07301 0.76049 0.63943 0.0
H4783 H 0.08747 0.77902 0.65587 0.0
H4784 H 0.08219 0.75823 0.70327 0.0
H4785 H 0.06781 0.73955 0.68703 0.0
C4786 C 0.0086 0.71388 0.6608 0.0
C4787 C 0.00218 0.70142 0.66434 0.0
C4788 C 0.02093 0.71993 0.65623 0.0
C4789 C 0.02711 0.71368 0.65499 0.0
C4790 C 0.02083 0.70129 0.65891 0.0
C4791 C 0.00847 0.6952 0.66353 0.0
C4792 C 0.03995 0.72012 0.64886 0.0
C4793 C 0.04874 0.73043 0.65818 0.0
C4794 C 0.04343 0.71653 0.63339 0.0
C4795 C 0.0345 0.70605 0.62251 0.0
C4796 C 0.03634 0.69643 0.61955 0.0
C4797 C 0.0279 0.6865 0.60937 0.0
C4798 C 0.01762 0.68613 0.60201 0.0
C4799 C 0.01579 0.69572 0.60474 0.0
C4800 C 0.02421 0.70567 0.61489 0.0
C4801 C 0.09883 0.75085 0.63195 0.0
C4802 C 0.10024 0.75527 0.61444 0.0
C4803 C 0.08717 0.74384 0.63925 0.0
C4804 C 0.07672 0.74113 0.62914 0.0
C4805 C 0.07812 0.74547 0.61164 0.0
C4806 C 0.08974 0.75248 0.60438 0.0
C4807 C 0.06428 0.73385 0.63667 0.0
C4808 C 0.05557 0.72336 0.62761 0.0
C4809 C 0.06083 0.7374 0.6522 0.0
C4810 C 0.06945 0.74862 0.66197 0.0
C4811 C 0.07501 0.75986 0.65332 0.0
C4812 C 0.08318 0.77039 0.66261 0.0
C4813 C 0.08578 0.7698 0.68059 0.0
C4814 C 0.08019 0.75868 0.68933 0.0
C4815 C 0.07202 0.74812 0.6801 0.0
H4816 H 0.0921 0.77796 0.68776 0.0
H4817 H 0.0111 0.67844 0.59414 0.0
H4818 H 0.95994 0.6286 0.65497 0.0
H4819 H 0.96309 0.61232 0.66455 0.0
H4820 H 0.97656 0.6297 0.7155 0.0
H4821 H 0.97344 0.64597 0.70609 0.0
H4822 H 0.99116 0.62206 0.70111 0.0
H4823 H 0.94822 0.60586 0.71186 0.0
H4824 H 0.92712 0.59992 0.70346 0.0
H4825 H 0.92612 0.57542 0.66437 0.0
H4826 H 0.94729 0.58135 0.67239 0.0
H4827 H 0.98746 0.57627 0.7565 0.0
H4828 H 0.98594 0.59225 0.74181 0.0
H4829 H 0.9692 0.56945 0.69583 0.0
H4830 H 0.97058 0.55329 0.71063 0.0
H4831 H 0.9568 0.57956 0.70452 0.0
H4832 H 0.99897 0.59431 0.695 0.0
H4833 H 0.0201 0.60015 0.70293 0.0
H4834 H 0.02289 0.62726 0.73849 0.0
H4835 H 0.00171 0.62147 0.73096 0.0
C4836 C 0.96356 0.62895 0.66823 0.0
C4837 C 0.9664 0.63858 0.67978 0.0
C4838 C 0.96533 0.61963 0.67368 0.0
C4839 C 0.97002 0.61978 0.69077 0.0
C4840 C 0.97295 0.62942 0.70226 0.0
C4841 C 0.9711 0.63868 0.69687 0.0
C4842 C 0.97185 0.60989 0.69679 0.0
C4843 C 0.98364 0.61277 0.702 0.0
C4844 C 0.96211 0.59773 0.69739 0.0
C4845 C 0.94938 0.59415 0.69258 0.0
C4846 C 0.94354 0.59929 0.70137 0.0
C4847 C 0.93156 0.5959 0.69669 0.0
C4848 C 0.9253 0.58732 0.68335 0.0
C4849 C 0.93099 0.58208 0.67468 0.0
C4850 C 0.94298 0.58545 0.67929 0.0
C4851 C 0.9837 0.57473 0.7431 0.0
C4852 C 0.97923 0.56353 0.73468 0.0
C4853 C 0.98282 0.58389 0.7347 0.0
C4854 C 0.9776 0.58214 0.71758 0.0
C4855 C 0.97327 0.57102 0.70902 0.0
C4856 C 0.97407 0.5618 0.71749 0.0
C4857 C 0.97611 0.59172 0.70913 0.0
C4858 C 0.96438 0.58881 0.70345 0.0
C4859 C 0.98593 0.60384 0.70798 0.0
C4860 C 0.9987 0.60739 0.71251 0.0
C4861 C 0.00405 0.60146 0.7046 0.0
C4862 C 0.01605 0.60477 0.70901 0.0
C4863 C 0.02283 0.61405 0.72123 0.0
C4864 C 0.01763 0.62006 0.72903 0.0
C4865 C 0.00563 0.61678 0.72468 0.0
H4866 H 0.03212 0.6166 0.72462 0.0
H4867 H 0.91602 0.58471 0.67975 0.0
H4868 H 0.36052 0.34064 0.68586 0.0
H4869 H 0.37308 0.36185 0.69516 0.0
H4870 H 0.40028 0.355 0.71677 0.0
H4871 H 0.38796 0.334 0.70754 0.0
H4872 H 0.39412 0.36756 0.74001 0.0
H4873 H 0.40486 0.36856 0.67778 0.0
H4874 H 0.40022 0.3654 0.64559 0.0
H4875 H 0.38619 0.38909 0.64674 0.0
H4876 H 0.3906 0.39225 0.67901 0.0
H4877 H 0.45019 0.41921 0.7516 0.0
H4878 H 0.43375 0.40052 0.73887 0.0
H4879 H 0.41485 0.41847 0.7222 0.0
H4880 H 0.43163 0.43754 0.73447 0.0
H4881 H 0.41335 0.40147 0.69694 0.0
H4882 H 0.40543 0.40284 0.75836 0.0
H4883 H 0.41068 0.40642 0.79035 0.0
H4884 H 0.41903 0.37838 0.79097 0.0
H4885 H 0.414 0.37474 0.75892 0.0
C4886 C 0.36918 0.34368 0.69259 0.0
C4887 C 0.37325 0.33564 0.69593 0.0
C4888 C 0.37634 0.35578 0.69785 0.0
C4889 C 0.3876 0.35997 0.70663 0.0
C4890 C 0.3916 0.35193 0.71006 0.0
C4891 C 0.38455 0.33993 0.70469 0.0
C4892 C 0.39539 0.37269 0.71243 0.0
C4893 C 0.39831 0.37497 0.7306 0.0
C4894 C 0.40053 0.3824 0.7002 0.0
C4895 C 0.39791 0.38051 0.68083 0.0
C4896 C 0.40068 0.373 0.67119 0.0
C4897 C 0.39812 0.37123 0.65293 0.0
C4898 C 0.39287 0.377 0.64414 0.0
C4899 C 0.39022 0.38459 0.65358 0.0
C4900 C 0.39275 0.38638 0.67185 0.0
C4901 C 0.44275 0.41935 0.7448 0.0
C4902 C 0.44226 0.42993 0.74408 0.0
C4903 C 0.43326 0.40859 0.7377 0.0
C4904 C 0.42299 0.40807 0.72989 0.0
C4905 C 0.42268 0.41868 0.72829 0.0
C4906 C 0.43222 0.42953 0.73541 0.0
C4907 C 0.4124 0.39622 0.72442 0.0
C4908 C 0.40893 0.3941 0.70639 0.0
C4909 C 0.40667 0.38663 0.73679 0.0
C4910 C 0.4094 0.38857 0.75619 0.0
C4911 C 0.40844 0.39747 0.7653 0.0
C4912 C 0.41138 0.39951 0.78344 0.0
C4913 C 0.41522 0.39265 0.79266 0.0
C4914 C 0.41606 0.38369 0.7838 0.0
C4915 C 0.41315 0.38162 0.76565 0.0
H4916 H 0.41756 0.39429 0.80668 0.0
H4917 H 0.3909 0.37563 0.63 0.0
H4918 H 0.65614 0.01496 0.69057 0.0
H4919 H 0.63464 0.00592 0.69887 0.0
H4920 H 0.63777 0.04048 0.69265 0.0
H4921 H 0.65916 0.04957 0.68466 0.0
H4922 H 0.62773 0.03056 0.72361 0.0
H4923 H 0.62184 0.01746 0.66246 0.0
H4924 H 0.6242 0.00741 0.6364 0.0
H4925 H 0.60674 0.97367 0.66448 0.0
H4926 H 0.60442 0.98356 0.6908 0.0
H4927 H 0.56625 0.01384 0.73175 0.0
H4928 H 0.58624 0.02087 0.71857 0.0
H4929 H 0.58138 0.98571 0.72656 0.0
H4930 H 0.56141 0.97862 0.73973 0.0
H4931 H 0.59213 0.99518 0.69488 0.0
H4932 H 0.59815 0.008 0.75584 0.0
H4933 H 0.59581 0.01778 0.78225 0.0
H4934 H 0.61333 0.05181 0.75496 0.0
H4935 H 0.61561 0.04219 0.72828 0.0
C4936 C 0.6522 0.02059 0.69079 0.0
C4937 C 0.6594 0.033 0.68706 0.0
C4938 C 0.63991 0.01541 0.69548 0.0
C4939 C 0.63459 0.02253 0.69635 0.0
C4940 C 0.64169 0.03482 0.69215 0.0
C4941 C 0.65393 0.04 0.68755 0.0
C4942 C 0.62185 0.01743 0.70255 0.0
C4943 C 0.61994 0.02293 0.71714 0.0
C4944 C 0.61172 0.00724 0.69449 0.0
C4945 C 0.61307 0.00128 0.67866 0.0
C4946 C 0.61859 0.00792 0.66313 0.0
C4947 C 0.61991 0.00225 0.6483 0.0
C4948 C 0.61565 0.98992 0.6488 0.0
C4949 C 0.61004 0.98323 0.66412 0.0
C4950 C 0.60872 0.98886 0.67899 0.0
C4951 C 0.56942 0.00759 0.73061 0.0
C4952 C 0.56227 0.99569 0.73689 0.0
C4953 C 0.58083 0.01161 0.72306 0.0
C4954 C 0.58538 0.00386 0.72183 0.0
C4955 C 0.57805 0.99184 0.72737 0.0
C4956 C 0.56662 0.9878 0.73485 0.0
C4957 C 0.59804 0.00847 0.7157 0.0
C4958 C 0.59994 0.00284 0.70125 0.0
C4959 C 0.60822 0.01852 0.72393 0.0
C4960 C 0.60694 0.02435 0.74 0.0
C4961 C 0.60142 0.01755 0.75542 0.0
C4962 C 0.60012 0.02307 0.77045 0.0
C4963 C 0.60439 0.0354 0.77027 0.0
C4964 C 0.61001 0.04225 0.75507 0.0
C4965 C 0.61132 0.03678 0.74 0.0
H4966 H 0.60337 0.03966 0.78191 0.0
H4967 H 0.61668 0.98555 0.63731 0.0
loop_
_geom_bond_atom_site_label_1
_geom_bond_atom_site_label_2
_geom_bond_distance
_geom_bond_site_symmetry_2
_ccdc_geom_bond_type
Zn0 O3 2.067 . S
Zn0 O5 2.049 . S
Zn0 O10 2.050 1_554 S
Zn1 O2 1.962 1_455 S
Zn1 O4 1.986 . S
Zn1 O6 1.996 1_455 S
Zn1 O9 1.943 . S
O2 Zn1 1.962 1_655 S
O2 C7 1.254 . S
O3 Zn0 2.067 . S
O3 C7 1.292 . S
O4 Zn1 1.986 . S
O4 C11 1.262 . S
O5 Zn0 2.049 . S
O5 C13 1.260 . S
O6 Zn1 1.996 1_655 S
O6 C13 1.257 . S
C7 O2 1.254 . S
C7 O3 1.292 . S
C8 O9 1.249 1_556 S
C8 O10 1.282 1_455 S
O9 Zn1 1.943 . S
O9 C8 1.249 1_554 S
O10 Zn0 2.050 1_556 S
O10 C8 1.282 1_655 S
C11 O4 1.262 . S
C11 O12 1.232 . S
O12 C11 1.232 . S
C13 O5 1.260 . S
C13 O6 1.257 . S
Zn14 O17 2.031 . S
Zn14 O19 2.049 . S
Zn14 O24 2.065 1_554 S
Zn15 O16 1.962 . S
Zn15 O18 1.986 . S
Zn15 O20 1.996 . S
Zn15 O23 1.943 . S
O16 Zn15 1.962 . S
O16 C21 1.254 . S
O17 Zn14 2.031 . S
O17 C21 1.269 . S
O18 Zn15 1.986 . S
O18 C25 1.262 . S
O19 Zn14 2.049 . S
O19 C27 1.260 . S
O20 Zn15 1.996 . S
O20 C27 1.257 . S
C21 O16 1.254 . S
C21 O17 1.269 . S
C22 O23 1.249 1_556 S
C22 O24 1.272 . S
O23 Zn15 1.943 . S
O23 C22 1.249 1_554 S
O24 Zn14 2.065 1_556 S
O24 C22 1.272 . S
C25 O18 1.262 . S
C25 O26 1.232 . S
O26 C25 1.232 . S
C27 O19 1.260 . S
C27 O20 1.257 . S
Zn28 O31 2.031 . S
Zn28 O33 2.049 1_554 S
Zn28 O38 2.067 . S
Zn29 O30 1.962 1_545 S
Zn29 O32 1.986 1_554 S
Zn29 O34 1.916 1_544 S
Zn29 O37 1.943 . S
O30 Zn29 1.962 1_565 S
O30 C35 1.254 . S
O31 Zn28 2.031 . S
O31 C35 1.269 . S
O32 Zn29 1.986 1_556 S
O32 C39 1.262 1_556 S
O33 Zn28 2.049 1_556 S
O33 C41 1.260 . S
O34 Zn29 1.916 1_566 S
O34 C41 1.331 . S
C35 O30 1.254 . S
C35 O31 1.269 . S
C36 O37 1.249 . S
C36 O38 1.270 1_545 S
O37 Zn29 1.943 . S
O37 C36 1.249 . S
O38 Zn28 2.067 . S
O38 C36 1.270 1_565 S
C39 O32 1.262 1_554 S
C39 O40 1.232 . S
O40 C39 1.232 . S
C41 O33 1.260 . S
C41 O34 1.331 . S
Zn42 O45 2.031 . S
Zn42 O47 2.049 1_554 S
Zn42 O52 2.067 . S
Zn43 O44 1.962 1_655 S
Zn43 O46 1.986 1_554 S
Zn43 O48 1.996 1_654 S
Zn43 O51 1.943 . S
O44 Zn43 1.962 1_455 S
O44 C49 1.254 . S
O45 Zn42 2.031 . S
O45 C49 1.269 . S
O46 Zn43 1.986 1_556 S
O46 C53 1.262 1_556 S
O47 Zn42 2.049 1_556 S
O47 C55 1.260 . S
O48 Zn43 1.996 1_456 S
O48 C55 1.257 . S
C49 O44 1.254 . S
C49 O45 1.269 . S
C50 O51 1.331 . S
C50 O52 1.176 1_655 S
O51 Zn43 1.943 . S
O51 C50 1.331 . S
O52 Zn42 2.067 . S
O52 C50 1.176 1_455 S
C53 O46 1.262 1_554 S
C53 O54 1.232 . S
O54 C53 1.232 . S
C55 O47 1.260 . S
C55 O48 1.257 . S
Zn56 O59 2.031 . S
Zn56 O61 2.049 1_554 S
Zn56 O66 2.067 . S
Zn57 O58 1.962 . S
Zn57 O60 1.986 1_554 S
Zn57 O62 1.996 1_554 S
Zn57 O65 1.943 . S
O58 Zn57 1.962 . S
O58 C63 1.254 . S
O59 Zn56 2.031 . S
O59 C63 1.269 . S
O60 Zn57 1.986 1_556 S
O60 C67 1.262 1_556 S
O61 Zn56 2.049 1_556 S
O61 C69 1.260 . S
O62 Zn57 1.996 1_556 S
O62 C69 1.257 . S
C63 O58 1.254 . S
C63 O59 1.269 . S
C64 O65 1.249 . S
C64 O66 1.270 . S
O65 Zn57 1.943 . S
O65 C64 1.249 . S
O66 Zn56 2.067 . S
O66 C64 1.270 . S
C67 O60 1.262 1_554 S
C67 O68 1.232 . S
O68 C67 1.232 . S
C69 O61 1.260 . S
C69 O62 1.257 . S
Zn70 O73 2.031 . S
Zn70 O75 2.049 . S
Zn70 O80 2.067 . S
Zn71 O72 1.962 1_565 S
Zn71 O74 1.986 . S
Zn71 O76 1.996 1_565 S
Zn71 O79 1.943 . S
O72 Zn71 1.962 1_545 S
O72 C77 1.254 . S
O73 Zn70 2.031 . S
O73 C77 1.269 . S
O74 Zn71 1.986 . S
O74 C81 1.262 . S
O75 Zn70 2.049 . S
O75 C83 1.260 . S
O76 Zn71 1.996 1_545 S
O76 C83 1.257 . S
C77 O72 1.254 . S
C77 O73 1.269 . S
C78 O79 1.249 1_556 S
C78 O80 1.270 1_566 S
O79 Zn71 1.943 . S
O79 C78 1.249 1_554 S
O80 Zn70 2.067 . S
O80 C78 1.270 1_544 S
C81 O74 1.262 . S
C81 O82 1.232 . S
O82 C81 1.232 . S
C83 O75 1.260 . S
C83 O76 1.257 . S
Zn84 O87 2.031 . S
Zn84 O89 2.049 . S
Zn84 O94 2.067 . S
Zn85 O86 1.962 . S
Zn85 O88 1.986 . S
Zn85 O90 1.996 . S
Zn85 O93 1.943 . S
O86 Zn85 1.962 . S
O86 C91 1.254 . S
O87 Zn84 2.031 . S
O87 C91 1.269 . S
O88 Zn85 1.986 . S
O88 C95 1.262 . S
O89 Zn84 2.049 . S
O89 C97 1.260 . S
O90 Zn85 1.996 . S
O90 C97 1.257 . S
C91 O86 1.254 . S
C91 O87 1.269 . S
C92 O93 1.249 . S
C92 O94 1.270 . S
O93 Zn85 1.943 . S
O93 C92 1.249 . S
O94 Zn84 2.067 . S
O94 C92 1.270 . S
C95 O88 1.262 . S
C95 O96 1.232 . S
O96 C95 1.232 . S
C97 O89 1.260 . S
C97 O90 1.257 . S
Zn98 O101 2.031 . S
Zn98 O103 2.049 . S
Zn98 O108 2.067 . S
Zn99 O100 1.962 . S
Zn99 O102 1.986 . S
Zn99 O104 1.996 . S
Zn99 O107 1.943 . S
O100 Zn99 1.962 . S
O100 C105 1.254 . S
O101 Zn98 2.031 . S
O101 C105 1.269 . S
O102 Zn99 1.986 . S
O102 C109 1.262 1_565 S
O103 Zn98 2.049 . S
O103 C111 1.260 . S
O104 Zn99 1.996 . S
O104 C111 1.257 . S
C105 O100 1.254 . S
C105 O101 1.269 . S
C106 O107 1.249 . S
C106 O108 1.270 . S
O107 Zn99 1.943 . S
O107 C106 1.249 . S
O108 Zn98 2.067 . S
O108 C106 1.270 . S
C109 O102 1.262 1_545 S
C109 O110 1.232 . S
O110 C109 1.232 . S
C111 O103 1.260 . S
C111 O104 1.257 . S
Zn112 O115 2.031 . S
Zn112 O117 2.049 . S
Zn112 O122 2.067 . S
Zn113 O114 1.962 . S
Zn113 O116 1.986 . S
Zn113 O118 1.996 . S
Zn113 O121 1.943 . S
O114 Zn113 1.962 . S
O114 C119 1.254 . S
O115 Zn112 2.031 . S
O115 C119 1.269 . S
O116 Zn113 1.986 . S
O116 C123 1.262 . S
O117 Zn112 2.049 . S
O117 C125 1.260 . S
O118 Zn113 1.996 . S
O118 C125 1.257 . S
C119 O114 1.254 . S
C119 O115 1.269 . S
C120 O121 1.249 . S
C120 O122 1.270 . S
O121 Zn113 1.943 . S
O121 C120 1.249 . S
O122 Zn112 2.067 . S
O122 C120 1.270 . S
C123 O116 1.262 . S
C123 O124 1.232 . S
O124 C123 1.232 . S
C125 O117 1.260 . S
C125 O118 1.257 . S
Zn126 O129 2.031 . S
Zn126 O131 2.049 . S
Zn126 O136 2.067 . S
Zn127 O128 1.962 . S
Zn127 O130 1.986 . S
Zn127 O132 1.996 . S
Zn127 O135 1.943 . S
O128 Zn127 1.962 . S
O128 C133 1.254 . S
O129 Zn126 2.031 . S
O129 C133 1.269 . S
O130 Zn127 1.986 . S
O130 C137 1.262 . S
O131 Zn126 2.049 . S
O131 C139 1.260 . S
O132 Zn127 1.996 . S
O132 C139 1.257 . S
C133 O128 1.254 . S
C133 O129 1.269 . S
C134 O135 1.249 . S
C134 O136 1.270 . S
O135 Zn127 1.943 . S
O135 C134 1.249 . S
O136 Zn126 2.067 . S
O136 C134 1.270 . S
C137 O130 1.262 . S
C137 O138 1.232 . S
O138 C137 1.232 . S
C139 O131 1.260 . S
C139 O132 1.257 . S
Zn140 O143 2.031 . S
Zn140 O145 2.049 . S
Zn140 O150 2.067 . S
Zn141 O142 1.962 . S
Zn141 O144 1.986 . S
Zn141 O146 1.996 . S
Zn141 O149 1.943 . S
O142 Zn141 1.962 . S
O142 C147 1.254 . S
O143 Zn140 2.031 . S
O143 C147 1.269 . S
O144 Zn141 1.986 . S
O144 C151 1.262 . S
O145 Zn140 2.049 . S
O145 C153 1.260 . S
O146 Zn141 1.996 . S
O146 C153 1.257 . S
C147 O142 1.254 . S
C147 O143 1.269 . S
C148 O149 1.249 . S
C148 O150 1.270 . S
O149 Zn141 1.943 . S
O149 C148 1.249 . S
O150 Zn140 2.067 . S
O150 C148 1.270 . S
C151 O144 1.262 . S
C151 O152 1.232 . S
O152 C151 1.232 . S
C153 O145 1.260 . S
C153 O146 1.257 . S
Zn154 O157 2.031 . S
Zn154 O159 2.049 . S
Zn154 O164 2.067 . S
Zn155 O156 1.962 . S
Zn155 O158 1.986 . S
Zn155 O160 1.996 . S
Zn155 O163 1.943 . S
O156 Zn155 1.962 . S
O156 C161 1.254 . S
O157 Zn154 2.031 . S
O157 C161 1.269 . S
O158 Zn155 1.986 . S
O158 C165 1.262 . S
O159 Zn154 2.049 . S
O159 C167 1.260 . S
O160 Zn155 1.996 . S
O160 C167 1.257 . S
C161 O156 1.254 . S
C161 O157 1.269 . S
C162 O163 1.249 . S
C162 O164 1.270 . S
O163 Zn155 1.943 . S
O163 C162 1.249 . S
O164 Zn154 2.067 . S
O164 C162 1.270 . S
C165 O158 1.262 . S
C165 O166 1.232 . S
O166 C165 1.232 . S
C167 O159 1.260 . S
C167 O160 1.257 . S
Zn168 O171 2.031 . S
Zn168 O173 2.049 . S
Zn168 O178 2.067 . S
Zn169 O170 1.962 . S
Zn169 O172 1.986 . S
Zn169 O174 1.996 . S
Zn169 O177 1.943 . S
O170 Zn169 1.962 . S
O170 C175 1.254 . S
O171 Zn168 2.031 . S
O171 C175 1.269 . S
O172 Zn169 1.986 . S
O172 C179 1.262 . S
O173 Zn168 2.049 . S
O173 C181 1.260 . S
O174 Zn169 1.996 . S
O174 C181 1.257 . S
C175 O170 1.254 . S
C175 O171 1.269 . S
C176 O177 1.249 . S
C176 O178 1.270 . S
O177 Zn169 1.943 . S
O177 C176 1.249 . S
O178 Zn168 2.067 . S
O178 C176 1.270 . S
C179 O172 1.262 . S
C179 O180 1.232 . S
O180 C179 1.232 . S
C181 O173 1.260 . S
C181 O174 1.257 . S
Zn182 O185 2.031 . S
Zn182 O187 2.049 . S
Zn182 O192 2.067 . S
Zn183 O184 1.962 . S
Zn183 O186 1.986 . S
Zn183 O188 1.996 . S
Zn183 O191 1.943 . S
O184 Zn183 1.962 . S
O184 C189 1.254 . S
O185 Zn182 2.031 . S
O185 C189 1.269 . S
O186 Zn183 1.986 . S
O186 C193 1.262 . S
O187 Zn182 2.049 . S
O187 C195 1.260 . S
O188 Zn183 1.996 . S
O188 C195 1.257 . S
C189 O184 1.254 . S
C189 O185 1.269 . S
C190 O191 1.249 . S
C190 O192 1.270 . S
O191 Zn183 1.943 . S
O191 C190 1.249 . S
O192 Zn182 2.067 . S
O192 C190 1.270 . S
C193 O186 1.262 . S
C193 O194 1.232 . S
O194 C193 1.232 . S
C195 O187 1.260 . S
C195 O188 1.257 . S
Zn196 O199 2.031 . S
Zn196 O201 2.049 . S
Zn196 O206 2.067 . S
Zn197 O198 1.962 . S
Zn197 O200 1.986 . S
Zn197 O202 1.996 . S
Zn197 O205 1.943 . S
O198 Zn197 1.962 . S
O198 C203 1.254 . S
O199 Zn196 2.031 . S
O199 C203 1.269 . S
O200 Zn197 1.986 . S
O200 C207 1.262 . S
O201 Zn196 2.049 . S
O201 C209 1.260 . S
O202 Zn197 1.996 . S
O202 C209 1.257 . S
C203 O198 1.254 . S
C203 O199 1.269 . S
C204 O205 1.249 . S
C204 O206 1.270 . S
O205 Zn197 1.943 . S
O205 C204 1.249 . S
O206 Zn196 2.067 . S
O206 C204 1.270 . S
C207 O200 1.262 . S
C207 O208 1.232 . S
O208 C207 1.232 . S
C209 O201 1.260 . S
C209 O202 1.257 . S
Zn210 O213 2.031 . S
Zn210 O215 2.049 . S
Zn210 O220 2.067 . S
Zn211 O212 1.962 . S
Zn211 O214 1.986 . S
Zn211 O216 1.996 . S
Zn211 O219 1.943 . S
O212 Zn211 1.962 . S
O212 C217 1.254 . S
O213 Zn210 2.031 . S
O213 C217 1.269 . S
O214 Zn211 1.986 . S
O214 C221 1.262 . S
O215 Zn210 2.049 . S
O215 C223 1.260 . S
O216 Zn211 1.996 . S
O216 C223 1.257 . S
C217 O212 1.254 . S
C217 O213 1.269 . S
C218 O219 1.249 . S
C218 O220 1.270 . S
O219 Zn211 1.943 . S
O219 C218 1.249 . S
O220 Zn210 2.067 . S
O220 C218 1.270 . S
C221 O214 1.262 . S
C221 O222 1.232 . S
O222 C221 1.232 . S
C223 O215 1.260 . S
C223 O216 1.257 . S
Zn224 O227 2.031 . S
Zn224 O229 2.049 . S
Zn224 O234 2.067 . S
Zn225 O226 1.962 . S
Zn225 O228 1.986 . S
Zn225 O230 1.996 . S
Zn225 O233 1.943 . S
O226 Zn225 1.962 . S
O226 C231 1.254 . S
O227 Zn224 2.031 . S
O227 C231 1.269 . S
O228 Zn225 1.986 . S
O228 C235 1.323 . S
O229 Zn224 2.049 . S
O229 C237 1.260 . S
O230 Zn225 1.996 . S
O230 C237 1.257 . S
C231 O226 1.254 . S
C231 O227 1.269 . S
C232 O233 1.249 . S
C232 O234 1.270 . S
O233 Zn225 1.943 . S
O233 C232 1.249 . S
O234 Zn224 2.067 . S
O234 C232 1.270 . S
C235 O228 1.323 . S
C235 O236 1.235 . S
O236 C235 1.235 . S
C237 O229 1.260 . S
C237 O230 1.257 . S
Zn238 O241 2.031 . S
Zn238 O243 2.049 . S
Zn238 O248 2.067 . S
Zn239 O240 1.962 . S
Zn239 O242 1.986 . S
Zn239 O244 1.996 . S
Zn239 O247 1.943 . S
O240 Zn239 1.962 . S
O240 C245 1.254 . S
O241 Zn238 2.031 . S
O241 C245 1.269 . S
O242 Zn239 1.986 . S
O242 C249 1.262 . S
O243 Zn238 2.049 . S
O243 C251 1.260 . S
O244 Zn239 1.996 . S
O244 C251 1.257 . S
C245 O240 1.254 . S
C245 O241 1.269 . S
C246 O247 1.249 . S
C246 O248 1.270 . S
O247 Zn239 1.943 . S
O247 C246 1.249 . S
O248 Zn238 2.067 . S
O248 C246 1.270 . S
C249 O242 1.262 . S
C249 O250 1.232 . S
O250 C249 1.232 . S
C251 O243 1.260 . S
C251 O244 1.257 . S
H252 C279 0.929 . S
N253 C278 1.433 . S
N253 C284 1.435 . S
N253 C290 1.423 . S
H254 C280 0.930 . S
H255 C283 0.931 . S
H256 C282 0.929 . S
H257 C285 0.930 . S
H258 C286 0.932 . S
H259 C289 0.929 . S
H260 C288 0.931 . S
H261 C291 0.929 . S
H262 C295 0.932 . S
H263 C292 0.931 . S
H264 C294 0.929 . S
H265 C297 0.929 . S
H266 C298 0.930 . S
H267 C300 0.929 . S
H268 C301 0.931 . S
H269 C303 0.930 . S
H270 C304 0.932 . S
H271 C306 0.931 . S
H272 C307 0.929 . S
H273 C309 0.929 . S
H274 C310 0.931 . S
H275 C312 0.929 . S
N276 C296 1.433 . S
N276 C302 1.435 . S
N276 C308 1.423 . S
H277 C313 0.932 . S
C278 N253 1.433 . S
C278 C279 1.363 . S
C278 C283 1.370 . S
C279 H252 0.929 . S
C279 C278 1.363 . S
C279 C280 1.385 . S
C280 H254 0.930 . S
C280 C279 1.385 . S
C280 C281 1.357 . S
C281 C280 1.357 . S
C281 C282 1.406 . S
C282 H256 0.929 . S
C282 C281 1.406 . S
C282 C283 1.391 . S
C283 H255 0.931 . S
C283 C278 1.370 . S
C283 C282 1.391 . S
C284 N253 1.435 . S
C284 C285 1.358 . S
C284 C289 1.371 . S
C285 H257 0.930 . S
C285 C284 1.358 . S
C285 C286 1.405 . S
C286 H258 0.932 . S
C286 C285 1.405 . S
C286 C287 1.383 . S
C287 C286 1.383 . S
C287 C288 1.393 . S
C288 H260 0.931 . S
C288 C287 1.393 . S
C288 C289 1.382 . S
C289 H259 0.929 . S
C289 C284 1.371 . S
C289 C288 1.382 . S
C290 N253 1.423 . S
C290 C291 1.362 . S
C290 C295 1.388 . S
C291 H261 0.929 . S
C291 C290 1.362 . S
C291 C292 1.376 . S
C292 H263 0.931 . S
C292 C291 1.376 . S
C292 C293 1.396 . S
C293 C292 1.396 . S
C293 C294 1.348 . S
C293 C311 1.472 . S
C294 H264 0.929 . S
C294 C293 1.348 . S
C294 C295 1.443 . S
C295 H262 0.932 . S
C295 C290 1.388 . S
C295 C294 1.443 . S
C296 N276 1.433 . S
C296 C297 1.363 . S
C296 C301 1.370 . S
C297 H265 0.929 . S
C297 C296 1.363 . S
C297 C298 1.385 . S
C298 H266 0.930 . S
C298 C297 1.385 . S
C298 C299 1.357 . S
C299 C298 1.357 . S
C299 C300 1.406 . S
C300 H267 0.929 . S
C300 C299 1.406 . S
C300 C301 1.391 . S
C301 H268 0.931 . S
C301 C296 1.370 . S
C301 C300 1.391 . S
C302 N276 1.435 . S
C302 C303 1.358 . S
C302 C307 1.371 . S
C303 H269 0.930 . S
C303 C302 1.358 . S
C303 C304 1.405 . S
C304 H270 0.932 . S
C304 C303 1.405 . S
C304 C305 1.383 . S
C305 C304 1.383 . S
C305 C306 1.393 . S
C306 H271 0.931 . S
C306 C305 1.393 . S
C306 C307 1.382 . S
C307 H272 0.929 . S
C307 C302 1.371 . S
C307 C306 1.382 . S
C308 N276 1.423 . S
C308 C309 1.362 . S
C308 C313 1.388 . S
C309 H273 0.929 . S
C309 C308 1.362 . S
C309 C310 1.376 . S
C310 H274 0.931 . S
C310 C309 1.376 . S
C310 C311 1.396 . S
C311 C293 1.472 . S
C311 C310 1.396 . S
C311 C312 1.348 . S
C312 H275 0.929 . S
C312 C311 1.348 . S
C312 C313 1.443 . S
C313 H277 0.932 . S
C313 C308 1.388 . S
C313 C312 1.443 . S
H314 C341 0.929 . S
N315 C340 1.433 . S
N315 C346 1.435 . S
N315 C352 1.423 . S
H316 C342 0.930 . S
H317 C345 0.931 . S
H318 C344 0.929 . S
H319 C347 0.930 . S
H320 C348 0.932 . S
H321 C351 0.929 . S
H322 C350 0.931 . S
H323 C353 0.929 . S
H324 C357 0.932 . S
H325 C354 0.931 . S
H326 C356 0.929 . S
H327 C359 0.929 . S
H328 C360 0.930 . S
H329 C362 0.929 . S
H330 C363 0.931 . S
H331 C365 0.930 . S
H332 C366 0.932 . S
H333 C368 0.931 . S
H334 C369 0.929 . S
H335 C371 0.929 . S
H336 C372 0.931 . S
H337 C374 0.929 . S
N338 C358 1.433 . S
N338 C364 1.435 . S
N338 C370 1.423 . S
H339 C375 0.932 . S
C340 N315 1.433 . S
C340 C341 1.363 . S
C340 C345 1.370 . S
C341 H314 0.929 . S
C341 C340 1.363 . S
C341 C342 1.385 . S
C342 H316 0.930 . S
C342 C341 1.385 . S
C342 C343 1.357 . S
C343 C342 1.357 . S
C343 C344 1.406 . S
C344 H318 0.929 . S
C344 C343 1.406 . S
C344 C345 1.391 . S
C345 H317 0.931 . S
C345 C340 1.370 . S
C345 C344 1.391 . S
C346 N315 1.435 . S
C346 C347 1.358 . S
C346 C351 1.371 . S
C347 H319 0.930 . S
C347 C346 1.358 . S
C347 C348 1.405 . S
C348 H320 0.932 . S
C348 C347 1.405 . S
C348 C349 1.383 . S
C349 C348 1.383 . S
C349 C350 1.393 . S
C350 H322 0.931 . S
C350 C349 1.393 . S
C350 C351 1.382 . S
C351 H321 0.929 . S
C351 C346 1.371 . S
C351 C350 1.382 . S
C352 N315 1.423 . S
C352 C353 1.362 . S
C352 C357 1.388 . S
C353 H323 0.929 . S
C353 C352 1.362 . S
C353 C354 1.376 . S
C354 H325 0.931 . S
C354 C353 1.376 . S
C354 C355 1.396 . S
C355 C354 1.396 . S
C355 C356 1.348 . S
C355 C373 1.472 . S
C356 H326 0.929 . S
C356 C355 1.348 . S
C356 C357 1.443 . S
C357 H324 0.932 . S
C357 C352 1.388 . S
C357 C356 1.443 . S
C358 N338 1.433 . S
C358 C359 1.363 . S
C358 C363 1.370 . S
C359 H327 0.929 . S
C359 C358 1.363 . S
C359 C360 1.385 . S
C360 H328 0.930 . S
C360 C359 1.385 . S
C360 C361 1.357 . S
C361 C360 1.357 . S
C361 C362 1.406 . S
C362 H329 0.929 . S
C362 C361 1.406 . S
C362 C363 1.391 . S
C363 H330 0.931 . S
C363 C358 1.370 . S
C363 C362 1.391 . S
C364 N338 1.435 . S
C364 C365 1.358 . S
C364 C369 1.371 . S
C365 H331 0.930 . S
C365 C364 1.358 . S
C365 C366 1.405 . S
C366 H332 0.932 . S
C366 C365 1.405 . S
C366 C367 1.383 . S
C367 C366 1.383 . S
C367 C368 1.393 . S
C368 H333 0.931 . S
C368 C367 1.393 . S
C368 C369 1.382 . S
C369 H334 0.929 . S
C369 C364 1.371 . S
C369 C368 1.382 . S
C370 N338 1.423 . S
C370 C371 1.362 . S
C370 C375 1.388 . S
C371 H335 0.929 . S
C371 C370 1.362 . S
C371 C372 1.376 . S
C372 H336 0.931 . S
C372 C371 1.376 . S
C372 C373 1.396 . S
C373 C355 1.472 . S
C373 C372 1.396 . S
C373 C374 1.348 . S
C374 H337 0.929 . S
C374 C373 1.348 . S
C374 C375 1.443 . S
C375 H339 0.932 . S
C375 C370 1.388 . S
C375 C374 1.443 . S
H376 C403 0.929 . S
N377 C402 1.433 . S
N377 C408 1.435 . S
N377 C414 1.423 . S
H378 C404 0.930 . S
H379 C407 0.931 . S
H380 C406 0.929 . S
H381 C409 0.930 . S
H382 C410 0.932 . S
H383 C413 0.929 . S
H384 C412 0.931 . S
H385 C415 0.929 . S
H386 C419 0.932 . S
H387 C416 0.931 . S
H388 C418 0.929 . S
H389 C421 0.929 . S
H390 C422 0.930 . S
H391 C424 0.929 . S
H392 C425 0.931 . S
H393 C427 0.930 . S
H394 C428 0.932 . S
H395 C430 0.931 . S
H396 C431 0.929 . S
H397 C433 0.929 . S
H398 C434 0.931 . S
H399 C436 0.929 . S
N400 C420 1.433 . S
N400 C426 1.435 . S
N400 C432 1.423 . S
H401 C437 0.932 . S
C402 N377 1.433 . S
C402 C403 1.363 . S
C402 C407 1.370 . S
C403 H376 0.929 . S
C403 C402 1.363 . S
C403 C404 1.385 . S
C404 H378 0.930 . S
C404 C403 1.385 . S
C404 C405 1.357 . S
C405 C404 1.357 . S
C405 C406 1.406 . S
C406 H380 0.929 . S
C406 C405 1.406 . S
C406 C407 1.391 . S
C407 H379 0.931 . S
C407 C402 1.370 . S
C407 C406 1.391 . S
C408 N377 1.435 . S
C408 C409 1.358 . S
C408 C413 1.371 . S
C409 H381 0.930 . S
C409 C408 1.358 . S
C409 C410 1.405 . S
C410 H382 0.932 . S
C410 C409 1.405 . S
C410 C411 1.383 . S
C411 C410 1.383 . S
C411 C412 1.393 . S
C412 H384 0.931 . S
C412 C411 1.393 . S
C412 C413 1.382 . S
C413 H383 0.929 . S
C413 C408 1.371 . S
C413 C412 1.382 . S
C414 N377 1.423 . S
C414 C415 1.362 . S
C414 C419 1.388 . S
C415 H385 0.929 . S
C415 C414 1.362 . S
C415 C416 1.376 . S
C416 H387 0.931 . S
C416 C415 1.376 . S
C416 C417 1.396 . S
C417 C416 1.396 . S
C417 C418 1.348 . S
C417 C435 1.472 . S
C418 H388 0.929 . S
C418 C417 1.348 . S
C418 C419 1.443 . S
C419 H386 0.932 . S
C419 C414 1.388 . S
C419 C418 1.443 . S
C420 N400 1.433 . S
C420 C421 1.363 . S
C420 C425 1.370 . S
C421 H389 0.929 . S
C421 C420 1.363 . S
C421 C422 1.385 . S
C422 H390 0.930 . S
C422 C421 1.385 . S
C422 C423 1.357 . S
C423 C422 1.357 . S
C423 C424 1.406 . S
C424 H391 0.929 . S
C424 C423 1.406 . S
C424 C425 1.391 . S
C425 H392 0.931 . S
C425 C420 1.370 . S
C425 C424 1.391 . S
C426 N400 1.435 . S
C426 C427 1.358 . S
C426 C431 1.371 . S
C427 H393 0.930 . S
C427 C426 1.358 . S
C427 C428 1.405 . S
C428 H394 0.932 . S
C428 C427 1.405 . S
C428 C429 1.383 . S
C429 C428 1.383 . S
C429 C430 1.393 . S
C430 H395 0.931 . S
C430 C429 1.393 . S
C430 C431 1.382 . S
C431 H396 0.929 . S
C431 C426 1.371 . S
C431 C430 1.382 . S
C432 N400 1.423 . S
C432 C433 1.362 . S
C432 C437 1.388 . S
C433 H397 0.929 . S
C433 C432 1.362 . S
C433 C434 1.376 . S
C434 H398 0.931 . S
C434 C433 1.376 . S
C434 C435 1.396 . S
C435 C417 1.472 . S
C435 C434 1.396 . S
C435 C436 1.348 . S
C436 H399 0.929 . S
C436 C435 1.348 . S
C436 C437 1.443 . S
C437 H401 0.932 . S
C437 C432 1.388 . S
C437 C436 1.443 . S
H438 C465 0.929 . S
N439 C464 1.433 . S
N439 C470 1.435 . S
N439 C476 1.423 . S
H440 C466 0.930 . S
H441 C469 0.931 . S
H442 C468 0.929 . S
H443 C471 0.930 . S
H444 C472 0.932 . S
H445 C475 0.929 . S
H446 C474 0.931 . S
H447 C477 0.929 . S
H448 C481 0.932 . S
H449 C478 0.931 . S
H450 C480 0.929 . S
H451 C483 0.929 . S
H452 C484 0.930 . S
H453 C486 0.929 . S
H454 C487 0.931 . S
H455 C489 0.930 . S
H456 C490 0.932 . S
H457 C492 0.931 . S
H458 C493 0.929 . S
H459 C495 0.929 . S
H460 C496 0.931 . S
H461 C498 0.929 . S
N462 C482 1.433 . S
N462 C488 1.435 . S
N462 C494 1.423 . S
H463 C499 0.932 . S
C464 N439 1.433 . S
C464 C465 1.363 . S
C464 C469 1.370 . S
C465 H438 0.929 . S
C465 C464 1.363 . S
C465 C466 1.385 . S
C466 H440 0.930 . S
C466 C465 1.385 . S
C466 C467 1.357 . S
C467 C466 1.357 . S
C467 C468 1.406 . S
C468 H442 0.929 . S
C468 C467 1.406 . S
C468 C469 1.391 . S
C469 H441 0.931 . S
C469 C464 1.370 . S
C469 C468 1.391 . S
C470 N439 1.435 . S
C470 C471 1.358 . S
C470 C475 1.371 . S
C471 H443 0.930 . S
C471 C470 1.358 . S
C471 C472 1.405 . S
C472 H444 0.932 . S
C472 C471 1.405 . S
C472 C473 1.383 . S
C473 C472 1.383 . S
C473 C474 1.393 . S
C474 H446 0.931 . S
C474 C473 1.393 . S
C474 C475 1.382 . S
C475 H445 0.929 . S
C475 C470 1.371 . S
C475 C474 1.382 . S
C476 N439 1.423 . S
C476 C477 1.362 . S
C476 C481 1.388 . S
C477 H447 0.929 . S
C477 C476 1.362 . S
C477 C478 1.376 . S
C478 H449 0.931 . S
C478 C477 1.376 . S
C478 C479 1.396 . S
C479 C478 1.396 . S
C479 C480 1.348 . S
C479 C497 1.472 . S
C480 H450 0.929 . S
C480 C479 1.348 . S
C480 C481 1.443 . S
C481 H448 0.932 . S
C481 C476 1.388 . S
C481 C480 1.443 . S
C482 N462 1.433 . S
C482 C483 1.363 . S
C482 C487 1.370 . S
C483 H451 0.929 . S
C483 C482 1.363 . S
C483 C484 1.385 . S
C484 H452 0.930 . S
C484 C483 1.385 . S
C484 C485 1.357 . S
C485 C484 1.357 . S
C485 C486 1.406 . S
C486 H453 0.929 . S
C486 C485 1.406 . S
C486 C487 1.391 . S
C487 H454 0.931 . S
C487 C482 1.370 . S
C487 C486 1.391 . S
C488 N462 1.435 . S
C488 C489 1.358 . S
C488 C493 1.371 . S
C489 H455 0.930 . S
C489 C488 1.358 . S
C489 C490 1.405 . S
C490 H456 0.932 . S
C490 C489 1.405 . S
C490 C491 1.383 . S
C491 C490 1.383 . S
C491 C492 1.393 . S
C492 H457 0.931 . S
C492 C491 1.393 . S
C492 C493 1.382 . S
C493 H458 0.929 . S
C493 C488 1.371 . S
C493 C492 1.382 . S
C494 N462 1.423 . S
C494 C495 1.362 . S
C494 C499 1.388 . S
C495 H459 0.929 . S
C495 C494 1.362 . S
C495 C496 1.376 . S
C496 H460 0.931 . S
C496 C495 1.376 . S
C496 C497 1.396 . S
C497 C479 1.472 . S
C497 C496 1.396 . S
C497 C498 1.348 . S
C498 H461 0.929 . S
C498 C497 1.348 . S
C498 C499 1.443 . S
C499 H463 0.932 . S
C499 C494 1.388 . S
C499 C498 1.443 . S
H500 C527 0.929 . S
N501 C526 1.433 . S
N501 C532 1.435 . S
N501 C538 1.423 . S
H502 C528 0.930 . S
H503 C531 0.931 . S
H504 C530 0.929 . S
H505 C533 0.930 . S
H506 C534 0.932 . S
H507 C537 0.929 . S
H508 C536 0.931 . S
H509 C539 0.929 . S
H510 C543 0.932 . S
H511 C540 0.931 . S
H512 C542 0.929 . S
H513 C545 0.929 . S
H514 C546 0.930 . S
H515 C548 0.929 . S
H516 C549 0.931 . S
H517 C551 0.930 . S
H518 C552 0.932 . S
H519 C554 0.931 . S
H520 C555 0.929 . S
H521 C557 0.929 . S
H522 C558 0.931 . S
H523 C560 0.929 . S
N524 C544 1.433 . S
N524 C550 1.435 . S
N524 C556 1.423 . S
H525 C561 0.932 . S
C526 N501 1.433 . S
C526 C527 1.363 . S
C526 C531 1.370 . S
C527 H500 0.929 . S
C527 C526 1.363 . S
C527 C528 1.385 . S
C528 H502 0.930 . S
C528 C527 1.385 . S
C528 C529 1.357 . S
C529 C528 1.357 . S
C529 C530 1.406 . S
C530 H504 0.929 . S
C530 C529 1.406 . S
C530 C531 1.391 . S
C531 H503 0.931 . S
C531 C526 1.370 . S
C531 C530 1.391 . S
C532 N501 1.435 . S
C532 C533 1.358 . S
C532 C537 1.371 . S
C533 H505 0.930 . S
C533 C532 1.358 . S
C533 C534 1.405 . S
C534 H506 0.932 . S
C534 C533 1.405 . S
C534 C535 1.383 . S
C535 C534 1.383 . S
C535 C536 1.393 . S
C536 H508 0.931 . S
C536 C535 1.393 . S
C536 C537 1.382 . S
C537 H507 0.929 . S
C537 C532 1.371 . S
C537 C536 1.382 . S
C538 N501 1.423 . S
C538 C539 1.362 . S
C538 C543 1.388 . S
C539 H509 0.929 . S
C539 C538 1.362 . S
C539 C540 1.376 . S
C540 H511 0.931 . S
C540 C539 1.376 . S
C540 C541 1.396 . S
C541 C540 1.396 . S
C541 C542 1.348 . S
C541 C559 1.472 . S
C542 H512 0.929 . S
C542 C541 1.348 . S
C542 C543 1.443 . S
C543 H510 0.932 . S
C543 C538 1.388 . S
C543 C542 1.443 . S
C544 N524 1.433 . S
C544 C545 1.363 . S
C544 C549 1.370 . S
C545 H513 0.929 . S
C545 C544 1.363 . S
C545 C546 1.385 . S
C546 H514 0.930 . S
C546 C545 1.385 . S
C546 C547 1.357 . S
C547 C546 1.357 . S
C547 C548 1.406 . S
C548 H515 0.929 . S
C548 C547 1.406 . S
C548 C549 1.391 . S
C549 H516 0.931 . S
C549 C544 1.370 . S
C549 C548 1.391 . S
C550 N524 1.435 . S
C550 C551 1.358 . S
C550 C555 1.371 . S
C551 H517 0.930 . S
C551 C550 1.358 . S
C551 C552 1.405 . S
C552 H518 0.932 . S
C552 C551 1.405 . S
C552 C553 1.383 . S
C553 C552 1.383 . S
C553 C554 1.393 . S
C554 H519 0.931 . S
C554 C553 1.393 . S
C554 C555 1.382 . S
C555 H520 0.929 . S
C555 C550 1.371 . S
C555 C554 1.382 . S
C556 N524 1.423 . S
C556 C557 1.362 . S
C556 C561 1.388 . S
C557 H521 0.929 . S
C557 C556 1.362 . S
C557 C558 1.376 . S
C558 H522 0.931 . S
C558 C557 1.376 . S
C558 C559 1.396 . S
C559 C541 1.472 . S
C559 C558 1.396 . S
C559 C560 1.348 . S
C560 H523 0.929 . S
C560 C559 1.348 . S
C560 C561 1.443 . S
C561 H525 0.932 . S
C561 C556 1.388 . S
C561 C560 1.443 . S
H562 C589 0.929 . S
N563 C588 1.433 . S
N563 C594 1.435 . S
N563 C600 1.423 . S
H564 C590 0.930 . S
H565 C593 0.931 . S
H566 C592 0.929 . S
H567 C595 0.930 . S
H568 C596 0.932 . S
H569 C599 0.929 . S
H570 C598 0.931 . S
H571 C601 0.929 . S
H572 C605 0.932 . S
H573 C602 0.931 . S
H574 C604 0.929 . S
H575 C607 0.929 . S
H576 C608 0.930 . S
H577 C610 0.929 . S
H578 C611 0.931 . S
H579 C613 0.930 . S
H580 C614 0.932 . S
H581 C616 0.931 . S
H582 C617 0.929 . S
H583 C619 0.929 . S
H584 C620 0.931 . S
H585 C622 0.929 . S
N586 C606 1.433 . S
N586 C612 1.435 . S
N586 C618 1.423 . S
H587 C623 0.932 . S
C588 N563 1.433 . S
C588 C589 1.363 . S
C588 C593 1.370 . S
C589 H562 0.929 . S
C589 C588 1.363 . S
C589 C590 1.385 . S
C590 H564 0.930 . S
C590 C589 1.385 . S
C590 C591 1.357 . S
C591 C590 1.357 . S
C591 C592 1.406 . S
C592 H566 0.929 . S
C592 C591 1.406 . S
C592 C593 1.391 . S
C593 H565 0.931 . S
C593 C588 1.370 . S
C593 C592 1.391 . S
C594 N563 1.435 . S
C594 C595 1.358 . S
C594 C599 1.371 . S
C595 H567 0.930 . S
C595 C594 1.358 . S
C595 C596 1.405 . S
C596 H568 0.932 . S
C596 C595 1.405 . S
C596 C597 1.383 . S
C597 C596 1.383 . S
C597 C598 1.393 . S
C598 H570 0.931 . S
C598 C597 1.393 . S
C598 C599 1.382 . S
C599 H569 0.929 . S
C599 C594 1.371 . S
C599 C598 1.382 . S
C600 N563 1.423 . S
C600 C601 1.362 . S
C600 C605 1.388 . S
C601 H571 0.929 . S
C601 C600 1.362 . S
C601 C602 1.376 . S
C602 H573 0.931 . S
C602 C601 1.376 . S
C602 C603 1.396 . S
C603 C602 1.396 . S
C603 C604 1.348 . S
C603 C621 1.472 . S
C604 H574 0.929 . S
C604 C603 1.348 . S
C604 C605 1.443 . S
C605 H572 0.932 . S
C605 C600 1.388 . S
C605 C604 1.443 . S
C606 N586 1.433 . S
C606 C607 1.363 . S
C606 C611 1.370 . S
C607 H575 0.929 . S
C607 C606 1.363 . S
C607 C608 1.385 . S
C608 H576 0.930 . S
C608 C607 1.385 . S
C608 C609 1.357 . S
C609 C608 1.357 . S
C609 C610 1.406 . S
C610 H577 0.929 . S
C610 C609 1.406 . S
C610 C611 1.391 . S
C611 H578 0.931 . S
C611 C606 1.370 . S
C611 C610 1.391 . S
C612 N586 1.435 . S
C612 C613 1.358 . S
C612 C617 1.371 . S
C613 H579 0.930 . S
C613 C612 1.358 . S
C613 C614 1.405 . S
C614 H580 0.932 . S
C614 C613 1.405 . S
C614 C615 1.383 . S
C615 C614 1.383 . S
C615 C616 1.393 . S
C616 H581 0.931 . S
C616 C615 1.393 . S
C616 C617 1.382 . S
C617 H582 0.929 . S
C617 C612 1.371 . S
C617 C616 1.382 . S
C618 N586 1.423 . S
C618 C619 1.362 . S
C618 C623 1.388 . S
C619 H583 0.929 . S
C619 C618 1.362 . S
C619 C620 1.376 . S
C620 H584 0.931 . S
C620 C619 1.376 . S
C620 C621 1.396 . S
C621 C603 1.472 . S
C621 C620 1.396 . S
C621 C622 1.348 . S
C622 H585 0.929 . S
C622 C621 1.348 . S
C622 C623 1.443 . S
C623 H587 0.932 . S
C623 C618 1.388 . S
C623 C622 1.443 . S
H624 C651 0.929 . S
N625 C650 1.433 . S
N625 C656 1.435 . S
N625 C662 1.423 . S
H626 C652 0.930 . S
H627 C655 0.931 . S
H628 C654 0.929 . S
H629 C657 0.930 . S
H630 C658 0.932 . S
H631 C661 0.929 . S
H632 C660 0.931 . S
H633 C663 0.929 . S
H634 C667 0.932 . S
H635 C664 0.931 . S
H636 C666 0.929 . S
H637 C669 0.929 . S
H638 C670 0.930 . S
H639 C672 0.929 . S
H640 C673 0.931 . S
H641 C675 0.930 . S
H642 C676 0.932 . S
H643 C678 0.931 . S
H644 C679 0.929 . S
H645 C681 0.929 . S
H646 C682 0.931 . S
H647 C684 0.929 . S
N648 C668 1.433 . S
N648 C674 1.435 . S
N648 C680 1.423 . S
H649 C685 0.932 . S
C650 N625 1.433 . S
C650 C651 1.363 . S
C650 C655 1.370 . S
C651 H624 0.929 . S
C651 C650 1.363 . S
C651 C652 1.385 . S
C652 H626 0.930 . S
C652 C651 1.385 . S
C652 C653 1.357 . S
C653 C652 1.357 . S
C653 C654 1.406 . S
C654 H628 0.929 . S
C654 C653 1.406 . S
C654 C655 1.391 . S
C655 H627 0.931 . S
C655 C650 1.370 . S
C655 C654 1.391 . S
C656 N625 1.435 . S
C656 C657 1.358 . S
C656 C661 1.371 . S
C657 H629 0.930 . S
C657 C656 1.358 . S
C657 C658 1.405 . S
C658 H630 0.932 . S
C658 C657 1.405 . S
C658 C659 1.383 . S
C659 C658 1.383 . S
C659 C660 1.393 . S
C660 H632 0.931 . S
C660 C659 1.393 . S
C660 C661 1.382 . S
C661 H631 0.929 . S
C661 C656 1.371 . S
C661 C660 1.382 . S
C662 N625 1.423 . S
C662 C663 1.362 . S
C662 C667 1.388 . S
C663 H633 0.929 . S
C663 C662 1.362 . S
C663 C664 1.376 . S
C664 H635 0.931 . S
C664 C663 1.376 . S
C664 C665 1.396 . S
C665 C664 1.396 . S
C665 C666 1.348 . S
C665 C683 1.472 . S
C666 H636 0.929 . S
C666 C665 1.348 . S
C666 C667 1.443 . S
C667 H634 0.932 . S
C667 C662 1.388 . S
C667 C666 1.443 . S
C668 N648 1.433 . S
C668 C669 1.363 . S
C668 C673 1.370 . S
C669 H637 0.929 . S
C669 C668 1.363 . S
C669 C670 1.385 . S
C670 H638 0.930 . S
C670 C669 1.385 . S
C670 C671 1.357 . S
C671 C670 1.357 . S
C671 C672 1.406 . S
C672 H639 0.929 . S
C672 C671 1.406 . S
C672 C673 1.391 . S
C673 H640 0.931 . S
C673 C668 1.370 . S
C673 C672 1.391 . S
C674 N648 1.435 . S
C674 C675 1.358 . S
C674 C679 1.371 . S
C675 H641 0.930 . S
C675 C674 1.358 . S
C675 C676 1.405 . S
C676 H642 0.932 . S
C676 C675 1.405 . S
C676 C677 1.383 . S
C677 C676 1.383 . S
C677 C678 1.393 . S
C678 H643 0.931 . S
C678 C677 1.393 . S
C678 C679 1.382 . S
C679 H644 0.929 . S
C679 C674 1.371 . S
C679 C678 1.382 . S
C680 N648 1.423 . S
C680 C681 1.362 . S
C680 C685 1.388 . S
C681 H645 0.929 . S
C681 C680 1.362 . S
C681 C682 1.376 . S
C682 H646 0.931 . S
C682 C681 1.376 . S
C682 C683 1.396 . S
C683 C665 1.472 . S
C683 C682 1.396 . S
C683 C684 1.348 . S
C684 H647 0.929 . S
C684 C683 1.348 . S
C684 C685 1.443 . S
C685 H649 0.932 . S
C685 C680 1.388 . S
C685 C684 1.443 . S
H686 C713 0.929 . S
N687 C712 1.433 . S
N687 C718 1.435 . S
N687 C724 1.423 . S
H688 C714 0.930 . S
H689 C717 0.931 . S
H690 C716 0.929 . S
H691 C719 0.930 . S
H692 C720 0.932 . S
H693 C723 0.929 . S
H694 C722 0.931 . S
H695 C725 0.929 . S
H696 C729 0.932 . S
H697 C726 0.931 . S
H698 C728 0.929 . S
H699 C731 0.929 . S
H700 C732 0.930 . S
H701 C734 0.929 . S
H702 C735 0.931 . S
H703 C737 0.930 . S
H704 C738 0.932 . S
H705 C740 0.931 . S
H706 C741 0.929 . S
H707 C743 0.929 . S
H708 C744 0.931 . S
H709 C746 0.929 . S
N710 C730 1.433 . S
N710 C736 1.435 . S
N710 C742 1.423 . S
H711 C747 0.932 . S
C712 N687 1.433 . S
C712 C713 1.363 . S
C712 C717 1.370 . S
C713 H686 0.929 . S
C713 C712 1.363 . S
C713 C714 1.385 . S
C714 H688 0.930 . S
C714 C713 1.385 . S
C714 C715 1.357 . S
C715 C714 1.357 . S
C715 C716 1.406 . S
C716 H690 0.929 . S
C716 C715 1.406 . S
C716 C717 1.391 . S
C717 H689 0.931 . S
C717 C712 1.370 . S
C717 C716 1.391 . S
C718 N687 1.435 . S
C718 C719 1.358 . S
C718 C723 1.371 . S
C719 H691 0.930 . S
C719 C718 1.358 . S
C719 C720 1.405 . S
C720 H692 0.932 . S
C720 C719 1.405 . S
C720 C721 1.383 . S
C721 C720 1.383 . S
C721 C722 1.393 . S
C722 H694 0.931 . S
C722 C721 1.393 . S
C722 C723 1.382 . S
C723 H693 0.929 . S
C723 C718 1.371 . S
C723 C722 1.382 . S
C724 N687 1.423 . S
C724 C725 1.362 . S
C724 C729 1.388 . S
C725 H695 0.929 . S
C725 C724 1.362 . S
C725 C726 1.376 . S
C726 H697 0.931 . S
C726 C725 1.376 . S
C726 C727 1.396 . S
C727 C726 1.396 . S
C727 C728 1.348 . S
C727 C745 1.472 . S
C728 H698 0.929 . S
C728 C727 1.348 . S
C728 C729 1.443 . S
C729 H696 0.932 . S
C729 C724 1.388 . S
C729 C728 1.443 . S
C730 N710 1.433 . S
C730 C731 1.363 . S
C730 C735 1.370 . S
C731 H699 0.929 . S
C731 C730 1.363 . S
C731 C732 1.385 . S
C732 H700 0.930 . S
C732 C731 1.385 . S
C732 C733 1.357 . S
C733 C732 1.357 . S
C733 C734 1.406 . S
C734 H701 0.929 . S
C734 C733 1.406 . S
C734 C735 1.391 . S
C735 H702 0.931 . S
C735 C730 1.370 . S
C735 C734 1.391 . S
C736 N710 1.435 . S
C736 C737 1.358 . S
C736 C741 1.371 . S
C737 H703 0.930 . S
C737 C736 1.358 . S
C737 C738 1.405 . S
C738 H704 0.932 . S
C738 C737 1.405 . S
C738 C739 1.383 . S
C739 C738 1.383 . S
C739 C740 1.393 . S
C740 H705 0.931 . S
C740 C739 1.393 . S
C740 C741 1.382 . S
C741 H706 0.929 . S
C741 C736 1.371 . S
C741 C740 1.382 . S
C742 N710 1.423 . S
C742 C743 1.362 . S
C742 C747 1.388 . S
C743 H707 0.929 . S
C743 C742 1.362 . S
C743 C744 1.376 . S
C744 H708 0.931 . S
C744 C743 1.376 . S
C744 C745 1.396 . S
C745 C727 1.472 . S
C745 C744 1.396 . S
C745 C746 1.348 . S
C746 H709 0.929 . S
C746 C745 1.348 . S
C746 C747 1.443 . S
C747 H711 0.932 . S
C747 C742 1.388 . S
C747 C746 1.443 . S
H748 C775 0.929 . S
N749 C774 1.433 . S
N749 C780 1.435 . S
N749 C786 1.423 . S
H750 C776 0.930 . S
H751 C779 0.931 . S
H752 C778 0.929 . S
H753 C781 0.930 . S
H754 C782 0.932 . S
H755 C785 0.929 . S
H756 C784 0.931 . S
H757 C787 0.929 . S
H758 C791 0.932 . S
H759 C788 0.931 . S
H760 C790 0.929 . S
H761 C793 0.929 . S
H762 C794 0.930 . S
H763 C796 0.929 . S
H764 C797 0.931 . S
H765 C799 0.930 . S
H766 C800 0.932 . S
H767 C802 0.931 . S
H768 C803 0.929 . S
H769 C805 0.929 . S
H770 C806 0.931 . S
H771 C808 0.929 . S
N772 C792 1.433 . S
N772 C798 1.435 . S
N772 C804 1.423 . S
H773 C809 0.932 . S
C774 N749 1.433 . S
C774 C775 1.363 . S
C774 C779 1.370 . S
C775 H748 0.929 . S
C775 C774 1.363 . S
C775 C776 1.385 . S
C776 H750 0.930 . S
C776 C775 1.385 . S
C776 C777 1.357 . S
C777 C776 1.357 . S
C777 C778 1.406 . S
C778 H752 0.929 . S
C778 C777 1.406 . S
C778 C779 1.391 . S
C779 H751 0.931 . S
C779 C774 1.370 . S
C779 C778 1.391 . S
C780 N749 1.435 . S
C780 C781 1.358 . S
C780 C785 1.371 . S
C781 H753 0.930 . S
C781 C780 1.358 . S
C781 C782 1.405 . S
C782 H754 0.932 . S
C782 C781 1.405 . S
C782 C783 1.383 . S
C783 C782 1.383 . S
C783 C784 1.393 . S
C784 H756 0.931 . S
C784 C783 1.393 . S
C784 C785 1.382 . S
C785 H755 0.929 . S
C785 C780 1.371 . S
C785 C784 1.382 . S
C786 N749 1.423 . S
C786 C787 1.362 . S
C786 C791 1.388 . S
C787 H757 0.929 . S
C787 C786 1.362 . S
C787 C788 1.376 . S
C788 H759 0.931 . S
C788 C787 1.376 . S
C788 C789 1.396 . S
C789 C788 1.396 . S
C789 C790 1.348 . S
C789 C807 1.472 . S
C790 H760 0.929 . S
C790 C789 1.348 . S
C790 C791 1.443 . S
C791 H758 0.932 . S
C791 C786 1.388 . S
C791 C790 1.443 . S
C792 N772 1.433 . S
C792 C793 1.363 . S
C792 C797 1.370 . S
C793 H761 0.929 . S
C793 C792 1.363 . S
C793 C794 1.385 . S
C794 H762 0.930 . S
C794 C793 1.385 . S
C794 C795 1.357 . S
C795 C794 1.357 . S
C795 C796 1.406 . S
C796 H763 0.929 . S
C796 C795 1.406 . S
C796 C797 1.391 . S
C797 H764 0.931 . S
C797 C792 1.370 . S
C797 C796 1.391 . S
C798 N772 1.435 . S
C798 C799 1.358 . S
C798 C803 1.371 . S
C799 H765 0.930 . S
C799 C798 1.358 . S
C799 C800 1.405 . S
C800 H766 0.932 . S
C800 C799 1.405 . S
C800 C801 1.383 . S
C801 C800 1.383 . S
C801 C802 1.393 . S
C802 H767 0.931 . S
C802 C801 1.393 . S
C802 C803 1.382 . S
C803 H768 0.929 . S
C803 C798 1.371 . S
C803 C802 1.382 . S
C804 N772 1.423 . S
C804 C805 1.362 . S
C804 C809 1.388 . S
C805 H769 0.929 . S
C805 C804 1.362 . S
C805 C806 1.376 . S
C806 H770 0.931 . S
C806 C805 1.376 . S
C806 C807 1.396 . S
C807 C789 1.472 . S
C807 C806 1.396 . S
C807 C808 1.348 . S
C808 H771 0.929 . S
C808 C807 1.348 . S
C808 C809 1.443 . S
C809 H773 0.932 . S
C809 C804 1.388 . S
C809 C808 1.443 . S
H810 C837 0.929 . S
N811 C836 1.433 . S
N811 C842 1.435 . S
N811 C848 1.423 . S
H812 C838 0.930 . S
H813 C841 0.931 . S
H814 C840 0.929 . S
H815 C843 0.930 . S
H816 C844 0.932 . S
H817 C847 0.929 . S
H818 C846 0.931 . S
H819 C849 0.929 . S
H820 C853 0.932 1_655 S
H821 C850 0.931 . S
H822 C852 0.939 . S
H823 C855 0.929 . S
H824 C856 0.930 . S
H825 C858 0.929 . S
H826 C859 0.931 . S
H827 C861 0.930 . S
H828 C862 0.932 . S
H829 C864 0.931 . S
H830 C865 0.929 . S
H831 C867 0.929 . S
H832 C868 0.931 . S
H833 C870 0.990 . S
N834 C854 1.433 . S
N834 C860 1.435 . S
N834 C866 1.423 . S
H835 C871 0.932 1_655 S
C836 N811 1.433 . S
C836 C837 1.363 . S
C836 C841 1.370 1_455 S
C837 H810 0.929 . S
C837 C836 1.363 . S
C837 C838 1.385 . S
C838 H812 0.930 . S
C838 C837 1.385 . S
C838 C839 1.357 1_455 S
C839 C838 1.357 1_655 S
C839 C840 1.406 . S
C840 H814 0.929 . S
C840 C839 1.406 . S
C840 C841 1.391 . S
C841 H813 0.931 . S
C841 C836 1.370 1_655 S
C841 C840 1.391 . S
C842 N811 1.435 . S
C842 C843 1.358 1_455 S
C842 C847 1.371 . S
C843 H815 0.930 . S
C843 C842 1.358 1_655 S
C843 C844 1.405 . S
C844 H816 0.932 . S
C844 C843 1.405 . S
C844 C845 1.383 1_655 S
C845 C844 1.383 1_455 S
C845 C846 1.393 . S
C846 H818 0.931 . S
C846 C845 1.393 . S
C846 C847 1.382 . S
C847 H817 0.929 . S
C847 C842 1.371 . S
C847 C846 1.382 . S
C848 N811 1.423 . S
C848 C849 1.362 . S
C848 C853 1.388 . S
C849 H819 0.929 . S
C849 C848 1.362 . S
C849 C850 1.376 . S
C850 H821 0.931 . S
C850 C849 1.376 . S
C850 C851 1.396 . S
C851 C850 1.396 . S
C851 C852 1.348 . S
C851 C869 1.472 . S
C852 H822 0.939 . S
C852 C851 1.348 . S
C852 C853 1.443 . S
C853 H820 0.932 1_455 S
C853 C848 1.388 . S
C853 C852 1.443 . S
C854 N834 1.433 . S
C854 C855 1.363 . S
C854 C859 1.370 1_455 S
C855 H823 0.929 . S
C855 C854 1.363 . S
C855 C856 1.385 . S
C856 H824 0.930 . S
C856 C855 1.385 . S
C856 C857 1.357 1_455 S
C857 C856 1.357 1_655 S
C857 C858 1.406 . S
C858 H825 0.929 . S
C858 C857 1.406 . S
C858 C859 1.391 . S
C859 H826 0.931 . S
C859 C854 1.370 1_655 S
C859 C858 1.391 . S
C860 N834 1.435 . S
C860 C861 1.358 1_455 S
C860 C865 1.371 . S
C861 H827 0.930 . S
C861 C860 1.358 1_655 S
C861 C862 1.405 . S
C862 H828 0.932 . S
C862 C861 1.405 . S
C862 C863 1.383 1_655 S
C863 C862 1.383 1_455 S
C863 C864 1.393 . S
C864 H829 0.931 . S
C864 C863 1.393 . S
C864 C865 1.382 . S
C865 H830 0.929 . S
C865 C860 1.371 . S
C865 C864 1.382 . S
C866 N834 1.423 . S
C866 C867 1.362 . S
C866 C871 1.388 . S
C867 H831 0.929 . S
C867 C866 1.362 . S
C867 C868 1.376 . S
C868 H832 0.931 . S
C868 C867 1.376 . S
C868 C869 1.396 . S
C869 C851 1.472 . S
C869 C868 1.396 . S
C869 C870 1.348 . S
C870 H833 0.990 . S
C870 C869 1.348 . S
C870 C871 1.443 . S
C871 H835 0.932 1_455 S
C871 C866 1.388 . S
C871 C870 1.443 . S
H872 C899 0.929 . S
N873 C898 1.433 . S
N873 C904 1.435 . S
N873 C910 1.423 . S
H874 C900 0.930 . S
H875 C903 0.931 . S
H876 C902 0.929 . S
H877 C905 0.930 . S
H878 C906 0.932 . S
H879 C909 0.929 . S
H880 C908 0.931 . S
H881 C911 0.929 . S
H882 C915 0.932 . S
H883 C912 0.931 . S
H884 C914 0.929 . S
H885 C917 0.929 . S
H886 C918 0.930 . S
H887 C920 0.929 . S
H888 C921 0.931 . S
H889 C923 0.930 . S
H890 C924 0.932 . S
H891 C926 0.931 . S
H892 C927 0.929 . S
H893 C929 0.929 . S
H894 C930 0.931 . S
H895 C932 0.929 . S
N896 C916 1.433 . S
N896 C922 1.435 . S
N896 C928 1.423 . S
H897 C933 0.932 . S
C898 N873 1.433 . S
C898 C899 1.363 . S
C898 C903 1.370 . S
C899 H872 0.929 . S
C899 C898 1.363 . S
C899 C900 1.385 . S
C900 H874 0.930 . S
C900 C899 1.385 . S
C900 C901 1.357 . S
C901 C900 1.357 . S
C901 C902 1.406 . S
C902 H876 0.929 . S
C902 C901 1.406 . S
C902 C903 1.391 . S
C903 H875 0.931 . S
C903 C898 1.370 . S
C903 C902 1.391 . S
C904 N873 1.435 . S
C904 C905 1.358 . S
C904 C909 1.371 . S
C905 H877 0.930 . S
C905 C904 1.358 . S
C905 C906 1.405 . S
C906 H878 0.932 . S
C906 C905 1.405 . S
C906 C907 1.383 . S
C907 C906 1.383 . S
C907 C908 1.393 . S
C908 H880 0.931 . S
C908 C907 1.393 . S
C908 C909 1.382 . S
C909 H879 0.929 . S
C909 C904 1.371 . S
C909 C908 1.382 . S
C910 N873 1.423 . S
C910 C911 1.362 . S
C910 C915 1.388 . S
C911 H881 0.929 . S
C911 C910 1.362 . S
C911 C912 1.376 . S
C912 H883 0.931 . S
C912 C911 1.376 . S
C912 C913 1.396 . S
C913 C912 1.396 . S
C913 C914 1.348 . S
C913 C931 1.472 . S
C914 H884 0.929 . S
C914 C913 1.348 . S
C914 C915 1.443 . S
C915 H882 0.932 . S
C915 C910 1.388 . S
C915 C914 1.443 . S
C916 N896 1.433 . S
C916 C917 1.363 . S
C916 C921 1.370 . S
C917 H885 0.929 . S
C917 C916 1.363 . S
C917 C918 1.385 . S
C918 H886 0.930 . S
C918 C917 1.385 . S
C918 C919 1.357 . S
C919 C918 1.357 . S
C919 C920 1.406 . S
C920 H887 0.929 . S
C920 C919 1.406 . S
C920 C921 1.391 . S
C921 H888 0.931 . S
C921 C916 1.370 . S
C921 C920 1.391 . S
C922 N896 1.435 . S
C922 C923 1.358 . S
C922 C927 1.371 . S
C923 H889 0.930 . S
C923 C922 1.358 . S
C923 C924 1.405 . S
C924 H890 0.932 . S
C924 C923 1.405 . S
C924 C925 1.383 . S
C925 C924 1.383 . S
C925 C926 1.393 . S
C926 H891 0.931 . S
C926 C925 1.393 . S
C926 C927 1.382 . S
C927 H892 0.929 . S
C927 C922 1.371 . S
C927 C926 1.382 . S
C928 N896 1.423 . S
C928 C929 1.362 . S
C928 C933 1.388 . S
C929 H893 0.929 . S
C929 C928 1.362 . S
C929 C930 1.376 . S
C930 H894 0.931 . S
C930 C929 1.376 . S
C930 C931 1.396 . S
C931 C913 1.472 . S
C931 C930 1.396 . S
C931 C932 1.348 . S
C932 H895 0.929 . S
C932 C931 1.348 . S
C932 C933 1.443 . S
C933 H897 0.932 . S
C933 C928 1.388 . S
C933 C932 1.443 . S
H934 C961 0.929 . S
N935 C960 1.433 . S
N935 C966 1.435 . S
N935 C972 1.423 . S
H936 C962 0.930 . S
H937 C965 0.931 . S
H938 C964 0.929 . S
H939 C967 0.930 . S
H940 C968 0.932 . S
H941 C971 0.929 . S
H942 C970 0.931 . S
H943 C973 0.929 . S
H944 C977 0.932 1_545 S
H945 C974 0.931 . S
H946 C976 0.999 . S
H947 C979 0.929 . S
H948 C980 0.930 . S
H949 C982 0.929 . S
H950 C983 0.931 . S
H951 C985 0.930 . S
H952 C986 0.932 . S
H953 C988 0.931 . S
H954 C989 0.929 . S
H955 C991 0.929 . S
H956 C992 0.931 . S
H957 C994 0.938 . S
N958 C978 1.433 . S
N958 C984 1.435 . S
N958 C990 1.423 . S
H959 C995 0.932 1_545 S
C960 N935 1.433 . S
C960 C961 1.363 . S
C960 C965 1.370 1_565 S
C961 H934 0.929 . S
C961 C960 1.363 . S
C961 C962 1.385 . S
C962 H936 0.930 . S
C962 C961 1.385 . S
C962 C963 1.357 1_565 S
C963 C962 1.357 1_545 S
C963 C964 1.406 . S
C964 H938 0.929 . S
C964 C963 1.406 . S
C964 C965 1.391 . S
C965 H937 0.931 . S
C965 C960 1.370 1_545 S
C965 C964 1.391 . S
C966 N935 1.435 . S
C966 C967 1.358 1_565 S
C966 C971 1.371 . S
C967 H939 0.930 . S
C967 C966 1.358 1_545 S
C967 C968 1.405 . S
C968 H940 0.932 . S
C968 C967 1.405 . S
C968 C969 1.383 1_545 S
C969 C968 1.383 1_565 S
C969 C970 1.393 . S
C970 H942 0.931 . S
C970 C969 1.393 . S
C970 C971 1.382 . S
C971 H941 0.929 . S
C971 C966 1.371 . S
C971 C970 1.382 . S
C972 N935 1.423 . S
C972 C973 1.362 . S
C972 C977 1.388 . S
C973 H943 0.929 . S
C973 C972 1.362 . S
C973 C974 1.376 . S
C974 H945 0.931 . S
C974 C973 1.376 . S
C974 C975 1.396 . S
C975 C974 1.396 . S
C975 C976 1.348 . S
C975 C993 1.472 . S
C976 H946 0.999 . S
C976 C975 1.348 . S
C976 C977 1.443 . S
C977 H944 0.932 1_565 S
C977 C972 1.388 . S
C977 C976 1.443 . S
C978 N958 1.433 . S
C978 C979 1.363 . S
C978 C983 1.370 1_565 S
C979 H947 0.929 . S
C979 C978 1.363 . S
C979 C980 1.385 . S
C980 H948 0.930 . S
C980 C979 1.385 . S
C980 C981 1.357 1_565 S
C981 C980 1.357 1_545 S
C981 C982 1.406 . S
C982 H949 0.929 . S
C982 C981 1.406 . S
C982 C983 1.391 . S
C983 H950 0.931 . S
C983 C978 1.370 1_545 S
C983 C982 1.391 . S
C984 N958 1.435 . S
C984 C985 1.358 1_565 S
C984 C989 1.371 . S
C985 H951 0.930 . S
C985 C984 1.358 1_545 S
C985 C986 1.405 . S
C986 H952 0.932 . S
C986 C985 1.405 . S
C986 C987 1.383 1_545 S
C987 C986 1.383 1_565 S
C987 C988 1.393 . S
C988 H953 0.931 . S
C988 C987 1.393 . S
C988 C989 1.382 . S
C989 H954 0.929 . S
C989 C984 1.371 . S
C989 C988 1.382 . S
C990 N958 1.423 . S
C990 C991 1.362 . S
C990 C995 1.388 . S
C991 H955 0.929 . S
C991 C990 1.362 . S
C991 C992 1.376 . S
C992 H956 0.931 . S
C992 C991 1.376 . S
C992 C993 1.396 . S
C993 C975 1.472 . S
C993 C992 1.396 . S
C993 C994 1.348 . S
C994 H957 0.938 . S
C994 C993 1.348 . S
C994 C995 1.443 . S
C995 H959 0.932 1_565 S
C995 C990 1.388 . S
C995 C994 1.443 . S
H996 C1023 0.929 . S
N997 C1022 1.433 . S
N997 C1028 1.435 . S
N997 C1034 1.423 . S
H998 C1024 0.930 . S
H999 C1027 0.931 . S
H1000 C1026 0.929 . S
H1001 C1029 0.930 . S
H1002 C1030 0.932 . S
H1003 C1033 0.929 . S
H1004 C1032 0.931 . S
H1005 C1035 0.929 . S
H1006 C1039 0.932 . S
H1007 C1036 0.931 . S
H1008 C1038 0.922 1_545 S
H1009 C1041 0.929 . S
H1010 C1042 0.930 . S
H1011 C1044 0.970 . S
H1012 C1045 0.950 . S
H1013 C1047 0.930 . S
H1014 C1048 0.932 . S
H1015 C1050 0.931 . S
H1016 C1051 0.929 . S
H1017 C1053 0.929 . S
H1018 C1054 0.931 . S
H1019 C1056 0.873 1_545 S
N1020 C1040 1.433 . S
N1020 C1046 1.435 . S
N1020 C1052 1.423 . S
H1021 C1057 0.947 . S
C1022 N997 1.433 . S
C1022 C1023 1.363 . S
C1022 C1027 1.370 1_565 S
C1023 H996 0.929 . S
C1023 C1022 1.363 . S
C1023 C1024 1.385 . S
C1024 H998 0.930 . S
C1024 C1023 1.385 . S
C1024 C1025 1.357 . S
C1025 C1024 1.357 . S
C1025 C1026 1.406 1_565 S
C1026 H1000 0.929 . S
C1026 C1025 1.406 1_545 S
C1026 C1027 1.391 . S
C1027 H999 0.931 . S
C1027 C1022 1.370 1_545 S
C1027 C1026 1.391 . S
C1028 N997 1.435 . S
C1028 C1029 1.358 1_565 S
C1028 C1033 1.371 . S
C1029 H1001 0.930 . S
C1029 C1028 1.358 1_545 S
C1029 C1030 1.405 . S
C1030 H1002 0.932 . S
C1030 C1029 1.405 . S
C1030 C1031 1.383 . S
C1031 C1030 1.383 . S
C1031 C1032 1.393 1_545 S
C1032 H1004 0.931 . S
C1032 C1031 1.393 1_565 S
C1032 C1033 1.382 . S
C1033 H1003 0.929 . S
C1033 C1028 1.371 . S
C1033 C1032 1.382 . S
C1034 N997 1.423 . S
C1034 C1035 1.362 . S
C1034 C1039 1.388 1_565 S
C1035 H1005 0.929 . S
C1035 C1034 1.362 . S
C1035 C1036 1.376 . S
C1036 H1007 0.931 . S
C1036 C1035 1.376 . S
C1036 C1037 1.396 . S
C1037 C1036 1.396 . S
C1037 C1038 1.380 . S
C1037 C1055 1.472 . S
C1038 H1008 0.922 1_565 S
C1038 C1037 1.380 . S
C1038 C1039 1.419 1_565 S
C1039 H1006 0.932 . S
C1039 C1034 1.388 1_545 S
C1039 C1038 1.419 1_545 S
C1040 N1020 1.433 . S
C1040 C1041 1.363 . S
C1040 C1045 1.355 1_565 S
C1041 H1009 0.929 . S
C1041 C1040 1.363 . S
C1041 C1042 1.385 . S
C1042 H1010 0.930 . S
C1042 C1041 1.385 . S
C1042 C1043 1.357 . S
C1043 C1042 1.357 . S
C1043 C1044 1.358 1_565 S
C1044 H1011 0.970 . S
C1044 C1043 1.358 1_545 S
C1044 C1045 1.398 . S
C1045 H1012 0.950 . S
C1045 C1040 1.355 1_545 S
C1045 C1044 1.398 . S
C1046 N1020 1.435 . S
C1046 C1047 1.358 1_565 S
C1046 C1051 1.371 . S
C1047 H1013 0.930 . S
C1047 C1046 1.358 1_545 S
C1047 C1048 1.405 . S
C1048 H1014 0.932 . S
C1048 C1047 1.405 . S
C1048 C1049 1.383 . S
C1049 C1048 1.383 . S
C1049 C1050 1.393 1_545 S
C1050 H1015 0.931 . S
C1050 C1049 1.393 1_565 S
C1050 C1051 1.382 . S
C1051 H1016 0.929 . S
C1051 C1046 1.371 . S
C1051 C1050 1.382 . S
C1052 N1020 1.423 . S
C1052 C1053 1.362 . S
C1052 C1057 1.354 1_565 S
C1053 H1017 0.929 . S
C1053 C1052 1.362 . S
C1053 C1054 1.376 . S
C1054 H1018 0.931 . S
C1054 C1053 1.376 . S
C1054 C1055 1.396 . S
C1055 C1037 1.472 . S
C1055 C1054 1.396 . S
C1055 C1056 1.370 . S
C1056 H1019 0.873 1_565 S
C1056 C1055 1.370 . S
C1056 C1057 1.503 1_565 S
C1057 H1021 0.947 . S
C1057 C1052 1.354 1_545 S
C1057 C1056 1.503 1_545 S
H1058 C1085 0.929 . S
N1059 C1084 1.433 . S
N1059 C1090 1.435 . S
N1059 C1096 1.423 . S
H1060 C1086 0.930 . S
H1061 C1089 0.931 . S
H1062 C1088 0.929 . S
H1063 C1091 0.930 . S
H1064 C1092 0.932 . S
H1065 C1095 0.929 . S
H1066 C1094 0.931 . S
H1067 C1097 0.929 . S
H1068 C1101 0.932 1_455 S
H1069 C1098 0.931 . S
H1070 C1100 1.000 . S
H1071 C1103 0.929 . S
H1072 C1104 0.930 . S
H1073 C1106 0.929 . S
H1074 C1107 0.931 . S
H1075 C1109 0.930 . S
H1076 C1110 0.932 . S
H1077 C1112 0.931 . S
H1078 C1113 0.929 . S
H1079 C1115 0.929 . S
H1080 C1116 0.931 . S
H1081 C1118 0.941 . S
N1082 C1102 1.433 . S
N1082 C1108 1.435 . S
N1082 C1114 1.423 . S
H1083 C1119 0.932 1_455 S
C1084 N1059 1.433 . S
C1084 C1085 1.363 . S
C1084 C1089 1.370 1_655 S
C1085 H1058 0.929 . S
C1085 C1084 1.363 . S
C1085 C1086 1.385 . S
C1086 H1060 0.930 . S
C1086 C1085 1.385 . S
C1086 C1087 1.357 1_655 S
C1087 C1086 1.357 1_455 S
C1087 C1088 1.406 . S
C1088 H1062 0.929 . S
C1088 C1087 1.406 . S
C1088 C1089 1.391 . S
C1089 H1061 0.931 . S
C1089 C1084 1.370 1_455 S
C1089 C1088 1.391 . S
C1090 N1059 1.435 . S
C1090 C1091 1.358 1_655 S
C1090 C1095 1.371 . S
C1091 H1063 0.930 . S
C1091 C1090 1.358 1_455 S
C1091 C1092 1.405 . S
C1092 H1064 0.932 . S
C1092 C1091 1.405 . S
C1092 C1093 1.383 1_455 S
C1093 C1092 1.383 1_655 S
C1093 C1094 1.393 . S
C1094 H1066 0.931 . S
C1094 C1093 1.393 . S
C1094 C1095 1.382 . S
C1095 H1065 0.929 . S
C1095 C1090 1.371 . S
C1095 C1094 1.382 . S
C1096 N1059 1.423 . S
C1096 C1097 1.362 . S
C1096 C1101 1.388 . S
C1097 H1067 0.929 . S
C1097 C1096 1.362 . S
C1097 C1098 1.376 . S
C1098 H1069 0.931 . S
C1098 C1097 1.376 . S
C1098 C1099 1.396 . S
C1099 C1098 1.396 . S
C1099 C1100 1.348 . S
C1099 C1117 1.472 . S
C1100 H1070 1.000 . S
C1100 C1099 1.348 . S
C1100 C1101 1.443 . S
C1101 H1068 0.932 1_655 S
C1101 C1096 1.388 . S
C1101 C1100 1.443 . S
C1102 N1082 1.433 . S
C1102 C1103 1.363 . S
C1102 C1107 1.370 1_655 S
C1103 H1071 0.929 . S
C1103 C1102 1.363 . S
C1103 C1104 1.385 . S
C1104 H1072 0.930 . S
C1104 C1103 1.385 . S
C1104 C1105 1.357 1_655 S
C1105 C1104 1.357 1_455 S
C1105 C1106 1.406 . S
C1106 H1073 0.929 . S
C1106 C1105 1.406 . S
C1106 C1107 1.391 . S
C1107 H1074 0.931 . S
C1107 C1102 1.370 1_455 S
C1107 C1106 1.391 . S
C1108 N1082 1.435 . S
C1108 C1109 1.358 1_655 S
C1108 C1113 1.371 . S
C1109 H1075 0.930 . S
C1109 C1108 1.358 1_455 S
C1109 C1110 1.405 . S
C1110 H1076 0.932 . S
C1110 C1109 1.405 . S
C1110 C1111 1.383 1_455 S
C1111 C1110 1.383 1_655 S
C1111 C1112 1.393 . S
C1112 H1077 0.931 . S
C1112 C1111 1.393 . S
C1112 C1113 1.382 . S
C1113 H1078 0.929 . S
C1113 C1108 1.371 . S
C1113 C1112 1.382 . S
C1114 N1082 1.423 . S
C1114 C1115 1.362 . S
C1114 C1119 1.388 . S
C1115 H1079 0.929 . S
C1115 C1114 1.362 . S
C1115 C1116 1.376 . S
C1116 H1080 0.931 . S
C1116 C1115 1.376 . S
C1116 C1117 1.396 . S
C1117 C1099 1.472 . S
C1117 C1116 1.396 . S
C1117 C1118 1.348 . S
C1118 H1081 0.941 . S
C1118 C1117 1.348 . S
C1118 C1119 1.443 . S
C1119 H1083 0.932 1_655 S
C1119 C1114 1.388 . S
C1119 C1118 1.443 . S
H1120 C1147 0.929 . S
N1121 C1146 1.433 . S
N1121 C1152 1.435 . S
N1121 C1158 1.423 . S
H1122 C1148 0.930 . S
H1123 C1151 0.931 . S
H1124 C1150 0.929 . S
H1125 C1153 0.930 . S
H1126 C1154 0.932 . S
H1127 C1157 0.929 . S
H1128 C1156 0.931 . S
H1129 C1159 0.929 . S
H1130 C1163 0.932 . S
H1131 C1160 0.931 . S
H1132 C1162 0.929 . S
H1133 C1165 0.929 . S
H1134 C1166 0.930 . S
H1135 C1168 0.929 . S
H1136 C1169 0.931 . S
H1137 C1171 0.930 . S
H1138 C1172 0.932 . S
H1139 C1174 0.931 . S
H1140 C1175 0.929 . S
H1141 C1177 0.929 . S
H1142 C1178 0.931 . S
H1143 C1180 0.929 . S
N1144 C1164 1.433 . S
N1144 C1170 1.435 . S
N1144 C1176 1.423 . S
H1145 C1181 0.932 . S
C1146 N1121 1.433 . S
C1146 C1147 1.363 . S
C1146 C1151 1.370 . S
C1147 H1120 0.929 . S
C1147 C1146 1.363 . S
C1147 C1148 1.385 . S
C1148 H1122 0.930 . S
C1148 C1147 1.385 . S
C1148 C1149 1.357 . S
C1149 C1148 1.357 . S
C1149 C1150 1.406 . S
C1150 H1124 0.929 . S
C1150 C1149 1.406 . S
C1150 C1151 1.391 . S
C1151 H1123 0.931 . S
C1151 C1146 1.370 . S
C1151 C1150 1.391 . S
C1152 N1121 1.435 . S
C1152 C1153 1.358 . S
C1152 C1157 1.371 . S
C1153 H1125 0.930 . S
C1153 C1152 1.358 . S
C1153 C1154 1.405 . S
C1154 H1126 0.932 . S
C1154 C1153 1.405 . S
C1154 C1155 1.383 . S
C1155 C1154 1.383 . S
C1155 C1156 1.393 . S
C1156 H1128 0.931 . S
C1156 C1155 1.393 . S
C1156 C1157 1.382 . S
C1157 H1127 0.929 . S
C1157 C1152 1.371 . S
C1157 C1156 1.382 . S
C1158 N1121 1.423 . S
C1158 C1159 1.362 . S
C1158 C1163 1.388 . S
C1159 H1129 0.929 . S
C1159 C1158 1.362 . S
C1159 C1160 1.376 . S
C1160 H1131 0.931 . S
C1160 C1159 1.376 . S
C1160 C1161 1.396 . S
C1161 C1160 1.396 . S
C1161 C1162 1.348 . S
C1161 C1179 1.472 . S
C1162 H1132 0.929 . S
C1162 C1161 1.348 . S
C1162 C1163 1.443 . S
C1163 H1130 0.932 . S
C1163 C1158 1.388 . S
C1163 C1162 1.443 . S
C1164 N1144 1.433 . S
C1164 C1165 1.363 . S
C1164 C1169 1.370 . S
C1165 H1133 0.929 . S
C1165 C1164 1.363 . S
C1165 C1166 1.385 . S
C1166 H1134 0.930 . S
C1166 C1165 1.385 . S
C1166 C1167 1.357 . S
C1167 C1166 1.357 . S
C1167 C1168 1.406 . S
C1168 H1135 0.929 . S
C1168 C1167 1.406 . S
C1168 C1169 1.391 . S
C1169 H1136 0.931 . S
C1169 C1164 1.370 . S
C1169 C1168 1.391 . S
C1170 N1144 1.435 . S
C1170 C1171 1.358 . S
C1170 C1175 1.371 . S
C1171 H1137 0.930 . S
C1171 C1170 1.358 . S
C1171 C1172 1.405 . S
C1172 H1138 0.932 . S
C1172 C1171 1.405 . S
C1172 C1173 1.383 . S
C1173 C1172 1.383 . S
C1173 C1174 1.393 . S
C1174 H1139 0.931 . S
C1174 C1173 1.393 . S
C1174 C1175 1.382 . S
C1175 H1140 0.929 . S
C1175 C1170 1.371 . S
C1175 C1174 1.382 . S
C1176 N1144 1.423 . S
C1176 C1177 1.362 . S
C1176 C1181 1.388 . S
C1177 H1141 0.929 . S
C1177 C1176 1.362 . S
C1177 C1178 1.376 . S
C1178 H1142 0.931 . S
C1178 C1177 1.376 . S
C1178 C1179 1.396 . S
C1179 C1161 1.472 . S
C1179 C1178 1.396 . S
C1179 C1180 1.348 . S
C1180 H1143 0.929 . S
C1180 C1179 1.348 . S
C1180 C1181 1.443 . S
C1181 H1145 0.932 . S
C1181 C1176 1.388 . S
C1181 C1180 1.443 . S
H1182 C1209 0.929 . S
N1183 C1208 1.433 . S
N1183 C1214 1.435 . S
N1183 C1220 1.423 . S
H1184 C1210 0.930 . S
H1185 C1213 0.931 . S
H1186 C1212 0.929 . S
H1187 C1215 0.930 . S
H1188 C1216 0.932 . S
H1189 C1219 0.929 . S
H1190 C1218 0.931 . S
H1191 C1221 0.929 . S
H1192 C1225 0.932 . S
H1193 C1222 0.931 . S
H1194 C1224 0.929 . S
H1195 C1227 0.929 . S
H1196 C1228 0.930 . S
H1197 C1230 0.929 . S
H1198 C1231 0.931 . S
H1199 C1233 0.930 . S
H1200 C1234 0.932 . S
H1201 C1236 0.931 . S
H1202 C1237 0.929 . S
H1203 C1239 0.929 . S
H1204 C1240 0.931 . S
H1205 C1242 0.929 . S
N1206 C1226 1.433 . S
N1206 C1232 1.435 . S
N1206 C1238 1.423 . S
H1207 C1243 0.932 . S
C1208 N1183 1.433 . S
C1208 C1209 1.363 . S
C1208 C1213 1.370 . S
C1209 H1182 0.929 . S
C1209 C1208 1.363 . S
C1209 C1210 1.385 . S
C1210 H1184 0.930 . S
C1210 C1209 1.385 . S
C1210 C1211 1.357 . S
C1211 C1210 1.357 . S
C1211 C1212 1.406 . S
C1212 H1186 0.929 . S
C1212 C1211 1.406 . S
C1212 C1213 1.391 . S
C1213 H1185 0.931 . S
C1213 C1208 1.370 . S
C1213 C1212 1.391 . S
C1214 N1183 1.435 . S
C1214 C1215 1.358 . S
C1214 C1219 1.371 . S
C1215 H1187 0.930 . S
C1215 C1214 1.358 . S
C1215 C1216 1.405 . S
C1216 H1188 0.932 . S
C1216 C1215 1.405 . S
C1216 C1217 1.383 . S
C1217 C1216 1.383 . S
C1217 C1218 1.393 . S
C1218 H1190 0.931 . S
C1218 C1217 1.393 . S
C1218 C1219 1.382 . S
C1219 H1189 0.929 . S
C1219 C1214 1.371 . S
C1219 C1218 1.382 . S
C1220 N1183 1.423 . S
C1220 C1221 1.362 . S
C1220 C1225 1.388 . S
C1221 H1191 0.929 . S
C1221 C1220 1.362 . S
C1221 C1222 1.376 . S
C1222 H1193 0.931 . S
C1222 C1221 1.376 . S
C1222 C1223 1.396 . S
C1223 C1222 1.396 . S
C1223 C1224 1.348 . S
C1223 C1241 1.472 . S
C1224 H1194 0.929 . S
C1224 C1223 1.348 . S
C1224 C1225 1.443 . S
C1225 H1192 0.932 . S
C1225 C1220 1.388 . S
C1225 C1224 1.443 . S
C1226 N1206 1.433 . S
C1226 C1227 1.363 . S
C1226 C1231 1.370 . S
C1227 H1195 0.929 . S
C1227 C1226 1.363 . S
C1227 C1228 1.385 . S
C1228 H1196 0.930 . S
C1228 C1227 1.385 . S
C1228 C1229 1.357 . S
C1229 C1228 1.357 . S
C1229 C1230 1.406 . S
C1230 H1197 0.929 . S
C1230 C1229 1.406 . S
C1230 C1231 1.391 . S
C1231 H1198 0.931 . S
C1231 C1226 1.370 . S
C1231 C1230 1.391 . S
C1232 N1206 1.435 . S
C1232 C1233 1.358 . S
C1232 C1237 1.371 . S
C1233 H1199 0.930 . S
C1233 C1232 1.358 . S
C1233 C1234 1.405 . S
C1234 H1200 0.932 . S
C1234 C1233 1.405 . S
C1234 C1235 1.383 . S
C1235 C1234 1.383 . S
C1235 C1236 1.393 . S
C1236 H1201 0.931 . S
C1236 C1235 1.393 . S
C1236 C1237 1.382 . S
C1237 H1202 0.929 . S
C1237 C1232 1.371 . S
C1237 C1236 1.382 . S
C1238 N1206 1.423 . S
C1238 C1239 1.362 . S
C1238 C1243 1.388 . S
C1239 H1203 0.929 . S
C1239 C1238 1.362 . S
C1239 C1240 1.376 . S
C1240 H1204 0.931 . S
C1240 C1239 1.376 . S
C1240 C1241 1.396 . S
C1241 C1223 1.472 . S
C1241 C1240 1.396 . S
C1241 C1242 1.348 . S
C1242 H1205 0.929 . S
C1242 C1241 1.348 . S
C1242 C1243 1.443 . S
C1243 H1207 0.932 . S
C1243 C1238 1.388 . S
C1243 C1242 1.443 . S
H1244 C1271 0.929 . S
N1245 C1270 1.433 . S
N1245 C1276 1.435 . S
N1245 C1282 1.423 . S
H1246 C1272 0.930 . S
H1247 C1275 0.931 . S
H1248 C1274 0.929 . S
H1249 C1277 0.930 . S
H1250 C1278 0.932 . S
H1251 C1281 0.929 . S
H1252 C1280 0.931 . S
H1253 C1283 0.929 . S
H1254 C1287 0.932 . S
H1255 C1284 0.931 . S
H1256 C1286 0.929 . S
H1257 C1289 0.929 . S
H1258 C1290 0.930 . S
H1259 C1292 0.929 . S
H1260 C1293 0.931 . S
H1261 C1295 0.930 . S
H1262 C1296 0.932 . S
H1263 C1298 0.931 . S
H1264 C1299 0.929 . S
H1265 C1301 0.929 . S
H1266 C1302 0.931 . S
H1267 C1304 0.929 . S
N1268 C1288 1.433 . S
N1268 C1294 1.435 . S
N1268 C1300 1.423 . S
H1269 C1305 0.932 . S
C1270 N1245 1.433 . S
C1270 C1271 1.363 . S
C1270 C1275 1.370 . S
C1271 H1244 0.929 . S
C1271 C1270 1.363 . S
C1271 C1272 1.385 . S
C1272 H1246 0.930 . S
C1272 C1271 1.385 . S
C1272 C1273 1.357 . S
C1273 C1272 1.357 . S
C1273 C1274 1.406 . S
C1274 H1248 0.929 . S
C1274 C1273 1.406 . S
C1274 C1275 1.391 . S
C1275 H1247 0.931 . S
C1275 C1270 1.370 . S
C1275 C1274 1.391 . S
C1276 N1245 1.435 . S
C1276 C1277 1.358 . S
C1276 C1281 1.371 . S
C1277 H1249 0.930 . S
C1277 C1276 1.358 . S
C1277 C1278 1.405 . S
C1278 H1250 0.932 . S
C1278 C1277 1.405 . S
C1278 C1279 1.383 . S
C1279 C1278 1.383 . S
C1279 C1280 1.393 . S
C1280 H1252 0.931 . S
C1280 C1279 1.393 . S
C1280 C1281 1.382 . S
C1281 H1251 0.929 . S
C1281 C1276 1.371 . S
C1281 C1280 1.382 . S
C1282 N1245 1.423 . S
C1282 C1283 1.362 . S
C1282 C1287 1.388 . S
C1283 H1253 0.929 . S
C1283 C1282 1.362 . S
C1283 C1284 1.376 . S
C1284 H1255 0.931 . S
C1284 C1283 1.376 . S
C1284 C1285 1.396 . S
C1285 C1284 1.396 . S
C1285 C1286 1.348 . S
C1285 C1303 1.472 . S
C1286 H1256 0.929 . S
C1286 C1285 1.348 . S
C1286 C1287 1.443 . S
C1287 H1254 0.932 . S
C1287 C1282 1.388 . S
C1287 C1286 1.443 . S
C1288 N1268 1.433 . S
C1288 C1289 1.363 . S
C1288 C1293 1.370 . S
C1289 H1257 0.929 . S
C1289 C1288 1.363 . S
C1289 C1290 1.385 . S
C1290 H1258 0.930 . S
C1290 C1289 1.385 . S
C1290 C1291 1.357 . S
C1291 C1290 1.357 . S
C1291 C1292 1.406 . S
C1292 H1259 0.929 . S
C1292 C1291 1.406 . S
C1292 C1293 1.391 . S
C1293 H1260 0.931 . S
C1293 C1288 1.370 . S
C1293 C1292 1.391 . S
C1294 N1268 1.435 . S
C1294 C1295 1.358 . S
C1294 C1299 1.371 . S
C1295 H1261 0.930 . S
C1295 C1294 1.358 . S
C1295 C1296 1.405 . S
C1296 H1262 0.932 . S
C1296 C1295 1.405 . S
C1296 C1297 1.383 . S
C1297 C1296 1.383 . S
C1297 C1298 1.393 . S
C1298 H1263 0.931 . S
C1298 C1297 1.393 . S
C1298 C1299 1.382 . S
C1299 H1264 0.929 . S
C1299 C1294 1.371 . S
C1299 C1298 1.382 . S
C1300 N1268 1.423 . S
C1300 C1301 1.362 . S
C1300 C1305 1.388 . S
C1301 H1265 0.929 . S
C1301 C1300 1.362 . S
C1301 C1302 1.376 . S
C1302 H1266 0.931 . S
C1302 C1301 1.376 . S
C1302 C1303 1.396 . S
C1303 C1285 1.472 . S
C1303 C1302 1.396 . S
C1303 C1304 1.348 . S
C1304 H1267 0.929 . S
C1304 C1303 1.348 . S
C1304 C1305 1.443 . S
C1305 H1269 0.932 . S
C1305 C1300 1.388 . S
C1305 C1304 1.443 . S
H1306 C1333 0.929 . S
N1307 C1332 1.433 . S
N1307 C1338 1.435 . S
N1307 C1344 1.423 . S
H1308 C1334 0.930 . S
H1309 C1337 0.931 . S
H1310 C1336 0.929 . S
H1311 C1339 0.930 . S
H1312 C1340 0.932 . S
H1313 C1343 0.929 . S
H1314 C1342 0.931 . S
H1315 C1345 0.929 . S
H1316 C1349 0.932 . S
H1317 C1346 0.931 . S
H1318 C1348 0.929 . S
H1319 C1351 0.929 . S
H1320 C1352 0.930 . S
H1321 C1354 0.929 . S
H1322 C1355 0.931 . S
H1323 C1357 0.930 . S
H1324 C1358 0.932 . S
H1325 C1360 0.931 . S
H1326 C1361 0.929 . S
H1327 C1363 0.929 . S
H1328 C1364 0.931 . S
H1329 C1366 0.929 . S
N1330 C1350 1.433 . S
N1330 C1356 1.435 . S
N1330 C1362 1.423 . S
H1331 C1367 0.932 . S
C1332 N1307 1.433 . S
C1332 C1333 1.363 . S
C1332 C1337 1.370 . S
C1333 H1306 0.929 . S
C1333 C1332 1.363 . S
C1333 C1334 1.385 . S
C1334 H1308 0.930 . S
C1334 C1333 1.385 . S
C1334 C1335 1.357 . S
C1335 C1334 1.357 . S
C1335 C1336 1.406 . S
C1336 H1310 0.929 . S
C1336 C1335 1.406 . S
C1336 C1337 1.391 . S
C1337 H1309 0.931 . S
C1337 C1332 1.370 . S
C1337 C1336 1.391 . S
C1338 N1307 1.435 . S
C1338 C1339 1.358 . S
C1338 C1343 1.371 . S
C1339 H1311 0.930 . S
C1339 C1338 1.358 . S
C1339 C1340 1.405 . S
C1340 H1312 0.932 . S
C1340 C1339 1.405 . S
C1340 C1341 1.383 . S
C1341 C1340 1.383 . S
C1341 C1342 1.393 . S
C1342 H1314 0.931 . S
C1342 C1341 1.393 . S
C1342 C1343 1.382 . S
C1343 H1313 0.929 . S
C1343 C1338 1.371 . S
C1343 C1342 1.382 . S
C1344 N1307 1.423 . S
C1344 C1345 1.362 . S
C1344 C1349 1.388 . S
C1345 H1315 0.929 . S
C1345 C1344 1.362 . S
C1345 C1346 1.376 . S
C1346 H1317 0.931 . S
C1346 C1345 1.376 . S
C1346 C1347 1.396 . S
C1347 C1346 1.396 . S
C1347 C1348 1.348 . S
C1347 C1365 1.472 . S
C1348 H1318 0.929 . S
C1348 C1347 1.348 . S
C1348 C1349 1.443 . S
C1349 H1316 0.932 . S
C1349 C1344 1.388 . S
C1349 C1348 1.443 . S
C1350 N1330 1.433 . S
C1350 C1351 1.363 . S
C1350 C1355 1.370 . S
C1351 H1319 0.929 . S
C1351 C1350 1.363 . S
C1351 C1352 1.385 . S
C1352 H1320 0.930 . S
C1352 C1351 1.385 . S
C1352 C1353 1.357 . S
C1353 C1352 1.357 . S
C1353 C1354 1.406 . S
C1354 H1321 0.929 . S
C1354 C1353 1.406 . S
C1354 C1355 1.391 . S
C1355 H1322 0.931 . S
C1355 C1350 1.370 . S
C1355 C1354 1.391 . S
C1356 N1330 1.435 . S
C1356 C1357 1.358 . S
C1356 C1361 1.371 . S
C1357 H1323 0.930 . S
C1357 C1356 1.358 . S
C1357 C1358 1.405 . S
C1358 H1324 0.932 . S
C1358 C1357 1.405 . S
C1358 C1359 1.383 . S
C1359 C1358 1.383 . S
C1359 C1360 1.393 . S
C1360 H1325 0.931 . S
C1360 C1359 1.393 . S
C1360 C1361 1.382 . S
C1361 H1326 0.929 . S
C1361 C1356 1.371 . S
C1361 C1360 1.382 . S
C1362 N1330 1.423 . S
C1362 C1363 1.362 . S
C1362 C1367 1.388 . S
C1363 H1327 0.929 . S
C1363 C1362 1.362 . S
C1363 C1364 1.376 . S
C1364 H1328 0.931 . S
C1364 C1363 1.376 . S
C1364 C1365 1.396 . S
C1365 C1347 1.472 . S
C1365 C1364 1.396 . S
C1365 C1366 1.348 . S
C1366 H1329 0.929 . S
C1366 C1365 1.348 . S
C1366 C1367 1.443 . S
C1367 H1331 0.932 . S
C1367 C1362 1.388 . S
C1367 C1366 1.443 . S
H1368 C1386 0.951 . S
H1369 C1388 0.951 . S
H1370 C1390 0.950 . S
H1371 C1391 0.950 . S
H1372 C1393 0.950 . S
H1373 C1396 0.950 1_655 S
H1374 C1397 0.950 . S
H1375 C1399 0.950 . S
H1376 C1400 0.950 . S
H1377 C1401 0.951 . S
H1378 C1403 0.951 . S
H1379 C1405 0.950 . S
H1380 C1406 0.950 . S
H1381 C1408 0.950 . S
H1382 C1411 0.950 . S
H1383 C1412 0.950 . S
H1384 C1414 0.950 . S
H1385 C1415 0.950 . S
C1386 H1368 0.951 . S
C1386 C1387 1.366 1_455 S
C1386 C1388 1.388 . S
C1387 C1386 1.366 1_655 S
C1387 C1391 1.385 . S
C1388 H1369 0.951 . S
C1388 C1386 1.388 . S
C1388 C1389 1.366 1_455 S
C1389 C1388 1.366 1_655 S
C1389 C1390 1.414 . S
C1389 C1392 1.499 . S
C1390 H1370 0.950 . S
C1390 C1389 1.414 . S
C1390 C1391 1.374 . S
C1391 H1371 0.950 . S
C1391 C1387 1.385 . S
C1391 C1390 1.374 . S
C1392 C1389 1.499 . S
C1392 C1393 1.373 . S
C1392 C1394 1.389 1_655 S
C1393 H1372 0.950 . S
C1393 C1392 1.373 . S
C1393 C1409 1.377 . S
C1394 C1392 1.389 1_455 S
C1394 C1395 1.524 . S
C1394 C1408 1.377 . S
C1395 C1394 1.524 . S
C1395 C1396 1.397 . S
C1395 C1400 1.363 . S
C1396 H1373 0.950 1_455 S
C1396 C1395 1.397 . S
C1396 C1397 1.334 . S
C1397 H1374 0.950 . S
C1397 C1396 1.334 . S
C1397 C1398 1.287 . S
C1398 C1397 1.287 . S
C1398 C1399 1.524 . S
C1398 H1417 0.913 . S
C1399 H1375 0.950 . S
C1399 C1398 1.524 . S
C1399 C1400 1.415 . S
C1400 H1376 0.950 . S
C1400 C1395 1.363 . S
C1400 C1399 1.415 . S
C1401 H1377 0.951 . S
C1401 C1402 1.366 . S
C1401 C1403 1.388 . S
C1402 C1401 1.366 . S
C1402 C1406 1.385 1_655 S
C1403 H1378 0.951 . S
C1403 C1401 1.388 . S
C1403 C1404 1.366 . S
C1404 C1403 1.366 . S
C1404 C1405 1.414 1_655 S
C1404 C1407 1.499 . S
C1405 H1379 0.950 . S
C1405 C1404 1.414 1_455 S
C1405 C1406 1.374 . S
C1406 H1380 0.950 . S
C1406 C1402 1.385 1_455 S
C1406 C1405 1.374 . S
C1407 C1404 1.499 . S
C1407 C1408 1.373 1_655 S
C1407 C1409 1.389 . S
C1408 H1381 0.950 . S
C1408 C1394 1.377 . S
C1408 C1407 1.373 1_455 S
C1409 C1393 1.377 . S
C1409 C1407 1.389 . S
C1409 C1410 1.524 . S
C1410 C1409 1.524 . S
C1410 C1411 1.397 . S
C1410 C1415 1.363 . S
C1411 H1382 0.950 . S
C1411 C1410 1.397 . S
C1411 C1412 1.334 . S
C1412 H1383 0.950 . S
C1412 C1411 1.334 . S
C1412 C1413 1.287 . S
C1413 C1412 1.287 . S
C1413 C1414 1.524 . S
C1413 H1416 0.999 . S
C1414 H1384 0.950 . S
C1414 C1413 1.524 . S
C1414 C1415 1.415 . S
C1415 H1385 0.950 . S
C1415 C1410 1.363 . S
C1415 C1414 1.415 . S
H1416 C1413 0.999 . S
H1417 C1398 0.913 . S
H1418 C1436 0.951 . S
H1419 C1438 0.951 . S
H1420 C1440 0.950 . S
H1421 C1441 0.950 . S
H1422 C1443 0.950 . S
H1423 C1446 0.950 . S
H1424 C1447 0.950 . S
H1425 C1449 0.950 . S
H1426 C1450 0.950 . S
H1427 C1451 0.951 . S
H1428 C1453 0.951 . S
H1429 C1455 0.950 . S
H1430 C1456 0.950 . S
H1431 C1458 0.950 . S
H1432 C1461 0.950 . S
H1433 C1462 0.950 . S
H1434 C1464 0.950 . S
H1435 C1465 0.950 . S
C1436 H1418 0.951 . S
C1436 C1437 1.366 . S
C1436 C1438 1.388 . S
C1437 C1436 1.366 . S
C1437 C1441 1.385 . S
C1438 H1419 0.951 . S
C1438 C1436 1.388 . S
C1438 C1439 1.366 . S
C1439 C1438 1.366 . S
C1439 C1440 1.414 . S
C1439 C1442 1.499 . S
C1440 H1420 0.950 . S
C1440 C1439 1.414 . S
C1440 C1441 1.374 . S
C1441 H1421 0.950 . S
C1441 C1437 1.385 . S
C1441 C1440 1.374 . S
C1442 C1439 1.499 . S
C1442 C1443 1.373 . S
C1442 C1444 1.389 . S
C1443 H1422 0.950 . S
C1443 C1442 1.373 . S
C1443 C1459 1.377 . S
C1444 C1442 1.389 . S
C1444 C1445 1.524 . S
C1444 C1458 1.377 . S
C1445 C1444 1.524 . S
C1445 C1446 1.397 . S
C1445 C1450 1.363 . S
C1446 H1423 0.950 . S
C1446 C1445 1.397 . S
C1446 C1447 1.334 . S
C1447 H1424 0.950 . S
C1447 C1446 1.334 . S
C1447 C1448 1.287 . S
C1448 C1447 1.287 . S
C1448 C1449 1.524 . S
C1448 H1467 0.913 . S
C1449 H1425 0.950 . S
C1449 C1448 1.524 . S
C1449 C1450 1.415 . S
C1450 H1426 0.950 . S
C1450 C1445 1.363 . S
C1450 C1449 1.415 . S
C1451 H1427 0.951 . S
C1451 C1452 1.366 . S
C1451 C1453 1.388 . S
C1452 C1451 1.366 . S
C1452 C1456 1.385 . S
C1453 H1428 0.951 . S
C1453 C1451 1.388 . S
C1453 C1454 1.366 . S
C1454 C1453 1.366 . S
C1454 C1455 1.414 . S
C1454 C1457 1.499 . S
C1455 H1429 0.950 . S
C1455 C1454 1.414 . S
C1455 C1456 1.374 . S
C1456 H1430 0.950 . S
C1456 C1452 1.385 . S
C1456 C1455 1.374 . S
C1457 C1454 1.499 . S
C1457 C1458 1.373 . S
C1457 C1459 1.389 . S
C1458 H1431 0.950 . S
C1458 C1444 1.377 . S
C1458 C1457 1.373 . S
C1459 C1443 1.377 . S
C1459 C1457 1.389 . S
C1459 C1460 1.524 . S
C1460 C1459 1.524 . S
C1460 C1461 1.397 . S
C1460 C1465 1.363 . S
C1461 H1432 0.950 . S
C1461 C1460 1.397 . S
C1461 C1462 1.334 . S
C1462 H1433 0.950 . S
C1462 C1461 1.334 . S
C1462 C1463 1.287 . S
C1463 C1462 1.287 . S
C1463 C1464 1.524 . S
C1463 H1466 0.999 . S
C1464 H1434 0.950 . S
C1464 C1463 1.524 . S
C1464 C1465 1.415 . S
C1465 H1435 0.950 . S
C1465 C1460 1.363 . S
C1465 C1464 1.415 . S
H1466 C1463 0.999 . S
H1467 C1448 0.913 . S
H1468 C1486 0.951 . S
H1469 C1488 0.951 . S
H1470 C1490 0.950 . S
H1471 C1491 0.950 . S
H1472 C1493 0.950 . S
H1473 C1496 0.950 . S
H1474 C1497 0.950 . S
H1475 C1499 0.950 . S
H1476 C1500 0.950 . S
H1477 C1501 0.951 . S
H1478 C1503 0.951 . S
H1479 C1505 0.950 . S
H1480 C1506 0.950 . S
H1481 C1508 0.950 . S
H1482 C1511 0.950 . S
H1483 C1512 0.950 . S
H1484 C1514 0.950 . S
H1485 C1515 0.950 . S
C1486 H1468 0.951 . S
C1486 C1487 1.366 . S
C1486 C1488 1.388 . S
C1487 C1486 1.366 . S
C1487 C1491 1.385 . S
C1488 H1469 0.951 . S
C1488 C1486 1.388 . S
C1488 C1489 1.366 . S
C1489 C1488 1.366 . S
C1489 C1490 1.414 . S
C1489 C1492 1.499 . S
C1490 H1470 0.950 . S
C1490 C1489 1.414 . S
C1490 C1491 1.374 . S
C1491 H1471 0.950 . S
C1491 C1487 1.385 . S
C1491 C1490 1.374 . S
C1492 C1489 1.499 . S
C1492 C1493 1.373 . S
C1492 C1494 1.389 1_545 S
C1493 H1472 0.950 . S
C1493 C1492 1.373 . S
C1493 C1509 1.377 . S
C1494 C1492 1.389 1_565 S
C1494 C1495 1.524 . S
C1494 C1508 1.377 . S
C1495 C1494 1.524 . S
C1495 C1496 1.397 . S
C1495 C1500 1.363 . S
C1496 H1473 0.950 . S
C1496 C1495 1.397 . S
C1496 C1497 1.334 . S
C1497 H1474 0.950 . S
C1497 C1496 1.334 . S
C1497 C1498 1.287 . S
C1498 C1497 1.287 . S
C1498 C1499 1.524 . S
C1498 H1517 0.913 . S
C1499 H1475 0.950 . S
C1499 C1498 1.524 . S
C1499 C1500 1.415 . S
C1500 H1476 0.950 . S
C1500 C1495 1.363 . S
C1500 C1499 1.415 . S
C1501 H1477 0.951 . S
C1501 C1502 1.366 . S
C1501 C1503 1.388 . S
C1502 C1501 1.366 . S
C1502 C1506 1.385 . S
C1503 H1478 0.951 . S
C1503 C1501 1.388 . S
C1503 C1504 1.366 . S
C1504 C1503 1.366 . S
C1504 C1505 1.414 . S
C1504 C1507 1.499 . S
C1505 H1479 0.950 . S
C1505 C1504 1.414 . S
C1505 C1506 1.374 . S
C1506 H1480 0.950 . S
C1506 C1502 1.385 . S
C1506 C1505 1.374 . S
C1507 C1504 1.499 . S
C1507 C1508 1.373 1_545 S
C1507 C1509 1.389 . S
C1508 H1481 0.950 . S
C1508 C1494 1.377 . S
C1508 C1507 1.373 1_565 S
C1509 C1493 1.377 . S
C1509 C1507 1.389 . S
C1509 C1510 1.524 . S
C1510 C1509 1.524 . S
C1510 C1511 1.397 . S
C1510 C1515 1.363 . S
C1511 H1482 0.950 . S
C1511 C1510 1.397 . S
C1511 C1512 1.334 . S
C1512 H1483 0.950 . S
C1512 C1511 1.334 . S
C1512 C1513 1.287 . S
C1513 C1512 1.287 . S
C1513 C1514 1.524 . S
C1513 H1516 0.999 . S
C1514 H1484 0.950 . S
C1514 C1513 1.524 . S
C1514 C1515 1.415 . S
C1515 H1485 0.950 . S
C1515 C1510 1.363 . S
C1515 C1514 1.415 . S
H1516 C1513 0.999 . S
H1517 C1498 0.913 . S
H1518 C1536 0.951 . S
H1519 C1538 0.951 . S
H1520 C1540 0.950 . S
H1521 C1541 0.950 . S
H1522 C1543 0.950 . S
H1523 C1546 0.950 . S
H1524 C1547 0.950 . S
H1525 C1549 0.950 . S
H1526 C1550 0.950 . S
H1527 C1551 0.951 . S
H1528 C1553 0.951 . S
H1529 C1555 0.950 . S
H1530 C1556 0.950 . S
H1531 C1558 0.950 . S
H1532 C1561 0.931 1_565 S
H1533 C1562 0.950 . S
H1534 C1564 0.950 . S
H1535 C1565 0.950 . S
C1536 H1518 0.951 . S
C1536 C1537 1.356 1_565 S
C1536 C1538 1.388 . S
C1537 C1536 1.356 1_545 S
C1537 C1541 1.390 . S
C1538 H1519 0.951 . S
C1538 C1536 1.388 . S
C1538 C1539 1.402 . S
C1539 C1538 1.402 . S
C1539 C1540 1.345 1_565 S
C1539 C1542 1.494 . S
C1540 H1520 0.950 . S
C1540 C1539 1.345 1_545 S
C1540 C1541 1.374 . S
C1541 H1521 0.950 . S
C1541 C1537 1.390 . S
C1541 C1540 1.374 . S
C1542 C1539 1.494 . S
C1542 C1543 1.329 1_565 S
C1542 C1544 1.472 . S
C1543 H1522 0.950 . S
C1543 C1542 1.329 1_545 S
C1543 C1559 1.377 . S
C1544 C1542 1.472 . S
C1544 C1545 1.524 . S
C1544 C1558 1.377 . S
C1545 C1544 1.524 . S
C1545 C1546 1.397 . S
C1545 C1550 1.363 . S
C1546 H1523 0.950 . S
C1546 C1545 1.397 . S
C1546 C1547 1.334 . S
C1547 H1524 0.950 . S
C1547 C1546 1.334 . S
C1547 C1548 1.287 . S
C1548 C1547 1.287 . S
C1548 C1549 1.524 . S
C1548 H1567 0.913 . S
C1549 H1525 0.950 . S
C1549 C1548 1.524 . S
C1549 C1550 1.415 . S
C1550 H1526 0.950 . S
C1550 C1545 1.363 . S
C1550 C1549 1.415 . S
C1551 H1527 0.951 . S
C1551 C1552 1.366 1_545 S
C1551 C1553 1.388 . S
C1552 C1551 1.366 1_565 S
C1552 C1556 1.385 . S
C1553 H1528 0.951 . S
C1553 C1551 1.388 . S
C1553 C1554 1.366 1_545 S
C1554 C1553 1.366 1_565 S
C1554 C1555 1.414 . S
C1554 C1557 1.499 . S
C1555 H1529 0.950 . S
C1555 C1554 1.414 . S
C1555 C1556 1.374 . S
C1556 H1530 0.950 . S
C1556 C1552 1.385 . S
C1556 C1555 1.374 . S
C1557 C1554 1.499 . S
C1557 C1558 1.373 . S
C1557 C1559 1.389 1_565 S
C1558 H1531 0.950 . S
C1558 C1544 1.377 . S
C1558 C1557 1.373 . S
C1559 C1543 1.377 . S
C1559 C1557 1.389 1_545 S
C1559 C1560 1.524 . S
C1560 C1559 1.524 . S
C1560 C1561 1.397 . S
C1560 C1565 1.363 . S
C1561 H1532 0.931 1_545 S
C1561 C1560 1.397 . S
C1561 C1562 1.334 . S
C1562 H1533 0.950 . S
C1562 C1561 1.334 . S
C1562 C1563 1.287 . S
C1563 C1562 1.287 . S
C1563 C1564 1.524 . S
C1563 H1566 0.999 . S
C1564 H1534 0.950 . S
C1564 C1563 1.524 . S
C1564 C1565 1.415 . S
C1565 H1535 0.950 . S
C1565 C1560 1.363 . S
C1565 C1564 1.415 . S
H1566 C1563 0.999 . S
H1567 C1548 0.913 . S
H1568 C1586 0.951 . S
H1569 C1588 0.958 . S
H1570 C1590 0.950 . S
H1571 C1591 0.950 . S
H1572 C1593 0.950 . S
H1573 C1596 0.950 . S
H1574 C1597 0.950 . S
H1575 C1599 0.950 . S
H1576 C1600 0.950 . S
H1577 C1601 0.951 . S
H1578 C1603 0.951 . S
H1579 C1605 0.950 . S
H1580 C1606 0.950 . S
H1581 C1608 0.950 . S
H1582 C1611 0.950 . S
H1583 C1612 0.950 . S
H1584 C1614 0.949 1_455 S
H1585 C1615 0.950 . S
C1586 H1568 0.951 . S
C1586 C1587 1.350 1_655 S
C1586 C1588 1.398 . S
C1587 C1586 1.350 1_455 S
C1587 C1591 1.385 . S
C1588 H1569 0.958 . S
C1588 C1586 1.398 . S
C1588 C1589 1.366 1_655 S
C1589 C1588 1.366 1_455 S
C1589 C1590 1.414 . S
C1589 C1592 1.499 . S
C1590 H1570 0.950 . S
C1590 C1589 1.414 . S
C1590 C1591 1.374 . S
C1591 H1571 0.950 . S
C1591 C1587 1.385 . S
C1591 C1590 1.374 . S
C1592 C1589 1.499 . S
C1592 C1593 1.373 . S
C1592 C1594 1.389 . S
C1593 H1572 0.950 . S
C1593 C1592 1.373 . S
C1593 C1609 1.377 . S
C1594 C1592 1.389 . S
C1594 C1595 1.524 . S
C1594 C1608 1.377 . S
C1595 C1594 1.524 . S
C1595 C1596 1.397 . S
C1595 C1600 1.363 . S
C1596 H1573 0.950 . S
C1596 C1595 1.397 . S
C1596 C1597 1.334 . S
C1597 H1574 0.950 . S
C1597 C1596 1.334 . S
C1597 C1598 1.287 . S
C1598 C1597 1.287 . S
C1598 C1599 1.524 . S
C1598 H1617 0.913 . S
C1599 H1575 0.950 . S
C1599 C1598 1.524 . S
C1599 C1600 1.415 . S
C1600 H1576 0.950 . S
C1600 C1595 1.363 . S
C1600 C1599 1.415 . S
C1601 H1577 0.951 . S
C1601 C1602 1.366 . S
C1601 C1603 1.388 . S
C1602 C1601 1.366 . S
C1602 C1606 1.385 1_455 S
C1603 H1578 0.951 . S
C1603 C1601 1.388 . S
C1603 C1604 1.366 . S
C1604 C1603 1.366 . S
C1604 C1605 1.414 1_455 S
C1604 C1607 1.499 . S
C1605 H1579 0.950 . S
C1605 C1604 1.414 1_655 S
C1605 C1606 1.374 . S
C1606 H1580 0.950 . S
C1606 C1602 1.385 1_655 S
C1606 C1605 1.374 . S
C1607 C1604 1.499 . S
C1607 C1608 1.373 . S
C1607 C1609 1.389 . S
C1608 H1581 0.950 . S
C1608 C1594 1.377 . S
C1608 C1607 1.373 . S
C1609 C1593 1.377 . S
C1609 C1607 1.389 . S
C1609 C1610 1.524 1_455 S
C1610 C1609 1.524 1_655 S
C1610 C1611 1.397 . S
C1610 C1615 1.363 1_655 S
C1611 H1582 0.950 . S
C1611 C1610 1.397 . S
C1611 C1612 1.334 . S
C1612 H1583 0.950 . S
C1612 C1611 1.334 . S
C1612 C1613 1.287 . S
C1613 C1612 1.287 . S
C1613 C1614 1.524 . S
C1613 H1616 0.999 . S
C1614 H1584 0.949 1_655 S
C1614 C1613 1.524 . S
C1614 C1615 1.415 1_655 S
C1615 H1585 0.950 . S
C1615 C1610 1.363 1_455 S
C1615 C1614 1.415 1_455 S
H1616 C1613 0.999 . S
H1617 C1598 0.913 . S
H1618 C1636 0.951 . S
H1619 C1638 0.951 . S
H1620 C1640 0.950 . S
H1621 C1641 0.950 . S
H1622 C1643 0.950 . S
H1623 C1646 0.950 . S
H1624 C1647 0.950 . S
H1625 C1649 0.950 . S
H1626 C1650 0.950 . S
H1627 C1651 0.951 . S
H1628 C1653 0.951 . S
H1629 C1655 0.950 . S
H1630 C1656 0.950 . S
H1631 C1658 0.950 . S
H1632 C1661 0.950 . S
H1633 C1662 0.950 . S
H1634 C1664 0.950 . S
H1635 C1665 0.950 . S
C1636 H1618 0.951 . S
C1636 C1637 1.366 . S
C1636 C1638 1.388 . S
C1637 C1636 1.366 . S
C1637 C1641 1.385 . S
C1638 H1619 0.951 . S
C1638 C1636 1.388 . S
C1638 C1639 1.366 . S
C1639 C1638 1.366 . S
C1639 C1640 1.414 . S
C1639 C1642 1.499 . S
C1640 H1620 0.950 . S
C1640 C1639 1.414 . S
C1640 C1641 1.374 . S
C1641 H1621 0.950 . S
C1641 C1637 1.385 . S
C1641 C1640 1.374 . S
C1642 C1639 1.499 . S
C1642 C1643 1.373 . S
C1642 C1644 1.389 . S
C1643 H1622 0.950 . S
C1643 C1642 1.373 . S
C1643 C1659 1.377 . S
C1644 C1642 1.389 . S
C1644 C1645 1.524 . S
C1644 C1658 1.377 . S
C1645 C1644 1.524 . S
C1645 C1646 1.397 . S
C1645 C1650 1.363 . S
C1646 H1623 0.950 . S
C1646 C1645 1.397 . S
C1646 C1647 1.334 . S
C1647 H1624 0.950 . S
C1647 C1646 1.334 . S
C1647 C1648 1.287 . S
C1648 C1647 1.287 . S
C1648 C1649 1.524 . S
C1648 H1667 0.913 . S
C1649 H1625 0.950 . S
C1649 C1648 1.524 . S
C1649 C1650 1.415 . S
C1650 H1626 0.950 . S
C1650 C1645 1.363 . S
C1650 C1649 1.415 . S
C1651 H1627 0.951 . S
C1651 C1652 1.366 . S
C1651 C1653 1.388 . S
C1652 C1651 1.366 . S
C1652 C1656 1.385 . S
C1653 H1628 0.951 . S
C1653 C1651 1.388 . S
C1653 C1654 1.366 . S
C1654 C1653 1.366 . S
C1654 C1655 1.414 . S
C1654 C1657 1.499 . S
C1655 H1629 0.950 . S
C1655 C1654 1.414 . S
C1655 C1656 1.374 . S
C1656 H1630 0.950 . S
C1656 C1652 1.385 . S
C1656 C1655 1.374 . S
C1657 C1654 1.499 . S
C1657 C1658 1.373 . S
C1657 C1659 1.389 . S
C1658 H1631 0.950 . S
C1658 C1644 1.377 . S
C1658 C1657 1.373 . S
C1659 C1643 1.377 . S
C1659 C1657 1.389 . S
C1659 C1660 1.524 . S
C1660 C1659 1.524 . S
C1660 C1661 1.397 . S
C1660 C1665 1.363 . S
C1661 H1632 0.950 . S
C1661 C1660 1.397 . S
C1661 C1662 1.334 . S
C1662 H1633 0.950 . S
C1662 C1661 1.334 . S
C1662 C1663 1.287 . S
C1663 C1662 1.287 . S
C1663 C1664 1.524 . S
C1663 H1666 0.999 . S
C1664 H1634 0.950 . S
C1664 C1663 1.524 . S
C1664 C1665 1.415 . S
C1665 H1635 0.950 . S
C1665 C1660 1.363 . S
C1665 C1664 1.415 . S
H1666 C1663 0.999 . S
H1667 C1648 0.913 . S
H1668 C1686 0.951 . S
H1669 C1688 0.951 . S
H1670 C1690 0.950 . S
H1671 C1691 0.950 . S
H1672 C1693 0.950 . S
H1673 C1696 0.950 . S
H1674 C1697 0.950 . S
H1675 C1699 0.950 . S
H1676 C1700 0.950 . S
H1677 C1701 0.951 . S
H1678 C1703 0.951 . S
H1679 C1705 0.950 . S
H1680 C1706 0.950 . S
H1681 C1708 0.950 . S
H1682 C1711 0.950 . S
H1683 C1712 0.950 . S
H1684 C1714 0.950 . S
H1685 C1715 0.950 . S
C1686 H1668 0.951 . S
C1686 C1687 1.366 1_655 S
C1686 C1688 1.388 . S
C1687 C1686 1.366 1_455 S
C1687 C1691 1.385 . S
C1688 H1669 0.951 . S
C1688 C1686 1.388 . S
C1688 C1689 1.366 1_655 S
C1689 C1688 1.366 1_455 S
C1689 C1690 1.414 . S
C1689 C1692 1.499 . S
C1690 H1670 0.950 . S
C1690 C1689 1.414 . S
C1690 C1691 1.374 . S
C1691 H1671 0.950 . S
C1691 C1687 1.385 . S
C1691 C1690 1.374 . S
C1692 C1689 1.499 . S
C1692 C1693 1.373 . S
C1692 C1694 1.389 1_455 S
C1693 H1672 0.950 . S
C1693 C1692 1.373 . S
C1693 C1709 1.377 . S
C1694 C1692 1.389 1_655 S
C1694 C1695 1.524 . S
C1694 C1708 1.377 . S
C1695 C1694 1.524 . S
C1695 C1696 1.397 . S
C1695 C1700 1.363 . S
C1696 H1673 0.950 . S
C1696 C1695 1.397 . S
C1696 C1697 1.334 . S
C1697 H1674 0.950 . S
C1697 C1696 1.334 . S
C1697 C1698 1.287 . S
C1698 C1697 1.287 . S
C1698 C1699 1.524 . S
C1698 H1717 0.913 . S
C1699 H1675 0.950 . S
C1699 C1698 1.524 . S
C1699 C1700 1.415 . S
C1700 H1676 0.950 . S
C1700 C1695 1.363 . S
C1700 C1699 1.415 . S
C1701 H1677 0.951 . S
C1701 C1702 1.366 . S
C1701 C1703 1.388 . S
C1702 C1701 1.366 . S
C1702 C1706 1.385 1_455 S
C1703 H1678 0.951 . S
C1703 C1701 1.388 . S
C1703 C1704 1.366 . S
C1704 C1703 1.366 . S
C1704 C1705 1.414 1_455 S
C1704 C1707 1.499 . S
C1705 H1679 0.950 . S
C1705 C1704 1.414 1_655 S
C1705 C1706 1.374 . S
C1706 H1680 0.950 . S
C1706 C1702 1.385 1_655 S
C1706 C1705 1.374 . S
C1707 C1704 1.499 . S
C1707 C1708 1.373 1_455 S
C1707 C1709 1.389 . S
C1708 H1681 0.950 . S
C1708 C1694 1.377 . S
C1708 C1707 1.373 1_655 S
C1709 C1693 1.377 . S
C1709 C1707 1.389 . S
C1709 C1710 1.524 . S
C1710 C1709 1.524 . S
C1710 C1711 1.397 . S
C1710 C1715 1.363 . S
C1711 H1682 0.950 . S
C1711 C1710 1.397 . S
C1711 C1712 1.334 . S
C1712 H1683 0.950 . S
C1712 C1711 1.334 . S
C1712 C1713 1.287 . S
C1713 C1712 1.287 . S
C1713 C1714 1.524 . S
C1713 H1716 0.999 . S
C1714 H1684 0.950 . S
C1714 C1713 1.524 . S
C1714 C1715 1.415 . S
C1715 H1685 0.950 . S
C1715 C1710 1.363 . S
C1715 C1714 1.415 . S
H1716 C1713 0.999 . S
H1717 C1698 0.913 . S
H1718 C1736 0.951 . S
H1719 C1738 0.951 . S
H1720 C1740 0.950 . S
H1721 C1741 0.950 . S
H1722 C1743 0.950 . S
H1723 C1746 0.950 . S
H1724 C1747 0.950 . S
H1725 C1749 0.950 . S
H1726 C1750 0.950 . S
H1727 C1751 0.951 . S
H1728 C1753 0.951 . S
H1729 C1755 0.950 . S
H1730 C1756 0.950 . S
H1731 C1758 0.950 . S
H1732 C1761 0.950 . S
H1733 C1762 0.950 . S
H1734 C1764 0.950 . S
H1735 C1765 0.950 . S
C1736 H1718 0.951 . S
C1736 C1737 1.366 . S
C1736 C1738 1.388 . S
C1737 C1736 1.366 . S
C1737 C1741 1.385 . S
C1738 H1719 0.951 . S
C1738 C1736 1.388 . S
C1738 C1739 1.366 . S
C1739 C1738 1.366 . S
C1739 C1740 1.414 . S
C1739 C1742 1.499 . S
C1740 H1720 0.950 . S
C1740 C1739 1.414 . S
C1740 C1741 1.374 . S
C1741 H1721 0.950 . S
C1741 C1737 1.385 . S
C1741 C1740 1.374 . S
C1742 C1739 1.499 . S
C1742 C1743 1.373 . S
C1742 C1744 1.389 . S
C1743 H1722 0.950 . S
C1743 C1742 1.373 . S
C1743 C1759 1.377 . S
C1744 C1742 1.389 . S
C1744 C1745 1.524 . S
C1744 C1758 1.377 . S
C1745 C1744 1.524 . S
C1745 C1746 1.397 . S
C1745 C1750 1.363 . S
C1746 H1723 0.950 . S
C1746 C1745 1.397 . S
C1746 C1747 1.334 . S
C1747 H1724 0.950 . S
C1747 C1746 1.334 . S
C1747 C1748 1.287 . S
C1748 C1747 1.287 . S
C1748 C1749 1.524 . S
C1748 H1767 0.913 . S
C1749 H1725 0.950 . S
C1749 C1748 1.524 . S
C1749 C1750 1.415 . S
C1750 H1726 0.950 . S
C1750 C1745 1.363 . S
C1750 C1749 1.415 . S
C1751 H1727 0.951 . S
C1751 C1752 1.366 . S
C1751 C1753 1.388 . S
C1752 C1751 1.366 . S
C1752 C1756 1.385 . S
C1753 H1728 0.951 . S
C1753 C1751 1.388 . S
C1753 C1754 1.366 . S
C1754 C1753 1.366 . S
C1754 C1755 1.414 . S
C1754 C1757 1.499 . S
C1755 H1729 0.950 . S
C1755 C1754 1.414 . S
C1755 C1756 1.374 . S
C1756 H1730 0.950 . S
C1756 C1752 1.385 . S
C1756 C1755 1.374 . S
C1757 C1754 1.499 . S
C1757 C1758 1.373 . S
C1757 C1759 1.389 . S
C1758 H1731 0.950 . S
C1758 C1744 1.377 . S
C1758 C1757 1.373 . S
C1759 C1743 1.377 . S
C1759 C1757 1.389 . S
C1759 C1760 1.524 . S
C1760 C1759 1.524 . S
C1760 C1761 1.397 . S
C1760 C1765 1.363 . S
C1761 H1732 0.950 . S
C1761 C1760 1.397 . S
C1761 C1762 1.334 . S
C1762 H1733 0.950 . S
C1762 C1761 1.334 . S
C1762 C1763 1.287 . S
C1763 C1762 1.287 . S
C1763 C1764 1.524 . S
C1763 H1766 0.999 . S
C1764 H1734 0.950 . S
C1764 C1763 1.524 . S
C1764 C1765 1.415 . S
C1765 H1735 0.950 . S
C1765 C1760 1.363 . S
C1765 C1764 1.415 . S
H1766 C1763 0.999 . S
H1767 C1748 0.913 . S
H1768 C1786 0.951 . S
H1769 C1788 0.951 . S
H1770 C1790 0.950 . S
H1771 C1791 0.950 . S
H1772 C1793 0.950 . S
H1773 C1796 0.950 . S
H1774 C1797 0.950 . S
H1775 C1799 0.950 . S
H1776 C1800 0.950 . S
H1777 C1801 0.951 . S
H1778 C1803 0.951 . S
H1779 C1805 0.950 . S
H1780 C1806 0.950 . S
H1781 C1808 0.950 . S
H1782 C1811 0.950 1_565 S
H1783 C1812 0.950 . S
H1784 C1814 0.950 . S
H1785 C1815 0.950 . S
C1786 H1768 0.951 . S
C1786 C1787 1.366 . S
C1786 C1788 1.388 . S
C1787 C1786 1.366 . S
C1787 C1791 1.385 1_565 S
C1788 H1769 0.951 . S
C1788 C1786 1.388 . S
C1788 C1789 1.366 . S
C1789 C1788 1.366 . S
C1789 C1790 1.414 1_565 S
C1789 C1792 1.499 . S
C1790 H1770 0.950 . S
C1790 C1789 1.414 1_545 S
C1790 C1791 1.374 . S
C1791 H1771 0.950 . S
C1791 C1787 1.385 1_545 S
C1791 C1790 1.374 . S
C1792 C1789 1.499 . S
C1792 C1793 1.373 1_565 S
C1792 C1794 1.389 . S
C1793 H1772 0.950 . S
C1793 C1792 1.373 1_545 S
C1793 C1809 1.377 . S
C1794 C1792 1.389 . S
C1794 C1795 1.524 . S
C1794 C1808 1.377 . S
C1795 C1794 1.524 . S
C1795 C1796 1.397 . S
C1795 C1800 1.363 . S
C1796 H1773 0.950 . S
C1796 C1795 1.397 . S
C1796 C1797 1.334 . S
C1797 H1774 0.950 . S
C1797 C1796 1.334 . S
C1797 C1798 1.287 . S
C1798 C1797 1.287 . S
C1798 C1799 1.524 . S
C1798 H1817 0.913 . S
C1799 H1775 0.950 . S
C1799 C1798 1.524 . S
C1799 C1800 1.415 . S
C1800 H1776 0.950 . S
C1800 C1795 1.363 . S
C1800 C1799 1.415 . S
C1801 H1777 0.951 . S
C1801 C1802 1.366 1_545 S
C1801 C1803 1.388 . S
C1802 C1801 1.366 1_565 S
C1802 C1806 1.385 . S
C1803 H1778 0.951 . S
C1803 C1801 1.388 . S
C1803 C1804 1.366 1_545 S
C1804 C1803 1.366 1_565 S
C1804 C1805 1.414 . S
C1804 C1807 1.499 . S
C1805 H1779 0.950 . S
C1805 C1804 1.414 . S
C1805 C1806 1.374 . S
C1806 H1780 0.950 . S
C1806 C1802 1.385 . S
C1806 C1805 1.374 . S
C1807 C1804 1.499 . S
C1807 C1808 1.373 . S
C1807 C1809 1.389 1_565 S
C1808 H1781 0.950 . S
C1808 C1794 1.377 . S
C1808 C1807 1.373 . S
C1809 C1793 1.377 . S
C1809 C1807 1.389 1_545 S
C1809 C1810 1.524 . S
C1810 C1809 1.524 . S
C1810 C1811 1.397 . S
C1810 C1815 1.363 . S
C1811 H1782 0.950 1_545 S
C1811 C1810 1.397 . S
C1811 C1812 1.334 . S
C1812 H1783 0.950 . S
C1812 C1811 1.334 . S
C1812 C1813 1.287 . S
C1813 C1812 1.287 . S
C1813 C1814 1.524 . S
C1813 H1816 0.999 . S
C1814 H1784 0.950 . S
C1814 C1813 1.524 . S
C1814 C1815 1.415 . S
C1815 H1785 0.950 . S
C1815 C1810 1.363 . S
C1815 C1814 1.415 . S
H1816 C1813 0.999 . S
H1817 C1798 0.913 . S
H1818 C1836 0.951 . S
H1819 C1838 0.951 . S
H1820 C1840 0.950 . S
H1821 C1841 0.950 . S
H1822 C1843 0.950 . S
H1823 C1846 0.950 . S
H1824 C1847 0.950 . S
H1825 C1849 0.950 . S
H1826 C1850 0.950 1_565 S
H1827 C1851 0.951 . S
H1828 C1853 0.951 . S
H1829 C1855 0.950 . S
H1830 C1856 0.950 . S
H1831 C1858 0.950 . S
H1832 C1861 0.950 . S
H1833 C1862 0.950 . S
H1834 C1864 0.957 . S
H1835 C1865 0.950 . S
C1836 H1818 0.951 . S
C1836 C1837 1.366 1_565 S
C1836 C1838 1.388 . S
C1837 C1836 1.366 1_545 S
C1837 C1841 1.385 . S
C1838 H1819 0.951 . S
C1838 C1836 1.388 . S
C1838 C1839 1.366 1_565 S
C1839 C1838 1.366 1_545 S
C1839 C1840 1.414 . S
C1839 C1842 1.499 . S
C1840 H1820 0.950 . S
C1840 C1839 1.414 . S
C1840 C1841 1.374 . S
C1841 H1821 0.950 . S
C1841 C1837 1.385 . S
C1841 C1840 1.374 . S
C1842 C1839 1.499 . S
C1842 C1843 1.373 . S
C1842 C1844 1.389 . S
C1843 H1822 0.950 . S
C1843 C1842 1.373 . S
C1843 C1859 1.377 . S
C1844 C1842 1.389 . S
C1844 C1845 1.524 . S
C1844 C1858 1.377 . S
C1845 C1844 1.524 . S
C1845 C1846 1.397 . S
C1845 C1850 1.363 . S
C1846 H1823 0.950 . S
C1846 C1845 1.397 . S
C1846 C1847 1.334 . S
C1847 H1824 0.950 . S
C1847 C1846 1.334 . S
C1847 C1848 1.287 . S
C1848 C1847 1.287 . S
C1848 C1849 1.524 . S
C1848 H1867 0.913 . S
C1849 H1825 0.950 . S
C1849 C1848 1.524 . S
C1849 C1850 1.415 . S
C1850 H1826 0.950 1_545 S
C1850 C1845 1.363 . S
C1850 C1849 1.415 . S
C1851 H1827 0.951 . S
C1851 C1852 1.366 . S
C1851 C1853 1.388 . S
C1852 C1851 1.366 . S
C1852 C1856 1.385 1_545 S
C1853 H1828 0.951 . S
C1853 C1851 1.388 . S
C1853 C1854 1.366 . S
C1854 C1853 1.366 . S
C1854 C1855 1.414 1_545 S
C1854 C1857 1.499 . S
C1855 H1829 0.950 . S
C1855 C1854 1.414 1_565 S
C1855 C1856 1.374 . S
C1856 H1830 0.950 . S
C1856 C1852 1.385 1_565 S
C1856 C1855 1.374 . S
C1857 C1854 1.499 . S
C1857 C1858 1.373 . S
C1857 C1859 1.389 . S
C1858 H1831 0.950 . S
C1858 C1844 1.377 . S
C1858 C1857 1.373 . S
C1859 C1843 1.377 . S
C1859 C1857 1.389 . S
C1859 C1860 1.524 1_545 S
C1860 C1859 1.524 1_565 S
C1860 C1861 1.397 . S
C1860 C1865 1.363 1_565 S
C1861 H1832 0.950 . S
C1861 C1860 1.397 . S
C1861 C1862 1.334 . S
C1862 H1833 0.950 . S
C1862 C1861 1.334 . S
C1862 C1863 1.287 . S
C1863 C1862 1.287 . S
C1863 C1864 1.488 1_565 S
C1863 H1866 0.999 . S
C1864 H1834 0.957 . S
C1864 C1863 1.488 1_545 S
C1864 C1865 1.450 . S
C1865 H1835 0.950 . S
C1865 C1860 1.363 1_545 S
C1865 C1864 1.450 . S
H1866 C1863 0.999 . S
H1867 C1848 0.913 . S
H1868 C1886 0.951 . S
H1869 C1888 0.951 . S
H1870 C1890 0.950 . S
H1871 C1891 0.950 . S
H1872 C1893 0.950 . S
H1873 C1896 0.950 1_655 S
H1874 C1897 0.950 . S
H1875 C1899 0.950 . S
H1876 C1900 0.950 . S
H1877 C1901 0.951 . S
H1878 C1903 0.951 . S
H1879 C1905 0.950 . S
H1880 C1906 0.950 . S
H1881 C1908 0.950 . S
H1882 C1911 0.950 . S
H1883 C1912 0.950 . S
H1884 C1914 0.950 . S
H1885 C1915 0.950 . S
C1886 H1868 0.951 . S
C1886 C1887 1.366 1_455 S
C1886 C1888 1.388 . S
C1887 C1886 1.366 1_655 S
C1887 C1891 1.385 . S
C1888 H1869 0.951 . S
C1888 C1886 1.388 . S
C1888 C1889 1.366 1_455 S
C1889 C1888 1.366 1_655 S
C1889 C1890 1.414 . S
C1889 C1892 1.499 . S
C1890 H1870 0.950 . S
C1890 C1889 1.414 . S
C1890 C1891 1.374 . S
C1891 H1871 0.950 . S
C1891 C1887 1.385 . S
C1891 C1890 1.374 . S
C1892 C1889 1.499 . S
C1892 C1893 1.373 . S
C1892 C1894 1.389 1_655 S
C1893 H1872 0.950 . S
C1893 C1892 1.373 . S
C1893 C1909 1.377 . S
C1894 C1892 1.389 1_455 S
C1894 C1895 1.524 . S
C1894 C1908 1.377 . S
C1895 C1894 1.524 . S
C1895 C1896 1.397 . S
C1895 C1900 1.363 . S
C1896 H1873 0.950 1_455 S
C1896 C1895 1.397 . S
C1896 C1897 1.334 . S
C1897 H1874 0.950 . S
C1897 C1896 1.334 . S
C1897 C1898 1.287 . S
C1898 C1897 1.287 . S
C1898 C1899 1.524 . S
C1898 H1917 0.913 . S
C1899 H1875 0.950 . S
C1899 C1898 1.524 . S
C1899 C1900 1.415 . S
C1900 H1876 0.950 . S
C1900 C1895 1.363 . S
C1900 C1899 1.415 . S
C1901 H1877 0.951 . S
C1901 C1902 1.366 . S
C1901 C1903 1.388 . S
C1902 C1901 1.366 . S
C1902 C1906 1.385 1_655 S
C1903 H1878 0.951 . S
C1903 C1901 1.388 . S
C1903 C1904 1.366 . S
C1904 C1903 1.366 . S
C1904 C1905 1.414 1_655 S
C1904 C1907 1.499 . S
C1905 H1879 0.950 . S
C1905 C1904 1.414 1_455 S
C1905 C1906 1.374 . S
C1906 H1880 0.950 . S
C1906 C1902 1.385 1_455 S
C1906 C1905 1.374 . S
C1907 C1904 1.499 . S
C1907 C1908 1.373 1_655 S
C1907 C1909 1.389 . S
C1908 H1881 0.950 . S
C1908 C1894 1.377 . S
C1908 C1907 1.373 1_455 S
C1909 C1893 1.377 . S
C1909 C1907 1.389 . S
C1909 C1910 1.524 . S
C1910 C1909 1.524 . S
C1910 C1911 1.397 . S
C1910 C1915 1.363 . S
C1911 H1882 0.950 . S
C1911 C1910 1.397 . S
C1911 C1912 1.334 . S
C1912 H1883 0.950 . S
C1912 C1911 1.334 . S
C1912 C1913 1.287 . S
C1913 C1912 1.287 . S
C1913 C1914 1.524 . S
C1913 H1916 0.999 . S
C1914 H1884 0.950 . S
C1914 C1913 1.524 . S
C1914 C1915 1.415 . S
C1915 H1885 0.950 . S
C1915 C1910 1.363 . S
C1915 C1914 1.415 . S
H1916 C1913 0.999 . S
H1917 C1898 0.913 . S
H1918 C1936 0.951 . S
H1919 C1938 0.951 . S
H1920 C1940 0.950 . S
H1921 C1941 0.950 . S
H1922 C1943 0.950 . S
H1923 C1946 0.950 . S
H1924 C1947 0.950 . S
H1925 C1949 0.950 . S
H1926 C1950 0.950 . S
H1927 C1951 0.951 . S
H1928 C1953 0.951 . S
H1929 C1955 0.950 . S
H1930 C1956 0.950 . S
H1931 C1958 0.950 . S
H1932 C1961 0.950 . S
H1933 C1962 0.950 . S
H1934 C1964 0.950 . S
H1935 C1965 0.950 . S
C1936 H1918 0.951 . S
C1936 C1937 1.366 . S
C1936 C1938 1.388 . S
C1937 C1936 1.366 . S
C1937 C1941 1.385 . S
C1938 H1919 0.951 . S
C1938 C1936 1.388 . S
C1938 C1939 1.366 . S
C1939 C1938 1.366 . S
C1939 C1940 1.414 . S
C1939 C1942 1.499 . S
C1940 H1920 0.950 . S
C1940 C1939 1.414 . S
C1940 C1941 1.374 . S
C1941 H1921 0.950 . S
C1941 C1937 1.385 . S
C1941 C1940 1.374 . S
C1942 C1939 1.499 . S
C1942 C1943 1.373 . S
C1942 C1944 1.389 . S
C1943 H1922 0.950 . S
C1943 C1942 1.373 . S
C1943 C1959 1.377 . S
C1944 C1942 1.389 . S
C1944 C1945 1.524 . S
C1944 C1958 1.377 . S
C1945 C1944 1.524 . S
C1945 C1946 1.397 . S
C1945 C1950 1.363 . S
C1946 H1923 0.950 . S
C1946 C1945 1.397 . S
C1946 C1947 1.334 . S
C1947 H1924 0.950 . S
C1947 C1946 1.334 . S
C1947 C1948 1.287 . S
C1948 C1947 1.287 . S
C1948 C1949 1.524 . S
C1948 H1967 0.913 . S
C1949 H1925 0.950 . S
C1949 C1948 1.524 . S
C1949 C1950 1.415 . S
C1950 H1926 0.950 . S
C1950 C1945 1.363 . S
C1950 C1949 1.415 . S
C1951 H1927 0.951 . S
C1951 C1952 1.366 . S
C1951 C1953 1.388 . S
C1952 C1951 1.366 . S
C1952 C1956 1.385 . S
C1953 H1928 0.951 . S
C1953 C1951 1.388 . S
C1953 C1954 1.366 . S
C1954 C1953 1.366 . S
C1954 C1955 1.414 . S
C1954 C1957 1.499 . S
C1955 H1929 0.950 . S
C1955 C1954 1.414 . S
C1955 C1956 1.374 . S
C1956 H1930 0.950 . S
C1956 C1952 1.385 . S
C1956 C1955 1.374 . S
C1957 C1954 1.499 . S
C1957 C1958 1.373 . S
C1957 C1959 1.389 . S
C1958 H1931 0.950 . S
C1958 C1944 1.377 . S
C1958 C1957 1.373 . S
C1959 C1943 1.377 . S
C1959 C1957 1.389 . S
C1959 C1960 1.524 . S
C1960 C1959 1.524 . S
C1960 C1961 1.397 . S
C1960 C1965 1.363 . S
C1961 H1932 0.950 . S
C1961 C1960 1.397 . S
C1961 C1962 1.334 . S
C1962 H1933 0.950 . S
C1962 C1961 1.334 . S
C1962 C1963 1.287 . S
C1963 C1962 1.287 . S
C1963 C1964 1.524 . S
C1963 H1966 0.999 . S
C1964 H1934 0.950 . S
C1964 C1963 1.524 . S
C1964 C1965 1.415 . S
C1965 H1935 0.950 . S
C1965 C1960 1.363 . S
C1965 C1964 1.415 . S
H1966 C1963 0.999 . S
H1967 C1948 0.913 . S
H1968 C1986 0.951 . S
H1969 C1988 0.951 . S
H1970 C1990 0.950 . S
H1971 C1991 0.950 . S
H1972 C1993 0.950 . S
H1973 C1996 0.950 . S
H1974 C1997 0.950 . S
H1975 C1999 0.950 . S
H1976 C2000 0.950 . S
H1977 C2001 0.951 . S
H1978 C2003 0.951 . S
H1979 C2005 0.950 . S
H1980 C2006 0.950 . S
H1981 C2008 0.950 . S
H1982 C2011 0.950 . S
H1983 C2012 0.950 . S
H1984 C2014 0.950 . S
H1985 C2015 0.950 . S
C1986 H1968 0.951 . S
C1986 C1987 1.366 . S
C1986 C1988 1.388 . S
C1987 C1986 1.366 . S
C1987 C1991 1.385 . S
C1988 H1969 0.951 . S
C1988 C1986 1.388 . S
C1988 C1989 1.366 . S
C1989 C1988 1.366 . S
C1989 C1990 1.414 . S
C1989 C1992 1.499 . S
C1990 H1970 0.950 . S
C1990 C1989 1.414 . S
C1990 C1991 1.374 . S
C1991 H1971 0.950 . S
C1991 C1987 1.385 . S
C1991 C1990 1.374 . S
C1992 C1989 1.499 . S
C1992 C1993 1.373 . S
C1992 C1994 1.389 . S
C1993 H1972 0.950 . S
C1993 C1992 1.373 . S
C1993 C2009 1.377 . S
C1994 C1992 1.389 . S
C1994 C1995 1.524 . S
C1994 C2008 1.377 . S
C1995 C1994 1.524 . S
C1995 C1996 1.397 . S
C1995 C2000 1.363 . S
C1996 H1973 0.950 . S
C1996 C1995 1.397 . S
C1996 C1997 1.334 . S
C1997 H1974 0.950 . S
C1997 C1996 1.334 . S
C1997 C1998 1.287 . S
C1998 C1997 1.287 . S
C1998 C1999 1.524 . S
C1998 H2017 0.913 . S
C1999 H1975 0.950 . S
C1999 C1998 1.524 . S
C1999 C2000 1.415 . S
C2000 H1976 0.950 . S
C2000 C1995 1.363 . S
C2000 C1999 1.415 . S
C2001 H1977 0.951 . S
C2001 C2002 1.366 . S
C2001 C2003 1.388 . S
C2002 C2001 1.366 . S
C2002 C2006 1.385 . S
C2003 H1978 0.951 . S
C2003 C2001 1.388 . S
C2003 C2004 1.366 . S
C2004 C2003 1.366 . S
C2004 C2005 1.414 . S
C2004 C2007 1.499 . S
C2005 H1979 0.950 . S
C2005 C2004 1.414 . S
C2005 C2006 1.374 . S
C2006 H1980 0.950 . S
C2006 C2002 1.385 . S
C2006 C2005 1.374 . S
C2007 C2004 1.499 . S
C2007 C2008 1.373 . S
C2007 C2009 1.389 . S
C2008 H1981 0.950 . S
C2008 C1994 1.377 . S
C2008 C2007 1.373 . S
C2009 C1993 1.377 . S
C2009 C2007 1.389 . S
C2009 C2010 1.524 . S
C2010 C2009 1.524 . S
C2010 C2011 1.397 . S
C2010 C2015 1.363 . S
C2011 H1982 0.950 . S
C2011 C2010 1.397 . S
C2011 C2012 1.334 . S
C2012 H1983 0.950 . S
C2012 C2011 1.334 . S
C2012 C2013 1.287 . S
C2013 C2012 1.287 . S
C2013 C2014 1.524 . S
C2013 H2016 0.999 . S
C2014 H1984 0.950 . S
C2014 C2013 1.524 . S
C2014 C2015 1.415 . S
C2015 H1985 0.950 . S
C2015 C2010 1.363 . S
C2015 C2014 1.415 . S
H2016 C2013 0.999 . S
H2017 C1998 0.913 . S
H2018 C2036 0.951 . S
H2019 C2038 0.951 . S
H2020 C2040 0.950 . S
H2021 C2041 0.950 . S
H2022 C2043 0.950 . S
H2023 C2046 0.950 . S
H2024 C2047 0.950 . S
H2025 C2049 0.950 . S
H2026 C2050 0.950 . S
H2027 C2051 0.951 . S
H2028 C2053 0.951 . S
H2029 C2055 0.950 . S
H2030 C2056 0.950 . S
H2031 C2058 0.950 . S
H2032 C2061 0.950 . S
H2033 C2062 0.950 . S
H2034 C2064 0.950 . S
H2035 C2065 0.950 . S
C2036 H2018 0.951 . S
C2036 C2037 1.366 . S
C2036 C2038 1.388 . S
C2037 C2036 1.366 . S
C2037 C2041 1.385 . S
C2038 H2019 0.951 . S
C2038 C2036 1.388 . S
C2038 C2039 1.366 . S
C2039 C2038 1.366 . S
C2039 C2040 1.414 . S
C2039 C2042 1.499 . S
C2040 H2020 0.950 . S
C2040 C2039 1.414 . S
C2040 C2041 1.374 . S
C2041 H2021 0.950 . S
C2041 C2037 1.385 . S
C2041 C2040 1.374 . S
C2042 C2039 1.499 . S
C2042 C2043 1.373 . S
C2042 C2044 1.389 . S
C2043 H2022 0.950 . S
C2043 C2042 1.373 . S
C2043 C2059 1.377 . S
C2044 C2042 1.389 . S
C2044 C2045 1.524 . S
C2044 C2058 1.377 . S
C2045 C2044 1.524 . S
C2045 C2046 1.397 . S
C2045 C2050 1.363 . S
C2046 H2023 0.950 . S
C2046 C2045 1.397 . S
C2046 C2047 1.334 . S
C2047 H2024 0.950 . S
C2047 C2046 1.334 . S
C2047 C2048 1.287 . S
C2048 C2047 1.287 . S
C2048 C2049 1.524 . S
C2048 H2067 0.913 . S
C2049 H2025 0.950 . S
C2049 C2048 1.524 . S
C2049 C2050 1.415 . S
C2050 H2026 0.950 . S
C2050 C2045 1.363 . S
C2050 C2049 1.415 . S
C2051 H2027 0.951 . S
C2051 C2052 1.366 . S
C2051 C2053 1.388 . S
C2052 C2051 1.366 . S
C2052 C2056 1.385 . S
C2053 H2028 0.951 . S
C2053 C2051 1.388 . S
C2053 C2054 1.366 . S
C2054 C2053 1.366 . S
C2054 C2055 1.414 . S
C2054 C2057 1.499 . S
C2055 H2029 0.950 . S
C2055 C2054 1.414 . S
C2055 C2056 1.374 . S
C2056 H2030 0.950 . S
C2056 C2052 1.385 . S
C2056 C2055 1.374 . S
C2057 C2054 1.499 . S
C2057 C2058 1.373 . S
C2057 C2059 1.389 . S
C2058 H2031 0.950 . S
C2058 C2044 1.377 . S
C2058 C2057 1.373 . S
C2059 C2043 1.377 . S
C2059 C2057 1.389 . S
C2059 C2060 1.524 . S
C2060 C2059 1.524 . S
C2060 C2061 1.397 . S
C2060 C2065 1.363 . S
C2061 H2032 0.950 . S
C2061 C2060 1.397 . S
C2061 C2062 1.334 . S
C2062 H2033 0.950 . S
C2062 C2061 1.334 . S
C2062 C2063 1.287 . S
C2063 C2062 1.287 . S
C2063 C2064 1.524 . S
C2063 H2066 0.999 . S
C2064 H2034 0.950 . S
C2064 C2063 1.524 . S
C2064 C2065 1.415 . S
C2065 H2035 0.950 . S
C2065 C2060 1.363 . S
C2065 C2064 1.415 . S
H2066 C2063 0.999 . S
H2067 C2048 0.913 . S
H2068 C2086 0.951 . S
H2069 C2088 0.951 . S
H2070 C2090 0.950 . S
H2071 C2091 0.950 . S
H2072 C2093 0.950 . S
H2073 C2096 0.950 . S
H2074 C2097 0.950 . S
H2075 C2099 0.950 . S
H2076 C2100 0.950 . S
H2077 C2101 0.951 . S
H2078 C2103 0.951 . S
H2079 C2105 0.950 . S
H2080 C2106 0.950 . S
H2081 C2108 0.950 . S
H2082 C2111 0.950 . S
H2083 C2112 0.950 . S
H2084 C2114 0.950 . S
H2085 C2115 0.950 . S
C2086 H2068 0.951 . S
C2086 C2087 1.366 . S
C2086 C2088 1.388 . S
C2087 C2086 1.366 . S
C2087 C2091 1.385 . S
C2088 H2069 0.951 . S
C2088 C2086 1.388 . S
C2088 C2089 1.366 . S
C2089 C2088 1.366 . S
C2089 C2090 1.414 . S
C2089 C2092 1.499 . S
C2090 H2070 0.950 . S
C2090 C2089 1.414 . S
C2090 C2091 1.374 . S
C2091 H2071 0.950 . S
C2091 C2087 1.385 . S
C2091 C2090 1.374 . S
C2092 C2089 1.499 . S
C2092 C2093 1.373 . S
C2092 C2094 1.389 . S
C2093 H2072 0.950 . S
C2093 C2092 1.373 . S
C2093 C2109 1.377 . S
C2094 C2092 1.389 . S
C2094 C2095 1.524 . S
C2094 C2108 1.377 . S
C2095 C2094 1.524 . S
C2095 C2096 1.397 . S
C2095 C2100 1.363 . S
C2096 H2073 0.950 . S
C2096 C2095 1.397 . S
C2096 C2097 1.334 . S
C2097 H2074 0.950 . S
C2097 C2096 1.334 . S
C2097 C2098 1.287 . S
C2098 C2097 1.287 . S
C2098 C2099 1.524 . S
C2098 H2117 0.913 . S
C2099 H2075 0.950 . S
C2099 C2098 1.524 . S
C2099 C2100 1.415 . S
C2100 H2076 0.950 . S
C2100 C2095 1.363 . S
C2100 C2099 1.415 . S
C2101 H2077 0.951 . S
C2101 C2102 1.366 . S
C2101 C2103 1.388 . S
C2102 C2101 1.366 . S
C2102 C2106 1.385 . S
C2103 H2078 0.951 . S
C2103 C2101 1.388 . S
C2103 C2104 1.366 . S
C2104 C2103 1.366 . S
C2104 C2105 1.414 . S
C2104 C2107 1.499 . S
C2105 H2079 0.950 . S
C2105 C2104 1.414 . S
C2105 C2106 1.374 . S
C2106 H2080 0.950 . S
C2106 C2102 1.385 . S
C2106 C2105 1.374 . S
C2107 C2104 1.499 . S
C2107 C2108 1.373 . S
C2107 C2109 1.389 . S
C2108 H2081 0.950 . S
C2108 C2094 1.377 . S
C2108 C2107 1.373 . S
C2109 C2093 1.377 . S
C2109 C2107 1.389 . S
C2109 C2110 1.524 . S
C2110 C2109 1.524 . S
C2110 C2111 1.397 . S
C2110 C2115 1.363 . S
C2111 H2082 0.950 . S
C2111 C2110 1.397 . S
C2111 C2112 1.334 . S
C2112 H2083 0.950 . S
C2112 C2111 1.334 . S
C2112 C2113 1.287 . S
C2113 C2112 1.287 . S
C2113 C2114 1.524 . S
C2113 H2116 0.999 . S
C2114 H2084 0.950 . S
C2114 C2113 1.524 . S
C2114 C2115 1.415 . S
C2115 H2085 0.950 . S
C2115 C2110 1.363 . S
C2115 C2114 1.415 . S
H2116 C2113 0.999 . S
H2117 C2098 0.913 . S
H2118 C2136 0.951 . S
H2119 C2138 0.951 . S
H2120 C2140 0.950 . S
H2121 C2141 0.950 . S
H2122 C2143 0.950 . S
H2123 C2146 0.950 . S
H2124 C2147 0.950 . S
H2125 C2149 0.950 . S
H2126 C2150 0.950 . S
H2127 C2151 0.951 . S
H2128 C2153 0.951 . S
H2129 C2155 0.950 . S
H2130 C2156 0.950 . S
H2131 C2158 0.950 . S
H2132 C2161 0.950 . S
H2133 C2162 0.950 . S
H2134 C2164 0.950 . S
H2135 C2165 0.950 . S
C2136 H2118 0.951 . S
C2136 C2137 1.366 . S
C2136 C2138 1.388 . S
C2137 C2136 1.366 . S
C2137 C2141 1.385 . S
C2138 H2119 0.951 . S
C2138 C2136 1.388 . S
C2138 C2139 1.366 . S
C2139 C2138 1.366 . S
C2139 C2140 1.414 . S
C2139 C2142 1.499 . S
C2140 H2120 0.950 . S
C2140 C2139 1.414 . S
C2140 C2141 1.374 . S
C2141 H2121 0.950 . S
C2141 C2137 1.385 . S
C2141 C2140 1.374 . S
C2142 C2139 1.499 . S
C2142 C2143 1.373 . S
C2142 C2144 1.389 . S
C2143 H2122 0.950 . S
C2143 C2142 1.373 . S
C2143 C2159 1.377 . S
C2144 C2142 1.389 . S
C2144 C2145 1.524 . S
C2144 C2158 1.377 . S
C2145 C2144 1.524 . S
C2145 C2146 1.397 . S
C2145 C2150 1.363 . S
C2146 H2123 0.950 . S
C2146 C2145 1.397 . S
C2146 C2147 1.334 . S
C2147 H2124 0.950 . S
C2147 C2146 1.334 . S
C2147 C2148 1.287 . S
C2148 C2147 1.287 . S
C2148 C2149 1.524 . S
C2148 H2167 0.913 . S
C2149 H2125 0.950 . S
C2149 C2148 1.524 . S
C2149 C2150 1.415 . S
C2150 H2126 0.950 . S
C2150 C2145 1.363 . S
C2150 C2149 1.415 . S
C2151 H2127 0.951 . S
C2151 C2152 1.366 . S
C2151 C2153 1.388 . S
C2152 C2151 1.366 . S
C2152 C2156 1.385 . S
C2153 H2128 0.951 . S
C2153 C2151 1.388 . S
C2153 C2154 1.366 . S
C2154 C2153 1.366 . S
C2154 C2155 1.414 . S
C2154 C2157 1.499 . S
C2155 H2129 0.950 . S
C2155 C2154 1.414 . S
C2155 C2156 1.374 . S
C2156 H2130 0.950 . S
C2156 C2152 1.385 . S
C2156 C2155 1.374 . S
C2157 C2154 1.499 . S
C2157 C2158 1.373 . S
C2157 C2159 1.389 . S
C2158 H2131 0.950 . S
C2158 C2144 1.377 . S
C2158 C2157 1.373 . S
C2159 C2143 1.377 . S
C2159 C2157 1.389 . S
C2159 C2160 1.524 . S
C2160 C2159 1.524 . S
C2160 C2161 1.397 . S
C2160 C2165 1.363 . S
C2161 H2132 0.950 . S
C2161 C2160 1.397 . S
C2161 C2162 1.334 . S
C2162 H2133 0.950 . S
C2162 C2161 1.334 . S
C2162 C2163 1.287 . S
C2163 C2162 1.287 . S
C2163 C2164 1.524 . S
C2163 H2166 0.999 . S
C2164 H2134 0.950 . S
C2164 C2163 1.524 . S
C2164 C2165 1.415 . S
C2165 H2135 0.950 . S
C2165 C2160 1.363 . S
C2165 C2164 1.415 . S
H2166 C2163 0.999 . S
H2167 C2148 0.913 . S
H2168 C2186 0.951 . S
H2169 C2188 0.951 . S
H2170 C2190 0.950 . S
H2171 C2191 0.950 . S
H2172 C2193 0.950 . S
H2173 C2196 0.950 . S
H2174 C2197 0.950 . S
H2175 C2199 0.950 . S
H2176 C2200 0.950 . S
H2177 C2201 0.951 . S
H2178 C2203 0.951 . S
H2179 C2205 0.950 . S
H2180 C2206 0.950 . S
H2181 C2208 0.950 . S
H2182 C2211 0.950 . S
H2183 C2212 0.950 . S
H2184 C2214 0.950 . S
H2185 C2215 0.950 . S
C2186 H2168 0.951 . S
C2186 C2187 1.366 . S
C2186 C2188 1.388 . S
C2187 C2186 1.366 . S
C2187 C2191 1.385 . S
C2188 H2169 0.951 . S
C2188 C2186 1.388 . S
C2188 C2189 1.366 . S
C2189 C2188 1.366 . S
C2189 C2190 1.414 . S
C2189 C2192 1.499 . S
C2190 H2170 0.950 . S
C2190 C2189 1.414 . S
C2190 C2191 1.374 . S
C2191 H2171 0.950 . S
C2191 C2187 1.385 . S
C2191 C2190 1.374 . S
C2192 C2189 1.499 . S
C2192 C2193 1.373 . S
C2192 C2194 1.389 . S
C2193 H2172 0.950 . S
C2193 C2192 1.373 . S
C2193 C2209 1.377 . S
C2194 C2192 1.389 . S
C2194 C2195 1.524 . S
C2194 C2208 1.377 . S
C2195 C2194 1.524 . S
C2195 C2196 1.397 . S
C2195 C2200 1.363 . S
C2196 H2173 0.950 . S
C2196 C2195 1.397 . S
C2196 C2197 1.334 . S
C2197 H2174 0.950 . S
C2197 C2196 1.334 . S
C2197 C2198 1.287 . S
C2198 C2197 1.287 . S
C2198 C2199 1.524 . S
C2198 H2217 0.913 . S
C2199 H2175 0.950 . S
C2199 C2198 1.524 . S
C2199 C2200 1.415 . S
C2200 H2176 0.950 . S
C2200 C2195 1.363 . S
C2200 C2199 1.415 . S
C2201 H2177 0.951 . S
C2201 C2202 1.366 . S
C2201 C2203 1.388 . S
C2202 C2201 1.366 . S
C2202 C2206 1.385 . S
C2203 H2178 0.951 . S
C2203 C2201 1.388 . S
C2203 C2204 1.366 . S
C2204 C2203 1.366 . S
C2204 C2205 1.414 . S
C2204 C2207 1.499 . S
C2205 H2179 0.950 . S
C2205 C2204 1.414 . S
C2205 C2206 1.374 . S
C2206 H2180 0.950 . S
C2206 C2202 1.385 . S
C2206 C2205 1.374 . S
C2207 C2204 1.499 . S
C2207 C2208 1.373 . S
C2207 C2209 1.389 . S
C2208 H2181 0.950 . S
C2208 C2194 1.377 . S
C2208 C2207 1.373 . S
C2209 C2193 1.377 . S
C2209 C2207 1.389 . S
C2209 C2210 1.524 . S
C2210 C2209 1.524 . S
C2210 C2211 1.397 . S
C2210 C2215 1.363 . S
C2211 H2182 0.950 . S
C2211 C2210 1.397 . S
C2211 C2212 1.334 . S
C2212 H2183 0.950 . S
C2212 C2211 1.334 . S
C2212 C2213 1.287 . S
C2213 C2212 1.287 . S
C2213 C2214 1.524 . S
C2213 H2216 0.999 . S
C2214 H2184 0.950 . S
C2214 C2213 1.524 . S
C2214 C2215 1.415 . S
C2215 H2185 0.950 . S
C2215 C2210 1.363 . S
C2215 C2214 1.415 . S
H2216 C2213 0.999 . S
H2217 C2198 0.913 . S
H2218 C2236 0.951 . S
H2219 C2238 0.951 . S
H2220 C2240 0.950 . S
H2221 C2241 0.950 . S
H2222 C2243 0.950 . S
H2223 C2246 0.950 . S
H2224 C2247 0.950 . S
H2225 C2249 0.950 . S
H2226 C2250 0.950 . S
H2227 C2251 0.951 . S
H2228 C2253 0.951 . S
H2229 C2255 0.950 . S
H2230 C2256 0.950 . S
H2231 C2258 0.950 . S
H2232 C2261 0.950 . S
H2233 C2262 0.950 . S
H2234 C2264 0.950 . S
H2235 C2265 0.950 . S
C2236 H2218 0.951 . S
C2236 C2237 1.366 . S
C2236 C2238 1.388 . S
C2237 C2236 1.366 . S
C2237 C2241 1.385 . S
C2238 H2219 0.951 . S
C2238 C2236 1.388 . S
C2238 C2239 1.366 . S
C2239 C2238 1.366 . S
C2239 C2240 1.414 . S
C2239 C2242 1.499 . S
C2240 H2220 0.950 . S
C2240 C2239 1.414 . S
C2240 C2241 1.374 . S
C2241 H2221 0.950 . S
C2241 C2237 1.385 . S
C2241 C2240 1.374 . S
C2242 C2239 1.499 . S
C2242 C2243 1.373 . S
C2242 C2244 1.389 . S
C2243 H2222 0.950 . S
C2243 C2242 1.373 . S
C2243 C2259 1.377 . S
C2244 C2242 1.389 . S
C2244 C2245 1.524 . S
C2244 C2258 1.377 . S
C2245 C2244 1.524 . S
C2245 C2246 1.397 . S
C2245 C2250 1.363 . S
C2246 H2223 0.950 . S
C2246 C2245 1.397 . S
C2246 C2247 1.334 . S
C2247 H2224 0.950 . S
C2247 C2246 1.334 . S
C2247 C2248 1.287 . S
C2248 C2247 1.287 . S
C2248 C2249 1.524 . S
C2248 H2267 0.913 . S
C2249 H2225 0.950 . S
C2249 C2248 1.524 . S
C2249 C2250 1.415 . S
C2250 H2226 0.950 . S
C2250 C2245 1.363 . S
C2250 C2249 1.415 . S
C2251 H2227 0.951 . S
C2251 C2252 1.366 . S
C2251 C2253 1.388 . S
C2252 C2251 1.366 . S
C2252 C2256 1.385 . S
C2253 H2228 0.951 . S
C2253 C2251 1.388 . S
C2253 C2254 1.366 . S
C2254 C2253 1.366 . S
C2254 C2255 1.414 . S
C2254 C2257 1.499 . S
C2255 H2229 0.950 . S
C2255 C2254 1.414 . S
C2255 C2256 1.374 . S
C2256 H2230 0.950 . S
C2256 C2252 1.385 . S
C2256 C2255 1.374 . S
C2257 C2254 1.499 . S
C2257 C2258 1.373 . S
C2257 C2259 1.389 . S
C2258 H2231 0.950 . S
C2258 C2244 1.377 . S
C2258 C2257 1.373 . S
C2259 C2243 1.377 . S
C2259 C2257 1.389 . S
C2259 C2260 1.524 . S
C2260 C2259 1.524 . S
C2260 C2261 1.397 . S
C2260 C2265 1.363 . S
C2261 H2232 0.950 . S
C2261 C2260 1.397 . S
C2261 C2262 1.334 . S
C2262 H2233 0.950 . S
C2262 C2261 1.334 . S
C2262 C2263 1.287 . S
C2263 C2262 1.287 . S
C2263 C2264 1.524 . S
C2263 H2266 0.999 . S
C2264 H2234 0.950 . S
C2264 C2263 1.524 . S
C2264 C2265 1.415 . S
C2265 H2235 0.950 . S
C2265 C2260 1.363 . S
C2265 C2264 1.415 . S
H2266 C2263 0.999 . S
H2267 C2248 0.913 . S
H2268 C2286 0.951 . S
H2269 C2288 0.951 . S
H2270 C2290 0.950 . S
H2271 C2291 0.950 . S
H2272 C2293 0.950 . S
H2273 C2296 0.950 . S
H2274 C2297 0.950 . S
H2275 C2299 0.950 . S
H2276 C2300 0.950 . S
H2277 C2301 0.951 . S
H2278 C2303 0.951 . S
H2279 C2305 0.950 . S
H2280 C2306 0.950 . S
H2281 C2308 0.950 . S
H2282 C2311 0.950 . S
H2283 C2312 0.950 . S
H2284 C2314 0.950 . S
H2285 C2315 0.950 . S
C2286 H2268 0.951 . S
C2286 C2287 1.366 . S
C2286 C2288 1.388 . S
C2287 C2286 1.366 . S
C2287 C2291 1.385 . S
C2288 H2269 0.951 . S
C2288 C2286 1.388 . S
C2288 C2289 1.366 . S
C2289 C2288 1.366 . S
C2289 C2290 1.414 . S
C2289 C2292 1.499 . S
C2290 H2270 0.950 . S
C2290 C2289 1.414 . S
C2290 C2291 1.374 . S
C2291 H2271 0.950 . S
C2291 C2287 1.385 . S
C2291 C2290 1.374 . S
C2292 C2289 1.499 . S
C2292 C2293 1.373 . S
C2292 C2294 1.389 . S
C2293 H2272 0.950 . S
C2293 C2292 1.373 . S
C2293 C2309 1.377 . S
C2294 C2292 1.389 . S
C2294 C2295 1.524 . S
C2294 C2308 1.377 . S
C2295 C2294 1.524 . S
C2295 C2296 1.397 . S
C2295 C2300 1.363 . S
C2296 H2273 0.950 . S
C2296 C2295 1.397 . S
C2296 C2297 1.334 . S
C2297 H2274 0.950 . S
C2297 C2296 1.334 . S
C2297 C2298 1.287 . S
C2298 C2297 1.287 . S
C2298 C2299 1.524 . S
C2298 H2317 0.913 . S
C2299 H2275 0.950 . S
C2299 C2298 1.524 . S
C2299 C2300 1.415 . S
C2300 H2276 0.950 . S
C2300 C2295 1.363 . S
C2300 C2299 1.415 . S
C2301 H2277 0.951 . S
C2301 C2302 1.366 . S
C2301 C2303 1.388 . S
C2302 C2301 1.366 . S
C2302 C2306 1.385 . S
C2303 H2278 0.951 . S
C2303 C2301 1.388 . S
C2303 C2304 1.366 . S
C2304 C2303 1.366 . S
C2304 C2305 1.414 . S
C2304 C2307 1.499 . S
C2305 H2279 0.950 . S
C2305 C2304 1.414 . S
C2305 C2306 1.374 . S
C2306 H2280 0.950 . S
C2306 C2302 1.385 . S
C2306 C2305 1.374 . S
C2307 C2304 1.499 . S
C2307 C2308 1.373 . S
C2307 C2309 1.389 . S
C2308 H2281 0.950 . S
C2308 C2294 1.377 . S
C2308 C2307 1.373 . S
C2309 C2293 1.377 . S
C2309 C2307 1.389 . S
C2309 C2310 1.524 . S
C2310 C2309 1.524 . S
C2310 C2311 1.397 . S
C2310 C2315 1.363 . S
C2311 H2282 0.950 . S
C2311 C2310 1.397 . S
C2311 C2312 1.334 . S
C2312 H2283 0.950 . S
C2312 C2311 1.334 . S
C2312 C2313 1.287 . S
C2313 C2312 1.287 . S
C2313 C2314 1.524 . S
C2313 H2316 0.999 . S
C2314 H2284 0.950 . S
C2314 C2313 1.524 . S
C2314 C2315 1.415 . S
C2315 H2285 0.950 . S
C2315 C2310 1.363 . S
C2315 C2314 1.415 . S
H2316 C2313 0.999 . S
H2317 C2298 0.913 . S
H2318 C2336 0.951 . S
H2319 C2338 0.951 . S
H2320 C2340 0.950 . S
H2321 C2341 0.950 . S
H2322 C2343 0.950 . S
H2323 C2346 0.950 . S
H2324 C2347 0.950 . S
H2325 C2349 0.950 . S
H2326 C2350 0.950 . S
H2327 C2351 0.951 . S
H2328 C2353 0.951 . S
H2329 C2355 0.950 . S
H2330 C2356 0.950 . S
H2331 C2358 0.950 . S
H2332 C2361 0.950 . S
H2333 C2362 0.950 . S
H2334 C2364 0.950 . S
H2335 C2365 0.950 . S
C2336 H2318 0.951 . S
C2336 C2337 1.366 . S
C2336 C2338 1.388 . S
C2337 C2336 1.366 . S
C2337 C2341 1.385 . S
C2338 H2319 0.951 . S
C2338 C2336 1.388 . S
C2338 C2339 1.366 . S
C2339 C2338 1.366 . S
C2339 C2340 1.414 . S
C2339 C2342 1.499 . S
C2340 H2320 0.950 . S
C2340 C2339 1.414 . S
C2340 C2341 1.374 . S
C2341 H2321 0.950 . S
C2341 C2337 1.385 . S
C2341 C2340 1.374 . S
C2342 C2339 1.499 . S
C2342 C2343 1.373 . S
C2342 C2344 1.389 . S
C2343 H2322 0.950 . S
C2343 C2342 1.373 . S
C2343 C2359 1.377 . S
C2344 C2342 1.389 . S
C2344 C2345 1.524 . S
C2344 C2358 1.377 . S
C2345 C2344 1.524 . S
C2345 C2346 1.397 . S
C2345 C2350 1.363 . S
C2346 H2323 0.950 . S
C2346 C2345 1.397 . S
C2346 C2347 1.334 . S
C2347 H2324 0.950 . S
C2347 C2346 1.334 . S
C2347 C2348 1.287 . S
C2348 C2347 1.287 . S
C2348 C2349 1.524 . S
C2348 H2367 0.913 . S
C2349 H2325 0.950 . S
C2349 C2348 1.524 . S
C2349 C2350 1.415 . S
C2350 H2326 0.950 . S
C2350 C2345 1.363 . S
C2350 C2349 1.415 . S
C2351 H2327 0.951 . S
C2351 C2352 1.366 . S
C2351 C2353 1.388 . S
C2352 C2351 1.366 . S
C2352 C2356 1.385 . S
C2353 H2328 0.951 . S
C2353 C2351 1.388 . S
C2353 C2354 1.366 . S
C2354 C2353 1.366 . S
C2354 C2355 1.414 . S
C2354 C2357 1.499 . S
C2355 H2329 0.950 . S
C2355 C2354 1.414 . S
C2355 C2356 1.374 . S
C2356 H2330 0.950 . S
C2356 C2352 1.385 . S
C2356 C2355 1.374 . S
C2357 C2354 1.499 . S
C2357 C2358 1.373 . S
C2357 C2359 1.389 . S
C2358 H2331 0.950 . S
C2358 C2344 1.377 . S
C2358 C2357 1.373 . S
C2359 C2343 1.377 . S
C2359 C2357 1.389 . S
C2359 C2360 1.524 . S
C2360 C2359 1.524 . S
C2360 C2361 1.397 . S
C2360 C2365 1.363 . S
C2361 H2332 0.950 . S
C2361 C2360 1.397 . S
C2361 C2362 1.334 . S
C2362 H2333 0.950 . S
C2362 C2361 1.334 . S
C2362 C2363 1.287 . S
C2363 C2362 1.287 . S
C2363 C2364 1.524 . S
C2363 H2366 0.999 . S
C2364 H2334 0.950 . S
C2364 C2363 1.524 . S
C2364 C2365 1.415 . S
C2365 H2335 0.950 . S
C2365 C2360 1.363 . S
C2365 C2364 1.415 . S
H2366 C2363 0.999 . S
H2367 C2348 0.913 . S
H2368 C2386 0.951 . S
H2369 C2388 0.951 . S
H2370 C2390 0.950 . S
H2371 C2391 0.950 . S
H2372 C2393 0.950 . S
H2373 C2396 0.950 . S
H2374 C2397 0.950 . S
H2375 C2399 0.950 . S
H2376 C2400 0.950 . S
H2377 C2401 0.951 . S
H2378 C2403 0.951 . S
H2379 C2405 0.950 . S
H2380 C2406 0.950 . S
H2381 C2408 0.950 . S
H2382 C2411 0.950 . S
H2383 C2412 0.950 . S
H2384 C2414 0.950 . S
H2385 C2415 0.950 . S
C2386 H2368 0.951 . S
C2386 C2387 1.366 . S
C2386 C2388 1.388 . S
C2387 C2386 1.366 . S
C2387 C2391 1.385 . S
C2388 H2369 0.951 . S
C2388 C2386 1.388 . S
C2388 C2389 1.366 . S
C2389 C2388 1.366 . S
C2389 C2390 1.414 . S
C2389 C2392 1.499 . S
C2390 H2370 0.950 . S
C2390 C2389 1.414 . S
C2390 C2391 1.374 . S
C2391 H2371 0.950 . S
C2391 C2387 1.385 . S
C2391 C2390 1.374 . S
C2392 C2389 1.499 . S
C2392 C2393 1.373 . S
C2392 C2394 1.389 . S
C2393 H2372 0.950 . S
C2393 C2392 1.373 . S
C2393 C2409 1.377 . S
C2394 C2392 1.389 . S
C2394 C2395 1.524 . S
C2394 C2408 1.377 . S
C2395 C2394 1.524 . S
C2395 C2396 1.397 . S
C2395 C2400 1.363 . S
C2396 H2373 0.950 . S
C2396 C2395 1.397 . S
C2396 C2397 1.334 . S
C2397 H2374 0.950 . S
C2397 C2396 1.334 . S
C2397 C2398 1.287 . S
C2398 C2397 1.287 . S
C2398 C2399 1.524 . S
C2398 H2417 0.913 . S
C2399 H2375 0.950 . S
C2399 C2398 1.524 . S
C2399 C2400 1.415 . S
C2400 H2376 0.950 . S
C2400 C2395 1.363 . S
C2400 C2399 1.415 . S
C2401 H2377 0.951 . S
C2401 C2402 1.366 . S
C2401 C2403 1.388 . S
C2402 C2401 1.366 . S
C2402 C2406 1.385 . S
C2403 H2378 0.951 . S
C2403 C2401 1.388 . S
C2403 C2404 1.366 . S
C2404 C2403 1.366 . S
C2404 C2405 1.414 . S
C2404 C2407 1.499 . S
C2405 H2379 0.950 . S
C2405 C2404 1.414 . S
C2405 C2406 1.374 . S
C2406 H2380 0.950 . S
C2406 C2402 1.385 . S
C2406 C2405 1.374 . S
C2407 C2404 1.499 . S
C2407 C2408 1.373 . S
C2407 C2409 1.389 . S
C2408 H2381 0.950 . S
C2408 C2394 1.377 . S
C2408 C2407 1.373 . S
C2409 C2393 1.377 . S
C2409 C2407 1.389 . S
C2409 C2410 1.524 . S
C2410 C2409 1.524 . S
C2410 C2411 1.397 . S
C2410 C2415 1.363 . S
C2411 H2382 0.950 . S
C2411 C2410 1.397 . S
C2411 C2412 1.334 . S
C2412 H2383 0.950 . S
C2412 C2411 1.334 . S
C2412 C2413 1.287 . S
C2413 C2412 1.287 . S
C2413 C2414 1.524 . S
C2413 H2416 0.999 . S
C2414 H2384 0.950 . S
C2414 C2413 1.524 . S
C2414 C2415 1.415 . S
C2415 H2385 0.950 . S
C2415 C2410 1.363 . S
C2415 C2414 1.415 . S
H2416 C2413 0.999 . S
H2417 C2398 0.913 . S
H2418 C2436 0.951 . S
H2419 C2438 0.951 . S
H2420 C2440 0.950 . S
H2421 C2441 0.950 . S
H2422 C2443 0.950 . S
H2423 C2446 0.950 . S
H2424 C2447 0.950 . S
H2425 C2449 0.950 . S
H2426 C2450 0.950 . S
H2427 C2451 0.951 . S
H2428 C2453 0.951 . S
H2429 C2455 0.950 . S
H2430 C2456 0.950 . S
H2431 C2458 0.950 . S
H2432 C2461 0.950 . S
H2433 C2462 0.950 . S
H2434 C2464 0.950 . S
H2435 C2465 0.950 . S
C2436 H2418 0.951 . S
C2436 C2437 1.366 . S
C2436 C2438 1.388 . S
C2437 C2436 1.366 . S
C2437 C2441 1.385 . S
C2438 H2419 0.951 . S
C2438 C2436 1.388 . S
C2438 C2439 1.366 . S
C2439 C2438 1.366 . S
C2439 C2440 1.414 . S
C2439 C2442 1.499 . S
C2440 H2420 0.950 . S
C2440 C2439 1.414 . S
C2440 C2441 1.374 . S
C2441 H2421 0.950 . S
C2441 C2437 1.385 . S
C2441 C2440 1.374 . S
C2442 C2439 1.499 . S
C2442 C2443 1.373 . S
C2442 C2444 1.389 . S
C2443 H2422 0.950 . S
C2443 C2442 1.373 . S
C2443 C2459 1.377 . S
C2444 C2442 1.389 . S
C2444 C2445 1.524 . S
C2444 C2458 1.377 . S
C2445 C2444 1.524 . S
C2445 C2446 1.397 . S
C2445 C2450 1.363 . S
C2446 H2423 0.950 . S
C2446 C2445 1.397 . S
C2446 C2447 1.334 . S
C2447 H2424 0.950 . S
C2447 C2446 1.334 . S
C2447 C2448 1.287 . S
C2448 C2447 1.287 . S
C2448 C2449 1.524 . S
C2448 H2467 0.913 . S
C2449 H2425 0.950 . S
C2449 C2448 1.524 . S
C2449 C2450 1.415 . S
C2450 H2426 0.950 . S
C2450 C2445 1.363 . S
C2450 C2449 1.415 . S
C2451 H2427 0.951 . S
C2451 C2452 1.366 . S
C2451 C2453 1.388 . S
C2452 C2451 1.366 . S
C2452 C2456 1.385 . S
C2453 H2428 0.951 . S
C2453 C2451 1.388 . S
C2453 C2454 1.366 . S
C2454 C2453 1.366 . S
C2454 C2455 1.414 . S
C2454 C2457 1.499 . S
C2455 H2429 0.950 . S
C2455 C2454 1.414 . S
C2455 C2456 1.374 . S
C2456 H2430 0.950 . S
C2456 C2452 1.385 . S
C2456 C2455 1.374 . S
C2457 C2454 1.499 . S
C2457 C2458 1.373 . S
C2457 C2459 1.389 . S
C2458 H2431 0.950 . S
C2458 C2444 1.377 . S
C2458 C2457 1.373 . S
C2459 C2443 1.377 . S
C2459 C2457 1.389 . S
C2459 C2460 1.524 . S
C2460 C2459 1.524 . S
C2460 C2461 1.397 . S
C2460 C2465 1.363 . S
C2461 H2432 0.950 . S
C2461 C2460 1.397 . S
C2461 C2462 1.334 . S
C2462 H2433 0.950 . S
C2462 C2461 1.334 . S
C2462 C2463 1.287 . S
C2463 C2462 1.287 . S
C2463 C2464 1.524 . S
C2463 H2466 0.999 . S
C2464 H2434 0.950 . S
C2464 C2463 1.524 . S
C2464 C2465 1.415 . S
C2465 H2435 0.950 . S
C2465 C2460 1.363 . S
C2465 C2464 1.415 . S
H2466 C2463 0.999 . S
H2467 C2448 0.913 . S
H2468 C2486 0.951 . S
H2469 C2488 0.951 . S
H2470 C2490 0.950 . S
H2471 C2491 0.950 . S
H2472 C2493 0.950 . S
H2473 C2496 0.950 . S
H2474 C2497 0.950 . S
H2475 C2499 0.950 . S
H2476 C2500 0.950 . S
H2477 C2501 0.951 . S
H2478 C2503 0.951 . S
H2479 C2505 0.950 . S
H2480 C2506 0.950 . S
H2481 C2508 0.950 . S
H2482 C2511 0.950 . S
H2483 C2512 0.950 . S
H2484 C2514 0.950 . S
H2485 C2515 0.950 . S
C2486 H2468 0.951 . S
C2486 C2487 1.366 . S
C2486 C2488 1.388 . S
C2487 C2486 1.366 . S
C2487 C2491 1.385 . S
C2488 H2469 0.951 . S
C2488 C2486 1.388 . S
C2488 C2489 1.366 . S
C2489 C2488 1.366 . S
C2489 C2490 1.414 . S
C2489 C2492 1.499 . S
C2490 H2470 0.950 . S
C2490 C2489 1.414 . S
C2490 C2491 1.374 . S
C2491 H2471 0.950 . S
C2491 C2487 1.385 . S
C2491 C2490 1.374 . S
C2492 C2489 1.499 . S
C2492 C2493 1.373 . S
C2492 C2494 1.389 . S
C2493 H2472 0.950 . S
C2493 C2492 1.373 . S
C2493 C2509 1.377 . S
C2494 C2492 1.389 . S
C2494 C2495 1.524 . S
C2494 C2508 1.377 . S
C2495 C2494 1.524 . S
C2495 C2496 1.397 . S
C2495 C2500 1.363 . S
C2496 H2473 0.950 . S
C2496 C2495 1.397 . S
C2496 C2497 1.334 . S
C2497 H2474 0.950 . S
C2497 C2496 1.334 . S
C2497 C2498 1.287 . S
C2498 C2497 1.287 . S
C2498 C2499 1.524 . S
C2498 H2517 0.913 . S
C2499 H2475 0.950 . S
C2499 C2498 1.524 . S
C2499 C2500 1.415 . S
C2500 H2476 0.950 . S
C2500 C2495 1.363 . S
C2500 C2499 1.415 . S
C2501 H2477 0.951 . S
C2501 C2502 1.366 . S
C2501 C2503 1.388 . S
C2502 C2501 1.366 . S
C2502 C2506 1.385 . S
C2503 H2478 0.951 . S
C2503 C2501 1.388 . S
C2503 C2504 1.366 . S
C2504 C2503 1.366 . S
C2504 C2505 1.414 . S
C2504 C2507 1.499 . S
C2505 H2479 0.950 . S
C2505 C2504 1.414 . S
C2505 C2506 1.374 . S
C2506 H2480 0.950 . S
C2506 C2502 1.385 . S
C2506 C2505 1.374 . S
C2507 C2504 1.499 . S
C2507 C2508 1.373 . S
C2507 C2509 1.389 . S
C2508 H2481 0.950 . S
C2508 C2494 1.377 . S
C2508 C2507 1.373 . S
C2509 C2493 1.377 . S
C2509 C2507 1.389 . S
C2509 C2510 1.524 . S
C2510 C2509 1.524 . S
C2510 C2511 1.397 . S
C2510 C2515 1.363 . S
C2511 H2482 0.950 . S
C2511 C2510 1.397 . S
C2511 C2512 1.334 . S
C2512 H2483 0.950 . S
C2512 C2511 1.334 . S
C2512 C2513 1.287 . S
C2513 C2512 1.287 . S
C2513 C2514 1.524 . S
C2513 H2516 0.999 . S
C2514 H2484 0.950 . S
C2514 C2513 1.524 . S
C2514 C2515 1.415 . S
C2515 H2485 0.950 . S
C2515 C2510 1.363 . S
C2515 C2514 1.415 . S
H2516 C2513 0.999 . S
H2517 C2498 0.913 . S
H2518 C2536 0.951 . S
H2519 C2538 0.951 . S
H2520 C2540 0.950 . S
H2521 C2541 0.950 . S
H2522 C2543 0.950 . S
H2523 C2546 0.950 . S
H2524 C2547 0.950 . S
H2525 C2549 0.950 . S
H2526 C2550 0.950 . S
H2527 C2551 0.951 . S
H2528 C2553 0.951 . S
H2529 C2555 0.950 . S
H2530 C2556 0.950 . S
H2531 C2558 0.950 . S
H2532 C2561 0.950 . S
H2533 C2562 0.950 . S
H2534 C2564 0.950 . S
H2535 C2565 0.950 . S
C2536 H2518 0.951 . S
C2536 C2537 1.366 . S
C2536 C2538 1.388 . S
C2537 C2536 1.366 . S
C2537 C2541 1.385 . S
C2538 H2519 0.951 . S
C2538 C2536 1.388 . S
C2538 C2539 1.366 . S
C2539 C2538 1.366 . S
C2539 C2540 1.414 . S
C2539 C2542 1.499 . S
C2540 H2520 0.950 . S
C2540 C2539 1.414 . S
C2540 C2541 1.374 . S
C2541 H2521 0.950 . S
C2541 C2537 1.385 . S
C2541 C2540 1.374 . S
C2542 C2539 1.499 . S
C2542 C2543 1.373 . S
C2542 C2544 1.389 . S
C2543 H2522 0.950 . S
C2543 C2542 1.373 . S
C2543 C2559 1.377 . S
C2544 C2542 1.389 . S
C2544 C2545 1.524 . S
C2544 C2558 1.377 . S
C2545 C2544 1.524 . S
C2545 C2546 1.397 . S
C2545 C2550 1.363 . S
C2546 H2523 0.950 . S
C2546 C2545 1.397 . S
C2546 C2547 1.334 . S
C2547 H2524 0.950 . S
C2547 C2546 1.334 . S
C2547 C2548 1.287 . S
C2548 C2547 1.287 . S
C2548 C2549 1.524 . S
C2548 H2567 0.913 . S
C2549 H2525 0.950 . S
C2549 C2548 1.524 . S
C2549 C2550 1.415 . S
C2550 H2526 0.950 . S
C2550 C2545 1.363 . S
C2550 C2549 1.415 . S
C2551 H2527 0.951 . S
C2551 C2552 1.366 . S
C2551 C2553 1.388 . S
C2552 C2551 1.366 . S
C2552 C2556 1.385 . S
C2553 H2528 0.951 . S
C2553 C2551 1.388 . S
C2553 C2554 1.366 . S
C2554 C2553 1.366 . S
C2554 C2555 1.414 . S
C2554 C2557 1.499 . S
C2555 H2529 0.950 . S
C2555 C2554 1.414 . S
C2555 C2556 1.374 . S
C2556 H2530 0.950 . S
C2556 C2552 1.385 . S
C2556 C2555 1.374 . S
C2557 C2554 1.499 . S
C2557 C2558 1.373 . S
C2557 C2559 1.389 . S
C2558 H2531 0.950 . S
C2558 C2544 1.377 . S
C2558 C2557 1.373 . S
C2559 C2543 1.377 . S
C2559 C2557 1.389 . S
C2559 C2560 1.524 . S
C2560 C2559 1.524 . S
C2560 C2561 1.397 . S
C2560 C2565 1.363 . S
C2561 H2532 0.950 . S
C2561 C2560 1.397 . S
C2561 C2562 1.334 . S
C2562 H2533 0.950 . S
C2562 C2561 1.334 . S
C2562 C2563 1.287 . S
C2563 C2562 1.287 . S
C2563 C2564 1.524 . S
C2563 H2566 0.999 . S
C2564 H2534 0.950 . S
C2564 C2563 1.524 . S
C2564 C2565 1.415 . S
C2565 H2535 0.950 . S
C2565 C2560 1.363 . S
C2565 C2564 1.415 . S
H2566 C2563 0.999 . S
H2567 C2548 0.913 . S
H2568 C2586 0.951 . S
H2569 C2588 0.951 . S
H2570 C2590 0.950 . S
H2571 C2591 0.950 . S
H2572 C2593 0.950 . S
H2573 C2596 0.950 . S
H2574 C2597 0.950 . S
H2575 C2599 0.950 . S
H2576 C2600 0.950 . S
H2577 C2601 0.951 . S
H2578 C2603 0.951 . S
H2579 C2605 0.950 . S
H2580 C2606 0.950 . S
H2581 C2608 0.950 . S
H2582 C2611 0.950 . S
H2583 C2612 0.950 . S
H2584 C2614 0.950 . S
H2585 C2615 0.950 . S
C2586 H2568 0.951 . S
C2586 C2587 1.366 . S
C2586 C2588 1.388 . S
C2587 C2586 1.366 . S
C2587 C2591 1.385 . S
C2588 H2569 0.951 . S
C2588 C2586 1.388 . S
C2588 C2589 1.366 . S
C2589 C2588 1.366 . S
C2589 C2590 1.414 . S
C2589 C2592 1.499 . S
C2590 H2570 0.950 . S
C2590 C2589 1.414 . S
C2590 C2591 1.374 . S
C2591 H2571 0.950 . S
C2591 C2587 1.385 . S
C2591 C2590 1.374 . S
C2592 C2589 1.499 . S
C2592 C2593 1.373 . S
C2592 C2594 1.389 . S
C2593 H2572 0.950 . S
C2593 C2592 1.373 . S
C2593 C2609 1.377 . S
C2594 C2592 1.389 . S
C2594 C2595 1.524 . S
C2594 C2608 1.377 . S
C2595 C2594 1.524 . S
C2595 C2596 1.397 . S
C2595 C2600 1.363 . S
C2596 H2573 0.950 . S
C2596 C2595 1.397 . S
C2596 C2597 1.334 . S
C2597 H2574 0.950 . S
C2597 C2596 1.334 . S
C2597 C2598 1.287 . S
C2598 C2597 1.287 . S
C2598 C2599 1.524 . S
C2598 H2617 0.913 . S
C2599 H2575 0.950 . S
C2599 C2598 1.524 . S
C2599 C2600 1.415 . S
C2600 H2576 0.950 . S
C2600 C2595 1.363 . S
C2600 C2599 1.415 . S
C2601 H2577 0.951 . S
C2601 C2602 1.366 . S
C2601 C2603 1.388 . S
C2602 C2601 1.366 . S
C2602 C2606 1.385 . S
C2603 H2578 0.951 . S
C2603 C2601 1.388 . S
C2603 C2604 1.366 . S
C2604 C2603 1.366 . S
C2604 C2605 1.414 . S
C2604 C2607 1.499 . S
C2605 H2579 0.950 . S
C2605 C2604 1.414 . S
C2605 C2606 1.374 . S
C2606 H2580 0.950 . S
C2606 C2602 1.385 . S
C2606 C2605 1.374 . S
C2607 C2604 1.499 . S
C2607 C2608 1.373 . S
C2607 C2609 1.389 . S
C2608 H2581 0.950 . S
C2608 C2594 1.377 . S
C2608 C2607 1.373 . S
C2609 C2593 1.377 . S
C2609 C2607 1.389 . S
C2609 C2610 1.524 . S
C2610 C2609 1.524 . S
C2610 C2611 1.397 . S
C2610 C2615 1.363 . S
C2611 H2582 0.950 . S
C2611 C2610 1.397 . S
C2611 C2612 1.334 . S
C2612 H2583 0.950 . S
C2612 C2611 1.334 . S
C2612 C2613 1.287 . S
C2613 C2612 1.287 . S
C2613 C2614 1.524 . S
C2613 H2616 0.999 . S
C2614 H2584 0.950 . S
C2614 C2613 1.524 . S
C2614 C2615 1.415 . S
C2615 H2585 0.950 . S
C2615 C2610 1.363 . S
C2615 C2614 1.415 . S
H2616 C2613 0.999 . S
H2617 C2598 0.913 . S
H2618 C2636 0.951 . S
H2619 C2638 0.951 . S
H2620 C2640 0.950 . S
H2621 C2641 0.950 . S
H2622 C2643 0.950 . S
H2623 C2646 0.950 . S
H2624 C2647 0.950 . S
H2625 C2649 0.950 . S
H2626 C2650 0.950 . S
H2627 C2651 0.951 . S
H2628 C2653 0.951 . S
H2629 C2655 0.950 . S
H2630 C2656 0.950 . S
H2631 C2658 0.950 . S
H2632 C2661 0.950 . S
H2633 C2662 0.950 . S
H2634 C2664 0.950 . S
H2635 C2665 0.950 . S
C2636 H2618 0.951 . S
C2636 C2637 1.366 . S
C2636 C2638 1.388 . S
C2637 C2636 1.366 . S
C2637 C2641 1.385 . S
C2638 H2619 0.951 . S
C2638 C2636 1.388 . S
C2638 C2639 1.366 . S
C2639 C2638 1.366 . S
C2639 C2640 1.414 . S
C2639 C2642 1.499 . S
C2640 H2620 0.950 . S
C2640 C2639 1.414 . S
C2640 C2641 1.374 . S
C2641 H2621 0.950 . S
C2641 C2637 1.385 . S
C2641 C2640 1.374 . S
C2642 C2639 1.499 . S
C2642 C2643 1.373 . S
C2642 C2644 1.389 . S
C2643 H2622 0.950 . S
C2643 C2642 1.373 . S
C2643 C2659 1.377 . S
C2644 C2642 1.389 . S
C2644 C2645 1.524 . S
C2644 C2658 1.377 . S
C2645 C2644 1.524 . S
C2645 C2646 1.397 . S
C2645 C2650 1.363 . S
C2646 H2623 0.950 . S
C2646 C2645 1.397 . S
C2646 C2647 1.334 . S
C2647 H2624 0.950 . S
C2647 C2646 1.334 . S
C2647 C2648 1.287 . S
C2648 C2647 1.287 . S
C2648 C2649 1.524 . S
C2648 H2667 0.913 . S
C2649 H2625 0.950 . S
C2649 C2648 1.524 . S
C2649 C2650 1.415 . S
C2650 H2626 0.950 . S
C2650 C2645 1.363 . S
C2650 C2649 1.415 . S
C2651 H2627 0.951 . S
C2651 C2652 1.366 . S
C2651 C2653 1.388 . S
C2652 C2651 1.366 . S
C2652 C2656 1.385 . S
C2653 H2628 0.951 . S
C2653 C2651 1.388 . S
C2653 C2654 1.366 . S
C2654 C2653 1.366 . S
C2654 C2655 1.414 . S
C2654 C2657 1.499 . S
C2655 H2629 0.950 . S
C2655 C2654 1.414 . S
C2655 C2656 1.374 . S
C2656 H2630 0.950 . S
C2656 C2652 1.385 . S
C2656 C2655 1.374 . S
C2657 C2654 1.499 . S
C2657 C2658 1.373 . S
C2657 C2659 1.389 . S
C2658 H2631 0.950 . S
C2658 C2644 1.377 . S
C2658 C2657 1.373 . S
C2659 C2643 1.377 . S
C2659 C2657 1.389 . S
C2659 C2660 1.524 . S
C2660 C2659 1.524 . S
C2660 C2661 1.397 . S
C2660 C2665 1.363 . S
C2661 H2632 0.950 . S
C2661 C2660 1.397 . S
C2661 C2662 1.334 . S
C2662 H2633 0.950 . S
C2662 C2661 1.334 . S
C2662 C2663 1.287 . S
C2663 C2662 1.287 . S
C2663 C2664 1.524 . S
C2663 H2666 0.999 . S
C2664 H2634 0.950 . S
C2664 C2663 1.524 . S
C2664 C2665 1.415 . S
C2665 H2635 0.950 . S
C2665 C2660 1.363 . S
C2665 C2664 1.415 . S
H2666 C2663 0.999 . S
H2667 C2648 0.913 . S
H2668 C2686 0.951 . S
H2669 C2688 0.951 . S
H2670 C2690 0.950 . S
H2671 C2691 0.950 . S
H2672 C2693 0.950 . S
H2673 C2696 0.950 . S
H2674 C2697 0.950 . S
H2675 C2699 0.950 . S
H2676 C2700 0.950 . S
H2677 C2701 0.951 . S
H2678 C2703 0.951 . S
H2679 C2705 0.950 . S
H2680 C2706 0.950 . S
H2681 C2708 0.950 . S
H2682 C2711 0.950 . S
H2683 C2712 0.950 . S
H2684 C2714 0.950 . S
H2685 C2715 0.950 . S
C2686 H2668 0.951 . S
C2686 C2687 1.366 . S
C2686 C2688 1.388 . S
C2687 C2686 1.366 . S
C2687 C2691 1.385 . S
C2688 H2669 0.951 . S
C2688 C2686 1.388 . S
C2688 C2689 1.366 . S
C2689 C2688 1.366 . S
C2689 C2690 1.414 . S
C2689 C2692 1.499 . S
C2690 H2670 0.950 . S
C2690 C2689 1.414 . S
C2690 C2691 1.374 . S
C2691 H2671 0.950 . S
C2691 C2687 1.385 . S
C2691 C2690 1.374 . S
C2692 C2689 1.499 . S
C2692 C2693 1.373 . S
C2692 C2694 1.389 . S
C2693 H2672 0.950 . S
C2693 C2692 1.373 . S
C2693 C2709 1.377 . S
C2694 C2692 1.389 . S
C2694 C2695 1.524 . S
C2694 C2708 1.377 . S
C2695 C2694 1.524 . S
C2695 C2696 1.397 . S
C2695 C2700 1.363 . S
C2696 H2673 0.950 . S
C2696 C2695 1.397 . S
C2696 C2697 1.334 . S
C2697 H2674 0.950 . S
C2697 C2696 1.334 . S
C2697 C2698 1.287 . S
C2698 C2697 1.287 . S
C2698 C2699 1.524 . S
C2698 H2717 0.913 . S
C2699 H2675 0.950 . S
C2699 C2698 1.524 . S
C2699 C2700 1.415 . S
C2700 H2676 0.950 . S
C2700 C2695 1.363 . S
C2700 C2699 1.415 . S
C2701 H2677 0.951 . S
C2701 C2702 1.366 . S
C2701 C2703 1.388 . S
C2702 C2701 1.366 . S
C2702 C2706 1.385 . S
C2703 H2678 0.951 . S
C2703 C2701 1.388 . S
C2703 C2704 1.366 . S
C2704 C2703 1.366 . S
C2704 C2705 1.414 . S
C2704 C2707 1.499 . S
C2705 H2679 0.950 . S
C2705 C2704 1.414 . S
C2705 C2706 1.374 . S
C2706 H2680 0.950 . S
C2706 C2702 1.385 . S
C2706 C2705 1.374 . S
C2707 C2704 1.499 . S
C2707 C2708 1.373 . S
C2707 C2709 1.389 . S
C2708 H2681 0.950 . S
C2708 C2694 1.377 . S
C2708 C2707 1.373 . S
C2709 C2693 1.377 . S
C2709 C2707 1.389 . S
C2709 C2710 1.524 . S
C2710 C2709 1.524 . S
C2710 C2711 1.397 . S
C2710 C2715 1.363 . S
C2711 H2682 0.950 . S
C2711 C2710 1.397 . S
C2711 C2712 1.334 . S
C2712 H2683 0.950 . S
C2712 C2711 1.334 . S
C2712 C2713 1.287 . S
C2713 C2712 1.287 . S
C2713 C2714 1.524 . S
C2713 H2716 0.999 . S
C2714 H2684 0.950 . S
C2714 C2713 1.524 . S
C2714 C2715 1.415 . S
C2715 H2685 0.950 . S
C2715 C2710 1.363 . S
C2715 C2714 1.415 . S
H2716 C2713 0.999 . S
H2717 C2698 0.913 . S
H2718 C2736 0.951 . S
H2719 C2738 0.951 . S
H2720 C2740 0.950 . S
H2721 C2741 0.950 . S
H2722 C2743 0.950 . S
H2723 C2746 0.950 . S
H2724 C2747 0.950 . S
H2725 C2749 0.950 . S
H2726 C2750 0.950 . S
H2727 C2751 0.951 . S
H2728 C2753 0.951 . S
H2729 C2755 0.950 . S
H2730 C2756 0.950 . S
H2731 C2758 0.950 . S
H2732 C2761 0.950 . S
H2733 C2762 0.950 . S
H2734 C2764 0.950 . S
H2735 C2765 0.950 . S
C2736 H2718 0.951 . S
C2736 C2737 1.366 . S
C2736 C2738 1.388 . S
C2737 C2736 1.366 . S
C2737 C2741 1.385 . S
C2738 H2719 0.951 . S
C2738 C2736 1.388 . S
C2738 C2739 1.366 . S
C2739 C2738 1.366 . S
C2739 C2740 1.414 . S
C2739 C2742 1.499 . S
C2740 H2720 0.950 . S
C2740 C2739 1.414 . S
C2740 C2741 1.374 . S
C2741 H2721 0.950 . S
C2741 C2737 1.385 . S
C2741 C2740 1.374 . S
C2742 C2739 1.499 . S
C2742 C2743 1.373 . S
C2742 C2744 1.389 . S
C2743 H2722 0.950 . S
C2743 C2742 1.373 . S
C2743 C2759 1.377 . S
C2744 C2742 1.389 . S
C2744 C2745 1.524 . S
C2744 C2758 1.377 . S
C2745 C2744 1.524 . S
C2745 C2746 1.397 . S
C2745 C2750 1.363 . S
C2746 H2723 0.950 . S
C2746 C2745 1.397 . S
C2746 C2747 1.334 . S
C2747 H2724 0.950 . S
C2747 C2746 1.334 . S
C2747 C2748 1.287 . S
C2748 C2747 1.287 . S
C2748 C2749 1.524 . S
C2748 H2767 0.913 . S
C2749 H2725 0.950 . S
C2749 C2748 1.524 . S
C2749 C2750 1.415 . S
C2750 H2726 0.950 . S
C2750 C2745 1.363 . S
C2750 C2749 1.415 . S
C2751 H2727 0.951 . S
C2751 C2752 1.366 . S
C2751 C2753 1.388 . S
C2752 C2751 1.366 . S
C2752 C2756 1.385 . S
C2753 H2728 0.951 . S
C2753 C2751 1.388 . S
C2753 C2754 1.366 . S
C2754 C2753 1.366 . S
C2754 C2755 1.414 . S
C2754 C2757 1.499 . S
C2755 H2729 0.950 . S
C2755 C2754 1.414 . S
C2755 C2756 1.374 . S
C2756 H2730 0.950 . S
C2756 C2752 1.385 . S
C2756 C2755 1.374 . S
C2757 C2754 1.499 . S
C2757 C2758 1.373 . S
C2757 C2759 1.389 . S
C2758 H2731 0.950 . S
C2758 C2744 1.377 . S
C2758 C2757 1.373 . S
C2759 C2743 1.377 . S
C2759 C2757 1.389 . S
C2759 C2760 1.524 . S
C2760 C2759 1.524 . S
C2760 C2761 1.397 . S
C2760 C2765 1.363 . S
C2761 H2732 0.950 . S
C2761 C2760 1.397 . S
C2761 C2762 1.334 . S
C2762 H2733 0.950 . S
C2762 C2761 1.334 . S
C2762 C2763 1.287 . S
C2763 C2762 1.287 . S
C2763 C2764 1.524 . S
C2763 H2766 0.999 . S
C2764 H2734 0.950 . S
C2764 C2763 1.524 . S
C2764 C2765 1.415 . S
C2765 H2735 0.950 . S
C2765 C2760 1.363 . S
C2765 C2764 1.415 . S
H2766 C2763 0.999 . S
H2767 C2748 0.913 . S
H2768 C2786 0.951 . S
H2769 C2788 0.951 . S
H2770 C2790 0.950 . S
H2771 C2791 0.950 . S
H2772 C2793 0.950 . S
H2773 C2796 0.950 . S
H2774 C2797 0.950 . S
H2775 C2799 0.950 . S
H2776 C2800 0.950 . S
H2777 C2801 0.951 . S
H2778 C2803 0.951 . S
H2779 C2805 0.950 . S
H2780 C2806 0.950 . S
H2781 C2808 0.950 . S
H2782 C2811 0.950 . S
H2783 C2812 0.950 . S
H2784 C2814 0.950 . S
H2785 C2815 0.950 . S
C2786 H2768 0.951 . S
C2786 C2787 1.366 . S
C2786 C2788 1.388 . S
C2787 C2786 1.366 . S
C2787 C2791 1.385 . S
C2788 H2769 0.951 . S
C2788 C2786 1.388 . S
C2788 C2789 1.366 . S
C2789 C2788 1.366 . S
C2789 C2790 1.414 . S
C2789 C2792 1.499 . S
C2790 H2770 0.950 . S
C2790 C2789 1.414 . S
C2790 C2791 1.374 . S
C2791 H2771 0.950 . S
C2791 C2787 1.385 . S
C2791 C2790 1.374 . S
C2792 C2789 1.499 . S
C2792 C2793 1.373 . S
C2792 C2794 1.389 . S
C2793 H2772 0.950 . S
C2793 C2792 1.373 . S
C2793 C2809 1.377 . S
C2794 C2792 1.389 . S
C2794 C2795 1.524 . S
C2794 C2808 1.377 . S
C2795 C2794 1.524 . S
C2795 C2796 1.397 . S
C2795 C2800 1.363 . S
C2796 H2773 0.950 . S
C2796 C2795 1.397 . S
C2796 C2797 1.334 . S
C2797 H2774 0.950 . S
C2797 C2796 1.334 . S
C2797 C2798 1.287 . S
C2798 C2797 1.287 . S
C2798 C2799 1.524 . S
C2798 H2817 0.913 . S
C2799 H2775 0.950 . S
C2799 C2798 1.524 . S
C2799 C2800 1.415 . S
C2800 H2776 0.950 . S
C2800 C2795 1.363 . S
C2800 C2799 1.415 . S
C2801 H2777 0.951 . S
C2801 C2802 1.366 . S
C2801 C2803 1.388 . S
C2802 C2801 1.366 . S
C2802 C2806 1.385 . S
C2803 H2778 0.951 . S
C2803 C2801 1.388 . S
C2803 C2804 1.366 . S
C2804 C2803 1.366 . S
C2804 C2805 1.414 . S
C2804 C2807 1.499 . S
C2805 H2779 0.950 . S
C2805 C2804 1.414 . S
C2805 C2806 1.374 . S
C2806 H2780 0.950 . S
C2806 C2802 1.385 . S
C2806 C2805 1.374 . S
C2807 C2804 1.499 . S
C2807 C2808 1.373 . S
C2807 C2809 1.389 . S
C2808 H2781 0.950 . S
C2808 C2794 1.377 . S
C2808 C2807 1.373 . S
C2809 C2793 1.377 . S
C2809 C2807 1.389 . S
C2809 C2810 1.524 . S
C2810 C2809 1.524 . S
C2810 C2811 1.397 . S
C2810 C2815 1.363 . S
C2811 H2782 0.950 . S
C2811 C2810 1.397 . S
C2811 C2812 1.334 . S
C2812 H2783 0.950 . S
C2812 C2811 1.334 . S
C2812 C2813 1.287 . S
C2813 C2812 1.287 . S
C2813 C2814 1.524 . S
C2813 H2816 0.999 . S
C2814 H2784 0.950 . S
C2814 C2813 1.524 . S
C2814 C2815 1.415 . S
C2815 H2785 0.950 . S
C2815 C2810 1.363 . S
C2815 C2814 1.415 . S
H2816 C2813 0.999 . S
H2817 C2798 0.913 . S
H2818 C2836 0.951 . S
H2819 C2838 0.951 . S
H2820 C2840 0.950 . S
H2821 C2841 0.950 . S
H2822 C2843 0.950 . S
H2823 C2846 0.950 . S
H2824 C2847 0.950 . S
H2825 C2849 0.950 . S
H2826 C2850 0.950 . S
H2827 C2851 0.951 . S
H2828 C2853 0.951 . S
H2829 C2855 0.950 . S
H2830 C2856 0.950 . S
H2831 C2858 0.950 . S
H2832 C2861 0.950 . S
H2833 C2862 0.950 . S
H2834 C2864 0.950 . S
H2835 C2865 0.950 . S
C2836 H2818 0.951 . S
C2836 C2837 1.366 . S
C2836 C2838 1.388 . S
C2837 C2836 1.366 . S
C2837 C2841 1.385 . S
C2838 H2819 0.951 . S
C2838 C2836 1.388 . S
C2838 C2839 1.366 . S
C2839 C2838 1.366 . S
C2839 C2840 1.414 . S
C2839 C2842 1.499 . S
C2840 H2820 0.950 . S
C2840 C2839 1.414 . S
C2840 C2841 1.374 . S
C2841 H2821 0.950 . S
C2841 C2837 1.385 . S
C2841 C2840 1.374 . S
C2842 C2839 1.499 . S
C2842 C2843 1.373 . S
C2842 C2844 1.389 . S
C2843 H2822 0.950 . S
C2843 C2842 1.373 . S
C2843 C2859 1.377 . S
C2844 C2842 1.389 . S
C2844 C2845 1.524 . S
C2844 C2858 1.377 . S
C2845 C2844 1.524 . S
C2845 C2846 1.397 . S
C2845 C2850 1.363 . S
C2846 H2823 0.950 . S
C2846 C2845 1.397 . S
C2846 C2847 1.334 . S
C2847 H2824 0.950 . S
C2847 C2846 1.334 . S
C2847 C2848 1.287 . S
C2848 C2847 1.287 . S
C2848 C2849 1.524 . S
C2848 H2867 0.913 . S
C2849 H2825 0.950 . S
C2849 C2848 1.524 . S
C2849 C2850 1.415 . S
C2850 H2826 0.950 . S
C2850 C2845 1.363 . S
C2850 C2849 1.415 . S
C2851 H2827 0.951 . S
C2851 C2852 1.366 . S
C2851 C2853 1.388 . S
C2852 C2851 1.366 . S
C2852 C2856 1.385 . S
C2853 H2828 0.951 . S
C2853 C2851 1.388 . S
C2853 C2854 1.366 . S
C2854 C2853 1.366 . S
C2854 C2855 1.414 . S
C2854 C2857 1.499 . S
C2855 H2829 0.950 . S
C2855 C2854 1.414 . S
C2855 C2856 1.374 . S
C2856 H2830 0.950 . S
C2856 C2852 1.385 . S
C2856 C2855 1.374 . S
C2857 C2854 1.499 . S
C2857 C2858 1.373 . S
C2857 C2859 1.389 . S
C2858 H2831 0.950 . S
C2858 C2844 1.377 . S
C2858 C2857 1.373 . S
C2859 C2843 1.377 . S
C2859 C2857 1.389 . S
C2859 C2860 1.524 . S
C2860 C2859 1.524 . S
C2860 C2861 1.397 . S
C2860 C2865 1.363 . S
C2861 H2832 0.950 . S
C2861 C2860 1.397 . S
C2861 C2862 1.334 . S
C2862 H2833 0.950 . S
C2862 C2861 1.334 . S
C2862 C2863 1.287 . S
C2863 C2862 1.287 . S
C2863 C2864 1.524 . S
C2863 H2866 0.999 . S
C2864 H2834 0.950 . S
C2864 C2863 1.524 . S
C2864 C2865 1.415 . S
C2865 H2835 0.950 . S
C2865 C2860 1.363 . S
C2865 C2864 1.415 . S
H2866 C2863 0.999 . S
H2867 C2848 0.913 . S
H2868 C2886 0.951 . S
H2869 C2888 0.951 . S
H2870 C2890 0.950 . S
H2871 C2891 0.950 . S
H2872 C2893 0.950 . S
H2873 C2896 0.950 . S
H2874 C2897 0.950 . S
H2875 C2899 0.950 . S
H2876 C2900 0.950 . S
H2877 C2901 0.951 . S
H2878 C2903 0.951 . S
H2879 C2905 0.950 . S
H2880 C2906 0.950 . S
H2881 C2908 0.950 . S
H2882 C2911 0.950 . S
H2883 C2912 0.950 . S
H2884 C2914 0.950 . S
H2885 C2915 0.950 . S
C2886 H2868 0.951 . S
C2886 C2887 1.366 . S
C2886 C2888 1.388 . S
C2887 C2886 1.366 . S
C2887 C2891 1.385 . S
C2888 H2869 0.951 . S
C2888 C2886 1.388 . S
C2888 C2889 1.366 . S
C2889 C2888 1.366 . S
C2889 C2890 1.414 . S
C2889 C2892 1.499 . S
C2890 H2870 0.950 . S
C2890 C2889 1.414 . S
C2890 C2891 1.374 . S
C2891 H2871 0.950 . S
C2891 C2887 1.385 . S
C2891 C2890 1.374 . S
C2892 C2889 1.499 . S
C2892 C2893 1.373 . S
C2892 C2894 1.389 . S
C2893 H2872 0.950 . S
C2893 C2892 1.373 . S
C2893 C2909 1.377 . S
C2894 C2892 1.389 . S
C2894 C2895 1.524 . S
C2894 C2908 1.377 . S
C2895 C2894 1.524 . S
C2895 C2896 1.397 . S
C2895 C2900 1.363 . S
C2896 H2873 0.950 . S
C2896 C2895 1.397 . S
C2896 C2897 1.334 . S
C2897 H2874 0.950 . S
C2897 C2896 1.334 . S
C2897 C2898 1.287 . S
C2898 C2897 1.287 . S
C2898 C2899 1.524 . S
C2898 H2917 0.913 . S
C2899 H2875 0.950 . S
C2899 C2898 1.524 . S
C2899 C2900 1.415 . S
C2900 H2876 0.950 . S
C2900 C2895 1.363 . S
C2900 C2899 1.415 . S
C2901 H2877 0.951 . S
C2901 C2902 1.366 . S
C2901 C2903 1.388 . S
C2902 C2901 1.366 . S
C2902 C2906 1.385 . S
C2903 H2878 0.951 . S
C2903 C2901 1.388 . S
C2903 C2904 1.366 . S
C2904 C2903 1.366 . S
C2904 C2905 1.414 . S
C2904 C2907 1.499 . S
C2905 H2879 0.950 . S
C2905 C2904 1.414 . S
C2905 C2906 1.374 . S
C2906 H2880 0.950 . S
C2906 C2902 1.385 . S
C2906 C2905 1.374 . S
C2907 C2904 1.499 . S
C2907 C2908 1.373 . S
C2907 C2909 1.389 . S
C2908 H2881 0.950 . S
C2908 C2894 1.377 . S
C2908 C2907 1.373 . S
C2909 C2893 1.377 . S
C2909 C2907 1.389 . S
C2909 C2910 1.524 . S
C2910 C2909 1.524 . S
C2910 C2911 1.397 . S
C2910 C2915 1.363 . S
C2911 H2882 0.950 . S
C2911 C2910 1.397 . S
C2911 C2912 1.334 . S
C2912 H2883 0.950 . S
C2912 C2911 1.334 . S
C2912 C2913 1.287 . S
C2913 C2912 1.287 . S
C2913 C2914 1.524 . S
C2913 H2916 0.999 . S
C2914 H2884 0.950 . S
C2914 C2913 1.524 . S
C2914 C2915 1.415 . S
C2915 H2885 0.950 . S
C2915 C2910 1.363 . S
C2915 C2914 1.415 . S
H2916 C2913 0.999 . S
H2917 C2898 0.913 . S
H2918 C2936 0.951 . S
H2919 C2938 0.951 . S
H2920 C2940 0.950 . S
H2921 C2941 0.950 . S
H2922 C2943 0.950 . S
H2923 C2946 0.950 . S
H2924 C2947 0.950 . S
H2925 C2949 0.950 . S
H2926 C2950 0.950 . S
H2927 C2951 0.951 . S
H2928 C2953 0.951 . S
H2929 C2955 0.950 . S
H2930 C2956 0.950 . S
H2931 C2958 0.950 . S
H2932 C2961 0.950 . S
H2933 C2962 0.950 . S
H2934 C2964 0.950 . S
H2935 C2965 0.950 . S
C2936 H2918 0.951 . S
C2936 C2937 1.366 . S
C2936 C2938 1.388 . S
C2937 C2936 1.366 . S
C2937 C2941 1.385 . S
C2938 H2919 0.951 . S
C2938 C2936 1.388 . S
C2938 C2939 1.366 . S
C2939 C2938 1.366 . S
C2939 C2940 1.414 . S
C2939 C2942 1.499 . S
C2940 H2920 0.950 . S
C2940 C2939 1.414 . S
C2940 C2941 1.374 . S
C2941 H2921 0.950 . S
C2941 C2937 1.385 . S
C2941 C2940 1.374 . S
C2942 C2939 1.499 . S
C2942 C2943 1.373 . S
C2942 C2944 1.389 . S
C2943 H2922 0.950 . S
C2943 C2942 1.373 . S
C2943 C2959 1.377 . S
C2944 C2942 1.389 . S
C2944 C2945 1.524 . S
C2944 C2958 1.377 . S
C2945 C2944 1.524 . S
C2945 C2946 1.397 . S
C2945 C2950 1.363 . S
C2946 H2923 0.950 . S
C2946 C2945 1.397 . S
C2946 C2947 1.334 . S
C2947 H2924 0.950 . S
C2947 C2946 1.334 . S
C2947 C2948 1.287 . S
C2948 C2947 1.287 . S
C2948 C2949 1.524 . S
C2948 H2967 0.913 . S
C2949 H2925 0.950 . S
C2949 C2948 1.524 . S
C2949 C2950 1.415 . S
C2950 H2926 0.950 . S
C2950 C2945 1.363 . S
C2950 C2949 1.415 . S
C2951 H2927 0.951 . S
C2951 C2952 1.366 . S
C2951 C2953 1.388 . S
C2952 C2951 1.366 . S
C2952 C2956 1.385 . S
C2953 H2928 0.951 . S
C2953 C2951 1.388 . S
C2953 C2954 1.366 . S
C2954 C2953 1.366 . S
C2954 C2955 1.414 . S
C2954 C2957 1.499 . S
C2955 H2929 0.950 . S
C2955 C2954 1.414 . S
C2955 C2956 1.374 . S
C2956 H2930 0.950 . S
C2956 C2952 1.385 . S
C2956 C2955 1.374 . S
C2957 C2954 1.499 . S
C2957 C2958 1.373 . S
C2957 C2959 1.389 . S
C2958 H2931 0.950 . S
C2958 C2944 1.377 . S
C2958 C2957 1.373 . S
C2959 C2943 1.377 . S
C2959 C2957 1.389 . S
C2959 C2960 1.524 . S
C2960 C2959 1.524 . S
C2960 C2961 1.397 . S
C2960 C2965 1.363 . S
C2961 H2932 0.950 . S
C2961 C2960 1.397 . S
C2961 C2962 1.334 . S
C2962 H2933 0.950 . S
C2962 C2961 1.334 . S
C2962 C2963 1.287 . S
C2963 C2962 1.287 . S
C2963 C2964 1.524 . S
C2963 H2966 0.999 . S
C2964 H2934 0.950 . S
C2964 C2963 1.524 . S
C2964 C2965 1.415 . S
C2965 H2935 0.950 . S
C2965 C2960 1.363 . S
C2965 C2964 1.415 . S
H2966 C2963 0.999 . S
H2967 C2948 0.913 . S
H2968 C2986 0.951 . S
H2969 C2988 0.951 . S
H2970 C2990 0.950 . S
H2971 C2991 0.950 . S
H2972 C2993 0.950 . S
H2973 C2996 0.950 . S
H2974 C2997 0.950 . S
H2975 C2999 0.950 . S
H2976 C3000 0.950 . S
H2977 C3001 0.951 . S
H2978 C3003 0.951 . S
H2979 C3005 0.950 . S
H2980 C3006 0.950 . S
H2981 C3008 0.950 . S
H2982 C3011 0.950 . S
H2983 C3012 0.950 . S
H2984 C3014 0.950 . S
H2985 C3015 0.950 . S
C2986 H2968 0.951 . S
C2986 C2987 1.366 . S
C2986 C2988 1.388 . S
C2987 C2986 1.366 . S
C2987 C2991 1.385 . S
C2988 H2969 0.951 . S
C2988 C2986 1.388 . S
C2988 C2989 1.366 . S
C2989 C2988 1.366 . S
C2989 C2990 1.414 . S
C2989 C2992 1.499 . S
C2990 H2970 0.950 . S
C2990 C2989 1.414 . S
C2990 C2991 1.374 . S
C2991 H2971 0.950 . S
C2991 C2987 1.385 . S
C2991 C2990 1.374 . S
C2992 C2989 1.499 . S
C2992 C2993 1.373 . S
C2992 C2994 1.389 . S
C2993 H2972 0.950 . S
C2993 C2992 1.373 . S
C2993 C3009 1.377 . S
C2994 C2992 1.389 . S
C2994 C2995 1.524 . S
C2994 C3008 1.377 . S
C2995 C2994 1.524 . S
C2995 C2996 1.397 . S
C2995 C3000 1.363 . S
C2996 H2973 0.950 . S
C2996 C2995 1.397 . S
C2996 C2997 1.334 . S
C2997 H2974 0.950 . S
C2997 C2996 1.334 . S
C2997 C2998 1.287 . S
C2998 C2997 1.287 . S
C2998 C2999 1.524 . S
C2998 H3017 0.913 . S
C2999 H2975 0.950 . S
C2999 C2998 1.524 . S
C2999 C3000 1.415 . S
C3000 H2976 0.950 . S
C3000 C2995 1.363 . S
C3000 C2999 1.415 . S
C3001 H2977 0.951 . S
C3001 C3002 1.366 . S
C3001 C3003 1.388 . S
C3002 C3001 1.366 . S
C3002 C3006 1.385 . S
C3003 H2978 0.951 . S
C3003 C3001 1.388 . S
C3003 C3004 1.366 . S
C3004 C3003 1.366 . S
C3004 C3005 1.414 . S
C3004 C3007 1.499 . S
C3005 H2979 0.950 . S
C3005 C3004 1.414 . S
C3005 C3006 1.374 . S
C3006 H2980 0.950 . S
C3006 C3002 1.385 . S
C3006 C3005 1.374 . S
C3007 C3004 1.499 . S
C3007 C3008 1.373 . S
C3007 C3009 1.389 . S
C3008 H2981 0.950 . S
C3008 C2994 1.377 . S
C3008 C3007 1.373 . S
C3009 C2993 1.377 . S
C3009 C3007 1.389 . S
C3009 C3010 1.524 . S
C3010 C3009 1.524 . S
C3010 C3011 1.397 . S
C3010 C3015 1.363 . S
C3011 H2982 0.950 . S
C3011 C3010 1.397 . S
C3011 C3012 1.334 . S
C3012 H2983 0.950 . S
C3012 C3011 1.334 . S
C3012 C3013 1.287 . S
C3013 C3012 1.287 . S
C3013 C3014 1.524 . S
C3013 H3016 0.999 . S
C3014 H2984 0.950 . S
C3014 C3013 1.524 . S
C3014 C3015 1.415 . S
C3015 H2985 0.950 . S
C3015 C3010 1.363 . S
C3015 C3014 1.415 . S
H3016 C3013 0.999 . S
H3017 C2998 0.913 . S
H3018 C3036 0.951 . S
H3019 C3038 0.951 . S
H3020 C3040 0.950 . S
H3021 C3041 0.950 . S
H3022 C3043 0.950 . S
H3023 C3046 0.950 . S
H3024 C3047 0.950 . S
H3025 C3049 0.950 . S
H3026 C3050 0.950 . S
H3027 C3051 0.951 . S
H3028 C3053 0.951 . S
H3029 C3055 0.950 . S
H3030 C3056 0.950 . S
H3031 C3058 0.950 . S
H3032 C3061 0.950 . S
H3033 C3062 0.950 . S
H3034 C3064 0.950 . S
H3035 C3065 0.950 . S
C3036 H3018 0.951 . S
C3036 C3037 1.366 . S
C3036 C3038 1.388 . S
C3037 C3036 1.366 . S
C3037 C3041 1.385 . S
C3038 H3019 0.951 . S
C3038 C3036 1.388 . S
C3038 C3039 1.366 . S
C3039 C3038 1.366 . S
C3039 C3040 1.414 . S
C3039 C3042 1.499 . S
C3040 H3020 0.950 . S
C3040 C3039 1.414 . S
C3040 C3041 1.374 . S
C3041 H3021 0.950 . S
C3041 C3037 1.385 . S
C3041 C3040 1.374 . S
C3042 C3039 1.499 . S
C3042 C3043 1.373 . S
C3042 C3044 1.389 . S
C3043 H3022 0.950 . S
C3043 C3042 1.373 . S
C3043 C3059 1.377 . S
C3044 C3042 1.389 . S
C3044 C3045 1.524 . S
C3044 C3058 1.377 . S
C3045 C3044 1.524 . S
C3045 C3046 1.397 . S
C3045 C3050 1.363 . S
C3046 H3023 0.950 . S
C3046 C3045 1.397 . S
C3046 C3047 1.334 . S
C3047 H3024 0.950 . S
C3047 C3046 1.334 . S
C3047 C3048 1.287 . S
C3048 C3047 1.287 . S
C3048 C3049 1.524 . S
C3048 H3067 0.913 . S
C3049 H3025 0.950 . S
C3049 C3048 1.524 . S
C3049 C3050 1.415 . S
C3050 H3026 0.950 . S
C3050 C3045 1.363 . S
C3050 C3049 1.415 . S
C3051 H3027 0.951 . S
C3051 C3052 1.366 . S
C3051 C3053 1.388 . S
C3052 C3051 1.366 . S
C3052 C3056 1.385 . S
C3053 H3028 0.951 . S
C3053 C3051 1.388 . S
C3053 C3054 1.366 . S
C3054 C3053 1.366 . S
C3054 C3055 1.414 . S
C3054 C3057 1.499 . S
C3055 H3029 0.950 . S
C3055 C3054 1.414 . S
C3055 C3056 1.374 . S
C3056 H3030 0.950 . S
C3056 C3052 1.385 . S
C3056 C3055 1.374 . S
C3057 C3054 1.499 . S
C3057 C3058 1.373 . S
C3057 C3059 1.389 . S
C3058 H3031 0.950 . S
C3058 C3044 1.377 . S
C3058 C3057 1.373 . S
C3059 C3043 1.377 . S
C3059 C3057 1.389 . S
C3059 C3060 1.524 . S
C3060 C3059 1.524 . S
C3060 C3061 1.397 . S
C3060 C3065 1.363 . S
C3061 H3032 0.950 . S
C3061 C3060 1.397 . S
C3061 C3062 1.334 . S
C3062 H3033 0.950 . S
C3062 C3061 1.334 . S
C3062 C3063 1.287 . S
C3063 C3062 1.287 . S
C3063 C3064 1.524 . S
C3063 H3066 0.999 . S
C3064 H3034 0.950 . S
C3064 C3063 1.524 . S
C3064 C3065 1.415 . S
C3065 H3035 0.950 . S
C3065 C3060 1.363 . S
C3065 C3064 1.415 . S
H3066 C3063 0.999 . S
H3067 C3048 0.913 . S
H3068 C3086 0.951 . S
H3069 C3088 0.951 . S
H3070 C3090 0.950 . S
H3071 C3091 0.950 . S
H3072 C3093 0.950 . S
H3073 C3096 0.950 . S
H3074 C3097 0.950 . S
H3075 C3099 0.950 . S
H3076 C3100 0.950 . S
H3077 C3101 0.951 . S
H3078 C3103 0.951 . S
H3079 C3105 0.950 . S
H3080 C3106 0.950 . S
H3081 C3108 0.950 . S
H3082 C3111 0.950 . S
H3083 C3112 0.950 . S
H3084 C3114 0.950 . S
H3085 C3115 0.950 . S
C3086 H3068 0.951 . S
C3086 C3087 1.366 . S
C3086 C3088 1.388 . S
C3087 C3086 1.366 . S
C3087 C3091 1.385 . S
C3088 H3069 0.951 . S
C3088 C3086 1.388 . S
C3088 C3089 1.366 . S
C3089 C3088 1.366 . S
C3089 C3090 1.414 . S
C3089 C3092 1.499 . S
C3090 H3070 0.950 . S
C3090 C3089 1.414 . S
C3090 C3091 1.374 . S
C3091 H3071 0.950 . S
C3091 C3087 1.385 . S
C3091 C3090 1.374 . S
C3092 C3089 1.499 . S
C3092 C3093 1.373 . S
C3092 C3094 1.389 . S
C3093 H3072 0.950 . S
C3093 C3092 1.373 . S
C3093 C3109 1.377 . S
C3094 C3092 1.389 . S
C3094 C3095 1.524 . S
C3094 C3108 1.377 . S
C3095 C3094 1.524 . S
C3095 C3096 1.397 . S
C3095 C3100 1.363 . S
C3096 H3073 0.950 . S
C3096 C3095 1.397 . S
C3096 C3097 1.334 . S
C3097 H3074 0.950 . S
C3097 C3096 1.334 . S
C3097 C3098 1.287 . S
C3098 C3097 1.287 . S
C3098 C3099 1.524 . S
C3098 H3117 0.913 . S
C3099 H3075 0.950 . S
C3099 C3098 1.524 . S
C3099 C3100 1.415 . S
C3100 H3076 0.950 . S
C3100 C3095 1.363 . S
C3100 C3099 1.415 . S
C3101 H3077 0.951 . S
C3101 C3102 1.366 . S
C3101 C3103 1.388 . S
C3102 C3101 1.366 . S
C3102 C3106 1.385 . S
C3103 H3078 0.951 . S
C3103 C3101 1.388 . S
C3103 C3104 1.366 . S
C3104 C3103 1.366 . S
C3104 C3105 1.414 . S
C3104 C3107 1.499 . S
C3105 H3079 0.950 . S
C3105 C3104 1.414 . S
C3105 C3106 1.374 . S
C3106 H3080 0.950 . S
C3106 C3102 1.385 . S
C3106 C3105 1.374 . S
C3107 C3104 1.499 . S
C3107 C3108 1.373 . S
C3107 C3109 1.389 . S
C3108 H3081 0.950 . S
C3108 C3094 1.377 . S
C3108 C3107 1.373 . S
C3109 C3093 1.377 . S
C3109 C3107 1.389 . S
C3109 C3110 1.524 . S
C3110 C3109 1.524 . S
C3110 C3111 1.397 . S
C3110 C3115 1.363 . S
C3111 H3082 0.950 . S
C3111 C3110 1.397 . S
C3111 C3112 1.334 . S
C3112 H3083 0.950 . S
C3112 C3111 1.334 . S
C3112 C3113 1.287 . S
C3113 C3112 1.287 . S
C3113 C3114 1.524 . S
C3113 H3116 0.999 . S
C3114 H3084 0.950 . S
C3114 C3113 1.524 . S
C3114 C3115 1.415 . S
C3115 H3085 0.950 . S
C3115 C3110 1.363 . S
C3115 C3114 1.415 . S
H3116 C3113 0.999 . S
H3117 C3098 0.913 . S
H3118 C3136 0.951 . S
H3119 C3138 0.951 . S
H3120 C3140 0.950 . S
H3121 C3141 0.950 . S
H3122 C3143 0.950 . S
H3123 C3146 0.950 . S
H3124 C3147 0.950 . S
H3125 C3149 0.950 . S
H3126 C3150 0.950 . S
H3127 C3151 0.951 . S
H3128 C3153 0.951 . S
H3129 C3155 0.950 . S
H3130 C3156 0.950 . S
H3131 C3158 0.950 . S
H3132 C3161 0.950 . S
H3133 C3162 0.950 . S
H3134 C3164 0.950 . S
H3135 C3165 0.950 . S
C3136 H3118 0.951 . S
C3136 C3137 1.366 . S
C3136 C3138 1.388 . S
C3137 C3136 1.366 . S
C3137 C3141 1.385 . S
C3138 H3119 0.951 . S
C3138 C3136 1.388 . S
C3138 C3139 1.366 . S
C3139 C3138 1.366 . S
C3139 C3140 1.414 . S
C3139 C3142 1.499 . S
C3140 H3120 0.950 . S
C3140 C3139 1.414 . S
C3140 C3141 1.374 . S
C3141 H3121 0.950 . S
C3141 C3137 1.385 . S
C3141 C3140 1.374 . S
C3142 C3139 1.499 . S
C3142 C3143 1.373 . S
C3142 C3144 1.389 . S
C3143 H3122 0.950 . S
C3143 C3142 1.373 . S
C3143 C3159 1.377 . S
C3144 C3142 1.389 . S
C3144 C3145 1.524 . S
C3144 C3158 1.377 . S
C3145 C3144 1.524 . S
C3145 C3146 1.397 . S
C3145 C3150 1.363 . S
C3146 H3123 0.950 . S
C3146 C3145 1.397 . S
C3146 C3147 1.334 . S
C3147 H3124 0.950 . S
C3147 C3146 1.334 . S
C3147 C3148 1.287 . S
C3148 C3147 1.287 . S
C3148 C3149 1.524 . S
C3148 H3167 0.913 . S
C3149 H3125 0.950 . S
C3149 C3148 1.524 . S
C3149 C3150 1.415 . S
C3150 H3126 0.950 . S
C3150 C3145 1.363 . S
C3150 C3149 1.415 . S
C3151 H3127 0.951 . S
C3151 C3152 1.366 . S
C3151 C3153 1.388 . S
C3152 C3151 1.366 . S
C3152 C3156 1.385 . S
C3153 H3128 0.951 . S
C3153 C3151 1.388 . S
C3153 C3154 1.366 . S
C3154 C3153 1.366 . S
C3154 C3155 1.414 . S
C3154 C3157 1.499 . S
C3155 H3129 0.950 . S
C3155 C3154 1.414 . S
C3155 C3156 1.374 . S
C3156 H3130 0.950 . S
C3156 C3152 1.385 . S
C3156 C3155 1.374 . S
C3157 C3154 1.499 . S
C3157 C3158 1.373 . S
C3157 C3159 1.389 . S
C3158 H3131 0.950 . S
C3158 C3144 1.377 . S
C3158 C3157 1.373 . S
C3159 C3143 1.377 . S
C3159 C3157 1.389 . S
C3159 C3160 1.524 . S
C3160 C3159 1.524 . S
C3160 C3161 1.397 . S
C3160 C3165 1.363 . S
C3161 H3132 0.950 . S
C3161 C3160 1.397 . S
C3161 C3162 1.334 . S
C3162 H3133 0.950 . S
C3162 C3161 1.334 . S
C3162 C3163 1.287 . S
C3163 C3162 1.287 . S
C3163 C3164 1.524 . S
C3163 H3166 0.999 . S
C3164 H3134 0.950 . S
C3164 C3163 1.524 . S
C3164 C3165 1.415 . S
C3165 H3135 0.950 . S
C3165 C3160 1.363 . S
C3165 C3164 1.415 . S
H3166 C3163 0.999 . S
H3167 C3148 0.913 . S
H3168 C3186 0.951 . S
H3169 C3188 0.951 . S
H3170 C3190 0.950 . S
H3171 C3191 0.950 . S
H3172 C3193 0.950 . S
H3173 C3196 0.950 . S
H3174 C3197 0.950 1_556 S
H3175 C3199 0.950 . S
H3176 C3200 0.950 . S
H3177 C3201 0.951 . S
H3178 C3203 0.951 . S
H3179 C3205 0.950 . S
H3180 C3206 0.950 . S
H3181 C3208 0.950 . S
H3182 C3211 0.950 . S
H3183 C3212 0.950 . S
H3184 C3214 0.950 . S
H3185 C3215 0.950 . S
C3186 H3168 0.951 . S
C3186 C3187 1.366 . S
C3186 C3188 1.388 . S
C3187 C3186 1.366 . S
C3187 C3191 1.385 . S
C3188 H3169 0.951 . S
C3188 C3186 1.388 . S
C3188 C3189 1.366 . S
C3189 C3188 1.366 . S
C3189 C3190 1.414 . S
C3189 C3192 1.499 . S
C3190 H3170 0.950 . S
C3190 C3189 1.414 . S
C3190 C3191 1.374 . S
C3191 H3171 0.950 . S
C3191 C3187 1.385 . S
C3191 C3190 1.374 . S
C3192 C3189 1.499 . S
C3192 C3193 1.373 . S
C3192 C3194 1.389 . S
C3193 H3172 0.950 . S
C3193 C3192 1.373 . S
C3193 C3209 1.377 . S
C3194 C3192 1.389 . S
C3194 C3195 1.524 . S
C3194 C3208 1.377 . S
C3195 C3194 1.524 . S
C3195 C3196 1.397 . S
C3195 C3200 1.363 . S
C3196 H3173 0.950 . S
C3196 C3195 1.397 . S
C3196 C3197 1.334 . S
C3197 H3174 0.950 1_554 S
C3197 C3196 1.334 . S
C3197 C3198 1.287 . S
C3198 C3197 1.287 . S
C3198 C3199 1.524 . S
C3198 H3217 0.952 . S
C3199 H3175 0.950 . S
C3199 C3198 1.524 . S
C3199 C3200 1.415 . S
C3200 H3176 0.950 . S
C3200 C3195 1.363 . S
C3200 C3199 1.415 . S
C3201 H3177 0.951 . S
C3201 C3202 1.366 . S
C3201 C3203 1.388 . S
C3202 C3201 1.366 . S
C3202 C3206 1.385 . S
C3203 H3178 0.951 . S
C3203 C3201 1.388 . S
C3203 C3204 1.366 . S
C3204 C3203 1.366 . S
C3204 C3205 1.414 . S
C3204 C3207 1.499 . S
C3205 H3179 0.950 . S
C3205 C3204 1.414 . S
C3205 C3206 1.374 . S
C3206 H3180 0.950 . S
C3206 C3202 1.385 . S
C3206 C3205 1.374 . S
C3207 C3204 1.499 . S
C3207 C3208 1.373 . S
C3207 C3209 1.389 . S
C3208 H3181 0.950 . S
C3208 C3194 1.377 . S
C3208 C3207 1.373 . S
C3209 C3193 1.377 . S
C3209 C3207 1.389 . S
C3209 C3210 1.524 . S
C3210 C3209 1.524 . S
C3210 C3211 1.397 . S
C3210 C3215 1.363 . S
C3211 H3182 0.950 . S
C3211 C3210 1.397 . S
C3211 C3212 1.334 . S
C3212 H3183 0.950 . S
C3212 C3211 1.334 . S
C3212 C3213 1.287 . S
C3213 C3212 1.287 . S
C3213 C3214 1.524 . S
C3213 H3216 0.999 . S
C3214 H3184 0.950 . S
C3214 C3213 1.524 . S
C3214 C3215 1.415 . S
C3215 H3185 0.950 . S
C3215 C3210 1.363 . S
C3215 C3214 1.415 . S
H3216 C3213 0.999 . S
H3217 C3198 0.952 . S
H3218 C3236 0.951 . S
H3219 C3238 0.951 . S
H3220 C3240 0.950 . S
H3221 C3241 0.950 . S
H3222 C3243 0.950 . S
H3223 C3246 0.950 . S
H3224 C3247 0.950 . S
H3225 C3249 0.950 . S
H3226 C3250 0.950 . S
H3227 C3251 0.951 . S
H3228 C3253 0.951 . S
H3229 C3255 0.950 . S
H3230 C3256 0.950 . S
H3231 C3258 0.950 . S
H3232 C3261 0.950 . S
H3233 C3262 0.950 . S
H3234 C3264 0.950 . S
H3235 C3265 0.950 . S
C3236 H3218 0.951 . S
C3236 C3237 1.366 . S
C3236 C3238 1.388 . S
C3237 C3236 1.366 . S
C3237 C3241 1.385 . S
C3238 H3219 0.951 . S
C3238 C3236 1.388 . S
C3238 C3239 1.366 . S
C3239 C3238 1.366 . S
C3239 C3240 1.414 . S
C3239 C3242 1.499 . S
C3240 H3220 0.950 . S
C3240 C3239 1.414 . S
C3240 C3241 1.374 . S
C3241 H3221 0.950 . S
C3241 C3237 1.385 . S
C3241 C3240 1.374 . S
C3242 C3239 1.499 . S
C3242 C3243 1.373 . S
C3242 C3244 1.389 . S
C3243 H3222 0.950 . S
C3243 C3242 1.373 . S
C3243 C3259 1.377 . S
C3244 C3242 1.389 . S
C3244 C3245 1.524 . S
C3244 C3258 1.377 . S
C3245 C3244 1.524 . S
C3245 C3246 1.397 . S
C3245 C3250 1.363 . S
C3246 H3223 0.950 . S
C3246 C3245 1.397 . S
C3246 C3247 1.334 . S
C3247 H3224 0.950 . S
C3247 C3246 1.334 . S
C3247 C3248 1.287 . S
C3248 C3247 1.287 . S
C3248 C3249 1.524 . S
C3248 H3267 0.913 . S
C3249 H3225 0.950 . S
C3249 C3248 1.524 . S
C3249 C3250 1.415 . S
C3250 H3226 0.950 . S
C3250 C3245 1.363 . S
C3250 C3249 1.415 . S
C3251 H3227 0.951 . S
C3251 C3252 1.366 . S
C3251 C3253 1.388 . S
C3252 C3251 1.366 . S
C3252 C3256 1.385 . S
C3253 H3228 0.951 . S
C3253 C3251 1.388 . S
C3253 C3254 1.366 . S
C3254 C3253 1.366 . S
C3254 C3255 1.414 . S
C3254 C3257 1.499 . S
C3255 H3229 0.950 . S
C3255 C3254 1.414 . S
C3255 C3256 1.374 . S
C3256 H3230 0.950 . S
C3256 C3252 1.385 . S
C3256 C3255 1.374 . S
C3257 C3254 1.499 . S
C3257 C3258 1.373 . S
C3257 C3259 1.389 . S
C3258 H3231 0.950 . S
C3258 C3244 1.377 . S
C3258 C3257 1.373 . S
C3259 C3243 1.377 . S
C3259 C3257 1.389 . S
C3259 C3260 1.524 . S
C3260 C3259 1.524 . S
C3260 C3261 1.397 . S
C3260 C3265 1.363 . S
C3261 H3232 0.950 . S
C3261 C3260 1.397 . S
C3261 C3262 1.334 . S
C3262 H3233 0.950 . S
C3262 C3261 1.334 . S
C3262 C3263 1.287 . S
C3263 C3262 1.287 . S
C3263 C3264 1.524 . S
C3263 H3266 0.999 . S
C3264 H3234 0.950 . S
C3264 C3263 1.524 . S
C3264 C3265 1.415 . S
C3265 H3235 0.950 . S
C3265 C3260 1.363 . S
C3265 C3264 1.415 . S
H3266 C3263 0.999 . S
H3267 C3248 0.913 . S
H3268 C3286 0.951 . S
H3269 C3288 0.951 . S
H3270 C3290 0.950 . S
H3271 C3291 0.950 . S
H3272 C3293 0.950 . S
H3273 C3296 0.950 . S
H3274 C3297 0.950 . S
H3275 C3299 0.950 . S
H3276 C3300 0.950 . S
H3277 C3301 0.951 . S
H3278 C3303 0.951 . S
H3279 C3305 0.950 . S
H3280 C3306 0.950 . S
H3281 C3308 0.950 . S
H3282 C3311 0.950 . S
H3283 C3312 0.950 . S
H3284 C3314 0.950 . S
H3285 C3315 0.950 . S
C3286 H3268 0.951 . S
C3286 C3287 1.366 . S
C3286 C3288 1.388 . S
C3287 C3286 1.366 . S
C3287 C3291 1.385 . S
C3288 H3269 0.951 . S
C3288 C3286 1.388 . S
C3288 C3289 1.366 . S
C3289 C3288 1.366 . S
C3289 C3290 1.414 . S
C3289 C3292 1.499 . S
C3290 H3270 0.950 . S
C3290 C3289 1.414 . S
C3290 C3291 1.374 . S
C3291 H3271 0.950 . S
C3291 C3287 1.385 . S
C3291 C3290 1.374 . S
C3292 C3289 1.499 . S
C3292 C3293 1.373 . S
C3292 C3294 1.389 . S
C3293 H3272 0.950 . S
C3293 C3292 1.373 . S
C3293 C3309 1.377 . S
C3294 C3292 1.389 . S
C3294 C3295 1.524 . S
C3294 C3308 1.377 . S
C3295 C3294 1.524 . S
C3295 C3296 1.397 . S
C3295 C3300 1.363 . S
C3296 H3273 0.950 . S
C3296 C3295 1.397 . S
C3296 C3297 1.334 . S
C3297 H3274 0.950 . S
C3297 C3296 1.334 . S
C3297 C3298 1.287 . S
C3298 C3297 1.287 . S
C3298 C3299 1.524 . S
C3298 H3317 0.913 . S
C3299 H3275 0.950 . S
C3299 C3298 1.524 . S
C3299 C3300 1.415 . S
C3300 H3276 0.950 . S
C3300 C3295 1.363 . S
C3300 C3299 1.415 . S
C3301 H3277 0.951 . S
C3301 C3302 1.366 . S
C3301 C3303 1.388 . S
C3302 C3301 1.366 . S
C3302 C3306 1.385 . S
C3303 H3278 0.951 . S
C3303 C3301 1.388 . S
C3303 C3304 1.366 . S
C3304 C3303 1.366 . S
C3304 C3305 1.414 . S
C3304 C3307 1.499 . S
C3305 H3279 0.950 . S
C3305 C3304 1.414 . S
C3305 C3306 1.374 . S
C3306 H3280 0.950 . S
C3306 C3302 1.385 . S
C3306 C3305 1.374 . S
C3307 C3304 1.499 . S
C3307 C3308 1.373 . S
C3307 C3309 1.389 . S
C3308 H3281 0.950 . S
C3308 C3294 1.377 . S
C3308 C3307 1.373 . S
C3309 C3293 1.377 . S
C3309 C3307 1.389 . S
C3309 C3310 1.524 . S
C3310 C3309 1.524 . S
C3310 C3311 1.397 . S
C3310 C3315 1.363 . S
C3311 H3282 0.950 . S
C3311 C3310 1.397 . S
C3311 C3312 1.334 . S
C3312 H3283 0.950 . S
C3312 C3311 1.334 . S
C3312 C3313 1.287 . S
C3313 C3312 1.287 . S
C3313 C3314 1.524 . S
C3313 H3316 0.999 . S
C3314 H3284 0.950 . S
C3314 C3313 1.524 . S
C3314 C3315 1.415 . S
C3315 H3285 0.950 . S
C3315 C3310 1.363 . S
C3315 C3314 1.415 . S
H3316 C3313 0.999 . S
H3317 C3298 0.913 . S
H3318 C3336 0.951 . S
H3319 C3338 0.951 . S
H3320 C3340 0.950 . S
H3321 C3341 0.950 . S
H3322 C3343 0.950 . S
H3323 C3346 0.950 . S
H3324 C3347 0.950 . S
H3325 C3349 0.950 1_554 S
H3326 C3350 0.943 1_554 S
H3327 C3351 0.951 . S
H3328 C3353 0.951 . S
H3329 C3355 0.950 . S
H3330 C3356 0.950 . S
H3331 C3358 0.950 . S
H3332 C3361 0.950 . S
H3333 C3362 0.950 . S
H3334 C3364 0.950 . S
H3335 C3365 0.950 . S
C3336 H3318 0.951 . S
C3336 C3337 1.366 1_554 S
C3336 C3338 1.388 . S
C3337 C3336 1.366 1_556 S
C3337 C3341 1.385 . S
C3338 H3319 0.951 . S
C3338 C3336 1.388 . S
C3338 C3339 1.366 1_554 S
C3339 C3338 1.366 1_556 S
C3339 C3340 1.414 . S
C3339 C3342 1.499 . S
C3340 H3320 0.950 . S
C3340 C3339 1.414 . S
C3340 C3341 1.374 . S
C3341 H3321 0.950 . S
C3341 C3337 1.385 . S
C3341 C3340 1.374 . S
C3342 C3339 1.499 . S
C3342 C3343 1.373 . S
C3342 C3344 1.389 . S
C3343 H3322 0.950 . S
C3343 C3342 1.373 . S
C3343 C3359 1.377 . S
C3344 C3342 1.389 . S
C3344 C3345 1.524 . S
C3344 C3358 1.377 . S
C3345 C3344 1.524 . S
C3345 C3346 1.397 . S
C3345 C3350 1.363 . S
C3346 H3323 0.950 . S
C3346 C3345 1.397 . S
C3346 C3347 1.334 . S
C3347 H3324 0.950 . S
C3347 C3346 1.334 . S
C3347 C3348 1.287 . S
C3348 C3347 1.287 . S
C3348 C3349 1.524 . S
C3348 H3367 0.913 . S
C3349 H3325 0.950 1_556 S
C3349 C3348 1.524 . S
C3349 C3350 1.415 . S
C3350 H3326 0.943 1_556 S
C3350 C3345 1.363 . S
C3350 C3349 1.415 . S
C3351 H3327 0.951 . S
C3351 C3352 1.366 . S
C3351 C3353 1.388 . S
C3352 C3351 1.366 . S
C3352 C3356 1.385 . S
C3353 H3328 0.951 . S
C3353 C3351 1.388 . S
C3353 C3354 1.366 . S
C3354 C3353 1.366 . S
C3354 C3355 1.414 . S
C3354 C3357 1.499 . S
C3355 H3329 0.950 . S
C3355 C3354 1.414 . S
C3355 C3356 1.374 . S
C3356 H3330 0.950 . S
C3356 C3352 1.385 . S
C3356 C3355 1.374 . S
C3357 C3354 1.499 . S
C3357 C3358 1.373 . S
C3357 C3359 1.389 . S
C3358 H3331 0.950 . S
C3358 C3344 1.377 . S
C3358 C3357 1.373 . S
C3359 C3343 1.377 . S
C3359 C3357 1.389 . S
C3359 C3360 1.524 . S
C3360 C3359 1.524 . S
C3360 C3361 1.397 . S
C3360 C3365 1.363 . S
C3361 H3332 0.950 . S
C3361 C3360 1.397 . S
C3361 C3362 1.334 . S
C3362 H3333 0.950 . S
C3362 C3361 1.334 . S
C3362 C3363 1.287 . S
C3363 C3362 1.287 . S
C3363 C3364 1.524 . S
C3363 H3366 0.999 . S
C3364 H3334 0.950 . S
C3364 C3363 1.524 . S
C3364 C3365 1.415 . S
C3365 H3335 0.950 . S
C3365 C3360 1.363 . S
C3365 C3364 1.415 . S
H3366 C3363 0.999 . S
H3367 C3348 0.913 . S
H3368 C3386 0.951 . S
H3369 C3388 0.951 . S
H3370 C3390 0.950 . S
H3371 C3391 0.950 1_554 S
H3372 C3393 0.950 1_554 S
H3373 C3396 0.950 . S
H3374 C3397 0.950 . S
H3375 C3399 0.950 . S
H3376 C3400 0.950 . S
H3377 C3401 0.951 . S
H3378 C3403 0.951 . S
H3379 C3405 0.950 . S
H3380 C3406 0.950 . S
H3381 C3408 0.950 . S
H3382 C3411 0.950 . S
H3383 C3412 0.950 . S
H3384 C3414 0.950 . S
H3385 C3415 0.969 . S
C3386 H3368 0.951 . S
C3386 C3387 1.366 1_556 S
C3386 C3388 1.388 . S
C3387 C3386 1.366 1_554 S
C3387 C3391 1.385 1_554 S
C3388 H3369 0.951 . S
C3388 C3386 1.388 . S
C3388 C3389 1.366 . S
C3389 C3388 1.366 . S
C3389 C3390 1.414 . S
C3389 C3392 1.499 . S
C3390 H3370 0.950 . S
C3390 C3389 1.414 . S
C3390 C3391 1.374 . S
C3391 H3371 0.950 1_556 S
C3391 C3387 1.385 1_556 S
C3391 C3390 1.374 . S
C3392 C3389 1.499 . S
C3392 C3393 1.373 . S
C3392 C3394 1.389 . S
C3393 H3372 0.950 1_556 S
C3393 C3392 1.373 . S
C3393 C3409 1.377 . S
C3394 C3392 1.389 . S
C3394 C3395 1.524 . S
C3394 C3408 1.377 . S
C3395 C3394 1.524 . S
C3395 C3396 1.397 . S
C3395 C3400 1.363 . S
C3396 H3373 0.950 . S
C3396 C3395 1.397 . S
C3396 C3397 1.334 . S
C3397 H3374 0.950 . S
C3397 C3396 1.334 . S
C3397 C3398 1.287 . S
C3398 C3397 1.287 . S
C3398 C3399 1.524 . S
C3398 H3417 0.913 . S
C3399 H3375 0.950 . S
C3399 C3398 1.524 . S
C3399 C3400 1.415 . S
C3400 H3376 0.950 . S
C3400 C3395 1.363 . S
C3400 C3399 1.415 . S
C3401 H3377 0.951 . S
C3401 C3402 1.366 . S
C3401 C3403 1.388 . S
C3402 C3401 1.366 . S
C3402 C3406 1.385 . S
C3403 H3378 0.951 . S
C3403 C3401 1.388 . S
C3403 C3404 1.366 . S
C3404 C3403 1.366 . S
C3404 C3405 1.414 . S
C3404 C3407 1.499 . S
C3405 H3379 0.950 . S
C3405 C3404 1.414 . S
C3405 C3406 1.374 . S
C3406 H3380 0.950 . S
C3406 C3402 1.385 . S
C3406 C3405 1.374 . S
C3407 C3404 1.499 . S
C3407 C3408 1.373 . S
C3407 C3409 1.389 . S
C3408 H3381 0.950 . S
C3408 C3394 1.377 . S
C3408 C3407 1.373 . S
C3409 C3393 1.377 . S
C3409 C3407 1.389 . S
C3409 C3410 1.524 . S
C3410 C3409 1.524 . S
C3410 C3411 1.397 1_556 S
C3410 C3415 1.363 1_556 S
C3411 H3382 0.950 . S
C3411 C3410 1.397 1_554 S
C3411 C3412 1.334 . S
C3412 H3383 0.950 . S
C3412 C3411 1.334 . S
C3412 C3413 1.287 . S
C3413 C3412 1.287 . S
C3413 C3414 1.524 . S
C3413 H3416 0.999 . S
C3414 H3384 0.950 . S
C3414 C3413 1.524 . S
C3414 C3415 1.415 . S
C3415 H3385 0.969 . S
C3415 C3410 1.363 1_554 S
C3415 C3414 1.415 . S
H3416 C3413 0.999 . S
H3417 C3398 0.913 . S
H3418 C3436 0.951 . S
H3419 C3438 0.951 . S
H3420 C3440 0.950 . S
H3421 C3441 0.950 . S
H3422 C3443 0.950 . S
H3423 C3446 0.950 . S
H3424 C3447 0.950 . S
H3425 C3449 0.950 . S
H3426 C3450 0.950 . S
H3427 C3451 0.951 . S
H3428 C3453 0.951 . S
H3429 C3455 0.950 . S
H3430 C3456 0.950 . S
H3431 C3458 0.950 . S
H3432 C3461 0.950 . S
H3433 C3462 0.950 . S
H3434 C3464 0.950 . S
H3435 C3465 0.950 . S
C3436 H3418 0.951 . S
C3436 C3437 1.366 . S
C3436 C3438 1.388 . S
C3437 C3436 1.366 . S
C3437 C3441 1.385 1_554 S
C3438 H3419 0.951 . S
C3438 C3436 1.388 . S
C3438 C3439 1.366 1_554 S
C3439 C3438 1.366 1_556 S
C3439 C3440 1.414 . S
C3439 C3442 1.499 . S
C3440 H3420 0.950 . S
C3440 C3439 1.414 . S
C3440 C3441 1.374 . S
C3441 H3421 0.950 . S
C3441 C3437 1.385 1_556 S
C3441 C3440 1.374 . S
C3442 C3439 1.499 . S
C3442 C3443 1.373 . S
C3442 C3444 1.389 . S
C3443 H3422 0.950 . S
C3443 C3442 1.373 . S
C3443 C3459 1.377 . S
C3444 C3442 1.389 . S
C3444 C3445 1.524 1_556 S
C3444 C3458 1.377 . S
C3445 C3444 1.524 1_554 S
C3445 C3446 1.397 . S
C3445 C3450 1.363 . S
C3446 H3423 0.950 . S
C3446 C3445 1.397 . S
C3446 C3447 1.334 . S
C3447 H3424 0.950 . S
C3447 C3446 1.334 . S
C3447 C3448 1.287 . S
C3448 C3447 1.287 . S
C3448 C3449 1.524 . S
C3448 H3467 0.913 . S
C3449 H3425 0.950 . S
C3449 C3448 1.524 . S
C3449 C3450 1.415 . S
C3450 H3426 0.950 . S
C3450 C3445 1.363 . S
C3450 C3449 1.415 . S
C3451 H3427 0.951 . S
C3451 C3452 1.366 . S
C3451 C3453 1.388 . S
C3452 C3451 1.366 . S
C3452 C3456 1.385 . S
C3453 H3428 0.951 . S
C3453 C3451 1.388 . S
C3453 C3454 1.366 . S
C3454 C3453 1.366 . S
C3454 C3455 1.414 . S
C3454 C3457 1.499 . S
C3455 H3429 0.950 . S
C3455 C3454 1.414 . S
C3455 C3456 1.374 . S
C3456 H3430 0.950 . S
C3456 C3452 1.385 . S
C3456 C3455 1.374 . S
C3457 C3454 1.499 . S
C3457 C3458 1.373 . S
C3457 C3459 1.389 . S
C3458 H3431 0.950 . S
C3458 C3444 1.377 . S
C3458 C3457 1.373 . S
C3459 C3443 1.377 . S
C3459 C3457 1.389 . S
C3459 C3460 1.524 . S
C3460 C3459 1.524 . S
C3460 C3461 1.397 . S
C3460 C3465 1.363 . S
C3461 H3432 0.950 . S
C3461 C3460 1.397 . S
C3461 C3462 1.334 . S
C3462 H3433 0.950 . S
C3462 C3461 1.334 . S
C3462 C3463 1.287 . S
C3463 C3462 1.287 . S
C3463 C3464 1.524 . S
C3463 H3466 0.999 . S
C3464 H3434 0.950 . S
C3464 C3463 1.524 . S
C3464 C3465 1.415 . S
C3465 H3435 0.950 . S
C3465 C3460 1.363 . S
C3465 C3464 1.415 . S
H3466 C3463 0.999 . S
H3467 C3448 0.913 . S
H3468 C3486 0.951 1_554 S
H3469 C3488 0.951 . S
H3470 C3490 0.950 . S
H3471 C3491 0.950 . S
H3472 C3493 0.950 . S
H3473 C3496 0.950 . S
H3474 C3497 0.950 . S
H3475 C3499 0.950 . S
H3476 C3500 0.950 . S
H3477 C3501 0.951 . S
H3478 C3503 0.951 . S
H3479 C3505 0.950 . S
H3480 C3506 0.950 . S
H3481 C3508 0.950 . S
H3482 C3511 0.950 . S
H3483 C3512 0.950 . S
H3484 C3514 0.950 . S
H3485 C3515 0.950 . S
C3486 H3468 0.951 1_556 S
C3486 C3487 1.366 . S
C3486 C3488 1.388 . S
C3487 C3486 1.366 . S
C3487 C3491 1.385 . S
C3488 H3469 0.951 . S
C3488 C3486 1.388 . S
C3488 C3489 1.366 . S
C3489 C3488 1.366 . S
C3489 C3490 1.414 . S
C3489 C3492 1.499 . S
C3490 H3470 0.950 . S
C3490 C3489 1.414 . S
C3490 C3491 1.374 . S
C3491 H3471 0.950 . S
C3491 C3487 1.385 . S
C3491 C3490 1.374 . S
C3492 C3489 1.499 . S
C3492 C3493 1.373 . S
C3492 C3494 1.389 . S
C3493 H3472 0.950 . S
C3493 C3492 1.373 . S
C3493 C3509 1.377 . S
C3494 C3492 1.389 . S
C3494 C3495 1.524 . S
C3494 C3508 1.377 . S
C3495 C3494 1.524 . S
C3495 C3496 1.397 . S
C3495 C3500 1.363 . S
C3496 H3473 0.950 . S
C3496 C3495 1.397 . S
C3496 C3497 1.334 . S
C3497 H3474 0.950 . S
C3497 C3496 1.334 . S
C3497 C3498 1.287 . S
C3498 C3497 1.287 . S
C3498 C3499 1.524 . S
C3498 H3517 0.913 . S
C3499 H3475 0.950 . S
C3499 C3498 1.524 . S
C3499 C3500 1.415 . S
C3500 H3476 0.950 . S
C3500 C3495 1.363 . S
C3500 C3499 1.415 . S
C3501 H3477 0.951 . S
C3501 C3502 1.366 . S
C3501 C3503 1.388 . S
C3502 C3501 1.366 . S
C3502 C3506 1.385 . S
C3503 H3478 0.951 . S
C3503 C3501 1.388 . S
C3503 C3504 1.366 . S
C3504 C3503 1.366 . S
C3504 C3505 1.414 . S
C3504 C3507 1.499 . S
C3505 H3479 0.950 . S
C3505 C3504 1.414 . S
C3505 C3506 1.374 . S
C3506 H3480 0.950 . S
C3506 C3502 1.385 . S
C3506 C3505 1.374 . S
C3507 C3504 1.499 . S
C3507 C3508 1.373 . S
C3507 C3509 1.389 . S
C3508 H3481 0.950 . S
C3508 C3494 1.377 . S
C3508 C3507 1.373 . S
C3509 C3493 1.377 . S
C3509 C3507 1.389 . S
C3509 C3510 1.524 . S
C3510 C3509 1.524 . S
C3510 C3511 1.397 1_556 S
C3510 C3515 1.363 . S
C3511 H3482 0.950 . S
C3511 C3510 1.397 1_554 S
C3511 C3512 1.334 . S
C3512 H3483 0.950 . S
C3512 C3511 1.334 . S
C3512 C3513 1.287 . S
C3513 C3512 1.287 . S
C3513 C3514 1.524 . S
C3513 H3516 0.999 . S
C3514 H3484 0.950 . S
C3514 C3513 1.524 . S
C3514 C3515 1.415 1_554 S
C3515 H3485 0.950 . S
C3515 C3510 1.363 . S
C3515 C3514 1.415 1_556 S
H3516 C3513 0.999 . S
H3517 C3498 0.913 . S
H3518 C3536 0.951 . S
H3519 C3538 0.951 . S
H3520 C3540 0.950 . S
H3521 C3541 0.950 . S
H3522 C3543 0.950 . S
H3523 C3546 0.950 . S
H3524 C3547 0.950 . S
H3525 C3549 0.950 . S
H3526 C3550 0.950 . S
H3527 C3551 0.951 . S
H3528 C3553 0.951 . S
H3529 C3555 0.950 . S
H3530 C3556 0.950 . S
H3531 C3558 0.950 . S
H3532 C3561 0.950 . S
H3533 C3562 0.950 . S
H3534 C3564 0.950 . S
H3535 C3565 0.950 . S
C3536 H3518 0.951 . S
C3536 C3537 1.361 1_554 S
C3536 C3538 1.388 . S
C3537 C3536 1.361 1_556 S
C3537 C3541 1.394 . S
C3538 H3519 0.951 . S
C3538 C3536 1.388 . S
C3538 C3539 1.366 1_554 S
C3539 C3538 1.366 1_556 S
C3539 C3540 1.414 . S
C3539 C3542 1.499 . S
C3540 H3520 0.950 . S
C3540 C3539 1.414 . S
C3540 C3541 1.374 . S
C3541 H3521 0.950 . S
C3541 C3537 1.394 . S
C3541 C3540 1.374 . S
C3542 C3539 1.499 . S
C3542 C3543 1.373 . S
C3542 C3544 1.389 . S
C3543 H3522 0.950 . S
C3543 C3542 1.373 . S
C3543 C3559 1.377 . S
C3544 C3542 1.389 . S
C3544 C3545 1.524 . S
C3544 C3558 1.377 . S
C3545 C3544 1.524 . S
C3545 C3546 1.397 . S
C3545 C3550 1.363 . S
C3546 H3523 0.950 . S
C3546 C3545 1.397 . S
C3546 C3547 1.334 . S
C3547 H3524 0.950 . S
C3547 C3546 1.334 . S
C3547 C3548 1.287 . S
C3548 C3547 1.287 . S
C3548 C3549 1.524 . S
C3548 H3567 0.913 . S
C3549 H3525 0.950 . S
C3549 C3548 1.524 . S
C3549 C3550 1.415 . S
C3550 H3526 0.950 . S
C3550 C3545 1.363 . S
C3550 C3549 1.415 . S
C3551 H3527 0.951 . S
C3551 C3552 1.366 . S
C3551 C3553 1.388 . S
C3552 C3551 1.366 . S
C3552 C3556 1.385 . S
C3553 H3528 0.951 . S
C3553 C3551 1.388 . S
C3553 C3554 1.366 . S
C3554 C3553 1.366 . S
C3554 C3555 1.414 . S
C3554 C3557 1.499 . S
C3555 H3529 0.950 . S
C3555 C3554 1.414 . S
C3555 C3556 1.374 . S
C3556 H3530 0.950 . S
C3556 C3552 1.385 . S
C3556 C3555 1.374 . S
C3557 C3554 1.499 . S
C3557 C3558 1.373 . S
C3557 C3559 1.389 . S
C3558 H3531 0.950 . S
C3558 C3544 1.377 . S
C3558 C3557 1.373 . S
C3559 C3543 1.377 . S
C3559 C3557 1.389 . S
C3559 C3560 1.524 . S
C3560 C3559 1.524 . S
C3560 C3561 1.397 . S
C3560 C3565 1.363 . S
C3561 H3532 0.950 . S
C3561 C3560 1.397 . S
C3561 C3562 1.334 . S
C3562 H3533 0.950 . S
C3562 C3561 1.334 . S
C3562 C3563 1.287 . S
C3563 C3562 1.287 . S
C3563 C3564 1.524 . S
C3563 H3566 0.999 . S
C3564 H3534 0.950 . S
C3564 C3563 1.524 . S
C3564 C3565 1.415 . S
C3565 H3535 0.950 . S
C3565 C3560 1.363 . S
C3565 C3564 1.415 . S
H3566 C3563 0.999 . S
H3567 C3548 0.913 . S
H3568 C3586 0.953 . S
H3569 C3588 0.951 . S
H3570 C3590 0.950 . S
H3571 C3591 0.961 . S
H3572 C3593 0.950 . S
H3573 C3596 0.950 . S
H3574 C3597 0.950 . S
H3575 C3599 0.950 . S
H3576 C3600 0.918 1_556 S
H3577 C3601 0.951 . S
H3578 C3603 0.951 . S
H3579 C3605 0.950 . S
H3580 C3606 0.950 . S
H3581 C3608 0.950 . S
H3582 C3611 0.950 . S
H3583 C3612 0.950 . S
H3584 C3614 0.950 . S
H3585 C3615 0.950 . S
C3586 H3568 0.953 . S
C3586 C3587 1.369 . S
C3586 C3588 1.383 1_554 S
C3587 C3586 1.369 . S
C3587 C3591 1.393 . S
C3588 H3569 0.951 . S
C3588 C3586 1.383 1_556 S
C3588 C3589 1.366 . S
C3589 C3588 1.366 . S
C3589 C3590 1.414 . S
C3589 C3592 1.499 . S
C3590 H3570 0.950 . S
C3590 C3589 1.414 . S
C3590 C3591 1.358 1_556 S
C3591 H3571 0.961 . S
C3591 C3587 1.393 . S
C3591 C3590 1.358 1_554 S
C3592 C3589 1.499 . S
C3592 C3593 1.373 . S
C3592 C3594 1.389 . S
C3593 H3572 0.950 . S
C3593 C3592 1.373 . S
C3593 C3609 1.377 . S
C3594 C3592 1.389 . S
C3594 C3595 1.524 1_556 S
C3594 C3608 1.377 . S
C3595 C3594 1.524 1_554 S
C3595 C3596 1.397 . S
C3595 C3600 1.363 . S
C3596 H3573 0.950 . S
C3596 C3595 1.397 . S
C3596 C3597 1.334 . S
C3597 H3574 0.950 . S
C3597 C3596 1.334 . S
C3597 C3598 1.287 . S
C3598 C3597 1.287 . S
C3598 C3599 1.524 . S
C3598 H3617 0.913 . S
C3599 H3575 0.950 . S
C3599 C3598 1.524 . S
C3599 C3600 1.415 . S
C3600 H3576 0.918 1_554 S
C3600 C3595 1.363 . S
C3600 C3599 1.415 . S
C3601 H3577 0.951 . S
C3601 C3602 1.366 . S
C3601 C3603 1.388 . S
C3602 C3601 1.366 . S
C3602 C3606 1.385 . S
C3603 H3578 0.951 . S
C3603 C3601 1.388 . S
C3603 C3604 1.366 . S
C3604 C3603 1.366 . S
C3604 C3605 1.414 . S
C3604 C3607 1.499 . S
C3605 H3579 0.950 . S
C3605 C3604 1.414 . S
C3605 C3606 1.374 . S
C3606 H3580 0.950 . S
C3606 C3602 1.385 . S
C3606 C3605 1.374 . S
C3607 C3604 1.499 . S
C3607 C3608 1.373 . S
C3607 C3609 1.389 . S
C3608 H3581 0.950 . S
C3608 C3594 1.377 . S
C3608 C3607 1.373 . S
C3609 C3593 1.377 . S
C3609 C3607 1.389 . S
C3609 C3610 1.524 . S
C3610 C3609 1.524 . S
C3610 C3611 1.397 . S
C3610 C3615 1.363 . S
C3611 H3582 0.950 . S
C3611 C3610 1.397 . S
C3611 C3612 1.334 . S
C3612 H3583 0.950 . S
C3612 C3611 1.334 . S
C3612 C3613 1.287 . S
C3613 C3612 1.287 . S
C3613 C3614 1.524 . S
C3613 H3616 0.999 . S
C3614 H3584 0.950 . S
C3614 C3613 1.524 . S
C3614 C3615 1.415 . S
C3615 H3585 0.950 . S
C3615 C3610 1.363 . S
C3615 C3614 1.415 . S
H3616 C3613 0.999 . S
H3617 C3598 0.913 . S
H3618 C3636 0.951 . S
H3619 C3638 0.951 . S
H3620 C3640 0.950 . S
H3621 C3641 0.950 . S
H3622 C3643 0.950 . S
H3623 C3646 0.950 . S
H3624 C3647 0.950 . S
H3625 C3649 0.958 . S
H3626 C3650 0.950 . S
H3627 C3651 0.951 . S
H3628 C3653 0.951 . S
H3629 C3655 0.950 . S
H3630 C3656 0.950 . S
H3631 C3658 0.950 . S
H3632 C3661 0.950 . S
H3633 C3662 0.950 . S
H3634 C3664 0.950 . S
H3635 C3665 0.950 . S
C3636 H3618 0.951 . S
C3636 C3637 1.366 . S
C3636 C3638 1.388 . S
C3637 C3636 1.366 . S
C3637 C3641 1.385 . S
C3638 H3619 0.951 . S
C3638 C3636 1.388 . S
C3638 C3639 1.366 . S
C3639 C3638 1.366 . S
C3639 C3640 1.414 . S
C3639 C3642 1.499 . S
C3640 H3620 0.950 . S
C3640 C3639 1.414 . S
C3640 C3641 1.374 . S
C3641 H3621 0.950 . S
C3641 C3637 1.385 . S
C3641 C3640 1.374 . S
C3642 C3639 1.499 . S
C3642 C3643 1.373 . S
C3642 C3644 1.389 . S
C3643 H3622 0.950 . S
C3643 C3642 1.373 . S
C3643 C3659 1.377 . S
C3644 C3642 1.389 . S
C3644 C3645 1.524 . S
C3644 C3658 1.377 . S
C3645 C3644 1.524 . S
C3645 C3646 1.397 . S
C3645 C3650 1.363 . S
C3646 H3623 0.950 . S
C3646 C3645 1.397 . S
C3646 C3647 1.334 1_554 S
C3647 H3624 0.950 . S
C3647 C3646 1.334 1_556 S
C3647 C3648 1.287 . S
C3648 C3647 1.287 . S
C3648 C3649 1.541 . S
C3648 H3667 0.913 . S
C3649 H3625 0.958 . S
C3649 C3648 1.541 . S
C3649 C3650 1.389 1_556 S
C3650 H3626 0.950 . S
C3650 C3645 1.363 . S
C3650 C3649 1.389 1_554 S
C3651 H3627 0.951 . S
C3651 C3652 1.366 . S
C3651 C3653 1.388 . S
C3652 C3651 1.366 . S
C3652 C3656 1.385 . S
C3653 H3628 0.951 . S
C3653 C3651 1.388 . S
C3653 C3654 1.366 . S
C3654 C3653 1.366 . S
C3654 C3655 1.414 . S
C3654 C3657 1.499 . S
C3655 H3629 0.950 . S
C3655 C3654 1.414 . S
C3655 C3656 1.374 . S
C3656 H3630 0.950 . S
C3656 C3652 1.385 . S
C3656 C3655 1.374 . S
C3657 C3654 1.499 . S
C3657 C3658 1.373 . S
C3657 C3659 1.389 . S
C3658 H3631 0.950 . S
C3658 C3644 1.377 . S
C3658 C3657 1.373 . S
C3659 C3643 1.377 . S
C3659 C3657 1.389 . S
C3659 C3660 1.524 . S
C3660 C3659 1.524 . S
C3660 C3661 1.397 . S
C3660 C3665 1.363 . S
C3661 H3632 0.950 . S
C3661 C3660 1.397 . S
C3661 C3662 1.334 . S
C3662 H3633 0.950 . S
C3662 C3661 1.334 . S
C3662 C3663 1.287 . S
C3663 C3662 1.287 . S
C3663 C3664 1.524 . S
C3663 H3666 0.999 . S
C3664 H3634 0.950 . S
C3664 C3663 1.524 . S
C3664 C3665 1.415 . S
C3665 H3635 0.950 . S
C3665 C3660 1.363 . S
C3665 C3664 1.415 . S
H3666 C3663 0.999 . S
H3667 C3648 0.913 . S
H3668 C3686 0.951 . S
H3669 C3688 0.951 . S
H3670 C3690 0.950 . S
H3671 C3691 0.950 . S
H3672 C3693 0.950 . S
H3673 C3696 0.950 . S
H3674 C3697 0.950 . S
H3675 C3699 0.950 . S
H3676 C3700 0.950 . S
H3677 C3701 0.951 . S
H3678 C3703 0.951 . S
H3679 C3705 0.950 . S
H3680 C3706 0.950 . S
H3681 C3708 0.950 . S
H3682 C3711 0.950 . S
H3683 C3712 0.950 . S
H3684 C3714 0.950 . S
H3685 C3715 0.950 . S
C3686 H3668 0.951 . S
C3686 C3687 1.366 . S
C3686 C3688 1.388 . S
C3687 C3686 1.366 . S
C3687 C3691 1.385 . S
C3688 H3669 0.951 . S
C3688 C3686 1.388 . S
C3688 C3689 1.366 . S
C3689 C3688 1.366 . S
C3689 C3690 1.414 . S
C3689 C3692 1.499 . S
C3690 H3670 0.950 . S
C3690 C3689 1.414 . S
C3690 C3691 1.374 . S
C3691 H3671 0.950 . S
C3691 C3687 1.385 . S
C3691 C3690 1.374 . S
C3692 C3689 1.499 . S
C3692 C3693 1.373 . S
C3692 C3694 1.389 . S
C3693 H3672 0.950 . S
C3693 C3692 1.373 . S
C3693 C3709 1.377 . S
C3694 C3692 1.389 . S
C3694 C3695 1.524 . S
C3694 C3708 1.377 . S
C3695 C3694 1.524 . S
C3695 C3696 1.397 . S
C3695 C3700 1.363 . S
C3696 H3673 0.950 . S
C3696 C3695 1.397 . S
C3696 C3697 1.334 . S
C3697 H3674 0.950 . S
C3697 C3696 1.334 . S
C3697 C3698 1.287 . S
C3698 C3697 1.287 . S
C3698 C3699 1.524 1_554 S
C3698 H3717 0.913 1_554 S
C3699 H3675 0.950 . S
C3699 C3698 1.524 1_556 S
C3699 C3700 1.415 1_556 S
C3700 H3676 0.950 . S
C3700 C3695 1.363 . S
C3700 C3699 1.415 1_554 S
C3701 H3677 0.951 . S
C3701 C3702 1.366 . S
C3701 C3703 1.388 . S
C3702 C3701 1.366 . S
C3702 C3706 1.385 . S
C3703 H3678 0.951 . S
C3703 C3701 1.388 . S
C3703 C3704 1.366 . S
C3704 C3703 1.366 . S
C3704 C3705 1.414 . S
C3704 C3707 1.499 . S
C3705 H3679 0.950 . S
C3705 C3704 1.414 . S
C3705 C3706 1.374 . S
C3706 H3680 0.950 . S
C3706 C3702 1.385 . S
C3706 C3705 1.374 . S
C3707 C3704 1.499 . S
C3707 C3708 1.373 . S
C3707 C3709 1.389 . S
C3708 H3681 0.950 . S
C3708 C3694 1.377 . S
C3708 C3707 1.373 . S
C3709 C3693 1.377 . S
C3709 C3707 1.389 . S
C3709 C3710 1.524 . S
C3710 C3709 1.524 . S
C3710 C3711 1.397 . S
C3710 C3715 1.363 . S
C3711 H3682 0.950 . S
C3711 C3710 1.397 . S
C3711 C3712 1.334 . S
C3712 H3683 0.950 . S
C3712 C3711 1.334 . S
C3712 C3713 1.287 . S
C3713 C3712 1.287 . S
C3713 C3714 1.524 . S
C3713 H3716 0.999 . S
C3714 H3684 0.950 . S
C3714 C3713 1.524 . S
C3714 C3715 1.415 . S
C3715 H3685 0.950 . S
C3715 C3710 1.363 . S
C3715 C3714 1.415 . S
H3716 C3713 0.999 . S
H3717 C3698 0.913 1_556 S
H3718 C3736 0.951 . S
H3719 C3738 0.951 . S
H3720 C3740 0.950 . S
H3721 C3741 0.950 . S
H3722 C3743 0.950 . S
H3723 C3746 0.950 . S
H3724 C3747 0.950 1_556 S
H3725 C3749 0.950 . S
H3726 C3750 0.950 . S
H3727 C3751 0.951 . S
H3728 C3753 0.951 . S
H3729 C3755 0.950 . S
H3730 C3756 0.950 . S
H3731 C3758 0.950 . S
H3732 C3761 0.950 . S
H3733 C3762 0.950 . S
H3734 C3764 0.950 . S
H3735 C3765 0.950 . S
C3736 H3718 0.951 . S
C3736 C3737 1.366 . S
C3736 C3738 1.388 . S
C3737 C3736 1.366 . S
C3737 C3741 1.385 . S
C3738 H3719 0.951 . S
C3738 C3736 1.388 . S
C3738 C3739 1.366 . S
C3739 C3738 1.366 . S
C3739 C3740 1.414 . S
C3739 C3742 1.499 . S
C3740 H3720 0.950 . S
C3740 C3739 1.414 . S
C3740 C3741 1.374 . S
C3741 H3721 0.950 . S
C3741 C3737 1.385 . S
C3741 C3740 1.374 . S
C3742 C3739 1.499 . S
C3742 C3743 1.373 . S
C3742 C3744 1.389 . S
C3743 H3722 0.950 . S
C3743 C3742 1.373 . S
C3743 C3759 1.377 . S
C3744 C3742 1.389 . S
C3744 C3745 1.524 . S
C3744 C3758 1.377 . S
C3745 C3744 1.524 . S
C3745 C3746 1.397 . S
C3745 C3750 1.363 . S
C3746 H3723 0.950 . S
C3746 C3745 1.397 . S
C3746 C3747 1.334 . S
C3747 H3724 0.950 1_554 S
C3747 C3746 1.334 . S
C3747 C3748 1.287 . S
C3748 C3747 1.287 . S
C3748 C3749 1.524 . S
C3748 H3767 0.879 1_554 S
C3749 H3725 0.950 . S
C3749 C3748 1.524 . S
C3749 C3750 1.415 . S
C3750 H3726 0.950 . S
C3750 C3745 1.363 . S
C3750 C3749 1.415 . S
C3751 H3727 0.951 . S
C3751 C3752 1.366 . S
C3751 C3753 1.388 . S
C3752 C3751 1.366 . S
C3752 C3756 1.385 . S
C3753 H3728 0.951 . S
C3753 C3751 1.388 . S
C3753 C3754 1.366 . S
C3754 C3753 1.366 . S
C3754 C3755 1.414 . S
C3754 C3757 1.499 . S
C3755 H3729 0.950 . S
C3755 C3754 1.414 . S
C3755 C3756 1.374 . S
C3756 H3730 0.950 . S
C3756 C3752 1.385 . S
C3756 C3755 1.374 . S
C3757 C3754 1.499 . S
C3757 C3758 1.373 . S
C3757 C3759 1.389 . S
C3758 H3731 0.950 . S
C3758 C3744 1.377 . S
C3758 C3757 1.373 . S
C3759 C3743 1.377 . S
C3759 C3757 1.389 . S
C3759 C3760 1.524 . S
C3760 C3759 1.524 . S
C3760 C3761 1.397 . S
C3760 C3765 1.363 . S
C3761 H3732 0.950 . S
C3761 C3760 1.397 . S
C3761 C3762 1.334 . S
C3762 H3733 0.950 . S
C3762 C3761 1.334 . S
C3762 C3763 1.287 . S
C3763 C3762 1.287 . S
C3763 C3764 1.524 . S
C3763 H3766 0.999 . S
C3764 H3734 0.950 . S
C3764 C3763 1.524 . S
C3764 C3765 1.415 . S
C3765 H3735 0.950 . S
C3765 C3760 1.363 . S
C3765 C3764 1.415 . S
H3766 C3763 0.999 . S
H3767 C3748 0.879 1_556 S
H3768 C3786 0.951 . S
H3769 C3788 0.951 . S
H3770 C3790 0.950 . S
H3771 C3791 0.950 . S
H3772 C3793 0.950 . S
H3773 C3796 0.950 . S
H3774 C3797 0.950 . S
H3775 C3799 0.950 . S
H3776 C3800 0.950 . S
H3777 C3801 0.951 . S
H3778 C3803 0.951 . S
H3779 C3805 0.950 . S
H3780 C3806 0.950 . S
H3781 C3808 0.950 . S
H3782 C3811 0.950 . S
H3783 C3812 0.950 . S
H3784 C3814 0.950 . S
H3785 C3815 0.950 . S
C3786 H3768 0.951 . S
C3786 C3787 1.366 . S
C3786 C3788 1.388 . S
C3787 C3786 1.366 . S
C3787 C3791 1.385 . S
C3788 H3769 0.951 . S
C3788 C3786 1.388 . S
C3788 C3789 1.366 . S
C3789 C3788 1.366 . S
C3789 C3790 1.414 . S
C3789 C3792 1.499 . S
C3790 H3770 0.950 . S
C3790 C3789 1.414 . S
C3790 C3791 1.374 . S
C3791 H3771 0.950 . S
C3791 C3787 1.385 . S
C3791 C3790 1.374 . S
C3792 C3789 1.499 . S
C3792 C3793 1.373 . S
C3792 C3794 1.389 . S
C3793 H3772 0.950 . S
C3793 C3792 1.373 . S
C3793 C3809 1.377 . S
C3794 C3792 1.389 . S
C3794 C3795 1.524 . S
C3794 C3808 1.377 . S
C3795 C3794 1.524 . S
C3795 C3796 1.397 . S
C3795 C3800 1.363 . S
C3796 H3773 0.950 . S
C3796 C3795 1.397 . S
C3796 C3797 1.334 . S
C3797 H3774 0.950 . S
C3797 C3796 1.334 . S
C3797 C3798 1.287 . S
C3798 C3797 1.287 . S
C3798 C3799 1.524 . S
C3798 H3817 0.913 . S
C3799 H3775 0.950 . S
C3799 C3798 1.524 . S
C3799 C3800 1.415 . S
C3800 H3776 0.950 . S
C3800 C3795 1.363 . S
C3800 C3799 1.415 . S
C3801 H3777 0.951 . S
C3801 C3802 1.366 . S
C3801 C3803 1.388 . S
C3802 C3801 1.366 . S
C3802 C3806 1.385 . S
C3803 H3778 0.951 . S
C3803 C3801 1.388 . S
C3803 C3804 1.366 . S
C3804 C3803 1.366 . S
C3804 C3805 1.414 . S
C3804 C3807 1.499 . S
C3805 H3779 0.950 . S
C3805 C3804 1.414 . S
C3805 C3806 1.374 . S
C3806 H3780 0.950 . S
C3806 C3802 1.385 . S
C3806 C3805 1.374 . S
C3807 C3804 1.499 . S
C3807 C3808 1.373 . S
C3807 C3809 1.389 . S
C3808 H3781 0.950 . S
C3808 C3794 1.377 . S
C3808 C3807 1.373 . S
C3809 C3793 1.377 . S
C3809 C3807 1.389 . S
C3809 C3810 1.524 . S
C3810 C3809 1.524 . S
C3810 C3811 1.397 . S
C3810 C3815 1.363 . S
C3811 H3782 0.950 . S
C3811 C3810 1.397 . S
C3811 C3812 1.334 . S
C3812 H3783 0.950 . S
C3812 C3811 1.334 . S
C3812 C3813 1.287 . S
C3813 C3812 1.287 . S
C3813 C3814 1.524 . S
C3813 H3816 0.999 . S
C3814 H3784 0.950 . S
C3814 C3813 1.524 . S
C3814 C3815 1.415 . S
C3815 H3785 0.950 . S
C3815 C3810 1.363 . S
C3815 C3814 1.415 . S
H3816 C3813 0.999 . S
H3817 C3798 0.913 . S
H3818 C3836 0.951 . S
H3819 C3838 0.951 . S
H3820 C3840 0.950 . S
H3821 C3841 0.950 . S
H3822 C3843 0.950 . S
H3823 C3846 0.950 . S
H3824 C3847 0.950 . S
H3825 C3849 0.950 . S
H3826 C3850 0.950 . S
H3827 C3851 0.951 . S
H3828 C3853 0.951 . S
H3829 C3855 0.950 . S
H3830 C3856 0.950 . S
H3831 C3858 0.950 . S
H3832 C3861 0.950 . S
H3833 C3862 0.950 . S
H3834 C3864 0.950 . S
H3835 C3865 0.950 . S
C3836 H3818 0.951 . S
C3836 C3837 1.366 . S
C3836 C3838 1.388 . S
C3837 C3836 1.366 . S
C3837 C3841 1.385 . S
C3838 H3819 0.951 . S
C3838 C3836 1.388 . S
C3838 C3839 1.366 . S
C3839 C3838 1.366 . S
C3839 C3840 1.414 . S
C3839 C3842 1.499 . S
C3840 H3820 0.950 . S
C3840 C3839 1.414 . S
C3840 C3841 1.374 . S
C3841 H3821 0.950 . S
C3841 C3837 1.385 . S
C3841 C3840 1.374 . S
C3842 C3839 1.499 . S
C3842 C3843 1.373 . S
C3842 C3844 1.389 . S
C3843 H3822 0.950 . S
C3843 C3842 1.373 . S
C3843 C3859 1.377 . S
C3844 C3842 1.389 . S
C3844 C3845 1.524 . S
C3844 C3858 1.377 . S
C3845 C3844 1.524 . S
C3845 C3846 1.397 . S
C3845 C3850 1.363 . S
C3846 H3823 0.950 . S
C3846 C3845 1.397 . S
C3846 C3847 1.334 . S
C3847 H3824 0.950 . S
C3847 C3846 1.334 . S
C3847 C3848 1.287 . S
C3848 C3847 1.287 . S
C3848 C3849 1.524 . S
C3848 H3867 0.913 . S
C3849 H3825 0.950 . S
C3849 C3848 1.524 . S
C3849 C3850 1.415 . S
C3850 H3826 0.950 . S
C3850 C3845 1.363 . S
C3850 C3849 1.415 . S
C3851 H3827 0.951 . S
C3851 C3852 1.366 . S
C3851 C3853 1.388 . S
C3852 C3851 1.366 . S
C3852 C3856 1.385 . S
C3853 H3828 0.951 . S
C3853 C3851 1.388 . S
C3853 C3854 1.366 . S
C3854 C3853 1.366 . S
C3854 C3855 1.414 . S
C3854 C3857 1.499 . S
C3855 H3829 0.950 . S
C3855 C3854 1.414 . S
C3855 C3856 1.374 . S
C3856 H3830 0.950 . S
C3856 C3852 1.385 . S
C3856 C3855 1.374 . S
C3857 C3854 1.499 . S
C3857 C3858 1.373 . S
C3857 C3859 1.389 . S
C3858 H3831 0.950 . S
C3858 C3844 1.377 . S
C3858 C3857 1.373 . S
C3859 C3843 1.377 . S
C3859 C3857 1.389 . S
C3859 C3860 1.524 . S
C3860 C3859 1.524 . S
C3860 C3861 1.397 . S
C3860 C3865 1.363 . S
C3861 H3832 0.950 . S
C3861 C3860 1.397 . S
C3861 C3862 1.334 . S
C3862 H3833 0.950 . S
C3862 C3861 1.334 . S
C3862 C3863 1.287 . S
C3863 C3862 1.287 . S
C3863 C3864 1.524 . S
C3863 H3866 0.999 . S
C3864 H3834 0.950 . S
C3864 C3863 1.524 . S
C3864 C3865 1.415 . S
C3865 H3835 0.950 . S
C3865 C3860 1.363 . S
C3865 C3864 1.415 . S
H3866 C3863 0.999 . S
H3867 C3848 0.913 . S
H3868 C3886 0.951 1_455 S
H3869 C3888 0.951 . S
H3870 C3890 0.950 . S
H3871 C3891 0.950 . S
H3872 C3893 0.950 . S
H3873 C3896 0.950 . S
H3874 C3897 0.950 . S
H3875 C3899 0.950 . S
H3876 C3900 0.950 . S
H3877 C3901 0.951 . S
H3878 C3903 0.951 . S
H3879 C3905 0.950 . S
H3880 C3906 0.950 . S
H3881 C3908 0.950 . S
H3882 C3911 0.950 . S
H3883 C3912 0.950 . S
H3884 C3914 0.950 . S
H3885 C3915 0.950 . S
C3886 H3868 0.951 1_655 S
C3886 C3887 1.366 . S
C3886 C3888 1.388 . S
C3887 C3886 1.366 . S
C3887 C3891 1.385 . S
C3888 H3869 0.951 . S
C3888 C3886 1.388 . S
C3888 C3889 1.366 . S
C3889 C3888 1.366 . S
C3889 C3890 1.414 . S
C3889 C3892 1.499 . S
C3890 H3870 0.950 . S
C3890 C3889 1.414 . S
C3890 C3891 1.374 . S
C3891 H3871 0.950 . S
C3891 C3887 1.385 . S
C3891 C3890 1.374 . S
C3892 C3889 1.499 . S
C3892 C3893 1.373 . S
C3892 C3894 1.389 . S
C3893 H3872 0.950 . S
C3893 C3892 1.373 . S
C3893 C3909 1.377 . S
C3894 C3892 1.389 . S
C3894 C3895 1.524 . S
C3894 C3908 1.377 . S
C3895 C3894 1.524 . S
C3895 C3896 1.397 . S
C3895 C3900 1.363 . S
C3896 H3873 0.950 . S
C3896 C3895 1.397 . S
C3896 C3897 1.334 . S
C3897 H3874 0.950 . S
C3897 C3896 1.334 . S
C3897 C3898 1.287 . S
C3898 C3897 1.287 . S
C3898 C3899 1.524 . S
C3898 H3917 0.913 . S
C3899 H3875 0.950 . S
C3899 C3898 1.524 . S
C3899 C3900 1.415 . S
C3900 H3876 0.950 . S
C3900 C3895 1.363 . S
C3900 C3899 1.415 . S
C3901 H3877 0.951 . S
C3901 C3902 1.366 . S
C3901 C3903 1.388 . S
C3902 C3901 1.366 . S
C3902 C3906 1.385 . S
C3903 H3878 0.951 . S
C3903 C3901 1.388 . S
C3903 C3904 1.366 . S
C3904 C3903 1.366 . S
C3904 C3905 1.414 . S
C3904 C3907 1.499 . S
C3905 H3879 0.950 . S
C3905 C3904 1.414 . S
C3905 C3906 1.374 . S
C3906 H3880 0.950 . S
C3906 C3902 1.385 . S
C3906 C3905 1.374 . S
C3907 C3904 1.499 . S
C3907 C3908 1.373 . S
C3907 C3909 1.389 . S
C3908 H3881 0.950 . S
C3908 C3894 1.377 . S
C3908 C3907 1.373 . S
C3909 C3893 1.377 . S
C3909 C3907 1.389 . S
C3909 C3910 1.524 . S
C3910 C3909 1.524 . S
C3910 C3911 1.397 . S
C3910 C3915 1.363 . S
C3911 H3882 0.950 . S
C3911 C3910 1.397 . S
C3911 C3912 1.334 . S
C3912 H3883 0.950 . S
C3912 C3911 1.334 . S
C3912 C3913 1.287 . S
C3913 C3912 1.287 . S
C3913 C3914 1.524 . S
C3913 H3916 0.999 . S
C3914 H3884 0.950 . S
C3914 C3913 1.524 . S
C3914 C3915 1.415 . S
C3915 H3885 0.950 . S
C3915 C3910 1.363 . S
C3915 C3914 1.415 . S
H3916 C3913 0.999 . S
H3917 C3898 0.913 . S
H3918 C3936 0.951 . S
H3919 C3938 0.951 . S
H3920 C3940 0.950 . S
H3921 C3941 0.950 . S
H3922 C3943 0.961 . S
H3923 C3946 0.950 . S
H3924 C3947 0.950 . S
H3925 C3949 0.950 . S
H3926 C3950 0.950 . S
H3927 C3951 0.951 . S
H3928 C3953 0.965 . S
H3929 C3955 0.950 . S
H3930 C3956 0.950 . S
H3931 C3958 0.950 . S
H3932 C3961 0.950 1_455 S
H3933 C3962 0.950 . S
H3934 C3964 0.950 . S
H3935 C3965 0.950 . S
C3936 H3918 0.951 . S
C3936 C3937 1.366 . S
C3936 C3938 1.388 . S
C3937 C3936 1.366 . S
C3937 C3941 1.385 . S
C3938 H3919 0.951 . S
C3938 C3936 1.388 . S
C3938 C3939 1.366 . S
C3939 C3938 1.366 . S
C3939 C3940 1.414 . S
C3939 C3942 1.499 . S
C3940 H3920 0.950 . S
C3940 C3939 1.414 . S
C3940 C3941 1.374 . S
C3941 H3921 0.950 . S
C3941 C3937 1.385 . S
C3941 C3940 1.374 . S
C3942 C3939 1.499 . S
C3942 C3943 1.373 . S
C3942 C3944 1.389 . S
C3943 H3922 0.961 . S
C3943 C3942 1.373 . S
C3943 C3959 1.377 . S
C3944 C3942 1.389 . S
C3944 C3945 1.524 . S
C3944 C3958 1.377 . S
C3945 C3944 1.524 . S
C3945 C3946 1.397 . S
C3945 C3950 1.363 . S
C3946 H3923 0.950 . S
C3946 C3945 1.397 . S
C3946 C3947 1.334 . S
C3947 H3924 0.950 . S
C3947 C3946 1.334 . S
C3947 C3948 1.287 . S
C3948 C3947 1.287 . S
C3948 C3949 1.524 . S
C3948 H3967 0.913 . S
C3949 H3925 0.950 . S
C3949 C3948 1.524 . S
C3949 C3950 1.415 . S
C3950 H3926 0.950 . S
C3950 C3945 1.363 . S
C3950 C3949 1.415 . S
C3951 H3927 0.951 . S
C3951 C3952 1.366 1_655 S
C3951 C3953 1.414 . S
C3952 C3951 1.366 1_455 S
C3952 C3956 1.385 . S
C3953 H3928 0.965 . S
C3953 C3951 1.414 . S
C3953 C3954 1.327 1_655 S
C3954 C3953 1.327 1_455 S
C3954 C3955 1.414 . S
C3954 C3957 1.499 . S
C3955 H3929 0.950 . S
C3955 C3954 1.414 . S
C3955 C3956 1.374 . S
C3956 H3930 0.950 . S
C3956 C3952 1.385 . S
C3956 C3955 1.374 . S
C3957 C3954 1.499 . S
C3957 C3958 1.373 . S
C3957 C3959 1.389 . S
C3958 H3931 0.950 . S
C3958 C3944 1.377 . S
C3958 C3957 1.373 . S
C3959 C3943 1.377 . S
C3959 C3957 1.389 . S
C3959 C3960 1.524 1_455 S
C3960 C3959 1.524 1_655 S
C3960 C3961 1.397 . S
C3960 C3965 1.363 . S
C3961 H3932 0.950 1_655 S
C3961 C3960 1.397 . S
C3961 C3962 1.334 . S
C3962 H3933 0.950 . S
C3962 C3961 1.334 . S
C3962 C3963 1.287 . S
C3963 C3962 1.287 . S
C3963 C3964 1.524 . S
C3963 H3966 0.999 . S
C3964 H3934 0.950 . S
C3964 C3963 1.524 . S
C3964 C3965 1.415 . S
C3965 H3935 0.950 . S
C3965 C3960 1.363 . S
C3965 C3964 1.415 . S
H3966 C3963 0.999 . S
H3967 C3948 0.913 . S
H3968 C3986 0.951 . S
H3969 C3988 0.951 . S
H3970 C3990 0.950 . S
H3971 C3991 0.950 . S
H3972 C3993 0.950 . S
H3973 C3996 0.950 . S
H3974 C3997 0.950 . S
H3975 C3999 0.950 . S
H3976 C4000 0.950 . S
H3977 C4001 0.951 . S
H3978 C4003 0.951 . S
H3979 C4005 0.950 . S
H3980 C4006 0.950 . S
H3981 C4008 0.950 . S
H3982 C4011 0.950 . S
H3983 C4012 0.950 . S
H3984 C4014 0.950 . S
H3985 C4015 0.950 . S
C3986 H3968 0.951 . S
C3986 C3987 1.366 . S
C3986 C3988 1.388 . S
C3987 C3986 1.366 . S
C3987 C3991 1.385 . S
C3988 H3969 0.951 . S
C3988 C3986 1.388 . S
C3988 C3989 1.366 . S
C3989 C3988 1.366 . S
C3989 C3990 1.414 . S
C3989 C3992 1.499 . S
C3990 H3970 0.950 . S
C3990 C3989 1.414 . S
C3990 C3991 1.374 . S
C3991 H3971 0.950 . S
C3991 C3987 1.385 . S
C3991 C3990 1.374 . S
C3992 C3989 1.499 . S
C3992 C3993 1.373 . S
C3992 C3994 1.389 . S
C3993 H3972 0.950 . S
C3993 C3992 1.373 . S
C3993 C4009 1.377 . S
C3994 C3992 1.389 . S
C3994 C3995 1.524 . S
C3994 C4008 1.377 . S
C3995 C3994 1.524 . S
C3995 C3996 1.397 . S
C3995 C4000 1.363 . S
C3996 H3973 0.950 . S
C3996 C3995 1.397 . S
C3996 C3997 1.334 . S
C3997 H3974 0.950 . S
C3997 C3996 1.334 . S
C3997 C3998 1.287 . S
C3998 C3997 1.287 . S
C3998 C3999 1.524 . S
C3998 H4017 0.913 . S
C3999 H3975 0.950 . S
C3999 C3998 1.524 . S
C3999 C4000 1.415 . S
C4000 H3976 0.950 . S
C4000 C3995 1.363 . S
C4000 C3999 1.415 . S
C4001 H3977 0.951 . S
C4001 C4002 1.366 . S
C4001 C4003 1.388 . S
C4002 C4001 1.366 . S
C4002 C4006 1.385 . S
C4003 H3978 0.951 . S
C4003 C4001 1.388 . S
C4003 C4004 1.366 . S
C4004 C4003 1.366 . S
C4004 C4005 1.414 . S
C4004 C4007 1.499 . S
C4005 H3979 0.950 . S
C4005 C4004 1.414 . S
C4005 C4006 1.374 . S
C4006 H3980 0.950 . S
C4006 C4002 1.385 . S
C4006 C4005 1.374 . S
C4007 C4004 1.499 . S
C4007 C4008 1.373 . S
C4007 C4009 1.389 . S
C4008 H3981 0.950 . S
C4008 C3994 1.377 . S
C4008 C4007 1.373 . S
C4009 C3993 1.377 . S
C4009 C4007 1.389 . S
C4009 C4010 1.524 . S
C4010 C4009 1.524 . S
C4010 C4011 1.397 . S
C4010 C4015 1.363 . S
C4011 H3982 0.950 . S
C4011 C4010 1.397 . S
C4011 C4012 1.334 . S
C4012 H3983 0.950 . S
C4012 C4011 1.334 . S
C4012 C4013 1.287 . S
C4013 C4012 1.287 . S
C4013 C4014 1.524 . S
C4013 H4016 0.999 . S
C4014 H3984 0.950 . S
C4014 C4013 1.524 . S
C4014 C4015 1.415 . S
C4015 H3985 0.950 . S
C4015 C4010 1.363 . S
C4015 C4014 1.415 . S
H4016 C4013 0.999 . S
H4017 C3998 0.913 . S
H4018 C4036 0.951 . S
H4019 C4038 0.951 . S
H4020 C4040 0.950 . S
H4021 C4041 0.950 . S
H4022 C4043 0.950 . S
H4023 C4046 0.950 . S
H4024 C4047 0.950 . S
H4025 C4049 0.950 . S
H4026 C4050 0.950 . S
H4027 C4051 0.936 1_545 S
H4028 C4053 0.945 1_545 S
H4029 C4055 0.950 . S
H4030 C4056 0.950 . S
H4031 C4058 0.950 . S
H4032 C4061 0.950 . S
H4033 C4062 0.950 . S
H4034 C4064 0.950 . S
H4035 C4065 0.950 . S
C4036 H4018 0.951 . S
C4036 C4037 1.366 . S
C4036 C4038 1.388 . S
C4037 C4036 1.366 . S
C4037 C4041 1.385 . S
C4038 H4019 0.951 . S
C4038 C4036 1.388 . S
C4038 C4039 1.366 . S
C4039 C4038 1.366 . S
C4039 C4040 1.414 . S
C4039 C4042 1.499 . S
C4040 H4020 0.950 . S
C4040 C4039 1.414 . S
C4040 C4041 1.374 . S
C4041 H4021 0.950 . S
C4041 C4037 1.385 . S
C4041 C4040 1.374 . S
C4042 C4039 1.499 . S
C4042 C4043 1.373 . S
C4042 C4044 1.389 . S
C4043 H4022 0.950 . S
C4043 C4042 1.373 . S
C4043 C4059 1.377 . S
C4044 C4042 1.389 . S
C4044 C4045 1.524 . S
C4044 C4058 1.377 . S
C4045 C4044 1.524 . S
C4045 C4046 1.397 1_565 S
C4045 C4050 1.363 . S
C4046 H4023 0.950 . S
C4046 C4045 1.397 1_545 S
C4046 C4047 1.334 . S
C4047 H4024 0.950 . S
C4047 C4046 1.334 . S
C4047 C4048 1.287 . S
C4048 C4047 1.287 . S
C4048 C4049 1.524 1_545 S
C4048 H4067 0.913 . S
C4049 H4025 0.950 . S
C4049 C4048 1.524 1_565 S
C4049 C4050 1.415 . S
C4050 H4026 0.950 . S
C4050 C4045 1.363 . S
C4050 C4049 1.415 . S
C4051 H4027 0.936 1_565 S
C4051 C4052 1.397 . S
C4051 C4053 1.373 . S
C4052 C4051 1.397 . S
C4052 C4056 1.385 . S
C4053 H4028 0.945 1_565 S
C4053 C4051 1.373 . S
C4053 C4054 1.366 . S
C4054 C4053 1.366 . S
C4054 C4055 1.414 . S
C4054 C4057 1.499 . S
C4055 H4029 0.950 . S
C4055 C4054 1.414 . S
C4055 C4056 1.374 . S
C4056 H4030 0.950 . S
C4056 C4052 1.385 . S
C4056 C4055 1.374 . S
C4057 C4054 1.499 . S
C4057 C4058 1.373 . S
C4057 C4059 1.389 . S
C4058 H4031 0.950 . S
C4058 C4044 1.377 . S
C4058 C4057 1.373 . S
C4059 C4043 1.377 . S
C4059 C4057 1.389 . S
C4059 C4060 1.524 . S
C4060 C4059 1.524 . S
C4060 C4061 1.397 . S
C4060 C4065 1.363 . S
C4061 H4032 0.950 . S
C4061 C4060 1.397 . S
C4061 C4062 1.334 . S
C4062 H4033 0.950 . S
C4062 C4061 1.334 . S
C4062 C4063 1.287 . S
C4063 C4062 1.287 . S
C4063 C4064 1.524 . S
C4063 H4066 0.999 . S
C4064 H4034 0.950 . S
C4064 C4063 1.524 . S
C4064 C4065 1.415 . S
C4065 H4035 0.950 . S
C4065 C4060 1.363 . S
C4065 C4064 1.415 . S
H4066 C4063 0.999 . S
H4067 C4048 0.913 . S
H4068 C4086 0.951 . S
H4069 C4088 0.951 . S
H4070 C4090 0.950 . S
H4071 C4091 0.950 . S
H4072 C4093 0.950 . S
H4073 C4096 0.950 1_565 S
H4074 C4097 0.950 . S
H4075 C4099 0.950 . S
H4076 C4100 0.950 . S
H4077 C4101 0.951 . S
H4078 C4103 0.951 . S
H4079 C4105 0.955 . S
H4080 C4106 0.950 . S
H4081 C4108 0.950 1_545 S
H4082 C4111 0.950 . S
H4083 C4112 0.950 . S
H4084 C4114 0.950 . S
H4085 C4115 0.950 . S
C4086 H4068 0.951 . S
C4086 C4087 1.366 . S
C4086 C4088 1.388 . S
C4087 C4086 1.366 . S
C4087 C4091 1.385 . S
C4088 H4069 0.951 . S
C4088 C4086 1.388 . S
C4088 C4089 1.366 . S
C4089 C4088 1.366 . S
C4089 C4090 1.414 . S
C4089 C4092 1.499 . S
C4090 H4070 0.950 . S
C4090 C4089 1.414 . S
C4090 C4091 1.374 . S
C4091 H4071 0.950 . S
C4091 C4087 1.385 . S
C4091 C4090 1.374 . S
C4092 C4089 1.499 . S
C4092 C4093 1.373 . S
C4092 C4094 1.389 . S
C4093 H4072 0.950 . S
C4093 C4092 1.373 . S
C4093 C4109 1.377 . S
C4094 C4092 1.389 . S
C4094 C4095 1.524 1_565 S
C4094 C4108 1.377 . S
C4095 C4094 1.524 1_545 S
C4095 C4096 1.397 . S
C4095 C4100 1.363 . S
C4096 H4073 0.950 1_545 S
C4096 C4095 1.397 . S
C4096 C4097 1.334 . S
C4097 H4074 0.950 . S
C4097 C4096 1.334 . S
C4097 C4098 1.287 . S
C4098 C4097 1.287 . S
C4098 C4099 1.524 . S
C4098 H4117 0.913 . S
C4099 H4075 0.950 . S
C4099 C4098 1.524 . S
C4099 C4100 1.415 . S
C4100 H4076 0.950 . S
C4100 C4095 1.363 . S
C4100 C4099 1.415 . S
C4101 H4077 0.951 . S
C4101 C4102 1.366 . S
C4101 C4103 1.388 . S
C4102 C4101 1.366 . S
C4102 C4106 1.385 1_565 S
C4103 H4078 0.951 . S
C4103 C4101 1.388 . S
C4103 C4104 1.366 . S
C4104 C4103 1.366 . S
C4104 C4105 1.398 1_565 S
C4104 C4107 1.499 . S
C4105 H4079 0.955 . S
C4105 C4104 1.398 1_545 S
C4105 C4106 1.385 . S
C4106 H4080 0.950 . S
C4106 C4102 1.385 1_545 S
C4106 C4105 1.385 . S
C4107 C4104 1.499 . S
C4107 C4108 1.373 . S
C4107 C4109 1.389 . S
C4108 H4081 0.950 1_565 S
C4108 C4094 1.377 . S
C4108 C4107 1.373 . S
C4109 C4093 1.377 . S
C4109 C4107 1.389 . S
C4109 C4110 1.524 . S
C4110 C4109 1.524 . S
C4110 C4111 1.397 . S
C4110 C4115 1.363 . S
C4111 H4082 0.950 . S
C4111 C4110 1.397 . S
C4111 C4112 1.334 . S
C4112 H4083 0.950 . S
C4112 C4111 1.334 . S
C4112 C4113 1.287 . S
C4113 C4112 1.287 . S
C4113 C4114 1.524 . S
C4113 H4116 0.999 . S
C4114 H4084 0.950 . S
C4114 C4113 1.524 . S
C4114 C4115 1.415 . S
C4115 H4085 0.950 . S
C4115 C4110 1.363 . S
C4115 C4114 1.415 . S
H4116 C4113 0.999 . S
H4117 C4098 0.913 . S
H4118 C4136 0.951 . S
H4119 C4138 0.956 1_655 S
H4120 C4140 0.950 . S
H4121 C4141 0.950 . S
H4122 C4143 0.950 . S
H4123 C4146 0.950 . S
H4124 C4147 0.950 1_455 S
H4125 C4149 0.950 . S
H4126 C4150 0.950 . S
H4127 C4151 0.951 . S
H4128 C4153 0.951 . S
H4129 C4155 0.950 . S
H4130 C4156 0.950 . S
H4131 C4158 0.950 1_655 S
H4132 C4161 0.950 . S
H4133 C4162 0.950 . S
H4134 C4164 0.950 . S
H4135 C4165 0.950 . S
C4136 H4118 0.951 . S
C4136 C4137 1.366 . S
C4136 C4138 1.388 . S
C4137 C4136 1.366 . S
C4137 C4141 1.385 . S
C4138 H4119 0.956 1_455 S
C4138 C4136 1.388 . S
C4138 C4139 1.366 . S
C4139 C4138 1.366 . S
C4139 C4140 1.414 . S
C4139 C4142 1.499 . S
C4140 H4120 0.950 . S
C4140 C4139 1.414 . S
C4140 C4141 1.374 . S
C4141 H4121 0.950 . S
C4141 C4137 1.385 . S
C4141 C4140 1.374 . S
C4142 C4139 1.499 . S
C4142 C4143 1.373 . S
C4142 C4144 1.389 . S
C4143 H4122 0.950 . S
C4143 C4142 1.373 . S
C4143 C4159 1.377 . S
C4144 C4142 1.389 . S
C4144 C4145 1.524 1_455 S
C4144 C4158 1.377 . S
C4145 C4144 1.524 1_655 S
C4145 C4146 1.397 1_655 S
C4145 C4150 1.363 . S
C4146 H4123 0.950 . S
C4146 C4145 1.397 1_455 S
C4146 C4147 1.334 1_455 S
C4147 H4124 0.950 1_655 S
C4147 C4146 1.334 1_655 S
C4147 C4148 1.287 . S
C4148 C4147 1.287 . S
C4148 C4149 1.524 . S
C4148 H4167 0.913 . S
C4149 H4125 0.950 . S
C4149 C4148 1.524 . S
C4149 C4150 1.415 . S
C4150 H4126 0.950 . S
C4150 C4145 1.363 . S
C4150 C4149 1.415 . S
C4151 H4127 0.951 . S
C4151 C4152 1.366 . S
C4151 C4153 1.388 . S
C4152 C4151 1.366 . S
C4152 C4156 1.385 1_455 S
C4153 H4128 0.951 . S
C4153 C4151 1.388 . S
C4153 C4154 1.366 . S
C4154 C4153 1.366 . S
C4154 C4155 1.414 1_455 S
C4154 C4157 1.499 . S
C4155 H4129 0.950 . S
C4155 C4154 1.414 1_655 S
C4155 C4156 1.374 . S
C4156 H4130 0.950 . S
C4156 C4152 1.385 1_655 S
C4156 C4155 1.374 . S
C4157 C4154 1.499 . S
C4157 C4158 1.373 . S
C4157 C4159 1.389 . S
C4158 H4131 0.950 1_455 S
C4158 C4144 1.377 . S
C4158 C4157 1.373 . S
C4159 C4143 1.377 . S
C4159 C4157 1.389 . S
C4159 C4160 1.524 . S
C4160 C4159 1.524 . S
C4160 C4161 1.397 . S
C4160 C4165 1.363 . S
C4161 H4132 0.950 . S
C4161 C4160 1.397 . S
C4161 C4162 1.334 . S
C4162 H4133 0.950 . S
C4162 C4161 1.334 . S
C4162 C4163 1.287 . S
C4163 C4162 1.287 . S
C4163 C4164 1.524 . S
C4163 H4166 0.999 . S
C4164 H4134 0.950 . S
C4164 C4163 1.524 . S
C4164 C4165 1.415 . S
C4165 H4135 0.950 . S
C4165 C4160 1.363 . S
C4165 C4164 1.415 . S
H4166 C4163 0.999 . S
H4167 C4148 0.913 . S
H4168 C4186 0.951 . S
H4169 C4188 0.951 . S
H4170 C4190 0.950 . S
H4171 C4191 0.950 . S
H4172 C4193 0.950 . S
H4173 C4196 0.950 . S
H4174 C4197 0.950 . S
H4175 C4199 0.950 . S
H4176 C4200 0.950 . S
H4177 C4201 0.951 . S
H4178 C4203 0.951 . S
H4179 C4205 0.950 . S
H4180 C4206 0.950 . S
H4181 C4208 0.950 . S
H4182 C4211 0.950 . S
H4183 C4212 0.950 . S
H4184 C4214 0.950 . S
H4185 C4215 0.950 . S
C4186 H4168 0.951 . S
C4186 C4187 1.366 . S
C4186 C4188 1.388 . S
C4187 C4186 1.366 . S
C4187 C4191 1.385 . S
C4188 H4169 0.951 . S
C4188 C4186 1.388 . S
C4188 C4189 1.366 . S
C4189 C4188 1.366 . S
C4189 C4190 1.414 . S
C4189 C4192 1.499 . S
C4190 H4170 0.950 . S
C4190 C4189 1.414 . S
C4190 C4191 1.374 . S
C4191 H4171 0.950 . S
C4191 C4187 1.385 . S
C4191 C4190 1.374 . S
C4192 C4189 1.499 . S
C4192 C4193 1.373 . S
C4192 C4194 1.389 . S
C4193 H4172 0.950 . S
C4193 C4192 1.373 . S
C4193 C4209 1.377 . S
C4194 C4192 1.389 . S
C4194 C4195 1.524 . S
C4194 C4208 1.377 . S
C4195 C4194 1.524 . S
C4195 C4196 1.397 . S
C4195 C4200 1.363 . S
C4196 H4173 0.950 . S
C4196 C4195 1.397 . S
C4196 C4197 1.334 . S
C4197 H4174 0.950 . S
C4197 C4196 1.334 . S
C4197 C4198 1.287 . S
C4198 C4197 1.287 . S
C4198 C4199 1.524 . S
C4198 H4217 0.913 . S
C4199 H4175 0.950 . S
C4199 C4198 1.524 . S
C4199 C4200 1.415 . S
C4200 H4176 0.950 . S
C4200 C4195 1.363 . S
C4200 C4199 1.415 . S
C4201 H4177 0.951 . S
C4201 C4202 1.366 . S
C4201 C4203 1.388 . S
C4202 C4201 1.366 . S
C4202 C4206 1.385 . S
C4203 H4178 0.951 . S
C4203 C4201 1.388 . S
C4203 C4204 1.366 . S
C4204 C4203 1.366 . S
C4204 C4205 1.414 . S
C4204 C4207 1.499 . S
C4205 H4179 0.950 . S
C4205 C4204 1.414 . S
C4205 C4206 1.374 . S
C4206 H4180 0.950 . S
C4206 C4202 1.385 . S
C4206 C4205 1.374 . S
C4207 C4204 1.499 . S
C4207 C4208 1.373 . S
C4207 C4209 1.389 . S
C4208 H4181 0.950 . S
C4208 C4194 1.377 . S
C4208 C4207 1.373 . S
C4209 C4193 1.377 . S
C4209 C4207 1.389 . S
C4209 C4210 1.524 . S
C4210 C4209 1.524 . S
C4210 C4211 1.397 . S
C4210 C4215 1.363 . S
C4211 H4182 0.950 . S
C4211 C4210 1.397 . S
C4211 C4212 1.334 . S
C4212 H4183 0.950 . S
C4212 C4211 1.334 . S
C4212 C4213 1.287 . S
C4213 C4212 1.287 . S
C4213 C4214 1.524 . S
C4213 H4216 0.999 . S
C4214 H4184 0.950 . S
C4214 C4213 1.524 . S
C4214 C4215 1.415 . S
C4215 H4185 0.950 . S
C4215 C4210 1.363 . S
C4215 C4214 1.415 . S
H4216 C4213 0.999 . S
H4217 C4198 0.913 . S
H4218 C4236 0.951 . S
H4219 C4238 0.951 . S
H4220 C4240 0.950 . S
H4221 C4241 0.950 . S
H4222 C4243 0.950 . S
H4223 C4246 0.950 . S
H4224 C4247 0.950 . S
H4225 C4249 0.950 . S
H4226 C4250 0.950 . S
H4227 C4251 0.951 . S
H4228 C4253 0.951 . S
H4229 C4255 0.950 . S
H4230 C4256 0.950 . S
H4231 C4258 0.950 . S
H4232 C4261 0.950 . S
H4233 C4262 0.950 . S
H4234 C4264 0.950 . S
H4235 C4265 0.950 . S
C4236 H4218 0.951 . S
C4236 C4237 1.366 . S
C4236 C4238 1.388 . S
C4237 C4236 1.366 . S
C4237 C4241 1.385 . S
C4238 H4219 0.951 . S
C4238 C4236 1.388 . S
C4238 C4239 1.366 . S
C4239 C4238 1.366 . S
C4239 C4240 1.414 . S
C4239 C4242 1.499 . S
C4240 H4220 0.950 . S
C4240 C4239 1.414 . S
C4240 C4241 1.374 . S
C4241 H4221 0.950 . S
C4241 C4237 1.385 . S
C4241 C4240 1.374 . S
C4242 C4239 1.499 . S
C4242 C4243 1.373 . S
C4242 C4244 1.389 . S
C4243 H4222 0.950 . S
C4243 C4242 1.373 . S
C4243 C4259 1.377 . S
C4244 C4242 1.389 . S
C4244 C4245 1.524 . S
C4244 C4258 1.377 . S
C4245 C4244 1.524 . S
C4245 C4246 1.397 . S
C4245 C4250 1.363 . S
C4246 H4223 0.950 . S
C4246 C4245 1.397 . S
C4246 C4247 1.334 . S
C4247 H4224 0.950 . S
C4247 C4246 1.334 . S
C4247 C4248 1.287 . S
C4248 C4247 1.287 . S
C4248 C4249 1.524 . S
C4248 H4267 0.913 . S
C4249 H4225 0.950 . S
C4249 C4248 1.524 . S
C4249 C4250 1.415 . S
C4250 H4226 0.950 . S
C4250 C4245 1.363 . S
C4250 C4249 1.415 . S
C4251 H4227 0.951 . S
C4251 C4252 1.366 . S
C4251 C4253 1.388 . S
C4252 C4251 1.366 . S
C4252 C4256 1.385 . S
C4253 H4228 0.951 . S
C4253 C4251 1.388 . S
C4253 C4254 1.366 . S
C4254 C4253 1.366 . S
C4254 C4255 1.414 . S
C4254 C4257 1.499 . S
C4255 H4229 0.950 . S
C4255 C4254 1.414 . S
C4255 C4256 1.374 . S
C4256 H4230 0.950 . S
C4256 C4252 1.385 . S
C4256 C4255 1.374 . S
C4257 C4254 1.499 . S
C4257 C4258 1.373 . S
C4257 C4259 1.389 . S
C4258 H4231 0.950 . S
C4258 C4244 1.377 . S
C4258 C4257 1.373 . S
C4259 C4243 1.377 . S
C4259 C4257 1.389 . S
C4259 C4260 1.524 . S
C4260 C4259 1.524 . S
C4260 C4261 1.397 . S
C4260 C4265 1.363 . S
C4261 H4232 0.950 . S
C4261 C4260 1.397 . S
C4261 C4262 1.334 . S
C4262 H4233 0.950 . S
C4262 C4261 1.334 . S
C4262 C4263 1.287 . S
C4263 C4262 1.287 . S
C4263 C4264 1.524 . S
C4263 H4266 0.999 . S
C4264 H4234 0.950 . S
C4264 C4263 1.524 . S
C4264 C4265 1.415 . S
C4265 H4235 0.950 . S
C4265 C4260 1.363 . S
C4265 C4264 1.415 . S
H4266 C4263 0.999 . S
H4267 C4248 0.913 . S
H4268 C4286 0.951 . S
H4269 C4288 0.951 . S
H4270 C4290 0.950 . S
H4271 C4291 1.025 . S
H4272 C4293 0.950 . S
H4273 C4296 0.950 . S
H4274 C4297 0.950 . S
H4275 C4299 0.950 . S
H4276 C4300 0.950 . S
H4277 C4301 0.951 . S
H4278 C4303 0.951 . S
H4279 C4305 0.950 . S
H4280 C4306 0.950 . S
H4281 C4308 0.950 . S
H4282 C4311 0.950 . S
H4283 C4312 0.950 . S
H4284 C4314 0.950 . S
H4285 C4315 0.950 . S
C4286 H4268 0.951 . S
C4286 C4287 1.366 . S
C4286 C4288 1.388 . S
C4287 C4286 1.366 . S
C4287 C4291 1.385 . S
C4288 H4269 0.951 . S
C4288 C4286 1.388 . S
C4288 C4289 1.366 . S
C4289 C4288 1.366 . S
C4289 C4290 1.414 . S
C4289 C4292 1.499 . S
C4290 H4270 0.950 . S
C4290 C4289 1.414 . S
C4290 C4291 1.374 . S
C4291 H4271 1.025 . S
C4291 C4287 1.385 . S
C4291 C4290 1.374 . S
C4292 C4289 1.499 . S
C4292 C4293 1.373 . S
C4292 C4294 1.389 . S
C4293 H4272 0.950 . S
C4293 C4292 1.373 . S
C4293 C4309 1.377 . S
C4294 C4292 1.389 . S
C4294 C4295 1.524 . S
C4294 C4308 1.377 . S
C4295 C4294 1.524 . S
C4295 C4296 1.397 . S
C4295 C4300 1.363 . S
C4296 H4273 0.950 . S
C4296 C4295 1.397 . S
C4296 C4297 1.334 . S
C4297 H4274 0.950 . S
C4297 C4296 1.334 . S
C4297 C4298 1.287 . S
C4298 C4297 1.287 . S
C4298 C4299 1.524 . S
C4298 H4317 0.913 . S
C4299 H4275 0.950 . S
C4299 C4298 1.524 . S
C4299 C4300 1.415 . S
C4300 H4276 0.950 . S
C4300 C4295 1.363 . S
C4300 C4299 1.415 . S
C4301 H4277 0.951 . S
C4301 C4302 1.366 . S
C4301 C4303 1.388 . S
C4302 C4301 1.366 . S
C4302 C4306 1.385 . S
C4303 H4278 0.951 . S
C4303 C4301 1.388 . S
C4303 C4304 1.366 . S
C4304 C4303 1.366 . S
C4304 C4305 1.414 . S
C4304 C4307 1.499 . S
C4305 H4279 0.950 . S
C4305 C4304 1.414 . S
C4305 C4306 1.374 . S
C4306 H4280 0.950 . S
C4306 C4302 1.385 . S
C4306 C4305 1.374 . S
C4307 C4304 1.499 . S
C4307 C4308 1.373 . S
C4307 C4309 1.389 . S
C4308 H4281 0.950 . S
C4308 C4294 1.377 . S
C4308 C4307 1.373 . S
C4309 C4293 1.377 . S
C4309 C4307 1.389 . S
C4309 C4310 1.524 . S
C4310 C4309 1.524 . S
C4310 C4311 1.397 . S
C4310 C4315 1.363 . S
C4311 H4282 0.950 . S
C4311 C4310 1.397 . S
C4311 C4312 1.334 . S
C4312 H4283 0.950 . S
C4312 C4311 1.334 . S
C4312 C4313 1.287 . S
C4313 C4312 1.287 . S
C4313 C4314 1.524 . S
C4313 H4316 0.999 . S
C4314 H4284 0.950 . S
C4314 C4313 1.524 . S
C4314 C4315 1.415 . S
C4315 H4285 0.950 . S
C4315 C4310 1.363 . S
C4315 C4314 1.415 . S
H4316 C4313 0.999 . S
H4317 C4298 0.913 . S
H4318 C4336 0.951 . S
H4319 C4338 0.951 . S
H4320 C4340 0.950 . S
H4321 C4341 0.950 . S
H4322 C4343 0.950 . S
H4323 C4346 0.950 . S
H4324 C4347 0.950 . S
H4325 C4349 0.950 . S
H4326 C4350 0.950 . S
H4327 C4351 0.951 . S
H4328 C4353 0.951 . S
H4329 C4355 0.950 . S
H4330 C4356 0.950 . S
H4331 C4358 0.950 . S
H4332 C4361 0.950 . S
H4333 C4362 0.950 . S
H4334 C4364 0.950 . S
H4335 C4365 0.950 . S
C4336 H4318 0.951 . S
C4336 C4337 1.366 . S
C4336 C4338 1.388 . S
C4337 C4336 1.366 . S
C4337 C4341 1.385 . S
C4338 H4319 0.951 . S
C4338 C4336 1.388 . S
C4338 C4339 1.366 . S
C4339 C4338 1.366 . S
C4339 C4340 1.414 . S
C4339 C4342 1.499 . S
C4340 H4320 0.950 . S
C4340 C4339 1.414 . S
C4340 C4341 1.374 . S
C4341 H4321 0.950 . S
C4341 C4337 1.385 . S
C4341 C4340 1.374 . S
C4342 C4339 1.499 . S
C4342 C4343 1.373 . S
C4342 C4344 1.389 . S
C4343 H4322 0.950 . S
C4343 C4342 1.373 . S
C4343 C4359 1.377 . S
C4344 C4342 1.389 . S
C4344 C4345 1.524 . S
C4344 C4358 1.377 . S
C4345 C4344 1.524 . S
C4345 C4346 1.397 . S
C4345 C4350 1.363 . S
C4346 H4323 0.950 . S
C4346 C4345 1.397 . S
C4346 C4347 1.334 . S
C4347 H4324 0.950 . S
C4347 C4346 1.334 . S
C4347 C4348 1.287 . S
C4348 C4347 1.287 . S
C4348 C4349 1.524 . S
C4348 H4367 0.913 . S
C4349 H4325 0.950 . S
C4349 C4348 1.524 . S
C4349 C4350 1.415 . S
C4350 H4326 0.950 . S
C4350 C4345 1.363 . S
C4350 C4349 1.415 . S
C4351 H4327 0.951 . S
C4351 C4352 1.366 . S
C4351 C4353 1.388 . S
C4352 C4351 1.366 . S
C4352 C4356 1.385 . S
C4353 H4328 0.951 . S
C4353 C4351 1.388 . S
C4353 C4354 1.366 . S
C4354 C4353 1.366 . S
C4354 C4355 1.414 . S
C4354 C4357 1.499 . S
C4355 H4329 0.950 . S
C4355 C4354 1.414 . S
C4355 C4356 1.374 . S
C4356 H4330 0.950 . S
C4356 C4352 1.385 . S
C4356 C4355 1.374 . S
C4357 C4354 1.499 . S
C4357 C4358 1.373 . S
C4357 C4359 1.389 . S
C4358 H4331 0.950 . S
C4358 C4344 1.377 . S
C4358 C4357 1.373 . S
C4359 C4343 1.377 . S
C4359 C4357 1.389 . S
C4359 C4360 1.524 . S
C4360 C4359 1.524 . S
C4360 C4361 1.397 . S
C4360 C4365 1.363 . S
C4361 H4332 0.950 . S
C4361 C4360 1.397 . S
C4361 C4362 1.334 . S
C4362 H4333 0.950 . S
C4362 C4361 1.334 . S
C4362 C4363 1.287 . S
C4363 C4362 1.287 . S
C4363 C4364 1.524 . S
C4363 H4366 0.999 . S
C4364 H4334 0.950 . S
C4364 C4363 1.524 . S
C4364 C4365 1.415 . S
C4365 H4335 0.950 . S
C4365 C4360 1.363 . S
C4365 C4364 1.415 . S
H4366 C4363 0.999 . S
H4367 C4348 0.913 . S
H4368 C4386 0.951 . S
H4369 C4388 0.951 . S
H4370 C4390 0.950 . S
H4371 C4391 0.950 . S
H4372 C4393 0.950 . S
H4373 C4396 0.950 . S
H4374 C4397 0.950 . S
H4375 C4399 0.950 . S
H4376 C4400 0.950 . S
H4377 C4401 0.951 . S
H4378 C4403 0.951 . S
H4379 C4405 0.950 . S
H4380 C4406 0.950 . S
H4381 C4408 0.950 1_565 S
H4382 C4411 0.950 . S
H4383 C4412 0.950 . S
H4384 C4414 0.950 . S
H4385 C4415 0.950 . S
C4386 H4368 0.951 . S
C4386 C4387 1.366 . S
C4386 C4388 1.388 . S
C4387 C4386 1.366 . S
C4387 C4391 1.385 . S
C4388 H4369 0.951 . S
C4388 C4386 1.388 . S
C4388 C4389 1.366 . S
C4389 C4388 1.366 . S
C4389 C4390 1.414 . S
C4389 C4392 1.499 . S
C4390 H4370 0.950 . S
C4390 C4389 1.414 . S
C4390 C4391 1.374 . S
C4391 H4371 0.950 . S
C4391 C4387 1.385 . S
C4391 C4390 1.374 . S
C4392 C4389 1.499 . S
C4392 C4393 1.373 . S
C4392 C4394 1.389 . S
C4393 H4372 0.950 . S
C4393 C4392 1.373 . S
C4393 C4409 1.377 . S
C4394 C4392 1.389 . S
C4394 C4395 1.524 1_545 S
C4394 C4408 1.377 . S
C4395 C4394 1.524 1_565 S
C4395 C4396 1.397 . S
C4395 C4400 1.363 . S
C4396 H4373 0.950 . S
C4396 C4395 1.397 . S
C4396 C4397 1.334 . S
C4397 H4374 0.950 . S
C4397 C4396 1.334 . S
C4397 C4398 1.287 . S
C4398 C4397 1.287 . S
C4398 C4399 1.524 . S
C4398 H4417 0.913 . S
C4399 H4375 0.950 . S
C4399 C4398 1.524 . S
C4399 C4400 1.415 . S
C4400 H4376 0.950 . S
C4400 C4395 1.363 . S
C4400 C4399 1.415 . S
C4401 H4377 0.951 . S
C4401 C4402 1.366 . S
C4401 C4403 1.388 . S
C4402 C4401 1.366 . S
C4402 C4406 1.385 . S
C4403 H4378 0.951 . S
C4403 C4401 1.388 . S
C4403 C4404 1.366 . S
C4404 C4403 1.366 . S
C4404 C4405 1.414 . S
C4404 C4407 1.499 . S
C4405 H4379 0.950 . S
C4405 C4404 1.414 . S
C4405 C4406 1.374 . S
C4406 H4380 0.950 . S
C4406 C4402 1.385 . S
C4406 C4405 1.374 . S
C4407 C4404 1.499 . S
C4407 C4408 1.373 . S
C4407 C4409 1.389 . S
C4408 H4381 0.950 1_545 S
C4408 C4394 1.377 . S
C4408 C4407 1.373 . S
C4409 C4393 1.377 . S
C4409 C4407 1.389 . S
C4409 C4410 1.524 . S
C4410 C4409 1.524 . S
C4410 C4411 1.397 . S
C4410 C4415 1.363 . S
C4411 H4382 0.950 . S
C4411 C4410 1.397 . S
C4411 C4412 1.334 . S
C4412 H4383 0.950 . S
C4412 C4411 1.334 . S
C4412 C4413 1.287 . S
C4413 C4412 1.287 . S
C4413 C4414 1.524 . S
C4413 H4416 0.999 . S
C4414 H4384 0.950 . S
C4414 C4413 1.524 . S
C4414 C4415 1.415 . S
C4415 H4385 0.950 . S
C4415 C4410 1.363 . S
C4415 C4414 1.415 . S
H4416 C4413 0.999 . S
H4417 C4398 0.913 . S
H4418 C4436 0.951 . S
H4419 C4438 0.951 . S
H4420 C4440 0.950 . S
H4421 C4441 0.950 . S
H4422 C4443 0.950 . S
H4423 C4446 0.950 . S
H4424 C4447 0.950 . S
H4425 C4449 0.950 . S
H4426 C4450 0.950 . S
H4427 C4451 0.951 . S
H4428 C4453 0.951 . S
H4429 C4455 0.942 1_455 S
H4430 C4456 0.950 . S
H4431 C4458 0.950 1_455 S
H4432 C4461 0.950 . S
H4433 C4462 0.950 . S
H4434 C4464 0.950 . S
H4435 C4465 0.950 . S
C4436 H4418 0.951 . S
C4436 C4437 1.366 . S
C4436 C4438 1.388 . S
C4437 C4436 1.366 . S
C4437 C4441 1.385 . S
C4438 H4419 0.951 . S
C4438 C4436 1.388 . S
C4438 C4439 1.366 . S
C4439 C4438 1.366 . S
C4439 C4440 1.414 . S
C4439 C4442 1.499 . S
C4440 H4420 0.950 . S
C4440 C4439 1.414 . S
C4440 C4441 1.374 . S
C4441 H4421 0.950 . S
C4441 C4437 1.385 . S
C4441 C4440 1.374 . S
C4442 C4439 1.499 . S
C4442 C4443 1.373 . S
C4442 C4444 1.389 . S
C4443 H4422 0.950 . S
C4443 C4442 1.373 . S
C4443 C4459 1.377 . S
C4444 C4442 1.389 . S
C4444 C4445 1.524 1_655 S
C4444 C4458 1.377 . S
C4445 C4444 1.524 1_455 S
C4445 C4446 1.397 . S
C4445 C4450 1.363 . S
C4446 H4423 0.950 . S
C4446 C4445 1.397 . S
C4446 C4447 1.334 . S
C4447 H4424 0.950 . S
C4447 C4446 1.334 . S
C4447 C4448 1.287 . S
C4448 C4447 1.287 . S
C4448 C4449 1.524 . S
C4448 H4467 0.913 . S
C4449 H4425 0.950 . S
C4449 C4448 1.524 . S
C4449 C4450 1.415 . S
C4450 H4426 0.950 . S
C4450 C4445 1.363 . S
C4450 C4449 1.415 . S
C4451 H4427 0.951 . S
C4451 C4452 1.366 . S
C4451 C4453 1.388 . S
C4452 C4451 1.366 . S
C4452 C4456 1.385 1_655 S
C4453 H4428 0.951 . S
C4453 C4451 1.388 . S
C4453 C4454 1.366 . S
C4454 C4453 1.366 . S
C4454 C4455 1.418 . S
C4454 C4457 1.499 . S
C4455 H4429 0.942 1_655 S
C4455 C4454 1.418 . S
C4455 C4456 1.378 1_655 S
C4456 H4430 0.950 . S
C4456 C4452 1.385 1_455 S
C4456 C4455 1.378 1_455 S
C4457 C4454 1.499 . S
C4457 C4458 1.373 . S
C4457 C4459 1.389 . S
C4458 H4431 0.950 1_655 S
C4458 C4444 1.377 . S
C4458 C4457 1.373 . S
C4459 C4443 1.377 . S
C4459 C4457 1.389 . S
C4459 C4460 1.524 . S
C4460 C4459 1.524 . S
C4460 C4461 1.397 . S
C4460 C4465 1.363 . S
C4461 H4432 0.950 . S
C4461 C4460 1.397 . S
C4461 C4462 1.334 . S
C4462 H4433 0.950 . S
C4462 C4461 1.334 . S
C4462 C4463 1.287 . S
C4463 C4462 1.287 . S
C4463 C4464 1.524 . S
C4463 H4466 0.999 . S
C4464 H4434 0.950 . S
C4464 C4463 1.524 . S
C4464 C4465 1.415 . S
C4465 H4435 0.950 . S
C4465 C4460 1.363 . S
C4465 C4464 1.415 . S
H4466 C4463 0.999 . S
H4467 C4448 0.913 . S
H4468 C4486 0.951 . S
H4469 C4488 0.951 . S
H4470 C4490 0.950 . S
H4471 C4491 0.950 . S
H4472 C4493 0.950 . S
H4473 C4496 0.950 . S
H4474 C4497 0.950 . S
H4475 C4499 0.950 . S
H4476 C4500 0.950 . S
H4477 C4501 0.951 . S
H4478 C4503 0.951 . S
H4479 C4505 0.950 . S
H4480 C4506 0.950 . S
H4481 C4508 0.950 . S
H4482 C4511 0.950 . S
H4483 C4512 0.950 . S
H4484 C4514 0.950 . S
H4485 C4515 0.950 . S
C4486 H4468 0.951 . S
C4486 C4487 1.366 . S
C4486 C4488 1.388 . S
C4487 C4486 1.366 . S
C4487 C4491 1.385 . S
C4488 H4469 0.951 . S
C4488 C4486 1.388 . S
C4488 C4489 1.366 . S
C4489 C4488 1.366 . S
C4489 C4490 1.414 . S
C4489 C4492 1.499 . S
C4490 H4470 0.950 . S
C4490 C4489 1.414 . S
C4490 C4491 1.374 . S
C4491 H4471 0.950 . S
C4491 C4487 1.385 . S
C4491 C4490 1.374 . S
C4492 C4489 1.499 . S
C4492 C4493 1.373 . S
C4492 C4494 1.389 . S
C4493 H4472 0.950 . S
C4493 C4492 1.373 . S
C4493 C4509 1.377 . S
C4494 C4492 1.389 . S
C4494 C4495 1.524 . S
C4494 C4508 1.377 . S
C4495 C4494 1.524 . S
C4495 C4496 1.397 . S
C4495 C4500 1.363 . S
C4496 H4473 0.950 . S
C4496 C4495 1.397 . S
C4496 C4497 1.334 . S
C4497 H4474 0.950 . S
C4497 C4496 1.334 . S
C4497 C4498 1.287 . S
C4498 C4497 1.287 . S
C4498 C4499 1.524 . S
C4498 H4517 0.913 . S
C4499 H4475 0.950 . S
C4499 C4498 1.524 . S
C4499 C4500 1.415 . S
C4500 H4476 0.950 . S
C4500 C4495 1.363 . S
C4500 C4499 1.415 . S
C4501 H4477 0.951 . S
C4501 C4502 1.366 . S
C4501 C4503 1.388 . S
C4502 C4501 1.366 . S
C4502 C4506 1.385 . S
C4503 H4478 0.951 . S
C4503 C4501 1.388 . S
C4503 C4504 1.366 . S
C4504 C4503 1.366 . S
C4504 C4505 1.414 . S
C4504 C4507 1.499 . S
C4505 H4479 0.950 . S
C4505 C4504 1.414 . S
C4505 C4506 1.374 . S
C4506 H4480 0.950 . S
C4506 C4502 1.385 . S
C4506 C4505 1.374 . S
C4507 C4504 1.499 . S
C4507 C4508 1.373 . S
C4507 C4509 1.389 . S
C4508 H4481 0.950 . S
C4508 C4494 1.377 . S
C4508 C4507 1.373 . S
C4509 C4493 1.377 . S
C4509 C4507 1.389 . S
C4509 C4510 1.524 . S
C4510 C4509 1.524 . S
C4510 C4511 1.397 . S
C4510 C4515 1.363 . S
C4511 H4482 0.950 . S
C4511 C4510 1.397 . S
C4511 C4512 1.334 . S
C4512 H4483 0.950 . S
C4512 C4511 1.334 . S
C4512 C4513 1.287 . S
C4513 C4512 1.287 . S
C4513 C4514 1.524 . S
C4513 H4516 0.999 . S
C4514 H4484 0.950 . S
C4514 C4513 1.524 . S
C4514 C4515 1.415 . S
C4515 H4485 0.950 . S
C4515 C4510 1.363 . S
C4515 C4514 1.415 . S
H4516 C4513 0.999 . S
H4517 C4498 0.913 . S
H4518 C4536 0.951 . S
H4519 C4538 0.951 . S
H4520 C4540 0.950 . S
H4521 C4541 0.950 . S
H4522 C4543 0.950 . S
H4523 C4546 0.950 . S
H4524 C4547 0.950 . S
H4525 C4549 0.950 . S
H4526 C4550 0.950 . S
H4527 C4551 0.951 . S
H4528 C4553 0.951 . S
H4529 C4555 0.950 . S
H4530 C4556 0.950 . S
H4531 C4558 0.950 . S
H4532 C4561 0.950 . S
H4533 C4562 0.950 . S
H4534 C4564 0.950 . S
H4535 C4565 0.950 . S
C4536 H4518 0.951 . S
C4536 C4537 1.366 . S
C4536 C4538 1.388 . S
C4537 C4536 1.366 . S
C4537 C4541 1.385 . S
C4538 H4519 0.951 . S
C4538 C4536 1.388 . S
C4538 C4539 1.366 . S
C4539 C4538 1.366 . S
C4539 C4540 1.414 . S
C4539 C4542 1.499 . S
C4540 H4520 0.950 . S
C4540 C4539 1.414 . S
C4540 C4541 1.374 . S
C4541 H4521 0.950 . S
C4541 C4537 1.385 . S
C4541 C4540 1.374 . S
C4542 C4539 1.499 . S
C4542 C4543 1.373 . S
C4542 C4544 1.389 . S
C4543 H4522 0.950 . S
C4543 C4542 1.373 . S
C4543 C4559 1.377 . S
C4544 C4542 1.389 . S
C4544 C4545 1.524 . S
C4544 C4558 1.377 . S
C4545 C4544 1.524 . S
C4545 C4546 1.397 . S
C4545 C4550 1.363 . S
C4546 H4523 0.950 . S
C4546 C4545 1.397 . S
C4546 C4547 1.334 . S
C4547 H4524 0.950 . S
C4547 C4546 1.334 . S
C4547 C4548 1.287 . S
C4548 C4547 1.287 . S
C4548 C4549 1.524 . S
C4548 H4567 0.913 . S
C4549 H4525 0.950 . S
C4549 C4548 1.524 . S
C4549 C4550 1.415 . S
C4550 H4526 0.950 . S
C4550 C4545 1.363 . S
C4550 C4549 1.415 . S
C4551 H4527 0.951 . S
C4551 C4552 1.366 . S
C4551 C4553 1.388 . S
C4552 C4551 1.366 . S
C4552 C4556 1.385 . S
C4553 H4528 0.951 . S
C4553 C4551 1.388 . S
C4553 C4554 1.366 . S
C4554 C4553 1.366 . S
C4554 C4555 1.414 . S
C4554 C4557 1.499 . S
C4555 H4529 0.950 . S
C4555 C4554 1.414 . S
C4555 C4556 1.374 . S
C4556 H4530 0.950 . S
C4556 C4552 1.385 . S
C4556 C4555 1.374 . S
C4557 C4554 1.499 . S
C4557 C4558 1.373 . S
C4557 C4559 1.389 . S
C4558 H4531 0.950 . S
C4558 C4544 1.377 . S
C4558 C4557 1.373 . S
C4559 C4543 1.377 . S
C4559 C4557 1.389 . S
C4559 C4560 1.524 . S
C4560 C4559 1.524 . S
C4560 C4561 1.397 . S
C4560 C4565 1.363 . S
C4561 H4532 0.950 . S
C4561 C4560 1.397 . S
C4561 C4562 1.334 . S
C4562 H4533 0.950 . S
C4562 C4561 1.334 . S
C4562 C4563 1.287 . S
C4563 C4562 1.287 . S
C4563 C4564 1.524 . S
C4563 H4566 0.999 . S
C4564 H4534 0.950 . S
C4564 C4563 1.524 . S
C4564 C4565 1.415 . S
C4565 H4535 0.950 . S
C4565 C4560 1.363 . S
C4565 C4564 1.415 . S
H4566 C4563 0.999 . S
H4567 C4548 0.913 . S
H4568 C4586 0.951 1_545 S
H4569 C4588 0.951 . S
H4570 C4590 0.950 . S
H4571 C4591 0.950 . S
H4572 C4593 0.950 . S
H4573 C4596 0.950 . S
H4574 C4597 0.950 . S
H4575 C4599 0.950 . S
H4576 C4600 0.950 . S
H4577 C4601 0.951 . S
H4578 C4603 0.951 . S
H4579 C4605 0.950 . S
H4580 C4606 0.950 . S
H4581 C4608 0.950 . S
H4582 C4611 0.950 . S
H4583 C4612 0.950 . S
H4584 C4614 0.950 . S
H4585 C4615 0.950 . S
C4586 H4568 0.951 1_565 S
C4586 C4587 1.366 . S
C4586 C4588 1.388 . S
C4587 C4586 1.366 . S
C4587 C4591 1.385 . S
C4588 H4569 0.951 . S
C4588 C4586 1.388 . S
C4588 C4589 1.366 . S
C4589 C4588 1.366 . S
C4589 C4590 1.414 . S
C4589 C4592 1.499 . S
C4590 H4570 0.950 . S
C4590 C4589 1.414 . S
C4590 C4591 1.374 . S
C4591 H4571 0.950 . S
C4591 C4587 1.385 . S
C4591 C4590 1.374 . S
C4592 C4589 1.499 . S
C4592 C4593 1.373 . S
C4592 C4594 1.389 . S
C4593 H4572 0.950 . S
C4593 C4592 1.373 . S
C4593 C4609 1.377 . S
C4594 C4592 1.389 . S
C4594 C4595 1.524 . S
C4594 C4608 1.377 . S
C4595 C4594 1.524 . S
C4595 C4596 1.397 . S
C4595 C4600 1.363 . S
C4596 H4573 0.950 . S
C4596 C4595 1.397 . S
C4596 C4597 1.334 . S
C4597 H4574 0.950 . S
C4597 C4596 1.334 . S
C4597 C4598 1.287 . S
C4598 C4597 1.287 . S
C4598 C4599 1.524 . S
C4598 H4617 0.913 . S
C4599 H4575 0.950 . S
C4599 C4598 1.524 . S
C4599 C4600 1.415 . S
C4600 H4576 0.950 . S
C4600 C4595 1.363 . S
C4600 C4599 1.415 . S
C4601 H4577 0.951 . S
C4601 C4602 1.366 . S
C4601 C4603 1.388 . S
C4602 C4601 1.366 . S
C4602 C4606 1.385 . S
C4603 H4578 0.951 . S
C4603 C4601 1.388 . S
C4603 C4604 1.366 . S
C4604 C4603 1.366 . S
C4604 C4605 1.414 . S
C4604 C4607 1.499 . S
C4605 H4579 0.950 . S
C4605 C4604 1.414 . S
C4605 C4606 1.374 . S
C4606 H4580 0.950 . S
C4606 C4602 1.385 . S
C4606 C4605 1.374 . S
C4607 C4604 1.499 . S
C4607 C4608 1.373 . S
C4607 C4609 1.389 . S
C4608 H4581 0.950 . S
C4608 C4594 1.377 . S
C4608 C4607 1.373 . S
C4609 C4593 1.377 . S
C4609 C4607 1.389 . S
C4609 C4610 1.524 . S
C4610 C4609 1.524 . S
C4610 C4611 1.397 . S
C4610 C4615 1.363 . S
C4611 H4582 0.950 . S
C4611 C4610 1.397 . S
C4611 C4612 1.334 . S
C4612 H4583 0.950 . S
C4612 C4611 1.334 . S
C4612 C4613 1.287 . S
C4613 C4612 1.287 . S
C4613 C4614 1.524 . S
C4613 H4616 0.999 . S
C4614 H4584 0.950 . S
C4614 C4613 1.524 . S
C4614 C4615 1.415 . S
C4615 H4585 0.950 . S
C4615 C4610 1.363 . S
C4615 C4614 1.415 . S
H4616 C4613 0.999 . S
H4617 C4598 0.913 . S
H4618 C4636 0.951 . S
H4619 C4638 0.951 . S
H4620 C4640 0.950 . S
H4621 C4641 0.950 . S
H4622 C4643 0.950 . S
H4623 C4646 0.950 . S
H4624 C4647 0.950 . S
H4625 C4649 0.950 . S
H4626 C4650 0.950 . S
H4627 C4651 0.951 . S
H4628 C4653 0.951 . S
H4629 C4655 0.950 . S
H4630 C4656 0.950 . S
H4631 C4658 0.950 . S
H4632 C4661 0.950 . S
H4633 C4662 0.950 . S
H4634 C4664 0.950 . S
H4635 C4665 0.950 . S
C4636 H4618 0.951 . S
C4636 C4637 1.366 . S
C4636 C4638 1.388 . S
C4637 C4636 1.366 . S
C4637 C4641 1.385 . S
C4638 H4619 0.951 . S
C4638 C4636 1.388 . S
C4638 C4639 1.366 . S
C4639 C4638 1.366 . S
C4639 C4640 1.414 . S
C4639 C4642 1.499 . S
C4640 H4620 0.950 . S
C4640 C4639 1.414 . S
C4640 C4641 1.374 . S
C4641 H4621 0.950 . S
C4641 C4637 1.385 . S
C4641 C4640 1.374 . S
C4642 C4639 1.499 . S
C4642 C4643 1.373 . S
C4642 C4644 1.389 . S
C4643 H4622 0.950 . S
C4643 C4642 1.373 . S
C4643 C4659 1.377 . S
C4644 C4642 1.389 . S
C4644 C4645 1.524 . S
C4644 C4658 1.377 . S
C4645 C4644 1.524 . S
C4645 C4646 1.397 . S
C4645 C4650 1.363 . S
C4646 H4623 0.950 . S
C4646 C4645 1.397 . S
C4646 C4647 1.334 . S
C4647 H4624 0.950 . S
C4647 C4646 1.334 . S
C4647 C4648 1.287 . S
C4648 C4647 1.287 . S
C4648 C4649 1.524 . S
C4648 H4667 0.913 . S
C4649 H4625 0.950 . S
C4649 C4648 1.524 . S
C4649 C4650 1.415 . S
C4650 H4626 0.950 . S
C4650 C4645 1.363 . S
C4650 C4649 1.415 . S
C4651 H4627 0.951 . S
C4651 C4652 1.366 . S
C4651 C4653 1.388 . S
C4652 C4651 1.366 . S
C4652 C4656 1.385 . S
C4653 H4628 0.951 . S
C4653 C4651 1.388 . S
C4653 C4654 1.366 . S
C4654 C4653 1.366 . S
C4654 C4655 1.414 . S
C4654 C4657 1.499 . S
C4655 H4629 0.950 . S
C4655 C4654 1.414 . S
C4655 C4656 1.374 . S
C4656 H4630 0.950 . S
C4656 C4652 1.385 . S
C4656 C4655 1.374 . S
C4657 C4654 1.499 . S
C4657 C4658 1.373 . S
C4657 C4659 1.389 . S
C4658 H4631 0.950 . S
C4658 C4644 1.377 . S
C4658 C4657 1.373 . S
C4659 C4643 1.377 . S
C4659 C4657 1.389 . S
C4659 C4660 1.524 . S
C4660 C4659 1.524 . S
C4660 C4661 1.397 . S
C4660 C4665 1.363 . S
C4661 H4632 0.950 . S
C4661 C4660 1.397 . S
C4661 C4662 1.334 . S
C4662 H4633 0.950 . S
C4662 C4661 1.334 . S
C4662 C4663 1.287 . S
C4663 C4662 1.287 . S
C4663 C4664 1.524 . S
C4663 H4666 0.999 . S
C4664 H4634 0.950 . S
C4664 C4663 1.524 . S
C4664 C4665 1.415 . S
C4665 H4635 0.950 . S
C4665 C4660 1.363 . S
C4665 C4664 1.415 . S
H4666 C4663 0.999 . S
H4667 C4648 0.913 . S
H4668 C4686 0.951 . S
H4669 C4688 0.951 . S
H4670 C4690 0.950 . S
H4671 C4691 0.950 . S
H4672 C4693 0.950 . S
H4673 C4696 0.950 . S
H4674 C4697 0.950 . S
H4675 C4699 0.950 . S
H4676 C4700 0.950 . S
H4677 C4701 0.951 . S
H4678 C4703 0.951 . S
H4679 C4705 0.950 . S
H4680 C4706 0.950 . S
H4681 C4708 0.950 . S
H4682 C4711 0.950 . S
H4683 C4712 0.950 . S
H4684 C4714 0.950 . S
H4685 C4715 0.950 . S
C4686 H4668 0.951 . S
C4686 C4687 1.366 . S
C4686 C4688 1.388 . S
C4687 C4686 1.366 . S
C4687 C4691 1.385 . S
C4688 H4669 0.951 . S
C4688 C4686 1.388 . S
C4688 C4689 1.366 . S
C4689 C4688 1.366 . S
C4689 C4690 1.414 . S
C4689 C4692 1.499 . S
C4690 H4670 0.950 . S
C4690 C4689 1.414 . S
C4690 C4691 1.374 . S
C4691 H4671 0.950 . S
C4691 C4687 1.385 . S
C4691 C4690 1.374 . S
C4692 C4689 1.499 . S
C4692 C4693 1.373 . S
C4692 C4694 1.389 . S
C4693 H4672 0.950 . S
C4693 C4692 1.373 . S
C4693 C4709 1.377 . S
C4694 C4692 1.389 . S
C4694 C4695 1.524 . S
C4694 C4708 1.377 . S
C4695 C4694 1.524 . S
C4695 C4696 1.397 . S
C4695 C4700 1.363 . S
C4696 H4673 0.950 . S
C4696 C4695 1.397 . S
C4696 C4697 1.334 . S
C4697 H4674 0.950 . S
C4697 C4696 1.334 . S
C4697 C4698 1.287 . S
C4698 C4697 1.287 . S
C4698 C4699 1.524 . S
C4698 H4717 0.913 . S
C4699 H4675 0.950 . S
C4699 C4698 1.524 . S
C4699 C4700 1.415 . S
C4700 H4676 0.950 . S
C4700 C4695 1.363 . S
C4700 C4699 1.415 . S
C4701 H4677 0.951 . S
C4701 C4702 1.366 . S
C4701 C4703 1.388 . S
C4702 C4701 1.366 . S
C4702 C4706 1.385 . S
C4703 H4678 0.951 . S
C4703 C4701 1.388 . S
C4703 C4704 1.366 . S
C4704 C4703 1.366 . S
C4704 C4705 1.414 . S
C4704 C4707 1.499 . S
C4705 H4679 0.950 . S
C4705 C4704 1.414 . S
C4705 C4706 1.374 . S
C4706 H4680 0.950 . S
C4706 C4702 1.385 . S
C4706 C4705 1.374 . S
C4707 C4704 1.499 . S
C4707 C4708 1.373 . S
C4707 C4709 1.389 . S
C4708 H4681 0.950 . S
C4708 C4694 1.377 . S
C4708 C4707 1.373 . S
C4709 C4693 1.377 . S
C4709 C4707 1.389 . S
C4709 C4710 1.524 . S
C4710 C4709 1.524 . S
C4710 C4711 1.397 . S
C4710 C4715 1.363 . S
C4711 H4682 0.950 . S
C4711 C4710 1.397 . S
C4711 C4712 1.334 . S
C4712 H4683 0.950 . S
C4712 C4711 1.334 . S
C4712 C4713 1.287 . S
C4713 C4712 1.287 . S
C4713 C4714 1.524 . S
C4713 H4716 0.999 . S
C4714 H4684 0.950 . S
C4714 C4713 1.524 . S
C4714 C4715 1.415 . S
C4715 H4685 0.950 . S
C4715 C4710 1.363 . S
C4715 C4714 1.415 . S
H4716 C4713 0.999 . S
H4717 C4698 0.913 . S
H4718 C4736 0.951 . S
H4719 C4738 0.951 . S
H4720 C4740 0.950 . S
H4721 C4741 0.950 . S
H4722 C4743 0.950 . S
H4723 C4746 0.950 . S
H4724 C4747 0.950 . S
H4725 C4749 0.950 . S
H4726 C4750 0.950 . S
H4727 C4751 0.951 . S
H4728 C4753 0.951 . S
H4729 C4755 0.950 . S
H4730 C4756 0.950 . S
H4731 C4758 0.950 . S
H4732 C4761 0.950 . S
H4733 C4762 0.950 . S
H4734 C4764 0.950 . S
H4735 C4765 0.950 . S
C4736 H4718 0.951 . S
C4736 C4737 1.366 . S
C4736 C4738 1.388 . S
C4737 C4736 1.366 . S
C4737 C4741 1.385 . S
C4738 H4719 0.951 . S
C4738 C4736 1.388 . S
C4738 C4739 1.366 . S
C4739 C4738 1.366 . S
C4739 C4740 1.414 . S
C4739 C4742 1.499 . S
C4740 H4720 0.950 . S
C4740 C4739 1.414 . S
C4740 C4741 1.374 . S
C4741 H4721 0.950 . S
C4741 C4737 1.385 . S
C4741 C4740 1.374 . S
C4742 C4739 1.499 . S
C4742 C4743 1.373 . S
C4742 C4744 1.389 . S
C4743 H4722 0.950 . S
C4743 C4742 1.373 . S
C4743 C4759 1.377 . S
C4744 C4742 1.389 . S
C4744 C4745 1.524 . S
C4744 C4758 1.377 . S
C4745 C4744 1.524 . S
C4745 C4746 1.397 . S
C4745 C4750 1.363 . S
C4746 H4723 0.950 . S
C4746 C4745 1.397 . S
C4746 C4747 1.334 . S
C4747 H4724 0.950 . S
C4747 C4746 1.334 . S
C4747 C4748 1.287 . S
C4748 C4747 1.287 . S
C4748 C4749 1.524 . S
C4748 H4767 0.913 . S
C4749 H4725 0.950 . S
C4749 C4748 1.524 . S
C4749 C4750 1.415 . S
C4750 H4726 0.950 . S
C4750 C4745 1.363 . S
C4750 C4749 1.415 . S
C4751 H4727 0.951 . S
C4751 C4752 1.366 . S
C4751 C4753 1.388 . S
C4752 C4751 1.366 . S
C4752 C4756 1.385 . S
C4753 H4728 0.951 . S
C4753 C4751 1.388 . S
C4753 C4754 1.366 . S
C4754 C4753 1.366 . S
C4754 C4755 1.414 . S
C4754 C4757 1.499 . S
C4755 H4729 0.950 . S
C4755 C4754 1.414 . S
C4755 C4756 1.374 . S
C4756 H4730 0.950 . S
C4756 C4752 1.385 . S
C4756 C4755 1.374 . S
C4757 C4754 1.499 . S
C4757 C4758 1.373 . S
C4757 C4759 1.389 . S
C4758 H4731 0.950 . S
C4758 C4744 1.377 . S
C4758 C4757 1.373 . S
C4759 C4743 1.377 . S
C4759 C4757 1.389 . S
C4759 C4760 1.524 . S
C4760 C4759 1.524 . S
C4760 C4761 1.397 . S
C4760 C4765 1.363 . S
C4761 H4732 0.950 . S
C4761 C4760 1.397 . S
C4761 C4762 1.334 . S
C4762 H4733 0.950 . S
C4762 C4761 1.334 . S
C4762 C4763 1.287 . S
C4763 C4762 1.287 . S
C4763 C4764 1.524 . S
C4763 H4766 0.999 . S
C4764 H4734 0.950 . S
C4764 C4763 1.524 . S
C4764 C4765 1.415 . S
C4765 H4735 0.950 . S
C4765 C4760 1.363 . S
C4765 C4764 1.415 . S
H4766 C4763 0.999 . S
H4767 C4748 0.913 . S
H4768 C4786 0.951 1_655 S
H4769 C4788 0.951 . S
H4770 C4790 0.950 . S
H4771 C4791 0.950 . S
H4772 C4793 0.950 . S
H4773 C4796 0.950 . S
H4774 C4797 0.950 . S
H4775 C4799 0.950 . S
H4776 C4800 0.950 . S
H4777 C4801 0.951 . S
H4778 C4803 0.951 . S
H4779 C4805 0.950 . S
H4780 C4806 0.950 . S
H4781 C4808 0.950 . S
H4782 C4811 0.950 . S
H4783 C4812 0.950 . S
H4784 C4814 0.950 . S
H4785 C4815 0.950 . S
C4786 H4768 0.951 1_455 S
C4786 C4787 1.366 . S
C4786 C4788 1.388 . S
C4787 C4786 1.366 . S
C4787 C4791 1.385 . S
C4788 H4769 0.951 . S
C4788 C4786 1.388 . S
C4788 C4789 1.366 . S
C4789 C4788 1.366 . S
C4789 C4790 1.414 . S
C4789 C4792 1.499 . S
C4790 H4770 0.950 . S
C4790 C4789 1.414 . S
C4790 C4791 1.374 . S
C4791 H4771 0.950 . S
C4791 C4787 1.385 . S
C4791 C4790 1.374 . S
C4792 C4789 1.499 . S
C4792 C4793 1.373 . S
C4792 C4794 1.389 . S
C4793 H4772 0.950 . S
C4793 C4792 1.373 . S
C4793 C4809 1.377 . S
C4794 C4792 1.389 . S
C4794 C4795 1.524 . S
C4794 C4808 1.377 . S
C4795 C4794 1.524 . S
C4795 C4796 1.397 . S
C4795 C4800 1.363 . S
C4796 H4773 0.950 . S
C4796 C4795 1.397 . S
C4796 C4797 1.334 . S
C4797 H4774 0.950 . S
C4797 C4796 1.334 . S
C4797 C4798 1.287 . S
C4798 C4797 1.287 . S
C4798 C4799 1.524 . S
C4798 H4817 0.913 . S
C4799 H4775 0.950 . S
C4799 C4798 1.524 . S
C4799 C4800 1.415 . S
C4800 H4776 0.950 . S
C4800 C4795 1.363 . S
C4800 C4799 1.415 . S
C4801 H4777 0.951 . S
C4801 C4802 1.366 . S
C4801 C4803 1.388 . S
C4802 C4801 1.366 . S
C4802 C4806 1.385 . S
C4803 H4778 0.951 . S
C4803 C4801 1.388 . S
C4803 C4804 1.366 . S
C4804 C4803 1.366 . S
C4804 C4805 1.414 . S
C4804 C4807 1.499 . S
C4805 H4779 0.950 . S
C4805 C4804 1.414 . S
C4805 C4806 1.374 . S
C4806 H4780 0.950 . S
C4806 C4802 1.385 . S
C4806 C4805 1.374 . S
C4807 C4804 1.499 . S
C4807 C4808 1.373 . S
C4807 C4809 1.389 . S
C4808 H4781 0.950 . S
C4808 C4794 1.377 . S
C4808 C4807 1.373 . S
C4809 C4793 1.377 . S
C4809 C4807 1.389 . S
C4809 C4810 1.524 . S
C4810 C4809 1.524 . S
C4810 C4811 1.397 . S
C4810 C4815 1.363 . S
C4811 H4782 0.950 . S
C4811 C4810 1.397 . S
C4811 C4812 1.334 . S
C4812 H4783 0.950 . S
C4812 C4811 1.334 . S
C4812 C4813 1.287 . S
C4813 C4812 1.287 . S
C4813 C4814 1.524 . S
C4813 H4816 0.999 . S
C4814 H4784 0.950 . S
C4814 C4813 1.524 . S
C4814 C4815 1.415 . S
C4815 H4785 0.950 . S
C4815 C4810 1.363 . S
C4815 C4814 1.415 . S
H4816 C4813 0.999 . S
H4817 C4798 0.913 . S
H4818 C4836 0.951 . S
H4819 C4838 0.951 . S
H4820 C4840 0.950 . S
H4821 C4841 0.950 . S
H4822 C4843 0.924 1_455 S
H4823 C4846 0.950 . S
H4824 C4847 0.950 . S
H4825 C4849 0.950 . S
H4826 C4850 0.950 . S
H4827 C4851 0.951 . S
H4828 C4853 0.949 1_455 S
H4829 C4855 0.950 . S
H4830 C4856 0.950 . S
H4831 C4858 0.950 . S
H4832 C4861 0.950 . S
H4833 C4862 0.950 . S
H4834 C4864 0.950 . S
H4835 C4865 0.950 . S
C4836 H4818 0.951 . S
C4836 C4837 1.366 . S
C4836 C4838 1.388 . S
C4837 C4836 1.366 . S
C4837 C4841 1.385 . S
C4838 H4819 0.951 . S
C4838 C4836 1.388 . S
C4838 C4839 1.366 . S
C4839 C4838 1.366 . S
C4839 C4840 1.414 . S
C4839 C4842 1.499 . S
C4840 H4820 0.950 . S
C4840 C4839 1.414 . S
C4840 C4841 1.374 . S
C4841 H4821 0.950 . S
C4841 C4837 1.385 . S
C4841 C4840 1.374 . S
C4842 C4839 1.499 . S
C4842 C4843 1.373 . S
C4842 C4844 1.389 . S
C4843 H4822 0.924 1_655 S
C4843 C4842 1.373 . S
C4843 C4859 1.377 . S
C4844 C4842 1.389 . S
C4844 C4845 1.524 . S
C4844 C4858 1.377 . S
C4845 C4844 1.524 . S
C4845 C4846 1.397 . S
C4845 C4850 1.363 . S
C4846 H4823 0.950 . S
C4846 C4845 1.397 . S
C4846 C4847 1.334 . S
C4847 H4824 0.950 . S
C4847 C4846 1.334 . S
C4847 C4848 1.287 . S
C4848 C4847 1.287 . S
C4848 C4849 1.524 . S
C4848 H4867 0.913 . S
C4849 H4825 0.950 . S
C4849 C4848 1.524 . S
C4849 C4850 1.415 . S
C4850 H4826 0.950 . S
C4850 C4845 1.363 . S
C4850 C4849 1.415 . S
C4851 H4827 0.951 . S
C4851 C4852 1.366 1_455 S
C4851 C4853 1.383 1_455 S
C4852 C4851 1.366 1_655 S
C4852 C4856 1.385 . S
C4853 H4828 0.949 1_655 S
C4853 C4851 1.383 1_655 S
C4853 C4854 1.372 . S
C4854 C4853 1.372 . S
C4854 C4855 1.414 . S
C4854 C4857 1.499 . S
C4855 H4829 0.950 . S
C4855 C4854 1.414 . S
C4855 C4856 1.374 . S
C4856 H4830 0.950 . S
C4856 C4852 1.385 . S
C4856 C4855 1.374 . S
C4857 C4854 1.499 . S
C4857 C4858 1.373 . S
C4857 C4859 1.389 . S
C4858 H4831 0.950 . S
C4858 C4844 1.377 . S
C4858 C4857 1.373 . S
C4859 C4843 1.377 . S
C4859 C4857 1.389 . S
C4859 C4860 1.524 1_655 S
C4860 C4859 1.524 1_455 S
C4860 C4861 1.397 . S
C4860 C4865 1.363 . S
C4861 H4832 0.950 . S
C4861 C4860 1.397 . S
C4861 C4862 1.334 . S
C4862 H4833 0.950 . S
C4862 C4861 1.334 . S
C4862 C4863 1.287 . S
C4863 C4862 1.287 . S
C4863 C4864 1.524 . S
C4863 H4866 0.999 . S
C4864 H4834 0.950 . S
C4864 C4863 1.524 . S
C4864 C4865 1.415 . S
C4865 H4835 0.950 . S
C4865 C4860 1.363 . S
C4865 C4864 1.415 . S
H4866 C4863 0.999 . S
H4867 C4848 0.913 . S
H4868 C4886 0.951 . S
H4869 C4888 0.951 . S
H4870 C4890 0.950 . S
H4871 C4891 0.950 . S
H4872 C4893 0.950 . S
H4873 C4896 0.950 . S
H4874 C4897 0.950 . S
H4875 C4899 0.950 . S
H4876 C4900 0.950 . S
H4877 C4901 0.951 . S
H4878 C4903 0.951 . S
H4879 C4905 0.950 . S
H4880 C4906 0.950 . S
H4881 C4908 0.950 . S
H4882 C4911 0.950 . S
H4883 C4912 0.950 . S
H4884 C4914 0.950 . S
H4885 C4915 0.950 . S
C4886 H4868 0.951 . S
C4886 C4887 1.366 . S
C4886 C4888 1.388 . S
C4887 C4886 1.366 . S
C4887 C4891 1.385 . S
C4888 H4869 0.951 . S
C4888 C4886 1.388 . S
C4888 C4889 1.366 . S
C4889 C4888 1.366 . S
C4889 C4890 1.414 . S
C4889 C4892 1.499 . S
C4890 H4870 0.950 . S
C4890 C4889 1.414 . S
C4890 C4891 1.374 . S
C4891 H4871 0.950 . S
C4891 C4887 1.385 . S
C4891 C4890 1.374 . S
C4892 C4889 1.499 . S
C4892 C4893 1.373 . S
C4892 C4894 1.389 . S
C4893 H4872 0.950 . S
C4893 C4892 1.373 . S
C4893 C4909 1.377 . S
C4894 C4892 1.389 . S
C4894 C4895 1.524 . S
C4894 C4908 1.377 . S
C4895 C4894 1.524 . S
C4895 C4896 1.397 . S
C4895 C4900 1.363 . S
C4896 H4873 0.950 . S
C4896 C4895 1.397 . S
C4896 C4897 1.334 . S
C4897 H4874 0.950 . S
C4897 C4896 1.334 . S
C4897 C4898 1.287 . S
C4898 C4897 1.287 . S
C4898 C4899 1.524 . S
C4898 H4917 0.913 . S
C4899 H4875 0.950 . S
C4899 C4898 1.524 . S
C4899 C4900 1.415 . S
C4900 H4876 0.950 . S
C4900 C4895 1.363 . S
C4900 C4899 1.415 . S
C4901 H4877 0.951 . S
C4901 C4902 1.366 . S
C4901 C4903 1.388 . S
C4902 C4901 1.366 . S
C4902 C4906 1.385 . S
C4903 H4878 0.951 . S
C4903 C4901 1.388 . S
C4903 C4904 1.366 . S
C4904 C4903 1.366 . S
C4904 C4905 1.414 . S
C4904 C4907 1.499 . S
C4905 H4879 0.950 . S
C4905 C4904 1.414 . S
C4905 C4906 1.374 . S
C4906 H4880 0.950 . S
C4906 C4902 1.385 . S
C4906 C4905 1.374 . S
C4907 C4904 1.499 . S
C4907 C4908 1.373 . S
C4907 C4909 1.389 . S
C4908 H4881 0.950 . S
C4908 C4894 1.377 . S
C4908 C4907 1.373 . S
C4909 C4893 1.377 . S
C4909 C4907 1.389 . S
C4909 C4910 1.524 . S
C4910 C4909 1.524 . S
C4910 C4911 1.397 . S
C4910 C4915 1.363 . S
C4911 H4882 0.950 . S
C4911 C4910 1.397 . S
C4911 C4912 1.334 . S
C4912 H4883 0.950 . S
C4912 C4911 1.334 . S
C4912 C4913 1.287 . S
C4913 C4912 1.287 . S
C4913 C4914 1.524 . S
C4913 H4916 0.999 . S
C4914 H4884 0.950 . S
C4914 C4913 1.524 . S
C4914 C4915 1.415 . S
C4915 H4885 0.950 . S
C4915 C4910 1.363 . S
C4915 C4914 1.415 . S
H4916 C4913 0.999 . S
H4917 C4898 0.913 . S
H4918 C4936 0.951 . S
H4919 C4938 0.996 . S
H4920 C4940 0.950 . S
H4921 C4941 0.950 . S
H4922 C4943 0.950 . S
H4923 C4946 0.950 . S
H4924 C4947 0.958 . S
H4925 C4949 0.950 . S
H4926 C4950 0.950 . S
H4927 C4951 0.951 . S
H4928 C4953 0.951 . S
H4929 C4955 0.950 . S
H4930 C4956 0.950 . S
H4931 C4958 0.950 1_565 S
H4932 C4961 0.950 . S
H4933 C4962 0.950 . S
H4934 C4964 0.950 . S
H4935 C4965 0.950 . S
C4936 H4918 0.951 . S
C4936 C4937 1.366 . S
C4936 C4938 1.388 . S
C4937 C4936 1.366 . S
C4937 C4941 1.385 . S
C4938 H4919 0.996 . S
C4938 C4936 1.388 . S
C4938 C4939 1.366 . S
C4939 C4938 1.366 . S
C4939 C4940 1.414 . S
C4939 C4942 1.499 . S
C4940 H4920 0.950 . S
C4940 C4939 1.414 . S
C4940 C4941 1.374 . S
C4941 H4921 0.950 . S
C4941 C4937 1.385 . S
C4941 C4940 1.374 . S
C4942 C4939 1.499 . S
C4942 C4943 1.373 . S
C4942 C4944 1.389 . S
C4943 H4922 0.950 . S
C4943 C4942 1.373 . S
C4943 C4959 1.377 . S
C4944 C4942 1.389 . S
C4944 C4945 1.480 1_545 S
C4944 C4958 1.377 . S
C4945 C4944 1.480 1_565 S
C4945 C4946 1.373 1_565 S
C4945 C4950 1.428 . S
C4946 H4923 0.950 . S
C4946 C4945 1.373 1_545 S
C4946 C4947 1.348 . S
C4947 H4924 0.958 . S
C4947 C4946 1.348 . S
C4947 C4948 1.265 1_545 S
C4948 C4947 1.265 1_565 S
C4948 C4949 1.524 . S
C4948 H4967 0.913 . S
C4949 H4925 0.950 . S
C4949 C4948 1.524 . S
C4949 C4950 1.415 . S
C4950 H4926 0.950 . S
C4950 C4945 1.428 . S
C4950 C4949 1.415 . S
C4951 H4927 0.951 . S
C4951 C4952 1.366 . S
C4951 C4953 1.388 . S
C4952 C4951 1.366 . S
C4952 C4956 1.385 1_545 S
C4953 H4928 0.951 . S
C4953 C4951 1.388 . S
C4953 C4954 1.366 . S
C4954 C4953 1.366 . S
C4954 C4955 1.414 1_545 S
C4954 C4957 1.499 . S
C4955 H4929 0.950 . S
C4955 C4954 1.414 1_565 S
C4955 C4956 1.374 . S
C4956 H4930 0.950 . S
C4956 C4952 1.385 1_565 S
C4956 C4955 1.374 . S
C4957 C4954 1.499 . S
C4957 C4958 1.373 . S
C4957 C4959 1.389 . S
C4958 H4931 0.950 1_545 S
C4958 C4944 1.377 . S
C4958 C4957 1.373 . S
C4959 C4943 1.377 . S
C4959 C4957 1.389 . S
C4959 C4960 1.524 . S
C4960 C4959 1.524 . S
C4960 C4961 1.397 . S
C4960 C4965 1.363 . S
C4961 H4932 0.950 . S
C4961 C4960 1.397 . S
C4961 C4962 1.334 . S
C4962 H4933 0.950 . S
C4962 C4961 1.334 . S
C4962 C4963 1.287 . S
C4963 C4962 1.287 . S
C4963 C4964 1.524 . S
C4963 H4966 0.999 . S
C4964 H4934 0.950 . S
C4964 C4963 1.524 . S
C4964 C4965 1.415 . S
C4965 H4935 0.950 . S
C4965 C4960 1.363 . S
C4965 C4964 1.415 . S
H4966 C4963 0.999 . S
H4967 C4948 0.913 . S
C1387 C13 1.523 . S
C1402 C857 1.548 . S
C1437 C27 1.373 . S
C1452 C901 1.406 . S
C1502 C981 1.538 . S
C1487 C36 1.512 . S
C1537 C41 1.489 1_545 S
C1552 C1025 1.527 . S
C1587 C8 1.639 . S
C1602 C1105 1.667 . S
C1637 C22 1.489 . S
C1652 C1167 1.512 . S
C1687 C55 1.517 . S
C1702 C1087 1.538 . S
C1752 C1149 1.394 . S
C1737 C69 1.371 . S
C1802 C1043 1.576 . S
C1787 C78 1.541 . S
C1837 C83 1.473 . S
C1852 C963 1.496 . S
C1902 C839 1.678 . S
C1887 C50 1.647 . S
C1937 C64 1.486 . S
C1952 C919 1.521 . S
C1987 C97 1.572 . S
C2002 C1229 1.602 . S
C2037 C111 1.395 . S
C2052 C1273 1.435 . S
C2102 C1353 1.576 . S
C2087 C120 1.564 . S
C2137 C125 1.515 . S
C2152 C299 1.543 . S
C2187 C92 1.724 . S
C2202 C343 1.751 . S
C2237 C106 1.515 . S
C2252 C423 1.534 . S
C2287 C139 1.550 . S
C2302 C361 1.603 . S
C2337 C153 1.393 . S
C2352 C405 1.414 . S
C2402 C281 1.584 . S
C2387 C162 1.572 . S
C2452 C1335 1.568 . S
C2437 C167 1.536 . S
C2502 C1211 1.713 . S
C2487 C134 1.716 . S
C2552 C1291 1.549 . S
C2537 C148 1.517 . S
C2587 C181 1.558 . S
C2602 C485 1.586 . S
C2637 C195 1.384 . S
C2652 C547 1.405 . S
C2687 C204 1.569 . S
C2702 C591 1.601 . S
C2737 C209 1.530 . S
C2752 C653 1.584 . S
C2802 C715 1.757 . S
C2787 C176 1.730 . S
C2852 C795 1.535 . S
C2837 C190 1.518 . S
C2902 C733 1.637 . S
C2887 C223 1.580 . S
C2952 C777 1.430 . S
C2937 C237 1.404 . S
C2987 C246 1.556 . S
C3002 C671 1.587 . S
C3052 C609 1.555 . S
C3037 C251 1.506 . S
C3087 C218 1.721 . S
C3102 C467 1.720 . S
C3152 C529 1.544 . S
C3137 C232 1.524 . S
C3202 C305 1.307 . S
C3187 C11 1.366 . S
C3237 C25 1.238 . S
C3252 C349 1.198 . S
C3302 C429 1.270 . S
C3287 C35 1.330 . S
C3352 C491 1.301 . S
C3337 C39 1.364 1_556 S
C3402 C553 1.392 . S
C3387 C7 1.465 . S
C3452 C597 1.283 . S
C3437 C21 1.337 . S
C3487 C53 1.382 1_556 S
C3502 C615 1.341 . S
C3537 C67 1.227 1_556 S
C3552 C473 1.179 . S
C3587 C77 1.298 . S
C3602 C535 1.238 . S
C3637 C81 1.396 . S
C3652 C367 1.355 . S
C3702 C411 1.379 . S
C3687 C49 1.449 . S
C3737 C63 1.337 . S
C3752 C287 1.272 . S
C3802 C659 1.305 . S
C3787 C95 1.356 . S
C3837 C109 1.273 . S
C3852 C721 1.232 . S
C3887 C119 1.400 1_655 S
C3902 C801 1.338 . S
C3952 C863 1.222 . S
C3937 C123 1.274 . S
C3987 C91 1.455 . S
C4002 C907 1.394 . S
C4037 C105 1.269 . S
C4052 C987 1.220 . S
C4087 C137 1.304 . S
C4102 C969 1.240 . S
C4137 C151 1.146 . S
C4152 C845 1.107 . S
C4202 C925 1.289 . S
C4187 C161 1.339 . S
C4237 C165 1.381 . S
C4252 C739 1.330 . S
C4287 C133 1.489 1_545 S
C4302 C783 1.416 . S
C4352 C677 1.334 . S
C4337 C147 1.389 1_655 S
C4402 C1031 1.278 . S
C4387 C179 1.323 . S
C4437 C193 1.135 . S
C4452 C1111 1.095 . S
C4487 C203 1.331 . S
C4502 C1173 1.275 . S
C4552 C1235 1.297 . S
C4537 C207 1.361 . S
C4602 C1279 1.431 . S
C4587 C175 1.495 1_565 S
C4637 C189 1.394 1_455 S
C4652 C1359 1.327 . S
C4687 C221 1.370 . S
C4702 C1341 1.306 . S
C4737 C235 1.185 1_565 S
C4752 C1217 1.212 . S
C4802 C1297 1.332 . S
C4787 C245 1.385 1_455 S
C4852 C1093 1.202 . S
C4837 C249 1.254 . S
C4902 C1155 1.391 . S
C4887 C217 1.460 . S
C4937 C231 1.296 . S
C4952 C1049 1.251 . S
