# Generated by pormake.
# Topology anh, (6,3)-cn, num edge types: 1
# Building blocks:
#     Node 0, Type 0, BuildingBlock: PAMTUU_clean_sbu_0, # of connection points: 6
#     Node 1, Type 0, BuildingBlock: PAMTUU_clean_sbu_0, # of connection points: 6
#     Node 2, Type 0, BuildingBlock: PAMTUU_clean_sbu_0, # of connection points: 6
#     Node 3, Type 1, BuildingBlock: QEWDON_clean_linker_0, # of connection points: 3
#     Node 4, Type 1, BuildingBlock: QEWDON_clean_linker_0, # of connection points: 3
#     Node 5, Type 1, BuildingBlock: QEWDON_clean_linker_0, # of connection points: 3
#     Node 6, Type 1, BuildingBlock: QEWDON_clean_linker_0, # of connection points: 3
#     Node 7, Type 1, BuildingBlock: QEWDON_clean_linker_0, # of connection points: 3
#     Node 8, Type 1, BuildingBlock: QEWDON_clean_linker_0, # of connection points: 3
#     Edge 9, Type (0, 1), BuildingBlock: XIVTED_clean_linker_0, # of connection points: 2
#     Edge 10, Type (0, 1), BuildingBlock: XIVTED_clean_linker_0, # of connection points: 2
#     Edge 11, Type (0, 1), BuildingBlock: XIVTED_clean_linker_0, # of connection points: 2
#     Edge 12, Type (0, 1), BuildingBlock: XIVTED_clean_linker_0, # of connection points: 2
#     Edge 13, Type (0, 1), BuildingBlock: XIVTED_clean_linker_0, # of connection points: 2
#     Edge 14, Type (0, 1), BuildingBlock: XIVTED_clean_linker_0, # of connection points: 2
#     Edge 15, Type (0, 1), BuildingBlock: XIVTED_clean_linker_0, # of connection points: 2
#     Edge 16, Type (0, 1), BuildingBlock: XIVTED_clean_linker_0, # of connection points: 2
#     Edge 17, Type (0, 1), BuildingBlock: XIVTED_clean_linker_0, # of connection points: 2
#     Edge 18, Type (0, 1), BuildingBlock: XIVTED_clean_linker_0, # of connection points: 2
#     Edge 19, Type (0, 1), BuildingBlock: XIVTED_clean_linker_0, # of connection points: 2
#     Edge 20, Type (0, 1), BuildingBlock: XIVTED_clean_linker_0, # of connection points: 2
#     Edge 21, Type (0, 1), BuildingBlock: XIVTED_clean_linker_0, # of connection points: 2
#     Edge 22, Type (0, 1), BuildingBlock: XIVTED_clean_linker_0, # of connection points: 2
#     Edge 23, Type (0, 1), BuildingBlock: XIVTED_clean_linker_0, # of connection points: 2
#     Edge 24, Type (0, 1), BuildingBlock: XIVTED_clean_linker_0, # of connection points: 2
#     Edge 25, Type (0, 1), BuildingBlock: XIVTED_clean_linker_0, # of connection points: 2
#     Edge 26, Type (0, 1), BuildingBlock: XIVTED_clean_linker_0, # of connection points: 2
# Relax obj value: 0.216
# Max RMSD: 0.137
# Mean RMSD: 0.113
data_MOF--net-anh--node1-PAMTUU_clean_sbu_0--node2-QEWDON_clean_linker_0--edge1-XIVTED_clean_linker_0
_symmetry_space_group_name_H-M    P1
_symmetry_Int_Tables_number       1
_symmetry_cell_setting            triclinic
loop_
_symmetry_equiv_pos_as_xyz
'x, y, z'
_cell_length_a     31.265437
_cell_length_b     31.427937
_cell_length_c     49.008602
_cell_angle_alpha  96.412103
_cell_angle_beta   91.49353
_cell_angle_gamma 119.94237
loop_
_atom_site_label
_atom_site_type_symbol
_atom_site_fract_x
_atom_site_fract_y
_atom_site_fract_z
_atom_type_partial_charge
Tb0 Tb 0.148 0.67033 0.14104 0.0
Tb1 Tb 0.21336 0.62351 0.1601 0.0
C2 C 0.19706 0.63356 0.09843 0.0
C3 C 1.03877 0.67971 0.1389 0.0
C4 C 0.94154 0.6381 0.15432 0.0
C5 C 0.96608 0.68619 0.14686 0.0
C6 C 1.0144 0.70683 0.13915 0.0
C7 C 1.01493 0.63238 0.14717 0.0
C8 C 0.96654 0.61152 0.15457 0.0
C9 C 1.08986 0.70109 0.13152 0.0
O10 O 1.09845 0.58953 0.13177 0.0
O11 O 0.13714 0.56345 0.16038 0.0
O12 O 0.2077 0.66838 0.19591 0.0
O13 O 1.13029 0.64804 0.18101 0.0
O14 O 0.26705 0.60295 0.15331 0.0
O15 O 0.23162 0.59249 0.19108 0.0
O16 O 0.2681 0.69745 0.15225 0.0
O17 O 0.22163 0.73552 0.15477 0.0
O18 O 0.19053 0.67068 0.10704 0.0
O19 O 0.19487 0.60251 0.11513 0.0
C20 C 1.0976 0.55524 0.14537 0.0
O21 O 1.12328 0.7201 0.15262 0.0
O22 O 1.09768 0.67296 0.11307 0.0
C23 C 0.16483 0.66379 0.20117 0.0
C24 C 0.31703 0.62292 0.1947 0.0
C25 C 0.41036 0.6803 0.22553 0.0
C26 C 0.37968 0.6298 0.22816 0.0
C27 C 0.33329 0.60133 0.21284 0.0
C28 C 0.34678 0.67351 0.19278 0.0
C29 C 0.39288 0.70176 0.20785 0.0
C30 C 0.26841 0.59391 0.17856 0.0
C31 C 0.2649 0.73778 0.15435 0.0
H32 H 0.94727 0.70716 0.14605 0.0
H33 H 1.03253 0.74363 0.13321 0.0
H34 H 1.03362 0.61136 0.14777 0.0
H35 H 0.94852 0.57451 0.16025 0.0
H36 H 0.3918 0.61213 0.24171 0.0
H37 H 0.31037 0.56248 0.21495 0.0
H38 H 0.33489 0.69119 0.17917 0.0
H39 H 0.41561 0.74003 0.2046 0.0
Tb40 Tb 0.64573 0.0947 0.47397 0.0
Tb41 Tb 0.76538 0.14662 0.4834 0.0
C42 C 0.70857 0.12408 0.42413 0.0
C43 C 0.51173 1.02675 0.48764 0.0
C44 C 0.4224 0.97155 0.51136 0.0
C45 C 0.43836 0.94796 0.49147 0.0
C46 C 0.48243 0.97532 0.47967 0.0
C47 C 0.49785 1.04975 0.50906 0.0
C48 C 0.45363 1.02234 0.52086 0.0
C49 C 0.55289 1.05667 0.47147 0.0
O50 O 0.65928 1.03442 0.48154 0.0
O51 O 0.74087 1.06803 0.47215 0.0
O52 O 0.73694 0.11041 0.51981 0.0
O53 O 0.67058 0.12096 0.51711 0.0
O54 O 0.83389 0.16139 0.46949 0.0
O55 O 0.83028 0.19645 0.50912 0.0
O56 O 0.74568 0.20382 0.49447 0.0
O57 O 0.67479 0.17109 0.46585 0.0
O58 O 0.66775 0.09083 0.43304 0.0
O59 O 0.74843 0.15451 0.44105 0.0
C60 C 0.69819 1.02974 0.47642 0.0
O61 O 0.5843 0.10209 0.48249 0.0
O62 O 0.57494 1.03522 0.45894 0.0
C63 C 0.69799 0.10819 0.53049 0.0
C64 C 0.88459 0.24862 0.48006 0.0
C65 C 0.89951 0.33955 0.46643 0.0
C66 C 0.9139 0.33635 0.49323 0.0
C67 C 0.90652 0.29122 0.49998 0.0
C68 C 0.87614 0.25353 0.45255 0.0
C69 C 0.88323 0.29839 0.44586 0.0
C70 C 0.85778 0.19915 0.48904 0.0
C71 C 0.71259 0.20958 0.48082 0.0
H72 H 0.41494 0.90905 0.48332 0.0
H73 H 0.49201 0.95657 0.46317 0.0
H74 H 0.51973 0.08937 0.51575 0.0
H75 H 0.44252 1.04143 0.53629 0.0
H76 H 0.92797 0.36783 0.5094 0.0
H77 H 0.91354 0.28857 0.52131 0.0
H78 H 0.85938 0.22162 0.43655 0.0
H79 H 0.87172 0.29926 0.425 0.0
Tb80 Tb 0.71653 0.62384 0.81093 0.0
Tb81 Tb 0.78261 0.74468 0.81668 0.0
C82 C 0.74762 0.6797 0.75987 0.0
C83 C 0.65817 0.48387 0.80868 0.0
C84 C 0.63259 0.38457 0.80919 0.0
C85 C 0.67145 0.41532 0.79425 0.0
C86 C 0.6841 0.46456 0.79395 0.0
C87 C 0.62201 0.45433 0.82527 0.0
C88 C 0.60944 0.40514 0.82562 0.0
C89 C 0.66194 0.53077 0.80348 0.0
O90 O 0.79236 0.63763 0.80991 0.0
O91 O 0.83638 0.72166 0.82545 0.0
O92 O 0.75068 0.72433 0.85505 0.0
O93 O 0.7446 0.64868 0.85409 0.0
O94 O 0.80043 0.81328 0.80445 0.0
O95 O 0.83966 0.80964 0.84012 0.0
O96 O 0.70525 0.72724 0.80914 0.0
O97 O 0.66429 0.64859 0.82083 0.0
O98 O 0.71009 0.64844 0.7721 0.0
O99 O 0.78642 0.71736 0.77452 0.0
C100 C 0.8342 0.67871 0.81922 0.0
O101 O 0.66115 0.55948 0.82455 0.0
O102 O 0.69267 0.55581 0.78612 0.0
C103 C 0.74728 0.68841 0.86771 0.0
C104 C 0.81332 0.86706 0.84491 0.0
C105 C 0.77604 0.92007 0.87622 0.0
C106 C 0.82405 0.94511 0.86728 0.0
C107 C 0.84251 0.91869 0.85161 0.0
C108 C 0.76724 0.84193 0.8554 0.0
C109 C 0.74882 0.86789 0.87081 0.0
C110 C 0.82923 0.8378 0.82717 0.0
C111 C 0.6648 0.68902 0.81585 0.0
H112 H 0.68972 0.40049 0.78117 0.0
H113 H 0.71205 0.4864 0.78088 0.0
H114 H 0.60134 0.46834 0.83672 0.0
H115 H 0.57987 0.38252 0.83765 0.0
H116 H 0.84647 0.98516 0.87135 0.0
H117 H 0.8787 0.93858 0.84411 0.0
H118 H 0.74428 0.80205 0.8507 0.0
H119 H 0.71145 0.84669 0.87658 0.0
H120 H 0.72777 0.16833 0.20891 0.0
C121 C 0.6904 0.13893 0.20169 0.0
C122 C 0.65752 0.11468 0.22116 0.0
C123 C 0.67549 0.12493 0.17313 0.0
H124 H 0.58459 1.05553 0.2269 0.0
C125 C 0.60936 1.07549 0.21197 0.0
C126 C 0.59332 1.05989 0.18382 0.0
C127 C 0.62644 1.08501 0.16451 0.0
C128 C 0.71151 0.15029 0.15238 0.0
H129 H 0.61343 1.0736 0.14282 0.0
C130 C 0.75005 0.20108 0.15774 0.0
C131 C 0.78277 0.22357 0.13753 0.0
C132 C 0.70793 0.12287 0.12677 0.0
H133 H 0.68082 1.08373 0.12203 0.0
C134 C 0.73992 0.14501 0.1069 0.0
H135 H 0.75404 0.22346 0.17715 0.0
C136 C 0.77673 0.19482 0.1121 0.0
H137 H 0.80134 0.21075 0.09632 0.0
H138 H 0.7364 0.12322 0.08735 0.0
H139 H 0.70985 0.65259 0.54306 0.0
C140 C 0.71627 0.62299 0.53493 0.0
C141 C 0.72742 0.59822 0.55361 0.0
C142 C 0.70954 0.60728 0.50624 0.0
H143 H 0.74008 0.53797 0.55806 0.0
C144 C 0.73268 0.55759 0.5435 0.0
C145 C 0.72676 0.54083 0.5151 0.0
C146 C 0.71585 0.56639 0.49662 0.0
C147 C 0.69087 0.62992 0.48678 0.0
H148 H 0.71216 0.55404 0.47474 0.0
C149 C 0.70059 0.67977 0.49237 0.0
C150 C 0.67807 0.69772 0.47489 0.0
C151 C 0.65942 0.59977 0.46299 0.0
H152 H 0.64918 0.56125 0.45814 0.0
C153 C 0.63871 0.61792 0.44539 0.0
H154 H 0.72451 0.70422 0.51041 0.0
C155 C 0.64763 0.66614 0.4513 0.0
H156 H 0.63038 0.67883 0.43734 0.0
H157 H 0.61464 0.594 0.42726 0.0
H158 H 0.25176 0.63938 0.88435 0.0
C159 C 0.22203 0.64541 0.87794 0.0
C160 C 0.18793 0.64279 0.89689 0.0
C161 C 0.21642 0.65324 0.85058 0.0
H162 H 1.12173 0.64651 0.90304 0.0
C163 C 0.14802 0.64864 0.88848 0.0
C164 C 0.14145 0.65698 0.86154 0.0
C165 C 0.17595 0.65956 0.84285 0.0
C166 C 0.25071 0.65219 0.82965 0.0
H167 H 0.17135 0.66725 0.82234 0.0
C168 C 0.3014 0.66742 0.83681 0.0
C169 C 0.33217 0.66634 0.81621 0.0
C170 C 0.23186 0.63445 0.80174 0.0
H171 H 0.19319 0.62017 0.79526 0.0
C172 C 0.26211 0.63368 0.78158 0.0
H173 H 0.31729 0.68102 0.85801 0.0
C174 C 0.31173 0.64971 0.78865 0.0
H175 H 0.33404 0.64799 0.77248 0.0
H176 H 0.24678 0.62002 0.76028 0.0
H177 H 0.99413 0.71138 0.37264 0.0
C178 C 1.02272 0.73516 0.38918 0.0
C179 C 1.07297 0.75315 0.38509 0.0
C180 C 1.00879 0.74497 0.41514 0.0
H181 H 0.14775 0.79444 0.40497 0.0
C182 C 1.10887 0.78061 0.40752 0.0
C183 C 1.09515 0.78992 0.43355 0.0
C184 C 1.0453 0.77328 0.43714 0.0
C185 C 0.95657 0.71676 0.42104 0.0
H186 H 1.03463 0.77877 0.45753 0.0
C187 C 0.93473 0.66545 0.4202 0.0
C188 C 0.88838 0.63754 0.4301 0.0
C189 C 0.93096 0.74043 0.43099 0.0
H190 H 0.94772 0.78029 0.43224 0.0
C191 C 0.88381 0.71259 0.43995 0.0
H192 H 0.95583 0.64783 0.41376 0.0
C193 C 0.86281 0.66141 0.43992 0.0
H194 H 0.82718 0.64071 0.44792 0.0
H195 H 0.86416 0.73094 0.44771 0.0
H196 H 0.51571 0.91379 0.70295 0.0
C197 C 0.51366 0.94667 0.70985 0.0
C198 C 0.53558 0.98729 0.69523 0.0
C199 C 0.49378 0.95071 0.73484 0.0
H200 H 0.55558 1.06327 0.69448 0.0
C201 C 0.53706 1.03146 0.70538 0.0
C202 C 0.51754 1.03595 0.73019 0.0
C203 C 0.49392 0.99476 0.74413 0.0
C204 C 0.48439 0.91493 0.75441 0.0
H205 H 0.48017 0.99861 0.76379 0.0
C206 C 0.50812 0.93347 0.78128 0.0
C207 C 0.5099 0.90209 0.79896 0.0
C208 C 0.45783 0.86352 0.746 0.0
H209 H 0.43931 0.84833 0.72534 0.0
C210 C 0.45584 0.83146 0.7642 0.0
H211 H 0.52833 0.97316 0.78775 0.0
C212 C 0.48235 0.85049 0.79033 0.0
H213 H 0.48316 0.82489 0.80306 0.0
H214 H 0.43555 0.7918 0.75757 0.0
H215 H 0.70643 0.78225 0.07581 0.0
C216 C 0.70176 0.75004 0.0844 0.0
C217 C 0.68811 0.70582 0.06679 0.0
C218 C 0.71024 0.75309 0.11298 0.0
H219 H 0.66921 0.62968 0.06479 0.0
C220 C 0.68018 0.66373 0.07833 0.0
C221 C 0.69104 0.66661 0.10672 0.0
C222 C 0.70572 0.71164 0.12378 0.0
C223 C 0.72559 0.7997 0.13193 0.0
H224 H 0.71685 0.71601 0.14546 0.0
C225 C 0.7055 0.79704 0.15735 0.0
C226 C 0.71982 0.83988 0.17627 0.0
C227 C 0.76046 0.84646 0.12536 0.0
H228 H 0.77714 0.84975 0.10605 0.0
C229 C 0.7747 0.88945 0.14402 0.0
H230 H 0.67713 0.7613 0.16208 0.0
C231 C 0.75433 0.88632 0.16934 0.0
H232 H 0.76534 0.91996 0.1834 0.0
H233 H 0.80154 0.92532 0.13882 0.0
H234 H 0.47602 0.64759 0.23261 0.0
H235 H 0.67548 0.89131 0.19659 0.0
H236 H 0.46494 0.7797 0.24666 0.0
H237 H 0.70428 0.77562 0.21314 0.0
H238 H 0.60861 0.86106 0.22676 0.0
H239 H 0.56563 0.69901 0.23826 0.0
C240 C 0.49224 0.68734 0.23777 0.0
C241 C 0.4627 0.70936 0.23792 0.0
C242 C 0.63059 0.84322 0.22463 0.0
C243 C 0.5658 0.76879 0.24334 0.0
C244 C 0.66902 0.86076 0.20747 0.0
C245 C 0.69407 0.83474 0.20165 0.0
C246 C 0.61679 0.79891 0.23541 0.0
C247 C 0.6845 0.7956 0.21643 0.0
C248 C 0.54377 0.71692 0.24087 0.0
C249 C 0.48631 0.76119 0.24497 0.0
N250 N 0.64554 0.77783 0.23196 0.0
N251 N 0.5365 0.78929 0.24644 0.0
H252 H 0.91777 0.38291 0.41907 0.0
H253 H 0.85639 0.59188 0.47587 0.0
H254 H 0.87037 0.39415 0.5002 0.0
H255 H 0.88395 0.56541 0.39166 0.0
H256 H 0.8528 0.51485 0.48427 0.0
H257 H 0.90139 0.44751 0.40828 0.0
C258 C 0.90389 0.39889 0.43465 0.0
C259 C 0.89536 0.38283 0.46059 0.0
C260 C 0.85866 0.5254 0.46381 0.0
C261 C 0.87654 0.45717 0.44835 0.0
C262 C 0.86013 0.56905 0.45893 0.0
C263 C 0.87132 0.5853 0.43316 0.0
C264 C 0.86872 0.49827 0.44277 0.0
C265 C 0.87612 0.55451 0.41196 0.0
C266 C 0.89438 0.43575 0.42844 0.0
C267 C 0.87812 0.40568 0.48006 0.0
N268 N 0.87566 0.51292 0.41736 0.0
N269 N 0.8693 0.44169 0.47356 0.0
H270 H 0.78811 1.00725 0.86155 0.0
H271 H 0.50506 0.86503 0.84843 0.0
H272 H 0.70259 0.89504 0.91221 0.0
H273 H 0.59983 0.98928 0.80683 0.0
H274 H 0.57402 0.89281 0.88367 0.0
H275 H 0.72142 1.02449 0.85739 0.0
C276 C 0.7561 0.98712 0.87264 0.0
C277 C 0.74956 0.94677 0.88546 0.0
C278 C 0.57893 0.91479 0.86725 0.0
C279 C 0.67138 0.96435 0.87913 0.0
C280 C 0.5397 0.89855 0.84686 0.0
C281 C 0.54643 0.92378 0.82396 0.0
C282 C 0.62523 0.95637 0.8646 0.0
C283 C 0.59186 0.96806 0.8238 0.0
C284 C 0.71734 0.99663 0.86992 0.0
C285 C 0.70763 0.92385 0.90022 0.0
N286 N 0.62944 0.98227 0.84344 0.0
N287 N 0.66886 0.93105 0.89548 0.0
H288 H 0.86717 0.54573 0.13189 0.0
H289 H 0.71266 0.59867 0.07897 0.0
H290 H 0.89492 0.67604 0.18663 0.0
H291 H 0.68283 0.64195 0.15998 0.0
H292 H 0.75095 0.55906 0.09943 0.0
H293 H 0.77876 0.51855 0.12756 0.0
C294 C 0.85444 0.56778 0.14375 0.0
C295 C 0.88839 0.61424 0.15872 0.0
C296 C 0.73449 0.57556 0.11283 0.0
C297 C 0.78817 0.58399 0.15335 0.0
C298 C 0.7122 0.59871 0.101 0.0
C299 C 0.69681 0.62701 0.11776 0.0
C300 C 0.74352 0.58246 0.14162 0.0
C301 C 0.69751 0.62405 0.14624 0.0
C302 C 0.80405 0.55228 0.14119 0.0
C303 C 0.86996 0.64094 0.17399 0.0
N304 N 0.72293 0.60457 0.15744 0.0
N305 N 0.82107 0.62601 0.17039 0.0
H306 H 0.36555 0.87515 0.5212 0.0
H307 H 1.12617 0.87783 0.46694 0.0
H308 H 0.35901 1.0077 0.51484 0.0
H309 H 0.14938 0.75328 0.45379 0.0
H310 H 0.19957 0.92091 0.50083 0.0
H311 H 0.27505 0.82661 0.5144 0.0
C312 C 0.34505 0.89423 0.51918 0.0
C313 C 0.36991 0.94526 0.51759 0.0
C314 C 0.18783 0.88367 0.491 0.0
C315 C 0.26675 0.8901 0.5096 0.0
C316 C 0.14617 0.85927 0.47174 0.0
C317 C 1.13293 0.81274 0.45733 0.0
C318 C 0.21583 0.86098 0.49576 0.0
C319 C 0.15939 0.78971 0.46421 0.0
C320 C 0.29344 0.86653 0.51529 0.0
C321 C 0.34152 0.96833 0.51578 0.0
N322 N 0.20003 0.81435 0.48269 0.0
N323 N 0.29141 0.94038 0.51108 0.0
H324 H 0.53507 0.31178 0.8016 0.0
H325 H 0.45686 1.06234 0.75776 0.0
H326 H 0.68299 0.33378 0.80479 0.0
H327 H 0.60657 0.12145 0.73522 0.0
H328 H 0.4806 0.1439 0.78294 0.0
H329 H 0.5017 0.22415 0.78556 0.0
C330 C 0.56049 0.29786 0.79977 0.0
C331 C 0.61198 0.33024 0.80448 0.0
C332 C 0.50801 0.13933 0.77205 0.0
C333 C 0.57393 0.22961 0.78593 0.0
C334 C 0.4945 0.0927 0.75782 0.0
C335 C 0.52949 1.08548 0.74389 0.0
C336 C 0.55691 0.17879 0.77229 0.0
C337 C 0.57798 0.12572 0.74496 0.0
C338 C 0.54131 0.2476 0.79053 0.0
C339 C 0.64312 0.31027 0.80106 0.0
N340 N 0.59021 0.17055 0.75892 0.0
N341 N 0.62361 0.26134 0.79164 0.0
H342 H 0.61654 0.93978 0.48238 0.0
H343 H 0.7639 0.78993 0.48348 0.0
H344 H 0.77328 1.00765 0.4738 0.0
H345 H 0.60478 0.72068 0.47818 0.0
H346 H 0.76988 0.87154 0.48527 0.0
H347 H 0.61305 0.86086 0.48529 0.0
C348 C 0.65027 0.93823 0.48105 0.0
C349 C 0.69521 0.9808 0.47764 0.0
C350 C 0.73367 0.83849 0.48398 0.0
C351 C 0.69155 0.88983 0.48129 0.0
C352 C 0.73032 0.79195 0.48326 0.0
C353 C 0.68378 0.7483 0.48069 0.0
C354 C 0.69017 0.84152 0.48236 0.0
C355 C 0.64144 0.75325 0.48007 0.0
C356 C 0.64826 0.89298 0.48276 0.0
C357 C 0.73765 0.97602 0.47623 0.0
N358 N 0.64563 0.79867 0.48081 0.0
N359 N 0.73478 0.93162 0.47808 0.0
H360 H 0.92034 0.74755 0.85067 0.0
H361 H 1.0738 0.60955 0.81561 0.0
H362 H 0.85471 0.60547 0.79905 0.0
H363 H 1.10917 0.71563 0.88857 0.0
H364 H 0.99951 0.61478 0.80418 0.0
H365 H 0.99541 0.74349 0.85969 0.0
C366 C 0.92167 0.71555 0.84105 0.0
C367 C 0.88071 0.67674 0.82405 0.0
C368 C 1.02365 0.637 0.82263 0.0
C369 C 0.96757 0.67214 0.83425 0.0
C370 C 1.06627 0.63433 0.82907 0.0
C371 C 1.09789 0.66214 0.85314 0.0
C372 C 1.0129 0.66847 0.84008 0.0
C373 C 1.08582 0.69325 0.86992 0.0
C374 C 0.96466 0.71321 0.84634 0.0
C375 C 0.88508 0.6362 0.81236 0.0
N376 N 1.04464 0.69573 0.86303 0.0
N377 N 0.92767 0.63507 0.81755 0.0
H378 H 0.35637 0.7552 0.14104 0.0
H379 H 0.50456 1.04309 0.20197 0.0
H380 H 0.28171 0.83238 0.17168 0.0
H381 H 0.56644 0.97542 0.14726 0.0
H382 H 0.42361 0.96645 0.19282 0.0
H383 H 0.43408 0.83449 0.14522 0.0
C384 C 0.35615 0.7888 0.14864 0.0
C385 C 0.31202 0.78674 0.15607 0.0
C386 C 0.45469 0.96846 0.18255 0.0
C387 C 0.4019 0.87843 0.16109 0.0
C388 C 0.50097 1.01226 0.18776 0.0
C389 C 0.54252 1.01588 0.17532 0.0
C390 C 0.44974 0.92724 0.16516 0.0
C391 C 0.53549 0.97458 0.15711 0.0
C392 C 0.40072 0.83423 0.15089 0.0
C393 C 0.31454 0.83192 0.16563 0.0
N394 N 0.49032 0.93192 0.15288 0.0
N395 N 0.35867 0.87571 0.1681 0.0
H396 H 0.78376 0.29632 0.51207 0.0
H397 H 0.6653 0.46147 0.47514 0.0
H398 H 0.65265 0.23853 0.45562 0.0
H399 H 0.79272 0.51395 0.53359 0.0
H400 H 0.66349 0.3822 0.46459 0.0
H401 H 0.78958 0.3773 0.51787 0.0
C402 C 0.75621 0.30053 0.50074 0.0
C403 C 0.71737 0.25991 0.48344 0.0
C404 C 0.69205 0.41119 0.4796 0.0
C405 C 0.72457 0.35399 0.48971 0.0
C406 C 0.69339 0.45676 0.48548 0.0
C407 C 0.72895 0.4947 0.50554 0.0
C408 C 0.72664 0.40323 0.49376 0.0
C409 C 0.764 0.48577 0.51836 0.0
C410 C 0.75972 0.34711 0.50402 0.0
C411 C 0.68314 0.26841 0.46928 0.0
N412 N 0.76178 0.44123 0.51239 0.0
N413 N 0.68749 0.31428 0.47274 0.0
H414 H 0.58286 0.62648 0.84015 0.0
H415 H 0.41319 0.73349 0.79338 0.0
H416 H 0.63989 0.75619 0.79908 0.0
H417 H 0.37143 0.62932 0.85142 0.0
H418 H 0.49659 0.74435 0.79589 0.0
H419 H 0.50591 0.62763 0.84444 0.0
C420 C 0.57935 0.65532 0.83196 0.0
C421 C 0.61823 0.69107 0.81895 0.0
C422 C 0.46959 0.71972 0.80845 0.0
C423 C 0.52902 0.69243 0.82389 0.0
C424 C 0.42201 0.71373 0.80715 0.0
C425 C 0.38526 0.6807 0.82235 0.0
C426 C 0.48062 0.69168 0.82468 0.0
C427 C 0.39862 0.65558 0.83959 0.0
C428 C 0.53522 0.65604 0.8346 0.0
C429 C 0.61111 0.7277 0.80913 0.0
N430 N 0.44485 0.66104 0.83998 0.0
N431 N 0.56732 0.72714 0.81155 0.0
H432 H 1.07794 0.48046 0.17616 0.0
H433 H 0.80196 0.29578 0.10543 0.0
H434 H 1.0081 0.51985 0.11452 0.0
H435 H 0.85944 0.27101 0.17908 0.0
H436 H 0.87696 0.37744 0.10823 0.0
H437 H 0.99956 0.40311 0.17676 0.0
C438 C 1.04628 0.47288 0.1626 0.0
C439 C 1.05015 0.50699 0.14508 0.0
C440 C 0.87309 0.35455 0.124 0.0
C441 C 0.95951 0.41777 0.14581 0.0
C442 C 0.83011 0.30793 0.12248 0.0
C443 C 0.8242 0.27648 0.14212 0.0
C444 C 0.91127 0.36995 0.14509 0.0
C445 C 0.86212 0.29416 0.16366 0.0
C446 C 1.00131 0.42866 0.16311 0.0
C447 C 1.00732 0.49484 0.12825 0.0
N448 N 0.9042 0.33935 0.16439 0.0
N449 N 0.96409 0.45131 0.12894 0.0
H450 H 0.26751 0.70135 0.07105 0.0
H451 H 1.11729 0.57472 0.92534 0.0
H452 H 0.14198 0.55267 0.05903 0.0
H453 H 0.27079 0.69067 0.93394 0.0
H454 H 1.1248 0.56572 0.97401 0.0
H455 H 0.27005 0.69803 0.02099 0.0
C456 C 0.24123 0.66752 0.05777 0.0
C457 C 0.20487 0.627 0.06906 0.0
C458 C 0.15702 0.59268 0.96518 0.0
C459 C 0.20618 0.62357 0.01174 0.0
C460 C 0.15268 0.59805 0.93746 0.0
C461 C 0.19341 0.63376 0.92564 0.0
C462 C 0.20216 0.6239 0.98141 0.0
C463 C 0.23851 0.66265 0.94221 0.0
C464 C 0.24254 0.66568 0.02922 0.0
C465 C 0.17107 0.58434 0.05106 0.0
N466 N 0.24148 0.65761 0.96934 0.0
N467 N 0.17195 0.58402 0.02322 0.0
H468 H 0.62654 0.10038 0.39154 0.0
H469 H 0.7445 0.13349 0.24907 0.0
H470 H 0.78439 0.16217 0.38974 0.0
H471 H 0.60542 0.12673 0.26205 0.0
H472 H 0.76239 0.1438 0.29937 0.0
H473 H 0.61946 0.10714 0.34312 0.0
C474 C 0.65989 0.1153 0.38089 0.0
C475 C 0.70611 0.1302 0.3947 0.0
C476 C 0.72835 0.14076 0.29113 0.0
C477 C 0.69812 0.13813 0.33867 0.0
C478 C 0.71818 0.13507 0.26247 0.0
C479 C 0.67297 0.12841 0.25133 0.0
C480 C 0.69287 0.13941 0.30858 0.0
C481 C 0.64016 0.13054 0.26966 0.0
C482 C 0.65583 0.11953 0.35318 0.0
C483 C 0.74804 0.15007 0.37981 0.0
N484 N 0.65049 0.13523 0.29724 0.0
N485 N 0.74299 0.1529 0.35238 0.0
H486 H 0.81022 0.7416 0.72496 0.0
H487 H 0.68011 0.53674 0.59133 0.0
H488 H 0.67929 0.59826 0.72488 0.0
H489 H 0.7797 0.69081 0.58481 0.0
H490 H 0.68513 0.55843 0.64114 0.0
H491 H 0.80514 0.72393 0.67438 0.0
C492 C 0.78039 0.70657 0.71437 0.0
C493 C 0.74513 0.6714 0.72927 0.0
C494 C 0.70589 0.58765 0.62889 0.0
C495 C 0.73944 0.65086 0.67159 0.0
C496 C 0.70324 0.5752 0.60045 0.0
C497 C 0.72977 0.61198 0.58391 0.0
C498 C 0.7357 0.63729 0.64117 0.0
C499 C 0.75857 0.66137 0.59683 0.0
C500 C 0.77747 0.69659 0.68553 0.0
C501 C 0.70728 0.62665 0.7144 0.0
N502 N 0.7611 0.6726 0.62475 0.0
N503 N 0.70567 0.61763 0.68654 0.0
H504 H 0.60114 1.04773 0.53559 0.0
H505 H 0.63507 1.03356 0.69287 0.0
H506 H 0.74625 0.10409 0.57748 0.0
H507 H 0.4962 0.94417 0.64259 0.0
H508 H 0.67836 1.05321 0.65101 0.0
H509 H 0.56357 1.00459 0.57406 0.0
C510 C 0.6252 1.05111 0.55304 0.0
C511 C 0.67692 1.08048 0.55369 0.0
C512 C 0.63863 1.02816 0.64907 0.0
C513 C 0.63382 1.03077 0.59808 0.0
C514 C 0.61403 1.01676 0.6729 0.0
C515 C 0.56221 0.98716 0.67093 0.0
C516 C 0.61089 1.01062 0.62323 0.0
C517 C 0.53625 0.96685 0.64481 0.0
C518 C 0.60363 1.02594 0.57493 0.0
C519 C 0.70621 1.0823 0.57643 0.0
N520 N 0.5608 0.97965 0.62192 0.0
N521 N 0.68417 1.05848 0.59808 0.0
H522 H 0.77811 0.77176 0.90431 0.0
H523 H 0.62772 0.63025 0.025 0.0
H524 H 0.6994 0.61203 0.89807 0.0
H525 H 0.75367 0.77948 0.03925 0.0
H526 H 0.64241 0.62532 0.97625 0.0
H527 H 0.75954 0.77713 0.95218 0.0
C528 C 0.75722 0.73779 0.91313 0.0
C529 C 0.74047 0.69135 0.89732 0.0
C530 C 0.66647 0.65918 -0.00988 0.0
C531 C 0.71826 0.6973 0.95185 0.0
C532 C 0.65813 0.66214 0.01792 0.0
C533 C 0.68979 0.70521 0.03646 0.0
C534 C 0.70622 0.69981 0.9807 0.0
C535 C 0.72785 0.74571 0.02585 0.0
C536 C 0.74657 0.74092 0.9404 0.0
C537 C 0.71344 0.64854 0.90969 0.0
N538 N 0.73509 0.74192 -0.00128 0.0
N539 N 0.70278 0.65251 0.93627 0.0
H540 H 0.21986 0.68719 0.25141 0.0
H541 H 1.03436 0.74929 0.33337 0.0
H542 H 1.08614 0.6737 0.21415 0.0
H543 H 0.14555 0.72959 0.37479 0.0
H544 H 1.05856 0.72885 0.28913 0.0
H545 H 0.19916 0.71035 0.29677 0.0
C546 C 0.18634 0.68913 0.25274 0.0
C547 C 0.15464 0.67825 0.22897 0.0
C548 C 1.07773 0.72903 0.3079 0.0
C549 C 1.13101 0.70493 0.28043 0.0
C550 C 1.06371 0.74048 0.33321 0.0
C551 C 1.08783 0.7412 0.35794 0.0
C552 C 1.11634 0.71832 0.30717 0.0
C553 C 1.12634 0.7303 0.35631 0.0
C554 C 0.17449 0.70223 0.27857 0.0
C555 C 1.11164 0.68139 0.23186 0.0
N556 N 0.1394 0.71933 0.33138 0.0
N557 N 1.10125 0.69449 0.25701 0.0
loop_
_geom_bond_atom_site_label_1
_geom_bond_atom_site_label_2
_geom_bond_distance
_geom_bond_site_symmetry_2
_ccdc_geom_bond_type
Tb0 C9 2.764 1_455 S
Tb0 O10 2.325 1_455 S
Tb0 O13 2.303 . S
Tb0 O17 2.322 . S
Tb0 O18 2.349 . S
Tb0 O21 2.415 1_455 S
Tb0 O22 2.399 1_455 S
Tb1 O11 2.322 . S
Tb1 O12 2.349 . S
Tb1 O14 2.415 . S
Tb1 O15 2.399 . S
Tb1 O16 2.325 . S
Tb1 O19 2.303 . S
Tb1 C30 2.764 . S
C2 O18 1.261 . S
C2 O19 1.257 . S
C3 C6 1.358 . S
C3 C7 1.332 . S
C3 C9 1.504 . S
C4 C5 1.373 . S
C4 C8 1.308 . S
C5 C4 1.373 . S
C5 C6 1.429 . S
C5 H32 0.932 . S
C6 C3 1.358 . S
C6 C5 1.429 . S
C6 H33 0.930 . S
C7 C3 1.332 . S
C7 C8 1.394 . S
C7 H34 0.932 . S
C8 C4 1.308 . S
C8 C7 1.394 . S
C8 H35 0.929 . S
C9 Tb0 2.764 1_655 S
C9 C3 1.504 . S
C9 O21 1.239 . S
C9 O22 1.263 . S
O10 Tb0 2.325 1_655 S
O10 C20 1.236 . S
O11 Tb1 2.322 . S
O11 C20 1.257 1_455 S
O12 Tb1 2.349 . S
O12 C23 1.261 . S
O13 Tb0 2.303 . S
O13 C23 1.257 . S
O14 Tb1 2.415 . S
O14 C30 1.239 . S
O15 Tb1 2.399 . S
O15 C30 1.263 . S
O16 Tb1 2.325 . S
O16 C31 1.236 . S
O17 Tb0 2.322 . S
O17 C31 1.257 . S
O18 Tb0 2.349 . S
O18 C2 1.261 . S
O19 Tb1 2.303 . S
O19 C2 1.257 . S
C20 O10 1.236 . S
C20 O11 1.257 1_655 S
O21 Tb0 2.415 1_655 S
O21 C9 1.239 . S
O22 Tb0 2.399 1_655 S
O22 C9 1.263 . S
C23 O12 1.261 . S
C23 O13 1.257 . S
C24 C27 1.358 . S
C24 C28 1.332 . S
C24 C30 1.504 . S
C25 C26 1.373 . S
C25 C29 1.308 . S
C26 C25 1.373 . S
C26 C27 1.429 . S
C26 H36 0.932 . S
C27 C24 1.358 . S
C27 C26 1.429 . S
C27 H37 0.930 . S
C28 C24 1.332 . S
C28 C29 1.394 . S
C28 H38 0.932 . S
C29 C25 1.308 . S
C29 C28 1.394 . S
C29 H39 0.929 . S
C30 Tb1 2.764 . S
C30 O14 1.239 . S
C30 O15 1.263 . S
C30 C24 1.504 . S
C31 O16 1.236 . S
C31 O17 1.257 . S
H32 C5 0.932 . S
H33 C6 0.930 . S
H34 C7 0.932 . S
H35 C8 0.929 . S
H36 C26 0.932 . S
H37 C27 0.930 . S
H38 C28 0.932 . S
H39 C29 0.929 . S
Tb40 C49 2.764 1_545 S
Tb40 O50 2.325 1_545 S
Tb40 O53 2.303 . S
Tb40 O57 2.322 . S
Tb40 O58 2.349 . S
Tb40 O61 2.415 1_545 S
Tb40 O62 2.399 1_545 S
Tb41 O51 2.322 . S
Tb41 O52 2.349 . S
Tb41 O54 2.415 . S
Tb41 O55 2.399 . S
Tb41 O56 2.325 . S
Tb41 O59 2.303 . S
Tb41 C70 2.764 . S
C42 O58 1.261 . S
C42 O59 1.257 . S
C43 C46 1.358 . S
C43 C47 1.332 . S
C43 C49 1.504 . S
C44 C45 1.373 . S
C44 C48 1.308 . S
C45 C44 1.373 . S
C45 C46 1.429 . S
C45 H72 0.932 . S
C46 C43 1.358 . S
C46 C45 1.429 . S
C46 H73 0.930 . S
C47 C43 1.332 . S
C47 C48 1.394 . S
C47 H74 0.932 . S
C48 C44 1.308 . S
C48 C47 1.394 . S
C48 H75 0.929 . S
C49 Tb40 2.764 1_565 S
C49 C43 1.504 . S
C49 O61 1.239 . S
C49 O62 1.263 . S
O50 Tb40 2.325 1_565 S
O50 C60 1.236 . S
O51 Tb41 2.322 . S
O51 C60 1.257 1_545 S
O52 Tb41 2.349 . S
O52 C63 1.261 . S
O53 Tb40 2.303 . S
O53 C63 1.257 . S
O54 Tb41 2.415 . S
O54 C70 1.239 . S
O55 Tb41 2.399 . S
O55 C70 1.263 . S
O56 Tb41 2.325 . S
O56 C71 1.236 . S
O57 Tb40 2.322 . S
O57 C71 1.257 . S
O58 Tb40 2.349 . S
O58 C42 1.261 . S
O59 Tb41 2.303 . S
O59 C42 1.257 . S
C60 O50 1.236 . S
C60 O51 1.257 1_565 S
O61 Tb40 2.415 1_565 S
O61 C49 1.239 . S
O62 Tb40 2.399 1_565 S
O62 C49 1.263 . S
C63 O52 1.261 . S
C63 O53 1.257 . S
C64 C67 1.358 . S
C64 C68 1.332 . S
C64 C70 1.504 . S
C65 C66 1.373 . S
C65 C69 1.308 . S
C66 C65 1.373 . S
C66 C67 1.429 . S
C66 H76 0.932 . S
C67 C64 1.358 . S
C67 C66 1.429 . S
C67 H77 0.930 . S
C68 C64 1.332 . S
C68 C69 1.394 . S
C68 H78 0.932 . S
C69 C65 1.308 . S
C69 C68 1.394 . S
C69 H79 0.929 . S
C70 Tb41 2.764 . S
C70 O54 1.239 . S
C70 O55 1.263 . S
C70 C64 1.504 . S
C71 O56 1.236 . S
C71 O57 1.257 . S
H72 C45 0.932 . S
H73 C46 0.930 . S
H74 C47 0.932 . S
H75 C48 0.929 . S
H76 C66 0.932 . S
H77 C67 0.930 . S
H78 C68 0.932 . S
H79 C69 0.929 . S
Tb80 C89 2.764 . S
Tb80 O90 2.325 . S
Tb80 O93 2.303 . S
Tb80 O97 2.322 . S
Tb80 O98 2.349 . S
Tb80 O101 2.415 . S
Tb80 O102 2.399 . S
Tb81 O91 2.322 . S
Tb81 O92 2.349 . S
Tb81 O94 2.415 . S
Tb81 O95 2.399 . S
Tb81 O96 2.325 . S
Tb81 O99 2.303 . S
Tb81 C110 2.764 . S
C82 O98 1.261 . S
C82 O99 1.257 . S
C83 C86 1.358 . S
C83 C87 1.332 . S
C83 C89 1.504 . S
C84 C85 1.373 . S
C84 C88 1.308 . S
C85 C84 1.373 . S
C85 C86 1.429 . S
C85 H112 0.932 . S
C86 C83 1.358 . S
C86 C85 1.429 . S
C86 H113 0.930 . S
C87 C83 1.332 . S
C87 C88 1.394 . S
C87 H114 0.932 . S
C88 C84 1.308 . S
C88 C87 1.394 . S
C88 H115 0.929 . S
C89 Tb80 2.764 . S
C89 C83 1.504 . S
C89 O101 1.239 . S
C89 O102 1.263 . S
O90 Tb80 2.325 . S
O90 C100 1.236 . S
O91 Tb81 2.322 . S
O91 C100 1.257 . S
O92 Tb81 2.349 . S
O92 C103 1.261 . S
O93 Tb80 2.303 . S
O93 C103 1.257 . S
O94 Tb81 2.415 . S
O94 C110 1.239 . S
O95 Tb81 2.399 . S
O95 C110 1.263 . S
O96 Tb81 2.325 . S
O96 C111 1.236 . S
O97 Tb80 2.322 . S
O97 C111 1.257 . S
O98 Tb80 2.349 . S
O98 C82 1.261 . S
O99 Tb81 2.303 . S
O99 C82 1.257 . S
C100 O90 1.236 . S
C100 O91 1.257 . S
O101 Tb80 2.415 . S
O101 C89 1.239 . S
O102 Tb80 2.399 . S
O102 C89 1.263 . S
C103 O92 1.261 . S
C103 O93 1.257 . S
C104 C107 1.358 . S
C104 C108 1.332 . S
C104 C110 1.504 . S
C105 C106 1.373 . S
C105 C109 1.308 . S
C106 C105 1.373 . S
C106 C107 1.429 . S
C106 H116 0.932 . S
C107 C104 1.358 . S
C107 C106 1.429 . S
C107 H117 0.930 . S
C108 C104 1.332 . S
C108 C109 1.394 . S
C108 H118 0.932 . S
C109 C105 1.308 . S
C109 C108 1.394 . S
C109 H119 0.929 . S
C110 Tb81 2.764 . S
C110 O94 1.239 . S
C110 O95 1.263 . S
C110 C104 1.504 . S
C111 O96 1.236 . S
C111 O97 1.257 . S
H112 C85 0.932 . S
H113 C86 0.930 . S
H114 C87 0.932 . S
H115 C88 0.929 . S
H116 C106 0.932 . S
H117 C107 0.930 . S
H118 C108 0.932 . S
H119 C109 0.929 . S
H120 C121 0.949 . S
C121 H120 0.949 . S
C121 C122 1.395 . S
C121 C123 1.391 . S
C122 C121 1.395 . S
C122 C125 1.390 . S
C123 C121 1.391 . S
C123 C127 1.387 . S
C123 C128 1.491 . S
H124 C125 0.950 . S
C125 C122 1.390 . S
C125 H124 0.950 . S
C125 C126 1.378 . S
C126 C125 1.378 . S
C126 C127 1.409 . S
C127 C123 1.387 . S
C127 C126 1.409 . S
C127 H129 0.951 . S
C128 C123 1.491 . S
C128 C130 1.382 . S
C128 C132 1.404 . S
H129 C127 0.951 . S
C130 C128 1.382 . S
C130 C131 1.390 . S
C130 H135 0.949 . S
C131 C130 1.390 . S
C131 C136 1.399 . S
C132 C128 1.404 . S
C132 H133 0.950 . S
C132 C134 1.375 . S
H133 C132 0.950 . S
C134 C132 1.375 . S
C134 C136 1.382 . S
C134 H138 0.950 . S
H135 C130 0.949 . S
C136 C131 1.399 . S
C136 C134 1.382 . S
C136 H137 0.952 . S
H137 C136 0.952 . S
H138 C134 0.950 . S
H139 C140 0.949 . S
C140 H139 0.949 . S
C140 C141 1.395 . S
C140 C142 1.391 . S
C141 C140 1.395 . S
C141 C144 1.390 . S
C142 C140 1.391 . S
C142 C146 1.387 . S
C142 C147 1.491 . S
H143 C144 0.950 . S
C144 C141 1.390 . S
C144 H143 0.950 . S
C144 C145 1.378 . S
C145 C144 1.378 . S
C145 C146 1.409 . S
C146 C142 1.387 . S
C146 C145 1.409 . S
C146 H148 0.951 . S
C147 C142 1.491 . S
C147 C149 1.382 . S
C147 C151 1.404 . S
H148 C146 0.951 . S
C149 C147 1.382 . S
C149 C150 1.390 . S
C149 H154 0.949 . S
C150 C149 1.390 . S
C150 C155 1.399 . S
C151 C147 1.404 . S
C151 H152 0.950 . S
C151 C153 1.375 . S
H152 C151 0.950 . S
C153 C151 1.375 . S
C153 C155 1.382 . S
C153 H157 0.950 . S
H154 C149 0.949 . S
C155 C150 1.399 . S
C155 C153 1.382 . S
C155 H156 0.952 . S
H156 C155 0.952 . S
H157 C153 0.950 . S
H158 C159 0.949 . S
C159 H158 0.949 . S
C159 C160 1.395 . S
C159 C161 1.391 . S
C160 C159 1.395 . S
C160 C163 1.390 . S
C161 C159 1.391 . S
C161 C165 1.387 . S
C161 C166 1.491 . S
H162 C163 0.950 1_655 S
C163 C160 1.390 . S
C163 H162 0.950 1_455 S
C163 C164 1.378 . S
C164 C163 1.378 . S
C164 C165 1.409 . S
C165 C161 1.387 . S
C165 C164 1.409 . S
C165 H167 0.951 . S
C166 C161 1.491 . S
C166 C168 1.382 . S
C166 C170 1.404 . S
H167 C165 0.951 . S
C168 C166 1.382 . S
C168 C169 1.390 . S
C168 H173 0.949 . S
C169 C168 1.390 . S
C169 C174 1.399 . S
C170 C166 1.404 . S
C170 H171 0.950 . S
C170 C172 1.375 . S
H171 C170 0.950 . S
C172 C170 1.375 . S
C172 C174 1.382 . S
C172 H176 0.950 . S
H173 C168 0.949 . S
C174 C169 1.399 . S
C174 C172 1.382 . S
C174 H175 0.952 . S
H175 C174 0.952 . S
H176 C172 0.950 . S
H177 C178 0.949 . S
C178 H177 0.949 . S
C178 C179 1.395 1_655 S
C178 C180 1.391 1_655 S
C179 C178 1.395 1_455 S
C179 C182 1.390 . S
C180 C178 1.391 1_455 S
C180 C184 1.387 . S
C180 C185 1.491 1_455 S
H181 C182 0.950 . S
C182 C179 1.390 . S
C182 H181 0.950 . S
C182 C183 1.378 . S
C183 C182 1.378 . S
C183 C184 1.409 . S
C184 C180 1.387 . S
C184 C183 1.409 . S
C184 H186 0.951 . S
C185 C180 1.491 1_655 S
C185 C187 1.382 . S
C185 C189 1.404 . S
H186 C184 0.951 . S
C187 C185 1.382 . S
C187 C188 1.390 . S
C187 H192 0.949 . S
C188 C187 1.390 . S
C188 C193 1.399 . S
C189 C185 1.404 . S
C189 H190 0.950 . S
C189 C191 1.375 . S
H190 C189 0.950 . S
C191 C189 1.375 . S
C191 C193 1.382 . S
C191 H195 0.950 . S
H192 C187 0.949 . S
C193 C188 1.399 . S
C193 C191 1.382 . S
C193 H194 0.952 . S
H194 C193 0.952 . S
H195 C191 0.950 . S
H196 C197 0.949 1_565 S
C197 H196 0.949 1_545 S
C197 C198 1.395 . S
C197 C199 1.391 . S
C198 C197 1.395 . S
C198 C201 1.390 . S
C199 C197 1.391 . S
C199 C203 1.387 . S
C199 C204 1.491 1_545 S
H200 C201 0.950 . S
C201 C198 1.390 . S
C201 H200 0.950 . S
C201 C202 1.378 . S
C202 C201 1.378 . S
C202 C203 1.409 . S
C203 C199 1.387 . S
C203 C202 1.409 . S
C203 H205 0.951 . S
C204 C199 1.491 1_565 S
C204 C206 1.382 . S
C204 C208 1.404 . S
H205 C203 0.951 . S
C206 C204 1.382 . S
C206 C207 1.390 . S
C206 H211 0.949 . S
C207 C206 1.390 . S
C207 C212 1.399 . S
C208 C204 1.404 . S
C208 H209 0.950 1_565 S
C208 C210 1.375 . S
H209 C208 0.950 1_545 S
C210 C208 1.375 . S
C210 C212 1.382 . S
C210 H214 0.950 . S
H211 C206 0.949 . S
C212 C207 1.399 . S
C212 C210 1.382 . S
C212 H213 0.952 . S
H213 C212 0.952 . S
H214 C210 0.950 . S
H215 C216 0.949 . S
C216 H215 0.949 . S
C216 C217 1.395 . S
C216 C218 1.391 . S
C217 C216 1.395 . S
C217 C220 1.390 . S
C218 C216 1.391 . S
C218 C222 1.387 . S
C218 C223 1.491 . S
H219 C220 0.950 . S
C220 C217 1.390 . S
C220 H219 0.950 . S
C220 C221 1.378 . S
C221 C220 1.378 . S
C221 C222 1.409 . S
C222 C218 1.387 . S
C222 C221 1.409 . S
C222 H224 0.951 . S
C223 C218 1.491 . S
C223 C225 1.382 . S
C223 C227 1.404 . S
H224 C222 0.951 . S
C225 C223 1.382 . S
C225 C226 1.390 . S
C225 H230 0.949 . S
C226 C225 1.390 . S
C226 C231 1.399 . S
C227 C223 1.404 . S
C227 H228 0.950 . S
C227 C229 1.375 . S
H228 C227 0.950 . S
C229 C227 1.375 . S
C229 C231 1.382 . S
C229 H233 0.950 . S
H230 C225 0.949 . S
C231 C226 1.399 . S
C231 C229 1.382 . S
C231 H232 0.952 . S
H232 C231 0.952 . S
H233 C229 0.950 . S
H234 C240 0.930 . S
H235 C244 0.930 . S
H236 C249 0.929 . S
H237 C247 0.929 . S
H238 C242 0.929 . S
H239 C248 0.929 . S
C240 H234 0.930 . S
C240 C241 1.367 . S
C240 C248 1.378 . S
C241 C240 1.367 . S
C241 C249 1.433 . S
C242 H238 0.929 . S
C242 C244 1.378 . S
C242 C246 1.350 . S
C243 C246 1.463 . S
C243 C248 1.350 . S
C243 N251 1.427 . S
C244 H235 0.930 . S
C244 C242 1.378 . S
C244 C245 1.367 . S
C245 C244 1.367 . S
C245 C247 1.433 . S
C246 C242 1.350 . S
C246 C243 1.463 . S
C246 N250 1.427 . S
C247 H237 0.929 . S
C247 C245 1.433 . S
C247 N250 1.384 . S
C248 H239 0.929 . S
C248 C240 1.378 . S
C248 C243 1.350 . S
C249 H236 0.929 . S
C249 C241 1.433 . S
C249 N251 1.384 . S
N250 C246 1.427 . S
N250 C247 1.384 . S
N251 C243 1.427 . S
N251 C249 1.384 . S
H252 C258 0.930 . S
H253 C262 0.930 . S
H254 C267 0.929 . S
H255 C265 0.929 . S
H256 C260 0.929 . S
H257 C266 0.929 . S
C258 H252 0.930 . S
C258 C259 1.367 . S
C258 C266 1.378 . S
C259 C258 1.367 . S
C259 C267 1.433 . S
C260 H256 0.929 . S
C260 C262 1.378 . S
C260 C264 1.350 . S
C261 C264 1.463 . S
C261 C266 1.350 . S
C261 N269 1.427 . S
C262 H253 0.930 . S
C262 C260 1.378 . S
C262 C263 1.367 . S
C263 C262 1.367 . S
C263 C265 1.433 . S
C264 C260 1.350 . S
C264 C261 1.463 . S
C264 N268 1.427 . S
C265 H255 0.929 . S
C265 C263 1.433 . S
C265 N268 1.384 . S
C266 H257 0.929 . S
C266 C258 1.378 . S
C266 C261 1.350 . S
C267 H254 0.929 . S
C267 C259 1.433 . S
C267 N269 1.384 . S
N268 C264 1.427 . S
N268 C265 1.384 . S
N269 C261 1.427 . S
N269 C267 1.384 . S
H270 C276 0.930 . S
H271 C280 0.930 . S
H272 C285 0.929 . S
H273 C283 0.929 . S
H274 C278 0.929 . S
H275 C284 0.929 . S
C276 H270 0.930 . S
C276 C277 1.367 . S
C276 C284 1.378 . S
C277 C276 1.367 . S
C277 C285 1.433 . S
C278 H274 0.929 . S
C278 C280 1.378 . S
C278 C282 1.350 . S
C279 C282 1.463 . S
C279 C284 1.350 . S
C279 N287 1.427 . S
C280 H271 0.930 . S
C280 C278 1.378 . S
C280 C281 1.367 . S
C281 C280 1.367 . S
C281 C283 1.433 . S
C282 C278 1.350 . S
C282 C279 1.463 . S
C282 N286 1.427 . S
C283 H273 0.929 . S
C283 C281 1.433 . S
C283 N286 1.384 . S
C284 H275 0.929 . S
C284 C276 1.378 . S
C284 C279 1.350 . S
C285 H272 0.929 . S
C285 C277 1.433 . S
C285 N287 1.384 . S
N286 C282 1.427 . S
N286 C283 1.384 . S
N287 C279 1.427 . S
N287 C285 1.384 . S
H288 C294 0.930 . S
H289 C298 0.930 . S
H290 C303 0.929 . S
H291 C301 0.929 . S
H292 C296 0.929 . S
H293 C302 0.929 . S
C294 H288 0.930 . S
C294 C295 1.367 . S
C294 C302 1.378 . S
C295 C294 1.367 . S
C295 C303 1.433 . S
C296 H292 0.929 . S
C296 C298 1.378 . S
C296 C300 1.350 . S
C297 C300 1.463 . S
C297 C302 1.350 . S
C297 N305 1.427 . S
C298 H289 0.930 . S
C298 C296 1.378 . S
C298 C299 1.367 . S
C299 C298 1.367 . S
C299 C301 1.433 . S
C300 C296 1.350 . S
C300 C297 1.463 . S
C300 N304 1.427 . S
C301 H291 0.929 . S
C301 C299 1.433 . S
C301 N304 1.384 . S
C302 H293 0.929 . S
C302 C294 1.378 . S
C302 C297 1.350 . S
C303 H290 0.929 . S
C303 C295 1.433 . S
C303 N305 1.384 . S
N304 C300 1.427 . S
N304 C301 1.384 . S
N305 C297 1.427 . S
N305 C303 1.384 . S
H306 C312 0.930 . S
H307 C316 0.930 . S
H308 C321 0.929 . S
H309 C319 0.929 . S
H310 C314 0.929 . S
H311 C320 0.929 . S
C312 H306 0.930 . S
C312 C313 1.367 . S
C312 C320 1.378 . S
C313 C312 1.367 . S
C313 C321 1.433 . S
C314 H310 0.929 . S
C314 C316 1.378 . S
C314 C318 1.350 . S
C315 C318 1.463 . S
C315 C320 1.350 . S
C315 N323 1.427 . S
C316 H307 0.930 . S
C316 C314 1.378 . S
C316 C317 1.367 . S
C317 C316 1.367 . S
C317 C319 1.433 . S
C318 C314 1.350 . S
C318 C315 1.463 . S
C318 N322 1.427 . S
C319 H309 0.929 . S
C319 C317 1.433 . S
C319 N322 1.384 . S
C320 H311 0.929 . S
C320 C312 1.378 . S
C320 C315 1.350 . S
C321 H308 0.929 . S
C321 C313 1.433 . S
C321 N323 1.384 . S
N322 C318 1.427 . S
N322 C319 1.384 . S
N323 C315 1.427 . S
N323 C321 1.384 . S
H324 C330 0.930 . S
H325 C334 0.930 . S
H326 C339 0.929 . S
H327 C337 0.929 . S
H328 C332 0.929 . S
H329 C338 0.929 . S
C330 H324 0.930 . S
C330 C331 1.367 . S
C330 C338 1.378 . S
C331 C330 1.367 . S
C331 C339 1.433 . S
C332 H328 0.929 . S
C332 C334 1.378 . S
C332 C336 1.350 . S
C333 C336 1.463 . S
C333 C338 1.350 . S
C333 N341 1.427 . S
C334 H325 0.930 . S
C334 C332 1.378 . S
C334 C335 1.367 . S
C335 C334 1.367 . S
C335 C337 1.433 . S
C336 C332 1.350 . S
C336 C333 1.463 . S
C336 N340 1.427 . S
C337 H327 0.929 . S
C337 C335 1.433 . S
C337 N340 1.384 . S
C338 H329 0.929 . S
C338 C330 1.378 . S
C338 C333 1.350 . S
C339 H326 0.929 . S
C339 C331 1.433 . S
C339 N341 1.384 . S
N340 C336 1.427 . S
N340 C337 1.384 . S
N341 C333 1.427 . S
N341 C339 1.384 . S
H342 C348 0.930 . S
H343 C352 0.930 . S
H344 C357 0.929 . S
H345 C355 0.929 . S
H346 C350 0.929 . S
H347 C356 0.929 . S
C348 H342 0.930 . S
C348 C349 1.367 . S
C348 C356 1.378 . S
C349 C348 1.367 . S
C349 C357 1.433 . S
C350 H346 0.929 . S
C350 C352 1.378 . S
C350 C354 1.350 . S
C351 C354 1.463 . S
C351 C356 1.350 . S
C351 N359 1.427 . S
C352 H343 0.930 . S
C352 C350 1.378 . S
C352 C353 1.367 . S
C353 C352 1.367 . S
C353 C355 1.433 . S
C354 C350 1.350 . S
C354 C351 1.463 . S
C354 N358 1.427 . S
C355 H345 0.929 . S
C355 C353 1.433 . S
C355 N358 1.384 . S
C356 H347 0.929 . S
C356 C348 1.378 . S
C356 C351 1.350 . S
C357 H344 0.929 . S
C357 C349 1.433 . S
C357 N359 1.384 . S
N358 C354 1.427 . S
N358 C355 1.384 . S
N359 C351 1.427 . S
N359 C357 1.384 . S
H360 C366 0.930 . S
H361 C370 0.930 . S
H362 C375 0.929 . S
H363 C373 0.929 . S
H364 C368 0.929 . S
H365 C374 0.929 . S
C366 H360 0.930 . S
C366 C367 1.367 . S
C366 C374 1.378 . S
C367 C366 1.367 . S
C367 C375 1.433 . S
C368 H364 0.929 . S
C368 C370 1.378 . S
C368 C372 1.350 . S
C369 C372 1.463 . S
C369 C374 1.350 . S
C369 N377 1.427 . S
C370 H361 0.930 . S
C370 C368 1.378 . S
C370 C371 1.367 . S
C371 C370 1.367 . S
C371 C373 1.433 . S
C372 C368 1.350 . S
C372 C369 1.463 . S
C372 N376 1.427 . S
C373 H363 0.929 . S
C373 C371 1.433 . S
C373 N376 1.384 . S
C374 H365 0.929 . S
C374 C366 1.378 . S
C374 C369 1.350 . S
C375 H362 0.929 . S
C375 C367 1.433 . S
C375 N377 1.384 . S
N376 C372 1.427 . S
N376 C373 1.384 . S
N377 C369 1.427 . S
N377 C375 1.384 . S
H378 C384 0.930 . S
H379 C388 0.930 . S
H380 C393 0.929 . S
H381 C391 0.929 . S
H382 C386 0.929 . S
H383 C392 0.929 . S
C384 H378 0.930 . S
C384 C385 1.367 . S
C384 C392 1.378 . S
C385 C384 1.367 . S
C385 C393 1.433 . S
C386 H382 0.929 . S
C386 C388 1.378 . S
C386 C390 1.350 . S
C387 C390 1.463 . S
C387 C392 1.350 . S
C387 N395 1.427 . S
C388 H379 0.930 . S
C388 C386 1.378 . S
C388 C389 1.367 . S
C389 C388 1.367 . S
C389 C391 1.433 . S
C390 C386 1.350 . S
C390 C387 1.463 . S
C390 N394 1.427 . S
C391 H381 0.929 . S
C391 C389 1.433 . S
C391 N394 1.384 . S
C392 H383 0.929 . S
C392 C384 1.378 . S
C392 C387 1.350 . S
C393 H380 0.929 . S
C393 C385 1.433 . S
C393 N395 1.384 . S
N394 C390 1.427 . S
N394 C391 1.384 . S
N395 C387 1.427 . S
N395 C393 1.384 . S
H396 C402 0.930 . S
H397 C406 0.930 . S
H398 C411 0.929 . S
H399 C409 0.929 . S
H400 C404 0.929 . S
H401 C410 0.929 . S
C402 H396 0.930 . S
C402 C403 1.367 . S
C402 C410 1.378 . S
C403 C402 1.367 . S
C403 C411 1.433 . S
C404 H400 0.929 . S
C404 C406 1.378 . S
C404 C408 1.350 . S
C405 C408 1.463 . S
C405 C410 1.350 . S
C405 N413 1.427 . S
C406 H397 0.930 . S
C406 C404 1.378 . S
C406 C407 1.367 . S
C407 C406 1.367 . S
C407 C409 1.433 . S
C408 C404 1.350 . S
C408 C405 1.463 . S
C408 N412 1.427 . S
C409 H399 0.929 . S
C409 C407 1.433 . S
C409 N412 1.384 . S
C410 H401 0.929 . S
C410 C402 1.378 . S
C410 C405 1.350 . S
C411 H398 0.929 . S
C411 C403 1.433 . S
C411 N413 1.384 . S
N412 C408 1.427 . S
N412 C409 1.384 . S
N413 C405 1.427 . S
N413 C411 1.384 . S
H414 C420 0.930 . S
H415 C424 0.930 . S
H416 C429 0.929 . S
H417 C427 0.929 . S
H418 C422 0.929 . S
H419 C428 0.929 . S
C420 H414 0.930 . S
C420 C421 1.367 . S
C420 C428 1.378 . S
C421 C420 1.367 . S
C421 C429 1.433 . S
C422 H418 0.929 . S
C422 C424 1.378 . S
C422 C426 1.350 . S
C423 C426 1.463 . S
C423 C428 1.350 . S
C423 N431 1.427 . S
C424 H415 0.930 . S
C424 C422 1.378 . S
C424 C425 1.367 . S
C425 C424 1.367 . S
C425 C427 1.433 . S
C426 C422 1.350 . S
C426 C423 1.463 . S
C426 N430 1.427 . S
C427 H417 0.929 . S
C427 C425 1.433 . S
C427 N430 1.384 . S
C428 H419 0.929 . S
C428 C420 1.378 . S
C428 C423 1.350 . S
C429 H416 0.929 . S
C429 C421 1.433 . S
C429 N431 1.384 . S
N430 C426 1.427 . S
N430 C427 1.384 . S
N431 C423 1.427 . S
N431 C429 1.384 . S
H432 C438 0.930 . S
H433 C442 0.930 . S
H434 C447 0.929 . S
H435 C445 0.929 . S
H436 C440 0.929 . S
H437 C446 0.929 . S
C438 H432 0.930 . S
C438 C439 1.367 . S
C438 C446 1.378 . S
C439 C438 1.367 . S
C439 C447 1.433 . S
C440 H436 0.929 . S
C440 C442 1.378 . S
C440 C444 1.350 . S
C441 C444 1.463 . S
C441 C446 1.350 . S
C441 N449 1.427 . S
C442 H433 0.930 . S
C442 C440 1.378 . S
C442 C443 1.367 . S
C443 C442 1.367 . S
C443 C445 1.433 . S
C444 C440 1.350 . S
C444 C441 1.463 . S
C444 N448 1.427 . S
C445 H435 0.929 . S
C445 C443 1.433 . S
C445 N448 1.384 . S
C446 H437 0.929 . S
C446 C438 1.378 . S
C446 C441 1.350 . S
C447 H434 0.929 . S
C447 C439 1.433 . S
C447 N449 1.384 . S
N448 C444 1.427 . S
N448 C445 1.384 . S
N449 C441 1.427 . S
N449 C447 1.384 . S
H450 C456 0.930 . S
H451 C460 0.930 . S
H452 C465 0.929 1_655 S
H453 C463 0.929 . S
H454 C458 0.924 1_655 S
H455 C464 0.929 . S
C456 H450 0.930 . S
C456 C457 1.367 . S
C456 C464 1.378 . S
C457 C456 1.367 . S
C457 C465 1.433 . S
C458 H454 0.924 1_455 S
C458 C460 1.378 . S
C458 C462 1.350 . S
C459 C462 1.463 1_554 S
C459 C464 1.350 . S
C459 N467 1.427 . S
C460 H451 0.930 . S
C460 C458 1.378 . S
C460 C461 1.367 . S
C461 C460 1.367 . S
C461 C463 1.433 . S
C462 C458 1.350 . S
C462 C459 1.463 1_556 S
C462 N466 1.427 . S
C463 H453 0.929 . S
C463 C461 1.433 . S
C463 N466 1.384 . S
C464 H455 0.929 . S
C464 C456 1.378 . S
C464 C459 1.350 . S
C465 H452 0.929 1_455 S
C465 C457 1.433 . S
C465 N467 1.384 . S
N466 C462 1.427 . S
N466 C463 1.384 . S
N467 C459 1.427 . S
N467 C465 1.384 . S
H468 C474 0.930 . S
H469 C478 0.930 . S
H470 C483 0.929 . S
H471 C481 0.929 . S
H472 C476 0.929 . S
H473 C482 0.929 . S
C474 H468 0.930 . S
C474 C475 1.367 . S
C474 C482 1.378 . S
C475 C474 1.367 . S
C475 C483 1.433 . S
C476 H472 0.929 . S
C476 C478 1.378 . S
C476 C480 1.350 . S
C477 C480 1.463 . S
C477 C482 1.350 . S
C477 N485 1.427 . S
C478 H469 0.930 . S
C478 C476 1.378 . S
C478 C479 1.367 . S
C479 C478 1.367 . S
C479 C481 1.433 . S
C480 C476 1.350 . S
C480 C477 1.463 . S
C480 N484 1.427 . S
C481 H471 0.929 . S
C481 C479 1.433 . S
C481 N484 1.384 . S
C482 H473 0.929 . S
C482 C474 1.378 . S
C482 C477 1.350 . S
C483 H470 0.929 . S
C483 C475 1.433 . S
C483 N485 1.384 . S
N484 C480 1.427 . S
N484 C481 1.384 . S
N485 C477 1.427 . S
N485 C483 1.384 . S
H486 C492 0.930 . S
H487 C496 0.930 . S
H488 C501 0.929 . S
H489 C499 0.929 . S
H490 C494 0.929 . S
H491 C500 0.929 . S
C492 H486 0.930 . S
C492 C493 1.367 . S
C492 C500 1.378 . S
C493 C492 1.367 . S
C493 C501 1.433 . S
C494 H490 0.929 . S
C494 C496 1.378 . S
C494 C498 1.350 . S
C495 C498 1.463 . S
C495 C500 1.350 . S
C495 N503 1.427 . S
C496 H487 0.930 . S
C496 C494 1.378 . S
C496 C497 1.367 . S
C497 C496 1.367 . S
C497 C499 1.433 . S
C498 C494 1.350 . S
C498 C495 1.463 . S
C498 N502 1.427 . S
C499 H489 0.929 . S
C499 C497 1.433 . S
C499 N502 1.384 . S
C500 H491 0.929 . S
C500 C492 1.378 . S
C500 C495 1.350 . S
C501 H488 0.929 . S
C501 C493 1.433 . S
C501 N503 1.384 . S
N502 C498 1.427 . S
N502 C499 1.384 . S
N503 C495 1.427 . S
N503 C501 1.384 . S
H504 C510 0.930 . S
H505 C514 0.930 . S
H506 C519 0.929 . S
H507 C517 0.929 . S
H508 C512 0.929 . S
H509 C518 0.929 . S
C510 H504 0.930 . S
C510 C511 1.367 . S
C510 C518 1.378 . S
C511 C510 1.367 . S
C511 C519 1.433 . S
C512 H508 0.929 . S
C512 C514 1.378 . S
C512 C516 1.350 . S
C513 C516 1.463 . S
C513 C518 1.350 . S
C513 N521 1.427 . S
C514 H505 0.930 . S
C514 C512 1.378 . S
C514 C515 1.367 . S
C515 C514 1.367 . S
C515 C517 1.433 . S
C516 C512 1.350 . S
C516 C513 1.463 . S
C516 N520 1.427 . S
C517 H507 0.929 . S
C517 C515 1.433 . S
C517 N520 1.384 . S
C518 H509 0.929 . S
C518 C510 1.378 . S
C518 C513 1.350 . S
C519 H506 0.929 . S
C519 C511 1.433 . S
C519 N521 1.384 . S
N520 C516 1.427 . S
N520 C517 1.384 . S
N521 C513 1.427 . S
N521 C519 1.384 . S
H522 C528 0.930 . S
H523 C532 0.930 . S
H524 C537 0.929 . S
H525 C535 0.929 . S
H526 C530 0.914 1_556 S
H527 C536 0.929 . S
C528 H522 0.930 . S
C528 C529 1.367 . S
C528 C536 1.378 . S
C529 C528 1.367 . S
C529 C537 1.433 . S
C530 H526 0.914 1_554 S
C530 C532 1.378 . S
C530 C534 1.350 1_554 S
C531 C534 1.463 . S
C531 C536 1.350 . S
C531 N539 1.427 . S
C532 H523 0.930 . S
C532 C530 1.378 . S
C532 C533 1.367 . S
C533 C532 1.367 . S
C533 C535 1.433 . S
C534 C530 1.350 1_556 S
C534 C531 1.463 . S
C534 N538 1.427 1_556 S
C535 H525 0.929 . S
C535 C533 1.433 . S
C535 N538 1.384 . S
C536 H527 0.929 . S
C536 C528 1.378 . S
C536 C531 1.350 . S
C537 H524 0.929 . S
C537 C529 1.433 . S
C537 N539 1.384 . S
N538 C534 1.427 1_554 S
N538 C535 1.384 . S
N539 C531 1.427 . S
N539 C537 1.384 . S
H540 C546 0.930 . S
H541 C550 0.930 . S
H542 C555 0.929 . S
H543 C553 0.929 . S
H544 C548 0.929 . S
H545 C554 0.929 . S
C546 H540 0.930 . S
C546 C547 1.367 . S
C546 C554 1.378 . S
C547 C546 1.367 . S
C547 C555 1.433 . S
C548 H544 0.929 . S
C548 C550 1.378 . S
C548 C552 1.350 . S
C549 C552 1.463 . S
C549 C554 1.350 . S
C549 N557 1.427 . S
C550 H541 0.930 . S
C550 C548 1.378 . S
C550 C551 1.367 . S
C551 C550 1.367 . S
C551 C553 1.433 . S
C552 C548 1.350 . S
C552 C549 1.463 . S
C552 N556 1.427 . S
C553 H543 0.929 . S
C553 C551 1.433 . S
C553 N556 1.384 . S
C554 H545 0.929 . S
C554 C546 1.378 . S
C554 C549 1.350 . S
C555 H542 0.929 . S
C555 C547 1.433 . S
C555 N557 1.384 . S
N556 C552 1.427 . S
N556 C553 1.384 . S
N557 C549 1.427 . S
N557 C555 1.384 . S
C241 C25 0.532 . S
C245 C226 0.621 . S
C259 C65 0.277 . S
C263 C188 0.492 . S
C277 C105 0.298 . S
C281 C207 0.443 . S
C295 C4 0.364 . S
C299 C221 0.299 . S
C317 C183 0.211 . S
C313 C44 0.141 . S
C335 C202 0.159 . S
C331 C84 0.156 . S
C349 C60 3.088 . S
C353 C150 2.997 . S
C367 C100 3.042 . S
C371 C164 3.002 1_655 S
C385 C31 3.016 . S
C389 C126 2.966 1_565 S
C407 C145 2.964 . S
C403 C71 3.013 . S
C425 C169 2.975 . S
C421 C111 3.047 . S
C439 C20 3.090 . S
C443 C131 2.999 . S
C461 C160 1.735 . S
C457 C2 1.722 . S
C475 C42 1.754 . S
C479 C122 1.753 . S
C493 C82 1.741 . S
C497 C141 1.743 . S
C515 C198 1.296 . S
C511 C63 1.272 . S
C533 C217 1.351 . S
C529 C103 1.326 . S
C547 C23 1.235 . S
C551 C179 1.255 . S
