# Generated by pormake.
# Topology pyr, (3,6)-cn, num edge types: 1
# Building blocks:
#     Node 0, Type 0, BuildingBlock: CUQRIR_clean_linker_1, # of connection points: 3
#     Node 1, Type 0, BuildingBlock: CUQRIR_clean_linker_1, # of connection points: 3
#     Node 2, Type 0, BuildingBlock: CUQRIR_clean_linker_1, # of connection points: 3
#     Node 3, Type 0, BuildingBlock: CUQRIR_clean_linker_1, # of connection points: 3
#     Node 4, Type 0, BuildingBlock: CUQRIR_clean_linker_1, # of connection points: 3
#     Node 5, Type 0, BuildingBlock: CUQRIR_clean_linker_1, # of connection points: 3
#     Node 6, Type 0, BuildingBlock: CUQRIR_clean_linker_1, # of connection points: 3
#     Node 7, Type 0, BuildingBlock: CUQRIR_clean_linker_1, # of connection points: 3
#     Node 8, Type 1, BuildingBlock: FUNLAD_clean_sbu_0, # of connection points: 6
#     Node 9, Type 1, BuildingBlock: FUNLAD_clean_sbu_0, # of connection points: 6
#     Node 10, Type 1, BuildingBlock: FUNLAD_clean_sbu_0, # of connection points: 6
#     Node 11, Type 1, BuildingBlock: FUNLAD_clean_sbu_0, # of connection points: 6
#     Edge 12, Type (0, 1), BuildingBlock: MIFKUJ_clean_linker_0, # of connection points: 2
#     Edge 13, Type (0, 1), BuildingBlock: MIFKUJ_clean_linker_0, # of connection points: 2
#     Edge 14, Type (0, 1), BuildingBlock: MIFKUJ_clean_linker_0, # of connection points: 2
#     Edge 15, Type (0, 1), BuildingBlock: MIFKUJ_clean_linker_0, # of connection points: 2
#     Edge 16, Type (0, 1), BuildingBlock: MIFKUJ_clean_linker_0, # of connection points: 2
#     Edge 17, Type (0, 1), BuildingBlock: MIFKUJ_clean_linker_0, # of connection points: 2
#     Edge 18, Type (0, 1), BuildingBlock: MIFKUJ_clean_linker_0, # of connection points: 2
#     Edge 19, Type (0, 1), BuildingBlock: MIFKUJ_clean_linker_0, # of connection points: 2
#     Edge 20, Type (0, 1), BuildingBlock: MIFKUJ_clean_linker_0, # of connection points: 2
#     Edge 21, Type (0, 1), BuildingBlock: MIFKUJ_clean_linker_0, # of connection points: 2
#     Edge 22, Type (0, 1), BuildingBlock: MIFKUJ_clean_linker_0, # of connection points: 2
#     Edge 23, Type (0, 1), BuildingBlock: MIFKUJ_clean_linker_0, # of connection points: 2
#     Edge 24, Type (0, 1), BuildingBlock: MIFKUJ_clean_linker_0, # of connection points: 2
#     Edge 25, Type (0, 1), BuildingBlock: MIFKUJ_clean_linker_0, # of connection points: 2
#     Edge 26, Type (0, 1), BuildingBlock: MIFKUJ_clean_linker_0, # of connection points: 2
#     Edge 27, Type (0, 1), BuildingBlock: MIFKUJ_clean_linker_0, # of connection points: 2
#     Edge 28, Type (0, 1), BuildingBlock: MIFKUJ_clean_linker_0, # of connection points: 2
#     Edge 29, Type (0, 1), BuildingBlock: MIFKUJ_clean_linker_0, # of connection points: 2
#     Edge 30, Type (0, 1), BuildingBlock: MIFKUJ_clean_linker_0, # of connection points: 2
#     Edge 31, Type (0, 1), BuildingBlock: MIFKUJ_clean_linker_0, # of connection points: 2
#     Edge 32, Type (0, 1), BuildingBlock: MIFKUJ_clean_linker_0, # of connection points: 2
#     Edge 33, Type (0, 1), BuildingBlock: MIFKUJ_clean_linker_0, # of connection points: 2
#     Edge 34, Type (0, 1), BuildingBlock: MIFKUJ_clean_linker_0, # of connection points: 2
#     Edge 35, Type (0, 1), BuildingBlock: MIFKUJ_clean_linker_0, # of connection points: 2
# Relax obj value: 0.152
# Max RMSD: 0.221
# Mean RMSD: 0.150
data_MOF--net-pry--node1-FUNLAD_clean_sbu_0--node2-CUQRIR_clean_linker_1--edge1-MIFKUJ_clean_linker_0
_symmetry_space_group_name_H-M    P1
_symmetry_Int_Tables_number       1
_symmetry_cell_setting            triclinic
loop_
_symmetry_equiv_pos_as_xyz
'x, y, z'
_cell_length_a     44.161641
_cell_length_b     46.203648
_cell_length_c     46.192818
_cell_angle_alpha  88.612115
_cell_angle_beta   91.88825
_cell_angle_gamma 89.755031
loop_
_atom_site_label
_atom_site_type_symbol
_atom_site_fract_x
_atom_site_fract_y
_atom_site_fract_z
_atom_type_partial_charge
C0 C 0.17438 0.24141 0.19634 0.0
N1 N 0.19277 0.21794 0.20235 0.0
N2 N 0.18157 0.25534 0.17117 0.0
C3 C 0.14773 0.2495 0.21401 0.0
C4 C 0.20511 0.23926 0.16192 0.0
N5 N 0.21193 0.21645 0.18044 0.0
C6 C 0.22287 0.24694 0.13557 0.0
H7 H 0.12993 0.26066 0.20033 0.0
H8 H 0.15543 0.26436 0.23123 0.0
H9 H 0.13777 0.23005 0.22448 0.0
H10 H 0.22174 0.27054 0.13057 0.0
H11 H 0.21319 0.23527 0.11674 0.0
H12 H 0.24698 0.24041 0.13874 0.0
C13 C 0.37207 0.88752 0.6732 0.0
N14 N 0.36569 0.90945 0.6913 0.0
N15 N 0.39601 0.87129 0.6833 0.0
C16 C 0.35521 0.88238 0.64497 0.0
C17 C 0.4042 0.88439 0.70849 0.0
N18 N 0.38583 0.90753 0.71365 0.0
C19 C 0.42951 0.87396 0.72877 0.0
H20 H 0.33496 0.86897 0.64916 0.0
H21 H 0.36961 0.87091 0.62966 0.0
H22 H 0.34749 0.90325 0.63487 0.0
H23 H 0.44578 0.85997 0.71782 0.0
H24 H 0.41977 0.86117 0.7468 0.0
H25 H 0.44174 0.89264 0.73818 0.0
C26 C 0.60961 0.49183 0.95237 0.0
N27 N 0.63173 0.48051 0.97027 0.0
N28 N 0.61741 0.51843 0.94216 0.0
C29 C 0.58299 0.47492 0.94063 0.0
C30 C 0.64496 0.52292 0.95504 0.0
N31 N 0.6538 0.49984 0.97181 0.0
C32 C 0.66456 0.54881 0.94918 0.0
H33 H 0.58535 0.47186 0.91705 0.0
H34 H 0.56176 0.48721 0.94363 0.0
H35 H 0.581 0.45348 0.95153 0.0
H36 H 0.65091 0.56718 0.93981 0.0
H37 H 0.68222 0.54294 0.93379 0.0
H38 H 0.67629 0.55545 0.96956 0.0
C39 C 0.90727 0.6193 0.42218 0.0
N40 N 0.93075 0.63735 0.41759 0.0
N41 N 0.89336 0.62589 0.4469 0.0
C42 C 0.89523 0.59819 0.40041 0.0
C43 C 0.90924 0.64868 0.45708 0.0
N44 N 0.93182 0.65575 0.43921 0.0
C45 C 0.90002 0.66642 0.48225 0.0
H46 H 0.88403 0.61036 0.38199 0.0
H47 H 0.87864 0.58318 0.41018 0.0
H48 H 0.91411 0.58547 0.39174 0.0
H49 H 0.89254 0.6521 0.50023 0.0
H50 H 0.88064 0.68057 0.47525 0.0
H51 H 0.91896 0.68011 0.49023 0.0
C52 C 0.85956 0.89637 0.86476 0.0
N53 N 0.88252 0.89107 0.8465 0.0
N54 N 0.84541 0.92205 0.85817 0.0
C55 C 0.85085 0.87626 0.88926 0.0
C56 C 0.86085 0.93222 0.83495 0.0
N57 N 0.88343 0.91364 0.82772 0.0
C58 C 0.85414 0.96071 0.8195 0.0
H59 H 0.82641 0.87833 0.89365 0.0
H60 H 0.8642 0.88192 0.90906 0.0
H61 H 0.85574 0.85334 0.88464 0.0
H62 H 0.8428 0.976 0.83383 0.0
H63 H 0.83901 0.95684 0.80035 0.0
H64 H 0.87512 0.9709 0.81173 0.0
C65 C 0.71026 0.23442 0.37892 0.0
N66 N 0.7158 0.2118 0.36138 0.0
N67 N 0.6846 0.24909 0.37031 0.0
C68 C 0.72959 0.24171 0.40515 0.0
C69 C 0.67467 0.23436 0.34668 0.0
N70 N 0.69341 0.21172 0.34108 0.0
C71 C 0.64667 0.24239 0.32876 0.0
H72 H 0.73991 0.22191 0.41538 0.0
H73 H 0.71616 0.25299 0.42137 0.0
H74 H 0.74819 0.25614 0.39832 0.0
H75 H 0.64186 0.26592 0.32978 0.0
H76 H 0.62712 0.2304 0.3375 0.0
H77 H 0.64886 0.2365 0.30581 0.0
C78 C 0.41611 0.6087 0.09054 0.0
N79 N 0.43671 0.62926 0.09735 0.0
N80 N 0.40086 0.61567 0.06538 0.0
C81 C 0.40716 0.58454 0.11094 0.0
C82 C 0.41344 0.64101 0.05691 0.0
N83 N 0.43478 0.64958 0.07653 0.0
C84 C 0.40185 0.6592 0.0314 0.0
H85 H 0.42754 0.57216 0.11866 0.0
H86 H 0.39095 0.56953 0.10032 0.0
H87 H 0.39664 0.59386 0.13014 0.0
H88 H 0.38057 0.67023 0.03714 0.0
H89 H 0.39657 0.64525 0.01271 0.0
H90 H 0.41869 0.67571 0.02497 0.0
C91 C 0.1125 0.48292 0.57805 0.0
N92 N 0.13701 0.47379 0.56389 0.0
N93 N 0.11961 0.5051 0.5956 0.0
C94 C 0.08339 0.46624 0.57962 0.0
C95 C 0.14931 0.50964 0.59105 0.0
N96 N 0.1599 0.4906 0.57201 0.0
C97 C 0.16879 0.52994 0.60842 0.0
H98 H 0.07571 0.45956 0.55769 0.0
H99 H 0.0653 0.47929 0.58924 0.0
H100 H 0.08754 0.44644 0.59323 0.0
H101 H 0.17733 0.51848 0.62846 0.0
H102 H 0.15536 0.54897 0.6148 0.0
H103 H 0.18847 0.53728 0.59589 0.0
C104 C 0.07666 0.07836 0.46384 0.0
N105 N 0.05844 0.11819 0.54256 0.0
C106 C 0.08705 0.1283 0.53939 0.0
C107 C 0.09403 0.15687 0.54543 0.0
C108 C 0.07139 0.17548 0.55484 0.0
C109 C 0.0423 0.16418 0.55925 0.0
C110 C 0.03627 0.13525 0.5529 0.0
Zn111 Zn 0.05004 0.07865 0.52546 0.0
C112 C 0.99054 0.07906 0.48898 0.0
N113 N 0.0365 0.99788 0.48578 0.0
C114 C 0.06022 0.98495 0.47308 0.0
C115 C 0.00923 0.98456 0.48764 0.0
C116 C 1.00527 0.95672 0.47715 0.0
C117 C 0.0296 0.94251 0.46458 0.0
C118 C 0.05724 0.95716 0.46225 0.0
Zn119 Zn 0.04299 0.03695 0.50414 0.0
O120 O 0.07269 0.09414 0.48571 0.0
C121 C 0.10189 0.03663 0.54132 0.0
O122 O 0.06704 0.05238 0.46534 0.0
H123 H 0.99075 0.99526 0.49793 0.0
H124 H 0.10423 0.11465 0.53058 0.0
H125 H 0.0817 0.99599 0.47188 0.0
O126 O 0.09308 0.06259 0.5446 0.0
O127 O 0.08558 0.02056 0.52508 0.0
H128 H 0.01362 0.12681 0.55503 0.0
O129 O 0.01915 0.02175 0.54296 0.0
O130 O 0.02756 0.06242 0.56511 0.0
O131 O 1.00018 0.05364 0.48384 0.0
O132 O 1.00646 0.09441 0.50629 0.0
C133 C 0.01685 0.0367 0.56571 0.0
H134 H 0.11657 0.16465 0.54111 0.0
H135 H 0.02423 0.17774 0.56671 0.0
H136 H 0.98369 0.94608 0.47979 0.0
H137 H 0.07646 0.94714 0.45243 0.0
C138 C 0.58516 0.04144 1.00554 0.0
N139 N 0.54376 0.12431 1.00131 0.0
C140 C 0.57328 0.13232 1.00448 0.0
C141 C 0.58185 0.1608 0.99913 0.0
C142 C 0.55988 0.18148 0.99055 0.0
C143 C 0.52979 0.17248 0.98576 0.0
C144 C 0.52211 0.14353 0.99149 0.0
Zn145 Zn 0.53425 0.08427 0.01844 0.0
C146 C 0.4994 0.04475 0.97813 0.0
N147 N 0.52095 1.00262 0.05964 0.0
C148 C 0.54419 0.98905 0.07459 0.0
C149 C 0.49374 0.98951 0.05538 0.0
C150 C 0.48943 0.9612 0.06549 0.0
C151 C 0.5133 0.94628 0.08032 0.0
C152 C 0.54081 0.96078 0.08527 0.0
Zn153 Zn 0.52793 0.04223 0.04107 0.0
O154 O 0.57525 0.06685 0.99935 0.0
C155 C 0.56329 0.08147 0.081 0.0
O156 O 0.57052 0.02607 0.02357 0.0
H157 H 0.47563 1.00072 0.04336 0.0
H158 H 0.59014 0.11699 0.01278 0.0
H159 H 0.56567 0.99991 0.07763 0.0
O160 O 0.56001 0.09716 0.05802 0.0
O161 O 0.55193 0.05617 0.08074 0.0
H162 H 0.49872 0.1368 0.98948 0.0
O163 O 0.4855 0.05872 0.05869 0.0
O164 O 0.49244 0.10094 0.03754 0.0
O165 O 0.50385 0.02858 1.00076 0.0
O166 O 0.50883 0.07087 0.97907 0.0
C167 C 0.4766 0.08482 0.05402 0.0
H168 H 0.60534 0.1668 1.00269 0.0
H169 H 0.51219 0.18792 0.97922 0.0
H170 H 0.46801 0.95076 0.06067 0.0
H171 H 0.55969 0.95024 0.09684 0.0
C172 C 0.5508 0.50502 0.4991 0.0
N173 N 0.54524 0.53669 0.58493 0.0
C174 C 0.53321 0.51273 0.5978 0.0
C175 C 0.53692 0.50802 0.62775 0.0
C176 C 0.55363 0.52789 0.64423 0.0
C177 C 0.56682 0.55164 0.6302 0.0
C178 C 0.56205 0.55583 0.60051 0.0
Zn179 Zn 0.5342 0.54893 0.54315 0.0
C180 C 0.58452 0.581 0.51564 0.0
N181 N 0.50999 0.57978 0.45793 0.0
C182 C 0.49994 0.55976 0.43884 0.0
C183 C 0.5138 0.6079 0.44949 0.0
C184 C 0.50763 0.61676 0.42075 0.0
C185 C 0.49794 0.59638 0.40032 0.0
C186 C 0.49411 0.56751 0.40985 0.0
Zn187 Zn 0.5212 0.56623 0.4993 0.0
O188 O 0.55129 0.50835 0.52647 0.0
C189 C 0.47107 0.53315 0.52596 0.0
O190 O 0.5395 0.5254 0.4829 0.0
H191 H 0.52194 0.62346 0.46501 0.0
H192 H 0.51972 0.4979 0.58508 0.0
H193 H 0.49691 0.53753 0.44596 0.0
O194 O 0.49048 0.53075 0.54682 0.0
O195 O 0.47795 0.54708 0.50307 0.0
H196 H 0.57063 0.57523 0.59024 0.0
O197 O 0.50343 0.60678 0.51684 0.0
O198 O 0.51741 0.5898 0.55977 0.0
O199 O 0.56456 0.58499 0.49549 0.0
O200 O 0.5777 0.56675 0.53831 0.0
C201 C 0.50549 0.61023 0.54418 0.0
H202 H 0.52641 0.48945 0.638 0.0
H203 H 0.57939 0.56769 0.6423 0.0
H204 H 0.51045 0.63934 0.41471 0.0
H205 H 0.48734 0.55078 0.39502 0.0
C206 C 1.00367 0.62533 0.98212 0.0
N207 N 0.0162 0.59498 0.0697 0.0
C208 C 0.02405 0.62243 0.07678 0.0
C209 C 0.02116 0.63172 0.10514 0.0
C210 C 0.0104 0.61244 0.12635 0.0
C211 C 1.0022 0.58437 0.11832 0.0
C212 C 1.0052 0.57609 0.08975 0.0
Zn213 Zn 0.02188 0.58058 0.02884 0.0
C214 C 0.96652 0.55036 1.00643 0.0
N215 N 0.03391 0.54896 0.94448 0.0
C216 C 0.04749 0.56839 0.92658 0.0
C217 C 0.02243 0.52371 0.93435 0.0
C218 C 0.02357 0.51772 0.90483 0.0
C219 C 0.03632 0.53814 0.88583 0.0
C220 C 0.04891 0.56342 0.89714 0.0
Zn221 Zn 0.02816 0.56214 0.98568 0.0
O222 O 1.00403 0.62196 0.00966 0.0
C223 C 0.08374 0.59112 1.00887 0.0
O224 O 0.01272 0.60424 0.96732 0.0
H225 H 0.01158 0.50867 0.94898 0.0
H226 H 0.03287 0.63702 0.06049 0.0
H227 H 0.05644 0.58836 0.93497 0.0
O228 O 0.06651 0.59696 0.02945 0.0
O229 O 0.0733 0.57688 0.98765 0.0
H230 H 0.9989 0.55443 0.08363 0.0
O231 O 0.04408 0.52032 1.00439 0.0
O232 O 0.04007 0.53911 0.04714 0.0
O233 O 0.98277 0.54696 0.98453 0.0
O234 O 0.97745 0.5636 0.02815 0.0
C235 C 0.04745 0.51761 0.03191 0.0
H236 H 0.02784 0.65352 0.11055 0.0
H237 H 0.99335 0.56901 0.13394 0.0
H238 H 0.01368 0.49794 0.89681 0.0
H239 H 0.05945 0.57941 0.88325 0.0
H240 H 0.19922 0.23418 0.25786 0.0
H241 H 0.18274 0.20817 0.30111 0.0
H242 H 0.16352 0.13314 0.25005 0.0
H243 H 0.17872 0.16025 0.20619 0.0
H244 H 0.12011 0.13669 0.28393 0.0
H245 H 0.22571 0.13983 0.30667 0.0
H246 H 0.27643 0.16125 0.3134 0.0
H247 H 0.24301 0.21634 0.37887 0.0
H248 H 0.19198 0.19554 0.37226 0.0
H249 H 0.08758 0.0513 0.41209 0.0
H250 H 0.11087 0.07116 0.36845 0.0
H251 H 0.12305 0.153 0.40993 0.0
H252 H 0.10019 0.13308 0.45373 0.0
H253 H 0.17191 0.14258 0.38042 0.0
H254 H 0.06515 0.13751 0.35572 0.0
H255 H 0.01637 0.11244 0.34965 0.0
H256 H 0.05457 0.05688 0.28711 0.0
H257 H 0.10396 0.08108 0.29345 0.0
C258 C 0.19236 0.21182 0.25596 0.0
C259 C 0.191 0.19929 0.22839 0.0
C260 C 0.18281 0.19673 0.28095 0.0
C261 C 0.172 0.16805 0.27975 0.0
C262 C 0.17165 0.15507 0.25223 0.0
C263 C 0.18093 0.17043 0.22701 0.0
C264 C 0.15975 0.15257 0.30671 0.0
C265 C 0.13193 0.13766 0.30483 0.0
C266 C 0.17429 0.15371 0.3347 0.0
C267 C 0.20495 0.16629 0.33877 0.0
C268 C 0.22913 0.15666 0.32236 0.0
C269 C 0.25794 0.16867 0.32618 0.0
C270 C 0.26292 0.19019 0.3465 0.0
C271 C 0.23911 0.19969 0.36311 0.0
C272 C 0.21024 0.18778 0.35936 0.0
C273 C 0.09521 0.07354 0.41206 0.0
C274 C 0.09166 0.0904 0.43687 0.0
C275 C 0.1085 0.08507 0.38678 0.0
C276 C 0.11864 0.11403 0.38508 0.0
C277 C 0.11558 0.1307 0.41007 0.0
C278 C 0.10229 0.11919 0.43534 0.0
C279 C 0.13225 0.12702 0.3576 0.0
C280 C 0.16027 0.14152 0.35943 0.0
C281 C 0.11815 0.12507 0.32953 0.0
C282 C 0.08834 0.11092 0.32529 0.0
C283 C 0.06322 0.11983 0.34081 0.0
C284 C 0.03544 0.10577 0.33731 0.0
C285 C 0.03232 0.08309 0.31799 0.0
C286 C 0.05702 0.07443 0.3021 0.0
C287 C 0.08493 0.08828 0.30567 0.0
H288 H 0.01078 0.07223 0.31533 0.0
H289 H 0.28525 0.19946 0.34943 0.0
H290 H 0.40155 0.96449 0.71669 0.0
H291 H 0.41699 0.99068 0.76053 0.0
H292 H 0.39478 0.91592 0.81318 0.0
H293 H 0.37827 0.89052 0.76947 0.0
H294 H 0.38256 0.95915 0.84347 0.0
H295 H 0.47108 0.93628 0.79148 0.0
H296 H 0.50428 0.93594 0.7496 0.0
H297 H 0.50848 0.02878 0.74947 0.0
H298 H 0.47492 0.02969 0.79112 0.0
H299 H 0.47449 0.99059 0.96978 0.0
H300 H 0.4525 0.97021 0.92545 0.0
H301 H 0.46875 0.0504 0.87916 0.0
H302 H 0.49106 0.07086 0.92355 0.0
H303 H 0.48304 1.00658 0.84537 0.0
H304 H 0.39523 0.02771 0.90008 0.0
H305 H 0.36341 0.02583 0.94297 0.0
H306 H 0.35996 0.93313 0.93912 0.0
H307 H 0.39206 0.93444 0.89639 0.0
C308 C 0.39898 0.95406 0.73769 0.0
C309 C 0.38818 0.92544 0.73938 0.0
C310 C 0.40848 0.96886 0.76295 0.0
C311 C 0.40806 0.95536 0.79081 0.0
C312 C 0.39573 0.92725 0.79243 0.0
C313 C 0.38608 0.91262 0.76727 0.0
C314 C 0.42113 0.96975 0.81801 0.0
C315 C 0.4047 0.96921 0.84373 0.0
C316 C 0.44995 0.98353 0.81913 0.0
C317 C 0.47023 0.98307 0.79421 0.0
C318 C 0.47893 0.95663 0.7824 0.0
C319 C 0.49782 0.95633 0.75871 0.0
C320 C 0.50842 0.98233 0.74683 0.0
C321 C 0.5002 0.00867 0.75866 0.0
C322 C 0.48125 0.00909 0.78231 0.0
C323 C 0.47328 1.00411 0.95028 0.0
C324 C 0.48459 0.03267 0.95076 0.0
C325 C 0.46046 0.99234 0.92469 0.0
C326 C 0.45831 0.0086 0.8984 0.0
C327 C 0.46982 0.03708 0.89878 0.0
C328 C 0.48254 0.04893 0.92445 0.0
C329 C 0.44448 0.99588 0.87072 0.0
C330 C 0.46083 0.99666 0.84498 0.0
C331 C 0.41577 0.98198 0.86968 0.0
C332 C 0.39625 0.98116 0.89519 0.0
C333 C 0.38783 0.00691 0.90848 0.0
C334 C 0.36972 1.00595 0.93275 0.0
C335 C 0.35972 0.97938 0.9438 0.0
C336 C 0.36774 0.9537 0.93055 0.0
C337 C 0.38585 0.95454 0.90629 0.0
H338 H 0.34572 0.97868 0.96259 0.0
H339 H 0.52305 0.98205 0.7285 0.0
H340 H 0.64962 0.52481 0.89422 0.0
H341 H 0.62987 0.53587 0.84539 0.0
H342 H 0.54033 0.54698 0.87815 0.0
H343 H 0.5607 0.53746 0.92782 0.0
H344 H 0.54677 0.50382 0.83407 0.0
H345 H 0.56715 0.60329 0.84831 0.0
H346 H 0.59676 0.64551 0.86413 0.0
H347 H 0.66558 0.62543 0.80413 0.0
H348 H 0.63663 0.58282 0.78825 0.0
H349 H 0.50732 0.5217 0.68142 0.0
H350 H 0.51022 0.52614 0.73425 0.0
H351 H 0.60748 0.53398 0.73139 0.0
H352 H 0.60449 0.53026 0.67869 0.0
H353 H 0.58504 0.5754 0.76255 0.0
H354 H 0.57154 0.47163 0.75649 0.0
H355 H 0.54511 0.42713 0.74184 0.0
H356 H 0.46658 0.45324 0.7872 0.0
H357 H 0.49244 0.4981 0.80183 0.0
C358 C 0.62607 0.53107 0.89125 0.0
C359 C 0.60672 0.5307 0.91477 0.0
C360 C 0.61472 0.53708 0.86331 0.0
C361 C 0.5837 0.54231 0.85826 0.0
C362 C 0.56439 0.54311 0.88175 0.0
C363 C 0.57596 0.53769 0.90995 0.0
C364 C 0.57166 0.54337 0.82807 0.0
C365 C 0.55431 0.51991 0.81843 0.0
C366 C 0.58222 0.56403 0.80781 0.0
C367 C 0.59971 0.58976 0.81715 0.0
C368 C 0.58869 0.60775 0.83862 0.0
C369 C 0.60535 0.63178 0.84758 0.0
C370 C 0.63304 0.63814 0.83516 0.0
C371 C 0.64411 0.6205 0.81372 0.0
C372 C 0.62755 0.59643 0.80469 0.0
C373 C 0.52931 0.52374 0.69225 0.0
C374 C 0.55571 0.5256 0.67615 0.0
C375 C 0.53095 0.52641 0.72235 0.0
C376 C 0.55907 0.5305 0.73674 0.0
C377 C 0.58552 0.53115 0.7207 0.0
C378 C 0.58385 0.52882 0.69068 0.0
C379 C 0.56126 0.53513 0.76836 0.0
C380 C 0.57674 0.5597 0.77819 0.0
C381 C 0.54932 0.51528 0.78876 0.0
C382 C 0.53376 0.48838 0.77991 0.0
C383 C 0.54853 0.468 0.76311 0.0
C384 C 0.53368 0.44269 0.75486 0.0
C385 C 0.50414 0.43741 0.76349 0.0
C386 C 0.48943 0.4574 0.78047 0.0
C387 C 0.50417 0.48276 0.78875 0.0
H388 H 0.49268 0.4178 0.7571 0.0
H389 H 0.64591 0.65675 0.84213 0.0
H390 H 0.92137 0.68141 0.37929 0.0
H391 H 0.94148 0.68586 0.3306 0.0
H392 H 0.99103 0.60583 0.34544 0.0
H393 H 0.97161 0.60215 0.39468 0.0
H394 H 0.02338 0.64364 0.31366 0.0
H395 H 0.92096 0.60705 0.31215 0.0
H396 H 0.86667 0.6089 0.32292 0.0
H397 H 0.85676 0.68842 0.27336 0.0
H398 H 0.91116 0.68726 0.26267 0.0
H399 H 0.02818 0.58204 0.17531 0.0
H400 H 0.02023 0.59473 0.22554 0.0
H401 H 0.97866 0.67545 0.19651 0.0
H402 H 0.98627 0.66266 0.14601 0.0
H403 H 0.94418 0.64513 0.23486 0.0
H404 H 0.04659 0.67662 0.23052 0.0
H405 H 0.1008 0.6729 0.21994 0.0
H406 H 0.11083 0.60087 0.28003 0.0
H407 H 0.05657 0.60387 0.29068 0.0
C408 C 0.9373 0.66535 0.37235 0.0
C409 C 0.94525 0.64155 0.39046 0.0
C410 C 0.94857 0.66773 0.34454 0.0
C411 C 0.96748 0.646 0.33428 0.0
C412 C 0.97653 0.62287 0.35294 0.0
C413 C 0.96541 0.62065 0.38087 0.0
C414 C 0.97551 0.64586 0.30339 0.0
C415 C 1.00611 0.64384 0.2964 0.0
C416 C 0.95295 0.64677 0.28087 0.0
C417 C 0.92015 0.64721 0.28684 0.0
C418 C 0.90723 0.62501 0.30368 0.0
C419 C 0.87645 0.62593 0.30977 0.0
C420 C 0.85829 0.6488 0.29888 0.0
C421 C 0.87087 0.67074 0.28181 0.0
C422 C 0.90166 0.66996 0.27572 0.0
C423 C 0.01748 0.60256 0.17964 0.0
C424 C 0.00768 0.6213 0.15678 0.0
C425 C 0.01322 0.60991 0.20834 0.0
C426 C 0.9991 0.63614 0.21474 0.0
C427 C 0.98976 0.65517 0.19199 0.0
C428 C 0.99422 0.64791 0.16322 0.0
C429 C 0.99207 0.64243 0.24508 0.0
C430 C 0.96156 0.64549 0.25201 0.0
C431 C 0.01472 0.64218 0.26749 0.0
C432 C 0.04743 0.64036 0.26125 0.0
C433 C 0.06029 0.65984 0.24132 0.0
C434 C 0.09105 0.65789 0.23534 0.0
C435 C 0.10924 0.63663 0.24927 0.0
C436 C 0.09672 0.61732 0.26926 0.0
C437 C 0.06596 0.61917 0.2753 0.0
H438 H 0.13305 0.63515 0.2446 0.0
H439 H 0.83447 0.64948 0.30363 0.0
H440 H 0.21307 0.17792 0.13775 0.0
H441 H 0.25755 0.15359 0.11949 0.0
H442 H 0.3114 0.18444 0.19183 0.0
H443 H 0.26656 0.20988 0.20933 0.0
H444 H 0.34408 0.19108 0.14841 0.0
H445 H 0.29053 0.10803 0.17996 0.0
H446 H 0.24728 0.07496 0.18518 0.0
H447 H 0.24345 0.06274 0.09328 0.0
H448 H 0.28644 0.09606 0.08745 0.0
H449 H 0.44033 0.05764 0.09411 0.0
H450 H 0.39665 0.07695 0.11881 0.0
H451 H 0.40479 0.15775 0.07118 0.0
H452 H 0.44906 0.13877 0.0471 0.0
H453 H 0.34301 0.0931 0.10701 0.0
H454 H 0.37672 0.21461 0.10641 0.0
H455 H 0.42319 0.24409 0.10847 0.0
H456 H 0.47178 0.17355 0.15101 0.0
H457 H 0.42558 0.14382 0.1495 0.0
C458 C 0.23412 0.17854 0.15041 0.0
C459 C 0.23577 0.19518 0.1756 0.0
C460 C 0.25989 0.16467 0.13981 0.0
C461 C 0.28853 0.16648 0.15415 0.0
C462 C 0.28997 0.18233 0.18002 0.0
C463 C 0.26407 0.19649 0.1905 0.0
C464 C 0.31681 0.15321 0.1413 0.0
C465 C 0.3436 0.16963 0.13941 0.0
C466 C 0.31737 0.12484 0.12988 0.0
C467 C 0.29155 0.10475 0.13325 0.0
C468 C 0.28034 0.09845 0.16084 0.0
C469 C 0.25588 0.07963 0.16391 0.0
C470 C 0.24258 0.06681 0.13957 0.0
C471 C 0.25375 0.07272 0.11211 0.0
C472 C 0.27819 0.09154 0.10891 0.0
C473 C 0.43294 0.07957 0.08882 0.0
C474 C 0.44874 0.0965 0.06845 0.0
C475 C 0.40764 0.09069 0.10305 0.0
C476 C 0.39701 0.11924 0.09758 0.0
C477 C 0.41244 0.13597 0.07675 0.0
C478 C 0.43787 0.12492 0.06265 0.0
C479 C 0.36994 0.13127 0.11343 0.0
C480 C 0.34342 0.1146 0.11592 0.0
C481 C 0.36998 0.159 0.12625 0.0
C482 C 0.39775 0.1769 0.12755 0.0
C483 C 0.3973 0.20545 0.11629 0.0
C484 C 0.42361 0.22219 0.11734 0.0
C485 C 0.45046 0.21067 0.12976 0.0
C486 C 0.45103 0.18242 0.14127 0.0
C487 C 0.42479 0.16561 0.1403 0.0
H488 H 0.47082 0.22364 0.13052 0.0
H489 H 0.22365 0.05224 0.14199 0.0
H490 H 0.30754 0.89389 0.69667 0.0
H491 H 0.26324 0.9181 0.67329 0.0
H492 H 0.31898 0.99056 0.64966 0.0
H493 H 0.36364 0.96568 0.67236 0.0
H494 H 0.25255 1.0027 0.67122 0.0
H495 H 0.30835 0.95308 0.5969 0.0
H496 H 0.33398 0.91072 0.57701 0.0
H497 H 0.25379 0.85988 0.58782 0.0
H498 H 0.22762 0.90207 0.60753 0.0
H499 H 0.1492 0.06712 0.56614 0.0
H500 H 0.19381 0.04864 0.59352 0.0
H501 H 0.1622 0.96128 0.58241 0.0
H502 H 0.11849 0.97977 0.55349 0.0
H503 H 0.21769 0.95742 0.57982 0.0
H504 H 0.15955 1.00444 0.65026 0.0
H505 H 0.13138 0.04413 0.67212 0.0
H506 H 0.21172 0.09617 0.67414 0.0
H507 H 0.24028 0.05691 0.65194 0.0
C508 C 0.31009 0.91557 0.68765 0.0
C509 C 0.33912 0.92815 0.6873 0.0
C510 C 0.28477 0.92925 0.67383 0.0
C511 C 0.28747 0.95626 0.65943 0.0
C512 C 0.31601 0.96986 0.66068 0.0
C513 C 0.34156 0.95584 0.67413 0.0
C514 C 0.26111 0.96889 0.64142 0.0
C515 C 0.2452 0.99309 0.651 0.0
C516 C 0.25048 0.95594 0.61552 0.0
C517 C 0.26616 0.93059 0.60387 0.0
C518 C 0.29625 0.93282 0.59513 0.0
C519 C 0.31081 0.9089 0.58374 0.0
C520 C 0.29556 0.8826 0.58125 0.0
C521 C 0.2656 0.88025 0.58984 0.0
C522 C 0.25085 0.90418 0.60097 0.0
C523 C 0.15177 0.04393 0.56938 0.0
C524 C 0.12993 0.02506 0.55743 0.0
C525 C 0.17734 0.03326 0.58549 0.0
C526 C 0.18165 1.00331 0.59113 0.0
C527 C 0.15996 0.98444 0.57879 0.0
C528 C 0.13471 0.99509 0.56213 0.0
C529 C 0.20868 0.99163 0.60936 0.0
C530 C 0.2248 0.96736 0.59994 0.0
C531 C 0.21902 1.00422 0.63578 0.0
C532 C 0.20196 0.02785 0.64916 0.0
C533 C 0.17115 0.02443 0.65519 0.0
C534 C 0.15513 0.04683 0.66766 0.0
C535 C 0.16973 0.07269 0.67444 0.0
C536 C 0.20042 0.07615 0.66883 0.0
C537 C 0.21655 0.05382 0.65633 0.0
H538 H 0.15728 0.09001 0.6841 0.0
H539 H 0.30694 0.86406 0.57261 0.0
H540 H 0.69854 0.48262 0.93872 0.0
H541 H 0.75276 0.48275 0.95157 0.0
H542 H 0.73245 0.50615 0.03879 0.0
H543 H 0.67794 0.50623 0.02543 0.0
H544 H 0.77159 0.54272 0.01554 0.0
H545 H 0.765 0.44021 0.02468 0.0
H546 H 0.75056 0.39104 0.01016 0.0
H547 H 0.80562 0.39907 0.93553 0.0
H548 H 0.82001 0.44849 0.9493 0.0
H549 H 0.92806 0.54999 0.05154 0.0
H550 H 0.87556 0.53367 0.05159 0.0
H551 H 0.88113 0.50966 0.96225 0.0
H552 H 0.93396 0.52546 0.96215 0.0
H553 H 0.84967 0.46979 0.99318 0.0
H554 H 0.84959 0.57371 0.97983 0.0
H555 H 0.86309 0.62369 0.99246 0.0
H556 H 0.81948 0.61304 0.07373 0.0
H557 H 0.80608 0.56283 0.06173 0.0
C558 C 0.70583 0.48673 0.96085 0.0
C559 C 0.68451 0.494 0.9813 0.0
C560 C 0.73669 0.48684 0.96823 0.0
C561 C 0.74672 0.4942 0.99625 0.0
C562 C 0.72521 0.50024 0.0171 0.0
C563 C 0.69423 0.50011 0.00963 0.0
C564 C 0.7795 0.49896 1.00244 0.0
C565 C 0.78863 0.52649 0.01137 0.0
C566 C 0.80176 0.47808 0.99617 0.0
C567 C 0.79346 0.44818 0.98796 0.0
C568 C 0.77389 0.43158 1.00506 0.0
C569 C 0.76572 0.40364 0.99697 0.0
C570 C 0.77714 0.39195 0.97192 0.0
C571 C 0.7968 0.40815 0.95493 0.0
C572 C 0.805 0.43613 0.9629 0.0
C573 C 0.9182 0.54112 0.03191 0.0
C574 C 0.9351 0.53932 1.00672 0.0
C575 C 0.88817 0.53179 0.032 0.0
C576 C 0.8743 0.52079 1.00682 0.0
C577 C 0.89139 0.51808 0.98192 0.0
C578 C 0.92152 0.52727 0.98185 0.0
C579 C 0.84157 0.51358 1.00596 0.0
C580 C 0.83254 0.48573 0.9979 0.0
C581 C 0.81929 0.53419 0.01287 0.0
C582 C 0.82714 0.56443 0.02003 0.0
C583 C 0.84308 0.58196 1.00048 0.0
C584 C 0.85069 0.61034 1.00751 0.0
C585 C 0.84223 0.62151 0.03392 0.0
C586 C 0.82607 0.60434 0.05331 0.0
C587 C 0.81845 0.57593 0.0464 0.0
H588 H 0.84814 0.64348 0.03933 0.0
H589 H 0.77078 0.37032 0.96569 0.0
H590 H 0.87465 0.59885 0.49529 0.0
H591 H 0.82179 0.59203 0.50927 0.0
H592 H 0.79082 0.63204 0.42811 0.0
H593 H 0.84357 0.63929 0.41468 0.0
H594 H 0.76207 0.65422 0.47277 0.0
H595 H 0.78585 0.55948 0.43933 0.0
H596 H 0.81522 0.51411 0.43737 0.0
H597 H 0.79847 0.49578 0.52699 0.0
H598 H 0.76934 0.54129 0.5296 0.0
H599 H 0.60753 0.61023 0.46914 0.0
H600 H 0.66084 0.61981 0.46018 0.0
H601 H 0.68626 0.58195 0.5438 0.0
H602 H 0.63308 0.57214 0.55292 0.0
H603 H 0.71833 0.55917 0.50035 0.0
H604 H 0.69218 0.65349 0.53264 0.0
H605 H 0.6622 0.69858 0.53355 0.0
H606 H 0.68272 0.7174 0.44487 0.0
H607 H 0.71249 0.67219 0.44329 0.0
C608 C 0.85637 0.60577 0.48049 0.0
C609 C 0.86275 0.6192 0.45389 0.0
C610 C 0.82634 0.60191 0.48836 0.0
C611 C 0.80241 0.6114 0.46962 0.0
C612 C 0.80893 0.62456 0.44286 0.0
C613 C 0.83889 0.62843 0.43508 0.0
C614 C 0.77054 0.60839 0.47811 0.0
C615 C 0.75238 0.63339 0.4785 0.0
C616 C 0.7582 0.58132 0.48625 0.0
C617 C 0.7757 0.55395 0.48474 0.0
C618 C 0.78865 0.54591 0.45869 0.0
C619 C 0.80521 0.52014 0.45745 0.0
C620 C 0.80879 0.50211 0.48206 0.0
C621 C 0.79573 0.50979 0.50796 0.0
C622 C 0.77918 0.53556 0.50933 0.0
C623 C 0.62441 0.60436 0.48582 0.0
C624 C 0.61609 0.59031 0.51168 0.0
C625 C 0.65485 0.6099 0.48069 0.0
C626 C 0.67744 0.60159 0.50136 0.0
C627 C 0.66913 0.58844 0.52757 0.0
C628 C 0.63872 0.58297 0.53276 0.0
C629 C 0.70982 0.60496 0.49485 0.0
C630 C 0.72807 0.58002 0.49481 0.0
C631 C 0.72219 0.63206 0.48689 0.0
C632 C 0.70435 0.65931 0.48778 0.0
C633 C 0.6901 0.66712 0.51326 0.0
C634 C 0.67318 0.69272 0.51391 0.0
C635 C 0.6705 0.71081 0.48927 0.0
C636 C 0.6848 0.70335 0.46394 0.0
C637 C 0.70172 0.67776 0.46316 0.0
H638 H 0.6574 0.73062 0.48982 0.0
H639 H 0.8216 0.48217 0.48105 0.0
H640 H 0.16185 0.26299 0.11485 0.0
H641 H 0.13923 0.30657 0.09143 0.0
H642 H 0.14594 0.35053 0.17259 0.0
H643 H 0.16894 0.30696 0.19588 0.0
H644 H 0.09262 0.36369 0.1465 0.0
H645 H 0.19503 0.36438 0.11524 0.0
H646 H 0.24046 0.34431 0.09326 0.0
H647 H 0.19086 0.33527 0.01248 0.0
H648 H 0.14497 0.35489 0.03413 0.0
H649 H 0.06223 0.50663 0.08976 0.0
H650 H 0.08446 0.46299 0.11286 0.0
H651 H 0.08451 0.4218 0.03014 0.0
H652 H 0.06306 0.46589 1.00678 0.0
H653 H 0.13425 0.40682 0.057 0.0
H654 H 0.03182 0.40533 0.08764 0.0
H655 H 0.98573 0.4244 0.10932 0.0
H656 H 0.0343 0.4339 0.19057 0.0
H657 H 0.0808 0.41523 0.16927 0.0
C658 C 0.15878 0.28201 0.12768 0.0
C659 C 0.1675 0.28126 0.15735 0.0
C660 C 0.14575 0.30711 0.11421 0.0
C661 C 0.14095 0.33251 0.12989 0.0
C662 C 0.14918 0.33157 0.15969 0.0
C663 C 0.16235 0.30649 0.17312 0.0
C664 C 0.12745 0.35983 0.11534 0.0
C665 C 0.10208 0.37325 0.12715 0.0
C666 C 0.13889 0.37243 0.08952 0.0
C667 C 0.16648 0.36083 0.0764 0.0
C668 C 0.19375 0.35792 0.09285 0.0
C669 C 0.21959 0.34665 0.08045 0.0
C670 C 0.21853 0.33845 0.05151 0.0
C671 C 0.19164 0.34159 0.03491 0.0
C672 C 0.16571 0.35279 0.04723 0.0
C673 C 0.06681 0.4883 0.07636 0.0
C674 C 0.06047 0.49013 0.0462 0.0
C675 C 0.07948 0.46301 0.08976 0.0
C676 C 0.08597 0.43826 0.07366 0.0
C677 C 0.07988 0.44017 0.04345 0.0
C678 C 0.06737 0.46557 0.03 0.0
C679 C 0.09932 0.41075 0.08812 0.0
C680 C 0.1247 0.39729 0.07632 0.0
C681 C 0.08778 0.39801 0.11387 0.0
C682 C 0.05986 0.40915 0.12677 0.0
C683 C 0.03272 0.41167 0.11008 0.0
C684 C 1.00652 0.42238 0.12231 0.0
C685 C 1.00711 0.43043 0.15128 0.0
C686 C 0.03389 0.4277 0.16812 0.0
C687 C 0.06017 0.41703 0.15599 0.0
H688 H 0.9868 0.43872 0.16071 0.0
H689 H 0.23856 0.32974 0.04195 0.0
H690 H 0.66222 0.43957 0.94298 0.0
H691 H 0.65408 0.38719 0.94805 0.0
H692 H 0.59579 0.40171 0.0195 0.0
H693 H 0.60425 0.4541 0.01432 0.0
H694 H 0.66013 0.34409 0.99031 0.0
H695 H 0.53399 0.36412 0.00931 0.0
H696 H 0.49356 0.39975 0.99663 0.0
H697 H 0.53885 0.42396 0.9189 0.0
H698 H 0.57973 0.38879 0.93138 0.0
H699 H 0.59304 0.21131 0.03026 0.0
H700 H 0.60895 0.26175 0.02741 0.0
H701 H 0.56209 0.27213 0.9443 0.0
H702 H 0.54559 0.22148 0.94735 0.0
H703 H 0.55206 0.31715 0.97588 0.0
H704 H 0.6403 0.2649 0.95042 0.0
H705 H 0.6806 0.22789 0.95598 0.0
H706 H 0.71232 0.266 0.03516 0.0
H707 H 0.67193 0.30302 0.03029 0.0
C708 C 0.64888 0.4313 0.96056 0.0
C709 C 0.63423 0.45048 0.97863 0.0
C710 C 0.64394 0.40152 0.96327 0.0
C711 C 0.62394 0.39066 0.98384 0.0
C712 C 0.61105 0.40971 1.00328 0.0
C713 C 0.61615 0.43946 1.00065 0.0
C714 C 0.61452 0.35995 0.98332 0.0
C715 C 0.63652 0.33812 0.98732 0.0
C716 C 0.58384 0.35221 0.97849 0.0
C717 C 0.55997 0.37407 0.97141 0.0
C718 C 0.53535 0.37717 0.9896 0.0
C719 C 0.51241 0.39731 0.98248 0.0
C720 C 0.5137 0.41419 0.95703 0.0
C721 C 0.53794 0.41096 0.93866 0.0
C722 C 0.56111 0.3911 0.94586 0.0
C723 C 0.58627 0.2243 0.01128 0.0
C724 C 0.56839 0.21243 0.98882 0.0
C725 C 0.59545 0.2531 0.00966 0.0
C726 C 0.58728 0.27057 0.98538 0.0
C727 C 0.56881 0.25897 0.96318 0.0
C728 C 0.55935 0.23012 0.96493 0.0
C729 C 0.59756 0.30107 0.98354 0.0
C730 C 0.5757 0.32295 0.97906 0.0
C731 C 0.62849 0.30873 0.98719 0.0
C732 C 0.65292 0.28659 0.99011 0.0
C733 C 0.65573 0.26527 0.96913 0.0
C734 C 0.67861 0.2443 0.97214 0.0
C735 C 0.69896 0.24455 0.99594 0.0
C736 C 0.69652 0.26582 0.01675 0.0
C737 C 0.67366 0.28681 0.01386 0.0
H738 H 0.71666 0.2283 0.99823 0.0
H739 H 0.49588 0.4297 0.9515 0.0
H740 H 0.90767 0.70854 0.4308 0.0
H741 H 0.93479 0.75472 0.42948 0.0
H742 H 0.01956 0.70932 0.44521 0.0
H743 H 0.9921 0.66279 0.44587 0.0
H744 H 1.00551 0.75963 0.48293 0.0
H745 H 0.01477 0.73459 0.3843 0.0
H746 H 0.99661 0.71636 0.33716 0.0
H747 H 0.93263 0.7865 0.32827 0.0
H748 H 0.95019 0.80501 0.37555 0.0
H749 H 0.07105 0.89862 0.47246 0.0
H750 H 0.06409 0.84747 0.46198 0.0
H751 H 0.97409 0.86605 0.4271 0.0
H752 H 0.9813 0.91742 0.43648 0.0
H753 H 1.00187 0.8251 0.39604 0.0
H754 H 0.98527 0.84412 0.49712 0.0
H755 H 0.99966 0.86143 0.54576 0.0
H756 H 0.07451 0.8017 0.55104 0.0
H757 H 0.06077 0.7843 0.50225 0.0
C758 C 0.93207 0.70862 0.43404 0.0
C759 C 0.94801 0.68257 0.4388 0.0
C760 C 0.94751 0.73478 0.43309 0.0
C761 C 0.9791 0.73526 0.43715 0.0
C762 C 0.99515 0.70922 0.442 0.0
C763 C 0.97964 0.68287 0.44242 0.0
C764 C 0.99467 0.7634 0.43724 0.0
C765 C 1.00563 0.77374 0.4638 0.0
C766 C 0.99402 0.78177 0.41233 0.0
C767 C 0.98372 0.77112 0.38357 0.0
C768 C 0.99671 0.74605 0.37238 0.0
C769 C 0.98656 0.73569 0.34561 0.0
C770 C 0.96344 0.75023 0.32975 0.0
C771 C 0.95054 0.77526 0.34058 0.0
C772 C 0.96066 0.78575 0.36733 0.0
C773 C 0.05005 0.89196 0.4619 0.0
C774 C 0.02658 0.91204 0.45555 0.0
C775 C 0.04605 0.86268 0.45612 0.0
C776 C 0.01843 0.85295 0.44415 0.0
C777 C 0.99556 0.87312 0.43642 0.0
C778 C 0.99958 0.90241 0.44209 0.0
C779 C 0.01221 0.82162 0.44192 0.0
C780 C 1.00275 0.81076 0.41499 0.0
C781 C 0.01402 0.80277 0.46658 0.0
C782 C 0.02224 0.81319 0.49592 0.0
C783 C 1.00494 0.83486 0.50857 0.0
C784 C 0.01295 0.84465 0.53617 0.0
C785 C 0.03804 0.83274 0.55144 0.0
C786 C 0.05513 0.81095 0.53916 0.0
C787 C 0.04724 0.80111 0.51155 0.0
H788 H 0.0442 0.84033 0.57281 0.0
H789 H 0.95553 0.7421 0.30907 0.0
H790 H 0.45311 0.86127 0.66483 0.0
H791 H 0.47208 0.81764 0.64167 0.0
H792 H 0.38403 0.77849 0.64829 0.0
H793 H 0.3656 0.82173 0.67225 0.0
H794 H 0.423 0.73829 0.65945 0.0
H795 H 0.41305 0.80884 0.58248 0.0
H796 H 0.42139 0.85556 0.55711 0.0
H797 H 0.51709 0.83858 0.55774 0.0
H798 H 0.50935 0.79191 0.58349 0.0
H799 H 0.47447 0.65735 0.51892 0.0
H800 H 0.45585 0.70088 0.54226 0.0
H801 H 0.49344 0.66922 0.62438 0.0
H802 H 0.51115 0.62552 0.60139 0.0
H803 H 0.47791 0.74495 0.56765 0.0
H804 H 0.45868 0.69365 0.68073 0.0
H805 H 0.44255 0.64742 0.70312 0.0
H806 H 0.39339 0.6265 0.62472 0.0
H807 H 0.40954 0.67235 0.60179 0.0
C808 C 0.43799 0.84314 0.66172 0.0
C809 C 0.4079 0.84494 0.67078 0.0
C810 C 0.44872 0.81821 0.64807 0.0
C811 C 0.42958 0.79436 0.64263 0.0
C812 C 0.39957 0.79618 0.65203 0.0
C813 C 0.38891 0.82104 0.66573 0.0
C814 C 0.44056 0.76764 0.62731 0.0
C815 C 0.43514 0.73996 0.63945 0.0
C816 C 0.45592 0.76905 0.60072 0.0
C817 C 0.46065 0.79702 0.58517 0.0
C818 C 0.43589 0.81517 0.57739 0.0
C819 C 0.44051 0.84162 0.56292 0.0
C820 C 0.46976 0.85007 0.55589 0.0
C821 C 0.49445 0.83203 0.56325 0.0
C822 C 0.48996 0.80557 0.57776 0.0
C823 C 0.47868 0.65955 0.54199 0.0
C824 C 0.49427 0.63747 0.5581 0.0
C825 C 0.46804 0.68468 0.55543 0.0
C826 C 0.47254 0.6887 0.58549 0.0
C827 C 0.48864 0.66684 0.60143 0.0
C828 C 0.49908 0.64169 0.58808 0.0
C829 C 0.46076 0.7156 0.60006 0.0
C830 C 0.466 0.74331 0.58777 0.0
C831 C 0.44458 0.71424 0.62619 0.0
C832 C 0.43556 0.68625 0.6395 0.0
C833 C 0.44454 0.67908 0.66826 0.0
C834 C 0.43547 0.65291 0.68101 0.0
C835 C 0.41714 0.6339 0.66528 0.0
C836 C 0.40789 0.64102 0.63676 0.0
C837 C 0.41709 0.66704 0.62384 0.0
H838 H 0.40997 0.61375 0.67526 0.0
H839 H 0.47329 0.87056 0.54468 0.0
H840 H 0.93245 0.9486 0.82538 0.0
H841 H 0.95657 0.96736 0.78154 0.0
H842 H 0.9015 0.91059 0.72949 0.0
H843 H 0.87721 0.89216 0.77356 0.0
H844 H 0.95966 0.91539 0.70753 0.0
H845 H 0.88218 0.98134 0.73532 0.0
H846 H 0.85597 0.01294 0.76883 0.0
H847 H 0.93599 0.06474 0.77858 0.0
H848 H 0.96281 0.03322 0.74536 0.0
H849 H 0.98244 0.9871 0.57114 0.0
H850 H 0.96145 0.96479 0.61455 0.0
H851 H 0.99995 0.03273 0.66621 0.0
H852 H 0.01968 0.05591 0.62237 0.0
H853 H 0.9505 0.02125 0.68891 0.0
H854 H 0.02882 0.95596 0.66223 0.0
H855 H 0.05632 0.92428 0.62971 0.0
H856 H 0.97742 0.87108 0.61923 0.0
H857 H 0.94933 0.90264 0.65146 0.0
C858 C 0.9263 0.93935 0.8047 0.0
C859 C 0.90335 0.91825 0.80329 0.0
C860 C 0.93978 0.95047 0.7794 0.0
C861 C 0.93086 0.94091 0.75159 0.0
C862 C 0.90911 0.91858 0.75033 0.0
C863 C 0.89537 0.9077 0.77568 0.0
C864 C 0.94289 0.95525 0.72408 0.0
C865 C 0.9573 0.9385 0.7034 0.0
C866 C 0.94074 0.9856 0.71835 0.0
C867 C 0.92459 1.00477 0.73806 0.0
C868 C 0.89424 0.99937 0.74474 0.0
C869 C 0.87926 0.01728 0.76365 0.0
C870 C 0.89433 0.04078 0.77589 0.0
C871 C 0.92436 0.04649 0.76912 0.0
C872 C 0.93946 0.02864 0.75023 0.0
C873 C 0.98644 0.99747 0.59169 0.0
C874 C 1.00303 0.02353 0.59279 0.0
C875 C 0.97458 0.98437 0.61689 0.0
C876 C 0.97946 0.99623 0.6446 0.0
C877 C 0.99561 0.02259 0.64561 0.0
C878 C 1.00706 0.03599 0.62028 0.0
C879 C 0.96764 0.98149 0.67217 0.0
C880 C 0.95311 0.99815 0.69294 0.0
C881 C 0.96997 0.95106 0.67809 0.0
C882 C 0.98689 0.93182 0.65903 0.0
C883 C 0.01729 0.93758 0.65288 0.0
C884 C 0.03298 0.91964 0.63451 0.0
C885 C 0.01859 0.89573 0.62235 0.0
C886 C 0.98852 0.88963 0.62864 0.0
C887 C 0.97271 0.90752 0.64698 0.0
H888 H 0.03076 0.8819 0.6081 0.0
H889 H 0.8827 0.0546 0.79056 0.0
H890 H 0.66375 0.16049 0.33938 0.0
H891 H 0.64478 0.13597 0.29566 0.0
H892 H 0.6914 0.19804 0.24237 0.0
H893 H 0.71046 0.22217 0.28621 0.0
H894 H 0.63303 0.19267 0.22297 0.0
H895 H 0.71383 0.12584 0.24839 0.0
H896 H 0.74315 0.09204 0.28066 0.0
H897 H 0.6647 0.03838 0.28957 0.0
H898 H 0.63477 0.07209 0.25767 0.0
H899 H 0.59828 0.13061 0.0863 0.0
H900 H 0.6235 0.14981 0.12962 0.0
H901 H 0.58931 0.07862 0.18079 0.0
H902 H 0.5652 0.05864 0.13709 0.0
H903 H 0.64163 0.08832 0.20194 0.0
H904 H 0.55983 0.15384 0.1795 0.0
H905 H 0.528 0.18737 0.14917 0.0
H906 H 0.60427 0.2432 0.13729 0.0
H907 H 0.63669 0.20983 0.16726 0.0
C908 C 0.67099 0.16808 0.31836 0.0
C909 C 0.68953 0.19274 0.31644 0.0
C910 C 0.65982 0.15424 0.2932 0.0
C911 C 0.66647 0.16489 0.2652 0.0
C912 C 0.68574 0.1891 0.26339 0.0
C913 C 0.69715 0.20267 0.28854 0.0
C914 C 0.6522 0.15193 0.23799 0.0
C915 C 0.63537 0.1699 0.21824 0.0
C916 C 0.654 0.122 0.2318 0.0
C917 C 0.67199 0.10164 0.25086 0.0
C918 C 0.70276 0.10695 0.25741 0.0
C919 C 0.71951 0.08779 0.27561 0.0
C920 C 0.70578 0.06311 0.28722 0.0
C921 C 0.6753 0.05752 0.28059 0.0
C922 C 0.65844 0.07663 0.26243 0.0
C923 C 0.59611 0.11891 0.10673 0.0
C924 C 0.57938 0.09297 0.10785 0.0
C925 C 0.61045 0.13015 0.13182 0.0
C926 C 0.60807 0.11633 0.15928 0.0
C927 C 0.59176 0.09011 0.16029 0.0
C928 C 0.57777 0.07862 0.13509 0.0
C929 C 0.62246 0.12909 0.18668 0.0
C930 C 0.63926 0.1111 0.20654 0.0
C931 C 0.6202 0.15897 0.19326 0.0
C932 C 0.60075 0.17919 0.17539 0.0
C933 C 0.56986 0.17319 0.17027 0.0
C934 C 0.5517 0.19217 0.15317 0.0
C935 C 0.56412 0.21735 0.14126 0.0
C936 C 0.5947 0.22366 0.1465 0.0
C937 C 0.61297 0.20474 0.16357 0.0
H938 H 0.55002 0.23201 0.12801 0.0
H939 H 0.71878 0.0483 0.30129 0.0
H940 H 0.47925 0.59583 0.12453 0.0
H941 H 0.49379 0.59642 0.17628 0.0
H942 H 0.43814 0.67245 0.18582 0.0
H943 H 0.42209 0.67039 0.13484 0.0
H944 H 0.51965 0.62892 0.2148 0.0
H945 H 0.40139 0.66853 0.24745 0.0
H946 H 0.34865 0.66917 0.22797 0.0
H947 H 0.36654 0.59359 0.17888 0.0
H948 H 0.41925 0.59232 0.1983 0.0
H949 H 0.52744 0.63774 0.36783 0.0
H950 H 0.51923 0.65004 0.31658 0.0
H951 H 0.44988 0.58475 0.31029 0.0
H952 H 0.45573 0.57438 0.3619 0.0
H953 H 0.43216 0.62653 0.2795 0.0
H954 H 0.52723 0.57569 0.28834 0.0
H955 H 0.57963 0.56631 0.30641 0.0
H956 H 0.60742 0.64844 0.27109 0.0
H957 H 0.55507 0.65846 0.25312 0.0
C958 C 0.47067 0.61285 0.13777 0.0
C959 C 0.44976 0.6331 0.12592 0.0
C960 C 0.47904 0.61333 0.16719 0.0
C961 C 0.46667 0.63422 0.18506 0.0
C962 C 0.4476 0.65585 0.17259 0.0
C963 C 0.43878 0.65497 0.14338 0.0
C964 C 0.47109 0.63148 0.21699 0.0
C965 C 0.50057 0.62855 0.22901 0.0
C966 C 0.44614 0.63031 0.23549 0.0
C967 C 0.41432 0.63054 0.22411 0.0
C968 C 0.39401 0.65199 0.23259 0.0
C969 C 0.36415 0.65248 0.22153 0.0
C970 C 0.35429 0.6315 0.20211 0.0
C971 C 0.37424 0.6099 0.19382 0.0
C972 C 0.40411 0.60929 0.20484 0.0
C973 C 0.50993 0.62641 0.35577 0.0
C974 C 0.49247 0.60479 0.3692 0.0
C975 C 0.50563 0.63317 0.32624 0.0
C976 C 0.48442 0.61789 0.30929 0.0
C977 C 0.46653 0.5968 0.32276 0.0
C978 C 0.47026 0.59055 0.35235 0.0
C979 C 0.48079 0.62347 0.27751 0.0
C980 C 0.45138 0.62713 0.26546 0.0
C981 C 0.50573 0.62393 0.25892 0.0
C982 C 0.53719 0.61796 0.26971 0.0
C983 C 0.54448 0.59183 0.28463 0.0
C984 C 0.57417 0.58639 0.29481 0.0
C985 C 0.59681 0.60681 0.28998 0.0
C986 C 0.58984 0.63268 0.27487 0.0
C987 C 0.56017 0.63825 0.26467 0.0
H988 H 0.61979 0.60255 0.29788 0.0
H989 H 0.33119 0.63195 0.19354 0.0
H990 H 0.08855 0.55242 0.61111 0.0
H991 H 0.0656 0.55983 0.65841 0.0
H992 H 0.09743 0.47523 0.68771 0.0
H993 H 0.11987 0.46805 0.64065 0.0
H994 H 0.04027 0.48459 0.70386 0.0
H995 H 0.13575 0.53562 0.70522 0.0
H996 H 0.17221 0.57153 0.68723 0.0
H997 H 0.10833 0.63994 0.70028 0.0
H998 H 0.07126 0.60433 0.71789 0.0
H999 H 0.05333 0.48979 0.85739 0.0
H1000 H 0.05904 0.48527 0.80511 0.0
H1001 H 0.02495 0.57234 0.79099 0.0
H1002 H 0.01954 0.57702 0.84315 0.0
H1003 H 0.07655 0.56529 0.76459 0.0
H1004 H 0.98335 0.51348 0.76963 0.0
H1005 H 0.94811 0.47672 0.78815 0.0
H1006 H 0.00852 0.40901 0.76404 0.0
H1007 H 0.04435 0.44537 0.74574 0.0
C1008 C 0.09032 0.53558 0.62779 0.0
C1009 C 0.1057 0.50974 0.62269 0.0
C1010 C 0.07732 0.5397 0.65462 0.0
C1011 C 0.07989 0.51805 0.67653 0.0
C1012 C 0.09498 0.49209 0.67107 0.0
C1013 C 0.10787 0.48804 0.6444 0.0
C1014 C 0.0683 0.52259 0.70576 0.0
C1015 C 0.04821 0.50219 0.71723 0.0
C1016 C 0.07824 0.54587 0.72287 0.0
C1017 C 0.1006 0.5673 0.71252 0.0
C1018 C 0.12939 0.5583 0.70403 0.0
C1019 C 0.15017 0.57859 0.69393 0.0
C1020 C 0.14256 0.60799 0.69253 0.0
C1021 C 0.11417 0.61715 0.70131 0.0
C1022 C 0.09326 0.59693 0.71134 0.0
C1023 C 0.04652 0.5077 0.84303 0.0
C1024 C 0.03629 0.53382 0.85423 0.0
C1025 C 0.04973 0.50512 0.8132 0.0
C1026 C 0.04232 0.52848 0.79416 0.0
C1027 C 0.03092 0.55413 0.8053 0.0
C1028 C 0.0279 0.55677 0.83505 0.0
C1029 C 0.0488 0.52703 0.76298 0.0
C1030 C 0.06806 0.54799 0.75114 0.0
C1031 C 0.03822 0.50414 0.74563 0.0
C1032 C 0.01664 0.48219 0.75649 0.0
C1033 C 0.98923 0.49076 0.76846 0.0
C1034 C 0.96913 0.46999 0.77889 0.0
C1035 C 0.97609 0.44055 0.77732 0.0
C1036 C 1.00315 0.43182 0.76526 0.0
C1037 C 0.02335 0.45251 0.75481 0.0
H1038 H 0.9605 0.4245 0.78541 0.0
H1039 H 0.15869 0.62368 0.68472 0.0
H1040 H 0.79303 0.94483 0.83367 0.0
H1041 H 0.74995 0.96597 0.8585 0.0
H1042 H 0.79556 0.9488 0.94094 0.0
H1043 H 0.83939 0.92945 0.91618 0.0
H1044 H 0.72471 0.92935 0.92805 0.0
H1045 H 0.79729 0.00915 0.93165 0.0
H1046 H 0.83182 0.04378 0.90842 0.0
H1047 H 0.75841 0.0764 0.85354 0.0
H1048 H 0.72355 0.0416 0.87617 0.0
H1049 H 0.62263 0.99571 0.02313 0.0
H1050 H 0.66686 0.97657 0.99924 0.0
H1051 H 0.65341 0.03986 0.92976 0.0
H1052 H 0.6105 0.0602 0.95471 0.0
H1053 H 0.70848 0.0352 0.93454 0.0
H1054 H 0.63529 0.96007 0.92762 0.0
H1055 H 0.59799 0.92441 0.94451 0.0
H1056 H 0.66712 0.88147 0.99735 0.0
H1057 H 0.70478 0.9171 0.98104 0.0
C1058 C 0.79415 0.94598 0.85705 0.0
C1059 C 0.81993 0.93523 0.87278 0.0
C1060 C 0.7693 0.95789 0.87131 0.0
C1061 C 0.76914 0.95893 0.90177 0.0
C1062 C 0.79478 0.94815 0.9175 0.0
C1063 C 0.81989 0.93689 0.90326 0.0
C1064 C 0.74243 0.97129 0.91718 0.0
C1065 C 0.72135 0.9525 0.92981 0.0
C1066 C 0.73708 1.00147 0.91868 0.0
C1067 C 0.75793 0.02255 0.90534 0.0
C1068 C 0.7886 0.0235 0.91442 0.0
C1069 C 0.80821 0.0432 0.90141 0.0
C1070 C 0.79734 0.06222 0.87945 0.0
C1071 C 0.76681 0.06163 0.87052 0.0
C1072 C 0.74712 0.04193 0.88344 0.0
C1073 C 0.62912 1.00564 1.0028 0.0
C1074 C 0.61266 0.0296 0.991 0.0
C1075 C 0.65446 0.9944 0.9888 0.0
C1076 C 0.66372 1.00597 0.96189 0.0
C1077 C 0.64733 0.03014 0.95031 0.0
C1078 C 0.62248 0.04183 0.96467 0.0
C1079 C 0.69036 0.99329 0.94601 0.0
C1080 C 0.71152 0.012 0.93305 0.0
C1081 C 0.6953 0.96294 0.94352 0.0
C1082 C 0.67278 0.94144 0.95334 0.0
C1083 C 0.64249 0.94313 0.94299 0.0
C1084 C 0.62129 0.92291 0.95244 0.0
C1085 C 0.63016 0.90074 0.97206 0.0
C1086 C 0.66028 0.89869 0.98219 0.0
C1087 C 0.68157 0.91887 0.97284 0.0
H1088 H 0.61371 0.88511 0.97935 0.0
H1089 H 0.81256 0.07746 0.8694 0.0
H1090 H 0.7176 0.16095 0.39175 0.0
H1091 H 0.76338 0.13578 0.41128 0.0
H1092 H 0.81887 0.19504 0.36315 0.0
H1093 H 0.77295 0.22004 0.34382 0.0
H1094 H 0.8452 0.14259 0.36415 0.0
H1095 H 0.80563 0.20426 0.43591 0.0
H1096 H 0.76701 0.22319 0.46797 0.0
H1097 H 0.75977 0.13947 0.5095 0.0
H1098 H 0.79823 0.11997 0.47753 0.0
H1099 H 0.96091 0.13075 0.49839 0.0
H1100 H 0.91462 0.15039 0.47444 0.0
H1101 H 0.90735 0.07428 0.42266 0.0
H1102 H 0.95369 0.05459 0.4465 0.0
H1103 H 0.85714 0.13571 0.47122 0.0
H1104 H 0.87248 0.09035 0.35712 0.0
H1105 H 0.91329 0.07816 0.32419 0.0
H1106 H 0.97244 0.13843 0.36685 0.0
H1107 H 0.93203 0.15094 0.39992 0.0
C1108 C 0.73954 0.16778 0.38441 0.0
C1109 C 0.74146 0.19197 0.36541 0.0
C1110 C 0.76589 0.15372 0.39605 0.0
C1111 C 0.79513 0.16351 0.38922 0.0
C1112 C 0.79694 0.18673 0.36895 0.0
C1113 C 0.77058 0.20089 0.35752 0.0
C1114 C 0.82358 0.15077 0.40421 0.0
C1115 C 0.84754 0.14087 0.38758 0.0
C1116 C 0.82763 0.14894 0.43488 0.0
C1117 C 0.80458 0.16059 0.45415 0.0
C1118 C 0.79567 0.18984 0.45176 0.0
C1119 C 0.77385 0.20068 0.46994 0.0
C1120 C 0.76087 0.18252 0.49068 0.0
C1121 C 0.7698 0.1535 0.49338 0.0
C1122 C 0.79164 0.14255 0.47527 0.0
C1123 C 0.94954 0.11807 0.48192 0.0
C1124 C 0.9615 0.09092 0.47457 0.0
C1125 C 0.92279 0.12939 0.46818 0.0
C1126 C 0.90707 0.11421 0.44625 0.0
C1127 C 0.91886 0.08695 0.43903 0.0
C1128 C 0.94551 0.07553 0.45292 0.0
C1129 C 0.87855 0.12684 0.43115 0.0
C1130 C 0.85463 0.13692 0.44779 0.0
C1131 C 0.87472 0.12925 0.40048 0.0
C1132 C 0.89936 0.12132 0.38116 0.0
C1133 C 0.89424 0.10091 0.35948 0.0
C1134 C 0.91731 0.09393 0.34081 0.0
C1135 C 0.9455 0.1074 0.34348 0.0
C1136 C 0.95071 0.12782 0.36489 0.0
C1137 C 0.92776 0.13481 0.38367 0.0
H1138 H 0.96321 0.1021 0.32885 0.0
H1139 H 0.74395 0.19095 0.50471 0.0
H1140 H 0.35377 0.62517 0.09866 0.0
H1141 H 0.30021 0.61831 0.08588 0.0
H1142 H 0.32447 0.58446 1.00343 0.0
H1143 H 0.37853 0.59155 0.01651 0.0
H1144 H 0.27989 0.62554 0.99789 0.0
H1145 H 0.29752 0.53931 0.05488 0.0
H1146 H 0.31626 0.51018 0.09722 0.0
H1147 H 0.25706 0.55632 0.15201 0.0
H1148 H 0.23827 0.58604 0.11007 0.0
H1149 H 0.12649 0.58113 0.96885 0.0
H1150 H 0.18138 0.58482 0.97566 0.0
H1151 H 0.16996 0.61917 0.06065 0.0
H1152 H 0.115 0.61528 0.05419 0.0
H1153 H 0.2089 0.57362 0.06176 0.0
H1154 H 0.19401 0.66191 1.0057 0.0
H1155 H 0.17584 0.69193 0.96377 0.0
H1156 H 0.23 0.64214 0.90744 0.0
H1157 H 0.24819 0.61154 0.94901 0.0
C1158 C 0.34756 0.61558 0.07815 0.0
C1159 C 0.36994 0.60827 0.05872 0.0
C1160 C 0.31708 0.61176 0.0708 0.0
C1161 C 0.30841 0.60049 0.04387 0.0
C1162 C 0.33078 0.593 0.0244 0.0
C1163 C 0.36146 0.59684 0.03184 0.0
C1164 C 0.27583 0.59804 0.03589 0.0
C1165 C 0.26439 0.61369 0.01148 0.0
C1166 C 0.25564 0.58313 0.05406 0.0
C1167 C 0.26661 0.56503 0.07932 0.0
C1168 C 0.28862 0.54337 0.07598 0.0
C1169 C 0.29924 0.52674 0.09991 0.0
C1170 C 0.28789 0.53143 0.12729 0.0
C1171 C 0.26583 0.55271 0.13079 0.0
C1172 C 0.25515 0.56943 0.10693 0.0
C1173 C 0.13561 0.58994 0.98881 0.0
C1174 C 0.1164 0.59774 0.01107 0.0
C1175 C 0.16699 0.59208 0.99262 0.0
C1176 C 0.17969 0.60221 0.01867 0.0
C1177 C 0.16055 0.61118 0.04043 0.0
C1178 C 0.12916 0.60908 0.03664 0.0
C1179 C 0.21289 0.60158 0.02408 0.0
C1180 C 0.22442 0.58525 0.04799 0.0
C1181 C 0.2331 0.61585 1.00544 0.0
C1182 C 0.2222 0.63423 0.98043 0.0
C1183 C 0.20184 0.65719 0.98434 0.0
C1184 C 0.19158 0.67435 0.96064 0.0
C1185 C 0.20169 0.66889 0.93294 0.0
C1186 C 0.22215 0.64631 0.9289 0.0
C1187 C 0.23246 0.62906 0.95252 0.0
H1188 H 0.19373 0.68221 0.91462 0.0
H1189 H 0.29616 0.51854 0.1458 0.0
H1190 H 0.18581 0.49856 0.52083 0.0
H1191 H 0.2403 0.49686 0.51179 0.0
H1192 H 0.25823 0.46921 0.60075 0.0
H1193 H 0.20385 0.47207 0.6097 0.0
H1194 H 0.29306 0.51153 0.58863 0.0
H1195 H 0.26851 0.42392 0.54172 0.0
H1196 H 0.24057 0.39187 0.50847 0.0
H1197 H 0.26856 0.44339 0.4356 0.0
H1198 H 0.29627 0.47607 0.46844 0.0
H1199 H 0.45005 0.4997 0.57057 0.0
H1200 H 0.39829 0.48272 0.57687 0.0
H1201 H 0.37104 0.5215 0.49416 0.0
H1202 H 0.42286 0.53815 0.4874 0.0
H1203 H 0.3425 0.46857 0.50474 0.0
H1204 H 0.36315 0.55821 0.55454 0.0
H1205 H 0.39342 0.58739 0.58868 0.0
H1206 H 0.37297 0.5281 0.6583 0.0
H1207 H 0.34322 0.49811 0.62433 0.0
C1208 C 0.20156 0.49169 0.53813 0.0
C1209 C 0.19113 0.48567 0.5659 0.0
C1210 C 0.23257 0.49055 0.53303 0.0
C1211 C 0.25345 0.48275 0.55557 0.0
C1212 C 0.24264 0.4754 0.58305 0.0
C1213 C 0.21173 0.47697 0.58819 0.0
C1214 C 0.28658 0.48483 0.55128 0.0
C1215 C 0.30388 0.50158 0.57059 0.0
C1216 C 0.30077 0.47231 0.52748 0.0
C1217 C 0.28429 0.4526 0.50759 0.0
C1218 C 0.26853 0.42856 0.51862 0.0
C1219 C 0.25275 0.41026 0.49984 0.0
C1220 C 0.25274 0.41562 0.46994 0.0
C1221 C 0.26857 0.43928 0.45877 0.0
C1222 C 0.28435 0.45769 0.47746 0.0
C1223 C 0.43314 0.50434 0.55355 0.0
C1224 C 0.44046 0.52067 0.52868 0.0
C1225 C 0.4036 0.49454 0.55715 0.0
C1226 C 0.38077 0.50119 0.53614 0.0
C1227 C 0.38833 0.51614 0.51062 0.0
C1228 C 0.41792 0.52582 0.50691 0.0
C1229 C 0.34856 0.49525 0.54202 0.0
C1230 C 0.33153 0.47804 0.52295 0.0
C1231 C 0.33457 0.50702 0.56623 0.0
C1232 C 0.35123 0.52578 0.58686 0.0
C1233 C 0.3652 0.55135 0.57711 0.0
C1234 C 0.38229 0.56801 0.59643 0.0
C1235 C 0.38516 0.55958 0.62565 0.0
C1236 C 0.37077 0.53457 0.63565 0.0
C1237 C 0.35382 0.51771 0.61637 0.0
H1238 H 0.39854 0.57238 0.64056 0.0
H1239 H 0.24052 0.40142 0.45544 0.0
H1240 H 0.87138 0.83695 0.82812 0.0
H1241 H 0.89402 0.79227 0.84899 0.0
H1242 H 0.96094 0.84278 0.89508 0.0
H1243 H 0.93686 0.88737 0.87535 0.0
H1244 H 0.93868 0.76012 0.85281 0.0
H1245 H 0.98455 0.81239 0.95857 0.0
H1246 H 0.97305 0.85386 0.98914 0.0
H1247 H 0.88074 0.85415 0.95689 0.0
H1248 H 0.89162 0.81259 0.92631 0.0
H1249 H 0.0201 0.64764 0.92923 0.0
H1250 H 1.00371 0.6925 0.90434 0.0
H1251 H 0.94527 0.71098 0.97467 0.0
H1252 H 0.96365 0.66701 1.00061 0.0
H1253 H 0.96139 0.75868 0.95862 0.0
H1254 H 0.92194 0.68369 0.89987 0.0
H1255 H 0.92276 0.63938 0.87115 0.0
H1256 H 0.98407 0.6797 0.81244 0.0
H1257 H 0.98389 0.72415 0.84102 0.0
C1258 C 0.89169 0.83842 0.84178 0.0
C1259 C 0.90258 0.8659 0.8495 0.0
C1260 C 0.90453 0.81271 0.85417 0.0
C1261 C 0.92895 0.81348 0.87468 0.0
C1262 C 0.94156 0.84097 0.8803 0.0
C1263 C 0.92829 0.86669 0.86832 0.0
C1264 C 0.93998 0.78597 0.89098 0.0
C1265 C 0.94374 0.76004 0.87594 0.0
C1266 C 0.94579 0.7847 0.92151 0.0
C1267 C 0.93902 0.80959 0.93994 0.0
C1268 C 0.9618 0.82128 0.95806 0.0
C1269 C 0.95539 0.84482 0.97536 0.0
C1270 C 0.92622 0.85671 0.97485 0.0
C1271 C 0.90336 0.84502 0.95714 0.0
C1272 C 0.90964 0.8215 0.9398 0.0
C1273 C 1.00377 0.66125 0.9395 0.0
C1274 C 0.99321 0.6533 0.96705 0.0
C1275 C 0.99401 0.68705 0.92496 0.0
C1276 C 0.97224 0.70551 0.93675 0.0
C1277 C 0.96193 0.69765 0.96454 0.0
C1278 C 0.97242 0.67221 0.9795 0.0
C1279 C 0.96056 0.73283 0.92041 0.0
C1280 C 0.95656 0.75873 0.93547 0.0
C1281 C 0.95312 0.7337 0.89011 0.0
C1282 C 0.95313 0.70713 0.87274 0.0
C1283 C 0.93572 0.68304 0.88092 0.0
C1284 C 0.93606 0.65792 0.86467 0.0
C1285 C 0.95353 0.6567 0.84004 0.0
C1286 C 0.97059 0.68066 0.83155 0.0
C1287 C 0.97036 0.70584 0.84775 0.0
H1288 H 0.95379 0.63722 0.8275 0.0
H1289 H 0.92131 0.87494 0.98825 0.0
H1290 H 0.49314 0.6663 0.08065 0.0
H1291 H 0.51167 0.71624 0.08598 0.0
H1292 H 0.41921 0.74707 0.08616 0.0
H1293 H 0.40112 0.69759 0.08047 0.0
H1294 H 0.45067 0.77907 0.05073 0.0
H1295 H 0.46391 0.74209 0.14865 0.0
H1296 H 0.48311 0.7082 0.18714 0.0
H1297 H 0.57461 0.72807 0.16553 0.0
H1298 H 0.55598 0.76211 0.12687 0.0
H1299 H 0.46354 0.91905 0.1018 0.0
H1300 H 0.45539 0.86692 0.10665 0.0
H1301 H 0.54744 0.85093 0.08297 0.0
H1302 H 0.55561 0.90299 0.07701 0.0
H1303 H 0.52074 0.81117 0.12974 0.0
H1304 H 0.50475 0.84909 0.03118 0.0
H1305 H 0.48321 0.88433 0.99511 0.0
H1306 H 0.39334 0.86223 0.02038 0.0
H1307 H 0.41442 0.82722 0.05699 0.0
C1308 C 0.47706 0.68397 0.08167 0.0
C1309 C 0.44588 0.67858 0.07935 0.0
C1310 C 0.48751 0.7123 0.08493 0.0
C1311 C 0.46677 0.73536 0.08644 0.0
C1312 C 0.4356 0.72969 0.0847 0.0
C1313 C 0.42527 0.70156 0.08123 0.0
C1314 C 0.47711 0.76566 0.08884 0.0
C1315 C 0.46582 0.78602 0.06816 0.0
C1316 C 0.49729 0.77468 0.11128 0.0
C1317 C 0.50855 0.75442 0.13466 0.0
C1318 C 0.48813 0.73909 0.15197 0.0
C1319 C 0.49889 0.71987 0.17383 0.0
C1320 C 0.53004 0.71583 0.17863 0.0
C1321 C 0.55049 0.73117 0.16173 0.0
C1322 C 0.53985 0.75049 0.13989 0.0
C1323 C 0.48218 0.9045 0.0979 0.0
C1324 C 0.51005 0.9152 0.08851 0.0
C1325 C 0.47757 0.87477 0.101 0.0
C1326 C 0.5008 0.85525 0.09501 0.0
C1327 C 0.52936 0.86577 0.08788 0.0
C1328 C 0.53394 0.89555 0.08449 0.0
C1329 C 0.49377 0.82428 0.09196 0.0
C1330 C 0.50576 0.80395 0.11231 0.0
C1331 C 0.4739 0.81517 0.06942 0.0
C1332 C 0.46117 0.83575 0.047 0.0
C1333 C 0.48041 0.85191 0.0292 0.0
C1334 C 0.46829 0.87182 1.00864 0.0
C1335 C 0.43693 0.87557 1.0055 0.0
C1336 C 0.41763 0.85933 0.02286 0.0
C1337 C 0.42965 0.83944 0.0435 0.0
H1338 H 0.42758 0.891 0.98958 0.0
H1339 H 0.53831 0.70089 0.19553 0.0
H1340 H 0.11409 0.45071 0.51491 0.0
H1341 H 0.10555 0.39864 0.50784 0.0
H1342 H 0.15602 0.37907 0.58743 0.0
H1343 H 0.16439 0.43084 0.59438 0.0
H1344 H 0.15442 0.34103 0.51916 0.0
H1345 H 0.09467 0.35358 0.62153 0.0
H1346 H 0.06375 0.38785 0.64846 0.0
H1347 H 0.02304 0.42055 0.56844 0.0
H1348 H 0.05404 0.3867 0.54113 0.0
H1349 H 0.12301 0.20103 0.57641 0.0
H1350 H 0.13638 0.25224 0.57313 0.0
H1351 H 0.04785 0.27235 0.53565 0.0
H1352 H 0.03452 0.22106 0.538 0.0
H1353 H 0.06701 0.31104 0.57772 0.0
H1354 H 0.10413 0.26839 0.49216 0.0
H1355 H 0.13253 0.23286 0.4646 0.0
H1356 H 0.2156 0.25919 0.50691 0.0
H1357 H 0.18761 0.29458 0.53509 0.0
C1358 C 0.1245 0.43506 0.53001 0.0
C1359 C 0.14027 0.44445 0.55489 0.0
C1360 C 0.11949 0.40551 0.52613 0.0
C1361 C 0.13016 0.38524 0.54719 0.0
C1362 C 0.14788 0.39448 0.57088 0.0
C1363 C 0.15295 0.42392 0.57466 0.0
C1364 C 0.11937 0.35512 0.54693 0.0
C1365 C 0.1353 0.33435 0.53183 0.0
C1366 C 0.09432 0.34667 0.56328 0.0
C1367 C 0.07667 0.36781 0.57939 0.0
C1368 C 0.07919 0.3682 0.60976 0.0
C1369 C 0.06167 0.38752 0.62506 0.0
C1370 C 0.04135 0.40629 0.61018 0.0
C1371 C 0.0387 0.40594 0.57994 0.0
C1372 C 0.0564 0.38686 0.56454 0.0
C1373 C 0.10633 0.21633 0.56749 0.0
C1374 C 0.07778 0.20688 0.55721 0.0
C1375 C 0.11403 0.24556 0.56565 0.0
C1376 C 0.09327 0.26591 0.55368 0.0
C1377 C 0.06421 0.25687 0.54483 0.0
C1378 C 0.05655 0.22758 0.54644 0.0
C1379 C 0.10208 0.29658 0.55002 0.0
C1380 C 0.08596 0.31753 0.56471 0.0
C1381 C 0.12678 0.30509 0.53298 0.0
C1382 C 0.14372 0.28395 0.51594 0.0
C1383 C 0.12841 0.26644 0.49577 0.0
C1384 C 0.14445 0.24635 0.48001 0.0
C1385 C 0.17584 0.24372 0.48405 0.0
C1386 C 0.19127 0.26123 0.50382 0.0
C1387 C 0.17534 0.28132 0.51969 0.0
H1388 H 0.18821 0.22817 0.47181 0.0
H1389 H 0.02778 0.4212 0.62205 0.0
H1390 H 0.7119 0.30042 0.38194 0.0
H1391 H 0.68974 0.34315 0.40406 0.0
H1392 H 0.60427 0.29892 0.40931 0.0
H1393 H 0.62676 0.25604 0.38782 0.0
H1394 H 0.64701 0.38058 0.38989 0.0
H1395 H 0.56485 0.322 0.46705 0.0
H1396 H 0.56168 0.27588 0.49484 0.0
H1397 H 0.65866 0.26808 0.49691 0.0
H1398 H 0.66243 0.31432 0.46951 0.0
H1399 H 0.54685 0.48757 0.44232 0.0
H1400 H 0.56872 0.44458 0.42103 0.0
H1401 H 0.60755 0.41855 0.50452 0.0
H1402 H 0.58468 0.46101 0.52609 0.0
H1403 H 0.59063 0.37229 0.48075 0.0
H1404 H 0.64972 0.45111 0.44498 0.0
H1405 H 0.65888 0.49827 0.42073 0.0
H1406 H 0.61825 0.46729 0.34169 0.0
H1407 H 0.60852 0.42005 0.36558 0.0
C1408 C 0.68844 0.29976 0.38801 0.0
C1409 C 0.67122 0.27463 0.38315 0.0
C1410 C 0.67562 0.32437 0.40053 0.0
C1411 C 0.64517 0.32465 0.40886 0.0
C1412 C 0.62786 0.29955 0.40368 0.0
C1413 C 0.64068 0.27497 0.3911 0.0
C1414 C 0.63166 0.35099 0.4229 0.0
C1415 C 0.6346 0.37861 0.4097 0.0
C1416 C 0.6159 0.34915 0.44923 0.0
C1417 C 0.61386 0.32146 0.46594 0.0
C1418 C 0.58549 0.31048 0.47352 0.0
C1419 C 0.5836 0.28431 0.48919 0.0
C1420 C 0.60994 0.26901 0.49754 0.0
C1421 C 0.63826 0.27989 0.49033 0.0
C1422 C 0.64028 0.30606 0.4747 0.0
C1423 C 0.55999 0.47272 0.45625 0.0
C1424 C 0.56391 0.47814 0.48608 0.0
C1425 C 0.57281 0.44802 0.44392 0.0
C1426 C 0.5906 0.42804 0.46078 0.0
C1427 C 0.59412 0.43326 0.49068 0.0
C1428 C 0.581 0.45779 0.5031 0.0
C1429 C 0.6054 0.4019 0.44741 0.0
C1430 C 0.60282 0.37429 0.4608 0.0
C1431 C 0.62214 0.40386 0.42162 0.0
C1432 C 0.62815 0.43215 0.40714 0.0
C1433 C 0.64258 0.45442 0.42247 0.0
C1434 C 0.6479 0.48116 0.40879 0.0
C1435 C 0.63908 0.4858 0.37971 0.0
C1436 C 0.62503 0.46368 0.36423 0.0
C1437 C 0.61964 0.43691 0.37782 0.0
H1438 H 0.6432 0.50652 0.36916 0.0
H1439 H 0.60842 0.24875 0.50966 0.0
loop_
_geom_bond_atom_site_label_1
_geom_bond_atom_site_label_2
_geom_bond_distance
_geom_bond_site_symmetry_2
_ccdc_geom_bond_type
C0 N1 1.317 . S
C0 N2 1.348 . S
C0 C3 1.485 . S
N1 C0 1.317 . S
N1 N5 1.370 . S
N2 C0 1.348 . S
N2 C4 1.346 . S
C3 C0 1.485 . S
C3 H7 0.960 . S
C3 H8 0.961 . S
C3 H9 0.960 . S
C4 N2 1.346 . S
C4 N5 1.307 . S
C4 C6 1.486 . S
N5 N1 1.370 . S
N5 C4 1.307 . S
C6 C4 1.486 . S
C6 H10 0.960 . S
C6 H11 0.960 . S
C6 H12 0.959 . S
H7 C3 0.960 . S
H8 C3 0.961 . S
H9 C3 0.960 . S
H10 C6 0.960 . S
H11 C6 0.960 . S
H12 C6 0.959 . S
C13 N14 1.317 . S
C13 N15 1.348 . S
C13 C16 1.485 . S
N14 C13 1.317 . S
N14 N18 1.370 . S
N15 C13 1.348 . S
N15 C17 1.346 . S
C16 C13 1.485 . S
C16 H20 0.960 . S
C16 H21 0.961 . S
C16 H22 0.960 . S
C17 N15 1.346 . S
C17 N18 1.307 . S
C17 C19 1.486 . S
N18 N14 1.370 . S
N18 C17 1.307 . S
C19 C17 1.486 . S
C19 H23 0.960 . S
C19 H24 0.960 . S
C19 H25 0.959 . S
H20 C16 0.960 . S
H21 C16 0.961 . S
H22 C16 0.960 . S
H23 C19 0.960 . S
H24 C19 0.960 . S
H25 C19 0.959 . S
C26 N27 1.317 . S
C26 N28 1.348 . S
C26 C29 1.485 . S
N27 C26 1.317 . S
N27 N31 1.370 . S
N28 C26 1.348 . S
N28 C30 1.346 . S
C29 C26 1.485 . S
C29 H33 0.960 . S
C29 H34 0.961 . S
C29 H35 0.960 . S
C30 N28 1.346 . S
C30 N31 1.307 . S
C30 C32 1.486 . S
N31 N27 1.370 . S
N31 C30 1.307 . S
C32 C30 1.486 . S
C32 H36 0.960 . S
C32 H37 0.960 . S
C32 H38 0.959 . S
H33 C29 0.960 . S
H34 C29 0.961 . S
H35 C29 0.960 . S
H36 C32 0.960 . S
H37 C32 0.960 . S
H38 C32 0.959 . S
C39 N40 1.317 . S
C39 N41 1.348 . S
C39 C42 1.485 . S
N40 C39 1.317 . S
N40 N44 1.370 . S
N41 C39 1.348 . S
N41 C43 1.346 . S
C42 C39 1.485 . S
C42 H46 0.960 . S
C42 H47 0.961 . S
C42 H48 0.960 . S
C43 N41 1.346 . S
C43 N44 1.307 . S
C43 C45 1.486 . S
N44 N40 1.370 . S
N44 C43 1.307 . S
C45 C43 1.486 . S
C45 H49 0.960 . S
C45 H50 0.960 . S
C45 H51 0.959 . S
H46 C42 0.960 . S
H47 C42 0.961 . S
H48 C42 0.960 . S
H49 C45 0.960 . S
H50 C45 0.960 . S
H51 C45 0.959 . S
C52 N53 1.317 . S
C52 N54 1.348 . S
C52 C55 1.485 . S
N53 C52 1.317 . S
N53 N57 1.370 . S
N54 C52 1.348 . S
N54 C56 1.346 . S
C55 C52 1.485 . S
C55 H59 0.960 . S
C55 H60 0.961 . S
C55 H61 0.960 . S
C56 N54 1.346 . S
C56 N57 1.307 . S
C56 C58 1.486 . S
N57 N53 1.370 . S
N57 C56 1.307 . S
C58 C56 1.486 . S
C58 H62 0.960 1_565 S
C58 H63 0.960 . S
C58 H64 0.959 . S
H59 C55 0.960 . S
H60 C55 0.961 . S
H61 C55 0.960 . S
H62 C58 0.960 1_545 S
H63 C58 0.960 . S
H64 C58 0.959 . S
C65 N66 1.317 . S
C65 N67 1.348 . S
C65 C68 1.485 . S
N66 C65 1.317 . S
N66 N70 1.370 . S
N67 C65 1.348 . S
N67 C69 1.346 . S
C68 C65 1.485 . S
C68 H72 0.960 . S
C68 H73 0.961 . S
C68 H74 0.960 . S
C69 N67 1.346 . S
C69 N70 1.307 . S
C69 C71 1.486 . S
N70 N66 1.370 . S
N70 C69 1.307 . S
C71 C69 1.486 . S
C71 H75 0.960 . S
C71 H76 0.960 . S
C71 H77 0.959 . S
H72 C68 0.960 . S
H73 C68 0.961 . S
H74 C68 0.960 . S
H75 C71 0.960 . S
H76 C71 0.960 . S
H77 C71 0.959 . S
C78 N79 1.317 . S
C78 N80 1.348 . S
C78 C81 1.485 . S
N79 C78 1.317 . S
N79 N83 1.370 . S
N80 C78 1.348 . S
N80 C82 1.346 . S
C81 C78 1.485 . S
C81 H85 0.960 . S
C81 H86 0.961 . S
C81 H87 0.960 . S
C82 N80 1.346 . S
C82 N83 1.307 . S
C82 C84 1.486 . S
N83 N79 1.370 . S
N83 C82 1.307 . S
C84 C82 1.486 . S
C84 H88 0.960 . S
C84 H89 0.960 . S
C84 H90 0.959 . S
H85 C81 0.960 . S
H86 C81 0.961 . S
H87 C81 0.960 . S
H88 C84 0.960 . S
H89 C84 0.960 . S
H90 C84 0.959 . S
C91 N92 1.317 . S
C91 N93 1.348 . S
C91 C94 1.485 . S
N92 C91 1.317 . S
N92 N96 1.370 . S
N93 C91 1.348 . S
N93 C95 1.346 . S
C94 C91 1.485 . S
C94 H98 0.960 . S
C94 H99 0.961 . S
C94 H100 0.960 . S
C95 N93 1.346 . S
C95 N96 1.307 . S
C95 C97 1.486 . S
N96 N92 1.370 . S
N96 C95 1.307 . S
C97 C95 1.486 . S
C97 H101 0.960 . S
C97 H102 0.960 . S
C97 H103 0.959 . S
H98 C94 0.960 . S
H99 C94 0.961 . S
H100 C94 0.960 . S
H101 C97 0.960 . S
H102 C97 0.960 . S
H103 C97 0.959 . S
C104 O120 1.251 . S
C104 O122 1.254 . S
N105 C106 1.333 . S
N105 C110 1.307 . S
N105 Zn111 2.020 . S
C106 N105 1.333 . S
C106 C107 1.379 . S
C106 H124 0.952 . S
C107 C106 1.379 . S
C107 C108 1.390 . S
C107 H134 0.949 . S
C108 C107 1.390 . S
C108 C109 1.357 . S
C109 C108 1.357 . S
C109 C110 1.370 . S
C109 H135 0.950 . S
C110 N105 1.307 . S
C110 C109 1.370 . S
C110 H128 0.948 . S
Zn111 N105 2.020 . S
Zn111 O120 2.039 . S
Zn111 O126 2.034 . S
Zn111 O130 2.025 . S
Zn111 O132 2.024 . S
C112 O131 1.246 . S
C112 O132 1.249 . S
N113 C114 1.307 . S
N113 C115 1.333 . S
N113 Zn119 2.020 1_565 S
C114 N113 1.307 . S
C114 C118 1.370 . S
C114 H125 0.948 . S
C115 N113 1.333 . S
C115 C116 1.379 . S
C115 H123 0.952 . S
C116 C115 1.379 . S
C116 C117 1.390 . S
C116 H136 0.949 1_455 S
C117 C116 1.390 . S
C117 C118 1.357 . S
C118 C114 1.370 . S
C118 C117 1.357 . S
C118 H137 0.950 . S
Zn119 N113 2.020 1_545 S
Zn119 O122 2.025 . S
Zn119 O127 2.024 . S
Zn119 O129 2.039 . S
Zn119 O131 2.034 . S
O120 C104 1.251 . S
O120 Zn111 2.039 . S
C121 O126 1.246 . S
C121 O127 1.249 . S
O122 C104 1.254 . S
O122 Zn119 2.025 . S
H123 C115 0.952 . S
H124 C106 0.952 . S
H125 C114 0.948 . S
O126 Zn111 2.034 . S
O126 C121 1.246 . S
O127 Zn119 2.024 . S
O127 C121 1.249 . S
H128 C110 0.948 . S
O129 Zn119 2.039 . S
O129 C133 1.251 . S
O130 Zn111 2.025 . S
O130 C133 1.254 . S
O131 C112 1.246 . S
O131 Zn119 2.034 . S
O132 Zn111 2.024 . S
O132 C112 1.249 . S
C133 O129 1.251 . S
C133 O130 1.254 . S
H134 C107 0.949 . S
H135 C109 0.950 . S
H136 C116 0.949 1_655 S
H137 C118 0.950 . S
C138 O154 1.251 . S
C138 O156 1.254 . S
N139 C140 1.333 . S
N139 C144 1.306 1_554 S
N139 Zn145 2.020 . S
C140 N139 1.333 . S
C140 C141 1.379 . S
C140 H158 0.952 . S
C141 C140 1.379 . S
C141 C142 1.390 1_554 S
C141 H168 0.949 . S
C142 C141 1.390 1_556 S
C142 C143 1.357 . S
C143 C142 1.357 . S
C143 C144 1.371 . S
C143 H169 0.950 . S
C144 N139 1.306 1_556 S
C144 C143 1.371 . S
C144 H162 0.949 . S
Zn145 N139 2.020 . S
Zn145 O154 2.039 . S
Zn145 O160 2.034 . S
Zn145 O164 2.025 . S
Zn145 O166 2.024 1_554 S
C146 O165 1.246 1_556 S
C146 O166 1.249 . S
N147 C148 1.307 . S
N147 C149 1.333 . S
N147 Zn153 2.020 1_565 S
C148 N147 1.307 . S
C148 C152 1.370 . S
C148 H159 0.948 . S
C149 N147 1.333 . S
C149 C150 1.379 . S
C149 H157 0.952 . S
C150 C149 1.379 . S
C150 C151 1.390 . S
C150 H170 0.949 . S
C151 C150 1.390 . S
C151 C152 1.357 . S
C152 C148 1.370 . S
C152 C151 1.357 . S
C152 H171 0.950 . S
Zn153 N147 2.020 1_545 S
Zn153 O156 2.025 . S
Zn153 O161 2.024 . S
Zn153 O163 2.039 . S
Zn153 O165 2.034 . S
O154 C138 1.251 . S
O154 Zn145 2.039 . S
C155 O160 1.246 . S
C155 O161 1.249 . S
O156 C138 1.254 . S
O156 Zn153 2.025 . S
H157 C149 0.952 . S
H158 C140 0.952 . S
H159 C148 0.948 . S
O160 Zn145 2.034 . S
O160 C155 1.246 . S
O161 Zn153 2.024 . S
O161 C155 1.249 . S
H162 C144 0.949 . S
O163 Zn153 2.039 . S
O163 C167 1.251 . S
O164 Zn145 2.025 . S
O164 C167 1.254 . S
O165 C146 1.246 1_554 S
O165 Zn153 2.034 . S
O166 Zn145 2.024 1_556 S
O166 C146 1.249 . S
C167 O163 1.251 . S
C167 O164 1.254 . S
H168 C141 0.949 . S
H169 C143 0.950 . S
H170 C150 0.949 . S
H171 C152 0.950 . S
C172 O188 1.251 . S
C172 O190 1.254 . S
N173 C174 1.333 . S
N173 C178 1.307 . S
N173 Zn179 2.020 . S
C174 N173 1.333 . S
C174 C175 1.379 . S
C174 H192 0.952 . S
C175 C174 1.379 . S
C175 C176 1.390 . S
C175 H202 0.949 . S
C176 C175 1.390 . S
C176 C177 1.357 . S
C177 C176 1.357 . S
C177 C178 1.370 . S
C177 H203 0.950 . S
C178 N173 1.307 . S
C178 C177 1.370 . S
C178 H196 0.948 . S
Zn179 N173 2.020 . S
Zn179 O188 2.039 . S
Zn179 O194 2.034 . S
Zn179 O198 2.025 . S
Zn179 O200 2.024 . S
C180 O199 1.246 . S
C180 O200 1.249 . S
N181 C182 1.307 . S
N181 C183 1.333 . S
N181 Zn187 2.020 . S
C182 N181 1.307 . S
C182 C186 1.370 . S
C182 H193 0.948 . S
C183 N181 1.333 . S
C183 C184 1.379 . S
C183 H191 0.952 . S
C184 C183 1.379 . S
C184 C185 1.390 . S
C184 H204 0.949 . S
C185 C184 1.390 . S
C185 C186 1.357 . S
C186 C182 1.370 . S
C186 C185 1.357 . S
C186 H205 0.950 . S
Zn187 N181 2.020 . S
Zn187 O190 2.025 . S
Zn187 O195 2.024 . S
Zn187 O197 2.039 . S
Zn187 O199 2.034 . S
O188 C172 1.251 . S
O188 Zn179 2.039 . S
C189 O194 1.246 . S
C189 O195 1.249 . S
O190 C172 1.254 . S
O190 Zn187 2.025 . S
H191 C183 0.952 . S
H192 C174 0.952 . S
H193 C182 0.948 . S
O194 Zn179 2.034 . S
O194 C189 1.246 . S
O195 Zn187 2.024 . S
O195 C189 1.249 . S
H196 C178 0.948 . S
O197 Zn187 2.039 . S
O197 C201 1.251 . S
O198 Zn179 2.025 . S
O198 C201 1.254 . S
O199 C180 1.246 . S
O199 Zn187 2.034 . S
O200 Zn179 2.024 . S
O200 C180 1.249 . S
C201 O197 1.251 . S
C201 O198 1.254 . S
H202 C175 0.949 . S
H203 C177 0.950 . S
H204 C184 0.949 . S
H205 C186 0.950 . S
C206 O222 1.251 1_556 S
C206 O224 1.254 1_655 S
N207 C208 1.333 . S
N207 C212 1.307 . S
N207 Zn213 2.010 1_655 S
C208 N207 1.333 . S
C208 C209 1.379 . S
C208 H226 0.952 . S
C209 C208 1.379 . S
C209 C210 1.390 . S
C209 H236 0.949 . S
C210 C209 1.390 . S
C210 C211 1.357 . S
C211 C210 1.357 . S
C211 C212 1.370 . S
C211 H237 0.950 . S
C212 N207 1.307 . S
C212 C211 1.370 . S
C212 H230 0.948 . S
Zn213 N207 2.010 1_455 S
Zn213 O222 2.033 1_455 S
Zn213 O228 2.063 . S
Zn213 O232 2.036 . S
Zn213 O234 1.999 1_455 S
C214 O233 1.246 . S
C214 O234 1.249 1_556 S
N215 C216 1.307 . S
N215 C217 1.333 . S
N215 Zn221 2.020 . S
C216 N215 1.307 . S
C216 C220 1.370 . S
C216 H227 0.948 . S
C217 N215 1.333 . S
C217 C218 1.379 . S
C217 H225 0.952 . S
C218 C217 1.379 . S
C218 C219 1.390 . S
C218 H238 0.949 . S
C219 C218 1.390 . S
C219 C220 1.357 . S
C220 C216 1.370 . S
C220 C219 1.357 . S
C220 H239 0.950 . S
Zn221 N215 2.020 . S
Zn221 O224 2.025 . S
Zn221 O229 2.024 . S
Zn221 O231 2.039 . S
Zn221 O233 2.034 1_455 S
O222 C206 1.251 1_554 S
O222 Zn213 2.033 1_655 S
C223 O228 1.246 . S
C223 O229 1.249 1_554 S
O224 C206 1.254 1_455 S
O224 Zn221 2.025 . S
H225 C217 0.952 . S
H226 C208 0.952 . S
H227 C216 0.948 . S
O228 Zn213 2.063 . S
O228 C223 1.246 . S
O229 Zn221 2.024 . S
O229 C223 1.249 1_556 S
H230 C212 0.948 . S
O231 Zn221 2.039 . S
O231 C235 1.251 1_556 S
O232 Zn213 2.036 . S
O232 C235 1.254 . S
O233 C214 1.246 . S
O233 Zn221 2.034 1_655 S
O234 Zn213 1.999 1_655 S
O234 C214 1.249 1_554 S
C235 O231 1.251 1_554 S
C235 O232 1.254 . S
H236 C209 0.949 . S
H237 C211 0.950 . S
H238 C218 0.949 . S
H239 C220 0.950 . S
H240 C258 0.951 . S
H241 C260 0.951 . S
H242 C262 0.950 . S
H243 C263 0.950 . S
H244 C265 0.950 . S
H245 C268 0.950 . S
H246 C269 0.950 . S
H247 C271 0.950 . S
H248 C272 0.950 . S
H249 C273 0.951 . S
H250 C275 0.951 . S
H251 C277 0.950 . S
H252 C278 0.950 . S
H253 C280 0.950 . S
H254 C283 0.950 . S
H255 C284 0.950 . S
H256 C286 0.950 . S
H257 C287 0.950 . S
C258 H240 0.951 . S
C258 C259 1.366 . S
C258 C260 1.388 . S
C259 C258 1.366 . S
C259 C263 1.385 . S
C260 H241 0.951 . S
C260 C258 1.388 . S
C260 C261 1.366 . S
C261 C260 1.366 . S
C261 C262 1.414 . S
C261 C264 1.499 . S
C262 H242 0.950 . S
C262 C261 1.414 . S
C262 C263 1.374 . S
C263 H243 0.950 . S
C263 C259 1.385 . S
C263 C262 1.374 . S
C264 C261 1.499 . S
C264 C265 1.373 . S
C264 C266 1.389 . S
C265 H244 0.950 . S
C265 C264 1.373 . S
C265 C281 1.377 . S
C266 C264 1.389 . S
C266 C267 1.524 . S
C266 C280 1.377 . S
C267 C266 1.524 . S
C267 C268 1.397 . S
C267 C272 1.363 . S
C268 H245 0.950 . S
C268 C267 1.397 . S
C268 C269 1.334 . S
C269 H246 0.950 . S
C269 C268 1.334 . S
C269 C270 1.287 . S
C270 C269 1.287 . S
C270 C271 1.524 . S
C270 H289 0.913 . S
C271 H247 0.950 . S
C271 C270 1.524 . S
C271 C272 1.415 . S
C272 H248 0.950 . S
C272 C267 1.363 . S
C272 C271 1.415 . S
C273 H249 0.951 . S
C273 C274 1.366 . S
C273 C275 1.388 . S
C274 C273 1.366 . S
C274 C278 1.385 . S
C275 H250 0.951 . S
C275 C273 1.388 . S
C275 C276 1.366 . S
C276 C275 1.366 . S
C276 C277 1.414 . S
C276 C279 1.499 . S
C277 H251 0.950 . S
C277 C276 1.414 . S
C277 C278 1.374 . S
C278 H252 0.950 . S
C278 C274 1.385 . S
C278 C277 1.374 . S
C279 C276 1.499 . S
C279 C280 1.373 . S
C279 C281 1.389 . S
C280 H253 0.950 . S
C280 C266 1.377 . S
C280 C279 1.373 . S
C281 C265 1.377 . S
C281 C279 1.389 . S
C281 C282 1.524 . S
C282 C281 1.524 . S
C282 C283 1.397 . S
C282 C287 1.363 . S
C283 H254 0.950 . S
C283 C282 1.397 . S
C283 C284 1.334 . S
C284 H255 0.950 . S
C284 C283 1.334 . S
C284 C285 1.287 . S
C285 C284 1.287 . S
C285 C286 1.524 . S
C285 H288 0.999 . S
C286 H256 0.950 . S
C286 C285 1.524 . S
C286 C287 1.415 . S
C287 H257 0.950 . S
C287 C282 1.363 . S
C287 C286 1.415 . S
H288 C285 0.999 . S
H289 C270 0.913 . S
H290 C308 0.951 . S
H291 C310 0.951 1_545 S
H292 C312 0.950 . S
H293 C313 0.950 . S
H294 C315 0.950 . S
H295 C318 0.950 1_565 S
H296 C319 0.950 . S
H297 C321 0.950 . S
H298 C322 0.950 . S
H299 C323 0.951 . S
H300 C325 0.951 . S
H301 C327 0.950 . S
H302 C328 0.950 . S
H303 C330 0.950 . S
H304 C333 0.950 . S
H305 C334 0.950 . S
H306 C336 0.950 . S
H307 C337 0.950 . S
C308 H290 0.951 . S
C308 C309 1.366 . S
C308 C310 1.388 . S
C309 C308 1.366 . S
C309 C313 1.385 . S
C310 H291 0.951 1_565 S
C310 C308 1.388 . S
C310 C311 1.366 . S
C311 C310 1.366 . S
C311 C312 1.414 . S
C311 C314 1.499 . S
C312 H292 0.950 . S
C312 C311 1.414 . S
C312 C313 1.374 . S
C313 H293 0.950 . S
C313 C309 1.385 . S
C313 C312 1.374 . S
C314 C311 1.499 . S
C314 C315 1.373 . S
C314 C316 1.389 1_565 S
C315 H294 0.950 . S
C315 C314 1.373 . S
C315 C331 1.377 . S
C316 C314 1.389 1_545 S
C316 C317 1.524 . S
C316 C330 1.377 . S
C317 C316 1.524 . S
C317 C318 1.397 . S
C317 C322 1.363 . S
C318 H295 0.950 1_545 S
C318 C317 1.397 . S
C318 C319 1.334 . S
C319 H296 0.950 . S
C319 C318 1.334 . S
C319 C320 1.287 . S
C320 C319 1.287 . S
C320 C321 1.524 . S
C320 H339 0.913 . S
C321 H297 0.950 . S
C321 C320 1.524 . S
C321 C322 1.415 . S
C322 H298 0.950 . S
C322 C317 1.363 . S
C322 C321 1.415 . S
C323 H299 0.951 . S
C323 C324 1.366 1_565 S
C323 C325 1.388 . S
C324 C323 1.366 1_545 S
C324 C328 1.385 . S
C325 H300 0.951 . S
C325 C323 1.388 . S
C325 C326 1.366 1_565 S
C326 C325 1.366 1_545 S
C326 C327 1.414 . S
C326 C329 1.499 1_545 S
C327 H301 0.950 . S
C327 C326 1.414 . S
C327 C328 1.374 . S
C328 H302 0.950 . S
C328 C324 1.385 . S
C328 C327 1.374 . S
C329 C326 1.499 1_565 S
C329 C330 1.373 1_565 S
C329 C331 1.389 . S
C330 H303 0.950 . S
C330 C316 1.377 . S
C330 C329 1.373 1_545 S
C331 C315 1.377 . S
C331 C329 1.389 . S
C331 C332 1.524 . S
C332 C331 1.524 . S
C332 C333 1.397 . S
C332 C337 1.363 . S
C333 H304 0.950 . S
C333 C332 1.397 . S
C333 C334 1.334 . S
C334 H305 0.950 . S
C334 C333 1.334 . S
C334 C335 1.287 . S
C335 C334 1.287 . S
C335 C336 1.524 . S
C335 H338 0.999 . S
C336 H306 0.950 . S
C336 C335 1.524 . S
C336 C337 1.415 . S
C337 H307 0.950 . S
C337 C332 1.363 . S
C337 C336 1.415 . S
H338 C335 0.999 . S
H339 C320 0.913 . S
H340 C358 0.951 . S
H341 C360 0.951 . S
H342 C362 0.950 . S
H343 C363 0.950 . S
H344 C365 0.950 . S
H345 C368 0.950 . S
H346 C369 0.950 . S
H347 C371 0.950 . S
H348 C372 0.950 . S
H349 C373 0.951 . S
H350 C375 0.951 . S
H351 C377 0.950 . S
H352 C378 0.950 . S
H353 C380 0.950 . S
H354 C383 0.950 . S
H355 C384 0.950 . S
H356 C386 0.950 . S
H357 C387 0.950 . S
C358 H340 0.951 . S
C358 C359 1.366 . S
C358 C360 1.388 . S
C359 C358 1.366 . S
C359 C363 1.385 . S
C360 H341 0.951 . S
C360 C358 1.388 . S
C360 C361 1.366 . S
C361 C360 1.366 . S
C361 C362 1.414 . S
C361 C364 1.499 . S
C362 H342 0.950 . S
C362 C361 1.414 . S
C362 C363 1.374 . S
C363 H343 0.950 . S
C363 C359 1.385 . S
C363 C362 1.374 . S
C364 C361 1.499 . S
C364 C365 1.373 . S
C364 C366 1.389 . S
C365 H344 0.950 . S
C365 C364 1.373 . S
C365 C381 1.377 . S
C366 C364 1.389 . S
C366 C367 1.524 . S
C366 C380 1.377 . S
C367 C366 1.524 . S
C367 C368 1.397 . S
C367 C372 1.363 . S
C368 H345 0.950 . S
C368 C367 1.397 . S
C368 C369 1.334 . S
C369 H346 0.950 . S
C369 C368 1.334 . S
C369 C370 1.287 . S
C370 C369 1.287 . S
C370 C371 1.524 . S
C370 H389 0.913 . S
C371 H347 0.950 . S
C371 C370 1.524 . S
C371 C372 1.415 . S
C372 H348 0.950 . S
C372 C367 1.363 . S
C372 C371 1.415 . S
C373 H349 0.951 . S
C373 C374 1.366 . S
C373 C375 1.388 . S
C374 C373 1.366 . S
C374 C378 1.385 . S
C375 H350 0.951 . S
C375 C373 1.388 . S
C375 C376 1.366 . S
C376 C375 1.366 . S
C376 C377 1.414 . S
C376 C379 1.499 . S
C377 H351 0.950 . S
C377 C376 1.414 . S
C377 C378 1.374 . S
C378 H352 0.950 . S
C378 C374 1.385 . S
C378 C377 1.374 . S
C379 C376 1.499 . S
C379 C380 1.373 . S
C379 C381 1.389 . S
C380 H353 0.950 . S
C380 C366 1.377 . S
C380 C379 1.373 . S
C381 C365 1.377 . S
C381 C379 1.389 . S
C381 C382 1.524 . S
C382 C381 1.524 . S
C382 C383 1.397 . S
C382 C387 1.363 . S
C383 H354 0.950 . S
C383 C382 1.397 . S
C383 C384 1.334 . S
C384 H355 0.950 . S
C384 C383 1.334 . S
C384 C385 1.287 . S
C385 C384 1.287 . S
C385 C386 1.524 . S
C385 H388 0.999 . S
C386 H356 0.950 . S
C386 C385 1.524 . S
C386 C387 1.415 . S
C387 H357 0.950 . S
C387 C382 1.363 . S
C387 C386 1.415 . S
H388 C385 0.999 . S
H389 C370 0.913 . S
H390 C408 0.951 . S
H391 C410 0.951 . S
H392 C412 0.950 . S
H393 C413 0.950 . S
H394 C415 0.950 . S
H395 C418 0.950 . S
H396 C419 0.950 . S
H397 C421 0.950 . S
H398 C422 0.950 . S
H399 C423 0.951 . S
H400 C425 0.951 . S
H401 C427 0.950 . S
H402 C428 0.950 . S
H403 C430 0.950 . S
H404 C433 0.950 1_455 S
H405 C434 0.950 . S
H406 C436 0.950 . S
H407 C437 0.950 . S
C408 H390 0.951 . S
C408 C409 1.366 . S
C408 C410 1.388 . S
C409 C408 1.366 . S
C409 C413 1.385 . S
C410 H391 0.951 . S
C410 C408 1.388 . S
C410 C411 1.366 . S
C411 C410 1.366 . S
C411 C412 1.414 . S
C411 C414 1.499 . S
C412 H392 0.950 . S
C412 C411 1.414 . S
C412 C413 1.374 . S
C413 H393 0.950 . S
C413 C409 1.385 . S
C413 C412 1.374 . S
C414 C411 1.499 . S
C414 C415 1.373 . S
C414 C416 1.389 . S
C415 H394 0.950 . S
C415 C414 1.373 . S
C415 C431 1.377 . S
C416 C414 1.389 . S
C416 C417 1.524 . S
C416 C430 1.377 . S
C417 C416 1.524 . S
C417 C418 1.397 . S
C417 C422 1.363 . S
C418 H395 0.950 . S
C418 C417 1.397 . S
C418 C419 1.334 . S
C419 H396 0.950 . S
C419 C418 1.334 . S
C419 C420 1.287 . S
C420 C419 1.287 . S
C420 C421 1.524 . S
C420 H439 0.913 . S
C421 H397 0.950 . S
C421 C420 1.524 . S
C421 C422 1.415 . S
C422 H398 0.950 . S
C422 C417 1.363 . S
C422 C421 1.415 . S
C423 H399 0.951 . S
C423 C424 1.366 . S
C423 C425 1.388 . S
C424 C423 1.366 . S
C424 C428 1.385 . S
C425 H400 0.951 . S
C425 C423 1.388 . S
C425 C426 1.366 . S
C426 C425 1.366 . S
C426 C427 1.414 . S
C426 C429 1.499 . S
C427 H401 0.950 . S
C427 C426 1.414 . S
C427 C428 1.374 . S
C428 H402 0.950 . S
C428 C424 1.385 . S
C428 C427 1.374 . S
C429 C426 1.499 . S
C429 C430 1.373 . S
C429 C431 1.389 . S
C430 H403 0.950 . S
C430 C416 1.377 . S
C430 C429 1.373 . S
C431 C415 1.377 . S
C431 C429 1.389 . S
C431 C432 1.524 . S
C432 C431 1.524 . S
C432 C433 1.397 . S
C432 C437 1.363 . S
C433 H404 0.950 1_655 S
C433 C432 1.397 . S
C433 C434 1.334 1_655 S
C434 H405 0.950 . S
C434 C433 1.334 1_455 S
C434 C435 1.287 . S
C435 C434 1.287 . S
C435 C436 1.524 1_455 S
C435 H438 0.999 . S
C436 H406 0.950 . S
C436 C435 1.524 1_655 S
C436 C437 1.415 . S
C437 H407 0.950 . S
C437 C432 1.363 . S
C437 C436 1.415 . S
H438 C435 0.999 . S
H439 C420 0.913 . S
H440 C458 0.951 . S
H441 C460 0.951 . S
H442 C462 0.950 . S
H443 C463 0.950 . S
H444 C465 0.950 . S
H445 C468 0.950 . S
H446 C469 0.950 . S
H447 C471 0.950 . S
H448 C472 0.950 . S
H449 C473 0.951 . S
H450 C475 0.951 . S
H451 C477 0.950 . S
H452 C478 0.950 . S
H453 C480 0.950 . S
H454 C483 0.950 . S
H455 C484 0.950 . S
H456 C486 0.950 . S
H457 C487 0.950 . S
C458 H440 0.951 . S
C458 C459 1.366 . S
C458 C460 1.388 . S
C459 C458 1.366 . S
C459 C463 1.385 . S
C460 H441 0.951 . S
C460 C458 1.388 . S
C460 C461 1.366 . S
C461 C460 1.366 . S
C461 C462 1.414 . S
C461 C464 1.499 . S
C462 H442 0.950 . S
C462 C461 1.414 . S
C462 C463 1.374 . S
C463 H443 0.950 . S
C463 C459 1.385 . S
C463 C462 1.374 . S
C464 C461 1.499 . S
C464 C465 1.373 . S
C464 C466 1.389 . S
C465 H444 0.950 . S
C465 C464 1.373 . S
C465 C481 1.377 . S
C466 C464 1.389 . S
C466 C467 1.524 . S
C466 C480 1.377 . S
C467 C466 1.524 . S
C467 C468 1.397 . S
C467 C472 1.363 . S
C468 H445 0.950 . S
C468 C467 1.397 . S
C468 C469 1.334 . S
C469 H446 0.950 . S
C469 C468 1.334 . S
C469 C470 1.287 . S
C470 C469 1.287 . S
C470 C471 1.524 . S
C470 H489 0.913 . S
C471 H447 0.950 . S
C471 C470 1.524 . S
C471 C472 1.415 . S
C472 H448 0.950 . S
C472 C467 1.363 . S
C472 C471 1.415 . S
C473 H449 0.951 . S
C473 C474 1.366 . S
C473 C475 1.388 . S
C474 C473 1.366 . S
C474 C478 1.385 . S
C475 H450 0.951 . S
C475 C473 1.388 . S
C475 C476 1.366 . S
C476 C475 1.366 . S
C476 C477 1.414 . S
C476 C479 1.499 . S
C477 H451 0.950 . S
C477 C476 1.414 . S
C477 C478 1.374 . S
C478 H452 0.950 . S
C478 C474 1.385 . S
C478 C477 1.374 . S
C479 C476 1.499 . S
C479 C480 1.373 . S
C479 C481 1.389 . S
C480 H453 0.950 . S
C480 C466 1.377 . S
C480 C479 1.373 . S
C481 C465 1.377 . S
C481 C479 1.389 . S
C481 C482 1.524 . S
C482 C481 1.524 . S
C482 C483 1.397 . S
C482 C487 1.363 . S
C483 H454 0.950 . S
C483 C482 1.397 . S
C483 C484 1.334 . S
C484 H455 0.950 . S
C484 C483 1.334 . S
C484 C485 1.287 . S
C485 C484 1.287 . S
C485 C486 1.524 . S
C485 H488 0.999 . S
C486 H456 0.950 . S
C486 C485 1.524 . S
C486 C487 1.415 . S
C487 H457 0.950 . S
C487 C482 1.363 . S
C487 C486 1.415 . S
H488 C485 0.999 . S
H489 C470 0.913 . S
H490 C508 0.951 . S
H491 C510 0.951 . S
H492 C512 0.950 1_545 S
H493 C513 0.950 . S
H494 C515 0.950 1_545 S
H495 C518 0.950 . S
H496 C519 0.950 . S
H497 C521 0.950 . S
H498 C522 0.950 . S
H499 C523 0.951 . S
H500 C525 0.951 . S
H501 C527 0.950 . S
H502 C528 0.950 . S
H503 C530 0.950 . S
H504 C533 0.950 1_565 S
H505 C534 0.950 . S
H506 C536 0.950 . S
H507 C537 0.950 . S
C508 H490 0.951 . S
C508 C509 1.366 . S
C508 C510 1.388 . S
C509 C508 1.366 . S
C509 C513 1.385 . S
C510 H491 0.951 . S
C510 C508 1.388 . S
C510 C511 1.366 . S
C511 C510 1.366 . S
C511 C512 1.414 . S
C511 C514 1.499 . S
C512 H492 0.950 1_565 S
C512 C511 1.414 . S
C512 C513 1.374 . S
C513 H493 0.950 . S
C513 C509 1.385 . S
C513 C512 1.374 . S
C514 C511 1.499 . S
C514 C515 1.373 . S
C514 C516 1.389 . S
C515 H494 0.950 1_565 S
C515 C514 1.373 . S
C515 C531 1.377 1_565 S
C516 C514 1.389 . S
C516 C517 1.524 . S
C516 C530 1.377 . S
C517 C516 1.524 . S
C517 C518 1.397 . S
C517 C522 1.363 . S
C518 H495 0.950 . S
C518 C517 1.397 . S
C518 C519 1.334 . S
C519 H496 0.950 . S
C519 C518 1.334 . S
C519 C520 1.287 . S
C520 C519 1.287 . S
C520 C521 1.524 . S
C520 H539 0.913 . S
C521 H497 0.950 . S
C521 C520 1.524 . S
C521 C522 1.415 . S
C522 H498 0.950 . S
C522 C517 1.363 . S
C522 C521 1.415 . S
C523 H499 0.951 . S
C523 C524 1.366 . S
C523 C525 1.388 . S
C524 C523 1.366 . S
C524 C528 1.385 1_545 S
C525 H500 0.951 . S
C525 C523 1.388 . S
C525 C526 1.332 1_545 S
C526 C525 1.332 1_565 S
C526 C527 1.438 . S
C526 C529 1.509 . S
C527 H501 0.950 . S
C527 C526 1.438 . S
C527 C528 1.374 . S
C528 H502 0.950 . S
C528 C524 1.385 1_565 S
C528 C527 1.374 . S
C529 C526 1.509 . S
C529 C530 1.373 . S
C529 C531 1.389 1_565 S
C530 H503 0.950 . S
C530 C516 1.377 . S
C530 C529 1.373 . S
C531 C515 1.377 1_545 S
C531 C529 1.389 1_545 S
C531 C532 1.524 . S
C532 C531 1.524 . S
C532 C533 1.397 . S
C532 C537 1.363 . S
C533 H504 0.950 1_545 S
C533 C532 1.397 . S
C533 C534 1.334 . S
C534 H505 0.950 . S
C534 C533 1.334 . S
C534 C535 1.287 . S
C535 C534 1.287 . S
C535 C536 1.524 . S
C535 H538 0.999 . S
C536 H506 0.950 . S
C536 C535 1.524 . S
C536 C537 1.415 . S
C537 H507 0.950 . S
C537 C532 1.363 . S
C537 C536 1.415 . S
H538 C535 0.999 . S
H539 C520 0.913 . S
H540 C558 0.951 . S
H541 C560 0.951 . S
H542 C562 0.950 . S
H543 C563 0.950 . S
H544 C565 0.950 . S
H545 C568 0.950 . S
H546 C569 0.950 . S
H547 C571 0.950 . S
H548 C572 0.950 . S
H549 C573 0.942 1_554 S
H550 C575 0.951 1_554 S
H551 C577 0.950 . S
H552 C578 0.950 . S
H553 C580 0.950 . S
H554 C583 0.950 1_556 S
H555 C584 0.950 . S
H556 C586 0.950 . S
H557 C587 0.950 . S
C558 H540 0.951 . S
C558 C559 1.366 . S
C558 C560 1.388 . S
C559 C558 1.366 . S
C559 C563 1.385 . S
C560 H541 0.951 . S
C560 C558 1.388 . S
C560 C561 1.366 . S
C561 C560 1.366 . S
C561 C562 1.414 . S
C561 C564 1.499 . S
C562 H542 0.950 . S
C562 C561 1.414 . S
C562 C563 1.374 . S
C563 H543 0.950 . S
C563 C559 1.385 . S
C563 C562 1.374 . S
C564 C561 1.499 . S
C564 C565 1.373 . S
C564 C566 1.389 . S
C565 H544 0.950 . S
C565 C564 1.373 . S
C565 C581 1.377 . S
C566 C564 1.389 . S
C566 C567 1.524 . S
C566 C580 1.377 . S
C567 C566 1.524 . S
C567 C568 1.397 . S
C567 C572 1.363 . S
C568 H545 0.950 . S
C568 C567 1.397 . S
C568 C569 1.334 . S
C569 H546 0.950 . S
C569 C568 1.334 . S
C569 C570 1.287 . S
C570 C569 1.287 . S
C570 C571 1.524 . S
C570 H589 0.913 . S
C571 H547 0.950 . S
C571 C570 1.524 . S
C571 C572 1.415 . S
C572 H548 0.950 . S
C572 C567 1.363 . S
C572 C571 1.415 . S
C573 H549 0.942 1_556 S
C573 C574 1.372 . S
C573 C575 1.390 . S
C574 C573 1.372 . S
C574 C578 1.385 . S
C575 H550 0.951 1_556 S
C575 C573 1.390 . S
C575 C576 1.366 . S
C576 C575 1.366 . S
C576 C577 1.414 . S
C576 C579 1.499 . S
C577 H551 0.950 . S
C577 C576 1.414 . S
C577 C578 1.374 . S
C578 H552 0.950 . S
C578 C574 1.385 . S
C578 C577 1.374 . S
C579 C576 1.499 . S
C579 C580 1.373 . S
C579 C581 1.389 . S
C580 H553 0.950 . S
C580 C566 1.377 . S
C580 C579 1.373 . S
C581 C565 1.377 . S
C581 C579 1.389 . S
C581 C582 1.524 1_556 S
C582 C581 1.524 1_554 S
C582 C583 1.397 . S
C582 C587 1.363 . S
C583 H554 0.950 1_554 S
C583 C582 1.397 . S
C583 C584 1.334 . S
C584 H555 0.950 . S
C584 C583 1.334 . S
C584 C585 1.287 . S
C585 C584 1.287 . S
C585 C586 1.524 . S
C585 H588 0.999 . S
C586 H556 0.950 . S
C586 C585 1.524 . S
C586 C587 1.415 . S
C587 H557 0.950 . S
C587 C582 1.363 . S
C587 C586 1.415 . S
H588 C585 0.999 . S
H589 C570 0.913 . S
H590 C608 0.951 . S
H591 C610 0.951 . S
H592 C612 0.950 . S
H593 C613 0.950 . S
H594 C615 0.950 . S
H595 C618 0.950 . S
H596 C619 0.950 . S
H597 C621 0.950 . S
H598 C622 0.950 . S
H599 C623 0.951 . S
H600 C625 0.951 . S
H601 C627 0.950 . S
H602 C628 0.950 . S
H603 C630 0.950 . S
H604 C633 0.950 . S
H605 C634 0.950 . S
H606 C636 0.950 . S
H607 C637 0.950 . S
C608 H590 0.951 . S
C608 C609 1.366 . S
C608 C610 1.388 . S
C609 C608 1.366 . S
C609 C613 1.385 . S
C610 H591 0.951 . S
C610 C608 1.388 . S
C610 C611 1.366 . S
C611 C610 1.366 . S
C611 C612 1.414 . S
C611 C614 1.499 . S
C612 H592 0.950 . S
C612 C611 1.414 . S
C612 C613 1.374 . S
C613 H593 0.950 . S
C613 C609 1.385 . S
C613 C612 1.374 . S
C614 C611 1.499 . S
C614 C615 1.373 . S
C614 C616 1.389 . S
C615 H594 0.950 . S
C615 C614 1.373 . S
C615 C631 1.377 . S
C616 C614 1.389 . S
C616 C617 1.524 . S
C616 C630 1.377 . S
C617 C616 1.524 . S
C617 C618 1.397 . S
C617 C622 1.363 . S
C618 H595 0.950 . S
C618 C617 1.397 . S
C618 C619 1.334 . S
C619 H596 0.950 . S
C619 C618 1.334 . S
C619 C620 1.287 . S
C620 C619 1.287 . S
C620 C621 1.524 . S
C620 H639 0.913 . S
C621 H597 0.950 . S
C621 C620 1.524 . S
C621 C622 1.415 . S
C622 H598 0.950 . S
C622 C617 1.363 . S
C622 C621 1.415 . S
C623 H599 0.951 . S
C623 C624 1.366 . S
C623 C625 1.388 . S
C624 C623 1.366 . S
C624 C628 1.385 . S
C625 H600 0.951 . S
C625 C623 1.388 . S
C625 C626 1.366 . S
C626 C625 1.366 . S
C626 C627 1.414 . S
C626 C629 1.499 . S
C627 H601 0.950 . S
C627 C626 1.414 . S
C627 C628 1.374 . S
C628 H602 0.950 . S
C628 C624 1.385 . S
C628 C627 1.374 . S
C629 C626 1.499 . S
C629 C630 1.373 . S
C629 C631 1.389 . S
C630 H603 0.950 . S
C630 C616 1.377 . S
C630 C629 1.373 . S
C631 C615 1.377 . S
C631 C629 1.389 . S
C631 C632 1.524 . S
C632 C631 1.524 . S
C632 C633 1.397 . S
C632 C637 1.363 . S
C633 H604 0.950 . S
C633 C632 1.397 . S
C633 C634 1.334 . S
C634 H605 0.950 . S
C634 C633 1.334 . S
C634 C635 1.287 . S
C635 C634 1.287 . S
C635 C636 1.524 . S
C635 H638 0.999 . S
C636 H606 0.950 . S
C636 C635 1.524 . S
C636 C637 1.415 . S
C637 H607 0.950 . S
C637 C632 1.363 . S
C637 C636 1.415 . S
H638 C635 0.999 . S
H639 C620 0.913 . S
H640 C658 0.951 . S
H641 C660 0.951 . S
H642 C662 0.950 . S
H643 C663 0.950 . S
H644 C665 0.950 . S
H645 C668 0.950 . S
H646 C669 0.950 . S
H647 C671 0.950 . S
H648 C672 0.950 . S
H649 C673 0.951 . S
H650 C675 0.951 . S
H651 C677 0.950 . S
H652 C678 0.950 . S
H653 C680 0.950 . S
H654 C683 0.950 . S
H655 C684 0.950 1_655 S
H656 C686 0.950 . S
H657 C687 0.950 . S
C658 H640 0.951 . S
C658 C659 1.366 . S
C658 C660 1.388 . S
C659 C658 1.366 . S
C659 C663 1.385 . S
C660 H641 0.951 . S
C660 C658 1.388 . S
C660 C661 1.366 . S
C661 C660 1.366 . S
C661 C662 1.414 . S
C661 C664 1.499 . S
C662 H642 0.950 . S
C662 C661 1.414 . S
C662 C663 1.374 . S
C663 H643 0.950 . S
C663 C659 1.385 . S
C663 C662 1.374 . S
C664 C661 1.499 . S
C664 C665 1.373 . S
C664 C666 1.389 . S
C665 H644 0.950 . S
C665 C664 1.373 . S
C665 C681 1.377 . S
C666 C664 1.389 . S
C666 C667 1.524 . S
C666 C680 1.377 . S
C667 C666 1.524 . S
C667 C668 1.397 . S
C667 C672 1.363 1_554 S
C668 H645 0.950 . S
C668 C667 1.397 . S
C668 C669 1.334 . S
C669 H646 0.950 . S
C669 C668 1.334 . S
C669 C670 1.287 1_554 S
C670 C669 1.287 1_556 S
C670 C671 1.524 . S
C670 H689 0.913 . S
C671 H647 0.950 . S
C671 C670 1.524 . S
C671 C672 1.415 . S
C672 H648 0.950 . S
C672 C667 1.363 1_556 S
C672 C671 1.415 . S
C673 H649 0.951 . S
C673 C674 1.366 . S
C673 C675 1.388 . S
C674 C673 1.366 . S
C674 C678 1.385 . S
C675 H650 0.951 . S
C675 C673 1.388 . S
C675 C676 1.366 . S
C676 C675 1.366 . S
C676 C677 1.414 . S
C676 C679 1.499 . S
C677 H651 0.950 . S
C677 C676 1.414 . S
C677 C678 1.374 . S
C678 H652 0.950 . S
C678 C674 1.385 . S
C678 C677 1.374 . S
C679 C676 1.499 . S
C679 C680 1.373 . S
C679 C681 1.389 . S
C680 H653 0.950 . S
C680 C666 1.377 . S
C680 C679 1.373 . S
C681 C665 1.377 . S
C681 C679 1.389 . S
C681 C682 1.524 . S
C682 C681 1.524 . S
C682 C683 1.397 . S
C682 C687 1.363 . S
C683 H654 0.950 . S
C683 C682 1.397 . S
C683 C684 1.334 . S
C684 H655 0.950 1_455 S
C684 C683 1.334 . S
C684 C685 1.287 . S
C685 C684 1.287 . S
C685 C686 1.524 . S
C685 H688 0.999 . S
C686 H656 0.950 . S
C686 C685 1.524 . S
C686 C687 1.415 . S
C687 H657 0.950 . S
C687 C682 1.363 . S
C687 C686 1.415 . S
H688 C685 0.999 . S
H689 C670 0.913 . S
H690 C708 0.951 . S
H691 C710 0.951 . S
H692 C712 0.950 . S
H693 C713 0.950 . S
H694 C715 0.950 . S
H695 C718 0.950 . S
H696 C719 0.950 . S
H697 C721 0.950 . S
H698 C722 0.950 . S
H699 C723 0.951 . S
H700 C725 0.951 1_554 S
H701 C727 0.950 . S
H702 C728 0.950 . S
H703 C730 0.950 . S
H704 C733 0.950 . S
H705 C734 0.950 . S
H706 C736 0.926 1_554 S
H707 C737 0.950 1_554 S
C708 H690 0.951 . S
C708 C709 1.366 . S
C708 C710 1.388 . S
C709 C708 1.366 . S
C709 C713 1.385 . S
C710 H691 0.951 . S
C710 C708 1.388 . S
C710 C711 1.366 . S
C711 C710 1.366 . S
C711 C712 1.414 . S
C711 C714 1.499 . S
C712 H692 0.950 . S
C712 C711 1.414 . S
C712 C713 1.374 . S
C713 H693 0.950 . S
C713 C709 1.385 . S
C713 C712 1.374 . S
C714 C711 1.499 . S
C714 C715 1.373 . S
C714 C716 1.389 . S
C715 H694 0.950 . S
C715 C714 1.373 . S
C715 C731 1.377 . S
C716 C714 1.389 . S
C716 C717 1.524 . S
C716 C730 1.377 . S
C717 C716 1.524 . S
C717 C718 1.397 . S
C717 C722 1.363 . S
C718 H695 0.950 . S
C718 C717 1.397 . S
C718 C719 1.334 . S
C719 H696 0.950 . S
C719 C718 1.334 . S
C719 C720 1.287 . S
C720 C719 1.287 . S
C720 C721 1.524 . S
C720 H739 0.913 . S
C721 H697 0.950 . S
C721 C720 1.524 . S
C721 C722 1.415 . S
C722 H698 0.950 . S
C722 C717 1.363 . S
C722 C721 1.415 . S
C723 H699 0.951 . S
C723 C724 1.366 1_554 S
C723 C725 1.388 1_554 S
C724 C723 1.366 1_556 S
C724 C728 1.385 . S
C725 H700 0.951 1_556 S
C725 C723 1.388 1_556 S
C725 C726 1.366 . S
C726 C725 1.366 . S
C726 C727 1.414 . S
C726 C729 1.499 . S
C727 H701 0.950 . S
C727 C726 1.414 . S
C727 C728 1.374 . S
C728 H702 0.950 . S
C728 C724 1.385 . S
C728 C727 1.374 . S
C729 C726 1.499 . S
C729 C730 1.373 . S
C729 C731 1.389 . S
C730 H703 0.950 . S
C730 C716 1.377 . S
C730 C729 1.373 . S
C731 C715 1.377 . S
C731 C729 1.389 . S
C731 C732 1.524 . S
C732 C731 1.524 . S
C732 C733 1.397 . S
C732 C737 1.363 . S
C733 H704 0.950 . S
C733 C732 1.397 . S
C733 C734 1.334 . S
C734 H705 0.950 . S
C734 C733 1.334 . S
C734 C735 1.287 . S
C735 C734 1.287 . S
C735 C736 1.544 . S
C735 H738 0.999 . S
C736 H706 0.926 1_556 S
C736 C735 1.544 . S
C736 C737 1.422 . S
C737 H707 0.950 1_556 S
C737 C732 1.363 . S
C737 C736 1.422 . S
H738 C735 0.999 . S
H739 C720 0.913 . S
H740 C758 0.951 . S
H741 C760 0.951 . S
H742 C762 0.950 . S
H743 C763 0.950 . S
H744 C765 0.950 . S
H745 C768 0.950 . S
H746 C769 0.950 . S
H747 C771 0.950 . S
H748 C772 0.950 . S
H749 C773 0.951 . S
H750 C775 0.951 . S
H751 C777 0.950 . S
H752 C778 0.950 . S
H753 C780 0.950 . S
H754 C783 0.950 . S
H755 C784 0.950 . S
H756 C786 0.950 . S
H757 C787 0.950 . S
C758 H740 0.951 . S
C758 C759 1.366 . S
C758 C760 1.388 . S
C759 C758 1.366 . S
C759 C763 1.385 . S
C760 H741 0.951 . S
C760 C758 1.388 . S
C760 C761 1.366 . S
C761 C760 1.366 . S
C761 C762 1.414 . S
C761 C764 1.499 . S
C762 H742 0.950 . S
C762 C761 1.414 . S
C762 C763 1.374 . S
C763 H743 0.950 . S
C763 C759 1.385 . S
C763 C762 1.374 . S
C764 C761 1.499 . S
C764 C765 1.373 . S
C764 C766 1.389 . S
C765 H744 0.950 . S
C765 C764 1.373 . S
C765 C781 1.377 . S
C766 C764 1.389 . S
C766 C767 1.524 . S
C766 C780 1.377 . S
C767 C766 1.524 . S
C767 C768 1.397 . S
C767 C772 1.363 . S
C768 H745 0.950 . S
C768 C767 1.397 . S
C768 C769 1.334 . S
C769 H746 0.950 . S
C769 C768 1.334 . S
C769 C770 1.287 . S
C770 C769 1.287 . S
C770 C771 1.524 . S
C770 H789 0.913 . S
C771 H747 0.950 . S
C771 C770 1.524 . S
C771 C772 1.415 . S
C772 H748 0.950 . S
C772 C767 1.363 . S
C772 C771 1.415 . S
C773 H749 0.951 . S
C773 C774 1.366 . S
C773 C775 1.388 . S
C774 C773 1.366 . S
C774 C778 1.385 1_455 S
C775 H750 0.951 . S
C775 C773 1.388 . S
C775 C776 1.366 1_455 S
C776 C775 1.366 1_655 S
C776 C777 1.414 . S
C776 C779 1.499 . S
C777 H751 0.950 . S
C777 C776 1.414 . S
C777 C778 1.374 . S
C778 H752 0.950 . S
C778 C774 1.385 1_655 S
C778 C777 1.374 . S
C779 C776 1.499 . S
C779 C780 1.373 . S
C779 C781 1.389 . S
C780 H753 0.950 . S
C780 C766 1.377 . S
C780 C779 1.373 . S
C781 C765 1.377 . S
C781 C779 1.389 . S
C781 C782 1.524 1_655 S
C782 C781 1.524 1_455 S
C782 C783 1.397 . S
C782 C787 1.363 . S
C783 H754 0.950 . S
C783 C782 1.397 . S
C783 C784 1.334 . S
C784 H755 0.950 . S
C784 C783 1.334 . S
C784 C785 1.287 . S
C785 C784 1.287 . S
C785 C786 1.524 . S
C785 H788 0.999 . S
C786 H756 0.950 . S
C786 C785 1.524 . S
C786 C787 1.415 . S
C787 H757 0.950 . S
C787 C782 1.363 . S
C787 C786 1.415 . S
H788 C785 0.999 . S
H789 C770 0.913 . S
H790 C808 0.951 . S
H791 C810 0.951 . S
H792 C812 0.950 . S
H793 C813 0.950 . S
H794 C815 0.950 . S
H795 C818 0.950 . S
H796 C819 0.950 . S
H797 C821 0.950 . S
H798 C822 0.950 . S
H799 C823 0.951 . S
H800 C825 0.951 . S
H801 C827 0.950 . S
H802 C828 0.950 . S
H803 C830 0.950 . S
H804 C833 0.950 . S
H805 C834 0.950 . S
H806 C836 0.950 . S
H807 C837 0.950 . S
C808 H790 0.951 . S
C808 C809 1.366 . S
C808 C810 1.388 . S
C809 C808 1.366 . S
C809 C813 1.385 . S
C810 H791 0.951 . S
C810 C808 1.388 . S
C810 C811 1.366 . S
C811 C810 1.366 . S
C811 C812 1.414 . S
C811 C814 1.499 . S
C812 H792 0.950 . S
C812 C811 1.414 . S
C812 C813 1.374 . S
C813 H793 0.950 . S
C813 C809 1.385 . S
C813 C812 1.374 . S
C814 C811 1.499 . S
C814 C815 1.373 . S
C814 C816 1.389 . S
C815 H794 0.950 . S
C815 C814 1.373 . S
C815 C831 1.377 . S
C816 C814 1.389 . S
C816 C817 1.524 . S
C816 C830 1.377 . S
C817 C816 1.524 . S
C817 C818 1.397 . S
C817 C822 1.363 . S
C818 H795 0.950 . S
C818 C817 1.397 . S
C818 C819 1.334 . S
C819 H796 0.950 . S
C819 C818 1.334 . S
C819 C820 1.287 . S
C820 C819 1.287 . S
C820 C821 1.524 . S
C820 H839 0.913 . S
C821 H797 0.950 . S
C821 C820 1.524 . S
C821 C822 1.415 . S
C822 H798 0.950 . S
C822 C817 1.363 . S
C822 C821 1.415 . S
C823 H799 0.951 . S
C823 C824 1.366 . S
C823 C825 1.388 . S
C824 C823 1.366 . S
C824 C828 1.385 . S
C825 H800 0.951 . S
C825 C823 1.388 . S
C825 C826 1.366 . S
C826 C825 1.366 . S
C826 C827 1.414 . S
C826 C829 1.499 . S
C827 H801 0.950 . S
C827 C826 1.414 . S
C827 C828 1.374 . S
C828 H802 0.950 . S
C828 C824 1.385 . S
C828 C827 1.374 . S
C829 C826 1.499 . S
C829 C830 1.373 . S
C829 C831 1.389 . S
C830 H803 0.950 . S
C830 C816 1.377 . S
C830 C829 1.373 . S
C831 C815 1.377 . S
C831 C829 1.389 . S
C831 C832 1.524 . S
C832 C831 1.524 . S
C832 C833 1.397 . S
C832 C837 1.363 . S
C833 H804 0.950 . S
C833 C832 1.397 . S
C833 C834 1.334 . S
C834 H805 0.950 . S
C834 C833 1.334 . S
C834 C835 1.287 . S
C835 C834 1.287 . S
C835 C836 1.524 . S
C835 H838 0.999 . S
C836 H806 0.950 . S
C836 C835 1.524 . S
C836 C837 1.415 . S
C837 H807 0.950 . S
C837 C832 1.363 . S
C837 C836 1.415 . S
H838 C835 0.999 . S
H839 C820 0.913 . S
H840 C858 0.951 . S
H841 C860 0.962 . S
H842 C862 0.950 . S
H843 C863 0.950 . S
H844 C865 0.950 . S
H845 C868 0.950 . S
H846 C869 0.950 . S
H847 C871 0.950 . S
H848 C872 0.950 . S
H849 C873 0.951 . S
H850 C875 0.951 . S
H851 C877 0.950 . S
H852 C878 0.950 . S
H853 C880 0.950 1_455 S
H854 C883 0.958 . S
H855 C884 0.930 1_455 S
H856 C886 0.950 . S
H857 C887 0.950 . S
C858 H840 0.951 . S
C858 C859 1.366 . S
C858 C860 1.388 . S
C859 C858 1.366 . S
C859 C863 1.385 . S
C860 H841 0.962 . S
C860 C858 1.388 . S
C860 C861 1.366 . S
C861 C860 1.366 . S
C861 C862 1.414 . S
C861 C864 1.499 . S
C862 H842 0.950 . S
C862 C861 1.414 . S
C862 C863 1.374 . S
C863 H843 0.950 . S
C863 C859 1.385 . S
C863 C862 1.374 . S
C864 C861 1.499 . S
C864 C865 1.373 . S
C864 C866 1.389 1_565 S
C865 H844 0.950 . S
C865 C864 1.373 . S
C865 C881 1.377 . S
C866 C864 1.389 1_545 S
C866 C867 1.524 . S
C866 C880 1.377 . S
C867 C866 1.524 . S
C867 C868 1.397 . S
C867 C872 1.363 1_655 S
C868 H845 0.950 . S
C868 C867 1.397 . S
C868 C869 1.334 . S
C869 H846 0.950 . S
C869 C868 1.334 . S
C869 C870 1.287 . S
C870 C869 1.287 . S
C870 C871 1.524 1_655 S
C870 H889 0.913 . S
C871 H847 0.950 . S
C871 C870 1.524 1_455 S
C871 C872 1.415 . S
C872 H848 0.950 . S
C872 C867 1.363 1_455 S
C872 C871 1.415 . S
C873 H849 0.951 . S
C873 C874 1.366 1_655 S
C873 C875 1.388 1_545 S
C874 C873 1.366 1_455 S
C874 C878 1.385 . S
C875 H850 0.951 . S
C875 C873 1.388 1_565 S
C875 C876 1.364 1_665 S
C876 C875 1.364 1_445 S
C876 C877 1.420 . S
C876 C879 1.495 1_445 S
C877 H851 0.950 . S
C877 C876 1.420 . S
C877 C878 1.374 . S
C878 H852 0.950 . S
C878 C874 1.385 . S
C878 C877 1.374 . S
C879 C876 1.495 1_665 S
C879 C880 1.373 1_565 S
C879 C881 1.389 . S
C880 H853 0.950 1_655 S
C880 C866 1.377 . S
C880 C879 1.373 1_545 S
C881 C865 1.377 . S
C881 C879 1.389 . S
C881 C882 1.524 . S
C882 C881 1.524 . S
C882 C883 1.388 1_655 S
C882 C887 1.363 . S
C883 H854 0.958 . S
C883 C882 1.388 1_455 S
C883 C884 1.335 1_455 S
C884 H855 0.930 1_655 S
C884 C883 1.335 1_655 S
C884 C885 1.307 . S
C885 C884 1.307 . S
C885 C886 1.524 . S
C885 H888 0.999 . S
C886 H856 0.950 . S
C886 C885 1.524 . S
C886 C887 1.415 . S
C887 H857 0.950 . S
C887 C882 1.363 . S
C887 C886 1.415 . S
H888 C885 0.999 . S
H889 C870 0.913 . S
H890 C908 0.951 . S
H891 C910 0.951 . S
H892 C912 0.950 . S
H893 C913 0.950 . S
H894 C915 0.950 . S
H895 C918 0.950 . S
H896 C919 0.950 . S
H897 C921 0.950 . S
H898 C922 0.950 . S
H899 C923 0.951 . S
H900 C925 0.951 . S
H901 C927 0.950 . S
H902 C928 0.950 . S
H903 C930 0.950 . S
H904 C933 0.950 . S
H905 C934 0.950 . S
H906 C936 0.950 . S
H907 C937 0.950 . S
C908 H890 0.951 . S
C908 C909 1.366 . S
C908 C910 1.388 . S
C909 C908 1.366 . S
C909 C913 1.385 . S
C910 H891 0.951 . S
C910 C908 1.388 . S
C910 C911 1.366 . S
C911 C910 1.366 . S
C911 C912 1.414 . S
C911 C914 1.499 . S
C912 H892 0.950 . S
C912 C911 1.414 . S
C912 C913 1.374 . S
C913 H893 0.950 . S
C913 C909 1.385 . S
C913 C912 1.374 . S
C914 C911 1.499 . S
C914 C915 1.373 . S
C914 C916 1.389 . S
C915 H894 0.950 . S
C915 C914 1.373 . S
C915 C931 1.377 . S
C916 C914 1.389 . S
C916 C917 1.524 . S
C916 C930 1.377 . S
C917 C916 1.524 . S
C917 C918 1.397 . S
C917 C922 1.363 . S
C918 H895 0.950 . S
C918 C917 1.397 . S
C918 C919 1.334 . S
C919 H896 0.950 . S
C919 C918 1.334 . S
C919 C920 1.287 . S
C920 C919 1.287 . S
C920 C921 1.524 . S
C920 H939 0.913 . S
C921 H897 0.950 . S
C921 C920 1.524 . S
C921 C922 1.415 . S
C922 H898 0.950 . S
C922 C917 1.363 . S
C922 C921 1.415 . S
C923 H899 0.951 . S
C923 C924 1.366 . S
C923 C925 1.388 . S
C924 C923 1.366 . S
C924 C928 1.385 . S
C925 H900 0.951 . S
C925 C923 1.388 . S
C925 C926 1.366 . S
C926 C925 1.366 . S
C926 C927 1.414 . S
C926 C929 1.499 . S
C927 H901 0.950 . S
C927 C926 1.414 . S
C927 C928 1.374 . S
C928 H902 0.950 . S
C928 C924 1.385 . S
C928 C927 1.374 . S
C929 C926 1.499 . S
C929 C930 1.373 . S
C929 C931 1.389 . S
C930 H903 0.950 . S
C930 C916 1.377 . S
C930 C929 1.373 . S
C931 C915 1.377 . S
C931 C929 1.389 . S
C931 C932 1.524 . S
C932 C931 1.524 . S
C932 C933 1.397 . S
C932 C937 1.363 . S
C933 H904 0.950 . S
C933 C932 1.397 . S
C933 C934 1.334 . S
C934 H905 0.950 . S
C934 C933 1.334 . S
C934 C935 1.287 . S
C935 C934 1.287 . S
C935 C936 1.524 . S
C935 H938 0.999 . S
C936 H906 0.950 . S
C936 C935 1.524 . S
C936 C937 1.415 . S
C937 H907 0.950 . S
C937 C932 1.363 . S
C937 C936 1.415 . S
H938 C935 0.999 . S
H939 C920 0.913 . S
H940 C958 0.951 . S
H941 C960 0.951 . S
H942 C962 0.950 . S
H943 C963 0.950 . S
H944 C965 0.950 . S
H945 C968 0.950 . S
H946 C969 0.950 . S
H947 C971 0.950 . S
H948 C972 0.950 . S
H949 C973 0.951 . S
H950 C975 0.951 . S
H951 C977 0.950 . S
H952 C978 0.950 . S
H953 C980 0.950 . S
H954 C983 0.950 . S
H955 C984 0.950 . S
H956 C986 0.950 . S
H957 C987 0.950 . S
C958 H940 0.951 . S
C958 C959 1.366 . S
C958 C960 1.388 . S
C959 C958 1.366 . S
C959 C963 1.385 . S
C960 H941 0.951 . S
C960 C958 1.388 . S
C960 C961 1.366 . S
C961 C960 1.366 . S
C961 C962 1.414 . S
C961 C964 1.499 . S
C962 H942 0.950 . S
C962 C961 1.414 . S
C962 C963 1.374 . S
C963 H943 0.950 . S
C963 C959 1.385 . S
C963 C962 1.374 . S
C964 C961 1.499 . S
C964 C965 1.373 . S
C964 C966 1.389 . S
C965 H944 0.950 . S
C965 C964 1.373 . S
C965 C981 1.377 . S
C966 C964 1.389 . S
C966 C967 1.524 . S
C966 C980 1.377 . S
C967 C966 1.524 . S
C967 C968 1.397 . S
C967 C972 1.363 . S
C968 H945 0.950 . S
C968 C967 1.397 . S
C968 C969 1.334 . S
C969 H946 0.950 . S
C969 C968 1.334 . S
C969 C970 1.287 . S
C970 C969 1.287 . S
C970 C971 1.524 . S
C970 H989 0.913 . S
C971 H947 0.950 . S
C971 C970 1.524 . S
C971 C972 1.415 . S
C972 H948 0.950 . S
C972 C967 1.363 . S
C972 C971 1.415 . S
C973 H949 0.951 . S
C973 C974 1.366 . S
C973 C975 1.388 . S
C974 C973 1.366 . S
C974 C978 1.385 . S
C975 H950 0.951 . S
C975 C973 1.388 . S
C975 C976 1.366 . S
C976 C975 1.366 . S
C976 C977 1.414 . S
C976 C979 1.499 . S
C977 H951 0.950 . S
C977 C976 1.414 . S
C977 C978 1.374 . S
C978 H952 0.950 . S
C978 C974 1.385 . S
C978 C977 1.374 . S
C979 C976 1.499 . S
C979 C980 1.373 . S
C979 C981 1.389 . S
C980 H953 0.950 . S
C980 C966 1.377 . S
C980 C979 1.373 . S
C981 C965 1.377 . S
C981 C979 1.389 . S
C981 C982 1.524 . S
C982 C981 1.524 . S
C982 C983 1.397 . S
C982 C987 1.363 . S
C983 H954 0.950 . S
C983 C982 1.397 . S
C983 C984 1.334 . S
C984 H955 0.950 . S
C984 C983 1.334 . S
C984 C985 1.287 . S
C985 C984 1.287 . S
C985 C986 1.524 . S
C985 H988 0.999 . S
C986 H956 0.950 . S
C986 C985 1.524 . S
C986 C987 1.415 . S
C987 H957 0.950 . S
C987 C982 1.363 . S
C987 C986 1.415 . S
H988 C985 0.999 . S
H989 C970 0.913 . S
H990 C1008 0.951 . S
H991 C1010 0.951 . S
H992 C1012 0.950 . S
H993 C1013 0.950 . S
H994 C1015 0.950 . S
H995 C1018 0.950 . S
H996 C1019 0.950 . S
H997 C1021 0.950 . S
H998 C1022 0.950 . S
H999 C1023 0.951 . S
H1000 C1025 0.951 . S
H1001 C1027 0.950 . S
H1002 C1028 0.950 . S
H1003 C1030 0.950 . S
H1004 C1033 0.950 . S
H1005 C1034 0.950 . S
H1006 C1036 0.950 . S
H1007 C1037 0.950 . S
C1008 H990 0.951 . S
C1008 C1009 1.366 . S
C1008 C1010 1.388 . S
C1009 C1008 1.366 . S
C1009 C1013 1.385 . S
C1010 H991 0.951 . S
C1010 C1008 1.388 . S
C1010 C1011 1.366 . S
C1011 C1010 1.366 . S
C1011 C1012 1.414 . S
C1011 C1014 1.499 . S
C1012 H992 0.950 . S
C1012 C1011 1.414 . S
C1012 C1013 1.374 . S
C1013 H993 0.950 . S
C1013 C1009 1.385 . S
C1013 C1012 1.374 . S
C1014 C1011 1.499 . S
C1014 C1015 1.373 . S
C1014 C1016 1.389 . S
C1015 H994 0.950 . S
C1015 C1014 1.373 . S
C1015 C1031 1.377 . S
C1016 C1014 1.389 . S
C1016 C1017 1.524 . S
C1016 C1030 1.377 . S
C1017 C1016 1.524 . S
C1017 C1018 1.397 . S
C1017 C1022 1.363 . S
C1018 H995 0.950 . S
C1018 C1017 1.397 . S
C1018 C1019 1.334 . S
C1019 H996 0.950 . S
C1019 C1018 1.334 . S
C1019 C1020 1.287 . S
C1020 C1019 1.287 . S
C1020 C1021 1.524 . S
C1020 H1039 0.913 . S
C1021 H997 0.950 . S
C1021 C1020 1.524 . S
C1021 C1022 1.415 . S
C1022 H998 0.950 . S
C1022 C1017 1.363 . S
C1022 C1021 1.415 . S
C1023 H999 0.951 . S
C1023 C1024 1.366 . S
C1023 C1025 1.388 . S
C1024 C1023 1.366 . S
C1024 C1028 1.385 . S
C1025 H1000 0.951 . S
C1025 C1023 1.388 . S
C1025 C1026 1.366 . S
C1026 C1025 1.366 . S
C1026 C1027 1.414 . S
C1026 C1029 1.499 . S
C1027 H1001 0.950 . S
C1027 C1026 1.414 . S
C1027 C1028 1.374 . S
C1028 H1002 0.950 . S
C1028 C1024 1.385 . S
C1028 C1027 1.374 . S
C1029 C1026 1.499 . S
C1029 C1030 1.373 . S
C1029 C1031 1.389 . S
C1030 H1003 0.950 . S
C1030 C1016 1.377 . S
C1030 C1029 1.373 . S
C1031 C1015 1.377 . S
C1031 C1029 1.389 . S
C1031 C1032 1.524 . S
C1032 C1031 1.524 . S
C1032 C1033 1.397 . S
C1032 C1037 1.363 . S
C1033 H1004 0.950 . S
C1033 C1032 1.397 . S
C1033 C1034 1.334 . S
C1034 H1005 0.950 . S
C1034 C1033 1.334 . S
C1034 C1035 1.287 . S
C1035 C1034 1.287 . S
C1035 C1036 1.524 . S
C1035 H1038 0.999 . S
C1036 H1006 0.950 . S
C1036 C1035 1.524 . S
C1036 C1037 1.415 . S
C1037 H1007 0.950 . S
C1037 C1032 1.363 . S
C1037 C1036 1.415 . S
H1038 C1035 0.999 . S
H1039 C1020 0.913 . S
H1040 C1058 0.951 . S
H1041 C1060 0.951 1_545 S
H1042 C1062 0.950 . S
H1043 C1063 0.950 . S
H1044 C1065 0.950 . S
H1045 C1068 0.950 . S
H1046 C1069 0.950 . S
H1047 C1071 0.950 . S
H1048 C1072 0.950 . S
H1049 C1073 0.956 . S
H1050 C1075 0.928 1_565 S
H1051 C1077 0.950 . S
H1052 C1078 0.950 . S
H1053 C1080 0.950 . S
H1054 C1083 0.950 . S
H1055 C1084 0.950 . S
H1056 C1086 0.936 1_554 S
H1057 C1087 0.950 1_554 S
C1058 H1040 0.951 . S
C1058 C1059 1.366 . S
C1058 C1060 1.388 . S
C1059 C1058 1.366 . S
C1059 C1063 1.385 . S
C1060 H1041 0.951 1_565 S
C1060 C1058 1.388 . S
C1060 C1061 1.366 . S
C1061 C1060 1.366 . S
C1061 C1062 1.414 . S
C1061 C1064 1.499 . S
C1062 H1042 0.950 . S
C1062 C1061 1.414 . S
C1062 C1063 1.374 . S
C1063 H1043 0.950 . S
C1063 C1059 1.385 . S
C1063 C1062 1.374 . S
C1064 C1061 1.499 . S
C1064 C1065 1.373 . S
C1064 C1066 1.389 1_565 S
C1065 H1044 0.950 . S
C1065 C1064 1.373 . S
C1065 C1081 1.377 . S
C1066 C1064 1.389 1_545 S
C1066 C1067 1.524 . S
C1066 C1080 1.377 . S
C1067 C1066 1.524 . S
C1067 C1068 1.397 . S
C1067 C1072 1.363 . S
C1068 H1045 0.950 . S
C1068 C1067 1.397 . S
C1068 C1069 1.334 . S
C1069 H1046 0.950 . S
C1069 C1068 1.334 . S
C1069 C1070 1.287 . S
C1070 C1069 1.287 . S
C1070 C1071 1.524 . S
C1070 H1089 0.913 . S
C1071 H1047 0.950 . S
C1071 C1070 1.524 . S
C1071 C1072 1.415 . S
C1072 H1048 0.950 . S
C1072 C1067 1.363 . S
C1072 C1071 1.415 . S
C1073 H1049 0.956 . S
C1073 C1074 1.366 . S
C1073 C1075 1.398 . S
C1074 C1073 1.366 . S
C1074 C1078 1.385 1_554 S
C1075 H1050 0.928 1_545 S
C1075 C1073 1.398 . S
C1075 C1076 1.379 1_554 S
C1076 C1075 1.379 1_556 S
C1076 C1077 1.414 . S
C1076 C1079 1.499 . S
C1077 H1051 0.950 . S
C1077 C1076 1.414 . S
C1077 C1078 1.374 . S
C1078 H1052 0.950 . S
C1078 C1074 1.385 1_556 S
C1078 C1077 1.374 . S
C1079 C1076 1.499 . S
C1079 C1080 1.373 . S
C1079 C1081 1.389 1_545 S
C1080 H1053 0.950 . S
C1080 C1066 1.377 . S
C1080 C1079 1.373 . S
C1081 C1065 1.377 . S
C1081 C1079 1.389 1_565 S
C1081 C1082 1.524 . S
C1082 C1081 1.524 . S
C1082 C1083 1.397 . S
C1082 C1087 1.363 . S
C1083 H1054 0.950 . S
C1083 C1082 1.397 . S
C1083 C1084 1.334 . S
C1084 H1055 0.950 . S
C1084 C1083 1.334 . S
C1084 C1085 1.287 . S
C1085 C1084 1.287 . S
C1085 C1086 1.536 . S
C1085 H1088 0.999 . S
C1086 H1056 0.936 1_556 S
C1086 C1085 1.536 . S
C1086 C1087 1.419 . S
C1087 H1057 0.950 1_556 S
C1087 C1082 1.363 . S
C1087 C1086 1.419 . S
H1088 C1085 0.999 . S
H1089 C1070 0.913 . S
H1090 C1108 0.951 . S
H1091 C1110 0.951 . S
H1092 C1112 0.950 . S
H1093 C1113 0.950 . S
H1094 C1115 0.950 . S
H1095 C1118 0.950 . S
H1096 C1119 0.950 . S
H1097 C1121 0.950 . S
H1098 C1122 0.950 . S
H1099 C1123 0.951 . S
H1100 C1125 0.951 . S
H1101 C1127 0.950 . S
H1102 C1128 0.950 . S
H1103 C1130 0.950 . S
H1104 C1133 0.950 . S
H1105 C1134 0.950 . S
H1106 C1136 0.950 . S
H1107 C1137 0.950 . S
C1108 H1090 0.951 . S
C1108 C1109 1.366 . S
C1108 C1110 1.388 . S
C1109 C1108 1.366 . S
C1109 C1113 1.385 . S
C1110 H1091 0.951 . S
C1110 C1108 1.388 . S
C1110 C1111 1.366 . S
C1111 C1110 1.366 . S
C1111 C1112 1.414 . S
C1111 C1114 1.499 . S
C1112 H1092 0.950 . S
C1112 C1111 1.414 . S
C1112 C1113 1.374 . S
C1113 H1093 0.950 . S
C1113 C1109 1.385 . S
C1113 C1112 1.374 . S
C1114 C1111 1.499 . S
C1114 C1115 1.373 . S
C1114 C1116 1.389 . S
C1115 H1094 0.950 . S
C1115 C1114 1.373 . S
C1115 C1131 1.377 . S
C1116 C1114 1.389 . S
C1116 C1117 1.524 . S
C1116 C1130 1.377 . S
C1117 C1116 1.524 . S
C1117 C1118 1.397 . S
C1117 C1122 1.363 . S
C1118 H1095 0.950 . S
C1118 C1117 1.397 . S
C1118 C1119 1.334 . S
C1119 H1096 0.950 . S
C1119 C1118 1.334 . S
C1119 C1120 1.287 . S
C1120 C1119 1.287 . S
C1120 C1121 1.524 . S
C1120 H1139 0.913 . S
C1121 H1097 0.950 . S
C1121 C1120 1.524 . S
C1121 C1122 1.415 . S
C1122 H1098 0.950 . S
C1122 C1117 1.363 . S
C1122 C1121 1.415 . S
C1123 H1099 0.951 . S
C1123 C1124 1.366 . S
C1123 C1125 1.388 . S
C1124 C1123 1.366 . S
C1124 C1128 1.385 . S
C1125 H1100 0.951 . S
C1125 C1123 1.388 . S
C1125 C1126 1.366 . S
C1126 C1125 1.366 . S
C1126 C1127 1.414 . S
C1126 C1129 1.499 . S
C1127 H1101 0.950 . S
C1127 C1126 1.414 . S
C1127 C1128 1.374 . S
C1128 H1102 0.950 . S
C1128 C1124 1.385 . S
C1128 C1127 1.374 . S
C1129 C1126 1.499 . S
C1129 C1130 1.373 . S
C1129 C1131 1.389 . S
C1130 H1103 0.950 . S
C1130 C1116 1.377 . S
C1130 C1129 1.373 . S
C1131 C1115 1.377 . S
C1131 C1129 1.389 . S
C1131 C1132 1.524 . S
C1132 C1131 1.524 . S
C1132 C1133 1.397 . S
C1132 C1137 1.363 . S
C1133 H1104 0.950 . S
C1133 C1132 1.397 . S
C1133 C1134 1.334 . S
C1134 H1105 0.950 . S
C1134 C1133 1.334 . S
C1134 C1135 1.287 . S
C1135 C1134 1.287 . S
C1135 C1136 1.524 . S
C1135 H1138 0.999 . S
C1136 H1106 0.950 . S
C1136 C1135 1.524 . S
C1136 C1137 1.415 . S
C1137 H1107 0.950 . S
C1137 C1132 1.363 . S
C1137 C1136 1.415 . S
H1138 C1135 0.999 . S
H1139 C1120 0.913 . S
H1140 C1158 0.951 . S
H1141 C1160 0.951 . S
H1142 C1162 0.950 . S
H1143 C1163 0.950 . S
H1144 C1165 0.950 . S
H1145 C1168 0.950 . S
H1146 C1169 0.950 . S
H1147 C1171 0.950 . S
H1148 C1172 0.950 . S
H1149 C1173 0.951 1_556 S
H1150 C1175 0.951 1_556 S
H1151 C1177 0.950 . S
H1152 C1178 0.950 . S
H1153 C1180 0.950 . S
H1154 C1183 0.950 . S
H1155 C1184 0.950 . S
H1156 C1186 0.950 . S
H1157 C1187 0.950 . S
C1158 H1140 0.951 . S
C1158 C1159 1.366 . S
C1158 C1160 1.388 . S
C1159 C1158 1.366 . S
C1159 C1163 1.385 . S
C1160 H1141 0.951 . S
C1160 C1158 1.388 . S
C1160 C1161 1.366 . S
C1161 C1160 1.366 . S
C1161 C1162 1.414 . S
C1161 C1164 1.499 . S
C1162 H1142 0.950 . S
C1162 C1161 1.414 . S
C1162 C1163 1.374 . S
C1163 H1143 0.950 . S
C1163 C1159 1.385 . S
C1163 C1162 1.374 . S
C1164 C1161 1.499 . S
C1164 C1165 1.373 . S
C1164 C1166 1.389 . S
C1165 H1144 0.950 . S
C1165 C1164 1.373 . S
C1165 C1181 1.377 . S
C1166 C1164 1.389 . S
C1166 C1167 1.524 . S
C1166 C1180 1.377 . S
C1167 C1166 1.524 . S
C1167 C1168 1.397 . S
C1167 C1172 1.363 . S
C1168 H1145 0.950 . S
C1168 C1167 1.397 . S
C1168 C1169 1.334 . S
C1169 H1146 0.950 . S
C1169 C1168 1.334 . S
C1169 C1170 1.287 . S
C1170 C1169 1.287 . S
C1170 C1171 1.524 . S
C1170 H1189 0.913 . S
C1171 H1147 0.950 . S
C1171 C1170 1.524 . S
C1171 C1172 1.415 . S
C1172 H1148 0.950 . S
C1172 C1167 1.363 . S
C1172 C1171 1.415 . S
C1173 H1149 0.951 1_554 S
C1173 C1174 1.366 . S
C1173 C1175 1.388 . S
C1174 C1173 1.366 . S
C1174 C1178 1.385 . S
C1175 H1150 0.951 1_554 S
C1175 C1173 1.388 . S
C1175 C1176 1.366 . S
C1176 C1175 1.366 . S
C1176 C1177 1.414 . S
C1176 C1179 1.499 . S
C1177 H1151 0.950 . S
C1177 C1176 1.414 . S
C1177 C1178 1.374 . S
C1178 H1152 0.950 . S
C1178 C1174 1.385 . S
C1178 C1177 1.374 . S
C1179 C1176 1.499 . S
C1179 C1180 1.373 . S
C1179 C1181 1.389 . S
C1180 H1153 0.950 . S
C1180 C1166 1.377 . S
C1180 C1179 1.373 . S
C1181 C1165 1.377 . S
C1181 C1179 1.389 . S
C1181 C1182 1.524 . S
C1182 C1181 1.524 . S
C1182 C1183 1.397 . S
C1182 C1187 1.363 1_554 S
C1183 H1154 0.950 . S
C1183 C1182 1.397 . S
C1183 C1184 1.334 . S
C1184 H1155 0.950 . S
C1184 C1183 1.334 . S
C1184 C1185 1.287 1_554 S
C1185 C1184 1.287 1_556 S
C1185 C1186 1.524 . S
C1185 H1188 0.999 . S
C1186 H1156 0.950 . S
C1186 C1185 1.524 . S
C1186 C1187 1.415 . S
C1187 H1157 0.950 . S
C1187 C1182 1.363 1_556 S
C1187 C1186 1.415 . S
H1188 C1185 0.999 . S
H1189 C1170 0.913 . S
H1190 C1208 0.951 . S
H1191 C1210 0.951 . S
H1192 C1212 0.950 . S
H1193 C1213 0.950 . S
H1194 C1215 0.950 . S
H1195 C1218 0.950 . S
H1196 C1219 0.950 . S
H1197 C1221 0.950 . S
H1198 C1222 0.950 . S
H1199 C1223 0.951 . S
H1200 C1225 0.951 . S
H1201 C1227 0.950 . S
H1202 C1228 0.950 . S
H1203 C1230 0.950 . S
H1204 C1233 0.950 . S
H1205 C1234 0.950 . S
H1206 C1236 0.950 . S
H1207 C1237 0.950 . S
C1208 H1190 0.951 . S
C1208 C1209 1.366 . S
C1208 C1210 1.388 . S
C1209 C1208 1.366 . S
C1209 C1213 1.385 . S
C1210 H1191 0.951 . S
C1210 C1208 1.388 . S
C1210 C1211 1.366 . S
C1211 C1210 1.366 . S
C1211 C1212 1.414 . S
C1211 C1214 1.499 . S
C1212 H1192 0.950 . S
C1212 C1211 1.414 . S
C1212 C1213 1.374 . S
C1213 H1193 0.950 . S
C1213 C1209 1.385 . S
C1213 C1212 1.374 . S
C1214 C1211 1.499 . S
C1214 C1215 1.373 . S
C1214 C1216 1.389 . S
C1215 H1194 0.950 . S
C1215 C1214 1.373 . S
C1215 C1231 1.377 . S
C1216 C1214 1.389 . S
C1216 C1217 1.524 . S
C1216 C1230 1.377 . S
C1217 C1216 1.524 . S
C1217 C1218 1.397 . S
C1217 C1222 1.363 . S
C1218 H1195 0.950 . S
C1218 C1217 1.397 . S
C1218 C1219 1.334 . S
C1219 H1196 0.950 . S
C1219 C1218 1.334 . S
C1219 C1220 1.287 . S
C1220 C1219 1.287 . S
C1220 C1221 1.524 . S
C1220 H1239 0.913 . S
C1221 H1197 0.950 . S
C1221 C1220 1.524 . S
C1221 C1222 1.415 . S
C1222 H1198 0.950 . S
C1222 C1217 1.363 . S
C1222 C1221 1.415 . S
C1223 H1199 0.951 . S
C1223 C1224 1.366 . S
C1223 C1225 1.388 . S
C1224 C1223 1.366 . S
C1224 C1228 1.385 . S
C1225 H1200 0.951 . S
C1225 C1223 1.388 . S
C1225 C1226 1.366 . S
C1226 C1225 1.366 . S
C1226 C1227 1.414 . S
C1226 C1229 1.499 . S
C1227 H1201 0.950 . S
C1227 C1226 1.414 . S
C1227 C1228 1.374 . S
C1228 H1202 0.950 . S
C1228 C1224 1.385 . S
C1228 C1227 1.374 . S
C1229 C1226 1.499 . S
C1229 C1230 1.373 . S
C1229 C1231 1.389 . S
C1230 H1203 0.950 . S
C1230 C1216 1.377 . S
C1230 C1229 1.373 . S
C1231 C1215 1.377 . S
C1231 C1229 1.389 . S
C1231 C1232 1.524 . S
C1232 C1231 1.524 . S
C1232 C1233 1.397 . S
C1232 C1237 1.363 . S
C1233 H1204 0.950 . S
C1233 C1232 1.397 . S
C1233 C1234 1.334 . S
C1234 H1205 0.950 . S
C1234 C1233 1.334 . S
C1234 C1235 1.287 . S
C1235 C1234 1.287 . S
C1235 C1236 1.524 . S
C1235 H1238 0.999 . S
C1236 H1206 0.950 . S
C1236 C1235 1.524 . S
C1236 C1237 1.415 . S
C1237 H1207 0.950 . S
C1237 C1232 1.363 . S
C1237 C1236 1.415 . S
H1238 C1235 0.999 . S
H1239 C1220 0.913 . S
H1240 C1258 0.951 . S
H1241 C1260 0.951 . S
H1242 C1262 0.950 . S
H1243 C1263 0.950 . S
H1244 C1265 0.950 . S
H1245 C1268 0.950 . S
H1246 C1269 0.950 . S
H1247 C1271 0.944 1_554 S
H1248 C1272 0.950 . S
H1249 C1273 0.951 . S
H1250 C1275 0.967 . S
H1251 C1277 0.950 . S
H1252 C1278 0.950 . S
H1253 C1280 0.950 . S
H1254 C1283 0.950 . S
H1255 C1284 0.950 1_655 S
H1256 C1286 0.950 . S
H1257 C1287 0.950 . S
C1258 H1240 0.951 . S
C1258 C1259 1.366 . S
C1258 C1260 1.388 . S
C1259 C1258 1.366 . S
C1259 C1263 1.385 . S
C1260 H1241 0.951 . S
C1260 C1258 1.388 . S
C1260 C1261 1.366 . S
C1261 C1260 1.366 . S
C1261 C1262 1.414 . S
C1261 C1264 1.499 . S
C1262 H1242 0.950 . S
C1262 C1261 1.414 . S
C1262 C1263 1.374 . S
C1263 H1243 0.950 . S
C1263 C1259 1.385 . S
C1263 C1262 1.374 . S
C1264 C1261 1.499 . S
C1264 C1265 1.373 . S
C1264 C1266 1.389 . S
C1265 H1244 0.950 . S
C1265 C1264 1.373 . S
C1265 C1281 1.377 . S
C1266 C1264 1.389 . S
C1266 C1267 1.524 . S
C1266 C1280 1.377 . S
C1267 C1266 1.524 . S
C1267 C1268 1.397 . S
C1267 C1272 1.363 . S
C1268 H1245 0.950 . S
C1268 C1267 1.397 . S
C1268 C1269 1.334 1_556 S
C1269 H1246 0.950 . S
C1269 C1268 1.334 1_554 S
C1269 C1270 1.287 . S
C1270 C1269 1.287 . S
C1270 C1271 1.517 1_554 S
C1270 H1289 0.913 . S
C1271 H1247 0.944 1_556 S
C1271 C1270 1.517 1_556 S
C1271 C1272 1.429 . S
C1272 H1248 0.950 . S
C1272 C1267 1.363 . S
C1272 C1271 1.429 . S
C1273 H1249 0.951 . S
C1273 C1274 1.366 1_455 S
C1273 C1275 1.393 . S
C1274 C1273 1.366 1_655 S
C1274 C1278 1.385 . S
C1275 H1250 0.967 . S
C1275 C1273 1.393 . S
C1275 C1276 1.345 1_455 S
C1276 C1275 1.345 1_655 S
C1276 C1277 1.414 . S
C1276 C1279 1.499 . S
C1277 H1251 0.950 . S
C1277 C1276 1.414 . S
C1277 C1278 1.374 . S
C1278 H1252 0.950 . S
C1278 C1274 1.385 . S
C1278 C1277 1.374 . S
C1279 C1276 1.499 . S
C1279 C1280 1.373 . S
C1279 C1281 1.389 . S
C1280 H1253 0.950 . S
C1280 C1266 1.377 . S
C1280 C1279 1.373 . S
C1281 C1265 1.377 . S
C1281 C1279 1.389 . S
C1281 C1282 1.550 . S
C1282 C1281 1.550 . S
C1282 C1283 1.410 . S
C1282 C1287 1.328 1_655 S
C1283 H1254 0.950 . S
C1283 C1282 1.410 . S
C1283 C1284 1.334 1_655 S
C1284 H1255 0.950 1_455 S
C1284 C1283 1.334 1_455 S
C1284 C1285 1.287 . S
C1285 C1284 1.287 . S
C1285 C1286 1.524 . S
C1285 H1288 0.999 . S
C1286 H1256 0.950 . S
C1286 C1285 1.524 . S
C1286 C1287 1.415 . S
C1287 H1257 0.950 . S
C1287 C1282 1.328 1_455 S
C1287 C1286 1.415 . S
H1288 C1285 0.999 . S
H1289 C1270 0.913 . S
H1290 C1308 0.951 . S
H1291 C1310 0.951 . S
H1292 C1312 0.950 . S
H1293 C1313 0.950 . S
H1294 C1315 0.950 . S
H1295 C1318 0.950 . S
H1296 C1319 0.950 . S
H1297 C1321 0.950 . S
H1298 C1322 0.950 . S
H1299 C1323 0.951 . S
H1300 C1325 0.951 . S
H1301 C1327 0.950 . S
H1302 C1328 0.950 . S
H1303 C1330 0.950 . S
H1304 C1333 0.950 . S
H1305 C1334 0.950 1_556 S
H1306 C1336 0.950 . S
H1307 C1337 0.950 . S
C1308 H1290 0.951 . S
C1308 C1309 1.366 . S
C1308 C1310 1.388 . S
C1309 C1308 1.366 . S
C1309 C1313 1.385 . S
C1310 H1291 0.951 . S
C1310 C1308 1.388 . S
C1310 C1311 1.366 . S
C1311 C1310 1.366 . S
C1311 C1312 1.414 . S
C1311 C1314 1.499 . S
C1312 H1292 0.950 . S
C1312 C1311 1.414 . S
C1312 C1313 1.374 . S
C1313 H1293 0.950 . S
C1313 C1309 1.385 . S
C1313 C1312 1.374 . S
C1314 C1311 1.499 . S
C1314 C1315 1.373 . S
C1314 C1316 1.389 . S
C1315 H1294 0.950 . S
C1315 C1314 1.373 . S
C1315 C1331 1.377 . S
C1316 C1314 1.389 . S
C1316 C1317 1.524 . S
C1316 C1330 1.377 . S
C1317 C1316 1.524 . S
C1317 C1318 1.397 . S
C1317 C1322 1.363 . S
C1318 H1295 0.950 . S
C1318 C1317 1.397 . S
C1318 C1319 1.334 . S
C1319 H1296 0.950 . S
C1319 C1318 1.334 . S
C1319 C1320 1.287 . S
C1320 C1319 1.287 . S
C1320 C1321 1.524 . S
C1320 H1339 0.913 . S
C1321 H1297 0.950 . S
C1321 C1320 1.524 . S
C1321 C1322 1.415 . S
C1322 H1298 0.950 . S
C1322 C1317 1.363 . S
C1322 C1321 1.415 . S
C1323 H1299 0.951 . S
C1323 C1324 1.366 . S
C1323 C1325 1.388 . S
C1324 C1323 1.366 . S
C1324 C1328 1.385 . S
C1325 H1300 0.951 . S
C1325 C1323 1.388 . S
C1325 C1326 1.366 . S
C1326 C1325 1.366 . S
C1326 C1327 1.414 . S
C1326 C1329 1.499 . S
C1327 H1301 0.950 . S
C1327 C1326 1.414 . S
C1327 C1328 1.374 . S
C1328 H1302 0.950 . S
C1328 C1324 1.385 . S
C1328 C1327 1.374 . S
C1329 C1326 1.499 . S
C1329 C1330 1.373 . S
C1329 C1331 1.389 . S
C1330 H1303 0.950 . S
C1330 C1316 1.377 . S
C1330 C1329 1.373 . S
C1331 C1315 1.377 . S
C1331 C1329 1.389 . S
C1331 C1332 1.524 . S
C1332 C1331 1.524 . S
C1332 C1333 1.397 . S
C1332 C1337 1.363 . S
C1333 H1304 0.950 . S
C1333 C1332 1.397 . S
C1333 C1334 1.334 . S
C1334 H1305 0.950 1_554 S
C1334 C1333 1.334 . S
C1334 C1335 1.287 . S
C1335 C1334 1.287 . S
C1335 C1336 1.524 . S
C1335 H1338 0.999 . S
C1336 H1306 0.950 . S
C1336 C1335 1.524 . S
C1336 C1337 1.415 . S
C1337 H1307 0.950 . S
C1337 C1332 1.363 . S
C1337 C1336 1.415 . S
H1338 C1335 0.999 . S
H1339 C1320 0.913 . S
H1340 C1358 0.951 . S
H1341 C1360 0.951 . S
H1342 C1362 0.950 . S
H1343 C1363 0.950 . S
H1344 C1365 0.950 . S
H1345 C1368 0.950 . S
H1346 C1369 0.950 . S
H1347 C1371 0.950 . S
H1348 C1372 0.950 . S
H1349 C1373 0.951 . S
H1350 C1375 0.951 . S
H1351 C1377 0.950 . S
H1352 C1378 0.950 . S
H1353 C1380 0.950 . S
H1354 C1383 0.950 . S
H1355 C1384 0.950 . S
H1356 C1386 0.950 . S
H1357 C1387 0.950 . S
C1358 H1340 0.951 . S
C1358 C1359 1.366 . S
C1358 C1360 1.388 . S
C1359 C1358 1.366 . S
C1359 C1363 1.385 . S
C1360 H1341 0.951 . S
C1360 C1358 1.388 . S
C1360 C1361 1.366 . S
C1361 C1360 1.366 . S
C1361 C1362 1.414 . S
C1361 C1364 1.499 . S
C1362 H1342 0.950 . S
C1362 C1361 1.414 . S
C1362 C1363 1.374 . S
C1363 H1343 0.950 . S
C1363 C1359 1.385 . S
C1363 C1362 1.374 . S
C1364 C1361 1.499 . S
C1364 C1365 1.373 . S
C1364 C1366 1.389 . S
C1365 H1344 0.950 . S
C1365 C1364 1.373 . S
C1365 C1381 1.377 . S
C1366 C1364 1.389 . S
C1366 C1367 1.524 . S
C1366 C1380 1.377 . S
C1367 C1366 1.524 . S
C1367 C1368 1.397 . S
C1367 C1372 1.363 . S
C1368 H1345 0.950 . S
C1368 C1367 1.397 . S
C1368 C1369 1.334 . S
C1369 H1346 0.950 . S
C1369 C1368 1.334 . S
C1369 C1370 1.287 . S
C1370 C1369 1.287 . S
C1370 C1371 1.524 . S
C1370 H1389 0.913 . S
C1371 H1347 0.950 . S
C1371 C1370 1.524 . S
C1371 C1372 1.415 . S
C1372 H1348 0.950 . S
C1372 C1367 1.363 . S
C1372 C1371 1.415 . S
C1373 H1349 0.951 . S
C1373 C1374 1.366 . S
C1373 C1375 1.388 . S
C1374 C1373 1.366 . S
C1374 C1378 1.385 . S
C1375 H1350 0.951 . S
C1375 C1373 1.388 . S
C1375 C1376 1.366 . S
C1376 C1375 1.366 . S
C1376 C1377 1.414 . S
C1376 C1379 1.499 . S
C1377 H1351 0.950 . S
C1377 C1376 1.414 . S
C1377 C1378 1.374 . S
C1378 H1352 0.950 . S
C1378 C1374 1.385 . S
C1378 C1377 1.374 . S
C1379 C1376 1.499 . S
C1379 C1380 1.373 . S
C1379 C1381 1.389 . S
C1380 H1353 0.950 . S
C1380 C1366 1.377 . S
C1380 C1379 1.373 . S
C1381 C1365 1.377 . S
C1381 C1379 1.389 . S
C1381 C1382 1.524 . S
C1382 C1381 1.524 . S
C1382 C1383 1.397 . S
C1382 C1387 1.363 . S
C1383 H1354 0.950 . S
C1383 C1382 1.397 . S
C1383 C1384 1.334 . S
C1384 H1355 0.950 . S
C1384 C1383 1.334 . S
C1384 C1385 1.287 . S
C1385 C1384 1.287 . S
C1385 C1386 1.524 . S
C1385 H1388 0.999 . S
C1386 H1356 0.950 . S
C1386 C1385 1.524 . S
C1386 C1387 1.415 . S
C1387 H1357 0.950 . S
C1387 C1382 1.363 . S
C1387 C1386 1.415 . S
H1388 C1385 0.999 . S
H1389 C1370 0.913 . S
H1390 C1408 0.951 . S
H1391 C1410 0.951 . S
H1392 C1412 0.950 . S
H1393 C1413 0.950 . S
H1394 C1415 0.950 . S
H1395 C1418 0.950 . S
H1396 C1419 0.950 . S
H1397 C1421 0.950 . S
H1398 C1422 0.950 . S
H1399 C1423 0.951 . S
H1400 C1425 0.951 . S
H1401 C1427 0.950 . S
H1402 C1428 0.950 . S
H1403 C1430 0.950 . S
H1404 C1433 0.950 . S
H1405 C1434 0.950 . S
H1406 C1436 0.950 . S
H1407 C1437 0.950 . S
C1408 H1390 0.951 . S
C1408 C1409 1.366 . S
C1408 C1410 1.388 . S
C1409 C1408 1.366 . S
C1409 C1413 1.385 . S
C1410 H1391 0.951 . S
C1410 C1408 1.388 . S
C1410 C1411 1.366 . S
C1411 C1410 1.366 . S
C1411 C1412 1.414 . S
C1411 C1414 1.499 . S
C1412 H1392 0.950 . S
C1412 C1411 1.414 . S
C1412 C1413 1.374 . S
C1413 H1393 0.950 . S
C1413 C1409 1.385 . S
C1413 C1412 1.374 . S
C1414 C1411 1.499 . S
C1414 C1415 1.373 . S
C1414 C1416 1.389 . S
C1415 H1394 0.950 . S
C1415 C1414 1.373 . S
C1415 C1431 1.377 . S
C1416 C1414 1.389 . S
C1416 C1417 1.524 . S
C1416 C1430 1.377 . S
C1417 C1416 1.524 . S
C1417 C1418 1.397 . S
C1417 C1422 1.363 . S
C1418 H1395 0.950 . S
C1418 C1417 1.397 . S
C1418 C1419 1.334 . S
C1419 H1396 0.950 . S
C1419 C1418 1.334 . S
C1419 C1420 1.287 . S
C1420 C1419 1.287 . S
C1420 C1421 1.524 . S
C1420 H1439 0.913 . S
C1421 H1397 0.950 . S
C1421 C1420 1.524 . S
C1421 C1422 1.415 . S
C1422 H1398 0.950 . S
C1422 C1417 1.363 . S
C1422 C1421 1.415 . S
C1423 H1399 0.951 . S
C1423 C1424 1.366 . S
C1423 C1425 1.388 . S
C1424 C1423 1.366 . S
C1424 C1428 1.385 . S
C1425 H1400 0.951 . S
C1425 C1423 1.388 . S
C1425 C1426 1.366 . S
C1426 C1425 1.366 . S
C1426 C1427 1.414 . S
C1426 C1429 1.499 . S
C1427 H1401 0.950 . S
C1427 C1426 1.414 . S
C1427 C1428 1.374 . S
C1428 H1402 0.950 . S
C1428 C1424 1.385 . S
C1428 C1427 1.374 . S
C1429 C1426 1.499 . S
C1429 C1430 1.373 . S
C1429 C1431 1.389 . S
C1430 H1403 0.950 . S
C1430 C1416 1.377 . S
C1430 C1429 1.373 . S
C1431 C1415 1.377 . S
C1431 C1429 1.389 . S
C1431 C1432 1.524 . S
C1432 C1431 1.524 . S
C1432 C1433 1.397 . S
C1432 C1437 1.363 . S
C1433 H1404 0.950 . S
C1433 C1432 1.397 . S
C1433 C1434 1.334 . S
C1434 H1405 0.950 . S
C1434 C1433 1.334 . S
C1434 C1435 1.287 . S
C1435 C1434 1.287 . S
C1435 C1436 1.524 . S
C1435 H1438 0.999 . S
C1436 H1406 0.950 . S
C1436 C1435 1.524 . S
C1436 C1437 1.415 . S
C1437 H1407 0.950 . S
C1437 C1432 1.363 . S
C1437 C1436 1.415 . S
H1438 C1435 0.999 . S
H1439 C1420 0.913 . S
C259 N1 2.157 . S
C274 C104 2.204 . S
C309 N18 2.667 . S
C324 C146 2.710 . S
C374 C176 0.464 . S
C359 N28 0.466 . S
C409 N40 1.177 . S
C424 C210 1.187 . S
C474 C167 2.311 . S
C459 N5 2.271 . S
C524 C121 1.911 . S
C509 N14 1.857 . S
C574 C214 1.266 . S
C559 N31 1.236 . S
C624 C180 0.777 . S
C609 N41 0.776 . S
C659 N2 2.063 . S
C674 C235 2.079 . S
C724 C142 1.164 . S
C709 N27 1.142 . S
C759 N44 1.258 . S
C774 C117 1.270 . S
C809 N15 1.926 . S
C824 C201 1.931 . S
C874 C133 2.697 . S
C859 N57 2.663 . S
C909 N70 1.957 . S
C924 C155 2.000 . S
C959 N79 0.882 . S
C974 C185 0.892 . S
C1009 N93 0.765 . S
C1024 C219 0.766 . S
C1059 N54 1.751 . S
C1074 C138 1.759 . S
C1124 C112 2.389 1_655 S
C1109 N66 2.346 . S
C1174 C223 0.517 . S
C1159 N80 0.536 . S
C1224 C189 1.384 . S
C1209 N96 1.351 . S
C1259 N53 2.084 . S
C1274 C206 2.131 . S
C1324 C151 1.115 . S
C1309 N83 1.111 . S
C1374 C108 1.250 . S
C1359 N92 1.212 . S
C1409 N67 2.031 . S
C1424 C172 2.046 . S
