# Generated by pormake.
# Topology ssa, (4,4)-cn, num edge types: 1
# Building blocks:
#     Node 0, Type 0, BuildingBlock: KOZSID_clean_sbu_0, # of connection points: 4
#     Node 1, Type 0, BuildingBlock: KOZSID_clean_sbu_0, # of connection points: 4
#     Node 2, Type 0, BuildingBlock: KOZSID_clean_sbu_0, # of connection points: 4
#     Node 3, Type 0, BuildingBlock: KOZSID_clean_sbu_0, # of connection points: 4
#     Node 4, Type 0, BuildingBlock: KOZSID_clean_sbu_0, # of connection points: 4
#     Node 5, Type 0, BuildingBlock: KOZSID_clean_sbu_0, # of connection points: 4
#     Node 6, Type 1, BuildingBlock: GIZVER_clean_linker_0, # of connection points: 4
#     Node 7, Type 1, BuildingBlock: GIZVER_clean_linker_0, # of connection points: 4
#     Node 8, Type 1, BuildingBlock: GIZVER_clean_linker_0, # of connection points: 4
#     Node 9, Type 1, BuildingBlock: GIZVER_clean_linker_0, # of connection points: 4
#     Node 10, Type 1, BuildingBlock: GIZVER_clean_linker_0, # of connection points: 4
#     Node 11, Type 1, BuildingBlock: GIZVER_clean_linker_0, # of connection points: 4
#     Edge 12, Type (0, 1), BuildingBlock: XIVTED_clean_linker_0, # of connection points: 2
#     Edge 13, Type (0, 1), BuildingBlock: XIVTED_clean_linker_0, # of connection points: 2
#     Edge 14, Type (0, 1), BuildingBlock: XIVTED_clean_linker_0, # of connection points: 2
#     Edge 15, Type (0, 1), BuildingBlock: XIVTED_clean_linker_0, # of connection points: 2
#     Edge 16, Type (0, 1), BuildingBlock: XIVTED_clean_linker_0, # of connection points: 2
#     Edge 17, Type (0, 1), BuildingBlock: XIVTED_clean_linker_0, # of connection points: 2
#     Edge 18, Type (0, 1), BuildingBlock: XIVTED_clean_linker_0, # of connection points: 2
#     Edge 19, Type (0, 1), BuildingBlock: XIVTED_clean_linker_0, # of connection points: 2
#     Edge 20, Type (0, 1), BuildingBlock: XIVTED_clean_linker_0, # of connection points: 2
#     Edge 21, Type (0, 1), BuildingBlock: XIVTED_clean_linker_0, # of connection points: 2
#     Edge 22, Type (0, 1), BuildingBlock: XIVTED_clean_linker_0, # of connection points: 2
#     Edge 23, Type (0, 1), BuildingBlock: XIVTED_clean_linker_0, # of connection points: 2
#     Edge 24, Type (0, 1), BuildingBlock: XIVTED_clean_linker_0, # of connection points: 2
#     Edge 25, Type (0, 1), BuildingBlock: XIVTED_clean_linker_0, # of connection points: 2
#     Edge 26, Type (0, 1), BuildingBlock: XIVTED_clean_linker_0, # of connection points: 2
#     Edge 27, Type (0, 1), BuildingBlock: XIVTED_clean_linker_0, # of connection points: 2
#     Edge 28, Type (0, 1), BuildingBlock: XIVTED_clean_linker_0, # of connection points: 2
#     Edge 29, Type (0, 1), BuildingBlock: XIVTED_clean_linker_0, # of connection points: 2
#     Edge 30, Type (0, 1), BuildingBlock: XIVTED_clean_linker_0, # of connection points: 2
#     Edge 31, Type (0, 1), BuildingBlock: XIVTED_clean_linker_0, # of connection points: 2
#     Edge 32, Type (0, 1), BuildingBlock: XIVTED_clean_linker_0, # of connection points: 2
#     Edge 33, Type (0, 1), BuildingBlock: XIVTED_clean_linker_0, # of connection points: 2
#     Edge 34, Type (0, 1), BuildingBlock: XIVTED_clean_linker_0, # of connection points: 2
#     Edge 35, Type (0, 1), BuildingBlock: XIVTED_clean_linker_0, # of connection points: 2
# Relax obj value: 0.004
# Max RMSD: 0.034
# Mean RMSD: 0.019
data_MOF--net-ssa--node1-KOZSID_clean_sbu_0--node2-GIZVER_clean_linker_0--edge1-XIVTED_clean_linker_0
_symmetry_space_group_name_H-M    P1
_symmetry_Int_Tables_number       1
_symmetry_cell_setting            triclinic
loop_
_symmetry_equiv_pos_as_xyz
'x, y, z'
_cell_length_a     59.256794
_cell_length_b     60.643191
_cell_length_c     32.418106
_cell_angle_alpha  86.732188
_cell_angle_beta   89.813489
_cell_angle_gamma 122.39416
loop_
_atom_site_label
_atom_site_type_symbol
_atom_site_fract_x
_atom_site_fract_y
_atom_site_fract_z
_atom_type_partial_charge
C0 C 0.95132 0.50238 0.02285 0.0
C1 C 0.93157 0.49528 0.05316 0.0
C2 C 0.93592 0.48236 0.08482 0.0
C3 C 0.95801 0.48238 0.07209 0.0
N4 N 0.9683 0.49484 0.03442 0.0
Co5 Co 0.99977 0.49869 0.0035 0.0
N6 N 0.00498 0.47798 0.0488 0.0
C7 C 0.99006 0.46703 0.08443 0.0
C8 C 0.9991 0.45509 0.11045 0.0
C9 C 0.02129 0.45879 0.09054 0.0
C10 C 0.02444 0.47272 0.05311 0.0
N11 N 0.03119 0.50249 0.97251 0.0
C12 C 0.04796 0.49463 0.98383 0.0
C13 C 0.06736 0.5013 0.95309 0.0
C14 C 0.0631 0.51438 0.92158 0.0
C15 C 0.04135 0.51482 0.93471 0.0
N16 N 0.99461 0.51945 0.95824 0.0
C17 C 0.00961 0.53062 0.92274 0.0
C18 C 1.0008 0.54301 0.89717 0.0
C19 C 0.97866 0.53932 0.91725 0.0
C20 C 0.97526 0.52487 0.95415 0.0
N21 N 0.02439 0.5315 0.03059 0.0
C22 C 0.06078 0.57731 0.06991 0.0
C23 C 0.06232 0.57636 0.02709 0.0
C24 C 0.04415 0.55347 0.00828 0.0
C25 C 0.04046 0.55492 0.09252 0.0
C26 C 0.02258 0.53259 0.07245 0.0
N27 N 0.97519 0.4659 0.97635 0.0
C28 C 0.95958 0.44268 0.91422 0.0
C29 C 0.93958 0.42002 0.93664 0.0
C30 C 0.93775 0.42078 0.97947 0.0
C31 C 0.9556 0.44374 0.99853 0.0
C32 C 0.97703 0.46503 0.93446 0.0
H33 H 0.95306 0.4431 0.03118 0.0
H34 H 0.99168 0.48146 0.91537 0.0
H35 H 0.04666 0.554 0.97566 0.0
H36 H 0.00768 0.51634 0.09158 0.0
C37 C 0.96868 0.46973 0.09378 0.0
C38 C 0.95255 0.51553 0.98312 0.0
C39 C 0.04697 0.4817 0.02376 0.0
C40 C 0.03085 0.52773 0.91316 0.0
H41 H 0.91542 0.4987 0.05212 0.0
H42 H 0.92402 0.47347 0.1133 0.0
H43 H 0.99102 0.44553 0.14086 0.0
H44 H 0.03399 0.45248 0.10292 0.0
H45 H 0.08324 0.49751 0.95373 0.0
H46 H 0.07482 0.52303 0.8929 0.0
H47 H 0.00905 0.55289 0.86698 0.0
H48 H 0.96608 0.54598 0.90553 0.0
H49 H 0.07741 0.59319 0.00797 0.0
H50 H 0.03856 0.55425 0.12587 0.0
H51 H 0.96158 0.44349 0.88087 0.0
H52 H 0.92275 0.40375 0.99836 0.0
C53 C 0.54883 0.03143 0.55718 0.0
C54 C 0.55256 0.03198 0.5996 0.0
C55 C 0.52773 0.01806 0.61885 0.0
C56 C 0.51015 0.00983 0.58749 0.0
N57 N 0.52236 0.01736 0.54958 0.0
Co58 Co 0.50393 0.01125 0.49652 0.0
N59 N 0.46927 0.98338 0.52335 0.0
C60 C 0.46262 0.97973 0.56395 0.0
C61 C 0.43718 0.9586 0.57319 0.0
C62 C 0.42726 0.9484 0.53598 0.0
C63 C 0.44733 0.96394 0.50618 0.0
N64 N 0.48524 0.00499 0.44374 0.0
C65 C 0.46191 0.98372 0.4333 0.0
C66 C 0.45624 0.98692 0.3927 0.0
C67 C 0.47676 0.01118 0.3775 0.0
C68 C 0.49379 0.02136 0.40948 0.0
N69 N 0.53852 0.03929 0.46941 0.0
C70 C 0.54166 0.05157 0.43186 0.0
C71 C 0.56793 0.06965 0.42057 0.0
C72 C 0.58218 0.06909 0.45332 0.0
C73 C 0.56371 0.05086 0.48319 0.0
N74 N 0.51236 0.98508 0.48503 0.0
C75 C 0.52195 0.94618 0.46652 0.0
C76 C 0.52777 0.96658 0.43719 0.0
C77 C 0.52267 0.98566 0.44693 0.0
C78 C 0.51154 0.94582 0.50557 0.0
C79 C 0.50717 0.96562 0.51435 0.0
N80 N 0.49548 0.03749 0.50798 0.0
C81 C 0.50895 0.07922 0.53321 0.0
C82 C 0.48341 0.0747 0.52736 0.0
C83 C 0.46411 0.05116 0.51093 0.0
C84 C 0.47052 0.03284 0.50152 0.0
C85 C 0.51457 0.06058 0.52317 0.0
H86 H 0.45521 0.0148 0.48933 0.0
H87 H 0.53438 0.06482 0.52839 0.0
H88 H 0.52668 1.00066 0.42329 0.0
H89 H 0.49924 0.96498 0.54468 0.0
C90 C 0.48233 0.99309 0.59243 0.0
C91 C 0.57055 0.04754 0.52575 0.0
C92 C 0.44452 0.96084 0.46173 0.0
C93 C 0.52005 0.04309 0.40595 0.0
H94 H 0.57116 0.04217 0.61538 0.0
H95 H 0.52308 0.01435 0.65179 0.0
H96 H 0.42746 0.95078 0.60348 0.0
H97 H 0.40758 0.9315 0.53129 0.0
H98 H 0.43929 0.97312 0.37566 0.0
H99 H 0.47964 0.0197 0.34618 0.0
H100 H 0.57585 0.08139 0.39161 0.0
H101 H 0.60368 0.0812 0.45535 0.0
H102 H 0.5355 0.96741 0.40643 0.0
H103 H 0.5069 0.93044 0.52916 0.0
H104 H 0.52447 0.09676 0.54658 0.0
H105 H 0.44416 0.04683 0.50539 0.0
C106 C 0.55792 0.52966 0.96084 0.0
C107 C 0.57026 0.54354 0.9235 0.0
C108 C 0.55131 0.54477 0.90156 0.0
C109 C 0.52859 0.5316 0.92663 0.0
N110 N 0.53199 0.52247 0.96365 0.0
Co111 Co 0.50389 0.50086 0.00852 0.0
N112 N 0.47535 0.50026 0.97459 0.0
C113 C 0.47833 0.51141 0.93596 0.0
C114 C 0.45526 0.50842 0.92122 0.0
C115 C 0.43651 0.49498 0.95258 0.0
C116 C 0.44933 0.49064 0.9848 0.0
N117 N 0.47573 0.47899 0.05321 0.0
C118 C 0.44961 0.47128 0.05581 0.0
C119 C 0.43745 0.45734 0.09325 0.0
C120 C 0.45655 0.45639 0.11513 0.0
C121 C 0.47924 0.46981 0.09011 0.0
N122 N 0.5325 0.50164 0.04253 0.0
C123 C 0.52971 0.49108 0.08152 0.0
C124 C 0.55275 0.49386 0.09605 0.0
C125 C 0.57128 0.50657 0.06417 0.0
C126 C 0.55836 0.51075 0.03198 0.0
N127 N 0.51061 0.53323 0.03268 0.0
C128 C 0.51522 0.57706 0.06704 0.0
C129 C 0.51198 0.5561 0.09235 0.0
C130 C 0.51017 0.53475 0.07469 0.0
C131 C 0.51702 0.57624 0.02437 0.0
C132 C 0.51442 0.55419 0.00794 0.0
N133 N 0.49713 0.46852 0.98437 0.0
C134 C 0.49169 0.42593 0.99204 0.0
C135 C 0.49107 0.42428 0.94928 0.0
C136 C 0.49284 0.44475 0.92445 0.0
C137 C 0.49552 0.46635 0.94249 0.0
C138 C 0.49494 0.44817 0.0088 0.0
H139 H 0.49655 0.48115 0.92184 0.0
H140 H 0.49604 0.44862 0.04153 0.0
H141 H 0.50804 0.51957 0.0957 0.0
H142 H 0.51505 0.55441 0.97514 0.0
C143 C 0.50336 0.52585 0.91524 0.0
C144 C 0.57105 0.52213 0.99128 0.0
C145 C 0.43624 0.47851 0.02514 0.0
C146 C 0.50463 0.47628 0.10193 0.0
H147 H 0.59062 0.55126 0.91269 0.0
H148 H 0.55356 0.55338 0.87045 0.0
H149 H 0.45259 0.5158 0.89166 0.0
H150 H 0.41588 0.48955 0.95227 0.0
H151 H 0.41715 0.44943 0.10448 0.0
H152 H 0.45442 0.4479 0.14629 0.0
H153 H 0.55545 0.48653 0.12563 0.0
H154 H 0.59175 0.51151 0.06407 0.0
H155 H 0.51086 0.5562 0.12571 0.0
H156 H 0.51955 0.59216 0.00371 0.0
H157 H 0.49041 0.41046 0.0124 0.0
H158 H 0.49201 0.44405 0.89113 0.0
C159 C 0.95708 0.45348 0.47528 0.0
C160 C 0.94192 0.44204 0.4413 0.0
C161 C 0.95005 0.46163 0.41095 0.0
C162 C 0.9698 0.48376 0.42791 0.0
N163 N 0.97484 0.47952 0.46724 0.0
Co164 Co 0.0029 0.5062 0.5025 0.0
N165 N 0.01342 0.53528 0.45896 0.0
C166 C 1.00122 0.53347 0.423 0.0
C167 C 0.01277 0.55661 0.39925 0.0
C168 C 0.03366 0.57427 0.42124 0.0
C169 C 0.03365 0.56084 0.45743 0.0
N170 N 0.03221 0.53253 0.53661 0.0
C171 C 0.05152 0.55798 0.52693 0.0
C172 C 0.06894 0.56882 0.55886 0.0
C173 C 0.06067 0.5494 0.58953 0.0
C174 C 0.03879 0.52794 0.57462 0.0
N175 N 0.99126 0.47744 0.5471 0.0
C176 C 1.00094 0.48002 0.58544 0.0
C177 C 0.98782 0.45744 0.61062 0.0
C178 C 0.96835 0.43934 0.58716 0.0
C179 C 0.9709 0.45192 0.54863 0.0
N180 N 0.02901 0.49901 0.4786 0.0
C181 C 0.06888 0.49273 0.44504 0.0
C182 C 0.06171 0.48695 0.48708 0.0
C183 C 0.042 0.49045 0.50324 0.0
C184 C 0.05534 0.50092 0.41985 0.0
C185 C 0.03535 0.50354 0.437 0.0
N186 N 0.9768 0.51356 0.52641 0.0
C187 C 0.96154 0.5275 0.58276 0.0
C188 C 0.94 0.52415 0.56032 0.0
C189 C 0.93704 0.51537 0.52071 0.0
C190 C 0.95571 0.51053 0.50427 0.0
C191 C 0.97937 0.52187 0.56558 0.0
H192 H 0.95257 0.50439 0.47355 0.0
H193 H 0.99497 0.52431 0.58481 0.0
H194 H 0.0379 0.48649 0.53582 0.0
H195 H 0.02552 0.50954 0.41601 0.0
C196 C 0.98181 0.50913 0.40962 0.0
C197 C 0.95315 0.43897 0.51489 0.0
C198 C 0.05428 0.57265 0.48799 0.0
C199 C 0.02325 0.50355 0.59615 0.0
H200 H 0.92621 0.42173 0.43902 0.0
H201 H 0.94196 0.46007 0.38061 0.0
H202 H 0.00749 0.55995 0.36861 0.0
H203 H 0.04781 0.59448 0.41088 0.0
H204 H 0.08591 0.58871 0.55981 0.0
H205 H 0.06953 0.55078 0.61918 0.0
H206 H 0.99193 0.45447 0.64226 0.0
H207 H 0.95383 0.41922 0.59755 0.0
H208 H 0.07179 0.48048 0.50753 0.0
H209 H 0.06012 0.50522 0.38692 0.0
H210 H 0.96432 0.53395 0.61387 0.0
H211 H 0.92061 0.5126 0.50226 0.0
C212 C 0.46018 0.98181 0.0673 0.0
C213 C 0.45332 0.98363 0.10742 0.0
C214 C 0.47528 0.00479 0.12231 0.0
C215 C 0.49428 0.01464 0.09072 0.0
N216 N 0.48574 1.00116 0.05635 0.0
Co217 Co 0.5071 0.00852 0.00355 0.0
N218 N 0.54042 0.03749 0.02756 0.0
C219 C 0.5431 0.04533 0.06648 0.0
C220 C 0.56843 0.06537 0.07429 0.0
C221 C 0.58285 0.07077 0.03816 0.0
C222 C 0.56533 0.05374 0.01023 0.0
N223 N 0.52826 0.01633 0.95039 0.0
C224 C 0.55413 0.03506 0.93998 0.0
C225 C 0.56044 0.0345 0.89889 0.0
C226 C 0.53783 0.01474 0.88282 0.0
C227 C 0.51901 0.00447 0.91472 0.0
N228 N 0.474 0.97892 0.98007 0.0
C229 C 0.4714 0.97067 0.94145 0.0
C230 C 0.44664 0.94929 0.93476 0.0
C231 C 0.43265 0.94319 0.97153 0.0
C232 C 0.44981 0.96127 0.99859 0.0
N233 N 0.4972 0.03388 0.98385 0.0
C234 C 0.48493 0.07076 0.95422 0.0
C235 C 0.47821 0.04907 0.93225 0.0
C236 C 0.4847 0.03119 0.94725 0.0
C237 C 0.49757 0.07362 0.9915 0.0
C238 C 0.50312 0.05489 0.00593 0.0
N239 N 0.51693 0.98327 0.02314 0.0
C240 C 0.52144 0.94672 0.0114 0.0
C241 C 0.52822 0.94567 0.05234 0.0
C242 C 0.52973 0.96404 0.07818 0.0
C243 C 0.52392 0.98241 0.06315 0.0
C244 C 0.51619 0.96572 0.99742 0.0
H245 H 0.52481 0.99547 0.08466 0.0
H246 H 0.5113 0.96567 0.96582 0.0
H247 H 0.47963 0.01557 0.92831 0.0
H248 H 0.51235 0.05802 0.03492 0.0
C249 C 0.52102 0.03455 0.09408 0.0
C250 C 0.44231 0.96056 0.04172 0.0
C251 C 0.57318 0.05428 0.96737 0.0
C252 C 0.4927 0.98339 0.91229 0.0
H253 H 0.43467 0.97061 0.12471 0.0
H254 H 0.47748 0.01154 0.15312 0.0
H255 H 0.57544 0.0752 0.10264 0.0
H256 H 0.60381 0.0858 0.03276 0.0
H257 H 0.57935 0.04722 0.88205 0.0
H258 H 0.53536 0.00866 0.85154 0.0
H259 H 0.43969 0.93918 0.90665 0.0
H260 H 0.41219 0.92709 0.97787 0.0
H261 H 0.46861 0.04628 0.90292 0.0
H262 H 0.50297 0.09012 0.0096 0.0
H263 H 0.52026 0.93298 0.9902 0.0
H264 H 0.5346 0.96377 0.11031 0.0
C265 C 0.51865 0.55992 0.51784 0.0
C266 C 0.51423 0.57279 0.54781 0.0
C267 C 0.50126 0.55496 0.58056 0.0
C268 C 0.49856 0.53235 0.56874 0.0
N269 N 0.50954 0.53476 0.53081 0.0
Co270 Co 0.50841 0.50624 0.50057 0.0
N271 N 0.48843 0.47974 0.54809 0.0
C272 C 0.48186 0.48428 0.58527 0.0
C273 C 0.46987 0.46278 0.61286 0.0
C274 C 0.46912 0.44339 0.59237 0.0
C275 C 0.48058 0.45421 0.55315 0.0
N276 N 0.50584 0.47741 0.4693 0.0
C277 C 0.49528 0.45183 0.48114 0.0
C278 C 0.49721 0.43839 0.44949 0.0
C279 C 0.50989 0.45624 0.41664 0.0
C280 C 0.51478 0.47941 0.43 0.0
N281 N 0.52978 0.53306 0.45405 0.0
C282 C 0.5391 0.52911 0.4189 0.0
C283 C 0.55296 0.55107 0.39248 0.0
C284 C 0.5523 0.57015 0.41171 0.0
C285 C 0.53804 0.55871 0.44906 0.0
N286 N 0.54247 0.51366 0.52452 0.0
C287 C 0.59038 0.52363 0.55902 0.0
C288 C 0.58343 0.51391 0.52004 0.0
C289 C 0.55973 0.50941 0.50325 0.0
C290 C 0.57311 0.52835 0.58046 0.0
C291 C 0.54933 0.52301 0.56301 0.0
N292 N 0.47447 0.49898 0.47662 0.0
C293 C 0.45005 0.49923 0.41723 0.0
C294 C 0.42824 0.49337 0.4426 0.0
C295 C 0.4294 0.48944 0.4851 0.0
C296 C 0.45268 0.49255 0.50144 0.0
C297 C 0.47264 0.50153 0.43467 0.0
H298 H 0.45273 0.49011 0.53427 0.0
H299 H 0.48852 0.50577 0.41358 0.0
H300 H 0.55585 0.50245 0.47304 0.0
H301 H 0.53678 0.52643 0.58151 0.0
C302 C 0.48652 0.50876 0.59289 0.0
C303 C 0.53095 0.57227 0.47718 0.0
C304 C 0.48457 0.43976 0.52248 0.0
C305 C 0.53084 0.50386 0.40873 0.0
H306 H 0.51959 0.59293 0.54596 0.0
H307 H 0.49446 0.55806 0.60942 0.0
H308 H 0.46273 0.46142 0.64425 0.0
H309 H 0.46132 0.42363 0.60515 0.0
H310 H 0.49082 0.41795 0.45053 0.0
H311 H 0.51587 0.45297 0.38718 0.0
H312 H 0.56126 0.55267 0.36185 0.0
H313 H 0.56051 0.58993 0.39873 0.0
H314 H 0.59638 0.51008 0.50238 0.0
H315 H 0.57762 0.53557 0.61108 0.0
H316 H 0.44967 0.50206 0.38398 0.0
H317 H 0.41275 0.48479 0.50568 0.0
H318 H 0.22621 0.50075 0.1446 0.0
H319 H 0.23315 0.50464 0.27654 0.0
H320 H 0.15587 0.46901 0.22381 0.0
H321 H 0.26904 0.53003 0.17339 0.0
H322 H 0.27153 0.53456 0.2274 0.0
H323 H 0.2787 0.49997 0.14441 0.0
H324 H 0.31339 0.46744 0.22325 0.0
H325 H 0.2768 0.50466 0.27633 0.0
C326 C 0.2169 0.49565 0.1754 0.0
C327 C 0.189 0.48313 0.1802 0.0
C328 C 0.23295 0.50298 0.21013 0.0
C329 C 0.22081 0.49781 0.24986 0.0
C330 C 0.19293 0.48519 0.25502 0.0
C331 C 0.17721 0.47732 0.22013 0.0
C332 C 0.26303 0.51935 0.20449 0.0
C333 C 0.27507 0.5029 0.20994 0.0
C334 C 0.28246 0.49494 0.17515 0.0
C335 C 0.29614 0.48193 0.1798 0.0
C336 C 0.30152 0.47613 0.21967 0.0
C337 C 0.29485 0.48442 0.25459 0.0
C338 C 0.28132 0.49754 0.2496 0.0
H339 H 0.72284 0.20861 0.66216 0.0
H340 H 0.73448 0.22152 0.79113 0.0
H341 H 0.69991 0.14398 0.75152 0.0
H342 H 0.73455 0.25001 0.68668 0.0
H343 H 0.7367 0.25465 0.74062 0.0
H344 H 0.77398 0.2618 0.64437 0.0
H345 H 0.85058 0.30673 0.69776 0.0
H346 H 0.77898 0.27131 0.7754 0.0
C347 C 0.72212 0.20088 0.69337 0.0
C348 C 0.70956 0.17364 0.70243 0.0
C349 C 0.73216 0.21835 0.7251 0.0
C350 C 0.7287 0.20839 0.76642 0.0
C351 C 0.71629 0.1814 0.77608 0.0
C352 C 0.70872 0.16464 0.74375 0.0
C353 C 0.74305 0.24711 0.71552 0.0
C354 C 0.77323 0.26299 0.71098 0.0
C355 C 0.78589 0.26879 0.67147 0.0
C356 C 0.81384 0.2848 0.66669 0.0
C357 C 0.829 0.2943 0.70175 0.0
C358 C 0.81682 0.29082 0.74082 0.0
C359 C 0.78883 0.27421 0.74556 0.0
H360 H 0.50381 0.72817 0.21275 0.0
H361 H 0.51257 0.72988 0.34461 0.0
H362 H 0.5432 0.69359 0.2724 0.0
H363 H 0.4769 0.73767 0.25653 0.0
H364 H 0.47904 0.73647 0.31136 0.0
H365 H 0.51177 0.77742 0.21294 0.0
H366 H 0.54534 0.84928 0.27291 0.0
H367 H 0.5066 0.77605 0.34585 0.0
C368 C 0.51197 0.72456 0.24033 0.0
C369 C 0.52508 0.71104 0.23794 0.0
C370 C 0.50805 0.73212 0.27866 0.0
C371 C 0.51691 0.72549 0.31475 0.0
C372 C 0.52981 0.71174 0.31265 0.0
C373 C 0.53459 0.70545 0.27397 0.0
C374 C 0.49128 0.74392 0.28188 0.0
C375 C 0.50829 0.77346 0.27972 0.0
C376 C 0.51677 0.78774 0.24101 0.0
C377 C 0.5305 0.81518 0.23841 0.0
C378 C 0.53616 0.82823 0.27494 0.0
C379 C 0.52755 0.81442 0.31379 0.0
C380 C 0.51382 0.78695 0.31605 0.0
H381 H 0.76575 0.56593 0.72771 0.0
H382 H 0.75763 0.56024 0.86077 0.0
H383 H 0.68776 0.52404 0.78774 0.0
H384 H 0.80359 0.5963 0.77134 0.0
H385 H 0.80084 0.59059 0.82634 0.0
H386 H 0.80953 0.56755 0.72648 0.0
H387 H 0.84118 0.52483 0.78408 0.0
H388 H 0.80993 0.55932 0.8595 0.0
C389 C 0.75329 0.5583 0.75588 0.0
C390 C 0.72538 0.54352 0.75343 0.0
C391 C 0.76512 0.56385 0.7946 0.0
C392 C 0.74867 0.55515 0.83092 0.0
C393 C 0.72068 0.54056 0.82866 0.0
C394 C 0.70932 0.53433 0.78986 0.0
C395 C 0.79516 0.58063 0.7969 0.0
C396 C 0.80738 0.56442 0.79344 0.0
C397 C 0.81342 0.5595 0.75427 0.0
C398 C 0.82517 0.5448 0.75096 0.0
C399 C 0.83083 0.53502 0.78688 0.0
C400 C 0.82585 0.54047 0.82612 0.0
C401 C 0.81374 0.55491 0.82929 0.0
H402 H 0.28226 0.78204 0.2043 0.0
H403 H 0.28556 0.78211 0.33718 0.0
H404 H 0.3237 0.85474 0.26279 0.0
H405 H 0.27093 0.74245 0.24578 0.0
H406 H 0.27428 0.7427 0.30041 0.0
H407 H 0.22788 0.72582 0.21767 0.0
H408 H 0.15979 0.69965 0.29994 0.0
H409 H 0.23854 0.73905 0.34721 0.0
C410 C 0.28784 0.79259 0.23215 0.0
C411 C 0.30314 0.8201 0.22897 0.0
C412 C 0.28081 0.77867 0.2712 0.0
C413 C 0.28969 0.79261 0.30714 0.0
C414 C 0.30477 0.8201 0.30418 0.0
C415 C 0.31081 0.83355 0.26515 0.0
C416 C 0.26657 0.74917 0.27424 0.0
C417 C 0.23668 0.73613 0.28091 0.0
C418 C 0.21947 0.72494 0.24789 0.0
C419 C 0.19152 0.71078 0.2548 0.0
C420 C 0.18125 0.71001 0.29432 0.0
C421 C 0.19781 0.71909 0.32803 0.0
C422 C 0.22562 0.73253 0.32113 0.0
H423 H 0.43896 0.24955 0.79861 0.0
H424 H 0.43287 0.25106 0.66602 0.0
H425 H 0.47882 0.32289 0.72567 0.0
H426 H 0.4037 0.21077 0.76442 0.0
H427 H 0.40238 0.21114 0.70933 0.0
H428 H 0.43537 0.20272 0.8008 0.0
H429 H 0.47152 0.17004 0.73238 0.0
H430 H 0.43079 0.20182 0.66803 0.0
C431 C 0.44442 0.2604 0.76871 0.0
C432 C 0.46071 0.28786 0.76637 0.0
C433 C 0.43469 0.24693 0.7325 0.0
C434 C 0.441 0.26122 0.69387 0.0
C435 C 0.45729 0.28865 0.69131 0.0
C436 C 0.46731 0.30165 0.72753 0.0
C437 C 0.41629 0.2175 0.73532 0.0
C438 C 0.43212 0.20462 0.73438 0.0
C439 C 0.44054 0.19848 0.77145 0.0
C440 C 0.45498 0.18622 0.77077 0.0
C441 C 0.46129 0.18046 0.73283 0.0
C442 C 0.45236 0.18569 0.69582 0.0
C443 C 0.43792 0.19795 0.69659 0.0
H444 H 0.04946 0.43812 0.03884 0.0
H445 H 0.19847 0.52025 0.11915 0.0
H446 H 0.09733 0.5223 0.03684 0.0
H447 H 0.14105 0.44003 0.16139 0.0
H448 H 0.16597 0.5188 0.07113 0.0
H449 H 0.08708 0.43655 0.06721 0.0
C450 C 0.06805 0.45624 0.04401 0.0
C451 C 0.07032 0.48034 0.03641 0.0
C452 C 0.1607 0.50135 0.09031 0.0
C453 C 0.11331 0.4788 0.06781 0.0
C454 C 0.17932 0.50207 0.11736 0.0
C455 C 0.17234 0.48025 0.1444 0.0
C456 C 0.13499 0.47862 0.09014 0.0
C457 C 0.14709 0.45731 0.14122 0.0
C458 C 0.08943 0.45536 0.06007 0.0
C459 C 0.09483 0.50334 0.04282 0.0
N460 N 0.1292 0.45716 0.1149 0.0
N461 N 0.11535 0.50202 0.05844 0.0
H462 H 0.59471 0.1007 0.52261 0.0
H463 H 0.66536 0.12295 0.71501 0.0
H464 H 0.60644 0.03893 0.5646 0.0
H465 H 0.71656 0.17965 0.6162 0.0
H466 H 0.63898 0.09282 0.66425 0.0
H467 H 0.63502 0.13205 0.55779 0.0
C468 C 0.60628 0.09391 0.53811 0.0
C469 C 0.59745 0.06724 0.54045 0.0
C470 C 0.65633 0.11173 0.65391 0.0
C471 C 0.64265 0.10271 0.58191 0.0
C472 C 0.67189 0.12915 0.68298 0.0
C473 C 0.69411 0.1543 0.67067 0.0
C474 C 0.66194 0.11957 0.61192 0.0
C475 C 0.69964 0.16088 0.62778 0.0
C476 C 0.62919 0.11178 0.55813 0.0
C477 C 0.61273 0.05934 0.562 0.0
N478 N 0.68329 0.14384 0.59991 0.0
N479 N 0.63419 0.07689 0.58301 0.0
H480 H 0.47701 0.5751 0.11651 0.0
H481 H 0.56724 0.71502 0.19547 0.0
H482 H 0.55487 0.62905 0.05874 0.0
H483 H 0.48137 0.67584 0.19778 0.0
H484 H 0.56443 0.6845 0.14602 0.0
H485 H 0.47893 0.61154 0.14909 0.0
C486 C 0.49446 0.5947 0.11066 0.0
C487 C 0.51587 0.5992 0.08521 0.0
C488 C 0.54628 0.68303 0.15653 0.0
C489 C 0.51836 0.64082 0.1225 0.0
C490 C 0.54789 0.70048 0.18451 0.0
C491 C 0.52451 0.69798 0.2004 0.0
C492 C 0.52106 0.66252 0.14544 0.0
C493 C 0.49986 0.67858 0.18585 0.0
C494 C 0.49548 0.61548 0.12893 0.0
C495 C 0.53799 0.62491 0.07825 0.0
N496 N 0.49872 0.66122 0.15985 0.0
N497 N 0.53888 0.64477 0.09735 0.0
H498 H 0.95031 0.56818 0.59583 0.0
H499 H 0.81161 0.50003 0.71472 0.0
H500 H 0.88556 0.49158 0.56718 0.0
H501 H 0.86298 0.58401 0.69839 0.0
H502 H 0.83698 0.49619 0.65876 0.0
H503 H 0.91829 0.57464 0.6325 0.0
C504 C 0.92927 0.55284 0.597 0.0
C505 C 0.9205 0.52926 0.57881 0.0
C506 C 0.84228 0.51548 0.66664 0.0
C507 C 0.88386 0.53633 0.62094 0.0
C508 C 0.82775 0.51764 0.69837 0.0
C509 C 0.83524 0.54236 0.71085 0.0
C510 C 0.86489 0.53819 0.64819 0.0
C511 C 0.8565 0.56463 0.68929 0.0
C512 C 0.911 0.55657 0.61764 0.0
C513 C 0.89305 0.51004 0.58084 0.0
N514 N 0.87099 0.56203 0.65954 0.0
N515 N 0.87572 0.5138 0.60221 0.0
H516 H 0.39652 0.95751 0.06662 0.0
H517 H 0.33085 0.81211 0.17056 0.0
H518 H 0.4314 0.9112 0.05816 0.0
H519 H 0.30421 0.86355 0.19779 0.0
H520 H 0.36103 0.8441 0.11569 0.0
H521 H 0.35675 0.91975 0.10235 0.0
C522 C 0.39559 0.93924 0.0721 0.0
C523 C 0.41723 0.93738 0.06029 0.0
C524 C 0.34818 0.84816 0.13308 0.0
C525 C 0.37201 0.89422 0.10051 0.0
C526 C 0.3307 0.82975 0.16405 0.0
C527 C 0.3152 0.83533 0.18892 0.0
C528 C 0.35012 0.87227 0.12702 0.0
C529 C 0.31605 0.85866 0.17951 0.0
C530 C 0.37297 0.91774 0.09233 0.0
C531 C 0.41512 0.91333 0.06736 0.0
N532 N 0.33352 0.87644 0.1497 0.0
N533 N 0.393 0.89271 0.08736 0.0
H534 H 0.52332 0.42973 0.53812 0.0
H535 H 0.41967 0.28596 0.63968 0.0
H536 H 0.43778 0.39216 0.53585 0.0
H537 H 0.50472 0.32846 0.6559 0.0
H538 H 0.42645 0.32 0.58728 0.0
H539 H 0.51732 0.38866 0.56751 0.0
C540 C 0.50328 0.4126 0.54333 0.0
C541 C 0.48098 0.41414 0.5352 0.0
C542 C 0.44369 0.32159 0.60163 0.0
C543 C 0.47384 0.36732 0.56892 0.0
C544 C 0.43985 0.30203 0.63118 0.0
C545 C 0.46167 0.3046 0.65228 0.0
C546 C 0.46954 0.34379 0.59327 0.0
C547 C 0.48737 0.32594 0.64052 0.0
C548 C 0.49982 0.38922 0.56011 0.0
C549 C 0.4554 0.39158 0.54218 0.0
N550 N 0.49057 0.34489 0.61223 0.0
N551 N 0.45248 0.36912 0.55914 0.0
H552 H 0.56584 0.95131 0.42838 0.0
H553 H 0.48846 0.80319 0.37193 0.0
H554 H 0.487 0.89307 0.47882 0.0
H555 H 0.57132 0.85971 0.33755 0.0
H556 H 0.48932 0.83354 0.41955 0.0
H557 H 0.56997 0.9166 0.40221 0.0
C558 C 0.54949 0.93114 0.43426 0.0
C559 C 0.52594 0.92506 0.45539 0.0
C560 C 0.50748 0.83909 0.40227 0.0
C561 C 0.53037 0.88511 0.42521 0.0
C562 C 0.50707 0.82165 0.37536 0.0
C563 C 0.52977 0.82909 0.35034 0.0
C564 C 0.5307 0.86419 0.40389 0.0
C565 C 0.55325 0.85337 0.35578 0.0
C566 C 0.55188 0.91129 0.41947 0.0
C567 C 0.5055 0.89858 0.46267 0.0
N568 N 0.55298 0.87021 0.38138 0.0
N569 N 0.50801 0.87959 0.44704 0.0
H570 H 0.62273 0.5637 0.99092 0.0
H571 H 0.67528 0.49396 0.85394 0.0
H572 H 0.57467 0.48296 0.96247 0.0
H573 H 0.72487 0.57412 0.88538 0.0
H574 H 0.64064 0.48751 0.90329 0.0
H575 H 0.66243 0.56625 0.96158 0.0
C576 C 0.62077 0.54644 0.97904 0.0
C577 C 0.59567 0.52314 0.97875 0.0
C578 C 0.65927 0.5064 0.90005 0.0
C579 C 0.64054 0.52581 0.94492 0.0
C580 C 0.67908 0.51003 0.87201 0.0
C581 C 0.70285 0.53466 0.86537 0.0
C582 C 0.66308 0.52766 0.92124 0.0
C583 C 0.70685 0.5548 0.88966 0.0
C584 C 0.64331 0.54784 0.96229 0.0
C585 C 0.59383 0.50125 0.96303 0.0
N586 N 0.68696 0.551 0.91601 0.0
N587 N 0.61594 0.50317 0.94633 0.0
H588 H 0.10431 0.5826 0.47443 0.0
H589 H 0.15807 0.72204 0.36553 0.0
H590 H 0.06088 0.62103 0.47889 0.0
H591 H 0.20678 0.68945 0.38315 0.0
H592 H 0.1257 0.68959 0.41786 0.0
H593 H 0.14463 0.62437 0.45065 0.0
C594 C 0.10347 0.60002 0.47079 0.0
C595 C 0.07931 0.59847 0.47773 0.0
C596 C 0.14386 0.69 0.4113 0.0
C597 C 0.12511 0.64624 0.45032 0.0
C598 C 0.16248 0.70874 0.38175 0.0
C599 C 0.18497 0.70823 0.36975 0.0
C600 C 0.14759 0.6704 0.42836 0.0
C601 C 0.18969 0.69051 0.39149 0.0
C602 C 0.12644 0.62386 0.45736 0.0
C603 C 0.07913 0.62149 0.47306 0.0
N604 N 0.1708 0.67184 0.41895 0.0
N605 N 0.10158 0.64438 0.45893 0.0
H606 H 0.4376 0.06288 0.92806 0.0
H607 H 0.50327 0.19644 0.79658 0.0
H608 H 0.52022 0.12354 0.9412 0.0
H609 H 0.41908 0.15138 0.8302 0.0
H610 H 0.51052 0.17117 0.85067 0.0
H611 H 0.43024 0.09522 0.89282 0.0
C612 C 0.45409 0.08311 0.92387 0.0
C613 C 0.47956 0.09061 0.93726 0.0
C614 C 0.49056 0.16723 0.84694 0.0
C615 C 0.47146 0.12756 0.8966 0.0
C616 C 0.48646 0.18168 0.81622 0.0
C617 C 0.46058 0.17595 0.80918 0.0
C618 C 0.46849 0.14645 0.86989 0.0
C619 C 0.43936 0.15648 0.83499 0.0
C620 C 0.44988 0.10156 0.904 0.0
C621 C 0.50028 0.11705 0.93134 0.0
N622 N 0.44368 0.14202 0.86369 0.0
N623 N 0.4959 0.13452 0.91076 0.0
H624 H 0.42681 0.5331 0.40285 0.0
H625 H 0.29243 0.44234 0.29542 0.0
H626 H 0.37707 0.45095 0.44069 0.0
H627 H 0.32553 0.52492 0.3024 0.0
H628 H 0.32151 0.44409 0.35051 0.0
H629 H 0.38921 0.53033 0.36677 0.0
C630 C 0.40778 0.51455 0.40382 0.0
C631 C 0.40487 0.49219 0.42444 0.0
C632 C 0.32192 0.46168 0.34072 0.0
C633 C 0.362 0.4887 0.3829 0.0
C634 C 0.30531 0.46066 0.3094 0.0
C635 C 0.30668 0.48353 0.29435 0.0
C636 C 0.34042 0.48585 0.3563 0.0
C637 C 0.32376 0.50682 0.31329 0.0
C638 C 0.38633 0.51297 0.38347 0.0
C639 C 0.37993 0.46857 0.42502 0.0
N640 N 0.34037 0.50751 0.34269 0.0
N641 N 0.3595 0.46731 0.40389 0.0
H642 H 0.88551 0.38448 0.95374 0.0
H643 H 0.85854 0.34175 0.73172 0.0
H644 H 0.95029 0.4011 0.86959 0.0
H645 H 0.81246 0.27943 0.82621 0.0
H646 H 0.88781 0.36886 0.78385 0.0
H647 H 0.85414 0.34932 0.9107 0.0
C648 C 0.89327 0.38053 0.92677 0.0
C649 C 0.92062 0.39629 0.9148 0.0
C650 C 0.8714 0.34917 0.79312 0.0
C651 C 0.88481 0.35663 0.86553 0.0
C652 C 0.85472 0.33345 0.76333 0.0
C653 C 0.83347 0.30765 0.7741 0.0
C654 C 0.86651 0.33965 0.83454 0.0
C655 C 0.82877 0.299 0.81632 0.0
C656 C 0.87532 0.3605 0.90233 0.0
C657 C 0.92936 0.39021 0.87937 0.0
N658 N 0.8452 0.31504 0.84523 0.0
N659 N 0.91148 0.37128 0.85561 0.0
H660 H 0.90494 0.47634 0.95724 0.0
H661 H 0.85749 0.57293 0.88451 0.0
H662 H 0.94808 0.55816 0.97991 0.0
H663 H 0.82051 0.49372 0.8488 0.0
H664 H 0.88471 0.56518 0.9326 0.0
H665 H 0.86845 0.4799 0.92954 0.0
C666 C 0.90645 0.49497 0.95673 0.0
C667 C 0.92942 0.51707 0.97027 0.0
C668 C 0.87027 0.54932 0.91484 0.0
C669 C 0.88811 0.52144 0.93871 0.0
C670 C 0.85452 0.55366 0.88775 0.0
C671 C 0.83693 0.534 0.86241 0.0
C672 C 0.86837 0.52517 0.91654 0.0
C673 C 0.83409 0.50948 0.86748 0.0
C674 C 0.88573 0.49705 0.94098 0.0
C675 C 0.93064 0.5408 0.96933 0.0
N676 N 0.8499 0.50586 0.89354 0.0
N677 N 0.91035 0.54245 0.95338 0.0
H678 H 0.43671 0.9127 0.4548 0.0
H679 H 0.30337 0.86124 0.33071 0.0
H680 H 0.39838 0.95573 0.43552 0.0
H681 H 0.33752 0.8149 0.35741 0.0
H682 H 0.33442 0.89338 0.37727 0.0
H683 H 0.39796 0.8745 0.42636 0.0
C684 C 0.41999 0.91394 0.44466 0.0
C685 C 0.42073 0.93731 0.44652 0.0
C686 C 0.33484 0.87596 0.37369 0.0
C687 C 0.37647 0.894 0.41442 0.0
C688 C 0.31697 0.85754 0.34734 0.0
C689 C 0.31796 0.83547 0.34023 0.0
C690 C 0.35417 0.87252 0.39256 0.0
C691 C 0.33603 0.8316 0.36231 0.0
C692 C 0.39789 0.8922 0.42861 0.0
C693 C 0.39859 0.93807 0.43374 0.0
N694 N 0.35377 0.8502 0.38695 0.0
N695 N 0.37746 0.91681 0.41783 0.0
H696 H 0.4548 0.37193 0.96821 0.0
H697 H 0.50995 0.32965 0.78263 0.0
H698 H 0.52274 0.42536 0.88719 0.0
H699 H 0.42939 0.28109 0.83441 0.0
H700 H 0.51986 0.36099 0.83458 0.0
H701 H 0.44989 0.33515 0.9318 0.0
C702 C 0.46886 0.37584 0.94312 0.0
C703 C 0.48901 0.40165 0.93026 0.0
C704 C 0.50013 0.34327 0.83505 0.0
C705 C 0.48374 0.35994 0.88905 0.0
C706 C 0.49451 0.32533 0.80555 0.0
C707 C 0.46869 0.30297 0.80383 0.0
C708 C 0.4798 0.33886 0.8631 0.0
C709 C 0.44954 0.29812 0.83462 0.0
C710 C 0.46602 0.35492 0.92237 0.0
C711 C 0.5067 0.40575 0.89761 0.0
N712 N 0.45535 0.31617 0.86267 0.0
N713 N 0.50361 0.38514 0.87808 0.0
H714 H 0.07181 0.44931 0.44278 0.0
H715 H 0.20798 0.52537 0.30438 0.0
H716 H 0.11503 0.53182 0.40635 0.0
H717 H 0.14825 0.44354 0.29519 0.0
H718 H 0.18084 0.52667 0.36013 0.0
H719 H 0.10616 0.44607 0.40561 0.0
C720 C 0.0888 0.46677 0.42753 0.0
C721 C 0.09066 0.49082 0.42715 0.0
C722 C 0.17397 0.5083 0.3465 0.0
C723 C 0.12985 0.48739 0.38543 0.0
C724 C 0.18957 0.50747 0.31503 0.0
C725 C 0.18023 0.48434 0.29505 0.0
C726 C 0.14898 0.4858 0.35824 0.0
C727 C 0.15601 0.4618 0.30967 0.0
C728 C 0.10826 0.46492 0.40634 0.0
C729 C 0.11288 0.51291 0.40694 0.0
N730 N 0.14105 0.46313 0.34016 0.0
N731 N 0.13161 0.51067 0.38679 0.0
H732 H 0.61637 0.05212 0.94464 0.0
H733 H 0.69026 0.19434 0.82969 0.0
H734 H 0.58977 0.10544 0.95162 0.0
H735 H 0.7162 0.14061 0.81839 0.0
H736 H 0.6601 0.16628 0.8873 0.0
H737 H 0.65828 0.08743 0.90984 0.0
C738 C 0.61963 0.07143 0.93919 0.0
C739 C 0.59971 0.07601 0.95032 0.0
C740 C 0.67278 0.16086 0.87285 0.0
C741 C 0.64728 0.11635 0.91078 0.0
C742 C 0.69035 0.17712 0.84023 0.0
C743 C 0.70546 0.16959 0.81859 0.0
C744 C 0.67013 0.1368 0.88374 0.0
C745 C 0.70447 0.14687 0.83361 0.0
C746 C 0.64348 0.09156 0.91948 0.0
C747 C 0.60471 0.10125 0.94306 0.0
N748 N 0.68666 0.13098 0.86466 0.0
N749 N 0.62789 0.12043 0.92332 0.0
H750 H 0.57622 0.62072 0.45897 0.0
H751 H 0.49325 0.68221 0.37527 0.0
H752 H 0.49021 0.57967 0.46324 0.0
H753 H 0.57431 0.71126 0.33388 0.0
H754 H 0.49518 0.65156 0.42531 0.0
H755 H 0.57851 0.66015 0.42914 0.0
C756 C 0.55788 0.62018 0.45385 0.0
C757 C 0.53299 0.59697 0.46258 0.0
C758 C 0.51275 0.66505 0.40591 0.0
C759 C 0.53538 0.64177 0.42967 0.0
C760 C 0.51179 0.68278 0.37772 0.0
C761 C 0.5336 0.69914 0.35022 0.0
C762 C 0.53572 0.66378 0.40667 0.0
C763 C 0.55699 0.69878 0.35435 0.0
C764 C 0.55917 0.64259 0.43705 0.0
C765 C 0.50975 0.59721 0.45634 0.0
N766 N 0.55733 0.68111 0.38166 0.0
N767 N 0.51148 0.61922 0.43998 0.0
H768 H 0.51584 0.1285 0.52262 0.0
H769 H 0.41318 0.14797 0.65144 0.0
H770 H 0.43617 0.06509 0.56212 0.0
H771 H 0.49883 0.19811 0.65643 0.0
H772 H 0.41901 0.12286 0.60023 0.0
H773 H 0.50718 0.15907 0.55396 0.0
C774 C 0.49646 0.12094 0.53763 0.0
C775 C 0.47693 0.09396 0.54047 0.0
C776 C 0.4365 0.13974 0.61183 0.0
C777 C 0.46674 0.12914 0.57545 0.0
C778 C 0.43319 0.15419 0.64062 0.0
C779 C 0.45559 0.17509 0.65788 0.0
C780 C 0.4624 0.14649 0.60007 0.0
C781 C 0.48111 0.18213 0.64361 0.0
C782 C 0.49152 0.13849 0.55525 0.0
C783 C 0.45188 0.08562 0.55907 0.0
N784 N 0.48384 0.16775 0.6157 0.0
N785 N 0.4476 0.10311 0.57619 0.0
H786 H 0.38609 0.43493 0.04194 0.0
H787 H 0.32736 0.51843 0.11785 0.0
H788 H 0.43004 0.51919 0.03506 0.0
H789 H 0.29611 0.43832 0.16156 0.0
H790 H 0.35802 0.51628 0.06993 0.0
H791 H 0.34666 0.43368 0.06951 0.0
C792 C 0.38723 0.45312 0.04588 0.0
C793 C 0.41129 0.47719 0.03717 0.0
C794 C 0.34406 0.49901 0.0894 0.0
C795 C 0.36651 0.476 0.0677 0.0
C796 C 0.32635 0.50012 0.1164 0.0
C797 C 0.30931 0.47856 0.14387 0.0
C798 C 0.34464 0.47614 0.08976 0.0
C799 C 0.30912 0.45544 0.14109 0.0
C800 C 0.36483 0.45243 0.06148 0.0
C801 C 0.41183 0.50027 0.04195 0.0
N802 N 0.32676 0.45491 0.11487 0.0
N803 N 0.38982 0.49913 0.05722 0.0
H804 H 0.90063 0.42326 0.51938 0.0
H805 H 0.85722 0.28678 0.63236 0.0
H806 H 0.95219 0.39346 0.52777 0.0
H807 H 0.80303 0.31264 0.61059 0.0
H808 H 0.88917 0.32092 0.58149 0.0
H809 H 0.86231 0.37953 0.54105 0.0
C810 C 0.9037 0.40729 0.5252 0.0
C811 C 0.92947 0.41184 0.52249 0.0
C812 C 0.86998 0.3187 0.58684 0.0
C813 C 0.886 0.36192 0.54769 0.0
C814 C 0.85163 0.29899 0.61556 0.0
C815 C 0.82759 0.29707 0.6259 0.0
C816 C 0.86439 0.33683 0.56891 0.0
C817 C 0.82135 0.31346 0.60348 0.0
C818 C 0.88189 0.38235 0.53753 0.0
C819 C 0.93257 0.39064 0.53009 0.0
N820 N 0.83992 0.3331 0.5768 0.0
N821 N 0.91115 0.36667 0.54302 0.0
H822 H 0.49765 0.89305 0.04214 0.0
H823 H 0.57599 0.86115 0.21081 0.0
H824 H 0.56861 0.95125 0.10032 0.0
H825 H 0.49584 0.80478 0.17597 0.0
H826 H 0.57917 0.89195 0.15552 0.0
H827 H 0.50219 0.85871 0.07693 0.0
C828 C 0.51446 0.89861 0.06163 0.0
C829 C 0.53261 0.92499 0.06882 0.0
C830 C 0.56108 0.87265 0.15941 0.0
C831 C 0.53789 0.88591 0.10862 0.0
C832 C 0.55931 0.85503 0.19081 0.0
C833 C 0.53545 0.83055 0.1984 0.0
C834 C 0.53881 0.86578 0.13547 0.0
C835 C 0.51457 0.82347 0.17125 0.0
C836 C 0.51697 0.87902 0.08158 0.0
C837 C 0.55392 0.93111 0.09452 0.0
N838 N 0.51654 0.8412 0.14143 0.0
N839 N 0.55586 0.91172 0.11372 0.0
H840 H 0.62964 0.56811 0.59176 0.0
H841 H 0.68788 0.49817 0.72053 0.0
H842 H 0.60681 0.48941 0.56996 0.0
H843 H 0.73212 0.58205 0.69771 0.0
H844 H 0.65885 0.49409 0.66386 0.0
H845 H 0.66788 0.57383 0.62979 0.0
C846 C 0.63291 0.55215 0.59469 0.0
C847 C 0.61507 0.52822 0.57804 0.0
C848 C 0.67532 0.51336 0.67054 0.0
C849 C 0.65843 0.53444 0.62178 0.0
C850 C 0.69188 0.51566 0.70272 0.0
C851 C 0.71235 0.54046 0.71355 0.0
C852 C 0.67885 0.53607 0.64992 0.0
C853 C 0.71663 0.56258 0.68999 0.0
C854 C 0.65477 0.55545 0.61612 0.0
C855 C 0.6202 0.50817 0.58237 0.0
N856 N 0.69965 0.55991 0.65978 0.0
N857 N 0.64118 0.51156 0.60448 0.0
H858 H 0.1147 0.61219 0.05061 0.0
H859 H 0.14608 0.66227 0.26989 0.0
H860 H 0.05192 0.59689 0.1381 0.0
H861 H 0.19445 0.71799 0.16863 0.0
H862 H 0.11451 0.63398 0.22124 0.0
H863 H 0.14713 0.64805 0.09133 0.0
C864 C 0.10757 0.61652 0.07789 0.0
C865 C 0.08045 0.601 0.09129 0.0
C866 C 0.13187 0.65254 0.20966 0.0
C867 C 0.1176 0.64154 0.13812 0.0
C868 C 0.14993 0.66901 0.2375 0.0
C869 C 0.17271 0.69332 0.22378 0.0
C870 C 0.13677 0.65966 0.16732 0.0
C871 C 0.17711 0.69966 0.18081 0.0
C872 C 0.12616 0.63697 0.10105 0.0
C873 C 0.07263 0.60757 0.12716 0.0
N874 N 0.15932 0.68282 0.15393 0.0
N875 N 0.09115 0.62699 0.14962 0.0
loop_
_geom_bond_atom_site_label_1
_geom_bond_atom_site_label_2
_geom_bond_distance
_geom_bond_site_symmetry_2
_ccdc_geom_bond_type
C0 C1 1.431 1_556 S
C0 N4 1.361 1_556 S
C0 C38 1.414 . S
C1 C0 1.431 1_554 S
C1 C2 1.340 . S
C1 H41 0.951 . S
C2 C1 1.340 . S
C2 C3 1.439 . S
C2 H42 0.950 . S
C3 C2 1.439 . S
C3 N4 1.374 . S
C3 C37 1.395 . S
N4 C0 1.361 1_554 S
N4 C3 1.374 . S
N4 Co5 2.008 1_655 S
Co5 N4 2.008 1_455 S
Co5 N6 1.995 . S
Co5 N11 2.008 1_554 S
Co5 N16 1.995 1_554 S
Co5 N21 2.282 . S
Co5 N27 2.282 1_454 S
N6 Co5 1.995 . S
N6 C7 1.376 1_455 S
N6 C10 1.383 . S
C7 N6 1.376 1_655 S
C7 C8 1.446 . S
C7 C37 1.391 . S
C8 C7 1.446 . S
C8 C9 1.339 1_655 S
C8 H43 0.949 . S
C9 C8 1.339 1_455 S
C9 C10 1.439 . S
C9 H44 0.950 . S
C10 N6 1.383 . S
C10 C9 1.439 . S
C10 C39 1.392 . S
N11 Co5 2.008 1_556 S
N11 C12 1.376 1_556 S
N11 C15 1.374 . S
C12 N11 1.376 1_554 S
C12 C13 1.443 1_554 S
C12 C39 1.389 . S
C13 C12 1.443 1_556 S
C13 C14 1.340 . S
C13 H45 0.951 . S
C14 C13 1.340 . S
C14 C15 1.439 . S
C14 H46 0.950 . S
C15 N11 1.374 . S
C15 C14 1.439 . S
C15 C40 1.395 . S
N16 Co5 1.995 1_556 S
N16 C17 1.376 . S
N16 C20 1.383 1_455 S
C17 N16 1.376 . S
C17 C18 1.446 . S
C17 C40 1.391 . S
C18 C17 1.446 . S
C18 C19 1.339 1_455 S
C18 H47 0.949 . S
C19 C18 1.339 1_655 S
C19 C20 1.439 . S
C19 H48 0.950 . S
C20 N16 1.383 1_655 S
C20 C19 1.439 . S
C20 C38 1.392 . S
N21 Co5 2.282 . S
N21 C24 1.332 . S
N21 C26 1.332 . S
C22 C23 1.386 . S
C22 C25 1.388 . S
C23 C22 1.386 . S
C23 C24 1.382 . S
C23 H49 0.950 . S
C24 N21 1.332 . S
C24 C23 1.382 . S
C24 H35 0.952 1_554 S
C25 C22 1.388 . S
C25 C26 1.382 . S
C25 H50 0.950 . S
C26 N21 1.332 . S
C26 C25 1.382 . S
C26 H36 0.948 . S
N27 Co5 2.282 1_656 S
N27 C31 1.332 . S
N27 C32 1.332 . S
C28 C29 1.388 . S
C28 C32 1.382 . S
C28 H51 0.950 . S
C29 C28 1.388 . S
C29 C30 1.386 . S
C30 C29 1.386 . S
C30 C31 1.382 . S
C30 H52 0.950 . S
C31 N27 1.332 . S
C31 C30 1.382 . S
C31 H33 0.952 1_556 S
C32 N27 1.332 . S
C32 C28 1.382 . S
C32 H34 0.948 . S
H33 C31 0.952 1_554 S
H34 C32 0.948 . S
H35 C24 0.952 1_556 S
H36 C26 0.948 . S
C37 C3 1.395 . S
C37 C7 1.391 . S
C38 C0 1.414 . S
C38 C20 1.392 . S
C39 C10 1.392 . S
C39 C12 1.389 . S
C40 C15 1.395 . S
C40 C17 1.391 . S
H41 C1 0.951 . S
H42 C2 0.950 . S
H43 C8 0.949 . S
H44 C9 0.950 . S
H45 C13 0.951 . S
H46 C14 0.950 . S
H47 C18 0.949 . S
H48 C19 0.950 . S
H49 C23 0.950 . S
H50 C25 0.950 . S
H51 C28 0.950 . S
H52 C30 0.950 . S
C53 C54 1.443 . S
C53 N57 1.376 . S
C53 C91 1.389 . S
C54 C53 1.443 . S
C54 C55 1.340 1_545 S
C54 H94 0.951 . S
C55 C54 1.340 1_565 S
C55 C56 1.439 . S
C55 H95 0.950 . S
C56 C55 1.439 . S
C56 N57 1.374 1_565 S
C56 C90 1.395 . S
N57 C53 1.376 . S
N57 C56 1.374 1_545 S
N57 Co58 2.008 . S
Co58 N57 2.008 . S
Co58 N59 1.995 1_545 S
Co58 N64 2.008 . S
Co58 N69 1.995 . S
Co58 N74 2.282 1_545 S
Co58 N80 2.282 . S
N59 Co58 1.995 1_565 S
N59 C60 1.376 . S
N59 C63 1.383 . S
C60 N59 1.376 . S
C60 C61 1.446 . S
C60 C90 1.391 . S
C61 C60 1.446 . S
C61 C62 1.339 . S
C61 H96 0.949 . S
C62 C61 1.339 . S
C62 C63 1.439 . S
C62 H97 0.950 . S
C63 N59 1.383 . S
C63 C62 1.439 . S
C63 C92 1.392 . S
N64 Co58 2.008 . S
N64 C65 1.376 1_545 S
N64 C68 1.374 . S
C65 N64 1.376 1_565 S
C65 C66 1.443 . S
C65 C92 1.389 . S
C66 C65 1.443 . S
C66 C67 1.340 1_565 S
C66 H98 0.951 . S
C67 C66 1.340 1_545 S
C67 C68 1.439 . S
C67 H99 0.950 . S
C68 N64 1.374 . S
C68 C67 1.439 . S
C68 C93 1.395 . S
N69 Co58 1.995 . S
N69 C70 1.376 . S
N69 C73 1.383 . S
C70 N69 1.376 . S
C70 C71 1.446 . S
C70 C93 1.391 . S
C71 C70 1.446 . S
C71 C72 1.339 . S
C71 H100 0.949 . S
C72 C71 1.339 . S
C72 C73 1.439 . S
C72 H101 0.950 . S
C73 N69 1.383 . S
C73 C72 1.439 . S
C73 C91 1.392 . S
N74 Co58 2.282 1_565 S
N74 C77 1.332 . S
N74 C79 1.332 . S
C75 C76 1.386 . S
C75 C78 1.388 . S
C76 C75 1.386 . S
C76 C77 1.382 . S
C76 H102 0.950 . S
C77 N74 1.332 . S
C77 C76 1.382 . S
C77 H88 0.952 1_565 S
C78 C75 1.388 . S
C78 C79 1.382 . S
C78 H103 0.950 . S
C79 N74 1.332 . S
C79 C78 1.382 . S
C79 H89 0.948 . S
N80 Co58 2.282 . S
N80 C84 1.332 . S
N80 C85 1.332 . S
C81 C82 1.388 . S
C81 C85 1.382 . S
C81 H104 0.950 . S
C82 C81 1.388 . S
C82 C83 1.386 . S
C83 C82 1.386 . S
C83 C84 1.382 . S
C83 H105 0.950 . S
C84 N80 1.332 . S
C84 C83 1.382 . S
C84 H86 0.952 . S
C85 N80 1.332 . S
C85 C81 1.382 . S
C85 H87 0.948 . S
H86 C84 0.952 . S
H87 C85 0.948 . S
H88 C77 0.952 1_545 S
H89 C79 0.948 . S
C90 C56 1.395 . S
C90 C60 1.391 . S
C91 C53 1.389 . S
C91 C73 1.392 . S
C92 C63 1.392 . S
C92 C65 1.389 . S
C93 C68 1.395 . S
C93 C70 1.391 . S
H94 C54 0.951 . S
H95 C55 0.950 . S
H96 C61 0.949 . S
H97 C62 0.950 . S
H98 C66 0.951 . S
H99 C67 0.950 . S
H100 C71 0.949 . S
H101 C72 0.950 . S
H102 C76 0.950 . S
H103 C78 0.950 . S
H104 C81 0.950 . S
H105 C83 0.950 . S
C106 C107 1.443 . S
C106 N110 1.376 . S
C106 C144 1.389 . S
C107 C106 1.443 . S
C107 C108 1.340 . S
C107 H147 0.951 . S
C108 C107 1.340 . S
C108 C109 1.439 . S
C108 H148 0.950 . S
C109 C108 1.439 . S
C109 N110 1.374 . S
C109 C143 1.395 . S
N110 C106 1.376 . S
N110 C109 1.374 . S
N110 Co111 2.008 1_556 S
Co111 N110 2.008 1_554 S
Co111 N112 1.995 1_554 S
Co111 N117 2.008 . S
Co111 N122 1.995 . S
Co111 N127 2.282 . S
Co111 N133 2.282 1_554 S
N112 Co111 1.995 1_556 S
N112 C113 1.376 . S
N112 C116 1.383 1_556 S
C113 N112 1.376 . S
C113 C114 1.446 . S
C113 C143 1.391 . S
C114 C113 1.446 . S
C114 C115 1.339 . S
C114 H149 0.949 . S
C115 C114 1.339 . S
C115 C116 1.439 1_556 S
C115 H150 0.950 . S
C116 N112 1.383 1_554 S
C116 C115 1.439 1_554 S
C116 C145 1.392 . S
N117 Co111 2.008 . S
N117 C118 1.376 . S
N117 C121 1.374 . S
C118 N117 1.376 . S
C118 C119 1.443 . S
C118 C145 1.389 . S
C119 C118 1.443 . S
C119 C120 1.340 . S
C119 H151 0.951 . S
C120 C119 1.340 . S
C120 C121 1.439 . S
C120 H152 0.950 . S
C121 N117 1.374 . S
C121 C120 1.439 . S
C121 C146 1.395 . S
N122 Co111 1.995 . S
N122 C123 1.376 . S
N122 C126 1.383 . S
C123 N122 1.376 . S
C123 C124 1.446 . S
C123 C146 1.391 . S
C124 C123 1.446 . S
C124 C125 1.339 . S
C124 H153 0.949 . S
C125 C124 1.339 . S
C125 C126 1.439 . S
C125 H154 0.950 . S
C126 N122 1.383 . S
C126 C125 1.439 . S
C126 C144 1.392 1_554 S
N127 Co111 2.282 . S
N127 C130 1.332 . S
N127 C132 1.332 . S
C128 C129 1.386 . S
C128 C131 1.388 . S
C129 C128 1.386 . S
C129 C130 1.382 . S
C129 H155 0.950 . S
C130 N127 1.332 . S
C130 C129 1.382 . S
C130 H141 0.952 . S
C131 C128 1.388 . S
C131 C132 1.382 . S
C131 H156 0.950 . S
C132 N127 1.332 . S
C132 C131 1.382 . S
C132 H142 0.948 1_554 S
N133 Co111 2.282 1_556 S
N133 C137 1.332 . S
N133 C138 1.332 . S
C134 C135 1.388 . S
C134 C138 1.382 . S
C134 H157 0.950 . S
C135 C134 1.388 . S
C135 C136 1.386 . S
C136 C135 1.386 . S
C136 C137 1.382 . S
C136 H158 0.950 . S
C137 N133 1.332 . S
C137 C136 1.382 . S
C137 H139 0.952 . S
C138 N133 1.332 . S
C138 C134 1.382 . S
C138 H140 0.948 1_556 S
H139 C137 0.952 . S
H140 C138 0.948 1_554 S
H141 C130 0.952 . S
H142 C132 0.948 1_556 S
C143 C109 1.395 . S
C143 C113 1.391 . S
C144 C106 1.389 . S
C144 C126 1.392 1_556 S
C145 C116 1.392 . S
C145 C118 1.389 . S
C146 C121 1.395 . S
C146 C123 1.391 . S
H147 C107 0.951 . S
H148 C108 0.950 . S
H149 C114 0.949 . S
H150 C115 0.950 . S
H151 C119 0.951 . S
H152 C120 0.950 . S
H153 C124 0.949 . S
H154 C125 0.950 . S
H155 C129 0.950 . S
H156 C131 0.950 . S
H157 C134 0.950 . S
H158 C136 0.950 . S
C159 C160 1.443 . S
C159 N163 1.376 . S
C159 C197 1.389 . S
C160 C159 1.443 . S
C160 C161 1.340 . S
C160 H200 0.951 . S
C161 C160 1.340 . S
C161 C162 1.439 . S
C161 H201 0.950 . S
C162 C161 1.439 . S
C162 N163 1.374 . S
C162 C196 1.395 . S
N163 C159 1.376 . S
N163 C162 1.374 . S
N163 Co164 1.982 1_655 S
Co164 N163 1.982 1_455 S
Co164 N165 1.982 . S
Co164 N170 2.034 . S
Co164 N175 2.019 1_455 S
Co164 N180 2.318 . S
Co164 N186 2.248 1_455 S
N165 Co164 1.982 . S
N165 C166 1.376 1_455 S
N165 C169 1.383 . S
C166 N165 1.376 1_655 S
C166 C167 1.446 . S
C166 C196 1.391 . S
C167 C166 1.446 . S
C167 C168 1.339 1_655 S
C167 H202 0.949 . S
C168 C167 1.339 1_455 S
C168 C169 1.439 . S
C168 H203 0.950 . S
C169 N165 1.383 . S
C169 C168 1.439 . S
C169 C198 1.392 . S
N170 Co164 2.034 . S
N170 C171 1.376 . S
N170 C174 1.374 . S
C171 N170 1.376 . S
C171 C172 1.443 . S
C171 C198 1.389 . S
C172 C171 1.443 . S
C172 C173 1.340 . S
C172 H204 0.951 . S
C173 C172 1.340 . S
C173 C174 1.439 . S
C173 H205 0.950 . S
C174 N170 1.374 . S
C174 C173 1.439 . S
C174 C199 1.395 . S
N175 Co164 2.019 1_655 S
N175 C176 1.354 1_655 S
N175 C179 1.396 . S
C176 N175 1.354 1_455 S
C176 C177 1.446 . S
C176 C199 1.391 . S
C177 C176 1.446 . S
C177 C178 1.339 1_455 S
C177 H206 0.949 . S
C178 C177 1.339 1_655 S
C178 C179 1.439 . S
C178 H207 0.950 . S
C179 N175 1.396 . S
C179 C178 1.439 . S
C179 C197 1.392 . S
N180 Co164 2.318 . S
N180 C183 1.332 . S
N180 C185 1.332 . S
C181 C182 1.386 . S
C181 C184 1.388 . S
C182 C181 1.386 . S
C182 C183 1.382 . S
C182 H208 0.950 . S
C183 N180 1.332 . S
C183 C182 1.382 . S
C183 H194 0.952 . S
C184 C181 1.388 . S
C184 C185 1.382 . S
C184 H209 0.950 . S
C185 N180 1.332 . S
C185 C184 1.382 . S
C185 H195 0.948 . S
N186 Co164 2.248 1_655 S
N186 C190 1.332 . S
N186 C191 1.332 . S
C187 C188 1.388 . S
C187 C191 1.382 . S
C187 H210 0.950 . S
C188 C187 1.388 . S
C188 C189 1.386 . S
C189 C188 1.386 . S
C189 C190 1.382 . S
C189 H211 0.950 . S
C190 N186 1.332 . S
C190 C189 1.382 . S
C190 H192 0.952 . S
C191 N186 1.332 . S
C191 C187 1.382 . S
C191 H193 0.948 . S
H192 C190 0.952 . S
H193 C191 0.948 . S
H194 C183 0.952 . S
H195 C185 0.948 . S
C196 C162 1.395 . S
C196 C166 1.391 . S
C197 C159 1.389 . S
C197 C179 1.392 . S
C198 C169 1.392 . S
C198 C171 1.389 . S
C199 C174 1.395 . S
C199 C176 1.391 . S
H200 C160 0.951 . S
H201 C161 0.950 . S
H202 C167 0.949 . S
H203 C168 0.950 . S
H204 C172 0.951 . S
H205 C173 0.950 . S
H206 C177 0.949 . S
H207 C178 0.950 . S
H208 C182 0.950 . S
H209 C184 0.950 . S
H210 C187 0.950 . S
H211 C189 0.950 . S
C212 C213 1.443 . S
C212 N216 1.368 1_565 S
C212 C250 1.389 . S
C213 C212 1.443 . S
C213 C214 1.340 1_565 S
C213 H253 0.951 . S
C214 C213 1.340 1_545 S
C214 C215 1.439 . S
C214 H254 0.950 . S
C215 C214 1.439 . S
C215 N216 1.384 . S
C215 C249 1.395 . S
N216 C212 1.368 1_545 S
N216 C215 1.384 . S
N216 Co217 2.004 . S
Co217 N216 2.004 . S
Co217 N218 1.995 . S
Co217 N223 2.008 1_554 S
Co217 N228 1.995 1_544 S
Co217 N233 2.282 1_554 S
Co217 N239 2.282 1_545 S
N218 Co217 1.995 . S
N218 C219 1.376 . S
N218 C222 1.383 1_554 S
C219 N218 1.376 . S
C219 C220 1.446 . S
C219 C249 1.391 . S
C220 C219 1.446 . S
C220 C221 1.339 . S
C220 H255 0.949 . S
C221 C220 1.339 . S
C221 C222 1.439 1_554 S
C221 H256 0.950 1_554 S
C222 N218 1.383 1_556 S
C222 C221 1.439 1_556 S
C222 C251 1.392 . S
N223 Co217 2.008 1_556 S
N223 C224 1.376 . S
N223 C227 1.374 1_545 S
C224 N223 1.376 . S
C224 C225 1.443 . S
C224 C251 1.389 . S
C225 C224 1.443 . S
C225 C226 1.340 . S
C225 H257 0.951 . S
C226 C225 1.340 . S
C226 C227 1.439 1_545 S
C226 H258 0.950 1_545 S
C227 N223 1.374 1_565 S
C227 C226 1.439 1_565 S
C227 C252 1.395 . S
N228 Co217 1.995 1_566 S
N228 C229 1.376 . S
N228 C232 1.383 1_556 S
C229 N228 1.376 . S
C229 C230 1.446 . S
C229 C252 1.391 . S
C230 C229 1.446 . S
C230 C231 1.339 . S
C230 H259 0.949 . S
C231 C230 1.339 . S
C231 C232 1.439 1_556 S
C231 H260 0.950 1_556 S
C232 N228 1.383 1_554 S
C232 C231 1.439 1_554 S
C232 C250 1.392 . S
N233 Co217 2.282 1_556 S
N233 C236 1.332 . S
N233 C238 1.332 . S
C234 C235 1.386 . S
C234 C237 1.388 . S
C235 C234 1.386 . S
C235 C236 1.382 . S
C235 H261 0.950 . S
C236 N233 1.332 . S
C236 C235 1.382 . S
C236 H247 0.952 . S
C237 C234 1.388 . S
C237 C238 1.382 . S
C237 H262 0.950 . S
C238 N233 1.332 . S
C238 C237 1.382 . S
C238 H248 0.948 1_556 S
N239 Co217 2.282 1_565 S
N239 C243 1.332 . S
N239 C244 1.332 . S
C240 C241 1.388 . S
C240 C244 1.382 . S
C240 H263 0.950 . S
C241 C240 1.388 . S
C241 C242 1.386 . S
C242 C241 1.386 . S
C242 C243 1.382 . S
C242 H264 0.950 . S
C243 N239 1.332 . S
C243 C242 1.382 . S
C243 H245 0.951 1_565 S
C244 N239 1.332 . S
C244 C240 1.382 . S
C244 H246 0.948 1_554 S
H245 C243 0.951 1_545 S
H246 C244 0.948 1_556 S
H247 C236 0.952 . S
H248 C238 0.948 1_554 S
C249 C215 1.395 . S
C249 C219 1.391 . S
C250 C212 1.389 . S
C250 C232 1.392 . S
C251 C222 1.392 . S
C251 C224 1.389 . S
C252 C227 1.395 . S
C252 C229 1.391 . S
H253 C213 0.951 . S
H254 C214 0.950 . S
H255 C220 0.949 . S
H256 C221 0.950 1_556 S
H257 C225 0.951 . S
H258 C226 0.950 1_565 S
H259 C230 0.949 . S
H260 C231 0.950 1_554 S
H261 C235 0.950 . S
H262 C237 0.950 . S
H263 C240 0.950 . S
H264 C242 0.950 . S
C265 C266 1.443 . S
C265 N269 1.376 . S
C265 C303 1.389 . S
C266 C265 1.443 . S
C266 C267 1.340 . S
C266 H306 0.951 . S
C267 C266 1.340 . S
C267 C268 1.439 . S
C267 H307 0.950 . S
C268 C267 1.439 . S
C268 N269 1.374 . S
C268 C302 1.395 . S
N269 C265 1.376 . S
N269 C268 1.374 . S
N269 Co270 2.008 . S
Co270 N269 2.008 . S
Co270 N271 1.995 . S
Co270 N276 2.008 . S
Co270 N281 1.995 . S
Co270 N286 2.282 . S
Co270 N292 2.282 . S
N271 Co270 1.995 . S
N271 C272 1.376 . S
N271 C275 1.383 . S
C272 N271 1.376 . S
C272 C273 1.446 . S
C272 C302 1.391 . S
C273 C272 1.446 . S
C273 C274 1.339 . S
C273 H308 0.949 . S
C274 C273 1.339 . S
C274 C275 1.439 . S
C274 H309 0.950 . S
C275 N271 1.383 . S
C275 C274 1.439 . S
C275 C304 1.392 . S
N276 Co270 2.008 . S
N276 C277 1.376 . S
N276 C280 1.374 . S
C277 N276 1.376 . S
C277 C278 1.443 . S
C277 C304 1.389 . S
C278 C277 1.443 . S
C278 C279 1.340 . S
C278 H310 0.951 . S
C279 C278 1.340 . S
C279 C280 1.439 . S
C279 H311 0.950 . S
C280 N276 1.374 . S
C280 C279 1.439 . S
C280 C305 1.395 . S
N281 Co270 1.995 . S
N281 C282 1.376 . S
N281 C285 1.383 . S
C282 N281 1.376 . S
C282 C283 1.446 . S
C282 C305 1.391 . S
C283 C282 1.446 . S
C283 C284 1.339 . S
C283 H312 0.949 . S
C284 C283 1.339 . S
C284 C285 1.439 . S
C284 H313 0.950 . S
C285 N281 1.383 . S
C285 C284 1.439 . S
C285 C303 1.392 . S
N286 Co270 2.282 . S
N286 C289 1.332 . S
N286 C291 1.332 . S
C287 C288 1.386 . S
C287 C290 1.388 . S
C288 C287 1.386 . S
C288 C289 1.382 . S
C288 H314 0.950 . S
C289 N286 1.332 . S
C289 C288 1.382 . S
C289 H300 0.952 . S
C290 C287 1.388 . S
C290 C291 1.382 . S
C290 H315 0.950 . S
C291 N286 1.332 . S
C291 C290 1.382 . S
C291 H301 0.948 . S
N292 Co270 2.282 . S
N292 C296 1.332 . S
N292 C297 1.332 . S
C293 C294 1.388 . S
C293 C297 1.382 . S
C293 H316 0.950 . S
C294 C293 1.388 . S
C294 C295 1.386 . S
C295 C294 1.386 . S
C295 C296 1.382 . S
C295 H317 0.950 . S
C296 N292 1.332 . S
C296 C295 1.382 . S
C296 H298 0.952 . S
C297 N292 1.332 . S
C297 C293 1.382 . S
C297 H299 0.948 . S
H298 C296 0.952 . S
H299 C297 0.948 . S
H300 C289 0.952 . S
H301 C291 0.948 . S
C302 C268 1.395 . S
C302 C272 1.391 . S
C303 C265 1.389 . S
C303 C285 1.392 . S
C304 C275 1.392 . S
C304 C277 1.389 . S
C305 C280 1.395 . S
C305 C282 1.391 . S
H306 C266 0.951 . S
H307 C267 0.950 . S
H308 C273 0.949 . S
H309 C274 0.950 . S
H310 C278 0.951 . S
H311 C279 0.950 . S
H312 C283 0.949 . S
H313 C284 0.950 . S
H314 C288 0.950 . S
H315 C290 0.950 . S
H316 C293 0.950 . S
H317 C295 0.950 . S
H318 C326 0.930 . S
H319 C329 0.930 . S
H320 C331 0.930 . S
H321 C332 0.970 . S
H322 C332 0.970 . S
H323 C334 0.930 . S
H324 C336 0.930 . S
H325 C338 0.930 . S
C326 H318 0.930 . S
C326 C327 1.382 . S
C326 C328 1.426 . S
C327 C326 1.382 . S
C327 C331 1.389 . S
C328 C326 1.426 . S
C328 C329 1.375 . S
C328 C332 1.532 . S
C329 H319 0.930 . S
C329 C328 1.375 . S
C329 C330 1.416 . S
C330 C329 1.416 . S
C330 C331 1.371 . S
C331 H320 0.930 . S
C331 C327 1.389 . S
C331 C330 1.371 . S
C332 H321 0.970 . S
C332 H322 0.970 . S
C332 C328 1.532 . S
C332 C333 1.499 . S
C333 C332 1.499 . S
C333 C334 1.370 . S
C333 C338 1.415 . S
C334 H323 0.930 . S
C334 C333 1.370 . S
C334 C335 1.407 . S
C335 C334 1.407 . S
C335 C336 1.365 . S
C336 H324 0.930 . S
C336 C335 1.365 . S
C336 C337 1.393 . S
C337 C336 1.393 . S
C337 C338 1.387 . S
C338 H325 0.930 . S
C338 C333 1.415 . S
C338 C337 1.387 . S
H339 C347 0.930 . S
H340 C350 0.930 . S
H341 C352 0.930 . S
H342 C353 0.970 . S
H343 C353 0.970 . S
H344 C355 0.930 . S
H345 C357 0.930 . S
H346 C359 0.930 . S
C347 H339 0.930 . S
C347 C348 1.382 . S
C347 C349 1.426 . S
C348 C347 1.382 . S
C348 C352 1.389 . S
C349 C347 1.426 . S
C349 C350 1.375 . S
C349 C353 1.532 . S
C350 H340 0.930 . S
C350 C349 1.375 . S
C350 C351 1.416 . S
C351 C350 1.416 . S
C351 C352 1.371 . S
C352 H341 0.930 . S
C352 C348 1.389 . S
C352 C351 1.371 . S
C353 H342 0.970 . S
C353 H343 0.970 . S
C353 C349 1.532 . S
C353 C354 1.499 . S
C354 C353 1.499 . S
C354 C355 1.370 . S
C354 C359 1.415 . S
C355 H344 0.930 . S
C355 C354 1.370 . S
C355 C356 1.407 . S
C356 C355 1.407 . S
C356 C357 1.365 . S
C357 H345 0.930 . S
C357 C356 1.365 . S
C357 C358 1.393 . S
C358 C357 1.393 . S
C358 C359 1.387 . S
C359 H346 0.930 . S
C359 C354 1.415 . S
C359 C358 1.387 . S
H360 C368 0.930 . S
H361 C371 0.930 . S
H362 C373 0.930 . S
H363 C374 0.970 . S
H364 C374 0.970 . S
H365 C376 0.930 . S
H366 C378 0.930 . S
H367 C380 0.930 . S
C368 H360 0.930 . S
C368 C369 1.382 . S
C368 C370 1.426 . S
C369 C368 1.382 . S
C369 C373 1.389 . S
C370 C368 1.426 . S
C370 C371 1.375 . S
C370 C374 1.532 . S
C371 H361 0.930 . S
C371 C370 1.375 . S
C371 C372 1.416 . S
C372 C371 1.416 . S
C372 C373 1.371 . S
C373 H362 0.930 . S
C373 C369 1.389 . S
C373 C372 1.371 . S
C374 H363 0.970 . S
C374 H364 0.970 . S
C374 C370 1.532 . S
C374 C375 1.499 . S
C375 C374 1.499 . S
C375 C376 1.370 . S
C375 C380 1.415 . S
C376 H365 0.930 . S
C376 C375 1.370 . S
C376 C377 1.407 . S
C377 C376 1.407 . S
C377 C378 1.365 . S
C378 H366 0.930 . S
C378 C377 1.365 . S
C378 C379 1.393 . S
C379 C378 1.393 . S
C379 C380 1.387 . S
C380 H367 0.930 . S
C380 C375 1.415 . S
C380 C379 1.387 . S
H381 C389 0.930 . S
H382 C392 0.930 . S
H383 C394 0.930 . S
H384 C395 0.970 . S
H385 C395 0.970 . S
H386 C397 0.930 . S
H387 C399 0.930 . S
H388 C401 0.930 . S
C389 H381 0.930 . S
C389 C390 1.382 . S
C389 C391 1.426 . S
C390 C389 1.382 . S
C390 C394 1.389 . S
C391 C389 1.426 . S
C391 C392 1.375 . S
C391 C395 1.532 . S
C392 H382 0.930 . S
C392 C391 1.375 . S
C392 C393 1.416 . S
C393 C392 1.416 . S
C393 C394 1.371 . S
C394 H383 0.930 . S
C394 C390 1.389 . S
C394 C393 1.371 . S
C395 H384 0.970 . S
C395 H385 0.970 . S
C395 C391 1.532 . S
C395 C396 1.499 . S
C396 C395 1.499 . S
C396 C397 1.370 . S
C396 C401 1.415 . S
C397 H386 0.930 . S
C397 C396 1.370 . S
C397 C398 1.407 . S
C398 C397 1.407 . S
C398 C399 1.365 . S
C399 H387 0.930 . S
C399 C398 1.365 . S
C399 C400 1.393 . S
C400 C399 1.393 . S
C400 C401 1.387 . S
C401 H388 0.930 . S
C401 C396 1.415 . S
C401 C400 1.387 . S
H402 C410 0.930 . S
H403 C413 0.930 . S
H404 C415 0.930 . S
H405 C416 0.970 . S
H406 C416 0.970 . S
H407 C418 0.930 . S
H408 C420 0.930 . S
H409 C422 0.930 . S
C410 H402 0.930 . S
C410 C411 1.382 . S
C410 C412 1.426 . S
C411 C410 1.382 . S
C411 C415 1.389 . S
C412 C410 1.426 . S
C412 C413 1.375 . S
C412 C416 1.532 . S
C413 H403 0.930 . S
C413 C412 1.375 . S
C413 C414 1.416 . S
C414 C413 1.416 . S
C414 C415 1.371 . S
C415 H404 0.930 . S
C415 C411 1.389 . S
C415 C414 1.371 . S
C416 H405 0.970 . S
C416 H406 0.970 . S
C416 C412 1.532 . S
C416 C417 1.499 . S
C417 C416 1.499 . S
C417 C418 1.370 . S
C417 C422 1.415 . S
C418 H407 0.930 . S
C418 C417 1.370 . S
C418 C419 1.407 . S
C419 C418 1.407 . S
C419 C420 1.365 . S
C420 H408 0.930 . S
C420 C419 1.365 . S
C420 C421 1.393 . S
C421 C420 1.393 . S
C421 C422 1.387 . S
C422 H409 0.930 . S
C422 C417 1.415 . S
C422 C421 1.387 . S
H423 C431 0.930 . S
H424 C434 0.930 . S
H425 C436 0.930 . S
H426 C437 0.970 . S
H427 C437 0.970 . S
H428 C439 0.930 . S
H429 C441 0.930 . S
H430 C443 0.930 . S
C431 H423 0.930 . S
C431 C432 1.382 . S
C431 C433 1.426 . S
C432 C431 1.382 . S
C432 C436 1.389 . S
C433 C431 1.426 . S
C433 C434 1.375 . S
C433 C437 1.532 . S
C434 H424 0.930 . S
C434 C433 1.375 . S
C434 C435 1.416 . S
C435 C434 1.416 . S
C435 C436 1.371 . S
C436 H425 0.930 . S
C436 C432 1.389 . S
C436 C435 1.371 . S
C437 H426 0.970 . S
C437 H427 0.970 . S
C437 C433 1.532 . S
C437 C438 1.499 . S
C438 C437 1.499 . S
C438 C439 1.370 . S
C438 C443 1.415 . S
C439 H428 0.930 . S
C439 C438 1.370 . S
C439 C440 1.407 . S
C440 C439 1.407 . S
C440 C441 1.365 . S
C441 H429 0.930 . S
C441 C440 1.365 . S
C441 C442 1.393 . S
C442 C441 1.393 . S
C442 C443 1.387 . S
C443 H430 0.930 . S
C443 C438 1.415 . S
C443 C442 1.387 . S
H444 C450 0.930 . S
H445 C454 0.930 . S
H446 C459 0.929 . S
H447 C457 0.929 . S
H448 C452 0.929 . S
H449 C458 0.929 . S
C450 H444 0.930 . S
C450 C451 1.367 . S
C450 C458 1.378 . S
C451 C450 1.367 . S
C451 C459 1.433 . S
C452 H448 0.929 . S
C452 C454 1.378 . S
C452 C456 1.350 . S
C453 C456 1.463 . S
C453 C458 1.350 . S
C453 N461 1.427 . S
C454 H445 0.930 . S
C454 C452 1.378 . S
C454 C455 1.367 . S
C455 C454 1.367 . S
C455 C457 1.433 . S
C456 C452 1.350 . S
C456 C453 1.463 . S
C456 N460 1.427 . S
C457 H447 0.929 . S
C457 C455 1.433 . S
C457 N460 1.384 . S
C458 H449 0.929 . S
C458 C450 1.378 . S
C458 C453 1.350 . S
C459 H446 0.929 . S
C459 C451 1.433 . S
C459 N461 1.384 . S
N460 C456 1.427 . S
N460 C457 1.384 . S
N461 C453 1.427 . S
N461 C459 1.384 . S
H462 C468 0.930 . S
H463 C472 0.930 . S
H464 C477 0.929 . S
H465 C475 0.929 . S
H466 C470 0.929 . S
H467 C476 0.929 . S
C468 H462 0.930 . S
C468 C469 1.367 . S
C468 C476 1.378 . S
C469 C468 1.367 . S
C469 C477 1.433 . S
C470 H466 0.929 . S
C470 C472 1.378 . S
C470 C474 1.350 . S
C471 C474 1.463 . S
C471 C476 1.350 . S
C471 N479 1.427 . S
C472 H463 0.930 . S
C472 C470 1.378 . S
C472 C473 1.367 . S
C473 C472 1.367 . S
C473 C475 1.433 . S
C474 C470 1.350 . S
C474 C471 1.463 . S
C474 N478 1.427 . S
C475 H465 0.929 . S
C475 C473 1.433 . S
C475 N478 1.384 . S
C476 H467 0.929 . S
C476 C468 1.378 . S
C476 C471 1.350 . S
C477 H464 0.929 . S
C477 C469 1.433 . S
C477 N479 1.384 . S
N478 C474 1.427 . S
N478 C475 1.384 . S
N479 C471 1.427 . S
N479 C477 1.384 . S
H480 C486 0.930 . S
H481 C490 0.930 . S
H482 C495 0.929 . S
H483 C493 0.929 . S
H484 C488 0.929 . S
H485 C494 0.929 . S
C486 H480 0.930 . S
C486 C487 1.367 . S
C486 C494 1.378 . S
C487 C486 1.367 . S
C487 C495 1.433 . S
C488 H484 0.929 . S
C488 C490 1.378 . S
C488 C492 1.350 . S
C489 C492 1.463 . S
C489 C494 1.350 . S
C489 N497 1.427 . S
C490 H481 0.930 . S
C490 C488 1.378 . S
C490 C491 1.367 . S
C491 C490 1.367 . S
C491 C493 1.433 . S
C492 C488 1.350 . S
C492 C489 1.463 . S
C492 N496 1.427 . S
C493 H483 0.929 . S
C493 C491 1.433 . S
C493 N496 1.384 . S
C494 H485 0.929 . S
C494 C486 1.378 . S
C494 C489 1.350 . S
C495 H482 0.929 . S
C495 C487 1.433 . S
C495 N497 1.384 . S
N496 C492 1.427 . S
N496 C493 1.384 . S
N497 C489 1.427 . S
N497 C495 1.384 . S
H498 C504 0.930 . S
H499 C508 0.930 . S
H500 C513 0.929 . S
H501 C511 0.929 . S
H502 C506 0.929 . S
H503 C512 0.929 . S
C504 H498 0.930 . S
C504 C505 1.367 . S
C504 C512 1.378 . S
C505 C504 1.367 . S
C505 C513 1.433 . S
C506 H502 0.929 . S
C506 C508 1.378 . S
C506 C510 1.350 . S
C507 C510 1.463 . S
C507 C512 1.350 . S
C507 N515 1.427 . S
C508 H499 0.930 . S
C508 C506 1.378 . S
C508 C509 1.367 . S
C509 C508 1.367 . S
C509 C511 1.433 . S
C510 C506 1.350 . S
C510 C507 1.463 . S
C510 N514 1.427 . S
C511 H501 0.929 . S
C511 C509 1.433 . S
C511 N514 1.384 . S
C512 H503 0.929 . S
C512 C504 1.378 . S
C512 C507 1.350 . S
C513 H500 0.929 . S
C513 C505 1.433 . S
C513 N515 1.384 . S
N514 C510 1.427 . S
N514 C511 1.384 . S
N515 C507 1.427 . S
N515 C513 1.384 . S
H516 C522 0.930 . S
H517 C526 0.930 . S
H518 C531 0.929 . S
H519 C529 0.929 . S
H520 C524 0.929 . S
H521 C530 0.929 . S
C522 H516 0.930 . S
C522 C523 1.367 . S
C522 C530 1.378 . S
C523 C522 1.367 . S
C523 C531 1.433 . S
C524 H520 0.929 . S
C524 C526 1.378 . S
C524 C528 1.350 . S
C525 C528 1.463 . S
C525 C530 1.350 . S
C525 N533 1.427 . S
C526 H517 0.930 . S
C526 C524 1.378 . S
C526 C527 1.367 . S
C527 C526 1.367 . S
C527 C529 1.433 . S
C528 C524 1.350 . S
C528 C525 1.463 . S
C528 N532 1.427 . S
C529 H519 0.929 . S
C529 C527 1.433 . S
C529 N532 1.384 . S
C530 H521 0.929 . S
C530 C522 1.378 . S
C530 C525 1.350 . S
C531 H518 0.929 . S
C531 C523 1.433 . S
C531 N533 1.384 . S
N532 C528 1.427 . S
N532 C529 1.384 . S
N533 C525 1.427 . S
N533 C531 1.384 . S
H534 C540 0.930 . S
H535 C544 0.930 . S
H536 C549 0.929 . S
H537 C547 0.929 . S
H538 C542 0.929 . S
H539 C548 0.929 . S
C540 H534 0.930 . S
C540 C541 1.367 . S
C540 C548 1.378 . S
C541 C540 1.367 . S
C541 C549 1.433 . S
C542 H538 0.929 . S
C542 C544 1.378 . S
C542 C546 1.350 . S
C543 C546 1.463 . S
C543 C548 1.350 . S
C543 N551 1.427 . S
C544 H535 0.930 . S
C544 C542 1.378 . S
C544 C545 1.367 . S
C545 C544 1.367 . S
C545 C547 1.433 . S
C546 C542 1.350 . S
C546 C543 1.463 . S
C546 N550 1.427 . S
C547 H537 0.929 . S
C547 C545 1.433 . S
C547 N550 1.384 . S
C548 H539 0.929 . S
C548 C540 1.378 . S
C548 C543 1.350 . S
C549 H536 0.929 . S
C549 C541 1.433 . S
C549 N551 1.384 . S
N550 C546 1.427 . S
N550 C547 1.384 . S
N551 C543 1.427 . S
N551 C549 1.384 . S
H552 C558 0.930 . S
H553 C562 0.930 . S
H554 C567 0.929 . S
H555 C565 0.929 . S
H556 C560 0.929 . S
H557 C566 0.929 . S
C558 H552 0.930 . S
C558 C559 1.367 . S
C558 C566 1.378 . S
C559 C558 1.367 . S
C559 C567 1.433 . S
C560 H556 0.929 . S
C560 C562 1.378 . S
C560 C564 1.350 . S
C561 C564 1.463 . S
C561 C566 1.350 . S
C561 N569 1.427 . S
C562 H553 0.930 . S
C562 C560 1.378 . S
C562 C563 1.367 . S
C563 C562 1.367 . S
C563 C565 1.433 . S
C564 C560 1.350 . S
C564 C561 1.463 . S
C564 N568 1.427 . S
C565 H555 0.929 . S
C565 C563 1.433 . S
C565 N568 1.384 . S
C566 H557 0.929 . S
C566 C558 1.378 . S
C566 C561 1.350 . S
C567 H554 0.929 . S
C567 C559 1.433 . S
C567 N569 1.384 . S
N568 C564 1.427 . S
N568 C565 1.384 . S
N569 C561 1.427 . S
N569 C567 1.384 . S
H570 C576 0.930 . S
H571 C580 0.930 . S
H572 C585 0.929 . S
H573 C583 0.929 . S
H574 C578 0.929 . S
H575 C584 0.929 . S
C576 H570 0.930 . S
C576 C577 1.367 . S
C576 C584 1.378 . S
C577 C576 1.367 . S
C577 C585 1.433 . S
C578 H574 0.929 . S
C578 C580 1.378 . S
C578 C582 1.350 . S
C579 C582 1.463 . S
C579 C584 1.350 . S
C579 N587 1.427 . S
C580 H571 0.930 . S
C580 C578 1.378 . S
C580 C581 1.367 . S
C581 C580 1.367 . S
C581 C583 1.433 . S
C582 C578 1.350 . S
C582 C579 1.463 . S
C582 N586 1.427 . S
C583 H573 0.929 . S
C583 C581 1.433 . S
C583 N586 1.384 . S
C584 H575 0.929 . S
C584 C576 1.378 . S
C584 C579 1.350 . S
C585 H572 0.929 . S
C585 C577 1.433 . S
C585 N587 1.384 . S
N586 C582 1.427 . S
N586 C583 1.384 . S
N587 C579 1.427 . S
N587 C585 1.384 . S
H588 C594 0.930 . S
H589 C598 0.930 . S
H590 C603 0.929 . S
H591 C601 0.929 . S
H592 C596 0.929 . S
H593 C602 0.929 . S
C594 H588 0.930 . S
C594 C595 1.367 . S
C594 C602 1.378 . S
C595 C594 1.367 . S
C595 C603 1.433 . S
C596 H592 0.929 . S
C596 C598 1.378 . S
C596 C600 1.350 . S
C597 C600 1.463 . S
C597 C602 1.350 . S
C597 N605 1.427 . S
C598 H589 0.930 . S
C598 C596 1.378 . S
C598 C599 1.367 . S
C599 C598 1.367 . S
C599 C601 1.433 . S
C600 C596 1.350 . S
C600 C597 1.463 . S
C600 N604 1.427 . S
C601 H591 0.929 . S
C601 C599 1.433 . S
C601 N604 1.384 . S
C602 H593 0.929 . S
C602 C594 1.378 . S
C602 C597 1.350 . S
C603 H590 0.929 . S
C603 C595 1.433 . S
C603 N605 1.384 . S
N604 C600 1.427 . S
N604 C601 1.384 . S
N605 C597 1.427 . S
N605 C603 1.384 . S
H606 C612 0.930 . S
H607 C616 0.930 . S
H608 C621 0.929 . S
H609 C619 0.929 . S
H610 C614 0.929 . S
H611 C620 0.929 . S
C612 H606 0.930 . S
C612 C613 1.367 . S
C612 C620 1.378 . S
C613 C612 1.367 . S
C613 C621 1.433 . S
C614 H610 0.929 . S
C614 C616 1.378 . S
C614 C618 1.350 . S
C615 C618 1.463 . S
C615 C620 1.350 . S
C615 N623 1.427 . S
C616 H607 0.930 . S
C616 C614 1.378 . S
C616 C617 1.367 . S
C617 C616 1.367 . S
C617 C619 1.433 . S
C618 C614 1.350 . S
C618 C615 1.463 . S
C618 N622 1.427 . S
C619 H609 0.929 . S
C619 C617 1.433 . S
C619 N622 1.384 . S
C620 H611 0.929 . S
C620 C612 1.378 . S
C620 C615 1.350 . S
C621 H608 0.929 . S
C621 C613 1.433 . S
C621 N623 1.384 . S
N622 C618 1.427 . S
N622 C619 1.384 . S
N623 C615 1.427 . S
N623 C621 1.384 . S
H624 C630 0.930 . S
H625 C634 0.930 . S
H626 C639 0.929 . S
H627 C637 0.929 . S
H628 C632 0.929 . S
H629 C638 0.929 . S
C630 H624 0.930 . S
C630 C631 1.367 . S
C630 C638 1.378 . S
C631 C630 1.367 . S
C631 C639 1.433 . S
C632 H628 0.929 . S
C632 C634 1.378 . S
C632 C636 1.350 . S
C633 C636 1.463 . S
C633 C638 1.350 . S
C633 N641 1.427 . S
C634 H625 0.930 . S
C634 C632 1.378 . S
C634 C635 1.367 . S
C635 C634 1.367 . S
C635 C637 1.433 . S
C636 C632 1.350 . S
C636 C633 1.463 . S
C636 N640 1.427 . S
C637 H627 0.929 . S
C637 C635 1.433 . S
C637 N640 1.384 . S
C638 H629 0.929 . S
C638 C630 1.378 . S
C638 C633 1.350 . S
C639 H626 0.929 . S
C639 C631 1.433 . S
C639 N641 1.384 . S
N640 C636 1.427 . S
N640 C637 1.384 . S
N641 C633 1.427 . S
N641 C639 1.384 . S
H642 C648 0.930 . S
H643 C652 0.930 . S
H644 C657 0.929 . S
H645 C655 0.929 . S
H646 C650 0.929 . S
H647 C656 0.929 . S
C648 H642 0.930 . S
C648 C649 1.367 . S
C648 C656 1.378 . S
C649 C648 1.367 . S
C649 C657 1.433 . S
C650 H646 0.929 . S
C650 C652 1.378 . S
C650 C654 1.350 . S
C651 C654 1.463 . S
C651 C656 1.350 . S
C651 N659 1.427 . S
C652 H643 0.930 . S
C652 C650 1.378 . S
C652 C653 1.367 . S
C653 C652 1.367 . S
C653 C655 1.433 . S
C654 C650 1.350 . S
C654 C651 1.463 . S
C654 N658 1.427 . S
C655 H645 0.929 . S
C655 C653 1.433 . S
C655 N658 1.384 . S
C656 H647 0.929 . S
C656 C648 1.378 . S
C656 C651 1.350 . S
C657 H644 0.929 . S
C657 C649 1.433 . S
C657 N659 1.384 . S
N658 C654 1.427 . S
N658 C655 1.384 . S
N659 C651 1.427 . S
N659 C657 1.384 . S
H660 C666 0.930 . S
H661 C670 0.930 . S
H662 C675 0.929 . S
H663 C673 0.929 . S
H664 C668 0.929 . S
H665 C674 0.929 . S
C666 H660 0.930 . S
C666 C667 1.367 . S
C666 C674 1.378 . S
C667 C666 1.367 . S
C667 C675 1.433 . S
C668 H664 0.929 . S
C668 C670 1.378 . S
C668 C672 1.350 . S
C669 C672 1.463 . S
C669 C674 1.350 . S
C669 N677 1.427 . S
C670 H661 0.930 . S
C670 C668 1.378 . S
C670 C671 1.367 . S
C671 C670 1.367 . S
C671 C673 1.433 . S
C672 C668 1.350 . S
C672 C669 1.463 . S
C672 N676 1.427 . S
C673 H663 0.929 . S
C673 C671 1.433 . S
C673 N676 1.384 . S
C674 H665 0.929 . S
C674 C666 1.378 . S
C674 C669 1.350 . S
C675 H662 0.929 . S
C675 C667 1.433 . S
C675 N677 1.384 . S
N676 C672 1.427 . S
N676 C673 1.384 . S
N677 C669 1.427 . S
N677 C675 1.384 . S
H678 C684 0.930 . S
H679 C688 0.930 . S
H680 C693 0.929 . S
H681 C691 0.929 . S
H682 C686 0.929 . S
H683 C692 0.929 . S
C684 H678 0.930 . S
C684 C685 1.367 . S
C684 C692 1.378 . S
C685 C684 1.367 . S
C685 C693 1.433 . S
C686 H682 0.929 . S
C686 C688 1.378 . S
C686 C690 1.350 . S
C687 C690 1.463 . S
C687 C692 1.350 . S
C687 N695 1.427 . S
C688 H679 0.930 . S
C688 C686 1.378 . S
C688 C689 1.367 . S
C689 C688 1.367 . S
C689 C691 1.433 . S
C690 C686 1.350 . S
C690 C687 1.463 . S
C690 N694 1.427 . S
C691 H681 0.929 . S
C691 C689 1.433 . S
C691 N694 1.384 . S
C692 H683 0.929 . S
C692 C684 1.378 . S
C692 C687 1.350 . S
C693 H680 0.929 . S
C693 C685 1.433 . S
C693 N695 1.384 . S
N694 C690 1.427 . S
N694 C691 1.384 . S
N695 C687 1.427 . S
N695 C693 1.384 . S
H696 C702 0.930 . S
H697 C706 0.930 . S
H698 C711 0.929 . S
H699 C709 0.929 . S
H700 C704 0.929 . S
H701 C710 0.929 . S
C702 H696 0.930 . S
C702 C703 1.367 . S
C702 C710 1.378 . S
C703 C702 1.367 . S
C703 C711 1.433 . S
C704 H700 0.929 . S
C704 C706 1.378 . S
C704 C708 1.350 . S
C705 C708 1.463 . S
C705 C710 1.350 . S
C705 N713 1.427 . S
C706 H697 0.930 . S
C706 C704 1.378 . S
C706 C707 1.367 . S
C707 C706 1.367 . S
C707 C709 1.433 . S
C708 C704 1.350 . S
C708 C705 1.463 . S
C708 N712 1.427 . S
C709 H699 0.929 . S
C709 C707 1.433 . S
C709 N712 1.384 . S
C710 H701 0.929 . S
C710 C702 1.378 . S
C710 C705 1.350 . S
C711 H698 0.929 . S
C711 C703 1.433 . S
C711 N713 1.384 . S
N712 C708 1.427 . S
N712 C709 1.384 . S
N713 C705 1.427 . S
N713 C711 1.384 . S
H714 C720 0.930 . S
H715 C724 0.930 . S
H716 C729 0.929 . S
H717 C727 0.929 . S
H718 C722 0.929 . S
H719 C728 0.929 . S
C720 H714 0.930 . S
C720 C721 1.367 . S
C720 C728 1.378 . S
C721 C720 1.367 . S
C721 C729 1.433 . S
C722 H718 0.929 . S
C722 C724 1.378 . S
C722 C726 1.350 . S
C723 C726 1.463 . S
C723 C728 1.350 . S
C723 N731 1.427 . S
C724 H715 0.930 . S
C724 C722 1.378 . S
C724 C725 1.367 . S
C725 C724 1.367 . S
C725 C727 1.433 . S
C726 C722 1.350 . S
C726 C723 1.463 . S
C726 N730 1.427 . S
C727 H717 0.929 . S
C727 C725 1.433 . S
C727 N730 1.384 . S
C728 H719 0.929 . S
C728 C720 1.378 . S
C728 C723 1.350 . S
C729 H716 0.929 . S
C729 C721 1.433 . S
C729 N731 1.384 . S
N730 C726 1.427 . S
N730 C727 1.384 . S
N731 C723 1.427 . S
N731 C729 1.384 . S
H732 C738 0.930 . S
H733 C742 0.930 . S
H734 C747 0.929 . S
H735 C745 0.929 . S
H736 C740 0.929 . S
H737 C746 0.929 . S
C738 H732 0.930 . S
C738 C739 1.367 . S
C738 C746 1.378 . S
C739 C738 1.367 . S
C739 C747 1.433 . S
C740 H736 0.929 . S
C740 C742 1.378 . S
C740 C744 1.350 . S
C741 C744 1.463 . S
C741 C746 1.350 . S
C741 N749 1.427 . S
C742 H733 0.930 . S
C742 C740 1.378 . S
C742 C743 1.367 . S
C743 C742 1.367 . S
C743 C745 1.433 . S
C744 C740 1.350 . S
C744 C741 1.463 . S
C744 N748 1.427 . S
C745 H735 0.929 . S
C745 C743 1.433 . S
C745 N748 1.384 . S
C746 H737 0.929 . S
C746 C738 1.378 . S
C746 C741 1.350 . S
C747 H734 0.929 . S
C747 C739 1.433 . S
C747 N749 1.384 . S
N748 C744 1.427 . S
N748 C745 1.384 . S
N749 C741 1.427 . S
N749 C747 1.384 . S
H750 C756 0.930 . S
H751 C760 0.930 . S
H752 C765 0.929 . S
H753 C763 0.929 . S
H754 C758 0.929 . S
H755 C764 0.929 . S
C756 H750 0.930 . S
C756 C757 1.367 . S
C756 C764 1.378 . S
C757 C756 1.367 . S
C757 C765 1.433 . S
C758 H754 0.929 . S
C758 C760 1.378 . S
C758 C762 1.350 . S
C759 C762 1.463 . S
C759 C764 1.350 . S
C759 N767 1.427 . S
C760 H751 0.930 . S
C760 C758 1.378 . S
C760 C761 1.367 . S
C761 C760 1.367 . S
C761 C763 1.433 . S
C762 C758 1.350 . S
C762 C759 1.463 . S
C762 N766 1.427 . S
C763 H753 0.929 . S
C763 C761 1.433 . S
C763 N766 1.384 . S
C764 H755 0.929 . S
C764 C756 1.378 . S
C764 C759 1.350 . S
C765 H752 0.929 . S
C765 C757 1.433 . S
C765 N767 1.384 . S
N766 C762 1.427 . S
N766 C763 1.384 . S
N767 C759 1.427 . S
N767 C765 1.384 . S
H768 C774 0.930 . S
H769 C778 0.930 . S
H770 C783 0.929 . S
H771 C781 0.929 . S
H772 C776 0.929 . S
H773 C782 0.929 . S
C774 H768 0.930 . S
C774 C775 1.367 . S
C774 C782 1.378 . S
C775 C774 1.367 . S
C775 C783 1.433 . S
C776 H772 0.929 . S
C776 C778 1.378 . S
C776 C780 1.350 . S
C777 C780 1.463 . S
C777 C782 1.350 . S
C777 N785 1.427 . S
C778 H769 0.930 . S
C778 C776 1.378 . S
C778 C779 1.367 . S
C779 C778 1.367 . S
C779 C781 1.433 . S
C780 C776 1.350 . S
C780 C777 1.463 . S
C780 N784 1.427 . S
C781 H771 0.929 . S
C781 C779 1.433 . S
C781 N784 1.384 . S
C782 H773 0.929 . S
C782 C774 1.378 . S
C782 C777 1.350 . S
C783 H770 0.929 . S
C783 C775 1.433 . S
C783 N785 1.384 . S
N784 C780 1.427 . S
N784 C781 1.384 . S
N785 C777 1.427 . S
N785 C783 1.384 . S
H786 C792 0.930 . S
H787 C796 0.930 . S
H788 C801 0.929 . S
H789 C799 0.929 . S
H790 C794 0.929 . S
H791 C800 0.929 . S
C792 H786 0.930 . S
C792 C793 1.367 . S
C792 C800 1.378 . S
C793 C792 1.367 . S
C793 C801 1.433 . S
C794 H790 0.929 . S
C794 C796 1.378 . S
C794 C798 1.350 . S
C795 C798 1.463 . S
C795 C800 1.350 . S
C795 N803 1.427 . S
C796 H787 0.930 . S
C796 C794 1.378 . S
C796 C797 1.367 . S
C797 C796 1.367 . S
C797 C799 1.433 . S
C798 C794 1.350 . S
C798 C795 1.463 . S
C798 N802 1.427 . S
C799 H789 0.929 . S
C799 C797 1.433 . S
C799 N802 1.384 . S
C800 H791 0.929 . S
C800 C792 1.378 . S
C800 C795 1.350 . S
C801 H788 0.929 . S
C801 C793 1.433 . S
C801 N803 1.384 . S
N802 C798 1.427 . S
N802 C799 1.384 . S
N803 C795 1.427 . S
N803 C801 1.384 . S
H804 C810 0.930 . S
H805 C814 0.930 . S
H806 C819 0.929 . S
H807 C817 0.929 . S
H808 C812 0.929 . S
H809 C818 0.929 . S
C810 H804 0.930 . S
C810 C811 1.367 . S
C810 C818 1.378 . S
C811 C810 1.367 . S
C811 C819 1.433 . S
C812 H808 0.929 . S
C812 C814 1.378 . S
C812 C816 1.350 . S
C813 C816 1.463 . S
C813 C818 1.350 . S
C813 N821 1.427 . S
C814 H805 0.930 . S
C814 C812 1.378 . S
C814 C815 1.367 . S
C815 C814 1.367 . S
C815 C817 1.433 . S
C816 C812 1.350 . S
C816 C813 1.463 . S
C816 N820 1.427 . S
C817 H807 0.929 . S
C817 C815 1.433 . S
C817 N820 1.384 . S
C818 H809 0.929 . S
C818 C810 1.378 . S
C818 C813 1.350 . S
C819 H806 0.929 . S
C819 C811 1.433 . S
C819 N821 1.384 . S
N820 C816 1.427 . S
N820 C817 1.384 . S
N821 C813 1.427 . S
N821 C819 1.384 . S
H822 C828 0.930 . S
H823 C832 0.930 . S
H824 C837 0.929 . S
H825 C835 0.929 . S
H826 C830 0.929 . S
H827 C836 0.929 . S
C828 H822 0.930 . S
C828 C829 1.367 . S
C828 C836 1.378 . S
C829 C828 1.367 . S
C829 C837 1.433 . S
C830 H826 0.929 . S
C830 C832 1.378 . S
C830 C834 1.350 . S
C831 C834 1.463 . S
C831 C836 1.350 . S
C831 N839 1.427 . S
C832 H823 0.930 . S
C832 C830 1.378 . S
C832 C833 1.367 . S
C833 C832 1.367 . S
C833 C835 1.433 . S
C834 C830 1.350 . S
C834 C831 1.463 . S
C834 N838 1.427 . S
C835 H825 0.929 . S
C835 C833 1.433 . S
C835 N838 1.384 . S
C836 H827 0.929 . S
C836 C828 1.378 . S
C836 C831 1.350 . S
C837 H824 0.929 . S
C837 C829 1.433 . S
C837 N839 1.384 . S
N838 C834 1.427 . S
N838 C835 1.384 . S
N839 C831 1.427 . S
N839 C837 1.384 . S
H840 C846 0.930 . S
H841 C850 0.930 . S
H842 C855 0.929 . S
H843 C853 0.929 . S
H844 C848 0.929 . S
H845 C854 0.929 . S
C846 H840 0.930 . S
C846 C847 1.367 . S
C846 C854 1.378 . S
C847 C846 1.367 . S
C847 C855 1.433 . S
C848 H844 0.929 . S
C848 C850 1.378 . S
C848 C852 1.350 . S
C849 C852 1.463 . S
C849 C854 1.350 . S
C849 N857 1.427 . S
C850 H841 0.930 . S
C850 C848 1.378 . S
C850 C851 1.367 . S
C851 C850 1.367 . S
C851 C853 1.433 . S
C852 C848 1.350 . S
C852 C849 1.463 . S
C852 N856 1.427 . S
C853 H843 0.929 . S
C853 C851 1.433 . S
C853 N856 1.384 . S
C854 H845 0.929 . S
C854 C846 1.378 . S
C854 C849 1.350 . S
C855 H842 0.929 . S
C855 C847 1.433 . S
C855 N857 1.384 . S
N856 C852 1.427 . S
N856 C853 1.384 . S
N857 C849 1.427 . S
N857 C855 1.384 . S
H858 C864 0.930 . S
H859 C868 0.930 . S
H860 C873 0.929 . S
H861 C871 0.929 . S
H862 C866 0.929 . S
H863 C872 0.929 . S
C864 H858 0.930 . S
C864 C865 1.367 . S
C864 C872 1.378 . S
C865 C864 1.367 . S
C865 C873 1.433 . S
C866 H862 0.929 . S
C866 C868 1.378 . S
C866 C870 1.350 . S
C867 C870 1.463 . S
C867 C872 1.350 . S
C867 N875 1.427 . S
C868 H859 0.930 . S
C868 C866 1.378 . S
C868 C869 1.367 . S
C869 C868 1.367 . S
C869 C871 1.433 . S
C870 C866 1.350 . S
C870 C867 1.463 . S
C870 N874 1.427 . S
C871 H861 0.929 . S
C871 C869 1.433 . S
C871 N874 1.384 . S
C872 H863 0.929 . S
C872 C864 1.378 . S
C872 C867 1.350 . S
C873 H860 0.929 . S
C873 C865 1.433 . S
C873 N875 1.384 . S
N874 C870 1.427 . S
N874 C871 1.384 . S
N875 C867 1.427 . S
N875 C873 1.384 . S
C451 C39 1.664 . S
C455 C327 1.494 . S
C469 C91 1.654 . S
C473 C348 1.513 . S
C491 C369 1.372 . S
C487 C128 1.482 . S
C509 C398 1.429 . S
C505 C188 1.480 . S
C527 C411 1.411 . S
C523 C250 1.522 . S
C545 C435 1.571 . S
C541 C304 1.661 . S
C559 C75 1.549 . S
C563 C379 1.405 . S
C577 C144 1.701 . S
C581 C393 1.582 . S
C599 C421 1.481 . S
C595 C198 1.598 . S
C617 C440 1.437 . S
C613 C234 1.510 . S
C631 C294 1.421 . S
C635 C337 1.348 . S
C653 C358 1.401 . S
C649 C29 1.499 . S
C671 C400 1.588 . S
C667 C38 1.686 . S
C685 C92 1.686 . S
C689 C414 1.510 . S
C707 C432 1.452 . S
C703 C135 1.510 . S
C721 C181 1.501 . S
C725 C330 1.355 . S
C739 C251 1.552 . S
C743 C351 1.401 . S
C757 C303 1.691 . S
C761 C372 1.481 . S
C775 C82 1.576 . S
C779 C442 1.487 . S
C797 C335 1.538 . S
C793 C145 1.727 . S
C811 C197 1.632 . S
C815 C356 1.472 . S
C829 C241 1.540 . S
C833 C377 1.399 . S
C847 C287 1.447 . S
C851 C390 1.408 . S
C865 C22 1.529 . S
C869 C419 1.391 . S
