# Generated by pormake.
# Topology pyr, (3,6)-cn, num edge types: 1
# Building blocks:
#     Node 0, Type 0, BuildingBlock: BELTOD_clean_linker_0, # of connection points: 3
#     Node 1, Type 0, BuildingBlock: BELTOD_clean_linker_0, # of connection points: 3
#     Node 2, Type 0, BuildingBlock: BELTOD_clean_linker_0, # of connection points: 3
#     Node 3, Type 0, BuildingBlock: BELTOD_clean_linker_0, # of connection points: 3
#     Node 4, Type 0, BuildingBlock: BELTOD_clean_linker_0, # of connection points: 3
#     Node 5, Type 0, BuildingBlock: BELTOD_clean_linker_0, # of connection points: 3
#     Node 6, Type 0, BuildingBlock: BELTOD_clean_linker_0, # of connection points: 3
#     Node 7, Type 0, BuildingBlock: BELTOD_clean_linker_0, # of connection points: 3
#     Node 8, Type 1, BuildingBlock: INOVEN_clean_sbu_0, # of connection points: 6
#     Node 9, Type 1, BuildingBlock: INOVEN_clean_sbu_0, # of connection points: 6
#     Node 10, Type 1, BuildingBlock: INOVEN_clean_sbu_0, # of connection points: 6
#     Node 11, Type 1, BuildingBlock: INOVEN_clean_sbu_0, # of connection points: 6
#     Edge 12, Type (0, 1), BuildingBlock: XUDNAN_clean_linker_2, # of connection points: 2
#     Edge 13, Type (0, 1), BuildingBlock: XUDNAN_clean_linker_2, # of connection points: 2
#     Edge 14, Type (0, 1), BuildingBlock: XUDNAN_clean_linker_2, # of connection points: 2
#     Edge 15, Type (0, 1), BuildingBlock: XUDNAN_clean_linker_2, # of connection points: 2
#     Edge 16, Type (0, 1), BuildingBlock: XUDNAN_clean_linker_2, # of connection points: 2
#     Edge 17, Type (0, 1), BuildingBlock: XUDNAN_clean_linker_2, # of connection points: 2
#     Edge 18, Type (0, 1), BuildingBlock: XUDNAN_clean_linker_2, # of connection points: 2
#     Edge 19, Type (0, 1), BuildingBlock: XUDNAN_clean_linker_2, # of connection points: 2
#     Edge 20, Type (0, 1), BuildingBlock: XUDNAN_clean_linker_2, # of connection points: 2
#     Edge 21, Type (0, 1), BuildingBlock: XUDNAN_clean_linker_2, # of connection points: 2
#     Edge 22, Type (0, 1), BuildingBlock: XUDNAN_clean_linker_2, # of connection points: 2
#     Edge 23, Type (0, 1), BuildingBlock: XUDNAN_clean_linker_2, # of connection points: 2
#     Edge 24, Type (0, 1), BuildingBlock: XUDNAN_clean_linker_2, # of connection points: 2
#     Edge 25, Type (0, 1), BuildingBlock: XUDNAN_clean_linker_2, # of connection points: 2
#     Edge 26, Type (0, 1), BuildingBlock: XUDNAN_clean_linker_2, # of connection points: 2
#     Edge 27, Type (0, 1), BuildingBlock: XUDNAN_clean_linker_2, # of connection points: 2
#     Edge 28, Type (0, 1), BuildingBlock: XUDNAN_clean_linker_2, # of connection points: 2
#     Edge 29, Type (0, 1), BuildingBlock: XUDNAN_clean_linker_2, # of connection points: 2
#     Edge 30, Type (0, 1), BuildingBlock: XUDNAN_clean_linker_2, # of connection points: 2
#     Edge 31, Type (0, 1), BuildingBlock: XUDNAN_clean_linker_2, # of connection points: 2
#     Edge 32, Type (0, 1), BuildingBlock: XUDNAN_clean_linker_2, # of connection points: 2
#     Edge 33, Type (0, 1), BuildingBlock: XUDNAN_clean_linker_2, # of connection points: 2
#     Edge 34, Type (0, 1), BuildingBlock: XUDNAN_clean_linker_2, # of connection points: 2
#     Edge 35, Type (0, 1), BuildingBlock: XUDNAN_clean_linker_2, # of connection points: 2
# Relax obj value: 0.102
# Max RMSD: 0.129
# Mean RMSD: 0.060
data_MOF--net-pyr--node1-INOVEN_clean_sbu_0--node2-BELTOD_clean_linker_0--edge1-XUDNAN_clean_linker_2
_symmetry_space_group_name_H-M    P1
_symmetry_Int_Tables_number       1
_symmetry_cell_setting            triclinic
loop_
_symmetry_equiv_pos_as_xyz
'x, y, z'
_cell_length_a     42.790531
_cell_length_b     46.569356
_cell_length_c     41.571873
_cell_angle_alpha  91.065354
_cell_angle_beta   89.067676
_cell_angle_gamma 100.78382
loop_
_atom_site_label
_atom_site_type_symbol
_atom_site_fract_x
_atom_site_fract_y
_atom_site_fract_z
_atom_type_partial_charge
P0 P 0.3573 0.29465 0.24074 0.0
H1 H 0.42083 0.29912 0.21279 0.0
H2 H 0.45097 0.26269 0.19253 0.0
H3 H 0.37062 0.19411 0.21383 0.0
H4 H 0.34041 0.23072 0.23285 0.0
H5 H 0.34221 0.35277 0.23817 0.0
H6 H 0.31127 0.37533 0.20042 0.0
H7 H 0.30483 0.29986 0.13719 0.0
H8 H 0.33596 0.2774 0.17513 0.0
H9 H 0.35575 0.26468 0.30187 0.0
H10 H 0.28742 0.28777 0.23654 0.0
O11 O 0.38237 0.31882 0.26259 0.0
H12 H 0.31221 0.2413 0.33696 0.0
H13 H 0.24425 0.26565 0.27177 0.0
C14 C 0.37865 0.26759 0.22484 0.0
C15 C 0.40976 0.27622 0.21302 0.0
C16 C 0.42702 0.25533 0.20167 0.0
C17 C 0.4134 0.22538 0.20188 0.0
C18 C 0.38184 0.21695 0.2131 0.0
C19 C 0.36458 0.23789 0.22428 0.0
C20 C 0.34184 0.31368 0.20918 0.0
C21 C 0.335 0.34147 0.21573 0.0
C22 C 0.31706 0.3542 0.1943 0.0
C23 C 0.30551 0.33927 0.16596 0.0
C24 C 0.31372 0.312 0.15867 0.0
C25 C 0.33156 0.29918 0.18029 0.0
C26 C 0.32498 0.27812 0.26668 0.0
C27 C 0.33143 0.26496 0.29524 0.0
C28 C 0.30652 0.25177 0.31535 0.0
C29 C 0.27466 0.25161 0.30723 0.0
C30 C 0.26841 0.26496 0.27858 0.0
C31 C 0.29328 0.27792 0.25844 0.0
P32 P 0.32567 0.89736 0.61444 0.0
H33 H 0.37024 0.87919 0.65813 0.0
H34 H 0.37175 0.8765 0.71673 0.0
H35 H 0.28578 0.91254 0.72406 0.0
H36 H 0.28393 0.91433 0.66564 0.0
H37 H 0.35437 0.87896 0.55501 0.0
H38 H 0.36024 0.83071 0.53376 0.0
H39 H 0.31075 0.79042 0.61765 0.0
H40 H 0.30472 0.83834 0.63839 0.0
H41 H 0.30562 0.95183 0.59826 0.0
H42 H 0.26343 0.86028 0.60345 0.0
O43 O 0.35563 0.92272 0.60105 0.0
H44 H 0.2549 0.96252 0.57998 0.0
H45 H 0.21301 0.87079 0.58513 0.0
C46 C 0.32693 0.89676 0.65757 0.0
C47 C 0.35171 0.88644 0.67243 0.0
C48 C 0.35256 0.88497 0.70589 0.0
C49 C 0.32876 0.89413 0.72507 0.0
C50 C 0.30409 0.90472 0.70999 0.0
C51 C 0.30319 0.90603 0.67651 0.0
C52 C 0.32993 0.86217 0.59863 0.0
C53 C 0.34486 0.85968 0.56875 0.0
C54 C 0.34805 0.83218 0.5566 0.0
C55 C 0.3359 0.80684 0.57403 0.0
C56 C 0.31998 0.80948 0.60345 0.0
C57 C 0.31697 0.83691 0.61559 0.0
C58 C 0.28852 0.90519 0.6012 0.0
C59 C 0.28553 0.93405 0.59533 0.0
C60 C 0.25653 0.94015 0.58523 0.0
C61 C 0.23022 0.9174 0.58094 0.0
C62 C 0.23311 0.88863 0.58779 0.0
C63 C 0.26198 0.88262 0.59813 0.0
P64 P 0.66917 0.34071 0.83843 0.0
H65 H 0.71977 0.31992 0.87045 0.0
H66 H 0.7648 0.34233 0.90286 0.0
H67 H 0.73462 0.42554 0.8983 0.0
H68 H 0.68886 0.40256 0.86533 0.0
H69 H 0.63902 0.28158 0.81732 0.0
H70 H 0.61564 0.23716 0.84589 0.0
H71 H 0.62191 0.28585 0.93547 0.0
H72 H 0.64613 0.3306 0.90662 0.0
H73 H 0.68667 0.39882 0.80737 0.0
H74 H 0.6055 0.32856 0.80925 0.0
O75 O 0.68946 0.32484 0.8109 0.0
H76 H 0.66293 0.4215 0.76335 0.0
H77 H 0.58239 0.3505 0.76449 0.0
C78 C 0.70071 0.35935 0.86503 0.0
C79 C 0.72253 0.34299 0.87644 0.0
C80 C 0.74846 0.35594 0.8952 0.0
C81 C 0.75367 0.38592 0.90354 0.0
C82 C 0.73173 0.4025 0.89219 0.0
C83 C 0.70538 0.38931 0.87335 0.0
C84 C 0.64476 0.30975 0.85959 0.0
C85 C 0.63498 0.28305 0.84303 0.0
C86 C 0.6216 0.25745 0.8595 0.0
C87 C 0.617 0.25763 0.89316 0.0
C88 C 0.62491 0.28477 0.90959 0.0
C89 C 0.6388 0.31047 0.89303 0.0
C90 C 0.64748 0.36236 0.81316 0.0
C91 C 0.6631 0.38883 0.7995 0.0
C92 C 0.64961 0.40173 0.77384 0.0
C93 C 0.62058 0.38801 0.76014 0.0
C94 C 0.60468 0.36189 0.77431 0.0
C95 C 0.61784 0.34937 0.80034 0.0
P96 P 0.83838 0.69179 0.32515 0.0
H97 H 0.85092 0.75503 0.31326 0.0
H98 H 0.87517 0.79771 0.34489 0.0
H99 H 0.9043 0.74087 0.41494 0.0
H100 H 0.87844 0.69816 0.38365 0.0
H101 H 0.84011 0.69599 0.25489 0.0
H102 H 0.86496 0.67269 0.21169 0.0
H103 H 0.91083 0.62697 0.28099 0.0
H104 H 0.88414 0.64992 0.32489 0.0
H105 H 0.80617 0.69983 0.38676 0.0
H106 H 0.81356 0.62808 0.32205 0.0
O107 O 0.81097 0.70581 0.30578 0.0
H108 H 0.76287 0.66896 0.41607 0.0
H109 H 0.77097 0.5968 0.35168 0.0
C110 C 0.86225 0.7231 0.34619 0.0
C111 C 0.86269 0.75163 0.33534 0.0
C112 C 0.8769 0.77629 0.35352 0.0
C113 C 0.8915 0.77328 0.38312 0.0
C114 C 0.8926 0.74449 0.39291 0.0
C115 C 0.87811 0.71981 0.37477 0.0
C116 C 0.85991 0.67486 0.29358 0.0
C117 C 0.85544 0.68099 0.26118 0.0
C118 C 0.87016 0.66767 0.23611 0.0
C119 C 0.89055 0.6479 0.24225 0.0
C120 C 0.89523 0.6418 0.2749 0.0
C121 C 0.88016 0.65515 0.30021 0.0
C122 C 0.81398 0.66628 0.35249 0.0
C123 C 0.79942 0.67708 0.37957 0.0
C124 C 0.77437 0.65931 0.39636 0.0
C125 C 0.76282 0.63024 0.38628 0.0
C126 C 0.77858 0.61914 0.36003 0.0
C127 C 0.80351 0.63696 0.34323 0.0
P128 P 0.71881 0.81706 0.91149 0.0
H129 H 0.67571 0.83283 0.96002 0.0
H130 H 0.62714 0.85272 0.95595 0.0
H131 H 0.62428 0.83323 0.85399 0.0
H132 H 0.67209 0.81163 0.85856 0.0
H133 H 0.73396 0.80326 0.97691 0.0
H134 H 0.74874 0.75976 0.99933 0.0
H135 H 0.72342 0.71272 0.91007 0.0
H136 H 0.7076 0.75623 0.88816 0.0
H137 H 0.71684 0.8541 0.85548 0.0
H138 H 0.77051 0.78975 0.88533 0.0
O139 O 0.73807 0.84425 0.93446 0.0
H140 H 0.74733 0.86033 0.80542 0.0
H141 H 0.80243 0.79714 0.83635 0.0
C142 C 0.67827 0.82214 0.90933 0.0
C143 C 0.66403 0.83184 0.93699 0.0
C144 C 0.63615 0.84304 0.93467 0.0
C145 C 0.62234 0.84491 0.90453 0.0
C146 C 0.63473 0.83225 0.87741 0.0
C147 C 0.66223 0.82027 0.87997 0.0
C148 C 0.72078 0.78313 0.93052 0.0
C149 C 0.73084 0.7834 0.96241 0.0
C150 C 0.73936 0.75853 0.97519 0.0
C151 C 0.73809 0.73307 0.95617 0.0
C152 C 0.72475 0.73199 0.92534 0.0
C153 C 0.71587 0.75687 0.9127 0.0
C154 C 0.73983 0.82003 0.87335 0.0
C155 C 0.73454 0.84065 0.85092 0.0
C156 C 0.75254 0.84464 0.82249 0.0
C157 C 0.77722 0.82899 0.81652 0.0
C158 C 0.78296 0.80885 0.83949 0.0
C159 C 0.76459 0.80457 0.86766 0.0
P160 P 0.85339 0.27285 0.37863 0.0
H161 H 0.84981 0.3251 0.41824 0.0
H162 H 0.80625 0.33981 0.44942 0.0
H163 H 0.74548 0.25759 0.42438 0.0
H164 H 0.78939 0.2427 0.3948 0.0
H165 H 0.89337 0.23282 0.35449 0.0
H166 H 0.91043 0.19075 0.37849 0.0
H167 H 0.86927 0.21112 0.46967 0.0
H168 H 0.85203 0.25296 0.4456 0.0
H169 H 0.8369 0.30155 0.32111 0.0
H170 H 0.82569 0.21357 0.35616 0.0
O171 O 0.88177 0.30182 0.3711 0.0
H172 H 0.80488 0.28331 0.27403 0.0
H173 H 0.79414 0.19533 0.30941 0.0
C174 C 0.8225 0.28316 0.40356 0.0
C175 C 0.82716 0.31022 0.41975 0.0
C176 C 0.8022 0.3186 0.43749 0.0
C177 C 0.7722 0.30002 0.43917 0.0
C178 C 0.76826 0.27237 0.42399 0.0
C179 C 0.79326 0.26396 0.40659 0.0
C180 C 0.87059 0.2454 0.39797 0.0
C181 C 0.88834 0.22841 0.37972 0.0
C182 C 0.89802 0.20443 0.39341 0.0
C183 C 0.89072 0.19755 0.42577 0.0
C184 C 0.87513 0.21598 0.44466 0.0
C185 C 0.86508 0.23976 0.43082 0.0
C186 C 0.8346 0.25886 0.34161 0.0
C187 C 0.82827 0.27826 0.31826 0.0
C188 C 0.80976 0.26787 0.29157 0.0
C189 C 0.79723 0.23786 0.2879 0.0
C190 C 0.80404 0.21847 0.31116 0.0
C191 C 0.82227 0.22891 0.33789 0.0
P192 P 0.37537 0.689 0.19709 0.0
H193 H 0.34776 0.69767 0.13535 0.0
H194 H 0.29735 0.67826 0.10964 0.0
H195 H 0.26405 0.63109 0.19575 0.0
H196 H 0.31519 0.65089 0.22162 0.0
H197 H 0.43953 0.72456 0.19655 0.0
H198 H 0.4619 0.77305 0.17614 0.0
H199 H 0.36738 0.78935 0.16106 0.0
H200 H 0.34491 0.7405 0.18186 0.0
H201 H 0.36983 0.6295 0.2219 0.0
H202 H 0.3995 0.71684 0.25959 0.0
O203 O 0.3982 0.67279 0.1725 0.0
H204 H 0.3855 0.60936 0.27187 0.0
H205 H 0.41578 0.69701 0.30951 0.0
C206 C 0.33536 0.67659 0.18087 0.0
C207 C 0.3295 0.68364 0.14911 0.0
C208 C 0.30046 0.67231 0.13429 0.0
C209 C 0.2761 0.65314 0.15052 0.0
C210 C 0.2821 0.64565 0.18232 0.0
C211 C 0.31134 0.65727 0.19732 0.0
C212 C 0.39041 0.7283 0.19066 0.0
C213 C 0.42342 0.7387 0.18971 0.0
C214 C 0.43626 0.76658 0.17776 0.0
C215 C 0.41659 0.78529 0.16641 0.0
C216 C 0.38339 0.77577 0.16957 0.0
C217 C 0.37048 0.74761 0.18144 0.0
C218 C 0.3827 0.67484 0.23684 0.0
C219 C 0.37929 0.64445 0.24113 0.0
C220 C 0.38879 0.63287 0.26977 0.0
C221 C 0.40215 0.65128 0.2953 0.0
C222 C 0.40524 0.68181 0.29096 0.0
C223 C 0.39581 0.69336 0.2622 0.0
P224 P 0.17961 0.34415 0.71632 0.0
H225 H 0.20502 0.3105 0.66619 0.0
H226 H 0.18375 0.26627 0.63573 0.0
H227 H 0.09017 0.26764 0.67493 0.0
H228 H 0.11171 0.31273 0.70554 0.0
H229 H 0.24862 0.34653 0.70905 0.0
H230 H 0.29035 0.37601 0.67714 0.0
H231 H 0.2222 0.42583 0.64299 0.0
H232 H 0.18012 0.39491 0.67387 0.0
H233 H 0.12635 0.32294 0.7607 0.0
H234 H 0.18221 0.4066 0.73593 0.0
O235 O 0.19845 0.32609 0.7417 0.0
H236 H 0.10178 0.34575 0.8053 0.0
H237 H 0.15822 0.42953 0.78093 0.0
C238 C 0.16023 0.31546 0.6884 0.0
C239 C 0.17972 0.302 0.66778 0.0
C240 C 0.16749 0.27638 0.65036 0.0
C241 C 0.1352 0.26305 0.65289 0.0
C242 C 0.11511 0.2773 0.67219 0.0
C243 C 0.12753 0.30312 0.68993 0.0
C244 C 0.21101 0.36864 0.69447 0.0
C245 C 0.24256 0.36398 0.69498 0.0
C246 C 0.26672 0.38114 0.67667 0.0
C247 C 0.26021 0.40368 0.65716 0.0
C248 C 0.22849 0.40851 0.65708 0.0
C249 C 0.20422 0.39099 0.67511 0.0
C250 C 0.15539 0.36292 0.74358 0.0
C251 C 0.13256 0.34642 0.76395 0.0
C252 C 0.11894 0.35954 0.79014 0.0
C253 C 0.12798 0.38969 0.79731 0.0
C254 C 0.15014 0.4064 0.77625 0.0
C255 C 0.16384 0.39319 0.75007 0.0
Gd256 Gd 1.00948 0.03157 0.48603 0.0
Gd257 Gd 1.00377 1.0082 0.5531 0.0
C258 C 0.04231 0.07259 0.54695 0.0
C259 C 1.01027 0.06383 0.4361 0.0
C260 C 0.03274 0.08974 0.42461 0.0
C261 C 0.04888 0.08784 0.39525 0.0
C262 C 0.04087 0.11509 0.44389 0.0
C263 C 0.08308 0.13496 0.4059 0.0
C264 C 0.06568 0.13754 0.43452 0.0
C265 C 0.07387 0.11007 0.38608 0.0
C266 C 0.05596 1.00323 0.50169 0.0
C267 C 0.97591 0.96457 0.49256 0.0
C268 C 1.00124 0.97801 0.60483 0.0
C269 C 0.97714 0.95547 0.61986 0.0
C270 C 0.94462 0.95565 0.61623 0.0
C271 C 0.98658 0.93395 0.63858 0.0
C272 C 0.93128 0.91444 0.65208 0.0
C273 C 0.96378 0.91345 0.6545 0.0
C274 C 0.92188 0.93543 0.63243 0.0
C275 C 0.95597 0.03459 0.53389 0.0
O276 O 0.02904 0.07211 0.51814 0.0
O277 O 0.04074 0.04809 0.56285 0.0
O278 O 0.0216 0.03964 0.43593 0.0
O279 O 0.99337 0.06707 0.46204 0.0
O280 O 0.04462 1.003 0.47301 0.0
O281 O 0.04438 1.0204 0.52008 0.0
O282 O 0.9866 0.96738 0.52247 0.0
O283 O 0.9778 0.98783 0.47413 0.0
O284 O 0.99434 1.0042 0.60411 0.0
O285 O 1.01395 0.97043 0.57788 0.0
O286 O 0.96819 0.03838 0.56228 0.0
O287 O 0.96912 1.01704 0.51808 0.0
H288 H 0.04312 0.06847 0.38005 0.0
H289 H 0.02884 0.11723 0.46669 0.0
H290 H 0.07164 0.15662 0.45009 0.0
H291 H 0.08689 0.10699 0.36413 0.0
H292 H 0.93682 0.97182 0.60145 0.0
H293 H 1.01159 0.9334 0.64143 0.0
H294 H 0.97159 0.89757 0.66969 0.0
H295 H 0.89694 0.93643 0.62997 0.0
Gd296 Gd 0.54663 0.03168 0.0556 0.0
Gd297 Gd 0.48251 0.02727 0.03451 0.0
C298 C 0.49938 0.06681 0.09493 0.0
C299 C 0.60374 0.04675 0.07757 0.0
C300 C 0.62207 0.0712 0.09629 0.0
C301 C 0.64 0.06501 0.1223 0.0
C302 C 0.6217 0.10047 0.08897 0.0
C303 C 0.65745 0.11704 0.13341 0.0
C304 C 0.63934 0.12317 0.10728 0.0
C305 C 0.65737 0.08765 0.14076 0.0
C306 C 0.51096 0.97822 0.06945 0.0
C307 C 0.53014 0.99636 0.99166 0.0
C308 C 0.42472 1.01136 1.01441 0.0
C309 C 0.40767 0.98802 0.99371 0.0
C310 C 0.42222 0.96491 0.98302 0.0
C311 C 0.37761 0.99018 0.98233 0.0
C312 C 0.3782 0.94811 0.947 0.0
C313 C 0.36286 0.97027 0.95921 0.0
C314 C 0.40765 0.94515 0.95969 0.0
C315 C 0.52196 0.07801 1.01487 0.0
O316 O 0.52897 0.06651 0.08583 0.0
O317 O 0.47571 0.04914 0.08124 0.0
O318 O 0.58081 0.02992 0.09311 0.0
O319 O 0.59591 0.05224 0.04836 0.0
O320 O 0.53999 0.98312 0.05881 0.0
O321 O 0.50136 1.00246 0.07312 0.0
O322 O 0.50057 0.99446 1.00191 0.0
O323 O 0.55364 1.01369 1.0063 0.0
O324 O 0.44621 0.03049 0.99983 0.0
O325 O 0.43444 1.00335 0.04186 0.0
O326 O 0.49308 0.07667 0.02555 0.0
O327 O 0.52814 0.05255 1.01481 0.0
H328 H 0.64039 0.04258 0.12849 0.0
H329 H 0.60785 0.10583 0.06912 0.0
H330 H 0.63906 0.14551 0.10071 0.0
H331 H 0.6704 0.08202 0.1611 0.0
H332 H 0.44529 0.96272 0.99183 0.0
H333 H 0.36612 1.00795 0.99035 0.0
H334 H 0.34034 0.97325 0.94956 0.0
H335 H 0.41984 0.92815 0.95079 0.0
Gd336 Gd 0.50932 0.49207 0.50177 0.0
Gd337 Gd 0.51519 0.54001 0.54723 0.0
C338 C 0.54169 0.48613 0.57297 0.0
C339 C 0.52051 0.44876 0.46661 0.0
C340 C 0.54406 0.42983 0.47002 0.0
C341 C 0.53711 0.40052 0.4598 0.0
C342 C 0.57339 0.44082 0.48451 0.0
C343 C 0.58923 0.39372 0.47718 0.0
C344 C 0.59581 0.42295 0.48794 0.0
C345 C 0.55954 0.38251 0.46343 0.0
C346 C 0.45373 0.49287 0.53355 0.0
C347 C 0.48311 0.54674 0.47657 0.0
C348 C 0.50309 0.58258 0.58298 0.0
C349 C 0.47948 0.60136 0.57962 0.0
C350 C 0.48619 0.63035 0.59078 0.0
C351 C 0.45102 0.59102 0.56325 0.0
C352 C 0.43655 0.63886 0.5684 0.0
C353 C 0.42973 0.60962 0.55768 0.0
C354 C 0.46484 0.64896 0.58532 0.0
C355 C 0.56943 0.54089 0.51123 0.0
O356 O 0.53828 0.47717 0.54248 0.0
O357 O 0.53241 0.51039 0.58228 0.0
O358 O 0.49814 0.44596 0.48868 0.0
O359 O 0.53215 0.47607 0.46016 0.0
O360 O 0.45629 0.48742 0.50302 0.0
O361 O 0.48103 0.49753 0.54633 0.0
O362 O 0.48534 0.55469 0.50741 0.0
O363 O 0.4938 0.52319 0.46667 0.0
O364 O 0.52561 0.5859 0.56106 0.0
O365 O 0.49162 0.55514 0.58888 0.0
O366 O 0.56923 0.5476 0.5417 0.0
O367 O 0.54113 0.53489 0.50155 0.0
H368 H 0.51446 0.39164 0.44888 0.0
H369 H 0.57907 0.4633 0.49304 0.0
H370 H 0.61836 0.43202 0.49895 0.0
H371 H 0.55401 0.36008 0.45475 0.0
H372 H 0.50809 0.63866 0.60335 0.0
H373 H 0.44549 0.56869 0.55424 0.0
H374 H 0.40831 0.60129 0.54435 0.0
H375 H 0.47046 0.67126 0.59438 0.0
Gd376 Gd 0.02083 0.49091 0.04847 0.0
Gd377 Gd 1.01087 0.54398 1.00314 0.0
C378 C 0.07489 0.55105 0.0473 0.0
C379 C 0.03752 0.44402 0.06884 0.0
C380 C 0.06655 0.43158 0.06977 0.0
C381 C 0.06743 0.4082 0.09019 0.0
C382 C 0.09403 0.444 0.0524 0.0
C383 C 0.12348 0.41047 0.07722 0.0
C384 C 0.12229 0.43336 0.05594 0.0
C385 C 0.09564 0.39774 0.09393 0.0
C386 C 0.9863 0.52751 0.08015 0.0
C387 C 0.95526 0.48498 1.00707 0.0
C388 C 0.99243 0.59006 0.98322 0.0
C389 C 0.96273 0.6012 0.98686 0.0
C390 C 0.96057 0.62839 0.97428 0.0
C391 C 0.93593 0.58412 1.00144 0.0
C392 C 0.90452 0.62098 0.9897 0.0
C393 C 0.90699 0.59391 1.00279 0.0
C394 C 0.9317 0.63826 0.97572 0.0
C395 C 0.04493 0.50755 0.97071 0.0
O396 O 0.06798 0.5228 0.05446 0.0
O397 O 0.05578 0.56376 0.0297 0.0
O398 O 0.03781 0.46745 0.08681 0.0
O399 O 0.02493 0.44564 0.04055 0.0
O400 O 0.99342 0.50421 0.09252 0.0
O401 O 0.99717 0.5287 0.05165 0.0
O402 O 0.96316 0.51291 0.999 0.0
O403 O 0.97428 0.47173 0.02417 0.0
O404 O 0.99029 0.56597 0.96597 0.0
O405 O 1.00905 0.58993 1.00941 0.0
O406 O 0.03799 0.53118 0.95899 0.0
O407 O 0.03436 0.50585 0.99941 0.0
H408 H 0.04645 0.39846 0.10384 0.0
H409 H 0.09382 0.46233 0.03679 0.0
H410 H 0.14344 0.44371 0.04297 0.0
H411 H 0.09577 0.37986 0.1102 0.0
H412 H 0.98103 0.64173 0.9628 0.0
H413 H 0.93728 0.56304 1.01135 0.0
H414 H 0.88656 0.58028 1.01397 0.0
H415 H 0.93043 0.65904 0.96504 0.0
H416 H 0.21735 0.21894 0.28868 0.0
H417 H 0.2715 0.25186 0.3734 0.0
H418 H 0.2273 0.22758 0.40804 0.0
H419 H 0.14012 0.22796 0.32089 0.0
H420 H 0.11945 0.19512 0.30139 0.0
H421 H 0.15516 0.21557 0.28339 0.0
H422 H 0.18043 0.16912 0.28232 0.0
H423 H 0.14484 0.14855 0.30031 0.0
H424 H 0.18273 0.1498 0.31914 0.0
H425 H 0.17792 0.19791 0.43332 0.0
H426 H 0.12777 0.1648 0.44725 0.0
H427 H 0.10464 0.15435 0.34581 0.0
C428 C 0.21981 0.22149 0.31451 0.0
C429 C 0.24798 0.23737 0.32827 0.0
C430 C 0.25037 0.23951 0.36224 0.0
C431 C 0.22528 0.22601 0.38213 0.0
C432 C 0.19787 0.21061 0.3677 0.0
C433 C 0.19498 0.20837 0.33466 0.0
C434 C 0.16335 0.19003 0.32513 0.0
C435 C 0.14334 0.20827 0.30661 0.0
C436 C 0.16814 0.16276 0.30558 0.0
C437 C 0.14902 0.18196 0.35798 0.0
C438 C 0.16924 0.19408 0.38224 0.0
C439 C 0.1617 0.18862 0.41454 0.0
C440 C 0.13296 0.16993 0.42221 0.0
C441 C 0.11197 0.15697 0.39769 0.0
C442 C 0.12011 0.16361 0.3652 0.0
H443 H 0.38162 0.9096 0.76213 0.0
H444 H 0.27951 0.87903 0.76844 0.0
H445 H 0.28195 0.88363 0.82769 0.0
H446 H 0.40183 0.87409 0.8368 0.0
H447 H 0.43291 0.90469 0.8465 0.0
H448 H 0.42357 0.89532 0.80504 0.0
H449 H 0.41464 0.94805 0.79554 0.0
H450 H 0.42389 0.95753 0.83684 0.0
H451 H 0.38654 0.96276 0.82071 0.0
H452 H 0.29463 0.89776 0.88529 0.0
H453 H 0.31682 0.9199 0.93661 0.0
H454 H 0.41064 0.93919 0.89226 0.0
C455 C 0.35989 0.90295 0.77596 0.0
C456 C 0.33039 0.89391 0.76066 0.0
C457 C 0.30236 0.88629 0.77966 0.0
C458 C 0.30355 0.88855 0.81331 0.0
C459 C 0.33299 0.8981 0.82757 0.0
C460 C 0.36069 0.90491 0.80948 0.0
C461 C 0.3889 0.91701 0.8303 0.0
C462 C 0.41324 0.89655 0.82962 0.0
C463 C 0.40437 0.94818 0.82025 0.0
C464 C 0.37256 0.91697 0.8628 0.0
C465 C 0.34037 0.90569 0.86086 0.0
C466 C 0.31991 0.90604 0.88727 0.0
C467 C 0.33264 0.91872 0.91622 0.0
C468 C 0.36546 0.93078 0.91841 0.0
C469 C 0.38564 0.92928 0.89152 0.0
H470 H 0.61047 0.44407 0.74429 0.0
H471 H 0.60357 0.35614 0.70534 0.0
H472 H 0.58481 0.37192 0.65388 0.0
H473 H 0.53856 0.45777 0.70631 0.0
H474 H 0.55424 0.49576 0.69874 0.0
H475 H 0.56846 0.47809 0.73227 0.0
H476 H 0.62621 0.49322 0.71094 0.0
H477 H 0.61214 0.51085 0.67729 0.0
H478 H 0.63592 0.48314 0.67042 0.0
H479 H 0.5681 0.39748 0.60531 0.0
H480 H 0.54993 0.42933 0.56565 0.0
H481 H 0.56325 0.50069 0.63571 0.0
C482 C 0.60509 0.42818 0.72488 0.0
C483 C 0.60865 0.39867 0.72918 0.0
C484 C 0.60094 0.37869 0.70304 0.0
C485 C 0.59037 0.38754 0.67351 0.0
C486 C 0.58702 0.41658 0.67006 0.0
C487 C 0.59374 0.43658 0.69516 0.0
C488 C 0.58665 0.46618 0.68529 0.0
C489 C 0.56042 0.47497 0.70694 0.0
C490 C 0.61704 0.48974 0.68603 0.0
C491 C 0.57508 0.4597 0.65082 0.0
C492 C 0.57593 0.431 0.64248 0.0
C493 C 0.56716 0.41992 0.61178 0.0
C494 C 0.55689 0.43834 0.58923 0.0
C495 C 0.55484 0.46771 0.59717 0.0
C496 C 0.56428 0.4784 0.62862 0.0
H497 H 0.90698 0.59225 0.23657 0.0
H498 H 0.91172 0.67281 0.18417 0.0
H499 H 0.93419 0.65069 0.13719 0.0
H500 H 0.98231 0.57676 0.20483 0.0
H501 H 0.96837 0.53778 0.203 0.0
H502 H 0.95192 0.55972 0.23258 0.0
H503 H 0.89535 0.53918 0.21169 0.0
H504 H 0.91166 0.51736 0.18188 0.0
H505 H 0.88691 0.54247 0.16971 0.0
H506 H 0.95527 0.61899 0.09401 0.0
H507 H 0.97691 0.58195 0.06137 0.0
H508 H 0.96174 0.52295 0.14178 0.0
C509 C 0.91298 0.60544 0.21541 0.0
C510 C 0.90664 0.63437 0.21445 0.0
C511 C 0.91508 0.65043 0.18579 0.0
C512 C 0.92822 0.63807 0.15878 0.0
C513 C 0.93346 0.60948 0.16034 0.0
C514 C 0.92648 0.59347 0.18809 0.0
C515 C 0.93516 0.56335 0.18357 0.0
C516 C 0.96097 0.55916 0.20741 0.0
C517 C 0.9055 0.53916 0.18691 0.0
C518 C 0.94798 0.56495 0.14906 0.0
C519 C 0.94657 0.59169 0.13596 0.0
C520 C 0.95665 0.59807 0.10424 0.0
C521 C 0.9689 0.57685 0.0857 0.0
C522 C 0.97128 0.54951 0.09875 0.0
C523 C 0.96038 0.54363 0.13091 0.0
H524 H 0.39219 0.17532 0.16639 0.0
H525 H 0.47675 0.22482 0.21142 0.0
H526 H 0.50768 0.18823 0.19148 0.0
H527 H 0.40838 0.1032 0.1838 0.0
H528 H 0.39271 0.08768 0.14602 0.0
H529 H 0.37718 0.11746 0.16454 0.0
H530 H 0.38998 0.14755 0.11253 0.0
H531 H 0.40543 0.11785 0.09386 0.0
H532 H 0.42994 0.15377 0.09623 0.0
H533 H 0.52994 0.14711 0.16424 0.0
H534 H 0.54141 0.10511 0.13181 0.0
H535 H 0.44153 0.08181 0.10724 0.0
C536 C 0.41708 0.1783 0.17256 0.0
C537 C 0.43198 0.20304 0.19048 0.0
C538 C 0.46484 0.20631 0.19735 0.0
C539 C 0.48257 0.1855 0.18637 0.0
C540 C 0.46709 0.1614 0.16875 0.0
C541 C 0.43506 0.15769 0.162 0.0
C542 C 0.42419 0.13034 0.1419 0.0
C543 C 0.39914 0.10837 0.16016 0.0
C544 C 0.41166 0.13784 0.1092 0.0
C545 C 0.45519 0.11938 0.13808 0.0
C546 C 0.4797 0.13753 0.15375 0.0
C547 C 0.51085 0.13256 0.15218 0.0
C548 C 0.51713 0.10865 0.13374 0.0
C549 C 0.49235 0.08999 0.11723 0.0
C550 C 0.46096 0.09532 0.11996 0.0
H551 H 0.19786 0.96048 0.59991 0.0
H552 H 0.19577 0.88825 0.53203 0.0
H553 H 0.148 0.90028 0.50707 0.0
H554 H 0.11025 0.95324 0.60842 0.0
H555 H 0.11245 0.99224 0.61116 0.0
H556 H 0.14467 0.97626 0.62574 0.0
H557 H 0.18422 1.01023 0.58885 0.0
H558 H 0.15215 0.02617 0.57408 0.0
H559 H 0.17699 1.01016 0.54624 0.0
H560 H 0.10508 0.92324 0.48569 0.0
H561 H 0.0668 0.95424 0.47099 0.0
H562 H 0.09489 1.01057 0.55389 0.0
C563 C 0.18705 0.94705 0.58003 0.0
C564 C 0.20032 0.92343 0.56785 0.0
C565 C 0.18565 0.90622 0.54188 0.0
C566 C 0.15861 0.91292 0.52754 0.0
C567 C 0.14639 0.93662 0.53978 0.0
C568 C 0.15982 0.95323 0.56567 0.0
C569 C 0.14268 0.97825 0.57324 0.0
C570 C 0.12656 0.97478 0.60662 0.0
C571 C 0.16537 1.00795 0.57041 0.0
C572 C 0.11832 0.97373 0.54677 0.0
C573 C 0.12082 0.9495 0.52786 0.0
C574 C 0.10247 0.94197 0.50059 0.0
C575 C 0.08101 0.95977 0.49234 0.0
C576 C 0.07803 0.98458 0.51144 0.0
C577 C 0.09657 0.99145 0.5392 0.0
H578 H 0.7961 0.43983 0.89936 0.0
H579 H 0.77465 0.36119 0.95628 0.0
H580 H 0.82221 0.37852 0.98869 0.0
H581 H 0.88069 0.44586 0.89783 0.0
H582 H 0.88982 0.48513 0.90188 0.0
H583 H 0.85319 0.46756 0.88351 0.0
H584 H 0.82123 0.49335 0.9246 0.0
H585 H 0.8578 0.51109 0.94303 0.0
H586 H 0.82697 0.48947 0.96706 0.0
H587 H 0.87379 0.40236 1.01337 0.0
H588 H 0.92463 0.4324 0.03034 0.0
H589 H 0.9139 0.49745 0.95991 0.0
C590 C 0.80113 0.42647 0.91895 0.0
C591 C 0.78142 0.39877 0.92476 0.0
C592 C 0.78935 0.38209 0.95064 0.0
C593 C 0.81638 0.39186 0.96944 0.0
C594 C 0.83562 0.4187 0.96263 0.0
C595 C 0.8283 0.43601 0.93824 0.0
C596 C 0.85364 0.46382 0.93596 0.0
C597 C 0.87032 0.46569 0.90282 0.0
C598 C 0.83903 0.49105 0.94309 0.0
C599 C 0.87638 0.45914 0.96251 0.0
C600 C 0.86536 0.43289 0.97749 0.0
C601 C 0.88248 0.42308 1.00196 0.0
C602 C 0.91155 0.44037 1.01142 0.0
C603 C 0.92361 0.46753 0.99674 0.0
C604 C 0.90543 0.477 0.97197 0.0
H605 H 0.74121 0.62822 0.45047 0.0
H606 H 0.71537 0.59247 0.35527 0.0
H607 H 0.66551 0.56453 0.37747 0.0
H608 H 0.70721 0.56235 0.49504 0.0
H609 H 0.69299 0.58221 0.52809 0.0
H610 H 0.72766 0.59875 0.50527 0.0
H611 H 0.70116 0.64296 0.49342 0.0
H612 H 0.66644 0.62657 0.51622 0.0
H613 H 0.66253 0.63682 0.47509 0.0
H614 H 0.61668 0.54219 0.40891 0.0
H615 H 0.57289 0.52653 0.44774 0.0
H616 H 0.62894 0.57527 0.52366 0.0
C617 C 0.72516 0.61447 0.43425 0.0
C618 C 0.73291 0.61249 0.40092 0.0
C619 C 0.71086 0.59406 0.38087 0.0
C620 C 0.68214 0.57816 0.39326 0.0
C621 C 0.67533 0.58062 0.42599 0.0
C622 C 0.6962 0.59821 0.44632 0.0
C623 C 0.68256 0.59718 0.48052 0.0
C624 C 0.70388 0.58436 0.50359 0.0
C625 C 0.6779 0.6277 0.49198 0.0
C626 C 0.65069 0.57657 0.47609 0.0
C627 C 0.64712 0.56732 0.44436 0.0
C628 C 0.61939 0.54908 0.43388 0.0
C629 C 0.59457 0.54021 0.4562 0.0
C630 C 0.59739 0.54926 0.48892 0.0
C631 C 0.62611 0.56756 0.49896 0.0
H632 H 0.25358 0.36058 0.18682 0.0
H633 H 0.30475 0.34306 0.09996 0.0
H634 H 0.26454 0.36082 0.06714 0.0
H635 H 0.17623 0.33672 0.15617 0.0
H636 H 0.15917 0.36421 0.17756 0.0
H637 H 0.19285 0.35163 0.19383 0.0
H638 H 0.2243 0.40492 0.19626 0.0
H639 H 0.19065 0.41769 0.18013 0.0
H640 H 0.22895 0.42648 0.16033 0.0
H641 H 0.2178 0.3805 0.04413 0.0
H642 H 0.16777 0.39796 0.03303 0.0
H643 H 0.14781 0.40124 0.1355 0.0
C644 C 0.25666 0.36095 0.16091 0.0
C645 C 0.28247 0.35084 0.14589 0.0
C646 C 0.28515 0.35082 0.11189 0.0
C647 C 0.26251 0.36094 0.09312 0.0
C648 C 0.23729 0.37075 0.10878 0.0
C649 C 0.23426 0.37069 0.14194 0.0
C650 C 0.20442 0.38111 0.15305 0.0
C651 C 0.18184 0.35698 0.17122 0.0
C652 C 0.21258 0.40922 0.17365 0.0
C653 C 0.19096 0.38701 0.12099 0.0
C654 C 0.21028 0.38117 0.09568 0.0
C655 C 0.20252 0.38512 0.06379 0.0
C656 C 0.17417 0.39512 0.05771 0.0
C657 C 0.15387 0.40071 0.08339 0.0
C658 C 0.16263 0.39673 0.11536 0.0
H659 H 0.56828 0.24102 0.9393 0.0
H660 H 0.6435 0.20906 0.88669 0.0
H661 H 0.62855 0.16141 0.91316 0.0
H662 H 0.57417 0.20192 1.01421 0.0
H663 H 0.53182 0.19345 1.0214 0.0
H664 H 0.5491 0.22583 0.99966 0.0
H665 H 0.51158 0.20879 0.95206 0.0
H666 H 0.4942 0.17638 0.97367 0.0
H667 H 0.51096 0.17319 0.934 0.0
H668 H 0.60601 0.11682 0.94535 0.0
H669 H 0.57532 0.07751 0.97828 0.0
H670 H 0.5119 0.13554 1.00918 0.0
C671 C 0.58172 0.22404 0.93359 0.0
C672 C 0.60726 0.22907 0.91071 0.0
C673 C 0.62384 0.20595 0.9038 0.0
C674 C 0.61557 0.17872 0.91889 0.0
C675 C 0.59027 0.17434 0.94094 0.0
C676 C 0.57335 0.19624 0.94819 0.0
C677 C 0.54628 0.18501 0.9719 0.0
C678 C 0.55061 0.20261 1.00368 0.0
C679 C 0.51383 0.1859 0.95701 0.0
C680 C 0.55064 0.15351 0.97669 0.0
C681 C 0.57646 0.14807 0.9588 0.0
C682 C 0.58568 0.12086 0.95933 0.0
C683 C 0.56803 0.09857 0.97823 0.0
C684 C 0.54096 0.10308 0.99637 0.0
C685 C 0.53234 0.13118 0.99559 0.0
H686 H 0.91832 0.83096 0.36594 0.0
H687 H 0.89168 0.77645 0.4494 0.0
H688 H 0.91005 0.81875 0.48487 0.0
H689 H 0.98862 0.87621 0.39997 0.0
H690 H 0.98204 0.90946 0.38198 0.0
H691 H 0.96768 0.87471 0.36251 0.0
H692 H 0.91079 0.88614 0.3623 0.0
H693 H 0.92497 0.9209 0.38184 0.0
H694 H 0.89273 0.89537 0.39962 0.0
H695 H 0.93111 0.86676 0.51211 0.0
H696 H 0.95332 0.91713 0.52924 0.0
H697 H 0.96492 0.94303 0.42931 0.0
C698 C 0.91614 0.82779 0.39166 0.0
C699 C 0.90369 0.79967 0.40446 0.0
C700 C 0.90175 0.79708 0.43848 0.0
C701 C 0.91189 0.82124 0.45904 0.0
C702 C 0.92388 0.84837 0.44564 0.0
C703 C 0.92605 0.8519 0.41274 0.0
C704 C 0.93969 0.88375 0.40483 0.0
C705 C 0.97139 0.88617 0.38622 0.0
C706 C 0.91561 0.89734 0.38603 0.0
C707 C 0.94477 0.8975 0.43842 0.0
C708 C 0.93552 0.87649 0.4615 0.0
C709 C 0.93834 0.88335 0.49421 0.0
C710 C 0.9511 0.91222 0.50372 0.0
C711 C 0.96092 0.93444 0.4808 0.0
C712 C 0.95741 0.92682 0.44756 0.0
H713 H 0.39214 0.79445 0.55201 0.0
H714 H 0.29458 0.75417 0.5741 0.0
H715 H 0.30852 0.7053 0.56684 0.0
H716 H 0.40914 0.73583 0.49269 0.0
H717 H 0.44921 0.7396 0.50716 0.0
H718 H 0.42996 0.77089 0.50698 0.0
H719 H 0.44114 0.77916 0.56786 0.0
H720 H 0.45983 0.74772 0.56844 0.0
H721 H 0.42692 0.74998 0.5954 0.0
H722 H 0.33491 0.66187 0.56708 0.0
H723 H 0.37143 0.62716 0.57329 0.0
H724 H 0.45155 0.69581 0.54985 0.0
C725 C 0.3734 0.77536 0.55386 0.0
C726 C 0.34228 0.778 0.56342 0.0
C727 C 0.31861 0.75253 0.56682 0.0
C728 C 0.32625 0.72473 0.56254 0.0
C729 C 0.35756 0.72286 0.55452 0.0
C730 C 0.38067 0.74753 0.54974 0.0
C731 C 0.41326 0.7398 0.54519 0.0
C732 C 0.42614 0.74695 0.51096 0.0
C733 C 0.43663 0.75506 0.57075 0.0
C734 C 0.40517 0.70718 0.55007 0.0
C735 C 0.37286 0.69769 0.55474 0.0
C736 C 0.36015 0.66887 0.56263 0.0
C737 C 0.38107 0.64933 0.56612 0.0
C738 C 0.4143 0.65883 0.56204 0.0
C739 C 0.42627 0.68797 0.55326 0.0
H740 H 0.79806 0.88187 0.7878 0.0
H741 H 0.80471 0.79005 0.78004 0.0
H742 H 0.84331 0.80132 0.73516 0.0
H743 H 0.80291 0.89542 0.7008 0.0
H744 H 0.82554 0.93185 0.70648 0.0
H745 H 0.79729 0.91608 0.73685 0.0
H746 H 0.84172 0.92559 0.77953 0.0
H747 H 0.87011 0.94118 0.74931 0.0
H748 H 0.87754 0.91107 0.77281 0.0
H749 H 0.88487 0.82366 0.69415 0.0
H750 H 0.92342 0.85496 0.6584 0.0
H751 H 0.8863 0.93099 0.69135 0.0
C752 C 0.80685 0.86389 0.77623 0.0
C753 C 0.79827 0.83505 0.78763 0.0
C754 C 0.81122 0.81242 0.77214 0.0
C755 C 0.83299 0.81855 0.74644 0.0
C756 C 0.84121 0.84732 0.73619 0.0
C757 C 0.82819 0.86953 0.75037 0.0
C758 C 0.8415 0.89875 0.73557 0.0
C759 C 0.81524 0.91125 0.71893 0.0
C760 C 0.85874 0.92041 0.76081 0.0
C761 C 0.86462 0.88966 0.71132 0.0
C762 C 0.86418 0.85993 0.71197 0.0
C763 C 0.88504 0.84688 0.69306 0.0
C764 C 0.90689 0.86476 0.67299 0.0
C765 C 0.90741 0.89521 0.67191 0.0
C766 C 0.88585 0.90765 0.69118 0.0
H767 H 0.79734 0.189 0.25019 0.0
H768 H 0.74753 0.26117 0.26592 0.0
H769 H 0.70806 0.23991 0.22513 0.0
H770 H 0.78302 0.18017 0.16312 0.0
H771 H 0.77799 0.14091 0.16458 0.0
H772 H 0.80382 0.16337 0.19272 0.0
H773 H 0.77219 0.13576 0.2401 0.0
H774 H 0.74616 0.1134 0.21216 0.0
H775 H 0.72981 0.13406 0.24312 0.0
H776 H 0.67113 0.20808 0.18665 0.0
H777 H 0.64094 0.16934 0.15199 0.0
H778 H 0.71614 0.11896 0.16022 0.0
C779 C 0.77833 0.2005 0.24476 0.0
C780 C 0.77553 0.22677 0.26112 0.0
C781 C 0.75038 0.24124 0.25332 0.0
C782 C 0.72778 0.22926 0.23032 0.0
C783 C 0.73088 0.20299 0.21512 0.0
C784 C 0.75573 0.18896 0.22179 0.0
C785 C 0.75298 0.1604 0.20315 0.0
C786 C 0.78112 0.16128 0.17948 0.0
C787 C 0.75011 0.13438 0.226 0.0
C788 C 0.72225 0.16015 0.18559 0.0
C789 C 0.70991 0.18493 0.19266 0.0
C790 C 0.68085 0.18881 0.1805 0.0
C791 C 0.66393 0.16671 0.16068 0.0
C792 C 0.67613 0.14105 0.15318 0.0
C793 C 0.7059 0.13809 0.16564 0.0
H794 H 0.42938 0.6015 0.30444 0.0
H795 H 0.39811 0.67248 0.35739 0.0
H796 H 0.41485 0.65352 0.40795 0.0
H797 H 0.40423 0.54569 0.3647 0.0
H798 H 0.43798 0.52812 0.35821 0.0
H799 H 0.42366 0.54712 0.3258 0.0
H800 H 0.47967 0.57891 0.3186 0.0
H801 H 0.49415 0.56001 0.35099 0.0
H802 H 0.49861 0.59927 0.35257 0.0
H803 H 0.43507 0.62688 0.45373 0.0
H804 H 0.45755 0.59539 0.4904 0.0
H805 H 0.47592 0.54045 0.40944 0.0
C806 C 0.42577 0.61302 0.32663 0.0
C807 C 0.41237 0.63891 0.3263 0.0
C808 C 0.40868 0.65311 0.3563 0.0
C809 C 0.41797 0.6423 0.38543 0.0
C810 C 0.43111 0.617 0.3848 0.0
C811 C 0.43505 0.60249 0.35617 0.0
C812 C 0.45012 0.57583 0.36239 0.0
C813 C 0.42766 0.54751 0.35216 0.0
C814 C 0.48257 0.57868 0.34511 0.0
C815 C 0.45399 0.57761 0.39891 0.0
C816 C 0.44277 0.60158 0.41126 0.0
C817 C 0.44385 0.60807 0.44419 0.0
C818 C 0.45674 0.58987 0.46499 0.0
C819 C 0.46863 0.56508 0.45328 0.0
C820 C 0.46704 0.559 0.41953 0.0
H821 H 0.11222 0.44497 0.80689 0.0
H822 H 0.11659 0.36507 0.85727 0.0
H823 H 0.09729 0.38614 0.90695 0.0
H824 H 0.13845 0.49483 0.87345 0.0
H825 H 0.11212 0.51947 0.86417 0.0
H826 H 0.12648 0.49816 0.83251 0.0
H827 H 0.06851 0.47694 0.81618 0.0
H828 H 0.05401 0.49824 0.84772 0.0
H829 H 0.04077 0.45916 0.84598 0.0
H830 H 0.07721 0.41681 0.95268 0.0
H831 H 0.05673 0.45307 0.98774 0.0
H832 H 0.06533 0.51263 0.90796 0.0
C833 C 0.10934 0.43188 0.82836 0.0
C834 C 0.1159 0.40303 0.82759 0.0
C835 C 0.11132 0.38689 0.85655 0.0
C836 C 0.10055 0.39883 0.88519 0.0
C837 C 0.09425 0.42717 0.88503 0.0
C838 C 0.09841 0.44345 0.85726 0.0
C839 C 0.08945 0.47323 0.86334 0.0
C840 C 0.11835 0.49788 0.85805 0.0
C841 C 0.06152 0.47711 0.84204 0.0
C842 C 0.07954 0.47117 0.89872 0.0
C843 C 0.08262 0.4445 0.91096 0.0
C844 C 0.07472 0.43772 0.94315 0.0
C845 C 0.0631 0.45849 0.96307 0.0
C846 C 0.05927 0.4858 0.95091 0.0
C847 C 0.06794 0.49204 0.91825 0.0
H848 H 0.56695 0.84555 0.93809 0.0
H849 H 0.62966 0.89148 0.8654 0.0
H850 H 0.60386 0.93424 0.87239 0.0
H851 H 0.49471 0.8834 0.91923 0.0
H852 H 0.48435 0.88339 0.96143 0.0
H853 H 0.50096 0.85369 0.94405 0.0
H854 H 0.54553 0.86262 0.98669 0.0
H855 H 0.52888 0.89205 1.00376 0.0
H856 H 0.56994 0.89853 0.99066 0.0
H857 H 0.58507 0.97553 0.89944 0.0
H858 H 0.567 1.01017 0.93823 0.0
H859 H 0.51154 0.93764 0.9897 0.0
C860 C 0.57386 0.86406 0.92245 0.0
C861 C 0.59998 0.86525 0.90105 0.0
C862 C 0.60924 0.88997 0.88145 0.0
C863 C 0.59479 0.91443 0.88537 0.0
C864 C 0.57049 0.91342 0.90829 0.0
C865 C 0.55917 0.88845 0.92566 0.0
C866 C 0.53552 0.8942 0.95141 0.0
C867 C 0.50189 0.87769 0.94354 0.0
C868 C 0.54564 0.88642 0.98508 0.0
C869 C 0.53786 0.92685 0.94797 0.0
C870 C 0.55784 0.93748 0.92265 0.0
C871 C 0.5682 0.96743 0.91834 0.0
C872 C 0.55809 0.98694 0.94053 0.0
C873 C 0.53744 0.97635 0.96622 0.0
C874 C 0.5265 0.94607 0.96946 0.0
H875 H 0.91999 0.18891 0.48234 0.0
H876 H 0.87415 0.14362 0.39855 0.0
H877 H 0.88174 0.09651 0.42026 0.0
H878 H 0.9797 0.14414 0.4886 0.0
H879 H 0.97955 0.14503 0.53196 0.0
H880 H 0.96937 0.17501 0.51031 0.0
H881 H 0.91576 0.16857 0.54195 0.0
H882 H 0.9258 0.1382 0.56315 0.0
H883 H 0.88923 0.13359 0.5411 0.0
H884 H 0.89528 0.05501 0.44939 0.0
H885 H 0.91802 1.02106 0.48281 0.0
H886 H 0.95544 0.09236 0.54828 0.0
C887 C 0.91146 0.16899 0.46875 0.0
C888 C 0.89654 0.16975 0.43879 0.0
C889 C 0.88594 0.14342 0.42139 0.0
C890 C 0.88988 0.11659 0.43364 0.0
C891 C 0.90456 0.11651 0.46326 0.0
C892 C 0.91554 0.14196 0.4805 0.0
C893 C 0.93206 0.13568 0.51089 0.0
C894 C 0.96726 0.15086 0.51038 0.0
C895 C 0.91466 0.14454 0.54106 0.0
C896 C 0.92865 0.10275 0.50791 0.0
C897 C 0.91247 0.09223 0.48032 0.0
C898 C 0.90768 0.06286 0.47123 0.0
C899 C 0.92055 0.04377 0.49038 0.0
C900 C 0.9379 0.05412 0.51824 0.0
C901 C 0.94146 0.08384 0.52755 0.0
H902 H 0.2374 0.5971 0.15074 0.0
H903 H 0.24294 0.6842 0.11288 0.0
H904 H 0.19376 0.66719 0.08283 0.0
H905 H 0.20727 0.55755 0.0786 0.0
H906 H 0.18055 0.52905 0.09925 0.0
H907 H 0.21615 0.54769 0.11872 0.0
H908 H 0.18249 0.5615 0.16681 0.0
H909 H 0.1468 0.54275 0.14756 0.0
H910 H 0.15036 0.58059 0.15962 0.0
H911 H 0.14461 0.64134 0.05571 0.0
H912 H 0.09743 0.60868 0.03454 0.0
H913 H 0.12085 0.53703 0.08907 0.0
C914 C 0.2281 0.61266 0.13638 0.0
C915 C 0.24468 0.64213 0.13412 0.0
C916 C 0.23144 0.6615 0.11475 0.0
C917 C 0.20326 0.65205 0.09761 0.0
C918 C 0.18796 0.62296 0.09983 0.0
C919 C 0.19969 0.60348 0.11881 0.0
C920 C 0.17823 0.57331 0.11653 0.0
C921 C 0.19666 0.55056 0.10244 0.0
C922 C 0.1636 0.56399 0.1496 0.0
C923 C 0.15279 0.579 0.0933 0.0
C924 C 0.15909 0.60787 0.08409 0.0
C925 C 0.13942 0.6187 0.06285 0.0
C926 C 0.11249 0.59978 0.05085 0.0
C927 C 0.10492 0.56998 0.05987 0.0
C928 C 0.12571 0.55955 0.08144 0.0
H929 H 0.326 0.41928 0.66737 0.0
H930 H 0.25345 0.4269 0.59766 0.0
H931 H 0.29452 0.4539 0.56204 0.0
H932 H 0.37729 0.49016 0.65291 0.0
H933 H 0.41372 0.47639 0.65653 0.0
H934 H 0.37851 0.45943 0.67831 0.0
H935 H 0.38266 0.40933 0.65232 0.0
H936 H 0.41795 0.42611 0.63062 0.0
H937 H 0.38447 0.40581 0.6091 0.0
H938 H 0.34319 0.4778 0.53205 0.0
H939 H 0.39654 0.49548 0.50891 0.0
H940 H 0.43954 0.47218 0.5961 0.0
C941 C 0.31857 0.42655 0.64465 0.0
C942 C 0.28584 0.42099 0.63595 0.0
C943 C 0.27779 0.4313 0.6058 0.0
C944 C 0.30114 0.44659 0.58508 0.0
C945 C 0.33287 0.45155 0.5944 0.0
C946 C 0.34174 0.44179 0.6234 0.0
C947 C 0.37787 0.44897 0.62672 0.0
C948 C 0.38741 0.46999 0.65532 0.0
C949 C 0.39154 0.42088 0.62987 0.0
C950 C 0.38788 0.46391 0.59485 0.0
C951 C 0.36134 0.46527 0.5768 0.0
C952 C 0.36408 0.477 0.54608 0.0
C953 C 0.39457 0.48703 0.53312 0.0
C954 C 0.42232 0.48548 0.55065 0.0
C955 C 0.41885 0.47416 0.58227 0.0
H956 H 0.79615 0.74069 0.98392 0.0
H957 H 0.71944 0.67322 0.94957 0.0
H958 H 0.75203 0.63575 0.9601 0.0
H959 H 0.85683 0.71336 0.94776 0.0
H960 H 0.88499 0.72325 0.97969 0.0
H961 H 0.85401 0.7439 0.97423 0.0
H962 H 0.83485 0.73426 0.03319 0.0
H963 H 0.86608 0.71378 0.03902 0.0
H964 H 0.82526 0.69722 0.04726 0.0
H965 H 0.79553 0.60664 0.96909 0.0
H966 H 0.84602 0.58871 0.97464 0.0
H967 H 0.89336 0.67584 1.00334 0.0
C968 C 0.78562 0.71794 0.97975 0.0
C969 C 0.75504 0.70981 0.96641 0.0
C970 C 0.74277 0.67989 0.95995 0.0
C971 C 0.76104 0.65849 0.966 0.0
C972 C 0.79143 0.66743 0.97857 0.0
C973 C 0.8035 0.69648 0.98551 0.0
C974 C 0.83777 0.70097 0.99593 0.0
C975 C 0.85967 0.72157 0.97303 0.0
C976 C 0.84118 0.71222 0.03094 0.0
C977 C 0.84353 0.67003 0.99286 0.0
C978 C 0.81646 0.65086 0.98329 0.0
C979 C 0.8167 0.62138 0.9771 0.0
C980 C 0.84545 0.61138 0.9804 0.0
C981 C 0.87357 0.6309 0.98947 0.0
C982 C 0.87228 0.66044 0.99628 0.0
H983 H 0.40574 0.84357 0.17164 0.0
H984 H 0.46056 0.78859 0.1183 0.0
H985 H 0.48658 0.831 0.08725 0.0
H986 H 0.39572 0.89165 0.1041 0.0
H987 H 0.4007 0.92463 0.12836 0.0
H988 H 0.38449 0.88987 0.14611 0.0
H989 H 0.42824 0.89893 0.18923 0.0
H990 H 0.44451 0.93373 0.17167 0.0
H991 H 0.46946 0.907 0.17678 0.0
H992 H 0.50818 0.87819 0.06259 0.0
H993 H 0.52668 0.92887 0.04664 0.0
H994 H 0.46022 0.9577 0.11439 0.0
C995 C 0.42306 0.8405 0.15325 0.0
C996 C 0.43109 0.81234 0.14773 0.0
C997 C 0.45411 0.80962 0.1235 0.0
C998 C 0.46897 0.83369 0.10548 0.0
C999 C 0.46094 0.86095 0.11165 0.0
C1000 C 0.43868 0.86477 0.13497 0.0
C1001 C 0.4359 0.89719 0.13707 0.0
C1002 C 0.40219 0.90106 0.1284 0.0
C1003 C 0.44507 0.90997 0.17069 0.0
C1004 C 0.46024 0.91079 0.11152 0.0
C1005 C 0.47397 0.88906 0.09719 0.0
C1006 C 0.49748 0.89534 0.07355 0.0
C1007 C 0.50781 0.92444 0.06456 0.0
C1008 C 0.49499 0.9477 0.07881 0.0
C1009 C 0.47035 0.94062 0.10254 0.0
H1010 H 0.08291 0.24118 0.61307 0.0
H1011 H 0.16311 0.21605 0.66041 0.0
H1012 H 0.14886 0.16653 0.63697 0.0
H1013 H 0.02835 0.17127 0.62162 0.0
H1014 H 1.01092 0.1718 0.58251 0.0
H1015 H 0.02677 0.20566 0.60309 0.0
H1016 H 0.06308 0.22202 0.55387 0.0
H1017 H 0.04738 0.18809 0.53328 0.0
H1018 H 0.08966 0.19893 0.53883 0.0
H1019 H 0.12622 0.11945 0.61019 0.0
H1020 H 0.09627 0.07692 0.58096 0.0
H1021 H 0.03085 0.1302 0.54719 0.0
C1022 C 0.09731 0.22515 0.61855 0.0
C1023 C 0.12439 0.23281 0.63865 0.0
C1024 C 0.14259 0.21108 0.64496 0.0
C1025 C 0.13462 0.18274 0.63176 0.0
C1026 C 0.10831 0.17601 0.61181 0.0
C1027 C 0.08985 0.19646 0.60503 0.0
C1028 C 0.06296 0.18292 0.58238 0.0
C1029 C 0.03031 0.18291 0.59836 0.0
C1030 C 0.06596 0.19896 0.55018 0.0
C1031 C 0.06919 0.15177 0.57791 0.0
C1032 C 0.09551 0.14851 0.59532 0.0
C1033 C 0.10571 0.12182 0.5963 0.0
C1034 C 0.08847 0.0977 0.57953 0.0
C1035 C 0.0613 0.10004 0.56143 0.0
C1036 C 0.0518 0.12772 0.5603 0.0
H1037 H 0.75785 0.35478 0.43675 0.0
H1038 H 0.72297 0.2682 0.4745 0.0
H1039 H 0.67312 0.28367 0.49191 0.0
H1040 H 0.72153 0.39531 0.50098 0.0
H1041 H 0.71332 0.4218 0.47278 0.0
H1042 H 0.7474 0.40463 0.46659 0.0
H1043 H 0.72733 0.38765 0.40958 0.0
H1044 H 0.69305 0.40439 0.4157 0.0
H1045 H 0.68795 0.3661 0.40511 0.0
H1046 H 0.62458 0.30696 0.49897 0.0
H1047 H 0.58295 0.3375 0.49863 0.0
H1048 H 0.65116 0.40892 0.45836 0.0
C1049 C 0.74029 0.33929 0.44967 0.0
C1050 C 0.74438 0.31024 0.45416 0.0
C1051 C 0.72025 0.29048 0.47038 0.0
C1052 C 0.69193 0.29911 0.48057 0.0
C1053 C 0.68834 0.32768 0.47483 0.0
C1054 C 0.71212 0.34759 0.46024 0.0
C1055 C 0.70182 0.37649 0.45521 0.0
C1056 C 0.72223 0.40101 0.47508 0.0
C1057 C 0.70258 0.38407 0.41927 0.0
C1058 C 0.66815 0.36944 0.46823 0.0
C1059 C 0.66077 0.34125 0.47961 0.0
C1060 C 0.63026 0.32925 0.4907 0.0
C1061 C 0.60676 0.34661 0.4902 0.0
C1062 C 0.61404 0.37558 0.4788 0.0
C1063 C 0.64517 0.38706 0.46791 0.0
loop_
_geom_bond_atom_site_label_1
_geom_bond_atom_site_label_2
_geom_bond_distance
_geom_bond_site_symmetry_2
_ccdc_geom_bond_type
P0 O11 1.490 . S
P0 C14 1.812 . S
P0 C20 1.803 . S
P0 C26 1.819 . S
H1 C15 0.941 . S
H2 C16 0.939 . S
H3 C18 0.940 . S
H4 C19 0.940 . S
H5 C21 0.939 . S
H6 C22 0.942 . S
H7 C24 0.940 . S
H8 C25 0.939 . S
H9 C27 0.941 . S
H10 C31 0.939 . S
O11 P0 1.490 . S
H12 C28 0.939 . S
H13 C30 0.940 . S
C14 P0 1.812 . S
C14 C15 1.389 . S
C14 C19 1.391 . S
C15 H1 0.941 . S
C15 C14 1.389 . S
C15 C16 1.397 . S
C16 H2 0.939 . S
C16 C15 1.397 . S
C16 C17 1.378 . S
C17 C16 1.378 . S
C17 C18 1.378 . S
C18 H3 0.940 . S
C18 C17 1.378 . S
C18 C19 1.396 . S
C19 H4 0.940 . S
C19 C14 1.391 . S
C19 C18 1.396 . S
C20 P0 1.803 . S
C20 C21 1.378 . S
C20 C25 1.400 . S
C21 H5 0.939 . S
C21 C20 1.378 . S
C21 C22 1.361 . S
C22 H6 0.942 . S
C22 C21 1.361 . S
C22 C23 1.369 . S
C23 C22 1.369 . S
C23 C24 1.404 . S
C24 H7 0.940 . S
C24 C23 1.404 . S
C24 C25 1.389 . S
C25 H8 0.939 . S
C25 C20 1.400 . S
C25 C24 1.389 . S
C26 P0 1.819 . S
C26 C27 1.391 . S
C26 C31 1.391 . S
C27 H9 0.941 . S
C27 C26 1.391 . S
C27 C28 1.396 . S
C28 H12 0.939 . S
C28 C27 1.396 . S
C28 C29 1.397 . S
C29 C28 1.397 . S
C29 C30 1.385 . S
C30 H13 0.940 . S
C30 C29 1.385 . S
C30 C31 1.388 . S
C31 H10 0.939 . S
C31 C26 1.391 . S
C31 C30 1.388 . S
P32 O43 1.490 . S
P32 C46 1.812 . S
P32 C52 1.803 . S
P32 C58 1.819 . S
H33 C47 0.941 . S
H34 C48 0.939 . S
H35 C50 0.940 . S
H36 C51 0.940 . S
H37 C53 0.939 . S
H38 C54 0.942 . S
H39 C56 0.940 . S
H40 C57 0.939 . S
H41 C59 0.941 . S
H42 C63 0.939 . S
O43 P32 1.490 . S
H44 C60 0.939 . S
H45 C62 0.940 . S
C46 P32 1.812 . S
C46 C47 1.389 . S
C46 C51 1.391 . S
C47 H33 0.941 . S
C47 C46 1.389 . S
C47 C48 1.397 . S
C48 H34 0.939 . S
C48 C47 1.397 . S
C48 C49 1.378 . S
C49 C48 1.378 . S
C49 C50 1.378 . S
C50 H35 0.940 . S
C50 C49 1.378 . S
C50 C51 1.396 . S
C51 H36 0.940 . S
C51 C46 1.391 . S
C51 C50 1.396 . S
C52 P32 1.803 . S
C52 C53 1.378 . S
C52 C57 1.400 . S
C53 H37 0.939 . S
C53 C52 1.378 . S
C53 C54 1.361 . S
C54 H38 0.942 . S
C54 C53 1.361 . S
C54 C55 1.369 . S
C55 C54 1.369 . S
C55 C56 1.404 . S
C56 H39 0.940 . S
C56 C55 1.404 . S
C56 C57 1.389 . S
C57 H40 0.939 . S
C57 C52 1.400 . S
C57 C56 1.389 . S
C58 P32 1.819 . S
C58 C59 1.391 . S
C58 C63 1.391 . S
C59 H41 0.941 . S
C59 C58 1.391 . S
C59 C60 1.396 . S
C60 H44 0.939 . S
C60 C59 1.396 . S
C60 C61 1.397 . S
C61 C60 1.397 . S
C61 C62 1.385 . S
C62 H45 0.940 . S
C62 C61 1.385 . S
C62 C63 1.388 . S
C63 H42 0.939 . S
C63 C58 1.391 . S
C63 C62 1.388 . S
P64 O75 1.490 . S
P64 C78 1.812 . S
P64 C84 1.803 . S
P64 C90 1.819 . S
H65 C79 0.941 . S
H66 C80 0.939 . S
H67 C82 0.940 . S
H68 C83 0.940 . S
H69 C85 0.939 . S
H70 C86 0.942 . S
H71 C88 0.940 . S
H72 C89 0.939 . S
H73 C91 0.941 . S
H74 C95 0.939 . S
O75 P64 1.490 . S
H76 C92 0.939 . S
H77 C94 0.940 . S
C78 P64 1.812 . S
C78 C79 1.389 . S
C78 C83 1.391 . S
C79 H65 0.941 . S
C79 C78 1.389 . S
C79 C80 1.397 . S
C80 H66 0.939 . S
C80 C79 1.397 . S
C80 C81 1.378 . S
C81 C80 1.378 . S
C81 C82 1.378 . S
C82 H67 0.940 . S
C82 C81 1.378 . S
C82 C83 1.396 . S
C83 H68 0.940 . S
C83 C78 1.391 . S
C83 C82 1.396 . S
C84 P64 1.803 . S
C84 C85 1.378 . S
C84 C89 1.400 . S
C85 H69 0.939 . S
C85 C84 1.378 . S
C85 C86 1.361 . S
C86 H70 0.942 . S
C86 C85 1.361 . S
C86 C87 1.369 . S
C87 C86 1.369 . S
C87 C88 1.404 . S
C88 H71 0.940 . S
C88 C87 1.404 . S
C88 C89 1.389 . S
C89 H72 0.939 . S
C89 C84 1.400 . S
C89 C88 1.389 . S
C90 P64 1.819 . S
C90 C91 1.391 . S
C90 C95 1.391 . S
C91 H73 0.941 . S
C91 C90 1.391 . S
C91 C92 1.396 . S
C92 H76 0.939 . S
C92 C91 1.396 . S
C92 C93 1.397 . S
C93 C92 1.397 . S
C93 C94 1.385 . S
C94 H77 0.940 . S
C94 C93 1.385 . S
C94 C95 1.388 . S
C95 H74 0.939 . S
C95 C90 1.391 . S
C95 C94 1.388 . S
P96 O107 1.490 . S
P96 C110 1.812 . S
P96 C116 1.803 . S
P96 C122 1.819 . S
H97 C111 0.941 . S
H98 C112 0.939 . S
H99 C114 0.940 . S
H100 C115 0.940 . S
H101 C117 0.939 . S
H102 C118 0.942 . S
H103 C120 0.940 . S
H104 C121 0.939 . S
H105 C123 0.941 . S
H106 C127 0.939 . S
O107 P96 1.490 . S
H108 C124 0.939 . S
H109 C126 0.940 . S
C110 P96 1.812 . S
C110 C111 1.389 . S
C110 C115 1.391 . S
C111 H97 0.941 . S
C111 C110 1.389 . S
C111 C112 1.397 . S
C112 H98 0.939 . S
C112 C111 1.397 . S
C112 C113 1.378 . S
C113 C112 1.378 . S
C113 C114 1.378 . S
C114 H99 0.940 . S
C114 C113 1.378 . S
C114 C115 1.396 . S
C115 H100 0.940 . S
C115 C110 1.391 . S
C115 C114 1.396 . S
C116 P96 1.803 . S
C116 C117 1.378 . S
C116 C121 1.400 . S
C117 H101 0.939 . S
C117 C116 1.378 . S
C117 C118 1.361 . S
C118 H102 0.942 . S
C118 C117 1.361 . S
C118 C119 1.369 . S
C119 C118 1.369 . S
C119 C120 1.404 . S
C120 H103 0.940 . S
C120 C119 1.404 . S
C120 C121 1.389 . S
C121 H104 0.939 . S
C121 C116 1.400 . S
C121 C120 1.389 . S
C122 P96 1.819 . S
C122 C123 1.391 . S
C122 C127 1.391 . S
C123 H105 0.941 . S
C123 C122 1.391 . S
C123 C124 1.396 . S
C124 H108 0.939 . S
C124 C123 1.396 . S
C124 C125 1.397 . S
C125 C124 1.397 . S
C125 C126 1.385 . S
C126 H109 0.940 . S
C126 C125 1.385 . S
C126 C127 1.388 . S
C127 H106 0.939 . S
C127 C122 1.391 . S
C127 C126 1.388 . S
P128 O139 1.490 . S
P128 C142 1.812 . S
P128 C148 1.803 . S
P128 C154 1.819 . S
H129 C143 0.941 . S
H130 C144 0.939 . S
H131 C146 0.940 . S
H132 C147 0.940 . S
H133 C149 0.939 . S
H134 C150 0.942 . S
H135 C152 0.940 . S
H136 C153 0.939 . S
H137 C155 0.941 . S
H138 C159 0.939 . S
O139 P128 1.490 . S
H140 C156 0.939 . S
H141 C158 0.940 . S
C142 P128 1.812 . S
C142 C143 1.389 . S
C142 C147 1.391 . S
C143 H129 0.941 . S
C143 C142 1.389 . S
C143 C144 1.397 . S
C144 H130 0.939 . S
C144 C143 1.397 . S
C144 C145 1.378 . S
C145 C144 1.378 . S
C145 C146 1.378 . S
C146 H131 0.940 . S
C146 C145 1.378 . S
C146 C147 1.396 . S
C147 H132 0.940 . S
C147 C142 1.391 . S
C147 C146 1.396 . S
C148 P128 1.803 . S
C148 C149 1.378 . S
C148 C153 1.400 . S
C149 H133 0.939 . S
C149 C148 1.378 . S
C149 C150 1.361 . S
C150 H134 0.942 . S
C150 C149 1.361 . S
C150 C151 1.369 . S
C151 C150 1.369 . S
C151 C152 1.404 . S
C152 H135 0.940 . S
C152 C151 1.404 . S
C152 C153 1.389 . S
C153 H136 0.939 . S
C153 C148 1.400 . S
C153 C152 1.389 . S
C154 P128 1.819 . S
C154 C155 1.391 . S
C154 C159 1.391 . S
C155 H137 0.941 . S
C155 C154 1.391 . S
C155 C156 1.396 . S
C156 H140 0.939 . S
C156 C155 1.396 . S
C156 C157 1.397 . S
C157 C156 1.397 . S
C157 C158 1.385 . S
C158 H141 0.940 . S
C158 C157 1.385 . S
C158 C159 1.388 . S
C159 H138 0.939 . S
C159 C154 1.391 . S
C159 C158 1.388 . S
P160 O171 1.490 . S
P160 C174 1.812 . S
P160 C180 1.803 . S
P160 C186 1.819 . S
H161 C175 0.941 . S
H162 C176 0.939 . S
H163 C178 0.940 . S
H164 C179 0.940 . S
H165 C181 0.939 . S
H166 C182 0.942 . S
H167 C184 0.940 . S
H168 C185 0.939 . S
H169 C187 0.941 . S
H170 C191 0.939 . S
O171 P160 1.490 . S
H172 C188 0.939 . S
H173 C190 0.940 . S
C174 P160 1.812 . S
C174 C175 1.389 . S
C174 C179 1.391 . S
C175 H161 0.941 . S
C175 C174 1.389 . S
C175 C176 1.397 . S
C176 H162 0.939 . S
C176 C175 1.397 . S
C176 C177 1.378 . S
C177 C176 1.378 . S
C177 C178 1.378 . S
C178 H163 0.940 . S
C178 C177 1.378 . S
C178 C179 1.396 . S
C179 H164 0.940 . S
C179 C174 1.391 . S
C179 C178 1.396 . S
C180 P160 1.803 . S
C180 C181 1.378 . S
C180 C185 1.400 . S
C181 H165 0.939 . S
C181 C180 1.378 . S
C181 C182 1.361 . S
C182 H166 0.942 . S
C182 C181 1.361 . S
C182 C183 1.369 . S
C183 C182 1.369 . S
C183 C184 1.404 . S
C184 H167 0.940 . S
C184 C183 1.404 . S
C184 C185 1.389 . S
C185 H168 0.939 . S
C185 C180 1.400 . S
C185 C184 1.389 . S
C186 P160 1.819 . S
C186 C187 1.391 . S
C186 C191 1.391 . S
C187 H169 0.941 . S
C187 C186 1.391 . S
C187 C188 1.396 . S
C188 H172 0.939 . S
C188 C187 1.396 . S
C188 C189 1.397 . S
C189 C188 1.397 . S
C189 C190 1.385 . S
C190 H173 0.940 . S
C190 C189 1.385 . S
C190 C191 1.388 . S
C191 H170 0.939 . S
C191 C186 1.391 . S
C191 C190 1.388 . S
P192 O203 1.490 . S
P192 C206 1.812 . S
P192 C212 1.803 . S
P192 C218 1.819 . S
H193 C207 0.941 . S
H194 C208 0.939 . S
H195 C210 0.940 . S
H196 C211 0.940 . S
H197 C213 0.939 . S
H198 C214 0.942 . S
H199 C216 0.940 . S
H200 C217 0.939 . S
H201 C219 0.941 . S
H202 C223 0.939 . S
O203 P192 1.490 . S
H204 C220 0.939 . S
H205 C222 0.940 . S
C206 P192 1.812 . S
C206 C207 1.389 . S
C206 C211 1.391 . S
C207 H193 0.941 . S
C207 C206 1.389 . S
C207 C208 1.397 . S
C208 H194 0.939 . S
C208 C207 1.397 . S
C208 C209 1.378 . S
C209 C208 1.378 . S
C209 C210 1.378 . S
C210 H195 0.940 . S
C210 C209 1.378 . S
C210 C211 1.396 . S
C211 H196 0.940 . S
C211 C206 1.391 . S
C211 C210 1.396 . S
C212 P192 1.803 . S
C212 C213 1.378 . S
C212 C217 1.400 . S
C213 H197 0.939 . S
C213 C212 1.378 . S
C213 C214 1.361 . S
C214 H198 0.942 . S
C214 C213 1.361 . S
C214 C215 1.369 . S
C215 C214 1.369 . S
C215 C216 1.404 . S
C216 H199 0.940 . S
C216 C215 1.404 . S
C216 C217 1.389 . S
C217 H200 0.939 . S
C217 C212 1.400 . S
C217 C216 1.389 . S
C218 P192 1.819 . S
C218 C219 1.391 . S
C218 C223 1.391 . S
C219 H201 0.941 . S
C219 C218 1.391 . S
C219 C220 1.396 . S
C220 H204 0.939 . S
C220 C219 1.396 . S
C220 C221 1.397 . S
C221 C220 1.397 . S
C221 C222 1.385 . S
C222 H205 0.940 . S
C222 C221 1.385 . S
C222 C223 1.388 . S
C223 H202 0.939 . S
C223 C218 1.391 . S
C223 C222 1.388 . S
P224 O235 1.490 . S
P224 C238 1.812 . S
P224 C244 1.803 . S
P224 C250 1.819 . S
H225 C239 0.941 . S
H226 C240 0.939 . S
H227 C242 0.940 . S
H228 C243 0.940 . S
H229 C245 0.939 . S
H230 C246 0.942 . S
H231 C248 0.940 . S
H232 C249 0.939 . S
H233 C251 0.941 . S
H234 C255 0.939 . S
O235 P224 1.490 . S
H236 C252 0.939 . S
H237 C254 0.940 . S
C238 P224 1.812 . S
C238 C239 1.389 . S
C238 C243 1.391 . S
C239 H225 0.941 . S
C239 C238 1.389 . S
C239 C240 1.397 . S
C240 H226 0.939 . S
C240 C239 1.397 . S
C240 C241 1.378 . S
C241 C240 1.378 . S
C241 C242 1.378 . S
C242 H227 0.940 . S
C242 C241 1.378 . S
C242 C243 1.396 . S
C243 H228 0.940 . S
C243 C238 1.391 . S
C243 C242 1.396 . S
C244 P224 1.803 . S
C244 C245 1.378 . S
C244 C249 1.400 . S
C245 H229 0.939 . S
C245 C244 1.378 . S
C245 C246 1.361 . S
C246 H230 0.942 . S
C246 C245 1.361 . S
C246 C247 1.369 . S
C247 C246 1.369 . S
C247 C248 1.404 . S
C248 H231 0.940 . S
C248 C247 1.404 . S
C248 C249 1.389 . S
C249 H232 0.939 . S
C249 C244 1.400 . S
C249 C248 1.389 . S
C250 P224 1.819 . S
C250 C251 1.391 . S
C250 C255 1.391 . S
C251 H233 0.941 . S
C251 C250 1.391 . S
C251 C252 1.396 . S
C252 H236 0.939 . S
C252 C251 1.396 . S
C252 C253 1.397 . S
C253 C252 1.397 . S
C253 C254 1.385 . S
C254 H237 0.940 . S
C254 C253 1.385 . S
C254 C255 1.388 . S
C255 H234 0.939 . S
C255 C250 1.391 . S
C255 C254 1.388 . S
Gd256 C259 2.818 . S
Gd256 O276 2.377 . S
Gd256 O278 2.448 . S
Gd256 O279 2.506 . S
Gd256 O280 2.435 1_545 S
Gd256 O281 2.717 1_545 S
Gd256 O283 2.395 1_445 S
Gd256 O287 2.327 1_455 S
Gd257 C268 2.818 . S
Gd257 O277 2.395 1_665 S
Gd257 O281 2.327 1_655 S
Gd257 O282 2.377 . S
Gd257 O284 2.448 . S
Gd257 O285 2.506 . S
Gd257 O286 2.435 1_565 S
Gd257 O287 2.717 1_565 S
C258 O276 1.240 . S
C258 O277 1.240 . S
C259 Gd256 2.818 . S
C259 C260 1.510 . S
C259 O278 1.249 . S
C259 O279 1.252 . S
C260 C259 1.510 . S
C260 C261 1.404 . S
C260 C262 1.352 . S
C261 C260 1.404 . S
C261 C265 1.389 . S
C261 H288 0.930 . S
C262 C260 1.352 . S
C262 C264 1.374 . S
C262 H289 0.931 . S
C263 C264 1.359 . S
C263 C265 1.364 . S
C264 C262 1.374 . S
C264 C263 1.359 . S
C264 H290 0.931 . S
C265 C261 1.389 . S
C265 C263 1.364 . S
C265 H291 0.931 . S
C266 O280 1.256 . S
C266 O281 1.257 . S
C267 O282 1.240 . S
C267 O283 1.240 . S
C268 Gd257 2.818 . S
C268 C269 1.510 . S
C268 O284 1.249 . S
C268 O285 1.252 . S
C269 C268 1.510 . S
C269 C270 1.404 . S
C269 C271 1.352 . S
C270 C269 1.404 . S
C270 C274 1.389 . S
C270 H292 0.930 . S
C271 C269 1.352 . S
C271 C273 1.374 . S
C271 H293 0.931 . S
C272 C273 1.359 . S
C272 C274 1.364 . S
C273 C271 1.374 . S
C273 C272 1.359 . S
C273 H294 0.931 . S
C274 C270 1.389 . S
C274 C272 1.364 . S
C274 H295 0.931 . S
C275 O286 1.256 . S
C275 O287 1.257 . S
O276 Gd256 2.377 . S
O276 C258 1.240 . S
O277 Gd257 2.395 1_445 S
O277 C258 1.240 . S
O278 Gd256 2.448 . S
O278 C259 1.249 . S
O279 Gd256 2.506 . S
O279 C259 1.252 . S
O280 Gd256 2.435 1_565 S
O280 C266 1.256 . S
O281 Gd256 2.717 1_565 S
O281 Gd257 2.327 1_455 S
O281 C266 1.257 . S
O282 Gd257 2.377 . S
O282 C267 1.240 . S
O283 Gd256 2.395 1_665 S
O283 C267 1.240 . S
O284 Gd257 2.448 . S
O284 C268 1.249 . S
O285 Gd257 2.506 . S
O285 C268 1.252 . S
O286 Gd257 2.435 1_545 S
O286 C275 1.256 . S
O287 Gd256 2.327 1_655 S
O287 Gd257 2.717 1_545 S
O287 C275 1.257 . S
H288 C261 0.930 . S
H289 C262 0.931 . S
H290 C264 0.931 . S
H291 C265 0.931 . S
H292 C270 0.930 . S
H293 C271 0.931 . S
H294 C273 0.931 . S
H295 C274 0.931 . S
Gd296 C299 2.818 . S
Gd296 O316 2.377 . S
Gd296 O318 2.448 . S
Gd296 O319 2.506 . S
Gd296 O320 2.435 1_545 S
Gd296 O321 2.717 1_545 S
Gd296 O323 2.395 1_544 S
Gd296 O327 2.327 1_554 S
Gd297 C308 2.818 1_545 S
Gd297 O317 2.395 1_556 S
Gd297 O321 2.327 1_546 S
Gd297 O322 2.377 1_545 S
Gd297 O324 2.446 1_545 S
Gd297 O325 2.506 1_545 S
Gd297 O326 2.435 . S
Gd297 O327 2.717 . S
C298 O316 1.240 . S
C298 O317 1.240 . S
C299 Gd296 2.818 . S
C299 C300 1.510 . S
C299 O318 1.249 . S
C299 O319 1.252 . S
C300 C299 1.510 . S
C300 C301 1.404 . S
C300 C302 1.352 . S
C301 C300 1.404 . S
C301 C305 1.389 . S
C301 H328 0.930 . S
C302 C300 1.352 . S
C302 C304 1.374 . S
C302 H329 0.931 . S
C303 C304 1.359 . S
C303 C305 1.364 . S
C304 C302 1.374 . S
C304 C303 1.359 . S
C304 H330 0.931 . S
C305 C301 1.389 . S
C305 C303 1.364 . S
C305 H331 0.931 . S
C306 O320 1.256 . S
C306 O321 1.257 . S
C307 O322 1.240 . S
C307 O323 1.240 . S
C308 Gd297 2.818 1_565 S
C308 C309 1.510 . S
C308 O324 1.282 . S
C308 O325 1.252 . S
C309 C308 1.510 . S
C309 C310 1.404 . S
C309 C311 1.352 . S
C310 C309 1.404 . S
C310 C314 1.389 . S
C310 H332 0.930 . S
C311 C309 1.352 . S
C311 C313 1.374 . S
C311 H333 0.931 . S
C312 C313 1.359 . S
C312 C314 1.364 . S
C313 C311 1.374 . S
C313 C312 1.359 . S
C313 H334 0.931 . S
C314 C310 1.389 . S
C314 C312 1.364 . S
C314 H335 0.931 . S
C315 O326 1.256 . S
C315 O327 1.257 . S
O316 Gd296 2.377 . S
O316 C298 1.240 . S
O317 Gd297 2.395 1_554 S
O317 C298 1.240 . S
O318 Gd296 2.448 . S
O318 C299 1.249 . S
O319 Gd296 2.506 . S
O319 C299 1.252 . S
O320 Gd296 2.435 1_565 S
O320 C306 1.256 . S
O321 Gd296 2.717 1_565 S
O321 Gd297 2.327 1_564 S
O321 C306 1.257 . S
O322 Gd297 2.377 1_565 S
O322 C307 1.240 . S
O323 Gd296 2.395 1_566 S
O323 C307 1.240 . S
O324 Gd297 2.446 1_565 S
O324 C308 1.282 . S
O325 Gd297 2.506 1_565 S
O325 C308 1.252 . S
O326 Gd297 2.435 . S
O326 C315 1.256 . S
O327 Gd296 2.327 1_556 S
O327 Gd297 2.717 . S
O327 C315 1.257 . S
H328 C301 0.930 . S
H329 C302 0.931 . S
H330 C304 0.931 . S
H331 C305 0.931 . S
H332 C310 0.930 . S
H333 C311 0.931 . S
H334 C313 0.931 . S
H335 C314 0.931 . S
Gd336 C339 2.818 . S
Gd336 O356 2.377 . S
Gd336 O358 2.448 . S
Gd336 O359 2.506 . S
Gd336 O360 2.435 . S
Gd336 O361 2.717 . S
Gd336 O363 2.395 . S
Gd336 O367 2.327 . S
Gd337 C348 2.818 . S
Gd337 O357 2.395 . S
Gd337 O361 2.327 . S
Gd337 O362 2.377 . S
Gd337 O364 2.448 . S
Gd337 O365 2.506 . S
Gd337 O366 2.435 . S
Gd337 O367 2.717 . S
C338 O356 1.240 . S
C338 O357 1.240 . S
C339 Gd336 2.818 . S
C339 C340 1.510 . S
C339 O358 1.249 . S
C339 O359 1.252 . S
C340 C339 1.510 . S
C340 C341 1.404 . S
C340 C342 1.352 . S
C341 C340 1.404 . S
C341 C345 1.389 . S
C341 H368 0.930 . S
C342 C340 1.352 . S
C342 C344 1.374 . S
C342 H369 0.931 . S
C343 C344 1.359 . S
C343 C345 1.364 . S
C344 C342 1.374 . S
C344 C343 1.359 . S
C344 H370 0.931 . S
C345 C341 1.389 . S
C345 C343 1.364 . S
C345 H371 0.931 . S
C346 O360 1.256 . S
C346 O361 1.257 . S
C347 O362 1.240 . S
C347 O363 1.240 . S
C348 Gd337 2.818 . S
C348 C349 1.510 . S
C348 O364 1.249 . S
C348 O365 1.252 . S
C349 C348 1.510 . S
C349 C350 1.404 . S
C349 C351 1.352 . S
C350 C349 1.404 . S
C350 C354 1.389 . S
C350 H372 0.930 . S
C351 C349 1.352 . S
C351 C353 1.374 . S
C351 H373 0.931 . S
C352 C353 1.359 . S
C352 C354 1.364 . S
C353 C351 1.374 . S
C353 C352 1.359 . S
C353 H374 0.931 . S
C354 C350 1.389 . S
C354 C352 1.364 . S
C354 H375 0.931 . S
C355 O366 1.256 . S
C355 O367 1.257 . S
O356 Gd336 2.377 . S
O356 C338 1.240 . S
O357 Gd337 2.395 . S
O357 C338 1.240 . S
O358 Gd336 2.448 . S
O358 C339 1.249 . S
O359 Gd336 2.506 . S
O359 C339 1.252 . S
O360 Gd336 2.435 . S
O360 C346 1.256 . S
O361 Gd336 2.717 . S
O361 Gd337 2.327 . S
O361 C346 1.257 . S
O362 Gd337 2.377 . S
O362 C347 1.240 . S
O363 Gd336 2.395 . S
O363 C347 1.240 . S
O364 Gd337 2.448 . S
O364 C348 1.249 . S
O365 Gd337 2.506 . S
O365 C348 1.252 . S
O366 Gd337 2.435 . S
O366 C355 1.256 . S
O367 Gd336 2.327 . S
O367 Gd337 2.717 . S
O367 C355 1.257 . S
H368 C341 0.930 . S
H369 C342 0.931 . S
H370 C344 0.931 . S
H371 C345 0.931 . S
H372 C350 0.930 . S
H373 C351 0.931 . S
H374 C353 0.931 . S
H375 C354 0.931 . S
Gd376 C379 2.818 . S
Gd376 O396 2.377 . S
Gd376 O398 2.448 . S
Gd376 O399 2.506 . S
Gd376 O400 2.435 1_455 S
Gd376 O401 2.717 1_455 S
Gd376 O403 2.395 1_455 S
Gd376 O407 2.327 1_554 S
Gd377 C388 2.818 . S
Gd377 O397 2.395 1_656 S
Gd377 O401 2.327 1_556 S
Gd377 O402 2.377 . S
Gd377 O404 2.448 . S
Gd377 O405 2.506 . S
Gd377 O406 2.435 1_655 S
Gd377 O407 2.717 1_655 S
C378 O396 1.240 . S
C378 O397 1.240 . S
C379 Gd376 2.818 . S
C379 C380 1.510 . S
C379 O398 1.249 . S
C379 O399 1.252 . S
C380 C379 1.510 . S
C380 C381 1.404 . S
C380 C382 1.352 . S
C381 C380 1.404 . S
C381 C385 1.389 . S
C381 H408 0.930 . S
C382 C380 1.352 . S
C382 C384 1.374 . S
C382 H409 0.931 . S
C383 C384 1.359 . S
C383 C385 1.364 . S
C384 C382 1.374 . S
C384 C383 1.359 . S
C384 H410 0.931 . S
C385 C381 1.389 . S
C385 C383 1.364 . S
C385 H411 0.931 . S
C386 O400 1.256 . S
C386 O401 1.257 . S
C387 O402 1.240 . S
C387 O403 1.240 1_556 S
C388 Gd377 2.818 . S
C388 C389 1.510 . S
C388 O404 1.249 . S
C388 O405 1.252 . S
C389 C388 1.510 . S
C389 C390 1.404 . S
C389 C391 1.352 . S
C390 C389 1.404 . S
C390 C394 1.389 . S
C390 H412 0.930 . S
C391 C389 1.352 . S
C391 C393 1.374 . S
C391 H413 0.931 . S
C392 C393 1.359 . S
C392 C394 1.364 . S
C393 C391 1.374 . S
C393 C392 1.359 . S
C393 H414 0.931 . S
C394 C390 1.389 . S
C394 C392 1.364 . S
C394 H415 0.931 . S
C395 O406 1.256 . S
C395 O407 1.257 . S
O396 Gd376 2.377 . S
O396 C378 1.240 . S
O397 Gd377 2.395 1_454 S
O397 C378 1.240 . S
O398 Gd376 2.448 . S
O398 C379 1.249 . S
O399 Gd376 2.506 . S
O399 C379 1.252 . S
O400 Gd376 2.435 1_655 S
O400 C386 1.256 . S
O401 Gd376 2.717 1_655 S
O401 Gd377 2.327 1_554 S
O401 C386 1.257 . S
O402 Gd377 2.377 . S
O402 C387 1.240 . S
O403 Gd376 2.395 1_655 S
O403 C387 1.240 1_554 S
O404 Gd377 2.448 . S
O404 C388 1.249 . S
O405 Gd377 2.506 . S
O405 C388 1.252 . S
O406 Gd377 2.435 1_455 S
O406 C395 1.256 . S
O407 Gd376 2.327 1_556 S
O407 Gd377 2.717 1_455 S
O407 C395 1.257 . S
H408 C381 0.930 . S
H409 C382 0.931 . S
H410 C384 0.931 . S
H411 C385 0.931 . S
H412 C390 0.930 . S
H413 C391 0.931 . S
H414 C393 0.931 . S
H415 C394 0.931 . S
H416 C428 0.930 . S
H417 C430 0.930 . S
H418 C431 0.930 . S
H419 C435 0.959 . S
H420 C435 0.959 . S
H421 C435 0.961 . S
H422 C436 0.960 . S
H423 C436 0.961 . S
H424 C436 0.959 . S
H425 C439 0.929 . S
H426 C440 0.931 . S
H427 C442 0.930 . S
C428 H416 0.930 . S
C428 C429 1.399 . S
C428 C433 1.399 . S
C429 C428 1.399 . S
C429 C430 1.376 . S
C430 H417 0.930 . S
C430 C429 1.376 . S
C430 C431 1.388 . S
C431 H418 0.930 . S
C431 C430 1.388 . S
C431 C432 1.390 . S
C432 C431 1.390 . S
C432 C433 1.394 . S
C432 C438 1.465 . S
C433 C428 1.399 . S
C433 C432 1.394 . S
C433 C434 1.516 . S
C434 C433 1.516 . S
C434 C435 1.502 . S
C434 C436 1.561 . S
C434 C437 1.526 . S
C435 H419 0.959 . S
C435 H420 0.959 . S
C435 H421 0.961 . S
C435 C434 1.502 . S
C436 H422 0.960 . S
C436 H423 0.961 . S
C436 H424 0.959 . S
C436 C434 1.561 . S
C437 C434 1.526 . S
C437 C438 1.396 . S
C437 C442 1.390 . S
C438 C432 1.465 . S
C438 C437 1.396 . S
C438 C439 1.399 . S
C439 H425 0.929 . S
C439 C438 1.399 . S
C439 C440 1.385 . S
C440 H426 0.931 . S
C440 C439 1.385 . S
C440 C441 1.389 . S
C441 C440 1.389 . S
C441 C442 1.387 . S
C442 H427 0.930 . S
C442 C437 1.390 . S
C442 C441 1.387 . S
H443 C455 0.930 . S
H444 C457 0.930 . S
H445 C458 0.930 . S
H446 C462 0.959 . S
H447 C462 0.959 . S
H448 C462 0.961 . S
H449 C463 0.960 . S
H450 C463 0.961 . S
H451 C463 0.959 . S
H452 C466 0.929 . S
H453 C467 0.931 . S
H454 C469 0.930 . S
C455 H443 0.930 . S
C455 C456 1.399 . S
C455 C460 1.399 . S
C456 C455 1.399 . S
C456 C457 1.376 . S
C457 H444 0.930 . S
C457 C456 1.376 . S
C457 C458 1.388 . S
C458 H445 0.930 . S
C458 C457 1.388 . S
C458 C459 1.390 . S
C459 C458 1.390 . S
C459 C460 1.394 . S
C459 C465 1.465 . S
C460 C455 1.399 . S
C460 C459 1.394 . S
C460 C461 1.516 . S
C461 C460 1.516 . S
C461 C462 1.502 . S
C461 C463 1.561 . S
C461 C464 1.526 . S
C462 H446 0.959 . S
C462 H447 0.959 . S
C462 H448 0.961 . S
C462 C461 1.502 . S
C463 H449 0.960 . S
C463 H450 0.961 . S
C463 H451 0.959 . S
C463 C461 1.561 . S
C464 C461 1.526 . S
C464 C465 1.396 . S
C464 C469 1.390 . S
C465 C459 1.465 . S
C465 C464 1.396 . S
C465 C466 1.399 . S
C466 H452 0.929 . S
C466 C465 1.399 . S
C466 C467 1.385 . S
C467 H453 0.931 . S
C467 C466 1.385 . S
C467 C468 1.389 . S
C468 C467 1.389 . S
C468 C469 1.387 . S
C469 H454 0.930 . S
C469 C464 1.390 . S
C469 C468 1.387 . S
H470 C482 0.930 . S
H471 C484 0.930 . S
H472 C485 0.930 . S
H473 C489 0.959 . S
H474 C489 0.959 . S
H475 C489 0.961 . S
H476 C490 0.960 . S
H477 C490 0.961 . S
H478 C490 0.959 . S
H479 C493 0.929 . S
H480 C494 0.931 . S
H481 C496 0.930 . S
C482 H470 0.930 . S
C482 C483 1.399 . S
C482 C487 1.399 . S
C483 C482 1.399 . S
C483 C484 1.376 . S
C484 H471 0.930 . S
C484 C483 1.376 . S
C484 C485 1.388 . S
C485 H472 0.930 . S
C485 C484 1.388 . S
C485 C486 1.390 . S
C486 C485 1.390 . S
C486 C487 1.394 . S
C486 C492 1.465 . S
C487 C482 1.399 . S
C487 C486 1.394 . S
C487 C488 1.516 . S
C488 C487 1.516 . S
C488 C489 1.502 . S
C488 C490 1.561 . S
C488 C491 1.526 . S
C489 H473 0.959 . S
C489 H474 0.959 . S
C489 H475 0.961 . S
C489 C488 1.502 . S
C490 H476 0.960 . S
C490 H477 0.961 . S
C490 H478 0.959 . S
C490 C488 1.561 . S
C491 C488 1.526 . S
C491 C492 1.396 . S
C491 C496 1.390 . S
C492 C486 1.465 . S
C492 C491 1.396 . S
C492 C493 1.399 . S
C493 H479 0.929 . S
C493 C492 1.399 . S
C493 C494 1.385 . S
C494 H480 0.931 . S
C494 C493 1.385 . S
C494 C495 1.389 . S
C495 C494 1.389 . S
C495 C496 1.387 . S
C496 H481 0.930 . S
C496 C491 1.390 . S
C496 C495 1.387 . S
H497 C509 0.930 . S
H498 C511 0.930 . S
H499 C512 0.930 . S
H500 C516 0.959 . S
H501 C516 0.959 . S
H502 C516 0.961 . S
H503 C517 0.960 . S
H504 C517 0.961 . S
H505 C517 0.959 . S
H506 C520 0.929 . S
H507 C521 0.931 . S
H508 C523 0.930 . S
C509 H497 0.930 . S
C509 C510 1.399 . S
C509 C514 1.399 . S
C510 C509 1.399 . S
C510 C511 1.376 . S
C511 H498 0.930 . S
C511 C510 1.376 . S
C511 C512 1.388 . S
C512 H499 0.930 . S
C512 C511 1.388 . S
C512 C513 1.390 . S
C513 C512 1.390 . S
C513 C514 1.394 . S
C513 C519 1.465 . S
C514 C509 1.399 . S
C514 C513 1.394 . S
C514 C515 1.516 . S
C515 C514 1.516 . S
C515 C516 1.502 . S
C515 C517 1.561 . S
C515 C518 1.526 . S
C516 H500 0.959 . S
C516 H501 0.959 . S
C516 H502 0.961 . S
C516 C515 1.502 . S
C517 H503 0.960 . S
C517 H504 0.961 . S
C517 H505 0.959 . S
C517 C515 1.561 . S
C518 C515 1.526 . S
C518 C519 1.396 . S
C518 C523 1.390 . S
C519 C513 1.465 . S
C519 C518 1.396 . S
C519 C520 1.399 . S
C520 H506 0.929 . S
C520 C519 1.399 . S
C520 C521 1.385 . S
C521 H507 0.931 . S
C521 C520 1.385 . S
C521 C522 1.389 . S
C522 C521 1.389 . S
C522 C523 1.387 . S
C523 H508 0.930 . S
C523 C518 1.390 . S
C523 C522 1.387 . S
H524 C536 0.930 . S
H525 C538 0.930 . S
H526 C539 0.930 . S
H527 C543 0.959 . S
H528 C543 0.959 . S
H529 C543 0.961 . S
H530 C544 0.960 . S
H531 C544 0.961 . S
H532 C544 0.959 . S
H533 C547 0.929 . S
H534 C548 0.931 . S
H535 C550 0.930 . S
C536 H524 0.930 . S
C536 C537 1.399 . S
C536 C541 1.399 . S
C537 C536 1.399 . S
C537 C538 1.376 . S
C538 H525 0.930 . S
C538 C537 1.376 . S
C538 C539 1.388 . S
C539 H526 0.930 . S
C539 C538 1.388 . S
C539 C540 1.390 . S
C540 C539 1.390 . S
C540 C541 1.394 . S
C540 C546 1.465 . S
C541 C536 1.399 . S
C541 C540 1.394 . S
C541 C542 1.516 . S
C542 C541 1.516 . S
C542 C543 1.502 . S
C542 C544 1.561 . S
C542 C545 1.526 . S
C543 H527 0.959 . S
C543 H528 0.959 . S
C543 H529 0.961 . S
C543 C542 1.502 . S
C544 H530 0.960 . S
C544 H531 0.961 . S
C544 H532 0.959 . S
C544 C542 1.561 . S
C545 C542 1.526 . S
C545 C546 1.396 . S
C545 C550 1.390 . S
C546 C540 1.465 . S
C546 C545 1.396 . S
C546 C547 1.399 . S
C547 H533 0.929 . S
C547 C546 1.399 . S
C547 C548 1.385 . S
C548 H534 0.931 . S
C548 C547 1.385 . S
C548 C549 1.389 . S
C549 C548 1.389 . S
C549 C550 1.387 . S
C550 H535 0.930 . S
C550 C545 1.390 . S
C550 C549 1.387 . S
H551 C563 0.930 . S
H552 C565 0.930 . S
H553 C566 0.930 . S
H554 C570 0.959 . S
H555 C570 0.959 . S
H556 C570 0.961 . S
H557 C571 0.960 . S
H558 C571 0.961 . S
H559 C571 0.959 . S
H560 C574 0.929 . S
H561 C575 0.931 . S
H562 C577 0.930 . S
C563 H551 0.930 . S
C563 C564 1.399 . S
C563 C568 1.399 . S
C564 C563 1.399 . S
C564 C565 1.376 . S
C565 H552 0.930 . S
C565 C564 1.376 . S
C565 C566 1.388 . S
C566 H553 0.930 . S
C566 C565 1.388 . S
C566 C567 1.390 . S
C567 C566 1.390 . S
C567 C568 1.394 . S
C567 C573 1.465 . S
C568 C563 1.399 . S
C568 C567 1.394 . S
C568 C569 1.516 . S
C569 C568 1.516 . S
C569 C570 1.502 . S
C569 C571 1.561 . S
C569 C572 1.526 . S
C570 H554 0.959 . S
C570 H555 0.959 . S
C570 H556 0.961 . S
C570 C569 1.502 . S
C571 H557 0.960 . S
C571 H558 0.961 . S
C571 H559 0.959 . S
C571 C569 1.561 . S
C572 C569 1.526 . S
C572 C573 1.396 . S
C572 C577 1.390 . S
C573 C567 1.465 . S
C573 C572 1.396 . S
C573 C574 1.399 . S
C574 H560 0.929 . S
C574 C573 1.399 . S
C574 C575 1.385 . S
C575 H561 0.931 . S
C575 C574 1.385 . S
C575 C576 1.389 . S
C576 C575 1.389 . S
C576 C577 1.387 . S
C577 H562 0.930 . S
C577 C572 1.390 . S
C577 C576 1.387 . S
H578 C590 0.930 . S
H579 C592 0.930 . S
H580 C593 0.930 . S
H581 C597 0.959 . S
H582 C597 0.959 . S
H583 C597 0.961 . S
H584 C598 0.960 . S
H585 C598 0.961 . S
H586 C598 0.959 . S
H587 C601 0.929 . S
H588 C602 0.931 1_554 S
H589 C604 0.930 . S
C590 H578 0.930 . S
C590 C591 1.399 . S
C590 C595 1.399 . S
C591 C590 1.399 . S
C591 C592 1.376 . S
C592 H579 0.930 . S
C592 C591 1.376 . S
C592 C593 1.388 . S
C593 H580 0.930 . S
C593 C592 1.388 . S
C593 C594 1.390 . S
C594 C593 1.390 . S
C594 C595 1.394 . S
C594 C600 1.465 . S
C595 C590 1.399 . S
C595 C594 1.394 . S
C595 C596 1.516 . S
C596 C595 1.516 . S
C596 C597 1.502 . S
C596 C598 1.561 . S
C596 C599 1.526 . S
C597 H581 0.959 . S
C597 H582 0.959 . S
C597 H583 0.961 . S
C597 C596 1.502 . S
C598 H584 0.960 . S
C598 H585 0.961 . S
C598 H586 0.959 . S
C598 C596 1.561 . S
C599 C596 1.526 . S
C599 C600 1.396 . S
C599 C604 1.390 . S
C600 C594 1.465 . S
C600 C599 1.396 . S
C600 C601 1.399 . S
C601 H587 0.929 . S
C601 C600 1.399 . S
C601 C602 1.385 . S
C602 H588 0.931 1_556 S
C602 C601 1.385 . S
C602 C603 1.389 . S
C603 C602 1.389 . S
C603 C604 1.387 . S
C604 H589 0.930 . S
C604 C599 1.390 . S
C604 C603 1.387 . S
H605 C617 0.930 . S
H606 C619 0.930 . S
H607 C620 0.930 . S
H608 C624 0.959 . S
H609 C624 0.959 . S
H610 C624 0.961 . S
H611 C625 0.960 . S
H612 C625 0.961 . S
H613 C625 0.959 . S
H614 C628 0.929 . S
H615 C629 0.931 . S
H616 C631 0.930 . S
C617 H605 0.930 . S
C617 C618 1.399 . S
C617 C622 1.399 . S
C618 C617 1.399 . S
C618 C619 1.376 . S
C619 H606 0.930 . S
C619 C618 1.376 . S
C619 C620 1.388 . S
C620 H607 0.930 . S
C620 C619 1.388 . S
C620 C621 1.390 . S
C621 C620 1.390 . S
C621 C622 1.394 . S
C621 C627 1.465 . S
C622 C617 1.399 . S
C622 C621 1.394 . S
C622 C623 1.516 . S
C623 C622 1.516 . S
C623 C624 1.502 . S
C623 C625 1.561 . S
C623 C626 1.526 . S
C624 H608 0.959 . S
C624 H609 0.959 . S
C624 H610 0.961 . S
C624 C623 1.502 . S
C625 H611 0.960 . S
C625 H612 0.961 . S
C625 H613 0.959 . S
C625 C623 1.561 . S
C626 C623 1.526 . S
C626 C627 1.396 . S
C626 C631 1.390 . S
C627 C621 1.465 . S
C627 C626 1.396 . S
C627 C628 1.399 . S
C628 H614 0.929 . S
C628 C627 1.399 . S
C628 C629 1.385 . S
C629 H615 0.931 . S
C629 C628 1.385 . S
C629 C630 1.389 . S
C630 C629 1.389 . S
C630 C631 1.387 . S
C631 H616 0.930 . S
C631 C626 1.390 . S
C631 C630 1.387 . S
H632 C644 0.930 . S
H633 C646 0.930 . S
H634 C647 0.930 . S
H635 C651 0.959 . S
H636 C651 0.959 . S
H637 C651 0.961 . S
H638 C652 0.960 . S
H639 C652 0.961 . S
H640 C652 0.959 . S
H641 C655 0.929 . S
H642 C656 0.931 . S
H643 C658 0.930 . S
C644 H632 0.930 . S
C644 C645 1.399 . S
C644 C649 1.399 . S
C645 C644 1.399 . S
C645 C646 1.376 . S
C646 H633 0.930 . S
C646 C645 1.376 . S
C646 C647 1.388 . S
C647 H634 0.930 . S
C647 C646 1.388 . S
C647 C648 1.390 . S
C648 C647 1.390 . S
C648 C649 1.394 . S
C648 C654 1.465 . S
C649 C644 1.399 . S
C649 C648 1.394 . S
C649 C650 1.516 . S
C650 C649 1.516 . S
C650 C651 1.502 . S
C650 C652 1.561 . S
C650 C653 1.526 . S
C651 H635 0.959 . S
C651 H636 0.959 . S
C651 H637 0.961 . S
C651 C650 1.502 . S
C652 H638 0.960 . S
C652 H639 0.961 . S
C652 H640 0.959 . S
C652 C650 1.561 . S
C653 C650 1.526 . S
C653 C654 1.396 . S
C653 C658 1.390 . S
C654 C648 1.465 . S
C654 C653 1.396 . S
C654 C655 1.399 . S
C655 H641 0.929 . S
C655 C654 1.399 . S
C655 C656 1.385 . S
C656 H642 0.931 . S
C656 C655 1.385 . S
C656 C657 1.389 . S
C657 C656 1.389 . S
C657 C658 1.387 . S
C658 H643 0.930 . S
C658 C653 1.390 . S
C658 C657 1.387 . S
H659 C671 0.930 . S
H660 C673 0.930 . S
H661 C674 0.930 . S
H662 C678 0.959 . S
H663 C678 0.959 . S
H664 C678 0.961 . S
H665 C679 0.960 . S
H666 C679 0.961 . S
H667 C679 0.959 . S
H668 C682 0.929 . S
H669 C683 0.931 . S
H670 C685 0.930 . S
C671 H659 0.930 . S
C671 C672 1.399 . S
C671 C676 1.399 . S
C672 C671 1.399 . S
C672 C673 1.376 . S
C673 H660 0.930 . S
C673 C672 1.376 . S
C673 C674 1.388 . S
C674 H661 0.930 . S
C674 C673 1.388 . S
C674 C675 1.390 . S
C675 C674 1.390 . S
C675 C676 1.394 . S
C675 C681 1.465 . S
C676 C671 1.399 . S
C676 C675 1.394 . S
C676 C677 1.516 . S
C677 C676 1.516 . S
C677 C678 1.502 . S
C677 C679 1.561 . S
C677 C680 1.526 . S
C678 H662 0.959 . S
C678 H663 0.959 . S
C678 H664 0.961 . S
C678 C677 1.502 . S
C679 H665 0.960 . S
C679 H666 0.961 . S
C679 H667 0.959 . S
C679 C677 1.561 . S
C680 C677 1.526 . S
C680 C681 1.396 . S
C680 C685 1.390 . S
C681 C675 1.465 . S
C681 C680 1.396 . S
C681 C682 1.399 . S
C682 H668 0.929 . S
C682 C681 1.399 . S
C682 C683 1.385 . S
C683 H669 0.931 . S
C683 C682 1.385 . S
C683 C684 1.389 . S
C684 C683 1.389 . S
C684 C685 1.387 . S
C685 H670 0.930 . S
C685 C680 1.390 . S
C685 C684 1.387 . S
H686 C698 0.930 . S
H687 C700 0.930 . S
H688 C701 0.930 . S
H689 C705 0.959 . S
H690 C705 0.959 . S
H691 C705 0.961 . S
H692 C706 0.960 . S
H693 C706 0.961 . S
H694 C706 0.959 . S
H695 C709 0.929 . S
H696 C710 0.931 . S
H697 C712 0.930 . S
C698 H686 0.930 . S
C698 C699 1.399 . S
C698 C703 1.399 . S
C699 C698 1.399 . S
C699 C700 1.376 . S
C700 H687 0.930 . S
C700 C699 1.376 . S
C700 C701 1.388 . S
C701 H688 0.930 . S
C701 C700 1.388 . S
C701 C702 1.390 . S
C702 C701 1.390 . S
C702 C703 1.394 . S
C702 C708 1.465 . S
C703 C698 1.399 . S
C703 C702 1.394 . S
C703 C704 1.516 . S
C704 C703 1.516 . S
C704 C705 1.502 . S
C704 C706 1.561 . S
C704 C707 1.526 . S
C705 H689 0.959 . S
C705 H690 0.959 . S
C705 H691 0.961 . S
C705 C704 1.502 . S
C706 H692 0.960 . S
C706 H693 0.961 . S
C706 H694 0.959 . S
C706 C704 1.561 . S
C707 C704 1.526 . S
C707 C708 1.396 . S
C707 C712 1.390 . S
C708 C702 1.465 . S
C708 C707 1.396 . S
C708 C709 1.399 . S
C709 H695 0.929 . S
C709 C708 1.399 . S
C709 C710 1.385 . S
C710 H696 0.931 . S
C710 C709 1.385 . S
C710 C711 1.389 . S
C711 C710 1.389 . S
C711 C712 1.387 . S
C712 H697 0.930 . S
C712 C707 1.390 . S
C712 C711 1.387 . S
H713 C725 0.930 . S
H714 C727 0.930 . S
H715 C728 0.930 . S
H716 C732 0.959 . S
H717 C732 0.959 . S
H718 C732 0.961 . S
H719 C733 0.960 . S
H720 C733 0.961 . S
H721 C733 0.959 . S
H722 C736 0.929 . S
H723 C737 0.931 . S
H724 C739 0.930 . S
C725 H713 0.930 . S
C725 C726 1.399 . S
C725 C730 1.399 . S
C726 C725 1.399 . S
C726 C727 1.376 . S
C727 H714 0.930 . S
C727 C726 1.376 . S
C727 C728 1.388 . S
C728 H715 0.930 . S
C728 C727 1.388 . S
C728 C729 1.390 . S
C729 C728 1.390 . S
C729 C730 1.394 . S
C729 C735 1.465 . S
C730 C725 1.399 . S
C730 C729 1.394 . S
C730 C731 1.516 . S
C731 C730 1.516 . S
C731 C732 1.502 . S
C731 C733 1.561 . S
C731 C734 1.526 . S
C732 H716 0.959 . S
C732 H717 0.959 . S
C732 H718 0.961 . S
C732 C731 1.502 . S
C733 H719 0.960 . S
C733 H720 0.961 . S
C733 H721 0.959 . S
C733 C731 1.561 . S
C734 C731 1.526 . S
C734 C735 1.396 . S
C734 C739 1.390 . S
C735 C729 1.465 . S
C735 C734 1.396 . S
C735 C736 1.399 . S
C736 H722 0.929 . S
C736 C735 1.399 . S
C736 C737 1.385 . S
C737 H723 0.931 . S
C737 C736 1.385 . S
C737 C738 1.389 . S
C738 C737 1.389 . S
C738 C739 1.387 . S
C739 H724 0.930 . S
C739 C734 1.390 . S
C739 C738 1.387 . S
H740 C752 0.930 . S
H741 C754 0.930 . S
H742 C755 0.930 . S
H743 C759 0.959 . S
H744 C759 0.959 . S
H745 C759 0.961 . S
H746 C760 0.960 . S
H747 C760 0.961 . S
H748 C760 0.959 . S
H749 C763 0.929 . S
H750 C764 0.931 . S
H751 C766 0.930 . S
C752 H740 0.930 . S
C752 C753 1.399 . S
C752 C757 1.399 . S
C753 C752 1.399 . S
C753 C754 1.376 . S
C754 H741 0.930 . S
C754 C753 1.376 . S
C754 C755 1.388 . S
C755 H742 0.930 . S
C755 C754 1.388 . S
C755 C756 1.390 . S
C756 C755 1.390 . S
C756 C757 1.394 . S
C756 C762 1.465 . S
C757 C752 1.399 . S
C757 C756 1.394 . S
C757 C758 1.516 . S
C758 C757 1.516 . S
C758 C759 1.502 . S
C758 C760 1.561 . S
C758 C761 1.526 . S
C759 H743 0.959 . S
C759 H744 0.959 . S
C759 H745 0.961 . S
C759 C758 1.502 . S
C760 H746 0.960 . S
C760 H747 0.961 . S
C760 H748 0.959 . S
C760 C758 1.561 . S
C761 C758 1.526 . S
C761 C762 1.396 . S
C761 C766 1.390 . S
C762 C756 1.465 . S
C762 C761 1.396 . S
C762 C763 1.399 . S
C763 H749 0.929 . S
C763 C762 1.399 . S
C763 C764 1.385 . S
C764 H750 0.931 . S
C764 C763 1.385 . S
C764 C765 1.389 . S
C765 C764 1.389 . S
C765 C766 1.387 . S
C766 H751 0.930 . S
C766 C761 1.390 . S
C766 C765 1.387 . S
H767 C779 0.930 . S
H768 C781 0.930 . S
H769 C782 0.930 . S
H770 C786 0.959 . S
H771 C786 0.959 . S
H772 C786 0.961 . S
H773 C787 0.960 . S
H774 C787 0.961 . S
H775 C787 0.959 . S
H776 C790 0.929 . S
H777 C791 0.931 . S
H778 C793 0.930 . S
C779 H767 0.930 . S
C779 C780 1.399 . S
C779 C784 1.399 . S
C780 C779 1.399 . S
C780 C781 1.376 . S
C781 H768 0.930 . S
C781 C780 1.376 . S
C781 C782 1.388 . S
C782 H769 0.930 . S
C782 C781 1.388 . S
C782 C783 1.390 . S
C783 C782 1.390 . S
C783 C784 1.394 . S
C783 C789 1.465 . S
C784 C779 1.399 . S
C784 C783 1.394 . S
C784 C785 1.516 . S
C785 C784 1.516 . S
C785 C786 1.502 . S
C785 C787 1.561 . S
C785 C788 1.526 . S
C786 H770 0.959 . S
C786 H771 0.959 . S
C786 H772 0.961 . S
C786 C785 1.502 . S
C787 H773 0.960 . S
C787 H774 0.961 . S
C787 H775 0.959 . S
C787 C785 1.561 . S
C788 C785 1.526 . S
C788 C789 1.396 . S
C788 C793 1.390 . S
C789 C783 1.465 . S
C789 C788 1.396 . S
C789 C790 1.399 . S
C790 H776 0.929 . S
C790 C789 1.399 . S
C790 C791 1.385 . S
C791 H777 0.931 . S
C791 C790 1.385 . S
C791 C792 1.389 . S
C792 C791 1.389 . S
C792 C793 1.387 . S
C793 H778 0.930 . S
C793 C788 1.390 . S
C793 C792 1.387 . S
H794 C806 0.930 . S
H795 C808 0.930 . S
H796 C809 0.930 . S
H797 C813 0.959 . S
H798 C813 0.959 . S
H799 C813 0.961 . S
H800 C814 0.960 . S
H801 C814 0.961 . S
H802 C814 0.959 . S
H803 C817 0.929 . S
H804 C818 0.931 . S
H805 C820 0.930 . S
C806 H794 0.930 . S
C806 C807 1.399 . S
C806 C811 1.399 . S
C807 C806 1.399 . S
C807 C808 1.376 . S
C808 H795 0.930 . S
C808 C807 1.376 . S
C808 C809 1.388 . S
C809 H796 0.930 . S
C809 C808 1.388 . S
C809 C810 1.390 . S
C810 C809 1.390 . S
C810 C811 1.394 . S
C810 C816 1.465 . S
C811 C806 1.399 . S
C811 C810 1.394 . S
C811 C812 1.516 . S
C812 C811 1.516 . S
C812 C813 1.502 . S
C812 C814 1.561 . S
C812 C815 1.526 . S
C813 H797 0.959 . S
C813 H798 0.959 . S
C813 H799 0.961 . S
C813 C812 1.502 . S
C814 H800 0.960 . S
C814 H801 0.961 . S
C814 H802 0.959 . S
C814 C812 1.561 . S
C815 C812 1.526 . S
C815 C816 1.396 . S
C815 C820 1.390 . S
C816 C810 1.465 . S
C816 C815 1.396 . S
C816 C817 1.399 . S
C817 H803 0.929 . S
C817 C816 1.399 . S
C817 C818 1.385 . S
C818 H804 0.931 . S
C818 C817 1.385 . S
C818 C819 1.389 . S
C819 C818 1.389 . S
C819 C820 1.387 . S
C820 H805 0.930 . S
C820 C815 1.390 . S
C820 C819 1.387 . S
H821 C833 0.930 . S
H822 C835 0.930 . S
H823 C836 0.930 . S
H824 C840 0.959 . S
H825 C840 0.959 . S
H826 C840 0.961 . S
H827 C841 0.960 . S
H828 C841 0.961 . S
H829 C841 0.959 . S
H830 C844 0.929 . S
H831 C845 0.931 . S
H832 C847 0.930 . S
C833 H821 0.930 . S
C833 C834 1.399 . S
C833 C838 1.399 . S
C834 C833 1.399 . S
C834 C835 1.376 . S
C835 H822 0.930 . S
C835 C834 1.376 . S
C835 C836 1.388 . S
C836 H823 0.930 . S
C836 C835 1.388 . S
C836 C837 1.390 . S
C837 C836 1.390 . S
C837 C838 1.394 . S
C837 C843 1.465 . S
C838 C833 1.399 . S
C838 C837 1.394 . S
C838 C839 1.516 . S
C839 C838 1.516 . S
C839 C840 1.502 . S
C839 C841 1.561 . S
C839 C842 1.526 . S
C840 H824 0.959 . S
C840 H825 0.959 . S
C840 H826 0.961 . S
C840 C839 1.502 . S
C841 H827 0.960 . S
C841 H828 0.961 . S
C841 H829 0.959 . S
C841 C839 1.561 . S
C842 C839 1.526 . S
C842 C843 1.396 . S
C842 C847 1.390 . S
C843 C837 1.465 . S
C843 C842 1.396 . S
C843 C844 1.399 . S
C844 H830 0.929 . S
C844 C843 1.399 . S
C844 C845 1.385 . S
C845 H831 0.931 . S
C845 C844 1.385 . S
C845 C846 1.389 . S
C846 C845 1.389 . S
C846 C847 1.387 . S
C847 H832 0.930 . S
C847 C842 1.390 . S
C847 C846 1.387 . S
H848 C860 0.930 . S
H849 C862 0.930 . S
H850 C863 0.930 . S
H851 C867 0.959 . S
H852 C867 0.959 . S
H853 C867 0.961 . S
H854 C868 0.960 . S
H855 C868 0.961 . S
H856 C868 0.959 . S
H857 C871 0.929 . S
H858 C872 0.931 . S
H859 C874 0.930 . S
C860 H848 0.930 . S
C860 C861 1.399 . S
C860 C865 1.399 . S
C861 C860 1.399 . S
C861 C862 1.376 . S
C862 H849 0.930 . S
C862 C861 1.376 . S
C862 C863 1.388 . S
C863 H850 0.930 . S
C863 C862 1.388 . S
C863 C864 1.390 . S
C864 C863 1.390 . S
C864 C865 1.394 . S
C864 C870 1.465 . S
C865 C860 1.399 . S
C865 C864 1.394 . S
C865 C866 1.516 . S
C866 C865 1.516 . S
C866 C867 1.502 . S
C866 C868 1.561 . S
C866 C869 1.526 . S
C867 H851 0.959 . S
C867 H852 0.959 . S
C867 H853 0.961 . S
C867 C866 1.502 . S
C868 H854 0.960 . S
C868 H855 0.961 . S
C868 H856 0.959 . S
C868 C866 1.561 . S
C869 C866 1.526 . S
C869 C870 1.396 . S
C869 C874 1.390 . S
C870 C864 1.465 . S
C870 C869 1.396 . S
C870 C871 1.399 . S
C871 H857 0.929 . S
C871 C870 1.399 . S
C871 C872 1.385 . S
C872 H858 0.931 . S
C872 C871 1.385 . S
C872 C873 1.389 . S
C873 C872 1.389 . S
C873 C874 1.387 . S
C874 H859 0.930 . S
C874 C869 1.390 . S
C874 C873 1.387 . S
H875 C887 0.930 . S
H876 C889 0.930 . S
H877 C890 0.930 . S
H878 C894 0.959 . S
H879 C894 0.959 . S
H880 C894 0.961 . S
H881 C895 0.960 . S
H882 C895 0.961 . S
H883 C895 0.959 . S
H884 C898 0.929 . S
H885 C899 0.931 . S
H886 C901 0.930 . S
C887 H875 0.930 . S
C887 C888 1.399 . S
C887 C892 1.399 . S
C888 C887 1.399 . S
C888 C889 1.376 . S
C889 H876 0.930 . S
C889 C888 1.376 . S
C889 C890 1.388 . S
C890 H877 0.930 . S
C890 C889 1.388 . S
C890 C891 1.390 . S
C891 C890 1.390 . S
C891 C892 1.394 . S
C891 C897 1.465 . S
C892 C887 1.399 . S
C892 C891 1.394 . S
C892 C893 1.516 . S
C893 C892 1.516 . S
C893 C894 1.502 . S
C893 C895 1.561 . S
C893 C896 1.526 . S
C894 H878 0.959 . S
C894 H879 0.959 . S
C894 H880 0.961 . S
C894 C893 1.502 . S
C895 H881 0.960 . S
C895 H882 0.961 . S
C895 H883 0.959 . S
C895 C893 1.561 . S
C896 C893 1.526 . S
C896 C897 1.396 . S
C896 C901 1.390 . S
C897 C891 1.465 . S
C897 C896 1.396 . S
C897 C898 1.399 . S
C898 H884 0.929 . S
C898 C897 1.399 . S
C898 C899 1.385 . S
C899 H885 0.931 . S
C899 C898 1.385 . S
C899 C900 1.389 . S
C900 C899 1.389 . S
C900 C901 1.387 . S
C901 H886 0.930 . S
C901 C896 1.390 . S
C901 C900 1.387 . S
H902 C914 0.930 . S
H903 C916 0.930 . S
H904 C917 0.930 . S
H905 C921 0.959 . S
H906 C921 0.959 . S
H907 C921 0.961 . S
H908 C922 0.960 . S
H909 C922 0.961 . S
H910 C922 0.959 . S
H911 C925 0.929 . S
H912 C926 0.931 . S
H913 C928 0.930 . S
C914 H902 0.930 . S
C914 C915 1.399 . S
C914 C919 1.399 . S
C915 C914 1.399 . S
C915 C916 1.376 . S
C916 H903 0.930 . S
C916 C915 1.376 . S
C916 C917 1.388 . S
C917 H904 0.930 . S
C917 C916 1.388 . S
C917 C918 1.390 . S
C918 C917 1.390 . S
C918 C919 1.394 . S
C918 C924 1.465 . S
C919 C914 1.399 . S
C919 C918 1.394 . S
C919 C920 1.516 . S
C920 C919 1.516 . S
C920 C921 1.502 . S
C920 C922 1.561 . S
C920 C923 1.526 . S
C921 H905 0.959 . S
C921 H906 0.959 . S
C921 H907 0.961 . S
C921 C920 1.502 . S
C922 H908 0.960 . S
C922 H909 0.961 . S
C922 H910 0.959 . S
C922 C920 1.561 . S
C923 C920 1.526 . S
C923 C924 1.396 . S
C923 C928 1.390 . S
C924 C918 1.465 . S
C924 C923 1.396 . S
C924 C925 1.399 . S
C925 H911 0.929 . S
C925 C924 1.399 . S
C925 C926 1.385 . S
C926 H912 0.931 . S
C926 C925 1.385 . S
C926 C927 1.389 . S
C927 C926 1.389 . S
C927 C928 1.387 . S
C928 H913 0.930 . S
C928 C923 1.390 . S
C928 C927 1.387 . S
H929 C941 0.930 . S
H930 C943 0.930 . S
H931 C944 0.930 . S
H932 C948 0.959 . S
H933 C948 0.959 . S
H934 C948 0.961 . S
H935 C949 0.960 . S
H936 C949 0.961 . S
H937 C949 0.959 . S
H938 C952 0.929 . S
H939 C953 0.931 . S
H940 C955 0.930 . S
C941 H929 0.930 . S
C941 C942 1.399 . S
C941 C946 1.399 . S
C942 C941 1.399 . S
C942 C943 1.376 . S
C943 H930 0.930 . S
C943 C942 1.376 . S
C943 C944 1.388 . S
C944 H931 0.930 . S
C944 C943 1.388 . S
C944 C945 1.390 . S
C945 C944 1.390 . S
C945 C946 1.394 . S
C945 C951 1.465 . S
C946 C941 1.399 . S
C946 C945 1.394 . S
C946 C947 1.516 . S
C947 C946 1.516 . S
C947 C948 1.502 . S
C947 C949 1.561 . S
C947 C950 1.526 . S
C948 H932 0.959 . S
C948 H933 0.959 . S
C948 H934 0.961 . S
C948 C947 1.502 . S
C949 H935 0.960 . S
C949 H936 0.961 . S
C949 H937 0.959 . S
C949 C947 1.561 . S
C950 C947 1.526 . S
C950 C951 1.396 . S
C950 C955 1.390 . S
C951 C945 1.465 . S
C951 C950 1.396 . S
C951 C952 1.399 . S
C952 H938 0.929 . S
C952 C951 1.399 . S
C952 C953 1.385 . S
C953 H939 0.931 . S
C953 C952 1.385 . S
C953 C954 1.389 . S
C954 C953 1.389 . S
C954 C955 1.387 . S
C955 H940 0.930 . S
C955 C950 1.390 . S
C955 C954 1.387 . S
H956 C968 0.930 . S
H957 C970 0.930 . S
H958 C971 0.930 . S
H959 C975 0.959 . S
H960 C975 0.959 . S
H961 C975 0.961 . S
H962 C976 0.960 . S
H963 C976 0.961 . S
H964 C976 0.959 . S
H965 C979 0.929 . S
H966 C980 0.931 . S
H967 C982 0.930 . S
C968 H956 0.930 . S
C968 C969 1.399 . S
C968 C973 1.399 . S
C969 C968 1.399 . S
C969 C970 1.376 . S
C970 H957 0.930 . S
C970 C969 1.376 . S
C970 C971 1.388 . S
C971 H958 0.930 . S
C971 C970 1.388 . S
C971 C972 1.390 . S
C972 C971 1.390 . S
C972 C973 1.394 . S
C972 C978 1.465 . S
C973 C968 1.399 . S
C973 C972 1.394 . S
C973 C974 1.516 . S
C974 C973 1.516 . S
C974 C975 1.502 . S
C974 C976 1.561 . S
C974 C977 1.526 . S
C975 H959 0.959 . S
C975 H960 0.959 . S
C975 H961 0.961 . S
C975 C974 1.502 . S
C976 H962 0.960 . S
C976 H963 0.961 . S
C976 H964 0.959 . S
C976 C974 1.561 . S
C977 C974 1.526 . S
C977 C978 1.396 . S
C977 C982 1.390 . S
C978 C972 1.465 . S
C978 C977 1.396 . S
C978 C979 1.399 . S
C979 H965 0.929 . S
C979 C978 1.399 . S
C979 C980 1.385 . S
C980 H966 0.931 . S
C980 C979 1.385 . S
C980 C981 1.389 . S
C981 C980 1.389 . S
C981 C982 1.387 . S
C982 H967 0.930 . S
C982 C977 1.390 . S
C982 C981 1.387 . S
H983 C995 0.930 . S
H984 C997 0.930 . S
H985 C998 0.930 . S
H986 C1002 0.959 . S
H987 C1002 0.959 . S
H988 C1002 0.961 . S
H989 C1003 0.960 . S
H990 C1003 0.961 . S
H991 C1003 0.959 . S
H992 C1006 0.929 . S
H993 C1007 0.931 . S
H994 C1009 0.930 . S
C995 H983 0.930 . S
C995 C996 1.399 . S
C995 C1000 1.399 . S
C996 C995 1.399 . S
C996 C997 1.376 . S
C997 H984 0.930 . S
C997 C996 1.376 . S
C997 C998 1.388 . S
C998 H985 0.930 . S
C998 C997 1.388 . S
C998 C999 1.390 . S
C999 C998 1.390 . S
C999 C1000 1.394 . S
C999 C1005 1.465 . S
C1000 C995 1.399 . S
C1000 C999 1.394 . S
C1000 C1001 1.516 . S
C1001 C1000 1.516 . S
C1001 C1002 1.502 . S
C1001 C1003 1.561 . S
C1001 C1004 1.526 . S
C1002 H986 0.959 . S
C1002 H987 0.959 . S
C1002 H988 0.961 . S
C1002 C1001 1.502 . S
C1003 H989 0.960 . S
C1003 H990 0.961 . S
C1003 H991 0.959 . S
C1003 C1001 1.561 . S
C1004 C1001 1.526 . S
C1004 C1005 1.396 . S
C1004 C1009 1.390 . S
C1005 C999 1.465 . S
C1005 C1004 1.396 . S
C1005 C1006 1.399 . S
C1006 H992 0.929 . S
C1006 C1005 1.399 . S
C1006 C1007 1.385 . S
C1007 H993 0.931 . S
C1007 C1006 1.385 . S
C1007 C1008 1.389 . S
C1008 C1007 1.389 . S
C1008 C1009 1.387 . S
C1009 H994 0.930 . S
C1009 C1004 1.390 . S
C1009 C1008 1.387 . S
H1010 C1022 0.930 . S
H1011 C1024 0.930 . S
H1012 C1025 0.930 . S
H1013 C1029 0.959 . S
H1014 C1029 0.959 . S
H1015 C1029 0.961 . S
H1016 C1030 0.960 . S
H1017 C1030 0.961 . S
H1018 C1030 0.959 . S
H1019 C1033 0.929 . S
H1020 C1034 0.931 . S
H1021 C1036 0.930 . S
C1022 H1010 0.930 . S
C1022 C1023 1.399 . S
C1022 C1027 1.399 . S
C1023 C1022 1.399 . S
C1023 C1024 1.376 . S
C1024 H1011 0.930 . S
C1024 C1023 1.376 . S
C1024 C1025 1.388 . S
C1025 H1012 0.930 . S
C1025 C1024 1.388 . S
C1025 C1026 1.390 . S
C1026 C1025 1.390 . S
C1026 C1027 1.394 . S
C1026 C1032 1.465 . S
C1027 C1022 1.399 . S
C1027 C1026 1.394 . S
C1027 C1028 1.516 . S
C1028 C1027 1.516 . S
C1028 C1029 1.502 . S
C1028 C1030 1.561 . S
C1028 C1031 1.526 . S
C1029 H1013 0.959 . S
C1029 H1014 0.959 . S
C1029 H1015 0.961 . S
C1029 C1028 1.502 . S
C1030 H1016 0.960 . S
C1030 H1017 0.961 . S
C1030 H1018 0.959 . S
C1030 C1028 1.561 . S
C1031 C1028 1.526 . S
C1031 C1032 1.396 . S
C1031 C1036 1.390 . S
C1032 C1026 1.465 . S
C1032 C1031 1.396 . S
C1032 C1033 1.399 . S
C1033 H1019 0.929 . S
C1033 C1032 1.399 . S
C1033 C1034 1.385 . S
C1034 H1020 0.931 . S
C1034 C1033 1.385 . S
C1034 C1035 1.389 . S
C1035 C1034 1.389 . S
C1035 C1036 1.387 . S
C1036 H1021 0.930 . S
C1036 C1031 1.390 . S
C1036 C1035 1.387 . S
H1037 C1049 0.930 . S
H1038 C1051 0.930 . S
H1039 C1052 0.930 . S
H1040 C1056 0.959 . S
H1041 C1056 0.959 . S
H1042 C1056 0.961 . S
H1043 C1057 0.960 . S
H1044 C1057 0.961 . S
H1045 C1057 0.959 . S
H1046 C1060 0.929 . S
H1047 C1061 0.931 . S
H1048 C1063 0.930 . S
C1049 H1037 0.930 . S
C1049 C1050 1.399 . S
C1049 C1054 1.399 . S
C1050 C1049 1.399 . S
C1050 C1051 1.376 . S
C1051 H1038 0.930 . S
C1051 C1050 1.376 . S
C1051 C1052 1.388 . S
C1052 H1039 0.930 . S
C1052 C1051 1.388 . S
C1052 C1053 1.390 . S
C1053 C1052 1.390 . S
C1053 C1054 1.394 . S
C1053 C1059 1.465 . S
C1054 C1049 1.399 . S
C1054 C1053 1.394 . S
C1054 C1055 1.516 . S
C1055 C1054 1.516 . S
C1055 C1056 1.502 . S
C1055 C1057 1.561 . S
C1055 C1058 1.526 . S
C1056 H1040 0.959 . S
C1056 H1041 0.959 . S
C1056 H1042 0.961 . S
C1056 C1055 1.502 . S
C1057 H1043 0.960 . S
C1057 H1044 0.961 . S
C1057 H1045 0.959 . S
C1057 C1055 1.561 . S
C1058 C1055 1.526 . S
C1058 C1059 1.396 . S
C1058 C1063 1.390 . S
C1059 C1053 1.465 . S
C1059 C1058 1.396 . S
C1059 C1060 1.399 . S
C1060 H1046 0.929 . S
C1060 C1059 1.399 . S
C1060 C1061 1.385 . S
C1061 H1047 0.931 . S
C1061 C1060 1.385 . S
C1061 C1062 1.389 . S
C1062 C1061 1.389 . S
C1062 C1063 1.387 . S
C1063 H1048 0.930 . S
C1063 C1058 1.390 . S
C1063 C1062 1.387 . S
C429 C29 1.224 . S
C441 C263 1.233 . S
C456 C49 0.962 . S
C468 C312 0.960 . S
C495 C338 2.480 . S
C483 C93 2.451 . S
C510 C119 2.270 . S
C522 C386 2.295 . S
C549 C298 2.306 . S
C537 C17 2.295 . S
C576 C266 0.836 . S
C564 C61 0.831 . S
C603 C387 1.895 . S
C591 C81 1.899 . S
C630 C355 1.648 . S
C618 C125 1.599 . S
C645 C23 1.632 . S
C657 C383 1.617 . S
C684 C315 2.290 . S
C672 C87 2.302 . S
C699 C113 2.317 . S
C711 C267 2.354 . S
C726 C55 0.896 . S
C738 C352 0.867 . S
C765 C272 1.204 . S
C753 C157 1.136 . S
C780 C189 0.989 . S
C792 C303 1.033 . S
C807 C221 2.432 . S
C819 C347 2.436 . S
C834 C253 2.344 . S
C846 C395 2.359 . S
C861 C145 2.107 . S
C873 C307 2.390 . S
C900 C275 0.896 . S
C888 C183 0.818 . S
C927 C378 1.911 . S
C915 C209 1.914 . S
C954 C346 1.561 . S
C942 C247 1.544 . S
C969 C151 1.519 . S
C981 C392 1.630 . S
C1008 C306 2.263 . S
C996 C215 2.303 . S
C1035 C258 2.300 . S
C1023 C241 2.243 . S
C1050 C177 0.892 . S
C1062 C343 0.924 . S
