# Generated by pormake.
# Topology eea, (3,6)-cn, num edge types: 1
# Building blocks:
#     Node 0, Type 0, BuildingBlock: MIDCAF_clean_linker_0, # of connection points: 3
#     Node 1, Type 0, BuildingBlock: MIDCAF_clean_linker_0, # of connection points: 3
#     Node 2, Type 0, BuildingBlock: MIDCAF_clean_linker_0, # of connection points: 3
#     Node 3, Type 0, BuildingBlock: MIDCAF_clean_linker_0, # of connection points: 3
#     Node 4, Type 0, BuildingBlock: MIDCAF_clean_linker_0, # of connection points: 3
#     Node 5, Type 0, BuildingBlock: MIDCAF_clean_linker_0, # of connection points: 3
#     Node 6, Type 0, BuildingBlock: MIDCAF_clean_linker_0, # of connection points: 3
#     Node 7, Type 0, BuildingBlock: MIDCAF_clean_linker_0, # of connection points: 3
#     Node 8, Type 0, BuildingBlock: MIDCAF_clean_linker_0, # of connection points: 3
#     Node 9, Type 0, BuildingBlock: MIDCAF_clean_linker_0, # of connection points: 3
#     Node 10, Type 0, BuildingBlock: MIDCAF_clean_linker_0, # of connection points: 3
#     Node 11, Type 0, BuildingBlock: MIDCAF_clean_linker_0, # of connection points: 3
#     Node 12, Type 0, BuildingBlock: MIDCAF_clean_linker_0, # of connection points: 3
#     Node 13, Type 0, BuildingBlock: MIDCAF_clean_linker_0, # of connection points: 3
#     Node 14, Type 0, BuildingBlock: MIDCAF_clean_linker_0, # of connection points: 3
#     Node 15, Type 0, BuildingBlock: MIDCAF_clean_linker_0, # of connection points: 3
#     Node 16, Type 0, BuildingBlock: MIDCAF_clean_linker_0, # of connection points: 3
#     Node 17, Type 0, BuildingBlock: MIDCAF_clean_linker_0, # of connection points: 3
#     Node 18, Type 1, BuildingBlock: CUWYAW_clean_sbu_0, # of connection points: 6
#     Node 19, Type 1, BuildingBlock: CUWYAW_clean_sbu_0, # of connection points: 6
#     Node 20, Type 1, BuildingBlock: CUWYAW_clean_sbu_0, # of connection points: 6
#     Node 21, Type 1, BuildingBlock: CUWYAW_clean_sbu_0, # of connection points: 6
#     Node 22, Type 1, BuildingBlock: CUWYAW_clean_sbu_0, # of connection points: 6
#     Node 23, Type 1, BuildingBlock: CUWYAW_clean_sbu_0, # of connection points: 6
#     Node 24, Type 1, BuildingBlock: CUWYAW_clean_sbu_0, # of connection points: 6
#     Node 25, Type 1, BuildingBlock: CUWYAW_clean_sbu_0, # of connection points: 6
#     Node 26, Type 1, BuildingBlock: CUWYAW_clean_sbu_0, # of connection points: 6
#     Edge 27, Type (0, 1), BuildingBlock: UVAHIK_clean_linker_0, # of connection points: 2
#     Edge 28, Type (0, 1), BuildingBlock: UVAHIK_clean_linker_0, # of connection points: 2
#     Edge 29, Type (0, 1), BuildingBlock: UVAHIK_clean_linker_0, # of connection points: 2
#     Edge 30, Type (0, 1), BuildingBlock: UVAHIK_clean_linker_0, # of connection points: 2
#     Edge 31, Type (0, 1), BuildingBlock: UVAHIK_clean_linker_0, # of connection points: 2
#     Edge 32, Type (0, 1), BuildingBlock: UVAHIK_clean_linker_0, # of connection points: 2
#     Edge 33, Type (0, 1), BuildingBlock: UVAHIK_clean_linker_0, # of connection points: 2
#     Edge 34, Type (0, 1), BuildingBlock: UVAHIK_clean_linker_0, # of connection points: 2
#     Edge 35, Type (0, 1), BuildingBlock: UVAHIK_clean_linker_0, # of connection points: 2
#     Edge 36, Type (0, 1), BuildingBlock: UVAHIK_clean_linker_0, # of connection points: 2
#     Edge 37, Type (0, 1), BuildingBlock: UVAHIK_clean_linker_0, # of connection points: 2
#     Edge 38, Type (0, 1), BuildingBlock: UVAHIK_clean_linker_0, # of connection points: 2
#     Edge 39, Type (0, 1), BuildingBlock: UVAHIK_clean_linker_0, # of connection points: 2
#     Edge 40, Type (0, 1), BuildingBlock: UVAHIK_clean_linker_0, # of connection points: 2
#     Edge 41, Type (0, 1), BuildingBlock: UVAHIK_clean_linker_0, # of connection points: 2
#     Edge 42, Type (0, 1), BuildingBlock: UVAHIK_clean_linker_0, # of connection points: 2
#     Edge 43, Type (0, 1), BuildingBlock: UVAHIK_clean_linker_0, # of connection points: 2
#     Edge 44, Type (0, 1), BuildingBlock: UVAHIK_clean_linker_0, # of connection points: 2
#     Edge 45, Type (0, 1), BuildingBlock: UVAHIK_clean_linker_0, # of connection points: 2
#     Edge 46, Type (0, 1), BuildingBlock: UVAHIK_clean_linker_0, # of connection points: 2
#     Edge 47, Type (0, 1), BuildingBlock: UVAHIK_clean_linker_0, # of connection points: 2
#     Edge 48, Type (0, 1), BuildingBlock: UVAHIK_clean_linker_0, # of connection points: 2
#     Edge 49, Type (0, 1), BuildingBlock: UVAHIK_clean_linker_0, # of connection points: 2
#     Edge 50, Type (0, 1), BuildingBlock: UVAHIK_clean_linker_0, # of connection points: 2
#     Edge 51, Type (0, 1), BuildingBlock: UVAHIK_clean_linker_0, # of connection points: 2
#     Edge 52, Type (0, 1), BuildingBlock: UVAHIK_clean_linker_0, # of connection points: 2
#     Edge 53, Type (0, 1), BuildingBlock: UVAHIK_clean_linker_0, # of connection points: 2
#     Edge 54, Type (0, 1), BuildingBlock: UVAHIK_clean_linker_0, # of connection points: 2
#     Edge 55, Type (0, 1), BuildingBlock: UVAHIK_clean_linker_0, # of connection points: 2
#     Edge 56, Type (0, 1), BuildingBlock: UVAHIK_clean_linker_0, # of connection points: 2
#     Edge 57, Type (0, 1), BuildingBlock: UVAHIK_clean_linker_0, # of connection points: 2
#     Edge 58, Type (0, 1), BuildingBlock: UVAHIK_clean_linker_0, # of connection points: 2
#     Edge 59, Type (0, 1), BuildingBlock: UVAHIK_clean_linker_0, # of connection points: 2
#     Edge 60, Type (0, 1), BuildingBlock: UVAHIK_clean_linker_0, # of connection points: 2
#     Edge 61, Type (0, 1), BuildingBlock: UVAHIK_clean_linker_0, # of connection points: 2
#     Edge 62, Type (0, 1), BuildingBlock: UVAHIK_clean_linker_0, # of connection points: 2
#     Edge 63, Type (0, 1), BuildingBlock: UVAHIK_clean_linker_0, # of connection points: 2
#     Edge 64, Type (0, 1), BuildingBlock: UVAHIK_clean_linker_0, # of connection points: 2
#     Edge 65, Type (0, 1), BuildingBlock: UVAHIK_clean_linker_0, # of connection points: 2
#     Edge 66, Type (0, 1), BuildingBlock: UVAHIK_clean_linker_0, # of connection points: 2
#     Edge 67, Type (0, 1), BuildingBlock: UVAHIK_clean_linker_0, # of connection points: 2
#     Edge 68, Type (0, 1), BuildingBlock: UVAHIK_clean_linker_0, # of connection points: 2
#     Edge 69, Type (0, 1), BuildingBlock: UVAHIK_clean_linker_0, # of connection points: 2
#     Edge 70, Type (0, 1), BuildingBlock: UVAHIK_clean_linker_0, # of connection points: 2
#     Edge 71, Type (0, 1), BuildingBlock: UVAHIK_clean_linker_0, # of connection points: 2
#     Edge 72, Type (0, 1), BuildingBlock: UVAHIK_clean_linker_0, # of connection points: 2
#     Edge 73, Type (0, 1), BuildingBlock: UVAHIK_clean_linker_0, # of connection points: 2
#     Edge 74, Type (0, 1), BuildingBlock: UVAHIK_clean_linker_0, # of connection points: 2
#     Edge 75, Type (0, 1), BuildingBlock: UVAHIK_clean_linker_0, # of connection points: 2
#     Edge 76, Type (0, 1), BuildingBlock: UVAHIK_clean_linker_0, # of connection points: 2
#     Edge 77, Type (0, 1), BuildingBlock: UVAHIK_clean_linker_0, # of connection points: 2
#     Edge 78, Type (0, 1), BuildingBlock: UVAHIK_clean_linker_0, # of connection points: 2
#     Edge 79, Type (0, 1), BuildingBlock: UVAHIK_clean_linker_0, # of connection points: 2
#     Edge 80, Type (0, 1), BuildingBlock: UVAHIK_clean_linker_0, # of connection points: 2
# Relax obj value: 0.035
# Max RMSD: 0.135
# Mean RMSD: 0.067
data_MOF--net-eea--node1-CUWYAW_clean_sbu_0--node2-MIDCAF_clean_linker_0--edge1-UVAHIK_clean_linker_0
_symmetry_space_group_name_H-M    P1
_symmetry_Int_Tables_number       1
_symmetry_cell_setting            triclinic
loop_
_symmetry_equiv_pos_as_xyz
'x, y, z'
_cell_length_a     77.416333
_cell_length_b     77.156293
_cell_length_c     108.08357
_cell_angle_alpha  93.461432
_cell_angle_beta   93.493765
_cell_angle_gamma 119.83263
loop_
_atom_site_label
_atom_site_type_symbol
_atom_site_fract_x
_atom_site_fract_y
_atom_site_fract_z
_atom_type_partial_charge
C0 C 0.28169 0.08457 0.39137 0.0
C1 C 0.26443 0.07495 0.38273 0.0
C2 C 0.25389 0.08507 0.38021 0.0
C3 C 0.26026 0.1041 0.38623 0.0
H4 H 0.25912 0.15588 0.38156 0.0
H5 H 0.24596 0.17611 0.37336 0.0
H6 H 0.27241 0.21819 0.4065 0.0
H7 H 0.28589 0.19809 0.41473 0.0
H8 H 0.29768 0.1822 0.43872 0.0
H9 H 0.30819 0.18615 0.46085 0.0
H10 H 0.32567 0.14138 0.45472 0.0
H11 H 0.31452 0.13693 0.43263 0.0
H12 H 0.30095 0.11032 0.40434 0.0
H13 H 0.29048 0.07752 0.39339 0.0
H14 H 0.24031 0.0781 0.37386 0.0
H15 H 0.25153 0.11123 0.38421 0.0
N16 N 0.27683 0.1451 0.39739 0.0
N17 N 0.29027 0.16702 0.41578 0.0
N18 N 0.29243 0.13772 0.41385 0.0
C19 C 0.2807 0.16235 0.40407 0.0
C20 C 0.29622 0.15481 0.42073 0.0
C21 C 0.28272 0.13277 0.40217 0.0
C22 C 0.27351 0.17526 0.39886 0.0
C23 C 0.26226 0.16948 0.38712 0.0
C24 C 0.25459 0.18102 0.38243 0.0
C25 C 0.258 0.19865 0.38933 0.0
C26 C 0.26963 0.20473 0.40093 0.0
C27 C 0.27727 0.19313 0.40567 0.0
C28 C 0.30501 0.15906 0.43389 0.0
C29 C 0.30398 0.17335 0.44204 0.0
C30 C 0.31012 0.1757 0.45476 0.0
C31 C 0.3176 0.16394 0.45962 0.0
C32 C 0.31956 0.15037 0.45135 0.0
C33 C 0.31326 0.1479 0.43865 0.0
C34 C 0.27708 0.11336 0.39513 0.0
C35 C 0.28781 0.10346 0.3976 0.0
C36 C 0.94088 0.20305 0.41037 0.0
C37 C 0.94532 0.19851 0.39861 0.0
C38 C 0.93108 0.18075 0.39132 0.0
C39 C 0.91288 0.16775 0.39571 0.0
H40 H 0.86253 0.11231 0.38703 0.0
H41 H 0.84062 0.07893 0.37609 0.0
H42 H 0.8013 0.0643 0.40524 0.0
H43 H 0.82318 0.09741 0.41627 0.0
H44 H 0.8332 0.12818 0.43898 0.0
H45 H 0.82716 0.13244 0.46041 0.0
H46 H 0.88757 0.18244 0.46844 0.0
H47 H 0.89361 0.17848 0.44683 0.0
H48 H 0.91978 0.19402 0.42389 0.0
H49 H 0.95144 0.21674 0.41615 0.0
H50 H 0.93414 0.17668 0.38229 0.0
H51 H 0.90237 0.15413 0.38986 0.0
N52 N 0.87605 0.1405 0.40539 0.0
N53 N 0.85493 0.1316 0.42132 0.0
N54 N 0.8853 0.16214 0.42384 0.0
C55 C 0.85876 0.1272 0.40983 0.0
C56 C 0.86805 0.149 0.42838 0.0
C57 C 0.88937 0.15804 0.41231 0.0
C58 C 0.84476 0.10755 0.40261 0.0
C59 C 0.84915 0.10205 0.39108 0.0
C60 C 0.83655 0.08293 0.38477 0.0
C61 C 0.81934 0.06892 0.38986 0.0
C62 C 0.81465 0.07464 0.40119 0.0
C63 C 0.82718 0.0937 0.40748 0.0
C64 C 0.86398 0.15284 0.44118 0.0
C65 C 0.84522 0.14018 0.44525 0.0
C66 C 0.84175 0.14256 0.45758 0.0
C67 C 0.85697 0.15758 0.46618 0.0
C68 C 0.87551 0.17077 0.46203 0.0
C69 C 0.87898 0.16844 0.44964 0.0
C70 C 0.90846 0.17218 0.40752 0.0
C71 C 0.92266 0.19005 0.41477 0.0
C72 C 0.81539 0.74616 0.41417 0.0
C73 C 0.81814 0.75436 0.40271 0.0
C74 C 0.83458 0.75703 0.3965 0.0
C75 C 0.84816 0.75188 0.40172 0.0
H76 H 0.90264 0.75766 0.3976 0.0
H77 H 0.93399 0.76813 0.38863 0.0
H78 H 0.95361 0.74493 0.41837 0.0
H79 H 0.92213 0.73414 0.42732 0.0
H80 H 0.89411 0.71502 0.44885 0.0
H81 H 0.89072 0.70458 0.46988 0.0
H82 H 0.83966 0.71275 0.47192 0.0
H83 H 0.84298 0.72325 0.45102 0.0
H84 H 0.82639 0.73479 0.42827 0.0
H85 H 0.80271 0.74367 0.4191 0.0
H86 H 0.83722 0.76351 0.38771 0.0
H87 H 0.86079 0.75437 0.39673 0.0
N88 N 0.87716 0.74329 0.41357 0.0
N89 N 0.88824 0.73183 0.43018 0.0
N90 N 0.85778 0.73145 0.4302 0.0
C91 C 0.89115 0.73964 0.41905 0.0
C92 C 0.87157 0.72766 0.43581 0.0
C93 C 0.86041 0.73918 0.41907 0.0
C94 C 0.90983 0.74511 0.41324 0.0
C95 C 0.91355 0.75466 0.40223 0.0
C96 C 0.93159 0.7608 0.39711 0.0
C97 C 0.94632 0.75749 0.40284 0.0
C98 C 0.94248 0.74757 0.41369 0.0
C99 C 0.92445 0.74147 0.41885 0.0
C100 C 0.86891 0.72012 0.44825 0.0
C101 C 0.8821 0.71451 0.45375 0.0
C102 C 0.88012 0.70843 0.46576 0.0
C103 C 0.86503 0.70802 0.47255 0.0
C104 C 0.85161 0.71321 0.46696 0.0
C105 C 0.85347 0.71912 0.45494 0.0
C106 C 0.84558 0.74391 0.41327 0.0
C107 C 0.82893 0.74096 0.41939 0.0
C108 C 0.05323 0.24671 0.58707 0.0
C109 C 0.05249 0.24684 0.60006 0.0
C110 C 0.07034 0.25324 0.60779 0.0
C111 C 0.08825 0.25864 0.60267 0.0
H112 H 0.13655 0.24884 0.60825 0.0
H113 H 0.15887 0.23876 0.61807 0.0
H114 H 0.19501 0.25695 0.5873 0.0
H115 H 0.17262 0.26676 0.57734 0.0
H116 H 0.15917 0.2803 0.55443 0.0
H117 H 0.1646 0.29104 0.53369 0.0
H118 H 0.10973 0.29307 0.53159 0.0
H119 H 0.10397 0.28185 0.55233 0.0
H120 H 0.07123 0.25188 0.57192 0.0
H121 H 0.03981 0.2416 0.58078 0.0
H122 H 0.07054 0.25408 0.61784 0.0
H123 H 0.10164 0.2632 0.60888 0.0
N124 N 0.12137 0.25976 0.59056 0.0
N125 N 0.14125 0.26985 0.57402 0.0
N126 N 0.11073 0.26946 0.57282 0.0
C127 C 0.13825 0.26315 0.58546 0.0
C128 C 0.12766 0.27314 0.56765 0.0
C129 C 0.10757 0.26287 0.58429 0.0
C130 C 0.15265 0.25848 0.59194 0.0
C131 C 0.14931 0.25082 0.60359 0.0
C132 C 0.16217 0.24513 0.60927 0.0
C133 C 0.17862 0.24692 0.60341 0.0
C134 C 0.18227 0.25507 0.59194 0.0
C135 C 0.16946 0.26081 0.58628 0.0
C136 C 0.1311 0.28016 0.55509 0.0
C137 C 0.14823 0.28306 0.54961 0.0
C138 C 0.15144 0.28936 0.53771 0.0
C139 C 0.13764 0.29299 0.531 0.0
C140 C 0.12054 0.29019 0.53647 0.0
C141 C 0.11731 0.28386 0.54839 0.0
C142 C 0.08885 0.2582 0.58971 0.0
C143 C 0.07125 0.25251 0.58197 0.0
C144 C 0.72341 0.79124 0.59969 0.0
C145 C 0.733 0.79592 0.61188 0.0
C146 C 0.73528 0.81279 0.61916 0.0
C147 C 0.72863 0.82504 0.61423 0.0
H148 H 0.73202 0.87925 0.62166 0.0
H149 H 0.74371 0.91239 0.63248 0.0
H150 H 0.72004 0.92835 0.60071 0.0
H151 H 0.708 0.89518 0.58995 0.0
H152 H 0.6907 0.86636 0.56543 0.0
H153 H 0.68198 0.86251 0.54305 0.0
H154 H 0.68858 0.81009 0.5393 0.0
H155 H 0.6969 0.81362 0.56173 0.0
H156 H 0.70969 0.79953 0.58527 0.0
H157 H 0.72115 0.77816 0.59392 0.0
H158 H 0.74278 0.81692 0.62854 0.0
H159 H 0.73104 0.83816 0.62003 0.0
N160 N 0.71771 0.85177 0.60305 0.0
N161 N 0.70575 0.86102 0.58571 0.0
N162 N 0.70605 0.83076 0.58425 0.0
C163 C 0.71362 0.86507 0.59781 0.0
C164 C 0.70186 0.84389 0.57886 0.0
C165 C 0.71388 0.83452 0.59635 0.0
C166 C 0.71919 0.88454 0.60487 0.0
C167 C 0.7291 0.88972 0.61701 0.0
C168 C 0.73592 0.90877 0.6232 0.0
C169 C 0.73295 0.92305 0.61742 0.0
C170 C 0.72242 0.91764 0.60548 0.0
C171 C 0.71562 0.89862 0.59927 0.0
C172 C 0.69471 0.84042 0.56541 0.0
C173 C 0.69013 0.85389 0.55988 0.0
C174 C 0.68522 0.85175 0.54702 0.0
C175 C 0.68481 0.83613 0.53937 0.0
C176 C 0.68862 0.82221 0.54494 0.0
C177 C 0.69349 0.82431 0.55781 0.0
C178 C 0.71954 0.82069 0.60191 0.0
C179 C 0.71673 0.80346 0.59476 0.0
C180 C 0.19154 0.91753 0.60947 0.0
C181 C 0.18441 0.9264 0.61799 0.0
C182 C 0.16396 0.91587 0.61979 0.0
C183 C 0.15094 0.89727 0.61305 0.0
H184 H 0.10293 0.83448 0.61602 0.0
H185 H 0.07029 0.81324 0.62299 0.0
H186 H 0.04393 0.79561 0.58465 0.0
H187 H 0.07687 0.81615 0.5777 0.0
H188 H 0.11119 0.81985 0.55839 0.0
H189 H 0.11734 0.8171 0.53667 0.0
H190 H 0.17348 0.87305 0.54378 0.0
H191 H 0.16742 0.87597 0.56539 0.0
H192 H 0.18432 0.89293 0.59584 0.0
H193 H 0.20725 0.92486 0.60803 0.0
H194 H 0.15775 0.92226 0.62608 0.0
H195 H 0.1352 0.88985 0.61445 0.0
N196 N 0.12586 0.85719 0.59989 0.0
N197 N 0.11647 0.83783 0.5805 0.0
N198 N 0.14797 0.86706 0.58448 0.0
C199 C 0.11219 0.84083 0.59218 0.0
C200 C 0.13441 0.85085 0.57661 0.0
C201 C 0.14379 0.87034 0.59611 0.0
C202 C 0.09246 0.82707 0.59631 0.0
C203 C 0.09018 0.82598 0.60908 0.0
C204 C 0.07139 0.81388 0.61307 0.0
C205 C 0.05433 0.80286 0.60441 0.0
C206 C 0.05672 0.80367 0.59161 0.0
C207 C 0.07561 0.81553 0.58761 0.0
C208 C 0.13871 0.84822 0.56366 0.0
C209 C 0.12492 0.83151 0.55536 0.0
C210 C 0.12846 0.82986 0.54292 0.0
C211 C 0.1458 0.84495 0.53851 0.0
C212 C 0.15983 0.86134 0.54687 0.0
C213 C 0.15637 0.86294 0.55929 0.0
C214 C 0.15797 0.88892 0.60416 0.0
C215 C 0.17843 0.89912 0.60254 0.0
C216 C 0.941 0.41057 0.73017 0.0
C217 C 0.92962 0.40417 0.71847 0.0
C218 C 0.92604 0.41784 0.71238 0.0
C219 C 0.93304 0.43725 0.71808 0.0
H220 H 0.93247 0.48916 0.71356 0.0
H221 H 0.92116 0.5102 0.70428 0.0
H222 H 0.94353 0.55095 0.73806 0.0
H223 H 0.95515 0.53011 0.74738 0.0
H224 H 0.97001 0.51793 0.77155 0.0
H225 H 0.9771 0.52188 0.7942 0.0
H226 H 0.97358 0.46415 0.79249 0.0
H227 H 0.96644 0.46004 0.76998 0.0
H228 H 0.95636 0.43415 0.74499 0.0
H229 H 0.94436 0.40052 0.73499 0.0
H230 H 0.9172 0.41334 0.7034 0.0
H231 H 0.92952 0.4472 0.71328 0.0
N232 N 0.9459 0.47649 0.73097 0.0
N233 N 0.95731 0.49813 0.74954 0.0
N234 N 0.95695 0.46755 0.74883 0.0
C235 C 0.94987 0.49405 0.73732 0.0
C236 C 0.96095 0.48497 0.75535 0.0
C237 C 0.94949 0.46319 0.73665 0.0
C238 C 0.94458 0.5078 0.73129 0.0
C239 C 0.93518 0.50269 0.71901 0.0
C240 C 0.92858 0.51469 0.71369 0.0
C241 C 0.93127 0.53212 0.72048 0.0
C242 C 0.94134 0.53767 0.73257 0.0
C243 C 0.9479 0.52563 0.73792 0.0
C244 C 0.96741 0.48855 0.76891 0.0
C245 C 0.97094 0.50615 0.77598 0.0
C246 C 0.97508 0.50848 0.78895 0.0
C247 C 0.97563 0.49321 0.7951 0.0
C248 C 0.97289 0.47601 0.78801 0.0
C249 C 0.9689 0.47373 0.77507 0.0
C250 C 0.94377 0.44339 0.73001 0.0
C251 C 0.94798 0.42993 0.73587 0.0
C252 C 0.60862 0.52807 0.7445 0.0
C253 C 0.61068 0.52922 0.73168 0.0
C254 C 0.59352 0.51793 0.72312 0.0
C255 C 0.57497 0.50529 0.72723 0.0
H256 H 0.53044 0.44117 0.72164 0.0
H257 H 0.50786 0.40904 0.70973 0.0
H258 H 0.45849 0.40576 0.72828 0.0
H259 H 0.48147 0.4374 0.74073 0.0
H260 H 0.49658 0.45719 0.77028 0.0
H261 H 0.49032 0.45969 0.79189 0.0
H262 H 0.55078 0.50923 0.80087 0.0
H263 H 0.55702 0.50705 0.77917 0.0
H264 H 0.58894 0.51483 0.75854 0.0
H265 H 0.6215 0.53633 0.75137 0.0
H266 H 0.59435 0.51881 0.7132 0.0
H267 H 0.56214 0.49665 0.72037 0.0
N268 N 0.53979 0.47353 0.7365 0.0
N269 N 0.51792 0.46324 0.75204 0.0
N270 N 0.54938 0.49253 0.75602 0.0
C271 C 0.52197 0.4602 0.74032 0.0
C272 C 0.53154 0.47936 0.75995 0.0
C273 C 0.5535 0.4898 0.74425 0.0
C274 C 0.50775 0.44174 0.73218 0.0
C275 C 0.51473 0.43366 0.72309 0.0
C276 C 0.50169 0.41522 0.71619 0.0
C277 C 0.48125 0.40459 0.71803 0.0
C278 C 0.47417 0.41318 0.72679 0.0
C279 C 0.48732 0.43142 0.73388 0.0
C280 C 0.52737 0.48182 0.77296 0.0
C281 C 0.50855 0.46871 0.77681 0.0
C282 C 0.50497 0.47007 0.78923 0.0
C283 C 0.52011 0.48452 0.79813 0.0
C284 C 0.53875 0.49802 0.79423 0.0
C285 C 0.54234 0.4967 0.78178 0.0
C286 C 0.57302 0.50391 0.74001 0.0
C287 C 0.58996 0.51566 0.74862 0.0
C288 C 0.48217 0.0771 0.74235 0.0
C289 C 0.48587 0.08529 0.73089 0.0
C290 C 0.50241 0.08719 0.72509 0.0
C291 C 0.51526 0.08152 0.73078 0.0
H292 H 0.56836 0.08397 0.72767 0.0
H293 H 0.59989 0.0936 0.71924 0.0
H294 H 0.6199 0.07529 0.75149 0.0
H295 H 0.58841 0.06596 0.76014 0.0
H296 H 0.56253 0.05509 0.78325 0.0
H297 H 0.55745 0.04601 0.8045 0.0
H298 H 0.49731 0.03609 0.79919 0.0
H299 H 0.50244 0.04554 0.77814 0.0
H300 H 0.49177 0.06537 0.75695 0.0
H301 H 0.46937 0.07516 0.74695 0.0
H302 H 0.50575 0.0936 0.7163 0.0
H303 H 0.52806 0.08356 0.72615 0.0
N304 N 0.54322 0.07272 0.74387 0.0
N305 N 0.55344 0.06215 0.76133 0.0
N306 N 0.52291 0.06175 0.76014 0.0
C307 C 0.55691 0.06932 0.75001 0.0
C308 C 0.53641 0.05824 0.76643 0.0
C309 C 0.52617 0.06896 0.74885 0.0
C310 C 0.5758 0.07423 0.74463 0.0
C311 C 0.57939 0.0819 0.73299 0.0
C312 C 0.59746 0.08732 0.72809 0.0
C313 C 0.6124 0.0852 0.73469 0.0
C314 C 0.60876 0.07732 0.74625 0.0
C315 C 0.59065 0.07186 0.75116 0.0
C316 C 0.53297 0.05126 0.779 0.0
C317 C 0.54817 0.05086 0.78658 0.0
C318 C 0.54525 0.04557 0.79875 0.0
C319 C 0.52706 0.04054 0.80358 0.0
C320 C 0.51166 0.04031 0.79585 0.0
C321 C 0.51459 0.04564 0.78373 0.0
C322 C 0.51184 0.07376 0.74241 0.0
C323 C 0.49498 0.07138 0.74804 0.0
C324 C 0.72221 0.58599 0.92283 0.0
C325 C 0.7136 0.56908 0.92949 0.0
C326 C 0.72335 0.55803 0.93106 0.0
C327 C 0.74153 0.56389 0.92617 0.0
H328 H 0.7966 0.56719 0.93514 0.0
H329 H 0.8198 0.55755 0.94414 0.0
H330 H 0.85772 0.58266 0.91479 0.0
H331 H 0.83447 0.59211 0.90565 0.0
H332 H 0.8245 0.61485 0.88656 0.0
H333 H 0.83128 0.63059 0.86731 0.0
H334 H 0.77578 0.63131 0.86658 0.0
H335 H 0.76868 0.61509 0.88579 0.0
H336 H 0.74646 0.6047 0.91258 0.0
H337 H 0.71489 0.5947 0.92147 0.0
H338 H 0.71704 0.54501 0.93624 0.0
H339 H 0.74874 0.5551 0.92758 0.0
N340 N 0.78207 0.58119 0.91905 0.0
N341 N 0.80397 0.59705 0.90412 0.0
N342 N 0.77389 0.59745 0.90407 0.0
C343 C 0.79956 0.5864 0.91416 0.0
C344 C 0.79125 0.60263 0.89901 0.0
C345 C 0.7692 0.5867 0.91408 0.0
C346 C 0.81362 0.58045 0.91965 0.0
C347 C 0.80985 0.57065 0.93057 0.0
C348 C 0.8232 0.5652 0.93578 0.0
C349 C 0.84059 0.56936 0.93018 0.0
C350 C 0.84433 0.57905 0.91925 0.0
C351 C 0.83103 0.58457 0.91405 0.0
C352 C 0.79596 0.61354 0.88773 0.0
C353 C 0.81374 0.61844 0.88238 0.0
C354 C 0.81773 0.62763 0.87136 0.0
C355 C 0.80407 0.63221 0.8654 0.0
C356 C 0.78649 0.62775 0.87087 0.0
C357 C 0.78248 0.61854 0.88192 0.0
C358 C 0.7501 0.5807 0.91939 0.0
C359 C 0.7402 0.59164 0.91771 0.0
C360 C 0.39341 0.12888 0.93588 0.0
C361 C 0.404 0.13482 0.94783 0.0
C362 C 0.40736 0.15271 0.95437 0.0
C363 C 0.40071 0.16463 0.94898 0.0
H364 H 0.40383 0.21859 0.95494 0.0
H365 H 0.41619 0.25237 0.96487 0.0
H366 H 0.39078 0.26609 0.93284 0.0
H367 H 0.37871 0.23245 0.92276 0.0
H368 H 0.35714 0.19966 0.89943 0.0
H369 H 0.34796 0.19476 0.87705 0.0
H370 H 0.36196 0.14711 0.87366 0.0
H371 H 0.37057 0.15157 0.8961 0.0
H372 H 0.37891 0.13589 0.92118 0.0
H373 H 0.3903 0.11502 0.93068 0.0
H374 H 0.41567 0.15785 0.96354 0.0
H375 H 0.40393 0.1785 0.95422 0.0
N376 N 0.38882 0.19001 0.93706 0.0
N377 N 0.37635 0.19804 0.91937 0.0
N378 N 0.37665 0.16777 0.91877 0.0
C379 C 0.38459 0.20291 0.93142 0.0
C380 C 0.37229 0.18049 0.91299 0.0
C381 C 0.38481 0.17237 0.93084 0.0
C382 C 0.39041 0.22279 0.93798 0.0
C383 C 0.40071 0.22871 0.95003 0.0
C384 C 0.40773 0.24808 0.95577 0.0
C385 C 0.40462 0.26197 0.9496 0.0
C386 C 0.39374 0.25584 0.93774 0.0
C387 C 0.38672 0.23649 0.932 0.0
C388 C 0.3648 0.17615 0.89957 0.0
C389 C 0.35808 0.18799 0.89395 0.0
C390 C 0.35291 0.18526 0.88109 0.0
C391 C 0.35447 0.17072 0.87352 0.0
C392 C 0.36041 0.15833 0.87921 0.0
C393 C 0.36545 0.16096 0.89209 0.0
C394 C 0.39058 0.15897 0.93689 0.0
C395 C 0.38678 0.14081 0.93047 0.0
C396 C 0.85431 0.2578 0.93374 0.0
C397 C 0.84997 0.26388 0.94508 0.0
C398 C 0.8327 0.25024 0.95029 0.0
C399 C 0.81968 0.23116 0.94406 0.0
H400 H 0.76605 0.18023 0.94565 0.0
H401 H 0.7341 0.159 0.95339 0.0
H402 H 0.7148 0.11834 0.91965 0.0
H403 H 0.74671 0.13984 0.91171 0.0
H404 H 0.77512 0.1512 0.88963 0.0
H405 H 0.77955 0.14682 0.86767 0.0
H406 H 0.83413 0.20437 0.87214 0.0
H407 H 0.82987 0.20888 0.89393 0.0
H408 H 0.84507 0.2348 0.9187 0.0
H409 H 0.8677 0.26784 0.9296 0.0
H410 H 0.82888 0.25453 0.95898 0.0
H411 H 0.80625 0.22122 0.94818 0.0
N412 N 0.79197 0.19281 0.92993 0.0
N413 N 0.78158 0.17129 0.91134 0.0
N414 N 0.81234 0.20142 0.91363 0.0
C415 C 0.77813 0.17546 0.92304 0.0
C416 C 0.79872 0.18421 0.90659 0.0
C417 C 0.80916 0.20584 0.9253 0.0
C418 C 0.75901 0.16183 0.92801 0.0
C419 C 0.75509 0.16674 0.93986 0.0
C420 C 0.73677 0.15448 0.94436 0.0
C421 C 0.72189 0.13696 0.93715 0.0
C422 C 0.72586 0.13187 0.92537 0.0
C423 C 0.74422 0.14415 0.92086 0.0
C424 C 0.80202 0.18049 0.89356 0.0
C425 C 0.78815 0.16285 0.88596 0.0
C426 C 0.7907 0.16029 0.8734 0.0
C427 C 0.80705 0.17537 0.8682 0.0
C428 C 0.82121 0.19265 0.87587 0.0
C429 C 0.81877 0.19516 0.88839 0.0
C430 C 0.82369 0.22534 0.93249 0.0
C431 C 0.84135 0.23878 0.92752 0.0
C432 C 0.60168 0.74312 0.05985 0.0
C433 C 0.5919 0.73863 0.04772 0.0
C434 C 0.58994 0.75362 0.04214 0.0
C435 C 0.59706 0.7725 0.04867 0.0
H436 H 0.59743 0.82506 0.04629 0.0
H437 H 0.58649 0.84694 0.03789 0.0
H438 H 0.60595 0.88371 0.07324 0.0
H439 H 0.61662 0.86164 0.08179 0.0
H440 H 0.63089 0.84741 0.1049 0.0
H441 H 0.63956 0.85038 0.12728 0.0
H442 H 0.64287 0.79613 0.12279 0.0
H443 H 0.6339 0.7929 0.10048 0.0
H444 H 0.61584 0.7647 0.07582 0.0
H445 H 0.60327 0.73183 0.06447 0.0
H446 H 0.58275 0.75073 0.03273 0.0
H447 H 0.59496 0.78355 0.04414 0.0
N448 N 0.60871 0.80995 0.06326 0.0
N449 N 0.62061 0.83043 0.08227 0.0
N450 N 0.62 0.7997 0.08039 0.0
C451 C 0.6129 0.82715 0.07016 0.0
C452 C 0.62429 0.81681 0.08744 0.0
C453 C 0.61225 0.79616 0.06829 0.0
C454 C 0.60779 0.84145 0.06477 0.0
C455 C 0.59953 0.83787 0.05229 0.0
C456 C 0.59335 0.8505 0.04743 0.0
C457 C 0.59527 0.86701 0.05492 0.0
C458 C 0.60401 0.87094 0.06729 0.0
C459 C 0.61024 0.85832 0.07216 0.0
C460 C 0.63146 0.81979 0.10087 0.0
C461 C 0.63363 0.83619 0.10865 0.0
C462 C 0.6387 0.83796 0.12148 0.0
C463 C 0.6417 0.82338 0.12682 0.0
C464 C 0.64027 0.80741 0.11899 0.0
C465 C 0.63522 0.80563 0.10617 0.0
C466 C 0.60628 0.77679 0.06096 0.0
C467 C 0.6088 0.76197 0.06639 0.0
C468 C 0.27516 0.87104 0.07846 0.0
C469 C 0.27936 0.86678 0.06655 0.0
C470 C 0.26473 0.8495 0.05903 0.0
C471 C 0.2464 0.83669 0.06334 0.0
H472 H 0.19467 0.78341 0.05348 0.0
H473 H 0.17198 0.75109 0.04159 0.0
H474 H 0.1338 0.73409 0.07141 0.0
H475 H 0.15613 0.76644 0.08319 0.0
H476 H 0.16735 0.79569 0.10699 0.0
H477 H 0.16182 0.79905 0.12865 0.0
H478 H 0.22235 0.84884 0.13666 0.0
H479 H 0.22787 0.84579 0.11485 0.0
H480 H 0.25412 0.86193 0.09202 0.0
H481 H 0.28603 0.88436 0.08441 0.0
H482 H 0.26759 0.84562 0.04988 0.0
H483 H 0.23561 0.82343 0.0573 0.0
N484 N 0.20921 0.80986 0.07272 0.0
N485 N 0.18829 0.80035 0.08875 0.0
N486 N 0.21924 0.8303 0.09172 0.0
C487 C 0.19181 0.79657 0.07702 0.0
C488 C 0.20187 0.81715 0.09616 0.0
C489 C 0.22299 0.8268 0.07998 0.0
C490 C 0.17735 0.77754 0.06935 0.0
C491 C 0.18135 0.77288 0.05747 0.0
C492 C 0.1684 0.7543 0.05067 0.0
C493 C 0.15114 0.73997 0.05558 0.0
C494 C 0.14684 0.74486 0.06729 0.0
C495 C 0.15976 0.76341 0.07409 0.0
C496 C 0.19814 0.82034 0.10916 0.0
C497 C 0.1795 0.80745 0.11331 0.0
C498 C 0.17634 0.8093 0.12577 0.0
C499 C 0.19173 0.82403 0.13441 0.0
C500 C 0.21016 0.8374 0.13021 0.0
C501 C 0.21333 0.83558 0.11771 0.0
C502 C 0.24223 0.84082 0.07529 0.0
C503 C 0.2568 0.85822 0.08278 0.0
C504 C 0.15566 0.42177 0.08201 0.0
C505 C 0.15356 0.42282 0.06909 0.0
C506 C 0.1648 0.41769 0.06147 0.0
C507 C 0.17806 0.41209 0.06664 0.0
H508 H 0.23447 0.4196 0.06226 0.0
H509 H 0.26555 0.42959 0.0531 0.0
H510 H 0.28705 0.4104 0.08423 0.0
H511 H 0.25604 0.40066 0.09358 0.0
H512 H 0.22812 0.3816 0.11502 0.0
H513 H 0.22227 0.36733 0.13493 0.0
H514 H 0.1676 0.36953 0.13498 0.0
H515 H 0.17313 0.38337 0.1151 0.0
H516 H 0.16997 0.41529 0.09714 0.0
H517 H 0.14762 0.42597 0.08825 0.0
H518 H 0.16331 0.41783 0.05146 0.0
H519 H 0.18656 0.40834 0.06052 0.0
N520 N 0.21075 0.40896 0.07939 0.0
N521 N 0.22107 0.39627 0.09566 0.0
N522 N 0.19137 0.39734 0.09606 0.0
C523 C 0.22426 0.40449 0.08465 0.0
C524 C 0.20458 0.39255 0.10139 0.0
C525 C 0.19431 0.40546 0.08506 0.0
C526 C 0.24272 0.40939 0.07871 0.0
C527 C 0.24574 0.4174 0.06717 0.0
C528 C 0.26354 0.42303 0.06185 0.0
C529 C 0.27878 0.42083 0.06795 0.0
C530 C 0.27567 0.41252 0.07939 0.0
C531 C 0.25783 0.40682 0.0847 0.0
C532 C 0.20111 0.38367 0.11342 0.0
C533 C 0.21481 0.37898 0.11925 0.0
C534 C 0.21151 0.37087 0.13069 0.0
C535 C 0.19444 0.36723 0.13651 0.0
C536 C 0.18073 0.37183 0.13065 0.0
C537 C 0.18401 0.37993 0.11926 0.0
C538 C 0.18007 0.41106 0.07953 0.0
C539 C 0.16859 0.41576 0.08715 0.0
C540 C 0.38711 0.91732 0.25561 0.0
C541 C 0.38392 0.90869 0.26694 0.0
C542 C 0.39889 0.90583 0.27278 0.0
C543 C 0.41658 0.91129 0.26738 0.0
H544 H 0.46745 0.90785 0.27169 0.0
H545 H 0.4906 0.89789 0.28035 0.0
H546 H 0.52563 0.91896 0.24929 0.0
H547 H 0.50242 0.9287 0.24049 0.0
H548 H 0.49144 0.94995 0.22101 0.0
H549 H 0.49729 0.96418 0.20126 0.0
H550 H 0.44098 0.96329 0.20016 0.0
H551 H 0.43482 0.94859 0.21993 0.0
H552 H 0.40678 0.92939 0.24144 0.0
H553 H 0.37594 0.91991 0.25095 0.0
H554 H 0.39678 0.89899 0.28144 0.0
H555 H 0.42768 0.90869 0.27212 0.0
N556 N 0.45179 0.92037 0.25528 0.0
N557 N 0.47201 0.9337 0.23919 0.0
N558 N 0.44193 0.93406 0.2394 0.0
C559 C 0.46866 0.92465 0.24987 0.0
C560 C 0.45879 0.9385 0.2339 0.0
C561 C 0.43835 0.92502 0.25012 0.0
C562 C 0.48301 0.91906 0.25536 0.0
C563 C 0.48009 0.9104 0.26669 0.0
C564 C 0.49341 0.90478 0.2717 0.0
C565 C 0.50991 0.90761 0.26549 0.0
C566 C 0.51291 0.91635 0.25421 0.0
C567 C 0.49964 0.92205 0.24922 0.0
C568 C 0.4626 0.94802 0.22209 0.0
C569 C 0.48028 0.95282 0.21663 0.0
C570 C 0.48374 0.96115 0.20532 0.0
C571 C 0.46964 0.96495 0.19916 0.0
C572 C 0.45205 0.96038 0.20464 0.0
C573 C 0.44858 0.95204 0.216 0.0
C574 C 0.41977 0.91979 0.25599 0.0
C575 C 0.40486 0.92285 0.2502 0.0
C576 C 0.05771 0.46315 0.26896 0.0
C577 C 0.06761 0.46878 0.28109 0.0
C578 C 0.06949 0.48576 0.28798 0.0
C579 C 0.06229 0.49731 0.2827 0.0
H580 H 0.06296 0.54971 0.28955 0.0
H581 H 0.07462 0.58286 0.30026 0.0
H582 H 0.05569 0.6004 0.2672 0.0
H583 H 0.04369 0.56714 0.2565 0.0
H584 H 0.0286 0.53856 0.23187 0.0
H585 H 0.02056 0.53389 0.20938 0.0
H586 H 0.02076 0.47793 0.20765 0.0
H587 H 0.02854 0.48236 0.2302 0.0
H588 H 0.04351 0.4703 0.25414 0.0
H589 H 0.05614 0.45019 0.2634 0.0
H590 H 0.07675 0.49027 0.29744 0.0
H591 H 0.0644 0.51053 0.28823 0.0
N592 N 0.05092 0.52298 0.27081 0.0
N593 N 0.03974 0.53195 0.25302 0.0
N594 N 0.03999 0.50164 0.25218 0.0
C595 C 0.0471 0.53619 0.26523 0.0
C596 C 0.03605 0.51467 0.24643 0.0
C597 C 0.04736 0.50565 0.26439 0.0
C598 C 0.05252 0.55574 0.2721 0.0
C599 C 0.06108 0.56053 0.28457 0.0
C600 C 0.06788 0.57959 0.2907 0.0
C601 C 0.06626 0.59432 0.28454 0.0
C602 C 0.05703 0.58933 0.27224 0.0
C603 C 0.05024 0.57026 0.26608 0.0
C604 C 0.02942 0.51093 0.23288 0.0
C605 C 0.02677 0.52515 0.22675 0.0
C606 C 0.02227 0.52254 0.21383 0.0
C607 C 0.02024 0.50565 0.20673 0.0
C608 C 0.02212 0.49105 0.21288 0.0
C609 C 0.02668 0.49367 0.22581 0.0
C610 C 0.05311 0.4922 0.27037 0.0
C611 C 0.05056 0.47475 0.26364 0.0
C612 C 0.52081 0.58941 0.26709 0.0
C613 C 0.51615 0.59525 0.27839 0.0
C614 C 0.49889 0.58134 0.28349 0.0
C615 C 0.48613 0.56229 0.27716 0.0
H616 H 0.43672 0.50297 0.27956 0.0
H617 H 0.40493 0.48153 0.28748 0.0
H618 H 0.3763 0.46109 0.2497 0.0
H619 H 0.40841 0.4818 0.24182 0.0
H620 H 0.43817 0.49219 0.21957 0.0
H621 H 0.44447 0.48851 0.19801 0.0
H622 H 0.50792 0.52791 0.20839 0.0
H623 H 0.50155 0.53218 0.22976 0.0
H624 H 0.51201 0.56664 0.25196 0.0
H625 H 0.5342 0.59967 0.26304 0.0
H626 H 0.49485 0.58543 0.29216 0.0
H627 H 0.47265 0.55217 0.28118 0.0
N628 N 0.45835 0.52455 0.26253 0.0
N629 N 0.4479 0.5038 0.24361 0.0
N630 N 0.47932 0.53322 0.24653 0.0
C631 C 0.44433 0.50767 0.25533 0.0
C632 C 0.46549 0.51643 0.2392 0.0
C633 C 0.47587 0.53745 0.25818 0.0
C634 C 0.42507 0.49413 0.26007 0.0
C635 C 0.42364 0.49383 0.27295 0.0
C636 C 0.40534 0.48161 0.27749 0.0
C637 C 0.38788 0.46967 0.26925 0.0
C638 C 0.38941 0.46982 0.25634 0.0
C639 C 0.40782 0.48179 0.25181 0.0
C640 C 0.46933 0.51265 0.22635 0.0
C641 C 0.45347 0.49994 0.21725 0.0
C642 C 0.4571 0.49776 0.20489 0.0
C643 C 0.4767 0.50808 0.2014 0.0
C644 C 0.4926 0.52014 0.21065 0.0
C645 C 0.48895 0.5225 0.22294 0.0
C646 C 0.49038 0.55674 0.26559 0.0
C647 C 0.50811 0.5704 0.26077 0.0
C648 C 0.52962 0.02084 0.03715 0.0
Eu649 Eu 0.51256 0.01228 0.0144 0.0
C650 C 0.52338 0.018 0.04981 0.0
C651 C 0.53326 0.03407 0.0592 0.0
C652 C 0.52788 0.03168 0.07135 0.0
C653 C 0.51256 0.01309 0.07436 0.0
C654 C 0.50247 0.99707 0.06485 0.0
C655 C 0.50779 0.99952 0.05268 0.0
C656 C 0.4968 0.03202 0.00275 0.0
C657 C 0.46483 0.97866 0.01312 0.0
C658 C 0.47112 0.98313 0.96651 0.0
Eu659 Eu 0.48849 0.99169 0.9892 0.0
C660 C 0.4771 0.98759 0.95396 0.0
C661 C 0.49676 0.99381 0.95133 0.0
C662 C 0.50226 0.9985 0.93936 0.0
C663 C 0.4882 0.99715 0.9299 0.0
C664 C 0.46853 0.99085 0.93263 0.0
C665 C 0.46305 0.98611 0.94456 0.0
C666 C 0.50415 0.97197 0.001 0.0
C667 C 0.53611 0.02541 0.99052 0.0
O668 O 0.52567 0.0047 0.03002 0.0
O669 O 0.52632 0.03334 0.0312 0.0
O670 O 0.51422 0.04107 0.00922 0.0
O671 O 0.48825 0.01336 0.00328 0.0
O672 O 0.4825 0.98827 0.01986 0.0
O673 O 0.46298 0.97972 0.00101 0.0
O674 O 0.47372 0.99839 0.97399 0.0
O675 O 0.47637 0.97155 0.97201 0.0
O676 O 0.48668 0.9629 0.99458 0.0
O677 O 0.51275 0.9906 0.00033 0.0
O678 O 0.51838 0.0162 0.98385 0.0
O679 O 0.53799 0.02379 0.00255 0.0
H680 H 0.54522 0.04848 0.05715 0.0
H681 H 0.53573 0.04442 0.07838 0.0
H682 H 0.49076 0.98249 0.06685 0.0
H683 H 0.49985 0.9869 0.04557 0.0
H684 H 0.50785 0.99517 0.95853 0.0
H685 H 0.51757 0.00349 0.93755 0.0
H686 H 0.45731 0.98943 0.9255 0.0
H687 H 0.44782 0.98137 0.94647 0.0
C688 C 0.99145 0.51727 0.03579 0.0
Eu689 Eu 0.9939 0.50527 0.01327 0.0
C690 C 0.99322 0.51263 0.04872 0.0
C691 C 0.97588 0.50189 0.05472 0.0
C692 C 0.97727 0.4982 0.06712 0.0
C693 C 0.99606 0.50535 0.07388 0.0
C694 C 0.01342 0.51592 0.06783 0.0
C695 C 0.01203 0.51954 0.05539 0.0
C696 C 0.97081 0.46781 0.00149 0.0
C697 C 0.02647 0.48989 0.01308 0.0
C698 C 0.0102 0.48623 0.96622 0.0
Eu699 Eu 0.0075 0.49793 0.98875 0.0
C700 C 0.00648 0.48952 0.95327 0.0
C701 C 0.02212 0.49612 0.94563 0.0
C702 C 0.01895 0.49881 0.93322 0.0
C703 C -0.0 0.49477 0.92817 0.0
C704 C 0.98437 0.48836 0.93587 0.0
C705 C 0.98759 0.48584 0.94834 0.0
C706 C 0.03059 0.53532 0.00072 0.0
C707 C 0.97503 0.51323 0.98887 0.0
O708 O 0.00782 0.52589 0.0302 0.0
O709 O 0.97596 0.50363 0.02837 0.0
O710 O 0.96375 0.47723 0.00785 0.0
O711 O 0.98961 0.47792 0.00232 0.0
O712 O 0.01853 0.4987 0.01964 0.0
O713 O 0.02221 0.48545 0.0009 0.0
O714 O 0.99462 0.47615 0.9723 0.0
O715 O 0.02507 0.5015 0.97312 0.0
O716 O 0.03769 0.52585 0.99445 0.0
O717 O 0.01179 0.52527 -0.00029 0.0
O718 O 0.98213 0.5034 0.98247 0.0
O719 O 0.98021 0.51861 0.00094 0.0
H720 H 0.96119 0.49648 0.04984 0.0
H721 H 0.96359 0.48978 0.07143 0.0
H722 H 0.02814 0.5219 0.07281 0.0
H723 H 0.02571 0.52802 0.05109 0.0
H724 H 0.03677 0.49899 0.94924 0.0
H725 H 0.0312 0.50352 0.92747 0.0
H726 H 0.96966 0.48529 0.93223 0.0
H727 H 0.97528 0.48086 0.95405 0.0
C728 C 0.46745 0.47685 0.96469 0.0
Eu729 Eu 0.48517 0.49359 0.98692 0.0
C730 C 0.47295 0.47817 0.95191 0.0
C731 C 0.49227 0.49224 0.94931 0.0
C732 C 0.49723 0.49339 0.93704 0.0
C733 C 0.48293 0.48042 0.92722 0.0
C734 C 0.46361 0.46631 0.92993 0.0
C735 C 0.45868 0.46521 0.94218 0.0
C736 C 0.5004 0.5325 0.99585 0.0
C737 C 0.53325 0.51029 0.9882 0.0
C738 C 0.52768 0.52261 0.0345 0.0
Eu739 Eu 0.51035 0.50626 0.01219 0.0
C740 C 0.52275 0.51965 0.04746 0.0
C741 C 0.51608 0.50098 0.05213 0.0
C742 C 0.51187 0.4987 0.06451 0.0
C743 C 0.5141 0.51497 0.07245 0.0
C744 C 0.52048 0.53354 0.06766 0.0
C745 C 0.52483 0.53585 0.05531 0.0
C746 C 0.49483 0.46728 0.00328 0.0
C747 C 0.4621 0.48981 0.01087 0.0
O748 O 0.47531 0.46922 0.97211 0.0
O749 O 0.46776 0.49267 0.97005 0.0
O750 O 0.48307 0.52193 0.98938 0.0
O751 O 0.50926 0.52263 0.99649 0.0
O752 O 0.51541 0.49851 0.98195 0.0
O753 O 0.53516 0.51813 -0.00024 0.0
O754 O 0.51798 0.52914 0.02769 0.0
O755 O 0.5299 0.50879 0.02837 0.0
O756 O 0.5122 0.47772 0.00972 0.0
O757 O 0.48618 0.47734 0.00269 0.0
O758 O 0.47993 0.50062 0.01734 0.0
O759 O 0.46012 0.48275 0.99911 0.0
H760 H 0.50349 0.50232 0.95676 0.0
H761 H 0.51228 0.50426 0.93526 0.0
H762 H 0.45219 0.45631 0.92256 0.0
H763 H 0.44369 0.4543 0.94406 0.0
H764 H 0.51426 0.48817 0.04626 0.0
H765 H 0.50721 0.48426 0.06791 0.0
H766 H 0.52201 0.5463 0.07343 0.0
H767 H 0.52985 0.55035 0.05189 0.0
C768 C 0.19453 0.35866 0.3692 0.0
Eu769 Eu 0.17772 0.34725 0.34634 0.0
C770 C 0.18889 0.35333 0.38172 0.0
C771 C 0.19843 0.36802 0.39191 0.0
C772 C 0.19337 0.36331 0.40392 0.0
C773 C 0.17868 0.34376 0.40595 0.0
C774 C 0.16898 0.32911 0.39566 0.0
C775 C 0.17403 0.33387 0.38364 0.0
C776 C 0.16284 0.36595 0.33269 0.0
C777 C 0.13033 0.31362 0.34533 0.0
C778 C 0.1374 0.31283 0.29876 0.0
Eu779 Eu 0.15426 0.32418 0.3216 0.0
C780 C 0.1437 0.31493 0.28612 0.0
C781 C 0.13315 0.29877 0.27686 0.0
C782 C 0.1384 0.30062 0.26468 0.0
C783 C 0.15425 0.31875 0.26151 0.0
C784 C 0.1651 0.33479 0.27093 0.0
C785 C 0.15992 0.33287 0.28314 0.0
C786 C 0.16893 0.30539 0.33534 0.0
C787 C 0.20188 0.35816 0.32258 0.0
O788 O 0.19566 0.34522 0.36186 0.0
O789 O 0.18586 0.36723 0.36349 0.0
O790 O 0.18021 0.37531 0.33923 0.0
O791 O 0.15387 0.34753 0.3341 0.0
O792 O 0.14803 0.32296 0.35201 0.0
O793 O 0.12858 0.31435 0.33318 0.0
O794 O 0.14032 0.32917 0.30519 0.0
O795 O 0.14176 0.30168 0.30543 0.0
O796 O 0.15159 0.2961 0.32878 0.0
O797 O 0.17802 0.3238 0.33386 0.0
O798 O 0.18446 0.34699 0.31573 0.0
O799 O 0.20355 0.35919 0.33485 0.0
H800 H 0.20981 0.38317 0.39057 0.0
H801 H 0.20087 0.37502 0.4116 0.0
H802 H 0.15775 0.31387 0.39691 0.0
H803 H 0.16646 0.32232 0.37586 0.0
H804 H 0.12071 0.28475 0.27903 0.0
H805 H 0.12997 0.28785 0.25772 0.0
H806 H 0.17725 0.34903 0.26881 0.0
H807 H 0.16838 0.34552 0.29018 0.0
C808 C 0.65906 0.85067 0.3683 0.0
Eu809 Eu 0.66 0.83735 0.34579 0.0
C810 C 0.66075 0.84613 0.38128 0.0
C811 C 0.64379 0.83196 0.38653 0.0
C812 C 0.64521 0.82849 0.39898 0.0
C813 C 0.66359 0.83917 0.40649 0.0
C814 C 0.68059 0.85319 0.40122 0.0
C815 C 0.67917 0.85669 0.38876 0.0
C816 C 0.63594 0.79944 0.33476 0.0
C817 C 0.69128 0.82046 0.34536 0.0
C818 C 0.67308 0.81483 0.29853 0.0
Eu819 Eu 0.67197 0.82816 0.32101 0.0
C820 C 0.67011 0.81821 0.28544 0.0
C821 C 0.68679 0.82958 0.27902 0.0
C822 C 0.68428 0.83182 0.26642 0.0
C823 C 0.66505 0.82256 0.25993 0.0
C824 C 0.64833 0.81138 0.26639 0.0
C825 C 0.65083 0.80922 0.27901 0.0
C826 C 0.6962 0.8659 0.33224 0.0
C827 C 0.64074 0.84503 0.32146 0.0
O828 O 0.6753 0.85808 0.36255 0.0
O829 O 0.64303 0.83765 0.36102 0.0
O830 O 0.62942 0.80929 0.34122 0.0
O831 O 0.65468 0.80935 0.3352 0.0
O832 O 0.68479 0.83083 0.35181 0.0
O833 O 0.68567 0.81484 0.33333 0.0
O834 O 0.65726 0.8064 0.30464 0.0
O835 O 0.68883 0.82918 0.30541 0.0
O836 O 0.70266 0.85591 0.32587 0.0
O837 O 0.67742 0.85618 0.33164 0.0
O838 O 0.64701 0.83444 0.31502 0.0
O839 O 0.64663 0.85091 0.33344 0.0
H840 H 0.62933 0.82368 0.38106 0.0
H841 H 0.63189 0.81745 0.40274 0.0
H842 H 0.69491 0.86188 0.40681 0.0
H843 H 0.69246 0.8679 0.38506 0.0
H844 H 0.70184 0.83646 0.28367 0.0
H845 H 0.69746 0.84028 0.26166 0.0
H846 H 0.63331 0.80421 0.26165 0.0
H847 H 0.63765 0.80025 0.28365 0.0
C848 C 0.13672 0.81404 0.30041 0.0
Eu849 Eu 0.15389 0.82896 0.32296 0.0
C850 C 0.14254 0.8162 0.2877 0.0
C851 C 0.16186 0.83073 0.28538 0.0
C852 C 0.1672 0.83242 0.27319 0.0
C853 C 0.15329 0.81954 0.26318 0.0
C854 C 0.13395 0.80506 0.26562 0.0
C855 C 0.12864 0.80341 0.27778 0.0
C856 C 0.17051 0.86755 0.33292 0.0
C857 C 0.20162 0.84334 0.32478 0.0
C858 C 0.19429 0.85196 0.37122 0.0
Eu859 Eu 0.17769 0.83846 0.34844 0.0
C860 C 0.18828 0.84937 0.38399 0.0
C861 C 0.19682 0.8418 0.39235 0.0
C862 C 0.19183 0.83973 0.40458 0.0
C863 C 0.17833 0.84541 0.40874 0.0
C864 C 0.16964 0.85284 0.40035 0.0
C865 C 0.1745 0.85473 0.38807 0.0
C866 C 0.16098 0.79999 0.33817 0.0
C867 C 0.13007 0.82448 0.34663 0.0
O868 O 0.14416 0.80564 0.30748 0.0
O869 O 0.13716 0.82963 0.30625 0.0
O870 O 0.1535 0.85807 0.32601 0.0
O871 O 0.17855 0.85688 0.33343 0.0
O872 O 0.18397 0.83346 0.31805 0.0
O873 O 0.20336 0.84961 0.33668 0.0
O874 O 0.18787 0.86131 0.36422 0.0
O875 O 0.19378 0.83654 0.36509 0.0
O876 O 0.17827 0.80946 0.34476 0.0
O877 O 0.15299 0.81071 0.33801 0.0
O878 O 0.14773 0.83435 0.35336 0.0
O879 O 0.12833 0.81812 0.33476 0.0
H880 H 0.17279 0.84068 0.29299 0.0
H881 H 0.18226 0.84358 0.27162 0.0
H882 H 0.12282 0.79512 0.2581 0.0
H883 H 0.11366 0.79214 0.27945 0.0
H884 H 0.20755 0.83765 0.38943 0.0
H885 H 0.19891 0.83417 0.41089 0.0
H886 H 0.15905 0.85715 0.40328 0.0
H887 H 0.16756 0.86052 0.38184 0.0
C888 C 0.86144 0.69023 0.70337 0.0
Eu889 Eu 0.84452 0.67822 0.68055 0.0
C890 C 0.85548 0.68744 0.71607 0.0
C891 C 0.8658 0.70342 0.72547 0.0
C892 C 0.86078 0.70102 0.73769 0.0
C893 C 0.84538 0.68252 0.74075 0.0
C894 C 0.83479 0.66662 0.73121 0.0
C895 C 0.83976 0.66908 0.71897 0.0
C896 C 0.82833 0.69555 0.66669 0.0
C897 C 0.79731 0.64307 0.67973 0.0
C898 C 0.80506 0.64239 0.63301 0.0
Eu899 Eu 0.82133 0.65417 0.65596 0.0
C900 C 0.81187 0.64771 0.62069 0.0
C901 C 0.80317 0.63313 0.61039 0.0
C902 C 0.80973 0.63787 0.59865 0.0
C903 C 0.82512 0.65732 0.59703 0.0
C904 C 0.83388 0.67186 0.60742 0.0
C905 C 0.82734 0.66709 0.61915 0.0
C906 C 0.83732 0.63674 0.66989 0.0
C907 C 0.86824 0.68955 0.65675 0.0
O908 O 0.8599 0.67459 0.69683 0.0
O909 O 0.85549 0.70039 0.69685 0.0
O910 O 0.84568 0.70559 0.67322 0.0
O911 O 0.82002 0.67719 0.66825 0.0
O912 O 0.81472 0.65461 0.68653 0.0
O913 O 0.79552 0.64197 0.66745 0.0
O914 O 0.80398 0.65615 0.64007 0.0
O915 O 0.81289 0.63343 0.63914 0.0
O916 O 0.81993 0.62683 0.6634 0.0
O917 O 0.8458 0.6551 0.66827 0.0
O918 O 0.85066 0.67858 0.65008 0.0
O919 O 0.87029 0.68998 0.66898 0.0
H920 H 0.87785 0.71775 0.72337 0.0
H921 H 0.86899 0.71369 0.74474 0.0
H922 H 0.82299 0.65212 0.73324 0.0
H923 H 0.8315 0.65657 0.71182 0.0
H924 H 0.79126 0.61808 0.61143 0.0
H925 H 0.80255 0.62642 0.5908 0.0
H926 H 0.84593 0.68689 0.6065 0.0
H927 H 0.83437 0.67854 0.62701 0.0
C928 C 0.33167 0.18582 0.70267 0.0
Eu929 Eu 0.32884 0.17127 0.6798 0.0
C930 C 0.33349 0.18083 0.71548 0.0
C931 C 0.31836 0.16332 0.71976 0.0
C932 C 0.31986 0.15956 0.73215 0.0
C933 C 0.33655 0.17315 0.74047 0.0
C934 C 0.35186 0.19042 0.7361 0.0
C935 C 0.35029 0.19425 0.72374 0.0
C936 C 0.30436 0.13257 0.67011 0.0
C937 C 0.36053 0.15557 0.67645 0.0
C938 C 0.33371 0.14623 0.63079 0.0
Eu939 Eu 0.33643 0.16114 0.65356 0.0
C940 C 0.33205 0.15046 0.61778 0.0
C941 C 0.34658 0.16827 0.61345 0.0
C942 C 0.34567 0.17104 0.60082 0.0
C943 C 0.3302 0.15611 0.59227 0.0
C944 C 0.3153 0.13863 0.59674 0.0
C945 C 0.31628 0.13582 0.60935 0.0
C946 C 0.36089 0.19984 0.66332 0.0
C947 C 0.30474 0.17689 0.65695 0.0
O948 O 0.34717 0.19111 0.69638 0.0
O949 O 0.3146 0.17433 0.69583 0.0
O950 O 0.29899 0.14202 0.67787 0.0
O951 O 0.32266 0.14314 0.66891 0.0
O952 O 0.3553 0.16641 0.68356 0.0
O953 O 0.35239 0.14874 0.66483 0.0
O954 O 0.31813 0.14123 0.63697 0.0
O955 O 0.35074 0.15794 0.63761 0.0
O956 O 0.36632 0.19046 0.65555 0.0
O957 O 0.34259 0.18921 0.66444 0.0
O958 O 0.31 0.1661 0.6498 0.0
O959 O 0.31286 0.18367 0.66857 0.0
H960 H 0.30524 0.15262 0.7136 0.0
H961 H 0.30793 0.14603 0.73524 0.0
H962 H 0.36478 0.20128 0.74234 0.0
H963 H 0.36208 0.2079 0.72068 0.0
H964 H 0.35892 0.17986 0.61975 0.0
H965 H 0.35748 0.18459 0.59769 0.0
H966 H 0.30297 0.12699 0.59046 0.0
H967 H 0.3049 0.12199 0.61248 0.0
C968 C 0.80179 0.14706 0.63205 0.0
Eu969 Eu 0.8196 0.16018 0.65462 0.0
C970 C 0.80724 0.14983 0.61929 0.0
C971 C 0.82629 0.16485 0.61688 0.0
C972 C 0.83137 0.16694 0.60465 0.0
C973 C 0.81747 0.15399 0.59466 0.0
C974 C 0.79835 0.13908 0.59717 0.0
C975 C 0.79331 0.13702 0.60938 0.0
C976 C 0.83553 0.19775 0.66613 0.0
C977 C 0.8675 0.17509 0.65551 0.0
C978 C 0.86109 0.17967 0.70231 0.0
Eu979 Eu 0.84402 0.16782 0.67954 0.0
C980 C 0.85466 0.17772 0.71494 0.0
C981 C 0.86385 0.17178 0.72398 0.0
C982 C 0.85798 0.16972 0.73602 0.0
C983 C 0.8429 0.17371 0.73925 0.0
C984 C 0.83362 0.17957 0.73016 0.0
C985 C 0.83939 0.18147 0.71808 0.0
C986 C 0.82802 0.13031 0.66783 0.0
C987 C 0.79639 0.1533 0.67869 0.0
O988 O 0.8089 0.13776 0.63852 0.0
O989 O 0.80296 0.16259 0.6385 0.0
O990 O 0.81816 0.18833 0.65961 0.0
O991 O 0.84409 0.18754 0.66561 0.0
O992 O 0.84985 0.16651 0.64878 0.0
O993 O 0.86947 0.17942 0.6677 0.0
O994 O 0.85699 0.19078 0.69538 0.0
O995 O 0.85809 0.16316 0.69611 0.0
O996 O 0.84554 0.13979 0.67417 0.0
O997 O 0.81948 0.14052 0.66856 0.0
O998 O 0.81419 0.16299 0.68525 0.0
O999 O 0.79439 0.14781 0.66665 0.0
H1000 H 0.83722 0.17484 0.62447 0.0
H1001 H 0.84627 0.17844 0.60302 0.0
H1002 H 0.78721 0.12907 0.58967 0.0
H1003 H 0.77853 0.12537 0.61111 0.0
H1004 H 0.87563 0.16878 0.72174 0.0
H1005 H 0.86553 0.16539 0.74288 0.0
H1006 H 0.82182 0.18255 0.73237 0.0
H1007 H 0.83192 0.1859 0.71124 0.0
C1008 C 0.30003 0.88452 0.04955 0.0
C1009 C 0.299 0.88009 0.062 0.0
C1010 C 0.31851 0.89635 0.0451 0.0
C1011 C 0.37218 0.91319 0.05144 0.0
H1012 H 0.37802 0.95118 0.02783 0.0
C1013 C 0.44757 0.96589 0.03228 0.0
C1014 C 0.44647 0.96747 0.01939 0.0
C1015 C 0.43008 0.95592 0.03817 0.0
C1016 C 0.37658 0.94053 0.03435 0.0
H1017 H 0.31661 0.88477 0.07956 0.0
H1018 H 0.34889 0.90582 0.07185 0.0
H1019 H 0.34659 0.93304 0.03699 0.0
H1020 H 0.4261 0.95954 0.00258 0.0
H1021 H 0.39578 0.94219 0.01284 0.0
H1022 H 0.40221 0.92069 0.04872 0.0
C1023 C 0.33539 0.89991 0.06549 0.0
C1024 C 0.35856 0.93013 0.0396 0.0
C1025 C 0.31688 0.88805 0.06995 0.0
C1026 C 0.42754 0.95869 0.01252 0.0
C1027 C 0.41012 0.94884 0.01842 0.0
C1028 C 0.39025 0.92367 0.04622 0.0
C1029 C 0.33641 0.9041 0.05299 0.0
C1030 C 0.35604 0.91612 0.04807 0.0
C1031 C 0.41118 0.94747 0.03131 0.0
C1032 C 0.39252 0.93723 0.03748 0.0
H1033 H 0.28654 0.87882 0.04322 0.0
H1034 H 0.31875 0.89909 0.03538 0.0
H1035 H 0.37065 0.90234 0.05783 0.0
H1036 H 0.4619 0.97249 0.03785 0.0
H1037 H 0.43135 0.95517 0.04814 0.0
C1038 C 0.14486 0.44069 0.05328 0.0
C1039 C 0.13996 0.42951 0.06363 0.0
C1040 C 0.13213 0.44692 0.04813 0.0
C1041 C 0.09557 0.46092 0.05518 0.0
H1042 H 0.07618 0.44595 0.02009 0.0
C1043 C 0.03834 0.47994 0.03201 0.0
C1044 C 0.03976 0.48392 0.0195 0.0
C1045 C 0.05026 0.47315 0.03774 0.0
C1046 C 0.08171 0.45062 0.02985 0.0
H1047 H 0.11752 0.41608 0.07658 0.0
H1048 H 0.09583 0.42785 0.06787 0.0
H1049 H 0.09786 0.43474 0.0294 0.0
H1050 H 0.05532 0.48486 0.00333 0.0
H1051 H 0.07673 0.47408 0.01341 0.0
H1052 H 0.0802 0.47751 0.05561 0.0
C1053 C 0.10954 0.43158 0.06376 0.0
C1054 C 0.094 0.44402 0.03518 0.0
C1055 C 0.12206 0.42497 0.06877 0.0
C1056 C 0.0537 0.48161 0.01294 0.0
C1057 C 0.06587 0.47525 0.01872 0.0
C1058 C 0.08358 0.46788 0.0498 0.0
C1059 C 0.11443 0.44249 0.05336 0.0
C1060 C 0.10106 0.44915 0.04786 0.0
C1061 C 0.0641 0.47058 0.03114 0.0
C1062 C 0.07655 0.4629 0.03703 0.0
H1063 H 0.15868 0.44492 0.04921 0.0
H1064 H 0.13626 0.45549 0.04016 0.0
H1065 H 0.10097 0.46514 0.06499 0.0
H1066 H 0.02763 0.48151 0.03726 0.0
H1067 H 0.04825 0.46949 0.04726 0.0
C1068 C 0.59324 0.70734 0.04186 0.0
C1069 C 0.58301 0.7181 0.04117 0.0
C1070 C 0.58435 0.68762 0.03625 0.0
C1071 C 0.53494 0.64361 0.02555 0.0
H1072 H 0.56589 0.62457 0.00844 0.0
C1073 C 0.49894 0.56407 -0.00082 0.0
C1074 C 0.5095 0.55379 0.0007 0.0
C1075 C 0.50779 0.58434 0.0037 0.0
C1076 C 0.55709 0.62962 0.01329 0.0
H1077 H 0.55548 0.71661 0.03396 0.0
H1078 H 0.54015 0.68234 0.02397 0.0
H1079 H 0.58176 0.65973 0.01688 0.0
H1080 H 0.53746 0.55646 0.00816 0.0
H1081 H 0.55281 0.59174 0.01616 0.0
H1082 H 0.51031 0.61348 0.02204 0.0
C1083 C 0.55495 0.68909 0.02896 0.0
C1084 C 0.56618 0.64976 0.01812 0.0
C1085 C 0.56384 0.70881 0.03456 0.0
C1086 C 0.529 0.56406 0.00683 0.0
C1087 C 0.53784 0.58429 0.01134 0.0
C1088 C 0.52585 0.62347 0.02073 0.0
C1089 C 0.56503 0.67821 0.02984 0.0
C1090 C 0.55524 0.65696 0.02436 0.0
C1091 C 0.52737 0.59469 0.0098 0.0
C1092 C 0.53685 0.61622 0.01461 0.0
H1093 H 0.6081 0.71414 0.04679 0.0
H1094 H 0.59245 0.67959 0.03719 0.0
H1095 H 0.52617 0.64862 0.03048 0.0
H1096 H 0.48389 0.55647 0.99447 0.0
H1097 H 0.4994 0.59198 0.00227 0.0
C1098 C 0.86807 0.2884 0.96413 0.0
C1099 C 0.86304 0.28466 0.95116 0.0
C1100 C 0.8802 0.30806 0.96977 0.0
C1101 C 0.91663 0.35938 0.9628 0.0
H1102 H 0.90352 0.37573 0.99381 0.0
C1103 C 0.93786 0.43659 0.99553 0.0
C1104 C 0.95877 0.44696 0.99565 0.0
C1105 C 0.92646 0.41668 0.99022 0.0
C1106 C 0.9073 0.37144 0.98511 0.0
H1107 H 0.86642 0.29863 0.93396 0.0
H1108 H 0.88745 0.33284 0.94378 0.0
H1109 H 0.88303 0.34118 0.9843 0.0
H1110 H 0.98423 0.44481 0.99032 0.0
H1111 H 0.96436 0.40995 0.98116 0.0
H1112 H 0.94057 0.38975 0.96343 0.0
C1113 C 0.88241 0.3206 0.94958 0.0
C1114 C 0.89571 0.35157 0.97974 0.0
C1115 C 0.87035 0.30098 0.94396 0.0
C1116 C 0.9681 0.43715 0.99031 0.0
C1117 C 0.95671 0.41723 0.98502 0.0
C1118 C 0.92821 0.37924 0.96816 0.0
C1119 C 0.88749 0.32439 0.96256 0.0
C1120 C 0.90018 0.34534 0.96849 0.0
C1121 C 0.93575 0.40674 0.98494 0.0
C1122 C 0.92362 0.38553 0.97935 0.0
H1123 H 0.86283 0.27611 0.96991 0.0
H1124 H 0.88405 0.31045 0.97977 0.0
H1125 H 0.92063 0.35502 0.95421 0.0
H1126 H 0.9303 0.44387 -0.00046 0.0
H1127 H 0.91033 0.40914 0.99014 0.0
C1128 C 0.69251 0.57701 0.9427 0.0
C1129 C 0.69458 0.56306 0.93491 0.0
C1130 C 0.67483 0.57111 0.94823 0.0
C1131 C 0.62151 0.53532 0.94484 0.0
H1132 H 0.62514 0.54499 0.98077 0.0
C1133 C 0.55085 0.50433 0.97119 0.0
C1134 C 0.55143 0.51598 0.98188 0.0
C1135 C 0.56819 0.50976 0.96531 0.0
C1136 C 0.6238 0.54246 0.97071 0.0
H1137 H 0.67978 0.53225 0.9265 0.0
H1138 H 0.64854 0.52204 0.93596 0.0
H1139 H 0.65555 0.55568 0.97058 0.0
H1140 H 0.57041 0.54274 0.99458 0.0
H1141 H 0.60031 0.55268 0.98409 0.0
H1142 H 0.58989 0.52275 0.94483 0.0
C1143 C 0.66069 0.53743 0.93786 0.0
C1144 C 0.64125 0.5485 0.96491 0.0
C1145 C 0.67853 0.54323 0.93253 0.0
C1146 C 0.56956 0.5333 0.98646 0.0
C1147 C 0.58677 0.53893 0.98047 0.0
C1148 C 0.60404 0.52959 0.95062 0.0
C1149 C 0.65878 0.55128 0.94586 0.0
C1150 C 0.64025 0.54496 0.95193 0.0
C1151 C 0.5864 0.52717 0.96987 0.0
C1152 C 0.60494 0.53308 0.96365 0.0
H1153 H 0.70474 0.59235 0.94471 0.0
H1154 H 0.67364 0.58206 0.95433 0.0
H1155 H 0.62041 0.53255 0.9348 0.0
H1156 H 0.53708 0.49085 0.96748 0.0
H1157 H 0.56733 0.50013 0.95731 0.0
C1158 C 0.41178 0.1202 0.96605 0.0
C1159 C 0.41219 0.12286 0.95329 0.0
C1160 C 0.42044 0.10983 0.97128 0.0
C1161 C 0.43716 0.07371 0.96341 0.0
H1162 H 0.47 0.09619 0.99511 0.0
C1163 C 0.49777 0.0632 0.99671 0.0
C1164 C 0.48726 0.04225 0.99678 0.0
C1165 C 0.48852 0.07288 0.99125 0.0
C1166 C 0.46098 0.0898 0.98621 0.0
H1167 H 0.42201 0.11666 0.93604 0.0
H1168 H 0.43696 0.09844 0.94517 0.0
H1169 H 0.45372 0.11315 0.98585 0.0
H1170 H 0.45889 0.01495 0.99127 0.0
H1171 H 0.44275 0.03183 0.98172 0.0
H1172 H 0.44466 0.0505 0.96369 0.0
C1173 C 0.42975 0.10419 0.95109 0.0
C1174 C 0.45147 0.09938 0.98098 0.0
C1175 C 0.42115 0.1146 0.94586 0.0
C1176 C 0.4674 0.03112 0.99125 0.0
C1177 C 0.45818 0.04078 0.98575 0.0
C1178 C 0.44661 0.06408 0.96866 0.0
C1179 C 0.42965 0.10184 0.96388 0.0
C1180 C 0.43947 0.09145 0.96951 0.0
C1181 C 0.46861 0.06177 0.98574 0.0
C1182 C 0.45865 0.07204 0.98011 0.0
H1183 H 0.40473 0.12609 0.97199 0.0
H1184 H 0.41984 0.10798 0.98113 0.0
H1185 H 0.42789 0.06716 0.9546 0.0
H1186 H 0.51312 0.07211 0.00089 0.0
H1187 H 0.49701 0.08906 0.99126 0.0
C1188 C 0.70113 0.12086 0.95447 0.0
C1189 C 0.7022 0.12436 0.94186 0.0
C1190 C 0.68263 0.11005 0.9591 0.0
C1191 C 0.62915 0.074 0.95 0.0
H1192 H 0.62273 0.09501 0.98182 0.0
C1193 C 0.55339 0.03903 0.97149 0.0
C1194 C 0.55444 0.03716 0.98434 0.0
C1195 C 0.5709 0.04994 0.96574 0.0
C1196 C 0.62432 0.08883 0.97297 0.0
H1197 H 0.68459 0.11896 0.92417 0.0
H1198 H 0.65221 0.0999 0.93227 0.0
H1199 H 0.65431 0.11302 0.97283 0.0
H1200 H 0.57473 0.04526 0.0012 0.0
H1201 H 0.60503 0.06398 0.99121 0.0
H1202 H 0.59916 0.04966 0.95024 0.0
C1203 C 0.66575 0.10545 0.93854 0.0
C1204 C 0.64242 0.09916 0.96783 0.0
C1205 C 0.6843 0.11634 0.9339 0.0
C1206 C 0.57332 0.04645 0.9913 0.0
C1207 C 0.59074 0.05731 0.98558 0.0
C1208 C 0.611 0.06361 0.95517 0.0
C1209 C 0.66473 0.10243 0.95123 0.0
C1210 C 0.64514 0.09174 0.95637 0.0
C1211 C 0.58976 0.05923 0.97275 0.0
C1212 C 0.60849 0.07079 0.9668 0.0
H1213 H 0.71463 0.12649 0.96079 0.0
H1214 H 0.68234 0.10762 0.96887 0.0
H1215 H 0.63085 0.06785 0.94118 0.0
H1216 H 0.53909 0.03208 0.96585 0.0
H1217 H 0.56964 0.05128 0.95586 0.0
C1218 C 0.86017 0.56705 0.94873 0.0
C1219 C 0.85487 0.56373 0.93578 0.0
C1220 C 0.87369 0.56188 0.95402 0.0
C1221 C 0.89508 0.52928 0.94828 0.0
H1222 H 0.93599 0.56571 0.97447 0.0
C1223 C 0.95693 0.51495 0.96931 0.0
C1224 C 0.9617 0.51911 0.98231 0.0
C1225 C 0.94437 0.52065 0.9632 0.0
C1226 C 0.92453 0.55527 0.96726 0.0
H1227 H 0.85942 0.55219 0.91824 0.0
H1228 H 0.8832 0.54332 0.92748 0.0
H1229 H 0.91311 0.57513 0.96466 0.0
H1230 H 0.95685 0.53237 0.99908 0.0
H1231 H 0.93483 0.54201 0.98847 0.0
H1232 H 0.90636 0.50931 0.95097 0.0
C1233 C 0.87681 0.54983 0.93353 0.0
C1234 C 0.91143 0.56069 0.96163 0.0
C1235 C 0.86335 0.55509 0.92824 0.0
C1236 C 0.95359 0.52902 0.98905 0.0
C1237 C 0.94105 0.53468 0.98296 0.0
C1238 C 0.90816 0.52383 0.95393 0.0
C1239 C 0.88216 0.55322 0.94648 0.0
C1240 C 0.89646 0.54769 0.95215 0.0
C1241 C 0.93632 0.53062 0.96996 0.0
C1242 C 0.92293 0.5367 0.96356 0.0
H1243 H 0.85403 0.57386 0.95478 0.0
H1244 H 0.87735 0.56448 0.96404 0.0
H1245 H 0.88356 0.51885 0.94109 0.0
H1246 H 0.96295 0.50737 0.96383 0.0
H1247 H 0.94118 0.51748 0.95317 0.0
C1248 C 0.42255 0.29905 0.94796 0.0
C1249 C 0.41339 0.283 0.95529 0.0
C1250 C 0.4313 0.31888 0.9533 0.0
C1251 C 0.45212 0.35046 0.98337 0.0
H1252 H 0.44508 0.38902 0.96554 0.0
C1253 C 0.49646 0.43596 0.99886 0.0
C1254 C 0.48569 0.44614 0.9981 0.0
C1255 C 0.48769 0.41593 0.99379 0.0
C1256 C 0.44708 0.37841 0.97068 0.0
H1257 H 0.406 0.27522 0.97396 0.0
H1258 H 0.42127 0.30992 0.98329 0.0
H1259 H 0.42912 0.35418 0.95654 0.0
H1260 H 0.4573 0.44343 0.99163 0.0
H1261 H 0.44196 0.40852 0.98287 0.0
H1262 H 0.46981 0.37469 0.99761 0.0
C1263 C 0.42191 0.30712 0.97344 0.0
C1264 C 0.43811 0.35849 0.96546 0.0
C1265 C 0.41314 0.28726 0.96809 0.0
C1266 C 0.466 0.43597 0.99227 0.0
C1267 C 0.45725 0.41601 0.9872 0.0
C1268 C 0.46112 0.37042 0.98859 0.0
C1269 C 0.43111 0.32316 0.9661 0.0
C1270 C 0.44052 0.34429 0.97174 0.0
C1271 C 0.468 0.40577 0.98786 0.0
C1272 C 0.45867 0.38461 0.9823 0.0
H1273 H 0.42334 0.2963 0.93812 0.0
H1274 H 0.43856 0.33089 0.94743 0.0
H1275 H 0.45443 0.33992 0.98838 0.0
H1276 H 0.5117 0.44351 0.00329 0.0
H1277 H 0.49642 0.40852 0.99434 0.0
C1278 C 0.1172 0.71 0.04865 0.0
C1279 C 0.13815 0.71965 0.04882 0.0
C1280 C 0.1051 0.69038 0.04298 0.0
C1281 C 0.10483 0.65214 0.02051 0.0
H1282 H 0.06172 0.61448 0.03822 0.0
C1283 C 0.06345 0.56679 0.00626 0.0
C1284 C 0.04259 0.55624 0.00643 0.0
C1285 C 0.07479 0.58684 0.01131 0.0
C1286 C 0.07354 0.62486 0.03308 0.0
H1287 H 0.16277 0.71624 0.0431 0.0
H1288 H 0.14166 0.68207 0.03317 0.0
H1289 H 0.08192 0.64954 0.04687 0.0
H1290 H 0.01718 0.55818 0.01212 0.0
H1291 H 0.03697 0.59328 0.02087 0.0
H1292 H 0.09651 0.62745 0.00675 0.0
C1293 C 0.13458 0.68977 0.03728 0.0
C1294 C 0.0851 0.64495 0.03803 0.0
C1295 C 0.14667 0.70937 0.04296 0.0
C1296 C 0.03327 0.56598 0.01188 0.0
C1297 C 0.04461 0.58605 0.01694 0.0
C1298 C 0.09326 0.63206 0.01556 0.0
C1299 C 0.11367 0.67998 0.03734 0.0
C1300 C 0.10094 0.6588 0.03183 0.0
C1301 C 0.0655 0.59674 0.01664 0.0
C1302 C 0.07755 0.61816 0.02182 0.0
H1303 H 0.11015 0.71762 0.05291 0.0
H1304 H 0.08902 0.68335 0.043 0.0
H1305 H 0.11673 0.6625 0.01542 0.0
H1306 H 0.071 0.55957 0.00217 0.0
H1307 H 0.09088 0.59455 0.01112 0.0
C1308 C 0.29824 0.42408 0.04964 0.0
C1309 C 0.29803 0.42769 0.06252 0.0
C1310 C 0.31635 0.43133 0.04444 0.0
C1311 C 0.37026 0.44989 0.05218 0.0
H1312 H 0.37498 0.47292 0.02078 0.0
C1313 C 0.44504 0.48925 0.03 0.0
C1314 C 0.44383 0.48423 0.01713 0.0
C1315 C 0.42762 0.48324 0.0359 0.0
C1316 C 0.37385 0.4664 0.02951 0.0
H1317 H 0.31669 0.4417 0.08003 0.0
H1318 H 0.34834 0.45436 0.07094 0.0
H1319 H 0.34383 0.46025 0.03039 0.0
H1320 H 0.42336 0.46918 0.00034 0.0
H1321 H 0.39314 0.45869 0.01061 0.0
H1322 H 0.40031 0.456 0.05124 0.0
C1323 C 0.33448 0.44571 0.06489 0.0
C1324 C 0.35599 0.4591 0.035 0.0
C1325 C 0.31635 0.43844 0.0701 0.0
C1326 C 0.42487 0.47333 0.01027 0.0
C1327 C 0.40751 0.46741 0.01614 0.0
C1328 C 0.38816 0.45722 0.04668 0.0
C1329 C 0.33469 0.44239 0.05198 0.0
C1330 C 0.35391 0.4506 0.04635 0.0
C1331 C 0.40867 0.47221 0.02902 0.0
C1332 C 0.39008 0.46538 0.03522 0.0
H1333 H 0.28438 0.41557 0.04358 0.0
H1334 H 0.31599 0.42816 0.0345 0.0
H1335 H 0.36907 0.44325 0.06086 0.0
H1336 H 0.45941 0.49764 0.03556 0.0
H1337 H 0.42899 0.48733 0.04582 0.0
C1338 C 0.59005 0.88498 0.03775 0.0
C1339 C 0.58739 0.87955 0.04996 0.0
C1340 C 0.58166 0.89582 0.03287 0.0
C1341 C 0.57103 0.92775 0.02725 0.0
H1342 H 0.51664 0.91209 0.03358 0.0
C1343 C 0.53356 0.97291 0.01252 0.0
C1344 C 0.51362 0.9618 0.00713 0.0
C1345 C 0.54274 0.96328 0.01811 0.0
C1346 C 0.5318 0.91657 0.03167 0.0
H1347 H 0.57396 0.88137 0.06667 0.0
H1348 H 0.55963 0.90061 0.05824 0.0
H1349 H 0.53265 0.89468 0.04254 0.0
H1350 H 0.48754 0.93201 0.0034 0.0
H1351 H 0.50362 0.91509 0.01309 0.0
H1352 H 0.57002 0.94934 0.01616 0.0
C1353 C 0.56803 0.8963 0.05239 0.0
C1354 C 0.54105 0.90675 0.03692 0.0
C1355 C 0.57645 0.88549 0.05727 0.0
C1356 C 0.50294 0.94091 0.00751 0.0
C1357 C 0.51211 0.93127 0.01312 0.0
C1358 C 0.56179 0.93759 0.02202 0.0
C1359 C 0.57039 0.90143 0.0401 0.0
C1360 C 0.56075 0.9122 0.03474 0.0
C1361 C 0.53215 0.94234 0.01843 0.0
C1362 C 0.54205 0.93207 0.02414 0.0
H1363 H 0.59856 0.88078 0.03193 0.0
H1364 H 0.58362 0.89941 0.02334 0.0
H1365 H 0.58628 0.9324 0.02548 0.0
H1366 H 0.54214 0.98905 0.01235 0.0
H1367 H 0.5581 0.97226 0.02226 0.0
C1368 C 0.98272 0.22081 0.402 0.0
C1369 C 0.96482 0.21208 0.394 0.0
C1370 C 0.00111 0.23305 0.39753 0.0
C1371 C 0.02357 0.2631 0.37148 0.0
H1372 H 0.06846 0.25578 0.38103 0.0
C1373 C 0.09304 0.29366 0.34472 0.0
C1374 C 0.11196 0.30262 0.35161 0.0
C1375 C 0.07561 0.28361 0.35057 0.0
C1376 C 0.05615 0.25819 0.37841 0.0
H1377 H 0.95218 0.20977 0.37509 0.0
H1378 H 0.98424 0.23077 0.36724 0.0
H1379 H 0.03697 0.23661 0.39005 0.0
H1380 H 0.12737 0.30791 0.37011 0.0
H1381 H 0.09681 0.29031 0.38035 0.0
H1382 H 0.04263 0.28445 0.35971 0.0
C1383 C 0.98408 0.22832 0.377 0.0
C1384 C 0.03811 0.24722 0.38358 0.0
C1385 C 0.96571 0.21608 0.38147 0.0
C1386 C 0.11304 0.30116 0.36451 0.0
C1387 C 0.09554 0.29101 0.37038 0.0
C1388 C 0.04156 0.27402 0.3663 0.0
C1389 C 0.00201 0.23687 0.38496 0.0
C1390 C 0.02154 0.24937 0.38006 0.0
C1391 C 0.07664 0.28223 0.36347 0.0
C1392 C 0.05797 0.2715 0.36958 0.0
H1393 H 0.98256 0.21788 0.41168 0.0
H1394 H 0.01464 0.23956 0.40393 0.0
H1395 H 0.01122 0.26539 0.36876 0.0
H1396 H 0.09162 0.29443 0.33476 0.0
H1397 H 0.06128 0.27672 0.34496 0.0
C1398 C 0.79726 0.7707 0.40498 0.0
C1399 C 0.80408 0.76043 0.39735 0.0
C1400 C 0.78439 0.77682 0.39988 0.0
C1401 C 0.74871 0.76689 0.37248 0.0
H1402 H 0.75895 0.8206 0.38239 0.0
C1403 C 0.7108 0.80263 0.34508 0.0
C1404 C 0.70405 0.81384 0.35184 0.0
C1405 C 0.72249 0.79594 0.35111 0.0
C1406 C 0.75573 0.80547 0.37965 0.0
H1407 H 0.80245 0.74821 0.37843 0.0
H1408 H 0.78019 0.75912 0.36951 0.0
H1409 H 0.78015 0.80899 0.39206 0.0
H1410 H 0.70442 0.82694 0.37027 0.0
H1411 H 0.72479 0.81509 0.38083 0.0
H1412 H 0.72439 0.76337 0.36003 0.0
C1413 C 0.78469 0.76232 0.37945 0.0
C1414 C 0.76787 0.79882 0.38519 0.0
C1415 C 0.7976 0.75626 0.38453 0.0
C1416 C 0.7094 0.81836 0.36478 0.0
C1417 C 0.72113 0.81164 0.37083 0.0
C1418 C 0.73657 0.77352 0.36696 0.0
C1419 C 0.778 0.77273 0.38706 0.0
C1420 C 0.76461 0.77952 0.38157 0.0
C1421 C 0.72772 0.80027 0.36406 0.0
C1422 C 0.74006 0.79296 0.37039 0.0
H1423 H 0.80214 0.77431 0.41487 0.0
H1424 H 0.77936 0.78466 0.406 0.0
H1425 H 0.7456 0.75181 0.36966 0.0
H1426 H 0.70706 0.79896 0.33509 0.0
H1427 H 0.72762 0.78752 0.34559 0.0
C1428 C 0.25901 0.03996 0.38328 0.0
C1429 C 0.25692 0.05418 0.37674 0.0
C1430 C 0.25083 0.02016 0.37796 0.0
C1431 C 0.20922 0.98181 0.35825 0.0
H1432 H 0.24085 0.95653 0.35219 0.0
C1433 C 0.17271 0.90101 0.33419 0.0
C1434 C 0.18065 0.88898 0.33768 0.0
C1435 C 0.18255 0.92142 0.33852 0.0
C1436 C 0.2317 0.96318 0.35402 0.0
H1437 H 0.24523 0.05861 0.35914 0.0
H1438 H 0.23007 0.02375 0.35022 0.0
H1439 H 0.25743 0.9917 0.36077 0.0
H1440 H 0.20509 0.88873 0.34838 0.0
H1441 H 0.22157 0.92389 0.35662 0.0
H1442 H 0.1834 0.95334 0.35219 0.0
C1443 C 0.23819 0.02817 0.35944 0.0
C1444 C 0.24127 0.98338 0.35883 0.0
C1445 C 0.24674 0.04808 0.36463 0.0
C1446 C 0.19854 0.89765 0.34562 0.0
C1447 C 0.20815 0.91793 0.3502 0.0
C1448 C 0.19958 0.96151 0.35372 0.0
C1449 C 0.24007 0.01407 0.36611 0.0
C1450 C 0.23009 0.99283 0.36092 0.0
C1451 C 0.20035 0.93017 0.34667 0.0
C1452 C 0.21067 0.95188 0.35149 0.0
H1453 H 0.26639 0.04388 0.39269 0.0
H1454 H 0.25232 0.00942 0.38327 0.0
H1455 H 0.20033 0.98883 0.35993 0.0
H1456 H 0.15902 0.89473 0.32796 0.0
H1457 H 0.17626 0.93034 0.33532 0.0
C1458 C 0.53364 0.61992 0.29746 0.0
C1459 C 0.52874 0.61609 0.28447 0.0
C1460 C 0.54531 0.63965 0.3031 0.0
C1461 C 0.58094 0.69117 0.29604 0.0
H1462 H 0.56794 0.70714 0.32722 0.0
C1463 C 0.60271 0.76824 0.32923 0.0
C1464 C 0.62357 0.77852 0.32908 0.0
C1465 C 0.59109 0.74831 0.32392 0.0
C1466 C 0.57167 0.70295 0.31846 0.0
H1467 H 0.53181 0.62996 0.26726 0.0
H1468 H 0.55201 0.66427 0.27706 0.0
H1469 H 0.54762 0.67256 0.31767 0.0
H1470 H 0.64874 0.77616 0.32335 0.0
H1471 H 0.62857 0.74137 0.31424 0.0
H1472 H 0.60463 0.72162 0.29664 0.0
C1473 C 0.54725 0.65207 0.28289 0.0
C1474 C 0.56018 0.68307 0.31307 0.0
C1475 C 0.53566 0.63239 0.27726 0.0
C1476 C 0.63265 0.76859 0.32354 0.0
C1477 C 0.62107 0.7487 0.31827 0.0
C1478 C 0.59238 0.71102 0.30141 0.0
C1479 C 0.55226 0.65595 0.29587 0.0
C1480 C 0.56466 0.67696 0.30177 0.0
C1481 C 0.60015 0.73831 0.31838 0.0
C1482 C 0.58789 0.71717 0.31268 0.0
H1483 H 0.52866 0.60766 0.30325 0.0
H1484 H 0.54911 0.64211 0.3131 0.0
H1485 H 0.58495 0.68692 0.28741 0.0
H1486 H 0.59535 0.7756 0.33341 0.0
H1487 H 0.575 0.74084 0.32402 0.0
C1488 C 0.34643 0.89218 0.26514 0.0
C1489 C 0.36492 0.90234 0.27258 0.0
C1490 C 0.32851 0.88547 0.27054 0.0
C1491 C 0.30747 0.87259 0.30062 0.0
H1492 H 0.26392 0.87741 0.28482 0.0
C1493 C 0.23887 0.8592 0.32559 0.0
C1494 C 0.21997 0.8488 0.31863 0.0
C1495 C 0.25627 0.86504 0.31976 0.0
C1496 C 0.27586 0.87573 0.28926 0.0
H1497 H 0.37912 0.91402 0.29145 0.0
H1498 H 0.34789 0.90242 0.30087 0.0
H1499 H 0.29493 0.88941 0.27503 0.0
H1500 H 0.20453 0.83613 0.30007 0.0
H1501 H 0.23495 0.84625 0.28992 0.0
H1502 H 0.28847 0.85903 0.31488 0.0
C1503 C 0.34721 0.89926 0.29089 0.0
C1504 C 0.29362 0.88262 0.28366 0.0
C1505 C 0.36511 0.90594 0.2855 0.0
C1506 C 0.21885 0.84416 0.30572 0.0
C1507 C 0.23628 0.85006 0.29987 0.0
C1508 C 0.28973 0.86574 0.30622 0.0
C1509 C 0.3287 0.8888 0.28349 0.0
C1510 C 0.30968 0.88123 0.28931 0.0
C1511 C 0.25518 0.86063 0.30683 0.0
C1512 C 0.27377 0.86732 0.30064 0.0
H1513 H 0.34578 0.88895 0.25517 0.0
H1514 H 0.3145 0.87726 0.2646 0.0
H1515 H 0.3194 0.87095 0.30509 0.0
H1516 H 0.24029 0.86305 0.33555 0.0
H1517 H 0.27061 0.87337 0.32535 0.0
C1518 C 0.09622 0.46811 0.29267 0.0
C1519 C 0.07683 0.4576 0.28636 0.0
C1520 C 0.10522 0.45778 0.29745 0.0
C1521 C 0.10265 0.40856 0.2945 0.0
H1522 H 0.13482 0.42866 0.32651 0.0
C1523 C 0.13357 0.36481 0.32077 0.0
C1524 C 0.15333 0.37602 0.32647 0.0
C1525 C 0.12419 0.37446 0.31545 0.0
C1526 C 0.12606 0.42298 0.3175 0.0
H1527 H 0.05158 0.42799 0.2802 0.0
H1528 H 0.06721 0.40986 0.28871 0.0
H1529 H 0.11804 0.4458 0.31834 0.0
H1530 H 0.17896 0.40598 0.33087 0.0
H1531 H 0.16256 0.42288 0.32158 0.0
H1532 H 0.11057 0.38559 0.29378 0.0
C1533 C 0.07559 0.42613 0.28978 0.0
C1534 C 0.11644 0.4328 0.31281 0.0
C1535 C 0.06661 0.43649 0.28493 0.0
C1536 C 0.16368 0.397 0.32658 0.0
C1537 C 0.15426 0.40666 0.32132 0.0
C1538 C 0.1122 0.39866 0.29923 0.0
C1539 C 0.09501 0.43667 0.29609 0.0
C1540 C 0.10472 0.42579 0.30121 0.0
C1541 C 0.13436 0.39551 0.31581 0.0
C1542 C 0.1241 0.40586 0.31075 0.0
H1543 H 0.10463 0.48438 0.2937 0.0
H1544 H 0.12034 0.46638 0.30204 0.0
H1545 H 0.09396 0.40292 0.28546 0.0
H1546 H 0.12523 0.3486 0.32061 0.0
H1547 H 0.10879 0.36549 0.31136 0.0
C1548 C 0.35366 0.43864 0.26797 0.0
C1549 C 0.36819 0.45746 0.27415 0.0
C1550 C 0.3352 0.42732 0.27263 0.0
C1551 C 0.31169 0.41863 0.30141 0.0
H1552 H 0.26156 0.39937 0.2808 0.0
C1553 C 0.23741 0.38553 0.32308 0.0
C1554 C 0.22021 0.36945 0.31636 0.0
C1555 C 0.25504 0.39589 0.31745 0.0
C1556 C 0.27538 0.40432 0.28664 0.0
H1557 H 0.37423 0.47921 0.28995 0.0
H1558 H 0.34243 0.45904 0.29827 0.0
H1559 H 0.29324 0.41762 0.27177 0.0
H1560 H 0.20788 0.35168 0.29842 0.0
H1561 H 0.23891 0.36928 0.28869 0.0
H1562 H 0.29416 0.40501 0.3162 0.0
C1563 C 0.34543 0.45314 0.28983 0.0
C1564 C 0.2935 0.41484 0.28146 0.0
C1565 C 0.36371 0.46461 0.28509 0.0
C1566 C 0.22091 0.36407 0.30383 0.0
C1567 C 0.23869 0.37424 0.29824 0.0
C1568 C 0.29363 0.40786 0.30653 0.0
C1569 C 0.33102 0.43441 0.28366 0.0
C1570 C 0.31179 0.42231 0.28886 0.0
C1571 C 0.25605 0.3902 0.30502 0.0
C1572 C 0.27522 0.40083 0.29929 0.0
H1573 H 0.35662 0.43247 0.25964 0.0
H1574 H 0.32434 0.41283 0.26776 0.0
H1575 H 0.32562 0.424 0.30725 0.0
H1576 H 0.23727 0.39023 0.3327 0.0
H1577 H 0.26787 0.40843 0.32289 0.0
C1578 C 0.53088 0.89142 0.26297 0.0
C1579 C 0.52392 0.9014 0.27073 0.0
C1580 C 0.54401 0.8855 0.26792 0.0
C1581 C 0.58044 0.89622 0.29498 0.0
H1582 H 0.57151 0.84302 0.28498 0.0
C1583 C 0.62083 0.86244 0.32188 0.0
C1584 C 0.62768 0.85138 0.31506 0.0
C1585 C 0.60867 0.86869 0.31596 0.0
C1586 C 0.57437 0.85802 0.28774 0.0
H1587 H 0.52546 0.91321 0.28974 0.0
H1588 H 0.54819 0.90268 0.29841 0.0
H1589 H 0.54935 0.85375 0.2756 0.0
H1590 H 0.62703 0.83814 0.29661 0.0
H1591 H 0.60586 0.84925 0.28623 0.0
H1592 H 0.6054 0.90052 0.30714 0.0
C1593 C 0.5436 0.89955 0.28848 0.0
C1594 C 0.56167 0.86416 0.28237 0.0
C1595 C 0.53042 0.90539 0.28354 0.0
C1596 C 0.62199 0.84662 0.30215 0.0
C1597 C 0.60979 0.8529 0.29621 0.0
C1598 C 0.59315 0.89012 0.30031 0.0
C1599 C 0.55053 0.88953 0.28073 0.0
C1600 C 0.56445 0.88325 0.28604 0.0
C1601 C 0.60306 0.86408 0.30305 0.0
C1602 C 0.59014 0.87087 0.29686 0.0
H1603 H 0.52599 0.88797 0.25308 0.0
H1604 H 0.5492 0.87794 0.2617 0.0
H1605 H 0.5832 0.91117 0.29782 0.0
H1606 H 0.62481 0.86629 0.33185 0.0
H1607 H 0.60345 0.87695 0.32155 0.0
C1608 C 0.09395 0.62446 0.29763 0.0
C1609 C 0.07501 0.61507 0.29072 0.0
C1610 C 0.10265 0.64425 0.30305 0.0
C1611 C 0.10095 0.69082 0.30047 0.0
H1612 H 0.13069 0.7067 0.33327 0.0
C1613 C 0.13161 0.76969 0.32654 0.0
C1614 C 0.15103 0.77889 0.33274 0.0
C1615 C 0.12204 0.74963 0.32149 0.0
C1616 C 0.1226 0.70253 0.32405 0.0
H1617 H 0.05018 0.61894 0.28431 0.0
H1618 H 0.06536 0.65353 0.29384 0.0
H1619 H 0.11409 0.67163 0.32454 0.0
H1620 H 0.17576 0.7745 0.3385 0.0
H1621 H 0.15906 0.7394 0.32963 0.0
H1622 H 0.10948 0.72174 0.29999 0.0
C1623 C 0.0736 0.64566 0.29489 0.0
C1624 C 0.11308 0.68244 0.31905 0.0
C1625 C 0.06489 0.62585 0.28945 0.0
C1626 C 0.16075 0.76772 0.33379 0.0
C1627 C 0.15115 0.74762 0.32878 0.0
C1628 C 0.11044 0.7109 0.30548 0.0
C1629 C 0.09263 0.65512 0.3017 0.0
C1630 C 0.10222 0.67636 0.30718 0.0
C1631 C 0.13168 0.73836 0.32258 0.0
C1632 C 0.12144 0.71699 0.31731 0.0
H1633 H 0.1023 0.61669 0.29859 0.0
H1634 H 0.11747 0.65119 0.30805 0.0
H1635 H 0.09297 0.6867 0.29122 0.0
H1636 H 0.12374 0.77796 0.32565 0.0
H1637 H 0.10696 0.74286 0.3169 0.0
C1638 C 0.79948 0.03172 0.39074 0.0
C1639 C 0.80662 0.04818 0.38365 0.0
C1640 C 0.78751 0.01216 0.385 0.0
C1641 C 0.77362 0.98155 0.35461 0.0
H1642 H 0.7288 0.94342 0.37098 0.0
C1643 C 0.72964 0.89665 0.33799 0.0
C1644 C 0.70878 0.88669 0.3381 0.0
C1645 C 0.74153 0.91646 0.34342 0.0
C1646 C 0.74115 0.95391 0.36622 0.0
H1647 H 0.80671 0.05702 0.36499 0.0
H1648 H 0.78563 0.02277 0.35494 0.0
H1649 H 0.74927 0.97794 0.38043 0.0
H1650 H 0.68389 0.88945 0.34395 0.0
H1651 H 0.70457 0.92409 0.35331 0.0
H1652 H 0.76522 0.95757 0.34027 0.0
C1653 C 0.78955 0.02502 0.36493 0.0
C1654 C 0.75304 0.97365 0.37172 0.0
C1655 C 0.8016 0.04462 0.37068 0.0
C1656 C 0.69997 0.89679 0.34377 0.0
C1657 C 0.71183 0.91659 0.34918 0.0
C1658 C 0.7617 0.96179 0.3491 0.0
C1659 C 0.78233 0.00856 0.37204 0.0
C1660 C 0.76946 0.98769 0.36601 0.0
C1661 C 0.73275 0.92667 0.34907 0.0
C1662 C 0.74536 0.94772 0.35486 0.0
H1663 H 0.80341 0.03393 0.40073 0.0
H1664 H 0.78255 -0.00018 0.39072 0.0
H1665 H 0.78626 0.99193 0.35002 0.0
H1666 H 0.73679 0.88914 0.33372 0.0
H1667 H 0.75761 0.92368 0.34333 0.0
C1668 C 0.97571 0.78381 0.39338 0.0
C1669 C 0.96576 0.76468 0.39762 0.0
C1670 C 0.99398 0.79062 0.38842 0.0
C1671 C 0.0242 0.77246 0.37351 0.0
H1672 H 0.0673 0.82756 0.38158 0.0
C1673 C 0.09278 0.80731 0.34591 0.0
C1674 C 0.11169 0.81893 0.35275 0.0
C1675 C 0.07533 0.80108 0.35173 0.0
C1676 C 0.05546 0.8121 0.37931 0.0
H1677 H 0.96715 0.73767 0.39996 0.0
H1678 H -0.00083 0.74964 0.39138 0.0
H1679 H 0.03631 0.81568 0.39142 0.0
H1680 H 0.12707 0.83347 0.37107 0.0
H1681 H 0.09651 0.82254 0.38125 0.0
H1682 H 0.04335 0.76881 0.36147 0.0
C1683 C 0.99276 0.75932 0.39183 0.0
C1684 C 0.03765 0.80535 0.38484 0.0
C1685 C 0.97452 0.75254 0.39684 0.0
C1686 C 0.11275 0.82454 0.36552 0.0
C1687 C 0.09525 0.81834 0.37135 0.0
C1688 C 0.04195 0.77922 0.36794 0.0
C1689 C 0.00266 0.77843 0.38755 0.0
C1690 C 0.0218 0.78548 0.38196 0.0
C1691 C 0.07636 0.80637 0.36453 0.0
C1692 C 0.05773 0.79914 0.37072 0.0
H1693 H 0.96945 0.79362 0.39399 0.0
H1694 H 0.00114 0.80533 0.38508 0.0
H1695 H 0.0122 0.75712 0.37102 0.0
H1696 H 0.09138 0.80278 0.33605 0.0
H1697 H 0.061 0.79216 0.34619 0.0
C1698 C 0.26023 0.2314 0.38527 0.0
C1699 C 0.24904 0.21032 0.3845 0.0
C1700 C 0.25177 0.24223 0.38043 0.0
C1701 C 0.21069 0.23599 0.35791 0.0
H1702 H 0.22043 0.28603 0.37523 0.0
C1703 C 0.16685 0.27441 0.34256 0.0
C1704 C 0.17797 0.29522 0.34195 0.0
C1705 C 0.17562 0.2645 0.34825 0.0
C1706 C 0.21772 0.27216 0.37024 0.0
H1707 H 0.22001 0.18414 0.37849 0.0
H1708 H 0.20523 0.20297 0.37014 0.0
H1709 H 0.2357 0.26789 0.38422 0.0
H1710 H 0.20684 0.32211 0.34698 0.0
H1711 H 0.22223 0.30477 0.35698 0.0
H1712 H 0.19268 0.24018 0.34397 0.0
C1713 C 0.22068 0.21114 0.37421 0.0
C1714 C 0.22649 0.26179 0.37537 0.0
C1715 C 0.22914 0.20034 0.379 0.0
C1716 C 0.19791 0.30605 0.34738 0.0
C1717 C 0.20668 0.29614 0.35313 0.0
C1718 C 0.2019 0.2463 0.35281 0.0
C1719 C 0.23193 0.2322 0.37476 0.0
C1720 C 0.22298 0.24352 0.36928 0.0
C1721 C 0.1957 0.27521 0.35348 0.0
C1722 C 0.20523 0.26444 0.35894 0.0
H1723 H 0.27566 0.23949 0.38937 0.0
H1724 H 0.26091 0.25843 0.38089 0.0
H1725 H 0.20802 0.22218 0.35284 0.0
H1726 H 0.1514 0.26573 0.33851 0.0
H1727 H 0.16668 0.24841 0.34855 0.0
C1728 C 0.645 0.56025 0.73376 0.0
C1729 C 0.63062 0.54175 0.72717 0.0
C1730 C 0.66362 0.57195 0.72938 0.0
C1731 C 0.68766 0.58225 0.70078 0.0
H1732 H 0.73762 0.60081 0.72143 0.0
C1733 C 0.76192 0.61544 0.67927 0.0
C1734 C 0.77909 0.63155 0.686 0.0
C1735 C 0.74432 0.60499 0.68489 0.0
C1736 C 0.72383 0.59605 0.71559 0.0
H1737 H 0.62505 0.52083 0.71098 0.0
H1738 H 0.65713 0.54161 0.70316 0.0
H1739 H 0.70579 0.58214 0.73029 0.0
H1740 H 0.79141 0.6492 0.70398 0.0
H1741 H 0.7604 0.63135 0.71373 0.0
H1742 H 0.70536 0.59638 0.68616 0.0
C1743 C 0.65389 0.54703 0.71169 0.0
C1744 C 0.70564 0.58531 0.72067 0.0
C1745 C 0.63545 0.53521 0.71615 0.0
C1746 C 0.7784 0.6368 0.69856 0.0
C1747 C 0.76064 0.6265 0.70416 0.0
C1748 C 0.70578 0.5932 0.69576 0.0
C1749 C 0.66811 0.56551 0.71823 0.0
C1750 C 0.68742 0.57804 0.71323 0.0
C1751 C 0.7433 0.61059 0.69734 0.0
C1752 C 0.72411 0.59993 0.70302 0.0
H1753 H 0.64176 0.56591 0.74219 0.0
H1754 H 0.67435 0.58623 0.73454 0.0
H1755 H 0.67379 0.57706 0.69492 0.0
H1756 H 0.76206 0.61083 0.66963 0.0
H1757 H 0.73149 0.59247 0.67944 0.0
C1758 C 0.46694 0.0885 0.7123 0.0
C1759 C 0.47288 0.09237 0.72519 0.0
C1760 C 0.45501 0.09553 0.70695 0.0
C1761 C 0.44039 0.13388 0.71232 0.0
H1762 H 0.39584 0.09926 0.68757 0.0
C1763 C 0.38147 0.15433 0.69464 0.0
C1764 C 0.37445 0.14949 0.68189 0.0
C1765 C 0.39392 0.14778 0.69984 0.0
C1766 C 0.40838 0.10921 0.69435 0.0
H1767 H 0.47113 0.10681 0.74254 0.0
H1768 H 0.4501 0.11884 0.73322 0.0
H1769 H 0.41658 0.08683 0.69676 0.0
H1770 H 0.37543 0.13437 0.66457 0.0
H1771 H 0.39734 0.12324 0.67361 0.0
H1772 H 0.43222 0.15629 0.70989 0.0
C1773 C 0.45477 0.11049 0.72724 0.0
C1774 C 0.42024 0.10207 0.69962 0.0
C1775 C 0.46662 0.10339 0.7326 0.0
C1776 C 0.38045 0.13826 0.67444 0.0
C1777 C 0.39292 0.13176 0.67963 0.0
C1778 C 0.42855 0.14104 0.70702 0.0
C1779 C 0.44886 0.10667 0.71436 0.0
C1780 C 0.43636 0.11431 0.70868 0.0
C1781 C 0.39966 0.13629 0.69241 0.0
C1782 C 0.41239 0.12878 0.69798 0.0
H1783 H 0.4714 0.07992 0.70636 0.0
H1784 H 0.45084 0.09249 0.69698 0.0
H1785 H 0.45288 0.14378 0.71914 0.0
H1786 H 0.3771 0.16291 0.70066 0.0
H1787 H 0.39868 0.15134 0.70974 0.0
C1788 C 0.91223 0.36721 0.72048 0.0
C1789 C 0.92079 0.38304 0.71294 0.0
C1790 C 0.90349 0.34728 0.71533 0.0
C1791 C 0.88129 0.31492 0.68565 0.0
H1792 H 0.88895 0.27678 0.70356 0.0
C1793 C 0.86513 0.22846 0.67725 0.0
C1794 C 0.84527 0.21876 0.67171 0.0
C1795 C 0.87457 0.24854 0.68227 0.0
C1796 C 0.88678 0.28726 0.6984 0.0
H1797 H 0.92712 0.39032 0.69407 0.0
H1798 H 0.91185 0.35544 0.68505 0.0
H1799 H 0.90566 0.31193 0.71209 0.0
H1800 H 0.81961 0.22225 0.66715 0.0
H1801 H 0.83602 0.25731 0.67601 0.0
H1802 H 0.86264 0.2903 0.67187 0.0
C1803 C 0.91169 0.35849 0.69494 0.0
C1804 C 0.89619 0.30737 0.70335 0.0
C1805 C 0.92045 0.37846 0.7001 0.0
C1806 C 0.83496 0.22942 0.67134 0.0
C1807 C 0.8444 0.24951 0.67634 0.0
C1808 C 0.87185 0.2948 0.68071 0.0
C1809 C 0.90309 0.34267 0.7025 0.0
C1810 C 0.8935 0.32141 0.69706 0.0
C1811 C 0.86434 0.25932 0.68182 0.0
C1812 C 0.87445 0.28073 0.68704 0.0
H1813 H 0.91189 0.37019 0.73036 0.0
H1814 H 0.89668 0.33545 0.72138 0.0
H1815 H 0.87875 0.32532 0.68064 0.0
H1816 H 0.87346 0.2206 0.67761 0.0
H1817 H 0.89 0.25571 0.68629 0.0
C1818 C 0.19505 0.95228 0.63656 0.0
C1819 C 0.19797 0.94692 0.6245 0.0
C1820 C 0.20685 0.97195 0.64223 0.0
C1821 C 0.25505 0.01744 0.64298 0.0
H1822 H 0.22799 0.04611 0.65292 0.0
C1823 C 0.29874 0.10296 0.65615 0.0
C1824 C 0.29204 0.11122 0.66529 0.0
C1825 C 0.28727 0.08268 0.65162 0.0
C1826 C 0.23585 0.03829 0.65044 0.0
H1827 H 0.21597 0.95834 0.60909 0.0
H1828 H 0.23708 0.99229 0.61929 0.0
H1829 H 0.20837 0.01077 0.64477 0.0
H1830 H 0.26831 0.10485 0.67702 0.0
H1831 H 0.24864 0.06922 0.66957 0.0
H1832 H 0.28251 0.04456 0.64893 0.0
C1833 C 0.2255 0.98119 0.62425 0.0
C1834 C 0.22456 0.01806 0.64572 0.0
C1835 C 0.21346 0.96165 0.61846 0.0
C1836 C 0.27373 0.09885 0.6699 0.0
C1837 C 0.26241 0.07845 0.66555 0.0
C1838 C 0.26636 0.03755 0.64793 0.0
C1839 C 0.22211 0.98656 0.6361 0.0
C1840 C 0.23408 0.00756 0.64182 0.0
C1841 C 0.26901 0.07007 0.65632 0.0
C1842 C 0.25693 0.04836 0.65157 0.0
H1843 H 0.1836 0.94132 0.64164 0.0
H1844 H 0.20412 0.97575 0.65144 0.0
H1845 H 0.26269 0.00955 0.64012 0.0
H1846 H 0.31284 0.1122 0.65244 0.0
H1847 H 0.2927 0.07699 0.64433 0.0
C1848 C 0.01819 0.24309 0.6 0.0
C1849 C 0.03314 0.23981 0.6055 0.0
C1850 C -0.0001 0.23603 0.605 0.0
C1851 C 0.9771 0.22379 0.63381 0.0
H1852 H 0.92708 0.18837 0.61339 0.0
C1853 C 0.90323 0.18406 0.65587 0.0
C1854 C 0.88575 0.18124 0.6492 0.0
C1855 C 0.92085 0.19083 0.65017 0.0
C1856 C 0.94085 0.19852 0.61919 0.0
H1857 H 0.0402 0.22613 0.62055 0.0
H1858 H 0.0087 0.21474 0.62953 0.0
H1859 H 0.95866 0.20181 0.60409 0.0
H1860 H 0.87289 0.18314 0.63131 0.0
H1861 H 0.90385 0.19576 0.62147 0.0
H1862 H 0.9596 0.22123 0.64882 0.0
C1863 C 0.01123 0.22273 0.62131 0.0
C1864 C 0.95891 0.20611 0.61386 0.0
C1865 C 0.02934 0.22942 0.6162 0.0
C1866 C 0.88613 0.18506 0.63666 0.0
C1867 C 0.90389 0.19222 0.631 0.0
C1868 C 0.95907 0.21653 0.6391 0.0
C1869 C 0.99634 0.2259 0.61573 0.0
C1870 C 0.97717 0.21862 0.62117 0.0
C1871 C 0.92155 0.19535 0.63773 0.0
C1872 C 0.94069 0.20357 0.63191 0.0
H1873 H 0.02064 0.25131 0.5919 0.0
H1874 H 0.98865 0.23878 0.6006 0.0
H1875 H 0.99102 0.23362 0.63959 0.0
H1876 H 0.9033 0.18098 0.66552 0.0
H1877 H 0.93393 0.19248 0.65557 0.0
C1878 C 0.7517 0.77736 0.60928 0.0
C1879 C 0.74133 0.78375 0.61683 0.0
C1880 C 0.7604 0.76674 0.61407 0.0
C1881 C 0.75917 0.73655 0.6396 0.0
H1882 H 0.81293 0.75178 0.63199 0.0
C1883 C 0.82867 0.72548 0.65889 0.0
C1884 C 0.81837 0.70478 0.65997 0.0
C1885 C 0.819 0.7344 0.65297 0.0
C1886 C 0.79795 0.74741 0.63424 0.0
H1887 H 0.73154 0.78354 0.63522 0.0
H1888 H 0.74698 0.76523 0.64363 0.0
H1889 H 0.79627 0.76864 0.62311 0.0
H1890 H 0.79001 0.67705 0.6556 0.0
H1891 H 0.77312 0.69259 0.64515 0.0
H1892 H 0.76105 0.71565 0.65096 0.0
C1893 C 0.74825 0.76832 0.63399 0.0
C1894 C 0.78831 0.75691 0.62905 0.0
C1895 C 0.73958 0.77899 0.62921 0.0
C1896 C 0.7983 0.69307 0.65488 0.0
C1897 C 0.7886 0.70199 0.64899 0.0
C1898 C 0.76879 0.727 0.64476 0.0
C1899 C 0.75891 0.76223 0.6265 0.0
C1900 C 0.76886 0.75167 0.63173 0.0
C1901 C 0.79881 0.72278 0.64804 0.0
C1902 C 0.78833 0.73242 0.6422 0.0
H1903 H 0.7535 0.78096 0.59975 0.0
H1904 H 0.76833 0.76207 0.60803 0.0
H1905 H 0.74412 0.73205 0.64175 0.0
H1906 H 0.84416 0.73484 0.66275 0.0
H1907 H 0.82721 0.75049 0.65252 0.0
C1908 C 0.02933 0.79818 0.61955 0.0
C1909 C 0.03412 0.79105 0.60876 0.0
C1910 C 0.01052 0.78716 0.62376 0.0
C1911 C 0.96573 0.73595 0.62074 0.0
H1912 H 0.94263 0.76407 0.63771 0.0
C1913 C 0.88627 0.69651 0.63757 0.0
C1914 C 0.88617 0.70139 0.6503 0.0
C1915 C 0.90351 0.70741 0.63161 0.0
C1916 C 0.94894 0.75606 0.63298 0.0
H1917 H 0.02261 0.76661 0.59392 0.0
H1918 H 0.98948 0.7479 0.60091 0.0
H1919 H 0.97396 0.78318 0.62858 0.0
H1920 H 0.90381 0.72176 0.66669 0.0
H1921 H 0.93372 0.74106 0.65618 0.0
H1922 H 0.94028 0.7088 0.625 0.0
C1923 C 0.00048 0.7618 0.60631 0.0
C1924 C 0.96696 0.76697 0.62782 0.0
C1925 C 0.01944 0.77271 0.60219 0.0
C1926 C 0.90347 0.71759 0.65689 0.0
C1927 C 0.92054 0.7287 0.65087 0.0
C1928 C 0.94751 0.72503 0.62572 0.0
C1929 C 0.99579 0.76885 0.61719 0.0
C1930 C 0.97582 0.7571 0.62184 0.0
C1931 C 0.92076 0.72361 0.63822 0.0
C1932 C 0.93916 0.73502 0.63207 0.0
H1933 H 0.04006 0.8124 0.62475 0.0
H1934 H 0.00767 0.79296 0.63229 0.0
H1935 H 0.97217 0.7278 0.61637 0.0
H1936 H 0.87317 0.68407 0.63226 0.0
H1937 H 0.90333 0.70327 0.62182 0.0
C1938 C 0.19771 0.22868 0.60157 0.0
C1939 C 0.19157 0.23974 0.60904 0.0
C1940 C 0.2096 0.22156 0.60684 0.0
C1941 C 0.24446 0.23006 0.63427 0.0
H1942 H 0.23262 0.17593 0.62386 0.0
C1943 C 0.28473 0.19405 0.65909 0.0
C1944 C 0.29075 0.18293 0.65156 0.0
C1945 C 0.27216 0.2005 0.65398 0.0
C1946 C 0.23625 0.19115 0.62677 0.0
H1947 H 0.19323 0.25218 0.6279 0.0
H1948 H 0.21385 0.23956 0.63715 0.0
H1949 H 0.21172 0.18833 0.6148 0.0
H1950 H 0.28804 0.16961 0.63276 0.0
H1951 H 0.26627 0.18107 0.62382 0.0
H1952 H 0.26906 0.23296 0.64617 0.0
C1953 C 0.20957 0.23652 0.62718 0.0
C1954 C 0.22427 0.19825 0.62159 0.0
C1955 C 0.19762 0.24358 0.62191 0.0
C1956 C 0.28366 0.17812 0.63883 0.0
C1957 C 0.2711 0.18461 0.63371 0.0
C1958 C 0.25646 0.22298 0.63943 0.0
C1959 C 0.21564 0.22538 0.6197 0.0
C1960 C 0.22826 0.21779 0.62528 0.0
C1961 C 0.26534 0.196 0.64122 0.0
C1962 C 0.25249 0.20345 0.63574 0.0
H1963 H 0.1931 0.22526 0.59164 0.0
H1964 H 0.2142 0.21321 0.60081 0.0
H1965 H 0.24809 0.24529 0.63717 0.0
H1966 H 0.28979 0.19791 0.66895 0.0
H1967 H 0.26773 0.20894 0.66006 0.0
C1968 C 0.73088 0.95407 0.62286 0.0
C1969 C 0.74165 0.94384 0.62354 0.0
C1970 C 0.7396 0.97403 0.628 0.0
C1971 C 0.78109 0.01269 0.65036 0.0
H1972 H 0.77396 0.05001 0.63122 0.0
C1973 C 0.82825 0.09841 0.66298 0.0
C1974 C 0.81811 0.10921 0.6624 0.0
C1975 C 0.81861 0.07817 0.65826 0.0
C1976 C 0.77591 0.03973 0.63674 0.0
H1977 H 0.77002 0.94659 0.63014 0.0
H1978 H 0.78519 0.98135 0.63911 0.0
H1979 H 0.75732 0.01457 0.62329 0.0
H1980 H 0.79006 0.10755 0.65634 0.0
H1981 H 0.77315 0.07217 0.64813 0.0
H1982 H 0.7998 0.03788 0.66377 0.0
C1983 C 0.7699 0.97387 0.63478 0.0
C1984 C 0.76635 0.01942 0.63221 0.0
C1985 C 0.76119 0.95392 0.62965 0.0
C1986 C 0.79824 0.09955 0.65687 0.0
C1987 C 0.7886 0.07933 0.65213 0.0
C1988 C 0.79067 0.03299 0.65488 0.0
C1989 C 0.75928 0.98421 0.63393 0.0
C1990 C 0.7689 0.00568 0.63894 0.0
C1991 C 0.79863 0.06837 0.65285 0.0
C1992 C 0.78826 0.04676 0.64809 0.0
H1993 H 0.7157 0.94663 0.61836 0.0
H1994 H 0.7309 0.98148 0.62737 0.0
H1995 H 0.78311 0.00244 0.65587 0.0
H1996 H 0.84361 0.10554 0.66715 0.0
H1997 H 0.82683 0.07023 0.65879 0.0
C1998 C 0.47056 0.37933 0.69911 0.0
C1999 C 0.46765 0.38426 0.71128 0.0
C2000 C 0.45872 0.35983 0.69318 0.0
C2001 C 0.41045 0.31441 0.69184 0.0
H2002 H 0.43736 0.28575 0.68154 0.0
C2003 C 0.36636 0.2292 0.67749 0.0
C2004 C 0.37321 0.22111 0.66834 0.0
C2005 C 0.37786 0.24936 0.68226 0.0
C2006 C 0.42954 0.29358 0.68411 0.0
H2007 H 0.44962 0.37225 0.7266 0.0
H2008 H 0.42843 0.33861 0.71595 0.0
H2009 H 0.45707 0.32086 0.69017 0.0
H2010 H 0.39723 0.2277 0.65681 0.0
H2011 H 0.41696 0.26317 0.66466 0.0
H2012 H 0.38296 0.28757 0.6855 0.0
C2013 C 0.44004 0.34992 0.71112 0.0
C2014 C 0.44088 0.31367 0.68911 0.0
C2015 C 0.45213 0.36927 0.71716 0.0
C2016 C 0.39169 0.23356 0.66394 0.0
C2017 C 0.40304 0.25387 0.66852 0.0
C2018 C 0.3991 0.29446 0.68661 0.0
C2019 C 0.44343 0.34497 0.69916 0.0
C2020 C 0.43142 0.32415 0.69316 0.0
C2021 C 0.39631 0.26205 0.67778 0.0
C2022 C 0.40847 0.28365 0.68282 0.0
H2023 H 0.48202 0.39049 0.69413 0.0
H2024 H 0.46145 0.35636 0.68389 0.0
H2025 H 0.40286 0.3223 0.69482 0.0
H2026 H 0.35213 0.2199 0.68103 0.0
H2027 H 0.37232 0.25488 0.68956 0.0
C2028 C 0.64996 0.1024 0.73736 0.0
C2029 C 0.63183 0.09166 0.72959 0.0
C2030 C 0.66828 0.10946 0.73238 0.0
C2031 C 0.69054 0.12299 0.70285 0.0
H2032 H 0.73425 0.11893 0.71913 0.0
C2033 C 0.75921 0.137 0.67816 0.0
C2034 C 0.77817 0.14748 0.68504 0.0
C2035 C 0.74188 0.13105 0.68406 0.0
C2036 C 0.72228 0.12043 0.71457 0.0
H2037 H 0.6187 0.07919 0.7106 0.0
H2038 H 0.6506 0.09154 0.70194 0.0
H2039 H 0.70287 0.10638 0.72861 0.0
H2040 H 0.79377 0.16002 0.70356 0.0
H2041 H 0.76341 0.14974 0.71387 0.0
H2042 H 0.70982 0.13697 0.6888 0.0
C2043 C 0.65068 0.09483 0.71183 0.0
C2044 C 0.70431 0.11321 0.71998 0.0
C2045 C 0.6324 0.08775 0.7168 0.0
C2046 C 0.7794 0.15196 0.69798 0.0
C2047 C 0.76201 0.14597 0.70391 0.0
C2048 C 0.70848 0.13022 0.69746 0.0
C2049 C 0.66882 0.10597 0.71954 0.0
C2050 C 0.68817 0.11421 0.7141 0.0
C2051 C 0.74306 0.13545 0.697 0.0
C2052 C 0.72447 0.12881 0.70317 0.0
H2053 H 0.65003 0.10585 0.74723 0.0
H2054 H 0.68201 0.11814 0.73854 0.0
H2055 H 0.67853 0.12437 0.69823 0.0
H2056 H 0.75766 0.13322 0.66819 0.0
H2057 H 0.72751 0.12268 0.6785 0.0
C2058 C 0.9033 0.53392 0.70891 0.0
C2059 C 0.92272 0.54388 0.71518 0.0
C2060 C 0.89492 0.5448 0.70414 0.0
C2061 C 0.89921 0.59479 0.70713 0.0
H2062 H 0.86647 0.57503 0.6753 0.0
C2063 C 0.86728 0.63855 0.68146 0.0
C2064 C 0.84737 0.6271 0.67604 0.0
C2065 C 0.87706 0.62912 0.6866 0.0
C2066 C 0.87543 0.58064 0.68425 0.0
H2067 H 0.94866 0.57307 0.72128 0.0
H2068 H 0.93406 0.59216 0.7128 0.0
H2069 H 0.88289 0.55743 0.68326 0.0
H2070 H 0.82186 0.59698 0.67203 0.0
H2071 H 0.8389 0.58052 0.68098 0.0
H2072 H 0.89174 0.6181 0.70802 0.0
C2073 C 0.92521 0.57591 0.71175 0.0
C2074 C 0.88483 0.57055 0.68882 0.0
C2075 C 0.93359 0.56499 0.71658 0.0
C2076 C 0.83726 0.60615 0.67608 0.0
C2077 C 0.84705 0.59673 0.68114 0.0
C2078 C 0.88985 0.60496 0.70251 0.0
C2079 C 0.90576 0.56592 0.70547 0.0
C2080 C 0.89664 0.57735 0.70038 0.0
C2081 C 0.86712 0.60807 0.68631 0.0
C2082 C 0.87768 0.59783 0.69109 0.0
H2083 H 0.89439 0.51768 0.70791 0.0
H2084 H 0.87975 0.53662 0.69959 0.0
H2085 H 0.90802 0.6003 0.71612 0.0
H2086 H 0.87542 0.65474 0.68152 0.0
H2087 H 0.89256 0.63823 0.69046 0.0
C2088 C 0.4576 0.96499 0.17705 0.0
C2089 C 0.47314 0.97298 0.18684 0.0
C2090 C 0.46143 0.97119 0.16513 0.0
C2091 C 0.50256 0.99157 0.14544 0.0
H2092 H 0.46694 0.00116 0.12388 0.0
C2093 C 0.5229 0.01895 0.09737 0.0
C2094 C 0.5076 0.01024 0.08742 0.0
C2095 C 0.51843 0.01573 0.10963 0.0
C2096 C 0.47693 0.99833 0.12975 0.0
H2097 H 0.5046 0.99463 0.192 0.0
H2098 H 0.51128 0.00532 0.1712 0.0
H2099 H 0.45944 0.99342 0.14518 0.0
H2100 H 0.47549 0.9917 0.08264 0.0
H2101 H 0.46776 0.98555 0.10402 0.0
H2102 H 0.51982 0.996 0.13005 0.0
C2103 C 0.49622 0.99401 0.17269 0.0
C2104 C 0.47265 0.99395 0.14195 0.0
C2105 C 0.49239 0.98788 0.18459 0.0
C2106 C 0.48767 0.99843 0.09006 0.0
C2107 C 0.48321 0.99512 0.10234 0.0
C2108 C 0.50677 0.99582 0.13327 0.0
C2109 C 0.48088 0.98545 0.16278 0.0
C2110 C 0.48546 0.99056 0.14992 0.0
C2111 C 0.49857 0.00359 0.11226 0.0
C2112 C 0.49404 0.99929 0.12527 0.0
H2113 H 0.44265 0.95335 0.17845 0.0
H2114 H 0.44934 0.96421 0.15765 0.0
H2115 H 0.51249 0.98862 0.15128 0.0
H2116 H 0.53844 0.02794 0.09569 0.0
H2117 H 0.53061 0.02273 0.11706 0.0
C2118 C 0.02807 0.52054 0.18645 0.0
C2119 C 0.01708 0.50377 0.19292 0.0
C2120 C 0.02552 0.51886 0.17346 0.0
C2121 C 0.98992 0.48843 0.14632 0.0
H2122 H 0.03645 0.51569 0.12822 0.0
C2123 C 0.98483 0.50456 0.09524 0.0
C2124 C 0.99755 0.50247 0.08729 0.0
C2125 C 0.98668 0.50265 0.10794 0.0
C2126 C 0.02332 0.50781 0.13311 0.0
H2127 H 0.99467 0.47209 0.19084 0.0
H2128 H 0.99027 0.46912 0.16806 0.0
H2129 H 0.04091 0.51618 0.15079 0.0
H2130 H 0.02182 0.49614 0.08645 0.0
H2131 H 0.02518 0.49302 0.10869 0.0
H2132 H 0.97233 0.48013 0.12863 0.0
C2133 C 0.0008 0.48359 0.17308 0.0
C2134 C 0.02586 0.50827 0.14605 0.0
C2135 C 0.00343 0.48525 0.1861 0.0
C2136 C 0.012 0.49815 0.09234 0.0
C2137 C 0.0139 0.49632 0.10507 0.0
C2138 C 0.98737 0.48804 0.13337 0.0
C2139 C 0.01189 0.50038 0.16663 0.0
C2140 C 0.00918 0.4988 0.15281 0.0
C2141 C 0.00135 0.4987 0.11302 0.0
C2142 C 0.00404 0.49791 0.12665 0.0
H2143 H 0.03888 0.53495 0.19143 0.0
H2144 H 0.0341 0.53212 0.16876 0.0
H2145 H 0.97677 0.48109 0.15128 0.0
H2146 H 0.97377 0.50823 0.09172 0.0
H2147 H 0.977 0.50489 0.11386 0.0
C2148 C 0.49509 0.52421 0.18325 0.0
C2149 C 0.48054 0.507 0.18813 0.0
C2150 C 0.49869 0.52344 0.1708 0.0
C2151 C 0.47537 0.49635 0.14012 0.0
H2152 H 0.53003 0.52172 0.1316 0.0
C2153 C 0.49404 0.49497 0.08914 0.0
C2154 C 0.51008 0.51272 0.08571 0.0
C2155 C 0.49039 0.49292 0.10163 0.0
C2156 C 0.51467 0.51475 0.1338 0.0
H2157 H 0.45844 0.4754 0.18365 0.0
H2158 H 0.46449 0.47423 0.16176 0.0
H2159 H 0.5237 0.52057 0.15342 0.0
H2160 H 0.535 0.5421 0.09282 0.0
H2161 H 0.52819 0.53884 0.11445 0.0
H2162 H 0.4663 0.49104 0.12052 0.0
C2163 C 0.47307 0.48829 0.16766 0.0
C2164 C 0.51107 0.51404 0.1463 0.0
C2165 C 0.46958 0.489 0.18018 0.0
C2166 C 0.52235 0.52834 0.09508 0.0
C2167 C 0.51863 0.52633 0.10754 0.0
C2168 C 0.47897 0.49722 0.12759 0.0
C2169 C 0.48771 0.50551 0.16287 0.0
C2170 C 0.4914 0.50503 0.14959 0.0
C2171 C 0.50263 0.50859 0.11099 0.0
C2172 C 0.49869 0.50665 0.12428 0.0
H2173 H 0.50349 0.53846 0.18899 0.0
H2174 H 0.50982 0.53704 0.1673 0.0
H2175 H 0.46005 0.48949 0.1424 0.0
H2176 H 0.48415 0.48272 0.08216 0.0
H2177 H 0.47805 0.47897 0.10396 0.0
C2178 C 0.99282 0.51228 0.81599 0.0
C2179 C 0.97803 0.4946 0.80889 0.0
C2180 C 0.99512 0.51321 0.829 0.0
C2181 C 0.98265 0.48008 0.85446 0.0
H2182 H 0.99542 0.52835 0.87546 0.0
C2183 C 0.97959 0.48076 0.90744 0.0
C2184 C 0.99643 0.49635 0.91477 0.0
C2185 C 0.97704 0.48138 0.89461 0.0
C2186 C 0.99197 0.51482 0.86969 0.0
H2187 H 0.95355 0.46436 0.80981 0.0
H2188 H 0.95726 0.46605 0.83242 0.0
H2189 H 0.99171 0.52786 0.85279 0.0
H2190 H 0.02335 0.52521 0.91453 0.0
H2191 H 0.01883 0.52634 0.89205 0.0
H2192 H 0.98265 0.46697 0.87134 0.0
C2193 C 0.96752 0.47902 0.828 0.0
C2194 C 0.98992 0.51455 0.85672 0.0
C2195 C 0.96535 0.47805 0.81504 0.0
C2196 C 0.01032 0.51291 0.90908 0.0
C2197 C 0.00766 0.51363 0.89625 0.0
C2198 C 0.98452 0.4803 0.8674 0.0
C2199 C 0.98256 0.49652 0.83515 0.0
C2200 C 0.98515 0.49713 0.84895 0.0
C2201 C 0.99118 0.4977 0.88886 0.0
C2202 C 0.98913 0.49763 0.87514 0.0
H2203 H 0.00286 0.52523 0.81147 0.0
H2204 H 0.00699 0.52685 0.83421 0.0
H2205 H 0.97944 0.46656 0.84879 0.0
H2206 H 0.96872 0.46775 0.91157 0.0
H2207 H 0.96408 0.469 0.88915 0.0
C2208 C 0.52381 0.50332 0.81889 0.0
C2209 C 0.51664 0.48499 0.81148 0.0
C2210 C 0.52054 0.50358 0.83147 0.0
C2211 C 0.48765 0.4717 0.85384 0.0
H2212 H 0.5303 0.50916 0.87886 0.0
C2213 C 0.48136 0.46398 0.90613 0.0
C2214 C 0.48798 0.48161 0.91415 0.0
C2215 C 0.48535 0.465 0.89369 0.0
C2216 C 0.51818 0.49877 0.87197 0.0
H2217 H 0.50087 0.45259 0.81157 0.0
H2218 H 0.49512 0.45305 0.83343 0.0
H2219 H 0.53615 0.51 0.85689 0.0
H2220 H 0.50414 0.51416 0.91543 0.0
H2221 H 0.5111 0.51595 0.89366 0.0
H2222 H 0.46967 0.46043 0.86886 0.0
C2223 C 0.50295 0.46721 0.82948 0.0
C2224 C 0.52152 0.49925 0.85939 0.0
C2225 C 0.50623 0.46696 0.81694 0.0
C2226 C 0.49902 0.50031 0.90951 0.0
C2227 C 0.503 0.50134 0.89705 0.0
C2228 C 0.48431 0.47123 0.86639 0.0
C2229 C 0.51001 0.48551 0.83688 0.0
C2230 C 0.50634 0.4856 0.8502 0.0
C2231 C 0.49603 0.48368 0.88897 0.0
C2232 C 0.49957 0.48463 0.87561 0.0
H2233 H 0.53171 0.51746 0.81492 0.0
H2234 H 0.52598 0.51791 0.8369 0.0
H2235 H 0.47552 0.46124 0.84697 0.0
H2236 H 0.47315 0.44935 0.90948 0.0
H2237 H 0.48013 0.45113 0.88778 0.0
C2238 C 0.51439 0.04368 0.82388 0.0
C2239 C 0.52423 0.03613 0.81673 0.0
C2240 C 0.5113 0.03933 0.83616 0.0
C2241 C 0.52912 0.02337 0.86306 0.0
H2242 H 0.47699 0.00874 0.87359 0.0
C2243 C 0.50538 0.99553 0.91125 0.0
C2244 C 0.49391 0.00235 0.91722 0.0
C2245 C 0.50984 -0.00036 0.89904 0.0
C2246 C 0.4917 0.01303 0.87085 0.0
H2247 H 0.53874 0.01826 0.81693 0.0
H2248 H 0.53338 0.01073 0.8385 0.0
H2249 H 0.48333 0.01576 0.85217 0.0
H2250 H 0.47893 0.0196 0.91533 0.0
H2251 H 0.48682 0.02693 0.89413 0.0
H2252 H 0.53751 0.02076 0.88182 0.0
C2253 C 0.52818 0.02011 0.83457 0.0
C2254 C 0.49532 0.01702 0.85857 0.0
C2255 C 0.53124 0.02442 0.82223 0.0
C2256 C 0.48745 0.0138 0.91088 0.0
C2257 C 0.49195 0.01797 0.89873 0.0
C2258 C 0.52551 0.01942 0.8754 0.0
C2259 C 0.51801 0.02738 0.84161 0.0
C2260 C 0.51411 0.02241 0.85456 0.0
C2261 C 0.50296 0.01072 0.8926 0.0
C2262 C 0.50681 0.01439 0.87945 0.0
H2263 H 0.50922 0.05313 0.82002 0.0
H2264 H 0.50377 0.04549 0.84143 0.0
H2265 H 0.5438 0.02765 0.86026 0.0
H2266 H 0.51042 0.98653 0.91588 0.0
H2267 H 0.5182 0.9937 0.89455 0.0
C2268 C 0.12516 0.29112 0.50867 0.0
C2269 C 0.14104 0.29935 0.51826 0.0
C2270 C 0.12865 0.29629 0.49652 0.0
C2271 C 0.16881 0.31501 0.47591 0.0
H2272 H 0.13349 0.32624 0.4553 0.0
C2273 C 0.1891 0.34627 0.42871 0.0
C2274 C 0.17379 0.33866 0.41879 0.0
C2275 C 0.18464 0.34149 0.44079 0.0
C2276 C 0.14336 0.3229 0.46089 0.0
H2277 H 0.17287 0.32015 0.52272 0.0
H2278 H 0.17896 0.32905 0.50153 0.0
H2279 H 0.12645 0.31813 0.47659 0.0
H2280 H 0.14173 0.32019 0.41383 0.0
H2281 H 0.13398 0.31143 0.43491 0.0
H2282 H 0.18563 0.31957 0.46026 0.0
C2283 C 0.16388 0.31834 0.50337 0.0
C2284 C 0.13934 0.3183 0.47308 0.0
C2285 C 0.16038 0.31323 0.51549 0.0
C2286 C 0.15389 0.32614 0.42124 0.0
C2287 C 0.14943 0.32131 0.43335 0.0
C2288 C 0.17278 0.31952 0.46374 0.0
C2289 C 0.1481 0.30975 0.49372 0.0
C2290 C 0.15211 0.31443 0.48074 0.0
C2291 C 0.16477 0.3289 0.44325 0.0
C2292 C 0.16018 0.32365 0.4561 0.0
H2293 H 0.11013 0.28022 0.51046 0.0
H2294 H 0.11623 0.2893 0.48925 0.0
H2295 H 0.1787 0.31171 0.48151 0.0
H2296 H 0.20462 0.35575 0.42713 0.0
H2297 H 0.19679 0.34779 0.44822 0.0
C2298 C 0.69069 0.85263 0.51958 0.0
C2299 C 0.68148 0.83503 0.5256 0.0
C2300 C 0.68832 0.8517 0.50662 0.0
C2301 C 0.65598 0.81973 0.47856 0.0
H2302 H 0.70221 0.85404 0.46179 0.0
C2303 C 0.64991 0.8347 0.42724 0.0
C2304 C 0.6649 0.83625 0.4199 0.0
C2305 C 0.65155 0.83291 0.43998 0.0
C2306 C 0.68919 0.84419 0.46631 0.0
H2307 H 0.66228 0.80265 0.5227 0.0
H2308 H 0.65836 0.80099 0.49998 0.0
H2309 H 0.70585 0.85398 0.48432 0.0
H2310 H 0.69302 0.83645 0.42009 0.0
H2311 H 0.69587 0.8333 0.44235 0.0
H2312 H 0.63937 0.80982 0.4605 0.0
C2313 C 0.6673 0.81553 0.50534 0.0
C2314 C 0.69123 0.84435 0.47924 0.0
C2315 C 0.66969 0.81646 0.51834 0.0
C2316 C 0.68138 0.83559 0.42554 0.0
C2317 C 0.68301 0.83379 0.43828 0.0
C2318 C 0.65393 0.81958 0.46561 0.0
C2319 C 0.67672 0.83314 0.49934 0.0
C2320 C 0.67461 0.83228 0.48553 0.0
C2321 C 0.66821 0.83262 0.44567 0.0
C2322 C 0.67049 0.83194 0.45935 0.0
H2323 H 0.70008 0.86715 0.52488 0.0
H2324 H 0.69555 0.86557 0.50229 0.0
H2325 H 0.64287 0.81034 0.48315 0.0
H2326 H 0.63717 0.83545 0.42322 0.0
H2327 H 0.64004 0.83236 0.44544 0.0
C2328 C 0.15536 0.86133 0.51884 0.0
C2329 C 0.14894 0.8441 0.52514 0.0
C2330 C 0.15833 0.86072 0.50626 0.0
C2331 C 0.14554 0.82572 0.47776 0.0
H2332 H 0.18997 0.87215 0.46616 0.0
C2333 C 0.16982 0.8271 0.42788 0.0
C2334 C 0.17391 0.84424 0.42191 0.0
C2335 C 0.16636 0.82637 0.44043 0.0
C2336 C 0.17741 0.85914 0.46925 0.0
H2337 H 0.14065 0.81271 0.52323 0.0
H2338 H 0.14617 0.81169 0.50123 0.0
H2339 H 0.18514 0.87207 0.48821 0.0
H2340 H 0.17761 0.87404 0.42439 0.0
H2341 H 0.17162 0.87278 0.44633 0.0
H2342 H 0.13807 0.81275 0.45873 0.0
C2343 C 0.14858 0.82561 0.50598 0.0
C2344 C 0.1746 0.85909 0.48188 0.0
C2345 C 0.14546 0.82619 0.51858 0.0
C2346 C 0.17433 0.86057 0.42872 0.0
C2347 C 0.17109 0.85993 0.44129 0.0
C2348 C 0.14847 0.82571 0.46512 0.0
C2349 C 0.1551 0.8429 0.49967 0.0
C2350 C 0.1585 0.84248 0.48628 0.0
C2351 C 0.16718 0.84287 0.44729 0.0
C2352 C 0.16432 0.84251 0.46073 0.0
H2353 H 0.1578 0.87525 0.5236 0.0
H2354 H 0.16291 0.8742 0.50165 0.0
H2355 H 0.13285 0.81278 0.4808 0.0
H2356 H 0.16927 0.81425 0.42282 0.0
H2357 H 0.16347 0.81308 0.44484 0.0
C2358 C 0.65829 0.84251 0.14782 0.0
C2359 C 0.64534 0.82422 0.14054 0.0
C2360 C 0.66129 0.84316 0.16077 0.0
C2361 C 0.6557 0.81059 0.18581 0.0
H2362 H 0.65708 0.85358 0.20719 0.0
C2363 C 0.64925 0.80644 0.23835 0.0
C2364 C 0.66254 0.82375 0.24635 0.0
C2365 C 0.64763 0.80721 0.22549 0.0
C2366 C 0.65693 0.84159 0.20133 0.0
H2367 H 0.62506 0.79237 0.1412 0.0
H2368 H 0.63022 0.7935 0.16371 0.0
H2369 H 0.6538 0.85369 0.18457 0.0
H2370 H 0.68416 0.85556 0.24717 0.0
H2371 H 0.68139 0.85688 0.22463 0.0
H2372 H 0.65859 0.79837 0.20254 0.0
C2373 C 0.63841 0.80728 0.15942 0.0
C2374 C 0.6551 0.84167 0.18838 0.0
C2375 C 0.63545 0.80663 0.1465 0.0
C2376 C 0.67391 0.84194 0.24122 0.0
C2377 C 0.67221 0.84274 0.22834 0.0
C2378 C 0.65746 0.81047 0.19873 0.0
C2379 C 0.65137 0.82553 0.16671 0.0
C2380 C 0.65428 0.82606 0.18048 0.0
C2381 C 0.65921 0.82532 0.22033 0.0
C2382 C 0.65791 0.82587 0.20663 0.0
H2383 H 0.66626 0.85629 0.14348 0.0
H2384 H 0.67155 0.85742 0.16611 0.0
H2385 H 0.65552 0.79855 0.18 0.0
H2386 H 0.64043 0.79216 0.24201 0.0
H2387 H 0.6373 0.7936 0.21957 0.0
C2388 C 0.19579 0.84326 0.15508 0.0
C2389 C 0.18869 0.82482 0.14782 0.0
C2390 C 0.19259 0.84374 0.16768 0.0
C2391 C 0.15963 0.81203 0.19005 0.0
H2392 H 0.20179 0.84975 0.21523 0.0
C2393 C 0.1527 0.80366 0.24214 0.0
C2394 C 0.1588 0.82111 0.25022 0.0
C2395 C 0.157 0.80498 0.22977 0.0
C2396 C 0.1898 0.83928 0.20829 0.0
H2397 H 0.17337 0.79249 0.14821 0.0
H2398 H 0.16777 0.79332 0.17007 0.0
H2399 H 0.20797 0.85066 0.1933 0.0
H2400 H 0.17448 0.85367 0.25169 0.0
H2401 H 0.182 0.85597 0.23001 0.0
H2402 H 0.14146 0.8006 0.20496 0.0
C2403 C 0.17542 0.8074 0.166 0.0
C2404 C 0.19334 0.83981 0.19574 0.0
C2405 C 0.17862 0.80692 0.15346 0.0
C2406 C 0.16972 0.83996 0.24572 0.0
C2407 C 0.17402 0.84127 0.23331 0.0
C2408 C 0.1561 0.81151 0.20256 0.0
C2409 C 0.18223 0.82578 0.17324 0.0
C2410 C 0.17835 0.82603 0.18651 0.0
C2411 C 0.16749 0.82378 0.22516 0.0
C2412 C 0.1712 0.82497 0.21184 0.0
H2413 H 0.20348 0.8573 0.15098 0.0
H2414 H 0.19789 0.85813 0.173 0.0
H2415 H 0.14763 0.80149 0.18314 0.0
H2416 H 0.14461 0.78894 0.24539 0.0
H2417 H 0.15213 0.79123 0.2238 0.0
C2418 C 0.17166 0.34482 0.15126 0.0
C2419 C 0.19103 0.35915 0.14881 0.0
C2420 C 0.16803 0.33853 0.16314 0.0
C2421 C 0.19198 0.33687 0.19328 0.0
H2422 H 0.14633 0.33673 0.2063 0.0
C2423 C 0.17874 0.3323 0.24547 0.0
C2424 C 0.15886 0.32121 0.24836 0.0
C2425 C 0.18288 0.3355 0.23314 0.0
C2426 C 0.15895 0.33636 0.20277 0.0
H2427 H 0.22191 0.37762 0.15682 0.0
H2428 H 0.21556 0.36652 0.1776 0.0
H2429 H 0.15315 0.34438 0.18505 0.0
H2430 H 0.12777 0.3046 0.24046 0.0
H2431 H 0.13501 0.30958 0.219 0.0
H2432 H 0.19777 0.32887 0.21106 0.0
C2433 C 0.20322 0.36009 0.17028 0.0
C2434 C 0.16287 0.34078 0.19058 0.0
C2435 C 0.20685 0.36643 0.15838 0.0
C2436 C 0.14327 0.31301 0.23859 0.0
C2437 C 0.14741 0.31612 0.22628 0.0
C2438 C 0.18799 0.33234 0.2055 0.0
C2439 C 0.1837 0.34638 0.17284 0.0
C2440 C 0.17943 0.34111 0.1857 0.0
C2441 C 0.16724 0.32764 0.22341 0.0
C2442 C 0.17143 0.33206 0.21038 0.0
H2443 H 0.15923 0.3386 0.14401 0.0
H2444 H 0.1529 0.32765 0.16477 0.0
H2445 H 0.20477 0.33688 0.18973 0.0
H2446 H 0.19113 0.3386 0.25275 0.0
H2447 H 0.19832 0.34457 0.23127 0.0
C2448 C 0.79226 0.63349 0.84349 0.0
C2449 C 0.80783 0.64073 0.85323 0.0
C2450 C 0.79618 0.64012 0.83168 0.0
C2451 C 0.83711 0.66039 0.81182 0.0
H2452 H 0.80176 0.67135 0.79103 0.0
C2453 C 0.85645 0.68804 0.76365 0.0
C2454 C 0.84084 0.67964 0.75389 0.0
C2455 C 0.85237 0.68483 0.77597 0.0
C2456 C 0.81168 0.66815 0.79669 0.0
H2457 H 0.8395 0.66148 0.8584 0.0
H2458 H 0.84634 0.67295 0.83778 0.0
H2459 H 0.79465 0.66334 0.81234 0.0
H2460 H 0.80861 0.66166 0.7495 0.0
H2461 H 0.80154 0.65553 0.77098 0.0
H2462 H 0.85391 0.66472 0.79619 0.0
C2463 C 0.83117 0.66189 0.83923 0.0
C2464 C 0.80763 0.66362 0.80889 0.0
C2465 C 0.82725 0.65531 0.85103 0.0
C2466 C 0.82101 0.66814 0.75678 0.0
C2467 C 0.81694 0.66485 0.76911 0.0
C2468 C 0.8411 0.66481 0.79964 0.0
C2469 C 0.81576 0.65409 0.82937 0.0
C2470 C 0.8203 0.65966 0.81657 0.0
C2471 C 0.83259 0.67301 0.77885 0.0
C2472 C 0.82843 0.66872 0.7919 0.0
H2473 H 0.77718 0.62208 0.84483 0.0
H2474 H 0.78403 0.6337 0.82425 0.0
H2475 H 0.84695 0.65703 0.81743 0.0
H2476 H 0.87192 0.69678 0.76178 0.0
H2477 H 0.86477 0.69158 0.78325 0.0
C2478 C 0.34172 0.15064 0.85243 0.0
C2479 C 0.35111 0.16933 0.85971 0.0
C2480 C 0.33965 0.1496 0.83941 0.0
C2481 C 0.36134 0.1806 0.81363 0.0
H2482 H 0.31298 0.13954 0.79385 0.0
C2483 C 0.35563 0.17314 0.76007 0.0
C2484 C 0.33765 0.16982 0.7538 0.0
C2485 C 0.357 0.17124 0.77282 0.0
C2486 C 0.32655 0.15116 0.79925 0.0
H2487 H 0.36563 0.20158 0.85897 0.0
H2488 H 0.36142 0.19972 0.8364 0.0
H2489 H 0.31549 0.14034 0.81652 0.0
H2490 H 0.30693 0.16168 0.7559 0.0
H2491 H 0.30936 0.15865 0.77817 0.0
H2492 H 0.37216 0.19191 0.79647 0.0
C2493 C 0.35595 0.18586 0.84071 0.0
C2494 C 0.32807 0.15148 0.81223 0.0
C2495 C 0.35808 0.18691 0.85368 0.0
C2496 C 0.32092 0.1641 0.76046 0.0
C2497 C 0.32232 0.16233 0.77322 0.0
C2498 C 0.3598 0.18033 0.80068 0.0
C2499 C 0.34692 0.16722 0.8334 0.0
C2500 C 0.34543 0.16633 0.81958 0.0
C2501 C 0.34044 0.16613 0.77959 0.0
C2502 C 0.34234 0.1657 0.79333 0.0
H2503 H 0.33601 0.1368 0.85677 0.0
H2504 H 0.33273 0.135 0.83406 0.0
H2505 H 0.37506 0.19206 0.81898 0.0
H2506 H 0.36868 0.17728 0.75513 0.0
H2507 H 0.37107 0.17389 0.77737 0.0
C2508 C 0.80694 0.15602 0.8486 0.0
C2509 C 0.80908 0.17368 0.85471 0.0
C2510 C 0.80979 0.15501 0.83597 0.0
C2511 C 0.83375 0.18818 0.81139 0.0
H2512 H 0.80087 0.13989 0.78879 0.0
C2513 C 0.83549 0.18782 0.75833 0.0
C2514 C 0.83732 0.17235 0.75218 0.0
C2515 C 0.83132 0.18714 0.77073 0.0
C2516 C 0.81024 0.15342 0.79503 0.0
H2517 H 0.8149 0.20373 0.8523 0.0
H2518 H 0.81944 0.20188 0.8303 0.0
H2519 H 0.79481 0.14018 0.81073 0.0
H2520 H 0.83559 0.14372 0.75402 0.0
H2521 H 0.82819 0.14249 0.77576 0.0
H2522 H 0.84895 0.20149 0.79568 0.0
C2523 C 0.81622 0.18902 0.83529 0.0
C2524 C 0.80683 0.15358 0.80759 0.0
C2525 C 0.81355 0.19007 0.84789 0.0
C2526 C 0.83442 0.15593 0.75858 0.0
C2527 C 0.83004 0.15515 0.77096 0.0
C2528 C 0.83702 0.18806 0.79885 0.0
C2529 C 0.81467 0.1716 0.8292 0.0
C2530 C 0.81847 0.17103 0.8159 0.0
C2531 C 0.82871 0.17089 0.7772 0.0
C2532 C 0.82524 0.17073 0.79053 0.0
H2533 H 0.80358 0.1432 0.85368 0.0
H2534 H 0.80864 0.14142 0.8316 0.0
H2535 H 0.84333 0.20172 0.81758 0.0
H2536 H 0.83779 0.20072 0.75365 0.0
H2537 H 0.83018 0.19938 0.77528 0.0
C2538 C 0.3307 0.18325 0.48093 0.0
C2539 C 0.32211 0.16491 0.47331 0.0
C2540 C 0.33358 0.1838 0.49388 0.0
C2541 C 0.33745 0.15491 0.5188 0.0
H2542 H 0.31902 0.18422 0.53928 0.0
C2543 C 0.32482 0.14169 0.57001 0.0
C2544 C 0.33009 0.15829 0.57869 0.0
C2545 C 0.32518 0.1437 0.55727 0.0
C2546 C 0.32453 0.17621 0.53372 0.0
H2547 H 0.30987 0.13277 0.47341 0.0
H2548 H 0.31523 0.13382 0.4959 0.0
H2549 H 0.31806 0.18593 0.51679 0.0
H2550 H 0.33969 0.19005 0.58072 0.0
H2551 H 0.34078 0.19367 0.55846 0.0
H2552 H 0.34389 0.14513 0.53567 0.0
C2553 C 0.31991 0.14779 0.49185 0.0
C2554 C 0.32397 0.17719 0.52084 0.0
C2555 C 0.3169 0.14722 0.47893 0.0
C2556 C 0.3357 0.17698 0.5743 0.0
C2557 C 0.33613 0.17901 0.56153 0.0
C2558 C 0.33811 0.15401 0.53167 0.0
C2559 C 0.32808 0.16604 0.49947 0.0
C2560 C 0.33016 0.16631 0.51323 0.0
C2561 C 0.33094 0.1624 0.55287 0.0
C2562 C 0.33137 0.1644 0.53927 0.0
H2563 H 0.33516 0.1972 0.4769 0.0
H2564 H 0.34013 0.19812 0.49953 0.0
H2565 H 0.34261 0.14661 0.51319 0.0
H2566 H 0.32069 0.12713 0.57306 0.0
H2567 H 0.32078 0.13051 0.55086 0.0
C2568 C 0.84351 0.14108 0.48534 0.0
C2569 C 0.85367 0.15878 0.47952 0.0
C2570 C 0.84007 0.1419 0.49781 0.0
C2571 C 0.85745 0.17493 0.52724 0.0
H2572 H 0.80548 0.13568 0.53634 0.0
C2573 C 0.83344 0.17471 0.5772 0.0
C2574 C 0.8228 0.15579 0.58165 0.0
C2575 C 0.8377 0.17621 0.56478 0.0
C2576 C 0.82013 0.14663 0.53398 0.0
H2577 H 0.86836 0.19128 0.48229 0.0
H2578 H 0.86233 0.19272 0.50421 0.0
H2579 H 0.81189 0.13642 0.51457 0.0
H2580 H 0.80908 0.12368 0.57672 0.0
H2581 H 0.81648 0.12628 0.55513 0.0
H2582 H 0.86567 0.18502 0.54674 0.0
C2583 C 0.85716 0.17821 0.49907 0.0
C2584 C 0.8238 0.14706 0.5215 0.0
C2585 C 0.8606 0.17739 0.48654 0.0
C2586 C 0.81692 0.13845 0.57351 0.0
C2587 C 0.82115 0.13994 0.56114 0.0
C2588 C 0.85376 0.1745 0.53977 0.0
C2589 C 0.8467 0.16044 0.5048 0.0
C2590 C 0.84258 0.16101 0.518 0.0
C2591 C 0.83139 0.15881 0.55659 0.0
C2592 C 0.83515 0.16014 0.54328 0.0
H2593 H 0.83841 0.12652 0.48029 0.0
H2594 H 0.83237 0.12796 0.50202 0.0
H2595 H 0.87211 0.18576 0.52484 0.0
H2596 H 0.83803 0.18834 0.58322 0.0
H2597 H 0.84549 0.19095 0.56152 0.0
C2598 C 0.86464 0.68599 0.48884 0.0
C2599 C 0.86356 0.7028 0.48555 0.0
C2600 C 0.86265 0.68089 0.50109 0.0
C2601 C 0.86658 0.70181 0.53338 0.0
H2602 H 0.82898 0.64684 0.53883 0.0
C2603 C 0.83507 0.68076 0.58041 0.0
C2604 C 0.83174 0.66252 0.58452 0.0
C2605 C 0.84082 0.68552 0.56852 0.0
C2606 C 0.83979 0.66218 0.53749 0.0
H2607 H 0.8602 0.72778 0.49252 0.0
H2608 H 0.85667 0.71887 0.51384 0.0
H2609 H 0.83606 0.65547 0.51766 0.0
H2610 H 0.83229 0.63518 0.57951 0.0
H2611 H 0.8425 0.64356 0.55875 0.0
H2612 H 0.87024 0.70862 0.55317 0.0
C2613 C 0.85906 0.70964 0.507 0.0
C2614 C 0.84382 0.66711 0.52536 0.0
C2615 C 0.86086 0.71462 0.49477 0.0
C2616 C 0.83449 0.64923 0.57653 0.0
C2617 C 0.84033 0.65403 0.56464 0.0
C2618 C 0.86264 0.69687 0.5455 0.0
C2619 C 0.85981 0.69266 0.51027 0.0
C2620 C 0.85698 0.68705 0.52317 0.0
C2621 C 0.84347 0.6722 0.56048 0.0
C2622 C 0.84891 0.67708 0.54769 0.0
H2623 H 0.86663 0.67658 0.4819 0.0
H2624 H 0.86339 0.66778 0.50338 0.0
H2625 H 0.87704 0.71724 0.53198 0.0
H2626 H 0.83277 0.69117 0.58627 0.0
H2627 H 0.84272 0.69946 0.56553 0.0
loop_
_geom_bond_atom_site_label_1
_geom_bond_atom_site_label_2
_geom_bond_distance
_geom_bond_site_symmetry_2
_ccdc_geom_bond_type
C0 C1 1.384 . S
C0 H13 0.947 . S
C0 C35 1.382 . S
C1 C0 1.384 . S
C1 C2 1.378 . S
C2 C1 1.378 . S
C2 C3 1.378 . S
C2 H14 0.952 . S
C3 C2 1.378 . S
C3 H15 0.950 . S
C3 C34 1.383 . S
H4 C23 0.947 . S
H5 C24 0.946 . S
H6 C26 0.953 . S
H7 C27 0.945 . S
H8 C29 0.952 . S
H9 C30 0.949 . S
H10 C32 0.950 . S
H11 C33 0.948 . S
H12 C35 0.951 . S
H13 C0 0.947 . S
H14 C2 0.952 . S
H15 C3 0.950 . S
N16 C19 1.382 . S
N16 C21 1.363 . S
N17 C19 1.371 . S
N17 C20 1.372 . S
N18 C20 1.361 . S
N18 C21 1.377 . S
C19 N16 1.382 . S
C19 N17 1.371 . S
C19 C22 1.480 . S
C20 N17 1.372 . S
C20 N18 1.361 . S
C20 C28 1.457 . S
C21 N16 1.363 . S
C21 N18 1.377 . S
C21 C34 1.479 . S
C22 C19 1.480 . S
C22 C23 1.383 . S
C22 C27 1.385 . S
C23 H4 0.947 . S
C23 C22 1.383 . S
C23 C24 1.388 . S
C24 H5 0.946 . S
C24 C23 1.388 . S
C24 C25 1.384 . S
C25 C24 1.384 . S
C25 C26 1.377 . S
C26 H6 0.953 . S
C26 C25 1.377 . S
C26 C27 1.369 . S
C27 H7 0.945 . S
C27 C22 1.385 . S
C27 C26 1.369 . S
C28 C20 1.457 . S
C28 C29 1.372 . S
C28 C33 1.364 . S
C29 H8 0.952 . S
C29 C28 1.372 . S
C29 C30 1.389 . S
C30 H9 0.949 . S
C30 C29 1.389 . S
C30 C31 1.387 . S
C31 C30 1.387 . S
C31 C32 1.372 . S
C32 H10 0.950 . S
C32 C31 1.372 . S
C32 C33 1.379 . S
C33 H11 0.948 . S
C33 C28 1.364 . S
C33 C32 1.379 . S
C34 C3 1.383 . S
C34 C21 1.479 . S
C34 C35 1.398 . S
C35 C0 1.382 . S
C35 H12 0.951 . S
C35 C34 1.398 . S
C36 C37 1.384 . S
C36 H49 0.947 . S
C36 C71 1.382 . S
C37 C36 1.384 . S
C37 C38 1.378 . S
C38 C37 1.378 . S
C38 C39 1.378 . S
C38 H50 0.952 . S
C39 C38 1.378 . S
C39 H51 0.950 . S
C39 C70 1.383 . S
H40 C59 0.947 . S
H41 C60 0.946 . S
H42 C62 0.953 . S
H43 C63 0.945 . S
H44 C65 0.952 . S
H45 C66 0.949 . S
H46 C68 0.950 . S
H47 C69 0.948 . S
H48 C71 0.951 . S
H49 C36 0.947 . S
H50 C38 0.952 . S
H51 C39 0.950 . S
N52 C55 1.382 . S
N52 C57 1.363 . S
N53 C55 1.371 . S
N53 C56 1.372 . S
N54 C56 1.361 . S
N54 C57 1.377 . S
C55 N52 1.382 . S
C55 N53 1.371 . S
C55 C58 1.480 . S
C56 N53 1.372 . S
C56 N54 1.361 . S
C56 C64 1.457 . S
C57 N52 1.363 . S
C57 N54 1.377 . S
C57 C70 1.479 . S
C58 C55 1.480 . S
C58 C59 1.383 . S
C58 C63 1.385 . S
C59 H40 0.947 . S
C59 C58 1.383 . S
C59 C60 1.388 . S
C60 H41 0.946 . S
C60 C59 1.388 . S
C60 C61 1.384 . S
C61 C60 1.384 . S
C61 C62 1.377 . S
C62 H42 0.953 . S
C62 C61 1.377 . S
C62 C63 1.369 . S
C63 H43 0.945 . S
C63 C58 1.385 . S
C63 C62 1.369 . S
C64 C56 1.457 . S
C64 C65 1.372 . S
C64 C69 1.364 . S
C65 H44 0.952 . S
C65 C64 1.372 . S
C65 C66 1.389 . S
C66 H45 0.949 . S
C66 C65 1.389 . S
C66 C67 1.387 . S
C67 C66 1.387 . S
C67 C68 1.372 . S
C68 H46 0.950 . S
C68 C67 1.372 . S
C68 C69 1.379 . S
C69 H47 0.948 . S
C69 C64 1.364 . S
C69 C68 1.379 . S
C70 C39 1.383 . S
C70 C57 1.479 . S
C70 C71 1.398 . S
C71 C36 1.382 . S
C71 H48 0.951 . S
C71 C70 1.398 . S
C72 C73 1.384 . S
C72 H85 0.947 . S
C72 C107 1.382 . S
C73 C72 1.384 . S
C73 C74 1.378 . S
C74 C73 1.378 . S
C74 C75 1.378 . S
C74 H86 0.952 . S
C75 C74 1.378 . S
C75 H87 0.950 . S
C75 C106 1.383 . S
H76 C95 0.947 . S
H77 C96 0.946 . S
H78 C98 0.953 . S
H79 C99 0.945 . S
H80 C101 0.952 . S
H81 C102 0.949 . S
H82 C104 0.950 . S
H83 C105 0.948 . S
H84 C107 0.951 . S
H85 C72 0.947 . S
H86 C74 0.952 . S
H87 C75 0.950 . S
N88 C91 1.382 . S
N88 C93 1.363 . S
N89 C91 1.371 . S
N89 C92 1.372 . S
N90 C92 1.361 . S
N90 C93 1.377 . S
C91 N88 1.382 . S
C91 N89 1.371 . S
C91 C94 1.480 . S
C92 N89 1.372 . S
C92 N90 1.361 . S
C92 C100 1.457 . S
C93 N88 1.363 . S
C93 N90 1.377 . S
C93 C106 1.479 . S
C94 C91 1.480 . S
C94 C95 1.383 . S
C94 C99 1.385 . S
C95 H76 0.947 . S
C95 C94 1.383 . S
C95 C96 1.388 . S
C96 H77 0.946 . S
C96 C95 1.388 . S
C96 C97 1.384 . S
C97 C96 1.384 . S
C97 C98 1.377 . S
C98 H78 0.953 . S
C98 C97 1.377 . S
C98 C99 1.369 . S
C99 H79 0.945 . S
C99 C94 1.385 . S
C99 C98 1.369 . S
C100 C92 1.457 . S
C100 C101 1.372 . S
C100 C105 1.364 . S
C101 H80 0.952 . S
C101 C100 1.372 . S
C101 C102 1.389 . S
C102 H81 0.949 . S
C102 C101 1.389 . S
C102 C103 1.387 . S
C103 C102 1.387 . S
C103 C104 1.372 . S
C104 H82 0.950 . S
C104 C103 1.372 . S
C104 C105 1.379 . S
C105 H83 0.948 . S
C105 C100 1.364 . S
C105 C104 1.379 . S
C106 C75 1.383 . S
C106 C93 1.479 . S
C106 C107 1.398 . S
C107 C72 1.382 . S
C107 H84 0.951 . S
C107 C106 1.398 . S
C108 C109 1.384 . S
C108 H121 0.947 . S
C108 C143 1.382 . S
C109 C108 1.384 . S
C109 C110 1.378 . S
C110 C109 1.378 . S
C110 C111 1.378 . S
C110 H122 0.952 . S
C111 C110 1.378 . S
C111 H123 0.950 . S
C111 C142 1.383 . S
H112 C131 0.947 . S
H113 C132 0.946 . S
H114 C134 0.953 . S
H115 C135 0.945 . S
H116 C137 0.952 . S
H117 C138 0.949 . S
H118 C140 0.950 . S
H119 C141 0.948 . S
H120 C143 0.951 . S
H121 C108 0.947 . S
H122 C110 0.952 . S
H123 C111 0.950 . S
N124 C127 1.382 . S
N124 C129 1.363 . S
N125 C127 1.371 . S
N125 C128 1.372 . S
N126 C128 1.361 . S
N126 C129 1.377 . S
C127 N124 1.382 . S
C127 N125 1.371 . S
C127 C130 1.480 . S
C128 N125 1.372 . S
C128 N126 1.361 . S
C128 C136 1.457 . S
C129 N124 1.363 . S
C129 N126 1.377 . S
C129 C142 1.479 . S
C130 C127 1.480 . S
C130 C131 1.383 . S
C130 C135 1.385 . S
C131 H112 0.947 . S
C131 C130 1.383 . S
C131 C132 1.388 . S
C132 H113 0.946 . S
C132 C131 1.388 . S
C132 C133 1.384 . S
C133 C132 1.384 . S
C133 C134 1.377 . S
C134 H114 0.953 . S
C134 C133 1.377 . S
C134 C135 1.369 . S
C135 H115 0.945 . S
C135 C130 1.385 . S
C135 C134 1.369 . S
C136 C128 1.457 . S
C136 C137 1.372 . S
C136 C141 1.364 . S
C137 H116 0.952 . S
C137 C136 1.372 . S
C137 C138 1.389 . S
C138 H117 0.949 . S
C138 C137 1.389 . S
C138 C139 1.387 . S
C139 C138 1.387 . S
C139 C140 1.372 . S
C140 H118 0.950 . S
C140 C139 1.372 . S
C140 C141 1.379 . S
C141 H119 0.948 . S
C141 C136 1.364 . S
C141 C140 1.379 . S
C142 C111 1.383 . S
C142 C129 1.479 . S
C142 C143 1.398 . S
C143 C108 1.382 . S
C143 H120 0.951 . S
C143 C142 1.398 . S
C144 C145 1.384 . S
C144 H157 0.947 . S
C144 C179 1.382 . S
C145 C144 1.384 . S
C145 C146 1.378 . S
C146 C145 1.378 . S
C146 C147 1.378 . S
C146 H158 0.952 . S
C147 C146 1.378 . S
C147 H159 0.950 . S
C147 C178 1.383 . S
H148 C167 0.947 . S
H149 C168 0.946 . S
H150 C170 0.953 . S
H151 C171 0.945 . S
H152 C173 0.952 . S
H153 C174 0.949 . S
H154 C176 0.950 . S
H155 C177 0.948 . S
H156 C179 0.951 . S
H157 C144 0.947 . S
H158 C146 0.952 . S
H159 C147 0.950 . S
N160 C163 1.382 . S
N160 C165 1.363 . S
N161 C163 1.371 . S
N161 C164 1.372 . S
N162 C164 1.361 . S
N162 C165 1.377 . S
C163 N160 1.382 . S
C163 N161 1.371 . S
C163 C166 1.480 . S
C164 N161 1.372 . S
C164 N162 1.361 . S
C164 C172 1.457 . S
C165 N160 1.363 . S
C165 N162 1.377 . S
C165 C178 1.479 . S
C166 C163 1.480 . S
C166 C167 1.383 . S
C166 C171 1.385 . S
C167 H148 0.947 . S
C167 C166 1.383 . S
C167 C168 1.388 . S
C168 H149 0.946 . S
C168 C167 1.388 . S
C168 C169 1.384 . S
C169 C168 1.384 . S
C169 C170 1.377 . S
C170 H150 0.953 . S
C170 C169 1.377 . S
C170 C171 1.369 . S
C171 H151 0.945 . S
C171 C166 1.385 . S
C171 C170 1.369 . S
C172 C164 1.457 . S
C172 C173 1.372 . S
C172 C177 1.364 . S
C173 H152 0.952 . S
C173 C172 1.372 . S
C173 C174 1.389 . S
C174 H153 0.949 . S
C174 C173 1.389 . S
C174 C175 1.387 . S
C175 C174 1.387 . S
C175 C176 1.372 . S
C176 H154 0.950 . S
C176 C175 1.372 . S
C176 C177 1.379 . S
C177 H155 0.948 . S
C177 C172 1.364 . S
C177 C176 1.379 . S
C178 C147 1.383 . S
C178 C165 1.479 . S
C178 C179 1.398 . S
C179 C144 1.382 . S
C179 H156 0.951 . S
C179 C178 1.398 . S
C180 C181 1.384 . S
C180 H193 0.947 . S
C180 C215 1.382 . S
C181 C180 1.384 . S
C181 C182 1.378 . S
C182 C181 1.378 . S
C182 C183 1.378 . S
C182 H194 0.952 . S
C183 C182 1.378 . S
C183 H195 0.950 . S
C183 C214 1.383 . S
H184 C203 0.947 . S
H185 C204 0.946 . S
H186 C206 0.953 . S
H187 C207 0.945 . S
H188 C209 0.952 . S
H189 C210 0.949 . S
H190 C212 0.950 . S
H191 C213 0.948 . S
H192 C215 0.951 . S
H193 C180 0.947 . S
H194 C182 0.952 . S
H195 C183 0.950 . S
N196 C199 1.382 . S
N196 C201 1.363 . S
N197 C199 1.371 . S
N197 C200 1.372 . S
N198 C200 1.361 . S
N198 C201 1.377 . S
C199 N196 1.382 . S
C199 N197 1.371 . S
C199 C202 1.480 . S
C200 N197 1.372 . S
C200 N198 1.361 . S
C200 C208 1.457 . S
C201 N196 1.363 . S
C201 N198 1.377 . S
C201 C214 1.479 . S
C202 C199 1.480 . S
C202 C203 1.383 . S
C202 C207 1.385 . S
C203 H184 0.947 . S
C203 C202 1.383 . S
C203 C204 1.388 . S
C204 H185 0.946 . S
C204 C203 1.388 . S
C204 C205 1.384 . S
C205 C204 1.384 . S
C205 C206 1.377 . S
C206 H186 0.953 . S
C206 C205 1.377 . S
C206 C207 1.369 . S
C207 H187 0.945 . S
C207 C202 1.385 . S
C207 C206 1.369 . S
C208 C200 1.457 . S
C208 C209 1.372 . S
C208 C213 1.364 . S
C209 H188 0.952 . S
C209 C208 1.372 . S
C209 C210 1.389 . S
C210 H189 0.949 . S
C210 C209 1.389 . S
C210 C211 1.387 . S
C211 C210 1.387 . S
C211 C212 1.372 . S
C212 H190 0.950 . S
C212 C211 1.372 . S
C212 C213 1.379 . S
C213 H191 0.948 . S
C213 C208 1.364 . S
C213 C212 1.379 . S
C214 C183 1.383 . S
C214 C201 1.479 . S
C214 C215 1.398 . S
C215 C180 1.382 . S
C215 H192 0.951 . S
C215 C214 1.398 . S
C216 C217 1.384 . S
C216 H229 0.947 . S
C216 C251 1.382 . S
C217 C216 1.384 . S
C217 C218 1.378 . S
C218 C217 1.378 . S
C218 C219 1.378 . S
C218 H230 0.952 . S
C219 C218 1.378 . S
C219 H231 0.950 . S
C219 C250 1.383 . S
H220 C239 0.947 . S
H221 C240 0.946 . S
H222 C242 0.953 . S
H223 C243 0.945 . S
H224 C245 0.952 . S
H225 C246 0.949 . S
H226 C248 0.950 . S
H227 C249 0.948 . S
H228 C251 0.951 . S
H229 C216 0.947 . S
H230 C218 0.952 . S
H231 C219 0.950 . S
N232 C235 1.382 . S
N232 C237 1.363 . S
N233 C235 1.371 . S
N233 C236 1.372 . S
N234 C236 1.361 . S
N234 C237 1.377 . S
C235 N232 1.382 . S
C235 N233 1.371 . S
C235 C238 1.480 . S
C236 N233 1.372 . S
C236 N234 1.361 . S
C236 C244 1.457 . S
C237 N232 1.363 . S
C237 N234 1.377 . S
C237 C250 1.479 . S
C238 C235 1.480 . S
C238 C239 1.383 . S
C238 C243 1.385 . S
C239 H220 0.947 . S
C239 C238 1.383 . S
C239 C240 1.388 . S
C240 H221 0.946 . S
C240 C239 1.388 . S
C240 C241 1.384 . S
C241 C240 1.384 . S
C241 C242 1.377 . S
C242 H222 0.953 . S
C242 C241 1.377 . S
C242 C243 1.369 . S
C243 H223 0.945 . S
C243 C238 1.385 . S
C243 C242 1.369 . S
C244 C236 1.457 . S
C244 C245 1.372 . S
C244 C249 1.364 . S
C245 H224 0.952 . S
C245 C244 1.372 . S
C245 C246 1.389 . S
C246 H225 0.949 . S
C246 C245 1.389 . S
C246 C247 1.387 . S
C247 C246 1.387 . S
C247 C248 1.372 . S
C248 H226 0.950 . S
C248 C247 1.372 . S
C248 C249 1.379 . S
C249 H227 0.948 . S
C249 C244 1.364 . S
C249 C248 1.379 . S
C250 C219 1.383 . S
C250 C237 1.479 . S
C250 C251 1.398 . S
C251 C216 1.382 . S
C251 H228 0.951 . S
C251 C250 1.398 . S
C252 C253 1.384 . S
C252 H265 0.947 . S
C252 C287 1.382 . S
C253 C252 1.384 . S
C253 C254 1.378 . S
C254 C253 1.378 . S
C254 C255 1.378 . S
C254 H266 0.952 . S
C255 C254 1.378 . S
C255 H267 0.950 . S
C255 C286 1.383 . S
H256 C275 0.947 . S
H257 C276 0.946 . S
H258 C278 0.953 . S
H259 C279 0.945 . S
H260 C281 0.952 . S
H261 C282 0.949 . S
H262 C284 0.950 . S
H263 C285 0.948 . S
H264 C287 0.951 . S
H265 C252 0.947 . S
H266 C254 0.952 . S
H267 C255 0.950 . S
N268 C271 1.382 . S
N268 C273 1.363 . S
N269 C271 1.371 . S
N269 C272 1.372 . S
N270 C272 1.361 . S
N270 C273 1.377 . S
C271 N268 1.382 . S
C271 N269 1.371 . S
C271 C274 1.480 . S
C272 N269 1.372 . S
C272 N270 1.361 . S
C272 C280 1.457 . S
C273 N268 1.363 . S
C273 N270 1.377 . S
C273 C286 1.479 . S
C274 C271 1.480 . S
C274 C275 1.383 . S
C274 C279 1.385 . S
C275 H256 0.947 . S
C275 C274 1.383 . S
C275 C276 1.388 . S
C276 H257 0.946 . S
C276 C275 1.388 . S
C276 C277 1.384 . S
C277 C276 1.384 . S
C277 C278 1.377 . S
C278 H258 0.953 . S
C278 C277 1.377 . S
C278 C279 1.369 . S
C279 H259 0.945 . S
C279 C274 1.385 . S
C279 C278 1.369 . S
C280 C272 1.457 . S
C280 C281 1.372 . S
C280 C285 1.364 . S
C281 H260 0.952 . S
C281 C280 1.372 . S
C281 C282 1.389 . S
C282 H261 0.949 . S
C282 C281 1.389 . S
C282 C283 1.387 . S
C283 C282 1.387 . S
C283 C284 1.372 . S
C284 H262 0.950 . S
C284 C283 1.372 . S
C284 C285 1.379 . S
C285 H263 0.948 . S
C285 C280 1.364 . S
C285 C284 1.379 . S
C286 C255 1.383 . S
C286 C273 1.479 . S
C286 C287 1.398 . S
C287 C252 1.382 . S
C287 H264 0.951 . S
C287 C286 1.398 . S
C288 C289 1.384 . S
C288 H301 0.947 . S
C288 C323 1.382 . S
C289 C288 1.384 . S
C289 C290 1.378 . S
C290 C289 1.378 . S
C290 C291 1.378 . S
C290 H302 0.952 . S
C291 C290 1.378 . S
C291 H303 0.950 . S
C291 C322 1.383 . S
H292 C311 0.947 . S
H293 C312 0.946 . S
H294 C314 0.953 . S
H295 C315 0.945 . S
H296 C317 0.952 . S
H297 C318 0.949 . S
H298 C320 0.950 . S
H299 C321 0.948 . S
H300 C323 0.951 . S
H301 C288 0.947 . S
H302 C290 0.952 . S
H303 C291 0.950 . S
N304 C307 1.382 . S
N304 C309 1.363 . S
N305 C307 1.371 . S
N305 C308 1.372 . S
N306 C308 1.361 . S
N306 C309 1.377 . S
C307 N304 1.382 . S
C307 N305 1.371 . S
C307 C310 1.480 . S
C308 N305 1.372 . S
C308 N306 1.361 . S
C308 C316 1.457 . S
C309 N304 1.363 . S
C309 N306 1.377 . S
C309 C322 1.479 . S
C310 C307 1.480 . S
C310 C311 1.383 . S
C310 C315 1.385 . S
C311 H292 0.947 . S
C311 C310 1.383 . S
C311 C312 1.388 . S
C312 H293 0.946 . S
C312 C311 1.388 . S
C312 C313 1.384 . S
C313 C312 1.384 . S
C313 C314 1.377 . S
C314 H294 0.953 . S
C314 C313 1.377 . S
C314 C315 1.369 . S
C315 H295 0.945 . S
C315 C310 1.385 . S
C315 C314 1.369 . S
C316 C308 1.457 . S
C316 C317 1.372 . S
C316 C321 1.364 . S
C317 H296 0.952 . S
C317 C316 1.372 . S
C317 C318 1.389 . S
C318 H297 0.949 . S
C318 C317 1.389 . S
C318 C319 1.387 . S
C319 C318 1.387 . S
C319 C320 1.372 . S
C320 H298 0.950 . S
C320 C319 1.372 . S
C320 C321 1.379 . S
C321 H299 0.948 . S
C321 C316 1.364 . S
C321 C320 1.379 . S
C322 C291 1.383 . S
C322 C309 1.479 . S
C322 C323 1.398 . S
C323 C288 1.382 . S
C323 H300 0.951 . S
C323 C322 1.398 . S
C324 C325 1.384 . S
C324 H337 0.947 . S
C324 C359 1.382 . S
C325 C324 1.384 . S
C325 C326 1.378 . S
C326 C325 1.378 . S
C326 C327 1.378 . S
C326 H338 0.952 . S
C327 C326 1.378 . S
C327 H339 0.950 . S
C327 C358 1.383 . S
H328 C347 0.947 . S
H329 C348 0.946 . S
H330 C350 0.953 . S
H331 C351 0.945 . S
H332 C353 0.952 . S
H333 C354 0.949 . S
H334 C356 0.950 . S
H335 C357 0.948 . S
H336 C359 0.951 . S
H337 C324 0.947 . S
H338 C326 0.952 . S
H339 C327 0.950 . S
N340 C343 1.382 . S
N340 C345 1.363 . S
N341 C343 1.371 . S
N341 C344 1.372 . S
N342 C344 1.361 . S
N342 C345 1.377 . S
C343 N340 1.382 . S
C343 N341 1.371 . S
C343 C346 1.480 . S
C344 N341 1.372 . S
C344 N342 1.361 . S
C344 C352 1.457 . S
C345 N340 1.363 . S
C345 N342 1.377 . S
C345 C358 1.479 . S
C346 C343 1.480 . S
C346 C347 1.383 . S
C346 C351 1.385 . S
C347 H328 0.947 . S
C347 C346 1.383 . S
C347 C348 1.388 . S
C348 H329 0.946 . S
C348 C347 1.388 . S
C348 C349 1.384 . S
C349 C348 1.384 . S
C349 C350 1.377 . S
C350 H330 0.953 . S
C350 C349 1.377 . S
C350 C351 1.369 . S
C351 H331 0.945 . S
C351 C346 1.385 . S
C351 C350 1.369 . S
C352 C344 1.457 . S
C352 C353 1.372 . S
C352 C357 1.364 . S
C353 H332 0.952 . S
C353 C352 1.372 . S
C353 C354 1.389 . S
C354 H333 0.949 . S
C354 C353 1.389 . S
C354 C355 1.387 . S
C355 C354 1.387 . S
C355 C356 1.372 . S
C356 H334 0.950 . S
C356 C355 1.372 . S
C356 C357 1.379 . S
C357 H335 0.948 . S
C357 C352 1.364 . S
C357 C356 1.379 . S
C358 C327 1.383 . S
C358 C345 1.479 . S
C358 C359 1.398 . S
C359 C324 1.382 . S
C359 H336 0.951 . S
C359 C358 1.398 . S
C360 C361 1.384 . S
C360 H373 0.947 . S
C360 C395 1.382 . S
C361 C360 1.384 . S
C361 C362 1.378 . S
C362 C361 1.378 . S
C362 C363 1.378 . S
C362 H374 0.952 . S
C363 C362 1.378 . S
C363 H375 0.950 . S
C363 C394 1.383 . S
H364 C383 0.947 . S
H365 C384 0.946 . S
H366 C386 0.953 . S
H367 C387 0.945 . S
H368 C389 0.952 . S
H369 C390 0.949 . S
H370 C392 0.950 . S
H371 C393 0.948 . S
H372 C395 0.951 . S
H373 C360 0.947 . S
H374 C362 0.952 . S
H375 C363 0.950 . S
N376 C379 1.382 . S
N376 C381 1.363 . S
N377 C379 1.371 . S
N377 C380 1.372 . S
N378 C380 1.361 . S
N378 C381 1.377 . S
C379 N376 1.382 . S
C379 N377 1.371 . S
C379 C382 1.480 . S
C380 N377 1.372 . S
C380 N378 1.361 . S
C380 C388 1.457 . S
C381 N376 1.363 . S
C381 N378 1.377 . S
C381 C394 1.479 . S
C382 C379 1.480 . S
C382 C383 1.383 . S
C382 C387 1.385 . S
C383 H364 0.947 . S
C383 C382 1.383 . S
C383 C384 1.388 . S
C384 H365 0.946 . S
C384 C383 1.388 . S
C384 C385 1.384 . S
C385 C384 1.384 . S
C385 C386 1.377 . S
C386 H366 0.953 . S
C386 C385 1.377 . S
C386 C387 1.369 . S
C387 H367 0.945 . S
C387 C382 1.385 . S
C387 C386 1.369 . S
C388 C380 1.457 . S
C388 C389 1.372 . S
C388 C393 1.364 . S
C389 H368 0.952 . S
C389 C388 1.372 . S
C389 C390 1.389 . S
C390 H369 0.949 . S
C390 C389 1.389 . S
C390 C391 1.387 . S
C391 C390 1.387 . S
C391 C392 1.372 . S
C392 H370 0.950 . S
C392 C391 1.372 . S
C392 C393 1.379 . S
C393 H371 0.948 . S
C393 C388 1.364 . S
C393 C392 1.379 . S
C394 C363 1.383 . S
C394 C381 1.479 . S
C394 C395 1.398 . S
C395 C360 1.382 . S
C395 H372 0.951 . S
C395 C394 1.398 . S
C396 C397 1.384 . S
C396 H409 0.947 . S
C396 C431 1.382 . S
C397 C396 1.384 . S
C397 C398 1.378 . S
C398 C397 1.378 . S
C398 C399 1.378 . S
C398 H410 0.952 . S
C399 C398 1.378 . S
C399 H411 0.950 . S
C399 C430 1.383 . S
H400 C419 0.947 . S
H401 C420 0.946 . S
H402 C422 0.953 . S
H403 C423 0.945 . S
H404 C425 0.952 . S
H405 C426 0.949 . S
H406 C428 0.950 . S
H407 C429 0.948 . S
H408 C431 0.951 . S
H409 C396 0.947 . S
H410 C398 0.952 . S
H411 C399 0.950 . S
N412 C415 1.382 . S
N412 C417 1.363 . S
N413 C415 1.371 . S
N413 C416 1.372 . S
N414 C416 1.361 . S
N414 C417 1.377 . S
C415 N412 1.382 . S
C415 N413 1.371 . S
C415 C418 1.480 . S
C416 N413 1.372 . S
C416 N414 1.361 . S
C416 C424 1.457 . S
C417 N412 1.363 . S
C417 N414 1.377 . S
C417 C430 1.479 . S
C418 C415 1.480 . S
C418 C419 1.383 . S
C418 C423 1.385 . S
C419 H400 0.947 . S
C419 C418 1.383 . S
C419 C420 1.388 . S
C420 H401 0.946 . S
C420 C419 1.388 . S
C420 C421 1.384 . S
C421 C420 1.384 . S
C421 C422 1.377 . S
C422 H402 0.953 . S
C422 C421 1.377 . S
C422 C423 1.369 . S
C423 H403 0.945 . S
C423 C418 1.385 . S
C423 C422 1.369 . S
C424 C416 1.457 . S
C424 C425 1.372 . S
C424 C429 1.364 . S
C425 H404 0.952 . S
C425 C424 1.372 . S
C425 C426 1.389 . S
C426 H405 0.949 . S
C426 C425 1.389 . S
C426 C427 1.387 . S
C427 C426 1.387 . S
C427 C428 1.372 . S
C428 H406 0.950 . S
C428 C427 1.372 . S
C428 C429 1.379 . S
C429 H407 0.948 . S
C429 C424 1.364 . S
C429 C428 1.379 . S
C430 C399 1.383 . S
C430 C417 1.479 . S
C430 C431 1.398 . S
C431 C396 1.382 . S
C431 H408 0.951 . S
C431 C430 1.398 . S
C432 C433 1.384 . S
C432 H445 0.947 . S
C432 C467 1.382 . S
C433 C432 1.384 . S
C433 C434 1.378 . S
C434 C433 1.378 . S
C434 C435 1.378 . S
C434 H446 0.952 . S
C435 C434 1.378 . S
C435 H447 0.950 . S
C435 C466 1.383 . S
H436 C455 0.947 . S
H437 C456 0.946 . S
H438 C458 0.953 . S
H439 C459 0.945 . S
H440 C461 0.952 . S
H441 C462 0.949 . S
H442 C464 0.950 . S
H443 C465 0.948 . S
H444 C467 0.951 . S
H445 C432 0.947 . S
H446 C434 0.952 . S
H447 C435 0.950 . S
N448 C451 1.382 . S
N448 C453 1.363 . S
N449 C451 1.371 . S
N449 C452 1.372 . S
N450 C452 1.361 . S
N450 C453 1.377 . S
C451 N448 1.382 . S
C451 N449 1.371 . S
C451 C454 1.480 . S
C452 N449 1.372 . S
C452 N450 1.361 . S
C452 C460 1.457 . S
C453 N448 1.363 . S
C453 N450 1.377 . S
C453 C466 1.479 . S
C454 C451 1.480 . S
C454 C455 1.383 . S
C454 C459 1.385 . S
C455 H436 0.947 . S
C455 C454 1.383 . S
C455 C456 1.388 . S
C456 H437 0.946 . S
C456 C455 1.388 . S
C456 C457 1.384 . S
C457 C456 1.384 . S
C457 C458 1.377 . S
C458 H438 0.953 . S
C458 C457 1.377 . S
C458 C459 1.369 . S
C459 H439 0.945 . S
C459 C454 1.385 . S
C459 C458 1.369 . S
C460 C452 1.457 . S
C460 C461 1.372 . S
C460 C465 1.364 . S
C461 H440 0.952 . S
C461 C460 1.372 . S
C461 C462 1.389 . S
C462 H441 0.949 . S
C462 C461 1.389 . S
C462 C463 1.387 . S
C463 C462 1.387 . S
C463 C464 1.372 . S
C464 H442 0.950 . S
C464 C463 1.372 . S
C464 C465 1.379 . S
C465 H443 0.948 . S
C465 C460 1.364 . S
C465 C464 1.379 . S
C466 C435 1.383 . S
C466 C453 1.479 . S
C466 C467 1.398 . S
C467 C432 1.382 . S
C467 H444 0.951 . S
C467 C466 1.398 . S
C468 C469 1.384 . S
C468 H481 0.947 . S
C468 C503 1.382 . S
C469 C468 1.384 . S
C469 C470 1.378 . S
C470 C469 1.378 . S
C470 C471 1.378 . S
C470 H482 0.952 . S
C471 C470 1.378 . S
C471 H483 0.950 . S
C471 C502 1.383 . S
H472 C491 0.947 . S
H473 C492 0.946 . S
H474 C494 0.953 . S
H475 C495 0.945 . S
H476 C497 0.952 . S
H477 C498 0.949 . S
H478 C500 0.950 . S
H479 C501 0.948 . S
H480 C503 0.951 . S
H481 C468 0.947 . S
H482 C470 0.952 . S
H483 C471 0.950 . S
N484 C487 1.382 . S
N484 C489 1.363 . S
N485 C487 1.371 . S
N485 C488 1.372 . S
N486 C488 1.361 . S
N486 C489 1.377 . S
C487 N484 1.382 . S
C487 N485 1.371 . S
C487 C490 1.480 . S
C488 N485 1.372 . S
C488 N486 1.361 . S
C488 C496 1.457 . S
C489 N484 1.363 . S
C489 N486 1.377 . S
C489 C502 1.479 . S
C490 C487 1.480 . S
C490 C491 1.383 . S
C490 C495 1.385 . S
C491 H472 0.947 . S
C491 C490 1.383 . S
C491 C492 1.388 . S
C492 H473 0.946 . S
C492 C491 1.388 . S
C492 C493 1.384 . S
C493 C492 1.384 . S
C493 C494 1.377 . S
C494 H474 0.953 . S
C494 C493 1.377 . S
C494 C495 1.369 . S
C495 H475 0.945 . S
C495 C490 1.385 . S
C495 C494 1.369 . S
C496 C488 1.457 . S
C496 C497 1.372 . S
C496 C501 1.364 . S
C497 H476 0.952 . S
C497 C496 1.372 . S
C497 C498 1.389 . S
C498 H477 0.949 . S
C498 C497 1.389 . S
C498 C499 1.387 . S
C499 C498 1.387 . S
C499 C500 1.372 . S
C500 H478 0.950 . S
C500 C499 1.372 . S
C500 C501 1.379 . S
C501 H479 0.948 . S
C501 C496 1.364 . S
C501 C500 1.379 . S
C502 C471 1.383 . S
C502 C489 1.479 . S
C502 C503 1.398 . S
C503 C468 1.382 . S
C503 H480 0.951 . S
C503 C502 1.398 . S
C504 C505 1.384 . S
C504 H517 0.947 . S
C504 C539 1.382 . S
C505 C504 1.384 . S
C505 C506 1.378 . S
C506 C505 1.378 . S
C506 C507 1.378 . S
C506 H518 0.952 . S
C507 C506 1.378 . S
C507 H519 0.950 . S
C507 C538 1.383 . S
H508 C527 0.947 . S
H509 C528 0.946 . S
H510 C530 0.953 . S
H511 C531 0.945 . S
H512 C533 0.952 . S
H513 C534 0.949 . S
H514 C536 0.950 . S
H515 C537 0.948 . S
H516 C539 0.951 . S
H517 C504 0.947 . S
H518 C506 0.952 . S
H519 C507 0.950 . S
N520 C523 1.382 . S
N520 C525 1.363 . S
N521 C523 1.371 . S
N521 C524 1.372 . S
N522 C524 1.361 . S
N522 C525 1.377 . S
C523 N520 1.382 . S
C523 N521 1.371 . S
C523 C526 1.480 . S
C524 N521 1.372 . S
C524 N522 1.361 . S
C524 C532 1.457 . S
C525 N520 1.363 . S
C525 N522 1.377 . S
C525 C538 1.479 . S
C526 C523 1.480 . S
C526 C527 1.383 . S
C526 C531 1.385 . S
C527 H508 0.947 . S
C527 C526 1.383 . S
C527 C528 1.388 . S
C528 H509 0.946 . S
C528 C527 1.388 . S
C528 C529 1.384 . S
C529 C528 1.384 . S
C529 C530 1.377 . S
C530 H510 0.953 . S
C530 C529 1.377 . S
C530 C531 1.369 . S
C531 H511 0.945 . S
C531 C526 1.385 . S
C531 C530 1.369 . S
C532 C524 1.457 . S
C532 C533 1.372 . S
C532 C537 1.364 . S
C533 H512 0.952 . S
C533 C532 1.372 . S
C533 C534 1.389 . S
C534 H513 0.949 . S
C534 C533 1.389 . S
C534 C535 1.387 . S
C535 C534 1.387 . S
C535 C536 1.372 . S
C536 H514 0.950 . S
C536 C535 1.372 . S
C536 C537 1.379 . S
C537 H515 0.948 . S
C537 C532 1.364 . S
C537 C536 1.379 . S
C538 C507 1.383 . S
C538 C525 1.479 . S
C538 C539 1.398 . S
C539 C504 1.382 . S
C539 H516 0.951 . S
C539 C538 1.398 . S
C540 C541 1.384 . S
C540 H553 0.947 . S
C540 C575 1.382 . S
C541 C540 1.384 . S
C541 C542 1.378 . S
C542 C541 1.378 . S
C542 C543 1.378 . S
C542 H554 0.952 . S
C543 C542 1.378 . S
C543 H555 0.950 . S
C543 C574 1.383 . S
H544 C563 0.947 . S
H545 C564 0.946 . S
H546 C566 0.953 . S
H547 C567 0.945 . S
H548 C569 0.952 . S
H549 C570 0.949 . S
H550 C572 0.950 . S
H551 C573 0.948 . S
H552 C575 0.951 . S
H553 C540 0.947 . S
H554 C542 0.952 . S
H555 C543 0.950 . S
N556 C559 1.382 . S
N556 C561 1.363 . S
N557 C559 1.371 . S
N557 C560 1.372 . S
N558 C560 1.361 . S
N558 C561 1.377 . S
C559 N556 1.382 . S
C559 N557 1.371 . S
C559 C562 1.480 . S
C560 N557 1.372 . S
C560 N558 1.361 . S
C560 C568 1.457 . S
C561 N556 1.363 . S
C561 N558 1.377 . S
C561 C574 1.479 . S
C562 C559 1.480 . S
C562 C563 1.383 . S
C562 C567 1.385 . S
C563 H544 0.947 . S
C563 C562 1.383 . S
C563 C564 1.388 . S
C564 H545 0.946 . S
C564 C563 1.388 . S
C564 C565 1.384 . S
C565 C564 1.384 . S
C565 C566 1.377 . S
C566 H546 0.953 . S
C566 C565 1.377 . S
C566 C567 1.369 . S
C567 H547 0.945 . S
C567 C562 1.385 . S
C567 C566 1.369 . S
C568 C560 1.457 . S
C568 C569 1.372 . S
C568 C573 1.364 . S
C569 H548 0.952 . S
C569 C568 1.372 . S
C569 C570 1.389 . S
C570 H549 0.949 . S
C570 C569 1.389 . S
C570 C571 1.387 . S
C571 C570 1.387 . S
C571 C572 1.372 . S
C572 H550 0.950 . S
C572 C571 1.372 . S
C572 C573 1.379 . S
C573 H551 0.948 . S
C573 C568 1.364 . S
C573 C572 1.379 . S
C574 C543 1.383 . S
C574 C561 1.479 . S
C574 C575 1.398 . S
C575 C540 1.382 . S
C575 H552 0.951 . S
C575 C574 1.398 . S
C576 C577 1.384 . S
C576 H589 0.947 . S
C576 C611 1.382 . S
C577 C576 1.384 . S
C577 C578 1.378 . S
C578 C577 1.378 . S
C578 C579 1.378 . S
C578 H590 0.952 . S
C579 C578 1.378 . S
C579 H591 0.950 . S
C579 C610 1.383 . S
H580 C599 0.947 . S
H581 C600 0.946 . S
H582 C602 0.953 . S
H583 C603 0.945 . S
H584 C605 0.952 . S
H585 C606 0.949 . S
H586 C608 0.950 . S
H587 C609 0.948 . S
H588 C611 0.951 . S
H589 C576 0.947 . S
H590 C578 0.952 . S
H591 C579 0.950 . S
N592 C595 1.382 . S
N592 C597 1.363 . S
N593 C595 1.371 . S
N593 C596 1.372 . S
N594 C596 1.361 . S
N594 C597 1.377 . S
C595 N592 1.382 . S
C595 N593 1.371 . S
C595 C598 1.480 . S
C596 N593 1.372 . S
C596 N594 1.361 . S
C596 C604 1.457 . S
C597 N592 1.363 . S
C597 N594 1.377 . S
C597 C610 1.479 . S
C598 C595 1.480 . S
C598 C599 1.383 . S
C598 C603 1.385 . S
C599 H580 0.947 . S
C599 C598 1.383 . S
C599 C600 1.388 . S
C600 H581 0.946 . S
C600 C599 1.388 . S
C600 C601 1.384 . S
C601 C600 1.384 . S
C601 C602 1.377 . S
C602 H582 0.953 . S
C602 C601 1.377 . S
C602 C603 1.369 . S
C603 H583 0.945 . S
C603 C598 1.385 . S
C603 C602 1.369 . S
C604 C596 1.457 . S
C604 C605 1.372 . S
C604 C609 1.364 . S
C605 H584 0.952 . S
C605 C604 1.372 . S
C605 C606 1.389 . S
C606 H585 0.949 . S
C606 C605 1.389 . S
C606 C607 1.387 . S
C607 C606 1.387 . S
C607 C608 1.372 . S
C608 H586 0.950 . S
C608 C607 1.372 . S
C608 C609 1.379 . S
C609 H587 0.948 . S
C609 C604 1.364 . S
C609 C608 1.379 . S
C610 C579 1.383 . S
C610 C597 1.479 . S
C610 C611 1.398 . S
C611 C576 1.382 . S
C611 H588 0.951 . S
C611 C610 1.398 . S
C612 C613 1.384 . S
C612 H625 0.947 . S
C612 C647 1.382 . S
C613 C612 1.384 . S
C613 C614 1.378 . S
C614 C613 1.378 . S
C614 C615 1.378 . S
C614 H626 0.952 . S
C615 C614 1.378 . S
C615 H627 0.950 . S
C615 C646 1.383 . S
H616 C635 0.947 . S
H617 C636 0.946 . S
H618 C638 0.953 . S
H619 C639 0.945 . S
H620 C641 0.952 . S
H621 C642 0.949 . S
H622 C644 0.950 . S
H623 C645 0.948 . S
H624 C647 0.951 . S
H625 C612 0.947 . S
H626 C614 0.952 . S
H627 C615 0.950 . S
N628 C631 1.382 . S
N628 C633 1.363 . S
N629 C631 1.371 . S
N629 C632 1.372 . S
N630 C632 1.361 . S
N630 C633 1.377 . S
C631 N628 1.382 . S
C631 N629 1.371 . S
C631 C634 1.480 . S
C632 N629 1.372 . S
C632 N630 1.361 . S
C632 C640 1.457 . S
C633 N628 1.363 . S
C633 N630 1.377 . S
C633 C646 1.479 . S
C634 C631 1.480 . S
C634 C635 1.383 . S
C634 C639 1.385 . S
C635 H616 0.947 . S
C635 C634 1.383 . S
C635 C636 1.388 . S
C636 H617 0.946 . S
C636 C635 1.388 . S
C636 C637 1.384 . S
C637 C636 1.384 . S
C637 C638 1.377 . S
C638 H618 0.953 . S
C638 C637 1.377 . S
C638 C639 1.369 . S
C639 H619 0.945 . S
C639 C634 1.385 . S
C639 C638 1.369 . S
C640 C632 1.457 . S
C640 C641 1.372 . S
C640 C645 1.364 . S
C641 H620 0.952 . S
C641 C640 1.372 . S
C641 C642 1.389 . S
C642 H621 0.949 . S
C642 C641 1.389 . S
C642 C643 1.387 . S
C643 C642 1.387 . S
C643 C644 1.372 . S
C644 H622 0.950 . S
C644 C643 1.372 . S
C644 C645 1.379 . S
C645 H623 0.948 . S
C645 C640 1.364 . S
C645 C644 1.379 . S
C646 C615 1.383 . S
C646 C633 1.479 . S
C646 C647 1.398 . S
C647 C612 1.382 . S
C647 H624 0.951 . S
C647 C646 1.398 . S
C648 Eu649 2.835 . S
C648 C650 1.500 . S
C648 O668 1.257 1_545 S
C648 O669 1.260 . S
Eu649 C648 2.835 . S
Eu649 O668 2.473 1_545 S
Eu649 O669 2.480 . S
Eu649 O670 2.430 . S
Eu649 O671 2.670 1_554 S
Eu649 O672 2.394 1_545 S
Eu649 O677 2.355 1_545 S
Eu649 O679 2.374 . S
C650 C648 1.500 . S
C650 C651 1.377 . S
C650 C655 1.377 1_545 S
C651 C650 1.377 . S
C651 C652 1.395 . S
C651 H680 0.931 . S
C652 C651 1.395 . S
C652 C653 1.383 1_545 S
C652 H681 0.931 . S
C653 C652 1.383 1_565 S
C653 C654 1.394 . S
C654 C653 1.394 . S
C654 C655 1.378 . S
C654 H682 0.931 . S
C655 C650 1.377 1_565 S
C655 C654 1.378 . S
C655 H683 0.931 . S
C656 O670 1.250 1_556 S
C656 O671 1.273 . S
C657 O672 1.251 . S
C657 O673 1.251 1_554 S
C658 Eu659 2.835 . S
C658 C660 1.500 . S
C658 O674 1.257 1_565 S
C658 O675 1.260 . S
Eu659 C658 2.835 . S
Eu659 O671 2.355 1_565 S
Eu659 O673 2.374 . S
Eu659 O674 2.473 1_565 S
Eu659 O675 2.480 . S
Eu659 O676 2.430 . S
Eu659 O677 2.670 1_556 S
Eu659 O678 2.394 1_565 S
C660 C658 1.500 . S
C660 C661 1.377 . S
C660 C665 1.377 1_565 S
C661 C660 1.377 . S
C661 C662 1.395 . S
C661 H684 0.931 . S
C662 C661 1.395 . S
C662 C663 1.383 1_565 S
C662 H685 0.931 . S
C663 C662 1.383 1_545 S
C663 C664 1.394 . S
C664 C663 1.394 . S
C664 C665 1.378 . S
C664 H686 0.931 . S
C665 C660 1.377 1_545 S
C665 C664 1.378 . S
C665 H687 0.931 . S
C666 O676 1.259 1_554 S
C666 O677 1.270 . S
C667 O678 1.251 . S
C667 O679 1.251 1_556 S
O668 C648 1.257 1_565 S
O668 Eu649 2.473 1_565 S
O669 C648 1.260 . S
O669 Eu649 2.480 . S
O670 Eu649 2.430 . S
O670 C656 1.250 1_554 S
O671 Eu649 2.670 1_556 S
O671 C656 1.273 . S
O671 Eu659 2.355 1_545 S
O672 Eu649 2.394 1_565 S
O672 C657 1.251 . S
O673 C657 1.251 1_556 S
O673 Eu659 2.374 . S
O674 C658 1.257 1_545 S
O674 Eu659 2.473 1_545 S
O675 C658 1.260 . S
O675 Eu659 2.480 . S
O676 Eu659 2.430 . S
O676 C666 1.259 1_556 S
O677 Eu649 2.355 1_565 S
O677 Eu659 2.670 1_554 S
O677 C666 1.270 . S
O678 Eu659 2.394 1_545 S
O678 C667 1.251 . S
O679 Eu649 2.374 . S
O679 C667 1.251 1_554 S
H680 C651 0.931 . S
H681 C652 0.931 . S
H682 C654 0.931 . S
H683 C655 0.931 . S
H684 C661 0.931 . S
H685 C662 0.931 . S
H686 C664 0.931 . S
H687 C665 0.931 . S
C688 Eu689 2.835 . S
C688 C690 1.500 1_655 S
C688 O708 1.257 1_655 S
C688 O709 1.260 . S
Eu689 C688 2.835 . S
Eu689 O708 2.473 1_655 S
Eu689 O709 2.480 . S
Eu689 O710 2.430 . S
Eu689 O711 2.670 1_554 S
Eu689 O712 2.394 1_655 S
Eu689 O717 2.355 1_655 S
Eu689 O719 2.374 . S
C690 C688 1.500 1_455 S
C690 C691 1.377 1_455 S
C690 C695 1.377 . S
C691 C690 1.377 1_655 S
C691 C692 1.395 . S
C691 H720 0.931 . S
C692 C691 1.395 . S
C692 C693 1.383 1_655 S
C692 H721 0.931 . S
C693 C692 1.383 1_455 S
C693 C694 1.394 . S
C694 C693 1.394 . S
C694 C695 1.378 . S
C694 H722 0.931 . S
C695 C690 1.377 . S
C695 C694 1.378 . S
C695 H723 0.931 . S
C696 O710 1.259 1_556 S
C696 O711 1.270 . S
C697 O712 1.251 . S
C697 O713 1.251 . S
C698 Eu699 2.835 . S
C698 C700 1.500 1_455 S
C698 O714 1.257 1_455 S
C698 O715 1.260 . S
Eu699 C698 2.835 . S
Eu699 O711 2.355 1_455 S
Eu699 O713 2.374 1_556 S
Eu699 O714 2.473 1_455 S
Eu699 O715 2.480 . S
Eu699 O716 2.430 . S
Eu699 O717 2.670 1_556 S
Eu699 O718 2.394 1_455 S
C700 C698 1.500 1_655 S
C700 C701 1.377 1_655 S
C700 C705 1.377 . S
C701 C700 1.377 1_455 S
C701 C702 1.395 . S
C701 H724 0.931 . S
C702 C701 1.395 . S
C702 C703 1.383 1_455 S
C702 H725 0.931 . S
C703 C702 1.383 1_655 S
C703 C704 1.394 . S
C704 C703 1.394 . S
C704 C705 1.378 . S
C704 H726 0.931 . S
C705 C700 1.377 . S
C705 C704 1.378 . S
C705 H727 0.931 . S
C706 O716 1.259 1_554 S
C706 O717 1.270 . S
C707 O718 1.251 . S
C707 O719 1.251 1_556 S
O708 C688 1.257 1_455 S
O708 Eu689 2.473 1_455 S
O709 C688 1.260 . S
O709 Eu689 2.480 . S
O710 Eu689 2.430 . S
O710 C696 1.259 1_554 S
O711 Eu689 2.670 1_556 S
O711 C696 1.270 . S
O711 Eu699 2.355 1_655 S
O712 Eu689 2.394 1_455 S
O712 C697 1.251 . S
O713 C697 1.251 . S
O713 Eu699 2.374 1_554 S
O714 C698 1.257 1_655 S
O714 Eu699 2.473 1_655 S
O715 C698 1.260 . S
O715 Eu699 2.480 . S
O716 Eu699 2.430 . S
O716 C706 1.259 1_556 S
O717 Eu689 2.355 1_455 S
O717 Eu699 2.670 1_554 S
O717 C706 1.270 . S
O718 Eu699 2.394 1_655 S
O718 C707 1.251 . S
O719 Eu689 2.374 . S
O719 C707 1.251 1_554 S
H720 C691 0.931 . S
H721 C692 0.931 . S
H722 C694 0.931 . S
H723 C695 0.931 . S
H724 C701 0.931 . S
H725 C702 0.931 . S
H726 C704 0.931 . S
H727 C705 0.931 . S
C728 Eu729 2.835 . S
C728 C730 1.500 . S
C728 O748 1.257 . S
C728 O749 1.260 . S
Eu729 C728 2.835 . S
Eu729 O748 2.473 . S
Eu729 O749 2.480 . S
Eu729 O750 2.430 . S
Eu729 O751 2.670 1_556 S
Eu729 O752 2.394 . S
Eu729 O757 2.355 . S
Eu729 O759 2.368 1_556 S
C730 C728 1.500 . S
C730 C731 1.377 . S
C730 C735 1.377 . S
C731 C730 1.377 . S
C731 C732 1.395 . S
C731 H760 0.931 . S
C732 C731 1.395 . S
C732 C733 1.383 . S
C732 H761 0.931 . S
C733 C732 1.383 . S
C733 C734 1.394 . S
C734 C733 1.394 . S
C734 C735 1.378 . S
C734 H762 0.931 . S
C735 C730 1.377 . S
C735 C734 1.378 . S
C735 H763 0.931 . S
C736 O750 1.259 1_554 S
C736 O751 1.270 . S
C737 O752 1.251 . S
C737 O753 1.251 1_556 S
C738 Eu739 2.835 . S
C738 C740 1.500 . S
C738 O754 1.257 . S
C738 O755 1.260 . S
Eu739 C738 2.835 . S
Eu739 O751 2.355 . S
Eu739 O753 2.374 . S
Eu739 O754 2.473 . S
Eu739 O755 2.480 . S
Eu739 O756 2.430 . S
Eu739 O757 2.670 1_554 S
Eu739 O758 2.394 . S
C740 C738 1.500 . S
C740 C741 1.377 . S
C740 C745 1.377 . S
C741 C740 1.377 . S
C741 C742 1.395 . S
C741 H764 0.931 . S
C742 C741 1.395 . S
C742 C743 1.383 . S
C742 H765 0.931 . S
C743 C742 1.383 . S
C743 C744 1.394 . S
C744 C743 1.394 . S
C744 C745 1.378 . S
C744 H766 0.931 . S
C745 C740 1.377 . S
C745 C744 1.378 . S
C745 H767 0.931 . S
C746 O756 1.259 1_556 S
C746 O757 1.270 . S
C747 O758 1.251 . S
C747 O759 1.259 . S
O748 C728 1.257 . S
O748 Eu729 2.473 . S
O749 C728 1.260 . S
O749 Eu729 2.480 . S
O750 Eu729 2.430 . S
O750 C736 1.259 1_556 S
O751 Eu729 2.670 1_554 S
O751 C736 1.270 . S
O751 Eu739 2.355 . S
O752 Eu729 2.394 . S
O752 C737 1.251 . S
O753 C737 1.251 1_554 S
O753 Eu739 2.374 . S
O754 C738 1.257 . S
O754 Eu739 2.473 . S
O755 C738 1.260 . S
O755 Eu739 2.480 . S
O756 Eu739 2.430 . S
O756 C746 1.259 1_554 S
O757 Eu729 2.355 . S
O757 Eu739 2.670 1_556 S
O757 C746 1.270 . S
O758 Eu739 2.394 . S
O758 C747 1.251 . S
O759 Eu729 2.368 1_554 S
O759 C747 1.259 . S
H760 C731 0.931 . S
H761 C732 0.931 . S
H762 C734 0.931 . S
H763 C735 0.931 . S
H764 C741 0.931 . S
H765 C742 0.931 . S
H766 C744 0.931 . S
H767 C745 0.931 . S
C768 Eu769 2.835 . S
C768 C770 1.500 . S
C768 O788 1.257 . S
C768 O789 1.260 . S
Eu769 C768 2.835 . S
Eu769 O788 2.473 . S
Eu769 O789 2.480 . S
Eu769 O790 2.430 . S
Eu769 O791 2.670 . S
Eu769 O792 2.394 . S
Eu769 O797 2.355 . S
Eu769 O799 2.374 . S
C770 C768 1.500 . S
C770 C771 1.377 . S
C770 C775 1.377 . S
C771 C770 1.377 . S
C771 C772 1.395 . S
C771 H800 0.931 . S
C772 C771 1.395 . S
C772 C773 1.383 . S
C772 H801 0.931 . S
C773 C772 1.383 . S
C773 C774 1.394 . S
C774 C773 1.394 . S
C774 C775 1.378 . S
C774 H802 0.931 . S
C775 C770 1.377 . S
C775 C774 1.378 . S
C775 H803 0.931 . S
C776 O790 1.259 . S
C776 O791 1.270 . S
C777 O792 1.251 . S
C777 O793 1.251 . S
C778 Eu779 2.835 . S
C778 C780 1.500 . S
C778 O794 1.257 . S
C778 O795 1.260 . S
Eu779 C778 2.835 . S
Eu779 O791 2.355 . S
Eu779 O793 2.374 . S
Eu779 O794 2.473 . S
Eu779 O795 2.480 . S
Eu779 O796 2.430 . S
Eu779 O797 2.670 . S
Eu779 O798 2.394 . S
C780 C778 1.500 . S
C780 C781 1.377 . S
C780 C785 1.377 . S
C781 C780 1.377 . S
C781 C782 1.395 . S
C781 H804 0.931 . S
C782 C781 1.395 . S
C782 C783 1.383 . S
C782 H805 0.931 . S
C783 C782 1.383 . S
C783 C784 1.394 . S
C784 C783 1.394 . S
C784 C785 1.378 . S
C784 H806 0.931 . S
C785 C780 1.377 . S
C785 C784 1.378 . S
C785 H807 0.931 . S
C786 O796 1.259 . S
C786 O797 1.270 . S
C787 O798 1.251 . S
C787 O799 1.251 . S
O788 C768 1.257 . S
O788 Eu769 2.473 . S
O789 C768 1.260 . S
O789 Eu769 2.480 . S
O790 Eu769 2.430 . S
O790 C776 1.259 . S
O791 Eu769 2.670 . S
O791 C776 1.270 . S
O791 Eu779 2.355 . S
O792 Eu769 2.394 . S
O792 C777 1.251 . S
O793 C777 1.251 . S
O793 Eu779 2.374 . S
O794 C778 1.257 . S
O794 Eu779 2.473 . S
O795 C778 1.260 . S
O795 Eu779 2.480 . S
O796 Eu779 2.430 . S
O796 C786 1.259 . S
O797 Eu769 2.355 . S
O797 Eu779 2.670 . S
O797 C786 1.270 . S
O798 Eu779 2.394 . S
O798 C787 1.251 . S
O799 Eu769 2.374 . S
O799 C787 1.251 . S
H800 C771 0.931 . S
H801 C772 0.931 . S
H802 C774 0.931 . S
H803 C775 0.931 . S
H804 C781 0.931 . S
H805 C782 0.931 . S
H806 C784 0.931 . S
H807 C785 0.931 . S
C808 Eu809 2.835 . S
C808 C810 1.500 . S
C808 O828 1.257 . S
C808 O829 1.260 . S
Eu809 C808 2.835 . S
Eu809 O828 2.473 . S
Eu809 O829 2.480 . S
Eu809 O830 2.430 . S
Eu809 O831 2.670 . S
Eu809 O832 2.394 . S
Eu809 O837 2.355 . S
Eu809 O839 2.374 . S
C810 C808 1.500 . S
C810 C811 1.377 . S
C810 C815 1.377 . S
C811 C810 1.377 . S
C811 C812 1.395 . S
C811 H840 0.931 . S
C812 C811 1.395 . S
C812 C813 1.383 . S
C812 H841 0.931 . S
C813 C812 1.383 . S
C813 C814 1.394 . S
C814 C813 1.394 . S
C814 C815 1.378 . S
C814 H842 0.931 . S
C815 C810 1.377 . S
C815 C814 1.378 . S
C815 H843 0.931 . S
C816 O830 1.259 . S
C816 O831 1.270 . S
C817 O832 1.251 . S
C817 O833 1.251 . S
C818 Eu819 2.835 . S
C818 C820 1.500 . S
C818 O834 1.257 . S
C818 O835 1.260 . S
Eu819 C818 2.835 . S
Eu819 O831 2.355 . S
Eu819 O833 2.374 . S
Eu819 O834 2.473 . S
Eu819 O835 2.480 . S
Eu819 O836 2.430 . S
Eu819 O837 2.670 . S
Eu819 O838 2.394 . S
C820 C818 1.500 . S
C820 C821 1.377 . S
C820 C825 1.377 . S
C821 C820 1.377 . S
C821 C822 1.395 . S
C821 H844 0.931 . S
C822 C821 1.395 . S
C822 C823 1.383 . S
C822 H845 0.931 . S
C823 C822 1.383 . S
C823 C824 1.394 . S
C824 C823 1.394 . S
C824 C825 1.378 . S
C824 H846 0.931 . S
C825 C820 1.377 . S
C825 C824 1.378 . S
C825 H847 0.931 . S
C826 O836 1.259 . S
C826 O837 1.270 . S
C827 O838 1.251 . S
C827 O839 1.251 . S
O828 C808 1.257 . S
O828 Eu809 2.473 . S
O829 C808 1.260 . S
O829 Eu809 2.480 . S
O830 Eu809 2.430 . S
O830 C816 1.259 . S
O831 Eu809 2.670 . S
O831 C816 1.270 . S
O831 Eu819 2.355 . S
O832 Eu809 2.394 . S
O832 C817 1.251 . S
O833 C817 1.251 . S
O833 Eu819 2.374 . S
O834 C818 1.257 . S
O834 Eu819 2.473 . S
O835 C818 1.260 . S
O835 Eu819 2.480 . S
O836 Eu819 2.430 . S
O836 C826 1.259 . S
O837 Eu809 2.355 . S
O837 Eu819 2.670 . S
O837 C826 1.270 . S
O838 Eu819 2.394 . S
O838 C827 1.251 . S
O839 Eu809 2.374 . S
O839 C827 1.251 . S
H840 C811 0.931 . S
H841 C812 0.931 . S
H842 C814 0.931 . S
H843 C815 0.931 . S
H844 C821 0.931 . S
H845 C822 0.931 . S
H846 C824 0.931 . S
H847 C825 0.931 . S
C848 Eu849 2.835 . S
C848 C850 1.500 . S
C848 O868 1.257 . S
C848 O869 1.260 . S
Eu849 C848 2.835 . S
Eu849 O868 2.473 . S
Eu849 O869 2.480 . S
Eu849 O870 2.430 . S
Eu849 O871 2.670 . S
Eu849 O872 2.394 . S
Eu849 O877 2.355 . S
Eu849 O879 2.374 . S
C850 C848 1.500 . S
C850 C851 1.377 . S
C850 C855 1.377 . S
C851 C850 1.377 . S
C851 C852 1.395 . S
C851 H880 0.931 . S
C852 C851 1.395 . S
C852 C853 1.383 . S
C852 H881 0.931 . S
C853 C852 1.383 . S
C853 C854 1.394 . S
C854 C853 1.394 . S
C854 C855 1.378 . S
C854 H882 0.931 . S
C855 C850 1.377 . S
C855 C854 1.378 . S
C855 H883 0.931 . S
C856 O870 1.259 . S
C856 O871 1.270 . S
C857 O872 1.251 . S
C857 O873 1.251 . S
C858 Eu859 2.835 . S
C858 C860 1.500 . S
C858 O874 1.257 . S
C858 O875 1.260 . S
Eu859 C858 2.835 . S
Eu859 O871 2.355 . S
Eu859 O873 2.374 . S
Eu859 O874 2.473 . S
Eu859 O875 2.480 . S
Eu859 O876 2.430 . S
Eu859 O877 2.670 . S
Eu859 O878 2.394 . S
C860 C858 1.500 . S
C860 C861 1.377 . S
C860 C865 1.377 . S
C861 C860 1.377 . S
C861 C862 1.395 . S
C861 H884 0.931 . S
C862 C861 1.395 . S
C862 C863 1.383 . S
C862 H885 0.931 . S
C863 C862 1.383 . S
C863 C864 1.394 . S
C864 C863 1.394 . S
C864 C865 1.378 . S
C864 H886 0.931 . S
C865 C860 1.377 . S
C865 C864 1.378 . S
C865 H887 0.931 . S
C866 O876 1.259 . S
C866 O877 1.270 . S
C867 O878 1.251 . S
C867 O879 1.251 . S
O868 C848 1.257 . S
O868 Eu849 2.473 . S
O869 C848 1.260 . S
O869 Eu849 2.480 . S
O870 Eu849 2.430 . S
O870 C856 1.259 . S
O871 Eu849 2.670 . S
O871 C856 1.270 . S
O871 Eu859 2.355 . S
O872 Eu849 2.394 . S
O872 C857 1.251 . S
O873 C857 1.251 . S
O873 Eu859 2.374 . S
O874 C858 1.257 . S
O874 Eu859 2.473 . S
O875 C858 1.260 . S
O875 Eu859 2.480 . S
O876 Eu859 2.430 . S
O876 C866 1.259 . S
O877 Eu849 2.355 . S
O877 Eu859 2.670 . S
O877 C866 1.270 . S
O878 Eu859 2.394 . S
O878 C867 1.251 . S
O879 Eu849 2.374 . S
O879 C867 1.251 . S
H880 C851 0.931 . S
H881 C852 0.931 . S
H882 C854 0.931 . S
H883 C855 0.931 . S
H884 C861 0.931 . S
H885 C862 0.931 . S
H886 C864 0.931 . S
H887 C865 0.931 . S
C888 Eu889 2.835 . S
C888 C890 1.500 . S
C888 O908 1.257 . S
C888 O909 1.260 . S
Eu889 C888 2.835 . S
Eu889 O908 2.473 . S
Eu889 O909 2.480 . S
Eu889 O910 2.430 . S
Eu889 O911 2.670 . S
Eu889 O912 2.394 . S
Eu889 O917 2.355 . S
Eu889 O919 2.374 . S
C890 C888 1.500 . S
C890 C891 1.377 . S
C890 C895 1.377 . S
C891 C890 1.377 . S
C891 C892 1.395 . S
C891 H920 0.931 . S
C892 C891 1.395 . S
C892 C893 1.383 . S
C892 H921 0.931 . S
C893 C892 1.383 . S
C893 C894 1.394 . S
C894 C893 1.394 . S
C894 C895 1.378 . S
C894 H922 0.931 . S
C895 C890 1.377 . S
C895 C894 1.378 . S
C895 H923 0.931 . S
C896 O910 1.259 . S
C896 O911 1.270 . S
C897 O912 1.251 . S
C897 O913 1.251 . S
C898 Eu899 2.835 . S
C898 C900 1.500 . S
C898 O914 1.257 . S
C898 O915 1.260 . S
Eu899 C898 2.835 . S
Eu899 O911 2.355 . S
Eu899 O913 2.374 . S
Eu899 O914 2.473 . S
Eu899 O915 2.480 . S
Eu899 O916 2.430 . S
Eu899 O917 2.670 . S
Eu899 O918 2.394 . S
C900 C898 1.500 . S
C900 C901 1.377 . S
C900 C905 1.377 . S
C901 C900 1.377 . S
C901 C902 1.395 . S
C901 H924 0.931 . S
C902 C901 1.395 . S
C902 C903 1.383 . S
C902 H925 0.931 . S
C903 C902 1.383 . S
C903 C904 1.394 . S
C904 C903 1.394 . S
C904 C905 1.378 . S
C904 H926 0.931 . S
C905 C900 1.377 . S
C905 C904 1.378 . S
C905 H927 0.931 . S
C906 O916 1.259 . S
C906 O917 1.270 . S
C907 O918 1.251 . S
C907 O919 1.251 . S
O908 C888 1.257 . S
O908 Eu889 2.473 . S
O909 C888 1.260 . S
O909 Eu889 2.480 . S
O910 Eu889 2.430 . S
O910 C896 1.259 . S
O911 Eu889 2.670 . S
O911 C896 1.270 . S
O911 Eu899 2.355 . S
O912 Eu889 2.394 . S
O912 C897 1.251 . S
O913 C897 1.251 . S
O913 Eu899 2.374 . S
O914 C898 1.257 . S
O914 Eu899 2.473 . S
O915 C898 1.260 . S
O915 Eu899 2.480 . S
O916 Eu899 2.430 . S
O916 C906 1.259 . S
O917 Eu889 2.355 . S
O917 Eu899 2.670 . S
O917 C906 1.270 . S
O918 Eu899 2.394 . S
O918 C907 1.251 . S
O919 Eu889 2.374 . S
O919 C907 1.251 . S
H920 C891 0.931 . S
H921 C892 0.931 . S
H922 C894 0.931 . S
H923 C895 0.931 . S
H924 C901 0.931 . S
H925 C902 0.931 . S
H926 C904 0.931 . S
H927 C905 0.931 . S
C928 Eu929 2.835 . S
C928 C930 1.500 . S
C928 O948 1.257 . S
C928 O949 1.260 . S
Eu929 C928 2.835 . S
Eu929 O948 2.473 . S
Eu929 O949 2.480 . S
Eu929 O950 2.430 . S
Eu929 O951 2.670 . S
Eu929 O952 2.394 . S
Eu929 O957 2.355 . S
Eu929 O959 2.374 . S
C930 C928 1.500 . S
C930 C931 1.377 . S
C930 C935 1.377 . S
C931 C930 1.377 . S
C931 C932 1.395 . S
C931 H960 0.931 . S
C932 C931 1.395 . S
C932 C933 1.383 . S
C932 H961 0.931 . S
C933 C932 1.383 . S
C933 C934 1.394 . S
C934 C933 1.394 . S
C934 C935 1.378 . S
C934 H962 0.931 . S
C935 C930 1.377 . S
C935 C934 1.378 . S
C935 H963 0.931 . S
C936 O950 1.259 . S
C936 O951 1.270 . S
C937 O952 1.251 . S
C937 O953 1.251 . S
C938 Eu939 2.835 . S
C938 C940 1.500 . S
C938 O954 1.257 . S
C938 O955 1.260 . S
Eu939 C938 2.835 . S
Eu939 O951 2.355 . S
Eu939 O953 2.374 . S
Eu939 O954 2.473 . S
Eu939 O955 2.480 . S
Eu939 O956 2.430 . S
Eu939 O957 2.670 . S
Eu939 O958 2.394 . S
C940 C938 1.500 . S
C940 C941 1.377 . S
C940 C945 1.377 . S
C941 C940 1.377 . S
C941 C942 1.395 . S
C941 H964 0.931 . S
C942 C941 1.395 . S
C942 C943 1.383 . S
C942 H965 0.931 . S
C943 C942 1.383 . S
C943 C944 1.394 . S
C944 C943 1.394 . S
C944 C945 1.378 . S
C944 H966 0.931 . S
C945 C940 1.377 . S
C945 C944 1.378 . S
C945 H967 0.931 . S
C946 O956 1.259 . S
C946 O957 1.270 . S
C947 O958 1.251 . S
C947 O959 1.251 . S
O948 C928 1.257 . S
O948 Eu929 2.473 . S
O949 C928 1.260 . S
O949 Eu929 2.480 . S
O950 Eu929 2.430 . S
O950 C936 1.259 . S
O951 Eu929 2.670 . S
O951 C936 1.270 . S
O951 Eu939 2.355 . S
O952 Eu929 2.394 . S
O952 C937 1.251 . S
O953 C937 1.251 . S
O953 Eu939 2.374 . S
O954 C938 1.257 . S
O954 Eu939 2.473 . S
O955 C938 1.260 . S
O955 Eu939 2.480 . S
O956 Eu939 2.430 . S
O956 C946 1.259 . S
O957 Eu929 2.355 . S
O957 Eu939 2.670 . S
O957 C946 1.270 . S
O958 Eu939 2.394 . S
O958 C947 1.251 . S
O959 Eu929 2.374 . S
O959 C947 1.251 . S
H960 C931 0.931 . S
H961 C932 0.931 . S
H962 C934 0.931 . S
H963 C935 0.931 . S
H964 C941 0.931 . S
H965 C942 0.931 . S
H966 C944 0.931 . S
H967 C945 0.931 . S
C968 Eu969 2.835 . S
C968 C970 1.500 . S
C968 O988 1.257 . S
C968 O989 1.260 . S
Eu969 C968 2.835 . S
Eu969 O988 2.473 . S
Eu969 O989 2.480 . S
Eu969 O990 2.430 . S
Eu969 O991 2.670 . S
Eu969 O992 2.394 . S
Eu969 O997 2.355 . S
Eu969 O999 2.374 . S
C970 C968 1.500 . S
C970 C971 1.377 . S
C970 C975 1.377 . S
C971 C970 1.377 . S
C971 C972 1.395 . S
C971 H1000 0.931 . S
C972 C971 1.395 . S
C972 C973 1.383 . S
C972 H1001 0.931 . S
C973 C972 1.383 . S
C973 C974 1.394 . S
C974 C973 1.394 . S
C974 C975 1.378 . S
C974 H1002 0.931 . S
C975 C970 1.377 . S
C975 C974 1.378 . S
C975 H1003 0.931 . S
C976 O990 1.259 . S
C976 O991 1.270 . S
C977 O992 1.251 . S
C977 O993 1.251 . S
C978 Eu979 2.835 . S
C978 C980 1.500 . S
C978 O994 1.257 . S
C978 O995 1.260 . S
Eu979 C978 2.835 . S
Eu979 O991 2.355 . S
Eu979 O993 2.374 . S
Eu979 O994 2.473 . S
Eu979 O995 2.480 . S
Eu979 O996 2.430 . S
Eu979 O997 2.670 . S
Eu979 O998 2.394 . S
C980 C978 1.500 . S
C980 C981 1.377 . S
C980 C985 1.377 . S
C981 C980 1.377 . S
C981 C982 1.395 . S
C981 H1004 0.931 . S
C982 C981 1.395 . S
C982 C983 1.383 . S
C982 H1005 0.931 . S
C983 C982 1.383 . S
C983 C984 1.394 . S
C984 C983 1.394 . S
C984 C985 1.378 . S
C984 H1006 0.931 . S
C985 C980 1.377 . S
C985 C984 1.378 . S
C985 H1007 0.931 . S
C986 O996 1.259 . S
C986 O997 1.270 . S
C987 O998 1.251 . S
C987 O999 1.251 . S
O988 C968 1.257 . S
O988 Eu969 2.473 . S
O989 C968 1.260 . S
O989 Eu969 2.480 . S
O990 Eu969 2.430 . S
O990 C976 1.259 . S
O991 Eu969 2.670 . S
O991 C976 1.270 . S
O991 Eu979 2.355 . S
O992 Eu969 2.394 . S
O992 C977 1.251 . S
O993 C977 1.251 . S
O993 Eu979 2.374 . S
O994 C978 1.257 . S
O994 Eu979 2.473 . S
O995 C978 1.260 . S
O995 Eu979 2.480 . S
O996 Eu979 2.430 . S
O996 C986 1.259 . S
O997 Eu969 2.355 . S
O997 Eu979 2.670 . S
O997 C986 1.270 . S
O998 Eu979 2.394 . S
O998 C987 1.251 . S
O999 Eu969 2.374 . S
O999 C987 1.251 . S
H1000 C971 0.931 . S
H1001 C972 0.931 . S
H1002 C974 0.931 . S
H1003 C975 0.931 . S
H1004 C981 0.931 . S
H1005 C982 0.931 . S
H1006 C984 0.931 . S
H1007 C985 0.931 . S
C1008 C1009 1.349 . S
C1008 C1010 1.327 . S
C1008 H1033 0.950 . S
C1009 C1008 1.349 . S
C1009 C1025 1.349 . S
C1010 C1008 1.327 . S
C1010 C1029 1.429 . S
C1010 H1034 0.950 . S
C1011 C1028 1.574 . S
C1011 C1030 1.368 . S
C1011 H1035 0.949 . S
H1012 C1016 0.949 . S
C1013 C1014 1.349 . S
C1013 C1015 1.327 . S
C1013 H1036 0.950 . S
C1014 C1013 1.349 . S
C1014 C1026 1.349 . S
C1015 C1013 1.327 . S
C1015 C1031 1.429 . S
C1015 H1037 0.950 . S
C1016 H1012 0.949 . S
C1016 C1024 1.574 . S
C1016 C1032 1.368 . S
H1017 C1025 0.950 . S
H1018 C1023 0.950 . S
H1019 C1024 0.949 . S
H1020 C1026 0.950 1_556 S
H1021 C1027 0.950 . S
H1022 C1028 0.949 . S
C1023 H1018 0.950 . S
C1023 C1025 1.327 . S
C1023 C1029 1.429 . S
C1024 C1016 1.574 . S
C1024 H1019 0.949 . S
C1024 C1030 1.368 . S
C1025 C1009 1.349 . S
C1025 H1017 0.950 . S
C1025 C1023 1.327 . S
C1026 C1014 1.349 . S
C1026 H1020 0.950 1_554 S
C1026 C1027 1.327 . S
C1027 H1021 0.950 . S
C1027 C1026 1.327 . S
C1027 C1031 1.429 . S
C1028 C1011 1.574 . S
C1028 H1022 0.949 . S
C1028 C1032 1.368 . S
C1029 C1010 1.429 . S
C1029 C1023 1.429 . S
C1029 C1030 1.523 . S
C1030 C1011 1.368 . S
C1030 C1024 1.368 . S
C1030 C1029 1.523 . S
C1031 C1015 1.429 . S
C1031 C1027 1.429 . S
C1031 C1032 1.523 . S
C1032 C1016 1.368 . S
C1032 C1028 1.368 . S
C1032 C1031 1.523 . S
H1033 C1008 0.950 . S
H1034 C1010 0.950 . S
H1035 C1011 0.949 . S
H1036 C1013 0.950 . S
H1037 C1015 0.950 . S
C1038 C1039 1.349 . S
C1038 C1040 1.327 . S
C1038 H1063 0.950 . S
C1039 C1038 1.349 . S
C1039 C1055 1.349 . S
C1040 C1038 1.327 . S
C1040 C1059 1.429 . S
C1040 H1064 0.950 . S
C1041 C1058 1.574 . S
C1041 C1060 1.368 . S
C1041 H1065 0.949 . S
H1042 C1046 0.949 . S
C1043 C1044 1.349 . S
C1043 C1045 1.327 . S
C1043 H1066 0.950 . S
C1044 C1043 1.349 . S
C1044 C1056 1.349 . S
C1045 C1043 1.327 . S
C1045 C1061 1.429 . S
C1045 H1067 0.950 . S
C1046 H1042 0.949 . S
C1046 C1054 1.574 . S
C1046 C1062 1.368 . S
H1047 C1055 0.950 . S
H1048 C1053 0.950 . S
H1049 C1054 0.949 . S
H1050 C1056 0.950 . S
H1051 C1057 0.950 . S
H1052 C1058 0.949 . S
C1053 H1048 0.950 . S
C1053 C1055 1.327 . S
C1053 C1059 1.429 . S
C1054 C1046 1.574 . S
C1054 H1049 0.949 . S
C1054 C1060 1.368 . S
C1055 C1039 1.349 . S
C1055 H1047 0.950 . S
C1055 C1053 1.327 . S
C1056 C1044 1.349 . S
C1056 H1050 0.950 . S
C1056 C1057 1.327 . S
C1057 H1051 0.950 . S
C1057 C1056 1.327 . S
C1057 C1061 1.429 . S
C1058 C1041 1.574 . S
C1058 H1052 0.949 . S
C1058 C1062 1.368 . S
C1059 C1040 1.429 . S
C1059 C1053 1.429 . S
C1059 C1060 1.523 . S
C1060 C1041 1.368 . S
C1060 C1054 1.368 . S
C1060 C1059 1.523 . S
C1061 C1045 1.429 . S
C1061 C1057 1.429 . S
C1061 C1062 1.523 . S
C1062 C1046 1.368 . S
C1062 C1058 1.368 . S
C1062 C1061 1.523 . S
H1063 C1038 0.950 . S
H1064 C1040 0.950 . S
H1065 C1041 0.949 . S
H1066 C1043 0.950 . S
H1067 C1045 0.950 . S
C1068 C1069 1.349 . S
C1068 C1070 1.327 . S
C1068 H1093 0.950 . S
C1069 C1068 1.349 . S
C1069 C1085 1.349 . S
C1070 C1068 1.327 . S
C1070 C1089 1.429 . S
C1070 H1094 0.950 . S
C1071 C1088 1.574 . S
C1071 C1090 1.368 . S
C1071 H1095 0.949 . S
H1072 C1076 0.949 . S
C1073 C1074 1.349 . S
C1073 C1075 1.327 . S
C1073 H1096 0.950 . S
C1074 C1073 1.349 . S
C1074 C1086 1.349 . S
C1075 C1073 1.327 . S
C1075 C1091 1.429 . S
C1075 H1097 0.950 . S
C1076 H1072 0.949 . S
C1076 C1084 1.574 . S
C1076 C1092 1.368 . S
H1077 C1085 0.950 . S
H1078 C1083 0.950 . S
H1079 C1084 0.949 . S
H1080 C1086 0.950 . S
H1081 C1087 0.950 . S
H1082 C1088 0.949 . S
C1083 H1078 0.950 . S
C1083 C1085 1.327 . S
C1083 C1089 1.429 . S
C1084 C1076 1.574 . S
C1084 H1079 0.949 . S
C1084 C1090 1.368 . S
C1085 C1069 1.349 . S
C1085 H1077 0.950 . S
C1085 C1083 1.327 . S
C1086 C1074 1.349 . S
C1086 H1080 0.950 . S
C1086 C1087 1.327 . S
C1087 H1081 0.950 . S
C1087 C1086 1.327 . S
C1087 C1091 1.429 . S
C1088 C1071 1.574 . S
C1088 H1082 0.949 . S
C1088 C1092 1.368 . S
C1089 C1070 1.429 . S
C1089 C1083 1.429 . S
C1089 C1090 1.523 . S
C1090 C1071 1.368 . S
C1090 C1084 1.368 . S
C1090 C1089 1.523 . S
C1091 C1075 1.429 . S
C1091 C1087 1.429 . S
C1091 C1092 1.523 . S
C1092 C1076 1.368 . S
C1092 C1088 1.368 . S
C1092 C1091 1.523 . S
H1093 C1068 0.950 . S
H1094 C1070 0.950 . S
H1095 C1071 0.949 . S
H1096 C1073 0.950 . S
H1097 C1075 0.950 . S
C1098 C1099 1.349 . S
C1098 C1100 1.327 . S
C1098 H1123 0.950 . S
C1099 C1098 1.349 . S
C1099 C1115 1.349 . S
C1100 C1098 1.327 . S
C1100 C1119 1.429 . S
C1100 H1124 0.950 . S
C1101 C1118 1.574 . S
C1101 C1120 1.368 . S
C1101 H1125 0.949 . S
H1102 C1106 0.949 . S
C1103 C1104 1.349 . S
C1103 C1105 1.327 . S
C1103 H1126 0.950 . S
C1104 C1103 1.349 . S
C1104 C1116 1.349 . S
C1105 C1103 1.327 . S
C1105 C1121 1.429 . S
C1105 H1127 0.950 . S
C1106 H1102 0.949 . S
C1106 C1114 1.574 . S
C1106 C1122 1.368 . S
H1107 C1115 0.950 . S
H1108 C1113 0.950 . S
H1109 C1114 0.949 . S
H1110 C1116 0.950 1_554 S
H1111 C1117 0.977 . S
H1112 C1118 0.949 . S
C1113 H1108 0.950 . S
C1113 C1115 1.327 . S
C1113 C1119 1.429 . S
C1114 C1106 1.574 . S
C1114 H1109 0.949 . S
C1114 C1120 1.368 . S
C1115 C1099 1.349 . S
C1115 H1107 0.950 . S
C1115 C1113 1.327 . S
C1116 C1104 1.349 . S
C1116 H1110 0.950 1_556 S
C1116 C1117 1.327 . S
C1117 H1111 0.977 . S
C1117 C1116 1.327 . S
C1117 C1121 1.429 . S
C1118 C1101 1.574 . S
C1118 H1112 0.949 . S
C1118 C1122 1.368 . S
C1119 C1100 1.429 . S
C1119 C1113 1.429 . S
C1119 C1120 1.523 . S
C1120 C1101 1.368 . S
C1120 C1114 1.368 . S
C1120 C1119 1.523 . S
C1121 C1105 1.429 . S
C1121 C1117 1.429 . S
C1121 C1122 1.523 . S
C1122 C1106 1.368 . S
C1122 C1118 1.368 . S
C1122 C1121 1.523 . S
H1123 C1098 0.950 . S
H1124 C1100 0.950 . S
H1125 C1101 0.949 . S
H1126 C1103 0.950 . S
H1127 C1105 0.950 . S
C1128 C1129 1.349 . S
C1128 C1130 1.327 . S
C1128 H1153 0.950 . S
C1129 C1128 1.349 . S
C1129 C1145 1.349 . S
C1130 C1128 1.327 . S
C1130 C1149 1.429 . S
C1130 H1154 0.950 . S
C1131 C1148 1.574 . S
C1131 C1150 1.368 . S
C1131 H1155 0.949 . S
H1132 C1136 0.949 . S
C1133 C1134 1.349 . S
C1133 C1135 1.327 . S
C1133 H1156 0.950 . S
C1134 C1133 1.349 . S
C1134 C1146 1.349 . S
C1135 C1133 1.327 . S
C1135 C1151 1.429 . S
C1135 H1157 0.950 . S
C1136 H1132 0.949 . S
C1136 C1144 1.574 . S
C1136 C1152 1.368 . S
H1137 C1145 0.950 . S
H1138 C1143 0.950 . S
H1139 C1144 0.949 . S
H1140 C1146 0.950 . S
H1141 C1147 0.950 . S
H1142 C1148 0.949 . S
C1143 H1138 0.950 . S
C1143 C1145 1.327 . S
C1143 C1149 1.429 . S
C1144 C1136 1.574 . S
C1144 H1139 0.949 . S
C1144 C1150 1.368 . S
C1145 C1129 1.349 . S
C1145 H1137 0.950 . S
C1145 C1143 1.327 . S
C1146 C1134 1.349 . S
C1146 H1140 0.950 . S
C1146 C1147 1.327 . S
C1147 H1141 0.950 . S
C1147 C1146 1.327 . S
C1147 C1151 1.429 . S
C1148 C1131 1.574 . S
C1148 H1142 0.949 . S
C1148 C1152 1.368 . S
C1149 C1130 1.429 . S
C1149 C1143 1.429 . S
C1149 C1150 1.523 . S
C1150 C1131 1.368 . S
C1150 C1144 1.368 . S
C1150 C1149 1.523 . S
C1151 C1135 1.429 . S
C1151 C1147 1.429 . S
C1151 C1152 1.523 . S
C1152 C1136 1.368 . S
C1152 C1148 1.368 . S
C1152 C1151 1.523 . S
H1153 C1128 0.950 . S
H1154 C1130 0.950 . S
H1155 C1131 0.949 . S
H1156 C1133 0.950 . S
H1157 C1135 0.950 . S
C1158 C1159 1.349 . S
C1158 C1160 1.327 . S
C1158 H1183 0.950 . S
C1159 C1158 1.349 . S
C1159 C1175 1.349 . S
C1160 C1158 1.327 . S
C1160 C1179 1.429 . S
C1160 H1184 0.950 . S
C1161 C1178 1.574 . S
C1161 C1180 1.368 . S
C1161 H1185 0.949 . S
H1162 C1166 0.949 . S
C1163 C1164 1.349 . S
C1163 C1165 1.327 . S
C1163 H1186 0.950 . S
C1164 C1163 1.349 . S
C1164 C1176 1.349 1_556 S
C1165 C1163 1.327 . S
C1165 C1181 1.429 . S
C1165 H1187 0.950 . S
C1166 H1162 0.949 . S
C1166 C1174 1.574 . S
C1166 C1182 1.368 . S
H1167 C1175 0.950 . S
H1168 C1173 0.950 . S
H1169 C1174 0.949 . S
H1170 C1176 0.950 . S
H1171 C1177 0.950 1_554 S
H1172 C1178 0.949 . S
C1173 H1168 0.950 . S
C1173 C1175 1.327 . S
C1173 C1179 1.429 . S
C1174 C1166 1.574 . S
C1174 H1169 0.949 . S
C1174 C1180 1.368 . S
C1175 C1159 1.349 . S
C1175 H1167 0.950 . S
C1175 C1173 1.327 . S
C1176 C1164 1.349 1_554 S
C1176 H1170 0.950 . S
C1176 C1177 1.327 1_554 S
C1177 H1171 0.950 1_556 S
C1177 C1176 1.327 1_556 S
C1177 C1181 1.429 . S
C1178 C1161 1.574 . S
C1178 H1172 0.949 . S
C1178 C1182 1.368 . S
C1179 C1160 1.429 . S
C1179 C1173 1.429 . S
C1179 C1180 1.523 . S
C1180 C1161 1.368 . S
C1180 C1174 1.368 . S
C1180 C1179 1.523 . S
C1181 C1165 1.429 . S
C1181 C1177 1.429 . S
C1181 C1182 1.523 . S
C1182 C1166 1.368 . S
C1182 C1178 1.368 . S
C1182 C1181 1.523 . S
H1183 C1158 0.950 . S
H1184 C1160 0.950 . S
H1185 C1161 0.949 . S
H1186 C1163 0.950 . S
H1187 C1165 0.950 . S
C1188 C1189 1.349 . S
C1188 C1190 1.327 . S
C1188 H1213 0.950 . S
C1189 C1188 1.349 . S
C1189 C1205 1.349 . S
C1190 C1188 1.327 . S
C1190 C1209 1.429 . S
C1190 H1214 0.950 . S
C1191 C1208 1.574 . S
C1191 C1210 1.368 . S
C1191 H1215 0.949 . S
H1192 C1196 0.949 . S
C1193 C1194 1.349 . S
C1193 C1195 1.327 . S
C1193 H1216 0.950 . S
C1194 C1193 1.349 . S
C1194 C1206 1.349 . S
C1195 C1193 1.327 . S
C1195 C1211 1.429 . S
C1195 H1217 0.950 . S
C1196 H1192 0.949 . S
C1196 C1204 1.574 . S
C1196 C1212 1.368 . S
H1197 C1205 0.950 . S
H1198 C1203 0.950 . S
H1199 C1204 0.949 . S
H1200 C1206 0.950 1_554 S
H1201 C1207 0.994 . S
H1202 C1208 0.949 . S
C1203 H1198 0.950 . S
C1203 C1205 1.327 . S
C1203 C1209 1.429 . S
C1204 C1196 1.574 . S
C1204 H1199 0.949 . S
C1204 C1210 1.368 . S
C1205 C1189 1.349 . S
C1205 H1197 0.950 . S
C1205 C1203 1.327 . S
C1206 C1194 1.349 . S
C1206 H1200 0.950 1_556 S
C1206 C1207 1.327 . S
C1207 H1201 0.994 . S
C1207 C1206 1.327 . S
C1207 C1211 1.429 . S
C1208 C1191 1.574 . S
C1208 H1202 0.949 . S
C1208 C1212 1.368 . S
C1209 C1190 1.429 . S
C1209 C1203 1.429 . S
C1209 C1210 1.523 . S
C1210 C1191 1.368 . S
C1210 C1204 1.368 . S
C1210 C1209 1.523 . S
C1211 C1195 1.429 . S
C1211 C1207 1.429 . S
C1211 C1212 1.523 . S
C1212 C1196 1.368 . S
C1212 C1208 1.368 . S
C1212 C1211 1.523 . S
H1213 C1188 0.950 . S
H1214 C1190 0.950 . S
H1215 C1191 0.949 . S
H1216 C1193 0.950 . S
H1217 C1195 0.950 . S
C1218 C1219 1.349 . S
C1218 C1220 1.327 . S
C1218 H1243 0.950 . S
C1219 C1218 1.349 . S
C1219 C1235 1.349 . S
C1220 C1218 1.327 . S
C1220 C1239 1.429 . S
C1220 H1244 0.950 . S
C1221 C1238 1.574 . S
C1221 C1240 1.368 . S
C1221 H1245 0.949 . S
H1222 C1226 0.949 . S
C1223 C1224 1.349 . S
C1223 C1225 1.327 . S
C1223 H1246 0.950 . S
C1224 C1223 1.349 . S
C1224 C1236 1.349 . S
C1225 C1223 1.327 . S
C1225 C1241 1.429 . S
C1225 H1247 0.950 . S
C1226 H1222 0.949 . S
C1226 C1234 1.574 . S
C1226 C1242 1.368 . S
H1227 C1235 0.950 . S
H1228 C1233 0.950 . S
H1229 C1234 0.949 . S
H1230 C1236 0.950 . S
H1231 C1237 0.950 . S
H1232 C1238 0.949 . S
C1233 H1228 0.950 . S
C1233 C1235 1.327 . S
C1233 C1239 1.429 . S
C1234 C1226 1.574 . S
C1234 H1229 0.949 . S
C1234 C1240 1.368 . S
C1235 C1219 1.349 . S
C1235 H1227 0.950 . S
C1235 C1233 1.327 . S
C1236 C1224 1.349 . S
C1236 H1230 0.950 . S
C1236 C1237 1.327 . S
C1237 H1231 0.950 . S
C1237 C1236 1.327 . S
C1237 C1241 1.429 . S
C1238 C1221 1.574 . S
C1238 H1232 0.949 . S
C1238 C1242 1.368 . S
C1239 C1220 1.429 . S
C1239 C1233 1.429 . S
C1239 C1240 1.523 . S
C1240 C1221 1.368 . S
C1240 C1234 1.368 . S
C1240 C1239 1.523 . S
C1241 C1225 1.429 . S
C1241 C1237 1.429 . S
C1241 C1242 1.523 . S
C1242 C1226 1.368 . S
C1242 C1238 1.368 . S
C1242 C1241 1.523 . S
H1243 C1218 0.950 . S
H1244 C1220 0.950 . S
H1245 C1221 0.949 . S
H1246 C1223 0.950 . S
H1247 C1225 0.950 . S
C1248 C1249 1.349 . S
C1248 C1250 1.327 . S
C1248 H1273 0.950 . S
C1249 C1248 1.349 . S
C1249 C1265 1.349 . S
C1250 C1248 1.327 . S
C1250 C1269 1.429 . S
C1250 H1274 0.950 . S
C1251 C1268 1.574 . S
C1251 C1270 1.368 . S
C1251 H1275 0.949 . S
H1252 C1256 0.949 . S
C1253 C1254 1.320 1_554 S
C1253 C1255 1.324 1_554 S
C1253 H1276 0.983 . S
C1254 C1253 1.320 1_556 S
C1254 C1266 1.349 . S
C1255 C1253 1.324 1_556 S
C1255 C1271 1.429 . S
C1255 H1277 0.950 1_556 S
C1256 H1252 0.949 . S
C1256 C1264 1.574 . S
C1256 C1272 1.368 . S
H1257 C1265 0.950 . S
H1258 C1263 0.950 . S
H1259 C1264 0.949 . S
H1260 C1266 0.950 . S
H1261 C1267 0.950 . S
H1262 C1268 0.914 1_554 S
C1263 H1258 0.950 . S
C1263 C1265 1.327 . S
C1263 C1269 1.429 . S
C1264 C1256 1.574 . S
C1264 H1259 0.949 . S
C1264 C1270 1.368 . S
C1265 C1249 1.349 . S
C1265 H1257 0.950 . S
C1265 C1263 1.327 . S
C1266 C1254 1.349 . S
C1266 H1260 0.950 . S
C1266 C1267 1.327 . S
C1267 H1261 0.950 . S
C1267 C1266 1.327 . S
C1267 C1271 1.429 . S
C1268 C1251 1.574 . S
C1268 H1262 0.914 1_556 S
C1268 C1272 1.368 . S
C1269 C1250 1.429 . S
C1269 C1263 1.429 . S
C1269 C1270 1.523 . S
C1270 C1251 1.368 . S
C1270 C1264 1.368 . S
C1270 C1269 1.523 . S
C1271 C1255 1.429 . S
C1271 C1267 1.429 . S
C1271 C1272 1.523 . S
C1272 C1256 1.368 . S
C1272 C1268 1.368 . S
C1272 C1271 1.523 . S
H1273 C1248 0.950 . S
H1274 C1250 0.950 . S
H1275 C1251 0.949 . S
H1276 C1253 0.983 . S
H1277 C1255 0.950 1_554 S
C1278 C1279 1.349 . S
C1278 C1280 1.327 . S
C1278 H1303 0.950 . S
C1279 C1278 1.349 . S
C1279 C1295 1.349 . S
C1280 C1278 1.327 . S
C1280 C1299 1.429 . S
C1280 H1304 0.950 . S
C1281 C1298 1.574 . S
C1281 C1300 1.368 . S
C1281 H1305 0.949 . S
H1282 C1286 0.949 . S
C1283 C1284 1.349 . S
C1283 C1285 1.327 . S
C1283 H1306 0.950 . S
C1284 C1283 1.349 . S
C1284 C1296 1.349 . S
C1285 C1283 1.327 . S
C1285 C1301 1.429 . S
C1285 H1307 0.950 . S
C1286 H1282 0.949 . S
C1286 C1294 1.574 . S
C1286 C1302 1.368 . S
H1287 C1295 0.950 . S
H1288 C1293 0.950 . S
H1289 C1294 0.949 . S
H1290 C1296 0.950 . S
H1291 C1297 0.950 . S
H1292 C1298 0.949 . S
C1293 H1288 0.950 . S
C1293 C1295 1.327 . S
C1293 C1299 1.429 . S
C1294 C1286 1.574 . S
C1294 H1289 0.949 . S
C1294 C1300 1.368 . S
C1295 C1279 1.349 . S
C1295 H1287 0.950 . S
C1295 C1293 1.327 . S
C1296 C1284 1.349 . S
C1296 H1290 0.950 . S
C1296 C1297 1.327 . S
C1297 H1291 0.950 . S
C1297 C1296 1.327 . S
C1297 C1301 1.429 . S
C1298 C1281 1.574 . S
C1298 H1292 0.949 . S
C1298 C1302 1.368 . S
C1299 C1280 1.429 . S
C1299 C1293 1.429 . S
C1299 C1300 1.523 . S
C1300 C1281 1.368 . S
C1300 C1294 1.368 . S
C1300 C1299 1.523 . S
C1301 C1285 1.429 . S
C1301 C1297 1.429 . S
C1301 C1302 1.523 . S
C1302 C1286 1.368 . S
C1302 C1298 1.368 . S
C1302 C1301 1.523 . S
H1303 C1278 0.950 . S
H1304 C1280 0.950 . S
H1305 C1281 0.949 . S
H1306 C1283 0.950 . S
H1307 C1285 0.950 . S
C1308 C1309 1.349 . S
C1308 C1310 1.327 . S
C1308 H1333 0.950 . S
C1309 C1308 1.349 . S
C1309 C1325 1.349 . S
C1310 C1308 1.327 . S
C1310 C1329 1.429 . S
C1310 H1334 0.950 . S
C1311 C1328 1.574 . S
C1311 C1330 1.368 . S
C1311 H1335 0.949 . S
H1312 C1316 0.949 . S
C1313 C1314 1.349 . S
C1313 C1315 1.327 . S
C1313 H1336 0.950 . S
C1314 C1313 1.349 . S
C1314 C1326 1.349 . S
C1315 C1313 1.327 . S
C1315 C1331 1.429 . S
C1315 H1337 0.950 . S
C1316 H1312 0.949 . S
C1316 C1324 1.574 . S
C1316 C1332 1.368 . S
H1317 C1325 0.950 . S
H1318 C1323 0.950 . S
H1319 C1324 0.949 . S
H1320 C1326 0.950 . S
H1321 C1327 0.950 . S
H1322 C1328 0.949 . S
C1323 H1318 0.950 . S
C1323 C1325 1.327 . S
C1323 C1329 1.429 . S
C1324 C1316 1.574 . S
C1324 H1319 0.949 . S
C1324 C1330 1.368 . S
C1325 C1309 1.349 . S
C1325 H1317 0.950 . S
C1325 C1323 1.327 . S
C1326 C1314 1.349 . S
C1326 H1320 0.950 . S
C1326 C1327 1.327 . S
C1327 H1321 0.950 . S
C1327 C1326 1.327 . S
C1327 C1331 1.429 . S
C1328 C1311 1.574 . S
C1328 H1322 0.949 . S
C1328 C1332 1.368 . S
C1329 C1310 1.429 . S
C1329 C1323 1.429 . S
C1329 C1330 1.523 . S
C1330 C1311 1.368 . S
C1330 C1324 1.368 . S
C1330 C1329 1.523 . S
C1331 C1315 1.429 . S
C1331 C1327 1.429 . S
C1331 C1332 1.523 . S
C1332 C1316 1.368 . S
C1332 C1328 1.368 . S
C1332 C1331 1.523 . S
H1333 C1308 0.950 . S
H1334 C1310 0.950 . S
H1335 C1311 0.949 . S
H1336 C1313 0.950 . S
H1337 C1315 0.950 . S
C1338 C1339 1.349 . S
C1338 C1340 1.327 . S
C1338 H1363 0.950 . S
C1339 C1338 1.349 . S
C1339 C1355 1.349 . S
C1340 C1338 1.327 . S
C1340 C1359 1.429 . S
C1340 H1364 0.950 . S
C1341 C1358 1.574 . S
C1341 C1360 1.368 . S
C1341 H1365 0.949 . S
H1342 C1346 0.949 . S
C1343 C1344 1.349 . S
C1343 C1345 1.327 . S
C1343 H1366 0.950 . S
C1344 C1343 1.349 . S
C1344 C1356 1.368 . S
C1345 C1343 1.327 . S
C1345 C1361 1.429 . S
C1345 H1367 0.950 . S
C1346 H1342 0.949 . S
C1346 C1354 1.574 . S
C1346 C1362 1.368 . S
H1347 C1355 0.950 . S
H1348 C1353 0.950 . S
H1349 C1354 0.949 . S
H1350 C1356 0.923 1_556 S
H1351 C1357 0.950 1_556 S
H1352 C1358 0.949 . S
C1353 H1348 0.950 . S
C1353 C1355 1.327 . S
C1353 C1359 1.429 . S
C1354 C1346 1.574 . S
C1354 H1349 0.949 . S
C1354 C1360 1.368 . S
C1355 C1339 1.349 . S
C1355 H1347 0.950 . S
C1355 C1353 1.327 . S
C1356 C1344 1.368 . S
C1356 H1350 0.923 1_554 S
C1356 C1357 1.334 . S
C1357 H1351 0.950 1_554 S
C1357 C1356 1.334 . S
C1357 C1361 1.429 . S
C1358 C1341 1.574 . S
C1358 H1352 0.949 . S
C1358 C1362 1.368 . S
C1359 C1340 1.429 . S
C1359 C1353 1.429 . S
C1359 C1360 1.523 . S
C1360 C1341 1.368 . S
C1360 C1354 1.368 . S
C1360 C1359 1.523 . S
C1361 C1345 1.429 . S
C1361 C1357 1.429 . S
C1361 C1362 1.523 . S
C1362 C1346 1.368 . S
C1362 C1358 1.368 . S
C1362 C1361 1.523 . S
H1363 C1338 0.950 . S
H1364 C1340 0.950 . S
H1365 C1341 0.949 . S
H1366 C1343 0.950 . S
H1367 C1345 0.950 . S
C1368 C1369 1.349 . S
C1368 C1370 1.327 . S
C1368 H1393 0.950 . S
C1369 C1368 1.349 . S
C1369 C1385 1.349 . S
C1370 C1368 1.327 . S
C1370 C1389 1.429 . S
C1370 H1394 0.950 . S
C1371 C1388 1.574 . S
C1371 C1390 1.368 . S
C1371 H1395 0.949 . S
H1372 C1376 0.949 . S
C1373 C1374 1.349 . S
C1373 C1375 1.327 . S
C1373 H1396 0.950 . S
C1374 C1373 1.349 . S
C1374 C1386 1.349 . S
C1375 C1373 1.327 . S
C1375 C1391 1.429 . S
C1375 H1397 0.950 . S
C1376 H1372 0.949 . S
C1376 C1384 1.574 . S
C1376 C1392 1.368 . S
H1377 C1385 0.950 . S
H1378 C1383 0.950 . S
H1379 C1384 0.949 . S
H1380 C1386 0.950 . S
H1381 C1387 0.950 . S
H1382 C1388 0.949 . S
C1383 H1378 0.950 . S
C1383 C1385 1.327 . S
C1383 C1389 1.429 . S
C1384 C1376 1.574 . S
C1384 H1379 0.949 . S
C1384 C1390 1.368 . S
C1385 C1369 1.349 . S
C1385 H1377 0.950 . S
C1385 C1383 1.327 . S
C1386 C1374 1.349 . S
C1386 H1380 0.950 . S
C1386 C1387 1.327 . S
C1387 H1381 0.950 . S
C1387 C1386 1.327 . S
C1387 C1391 1.429 . S
C1388 C1371 1.574 . S
C1388 H1382 0.949 . S
C1388 C1392 1.368 . S
C1389 C1370 1.429 . S
C1389 C1383 1.429 . S
C1389 C1390 1.523 1_655 S
C1390 C1371 1.368 . S
C1390 C1384 1.368 . S
C1390 C1389 1.523 1_455 S
C1391 C1375 1.429 . S
C1391 C1387 1.429 . S
C1391 C1392 1.523 . S
C1392 C1376 1.368 . S
C1392 C1388 1.368 . S
C1392 C1391 1.523 . S
H1393 C1368 0.950 . S
H1394 C1370 0.950 . S
H1395 C1371 0.949 . S
H1396 C1373 0.950 . S
H1397 C1375 0.950 . S
C1398 C1399 1.349 . S
C1398 C1400 1.327 . S
C1398 H1423 0.950 . S
C1399 C1398 1.349 . S
C1399 C1415 1.349 . S
C1400 C1398 1.327 . S
C1400 C1419 1.429 . S
C1400 H1424 0.950 . S
C1401 C1418 1.574 . S
C1401 C1420 1.368 . S
C1401 H1425 0.949 . S
H1402 C1406 0.949 . S
C1403 C1404 1.349 . S
C1403 C1405 1.327 . S
C1403 H1426 0.950 . S
C1404 C1403 1.349 . S
C1404 C1416 1.349 . S
C1405 C1403 1.327 . S
C1405 C1421 1.429 . S
C1405 H1427 0.950 . S
C1406 H1402 0.949 . S
C1406 C1414 1.574 . S
C1406 C1422 1.368 . S
H1407 C1415 0.950 . S
H1408 C1413 0.950 . S
H1409 C1414 0.949 . S
H1410 C1416 0.950 . S
H1411 C1417 0.950 . S
H1412 C1418 0.949 . S
C1413 H1408 0.950 . S
C1413 C1415 1.327 . S
C1413 C1419 1.429 . S
C1414 C1406 1.574 . S
C1414 H1409 0.949 . S
C1414 C1420 1.368 . S
C1415 C1399 1.349 . S
C1415 H1407 0.950 . S
C1415 C1413 1.327 . S
C1416 C1404 1.349 . S
C1416 H1410 0.950 . S
C1416 C1417 1.327 . S
C1417 H1411 0.950 . S
C1417 C1416 1.327 . S
C1417 C1421 1.429 . S
C1418 C1401 1.574 . S
C1418 H1412 0.949 . S
C1418 C1422 1.368 . S
C1419 C1400 1.429 . S
C1419 C1413 1.429 . S
C1419 C1420 1.523 . S
C1420 C1401 1.368 . S
C1420 C1414 1.368 . S
C1420 C1419 1.523 . S
C1421 C1405 1.429 . S
C1421 C1417 1.429 . S
C1421 C1422 1.523 . S
C1422 C1406 1.368 . S
C1422 C1418 1.368 . S
C1422 C1421 1.523 . S
H1423 C1398 0.950 . S
H1424 C1400 0.950 . S
H1425 C1401 0.949 . S
H1426 C1403 0.950 . S
H1427 C1405 0.950 . S
C1428 C1429 1.349 . S
C1428 C1430 1.327 . S
C1428 H1453 0.950 . S
C1429 C1428 1.349 . S
C1429 C1445 1.349 . S
C1430 C1428 1.327 . S
C1430 C1449 1.429 . S
C1430 H1454 0.950 . S
C1431 C1448 1.574 . S
C1431 C1450 1.368 . S
C1431 H1455 0.949 1_565 S
H1432 C1436 0.949 . S
C1433 C1434 1.349 . S
C1433 C1435 1.327 . S
C1433 H1456 0.950 . S
C1434 C1433 1.349 . S
C1434 C1446 1.349 . S
C1435 C1433 1.327 . S
C1435 C1451 1.429 . S
C1435 H1457 0.950 . S
C1436 H1432 0.949 . S
C1436 C1444 1.574 . S
C1436 C1452 1.368 . S
H1437 C1445 0.950 . S
H1438 C1443 0.950 . S
H1439 C1444 0.949 . S
H1440 C1446 0.950 . S
H1441 C1447 0.950 . S
H1442 C1448 0.949 . S
C1443 H1438 0.950 . S
C1443 C1445 1.327 . S
C1443 C1449 1.429 . S
C1444 C1436 1.574 . S
C1444 H1439 0.949 . S
C1444 C1450 1.368 . S
C1445 C1429 1.349 . S
C1445 H1437 0.950 . S
C1445 C1443 1.327 . S
C1446 C1434 1.349 . S
C1446 H1440 0.950 . S
C1446 C1447 1.327 . S
C1447 H1441 0.950 . S
C1447 C1446 1.327 . S
C1447 C1451 1.429 . S
C1448 C1431 1.574 . S
C1448 H1442 0.949 . S
C1448 C1452 1.368 . S
C1449 C1430 1.429 . S
C1449 C1443 1.429 . S
C1449 C1450 1.523 1_545 S
C1450 C1431 1.368 . S
C1450 C1444 1.368 . S
C1450 C1449 1.523 1_565 S
C1451 C1435 1.429 . S
C1451 C1447 1.429 . S
C1451 C1452 1.523 . S
C1452 C1436 1.368 . S
C1452 C1448 1.368 . S
C1452 C1451 1.523 . S
H1453 C1428 0.950 . S
H1454 C1430 0.950 . S
H1455 C1431 0.949 1_545 S
H1456 C1433 0.950 . S
H1457 C1435 0.950 . S
C1458 C1459 1.349 . S
C1458 C1460 1.327 . S
C1458 H1483 0.950 . S
C1459 C1458 1.349 . S
C1459 C1475 1.349 . S
C1460 C1458 1.327 . S
C1460 C1479 1.429 . S
C1460 H1484 0.950 . S
C1461 C1478 1.574 . S
C1461 C1480 1.368 . S
C1461 H1485 0.949 . S
H1462 C1466 0.949 . S
C1463 C1464 1.349 . S
C1463 C1465 1.327 . S
C1463 H1486 0.950 . S
C1464 C1463 1.349 . S
C1464 C1476 1.349 . S
C1465 C1463 1.327 . S
C1465 C1481 1.429 . S
C1465 H1487 0.950 . S
C1466 H1462 0.949 . S
C1466 C1474 1.574 . S
C1466 C1482 1.368 . S
H1467 C1475 0.950 . S
H1468 C1473 0.950 . S
H1469 C1474 0.949 . S
H1470 C1476 0.950 . S
H1471 C1477 0.950 . S
H1472 C1478 0.949 . S
C1473 H1468 0.950 . S
C1473 C1475 1.327 . S
C1473 C1479 1.429 . S
C1474 C1466 1.574 . S
C1474 H1469 0.949 . S
C1474 C1480 1.368 . S
C1475 C1459 1.349 . S
C1475 H1467 0.950 . S
C1475 C1473 1.327 . S
C1476 C1464 1.349 . S
C1476 H1470 0.950 . S
C1476 C1477 1.327 . S
C1477 H1471 0.950 . S
C1477 C1476 1.327 . S
C1477 C1481 1.429 . S
C1478 C1461 1.574 . S
C1478 H1472 0.949 . S
C1478 C1482 1.368 . S
C1479 C1460 1.429 . S
C1479 C1473 1.429 . S
C1479 C1480 1.523 . S
C1480 C1461 1.368 . S
C1480 C1474 1.368 . S
C1480 C1479 1.523 . S
C1481 C1465 1.429 . S
C1481 C1477 1.429 . S
C1481 C1482 1.523 . S
C1482 C1466 1.368 . S
C1482 C1478 1.368 . S
C1482 C1481 1.523 . S
H1483 C1458 0.950 . S
H1484 C1460 0.950 . S
H1485 C1461 0.949 . S
H1486 C1463 0.950 . S
H1487 C1465 0.950 . S
C1488 C1489 1.349 . S
C1488 C1490 1.327 . S
C1488 H1513 0.950 . S
C1489 C1488 1.349 . S
C1489 C1505 1.349 . S
C1490 C1488 1.327 . S
C1490 C1509 1.429 . S
C1490 H1514 0.950 . S
C1491 C1508 1.574 . S
C1491 C1510 1.368 . S
C1491 H1515 0.949 . S
H1492 C1496 0.949 . S
C1493 C1494 1.349 . S
C1493 C1495 1.327 . S
C1493 H1516 0.950 . S
C1494 C1493 1.349 . S
C1494 C1506 1.349 . S
C1495 C1493 1.327 . S
C1495 C1511 1.429 . S
C1495 H1517 0.950 . S
C1496 H1492 0.949 . S
C1496 C1504 1.574 . S
C1496 C1512 1.368 . S
H1497 C1505 0.950 . S
H1498 C1503 0.950 . S
H1499 C1504 0.949 . S
H1500 C1506 0.950 . S
H1501 C1507 0.950 . S
H1502 C1508 0.949 . S
C1503 H1498 0.950 . S
C1503 C1505 1.327 . S
C1503 C1509 1.429 . S
C1504 C1496 1.574 . S
C1504 H1499 0.949 . S
C1504 C1510 1.368 . S
C1505 C1489 1.349 . S
C1505 H1497 0.950 . S
C1505 C1503 1.327 . S
C1506 C1494 1.349 . S
C1506 H1500 0.950 . S
C1506 C1507 1.327 . S
C1507 H1501 0.950 . S
C1507 C1506 1.327 . S
C1507 C1511 1.429 . S
C1508 C1491 1.574 . S
C1508 H1502 0.949 . S
C1508 C1512 1.368 . S
C1509 C1490 1.429 . S
C1509 C1503 1.429 . S
C1509 C1510 1.523 . S
C1510 C1491 1.368 . S
C1510 C1504 1.368 . S
C1510 C1509 1.523 . S
C1511 C1495 1.429 . S
C1511 C1507 1.429 . S
C1511 C1512 1.523 . S
C1512 C1496 1.368 . S
C1512 C1508 1.368 . S
C1512 C1511 1.523 . S
H1513 C1488 0.950 . S
H1514 C1490 0.950 . S
H1515 C1491 0.949 . S
H1516 C1493 0.950 . S
H1517 C1495 0.950 . S
C1518 C1519 1.349 . S
C1518 C1520 1.327 . S
C1518 H1543 0.950 . S
C1519 C1518 1.349 . S
C1519 C1535 1.349 . S
C1520 C1518 1.327 . S
C1520 C1539 1.429 . S
C1520 H1544 0.950 . S
C1521 C1538 1.574 . S
C1521 C1540 1.368 . S
C1521 H1545 0.949 . S
H1522 C1526 0.949 . S
C1523 C1524 1.349 . S
C1523 C1525 1.327 . S
C1523 H1546 0.950 . S
C1524 C1523 1.349 . S
C1524 C1536 1.349 . S
C1525 C1523 1.327 . S
C1525 C1541 1.429 . S
C1525 H1547 0.950 . S
C1526 H1522 0.949 . S
C1526 C1534 1.574 . S
C1526 C1542 1.368 . S
H1527 C1535 0.950 . S
H1528 C1533 0.950 . S
H1529 C1534 0.949 . S
H1530 C1536 0.950 . S
H1531 C1537 0.950 . S
H1532 C1538 0.949 . S
C1533 H1528 0.950 . S
C1533 C1535 1.327 . S
C1533 C1539 1.429 . S
C1534 C1526 1.574 . S
C1534 H1529 0.949 . S
C1534 C1540 1.368 . S
C1535 C1519 1.349 . S
C1535 H1527 0.950 . S
C1535 C1533 1.327 . S
C1536 C1524 1.349 . S
C1536 H1530 0.950 . S
C1536 C1537 1.327 . S
C1537 H1531 0.950 . S
C1537 C1536 1.327 . S
C1537 C1541 1.429 . S
C1538 C1521 1.574 . S
C1538 H1532 0.949 . S
C1538 C1542 1.368 . S
C1539 C1520 1.429 . S
C1539 C1533 1.429 . S
C1539 C1540 1.523 . S
C1540 C1521 1.368 . S
C1540 C1534 1.368 . S
C1540 C1539 1.523 . S
C1541 C1525 1.429 . S
C1541 C1537 1.429 . S
C1541 C1542 1.523 . S
C1542 C1526 1.368 . S
C1542 C1538 1.368 . S
C1542 C1541 1.523 . S
H1543 C1518 0.950 . S
H1544 C1520 0.950 . S
H1545 C1521 0.949 . S
H1546 C1523 0.950 . S
H1547 C1525 0.950 . S
C1548 C1549 1.349 . S
C1548 C1550 1.327 . S
C1548 H1573 0.950 . S
C1549 C1548 1.349 . S
C1549 C1565 1.349 . S
C1550 C1548 1.327 . S
C1550 C1569 1.429 . S
C1550 H1574 0.950 . S
C1551 C1568 1.574 . S
C1551 C1570 1.368 . S
C1551 H1575 0.949 . S
H1552 C1556 0.949 . S
C1553 C1554 1.349 . S
C1553 C1555 1.327 . S
C1553 H1576 0.950 . S
C1554 C1553 1.349 . S
C1554 C1566 1.349 . S
C1555 C1553 1.327 . S
C1555 C1571 1.429 . S
C1555 H1577 0.950 . S
C1556 H1552 0.949 . S
C1556 C1564 1.574 . S
C1556 C1572 1.368 . S
H1557 C1565 0.950 . S
H1558 C1563 0.950 . S
H1559 C1564 0.949 . S
H1560 C1566 0.950 . S
H1561 C1567 0.950 . S
H1562 C1568 0.949 . S
C1563 H1558 0.950 . S
C1563 C1565 1.327 . S
C1563 C1569 1.429 . S
C1564 C1556 1.574 . S
C1564 H1559 0.949 . S
C1564 C1570 1.368 . S
C1565 C1549 1.349 . S
C1565 H1557 0.950 . S
C1565 C1563 1.327 . S
C1566 C1554 1.349 . S
C1566 H1560 0.950 . S
C1566 C1567 1.327 . S
C1567 H1561 0.950 . S
C1567 C1566 1.327 . S
C1567 C1571 1.429 . S
C1568 C1551 1.574 . S
C1568 H1562 0.949 . S
C1568 C1572 1.368 . S
C1569 C1550 1.429 . S
C1569 C1563 1.429 . S
C1569 C1570 1.523 . S
C1570 C1551 1.368 . S
C1570 C1564 1.368 . S
C1570 C1569 1.523 . S
C1571 C1555 1.429 . S
C1571 C1567 1.429 . S
C1571 C1572 1.523 . S
C1572 C1556 1.368 . S
C1572 C1568 1.368 . S
C1572 C1571 1.523 . S
H1573 C1548 0.950 . S
H1574 C1550 0.950 . S
H1575 C1551 0.949 . S
H1576 C1553 0.950 . S
H1577 C1555 0.950 . S
C1578 C1579 1.349 . S
C1578 C1580 1.327 . S
C1578 H1603 0.950 . S
C1579 C1578 1.349 . S
C1579 C1595 1.349 . S
C1580 C1578 1.327 . S
C1580 C1599 1.429 . S
C1580 H1604 0.950 . S
C1581 C1598 1.574 . S
C1581 C1600 1.368 . S
C1581 H1605 0.949 . S
H1582 C1586 0.949 . S
C1583 C1584 1.349 . S
C1583 C1585 1.327 . S
C1583 H1606 0.950 . S
C1584 C1583 1.349 . S
C1584 C1596 1.349 . S
C1585 C1583 1.327 . S
C1585 C1601 1.429 . S
C1585 H1607 0.950 . S
C1586 H1582 0.949 . S
C1586 C1594 1.574 . S
C1586 C1602 1.368 . S
H1587 C1595 0.950 . S
H1588 C1593 0.950 . S
H1589 C1594 0.949 . S
H1590 C1596 0.950 . S
H1591 C1597 0.950 . S
H1592 C1598 0.949 . S
C1593 H1588 0.950 . S
C1593 C1595 1.327 . S
C1593 C1599 1.429 . S
C1594 C1586 1.574 . S
C1594 H1589 0.949 . S
C1594 C1600 1.368 . S
C1595 C1579 1.349 . S
C1595 H1587 0.950 . S
C1595 C1593 1.327 . S
C1596 C1584 1.349 . S
C1596 H1590 0.950 . S
C1596 C1597 1.327 . S
C1597 H1591 0.950 . S
C1597 C1596 1.327 . S
C1597 C1601 1.429 . S
C1598 C1581 1.574 . S
C1598 H1592 0.949 . S
C1598 C1602 1.368 . S
C1599 C1580 1.429 . S
C1599 C1593 1.429 . S
C1599 C1600 1.523 . S
C1600 C1581 1.368 . S
C1600 C1594 1.368 . S
C1600 C1599 1.523 . S
C1601 C1585 1.429 . S
C1601 C1597 1.429 . S
C1601 C1602 1.523 . S
C1602 C1586 1.368 . S
C1602 C1598 1.368 . S
C1602 C1601 1.523 . S
H1603 C1578 0.950 . S
H1604 C1580 0.950 . S
H1605 C1581 0.949 . S
H1606 C1583 0.950 . S
H1607 C1585 0.950 . S
C1608 C1609 1.349 . S
C1608 C1610 1.327 . S
C1608 H1633 0.950 . S
C1609 C1608 1.349 . S
C1609 C1625 1.349 . S
C1610 C1608 1.327 . S
C1610 C1629 1.429 . S
C1610 H1634 0.950 . S
C1611 C1628 1.574 . S
C1611 C1630 1.368 . S
C1611 H1635 0.949 . S
H1612 C1616 0.949 . S
C1613 C1614 1.349 . S
C1613 C1615 1.327 . S
C1613 H1636 0.950 . S
C1614 C1613 1.349 . S
C1614 C1626 1.349 . S
C1615 C1613 1.327 . S
C1615 C1631 1.429 . S
C1615 H1637 0.950 . S
C1616 H1612 0.949 . S
C1616 C1624 1.574 . S
C1616 C1632 1.368 . S
H1617 C1625 0.950 . S
H1618 C1623 0.950 . S
H1619 C1624 0.949 . S
H1620 C1626 0.950 . S
H1621 C1627 0.950 . S
H1622 C1628 0.949 . S
C1623 H1618 0.950 . S
C1623 C1625 1.327 . S
C1623 C1629 1.429 . S
C1624 C1616 1.574 . S
C1624 H1619 0.949 . S
C1624 C1630 1.368 . S
C1625 C1609 1.349 . S
C1625 H1617 0.950 . S
C1625 C1623 1.327 . S
C1626 C1614 1.349 . S
C1626 H1620 0.950 . S
C1626 C1627 1.327 . S
C1627 H1621 0.950 . S
C1627 C1626 1.327 . S
C1627 C1631 1.429 . S
C1628 C1611 1.574 . S
C1628 H1622 0.949 . S
C1628 C1632 1.368 . S
C1629 C1610 1.429 . S
C1629 C1623 1.429 . S
C1629 C1630 1.523 . S
C1630 C1611 1.368 . S
C1630 C1624 1.368 . S
C1630 C1629 1.523 . S
C1631 C1615 1.429 . S
C1631 C1627 1.429 . S
C1631 C1632 1.523 . S
C1632 C1616 1.368 . S
C1632 C1628 1.368 . S
C1632 C1631 1.523 . S
H1633 C1608 0.950 . S
H1634 C1610 0.950 . S
H1635 C1611 0.949 . S
H1636 C1613 0.950 . S
H1637 C1615 0.950 . S
C1638 C1639 1.349 . S
C1638 C1640 1.327 . S
C1638 H1663 0.950 . S
C1639 C1638 1.349 . S
C1639 C1655 1.349 . S
C1640 C1638 1.327 . S
C1640 C1659 1.429 . S
C1640 H1664 0.950 . S
C1641 C1658 1.574 . S
C1641 C1660 1.368 . S
C1641 H1665 0.949 . S
H1642 C1646 0.949 . S
C1643 C1644 1.349 . S
C1643 C1645 1.327 . S
C1643 H1666 0.950 . S
C1644 C1643 1.349 . S
C1644 C1656 1.349 . S
C1645 C1643 1.327 . S
C1645 C1661 1.429 . S
C1645 H1667 0.950 . S
C1646 H1642 0.949 . S
C1646 C1654 1.574 . S
C1646 C1662 1.368 . S
H1647 C1655 0.950 . S
H1648 C1653 0.950 . S
H1649 C1654 0.949 . S
H1650 C1656 0.950 . S
H1651 C1657 0.950 . S
H1652 C1658 0.949 . S
C1653 H1648 0.950 . S
C1653 C1655 1.327 . S
C1653 C1659 1.429 . S
C1654 C1646 1.574 . S
C1654 H1649 0.949 . S
C1654 C1660 1.368 . S
C1655 C1639 1.349 . S
C1655 H1647 0.950 . S
C1655 C1653 1.327 . S
C1656 C1644 1.349 . S
C1656 H1650 0.950 . S
C1656 C1657 1.327 . S
C1657 H1651 0.950 . S
C1657 C1656 1.327 . S
C1657 C1661 1.429 . S
C1658 C1641 1.574 . S
C1658 H1652 0.949 . S
C1658 C1662 1.368 . S
C1659 C1640 1.429 . S
C1659 C1653 1.429 . S
C1659 C1660 1.523 1_545 S
C1660 C1641 1.368 . S
C1660 C1654 1.368 . S
C1660 C1659 1.523 1_565 S
C1661 C1645 1.429 . S
C1661 C1657 1.429 . S
C1661 C1662 1.523 . S
C1662 C1646 1.368 . S
C1662 C1658 1.368 . S
C1662 C1661 1.523 . S
H1663 C1638 0.950 . S
H1664 C1640 0.950 . S
H1665 C1641 0.949 . S
H1666 C1643 0.950 . S
H1667 C1645 0.950 . S
C1668 C1669 1.349 . S
C1668 C1670 1.327 . S
C1668 H1693 0.950 . S
C1669 C1668 1.349 . S
C1669 C1685 1.349 . S
C1670 C1668 1.327 . S
C1670 C1689 1.429 1_655 S
C1670 H1694 0.950 1_655 S
C1671 C1688 1.574 . S
C1671 C1690 1.368 . S
C1671 H1695 0.949 . S
H1672 C1676 0.949 . S
C1673 C1674 1.349 . S
C1673 C1675 1.327 . S
C1673 H1696 0.950 . S
C1674 C1673 1.349 . S
C1674 C1686 1.349 . S
C1675 C1673 1.327 . S
C1675 C1691 1.429 . S
C1675 H1697 0.950 . S
C1676 H1672 0.949 . S
C1676 C1684 1.574 . S
C1676 C1692 1.368 . S
H1677 C1685 0.950 . S
H1678 C1683 0.950 . S
H1679 C1684 0.949 . S
H1680 C1686 0.950 . S
H1681 C1687 0.950 . S
H1682 C1688 0.949 . S
C1683 H1678 0.950 . S
C1683 C1685 1.327 . S
C1683 C1689 1.429 1_655 S
C1684 C1676 1.574 . S
C1684 H1679 0.949 . S
C1684 C1690 1.368 . S
C1685 C1669 1.349 . S
C1685 H1677 0.950 . S
C1685 C1683 1.327 . S
C1686 C1674 1.349 . S
C1686 H1680 0.950 . S
C1686 C1687 1.327 . S
C1687 H1681 0.950 . S
C1687 C1686 1.327 . S
C1687 C1691 1.429 . S
C1688 C1671 1.574 . S
C1688 H1682 0.949 . S
C1688 C1692 1.368 . S
C1689 C1670 1.429 1_455 S
C1689 C1683 1.429 1_455 S
C1689 C1690 1.523 . S
C1690 C1671 1.368 . S
C1690 C1684 1.368 . S
C1690 C1689 1.523 . S
C1691 C1675 1.429 . S
C1691 C1687 1.429 . S
C1691 C1692 1.523 . S
C1692 C1676 1.368 . S
C1692 C1688 1.368 . S
C1692 C1691 1.523 . S
H1693 C1668 0.950 . S
H1694 C1670 0.950 1_455 S
H1695 C1671 0.949 . S
H1696 C1673 0.950 . S
H1697 C1675 0.950 . S
C1698 C1699 1.349 . S
C1698 C1700 1.327 . S
C1698 H1723 0.950 . S
C1699 C1698 1.349 . S
C1699 C1715 1.349 . S
C1700 C1698 1.327 . S
C1700 C1719 1.429 . S
C1700 H1724 0.950 . S
C1701 C1718 1.574 . S
C1701 C1720 1.368 . S
C1701 H1725 0.949 . S
H1702 C1706 0.949 . S
C1703 C1704 1.349 . S
C1703 C1705 1.327 . S
C1703 H1726 0.950 . S
C1704 C1703 1.349 . S
C1704 C1716 1.349 . S
C1705 C1703 1.327 . S
C1705 C1721 1.429 . S
C1705 H1727 0.950 . S
C1706 H1702 0.949 . S
C1706 C1714 1.574 . S
C1706 C1722 1.368 . S
H1707 C1715 0.950 . S
H1708 C1713 0.950 . S
H1709 C1714 0.949 . S
H1710 C1716 0.950 . S
H1711 C1717 0.950 . S
H1712 C1718 0.949 . S
C1713 H1708 0.950 . S
C1713 C1715 1.327 . S
C1713 C1719 1.429 . S
C1714 C1706 1.574 . S
C1714 H1709 0.949 . S
C1714 C1720 1.368 . S
C1715 C1699 1.349 . S
C1715 H1707 0.950 . S
C1715 C1713 1.327 . S
C1716 C1704 1.349 . S
C1716 H1710 0.950 . S
C1716 C1717 1.327 . S
C1717 H1711 0.950 . S
C1717 C1716 1.327 . S
C1717 C1721 1.429 . S
C1718 C1701 1.574 . S
C1718 H1712 0.949 . S
C1718 C1722 1.368 . S
C1719 C1700 1.429 . S
C1719 C1713 1.429 . S
C1719 C1720 1.523 . S
C1720 C1701 1.368 . S
C1720 C1714 1.368 . S
C1720 C1719 1.523 . S
C1721 C1705 1.429 . S
C1721 C1717 1.429 . S
C1721 C1722 1.523 . S
C1722 C1706 1.368 . S
C1722 C1718 1.368 . S
C1722 C1721 1.523 . S
H1723 C1698 0.950 . S
H1724 C1700 0.950 . S
H1725 C1701 0.949 . S
H1726 C1703 0.950 . S
H1727 C1705 0.950 . S
C1728 C1729 1.349 . S
C1728 C1730 1.327 . S
C1728 H1753 0.950 . S
C1729 C1728 1.349 . S
C1729 C1745 1.349 . S
C1730 C1728 1.327 . S
C1730 C1749 1.429 . S
C1730 H1754 0.950 . S
C1731 C1748 1.574 . S
C1731 C1750 1.368 . S
C1731 H1755 0.949 . S
H1732 C1736 0.949 . S
C1733 C1734 1.349 . S
C1733 C1735 1.327 . S
C1733 H1756 0.950 . S
C1734 C1733 1.349 . S
C1734 C1746 1.349 . S
C1735 C1733 1.327 . S
C1735 C1751 1.429 . S
C1735 H1757 0.950 . S
C1736 H1732 0.949 . S
C1736 C1744 1.574 . S
C1736 C1752 1.368 . S
H1737 C1745 0.950 . S
H1738 C1743 0.950 . S
H1739 C1744 0.949 . S
H1740 C1746 0.950 . S
H1741 C1747 0.950 . S
H1742 C1748 0.949 . S
C1743 H1738 0.950 . S
C1743 C1745 1.327 . S
C1743 C1749 1.429 . S
C1744 C1736 1.574 . S
C1744 H1739 0.949 . S
C1744 C1750 1.368 . S
C1745 C1729 1.349 . S
C1745 H1737 0.950 . S
C1745 C1743 1.327 . S
C1746 C1734 1.349 . S
C1746 H1740 0.950 . S
C1746 C1747 1.327 . S
C1747 H1741 0.950 . S
C1747 C1746 1.327 . S
C1747 C1751 1.429 . S
C1748 C1731 1.574 . S
C1748 H1742 0.949 . S
C1748 C1752 1.368 . S
C1749 C1730 1.429 . S
C1749 C1743 1.429 . S
C1749 C1750 1.523 . S
C1750 C1731 1.368 . S
C1750 C1744 1.368 . S
C1750 C1749 1.523 . S
C1751 C1735 1.429 . S
C1751 C1747 1.429 . S
C1751 C1752 1.523 . S
C1752 C1736 1.368 . S
C1752 C1748 1.368 . S
C1752 C1751 1.523 . S
H1753 C1728 0.950 . S
H1754 C1730 0.950 . S
H1755 C1731 0.949 . S
H1756 C1733 0.950 . S
H1757 C1735 0.950 . S
C1758 C1759 1.349 . S
C1758 C1760 1.327 . S
C1758 H1783 0.950 . S
C1759 C1758 1.349 . S
C1759 C1775 1.349 . S
C1760 C1758 1.327 . S
C1760 C1779 1.429 . S
C1760 H1784 0.950 . S
C1761 C1778 1.574 . S
C1761 C1780 1.368 . S
C1761 H1785 0.949 . S
H1762 C1766 0.949 . S
C1763 C1764 1.349 . S
C1763 C1765 1.327 . S
C1763 H1786 0.950 . S
C1764 C1763 1.349 . S
C1764 C1776 1.349 . S
C1765 C1763 1.327 . S
C1765 C1781 1.429 . S
C1765 H1787 0.950 . S
C1766 H1762 0.949 . S
C1766 C1774 1.574 . S
C1766 C1782 1.368 . S
H1767 C1775 0.950 . S
H1768 C1773 0.950 . S
H1769 C1774 0.949 . S
H1770 C1776 0.950 . S
H1771 C1777 0.950 . S
H1772 C1778 0.949 . S
C1773 H1768 0.950 . S
C1773 C1775 1.327 . S
C1773 C1779 1.429 . S
C1774 C1766 1.574 . S
C1774 H1769 0.949 . S
C1774 C1780 1.368 . S
C1775 C1759 1.349 . S
C1775 H1767 0.950 . S
C1775 C1773 1.327 . S
C1776 C1764 1.349 . S
C1776 H1770 0.950 . S
C1776 C1777 1.327 . S
C1777 H1771 0.950 . S
C1777 C1776 1.327 . S
C1777 C1781 1.429 . S
C1778 C1761 1.574 . S
C1778 H1772 0.949 . S
C1778 C1782 1.368 . S
C1779 C1760 1.429 . S
C1779 C1773 1.429 . S
C1779 C1780 1.523 . S
C1780 C1761 1.368 . S
C1780 C1774 1.368 . S
C1780 C1779 1.523 . S
C1781 C1765 1.429 . S
C1781 C1777 1.429 . S
C1781 C1782 1.523 . S
C1782 C1766 1.368 . S
C1782 C1778 1.368 . S
C1782 C1781 1.523 . S
H1783 C1758 0.950 . S
H1784 C1760 0.950 . S
H1785 C1761 0.949 . S
H1786 C1763 0.950 . S
H1787 C1765 0.950 . S
C1788 C1789 1.349 . S
C1788 C1790 1.327 . S
C1788 H1813 0.950 . S
C1789 C1788 1.349 . S
C1789 C1805 1.349 . S
C1790 C1788 1.327 . S
C1790 C1809 1.429 . S
C1790 H1814 0.950 . S
C1791 C1808 1.574 . S
C1791 C1810 1.368 . S
C1791 H1815 0.949 . S
H1792 C1796 0.949 . S
C1793 C1794 1.349 . S
C1793 C1795 1.327 . S
C1793 H1816 0.950 . S
C1794 C1793 1.349 . S
C1794 C1806 1.349 . S
C1795 C1793 1.327 . S
C1795 C1811 1.429 . S
C1795 H1817 0.950 . S
C1796 H1792 0.949 . S
C1796 C1804 1.574 . S
C1796 C1812 1.368 . S
H1797 C1805 0.950 . S
H1798 C1803 0.950 . S
H1799 C1804 0.949 . S
H1800 C1806 0.950 . S
H1801 C1807 0.950 . S
H1802 C1808 0.949 . S
C1803 H1798 0.950 . S
C1803 C1805 1.327 . S
C1803 C1809 1.429 . S
C1804 C1796 1.574 . S
C1804 H1799 0.949 . S
C1804 C1810 1.368 . S
C1805 C1789 1.349 . S
C1805 H1797 0.950 . S
C1805 C1803 1.327 . S
C1806 C1794 1.349 . S
C1806 H1800 0.950 . S
C1806 C1807 1.327 . S
C1807 H1801 0.950 . S
C1807 C1806 1.327 . S
C1807 C1811 1.429 . S
C1808 C1791 1.574 . S
C1808 H1802 0.949 . S
C1808 C1812 1.368 . S
C1809 C1790 1.429 . S
C1809 C1803 1.429 . S
C1809 C1810 1.523 . S
C1810 C1791 1.368 . S
C1810 C1804 1.368 . S
C1810 C1809 1.523 . S
C1811 C1795 1.429 . S
C1811 C1807 1.429 . S
C1811 C1812 1.523 . S
C1812 C1796 1.368 . S
C1812 C1808 1.368 . S
C1812 C1811 1.523 . S
H1813 C1788 0.950 . S
H1814 C1790 0.950 . S
H1815 C1791 0.949 . S
H1816 C1793 0.950 . S
H1817 C1795 0.950 . S
C1818 C1819 1.349 . S
C1818 C1820 1.327 . S
C1818 H1843 0.950 . S
C1819 C1818 1.349 . S
C1819 C1835 1.349 . S
C1820 C1818 1.327 . S
C1820 C1839 1.429 . S
C1820 H1844 0.950 . S
C1821 C1838 1.574 . S
C1821 C1840 1.368 . S
C1821 H1845 0.949 . S
H1822 C1826 0.949 . S
C1823 C1824 1.349 . S
C1823 C1825 1.327 . S
C1823 H1846 0.950 . S
C1824 C1823 1.349 . S
C1824 C1836 1.349 . S
C1825 C1823 1.327 . S
C1825 C1841 1.429 . S
C1825 H1847 0.950 . S
C1826 H1822 0.949 . S
C1826 C1834 1.574 . S
C1826 C1842 1.368 . S
H1827 C1835 0.950 . S
H1828 C1833 0.950 . S
H1829 C1834 0.946 . S
H1830 C1836 0.950 . S
H1831 C1837 0.950 . S
H1832 C1838 0.949 . S
C1833 H1828 0.950 . S
C1833 C1835 1.327 . S
C1833 C1839 1.429 . S
C1834 C1826 1.574 . S
C1834 H1829 0.946 . S
C1834 C1840 1.368 . S
C1835 C1819 1.349 . S
C1835 H1827 0.950 . S
C1835 C1833 1.327 . S
C1836 C1824 1.349 . S
C1836 H1830 0.950 . S
C1836 C1837 1.327 . S
C1837 H1831 0.950 . S
C1837 C1836 1.327 . S
C1837 C1841 1.429 . S
C1838 C1821 1.574 . S
C1838 H1832 0.949 . S
C1838 C1842 1.368 . S
C1839 C1820 1.429 . S
C1839 C1833 1.429 . S
C1839 C1840 1.523 1_565 S
C1840 C1821 1.368 . S
C1840 C1834 1.368 . S
C1840 C1839 1.523 1_545 S
C1841 C1825 1.429 . S
C1841 C1837 1.429 . S
C1841 C1842 1.523 . S
C1842 C1826 1.368 . S
C1842 C1838 1.368 . S
C1842 C1841 1.523 . S
H1843 C1818 0.950 . S
H1844 C1820 0.950 . S
H1845 C1821 0.949 . S
H1846 C1823 0.950 . S
H1847 C1825 0.950 . S
C1848 C1849 1.349 . S
C1848 C1850 1.351 . S
C1848 H1873 0.950 . S
C1849 C1848 1.349 . S
C1849 C1865 1.349 . S
C1850 C1848 1.351 . S
C1850 C1869 1.430 1_455 S
C1850 H1874 0.925 1_455 S
C1851 C1868 1.574 . S
C1851 C1870 1.368 . S
C1851 H1875 0.949 . S
H1852 C1856 0.949 . S
C1853 C1854 1.349 . S
C1853 C1855 1.327 . S
C1853 H1876 0.950 . S
C1854 C1853 1.349 . S
C1854 C1866 1.349 . S
C1855 C1853 1.327 . S
C1855 C1871 1.429 . S
C1855 H1877 0.950 . S
C1856 H1852 0.949 . S
C1856 C1864 1.574 . S
C1856 C1872 1.368 . S
H1857 C1865 0.950 . S
H1858 C1863 0.950 . S
H1859 C1864 0.949 . S
H1860 C1866 0.950 . S
H1861 C1867 0.950 . S
H1862 C1868 0.949 . S
C1863 H1858 0.950 . S
C1863 C1865 1.327 . S
C1863 C1869 1.429 1_455 S
C1864 C1856 1.574 . S
C1864 H1859 0.949 . S
C1864 C1870 1.368 . S
C1865 C1849 1.349 . S
C1865 H1857 0.950 . S
C1865 C1863 1.327 . S
C1866 C1854 1.349 . S
C1866 H1860 0.950 . S
C1866 C1867 1.327 . S
C1867 H1861 0.950 . S
C1867 C1866 1.327 . S
C1867 C1871 1.429 . S
C1868 C1851 1.574 . S
C1868 H1862 0.949 . S
C1868 C1872 1.368 . S
C1869 C1850 1.430 1_655 S
C1869 C1863 1.429 1_655 S
C1869 C1870 1.523 . S
C1870 C1851 1.368 . S
C1870 C1864 1.368 . S
C1870 C1869 1.523 . S
C1871 C1855 1.429 . S
C1871 C1867 1.429 . S
C1871 C1872 1.523 . S
C1872 C1856 1.368 . S
C1872 C1868 1.368 . S
C1872 C1871 1.523 . S
H1873 C1848 0.950 . S
H1874 C1850 0.925 1_655 S
H1875 C1851 0.949 . S
H1876 C1853 0.950 . S
H1877 C1855 0.950 . S
C1878 C1879 1.349 . S
C1878 C1880 1.327 . S
C1878 H1903 0.950 . S
C1879 C1878 1.349 . S
C1879 C1895 1.349 . S
C1880 C1878 1.327 . S
C1880 C1899 1.429 . S
C1880 H1904 0.950 . S
C1881 C1898 1.574 . S
C1881 C1900 1.368 . S
C1881 H1905 0.949 . S
H1882 C1886 0.949 . S
C1883 C1884 1.349 . S
C1883 C1885 1.327 . S
C1883 H1906 0.950 . S
C1884 C1883 1.349 . S
C1884 C1896 1.349 . S
C1885 C1883 1.327 . S
C1885 C1901 1.429 . S
C1885 H1907 0.950 . S
C1886 H1882 0.949 . S
C1886 C1894 1.574 . S
C1886 C1902 1.368 . S
H1887 C1895 0.950 . S
H1888 C1893 0.950 . S
H1889 C1894 0.949 . S
H1890 C1896 0.950 . S
H1891 C1897 0.950 . S
H1892 C1898 0.949 . S
C1893 H1888 0.950 . S
C1893 C1895 1.327 . S
C1893 C1899 1.429 . S
C1894 C1886 1.574 . S
C1894 H1889 0.949 . S
C1894 C1900 1.368 . S
C1895 C1879 1.349 . S
C1895 H1887 0.950 . S
C1895 C1893 1.327 . S
C1896 C1884 1.349 . S
C1896 H1890 0.950 . S
C1896 C1897 1.327 . S
C1897 H1891 0.950 . S
C1897 C1896 1.327 . S
C1897 C1901 1.429 . S
C1898 C1881 1.574 . S
C1898 H1892 0.949 . S
C1898 C1902 1.368 . S
C1899 C1880 1.429 . S
C1899 C1893 1.429 . S
C1899 C1900 1.523 . S
C1900 C1881 1.368 . S
C1900 C1894 1.368 . S
C1900 C1899 1.523 . S
C1901 C1885 1.429 . S
C1901 C1897 1.429 . S
C1901 C1902 1.523 . S
C1902 C1886 1.368 . S
C1902 C1898 1.368 . S
C1902 C1901 1.523 . S
H1903 C1878 0.950 . S
H1904 C1880 0.950 . S
H1905 C1881 0.949 . S
H1906 C1883 0.950 . S
H1907 C1885 0.950 . S
C1908 C1909 1.349 . S
C1908 C1910 1.327 . S
C1908 H1933 0.950 . S
C1909 C1908 1.349 . S
C1909 C1925 1.349 . S
C1910 C1908 1.327 . S
C1910 C1929 1.429 . S
C1910 H1934 0.950 . S
C1911 C1928 1.574 . S
C1911 C1930 1.368 . S
C1911 H1935 0.949 . S
H1912 C1916 0.949 . S
C1913 C1914 1.349 . S
C1913 C1915 1.327 . S
C1913 H1936 0.950 . S
C1914 C1913 1.349 . S
C1914 C1926 1.349 . S
C1915 C1913 1.327 . S
C1915 C1931 1.429 . S
C1915 H1937 0.950 . S
C1916 H1912 0.949 . S
C1916 C1924 1.574 . S
C1916 C1932 1.368 . S
H1917 C1925 0.950 . S
H1918 C1923 0.950 . S
H1919 C1924 0.949 . S
H1920 C1926 0.950 . S
H1921 C1927 0.950 . S
H1922 C1928 0.949 . S
C1923 H1918 0.950 . S
C1923 C1925 1.327 . S
C1923 C1929 1.429 . S
C1924 C1916 1.574 . S
C1924 H1919 0.949 . S
C1924 C1930 1.368 . S
C1925 C1909 1.349 . S
C1925 H1917 0.950 . S
C1925 C1923 1.327 . S
C1926 C1914 1.349 . S
C1926 H1920 0.950 . S
C1926 C1927 1.327 . S
C1927 H1921 0.950 . S
C1927 C1926 1.327 . S
C1927 C1931 1.429 . S
C1928 C1911 1.574 . S
C1928 H1922 0.949 . S
C1928 C1932 1.368 . S
C1929 C1910 1.429 . S
C1929 C1923 1.429 . S
C1929 C1930 1.523 1_455 S
C1930 C1911 1.368 . S
C1930 C1924 1.368 . S
C1930 C1929 1.523 1_655 S
C1931 C1915 1.429 . S
C1931 C1927 1.429 . S
C1931 C1932 1.523 . S
C1932 C1916 1.368 . S
C1932 C1928 1.368 . S
C1932 C1931 1.523 . S
H1933 C1908 0.950 . S
H1934 C1910 0.950 . S
H1935 C1911 0.949 . S
H1936 C1913 0.950 . S
H1937 C1915 0.950 . S
C1938 C1939 1.349 . S
C1938 C1940 1.327 . S
C1938 H1963 0.950 . S
C1939 C1938 1.349 . S
C1939 C1955 1.349 . S
C1940 C1938 1.327 . S
C1940 C1959 1.429 . S
C1940 H1964 0.950 . S
C1941 C1958 1.574 . S
C1941 C1960 1.368 . S
C1941 H1965 0.949 . S
H1942 C1946 0.949 . S
C1943 C1944 1.349 . S
C1943 C1945 1.327 . S
C1943 H1966 0.950 . S
C1944 C1943 1.349 . S
C1944 C1956 1.349 . S
C1945 C1943 1.327 . S
C1945 C1961 1.429 . S
C1945 H1967 0.950 . S
C1946 H1942 0.949 . S
C1946 C1954 1.574 . S
C1946 C1962 1.368 . S
H1947 C1955 0.950 . S
H1948 C1953 0.950 . S
H1949 C1954 0.949 . S
H1950 C1956 0.950 . S
H1951 C1957 0.950 . S
H1952 C1958 0.949 . S
C1953 H1948 0.950 . S
C1953 C1955 1.327 . S
C1953 C1959 1.429 . S
C1954 C1946 1.574 . S
C1954 H1949 0.949 . S
C1954 C1960 1.368 . S
C1955 C1939 1.349 . S
C1955 H1947 0.950 . S
C1955 C1953 1.327 . S
C1956 C1944 1.349 . S
C1956 H1950 0.950 . S
C1956 C1957 1.327 . S
C1957 H1951 0.950 . S
C1957 C1956 1.327 . S
C1957 C1961 1.429 . S
C1958 C1941 1.574 . S
C1958 H1952 0.949 . S
C1958 C1962 1.368 . S
C1959 C1940 1.429 . S
C1959 C1953 1.429 . S
C1959 C1960 1.523 . S
C1960 C1941 1.368 . S
C1960 C1954 1.368 . S
C1960 C1959 1.523 . S
C1961 C1945 1.429 . S
C1961 C1957 1.429 . S
C1961 C1962 1.523 . S
C1962 C1946 1.368 . S
C1962 C1958 1.368 . S
C1962 C1961 1.523 . S
H1963 C1938 0.950 . S
H1964 C1940 0.950 . S
H1965 C1941 0.949 . S
H1966 C1943 0.950 . S
H1967 C1945 0.950 . S
C1968 C1969 1.349 . S
C1968 C1970 1.327 . S
C1968 H1993 0.950 . S
C1969 C1968 1.349 . S
C1969 C1985 1.349 . S
C1970 C1968 1.327 . S
C1970 C1989 1.429 . S
C1970 H1994 0.950 . S
C1971 C1988 1.574 . S
C1971 C1990 1.368 . S
C1971 H1995 0.919 1_545 S
H1972 C1976 0.949 . S
C1973 C1974 1.349 . S
C1973 C1975 1.327 . S
C1973 H1996 0.950 . S
C1974 C1973 1.349 . S
C1974 C1986 1.349 . S
C1975 C1973 1.327 . S
C1975 C1991 1.429 . S
C1975 H1997 0.950 . S
C1976 H1972 0.949 . S
C1976 C1984 1.574 . S
C1976 C1992 1.368 . S
H1977 C1985 0.950 . S
H1978 C1983 0.950 . S
H1979 C1984 0.949 . S
H1980 C1986 0.950 . S
H1981 C1987 0.950 . S
H1982 C1988 0.949 . S
C1983 H1978 0.950 . S
C1983 C1985 1.327 . S
C1983 C1989 1.429 . S
C1984 C1976 1.574 . S
C1984 H1979 0.949 . S
C1984 C1990 1.368 . S
C1985 C1969 1.349 . S
C1985 H1977 0.950 . S
C1985 C1983 1.327 . S
C1986 C1974 1.349 . S
C1986 H1980 0.950 . S
C1986 C1987 1.327 . S
C1987 H1981 0.950 . S
C1987 C1986 1.327 . S
C1987 C1991 1.429 . S
C1988 C1971 1.574 . S
C1988 H1982 0.949 . S
C1988 C1992 1.368 . S
C1989 C1970 1.429 . S
C1989 C1983 1.429 . S
C1989 C1990 1.523 1_565 S
C1990 C1971 1.368 . S
C1990 C1984 1.368 . S
C1990 C1989 1.523 1_545 S
C1991 C1975 1.429 . S
C1991 C1987 1.429 . S
C1991 C1992 1.523 . S
C1992 C1976 1.368 . S
C1992 C1988 1.368 . S
C1992 C1991 1.523 . S
H1993 C1968 0.950 . S
H1994 C1970 0.950 . S
H1995 C1971 0.919 1_565 S
H1996 C1973 0.950 . S
H1997 C1975 0.950 . S
C1998 C1999 1.349 . S
C1998 C2000 1.327 . S
C1998 H2023 0.950 . S
C1999 C1998 1.349 . S
C1999 C2015 1.349 . S
C2000 C1998 1.327 . S
C2000 C2019 1.429 . S
C2000 H2024 0.950 . S
C2001 C2018 1.574 . S
C2001 C2020 1.368 . S
C2001 H2025 0.949 . S
H2002 C2006 0.949 . S
C2003 C2004 1.349 . S
C2003 C2005 1.327 . S
C2003 H2026 0.950 . S
C2004 C2003 1.349 . S
C2004 C2016 1.349 . S
C2005 C2003 1.327 . S
C2005 C2021 1.429 . S
C2005 H2027 0.950 . S
C2006 H2002 0.949 . S
C2006 C2014 1.574 . S
C2006 C2022 1.368 . S
H2007 C2015 0.950 . S
H2008 C2013 0.950 . S
H2009 C2014 0.949 . S
H2010 C2016 0.950 . S
H2011 C2017 0.950 . S
H2012 C2018 0.949 . S
C2013 H2008 0.950 . S
C2013 C2015 1.327 . S
C2013 C2019 1.429 . S
C2014 C2006 1.574 . S
C2014 H2009 0.949 . S
C2014 C2020 1.368 . S
C2015 C1999 1.349 . S
C2015 H2007 0.950 . S
C2015 C2013 1.327 . S
C2016 C2004 1.349 . S
C2016 H2010 0.950 . S
C2016 C2017 1.327 . S
C2017 H2011 0.950 . S
C2017 C2016 1.327 . S
C2017 C2021 1.429 . S
C2018 C2001 1.574 . S
C2018 H2012 0.949 . S
C2018 C2022 1.368 . S
C2019 C2000 1.429 . S
C2019 C2013 1.429 . S
C2019 C2020 1.523 . S
C2020 C2001 1.368 . S
C2020 C2014 1.368 . S
C2020 C2019 1.523 . S
C2021 C2005 1.429 . S
C2021 C2017 1.429 . S
C2021 C2022 1.523 . S
C2022 C2006 1.368 . S
C2022 C2018 1.368 . S
C2022 C2021 1.523 . S
H2023 C1998 0.950 . S
H2024 C2000 0.950 . S
H2025 C2001 0.949 . S
H2026 C2003 0.950 . S
H2027 C2005 0.950 . S
C2028 C2029 1.349 . S
C2028 C2030 1.327 . S
C2028 H2053 0.950 . S
C2029 C2028 1.349 . S
C2029 C2045 1.349 . S
C2030 C2028 1.327 . S
C2030 C2049 1.429 . S
C2030 H2054 0.950 . S
C2031 C2048 1.574 . S
C2031 C2050 1.368 . S
C2031 H2055 0.949 . S
H2032 C2036 0.949 . S
C2033 C2034 1.349 . S
C2033 C2035 1.327 . S
C2033 H2056 0.950 . S
C2034 C2033 1.349 . S
C2034 C2046 1.349 . S
C2035 C2033 1.327 . S
C2035 C2051 1.429 . S
C2035 H2057 0.950 . S
C2036 H2032 0.949 . S
C2036 C2044 1.574 . S
C2036 C2052 1.368 . S
H2037 C2045 0.950 . S
H2038 C2043 0.950 . S
H2039 C2044 0.949 . S
H2040 C2046 0.950 . S
H2041 C2047 0.950 . S
H2042 C2048 0.949 . S
C2043 H2038 0.950 . S
C2043 C2045 1.327 . S
C2043 C2049 1.429 . S
C2044 C2036 1.574 . S
C2044 H2039 0.949 . S
C2044 C2050 1.368 . S
C2045 C2029 1.349 . S
C2045 H2037 0.950 . S
C2045 C2043 1.327 . S
C2046 C2034 1.349 . S
C2046 H2040 0.950 . S
C2046 C2047 1.327 . S
C2047 H2041 0.950 . S
C2047 C2046 1.327 . S
C2047 C2051 1.429 . S
C2048 C2031 1.574 . S
C2048 H2042 0.949 . S
C2048 C2052 1.368 . S
C2049 C2030 1.429 . S
C2049 C2043 1.429 . S
C2049 C2050 1.523 . S
C2050 C2031 1.368 . S
C2050 C2044 1.368 . S
C2050 C2049 1.523 . S
C2051 C2035 1.429 . S
C2051 C2047 1.429 . S
C2051 C2052 1.523 . S
C2052 C2036 1.368 . S
C2052 C2048 1.368 . S
C2052 C2051 1.523 . S
H2053 C2028 0.950 . S
H2054 C2030 0.950 . S
H2055 C2031 0.949 . S
H2056 C2033 0.950 . S
H2057 C2035 0.950 . S
C2058 C2059 1.349 . S
C2058 C2060 1.327 . S
C2058 H2083 0.950 . S
C2059 C2058 1.349 . S
C2059 C2075 1.349 . S
C2060 C2058 1.327 . S
C2060 C2079 1.429 . S
C2060 H2084 0.950 . S
C2061 C2078 1.574 . S
C2061 C2080 1.368 . S
C2061 H2085 0.949 . S
H2062 C2066 0.949 . S
C2063 C2064 1.349 . S
C2063 C2065 1.327 . S
C2063 H2086 0.950 . S
C2064 C2063 1.349 . S
C2064 C2076 1.349 . S
C2065 C2063 1.327 . S
C2065 C2081 1.429 . S
C2065 H2087 0.950 . S
C2066 H2062 0.949 . S
C2066 C2074 1.574 . S
C2066 C2082 1.368 . S
H2067 C2075 0.950 . S
H2068 C2073 0.950 . S
H2069 C2074 0.949 . S
H2070 C2076 0.950 . S
H2071 C2077 0.950 . S
H2072 C2078 0.949 . S
C2073 H2068 0.950 . S
C2073 C2075 1.327 . S
C2073 C2079 1.429 . S
C2074 C2066 1.574 . S
C2074 H2069 0.949 . S
C2074 C2080 1.368 . S
C2075 C2059 1.349 . S
C2075 H2067 0.950 . S
C2075 C2073 1.327 . S
C2076 C2064 1.349 . S
C2076 H2070 0.950 . S
C2076 C2077 1.327 . S
C2077 H2071 0.950 . S
C2077 C2076 1.327 . S
C2077 C2081 1.429 . S
C2078 C2061 1.574 . S
C2078 H2072 0.949 . S
C2078 C2082 1.368 . S
C2079 C2060 1.429 . S
C2079 C2073 1.429 . S
C2079 C2080 1.523 . S
C2080 C2061 1.368 . S
C2080 C2074 1.368 . S
C2080 C2079 1.523 . S
C2081 C2065 1.429 . S
C2081 C2077 1.429 . S
C2081 C2082 1.523 . S
C2082 C2066 1.368 . S
C2082 C2078 1.368 . S
C2082 C2081 1.523 . S
H2083 C2058 0.950 . S
H2084 C2060 0.950 . S
H2085 C2061 0.949 . S
H2086 C2063 0.950 . S
H2087 C2065 0.950 . S
C2088 C2089 1.349 . S
C2088 C2090 1.327 . S
C2088 H2113 0.950 . S
C2089 C2088 1.349 . S
C2089 C2105 1.349 . S
C2090 C2088 1.327 . S
C2090 C2109 1.429 . S
C2090 H2114 0.950 . S
C2091 C2108 1.574 . S
C2091 C2110 1.368 . S
C2091 H2115 0.949 . S
H2092 C2096 0.949 . S
C2093 C2094 1.347 . S
C2093 C2095 1.331 . S
C2093 H2116 0.948 1_565 S
C2094 C2093 1.347 . S
C2094 C2106 1.349 . S
C2095 C2093 1.331 . S
C2095 C2111 1.429 . S
C2095 H2117 0.950 1_565 S
C2096 H2092 0.949 . S
C2096 C2104 1.574 . S
C2096 C2112 1.368 . S
H2097 C2105 0.950 . S
H2098 C2103 0.950 . S
H2099 C2104 0.949 . S
H2100 C2106 0.950 . S
H2101 C2107 0.950 . S
H2102 C2108 0.949 . S
C2103 H2098 0.950 . S
C2103 C2105 1.327 . S
C2103 C2109 1.429 . S
C2104 C2096 1.574 . S
C2104 H2099 0.949 . S
C2104 C2110 1.368 . S
C2105 C2089 1.349 . S
C2105 H2097 0.950 . S
C2105 C2103 1.327 . S
C2106 C2094 1.349 . S
C2106 H2100 0.950 . S
C2106 C2107 1.327 . S
C2107 H2101 0.950 . S
C2107 C2106 1.327 . S
C2107 C2111 1.429 . S
C2108 C2091 1.574 . S
C2108 H2102 0.949 . S
C2108 C2112 1.368 . S
C2109 C2090 1.429 . S
C2109 C2103 1.429 . S
C2109 C2110 1.523 . S
C2110 C2091 1.368 . S
C2110 C2104 1.368 . S
C2110 C2109 1.523 . S
C2111 C2095 1.429 . S
C2111 C2107 1.429 . S
C2111 C2112 1.523 . S
C2112 C2096 1.368 . S
C2112 C2108 1.368 . S
C2112 C2111 1.523 . S
H2113 C2088 0.950 . S
H2114 C2090 0.950 . S
H2115 C2091 0.949 . S
H2116 C2093 0.948 1_545 S
H2117 C2095 0.950 1_545 S
C2118 C2119 1.349 . S
C2118 C2120 1.327 . S
C2118 H2143 0.950 . S
C2119 C2118 1.349 . S
C2119 C2135 1.349 1_455 S
C2120 C2118 1.327 . S
C2120 C2139 1.429 . S
C2120 H2144 0.950 . S
C2121 C2138 1.574 . S
C2121 C2140 1.368 1_655 S
C2121 H2145 0.949 . S
H2122 C2126 0.949 . S
C2123 C2124 1.349 1_655 S
C2123 C2125 1.327 . S
C2123 H2146 0.950 . S
C2124 C2123 1.349 1_455 S
C2124 C2136 1.349 . S
C2125 C2123 1.327 . S
C2125 C2141 1.429 1_655 S
C2125 H2147 0.950 . S
C2126 H2122 0.949 . S
C2126 C2134 1.574 . S
C2126 C2142 1.368 . S
H2127 C2135 0.950 . S
H2128 C2133 0.950 . S
H2129 C2134 0.949 . S
H2130 C2136 0.950 . S
H2131 C2137 0.950 . S
H2132 C2138 0.949 . S
C2133 H2128 0.950 . S
C2133 C2135 1.327 . S
C2133 C2139 1.429 1_655 S
C2134 C2126 1.574 . S
C2134 H2129 0.949 . S
C2134 C2140 1.368 . S
C2135 C2119 1.349 1_655 S
C2135 H2127 0.950 . S
C2135 C2133 1.327 . S
C2136 C2124 1.349 . S
C2136 H2130 0.950 . S
C2136 C2137 1.327 . S
C2137 H2131 0.950 . S
C2137 C2136 1.327 . S
C2137 C2141 1.429 . S
C2138 C2121 1.574 . S
C2138 H2132 0.949 . S
C2138 C2142 1.368 1_655 S
C2139 C2120 1.429 . S
C2139 C2133 1.429 1_455 S
C2139 C2140 1.523 . S
C2140 C2121 1.368 1_455 S
C2140 C2134 1.368 . S
C2140 C2139 1.523 . S
C2141 C2125 1.429 1_455 S
C2141 C2137 1.429 . S
C2141 C2142 1.523 . S
C2142 C2126 1.368 . S
C2142 C2138 1.368 1_455 S
C2142 C2141 1.523 . S
H2143 C2118 0.950 . S
H2144 C2120 0.950 . S
H2145 C2121 0.949 . S
H2146 C2123 0.950 . S
H2147 C2125 0.950 . S
C2148 C2149 1.349 . S
C2148 C2150 1.327 . S
C2148 H2173 0.950 . S
C2149 C2148 1.349 . S
C2149 C2165 1.349 . S
C2150 C2148 1.327 . S
C2150 C2169 1.429 . S
C2150 H2174 0.950 . S
C2151 C2168 1.574 . S
C2151 C2170 1.368 . S
C2151 H2175 0.949 . S
H2152 C2156 0.949 . S
C2153 C2154 1.349 . S
C2153 C2155 1.327 . S
C2153 H2176 0.950 . S
C2154 C2153 1.349 . S
C2154 C2166 1.349 . S
C2155 C2153 1.327 . S
C2155 C2171 1.429 . S
C2155 H2177 0.950 . S
C2156 H2152 0.949 . S
C2156 C2164 1.574 . S
C2156 C2172 1.368 . S
H2157 C2165 0.950 . S
H2158 C2163 0.950 . S
H2159 C2164 0.949 . S
H2160 C2166 0.950 . S
H2161 C2167 0.950 . S
H2162 C2168 0.949 . S
C2163 H2158 0.950 . S
C2163 C2165 1.327 . S
C2163 C2169 1.429 . S
C2164 C2156 1.574 . S
C2164 H2159 0.949 . S
C2164 C2170 1.368 . S
C2165 C2149 1.349 . S
C2165 H2157 0.950 . S
C2165 C2163 1.327 . S
C2166 C2154 1.349 . S
C2166 H2160 0.950 . S
C2166 C2167 1.327 . S
C2167 H2161 0.950 . S
C2167 C2166 1.327 . S
C2167 C2171 1.429 . S
C2168 C2151 1.574 . S
C2168 H2162 0.949 . S
C2168 C2172 1.368 . S
C2169 C2150 1.429 . S
C2169 C2163 1.429 . S
C2169 C2170 1.523 . S
C2170 C2151 1.368 . S
C2170 C2164 1.368 . S
C2170 C2169 1.523 . S
C2171 C2155 1.429 . S
C2171 C2167 1.429 . S
C2171 C2172 1.523 . S
C2172 C2156 1.368 . S
C2172 C2168 1.368 . S
C2172 C2171 1.523 . S
H2173 C2148 0.950 . S
H2174 C2150 0.950 . S
H2175 C2151 0.949 . S
H2176 C2153 0.950 . S
H2177 C2155 0.950 . S
C2178 C2179 1.349 . S
C2178 C2180 1.327 . S
C2178 H2203 0.950 . S
C2179 C2178 1.349 . S
C2179 C2195 1.349 . S
C2180 C2178 1.327 . S
C2180 C2199 1.429 . S
C2180 H2204 0.950 . S
C2181 C2198 1.574 . S
C2181 C2200 1.368 . S
C2181 H2205 0.949 . S
H2182 C2186 0.949 . S
C2183 C2184 1.349 . S
C2183 C2185 1.327 . S
C2183 H2206 0.950 . S
C2184 C2183 1.349 . S
C2184 C2196 1.349 . S
C2185 C2183 1.327 . S
C2185 C2201 1.429 . S
C2185 H2207 0.950 . S
C2186 H2182 0.949 . S
C2186 C2194 1.574 . S
C2186 C2202 1.368 . S
H2187 C2195 0.950 . S
H2188 C2193 0.950 . S
H2189 C2194 0.949 . S
H2190 C2196 0.950 . S
H2191 C2197 0.950 . S
H2192 C2198 0.949 . S
C2193 H2188 0.950 . S
C2193 C2195 1.327 . S
C2193 C2199 1.429 . S
C2194 C2186 1.574 . S
C2194 H2189 0.949 . S
C2194 C2200 1.368 . S
C2195 C2179 1.349 . S
C2195 H2187 0.950 . S
C2195 C2193 1.327 . S
C2196 C2184 1.349 . S
C2196 H2190 0.950 . S
C2196 C2197 1.327 . S
C2197 H2191 0.950 . S
C2197 C2196 1.327 . S
C2197 C2201 1.429 . S
C2198 C2181 1.574 . S
C2198 H2192 0.949 . S
C2198 C2202 1.368 . S
C2199 C2180 1.429 . S
C2199 C2193 1.429 . S
C2199 C2200 1.523 . S
C2200 C2181 1.368 . S
C2200 C2194 1.368 . S
C2200 C2199 1.523 . S
C2201 C2185 1.429 . S
C2201 C2197 1.429 . S
C2201 C2202 1.523 . S
C2202 C2186 1.368 . S
C2202 C2198 1.368 . S
C2202 C2201 1.523 . S
H2203 C2178 0.950 . S
H2204 C2180 0.950 . S
H2205 C2181 0.949 . S
H2206 C2183 0.950 . S
H2207 C2185 0.950 . S
C2208 C2209 1.349 . S
C2208 C2210 1.327 . S
C2208 H2233 0.950 . S
C2209 C2208 1.349 . S
C2209 C2225 1.349 . S
C2210 C2208 1.327 . S
C2210 C2229 1.429 . S
C2210 H2234 0.950 . S
C2211 C2228 1.574 . S
C2211 C2230 1.368 . S
C2211 H2235 0.949 . S
H2212 C2216 0.949 . S
C2213 C2214 1.349 . S
C2213 C2215 1.327 . S
C2213 H2236 0.950 . S
C2214 C2213 1.349 . S
C2214 C2226 1.349 . S
C2215 C2213 1.327 . S
C2215 C2231 1.429 . S
C2215 H2237 0.950 . S
C2216 H2212 0.949 . S
C2216 C2224 1.574 . S
C2216 C2232 1.368 . S
H2217 C2225 0.950 . S
H2218 C2223 0.950 . S
H2219 C2224 0.949 . S
H2220 C2226 0.950 . S
H2221 C2227 0.950 . S
H2222 C2228 0.949 . S
C2223 H2218 0.950 . S
C2223 C2225 1.327 . S
C2223 C2229 1.429 . S
C2224 C2216 1.574 . S
C2224 H2219 0.949 . S
C2224 C2230 1.368 . S
C2225 C2209 1.349 . S
C2225 H2217 0.950 . S
C2225 C2223 1.327 . S
C2226 C2214 1.349 . S
C2226 H2220 0.950 . S
C2226 C2227 1.327 . S
C2227 H2221 0.950 . S
C2227 C2226 1.327 . S
C2227 C2231 1.429 . S
C2228 C2211 1.574 . S
C2228 H2222 0.949 . S
C2228 C2232 1.368 . S
C2229 C2210 1.429 . S
C2229 C2223 1.429 . S
C2229 C2230 1.523 . S
C2230 C2211 1.368 . S
C2230 C2224 1.368 . S
C2230 C2229 1.523 . S
C2231 C2215 1.429 . S
C2231 C2227 1.429 . S
C2231 C2232 1.523 . S
C2232 C2216 1.368 . S
C2232 C2228 1.368 . S
C2232 C2231 1.523 . S
H2233 C2208 0.950 . S
H2234 C2210 0.950 . S
H2235 C2211 0.949 . S
H2236 C2213 0.950 . S
H2237 C2215 0.950 . S
C2238 C2239 1.349 . S
C2238 C2240 1.327 . S
C2238 H2263 0.950 . S
C2239 C2238 1.349 . S
C2239 C2255 1.349 . S
C2240 C2238 1.327 . S
C2240 C2259 1.429 . S
C2240 H2264 0.950 . S
C2241 C2258 1.574 . S
C2241 C2260 1.368 . S
C2241 H2265 0.949 . S
H2242 C2246 0.949 . S
C2243 C2244 1.349 1_565 S
C2243 C2245 1.343 . S
C2243 H2266 0.950 . S
C2244 C2243 1.349 1_545 S
C2244 C2256 1.349 . S
C2245 C2243 1.343 . S
C2245 C2261 1.367 1_565 S
C2245 H2267 0.999 . S
C2246 H2242 0.949 . S
C2246 C2254 1.574 . S
C2246 C2262 1.368 . S
H2247 C2255 0.950 . S
H2248 C2253 0.950 . S
H2249 C2254 0.949 . S
H2250 C2256 0.950 . S
H2251 C2257 0.950 . S
H2252 C2258 0.949 1_565 S
C2253 H2248 0.950 . S
C2253 C2255 1.327 . S
C2253 C2259 1.429 . S
C2254 C2246 1.574 . S
C2254 H2249 0.949 . S
C2254 C2260 1.368 . S
C2255 C2239 1.349 . S
C2255 H2247 0.950 . S
C2255 C2253 1.327 . S
C2256 C2244 1.349 . S
C2256 H2250 0.950 . S
C2256 C2257 1.327 . S
C2257 H2251 0.950 . S
C2257 C2256 1.327 . S
C2257 C2261 1.429 . S
C2258 C2241 1.574 . S
C2258 H2252 0.949 1_545 S
C2258 C2262 1.368 . S
C2259 C2240 1.429 . S
C2259 C2253 1.429 . S
C2259 C2260 1.523 . S
C2260 C2241 1.368 . S
C2260 C2254 1.368 . S
C2260 C2259 1.523 . S
C2261 C2245 1.367 1_545 S
C2261 C2257 1.429 . S
C2261 C2262 1.523 . S
C2262 C2246 1.368 . S
C2262 C2258 1.368 . S
C2262 C2261 1.523 . S
H2263 C2238 0.950 . S
H2264 C2240 0.950 . S
H2265 C2241 0.949 . S
H2266 C2243 0.950 . S
H2267 C2245 0.999 . S
C2268 C2269 1.349 . S
C2268 C2270 1.327 . S
C2268 H2293 0.950 . S
C2269 C2268 1.349 . S
C2269 C2285 1.349 . S
C2270 C2268 1.327 . S
C2270 C2289 1.429 . S
C2270 H2294 0.950 . S
C2271 C2288 1.574 . S
C2271 C2290 1.368 . S
C2271 H2295 0.949 . S
H2272 C2276 0.949 . S
C2273 C2274 1.349 . S
C2273 C2275 1.327 . S
C2273 H2296 0.950 . S
C2274 C2273 1.349 . S
C2274 C2286 1.349 . S
C2275 C2273 1.327 . S
C2275 C2291 1.429 . S
C2275 H2297 0.950 . S
C2276 H2272 0.949 . S
C2276 C2284 1.574 . S
C2276 C2292 1.368 . S
H2277 C2285 0.950 . S
H2278 C2283 0.950 . S
H2279 C2284 0.949 . S
H2280 C2286 0.950 . S
H2281 C2287 0.950 . S
H2282 C2288 0.949 . S
C2283 H2278 0.950 . S
C2283 C2285 1.327 . S
C2283 C2289 1.429 . S
C2284 C2276 1.574 . S
C2284 H2279 0.949 . S
C2284 C2290 1.368 . S
C2285 C2269 1.349 . S
C2285 H2277 0.950 . S
C2285 C2283 1.327 . S
C2286 C2274 1.349 . S
C2286 H2280 0.950 . S
C2286 C2287 1.327 . S
C2287 H2281 0.950 . S
C2287 C2286 1.327 . S
C2287 C2291 1.429 . S
C2288 C2271 1.574 . S
C2288 H2282 0.949 . S
C2288 C2292 1.368 . S
C2289 C2270 1.429 . S
C2289 C2283 1.429 . S
C2289 C2290 1.523 . S
C2290 C2271 1.368 . S
C2290 C2284 1.368 . S
C2290 C2289 1.523 . S
C2291 C2275 1.429 . S
C2291 C2287 1.429 . S
C2291 C2292 1.523 . S
C2292 C2276 1.368 . S
C2292 C2288 1.368 . S
C2292 C2291 1.523 . S
H2293 C2268 0.950 . S
H2294 C2270 0.950 . S
H2295 C2271 0.949 . S
H2296 C2273 0.950 . S
H2297 C2275 0.950 . S
C2298 C2299 1.349 . S
C2298 C2300 1.327 . S
C2298 H2323 0.950 . S
C2299 C2298 1.349 . S
C2299 C2315 1.349 . S
C2300 C2298 1.327 . S
C2300 C2319 1.429 . S
C2300 H2324 0.950 . S
C2301 C2318 1.574 . S
C2301 C2320 1.368 . S
C2301 H2325 0.949 . S
H2302 C2306 0.949 . S
C2303 C2304 1.349 . S
C2303 C2305 1.327 . S
C2303 H2326 0.950 . S
C2304 C2303 1.349 . S
C2304 C2316 1.349 . S
C2305 C2303 1.327 . S
C2305 C2321 1.429 . S
C2305 H2327 0.950 . S
C2306 H2302 0.949 . S
C2306 C2314 1.574 . S
C2306 C2322 1.368 . S
H2307 C2315 0.950 . S
H2308 C2313 0.950 . S
H2309 C2314 0.949 . S
H2310 C2316 0.950 . S
H2311 C2317 0.950 . S
H2312 C2318 0.949 . S
C2313 H2308 0.950 . S
C2313 C2315 1.327 . S
C2313 C2319 1.429 . S
C2314 C2306 1.574 . S
C2314 H2309 0.949 . S
C2314 C2320 1.368 . S
C2315 C2299 1.349 . S
C2315 H2307 0.950 . S
C2315 C2313 1.327 . S
C2316 C2304 1.349 . S
C2316 H2310 0.950 . S
C2316 C2317 1.327 . S
C2317 H2311 0.950 . S
C2317 C2316 1.327 . S
C2317 C2321 1.429 . S
C2318 C2301 1.574 . S
C2318 H2312 0.949 . S
C2318 C2322 1.368 . S
C2319 C2300 1.429 . S
C2319 C2313 1.429 . S
C2319 C2320 1.523 . S
C2320 C2301 1.368 . S
C2320 C2314 1.368 . S
C2320 C2319 1.523 . S
C2321 C2305 1.429 . S
C2321 C2317 1.429 . S
C2321 C2322 1.523 . S
C2322 C2306 1.368 . S
C2322 C2318 1.368 . S
C2322 C2321 1.523 . S
H2323 C2298 0.950 . S
H2324 C2300 0.950 . S
H2325 C2301 0.949 . S
H2326 C2303 0.950 . S
H2327 C2305 0.950 . S
C2328 C2329 1.349 . S
C2328 C2330 1.327 . S
C2328 H2353 0.950 . S
C2329 C2328 1.349 . S
C2329 C2345 1.349 . S
C2330 C2328 1.327 . S
C2330 C2349 1.429 . S
C2330 H2354 0.950 . S
C2331 C2348 1.574 . S
C2331 C2350 1.368 . S
C2331 H2355 0.949 . S
H2332 C2336 0.949 . S
C2333 C2334 1.349 . S
C2333 C2335 1.327 . S
C2333 H2356 0.950 . S
C2334 C2333 1.349 . S
C2334 C2346 1.349 . S
C2335 C2333 1.327 . S
C2335 C2351 1.429 . S
C2335 H2357 0.950 . S
C2336 H2332 0.949 . S
C2336 C2344 1.574 . S
C2336 C2352 1.368 . S
H2337 C2345 0.950 . S
H2338 C2343 0.950 . S
H2339 C2344 0.949 . S
H2340 C2346 0.950 . S
H2341 C2347 0.950 . S
H2342 C2348 0.949 . S
C2343 H2338 0.950 . S
C2343 C2345 1.327 . S
C2343 C2349 1.429 . S
C2344 C2336 1.574 . S
C2344 H2339 0.949 . S
C2344 C2350 1.368 . S
C2345 C2329 1.349 . S
C2345 H2337 0.950 . S
C2345 C2343 1.327 . S
C2346 C2334 1.349 . S
C2346 H2340 0.950 . S
C2346 C2347 1.327 . S
C2347 H2341 0.950 . S
C2347 C2346 1.327 . S
C2347 C2351 1.429 . S
C2348 C2331 1.574 . S
C2348 H2342 0.949 . S
C2348 C2352 1.368 . S
C2349 C2330 1.429 . S
C2349 C2343 1.429 . S
C2349 C2350 1.523 . S
C2350 C2331 1.368 . S
C2350 C2344 1.368 . S
C2350 C2349 1.523 . S
C2351 C2335 1.429 . S
C2351 C2347 1.429 . S
C2351 C2352 1.523 . S
C2352 C2336 1.368 . S
C2352 C2348 1.368 . S
C2352 C2351 1.523 . S
H2353 C2328 0.950 . S
H2354 C2330 0.950 . S
H2355 C2331 0.949 . S
H2356 C2333 0.950 . S
H2357 C2335 0.950 . S
C2358 C2359 1.349 . S
C2358 C2360 1.327 . S
C2358 H2383 0.950 . S
C2359 C2358 1.349 . S
C2359 C2375 1.349 . S
C2360 C2358 1.327 . S
C2360 C2379 1.429 . S
C2360 H2384 0.950 . S
C2361 C2378 1.574 . S
C2361 C2380 1.368 . S
C2361 H2385 0.949 . S
H2362 C2366 0.949 . S
C2363 C2364 1.349 . S
C2363 C2365 1.327 . S
C2363 H2386 0.950 . S
C2364 C2363 1.349 . S
C2364 C2376 1.349 . S
C2365 C2363 1.327 . S
C2365 C2381 1.429 . S
C2365 H2387 0.950 . S
C2366 H2362 0.949 . S
C2366 C2374 1.574 . S
C2366 C2382 1.368 . S
H2367 C2375 0.950 . S
H2368 C2373 0.950 . S
H2369 C2374 0.949 . S
H2370 C2376 0.950 . S
H2371 C2377 0.950 . S
H2372 C2378 0.949 . S
C2373 H2368 0.950 . S
C2373 C2375 1.327 . S
C2373 C2379 1.429 . S
C2374 C2366 1.574 . S
C2374 H2369 0.949 . S
C2374 C2380 1.368 . S
C2375 C2359 1.349 . S
C2375 H2367 0.950 . S
C2375 C2373 1.327 . S
C2376 C2364 1.349 . S
C2376 H2370 0.950 . S
C2376 C2377 1.327 . S
C2377 H2371 0.950 . S
C2377 C2376 1.327 . S
C2377 C2381 1.429 . S
C2378 C2361 1.574 . S
C2378 H2372 0.949 . S
C2378 C2382 1.368 . S
C2379 C2360 1.429 . S
C2379 C2373 1.429 . S
C2379 C2380 1.523 . S
C2380 C2361 1.368 . S
C2380 C2374 1.368 . S
C2380 C2379 1.523 . S
C2381 C2365 1.429 . S
C2381 C2377 1.429 . S
C2381 C2382 1.523 . S
C2382 C2366 1.368 . S
C2382 C2378 1.368 . S
C2382 C2381 1.523 . S
H2383 C2358 0.950 . S
H2384 C2360 0.950 . S
H2385 C2361 0.949 . S
H2386 C2363 0.950 . S
H2387 C2365 0.950 . S
C2388 C2389 1.349 . S
C2388 C2390 1.327 . S
C2388 H2413 0.950 . S
C2389 C2388 1.349 . S
C2389 C2405 1.349 . S
C2390 C2388 1.327 . S
C2390 C2409 1.429 . S
C2390 H2414 0.950 . S
C2391 C2408 1.574 . S
C2391 C2410 1.368 . S
C2391 H2415 0.949 . S
H2392 C2396 0.949 . S
C2393 C2394 1.349 . S
C2393 C2395 1.327 . S
C2393 H2416 0.950 . S
C2394 C2393 1.349 . S
C2394 C2406 1.349 . S
C2395 C2393 1.327 . S
C2395 C2411 1.429 . S
C2395 H2417 0.950 . S
C2396 H2392 0.949 . S
C2396 C2404 1.574 . S
C2396 C2412 1.368 . S
H2397 C2405 0.950 . S
H2398 C2403 0.950 . S
H2399 C2404 0.949 . S
H2400 C2406 0.950 . S
H2401 C2407 0.950 . S
H2402 C2408 0.949 . S
C2403 H2398 0.950 . S
C2403 C2405 1.327 . S
C2403 C2409 1.429 . S
C2404 C2396 1.574 . S
C2404 H2399 0.949 . S
C2404 C2410 1.368 . S
C2405 C2389 1.349 . S
C2405 H2397 0.950 . S
C2405 C2403 1.327 . S
C2406 C2394 1.349 . S
C2406 H2400 0.950 . S
C2406 C2407 1.327 . S
C2407 H2401 0.950 . S
C2407 C2406 1.327 . S
C2407 C2411 1.429 . S
C2408 C2391 1.574 . S
C2408 H2402 0.949 . S
C2408 C2412 1.368 . S
C2409 C2390 1.429 . S
C2409 C2403 1.429 . S
C2409 C2410 1.523 . S
C2410 C2391 1.368 . S
C2410 C2404 1.368 . S
C2410 C2409 1.523 . S
C2411 C2395 1.429 . S
C2411 C2407 1.429 . S
C2411 C2412 1.523 . S
C2412 C2396 1.368 . S
C2412 C2408 1.368 . S
C2412 C2411 1.523 . S
H2413 C2388 0.950 . S
H2414 C2390 0.950 . S
H2415 C2391 0.949 . S
H2416 C2393 0.950 . S
H2417 C2395 0.950 . S
C2418 C2419 1.349 . S
C2418 C2420 1.327 . S
C2418 H2443 0.950 . S
C2419 C2418 1.349 . S
C2419 C2435 1.349 . S
C2420 C2418 1.327 . S
C2420 C2439 1.429 . S
C2420 H2444 0.950 . S
C2421 C2438 1.574 . S
C2421 C2440 1.368 . S
C2421 H2445 0.949 . S
H2422 C2426 0.949 . S
C2423 C2424 1.349 . S
C2423 C2425 1.327 . S
C2423 H2446 0.950 . S
C2424 C2423 1.349 . S
C2424 C2436 1.349 . S
C2425 C2423 1.327 . S
C2425 C2441 1.429 . S
C2425 H2447 0.950 . S
C2426 H2422 0.949 . S
C2426 C2434 1.574 . S
C2426 C2442 1.368 . S
H2427 C2435 0.950 . S
H2428 C2433 0.950 . S
H2429 C2434 0.949 . S
H2430 C2436 0.950 . S
H2431 C2437 0.950 . S
H2432 C2438 0.949 . S
C2433 H2428 0.950 . S
C2433 C2435 1.327 . S
C2433 C2439 1.429 . S
C2434 C2426 1.574 . S
C2434 H2429 0.949 . S
C2434 C2440 1.368 . S
C2435 C2419 1.349 . S
C2435 H2427 0.950 . S
C2435 C2433 1.327 . S
C2436 C2424 1.349 . S
C2436 H2430 0.950 . S
C2436 C2437 1.327 . S
C2437 H2431 0.950 . S
C2437 C2436 1.327 . S
C2437 C2441 1.429 . S
C2438 C2421 1.574 . S
C2438 H2432 0.949 . S
C2438 C2442 1.368 . S
C2439 C2420 1.429 . S
C2439 C2433 1.429 . S
C2439 C2440 1.523 . S
C2440 C2421 1.368 . S
C2440 C2434 1.368 . S
C2440 C2439 1.523 . S
C2441 C2425 1.429 . S
C2441 C2437 1.429 . S
C2441 C2442 1.523 . S
C2442 C2426 1.368 . S
C2442 C2438 1.368 . S
C2442 C2441 1.523 . S
H2443 C2418 0.950 . S
H2444 C2420 0.950 . S
H2445 C2421 0.949 . S
H2446 C2423 0.950 . S
H2447 C2425 0.950 . S
C2448 C2449 1.349 . S
C2448 C2450 1.327 . S
C2448 H2473 0.950 . S
C2449 C2448 1.349 . S
C2449 C2465 1.349 . S
C2450 C2448 1.327 . S
C2450 C2469 1.429 . S
C2450 H2474 0.950 . S
C2451 C2468 1.574 . S
C2451 C2470 1.368 . S
C2451 H2475 0.949 . S
H2452 C2456 0.949 . S
C2453 C2454 1.349 . S
C2453 C2455 1.327 . S
C2453 H2476 0.950 . S
C2454 C2453 1.349 . S
C2454 C2466 1.349 . S
C2455 C2453 1.327 . S
C2455 C2471 1.429 . S
C2455 H2477 0.950 . S
C2456 H2452 0.949 . S
C2456 C2464 1.574 . S
C2456 C2472 1.368 . S
H2457 C2465 0.950 . S
H2458 C2463 0.950 . S
H2459 C2464 0.949 . S
H2460 C2466 0.950 . S
H2461 C2467 0.950 . S
H2462 C2468 0.949 . S
C2463 H2458 0.950 . S
C2463 C2465 1.327 . S
C2463 C2469 1.429 . S
C2464 C2456 1.574 . S
C2464 H2459 0.949 . S
C2464 C2470 1.368 . S
C2465 C2449 1.349 . S
C2465 H2457 0.950 . S
C2465 C2463 1.327 . S
C2466 C2454 1.349 . S
C2466 H2460 0.950 . S
C2466 C2467 1.327 . S
C2467 H2461 0.950 . S
C2467 C2466 1.327 . S
C2467 C2471 1.429 . S
C2468 C2451 1.574 . S
C2468 H2462 0.949 . S
C2468 C2472 1.368 . S
C2469 C2450 1.429 . S
C2469 C2463 1.429 . S
C2469 C2470 1.523 . S
C2470 C2451 1.368 . S
C2470 C2464 1.368 . S
C2470 C2469 1.523 . S
C2471 C2455 1.429 . S
C2471 C2467 1.429 . S
C2471 C2472 1.523 . S
C2472 C2456 1.368 . S
C2472 C2468 1.368 . S
C2472 C2471 1.523 . S
H2473 C2448 0.950 . S
H2474 C2450 0.950 . S
H2475 C2451 0.949 . S
H2476 C2453 0.950 . S
H2477 C2455 0.950 . S
C2478 C2479 1.349 . S
C2478 C2480 1.327 . S
C2478 H2503 0.950 . S
C2479 C2478 1.349 . S
C2479 C2495 1.349 . S
C2480 C2478 1.327 . S
C2480 C2499 1.429 . S
C2480 H2504 0.950 . S
C2481 C2498 1.574 . S
C2481 C2500 1.368 . S
C2481 H2505 0.949 . S
H2482 C2486 0.949 . S
C2483 C2484 1.349 . S
C2483 C2485 1.327 . S
C2483 H2506 0.950 . S
C2484 C2483 1.349 . S
C2484 C2496 1.349 . S
C2485 C2483 1.327 . S
C2485 C2501 1.429 . S
C2485 H2507 0.950 . S
C2486 H2482 0.949 . S
C2486 C2494 1.574 . S
C2486 C2502 1.368 . S
H2487 C2495 0.950 . S
H2488 C2493 0.950 . S
H2489 C2494 0.949 . S
H2490 C2496 0.950 . S
H2491 C2497 0.950 . S
H2492 C2498 0.949 . S
C2493 H2488 0.950 . S
C2493 C2495 1.327 . S
C2493 C2499 1.429 . S
C2494 C2486 1.574 . S
C2494 H2489 0.949 . S
C2494 C2500 1.368 . S
C2495 C2479 1.349 . S
C2495 H2487 0.950 . S
C2495 C2493 1.327 . S
C2496 C2484 1.349 . S
C2496 H2490 0.950 . S
C2496 C2497 1.327 . S
C2497 H2491 0.950 . S
C2497 C2496 1.327 . S
C2497 C2501 1.429 . S
C2498 C2481 1.574 . S
C2498 H2492 0.949 . S
C2498 C2502 1.368 . S
C2499 C2480 1.429 . S
C2499 C2493 1.429 . S
C2499 C2500 1.523 . S
C2500 C2481 1.368 . S
C2500 C2494 1.368 . S
C2500 C2499 1.523 . S
C2501 C2485 1.429 . S
C2501 C2497 1.429 . S
C2501 C2502 1.523 . S
C2502 C2486 1.368 . S
C2502 C2498 1.368 . S
C2502 C2501 1.523 . S
H2503 C2478 0.950 . S
H2504 C2480 0.950 . S
H2505 C2481 0.949 . S
H2506 C2483 0.950 . S
H2507 C2485 0.950 . S
C2508 C2509 1.349 . S
C2508 C2510 1.327 . S
C2508 H2533 0.950 . S
C2509 C2508 1.349 . S
C2509 C2525 1.349 . S
C2510 C2508 1.327 . S
C2510 C2529 1.429 . S
C2510 H2534 0.950 . S
C2511 C2528 1.574 . S
C2511 C2530 1.368 . S
C2511 H2535 0.949 . S
H2512 C2516 0.949 . S
C2513 C2514 1.349 . S
C2513 C2515 1.327 . S
C2513 H2536 0.950 . S
C2514 C2513 1.349 . S
C2514 C2526 1.349 . S
C2515 C2513 1.327 . S
C2515 C2531 1.429 . S
C2515 H2537 0.950 . S
C2516 H2512 0.949 . S
C2516 C2524 1.574 . S
C2516 C2532 1.368 . S
H2517 C2525 0.950 . S
H2518 C2523 0.950 . S
H2519 C2524 0.949 . S
H2520 C2526 0.950 . S
H2521 C2527 0.950 . S
H2522 C2528 0.949 . S
C2523 H2518 0.950 . S
C2523 C2525 1.327 . S
C2523 C2529 1.429 . S
C2524 C2516 1.574 . S
C2524 H2519 0.949 . S
C2524 C2530 1.368 . S
C2525 C2509 1.349 . S
C2525 H2517 0.950 . S
C2525 C2523 1.327 . S
C2526 C2514 1.349 . S
C2526 H2520 0.950 . S
C2526 C2527 1.327 . S
C2527 H2521 0.950 . S
C2527 C2526 1.327 . S
C2527 C2531 1.429 . S
C2528 C2511 1.574 . S
C2528 H2522 0.949 . S
C2528 C2532 1.368 . S
C2529 C2510 1.429 . S
C2529 C2523 1.429 . S
C2529 C2530 1.523 . S
C2530 C2511 1.368 . S
C2530 C2524 1.368 . S
C2530 C2529 1.523 . S
C2531 C2515 1.429 . S
C2531 C2527 1.429 . S
C2531 C2532 1.523 . S
C2532 C2516 1.368 . S
C2532 C2528 1.368 . S
C2532 C2531 1.523 . S
H2533 C2508 0.950 . S
H2534 C2510 0.950 . S
H2535 C2511 0.949 . S
H2536 C2513 0.950 . S
H2537 C2515 0.950 . S
C2538 C2539 1.349 . S
C2538 C2540 1.327 . S
C2538 H2563 0.950 . S
C2539 C2538 1.349 . S
C2539 C2555 1.349 . S
C2540 C2538 1.327 . S
C2540 C2559 1.429 . S
C2540 H2564 0.950 . S
C2541 C2558 1.574 . S
C2541 C2560 1.368 . S
C2541 H2565 0.949 . S
H2542 C2546 0.949 . S
C2543 C2544 1.349 . S
C2543 C2545 1.327 . S
C2543 H2566 0.950 . S
C2544 C2543 1.349 . S
C2544 C2556 1.349 . S
C2545 C2543 1.327 . S
C2545 C2561 1.429 . S
C2545 H2567 0.950 . S
C2546 H2542 0.949 . S
C2546 C2554 1.574 . S
C2546 C2562 1.368 . S
H2547 C2555 0.950 . S
H2548 C2553 0.950 . S
H2549 C2554 0.949 . S
H2550 C2556 0.950 . S
H2551 C2557 0.950 . S
H2552 C2558 0.949 . S
C2553 H2548 0.950 . S
C2553 C2555 1.327 . S
C2553 C2559 1.429 . S
C2554 C2546 1.574 . S
C2554 H2549 0.949 . S
C2554 C2560 1.368 . S
C2555 C2539 1.349 . S
C2555 H2547 0.950 . S
C2555 C2553 1.327 . S
C2556 C2544 1.349 . S
C2556 H2550 0.950 . S
C2556 C2557 1.327 . S
C2557 H2551 0.950 . S
C2557 C2556 1.327 . S
C2557 C2561 1.429 . S
C2558 C2541 1.574 . S
C2558 H2552 0.949 . S
C2558 C2562 1.368 . S
C2559 C2540 1.429 . S
C2559 C2553 1.429 . S
C2559 C2560 1.523 . S
C2560 C2541 1.368 . S
C2560 C2554 1.368 . S
C2560 C2559 1.523 . S
C2561 C2545 1.429 . S
C2561 C2557 1.429 . S
C2561 C2562 1.523 . S
C2562 C2546 1.368 . S
C2562 C2558 1.368 . S
C2562 C2561 1.523 . S
H2563 C2538 0.950 . S
H2564 C2540 0.950 . S
H2565 C2541 0.949 . S
H2566 C2543 0.950 . S
H2567 C2545 0.950 . S
C2568 C2569 1.349 . S
C2568 C2570 1.327 . S
C2568 H2593 0.950 . S
C2569 C2568 1.349 . S
C2569 C2585 1.349 . S
C2570 C2568 1.327 . S
C2570 C2589 1.429 . S
C2570 H2594 0.950 . S
C2571 C2588 1.574 . S
C2571 C2590 1.368 . S
C2571 H2595 0.949 . S
H2572 C2576 0.949 . S
C2573 C2574 1.349 . S
C2573 C2575 1.327 . S
C2573 H2596 0.950 . S
C2574 C2573 1.349 . S
C2574 C2586 1.349 . S
C2575 C2573 1.327 . S
C2575 C2591 1.429 . S
C2575 H2597 0.950 . S
C2576 H2572 0.949 . S
C2576 C2584 1.574 . S
C2576 C2592 1.368 . S
H2577 C2585 0.950 . S
H2578 C2583 0.950 . S
H2579 C2584 0.949 . S
H2580 C2586 0.950 . S
H2581 C2587 0.950 . S
H2582 C2588 0.949 . S
C2583 H2578 0.950 . S
C2583 C2585 1.327 . S
C2583 C2589 1.429 . S
C2584 C2576 1.574 . S
C2584 H2579 0.949 . S
C2584 C2590 1.368 . S
C2585 C2569 1.349 . S
C2585 H2577 0.950 . S
C2585 C2583 1.327 . S
C2586 C2574 1.349 . S
C2586 H2580 0.950 . S
C2586 C2587 1.327 . S
C2587 H2581 0.950 . S
C2587 C2586 1.327 . S
C2587 C2591 1.429 . S
C2588 C2571 1.574 . S
C2588 H2582 0.949 . S
C2588 C2592 1.368 . S
C2589 C2570 1.429 . S
C2589 C2583 1.429 . S
C2589 C2590 1.523 . S
C2590 C2571 1.368 . S
C2590 C2584 1.368 . S
C2590 C2589 1.523 . S
C2591 C2575 1.429 . S
C2591 C2587 1.429 . S
C2591 C2592 1.523 . S
C2592 C2576 1.368 . S
C2592 C2588 1.368 . S
C2592 C2591 1.523 . S
H2593 C2568 0.950 . S
H2594 C2570 0.950 . S
H2595 C2571 0.949 . S
H2596 C2573 0.950 . S
H2597 C2575 0.950 . S
C2598 C2599 1.349 . S
C2598 C2600 1.327 . S
C2598 H2623 0.950 . S
C2599 C2598 1.349 . S
C2599 C2615 1.349 . S
C2600 C2598 1.327 . S
C2600 C2619 1.429 . S
C2600 H2624 0.950 . S
C2601 C2618 1.574 . S
C2601 C2620 1.368 . S
C2601 H2625 0.949 . S
H2602 C2606 0.949 . S
C2603 C2604 1.349 . S
C2603 C2605 1.327 . S
C2603 H2626 0.950 . S
C2604 C2603 1.349 . S
C2604 C2616 1.349 . S
C2605 C2603 1.327 . S
C2605 C2621 1.429 . S
C2605 H2627 0.950 . S
C2606 H2602 0.949 . S
C2606 C2614 1.574 . S
C2606 C2622 1.368 . S
H2607 C2615 0.950 . S
H2608 C2613 0.950 . S
H2609 C2614 0.949 . S
H2610 C2616 0.950 . S
H2611 C2617 0.950 . S
H2612 C2618 0.949 . S
C2613 H2608 0.950 . S
C2613 C2615 1.327 . S
C2613 C2619 1.429 . S
C2614 C2606 1.574 . S
C2614 H2609 0.949 . S
C2614 C2620 1.368 . S
C2615 C2599 1.349 . S
C2615 H2607 0.950 . S
C2615 C2613 1.327 . S
C2616 C2604 1.349 . S
C2616 H2610 0.950 . S
C2616 C2617 1.327 . S
C2617 H2611 0.950 . S
C2617 C2616 1.327 . S
C2617 C2621 1.429 . S
C2618 C2601 1.574 . S
C2618 H2612 0.949 . S
C2618 C2622 1.368 . S
C2619 C2600 1.429 . S
C2619 C2613 1.429 . S
C2619 C2620 1.523 . S
C2620 C2601 1.368 . S
C2620 C2614 1.368 . S
C2620 C2619 1.523 . S
C2621 C2605 1.429 . S
C2621 C2617 1.429 . S
C2621 C2622 1.523 . S
C2622 C2606 1.368 . S
C2622 C2618 1.368 . S
C2622 C2621 1.523 . S
H2623 C2598 0.950 . S
H2624 C2600 0.950 . S
H2625 C2601 0.949 . S
H2626 C2603 0.950 . S
H2627 C2605 0.950 . S
C1009 C469 1.653 . S
C1014 C657 1.624 . S
C1039 C505 1.814 . S
C1044 C697 1.784 . S
C1069 C433 1.733 . S
C1074 C736 1.711 . S
C1099 C397 1.550 . S
C1104 C696 1.522 . S
C1134 C737 1.416 . S
C1129 C325 1.435 . S
C1159 C361 1.356 . S
C1164 C656 1.357 . S
C1194 C667 1.624 . S
C1189 C421 1.658 . S
C1224 C707 1.783 . S
C1219 C349 1.811 . S
C1249 C385 1.727 . S
C1254 C746 1.712 . S
C1279 C493 1.547 . S
C1284 C706 1.523 . S
C1309 C529 1.440 . S
C1314 C747 1.416 . S
C1344 C666 1.355 . S
C1339 C457 1.359 . S
C1374 C777 1.624 . S
C1369 C37 1.653 . S
C1399 C73 1.815 . S
C1404 C817 1.785 . S
C1429 C1 1.732 . S
C1434 C856 1.710 . S
C1459 C613 1.550 . S
C1464 C816 1.522 . S
C1489 C541 1.434 . S
C1494 C857 1.416 . S
C1519 C577 1.356 . S
C1524 C776 1.353 . S
C1549 C637 1.658 . S
C1554 C787 1.624 . S
C1579 C565 1.811 . S
C1584 C827 1.783 . S
C1614 C866 1.711 . S
C1609 C601 1.726 . S
C1639 C61 1.547 . S
C1644 C826 1.523 . S
C1674 C867 1.416 . S
C1669 C97 1.441 . S
C1699 C25 1.358 . S
C1704 C786 1.355 . S
C1734 C897 1.624 . S
C1729 C253 1.653 . S
C1759 C289 1.814 . S
C1764 C937 1.785 . S
C1794 C976 1.710 . S
C1789 C217 1.732 . S
C1824 C936 1.522 . S
C1819 C181 1.550 . S
C1854 C977 1.417 . S
C1849 C109 1.435 . S
C1879 C145 1.356 . S
C1884 C896 1.353 . S
C1909 C205 1.658 . S
C1914 C907 1.624 . S
C1939 C133 1.812 . S
C1944 C947 1.784 . S
C1974 C986 1.711 . S
C1969 C169 1.726 . S
C1999 C277 1.547 . S
C2004 C946 1.523 . S
C2029 C313 1.440 . S
C2034 C987 1.416 . S
C2059 C241 1.358 . S
C2064 C906 1.355 . S
C2089 C571 1.267 . S
C2094 C653 1.263 . S
C2124 C693 1.903 . S
C2119 C607 1.902 . S
C2149 C643 1.577 . S
C2154 C743 1.582 . S
C2179 C247 1.900 . S
C2184 C703 1.902 . S
C2209 C283 1.581 . S
C2214 C733 1.583 . S
C2244 C663 1.262 . S
C2239 C319 1.265 . S
C2269 C139 1.267 . S
C2274 C773 1.263 . S
C2299 C175 1.902 . S
C2304 C813 1.903 . S
C2329 C211 1.577 . S
C2334 C863 1.582 . S
C2359 C463 1.900 . S
C2364 C823 1.902 . S
C2394 C853 1.583 . S
C2389 C499 1.581 . S
C2419 C535 1.265 . S
C2424 C783 1.262 . S
C2449 C355 1.267 . S
C2454 C893 1.263 . S
C2479 C391 1.902 . S
C2484 C933 1.903 . S
C2514 C983 1.582 . S
C2509 C427 1.577 . S
C2539 C31 1.900 . S
C2544 C943 1.902 . S
C2569 C67 1.581 . S
C2574 C973 1.583 . S
C2599 C103 1.265 . S
C2604 C903 1.262 . S
