# Generated by pormake.
# Topology ptr, (4,4)-cn, num edge types: 1
# Building blocks:
#     Node 0, Type 0, BuildingBlock: UXUYUI_clean_sbu_0, # of connection points: 4
#     Node 1, Type 0, BuildingBlock: UXUYUI_clean_sbu_0, # of connection points: 4
#     Node 2, Type 0, BuildingBlock: UXUYUI_clean_sbu_0, # of connection points: 4
#     Node 3, Type 0, BuildingBlock: UXUYUI_clean_sbu_0, # of connection points: 4
#     Node 4, Type 0, BuildingBlock: UXUYUI_clean_sbu_0, # of connection points: 4
#     Node 5, Type 0, BuildingBlock: UXUYUI_clean_sbu_0, # of connection points: 4
#     Node 6, Type 0, BuildingBlock: UXUYUI_clean_sbu_0, # of connection points: 4
#     Node 7, Type 0, BuildingBlock: UXUYUI_clean_sbu_0, # of connection points: 4
#     Node 8, Type 0, BuildingBlock: UXUYUI_clean_sbu_0, # of connection points: 4
#     Node 9, Type 0, BuildingBlock: UXUYUI_clean_sbu_0, # of connection points: 4
#     Node 10, Type 0, BuildingBlock: UXUYUI_clean_sbu_0, # of connection points: 4
#     Node 11, Type 0, BuildingBlock: UXUYUI_clean_sbu_0, # of connection points: 4
#     Node 12, Type 0, BuildingBlock: UXUYUI_clean_sbu_0, # of connection points: 4
#     Node 13, Type 0, BuildingBlock: UXUYUI_clean_sbu_0, # of connection points: 4
#     Node 14, Type 0, BuildingBlock: UXUYUI_clean_sbu_0, # of connection points: 4
#     Node 15, Type 0, BuildingBlock: UXUYUI_clean_sbu_0, # of connection points: 4
#     Node 16, Type 0, BuildingBlock: UXUYUI_clean_sbu_0, # of connection points: 4
#     Node 17, Type 0, BuildingBlock: UXUYUI_clean_sbu_0, # of connection points: 4
#     Node 18, Type 1, BuildingBlock: KUFVIS_clean_linker_0, # of connection points: 4
#     Node 19, Type 1, BuildingBlock: KUFVIS_clean_linker_0, # of connection points: 4
#     Node 20, Type 1, BuildingBlock: KUFVIS_clean_linker_0, # of connection points: 4
#     Node 21, Type 1, BuildingBlock: KUFVIS_clean_linker_0, # of connection points: 4
#     Node 22, Type 1, BuildingBlock: KUFVIS_clean_linker_0, # of connection points: 4
#     Node 23, Type 1, BuildingBlock: KUFVIS_clean_linker_0, # of connection points: 4
#     Node 24, Type 1, BuildingBlock: KUFVIS_clean_linker_0, # of connection points: 4
#     Node 25, Type 1, BuildingBlock: KUFVIS_clean_linker_0, # of connection points: 4
#     Node 26, Type 1, BuildingBlock: KUFVIS_clean_linker_0, # of connection points: 4
#     Node 27, Type 1, BuildingBlock: KUFVIS_clean_linker_0, # of connection points: 4
#     Node 28, Type 1, BuildingBlock: KUFVIS_clean_linker_0, # of connection points: 4
#     Node 29, Type 1, BuildingBlock: KUFVIS_clean_linker_0, # of connection points: 4
#     Node 30, Type 1, BuildingBlock: KUFVIS_clean_linker_0, # of connection points: 4
#     Node 31, Type 1, BuildingBlock: KUFVIS_clean_linker_0, # of connection points: 4
#     Node 32, Type 1, BuildingBlock: KUFVIS_clean_linker_0, # of connection points: 4
#     Node 33, Type 1, BuildingBlock: KUFVIS_clean_linker_0, # of connection points: 4
#     Node 34, Type 1, BuildingBlock: KUFVIS_clean_linker_0, # of connection points: 4
#     Node 35, Type 1, BuildingBlock: KUFVIS_clean_linker_0, # of connection points: 4
#     Edge 36, Type (0, 1), BuildingBlock: EZIPEK_clean_linker_0, # of connection points: 2
#     Edge 37, Type (0, 1), BuildingBlock: EZIPEK_clean_linker_0, # of connection points: 2
#     Edge 38, Type (0, 1), BuildingBlock: EZIPEK_clean_linker_0, # of connection points: 2
#     Edge 39, Type (0, 1), BuildingBlock: EZIPEK_clean_linker_0, # of connection points: 2
#     Edge 40, Type (0, 1), BuildingBlock: EZIPEK_clean_linker_0, # of connection points: 2
#     Edge 41, Type (0, 1), BuildingBlock: EZIPEK_clean_linker_0, # of connection points: 2
#     Edge 42, Type (0, 1), BuildingBlock: EZIPEK_clean_linker_0, # of connection points: 2
#     Edge 43, Type (0, 1), BuildingBlock: EZIPEK_clean_linker_0, # of connection points: 2
#     Edge 44, Type (0, 1), BuildingBlock: EZIPEK_clean_linker_0, # of connection points: 2
#     Edge 45, Type (0, 1), BuildingBlock: EZIPEK_clean_linker_0, # of connection points: 2
#     Edge 46, Type (0, 1), BuildingBlock: EZIPEK_clean_linker_0, # of connection points: 2
#     Edge 47, Type (0, 1), BuildingBlock: EZIPEK_clean_linker_0, # of connection points: 2
#     Edge 48, Type (0, 1), BuildingBlock: EZIPEK_clean_linker_0, # of connection points: 2
#     Edge 49, Type (0, 1), BuildingBlock: EZIPEK_clean_linker_0, # of connection points: 2
#     Edge 50, Type (0, 1), BuildingBlock: EZIPEK_clean_linker_0, # of connection points: 2
#     Edge 51, Type (0, 1), BuildingBlock: EZIPEK_clean_linker_0, # of connection points: 2
#     Edge 52, Type (0, 1), BuildingBlock: EZIPEK_clean_linker_0, # of connection points: 2
#     Edge 53, Type (0, 1), BuildingBlock: EZIPEK_clean_linker_0, # of connection points: 2
#     Edge 54, Type (0, 1), BuildingBlock: EZIPEK_clean_linker_0, # of connection points: 2
#     Edge 55, Type (0, 1), BuildingBlock: EZIPEK_clean_linker_0, # of connection points: 2
#     Edge 56, Type (0, 1), BuildingBlock: EZIPEK_clean_linker_0, # of connection points: 2
#     Edge 57, Type (0, 1), BuildingBlock: EZIPEK_clean_linker_0, # of connection points: 2
#     Edge 58, Type (0, 1), BuildingBlock: EZIPEK_clean_linker_0, # of connection points: 2
#     Edge 59, Type (0, 1), BuildingBlock: EZIPEK_clean_linker_0, # of connection points: 2
#     Edge 60, Type (0, 1), BuildingBlock: EZIPEK_clean_linker_0, # of connection points: 2
#     Edge 61, Type (0, 1), BuildingBlock: EZIPEK_clean_linker_0, # of connection points: 2
#     Edge 62, Type (0, 1), BuildingBlock: EZIPEK_clean_linker_0, # of connection points: 2
#     Edge 63, Type (0, 1), BuildingBlock: EZIPEK_clean_linker_0, # of connection points: 2
#     Edge 64, Type (0, 1), BuildingBlock: EZIPEK_clean_linker_0, # of connection points: 2
#     Edge 65, Type (0, 1), BuildingBlock: EZIPEK_clean_linker_0, # of connection points: 2
#     Edge 66, Type (0, 1), BuildingBlock: EZIPEK_clean_linker_0, # of connection points: 2
#     Edge 67, Type (0, 1), BuildingBlock: EZIPEK_clean_linker_0, # of connection points: 2
#     Edge 68, Type (0, 1), BuildingBlock: EZIPEK_clean_linker_0, # of connection points: 2
#     Edge 69, Type (0, 1), BuildingBlock: EZIPEK_clean_linker_0, # of connection points: 2
#     Edge 70, Type (0, 1), BuildingBlock: EZIPEK_clean_linker_0, # of connection points: 2
#     Edge 71, Type (0, 1), BuildingBlock: EZIPEK_clean_linker_0, # of connection points: 2
#     Edge 72, Type (0, 1), BuildingBlock: EZIPEK_clean_linker_0, # of connection points: 2
#     Edge 73, Type (0, 1), BuildingBlock: EZIPEK_clean_linker_0, # of connection points: 2
#     Edge 74, Type (0, 1), BuildingBlock: EZIPEK_clean_linker_0, # of connection points: 2
#     Edge 75, Type (0, 1), BuildingBlock: EZIPEK_clean_linker_0, # of connection points: 2
#     Edge 76, Type (0, 1), BuildingBlock: EZIPEK_clean_linker_0, # of connection points: 2
#     Edge 77, Type (0, 1), BuildingBlock: EZIPEK_clean_linker_0, # of connection points: 2
#     Edge 78, Type (0, 1), BuildingBlock: EZIPEK_clean_linker_0, # of connection points: 2
#     Edge 79, Type (0, 1), BuildingBlock: EZIPEK_clean_linker_0, # of connection points: 2
#     Edge 80, Type (0, 1), BuildingBlock: EZIPEK_clean_linker_0, # of connection points: 2
#     Edge 81, Type (0, 1), BuildingBlock: EZIPEK_clean_linker_0, # of connection points: 2
#     Edge 82, Type (0, 1), BuildingBlock: EZIPEK_clean_linker_0, # of connection points: 2
#     Edge 83, Type (0, 1), BuildingBlock: EZIPEK_clean_linker_0, # of connection points: 2
#     Edge 84, Type (0, 1), BuildingBlock: EZIPEK_clean_linker_0, # of connection points: 2
#     Edge 85, Type (0, 1), BuildingBlock: EZIPEK_clean_linker_0, # of connection points: 2
#     Edge 86, Type (0, 1), BuildingBlock: EZIPEK_clean_linker_0, # of connection points: 2
#     Edge 87, Type (0, 1), BuildingBlock: EZIPEK_clean_linker_0, # of connection points: 2
#     Edge 88, Type (0, 1), BuildingBlock: EZIPEK_clean_linker_0, # of connection points: 2
#     Edge 89, Type (0, 1), BuildingBlock: EZIPEK_clean_linker_0, # of connection points: 2
#     Edge 90, Type (0, 1), BuildingBlock: EZIPEK_clean_linker_0, # of connection points: 2
#     Edge 91, Type (0, 1), BuildingBlock: EZIPEK_clean_linker_0, # of connection points: 2
#     Edge 92, Type (0, 1), BuildingBlock: EZIPEK_clean_linker_0, # of connection points: 2
#     Edge 93, Type (0, 1), BuildingBlock: EZIPEK_clean_linker_0, # of connection points: 2
#     Edge 94, Type (0, 1), BuildingBlock: EZIPEK_clean_linker_0, # of connection points: 2
#     Edge 95, Type (0, 1), BuildingBlock: EZIPEK_clean_linker_0, # of connection points: 2
#     Edge 96, Type (0, 1), BuildingBlock: EZIPEK_clean_linker_0, # of connection points: 2
#     Edge 97, Type (0, 1), BuildingBlock: EZIPEK_clean_linker_0, # of connection points: 2
#     Edge 98, Type (0, 1), BuildingBlock: EZIPEK_clean_linker_0, # of connection points: 2
#     Edge 99, Type (0, 1), BuildingBlock: EZIPEK_clean_linker_0, # of connection points: 2
#     Edge 100, Type (0, 1), BuildingBlock: EZIPEK_clean_linker_0, # of connection points: 2
#     Edge 101, Type (0, 1), BuildingBlock: EZIPEK_clean_linker_0, # of connection points: 2
#     Edge 102, Type (0, 1), BuildingBlock: EZIPEK_clean_linker_0, # of connection points: 2
#     Edge 103, Type (0, 1), BuildingBlock: EZIPEK_clean_linker_0, # of connection points: 2
#     Edge 104, Type (0, 1), BuildingBlock: EZIPEK_clean_linker_0, # of connection points: 2
#     Edge 105, Type (0, 1), BuildingBlock: EZIPEK_clean_linker_0, # of connection points: 2
#     Edge 106, Type (0, 1), BuildingBlock: EZIPEK_clean_linker_0, # of connection points: 2
#     Edge 107, Type (0, 1), BuildingBlock: EZIPEK_clean_linker_0, # of connection points: 2
# Relax obj value: 0.092
# Max RMSD: 0.233
# Mean RMSD: 0.128
data_MOF--net-ptr--node1-UXUYUI_clean_sbu_0--node2-KUFVIS_clean_linker_0--edge1-EZIPEK_clean_linker_0
_symmetry_space_group_name_H-M    P1
_symmetry_Int_Tables_number       1
_symmetry_cell_setting            triclinic
loop_
_symmetry_equiv_pos_as_xyz
'x, y, z'
_cell_length_a     76.835818
_cell_length_b     76.852049
_cell_length_c     44.973443
_cell_angle_alpha  90.004588
_cell_angle_beta   90.025945
_cell_angle_gamma 120.05832
loop_
_atom_site_label
_atom_site_type_symbol
_atom_site_fract_x
_atom_site_fract_y
_atom_site_fract_z
_atom_type_partial_charge
Li0 Li 0.99364 0.34582 0.00041 0.0
Li1 Li 0.02891 0.36083 0.00773 0.0
Li2 Li 1.00752 0.37392 0.03355 0.0
Li3 Li 0.01442 0.37802 0.97816 0.0
C4 C 0.99795 0.32919 0.04943 0.0
N5 N 0.9774 0.28999 0.06949 0.0
C6 C 1.00054 0.31444 0.03534 0.0
C7 C 0.98515 0.32411 0.07394 0.0
C8 C 0.98993 0.29466 0.04574 0.0
C9 C 0.97484 0.30417 0.08371 0.0
C10 C 0.02775 0.35611 0.94621 0.0
C11 C 0.05869 0.37859 0.92088 0.0
N12 N 0.05529 0.36367 0.90141 0.0
C13 C 0.02454 0.34102 0.92587 0.0
C14 C 0.04495 0.37507 0.94363 0.0
C15 C 0.03865 0.34513 0.90342 0.0
C16 C 0.95393 0.31348 0.01476 0.0
N17 N 0.96932 0.32034 0.99482 0.0
C18 C 0.95035 0.29155 0.96397 0.0
C19 C 0.96786 0.30973 0.96984 0.0
C20 C 0.93423 0.28429 0.98398 0.0
C21 C 0.93611 0.29533 0.00977 0.0
H22 H 0.95537 0.32226 0.03434 0.0
H23 H 0.9802 0.31554 0.95427 0.0
C24 C 0.06183 0.36499 0.04031 0.0
N25 N 0.05179 0.35744 0.01431 0.0
C26 C 0.07828 0.36278 0.04769 0.0
C27 C 0.07405 0.34525 0.00127 0.0
C28 C 0.0575 0.34761 0.99491 0.0
C29 C 0.08445 0.35269 0.02814 0.0
H30 H 0.0569 0.37261 0.05543 0.0
H31 H 0.04912 0.34132 0.97468 0.0
C32 C 0.96989 0.36062 0.99003 0.0
N33 N 0.93071 0.34219 0.96968 0.0
C34 C 0.96567 0.3553 0.96008 0.0
C35 C 0.9542 0.35665 0.00962 0.0
C36 C 0.94575 0.34596 0.95023 0.0
C37 C 0.93449 0.34731 -0.00111 0.0
C38 C 0.05036 0.40696 0.01643 0.0
C39 C 0.04854 0.42247 0.02957 0.0
C40 C 0.06943 0.41026 0.00885 0.0
C41 C 0.06579 0.44105 0.03465 0.0
C42 C 0.08632 0.42905 0.01429 0.0
N43 N 0.08417 0.44393 0.02696 0.0
C44 C 0.01538 0.39116 0.09167 0.0
C45 C 0.99402 0.39741 0.06081 0.0
C46 C 0.01528 0.40414 0.11339 0.0
N47 N 1.00497 0.38824 0.06594 0.0
C48 C 0.99346 0.41042 0.0819 0.0
C49 C 1.00439 0.41405 0.10831 0.0
H50 H 0.02428 0.38398 0.09482 0.0
H51 H 0.98638 0.39525 0.03979 0.0
C52 C 0.01414 0.39151 0.91867 0.0
N53 N 0.01826 0.39697 0.94773 0.0
C54 C 0.01485 0.40525 0.89764 0.0
C55 C 0.02458 0.43009 0.93665 0.0
C56 C 0.02346 0.41583 0.95694 0.0
C57 C 0.01987 0.42467 0.90677 0.0
H58 H 1.00966 0.37631 0.91199 0.0
H59 H 0.026 0.41958 0.98024 0.0
O60 O 1.00789 0.34852 0.0392 0.0
O61 O 0.01405 0.35218 0.96837 0.0
O62 O 0.98924 0.36931 0.00019 0.0
O63 O 0.03365 0.38847 0.01198 0.0
H64 H 1.01043 0.31819 0.01633 0.0
H65 H 0.98305 0.33542 0.08508 0.0
H66 H 0.99163 0.28303 0.03491 0.0
H67 H 0.96477 0.29997 0.10253 0.0
H68 H 0.07204 0.39322 0.91865 0.0
H69 H 0.01135 0.32623 0.9275 0.0
H70 H 0.04757 0.387 0.95877 0.0
H71 H 0.03637 0.33356 0.8876 0.0
H72 H 0.94927 0.28334 0.94382 0.0
H73 H 0.92387 0.29008 0.02557 0.0
H74 H 0.08601 0.3687 0.06861 0.0
H75 H 0.07842 0.33735 0.98577 0.0
H76 H 0.97761 0.35806 0.94472 0.0
H77 H 0.95718 0.36047 0.03294 0.0
H78 H 0.94225 0.34162 0.92716 0.0
H79 H 0.92219 0.34403 0.01382 0.0
H80 H 0.03397 0.42029 0.03561 0.0
H81 H 0.07126 0.39845 -0.00104 0.0
H82 H 0.06456 0.45318 0.04472 0.0
H83 H 0.10115 0.43179 0.0085 0.0
H84 H 0.02399 0.40684 0.13355 0.0
H85 H 0.98513 0.41806 0.07731 0.0
H86 H 0.011 0.40065 0.87468 0.0
H87 H 0.02827 0.44491 0.94434 0.0
Li88 Li 0.67023 0.64946 -0.00107 0.0
Li89 Li 0.65534 0.66989 0.00593 0.0
Li90 Li 0.64162 0.63529 0.03158 0.0
Li91 Li 0.63828 0.63835 0.97598 0.0
C92 C 0.68642 0.66951 0.04844 0.0
N93 N 0.72537 0.68657 0.06928 0.0
C94 C 0.7017 0.68695 0.0352 0.0
C95 C 0.69084 0.66088 0.07249 0.0
C96 C 0.72133 0.69529 0.04599 0.0
C97 C 0.71066 0.66972 0.08267 0.0
C98 C 0.66078 0.67378 0.94446 0.0
C99 C 0.63856 0.68182 0.91744 0.0
N100 N 0.65402 0.69407 0.89923 0.0
C101 C 0.67643 0.68642 0.9254 0.0
C102 C 0.64168 0.67145 0.94041 0.0
C103 C 0.67272 0.69656 0.9027 0.0
C104 C 0.70241 0.64139 0.01271 0.0
N105 N 0.69573 0.6504 0.99332 0.0
C106 C 0.72453 0.66042 0.96235 0.0
C107 C 0.70644 0.65986 0.96855 0.0
C108 C 0.73162 0.65109 0.98176 0.0
C109 C 0.72047 0.64158 0.00734 0.0
H110 H 0.69359 0.63379 0.03213 0.0
H111 H 0.70079 0.66675 0.95337 0.0
C112 C 0.65341 0.69851 0.04129 0.0
N113 N 0.65821 0.69589 0.01318 0.0
C114 C 0.65454 0.71656 0.04953 0.0
C115 C 0.66521 0.72896 -0.00037 0.0
C116 C 0.66416 0.71073 0.99243 0.0
C117 C 0.66058 0.73206 0.0286 0.0
H118 H 0.64867 0.68648 0.05732 0.0
H119 H 0.66815 0.70859 0.97033 0.0
C120 C 0.65492 0.61056 0.98943 0.0
N121 N 0.67292 0.58895 0.97144 0.0
C122 C 0.66096 0.61148 0.95989 0.0
C123 C 0.6579 0.59856 0.0098 0.0
C124 C 0.67009 0.60048 0.95125 0.0
C125 C 0.66704 0.58775 0.00026 0.0
C126 C 0.60964 0.64652 0.01342 0.0
C127 C 0.59351 0.62985 0.02694 0.0
C128 C 0.60746 0.66286 0.005 0.0
C129 C 0.5755 0.62976 0.03168 0.0
C130 C 0.58921 0.6622 0.01012 0.0
N131 N 0.57374 0.6458 0.02325 0.0
C132 C 0.62405 0.62607 0.08951 0.0
C133 C 0.61555 0.59843 0.05737 0.0
C134 C 0.61028 0.61324 0.11073 0.0
N135 N 0.62628 0.61846 0.06343 0.0
C136 C 0.60157 0.58513 0.07783 0.0
C137 C 0.59875 0.59257 0.10472 0.0
H138 H 0.63248 0.64211 0.09339 0.0
H139 H 0.61727 0.59291 0.03611 0.0
C140 C 0.62534 0.62419 0.91664 0.0
N141 N 0.61954 0.62341 0.9454 0.0
C142 C 0.61154 0.61139 0.89546 0.0
C143 C 0.58603 0.59765 0.93376 0.0
C144 C 0.60034 0.61055 0.95421 0.0
C145 C 0.59174 0.59782 0.90418 0.0
H146 H 0.64078 0.63433 0.91034 0.0
H147 H 0.59631 0.60982 0.97733 0.0
O148 O 0.66722 0.6609 0.03777 0.0
O149 O 0.66428 0.66376 0.96673 0.0
O150 O 0.64645 0.62164 -0.00154 0.0
O151 O 0.6276 0.64709 0.00933 0.0
H152 H 0.69845 0.69378 0.01656 0.0
H153 H 0.67912 0.6474 0.08296 0.0
H154 H 0.73336 0.70868 0.03581 0.0
H155 H 0.71436 0.66315 0.10115 0.0
H156 H 0.62384 0.68012 0.9141 0.0
H157 H 0.69133 0.68849 0.92818 0.0
H158 H 0.62934 0.66166 0.95466 0.0
H159 H 0.68471 0.70642 0.88785 0.0
H160 H 0.7328 0.66784 0.94238 0.0
H161 H 0.72555 0.63421 0.02271 0.0
H162 H 0.65082 0.71848 0.07208 0.0
H163 H 0.66992 0.74064 0.98297 0.0
H164 H 0.65892 0.62085 0.94395 0.0
H165 H 0.65342 0.5978 0.03279 0.0
H166 H 0.675 0.60118 0.92852 0.0
H167 H 0.66955 0.57849 0.01579 0.0
H168 H 0.59478 0.61702 0.03352 0.0
H169 H 0.61971 0.67597 0.99465 0.0
H170 H 0.56293 0.61693 0.04206 0.0
H171 H 0.58736 0.67474 0.00371 0.0
H172 H 0.60832 0.61938 0.13131 0.0
H173 H 0.5928 0.56927 0.07256 0.0
H174 H 0.61634 0.61169 0.87274 0.0
H175 H 0.57089 0.58715 0.94111 0.0
Li176 Li 0.37767 1.00458 0.9777 0.0
Li177 Li 0.38059 0.00971 0.03473 0.0
Li178 Li 0.34767 0.99085 0.00907 0.0
Li179 Li 0.36626 0.02539 0.00374 0.0
C180 C 0.36097 0.96494 0.01699 0.0
N181 N 0.34126 0.92451 0.03079 0.0
C182 C 0.35481 0.95864 0.04618 0.0
C183 C 0.35727 0.95074 0.99485 0.0
C184 C 0.34481 0.93811 0.05269 0.0
C185 C 0.34725 0.93035 0.00228 0.0
C186 C 0.40621 0.04908 0.99718 0.0
C187 C 0.42991 0.08236 0.01468 0.0
N188 N 0.43034 0.08978 0.98706 0.0
C189 C 0.40699 0.05699 0.96891 0.0
C190 C 0.41781 0.06179 0.02024 0.0
C191 C 0.41924 0.07763 0.96427 0.0
C192 C 0.39429 0.01057 0.91929 0.0
N193 N 0.39317 1.00261 0.94669 0.0
C194 C 0.41941 0.99571 0.93463 0.0
C195 C 0.40524 0.99513 0.9546 0.0
C196 C 0.4211 1.0041 0.9064 0.0
C197 C 0.40825 0.0114 0.89856 0.0
H198 H 0.38479 0.01679 0.91389 0.0
H199 H 0.40427 0.98931 0.97681 0.0
C200 C 0.39293 0.00777 0.09458 0.0
N201 N 0.39779 0.0103 0.06522 0.0
C202 C 0.406 1.0067 0.11522 0.0
C203 C 0.42853 0.0106 0.07489 0.0
C204 C 0.41517 0.01178 0.05514 0.0
C205 C 0.42392 0.00799 0.10525 0.0
H206 H 0.37878 1.00615 0.10184 0.0
H207 H 0.4184 0.01346 0.03156 0.0
C208 C 0.33614 0.99378 0.95489 0.0
N209 N 0.30174 0.96879 0.92309 0.0
C210 C 0.31812 0.99335 0.96122 0.0
C211 C 0.33673 0.98166 0.9322 0.0
C212 C 0.30087 0.98055 0.94497 0.0
C213 C 0.31916 0.9691 0.91639 0.0
C214 C 0.35086 0.02332 0.05604 0.0
C215 C 0.3335 0.0237 0.04784 0.0
C216 C 0.36332 0.03621 0.07834 0.0
C217 C 0.32904 0.03722 0.06186 0.0
C218 C 0.35829 0.04945 0.09191 0.0
N219 N 0.34142 0.04971 0.08342 0.0
C220 C 0.31335 0.9515 0.99569 0.0
C221 C 0.31149 0.96707 0.04011 0.0
C222 C 0.29481 0.93437 0.00186 0.0
N223 N 0.32132 0.96743 0.01477 0.0
C224 C 0.29306 0.95024 0.04725 0.0
C225 C 0.28466 0.93357 0.0282 0.0
H226 H 0.32156 0.95184 0.97602 0.0
H227 H 0.31819 0.9797 0.0552 0.0
C228 C 0.3754 0.06634 0.01608 0.0
N229 N 0.36544 0.04994 -0.00189 0.0
C230 C 0.37531 0.08413 0.00972 0.0
C231 C 0.35466 0.06785 0.96669 0.0
C232 C 0.3551 0.05042 0.97387 0.0
C233 C 0.36501 0.08499 0.98453 0.0
H234 H 0.38375 0.06577 0.03501 0.0
H235 H 0.3475 0.03737 0.95971 0.0
O236 O 0.37029 0.98491 0.01003 0.0
O237 O 0.39395 0.02901 0.00236 0.0
O238 O 0.35318 1.00619 0.97055 0.0
O239 O 0.35557 0.01032 0.04238 0.0
H240 H 0.35751 0.96949 0.06351 0.0
H241 H 0.3619 0.95543 0.97213 0.0
H242 H 0.33981 0.93298 0.07513 0.0
H243 H 0.34417 0.91916 0.98536 0.0
H244 H 0.43889 0.09242 0.03234 0.0
H245 H 0.39799 0.04732 0.9509 0.0
H246 H 0.4173 0.05586 0.04226 0.0
H247 H 0.41987 0.08401 0.94258 0.0
H248 H 0.42921 0.99005 0.94128 0.0
H249 H 0.40932 0.01804 0.8769 0.0
H250 H 0.40204 1.00453 0.13857 0.0
H251 H 0.44221 0.01154 0.06662 0.0
H252 H 0.31745 1.00272 0.97861 0.0
H253 H 0.35055 0.9818 0.92704 0.0
H254 H 0.28678 0.97995 0.94977 0.0
H255 H 0.31936 0.95956 0.89888 0.0
H256 H 0.32368 0.01377 0.03068 0.0
H257 H 0.37686 0.03618 0.08482 0.0
H258 H 0.31574 0.03779 0.0556 0.0
H259 H 0.36785 0.05961 0.10908 0.0
H260 H 0.28872 0.92169 0.98676 0.0
H261 H 0.28561 0.95004 0.0678 0.0
H262 H 0.38348 0.09717 0.02388 0.0
H263 H 0.3466 0.06809 0.94706 0.0
Li264 Li 0.03091 0.67103 0.0122 0.0
Li265 Li 1.00982 0.63873 0.03526 0.0
Li266 Li 0.01251 0.63938 0.9813 0.0
Li267 Li 0.99364 0.65303 0.00703 0.0
C268 C 0.04746 0.64467 0.02806 0.0
N269 N 0.07341 0.63874 0.06351 0.0
C270 C 0.05783 0.658 0.05126 0.0
C271 C 0.05032 0.62835 0.02285 0.0
C272 C 0.07087 0.65473 0.06894 0.0
C273 C 0.06351 0.62561 0.04101 0.0
C274 C 1.0071 0.66323 0.07359 0.0
C275 C 0.98591 0.64713 0.1161 0.0
N276 N 1.00084 0.66029 0.13436 0.0
C277 C 0.02224 0.67661 0.09279 0.0
C278 C 0.98878 0.6484 0.08532 0.0
C279 C 0.01877 0.67488 0.12344 0.0
C280 C 0.05353 0.71118 0.03155 0.0
N281 N 0.05493 0.69674 0.01606 0.0
C282 C 0.09072 0.71776 0.01269 0.0
C283 C 0.073 0.69982 0.00609 0.0
C284 C 0.08976 0.73231 0.03037 0.0
C285 C 0.07086 0.72911 0.03916 0.0
H286 H 0.03899 0.70839 0.03908 0.0
H287 H 0.07377 0.68804 0.99407 0.0
C288 C 0.99823 0.60115 0.05945 0.0
N289 N 1.00834 0.62105 0.06654 0.0
C290 C 0.9986 0.58703 0.07859 0.0
C291 C 0.01948 0.61404 0.1123 0.0
C292 C 0.01886 0.62766 0.09241 0.0
C293 C 1.00941 0.59351 0.10526 0.0
H294 H 0.99044 0.59632 0.03841 0.0
H295 H 0.02741 0.64354 0.09717 0.0
C296 C 0.02661 0.67656 0.95155 0.0
N297 N 0.05179 0.69814 0.90517 0.0
C298 C 0.02245 0.68914 0.93422 0.0
C299 C 0.04358 0.67497 0.94532 0.0
C300 C 0.03536 0.69991 0.91085 0.0
C301 C 0.05612 0.686 0.92178 0.0
C302 C 0.96859 0.6146 -0.00249 0.0
C303 C 0.9635 0.61266 0.96737 0.0
C304 C 0.95341 0.60639 0.01895 0.0
C305 C 0.94323 0.6027 0.95918 0.0
C306 C 0.93331 0.59655 0.00986 0.0
N307 N 0.92869 0.59494 0.98042 0.0
C308 C 1.00991 0.60489 0.95955 0.0
C309 C 0.01377 0.62715 0.92027 0.0
C310 C 1.0086 0.59049 0.93938 0.0
N311 N 0.01257 0.62281 0.9498 0.0
C312 C 0.01264 0.61318 0.89926 0.0
C313 C 1.00999 0.59464 0.9089 0.0
H314 H 1.00848 0.60168 0.98312 0.0
H315 H 0.01524 0.64122 0.91296 0.0
C316 C 0.95982 0.65779 0.02444 0.0
N317 N 0.97063 0.65639 0.0015 0.0
C318 C 0.94282 0.65956 0.01878 0.0
C319 C 0.94856 0.65861 0.96613 0.0
C320 C 0.96541 0.65694 0.97276 0.0
C321 C 0.93706 0.65988 0.98928 0.0
H322 H 0.96429 0.65747 0.0471 0.0
H323 H 0.97427 0.65584 0.95494 0.0
O324 O 0.03449 0.64752 0.01065 0.0
O325 O 1.01015 0.66471 0.0435 0.0
O326 O 0.01419 0.66609 0.97466 0.0
O327 O 0.98833 0.62491 0.00604 0.0
H328 H 0.05556 0.67052 0.05596 0.0
H329 H 0.04246 0.61791 0.00496 0.0
H330 H 0.0789 0.66487 0.08708 0.0
H331 H 0.06583 0.61302 0.03728 0.0
H332 H 0.97184 0.63565 0.12546 0.0
H333 H 0.03658 0.68809 0.0842 0.0
H334 H 0.97699 0.63783 0.07083 0.0
H335 H 0.03036 0.68509 0.13856 0.0
H336 H 0.10507 0.71983 0.00542 0.0
H337 H 0.06959 0.7401 0.05266 0.0
H338 H 0.9908 0.57127 0.07249 0.0
H339 H 0.02811 0.61948 0.13265 0.0
H340 H 1.00939 0.69056 0.93882 0.0
H341 H 0.04698 0.66523 0.95837 0.0
H342 H 0.03232 0.7097 0.89724 0.0
H343 H 0.06929 0.68489 0.91669 0.0
H344 H 0.97504 0.61911 0.95049 0.0
H345 H 0.9571 0.60765 0.04236 0.0
H346 H 0.93907 0.60123 0.93595 0.0
H347 H 0.9214 0.59022 0.02621 0.0
H348 H 1.00638 0.57623 0.9474 0.0
H349 H 0.01355 0.61665 0.87577 0.0
H350 H 0.93424 0.66058 0.0371 0.0
H351 H 0.94449 0.65885 0.94313 0.0
Li352 Li 0.34992 0.36327 0.01012 0.0
Li353 Li 0.3826 0.37403 0.03348 0.0
Li354 Li 0.3817 0.3757 0.97987 0.0
Li355 Li 0.3671 0.34311 0.00502 0.0
C356 C 0.3793 0.40671 0.0256 0.0
N357 N 0.38988 0.44026 0.06015 0.0
C358 C 0.3671 0.40567 0.04937 0.0
C359 C 0.39692 0.42475 0.01946 0.0
C360 C 0.37272 0.42281 0.06658 0.0
C361 C 0.40201 0.44156 0.03719 0.0
C362 C 0.35819 0.33867 0.06555 0.0
C363 C 0.37818 0.32947 0.09602 0.0
N364 N 0.36167 0.31754 0.11272 0.0
C365 C 0.34145 0.32638 0.08309 0.0
C366 C 0.37673 0.34029 0.07213 0.0
C367 C 0.3435 0.3158 0.10681 0.0
C368 C 0.31018 0.34699 0.03055 0.0
N369 N 0.32479 0.36262 0.01493 0.0
C370 C 0.30443 0.37809 0.01154 0.0
C371 C 0.32223 0.37798 0.00522 0.0
C372 C 0.28952 0.36257 0.02883 0.0
C373 C 0.29238 0.34671 0.03789 0.0
H374 H 0.31261 0.33501 0.03803 0.0
H375 H 0.3342 0.39038 0.99317 0.0
C376 C 0.41961 0.40147 0.05827 0.0
N377 N 0.39995 0.38919 0.06545 0.0
C378 C 0.43314 0.41456 0.07943 0.0
C379 C 0.40603 0.40169 0.11527 0.0
C380 C 0.39296 0.38894 0.09332 0.0
C381 C 0.42629 0.4148 0.10819 0.0
H382 H 0.42464 0.40149 0.03581 0.0
H383 H 0.37719 0.37922 0.09827 0.0
C384 C 0.34814 0.35016 0.94469 0.0
N385 N 0.3353 0.34806 0.88666 0.0
C386 C 0.35221 0.33944 0.92333 0.0
C387 C 0.3374 0.35966 0.93653 0.0
C388 C 0.34565 0.33861 0.8941 0.0
C389 C 0.33106 0.35845 0.9071 0.0
C390 C 0.40701 0.3584 0.99104 0.0
C391 C 0.40383 0.35262 0.96118 0.0
C392 C 0.42171 0.35691 0.00727 0.0
C393 C 0.41535 0.34528 0.94805 0.0
C394 C 0.43293 0.34948 0.99335 0.0
N395 N 0.42952 0.34385 0.96428 0.0
C396 C 0.41808 0.40362 0.95551 0.0
C397 C 0.39162 0.39377 0.92063 0.0
C398 C 0.43214 0.41659 0.93483 0.0
N399 N 0.39828 0.39242 0.94811 0.0
C400 C 0.4052 0.40657 0.89921 0.0
C401 C 0.42569 0.41805 0.90631 0.0
H402 H 0.42295 0.40246 0.97761 0.0
H403 H 0.37588 0.38506 0.91523 0.0
C404 C 0.34818 0.30405 0.98099 0.0
N405 N 0.36273 0.31629 0.00048 0.0
C406 C 0.34602 0.28548 0.9731 0.0
C407 C 0.37267 0.29157 0.00745 0.0
C408 C 0.37467 0.31027 0.01413 0.0
C409 C 0.35871 0.2793 0.98584 0.0
H410 H 0.3387 0.30901 0.97072 0.0
H411 H 0.38625 0.32023 0.02937 0.0
O412 O 0.37405 0.39009 0.0085 0.0
O413 O 0.35642 0.34928 0.04244 0.0
O414 O 0.35427 0.351 0.97352 0.0
O415 O 0.39553 0.3651 0.0046 0.0
H416 H 0.35354 0.39174 0.05462 0.0
H417 H 0.40655 0.42574 0.0012 0.0
H418 H 0.36345 0.42223 0.08508 0.0
H419 H 0.4156 0.45564 0.03274 0.0
H420 H 0.39243 0.33056 0.10128 0.0
H421 H 0.327 0.32503 0.07848 0.0
H422 H 0.38989 0.34975 0.05894 0.0
H423 H 0.33065 0.30622 0.12054 0.0
H424 H 0.30265 0.39051 0.00412 0.0
H425 H 0.28113 0.33447 0.05116 0.0
H426 H 0.44865 0.42466 0.07331 0.0
H427 H 0.40032 0.40175 0.13726 0.0
H428 H 0.36028 0.33176 0.92919 0.0
H429 H 0.33413 0.36803 0.95265 0.0
H430 H 0.34874 0.33042 0.87735 0.0
H431 H 0.3228 0.36582 0.90049 0.0
H432 H 0.39259 0.35378 0.94832 0.0
H433 H 0.42432 0.3613 0.03044 0.0
H434 H 0.413 0.34069 0.92497 0.0
H435 H 0.4443 0.34816 0.00567 0.0
H436 H 0.44786 0.42536 0.94095 0.0
H437 H 0.39981 0.4075 0.87735 0.0
H438 H 0.33499 0.27632 0.9565 0.0
H439 H 0.38263 0.28719 0.01778 0.0
Li440 Li 0.65457 0.98773 0.00673 0.0
Li441 Li 0.64201 0.0093 0.03124 0.0
Li442 Li 0.63997 1.00275 0.97585 0.0
Li443 Li 0.6718 0.0236 -0.00083 0.0
C444 C 0.61623 0.96379 0.01817 0.0
N445 N 0.5968 0.92438 0.03767 0.0
C446 C 0.61169 0.95944 0.0483 0.0
C447 C 0.61067 0.94807 -0.00209 0.0
C448 C 0.60189 0.93943 0.05773 0.0
C449 C 0.60093 0.92826 0.00822 0.0
C450 C 0.68526 0.01928 0.05167 0.0
C451 C 0.70733 0.04416 0.08703 0.0
N452 N 0.72256 0.04121 0.07804 0.0
C453 C 0.70105 0.01635 0.04294 0.0
C454 C 0.68833 0.03319 0.07399 0.0
C455 C 0.71984 0.02765 0.05648 0.0
C456 C 0.66264 0.9557 0.99265 0.0
N457 N 0.6579 0.96493 0.01444 0.0
C458 C 0.65771 0.94212 0.05081 0.0
C459 C 0.65563 0.9586 0.04315 0.0
C460 C 0.66239 0.93223 0.02877 0.0
C461 C 0.66487 0.93911 -0.00065 0.0
H462 H 0.66488 0.96127 0.97013 0.0
H463 H 0.65221 0.9664 0.06014 0.0
C464 C 0.61311 0.01708 0.05411 0.0
N465 N 0.6273 0.01247 0.0627 0.0
C466 C 0.60027 0.01815 0.07504 0.0
C467 C 0.61691 0.00973 0.11339 0.0
C468 C 0.62963 0.00907 0.09171 0.0
C469 C 0.60191 0.01409 0.10493 0.0
H470 H 0.61154 0.01954 0.03082 0.0
H471 H 0.6409 1.00521 0.09784 0.0
C472 C 0.66285 0.99891 0.93881 0.0
N473 N 0.65665 0.99188 0.87834 0.0
C474 C 0.67268 0.01474 0.91858 0.0
C475 C 0.64981 0.97954 0.92819 0.0
C476 C 0.66939 0.01086 0.88811 0.0
C477 C 0.64686 0.97629 0.89758 0.0
C478 C 0.65751 0.04866 0.99505 0.0
C479 C 0.66699 0.05814 0.96853 0.0
C480 C 0.65736 0.0602 0.01898 0.0
C481 C 0.67625 0.07905 0.96641 0.0
C482 C 0.66677 0.08107 0.01597 0.0
N483 N 0.67595 0.08998 0.98998 0.0
C484 C 0.60247 0.98361 0.94619 0.0
C485 C 0.62744 0.01274 0.9216 0.0
C486 C 0.58788 0.98179 0.92584 0.0
N487 N 0.62179 0.99899 0.94387 0.0
C488 C 0.6134 0.01142 0.90067 0.0
C489 C 0.59333 0.99596 0.90296 0.0
H490 H 0.59817 0.97317 0.96451 0.0
H491 H 0.64268 0.02512 0.92054 0.0
C492 C 0.71081 0.0466 0.97437 0.0
N493 N 0.69844 0.04706 0.99557 0.0
C494 C 0.72948 0.06357 0.96878 0.0
C495 C 0.7234 0.0807 0.00896 0.0
C496 C 0.70462 0.06348 0.01338 0.0
C497 C 0.73573 0.08105 0.98569 0.0
H498 H 0.70607 0.03311 0.96147 0.0
H499 H 0.69485 0.06338 0.03072 0.0
O500 O 0.62644 0.98334 0.00866 0.0
O501 O 0.66691 0.00871 0.03822 0.0
O502 O 0.66573 1.00238 0.96881 0.0
O503 O 0.64847 0.02821 -0.00235 0.0
H504 H 0.61592 0.97137 0.06431 0.0
H505 H 0.61391 0.95112 0.9745 0.0
H506 H 0.59842 0.93586 0.08102 0.0
H507 H 0.59669 0.91597 0.99281 0.0
H508 H 0.70999 0.05508 0.10419 0.0
H509 H 0.69886 1.00563 0.02565 0.0
H510 H 0.67624 0.03566 0.08087 0.0
H511 H 0.73227 0.02568 0.04981 0.0
H512 H 0.6558 0.9372 0.07375 0.0
H513 H 0.66862 0.93183 0.98191 0.0
H514 H 0.58877 0.02145 0.0679 0.0
H515 H 0.61843 1.00645 0.13635 0.0
H516 H 0.68246 0.02994 0.92619 0.0
H517 H 0.64189 0.96715 0.9434 0.0
H518 H 0.67685 0.02298 0.87225 0.0
H519 H 0.63676 0.96136 0.88913 0.0
H520 H 0.66758 0.04952 0.94999 0.0
H521 H 0.65026 0.05316 0.03977 0.0
H522 H 0.68377 0.08658 0.94609 0.0
H523 H 0.66684 0.09019 0.03435 0.0
H524 H 0.57244 0.96983 0.92836 0.0
H525 H 0.618 0.02269 0.88338 0.0
H526 H 0.73883 0.06321 0.95103 0.0
H527 H 0.72793 0.09384 0.02275 0.0
Li528 Li 0.66018 0.67748 0.3388 0.0
Li529 Li 0.69563 0.69722 0.34732 0.0
Li530 Li 0.67486 0.70891 0.36884 0.0
Li531 Li 0.68222 0.71197 0.31384 0.0
C532 C 0.66067 0.67301 0.40017 0.0
N533 N 0.63256 0.65213 0.44391 0.0
C534 C 0.66426 0.66182 0.42128 0.0
C535 C 0.64278 0.67357 0.40134 0.0
C536 C 0.64987 0.65137 0.44322 0.0
C537 C 0.62877 0.66293 0.42361 0.0
C538 C 0.68895 0.67408 0.29836 0.0
C539 C 0.70743 0.66633 0.26259 0.0
N540 N 0.70368 0.64987 0.27882 0.0
C541 C 0.68518 0.65705 0.31463 0.0
C542 C 0.70009 0.67876 0.27208 0.0
C543 C 0.6928 0.64502 0.30441 0.0
C544 C 0.62662 0.64926 0.30632 0.0
N545 N 0.63712 0.65136 0.3317 0.0
C546 C 0.61526 0.61662 0.34372 0.0
C547 C 0.63182 0.63548 0.3503 0.0
C548 C 0.60444 0.61401 0.31737 0.0
C549 C 0.61015 0.63063 0.29869 0.0
H550 H 0.63122 0.66207 0.29183 0.0
H551 H 0.64059 0.63728 0.37 0.0
C552 C 0.72216 0.68993 0.38137 0.0
N553 N 0.71956 0.69561 0.35387 0.0
C554 C 0.73955 0.68924 0.38804 0.0
C555 C 0.75132 0.70011 0.33791 0.0
C556 C 0.73372 0.70073 0.33224 0.0
C557 C 0.75434 0.69441 0.36618 0.0
H558 H 0.71085 0.68623 0.39827 0.0
H559 H 0.73152 0.70563 0.31075 0.0
C560 C 0.64069 0.70493 0.3317 0.0
N561 N 0.6099 0.71331 0.32436 0.0
C562 C 0.64486 0.72388 0.32177 0.0
C563 C 0.62079 0.69016 0.33749 0.0
C564 C 0.62911 0.72785 0.31831 0.0
C565 C 0.60546 0.69472 0.33378 0.0
C566 C 0.71961 0.73534 0.35815 0.0
C567 C 0.72319 0.73589 0.3887 0.0
C568 C 0.73581 0.74464 0.33847 0.0
C569 C 0.743 0.74566 0.39908 0.0
C570 C 0.7554 0.75426 0.34973 0.0
N571 N 0.75855 0.75456 0.37954 0.0
C572 C 0.67016 0.71984 0.42884 0.0
C573 C 0.6716 0.74114 0.38962 0.0
C574 C 0.66926 0.73279 0.44985 0.0
N575 N 0.67121 0.72418 0.39932 0.0
C576 C 0.6707 0.75445 0.4098 0.0
C577 C 0.66972 0.75038 0.44026 0.0
H578 H 0.67069 0.70674 0.43622 0.0
H579 H 0.67335 0.7447 0.36621 0.0
C580 C 0.67327 0.7218 0.257 0.0
N581 N 0.68526 0.72904 0.2814 0.0
C582 C 0.67349 0.73508 0.23554 0.0
C583 C 0.6986 0.76288 0.26452 0.0
C584 C 0.69792 0.7491 0.28537 0.0
C585 C 0.68608 0.75586 0.23951 0.0
H586 H 0.66302 0.70581 0.25482 0.0
H587 H 0.70685 0.75446 0.3054 0.0
O588 O 0.67455 0.68306 0.37834 0.0
O589 O 0.68192 0.68622 0.3083 0.0
O590 O 0.65585 0.70057 0.33458 0.0
O591 O 0.70035 0.72529 0.34756 0.0
H592 H 0.67797 0.66112 0.42063 0.0
H593 H 0.63986 0.6823 0.3855 0.0
H594 H 0.65244 0.64263 0.45966 0.0
H595 H 0.61489 0.66329 0.42479 0.0
H596 H 0.71615 0.66979 0.24234 0.0
H597 H 0.67668 0.65332 0.33513 0.0
H598 H 0.70313 0.69192 0.25929 0.0
H599 H 0.6901 0.63185 0.31685 0.0
H600 H 0.61124 0.60407 0.35857 0.0
H601 H 0.6021 0.62911 0.27819 0.0
H602 H 0.74152 0.68481 0.41009 0.0
H603 H 0.76254 0.70426 0.32064 0.0
H604 H 0.66008 0.73544 0.31678 0.0
H605 H 0.61716 0.67528 0.34467 0.0
H606 H 0.63217 0.74247 0.31074 0.0
H607 H 0.59001 0.68344 0.33828 0.0
H608 H 0.71081 0.72859 0.4042 0.0
H609 H 0.73328 0.74417 0.31473 0.0
H610 H 0.746 0.7461 0.42265 0.0
H611 H 0.76809 0.7614 0.33477 0.0
H612 H 0.66886 0.72948 0.47333 0.0
H613 H 0.67145 0.76811 0.40183 0.0
H614 H 0.66354 0.72928 0.21651 0.0
H615 H 0.70831 0.77884 0.26827 0.0
Li616 Li 0.30953 0.97612 0.31403 0.0
Li617 Li 0.31067 0.97304 0.36904 0.0
Li618 Li 0.32516 1.00556 0.34588 0.0
Li619 Li 0.34242 0.98731 0.34012 0.0
C620 C 0.28717 0.99412 0.35141 0.0
N621 N 0.2697 0.0171 0.36424 0.0
C622 C 0.28333 0.99687 0.3809 0.0
C623 C 0.282 1.00292 0.32842 0.0
C624 C 0.27451 0.00856 0.38693 0.0
C625 C 0.27322 0.01453 0.33538 0.0
C626 C 0.31045 0.9399 0.3375 0.0
C627 C 0.31399 0.91053 0.34157 0.0
N628 N 0.29388 0.89862 0.33706 0.0
C629 C 0.28984 0.92737 0.33275 0.0
C630 C 0.32267 0.93143 0.34178 0.0
C631 C 0.28174 0.90655 0.33266 0.0
C632 C 0.2999 0.95542 0.25871 0.0
N633 N 0.29263 0.96143 0.28165 0.0
C634 C 0.2589 0.94085 0.26428 0.0
C635 C 0.27262 0.95467 0.28457 0.0
C636 C 0.26593 0.93414 0.24068 0.0
C637 C 0.28671 0.94176 0.23768 0.0
H638 H 0.31583 0.96068 0.25739 0.0
H639 H 0.26722 0.95929 0.30348 0.0
C640 C 0.29889 0.9533 0.42721 0.0
N641 N 0.29322 0.95526 0.39929 0.0
C642 C 0.28461 0.93989 0.44735 0.0
C643 C 0.25892 0.93094 0.40993 0.0
C644 C 0.27364 0.94452 0.39057 0.0
C645 C 0.2644 0.9286 0.43866 0.0
H646 H 0.31434 0.96221 0.43413 0.0
H647 H 0.26941 0.94665 0.36853 0.0
C648 C 0.35335 0.01811 0.2998 0.0
N649 N 0.38907 0.05167 0.28346 0.0
C650 C 0.36689 0.03056 0.32155 0.0
C651 C 0.35798 0.02274 0.26976 0.0
C652 C 0.38486 0.04745 0.31283 0.0
C653 C 0.37611 0.03978 0.26195 0.0
C654 C 0.34587 0.99303 0.40182 0.0
C655 C 0.35272 1.00561 0.4267 0.0
C656 C 0.3481 0.97606 0.40074 0.0
C657 C 0.36162 1.00097 0.45015 0.0
C658 C 0.35715 0.97197 0.42459 0.0
N659 N 0.36365 0.9844 0.44862 0.0
C660 C 0.3298 0.03812 0.38 0.0
C661 C 0.32978 0.04381 0.32816 0.0
C662 C 0.3318 0.05682 0.38621 0.0
N663 N 0.32875 0.03195 0.3514 0.0
C664 C 0.33193 0.06277 0.3334 0.0
C665 C 0.33283 0.06931 0.36277 0.0
H666 H 0.32881 0.02835 0.39801 0.0
H667 H 0.32878 0.03848 0.30562 0.0
C668 C 0.36975 0.97951 0.31014 0.0
N669 N 0.3681 0.98917 0.33436 0.0
C670 C 0.38831 0.98159 0.30245 0.0
C671 C 0.40311 1.00299 0.34534 0.0
C672 C 0.3843 1.00077 0.35195 0.0
C673 C 0.40531 0.99369 0.31991 0.0
H674 H 0.3567 0.97061 0.29634 0.0
H675 H 0.3828 0.00874 0.37066 0.0
O676 O 0.29644 0.98333 0.34513 0.0
O677 O 0.31878 0.96036 0.33726 0.0
O678 O 0.33579 1.00128 0.30769 0.0
O679 O 0.33735 0.99762 0.3786 0.0
H680 H 0.28739 0.99027 0.39895 0.0
H681 H 0.285 1.00102 0.30549 0.0
H682 H 0.27157 0.01094 0.40966 0.0
H683 H 0.26928 0.02157 0.31785 0.0
H684 H 0.32327 0.90377 0.3449 0.0
H685 H 0.28018 0.93362 0.32911 0.0
H686 H 0.3387 0.94089 0.34508 0.0
H687 H 0.2658 0.89669 0.32902 0.0
H688 H 0.24295 0.93514 0.26725 0.0
H689 H 0.29255 0.93678 0.21972 0.0
H690 H 0.28921 0.93845 0.46956 0.0
H691 H 0.24339 0.92251 0.4027 0.0
H692 H 0.36361 0.02721 0.34491 0.0
H693 H 0.34768 0.01321 0.25267 0.0
H694 H 0.39549 0.05718 0.32942 0.0
H695 H 0.3799 0.04354 0.23877 0.0
H696 H 0.35119 0.01885 0.42785 0.0
H697 H 0.34294 0.96616 0.38177 0.0
H698 H 0.36696 0.01056 0.46956 0.0
H699 H 0.35898 0.95891 0.42402 0.0
H700 H 0.33245 0.06149 0.40911 0.0
H701 H 0.33268 0.07211 0.31487 0.0
H702 H 0.38952 0.97422 0.28267 0.0
H703 H 0.41596 0.01245 0.35922 0.0
Li704 Li 0.04746 0.3399 0.31253 0.0
Li705 Li 0.04958 0.34494 0.36746 0.0
Li706 Li 0.01539 0.32294 0.34132 0.0
Li707 Li 0.03418 0.35862 0.33555 0.0
C708 C 0.0443 0.30489 0.34632 0.0
N709 N 0.0542 0.27503 0.35124 0.0
C710 C 0.06389 0.30977 0.35381 0.0
C711 C 0.02969 0.28477 0.34164 0.0
C712 C 0.06861 0.29447 0.35612 0.0
C713 C 0.03501 0.26991 0.34411 0.0
C714 C 0.07333 0.38276 0.32149 0.0
C715 C 0.09838 0.41798 0.32216 0.0
N716 N 0.09447 0.41942 0.29304 0.0
C717 C 0.06953 0.38458 0.29158 0.0
C718 C 0.08784 0.39958 0.33695 0.0
C719 C 0.08039 0.40324 0.27759 0.0
C720 C 0.05978 0.33613 0.25271 0.0
N721 N 0.06435 0.33883 0.28222 0.0
C722 C 0.09722 0.34394 0.27259 0.0
C723 C 0.08271 0.34288 0.2923 0.0
C724 C 0.09278 0.34098 0.24222 0.0
C725 C 0.07385 0.33698 0.2322 0.0
H726 H 0.04551 0.33385 0.24489 0.0
H727 H 0.08627 0.34583 0.31564 0.0
C728 C 0.05875 0.33521 0.4241 0.0
N729 N 0.06643 0.34694 0.39955 0.0
C730 C 0.07168 0.33459 0.44543 0.0
C731 C 0.10004 0.35819 0.41582 0.0
C732 C 0.0866 0.35848 0.39521 0.0
C733 C 0.09255 0.346 0.4411 0.0
H734 H 0.04264 0.32587 0.42657 0.0
H735 H 0.09224 0.36721 0.37505 0.0
C736 C 0.01197 0.32499 0.2801 0.0
N737 N 0.99311 0.29766 0.23457 0.0
C738 C 1.00134 0.32871 0.25817 0.0
C739 C 0.01303 0.30737 0.27876 0.0
C740 C 0.9919 0.31472 0.23535 0.0
C741 C 1.0034 0.29374 0.25561 0.0
C742 C 0.01446 0.3537 0.38476 0.0
C743 C 0.99631 0.35057 0.37285 0.0
C744 C 0.02384 0.36774 0.40753 0.0
C745 C 0.98795 0.36181 0.38368 0.0
C746 C 0.01497 0.37865 0.41779 0.0
N747 N 0.99738 0.37551 0.40572 0.0
C748 C 0.98775 0.29013 0.37462 0.0
C749 C 0.97439 0.29146 0.32772 0.0
C750 C 0.9696 0.27317 0.38256 0.0
N751 N 0.98982 0.299 0.34768 0.0
C752 C 0.95606 0.27424 0.33454 0.0
C753 C 0.95343 0.26516 0.36251 0.0
H754 H 1.0002 0.29647 0.39013 0.0
H755 H 0.97607 0.29891 0.30671 0.0
C756 C 0.04288 0.39887 0.34811 0.0
N757 N 0.03212 0.38241 0.33059 0.0
C758 C 0.04276 0.41672 0.34241 0.0
C759 C 0.02026 0.40023 0.30112 0.0
C760 C 0.02072 0.38271 0.30771 0.0
C761 C 0.03164 0.41756 0.31826 0.0
H762 H 0.05197 0.39831 0.36602 0.0
H763 H 0.01237 0.36947 0.29412 0.0
O764 O 0.03919 0.31958 0.34461 0.0
O765 O 0.06237 0.36478 0.33585 0.0
O766 O 0.02105 0.33852 0.30273 0.0
O767 O 0.02311 0.34322 0.37392 0.0
H768 H 0.07533 0.32515 0.35795 0.0
H769 H 0.01437 0.28064 0.33622 0.0
H770 H 0.08372 0.29806 0.36189 0.0
H771 H 0.02386 0.2543 0.34046 0.0
H772 H 0.10961 0.43114 0.33386 0.0
H773 H 0.05808 0.3718 0.27943 0.0
H774 H 0.09077 0.39847 0.36021 0.0
H775 H 0.07755 0.40489 0.25449 0.0
H776 H 0.11184 0.34733 0.28084 0.0
H777 H 0.07018 0.33493 0.20873 0.0
H778 H 0.0655 0.32497 0.46472 0.0
H779 H 0.11607 0.36703 0.41181 0.0
H780 H 1.00032 0.34224 0.25876 0.0
H781 H 0.02133 0.30429 0.29517 0.0
H782 H 0.98361 0.31741 0.21829 0.0
H783 H 1.00414 0.28008 0.25434 0.0
H784 H 0.98892 0.33975 0.35517 0.0
H785 H 0.03791 0.37031 0.41692 0.0
H786 H 0.974 0.35968 0.37452 0.0
H787 H 0.02211 0.38967 0.43527 0.0
H788 H 0.96808 0.26651 0.40432 0.0
H789 H 0.94386 0.26843 0.31859 0.0
H790 H 0.05167 0.42987 0.35605 0.0
H791 H 0.0115 0.40042 0.28237 0.0
Li792 Li 0.69566 1.00386 0.34268 0.0
Li793 Li 0.67655 0.97123 0.36788 0.0
Li794 Li 0.679 0.97304 0.31313 0.0
Li795 Li 0.65868 0.98453 0.33837 0.0
C796 C 0.72026 0.98736 0.34736 0.0
N797 N 0.76054 1.00092 0.35712 0.0
C798 C 0.72783 0.99071 0.37633 0.0
C799 C 0.73307 0.99055 0.32337 0.0
C800 C 0.74827 0.99767 0.3808 0.0
C801 C 0.75342 0.9975 0.32877 0.0
C802 C 0.66294 0.99377 0.39885 0.0
C803 C 0.63413 0.97265 0.42932 0.0
N804 N 0.63791 0.98891 0.44608 0.0
C805 C 0.66656 0.01026 0.41637 0.0
C806 C 0.64661 0.97479 0.40536 0.0
C807 C 0.65373 0.0075 0.44016 0.0
C808 C 0.72646 0.04464 0.32693 0.0
N809 N 0.71879 0.03019 0.34839 0.0
C810 C 0.7433 0.05261 0.3833 0.0
C811 C 0.72675 0.03393 0.37625 0.0
C812 C 0.75158 0.06769 0.36159 0.0
C813 C 0.74309 0.0636 0.33304 0.0
H814 H 0.71957 0.04167 0.30524 0.0
H815 H 0.72007 0.02242 0.39314 0.0
C816 C 0.67356 0.93648 0.39008 0.0
N817 N 0.67632 0.95456 0.3992 0.0
C818 C 0.67443 0.92326 0.41046 0.0
C819 C 0.68066 0.94739 0.44947 0.0
C820 C 0.67988 0.96028 0.42822 0.0
C821 C 0.67801 0.92872 0.44049 0.0
H822 H 0.67097 0.93248 0.36678 0.0
H823 H 0.68239 0.9749 0.43477 0.0
C824 C 0.68502 1.0043 0.27764 0.0
N825 N 0.69731 0.01496 0.21945 0.0
C826 C 0.6719 1.00495 0.25669 0.0
C827 C 0.70434 0.009 0.26895 0.0
C828 C 0.67841 0.0104 0.22739 0.0
C829 C 0.71029 0.01438 0.23945 0.0
C830 C 0.63862 0.94418 0.32125 0.0
C831 C 0.63454 0.95074 0.29455 0.0
C832 C 0.62609 0.9244 0.33064 0.0
C833 C 0.6179 0.93737 0.27766 0.0
C834 C 0.60959 0.91147 0.3131 0.0
N835 N 0.60588 0.91817 0.2872 0.0
C836 C 0.68408 0.94254 0.29162 0.0
C837 C 0.67554 0.95776 0.25274 0.0
C838 C 0.6833 0.92803 0.27216 0.0
N839 N 0.68016 0.95696 0.28173 0.0
C840 C 0.67495 0.94374 0.23236 0.0
C841 C 0.67869 0.92859 0.24218 0.0
H842 H 0.68731 0.94203 0.31491 0.0
H843 H 0.67173 0.96881 0.24549 0.0
C844 C 0.63588 1.00149 0.31814 0.0
N845 N 0.63465 0.98613 0.3347 0.0
C846 C 0.6185 1.00194 0.31051 0.0
C847 C 0.59896 0.97158 0.3391 0.0
C848 C 0.61672 0.9715 0.3457 0.0
C849 C 0.59972 0.98656 0.32039 0.0
H850 H 0.65033 0.013 0.30989 0.0
H851 H 0.61607 0.95931 0.35858 0.0
O852 O 0.70032 0.98063 0.3425 0.0
O853 O 0.67541 0.99631 0.37553 0.0
O854 O 0.67886 0.99881 0.30638 0.0
O855 O 0.65475 0.95702 0.33829 0.0
H856 H 0.71805 0.98811 0.39515 0.0
H857 H 0.72735 0.98756 0.30085 0.0
H858 H 0.75438 1.00048 0.4031 0.0
H859 H 0.76354 1.00012 0.31041 0.0
H860 H 0.62143 0.95806 0.4346 0.0
H861 H 0.67917 0.02505 0.41163 0.0
H862 H 0.6436 0.96183 0.39214 0.0
H863 H 0.65636 0.02014 0.45392 0.0
H864 H 0.74944 0.05537 0.40561 0.0
H865 H 0.74907 0.07503 0.3159 0.0
H866 H 0.67239 0.90896 0.40294 0.0
H867 H 0.68357 0.952 0.47255 0.0
H868 H 0.65679 1.00114 0.26287 0.0
H869 H 0.71465 0.00857 0.28487 0.0
H870 H 0.66841 0.01093 0.21094 0.0
H871 H 0.72523 0.01808 0.23246 0.0
H872 H 0.64405 0.966 0.28699 0.0
H873 H 0.62906 0.91911 0.35129 0.0
H874 H 0.61454 0.94226 0.25697 0.0
H875 H 0.59974 0.89611 0.32009 0.0
H876 H 0.68608 0.91639 0.28038 0.0
H877 H 0.67109 0.94435 0.20936 0.0
H878 H 0.61961 0.0138 0.29621 0.0
H879 H 0.58469 0.95957 0.34719 0.0
Li880 Li 0.04793 0.70801 0.36606 0.0
Li881 Li 0.01456 0.69644 0.34345 0.0
Li882 Li 0.03323 0.67794 0.33326 0.0
Li883 Li 0.04383 0.7113 0.31131 0.0
C884 C 0.02374 0.67391 0.39902 0.0
N885 N 0.02648 0.65872 0.45344 0.0
C886 C 1.01043 0.67151 0.42194 0.0
C887 C 0.0383 0.66838 0.40372 0.0
C888 C 0.01209 0.66386 0.44932 0.0
C889 C 0.03948 0.66078 0.43138 0.0
C890 C 0.02995 0.73535 0.35504 0.0
C891 C 0.01229 0.75336 0.34572 0.0
N892 N 0.01266 0.75715 0.37533 0.0
C893 C 0.03032 0.73956 0.38534 0.0
C894 C 0.02104 0.74245 0.33501 0.0
C895 C 0.02145 0.75056 0.39517 0.0
C896 C 0.08466 0.73716 0.38762 0.0
N897 N 0.06638 0.72244 0.39731 0.0
C898 C 0.07582 0.73249 0.44779 0.0
C899 C 0.06176 0.71979 0.42678 0.0
C900 C 0.09459 0.74801 0.43821 0.0
C901 C 0.09912 0.75018 0.40782 0.0
H902 H 0.08779 0.73908 0.36403 0.0
H903 H 0.047 0.70837 0.43396 0.0
C904 C 0.97466 0.68795 0.32854 0.0
N905 N 0.98858 0.69354 0.35065 0.0
C906 C 0.95574 0.68576 0.33431 0.0
C907 C 0.96584 0.69507 0.38543 0.0
C908 C 0.98451 0.69712 0.37868 0.0
C909 C 0.9512 0.68919 0.36315 0.0
H910 H 0.97816 0.68503 0.30648 0.0
H911 H 0.99579 0.70158 0.39584 0.0
C912 C 0.0757 0.69792 0.32904 0.0
N913 N 0.10684 0.68996 0.32278 0.0
C914 C 0.08257 0.69676 0.30076 0.0
C915 C 0.08495 0.69541 0.35416 0.0
C916 C 0.09824 0.6926 0.29804 0.0
C917 C 0.10059 0.69131 0.35053 0.0
C918 C 0.01482 0.6866 0.27514 0.0
C919 C 0.01567 0.67307 0.25524 0.0
C920 C 0.01088 0.70136 0.26445 0.0
C921 C 0.01289 0.67475 0.22488 0.0
C922 C 1.00821 0.70257 0.23394 0.0
N923 N 1.00928 0.68936 0.21495 0.0
C924 C 0.0196 0.63636 0.34543 0.0
C925 C 0.03943 0.64937 0.30201 0.0
C926 C 0.01726 0.61736 0.34006 0.0
N927 N 0.03066 0.65196 0.32658 0.0
C928 C 0.03717 0.63058 0.2955 0.0
C929 C 0.02582 0.61427 0.3145 0.0
H930 H 0.01225 0.63851 0.36437 0.0
H931 H 0.04774 0.66178 0.28696 0.0
C932 C 0.0658 0.74954 0.28594 0.0
N933 N 0.05797 0.72967 0.27964 0.0
C934 C 0.07879 0.76421 0.26593 0.0
C935 C 0.07508 0.73774 0.2329 0.0
C936 C 0.06213 0.72356 0.25354 0.0
C937 C 0.08377 0.75829 0.23933 0.0
H938 H 0.06259 0.75403 0.30707 0.0
H939 H 0.05601 0.70772 0.24919 0.0
O940 O 0.02259 0.68174 0.37224 0.0
O941 O 0.03818 0.72423 0.34506 0.0
O942 O 0.06045 0.70212 0.33211 0.0
O943 O 0.01773 0.68535 0.30492 0.0
H944 H 0.99893 0.67551 0.41869 0.0
H945 H 0.04842 0.66974 0.38607 0.0
H946 H 1.00195 0.66202 0.46729 0.0
H947 H 0.0507 0.65646 0.43529 0.0
H948 H 1.00521 0.75884 0.33049 0.0
H949 H 0.03711 0.73416 0.40116 0.0
H950 H 0.02084 0.73955 0.31146 0.0
H951 H 0.02149 0.7538 0.41859 0.0
H952 H 0.07186 0.73068 0.47115 0.0
H953 H 0.11343 0.76218 0.39983 0.0
H954 H 0.94472 0.68122 0.31666 0.0
H955 H 0.96278 0.69788 0.40789 0.0
H956 H 0.07575 0.69883 0.28108 0.0
H957 H 0.08027 0.6968 0.37627 0.0
H958 H 0.10357 0.69149 0.27625 0.0
H959 H 0.10782 0.68927 0.36979 0.0
H960 H 0.01839 0.66136 0.26311 0.0
H961 H 1.01005 0.71185 0.27954 0.0
H962 H 0.01358 0.66443 0.20922 0.0
H963 H 1.0053 0.71402 0.22537 0.0
H964 H 1.00836 0.60506 0.35512 0.0
H965 H 0.04391 0.62867 0.27552 0.0
H966 H 0.08542 0.77998 0.27156 0.0
H967 H 0.0788 0.73276 0.21257 0.0
Li968 Li 0.30899 0.34422 0.36758 0.0
Li969 Li 0.32153 0.32367 0.3444 0.0
Li970 Li 0.33931 0.36102 0.335 0.0
Li971 Li 0.3062 0.33747 0.31245 0.0
C972 C 0.34446 0.35637 0.39958 0.0
N973 N 0.36177 0.37675 0.45182 0.0
C974 C 0.34682 0.34627 0.42372 0.0
C975 C 0.35117 0.37691 0.40194 0.0
C976 C 0.35551 0.3568 0.44997 0.0
C977 C 0.35983 0.38693 0.42852 0.0
C978 C 0.28303 0.29859 0.35307 0.0
C979 C 0.26792 0.26367 0.33922 0.0
N980 N 0.26316 0.25833 0.36819 0.0
C981 C 0.27784 0.29276 0.38267 0.0
C982 C 0.27789 0.28394 0.33111 0.0
C983 C 0.26783 0.27234 0.38988 0.0
C984 C 0.2802 0.35197 0.39164 0.0
N985 N 0.2942 0.34691 0.39956 0.0
C986 C 0.2832 0.34247 0.45013 0.0
C987 C 0.29601 0.34231 0.42819 0.0
C988 C 0.26852 0.34743 0.44236 0.0
C989 C 0.26725 0.35252 0.41288 0.0
H990 H 0.27878 0.35509 0.3686 0.0
H991 H 0.30684 0.3378 0.4338 0.0
C992 C 0.3276 0.2907 0.32865 0.0
N993 N 0.32437 0.3005 0.35132 0.0
C994 C 0.32856 0.27326 0.33428 0.0
C995 C 0.32302 0.27646 0.38639 0.0
C996 C 0.32201 0.29367 0.37975 0.0
C997 C 0.32643 0.26612 0.36354 0.0
H998 H 0.32931 0.29632 0.30621 0.0
H999 H 0.31896 0.30142 0.39723 0.0
C1000 C 0.31613 0.38148 0.3331 0.0
N1001 N 0.31896 0.41878 0.33135 0.0
C1002 C 0.3137 0.38915 0.30622 0.0
C1003 C 0.31963 0.39266 0.35919 0.0
C1004 C 0.3153 0.40807 0.30576 0.0
C1005 C 0.3211 0.41151 0.35782 0.0
C1006 C 0.33327 0.337 0.27611 0.0
C1007 C 0.34704 0.35353 0.25937 0.0
C1008 C 0.32017 0.31895 0.26178 0.0
C1009 C 0.34732 0.35177 0.22847 0.0
C1010 C 0.32089 0.3178 0.23084 0.0
N1011 N 0.33433 0.3341 0.21496 0.0
C1012 C 0.38157 0.38775 0.34227 0.0
C1013 C 0.36562 0.39996 0.31065 0.0
C1014 C 0.40001 0.40557 0.33882 0.0
N1015 N 0.36471 0.38545 0.32885 0.0
C1016 C 0.38367 0.41802 0.30675 0.0
C1017 C 0.40132 0.42186 0.32219 0.0
H1018 H 0.38074 0.37563 0.35558 0.0
H1019 H 0.3524 0.39739 0.2986 0.0
C1020 C 0.26847 0.31981 0.28453 0.0
N1021 N 0.28834 0.33311 0.28007 0.0
C1022 C 0.25419 0.31782 0.26349 0.0
C1023 C 0.28113 0.34293 0.23334 0.0
C1024 C 0.29488 0.34444 0.25494 0.0
C1025 C 0.26054 0.32971 0.23781 0.0
H1026 H 0.26361 0.31129 0.30496 0.0
H1027 H 0.31066 0.35523 0.25218 0.0
O1028 O 0.33577 0.34621 0.37379 0.0
O1029 O 0.29337 0.31853 0.3457 0.0
O1030 O 0.31447 0.36287 0.33394 0.0
O1031 O 0.33275 0.33847 0.30637 0.0
H1032 H 0.34195 0.33044 0.42231 0.0
H1033 H 0.34991 0.38509 0.38338 0.0
H1034 H 0.3573 0.34912 0.46887 0.0
H1035 H 0.36505 0.40282 0.4306 0.0
H1036 H 0.26401 0.25218 0.32249 0.0
H1037 H 0.28172 0.3039 0.39995 0.0
H1038 H 0.28172 0.28819 0.30809 0.0
H1039 H 0.26386 0.26762 0.41273 0.0
H1040 H 0.28436 0.3383 0.47274 0.0
H1041 H 0.25593 0.35621 0.40624 0.0
H1042 H 0.33109 0.26552 0.31614 0.0
H1043 H 0.32114 0.27123 0.40917 0.0
H1044 H 0.31083 0.38071 0.28585 0.0
H1045 H 0.32092 0.38679 0.38038 0.0
H1046 H 0.31362 0.41424 0.28504 0.0
H1047 H 0.32385 0.42032 0.37785 0.0
H1048 H 0.3574 0.36756 0.27009 0.0
H1049 H 0.30941 0.30603 0.27437 0.0
H1050 H 0.35785 0.36445 0.21522 0.0
H1051 H 0.31074 0.30397 0.21944 0.0
H1052 H 0.41281 0.40577 0.34876 0.0
H1053 H 0.38363 0.42857 0.29091 0.0
H1054 H 0.23836 0.30765 0.26763 0.0
H1055 H 0.28641 0.35244 0.21381 0.0
Li1056 Li 0.3255 0.00949 0.66851 0.0
Li1057 Li 0.36104 0.02784 0.6741 0.0
Li1058 Li 0.3378 0.03823 0.70084 0.0
Li1059 Li 0.3429 0.04187 0.64598 0.0
C1060 C 0.33327 0.99546 0.7179 0.0
N1061 N 0.31738 0.9571 0.74063 0.0
C1062 C 0.3372 0.98154 0.70395 0.0
C1063 C 0.32144 0.98997 0.74355 0.0
C1064 C 0.32897 0.96218 0.71573 0.0
C1065 C 0.3135 0.97047 0.75467 0.0
C1066 C 0.35918 0.02318 0.61275 0.0
C1067 C 0.39212 0.04482 0.59201 0.0
N1068 N 0.38649 0.03361 0.56671 0.0
C1069 C 0.35373 0.01189 0.58651 0.0
C1070 C 0.37852 0.03983 0.61545 0.0
C1071 C 0.36774 0.01741 0.5635 0.0
C1072 C 0.28817 0.97393 0.68425 0.0
N1073 N 0.30301 0.9827 0.6635 0.0
C1074 C 0.28558 0.95435 0.63131 0.0
C1075 C 0.30209 0.9732 0.63756 0.0
C1076 C 0.26991 0.94517 0.65201 0.0
C1077 C 0.27143 0.95493 0.67905 0.0
H1078 H 0.28908 0.98189 0.70454 0.0
H1079 H 0.314 0.98049 0.62143 0.0
C1080 C 0.39666 0.03591 0.70364 0.0
N1081 N 0.38488 0.02596 0.67991 0.0
C1082 C 0.41312 0.03368 0.71101 0.0
C1083 C 0.40561 0.01169 0.66866 0.0
C1084 C 0.38903 0.014 0.66245 0.0
C1085 C 0.41755 0.0212 0.69369 0.0
H1086 H 0.39291 0.04514 0.71733 0.0
H1087 H 0.37922 1.00586 0.64409 0.0
C1088 C 0.29878 0.0205 0.65796 0.0
N1089 N 0.2602 0.99904 0.63549 0.0
C1090 C 0.2957 0.0163 0.62755 0.0
C1091 C 0.28225 0.01382 0.67695 0.0
C1092 C 0.27607 1.00541 0.61663 0.0
C1093 C 0.26286 1.00298 0.66515 0.0
C1094 C 0.37413 0.07527 0.67647 0.0
C1095 C 0.36462 0.08648 0.68135 0.0
C1096 C 0.39473 0.08519 0.67034 0.0
C1097 C 0.37582 0.10742 0.67957 0.0
C1098 C 0.40541 0.10617 0.66873 0.0
N1099 N 0.39581 0.11676 0.67332 0.0
C1100 C 0.34822 0.05873 0.75621 0.0
C1101 C 0.32022 0.0573 0.73154 0.0
C1102 C 0.3479 0.07176 0.77761 0.0
N1103 N 0.33462 0.05199 0.73363 0.0
C1104 C 0.3194 0.07034 0.75237 0.0
C1105 C 0.33353 0.0779 0.77546 0.0
H1106 H 0.35979 0.05463 0.75687 0.0
H1107 H 0.31001 0.0522 0.71285 0.0
C1108 C 0.33284 0.06929 0.62356 0.0
N1109 N 0.34316 0.05984 0.61584 0.0
C1110 C 0.33155 0.08273 0.60407 0.0
C1111 C 0.35131 0.07637 0.56858 0.0
C1112 C 0.35228 0.06308 0.58883 0.0
C1113 C 0.3408 0.08628 0.5762 0.0
H1114 H 0.32546 0.0663 0.64494 0.0
H1115 H 0.36013 0.05531 0.58267 0.0
O1116 O 0.34096 0.01437 0.70647 0.0
O1117 O 0.34561 0.01774 0.63554 0.0
O1118 O 0.31789 0.03068 0.66914 0.0
O1119 O 0.36345 0.05473 0.67829 0.0
H1120 H 0.3463 0.98558 0.68402 0.0
H1121 H 0.31831 1.00063 0.75458 0.0
H1122 H 0.33175 0.9512 0.70506 0.0
H1123 H 0.30423 0.96596 0.77442 0.0
H1124 H 0.40713 0.05764 0.59389 0.0
H1125 H 0.33883 0.999 0.58388 0.0
H1126 H 0.38301 0.04882 0.63537 0.0
H1127 H 0.3637 0.00881 0.54308 0.0
H1128 H 0.28483 0.94717 0.61024 0.0
H1129 H 0.25954 0.9482 0.69544 0.0
H1130 H 0.42204 0.04125 0.73047 0.0
H1131 H 0.40864 1.00196 0.65483 0.0
H1132 H 0.30834 0.02116 0.61261 0.0
H1133 H 0.28438 0.01674 0.7006 0.0
H1134 H 0.27346 1.00196 0.59317 0.0
H1135 H 0.24992 0.99762 0.67959 0.0
H1136 H 0.34876 0.0791 0.68636 0.0
H1137 H 0.40245 0.07681 0.66705 0.0
H1138 H 0.36861 0.11626 0.68319 0.0
H1139 H 0.42135 0.11404 0.66394 0.0
H1140 H 0.3591 0.07752 0.7951 0.0
H1141 H 0.3083 0.075 0.74999 0.0
H1142 H 0.32327 0.09012 0.6105 0.0
H1143 H 0.35852 0.07878 0.54708 0.0
Li1144 Li 1.00682 0.3194 0.67381 0.0
Li1145 Li 0.98833 0.33562 0.6802 0.0
Li1146 Li 0.97709 0.30298 0.70551 0.0
Li1147 Li 0.97358 0.30587 0.64863 0.0
C1148 C 0.01841 0.33452 0.72911 0.0
N1149 N 0.05235 0.34578 0.76314 0.0
C1150 C 0.03601 0.35269 0.72346 0.0
C1151 C 0.01795 0.32219 0.7523 0.0
C1152 C 0.05305 0.35807 0.74083 0.0
C1153 C 0.0353 0.32813 0.76921 0.0
C1154 C 1.00465 0.34894 0.62675 0.0
C1155 C 0.99969 0.36772 0.58804 0.0
N1156 N 0.01669 0.38459 0.59696 0.0
C1157 C 0.02219 0.36638 0.63531 0.0
C1158 C 0.99337 0.34951 0.60278 0.0
C1159 C 0.02797 0.3843 0.62006 0.0
C1160 C 0.04158 0.32941 0.6403 0.0
N1161 N 0.03318 0.32242 0.66746 0.0
C1162 C 0.06103 0.31833 0.68165 0.0
C1163 C 0.04248 0.31681 0.68801 0.0
C1164 C 0.06973 0.32513 0.65358 0.0
C1165 C 0.0599 0.33085 0.63285 0.0
H1166 H 0.03382 0.33346 0.62412 0.0
H1167 H 0.03534 0.31068 0.70908 0.0
C1168 C 0.99748 0.37075 0.71223 0.0
N1169 N 0.98948 0.36117 0.68607 0.0
C1170 C 0.99797 0.38871 0.71908 0.0
C1171 C 0.98222 0.38696 0.67182 0.0
C1172 C 0.98185 0.36888 0.66597 0.0
C1173 C 0.99019 0.39692 0.69881 0.0
H1174 H 1.00319 0.36426 0.72806 0.0
H1175 H 0.97514 0.36086 0.64562 0.0
C1176 C 0.99414 0.28073 0.66724 0.0
N1177 N 0.01567 0.26133 0.65752 0.0
C1178 C 0.9998 0.27892 0.6384 0.0
C1179 C 0.99934 0.27262 0.69114 0.0
C1180 C 1.01073 0.26909 0.63395 0.0
C1181 C 1.01024 0.26286 0.68576 0.0
C1182 C 0.94916 0.32046 0.6866 0.0
C1183 C 0.94758 0.32681 0.71507 0.0
C1184 C 0.93948 0.32366 0.66269 0.0
C1185 C 0.93646 0.33648 0.71912 0.0
C1186 C 0.92844 0.33333 0.66767 0.0
N1187 N 0.9272 0.33951 0.69554 0.0
C1188 C 0.96046 0.29172 0.76385 0.0
C1189 C 0.95296 0.2651 0.73015 0.0
C1190 C 0.94761 0.27804 0.7851 0.0
N1191 N 0.96267 0.28503 0.73692 0.0
C1192 C 0.94008 0.25091 0.75077 0.0
C1193 C 0.93711 0.25745 0.77837 0.0
H1194 H 0.9682 0.30768 0.76846 0.0
H1195 H 0.95474 0.26026 0.70834 0.0
C1196 C 0.96278 0.29008 0.58959 0.0
N1197 N 0.95601 0.2906 0.61732 0.0
C1198 C 0.94947 0.27694 0.56818 0.0
C1199 C 0.92251 0.26554 0.60411 0.0
C1200 C 0.93632 0.27878 0.62483 0.0
C1201 C 0.92915 0.2644 0.57559 0.0
H1202 H 0.97857 0.29948 0.58439 0.0
H1203 H 0.93146 0.2793 0.64721 0.0
O1204 O 1.00153 0.32905 0.71253 0.0
O1205 O 0.9987 0.33127 0.64144 0.0
O1206 O 0.98393 0.29078 0.67213 0.0
O1207 O 0.96046 0.31151 0.68204 0.0
H1208 H 0.03652 0.3625 0.70583 0.0
H1209 H 1.00443 0.3081 0.757 0.0
H1210 H 0.06683 0.37203 0.73659 0.0
H1211 H 0.03522 0.31869 0.78711 0.0
H1212 H 0.99105 0.36845 0.56957 0.0
H1213 H 0.03118 0.36609 0.65361 0.0
H1214 H 0.97979 0.33609 0.59584 0.0
H1215 H 0.04143 0.39797 0.62658 0.0
H1216 H 0.06823 0.31373 0.69808 0.0
H1217 H 0.06626 0.33617 0.61098 0.0
H1218 H 1.00422 0.39608 0.74012 0.0
H1219 H 0.97604 0.39291 0.65577 0.0
H1220 H 0.996 0.28526 0.61971 0.0
H1221 H 0.99522 0.27408 0.71364 0.0
H1222 H 0.01535 0.26769 0.61178 0.0
H1223 H 0.01447 0.25659 0.70405 0.0
H1224 H 0.95513 0.32458 0.73375 0.0
H1225 H 0.9407 0.31898 0.64046 0.0
H1226 H 0.93526 0.34165 0.74098 0.0
H1227 H 0.92096 0.33602 0.64936 0.0
H1228 H 0.94547 0.28347 0.80624 0.0
H1229 H 0.93203 0.23511 0.74496 0.0
H1230 H 0.95499 0.27626 0.5463 0.0
H1231 H 0.90693 0.25594 0.61044 0.0
Li1232 Li 0.69998 0.69215 0.67282 0.0
Li1233 Li 0.68299 0.65682 0.67969 0.0
Li1234 Li 0.71686 0.6792 0.70494 0.0
Li1235 Li 0.71326 0.67233 0.65017 0.0
C1236 C 0.68599 0.69001 0.72792 0.0
N1237 N 0.67713 0.71504 0.76063 0.0
C1238 C 0.6683 0.69044 0.72238 0.0
C1239 C 0.69907 0.70216 0.75031 0.0
C1240 C 0.66414 0.70326 0.73907 0.0
C1241 C 0.69433 0.71473 0.76658 0.0
C1242 C 0.66887 0.65984 0.62936 0.0
C1243 C 0.64559 0.63235 0.59834 0.0
N1244 N 0.63051 0.63551 0.60738 0.0
C1245 C 0.65317 0.66289 0.63817 0.0
C1246 C 0.6651 0.6445 0.60917 0.0
C1247 C 0.63386 0.6504 0.62689 0.0
C1248 C 0.68985 0.71707 0.63965 0.0
N1249 N 0.69786 0.71592 0.66606 0.0
C1250 C 0.70491 0.74911 0.67909 0.0
C1251 C 0.7055 0.7316 0.68559 0.0
C1252 C 0.69684 0.75062 0.6519 0.0
C1253 C 0.68916 0.73434 0.63213 0.0
H1254 H 0.6844 0.70473 0.62407 0.0
H1255 H 0.71253 0.73076 0.7059 0.0
C1256 C 0.65211 0.61568 0.66946 0.0
N1257 N 0.65744 0.6326 0.6857 0.0
C1258 C 0.63383 0.59805 0.67478 0.0
C1259 C 0.6269 0.61543 0.71365 0.0
C1260 C 0.64519 0.63275 0.7074 0.0
C1261 C 0.62118 0.59778 0.69745 0.0
H1262 H 0.66208 0.61578 0.6525 0.0
H1263 H 0.64978 0.64625 0.72023 0.0
C1264 C 0.739 0.71711 0.66151 0.0
N1265 N 0.75937 0.75614 0.6407 0.0
C1266 C 0.73828 0.72103 0.63133 0.0
C1267 C 0.75013 0.733 0.68111 0.0
C1268 C 0.74866 0.74088 0.62125 0.0
C1269 C 0.76032 0.75264 0.67014 0.0
C1270 C 0.71428 0.64117 0.67496 0.0
C1271 C 0.72987 0.64127 0.69115 0.0
C1272 C 0.70695 0.62925 0.64945 0.0
C1273 C 0.738 0.62959 0.68137 0.0
C1274 C 0.71553 0.61784 0.64033 0.0
N1275 N 0.73074 0.61824 0.65635 0.0
C1276 C 0.72834 0.6747 0.76355 0.0
C1277 C 0.75479 0.6926 0.72904 0.0
C1278 C 0.74203 0.67546 0.78473 0.0
N1279 N 0.73494 0.68307 0.73629 0.0
C1280 C 0.76895 0.69354 0.74942 0.0
C1281 C 0.76251 0.68468 0.77744 0.0
H1282 H 0.71241 0.66689 0.76844 0.0
H1283 H 0.75951 0.69872 0.70695 0.0
C1284 C 0.72359 0.66716 0.59032 0.0
N1285 N 0.72937 0.67078 0.6193 0.0
C1286 C 0.73658 0.66673 0.56894 0.0
C1287 C 0.76111 0.67378 0.60767 0.0
C1288 C 0.74774 0.67418 0.62821 0.0
C1289 C 0.75558 0.67015 0.57768 0.0
H1290 H 0.70911 0.66498 0.58373 0.0
H1291 H 0.75202 0.67735 0.65134 0.0
O1292 O 0.69036 0.67756 0.71187 0.0
O1293 O 0.68777 0.67163 0.64076 0.0
O1294 O 0.72843 0.69786 0.67195 0.0
O1295 O 0.70641 0.65284 0.68389 0.0
H1296 H 0.65793 0.68104 0.70534 0.0
H1297 H 0.71283 0.70206 0.75488 0.0
H1298 H 0.65057 0.70384 0.73489 0.0
H1299 H 0.70437 0.72429 0.78386 0.0
H1300 H 0.64243 0.62034 0.58288 0.0
H1301 H 0.65583 0.67473 0.65366 0.0
H1302 H 0.67699 0.64175 0.60234 0.0
H1303 H 0.62155 0.65253 0.63366 0.0
H1304 H 0.7111 0.76151 0.6947 0.0
H1305 H 0.68291 0.73512 0.6109 0.0
H1306 H 0.6298 0.58466 0.66187 0.0
H1307 H 0.61745 0.61568 0.73131 0.0
H1308 H 0.72958 0.70888 0.61594 0.0
H1309 H 0.7507 0.73017 0.70458 0.0
H1310 H 0.74815 0.74417 0.59798 0.0
H1311 H 0.76892 0.76511 0.68506 0.0
H1312 H 0.73565 0.65027 0.71106 0.0
H1313 H 0.69515 0.62925 0.63636 0.0
H1314 H 0.7501 0.62957 0.69366 0.0
H1315 H 0.71016 0.60875 0.62043 0.0
H1316 H 0.73665 0.66829 0.80614 0.0
H1317 H 0.78464 0.70054 0.74312 0.0
H1318 H 0.73205 0.66413 0.54581 0.0
H1319 H 0.77576 0.67666 0.61496 0.0
Li1320 Li 0.36086 0.33712 0.67547 0.0
Li1321 Li 0.34301 0.30434 0.69716 0.0
Li1322 Li 0.34777 0.30781 0.64429 0.0
Li1323 Li 0.32311 0.31587 0.66913 0.0
C1324 C 0.38824 0.32754 0.68202 0.0
N1325 N 0.42828 0.35221 0.69642 0.0
C1326 C 0.39438 0.33024 0.71174 0.0
C1327 C 0.40247 0.33727 0.6596 0.0
C1328 C 0.41469 0.3428 0.71857 0.0
C1329 C 0.42264 0.34971 0.66734 0.0
C1330 C 0.33244 0.3243 0.73529 0.0
C1331 C 0.30571 0.31438 0.77111 0.0
N1332 N 0.31904 0.31811 0.7935 0.0
C1333 C 0.34585 0.32798 0.7587 0.0
C1334 C 0.31218 0.31741 0.74156 0.0
C1335 C 0.33879 0.32477 0.78795 0.0
C1336 C 0.39278 0.37617 0.65709 0.0
N1337 N 0.38262 0.3643 0.68071 0.0
C1338 C 0.40463 0.38983 0.71466 0.0
C1339 C 0.38808 0.3709 0.70907 0.0
C1340 C 0.4156 0.40218 0.69082 0.0
C1341 C 0.40945 0.39536 0.66167 0.0
H1342 H 0.38817 0.37063 0.63473 0.0
H1343 H 0.37981 0.36131 0.72742 0.0
C1344 C 0.35545 0.27947 0.72255 0.0
N1345 N 0.34254 0.28642 0.72764 0.0
C1346 C 0.35647 0.26595 0.74214 0.0
C1347 C 0.3305 0.26645 0.77177 0.0
C1348 C 0.32976 0.27976 0.75129 0.0
C1349 C 0.34414 0.25959 0.76735 0.0
H1350 H 0.36492 0.28432 0.70303 0.0
H1351 H 0.31886 0.28456 0.7542 0.0
C1352 C 0.3441 0.33259 0.60824 0.0
N1353 N 0.34303 0.33294 0.54684 0.0
C1354 C 0.32623 0.32776 0.59346 0.0
C1355 C 0.36145 0.33771 0.59181 0.0
C1356 C 0.32599 0.32801 0.5624 0.0
C1357 C 0.36059 0.33775 0.56078 0.0
C1358 C 0.31213 0.27111 0.67665 0.0
C1359 C 0.31826 0.25725 0.66978 0.0
C1360 C 0.2959 0.26562 0.69584 0.0
C1361 C 0.30809 0.2381 0.68248 0.0
C1362 C 0.28611 0.24631 0.70806 0.0
N1363 N 0.29237 0.23308 0.7012 0.0
C1364 C 0.36684 0.29032 0.61315 0.0
C1365 C 0.337 0.28575 0.59027 0.0
C1366 C 0.36821 0.27744 0.5926 0.0
N1367 N 0.35136 0.29411 0.61171 0.0
C1368 C 0.33791 0.27295 0.56908 0.0
C1369 C 0.3535 0.26848 0.57044 0.0
H1370 H 0.37764 0.29659 0.63105 0.0
H1371 H 0.32446 0.28842 0.59032 0.0
C1372 C 0.29784 0.33295 0.67019 0.0
N1373 N 0.29831 0.31585 0.66456 0.0
C1374 C 0.28003 0.33348 0.66653 0.0
C1375 C 0.26367 0.29906 0.65025 0.0
C1376 C 0.28179 0.29918 0.65424 0.0
C1377 C 0.26193 0.31602 0.65796 0.0
H1378 H 0.31146 0.34634 0.67707 0.0
H1379 H 0.2828 0.28606 0.64841 0.0
O1380 O 0.36833 0.31584 0.67495 0.0
O1381 O 0.3391 0.32776 0.70647 0.0
O1382 O 0.34459 0.33228 0.63864 0.0
O1383 O 0.32228 0.29011 0.66518 0.0
H1384 H 0.38356 0.32289 0.72938 0.0
H1385 H 0.39795 0.33541 0.6365 0.0
H1386 H 0.41964 0.34512 0.74148 0.0
H1387 H 0.4338 0.35746 0.65025 0.0
H1388 H 0.29009 0.30905 0.77624 0.0
H1389 H 0.36146 0.33288 0.75442 0.0
H1390 H 0.30152 0.31435 0.72387 0.0
H1391 H 0.34899 0.32748 0.80624 0.0
H1392 H 0.409 0.39473 0.7374 0.0
H1393 H 0.41762 0.40463 0.64282 0.0
H1394 H 0.36695 0.2607 0.73792 0.0
H1395 H 0.32056 0.26155 0.79084 0.0
H1396 H 0.31267 0.3238 0.60581 0.0
H1397 H 0.37536 0.34131 0.60288 0.0
H1398 H 0.31226 0.32427 0.55065 0.0
H1399 H 0.37387 0.34154 0.54778 0.0
H1400 H 0.33087 0.26133 0.65507 0.0
H1401 H 0.29111 0.27626 0.70158 0.0
H1402 H 0.31274 0.22725 0.67753 0.0
H1403 H 0.27361 0.24188 0.7231 0.0
H1404 H 0.38026 0.27405 0.59441 0.0
H1405 H 0.32621 0.26605 0.5524 0.0
H1406 H 0.28109 0.34789 0.66942 0.0
H1407 H 0.2516 0.28583 0.64003 0.0
Li1408 Li 0.68179 0.03068 0.67776 0.0
Li1409 Li 0.7134 0.04166 0.7035 0.0
Li1410 Li 0.7133 0.04384 0.649 0.0
Li1411 Li 0.69932 0.01087 0.67397 0.0
C1412 C 0.70245 0.0708 0.69593 0.0
N1413 N 0.69643 0.09667 0.73142 0.0
C1414 C 0.69103 0.06376 0.72192 0.0
C1415 C 0.71082 0.091 0.688 0.0
C1416 C 0.68814 0.07706 0.73955 0.0
C1417 C 0.70761 0.10385 0.70624 0.0
C1418 C 0.68779 0.01067 0.73876 0.0
C1419 C 0.70292 1.00095 0.77753 0.0
N1420 N 0.68927 1.00045 0.79726 0.0
C1421 C 0.67389 0.01006 0.75943 0.0
C1422 C 0.70242 1.00608 0.74787 0.0
C1423 C 0.6749 1.00485 0.7889 0.0
C1424 C 0.6417 0.0137 0.69691 0.0
N1425 N 0.65612 0.0292 0.68084 0.0
C1426 C 0.63528 0.04408 0.67652 0.0
C1427 C 0.65313 0.04409 0.67018 0.0
C1428 C 0.6207 0.02888 0.6946 0.0
C1429 C 0.62383 0.01329 0.7042 0.0
H1430 H 0.64442 1.00203 0.70503 0.0
H1431 H 0.6649 0.05643 0.65781 0.0
C1432 C 0.74938 0.07102 0.72572 0.0
N1433 N 0.73058 0.05735 0.73515 0.0
C1434 C 0.76329 0.08519 0.7454 0.0
C1435 C 0.73839 0.07073 0.78443 0.0
C1436 C 0.72482 0.05701 0.76386 0.0
C1437 C 0.75778 0.08508 0.77509 0.0
H1438 H 0.75336 0.07124 0.70261 0.0
H1439 H 0.70962 0.04659 0.77067 0.0
C1440 C 0.67869 0.02035 0.61532 0.0
N1441 N 0.66288 0.02373 0.56191 0.0
C1442 C 0.67066 1.00435 0.59517 0.0
C1443 C 0.67882 0.03811 0.60825 0.0
C1444 C 0.66271 1.00634 0.56829 0.0
C1445 C 0.67069 0.0395 0.58116 0.0
C1446 C 0.7405 0.02728 0.67005 0.0
C1447 C 0.74476 0.02369 0.64125 0.0
C1448 C 0.75008 0.02429 0.69428 0.0
C1449 C 0.75825 0.01672 0.6372 0.0
C1450 C 0.7635 0.01733 0.68931 0.0
N1451 N 0.76725 0.01369 0.66112 0.0
C1452 C 0.74346 0.07952 0.62577 0.0
C1453 C 0.72905 0.05367 0.58946 0.0
C1454 C 0.75741 0.09275 0.60522 0.0
N1455 N 0.7297 0.06043 0.61762 0.0
C1456 C 0.74279 0.06642 0.56815 0.0
C1457 C 0.75719 0.08614 0.57614 0.0
H1458 H 0.74379 0.08432 0.64847 0.0
H1459 H 0.71818 0.03831 0.58373 0.0
C1460 C 0.6892 0.97014 0.68974 0.0
N1461 N 0.69596 0.98454 0.66821 0.0
C1462 C 0.6868 0.95116 0.68369 0.0
C1463 C 0.69794 0.96207 0.63338 0.0
C1464 C 0.70015 0.98076 0.64037 0.0
C1465 C 0.69114 0.94703 0.65514 0.0
H1466 H 0.68538 0.97318 0.71146 0.0
H1467 H 0.70503 0.99227 0.62346 0.0
O1468 O 0.70561 0.05809 0.67841 0.0
O1469 O 0.68722 0.01596 0.70986 0.0
O1470 O 0.68729 0.01891 0.64112 0.0
O1471 O 0.7273 0.03406 0.67449 0.0
H1472 H 0.68448 0.0482 0.72844 0.0
H1473 H 0.7197 0.0967 0.66795 0.0
H1474 H 0.67932 0.07179 0.7597 0.0
H1475 H 0.714 0.11953 0.70038 0.0
H1476 H 0.71418 0.99737 0.78485 0.0
H1477 H 0.66255 0.01371 0.7529 0.0
H1478 H 0.71324 1.00647 0.73217 0.0
H1479 H 0.66429 1.00438 0.80515 0.0
H1480 H 0.63327 0.05629 0.66867 0.0
H1481 H 0.61283 1.00127 0.71804 0.0
H1482 H 0.7781 0.09624 0.73755 0.0
H1483 H 0.73367 0.07053 0.80719 0.0
H1484 H 0.67071 0.99059 0.60019 0.0
H1485 H 0.68548 0.05081 0.62326 0.0
H1486 H 0.65647 0.9941 0.55245 0.0
H1487 H 0.67073 0.05318 0.57536 0.0
H1488 H 0.73759 0.02609 0.62224 0.0
H1489 H 0.74729 0.02743 0.71668 0.0
H1490 H 0.76158 0.01373 0.61504 0.0
H1491 H 0.77098 0.01488 0.70787 0.0
H1492 H 0.76841 0.10787 0.61198 0.0
H1493 H 0.74234 0.06095 0.54581 0.0
H1494 H 0.68137 0.93976 0.70087 0.0
H1495 H 0.70129 0.95927 0.61107 0.0
Li1496 Li 0.97506 0.67487 0.70224 0.0
Li1497 Li 0.98869 0.65585 0.67705 0.0
Li1498 Li 1.00676 0.69304 0.67165 0.0
Li1499 Li 0.97459 0.67193 0.64831 0.0
C1500 C 0.01219 0.68898 0.73233 0.0
N1501 N 0.03386 0.71432 0.77854 0.0
C1502 C 0.02475 0.68485 0.74975 0.0
C1503 C 1.01067 0.70601 0.73836 0.0
C1504 C 0.03557 0.69783 0.77304 0.0
C1505 C 0.02174 0.71863 0.76183 0.0
C1506 C 0.95019 0.6309 0.68638 0.0
C1507 C 0.93198 0.59556 0.67442 0.0
N1508 N 0.93034 0.59109 0.70391 0.0
C1509 C 0.94821 0.62597 0.71658 0.0
C1510 C 0.94191 0.6156 0.66511 0.0
C1511 C 0.93815 0.60575 0.72499 0.0
C1512 C 0.94079 0.67288 0.7243 0.0
N1513 N 0.95863 0.67516 0.73378 0.0
C1514 C 0.94932 0.6752 0.78449 0.0
C1515 C 0.96307 0.67614 0.76325 0.0
C1516 C 0.93088 0.67294 0.77514 0.0
C1517 C 0.92661 0.67177 0.74472 0.0
H1518 H 0.93747 0.67158 0.70076 0.0
H1519 H 0.97704 0.67727 0.77034 0.0
C1520 C 0.99395 0.62236 0.65997 0.0
N1521 N 0.9921 0.63296 0.68283 0.0
C1522 C 0.99592 0.60551 0.66574 0.0
C1523 C 0.99423 0.61094 0.71834 0.0
C1524 C 0.99237 0.62766 0.7116 0.0
C1525 C 0.99598 0.59967 0.69527 0.0
H1526 H 0.99391 0.62694 0.6373 0.0
H1527 H 0.99097 0.63638 0.72935 0.0
C1528 C 0.98059 0.70961 0.65475 0.0
N1529 N 0.97494 0.73531 0.61829 0.0
C1530 C 0.9942 0.71994 0.63184 0.0
C1531 C 0.96414 0.71238 0.65916 0.0
C1532 C 0.99108 0.73286 0.61364 0.0
C1533 C 0.96154 0.72543 0.64048 0.0
C1534 C 0.99918 0.66876 0.61061 0.0
C1535 C 0.01274 0.68358 0.59121 0.0
C1536 C 0.98424 0.65038 0.59917 0.0
C1537 C 0.01108 0.67974 0.56066 0.0
C1538 C 0.98305 0.64713 0.56849 0.0
N1539 N 0.99639 0.66175 0.55003 0.0
C1540 C 0.04686 0.71531 0.65252 0.0
C1541 C 0.03567 0.73505 0.67762 0.0
C1542 C 0.06479 0.73253 0.64465 0.0
N1543 N 0.03249 0.7169 0.66788 0.0
C1544 C 0.05363 0.75267 0.67081 0.0
C1545 C 0.06806 0.75151 0.65311 0.0
H1546 H 0.04398 0.70069 0.64521 0.0
H1547 H 0.02394 0.73596 0.68954 0.0
C1548 C 0.93723 0.6599 0.6225 0.0
N1549 N 0.95727 0.6703 0.61638 0.0
C1550 C 0.9234 0.66002 0.60246 0.0
C1551 C 0.95101 0.68128 0.56991 0.0
C1552 C 0.96432 0.68088 0.59065 0.0
C1553 C 0.93034 0.6709 0.57593 0.0
H1554 H 0.93205 0.65204 0.64343 0.0
H1555 H 0.98027 0.68961 0.58661 0.0
O1556 O 1.00169 0.67649 0.70927 0.0
O1557 O 0.96056 0.65058 0.67765 0.0
O1558 O 0.98329 0.69675 0.67264 0.0
O1559 O 1.00056 0.67219 0.64061 0.0
H1560 H 0.02612 0.67174 0.74529 0.0
H1561 H 1.00094 0.70939 0.72522 0.0
H1562 H 0.04534 0.69482 0.78673 0.0
H1563 H 0.02069 0.73185 0.76677 0.0
H1564 H 0.92559 0.58356 0.65819 0.0
H1565 H 0.9547 0.6376 0.73334 0.0
H1566 H 0.94317 0.61916 0.64166 0.0
H1567 H 0.93666 0.60172 0.74828 0.0
H1568 H 0.95287 0.67592 0.80793 0.0
H1569 H 0.91241 0.66984 0.73693 0.0
H1570 H 0.99732 0.5971 0.64748 0.0
H1571 H 0.99428 0.6068 0.74136 0.0
H1572 H 1.00681 0.71772 0.62771 0.0
H1573 H 0.95349 0.70456 0.6768 0.0
H1574 H 1.00142 0.74085 0.59572 0.0
H1575 H 0.94885 0.72768 0.64358 0.0
H1576 H 0.02428 0.69798 0.59956 0.0
H1577 H 0.97352 0.63883 0.61382 0.0
H1578 H 0.02143 0.69109 0.5454 0.0
H1579 H 0.97149 0.633 0.55935 0.0
H1580 H 0.0757 0.73111 0.63117 0.0
H1581 H 0.05578 0.7671 0.67781 0.0
H1582 H 0.90751 0.65199 0.60777 0.0
H1583 H 0.95679 0.68996 0.54968 0.0
H1584 H 0.24127 0.34415 0.1199 0.0
H1585 H 0.20041 0.35715 0.07332 0.0
H1586 H 0.18629 0.33098 0.16186 0.0
H1587 H 0.17024 0.34721 0.16648 0.0
H1588 H 0.12132 0.34685 0.12132 0.0
H1589 H 0.16695 0.3442 0.06996 0.0
C1590 C 0.22699 0.34384 0.11898 0.0
C1591 C 0.21452 0.33752 0.14377 0.0
C1592 C 0.22173 0.35041 0.09339 0.0
C1593 C 0.20368 0.35101 0.09277 0.0
C1594 C 0.19044 0.3442 0.11754 0.0
C1595 C 0.19598 0.33687 0.14265 0.0
C1596 C 0.17139 0.34533 0.11806 0.0
C1597 C 0.16292 0.34637 0.14557 0.0
C1598 C 0.14472 0.34639 0.1466 0.0
C1599 C 0.13531 0.3466 0.12033 0.0
C1600 C 0.14348 0.34625 0.0928 0.0
C1601 C 0.16131 0.34526 0.09152 0.0
H1602 H 0.67034 0.89737 0.12277 0.0
H1603 H 0.67112 0.85061 0.07234 0.0
H1604 H 0.67141 0.84973 0.16919 0.0
H1605 H 0.68246 0.82972 0.16658 0.0
H1606 H 0.67301 0.77702 0.1216 0.0
H1607 H 0.66346 0.8196 0.07386 0.0
C1608 C 0.67055 0.88335 0.12212 0.0
C1609 C 0.6716 0.87458 0.14855 0.0
C1610 C 0.66994 0.87447 0.09485 0.0
C1611 C 0.67084 0.8566 0.09393 0.0
C1612 C 0.67158 0.84703 0.12064 0.0
C1613 C 0.67157 0.85633 0.14796 0.0
C1614 C 0.6724 0.82768 0.12038 0.0
C1615 C 0.67781 0.82096 0.14641 0.0
C1616 C 0.67738 0.8025 0.14698 0.0
C1617 C 0.6729 0.7911 0.1212 0.0
C1618 C 0.66849 0.79758 0.09483 0.0
C1619 C 0.66774 0.81553 0.09443 0.0
H1620 H 0.24219 0.90015 0.12229 0.0
H1621 H 0.19483 0.85184 0.0737 0.0
H1622 H 0.19276 0.85422 0.17032 0.0
H1623 H 0.16143 0.83402 0.16693 0.0
H1624 H 0.11938 0.77945 0.12433 0.0
H1625 H 0.17299 0.8202 0.0777 0.0
C1626 C 0.22789 0.88616 0.1222 0.0
C1627 C 0.21785 0.87837 0.14888 0.0
C1628 C 0.21978 0.87639 0.09537 0.0
C1629 C 0.20099 0.85854 0.09504 0.0
C1630 C 0.1905 0.84985 0.12198 0.0
C1631 C 0.19953 0.86011 0.14895 0.0
C1632 C 0.17042 0.83039 0.12214 0.0
C1633 C 0.15768 0.82456 0.14751 0.0
C1634 C 0.13971 0.806 0.14849 0.0
C1635 C 0.13342 0.79368 0.12354 0.0
C1636 C 0.14516 0.79905 0.0979 0.0
C1637 C 0.16382 0.81707 0.09734 0.0
H1638 H 0.34971 0.11477 0.89186 0.0
H1639 H 0.36021 0.16799 0.9374 0.0
H1640 H 0.33626 0.15558 0.84733 0.0
H1641 H 0.34932 0.18747 0.84299 0.0
H1642 H 0.34853 0.23568 0.8885 0.0
H1643 H 0.34977 0.18945 0.93969 0.0
C1644 C 0.34925 0.12866 0.89203 0.0
C1645 C 0.34316 0.13447 0.86662 0.0
C1646 C 0.35479 0.14044 0.91765 0.0
C1647 C 0.35491 0.15881 0.91763 0.0
C1648 C 0.34848 0.16507 0.89218 0.0
C1649 C 0.34207 0.15217 0.86698 0.0
C1650 C 0.34863 0.18485 0.8915 0.0
C1651 C 0.34852 0.19387 0.86397 0.0
C1652 C 0.34787 0.21178 0.86301 0.0
C1653 C 0.34837 0.22148 0.88937 0.0
C1654 C 0.34977 0.2138 0.91676 0.0
C1655 C 0.34935 0.19529 0.91802 0.0
H1656 H 0.7801 0.11632 0.89449 0.0
H1657 H 0.82696 0.1636 0.9454 0.0
H1658 H 0.82998 0.1631 0.84871 0.0
H1659 H 0.86109 0.18292 0.85247 0.0
H1660 H 0.90278 0.23706 0.89616 0.0
H1661 H 0.84992 0.1949 0.94306 0.0
C1662 C 0.79448 0.13021 0.89533 0.0
C1663 C 0.8048 0.13861 0.86909 0.0
C1664 C 0.80227 0.13945 0.92261 0.0
C1665 C 0.82112 0.15724 0.92378 0.0
C1666 C 0.83198 0.16636 0.89724 0.0
C1667 C 0.82315 0.15674 0.86986 0.0
C1668 C 0.85209 0.18576 0.89769 0.0
C1669 C 0.86474 0.19207 0.87221 0.0
C1670 C 0.88254 0.21074 0.87147 0.0
C1671 C 0.88884 0.22273 0.89674 0.0
C1672 C 0.87735 0.21672 0.92262 0.0
C1673 C 0.85884 0.19855 0.92306 0.0
H1674 H 0.78005 0.66681 0.89358 0.0
H1675 H 0.82143 0.65596 0.94271 0.0
H1676 H 0.83587 0.68113 0.85351 0.0
H1677 H 0.85336 0.66659 0.8498 0.0
H1678 H 0.90128 0.6663 0.89697 0.0
H1679 H 0.85399 0.66696 0.94652 0.0
C1680 C 0.79439 0.66729 0.89495 0.0
C1681 C 0.80717 0.67376 0.87051 0.0
C1682 C 0.79982 0.66158 0.9212 0.0
C1683 C 0.81808 0.66142 0.92261 0.0
C1684 C 0.83149 0.66801 0.89798 0.0
C1685 C 0.82596 0.67498 0.87242 0.0
C1686 C 0.85083 0.66728 0.89822 0.0
C1687 C 0.86014 0.66706 0.87105 0.0
C1688 C 0.87845 0.6672 0.87075 0.0
C1689 C 0.88724 0.66649 0.89739 0.0
C1690 C 0.87824 0.66596 0.92454 0.0
C1691 C 0.86025 0.66669 0.92513 0.0
H1692 H 0.90759 0.67931 0.45571 0.0
H1693 H 0.86088 0.68077 0.40613 0.0
H1694 H 0.85967 0.6792 0.50298 0.0
H1695 H 0.82902 0.66976 0.50077 0.0
H1696 H 0.78666 0.68085 0.45653 0.0
H1697 H 0.83827 0.68938 0.40835 0.0
C1698 C 0.89357 0.67952 0.45531 0.0
C1699 C 0.88386 0.67841 0.48188 0.0
C1700 C 0.88551 0.68087 0.42824 0.0
C1701 C 0.86701 0.68054 0.42762 0.0
C1702 C 0.85683 0.67975 0.45447 0.0
C1703 C 0.86598 0.6791 0.48162 0.0
C1704 C 0.83698 0.67958 0.45447 0.0
C1705 C 0.82497 0.67444 0.48058 0.0
C1706 C 0.80731 0.67552 0.48141 0.0
C1707 C 0.80047 0.68025 0.45579 0.0
C1708 C 0.81137 0.68468 0.42941 0.0
C1709 C 0.8298 0.68488 0.4288 0.0
H1710 H 0.34018 0.23374 0.45358 0.0
H1711 H 0.32975 0.18104 0.40636 0.0
H1712 H 0.35129 0.19118 0.49771 0.0
H1713 H 0.33645 0.15897 0.50102 0.0
H1714 H 0.33806 0.11123 0.45529 0.0
H1715 H 0.34068 0.1596 0.40454 0.0
C1716 C 0.34024 0.21964 0.45313 0.0
C1717 C 0.34547 0.2131 0.47866 0.0
C1718 C 0.33524 0.20845 0.42697 0.0
C1719 C 0.33459 0.1898 0.42658 0.0
C1720 C 0.33999 0.18276 0.45224 0.0
C1721 C 0.3461 0.19518 0.47793 0.0
C1722 C 0.33916 0.16267 0.45268 0.0
C1723 C 0.33782 0.15287 0.48008 0.0
C1724 C 0.33803 0.13474 0.48095 0.0
C1725 C 0.33837 0.12551 0.45453 0.0
C1726 C 0.33876 0.13418 0.42714 0.0
C1727 C 0.3396 0.15291 0.42608 0.0
H1728 H 0.90815 0.23221 0.45603 0.0
H1729 H 0.86504 0.18094 0.40697 0.0
H1730 H 0.85566 0.18822 0.50063 0.0
H1731 H 0.83545 0.15711 0.50218 0.0
H1732 H 0.78665 0.11003 0.45493 0.0
H1733 H 0.83381 0.15788 0.40538 0.0
C1734 C 0.89402 0.21806 0.45533 0.0
C1735 C 0.88274 0.2107 0.48113 0.0
C1736 C 0.88737 0.20759 0.42861 0.0
C1737 C 0.86931 0.18895 0.42784 0.0
C1738 C 0.85729 0.18104 0.45385 0.0
C1739 C 0.86427 0.19268 0.48031 0.0
C1740 C 0.83776 0.16098 0.45373 0.0
C1741 C 0.82857 0.1512 0.48088 0.0
C1742 C 0.80999 0.13329 0.48116 0.0
C1743 C 0.80087 0.1241 0.45453 0.0
C1744 C 0.80975 0.13269 0.42739 0.0
C1745 C 0.82787 0.15128 0.42683 0.0
H1746 H 0.01859 0.44909 0.22667 0.0
H1747 H 0.02857 0.50208 0.27253 0.0
H1748 H 1.00697 0.49074 0.18113 0.0
H1749 H 0.01861 0.52211 0.17736 0.0
H1750 H 0.0178 0.57024 0.22278 0.0
H1751 H 0.01785 0.52344 0.27414 0.0
C1752 C 0.01827 0.46306 0.22681 0.0
C1753 C 0.013 0.4693 0.20106 0.0
C1754 C 0.02334 0.47459 0.25264 0.0
C1755 C 0.02366 0.49308 0.25254 0.0
C1756 C 0.01795 0.49971 0.22671 0.0
C1757 C 0.01216 0.4871 0.20121 0.0
C1758 C 0.01823 0.51956 0.22595 0.0
C1759 C 0.01816 0.52861 0.1984 0.0
C1760 C 0.01744 0.54646 0.19745 0.0
C1761 C 0.0181 0.55627 0.22372 0.0
C1762 C 0.01873 0.54823 0.25119 0.0
C1763 C 0.01833 0.52971 0.25247 0.0
H1764 H 0.44548 0.44959 0.22846 0.0
H1765 H 0.48927 0.50242 0.27398 0.0
H1766 H 0.4998 0.48997 0.18349 0.0
H1767 H 0.5191 0.52165 0.17902 0.0
H1768 H 0.56827 0.57013 0.22393 0.0
H1769 H 0.52168 0.52329 0.27576 0.0
C1770 C 0.46002 0.46329 0.22862 0.0
C1771 C 0.4718 0.46911 0.20305 0.0
C1772 C 0.46665 0.47496 0.25433 0.0
C1773 C 0.4851 0.49322 0.25419 0.0
C1774 C 0.49759 0.49945 0.22855 0.0
C1775 C 0.49078 0.4866 0.20334 0.0
C1776 C 0.51725 0.51928 0.22761 0.0
C1777 C 0.52621 0.52827 0.19997 0.0
C1778 C 0.54475 0.54623 0.19883 0.0
C1779 C 0.55403 0.5561 0.22501 0.0
C1780 C 0.54552 0.5481 0.25257 0.0
C1781 C 0.52742 0.52953 0.25404 0.0
H1782 H 0.44714 1.00011 0.22468 0.0
H1783 H 0.49561 1.00238 0.27481 0.0
H1784 H 0.4952 0.99985 0.17811 0.0
H1785 H 0.52694 0.0128 0.18111 0.0
H1786 H 0.56954 1.00185 0.22527 0.0
H1787 H 0.51643 0.99063 0.27212 0.0
C1788 C 0.46131 1.00019 0.22529 0.0
C1789 C 0.47077 1.00063 0.19878 0.0
C1790 C 0.47002 1.00041 0.25258 0.0
C1791 C 0.4888 1.0013 0.25336 0.0
C1792 C 0.49856 1.00113 0.22657 0.0
C1793 C 0.48894 1.00049 0.19929 0.0
C1794 C 0.51861 1.00183 0.22678 0.0
C1795 C 0.53099 0.00784 0.20105 0.0
C1796 C 0.54896 0.00729 0.20039 0.0
C1797 C 0.55556 1.00215 0.2259 0.0
C1798 C 0.54408 0.99659 0.25185 0.0
C1799 C 0.52546 0.996 0.25221 0.0
H1800 H 0.57334 0.01141 0.7871 0.0
H1801 H 0.53239 0.02432 0.74074 0.0
H1802 H 0.51814 0.99761 0.82898 0.0
H1803 H 0.50102 0.01266 0.83368 0.0
H1804 H 0.45257 0.0127 0.78769 0.0
H1805 H 0.49929 0.01172 0.73699 0.0
C1806 C 0.55906 0.01111 0.7863 0.0
C1807 C 0.54652 1.00455 0.81103 0.0
C1808 C 0.55375 0.01766 0.76075 0.0
C1809 C 0.53567 0.01818 0.76019 0.0
C1810 C 0.52234 0.01117 0.78488 0.0
C1811 C 0.5279 1.00376 0.8099 0.0
C1812 C 0.5031 0.01201 0.7852 0.0
C1813 C 0.49407 0.01228 0.81261 0.0
C1814 C 0.47569 0.01196 0.81331 0.0
C1815 C 0.46671 0.01271 0.78691 0.0
C1816 C 0.47539 0.0131 0.75951 0.0
C1817 C 0.49334 0.01233 0.7585 0.0
H1818 H 1.00282 0.56431 0.78802 0.0
H1819 H 1.00411 0.51752 0.7382 0.0
H1820 H 1.00345 0.51654 0.83496 0.0
H1821 H 0.01667 0.49807 0.83187 0.0
H1822 H 1.00651 0.44461 0.78825 0.0
H1823 H 0.99391 0.48543 0.74113 0.0
C1824 C 1.00311 0.55033 0.78754 0.0
C1825 C 1.00389 0.54154 0.81413 0.0
C1826 C 1.00271 0.54144 0.76036 0.0
C1827 C 1.00364 0.52359 0.75966 0.0
C1828 C 1.0042 0.51408 0.78649 0.0
C1829 C 1.00386 0.52328 0.81373 0.0
C1830 C 1.00524 0.4949 0.78638 0.0
C1831 C 0.01168 0.48891 0.81206 0.0
C1832 C 0.01155 0.47061 0.81285 0.0
C1833 C 1.00644 0.45871 0.78752 0.0
C1834 C 1.00056 0.46427 0.76158 0.0
C1835 C 0.99949 0.48206 0.76108 0.0
H1836 H 0.57224 0.56578 0.78542 0.0
H1837 H 0.53112 0.51311 0.73674 0.0
H1838 H 0.51805 0.5224 0.82755 0.0
H1839 H 0.50126 0.49014 0.83007 0.0
H1840 H 0.4523 0.44278 0.78299 0.0
H1841 H 0.49824 0.49212 0.73368 0.0
C1842 C 0.55802 0.55174 0.78424 0.0
C1843 C 0.54584 0.54481 0.80928 0.0
C1844 C 0.55253 0.54059 0.758 0.0
C1845 C 0.53454 0.5219 0.75689 0.0
C1846 C 0.5216 0.51464 0.78202 0.0
C1847 C 0.52744 0.52678 0.80795 0.0
C1848 C 0.50249 0.49444 0.78186 0.0
C1849 C 0.49393 0.48425 0.80895 0.0
C1850 C 0.47565 0.46602 0.80931 0.0
C1851 C 0.46626 0.45709 0.78263 0.0
C1852 C 0.47465 0.46623 0.75549 0.0
C1853 C 0.4925 0.48503 0.75498 0.0
H1854 H 0.68206 0.78243 0.56009 0.0
H1855 H 0.69276 0.83487 0.60833 0.0
H1856 H 0.67107 0.82532 0.51702 0.0
H1857 H 0.6839 0.85695 0.51443 0.0
H1858 H 0.68447 0.90518 0.56175 0.0
H1859 H 0.68227 0.85653 0.61119 0.0
C1860 C 0.68177 0.7964 0.56104 0.0
C1861 C 0.67673 0.80327 0.53571 0.0
C1862 C 0.68695 0.80748 0.58734 0.0
C1863 C 0.68761 0.82614 0.58811 0.0
C1864 C 0.68202 0.83332 0.56279 0.0
C1865 C 0.67603 0.82114 0.53684 0.0
C1866 C 0.68287 0.85346 0.56287 0.0
C1867 C 0.68342 0.86318 0.53572 0.0
C1868 C 0.68353 0.88148 0.53546 0.0
C1869 C 0.68418 0.89091 0.56213 0.0
C1870 C 0.68413 0.88213 0.58926 0.0
C1871 C 0.6831 0.8633 0.58979 0.0
H1872 H 0.11411 0.78108 0.55689 0.0
H1873 H 0.15583 0.83387 0.60466 0.0
H1874 H 0.16904 0.82297 0.51481 0.0
H1875 H 0.18678 0.85516 0.51159 0.0
H1876 H 0.23486 0.90327 0.5589 0.0
H1877 H 0.18847 0.85443 0.60823 0.0
C1878 C 0.12852 0.79492 0.55795 0.0
C1879 C 0.1408 0.80134 0.53295 0.0
C1880 C 0.13421 0.80631 0.584 0.0
C1881 C 0.15239 0.8248 0.5848 0.0
C1882 C 0.1655 0.83147 0.55988 0.0
C1883 C 0.15956 0.81902 0.53425 0.0
C1884 C 0.18483 0.85148 0.55994 0.0
C1885 C 0.1938 0.8613 0.53279 0.0
C1886 C 0.21204 0.87957 0.53252 0.0
C1887 C 0.22099 0.88887 0.55923 0.0
C1888 C 0.21222 0.88008 0.58634 0.0
C1889 C 0.19448 0.86121 0.58686 0.0
H1890 H 0.11426 0.33571 0.56032 0.0
H1891 H 0.15914 0.33166 0.61084 0.0
H1892 H 0.16337 0.33735 0.51431 0.0
H1893 H 0.19345 0.34483 0.51747 0.0
H1894 H 0.23477 0.33302 0.56367 0.0
H1895 H 0.18224 0.32413 0.60933 0.0
C1896 C 0.12826 0.33545 0.56105 0.0
C1897 C 0.13859 0.33736 0.53481 0.0
C1898 C 0.1355 0.333 0.58816 0.0
C1899 C 0.15381 0.33298 0.58923 0.0
C1900 C 0.16477 0.33474 0.56276 0.0
C1901 C 0.15646 0.33662 0.53547 0.0
C1902 C 0.18449 0.33454 0.56337 0.0
C1903 C 0.19703 0.33988 0.53781 0.0
C1904 C 0.21478 0.33888 0.53783 0.0
C1905 C 0.22096 0.33363 0.5637 0.0
C1906 C 0.20938 0.32876 0.58942 0.0
C1907 C 0.19108 0.32881 0.58923 0.0
C1908 C 0.98953 0.424 0.15027 0.0
C1909 C 1.00545 0.4292 0.12982 0.0
C1910 C 0.02523 0.46222 0.15338 0.0
C1911 C 1.00925 0.45709 0.17372 0.0
N1912 N 0.97481 0.43533 0.18802 0.0
N1913 N 0.03631 0.4545 0.10726 0.0
C1914 C 0.9909 0.43866 0.17092 0.0
C1915 C 0.02263 0.44875 0.1299 0.0
N1916 N 0.97352 0.40482 0.15071 0.0
N1917 N 0.04323 0.47952 0.15741 0.0
H1918 H 0.03501 0.44495 0.08985 0.0
H1919 H 0.04802 0.46919 0.10432 0.0
H1920 H 0.04555 0.49008 0.17378 0.0
H1921 H 0.05624 0.48287 0.14575 0.0
H1922 H 0.9625 0.3994 0.16713 0.0
H1923 H 0.9719 0.39379 0.13564 0.0
H1924 H 0.96042 0.42305 0.18532 0.0
H1925 H 0.97549 0.44587 0.20331 0.0
C1926 C 0.58707 0.56536 0.14335 0.0
C1927 C 0.58341 0.57874 0.12632 0.0
C1928 C 0.55209 0.56825 0.1538 0.0
C1929 C 0.55568 0.55472 0.1705 0.0
N1930 N 0.57361 0.53674 0.17677 0.0
N1931 N 0.56046 0.58967 0.1103 0.0
C1932 C 0.5722 0.55204 0.16367 0.0
C1933 C 0.56525 0.57915 0.12997 0.0
N1934 N 0.60519 0.5661 0.14123 0.0
N1935 N 0.53662 0.57128 0.16155 0.0
H1936 H 0.56975 0.59779 0.09257 0.0
H1937 H 0.54658 0.58899 0.10997 0.0
H1938 H 0.52628 0.56299 0.17817 0.0
H1939 H 0.53465 0.5827 0.15271 0.0
H1940 H 0.60964 0.55836 0.15546 0.0
H1941 H 0.61654 0.57571 0.12672 0.0
H1942 H 0.5842 0.53273 0.1707 0.0
H1943 H 0.56293 0.52679 0.19183 0.0
C1944 C 0.45434 0.02377 0.13825 0.0
C1945 C 0.43768 1.00614 0.12654 0.0
C1946 C 0.44675 0.98508 0.15634 0.0
C1947 C 0.46177 1.00262 0.17069 0.0
N1948 N 0.48007 0.03864 0.17641 0.0
N1949 N 0.41755 0.97002 0.12383 0.0
C1950 C 0.46582 0.022 0.16164 0.0
C1951 C 0.43386 0.98676 0.13521 0.0
N1952 N 0.45916 0.04216 0.12691 0.0
N1953 N 0.44495 0.96689 0.16297 0.0
H1954 H 0.4083 0.97068 0.10742 0.0
H1955 H 0.4125 0.9555 0.13151 0.0
H1956 H 0.45414 0.9653 0.17853 0.0
H1957 H 0.43555 0.95363 0.15165 0.0
H1958 H 0.47233 0.05542 0.13207 0.0
H1959 H 0.4506 0.0441 0.11065 0.0
H1960 H 0.48206 0.05297 0.17375 0.0
H1961 H 0.48946 0.03799 0.1926 0.0
C1962 C 0.45426 0.0247 0.88065 0.0
C1963 C 0.43671 1.00575 0.8853 0.0
C1964 C 0.44876 0.99029 0.84922 0.0
C1965 C 0.46465 0.00967 0.84144 0.0
N1966 N 0.4825 0.04555 0.84842 0.0
N1967 N 0.41627 0.97061 0.87294 0.0
C1968 C 0.46755 0.02695 0.85703 0.0
C1969 C 0.43379 0.98849 0.86955 0.0
N1970 N 0.45835 0.04042 0.89914 0.0
N1971 N 0.44804 0.97364 0.83702 0.0
H1972 H 0.40497 0.96866 0.88772 0.0
H1973 H 0.41221 0.95807 0.85963 0.0
H1974 H 0.45874 0.97453 0.82186 0.0
H1975 H 0.438 0.95902 0.84381 0.0
H1976 H 0.47183 0.05405 0.89881 0.0
H1977 H 0.44889 0.03929 0.91659 0.0
H1978 H 0.48392 0.05893 0.85632 0.0
H1979 H 0.49299 0.04761 0.83206 0.0
C1980 C 1.00057 0.43928 0.88293 0.0
C1981 C 0.01875 0.43882 0.88543 0.0
C1982 C 0.03391 0.46404 0.84584 0.0
C1983 C 0.01496 0.46247 0.84081 0.0
N1984 N 0.97991 0.44826 0.8532 0.0
N1985 N 0.05275 0.45022 0.86965 0.0
C1986 C 0.99826 0.45023 0.8593 0.0
C1987 C 0.03553 0.45122 0.86716 0.0
N1988 N 0.98552 0.42923 0.90322 0.0
N1989 N 0.05028 0.4779 0.83022 0.0
H1990 H 0.05465 0.44153 0.88574 0.0
H1991 H 0.06478 0.45712 0.85496 0.0
H1992 H 0.04938 0.4874 0.81449 0.0
H1993 H 0.06493 0.48115 0.83434 0.0
H1994 H 0.97286 0.43079 0.90475 0.0
H1995 H 0.98628 0.42032 0.9201 0.0
H1996 H 0.96655 0.4376 0.86315 0.0
H1997 H 0.97777 0.45664 0.83686 0.0
C1998 C 0.57626 0.56388 0.88034 0.0
C1999 C 0.57741 0.58284 0.88273 0.0
C2000 C 0.55275 0.57367 0.84253 0.0
C2001 C 0.55379 0.55602 0.83751 0.0
N2002 N 0.56685 0.53425 0.85033 0.0
N2003 N 0.56726 0.60632 0.86659 0.0
C2004 C 0.56539 0.55093 0.85637 0.0
C2005 C 0.56561 0.58782 0.86415 0.0
N2006 N 0.58558 0.55829 0.90105 0.0
N2007 N 0.53939 0.57676 0.82657 0.0
H2008 H 0.57601 0.61673 0.88287 0.0
H2009 H 0.56084 0.61185 0.8517 0.0
H2010 H 0.52986 0.56656 0.81062 0.0
H2011 H 0.53653 0.58842 0.83065 0.0
H2012 H 0.5835 0.54385 0.90255 0.0
H2013 H 0.59432 0.56766 0.91831 0.0
H2014 H 0.57708 0.5311 0.86065 0.0
H2015 H 0.55852 0.52397 0.83367 0.0
C2016 C 0.98903 0.56498 0.8759 0.0
C2017 C 1.00824 0.57935 0.88706 0.0
C2018 C 0.02447 0.56666 0.85342 0.0
C2019 C 1.00527 0.5523 0.84225 0.0
N2020 N 0.96922 0.53489 0.84627 0.0
N2021 N 0.04379 0.59156 0.89115 0.0
C2022 C 0.98751 0.55052 0.8547 0.0
C2023 C 0.02583 0.57941 0.87732 0.0
N2024 N 0.97236 0.56563 0.88488 0.0
N2025 N 0.04142 0.56867 0.84023 0.0
H2026 H 0.04543 0.60149 0.90818 0.0
H2027 H 0.05676 0.59082 0.88736 0.0
H2028 H 0.041 0.55906 0.82351 0.0
H2029 H 0.05586 0.58044 0.84465 0.0
H2030 H 0.95823 0.55715 0.87523 0.0
H2031 H 0.97283 0.57562 0.901 0.0
H2032 H 0.95569 0.53151 0.85631 0.0
H2033 H 0.96773 0.52417 0.83067 0.0
C2034 C 0.45242 0.42545 0.86815 0.0
C2035 C 0.44037 0.43161 0.88381 0.0
C2036 C 0.45341 0.46186 0.85285 0.0
C2037 C 0.46572 0.45588 0.83755 0.0
N2038 N 0.48033 0.43463 0.83432 0.0
N2039 N 0.43245 0.45742 0.89578 0.0
C2040 C 0.46632 0.4385 0.84649 0.0
C2041 C 0.44186 0.45041 0.87764 0.0
N2042 N 0.44993 0.40678 0.87308 0.0
N2043 N 0.45206 0.47794 0.84283 0.0
H2044 H 0.42372 0.44933 0.91398 0.0
H2045 H 0.43461 0.4719 0.89439 0.0
H2046 H 0.46069 0.48704 0.82528 0.0
H2047 H 0.44152 0.48157 0.85065 0.0
H2048 H 0.45656 0.40048 0.86007 0.0
H2049 H 0.44005 0.39688 0.88897 0.0
H2050 H 0.48292 0.4233 0.84181 0.0
H2051 H 0.49068 0.44394 0.81837 0.0
C2052 C 0.57241 0.01059 0.88558 0.0
C2053 C 0.57795 0.99563 0.88252 0.0
C2054 C 0.55651 0.98253 0.83835 0.0
C2055 C 0.55401 0.9996 0.83844 0.0
N2056 N 0.56072 0.03088 0.86105 0.0
N2057 N 0.57613 0.96768 0.85542 0.0
C2058 C 0.56199 0.01376 0.86203 0.0
C2059 C 0.57 0.98146 0.85898 0.0
N2060 N 0.57703 0.02166 0.91115 0.0
N2061 N 0.54597 0.96741 0.8184 0.0
H2062 H 0.58589 0.96638 0.87018 0.0
H2063 H 0.57266 0.95846 0.83682 0.0
H2064 H 0.53595 0.96788 0.80318 0.0
H2065 H 0.5457 0.95373 0.81875 0.0
H2066 H 0.57168 0.03141 0.91594 0.0
H2067 H 0.58462 0.01967 0.92887 0.0
H2068 H 0.56846 0.04289 0.87561 0.0
H2069 H 0.55304 0.03376 0.84444 0.0
C2070 C 0.56862 0.99494 0.1307 0.0
C2071 C 0.58713 0.01316 0.12709 0.0
C2072 C 0.57763 0.02899 0.16644 0.0
C2073 C 0.56035 0.01012 0.1724 0.0
N2074 N 0.53945 0.9748 0.16167 0.0
N2075 N 0.60987 0.04749 0.1413 0.0
C2076 C 0.55571 0.99305 0.15465 0.0
C2077 C 0.59174 0.03026 0.14475 0.0
N2078 N 0.56338 0.97945 0.11113 0.0
N2079 N 0.58036 0.04563 0.1815 0.0
H2080 H 0.62021 0.04913 0.12493 0.0
H2081 H 0.61522 0.05981 0.15548 0.0
H2082 H 0.57024 0.045 0.19752 0.0
H2083 H 0.59166 0.06021 0.17667 0.0
H2084 H 0.54917 0.96668 0.11035 0.0
H2085 H 0.5728 0.97989 0.09411 0.0
H2086 H 0.53667 0.96126 0.15231 0.0
H2087 H 0.52915 0.97295 0.17821 0.0
C2088 C 0.99379 0.56573 0.14308 0.0
C2089 C 1.01068 0.57894 0.1256 0.0
C2090 C 0.03159 0.56809 0.15194 0.0
C2091 C 0.01468 0.55484 0.16925 0.0
N2092 N 0.97884 0.53717 0.17661 0.0
N2093 N 0.0441 0.5892 0.10807 0.0
C2094 C 0.99546 0.55234 0.1631 0.0
C2095 C 0.02912 0.57898 0.12833 0.0
N2096 N 0.97655 0.56675 0.14178 0.0
N2097 N 0.05014 0.5709 0.15892 0.0
H2098 H 0.04266 0.59719 0.09041 0.0
H2099 H 0.05718 0.58833 0.10713 0.0
H2100 H 0.05234 0.56264 0.17541 0.0
H2101 H 0.06345 0.58214 0.14957 0.0
H2102 H 0.96457 0.55917 0.15644 0.0
H2103 H 0.97473 0.57641 0.12751 0.0
H2104 H 0.96418 0.53331 0.17106 0.0
H2105 H 0.97966 0.52717 0.19146 0.0
C2106 C 0.45227 0.42528 0.14862 0.0
C2107 C 0.43999 0.42978 0.13033 0.0
C2108 C 0.45287 0.46242 0.15516 0.0
C2109 C 0.46332 0.4569 0.17564 0.0
N2110 N 0.47315 0.43341 0.19285 0.0
N2111 N 0.42788 0.45205 0.11594 0.0
C2112 C 0.46324 0.43848 0.17244 0.0
C2113 C 0.44025 0.4483 0.13334 0.0
N2114 N 0.45349 0.40843 0.14301 0.0
N2115 N 0.45503 0.48119 0.15665 0.0
H2116 H 0.41913 0.44248 0.09887 0.0
H2117 H 0.42537 0.46401 0.11922 0.0
H2118 H 0.4636 0.49168 0.17292 0.0
H2119 H 0.44958 0.48703 0.14066 0.0
H2120 H 0.46363 0.4052 0.15344 0.0
H2121 H 0.44518 0.39815 0.12634 0.0
H2122 H 0.47183 0.41928 0.19418 0.0
H2123 H 0.4822 0.44323 0.20952 0.0
C2124 C 0.68989 0.78226 0.46914 0.0
C2125 C 0.67089 0.76535 0.46224 0.0
C2126 C 0.65487 0.7751 0.50085 0.0
C2127 C 0.67384 0.79208 0.50752 0.0
N2128 N 0.70848 0.81437 0.49437 0.0
N2129 N 0.63482 0.74758 0.46693 0.0
C2130 C 0.69103 0.79651 0.49031 0.0
C2131 C 0.65319 0.76239 0.47667 0.0
N2132 N 0.70696 0.78415 0.45653 0.0
N2133 N 0.63866 0.77081 0.51835 0.0
H2134 H 0.63315 0.73791 0.44949 0.0
H2135 H 0.62123 0.74581 0.4745 0.0
H2136 H 0.63924 0.78035 0.53532 0.0
H2137 H 0.62497 0.75744 0.51708 0.0
H2138 H 0.72143 0.79477 0.46324 0.0
H2139 H 0.7068 0.77414 0.44072 0.0
H2140 H 0.72095 0.81948 0.48053 0.0
H2141 H 0.70994 0.825 0.5101 0.0
C2142 C 0.23628 0.9204 0.47458 0.0
C2143 C 0.24893 0.91459 0.45991 0.0
C2144 C 0.23505 0.8839 0.48998 0.0
C2145 C 0.22226 0.88963 0.50441 0.0
N2146 N 0.2072 0.91052 0.50623 0.0
N2147 N 0.25733 0.88904 0.44851 0.0
C2148 C 0.22172 0.90698 0.49521 0.0
C2149 C 0.24732 0.89572 0.46598 0.0
N2150 N 0.23883 0.93912 0.46985 0.0
N2151 N 0.23616 0.86772 0.50015 0.0
H2152 H 0.26655 0.89741 0.43087 0.0
H2153 H 0.25521 0.87457 0.44981 0.0
H2154 H 0.22698 0.85835 0.51709 0.0
H2155 H 0.24696 0.86424 0.49308 0.0
H2156 H 0.23169 0.94513 0.48234 0.0
H2157 H 0.24924 0.94935 0.45478 0.0
H2158 H 0.20472 0.92185 0.49842 0.0
H2159 H 0.19636 0.90089 0.52139 0.0
C2160 C 0.11837 0.361 0.48186 0.0
C2161 C 0.10653 0.34465 0.46257 0.0
C2162 C 0.11821 0.32408 0.48793 0.0
C2163 C 0.13028 0.34057 0.50684 0.0
N2164 N 0.1458 0.37594 0.5174 0.0
N2165 N 0.0989 0.31254 0.44224 0.0
C2166 C 0.13168 0.35947 0.50223 0.0
C2167 C 0.10764 0.32677 0.46402 0.0
N2168 N 0.11612 0.37757 0.48181 0.0
N2169 N 0.1161 0.30566 0.49364 0.0
H2170 H 0.09115 0.31408 0.42433 0.0
H2171 H 0.10086 0.30011 0.44045 0.0
H2172 H 0.12402 0.30326 0.51045 0.0
H2173 H 0.10561 0.29252 0.48295 0.0
H2174 H 0.12264 0.38897 0.49762 0.0
H2175 H 0.10643 0.37923 0.46738 0.0
H2176 H 0.14891 0.39053 0.51306 0.0
H2177 H 0.15577 0.37522 0.53245 0.0
C2178 C 0.10836 0.32514 0.21155 0.0
C2179 C 0.10818 0.34271 0.22068 0.0
C2180 C 0.13628 0.3632 0.18713 0.0
C2181 C 0.13454 0.34535 0.17512 0.0
N2182 N 0.11871 0.30921 0.1745 0.0
N2183 N 0.12119 0.37844 0.21709 0.0
C2184 C 0.1207 0.32628 0.18722 0.0
C2185 C 0.12209 0.3618 0.20868 0.0
N2186 N 0.09684 0.30745 0.22634 0.0
N2187 N 0.15159 0.38143 0.17788 0.0
H2188 H 0.11135 0.37807 0.23339 0.0
H2189 H 0.1293 0.39239 0.20681 0.0
H2190 H 0.16211 0.38281 0.16201 0.0
H2191 H 0.15494 0.39506 0.18756 0.0
H2192 H 0.0978 0.29457 0.22287 0.0
H2193 H 0.08733 0.30604 0.24388 0.0
H2194 H 0.10722 0.29478 0.1797 0.0
H2195 H 0.12801 0.30947 0.15741 0.0
C2196 C 0.66856 0.7734 0.21915 0.0
C2197 C 0.68526 0.77027 0.21835 0.0
C2198 C 0.69952 0.79383 0.17664 0.0
C2199 C 0.68139 0.79438 0.17451 0.0
N2200 N 0.64794 0.78381 0.19234 0.0
N2201 N 0.71627 0.77647 0.19561 0.0
C2202 C 0.66579 0.78414 0.19563 0.0
C2203 C 0.7008 0.7804 0.19711 0.0
N2204 N 0.65552 0.76631 0.24262 0.0
N2205 N 0.71547 0.80623 0.15905 0.0
H2206 H 0.71778 0.76683 0.21036 0.0
H2207 H 0.72684 0.7816 0.17856 0.0
H2208 H 0.71488 0.81623 0.14394 0.0
H2209 H 0.72974 0.80797 0.16127 0.0
H2210 H 0.64424 0.76984 0.24606 0.0
H2211 H 0.65706 0.75832 0.2602 0.0
H2212 H 0.63513 0.77455 0.20474 0.0
H2213 H 0.64547 0.79188 0.17587 0.0
C2214 C 0.24893 0.89907 0.21966 0.0
C2215 C 0.25153 0.91872 0.21955 0.0
C2216 C 0.22672 0.90879 0.17946 0.0
C2217 C 0.22672 0.89043 0.17633 0.0
N2218 N 0.23883 0.86838 0.19194 0.0
N2219 N 0.24447 0.94312 0.19733 0.0
C2220 C 0.23794 0.88552 0.19623 0.0
C2221 C 0.24067 0.92377 0.19911 0.0
N2222 N 0.25663 0.89325 0.24249 0.0
N2223 N 0.21331 0.91183 0.16357 0.0
H2224 H 0.25479 0.95464 0.211 0.0
H2225 H 0.23867 0.94817 0.18064 0.0
H2226 H 0.20284 0.90105 0.14908 0.0
H2227 H 0.21122 0.92407 0.16688 0.0
H2228 H 0.25357 0.87853 0.24535 0.0
H2229 H 0.26458 0.90271 0.26017 0.0
H2230 H 0.24866 0.86519 0.20345 0.0
H2231 H 0.23061 0.85789 0.17545 0.0
C2232 C 0.69474 0.9144 0.20884 0.0
C2233 C 0.67704 0.9129 0.2212 0.0
C2234 C 0.65613 0.88256 0.19159 0.0
C2235 C 0.67367 0.88555 0.1767 0.0
N2236 N 0.70962 0.90382 0.17032 0.0
N2237 N 0.64092 0.89577 0.22549 0.0
C2238 C 0.69301 0.90116 0.18544 0.0
C2239 C 0.65772 0.8969 0.2131 0.0
N2240 N 0.71317 0.92854 0.21945 0.0
N2241 N 0.63804 0.86594 0.1851 0.0
H2242 H 0.64154 0.90531 0.24247 0.0
H2243 H 0.62633 0.88598 0.21832 0.0
H2244 H 0.6365 0.85534 0.16926 0.0
H2245 H 0.6248 0.86175 0.19667 0.0
H2246 H 0.72657 0.92908 0.21387 0.0
H2247 H 0.71509 0.93917 0.23545 0.0
H2248 H 0.7239 0.9163 0.17275 0.0
H2249 H 0.70899 0.8938 0.15412 0.0
C2250 C 0.09399 0.78385 0.19822 0.0
C2251 C 0.09927 0.77348 0.2192 0.0
C2252 C 0.13291 0.78793 0.19729 0.0
C2253 C 0.12758 0.79815 0.17608 0.0
N2254 N 0.10526 0.80973 0.16014 0.0
N2255 N 0.12491 0.76939 0.24367 0.0
C2256 C 0.1088 0.79742 0.17792 0.0
C2257 C 0.11916 0.7768 0.22036 0.0
N2258 N 0.07461 0.78003 0.19688 0.0
N2259 N 0.15061 0.78791 0.19436 0.0
H2260 H 0.11515 0.76097 0.26079 0.0
H2261 H 0.13972 0.77302 0.24747 0.0
H2262 H 0.16137 0.79634 0.17832 0.0
H2263 H 0.15418 0.77864 0.20665 0.0
H2264 H 0.06918 0.78533 0.18005 0.0
H2265 H 0.0635 0.77046 0.21175 0.0
H2266 H 0.09261 0.8113 0.16196 0.0
H2267 H 0.11596 0.81979 0.14518 0.0
C2268 C 0.24153 0.34568 0.21772 0.0
C2269 C 0.24567 0.32966 0.21668 0.0
C2270 C 0.2236 0.31559 0.17329 0.0
C2271 C 0.22219 0.33327 0.17154 0.0
N2272 N 0.23086 0.36598 0.19074 0.0
N2273 N 0.24138 0.29953 0.19337 0.0
C2274 C 0.23118 0.34843 0.19365 0.0
C2275 C 0.23669 0.31448 0.19465 0.0
N2276 N 0.24742 0.35819 0.24186 0.0
N2277 N 0.21236 0.29994 0.15447 0.0
H2278 H 0.25063 0.29807 0.20897 0.0
H2279 H 0.23717 0.28929 0.17593 0.0
H2280 H 0.20265 0.30046 0.13872 0.0
H2281 H 0.21127 0.28592 0.15615 0.0
H2282 H 0.24306 0.36885 0.24539 0.0
H2283 H 0.25519 0.35669 0.2598 0.0
H2284 H 0.23933 0.37858 0.20398 0.0
H2285 H 0.22315 0.36853 0.17378 0.0
C2286 C 0.23522 0.32765 0.46788 0.0
C2287 C 0.25366 0.34601 0.46474 0.0
C2288 C 0.24393 0.36106 0.50492 0.0
C2289 C 0.22668 0.34205 0.51029 0.0
N2290 N 0.20603 0.30687 0.49847 0.0
N2291 N 0.27628 0.38007 0.48026 0.0
C2292 C 0.22223 0.32528 0.49197 0.0
C2293 C 0.25815 0.36276 0.48313 0.0
N2294 N 0.23011 0.31253 0.44768 0.0
N2295 N 0.24652 0.37744 0.52058 0.0
H2296 H 0.28672 0.38203 0.46388 0.0
H2297 H 0.28155 0.39211 0.49498 0.0
H2298 H 0.23639 0.37654 0.53678 0.0
H2299 H 0.25774 0.39212 0.51609 0.0
H2300 H 0.21597 0.29968 0.44664 0.0
H2301 H 0.23956 0.31339 0.43041 0.0
H2302 H 0.20335 0.29351 0.48855 0.0
H2303 H 0.19569 0.30469 0.51514 0.0
C2304 C 0.6984 0.91792 0.4709 0.0
C2305 C 0.67928 0.91498 0.46248 0.0
C2306 C 0.66271 0.88762 0.49872 0.0
C2307 C 0.68184 0.89076 0.50744 0.0
N2308 N 0.71742 0.90598 0.49906 0.0
N2309 N 0.6431 0.89519 0.46417 0.0
C2310 C 0.69956 0.90499 0.49252 0.0
C2311 C 0.66137 0.89917 0.47503 0.0
N2312 N 0.71544 0.93346 0.45876 0.0
N2313 N 0.64592 0.87413 0.514 0.0
H2314 H 0.64151 0.90389 0.44777 0.0
H2315 H 0.62952 0.88258 0.46992 0.0
H2316 H 0.64619 0.86463 0.53035 0.0
H2317 H 0.63187 0.87285 0.51157 0.0
H2318 H 0.72992 0.93796 0.46612 0.0
H2319 H 0.71513 0.94266 0.44196 0.0
H2320 H 0.73069 0.91468 0.48734 0.0
H2321 H 0.71869 0.89685 0.51507 0.0
C2322 C 0.10816 0.78101 0.46461 0.0
C2323 C 0.10877 0.76307 0.45977 0.0
C2324 C 0.13344 0.77205 0.49995 0.0
C2325 C 0.13272 0.78991 0.50487 0.0
N2326 N 0.12295 0.81366 0.48853 0.0
N2327 N 0.12447 0.74313 0.46824 0.0
C2328 C 0.12128 0.79515 0.48594 0.0
C2329 C 0.12227 0.75913 0.47599 0.0
N2330 N 0.09436 0.78405 0.44977 0.0
N2331 N 0.14425 0.76717 0.5189 0.0
H2332 H 0.11625 0.73325 0.4511 0.0
H2333 H 0.13538 0.74044 0.47719 0.0
H2334 H 0.15336 0.77683 0.53567 0.0
H2335 H 0.14357 0.75331 0.51894 0.0
H2336 H 0.09139 0.79553 0.45484 0.0
H2337 H 0.08478 0.77429 0.43348 0.0
H2338 H 0.11668 0.81928 0.4735 0.0
H2339 H 0.13204 0.82422 0.5044 0.0
C2340 C 0.31974 0.08751 0.81937 0.0
C2341 C 0.33419 0.09324 0.7963 0.0
C2342 C 0.35298 0.12739 0.81666 0.0
C2343 C 0.33845 0.12171 0.83961 0.0
N2344 N 0.30573 0.09828 0.85892 0.0
N2345 N 0.36141 0.1196 0.76838 0.0
C2346 C 0.32102 0.10235 0.83957 0.0
C2347 C 0.3498 0.11354 0.79346 0.0
N2348 N 0.3054 0.06774 0.82283 0.0
N2349 N 0.37035 0.14558 0.81789 0.0
H2350 H 0.35948 0.10984 0.75092 0.0
H2351 H 0.37168 0.13459 0.76363 0.0
H2352 H 0.37313 0.15634 0.83416 0.0
H2353 H 0.38258 0.14952 0.80394 0.0
H2354 H 0.29587 0.06227 0.84114 0.0
H2355 H 0.30394 0.05646 0.8084 0.0
H2356 H 0.29183 0.0851 0.85833 0.0
H2357 H 0.30632 0.10896 0.87384 0.0
C2358 C 0.9023 0.24008 0.79952 0.0
C2359 C 0.92201 0.24289 0.79952 0.0
C2360 C 0.91309 0.2193 0.84112 0.0
C2361 C 0.8945 0.21887 0.84384 0.0
N2362 N 0.87148 0.22952 0.82702 0.0
N2363 N 0.94678 0.2359 0.82027 0.0
C2364 C 0.88897 0.22921 0.82314 0.0
C2365 C 0.92753 0.23251 0.82011 0.0
N2366 N 0.89631 0.24771 0.77678 0.0
N2367 N 0.91679 0.20698 0.85865 0.0
H2368 H 0.95756 0.24509 0.80472 0.0
H2369 H 0.95247 0.2306 0.83672 0.0
H2370 H 0.90639 0.19718 0.87415 0.0
H2371 H 0.92925 0.20516 0.85619 0.0
H2372 H 0.88152 0.24438 0.77375 0.0
H2373 H 0.90581 0.25611 0.75941 0.0
H2374 H 0.86783 0.23886 0.81509 0.0
H2375 H 0.86102 0.22128 0.84349 0.0
C2376 C 0.78837 0.69957 0.81809 0.0
C2377 C 0.77687 0.68345 0.79827 0.0
C2378 C 0.79069 0.66376 0.82052 0.0
C2379 C 0.80002 0.67874 0.84279 0.0
N2380 N 0.80868 0.71107 0.86303 0.0
N2381 N 0.76703 0.65043 0.77939 0.0
C2382 C 0.79936 0.69685 0.84136 0.0
C2383 C 0.77824 0.6657 0.79888 0.0
N2384 N 0.78873 0.71742 0.81454 0.0
N2385 N 0.79365 0.64763 0.82029 0.0
H2386 H 0.75856 0.65171 0.76229 0.0
H2387 H 0.7653 0.63614 0.78071 0.0
H2388 H 0.80214 0.6454 0.83632 0.0
H2389 H 0.78897 0.63711 0.80321 0.0
H2390 H 0.79819 0.73045 0.82632 0.0
H2391 H 0.78037 0.71966 0.79826 0.0
H2392 H 0.80692 0.72355 0.8657 0.0
H2393 H 0.81781 0.71 0.87925 0.0
C2394 C 0.76798 0.65319 0.54277 0.0
C2395 C 0.77017 0.67117 0.55517 0.0
C2396 C 0.80022 0.69114 0.52483 0.0
C2397 C 0.79639 0.67342 0.50959 0.0
N2398 N 0.77637 0.63763 0.50248 0.0
N2399 N 0.78705 0.70742 0.55636 0.0
C2400 C 0.78029 0.6544 0.5183 0.0
C2401 C 0.78607 0.69021 0.54598 0.0
N2402 N 0.75436 0.63504 0.55475 0.0
N2403 N 0.81745 0.70886 0.51902 0.0
H2404 H 0.77698 0.70743 0.5719 0.0
H2405 H 0.79684 0.72166 0.54791 0.0
H2406 H 0.82804 0.7101 0.50339 0.0
H2407 H 0.82217 0.7219 0.53146 0.0
H2408 H 0.75336 0.62149 0.5487 0.0
H2409 H 0.74504 0.63367 0.57254 0.0
H2410 H 0.76349 0.62368 0.50534 0.0
H2411 H 0.7856 0.63794 0.48524 0.0
C2412 C 0.35612 0.11947 0.54974 0.0
C2413 C 0.33923 0.10012 0.55469 0.0
C2414 C 0.32 0.10685 0.51751 0.0
C2415 C 0.33776 0.12475 0.5094 0.0
N2416 N 0.37319 0.14785 0.51625 0.0
N2417 N 0.30542 0.07448 0.54209 0.0
C2418 C 0.35592 0.13116 0.52535 0.0
C2419 C 0.32114 0.09362 0.53849 0.0
N2420 N 0.37222 0.12674 0.56861 0.0
N2421 N 0.30204 0.10259 0.50509 0.0
H2422 H 0.30563 0.06434 0.5573 0.0
H2423 H 0.29273 0.06809 0.52852 0.0
H2424 H 0.30082 0.11208 0.48968 0.0
H2425 H 0.28822 0.09077 0.51201 0.0
H2426 H 0.38413 0.14149 0.56804 0.0
H2427 H 0.37285 0.11851 0.58661 0.0
H2428 H 0.38737 0.15189 0.52457 0.0
H2429 H 0.37356 0.15708 0.49898 0.0
C2430 C 0.90311 0.25418 0.53532 0.0
C2431 C 0.91504 0.24938 0.55391 0.0
C2432 C 0.90305 0.21737 0.52774 0.0
C2433 C 0.89115 0.22218 0.50911 0.0
N2434 N 0.87638 0.24267 0.49855 0.0
N2435 N 0.92331 0.22496 0.57242 0.0
C2436 C 0.89004 0.23982 0.5141 0.0
C2437 C 0.91399 0.23046 0.5516 0.0
N2438 N 0.90488 0.27276 0.53725 0.0
N2439 N 0.90466 0.20079 0.52168 0.0
H2440 H 0.93181 0.23435 0.58985 0.0
H2441 H 0.92138 0.21058 0.5739 0.0
H2442 H 0.89632 0.19046 0.50509 0.0
H2443 H 0.91504 0.1978 0.5319 0.0
H2444 H 0.89836 0.27811 0.52222 0.0
H2445 H 0.91394 0.28344 0.55301 0.0
H2446 H 0.87344 0.25426 0.50282 0.0
H2447 H 0.86668 0.23236 0.48286 0.0
C2448 C 0.36798 0.25963 0.52656 0.0
C2449 C 0.35358 0.25343 0.54977 0.0
C2450 C 0.33549 0.21935 0.52911 0.0
C2451 C 0.34999 0.22549 0.50603 0.0
N2452 N 0.38262 0.24954 0.48709 0.0
N2453 N 0.32715 0.22643 0.57792 0.0
C2454 C 0.36716 0.24503 0.50631 0.0
C2455 C 0.33848 0.23293 0.5526 0.0
N2456 N 0.38173 0.27956 0.52288 0.0
N2457 N 0.3183 0.20102 0.52772 0.0
H2458 H 0.32906 0.23598 0.59568 0.0
H2459 H 0.31728 0.21132 0.58253 0.0
H2460 H 0.31556 0.1905 0.51111 0.0
H2461 H 0.30611 0.19678 0.5419 0.0
H2462 H 0.39112 0.28522 0.50443 0.0
H2463 H 0.38276 0.29072 0.53717 0.0
H2464 H 0.39634 0.26292 0.48788 0.0
H2465 H 0.38238 0.23902 0.47216 0.0
C2466 C 0.7692 0.11454 0.53954 0.0
C2467 C 0.77218 0.09985 0.5541 0.0
C2468 C 0.80202 0.10912 0.52351 0.0
C2469 C 0.79915 0.12395 0.50924 0.0
N2470 N 0.78296 0.14384 0.50741 0.0
N2471 N 0.79337 0.08578 0.56468 0.0
C2472 C 0.78369 0.12767 0.5186 0.0
C2473 C 0.78925 0.09798 0.54756 0.0
N2474 N 0.75207 0.11531 0.54479 0.0
N2475 N 0.81646 0.1052 0.51328 0.0
H2476 H 0.78421 0.07725 0.58227 0.0
H2477 H 0.80663 0.08528 0.56308 0.0
H2478 H 0.82659 0.11366 0.49654 0.0
H2479 H 0.81776 0.09298 0.52018 0.0
H2480 H 0.74784 0.12406 0.53246 0.0
H2481 H 0.74121 0.10608 0.56022 0.0
H2482 H 0.77332 0.14861 0.51535 0.0
H2483 H 0.79328 0.15363 0.49183 0.0
C2484 C 0.9158 0.69025 0.55181 0.0
C2485 C 0.91611 0.672 0.5547 0.0
C2486 C 0.89047 0.65668 0.51581 0.0
C2487 C 0.89257 0.67575 0.50982 0.0
N2488 N 0.90791 0.71113 0.52061 0.0
N2489 N 0.90506 0.63819 0.53805 0.0
C2490 C 0.90526 0.69265 0.52763 0.0
C2491 C 0.90361 0.65519 0.53656 0.0
N2492 N 0.92534 0.70512 0.57249 0.0
N2493 N 0.87584 0.64001 0.50161 0.0
H2494 H 0.91452 0.6365 0.55293 0.0
H2495 H 0.89806 0.62633 0.52304 0.0
H2496 H 0.86601 0.64067 0.48624 0.0
H2497 H 0.87223 0.6254 0.50702 0.0
H2498 H 0.92411 0.718 0.57329 0.0
H2499 H 0.93309 0.70376 0.59057 0.0
H2500 H 0.91879 0.72444 0.53044 0.0
H2501 H 0.89999 0.71332 0.50357 0.0
C2502 C 0.90122 0.65216 0.80817 0.0
C2503 C 0.91581 0.67135 0.79727 0.0
C2504 C 0.90381 0.68776 0.83176 0.0
C2505 C 0.88921 0.66858 0.84263 0.0
N2506 N 0.87117 0.63256 0.83795 0.0
N2507 N 0.92875 0.70705 0.79409 0.0
C2508 C 0.88699 0.65076 0.82969 0.0
C2509 C 0.91635 0.68905 0.80761 0.0
N2510 N 0.90144 0.63537 0.79865 0.0
N2511 N 0.90621 0.70473 0.84541 0.0
H2512 H 0.93852 0.70861 0.77686 0.0
H2513 H 0.92838 0.72017 0.79835 0.0
H2514 H 0.89673 0.70438 0.8623 0.0
H2515 H 0.91816 0.7191 0.84119 0.0
H2516 H 0.89278 0.62119 0.80806 0.0
H2517 H 0.91125 0.63575 0.78229 0.0
H2518 H 0.86747 0.61905 0.82754 0.0
H2519 H 0.86064 0.63114 0.85384 0.0
C2520 C 0.32975 0.22613 0.79319 0.0
C2521 C 0.34585 0.24613 0.78945 0.0
C2522 C 0.36523 0.24032 0.82743 0.0
C2523 C 0.34798 0.2217 0.83455 0.0
N2524 N 0.31311 0.19724 0.82585 0.0
N2525 N 0.3781 0.27327 0.80562 0.0
C2526 C 0.33007 0.21455 0.81766 0.0
C2527 C 0.36349 0.25346 0.80706 0.0
N2528 N 0.31435 0.21812 0.77305 0.0
N2529 N 0.38329 0.24538 0.84027 0.0
H2530 H 0.37725 0.2836 0.79154 0.0
H2531 H 0.3902 0.27991 0.82029 0.0
H2532 H 0.38502 0.23594 0.85518 0.0
H2533 H 0.39682 0.25789 0.83395 0.0
H2534 H 0.30319 0.20302 0.77292 0.0
H2535 H 0.31374 0.22615 0.75475 0.0
H2536 H 0.29901 0.19256 0.81664 0.0
H2537 H 0.31286 0.18816 0.84326 0.0
C2538 C 0.78719 0.098 0.80994 0.0
C2539 C 0.77199 0.10054 0.79618 0.0
C2540 C 0.7826 0.13154 0.82465 0.0
C2541 C 0.79606 0.1276 0.84091 0.0
N2542 N 0.81175 0.1077 0.84972 0.0
N2543 N 0.75506 0.11951 0.7892 0.0
C2544 C 0.79874 0.11115 0.83342 0.0
C2545 C 0.76979 0.1174 0.80297 0.0
N2546 N 0.79051 0.08298 0.80055 0.0
N2547 N 0.78218 0.14884 0.83005 0.0
H2548 H 0.74615 0.11007 0.7721 0.0
H2549 H 0.75099 0.13004 0.79531 0.0
H2550 H 0.79121 0.15928 0.8461 0.0
H2551 H 0.77405 0.15368 0.81746 0.0
H2552 H 0.80267 0.08151 0.80729 0.0
H2553 H 0.78172 0.07247 0.78442 0.0
H2554 H 0.81272 0.09471 0.84817 0.0
H2555 H 0.82123 0.11765 0.86594 0.0
C2556 C 0.12129 0.36662 0.03761 0.0
C2557 C 0.10156 0.34973 0.03658 0.0
C2558 C 0.11398 0.32898 0.05926 0.0
C2559 C 0.13229 0.34663 0.06606 0.0
N2560 N 0.15429 0.38226 0.06075 0.0
N2561 N 0.07878 0.31452 0.04642 0.0
C2562 C 0.1364 0.36542 0.0543 0.0
C2563 C 0.09788 0.33066 0.04674 0.0
N2564 N 0.12542 0.38378 0.02274 0.0
N2565 N 0.11196 0.3107 0.06577 0.0
H2566 H 0.06654 0.31511 0.03756 0.0
H2567 H 0.07475 0.30087 0.05663 0.0
H2568 H 0.12368 0.30938 0.07516 0.0
H2569 H 0.09964 0.29706 0.05936 0.0
H2570 H 0.13984 0.39611 0.02052 0.0
H2571 H 0.11458 0.38496 0.01032 0.0
H2572 H 0.15737 0.39681 0.0562 0.0
H2573 H 0.16589 0.38161 0.07183 0.0
C2574 C 0.68145 0.76884 0.04186 0.0
C2575 C 0.66224 0.75149 0.03765 0.0
C2576 C 0.64615 0.76824 0.06243 0.0
C2577 C 0.6654 0.78504 0.06803 0.0
N2578 N 0.70039 0.80419 0.05546 0.0
N2579 N 0.62625 0.73678 0.03587 0.0
C2580 C 0.68269 0.78632 0.05474 0.0
C2581 C 0.64453 0.75196 0.04517 0.0
N2582 N 0.69852 0.76816 0.03572 0.0
N2583 N 0.62961 0.76743 0.07513 0.0
H2584 H 0.62473 0.72477 0.02306 0.0
H2585 H 0.61288 0.73696 0.03852 0.0
H2586 H 0.63039 0.77955 0.08676 0.0
H2587 H 0.61541 0.75462 0.07514 0.0
H2588 H 0.71288 0.77951 0.04157 0.0
H2589 H 0.69835 0.75561 0.0266 0.0
H2590 H 0.71327 0.80674 0.04413 0.0
H2591 H 0.70148 0.81706 0.06509 0.0
C2592 C 0.2474 0.91571 0.03664 0.0
C2593 C 0.26561 0.91521 0.03694 0.0
C2594 C 0.24852 0.88282 0.06293 0.0
C2595 C 0.23197 0.88568 0.06821 0.0
N2596 N 0.21455 0.9038 0.05901 0.0
N2597 N 0.28382 0.89825 0.05009 0.0
C2598 C 0.23088 0.90159 0.0541 0.0
C2599 C 0.26615 0.89848 0.04935 0.0
N2600 N 0.2461 0.92982 0.01983 0.0
N2601 N 0.24744 0.86532 0.07184 0.0
H2602 H 0.29703 0.90936 0.04029 0.0
H2603 H 0.28577 0.88771 0.06191 0.0
H2604 H 0.23462 0.85381 0.08201 0.0
H2605 H 0.25827 0.86144 0.06669 0.0
H2606 H 0.23283 0.93012 0.01671 0.0
H2607 H 0.25804 0.94026 0.00683 0.0
H2608 H 0.21375 0.91639 0.05255 0.0
H2609 H 0.20195 0.89315 0.07068 0.0
C2610 C 0.34784 0.10528 0.98068 0.0
C2611 C 0.36525 0.10377 0.97574 0.0
C2612 C 0.37928 0.1338 0.94418 0.0
C2613 C 0.36027 0.13254 0.94405 0.0
N2614 N 0.32674 0.11848 0.96343 0.0
N2615 N 0.39824 0.11695 0.95427 0.0
C2616 C 0.34478 0.11901 0.96332 0.0
C2617 C 0.38143 0.11846 0.95849 0.0
N2618 N 0.33422 0.09337 0.00168 0.0
N2619 N 0.395 0.14943 0.92985 0.0
H2620 H 0.40048 0.10619 0.96495 0.0
H2621 H 0.40957 0.1257 0.93922 0.0
H2622 H 0.39348 0.16068 0.91922 0.0
H2623 H 0.40973 0.15226 0.93071 0.0
H2624 H 0.32193 0.09469 0.00813 0.0
H2625 H 0.33623 0.08319 0.01454 0.0
H2626 H 0.31391 0.10741 0.97403 0.0
H2627 H 0.32445 0.12894 0.95186 0.0
C2628 C 0.8997 0.26598 0.96128 0.0
C2629 C 0.91536 0.26529 0.97702 0.0
C2630 C 0.90003 0.22926 0.96678 0.0
C2631 C 0.8856 0.23044 0.94858 0.0
N2632 N 0.86764 0.24737 0.93546 0.0
N2633 N 0.92755 0.24586 0.00213 0.0
C2634 C 0.88398 0.24798 0.94855 0.0
C2635 C 0.91443 0.24668 0.98242 0.0
N2636 N 0.90059 0.28402 0.95699 0.0
N2637 N 0.90069 0.21182 0.96736 0.0
H2638 H 0.93827 0.25851 0.01367 0.0
H2639 H 0.92684 0.23257 0.00887 0.0
H2640 H 0.88973 0.19869 0.95708 0.0
H2641 H 0.91221 0.21044 0.97713 0.0
H2642 H 0.89097 0.28602 0.94295 0.0
H2643 H 0.91162 0.29735 0.96668 0.0
H2644 H 0.8646 0.25912 0.9362 0.0
H2645 H 0.85613 0.23421 0.92598 0.0
C2646 C 0.74975 0.63492 0.95819 0.0
C2647 C 0.75056 0.65115 0.97446 0.0
C2648 C 0.78677 0.67161 0.96497 0.0
C2649 C 0.78557 0.65606 0.94657 0.0
N2650 N 0.76821 0.62133 0.93241 0.0
N2651 N 0.77019 0.68242 0.00045 0.0
C2652 C 0.76778 0.63706 0.94579 0.0
C2653 C 0.76929 0.66864 0.98038 0.0
N2654 N 0.7316 0.61801 0.95317 0.0
N2655 N 0.80431 0.68963 0.96603 0.0
H2656 H 0.75753 0.68056 0.01182 0.0
H2657 H 0.78355 0.69476 0.00767 0.0
H2658 H 0.8175 0.69181 0.95599 0.0
H2659 H 0.8057 0.70251 0.9759 0.0
H2660 H 0.72956 0.60655 0.93875 0.0
H2661 H 0.71823 0.61579 0.96256 0.0
H2662 H 0.75626 0.60661 0.93266 0.0
H2663 H 0.78138 0.62285 0.92321 0.0
C2664 C 0.92119 0.68073 0.97664 0.0
C2665 C 0.91903 0.66153 0.98193 0.0
C2666 C 0.88537 0.64512 0.95965 0.0
C2667 C 0.88842 0.66431 0.95167 0.0
N2668 N 0.90585 0.69997 0.95917 0.0
N2669 N 0.89761 0.62569 0.986 0.0
C2670 C 0.90519 0.682 0.96276 0.0
C2671 C 0.90049 0.64377 0.97614 0.0
N2672 N 0.93895 0.69764 0.98345 0.0
N2673 N 0.86856 0.62829 0.94968 0.0
H2674 H 0.90858 0.62436 -0.00221 0.0
H2675 H 0.88399 0.61227 0.98456 0.0
H2676 H 0.85694 0.629 0.93877 0.0
H2677 H 0.86629 0.6138 0.95139 0.0
H2678 H 0.9425 0.71211 0.97735 0.0
H2679 H 0.95061 0.69713 0.99455 0.0
H2680 H 0.91691 0.71348 0.96824 0.0
H2681 H 0.89418 0.70098 0.94895 0.0
C2682 C 0.34026 0.24179 0.97811 0.0
C2683 C 0.3581 0.26071 0.9747 0.0
C2684 C 0.37278 0.24449 0.94509 0.0
C2685 C 0.35364 0.22695 0.94312 0.0
N2686 N 0.31897 0.20828 0.95795 0.0
N2687 N 0.391 0.28047 0.95231 0.0
C2688 C 0.33738 0.22525 0.96018 0.0
C2689 C 0.37449 0.26213 0.95802 0.0
N2690 N 0.32616 0.23971 -0.00154 0.0
N2691 N 0.38914 0.24436 0.93353 0.0
H2692 H 0.39271 0.29399 0.96017 0.0
H2693 H 0.40229 0.28251 0.9375 0.0
H2694 H 0.38808 0.23155 0.9237 0.0
H2695 H 0.40384 0.25611 0.9364 0.0
H2696 H 0.31359 0.22596 0.00377 0.0
H2697 H 0.32805 0.25155 0.01206 0.0
H2698 H 0.30588 0.20699 0.9669 0.0
H2699 H 0.31672 0.19572 0.94588 0.0
C2700 C 0.77334 0.0999 0.98051 0.0
C2701 C 0.75482 0.0997 0.97783 0.0
C2702 C 0.77235 0.13228 0.95245 0.0
C2703 C 0.78938 0.12999 0.94912 0.0
N2704 N 0.80705 0.11248 0.96098 0.0
N2705 N 0.7364 0.11559 0.96021 0.0
C2706 C 0.79034 0.11428 0.96407 0.0
C2707 C 0.7543 0.11613 0.96419 0.0
N2708 N 0.77452 0.08626 -0.00139 0.0
N2709 N 0.77336 0.14969 0.94322 0.0
H2710 H 0.72271 0.10392 0.96785 0.0
H2711 H 0.73484 0.126 0.94736 0.0
H2712 H 0.7865 0.16155 0.93428 0.0
H2713 H 0.76205 0.15312 0.94712 0.0
H2714 H 0.78792 0.08654 0.00339 0.0
H2715 H 0.76228 0.07571 0.01102 0.0
H2716 H 0.80786 0.10002 0.96815 0.0
H2717 H 0.81993 0.1233 0.95004 0.0
C2718 C 0.68418 0.91783 0.04388 0.0
C2719 C 0.6648 0.91481 0.03715 0.0
C2720 C 0.64904 0.88105 0.05898 0.0
C2721 C 0.66831 0.88477 0.06788 0.0
N2722 N 0.70412 0.90344 0.062 0.0
N2723 N 0.62935 0.89211 0.03065 0.0
C2724 C 0.68587 0.90206 0.05768 0.0
C2725 C 0.64739 0.89581 0.04202 0.0
N2726 N 0.70082 0.93616 0.03871 0.0
N2727 N 0.63233 0.86394 0.06844 0.0
H2728 H 0.62781 0.90277 0.01832 0.0
H2729 H 0.61631 0.87811 0.03128 0.0
H2730 H 0.63323 0.85255 0.07971 0.0
H2731 H 0.61772 0.86127 0.06606 0.0
H2732 H 0.71518 0.94018 0.04612 0.0
H2733 H 0.70013 0.94785 0.02803 0.0
H2734 H 0.71756 0.91489 0.05334 0.0
H2735 H 0.70547 0.89197 0.07221 0.0
C2736 C 0.12056 0.74834 0.06334 0.0
C2737 C 0.10832 0.75039 0.04147 0.0
C2738 C 0.12577 0.78683 0.05011 0.0
C2739 C 0.13735 0.78455 0.07269 0.0
N2740 N 0.15063 0.76499 0.09393 0.0
N2741 N 0.10326 0.77191 0.008 0.0
C2742 C 0.1365 0.76589 0.0766 0.0
C2743 C 0.11236 0.76983 0.03276 0.0
N2744 N 0.11601 0.72971 0.07327 0.0
N2745 N 0.12671 0.80493 0.04654 0.0
H2746 H 0.0935 0.75966 0.99485 0.0
H2747 H 0.10677 0.78577 -0.001 0.0
H2748 H 0.13693 0.81779 0.05817 0.0
H2749 H 0.11684 0.807 0.03313 0.0
H2750 H 0.123 0.72746 0.09151 0.0
H2751 H 0.10416 0.71638 0.06493 0.0
H2752 H 0.15195 0.75219 0.09582 0.0
H2753 H 0.1623 0.77778 0.10397 0.0
C2754 C 0.25198 0.34764 0.02935 0.0
C2755 C 0.27123 0.36303 0.03888 0.0
C2756 C 0.255 0.37541 0.07305 0.0
C2757 C 0.23646 0.35752 0.06851 0.0
N2758 N 0.21661 0.3267 0.0416 0.0
N2759 N 0.29125 0.39138 0.07113 0.0
C2760 C 0.23464 0.34386 0.04591 0.0
C2761 C 0.27283 0.37722 0.06059 0.0
N2762 N 0.25041 0.33663 0.0046 0.0
N2763 N 0.25549 0.39027 0.0903 0.0
H2764 H 0.30475 0.39301 0.06333 0.0
H2765 H 0.29315 0.40056 0.08932 0.0
H2766 H 0.24248 0.38897 0.09977 0.0
H2767 H 0.2682 0.40443 0.09267 0.0
H2768 H 0.23673 0.32629 0.99505 0.0
H2769 H 0.26291 0.33927 0.99202 0.0
H2770 H 0.2148 0.31487 0.02816 0.0
H2771 H 0.20354 0.32398 0.05262 0.0
C2772 C 0.77269 0.67524 0.37186 0.0
C2773 C 0.77289 0.69378 0.37353 0.0
C2774 C 0.80426 0.70872 0.40214 0.0
C2775 C 0.80281 0.6896 0.40323 0.0
N2776 N 0.78974 0.65649 0.38302 0.0
N2777 N 0.79103 0.72939 0.38292 0.0
C2778 C 0.78845 0.67351 0.38566 0.0
C2779 C 0.78957 0.71102 0.38604 0.0
N2780 N 0.75689 0.65911 0.35839 0.0
N2781 N 0.81899 0.72422 0.41814 0.0
H2782 H 0.7803 0.73136 0.37156 0.0
H2783 H 0.80343 0.74287 0.38959 0.0
H2784 H 0.83038 0.723 0.42889 0.0
H2785 H 0.81978 0.73799 0.42145 0.0
H2786 H 0.75452 0.64455 0.35903 0.0
H2787 H 0.7456 0.6602 0.34711 0.0
H2788 H 0.78063 0.6445 0.36915 0.0
H2789 H 0.80121 0.6551 0.39313 0.0
C2790 C 0.31709 0.09025 0.37452 0.0
C2791 C 0.33474 0.08912 0.36974 0.0
C2792 C 0.35533 0.1231 0.39011 0.0
C2793 C 0.33755 0.12242 0.40017 0.0
N2794 N 0.30155 0.1069 0.40009 0.0
N2795 N 0.37081 0.10473 0.36988 0.0
C2796 C 0.31842 0.10666 0.39108 0.0
C2797 C 0.35398 0.10586 0.37603 0.0
N2798 N 0.29911 0.07539 0.36369 0.0
N2799 N 0.37341 0.14013 0.39483 0.0
H2800 H 0.37024 0.09261 0.35853 0.0
H2801 H 0.38524 0.11538 0.37664 0.0
H2802 H 0.37446 0.15279 0.40515 0.0
H2803 H 0.38704 0.1424 0.38663 0.0
H2804 H 0.28582 0.07586 0.36436 0.0
H2805 H 0.29777 0.06309 0.35188 0.0
H2806 H 0.28699 0.0949 0.39754 0.0
H2807 H 0.30225 0.1192 0.41106 0.0
C2808 C 0.91703 0.25036 0.37764 0.0
C2809 C 0.93373 0.2477 0.37168 0.0
C2810 C 0.91607 0.2143 0.39487 0.0
C2811 C 0.89988 0.21743 0.4019 0.0
N2812 N 0.8819 0.23484 0.39203 0.0
N2813 N 0.94674 0.22512 0.36657 0.0
C2814 C 0.8993 0.2342 0.39015 0.0
C2815 C 0.93238 0.2289 0.37755 0.0
N2816 N 0.91861 0.26873 0.37365 0.0
N2817 N 0.91635 0.19796 0.40626 0.0
H2818 H 0.95872 0.23553 0.35362 0.0
H2819 H 0.94581 0.21116 0.36796 0.0
H2820 H 0.9042 0.18669 0.41796 0.0
H2821 H 0.9288 0.19602 0.40519 0.0
H2822 H 0.90777 0.27213 0.38084 0.0
H2823 H 0.93143 0.28117 0.36523 0.0
H2824 H 0.87984 0.24583 0.38177 0.0
H2825 H 0.86885 0.22313 0.40143 0.0
C2826 C 0.01509 0.43848 0.31472 0.0
C2827 C 0.03228 0.43657 0.30969 0.0
C2828 C 0.04716 0.46723 0.27944 0.0
C2829 C 0.02835 0.46639 0.27915 0.0
N2830 N 0.99469 0.45258 0.29783 0.0
N2831 N 0.0652 0.4493 0.28803 0.0
C2832 C 0.01254 0.45272 0.29784 0.0
C2833 C 0.04873 0.45131 0.29288 0.0
N2834 N 1.00121 0.42649 0.33537 0.0
N2835 N 0.06324 0.483 0.26594 0.0
H2836 H 0.06699 0.43797 0.29771 0.0
H2837 H 0.07663 0.45816 0.27318 0.0
H2838 H 0.06212 0.49464 0.25587 0.0
H2839 H 0.07785 0.48551 0.26708 0.0
H2840 H 0.98908 0.42808 0.34188 0.0
H2841 H 1.00285 0.41596 0.34792 0.0
H2842 H 0.98166 0.44147 0.30795 0.0
H2843 H 0.99281 0.46341 0.28662 0.0
C2844 C 0.59124 0.57868 0.29816 0.0
C2845 C 0.58743 0.59393 0.30854 0.0
C2846 C 0.55256 0.57453 0.29089 0.0
C2847 C 0.55675 0.55989 0.2792 0.0
N2848 N 0.57727 0.54453 0.2796 0.0
N2849 N 0.56332 0.60371 0.32274 0.0
C2850 C 0.57514 0.56074 0.28593 0.0
C2851 C 0.56762 0.59089 0.30764 0.0
N2852 N 0.61042 0.5819 0.29788 0.0
N2853 N 0.53468 0.57342 0.28435 0.0
H2854 H 0.57409 0.61573 0.33527 0.0
H2855 H 0.54884 0.60141 0.32508 0.0
H2856 H 0.52311 0.56118 0.27319 0.0
H2857 H 0.5316 0.5849 0.28886 0.0
H2858 H 0.61444 0.57233 0.28747 0.0
H2859 H 0.62272 0.59491 0.3062 0.0
H2860 H 0.58968 0.54338 0.28603 0.0
H2861 H 0.56557 0.53137 0.2704 0.0
C2862 C 0.4399 0.01591 0.29826 0.0
C2863 C 0.42537 0.99707 0.31041 0.0
C2864 C 0.44498 0.98184 0.29296 0.0
C2865 C 0.45888 1.00039 0.27963 0.0
N2866 N 0.47341 0.03618 0.27753 0.0
N2867 N 0.41701 0.96401 0.32709 0.0
C2868 C 0.4577 0.01785 0.28542 0.0
C2869 C 0.42898 0.98067 0.31045 0.0
N2870 N 0.43606 0.03144 0.29684 0.0
N2871 N 0.44638 0.96512 0.28732 0.0
H2872 H 0.40528 0.96289 0.34019 0.0
H2873 H 0.41981 0.9522 0.33007 0.0
H2874 H 0.45839 0.96575 0.27559 0.0
H2875 H 0.43532 0.95062 0.29315 0.0
H2876 H 0.44504 0.04468 0.28518 0.0
H2877 H 0.42307 0.03062 0.30539 0.0
H2878 H 0.47433 0.04976 0.28319 0.0
H2879 H 0.48645 0.03771 0.26783 0.0
C2880 C 0.56855 0.97101 0.28825 0.0
C2881 C 0.58106 0.98583 0.30934 0.0
C2882 C 0.56378 1.0048 0.29943 0.0
C2883 C 0.55198 0.99043 0.27752 0.0
N2884 N 0.53827 0.95704 0.25808 0.0
N2885 N 0.58664 0.0133 0.34129 0.0
C2886 C 0.55261 0.97243 0.2747 0.0
C2887 C 0.57725 1.00153 0.31712 0.0
N2888 N 0.57285 0.95657 0.27928 0.0
N2889 N 0.56299 0.0221 0.302 0.0
H2890 H 0.59646 0.01105 0.35466 0.0
H2891 H 0.58333 0.02394 0.34964 0.0
H2892 H 0.55274 0.02452 0.2901 0.0
H2893 H 0.573 0.03432 0.31485 0.0
H2894 H 0.56566 0.94689 0.26153 0.0
H2895 H 0.58468 0.95518 0.28791 0.0
H2896 H 0.53681 0.94283 0.257 0.0
H2897 H 0.5266 0.95802 0.24781 0.0
C2898 C 1.0035 0.57871 0.29622 0.0
C2899 C 0.02257 0.594 0.30663 0.0
C2900 C 0.03799 0.57445 0.28979 0.0
C2901 C 0.0192 0.55984 0.27792 0.0
N2902 N 0.98329 0.54443 0.27816 0.0
N2903 N 0.05633 0.6037 0.32157 0.0
C2904 C 1.00164 0.56069 0.28443 0.0
C2905 C 0.03928 0.59087 0.30628 0.0
N2906 N 0.98758 0.58198 0.29535 0.0
N2907 N 0.05478 0.57328 0.28363 0.0
H2908 H 0.05753 0.61575 0.33393 0.0
H2909 H 0.06847 0.60138 0.32423 0.0
H2910 H 0.05409 0.56099 0.27264 0.0
H2911 H 0.06934 0.58473 0.2883 0.0
H2912 H 0.97402 0.57233 0.28486 0.0
H2913 H 0.98829 0.59507 0.30322 0.0
H2914 H 0.96972 0.54331 0.28443 0.0
H2915 H 0.98185 0.53123 0.26921 0.0
C2916 C 0.44007 0.44363 0.32222 0.0
C2917 C 0.42094 0.44165 0.31732 0.0
C2918 C 0.43659 0.47029 0.28312 0.0
C2919 C 0.45344 0.46749 0.28094 0.0
N2920 N 0.4724 0.45283 0.3008 0.0
N2921 N 0.40667 0.46298 0.31117 0.0
C2922 C 0.45571 0.45478 0.30152 0.0
C2923 C 0.42087 0.45815 0.3033 0.0
N2924 N 0.44426 0.43801 0.34874 0.0
N2925 N 0.43513 0.48368 0.26484 0.0
H2926 H 0.39622 0.45511 0.32792 0.0
H2927 H 0.40665 0.47579 0.30364 0.0
H2928 H 0.44679 0.49329 0.25071 0.0
H2929 H 0.42212 0.48464 0.26292 0.0
H2930 H 0.45851 0.44047 0.35424 0.0
H2931 H 0.43441 0.43417 0.3667 0.0
H2932 H 0.47362 0.44209 0.31338 0.0
H2933 H 0.48449 0.4613 0.28661 0.0
C2934 C 0.31012 0.23021 0.3803 0.0
C2935 C 0.32773 0.24791 0.37094 0.0
C2936 C 0.34808 0.23285 0.38531 0.0
C2937 C 0.33125 0.21747 0.40044 0.0
N2938 N 0.29589 0.20018 0.41108 0.0
N2939 N 0.36372 0.26627 0.36391 0.0
C2940 C 0.31202 0.21549 0.39693 0.0
C2941 C 0.34676 0.24909 0.37254 0.0
N2942 N 0.29167 0.22772 0.37345 0.0
N2943 N 0.36546 0.2321 0.38416 0.0
H2944 H 0.36339 0.27846 0.35435 0.0
H2945 H 0.37823 0.26899 0.36779 0.0
H2946 H 0.3666 0.22032 0.39368 0.0
H2947 H 0.37792 0.24192 0.37156 0.0
H2948 H 0.27818 0.21455 0.37759 0.0
H2949 H 0.28999 0.23831 0.36118 0.0
H2950 H 0.28187 0.19911 0.41263 0.0
H2951 H 0.29687 0.18879 0.42225 0.0
C2952 C 0.76551 0.10361 0.37807 0.0
C2953 C 0.7689 0.08775 0.36956 0.0
C2954 C 0.80318 0.10623 0.38955 0.0
C2955 C 0.79918 0.12124 0.40019 0.0
N2956 N 0.77969 0.13765 0.39737 0.0
N2957 N 0.79223 0.0763 0.35925 0.0
C2958 C 0.7814 0.12112 0.39163 0.0
C2959 C 0.78828 0.08995 0.37251 0.0
N2960 N 0.74679 0.10135 0.37497 0.0
N2961 N 0.82069 0.10693 0.39748 0.0
H2962 H 0.78147 0.06423 0.34676 0.0
H2963 H 0.80645 0.07779 0.35844 0.0
H2964 H 0.83215 0.11913 0.40885 0.0
H2965 H 0.82361 0.09526 0.39378 0.0
H2966 H 0.74267 0.11127 0.38382 0.0
H2967 H 0.73493 0.0889 0.36466 0.0
H2968 H 0.76782 0.13937 0.3899 0.0
H2969 H 0.79127 0.1505 0.40743 0.0
C2970 C 0.92937 0.70382 0.37545 0.0
C2971 C 0.93116 0.68654 0.37076 0.0
C2972 C 0.89723 0.66525 0.3908 0.0
C2973 C 0.89739 0.68271 0.40115 0.0
N2974 N 0.91242 0.71867 0.40196 0.0
N2975 N 0.91671 0.65054 0.37255 0.0
C2976 C 0.9129 0.70204 0.39238 0.0
C2977 C 0.91483 0.66708 0.37734 0.0
N2978 N 0.94359 0.72188 0.36398 0.0
N2979 N 0.88034 0.64696 0.39476 0.0
H2980 H 0.92924 0.65129 0.36229 0.0
H2981 H 0.90637 0.63618 0.37998 0.0
H2982 H 0.86742 0.64553 0.40476 0.0
H2983 H 0.87844 0.6336 0.38591 0.0
H2984 H 0.94248 0.73482 0.36452 0.0
H2985 H 0.95579 0.72347 0.35161 0.0
H2986 H 0.92435 0.7333 0.39966 0.0
H2987 H 0.9001 0.71768 0.41326 0.0
C2988 C 0.45427 0.03391 0.70301 0.0
C2989 C 0.43417 0.01761 0.70289 0.0
C2990 C 0.44561 0.99632 0.72651 0.0
C2991 C 0.46435 0.01362 0.73263 0.0
N2992 N 0.48726 0.04899 0.72607 0.0
N2993 N 0.41032 0.98315 0.71602 0.0
C2994 C 0.46908 0.0324 0.72008 0.0
C2995 C 0.42977 0.99858 0.71439 0.0
N2996 N 0.4591 0.05078 0.68686 0.0
N2997 N 0.44289 0.97783 0.73347 0.0
H2998 H 0.39811 0.98422 0.70827 0.0
H2999 H 0.40607 0.96976 0.72724 0.0
H3000 H 0.4544 0.97607 0.74265 0.0
H3001 H 0.43014 0.96439 0.72748 0.0
H3002 H 0.47378 0.06254 0.684 0.0
H3003 H 0.44853 0.05215 0.674 0.0
H3004 H 0.49075 0.06359 0.72086 0.0
H3005 H 0.49863 0.04814 0.73751 0.0
C3006 C 0.9736 0.41492 0.72108 0.0
C3007 C 0.99045 0.41589 0.70652 0.0
C3008 C 1.01026 0.45211 0.71669 0.0
C3009 C 0.99484 0.45019 0.73596 0.0
N3010 N 0.96111 0.43113 0.75449 0.0
N3011 N 0.02408 0.43528 0.6873 0.0
C3012 C 0.97605 0.43208 0.73688 0.0
C3013 C 1.00846 0.43459 0.70285 0.0
N3014 N 0.95547 0.39746 0.72024 0.0
N3015 N 0.02676 0.47066 0.71243 0.0
H3016 H 0.02281 0.42286 0.6759 0.0
H3017 H 0.03842 0.44783 0.68619 0.0
H3018 H 0.02818 0.48354 0.72249 0.0
H3019 H 0.03822 0.47365 0.69741 0.0
H3020 H 0.94216 0.396 0.72846 0.0
H3021 H 0.95341 0.38458 0.70937 0.0
H3022 H 0.94777 0.41797 0.75926 0.0
H3023 H 0.96237 0.44381 0.76505 0.0
C3024 C 0.60283 0.56388 0.72247 0.0
C3025 C 0.60219 0.57906 0.70525 0.0
C3026 C 0.56588 0.56332 0.71385 0.0
C3027 C 0.56687 0.5491 0.73276 0.0
N3028 N 0.58403 0.53172 0.74782 0.0
N3029 N 0.58269 0.59006 0.67745 0.0
C3030 C 0.58463 0.54791 0.73424 0.0
C3031 C 0.58348 0.57762 0.69845 0.0
N3032 N 0.62092 0.5655 0.72934 0.0
N3033 N 0.5484 0.56386 0.71219 0.0
H3034 H 0.59542 0.60061 0.6659 0.0
H3035 H 0.56936 0.58882 0.66967 0.0
H3036 H 0.53514 0.55297 0.72225 0.0
H3037 H 0.54718 0.57532 0.70186 0.0
H3038 H 0.62258 0.55625 0.74459 0.0
H3039 H 0.63458 0.57691 0.72112 0.0
H3040 H 0.59597 0.52895 0.74778 0.0
H3041 H 0.57075 0.52003 0.75672 0.0
C3042 C 0.67838 0.76972 0.64633 0.0
C3043 C 0.69651 0.76918 0.64342 0.0
C3044 C 0.71114 0.79973 0.61288 0.0
C3045 C 0.6923 0.79893 0.61313 0.0
N3046 N 0.65999 0.7872 0.63555 0.0
N3047 N 0.73162 0.78585 0.63044 0.0
C3048 C 0.67664 0.78533 0.63203 0.0
C3049 C 0.71348 0.78509 0.62906 0.0
N3050 N 0.66263 0.75475 0.66167 0.0
N3051 N 0.72628 0.81382 0.59561 0.0
H3052 H 0.73362 0.77506 0.64151 0.0
H3053 H 0.74501 0.79772 0.62241 0.0
H3054 H 0.7251 0.82522 0.58483 0.0
H3055 H 0.73972 0.81411 0.59134 0.0
H3056 H 0.64824 0.75284 0.66226 0.0
H3057 H 0.66384 0.74371 0.67344 0.0
H3058 H 0.64835 0.77868 0.65028 0.0
H3059 H 0.65857 0.79857 0.62515 0.0
C3060 C 0.25328 0.90811 0.64251 0.0
C3061 C 0.25174 0.92572 0.64421 0.0
C3062 C 0.21839 0.90763 0.62109 0.0
C3063 C 0.22206 0.89188 0.61357 0.0
N3064 N 0.24185 0.87582 0.61848 0.0
N3065 N 0.23275 0.94253 0.63561 0.0
C3066 C 0.23897 0.89151 0.62533 0.0
C3067 C 0.23402 0.92542 0.63435 0.0
N3068 N 0.26856 0.90749 0.65707 0.0
N3069 N 0.20014 0.90568 0.61456 0.0
H3070 H 0.24378 0.95583 0.64531 0.0
H3071 H 0.22134 0.94397 0.62551 0.0
H3072 H 0.18863 0.89275 0.60459 0.0
H3073 H 0.19576 0.91584 0.62148 0.0
H3074 H 0.26979 0.89463 0.65865 0.0
H3075 H 0.27914 0.9195 0.66982 0.0
H3076 H 0.25501 0.87561 0.62317 0.0
H3077 H 0.23109 0.86316 0.60702 0.0
C3078 C 0.10694 0.34508 0.64402 0.0
C3079 C 0.08896 0.32611 0.64515 0.0
C3080 C 0.10556 0.3104 0.61887 0.0
C3081 C 0.12264 0.32972 0.61468 0.0
N3082 N 0.14205 0.36443 0.62858 0.0
N3083 N 0.07213 0.29007 0.63993 0.0
C3084 C 0.12417 0.34672 0.62939 0.0
C3085 C 0.0887 0.30849 0.63491 0.0
N3086 N 0.10714 0.36153 0.65599 0.0
N3087 N 0.10518 0.29416 0.60574 0.0
H3088 H 0.05929 0.28824 0.65064 0.0
H3089 H 0.0713 0.27645 0.63511 0.0
H3090 H 0.11774 0.29517 0.59516 0.0
H3091 H 0.0926 0.27985 0.60472 0.0
H3092 H 0.11896 0.37621 0.65385 0.0
H3093 H 0.09504 0.36051 0.66801 0.0
H3094 H 0.14488 0.37743 0.63974 0.0
H3095 H 0.15472 0.36568 0.61803 0.0
C3096 C 0.24148 0.33424 0.65667 0.0
C3097 C 0.24247 0.31644 0.65285 0.0
C3098 C 0.21346 0.30349 0.61953 0.0
C3099 C 0.21695 0.32334 0.61621 0.0
N3100 N 0.23255 0.35741 0.6345 0.0
N3101 N 0.21848 0.28104 0.65146 0.0
C3102 C 0.23015 0.3386 0.63609 0.0
C3103 C 0.22514 0.29984 0.64042 0.0
N3104 N 0.24905 0.34539 0.68186 0.0
N3105 N 0.19968 0.28836 0.60198 0.0
H3106 H 0.22536 0.27872 0.66988 0.0
H3107 H 0.20496 0.26854 0.645 0.0
H3108 H 0.19037 0.29042 0.58723 0.0
H3109 H 0.19824 0.27414 0.60129 0.0
H3110 H 0.24726 0.35762 0.68706 0.0
H3111 H 0.25474 0.34058 0.69911 0.0
H3112 H 0.24368 0.3696 0.64629 0.0
H3113 H 0.22397 0.3609 0.62035 0.0
C3114 C 0.70547 0.92471 0.64436 0.0
C3115 C 0.68832 0.92696 0.64722 0.0
C3116 C 0.66736 0.89366 0.62497 0.0
C3117 C 0.68501 0.89351 0.6165 0.0
N3118 N 0.72081 0.90764 0.61953 0.0
N3119 N 0.65261 0.91346 0.64167 0.0
C3120 C 0.70404 0.90844 0.6273 0.0
C3121 C 0.66904 0.91115 0.6386 0.0
N3122 N 0.72309 0.93832 0.6577 0.0
N3123 N 0.64907 0.87719 0.61906 0.0
H3124 H 0.65324 0.92589 0.65205 0.0
H3125 H 0.63855 0.90359 0.63272 0.0
H3126 H 0.64775 0.86435 0.60892 0.0
H3127 H 0.63547 0.87549 0.62644 0.0
H3128 H 0.7358 0.93681 0.65853 0.0
H3129 H 0.72443 0.95038 0.67021 0.0
H3130 H 0.73544 0.91922 0.62339 0.0
H3131 H 0.72 0.89541 0.60816 0.0
C3132 C 0.10554 0.77394 0.64982 0.0
C3133 C 0.08604 0.76992 0.64152 0.0
C3134 C 0.1012 0.79772 0.60582 0.0
C3135 C 0.11986 0.79849 0.60934 0.0
N3136 N 0.14041 0.78784 0.63507 0.0
N3137 N 0.06506 0.77733 0.60988 0.0
C3138 C 0.12235 0.78706 0.63194 0.0
C3139 C 0.08378 0.78194 0.61952 0.0
N3140 N 0.10787 0.7651 0.67468 0.0
N3141 N 0.10017 0.81175 0.58847 0.0
H3142 H 0.0518 0.76554 0.61849 0.0
H3143 H 0.06267 0.78416 0.59157 0.0
H3144 H 0.11286 0.82333 0.57811 0.0
H3145 H 0.08738 0.81311 0.58687 0.0
H3146 H 0.12184 0.76865 0.68336 0.0
H3147 H 0.09578 0.75555 0.6882 0.0
H3148 H 0.14253 0.77804 0.64853 0.0
H3149 H 0.15314 0.7978 0.623 0.0
C3150 C 0.01719 0.5843 0.7083 0.0
C3151 C 0.9979 0.58184 0.7027 0.0
C3152 C 0.98177 0.54822 0.72498 0.0
C3153 C 1.00102 0.55156 0.73325 0.0
N3154 N 0.03674 0.5694 0.72618 0.0
N3155 N 0.96214 0.56001 0.69811 0.0
C3156 C 0.01865 0.56846 0.72231 0.0
C3157 C 0.98026 0.56317 0.70832 0.0
N3158 N 0.03399 0.6022 0.70169 0.0
N3159 N 0.96502 0.5313 0.73483 0.0
H3160 H 0.9607 0.57086 0.68616 0.0
H3161 H 0.94882 0.54629 0.69941 0.0
H3162 H 0.96584 0.51979 0.74588 0.0
H3163 H 0.95046 0.52883 0.73288 0.0
H3164 H 0.04848 0.60595 0.70805 0.0
H3165 H 0.03336 0.61376 0.69051 0.0
H3166 H 0.05021 0.58057 0.7172 0.0
H3167 H 0.03789 0.55785 0.73649 0.0
C3168 C 0.45244 0.42323 0.70138 0.0
C3169 C 0.43359 0.42206 0.69721 0.0
C3170 C 0.44702 0.45575 0.71857 0.0
C3171 C 0.46416 0.45498 0.72817 0.0
N3172 N 0.48479 0.43968 0.72666 0.0
N3173 N 0.41309 0.43757 0.69845 0.0
C3174 C 0.46759 0.43945 0.7182 0.0
C3175 C 0.43109 0.43868 0.70419 0.0
N3176 N 0.45555 0.40857 0.68977 0.0
N3177 N 0.44596 0.47268 0.72408 0.0
H3178 H 0.40153 0.42557 0.68687 0.0
H3179 H 0.4093 0.4481 0.70568 0.0
H3180 H 0.4576 0.48521 0.73463 0.0
H3181 H 0.43453 0.475 0.71631 0.0
H3182 H 0.46933 0.40907 0.69008 0.0
H3183 H 0.44456 0.39647 0.67765 0.0
H3184 H 0.48743 0.4278 0.7234 0.0
H3185 H 0.49641 0.45186 0.73785 0.0
C3186 C 0.58321 0.01411 0.69615 0.0
C3187 C 0.6026 0.02951 0.7051 0.0
C3188 C 0.58695 0.0423 0.73968 0.0
C3189 C 0.56828 0.02446 0.73561 0.0
N3190 N 0.54797 0.99346 0.70933 0.0
N3191 N 0.62317 0.0581 0.73664 0.0
C3192 C 0.5661 0.01059 0.71312 0.0
C3193 C 0.60457 0.04391 0.72671 0.0
N3194 N 0.58127 1.00286 0.67154 0.0
N3195 N 0.58777 0.05732 0.75691 0.0
H3196 H 0.63652 0.05962 0.72837 0.0
H3197 H 0.62539 0.06744 0.75474 0.0
H3198 H 0.57492 0.05618 0.76671 0.0
H3199 H 0.60057 0.07145 0.75896 0.0
H3200 H 0.56746 0.9925 0.66236 0.0
H3201 H 0.5936 1.00528 0.6587 0.0
H3202 H 0.54593 0.98149 0.69601 0.0
H3203 H 0.53505 0.99089 0.72065 0.0
loop_
_geom_bond_atom_site_label_1
_geom_bond_atom_site_label_2
_geom_bond_distance
_geom_bond_site_symmetry_2
_ccdc_geom_bond_type
Li0 N17 1.990 1_554 S
Li0 O60 1.956 . S
Li0 O61 1.970 1_654 S
Li0 O62 1.961 . S
Li1 N25 1.990 . S
Li1 O60 1.970 1_455 S
Li1 O61 1.956 1_554 S
Li1 O63 1.961 . S
Li2 N47 1.990 . S
Li2 O60 1.961 . S
Li2 O62 1.956 . S
Li2 O63 1.970 1_655 S
Li3 N53 1.990 . S
Li3 O61 1.961 . S
Li3 O62 1.970 1_456 S
Li3 O63 1.956 1_556 S
C4 C6 1.348 1_655 S
C4 C7 1.356 . S
C4 O60 1.325 . S
N5 C8 1.314 . S
N5 C9 1.279 . S
C6 C4 1.348 1_455 S
C6 C8 1.353 1_455 S
C6 H64 0.929 . S
C7 C4 1.356 . S
C7 C9 1.358 . S
C7 H65 0.930 . S
C8 N5 1.314 . S
C8 C6 1.353 1_655 S
C8 H66 0.930 1_655 S
C9 N5 1.279 . S
C9 C7 1.358 . S
C9 H67 0.930 . S
C10 C13 1.348 1_455 S
C10 C14 1.356 . S
C10 O61 1.325 . S
C11 N12 1.279 . S
C11 C14 1.358 . S
C11 H68 0.930 . S
N12 C11 1.279 . S
N12 C15 1.314 . S
C13 C10 1.348 1_655 S
C13 C15 1.338 1_655 S
C13 H69 0.945 . S
C14 C10 1.356 . S
C14 C11 1.358 . S
C14 H70 0.930 . S
C15 N12 1.314 . S
C15 C13 1.338 1_455 S
C15 H71 0.930 1_455 S
C16 N17 1.314 . S
C16 C21 1.353 . S
C16 H22 0.930 . S
N17 Li0 1.990 1_556 S
N17 C16 1.314 . S
N17 C19 1.279 1_556 S
C18 C19 1.358 . S
C18 C20 1.356 1_554 S
C18 H72 0.930 . S
C19 N17 1.279 1_554 S
C19 C18 1.358 . S
C19 H23 0.930 . S
C20 C18 1.356 1_556 S
C20 C21 1.348 . S
C21 C16 1.353 . S
C21 C20 1.348 . S
C21 H73 0.929 . S
H22 C16 0.930 . S
H23 C19 0.930 . S
C24 N25 1.314 . S
C24 C26 1.353 . S
C24 H30 0.930 . S
N25 Li1 1.990 . S
N25 C24 1.314 . S
N25 C28 1.279 . S
C26 C24 1.353 . S
C26 C29 1.348 . S
C26 H74 0.929 . S
C27 C28 1.358 . S
C27 C29 1.356 . S
C27 H75 0.944 . S
C28 N25 1.279 . S
C28 C27 1.358 . S
C28 H31 0.930 1_554 S
C29 C26 1.348 . S
C29 C27 1.356 . S
H30 C24 0.930 . S
H31 C28 0.930 1_556 S
C32 C34 1.348 . S
C32 C35 1.356 1_556 S
C32 O62 1.325 1_556 S
N33 C36 1.314 . S
N33 C37 1.279 1_556 S
C34 C32 1.348 . S
C34 C36 1.353 . S
C34 H76 0.929 . S
C35 C32 1.356 1_554 S
C35 C37 1.358 . S
C35 H77 0.930 . S
C36 N33 1.314 . S
C36 C34 1.353 . S
C36 H78 0.930 . S
C37 N33 1.279 1_554 S
C37 C35 1.358 . S
C37 H79 0.930 . S
C38 C39 1.348 . S
C38 C40 1.356 . S
C38 O63 1.325 . S
C39 C38 1.348 . S
C39 C41 1.353 . S
C39 H80 0.929 . S
C40 C38 1.356 . S
C40 C42 1.358 . S
C40 H81 0.930 1_554 S
C41 C39 1.353 . S
C41 N43 1.314 . S
C41 H82 0.930 . S
C42 C40 1.358 . S
C42 N43 1.279 . S
C42 H83 0.930 . S
N43 C41 1.314 . S
N43 C42 1.279 . S
C44 C46 1.353 . S
C44 N47 1.314 . S
C44 H50 0.930 1_655 S
C45 N47 1.279 . S
C45 C48 1.358 . S
C45 H51 0.930 . S
C46 C44 1.353 . S
C46 C49 1.348 . S
C46 H84 0.965 . S
N47 Li2 1.990 . S
N47 C44 1.314 . S
N47 C45 1.279 . S
C48 C45 1.358 . S
C48 C49 1.356 . S
C48 H85 0.930 . S
C49 C46 1.348 . S
C49 C48 1.356 . S
H50 C44 0.930 1_455 S
H51 C45 0.930 . S
C52 N53 1.314 . S
C52 C54 1.353 . S
C52 H58 0.930 1_455 S
N53 Li3 1.990 . S
N53 C52 1.314 . S
N53 C56 1.279 . S
C54 C52 1.353 . S
C54 C57 1.348 . S
C54 H86 0.929 . S
C55 C56 1.358 . S
C55 C57 1.356 . S
C55 H87 0.930 . S
C56 N53 1.279 . S
C56 C55 1.358 . S
C56 H59 0.930 . S
C57 C54 1.348 . S
C57 C55 1.356 . S
H58 C52 0.930 1_655 S
H59 C56 0.930 . S
O60 Li0 1.956 . S
O60 Li1 1.970 1_655 S
O60 Li2 1.961 . S
O60 C4 1.325 . S
O61 Li0 1.970 1_456 S
O61 Li1 1.956 1_556 S
O61 Li3 1.961 . S
O61 C10 1.325 . S
O62 Li0 1.961 . S
O62 Li2 1.956 . S
O62 Li3 1.970 1_654 S
O62 C32 1.325 1_554 S
O63 Li1 1.961 . S
O63 Li2 1.970 1_455 S
O63 Li3 1.956 1_554 S
O63 C38 1.325 . S
H64 C6 0.929 . S
H65 C7 0.930 . S
H66 C8 0.930 1_455 S
H67 C9 0.930 . S
H68 C11 0.930 . S
H69 C13 0.945 . S
H70 C14 0.930 . S
H71 C15 0.930 1_655 S
H72 C18 0.930 . S
H73 C21 0.929 . S
H74 C26 0.929 . S
H75 C27 0.944 . S
H76 C34 0.929 . S
H77 C35 0.930 . S
H78 C36 0.930 . S
H79 C37 0.930 . S
H80 C39 0.929 . S
H81 C40 0.930 1_556 S
H82 C41 0.930 . S
H83 C42 0.930 . S
H84 C46 0.965 . S
H85 C48 0.930 . S
H86 C54 0.929 . S
H87 C55 0.930 . S
Li88 N105 1.990 1_554 S
Li88 O148 1.956 . S
Li88 O149 1.970 1_554 S
Li88 O150 1.961 1_554 S
Li89 N113 1.990 . S
Li89 O148 1.970 . S
Li89 O149 1.956 1_554 S
Li89 O151 1.961 . S
Li90 N135 1.990 . S
Li90 O148 1.961 . S
Li90 O150 1.956 1_554 S
Li90 O151 1.970 . S
Li91 N141 1.990 . S
Li91 O149 1.961 . S
Li91 O150 1.970 . S
Li91 O151 1.956 1_556 S
C92 C94 1.348 . S
C92 C95 1.356 . S
C92 O148 1.325 . S
N93 C96 1.314 . S
N93 C97 1.279 . S
C94 C92 1.348 . S
C94 C96 1.353 . S
C94 H152 0.929 . S
C95 C92 1.356 . S
C95 C97 1.358 . S
C95 H153 0.930 . S
C96 N93 1.314 . S
C96 C94 1.353 . S
C96 H154 0.930 . S
C97 N93 1.279 . S
C97 C95 1.358 . S
C97 H155 0.930 . S
C98 C101 1.348 . S
C98 C102 1.356 . S
C98 O149 1.325 . S
C99 N100 1.279 . S
C99 C102 1.358 . S
C99 H156 0.930 . S
N100 C99 1.279 . S
N100 C103 1.314 . S
C101 C98 1.348 . S
C101 C103 1.353 . S
C101 H157 0.929 . S
C102 C98 1.356 . S
C102 C99 1.358 . S
C102 H158 0.930 . S
C103 N100 1.314 . S
C103 C101 1.353 . S
C103 H159 0.930 . S
C104 N105 1.314 . S
C104 C109 1.353 . S
C104 H110 0.930 . S
N105 Li88 1.990 1_556 S
N105 C104 1.314 . S
N105 C107 1.279 1_556 S
C106 C107 1.360 . S
C106 C108 1.350 1_554 S
C106 H160 0.934 . S
C107 N105 1.279 1_554 S
C107 C106 1.360 . S
C107 H111 0.930 . S
C108 C106 1.350 1_556 S
C108 C109 1.348 . S
C109 C104 1.353 . S
C109 C108 1.348 . S
C109 H161 0.929 . S
H110 C104 0.930 . S
H111 C107 0.930 . S
C112 N113 1.314 . S
C112 C114 1.353 . S
C112 H118 0.930 . S
N113 Li89 1.990 . S
N113 C112 1.314 . S
N113 C116 1.279 . S
C114 C112 1.353 . S
C114 C117 1.348 . S
C114 H162 0.929 . S
C115 C116 1.358 . S
C115 C117 1.356 . S
C115 H163 0.930 . S
C116 N113 1.279 . S
C116 C115 1.358 . S
C116 H119 0.930 1_554 S
C117 C114 1.348 . S
C117 C115 1.356 . S
H118 C112 0.930 . S
H119 C116 0.930 1_556 S
C120 C122 1.348 . S
C120 C123 1.356 1_556 S
C120 O150 1.325 . S
N121 C124 1.314 . S
N121 C125 1.279 . S
C122 C120 1.348 . S
C122 C124 1.353 . S
C122 H164 0.929 . S
C123 C120 1.356 1_554 S
C123 C125 1.358 1_554 S
C123 H165 0.930 . S
C124 N121 1.314 . S
C124 C122 1.353 . S
C124 H166 0.930 . S
C125 N121 1.279 . S
C125 C123 1.358 1_556 S
C125 H167 0.930 1_556 S
C126 C127 1.348 . S
C126 C128 1.356 . S
C126 O151 1.325 . S
C127 C126 1.348 . S
C127 C129 1.353 . S
C127 H168 0.929 . S
C128 C126 1.356 . S
C128 C130 1.358 . S
C128 H169 0.930 . S
C129 C127 1.353 . S
C129 N131 1.314 . S
C129 H170 0.930 . S
C130 C128 1.358 . S
C130 N131 1.279 . S
C130 H171 0.930 . S
N131 C129 1.314 . S
N131 C130 1.279 . S
C132 C134 1.353 . S
C132 N135 1.314 . S
C132 H138 0.930 . S
C133 N135 1.279 . S
C133 C136 1.358 . S
C133 H139 0.930 . S
C134 C132 1.353 . S
C134 C137 1.348 . S
C134 H172 0.929 . S
N135 Li90 1.990 . S
N135 C132 1.314 . S
N135 C133 1.279 . S
C136 C133 1.358 . S
C136 C137 1.356 . S
C136 H173 0.930 . S
C137 C134 1.348 . S
C137 C136 1.356 . S
H138 C132 0.930 . S
H139 C133 0.930 . S
C140 N141 1.314 . S
C140 C142 1.353 . S
C140 H146 0.930 . S
N141 Li91 1.990 . S
N141 C140 1.314 . S
N141 C144 1.279 . S
C142 C140 1.353 . S
C142 C145 1.348 . S
C142 H174 0.929 . S
C143 C144 1.358 . S
C143 C145 1.356 . S
C143 H175 0.930 . S
C144 N141 1.279 . S
C144 C143 1.358 . S
C144 H147 0.930 . S
C145 C142 1.348 . S
C145 C143 1.356 . S
H146 C140 0.930 . S
H147 C144 0.930 . S
O148 Li88 1.956 . S
O148 Li89 1.970 . S
O148 Li90 1.961 . S
O148 C92 1.325 . S
O149 Li88 1.970 1_556 S
O149 Li89 1.956 1_556 S
O149 Li91 1.961 . S
O149 C98 1.325 . S
O150 Li88 1.961 1_556 S
O150 Li90 1.956 1_556 S
O150 Li91 1.970 . S
O150 C120 1.325 . S
O151 Li89 1.961 . S
O151 Li90 1.970 . S
O151 Li91 1.956 1_554 S
O151 C126 1.325 . S
H152 C94 0.929 . S
H153 C95 0.930 . S
H154 C96 0.930 . S
H155 C97 0.930 . S
H156 C99 0.930 . S
H157 C101 0.929 . S
H158 C102 0.930 . S
H159 C103 0.930 . S
H160 C106 0.934 . S
H161 C109 0.929 . S
H162 C114 0.929 . S
H163 C115 0.930 . S
H164 C122 0.929 . S
H165 C123 0.930 . S
H166 C124 0.930 . S
H167 C125 0.930 1_554 S
H168 C127 0.929 . S
H169 C128 0.930 . S
H170 C129 0.930 . S
H171 C130 0.930 . S
H172 C134 0.929 . S
H173 C136 0.930 . S
H174 C142 0.929 . S
H175 C143 0.930 . S
Li176 N193 1.990 . S
Li176 O236 1.956 1_556 S
Li176 O237 1.963 1_566 S
Li176 O238 1.961 . S
Li177 N201 1.990 . S
Li177 O236 1.970 1_545 S
Li177 O237 1.970 . S
Li177 O239 1.961 . S
Li178 N223 1.990 . S
Li178 O236 1.961 . S
Li178 O238 1.956 1_554 S
Li178 O239 1.970 1_565 S
Li179 N229 1.990 1_554 S
Li179 O237 1.962 . S
Li179 O238 1.970 1_544 S
Li179 O239 1.956 . S
C180 C182 1.348 . S
C180 C183 1.356 . S
C180 O236 1.325 . S
N181 C184 1.314 . S
N181 C185 1.279 . S
C182 C180 1.348 . S
C182 C184 1.353 . S
C182 H240 0.929 . S
C183 C180 1.356 . S
C183 C185 1.358 . S
C183 H241 0.930 1_554 S
C184 N181 1.314 . S
C184 C182 1.353 . S
C184 H242 0.930 . S
C185 N181 1.279 . S
C185 C183 1.358 . S
C185 H243 0.930 . S
C186 C189 1.348 . S
C186 C190 1.356 1_556 S
C186 O237 1.322 1_556 S
C187 N188 1.279 1_554 S
C187 C190 1.358 . S
C187 H244 0.930 . S
N188 C187 1.279 1_556 S
N188 C191 1.314 . S
C189 C186 1.348 . S
C189 C191 1.353 . S
C189 H245 0.929 . S
C190 C186 1.356 1_554 S
C190 C187 1.358 . S
C190 H246 0.930 . S
C191 N188 1.314 . S
C191 C189 1.353 . S
C191 H247 0.930 . S
C192 N193 1.314 . S
C192 C197 1.353 . S
C192 H198 0.930 1_565 S
N193 Li176 1.990 . S
N193 C192 1.314 . S
N193 C195 1.279 . S
C194 C195 1.358 . S
C194 C196 1.356 . S
C194 H248 0.930 . S
C195 N193 1.279 . S
C195 C194 1.358 . S
C195 H199 0.930 . S
C196 C194 1.356 . S
C196 C197 1.348 . S
C197 C192 1.353 . S
C197 C196 1.348 . S
C197 H249 0.929 . S
H198 C192 0.930 1_545 S
H199 C195 0.930 . S
C200 N201 1.314 . S
C200 C202 1.353 . S
C200 H206 0.930 1_545 S
N201 Li177 1.990 . S
N201 C200 1.314 . S
N201 C204 1.279 . S
C202 C200 1.353 . S
C202 C205 1.348 . S
C202 H250 0.929 . S
C203 C204 1.358 . S
C203 C205 1.356 . S
C203 H251 0.930 . S
C204 N201 1.279 . S
C204 C203 1.358 . S
C204 H207 0.930 . S
C205 C202 1.348 . S
C205 C203 1.356 . S
H206 C200 0.930 1_565 S
H207 C204 0.930 . S
C208 C210 1.348 1_565 S
C208 C211 1.356 . S
C208 O238 1.325 . S
N209 C212 1.314 . S
N209 C213 1.279 . S
C210 C208 1.348 1_545 S
C210 C212 1.353 1_545 S
C210 H252 0.929 . S
C211 C208 1.356 . S
C211 C213 1.358 . S
C211 H253 0.930 . S
C212 N209 1.314 . S
C212 C210 1.353 1_565 S
C212 H254 0.930 1_565 S
C213 N209 1.279 . S
C213 C211 1.358 . S
C213 H255 0.930 . S
C214 C215 1.348 1_545 S
C214 C216 1.356 . S
C214 O239 1.325 . S
C215 C214 1.348 1_565 S
C215 C217 1.341 1_565 S
C215 H256 0.942 . S
C216 C214 1.356 . S
C216 C218 1.358 . S
C216 H257 0.930 . S
C217 C215 1.341 1_545 S
C217 N219 1.314 . S
C217 H258 0.930 1_545 S
C218 C216 1.358 . S
C218 N219 1.279 . S
C218 H259 0.930 . S
N219 C217 1.314 . S
N219 C218 1.279 . S
C220 C222 1.353 . S
C220 N223 1.314 . S
C220 H226 0.930 . S
C221 N223 1.279 . S
C221 C224 1.358 . S
C221 H227 0.930 1_554 S
C222 C220 1.353 . S
C222 C225 1.348 . S
C222 H260 0.929 . S
N223 Li178 1.990 . S
N223 C220 1.314 . S
N223 C221 1.279 . S
C224 C221 1.358 . S
C224 C225 1.356 . S
C224 H261 0.907 1_554 S
C225 C222 1.348 . S
C225 C224 1.356 . S
H226 C220 0.930 . S
H227 C221 0.930 1_556 S
C228 N229 1.314 . S
C228 C230 1.353 . S
C228 H234 0.930 . S
N229 Li179 1.990 1_556 S
N229 C228 1.314 . S
N229 C232 1.279 1_556 S
C230 C228 1.353 . S
C230 C233 1.348 . S
C230 H262 0.929 . S
C231 C232 1.358 . S
C231 C233 1.356 1_554 S
C231 H263 0.930 . S
C232 N229 1.279 1_554 S
C232 C231 1.358 . S
C232 H235 0.930 . S
C233 C230 1.348 . S
C233 C231 1.356 1_556 S
H234 C228 0.930 . S
H235 C232 0.930 . S
O236 Li176 1.956 1_554 S
O236 Li177 1.970 1_565 S
O236 Li178 1.961 . S
O236 C180 1.325 . S
O237 Li176 1.963 1_544 S
O237 Li177 1.970 . S
O237 Li179 1.962 . S
O237 C186 1.322 1_554 S
O238 Li176 1.961 . S
O238 Li178 1.956 1_556 S
O238 Li179 1.970 1_566 S
O238 C208 1.325 . S
O239 Li177 1.961 . S
O239 Li178 1.970 1_545 S
O239 Li179 1.956 . S
O239 C214 1.325 . S
H240 C182 0.929 . S
H241 C183 0.930 1_556 S
H242 C184 0.930 . S
H243 C185 0.930 . S
H244 C187 0.930 . S
H245 C189 0.929 . S
H246 C190 0.930 . S
H247 C191 0.930 . S
H248 C194 0.930 . S
H249 C197 0.929 . S
H250 C202 0.929 . S
H251 C203 0.930 . S
H252 C210 0.929 . S
H253 C211 0.930 . S
H254 C212 0.930 1_545 S
H255 C213 0.930 . S
H256 C215 0.942 . S
H257 C216 0.930 . S
H258 C217 0.930 1_565 S
H259 C218 0.930 . S
H260 C222 0.929 . S
H261 C224 0.907 1_556 S
H262 C230 0.929 . S
H263 C231 0.930 . S
Li264 N281 1.990 . S
Li264 O324 1.956 . S
Li264 O325 1.970 1_455 S
Li264 O326 1.961 1_554 S
Li265 N289 1.990 . S
Li265 O324 1.970 1_655 S
Li265 O325 1.956 . S
Li265 O327 1.961 . S
Li266 N311 1.990 . S
Li266 O324 1.961 1_556 S
Li266 O326 1.956 . S
Li266 O327 1.970 1_456 S
Li267 N317 1.990 1_554 S
Li267 O325 1.961 . S
Li267 O326 1.970 1_654 S
Li267 O327 1.956 . S
C268 C270 1.348 . S
C268 C271 1.356 . S
C268 O324 1.325 . S
N269 C272 1.314 . S
N269 C273 1.279 . S
C270 C268 1.348 . S
C270 C272 1.353 . S
C270 H328 0.929 . S
C271 C268 1.356 . S
C271 C273 1.358 . S
C271 H329 0.930 1_554 S
C272 N269 1.314 . S
C272 C270 1.353 . S
C272 H330 0.930 . S
C273 N269 1.279 . S
C273 C271 1.358 . S
C273 H331 0.930 1_554 S
C274 C277 1.348 1_655 S
C274 C278 1.356 . S
C274 O325 1.325 . S
C275 N276 1.279 . S
C275 C278 1.358 . S
C275 H332 0.930 . S
N276 C275 1.279 . S
N276 C279 1.299 1_655 S
C277 C274 1.348 1_455 S
C277 C279 1.362 . S
C277 H333 0.929 . S
C278 C274 1.356 . S
C278 C275 1.358 . S
C278 H334 0.930 . S
C279 N276 1.299 1_455 S
C279 C277 1.362 . S
C279 H335 0.937 . S
C280 N281 1.314 . S
C280 C285 1.353 . S
C280 H286 0.930 . S
N281 Li264 1.990 . S
N281 C280 1.314 . S
N281 C283 1.279 . S
C282 C283 1.358 . S
C282 C284 1.356 . S
C282 H336 0.930 . S
C283 N281 1.279 . S
C283 C282 1.358 . S
C283 H287 0.930 . S
C284 C282 1.356 . S
C284 C285 1.348 . S
C285 C280 1.353 . S
C285 C284 1.348 . S
C285 H337 0.929 . S
H286 C280 0.930 . S
H287 C283 0.930 . S
C288 N289 1.314 . S
C288 C290 1.353 . S
C288 H294 0.930 . S
N289 Li265 1.990 . S
N289 C288 1.314 . S
N289 C292 1.279 . S
C290 C288 1.353 . S
C290 C293 1.348 . S
C290 H338 0.929 . S
C291 C292 1.358 . S
C291 C293 1.356 . S
C291 H339 0.930 . S
C292 N289 1.279 . S
C292 C291 1.358 . S
C292 H295 0.930 . S
C293 C290 1.348 . S
C293 C291 1.356 . S
H294 C288 0.930 . S
H295 C292 0.930 . S
C296 C298 1.348 1_455 S
C296 C299 1.356 . S
C296 O326 1.325 . S
N297 C300 1.296 1_455 S
N297 C301 1.279 . S
C298 C296 1.348 1_655 S
C298 C300 1.352 . S
C298 H340 0.929 . S
C299 C296 1.356 . S
C299 C301 1.358 . S
C299 H341 0.930 . S
C300 N297 1.296 1_655 S
C300 C298 1.352 . S
C300 H342 0.951 . S
C301 N297 1.279 . S
C301 C299 1.358 . S
C301 H343 0.930 . S
C302 C303 1.348 . S
C302 C304 1.356 1_556 S
C302 O327 1.325 1_556 S
C303 C302 1.348 . S
C303 C305 1.353 . S
C303 H344 0.929 . S
C304 C302 1.356 1_554 S
C304 C306 1.358 . S
C304 H345 0.930 . S
C305 C303 1.353 . S
C305 N307 1.314 . S
C305 H346 0.930 . S
C306 C304 1.358 . S
C306 N307 1.279 1_554 S
C306 H347 0.930 . S
N307 C305 1.314 . S
N307 C306 1.279 1_556 S
C308 C310 1.353 . S
C308 N311 1.314 . S
C308 H314 0.930 . S
C309 N311 1.279 . S
C309 C312 1.358 . S
C309 H315 0.930 . S
C310 C308 1.353 . S
C310 C313 1.348 . S
C310 H348 0.929 . S
N311 Li266 1.990 . S
N311 C308 1.314 . S
N311 C309 1.279 . S
C312 C309 1.358 . S
C312 C313 1.356 . S
C312 H349 0.930 . S
C313 C310 1.348 . S
C313 C312 1.356 . S
H314 C308 0.930 . S
H315 C309 0.930 . S
C316 N317 1.314 1_554 S
C316 C318 1.353 1_554 S
C316 H322 0.930 . S
N317 Li267 1.990 1_556 S
N317 C316 1.314 1_556 S
N317 C320 1.279 . S
C318 C316 1.353 1_556 S
C318 C321 1.348 . S
C318 H350 0.929 1_556 S
C319 C320 1.358 . S
C319 C321 1.356 . S
C319 H351 0.930 . S
C320 N317 1.279 . S
C320 C319 1.358 . S
C320 H323 0.930 . S
C321 C318 1.348 . S
C321 C319 1.356 . S
H322 C316 0.930 . S
H323 C320 0.930 . S
O324 Li264 1.956 . S
O324 Li265 1.970 1_455 S
O324 Li266 1.961 1_554 S
O324 C268 1.325 . S
O325 Li264 1.970 1_655 S
O325 Li265 1.956 . S
O325 Li267 1.961 . S
O325 C274 1.325 . S
O326 Li264 1.961 1_556 S
O326 Li266 1.956 . S
O326 Li267 1.970 1_456 S
O326 C296 1.325 . S
O327 Li265 1.961 . S
O327 Li266 1.970 1_654 S
O327 Li267 1.956 . S
O327 C302 1.325 1_554 S
H328 C270 0.929 . S
H329 C271 0.930 1_556 S
H330 C272 0.930 . S
H331 C273 0.930 1_556 S
H332 C275 0.930 . S
H333 C277 0.929 . S
H334 C278 0.930 . S
H335 C279 0.937 . S
H336 C282 0.930 . S
H337 C285 0.929 . S
H338 C290 0.929 . S
H339 C291 0.930 . S
H340 C298 0.929 . S
H341 C299 0.930 . S
H342 C300 0.951 . S
H343 C301 0.930 . S
H344 C303 0.929 . S
H345 C304 0.930 . S
H346 C305 0.930 . S
H347 C306 0.930 . S
H348 C310 0.929 . S
H349 C312 0.930 . S
H350 C318 0.929 1_554 S
H351 C319 0.930 . S
Li352 N369 1.990 . S
Li352 O412 1.956 . S
Li352 O413 1.970 . S
Li352 O414 1.961 1_554 S
Li353 N377 1.990 . S
Li353 O412 1.970 . S
Li353 O413 1.956 . S
Li353 O415 1.955 1_554 S
Li354 N399 1.990 . S
Li354 O412 1.961 1_556 S
Li354 O414 1.956 . S
Li354 O415 1.973 . S
Li355 N405 1.984 1_554 S
Li355 O413 1.988 . S
Li355 O414 1.956 1_554 S
Li355 O415 1.955 1_554 S
C356 C358 1.348 . S
C356 C359 1.356 . S
C356 O412 1.325 . S
N357 C360 1.314 . S
N357 C361 1.279 . S
C358 C356 1.348 . S
C358 C360 1.353 . S
C358 H416 0.929 . S
C359 C356 1.356 . S
C359 C361 1.358 . S
C359 H417 0.930 1_554 S
C360 N357 1.314 . S
C360 C358 1.353 . S
C360 H418 0.930 . S
C361 N357 1.279 . S
C361 C359 1.358 . S
C361 H419 0.930 . S
C362 C365 1.348 . S
C362 C366 1.356 . S
C362 O413 1.325 . S
C363 N364 1.279 . S
C363 C366 1.358 . S
C363 H420 0.930 . S
N364 C363 1.279 . S
N364 C367 1.314 . S
C365 C362 1.348 . S
C365 C367 1.353 . S
C365 H421 0.929 . S
C366 C362 1.356 . S
C366 C363 1.358 . S
C366 H422 0.930 . S
C367 N364 1.314 . S
C367 C365 1.353 . S
C367 H423 0.930 . S
C368 N369 1.314 . S
C368 C373 1.353 . S
C368 H374 0.930 . S
N369 Li352 1.990 . S
N369 C368 1.314 . S
N369 C371 1.279 . S
C370 C371 1.358 . S
C370 C372 1.356 . S
C370 H424 0.930 . S
C371 N369 1.279 . S
C371 C370 1.358 . S
C371 H375 0.930 . S
C372 C370 1.356 . S
C372 C373 1.348 . S
C373 C368 1.353 . S
C373 C372 1.348 . S
C373 H425 0.929 . S
H374 C368 0.930 . S
H375 C371 0.930 . S
C376 N377 1.314 . S
C376 C378 1.353 . S
C376 H382 0.930 . S
N377 Li353 1.990 . S
N377 C376 1.314 . S
N377 C380 1.279 . S
C378 C376 1.353 . S
C378 C381 1.348 . S
C378 H426 0.929 . S
C379 C380 1.358 . S
C379 C381 1.356 . S
C379 H427 0.930 . S
C380 N377 1.279 . S
C380 C379 1.358 . S
C380 H383 0.930 . S
C381 C378 1.348 . S
C381 C379 1.356 . S
H382 C376 0.930 . S
H383 C380 0.930 . S
C384 C386 1.348 . S
C384 C387 1.356 . S
C384 O414 1.325 . S
N385 C388 1.314 . S
N385 C389 1.279 . S
C386 C384 1.348 . S
C386 C388 1.353 . S
C386 H428 0.929 . S
C387 C384 1.356 . S
C387 C389 1.358 . S
C387 H429 0.930 . S
C388 N385 1.314 . S
C388 C386 1.353 . S
C388 H430 0.930 . S
C389 N385 1.279 . S
C389 C387 1.358 . S
C389 H431 0.930 . S
C390 C391 1.348 . S
C390 C392 1.356 1_556 S
C390 O415 1.326 . S
C391 C390 1.348 . S
C391 C393 1.353 . S
C391 H432 0.929 . S
C392 C390 1.356 1_554 S
C392 C394 1.358 . S
C392 H433 0.930 . S
C393 C391 1.353 . S
C393 N395 1.314 . S
C393 H434 0.930 . S
C394 C392 1.358 . S
C394 N395 1.279 1_554 S
C394 H435 0.930 . S
N395 C393 1.314 . S
N395 C394 1.279 1_556 S
C396 C398 1.353 . S
C396 N399 1.314 . S
C396 H402 0.930 . S
C397 N399 1.279 . S
C397 C400 1.358 . S
C397 H403 0.930 . S
C398 C396 1.353 . S
C398 C401 1.348 . S
C398 H436 0.929 . S
N399 Li354 1.990 . S
N399 C396 1.314 . S
N399 C397 1.279 . S
C400 C397 1.358 . S
C400 C401 1.356 . S
C400 H437 0.930 . S
C401 C398 1.348 . S
C401 C400 1.356 . S
H402 C396 0.930 . S
H403 C397 0.930 . S
C404 N405 1.314 . S
C404 C406 1.353 . S
C404 H410 0.930 1_556 S
N405 Li355 1.984 1_556 S
N405 C404 1.314 . S
N405 C408 1.279 . S
C406 C404 1.353 . S
C406 C409 1.348 . S
C406 H438 0.929 . S
C407 C408 1.358 . S
C407 C409 1.356 . S
C407 H439 0.930 . S
C408 N405 1.279 . S
C408 C407 1.358 . S
C408 H411 0.930 . S
C409 C406 1.348 . S
C409 C407 1.356 . S
H410 C404 0.930 1_554 S
H411 C408 0.930 . S
O412 Li352 1.956 . S
O412 Li353 1.970 . S
O412 Li354 1.961 1_554 S
O412 C356 1.325 . S
O413 Li352 1.970 . S
O413 Li353 1.956 . S
O413 Li355 1.988 . S
O413 C362 1.325 . S
O414 Li352 1.961 1_556 S
O414 Li354 1.956 . S
O414 Li355 1.956 1_556 S
O414 C384 1.325 . S
O415 Li353 1.955 1_556 S
O415 Li354 1.973 . S
O415 Li355 1.955 1_556 S
O415 C390 1.326 . S
H416 C358 0.929 . S
H417 C359 0.930 1_556 S
H418 C360 0.930 . S
H419 C361 0.930 . S
H420 C363 0.930 . S
H421 C365 0.929 . S
H422 C366 0.930 . S
H423 C367 0.930 . S
H424 C370 0.930 . S
H425 C373 0.929 . S
H426 C378 0.929 . S
H427 C379 0.930 . S
H428 C386 0.929 . S
H429 C387 0.930 . S
H430 C388 0.930 . S
H431 C389 0.930 . S
H432 C391 0.929 . S
H433 C392 0.930 . S
H434 C393 0.930 . S
H435 C394 0.930 . S
H436 C398 0.929 . S
H437 C400 0.930 . S
H438 C406 0.929 . S
H439 C407 0.930 . S
Li440 N457 1.990 . S
Li440 O500 1.956 . S
Li440 O501 1.970 1_565 S
Li440 O502 1.961 1_554 S
Li441 N465 1.990 . S
Li441 O500 1.970 1_545 S
Li441 O501 1.956 . S
Li441 O503 1.961 . S
Li442 N487 1.990 . S
Li442 O500 1.961 1_556 S
Li442 O502 1.956 . S
Li442 O503 1.970 1_566 S
Li443 N493 1.990 1_554 S
Li443 O501 1.961 . S
Li443 O502 1.970 1_544 S
Li443 O503 1.956 . S
C444 C446 1.348 . S
C444 C447 1.356 . S
C444 O500 1.325 . S
N445 C448 1.314 . S
N445 C449 1.279 . S
C446 C444 1.348 . S
C446 C448 1.353 . S
C446 H504 0.929 . S
C447 C444 1.356 . S
C447 C449 1.358 . S
C447 H505 0.930 1_554 S
C448 N445 1.314 . S
C448 C446 1.353 . S
C448 H506 0.930 . S
C449 N445 1.279 . S
C449 C447 1.358 . S
C449 H507 0.930 1_554 S
C450 C453 1.348 1_545 S
C450 C454 1.356 . S
C450 O501 1.325 . S
C451 N452 1.279 . S
C451 C454 1.358 . S
C451 H508 0.930 . S
N452 C451 1.279 . S
N452 C455 1.300 1_545 S
C453 C450 1.348 1_565 S
C453 C455 1.352 . S
C453 H509 0.929 . S
C454 C450 1.356 . S
C454 C451 1.358 . S
C454 H510 0.930 . S
C455 N452 1.300 1_565 S
C455 C453 1.352 . S
C455 H511 0.947 . S
C456 N457 1.314 . S
C456 C461 1.353 . S
C456 H462 0.930 . S
N457 Li440 1.990 . S
N457 C456 1.314 . S
N457 C459 1.279 . S
C458 C459 1.358 . S
C458 C460 1.356 . S
C458 H512 0.930 . S
C459 N457 1.279 . S
C459 C458 1.358 . S
C459 H463 0.930 . S
C460 C458 1.356 . S
C460 C461 1.348 . S
C461 C456 1.353 . S
C461 C460 1.348 . S
C461 H513 0.929 . S
H462 C456 0.930 . S
H463 C459 0.930 . S
C464 N465 1.314 . S
C464 C466 1.353 . S
C464 H470 0.930 . S
N465 Li441 1.990 . S
N465 C464 1.314 . S
N465 C468 1.279 . S
C466 C464 1.353 . S
C466 C469 1.348 . S
C466 H514 0.929 . S
C467 C468 1.358 . S
C467 C469 1.356 . S
C467 H515 0.930 . S
C468 N465 1.279 . S
C468 C467 1.358 . S
C468 H471 0.930 . S
C469 C466 1.348 . S
C469 C467 1.356 . S
H470 C464 0.930 . S
H471 C468 0.930 . S
C472 C474 1.348 1_565 S
C472 C475 1.356 . S
C472 O502 1.325 . S
N473 C476 1.305 1_565 S
N473 C477 1.279 . S
C474 C472 1.348 1_545 S
C474 C476 1.359 . S
C474 H516 0.929 . S
C475 C472 1.356 . S
C475 C477 1.358 . S
C475 H517 0.930 . S
C476 N473 1.305 1_545 S
C476 C474 1.359 . S
C476 H518 0.934 . S
C477 N473 1.279 . S
C477 C475 1.358 . S
C477 H519 0.930 . S
C478 C479 1.348 . S
C478 C480 1.356 1_556 S
C478 O503 1.325 1_556 S
C479 C478 1.348 . S
C479 C481 1.353 . S
C479 H520 0.929 . S
C480 C478 1.356 1_554 S
C480 C482 1.358 . S
C480 H521 0.930 . S
C481 C479 1.353 . S
C481 N483 1.314 . S
C481 H522 0.930 . S
C482 C480 1.358 . S
C482 N483 1.279 1_554 S
C482 H523 0.930 . S
N483 C481 1.314 . S
N483 C482 1.279 1_556 S
C484 C486 1.353 . S
C484 N487 1.314 . S
C484 H490 0.930 . S
C485 N487 1.279 . S
C485 C488 1.358 . S
C485 H491 0.930 . S
C486 C484 1.353 . S
C486 C489 1.348 . S
C486 H524 0.929 . S
N487 Li442 1.990 . S
N487 C484 1.314 . S
N487 C485 1.279 . S
C488 C485 1.358 . S
C488 C489 1.356 . S
C488 H525 0.930 . S
C489 C486 1.348 . S
C489 C488 1.356 . S
H490 C484 0.930 . S
H491 C485 0.930 . S
C492 N493 1.314 1_554 S
C492 C494 1.353 1_554 S
C492 H498 0.930 . S
N493 Li443 1.990 1_556 S
N493 C492 1.314 1_556 S
N493 C496 1.279 . S
C494 C492 1.353 1_556 S
C494 C497 1.348 . S
C494 H526 0.929 1_556 S
C495 C496 1.358 . S
C495 C497 1.356 . S
C495 H527 0.930 . S
C496 N493 1.279 . S
C496 C495 1.358 . S
C496 H499 0.930 . S
C497 C494 1.348 . S
C497 C495 1.356 . S
H498 C492 0.930 . S
H499 C496 0.930 . S
O500 Li440 1.956 . S
O500 Li441 1.970 1_565 S
O500 Li442 1.961 1_554 S
O500 C444 1.325 . S
O501 Li440 1.970 1_545 S
O501 Li441 1.956 . S
O501 Li443 1.961 . S
O501 C450 1.325 . S
O502 Li440 1.961 1_556 S
O502 Li442 1.956 . S
O502 Li443 1.970 1_566 S
O502 C472 1.325 . S
O503 Li441 1.961 . S
O503 Li442 1.970 1_544 S
O503 Li443 1.956 . S
O503 C478 1.325 1_554 S
H504 C446 0.929 . S
H505 C447 0.930 1_556 S
H506 C448 0.930 . S
H507 C449 0.930 1_556 S
H508 C451 0.930 . S
H509 C453 0.929 . S
H510 C454 0.930 . S
H511 C455 0.947 . S
H512 C458 0.930 . S
H513 C461 0.929 . S
H514 C466 0.929 . S
H515 C467 0.930 . S
H516 C474 0.929 . S
H517 C475 0.930 . S
H518 C476 0.934 . S
H519 C477 0.930 . S
H520 C479 0.929 . S
H521 C480 0.930 . S
H522 C481 0.930 . S
H523 C482 0.930 . S
H524 C486 0.929 . S
H525 C488 0.930 . S
H526 C494 0.929 1_554 S
H527 C495 0.930 . S
Li528 N545 1.990 . S
Li528 O588 1.956 . S
Li528 O589 1.970 . S
Li528 O590 1.961 . S
Li529 N553 1.990 . S
Li529 O588 1.970 . S
Li529 O589 1.956 . S
Li529 O591 1.961 . S
Li530 N575 1.990 . S
Li530 O588 1.961 . S
Li530 O590 1.956 . S
Li530 O591 1.970 . S
Li531 N581 1.990 . S
Li531 O589 1.961 . S
Li531 O590 1.970 . S
Li531 O591 1.956 . S
C532 C534 1.348 . S
C532 C535 1.356 . S
C532 O588 1.325 . S
N533 C536 1.314 . S
N533 C537 1.279 . S
C534 C532 1.348 . S
C534 C536 1.353 . S
C534 H592 0.929 . S
C535 C532 1.356 . S
C535 C537 1.358 . S
C535 H593 0.930 . S
C536 N533 1.314 . S
C536 C534 1.353 . S
C536 H594 0.930 . S
C537 N533 1.279 . S
C537 C535 1.358 . S
C537 H595 0.930 . S
C538 C541 1.348 . S
C538 C542 1.356 . S
C538 O589 1.325 . S
C539 N540 1.279 . S
C539 C542 1.358 . S
C539 H596 0.930 . S
N540 C539 1.279 . S
N540 C543 1.314 . S
C541 C538 1.348 . S
C541 C543 1.353 . S
C541 H597 0.929 . S
C542 C538 1.356 . S
C542 C539 1.358 . S
C542 H598 0.930 . S
C543 N540 1.314 . S
C543 C541 1.353 . S
C543 H599 0.930 . S
C544 N545 1.314 . S
C544 C549 1.353 . S
C544 H550 0.930 . S
N545 Li528 1.990 . S
N545 C544 1.314 . S
N545 C547 1.279 . S
C546 C547 1.358 . S
C546 C548 1.356 . S
C546 H600 0.930 . S
C547 N545 1.279 . S
C547 C546 1.358 . S
C547 H551 0.930 . S
C548 C546 1.356 . S
C548 C549 1.348 . S
C549 C544 1.353 . S
C549 C548 1.348 . S
C549 H601 0.929 . S
H550 C544 0.930 . S
H551 C547 0.930 . S
C552 N553 1.314 . S
C552 C554 1.353 . S
C552 H558 0.930 . S
N553 Li529 1.990 . S
N553 C552 1.314 . S
N553 C556 1.279 . S
C554 C552 1.353 . S
C554 C557 1.348 . S
C554 H602 0.929 . S
C555 C556 1.358 . S
C555 C557 1.356 . S
C555 H603 0.930 . S
C556 N553 1.279 . S
C556 C555 1.358 . S
C556 H559 0.930 . S
C557 C554 1.348 . S
C557 C555 1.356 . S
H558 C552 0.930 . S
H559 C556 0.930 . S
C560 C562 1.348 . S
C560 C563 1.356 . S
C560 O590 1.325 . S
N561 C564 1.314 . S
N561 C565 1.279 . S
C562 C560 1.348 . S
C562 C564 1.353 . S
C562 H604 0.929 . S
C563 C560 1.356 . S
C563 C565 1.358 . S
C563 H605 0.930 . S
C564 N561 1.314 . S
C564 C562 1.353 . S
C564 H606 0.930 . S
C565 N561 1.279 . S
C565 C563 1.358 . S
C565 H607 0.930 . S
C566 C567 1.348 . S
C566 C568 1.356 . S
C566 O591 1.325 . S
C567 C566 1.348 . S
C567 C569 1.353 . S
C567 H608 0.929 . S
C568 C566 1.356 . S
C568 C570 1.358 . S
C568 H609 0.930 . S
C569 C567 1.353 . S
C569 N571 1.314 . S
C569 H610 0.930 . S
C570 C568 1.358 . S
C570 N571 1.279 . S
C570 H611 0.930 . S
N571 C569 1.314 . S
N571 C570 1.279 . S
C572 C574 1.353 . S
C572 N575 1.314 . S
C572 H578 0.930 . S
C573 N575 1.279 . S
C573 C576 1.358 . S
C573 H579 0.930 . S
C574 C572 1.353 . S
C574 C577 1.348 . S
C574 H612 0.929 . S
N575 Li530 1.990 . S
N575 C572 1.314 . S
N575 C573 1.279 . S
C576 C573 1.358 . S
C576 C577 1.356 . S
C576 H613 0.930 . S
C577 C574 1.348 . S
C577 C576 1.356 . S
H578 C572 0.930 . S
H579 C573 0.930 . S
C580 N581 1.314 . S
C580 C582 1.353 . S
C580 H586 0.930 . S
N581 Li531 1.990 . S
N581 C580 1.314 . S
N581 C584 1.279 . S
C582 C580 1.353 . S
C582 C585 1.348 . S
C582 H614 0.929 . S
C583 C584 1.358 . S
C583 C585 1.356 . S
C583 H615 0.930 . S
C584 N581 1.279 . S
C584 C583 1.358 . S
C584 H587 0.930 . S
C585 C582 1.348 . S
C585 C583 1.356 . S
H586 C580 0.930 . S
H587 C584 0.930 . S
O588 Li528 1.956 . S
O588 Li529 1.970 . S
O588 Li530 1.961 . S
O588 C532 1.325 . S
O589 Li528 1.970 . S
O589 Li529 1.956 . S
O589 Li531 1.961 . S
O589 C538 1.325 . S
O590 Li528 1.961 . S
O590 Li530 1.956 . S
O590 Li531 1.970 . S
O590 C560 1.325 . S
O591 Li529 1.961 . S
O591 Li530 1.970 . S
O591 Li531 1.956 . S
O591 C566 1.325 . S
H592 C534 0.929 . S
H593 C535 0.930 . S
H594 C536 0.930 . S
H595 C537 0.930 . S
H596 C539 0.930 . S
H597 C541 0.929 . S
H598 C542 0.930 . S
H599 C543 0.930 . S
H600 C546 0.930 . S
H601 C549 0.929 . S
H602 C554 0.929 . S
H603 C555 0.930 . S
H604 C562 0.929 . S
H605 C563 0.930 . S
H606 C564 0.930 . S
H607 C565 0.930 . S
H608 C567 0.929 . S
H609 C568 0.930 . S
H610 C569 0.930 . S
H611 C570 0.930 . S
H612 C574 0.929 . S
H613 C576 0.930 . S
H614 C582 0.929 . S
H615 C583 0.930 . S
Li616 N633 1.990 . S
Li616 O676 1.956 . S
Li616 O677 1.970 . S
Li616 O678 1.961 . S
Li617 N641 1.990 . S
Li617 O676 1.970 . S
Li617 O677 1.956 . S
Li617 O679 1.961 . S
Li618 N663 1.990 . S
Li618 O676 1.961 1_545 S
Li618 O678 1.956 1_545 S
Li618 O679 1.970 1_545 S
Li619 N669 1.990 . S
Li619 O677 1.961 . S
Li619 O678 1.970 . S
Li619 O679 1.956 . S
C620 C622 1.348 . S
C620 C623 1.356 . S
C620 O676 1.325 . S
N621 C624 1.314 . S
N621 C625 1.279 . S
C622 C620 1.348 . S
C622 C624 1.353 . S
C622 H680 0.929 . S
C623 C620 1.356 . S
C623 C625 1.358 . S
C623 H681 0.936 . S
C624 N621 1.314 . S
C624 C622 1.353 . S
C624 H682 0.930 . S
C625 N621 1.279 . S
C625 C623 1.358 . S
C625 H683 0.930 . S
C626 C629 1.348 . S
C626 C630 1.356 . S
C626 O677 1.325 . S
C627 N628 1.279 . S
C627 C630 1.358 . S
C627 H684 0.930 . S
N628 C627 1.279 . S
N628 C631 1.314 . S
C629 C626 1.348 . S
C629 C631 1.353 . S
C629 H685 0.929 . S
C630 C626 1.356 . S
C630 C627 1.358 . S
C630 H686 0.930 . S
C631 N628 1.314 . S
C631 C629 1.353 . S
C631 H687 0.930 . S
C632 N633 1.314 . S
C632 C637 1.353 . S
C632 H638 0.930 . S
N633 Li616 1.990 . S
N633 C632 1.314 . S
N633 C635 1.279 . S
C634 C635 1.358 . S
C634 C636 1.356 . S
C634 H688 0.930 . S
C635 N633 1.279 . S
C635 C634 1.358 . S
C635 H639 0.930 . S
C636 C634 1.356 . S
C636 C637 1.348 . S
C637 C632 1.353 . S
C637 C636 1.348 . S
C637 H689 0.929 . S
H638 C632 0.930 . S
H639 C635 0.930 . S
C640 N641 1.314 . S
C640 C642 1.353 . S
C640 H646 0.930 . S
N641 Li617 1.990 . S
N641 C640 1.314 . S
N641 C644 1.279 . S
C642 C640 1.353 . S
C642 C645 1.348 . S
C642 H690 0.929 . S
C643 C644 1.358 . S
C643 C645 1.356 . S
C643 H691 0.930 . S
C644 N641 1.279 . S
C644 C643 1.358 . S
C644 H647 0.930 . S
C645 C642 1.348 . S
C645 C643 1.356 . S
H646 C640 0.930 . S
H647 C644 0.930 . S
C648 C650 1.348 . S
C648 C651 1.356 . S
C648 O678 1.325 1_545 S
N649 C652 1.314 . S
N649 C653 1.279 . S
C650 C648 1.348 . S
C650 C652 1.353 . S
C650 H692 0.929 . S
C651 C648 1.356 . S
C651 C653 1.358 . S
C651 H693 0.930 . S
C652 N649 1.314 . S
C652 C650 1.353 . S
C652 H694 0.930 . S
C653 N649 1.279 . S
C653 C651 1.358 . S
C653 H695 0.930 . S
C654 C655 1.348 1_565 S
C654 C656 1.356 . S
C654 O679 1.325 . S
C655 C654 1.348 1_545 S
C655 C657 1.353 . S
C655 H696 0.929 . S
C656 C654 1.356 . S
C656 C658 1.358 . S
C656 H697 0.930 . S
C657 C655 1.353 . S
C657 N659 1.314 . S
C657 H698 0.930 . S
C658 C656 1.358 . S
C658 N659 1.279 1_565 S
C658 H699 0.930 . S
N659 C657 1.314 . S
N659 C658 1.279 1_545 S
C660 C662 1.353 . S
C660 N663 1.314 . S
C660 H666 0.930 . S
C661 N663 1.279 . S
C661 C664 1.358 . S
C661 H667 0.930 . S
C662 C660 1.353 . S
C662 C665 1.348 . S
C662 H700 0.929 . S
N663 Li618 1.990 . S
N663 C660 1.314 . S
N663 C661 1.279 . S
C664 C661 1.358 . S
C664 C665 1.356 . S
C664 H701 0.930 . S
C665 C662 1.348 . S
C665 C664 1.356 . S
H666 C660 0.930 . S
H667 C661 0.930 . S
C668 N669 1.314 . S
C668 C670 1.353 . S
C668 H674 0.930 . S
N669 Li619 1.990 . S
N669 C668 1.314 . S
N669 C672 1.279 . S
C670 C668 1.353 . S
C670 C673 1.348 . S
C670 H702 0.929 . S
C671 C672 1.358 . S
C671 C673 1.356 . S
C671 H703 0.930 1_565 S
C672 N669 1.279 . S
C672 C671 1.358 . S
C672 H675 0.930 1_565 S
C673 C670 1.348 . S
C673 C671 1.356 . S
H674 C668 0.930 . S
H675 C672 0.930 1_545 S
O676 Li616 1.956 . S
O676 Li617 1.970 . S
O676 Li618 1.961 1_565 S
O676 C620 1.325 . S
O677 Li616 1.970 . S
O677 Li617 1.956 . S
O677 Li619 1.961 . S
O677 C626 1.325 . S
O678 Li616 1.961 . S
O678 Li618 1.956 1_565 S
O678 Li619 1.970 . S
O678 C648 1.325 1_565 S
O679 Li617 1.961 . S
O679 Li618 1.970 1_565 S
O679 Li619 1.956 . S
O679 C654 1.325 . S
H680 C622 0.929 . S
H681 C623 0.936 . S
H682 C624 0.930 . S
H683 C625 0.930 . S
H684 C627 0.930 . S
H685 C629 0.929 . S
H686 C630 0.930 . S
H687 C631 0.930 . S
H688 C634 0.930 . S
H689 C637 0.929 . S
H690 C642 0.929 . S
H691 C643 0.930 . S
H692 C650 0.929 . S
H693 C651 0.930 . S
H694 C652 0.930 . S
H695 C653 0.930 . S
H696 C655 0.929 . S
H697 C656 0.930 . S
H698 C657 0.930 . S
H699 C658 0.930 . S
H700 C662 0.929 . S
H701 C664 0.930 . S
H702 C670 0.929 . S
H703 C671 0.930 1_545 S
Li704 N721 1.990 . S
Li704 O764 1.956 . S
Li704 O765 1.970 . S
Li704 O766 1.961 . S
Li705 N729 1.990 . S
Li705 O764 1.970 . S
Li705 O765 1.956 . S
Li705 O767 1.961 . S
Li706 N751 1.990 . S
Li706 O764 1.961 1_655 S
Li706 O766 1.956 1_655 S
Li706 O767 1.970 1_655 S
Li707 N757 1.990 . S
Li707 O765 1.961 . S
Li707 O766 1.970 . S
Li707 O767 1.956 . S
C708 C710 1.348 . S
C708 C711 1.356 . S
C708 O764 1.325 . S
N709 C712 1.314 . S
N709 C713 1.279 . S
C710 C708 1.348 . S
C710 C712 1.353 . S
C710 H768 0.929 . S
C711 C708 1.356 . S
C711 C713 1.358 . S
C711 H769 0.930 . S
C712 N709 1.314 . S
C712 C710 1.353 . S
C712 H770 0.930 . S
C713 N709 1.279 . S
C713 C711 1.358 . S
C713 H771 0.930 . S
C714 C717 1.348 . S
C714 C718 1.356 . S
C714 O765 1.325 . S
C715 N716 1.279 . S
C715 C718 1.358 . S
C715 H772 0.930 . S
N716 C715 1.279 . S
N716 C719 1.314 . S
C717 C714 1.348 . S
C717 C719 1.353 . S
C717 H773 0.929 . S
C718 C714 1.356 . S
C718 C715 1.358 . S
C718 H774 0.930 . S
C719 N716 1.314 . S
C719 C717 1.353 . S
C719 H775 0.930 . S
C720 N721 1.314 . S
C720 C725 1.353 . S
C720 H726 0.930 . S
N721 Li704 1.990 . S
N721 C720 1.314 . S
N721 C723 1.279 . S
C722 C723 1.358 . S
C722 C724 1.356 . S
C722 H776 0.930 . S
C723 N721 1.279 . S
C723 C722 1.358 . S
C723 H727 0.930 . S
C724 C722 1.356 . S
C724 C725 1.348 . S
C725 C720 1.353 . S
C725 C724 1.348 . S
C725 H777 0.929 . S
H726 C720 0.930 . S
H727 C723 0.930 . S
C728 N729 1.314 . S
C728 C730 1.353 . S
C728 H734 0.930 . S
N729 Li705 1.990 . S
N729 C728 1.314 . S
N729 C732 1.279 . S
C730 C728 1.353 . S
C730 C733 1.348 . S
C730 H778 0.929 . S
C731 C732 1.358 . S
C731 C733 1.356 . S
C731 H779 0.930 . S
C732 N729 1.279 . S
C732 C731 1.358 . S
C732 H735 0.930 . S
C733 C730 1.348 . S
C733 C731 1.356 . S
H734 C728 0.930 . S
H735 C732 0.930 . S
C736 C738 1.348 . S
C736 C739 1.356 . S
C736 O766 1.325 1_655 S
N737 C740 1.314 . S
N737 C741 1.279 . S
C738 C736 1.348 . S
C738 C740 1.353 . S
C738 H780 0.929 . S
C739 C736 1.356 . S
C739 C741 1.358 . S
C739 H781 0.930 . S
C740 N737 1.314 . S
C740 C738 1.353 . S
C740 H782 0.930 . S
C741 N737 1.279 . S
C741 C739 1.358 . S
C741 H783 0.930 . S
C742 C743 1.348 1_455 S
C742 C744 1.356 . S
C742 O767 1.325 . S
C743 C742 1.348 1_655 S
C743 C745 1.353 . S
C743 H784 0.929 . S
C744 C742 1.356 . S
C744 C746 1.358 . S
C744 H785 0.930 . S
C745 C743 1.353 . S
C745 N747 1.314 . S
C745 H786 0.930 . S
C746 C744 1.358 . S
C746 N747 1.279 1_455 S
C746 H787 0.930 . S
N747 C745 1.314 . S
N747 C746 1.279 1_655 S
C748 C750 1.353 . S
C748 N751 1.314 . S
C748 H754 0.930 . S
C749 N751 1.279 . S
C749 C752 1.358 . S
C749 H755 0.930 . S
C750 C748 1.353 . S
C750 C753 1.348 . S
C750 H788 0.929 . S
N751 Li706 1.990 . S
N751 C748 1.314 . S
N751 C749 1.279 . S
C752 C749 1.358 . S
C752 C753 1.356 . S
C752 H789 0.930 . S
C753 C750 1.348 . S
C753 C752 1.356 . S
H754 C748 0.930 . S
H755 C749 0.930 . S
C756 N757 1.314 . S
C756 C758 1.353 . S
C756 H762 0.930 . S
N757 Li707 1.990 . S
N757 C756 1.314 . S
N757 C760 1.279 . S
C758 C756 1.353 . S
C758 C761 1.348 . S
C758 H790 0.929 . S
C759 C760 1.358 . S
C759 C761 1.356 . S
C759 H791 0.930 1_455 S
C760 N757 1.279 . S
C760 C759 1.358 . S
C760 H763 0.927 1_455 S
C761 C758 1.348 . S
C761 C759 1.356 . S
H762 C756 0.930 . S
H763 C760 0.927 1_655 S
O764 Li704 1.956 . S
O764 Li705 1.970 . S
O764 Li706 1.961 1_455 S
O764 C708 1.325 . S
O765 Li704 1.970 . S
O765 Li705 1.956 . S
O765 Li707 1.961 . S
O765 C714 1.325 . S
O766 Li704 1.961 . S
O766 Li706 1.956 1_455 S
O766 Li707 1.970 . S
O766 C736 1.325 1_455 S
O767 Li705 1.961 . S
O767 Li706 1.970 1_455 S
O767 Li707 1.956 . S
O767 C742 1.325 . S
H768 C710 0.929 . S
H769 C711 0.930 . S
H770 C712 0.930 . S
H771 C713 0.930 . S
H772 C715 0.930 . S
H773 C717 0.929 . S
H774 C718 0.930 . S
H775 C719 0.930 . S
H776 C722 0.930 . S
H777 C725 0.929 . S
H778 C730 0.929 . S
H779 C731 0.930 . S
H780 C738 0.929 . S
H781 C739 0.930 . S
H782 C740 0.930 . S
H783 C741 0.930 . S
H784 C743 0.929 . S
H785 C744 0.930 . S
H786 C745 0.930 . S
H787 C746 0.930 . S
H788 C750 0.929 . S
H789 C752 0.930 . S
H790 C758 0.929 . S
H791 C759 0.930 1_655 S
Li792 N809 1.990 . S
Li792 O852 1.956 1_545 S
Li792 O853 1.970 1_545 S
Li792 O854 1.961 1_545 S
Li793 N817 1.990 . S
Li793 O852 1.970 . S
Li793 O853 1.956 . S
Li793 O855 1.961 . S
Li794 N839 1.990 . S
Li794 O852 1.961 . S
Li794 O854 1.956 . S
Li794 O855 1.970 . S
Li795 N845 1.990 . S
Li795 O853 1.961 . S
Li795 O854 1.970 . S
Li795 O855 1.956 . S
C796 C798 1.348 . S
C796 C799 1.356 . S
C796 O852 1.325 . S
N797 C800 1.314 . S
N797 C801 1.279 . S
C798 C796 1.348 . S
C798 C800 1.353 . S
C798 H856 0.929 . S
C799 C796 1.356 . S
C799 C801 1.358 . S
C799 H857 0.930 . S
C800 N797 1.314 . S
C800 C798 1.353 . S
C800 H858 0.930 . S
C801 N797 1.279 . S
C801 C799 1.358 . S
C801 H859 0.930 . S
C802 C805 1.348 1_565 S
C802 C806 1.356 . S
C802 O853 1.325 . S
C803 N804 1.279 1_565 S
C803 C806 1.358 . S
C803 H860 0.930 . S
N804 C803 1.279 1_545 S
N804 C807 1.314 . S
C805 C802 1.348 1_545 S
C805 C807 1.353 . S
C805 H861 0.929 . S
C806 C802 1.356 . S
C806 C803 1.358 . S
C806 H862 0.930 . S
C807 N804 1.314 . S
C807 C805 1.353 . S
C807 H863 0.930 . S
C808 N809 1.314 . S
C808 C813 1.353 . S
C808 H814 0.930 . S
N809 Li792 1.990 . S
N809 C808 1.314 . S
N809 C811 1.279 . S
C810 C811 1.358 . S
C810 C812 1.356 . S
C810 H864 0.930 . S
C811 N809 1.279 . S
C811 C810 1.358 . S
C811 H815 0.930 . S
C812 C810 1.356 . S
C812 C813 1.348 . S
C813 C808 1.353 . S
C813 C812 1.348 . S
C813 H865 0.929 . S
H814 C808 0.930 . S
H815 C811 0.930 . S
C816 N817 1.314 . S
C816 C818 1.353 . S
C816 H822 0.930 . S
N817 Li793 1.990 . S
N817 C816 1.314 . S
N817 C820 1.279 . S
C818 C816 1.353 . S
C818 C821 1.348 . S
C818 H866 0.929 . S
C819 C820 1.358 . S
C819 C821 1.356 . S
C819 H867 0.930 . S
C820 N817 1.279 . S
C820 C819 1.358 . S
C820 H823 0.930 . S
C821 C818 1.348 . S
C821 C819 1.356 . S
H822 C816 0.930 . S
H823 C820 0.930 . S
C824 C826 1.348 . S
C824 C827 1.356 . S
C824 O854 1.325 1_545 S
N825 C828 1.314 . S
N825 C829 1.279 . S
C826 C824 1.348 . S
C826 C828 1.353 . S
C826 H868 0.930 1_545 S
C827 C824 1.356 . S
C827 C829 1.358 . S
C827 H869 0.930 . S
C828 N825 1.314 . S
C828 C826 1.353 . S
C828 H870 0.930 . S
C829 N825 1.279 . S
C829 C827 1.358 . S
C829 H871 0.930 . S
C830 C831 1.348 . S
C830 C832 1.356 . S
C830 O855 1.325 . S
C831 C830 1.348 . S
C831 C833 1.353 . S
C831 H872 0.929 . S
C832 C830 1.356 . S
C832 C834 1.358 . S
C832 H873 0.930 . S
C833 C831 1.353 . S
C833 N835 1.314 . S
C833 H874 0.930 . S
C834 C832 1.358 . S
C834 N835 1.279 . S
C834 H875 0.930 . S
N835 C833 1.314 . S
N835 C834 1.279 . S
C836 C838 1.353 . S
C836 N839 1.314 . S
C836 H842 0.930 . S
C837 N839 1.279 . S
C837 C840 1.358 . S
C837 H843 0.930 . S
C838 C836 1.353 . S
C838 C841 1.348 . S
C838 H876 0.929 . S
N839 Li794 1.990 . S
N839 C836 1.314 . S
N839 C837 1.279 . S
C840 C837 1.358 . S
C840 C841 1.356 . S
C840 H877 0.930 . S
C841 C838 1.348 . S
C841 C840 1.356 . S
H842 C836 0.930 . S
H843 C837 0.930 . S
C844 N845 1.314 . S
C844 C846 1.314 1_565 S
C844 H850 0.930 1_565 S
N845 Li795 1.990 . S
N845 C844 1.314 . S
N845 C848 1.279 . S
C846 C844 1.314 1_545 S
C846 C849 1.327 1_545 S
C846 H878 0.992 . S
C847 C848 1.358 . S
C847 C849 1.356 . S
C847 H879 0.930 . S
C848 N845 1.279 . S
C848 C847 1.358 . S
C848 H851 0.930 . S
C849 C846 1.327 1_565 S
C849 C847 1.356 . S
H850 C844 0.930 1_545 S
H851 C848 0.930 . S
O852 Li792 1.956 1_565 S
O852 Li793 1.970 . S
O852 Li794 1.961 . S
O852 C796 1.325 . S
O853 Li792 1.970 1_565 S
O853 Li793 1.956 . S
O853 Li795 1.961 . S
O853 C802 1.325 . S
O854 Li792 1.961 1_565 S
O854 Li794 1.956 . S
O854 Li795 1.970 . S
O854 C824 1.325 1_565 S
O855 Li793 1.961 . S
O855 Li794 1.970 . S
O855 Li795 1.956 . S
O855 C830 1.325 . S
H856 C798 0.929 . S
H857 C799 0.930 . S
H858 C800 0.930 . S
H859 C801 0.930 . S
H860 C803 0.930 . S
H861 C805 0.929 . S
H862 C806 0.930 . S
H863 C807 0.930 . S
H864 C810 0.930 . S
H865 C813 0.929 . S
H866 C818 0.929 . S
H867 C819 0.930 . S
H868 C826 0.930 1_565 S
H869 C827 0.930 . S
H870 C828 0.930 . S
H871 C829 0.930 . S
H872 C831 0.929 . S
H873 C832 0.930 . S
H874 C833 0.930 . S
H875 C834 0.930 . S
H876 C838 0.929 . S
H877 C840 0.930 . S
H878 C846 0.992 . S
H879 C847 0.930 . S
Li880 N897 1.990 . S
Li880 O940 1.956 . S
Li880 O941 1.970 . S
Li880 O942 1.961 . S
Li881 N905 1.990 . S
Li881 O940 1.970 1_655 S
Li881 O941 1.956 1_655 S
Li881 O943 1.961 1_655 S
Li882 N927 1.990 . S
Li882 O940 1.961 . S
Li882 O942 1.956 . S
Li882 O943 1.970 . S
Li883 N933 1.990 . S
Li883 O941 1.961 . S
Li883 O942 1.970 . S
Li883 O943 1.956 . S
C884 C886 1.348 1_455 S
C884 C887 1.356 . S
C884 O940 1.325 . S
N885 C888 1.314 . S
N885 C889 1.279 1_655 S
C886 C884 1.348 1_655 S
C886 C888 1.353 . S
C886 H944 0.929 . S
C887 C884 1.356 . S
C887 C889 1.358 . S
C887 H945 0.930 . S
C888 N885 1.314 . S
C888 C886 1.353 . S
C888 H946 0.930 . S
C889 N885 1.279 1_455 S
C889 C887 1.358 . S
C889 H947 0.930 . S
C890 C893 1.348 . S
C890 C894 1.356 . S
C890 O941 1.325 . S
C891 N892 1.279 . S
C891 C894 1.358 . S
C891 H948 0.930 . S
N892 C891 1.279 . S
N892 C895 1.314 . S
C893 C890 1.348 . S
C893 C895 1.353 . S
C893 H949 0.929 . S
C894 C890 1.356 . S
C894 C891 1.358 . S
C894 H950 0.930 . S
C895 N892 1.314 . S
C895 C893 1.353 . S
C895 H951 0.930 . S
C896 N897 1.314 . S
C896 C901 1.353 . S
C896 H902 0.930 . S
N897 Li880 1.990 . S
N897 C896 1.314 . S
N897 C899 1.279 . S
C898 C899 1.358 . S
C898 C900 1.356 . S
C898 H952 0.930 . S
C899 N897 1.279 . S
C899 C898 1.358 . S
C899 H903 0.930 . S
C900 C898 1.356 . S
C900 C901 1.348 . S
C901 C896 1.353 . S
C901 C900 1.348 . S
C901 H953 0.929 . S
H902 C896 0.930 . S
H903 C899 0.930 . S
C904 N905 1.314 . S
C904 C906 1.353 . S
C904 H910 0.930 . S
N905 Li881 1.990 . S
N905 C904 1.314 . S
N905 C908 1.279 . S
C906 C904 1.353 . S
C906 C909 1.348 . S
C906 H954 0.929 . S
C907 C908 1.358 . S
C907 C909 1.356 . S
C907 H955 0.930 . S
C908 N905 1.279 . S
C908 C907 1.358 . S
C908 H911 0.930 . S
C909 C906 1.348 . S
C909 C907 1.356 . S
H910 C904 0.930 . S
H911 C908 0.930 . S
C912 C914 1.348 . S
C912 C915 1.356 . S
C912 O942 1.325 . S
N913 C916 1.314 . S
N913 C917 1.279 . S
C914 C912 1.348 . S
C914 C916 1.353 . S
C914 H956 0.929 . S
C915 C912 1.356 . S
C915 C917 1.358 . S
C915 H957 0.930 . S
C916 N913 1.314 . S
C916 C914 1.353 . S
C916 H958 0.930 . S
C917 N913 1.279 . S
C917 C915 1.358 . S
C917 H959 0.930 . S
C918 C919 1.348 . S
C918 C920 1.356 . S
C918 O943 1.325 1_655 S
C919 C918 1.348 . S
C919 C921 1.353 . S
C919 H960 0.942 . S
C920 C918 1.356 . S
C920 C922 1.358 . S
C920 H961 0.930 . S
C921 C919 1.353 . S
C921 N923 1.314 . S
C921 H962 0.930 . S
C922 C920 1.358 . S
C922 N923 1.279 . S
C922 H963 0.930 . S
N923 C921 1.314 . S
N923 C922 1.279 . S
C924 C926 1.353 1_455 S
C924 N927 1.314 . S
C924 H930 0.930 1_455 S
C925 N927 1.279 . S
C925 C928 1.358 . S
C925 H931 0.930 . S
C926 C924 1.353 1_655 S
C926 C929 1.348 1_655 S
C926 H964 0.929 . S
N927 Li882 1.990 . S
N927 C924 1.314 . S
N927 C925 1.279 . S
C928 C925 1.358 . S
C928 C929 1.356 . S
C928 H965 0.930 . S
C929 C926 1.348 1_455 S
C929 C928 1.356 . S
H930 C924 0.930 1_655 S
H931 C925 0.930 . S
C932 N933 1.314 . S
C932 C934 1.353 . S
C932 H938 0.930 . S
N933 Li883 1.990 . S
N933 C932 1.314 . S
N933 C936 1.279 . S
C934 C932 1.353 . S
C934 C937 1.348 . S
C934 H966 0.929 . S
C935 C936 1.358 . S
C935 C937 1.356 . S
C935 H967 0.930 . S
C936 N933 1.279 . S
C936 C935 1.358 . S
C936 H939 0.930 . S
C937 C934 1.348 . S
C937 C935 1.356 . S
H938 C932 0.930 . S
H939 C936 0.930 . S
O940 Li880 1.956 . S
O940 Li881 1.970 1_455 S
O940 Li882 1.961 . S
O940 C884 1.325 . S
O941 Li880 1.970 . S
O941 Li881 1.956 1_455 S
O941 Li883 1.961 . S
O941 C890 1.325 . S
O942 Li880 1.961 . S
O942 Li882 1.956 . S
O942 Li883 1.970 . S
O942 C912 1.325 . S
O943 Li881 1.961 1_455 S
O943 Li882 1.970 . S
O943 Li883 1.956 . S
O943 C918 1.325 1_455 S
H944 C886 0.929 . S
H945 C887 0.930 . S
H946 C888 0.930 . S
H947 C889 0.930 . S
H948 C891 0.930 . S
H949 C893 0.929 . S
H950 C894 0.930 . S
H951 C895 0.930 . S
H952 C898 0.930 . S
H953 C901 0.929 . S
H954 C906 0.929 . S
H955 C907 0.930 . S
H956 C914 0.929 . S
H957 C915 0.930 . S
H958 C916 0.930 . S
H959 C917 0.930 . S
H960 C919 0.942 . S
H961 C920 0.930 . S
H962 C921 0.930 . S
H963 C922 0.930 . S
H964 C926 0.929 . S
H965 C928 0.930 . S
H966 C934 0.929 . S
H967 C935 0.930 . S
Li968 N985 1.990 . S
Li968 O1028 1.956 . S
Li968 O1029 1.970 . S
Li968 O1030 1.961 . S
Li969 N993 1.990 . S
Li969 O1028 1.970 . S
Li969 O1029 1.956 . S
Li969 O1031 1.961 . S
Li970 N1015 1.990 . S
Li970 O1028 1.961 . S
Li970 O1030 1.956 . S
Li970 O1031 1.970 . S
Li971 N1021 1.990 . S
Li971 O1029 1.961 . S
Li971 O1030 1.970 . S
Li971 O1031 1.956 . S
C972 C974 1.348 . S
C972 C975 1.356 . S
C972 O1028 1.325 . S
N973 C976 1.314 . S
N973 C977 1.279 . S
C974 C972 1.348 . S
C974 C976 1.353 . S
C974 H1032 0.929 . S
C975 C972 1.356 . S
C975 C977 1.358 . S
C975 H1033 0.930 . S
C976 N973 1.314 . S
C976 C974 1.353 . S
C976 H1034 0.930 . S
C977 N973 1.279 . S
C977 C975 1.358 . S
C977 H1035 0.930 . S
C978 C981 1.348 . S
C978 C982 1.356 . S
C978 O1029 1.325 . S
C979 N980 1.279 . S
C979 C982 1.358 . S
C979 H1036 0.930 . S
N980 C979 1.279 . S
N980 C983 1.314 . S
C981 C978 1.348 . S
C981 C983 1.353 . S
C981 H1037 0.929 . S
C982 C978 1.356 . S
C982 C979 1.358 . S
C982 H1038 0.930 . S
C983 N980 1.314 . S
C983 C981 1.353 . S
C983 H1039 0.930 . S
C984 N985 1.314 . S
C984 C989 1.353 . S
C984 H990 0.930 . S
N985 Li968 1.990 . S
N985 C984 1.314 . S
N985 C987 1.279 . S
C986 C987 1.358 . S
C986 C988 1.356 . S
C986 H1040 0.930 . S
C987 N985 1.279 . S
C987 C986 1.358 . S
C987 H991 0.930 . S
C988 C986 1.356 . S
C988 C989 1.348 . S
C989 C984 1.353 . S
C989 C988 1.348 . S
C989 H1041 0.929 . S
H990 C984 0.930 . S
H991 C987 0.930 . S
C992 N993 1.314 . S
C992 C994 1.353 . S
C992 H998 0.930 . S
N993 Li969 1.990 . S
N993 C992 1.314 . S
N993 C996 1.279 . S
C994 C992 1.353 . S
C994 C997 1.348 . S
C994 H1042 0.929 . S
C995 C996 1.358 . S
C995 C997 1.356 . S
C995 H1043 0.930 . S
C996 N993 1.279 . S
C996 C995 1.358 . S
C996 H999 0.930 . S
C997 C994 1.348 . S
C997 C995 1.356 . S
H998 C992 0.930 . S
H999 C996 0.930 . S
C1000 C1002 1.348 . S
C1000 C1003 1.356 . S
C1000 O1030 1.325 . S
N1001 C1004 1.314 . S
N1001 C1005 1.279 . S
C1002 C1000 1.348 . S
C1002 C1004 1.353 . S
C1002 H1044 0.929 . S
C1003 C1000 1.356 . S
C1003 C1005 1.358 . S
C1003 H1045 0.930 . S
C1004 N1001 1.314 . S
C1004 C1002 1.353 . S
C1004 H1046 0.930 . S
C1005 N1001 1.279 . S
C1005 C1003 1.358 . S
C1005 H1047 0.930 . S
C1006 C1007 1.348 . S
C1006 C1008 1.356 . S
C1006 O1031 1.325 . S
C1007 C1006 1.348 . S
C1007 C1009 1.353 . S
C1007 H1048 0.929 . S
C1008 C1006 1.356 . S
C1008 C1010 1.358 . S
C1008 H1049 0.930 . S
C1009 C1007 1.353 . S
C1009 N1011 1.314 . S
C1009 H1050 0.930 . S
C1010 C1008 1.358 . S
C1010 N1011 1.279 . S
C1010 H1051 0.930 . S
N1011 C1009 1.314 . S
N1011 C1010 1.279 . S
C1012 C1014 1.353 . S
C1012 N1015 1.314 . S
C1012 H1018 0.930 . S
C1013 N1015 1.279 . S
C1013 C1016 1.358 . S
C1013 H1019 0.930 . S
C1014 C1012 1.353 . S
C1014 C1017 1.348 . S
C1014 H1052 0.929 . S
N1015 Li970 1.990 . S
N1015 C1012 1.314 . S
N1015 C1013 1.279 . S
C1016 C1013 1.358 . S
C1016 C1017 1.356 . S
C1016 H1053 0.930 . S
C1017 C1014 1.348 . S
C1017 C1016 1.356 . S
H1018 C1012 0.930 . S
H1019 C1013 0.930 . S
C1020 N1021 1.314 . S
C1020 C1022 1.353 . S
C1020 H1026 0.930 . S
N1021 Li971 1.990 . S
N1021 C1020 1.314 . S
N1021 C1024 1.279 . S
C1022 C1020 1.353 . S
C1022 C1025 1.348 . S
C1022 H1054 0.929 . S
C1023 C1024 1.358 . S
C1023 C1025 1.356 . S
C1023 H1055 0.930 . S
C1024 N1021 1.279 . S
C1024 C1023 1.358 . S
C1024 H1027 0.930 . S
C1025 C1022 1.348 . S
C1025 C1023 1.356 . S
H1026 C1020 0.930 . S
H1027 C1024 0.930 . S
O1028 Li968 1.956 . S
O1028 Li969 1.970 . S
O1028 Li970 1.961 . S
O1028 C972 1.325 . S
O1029 Li968 1.970 . S
O1029 Li969 1.956 . S
O1029 Li971 1.961 . S
O1029 C978 1.325 . S
O1030 Li968 1.961 . S
O1030 Li970 1.956 . S
O1030 Li971 1.970 . S
O1030 C1000 1.325 . S
O1031 Li969 1.961 . S
O1031 Li970 1.970 . S
O1031 Li971 1.956 . S
O1031 C1006 1.325 . S
H1032 C974 0.929 . S
H1033 C975 0.930 . S
H1034 C976 0.930 . S
H1035 C977 0.930 . S
H1036 C979 0.930 . S
H1037 C981 0.929 . S
H1038 C982 0.930 . S
H1039 C983 0.930 . S
H1040 C986 0.930 . S
H1041 C989 0.929 . S
H1042 C994 0.929 . S
H1043 C995 0.930 . S
H1044 C1002 0.929 . S
H1045 C1003 0.930 . S
H1046 C1004 0.930 . S
H1047 C1005 0.930 . S
H1048 C1007 0.929 . S
H1049 C1008 0.930 . S
H1050 C1009 0.930 . S
H1051 C1010 0.930 . S
H1052 C1014 0.929 . S
H1053 C1016 0.930 . S
H1054 C1022 0.929 . S
H1055 C1023 0.930 . S
Li1056 N1073 1.990 . S
Li1056 O1116 1.956 1_565 S
Li1056 O1117 1.970 1_565 S
Li1056 O1118 1.961 1_565 S
Li1057 N1081 1.990 . S
Li1057 O1116 1.970 . S
Li1057 O1117 1.956 . S
Li1057 O1119 1.961 . S
Li1058 N1103 1.990 . S
Li1058 O1116 1.961 . S
Li1058 O1118 1.956 . S
Li1058 O1119 1.970 . S
Li1059 N1109 1.990 . S
Li1059 O1117 1.961 . S
Li1059 O1118 1.970 . S
Li1059 O1119 1.956 . S
C1060 C1062 1.348 . S
C1060 C1063 1.356 . S
C1060 O1116 1.325 1_565 S
N1061 C1064 1.314 . S
N1061 C1065 1.279 . S
C1062 C1060 1.348 . S
C1062 C1064 1.353 . S
C1062 H1120 0.929 . S
C1063 C1060 1.356 . S
C1063 C1065 1.358 . S
C1063 H1121 0.930 . S
C1064 N1061 1.314 . S
C1064 C1062 1.353 . S
C1064 H1122 0.930 . S
C1065 N1061 1.279 . S
C1065 C1063 1.358 . S
C1065 H1123 0.930 . S
C1066 C1069 1.348 1_545 S
C1066 C1070 1.356 . S
C1066 O1117 1.325 . S
C1067 N1068 1.279 1_545 S
C1067 C1070 1.358 . S
C1067 H1124 0.930 . S
N1068 C1067 1.279 1_565 S
N1068 C1071 1.314 . S
C1069 C1066 1.348 1_565 S
C1069 C1071 1.353 . S
C1069 H1125 0.929 . S
C1070 C1066 1.356 . S
C1070 C1067 1.358 . S
C1070 H1126 0.930 . S
C1071 N1068 1.314 . S
C1071 C1069 1.353 . S
C1071 H1127 0.930 . S
C1072 N1073 1.314 . S
C1072 C1077 1.353 . S
C1072 H1078 0.930 . S
N1073 Li1056 1.990 . S
N1073 C1072 1.314 . S
N1073 C1075 1.279 . S
C1074 C1075 1.358 . S
C1074 C1076 1.356 . S
C1074 H1128 0.930 . S
C1075 N1073 1.279 . S
C1075 C1074 1.358 . S
C1075 H1079 0.930 . S
C1076 C1074 1.356 . S
C1076 C1077 1.348 . S
C1077 C1072 1.353 . S
C1077 C1076 1.348 . S
C1077 H1129 0.929 . S
H1078 C1072 0.930 . S
H1079 C1075 0.930 . S
C1080 N1081 1.314 . S
C1080 C1082 1.353 . S
C1080 H1086 0.930 . S
N1081 Li1057 1.990 . S
N1081 C1080 1.314 . S
N1081 C1084 1.279 . S
C1082 C1080 1.353 . S
C1082 C1085 1.348 . S
C1082 H1130 0.929 . S
C1083 C1084 1.358 . S
C1083 C1085 1.356 . S
C1083 H1131 0.930 1_545 S
C1084 N1081 1.279 . S
C1084 C1083 1.358 . S
C1084 H1087 0.926 1_545 S
C1085 C1082 1.348 . S
C1085 C1083 1.356 . S
H1086 C1080 0.930 . S
H1087 C1084 0.926 1_565 S
C1088 C1090 1.348 . S
C1088 C1091 1.356 . S
C1088 O1118 1.325 . S
N1089 C1092 1.314 . S
N1089 C1093 1.279 . S
C1090 C1088 1.348 . S
C1090 C1092 1.353 . S
C1090 H1132 0.929 . S
C1091 C1088 1.356 . S
C1091 C1093 1.358 . S
C1091 H1133 0.930 . S
C1092 N1089 1.314 . S
C1092 C1090 1.353 . S
C1092 H1134 0.930 . S
C1093 N1089 1.279 . S
C1093 C1091 1.358 . S
C1093 H1135 0.930 . S
C1094 C1095 1.348 . S
C1094 C1096 1.356 . S
C1094 O1119 1.325 . S
C1095 C1094 1.348 . S
C1095 C1097 1.353 . S
C1095 H1136 0.929 . S
C1096 C1094 1.356 . S
C1096 C1098 1.358 . S
C1096 H1137 0.930 . S
C1097 C1095 1.353 . S
C1097 N1099 1.314 . S
C1097 H1138 0.930 . S
C1098 C1096 1.358 . S
C1098 N1099 1.279 . S
C1098 H1139 0.930 . S
N1099 C1097 1.314 . S
N1099 C1098 1.279 . S
C1100 C1102 1.353 . S
C1100 N1103 1.314 . S
C1100 H1106 0.930 . S
C1101 N1103 1.279 . S
C1101 C1104 1.358 . S
C1101 H1107 0.930 . S
C1102 C1100 1.353 . S
C1102 C1105 1.348 . S
C1102 H1140 0.929 . S
N1103 Li1058 1.990 . S
N1103 C1100 1.314 . S
N1103 C1101 1.279 . S
C1104 C1101 1.358 . S
C1104 C1105 1.356 . S
C1104 H1141 0.930 . S
C1105 C1102 1.348 . S
C1105 C1104 1.356 . S
H1106 C1100 0.930 . S
H1107 C1101 0.930 . S
C1108 N1109 1.314 . S
C1108 C1110 1.353 . S
C1108 H1114 0.930 . S
N1109 Li1059 1.990 . S
N1109 C1108 1.314 . S
N1109 C1112 1.279 . S
C1110 C1108 1.353 . S
C1110 C1113 1.348 . S
C1110 H1142 0.929 . S
C1111 C1112 1.358 . S
C1111 C1113 1.356 . S
C1111 H1143 0.930 . S
C1112 N1109 1.279 . S
C1112 C1111 1.358 . S
C1112 H1115 0.930 . S
C1113 C1110 1.348 . S
C1113 C1111 1.356 . S
H1114 C1108 0.930 . S
H1115 C1112 0.930 . S
O1116 Li1056 1.956 1_545 S
O1116 Li1057 1.970 . S
O1116 Li1058 1.961 . S
O1116 C1060 1.325 1_545 S
O1117 Li1056 1.970 1_545 S
O1117 Li1057 1.956 . S
O1117 Li1059 1.961 . S
O1117 C1066 1.325 . S
O1118 Li1056 1.961 1_545 S
O1118 Li1058 1.956 . S
O1118 Li1059 1.970 . S
O1118 C1088 1.325 . S
O1119 Li1057 1.961 . S
O1119 Li1058 1.970 . S
O1119 Li1059 1.956 . S
O1119 C1094 1.325 . S
H1120 C1062 0.929 . S
H1121 C1063 0.930 . S
H1122 C1064 0.930 . S
H1123 C1065 0.930 . S
H1124 C1067 0.930 . S
H1125 C1069 0.929 . S
H1126 C1070 0.930 . S
H1127 C1071 0.930 . S
H1128 C1074 0.930 . S
H1129 C1077 0.929 . S
H1130 C1082 0.929 . S
H1131 C1083 0.930 1_565 S
H1132 C1090 0.929 . S
H1133 C1091 0.930 . S
H1134 C1092 0.930 . S
H1135 C1093 0.930 . S
H1136 C1095 0.929 . S
H1137 C1096 0.930 . S
H1138 C1097 0.930 . S
H1139 C1098 0.930 . S
H1140 C1102 0.929 . S
H1141 C1104 0.930 . S
H1142 C1110 0.929 . S
H1143 C1111 0.930 . S
Li1144 N1161 1.990 . S
Li1144 O1204 1.956 1_455 S
Li1144 O1205 1.970 1_455 S
Li1144 O1206 1.961 1_455 S
Li1145 N1169 1.990 . S
Li1145 O1204 1.970 . S
Li1145 O1205 1.956 . S
Li1145 O1207 1.961 . S
Li1146 N1191 1.990 . S
Li1146 O1204 1.961 . S
Li1146 O1206 1.956 . S
Li1146 O1207 1.970 . S
Li1147 N1197 1.990 . S
Li1147 O1205 1.961 . S
Li1147 O1206 1.970 . S
Li1147 O1207 1.956 . S
C1148 C1150 1.348 . S
C1148 C1151 1.356 . S
C1148 O1204 1.325 1_455 S
N1149 C1152 1.314 . S
N1149 C1153 1.279 . S
C1150 C1148 1.348 . S
C1150 C1152 1.353 . S
C1150 H1208 0.929 . S
C1151 C1148 1.356 . S
C1151 C1153 1.358 . S
C1151 H1209 0.930 . S
C1152 N1149 1.314 . S
C1152 C1150 1.353 . S
C1152 H1210 0.930 . S
C1153 N1149 1.279 . S
C1153 C1151 1.358 . S
C1153 H1211 0.930 . S
C1154 C1157 1.348 1_655 S
C1154 C1158 1.356 . S
C1154 O1205 1.325 . S
C1155 N1156 1.279 1_655 S
C1155 C1158 1.358 . S
C1155 H1212 0.930 . S
N1156 C1155 1.279 1_455 S
N1156 C1159 1.314 . S
C1157 C1154 1.348 1_455 S
C1157 C1159 1.353 . S
C1157 H1213 0.929 . S
C1158 C1154 1.356 . S
C1158 C1155 1.358 . S
C1158 H1214 0.930 . S
C1159 N1156 1.314 . S
C1159 C1157 1.353 . S
C1159 H1215 0.930 . S
C1160 N1161 1.314 . S
C1160 C1165 1.353 . S
C1160 H1166 0.930 . S
N1161 Li1144 1.990 . S
N1161 C1160 1.314 . S
N1161 C1163 1.279 . S
C1162 C1163 1.358 . S
C1162 C1164 1.356 . S
C1162 H1216 0.930 . S
C1163 N1161 1.279 . S
C1163 C1162 1.358 . S
C1163 H1167 0.930 . S
C1164 C1162 1.356 . S
C1164 C1165 1.348 . S
C1165 C1160 1.353 . S
C1165 C1164 1.348 . S
C1165 H1217 0.929 . S
H1166 C1160 0.930 . S
H1167 C1163 0.930 . S
C1168 N1169 1.314 . S
C1168 C1170 1.353 . S
C1168 H1174 0.930 . S
N1169 Li1145 1.990 . S
N1169 C1168 1.314 . S
N1169 C1172 1.279 . S
C1170 C1168 1.353 . S
C1170 C1173 1.348 . S
C1170 H1218 0.929 . S
C1171 C1172 1.358 . S
C1171 C1173 1.356 . S
C1171 H1219 0.930 1_655 S
C1172 N1169 1.279 . S
C1172 C1171 1.358 . S
C1172 H1175 0.930 1_655 S
C1173 C1170 1.348 . S
C1173 C1171 1.356 . S
H1174 C1168 0.930 . S
H1175 C1172 0.930 1_455 S
C1176 C1178 1.348 . S
C1176 C1179 1.356 . S
C1176 O1206 1.325 . S
N1177 C1180 1.314 . S
N1177 C1181 1.279 . S
C1178 C1176 1.348 . S
C1178 C1180 1.353 . S
C1178 H1220 0.929 . S
C1179 C1176 1.356 . S
C1179 C1181 1.358 . S
C1179 H1221 0.938 . S
C1180 N1177 1.314 . S
C1180 C1178 1.353 . S
C1180 H1222 0.930 . S
C1181 N1177 1.279 . S
C1181 C1179 1.358 . S
C1181 H1223 0.930 . S
C1182 C1183 1.348 . S
C1182 C1184 1.356 . S
C1182 O1207 1.325 . S
C1183 C1182 1.348 . S
C1183 C1185 1.353 . S
C1183 H1224 0.929 . S
C1184 C1182 1.356 . S
C1184 C1186 1.358 . S
C1184 H1225 0.930 . S
C1185 C1183 1.353 . S
C1185 N1187 1.314 . S
C1185 H1226 0.930 . S
C1186 C1184 1.358 . S
C1186 N1187 1.279 . S
C1186 H1227 0.930 . S
N1187 C1185 1.314 . S
N1187 C1186 1.279 . S
C1188 C1190 1.353 . S
C1188 N1191 1.314 . S
C1188 H1194 0.930 . S
C1189 N1191 1.279 . S
C1189 C1192 1.358 . S
C1189 H1195 0.930 . S
C1190 C1188 1.353 . S
C1190 C1193 1.348 . S
C1190 H1228 0.929 . S
N1191 Li1146 1.990 . S
N1191 C1188 1.314 . S
N1191 C1189 1.279 . S
C1192 C1189 1.358 . S
C1192 C1193 1.356 . S
C1192 H1229 0.930 . S
C1193 C1190 1.348 . S
C1193 C1192 1.356 . S
H1194 C1188 0.930 . S
H1195 C1189 0.930 . S
C1196 N1197 1.314 . S
C1196 C1198 1.353 . S
C1196 H1202 0.930 . S
N1197 Li1147 1.990 . S
N1197 C1196 1.314 . S
N1197 C1200 1.279 . S
C1198 C1196 1.353 . S
C1198 C1201 1.348 . S
C1198 H1230 0.929 . S
C1199 C1200 1.358 . S
C1199 C1201 1.356 . S
C1199 H1231 0.930 . S
C1200 N1197 1.279 . S
C1200 C1199 1.358 . S
C1200 H1203 0.930 . S
C1201 C1198 1.348 . S
C1201 C1199 1.356 . S
H1202 C1196 0.930 . S
H1203 C1200 0.930 . S
O1204 Li1144 1.956 1_655 S
O1204 Li1145 1.970 . S
O1204 Li1146 1.961 . S
O1204 C1148 1.325 1_655 S
O1205 Li1144 1.970 1_655 S
O1205 Li1145 1.956 . S
O1205 Li1147 1.961 . S
O1205 C1154 1.325 . S
O1206 Li1144 1.961 1_655 S
O1206 Li1146 1.956 . S
O1206 Li1147 1.970 . S
O1206 C1176 1.325 . S
O1207 Li1145 1.961 . S
O1207 Li1146 1.970 . S
O1207 Li1147 1.956 . S
O1207 C1182 1.325 . S
H1208 C1150 0.929 . S
H1209 C1151 0.930 . S
H1210 C1152 0.930 . S
H1211 C1153 0.930 . S
H1212 C1155 0.930 . S
H1213 C1157 0.929 . S
H1214 C1158 0.930 . S
H1215 C1159 0.930 . S
H1216 C1162 0.930 . S
H1217 C1165 0.929 . S
H1218 C1170 0.929 . S
H1219 C1171 0.930 1_455 S
H1220 C1178 0.929 . S
H1221 C1179 0.938 . S
H1222 C1180 0.930 . S
H1223 C1181 0.930 . S
H1224 C1183 0.929 . S
H1225 C1184 0.930 . S
H1226 C1185 0.930 . S
H1227 C1186 0.930 . S
H1228 C1190 0.929 . S
H1229 C1192 0.930 . S
H1230 C1198 0.929 . S
H1231 C1199 0.930 . S
Li1232 N1249 1.990 . S
Li1232 O1292 1.956 . S
Li1232 O1293 1.970 . S
Li1232 O1294 1.961 . S
Li1233 N1257 1.990 . S
Li1233 O1292 1.970 . S
Li1233 O1293 1.956 . S
Li1233 O1295 1.961 . S
Li1234 N1279 1.990 . S
Li1234 O1292 1.961 . S
Li1234 O1294 1.956 . S
Li1234 O1295 1.970 . S
Li1235 N1285 1.990 . S
Li1235 O1293 1.961 . S
Li1235 O1294 1.970 . S
Li1235 O1295 1.956 . S
C1236 C1238 1.348 . S
C1236 C1239 1.356 . S
C1236 O1292 1.325 . S
N1237 C1240 1.314 . S
N1237 C1241 1.279 . S
C1238 C1236 1.348 . S
C1238 C1240 1.353 . S
C1238 H1296 0.929 . S
C1239 C1236 1.356 . S
C1239 C1241 1.358 . S
C1239 H1297 0.930 . S
C1240 N1237 1.314 . S
C1240 C1238 1.353 . S
C1240 H1298 0.930 . S
C1241 N1237 1.279 . S
C1241 C1239 1.358 . S
C1241 H1299 0.930 . S
C1242 C1245 1.348 . S
C1242 C1246 1.356 . S
C1242 O1293 1.325 . S
C1243 N1244 1.279 . S
C1243 C1246 1.358 . S
C1243 H1300 0.930 . S
N1244 C1243 1.279 . S
N1244 C1247 1.314 . S
C1245 C1242 1.348 . S
C1245 C1247 1.353 . S
C1245 H1301 0.929 . S
C1246 C1242 1.356 . S
C1246 C1243 1.358 . S
C1246 H1302 0.930 . S
C1247 N1244 1.314 . S
C1247 C1245 1.353 . S
C1247 H1303 0.930 . S
C1248 N1249 1.314 . S
C1248 C1253 1.353 . S
C1248 H1254 0.930 . S
N1249 Li1232 1.990 . S
N1249 C1248 1.314 . S
N1249 C1251 1.279 . S
C1250 C1251 1.358 . S
C1250 C1252 1.356 . S
C1250 H1304 0.930 . S
C1251 N1249 1.279 . S
C1251 C1250 1.358 . S
C1251 H1255 0.930 . S
C1252 C1250 1.356 . S
C1252 C1253 1.348 . S
C1253 C1248 1.353 . S
C1253 C1252 1.348 . S
C1253 H1305 0.929 . S
H1254 C1248 0.930 . S
H1255 C1251 0.930 . S
C1256 N1257 1.314 . S
C1256 C1258 1.353 . S
C1256 H1262 0.930 . S
N1257 Li1233 1.990 . S
N1257 C1256 1.314 . S
N1257 C1260 1.279 . S
C1258 C1256 1.353 . S
C1258 C1261 1.348 . S
C1258 H1306 0.929 . S
C1259 C1260 1.358 . S
C1259 C1261 1.356 . S
C1259 H1307 0.930 . S
C1260 N1257 1.279 . S
C1260 C1259 1.358 . S
C1260 H1263 0.930 . S
C1261 C1258 1.348 . S
C1261 C1259 1.356 . S
H1262 C1256 0.930 . S
H1263 C1260 0.930 . S
C1264 C1266 1.348 . S
C1264 C1267 1.356 . S
C1264 O1294 1.325 . S
N1265 C1268 1.314 . S
N1265 C1269 1.279 . S
C1266 C1264 1.348 . S
C1266 C1268 1.353 . S
C1266 H1308 0.929 . S
C1267 C1264 1.356 . S
C1267 C1269 1.358 . S
C1267 H1309 0.930 . S
C1268 N1265 1.314 . S
C1268 C1266 1.353 . S
C1268 H1310 0.930 . S
C1269 N1265 1.279 . S
C1269 C1267 1.358 . S
C1269 H1311 0.930 . S
C1270 C1271 1.348 . S
C1270 C1272 1.356 . S
C1270 O1295 1.325 . S
C1271 C1270 1.348 . S
C1271 C1273 1.353 . S
C1271 H1312 0.929 . S
C1272 C1270 1.356 . S
C1272 C1274 1.358 . S
C1272 H1313 0.930 . S
C1273 C1271 1.353 . S
C1273 N1275 1.314 . S
C1273 H1314 0.930 . S
C1274 C1272 1.358 . S
C1274 N1275 1.279 . S
C1274 H1315 0.930 . S
N1275 C1273 1.314 . S
N1275 C1274 1.279 . S
C1276 C1278 1.353 . S
C1276 N1279 1.314 . S
C1276 H1282 0.930 . S
C1277 N1279 1.279 . S
C1277 C1280 1.358 . S
C1277 H1283 0.930 . S
C1278 C1276 1.353 . S
C1278 C1281 1.348 . S
C1278 H1316 0.929 . S
N1279 Li1234 1.990 . S
N1279 C1276 1.314 . S
N1279 C1277 1.279 . S
C1280 C1277 1.358 . S
C1280 C1281 1.356 . S
C1280 H1317 0.930 . S
C1281 C1278 1.348 . S
C1281 C1280 1.356 . S
H1282 C1276 0.930 . S
H1283 C1277 0.930 . S
C1284 N1285 1.314 . S
C1284 C1286 1.353 . S
C1284 H1290 0.930 . S
N1285 Li1235 1.990 . S
N1285 C1284 1.314 . S
N1285 C1288 1.279 . S
C1286 C1284 1.353 . S
C1286 C1289 1.348 . S
C1286 H1318 0.929 . S
C1287 C1288 1.358 . S
C1287 C1289 1.356 . S
C1287 H1319 0.930 . S
C1288 N1285 1.279 . S
C1288 C1287 1.358 . S
C1288 H1291 0.930 . S
C1289 C1286 1.348 . S
C1289 C1287 1.356 . S
H1290 C1284 0.930 . S
H1291 C1288 0.930 . S
O1292 Li1232 1.956 . S
O1292 Li1233 1.970 . S
O1292 Li1234 1.961 . S
O1292 C1236 1.325 . S
O1293 Li1232 1.970 . S
O1293 Li1233 1.956 . S
O1293 Li1235 1.961 . S
O1293 C1242 1.325 . S
O1294 Li1232 1.961 . S
O1294 Li1234 1.956 . S
O1294 Li1235 1.970 . S
O1294 C1264 1.325 . S
O1295 Li1233 1.961 . S
O1295 Li1234 1.970 . S
O1295 Li1235 1.956 . S
O1295 C1270 1.325 . S
H1296 C1238 0.929 . S
H1297 C1239 0.930 . S
H1298 C1240 0.930 . S
H1299 C1241 0.930 . S
H1300 C1243 0.930 . S
H1301 C1245 0.929 . S
H1302 C1246 0.930 . S
H1303 C1247 0.930 . S
H1304 C1250 0.930 . S
H1305 C1253 0.929 . S
H1306 C1258 0.929 . S
H1307 C1259 0.930 . S
H1308 C1266 0.929 . S
H1309 C1267 0.930 . S
H1310 C1268 0.930 . S
H1311 C1269 0.930 . S
H1312 C1271 0.929 . S
H1313 C1272 0.930 . S
H1314 C1273 0.930 . S
H1315 C1274 0.930 . S
H1316 C1278 0.929 . S
H1317 C1280 0.930 . S
H1318 C1286 0.929 . S
H1319 C1287 0.930 . S
Li1320 N1337 1.990 . S
Li1320 O1380 1.956 . S
Li1320 O1381 1.970 . S
Li1320 O1382 1.961 . S
Li1321 N1345 1.990 . S
Li1321 O1380 1.970 . S
Li1321 O1381 1.956 . S
Li1321 O1383 1.961 . S
Li1322 N1367 1.990 . S
Li1322 O1380 1.961 . S
Li1322 O1382 1.956 . S
Li1322 O1383 1.970 . S
Li1323 N1373 1.990 . S
Li1323 O1381 1.961 . S
Li1323 O1382 1.970 . S
Li1323 O1383 1.956 . S
C1324 C1326 1.348 . S
C1324 C1327 1.356 . S
C1324 O1380 1.325 . S
N1325 C1328 1.314 . S
N1325 C1329 1.279 . S
C1326 C1324 1.348 . S
C1326 C1328 1.353 . S
C1326 H1384 0.929 . S
C1327 C1324 1.356 . S
C1327 C1329 1.358 . S
C1327 H1385 0.930 . S
C1328 N1325 1.314 . S
C1328 C1326 1.353 . S
C1328 H1386 0.930 . S
C1329 N1325 1.279 . S
C1329 C1327 1.358 . S
C1329 H1387 0.930 . S
C1330 C1333 1.348 . S
C1330 C1334 1.356 . S
C1330 O1381 1.325 . S
C1331 N1332 1.279 . S
C1331 C1334 1.358 . S
C1331 H1388 0.930 . S
N1332 C1331 1.279 . S
N1332 C1335 1.314 . S
C1333 C1330 1.348 . S
C1333 C1335 1.353 . S
C1333 H1389 0.929 . S
C1334 C1330 1.356 . S
C1334 C1331 1.358 . S
C1334 H1390 0.930 . S
C1335 N1332 1.314 . S
C1335 C1333 1.353 . S
C1335 H1391 0.930 . S
C1336 N1337 1.314 . S
C1336 C1341 1.353 . S
C1336 H1342 0.930 . S
N1337 Li1320 1.990 . S
N1337 C1336 1.314 . S
N1337 C1339 1.279 . S
C1338 C1339 1.358 . S
C1338 C1340 1.356 . S
C1338 H1392 0.930 . S
C1339 N1337 1.279 . S
C1339 C1338 1.358 . S
C1339 H1343 0.930 . S
C1340 C1338 1.356 . S
C1340 C1341 1.348 . S
C1341 C1336 1.353 . S
C1341 C1340 1.348 . S
C1341 H1393 0.929 . S
H1342 C1336 0.930 . S
H1343 C1339 0.930 . S
C1344 N1345 1.314 . S
C1344 C1346 1.353 . S
C1344 H1350 0.930 . S
N1345 Li1321 1.990 . S
N1345 C1344 1.314 . S
N1345 C1348 1.279 . S
C1346 C1344 1.353 . S
C1346 C1349 1.348 . S
C1346 H1394 0.929 . S
C1347 C1348 1.358 . S
C1347 C1349 1.356 . S
C1347 H1395 0.930 . S
C1348 N1345 1.279 . S
C1348 C1347 1.358 . S
C1348 H1351 0.930 . S
C1349 C1346 1.348 . S
C1349 C1347 1.356 . S
H1350 C1344 0.930 . S
H1351 C1348 0.930 . S
C1352 C1354 1.348 . S
C1352 C1355 1.356 . S
C1352 O1382 1.325 . S
N1353 C1356 1.314 . S
N1353 C1357 1.279 . S
C1354 C1352 1.348 . S
C1354 C1356 1.353 . S
C1354 H1396 0.929 . S
C1355 C1352 1.356 . S
C1355 C1357 1.358 . S
C1355 H1397 0.930 . S
C1356 N1353 1.314 . S
C1356 C1354 1.353 . S
C1356 H1398 0.930 . S
C1357 N1353 1.279 . S
C1357 C1355 1.358 . S
C1357 H1399 0.930 . S
C1358 C1359 1.348 . S
C1358 C1360 1.356 . S
C1358 O1383 1.325 . S
C1359 C1358 1.348 . S
C1359 C1361 1.353 . S
C1359 H1400 0.929 . S
C1360 C1358 1.356 . S
C1360 C1362 1.358 . S
C1360 H1401 0.930 . S
C1361 C1359 1.353 . S
C1361 N1363 1.314 . S
C1361 H1402 0.930 . S
C1362 C1360 1.358 . S
C1362 N1363 1.279 . S
C1362 H1403 0.930 . S
N1363 C1361 1.314 . S
N1363 C1362 1.279 . S
C1364 C1366 1.353 . S
C1364 N1367 1.314 . S
C1364 H1370 0.930 . S
C1365 N1367 1.279 . S
C1365 C1368 1.358 . S
C1365 H1371 0.930 . S
C1366 C1364 1.353 . S
C1366 C1369 1.348 . S
C1366 H1404 0.929 . S
N1367 Li1322 1.990 . S
N1367 C1364 1.314 . S
N1367 C1365 1.279 . S
C1368 C1365 1.358 . S
C1368 C1369 1.356 . S
C1368 H1405 0.930 . S
C1369 C1366 1.348 . S
C1369 C1368 1.356 . S
H1370 C1364 0.930 . S
H1371 C1365 0.930 . S
C1372 N1373 1.314 . S
C1372 C1374 1.353 . S
C1372 H1378 0.930 . S
N1373 Li1323 1.990 . S
N1373 C1372 1.314 . S
N1373 C1376 1.279 . S
C1374 C1372 1.353 . S
C1374 C1377 1.348 . S
C1374 H1406 0.929 . S
C1375 C1376 1.358 . S
C1375 C1377 1.356 . S
C1375 H1407 0.930 . S
C1376 N1373 1.279 . S
C1376 C1375 1.358 . S
C1376 H1379 0.930 . S
C1377 C1374 1.348 . S
C1377 C1375 1.356 . S
H1378 C1372 0.930 . S
H1379 C1376 0.930 . S
O1380 Li1320 1.956 . S
O1380 Li1321 1.970 . S
O1380 Li1322 1.961 . S
O1380 C1324 1.325 . S
O1381 Li1320 1.970 . S
O1381 Li1321 1.956 . S
O1381 Li1323 1.961 . S
O1381 C1330 1.325 . S
O1382 Li1320 1.961 . S
O1382 Li1322 1.956 . S
O1382 Li1323 1.970 . S
O1382 C1352 1.325 . S
O1383 Li1321 1.961 . S
O1383 Li1322 1.970 . S
O1383 Li1323 1.956 . S
O1383 C1358 1.325 . S
H1384 C1326 0.929 . S
H1385 C1327 0.930 . S
H1386 C1328 0.930 . S
H1387 C1329 0.930 . S
H1388 C1331 0.930 . S
H1389 C1333 0.929 . S
H1390 C1334 0.930 . S
H1391 C1335 0.930 . S
H1392 C1338 0.930 . S
H1393 C1341 0.929 . S
H1394 C1346 0.929 . S
H1395 C1347 0.930 . S
H1396 C1354 0.929 . S
H1397 C1355 0.930 . S
H1398 C1356 0.930 . S
H1399 C1357 0.930 . S
H1400 C1359 0.929 . S
H1401 C1360 0.930 . S
H1402 C1361 0.930 . S
H1403 C1362 0.930 . S
H1404 C1366 0.929 . S
H1405 C1368 0.930 . S
H1406 C1374 0.929 . S
H1407 C1375 0.930 . S
Li1408 N1425 1.990 . S
Li1408 O1468 1.956 . S
Li1408 O1469 1.970 . S
Li1408 O1470 1.961 . S
Li1409 N1433 1.990 . S
Li1409 O1468 1.970 . S
Li1409 O1469 1.956 . S
Li1409 O1471 1.961 . S
Li1410 N1455 1.990 . S
Li1410 O1468 1.961 . S
Li1410 O1470 1.956 . S
Li1410 O1471 1.970 . S
Li1411 N1461 1.990 . S
Li1411 O1469 1.961 1_565 S
Li1411 O1470 1.970 1_565 S
Li1411 O1471 1.956 1_565 S
C1412 C1414 1.348 . S
C1412 C1415 1.356 . S
C1412 O1468 1.325 . S
N1413 C1416 1.314 . S
N1413 C1417 1.279 . S
C1414 C1412 1.348 . S
C1414 C1416 1.353 . S
C1414 H1472 0.929 . S
C1415 C1412 1.356 . S
C1415 C1417 1.358 . S
C1415 H1473 0.930 . S
C1416 N1413 1.314 . S
C1416 C1414 1.353 . S
C1416 H1474 0.930 . S
C1417 N1413 1.279 . S
C1417 C1415 1.358 . S
C1417 H1475 0.930 . S
C1418 C1421 1.348 . S
C1418 C1422 1.356 . S
C1418 O1469 1.325 1_565 S
C1419 N1420 1.279 . S
C1419 C1422 1.358 . S
C1419 H1476 0.930 . S
N1420 C1419 1.279 . S
N1420 C1423 1.314 . S
C1421 C1418 1.348 . S
C1421 C1423 1.353 . S
C1421 H1477 0.940 . S
C1422 C1418 1.356 . S
C1422 C1419 1.358 . S
C1422 H1478 0.930 . S
C1423 N1420 1.314 . S
C1423 C1421 1.353 . S
C1423 H1479 0.930 . S
C1424 N1425 1.314 . S
C1424 C1429 1.353 1_545 S
C1424 H1430 0.930 1_545 S
N1425 Li1408 1.990 . S
N1425 C1424 1.314 . S
N1425 C1427 1.279 . S
C1426 C1427 1.358 . S
C1426 C1428 1.356 . S
C1426 H1480 0.930 . S
C1427 N1425 1.279 . S
C1427 C1426 1.358 . S
C1427 H1431 0.930 . S
C1428 C1426 1.356 . S
C1428 C1429 1.348 1_545 S
C1429 C1424 1.353 1_565 S
C1429 C1428 1.348 1_565 S
C1429 H1481 0.929 . S
H1430 C1424 0.930 1_565 S
H1431 C1427 0.930 . S
C1432 N1433 1.314 . S
C1432 C1434 1.353 . S
C1432 H1438 0.930 . S
N1433 Li1409 1.990 . S
N1433 C1432 1.314 . S
N1433 C1436 1.279 . S
C1434 C1432 1.353 . S
C1434 C1437 1.348 . S
C1434 H1482 0.929 . S
C1435 C1436 1.358 . S
C1435 C1437 1.356 . S
C1435 H1483 0.930 . S
C1436 N1433 1.279 . S
C1436 C1435 1.358 . S
C1436 H1439 0.930 . S
C1437 C1434 1.348 . S
C1437 C1435 1.356 . S
H1438 C1432 0.930 . S
H1439 C1436 0.930 . S
C1440 C1442 1.348 1_545 S
C1440 C1443 1.356 . S
C1440 O1470 1.325 . S
N1441 C1444 1.314 . S
N1441 C1445 1.279 1_565 S
C1442 C1440 1.348 1_565 S
C1442 C1444 1.353 . S
C1442 H1484 0.929 . S
C1443 C1440 1.356 . S
C1443 C1445 1.358 . S
C1443 H1485 0.930 . S
C1444 N1441 1.314 . S
C1444 C1442 1.353 . S
C1444 H1486 0.930 . S
C1445 N1441 1.279 1_545 S
C1445 C1443 1.358 . S
C1445 H1487 0.930 . S
C1446 C1447 1.348 . S
C1446 C1448 1.356 . S
C1446 O1471 1.325 . S
C1447 C1446 1.348 . S
C1447 C1449 1.353 . S
C1447 H1488 0.929 . S
C1448 C1446 1.356 . S
C1448 C1450 1.358 . S
C1448 H1489 0.930 . S
C1449 C1447 1.353 . S
C1449 N1451 1.314 . S
C1449 H1490 0.930 . S
C1450 C1448 1.358 . S
C1450 N1451 1.279 . S
C1450 H1491 0.930 . S
N1451 C1449 1.314 . S
N1451 C1450 1.279 . S
C1452 C1454 1.353 . S
C1452 N1455 1.314 . S
C1452 H1458 0.930 . S
C1453 N1455 1.279 . S
C1453 C1456 1.358 . S
C1453 H1459 0.930 . S
C1454 C1452 1.353 . S
C1454 C1457 1.348 . S
C1454 H1492 0.929 . S
N1455 Li1410 1.990 . S
N1455 C1452 1.314 . S
N1455 C1453 1.279 . S
C1456 C1453 1.358 . S
C1456 C1457 1.356 . S
C1456 H1493 0.930 . S
C1457 C1454 1.348 . S
C1457 C1456 1.356 . S
H1458 C1452 0.930 . S
H1459 C1453 0.930 . S
C1460 N1461 1.314 . S
C1460 C1462 1.353 . S
C1460 H1466 0.930 . S
N1461 Li1411 1.990 . S
N1461 C1460 1.314 . S
N1461 C1464 1.279 . S
C1462 C1460 1.353 . S
C1462 C1465 1.348 . S
C1462 H1494 0.929 . S
C1463 C1464 1.358 . S
C1463 C1465 1.356 . S
C1463 H1495 0.930 . S
C1464 N1461 1.279 . S
C1464 C1463 1.358 . S
C1464 H1467 0.930 . S
C1465 C1462 1.348 . S
C1465 C1463 1.356 . S
H1466 C1460 0.930 . S
H1467 C1464 0.930 . S
O1468 Li1408 1.956 . S
O1468 Li1409 1.970 . S
O1468 Li1410 1.961 . S
O1468 C1412 1.325 . S
O1469 Li1408 1.970 . S
O1469 Li1409 1.956 . S
O1469 Li1411 1.961 1_545 S
O1469 C1418 1.325 1_545 S
O1470 Li1408 1.961 . S
O1470 Li1410 1.956 . S
O1470 Li1411 1.970 1_545 S
O1470 C1440 1.325 . S
O1471 Li1409 1.961 . S
O1471 Li1410 1.970 . S
O1471 Li1411 1.956 1_545 S
O1471 C1446 1.325 . S
H1472 C1414 0.929 . S
H1473 C1415 0.930 . S
H1474 C1416 0.930 . S
H1475 C1417 0.930 . S
H1476 C1419 0.930 . S
H1477 C1421 0.940 . S
H1478 C1422 0.930 . S
H1479 C1423 0.930 . S
H1480 C1426 0.930 . S
H1481 C1429 0.929 . S
H1482 C1434 0.929 . S
H1483 C1435 0.930 . S
H1484 C1442 0.929 . S
H1485 C1443 0.930 . S
H1486 C1444 0.930 . S
H1487 C1445 0.930 . S
H1488 C1447 0.929 . S
H1489 C1448 0.930 . S
H1490 C1449 0.930 . S
H1491 C1450 0.930 . S
H1492 C1454 0.929 . S
H1493 C1456 0.930 . S
H1494 C1462 0.929 . S
H1495 C1463 0.930 . S
Li1496 N1513 1.990 . S
Li1496 O1556 1.956 . S
Li1496 O1557 1.970 . S
Li1496 O1558 1.961 . S
Li1497 N1521 1.990 . S
Li1497 O1556 1.970 . S
Li1497 O1557 1.956 . S
Li1497 O1559 1.961 . S
Li1498 N1543 1.990 . S
Li1498 O1556 1.961 1_455 S
Li1498 O1558 1.956 1_455 S
Li1498 O1559 1.970 1_455 S
Li1499 N1549 1.990 . S
Li1499 O1557 1.961 . S
Li1499 O1558 1.970 . S
Li1499 O1559 1.956 . S
C1500 C1502 1.348 . S
C1500 C1503 1.356 . S
C1500 O1556 1.325 1_455 S
N1501 C1504 1.314 . S
N1501 C1505 1.279 . S
C1502 C1500 1.348 . S
C1502 C1504 1.353 . S
C1502 H1560 0.930 1_455 S
C1503 C1500 1.356 . S
C1503 C1505 1.358 . S
C1503 H1561 0.930 . S
C1504 N1501 1.314 . S
C1504 C1502 1.353 . S
C1504 H1562 0.930 . S
C1505 N1501 1.279 . S
C1505 C1503 1.358 . S
C1505 H1563 0.930 . S
C1506 C1509 1.348 . S
C1506 C1510 1.356 . S
C1506 O1557 1.325 . S
C1507 N1508 1.279 . S
C1507 C1510 1.358 . S
C1507 H1564 0.930 . S
N1508 C1507 1.279 . S
N1508 C1511 1.314 . S
C1509 C1506 1.348 . S
C1509 C1511 1.353 . S
C1509 H1565 0.929 . S
C1510 C1506 1.356 . S
C1510 C1507 1.358 . S
C1510 H1566 0.930 . S
C1511 N1508 1.314 . S
C1511 C1509 1.353 . S
C1511 H1567 0.930 . S
C1512 N1513 1.314 . S
C1512 C1517 1.353 . S
C1512 H1518 0.930 . S
N1513 Li1496 1.990 . S
N1513 C1512 1.314 . S
N1513 C1515 1.279 . S
C1514 C1515 1.358 . S
C1514 C1516 1.356 . S
C1514 H1568 0.930 . S
C1515 N1513 1.279 . S
C1515 C1514 1.358 . S
C1515 H1519 0.930 . S
C1516 C1514 1.356 . S
C1516 C1517 1.348 . S
C1517 C1512 1.353 . S
C1517 C1516 1.348 . S
C1517 H1569 0.929 . S
H1518 C1512 0.930 . S
H1519 C1515 0.930 . S
C1520 N1521 1.314 . S
C1520 C1522 1.316 1_655 S
C1520 H1526 0.930 1_655 S
N1521 Li1497 1.990 . S
N1521 C1520 1.314 . S
N1521 C1524 1.279 . S
C1522 C1520 1.316 1_455 S
C1522 C1525 1.328 1_455 S
C1522 H1570 0.988 . S
C1523 C1524 1.358 . S
C1523 C1525 1.356 . S
C1523 H1571 0.930 . S
C1524 N1521 1.279 . S
C1524 C1523 1.358 . S
C1524 H1527 0.930 . S
C1525 C1522 1.328 1_655 S
C1525 C1523 1.356 . S
H1526 C1520 0.930 1_455 S
H1527 C1524 0.930 . S
C1528 C1530 1.348 . S
C1528 C1531 1.356 . S
C1528 O1558 1.325 . S
N1529 C1532 1.314 . S
N1529 C1533 1.279 . S
C1530 C1528 1.348 . S
C1530 C1532 1.353 . S
C1530 H1572 0.929 . S
C1531 C1528 1.356 . S
C1531 C1533 1.358 . S
C1531 H1573 0.930 . S
C1532 N1529 1.314 . S
C1532 C1530 1.353 . S
C1532 H1574 0.930 . S
C1533 N1529 1.279 . S
C1533 C1531 1.358 . S
C1533 H1575 0.930 . S
C1534 C1535 1.348 1_655 S
C1534 C1536 1.356 . S
C1534 O1559 1.325 . S
C1535 C1534 1.348 1_455 S
C1535 C1537 1.353 . S
C1535 H1576 0.929 . S
C1536 C1534 1.356 . S
C1536 C1538 1.358 . S
C1536 H1577 0.930 . S
C1537 C1535 1.353 . S
C1537 N1539 1.314 . S
C1537 H1578 0.930 . S
C1538 C1536 1.358 . S
C1538 N1539 1.279 1_655 S
C1538 H1579 0.930 . S
N1539 C1537 1.314 . S
N1539 C1538 1.279 1_455 S
C1540 C1542 1.353 . S
C1540 N1543 1.314 . S
C1540 H1546 0.930 . S
C1541 N1543 1.279 . S
C1541 C1544 1.358 . S
C1541 H1547 0.930 . S
C1542 C1540 1.353 . S
C1542 C1545 1.348 . S
C1542 H1580 0.929 . S
N1543 Li1498 1.990 . S
N1543 C1540 1.314 . S
N1543 C1541 1.279 . S
C1544 C1541 1.358 . S
C1544 C1545 1.356 . S
C1544 H1581 0.930 . S
C1545 C1542 1.348 . S
C1545 C1544 1.356 . S
H1546 C1540 0.930 . S
H1547 C1541 0.930 . S
C1548 N1549 1.314 . S
C1548 C1550 1.353 . S
C1548 H1554 0.930 . S
N1549 Li1499 1.990 . S
N1549 C1548 1.314 . S
N1549 C1552 1.279 . S
C1550 C1548 1.353 . S
C1550 C1553 1.348 . S
C1550 H1582 0.929 . S
C1551 C1552 1.358 . S
C1551 C1553 1.356 . S
C1551 H1583 0.930 . S
C1552 N1549 1.279 . S
C1552 C1551 1.358 . S
C1552 H1555 0.930 . S
C1553 C1550 1.348 . S
C1553 C1551 1.356 . S
H1554 C1548 0.930 . S
H1555 C1552 0.930 . S
O1556 Li1496 1.956 . S
O1556 Li1497 1.970 . S
O1556 Li1498 1.961 1_655 S
O1556 C1500 1.325 1_655 S
O1557 Li1496 1.970 . S
O1557 Li1497 1.956 . S
O1557 Li1499 1.961 . S
O1557 C1506 1.325 . S
O1558 Li1496 1.961 . S
O1558 Li1498 1.956 1_655 S
O1558 Li1499 1.970 . S
O1558 C1528 1.325 . S
O1559 Li1497 1.961 . S
O1559 Li1498 1.970 1_655 S
O1559 Li1499 1.956 . S
O1559 C1534 1.325 . S
H1560 C1502 0.930 1_655 S
H1561 C1503 0.930 . S
H1562 C1504 0.930 . S
H1563 C1505 0.930 . S
H1564 C1507 0.930 . S
H1565 C1509 0.929 . S
H1566 C1510 0.930 . S
H1567 C1511 0.930 . S
H1568 C1514 0.930 . S
H1569 C1517 0.929 . S
H1570 C1522 0.988 . S
H1571 C1523 0.930 . S
H1572 C1530 0.929 . S
H1573 C1531 0.930 . S
H1574 C1532 0.930 . S
H1575 C1533 0.930 . S
H1576 C1535 0.929 . S
H1577 C1536 0.930 . S
H1578 C1537 0.930 . S
H1579 C1538 0.930 . S
H1580 C1542 0.929 . S
H1581 C1544 0.930 . S
H1582 C1550 0.929 . S
H1583 C1551 0.930 . S
H1584 C1590 0.930 . S
H1585 C1593 0.931 . S
H1586 C1595 0.931 . S
H1587 C1597 0.930 . S
H1588 C1599 0.930 . S
H1589 C1601 0.931 . S
C1590 H1584 0.930 . S
C1590 C1591 1.380 . S
C1590 C1592 1.394 . S
C1591 C1590 1.380 . S
C1591 C1595 1.382 . S
C1592 C1590 1.394 . S
C1592 C1593 1.400 . S
C1593 H1585 0.931 . S
C1593 C1592 1.400 . S
C1593 C1594 1.375 . S
C1594 C1593 1.375 . S
C1594 C1595 1.415 . S
C1594 C1596 1.501 . S
C1595 H1586 0.931 . S
C1595 C1591 1.382 . S
C1595 C1594 1.415 . S
C1596 C1594 1.501 . S
C1596 C1597 1.384 . S
C1596 C1601 1.408 . S
C1597 H1587 0.930 . S
C1597 C1596 1.384 . S
C1597 C1598 1.389 . S
C1598 C1597 1.389 . S
C1598 C1599 1.405 . S
C1599 H1588 0.930 . S
C1599 C1598 1.405 . S
C1599 C1600 1.364 . S
C1600 C1599 1.364 . S
C1600 C1601 1.400 . S
C1601 H1589 0.931 . S
C1601 C1596 1.408 . S
C1601 C1600 1.400 . S
H1602 C1608 0.930 . S
H1603 C1611 0.931 . S
H1604 C1613 0.931 . S
H1605 C1615 0.930 . S
H1606 C1617 0.930 . S
H1607 C1619 0.931 . S
C1608 H1602 0.930 . S
C1608 C1609 1.380 . S
C1608 C1610 1.394 . S
C1609 C1608 1.380 . S
C1609 C1613 1.382 . S
C1610 C1608 1.394 . S
C1610 C1611 1.400 . S
C1611 H1603 0.931 . S
C1611 C1610 1.400 . S
C1611 C1612 1.375 . S
C1612 C1611 1.375 . S
C1612 C1613 1.415 . S
C1612 C1614 1.501 . S
C1613 H1604 0.931 . S
C1613 C1609 1.382 . S
C1613 C1612 1.415 . S
C1614 C1612 1.501 . S
C1614 C1615 1.384 . S
C1614 C1619 1.408 . S
C1615 H1605 0.930 . S
C1615 C1614 1.384 . S
C1615 C1616 1.389 . S
C1616 C1615 1.389 . S
C1616 C1617 1.405 . S
C1617 H1606 0.930 . S
C1617 C1616 1.405 . S
C1617 C1618 1.364 . S
C1618 C1617 1.364 . S
C1618 C1619 1.400 . S
C1619 H1607 0.931 . S
C1619 C1614 1.408 . S
C1619 C1618 1.400 . S
H1620 C1626 0.930 . S
H1621 C1629 0.931 . S
H1622 C1631 0.931 . S
H1623 C1633 0.930 . S
H1624 C1635 0.930 . S
H1625 C1637 0.931 . S
C1626 H1620 0.930 . S
C1626 C1627 1.380 . S
C1626 C1628 1.394 . S
C1627 C1626 1.380 . S
C1627 C1631 1.382 . S
C1628 C1626 1.394 . S
C1628 C1629 1.400 . S
C1629 H1621 0.931 . S
C1629 C1628 1.400 . S
C1629 C1630 1.375 . S
C1630 C1629 1.375 . S
C1630 C1631 1.415 . S
C1630 C1632 1.501 . S
C1631 H1622 0.931 . S
C1631 C1627 1.382 . S
C1631 C1630 1.415 . S
C1632 C1630 1.501 . S
C1632 C1633 1.384 . S
C1632 C1637 1.408 . S
C1633 H1623 0.930 . S
C1633 C1632 1.384 . S
C1633 C1634 1.389 . S
C1634 C1633 1.389 . S
C1634 C1635 1.405 . S
C1635 H1624 0.930 . S
C1635 C1634 1.405 . S
C1635 C1636 1.364 . S
C1636 C1635 1.364 . S
C1636 C1637 1.400 . S
C1637 H1625 0.931 . S
C1637 C1632 1.408 . S
C1637 C1636 1.400 . S
H1638 C1644 0.930 . S
H1639 C1647 0.931 . S
H1640 C1649 0.931 . S
H1641 C1651 0.930 . S
H1642 C1653 0.930 . S
H1643 C1655 0.931 . S
C1644 H1638 0.930 . S
C1644 C1645 1.380 . S
C1644 C1646 1.394 . S
C1645 C1644 1.380 . S
C1645 C1649 1.382 . S
C1646 C1644 1.394 . S
C1646 C1647 1.400 . S
C1647 H1639 0.931 . S
C1647 C1646 1.400 . S
C1647 C1648 1.375 . S
C1648 C1647 1.375 . S
C1648 C1649 1.415 . S
C1648 C1650 1.501 . S
C1649 H1640 0.931 . S
C1649 C1645 1.382 . S
C1649 C1648 1.415 . S
C1650 C1648 1.501 . S
C1650 C1651 1.384 . S
C1650 C1655 1.408 . S
C1651 H1641 0.930 . S
C1651 C1650 1.384 . S
C1651 C1652 1.389 . S
C1652 C1651 1.389 . S
C1652 C1653 1.405 . S
C1653 H1642 0.930 . S
C1653 C1652 1.405 . S
C1653 C1654 1.364 . S
C1654 C1653 1.364 . S
C1654 C1655 1.400 . S
C1655 H1643 0.931 . S
C1655 C1650 1.408 . S
C1655 C1654 1.400 . S
H1656 C1662 0.930 . S
H1657 C1665 0.931 . S
H1658 C1667 0.931 . S
H1659 C1669 0.930 . S
H1660 C1671 0.930 . S
H1661 C1673 0.931 . S
C1662 H1656 0.930 . S
C1662 C1663 1.380 . S
C1662 C1664 1.394 . S
C1663 C1662 1.380 . S
C1663 C1667 1.382 . S
C1664 C1662 1.394 . S
C1664 C1665 1.400 . S
C1665 H1657 0.931 . S
C1665 C1664 1.400 . S
C1665 C1666 1.375 . S
C1666 C1665 1.375 . S
C1666 C1667 1.415 . S
C1666 C1668 1.501 . S
C1667 H1658 0.931 . S
C1667 C1663 1.382 . S
C1667 C1666 1.415 . S
C1668 C1666 1.501 . S
C1668 C1669 1.384 . S
C1668 C1673 1.408 . S
C1669 H1659 0.930 . S
C1669 C1668 1.384 . S
C1669 C1670 1.389 . S
C1670 C1669 1.389 . S
C1670 C1671 1.405 . S
C1671 H1660 0.930 . S
C1671 C1670 1.405 . S
C1671 C1672 1.364 . S
C1672 C1671 1.364 . S
C1672 C1673 1.400 . S
C1673 H1661 0.931 . S
C1673 C1668 1.408 . S
C1673 C1672 1.400 . S
H1674 C1680 0.930 . S
H1675 C1683 0.931 . S
H1676 C1685 0.931 . S
H1677 C1687 0.930 . S
H1678 C1689 0.930 . S
H1679 C1691 0.931 . S
C1680 H1674 0.930 . S
C1680 C1681 1.380 . S
C1680 C1682 1.394 . S
C1681 C1680 1.380 . S
C1681 C1685 1.382 . S
C1682 C1680 1.394 . S
C1682 C1683 1.400 . S
C1683 H1675 0.931 . S
C1683 C1682 1.400 . S
C1683 C1684 1.375 . S
C1684 C1683 1.375 . S
C1684 C1685 1.415 . S
C1684 C1686 1.501 . S
C1685 H1676 0.931 . S
C1685 C1681 1.382 . S
C1685 C1684 1.415 . S
C1686 C1684 1.501 . S
C1686 C1687 1.384 . S
C1686 C1691 1.408 . S
C1687 H1677 0.930 . S
C1687 C1686 1.384 . S
C1687 C1688 1.389 . S
C1688 C1687 1.389 . S
C1688 C1689 1.405 . S
C1689 H1678 0.930 . S
C1689 C1688 1.405 . S
C1689 C1690 1.364 . S
C1690 C1689 1.364 . S
C1690 C1691 1.400 . S
C1691 H1679 0.931 . S
C1691 C1686 1.408 . S
C1691 C1690 1.400 . S
H1692 C1698 0.930 . S
H1693 C1701 0.931 . S
H1694 C1703 0.931 . S
H1695 C1705 0.930 . S
H1696 C1707 0.930 . S
H1697 C1709 0.931 . S
C1698 H1692 0.930 . S
C1698 C1699 1.380 . S
C1698 C1700 1.394 . S
C1699 C1698 1.380 . S
C1699 C1703 1.382 . S
C1700 C1698 1.394 . S
C1700 C1701 1.400 . S
C1701 H1693 0.931 . S
C1701 C1700 1.400 . S
C1701 C1702 1.375 . S
C1702 C1701 1.375 . S
C1702 C1703 1.415 . S
C1702 C1704 1.501 . S
C1703 H1694 0.931 . S
C1703 C1699 1.382 . S
C1703 C1702 1.415 . S
C1704 C1702 1.501 . S
C1704 C1705 1.384 . S
C1704 C1709 1.408 . S
C1705 H1695 0.930 . S
C1705 C1704 1.384 . S
C1705 C1706 1.389 . S
C1706 C1705 1.389 . S
C1706 C1707 1.405 . S
C1707 H1696 0.930 . S
C1707 C1706 1.405 . S
C1707 C1708 1.364 . S
C1708 C1707 1.364 . S
C1708 C1709 1.400 . S
C1709 H1697 0.931 . S
C1709 C1704 1.408 . S
C1709 C1708 1.400 . S
H1710 C1716 0.930 . S
H1711 C1719 0.931 . S
H1712 C1721 0.931 . S
H1713 C1723 0.930 . S
H1714 C1725 0.930 . S
H1715 C1727 0.931 . S
C1716 H1710 0.930 . S
C1716 C1717 1.380 . S
C1716 C1718 1.394 . S
C1717 C1716 1.380 . S
C1717 C1721 1.382 . S
C1718 C1716 1.394 . S
C1718 C1719 1.400 . S
C1719 H1711 0.931 . S
C1719 C1718 1.400 . S
C1719 C1720 1.375 . S
C1720 C1719 1.375 . S
C1720 C1721 1.415 . S
C1720 C1722 1.501 . S
C1721 H1712 0.931 . S
C1721 C1717 1.382 . S
C1721 C1720 1.415 . S
C1722 C1720 1.501 . S
C1722 C1723 1.384 . S
C1722 C1727 1.408 . S
C1723 H1713 0.930 . S
C1723 C1722 1.384 . S
C1723 C1724 1.389 . S
C1724 C1723 1.389 . S
C1724 C1725 1.405 . S
C1725 H1714 0.930 . S
C1725 C1724 1.405 . S
C1725 C1726 1.364 . S
C1726 C1725 1.364 . S
C1726 C1727 1.400 . S
C1727 H1715 0.931 . S
C1727 C1722 1.408 . S
C1727 C1726 1.400 . S
H1728 C1734 0.930 . S
H1729 C1737 0.931 . S
H1730 C1739 0.931 . S
H1731 C1741 0.930 . S
H1732 C1743 0.930 . S
H1733 C1745 0.931 . S
C1734 H1728 0.930 . S
C1734 C1735 1.380 . S
C1734 C1736 1.394 . S
C1735 C1734 1.380 . S
C1735 C1739 1.382 . S
C1736 C1734 1.394 . S
C1736 C1737 1.400 . S
C1737 H1729 0.931 . S
C1737 C1736 1.400 . S
C1737 C1738 1.375 . S
C1738 C1737 1.375 . S
C1738 C1739 1.415 . S
C1738 C1740 1.501 . S
C1739 H1730 0.931 . S
C1739 C1735 1.382 . S
C1739 C1738 1.415 . S
C1740 C1738 1.501 . S
C1740 C1741 1.384 . S
C1740 C1745 1.408 . S
C1741 H1731 0.930 . S
C1741 C1740 1.384 . S
C1741 C1742 1.389 . S
C1742 C1741 1.389 . S
C1742 C1743 1.405 . S
C1743 H1732 0.930 . S
C1743 C1742 1.405 . S
C1743 C1744 1.364 . S
C1744 C1743 1.364 . S
C1744 C1745 1.400 . S
C1745 H1733 0.931 . S
C1745 C1740 1.408 . S
C1745 C1744 1.400 . S
H1746 C1752 0.922 . S
H1747 C1755 0.931 . S
H1748 C1757 0.931 . S
H1749 C1759 0.930 . S
H1750 C1761 0.930 . S
H1751 C1763 0.941 . S
C1752 H1746 0.922 . S
C1752 C1753 1.387 . S
C1752 C1754 1.395 1_655 S
C1753 C1752 1.387 . S
C1753 C1757 1.382 . S
C1754 C1752 1.395 1_455 S
C1754 C1755 1.400 . S
C1755 H1747 0.931 . S
C1755 C1754 1.400 . S
C1755 C1756 1.375 . S
C1756 C1755 1.375 . S
C1756 C1757 1.415 1_455 S
C1756 C1758 1.501 . S
C1757 H1748 0.931 . S
C1757 C1753 1.382 . S
C1757 C1756 1.415 1_655 S
C1758 C1756 1.501 . S
C1758 C1759 1.384 . S
C1758 C1763 1.425 . S
C1759 H1749 0.930 . S
C1759 C1758 1.384 . S
C1759 C1760 1.389 . S
C1760 C1759 1.389 . S
C1760 C1761 1.405 . S
C1761 H1750 0.930 . S
C1761 C1760 1.405 . S
C1761 C1762 1.356 . S
C1762 C1761 1.356 . S
C1762 C1763 1.393 . S
C1763 H1751 0.941 . S
C1763 C1758 1.425 . S
C1763 C1762 1.393 . S
H1764 C1770 0.930 . S
H1765 C1773 0.931 . S
H1766 C1775 0.931 . S
H1767 C1777 0.930 . S
H1768 C1779 0.930 . S
H1769 C1781 0.931 . S
C1770 H1764 0.930 . S
C1770 C1771 1.380 . S
C1770 C1772 1.394 . S
C1771 C1770 1.380 . S
C1771 C1775 1.382 . S
C1772 C1770 1.394 . S
C1772 C1773 1.400 . S
C1773 H1765 0.931 . S
C1773 C1772 1.400 . S
C1773 C1774 1.375 . S
C1774 C1773 1.375 . S
C1774 C1775 1.415 . S
C1774 C1776 1.501 . S
C1775 H1766 0.931 . S
C1775 C1771 1.382 . S
C1775 C1774 1.415 . S
C1776 C1774 1.501 . S
C1776 C1777 1.384 . S
C1776 C1781 1.408 . S
C1777 H1767 0.930 . S
C1777 C1776 1.384 . S
C1777 C1778 1.389 . S
C1778 C1777 1.389 . S
C1778 C1779 1.405 . S
C1779 H1768 0.930 . S
C1779 C1778 1.405 . S
C1779 C1780 1.364 . S
C1780 C1779 1.364 . S
C1780 C1781 1.400 . S
C1781 H1769 0.931 . S
C1781 C1776 1.408 . S
C1781 C1780 1.400 . S
H1782 C1788 0.948 . S
H1783 C1791 0.931 . S
H1784 C1793 0.931 . S
H1785 C1795 0.930 . S
H1786 C1797 0.930 . S
H1787 C1799 0.919 . S
C1788 H1782 0.948 . S
C1788 C1789 1.376 . S
C1788 C1790 1.381 1_545 S
C1789 C1788 1.376 . S
C1789 C1793 1.382 . S
C1790 C1788 1.381 1_565 S
C1790 C1791 1.400 . S
C1791 H1783 0.931 . S
C1791 C1790 1.400 . S
C1791 C1792 1.375 . S
C1792 C1791 1.375 . S
C1792 C1793 1.415 1_565 S
C1792 C1794 1.501 . S
C1793 H1784 0.931 . S
C1793 C1789 1.382 . S
C1793 C1792 1.415 1_545 S
C1794 C1792 1.501 . S
C1794 C1795 1.384 . S
C1794 C1799 1.396 . S
C1795 H1785 0.930 . S
C1795 C1794 1.384 . S
C1795 C1796 1.389 . S
C1796 C1795 1.389 . S
C1796 C1797 1.405 . S
C1797 H1786 0.930 . S
C1797 C1796 1.405 . S
C1797 C1798 1.380 . S
C1798 C1797 1.380 . S
C1798 C1799 1.405 . S
C1799 H1787 0.919 . S
C1799 C1794 1.396 . S
C1799 C1798 1.405 . S
H1800 C1806 0.916 . S
H1801 C1809 0.931 . S
H1802 C1811 0.927 . S
H1803 C1813 0.930 . S
H1804 C1815 0.930 . S
H1805 C1817 0.931 . S
C1806 H1800 0.916 . S
C1806 C1807 1.387 . S
C1806 C1808 1.412 1_545 S
C1807 C1806 1.387 . S
C1807 C1811 1.400 1_545 S
C1808 C1806 1.412 1_565 S
C1808 C1809 1.381 . S
C1809 H1801 0.931 . S
C1809 C1808 1.381 . S
C1809 C1810 1.375 . S
C1810 C1809 1.375 . S
C1810 C1811 1.409 . S
C1810 C1812 1.501 . S
C1811 H1802 0.927 . S
C1811 C1807 1.400 1_565 S
C1811 C1810 1.409 . S
C1812 C1810 1.501 . S
C1812 C1813 1.384 . S
C1812 C1817 1.408 1_565 S
C1813 H1803 0.930 . S
C1813 C1812 1.384 . S
C1813 C1814 1.389 . S
C1814 C1813 1.389 . S
C1814 C1815 1.405 . S
C1815 H1804 0.930 . S
C1815 C1814 1.405 . S
C1815 C1816 1.364 1_565 S
C1816 C1815 1.364 1_545 S
C1816 C1817 1.400 . S
C1817 H1805 0.931 . S
C1817 C1812 1.408 1_545 S
C1817 C1816 1.400 . S
H1818 C1824 0.957 . S
H1819 C1827 0.931 . S
H1820 C1829 0.934 . S
H1821 C1831 0.930 . S
H1822 C1833 0.930 . S
H1823 C1835 0.931 . S
C1824 H1818 0.957 . S
C1824 C1825 1.372 . S
C1824 C1826 1.373 1_655 S
C1825 C1824 1.372 . S
C1825 C1829 1.360 1_655 S
C1826 C1824 1.373 1_455 S
C1826 C1827 1.419 . S
C1827 H1819 0.931 . S
C1827 C1826 1.419 . S
C1827 C1828 1.375 . S
C1828 C1827 1.375 . S
C1828 C1829 1.423 . S
C1828 C1830 1.501 . S
C1829 H1820 0.934 . S
C1829 C1825 1.360 1_455 S
C1829 C1828 1.423 . S
C1830 C1828 1.501 . S
C1830 C1831 1.384 . S
C1830 C1835 1.408 1_455 S
C1831 H1821 0.930 . S
C1831 C1830 1.384 . S
C1831 C1832 1.389 . S
C1832 C1831 1.389 . S
C1832 C1833 1.405 . S
C1833 H1822 0.930 . S
C1833 C1832 1.405 . S
C1833 C1834 1.364 1_455 S
C1834 C1833 1.364 1_655 S
C1834 C1835 1.400 . S
C1835 H1823 0.931 . S
C1835 C1830 1.408 1_655 S
C1835 C1834 1.400 . S
H1836 C1842 0.930 . S
H1837 C1845 0.931 . S
H1838 C1847 0.931 . S
H1839 C1849 0.930 . S
H1840 C1851 0.930 . S
H1841 C1853 0.931 . S
C1842 H1836 0.930 . S
C1842 C1843 1.380 . S
C1842 C1844 1.394 . S
C1843 C1842 1.380 . S
C1843 C1847 1.382 . S
C1844 C1842 1.394 . S
C1844 C1845 1.400 . S
C1845 H1837 0.931 . S
C1845 C1844 1.400 . S
C1845 C1846 1.375 . S
C1846 C1845 1.375 . S
C1846 C1847 1.415 . S
C1846 C1848 1.501 . S
C1847 H1838 0.931 . S
C1847 C1843 1.382 . S
C1847 C1846 1.415 . S
C1848 C1846 1.501 . S
C1848 C1849 1.384 . S
C1848 C1853 1.408 . S
C1849 H1839 0.930 . S
C1849 C1848 1.384 . S
C1849 C1850 1.389 . S
C1850 C1849 1.389 . S
C1850 C1851 1.405 . S
C1851 H1840 0.930 . S
C1851 C1850 1.405 . S
C1851 C1852 1.364 . S
C1852 C1851 1.364 . S
C1852 C1853 1.400 . S
C1853 H1841 0.931 . S
C1853 C1848 1.408 . S
C1853 C1852 1.400 . S
H1854 C1860 0.930 . S
H1855 C1863 0.931 . S
H1856 C1865 0.931 . S
H1857 C1867 0.930 . S
H1858 C1869 0.930 . S
H1859 C1871 0.931 . S
C1860 H1854 0.930 . S
C1860 C1861 1.380 . S
C1860 C1862 1.394 . S
C1861 C1860 1.380 . S
C1861 C1865 1.382 . S
C1862 C1860 1.394 . S
C1862 C1863 1.400 . S
C1863 H1855 0.931 . S
C1863 C1862 1.400 . S
C1863 C1864 1.375 . S
C1864 C1863 1.375 . S
C1864 C1865 1.415 . S
C1864 C1866 1.501 . S
C1865 H1856 0.931 . S
C1865 C1861 1.382 . S
C1865 C1864 1.415 . S
C1866 C1864 1.501 . S
C1866 C1867 1.384 . S
C1866 C1871 1.408 . S
C1867 H1857 0.930 . S
C1867 C1866 1.384 . S
C1867 C1868 1.389 . S
C1868 C1867 1.389 . S
C1868 C1869 1.405 . S
C1869 H1858 0.930 . S
C1869 C1868 1.405 . S
C1869 C1870 1.364 . S
C1870 C1869 1.364 . S
C1870 C1871 1.400 . S
C1871 H1859 0.931 . S
C1871 C1866 1.408 . S
C1871 C1870 1.400 . S
H1872 C1878 0.930 . S
H1873 C1881 0.931 . S
H1874 C1883 0.931 . S
H1875 C1885 0.930 . S
H1876 C1887 0.930 . S
H1877 C1889 0.931 . S
C1878 H1872 0.930 . S
C1878 C1879 1.380 . S
C1878 C1880 1.394 . S
C1879 C1878 1.380 . S
C1879 C1883 1.382 . S
C1880 C1878 1.394 . S
C1880 C1881 1.400 . S
C1881 H1873 0.931 . S
C1881 C1880 1.400 . S
C1881 C1882 1.375 . S
C1882 C1881 1.375 . S
C1882 C1883 1.415 . S
C1882 C1884 1.501 . S
C1883 H1874 0.931 . S
C1883 C1879 1.382 . S
C1883 C1882 1.415 . S
C1884 C1882 1.501 . S
C1884 C1885 1.384 . S
C1884 C1889 1.408 . S
C1885 H1875 0.930 . S
C1885 C1884 1.384 . S
C1885 C1886 1.389 . S
C1886 C1885 1.389 . S
C1886 C1887 1.405 . S
C1887 H1876 0.930 . S
C1887 C1886 1.405 . S
C1887 C1888 1.364 . S
C1888 C1887 1.364 . S
C1888 C1889 1.400 . S
C1889 H1877 0.931 . S
C1889 C1884 1.408 . S
C1889 C1888 1.400 . S
H1890 C1896 0.930 . S
H1891 C1899 0.931 . S
H1892 C1901 0.931 . S
H1893 C1903 0.930 . S
H1894 C1905 0.930 . S
H1895 C1907 0.931 . S
C1896 H1890 0.930 . S
C1896 C1897 1.380 . S
C1896 C1898 1.394 . S
C1897 C1896 1.380 . S
C1897 C1901 1.382 . S
C1898 C1896 1.394 . S
C1898 C1899 1.400 . S
C1899 H1891 0.931 . S
C1899 C1898 1.400 . S
C1899 C1900 1.375 . S
C1900 C1899 1.375 . S
C1900 C1901 1.415 . S
C1900 C1902 1.501 . S
C1901 H1892 0.931 . S
C1901 C1897 1.382 . S
C1901 C1900 1.415 . S
C1902 C1900 1.501 . S
C1902 C1903 1.384 . S
C1902 C1907 1.408 . S
C1903 H1893 0.930 . S
C1903 C1902 1.384 . S
C1903 C1904 1.389 . S
C1904 C1903 1.389 . S
C1904 C1905 1.405 . S
C1905 H1894 0.930 . S
C1905 C1904 1.405 . S
C1905 C1906 1.364 . S
C1906 C1905 1.364 . S
C1906 C1907 1.400 . S
C1907 H1895 0.931 . S
C1907 C1902 1.408 . S
C1907 C1906 1.400 . S
C1908 C1909 1.363 . S
C1908 C1914 1.379 . S
C1908 N1916 1.356 . S
C1909 C1908 1.363 . S
C1909 C1915 1.363 1_655 S
C1910 C1911 1.363 1_455 S
C1910 C1915 1.379 . S
C1910 N1917 1.356 . S
C1911 C1910 1.363 1_655 S
C1911 C1914 1.363 . S
N1912 C1914 1.356 . S
N1912 H1924 0.984 . S
N1912 H1925 0.985 . S
N1913 C1915 1.356 . S
N1913 H1918 0.984 . S
N1913 H1919 0.985 . S
C1914 C1908 1.379 . S
C1914 C1911 1.363 . S
C1914 N1912 1.356 . S
C1915 C1909 1.363 1_455 S
C1915 C1910 1.379 . S
C1915 N1913 1.356 . S
N1916 C1908 1.356 . S
N1916 H1922 0.984 . S
N1916 H1923 0.984 . S
N1917 C1910 1.356 . S
N1917 H1920 0.984 . S
N1917 H1921 0.985 . S
H1918 N1913 0.984 . S
H1919 N1913 0.985 . S
H1920 N1917 0.984 . S
H1921 N1917 0.985 . S
H1922 N1916 0.984 . S
H1923 N1916 0.984 . S
H1924 N1912 0.984 . S
H1925 N1912 0.985 . S
C1926 C1927 1.363 . S
C1926 C1932 1.379 . S
C1926 N1934 1.356 . S
C1927 C1926 1.363 . S
C1927 C1933 1.363 . S
C1928 C1929 1.363 . S
C1928 C1933 1.379 . S
C1928 N1935 1.356 . S
C1929 C1928 1.363 . S
C1929 C1932 1.363 . S
N1930 C1932 1.356 . S
N1930 H1942 0.984 . S
N1930 H1943 0.985 . S
N1931 C1933 1.356 . S
N1931 H1936 0.984 . S
N1931 H1937 0.985 . S
C1932 C1926 1.379 . S
C1932 C1929 1.363 . S
C1932 N1930 1.356 . S
C1933 C1927 1.363 . S
C1933 C1928 1.379 . S
C1933 N1931 1.356 . S
N1934 C1926 1.356 . S
N1934 H1940 0.984 . S
N1934 H1941 0.984 . S
N1935 C1928 1.356 . S
N1935 H1938 0.984 . S
N1935 H1939 0.985 . S
H1936 N1931 0.984 . S
H1937 N1931 0.985 . S
H1938 N1935 0.984 . S
H1939 N1935 0.985 . S
H1940 N1934 0.984 . S
H1941 N1934 0.984 . S
H1942 N1930 0.984 . S
H1943 N1930 0.985 . S
C1944 C1945 1.363 . S
C1944 C1950 1.379 . S
C1944 N1952 1.356 . S
C1945 C1944 1.363 . S
C1945 C1951 1.363 1_545 S
C1946 C1947 1.363 1_565 S
C1946 C1951 1.379 . S
C1946 N1953 1.356 . S
C1947 C1946 1.363 1_545 S
C1947 C1950 1.363 . S
N1948 C1950 1.356 . S
N1948 H1960 0.984 . S
N1948 H1961 0.985 . S
N1949 C1951 1.356 . S
N1949 H1954 0.984 . S
N1949 H1955 0.985 . S
C1950 C1944 1.379 . S
C1950 C1947 1.363 . S
C1950 N1948 1.356 . S
C1951 C1945 1.363 1_565 S
C1951 C1946 1.379 . S
C1951 N1949 1.356 . S
N1952 C1944 1.356 . S
N1952 H1958 0.984 . S
N1952 H1959 0.984 . S
N1953 C1946 1.356 . S
N1953 H1956 0.984 . S
N1953 H1957 0.985 . S
H1954 N1949 0.984 . S
H1955 N1949 0.985 . S
H1956 N1953 0.984 . S
H1957 N1953 0.985 . S
H1958 N1952 0.984 . S
H1959 N1952 0.984 . S
H1960 N1948 0.984 . S
H1961 N1948 0.985 . S
C1962 C1963 1.363 1_545 S
C1962 C1968 1.379 . S
C1962 N1970 1.356 . S
C1963 C1962 1.363 1_565 S
C1963 C1969 1.363 . S
C1964 C1965 1.363 . S
C1964 C1969 1.379 . S
C1964 N1971 1.356 . S
C1965 C1964 1.363 . S
C1965 C1968 1.363 1_565 S
N1966 C1968 1.356 . S
N1966 H1978 0.984 . S
N1966 H1979 0.985 . S
N1967 C1969 1.356 . S
N1967 H1972 0.984 . S
N1967 H1973 0.985 . S
C1968 C1962 1.379 . S
C1968 C1965 1.363 1_545 S
C1968 N1966 1.356 . S
C1969 C1963 1.363 . S
C1969 C1964 1.379 . S
C1969 N1967 1.356 . S
N1970 C1962 1.356 . S
N1970 H1976 0.984 . S
N1970 H1977 0.984 . S
N1971 C1964 1.356 . S
N1971 H1974 0.984 . S
N1971 H1975 0.985 . S
H1972 N1967 0.984 . S
H1973 N1967 0.985 . S
H1974 N1971 0.984 . S
H1975 N1971 0.985 . S
H1976 N1970 0.984 . S
H1977 N1970 0.984 . S
H1978 N1966 0.984 . S
H1979 N1966 0.985 . S
C1980 C1981 1.363 . S
C1980 C1986 1.379 . S
C1980 N1988 1.356 . S
C1981 C1980 1.363 . S
C1981 C1987 1.363 . S
C1982 C1983 1.363 . S
C1982 C1987 1.379 . S
C1982 N1989 1.356 . S
C1983 C1982 1.363 . S
C1983 C1986 1.363 . S
N1984 C1986 1.356 . S
N1984 H1996 0.984 . S
N1984 H1997 0.985 . S
N1985 C1987 1.356 . S
N1985 H1990 0.984 . S
N1985 H1991 0.985 . S
C1986 C1980 1.379 . S
C1986 C1983 1.363 . S
C1986 N1984 1.356 . S
C1987 C1981 1.363 . S
C1987 C1982 1.379 . S
C1987 N1985 1.356 . S
N1988 C1980 1.356 . S
N1988 H1994 0.984 . S
N1988 H1995 0.984 . S
N1989 C1982 1.356 . S
N1989 H1992 0.984 . S
N1989 H1993 0.985 . S
H1990 N1985 0.984 . S
H1991 N1985 0.985 . S
H1992 N1989 0.984 . S
H1993 N1989 0.985 . S
H1994 N1988 0.984 . S
H1995 N1988 0.984 . S
H1996 N1984 0.984 . S
H1997 N1984 0.985 . S
C1998 C1999 1.363 . S
C1998 C2004 1.379 . S
C1998 N2006 1.356 . S
C1999 C1998 1.363 . S
C1999 C2005 1.363 . S
C2000 C2001 1.363 . S
C2000 C2005 1.379 . S
C2000 N2007 1.356 . S
C2001 C2000 1.363 . S
C2001 C2004 1.363 . S
N2002 C2004 1.356 . S
N2002 H2014 0.984 . S
N2002 H2015 0.985 . S
N2003 C2005 1.356 . S
N2003 H2008 0.984 . S
N2003 H2009 0.985 . S
C2004 C1998 1.379 . S
C2004 C2001 1.363 . S
C2004 N2002 1.356 . S
C2005 C1999 1.363 . S
C2005 C2000 1.379 . S
C2005 N2003 1.356 . S
N2006 C1998 1.356 . S
N2006 H2012 0.984 . S
N2006 H2013 0.984 . S
N2007 C2000 1.356 . S
N2007 H2010 0.984 . S
N2007 H2011 0.985 . S
H2008 N2003 0.984 . S
H2009 N2003 0.985 . S
H2010 N2007 0.984 . S
H2011 N2007 0.985 . S
H2012 N2006 0.984 . S
H2013 N2006 0.984 . S
H2014 N2002 0.984 . S
H2015 N2002 0.985 . S
C2016 C2017 1.363 . S
C2016 C2022 1.379 . S
C2016 N2024 1.356 . S
C2017 C2016 1.363 . S
C2017 C2023 1.363 . S
C2018 C2019 1.363 . S
C2018 C2023 1.379 . S
C2018 N2025 1.356 . S
C2019 C2018 1.363 . S
C2019 C2022 1.363 . S
N2020 C2022 1.356 1_655 S
N2020 H2032 0.984 . S
N2020 H2033 0.985 . S
N2021 C2023 1.356 . S
N2021 H2026 0.984 . S
N2021 H2027 0.985 . S
C2022 C2016 1.379 . S
C2022 C2019 1.363 . S
C2022 N2020 1.356 1_455 S
C2023 C2017 1.363 . S
C2023 C2018 1.379 . S
C2023 N2021 1.356 . S
N2024 C2016 1.356 . S
N2024 H2030 0.984 . S
N2024 H2031 0.984 . S
N2025 C2018 1.356 . S
N2025 H2028 0.984 . S
N2025 H2029 0.985 . S
H2026 N2021 0.984 . S
H2027 N2021 0.985 . S
H2028 N2025 0.984 . S
H2029 N2025 0.985 . S
H2030 N2024 0.984 . S
H2031 N2024 0.984 . S
H2032 N2020 0.984 . S
H2033 N2020 0.985 . S
C2034 C2035 1.363 . S
C2034 C2040 1.379 . S
C2034 N2042 1.356 . S
C2035 C2034 1.363 . S
C2035 C2041 1.363 . S
C2036 C2037 1.363 . S
C2036 C2041 1.379 . S
C2036 N2043 1.356 . S
C2037 C2036 1.363 . S
C2037 C2040 1.363 . S
N2038 C2040 1.356 . S
N2038 H2050 0.984 . S
N2038 H2051 0.985 . S
N2039 C2041 1.356 . S
N2039 H2044 0.984 . S
N2039 H2045 0.985 . S
C2040 C2034 1.379 . S
C2040 C2037 1.363 . S
C2040 N2038 1.356 . S
C2041 C2035 1.363 . S
C2041 C2036 1.379 . S
C2041 N2039 1.356 . S
N2042 C2034 1.356 . S
N2042 H2048 0.984 . S
N2042 H2049 0.984 . S
N2043 C2036 1.356 . S
N2043 H2046 0.984 . S
N2043 H2047 0.985 . S
H2044 N2039 0.984 . S
H2045 N2039 0.985 . S
H2046 N2043 0.984 . S
H2047 N2043 0.985 . S
H2048 N2042 0.984 . S
H2049 N2042 0.984 . S
H2050 N2038 0.984 . S
H2051 N2038 0.985 . S
C2052 C2053 1.363 . S
C2052 C2058 1.379 1_565 S
C2052 N2060 1.356 . S
C2053 C2052 1.363 . S
C2053 C2059 1.363 . S
C2054 C2055 1.363 . S
C2054 C2059 1.379 . S
C2054 N2061 1.356 . S
C2055 C2054 1.363 . S
C2055 C2058 1.363 1_565 S
N2056 C2058 1.356 . S
N2056 H2068 0.984 . S
N2056 H2069 0.985 . S
N2057 C2059 1.356 . S
N2057 H2062 0.984 . S
N2057 H2063 0.985 . S
C2058 C2052 1.379 1_545 S
C2058 C2055 1.363 1_545 S
C2058 N2056 1.356 . S
C2059 C2053 1.363 . S
C2059 C2054 1.379 . S
C2059 N2057 1.356 . S
N2060 C2052 1.356 . S
N2060 H2066 0.984 1_565 S
N2060 H2067 0.984 . S
N2061 C2054 1.356 . S
N2061 H2064 0.984 . S
N2061 H2065 0.985 . S
H2062 N2057 0.984 . S
H2063 N2057 0.985 . S
H2064 N2061 0.984 . S
H2065 N2061 0.985 . S
H2066 N2060 0.984 1_545 S
H2067 N2060 0.984 . S
H2068 N2056 0.984 . S
H2069 N2056 0.985 . S
C2070 C2071 1.379 . S
C2070 C2076 1.388 1_545 S
C2070 N2078 1.335 1_545 S
C2071 C2070 1.379 . S
C2071 C2077 1.363 . S
C2072 C2073 1.363 . S
C2072 C2077 1.379 . S
C2072 N2079 1.356 . S
C2073 C2072 1.363 . S
C2073 C2076 1.363 1_545 S
N2074 C2076 1.356 . S
N2074 H2086 0.984 . S
N2074 H2087 0.985 . S
N2075 C2077 1.356 . S
N2075 H2080 0.984 . S
N2075 H2081 0.985 . S
C2076 C2070 1.388 1_565 S
C2076 C2073 1.363 1_565 S
C2076 N2074 1.356 . S
C2077 C2071 1.363 . S
C2077 C2072 1.379 . S
C2077 N2075 1.356 . S
N2078 C2070 1.335 1_565 S
N2078 H2084 0.984 . S
N2078 H2085 0.984 1_565 S
N2079 C2072 1.356 . S
N2079 H2082 0.984 . S
N2079 H2083 0.985 . S
H2080 N2075 0.984 . S
H2081 N2075 0.985 . S
H2082 N2079 0.984 . S
H2083 N2079 0.985 . S
H2084 N2078 0.984 . S
H2085 N2078 0.984 1_545 S
H2086 N2074 0.984 . S
H2087 N2074 0.985 . S
C2088 C2089 1.363 . S
C2088 C2094 1.379 . S
C2088 N2096 1.356 . S
C2089 C2088 1.363 . S
C2089 C2095 1.363 1_655 S
C2090 C2091 1.363 1_455 S
C2090 C2095 1.379 . S
C2090 N2097 1.356 . S
C2091 C2090 1.363 1_655 S
C2091 C2094 1.363 . S
N2092 C2094 1.356 . S
N2092 H2104 0.984 . S
N2092 H2105 0.985 . S
N2093 C2095 1.356 . S
N2093 H2098 0.984 . S
N2093 H2099 0.985 . S
C2094 C2088 1.379 . S
C2094 C2091 1.363 . S
C2094 N2092 1.356 . S
C2095 C2089 1.363 1_455 S
C2095 C2090 1.379 . S
C2095 N2093 1.356 . S
N2096 C2088 1.356 . S
N2096 H2102 0.984 . S
N2096 H2103 0.984 . S
N2097 C2090 1.356 . S
N2097 H2100 0.984 . S
N2097 H2101 0.985 . S
H2098 N2093 0.984 . S
H2099 N2093 0.985 . S
H2100 N2097 0.984 . S
H2101 N2097 0.985 . S
H2102 N2096 0.984 . S
H2103 N2096 0.984 . S
H2104 N2092 0.984 . S
H2105 N2092 0.985 . S
C2106 C2107 1.363 . S
C2106 C2112 1.379 . S
C2106 N2114 1.356 . S
C2107 C2106 1.363 . S
C2107 C2113 1.363 . S
C2108 C2109 1.363 . S
C2108 C2113 1.379 . S
C2108 N2115 1.356 . S
C2109 C2108 1.363 . S
C2109 C2112 1.363 . S
N2110 C2112 1.356 . S
N2110 H2122 0.984 . S
N2110 H2123 0.985 . S
N2111 C2113 1.356 . S
N2111 H2116 0.984 . S
N2111 H2117 0.985 . S
C2112 C2106 1.379 . S
C2112 C2109 1.363 . S
C2112 N2110 1.356 . S
C2113 C2107 1.363 . S
C2113 C2108 1.379 . S
C2113 N2111 1.356 . S
N2114 C2106 1.356 . S
N2114 H2120 0.984 . S
N2114 H2121 0.984 . S
N2115 C2108 1.356 . S
N2115 H2118 0.984 . S
N2115 H2119 0.985 . S
H2116 N2111 0.984 . S
H2117 N2111 0.985 . S
H2118 N2115 0.984 . S
H2119 N2115 0.985 . S
H2120 N2114 0.984 . S
H2121 N2114 0.984 . S
H2122 N2110 0.984 . S
H2123 N2110 0.985 . S
C2124 C2125 1.363 . S
C2124 C2130 1.379 . S
C2124 N2132 1.356 . S
C2125 C2124 1.363 . S
C2125 C2131 1.363 . S
C2126 C2127 1.363 . S
C2126 C2131 1.379 . S
C2126 N2133 1.356 . S
C2127 C2126 1.363 . S
C2127 C2130 1.363 . S
N2128 C2130 1.356 . S
N2128 H2140 0.984 . S
N2128 H2141 0.985 . S
N2129 C2131 1.356 . S
N2129 H2134 0.984 . S
N2129 H2135 0.985 . S
C2130 C2124 1.379 . S
C2130 C2127 1.363 . S
C2130 N2128 1.356 . S
C2131 C2125 1.363 . S
C2131 C2126 1.379 . S
C2131 N2129 1.356 . S
N2132 C2124 1.356 . S
N2132 H2138 0.984 . S
N2132 H2139 0.984 . S
N2133 C2126 1.356 . S
N2133 H2136 0.984 . S
N2133 H2137 0.985 . S
H2134 N2129 0.984 . S
H2135 N2129 0.985 . S
H2136 N2133 0.984 . S
H2137 N2133 0.985 . S
H2138 N2132 0.984 . S
H2139 N2132 0.984 . S
H2140 N2128 0.984 . S
H2141 N2128 0.985 . S
C2142 C2143 1.363 . S
C2142 C2148 1.379 . S
C2142 N2150 1.356 . S
C2143 C2142 1.363 . S
C2143 C2149 1.363 . S
C2144 C2145 1.363 . S
C2144 C2149 1.379 . S
C2144 N2151 1.356 . S
C2145 C2144 1.363 . S
C2145 C2148 1.363 . S
N2146 C2148 1.356 . S
N2146 H2158 0.984 . S
N2146 H2159 0.985 . S
N2147 C2149 1.356 . S
N2147 H2152 0.984 . S
N2147 H2153 0.985 . S
C2148 C2142 1.379 . S
C2148 C2145 1.363 . S
C2148 N2146 1.356 . S
C2149 C2143 1.363 . S
C2149 C2144 1.379 . S
C2149 N2147 1.356 . S
N2150 C2142 1.356 . S
N2150 H2156 0.984 . S
N2150 H2157 0.984 . S
N2151 C2144 1.356 . S
N2151 H2154 0.984 . S
N2151 H2155 0.985 . S
H2152 N2147 0.984 . S
H2153 N2147 0.985 . S
H2154 N2151 0.984 . S
H2155 N2151 0.985 . S
H2156 N2150 0.984 . S
H2157 N2150 0.984 . S
H2158 N2146 0.984 . S
H2159 N2146 0.985 . S
C2160 C2161 1.363 . S
C2160 C2166 1.379 . S
C2160 N2168 1.356 . S
C2161 C2160 1.363 . S
C2161 C2167 1.363 . S
C2162 C2163 1.363 . S
C2162 C2167 1.379 . S
C2162 N2169 1.356 . S
C2163 C2162 1.363 . S
C2163 C2166 1.363 . S
N2164 C2166 1.356 . S
N2164 H2176 0.984 . S
N2164 H2177 0.985 . S
N2165 C2167 1.356 . S
N2165 H2170 0.984 . S
N2165 H2171 0.985 . S
C2166 C2160 1.379 . S
C2166 C2163 1.363 . S
C2166 N2164 1.356 . S
C2167 C2161 1.363 . S
C2167 C2162 1.379 . S
C2167 N2165 1.356 . S
N2168 C2160 1.356 . S
N2168 H2174 0.984 . S
N2168 H2175 0.984 . S
N2169 C2162 1.356 . S
N2169 H2172 0.984 . S
N2169 H2173 0.985 . S
H2170 N2165 0.984 . S
H2171 N2165 0.985 . S
H2172 N2169 0.984 . S
H2173 N2169 0.985 . S
H2174 N2168 0.984 . S
H2175 N2168 0.984 . S
H2176 N2164 0.984 . S
H2177 N2164 0.985 . S
C2178 C2179 1.363 . S
C2178 C2184 1.379 . S
C2178 N2186 1.356 . S
C2179 C2178 1.363 . S
C2179 C2185 1.363 . S
C2180 C2181 1.363 . S
C2180 C2185 1.379 . S
C2180 N2187 1.356 . S
C2181 C2180 1.363 . S
C2181 C2184 1.363 . S
N2182 C2184 1.356 . S
N2182 H2194 0.984 . S
N2182 H2195 0.985 . S
N2183 C2185 1.356 . S
N2183 H2188 0.984 . S
N2183 H2189 0.985 . S
C2184 C2178 1.379 . S
C2184 C2181 1.363 . S
C2184 N2182 1.356 . S
C2185 C2179 1.363 . S
C2185 C2180 1.379 . S
C2185 N2183 1.356 . S
N2186 C2178 1.356 . S
N2186 H2192 0.984 . S
N2186 H2193 0.984 . S
N2187 C2180 1.356 . S
N2187 H2190 0.984 . S
N2187 H2191 0.985 . S
H2188 N2183 0.984 . S
H2189 N2183 0.985 . S
H2190 N2187 0.984 . S
H2191 N2187 0.985 . S
H2192 N2186 0.984 . S
H2193 N2186 0.984 . S
H2194 N2182 0.984 . S
H2195 N2182 0.985 . S
C2196 C2197 1.363 . S
C2196 C2202 1.379 . S
C2196 N2204 1.356 . S
C2197 C2196 1.363 . S
C2197 C2203 1.363 . S
C2198 C2199 1.363 . S
C2198 C2203 1.379 . S
C2198 N2205 1.356 . S
C2199 C2198 1.363 . S
C2199 C2202 1.363 . S
N2200 C2202 1.356 . S
N2200 H2212 0.984 . S
N2200 H2213 0.985 . S
N2201 C2203 1.356 . S
N2201 H2206 0.984 . S
N2201 H2207 0.985 . S
C2202 C2196 1.379 . S
C2202 C2199 1.363 . S
C2202 N2200 1.356 . S
C2203 C2197 1.363 . S
C2203 C2198 1.379 . S
C2203 N2201 1.356 . S
N2204 C2196 1.356 . S
N2204 H2210 0.984 . S
N2204 H2211 0.984 . S
N2205 C2198 1.356 . S
N2205 H2208 0.984 . S
N2205 H2209 0.985 . S
H2206 N2201 0.984 . S
H2207 N2201 0.985 . S
H2208 N2205 0.984 . S
H2209 N2205 0.985 . S
H2210 N2204 0.984 . S
H2211 N2204 0.984 . S
H2212 N2200 0.984 . S
H2213 N2200 0.985 . S
C2214 C2215 1.363 . S
C2214 C2220 1.379 . S
C2214 N2222 1.356 . S
C2215 C2214 1.363 . S
C2215 C2221 1.363 . S
C2216 C2217 1.363 . S
C2216 C2221 1.379 . S
C2216 N2223 1.356 . S
C2217 C2216 1.363 . S
C2217 C2220 1.363 . S
N2218 C2220 1.356 . S
N2218 H2230 0.984 . S
N2218 H2231 0.985 . S
N2219 C2221 1.356 . S
N2219 H2224 0.984 . S
N2219 H2225 0.985 . S
C2220 C2214 1.379 . S
C2220 C2217 1.363 . S
C2220 N2218 1.356 . S
C2221 C2215 1.363 . S
C2221 C2216 1.379 . S
C2221 N2219 1.356 . S
N2222 C2214 1.356 . S
N2222 H2228 0.984 . S
N2222 H2229 0.984 . S
N2223 C2216 1.356 . S
N2223 H2226 0.984 . S
N2223 H2227 0.985 . S
H2224 N2219 0.984 . S
H2225 N2219 0.985 . S
H2226 N2223 0.984 . S
H2227 N2223 0.985 . S
H2228 N2222 0.984 . S
H2229 N2222 0.984 . S
H2230 N2218 0.984 . S
H2231 N2218 0.985 . S
C2232 C2233 1.363 . S
C2232 C2238 1.379 . S
C2232 N2240 1.356 . S
C2233 C2232 1.363 . S
C2233 C2239 1.363 . S
C2234 C2235 1.363 . S
C2234 C2239 1.379 . S
C2234 N2241 1.356 . S
C2235 C2234 1.363 . S
C2235 C2238 1.363 . S
N2236 C2238 1.356 . S
N2236 H2248 0.984 . S
N2236 H2249 0.985 . S
N2237 C2239 1.356 . S
N2237 H2242 0.984 . S
N2237 H2243 0.985 . S
C2238 C2232 1.379 . S
C2238 C2235 1.363 . S
C2238 N2236 1.356 . S
C2239 C2233 1.363 . S
C2239 C2234 1.379 . S
C2239 N2237 1.356 . S
N2240 C2232 1.356 . S
N2240 H2246 0.984 . S
N2240 H2247 0.984 . S
N2241 C2234 1.356 . S
N2241 H2244 0.984 . S
N2241 H2245 0.985 . S
H2242 N2237 0.984 . S
H2243 N2237 0.985 . S
H2244 N2241 0.984 . S
H2245 N2241 0.985 . S
H2246 N2240 0.984 . S
H2247 N2240 0.984 . S
H2248 N2236 0.984 . S
H2249 N2236 0.985 . S
C2250 C2251 1.363 . S
C2250 C2256 1.379 . S
C2250 N2258 1.356 . S
C2251 C2250 1.363 . S
C2251 C2257 1.363 . S
C2252 C2253 1.363 . S
C2252 C2257 1.379 . S
C2252 N2259 1.356 . S
C2253 C2252 1.363 . S
C2253 C2256 1.363 . S
N2254 C2256 1.356 . S
N2254 H2266 0.984 . S
N2254 H2267 0.985 . S
N2255 C2257 1.356 . S
N2255 H2260 0.984 . S
N2255 H2261 0.985 . S
C2256 C2250 1.379 . S
C2256 C2253 1.363 . S
C2256 N2254 1.356 . S
C2257 C2251 1.363 . S
C2257 C2252 1.379 . S
C2257 N2255 1.356 . S
N2258 C2250 1.356 . S
N2258 H2264 0.984 . S
N2258 H2265 0.984 . S
N2259 C2252 1.356 . S
N2259 H2262 0.984 . S
N2259 H2263 0.985 . S
H2260 N2255 0.984 . S
H2261 N2255 0.985 . S
H2262 N2259 0.984 . S
H2263 N2259 0.985 . S
H2264 N2258 0.984 . S
H2265 N2258 0.984 . S
H2266 N2254 0.984 . S
H2267 N2254 0.985 . S
C2268 C2269 1.363 . S
C2268 C2274 1.379 . S
C2268 N2276 1.356 . S
C2269 C2268 1.363 . S
C2269 C2275 1.363 . S
C2270 C2271 1.363 . S
C2270 C2275 1.379 . S
C2270 N2277 1.356 . S
C2271 C2270 1.363 . S
C2271 C2274 1.363 . S
N2272 C2274 1.356 . S
N2272 H2284 0.984 . S
N2272 H2285 0.985 . S
N2273 C2275 1.356 . S
N2273 H2278 0.984 . S
N2273 H2279 0.985 . S
C2274 C2268 1.379 . S
C2274 C2271 1.363 . S
C2274 N2272 1.356 . S
C2275 C2269 1.363 . S
C2275 C2270 1.379 . S
C2275 N2273 1.356 . S
N2276 C2268 1.356 . S
N2276 H2282 0.984 . S
N2276 H2283 0.984 . S
N2277 C2270 1.356 . S
N2277 H2280 0.984 . S
N2277 H2281 0.985 . S
H2278 N2273 0.984 . S
H2279 N2273 0.985 . S
H2280 N2277 0.984 . S
H2281 N2277 0.985 . S
H2282 N2276 0.984 . S
H2283 N2276 0.984 . S
H2284 N2272 0.984 . S
H2285 N2272 0.985 . S
C2286 C2287 1.363 . S
C2286 C2292 1.379 . S
C2286 N2294 1.356 . S
C2287 C2286 1.363 . S
C2287 C2293 1.363 . S
C2288 C2289 1.363 . S
C2288 C2293 1.379 . S
C2288 N2295 1.356 . S
C2289 C2288 1.363 . S
C2289 C2292 1.363 . S
N2290 C2292 1.356 . S
N2290 H2302 0.984 . S
N2290 H2303 0.985 . S
N2291 C2293 1.356 . S
N2291 H2296 0.984 . S
N2291 H2297 0.985 . S
C2292 C2286 1.379 . S
C2292 C2289 1.363 . S
C2292 N2290 1.356 . S
C2293 C2287 1.363 . S
C2293 C2288 1.379 . S
C2293 N2291 1.356 . S
N2294 C2286 1.356 . S
N2294 H2300 0.984 . S
N2294 H2301 0.984 . S
N2295 C2288 1.356 . S
N2295 H2298 0.984 . S
N2295 H2299 0.985 . S
H2296 N2291 0.984 . S
H2297 N2291 0.985 . S
H2298 N2295 0.984 . S
H2299 N2295 0.985 . S
H2300 N2294 0.984 . S
H2301 N2294 0.984 . S
H2302 N2290 0.984 . S
H2303 N2290 0.985 . S
C2304 C2305 1.363 . S
C2304 C2310 1.379 . S
C2304 N2312 1.356 . S
C2305 C2304 1.363 . S
C2305 C2311 1.363 . S
C2306 C2307 1.363 . S
C2306 C2311 1.379 . S
C2306 N2313 1.356 . S
C2307 C2306 1.363 . S
C2307 C2310 1.363 . S
N2308 C2310 1.356 . S
N2308 H2320 0.984 . S
N2308 H2321 0.985 . S
N2309 C2311 1.356 . S
N2309 H2314 0.984 . S
N2309 H2315 0.985 . S
C2310 C2304 1.379 . S
C2310 C2307 1.363 . S
C2310 N2308 1.356 . S
C2311 C2305 1.363 . S
C2311 C2306 1.379 . S
C2311 N2309 1.356 . S
N2312 C2304 1.356 . S
N2312 H2318 0.984 . S
N2312 H2319 0.984 . S
N2313 C2306 1.356 . S
N2313 H2316 0.984 . S
N2313 H2317 0.985 . S
H2314 N2309 0.984 . S
H2315 N2309 0.985 . S
H2316 N2313 0.984 . S
H2317 N2313 0.985 . S
H2318 N2312 0.984 . S
H2319 N2312 0.984 . S
H2320 N2308 0.984 . S
H2321 N2308 0.985 . S
C2322 C2323 1.363 . S
C2322 C2328 1.379 . S
C2322 N2330 1.356 . S
C2323 C2322 1.363 . S
C2323 C2329 1.363 . S
C2324 C2325 1.363 . S
C2324 C2329 1.379 . S
C2324 N2331 1.356 . S
C2325 C2324 1.363 . S
C2325 C2328 1.363 . S
N2326 C2328 1.356 . S
N2326 H2338 0.984 . S
N2326 H2339 0.985 . S
N2327 C2329 1.356 . S
N2327 H2332 0.984 . S
N2327 H2333 0.985 . S
C2328 C2322 1.379 . S
C2328 C2325 1.363 . S
C2328 N2326 1.356 . S
C2329 C2323 1.363 . S
C2329 C2324 1.379 . S
C2329 N2327 1.356 . S
N2330 C2322 1.356 . S
N2330 H2336 0.984 . S
N2330 H2337 0.984 . S
N2331 C2324 1.356 . S
N2331 H2334 0.984 . S
N2331 H2335 0.985 . S
H2332 N2327 0.984 . S
H2333 N2327 0.985 . S
H2334 N2331 0.984 . S
H2335 N2331 0.985 . S
H2336 N2330 0.984 . S
H2337 N2330 0.984 . S
H2338 N2326 0.984 . S
H2339 N2326 0.985 . S
C2340 C2341 1.363 . S
C2340 C2346 1.379 . S
C2340 N2348 1.356 . S
C2341 C2340 1.363 . S
C2341 C2347 1.363 . S
C2342 C2343 1.363 . S
C2342 C2347 1.379 . S
C2342 N2349 1.356 . S
C2343 C2342 1.363 . S
C2343 C2346 1.363 . S
N2344 C2346 1.356 . S
N2344 H2356 0.984 . S
N2344 H2357 0.985 . S
N2345 C2347 1.356 . S
N2345 H2350 0.984 . S
N2345 H2351 0.985 . S
C2346 C2340 1.379 . S
C2346 C2343 1.363 . S
C2346 N2344 1.356 . S
C2347 C2341 1.363 . S
C2347 C2342 1.379 . S
C2347 N2345 1.356 . S
N2348 C2340 1.356 . S
N2348 H2354 0.984 . S
N2348 H2355 0.984 . S
N2349 C2342 1.356 . S
N2349 H2352 0.984 . S
N2349 H2353 0.985 . S
H2350 N2345 0.984 . S
H2351 N2345 0.985 . S
H2352 N2349 0.984 . S
H2353 N2349 0.985 . S
H2354 N2348 0.984 . S
H2355 N2348 0.984 . S
H2356 N2344 0.984 . S
H2357 N2344 0.985 . S
C2358 C2359 1.363 . S
C2358 C2364 1.379 . S
C2358 N2366 1.356 . S
C2359 C2358 1.363 . S
C2359 C2365 1.363 . S
C2360 C2361 1.363 . S
C2360 C2365 1.379 . S
C2360 N2367 1.356 . S
C2361 C2360 1.363 . S
C2361 C2364 1.363 . S
N2362 C2364 1.356 . S
N2362 H2374 0.984 . S
N2362 H2375 0.985 . S
N2363 C2365 1.356 . S
N2363 H2368 0.984 . S
N2363 H2369 0.985 . S
C2364 C2358 1.379 . S
C2364 C2361 1.363 . S
C2364 N2362 1.356 . S
C2365 C2359 1.363 . S
C2365 C2360 1.379 . S
C2365 N2363 1.356 . S
N2366 C2358 1.356 . S
N2366 H2372 0.984 . S
N2366 H2373 0.984 . S
N2367 C2360 1.356 . S
N2367 H2370 0.984 . S
N2367 H2371 0.985 . S
H2368 N2363 0.984 . S
H2369 N2363 0.985 . S
H2370 N2367 0.984 . S
H2371 N2367 0.985 . S
H2372 N2366 0.984 . S
H2373 N2366 0.984 . S
H2374 N2362 0.984 . S
H2375 N2362 0.985 . S
C2376 C2377 1.363 . S
C2376 C2382 1.379 . S
C2376 N2384 1.356 . S
C2377 C2376 1.363 . S
C2377 C2383 1.363 . S
C2378 C2379 1.363 . S
C2378 C2383 1.379 . S
C2378 N2385 1.356 . S
C2379 C2378 1.363 . S
C2379 C2382 1.363 . S
N2380 C2382 1.356 . S
N2380 H2392 0.984 . S
N2380 H2393 0.985 . S
N2381 C2383 1.356 . S
N2381 H2386 0.984 . S
N2381 H2387 0.985 . S
C2382 C2376 1.379 . S
C2382 C2379 1.363 . S
C2382 N2380 1.356 . S
C2383 C2377 1.363 . S
C2383 C2378 1.379 . S
C2383 N2381 1.356 . S
N2384 C2376 1.356 . S
N2384 H2390 0.984 . S
N2384 H2391 0.984 . S
N2385 C2378 1.356 . S
N2385 H2388 0.984 . S
N2385 H2389 0.985 . S
H2386 N2381 0.984 . S
H2387 N2381 0.985 . S
H2388 N2385 0.984 . S
H2389 N2385 0.985 . S
H2390 N2384 0.984 . S
H2391 N2384 0.984 . S
H2392 N2380 0.984 . S
H2393 N2380 0.985 . S
C2394 C2395 1.363 . S
C2394 C2400 1.379 . S
C2394 N2402 1.356 . S
C2395 C2394 1.363 . S
C2395 C2401 1.363 . S
C2396 C2397 1.363 . S
C2396 C2401 1.379 . S
C2396 N2403 1.356 . S
C2397 C2396 1.363 . S
C2397 C2400 1.363 . S
N2398 C2400 1.356 . S
N2398 H2410 0.984 . S
N2398 H2411 0.985 . S
N2399 C2401 1.356 . S
N2399 H2404 0.984 . S
N2399 H2405 0.985 . S
C2400 C2394 1.379 . S
C2400 C2397 1.363 . S
C2400 N2398 1.356 . S
C2401 C2395 1.363 . S
C2401 C2396 1.379 . S
C2401 N2399 1.356 . S
N2402 C2394 1.356 . S
N2402 H2408 0.984 . S
N2402 H2409 0.984 . S
N2403 C2396 1.356 . S
N2403 H2406 0.984 . S
N2403 H2407 0.985 . S
H2404 N2399 0.984 . S
H2405 N2399 0.985 . S
H2406 N2403 0.984 . S
H2407 N2403 0.985 . S
H2408 N2402 0.984 . S
H2409 N2402 0.984 . S
H2410 N2398 0.984 . S
H2411 N2398 0.985 . S
C2412 C2413 1.363 . S
C2412 C2418 1.379 . S
C2412 N2420 1.356 . S
C2413 C2412 1.363 . S
C2413 C2419 1.363 . S
C2414 C2415 1.363 . S
C2414 C2419 1.379 . S
C2414 N2421 1.356 . S
C2415 C2414 1.363 . S
C2415 C2418 1.363 . S
N2416 C2418 1.356 . S
N2416 H2428 0.984 . S
N2416 H2429 0.985 . S
N2417 C2419 1.356 . S
N2417 H2422 0.984 . S
N2417 H2423 0.985 . S
C2418 C2412 1.379 . S
C2418 C2415 1.363 . S
C2418 N2416 1.356 . S
C2419 C2413 1.363 . S
C2419 C2414 1.379 . S
C2419 N2417 1.356 . S
N2420 C2412 1.356 . S
N2420 H2426 0.984 . S
N2420 H2427 0.984 . S
N2421 C2414 1.356 . S
N2421 H2424 0.984 . S
N2421 H2425 0.985 . S
H2422 N2417 0.984 . S
H2423 N2417 0.985 . S
H2424 N2421 0.984 . S
H2425 N2421 0.985 . S
H2426 N2420 0.984 . S
H2427 N2420 0.984 . S
H2428 N2416 0.984 . S
H2429 N2416 0.985 . S
C2430 C2431 1.363 . S
C2430 C2436 1.379 . S
C2430 N2438 1.356 . S
C2431 C2430 1.363 . S
C2431 C2437 1.363 . S
C2432 C2433 1.363 . S
C2432 C2437 1.379 . S
C2432 N2439 1.356 . S
C2433 C2432 1.363 . S
C2433 C2436 1.363 . S
N2434 C2436 1.356 . S
N2434 H2446 0.984 . S
N2434 H2447 0.985 . S
N2435 C2437 1.356 . S
N2435 H2440 0.984 . S
N2435 H2441 0.985 . S
C2436 C2430 1.379 . S
C2436 C2433 1.363 . S
C2436 N2434 1.356 . S
C2437 C2431 1.363 . S
C2437 C2432 1.379 . S
C2437 N2435 1.356 . S
N2438 C2430 1.356 . S
N2438 H2444 0.984 . S
N2438 H2445 0.984 . S
N2439 C2432 1.356 . S
N2439 H2442 0.984 . S
N2439 H2443 0.985 . S
H2440 N2435 0.984 . S
H2441 N2435 0.985 . S
H2442 N2439 0.984 . S
H2443 N2439 0.985 . S
H2444 N2438 0.984 . S
H2445 N2438 0.984 . S
H2446 N2434 0.984 . S
H2447 N2434 0.985 . S
C2448 C2449 1.363 . S
C2448 C2454 1.379 . S
C2448 N2456 1.356 . S
C2449 C2448 1.363 . S
C2449 C2455 1.363 . S
C2450 C2451 1.363 . S
C2450 C2455 1.379 . S
C2450 N2457 1.356 . S
C2451 C2450 1.363 . S
C2451 C2454 1.363 . S
N2452 C2454 1.356 . S
N2452 H2464 0.984 . S
N2452 H2465 0.985 . S
N2453 C2455 1.356 . S
N2453 H2458 0.984 . S
N2453 H2459 0.985 . S
C2454 C2448 1.379 . S
C2454 C2451 1.363 . S
C2454 N2452 1.356 . S
C2455 C2449 1.363 . S
C2455 C2450 1.379 . S
C2455 N2453 1.356 . S
N2456 C2448 1.356 . S
N2456 H2462 0.984 . S
N2456 H2463 0.984 . S
N2457 C2450 1.356 . S
N2457 H2460 0.984 . S
N2457 H2461 0.985 . S
H2458 N2453 0.984 . S
H2459 N2453 0.985 . S
H2460 N2457 0.984 . S
H2461 N2457 0.985 . S
H2462 N2456 0.984 . S
H2463 N2456 0.984 . S
H2464 N2452 0.984 . S
H2465 N2452 0.985 . S
C2466 C2467 1.363 . S
C2466 C2472 1.379 . S
C2466 N2474 1.356 . S
C2467 C2466 1.363 . S
C2467 C2473 1.363 . S
C2468 C2469 1.363 . S
C2468 C2473 1.379 . S
C2468 N2475 1.356 . S
C2469 C2468 1.363 . S
C2469 C2472 1.363 . S
N2470 C2472 1.356 . S
N2470 H2482 0.984 . S
N2470 H2483 0.985 . S
N2471 C2473 1.356 . S
N2471 H2476 0.984 . S
N2471 H2477 0.985 . S
C2472 C2466 1.379 . S
C2472 C2469 1.363 . S
C2472 N2470 1.356 . S
C2473 C2467 1.363 . S
C2473 C2468 1.379 . S
C2473 N2471 1.356 . S
N2474 C2466 1.356 . S
N2474 H2480 0.984 . S
N2474 H2481 0.984 . S
N2475 C2468 1.356 . S
N2475 H2478 0.984 . S
N2475 H2479 0.985 . S
H2476 N2471 0.984 . S
H2477 N2471 0.985 . S
H2478 N2475 0.984 . S
H2479 N2475 0.985 . S
H2480 N2474 0.984 . S
H2481 N2474 0.984 . S
H2482 N2470 0.984 . S
H2483 N2470 0.985 . S
C2484 C2485 1.363 . S
C2484 C2490 1.379 . S
C2484 N2492 1.356 . S
C2485 C2484 1.363 . S
C2485 C2491 1.363 . S
C2486 C2487 1.363 . S
C2486 C2491 1.379 . S
C2486 N2493 1.356 . S
C2487 C2486 1.363 . S
C2487 C2490 1.363 . S
N2488 C2490 1.356 . S
N2488 H2500 0.984 . S
N2488 H2501 0.985 . S
N2489 C2491 1.356 . S
N2489 H2494 0.984 . S
N2489 H2495 0.985 . S
C2490 C2484 1.379 . S
C2490 C2487 1.363 . S
C2490 N2488 1.356 . S
C2491 C2485 1.363 . S
C2491 C2486 1.379 . S
C2491 N2489 1.356 . S
N2492 C2484 1.356 . S
N2492 H2498 0.984 . S
N2492 H2499 0.984 . S
N2493 C2486 1.356 . S
N2493 H2496 0.984 . S
N2493 H2497 0.985 . S
H2494 N2489 0.984 . S
H2495 N2489 0.985 . S
H2496 N2493 0.984 . S
H2497 N2493 0.985 . S
H2498 N2492 0.984 . S
H2499 N2492 0.984 . S
H2500 N2488 0.984 . S
H2501 N2488 0.985 . S
C2502 C2503 1.363 . S
C2502 C2508 1.379 . S
C2502 N2510 1.356 . S
C2503 C2502 1.363 . S
C2503 C2509 1.363 . S
C2504 C2505 1.363 . S
C2504 C2509 1.379 . S
C2504 N2511 1.356 . S
C2505 C2504 1.363 . S
C2505 C2508 1.363 . S
N2506 C2508 1.356 . S
N2506 H2518 0.984 . S
N2506 H2519 0.985 . S
N2507 C2509 1.356 . S
N2507 H2512 0.984 . S
N2507 H2513 0.985 . S
C2508 C2502 1.379 . S
C2508 C2505 1.363 . S
C2508 N2506 1.356 . S
C2509 C2503 1.363 . S
C2509 C2504 1.379 . S
C2509 N2507 1.356 . S
N2510 C2502 1.356 . S
N2510 H2516 0.984 . S
N2510 H2517 0.984 . S
N2511 C2504 1.356 . S
N2511 H2514 0.984 . S
N2511 H2515 0.985 . S
H2512 N2507 0.984 . S
H2513 N2507 0.985 . S
H2514 N2511 0.984 . S
H2515 N2511 0.985 . S
H2516 N2510 0.984 . S
H2517 N2510 0.984 . S
H2518 N2506 0.984 . S
H2519 N2506 0.985 . S
C2520 C2521 1.363 . S
C2520 C2526 1.379 . S
C2520 N2528 1.356 . S
C2521 C2520 1.363 . S
C2521 C2527 1.363 . S
C2522 C2523 1.363 . S
C2522 C2527 1.379 . S
C2522 N2529 1.356 . S
C2523 C2522 1.363 . S
C2523 C2526 1.363 . S
N2524 C2526 1.356 . S
N2524 H2536 0.984 . S
N2524 H2537 0.985 . S
N2525 C2527 1.356 . S
N2525 H2530 0.984 . S
N2525 H2531 0.985 . S
C2526 C2520 1.379 . S
C2526 C2523 1.363 . S
C2526 N2524 1.356 . S
C2527 C2521 1.363 . S
C2527 C2522 1.379 . S
C2527 N2525 1.356 . S
N2528 C2520 1.356 . S
N2528 H2534 0.984 . S
N2528 H2535 0.984 . S
N2529 C2522 1.356 . S
N2529 H2532 0.984 . S
N2529 H2533 0.985 . S
H2530 N2525 0.984 . S
H2531 N2525 0.985 . S
H2532 N2529 0.984 . S
H2533 N2529 0.985 . S
H2534 N2528 0.984 . S
H2535 N2528 0.984 . S
H2536 N2524 0.984 . S
H2537 N2524 0.985 . S
C2538 C2539 1.363 . S
C2538 C2544 1.379 . S
C2538 N2546 1.356 . S
C2539 C2538 1.363 . S
C2539 C2545 1.363 . S
C2540 C2541 1.363 . S
C2540 C2545 1.379 . S
C2540 N2547 1.356 . S
C2541 C2540 1.363 . S
C2541 C2544 1.363 . S
N2542 C2544 1.356 . S
N2542 H2554 0.984 . S
N2542 H2555 0.985 . S
N2543 C2545 1.356 . S
N2543 H2548 0.984 . S
N2543 H2549 0.985 . S
C2544 C2538 1.379 . S
C2544 C2541 1.363 . S
C2544 N2542 1.356 . S
C2545 C2539 1.363 . S
C2545 C2540 1.379 . S
C2545 N2543 1.356 . S
N2546 C2538 1.356 . S
N2546 H2552 0.984 . S
N2546 H2553 0.984 . S
N2547 C2540 1.356 . S
N2547 H2550 0.984 . S
N2547 H2551 0.985 . S
H2548 N2543 0.984 . S
H2549 N2543 0.985 . S
H2550 N2547 0.984 . S
H2551 N2547 0.985 . S
H2552 N2546 0.984 . S
H2553 N2546 0.984 . S
H2554 N2542 0.984 . S
H2555 N2542 0.985 . S
C2556 C2557 1.363 . S
C2556 C2562 1.379 . S
C2556 N2564 1.356 . S
C2557 C2556 1.363 . S
C2557 C2563 1.363 . S
C2558 C2559 1.363 . S
C2558 C2563 1.379 . S
C2558 N2565 1.356 . S
C2559 C2558 1.363 . S
C2559 C2562 1.363 . S
N2560 C2562 1.356 . S
N2560 H2572 0.984 . S
N2560 H2573 0.985 . S
N2561 C2563 1.356 . S
N2561 H2566 0.984 . S
N2561 H2567 0.985 1_554 S
C2562 C2556 1.379 . S
C2562 C2559 1.363 . S
C2562 N2560 1.356 . S
C2563 C2557 1.363 . S
C2563 C2558 1.379 . S
C2563 N2561 1.356 . S
N2564 C2556 1.356 . S
N2564 H2570 0.984 . S
N2564 H2571 0.984 . S
N2565 C2558 1.356 . S
N2565 H2568 0.984 . S
N2565 H2569 0.985 . S
H2566 N2561 0.984 . S
H2567 N2561 0.985 1_556 S
H2568 N2565 0.984 . S
H2569 N2565 0.985 . S
H2570 N2564 0.984 . S
H2571 N2564 0.984 . S
H2572 N2560 0.984 . S
H2573 N2560 0.985 . S
C2574 C2575 1.363 . S
C2574 C2580 1.379 . S
C2574 N2582 1.356 . S
C2575 C2574 1.363 . S
C2575 C2581 1.363 . S
C2576 C2577 1.363 . S
C2576 C2581 1.379 . S
C2576 N2583 1.356 . S
C2577 C2576 1.363 . S
C2577 C2580 1.363 . S
N2578 C2580 1.356 . S
N2578 H2590 0.984 . S
N2578 H2591 0.985 . S
N2579 C2581 1.356 . S
N2579 H2584 0.984 . S
N2579 H2585 0.985 . S
C2580 C2574 1.379 . S
C2580 C2577 1.363 . S
C2580 N2578 1.356 . S
C2581 C2575 1.363 . S
C2581 C2576 1.379 . S
C2581 N2579 1.356 . S
N2582 C2574 1.356 . S
N2582 H2588 0.984 . S
N2582 H2589 0.984 . S
N2583 C2576 1.356 . S
N2583 H2586 0.984 . S
N2583 H2587 0.985 . S
H2584 N2579 0.984 . S
H2585 N2579 0.985 . S
H2586 N2583 0.984 . S
H2587 N2583 0.985 . S
H2588 N2582 0.984 . S
H2589 N2582 0.984 . S
H2590 N2578 0.984 . S
H2591 N2578 0.985 . S
C2592 C2593 1.363 . S
C2592 C2598 1.379 . S
C2592 N2600 1.356 . S
C2593 C2592 1.363 . S
C2593 C2599 1.363 . S
C2594 C2595 1.363 . S
C2594 C2599 1.379 . S
C2594 N2601 1.356 . S
C2595 C2594 1.363 . S
C2595 C2598 1.363 . S
N2596 C2598 1.356 . S
N2596 H2608 0.984 . S
N2596 H2609 0.985 . S
N2597 C2599 1.356 . S
N2597 H2602 0.984 . S
N2597 H2603 0.985 . S
C2598 C2592 1.379 . S
C2598 C2595 1.363 . S
C2598 N2596 1.356 . S
C2599 C2593 1.363 . S
C2599 C2594 1.379 . S
C2599 N2597 1.356 . S
N2600 C2592 1.356 . S
N2600 H2606 0.984 1_554 S
N2600 H2607 0.984 1_554 S
N2601 C2594 1.356 . S
N2601 H2604 0.984 . S
N2601 H2605 0.985 . S
H2602 N2597 0.984 . S
H2603 N2597 0.985 . S
H2604 N2601 0.984 . S
H2605 N2601 0.985 . S
H2606 N2600 0.984 1_556 S
H2607 N2600 0.984 1_556 S
H2608 N2596 0.984 . S
H2609 N2596 0.985 . S
C2610 C2611 1.363 . S
C2610 C2616 1.379 . S
C2610 N2618 1.356 1_556 S
C2611 C2610 1.363 . S
C2611 C2617 1.363 . S
C2612 C2613 1.363 . S
C2612 C2617 1.379 . S
C2612 N2619 1.356 . S
C2613 C2612 1.363 . S
C2613 C2616 1.363 . S
N2614 C2616 1.356 . S
N2614 H2626 0.984 1_556 S
N2614 H2627 0.985 . S
N2615 C2617 1.356 . S
N2615 H2620 0.984 . S
N2615 H2621 0.985 . S
C2616 C2610 1.379 . S
C2616 C2613 1.363 . S
C2616 N2614 1.356 . S
C2617 C2611 1.363 . S
C2617 C2612 1.379 . S
C2617 N2615 1.356 . S
N2618 C2610 1.356 1_554 S
N2618 H2624 0.984 . S
N2618 H2625 0.984 . S
N2619 C2612 1.356 . S
N2619 H2622 0.984 . S
N2619 H2623 0.985 . S
H2620 N2615 0.984 . S
H2621 N2615 0.985 . S
H2622 N2619 0.984 . S
H2623 N2619 0.985 . S
H2624 N2618 0.984 . S
H2625 N2618 0.984 . S
H2626 N2614 0.984 1_554 S
H2627 N2614 0.985 . S
C2628 C2629 1.363 . S
C2628 C2634 1.379 . S
C2628 N2636 1.356 . S
C2629 C2628 1.363 . S
C2629 C2635 1.363 . S
C2630 C2631 1.363 . S
C2630 C2635 1.379 . S
C2630 N2637 1.356 . S
C2631 C2630 1.363 . S
C2631 C2634 1.363 . S
N2632 C2634 1.356 . S
N2632 H2644 0.984 . S
N2632 H2645 0.985 . S
N2633 C2635 1.356 1_554 S
N2633 H2638 0.984 . S
N2633 H2639 0.985 . S
C2634 C2628 1.379 . S
C2634 C2631 1.363 . S
C2634 N2632 1.356 . S
C2635 C2629 1.363 . S
C2635 C2630 1.379 . S
C2635 N2633 1.356 1_556 S
N2636 C2628 1.356 . S
N2636 H2642 0.984 . S
N2636 H2643 0.984 . S
N2637 C2630 1.356 . S
N2637 H2640 0.984 . S
N2637 H2641 0.985 1_556 S
H2638 N2633 0.984 . S
H2639 N2633 0.985 . S
H2640 N2637 0.984 . S
H2641 N2637 0.985 1_554 S
H2642 N2636 0.984 . S
H2643 N2636 0.984 . S
H2644 N2632 0.984 . S
H2645 N2632 0.985 . S
C2646 C2647 1.363 . S
C2646 C2652 1.379 . S
C2646 N2654 1.356 . S
C2647 C2646 1.363 . S
C2647 C2653 1.363 . S
C2648 C2649 1.363 . S
C2648 C2653 1.379 . S
C2648 N2655 1.356 . S
C2649 C2648 1.363 . S
C2649 C2652 1.363 . S
N2650 C2652 1.356 . S
N2650 H2662 0.984 . S
N2650 H2663 0.985 . S
N2651 C2653 1.356 1_554 S
N2651 H2656 0.984 . S
N2651 H2657 0.985 . S
C2652 C2646 1.379 . S
C2652 C2649 1.363 . S
C2652 N2650 1.356 . S
C2653 C2647 1.363 . S
C2653 C2648 1.379 . S
C2653 N2651 1.356 1_556 S
N2654 C2646 1.356 . S
N2654 H2660 0.984 . S
N2654 H2661 0.984 . S
N2655 C2648 1.356 . S
N2655 H2658 0.984 . S
N2655 H2659 0.985 1_556 S
H2656 N2651 0.984 . S
H2657 N2651 0.985 . S
H2658 N2655 0.984 . S
H2659 N2655 0.985 1_554 S
H2660 N2654 0.984 . S
H2661 N2654 0.984 . S
H2662 N2650 0.984 . S
H2663 N2650 0.985 . S
C2664 C2665 1.363 . S
C2664 C2670 1.379 . S
C2664 N2672 1.356 . S
C2665 C2664 1.363 . S
C2665 C2671 1.363 . S
C2666 C2667 1.363 . S
C2666 C2671 1.379 . S
C2666 N2673 1.356 . S
C2667 C2666 1.363 . S
C2667 C2670 1.363 . S
N2668 C2670 1.356 . S
N2668 H2680 0.984 . S
N2668 H2681 0.985 . S
N2669 C2671 1.356 . S
N2669 H2674 0.984 . S
N2669 H2675 0.985 . S
C2670 C2664 1.379 . S
C2670 C2667 1.363 . S
C2670 N2668 1.356 . S
C2671 C2665 1.363 . S
C2671 C2666 1.379 . S
C2671 N2669 1.356 . S
N2672 C2664 1.356 . S
N2672 H2678 0.984 . S
N2672 H2679 0.984 . S
N2673 C2666 1.356 . S
N2673 H2676 0.984 . S
N2673 H2677 0.985 . S
H2674 N2669 0.984 . S
H2675 N2669 0.985 . S
H2676 N2673 0.984 . S
H2677 N2673 0.985 . S
H2678 N2672 0.984 . S
H2679 N2672 0.984 . S
H2680 N2668 0.984 . S
H2681 N2668 0.985 . S
C2682 C2683 1.363 . S
C2682 C2688 1.379 . S
C2682 N2690 1.356 1_556 S
C2683 C2682 1.363 . S
C2683 C2689 1.363 . S
C2684 C2685 1.363 . S
C2684 C2689 1.379 . S
C2684 N2691 1.356 . S
C2685 C2684 1.363 . S
C2685 C2688 1.363 . S
N2686 C2688 1.356 . S
N2686 H2698 0.984 1_556 S
N2686 H2699 0.985 . S
N2687 C2689 1.356 . S
N2687 H2692 0.984 . S
N2687 H2693 0.985 . S
C2688 C2682 1.379 . S
C2688 C2685 1.363 . S
C2688 N2686 1.356 . S
C2689 C2683 1.363 . S
C2689 C2684 1.379 . S
C2689 N2687 1.356 . S
N2690 C2682 1.356 1_554 S
N2690 H2696 0.984 . S
N2690 H2697 0.984 . S
N2691 C2684 1.356 . S
N2691 H2694 0.984 . S
N2691 H2695 0.985 . S
H2692 N2687 0.984 . S
H2693 N2687 0.985 . S
H2694 N2691 0.984 . S
H2695 N2691 0.985 . S
H2696 N2690 0.984 . S
H2697 N2690 0.984 . S
H2698 N2686 0.984 1_554 S
H2699 N2686 0.985 . S
C2700 C2701 1.363 . S
C2700 C2706 1.379 . S
C2700 N2708 1.356 1_556 S
C2701 C2700 1.363 . S
C2701 C2707 1.363 . S
C2702 C2703 1.363 . S
C2702 C2707 1.379 . S
C2702 N2709 1.356 . S
C2703 C2702 1.363 . S
C2703 C2706 1.363 . S
N2704 C2706 1.356 . S
N2704 H2716 0.984 1_556 S
N2704 H2717 0.985 . S
N2705 C2707 1.356 . S
N2705 H2710 0.984 . S
N2705 H2711 0.985 . S
C2706 C2700 1.379 . S
C2706 C2703 1.363 . S
C2706 N2704 1.356 . S
C2707 C2701 1.363 . S
C2707 C2702 1.379 . S
C2707 N2705 1.356 . S
N2708 C2700 1.356 1_554 S
N2708 H2714 0.984 . S
N2708 H2715 0.984 . S
N2709 C2702 1.356 . S
N2709 H2712 0.984 . S
N2709 H2713 0.985 . S
H2710 N2705 0.984 . S
H2711 N2705 0.985 . S
H2712 N2709 0.984 . S
H2713 N2709 0.985 . S
H2714 N2708 0.984 . S
H2715 N2708 0.984 . S
H2716 N2704 0.984 1_554 S
H2717 N2704 0.985 . S
C2718 C2719 1.363 . S
C2718 C2724 1.379 . S
C2718 N2726 1.356 . S
C2719 C2718 1.363 . S
C2719 C2725 1.363 . S
C2720 C2721 1.363 . S
C2720 C2725 1.379 . S
C2720 N2727 1.356 . S
C2721 C2720 1.363 . S
C2721 C2724 1.363 . S
N2722 C2724 1.356 . S
N2722 H2734 0.984 . S
N2722 H2735 0.985 . S
N2723 C2725 1.356 . S
N2723 H2728 0.984 . S
N2723 H2729 0.985 . S
C2724 C2718 1.379 . S
C2724 C2721 1.363 . S
C2724 N2722 1.356 . S
C2725 C2719 1.363 . S
C2725 C2720 1.379 . S
C2725 N2723 1.356 . S
N2726 C2718 1.356 . S
N2726 H2732 0.984 . S
N2726 H2733 0.984 . S
N2727 C2720 1.356 . S
N2727 H2730 0.984 . S
N2727 H2731 0.985 . S
H2728 N2723 0.984 . S
H2729 N2723 0.985 . S
H2730 N2727 0.984 . S
H2731 N2727 0.985 . S
H2732 N2726 0.984 . S
H2733 N2726 0.984 . S
H2734 N2722 0.984 . S
H2735 N2722 0.985 . S
C2736 C2737 1.363 . S
C2736 C2742 1.379 . S
C2736 N2744 1.356 . S
C2737 C2736 1.363 . S
C2737 C2743 1.363 . S
C2738 C2739 1.363 . S
C2738 C2743 1.379 . S
C2738 N2745 1.356 . S
C2739 C2738 1.363 . S
C2739 C2742 1.363 . S
N2740 C2742 1.356 . S
N2740 H2752 0.984 . S
N2740 H2753 0.985 . S
N2741 C2743 1.356 . S
N2741 H2746 0.984 1_554 S
N2741 H2747 0.985 1_554 S
C2742 C2736 1.379 . S
C2742 C2739 1.363 . S
C2742 N2740 1.356 . S
C2743 C2737 1.363 . S
C2743 C2738 1.379 . S
C2743 N2741 1.356 . S
N2744 C2736 1.356 . S
N2744 H2750 0.984 . S
N2744 H2751 0.984 . S
N2745 C2738 1.356 . S
N2745 H2748 0.984 . S
N2745 H2749 0.985 . S
H2746 N2741 0.984 1_556 S
H2747 N2741 0.985 1_556 S
H2748 N2745 0.984 . S
H2749 N2745 0.985 . S
H2750 N2744 0.984 . S
H2751 N2744 0.984 . S
H2752 N2740 0.984 . S
H2753 N2740 0.985 . S
C2754 C2755 1.363 . S
C2754 C2760 1.379 . S
C2754 N2762 1.356 . S
C2755 C2754 1.363 . S
C2755 C2761 1.363 . S
C2756 C2757 1.363 . S
C2756 C2761 1.379 . S
C2756 N2763 1.356 . S
C2757 C2756 1.363 . S
C2757 C2760 1.363 . S
N2758 C2760 1.356 . S
N2758 H2770 0.984 . S
N2758 H2771 0.985 . S
N2759 C2761 1.356 . S
N2759 H2764 0.984 . S
N2759 H2765 0.985 . S
C2760 C2754 1.379 . S
C2760 C2757 1.363 . S
C2760 N2758 1.356 . S
C2761 C2755 1.363 . S
C2761 C2756 1.379 . S
C2761 N2759 1.356 . S
N2762 C2754 1.356 . S
N2762 H2768 0.984 1_554 S
N2762 H2769 0.984 . S
N2763 C2756 1.356 . S
N2763 H2766 0.984 . S
N2763 H2767 0.985 . S
H2764 N2759 0.984 . S
H2765 N2759 0.985 . S
H2766 N2763 0.984 . S
H2767 N2763 0.985 . S
H2768 N2762 0.984 1_556 S
H2769 N2762 0.984 . S
H2770 N2758 0.984 . S
H2771 N2758 0.985 . S
C2772 C2773 1.363 . S
C2772 C2778 1.379 . S
C2772 N2780 1.356 . S
C2773 C2772 1.363 . S
C2773 C2779 1.363 . S
C2774 C2775 1.363 . S
C2774 C2779 1.379 . S
C2774 N2781 1.356 . S
C2775 C2774 1.363 . S
C2775 C2778 1.363 . S
N2776 C2778 1.356 . S
N2776 H2788 0.984 . S
N2776 H2789 0.985 . S
N2777 C2779 1.356 . S
N2777 H2782 0.984 . S
N2777 H2783 0.985 . S
C2778 C2772 1.379 . S
C2778 C2775 1.363 . S
C2778 N2776 1.356 . S
C2779 C2773 1.363 . S
C2779 C2774 1.379 . S
C2779 N2777 1.356 . S
N2780 C2772 1.356 . S
N2780 H2786 0.984 . S
N2780 H2787 0.984 . S
N2781 C2774 1.356 . S
N2781 H2784 0.984 . S
N2781 H2785 0.985 . S
H2782 N2777 0.984 . S
H2783 N2777 0.985 . S
H2784 N2781 0.984 . S
H2785 N2781 0.985 . S
H2786 N2780 0.984 . S
H2787 N2780 0.984 . S
H2788 N2776 0.984 . S
H2789 N2776 0.985 . S
C2790 C2791 1.363 . S
C2790 C2796 1.379 . S
C2790 N2798 1.356 . S
C2791 C2790 1.363 . S
C2791 C2797 1.363 . S
C2792 C2793 1.363 . S
C2792 C2797 1.379 . S
C2792 N2799 1.356 . S
C2793 C2792 1.363 . S
C2793 C2796 1.363 . S
N2794 C2796 1.356 . S
N2794 H2806 0.984 . S
N2794 H2807 0.985 . S
N2795 C2797 1.356 . S
N2795 H2800 0.984 . S
N2795 H2801 0.985 . S
C2796 C2790 1.379 . S
C2796 C2793 1.363 . S
C2796 N2794 1.356 . S
C2797 C2791 1.363 . S
C2797 C2792 1.379 . S
C2797 N2795 1.356 . S
N2798 C2790 1.356 . S
N2798 H2804 0.984 . S
N2798 H2805 0.984 . S
N2799 C2792 1.356 . S
N2799 H2802 0.984 . S
N2799 H2803 0.985 . S
H2800 N2795 0.984 . S
H2801 N2795 0.985 . S
H2802 N2799 0.984 . S
H2803 N2799 0.985 . S
H2804 N2798 0.984 . S
H2805 N2798 0.984 . S
H2806 N2794 0.984 . S
H2807 N2794 0.985 . S
C2808 C2809 1.363 . S
C2808 C2814 1.379 . S
C2808 N2816 1.356 . S
C2809 C2808 1.363 . S
C2809 C2815 1.363 . S
C2810 C2811 1.363 . S
C2810 C2815 1.379 . S
C2810 N2817 1.356 . S
C2811 C2810 1.363 . S
C2811 C2814 1.363 . S
N2812 C2814 1.356 . S
N2812 H2824 0.984 . S
N2812 H2825 0.985 . S
N2813 C2815 1.356 . S
N2813 H2818 0.984 . S
N2813 H2819 0.985 . S
C2814 C2808 1.379 . S
C2814 C2811 1.363 . S
C2814 N2812 1.356 . S
C2815 C2809 1.363 . S
C2815 C2810 1.379 . S
C2815 N2813 1.356 . S
N2816 C2808 1.356 . S
N2816 H2822 0.984 . S
N2816 H2823 0.984 . S
N2817 C2810 1.356 . S
N2817 H2820 0.984 . S
N2817 H2821 0.985 . S
H2818 N2813 0.984 . S
H2819 N2813 0.985 . S
H2820 N2817 0.984 . S
H2821 N2817 0.985 . S
H2822 N2816 0.984 . S
H2823 N2816 0.984 . S
H2824 N2812 0.984 . S
H2825 N2812 0.985 . S
C2826 C2827 1.343 1_655 S
C2826 C2832 1.392 . S
C2826 N2834 1.357 . S
C2827 C2826 1.343 1_455 S
C2827 C2833 1.363 . S
C2828 C2829 1.363 . S
C2828 C2833 1.379 . S
C2828 N2835 1.356 . S
C2829 C2828 1.363 . S
C2829 C2832 1.363 1_455 S
N2830 C2832 1.356 . S
N2830 H2842 0.984 . S
N2830 H2843 0.985 . S
N2831 C2833 1.356 . S
N2831 H2836 0.984 . S
N2831 H2837 0.985 . S
C2832 C2826 1.392 . S
C2832 C2829 1.363 1_655 S
C2832 N2830 1.356 . S
C2833 C2827 1.363 . S
C2833 C2828 1.379 . S
C2833 N2831 1.356 . S
N2834 C2826 1.357 . S
N2834 H2840 0.984 . S
N2834 H2841 0.984 . S
N2835 C2828 1.356 . S
N2835 H2838 0.984 . S
N2835 H2839 0.985 . S
H2836 N2831 0.984 . S
H2837 N2831 0.985 . S
H2838 N2835 0.984 . S
H2839 N2835 0.985 . S
H2840 N2834 0.984 . S
H2841 N2834 0.984 . S
H2842 N2830 0.984 . S
H2843 N2830 0.985 . S
C2844 C2845 1.363 . S
C2844 C2850 1.379 . S
C2844 N2852 1.356 . S
C2845 C2844 1.363 . S
C2845 C2851 1.363 . S
C2846 C2847 1.363 . S
C2846 C2851 1.379 . S
C2846 N2853 1.356 . S
C2847 C2846 1.363 . S
C2847 C2850 1.363 . S
N2848 C2850 1.356 . S
N2848 H2860 0.984 . S
N2848 H2861 0.985 . S
N2849 C2851 1.356 . S
N2849 H2854 0.984 . S
N2849 H2855 0.985 . S
C2850 C2844 1.379 . S
C2850 C2847 1.363 . S
C2850 N2848 1.356 . S
C2851 C2845 1.363 . S
C2851 C2846 1.379 . S
C2851 N2849 1.356 . S
N2852 C2844 1.356 . S
N2852 H2858 0.984 . S
N2852 H2859 0.984 . S
N2853 C2846 1.356 . S
N2853 H2856 0.984 . S
N2853 H2857 0.985 . S
H2854 N2849 0.984 . S
H2855 N2849 0.985 . S
H2856 N2853 0.984 . S
H2857 N2853 0.985 . S
H2858 N2852 0.984 . S
H2859 N2852 0.984 . S
H2860 N2848 0.984 . S
H2861 N2848 0.985 . S
C2862 C2863 1.386 . S
C2862 C2868 1.405 1_565 S
C2862 N2870 1.312 1_565 S
C2863 C2862 1.386 . S
C2863 C2869 1.363 . S
C2864 C2865 1.363 . S
C2864 C2869 1.379 . S
C2864 N2871 1.356 . S
C2865 C2864 1.363 . S
C2865 C2868 1.363 1_565 S
N2866 C2868 1.356 . S
N2866 H2878 0.984 . S
N2866 H2879 0.985 . S
N2867 C2869 1.356 . S
N2867 H2872 0.984 . S
N2867 H2873 0.985 . S
C2868 C2862 1.405 1_545 S
C2868 C2865 1.363 1_545 S
C2868 N2866 1.356 . S
C2869 C2863 1.363 . S
C2869 C2864 1.379 . S
C2869 N2867 1.356 . S
N2870 C2862 1.312 1_545 S
N2870 H2876 0.984 . S
N2870 H2877 0.981 . S
N2871 C2864 1.356 . S
N2871 H2874 0.984 . S
N2871 H2875 0.985 . S
H2872 N2867 0.984 . S
H2873 N2867 0.985 . S
H2874 N2871 0.984 . S
H2875 N2871 0.985 . S
H2876 N2870 0.984 . S
H2877 N2870 0.981 . S
H2878 N2866 0.984 . S
H2879 N2866 0.985 . S
C2880 C2881 1.363 . S
C2880 C2886 1.379 . S
C2880 N2888 1.356 . S
C2881 C2880 1.363 . S
C2881 C2887 1.363 1_565 S
C2882 C2883 1.363 1_545 S
C2882 C2887 1.379 . S
C2882 N2889 1.356 . S
C2883 C2882 1.363 1_565 S
C2883 C2886 1.363 . S
N2884 C2886 1.356 . S
N2884 H2896 0.984 . S
N2884 H2897 0.985 . S
N2885 C2887 1.356 . S
N2885 H2890 0.984 . S
N2885 H2891 0.985 . S
C2886 C2880 1.379 . S
C2886 C2883 1.363 . S
C2886 N2884 1.356 . S
C2887 C2881 1.363 1_545 S
C2887 C2882 1.379 . S
C2887 N2885 1.356 . S
N2888 C2880 1.356 . S
N2888 H2894 0.984 . S
N2888 H2895 0.984 . S
N2889 C2882 1.356 . S
N2889 H2892 0.984 . S
N2889 H2893 0.985 . S
H2890 N2885 0.984 . S
H2891 N2885 0.985 . S
H2892 N2889 0.984 . S
H2893 N2889 0.985 . S
H2894 N2888 0.984 . S
H2895 N2888 0.984 . S
H2896 N2884 0.984 . S
H2897 N2884 0.985 . S
C2898 C2899 1.363 1_655 S
C2898 C2904 1.379 . S
C2898 N2906 1.356 . S
C2899 C2898 1.363 1_455 S
C2899 C2905 1.363 . S
C2900 C2901 1.363 . S
C2900 C2905 1.379 . S
C2900 N2907 1.356 . S
C2901 C2900 1.363 . S
C2901 C2904 1.363 1_455 S
N2902 C2904 1.356 . S
N2902 H2914 0.984 . S
N2902 H2915 0.985 . S
N2903 C2905 1.356 . S
N2903 H2908 0.984 . S
N2903 H2909 0.985 . S
C2904 C2898 1.379 . S
C2904 C2901 1.363 1_655 S
C2904 N2902 1.356 . S
C2905 C2899 1.363 . S
C2905 C2900 1.379 . S
C2905 N2903 1.356 . S
N2906 C2898 1.356 . S
N2906 H2912 0.984 . S
N2906 H2913 0.984 . S
N2907 C2900 1.356 . S
N2907 H2910 0.984 . S
N2907 H2911 0.985 . S
H2908 N2903 0.984 . S
H2909 N2903 0.985 . S
H2910 N2907 0.984 . S
H2911 N2907 0.985 . S
H2912 N2906 0.984 . S
H2913 N2906 0.984 . S
H2914 N2902 0.984 . S
H2915 N2902 0.985 . S
C2916 C2917 1.363 . S
C2916 C2922 1.379 . S
C2916 N2924 1.356 . S
C2917 C2916 1.363 . S
C2917 C2923 1.363 . S
C2918 C2919 1.363 . S
C2918 C2923 1.379 . S
C2918 N2925 1.356 . S
C2919 C2918 1.363 . S
C2919 C2922 1.363 . S
N2920 C2922 1.356 . S
N2920 H2932 0.984 . S
N2920 H2933 0.985 . S
N2921 C2923 1.356 . S
N2921 H2926 0.984 . S
N2921 H2927 0.985 . S
C2922 C2916 1.379 . S
C2922 C2919 1.363 . S
C2922 N2920 1.356 . S
C2923 C2917 1.363 . S
C2923 C2918 1.379 . S
C2923 N2921 1.356 . S
N2924 C2916 1.356 . S
N2924 H2930 0.984 . S
N2924 H2931 0.984 . S
N2925 C2918 1.356 . S
N2925 H2928 0.984 . S
N2925 H2929 0.985 . S
H2926 N2921 0.984 . S
H2927 N2921 0.985 . S
H2928 N2925 0.984 . S
H2929 N2925 0.985 . S
H2930 N2924 0.984 . S
H2931 N2924 0.984 . S
H2932 N2920 0.984 . S
H2933 N2920 0.985 . S
C2934 C2935 1.363 . S
C2934 C2940 1.379 . S
C2934 N2942 1.356 . S
C2935 C2934 1.363 . S
C2935 C2941 1.363 . S
C2936 C2937 1.363 . S
C2936 C2941 1.379 . S
C2936 N2943 1.356 . S
C2937 C2936 1.363 . S
C2937 C2940 1.363 . S
N2938 C2940 1.356 . S
N2938 H2950 0.984 . S
N2938 H2951 0.985 . S
N2939 C2941 1.356 . S
N2939 H2944 0.984 . S
N2939 H2945 0.985 . S
C2940 C2934 1.379 . S
C2940 C2937 1.363 . S
C2940 N2938 1.356 . S
C2941 C2935 1.363 . S
C2941 C2936 1.379 . S
C2941 N2939 1.356 . S
N2942 C2934 1.356 . S
N2942 H2948 0.984 . S
N2942 H2949 0.984 . S
N2943 C2936 1.356 . S
N2943 H2946 0.984 . S
N2943 H2947 0.985 . S
H2944 N2939 0.984 . S
H2945 N2939 0.985 . S
H2946 N2943 0.984 . S
H2947 N2943 0.985 . S
H2948 N2942 0.984 . S
H2949 N2942 0.984 . S
H2950 N2938 0.984 . S
H2951 N2938 0.985 . S
C2952 C2953 1.363 . S
C2952 C2958 1.379 . S
C2952 N2960 1.356 . S
C2953 C2952 1.363 . S
C2953 C2959 1.363 . S
C2954 C2955 1.363 . S
C2954 C2959 1.379 . S
C2954 N2961 1.356 . S
C2955 C2954 1.363 . S
C2955 C2958 1.363 . S
N2956 C2958 1.356 . S
N2956 H2968 0.984 . S
N2956 H2969 0.985 . S
N2957 C2959 1.356 . S
N2957 H2962 0.984 . S
N2957 H2963 0.985 . S
C2958 C2952 1.379 . S
C2958 C2955 1.363 . S
C2958 N2956 1.356 . S
C2959 C2953 1.363 . S
C2959 C2954 1.379 . S
C2959 N2957 1.356 . S
N2960 C2952 1.356 . S
N2960 H2966 0.984 . S
N2960 H2967 0.984 . S
N2961 C2954 1.356 . S
N2961 H2964 0.984 . S
N2961 H2965 0.985 . S
H2962 N2957 0.984 . S
H2963 N2957 0.985 . S
H2964 N2961 0.984 . S
H2965 N2961 0.985 . S
H2966 N2960 0.984 . S
H2967 N2960 0.984 . S
H2968 N2956 0.984 . S
H2969 N2956 0.985 . S
C2970 C2971 1.363 . S
C2970 C2976 1.379 . S
C2970 N2978 1.356 . S
C2971 C2970 1.363 . S
C2971 C2977 1.363 . S
C2972 C2973 1.363 . S
C2972 C2977 1.379 . S
C2972 N2979 1.356 . S
C2973 C2972 1.363 . S
C2973 C2976 1.363 . S
N2974 C2976 1.356 . S
N2974 H2986 0.984 . S
N2974 H2987 0.985 . S
N2975 C2977 1.356 . S
N2975 H2980 0.984 . S
N2975 H2981 0.985 . S
C2976 C2970 1.379 . S
C2976 C2973 1.363 . S
C2976 N2974 1.356 . S
C2977 C2971 1.363 . S
C2977 C2972 1.379 . S
C2977 N2975 1.356 . S
N2978 C2970 1.356 . S
N2978 H2984 0.984 . S
N2978 H2985 0.984 . S
N2979 C2972 1.356 . S
N2979 H2982 0.984 . S
N2979 H2983 0.985 . S
H2980 N2975 0.984 . S
H2981 N2975 0.985 . S
H2982 N2979 0.984 . S
H2983 N2979 0.985 . S
H2984 N2978 0.984 . S
H2985 N2978 0.984 . S
H2986 N2974 0.984 . S
H2987 N2974 0.985 . S
C2988 C2989 1.363 . S
C2988 C2994 1.379 . S
C2988 N2996 1.356 . S
C2989 C2988 1.363 . S
C2989 C2995 1.363 1_545 S
C2990 C2991 1.363 1_565 S
C2990 C2995 1.379 . S
C2990 N2997 1.356 . S
C2991 C2990 1.363 1_545 S
C2991 C2994 1.363 . S
N2992 C2994 1.356 . S
N2992 H3004 0.984 . S
N2992 H3005 0.985 . S
N2993 C2995 1.356 . S
N2993 H2998 0.984 . S
N2993 H2999 0.985 . S
C2994 C2988 1.379 . S
C2994 C2991 1.363 . S
C2994 N2992 1.356 . S
C2995 C2989 1.363 1_565 S
C2995 C2990 1.379 . S
C2995 N2993 1.356 . S
N2996 C2988 1.356 . S
N2996 H3002 0.984 . S
N2996 H3003 0.984 . S
N2997 C2990 1.356 . S
N2997 H3000 0.984 . S
N2997 H3001 0.985 . S
H2998 N2993 0.984 . S
H2999 N2993 0.985 . S
H3000 N2997 0.984 . S
H3001 N2997 0.985 . S
H3002 N2996 0.984 . S
H3003 N2996 0.984 . S
H3004 N2992 0.984 . S
H3005 N2992 0.985 . S
C3006 C3007 1.363 . S
C3006 C3012 1.379 . S
C3006 N3014 1.356 . S
C3007 C3006 1.363 . S
C3007 C3013 1.363 1_655 S
C3008 C3009 1.363 1_455 S
C3008 C3013 1.379 . S
C3008 N3015 1.356 . S
C3009 C3008 1.363 1_655 S
C3009 C3012 1.363 . S
N3010 C3012 1.356 . S
N3010 H3022 0.984 . S
N3010 H3023 0.985 . S
N3011 C3013 1.356 . S
N3011 H3016 0.984 . S
N3011 H3017 0.985 . S
C3012 C3006 1.379 . S
C3012 C3009 1.363 . S
C3012 N3010 1.356 . S
C3013 C3007 1.363 1_455 S
C3013 C3008 1.379 . S
C3013 N3011 1.356 . S
N3014 C3006 1.356 . S
N3014 H3020 0.984 . S
N3014 H3021 0.984 . S
N3015 C3008 1.356 . S
N3015 H3018 0.984 . S
N3015 H3019 0.985 . S
H3016 N3011 0.984 . S
H3017 N3011 0.985 . S
H3018 N3015 0.984 . S
H3019 N3015 0.985 . S
H3020 N3014 0.984 . S
H3021 N3014 0.984 . S
H3022 N3010 0.984 . S
H3023 N3010 0.985 . S
C3024 C3025 1.363 . S
C3024 C3030 1.379 . S
C3024 N3032 1.356 . S
C3025 C3024 1.363 . S
C3025 C3031 1.363 . S
C3026 C3027 1.363 . S
C3026 C3031 1.379 . S
C3026 N3033 1.356 . S
C3027 C3026 1.363 . S
C3027 C3030 1.363 . S
N3028 C3030 1.356 . S
N3028 H3040 0.984 . S
N3028 H3041 0.985 . S
N3029 C3031 1.356 . S
N3029 H3034 0.984 . S
N3029 H3035 0.985 . S
C3030 C3024 1.379 . S
C3030 C3027 1.363 . S
C3030 N3028 1.356 . S
C3031 C3025 1.363 . S
C3031 C3026 1.379 . S
C3031 N3029 1.356 . S
N3032 C3024 1.356 . S
N3032 H3038 0.984 . S
N3032 H3039 0.984 . S
N3033 C3026 1.356 . S
N3033 H3036 0.984 . S
N3033 H3037 0.985 . S
H3034 N3029 0.984 . S
H3035 N3029 0.985 . S
H3036 N3033 0.984 . S
H3037 N3033 0.985 . S
H3038 N3032 0.984 . S
H3039 N3032 0.984 . S
H3040 N3028 0.984 . S
H3041 N3028 0.985 . S
C3042 C3043 1.363 . S
C3042 C3048 1.379 . S
C3042 N3050 1.356 . S
C3043 C3042 1.363 . S
C3043 C3049 1.363 . S
C3044 C3045 1.363 . S
C3044 C3049 1.379 . S
C3044 N3051 1.356 . S
C3045 C3044 1.363 . S
C3045 C3048 1.363 . S
N3046 C3048 1.356 . S
N3046 H3058 0.984 . S
N3046 H3059 0.985 . S
N3047 C3049 1.356 . S
N3047 H3052 0.984 . S
N3047 H3053 0.985 . S
C3048 C3042 1.379 . S
C3048 C3045 1.363 . S
C3048 N3046 1.356 . S
C3049 C3043 1.363 . S
C3049 C3044 1.379 . S
C3049 N3047 1.356 . S
N3050 C3042 1.356 . S
N3050 H3056 0.984 . S
N3050 H3057 0.984 . S
N3051 C3044 1.356 . S
N3051 H3054 0.984 . S
N3051 H3055 0.985 . S
H3052 N3047 0.984 . S
H3053 N3047 0.985 . S
H3054 N3051 0.984 . S
H3055 N3051 0.985 . S
H3056 N3050 0.984 . S
H3057 N3050 0.984 . S
H3058 N3046 0.984 . S
H3059 N3046 0.985 . S
C3060 C3061 1.363 . S
C3060 C3066 1.379 . S
C3060 N3068 1.356 . S
C3061 C3060 1.363 . S
C3061 C3067 1.363 . S
C3062 C3063 1.363 . S
C3062 C3067 1.379 . S
C3062 N3069 1.356 . S
C3063 C3062 1.363 . S
C3063 C3066 1.363 . S
N3064 C3066 1.356 . S
N3064 H3076 0.984 . S
N3064 H3077 0.985 . S
N3065 C3067 1.356 . S
N3065 H3070 0.984 . S
N3065 H3071 0.985 . S
C3066 C3060 1.379 . S
C3066 C3063 1.363 . S
C3066 N3064 1.356 . S
C3067 C3061 1.363 . S
C3067 C3062 1.379 . S
C3067 N3065 1.356 . S
N3068 C3060 1.356 . S
N3068 H3074 0.984 . S
N3068 H3075 0.984 . S
N3069 C3062 1.356 . S
N3069 H3072 0.984 . S
N3069 H3073 0.985 . S
H3070 N3065 0.984 . S
H3071 N3065 0.985 . S
H3072 N3069 0.984 . S
H3073 N3069 0.985 . S
H3074 N3068 0.984 . S
H3075 N3068 0.984 . S
H3076 N3064 0.984 . S
H3077 N3064 0.985 . S
C3078 C3079 1.363 . S
C3078 C3084 1.379 . S
C3078 N3086 1.356 . S
C3079 C3078 1.363 . S
C3079 C3085 1.363 . S
C3080 C3081 1.363 . S
C3080 C3085 1.379 . S
C3080 N3087 1.356 . S
C3081 C3080 1.363 . S
C3081 C3084 1.363 . S
N3082 C3084 1.356 . S
N3082 H3094 0.984 . S
N3082 H3095 0.985 . S
N3083 C3085 1.356 . S
N3083 H3088 0.984 . S
N3083 H3089 0.985 . S
C3084 C3078 1.379 . S
C3084 C3081 1.363 . S
C3084 N3082 1.356 . S
C3085 C3079 1.363 . S
C3085 C3080 1.379 . S
C3085 N3083 1.356 . S
N3086 C3078 1.356 . S
N3086 H3092 0.984 . S
N3086 H3093 0.984 . S
N3087 C3080 1.356 . S
N3087 H3090 0.984 . S
N3087 H3091 0.985 . S
H3088 N3083 0.984 . S
H3089 N3083 0.985 . S
H3090 N3087 0.984 . S
H3091 N3087 0.985 . S
H3092 N3086 0.984 . S
H3093 N3086 0.984 . S
H3094 N3082 0.984 . S
H3095 N3082 0.985 . S
C3096 C3097 1.363 . S
C3096 C3102 1.379 . S
C3096 N3104 1.356 . S
C3097 C3096 1.363 . S
C3097 C3103 1.363 . S
C3098 C3099 1.363 . S
C3098 C3103 1.379 . S
C3098 N3105 1.356 . S
C3099 C3098 1.363 . S
C3099 C3102 1.363 . S
N3100 C3102 1.356 . S
N3100 H3112 0.984 . S
N3100 H3113 0.985 . S
N3101 C3103 1.356 . S
N3101 H3106 0.984 . S
N3101 H3107 0.985 . S
C3102 C3096 1.379 . S
C3102 C3099 1.363 . S
C3102 N3100 1.356 . S
C3103 C3097 1.363 . S
C3103 C3098 1.379 . S
C3103 N3101 1.356 . S
N3104 C3096 1.356 . S
N3104 H3110 0.984 . S
N3104 H3111 0.984 . S
N3105 C3098 1.356 . S
N3105 H3108 0.984 . S
N3105 H3109 0.985 . S
H3106 N3101 0.984 . S
H3107 N3101 0.985 . S
H3108 N3105 0.984 . S
H3109 N3105 0.985 . S
H3110 N3104 0.984 . S
H3111 N3104 0.984 . S
H3112 N3100 0.984 . S
H3113 N3100 0.985 . S
C3114 C3115 1.363 . S
C3114 C3120 1.379 . S
C3114 N3122 1.356 . S
C3115 C3114 1.363 . S
C3115 C3121 1.363 . S
C3116 C3117 1.363 . S
C3116 C3121 1.379 . S
C3116 N3123 1.356 . S
C3117 C3116 1.363 . S
C3117 C3120 1.363 . S
N3118 C3120 1.356 . S
N3118 H3130 0.984 . S
N3118 H3131 0.985 . S
N3119 C3121 1.356 . S
N3119 H3124 0.984 . S
N3119 H3125 0.985 . S
C3120 C3114 1.379 . S
C3120 C3117 1.363 . S
C3120 N3118 1.356 . S
C3121 C3115 1.363 . S
C3121 C3116 1.379 . S
C3121 N3119 1.356 . S
N3122 C3114 1.356 . S
N3122 H3128 0.984 . S
N3122 H3129 0.984 . S
N3123 C3116 1.356 . S
N3123 H3126 0.984 . S
N3123 H3127 0.985 . S
H3124 N3119 0.984 . S
H3125 N3119 0.985 . S
H3126 N3123 0.984 . S
H3127 N3123 0.985 . S
H3128 N3122 0.984 . S
H3129 N3122 0.984 . S
H3130 N3118 0.984 . S
H3131 N3118 0.985 . S
C3132 C3133 1.363 . S
C3132 C3138 1.379 . S
C3132 N3140 1.356 . S
C3133 C3132 1.363 . S
C3133 C3139 1.363 . S
C3134 C3135 1.363 . S
C3134 C3139 1.379 . S
C3134 N3141 1.356 . S
C3135 C3134 1.363 . S
C3135 C3138 1.363 . S
N3136 C3138 1.356 . S
N3136 H3148 0.984 . S
N3136 H3149 0.985 . S
N3137 C3139 1.356 . S
N3137 H3142 0.984 . S
N3137 H3143 0.985 . S
C3138 C3132 1.379 . S
C3138 C3135 1.363 . S
C3138 N3136 1.356 . S
C3139 C3133 1.363 . S
C3139 C3134 1.379 . S
C3139 N3137 1.356 . S
N3140 C3132 1.356 . S
N3140 H3146 0.984 . S
N3140 H3147 0.984 . S
N3141 C3134 1.356 . S
N3141 H3144 0.984 . S
N3141 H3145 0.985 . S
H3142 N3137 0.984 . S
H3143 N3137 0.985 . S
H3144 N3141 0.984 . S
H3145 N3141 0.985 . S
H3146 N3140 0.984 . S
H3147 N3140 0.984 . S
H3148 N3136 0.984 . S
H3149 N3136 0.985 . S
C3150 C3151 1.363 1_455 S
C3150 C3156 1.379 . S
C3150 N3158 1.356 . S
C3151 C3150 1.363 1_655 S
C3151 C3157 1.363 . S
C3152 C3153 1.363 . S
C3152 C3157 1.379 . S
C3152 N3159 1.356 . S
C3153 C3152 1.363 . S
C3153 C3156 1.363 1_655 S
N3154 C3156 1.356 . S
N3154 H3166 0.984 . S
N3154 H3167 0.985 . S
N3155 C3157 1.356 . S
N3155 H3160 0.984 . S
N3155 H3161 0.985 . S
C3156 C3150 1.379 . S
C3156 C3153 1.363 1_455 S
C3156 N3154 1.356 . S
C3157 C3151 1.363 . S
C3157 C3152 1.379 . S
C3157 N3155 1.356 . S
N3158 C3150 1.356 . S
N3158 H3164 0.984 . S
N3158 H3165 0.984 . S
N3159 C3152 1.356 . S
N3159 H3162 0.984 . S
N3159 H3163 0.985 . S
H3160 N3155 0.984 . S
H3161 N3155 0.985 . S
H3162 N3159 0.984 . S
H3163 N3159 0.985 . S
H3164 N3158 0.984 . S
H3165 N3158 0.984 . S
H3166 N3154 0.984 . S
H3167 N3154 0.985 . S
C3168 C3169 1.363 . S
C3168 C3174 1.379 . S
C3168 N3176 1.356 . S
C3169 C3168 1.363 . S
C3169 C3175 1.363 . S
C3170 C3171 1.363 . S
C3170 C3175 1.379 . S
C3170 N3177 1.356 . S
C3171 C3170 1.363 . S
C3171 C3174 1.363 . S
N3172 C3174 1.356 . S
N3172 H3184 0.984 . S
N3172 H3185 0.985 . S
N3173 C3175 1.356 . S
N3173 H3178 0.984 . S
N3173 H3179 0.985 . S
C3174 C3168 1.379 . S
C3174 C3171 1.363 . S
C3174 N3172 1.356 . S
C3175 C3169 1.363 . S
C3175 C3170 1.379 . S
C3175 N3173 1.356 . S
N3176 C3168 1.356 . S
N3176 H3182 0.984 . S
N3176 H3183 0.984 . S
N3177 C3170 1.356 . S
N3177 H3180 0.984 . S
N3177 H3181 0.985 . S
H3178 N3173 0.984 . S
H3179 N3173 0.985 . S
H3180 N3177 0.984 . S
H3181 N3177 0.985 . S
H3182 N3176 0.984 . S
H3183 N3176 0.984 . S
H3184 N3172 0.984 . S
H3185 N3172 0.985 . S
C3186 C3187 1.363 1_565 S
C3186 C3192 1.379 . S
C3186 N3194 1.356 . S
C3187 C3186 1.363 1_545 S
C3187 C3193 1.363 . S
C3188 C3189 1.363 . S
C3188 C3193 1.379 . S
C3188 N3195 1.356 . S
C3189 C3188 1.363 . S
C3189 C3192 1.363 1_545 S
N3190 C3192 1.356 . S
N3190 H3202 0.984 . S
N3190 H3203 0.985 . S
N3191 C3193 1.356 . S
N3191 H3196 0.984 . S
N3191 H3197 0.985 . S
C3192 C3186 1.379 . S
C3192 C3189 1.363 1_565 S
C3192 N3190 1.356 . S
C3193 C3187 1.363 . S
C3193 C3188 1.379 . S
C3193 N3191 1.356 . S
N3194 C3186 1.356 . S
N3194 H3200 0.984 . S
N3194 H3201 0.984 . S
N3195 C3188 1.356 . S
N3195 H3198 0.984 . S
N3195 H3199 0.985 . S
H3196 N3191 0.984 . S
H3197 N3191 0.985 . S
H3198 N3195 0.984 . S
H3199 N3195 0.985 . S
H3200 N3194 0.984 . S
H3201 N3194 0.984 . S
H3202 N3190 0.984 . S
H3203 N3190 0.985 . S
C1909 C49 1.703 . S
C1911 C1753 1.702 . S
C1927 C137 1.694 . S
C1929 C1778 1.677 . S
C1947 C1789 1.709 . S
C1945 C205 1.711 . S
C1963 C196 1.703 . S
C1965 C1814 1.699 . S
C1981 C57 1.708 . S
C1983 C1832 1.711 . S
C1999 C145 1.694 . S
C2001 C1843 1.671 . S
C2017 C313 1.730 . S
C2019 C1825 1.719 1_455 S
C2037 C1850 1.676 . S
C2035 C401 1.688 . S
C2055 C1807 1.716 1_565 S
C2053 C489 1.731 . S
C2071 C469 1.730 . S
C2073 C1796 1.731 1_545 S
C2091 C1760 1.734 1_655 S
C2089 C293 1.732 . S
C2107 C381 1.688 . S
C2109 C1771 1.670 . S
C2125 C577 1.716 . S
C2127 C1861 1.690 . S
C2143 C645 1.700 . S
C2145 C1886 1.676 . S
C2163 C1897 1.658 . S
C2161 C733 1.688 . S
C2179 C724 1.696 . S
C2181 C1598 1.680 . S
C2197 C585 1.710 . S
C2199 C1616 1.692 . S
C2215 C636 1.716 . S
C2217 C1627 1.692 . S
C2233 C841 1.688 . S
C2235 C1609 1.672 . S
C2251 C937 1.705 . S
C2253 C1634 1.696 . S
C2271 C1591 1.684 . S
C2269 C1025 1.701 . S
C2289 C1904 1.694 . S
C2287 C988 1.706 . S
C2307 C1868 1.657 . S
C2305 C821 1.675 . S
C2325 C1879 1.664 . S
C2323 C900 1.685 . S
C2341 C1105 1.696 . S
C2343 C1645 1.674 . S
C2359 C1193 1.716 . S
C2361 C1670 1.699 . S
C2377 C1281 1.709 . S
C2379 C1681 1.685 . S
C2395 C1289 1.716 . S
C2397 C1706 1.697 . S
C2415 C1724 1.666 . S
C2413 C1113 1.689 . S
C2433 C1735 1.668 . S
C2431 C1201 1.700 . S
C2451 C1717 1.689 . S
C2449 C1369 1.707 . S
C2469 C1742 1.667 . S
C2467 C1457 1.685 . S
C2485 C1553 1.674 . S
C2487 C1699 1.653 . S
C2505 C1688 1.678 . S
C2503 C1516 1.687 . S
C2521 C1349 1.702 . S
C2523 C1652 1.690 . S
C2541 C1663 1.690 . S
C2539 C1437 1.705 . S
C2559 C1600 1.401 . S
C2557 C29 1.432 . S
C2575 C117 1.381 . S
C2577 C1618 1.325 . S
C2595 C1628 1.397 . S
C2593 C225 1.442 . S
C2613 C1646 1.386 . S
C2611 C233 1.428 . S
C2631 C1672 1.409 . S
C2629 C20 1.442 . S
C2649 C1682 1.316 . S
C2647 C108 1.382 . S
C2665 C321 1.496 . S
C2667 C1690 1.418 . S
C2683 C409 1.445 . S
C2685 C1654 1.337 . S
C2701 C497 1.508 . S
C2703 C1664 1.446 . S
C2719 C460 1.492 . S
C2721 C1610 1.439 . S
C2739 C1636 1.421 . S
C2737 C284 1.507 . S
C2755 C372 1.446 . S
C2757 C1592 1.363 . S
C2775 C1708 1.333 . S
C2773 C557 1.391 . S
C2791 C665 1.430 . S
C2793 C1726 1.367 . S
C2809 C753 1.434 . S
C2811 C1736 1.361 . S
C2829 C1754 1.228 . S
C2827 C761 1.285 . S
C2845 C548 1.382 . S
C2847 C1780 1.326 . S
C2863 C673 1.292 . S
C2865 C1790 1.233 . S
C2881 C849 1.313 . S
C2883 C1798 1.254 . S
C2899 C929 1.316 . S
C2901 C1762 1.229 . S
C2919 C1772 1.361 . S
C2917 C1017 1.442 . S
C2935 C997 1.452 . S
C2937 C1718 1.367 . S
C2953 C812 1.492 . S
C2955 C1744 1.380 . S
C2973 C1700 1.401 . S
C2971 C909 1.487 . S
C2991 C1816 1.231 . S
C2989 C1085 1.288 . S
C3007 C1173 1.292 . S
C3009 C1834 1.230 . S
C3025 C1261 1.382 . S
C3027 C1844 1.316 . S
C3045 C1862 1.319 . S
C3043 C1252 1.387 . S
C3063 C1888 1.371 . S
C3061 C1076 1.435 . S
C3079 C1164 1.431 . S
C3081 C1898 1.360 . S
C3097 C1377 1.456 . S
C3099 C1906 1.348 . S
C3115 C1465 1.486 . S
C3117 C1870 1.377 . S
C3135 C1880 1.402 . S
C3133 C1545 1.491 . S
C3153 C1826 1.229 1_655 S
C3151 C1525 1.305 . S
C3171 C1852 1.339 . S
C3169 C1340 1.443 . S
C3187 C1428 1.316 . S
C3189 C1808 1.264 1_545 S
