# Generated by pormake.
# Topology zzz, (3,6)-cn, num edge types: 1
# Building blocks:
#     Node 0, Type 0, BuildingBlock: BETDAH_clean_linker_0, # of connection points: 3
#     Node 1, Type 0, BuildingBlock: BETDAH_clean_linker_0, # of connection points: 3
#     Node 2, Type 0, BuildingBlock: BETDAH_clean_linker_0, # of connection points: 3
#     Node 3, Type 0, BuildingBlock: BETDAH_clean_linker_0, # of connection points: 3
#     Node 4, Type 0, BuildingBlock: BETDAH_clean_linker_0, # of connection points: 3
#     Node 5, Type 0, BuildingBlock: BETDAH_clean_linker_0, # of connection points: 3
#     Node 6, Type 0, BuildingBlock: BETDAH_clean_linker_0, # of connection points: 3
#     Node 7, Type 0, BuildingBlock: BETDAH_clean_linker_0, # of connection points: 3
#     Node 8, Type 1, BuildingBlock: PAMTUU_clean_sbu_0, # of connection points: 6
#     Node 9, Type 1, BuildingBlock: PAMTUU_clean_sbu_0, # of connection points: 6
#     Node 10, Type 1, BuildingBlock: PAMTUU_clean_sbu_0, # of connection points: 6
#     Node 11, Type 1, BuildingBlock: PAMTUU_clean_sbu_0, # of connection points: 6
#     Edge 12, Type (0, 1), BuildingBlock: KIFKEQ_clean_linker_1, # of connection points: 2
#     Edge 13, Type (0, 1), BuildingBlock: KIFKEQ_clean_linker_1, # of connection points: 2
#     Edge 14, Type (0, 1), BuildingBlock: KIFKEQ_clean_linker_1, # of connection points: 2
#     Edge 15, Type (0, 1), BuildingBlock: KIFKEQ_clean_linker_1, # of connection points: 2
#     Edge 16, Type (0, 1), BuildingBlock: KIFKEQ_clean_linker_1, # of connection points: 2
#     Edge 17, Type (0, 1), BuildingBlock: KIFKEQ_clean_linker_1, # of connection points: 2
#     Edge 18, Type (0, 1), BuildingBlock: KIFKEQ_clean_linker_1, # of connection points: 2
#     Edge 19, Type (0, 1), BuildingBlock: KIFKEQ_clean_linker_1, # of connection points: 2
#     Edge 20, Type (0, 1), BuildingBlock: KIFKEQ_clean_linker_1, # of connection points: 2
#     Edge 21, Type (0, 1), BuildingBlock: KIFKEQ_clean_linker_1, # of connection points: 2
#     Edge 22, Type (0, 1), BuildingBlock: KIFKEQ_clean_linker_1, # of connection points: 2
#     Edge 23, Type (0, 1), BuildingBlock: KIFKEQ_clean_linker_1, # of connection points: 2
#     Edge 24, Type (0, 1), BuildingBlock: KIFKEQ_clean_linker_1, # of connection points: 2
#     Edge 25, Type (0, 1), BuildingBlock: KIFKEQ_clean_linker_1, # of connection points: 2
#     Edge 26, Type (0, 1), BuildingBlock: KIFKEQ_clean_linker_1, # of connection points: 2
#     Edge 27, Type (0, 1), BuildingBlock: KIFKEQ_clean_linker_1, # of connection points: 2
#     Edge 28, Type (0, 1), BuildingBlock: KIFKEQ_clean_linker_1, # of connection points: 2
#     Edge 29, Type (0, 1), BuildingBlock: KIFKEQ_clean_linker_1, # of connection points: 2
#     Edge 30, Type (0, 1), BuildingBlock: KIFKEQ_clean_linker_1, # of connection points: 2
#     Edge 31, Type (0, 1), BuildingBlock: KIFKEQ_clean_linker_1, # of connection points: 2
#     Edge 32, Type (0, 1), BuildingBlock: KIFKEQ_clean_linker_1, # of connection points: 2
#     Edge 33, Type (0, 1), BuildingBlock: KIFKEQ_clean_linker_1, # of connection points: 2
#     Edge 34, Type (0, 1), BuildingBlock: KIFKEQ_clean_linker_1, # of connection points: 2
#     Edge 35, Type (0, 1), BuildingBlock: KIFKEQ_clean_linker_1, # of connection points: 2
# Relax obj value: 0.214
# Max RMSD: 0.224
# Mean RMSD: 0.121
data_MOF--net-zzz--node1-PAMTUU_clean_sbu_0--node2-BETDAH_clean_linker_0--edge1-KIFKEQ_clean_linker_1
_symmetry_space_group_name_H-M    P1
_symmetry_Int_Tables_number       1
_symmetry_cell_setting            triclinic
loop_
_symmetry_equiv_pos_as_xyz
'x, y, z'
_cell_length_a     51.386583
_cell_length_b     55.30445
_cell_length_c     15.899381
_cell_angle_alpha  100.78561
_cell_angle_beta   90.3661
_cell_angle_gamma 90.927671
loop_
_atom_site_label
_atom_site_type_symbol
_atom_site_fract_x
_atom_site_fract_y
_atom_site_fract_z
_atom_type_partial_charge
H0 H 0.82216 0.54529 0.47675 0.0
H1 H 0.74788 0.53177 0.34997 0.0
H2 H 0.77023 0.49049 0.5433 0.0
C3 C 0.80311 0.53633 0.47128 0.0
C4 C 0.79817 0.51809 0.5195 0.0
C5 C 0.78531 0.54104 0.40911 0.0
C6 C 0.76132 0.52833 0.39894 0.0
C7 C 0.75542 0.5103 0.448 0.0
C8 C 0.77416 0.505 0.50761 0.0
N9 N 0.73147 0.49653 0.43564 0.0
C10 C 0.7125 0.49865 0.37363 0.0
H11 H 1.01439 0.81045 0.40558 0.0
H12 H 0.99282 0.7393 0.26243 0.0
H13 H 0.96492 0.76262 0.52012 0.0
C14 C 1.00478 0.79267 0.40244 0.0
C15 C 0.98994 0.78847 0.47175 0.0
C16 C 1.00582 0.77514 0.3269 0.0
C17 C 0.99245 0.7526 0.32167 0.0
C18 C 0.97822 0.74768 0.39255 0.0
C19 C 0.97646 0.76601 0.46654 0.0
N20 N 0.96524 0.72474 0.39101 0.0
C21 C 0.97031 0.70369 0.33095 0.0
H22 H 0.73031 0.05325 0.47147 0.0
H23 H 0.79971 0.03781 0.32374 0.0
H24 H 0.77342 0.9883 0.48697 0.0
C25 C 0.74736 0.04208 0.45537 0.0
C26 C 0.74985 0.02046 0.4885 0.0
C27 C 0.76504 0.04827 0.39551 0.0
C28 C 0.78635 0.03311 0.37081 0.0
C29 C 0.78985 0.01162 0.40472 0.0
C30 C 0.77124 0.00518 0.46255 0.0
N31 N 0.81134 0.99584 0.38012 0.0
C32 C 0.8308 0.99972 0.3224 0.0
H33 H 0.52581 0.69551 0.1929 0.0
H34 H 0.53157 0.75451 0.05132 0.0
H35 H 0.5627 0.7637 0.30882 0.0
C36 C 0.53111 0.71445 0.19032 0.0
C37 C 0.54414 0.72863 0.26003 0.0
C38 C 0.52675 0.72333 0.11473 0.0
C39 C 0.53454 0.74765 0.11007 0.0
C40 C 0.54693 0.76263 0.18163 0.0
C41 C 0.55228 0.75266 0.25522 0.0
N42 N 0.5556 0.78726 0.18172 0.0
C43 C 0.54798 0.80263 0.12596 0.0
H44 H 0.22969 0.4564 0.20824 0.0
H45 H 0.30521 0.47172 0.32329 0.0
H46 H 0.28173 0.50651 0.11381 0.0
C47 C 0.24884 0.46494 0.20797 0.0
C48 C 0.25351 0.48104 0.15118 0.0
C49 C 0.26721 0.46177 0.27052 0.0
C50 C 0.29135 0.47399 0.27387 0.0
C51 C 0.29702 0.48997 0.21696 0.0
C52 C 0.27781 0.49372 0.15627 0.0
N53 N 0.32136 0.50308 0.22205 0.0
C54 C 0.34089 0.50168 0.28299 0.0
H55 H 0.02902 0.20455 0.20546 0.0
H56 H 0.05022 0.27415 0.36098 0.0
H57 H 0.08366 0.25213 0.11034 0.0
C58 C 0.03907 0.22226 0.21275 0.0
C59 C 0.05593 0.22666 0.14852 0.0
C60 C 0.03718 0.2391 0.28979 0.0
C61 C 0.05136 0.26136 0.30061 0.0
C62 C 0.06763 0.26651 0.23455 0.0
C63 C 0.07031 0.24877 0.15954 0.0
N64 N 0.08215 0.2889 0.24291 0.0
C65 C 0.07817 0.30885 0.30857 0.0
H66 H 0.31937 0.96128 0.20137 0.0
H67 H 0.24738 0.98008 0.32923 0.0
H68 H 0.27681 0.02329 0.14927 0.0
C69 C 0.30214 0.97253 0.20915 0.0
C70 C 0.30041 0.99237 0.16601 0.0
C71 C 0.28322 0.96817 0.26789 0.0
C72 C 0.26162 0.98341 0.28255 0.0
C73 C 0.25882 1.00315 0.23897 0.0
C74 C 0.27855 0.00779 0.18159 0.0
N75 N 0.2368 0.01881 0.25327 0.0
C76 C 0.21639 0.01603 0.30911 0.0
H77 H 0.52865 0.30526 0.46787 0.0
H78 H 0.51891 0.2478 0.61466 0.0
H79 H 0.48638 0.23931 0.35949 0.0
C80 C 0.52222 0.28672 0.47198 0.0
C81 C 0.5078 0.27312 0.40427 0.0
C82 C 0.52596 0.27811 0.54842 0.0
C83 C 0.51662 0.25438 0.55506 0.0
C84 C 0.50307 0.23985 0.48512 0.0
C85 C 0.49801 0.24978 0.4113 0.0
N86 N 0.49218 0.21619 0.48843 0.0
C87 C 0.50104 0.19943 0.53733 0.0
Tb88 Tb 1.0034 0.0159 0.74336 0.0
Tb89 Tb 0.04257 0.99899 0.88485 0.0
C90 C 0.9831 0.00738 0.92237 0.0
C91 C 0.98039 0.05527 0.60151 0.0
C92 C 0.98887 0.10159 0.55541 0.0
C93 C 0.96422 0.08982 0.54342 0.0
C94 C 0.95998 0.06691 0.567 0.0
C95 C 1.00513 0.06652 0.61087 0.0
C96 C 1.00929 0.0895 0.58895 0.0
C97 C 0.97544 0.03332 0.63889 0.0
O98 O 0.02862 0.04727 0.79072 0.0
O99 O 0.04097 0.03889 0.92115 0.0
O100 O 0.06835 0.01062 0.79093 0.0
O101 O 0.0399 0.00489 0.67678 0.0
O102 O 0.05219 0.99772 0.01268 0.0
O103 O 0.07524 0.97888 0.90864 0.0
O104 O 0.03118 0.96634 0.79313 0.0
O105 O 0.99233 0.97772 0.74165 0.0
O106 O 0.98248 0.0216 0.86482 0.0
O107 O 1.00305 0.99319 0.92752 0.0
C108 C 0.03816 0.05433 0.86821 0.0
O109 O 0.99112 0.01499 0.61612 0.0
O110 O 0.97237 0.03813 0.72141 0.0
C111 C 0.06381 0.00786 0.70812 0.0
C112 C 0.06482 0.95736 0.01679 0.0
C113 C 0.0558 0.90993 0.05301 0.0
C114 C 0.07972 0.92243 0.07532 0.0
C115 C 0.08423 0.94597 0.05691 0.0
C116 C 0.04094 0.94506 0.99539 0.0
C117 C 0.03653 0.9216 0.01266 0.0
C118 C 0.06965 0.98095 0.98944 0.0
C119 C 1.0083 0.96073 0.75698 0.0
H120 H 0.94815 0.09833 0.5164 0.0
H121 H 0.94067 0.05858 0.56017 0.0
H122 H 1.02111 0.05791 0.63802 0.0
H123 H 0.02839 0.09804 0.60084 0.0
H124 H 0.09487 0.91412 0.10744 0.0
H125 H 0.10288 0.95512 0.07314 0.0
H126 H 0.02583 0.95339 0.9632 0.0
H127 H 1.01812 0.91243 0.99278 0.0
Tb128 Tb 0.51763 0.98475 0.7457 0.0
Tb129 Tb 0.53731 0.01812 0.92574 0.0
C130 C 0.53426 0.96127 0.89946 0.0
C131 C 0.47436 0.94668 0.58794 0.0
C132 C 0.42404 0.9273 0.54506 0.0
C133 C 0.44606 0.91484 0.50823 0.0
C134 C 0.47105 0.92446 0.52974 0.0
C135 C 0.45254 0.9589 0.62619 0.0
C136 C 0.4276 0.94933 0.6049 0.0
C137 C 0.50059 0.95603 0.61375 0.0
O138 O 0.48368 0.98639 0.82853 0.0
O139 O 0.4948 0.01982 0.93234 0.0
O140 O 0.5391 0.04166 0.83065 0.0
O141 O 0.50713 0.0227 0.74039 0.0
O142 O 0.55879 0.02157 0.03989 0.0
O143 O 0.53685 0.05209 0.01123 0.0
O144 O 0.57318 0.0065 0.85555 0.0
O145 O 0.55723 0.9952 0.7178 0.0
O146 O 0.53895 0.96181 0.81898 0.0
O147 O 0.5277 0.98155 0.95118 0.0
C148 C 0.47745 1.0036 0.89389 0.0
O149 O 0.50486 0.97952 0.61748 0.0
O150 O 0.50963 0.94875 0.68113 0.0
C151 C 0.52165 0.04227 0.77059 0.0
C152 C 0.57719 0.06126 0.08125 0.0
C153 C 0.62298 0.08921 0.13041 0.0
C154 C 0.59947 0.09522 0.17399 0.0
C155 C 0.5768 0.08123 0.14986 0.0
C156 C 0.59997 0.05641 0.03348 0.0
C157 C 0.62268 0.07013 0.05802 0.0
C158 C 0.55417 0.04506 0.06137 0.0
C159 C 0.57684 1.00081 0.77201 0.0
H160 H 0.44393 0.89778 0.46227 0.0
H161 H 0.48778 0.91457 0.50098 0.0
H162 H 0.4548 0.97596 0.67209 0.0
H163 H 0.41108 0.95965 0.6332 0.0
H164 H 0.59884 0.11008 0.22895 0.0
H165 H 0.55921 0.08551 0.18645 0.0
H166 H 0.60052 0.0413 0.97939 0.0
H167 H 0.64033 0.06465 0.02327 0.0
Tb168 Tb 0.50566 0.49533 0.90309 0.0
Tb169 Tb 0.54719 0.50649 0.75721 0.0
C170 C 0.4866 0.49965 0.71789 0.0
C171 C 0.47817 0.45982 0.05203 0.0
C172 C 0.48161 0.41524 0.11408 0.0
C173 C 0.45812 0.42823 0.11957 0.0
C174 C 0.45642 0.45034 0.08869 0.0
C175 C 0.50159 0.44694 0.04674 0.0
C176 C 0.5033 0.42494 0.07727 0.0
C177 C 0.47625 0.48192 0.0129 0.0
O178 O 0.51502 0.46011 0.82457 0.0
O179 O 0.554 0.46795 0.76308 0.0
O180 O 0.56817 0.51331 0.88013 0.0
O181 O 0.54419 0.48847 0.95087 0.0
O182 O 0.55938 0.50366 0.62942 0.0
O183 O 0.5807 0.52617 0.73275 0.0
O184 O 0.52458 0.53945 0.79396 0.0
O185 O 0.51156 0.53534 0.92833 0.0
O186 O 0.48165 0.50487 0.80043 0.0
O187 O 0.51042 0.49496 0.68995 0.0
C188 C 0.53683 0.45259 0.78648 0.0
O189 O 0.495 0.49827 0.0321 0.0
O190 O 0.47126 0.47741 0.93096 0.0
C191 C 0.56565 0.50098 0.9428 0.0
C192 C 0.5754 0.54255 0.60892 0.0
C193 C 0.57299 0.58798 0.55204 0.0
C194 C 0.59684 0.5759 0.55418 0.0
C195 C 0.59803 0.55344 0.58273 0.0
C196 C 0.55148 0.5542 0.6048 0.0
C197 C 0.55027 0.57665 0.57662 0.0
C198 C 0.57715 0.52087 0.6503 0.0
C199 C 0.51623 0.54904 0.87044 0.0
H200 H 0.44111 0.42139 0.14819 0.0
H201 H 0.43809 0.45988 0.0926 0.0
H202 H 0.51851 0.45366 0.01738 0.0
H203 H 0.52155 0.41527 0.07039 0.0
H204 H 0.61473 0.58417 0.53638 0.0
H205 H 0.61673 0.54493 0.58669 0.0
H206 H 0.53377 0.54625 0.62543 0.0
H207 H 0.53152 0.58518 0.57449 0.0
Tb208 Tb 0.03613 0.51703 0.76515 0.0
Tb209 Tb 1.01485 0.48862 0.91101 0.0
C210 C 1.01531 0.54652 0.93515 0.0
C211 C 0.08016 0.52307 0.6008 0.0
C212 C 0.12352 0.49316 0.55265 0.0
C213 C 0.12647 0.51563 0.61048 0.0
C214 C 0.10502 0.53045 0.63429 0.0
C215 C 0.07771 0.5017 0.53722 0.0
C216 C 0.09907 0.4868 0.51407 0.0
C217 C 0.05669 0.53376 0.64566 0.0
O218 O 0.06852 0.51709 0.85642 0.0
O219 O 0.05687 0.48359 0.91436 0.0
O220 O 1.01899 0.46019 0.79717 0.0
O221 O 0.05033 0.4799 0.73294 0.0
O222 O 1.01579 0.48328 0.03847 0.0
O223 O 0.98807 0.46352 0.94746 0.0
O224 O 0.98072 0.50428 0.86009 0.0
O225 O 0.99629 0.50467 0.72674 0.0
O226 O 1.01605 0.54532 0.85209 0.0
O227 O 1.02017 0.52724 0.96951 0.0
C228 C 0.07457 0.49969 0.89928 0.0
O229 O 0.03603 0.51947 0.63515 0.0
O230 O 0.06 0.54408 0.72597 0.0
C231 C 0.03741 0.45985 0.74021 0.0
C232 C 0.97152 0.48403 0.07822 0.0
C233 C 0.92994 0.51578 0.1305 0.0
C234 C 0.92527 0.49247 0.07941 0.0
C235 C 0.94583 0.47669 0.05393 0.0
C236 C 0.97587 0.50652 0.13517 0.0
C237 C 0.95528 0.52227 0.16082 0.0
C238 C 0.99333 0.47167 0.02832 0.0
C239 C 0.97654 0.50458 0.77885 0.0
H240 H 0.14526 0.52152 0.63901 0.0
H241 H 0.10766 0.54689 0.68291 0.0
H242 H 0.05888 0.49546 0.50971 0.0
H243 H 0.09607 0.46967 0.4691 0.0
H244 H 0.90576 0.48666 0.05743 0.0
H245 H 0.94183 0.45946 0.0104 0.0
H246 H 0.99538 0.51278 0.15554 0.0
H247 H 0.9594 0.54002 0.20104 0.0
H248 H 0.2111 0.04055 0.47194 0.0
H249 H 0.17282 0.9874 0.27574 0.0
H250 H 0.17429 0.03856 0.56756 0.0
H251 H 0.13606 0.98481 0.37142 0.0
H252 H 0.06283 0.0051 0.53317 0.0
H253 H 0.0995 0.00684 0.43748 0.0
H254 H 0.15264 0.01335 0.65238 0.0
H255 H 0.11601 0.01214 0.74804 0.0
C256 C 0.19482 0.02829 0.44966 0.0
C257 C 0.19477 0.01411 0.3667 0.0
C258 C 0.17371 0.027 0.50456 0.0
C259 C 0.15196 0.01148 0.47783 0.0
C260 C 0.15215 0.99723 0.39433 0.0
C261 C 0.1733 0.99854 0.33953 0.0
C262 C 0.08233 0.00687 0.56014 0.0
C263 C 0.08628 0.00849 0.64879 0.0
C264 C 0.10347 0.00773 0.50495 0.0
C265 C 0.12927 0.01026 0.5366 0.0
C266 C 0.13317 0.01178 0.62528 0.0
C267 C 0.11205 0.01093 0.68039 0.0
H268 H 0.50702 0.19593 0.70536 0.0
H269 H 0.50607 0.15356 0.44873 0.0
H270 H 0.51188 0.15793 0.7627 0.0
H271 H 0.51118 0.11565 0.50497 0.0
H272 H 0.49086 0.05073 0.63678 0.0
H273 H 0.48665 0.08901 0.58224 0.0
H274 H 0.54195 0.12487 0.77269 0.0
H275 H 0.54594 0.08684 0.82772 0.0
C276 C 0.50824 0.17849 0.66136 0.0
C277 C 0.50641 0.17759 0.57278 0.0
C278 C 0.51102 0.1567 0.69396 0.0
C279 C 0.51178 0.13356 0.63857 0.0
C280 C 0.51027 0.13296 0.54975 0.0
C281 C 0.50762 0.15471 0.51739 0.0
C282 C 0.5021 0.06677 0.66711 0.0
C283 C 0.51877 0.06554 0.73666 0.0
C284 C 0.49981 0.08874 0.6355 0.0
C285 C 0.514 0.11016 0.67283 0.0
C286 C 0.53049 0.10893 0.74278 0.0
C287 C 0.5329 0.08697 0.77402 0.0
H288 H 0.3458 0.52997 0.441 0.0
H289 H 0.38228 0.47143 0.2672 0.0
H290 H 0.38077 0.52937 0.54598 0.0
H291 H 0.41707 0.47022 0.37236 0.0
H292 H 0.48942 0.49187 0.54217 0.0
H293 H 0.45435 0.49218 0.43856 0.0
H294 H 0.39912 0.50673 0.64471 0.0
H295 H 0.43434 0.50696 0.7485 0.0
C296 C 0.36129 0.51685 0.42566 0.0
C297 C 0.3614 0.50077 0.34615 0.0
C298 C 0.3813 0.51636 0.48601 0.0
C299 C 0.40199 0.49974 0.46835 0.0
C300 C 0.40183 0.48354 0.38833 0.0
C301 C 0.38179 0.48408 0.32808 0.0
C302 C 0.46981 0.49511 0.56566 0.0
C303 C 0.46489 0.4994 0.65424 0.0
C304 C 0.44955 0.49514 0.50587 0.0
C305 C 0.42365 0.49946 0.53253 0.0
C306 C 0.41875 0.50368 0.62122 0.0
C307 C 0.43902 0.50366 0.68104 0.0
H308 H 0.11327 0.33908 0.40354 0.0
H309 H 0.03103 0.32449 0.36367 0.0
H310 H 0.10399 0.37475 0.51526 0.0
H311 H 1.02146 0.36041 0.47387 0.0
H312 H 1.01385 0.41434 0.72686 0.0
H313 H 0.02444 0.37658 0.62729 0.0
H314 H 0.08636 0.41539 0.52273 0.0
H315 H 0.07631 0.45272 0.62294 0.0
C316 C 0.09321 0.34361 0.4191 0.0
C317 C 0.07279 0.32939 0.37573 0.0
C318 C 0.08786 0.36401 0.48254 0.0
C319 C 0.06197 0.37046 0.50331 0.0
C320 C 0.04159 0.35578 0.46024 0.0
C321 C 0.047 0.33538 0.39688 0.0
C322 C 0.02983 0.41473 0.68302 0.0
C323 C 0.04415 0.43657 0.68271 0.0
C324 C 0.0358 0.39315 0.62565 0.0
C325 C 0.05622 0.39298 0.56701 0.0
C326 C 0.07074 0.41475 0.56776 0.0
C327 C 0.0648 0.43626 0.62491 0.0
H328 H 0.84987 0.04066 0.27004 0.0
H329 H 0.85989 0.96241 0.24228 0.0
H330 H 0.88669 0.04308 0.17407 0.0
H331 H 0.89627 0.96448 0.14532 0.0
H332 H 0.97702 0.97953 0.04721 0.0
H333 H 0.94045 0.97834 0.14315 0.0
H334 H 0.90112 0.03256 0.0278 0.0
H335 H 0.93802 0.0341 0.93269 0.0
C336 C 0.8599 0.02397 0.24283 0.0
C337 C 0.85211 1.00135 0.26341 0.0
C338 C 0.88094 0.02528 0.18746 0.0
C339 C 0.89473 0.00399 0.15164 0.0
C340 C 0.88658 0.98136 0.17237 0.0
C341 C 0.86557 0.98009 0.2275 0.0
C342 C 0.96063 0.99127 0.04218 0.0
C343 C 0.96063 0.0069 0.98171 0.0
C344 C 0.93947 0.99046 0.0971 0.0
C345 C 0.91755 0.00526 0.09353 0.0
C346 C 0.91766 0.02106 0.03346 0.0
C347 C 0.93884 0.02184 0.97834 0.0
H348 H 0.57667 0.81631 1.00019 0.0
H349 H 0.50971 0.83592 0.15837 0.0
H350 H 0.57305 0.85444 0.94393 0.0
H351 H 0.50555 0.8739 0.10139 0.0
H352 H 0.52525 0.95241 0.06156 0.0
H353 H 0.52722 0.91323 0.11097 0.0
H354 H 0.54817 0.87675 0.85665 0.0
H355 H 0.54671 0.91592 0.80784 0.0
C356 C 0.56077 0.82856 0.02121 0.0
C357 C 0.54324 0.82309 0.08254 0.0
C358 C 0.55867 0.85046 0.98916 0.0
C359 C 0.53907 0.8675 0.01825 0.0
C360 C 0.52114 0.86152 0.07829 0.0
C361 C 0.52326 0.8396 0.11016 0.0
C362 C 0.53037 0.93605 0.01621 0.0
C363 C 0.53592 0.93747 0.93071 0.0
C364 C 0.53128 0.91347 0.04439 0.0
C365 C 0.53778 0.89162 0.98792 0.0
C366 C 0.54339 0.89311 0.90245 0.0
C367 C 0.54246 0.91566 0.8743 0.0
H368 H 0.69817 0.5375 0.30208 0.0
H369 H 0.68033 0.46119 0.30286 0.0
H370 H 0.66282 0.53848 0.19828 0.0
H371 H 0.64537 0.46177 0.19811 0.0
H372 H 0.5676 0.47718 0.07967 0.0
H373 H 0.60286 0.47713 0.18267 0.0
H374 H 0.649 0.52436 0.05209 0.0
H375 H 0.61342 0.5248 0.94976 0.0
C376 C 0.68673 0.5209 0.27951 0.0
C377 C 0.69192 0.49928 0.31038 0.0
C378 C 0.66653 0.52137 0.21962 0.0
C379 C 0.65097 0.50021 0.18932 0.0
C380 C 0.65649 0.47856 0.2205 0.0
C381 C 0.67667 0.47813 0.28018 0.0
C382 C 0.58523 0.4876 0.07268 0.0
C383 C 0.58749 0.50099 0.00583 0.0
C384 C 0.60563 0.48744 0.13177 0.0
C385 C 0.62905 0.50066 0.12619 0.0
C386 C 0.63126 0.51416 0.05951 0.0
C387 C 0.61083 0.51429 1.00023 0.0
H388 H 1.00634 0.69814 0.20639 0.0
H389 H 0.94742 0.65929 0.32331 0.0
H390 H 1.01694 0.66002 0.10838 0.0
H391 H 0.9578 0.62104 0.2251 0.0
H392 H 1.00589 0.55407 0.10677 0.0
H393 H 0.9944 0.59228 0.20074 0.0
H394 H 0.99768 0.63022 0.98689 0.0
H395 H 1.00936 0.59191 0.89244 0.0
C396 C 0.99552 0.68143 0.21034 0.0
C397 C 0.97602 0.68144 0.27148 0.0
C398 C 1.00151 0.65965 0.15423 0.0
C399 C 0.98819 0.63754 0.15898 0.0
C400 C 0.96857 0.63773 0.22044 0.0
C401 C 0.96252 0.65956 0.2762 0.0
C402 C 1.0042 0.57053 0.07959 0.0
C403 C 1.0086 0.56992 0.99201 0.0
C404 C 0.99743 0.59241 0.13346 0.0
C405 C 0.99508 0.61425 0.1012 0.0
C406 C 0.99957 0.61371 0.01373 0.0
C407 C 1.00615 0.59175 0.95959 0.0
H408 H 0.0588 0.23469 0.44172 0.0
H409 H 0.98714 0.22254 0.29604 0.0
H410 H 0.04426 0.20526 0.52932 0.0
H411 H 0.97252 0.19315 0.38372 0.0
H412 H 0.95531 0.14064 0.57192 0.0
H413 H 0.96327 0.18093 0.53321 0.0
H414 H 0.04105 0.15925 0.4552 0.0
H415 H 0.03294 0.11889 0.48904 0.0
C416 C 0.03936 0.22675 0.43157 0.0
C417 C 1.02416 0.23062 0.36183 0.0
C418 C 0.03116 0.20973 0.48103 0.0
C419 C 1.00754 0.19661 0.46188 0.0
C420 C 0.99081 0.20301 0.39976 0.0
C421 C 0.99912 0.21986 0.34975 0.0
C422 C 0.97405 0.14437 0.54589 0.0
C423 C 0.99348 0.12639 0.53379 0.0
C424 C 0.97865 0.16756 0.52486 0.0
C425 C 1.00292 0.17333 0.49302 0.0
C426 C 1.0224 0.15554 0.48205 0.0
C427 C 1.01769 0.13234 0.50143 0.0
H428 H 0.29339 0.9193 0.21895 0.0
H429 H 0.28746 0.97724 0.44046 0.0
H430 H 0.32038 0.8959 0.30082 0.0
H431 H 0.31519 0.95474 0.5212 0.0
H432 H 0.40831 0.91046 0.38068 0.0
H433 H 0.36437 0.90835 0.32584 0.0
H434 H 0.33494 0.92387 0.5843 0.0
H435 H 0.37957 0.92626 0.6395 0.0
C436 C 0.29694 0.92647 0.28632 0.0
C437 C 0.28901 0.95024 0.32315 0.0
C438 C 0.31254 0.91321 0.33309 0.0
C439 C 0.32094 0.9239 0.41637 0.0
C440 C 0.30939 0.9459 0.45707 0.0
C441 C 0.29345 0.95895 0.4107 0.0
C442 C 0.39252 0.91244 0.4261 0.0
C443 C 0.39744 0.9192 0.51432 0.0
C444 C 0.36708 0.91109 0.39457 0.0
C445 C 0.34597 0.91648 0.45062 0.0
C446 C 0.35077 0.92021 0.53934 0.0
C447 C 0.37632 0.92166 0.57094 0.0
H448 H 0.57401 0.2999 0.57394 0.0
H449 H 0.4973 0.30027 0.68146 0.0
H450 H 0.58188 0.34199 0.65042 0.0
H451 H 0.50432 0.34246 0.75477 0.0
H452 H 0.56507 0.42481 0.65784 0.0
H453 H 0.56763 0.37997 0.62419 0.0
H454 H 0.52272 0.37506 0.84976 0.0
H455 H 0.519 0.41952 0.8797 0.0
C456 C 0.55934 0.3086 0.61751 0.0
C457 C 0.53512 0.29676 0.62239 0.0
C458 C 0.56353 0.33298 0.65967 0.0
C459 C 0.54349 0.34612 0.70689 0.0
C460 C 0.52038 0.33317 0.71949 0.0
C461 C 0.51634 0.30873 0.67811 0.0
C462 C 0.55602 0.41409 0.70048 0.0
C463 C 0.54148 0.4257 0.77051 0.0
C464 C 0.55763 0.38832 0.68179 0.0
C465 C 0.54515 0.37359 0.73374 0.0
C466 C 0.53203 0.38552 0.80682 0.0
C467 C 0.52999 0.41113 0.82432 0.0
H468 H 0.24225 0.41724 0.26396 0.0
H469 H 0.27083 0.48135 0.43981 0.0
H470 H 0.20789 0.41178 0.36408 0.0
H471 H 0.23662 0.47621 0.53861 0.0
H472 H 0.16173 0.48265 0.66134 0.0
H473 H 0.20203 0.46065 0.62155 0.0
H474 H 0.17529 0.44363 0.3584 0.0
H475 H 0.13587 0.46584 0.39725 0.0
C476 C 0.24214 0.42926 0.32616 0.0
C477 C 0.25825 0.45041 0.3426 0.0
C478 C 0.22243 0.42619 0.38344 0.0
C479 C 0.2187 0.44441 0.45664 0.0
C480 C 0.23855 0.46214 0.48174 0.0
C481 C 0.25831 0.46513 0.42473 0.0
C482 C 0.16443 0.47394 0.59515 0.0
C483 C 0.14592 0.47658 0.53197 0.0
C484 C 0.1873 0.46103 0.57278 0.0
C485 C 0.19194 0.45042 0.48695 0.0
C486 C 0.17227 0.45115 0.4255 0.0
C487 C 0.14962 0.46417 0.44765 0.0
H488 H 0.98281 0.77911 0.17628 0.0
H489 H 0.05599 0.78997 0.31342 0.0
H490 H 0.99741 0.80724 0.08383 0.0
H491 H 0.07057 0.81826 0.22211 0.0
H492 H 0.08934 0.87116 0.04401 0.0
H493 H 0.08033 0.8309 0.08177 0.0
H494 H 1.00118 0.85229 0.1422 0.0
H495 H 1.01018 0.89234 0.10733 0.0
C496 C 1.00252 0.78651 0.18363 0.0
C497 C 1.01823 0.78265 0.25216 0.0
C498 C 1.01077 0.80284 0.13154 0.0
C499 C 0.03485 0.81542 0.1473 0.0
C500 C 0.05191 0.8089 0.2084 0.0
C501 C 0.04362 0.79266 0.26062 0.0
C502 C 0.07003 0.86724 0.06548 0.0
C503 C 0.0505 0.88505 0.07266 0.0
C504 C 0.06483 0.84411 0.08617 0.0
C505 C 0.03994 0.83828 0.11354 0.0
C506 C 1.02035 0.8559 0.11888 0.0
C507 C 0.02558 0.87898 0.09917 0.0
H508 H 0.75186 0.09562 0.46294 0.0
H509 H 0.76112 0.04507 0.2236 0.0
H510 H 0.72333 0.12068 0.39228 0.0
H511 H 0.73231 0.0695 0.15349 0.0
H512 H 0.66726 0.10032 0.04652 0.0
H513 H 0.71138 0.10366 0.10606 0.0
H514 H 0.67993 0.1049 0.35823 0.0
H515 H 0.63655 0.10112 0.29954 0.0
C516 C 0.74871 0.09051 0.39441 0.0
C517 C 0.758 0.06809 0.34908 0.0
C518 C 0.73232 0.10478 0.35397 0.0
C519 C 0.72471 0.09658 0.26809 0.0
C520 C 0.73754 0.07636 0.21985 0.0
C521 C 0.75411 0.06222 0.26014 0.0
C522 C 0.6698 0.10195 0.11503 0.0
C523 C 0.64833 0.0996 0.16771 0.0
C524 C 0.69509 0.10403 0.14914 0.0
C525 C 0.69929 0.10397 0.23656 0.0
C526 C 0.6776 0.1051 0.29063 0.0
C527 C 0.65245 0.10286 0.25661 0.0
H528 H 0.4793 0.70067 0.09421 0.0
H529 H 0.55433 0.70249 0.97601 0.0
H530 H 0.47219 0.6583 0.01923 0.0
H531 H 0.54748 0.66011 0.90122 0.0
H532 H 0.49715 0.57709 0.01776 0.0
H533 H 0.49418 0.62185 0.0528 0.0
H534 H 0.52378 0.62722 0.80324 0.0
H535 H 0.52695 0.58262 0.76835 0.0
C536 C 0.49361 0.69245 0.04827 0.0
C537 C 0.51732 0.70488 0.04062 0.0
C538 C 0.48981 0.668 0.00677 0.0
C539 C 0.50958 0.65557 0.95624 0.0
C540 C 0.53185 0.66908 0.93982 0.0
C541 C 0.53568 0.69354 0.98174 0.0
C542 C 0.50275 0.58776 0.97001 0.0
C543 C 0.51243 0.57614 0.89052 0.0
C544 C 0.50084 0.61346 0.98975 0.0
C545 C 0.50867 0.62818 0.93065 0.0
C546 C 0.51772 0.6165 0.85038 0.0
C547 C 0.51947 0.59084 0.83046 0.0
H548 H 0.81077 0.58587 0.43104 0.0
H549 H 0.78285 0.52562 0.23707 0.0
H550 H 0.84563 0.59406 0.33638 0.0
H551 H 0.81758 0.53325 0.14404 0.0
H552 H 0.89162 0.52719 0.02501 0.0
H553 H 0.85158 0.54918 0.06832 0.0
H554 H 0.87986 0.56491 0.33012 0.0
H555 H 0.91952 0.54341 0.28657 0.0
C556 C 0.81122 0.57527 0.36646 0.0
C557 C 0.79501 0.55436 0.34278 0.0
C558 C 0.83128 0.57985 0.31236 0.0
C559 C 0.83534 0.56334 0.23501 0.0
C560 C 0.81553 0.54603 0.20405 0.0
C561 C 0.7954 0.54159 0.25778 0.0
C562 C 0.88934 0.53583 0.0915 0.0
C563 C 0.90824 0.53296 0.15307 0.0
C564 C 0.86656 0.54861 0.11611 0.0
C565 C 0.8622 0.55849 0.20286 0.0
C566 C 0.88246 0.55782 0.26253 0.0
C567 C 0.90523 0.54519 0.23784 0.0
H568 H 1.02202 0.20799 0.02116 0.0
H569 H 0.09848 0.1982 0.12128 0.0
H570 H 1.02254 0.16625 0.93742 0.0
H571 H 0.09915 0.15623 0.03767 0.0
H572 H 0.03254 0.09141 0.77804 0.0
H573 H 0.04277 0.13496 0.82474 0.0
H574 H 0.07188 0.12038 0.0654 0.0
H575 H 0.06184 0.07662 0.01862 0.0
C576 C 0.03944 0.19723 0.02176 0.0
C577 C 0.0603 0.20621 0.07662 0.0
C578 C 0.03973 0.17331 0.97432 0.0
C579 C 0.06075 0.15788 0.98208 0.0
C580 C 0.0826 0.16766 0.03131 0.0
C581 C 0.0824 0.19173 0.07806 0.0
C582 C 0.04139 0.09736 0.84061 0.0
C583 C 0.0461 0.08051 0.89506 0.0
C584 C 0.04726 0.12236 0.86718 0.0
C585 C 0.05813 0.13107 0.94856 0.0
C586 C 0.06384 0.11414 1.00174 0.0
C587 C 0.05783 0.0891 0.97534 0.0
H588 H 0.32778 0.03566 0.16281 0.0
H589 H 0.32443 0.95887 0.04465 0.0
H590 H 0.3691 0.04041 0.09065 0.0
H591 H 0.36581 0.96314 0.97596 0.0
H592 H 0.43456 0.97752 0.81968 0.0
H593 H 0.39037 0.97756 0.87329 0.0
H594 H 0.41374 0.0306 0.09747 0.0
H595 H 0.45782 0.03127 0.04168 0.0
C596 C 0.33556 0.01992 0.12011 0.0
C597 C 0.3227 0.99688 0.10982 0.0
C598 C 0.35955 0.0225 0.07969 0.0
C599 C 0.37131 1.00212 0.02765 0.0
C600 C 0.35761 0.97942 0.01433 0.0
C601 C 0.33376 0.9769 0.05436 0.0
C602 C 0.43033 0.98935 0.88016 0.0
C603 C 0.45004 0.0043 0.92624 0.0
C604 C 0.40483 0.98927 0.91148 0.0
C605 C 0.39812 0.00392 0.99061 0.0
C606 C 0.41777 0.01926 0.03589 0.0
C607 C 0.44327 0.01951 0.00409 0.0
H608 H 0.54059 0.2867 0.28789 0.0
H609 H 0.46037 0.28945 0.36574 0.0
H610 H 0.53287 0.31863 0.20384 0.0
H611 H 0.4526 0.322 0.28381 0.0
H612 H 0.44614 0.37672 0.09898 0.0
H613 H 0.45077 0.33785 0.1499 0.0
H614 H 0.52673 0.36199 0.25362 0.0
H615 H 0.52211 0.4005 0.20324 0.0
C616 C 0.52105 0.29355 0.28424 0.0
C617 C 0.50101 0.28552 0.33249 0.0
C618 C 0.51669 0.31212 0.23738 0.0
C619 C 0.49227 0.32336 0.23878 0.0
C620 C 0.47162 0.31377 0.28108 0.0
C621 C 0.47598 0.295 0.32757 0.0
C622 C 0.46375 0.37373 0.13308 0.0
C623 C 0.48382 0.39172 0.14652 0.0
C624 C 0.46645 0.35141 0.16193 0.0
C625 C 0.48929 0.34656 0.20471 0.0
C626 C 0.50918 0.3647 0.21873 0.0
C627 C 0.50648 0.3869 0.19009 0.0
H628 H 0.22465 0.44653 0.04341 0.0
H629 H 0.23134 0.52493 0.13252 0.0
H630 H 0.18273 0.45166 0.97702 0.0
H631 H 0.189 0.53022 0.0662 0.0
H632 H 0.11677 0.53039 0.88639 0.0
H633 H 0.16161 0.52689 0.93547 0.0
H634 H 0.13958 0.46145 0.03089 0.0
H635 H 0.09507 0.4648 0.98165 0.0
C636 C 0.21739 0.46498 0.04725 0.0
C637 C 0.23146 0.4853 0.09348 0.0
C638 C 0.19312 0.46792 0.00998 0.0
C639 C 0.18198 0.49131 0.01755 0.0
C640 C 0.19684 0.5119 0.05882 0.0
C641 C 0.22126 0.50892 0.09645 0.0
C642 C 0.12146 0.51524 0.91793 0.0
C643 C 0.10206 0.49789 0.92991 0.0
C644 C 0.14725 0.5133 0.94638 0.0
C645 C 0.15449 0.49379 0.98686 0.0
C646 C 0.13503 0.4765 0.99876 0.0
C647 C 0.1093 0.47854 0.97094 0.0
H648 H 0.02907 0.80932 0.57533 0.0
H649 H 0.94683 0.81442 0.52849 0.0
H650 H 0.02965 0.85043 0.66129 0.0
H651 H 0.94692 0.85572 0.6176 0.0
H652 H 0.97149 0.93885 0.63973 0.0
H653 H 0.96289 0.89476 0.59337 0.0
H654 H 1.01846 0.87942 0.78113 0.0
H655 H 0.02822 0.92301 0.82252 0.0
C656 C 1.01086 0.81894 0.58705 0.0
C657 C 0.98793 0.80883 0.54577 0.0
C658 C 1.0111 0.84257 0.63633 0.0
C659 C 0.98836 0.85665 0.64562 0.0
C660 C 0.96486 0.84558 0.61045 0.0
C661 C 0.96467 0.82181 0.56075 0.0
C662 C 0.98168 0.926 0.67128 0.0
C663 C 1.00084 0.93438 0.73373 0.0
C664 C 0.97657 0.90072 0.6455 0.0
C665 C 0.99019 0.88342 0.68287 0.0
C666 C 1.00804 0.89208 0.74939 0.0
C667 C 1.01356 0.91717 0.77352 0.0
H668 H 0.72054 0.97768 0.46817 0.0
H669 H 0.72985 0.04882 0.63191 0.0
H670 H 0.68008 0.97063 0.5419 0.0
H671 H 0.68954 0.042 0.70512 0.0
H672 H 0.62275 0.01665 0.85771 0.0
H673 H 0.66631 0.01858 0.79818 0.0
H674 H 0.636 0.98734 0.54687 0.0
H675 H 0.59258 0.98536 0.60612 0.0
C676 C 0.71433 0.99152 0.5214 0.0
C677 C 0.72852 0.01377 0.54428 0.0
C678 C 0.69092 0.98766 0.56299 0.0
C679 C 0.68124 0.00584 0.62922 0.0
C680 C 0.69631 0.02748 0.65507 0.0
C681 C 0.71947 0.03142 0.61297 0.0
C682 C 0.62533 0.01008 0.78984 0.0
C683 C 0.60389 1.001 0.737 0.0
C684 C 0.6504 0.01125 0.75552 0.0
C685 C 0.65487 1.00311 0.66743 0.0
C686 C 0.63353 0.99349 0.61507 0.0
C687 C 0.60846 0.99255 0.64918 0.0
H688 H 0.59234 0.71787 0.3136 0.0
H689 H 0.51061 0.71022 0.36387 0.0
H690 H 0.60214 0.68674 0.40007 0.0
H691 H 0.52009 0.67905 0.44905 0.0
H692 H 0.5443 0.62797 0.62275 0.0
H693 H 0.53997 0.66685 0.5729 0.0
H694 H 0.59452 0.64219 0.37064 0.0
H695 H 0.59883 0.60334 0.42038 0.0
C696 C 0.57662 0.71024 0.34609 0.0
C697 C 0.55076 0.71653 0.33281 0.0
C698 C 0.58213 0.69213 0.3944 0.0
C699 C 0.56187 0.68009 0.43051 0.0
C700 C 0.53622 0.68799 0.42289 0.0
C701 C 0.53074 0.70593 0.37431 0.0
C702 C 0.55537 0.63083 0.56757 0.0
C703 C 0.57169 0.61236 0.52496 0.0
C704 C 0.55297 0.65319 0.53925 0.0
C705 C 0.56685 0.6577 0.46764 0.0
C706 C 0.58385 0.63957 0.42687 0.0
C707 C 0.58625 0.6172 0.45518 0.0
H708 H 0.82968 0.47828 0.48562 0.0
H709 H 0.81769 0.54494 0.66889 0.0
H710 H 0.87214 0.4735 0.55162 0.0
H711 H 0.85992 0.54014 0.73593 0.0
H712 H 0.93138 0.51353 0.87105 0.0
H713 H 0.88675 0.51422 0.81691 0.0
H714 H 0.91472 0.49668 0.55771 0.0
H715 H 0.95934 0.49623 0.6116 0.0
C716 C 0.83571 0.4914 0.54207 0.0
C717 C 0.82003 0.51166 0.5733 0.0
C718 C 0.86023 0.48891 0.57913 0.0
C719 C 0.86967 0.50653 0.64895 0.0
C720 C 0.85331 0.5261 0.68288 0.0
C721 C 0.82899 0.52878 0.6449 0.0
C722 C 0.92807 0.5098 0.80244 0.0
C723 C 0.94916 0.50491 0.74582 0.0
C724 C 0.9024 0.51025 0.77137 0.0
C725 C 0.89696 0.50539 0.68277 0.0
C726 C 0.91803 0.50021 0.62629 0.0
C727 C 0.94372 0.50014 0.65728 0.0
loop_
_geom_bond_atom_site_label_1
_geom_bond_atom_site_label_2
_geom_bond_distance
_geom_bond_site_symmetry_2
_ccdc_geom_bond_type
H0 C3 0.929 . S
H1 C6 0.929 . S
H2 C8 0.930 . S
C3 H0 0.929 . S
C3 C4 1.398 . S
C3 C5 1.396 . S
C4 C3 1.398 . S
C4 C8 1.407 . S
C5 C3 1.396 . S
C5 C6 1.394 . S
C6 H1 0.929 . S
C6 C5 1.394 . S
C6 C7 1.382 . S
C7 C6 1.382 . S
C7 C8 1.392 . S
C7 N9 1.420 . S
C8 H2 0.930 . S
C8 C4 1.407 . S
C8 C7 1.392 . S
N9 C7 1.420 . S
N9 C10 1.244 . S
C10 N9 1.244 . S
H11 C14 0.929 . S
H12 C17 0.929 . S
H13 C19 0.930 . S
C14 H11 0.929 . S
C14 C15 1.401 . S
C14 C16 1.401 . S
C15 C14 1.401 . S
C15 C19 1.402 1_655 S
C16 C14 1.401 . S
C16 C17 1.387 1_655 S
C17 H12 0.929 . S
C17 C16 1.387 1_455 S
C17 C18 1.382 . S
C18 C17 1.382 . S
C18 C19 1.392 . S
C18 N20 1.420 . S
C19 H13 0.930 . S
C19 C15 1.402 1_455 S
C19 C18 1.392 . S
N20 C18 1.420 . S
N20 C21 1.244 1_455 S
C21 N20 1.244 1_655 S
H22 C25 0.929 . S
H23 C28 0.929 . S
H24 C30 0.930 . S
C25 H22 0.929 . S
C25 C26 1.401 1_565 S
C25 C27 1.392 1_565 S
C26 C25 1.401 1_545 S
C26 C30 1.414 . S
C27 C25 1.392 1_545 S
C27 C28 1.397 . S
C28 H23 0.929 . S
C28 C27 1.397 . S
C28 C29 1.382 . S
C29 C28 1.382 . S
C29 C30 1.392 . S
C29 N31 1.420 . S
C30 H24 0.930 . S
C30 C26 1.414 . S
C30 C29 1.392 . S
N31 C29 1.420 . S
N31 C32 1.236 1_545 S
C32 N31 1.236 1_565 S
H33 C36 0.929 . S
H34 C39 0.929 . S
H35 C41 0.930 . S
C36 H33 0.929 . S
C36 C37 1.398 . S
C36 C38 1.396 1_554 S
C37 C36 1.398 . S
C37 C41 1.407 . S
C38 C36 1.396 1_556 S
C38 C39 1.394 . S
C39 H34 0.929 . S
C39 C38 1.394 . S
C39 C40 1.382 1_556 S
C40 C39 1.382 1_554 S
C40 C41 1.392 . S
C40 N42 1.420 . S
C41 H35 0.930 . S
C41 C37 1.407 . S
C41 C40 1.392 . S
N42 C40 1.420 . S
N42 C43 1.244 1_554 S
C43 N42 1.244 1_556 S
H44 C47 0.929 . S
H45 C50 0.929 . S
H46 C52 0.930 . S
C47 H44 0.929 . S
C47 C48 1.398 . S
C47 C49 1.396 . S
C48 C47 1.398 . S
C48 C52 1.407 . S
C49 C47 1.396 . S
C49 C50 1.394 . S
C50 H45 0.929 . S
C50 C49 1.394 . S
C50 C51 1.382 . S
C51 C50 1.382 . S
C51 C52 1.392 . S
C51 N53 1.420 . S
C52 H46 0.930 . S
C52 C48 1.407 . S
C52 C51 1.392 . S
N53 C51 1.420 . S
N53 C54 1.244 . S
C54 N53 1.244 . S
H55 C58 0.929 1_655 S
H56 C61 0.929 . S
H57 C63 0.930 . S
C58 H55 0.929 1_455 S
C58 C59 1.398 . S
C58 C60 1.396 . S
C59 C58 1.398 . S
C59 C63 1.407 . S
C60 C58 1.396 . S
C60 C61 1.394 . S
C61 H56 0.929 . S
C61 C60 1.394 . S
C61 C62 1.382 . S
C62 C61 1.382 . S
C62 C63 1.392 . S
C62 N64 1.420 . S
C63 H57 0.930 . S
C63 C59 1.407 . S
C63 C62 1.392 . S
N64 C62 1.420 . S
N64 C65 1.244 . S
C65 N64 1.244 . S
H66 C69 0.929 . S
H67 C72 0.929 . S
H68 C74 0.930 . S
C69 H66 0.929 . S
C69 C70 1.387 1_565 S
C69 C71 1.398 1_565 S
C70 C69 1.387 1_545 S
C70 C74 1.415 . S
C71 C69 1.398 1_545 S
C71 C72 1.398 . S
C72 H67 0.929 . S
C72 C71 1.398 . S
C72 C73 1.382 . S
C73 C72 1.382 . S
C73 C74 1.392 . S
C73 N75 1.420 . S
C74 H68 0.930 . S
C74 C70 1.415 . S
C74 C73 1.392 . S
N75 C73 1.420 . S
N75 C76 1.234 1_545 S
C76 N75 1.234 1_565 S
H77 C80 0.929 . S
H78 C83 0.929 . S
H79 C85 0.930 . S
C80 H77 0.929 . S
C80 C81 1.398 . S
C80 C82 1.396 . S
C81 C80 1.398 . S
C81 C85 1.407 . S
C82 C80 1.396 . S
C82 C83 1.394 . S
C83 H78 0.929 . S
C83 C82 1.394 . S
C83 C84 1.382 . S
C84 C83 1.382 . S
C84 C85 1.392 . S
C84 N86 1.420 . S
C85 H79 0.930 . S
C85 C81 1.407 . S
C85 C84 1.392 . S
N86 C84 1.420 . S
N86 C87 1.244 . S
C87 N86 1.244 . S
Tb88 C97 2.764 . S
Tb88 O98 2.325 . S
Tb88 O101 2.303 1_655 S
Tb88 O105 2.322 1_545 S
Tb88 O106 2.349 . S
Tb88 O109 2.415 . S
Tb88 O110 2.399 . S
Tb89 O99 2.322 1_565 S
Tb89 O100 2.349 . S
Tb89 O102 2.415 . S
Tb89 O103 2.399 . S
Tb89 O104 2.325 . S
Tb89 O107 2.303 1_455 S
Tb89 C118 2.764 . S
C90 O106 1.268 . S
C90 O107 1.255 1_545 S
C91 C94 1.358 . S
C91 C95 1.332 . S
C91 C97 1.504 . S
C92 C93 1.373 . S
C92 C96 1.308 . S
C93 C92 1.373 . S
C93 C94 1.429 . S
C93 H120 0.932 . S
C94 C91 1.358 . S
C94 C93 1.429 . S
C94 H121 0.930 . S
C95 C91 1.332 . S
C95 C96 1.394 . S
C95 H122 0.932 1_655 S
C96 C92 1.308 . S
C96 C95 1.394 . S
C96 H123 0.929 1_655 S
C97 Tb88 2.764 . S
C97 C91 1.504 . S
C97 O109 1.239 . S
C97 O110 1.263 . S
O98 Tb88 2.325 . S
O98 C108 1.236 1_655 S
O99 Tb89 2.322 1_545 S
O99 C108 1.257 . S
O100 Tb89 2.349 . S
O100 C111 1.262 . S
O101 Tb88 2.303 1_455 S
O101 C111 1.257 1_545 S
O102 Tb89 2.415 . S
O102 C118 1.239 . S
O103 Tb89 2.399 . S
O103 C118 1.263 . S
O104 Tb89 2.325 . S
O104 C119 1.236 1_455 S
O105 Tb88 2.322 1_565 S
O105 C119 1.257 . S
O106 Tb88 2.349 . S
O106 C90 1.268 . S
O107 Tb89 2.303 1_655 S
O107 C90 1.255 1_565 S
C108 O98 1.236 1_455 S
C108 O99 1.257 . S
O109 Tb88 2.415 . S
O109 C97 1.239 . S
O110 Tb88 2.399 . S
O110 C97 1.263 . S
C111 O100 1.262 . S
C111 O101 1.257 1_565 S
C112 C115 1.358 . S
C112 C116 1.332 . S
C112 C118 1.504 1_554 S
C113 C114 1.373 . S
C113 C117 1.308 . S
C114 C113 1.373 . S
C114 C115 1.429 . S
C114 H124 0.932 . S
C115 C112 1.358 . S
C115 C114 1.429 . S
C115 H125 0.930 . S
C116 C112 1.332 . S
C116 C117 1.394 . S
C116 H126 0.932 1_455 S
C117 C113 1.308 . S
C117 C116 1.394 . S
C117 H127 0.929 1_455 S
C118 Tb89 2.764 . S
C118 O102 1.239 . S
C118 O103 1.263 . S
C118 C112 1.504 1_556 S
C119 O104 1.236 1_655 S
C119 O105 1.257 . S
H120 C93 0.932 . S
H121 C94 0.930 . S
H122 C95 0.932 1_455 S
H123 C96 0.929 1_455 S
H124 C114 0.932 . S
H125 C115 0.930 . S
H126 C116 0.932 1_655 S
H127 C117 0.929 1_655 S
Tb128 C137 2.764 . S
Tb128 O138 2.325 . S
Tb128 O141 2.303 1_565 S
Tb128 O145 2.322 . S
Tb128 O146 2.349 . S
Tb128 O149 2.415 1_565 S
Tb128 O150 2.399 . S
Tb129 O139 2.322 . S
Tb129 O140 2.349 . S
Tb129 O142 2.415 1_545 S
Tb129 O143 2.399 1_556 S
Tb129 O144 2.325 . S
Tb129 O147 2.303 1_545 S
Tb129 C158 2.764 1_556 S
C130 O146 1.261 . S
C130 O147 1.257 . S
C131 C134 1.358 . S
C131 C135 1.332 1_565 S
C131 C137 1.504 . S
C132 C133 1.373 . S
C132 C136 1.308 1_565 S
C133 C132 1.373 . S
C133 C134 1.429 . S
C133 H160 0.932 . S
C134 C131 1.358 . S
C134 C133 1.429 . S
C134 H161 0.930 . S
C135 C131 1.332 1_545 S
C135 C136 1.394 . S
C135 H162 0.932 . S
C136 C132 1.308 1_545 S
C136 C135 1.394 . S
C136 H163 0.929 . S
C137 Tb128 2.764 . S
C137 C131 1.504 . S
C137 O149 1.239 1_565 S
C137 O150 1.263 . S
O138 Tb128 2.325 . S
O138 C148 1.236 1_565 S
O139 Tb129 2.322 . S
O139 C148 1.257 . S
O140 Tb129 2.349 . S
O140 C151 1.261 . S
O141 Tb128 2.303 1_545 S
O141 C151 1.257 . S
O142 Tb129 2.415 1_565 S
O142 C158 1.239 1_566 S
O143 Tb129 2.399 1_554 S
O143 C158 1.263 . S
O144 Tb129 2.325 . S
O144 C159 1.236 1_545 S
O145 Tb128 2.322 . S
O145 C159 1.257 . S
O146 Tb128 2.349 . S
O146 C130 1.261 . S
O147 Tb129 2.303 1_565 S
O147 C130 1.257 . S
C148 O138 1.236 1_545 S
C148 O139 1.257 . S
O149 Tb128 2.415 1_545 S
O149 C137 1.239 1_545 S
O150 Tb128 2.399 . S
O150 C137 1.263 . S
C151 O140 1.261 . S
C151 O141 1.257 . S
C152 C155 1.358 . S
C152 C156 1.332 1_545 S
C152 C158 1.504 . S
C153 C154 1.373 . S
C153 C157 1.308 1_545 S
C154 C153 1.373 . S
C154 C155 1.429 . S
C154 H164 0.932 . S
C155 C152 1.358 . S
C155 C154 1.429 . S
C155 H165 0.930 . S
C156 C152 1.332 1_565 S
C156 C157 1.394 . S
C156 H166 0.932 . S
C157 C153 1.308 1_565 S
C157 C156 1.394 . S
C157 H167 0.929 . S
C158 Tb129 2.764 1_554 S
C158 O142 1.239 1_544 S
C158 O143 1.263 . S
C158 C152 1.504 . S
C159 O144 1.236 1_565 S
C159 O145 1.257 . S
H160 C133 0.932 . S
H161 C134 0.930 . S
H162 C135 0.932 . S
H163 C136 0.929 . S
H164 C154 0.932 . S
H165 C155 0.930 . S
H166 C156 0.932 . S
H167 C157 0.929 . S
Tb168 C177 2.764 1_556 S
Tb168 O178 2.325 . S
Tb168 O181 2.303 . S
Tb168 O185 2.322 . S
Tb168 O186 2.349 . S
Tb168 O189 2.415 1_556 S
Tb168 O190 2.399 . S
Tb169 O179 2.322 . S
Tb169 O180 2.349 . S
Tb169 O182 2.415 . S
Tb169 O183 2.399 . S
Tb169 O184 2.325 . S
Tb169 O187 2.303 . S
Tb169 C198 2.764 . S
C170 O186 1.261 . S
C170 O187 1.257 . S
C171 C174 1.358 . S
C171 C175 1.332 . S
C171 C177 1.504 . S
C172 C173 1.373 . S
C172 C176 1.308 . S
C173 C172 1.373 . S
C173 C174 1.429 . S
C173 H200 0.932 . S
C174 C171 1.358 . S
C174 C173 1.429 . S
C174 H201 0.930 . S
C175 C171 1.332 . S
C175 C176 1.394 . S
C175 H202 0.932 . S
C176 C172 1.308 . S
C176 C175 1.394 . S
C176 H203 0.929 . S
C177 Tb168 2.764 1_554 S
C177 C171 1.504 . S
C177 O189 1.239 . S
C177 O190 1.263 1_554 S
O178 Tb168 2.325 . S
O178 C188 1.236 . S
O179 Tb169 2.322 . S
O179 C188 1.257 . S
O180 Tb169 2.349 . S
O180 C191 1.261 . S
O181 Tb168 2.303 . S
O181 C191 1.257 . S
O182 Tb169 2.415 . S
O182 C198 1.239 . S
O183 Tb169 2.399 . S
O183 C198 1.263 . S
O184 Tb169 2.325 . S
O184 C199 1.236 . S
O185 Tb168 2.322 . S
O185 C199 1.257 . S
O186 Tb168 2.349 . S
O186 C170 1.261 . S
O187 Tb169 2.303 . S
O187 C170 1.257 . S
C188 O178 1.236 . S
C188 O179 1.257 . S
O189 Tb168 2.415 1_554 S
O189 C177 1.239 . S
O190 Tb168 2.399 . S
O190 C177 1.263 1_556 S
C191 O180 1.261 . S
C191 O181 1.257 . S
C192 C195 1.358 . S
C192 C196 1.332 . S
C192 C198 1.504 . S
C193 C194 1.373 . S
C193 C197 1.308 . S
C194 C193 1.373 . S
C194 C195 1.429 . S
C194 H204 0.932 . S
C195 C192 1.358 . S
C195 C194 1.429 . S
C195 H205 0.930 . S
C196 C192 1.332 . S
C196 C197 1.394 . S
C196 H206 0.932 . S
C197 C193 1.308 . S
C197 C196 1.394 . S
C197 H207 0.929 . S
C198 Tb169 2.764 . S
C198 O182 1.239 . S
C198 O183 1.263 . S
C198 C192 1.504 . S
C199 O184 1.236 . S
C199 O185 1.257 . S
H200 C173 0.932 . S
H201 C174 0.930 . S
H202 C175 0.932 . S
H203 C176 0.929 . S
H204 C194 0.932 . S
H205 C195 0.930 . S
H206 C196 0.932 . S
H207 C197 0.929 . S
Tb208 C217 2.764 . S
Tb208 O218 2.325 . S
Tb208 O221 2.303 . S
Tb208 O225 2.322 1_455 S
Tb208 O226 2.349 . S
Tb208 O229 2.415 . S
Tb208 O230 2.399 . S
Tb209 O219 2.322 1_655 S
Tb209 O220 2.349 . S
Tb209 O222 2.415 1_556 S
Tb209 O223 2.399 . S
Tb209 O224 2.325 . S
Tb209 O227 2.303 . S
Tb209 C238 2.764 . S
C210 O226 1.261 . S
C210 O227 1.257 1_455 S
C211 C214 1.358 . S
C211 C215 1.332 . S
C211 C217 1.504 . S
C212 C213 1.373 . S
C212 C216 1.308 . S
C213 C212 1.373 . S
C213 C214 1.429 . S
C213 H240 0.932 . S
C214 C211 1.358 . S
C214 C213 1.429 . S
C214 H241 0.930 . S
C215 C211 1.332 . S
C215 C216 1.394 . S
C215 H242 0.932 . S
C216 C212 1.308 . S
C216 C215 1.394 . S
C216 H243 0.929 . S
C217 Tb208 2.764 . S
C217 C211 1.504 . S
C217 O229 1.239 . S
C217 O230 1.263 . S
O218 Tb208 2.325 . S
O218 C228 1.236 . S
O219 Tb209 2.322 1_455 S
O219 C228 1.257 . S
O220 Tb209 2.349 . S
O220 C231 1.261 . S
O221 Tb208 2.303 . S
O221 C231 1.257 1_455 S
O222 Tb209 2.415 1_554 S
O222 C238 1.239 1_554 S
O223 Tb209 2.399 . S
O223 C238 1.263 . S
O224 Tb209 2.325 . S
O224 C239 1.236 . S
O225 Tb208 2.322 1_655 S
O225 C239 1.257 . S
O226 Tb208 2.349 . S
O226 C210 1.261 . S
O227 Tb209 2.303 . S
O227 C210 1.257 1_655 S
C228 O218 1.236 . S
C228 O219 1.257 . S
O229 Tb208 2.415 . S
O229 C217 1.239 . S
O230 Tb208 2.399 . S
O230 C217 1.263 . S
C231 O220 1.261 . S
C231 O221 1.257 1_655 S
C232 C235 1.358 . S
C232 C236 1.332 . S
C232 C238 1.504 1_554 S
C233 C234 1.373 . S
C233 C237 1.308 . S
C234 C233 1.373 . S
C234 C235 1.429 . S
C234 H244 0.932 . S
C235 C232 1.358 . S
C235 C234 1.429 . S
C235 H245 0.930 . S
C236 C232 1.332 . S
C236 C237 1.394 . S
C236 H246 0.932 . S
C237 C233 1.308 . S
C237 C236 1.394 . S
C237 H247 0.929 . S
C238 Tb209 2.764 . S
C238 O222 1.239 1_556 S
C238 O223 1.263 . S
C238 C232 1.504 1_556 S
C239 O224 1.236 . S
C239 O225 1.257 . S
H240 C213 0.932 . S
H241 C214 0.930 . S
H242 C215 0.932 . S
H243 C216 0.929 . S
H244 C234 0.932 . S
H245 C235 0.930 . S
H246 C236 0.932 . S
H247 C237 0.929 . S
H248 C256 0.950 . S
H249 C261 0.950 . S
H250 C258 0.950 . S
H251 C260 0.950 . S
H252 C262 0.950 . S
H253 C264 0.943 . S
H254 C266 0.954 . S
H255 C267 0.950 . S
C256 H248 0.950 . S
C256 C257 1.386 . S
C256 C258 1.391 . S
C257 C256 1.386 . S
C257 C261 1.393 . S
C258 H250 0.950 . S
C258 C256 1.391 . S
C258 C259 1.400 . S
C259 C258 1.400 . S
C259 C260 1.398 . S
C259 C265 1.491 . S
C260 H251 0.950 . S
C260 C259 1.398 . S
C260 C261 1.391 . S
C261 H249 0.950 . S
C261 C257 1.393 . S
C261 C260 1.391 . S
C262 H252 0.950 . S
C262 C263 1.386 . S
C262 C264 1.391 . S
C263 C262 1.386 . S
C263 C267 1.393 . S
C264 H253 0.943 . S
C264 C262 1.391 . S
C264 C265 1.400 . S
C265 C259 1.491 . S
C265 C264 1.400 . S
C265 C266 1.398 . S
C266 H254 0.954 . S
C266 C265 1.398 . S
C266 C267 1.391 . S
C267 H255 0.950 . S
C267 C263 1.393 . S
C267 C266 1.391 . S
H268 C276 0.950 . S
H269 C281 0.950 . S
H270 C278 0.950 . S
H271 C280 0.950 . S
H272 C282 0.950 . S
H273 C284 0.950 . S
H274 C286 0.950 . S
H275 C287 0.950 . S
C276 H268 0.950 . S
C276 C277 1.386 . S
C276 C278 1.391 . S
C277 C276 1.386 . S
C277 C281 1.393 . S
C278 H270 0.950 . S
C278 C276 1.391 . S
C278 C279 1.400 . S
C279 C278 1.400 . S
C279 C280 1.398 . S
C279 C285 1.491 . S
C280 H271 0.950 . S
C280 C279 1.398 . S
C280 C281 1.391 . S
C281 H269 0.950 . S
C281 C277 1.393 . S
C281 C280 1.391 . S
C282 H272 0.950 . S
C282 C283 1.386 . S
C282 C284 1.391 . S
C283 C282 1.386 . S
C283 C287 1.393 . S
C284 H273 0.950 . S
C284 C282 1.391 . S
C284 C285 1.400 . S
C285 C279 1.491 . S
C285 C284 1.400 . S
C285 C286 1.398 . S
C286 H274 0.950 . S
C286 C285 1.398 . S
C286 C287 1.391 . S
C287 H275 0.950 . S
C287 C283 1.393 . S
C287 C286 1.391 . S
H288 C296 0.950 . S
H289 C301 0.950 . S
H290 C298 0.950 . S
H291 C300 0.950 . S
H292 C302 0.950 . S
H293 C304 0.950 . S
H294 C306 0.950 . S
H295 C307 0.950 . S
C296 H288 0.950 . S
C296 C297 1.386 . S
C296 C298 1.391 . S
C297 C296 1.386 . S
C297 C301 1.393 . S
C298 H290 0.950 . S
C298 C296 1.391 . S
C298 C299 1.400 . S
C299 C298 1.400 . S
C299 C300 1.398 . S
C299 C305 1.491 . S
C300 H291 0.950 . S
C300 C299 1.398 . S
C300 C301 1.391 . S
C301 H289 0.950 . S
C301 C297 1.393 . S
C301 C300 1.391 . S
C302 H292 0.950 . S
C302 C303 1.386 . S
C302 C304 1.391 . S
C303 C302 1.386 . S
C303 C307 1.393 . S
C304 H293 0.950 . S
C304 C302 1.391 . S
C304 C305 1.400 . S
C305 C299 1.491 . S
C305 C304 1.400 . S
C305 C306 1.398 . S
C306 H294 0.950 . S
C306 C305 1.398 . S
C306 C307 1.391 . S
C307 H295 0.950 . S
C307 C303 1.393 . S
C307 C306 1.391 . S
H308 C316 0.950 . S
H309 C321 0.950 . S
H310 C318 0.950 . S
H311 C320 0.950 . S
H312 C322 0.950 . S
H313 C324 0.950 . S
H314 C326 0.950 . S
H315 C327 0.950 . S
C316 H308 0.950 . S
C316 C317 1.386 . S
C316 C318 1.391 . S
C317 C316 1.386 . S
C317 C321 1.393 1_455 S
C318 H310 0.950 . S
C318 C316 1.391 . S
C318 C319 1.400 . S
C319 C318 1.400 . S
C319 C320 1.398 1_455 S
C319 C325 1.491 . S
C320 H311 0.950 . S
C320 C319 1.398 1_655 S
C320 C321 1.391 . S
C321 H309 0.950 . S
C321 C317 1.393 1_655 S
C321 C320 1.391 . S
C322 H312 0.950 . S
C322 C323 1.386 1_655 S
C322 C324 1.391 . S
C323 C322 1.386 1_455 S
C323 C327 1.393 . S
C324 H313 0.950 . S
C324 C322 1.391 . S
C324 C325 1.400 1_655 S
C325 C319 1.491 . S
C325 C324 1.400 1_455 S
C325 C326 1.398 . S
C326 H314 0.950 . S
C326 C325 1.398 . S
C326 C327 1.391 . S
C327 H315 0.950 . S
C327 C323 1.393 . S
C327 C326 1.391 . S
H328 C336 0.950 . S
H329 C341 0.950 . S
H330 C338 0.950 . S
H331 C340 0.950 . S
H332 C342 0.950 1_556 S
H333 C344 0.950 . S
H334 C346 0.950 . S
H335 C347 0.950 . S
C336 H328 0.950 . S
C336 C337 1.376 1_545 S
C336 C338 1.391 . S
C337 C336 1.376 1_565 S
C337 C341 1.401 . S
C338 H330 0.950 . S
C338 C336 1.391 . S
C338 C339 1.400 1_545 S
C339 C338 1.400 1_565 S
C339 C340 1.398 . S
C339 C345 1.491 . S
C340 H331 0.950 . S
C340 C339 1.398 . S
C340 C341 1.391 . S
C341 H329 0.950 . S
C341 C337 1.401 . S
C341 C340 1.391 . S
C342 H332 0.950 1_554 S
C342 C343 1.386 1_554 S
C342 C344 1.391 . S
C343 C342 1.386 1_556 S
C343 C347 1.393 1_566 S
C344 H333 0.950 . S
C344 C342 1.391 . S
C344 C345 1.400 . S
C345 C339 1.491 . S
C345 C344 1.400 . S
C345 C346 1.398 1_565 S
C346 H334 0.950 . S
C346 C345 1.398 1_545 S
C346 C347 1.391 . S
C347 H335 0.950 . S
C347 C343 1.393 1_544 S
C347 C346 1.391 . S
H348 C356 0.950 . S
H349 C361 0.950 1_554 S
H350 C358 0.950 . S
H351 C360 0.950 . S
H352 C362 0.950 . S
H353 C364 0.950 . S
H354 C366 0.950 . S
H355 C367 0.950 . S
C356 H348 0.950 . S
C356 C357 1.386 . S
C356 C358 1.391 . S
C357 C356 1.386 . S
C357 C361 1.393 . S
C358 H350 0.950 . S
C358 C356 1.391 . S
C358 C359 1.400 . S
C359 C358 1.400 . S
C359 C360 1.398 . S
C359 C365 1.491 . S
C360 H351 0.950 . S
C360 C359 1.398 . S
C360 C361 1.391 . S
C361 H349 0.950 1_556 S
C361 C357 1.393 . S
C361 C360 1.391 . S
C362 H352 0.950 . S
C362 C363 1.386 . S
C362 C364 1.391 . S
C363 C362 1.386 . S
C363 C367 1.393 . S
C364 H353 0.950 . S
C364 C362 1.391 . S
C364 C365 1.400 . S
C365 C359 1.491 . S
C365 C364 1.400 . S
C365 C366 1.398 . S
C366 H354 0.950 . S
C366 C365 1.398 . S
C366 C367 1.391 . S
C367 H355 0.950 . S
C367 C363 1.393 . S
C367 C366 1.391 . S
H368 C376 0.950 . S
H369 C381 0.950 . S
H370 C378 0.950 . S
H371 C380 0.950 . S
H372 C382 0.950 1_556 S
H373 C384 0.950 . S
H374 C386 0.950 . S
H375 C387 0.950 . S
C376 H368 0.950 . S
C376 C377 1.386 . S
C376 C378 1.391 . S
C377 C376 1.386 . S
C377 C381 1.393 . S
C378 H370 0.950 . S
C378 C376 1.391 . S
C378 C379 1.400 . S
C379 C378 1.400 . S
C379 C380 1.398 . S
C379 C385 1.491 . S
C380 H371 0.950 . S
C380 C379 1.398 . S
C380 C381 1.391 . S
C381 H369 0.950 . S
C381 C377 1.393 . S
C381 C380 1.391 . S
C382 H372 0.950 1_554 S
C382 C383 1.386 1_554 S
C382 C384 1.391 . S
C383 C382 1.386 1_556 S
C383 C387 1.393 1_556 S
C384 H373 0.950 . S
C384 C382 1.391 . S
C384 C385 1.400 . S
C385 C379 1.491 . S
C385 C384 1.400 . S
C385 C386 1.398 . S
C386 H374 0.950 . S
C386 C385 1.398 . S
C386 C387 1.391 . S
C387 H375 0.950 . S
C387 C383 1.393 1_554 S
C387 C386 1.391 . S
H388 C396 0.950 . S
H389 C401 0.950 . S
H390 C398 0.950 . S
H391 C400 0.950 . S
H392 C402 0.950 . S
H393 C404 0.950 . S
H394 C406 0.950 . S
H395 C407 0.950 . S
C396 H388 0.950 . S
C396 C397 1.378 1_455 S
C396 C398 1.391 . S
C397 C396 1.378 1_655 S
C397 C401 1.400 . S
C398 H390 0.950 . S
C398 C396 1.391 . S
C398 C399 1.391 1_455 S
C399 C398 1.391 1_655 S
C399 C400 1.408 . S
C399 C405 1.491 . S
C400 H391 0.950 . S
C400 C399 1.408 . S
C400 C401 1.391 . S
C401 H389 0.950 . S
C401 C397 1.400 . S
C401 C400 1.391 . S
C402 H392 0.950 . S
C402 C403 1.386 1_554 S
C402 C404 1.391 . S
C403 C402 1.386 1_556 S
C403 C407 1.393 1_655 S
C404 H393 0.950 . S
C404 C402 1.391 . S
C404 C405 1.400 . S
C405 C399 1.491 . S
C405 C404 1.400 . S
C405 C406 1.398 1_655 S
C406 H394 0.950 . S
C406 C405 1.398 1_455 S
C406 C407 1.391 1_554 S
C407 H395 0.950 . S
C407 C403 1.393 1_455 S
C407 C406 1.391 1_556 S
H408 C416 0.950 . S
H409 C421 0.950 . S
H410 C418 0.950 . S
H411 C420 0.950 . S
H412 C422 0.950 . S
H413 C424 0.950 . S
H414 C426 0.950 . S
H415 C427 0.950 . S
C416 H408 0.950 . S
C416 C417 1.386 . S
C416 C418 1.391 1_455 S
C417 C416 1.386 . S
C417 C421 1.393 1_455 S
C418 H410 0.950 . S
C418 C416 1.391 1_655 S
C418 C419 1.400 . S
C419 C418 1.400 . S
C419 C420 1.398 . S
C419 C425 1.491 . S
C420 H411 0.950 . S
C420 C419 1.398 . S
C420 C421 1.391 . S
C421 H409 0.950 . S
C421 C417 1.393 1_655 S
C421 C420 1.391 . S
C422 H412 0.950 . S
C422 C423 1.386 . S
C422 C424 1.391 . S
C423 C422 1.386 . S
C423 C427 1.393 . S
C424 H413 0.950 . S
C424 C422 1.391 . S
C424 C425 1.400 . S
C425 C419 1.491 . S
C425 C424 1.400 . S
C425 C426 1.398 . S
C426 H414 0.950 . S
C426 C425 1.398 . S
C426 C427 1.391 . S
C427 H415 0.950 . S
C427 C423 1.393 . S
C427 C426 1.391 . S
H428 C436 0.950 . S
H429 C441 0.952 . S
H430 C438 0.950 . S
H431 C440 0.950 . S
H432 C442 0.950 . S
H433 C444 0.950 . S
H434 C446 0.950 . S
H435 C447 0.950 . S
C436 H428 0.950 . S
C436 C437 1.373 1_565 S
C436 C438 1.391 . S
C437 C436 1.373 1_545 S
C437 C441 1.395 . S
C438 H430 0.950 . S
C438 C436 1.391 . S
C438 C439 1.400 . S
C439 C438 1.400 . S
C439 C440 1.398 . S
C439 C445 1.491 . S
C440 H431 0.950 . S
C440 C439 1.398 . S
C440 C441 1.389 1_565 S
C441 H429 0.952 . S
C441 C437 1.395 . S
C441 C440 1.389 1_545 S
C442 H432 0.950 . S
C442 C443 1.386 . S
C442 C444 1.391 . S
C443 C442 1.386 . S
C443 C447 1.393 . S
C444 H433 0.950 . S
C444 C442 1.391 . S
C444 C445 1.400 . S
C445 C439 1.491 . S
C445 C444 1.400 . S
C445 C446 1.398 . S
C446 H434 0.950 . S
C446 C445 1.398 . S
C446 C447 1.391 . S
C447 H435 0.950 . S
C447 C443 1.393 . S
C447 C446 1.391 . S
H448 C456 0.950 . S
H449 C461 0.950 . S
H450 C458 0.950 . S
H451 C460 0.950 . S
H452 C462 0.950 . S
H453 C464 0.950 . S
H454 C466 0.950 . S
H455 C467 0.950 . S
C456 H448 0.950 . S
C456 C457 1.386 . S
C456 C458 1.391 . S
C457 C456 1.386 . S
C457 C461 1.393 . S
C458 H450 0.950 . S
C458 C456 1.391 . S
C458 C459 1.400 . S
C459 C458 1.400 . S
C459 C460 1.398 . S
C459 C465 1.491 . S
C460 H451 0.950 . S
C460 C459 1.398 . S
C460 C461 1.391 . S
C461 H449 0.950 . S
C461 C457 1.393 . S
C461 C460 1.391 . S
C462 H452 0.950 . S
C462 C463 1.386 . S
C462 C464 1.391 . S
C463 C462 1.386 . S
C463 C467 1.393 . S
C464 H453 0.950 . S
C464 C462 1.391 . S
C464 C465 1.400 . S
C465 C459 1.491 . S
C465 C464 1.400 . S
C465 C466 1.398 . S
C466 H454 0.950 . S
C466 C465 1.398 . S
C466 C467 1.391 . S
C467 H455 0.950 . S
C467 C463 1.393 . S
C467 C466 1.391 . S
H468 C476 0.950 . S
H469 C481 0.950 . S
H470 C478 0.950 . S
H471 C480 0.950 . S
H472 C482 0.950 . S
H473 C484 0.950 . S
H474 C486 0.950 . S
H475 C487 0.950 . S
C476 H468 0.950 . S
C476 C477 1.386 . S
C476 C478 1.391 . S
C477 C476 1.386 . S
C477 C481 1.393 . S
C478 H470 0.950 . S
C478 C476 1.391 . S
C478 C479 1.400 . S
C479 C478 1.400 . S
C479 C480 1.398 . S
C479 C485 1.491 . S
C480 H471 0.950 . S
C480 C479 1.398 . S
C480 C481 1.391 . S
C481 H469 0.950 . S
C481 C477 1.393 . S
C481 C480 1.391 . S
C482 H472 0.950 . S
C482 C483 1.386 . S
C482 C484 1.391 . S
C483 C482 1.386 . S
C483 C487 1.393 . S
C484 H473 0.950 . S
C484 C482 1.391 . S
C484 C485 1.400 . S
C485 C479 1.491 . S
C485 C484 1.400 . S
C485 C486 1.398 . S
C486 H474 0.950 . S
C486 C485 1.398 . S
C486 C487 1.391 . S
C487 H475 0.950 . S
C487 C483 1.393 . S
C487 C486 1.391 . S
H488 C496 0.950 . S
H489 C501 0.950 . S
H490 C498 0.950 . S
H491 C500 0.950 . S
H492 C502 0.950 . S
H493 C504 0.950 . S
H494 C506 0.950 1_655 S
H495 C507 0.950 . S
C496 H488 0.950 . S
C496 C497 1.385 . S
C496 C498 1.391 . S
C497 C496 1.385 . S
C497 C501 1.395 1_655 S
C498 H490 0.950 . S
C498 C496 1.391 . S
C498 C499 1.400 1_655 S
C499 C498 1.400 1_455 S
C499 C500 1.398 . S
C499 C505 1.491 . S
C500 H491 0.950 . S
C500 C499 1.398 . S
C500 C501 1.391 . S
C501 H489 0.950 . S
C501 C497 1.395 1_455 S
C501 C500 1.391 . S
C502 H492 0.950 . S
C502 C503 1.386 . S
C502 C504 1.391 . S
C503 C502 1.386 . S
C503 C507 1.393 . S
C504 H493 0.950 . S
C504 C502 1.391 . S
C504 C505 1.400 . S
C505 C499 1.491 . S
C505 C504 1.400 . S
C505 C506 1.398 . S
C506 H494 0.950 1_455 S
C506 C505 1.398 . S
C506 C507 1.391 . S
C507 H495 0.950 . S
C507 C503 1.393 . S
C507 C506 1.391 . S
H508 C516 0.950 . S
H509 C521 0.950 . S
H510 C518 0.950 . S
H511 C520 0.951 1_565 S
H512 C522 0.950 . S
H513 C524 0.950 . S
H514 C526 0.950 . S
H515 C527 0.950 . S
C516 H508 0.950 . S
C516 C517 1.379 1_545 S
C516 C518 1.391 . S
C517 C516 1.379 1_565 S
C517 C521 1.392 . S
C518 H510 0.950 . S
C518 C516 1.391 . S
C518 C519 1.400 . S
C519 C518 1.400 . S
C519 C520 1.400 . S
C519 C525 1.491 . S
C520 H511 0.951 1_545 S
C520 C519 1.400 . S
C520 C521 1.389 1_545 S
C521 H509 0.950 . S
C521 C517 1.392 . S
C521 C520 1.389 1_565 S
C522 H512 0.950 . S
C522 C523 1.386 . S
C522 C524 1.391 . S
C523 C522 1.386 . S
C523 C527 1.393 . S
C524 H513 0.950 . S
C524 C522 1.391 . S
C524 C525 1.400 . S
C525 C519 1.491 . S
C525 C524 1.400 . S
C525 C526 1.398 . S
C526 H514 0.950 . S
C526 C525 1.398 . S
C526 C527 1.391 . S
C527 H515 0.950 . S
C527 C523 1.393 . S
C527 C526 1.391 . S
H528 C536 0.950 . S
H529 C541 0.950 . S
H530 C538 0.950 . S
H531 C540 0.950 . S
H532 C542 0.950 . S
H533 C544 0.950 . S
H534 C546 0.950 . S
H535 C547 0.950 . S
C536 H528 0.950 . S
C536 C537 1.386 . S
C536 C538 1.391 . S
C537 C536 1.386 . S
C537 C541 1.393 . S
C538 H530 0.950 . S
C538 C536 1.391 . S
C538 C539 1.400 . S
C539 C538 1.400 . S
C539 C540 1.398 . S
C539 C545 1.491 . S
C540 H531 0.950 . S
C540 C539 1.398 . S
C540 C541 1.391 . S
C541 H529 0.950 . S
C541 C537 1.393 . S
C541 C540 1.391 . S
C542 H532 0.950 . S
C542 C543 1.386 . S
C542 C544 1.391 . S
C543 C542 1.386 . S
C543 C547 1.393 . S
C544 H533 0.950 . S
C544 C542 1.391 . S
C544 C545 1.400 . S
C545 C539 1.491 . S
C545 C544 1.400 . S
C545 C546 1.398 . S
C546 H534 0.950 . S
C546 C545 1.398 . S
C546 C547 1.391 . S
C547 H535 0.950 . S
C547 C543 1.393 . S
C547 C546 1.391 . S
H548 C556 0.950 . S
H549 C561 0.950 . S
H550 C558 0.950 . S
H551 C560 0.950 . S
H552 C562 0.950 . S
H553 C564 0.950 . S
H554 C566 0.950 . S
H555 C567 0.950 . S
C556 H548 0.950 . S
C556 C557 1.386 . S
C556 C558 1.391 . S
C557 C556 1.386 . S
C557 C561 1.393 . S
C558 H550 0.950 . S
C558 C556 1.391 . S
C558 C559 1.400 . S
C559 C558 1.400 . S
C559 C560 1.398 . S
C559 C565 1.491 . S
C560 H551 0.950 . S
C560 C559 1.398 . S
C560 C561 1.391 . S
C561 H549 0.950 . S
C561 C557 1.393 . S
C561 C560 1.391 . S
C562 H552 0.950 . S
C562 C563 1.386 . S
C562 C564 1.391 . S
C563 C562 1.386 . S
C563 C567 1.393 . S
C564 H553 0.950 . S
C564 C562 1.391 . S
C564 C565 1.400 . S
C565 C559 1.491 . S
C565 C564 1.400 . S
C565 C566 1.398 . S
C566 H554 0.950 . S
C566 C565 1.398 . S
C566 C567 1.391 . S
C567 H555 0.950 . S
C567 C563 1.393 . S
C567 C566 1.391 . S
H568 C576 0.950 . S
H569 C581 0.950 . S
H570 C578 0.949 1_655 S
H571 C580 0.950 . S
H572 C582 0.950 . S
H573 C584 0.950 . S
H574 C586 0.950 . S
H575 C587 0.950 . S
C576 H568 0.950 . S
C576 C577 1.386 1_655 S
C576 C578 1.391 1_655 S
C577 C576 1.386 1_455 S
C577 C581 1.393 1_554 S
C578 H570 0.949 1_455 S
C578 C576 1.391 1_455 S
C578 C579 1.401 . S
C579 C578 1.401 . S
C579 C580 1.398 1_554 S
C579 C585 1.491 1_554 S
C580 H571 0.950 . S
C580 C579 1.398 1_556 S
C580 C581 1.391 . S
C581 H569 0.950 . S
C581 C577 1.393 1_556 S
C581 C580 1.391 . S
C582 H572 0.950 . S
C582 C583 1.386 . S
C582 C584 1.391 . S
C583 C582 1.386 . S
C583 C587 1.393 1_556 S
C584 H573 0.950 . S
C584 C582 1.391 . S
C584 C585 1.400 . S
C585 C579 1.491 1_556 S
C585 C584 1.400 . S
C585 C586 1.398 1_556 S
C586 H574 0.950 . S
C586 C585 1.398 1_554 S
C586 C587 1.391 . S
C587 H575 0.950 . S
C587 C583 1.393 1_554 S
C587 C586 1.391 . S
H588 C596 0.950 . S
H589 C601 0.950 . S
H590 C598 0.950 . S
H591 C600 0.950 . S
H592 C602 0.950 . S
H593 C604 0.950 . S
H594 C606 0.950 . S
H595 C607 0.950 1_554 S
C596 H588 0.950 . S
C596 C597 1.407 . S
C596 C598 1.391 . S
C597 C596 1.407 . S
C597 C601 1.374 1_544 S
C598 H590 0.950 . S
C598 C596 1.391 . S
C598 C599 1.400 1_554 S
C599 C598 1.400 1_556 S
C599 C600 1.398 1_545 S
C599 C605 1.491 . S
C600 H591 0.950 . S
C600 C599 1.398 1_565 S
C600 C601 1.391 . S
C601 H589 0.950 . S
C601 C597 1.374 1_566 S
C601 C600 1.391 . S
C602 H592 0.950 . S
C602 C603 1.386 1_565 S
C602 C604 1.391 . S
C603 C602 1.386 1_545 S
C603 C607 1.393 . S
C604 H593 0.950 . S
C604 C602 1.391 . S
C604 C605 1.400 1_565 S
C605 C599 1.491 . S
C605 C604 1.400 1_545 S
C605 C606 1.398 1_556 S
C606 H594 0.950 . S
C606 C605 1.398 1_554 S
C606 C607 1.391 1_554 S
C607 H595 0.950 1_556 S
C607 C603 1.393 . S
C607 C606 1.391 1_556 S
H608 C616 0.950 . S
H609 C621 0.950 . S
H610 C618 0.950 . S
H611 C620 0.950 . S
H612 C622 0.950 . S
H613 C624 0.950 . S
H614 C626 0.950 . S
H615 C627 0.950 . S
C616 H608 0.950 . S
C616 C617 1.386 . S
C616 C618 1.391 . S
C617 C616 1.386 . S
C617 C621 1.393 . S
C618 H610 0.950 . S
C618 C616 1.391 . S
C618 C619 1.400 . S
C619 C618 1.400 . S
C619 C620 1.398 . S
C619 C625 1.491 . S
C620 H611 0.950 . S
C620 C619 1.398 . S
C620 C621 1.391 . S
C621 H609 0.950 . S
C621 C617 1.393 . S
C621 C620 1.391 . S
C622 H612 0.950 . S
C622 C623 1.386 . S
C622 C624 1.391 . S
C623 C622 1.386 . S
C623 C627 1.393 . S
C624 H613 0.950 . S
C624 C622 1.391 . S
C624 C625 1.400 . S
C625 C619 1.491 . S
C625 C624 1.400 . S
C625 C626 1.398 . S
C626 H614 0.950 . S
C626 C625 1.398 . S
C626 C627 1.391 . S
C627 H615 0.950 . S
C627 C623 1.393 . S
C627 C626 1.391 . S
H628 C636 0.950 . S
H629 C641 0.950 . S
H630 C638 0.950 . S
H631 C640 0.950 . S
H632 C642 0.950 . S
H633 C644 0.950 . S
H634 C646 0.950 . S
H635 C647 0.950 . S
C636 H628 0.950 . S
C636 C637 1.386 . S
C636 C638 1.391 . S
C637 C636 1.386 . S
C637 C641 1.393 1_554 S
C638 H630 0.950 . S
C638 C636 1.391 . S
C638 C639 1.400 1_554 S
C639 C638 1.400 1_556 S
C639 C640 1.398 . S
C639 C645 1.491 . S
C640 H631 0.950 . S
C640 C639 1.398 . S
C640 C641 1.391 . S
C641 H629 0.950 . S
C641 C637 1.393 1_556 S
C641 C640 1.391 . S
C642 H632 0.950 . S
C642 C643 1.386 . S
C642 C644 1.391 . S
C643 C642 1.386 . S
C643 C647 1.393 1_556 S
C644 H633 0.950 . S
C644 C642 1.391 . S
C644 C645 1.400 . S
C645 C639 1.491 . S
C645 C644 1.400 . S
C645 C646 1.398 1_556 S
C646 H634 0.950 . S
C646 C645 1.398 1_554 S
C646 C647 1.391 . S
C647 H635 0.950 . S
C647 C643 1.393 1_554 S
C647 C646 1.391 . S
H648 C656 0.950 . S
H649 C661 0.950 . S
H650 C658 0.950 . S
H651 C660 0.950 . S
H652 C662 0.950 . S
H653 C664 0.950 . S
H654 C666 0.950 . S
H655 C667 0.958 . S
C656 H648 0.950 . S
C656 C657 1.386 1_455 S
C656 C658 1.391 . S
C657 C656 1.386 1_655 S
C657 C661 1.393 . S
C658 H650 0.950 . S
C658 C656 1.391 . S
C658 C659 1.400 1_455 S
C659 C658 1.400 1_655 S
C659 C660 1.398 . S
C659 C665 1.491 . S
C660 H651 0.950 . S
C660 C659 1.398 . S
C660 C661 1.391 . S
C661 H649 0.950 . S
C661 C657 1.393 . S
C661 C660 1.391 . S
C662 H652 0.950 . S
C662 C663 1.386 . S
C662 C664 1.391 . S
C663 C662 1.386 . S
C663 C667 1.384 1_655 S
C664 H653 0.950 . S
C664 C662 1.391 . S
C664 C665 1.400 . S
C665 C659 1.491 . S
C665 C664 1.400 . S
C665 C666 1.398 1_655 S
C666 H654 0.950 . S
C666 C665 1.398 1_455 S
C666 C667 1.392 . S
C667 H655 0.958 . S
C667 C663 1.384 1_455 S
C667 C666 1.392 . S
H668 C676 0.950 . S
H669 C681 0.950 . S
H670 C678 0.950 . S
H671 C680 0.950 . S
H672 C682 0.950 . S
H673 C684 0.950 . S
H674 C686 0.950 . S
H675 C687 0.950 . S
C676 H668 0.950 . S
C676 C677 1.386 . S
C676 C678 1.391 . S
C677 C676 1.386 . S
C677 C681 1.393 1_565 S
C678 H670 0.950 . S
C678 C676 1.391 . S
C678 C679 1.400 . S
C679 C678 1.400 . S
C679 C680 1.398 1_565 S
C679 C685 1.491 . S
C680 H671 0.950 . S
C680 C679 1.398 1_545 S
C680 C681 1.391 . S
C681 H669 0.950 . S
C681 C677 1.393 1_545 S
C681 C680 1.391 . S
C682 H672 0.950 . S
C682 C683 1.386 1_545 S
C682 C684 1.391 . S
C683 C682 1.386 1_565 S
C683 C687 1.393 . S
C684 H673 0.950 . S
C684 C682 1.391 . S
C684 C685 1.400 1_545 S
C685 C679 1.491 . S
C685 C684 1.400 1_565 S
C685 C686 1.398 . S
C686 H674 0.950 . S
C686 C685 1.398 . S
C686 C687 1.391 . S
C687 H675 0.950 . S
C687 C683 1.393 . S
C687 C686 1.391 . S
H688 C696 0.950 . S
H689 C701 0.950 . S
H690 C698 0.950 . S
H691 C700 0.950 . S
H692 C702 0.950 . S
H693 C704 0.950 . S
H694 C706 0.950 . S
H695 C707 0.950 . S
C696 H688 0.950 . S
C696 C697 1.386 . S
C696 C698 1.391 . S
C697 C696 1.386 . S
C697 C701 1.393 . S
C698 H690 0.950 . S
C698 C696 1.391 . S
C698 C699 1.400 . S
C699 C698 1.400 . S
C699 C700 1.398 . S
C699 C705 1.491 . S
C700 H691 0.950 . S
C700 C699 1.398 . S
C700 C701 1.391 . S
C701 H689 0.950 . S
C701 C697 1.393 . S
C701 C700 1.391 . S
C702 H692 0.950 . S
C702 C703 1.386 . S
C702 C704 1.391 . S
C703 C702 1.386 . S
C703 C707 1.393 . S
C704 H693 0.950 . S
C704 C702 1.391 . S
C704 C705 1.400 . S
C705 C699 1.491 . S
C705 C704 1.400 . S
C705 C706 1.398 . S
C706 H694 0.950 . S
C706 C705 1.398 . S
C706 C707 1.391 . S
C707 H695 0.950 . S
C707 C703 1.393 . S
C707 C706 1.391 . S
H708 C716 0.950 . S
H709 C721 0.950 . S
H710 C718 0.950 . S
H711 C720 0.950 . S
H712 C722 0.950 . S
H713 C724 0.950 . S
H714 C726 0.950 . S
H715 C727 0.950 . S
C716 H708 0.950 . S
C716 C717 1.386 . S
C716 C718 1.391 . S
C717 C716 1.386 . S
C717 C721 1.393 . S
C718 H710 0.950 . S
C718 C716 1.391 . S
C718 C719 1.400 . S
C719 C718 1.400 . S
C719 C720 1.398 . S
C719 C725 1.491 . S
C720 H711 0.950 . S
C720 C719 1.398 . S
C720 C721 1.391 . S
C721 H709 0.950 . S
C721 C717 1.393 . S
C721 C720 1.391 . S
C722 H712 0.950 . S
C722 C723 1.386 . S
C722 C724 1.391 . S
C723 C722 1.386 . S
C723 C727 1.393 . S
C724 H713 0.950 . S
C724 C722 1.391 . S
C724 C725 1.400 . S
C725 C719 1.491 . S
C725 C724 1.400 . S
C725 C726 1.398 . S
C726 H714 0.950 . S
C726 C725 1.398 . S
C726 C727 1.391 . S
C727 H715 0.950 . S
C727 C723 1.393 . S
C727 C726 1.391 . S
C257 C76 1.876 1_545 S
C263 C111 2.002 1_545 S
C283 C151 1.721 . S
C277 C87 1.729 . S
C303 C170 2.019 . S
C297 C54 1.871 . S
C323 C231 1.423 1_455 S
C317 C65 1.357 . S
C343 C90 2.005 1_565 S
C337 C32 1.885 . S
C357 C43 1.731 . S
C363 C130 1.736 . S
C377 C10 1.873 . S
C383 C191 2.017 . S
C397 C21 1.355 . S
C403 C210 1.425 1_655 S
C423 C92 0.876 . S
C417 C60 0.871 . S
C443 C132 0.321 . S
C437 C71 0.365 . S
C463 C188 0.895 . S
C457 C82 0.842 . S
C477 C49 0.478 . S
C483 C212 0.469 . S
C497 C16 0.836 . S
C503 C113 0.839 . S
C523 C153 0.332 . S
C517 C27 0.399 1_565 S
C543 C199 0.913 . S
C537 C38 0.894 . S
C557 C5 0.422 . S
C563 C233 0.419 . S
C577 C59 1.467 . S
C583 C108 1.608 . S
C597 C70 2.132 . S
C603 C148 2.352 . S
C623 C172 1.524 . S
C617 C81 1.506 . S
C643 C228 2.345 . S
C637 C48 2.143 . S
C657 C15 1.448 . S
C663 C119 1.614 . S
C683 C159 2.350 . S
C677 C26 2.149 1_565 S
C703 C193 1.510 . S
C697 C37 1.512 . S
C717 C4 2.129 . S
C723 C239 2.335 . S
