# Generated by pormake.
# Topology zzz, (3,6)-cn, num edge types: 1
# Building blocks:
#     Node 0, Type 0, BuildingBlock: MIDCAF_clean_linker_0, # of connection points: 3
#     Node 1, Type 0, BuildingBlock: MIDCAF_clean_linker_0, # of connection points: 3
#     Node 2, Type 0, BuildingBlock: MIDCAF_clean_linker_0, # of connection points: 3
#     Node 3, Type 0, BuildingBlock: MIDCAF_clean_linker_0, # of connection points: 3
#     Node 4, Type 0, BuildingBlock: MIDCAF_clean_linker_0, # of connection points: 3
#     Node 5, Type 0, BuildingBlock: MIDCAF_clean_linker_0, # of connection points: 3
#     Node 6, Type 0, BuildingBlock: MIDCAF_clean_linker_0, # of connection points: 3
#     Node 7, Type 0, BuildingBlock: MIDCAF_clean_linker_0, # of connection points: 3
#     Node 8, Type 1, BuildingBlock: JUFBIX_clean_sbu_0, # of connection points: 6
#     Node 9, Type 1, BuildingBlock: JUFBIX_clean_sbu_0, # of connection points: 6
#     Node 10, Type 1, BuildingBlock: JUFBIX_clean_sbu_0, # of connection points: 6
#     Node 11, Type 1, BuildingBlock: JUFBIX_clean_sbu_0, # of connection points: 6
#     Edge 12, Type (0, 1), BuildingBlock: XUDNAN_clean_linker_2, # of connection points: 2
#     Edge 13, Type (0, 1), BuildingBlock: XUDNAN_clean_linker_2, # of connection points: 2
#     Edge 14, Type (0, 1), BuildingBlock: XUDNAN_clean_linker_2, # of connection points: 2
#     Edge 15, Type (0, 1), BuildingBlock: XUDNAN_clean_linker_2, # of connection points: 2
#     Edge 16, Type (0, 1), BuildingBlock: XUDNAN_clean_linker_2, # of connection points: 2
#     Edge 17, Type (0, 1), BuildingBlock: XUDNAN_clean_linker_2, # of connection points: 2
#     Edge 18, Type (0, 1), BuildingBlock: XUDNAN_clean_linker_2, # of connection points: 2
#     Edge 19, Type (0, 1), BuildingBlock: XUDNAN_clean_linker_2, # of connection points: 2
#     Edge 20, Type (0, 1), BuildingBlock: XUDNAN_clean_linker_2, # of connection points: 2
#     Edge 21, Type (0, 1), BuildingBlock: XUDNAN_clean_linker_2, # of connection points: 2
#     Edge 22, Type (0, 1), BuildingBlock: XUDNAN_clean_linker_2, # of connection points: 2
#     Edge 23, Type (0, 1), BuildingBlock: XUDNAN_clean_linker_2, # of connection points: 2
#     Edge 24, Type (0, 1), BuildingBlock: XUDNAN_clean_linker_2, # of connection points: 2
#     Edge 25, Type (0, 1), BuildingBlock: XUDNAN_clean_linker_2, # of connection points: 2
#     Edge 26, Type (0, 1), BuildingBlock: XUDNAN_clean_linker_2, # of connection points: 2
#     Edge 27, Type (0, 1), BuildingBlock: XUDNAN_clean_linker_2, # of connection points: 2
#     Edge 28, Type (0, 1), BuildingBlock: XUDNAN_clean_linker_2, # of connection points: 2
#     Edge 29, Type (0, 1), BuildingBlock: XUDNAN_clean_linker_2, # of connection points: 2
#     Edge 30, Type (0, 1), BuildingBlock: XUDNAN_clean_linker_2, # of connection points: 2
#     Edge 31, Type (0, 1), BuildingBlock: XUDNAN_clean_linker_2, # of connection points: 2
#     Edge 32, Type (0, 1), BuildingBlock: XUDNAN_clean_linker_2, # of connection points: 2
#     Edge 33, Type (0, 1), BuildingBlock: XUDNAN_clean_linker_2, # of connection points: 2
#     Edge 34, Type (0, 1), BuildingBlock: XUDNAN_clean_linker_2, # of connection points: 2
#     Edge 35, Type (0, 1), BuildingBlock: XUDNAN_clean_linker_2, # of connection points: 2
# Relax obj value: 0.292
# Max RMSD: 0.226
# Mean RMSD: 0.189
data_MOF--net-zzz--node1-JUFBIX_clean_sbu_0--node2-MIDCAF_clean_linker_0--edge1-XUDNAN_clean_linker_2
_symmetry_space_group_name_H-M    P1
_symmetry_Int_Tables_number       1
_symmetry_cell_setting            triclinic
loop_
_symmetry_equiv_pos_as_xyz
'x, y, z'
_cell_length_a     57.185499
_cell_length_b     59.121717
_cell_length_c     22.794451
_cell_angle_alpha  82.561678
_cell_angle_beta   90.153331
_cell_angle_gamma 86.559627
loop_
_atom_site_label
_atom_site_type_symbol
_atom_site_fract_x
_atom_site_fract_y
_atom_site_fract_z
_atom_type_partial_charge
C0 C 0.80354 0.53387 0.47406 0.0
C1 C 0.81208 0.51552 0.51577 0.0
C2 C 0.80499 0.49348 0.51054 0.0
C3 C 0.79192 0.48949 0.46146 0.0
H4 H 0.73499 0.47954 0.19575 0.0
H5 H 0.70066 0.49094 0.13328 0.0
H6 H 0.68849 0.55118 0.22032 0.0
H7 H 0.72308 0.53955 0.28383 0.0
H8 H 0.79853 0.49447 0.15166 0.0
H9 H 0.83407 0.48772 0.09584 0.0
H10 H 0.87027 0.45873 0.25692 0.0
H11 H 0.83483 0.46578 0.31344 0.0
H12 H 0.7856 0.54394 0.391 0.0
H13 H 0.80875 0.55104 0.47634 0.0
H14 H 0.81075 0.47903 0.54251 0.0
H15 H 0.78853 0.47206 0.45577 0.0
N16 N 0.75834 0.50795 0.33142 0.0
N17 N 0.77246 0.49361 0.24572 0.0
N18 N 0.79713 0.49252 0.3279 0.0
C19 C 0.7546 0.50313 0.2753 0.0
C20 C 0.79378 0.48836 0.27162 0.0
C21 C 0.77963 0.5022 0.35799 0.0
C22 C 0.73179 0.50874 0.24442 0.0
C23 C 0.72478 0.49503 0.20235 0.0
C24 C 0.705 0.50148 0.1668 0.0
C25 C 0.6919 0.52198 0.1718 0.0
C26 C 0.69834 0.53532 0.21542 0.0
C27 C 0.71801 0.52862 0.25193 0.0
C28 C 0.81393 0.48081 0.23703 0.0
C29 C 0.81389 0.48626 0.17516 0.0
C30 C 0.83423 0.48255 0.14322 0.0
C31 C 0.85482 0.47292 0.17238 0.0
C32 C 0.85454 0.46617 0.23364 0.0
C33 C 0.83431 0.47027 0.26583 0.0
C34 C 0.78517 0.50752 0.41743 0.0
C35 C 0.79016 0.52987 0.42526 0.0
C36 C 0.97858 0.82695 0.37301 0.0
C37 C 0.99051 0.82321 0.42778 0.0
C38 C 0.00641 0.80399 0.4394 0.0
C39 C 0.01167 0.79 0.39532 0.0
H40 H 0.04231 0.73509 0.14692 0.0
H41 H 0.03261 0.70178 0.10248 0.0
H42 H 0.9703 0.69607 0.20853 0.0
H43 H 0.98015 0.72986 0.25406 0.0
H44 H 0.03911 0.79274 0.083 0.0
H45 H 0.05328 0.82273 0.01185 0.0
H46 H 0.07219 0.85995 0.1546 0.0
H47 H 0.05668 0.83035 0.22571 0.0
H48 H 0.97571 0.81737 0.28589 0.0
H49 H 0.96597 0.84136 0.36294 0.0
H50 H 0.01602 0.80071 0.48094 0.0
H51 H 0.02536 0.77645 0.40351 0.0
N52 N 0.00723 0.76468 0.2735 0.0
N53 N 0.02979 0.77215 0.18779 0.0
N54 N 0.02483 0.79978 0.25178 0.0
C55 C 0.01663 0.75773 0.22323 0.0
C56 C 0.03405 0.79309 0.20175 0.0
C57 C 0.01159 0.78576 0.28788 0.0
C58 C 0.01182 0.73543 0.20354 0.0
C59 C 0.02656 0.72677 0.1613 0.0
C60 C 0.02095 0.70768 0.13546 0.0
C61 C 1.0004 0.69659 0.15088 0.0
C62 C 0.98622 0.70434 0.19555 0.0
C63 C 0.99188 0.72364 0.22168 0.0
C64 C 0.04641 0.80937 0.1599 0.0
C65 C 0.04665 0.80714 0.09932 0.0
C66 C 0.05499 0.82435 0.0584 0.0
C67 C 0.0637 0.84402 0.07718 0.0
C68 C 0.06506 0.84537 0.1383 0.0
C69 C 0.05628 0.82834 0.17916 0.0
C70 C 1.00096 0.79491 0.3393 0.0
C71 C 0.98388 0.81304 0.32917 0.0
C72 C 0.701 0.983 0.36765 0.0
C73 C 0.71084 0.9882 0.4205 0.0
C74 C 0.73379 0.99586 0.41907 0.0
C75 C 0.74597 0.99943 0.36537 0.0
H76 H 0.8164 0.99969 0.22653 0.0
H77 H 0.85353 0.9907 0.1772 0.0
H78 H 0.81467 0.97904 0.02234 0.0
H79 H 0.7782 0.988 0.07078 0.0
H80 H 0.72256 0.00986 0.05311 0.0
H81 H 0.6876 0.02312 0.99526 0.0
H82 H 0.67309 0.07521 0.10982 0.0
H83 H 0.70705 0.0602 0.1706 0.0
H84 H 0.70436 0.98351 0.27429 0.0
H85 H 0.68333 0.97748 0.36622 0.0
H86 H 0.74202 0.99982 0.45903 0.0
H87 H 0.76301 0.0065 0.36473 0.0
N88 N 0.76611 0.99711 0.23485 0.0
N89 N 0.75624 0.01514 0.13881 0.0
N90 N 0.72934 0.01674 0.21509 0.0
C91 C 0.772 0.00282 0.17688 0.0
C92 C 0.73514 0.02252 0.158 0.0
C93 C 0.74448 0.00401 0.25372 0.0
C94 C 0.79445 0.99458 0.15244 0.0
C95 C 0.81593 0.99478 0.1824 0.0
C96 C 0.83711 0.98984 0.15403 0.0
C97 C 0.83702 0.98411 0.0959 0.0
C98 C 0.81541 0.98309 0.06728 0.0
C99 C 0.79447 0.98837 0.09499 0.0
C100 C 0.71725 0.03395 0.11627 0.0
C101 C 0.71206 0.02443 0.06499 0.0
C102 C 0.69199 0.03221 0.03163 0.0
C103 C 0.67704 0.05017 0.04796 0.0
C104 C 0.68357 0.06088 0.09677 0.0
C105 C 0.7032 0.05253 0.13126 0.0
C106 C 0.73527 0.99552 0.31244 0.0
C107 C 0.71304 0.98661 0.31457 0.0
C108 C 0.47235 0.69766 0.02994 0.0
C109 C 0.48216 0.67537 0.04688 0.0
C110 C 0.4961 0.6709 0.09828 0.0
C111 C 0.49989 0.68816 0.13265 0.0
H112 H 0.48558 0.78565 0.06035 0.0
H113 H 0.4848 0.82576 0.02052 0.0
H114 H 0.49475 0.84367 0.19619 0.0
H115 H 0.49533 0.80326 0.23678 0.0
H116 H 0.47406 0.74602 0.34912 0.0
H117 H 0.47211 0.72071 0.44295 0.0
H118 H 0.53051 0.67863 0.38882 0.0
H119 H 0.5325 0.70398 0.29655 0.0
H120 H 0.46836 0.73208 0.05083 0.0
H121 H 0.46163 0.70155 0.99025 0.0
H122 H 0.5037 0.65385 0.11278 0.0
H123 H 0.51051 0.68394 0.17244 0.0
N124 N 0.49 0.75054 0.13711 0.0
N125 N 0.49659 0.75896 0.23394 0.0
N126 N 0.49759 0.72095 0.21422 0.0
C127 C 0.49218 0.76627 0.1753 0.0
C128 C 0.49948 0.73616 0.25318 0.0
C129 C 0.49269 0.72785 0.15647 0.0
C130 C 0.49061 0.79105 0.152 0.0
C131 C 0.48754 0.79802 0.09087 0.0
C132 C 0.48726 0.82109 0.06777 0.0
C133 C 0.48995 0.83793 0.10502 0.0
C134 C 0.49253 0.83111 0.1663 0.0
C135 C 0.49294 0.80793 0.18953 0.0
C136 C 0.5034 0.72688 0.31582 0.0
C137 C 0.48713 0.73199 0.35884 0.0
C138 C 0.48584 0.71729 0.41209 0.0
C139 C 0.50088 0.69736 0.42302 0.0
C140 C 0.51873 0.6938 0.38237 0.0
C141 C 0.51989 0.70835 0.32931 0.0
C142 C 0.48993 0.71041 0.11642 0.0
C143 C 0.47636 0.71512 0.06424 0.0
C144 C 0.1757 0.44922 0.10899 0.0
C145 C 0.18455 0.46275 0.0597 0.0
C146 C 0.20647 0.47209 0.06541 0.0
C147 C 0.2177 0.47032 0.12081 0.0
H148 H 0.28145 0.47671 0.25747 0.0
H149 H 0.31884 0.47846 0.30955 0.0
H150 H 0.28559 0.45672 0.47571 0.0
H151 H 0.24855 0.4559 0.42434 0.0
H152 H 0.15155 0.47817 0.29042 0.0
H153 H 0.1187 0.49456 0.34162 0.0
H154 H 0.16648 0.5163 0.46718 0.0
H155 H 0.19957 0.50003 0.41583 0.0
H156 H 0.17845 0.43868 0.20208 0.0
H157 H 0.1589 0.44182 0.107 0.0
H158 H 0.21409 0.48219 0.02807 0.0
H159 H 0.23326 0.47957 0.12524 0.0
N160 N 0.23499 0.46319 0.25306 0.0
N161 N 0.22014 0.47637 0.33974 0.0
N162 N 0.19465 0.4721 0.26262 0.0
C163 C 0.23859 0.46872 0.30865 0.0
C164 C 0.19816 0.47829 0.31678 0.0
C165 C 0.21273 0.46454 0.23057 0.0
C166 C 0.26206 0.46652 0.33697 0.0
C167 C 0.28235 0.47205 0.30501 0.0
C168 C 0.30372 0.47302 0.33489 0.0
C169 C 0.30513 0.46823 0.39709 0.0
C170 C 0.28505 0.46129 0.42814 0.0
C171 C 0.26381 0.46064 0.39858 0.0
C172 C 0.17823 0.48772 0.34912 0.0
C173 C 0.15515 0.48645 0.32888 0.0
C174 C 0.13628 0.49581 0.35819 0.0
C175 C 0.14008 0.50678 0.40809 0.0
C176 C 0.16311 0.5082 0.42827 0.0
C177 C 0.18202 0.49867 0.39921 0.0
C178 C 0.20717 0.45912 0.17099 0.0
C179 C 0.1869 0.44744 0.1639 0.0
C180 C 0.03032 0.21161 0.15968 0.0
C181 C 0.01894 0.21464 0.1042 0.0
C182 C 0.0023 0.23318 0.09117 0.0
C183 C 0.99556 0.24693 0.13482 0.0
H184 H 0.94013 0.3036 0.322 0.0
H185 H 0.93784 0.33494 0.38186 0.0
H186 H 0.01339 0.33318 0.39037 0.0
H187 H 0.01554 0.30218 0.32819 0.0
H188 H 0.93693 0.24335 0.41254 0.0
H189 H 0.92407 0.21328 0.48685 0.0
H190 H 0.9684 0.16357 0.40882 0.0
H191 H 0.9802 0.19316 0.33362 0.0
H192 H 0.03112 0.22116 0.2471 0.0
H193 H 0.04352 0.19779 0.17079 0.0
H194 H 0.99313 0.23593 0.04899 0.0
H195 H 0.98117 0.25969 0.12561 0.0
N196 N 0.99135 0.27194 0.2545 0.0
N197 N 0.96801 0.26097 0.33729 0.0
N198 N 0.98202 0.23364 0.27881 0.0
C199 C 0.97882 0.27747 0.30217 0.0
C200 C 0.96961 0.239 0.32603 0.0
C201 C 0.99264 0.24984 0.24263 0.0
C202 C 0.97798 0.30055 0.32047 0.0
C203 C 0.95622 0.31058 0.33458 0.0
C204 C 0.95495 0.32836 0.36944 0.0
C205 C 0.97543 0.33617 0.39224 0.0
C206 C 0.99729 0.32759 0.3735 0.0
C207 C 0.99854 0.3099 0.33771 0.0
C208 C 0.95975 0.22071 0.36745 0.0
C209 C 0.94359 0.22591 0.41083 0.0
C210 C 0.93629 0.20867 0.45356 0.0
C211 C 0.94526 0.18593 0.4543 0.0
C212 C 0.96068 0.18071 0.40931 0.0
C213 C 0.96767 0.19782 0.36623 0.0
C214 C 0.00543 0.24237 0.19187 0.0
C215 C 0.02351 0.22522 0.20312 0.0
C216 C 0.30377 0.00668 0.1548 0.0
C217 C 0.29616 0.02678 0.11818 0.0
C218 C 0.27559 0.03889 0.13421 0.0
C219 C 0.2642 0.03208 0.18769 0.0
H220 H 0.19531 0.02119 0.31866 0.0
H221 H 0.15948 0.03383 0.36812 0.0
H222 H 0.20067 0.04198 0.52221 0.0
H223 H 0.23589 0.02956 0.47356 0.0
H224 H 0.27551 0.98799 0.50771 0.0
H225 H 0.30854 0.97604 0.57473 0.0
H226 H 0.35113 0.96134 0.42636 0.0
H227 H 0.31819 0.97247 0.35995 0.0
H228 H 0.29946 0.98464 0.23492 0.0
H229 H 0.31956 0.99685 0.14539 0.0
H230 H 0.2687 0.05412 0.10661 0.0
H231 H 0.24935 0.04253 0.20045 0.0
N232 N 0.24472 0.01733 0.30827 0.0
N233 N 0.25568 0.0019 0.40574 0.0
N234 N 0.28042 0.99583 0.32765 0.0
C235 C 0.23988 0.01404 0.36744 0.0
C236 C 0.27592 0.99261 0.38618 0.0
C237 C 0.26519 0.00803 0.28824 0.0
C238 C 0.21839 0.02429 0.39229 0.0
C239 C 0.19663 0.02609 0.36266 0.0
C240 C 0.17616 0.03314 0.39112 0.0
C241 C 0.17724 0.03895 0.44909 0.0
C242 C 0.19918 0.03794 0.47738 0.0
C243 C 0.2194 0.03064 0.44954 0.0
C244 C 0.29429 0.98164 0.42823 0.0
C245 C 0.29176 0.98171 0.48954 0.0
C246 C 0.31073 0.97497 0.52797 0.0
C247 C 0.33258 0.96805 0.50585 0.0
C248 C 0.33455 0.96639 0.44512 0.0
C249 C 0.31562 0.97303 0.40682 0.0
C250 C 0.27303 0.0129 0.22591 0.0
C251 C 0.29227 0.99975 0.20723 0.0
C252 C 0.50941 0.36433 0.41425 0.0
C253 C 0.52196 0.35964 0.46783 0.0
C254 C 0.52976 0.33696 0.48811 0.0
C255 C 0.52519 0.31932 0.45498 0.0
H256 H 0.51568 0.24984 0.46385 0.0
H257 H 0.51648 0.21028 0.50795 0.0
H258 H 0.50614 0.1893 0.3357 0.0
H259 H 0.50558 0.22923 0.29071 0.0
H260 H 0.4697 0.32729 0.2185 0.0
H261 H 0.4731 0.35266 0.1267 0.0
H262 H 0.53416 0.31201 0.08153 0.0
H263 H 0.53078 0.28673 0.17488 0.0
H264 H 0.49555 0.35122 0.33954 0.0
H265 H 0.50336 0.38167 0.39726 0.0
H266 H 0.53933 0.33289 0.52959 0.0
H267 H 0.53164 0.30203 0.47116 0.0
N268 N 0.5117 0.28372 0.38395 0.0
N269 N 0.50541 0.27394 0.28835 0.0
N270 N 0.50526 0.3124 0.30416 0.0
C271 C 0.50933 0.26741 0.34755 0.0
C272 C 0.50316 0.29659 0.2669 0.0
C273 C 0.50969 0.30623 0.36242 0.0
C274 C 0.5105 0.2429 0.37344 0.0
C275 C 0.51359 0.23692 0.43494 0.0
C276 C 0.51388 0.21415 0.46054 0.0
C277 C 0.51115 0.1966 0.42553 0.0
C278 C 0.5084 0.20242 0.36391 0.0
C279 C 0.50801 0.22533 0.33815 0.0
C280 C 0.49996 0.30509 0.20359 0.0
C281 C 0.48318 0.32317 0.18758 0.0
C282 C 0.48519 0.33776 0.13484 0.0
C283 C 0.50419 0.33469 0.09709 0.0
C284 C 0.51955 0.31509 0.11018 0.0
C285 C 0.51743 0.30036 0.1631 0.0
C286 C 0.51303 0.32418 0.40069 0.0
C287 C 0.50504 0.34685 0.38104 0.0
Co288 Co 0.0121 0.0278 0.80587 0.0
C289 C 0.97295 0.00331 0.83726 0.0
Co290 Co 1.00065 0.00738 0.73673 0.0
C291 C 0.02155 0.06792 0.86231 0.0
C292 C 0.02802 0.03672 0.92029 0.0
N293 N 0.02149 0.04493 0.86435 0.0
N294 N 0.02765 0.07439 0.91486 0.0
C295 C 0.03189 0.05465 0.95119 0.0
H296 H 0.01636 0.07971 0.82352 0.0
H297 H 0.02931 0.01882 0.93817 0.0
C298 C 0.03993 0.03154 0.70531 0.0
N299 N 0.99125 0.9904 0.67796 0.0
C300 C 0.99143 0.96743 0.67887 0.0
C301 C 0.98442 0.99894 0.62244 0.0
N302 N 0.98517 0.96133 0.62601 0.0
C303 C 0.98058 0.98125 0.5907 0.0
C304 C 0.97998 0.05152 0.7265 0.0
O305 O 0.03734 0.03819 0.75607 0.0
O306 O 0.02554 0.01813 0.68809 0.0
O307 O 0.9807 0.03302 0.70351 0.0
O308 O 0.99253 0.05277 0.77175 0.0
O309 O 0.97585 0.9966 0.7867 0.0
H310 H 0.98291 0.01691 0.60537 0.0
H311 H 0.9969 0.95543 0.71702 0.0
O312 O 0.98685 0.01723 0.85432 0.0
O313 O 0.03152 0.00223 0.8398 0.0
O314 O 0.02069 0.98237 0.77054 0.0
C315 C 0.03268 0.98376 0.81674 0.0
H316 H 0.03718 0.05312 0.99719 0.0
H317 H 0.97506 0.98308 0.54483 0.0
Co318 Co 0.48919 0.02921 0.79487 0.0
C319 C 0.49976 0.98642 0.8583 0.0
Co320 Co 0.5166 0.00868 0.75312 0.0
C321 C 0.44431 0.04031 0.84803 0.0
C322 C 0.46666 0.06828 0.83788 0.0
N323 N 0.46566 0.04635 0.82842 0.0
N324 N 0.43189 0.05766 0.86941 0.0
C325 C 0.44611 0.07523 0.86309 0.0
H326 H 0.43802 0.02352 0.8461 0.0
H327 H 0.48147 0.07857 0.82731 0.0
C328 C 0.50589 0.05135 0.68926 0.0
N329 N 0.5405 0.99203 0.71954 0.0
C330 C 0.5609 0.99994 0.69814 0.0
C331 C 0.54188 0.96968 0.71285 0.0
N332 N 0.57507 0.98346 0.67839 0.0
C333 C 0.56305 0.96437 0.6875 0.0
C334 C 0.47206 1.00144 0.71701 0.0
O335 O 0.49186 0.05355 0.73167 0.0
O336 O 0.5183 0.03277 0.68958 0.0
O337 O 0.49354 0.99534 0.71087 0.0
O338 O 0.46654 0.01641 0.75071 0.0
O339 O 0.51447 0.98466 0.81707 0.0
H340 H 0.52847 0.95796 0.72612 0.0
H341 H 0.56515 0.01759 0.69677 0.0
O342 O 0.48681 0.00475 0.85739 0.0
O343 O 0.51222 0.04171 0.83907 0.0
O344 O 0.53932 0.0221 0.79586 0.0
C345 C 0.53371 0.03621 0.83167 0.0
H346 H 0.44228 0.09191 0.87662 0.0
H347 H 0.56922 0.94764 0.67757 0.0
Co348 Co 0.52241 0.51987 0.76826 0.0
C349 C 0.50855 0.48071 0.83762 0.0
Co350 Co 0.48552 0.51259 0.75392 0.0
C351 C 0.5623 0.52645 0.83997 0.0
C352 C 0.56824 0.53703 0.74806 0.0
N353 N 0.55249 0.52724 0.78568 0.0
N354 N 0.58334 0.53565 0.83775 0.0
C355 C 0.58717 0.54237 0.78003 0.0
H356 H 0.55367 0.52026 0.88063 0.0
H357 H 0.56576 0.54076 0.70066 0.0
C358 C 0.49916 0.55173 0.68459 0.0
N359 N 0.45545 0.50534 0.73593 0.0
C360 C 0.44734 0.50269 0.6817 0.0
C361 C 0.43749 0.50045 0.77267 0.0
N362 N 0.42512 0.49618 0.68295 0.0
C363 C 0.41878 0.49489 0.74017 0.0
C364 C 0.48914 0.54097 0.8376 0.0
O365 O 0.51885 0.54636 0.71026 0.0
O366 O 0.48236 0.5388 0.69632 0.0
O367 O 0.47401 0.53083 0.81145 0.0
O368 O 0.5107 0.53774 0.8259 0.0
O369 O 0.48884 0.48625 0.81208 0.0
H370 H 0.43813 0.50049 0.82009 0.0
H371 H 0.45761 0.50547 0.64189 0.0
O372 O 0.52551 0.49346 0.82565 0.0
O373 O 0.534 0.50184 0.71035 0.0
O374 O 0.49737 0.49465 0.69669 0.0
C375 C 0.51886 0.4917 0.68427 0.0
H376 H 0.60242 0.55078 0.76237 0.0
H377 H 0.40207 0.48967 0.75757 0.0
Co378 Co 0.99806 0.52526 0.80005 0.0
C379 C 0.03998 0.50002 0.83425 0.0
Co380 Co 0.9998 0.48945 0.77949 0.0
C381 C 0.98767 0.56391 0.86643 0.0
C382 C 0.01164 0.57166 0.79594 0.0
N383 N 0.99809 0.55509 0.8203 0.0
N384 N 0.99435 0.58514 0.87192 0.0
C385 C 0.00934 0.59001 0.82718 0.0
H386 H 0.97597 0.55467 0.89661 0.0
H387 H 0.02355 0.57019 0.75973 0.0
C388 C 0.95809 0.51518 0.74418 0.0
N389 N 1.00033 0.45986 0.76 0.0
C390 C 0.99452 0.45283 0.70795 0.0
C391 C 0.00541 0.44044 0.79695 0.0
N392 N 0.99556 0.42984 0.71143 0.0
C393 C 0.00225 0.42197 0.76737 0.0
C394 C 0.9806 0.494 0.88837 0.0
O395 O 0.96758 0.5311 0.76643 0.0
O396 O 0.96924 0.49581 0.74508 0.0
O397 O 0.98618 0.47965 0.85319 0.0
O398 O 0.9846 0.51489 0.87407 0.0
O399 O 0.03045 0.48367 0.81408 0.0
H400 H 0.01044 0.43977 0.84295 0.0
H401 H 0.98865 0.4643 0.6691 0.0
O402 O 0.02859 0.51921 0.83301 0.0
O403 O 0.01151 0.5348 0.7251 0.0
O404 O 0.01331 0.4993 0.70639 0.0
C405 C 0.0172 0.52011 0.69081 0.0
H406 H 0.01914 0.60519 0.81944 0.0
H407 H 0.00419 0.40413 0.78577 0.0
H408 H 0.13594 0.01716 0.45727 0.0
H409 H 0.1704 0.07342 0.51787 0.0
H410 H 0.13762 0.07941 0.5855 0.0
H411 H 0.0748 0.04233 0.46655 0.0
H412 H 0.06366 0.0149 0.49166 0.0
H413 H 0.08853 0.01677 0.44323 0.0
H414 H 0.11256 0.98802 0.51908 0.0
H415 H 0.0879 0.98625 0.56793 0.0
H416 H 0.11565 0.99416 0.59407 0.0
H417 H 0.10346 0.07637 0.65493 0.0
H418 H 0.06917 0.06597 0.71638 0.0
H419 H 0.05628 0.01249 0.60873 0.0
C420 C 0.13623 0.03119 0.48338 0.0
C421 C 0.15575 0.04483 0.4822 0.0
C422 C 0.15571 0.06266 0.51827 0.0
C423 C 0.13712 0.06625 0.55671 0.0
C424 C 0.11853 0.05201 0.55833 0.0
C425 C 0.11776 0.03503 0.52205 0.0
C426 C 0.09641 0.02126 0.53493 0.0
C427 C 0.07987 0.02398 0.48087 0.0
C428 C 0.10357 0.99593 0.55521 0.0
C429 C 0.08566 0.03275 0.58505 0.0
C430 C 0.09863 0.05051 0.59776 0.0
C431 C 0.09295 0.06273 0.64473 0.0
C432 C 0.0735 0.05665 0.67957 0.0
C433 C 0.05991 0.03855 0.66717 0.0
C434 C 0.06607 0.02664 0.61888 0.0
H435 H 0.48976 0.17972 0.52845 0.0
H436 H 0.53326 0.15877 0.38696 0.0
H437 H 0.53544 0.119 0.43706 0.0
H438 H 0.51993 0.14466 0.64639 0.0
H439 H 0.4939 0.1382 0.68814 0.0
H440 H 0.49471 0.16467 0.63949 0.0
H441 H 0.45759 0.15498 0.58459 0.0
H442 H 0.45665 0.12848 0.63319 0.0
H443 H 0.4574 0.12831 0.55419 0.0
H444 H 0.53481 0.08192 0.50602 0.0
H445 H 0.53023 0.05022 0.58621 0.0
H446 H 0.48688 0.09548 0.68229 0.0
C447 C 0.49974 0.16678 0.50789 0.0
C448 C 0.51138 0.1724 0.45371 0.0
C449 C 0.52399 0.15486 0.42803 0.0
C450 C 0.52542 0.13224 0.45635 0.0
C451 C 0.51401 0.12739 0.51011 0.0
C452 C 0.50128 0.14415 0.5354 0.0
C453 C 0.49098 0.13459 0.59398 0.0
C454 C 0.50045 0.14622 0.645 0.0
C455 C 0.46406 0.13671 0.5913 0.0
C456 C 0.50017 0.10986 0.59817 0.0
C457 C 0.51341 0.10604 0.54935 0.0
C458 C 0.52432 0.08469 0.54418 0.0
C459 C 0.52164 0.06678 0.59006 0.0
C460 C 0.50809 0.07029 0.64048 0.0
C461 C 0.49717 0.09215 0.64417 0.0
H462 H 0.30849 0.48577 0.50215 0.0
H463 H 0.35112 0.45814 0.36779 0.0
H464 H 0.38683 0.46295 0.4255 0.0
H465 H 0.34744 0.52736 0.53754 0.0
H466 H 0.34111 0.52308 0.61547 0.0
H467 H 0.31923 0.51815 0.56238 0.0
H468 H 0.31593 0.47695 0.61534 0.0
H469 H 0.33781 0.48174 0.66859 0.0
H470 H 0.3419 0.458 0.62665 0.0
H471 H 0.41792 0.47029 0.50009 0.0
H472 H 0.44141 0.47933 0.58426 0.0
H473 H 0.37781 0.501 0.66996 0.0
C474 C 0.32528 0.48047 0.48488 0.0
C475 C 0.32692 0.47141 0.43043 0.0
C476 C 0.34937 0.46529 0.40906 0.0
C477 C 0.36974 0.46785 0.44172 0.0
C478 C 0.36736 0.47656 0.49561 0.0
C479 C 0.34565 0.48276 0.51692 0.0
C480 C 0.34765 0.49139 0.57631 0.0
C481 C 0.33831 0.51648 0.57267 0.0
C482 C 0.33508 0.4761 0.62456 0.0
C483 C 0.37392 0.48902 0.58545 0.0
C484 C 0.38504 0.48054 0.53837 0.0
C485 C 0.40935 0.47701 0.53701 0.0
C486 C 0.42256 0.4823 0.58492 0.0
C487 C 0.41145 0.49093 0.63373 0.0
C488 C 0.38679 0.49424 0.63368 0.0
H489 H 1.00102 0.37323 0.4117 0.0
H490 H 0.94668 0.33039 0.48701 0.0
H491 H 0.94458 0.35143 0.57305 0.0
H492 H 0.03074 0.37677 0.54724 0.0
H493 H 0.03752 0.40625 0.5296 0.0
H494 H 0.03401 0.38889 0.47118 0.0
H495 H 0.00214 0.41832 0.42195 0.0
H496 H 0.00562 0.43576 0.4803 0.0
H497 H 0.97714 0.42638 0.46436 0.0
H498 H 0.95032 0.37419 0.65474 0.0
H499 H 0.96256 0.3994 0.72626 0.0
H500 H 0.01188 0.42932 0.59956 0.0
C501 C 0.98854 0.36848 0.44605 0.0
C502 C 0.97375 0.35033 0.4419 0.0
C503 C 0.95777 0.34455 0.48815 0.0
C504 C 0.95653 0.35631 0.53757 0.0
C505 C 0.97129 0.374 0.5404 0.0
C506 C 0.98687 0.38028 0.49586 0.0
C507 C 1.00109 0.39968 0.51133 0.0
C508 C 0.0274 0.39246 0.51507 0.0
C509 C 0.9962 0.42132 0.46683 0.0
C510 C 0.99133 0.40288 0.57189 0.0
C511 C 0.97418 0.38778 0.58761 0.0
C512 C 0.96346 0.38633 0.64268 0.0
C513 C 0.97052 0.4006 0.683 0.0
C514 C 0.98788 0.4163 0.66792 0.0
C515 C 0.99825 0.41767 0.61142 0.0
H516 H 0.87546 0.01023 0.08626 0.0
H517 H 0.84784 0.94984 0.02904 0.0
H518 H 0.88108 0.94682 0.96113 0.0
H519 H 0.89342 0.03455 0.94818 0.0
H520 H 0.91994 0.0455 0.97305 0.0
H521 H 0.89567 0.04152 0.02262 0.0
H522 H 0.92237 0.01564 0.09888 0.0
H523 H 0.94684 0.01977 0.04978 0.0
H524 H 0.93877 0.99128 0.07635 0.0
H525 H 0.91441 0.95294 0.89106 0.0
H526 H 0.94734 0.96624 0.82851 0.0
H527 H 0.95438 0.02202 0.93257 0.0
C528 C 0.87684 0.99596 0.06081 0.0
C529 C 0.85906 0.98024 0.06301 0.0
C530 C 0.86119 0.96214 0.02786 0.0
C531 C 0.88004 0.96024 0.98925 0.0
C532 C 0.89681 0.97647 0.98654 0.0
C533 C 0.89562 0.99381 0.02194 0.0
C534 C 0.91527 0.00975 0.00782 0.0
C535 C 0.90548 0.03427 0.98666 0.0
C536 C 0.93179 0.00906 0.0614 0.0
C537 C 0.92725 0.999 0.95799 0.0
C538 C 0.91636 0.97978 0.94657 0.0
C539 C 0.92333 0.96775 0.90021 0.0
C540 C 0.94198 0.97551 0.8647 0.0
C541 C 0.95354 0.99507 0.87581 0.0
C542 C 0.94611 0.00682 0.92344 0.0
H543 H 0.51231 0.85612 0.00499 0.0
H544 H 0.46787 0.87511 0.14693 0.0
H545 H 0.46681 0.91553 0.10165 0.0
H546 H 0.54592 0.90669 0.98863 0.0
H547 H 0.54746 0.90808 0.90928 0.0
H548 H 0.54546 0.8809 0.95434 0.0
H549 H 0.50864 0.87329 0.89506 0.0
H550 H 0.51053 0.90043 0.84986 0.0
H551 H 0.48391 0.89389 0.88891 0.0
H552 H 0.46876 0.95364 0.03709 0.0
H553 H 0.47465 0.98642 0.96068 0.0
H554 H 0.51829 0.94234 0.86202 0.0
C555 C 0.50233 0.86877 0.02662 0.0
C556 C 0.49012 0.86242 0.07952 0.0
C557 C 0.47755 0.87957 0.10675 0.0
C558 C 0.47676 0.90256 0.08119 0.0
C559 C 0.4888 0.90815 0.02866 0.0
C560 C 0.50147 0.89174 0.00192 0.0
C561 C 0.51257 0.9021 0.9452 0.0
C562 C 0.53945 0.89928 0.94966 0.0
C563 C 0.50335 0.89182 0.8916 0.0
C564 C 0.50395 0.92689 0.94372 0.0
C565 C 0.49025 0.93006 0.99221 0.0
C566 C 0.47964 0.95138 0.99926 0.0
C567 C 0.48307 0.9699 0.95556 0.0
C568 C 0.49708 0.96702 0.90553 0.0
C569 C 0.50773 0.9452 0.90003 0.0
H570 H 0.65683 0.49755 0.13316 0.0
H571 H 0.68528 0.56445 0.10886 0.0
H572 H 0.65825 0.57629 0.0242 0.0
H573 H 0.65189 0.49108 0.98494 0.0
H574 H 0.62466 0.47712 0.99059 0.0
H575 H 0.64405 0.47476 0.05367 0.0
H576 H 0.61066 0.49068 0.11626 0.0
H577 H 0.59105 0.49287 0.05345 0.0
H578 H 0.59535 0.51764 0.08981 0.0
H579 H 0.63236 0.57887 0.93397 0.0
H580 H 0.60641 0.57329 0.85053 0.0
H581 H 0.59349 0.50541 0.93547 0.0
C582 C 0.65699 0.51485 0.11077 0.0
C583 C 0.67307 0.53014 0.12771 0.0
C584 C 0.67286 0.5526 0.09722 0.0
C585 C 0.65766 0.55942 0.04887 0.0
C586 C 0.64254 0.54369 0.03215 0.0
C587 C 0.64175 0.52201 0.06286 0.0
C588 C 0.62463 0.50805 0.03426 0.0
C589 C 0.63706 0.48649 0.01471 0.0
C590 C 0.60421 0.50196 0.07593 0.0
C591 C 0.6165 0.52499 0.98151 0.0
C592 C 0.62704 0.54545 0.9811 0.0
C593 C 0.62366 0.56309 0.93442 0.0
C594 C 0.60908 0.55973 0.88709 0.0
C595 C 0.59791 0.53902 0.88702 0.0
C596 C 0.60152 0.52155 0.93516 0.0
H597 H 0.00196 0.69545 0.03167 0.0
H598 H 0.98421 0.65487 0.19595 0.0
H599 H 0.97697 0.62238 0.14078 0.0
H600 H 0.95986 0.67249 0.93615 0.0
H601 H 0.97997 0.67343 0.87524 0.0
H602 H 0.98121 0.69387 0.92717 0.0
H603 H 0.02512 0.68182 0.94758 0.0
H604 H 0.024 0.66133 0.89595 0.0
H605 H 0.03374 0.65219 0.97101 0.0
H606 H 0.97561 0.59308 0.06725 0.0
H607 H 0.97994 0.5703 0.98404 0.0
H608 H 0.99788 0.63097 0.86875 0.0
C609 C 0.99636 0.67979 0.05611 0.0
C610 C 0.99377 0.67764 0.1182 0.0
C611 C 0.98615 0.65695 0.14834 0.0
C612 C 0.98206 0.63841 0.11735 0.0
C613 C 0.98539 0.64097 0.05619 0.0
C614 C 0.99217 0.66128 0.02598 0.0
C615 C 0.99575 0.65952 0.96095 0.0
C616 C 0.97814 0.67579 0.92263 0.0
C617 C 0.02116 0.66397 0.94285 0.0
C618 C 0.9906 0.63482 0.95928 0.0
C619 C 0.98444 0.62438 0.01438 0.0
C620 C 0.98011 0.60122 0.02381 0.0
C621 C 0.98252 0.5884 0.97602 0.0
C622 C 0.98932 0.59872 0.91941 0.0
C623 C 0.99288 0.62239 0.91125 0.0
H624 H 0.94072 0.13991 0.45192 0.0
H625 H 0.94094 0.1914 0.57159 0.0
H626 H 0.94137 0.16125 0.65645 0.0
H627 H 0.9084 0.09563 0.55107 0.0
H628 H 0.92705 0.07275 0.5283 0.0
H629 H 0.92 0.09819 0.47721 0.0
H630 H 0.96427 0.10361 0.46129 0.0
H631 H 0.97143 0.07838 0.51236 0.0
H632 H 0.98289 0.10517 0.52442 0.0
H633 H 0.95052 0.12649 0.7267 0.0
H634 H 0.96733 0.08971 0.77693 0.0
H635 H 0.96293 0.06019 0.61291 0.0
C636 C 0.94026 0.14491 0.49595 0.0
C637 C 0.94071 0.16814 0.50474 0.0
C638 C 0.94006 0.17386 0.56324 0.0
C639 C 0.9404 0.15678 0.61197 0.0
C640 C 0.94126 0.13403 0.60166 0.0
C641 C 0.94096 0.12804 0.54505 0.0
C642 C 0.94565 0.10251 0.54569 0.0
C643 C 0.92398 0.09163 0.52431 0.0
C644 C 0.96735 0.09712 0.5088 0.0
C645 C 0.9501 0.09529 0.61112 0.0
C646 C 0.94688 0.11366 0.64277 0.0
C647 C 0.95251 0.11186 0.70274 0.0
C648 C 0.96217 0.09091 0.73081 0.0
C649 C 0.96626 0.07208 0.69883 0.0
C650 C 0.95948 0.07415 0.6387 0.0
H651 H 0.34401 0.9946 0.5899 0.0
H652 H 0.36993 0.93636 0.50581 0.0
H653 H 0.4082 0.93695 0.55602 0.0
H654 H 0.39345 0.02423 0.57559 0.0
H655 H 0.39176 0.03493 0.64609 0.0
H656 H 0.36548 0.02807 0.6105 0.0
H657 H 0.35533 1.00037 0.7033 0.0
H658 H 0.38141 0.00746 0.73976 0.0
H659 H 0.3766 0.97805 0.733 0.0
H660 H 0.44501 0.9472 0.60509 0.0
H661 H 0.47652 0.96442 0.65563 0.0
H662 H 0.42561 0.01503 0.70935 0.0
C663 C 0.35737 0.98138 0.58373 0.0
C664 C 0.35393 0.96541 0.54396 0.0
C665 C 0.37222 0.94888 0.53574 0.0
C666 C 0.39397 0.94901 0.56426 0.0
C667 C 0.39702 0.96557 0.60143 0.0
C668 C 0.37907 0.98119 0.61204 0.0
C669 C 0.3872 0.99818 0.65074 0.0
C670 C 0.3843 0.0228 0.61879 0.0
C671 C 0.37438 0.99586 0.71024 0.0
C672 C 0.41273 0.99016 0.65862 0.0
C673 C 0.41809 0.97127 0.6302 0.0
C674 C 0.44094 0.96175 0.62838 0.0
C675 C 0.45873 0.97173 0.65682 0.0
C676 C 0.45349 0.99101 0.68653 0.0
C677 C 0.43015 1.00018 0.68748 0.0
H678 H 0.49126 0.39396 0.49336 0.0
H679 H 0.56366 0.36808 0.51824 0.0
H680 H 0.57198 0.40119 0.56984 0.0
H681 H 0.50203 0.4539 0.46631 0.0
H682 H 0.47652 0.4625 0.50621 0.0
H683 H 0.47664 0.43713 0.47014 0.0
H684 H 0.46653 0.4132 0.56937 0.0
H685 H 0.46615 0.43856 0.60536 0.0
H686 H 0.48485 0.4139 0.63353 0.0
H687 H 0.57194 0.43732 0.61955 0.0
H688 H 0.56262 0.47105 0.67134 0.0
H689 H 0.49035 0.47263 0.61148 0.0
C690 C 0.50891 0.39535 0.50928 0.0
C691 C 0.52687 0.3786 0.50162 0.0
C692 C 0.54964 0.38071 0.52409 0.0
C693 C 0.55455 0.39953 0.55287 0.0
C694 C 0.53648 0.41597 0.55879 0.0
C695 C 0.51406 0.41389 0.53807 0.0
C696 C 0.49742 0.43322 0.55214 0.0
C697 C 0.48759 0.44753 0.4953 0.0
C698 C 0.47758 0.42417 0.59251 0.0
C699 C 0.51392 0.44648 0.5844 0.0
C700 C 0.53643 0.43647 0.58742 0.0
C701 C 0.5544 0.44538 0.61716 0.0
C702 C 0.549 0.4646 0.6461 0.0
C703 C 0.52579 0.47446 0.64529 0.0
C704 C 0.50829 0.46555 0.61271 0.0
H705 H 0.10066 0.48512 0.44144 0.0
H706 H 0.13468 0.54823 0.44978 0.0
H707 H 0.10231 0.56164 0.51097 0.0
H708 H 0.03872 0.50957 0.44147 0.0
H709 H 0.0295 0.4847 0.48783 0.0
H710 H 0.05313 0.48192 0.43656 0.0
H711 H 0.08015 0.46262 0.5226 0.0
H712 H 0.05661 0.46529 0.57369 0.0
H713 H 0.08421 0.47718 0.58634 0.0
H714 H 0.06891 0.56603 0.58054 0.0
H715 H 0.03916 0.55977 0.6584 0.0
H716 H 0.02728 0.4937 0.60391 0.0
C717 C 0.1009 0.50207 0.45459 0.0
C718 C 0.11997 0.51577 0.44054 0.0
C719 C 0.12016 0.53751 0.46021 0.0
C720 C 0.10177 0.54533 0.49441 0.0
C721 C 0.08334 0.53123 0.50823 0.0
C722 C 0.08281 0.51003 0.48891 0.0
C723 C 0.06263 0.49697 0.51552 0.0
C724 C 0.04494 0.49308 0.46747 0.0
C725 C 0.07144 0.47419 0.55169 0.0
C726 C 0.05248 0.51372 0.55482 0.0
C727 C 0.06428 0.53361 0.54906 0.0
C728 C 0.05926 0.55072 0.5847 0.0
C729 C 0.04231 0.54703 0.62873 0.0
C730 C 0.03093 0.52626 0.63709 0.0
C731 C 0.03555 0.50983 0.59823 0.0
H732 H 0.05512 0.88944 0.08776 0.0
H733 H 0.08248 0.84403 0.96561 0.0
H734 H 0.08268 0.87674 0.88669 0.0
H735 H 0.0171 0.92138 0.99583 0.0
H736 H 0.02155 0.94852 0.0208 0.0
H737 H 0.02739 0.92256 0.07016 0.0
H738 H 0.06988 0.93352 0.08688 0.0
H739 H 0.06409 0.95979 0.03799 0.0
H740 H 0.08844 0.94046 0.02412 0.0
H741 H 0.07185 0.91233 0.81744 0.0
H742 H 0.05471 0.94903 0.76586 0.0
H743 H 0.03845 0.97191 0.93498 0.0
C744 C 0.06221 0.88638 0.04534 0.0
C745 C 0.06863 0.86401 0.0331 0.0
C746 C 0.07705 0.86089 0.97604 0.0
C747 C 0.07746 0.87942 0.93098 0.0
C748 C 0.07002 0.90106 0.94405 0.0
C749 C 0.06311 0.90471 1.00028 0.0
C750 C 0.05403 0.9292 0.00183 0.0
C751 C 0.02852 0.93046 0.02339 0.0
C752 C 0.07007 0.94146 0.03996 0.0
C753 C 0.05568 0.93845 0.93707 0.0
C754 C 0.06507 0.92201 0.90439 0.0
C755 C 0.06527 0.9256 0.84269 0.0
C756 C 0.05542 0.9464 0.81377 0.0
C757 C 0.04581 0.96336 0.84667 0.0
C758 C 0.04647 0.9595 0.90898 0.0
H759 H 0.66459 0.04712 0.93183 0.0
H760 H 0.63594 0.06516 0.09736 0.0
H761 H 0.59665 0.06968 0.05286 0.0
H762 H 0.62152 0.08151 0.8287 0.0
H763 H 0.62031 0.05905 0.78249 0.0
H764 H 0.64695 0.06251 0.82198 0.0
H765 H 0.64702 0.02032 0.87034 0.0
H766 H 0.62042 0.01683 0.83119 0.0
H767 H 0.62166 0.01058 0.91071 0.0
H768 H 0.55979 0.06737 0.99599 0.0
H769 H 0.52837 0.05632 0.93273 0.0
H770 H 0.58053 0.03598 0.80864 0.0
C771 C 0.6502 0.0523 0.95881 0.0
C772 C 0.65375 0.05598 0.01825 0.0
C773 C 0.63415 0.06289 0.05128 0.0
C774 C 0.61157 0.06537 0.02647 0.0
C775 C 0.60868 0.06073 0.96871 0.0
C776 C 0.62746 0.05427 0.9353 0.0
C777 C 0.61935 0.0472 0.87742 0.0
C778 C 0.62752 0.06355 0.82452 0.0
C779 C 0.6276 0.02226 0.87217 0.0
C780 C 0.59309 0.04983 0.88469 0.0
C781 C 0.58728 0.05825 0.93688 0.0
C782 C 0.56409 0.06104 0.95463 0.0
C783 C 0.54638 0.0547 0.9185 0.0
C784 C 0.55206 0.04525 0.866 0.0
C785 C 0.57569 0.04319 0.84855 0.0
H786 H 0.51444 0.64389 0.01357 0.0
H787 H 0.44024 0.6641 0.00287 0.0
H788 H 0.43309 0.63028 0.95281 0.0
H789 H 0.51847 0.62325 0.87216 0.0
H790 H 0.53955 0.60024 0.89832 0.0
H791 H 0.53826 0.62616 0.93206 0.0
H792 H 0.53276 0.60245 0.03459 0.0
H793 H 0.53364 0.57651 0.00084 0.0
H794 H 0.50889 0.58379 0.04505 0.0
H795 H 0.43447 0.59346 0.90501 0.0
H796 H 0.4447 0.55924 0.85585 0.0
H797 H 0.51789 0.56368 0.90159 0.0
C798 C 0.49667 0.6412 1.00073 0.0
C799 C 0.47786 0.65648 0.01223 0.0
C800 C 0.45491 0.65263 0.99396 0.0
C801 C 0.45068 0.6334 0.96606 0.0
C802 C 0.46962 0.61833 0.95672 0.0
C803 C 0.49219 0.62222 0.97299 0.0
C804 C 0.50966 0.60386 0.95715 0.0
C805 C 0.52752 0.61398 0.91225 0.0
C806 C 0.52195 0.59089 0.01273 0.0
C807 C 0.49343 0.58892 0.9295 0.0
C808 C 0.47039 0.5974 0.92972 0.0
C809 C 0.45246 0.58665 0.90477 0.0
C810 C 0.4584 0.56715 0.87732 0.0
C811 C 0.48207 0.55875 0.87505 0.0
C812 C 0.4996 0.56955 0.90281 0.0
H813 H 0.87473 0.50773 0.1052 0.0
H814 H 0.88443 0.43521 0.1658 0.0
H815 H 0.92062 0.43314 0.10633 0.0
H816 H 0.89237 0.50599 0.95923 0.0
H817 H 0.90715 0.53227 0.95297 0.0
H818 H 0.88325 0.52804 0.00352 0.0
H819 H 0.91002 0.53596 0.08966 0.0
H820 H 0.93409 0.54009 0.03928 0.0
H821 H 0.93733 0.51929 0.10442 0.0
H822 H 0.95289 0.43852 0.03118 0.0
H823 H 0.97968 0.45113 0.94992 0.0
H824 H 0.95006 0.52065 0.9447 0.0
C825 C 0.88462 0.49147 0.10617 0.0
C826 C 0.87689 0.47157 0.13939 0.0
C827 C 0.89023 0.45059 0.1404 0.0
C828 C 0.91074 0.4493 0.10695 0.0
C829 C 0.91779 0.46926 0.07401 0.0
C830 C 0.90526 0.49 0.07404 0.0
C831 C 0.91604 0.5088 0.03359 0.0
C832 C 0.89867 0.51938 0.98442 0.0
C833 C 0.9249 0.52711 0.06886 0.0
C834 C 0.93617 0.49529 0.00916 0.0
C835 C 0.93697 0.47252 0.03304 0.0
C836 C 0.95277 0.45638 0.01313 0.0
C837 C 0.96787 0.46367 0.967 0.0
C838 C 0.96714 0.4869 0.94188 0.0
C839 C 0.95143 0.50291 0.96421 0.0
H840 H 0.02128 0.16834 0.13455 0.0
H841 H 0.02313 0.22047 0.98242 0.0
H842 H 0.02654 0.19021 0.91644 0.0
H843 H 0.06275 0.12707 0.08149 0.0
H844 H 0.04691 0.10301 0.11285 0.0
H845 H 0.0456 0.12883 0.14719 0.0
H846 H 1.00027 0.13109 0.13937 0.0
H847 H 0.00143 0.10533 0.1049 0.0
H848 H 0.98643 0.131 0.06825 0.0
H849 H 0.02915 0.15342 0.86734 0.0
H850 H 0.03005 0.11429 0.84 0.0
H851 H 0.02542 0.0872 0.02573 0.0
C852 C 0.02289 0.17347 0.08746 0.0
C853 C 0.02229 0.19682 0.06375 0.0
C854 C 0.02363 0.20271 0.00161 0.0
C855 C 0.02563 0.18563 0.96387 0.0
C856 C 0.02613 0.16275 0.98893 0.0
C857 C 0.02476 0.15674 0.04939 0.0
C858 C 0.02478 0.13109 0.06555 0.0
C859 C 0.04629 0.12197 0.10404 0.0
C860 C 0.00186 0.12424 0.09632 0.0
C861 C 0.02637 0.12349 0.00477 0.0
C862 C 0.02722 0.14191 0.96102 0.0
C863 C 0.02849 0.13891 0.90139 0.0
C864 C 0.02885 0.11655 0.88624 0.0
C865 C 0.02785 0.09738 0.93049 0.0
C866 C 0.02662 0.10117 0.9905 0.0
H867 H 0.32552 0.00277 0.04764 0.0
H868 H 0.30205 0.0719 0.07531 0.0
H869 H 0.33119 0.08706 0.00415 0.0
H870 H 0.38461 0.01226 0.05297 0.0
H871 H 0.39353 0.99398 0.99859 0.0
H872 H 0.3677 0.98839 0.04161 0.0
H873 H 0.34302 0.99015 0.94546 0.0
H874 H 0.36885 0.99567 0.90201 0.0
H875 H 0.34323 0.01508 0.8908 0.0
H876 H 0.36573 0.09486 0.93898 0.0
H877 H 0.40328 0.09475 0.88726 0.0
H878 H 0.40729 0.02048 0.91075 0.0
C879 C 0.32621 0.02113 0.03865 0.0
C880 C 0.31114 0.03601 0.0677 0.0
C881 C 0.31276 0.05995 0.05318 0.0
C882 C 0.32948 0.06881 0.01293 0.0
C883 C 0.34466 0.0536 0.98747 0.0
C884 C 0.34317 0.03026 0.99968 0.0
C885 C 0.36322 0.01758 0.97173 0.0
C886 C 0.37814 0.00215 0.01905 0.0
C887 C 0.35402 0.00381 0.9247 0.0
C888 C 0.37664 0.03746 0.94353 0.0
C889 C 0.36534 0.05807 0.9521 0.0
C890 C 0.37469 0.07881 0.93191 0.0
C891 C 0.39629 0.07852 0.90296 0.0
C892 C 0.40873 0.0576 0.89519 0.0
C893 C 0.39839 0.03682 0.91517 0.0
H894 H 0.47386 0.36293 0.02142 0.0
H895 H 0.54738 0.35048 0.07051 0.0
H896 H 0.55647 0.38576 0.00725 0.0
H897 H 0.48321 0.38901 0.86725 0.0
H898 H 0.45868 0.40952 0.86899 0.0
H899 H 0.45834 0.38192 0.91296 0.0
H900 H 0.45098 0.40174 0.00674 0.0
H901 H 0.45166 0.42937 0.96327 0.0
H902 H 0.47116 0.42195 0.02597 0.0
H903 H 0.55715 0.42436 0.9478 0.0
H904 H 0.54993 0.46189 0.88757 0.0
H905 H 0.47597 0.44973 0.87655 0.0
C906 C 0.49194 0.3674 0.01806 0.0
C907 C 0.50991 0.35371 0.05077 0.0
C908 C 0.53334 0.36028 0.04506 0.0
C909 C 0.53867 0.38047 0.00964 0.0
C910 C 0.52045 0.39393 0.97979 0.0
C911 C 0.4976 0.38753 0.9828 0.0
C912 C 0.48118 0.40555 0.948 0.0
C913 C 0.46968 0.39592 0.89622 0.0
C914 C 0.46266 0.41522 0.98842 0.0
C915 C 0.49831 0.42328 0.92608 0.0
C916 C 0.52086 0.41621 0.94498 0.0
C917 C 0.53961 0.42996 0.93212 0.0
C918 C 0.53528 0.45134 0.89814 0.0
C919 C 0.51239 0.4588 0.87714 0.0
C920 C 0.49368 0.44454 0.89174 0.0
H921 H 0.15216 0.43816 0.00793 0.0
H922 H 0.1801 0.50533 0.99588 0.0
H923 H 0.1484 0.5208 0.92682 0.0
H924 H 0.12775 0.44408 0.85212 0.0
H925 H 0.10224 0.42911 0.87643 0.0
H926 H 0.12985 0.42206 0.91482 0.0
H927 H 0.11 0.42936 0.01316 0.0
H928 H 0.08247 0.43678 0.97512 0.0
H929 H 0.09487 0.45667 0.01829 0.0
H930 H 0.11025 0.53082 0.87588 0.0
H931 H 0.06975 0.53392 0.83738 0.0
H932 H 0.06541 0.46065 0.88132 0.0
C933 C 0.15201 0.456 0.98955 0.0
C934 C 0.16888 0.47042 0.00747 0.0
C935 C 0.16789 0.49368 0.9822 0.0
C936 C 0.14974 0.50275 0.94315 0.0
C937 C 0.13273 0.48836 0.92918 0.0
C938 C 0.13388 0.46538 0.95068 0.0
C939 C 0.11212 0.45419 0.93327 0.0
C940 C 0.11837 0.4363 0.89167 0.0
C941 C 0.09911 0.44364 0.98823 0.0
C942 C 0.09814 0.4747 0.90098 0.0
C943 C 0.1105 0.49418 0.89881 0.0
C944 C 0.1006 0.51561 0.87607 0.0
C945 C 0.0775 0.51722 0.85479 0.0
C946 C 0.06449 0.49751 0.85611 0.0
C947 C 0.07509 0.47593 0.8789 0.0
H948 H 0.9897 0.86962 0.4001 0.0
H949 H 0.98699 0.81642 0.54958 0.0
H950 H 0.98478 0.84599 0.61763 0.0
H951 H 0.02585 0.90555 0.46881 0.0
H952 H 0.01127 0.93171 0.43367 0.0
H953 H 0.01185 0.90635 0.39755 0.0
H954 H 0.9665 0.90952 0.39002 0.0
H955 H 0.96578 0.93493 0.42603 0.0
H956 H 0.94951 0.91099 0.45608 0.0
H957 H 0.98309 0.8822 0.66913 0.0
H958 H 0.98267 0.92097 0.69885 0.0
H959 H 0.98748 0.9495 0.51422 0.0
C960 C 0.98822 0.86413 0.44707 0.0
C961 C 0.98821 0.84067 0.46944 0.0
C962 C 0.987 0.83428 0.53142 0.0
C963 C 0.98566 0.85096 0.57034 0.0
C964 C 0.98572 0.87395 0.54661 0.0
C965 C 0.98701 0.88047 0.48632 0.0
C966 C 0.98747 0.90614 0.47166 0.0
C967 C 0.01048 0.91282 0.44114 0.0
C968 C 0.96604 0.91597 0.43371 0.0
C969 C 0.98616 0.91317 0.5331 0.0
C970 C 0.98511 0.89446 0.57588 0.0
C971 C 0.98394 0.89694 0.63586 0.0
C972 C 0.98384 0.91909 0.65237 0.0
C973 C 0.98498 0.93854 0.6091 0.0
C974 C 0.98618 0.93527 0.54872 0.0
H975 H 0.67806 0.95744 0.45968 0.0
H976 H 0.70894 0.01873 0.50211 0.0
H977 H 0.6796 0.02198 0.58019 0.0
H978 H 0.62051 0.97821 0.46795 0.0
H979 H 0.6092 0.95149 0.499 0.0
H980 H 0.635 0.95152 0.45406 0.0
H981 H 0.65817 0.92641 0.539 0.0
H982 H 0.63234 0.92612 0.58415 0.0
H983 H 0.6592 0.9357 0.61119 0.0
H984 H 0.64382 0.02123 0.64544 0.0
H985 H 0.60565 0.01593 0.69375 0.0
H986 H 0.59688 0.95655 0.60384 0.0
C987 C 0.67896 0.97138 0.48593 0.0
C988 C 0.69599 0.9878 0.4745 0.0
C989 C 0.69647 0.00564 0.51043 0.0
C990 C 0.67971 0.00774 0.55472 0.0
C991 C 0.66258 0.99183 0.56286 0.0
C992 C 0.66223 0.97386 0.52975 0.0
C993 C 0.64087 0.96019 0.54344 0.0
C994 C 0.62549 0.96038 0.48781 0.0
C995 C 0.64808 0.93565 0.5711 0.0
C996 C 0.62884 0.97366 0.58817 0.0
C997 C 0.64177 0.99167 0.59938 0.0
C998 C 0.63367 0.00706 0.63726 0.0
C999 C 0.61179 0.00403 0.66409 0.0
C1000 C 0.59804 0.98586 0.65262 0.0
C1001 C 0.60697 0.97041 0.61446 0.0
H1002 H 0.53236 0.66879 0.49449 0.0
H1003 H 0.45801 0.68244 0.45665 0.0
H1004 H 0.44963 0.6474 0.52186 0.0
H1005 H 0.53342 0.60982 0.49067 0.0
H1006 H 0.55428 0.60209 0.55038 0.0
H1007 H 0.5546 0.62967 0.50647 0.0
H1008 H 0.55013 0.64963 0.60088 0.0
H1009 H 0.55017 0.62208 0.64524 0.0
H1010 H 0.52626 0.64299 0.65042 0.0
H1011 H 0.44948 0.60886 0.58131 0.0
H1012 H 0.4572 0.57123 0.64051 0.0
H1013 H 0.53164 0.58215 0.64103 0.0
C1014 C 0.51428 0.66464 0.50079 0.0
C1015 C 0.49585 0.67857 0.47062 0.0
C1016 C 0.47243 0.67243 0.48009 0.0
C1017 C 0.46748 0.65238 0.51664 0.0
C1018 C 0.4861 0.63866 0.54386 0.0
C1019 C 0.50901 0.64467 0.53727 0.0
C1020 C 0.52582 0.62641 0.56978 0.0
C1021 C 0.54304 0.61641 0.52674 0.0
C1022 C 0.53886 0.63584 0.61954 0.0
C1023 C 0.5088 0.60899 0.59455 0.0
C1024 C 0.48599 0.61642 0.57893 0.0
C1025 C 0.46724 0.60298 0.59448 0.0
C1026 C 0.47185 0.58153 0.62781 0.0
C1027 C 0.49503 0.57371 0.64558 0.0
C1028 C 0.51372 0.58766 0.62837 0.0
H1029 H 0.85085 0.48717 0.54828 0.0
H1030 H 0.81599 0.55162 0.58037 0.0
H1031 H 0.84911 0.55825 0.64488 0.0
H1032 H 0.8754 0.47129 0.69748 0.0
H1033 H 0.90203 0.45864 0.6703 0.0
H1034 H 0.87496 0.45865 0.62966 0.0
H1035 H 0.89447 0.47877 0.53614 0.0
H1036 H 0.92149 0.47902 0.57662 0.0
H1037 H 0.90791 0.50538 0.5398 0.0
H1038 H 0.88749 0.55865 0.70141 0.0
H1039 H 0.92695 0.55221 0.74747 0.0
H1040 H 0.93555 0.48697 0.67951 0.0
C1041 C 0.84975 0.50242 0.57005 0.0
C1042 C 0.83061 0.51878 0.55952 0.0
C1043 C 0.83044 0.53886 0.5875 0.0
C1044 C 0.84915 0.54273 0.6244 0.0
C1045 C 0.86784 0.52632 0.63307 0.0
C1046 C 0.86814 0.50648 0.607 0.0
C1047 C 0.89056 0.49185 0.62156 0.0
C1048 C 0.88542 0.46874 0.65686 0.0
C1049 C 0.90442 0.48858 0.56517 0.0
C1050 C 0.90301 0.50665 0.65944 0.0
C1051 C 0.88967 0.52647 0.66568 0.0
C1052 C 0.89797 0.54309 0.6972 0.0
C1053 C 0.92044 0.53932 0.72304 0.0
C1054 C 0.93433 0.51905 0.7173 0.0
C1055 C 0.92534 0.50255 0.68517 0.0
loop_
_geom_bond_atom_site_label_1
_geom_bond_atom_site_label_2
_geom_bond_distance
_geom_bond_site_symmetry_2
_ccdc_geom_bond_type
C0 C1 1.384 . S
C0 H13 0.947 . S
C0 C35 1.382 . S
C1 C0 1.384 . S
C1 C2 1.378 . S
C2 C1 1.378 . S
C2 C3 1.378 . S
C2 H14 0.952 . S
C3 C2 1.378 . S
C3 H15 0.950 . S
C3 C34 1.383 . S
H4 C23 0.947 . S
H5 C24 0.946 . S
H6 C26 0.953 1_556 S
H7 C27 0.945 . S
H8 C29 0.952 . S
H9 C30 0.949 . S
H10 C32 0.950 . S
H11 C33 0.948 . S
H12 C35 0.951 . S
H13 C0 0.947 . S
H14 C2 0.952 . S
H15 C3 0.950 . S
N16 C19 1.382 . S
N16 C21 1.363 . S
N17 C19 1.371 . S
N17 C20 1.372 . S
N18 C20 1.361 . S
N18 C21 1.377 . S
C19 N16 1.382 . S
C19 N17 1.371 . S
C19 C22 1.480 . S
C20 N17 1.372 . S
C20 N18 1.361 . S
C20 C28 1.457 . S
C21 N16 1.363 . S
C21 N18 1.377 . S
C21 C34 1.479 . S
C22 C19 1.480 . S
C22 C23 1.383 . S
C22 C27 1.385 . S
C23 H4 0.947 . S
C23 C22 1.383 . S
C23 C24 1.388 . S
C24 H5 0.946 . S
C24 C23 1.388 . S
C24 C25 1.384 . S
C25 C24 1.384 . S
C25 C26 1.377 . S
C26 H6 0.953 1_554 S
C26 C25 1.377 . S
C26 C27 1.369 . S
C27 H7 0.945 . S
C27 C22 1.385 . S
C27 C26 1.369 . S
C28 C20 1.457 . S
C28 C29 1.372 1_554 S
C28 C33 1.364 . S
C29 H8 0.952 . S
C29 C28 1.372 1_556 S
C29 C30 1.389 . S
C30 H9 0.949 . S
C30 C29 1.389 . S
C30 C31 1.387 . S
C31 C30 1.387 . S
C31 C32 1.372 1_556 S
C32 H10 0.950 . S
C32 C31 1.372 1_554 S
C32 C33 1.379 . S
C33 H11 0.948 . S
C33 C28 1.364 . S
C33 C32 1.379 . S
C34 C3 1.383 . S
C34 C21 1.479 . S
C34 C35 1.398 . S
C35 C0 1.382 . S
C35 H12 0.951 . S
C35 C34 1.398 . S
C36 C37 1.384 1_655 S
C36 H49 0.947 . S
C36 C71 1.382 1_655 S
C37 C36 1.384 1_455 S
C37 C38 1.378 . S
C38 C37 1.378 . S
C38 C39 1.378 . S
C38 H50 0.952 . S
C39 C38 1.378 . S
C39 H51 0.950 . S
C39 C70 1.383 . S
H40 C59 0.947 . S
H41 C60 0.953 . S
H42 C62 0.953 1_556 S
H43 C63 0.945 . S
H44 C65 0.948 1_655 S
H45 C66 0.957 . S
H46 C68 0.950 . S
H47 C69 0.948 . S
H48 C71 0.951 1_655 S
H49 C36 0.947 . S
H50 C38 0.952 . S
H51 C39 0.950 . S
N52 C55 1.382 . S
N52 C57 1.363 . S
N53 C55 1.371 . S
N53 C56 1.372 . S
N54 C56 1.361 . S
N54 C57 1.377 . S
C55 N52 1.382 . S
C55 N53 1.371 . S
C55 C58 1.480 . S
C56 N53 1.372 . S
C56 N54 1.361 . S
C56 C64 1.457 . S
C57 N52 1.363 . S
C57 N54 1.377 . S
C57 C70 1.479 . S
C58 C55 1.480 . S
C58 C59 1.383 . S
C58 C63 1.385 . S
C59 H40 0.947 . S
C59 C58 1.383 . S
C59 C60 1.384 1_455 S
C60 H41 0.953 . S
C60 C59 1.384 1_655 S
C60 C61 1.382 1_655 S
C61 C60 1.382 1_455 S
C61 C62 1.377 . S
C62 H42 0.953 1_554 S
C62 C61 1.377 . S
C62 C63 1.369 . S
C63 H43 0.945 . S
C63 C58 1.385 . S
C63 C62 1.369 . S
C64 C56 1.457 . S
C64 C65 1.377 1_554 S
C64 C69 1.364 . S
C65 H44 0.948 1_455 S
C65 C64 1.377 1_556 S
C65 C66 1.390 1_455 S
C66 H45 0.957 . S
C66 C65 1.390 1_655 S
C66 C67 1.380 1_655 S
C67 C66 1.380 1_455 S
C67 C68 1.372 1_556 S
C68 H46 0.950 . S
C68 C67 1.372 1_554 S
C68 C69 1.379 . S
C69 H47 0.948 . S
C69 C64 1.364 . S
C69 C68 1.379 . S
C70 C39 1.383 . S
C70 C57 1.479 . S
C70 C71 1.398 . S
C71 C36 1.382 1_455 S
C71 H48 0.951 1_455 S
C71 C70 1.398 . S
C72 C73 1.384 . S
C72 H85 0.947 . S
C72 C107 1.382 . S
C73 C72 1.384 . S
C73 C74 1.378 . S
C74 C73 1.378 . S
C74 C75 1.378 . S
C74 H86 0.952 . S
C75 C74 1.378 . S
C75 H87 0.950 . S
C75 C106 1.383 . S
H76 C95 0.947 . S
H77 C96 0.946 . S
H78 C98 0.953 1_556 S
H79 C99 0.945 1_556 S
H80 C101 0.952 . S
H81 C102 0.949 . S
H82 C104 0.950 . S
H83 C105 0.948 . S
H84 C107 0.951 . S
H85 C72 0.947 . S
H86 C74 0.952 . S
H87 C75 0.950 . S
N88 C91 1.382 . S
N88 C93 1.363 . S
N89 C91 1.371 . S
N89 C92 1.372 . S
N90 C92 1.361 . S
N90 C93 1.377 . S
C91 N88 1.382 . S
C91 N89 1.371 . S
C91 C94 1.480 . S
C92 N89 1.372 . S
C92 N90 1.361 . S
C92 C100 1.457 . S
C93 N88 1.363 . S
C93 N90 1.377 . S
C93 C106 1.479 . S
C94 C91 1.480 . S
C94 C95 1.383 . S
C94 C99 1.385 . S
C95 H76 0.947 . S
C95 C94 1.383 . S
C95 C96 1.388 . S
C96 H77 0.946 . S
C96 C95 1.388 . S
C96 C97 1.384 . S
C97 C96 1.384 . S
C97 C98 1.377 . S
C98 H78 0.953 1_554 S
C98 C97 1.377 . S
C98 C99 1.369 . S
C99 H79 0.945 1_554 S
C99 C94 1.385 . S
C99 C98 1.369 . S
C100 C92 1.457 . S
C100 C101 1.372 1_554 S
C100 C105 1.364 . S
C101 H80 0.952 . S
C101 C100 1.372 1_556 S
C101 C102 1.389 . S
C102 H81 0.949 . S
C102 C101 1.389 . S
C102 C103 1.387 . S
C103 C102 1.387 . S
C103 C104 1.372 . S
C104 H82 0.950 . S
C104 C103 1.372 . S
C104 C105 1.379 1_556 S
C105 H83 0.948 . S
C105 C100 1.364 . S
C105 C104 1.379 1_554 S
C106 C75 1.383 . S
C106 C93 1.479 . S
C106 C107 1.398 . S
C107 C72 1.382 . S
C107 H84 0.951 . S
C107 C106 1.398 . S
C108 C109 1.384 1_554 S
C108 H121 0.947 . S
C108 C143 1.382 . S
C109 C108 1.384 1_556 S
C109 C110 1.378 . S
C110 C109 1.378 . S
C110 C111 1.378 . S
C110 H122 0.952 . S
C111 C110 1.378 . S
C111 H123 0.950 . S
C111 C142 1.383 1_556 S
H112 C131 0.947 . S
H113 C132 0.946 1_556 S
H114 C134 0.953 . S
H115 C135 0.945 . S
H116 C137 0.952 . S
H117 C138 0.949 . S
H118 C140 0.950 . S
H119 C141 0.948 . S
H120 C143 0.951 . S
H121 C108 0.947 . S
H122 C110 0.952 . S
H123 C111 0.950 . S
N124 C127 1.382 . S
N124 C129 1.363 . S
N125 C127 1.371 . S
N125 C128 1.372 . S
N126 C128 1.361 . S
N126 C129 1.377 . S
C127 N124 1.382 . S
C127 N125 1.371 . S
C127 C130 1.480 . S
C128 N125 1.372 . S
C128 N126 1.361 . S
C128 C136 1.457 . S
C129 N124 1.363 . S
C129 N126 1.377 . S
C129 C142 1.479 . S
C130 C127 1.480 . S
C130 C131 1.383 . S
C130 C135 1.385 . S
C131 H112 0.947 . S
C131 C130 1.383 . S
C131 C132 1.388 . S
C132 H113 0.946 1_554 S
C132 C131 1.388 . S
C132 C133 1.384 . S
C133 C132 1.384 . S
C133 C134 1.377 . S
C134 H114 0.953 . S
C134 C133 1.377 . S
C134 C135 1.369 . S
C135 H115 0.945 . S
C135 C130 1.385 . S
C135 C134 1.369 . S
C136 C128 1.457 . S
C136 C137 1.372 . S
C136 C141 1.364 . S
C137 H116 0.952 . S
C137 C136 1.372 . S
C137 C138 1.389 . S
C138 H117 0.949 . S
C138 C137 1.389 . S
C138 C139 1.387 . S
C139 C138 1.387 . S
C139 C140 1.372 . S
C140 H118 0.950 . S
C140 C139 1.372 . S
C140 C141 1.379 . S
C141 H119 0.948 . S
C141 C136 1.364 . S
C141 C140 1.379 . S
C142 C111 1.383 1_554 S
C142 C129 1.479 . S
C142 C143 1.398 . S
C143 C108 1.382 . S
C143 H120 0.951 . S
C143 C142 1.398 . S
C144 C145 1.384 . S
C144 H157 0.947 . S
C144 C179 1.382 . S
C145 C144 1.384 . S
C145 C146 1.378 . S
C146 C145 1.378 . S
C146 C147 1.378 . S
C146 H158 0.952 . S
C147 C146 1.378 . S
C147 H159 0.950 . S
C147 C178 1.383 . S
H148 C167 0.947 . S
H149 C168 0.946 . S
H150 C170 0.953 . S
H151 C171 0.945 . S
H152 C173 0.952 . S
H153 C174 0.949 . S
H154 C176 0.950 . S
H155 C177 0.948 . S
H156 C179 0.951 . S
H157 C144 0.947 . S
H158 C146 0.952 . S
H159 C147 0.950 . S
N160 C163 1.382 . S
N160 C165 1.363 . S
N161 C163 1.371 . S
N161 C164 1.372 . S
N162 C164 1.361 . S
N162 C165 1.377 . S
C163 N160 1.382 . S
C163 N161 1.371 . S
C163 C166 1.480 . S
C164 N161 1.372 . S
C164 N162 1.361 . S
C164 C172 1.457 . S
C165 N160 1.363 . S
C165 N162 1.377 . S
C165 C178 1.479 . S
C166 C163 1.480 . S
C166 C167 1.383 . S
C166 C171 1.385 . S
C167 H148 0.947 . S
C167 C166 1.383 . S
C167 C168 1.388 . S
C168 H149 0.946 . S
C168 C167 1.388 . S
C168 C169 1.384 . S
C169 C168 1.384 . S
C169 C170 1.377 . S
C170 H150 0.953 . S
C170 C169 1.377 . S
C170 C171 1.369 . S
C171 H151 0.945 . S
C171 C166 1.385 . S
C171 C170 1.369 . S
C172 C164 1.457 . S
C172 C173 1.372 . S
C172 C177 1.364 . S
C173 H152 0.952 . S
C173 C172 1.372 . S
C173 C174 1.389 . S
C174 H153 0.949 . S
C174 C173 1.389 . S
C174 C175 1.387 . S
C175 C174 1.387 . S
C175 C176 1.372 . S
C176 H154 0.950 . S
C176 C175 1.372 . S
C176 C177 1.379 . S
C177 H155 0.948 . S
C177 C172 1.364 . S
C177 C176 1.379 . S
C178 C147 1.383 . S
C178 C165 1.479 . S
C178 C179 1.398 . S
C179 C144 1.382 . S
C179 H156 0.951 . S
C179 C178 1.398 . S
C180 C181 1.383 . S
C180 H193 0.948 1_455 S
C180 C215 1.382 . S
C181 C180 1.383 . S
C181 C182 1.378 . S
C182 C181 1.378 . S
C182 C183 1.378 . S
C182 H194 0.952 . S
C183 C182 1.378 . S
C183 H195 0.950 . S
C183 C214 1.383 . S
H184 C203 0.947 . S
H185 C204 0.948 . S
H186 C206 0.953 . S
H187 C207 0.945 . S
H188 C209 0.949 1_655 S
H189 C210 0.954 . S
H190 C212 0.950 . S
H191 C213 0.948 . S
H192 C215 0.950 1_655 S
H193 C180 0.948 1_655 S
H194 C182 0.952 . S
H195 C183 0.950 . S
N196 C199 1.382 . S
N196 C201 1.363 . S
N197 C199 1.371 . S
N197 C200 1.372 . S
N198 C200 1.361 . S
N198 C201 1.377 . S
C199 N196 1.382 . S
C199 N197 1.371 . S
C199 C202 1.480 . S
C200 N197 1.372 . S
C200 N198 1.361 . S
C200 C208 1.457 . S
C201 N196 1.363 . S
C201 N198 1.377 . S
C201 C214 1.479 . S
C202 C199 1.480 . S
C202 C203 1.383 . S
C202 C207 1.385 . S
C203 H184 0.947 . S
C203 C202 1.383 . S
C203 C204 1.388 1_455 S
C204 H185 0.948 . S
C204 C203 1.388 1_655 S
C204 C205 1.382 1_655 S
C205 C204 1.382 1_455 S
C205 C206 1.377 . S
C206 H186 0.953 . S
C206 C205 1.377 . S
C206 C207 1.369 . S
C207 H187 0.945 . S
C207 C202 1.385 . S
C207 C206 1.369 . S
C208 C200 1.457 . S
C208 C209 1.379 . S
C208 C213 1.364 . S
C209 H188 0.949 1_455 S
C209 C208 1.379 . S
C209 C210 1.383 1_455 S
C210 H189 0.954 . S
C210 C209 1.383 1_655 S
C210 C211 1.385 1_655 S
C211 C210 1.385 1_455 S
C211 C212 1.372 . S
C212 H190 0.950 . S
C212 C211 1.372 . S
C212 C213 1.379 . S
C213 H191 0.948 . S
C213 C208 1.364 . S
C213 C212 1.379 . S
C214 C183 1.383 . S
C214 C201 1.479 . S
C214 C215 1.400 . S
C215 C180 1.382 . S
C215 H192 0.950 1_455 S
C215 C214 1.400 . S
C216 C217 1.384 . S
C216 H229 0.947 . S
C216 C251 1.382 . S
C217 C216 1.384 . S
C217 C218 1.378 . S
C218 C217 1.378 . S
C218 C219 1.378 . S
C218 H230 0.952 . S
C219 C218 1.378 . S
C219 H231 0.950 . S
C219 C250 1.383 . S
H220 C239 0.947 . S
H221 C240 0.946 . S
H222 C242 0.953 . S
H223 C243 0.945 . S
H224 C245 0.952 . S
H225 C246 0.949 . S
H226 C248 0.950 . S
H227 C249 0.948 . S
H228 C251 0.951 . S
H229 C216 0.947 . S
H230 C218 0.952 . S
H231 C219 0.950 . S
N232 C235 1.382 . S
N232 C237 1.363 . S
N233 C235 1.371 . S
N233 C236 1.372 . S
N234 C236 1.361 . S
N234 C237 1.377 . S
C235 N232 1.382 . S
C235 N233 1.371 . S
C235 C238 1.480 . S
C236 N233 1.372 . S
C236 N234 1.361 . S
C236 C244 1.457 . S
C237 N232 1.363 . S
C237 N234 1.377 . S
C237 C250 1.479 . S
C238 C235 1.480 . S
C238 C239 1.383 . S
C238 C243 1.385 . S
C239 H220 0.947 . S
C239 C238 1.383 . S
C239 C240 1.388 . S
C240 H221 0.946 . S
C240 C239 1.388 . S
C240 C241 1.384 . S
C241 C240 1.384 . S
C241 C242 1.377 . S
C242 H222 0.953 . S
C242 C241 1.377 . S
C242 C243 1.369 . S
C243 H223 0.945 . S
C243 C238 1.385 . S
C243 C242 1.369 . S
C244 C236 1.457 . S
C244 C245 1.372 . S
C244 C249 1.364 . S
C245 H224 0.952 . S
C245 C244 1.372 . S
C245 C246 1.389 . S
C246 H225 0.949 . S
C246 C245 1.389 . S
C246 C247 1.387 . S
C247 C246 1.387 . S
C247 C248 1.372 . S
C248 H226 0.950 . S
C248 C247 1.372 . S
C248 C249 1.379 . S
C249 H227 0.948 . S
C249 C244 1.364 . S
C249 C248 1.379 . S
C250 C219 1.383 . S
C250 C237 1.479 . S
C250 C251 1.398 . S
C251 C216 1.382 . S
C251 H228 0.951 . S
C251 C250 1.398 . S
C252 C253 1.384 . S
C252 H265 0.947 . S
C252 C287 1.382 . S
C253 C252 1.384 . S
C253 C254 1.378 . S
C254 C253 1.378 . S
C254 C255 1.378 . S
C254 H266 0.952 . S
C255 C254 1.378 . S
C255 H267 0.950 . S
C255 C286 1.383 . S
H256 C275 0.947 . S
H257 C276 0.946 . S
H258 C278 0.953 . S
H259 C279 0.945 . S
H260 C281 0.952 . S
H261 C282 0.949 . S
H262 C284 0.950 . S
H263 C285 0.948 . S
H264 C287 0.951 . S
H265 C252 0.947 . S
H266 C254 0.952 . S
H267 C255 0.950 . S
N268 C271 1.382 . S
N268 C273 1.363 . S
N269 C271 1.371 . S
N269 C272 1.372 . S
N270 C272 1.361 . S
N270 C273 1.377 . S
C271 N268 1.382 . S
C271 N269 1.371 . S
C271 C274 1.480 . S
C272 N269 1.372 . S
C272 N270 1.361 . S
C272 C280 1.457 . S
C273 N268 1.363 . S
C273 N270 1.377 . S
C273 C286 1.479 . S
C274 C271 1.480 . S
C274 C275 1.383 . S
C274 C279 1.385 . S
C275 H256 0.947 . S
C275 C274 1.383 . S
C275 C276 1.388 . S
C276 H257 0.946 . S
C276 C275 1.388 . S
C276 C277 1.384 . S
C277 C276 1.384 . S
C277 C278 1.377 . S
C278 H258 0.953 . S
C278 C277 1.377 . S
C278 C279 1.369 . S
C279 H259 0.945 . S
C279 C274 1.385 . S
C279 C278 1.369 . S
C280 C272 1.457 . S
C280 C281 1.372 . S
C280 C285 1.364 . S
C281 H260 0.952 . S
C281 C280 1.372 . S
C281 C282 1.389 . S
C282 H261 0.949 . S
C282 C281 1.389 . S
C282 C283 1.387 . S
C283 C282 1.387 . S
C283 C284 1.372 . S
C284 H262 0.950 . S
C284 C283 1.372 . S
C284 C285 1.379 . S
C285 H263 0.948 . S
C285 C280 1.364 . S
C285 C284 1.379 . S
C286 C255 1.383 . S
C286 C273 1.479 . S
C286 C287 1.398 . S
C287 C252 1.382 . S
C287 H264 0.951 . S
C287 C286 1.398 . S
Co288 N293 2.057 . S
Co288 O305 2.021 . S
Co288 O308 2.062 1_455 S
Co288 O312 2.117 1_455 S
Co288 O313 2.020 1_545 S
C289 O309 1.259 1_545 S
C289 O312 1.258 . S
Co290 N299 2.057 . S
Co290 O306 2.117 1_665 S
Co290 O307 2.020 1_565 S
Co290 O309 2.021 . S
Co290 O314 2.062 1_655 S
C291 N293 1.316 . S
C291 N294 1.347 . S
C291 H296 0.931 . S
C292 N293 1.375 1_655 S
C292 C295 1.350 . S
C292 H297 0.930 . S
N293 Co288 2.057 . S
N293 C291 1.316 . S
N293 C292 1.375 1_455 S
N294 C291 1.347 . S
N294 C295 1.373 1_455 S
C295 C292 1.350 . S
C295 N294 1.373 1_655 S
C295 H316 0.931 . S
H296 C291 0.931 . S
H297 C292 0.930 . S
C298 O305 1.259 . S
C298 O306 1.258 . S
N299 Co290 2.057 . S
N299 C300 1.316 . S
N299 C301 1.375 1_655 S
C300 N299 1.316 . S
C300 N302 1.347 . S
C300 H311 0.931 . S
C301 N299 1.375 1_455 S
C301 C303 1.350 . S
C301 H310 0.930 . S
N302 C300 1.347 . S
N302 C303 1.373 1_655 S
C303 C301 1.350 . S
C303 N302 1.373 1_455 S
C303 H317 0.931 . S
C304 O307 1.256 . S
C304 O308 1.255 . S
O305 Co288 2.021 . S
O305 C298 1.259 . S
O306 Co290 2.117 1_445 S
O306 C298 1.258 . S
O307 Co290 2.020 1_545 S
O307 C304 1.256 . S
O308 Co288 2.062 1_655 S
O308 C304 1.255 . S
O309 C289 1.259 1_565 S
O309 Co290 2.021 . S
H310 C301 0.930 . S
H311 C300 0.931 . S
O312 Co288 2.117 1_655 S
O312 C289 1.258 . S
O313 Co288 2.020 1_565 S
O313 C315 1.256 . S
O314 Co290 2.062 1_455 S
O314 C315 1.255 . S
C315 O313 1.256 . S
C315 O314 1.255 . S
H316 C295 0.931 . S
H317 C303 0.931 . S
Co318 N323 2.057 . S
Co318 O335 2.021 . S
Co318 O338 2.062 . S
Co318 O342 2.117 1_545 S
Co318 O343 2.020 . S
C319 O339 1.259 . S
C319 O342 1.258 . S
Co320 N329 2.054 1_545 S
Co320 O336 2.139 . S
Co320 O337 2.022 . S
Co320 O339 2.000 1_545 S
Co320 O344 2.062 1_545 S
C321 N323 1.316 . S
C321 N324 1.347 . S
C321 H326 0.931 . S
C322 N323 1.375 . S
C322 C325 1.350 . S
C322 H327 0.930 1_545 S
N323 Co318 2.057 . S
N323 C321 1.316 . S
N323 C322 1.375 . S
N324 C321 1.347 . S
N324 C325 1.373 . S
C325 C322 1.350 . S
C325 N324 1.373 . S
C325 H346 0.931 1_556 S
H326 C321 0.931 . S
H327 C322 0.930 1_565 S
C328 O335 1.259 . S
C328 O336 1.258 . S
N329 Co320 2.054 1_565 S
N329 C330 1.316 . S
N329 C331 1.375 1_565 S
C330 N329 1.316 . S
C330 N332 1.347 . S
C330 H341 0.931 . S
C331 N329 1.375 1_545 S
C331 C333 1.350 . S
C331 H340 0.930 . S
N332 C330 1.347 . S
N332 C333 1.373 1_565 S
C333 C331 1.350 . S
C333 N332 1.373 1_545 S
C333 H347 0.931 . S
C334 O337 1.256 . S
C334 O338 1.255 . S
O335 Co318 2.021 . S
O335 C328 1.259 . S
O336 Co320 2.139 . S
O336 C328 1.258 . S
O337 Co320 2.022 . S
O337 C334 1.256 . S
O338 Co318 2.062 . S
O338 C334 1.255 . S
O339 C319 1.259 . S
O339 Co320 2.000 1_565 S
H340 C331 0.930 . S
H341 C330 0.931 . S
O342 Co318 2.117 1_565 S
O342 C319 1.258 . S
O343 Co318 2.020 . S
O343 C345 1.256 . S
O344 Co320 2.062 1_565 S
O344 C345 1.255 1_565 S
C345 O343 1.256 . S
C345 O344 1.255 1_545 S
H346 C325 0.931 1_554 S
H347 C333 0.931 . S
Co348 N353 2.057 . S
Co348 O365 2.021 . S
Co348 O368 2.062 . S
Co348 O372 2.117 . S
Co348 O373 2.020 . S
C349 O369 1.259 . S
C349 O372 1.258 . S
Co350 N359 2.057 . S
Co350 O366 2.117 . S
Co350 O367 2.020 . S
Co350 O369 2.021 . S
Co350 O374 2.062 . S
C351 N353 1.316 . S
C351 N354 1.347 . S
C351 H356 0.931 . S
C352 N353 1.375 . S
C352 C355 1.350 . S
C352 H357 0.930 . S
N353 Co348 2.057 . S
N353 C351 1.316 . S
N353 C352 1.375 . S
N354 C351 1.347 . S
N354 C355 1.373 . S
C355 C352 1.350 . S
C355 N354 1.373 . S
C355 H376 0.931 . S
H356 C351 0.931 . S
H357 C352 0.930 . S
C358 O365 1.259 . S
C358 O366 1.258 . S
N359 Co350 2.057 . S
N359 C360 1.316 . S
N359 C361 1.375 . S
C360 N359 1.316 . S
C360 N362 1.347 . S
C360 H371 0.931 . S
C361 N359 1.375 . S
C361 C363 1.350 . S
C361 H370 0.930 . S
N362 C360 1.347 . S
N362 C363 1.373 . S
C363 C361 1.350 . S
C363 N362 1.373 . S
C363 H377 0.931 . S
C364 O367 1.256 . S
C364 O368 1.255 . S
O365 Co348 2.021 . S
O365 C358 1.259 . S
O366 Co350 2.117 . S
O366 C358 1.258 . S
O367 Co350 2.020 . S
O367 C364 1.256 . S
O368 Co348 2.062 . S
O368 C364 1.255 . S
O369 C349 1.259 . S
O369 Co350 2.021 . S
H370 C361 0.930 . S
H371 C360 0.931 . S
O372 Co348 2.117 . S
O372 C349 1.258 . S
O373 Co348 2.020 . S
O373 C375 1.256 . S
O374 Co350 2.062 . S
O374 C375 1.255 . S
C375 O373 1.256 . S
C375 O374 1.255 . S
H376 C355 0.931 . S
H377 C363 0.931 . S
Co378 N383 2.057 . S
Co378 O395 2.021 1_455 S
Co378 O398 2.062 1_455 S
Co378 O402 2.117 . S
Co378 O403 2.020 . S
C379 O399 1.259 . S
C379 O402 1.258 . S
Co380 N389 2.057 . S
Co380 O396 2.117 . S
Co380 O397 2.020 . S
Co380 O399 2.021 1_655 S
Co380 O404 2.062 1_655 S
C381 N383 1.316 . S
C381 N384 1.347 . S
C381 H386 0.931 1_455 S
C382 N383 1.375 . S
C382 C385 1.350 . S
C382 H387 0.930 . S
N383 Co378 2.057 . S
N383 C381 1.316 . S
N383 C382 1.375 . S
N384 C381 1.347 . S
N384 C385 1.373 . S
C385 C382 1.350 . S
C385 N384 1.373 . S
C385 H406 0.931 . S
H386 C381 0.931 1_655 S
H387 C382 0.930 . S
C388 O395 1.259 . S
C388 O396 1.258 . S
N389 Co380 2.057 . S
N389 C390 1.316 . S
N389 C391 1.375 . S
C390 N389 1.316 . S
C390 N392 1.347 . S
C390 H401 0.931 1_655 S
C391 N389 1.375 . S
C391 C393 1.350 . S
C391 H400 0.930 . S
N392 C390 1.347 . S
N392 C393 1.373 . S
C393 C391 1.350 . S
C393 N392 1.373 . S
C393 H407 0.931 . S
C394 O397 1.256 . S
C394 O398 1.255 . S
O395 Co378 2.021 1_655 S
O395 C388 1.259 . S
O396 Co380 2.117 . S
O396 C388 1.258 . S
O397 Co380 2.020 . S
O397 C394 1.256 . S
O398 Co378 2.062 1_655 S
O398 C394 1.255 . S
O399 C379 1.259 . S
O399 Co380 2.021 1_455 S
H400 C391 0.930 . S
H401 C390 0.931 1_455 S
O402 Co378 2.117 . S
O402 C379 1.258 . S
O403 Co378 2.020 . S
O403 C405 1.256 . S
O404 Co380 2.062 1_455 S
O404 C405 1.255 . S
C405 O403 1.256 . S
C405 O404 1.255 . S
H406 C385 0.931 . S
H407 C393 0.931 . S
H408 C420 0.930 . S
H409 C422 0.930 . S
H410 C423 0.930 . S
H411 C427 0.959 . S
H412 C427 0.959 1_565 S
H413 C427 0.961 . S
H414 C428 0.960 . S
H415 C428 0.961 1_565 S
H416 C428 0.959 . S
H417 C431 0.929 . S
H418 C432 0.931 . S
H419 C434 0.930 . S
C420 H408 0.930 . S
C420 C421 1.399 . S
C420 C425 1.399 . S
C421 C420 1.399 . S
C421 C422 1.376 . S
C422 H409 0.930 . S
C422 C421 1.376 . S
C422 C423 1.388 . S
C423 H410 0.930 . S
C423 C422 1.388 . S
C423 C424 1.390 . S
C424 C423 1.390 . S
C424 C425 1.394 . S
C424 C430 1.465 . S
C425 C420 1.399 . S
C425 C424 1.394 . S
C425 C426 1.516 . S
C426 C425 1.516 . S
C426 C427 1.502 . S
C426 C428 1.561 . S
C426 C429 1.526 . S
C427 H411 0.959 . S
C427 H412 0.959 1_545 S
C427 H413 0.961 . S
C427 C426 1.502 . S
C428 H414 0.960 . S
C428 H415 0.961 1_545 S
C428 H416 0.959 . S
C428 C426 1.561 . S
C429 C426 1.526 . S
C429 C430 1.396 . S
C429 C434 1.390 . S
C430 C424 1.465 . S
C430 C429 1.396 . S
C430 C431 1.399 . S
C431 H417 0.929 . S
C431 C430 1.399 . S
C431 C432 1.385 . S
C432 H418 0.931 . S
C432 C431 1.385 . S
C432 C433 1.389 . S
C433 C432 1.389 . S
C433 C434 1.387 . S
C434 H419 0.930 . S
C434 C429 1.390 . S
C434 C433 1.387 . S
H435 C447 0.930 . S
H436 C449 0.930 . S
H437 C450 0.930 . S
H438 C454 0.959 . S
H439 C454 0.959 . S
H440 C454 0.961 . S
H441 C455 0.960 . S
H442 C455 0.961 . S
H443 C455 0.959 . S
H444 C458 0.929 . S
H445 C459 0.931 . S
H446 C461 0.930 . S
C447 H435 0.930 . S
C447 C448 1.399 . S
C447 C452 1.399 . S
C448 C447 1.399 . S
C448 C449 1.376 . S
C449 H436 0.930 . S
C449 C448 1.376 . S
C449 C450 1.388 . S
C450 H437 0.930 . S
C450 C449 1.388 . S
C450 C451 1.390 . S
C451 C450 1.390 . S
C451 C452 1.394 . S
C451 C457 1.465 . S
C452 C447 1.399 . S
C452 C451 1.394 . S
C452 C453 1.516 . S
C453 C452 1.516 . S
C453 C454 1.502 . S
C453 C455 1.561 . S
C453 C456 1.526 . S
C454 H438 0.959 . S
C454 H439 0.959 . S
C454 H440 0.961 . S
C454 C453 1.502 . S
C455 H441 0.960 . S
C455 H442 0.961 . S
C455 H443 0.959 . S
C455 C453 1.561 . S
C456 C453 1.526 . S
C456 C457 1.396 . S
C456 C461 1.390 . S
C457 C451 1.465 . S
C457 C456 1.396 . S
C457 C458 1.399 . S
C458 H444 0.929 . S
C458 C457 1.399 . S
C458 C459 1.385 . S
C459 H445 0.931 . S
C459 C458 1.385 . S
C459 C460 1.389 . S
C460 C459 1.389 . S
C460 C461 1.387 . S
C461 H446 0.930 . S
C461 C456 1.390 . S
C461 C460 1.387 . S
H462 C474 0.930 . S
H463 C476 0.930 . S
H464 C477 0.930 . S
H465 C481 0.959 . S
H466 C481 0.959 . S
H467 C481 0.961 . S
H468 C482 0.960 . S
H469 C482 0.961 . S
H470 C482 0.959 . S
H471 C485 0.929 . S
H472 C486 0.931 . S
H473 C488 0.930 . S
C474 H462 0.930 . S
C474 C475 1.399 . S
C474 C479 1.399 . S
C475 C474 1.399 . S
C475 C476 1.376 . S
C476 H463 0.930 . S
C476 C475 1.376 . S
C476 C477 1.388 . S
C477 H464 0.930 . S
C477 C476 1.388 . S
C477 C478 1.390 . S
C478 C477 1.390 . S
C478 C479 1.394 . S
C478 C484 1.465 . S
C479 C474 1.399 . S
C479 C478 1.394 . S
C479 C480 1.516 . S
C480 C479 1.516 . S
C480 C481 1.502 . S
C480 C482 1.561 . S
C480 C483 1.526 . S
C481 H465 0.959 . S
C481 H466 0.959 . S
C481 H467 0.961 . S
C481 C480 1.502 . S
C482 H468 0.960 . S
C482 H469 0.961 . S
C482 H470 0.959 . S
C482 C480 1.561 . S
C483 C480 1.526 . S
C483 C484 1.396 . S
C483 C488 1.390 . S
C484 C478 1.465 . S
C484 C483 1.396 . S
C484 C485 1.399 . S
C485 H471 0.929 . S
C485 C484 1.399 . S
C485 C486 1.385 . S
C486 H472 0.931 . S
C486 C485 1.385 . S
C486 C487 1.389 . S
C487 C486 1.389 . S
C487 C488 1.387 . S
C488 H473 0.930 . S
C488 C483 1.390 . S
C488 C487 1.387 . S
H489 C501 0.930 1_455 S
H490 C503 0.930 . S
H491 C504 0.930 . S
H492 C508 0.959 . S
H493 C508 0.959 . S
H494 C508 0.961 . S
H495 C509 0.960 . S
H496 C509 0.961 . S
H497 C509 0.959 . S
H498 C512 0.929 . S
H499 C513 0.931 . S
H500 C515 0.930 . S
C501 H489 0.930 1_655 S
C501 C502 1.399 . S
C501 C506 1.399 . S
C502 C501 1.399 . S
C502 C503 1.376 . S
C503 H490 0.930 . S
C503 C502 1.376 . S
C503 C504 1.388 . S
C504 H491 0.930 . S
C504 C503 1.388 . S
C504 C505 1.390 . S
C505 C504 1.390 . S
C505 C506 1.394 . S
C505 C511 1.465 . S
C506 C501 1.399 . S
C506 C505 1.394 . S
C506 C507 1.516 . S
C507 C506 1.516 . S
C507 C508 1.502 1_655 S
C507 C509 1.561 . S
C507 C510 1.526 . S
C508 H492 0.959 . S
C508 H493 0.959 . S
C508 H494 0.961 . S
C508 C507 1.502 1_455 S
C509 H495 0.960 . S
C509 H496 0.961 . S
C509 H497 0.959 . S
C509 C507 1.561 . S
C510 C507 1.526 . S
C510 C511 1.396 . S
C510 C515 1.390 . S
C511 C505 1.465 . S
C511 C510 1.396 . S
C511 C512 1.399 . S
C512 H498 0.929 . S
C512 C511 1.399 . S
C512 C513 1.385 . S
C513 H499 0.931 . S
C513 C512 1.385 . S
C513 C514 1.389 . S
C514 C513 1.389 . S
C514 C515 1.387 . S
C515 H500 0.930 . S
C515 C510 1.390 . S
C515 C514 1.387 . S
H516 C528 0.930 . S
H517 C530 0.930 . S
H518 C531 0.930 . S
H519 C535 0.959 . S
H520 C535 0.959 . S
H521 C535 0.961 1_554 S
H522 C536 0.960 . S
H523 C536 0.961 . S
H524 C536 0.959 . S
H525 C539 0.929 . S
H526 C540 0.931 . S
H527 C542 0.930 1_545 S
C528 H516 0.930 . S
C528 C529 1.399 . S
C528 C533 1.399 1_554 S
C529 C528 1.399 . S
C529 C530 1.376 1_554 S
C530 H517 0.930 . S
C530 C529 1.376 1_556 S
C530 C531 1.388 . S
C531 H518 0.930 . S
C531 C530 1.388 . S
C531 C532 1.390 . S
C532 C531 1.390 . S
C532 C533 1.394 . S
C532 C538 1.465 . S
C533 C528 1.399 1_556 S
C533 C532 1.394 . S
C533 C534 1.516 . S
C534 C533 1.516 . S
C534 C535 1.502 1_565 S
C534 C536 1.561 1_556 S
C534 C537 1.526 . S
C535 H519 0.959 . S
C535 H520 0.959 . S
C535 H521 0.961 1_556 S
C535 C534 1.502 1_545 S
C536 H522 0.960 . S
C536 H523 0.961 . S
C536 H524 0.959 . S
C536 C534 1.561 1_554 S
C537 C534 1.526 . S
C537 C538 1.396 . S
C537 C542 1.390 . S
C538 C532 1.465 . S
C538 C537 1.396 . S
C538 C539 1.399 . S
C539 H525 0.929 . S
C539 C538 1.399 . S
C539 C540 1.385 . S
C540 H526 0.931 . S
C540 C539 1.385 . S
C540 C541 1.389 . S
C541 C540 1.389 . S
C541 C542 1.387 . S
C542 H527 0.930 1_565 S
C542 C537 1.390 . S
C542 C541 1.387 . S
H543 C555 0.930 . S
H544 C557 0.930 . S
H545 C558 0.930 . S
H546 C562 0.959 . S
H547 C562 0.959 . S
H548 C562 0.961 . S
H549 C563 0.960 . S
H550 C563 0.961 . S
H551 C563 0.959 . S
H552 C566 0.929 . S
H553 C567 0.931 . S
H554 C569 0.930 . S
C555 H543 0.930 . S
C555 C556 1.399 1_556 S
C555 C560 1.399 . S
C556 C555 1.399 1_554 S
C556 C557 1.376 . S
C557 H544 0.930 . S
C557 C556 1.376 . S
C557 C558 1.388 . S
C558 H545 0.930 . S
C558 C557 1.388 . S
C558 C559 1.390 1_554 S
C559 C558 1.390 1_556 S
C559 C560 1.394 . S
C559 C565 1.465 . S
C560 C555 1.399 . S
C560 C559 1.394 . S
C560 C561 1.516 . S
C561 C560 1.516 . S
C561 C562 1.502 . S
C561 C563 1.561 . S
C561 C564 1.526 . S
C562 H546 0.959 . S
C562 H547 0.959 . S
C562 H548 0.961 . S
C562 C561 1.502 . S
C563 H549 0.960 . S
C563 H550 0.961 . S
C563 H551 0.959 . S
C563 C561 1.561 . S
C564 C561 1.526 . S
C564 C565 1.396 . S
C564 C569 1.390 . S
C565 C559 1.465 . S
C565 C564 1.396 . S
C565 C566 1.399 . S
C566 H552 0.929 . S
C566 C565 1.399 . S
C566 C567 1.385 . S
C567 H553 0.931 . S
C567 C566 1.385 . S
C567 C568 1.389 . S
C568 C567 1.389 . S
C568 C569 1.387 . S
C569 H554 0.930 . S
C569 C564 1.390 . S
C569 C568 1.387 . S
H570 C582 0.930 . S
H571 C584 0.930 . S
H572 C585 0.930 . S
H573 C589 0.959 . S
H574 C589 0.959 . S
H575 C589 0.961 . S
H576 C590 0.960 . S
H577 C590 0.961 . S
H578 C590 0.959 . S
H579 C593 0.929 . S
H580 C594 0.931 . S
H581 C596 0.930 . S
C582 H570 0.930 . S
C582 C583 1.399 . S
C582 C587 1.399 1_554 S
C583 C582 1.399 . S
C583 C584 1.376 . S
C584 H571 0.930 . S
C584 C583 1.376 . S
C584 C585 1.388 . S
C585 H572 0.930 . S
C585 C584 1.388 . S
C585 C586 1.390 1_554 S
C586 C585 1.390 1_556 S
C586 C587 1.394 . S
C586 C592 1.465 . S
C587 C582 1.399 1_556 S
C587 C586 1.394 . S
C587 C588 1.516 . S
C588 C587 1.516 . S
C588 C589 1.502 . S
C588 C590 1.561 . S
C588 C591 1.526 . S
C589 H573 0.959 . S
C589 H574 0.959 . S
C589 H575 0.961 . S
C589 C588 1.502 . S
C590 H576 0.960 . S
C590 H577 0.961 . S
C590 H578 0.959 . S
C590 C588 1.561 . S
C591 C588 1.526 . S
C591 C592 1.396 . S
C591 C596 1.390 . S
C592 C586 1.465 . S
C592 C591 1.396 . S
C592 C593 1.399 . S
C593 H579 0.929 . S
C593 C592 1.399 . S
C593 C594 1.385 . S
C594 H580 0.931 . S
C594 C593 1.385 . S
C594 C595 1.389 . S
C595 C594 1.389 . S
C595 C596 1.387 . S
C596 H581 0.930 . S
C596 C591 1.390 . S
C596 C595 1.387 . S
H597 C609 0.930 1_556 S
H598 C611 0.930 . S
H599 C612 0.930 . S
H600 C616 0.955 . S
H601 C616 0.959 . S
H602 C616 0.961 . S
H603 C617 0.960 . S
H604 C617 0.961 . S
H605 C617 0.959 . S
H606 C620 0.929 . S
H607 C621 0.935 . S
H608 C623 0.930 . S
C609 H597 0.930 1_554 S
C609 C610 1.418 . S
C609 C614 1.399 1_554 S
C610 C609 1.418 . S
C610 C611 1.358 1_455 S
C611 H598 0.930 . S
C611 C610 1.358 1_655 S
C611 C612 1.388 . S
C612 H599 0.930 . S
C612 C611 1.388 . S
C612 C613 1.390 1_654 S
C613 C612 1.390 1_456 S
C613 C614 1.394 . S
C613 C619 1.465 . S
C614 C609 1.399 1_556 S
C614 C613 1.394 . S
C614 C615 1.516 . S
C615 C614 1.516 . S
C615 C616 1.502 . S
C615 C617 1.561 . S
C615 C618 1.526 . S
C616 H600 0.955 . S
C616 H601 0.959 . S
C616 H602 0.961 . S
C616 C615 1.502 . S
C617 H603 0.960 . S
C617 H604 0.961 . S
C617 H605 0.959 . S
C617 C615 1.561 . S
C618 C615 1.526 . S
C618 C619 1.396 . S
C618 C623 1.390 . S
C619 C613 1.465 . S
C619 C618 1.396 . S
C619 C620 1.399 1_455 S
C620 H606 0.929 . S
C620 C619 1.399 1_655 S
C620 C621 1.387 . S
C621 H607 0.935 . S
C621 C620 1.387 . S
C621 C622 1.383 1_655 S
C622 C621 1.383 1_455 S
C622 C623 1.387 . S
C623 H608 0.930 . S
C623 C618 1.390 . S
C623 C622 1.387 . S
H624 C636 0.930 . S
H625 C638 0.930 . S
H626 C639 0.929 1_655 S
H627 C643 0.959 . S
H628 C643 0.959 . S
H629 C643 0.961 . S
H630 C644 0.960 . S
H631 C644 0.961 . S
H632 C644 0.959 . S
H633 C647 0.929 . S
H634 C648 0.931 . S
H635 C650 0.930 . S
C636 H624 0.930 . S
C636 C637 1.399 . S
C636 C641 1.399 1_455 S
C637 C636 1.399 . S
C637 C638 1.376 . S
C638 H625 0.930 . S
C638 C637 1.376 . S
C638 C639 1.392 . S
C639 H626 0.929 1_455 S
C639 C638 1.392 . S
C639 C640 1.387 1_455 S
C640 C639 1.387 1_655 S
C640 C641 1.394 . S
C640 C646 1.465 . S
C641 C636 1.399 1_655 S
C641 C640 1.394 . S
C641 C642 1.516 . S
C642 C641 1.516 . S
C642 C643 1.502 . S
C642 C644 1.561 1_655 S
C642 C645 1.526 . S
C643 H627 0.959 . S
C643 H628 0.959 . S
C643 H629 0.961 . S
C643 C642 1.502 . S
C644 H630 0.960 . S
C644 H631 0.961 . S
C644 H632 0.959 . S
C644 C642 1.561 1_455 S
C645 C642 1.526 . S
C645 C646 1.396 . S
C645 C650 1.390 . S
C646 C640 1.465 . S
C646 C645 1.396 . S
C646 C647 1.399 . S
C647 H633 0.929 . S
C647 C646 1.399 . S
C647 C648 1.385 . S
C648 H634 0.931 . S
C648 C647 1.385 . S
C648 C649 1.389 . S
C649 C648 1.389 . S
C649 C650 1.387 . S
C650 H635 0.930 . S
C650 C645 1.390 . S
C650 C649 1.387 . S
H651 C663 0.930 . S
H652 C665 0.930 . S
H653 C666 0.930 . S
H654 C670 0.959 . S
H655 C670 0.959 . S
H656 C670 0.961 . S
H657 C671 0.960 . S
H658 C671 0.961 . S
H659 C671 0.959 . S
H660 C674 0.929 . S
H661 C675 0.931 1_565 S
H662 C677 0.930 . S
C663 H651 0.930 . S
C663 C664 1.399 . S
C663 C668 1.399 . S
C664 C663 1.399 . S
C664 C665 1.376 . S
C665 H652 0.930 . S
C665 C664 1.376 . S
C665 C666 1.388 . S
C666 H653 0.930 . S
C666 C665 1.388 . S
C666 C667 1.390 . S
C667 C666 1.390 . S
C667 C668 1.394 . S
C667 C673 1.465 . S
C668 C663 1.399 . S
C668 C667 1.394 . S
C668 C669 1.516 . S
C669 C668 1.516 . S
C669 C670 1.502 . S
C669 C671 1.561 . S
C669 C672 1.526 . S
C670 H654 0.959 . S
C670 H655 0.959 . S
C670 H656 0.961 . S
C670 C669 1.502 . S
C671 H657 0.960 . S
C671 H658 0.961 . S
C671 H659 0.959 . S
C671 C669 1.561 . S
C672 C669 1.526 . S
C672 C673 1.396 . S
C672 C677 1.390 . S
C673 C667 1.465 . S
C673 C672 1.396 . S
C673 C674 1.399 . S
C674 H660 0.929 . S
C674 C673 1.399 . S
C674 C675 1.385 . S
C675 H661 0.931 1_545 S
C675 C674 1.385 . S
C675 C676 1.389 . S
C676 C675 1.389 . S
C676 C677 1.387 . S
C677 H662 0.930 . S
C677 C672 1.390 . S
C677 C676 1.387 . S
H678 C690 0.930 . S
H679 C692 0.930 . S
H680 C693 0.930 . S
H681 C697 0.959 . S
H682 C697 0.959 . S
H683 C697 0.961 . S
H684 C698 0.960 . S
H685 C698 0.961 . S
H686 C698 0.959 . S
H687 C701 0.929 . S
H688 C702 0.931 . S
H689 C704 0.930 . S
C690 H678 0.930 . S
C690 C691 1.399 . S
C690 C695 1.399 . S
C691 C690 1.399 . S
C691 C692 1.376 . S
C692 H679 0.930 . S
C692 C691 1.376 . S
C692 C693 1.388 . S
C693 H680 0.930 . S
C693 C692 1.388 . S
C693 C694 1.390 . S
C694 C693 1.390 . S
C694 C695 1.394 . S
C694 C700 1.465 . S
C695 C690 1.399 . S
C695 C694 1.394 . S
C695 C696 1.516 . S
C696 C695 1.516 . S
C696 C697 1.502 . S
C696 C698 1.561 . S
C696 C699 1.526 . S
C697 H681 0.959 . S
C697 H682 0.959 . S
C697 H683 0.961 . S
C697 C696 1.502 . S
C698 H684 0.960 . S
C698 H685 0.961 . S
C698 H686 0.959 . S
C698 C696 1.561 . S
C699 C696 1.526 . S
C699 C700 1.396 . S
C699 C704 1.390 . S
C700 C694 1.465 . S
C700 C699 1.396 . S
C700 C701 1.399 . S
C701 H687 0.929 . S
C701 C700 1.399 . S
C701 C702 1.385 . S
C702 H688 0.931 . S
C702 C701 1.385 . S
C702 C703 1.389 . S
C703 C702 1.389 . S
C703 C704 1.387 . S
C704 H689 0.930 . S
C704 C699 1.390 . S
C704 C703 1.387 . S
H705 C717 0.930 . S
H706 C719 0.930 . S
H707 C720 0.930 . S
H708 C724 0.959 . S
H709 C724 0.959 . S
H710 C724 0.961 . S
H711 C725 0.960 . S
H712 C725 0.961 . S
H713 C725 0.959 . S
H714 C728 0.929 . S
H715 C729 0.931 . S
H716 C731 0.930 . S
C717 H705 0.930 . S
C717 C718 1.399 . S
C717 C722 1.399 . S
C718 C717 1.399 . S
C718 C719 1.376 . S
C719 H706 0.930 . S
C719 C718 1.376 . S
C719 C720 1.388 . S
C720 H707 0.930 . S
C720 C719 1.388 . S
C720 C721 1.390 . S
C721 C720 1.390 . S
C721 C722 1.394 . S
C721 C727 1.465 . S
C722 C717 1.399 . S
C722 C721 1.394 . S
C722 C723 1.516 . S
C723 C722 1.516 . S
C723 C724 1.502 . S
C723 C725 1.561 . S
C723 C726 1.526 . S
C724 H708 0.959 . S
C724 H709 0.959 . S
C724 H710 0.961 . S
C724 C723 1.502 . S
C725 H711 0.960 . S
C725 H712 0.961 . S
C725 H713 0.959 . S
C725 C723 1.561 . S
C726 C723 1.526 . S
C726 C727 1.396 . S
C726 C731 1.390 . S
C727 C721 1.465 . S
C727 C726 1.396 . S
C727 C728 1.399 . S
C728 H714 0.929 . S
C728 C727 1.399 . S
C728 C729 1.385 . S
C729 H715 0.931 . S
C729 C728 1.385 . S
C729 C730 1.389 . S
C730 C729 1.389 . S
C730 C731 1.387 . S
C731 H716 0.930 . S
C731 C726 1.390 . S
C731 C730 1.387 . S
H732 C744 0.930 1_554 S
H733 C746 0.930 . S
H734 C747 0.929 1_655 S
H735 C751 0.959 1_556 S
H736 C751 0.959 1_455 S
H737 C751 0.961 . S
H738 C752 0.960 1_554 S
H739 C752 0.961 . S
H740 C752 0.959 . S
H741 C755 0.929 . S
H742 C756 0.931 . S
H743 C758 0.930 . S
C744 H732 0.930 1_556 S
C744 C745 1.399 1_455 S
C744 C749 1.399 . S
C745 C744 1.399 1_655 S
C745 C746 1.376 . S
C746 H733 0.930 . S
C746 C745 1.376 . S
C746 C747 1.384 1_655 S
C747 H734 0.929 1_455 S
C747 C746 1.384 1_455 S
C747 C748 1.396 . S
C748 C747 1.396 . S
C748 C749 1.394 . S
C748 C754 1.465 . S
C749 C744 1.399 . S
C749 C748 1.394 . S
C749 C750 1.516 . S
C750 C749 1.516 . S
C750 C751 1.502 1_456 S
C750 C752 1.561 . S
C750 C753 1.526 . S
C751 H735 0.959 1_554 S
C751 H736 0.959 1_655 S
C751 H737 0.961 . S
C751 C750 1.502 1_654 S
C752 H738 0.960 1_556 S
C752 H739 0.961 . S
C752 H740 0.959 . S
C752 C750 1.561 . S
C753 C750 1.526 . S
C753 C754 1.396 . S
C753 C758 1.390 . S
C754 C748 1.465 . S
C754 C753 1.396 . S
C754 C755 1.399 . S
C755 H741 0.929 . S
C755 C754 1.399 . S
C755 C756 1.385 . S
C756 H742 0.931 . S
C756 C755 1.385 . S
C756 C757 1.389 . S
C757 C756 1.389 . S
C757 C758 1.387 . S
C758 H743 0.930 . S
C758 C753 1.390 . S
C758 C757 1.387 . S
H759 C771 0.930 . S
H760 C773 0.929 1_554 S
H761 C774 0.939 . S
H762 C778 0.959 . S
H763 C778 0.959 . S
H764 C778 0.961 . S
H765 C779 0.960 . S
H766 C779 0.961 . S
H767 C779 0.959 . S
H768 C782 0.929 . S
H769 C783 0.931 . S
H770 C785 0.927 1_545 S
C771 H759 0.930 . S
C771 C772 1.399 . S
C771 C776 1.399 . S
C772 C771 1.399 . S
C772 C773 1.376 . S
C773 H760 0.929 1_556 S
C773 C772 1.376 . S
C773 C774 1.388 . S
C774 H761 0.939 . S
C774 C773 1.388 . S
C774 C775 1.390 . S
C775 C774 1.390 . S
C775 C776 1.394 . S
C775 C781 1.465 . S
C776 C771 1.399 . S
C776 C775 1.394 . S
C776 C777 1.516 . S
C777 C776 1.516 . S
C777 C778 1.502 . S
C777 C779 1.561 . S
C777 C780 1.526 . S
C778 H762 0.959 . S
C778 H763 0.959 . S
C778 H764 0.961 . S
C778 C777 1.502 . S
C779 H765 0.960 . S
C779 H766 0.961 . S
C779 H767 0.959 . S
C779 C777 1.561 . S
C780 C777 1.526 . S
C780 C781 1.396 . S
C780 C785 1.390 . S
C781 C775 1.465 . S
C781 C780 1.396 . S
C781 C782 1.399 . S
C782 H768 0.929 . S
C782 C781 1.399 . S
C782 C783 1.385 . S
C783 H769 0.931 . S
C783 C782 1.385 . S
C783 C784 1.389 1_565 S
C784 C783 1.389 1_545 S
C784 C785 1.387 1_545 S
C785 H770 0.927 1_565 S
C785 C780 1.390 . S
C785 C784 1.387 1_565 S
H786 C798 0.930 . S
H787 C800 0.930 1_554 S
H788 C801 0.930 1_554 S
H789 C805 0.959 . S
H790 C805 0.959 . S
H791 C805 0.961 . S
H792 C806 0.960 . S
H793 C806 0.961 . S
H794 C806 0.959 . S
H795 C809 0.929 . S
H796 C810 0.931 . S
H797 C812 0.930 . S
C798 H786 0.930 . S
C798 C799 1.399 . S
C798 C803 1.399 . S
C799 C798 1.399 . S
C799 C800 1.376 . S
C800 H787 0.930 1_556 S
C800 C799 1.376 . S
C800 C801 1.388 . S
C801 H788 0.930 1_556 S
C801 C800 1.388 . S
C801 C802 1.390 . S
C802 C801 1.390 . S
C802 C803 1.394 . S
C802 C808 1.465 . S
C803 C798 1.399 . S
C803 C802 1.394 . S
C803 C804 1.516 . S
C804 C803 1.516 . S
C804 C805 1.502 . S
C804 C806 1.561 . S
C804 C807 1.526 . S
C805 H789 0.959 . S
C805 H790 0.959 . S
C805 H791 0.961 . S
C805 C804 1.502 . S
C806 H792 0.960 . S
C806 H793 0.961 . S
C806 H794 0.959 . S
C806 C804 1.561 . S
C807 C804 1.526 . S
C807 C808 1.396 . S
C807 C812 1.390 . S
C808 C802 1.465 . S
C808 C807 1.396 . S
C808 C809 1.399 . S
C809 H795 0.929 . S
C809 C808 1.399 . S
C809 C810 1.385 . S
C810 H796 0.931 . S
C810 C809 1.385 . S
C810 C811 1.389 . S
C811 C810 1.389 . S
C811 C812 1.387 . S
C812 H797 0.930 . S
C812 C807 1.390 . S
C812 C811 1.387 . S
H813 C825 0.930 . S
H814 C827 0.930 1_554 S
H815 C828 0.930 1_554 S
H816 C832 0.959 . S
H817 C832 0.959 . S
H818 C832 0.961 . S
H819 C833 0.960 . S
H820 C833 0.961 . S
H821 C833 0.959 . S
H822 C836 0.929 . S
H823 C837 0.931 . S
H824 C839 0.930 . S
C825 H813 0.930 . S
C825 C826 1.399 . S
C825 C830 1.399 . S
C826 C825 1.399 . S
C826 C827 1.376 . S
C827 H814 0.930 1_556 S
C827 C826 1.376 . S
C827 C828 1.388 . S
C828 H815 0.930 1_556 S
C828 C827 1.388 . S
C828 C829 1.390 . S
C829 C828 1.390 . S
C829 C830 1.394 . S
C829 C835 1.465 . S
C830 C825 1.399 . S
C830 C829 1.394 . S
C830 C831 1.516 . S
C831 C830 1.516 . S
C831 C832 1.502 . S
C831 C833 1.561 . S
C831 C834 1.526 . S
C832 H816 0.959 . S
C832 H817 0.959 . S
C832 H818 0.961 . S
C832 C831 1.502 . S
C833 H819 0.960 . S
C833 H820 0.961 . S
C833 H821 0.959 . S
C833 C831 1.561 . S
C834 C831 1.526 . S
C834 C835 1.396 . S
C834 C839 1.390 . S
C835 C829 1.465 . S
C835 C834 1.396 . S
C835 C836 1.399 . S
C836 H822 0.929 . S
C836 C835 1.399 . S
C836 C837 1.385 . S
C837 H823 0.931 . S
C837 C836 1.385 . S
C837 C838 1.389 . S
C838 C837 1.389 . S
C838 C839 1.387 . S
C839 H824 0.930 . S
C839 C834 1.390 . S
C839 C838 1.387 . S
H840 C852 0.930 . S
H841 C854 0.930 . S
H842 C855 0.930 . S
H843 C859 0.959 . S
H844 C859 0.959 . S
H845 C859 0.961 . S
H846 C860 0.960 . S
H847 C860 0.961 . S
H848 C860 0.959 . S
H849 C863 0.929 . S
H850 C864 0.931 . S
H851 C866 0.930 . S
C852 H840 0.930 . S
C852 C853 1.399 1_655 S
C852 C857 1.399 . S
C853 C852 1.399 1_455 S
C853 C854 1.376 . S
C854 H841 0.930 . S
C854 C853 1.376 . S
C854 C855 1.388 . S
C855 H842 0.930 . S
C855 C854 1.388 . S
C855 C856 1.390 . S
C856 C855 1.390 . S
C856 C857 1.394 1_455 S
C856 C862 1.465 . S
C857 C852 1.399 . S
C857 C856 1.394 1_655 S
C857 C858 1.516 . S
C858 C857 1.516 . S
C858 C859 1.502 . S
C858 C860 1.561 . S
C858 C861 1.526 . S
C859 H843 0.959 . S
C859 H844 0.959 . S
C859 H845 0.961 . S
C859 C858 1.502 . S
C860 H846 0.960 . S
C860 H847 0.961 . S
C860 H848 0.959 . S
C860 C858 1.561 . S
C861 C858 1.526 . S
C861 C862 1.396 1_655 S
C861 C866 1.390 . S
C862 C856 1.465 . S
C862 C861 1.396 1_455 S
C862 C863 1.399 1_554 S
C863 H849 0.929 . S
C863 C862 1.399 1_556 S
C863 C864 1.385 . S
C864 H850 0.931 . S
C864 C863 1.385 . S
C864 C865 1.389 . S
C865 C864 1.389 . S
C865 C866 1.387 1_456 S
C866 H851 0.930 . S
C866 C861 1.390 . S
C866 C865 1.387 1_654 S
H867 C879 0.930 . S
H868 C881 0.930 . S
H869 C882 0.930 . S
H870 C886 0.959 . S
H871 C886 0.959 . S
H872 C886 0.961 . S
H873 C887 0.960 . S
H874 C887 0.961 . S
H875 C887 0.959 . S
H876 C890 0.929 . S
H877 C891 0.931 . S
H878 C893 0.930 . S
C879 H867 0.930 . S
C879 C880 1.399 . S
C879 C884 1.399 . S
C880 C879 1.399 . S
C880 C881 1.376 . S
C881 H868 0.930 . S
C881 C880 1.376 . S
C881 C882 1.388 . S
C882 H869 0.930 . S
C882 C881 1.388 . S
C882 C883 1.390 . S
C883 C882 1.390 . S
C883 C884 1.394 . S
C883 C889 1.465 . S
C884 C879 1.399 . S
C884 C883 1.394 . S
C884 C885 1.516 . S
C885 C884 1.516 . S
C885 C886 1.502 . S
C885 C887 1.561 . S
C885 C888 1.526 . S
C886 H870 0.959 . S
C886 H871 0.959 . S
C886 H872 0.961 . S
C886 C885 1.502 . S
C887 H873 0.960 . S
C887 H874 0.961 . S
C887 H875 0.959 . S
C887 C885 1.561 . S
C888 C885 1.526 . S
C888 C889 1.396 . S
C888 C893 1.390 . S
C889 C883 1.465 . S
C889 C888 1.396 . S
C889 C890 1.399 1_554 S
C890 H876 0.929 . S
C890 C889 1.399 1_556 S
C890 C891 1.385 . S
C891 H877 0.931 . S
C891 C890 1.385 . S
C891 C892 1.389 . S
C892 C891 1.389 . S
C892 C893 1.387 1_556 S
C893 H878 0.930 . S
C893 C888 1.390 . S
C893 C892 1.387 1_554 S
H894 C906 0.930 . S
H895 C908 0.930 . S
H896 C909 0.930 . S
H897 C913 0.959 . S
H898 C913 0.959 . S
H899 C913 0.961 . S
H900 C914 0.960 . S
H901 C914 0.961 . S
H902 C914 0.959 . S
H903 C917 0.929 . S
H904 C918 0.931 . S
H905 C920 0.930 . S
C906 H894 0.930 . S
C906 C907 1.399 . S
C906 C911 1.399 . S
C907 C906 1.399 . S
C907 C908 1.376 . S
C908 H895 0.930 . S
C908 C907 1.376 . S
C908 C909 1.388 . S
C909 H896 0.930 . S
C909 C908 1.388 . S
C909 C910 1.390 . S
C910 C909 1.390 . S
C910 C911 1.394 . S
C910 C916 1.465 . S
C911 C906 1.399 . S
C911 C910 1.394 . S
C911 C912 1.516 1_554 S
C912 C911 1.516 1_556 S
C912 C913 1.502 . S
C912 C914 1.561 . S
C912 C915 1.526 . S
C913 H897 0.959 . S
C913 H898 0.959 . S
C913 H899 0.961 . S
C913 C912 1.502 . S
C914 H900 0.960 . S
C914 H901 0.961 . S
C914 H902 0.959 . S
C914 C912 1.561 . S
C915 C912 1.526 . S
C915 C916 1.396 1_556 S
C915 C920 1.390 . S
C916 C910 1.465 . S
C916 C915 1.396 1_554 S
C916 C917 1.399 . S
C917 H903 0.929 . S
C917 C916 1.399 . S
C917 C918 1.385 1_554 S
C918 H904 0.931 . S
C918 C917 1.385 1_556 S
C918 C919 1.389 . S
C919 C918 1.389 . S
C919 C920 1.387 . S
C920 H905 0.930 . S
C920 C915 1.390 . S
C920 C919 1.387 . S
H921 C933 0.930 . S
H922 C935 0.930 . S
H923 C936 0.930 . S
H924 C940 0.959 . S
H925 C940 0.959 . S
H926 C940 0.961 . S
H927 C941 0.960 . S
H928 C941 0.961 . S
H929 C941 0.959 . S
H930 C944 0.929 . S
H931 C945 0.931 . S
H932 C947 0.930 . S
C933 H921 0.930 . S
C933 C934 1.399 . S
C933 C938 1.399 . S
C934 C933 1.399 . S
C934 C935 1.376 . S
C935 H922 0.930 . S
C935 C934 1.376 . S
C935 C936 1.388 . S
C936 H923 0.930 . S
C936 C935 1.388 . S
C936 C937 1.390 . S
C937 C936 1.390 . S
C937 C938 1.394 . S
C937 C943 1.465 1_554 S
C938 C933 1.399 . S
C938 C937 1.394 . S
C938 C939 1.516 . S
C939 C938 1.516 . S
C939 C940 1.502 . S
C939 C941 1.561 . S
C939 C942 1.526 . S
C940 H924 0.959 . S
C940 H925 0.959 . S
C940 H926 0.961 . S
C940 C939 1.502 . S
C941 H927 0.960 . S
C941 H928 0.961 . S
C941 H929 0.959 . S
C941 C939 1.561 . S
C942 C939 1.526 . S
C942 C943 1.396 1_554 S
C942 C947 1.390 1_554 S
C943 C937 1.465 1_556 S
C943 C942 1.396 1_556 S
C943 C944 1.399 . S
C944 H930 0.929 . S
C944 C943 1.399 . S
C944 C945 1.385 . S
C945 H931 0.931 . S
C945 C944 1.385 . S
C945 C946 1.389 . S
C946 C945 1.389 . S
C946 C947 1.387 . S
C947 H932 0.930 . S
C947 C942 1.390 1_556 S
C947 C946 1.387 . S
H948 C960 0.926 1_455 S
H949 C962 0.930 . S
H950 C963 0.930 . S
H951 C967 0.959 . S
H952 C967 0.959 . S
H953 C967 0.961 . S
H954 C968 0.960 . S
H955 C968 0.961 . S
H956 C968 0.959 . S
H957 C971 0.929 . S
H958 C972 0.931 . S
H959 C974 0.930 . S
C960 H948 0.926 1_655 S
C960 C961 1.401 . S
C960 C965 1.401 . S
C961 C960 1.401 . S
C961 C962 1.376 . S
C962 H949 0.930 . S
C962 C961 1.376 . S
C962 C963 1.388 . S
C963 H950 0.930 . S
C963 C962 1.388 . S
C963 C964 1.390 . S
C964 C963 1.390 . S
C964 C965 1.394 . S
C964 C970 1.465 . S
C965 C960 1.401 . S
C965 C964 1.394 . S
C965 C966 1.516 . S
C966 C965 1.516 . S
C966 C967 1.502 1_655 S
C966 C968 1.561 . S
C966 C969 1.526 . S
C967 H951 0.959 . S
C967 H952 0.959 . S
C967 H953 0.961 . S
C967 C966 1.502 1_455 S
C968 H954 0.960 . S
C968 H955 0.961 . S
C968 H956 0.959 . S
C968 C966 1.561 . S
C969 C966 1.526 . S
C969 C970 1.396 . S
C969 C974 1.390 . S
C970 C964 1.465 . S
C970 C969 1.396 . S
C970 C971 1.399 . S
C971 H957 0.929 . S
C971 C970 1.399 . S
C971 C972 1.385 . S
C972 H958 0.931 . S
C972 C971 1.385 . S
C972 C973 1.389 . S
C973 C972 1.389 . S
C973 C974 1.387 . S
C974 H959 0.930 . S
C974 C969 1.390 . S
C974 C973 1.387 . S
H975 C987 0.930 . S
H976 C989 0.930 . S
H977 C990 0.930 . S
H978 C994 0.959 . S
H979 C994 0.959 . S
H980 C994 0.961 . S
H981 C995 0.960 . S
H982 C995 0.961 . S
H983 C995 0.959 . S
H984 C998 0.930 1_545 S
H985 C999 0.931 1_545 S
H986 C1001 0.930 . S
C987 H975 0.930 . S
C987 C988 1.399 . S
C987 C992 1.399 . S
C988 C987 1.399 . S
C988 C989 1.376 . S
C989 H976 0.930 . S
C989 C988 1.376 . S
C989 C990 1.388 . S
C990 H977 0.930 . S
C990 C989 1.388 . S
C990 C991 1.390 . S
C991 C990 1.390 . S
C991 C992 1.394 . S
C991 C997 1.465 . S
C992 C987 1.399 . S
C992 C991 1.394 . S
C992 C993 1.516 . S
C993 C992 1.516 . S
C993 C994 1.502 . S
C993 C995 1.561 . S
C993 C996 1.526 . S
C994 H978 0.959 . S
C994 H979 0.959 . S
C994 H980 0.961 . S
C994 C993 1.502 . S
C995 H981 0.960 . S
C995 H982 0.961 . S
C995 H983 0.959 . S
C995 C993 1.561 . S
C996 C993 1.526 . S
C996 C997 1.396 . S
C996 C1001 1.390 . S
C997 C991 1.465 . S
C997 C996 1.396 . S
C997 C998 1.399 . S
C998 H984 0.930 1_565 S
C998 C997 1.399 . S
C998 C999 1.385 . S
C999 H985 0.931 1_565 S
C999 C998 1.385 . S
C999 C1000 1.389 . S
C1000 C999 1.389 . S
C1000 C1001 1.387 . S
C1001 H986 0.930 . S
C1001 C996 1.390 . S
C1001 C1000 1.387 . S
H1002 C1014 0.930 . S
H1003 C1016 0.930 . S
H1004 C1017 0.930 . S
H1005 C1021 0.959 . S
H1006 C1021 0.959 . S
H1007 C1021 0.961 . S
H1008 C1022 0.960 . S
H1009 C1022 0.961 . S
H1010 C1022 0.959 . S
H1011 C1025 0.929 . S
H1012 C1026 0.931 . S
H1013 C1028 0.930 . S
C1014 H1002 0.930 . S
C1014 C1015 1.399 . S
C1014 C1019 1.399 . S
C1015 C1014 1.399 . S
C1015 C1016 1.376 . S
C1016 H1003 0.930 . S
C1016 C1015 1.376 . S
C1016 C1017 1.388 . S
C1017 H1004 0.930 . S
C1017 C1016 1.388 . S
C1017 C1018 1.390 . S
C1018 C1017 1.390 . S
C1018 C1019 1.394 . S
C1018 C1024 1.465 . S
C1019 C1014 1.399 . S
C1019 C1018 1.394 . S
C1019 C1020 1.516 . S
C1020 C1019 1.516 . S
C1020 C1021 1.502 . S
C1020 C1022 1.561 . S
C1020 C1023 1.526 . S
C1021 H1005 0.959 . S
C1021 H1006 0.959 . S
C1021 H1007 0.961 . S
C1021 C1020 1.502 . S
C1022 H1008 0.960 . S
C1022 H1009 0.961 . S
C1022 H1010 0.959 . S
C1022 C1020 1.561 . S
C1023 C1020 1.526 . S
C1023 C1024 1.396 . S
C1023 C1028 1.390 . S
C1024 C1018 1.465 . S
C1024 C1023 1.396 . S
C1024 C1025 1.399 . S
C1025 H1011 0.929 . S
C1025 C1024 1.399 . S
C1025 C1026 1.385 . S
C1026 H1012 0.931 . S
C1026 C1025 1.385 . S
C1026 C1027 1.389 . S
C1027 C1026 1.389 . S
C1027 C1028 1.387 . S
C1028 H1013 0.930 . S
C1028 C1023 1.390 . S
C1028 C1027 1.387 . S
H1029 C1041 0.930 . S
H1030 C1043 0.930 . S
H1031 C1044 0.930 . S
H1032 C1048 0.959 . S
H1033 C1048 0.959 . S
H1034 C1048 0.961 . S
H1035 C1049 0.960 . S
H1036 C1049 0.961 . S
H1037 C1049 0.959 . S
H1038 C1052 0.929 . S
H1039 C1053 0.931 . S
H1040 C1055 0.930 . S
C1041 H1029 0.930 . S
C1041 C1042 1.399 . S
C1041 C1046 1.399 . S
C1042 C1041 1.399 . S
C1042 C1043 1.376 . S
C1043 H1030 0.930 . S
C1043 C1042 1.376 . S
C1043 C1044 1.388 . S
C1044 H1031 0.930 . S
C1044 C1043 1.388 . S
C1044 C1045 1.390 . S
C1045 C1044 1.390 . S
C1045 C1046 1.394 . S
C1045 C1051 1.465 . S
C1046 C1041 1.399 . S
C1046 C1045 1.394 . S
C1046 C1047 1.516 . S
C1047 C1046 1.516 . S
C1047 C1048 1.502 . S
C1047 C1049 1.561 . S
C1047 C1050 1.526 . S
C1048 H1032 0.959 . S
C1048 H1033 0.959 . S
C1048 H1034 0.961 . S
C1048 C1047 1.502 . S
C1049 H1035 0.960 . S
C1049 H1036 0.961 . S
C1049 H1037 0.959 . S
C1049 C1047 1.561 . S
C1050 C1047 1.526 . S
C1050 C1051 1.396 . S
C1050 C1055 1.390 . S
C1051 C1045 1.465 . S
C1051 C1050 1.396 . S
C1051 C1052 1.399 . S
C1052 H1038 0.929 . S
C1052 C1051 1.399 . S
C1052 C1053 1.385 . S
C1053 H1039 0.931 . S
C1053 C1052 1.385 . S
C1053 C1054 1.389 . S
C1054 C1053 1.389 . S
C1054 C1055 1.387 . S
C1055 H1040 0.930 . S
C1055 C1050 1.390 . S
C1055 C1054 1.387 . S
C421 C241 1.828 . S
C433 C298 1.837 . S
C460 C328 1.728 . S
C448 C277 1.746 . S
C487 N362 1.748 . S
C475 C169 1.750 . S
C514 N392 1.398 . S
C502 C205 1.349 1_655 S
C541 C289 1.850 1_565 S
C529 C97 1.796 . S
C556 C133 1.737 . S
C568 C319 1.733 . S
C583 C25 1.631 . S
C595 N354 1.736 . S
C610 C61 1.428 . S
C622 N384 1.312 . S
C649 C304 0.416 . S
C637 C211 0.659 . S
C676 C334 0.754 . S
C664 C247 0.595 . S
C703 C375 0.531 . S
C691 C253 0.619 . S
C718 C175 0.737 . S
C730 C405 0.517 . S
C745 C67 0.695 1_655 S
C757 C315 0.416 . S
C784 C345 0.697 . S
C772 C103 0.681 . S
C811 C364 0.587 . S
C799 C109 0.485 . S
C826 C31 0.648 . S
C838 C394 0.679 . S
C853 C181 1.669 . S
C865 N294 1.713 . S
C880 C217 1.811 . S
C892 N324 1.851 . S
C919 C349 1.902 . S
C907 C283 1.759 . S
C946 C379 2.129 . S
C934 C145 2.046 . S
C961 C37 1.681 1_655 S
C973 N302 1.704 . S
C1000 N332 1.809 . S
C988 C73 1.735 . S
C1027 C358 1.897 . S
C1015 C139 1.766 . S
C1042 C1 2.009 . S
C1054 C388 2.132 . S
