# Generated by pormake.
# Topology anh, (6,3)-cn, num edge types: 1
# Building blocks:
#     Node 0, Type 0, BuildingBlock: CUKXOW_clean_sbu_0, # of connection points: 6
#     Node 1, Type 0, BuildingBlock: CUKXOW_clean_sbu_0, # of connection points: 6
#     Node 2, Type 0, BuildingBlock: CUKXOW_clean_sbu_0, # of connection points: 6
#     Node 3, Type 1, BuildingBlock: ESEHIV_clean_linker_0, # of connection points: 3
#     Node 4, Type 1, BuildingBlock: ESEHIV_clean_linker_0, # of connection points: 3
#     Node 5, Type 1, BuildingBlock: ESEHIV_clean_linker_0, # of connection points: 3
#     Node 6, Type 1, BuildingBlock: ESEHIV_clean_linker_0, # of connection points: 3
#     Node 7, Type 1, BuildingBlock: ESEHIV_clean_linker_0, # of connection points: 3
#     Node 8, Type 1, BuildingBlock: ESEHIV_clean_linker_0, # of connection points: 3
#     Edge 9, Type (0, 1), BuildingBlock: XIVTED_clean_linker_0, # of connection points: 2
#     Edge 10, Type (0, 1), BuildingBlock: XIVTED_clean_linker_0, # of connection points: 2
#     Edge 11, Type (0, 1), BuildingBlock: XIVTED_clean_linker_0, # of connection points: 2
#     Edge 12, Type (0, 1), BuildingBlock: XIVTED_clean_linker_0, # of connection points: 2
#     Edge 13, Type (0, 1), BuildingBlock: XIVTED_clean_linker_0, # of connection points: 2
#     Edge 14, Type (0, 1), BuildingBlock: XIVTED_clean_linker_0, # of connection points: 2
#     Edge 15, Type (0, 1), BuildingBlock: XIVTED_clean_linker_0, # of connection points: 2
#     Edge 16, Type (0, 1), BuildingBlock: XIVTED_clean_linker_0, # of connection points: 2
#     Edge 17, Type (0, 1), BuildingBlock: XIVTED_clean_linker_0, # of connection points: 2
#     Edge 18, Type (0, 1), BuildingBlock: XIVTED_clean_linker_0, # of connection points: 2
#     Edge 19, Type (0, 1), BuildingBlock: XIVTED_clean_linker_0, # of connection points: 2
#     Edge 20, Type (0, 1), BuildingBlock: XIVTED_clean_linker_0, # of connection points: 2
#     Edge 21, Type (0, 1), BuildingBlock: XIVTED_clean_linker_0, # of connection points: 2
#     Edge 22, Type (0, 1), BuildingBlock: XIVTED_clean_linker_0, # of connection points: 2
#     Edge 23, Type (0, 1), BuildingBlock: XIVTED_clean_linker_0, # of connection points: 2
#     Edge 24, Type (0, 1), BuildingBlock: XIVTED_clean_linker_0, # of connection points: 2
#     Edge 25, Type (0, 1), BuildingBlock: XIVTED_clean_linker_0, # of connection points: 2
#     Edge 26, Type (0, 1), BuildingBlock: XIVTED_clean_linker_0, # of connection points: 2
# Relax obj value: 0.137
# Max RMSD: 0.194
# Mean RMSD: 0.141
data_MOF--net-anh--node1-CUKXOW_clean_sbu_0--node2-ESEHIV_clean_linker_0--edge1-XIVTED_clean_linker_0
_symmetry_space_group_name_H-M    P1
_symmetry_Int_Tables_number       1
_symmetry_cell_setting            triclinic
loop_
_symmetry_equiv_pos_as_xyz
'x, y, z'
_cell_length_a     26.870744
_cell_length_b     26.113145
_cell_length_c     50.675829
_cell_angle_alpha  94.183706
_cell_angle_beta   90.846447
_cell_angle_gamma 112.31267
loop_
_atom_site_label
_atom_site_type_symbol
_atom_site_fract_x
_atom_site_fract_y
_atom_site_fract_z
_atom_type_partial_charge
Tb0 Tb 0.08074 0.56056 0.15249 0.0
C1 C 0.03455 0.50023 0.20317 0.0
Tb2 Tb 1.00864 0.42958 0.14666 0.0
O3 O 1.01261 0.58894 0.15354 0.0
O4 O 0.99909 0.50633 0.14904 0.0
O5 O 0.07216 0.54354 0.19361 0.0
C6 C 0.92728 0.33154 0.14559 0.0
O7 O 1.00229 0.45538 0.18822 0.0
C8 C 0.11481 0.45159 0.14814 0.0
C9 C 0.05321 0.49166 0.09615 0.0
O10 O 0.96969 0.3483 0.1615 0.0
O11 O 0.93068 0.36999 0.12997 0.0
O12 O 0.07744 0.4019 0.14556 0.0
O13 O 0.08983 0.48388 0.14968 0.0
O14 O 1.01482 0.44809 0.10528 0.0
O15 O 0.0865 0.53534 0.11129 0.0
C16 C 0.16721 0.65431 0.15664 0.0
O17 O 0.12411 0.64545 0.14203 0.0
O18 O 0.16126 0.61087 0.16917 0.0
C19 C 0.97479 0.53939 0.15061 0.0
Tb20 Tb 0.50222 0.97128 0.49463 0.0
C21 C 0.55622 0.01307 0.44151 0.0
Tb22 Tb 0.61948 0.0551 0.49783 0.0
O23 O 0.47417 0.03649 0.4841 0.0
O24 O 0.54393 0.05598 0.5078 0.0
O25 O 0.51476 0.97633 0.45255 0.0
C26 C 0.69868 0.15348 0.49497 0.0
O27 O 0.5998 0.04804 0.45532 0.0
C28 C 0.60956 0.95138 0.4972 0.0
C29 C 0.56652 0.00939 0.55001 0.0
O30 O 0.70386 0.11188 0.50567 0.0
O31 O 0.64979 0.13907 0.48562 0.0
O32 O 0.6536 0.99298 0.50534 0.0
O33 O 0.57838 0.96993 0.48597 0.0
O34 O 0.60175 0.05312 0.53952 0.0
O35 O 0.52826 0.96868 0.53543 0.0
C36 C 0.41331 0.87971 0.49394 0.0
O37 O 0.41976 0.92694 0.50671 0.0
O38 O 0.45641 0.88446 0.48152 0.0
C39 C 0.51576 0.07656 0.49564 0.0
Tb40 Tb 0.50425 0.49595 0.82226 0.0
C41 C 0.5547 0.51651 0.87882 0.0
Tb42 Tb 0.62136 0.54177 0.82803 0.0
O43 O 0.49517 0.4168 0.83654 0.0
O44 O 0.56361 0.46134 0.81626 0.0
O45 O 0.5144 0.52016 0.8647 0.0
C46 C 0.72605 0.578 0.83968 0.0
O47 O 0.59812 0.51497 0.86734 0.0
C48 C 0.57964 0.61596 0.82067 0.0
C49 C 0.57276 0.51217 0.77042 0.0
O50 O 0.69334 0.59804 0.85051 0.0
O51 O 0.69958 0.5359 0.82298 0.0
O52 O 0.62456 0.6171 0.81151 0.0
O53 O 0.56133 0.57582 0.83482 0.0
O54 O 0.61746 0.52589 0.78529 0.0
O55 O 0.52507 0.49985 0.78074 0.0
C56 C 0.40638 0.48647 0.80642 0.0
O57 O 0.41658 0.45427 0.82216 0.0
O58 O 0.45102 0.52452 0.8004 0.0
C59 C 0.54265 0.4203 0.82976 0.0
H60 H 0.46345 0.96351 0.23864 0.0
H61 H 0.62841 0.07876 0.24206 0.0
H62 H 0.54576 0.00745 0.16672 0.0
C63 C 0.49948 0.98746 0.22883 0.0
C64 C 0.49939 0.98208 0.20113 0.0
C65 C 0.5461 0.02146 0.24389 0.0
C66 C 0.59216 0.05221 0.23068 0.0
C67 C 0.59219 0.04816 0.20283 0.0
C68 C 0.54569 0.01244 0.18815 0.0
H69 H 0.57178 0.6033 0.57306 0.0
H70 H 0.57213 0.43888 0.5674 0.0
H71 H 0.57144 0.51959 0.49628 0.0
C72 C 0.57191 0.5673 0.56099 0.0
C73 C 0.57141 0.56728 0.53322 0.0
C74 C 0.57194 0.52107 0.57331 0.0
C75 C 0.57206 0.47466 0.5578 0.0
C76 C 0.57223 0.4736 0.53011 0.0
C77 C 0.57174 0.52013 0.51768 0.0
H78 H 0.05963 0.65657 0.91918 0.0
H79 H 0.16184 0.56719 0.90313 0.0
H80 H 0.13581 0.66528 0.84435 0.0
C81 C 0.08748 0.64744 0.90628 0.0
C82 C 0.09441 0.66577 0.88058 0.0
C83 C 0.11294 0.61316 0.91478 0.0
C84 C 0.14476 0.59647 0.89732 0.0
C85 C 0.15169 0.6141 0.87175 0.0
C86 C 0.1298 0.65176 0.86417 0.0
H87 H 0.93884 0.46511 0.40452 0.0
H88 H 0.09581 0.59488 0.4031 0.0
H89 H 0.03251 0.53561 0.47729 0.0
C90 C 0.97498 0.4949 0.41487 0.0
C91 C 0.98067 0.49646 0.44256 0.0
C92 C 1.01627 0.53029 0.40042 0.0
C93 C 0.06318 0.5679 0.41405 0.0
C94 C 0.0691 0.57024 0.44171 0.0
C95 C 0.02768 0.53456 0.45595 0.0
H96 H 0.57975 0.09652 0.75123 0.0
H97 H 0.54246 0.9214 0.75048 0.0
H98 H 0.56315 0.01998 0.82469 0.0
C99 C 0.57274 0.06004 0.76186 0.0
C100 C 0.57335 0.06463 0.78964 0.0
C101 C 0.56149 0.00862 0.74757 0.0
C102 C 0.54966 0.96108 0.76134 0.0
C103 C 0.55024 0.96491 0.78915 0.0
C104 C 0.56217 0.01681 0.80323 0.0
H105 H 0.46514 0.50391 0.08004 0.0
H106 H 0.62318 0.49941 0.07943 0.0
H107 H 0.54517 0.49714 0.15333 0.0
C108 C 0.50015 0.50311 0.09064 0.0
C109 C 0.49959 0.50164 0.11829 0.0
C110 C 0.54409 0.50188 0.0764 0.0
C111 C 0.58847 0.49894 0.0902 0.0
C112 C 0.58981 0.49702 0.11783 0.0
C113 C 0.54488 0.49845 0.13203 0.0
H114 H 0.16457 0.38096 0.15682 0.0
H115 H 0.45893 0.58308 0.11892 0.0
H116 H 0.20064 0.54968 0.13891 0.0
H117 H 0.42417 0.41996 0.1445 0.0
H118 H 0.36744 0.57499 0.12926 0.0
H119 H 0.26005 0.39676 0.15471 0.0
C120 C 0.19269 0.42167 0.15265 0.0
C121 C 0.17418 0.46417 0.14828 0.0
C122 C 0.37992 0.54131 0.13314 0.0
C123 C 0.28489 0.48262 0.14553 0.0
C124 C 0.4325 0.54615 0.1275 0.0
C125 C 0.44987 0.50251 0.13124 0.0
C126 C 0.34346 0.49197 0.14228 0.0
C127 C 0.41317 0.4551 0.14178 0.0
C128 C 0.24747 0.43068 0.15148 0.0
C129 C 0.21287 0.51594 0.14287 0.0
N130 N 0.3618 0.45089 0.14662 0.0
N131 N 0.26614 0.52355 0.14147 0.0
H132 H 0.80632 0.18931 0.50887 0.0
H133 H 0.87241 0.47044 0.43955 0.0
H134 H 0.68606 0.24294 0.47707 0.0
H135 H 0.9944 0.42782 0.47758 0.0
H136 H 0.80305 0.39192 0.45778 0.0
H137 H 0.87579 0.28038 0.50193 0.0
C138 C 0.79464 0.22046 0.50064 0.0
C139 C 0.74082 0.20865 0.49311 0.0
C140 C 0.84494 0.40003 0.46248 0.0
C141 C 0.81928 0.31217 0.4852 0.0
C142 C 0.88442 0.44481 0.45206 0.0
C143 C 0.93893 0.45506 0.45693 0.0
C144 C 0.86015 0.36474 0.47751 0.0
C145 C 0.95265 0.42115 0.47344 0.0
C146 C 0.83411 0.27234 0.49674 0.0
C147 C 0.72737 0.25025 0.48275 0.0
N148 N 0.91343 0.37686 0.48285 0.0
N149 N 0.7664 0.3 0.47889 0.0
H150 H 0.48103 0.62492 0.82262 0.0
H151 H 0.61559 0.95578 0.82848 0.0
H152 H 0.65196 0.72161 0.82668 0.0
H153 H 0.47055 0.86124 0.78107 0.0
H154 H 0.61515 0.86943 0.84449 0.0
H155 H 0.46475 0.71173 0.82265 0.0
C156 C 0.51493 0.66431 0.82386 0.0
C157 C 0.56782 0.66641 0.82397 0.0
C158 C 0.58274 0.86786 0.83108 0.0
C159 C 0.54974 0.76466 0.82511 0.0
C160 C 0.5828 0.91699 0.82207 0.0
C161 C 0.54351 0.91524 0.80316 0.0
C162 C 0.54293 0.81694 0.82122 0.0
C163 C 0.50203 0.86392 0.79533 0.0
C164 C 0.50567 0.71357 0.82398 0.0
C165 C 0.61055 0.71833 0.82602 0.0
N166 N 0.50313 0.81646 0.80417 0.0
N167 N 0.60058 0.76544 0.82646 0.0
H168 H 0.92742 0.61211 0.16426 0.0
H169 H 0.62903 0.4147 0.11051 0.0
H170 H 0.88646 0.44133 0.13525 0.0
H171 H 0.66748 0.57639 0.15127 0.0
H172 H 0.72059 0.42078 0.12137 0.0
H173 H 0.8322 0.59799 0.16109 0.0
C174 C 0.89834 0.57131 0.15735 0.0
C175 C 0.9155 0.52782 0.15004 0.0
C176 C 0.70889 0.45454 0.12845 0.0
C177 C 0.80494 0.51131 0.14606 0.0
C178 C 0.6563 0.45085 0.12248 0.0
C179 C 0.6399 0.49465 0.1304 0.0
C180 C 0.74638 0.50299 0.14209 0.0
C181 C 0.6777 0.54111 0.14522 0.0
C182 C 0.84367 0.56328 0.15558 0.0
C183 C 0.87547 0.476 0.14125 0.0
N184 N 0.72905 0.54428 0.15029 0.0
N185 N 0.82234 0.46934 0.13929 0.0
H186 H 0.40133 0.77862 0.47115 0.0
H187 H 0.08191 0.64815 0.48316 0.0
H188 H 0.31411 0.86606 0.5125 0.0
H189 H 0.17074 0.5804 0.43075 0.0
H190 H 0.16743 0.7197 0.50137 0.0
H191 H 0.31806 0.69695 0.46372 0.0
C192 C 0.36454 0.78037 0.47883 0.0
C193 C 0.36414 0.82914 0.49209 0.0
C194 C 0.16811 0.68875 0.4861 0.0
C195 C 0.26864 0.73609 0.48352 0.0
C196 C 0.11952 0.64795 0.47585 0.0
C197 C 0.11966 0.60909 0.45527 0.0
C198 C 0.21678 0.69001 0.47578 0.0
C199 C 0.16912 0.6103 0.44635 0.0
C200 C 0.31702 0.73378 0.47459 0.0
C201 C 0.31572 0.82917 0.50197 0.0
N202 N 0.21568 0.65035 0.45654 0.0
N203 N 0.26953 0.78337 0.49721 0.0
H204 H 0.62905 0.40794 0.80634 0.0
H205 H 0.5189 0.08791 0.83101 0.0
H206 H 0.4981 0.32853 0.8564 0.0
H207 H 0.6499 0.16574 0.78065 0.0
H208 H 0.52421 0.17969 0.84822 0.0
H209 H 0.65003 0.32427 0.80393 0.0
C210 C 0.60524 0.37312 0.81709 0.0
C211 C 0.56105 0.37429 0.83105 0.0
C212 C 0.55241 0.17679 0.8337 0.0
C213 C 0.58449 0.27891 0.8284 0.0
C214 C 0.54959 0.12436 0.82401 0.0
C215 C 0.58318 0.11929 0.80395 0.0
C216 C 0.58877 0.2243 0.82308 0.0
C217 C 0.6222 0.1679 0.79559 0.0
C218 C 0.61719 0.32545 0.81575 0.0
C219 C 0.53185 0.32864 0.84496 0.0
N220 N 0.62333 0.21841 0.80486 0.0
N221 N 0.54361 0.28244 0.84298 0.0
H222 H 0.68205 0.90309 0.48729 0.0
H223 H 0.49594 0.61266 0.53879 0.0
H224 H 0.51996 0.86603 0.51122 0.0
H225 H 0.64609 0.63724 0.50225 0.0
H226 H 0.5023 0.7038 0.52662 0.0
H227 H 0.66954 0.80579 0.49134 0.0
C228 C 0.64348 0.87416 0.49297 0.0
C229 C 0.60128 0.89213 0.49809 0.0
C230 C 0.53358 0.68915 0.52087 0.0
C231 C 0.58686 0.78104 0.50323 0.0
C232 C 0.52979 0.63699 0.52772 0.0
C233 C 0.57042 0.61736 0.52139 0.0
C234 C 0.57891 0.7227 0.50797 0.0
C235 C 0.61367 0.65068 0.50724 0.0
C236 C 0.6363 0.81864 0.49522 0.0
C237 C 0.5525 0.85333 0.50581 0.0
N238 N 0.61716 0.70205 0.5013 0.0
N239 N 0.54671 0.79982 0.5083 0.0
H240 H 0.79835 0.56116 0.80716 0.0
H241 H 0.04386 0.73079 0.90453 0.0
H242 H 0.78558 0.6593 0.87704 0.0
H243 H 0.05258 0.64564 0.82928 0.0
H244 H 0.95539 0.72695 0.89001 0.0
H245 H 0.89576 0.60931 0.81072 0.0
C246 C 0.81633 0.5927 0.82337 0.0
C247 C 0.78455 0.60548 0.84224 0.0
C248 C 0.97765 0.71066 0.87646 0.0
C249 C 0.89569 0.661 0.84651 0.0
C250 C 0.02812 0.71264 0.88477 0.0
C251 C 0.05475 0.68569 0.86883 0.0
C252 C 0.95431 0.68186 0.85206 0.0
C253 C 0.03369 0.66578 0.84284 0.0
C254 C 0.87185 0.6208 0.82523 0.0
C255 C 0.80927 0.64769 0.86244 0.0
N256 N 0.98412 0.66298 0.83559 0.0
N257 N 0.86371 0.67344 0.86435 0.0
H258 H 0.17687 0.75896 0.14675 0.0
H259 H 0.49566 0.88918 0.17222 0.0
H260 H 0.26868 0.66371 0.16953 0.0
H261 H 0.39667 0.97836 0.19805 0.0
H262 H 0.4141 0.80965 0.15601 0.0
H263 H 0.25975 0.84356 0.15156 0.0
C264 C 0.21458 0.75594 0.15251 0.0
C265 C 0.21629 0.70486 0.1581 0.0
C266 C 0.41048 0.84715 0.16471 0.0
C267 C 0.31032 0.80004 0.16281 0.0
C268 C 0.45677 0.89245 0.17371 0.0
C269 C 0.45237 0.9399 0.18639 0.0
C270 C 0.35984 0.84998 0.16813 0.0
C271 C 0.40128 0.94221 0.18832 0.0
C272 C 0.26154 0.80392 0.15522 0.0
C273 C 0.26585 0.70265 0.16541 0.0
N274 N 0.3567 0.89758 0.17936 0.0
N275 N 0.31109 0.74967 0.16749 0.0
H276 H 0.46096 0.12786 0.4686 0.0
H277 H 0.65025 0.43184 0.53187 0.0
H278 H 0.59375 0.16215 0.52494 0.0
H279 H 0.49221 0.39684 0.49728 0.0
H280 H 0.63946 0.33578 0.51955 0.0
H281 H 0.47908 0.22791 0.4709 0.0
C282 C 0.49411 0.15644 0.4813 0.0
C283 C 0.52619 0.1367 0.49644 0.0
C284 C 0.60745 0.3492 0.51417 0.0
C285 C 0.54755 0.25096 0.49887 0.0
C286 C 0.61394 0.40423 0.52087 0.0
C287 C 0.5722 0.42229 0.51542 0.0
C288 C 0.55863 0.31157 0.50206 0.0
C289 C 0.52556 0.38464 0.50152 0.0
C290 C 0.50447 0.21345 0.48255 0.0
C291 C 0.56845 0.17551 0.51265 0.0
N292 N 0.51969 0.33075 0.49558 0.0
N293 N 0.57797 0.23061 0.51336 0.0
H294 H 0.38362 0.56025 0.77852 0.0
H295 H 0.12609 0.50338 0.86151 0.0
H296 H 0.30959 0.41713 0.82257 0.0
H297 H 0.227 0.66233 0.83586 0.0
H298 H 0.17041 0.45828 0.83164 0.0
H299 H 0.30286 0.58133 0.78245 0.0
C300 C 0.3496 0.53229 0.78831 0.0
C301 C 0.35354 0.48823 0.8012 0.0
C302 C 0.18224 0.50292 0.83222 0.0
C303 C 0.26218 0.51232 0.80598 0.0
C304 C 0.15761 0.52871 0.84949 0.0
C305 C 0.1748 0.58677 0.85186 0.0
C306 C 0.22461 0.53556 0.81747 0.0
C307 C 0.21376 0.61755 0.83503 0.0
C308 C 0.30365 0.54437 0.79056 0.0
C309 C 0.30835 0.45248 0.81308 0.0
N310 N 0.23827 0.5916 0.81886 0.0
N311 N 0.26472 0.46614 0.8158 0.0
H312 H 0.92035 0.24646 0.17482 0.0
H313 H 0.59949 0.10883 0.16014 0.0
H314 H 0.82646 0.30139 0.12235 0.0
H315 H 0.69619 0.06184 0.21473 0.0
H316 H 0.68196 0.16981 0.14094 0.0
H317 H 0.83887 0.16871 0.18427 0.0
C318 C 0.88253 0.24161 0.16501 0.0
C319 C 0.8798 0.28046 0.148 0.0
C320 C 0.68508 0.14574 0.15695 0.0
C321 C 0.78622 0.19217 0.159 0.0
C322 C 0.63807 0.11083 0.16783 0.0
C323 C 0.64116 0.08096 0.1893 0.0
C324 C 0.73539 0.1506 0.1676 0.0
C325 C 0.69208 0.08511 0.19858 0.0
C326 C 0.83598 0.1973 0.17044 0.0
C327 C 0.83002 0.27225 0.13567 0.0
N328 N 0.73715 0.11961 0.18781 0.0
N329 N 0.78488 0.22927 0.14168 0.0
H330 H 0.14753 0.52718 0.07197 0.0
H331 H 1.01559 0.56622 0.93739 0.0
H332 H 0.97574 0.4629 0.056 0.0
H333 H 0.18549 0.60491 0.95061 0.0
H334 H 0.99895 0.52483 0.97985 0.0
H335 H 0.16125 0.54944 0.02616 0.0
C336 C 0.11268 0.5169 0.05855 0.0
C337 C 0.06048 0.49363 0.06761 0.0
C338 C 0.03981 0.54215 0.97338 0.0
C339 C 0.07567 0.52026 0.01537 0.0
C340 C 0.04939 0.56639 0.94936 0.0
C341 C 0.10209 0.58962 0.94072 0.0
C342 C 0.0833 0.54151 0.98886 0.0
C343 C 0.14428 0.58751 0.95659 0.0
C344 C 0.12046 0.52974 0.03243 0.0
C345 C 1.0166 0.48075 0.04958 0.0
N346 N 0.13399 0.56417 0.97996 0.0
N347 N 0.02516 0.49518 0.02429 0.0
H348 H 0.48695 0.93526 0.40508 0.0
H349 H 0.59572 0.11031 0.28077 0.0
H350 H 0.62056 0.09407 0.41167 0.0
H351 H 0.50004 0.9341 0.27412 0.0
H352 H 0.59871 0.10907 0.32901 0.0
H353 H 0.48391 0.93837 0.3571 0.0
C354 C 0.51564 0.97083 0.39646 0.0
C355 C 0.55422 0.01438 0.41243 0.0
C356 C 0.57704 0.07078 0.31692 0.0
C357 C 0.55071 0.01827 0.35749 0.0
C358 C 0.57545 0.07137 0.28938 0.0
C359 C 0.54739 0.02228 0.27327 0.0
C360 C 0.55003 0.02085 0.32842 0.0
C361 C 0.52123 0.97323 0.28565 0.0
C362 C 0.51396 0.97248 0.36905 0.0
C363 C 0.5904 0.05938 0.40011 0.0
N364 N 0.52309 0.97382 0.31244 0.0
N365 N 0.58765 0.06027 0.37335 0.0
H366 H 0.65942 0.56603 0.74114 0.0
H367 H 0.50212 0.44271 0.60183 0.0
H368 H 0.4916 0.45686 0.73358 0.0
H369 H 0.64059 0.59706 0.61068 0.0
H370 H 0.50377 0.43899 0.64993 0.0
H371 H 0.65988 0.56905 0.69282 0.0
C372 C 0.6229 0.54226 0.72931 0.0
C373 C 0.57538 0.51118 0.74134 0.0
C374 C 0.5337 0.47378 0.64137 0.0
C375 C 0.5757 0.51448 0.68636 0.0
C376 C 0.53281 0.47584 0.61399 0.0
C377 C 0.57122 0.52031 0.60243 0.0
C378 C 0.5738 0.51605 0.65727 0.0
C379 C 0.61007 0.56235 0.61897 0.0
C380 C 0.6231 0.54439 0.70183 0.0
C381 C 0.52906 0.48155 0.72513 0.0
N382 N 0.61066 0.55902 0.64563 0.0
N383 N 0.53043 0.48379 0.69847 0.0
H384 H 0.63884 0.08357 0.58664 0.0
H385 H 0.49164 0.93003 0.71129 0.0
H386 H 0.49835 0.93038 0.57957 0.0
H387 H 0.63586 0.07936 0.71727 0.0
H388 H 0.49462 0.92741 0.66298 0.0
H389 H 0.63937 0.08104 0.63459 0.0
C390 C 0.60814 0.04929 0.59514 0.0
C391 C 0.56832 0.00726 0.57903 0.0
C392 C 0.52566 0.96066 0.67488 0.0
C393 C 0.56867 0.00418 0.63403 0.0
C394 C 0.52411 0.96202 0.70244 0.0
C395 C 0.56333 0.0052 0.7183 0.0
C396 C 0.56676 0.00276 0.66316 0.0
C397 C 0.60423 0.04587 0.7058 0.0
C398 C 0.60849 0.04787 0.62256 0.0
C399 C 0.52973 0.96379 0.59121 0.0
N400 N 0.60478 0.04373 0.67899 0.0
N401 N 0.53075 0.9635 0.618 0.0
H402 H 0.61523 0.48174 0.9112 0.0
H403 H 0.50303 0.56125 0.04594 0.0
H404 H 0.48732 0.54362 0.91245 0.0
H405 H 0.5839 0.44632 0.03962 0.0
H406 H 0.50287 0.5631 -0.00223 0.0
H407 H 0.61117 0.47722 0.95904 0.0
C408 C 0.5863 0.49451 0.92154 0.0
C409 C 0.55159 0.51321 0.9078 0.0
C410 C 0.52048 0.5374 0.00699 0.0
C411 C 0.54698 0.50831 0.96271 0.0
C412 C 0.52041 0.53606 0.0345 0.0
C413 C 0.54358 0.50357 0.04704 0.0
C414 C 0.54449 0.50664 -0.00814 0.0
C415 C 0.56646 0.4728 0.03104 0.0
C416 C 0.58387 0.49164 0.94887 0.0
C417 C 0.51471 0.52882 0.92227 0.0
N418 N 0.56656 0.47532 0.00436 0.0
N419 N 0.5136 0.52639 0.94901 0.0
H420 H 0.97504 0.41662 0.23328 0.0
H421 H 0.04648 0.61523 0.36793 0.0
H422 H 0.07693 0.59118 0.2388 0.0
H423 H 0.97673 0.43626 0.36602 0.0
H424 H 0.04687 0.60773 0.31967 0.0
H425 H 0.96479 0.42368 0.2812 0.0
C426 C 0.99513 0.45641 0.24451 0.0
C427 C 0.02719 0.50329 0.232 0.0
C428 C 0.03126 0.57008 0.3298 0.0
C429 C 1.0153 0.51164 0.28666 0.0
C430 C 0.03115 0.57434 0.35735 0.0
C431 C 1.01202 0.52631 0.37106 0.0
C432 C 1.01196 0.51741 0.31578 0.0
C433 C 0.99152 0.47441 0.35627 0.0
C434 C 0.9893 0.46036 0.27184 0.0
C435 C 0.05221 0.55377 0.24756 0.0
N436 N 0.9923 0.47131 0.32941 0.0
N437 N 0.04571 0.55657 0.27403 0.0
loop_
_geom_bond_atom_site_label_1
_geom_bond_atom_site_label_2
_geom_bond_distance
_geom_bond_site_symmetry_2
_ccdc_geom_bond_type
Tb0 O3 2.453 1_455 S
Tb0 O4 2.596 1_455 S
Tb0 O5 2.374 . S
Tb0 O13 2.343 . S
Tb0 O15 2.353 . S
Tb0 O17 2.427 . S
Tb0 O18 2.513 . S
C1 O5 1.251 . S
C1 O7 1.263 . S
Tb2 O4 2.343 1_455 S
Tb2 O7 2.353 . S
Tb2 O10 2.427 1_455 S
Tb2 O11 2.513 1_455 S
Tb2 O12 2.453 . S
Tb2 O13 2.596 . S
Tb2 O14 2.374 . S
O3 Tb0 2.453 1_655 S
O3 C19 1.245 . S
O4 Tb0 2.596 1_655 S
O4 Tb2 2.343 1_655 S
O4 C19 1.259 . S
O5 Tb0 2.374 . S
O5 C1 1.251 . S
C6 O10 1.275 . S
C6 O11 1.246 . S
O7 C1 1.263 . S
O7 Tb2 2.353 . S
C8 O12 1.245 . S
C8 O13 1.259 . S
C9 O14 1.250 . S
C9 O15 1.263 . S
O10 Tb2 2.427 1_655 S
O10 C6 1.275 . S
O11 Tb2 2.513 1_655 S
O11 C6 1.246 . S
O12 Tb2 2.453 . S
O12 C8 1.245 . S
O13 Tb0 2.343 . S
O13 Tb2 2.596 . S
O13 C8 1.259 . S
O14 Tb2 2.374 . S
O14 C9 1.250 . S
O15 Tb0 2.353 . S
O15 C9 1.263 . S
C16 O17 1.275 . S
C16 O18 1.246 . S
O17 Tb0 2.427 . S
O17 C16 1.275 . S
O18 Tb0 2.513 . S
O18 C16 1.246 . S
C19 O3 1.245 . S
C19 O4 1.259 . S
Tb20 O23 2.453 . S
Tb20 O24 2.596 . S
Tb20 O25 2.374 . S
Tb20 O33 2.343 1_545 S
Tb20 O35 2.353 . S
Tb20 O37 2.427 1_545 S
Tb20 O38 2.513 1_545 S
C21 O25 1.251 . S
C21 O27 1.263 . S
Tb22 O24 2.343 . S
Tb22 O27 2.353 . S
Tb22 O30 2.427 . S
Tb22 O31 2.513 . S
Tb22 O32 2.453 1_545 S
Tb22 O33 2.596 1_545 S
Tb22 O34 2.374 . S
O23 Tb20 2.453 . S
O23 C39 1.245 . S
O24 Tb20 2.596 . S
O24 Tb22 2.343 . S
O24 C39 1.259 . S
O25 Tb20 2.374 . S
O25 C21 1.251 . S
C26 O30 1.275 . S
C26 O31 1.246 . S
O27 C21 1.263 . S
O27 Tb22 2.353 . S
C28 O32 1.245 . S
C28 O33 1.259 . S
C29 O34 1.250 . S
C29 O35 1.263 . S
O30 Tb22 2.427 . S
O30 C26 1.275 . S
O31 Tb22 2.513 . S
O31 C26 1.246 . S
O32 Tb22 2.453 1_565 S
O32 C28 1.245 . S
O33 Tb20 2.343 1_565 S
O33 Tb22 2.596 1_565 S
O33 C28 1.259 . S
O34 Tb22 2.374 . S
O34 C29 1.250 . S
O35 Tb20 2.353 . S
O35 C29 1.263 . S
C36 O37 1.275 . S
C36 O38 1.246 . S
O37 Tb20 2.427 1_565 S
O37 C36 1.275 . S
O38 Tb20 2.513 1_565 S
O38 C36 1.246 . S
C39 O23 1.245 . S
C39 O24 1.259 . S
Tb40 O43 2.453 . S
Tb40 O44 2.596 . S
Tb40 O45 2.374 . S
Tb40 O53 2.343 . S
Tb40 O55 2.353 . S
Tb40 O57 2.427 . S
Tb40 O58 2.513 . S
C41 O45 1.251 . S
C41 O47 1.263 . S
Tb42 O44 2.343 . S
Tb42 O47 2.353 . S
Tb42 O50 2.427 . S
Tb42 O51 2.513 . S
Tb42 O52 2.453 . S
Tb42 O53 2.596 . S
Tb42 O54 2.374 . S
O43 Tb40 2.453 . S
O43 C59 1.245 . S
O44 Tb40 2.596 . S
O44 Tb42 2.343 . S
O44 C59 1.259 . S
O45 Tb40 2.374 . S
O45 C41 1.251 . S
C46 O50 1.275 . S
C46 O51 1.246 . S
O47 C41 1.263 . S
O47 Tb42 2.353 . S
C48 O52 1.245 . S
C48 O53 1.259 . S
C49 O54 1.250 . S
C49 O55 1.263 . S
O50 Tb42 2.427 . S
O50 C46 1.275 . S
O51 Tb42 2.513 . S
O51 C46 1.246 . S
O52 Tb42 2.453 . S
O52 C48 1.245 . S
O53 Tb40 2.343 . S
O53 Tb42 2.596 . S
O53 C48 1.259 . S
O54 Tb42 2.374 . S
O54 C49 1.250 . S
O55 Tb40 2.353 . S
O55 C49 1.263 . S
C56 O57 1.275 . S
C56 O58 1.246 . S
O57 Tb40 2.427 . S
O57 C56 1.275 . S
O58 Tb40 2.513 . S
O58 C56 1.246 . S
C59 O43 1.245 . S
C59 O44 1.259 . S
H60 C63 0.931 1_565 S
H61 C66 0.928 . S
H62 C68 0.930 . S
C63 H60 0.931 1_545 S
C63 C64 1.413 1_545 S
C63 C65 1.360 . S
C64 C63 1.413 1_565 S
C64 C68 1.429 1_565 S
C65 C63 1.360 . S
C65 C66 1.372 . S
C66 H61 0.928 . S
C66 C65 1.372 . S
C66 C67 1.404 . S
C67 C66 1.404 . S
C67 C68 1.391 . S
C68 H62 0.930 . S
C68 C64 1.429 1_545 S
C68 C67 1.391 . S
H69 C72 0.931 . S
H70 C75 0.928 . S
H71 C77 0.930 . S
C72 H69 0.931 . S
C72 C73 1.413 . S
C72 C74 1.360 . S
C73 C72 1.413 . S
C73 C77 1.429 . S
C74 C72 1.360 . S
C74 C75 1.372 . S
C75 H70 0.928 . S
C75 C74 1.372 . S
C75 C76 1.404 . S
C76 C75 1.404 . S
C76 C77 1.391 . S
C77 H71 0.930 . S
C77 C73 1.429 . S
C77 C76 1.391 . S
H78 C81 0.931 1_655 S
H79 C84 0.928 . S
H80 C86 0.930 . S
C81 H78 0.931 1_455 S
C81 C82 1.413 . S
C81 C83 1.360 . S
C82 C81 1.413 . S
C82 C86 1.429 . S
C83 C81 1.360 . S
C83 C84 1.372 . S
C84 H79 0.928 . S
C84 C83 1.372 . S
C84 C85 1.404 . S
C85 C84 1.404 . S
C85 C86 1.391 . S
C86 H80 0.930 . S
C86 C82 1.429 . S
C86 C85 1.391 . S
H87 C90 0.931 . S
H88 C93 0.928 . S
H89 C95 0.930 . S
C90 H87 0.931 . S
C90 C91 1.413 . S
C90 C92 1.360 1_655 S
C91 C90 1.413 . S
C91 C95 1.429 1_655 S
C92 C90 1.360 1_455 S
C92 C93 1.372 . S
C93 H88 0.928 . S
C93 C92 1.372 . S
C93 C94 1.404 . S
C94 C93 1.404 . S
C94 C95 1.391 . S
C95 H89 0.930 . S
C95 C91 1.429 1_455 S
C95 C94 1.391 . S
H96 C99 0.931 . S
H97 C102 0.928 . S
H98 C104 0.930 . S
C99 H96 0.931 . S
C99 C100 1.413 . S
C99 C101 1.360 . S
C100 C99 1.413 . S
C100 C104 1.429 . S
C101 C99 1.360 . S
C101 C102 1.372 1_545 S
C102 H97 0.928 . S
C102 C101 1.372 1_565 S
C102 C103 1.404 . S
C103 C102 1.404 . S
C103 C104 1.391 1_565 S
C104 H98 0.930 . S
C104 C100 1.429 . S
C104 C103 1.391 1_545 S
H105 C108 0.931 . S
H106 C111 0.928 . S
H107 C113 0.930 . S
C108 H105 0.931 . S
C108 C109 1.413 . S
C108 C110 1.360 . S
C109 C108 1.413 . S
C109 C113 1.429 . S
C110 C108 1.360 . S
C110 C111 1.372 . S
C111 H106 0.928 . S
C111 C110 1.372 . S
C111 C112 1.404 . S
C112 C111 1.404 . S
C112 C113 1.391 . S
C113 H107 0.930 . S
C113 C109 1.429 . S
C113 C112 1.391 . S
H114 C120 0.930 . S
H115 C124 0.930 . S
H116 C129 0.929 . S
H117 C127 0.929 . S
H118 C122 0.929 . S
H119 C128 0.929 . S
C120 H114 0.930 . S
C120 C121 1.367 . S
C120 C128 1.378 . S
C121 C120 1.367 . S
C121 C129 1.433 . S
C122 H118 0.929 . S
C122 C124 1.378 . S
C122 C126 1.350 . S
C123 C126 1.463 . S
C123 C128 1.350 . S
C123 N131 1.427 . S
C124 H115 0.930 . S
C124 C122 1.378 . S
C124 C125 1.367 . S
C125 C124 1.367 . S
C125 C127 1.433 . S
C126 C122 1.350 . S
C126 C123 1.463 . S
C126 N130 1.427 . S
C127 H117 0.929 . S
C127 C125 1.433 . S
C127 N130 1.384 . S
C128 H119 0.929 . S
C128 C120 1.378 . S
C128 C123 1.350 . S
C129 H116 0.929 . S
C129 C121 1.433 . S
C129 N131 1.384 . S
N130 C126 1.427 . S
N130 C127 1.384 . S
N131 C123 1.427 . S
N131 C129 1.384 . S
H132 C138 0.930 . S
H133 C142 0.930 . S
H134 C147 0.929 . S
H135 C145 0.929 . S
H136 C140 0.929 . S
H137 C146 0.929 . S
C138 H132 0.930 . S
C138 C139 1.367 . S
C138 C146 1.378 . S
C139 C138 1.367 . S
C139 C147 1.433 . S
C140 H136 0.929 . S
C140 C142 1.378 . S
C140 C144 1.350 . S
C141 C144 1.463 . S
C141 C146 1.350 . S
C141 N149 1.427 . S
C142 H133 0.930 . S
C142 C140 1.378 . S
C142 C143 1.367 . S
C143 C142 1.367 . S
C143 C145 1.433 . S
C144 C140 1.350 . S
C144 C141 1.463 . S
C144 N148 1.427 . S
C145 H135 0.929 . S
C145 C143 1.433 . S
C145 N148 1.384 . S
C146 H137 0.929 . S
C146 C138 1.378 . S
C146 C141 1.350 . S
C147 H134 0.929 . S
C147 C139 1.433 . S
C147 N149 1.384 . S
N148 C144 1.427 . S
N148 C145 1.384 . S
N149 C141 1.427 . S
N149 C147 1.384 . S
H150 C156 0.930 . S
H151 C160 0.930 . S
H152 C165 0.929 . S
H153 C163 0.929 . S
H154 C158 0.929 . S
H155 C164 0.929 . S
C156 H150 0.930 . S
C156 C157 1.367 . S
C156 C164 1.378 . S
C157 C156 1.367 . S
C157 C165 1.433 . S
C158 H154 0.929 . S
C158 C160 1.378 . S
C158 C162 1.350 . S
C159 C162 1.463 . S
C159 C164 1.350 . S
C159 N167 1.427 . S
C160 H151 0.930 . S
C160 C158 1.378 . S
C160 C161 1.367 . S
C161 C160 1.367 . S
C161 C163 1.433 . S
C162 C158 1.350 . S
C162 C159 1.463 . S
C162 N166 1.427 . S
C163 H153 0.929 . S
C163 C161 1.433 . S
C163 N166 1.384 . S
C164 H155 0.929 . S
C164 C156 1.378 . S
C164 C159 1.350 . S
C165 H152 0.929 . S
C165 C157 1.433 . S
C165 N167 1.384 . S
N166 C162 1.427 . S
N166 C163 1.384 . S
N167 C159 1.427 . S
N167 C165 1.384 . S
H168 C174 0.930 . S
H169 C178 0.930 . S
H170 C183 0.929 . S
H171 C181 0.929 . S
H172 C176 0.929 . S
H173 C182 0.929 . S
C174 H168 0.930 . S
C174 C175 1.367 . S
C174 C182 1.378 . S
C175 C174 1.367 . S
C175 C183 1.433 . S
C176 H172 0.929 . S
C176 C178 1.378 . S
C176 C180 1.350 . S
C177 C180 1.463 . S
C177 C182 1.350 . S
C177 N185 1.427 . S
C178 H169 0.930 . S
C178 C176 1.378 . S
C178 C179 1.367 . S
C179 C178 1.367 . S
C179 C181 1.433 . S
C180 C176 1.350 . S
C180 C177 1.463 . S
C180 N184 1.427 . S
C181 H171 0.929 . S
C181 C179 1.433 . S
C181 N184 1.384 . S
C182 H173 0.929 . S
C182 C174 1.378 . S
C182 C177 1.350 . S
C183 H170 0.929 . S
C183 C175 1.433 . S
C183 N185 1.384 . S
N184 C180 1.427 . S
N184 C181 1.384 . S
N185 C177 1.427 . S
N185 C183 1.384 . S
H186 C192 0.930 . S
H187 C196 0.930 . S
H188 C201 0.929 . S
H189 C199 0.929 . S
H190 C194 0.929 . S
H191 C200 0.929 . S
C192 H186 0.930 . S
C192 C193 1.367 . S
C192 C200 1.378 . S
C193 C192 1.367 . S
C193 C201 1.433 . S
C194 H190 0.929 . S
C194 C196 1.378 . S
C194 C198 1.350 . S
C195 C198 1.463 . S
C195 C200 1.350 . S
C195 N203 1.427 . S
C196 H187 0.930 . S
C196 C194 1.378 . S
C196 C197 1.367 . S
C197 C196 1.367 . S
C197 C199 1.433 . S
C198 C194 1.350 . S
C198 C195 1.463 . S
C198 N202 1.427 . S
C199 H189 0.929 . S
C199 C197 1.433 . S
C199 N202 1.384 . S
C200 H191 0.929 . S
C200 C192 1.378 . S
C200 C195 1.350 . S
C201 H188 0.929 . S
C201 C193 1.433 . S
C201 N203 1.384 . S
N202 C198 1.427 . S
N202 C199 1.384 . S
N203 C195 1.427 . S
N203 C201 1.384 . S
H204 C210 0.930 . S
H205 C214 0.930 . S
H206 C219 0.929 . S
H207 C217 0.929 . S
H208 C212 0.929 . S
H209 C218 0.929 . S
C210 H204 0.930 . S
C210 C211 1.367 . S
C210 C218 1.378 . S
C211 C210 1.367 . S
C211 C219 1.433 . S
C212 H208 0.929 . S
C212 C214 1.378 . S
C212 C216 1.350 . S
C213 C216 1.463 . S
C213 C218 1.350 . S
C213 N221 1.427 . S
C214 H205 0.930 . S
C214 C212 1.378 . S
C214 C215 1.367 . S
C215 C214 1.367 . S
C215 C217 1.433 . S
C216 C212 1.350 . S
C216 C213 1.463 . S
C216 N220 1.427 . S
C217 H207 0.929 . S
C217 C215 1.433 . S
C217 N220 1.384 . S
C218 H209 0.929 . S
C218 C210 1.378 . S
C218 C213 1.350 . S
C219 H206 0.929 . S
C219 C211 1.433 . S
C219 N221 1.384 . S
N220 C216 1.427 . S
N220 C217 1.384 . S
N221 C213 1.427 . S
N221 C219 1.384 . S
H222 C228 0.930 . S
H223 C232 0.930 . S
H224 C237 0.929 . S
H225 C235 0.929 . S
H226 C230 0.929 . S
H227 C236 0.929 . S
C228 H222 0.930 . S
C228 C229 1.367 . S
C228 C236 1.378 . S
C229 C228 1.367 . S
C229 C237 1.433 . S
C230 H226 0.929 . S
C230 C232 1.378 . S
C230 C234 1.350 . S
C231 C234 1.463 . S
C231 C236 1.350 . S
C231 N239 1.427 . S
C232 H223 0.930 . S
C232 C230 1.378 . S
C232 C233 1.367 . S
C233 C232 1.367 . S
C233 C235 1.433 . S
C234 C230 1.350 . S
C234 C231 1.463 . S
C234 N238 1.427 . S
C235 H225 0.929 . S
C235 C233 1.433 . S
C235 N238 1.384 . S
C236 H227 0.929 . S
C236 C228 1.378 . S
C236 C231 1.350 . S
C237 H224 0.929 . S
C237 C229 1.433 . S
C237 N239 1.384 . S
N238 C234 1.427 . S
N238 C235 1.384 . S
N239 C231 1.427 . S
N239 C237 1.384 . S
H240 C246 0.930 . S
H241 C250 0.930 . S
H242 C255 0.929 . S
H243 C253 0.929 . S
H244 C248 0.929 . S
H245 C254 0.929 . S
C246 H240 0.930 . S
C246 C247 1.367 . S
C246 C254 1.378 . S
C247 C246 1.367 . S
C247 C255 1.433 . S
C248 H244 0.929 . S
C248 C250 1.378 . S
C248 C252 1.350 . S
C249 C252 1.463 . S
C249 C254 1.350 . S
C249 N257 1.427 . S
C250 H241 0.930 . S
C250 C248 1.378 . S
C250 C251 1.367 . S
C251 C250 1.367 . S
C251 C253 1.433 . S
C252 C248 1.350 . S
C252 C249 1.463 . S
C252 N256 1.427 . S
C253 H243 0.929 . S
C253 C251 1.433 . S
C253 N256 1.384 . S
C254 H245 0.929 . S
C254 C246 1.378 . S
C254 C249 1.350 . S
C255 H242 0.929 . S
C255 C247 1.433 . S
C255 N257 1.384 . S
N256 C252 1.427 . S
N256 C253 1.384 . S
N257 C249 1.427 . S
N257 C255 1.384 . S
H258 C264 0.930 . S
H259 C268 0.930 . S
H260 C273 0.929 . S
H261 C271 0.929 . S
H262 C266 0.929 . S
H263 C272 0.929 . S
C264 H258 0.930 . S
C264 C265 1.367 . S
C264 C272 1.378 . S
C265 C264 1.367 . S
C265 C273 1.433 . S
C266 H262 0.929 . S
C266 C268 1.378 . S
C266 C270 1.350 . S
C267 C270 1.463 . S
C267 C272 1.350 . S
C267 N275 1.427 . S
C268 H259 0.930 . S
C268 C266 1.378 . S
C268 C269 1.367 . S
C269 C268 1.367 . S
C269 C271 1.433 . S
C270 C266 1.350 . S
C270 C267 1.463 . S
C270 N274 1.427 . S
C271 H261 0.929 . S
C271 C269 1.433 . S
C271 N274 1.384 . S
C272 H263 0.929 . S
C272 C264 1.378 . S
C272 C267 1.350 . S
C273 H260 0.929 . S
C273 C265 1.433 . S
C273 N275 1.384 . S
N274 C270 1.427 . S
N274 C271 1.384 . S
N275 C267 1.427 . S
N275 C273 1.384 . S
H276 C282 0.930 . S
H277 C286 0.930 . S
H278 C291 0.929 . S
H279 C289 0.929 . S
H280 C284 0.929 . S
H281 C290 0.929 . S
C282 H276 0.930 . S
C282 C283 1.367 . S
C282 C290 1.378 . S
C283 C282 1.367 . S
C283 C291 1.433 . S
C284 H280 0.929 . S
C284 C286 1.378 . S
C284 C288 1.350 . S
C285 C288 1.463 . S
C285 C290 1.350 . S
C285 N293 1.427 . S
C286 H277 0.930 . S
C286 C284 1.378 . S
C286 C287 1.367 . S
C287 C286 1.367 . S
C287 C289 1.433 . S
C288 C284 1.350 . S
C288 C285 1.463 . S
C288 N292 1.427 . S
C289 H279 0.929 . S
C289 C287 1.433 . S
C289 N292 1.384 . S
C290 H281 0.929 . S
C290 C282 1.378 . S
C290 C285 1.350 . S
C291 H278 0.929 . S
C291 C283 1.433 . S
C291 N293 1.384 . S
N292 C288 1.427 . S
N292 C289 1.384 . S
N293 C285 1.427 . S
N293 C291 1.384 . S
H294 C300 0.930 . S
H295 C304 0.930 . S
H296 C309 0.929 . S
H297 C307 0.929 . S
H298 C302 0.929 . S
H299 C308 0.929 . S
C300 H294 0.930 . S
C300 C301 1.367 . S
C300 C308 1.378 . S
C301 C300 1.367 . S
C301 C309 1.433 . S
C302 H298 0.929 . S
C302 C304 1.378 . S
C302 C306 1.350 . S
C303 C306 1.463 . S
C303 C308 1.350 . S
C303 N311 1.427 . S
C304 H295 0.930 . S
C304 C302 1.378 . S
C304 C305 1.367 . S
C305 C304 1.367 . S
C305 C307 1.433 . S
C306 C302 1.350 . S
C306 C303 1.463 . S
C306 N310 1.427 . S
C307 H297 0.929 . S
C307 C305 1.433 . S
C307 N310 1.384 . S
C308 H299 0.929 . S
C308 C300 1.378 . S
C308 C303 1.350 . S
C309 H296 0.929 . S
C309 C301 1.433 . S
C309 N311 1.384 . S
N310 C306 1.427 . S
N310 C307 1.384 . S
N311 C303 1.427 . S
N311 C309 1.384 . S
H312 C318 0.930 . S
H313 C322 0.930 . S
H314 C327 0.929 . S
H315 C325 0.929 . S
H316 C320 0.929 . S
H317 C326 0.929 . S
C318 H312 0.930 . S
C318 C319 1.367 . S
C318 C326 1.378 . S
C319 C318 1.367 . S
C319 C327 1.433 . S
C320 H316 0.929 . S
C320 C322 1.378 . S
C320 C324 1.350 . S
C321 C324 1.463 . S
C321 C326 1.350 . S
C321 N329 1.427 . S
C322 H313 0.930 . S
C322 C320 1.378 . S
C322 C323 1.367 . S
C323 C322 1.367 . S
C323 C325 1.433 . S
C324 C320 1.350 . S
C324 C321 1.463 . S
C324 N328 1.427 . S
C325 H315 0.929 . S
C325 C323 1.433 . S
C325 N328 1.384 . S
C326 H317 0.929 . S
C326 C318 1.378 . S
C326 C321 1.350 . S
C327 H314 0.929 . S
C327 C319 1.433 . S
C327 N329 1.384 . S
N328 C324 1.427 . S
N328 C325 1.384 . S
N329 C321 1.427 . S
N329 C327 1.384 . S
H330 C336 0.930 . S
H331 C340 0.930 1_655 S
H332 C345 0.929 1_655 S
H333 C343 0.929 . S
H334 C338 0.929 1_655 S
H335 C344 0.929 . S
C336 H330 0.930 . S
C336 C337 1.367 . S
C336 C344 1.378 . S
C337 C336 1.367 . S
C337 C345 1.433 . S
C338 H334 0.929 1_455 S
C338 C340 1.378 . S
C338 C342 1.350 . S
C339 C342 1.463 1_554 S
C339 C344 1.350 . S
C339 N347 1.427 . S
C340 H331 0.930 1_455 S
C340 C338 1.378 . S
C340 C341 1.367 . S
C341 C340 1.367 . S
C341 C343 1.433 . S
C342 C338 1.350 . S
C342 C339 1.463 1_556 S
C342 N346 1.427 . S
C343 H333 0.929 . S
C343 C341 1.433 . S
C343 N346 1.384 . S
C344 H335 0.929 . S
C344 C336 1.378 . S
C344 C339 1.350 . S
C345 H332 0.929 1_455 S
C345 C337 1.433 . S
C345 N347 1.384 . S
N346 C342 1.427 . S
N346 C343 1.384 . S
N347 C339 1.427 . S
N347 C345 1.384 . S
H348 C354 0.930 1_565 S
H349 C358 0.930 . S
H350 C363 0.929 . S
H351 C361 0.929 1_565 S
H352 C356 0.929 . S
H353 C362 0.929 1_565 S
C354 H348 0.930 1_545 S
C354 C355 1.367 . S
C354 C362 1.378 . S
C355 C354 1.367 . S
C355 C363 1.433 . S
C356 H352 0.929 . S
C356 C358 1.378 . S
C356 C360 1.350 . S
C357 C360 1.463 . S
C357 C362 1.350 . S
C357 N365 1.427 . S
C358 H349 0.930 . S
C358 C356 1.378 . S
C358 C359 1.367 . S
C359 C358 1.367 . S
C359 C361 1.433 . S
C360 C356 1.350 . S
C360 C357 1.463 . S
C360 N364 1.427 . S
C361 H351 0.929 1_545 S
C361 C359 1.433 . S
C361 N364 1.384 . S
C362 H353 0.929 1_545 S
C362 C354 1.378 . S
C362 C357 1.350 . S
C363 H350 0.929 . S
C363 C355 1.433 . S
C363 N365 1.384 . S
N364 C360 1.427 . S
N364 C361 1.384 . S
N365 C357 1.427 . S
N365 C363 1.384 . S
H366 C372 0.930 . S
H367 C376 0.930 . S
H368 C381 0.929 . S
H369 C379 0.929 . S
H370 C374 0.929 . S
H371 C380 0.929 . S
C372 H366 0.930 . S
C372 C373 1.367 . S
C372 C380 1.378 . S
C373 C372 1.367 . S
C373 C381 1.433 . S
C374 H370 0.929 . S
C374 C376 1.378 . S
C374 C378 1.350 . S
C375 C378 1.463 . S
C375 C380 1.350 . S
C375 N383 1.427 . S
C376 H367 0.930 . S
C376 C374 1.378 . S
C376 C377 1.367 . S
C377 C376 1.367 . S
C377 C379 1.433 . S
C378 C374 1.350 . S
C378 C375 1.463 . S
C378 N382 1.427 . S
C379 H369 0.929 . S
C379 C377 1.433 . S
C379 N382 1.384 . S
C380 H371 0.929 . S
C380 C372 1.378 . S
C380 C375 1.350 . S
C381 H368 0.929 . S
C381 C373 1.433 . S
C381 N383 1.384 . S
N382 C378 1.427 . S
N382 C379 1.384 . S
N383 C375 1.427 . S
N383 C381 1.384 . S
H384 C390 0.930 . S
H385 C394 0.930 . S
H386 C399 0.929 . S
H387 C397 0.929 . S
H388 C392 0.929 . S
H389 C398 0.929 . S
C390 H384 0.930 . S
C390 C391 1.367 . S
C390 C398 1.378 . S
C391 C390 1.367 . S
C391 C399 1.433 1_545 S
C392 H388 0.929 . S
C392 C394 1.378 . S
C392 C396 1.350 1_565 S
C393 C396 1.463 . S
C393 C398 1.350 . S
C393 N401 1.427 1_545 S
C394 H385 0.930 . S
C394 C392 1.378 . S
C394 C395 1.367 1_565 S
C395 C394 1.367 1_545 S
C395 C397 1.433 . S
C396 C392 1.350 1_545 S
C396 C393 1.463 . S
C396 N400 1.427 . S
C397 H387 0.929 . S
C397 C395 1.433 . S
C397 N400 1.384 . S
C398 H389 0.929 . S
C398 C390 1.378 . S
C398 C393 1.350 . S
C399 H386 0.929 . S
C399 C391 1.433 1_565 S
C399 N401 1.384 . S
N400 C396 1.427 . S
N400 C397 1.384 . S
N401 C393 1.427 1_565 S
N401 C399 1.384 . S
H402 C408 0.930 . S
H403 C412 0.930 . S
H404 C417 0.929 . S
H405 C415 0.929 . S
H406 C410 0.929 . S
H407 C416 0.929 . S
C408 H402 0.930 . S
C408 C409 1.367 . S
C408 C416 1.378 . S
C409 C408 1.367 . S
C409 C417 1.433 . S
C410 H406 0.929 . S
C410 C412 1.378 . S
C410 C414 1.350 1_554 S
C411 C414 1.463 . S
C411 C416 1.350 . S
C411 N419 1.427 . S
C412 H403 0.930 . S
C412 C410 1.378 . S
C412 C413 1.367 . S
C413 C412 1.367 . S
C413 C415 1.433 . S
C414 C410 1.350 1_556 S
C414 C411 1.463 . S
C414 N418 1.427 1_556 S
C415 H405 0.929 . S
C415 C413 1.433 . S
C415 N418 1.384 . S
C416 H407 0.929 . S
C416 C408 1.378 . S
C416 C411 1.350 . S
C417 H404 0.929 . S
C417 C409 1.433 . S
C417 N419 1.384 . S
N418 C414 1.427 1_554 S
N418 C415 1.384 . S
N419 C411 1.427 . S
N419 C417 1.384 . S
H420 C426 0.930 . S
H421 C430 0.930 . S
H422 C435 0.929 . S
H423 C433 0.929 . S
H424 C428 0.929 . S
H425 C434 0.934 1_655 S
C426 H420 0.930 . S
C426 C427 1.367 . S
C426 C434 1.378 . S
C427 C426 1.367 . S
C427 C435 1.433 . S
C428 H424 0.929 . S
C428 C430 1.378 . S
C428 C432 1.350 . S
C429 C432 1.463 . S
C429 C434 1.350 . S
C429 N437 1.427 . S
C430 H421 0.930 . S
C430 C428 1.378 . S
C430 C431 1.367 . S
C431 C430 1.367 . S
C431 C433 1.433 1_455 S
C432 C428 1.350 . S
C432 C429 1.463 . S
C432 N436 1.427 1_455 S
C433 H423 0.929 . S
C433 C431 1.433 1_655 S
C433 N436 1.384 . S
C434 H425 0.934 1_455 S
C434 C426 1.378 . S
C434 C429 1.350 . S
C435 H422 0.929 . S
C435 C427 1.433 . S
C435 N437 1.384 . S
N436 C432 1.427 1_655 S
N436 C433 1.384 . S
N437 C429 1.427 . S
N437 C435 1.384 . S
C121 C8 1.863 . S
C125 C109 1.920 . S
C139 C26 1.295 . S
C143 C91 1.324 . S
C157 C48 1.432 . S
C161 C103 1.467 . S
C175 C19 1.704 . S
C179 C112 1.791 . S
C197 C94 1.400 . S
C193 C36 1.364 . S
C215 C100 1.623 . S
C211 C59 1.522 . S
C229 C28 1.448 . S
C233 C73 1.498 . S
C247 C46 1.129 . S
C251 C82 1.141 1_655 S
C265 C16 1.425 . S
C269 C64 1.452 . S
C287 C76 1.569 . S
C283 C39 1.501 . S
C305 C85 0.993 . S
C301 C56 0.984 . S
C319 C6 1.337 . S
C323 C67 1.354 . S
C341 C83 1.441 . S
C337 C9 1.411 . S
C355 C21 1.481 . S
C359 C65 1.505 . S
C373 C49 1.468 . S
C377 C74 1.484 . S
C395 C101 1.466 . S
C391 C29 1.446 . S
C413 C110 1.584 . S
C409 C41 1.569 . S
C427 C1 1.490 . S
C431 C92 1.509 . S
