# Generated by pormake.
# Topology rtl, (3,6)-cn, num edge types: 1
# Building blocks:
#     Node 0, Type 0, BuildingBlock: VETTIZ_charged_linker_0, # of connection points: 3
#     Node 1, Type 0, BuildingBlock: VETTIZ_charged_linker_0, # of connection points: 3
#     Node 2, Type 0, BuildingBlock: VETTIZ_charged_linker_0, # of connection points: 3
#     Node 3, Type 0, BuildingBlock: VETTIZ_charged_linker_0, # of connection points: 3
#     Node 4, Type 1, BuildingBlock: KUMBUR_clean_sbu_1, # of connection points: 6
#     Node 5, Type 1, BuildingBlock: KUMBUR_clean_sbu_1, # of connection points: 6
#     Edge 6, Type (0, 1), BuildingBlock: AJUNOK_clean_linker_0, # of connection points: 2
#     Edge 7, Type (0, 1), BuildingBlock: AJUNOK_clean_linker_0, # of connection points: 2
#     Edge 8, Type (0, 1), BuildingBlock: AJUNOK_clean_linker_0, # of connection points: 2
#     Edge 9, Type (0, 1), BuildingBlock: AJUNOK_clean_linker_0, # of connection points: 2
#     Edge 10, Type (0, 1), BuildingBlock: AJUNOK_clean_linker_0, # of connection points: 2
#     Edge 11, Type (0, 1), BuildingBlock: AJUNOK_clean_linker_0, # of connection points: 2
#     Edge 12, Type (0, 1), BuildingBlock: AJUNOK_clean_linker_0, # of connection points: 2
#     Edge 13, Type (0, 1), BuildingBlock: AJUNOK_clean_linker_0, # of connection points: 2
#     Edge 14, Type (0, 1), BuildingBlock: AJUNOK_clean_linker_0, # of connection points: 2
#     Edge 15, Type (0, 1), BuildingBlock: AJUNOK_clean_linker_0, # of connection points: 2
#     Edge 16, Type (0, 1), BuildingBlock: AJUNOK_clean_linker_0, # of connection points: 2
#     Edge 17, Type (0, 1), BuildingBlock: AJUNOK_clean_linker_0, # of connection points: 2
# Relax obj value: 0.018
# Max RMSD: 0.113
# Mean RMSD: 0.066
data_MOF--net-rtl--node1-KUMBUR_clean_sbu_1--node2-VETTIZ_charged_linker_0--edge1-AJUNOK_clean_linker_0
_symmetry_space_group_name_H-M    P1
_symmetry_Int_Tables_number       1
_symmetry_cell_setting            triclinic
loop_
_symmetry_equiv_pos_as_xyz
'x, y, z'
_cell_length_a     30.864217
_cell_length_b     31.722946
_cell_length_c     28.136532
_cell_angle_alpha  77.206102
_cell_angle_beta   98.398257
_cell_angle_gamma 91.002271
loop_
_atom_site_label
_atom_site_type_symbol
_atom_site_fract_x
_atom_site_fract_y
_atom_site_fract_z
_atom_type_partial_charge
C0 C 0.14258 0.89178 0.84997 0.0
C1 C 0.10925 0.92331 0.84006 0.0
C2 C 0.09417 0.93612 0.87977 0.0
C3 C 0.14522 0.88536 0.93803 0.0
C4 C 0.16013 0.8736 0.89871 0.0
C5 C 0.19603 0.84005 0.91458 0.0
H6 H 0.33585 0.71555 0.09551 0.0
C7 C 0.17091 0.86005 0.98394 0.0
C8 C 0.20103 0.83396 0.97003 0.0
H9 H 0.3177 0.71839 0.93933 0.0
H10 H 0.26208 0.77363 0.92509 0.0
H11 H 0.32443 0.81685 0.08963 0.0
H12 H 0.23415 0.71168 0.10038 0.0
H13 H 0.21871 0.74484 0.13739 0.0
H14 H 0.27233 0.71956 0.15206 0.0
H15 H 0.32333 0.77657 0.14539 0.0
H16 H 0.2892 0.82469 0.13078 0.0
C17 C 0.23755 0.8596 0.89368 0.0
C18 C 0.17945 0.79857 0.89743 0.0
C19 C 0.13505 0.86711 0.15369 0.0
C20 C 0.15464 0.84728 0.20173 0.0
C21 C 0.19334 0.82261 0.20811 0.0
C22 C 0.21141 0.81615 0.16747 0.0
C23 C 0.19067 0.83459 0.11969 0.0
C24 C 0.15386 0.86063 0.1132 0.0
C25 C 0.13813 0.87945 0.05934 0.0
C26 C 0.16983 0.85805 0.03486 0.0
C27 C 0.20031 0.83164 0.07065 0.0
C28 C 0.14378 0.92905 0.04968 0.0
C29 C 0.09043 0.86526 0.04686 0.0
C30 C 0.31955 0.72754 0.05828 0.0
C31 C 0.3313 0.71219 0.01856 0.0
C32 C 0.30981 0.72984 0.97062 0.0
C33 C 0.27712 0.76174 0.96242 0.0
C34 C 0.26513 0.77597 1.0026 0.0
C35 C 0.28594 0.7586 0.04958 0.0
C36 C 0.26651 0.77514 0.08812 0.0
C37 C 0.23116 0.80594 0.05633 0.0
C38 C 0.23098 0.80666 1.00635 0.0
C39 C 0.30259 0.79937 0.11538 0.0
C40 C 0.24708 0.73604 0.12166 0.0
H41 H 0.09885 0.92774 0.9576 0.0
H42 H 0.155 0.88154 0.82016 0.0
H43 H 0.14314 0.79634 0.8941 0.0
H44 H 0.1916 0.76858 0.92414 0.0
H45 H 0.1887 0.79796 0.86089 0.0
H46 H 0.24111 0.89398 0.89645 0.0
H47 H 0.23573 0.85862 0.85421 0.0
H48 H 0.26819 0.84337 0.91409 0.0
H49 H 0.10578 0.88701 0.1479 0.0
H50 H 0.209 0.80726 0.24477 0.0
H51 H 0.24053 0.79644 0.17489 0.0
H52 H 0.17319 0.93769 0.07336 0.0
H53 H 0.11491 0.94521 0.05774 0.0
H54 H 0.14939 0.9433 0.0116 0.0
H55 H 0.08708 0.83017 0.06266 0.0
H56 H 0.07959 0.86988 1.00692 0.0
H57 H 0.06745 0.88326 0.06237 0.0
H58 H 0.06821 0.96019 0.87288 0.0
C59 C 0.11191 0.91718 0.92879 0.0
C60 C 0.65874 0.66117 0.80063 0.0
C61 C 0.62585 0.63007 0.80847 0.0
C62 C 0.60482 0.61384 0.76861 0.0
C63 C 0.65075 0.65693 0.71458 0.0
C64 C 0.67079 0.67408 0.75319 0.0
C65 C 0.70628 0.70536 0.7375 0.0
H66 H 0.80992 0.81242 0.54942 0.0
C67 C 0.67201 0.6744 0.67096 0.0
C68 C 0.70463 0.70309 0.68368 0.0
H69 H 0.83706 0.82143 0.70204 0.0
H70 H 0.78072 0.769 0.72211 0.0
H71 H 0.81912 0.71569 0.57692 0.0
H72 H 0.7043 0.79726 0.5352 0.0
H73 H 0.70054 0.75665 0.50054 0.0
H74 H 0.74534 0.79335 0.49704 0.0
H75 H 0.79416 0.73089 0.51399 0.0
H76 H 0.77822 0.68268 0.55504 0.0
C77 C 0.75045 0.68812 0.76867 0.0
C78 C 0.69294 0.75059 0.74289 0.0
C79 C 0.6266 0.61868 0.51527 0.0
C80 C 0.64616 0.62149 0.47246 0.0
C81 C 0.68225 0.64913 0.46567 0.0
C82 C 0.69835 0.67317 0.50035 0.0
C83 C 0.67948 0.66862 0.54355 0.0
C84 C 0.64477 0.64113 0.55087 0.0
C85 C 0.63253 0.63616 0.60158 0.0
C86 C 0.66555 0.66554 0.62319 0.0
C87 C 0.69194 0.68538 0.58849 0.0
C88 C 0.63952 0.58791 0.62874 0.0
C89 C 0.58502 0.65351 0.596 0.0
C90 C 0.80486 0.80269 0.58751 0.0
C91 C 0.82896 0.82093 0.62413 0.0
C92 C 0.81909 0.80822 0.67278 0.0
C93 C 0.78651 0.77752 0.6845 0.0
C94 C 0.76403 0.75861 0.64743 0.0
C95 C 0.77421 0.77082 0.60013 0.0
C96 C 0.75183 0.74394 0.56649 0.0
C97 C 0.72348 0.71593 0.6001 0.0
C98 C 0.73026 0.72466 0.64754 0.0
C99 C 0.78742 0.71702 0.552 0.0
C100 C 0.72405 0.77422 0.52223 0.0
H101 H 0.5996 0.61336 0.69326 0.0
H102 H 0.67533 0.67413 0.83082 0.0
H103 H 0.65788 0.75773 0.7275 0.0
H104 H 0.71153 0.77683 0.72269 0.0
H105 H 0.69733 0.7524 0.78229 0.0
H106 H 0.75282 0.65234 0.77433 0.0
H107 H 0.75395 0.69613 0.80552 0.0
H108 H 0.77891 0.70063 0.75058 0.0
H109 H 0.59813 0.59913 0.52174 0.0
H110 H 0.69888 0.65174 0.43385 0.0
H111 H 0.72535 0.69387 0.49244 0.0
H112 H 0.66344 0.57123 0.61287 0.0
H113 H 0.60841 0.56985 0.62631 0.0
H114 H 0.65381 0.5839 0.66792 0.0
H115 H 0.57944 0.68321 0.56607 0.0
H116 H 0.57757 0.66324 0.6293 0.0
H117 H 0.56088 0.62918 0.58657 0.0
H118 H 0.57902 0.59037 0.77385 0.0
C119 C 0.61686 0.62723 0.72182 0.0
C120 C 0.85676 0.11312 0.2541 0.0
C121 C 0.89417 0.08646 0.26479 0.0
C122 C 0.91247 0.07569 0.22591 0.0
C123 C 0.85698 0.11956 0.16629 0.0
C124 C 0.83918 0.12978 0.20482 0.0
C125 C 0.80208 0.162 0.18726 0.0
H126 H 0.69735 0.31466 1.00484 0.0
C127 C 0.83263 0.14465 0.11953 0.0
C128 C 0.80083 0.16995 0.13184 0.0
H129 H 0.67207 0.27619 0.15589 0.0
H130 H 0.72466 0.21816 0.17116 0.0
H131 H 0.80142 0.2927 0.01584 0.0
H132 H 0.68423 0.22143 0.99101 0.0
H133 H 0.72387 0.19528 0.96841 0.0
H134 H 0.70918 0.2511 0.9405 0.0
H135 H 0.7604 0.3047 0.96214 0.0
H136 H 0.8041 0.26673 0.96664 0.0
C137 C 0.81522 0.20289 0.20728 0.0
C138 C 0.75971 0.14037 0.204 0.0
C139 C 0.8659 0.12558 0.9526 0.0
C140 C 0.84694 0.14444 0.90404 0.0
C141 C 0.81542 0.17775 0.89602 0.0
C142 C 0.80229 0.19182 0.93555 0.0
C143 C 0.82032 0.17198 0.98391 0.0
C144 C 0.85175 0.13958 0.99205 0.0
C145 C 0.86662 0.12224 0.04641 0.0
C146 C 0.83698 0.14773 0.06912 0.0
C147 C 0.81057 0.17732 0.03214 0.0
C148 C 0.91548 0.13356 0.05809 0.0
C149 C 0.85743 0.07326 0.05892 0.0
C150 C 0.7021 0.2935 0.04105 0.0
C151 C 0.68051 0.30117 0.07934 0.0
C152 C 0.68898 0.27244 0.12594 0.0
C153 C 0.71936 0.23834 0.13478 0.0
C154 C 0.74124 0.23201 0.09652 0.0
C155 C 0.73094 0.25801 0.05005 0.0
C156 C 0.7523 0.24203 0.01234 0.0
C157 C 0.78005 0.20445 0.04489 0.0
C158 C 0.77418 0.19961 0.09427 0.0
C159 C 0.78103 0.2784 0.98757 0.0
C160 C 0.71576 0.22685 0.97594 0.0
H161 H 0.90924 0.08268 0.14856 0.0
H162 H 0.84266 0.1223 0.28349 0.0
H163 H 0.76184 0.10452 0.21043 0.0
H164 H 0.73064 0.14961 0.17556 0.0
H165 H 0.75334 0.14839 0.23886 0.0
H166 H 0.84945 0.21194 0.20191 0.0
H167 H 0.81333 0.19711 0.24733 0.0
H168 H 0.79496 0.23163 0.18852 0.0
H169 H 0.89023 0.09991 0.95964 0.0
H170 H 0.80077 0.19285 0.85886 0.0
H171 H 0.77842 0.2175 0.92691 0.0
H172 H 0.92347 0.1643 0.03332 0.0
H173 H 0.93729 0.10782 0.05325 0.0
H174 H 0.92413 0.13924 0.09565 0.0
H175 H 0.824 0.06669 0.04152 0.0
H176 H 0.85847 0.05998 0.09877 0.0
H177 H 0.88128 0.05485 0.04508 0.0
H178 H 0.94156 0.05527 0.23374 0.0
C179 C 0.89385 0.09181 0.17667 0.0
C180 C 0.37363 0.36805 0.30132 0.0
C181 C 0.40892 0.39677 0.2961 0.0
C182 C 0.42977 0.41079 0.3377 0.0
C183 C 0.38109 0.36782 0.3886 0.0
C184 C 0.36056 0.35362 0.34804 0.0
C185 C 0.32447 0.32224 0.36127 0.0
H186 H 0.23455 0.18881 0.54445 0.0
C187 C 0.36157 0.3457 0.4321 0.0
C188 C 0.32916 0.31779 0.41685 0.0
H189 H 0.18582 0.21441 0.38831 0.0
H190 H 0.24447 0.26451 0.37217 0.0
H191 H 0.34 0.19969 0.54427 0.0
H192 H 0.2302 0.27948 0.54422 0.0
H193 H 0.27415 0.30788 0.56804 0.0
H194 H 0.26292 0.25404 0.60076 0.0
H195 H 0.30969 0.19701 0.59469 0.0
H196 H 0.35585 0.23222 0.58707 0.0
C197 C 0.33414 0.27919 0.34756 0.0
C198 C 0.28014 0.34357 0.33483 0.0
C199 C 0.40052 0.38903 0.59649 0.0
C200 C 0.38753 0.37246 0.64289 0.0
C201 C 0.36533 0.33295 0.65094 0.0
C202 C 0.35397 0.31147 0.61277 0.0
C203 C 0.36411 0.33 0.56571 0.0
C204 C 0.38873 0.36703 0.55849 0.0
C205 C 0.39842 0.38011 0.50624 0.0
C206 C 0.3711 0.34769 0.48249 0.0
C207 C 0.35108 0.31878 0.51764 0.0
C208 C 0.44828 0.37366 0.50683 0.0
C209 C 0.3817 0.42705 0.48407 0.0
C210 C 0.23594 0.20494 0.50656 0.0
C211 C 0.20572 0.19587 0.46781 0.0
C212 C 0.2095 0.21856 0.41918 0.0
C213 C 0.24319 0.24849 0.40975 0.0
C214 C 0.27249 0.25737 0.44936 0.0
C215 C 0.26742 0.23657 0.49679 0.0
C216 C 0.29529 0.25524 0.53501 0.0
C217 C 0.31967 0.28938 0.50287 0.0
C218 C 0.3074 0.28983 0.45266 0.0
C219 C 0.32682 0.21926 0.56738 0.0
C220 C 0.2644 0.27502 0.56378 0.0
H221 H 0.43296 0.40878 0.41378 0.0
H222 H 0.35715 0.3566 0.26998 0.0
H223 H 0.2809 0.37926 0.33084 0.0
H224 H 0.25287 0.33283 0.35584 0.0
H225 H 0.27213 0.33709 0.29734 0.0
H226 H 0.36822 0.26789 0.36325 0.0
H227 H 0.3306 0.28321 0.30694 0.0
H228 H 0.31232 0.25306 0.36186 0.0
H229 H 0.41824 0.41903 0.5897 0.0
H230 H 0.35468 0.3197 0.68618 0.0
H231 H 0.33641 0.28197 0.62106 0.0
H232 H 0.46421 0.35315 0.54223 0.0
H233 H 0.46552 0.40502 0.50151 0.0
H234 H 0.45498 0.35655 0.47824 0.0
H235 H 0.34769 0.43103 0.49129 0.0
H236 H 0.38069 0.43635 0.44373 0.0
H237 H 0.40273 0.45039 0.50063 0.0
H238 H 0.45667 0.43318 0.33445 0.0
C239 C 0.41601 0.39661 0.38373 0.0
Tb240 Tb 0.05402 0.96465 0.52582 0.0
C241 C 0.94429 0.12767 0.48094 0.0
N242 N 0.9806 0.11875 0.51526 0.0
C243 C 0.00983 0.18778 0.48155 0.0
C244 C 0.94048 0.16574 0.44354 0.0
C245 C 0.01159 0.14968 0.51817 0.0
C246 C 0.9746 0.19536 0.4433 0.0
C247 C 0.87038 0.10827 0.45237 0.0
C248 C 0.90972 0.09973 0.48537 0.0
C249 C 0.86714 0.14488 0.41329 0.0
C250 C 0.90219 0.17358 0.40884 0.0
Tb251 Tb 0.98259 0.05259 0.56933 0.0
N252 N 0.91483 0.06401 0.52266 0.0
C253 C 0.8355 0.07996 0.46012 0.0
C254 C 0.88018 0.03763 0.53215 0.0
C255 C 0.84021 0.0449 0.50069 0.0
H256 H 0.03732 0.14547 0.54917 0.0
H257 H 0.81312 0.02341 0.50766 0.0
H258 H 0.01873 0.86935 0.57766 0.0
H259 H 0.21954 0.02648 0.53333 0.0
H260 H 0.88365 0.01063 0.56348 0.0
H261 H 0.80462 0.08537 0.43565 0.0
H262 H 0.14385 0.01952 0.49497 0.0
H263 H 0.03526 0.21154 0.48333 0.0
H264 H 0.83743 0.15174 0.38697 0.0
H265 H 0.89888 0.20232 0.37934 0.0
H266 H 0.04504 0.80761 0.64564 0.0
H267 H 0.97306 0.22503 0.4152 0.0
H268 H 0.24887 0.97561 0.61114 0.0
N269 N 0.07677 0.90515 0.58635 0.0
C270 C 0.11824 0.90542 0.61016 0.0
C271 C 0.06592 0.83506 0.63626 0.0
C272 C 0.13472 0.87126 0.64956 0.0
C273 C 0.05099 0.87004 0.59773 0.0
C274 C 0.10778 0.83593 0.66281 0.0
N275 N 0.12738 0.97048 0.55391 0.0
C276 C 0.15484 0.99952 0.53055 0.0
C277 C 0.18815 0.9408 0.61616 0.0
C278 C 0.14422 0.93981 0.59393 0.0
C279 C 0.21492 0.97365 0.59529 0.0
C280 C 0.19844 1.00252 0.55154 0.0
H281 H 0.1192 0.80893 0.69281 0.0
H282 H 0.19082 0.84754 0.70446 0.0
H283 H 0.23783 0.90844 0.67496 0.0
O284 O 0.09235 0.9406 0.48107 0.0
O285 O 0.04674 0.95718 0.60361 0.0
O286 O 0.04617 0.02742 0.60896 0.0
O287 O 0.02314 0.92902 0.47619 0.0
O288 O 0.0691 0.03352 0.50147 0.0
O289 O 0.05177 0.06863 0.56046 0.0
O290 O 0.95699 0.0369 0.6367 0.0
O291 O 0.96007 0.02733 0.50332 0.0
O292 O 0.02284 0.02015 0.47182 0.0
O293 O 0.97251 0.10211 0.60556 0.0
O294 O 0.96314 0.98458 0.59159 0.0
O295 O 0.98637 0.94629 0.53724 0.0
C296 C 0.05235 0.98654 0.63011 0.0
C297 C 0.06558 0.88235 0.4452 0.0
C298 C 0.08473 0.84591 0.38313 0.0
C299 C 0.07144 0.80653 0.41063 0.0
C300 C 0.05244 0.84285 0.47233 0.0
C301 C 0.05567 0.80506 0.45514 0.0
C302 C 0.08219 0.88358 0.40103 0.0
C303 C 0.07357 0.06609 0.5239 0.0
C304 C 0.05897 0.92355 0.45895 0.0
C305 C 0.17764 0.8732 0.67369 0.0
C306 C 0.20434 0.90796 0.65701 0.0
C307 C 0.98133 0.03102 0.4657 0.0
C308 C 0.91571 0.09234 0.65432 0.0
C309 C 0.87546 0.1099 0.71657 0.0
C310 C 0.84055 0.12574 0.67895 0.0
C311 C 0.88056 0.10872 0.61766 0.0
C312 C 0.913 0.09278 0.70382 0.0
C313 C 0.84312 0.12499 0.63005 0.0
C314 C 0.96081 0.95141 0.5697 0.0
C315 C 0.95611 0.07675 0.64112 0.0
H316 H 0.07345 0.77697 0.39777 0.0
H317 H 0.03908 0.84131 0.50613 0.0
H318 H 0.04541 0.77461 0.47607 0.0
H319 H 0.09177 0.91422 0.37964 0.0
H320 H 0.81146 0.13962 0.68717 0.0
H321 H 0.88227 0.10964 0.57938 0.0
H322 H 0.94009 0.07994 0.73216 0.0
H323 H 0.8162 0.13771 0.60149 0.0
Tb324 Tb 0.4687 0.49324 0.9967 0.0
C325 C 0.63513 0.58573 0.05532 0.0
N326 N 0.62255 0.54454 0.07319 0.0
C327 C 0.69235 0.51775 0.06346 0.0
C328 C 0.67609 0.59423 0.03885 0.0
C329 C 0.65159 0.51098 0.07979 0.0
C330 C 0.70439 0.55946 0.04216 0.0
C331 C 0.6192 0.66285 0.03742 0.0
C332 C 0.60712 0.61972 0.0545 0.0
C333 C 0.65951 0.67135 0.01994 0.0
C334 C 0.68783 0.63712 0.02051 0.0
Tb335 Tb 0.55367 0.53871 0.09594 0.0
N336 N 0.56745 0.61026 0.06951 0.0
C337 C 0.59027 0.69608 0.03829 0.0
C338 C 0.54005 0.64251 0.07272 0.0
C339 C 0.55073 0.68584 0.05651 0.0
H340 H 0.64457 0.4791 0.09904 0.0
H341 H 0.52859 0.71132 0.05836 0.0
H342 H 0.38541 0.56374 0.97316 0.0
H343 H 0.47604 0.31856 0.06063 0.0
H344 H 0.51017 0.63505 0.08829 0.0
H345 H 0.59834 0.72967 0.02552 0.0
H346 H 0.50541 0.38944 0.02938 0.0
H347 H 0.71481 0.49081 0.06817 0.0
H348 H 0.66921 0.70427 1.00618 0.0
H349 H 0.71903 0.6442 1.00738 0.0
H350 H 0.30756 0.56258 0.98246 0.0
H351 H 0.73614 0.5646 0.0299 0.0
H352 H 0.3982 0.31136 0.07218 0.0
N353 N 0.396 0.49628 1.00301 0.0
C354 C 0.37688 0.45771 0.01816 0.0
C355 C 0.32676 0.53288 0.9932 0.0
C356 C 0.3319 0.45538 0.02256 0.0
C357 C 0.37139 0.53353 0.98918 0.0
C358 C 0.30694 0.49366 0.01019 0.0
N359 N 0.44604 0.42414 0.02542 0.0
C360 C 0.47196 0.38785 0.03535 0.0
C361 C 0.38426 0.37999 0.04732 0.0
C362 C 0.40278 0.42052 0.03022 0.0
C363 C 0.41115 0.34307 0.05893 0.0
C364 C 0.45511 0.34703 0.05262 0.0
H365 H 0.27232 0.49325 0.01319 0.0
H366 H 0.279 0.4127 0.0435 0.0
H367 H 0.32486 0.34668 0.06526 0.0
O368 O 0.45711 0.4611 0.9384 0.0
O369 O 0.45253 0.48519 0.0718 0.0
O370 O 0.52062 0.47729 0.11821 0.0
O371 O 0.44679 0.53009 0.92563 0.0
O372 O 0.53306 0.46003 0.01645 0.0
O373 O 0.56825 0.47168 0.0919 0.0
O374 O 0.53596 0.55423 0.15977 0.0
O375 O 0.54459 0.57157 0.01791 0.0
O376 O 0.53426 0.51394 0.98236 0.0
O377 O 0.60285 0.53975 0.15523 0.0
O378 O 0.4854 0.5611 0.08359 0.0
O379 O 0.46327 0.56097 1.00137 0.0
C380 C 0.47804 0.4718 0.11407 0.0
C381 C 0.40678 0.49307 0.86875 0.0
C382 C 0.37833 0.46754 0.7948 0.0
C383 C 0.33756 0.48689 0.79421 0.0
C384 C 0.36601 0.51249 0.86747 0.0
C385 C 0.33153 0.50921 0.8304 0.0
C386 C 0.4128 0.47101 0.83216 0.0
C387 C 0.56327 0.45022 0.05597 0.0
C388 C 0.44452 0.49638 0.90608 0.0
C389 C 0.31343 0.41511 0.03965 0.0
C390 C 0.33957 0.37753 0.0521 0.0
C391 C 0.54944 0.55264 0.98224 0.0
C392 C 0.5815 0.52206 0.23362 0.0
C393 C 0.59747 0.52169 0.32131 0.0
C394 C 0.60864 0.47738 0.33068 0.0
C395 C 0.59169 0.4778 0.24376 0.0
C396 C 0.58249 0.54322 0.27238 0.0
C397 C 0.60456 0.45547 0.29229 0.0
C398 C 0.46033 0.57546 0.04119 0.0
C399 C 0.57569 0.54819 0.18312 0.0
H400 H 0.31034 0.48452 0.76594 0.0
H401 H 0.36083 0.5306 0.89442 0.0
H402 H 0.3001 0.52416 0.8296 0.0
H403 H 0.44473 0.45718 0.83232 0.0
H404 H 0.62235 0.45979 0.36709 0.0
H405 H 0.59137 0.46102 0.21411 0.0
H406 H 0.57359 0.57725 0.26377 0.0
H407 H 0.61342 0.42152 0.29994 0.0
C408 C 0.15223 0.16011 0.52369 0.0
C409 C 0.16998 0.16411 0.47935 0.0
C410 C 0.12158 0.12839 0.53785 0.0
C411 C 0.10522 0.10052 0.50727 0.0
H412 H 0.1623 0.1814 0.54834 0.0
H413 H 0.11103 0.12555 0.57346 0.0
S414 S 0.139 0.09809 0.38614 0.0
N415 N 0.16921 0.13603 0.40547 0.0
N416 N 0.10763 0.08048 0.42885 0.0
C417 C 0.12109 0.10533 0.46172 0.0
C418 C 0.15409 0.13619 0.44844 0.0
C419 C 0.39552 0.67992 0.99309 0.0
C420 C 0.36524 0.67752 0.02656 0.0
C421 C 0.42641 0.6468 0.99819 0.0
C422 C 0.42886 0.61063 0.0376 0.0
H423 H 0.39537 0.70758 0.96257 0.0
H424 H 0.44875 0.64963 0.97134 0.0
S425 S 0.35701 0.5873 0.13438 0.0
N426 N 0.33881 0.63428 0.09932 0.0
N427 N 0.39891 0.57358 0.11034 0.0
C428 C 0.39964 0.60794 0.07182 0.0
C429 C 0.36734 0.64102 0.06599 0.0
C430 C 0.86995 0.88907 0.63251 0.0
C431 C 0.86417 0.85277 0.61126 0.0
C432 C 0.90125 0.92046 0.61907 0.0
C433 C 0.92755 0.91761 0.58285 0.0
H434 H 0.84966 0.89379 0.65927 0.0
H435 H 0.90442 0.94739 0.63712 0.0
S436 S 0.92654 0.82804 0.51681 0.0
N437 N 0.89042 0.81402 0.55502 0.0
N438 N 0.94468 0.87542 0.52517 0.0
C439 C 0.92179 0.88161 0.5609 0.0
C440 C 0.89136 0.84868 0.57624 0.0
C441 C 0.64839 0.36049 0.11043 0.0
C442 C 0.64997 0.33906 0.0718 0.0
C443 C 0.61996 0.39566 0.10519 0.0
C444 C 0.59302 0.41251 0.06036 0.0
H445 H 0.66951 0.35029 0.14529 0.0
H446 H 0.61941 0.40983 0.13677 0.0
S447 S 0.58347 0.36813 0.9475 0.0
N448 N 0.61923 0.33577 0.98789 0.0
N449 N 0.57007 0.40511 0.97596 0.0
C450 C 0.59468 0.39196 0.02096 0.0
C451 C 0.62215 0.35471 0.02709 0.0
C452 C 0.15967 0.86479 0.28488 0.0
C453 C 0.13462 0.85047 0.24568 0.0
C454 C 0.14296 0.864 0.32886 0.0
C455 C 0.10099 0.84799 0.33557 0.0
H456 H 0.19262 0.87624 0.28167 0.0
H457 H 0.16343 0.87497 0.35831 0.0
S458 S 0.02198 0.80775 0.24388 0.0
N459 N 0.06538 0.82092 0.21594 0.0
N460 N 0.0342 0.81889 0.29889 0.0
C461 C 0.0754 0.83417 0.29645 0.0
C462 C 0.09213 0.83562 0.25139 0.0
C463 C 0.6154 0.56779 0.87674 0.0
C464 C 0.61317 0.61271 0.85772 0.0
C465 C 0.59586 0.54891 0.91804 0.0
C466 C 0.57328 0.57424 0.94185 0.0
H467 H 0.63099 0.54691 0.85833 0.0
H468 H 0.5976 0.51405 0.9307 0.0
S469 S 0.55875 0.6935 0.90693 0.0
N470 N 0.58794 0.68225 0.86641 0.0
N471 N 0.55043 0.64674 0.94388 0.0
C472 C 0.57223 0.61941 0.92438 0.0
C473 C 0.59242 0.63868 0.88232 0.0
C474 C 0.89628 0.04335 0.35135 0.0
C475 C 0.91607 0.07296 0.3162 0.0
C476 C 0.91715 0.03041 0.40026 0.0
C477 C 0.95827 0.04684 0.41526 0.0
H478 H 0.86485 0.02976 0.34078 0.0
H479 H 0.90148 0.00684 0.4262 0.0
S480 S 0.01927 0.13112 0.3394 0.0
N481 N 0.97617 0.122 0.30097 0.0
N482 N 0.01492 0.09827 0.39288 0.0
C483 C 0.97712 0.07799 0.38098 0.0
C484 C 0.95609 0.09096 0.33138 0.0
C485 C 0.3748 0.44058 0.66944 0.0
C486 C 0.392 0.39817 0.68125 0.0
C487 C 0.37121 0.46306 0.70632 0.0
C488 C 0.3849 0.44403 0.75629 0.0
H489 H 0.36216 0.45577 0.63164 0.0
H490 H 0.35697 0.49536 0.69572 0.0
S491 S 0.43517 0.33481 0.80604 0.0
N492 N 0.42552 0.33904 0.74587 0.0
N493 N 0.41804 0.38092 0.81542 0.0
C494 C 0.40379 0.40227 0.76838 0.0
C495 C 0.40747 0.37943 0.73081 0.0
C496 C 0.63221 0.61352 0.38492 0.0
C497 C 0.63013 0.59574 0.43498 0.0
C498 C 0.62148 0.58946 0.34902 0.0
C499 C 0.60601 0.5469 0.36076 0.0
H500 H 0.64293 0.64635 0.37302 0.0
H501 H 0.62657 0.60444 0.31183 0.0
S502 S 0.5901 0.48597 0.48576 0.0
N503 N 0.61103 0.53233 0.4945 0.0
N504 N 0.58526 0.48927 0.42588 0.0
C505 C 0.60136 0.52931 0.41031 0.0
C506 C 0.6144 0.55321 0.44752 0.0
C507 C 0.82536 0.11071 0.83219 0.0
C508 C 0.85808 0.1292 0.86102 0.0
C509 C 0.83231 0.10229 0.787 0.0
C510 C 0.87206 0.11266 0.76831 0.0
H511 H 0.79359 0.10393 0.84402 0.0
H512 H 0.8057 0.08878 0.76573 0.0
S513 S 0.96871 0.16048 0.83099 0.0
N514 N 0.93226 0.15591 0.86933 0.0
N515 N 0.94523 0.14131 0.78365 0.0
C516 C 0.90574 0.12961 0.79792 0.0
C517 C 0.89872 0.1377 0.84437 0.0
C518 C 0.46951 0.4097 0.24453 0.0
C519 C 0.42467 0.4126 0.24787 0.0
C520 C 0.48606 0.4279 0.2008 0.0
C521 C 0.45861 0.45034 0.15866 0.0
H522 H 0.49212 0.39352 0.27623 0.0
H523 H 0.52081 0.4246 0.20031 0.0
S524 S 0.33844 0.4673 0.14875 0.0
N525 N 0.3529 0.43904 0.20549 0.0
N526 N 0.38388 0.47423 0.12361 0.0
C527 C 0.41346 0.45285 0.16137 0.0
C528 C 0.39656 0.43378 0.20586 0.0
C529 C 0.07561 0.913 0.75744 0.0
C530 C 0.09027 0.9414 0.78805 0.0
C531 C 0.0622 0.92824 0.70693 0.0
C532 C 0.06355 0.97247 0.68454 0.0
H533 H 0.07509 0.8785 0.77261 0.0
H534 H 0.0511 0.90487 0.6853 0.0
S535 S 0.09721 0.06055 0.74924 0.0
N536 N 0.10348 0.01603 0.79323 0.0
N537 N 0.07874 0.04491 0.69785 0.0
C538 C 0.07669 1.00151 0.7151 0.0
C539 C 0.08997 0.9859 0.76691 0.0
loop_
_geom_bond_atom_site_label_1
_geom_bond_atom_site_label_2
_geom_bond_distance
_geom_bond_site_symmetry_2
_ccdc_geom_bond_type
C0 C1 1.391 . S
C0 C4 1.391 . S
C0 H42 0.948 . S
C1 C0 1.391 . S
C1 C2 1.391 . S
C2 C1 1.391 . S
C2 H58 0.947 . S
C2 C59 1.392 . S
C3 C4 1.391 . S
C3 C7 1.397 . S
C3 C59 1.419 . S
C4 C0 1.391 . S
C4 C3 1.391 . S
C4 C5 1.399 . S
C5 C4 1.399 . S
C5 C8 1.396 . S
C5 C17 1.453 . S
C5 C18 1.684 . S
H6 C30 0.948 . S
C7 C3 1.397 . S
C7 C8 1.394 . S
C7 C26 1.723 1_556 S
C8 C5 1.396 . S
C8 C7 1.394 . S
C8 C38 1.723 1_556 S
H9 C32 0.947 . S
H10 C33 0.948 . S
H11 C39 0.982 . S
H12 C40 0.979 . S
H13 C40 0.980 . S
H14 C40 0.983 . S
H15 C39 0.979 . S
H16 C39 0.977 . S
C17 C5 1.453 . S
C17 H46 0.982 . S
C17 H47 0.979 . S
C17 H48 0.977 . S
C18 C5 1.684 . S
C18 H43 0.979 . S
C18 H44 0.980 . S
C18 H45 0.983 . S
C19 C20 1.391 . S
C19 C24 1.391 . S
C19 H49 0.948 . S
C20 C19 1.391 . S
C20 C21 1.391 . S
C21 C20 1.391 . S
C21 C22 1.392 . S
C21 H50 0.947 . S
C22 C21 1.392 . S
C22 C23 1.419 . S
C22 H51 0.948 . S
C23 C22 1.419 . S
C23 C24 1.391 . S
C23 C27 1.397 . S
C24 C19 1.391 . S
C24 C23 1.391 . S
C24 C25 1.399 . S
C25 C24 1.399 . S
C25 C26 1.396 . S
C25 C28 1.453 . S
C25 C29 1.684 . S
C26 C7 1.723 1_554 S
C26 C25 1.396 . S
C26 C27 1.394 . S
C27 C23 1.397 . S
C27 C26 1.394 . S
C27 C37 1.723 . S
C28 C25 1.453 . S
C28 H52 0.982 . S
C28 H53 0.979 . S
C28 H54 0.977 1_554 S
C29 C25 1.684 . S
C29 H55 0.979 . S
C29 H56 0.980 1_554 S
C29 H57 0.983 . S
C30 H6 0.948 . S
C30 C31 1.391 . S
C30 C35 1.391 . S
C31 C30 1.391 . S
C31 C32 1.391 1_554 S
C32 H9 0.947 . S
C32 C31 1.391 1_556 S
C32 C33 1.392 . S
C33 H10 0.948 . S
C33 C32 1.392 . S
C33 C34 1.419 1_556 S
C34 C33 1.419 1_554 S
C34 C35 1.391 . S
C34 C38 1.397 . S
C35 C30 1.391 . S
C35 C34 1.391 . S
C35 C36 1.399 . S
C36 C35 1.399 . S
C36 C37 1.396 . S
C36 C39 1.453 . S
C36 C40 1.684 . S
C37 C27 1.723 . S
C37 C36 1.396 . S
C37 C38 1.394 . S
C38 C8 1.723 1_554 S
C38 C34 1.397 . S
C38 C37 1.394 . S
C39 H11 0.982 . S
C39 H15 0.979 . S
C39 H16 0.977 . S
C39 C36 1.453 . S
C40 H12 0.979 . S
C40 H13 0.980 . S
C40 H14 0.983 . S
C40 C36 1.684 . S
H41 C59 0.948 . S
H42 C0 0.948 . S
H43 C18 0.979 . S
H44 C18 0.980 . S
H45 C18 0.983 . S
H46 C17 0.982 . S
H47 C17 0.979 . S
H48 C17 0.977 . S
H49 C19 0.948 . S
H50 C21 0.947 . S
H51 C22 0.948 . S
H52 C28 0.982 . S
H53 C28 0.979 . S
H54 C28 0.977 1_556 S
H55 C29 0.979 . S
H56 C29 0.980 1_556 S
H57 C29 0.983 . S
H58 C2 0.947 . S
C59 C2 1.392 . S
C59 C3 1.419 . S
C59 H41 0.948 . S
C60 C61 1.391 . S
C60 C64 1.391 . S
C60 H102 0.948 . S
C61 C60 1.391 . S
C61 C62 1.391 . S
C62 C61 1.391 . S
C62 H118 0.947 . S
C62 C119 1.392 . S
C63 C64 1.391 . S
C63 C67 1.397 . S
C63 C119 1.419 . S
C64 C60 1.391 . S
C64 C63 1.391 . S
C64 C65 1.399 . S
C65 C64 1.399 . S
C65 C68 1.396 . S
C65 C77 1.453 . S
C65 C78 1.684 . S
H66 C90 0.948 . S
C67 C63 1.397 . S
C67 C68 1.394 . S
C67 C86 1.723 . S
C68 C65 1.396 . S
C68 C67 1.394 . S
C68 C98 1.723 . S
H69 C92 0.947 . S
H70 C93 0.948 . S
H71 C99 0.982 . S
H72 C100 0.979 . S
H73 C100 0.980 . S
H74 C100 0.983 . S
H75 C99 0.979 . S
H76 C99 0.977 . S
C77 C65 1.453 . S
C77 H106 0.982 . S
C77 H107 0.979 . S
C77 H108 0.977 . S
C78 C65 1.684 . S
C78 H103 0.979 . S
C78 H104 0.980 . S
C78 H105 0.983 . S
C79 C80 1.391 . S
C79 C84 1.391 . S
C79 H109 0.948 . S
C80 C79 1.391 . S
C80 C81 1.391 . S
C81 C80 1.391 . S
C81 C82 1.392 . S
C81 H110 0.947 . S
C82 C81 1.392 . S
C82 C83 1.419 . S
C82 H111 0.948 . S
C83 C82 1.419 . S
C83 C84 1.391 . S
C83 C87 1.397 . S
C84 C79 1.391 . S
C84 C83 1.391 . S
C84 C85 1.399 . S
C85 C84 1.399 . S
C85 C86 1.396 . S
C85 C88 1.453 . S
C85 C89 1.684 . S
C86 C67 1.723 . S
C86 C85 1.396 . S
C86 C87 1.394 . S
C87 C83 1.397 . S
C87 C86 1.394 . S
C87 C97 1.723 . S
C88 C85 1.453 . S
C88 H112 0.982 . S
C88 H113 0.979 . S
C88 H114 0.977 . S
C89 C85 1.684 . S
C89 H115 0.979 . S
C89 H116 0.980 . S
C89 H117 0.983 . S
C90 H66 0.948 . S
C90 C91 1.391 . S
C90 C95 1.391 . S
C91 C90 1.391 . S
C91 C92 1.391 . S
C92 H69 0.947 . S
C92 C91 1.391 . S
C92 C93 1.392 . S
C93 H70 0.948 . S
C93 C92 1.392 . S
C93 C94 1.419 . S
C94 C93 1.419 . S
C94 C95 1.391 . S
C94 C98 1.397 . S
C95 C90 1.391 . S
C95 C94 1.391 . S
C95 C96 1.399 . S
C96 C95 1.399 . S
C96 C97 1.396 . S
C96 C99 1.453 . S
C96 C100 1.684 . S
C97 C87 1.723 . S
C97 C96 1.396 . S
C97 C98 1.394 . S
C98 C68 1.723 . S
C98 C94 1.397 . S
C98 C97 1.394 . S
C99 H71 0.982 . S
C99 H75 0.979 . S
C99 H76 0.977 . S
C99 C96 1.453 . S
C100 H72 0.979 . S
C100 H73 0.980 . S
C100 H74 0.983 . S
C100 C96 1.684 . S
H101 C119 0.948 . S
H102 C60 0.948 . S
H103 C78 0.979 . S
H104 C78 0.980 . S
H105 C78 0.983 . S
H106 C77 0.982 . S
H107 C77 0.979 . S
H108 C77 0.977 . S
H109 C79 0.948 . S
H110 C81 0.947 . S
H111 C82 0.948 . S
H112 C88 0.982 . S
H113 C88 0.979 . S
H114 C88 0.977 . S
H115 C89 0.979 . S
H116 C89 0.980 . S
H117 C89 0.983 . S
H118 C62 0.947 . S
C119 C62 1.392 . S
C119 C63 1.419 . S
C119 H101 0.948 . S
C120 C121 1.391 . S
C120 C124 1.391 . S
C120 H162 0.948 . S
C121 C120 1.391 . S
C121 C122 1.391 . S
C122 C121 1.391 . S
C122 H178 0.947 . S
C122 C179 1.392 . S
C123 C124 1.391 . S
C123 C127 1.397 . S
C123 C179 1.419 . S
C124 C120 1.391 . S
C124 C123 1.391 . S
C124 C125 1.399 . S
C125 C124 1.399 . S
C125 C128 1.396 . S
C125 C137 1.453 . S
C125 C138 1.684 . S
H126 C150 0.948 1_556 S
C127 C123 1.397 . S
C127 C128 1.394 . S
C127 C146 1.723 . S
C128 C125 1.396 . S
C128 C127 1.394 . S
C128 C158 1.723 . S
H129 C152 0.947 . S
H130 C153 0.948 . S
H131 C159 0.982 . S
H132 C160 0.979 . S
H133 C160 0.980 . S
H134 C160 0.983 . S
H135 C159 0.979 . S
H136 C159 0.977 . S
C137 C125 1.453 . S
C137 H166 0.982 . S
C137 H167 0.979 . S
C137 H168 0.977 . S
C138 C125 1.684 . S
C138 H163 0.979 . S
C138 H164 0.980 . S
C138 H165 0.983 . S
C139 C140 1.391 . S
C139 C144 1.391 . S
C139 H169 0.948 . S
C140 C139 1.391 . S
C140 C141 1.391 . S
C141 C140 1.391 . S
C141 C142 1.392 . S
C141 H170 0.947 . S
C142 C141 1.392 . S
C142 C143 1.419 . S
C142 H171 0.948 . S
C143 C142 1.419 . S
C143 C144 1.391 . S
C143 C147 1.397 1_556 S
C144 C139 1.391 . S
C144 C143 1.391 . S
C144 C145 1.399 1_556 S
C145 C144 1.399 1_554 S
C145 C146 1.396 . S
C145 C148 1.453 . S
C145 C149 1.684 . S
C146 C127 1.723 . S
C146 C145 1.396 . S
C146 C147 1.394 . S
C147 C143 1.397 1_554 S
C147 C146 1.394 . S
C147 C157 1.723 . S
C148 C145 1.453 . S
C148 H172 0.982 . S
C148 H173 0.979 . S
C148 H174 0.977 . S
C149 C145 1.684 . S
C149 H175 0.979 . S
C149 H176 0.980 . S
C149 H177 0.983 . S
C150 H126 0.948 1_554 S
C150 C151 1.391 . S
C150 C155 1.391 . S
C151 C150 1.391 . S
C151 C152 1.391 . S
C152 H129 0.947 . S
C152 C151 1.391 . S
C152 C153 1.392 . S
C153 H130 0.948 . S
C153 C152 1.392 . S
C153 C154 1.419 . S
C154 C153 1.419 . S
C154 C155 1.391 . S
C154 C158 1.397 . S
C155 C150 1.391 . S
C155 C154 1.391 . S
C155 C156 1.399 1_554 S
C156 C155 1.399 1_556 S
C156 C157 1.396 1_556 S
C156 C159 1.453 . S
C156 C160 1.684 . S
C157 C147 1.723 . S
C157 C156 1.396 1_554 S
C157 C158 1.394 . S
C158 C128 1.723 . S
C158 C154 1.397 . S
C158 C157 1.394 . S
C159 H131 0.982 . S
C159 H135 0.979 . S
C159 H136 0.977 . S
C159 C156 1.453 . S
C160 H132 0.979 . S
C160 H133 0.980 . S
C160 H134 0.983 . S
C160 C156 1.684 . S
H161 C179 0.948 . S
H162 C120 0.948 . S
H163 C138 0.979 . S
H164 C138 0.980 . S
H165 C138 0.983 . S
H166 C137 0.982 . S
H167 C137 0.979 . S
H168 C137 0.977 . S
H169 C139 0.948 . S
H170 C141 0.947 . S
H171 C142 0.948 . S
H172 C148 0.982 . S
H173 C148 0.979 . S
H174 C148 0.977 . S
H175 C149 0.979 . S
H176 C149 0.980 . S
H177 C149 0.983 . S
H178 C122 0.947 . S
C179 C122 1.392 . S
C179 C123 1.419 . S
C179 H161 0.948 . S
C180 C181 1.391 . S
C180 C184 1.391 . S
C180 H222 0.948 . S
C181 C180 1.391 . S
C181 C182 1.391 . S
C182 C181 1.391 . S
C182 H238 0.947 . S
C182 C239 1.392 . S
C183 C184 1.391 . S
C183 C187 1.397 . S
C183 C239 1.419 . S
C184 C180 1.391 . S
C184 C183 1.391 . S
C184 C185 1.399 . S
C185 C184 1.399 . S
C185 C188 1.396 . S
C185 C197 1.453 . S
C185 C198 1.684 . S
H186 C210 0.948 . S
C187 C183 1.397 . S
C187 C188 1.394 . S
C187 C206 1.723 . S
C188 C185 1.396 . S
C188 C187 1.394 . S
C188 C218 1.723 . S
H189 C212 0.947 . S
H190 C213 0.948 . S
H191 C219 0.982 . S
H192 C220 0.979 . S
H193 C220 0.980 . S
H194 C220 0.983 . S
H195 C219 0.979 . S
H196 C219 0.977 . S
C197 C185 1.453 . S
C197 H226 0.982 . S
C197 H227 0.979 . S
C197 H228 0.977 . S
C198 C185 1.684 . S
C198 H223 0.979 . S
C198 H224 0.980 . S
C198 H225 0.983 . S
C199 C200 1.391 . S
C199 C204 1.391 . S
C199 H229 0.948 . S
C200 C199 1.391 . S
C200 C201 1.391 . S
C201 C200 1.391 . S
C201 C202 1.392 . S
C201 H230 0.947 . S
C202 C201 1.392 . S
C202 C203 1.419 . S
C202 H231 0.948 . S
C203 C202 1.419 . S
C203 C204 1.391 . S
C203 C207 1.397 . S
C204 C199 1.391 . S
C204 C203 1.391 . S
C204 C205 1.399 . S
C205 C204 1.399 . S
C205 C206 1.396 . S
C205 C208 1.453 . S
C205 C209 1.684 . S
C206 C187 1.723 . S
C206 C205 1.396 . S
C206 C207 1.394 . S
C207 C203 1.397 . S
C207 C206 1.394 . S
C207 C217 1.723 . S
C208 C205 1.453 . S
C208 H232 0.982 . S
C208 H233 0.979 . S
C208 H234 0.977 . S
C209 C205 1.684 . S
C209 H235 0.979 . S
C209 H236 0.980 . S
C209 H237 0.983 . S
C210 H186 0.948 . S
C210 C211 1.391 . S
C210 C215 1.391 . S
C211 C210 1.391 . S
C211 C212 1.391 . S
C212 H189 0.947 . S
C212 C211 1.391 . S
C212 C213 1.392 . S
C213 H190 0.948 . S
C213 C212 1.392 . S
C213 C214 1.419 . S
C214 C213 1.419 . S
C214 C215 1.391 . S
C214 C218 1.397 . S
C215 C210 1.391 . S
C215 C214 1.391 . S
C215 C216 1.399 . S
C216 C215 1.399 . S
C216 C217 1.396 . S
C216 C219 1.453 . S
C216 C220 1.684 . S
C217 C207 1.723 . S
C217 C216 1.396 . S
C217 C218 1.394 . S
C218 C188 1.723 . S
C218 C214 1.397 . S
C218 C217 1.394 . S
C219 H191 0.982 . S
C219 H195 0.979 . S
C219 H196 0.977 . S
C219 C216 1.453 . S
C220 H192 0.979 . S
C220 H193 0.980 . S
C220 H194 0.983 . S
C220 C216 1.684 . S
H221 C239 0.948 . S
H222 C180 0.948 . S
H223 C198 0.979 . S
H224 C198 0.980 . S
H225 C198 0.983 . S
H226 C197 0.982 . S
H227 C197 0.979 . S
H228 C197 0.977 . S
H229 C199 0.948 . S
H230 C201 0.947 . S
H231 C202 0.948 . S
H232 C208 0.982 . S
H233 C208 0.979 . S
H234 C208 0.977 . S
H235 C209 0.979 . S
H236 C209 0.980 . S
H237 C209 0.983 . S
H238 C182 0.947 . S
C239 C182 1.392 . S
C239 C183 1.419 . S
C239 H221 0.948 . S
Tb240 N269 2.617 . S
Tb240 N275 2.572 . S
Tb240 O284 2.465 . S
Tb240 O285 2.387 . S
Tb240 O287 2.428 . S
Tb240 O288 2.308 1_565 S
Tb240 O292 2.349 1_465 S
Tb240 O295 2.393 1_455 S
Tb240 C304 2.802 . S
C241 N242 1.379 . S
C241 C244 1.416 . S
C241 C248 1.424 . S
N242 C241 1.379 . S
N242 C245 1.334 . S
N242 Tb251 2.617 . S
C243 C245 1.390 . S
C243 C246 1.339 . S
C243 H263 0.930 1_655 S
C244 C241 1.416 . S
C244 C246 1.416 . S
C244 C250 1.448 . S
C245 N242 1.334 . S
C245 C243 1.390 . S
C245 H256 0.930 1_655 S
C246 C243 1.339 . S
C246 C244 1.416 . S
C246 H267 0.930 . S
C247 C248 1.413 . S
C247 C249 1.427 . S
C247 C253 1.416 . S
C248 C241 1.424 . S
C248 C247 1.413 . S
C248 N252 1.361 . S
C249 C247 1.427 . S
C249 C250 1.328 . S
C249 H264 0.929 . S
C250 C244 1.448 . S
C250 C249 1.328 . S
C250 H265 0.930 . S
Tb251 N242 2.617 . S
Tb251 N252 2.572 . S
Tb251 O286 2.349 1_655 S
Tb251 O289 2.393 1_655 S
Tb251 O290 2.465 . S
Tb251 O291 2.387 . S
Tb251 O293 2.428 . S
Tb251 O294 2.308 1_545 S
Tb251 C315 2.802 . S
N252 C248 1.361 . S
N252 Tb251 2.572 . S
N252 C254 1.340 . S
C253 C247 1.416 . S
C253 C255 1.332 . S
C253 H261 0.931 . S
C254 N252 1.340 . S
C254 C255 1.407 . S
C254 H260 0.930 . S
C255 C253 1.332 . S
C255 C254 1.407 . S
C255 H257 0.929 . S
H256 C245 0.930 1_455 S
H257 C255 0.929 . S
H258 C273 0.930 1_655 S
H259 C280 0.929 . S
H260 C254 0.930 . S
H261 C253 0.931 . S
H262 C276 0.930 . S
H263 C243 0.930 1_455 S
H264 C249 0.929 . S
H265 C250 0.930 . S
H266 C271 0.930 1_655 S
H267 C246 0.930 . S
H268 C279 0.931 . S
N269 Tb240 2.617 . S
N269 C270 1.379 . S
N269 C273 1.334 . S
C270 N269 1.379 . S
C270 C272 1.416 . S
C270 C278 1.424 . S
C271 H266 0.930 1_455 S
C271 C273 1.390 . S
C271 C274 1.339 . S
C272 C270 1.416 . S
C272 C274 1.416 . S
C272 C305 1.448 . S
C273 H258 0.930 1_455 S
C273 N269 1.334 . S
C273 C271 1.390 . S
C274 C271 1.339 . S
C274 C272 1.416 . S
C274 H281 0.930 . S
N275 Tb240 2.572 . S
N275 C276 1.340 . S
N275 C278 1.361 . S
C276 H262 0.930 . S
C276 N275 1.340 . S
C276 C280 1.407 . S
C277 C278 1.413 . S
C277 C279 1.416 . S
C277 C306 1.427 . S
C278 C270 1.424 . S
C278 N275 1.361 . S
C278 C277 1.413 . S
C279 H268 0.931 . S
C279 C277 1.416 . S
C279 C280 1.332 . S
C280 H259 0.929 . S
C280 C276 1.407 . S
C280 C279 1.332 . S
H281 C274 0.930 . S
H282 C305 0.930 . S
H283 C306 0.929 . S
O284 Tb240 2.465 . S
O284 C304 1.264 . S
O285 Tb240 2.387 . S
O285 C296 1.264 . S
O286 Tb251 2.349 1_455 S
O286 C296 1.243 1_545 S
O287 Tb240 2.428 . S
O287 C304 1.256 . S
O288 Tb240 2.308 1_545 S
O288 C303 1.266 . S
O289 Tb251 2.393 1_455 S
O289 C303 1.248 . S
O290 Tb251 2.465 . S
O290 C315 1.264 . S
O291 Tb251 2.387 . S
O291 C307 1.264 . S
O292 Tb240 2.349 1_645 S
O292 C307 1.243 . S
O293 Tb251 2.428 . S
O293 C315 1.256 . S
O294 Tb251 2.308 1_565 S
O294 C314 1.266 . S
O295 Tb240 2.393 1_655 S
O295 C314 1.248 . S
C296 O285 1.264 . S
C296 O286 1.243 1_565 S
C297 C300 1.399 . S
C297 C302 1.383 . S
C297 C304 1.496 . S
C298 C299 1.399 . S
C298 C302 1.389 . S
C299 C298 1.399 . S
C299 C301 1.380 . S
C299 H316 0.929 . S
C300 C297 1.399 . S
C300 C301 1.392 . S
C300 H317 0.929 . S
C301 C299 1.380 . S
C301 C300 1.392 . S
C301 H318 0.929 . S
C302 C297 1.383 . S
C302 C298 1.389 . S
C302 H319 0.931 . S
C303 O288 1.266 . S
C303 O289 1.248 . S
C304 Tb240 2.802 . S
C304 O284 1.264 . S
C304 O287 1.256 . S
C304 C297 1.496 . S
C305 C272 1.448 . S
C305 H282 0.930 . S
C305 C306 1.328 . S
C306 C277 1.427 . S
C306 H283 0.929 . S
C306 C305 1.328 . S
C307 O291 1.264 . S
C307 O292 1.243 . S
C308 C311 1.399 . S
C308 C312 1.383 . S
C308 C315 1.496 . S
C309 C310 1.399 . S
C309 C312 1.389 . S
C310 C309 1.399 . S
C310 C313 1.380 . S
C310 H320 0.929 . S
C311 C308 1.399 . S
C311 C313 1.392 . S
C311 H321 0.929 . S
C312 C308 1.383 . S
C312 C309 1.389 . S
C312 H322 0.931 . S
C313 C310 1.380 . S
C313 C311 1.392 . S
C313 H323 0.929 . S
C314 O294 1.266 . S
C314 O295 1.248 . S
C315 Tb251 2.802 . S
C315 O290 1.264 . S
C315 O293 1.256 . S
C315 C308 1.496 . S
H316 C299 0.929 . S
H317 C300 0.929 . S
H318 C301 0.929 . S
H319 C302 0.931 . S
H320 C310 0.929 . S
H321 C311 0.929 . S
H322 C312 0.931 . S
H323 C313 0.929 . S
Tb324 N353 2.618 . S
Tb324 N359 2.572 1_556 S
Tb324 O368 2.465 . S
Tb324 O369 2.387 1_556 S
Tb324 O371 2.428 . S
Tb324 O372 2.308 1_556 S
Tb324 O376 2.349 . S
Tb324 O379 2.393 1_556 S
Tb324 C388 2.802 . S
C325 N326 1.379 . S
C325 C328 1.416 . S
C325 C332 1.424 . S
N326 C325 1.379 . S
N326 C329 1.334 . S
N326 Tb335 2.617 . S
C327 C329 1.390 . S
C327 C330 1.339 . S
C327 H347 0.930 . S
C328 C325 1.416 . S
C328 C330 1.416 . S
C328 C334 1.448 . S
C329 N326 1.334 . S
C329 C327 1.390 . S
C329 H340 0.930 . S
C330 C327 1.339 . S
C330 C328 1.416 . S
C330 H351 0.930 . S
C331 C332 1.413 . S
C331 C333 1.427 . S
C331 C337 1.416 . S
C332 C325 1.424 . S
C332 C331 1.413 . S
C332 N336 1.361 . S
C333 C331 1.427 . S
C333 C334 1.328 . S
C333 H348 0.929 . S
C334 C328 1.448 . S
C334 C333 1.328 . S
C334 H349 0.930 . S
Tb335 N326 2.617 . S
Tb335 N336 2.572 . S
Tb335 O370 2.349 . S
Tb335 O373 2.393 . S
Tb335 O374 2.465 . S
Tb335 O375 2.387 . S
Tb335 O377 2.428 . S
Tb335 O378 2.308 . S
Tb335 C399 2.802 . S
N336 C332 1.361 . S
N336 Tb335 2.572 . S
N336 C338 1.340 . S
C337 C331 1.416 . S
C337 C339 1.332 . S
C337 H345 0.931 . S
C338 N336 1.340 . S
C338 C339 1.407 . S
C338 H344 0.930 . S
C339 C337 1.332 . S
C339 C338 1.407 . S
C339 H341 0.929 . S
H340 C329 0.930 . S
H341 C339 0.929 . S
H342 C357 0.930 . S
H343 C364 0.929 . S
H344 C338 0.930 . S
H345 C337 0.931 . S
H346 C360 0.930 . S
H347 C327 0.930 . S
H348 C333 0.929 . S
H349 C334 0.930 . S
H350 C355 0.930 . S
H351 C330 0.930 . S
H352 C363 0.931 . S
N353 Tb324 2.618 . S
N353 C354 1.378 1_556 S
N353 C357 1.334 . S
C354 N353 1.378 1_554 S
C354 C356 1.416 . S
C354 C362 1.424 . S
C355 H350 0.930 . S
C355 C357 1.390 . S
C355 C358 1.339 1_556 S
C356 C354 1.416 . S
C356 C358 1.416 . S
C356 C389 1.448 . S
C357 H342 0.930 . S
C357 N353 1.334 . S
C357 C355 1.390 . S
C358 C355 1.339 1_554 S
C358 C356 1.416 . S
C358 H365 0.930 . S
N359 Tb324 2.572 1_554 S
N359 C360 1.340 . S
N359 C362 1.361 . S
C360 H346 0.930 . S
C360 N359 1.340 . S
C360 C364 1.407 . S
C361 C362 1.413 . S
C361 C363 1.416 . S
C361 C390 1.427 . S
C362 C354 1.424 . S
C362 N359 1.361 . S
C362 C361 1.413 . S
C363 H352 0.931 . S
C363 C361 1.416 . S
C363 C364 1.332 . S
C364 H343 0.929 . S
C364 C360 1.407 . S
C364 C363 1.332 . S
H365 C358 0.930 . S
H366 C389 0.930 . S
H367 C390 0.929 . S
O368 Tb324 2.465 . S
O368 C388 1.264 . S
O369 Tb324 2.387 1_554 S
O369 C380 1.264 . S
O370 Tb335 2.349 . S
O370 C380 1.243 . S
O371 Tb324 2.428 . S
O371 C388 1.256 . S
O372 Tb324 2.308 1_554 S
O372 C387 1.266 . S
O373 Tb335 2.393 . S
O373 C387 1.248 . S
O374 Tb335 2.465 . S
O374 C399 1.264 . S
O375 Tb335 2.387 . S
O375 C391 1.264 1_554 S
O376 Tb324 2.349 . S
O376 C391 1.243 . S
O377 Tb335 2.428 . S
O377 C399 1.256 . S
O378 Tb335 2.308 . S
O378 C398 1.266 . S
O379 Tb324 2.393 1_554 S
O379 C398 1.248 . S
C380 O369 1.264 . S
C380 O370 1.243 . S
C381 C384 1.399 . S
C381 C386 1.383 . S
C381 C388 1.496 . S
C382 C383 1.399 . S
C382 C386 1.389 . S
C383 C382 1.399 . S
C383 C385 1.380 . S
C383 H400 0.929 . S
C384 C381 1.399 . S
C384 C385 1.392 . S
C384 H401 0.929 . S
C385 C383 1.380 . S
C385 C384 1.392 . S
C385 H402 0.929 . S
C386 C381 1.383 . S
C386 C382 1.389 . S
C386 H403 0.931 . S
C387 O372 1.266 . S
C387 O373 1.248 . S
C388 Tb324 2.802 . S
C388 O368 1.264 . S
C388 O371 1.256 . S
C388 C381 1.496 . S
C389 C356 1.448 . S
C389 H366 0.930 . S
C389 C390 1.328 . S
C390 C361 1.427 . S
C390 H367 0.929 . S
C390 C389 1.328 . S
C391 O375 1.264 1_556 S
C391 O376 1.243 . S
C392 C395 1.399 . S
C392 C396 1.383 . S
C392 C399 1.496 . S
C393 C394 1.399 . S
C393 C396 1.389 . S
C394 C393 1.399 . S
C394 C397 1.380 . S
C394 H404 0.929 . S
C395 C392 1.399 . S
C395 C397 1.392 . S
C395 H405 0.929 . S
C396 C392 1.383 . S
C396 C393 1.389 . S
C396 H406 0.931 . S
C397 C394 1.380 . S
C397 C395 1.392 . S
C397 H407 0.929 . S
C398 O378 1.266 . S
C398 O379 1.248 . S
C399 Tb335 2.802 . S
C399 O374 1.264 . S
C399 O377 1.256 . S
C399 C392 1.496 . S
H400 C383 0.929 . S
H401 C384 0.929 . S
H402 C385 0.929 . S
H403 C386 0.931 . S
H404 C394 0.929 . S
H405 C395 0.929 . S
H406 C396 0.931 . S
H407 C397 0.929 . S
C408 C409 1.369 . S
C408 C410 1.419 . S
C408 H412 0.930 . S
C409 C408 1.369 . S
C409 C418 1.429 . S
C410 C408 1.419 . S
C410 C411 1.363 . S
C410 H413 0.929 . S
C411 C410 1.363 . S
C411 C417 1.428 . S
H412 C408 0.930 . S
H413 C410 0.929 . S
S414 N415 1.613 . S
S414 N416 1.610 . S
N415 S414 1.613 . S
N415 C418 1.350 . S
N416 S414 1.610 . S
N416 C417 1.351 . S
C417 C411 1.428 . S
C417 N416 1.351 . S
C417 C418 1.434 . S
C418 C409 1.429 . S
C418 N415 1.350 . S
C418 C417 1.434 . S
C419 C420 1.369 . S
C419 C421 1.419 . S
C419 H423 0.930 . S
C420 C419 1.369 . S
C420 C429 1.429 . S
C421 C419 1.419 . S
C421 C422 1.363 . S
C421 H424 0.929 . S
C422 C421 1.363 . S
C422 C428 1.428 . S
H423 C419 0.930 . S
H424 C421 0.929 . S
S425 N426 1.613 . S
S425 N427 1.610 . S
N426 S425 1.613 . S
N426 C429 1.350 . S
N427 S425 1.610 . S
N427 C428 1.351 . S
C428 C422 1.428 . S
C428 N427 1.351 . S
C428 C429 1.434 . S
C429 C420 1.429 . S
C429 N426 1.350 . S
C429 C428 1.434 . S
C430 C431 1.369 . S
C430 C432 1.419 . S
C430 H434 0.930 . S
C431 C430 1.369 . S
C431 C440 1.429 . S
C432 C430 1.419 . S
C432 C433 1.363 . S
C432 H435 0.929 . S
C433 C432 1.363 . S
C433 C439 1.428 . S
H434 C430 0.930 . S
H435 C432 0.929 . S
S436 N437 1.613 . S
S436 N438 1.610 . S
N437 S436 1.613 . S
N437 C440 1.350 . S
N438 S436 1.610 . S
N438 C439 1.351 . S
C439 C433 1.428 . S
C439 N438 1.351 . S
C439 C440 1.434 . S
C440 C431 1.429 . S
C440 N437 1.350 . S
C440 C439 1.434 . S
C441 C442 1.369 . S
C441 C443 1.419 . S
C441 H445 0.930 . S
C442 C441 1.369 . S
C442 C451 1.429 . S
C443 C441 1.419 . S
C443 C444 1.363 . S
C443 H446 0.929 . S
C444 C443 1.363 . S
C444 C450 1.428 . S
H445 C441 0.930 . S
H446 C443 0.929 . S
S447 N448 1.613 . S
S447 N449 1.610 . S
N448 S447 1.613 . S
N448 C451 1.350 1_556 S
N449 S447 1.610 . S
N449 C450 1.351 1_556 S
C450 C444 1.428 . S
C450 N449 1.351 1_554 S
C450 C451 1.434 . S
C451 C442 1.429 . S
C451 N448 1.350 1_554 S
C451 C450 1.434 . S
C452 C453 1.369 . S
C452 C454 1.419 . S
C452 H456 0.930 . S
C453 C452 1.369 . S
C453 C462 1.429 . S
C454 C452 1.419 . S
C454 C455 1.363 . S
C454 H457 0.929 . S
C455 C454 1.363 . S
C455 C461 1.428 . S
H456 C452 0.930 . S
H457 C454 0.929 . S
S458 N459 1.613 . S
S458 N460 1.610 . S
N459 S458 1.613 . S
N459 C462 1.350 . S
N460 S458 1.610 . S
N460 C461 1.351 . S
C461 C455 1.428 . S
C461 N460 1.351 . S
C461 C462 1.434 . S
C462 C453 1.429 . S
C462 N459 1.350 . S
C462 C461 1.434 . S
C463 C464 1.369 . S
C463 C465 1.419 . S
C463 H467 0.930 . S
C464 C463 1.369 . S
C464 C473 1.429 . S
C465 C463 1.419 . S
C465 C466 1.363 . S
C465 H468 0.929 . S
C466 C465 1.363 . S
C466 C472 1.428 . S
H467 C463 0.930 . S
H468 C465 0.929 . S
S469 N470 1.613 . S
S469 N471 1.610 . S
N470 S469 1.613 . S
N470 C473 1.350 . S
N471 S469 1.610 . S
N471 C472 1.351 . S
C472 C466 1.428 . S
C472 N471 1.351 . S
C472 C473 1.434 . S
C473 C464 1.429 . S
C473 N470 1.350 . S
C473 C472 1.434 . S
C474 C475 1.369 . S
C474 C476 1.419 . S
C474 H478 0.930 1_545 S
C475 C474 1.369 . S
C475 C484 1.429 . S
C476 C474 1.419 . S
C476 C477 1.363 . S
C476 H479 0.929 1_545 S
C477 C476 1.363 . S
C477 C483 1.428 . S
H478 C474 0.930 1_565 S
H479 C476 0.929 1_565 S
S480 N481 1.613 . S
S480 N482 1.610 . S
N481 S480 1.613 . S
N481 C484 1.350 . S
N482 S480 1.610 . S
N482 C483 1.351 . S
C483 C477 1.428 . S
C483 N482 1.351 . S
C483 C484 1.434 . S
C484 C475 1.429 . S
C484 N481 1.350 . S
C484 C483 1.434 . S
C485 C486 1.369 . S
C485 C487 1.419 . S
C485 H489 0.930 . S
C486 C485 1.369 . S
C486 C495 1.429 . S
C487 C485 1.419 . S
C487 C488 1.363 . S
C487 H490 0.929 . S
C488 C487 1.363 . S
C488 C494 1.428 . S
H489 C485 0.930 . S
H490 C487 0.929 . S
S491 N492 1.613 . S
S491 N493 1.610 . S
N492 S491 1.613 . S
N492 C495 1.350 . S
N493 S491 1.610 . S
N493 C494 1.351 . S
C494 C488 1.428 . S
C494 N493 1.351 . S
C494 C495 1.434 . S
C495 C486 1.429 . S
C495 N492 1.350 . S
C495 C494 1.434 . S
C496 C497 1.369 . S
C496 C498 1.419 . S
C496 H500 0.930 . S
C497 C496 1.369 . S
C497 C506 1.429 . S
C498 C496 1.419 . S
C498 C499 1.363 . S
C498 H501 0.929 . S
C499 C498 1.363 . S
C499 C505 1.428 . S
H500 C496 0.930 . S
H501 C498 0.929 . S
S502 N503 1.613 . S
S502 N504 1.610 . S
N503 S502 1.613 . S
N503 C506 1.350 . S
N504 S502 1.610 . S
N504 C505 1.351 . S
C505 C499 1.428 . S
C505 N504 1.351 . S
C505 C506 1.434 . S
C506 C497 1.429 . S
C506 N503 1.350 . S
C506 C505 1.434 . S
C507 C508 1.369 . S
C507 C509 1.419 . S
C507 H511 0.930 . S
C508 C507 1.369 . S
C508 C517 1.429 . S
C509 C507 1.419 . S
C509 C510 1.363 . S
C509 H512 0.929 . S
C510 C509 1.363 . S
C510 C516 1.428 . S
H511 C507 0.930 . S
H512 C509 0.929 . S
S513 N514 1.613 . S
S513 N515 1.610 . S
N514 S513 1.613 . S
N514 C517 1.350 . S
N515 S513 1.610 . S
N515 C516 1.351 . S
C516 C510 1.428 . S
C516 N515 1.351 . S
C516 C517 1.434 . S
C517 C508 1.429 . S
C517 N514 1.350 . S
C517 C516 1.434 . S
C518 C519 1.369 . S
C518 C520 1.419 . S
C518 H522 0.930 . S
C519 C518 1.369 . S
C519 C528 1.429 . S
C520 C518 1.419 . S
C520 C521 1.363 . S
C520 H523 0.929 . S
C521 C520 1.363 . S
C521 C527 1.428 . S
H522 C518 0.930 . S
H523 C520 0.929 . S
S524 N525 1.613 . S
S524 N526 1.610 . S
N525 S524 1.613 . S
N525 C528 1.350 . S
N526 S524 1.610 . S
N526 C527 1.351 . S
C527 C521 1.428 . S
C527 N526 1.351 . S
C527 C528 1.434 . S
C528 C519 1.429 . S
C528 N525 1.350 . S
C528 C527 1.434 . S
C529 C530 1.369 . S
C529 C531 1.419 . S
C529 H533 0.930 . S
C530 C529 1.369 . S
C530 C539 1.429 . S
C531 C529 1.419 . S
C531 C532 1.363 . S
C531 H534 0.929 . S
C532 C531 1.363 . S
C532 C538 1.428 . S
H533 C529 0.930 . S
H534 C531 0.929 . S
S535 N536 1.613 . S
S535 N537 1.610 . S
N536 S535 1.613 . S
N536 C539 1.350 . S
N537 S535 1.610 . S
N537 C538 1.351 . S
C538 C532 1.428 . S
C538 N537 1.351 . S
C538 C539 1.434 . S
C539 C530 1.429 . S
C539 N536 1.350 . S
C539 C538 1.434 . S
C411 C303 1.668 . S
C409 C211 1.643 . S
C420 C31 1.553 . S
C422 C398 1.664 . S
C431 C91 1.678 . S
C433 C314 1.668 . S
C442 C151 1.625 . S
C444 C387 1.663 . S
C455 C298 1.428 . S
C453 C20 1.517 . S
C466 C391 1.629 . S
C464 C61 1.576 . S
C475 C121 1.648 . S
C477 C307 1.667 . S
C486 C200 1.480 . S
C488 C382 1.413 . S
C499 C393 1.408 . S
C497 C80 1.506 . S
C510 C309 1.425 . S
C508 C140 1.550 . S
C521 C380 1.629 . S
C519 C181 1.537 . S
C530 C1 1.583 . S
C532 C296 1.665 . S
