# Generated by pormake.
# Topology eea, (3,6)-cn, num edge types: 1
# Building blocks:
#     Node 0, Type 0, BuildingBlock: PAMTOO_clean_linker_0, # of connection points: 3
#     Node 1, Type 0, BuildingBlock: PAMTOO_clean_linker_0, # of connection points: 3
#     Node 2, Type 0, BuildingBlock: PAMTOO_clean_linker_0, # of connection points: 3
#     Node 3, Type 0, BuildingBlock: PAMTOO_clean_linker_0, # of connection points: 3
#     Node 4, Type 0, BuildingBlock: PAMTOO_clean_linker_0, # of connection points: 3
#     Node 5, Type 0, BuildingBlock: PAMTOO_clean_linker_0, # of connection points: 3
#     Node 6, Type 0, BuildingBlock: PAMTOO_clean_linker_0, # of connection points: 3
#     Node 7, Type 0, BuildingBlock: PAMTOO_clean_linker_0, # of connection points: 3
#     Node 8, Type 0, BuildingBlock: PAMTOO_clean_linker_0, # of connection points: 3
#     Node 9, Type 0, BuildingBlock: PAMTOO_clean_linker_0, # of connection points: 3
#     Node 10, Type 0, BuildingBlock: PAMTOO_clean_linker_0, # of connection points: 3
#     Node 11, Type 0, BuildingBlock: PAMTOO_clean_linker_0, # of connection points: 3
#     Node 12, Type 0, BuildingBlock: PAMTOO_clean_linker_0, # of connection points: 3
#     Node 13, Type 0, BuildingBlock: PAMTOO_clean_linker_0, # of connection points: 3
#     Node 14, Type 0, BuildingBlock: PAMTOO_clean_linker_0, # of connection points: 3
#     Node 15, Type 0, BuildingBlock: PAMTOO_clean_linker_0, # of connection points: 3
#     Node 16, Type 0, BuildingBlock: PAMTOO_clean_linker_0, # of connection points: 3
#     Node 17, Type 0, BuildingBlock: PAMTOO_clean_linker_0, # of connection points: 3
#     Node 18, Type 1, BuildingBlock: NUHQIS_clean_sbu_0, # of connection points: 6
#     Node 19, Type 1, BuildingBlock: NUHQIS_clean_sbu_0, # of connection points: 6
#     Node 20, Type 1, BuildingBlock: NUHQIS_clean_sbu_0, # of connection points: 6
#     Node 21, Type 1, BuildingBlock: NUHQIS_clean_sbu_0, # of connection points: 6
#     Node 22, Type 1, BuildingBlock: NUHQIS_clean_sbu_0, # of connection points: 6
#     Node 23, Type 1, BuildingBlock: NUHQIS_clean_sbu_0, # of connection points: 6
#     Node 24, Type 1, BuildingBlock: NUHQIS_clean_sbu_0, # of connection points: 6
#     Node 25, Type 1, BuildingBlock: NUHQIS_clean_sbu_0, # of connection points: 6
#     Node 26, Type 1, BuildingBlock: NUHQIS_clean_sbu_0, # of connection points: 6
#     Edge 27, Type (0, 1), BuildingBlock: AJUNOK_clean_linker_0, # of connection points: 2
#     Edge 28, Type (0, 1), BuildingBlock: AJUNOK_clean_linker_0, # of connection points: 2
#     Edge 29, Type (0, 1), BuildingBlock: AJUNOK_clean_linker_0, # of connection points: 2
#     Edge 30, Type (0, 1), BuildingBlock: AJUNOK_clean_linker_0, # of connection points: 2
#     Edge 31, Type (0, 1), BuildingBlock: AJUNOK_clean_linker_0, # of connection points: 2
#     Edge 32, Type (0, 1), BuildingBlock: AJUNOK_clean_linker_0, # of connection points: 2
#     Edge 33, Type (0, 1), BuildingBlock: AJUNOK_clean_linker_0, # of connection points: 2
#     Edge 34, Type (0, 1), BuildingBlock: AJUNOK_clean_linker_0, # of connection points: 2
#     Edge 35, Type (0, 1), BuildingBlock: AJUNOK_clean_linker_0, # of connection points: 2
#     Edge 36, Type (0, 1), BuildingBlock: AJUNOK_clean_linker_0, # of connection points: 2
#     Edge 37, Type (0, 1), BuildingBlock: AJUNOK_clean_linker_0, # of connection points: 2
#     Edge 38, Type (0, 1), BuildingBlock: AJUNOK_clean_linker_0, # of connection points: 2
#     Edge 39, Type (0, 1), BuildingBlock: AJUNOK_clean_linker_0, # of connection points: 2
#     Edge 40, Type (0, 1), BuildingBlock: AJUNOK_clean_linker_0, # of connection points: 2
#     Edge 41, Type (0, 1), BuildingBlock: AJUNOK_clean_linker_0, # of connection points: 2
#     Edge 42, Type (0, 1), BuildingBlock: AJUNOK_clean_linker_0, # of connection points: 2
#     Edge 43, Type (0, 1), BuildingBlock: AJUNOK_clean_linker_0, # of connection points: 2
#     Edge 44, Type (0, 1), BuildingBlock: AJUNOK_clean_linker_0, # of connection points: 2
#     Edge 45, Type (0, 1), BuildingBlock: AJUNOK_clean_linker_0, # of connection points: 2
#     Edge 46, Type (0, 1), BuildingBlock: AJUNOK_clean_linker_0, # of connection points: 2
#     Edge 47, Type (0, 1), BuildingBlock: AJUNOK_clean_linker_0, # of connection points: 2
#     Edge 48, Type (0, 1), BuildingBlock: AJUNOK_clean_linker_0, # of connection points: 2
#     Edge 49, Type (0, 1), BuildingBlock: AJUNOK_clean_linker_0, # of connection points: 2
#     Edge 50, Type (0, 1), BuildingBlock: AJUNOK_clean_linker_0, # of connection points: 2
#     Edge 51, Type (0, 1), BuildingBlock: AJUNOK_clean_linker_0, # of connection points: 2
#     Edge 52, Type (0, 1), BuildingBlock: AJUNOK_clean_linker_0, # of connection points: 2
#     Edge 53, Type (0, 1), BuildingBlock: AJUNOK_clean_linker_0, # of connection points: 2
#     Edge 54, Type (0, 1), BuildingBlock: AJUNOK_clean_linker_0, # of connection points: 2
#     Edge 55, Type (0, 1), BuildingBlock: AJUNOK_clean_linker_0, # of connection points: 2
#     Edge 56, Type (0, 1), BuildingBlock: AJUNOK_clean_linker_0, # of connection points: 2
#     Edge 57, Type (0, 1), BuildingBlock: AJUNOK_clean_linker_0, # of connection points: 2
#     Edge 58, Type (0, 1), BuildingBlock: AJUNOK_clean_linker_0, # of connection points: 2
#     Edge 59, Type (0, 1), BuildingBlock: AJUNOK_clean_linker_0, # of connection points: 2
#     Edge 60, Type (0, 1), BuildingBlock: AJUNOK_clean_linker_0, # of connection points: 2
#     Edge 61, Type (0, 1), BuildingBlock: AJUNOK_clean_linker_0, # of connection points: 2
#     Edge 62, Type (0, 1), BuildingBlock: AJUNOK_clean_linker_0, # of connection points: 2
#     Edge 63, Type (0, 1), BuildingBlock: AJUNOK_clean_linker_0, # of connection points: 2
#     Edge 64, Type (0, 1), BuildingBlock: AJUNOK_clean_linker_0, # of connection points: 2
#     Edge 65, Type (0, 1), BuildingBlock: AJUNOK_clean_linker_0, # of connection points: 2
#     Edge 66, Type (0, 1), BuildingBlock: AJUNOK_clean_linker_0, # of connection points: 2
#     Edge 67, Type (0, 1), BuildingBlock: AJUNOK_clean_linker_0, # of connection points: 2
#     Edge 68, Type (0, 1), BuildingBlock: AJUNOK_clean_linker_0, # of connection points: 2
#     Edge 69, Type (0, 1), BuildingBlock: AJUNOK_clean_linker_0, # of connection points: 2
#     Edge 70, Type (0, 1), BuildingBlock: AJUNOK_clean_linker_0, # of connection points: 2
#     Edge 71, Type (0, 1), BuildingBlock: AJUNOK_clean_linker_0, # of connection points: 2
#     Edge 72, Type (0, 1), BuildingBlock: AJUNOK_clean_linker_0, # of connection points: 2
#     Edge 73, Type (0, 1), BuildingBlock: AJUNOK_clean_linker_0, # of connection points: 2
#     Edge 74, Type (0, 1), BuildingBlock: AJUNOK_clean_linker_0, # of connection points: 2
#     Edge 75, Type (0, 1), BuildingBlock: AJUNOK_clean_linker_0, # of connection points: 2
#     Edge 76, Type (0, 1), BuildingBlock: AJUNOK_clean_linker_0, # of connection points: 2
#     Edge 77, Type (0, 1), BuildingBlock: AJUNOK_clean_linker_0, # of connection points: 2
#     Edge 78, Type (0, 1), BuildingBlock: AJUNOK_clean_linker_0, # of connection points: 2
#     Edge 79, Type (0, 1), BuildingBlock: AJUNOK_clean_linker_0, # of connection points: 2
#     Edge 80, Type (0, 1), BuildingBlock: AJUNOK_clean_linker_0, # of connection points: 2
# Relax obj value: 0.059
# Max RMSD: 0.226
# Mean RMSD: 0.162
data_MOF--net-eea--node1-NUHQIS_clean_sbu_0--node2-PAMTOO_clean_linker_0--edge1-AJUNOK_clean_linker_0
_symmetry_space_group_name_H-M    P1
_symmetry_Int_Tables_number       1
_symmetry_cell_setting            triclinic
loop_
_symmetry_equiv_pos_as_xyz
'x, y, z'
_cell_length_a     39.908555
_cell_length_b     40.125044
_cell_length_c     54.245285
_cell_angle_alpha  93.185331
_cell_angle_beta   93.371861
_cell_angle_gamma 119.62815
loop_
_atom_site_label
_atom_site_type_symbol
_atom_site_fract_x
_atom_site_fract_y
_atom_site_fract_z
_atom_type_partial_charge
H0 H 0.25886 0.06357 0.43815 0.0
H1 H 0.24883 0.1657 0.44187 0.0
H2 H 0.21443 0.09283 0.37361 0.0
H3 H 0.25697 0.17587 0.36771 0.0
C4 C 0.24895 0.18662 0.38441 0.0
O5 O 0.22166 0.15594 0.39549 0.0
H6 H 0.27574 0.20361 0.39739 0.0
C7 C 0.25094 0.08262 0.42931 0.0
C8 C 0.23615 0.07416 0.40421 0.0
C9 C 0.2561 0.1158 0.44301 0.0
C10 C 0.24538 0.14009 0.43156 0.0
C11 C 0.23051 0.13171 0.4066 0.0
C12 C 0.22564 0.09875 0.393 0.0
H13 H 0.97451 0.21078 0.43933 0.0
H14 H 0.87781 0.09663 0.44101 0.0
H15 H 0.93872 0.12586 0.37614 0.0
H16 H 0.85047 0.07554 0.36652 0.0
C17 C 0.84565 0.06295 0.38463 0.0
O18 O 0.88095 0.07158 0.39652 0.0
H19 H 0.83174 0.07602 0.39577 0.0
C20 C 0.95554 0.18204 0.43026 0.0
C21 C 0.96171 0.17168 0.40629 0.0
C22 C 0.9254 0.15504 0.4429 0.0
C23 C 0.90135 0.11758 0.43157 0.0
C24 C 0.90604 0.10729 0.40756 0.0
C25 C 0.93599 0.1342 0.39492 0.0
H26 H 0.8274 0.76722 0.44754 0.0
H27 H 0.93907 0.77494 0.45176 0.0
H28 H 0.90042 0.81009 0.38801 0.0
H29 H 0.94047 0.76394 0.37964 0.0
C30 C 0.96374 0.77812 0.39527 0.0
O31 O 0.95784 0.80429 0.40932 0.0
H32 H 0.96147 0.75521 0.40686 0.0
C33 C 0.85413 0.77467 0.43944 0.0
C34 C 0.8602 0.78986 0.41622 0.0
C35 C 0.88194 0.76844 0.45225 0.0
C36 C 0.91697 0.77879 0.44195 0.0
C37 C 0.92373 0.7941 0.41893 0.0
C38 C 0.89523 0.79922 0.40605 0.0
H39 H 0.05211 0.24333 0.59054 0.0
H40 H 0.15574 0.23498 0.59107 0.0
H41 H 0.08616 0.19925 0.65207 0.0
H42 H 0.17523 0.2429 0.66475 0.0
C43 C 0.18252 0.23275 0.64745 0.0
O44 O 0.14859 0.20605 0.63349 0.0
H45 H 0.19893 0.2582 0.63701 0.0
C46 C 0.07205 0.23572 0.59952 0.0
C47 C 0.0648 0.22038 0.62269 0.0
C48 C 0.10469 0.24097 0.58778 0.0
C49 C 0.13017 0.23074 0.59956 0.0
C50 C 0.12372 0.21604 0.6227 0.0
C51 C 0.09124 0.21113 0.63432 0.0
H52 H 0.7682 0.81801 0.60328 0.0
H53 H 0.77589 0.92901 0.60864 0.0
H54 H 0.81706 0.8935 0.67101 0.0
H55 H 0.77649 0.93933 0.68572 0.0
C56 C 0.7786 0.95155 0.66762 0.0
O57 O 0.80535 0.94733 0.65488 0.0
H58 H 0.74932 0.93557 0.6571 0.0
C59 C 0.77715 0.84539 0.61373 0.0
C60 C 0.79467 0.85281 0.63816 0.0
C61 C 0.77092 0.87291 0.60267 0.0
C62 C 0.78053 0.90737 0.61677 0.0
C63 C 0.79635 0.9142 0.64148 0.0
C64 C 0.80368 0.88721 0.6521 0.0
H65 H 0.19494 0.94563 0.59376 0.0
H66 H 0.0852 0.84102 0.59088 0.0
H67 H 0.1236 0.92502 0.6541 0.0
H68 H 0.08798 0.84512 0.66634 0.0
C69 C 0.0659 0.83015 0.65015 0.0
O70 O 0.06838 0.85714 0.63447 0.0
H71 H 0.07241 0.80926 0.64029 0.0
C72 C 0.16846 0.92779 0.60205 0.0
C73 C 0.1626 0.94039 0.62528 0.0
C74 C 0.14073 0.89232 0.5893 0.0
C75 C 0.10716 0.86831 0.60052 0.0
C76 C 0.10128 0.87993 0.62403 0.0
C77 C 0.12888 0.91595 0.63626 0.0
H78 H 0.92069 0.39224 0.76733 0.0
H79 H 0.91154 0.4948 0.77451 0.0
H80 H 0.8798 0.42734 0.70418 0.0
H81 H 0.92146 0.51192 0.70151 0.0
C82 C 0.91284 0.52069 0.71876 0.0
O83 O 0.88519 0.48828 0.7283 0.0
H84 H 0.93909 0.53661 0.73229 0.0
C85 C 0.91371 0.41241 0.75919 0.0
C86 C 0.90041 0.40626 0.73391 0.0
C87 C 0.91777 0.44414 0.77412 0.0
C88 C 0.90771 0.46954 0.76355 0.0
C89 C 0.89399 0.46329 0.73841 0.0
C90 C 0.89011 0.43164 0.72366 0.0
H91 H 0.64504 0.54346 0.77543 0.0
H92 H 0.5466 0.42923 0.77386 0.0
H93 H 0.60894 0.46265 0.70996 0.0
H94 H 0.51864 0.40915 0.69976 0.0
C95 C 0.51525 0.39747 0.71813 0.0
O96 O 0.55114 0.4067 0.7293 0.0
H97 H 0.50191 0.41103 0.72942 0.0
C98 C 0.62574 0.51531 0.76568 0.0
C99 C 0.63178 0.50658 0.74126 0.0
C100 C 0.59532 0.48741 0.77781 0.0
C101 C 0.5708 0.45084 0.76521 0.0
C102 C 0.57582 0.44206 0.74098 0.0
C103 C 0.60599 0.46981 0.72896 0.0
H104 H 0.49285 0.09854 0.78041 0.0
H105 H 0.60596 0.10913 0.78493 0.0
H106 H 0.56584 0.14272 0.72114 0.0
H107 H 0.6075 0.10348 0.7094 0.0
C108 C 0.62876 0.11281 0.7261 0.0
O109 O 0.62364 0.13762 0.74216 0.0
H110 H 0.6229 0.08657 0.73525 0.0
C111 C 0.51977 0.10645 0.77246 0.0
C112 C 0.52573 0.12191 0.74933 0.0
C113 C 0.54804 0.10096 0.78545 0.0
C114 C 0.5832 0.11187 0.77505 0.0
C115 C 0.58954 0.12694 0.75191 0.0
C116 C 0.5608 0.13174 0.73915 0.0
H117 H 0.72262 0.58053 0.92497 0.0
H118 H 0.8224 0.56627 0.92246 0.0
H119 H 0.75323 0.52853 0.98337 0.0
H120 H 0.84092 0.57367 0.99573 0.0
C121 C 0.84932 0.56415 0.97867 0.0
O122 O 0.81587 0.53681 0.96453 0.0
H123 H 0.86535 0.5896 0.96815 0.0
C124 C 0.74124 0.57066 0.93308 0.0
C125 C 0.73348 0.55401 0.95587 0.0
C126 C 0.77274 0.57455 0.92054 0.0
C127 C 0.7972 0.56234 0.9313 0.0
C128 C 0.79057 0.5465 0.95405 0.0
C129 C 0.75857 0.54192 0.96615 0.0
H130 H 0.43435 0.14574 0.93934 0.0
H131 H 0.44209 0.25664 0.94161 0.0
H132 H 0.47873 0.22252 1.00669 0.0
H133 H 0.44419 0.27329 0.01879 0.0
C134 C 0.44582 0.28368 1.00007 0.0
O135 O 0.4719 0.27763 0.98777 0.0
H136 H 0.41627 0.26732 0.98995 0.0
C137 C 0.44122 0.17267 0.94961 0.0
C138 C 0.45641 0.18034 0.97462 0.0
C139 C 0.43533 0.19971 0.93762 0.0
C140 C 0.44636 0.23539 0.95058 0.0
C141 C 0.46191 0.24343 0.9754 0.0
C142 C 0.46697 0.21604 0.98739 0.0
H143 H 0.8641 0.28278 0.92906 0.0
H144 H 0.75203 0.18006 0.92119 0.0
H145 H 0.79417 0.25191 0.99039 0.0
H146 H 0.75357 0.16963 0.99573 0.0
C147 C 0.73165 0.15869 0.97928 0.0
O148 O 0.73609 0.18936 0.96661 0.0
H149 H 0.73667 0.13868 0.96709 0.0
C150 C 0.83773 0.26325 0.93687 0.0
C151 C 0.83307 0.27113 0.9616 0.0
C152 C 0.80874 0.23075 0.922 0.0
C153 C 0.77473 0.20534 0.93234 0.0
C154 C 0.76949 0.21305 0.95699 0.0
C155 C 0.79849 0.24609 0.97145 0.0
H156 H 0.59965 0.73183 0.10024 0.0
H157 H 0.59297 0.8358 0.10547 0.0
H158 H 0.55379 0.7624 0.03714 0.0
H159 H 0.59102 0.84382 0.02947 0.0
C160 C 0.58684 0.85541 0.04743 0.0
O161 O 0.56163 0.82525 0.05989 0.0
H162 H 0.61559 0.87214 0.05849 0.0
C163 C 0.59283 0.75183 0.09169 0.0
C164 C 0.57703 0.74357 0.06682 0.0
C165 C 0.5993 0.78527 0.10575 0.0
C166 C 0.58832 0.80986 0.09494 0.0
C167 C 0.57193 0.80146 0.07025 0.0
C168 C 0.5662 0.76838 0.05627 0.0
H169 H 0.30579 0.87693 0.10679 0.0
H170 H 0.20984 0.76158 0.10581 0.0
H171 H 0.28124 0.79141 0.04586 0.0
H172 H 0.19613 0.74265 0.02981 0.0
C173 C 0.1865 0.73046 0.04767 0.0
O174 O 0.21891 0.73757 0.06274 0.0
H175 H 0.17185 0.745 0.0563 0.0
C176 C 0.28851 0.84794 0.09773 0.0
C177 C 0.29778 0.83814 0.07465 0.0
C178 C 0.25716 0.82039 0.1093 0.0
C179 C 0.23467 0.78296 0.09751 0.0
C180 C 0.24287 0.77302 0.07451 0.0
C181 C 0.27467 0.8002 0.0633 0.0
H182 H 0.15954 0.43271 0.11238 0.0
H183 H 0.2699 0.43746 0.11735 0.0
H184 H 0.23527 0.47788 0.05456 0.0
H185 H 0.27523 0.43579 0.04339 0.0
C186 C 0.29661 0.44546 0.06005 0.0
O187 O 0.29124 0.47016 0.07603 0.0
H188 H 0.2912 0.41945 0.06934 0.0
C189 C 0.18625 0.43946 0.10448 0.0
C190 C 0.19356 0.45598 0.08176 0.0
C191 C 0.21305 0.43184 0.11733 0.0
C192 C 0.24868 0.44273 0.10769 0.0
C193 C 0.25675 0.45962 0.08517 0.0
C194 C 0.22909 0.46588 0.07223 0.0
H195 H 0.39028 0.9176 0.25888 0.0
H196 H 0.48905 0.90154 0.25671 0.0
H197 H 0.41977 0.86495 0.31751 0.0
H198 H 0.50696 0.90441 0.3299 0.0
C199 C 0.51419 0.89473 0.31239 0.0
O200 O 0.48023 0.86943 0.29791 0.0
H201 H 0.53148 0.92077 0.30263 0.0
C202 C 0.40848 0.90734 0.2671 0.0
C203 C 0.39951 0.88932 0.28944 0.0
C204 C 0.44138 0.9129 0.2555 0.0
C205 C 0.46424 0.89849 0.26568 0.0
C206 C 0.45638 0.88125 0.28789 0.0
C207 C 0.42449 0.87713 0.29987 0.0
H208 H 0.1018 0.48181 0.27062 0.0
H209 H 0.11554 0.59516 0.27399 0.0
H210 H 0.15547 0.5601 0.33703 0.0
H211 H 0.11845 0.60929 0.3516 0.0
C212 C 0.1191 0.61956 0.33291 0.0
O213 O 0.14531 0.61439 0.32013 0.0
H214 H 0.0893 0.60252 0.32319 0.0
C215 C 0.11209 0.50976 0.2807 0.0
C216 C 0.12957 0.51732 0.30518 0.0
C217 C 0.10748 0.53783 0.26915 0.0
C218 C 0.11907 0.57325 0.2826 0.0
C219 C 0.13533 0.58062 0.30719 0.0
C220 C 0.14126 0.55311 0.31833 0.0
H221 H 0.53095 0.60723 0.26171 0.0
H222 H 0.42019 0.50348 0.25842 0.0
H223 H 0.46217 0.58427 0.3235 0.0
H224 H 0.41961 0.5039 0.33399 0.0
C225 C 0.39916 0.49077 0.31686 0.0
O226 O 0.40386 0.51957 0.30216 0.0
H227 H 0.40613 0.47038 0.30679 0.0
C228 C 0.50533 0.58842 0.27047 0.0
C229 C 0.50093 0.59961 0.29454 0.0
C230 C 0.47671 0.5538 0.2572 0.0
C231 C 0.44259 0.53042 0.26818 0.0
C232 C 0.43733 0.54156 0.29202 0.0
C233 C 0.46643 0.57608 0.30508 0.0
Tb234 Tb 0.49191 0.99452 0.99289 0.0
Eu235 Eu 0.5178 0.02906 0.05267 0.0
C236 C 0.52535 0.95839 0.03071 0.0
C237 C 0.43446 0.95583 0.03334 0.0
C238 C 0.48598 0.99355 0.9235 0.0
C239 C 0.48885 0.98937 0.87877 0.0
C240 C 0.47799 0.97152 0.9007 0.0
C241 C 0.50456 0.03386 0.92398 0.0
C242 C 0.51566 0.0518 0.90203 0.0
C243 C 0.50846 0.0298 0.87915 0.0
C244 C 0.47623 0.97405 0.94655 0.0
O245 O 0.4672 0.03085 1.0017 0.0
O246 O 0.5126 0.07372 0.03224 0.0
O247 O 0.57278 0.05463 0.0334 0.0
O248 O 0.54509 0.0499 0.99411 0.0
C249 C 0.48516 0.0649 1.01437 0.0
O250 O 0.50749 0.05449 0.08602 0.0
O251 O 0.55294 0.03978 0.08775 0.0
O252 O 0.51422 0.97163 0.04919 0.0
O253 O 0.52494 0.96917 1.00829 0.0
O254 O 0.44722 0.94989 1.01258 0.0
O255 O 0.45359 0.9883 0.04775 0.0
C256 C 0.57581 0.06357 1.0103 0.0
O257 O 0.505 0.97523 0.95994 0.0
O258 O 0.45403 0.9805 0.96037 0.0
C259 C 0.51772 0.03058 0.12287 0.0
C260 C 0.49029 0.99346 0.16623 0.0
C261 C 0.51012 0.03393 0.16698 0.0
C262 C 0.52372 0.05226 0.14553 0.0
C263 C 0.49729 0.99016 0.12188 0.0
C264 C 0.4836 0.97177 0.14334 0.0
C265 C 0.53231 0.05034 0.1004 0.0
H266 H 0.48162 0.97138 0.86147 0.0
H267 H 0.46349 0.94038 0.89987 0.0
H268 H 0.51089 0.05145 0.94137 0.0
H269 H 0.53053 0.08296 0.90303 0.0
H270 H 0.51507 0.05146 0.18418 0.0
H271 H 0.53902 0.08345 0.14665 0.0
H272 H 0.49217 0.97284 0.10454 0.0
H273 H 0.46848 0.94059 0.14215 0.0
Tb274 Tb 0.0255 0.49444 0.99291 0.0
Eu275 Eu 1.0003 0.48946 0.04921 0.0
C276 C 0.06741 0.56698 0.03208 0.0
C277 C 0.07039 0.47766 0.03545 0.0
C278 C 0.02509 0.48842 0.92404 0.0
C279 C 0.02791 0.49851 0.88043 0.0
C280 C 0.04639 0.50599 0.90436 0.0
C281 C 0.985 0.46312 0.91962 0.0
C282 C 0.96647 0.45547 0.8956 0.0
C283 C 0.98775 0.47334 0.87581 0.0
C284 C 0.04494 0.49835 0.94917 0.0
O285 O 0.98834 0.43374 0.99735 0.0
O286 O 0.95075 0.43937 0.02544 0.0
O287 O 0.97358 0.51903 0.02895 0.0
O288 O 0.97054 0.49482 0.98911 0.0
C289 C 0.95606 0.41896 1.00802 0.0
O290 O 0.97835 0.45586 0.08066 0.0
O291 O 0.98963 0.51466 0.08228 0.0
O292 O 0.05787 0.54487 0.05041 0.0
O293 O 0.05051 0.55302 1.00957 0.0
O294 O 0.07388 0.49778 0.01645 0.0
O295 O 0.03922 0.46387 0.04727 0.0
C296 C 0.96003 0.51251 1.00552 0.0
O297 O 0.04391 0.52601 0.9621 0.0
O298 O 0.03829 0.46983 0.96225 0.0
C299 C 0.99965 0.49221 0.11949 0.0
C300 C 0.03615 0.50665 0.16786 0.0
C301 C 0.99555 0.48537 0.16347 0.0
C302 C 0.97744 0.47817 0.13942 0.0
C303 C 0.04018 0.51345 0.12372 0.0
C304 C 0.05832 0.52077 0.14778 0.0
C305 C 0.98025 0.48457 0.09441 0.0
H306 H 0.04496 0.5128 0.86554 0.0
H307 H 0.07731 0.52584 0.90756 0.0
H308 H 0.96811 0.44948 0.93471 0.0
H309 H 0.93562 0.43537 0.89248 0.0
H310 H 0.97785 0.47408 0.17863 0.0
H311 H 0.94611 0.46165 0.13638 0.0
H312 H 0.0577 0.52452 0.10844 0.0
H313 H 0.08961 0.53788 0.15073 0.0
Tb314 Tb 0.54045 0.52616 0.04202 0.0
Eu315 Eu 0.50805 0.52208 0.98342 0.0
C316 C 0.49998 0.4485 1.00776 0.0
C317 C 0.59411 0.53485 0.99903 0.0
C318 C 0.54332 0.53031 0.11129 0.0
C319 C 0.53428 0.50883 0.15277 0.0
C320 C 0.54889 0.50989 0.12976 0.0
C321 C 0.52203 0.54894 0.11609 0.0
C322 C 0.50762 0.54806 0.1391 0.0
C323 C 0.51377 0.52822 0.15782 0.0
C324 C 0.5618 0.53395 0.08788 0.0
O325 O 0.56735 0.58275 0.02862 0.0
O326 O 0.51527 0.57515 1.0048 0.0
O327 O 0.45464 0.49777 1.00404 0.0
O328 O 0.48408 0.52276 0.04372 0.0
C329 C 0.54671 0.59718 0.01961 0.0
O330 O 0.51233 0.55326 0.95099 0.0
O331 O 0.47228 0.49188 0.94866 0.0
O332 O 0.50956 0.46765 0.98812 0.0
O333 O 0.50243 0.46556 0.0297 0.0
O334 O 0.58495 0.52361 0.02131 0.0
O335 O 0.57179 0.54206 0.98404 0.0
C336 C 0.4528 0.50524 0.02773 0.0
O337 O 0.55082 0.50247 0.07349 0.0
O338 O 0.56562 0.56201 0.07517 0.0
C339 C 0.50597 0.51705 0.91378 0.0
C340 C 0.54095 0.51085 0.8712 0.0
C341 C 0.51156 0.52067 0.86949 0.0
C342 C 0.49438 0.52394 0.89064 0.0
C343 C 0.53502 0.50709 0.91556 0.0
C344 C 0.55279 0.50461 0.89462 0.0
C345 C 0.48949 0.52209 0.93635 0.0
H346 H 0.53953 0.4933 0.16678 0.0
H347 H 0.56527 0.49539 0.12658 0.0
H348 H 0.51723 0.56502 0.10227 0.0
H349 H 0.4928 0.56408 0.14249 0.0
H350 H 0.50155 0.52544 0.85176 0.0
H351 H 0.47209 0.53185 0.88891 0.0
H352 H 0.54401 0.50146 0.93329 0.0
H353 H 0.576 0.49808 0.89689 0.0
Tb354 Tb 0.15763 0.32462 0.32369 0.0
Eu355 Eu 0.17868 0.35782 0.38384 0.0
C356 C 0.18783 0.28792 0.36241 0.0
C357 C 0.09625 0.28757 0.3622 0.0
C358 C 0.15429 0.32182 0.25446 0.0
C359 C 0.15846 0.31743 0.20993 0.0
C360 C 0.14857 0.29983 0.232 0.0
C361 C 0.17052 0.3619 0.25458 0.0
C362 C 0.18034 0.37958 0.23245 0.0
C363 C 0.17409 0.35749 0.20978 0.0
C364 C 0.14483 0.3027 0.27763 0.0
O365 O 0.13785 0.36592 0.32886 0.0
O366 O 0.17591 0.4041 0.36405 0.0
O367 O 0.23539 0.38545 0.36618 0.0
O368 O 0.21116 0.37951 0.32566 0.0
C369 C 0.15375 0.39819 0.34356 0.0
O370 O 0.16565 0.38064 0.41717 0.0
O371 O 0.21228 0.36774 0.41949 0.0
O372 O 0.17472 0.30002 0.38035 0.0
O373 O 0.19101 0.301 0.34055 0.0
O374 O 0.11187 0.28062 0.34324 0.0
O375 O 0.11407 0.32081 0.37576 0.0
C376 C 0.24039 0.39404 0.34305 0.0
O377 O 0.17425 0.30665 0.29184 0.0
O378 O 0.12044 0.30703 0.29053 0.0
C379 C 0.17557 0.35621 0.45387 0.0
C380 C 0.14835 0.31642 0.49633 0.0
C381 C 0.17672 0.35574 0.49876 0.0
C382 C 0.19024 0.37539 0.47773 0.0
C383 C 0.14684 0.31711 0.45129 0.0
C384 C 0.1333 0.29742 0.47231 0.0
C385 C 0.19052 0.37703 0.43185 0.0
H386 H 0.15425 0.29966 0.19297 0.0
H387 H 0.1367 0.26897 0.23155 0.0
H388 H 0.17573 0.37948 0.27179 0.0
H389 H 0.19243 0.41048 0.23303 0.0
H390 H 0.18899 0.37116 0.51696 0.0
H391 H 0.21238 0.40555 0.48012 0.0
H392 H 0.13495 0.30181 0.433 0.0
H393 H 0.11089 0.26739 0.46977 0.0
Tb394 Tb 0.69255 0.82839 0.3267 0.0
Eu395 Eu 0.66396 0.81919 0.38247 0.0
C396 C 0.73206 0.89825 0.36779 0.0
C397 C 0.73562 0.80942 0.36941 0.0
C398 C 0.69813 0.82844 0.25799 0.0
C399 C 0.70593 0.84096 0.21489 0.0
C400 C 0.72172 0.84738 0.23949 0.0
C401 C 0.65836 0.8032 0.25173 0.0
C402 C 0.64253 0.79659 0.22703 0.0
C403 C 0.66628 0.81518 0.20834 0.0
C404 C 0.71541 0.83695 0.28376 0.0
O405 O 0.65469 0.76681 0.32867 0.0
O406 O 0.6164 0.76876 0.35786 0.0
O407 O 0.63503 0.84671 0.36188 0.0
O408 O 0.6366 0.82627 0.32186 0.0
C409 C 0.62245 0.75036 0.33947 0.0
O410 O 0.64314 0.78514 0.4139 0.0
O411 O 0.65033 0.84243 0.41513 0.0
O412 O 0.72132 0.87479 0.38533 0.0
O413 O 0.71593 0.88601 0.34496 0.0
O414 O 0.73975 0.83043 0.35081 0.0
O415 O 0.70374 0.79453 0.38055 0.0
C416 C 0.62271 0.84057 0.33819 0.0
O417 O 0.71138 0.86248 0.29704 0.0
O418 O 0.70918 0.80769 0.29599 0.0
C419 C 0.66267 0.82204 0.45259 0.0
C420 C 0.69985 0.83959 0.50104 0.0
C421 C 0.65935 0.81646 0.49676 0.0
C422 C 0.64092 0.80772 0.47268 0.0
C423 C 0.7031 0.8452 0.45673 0.0
C424 C 0.72156 0.85404 0.48081 0.0
C425 C 0.64296 0.81293 0.42746 0.0
H426 H 0.72472 0.85648 0.20101 0.0
H427 H 0.75236 0.86745 0.24412 0.0
H428 H 0.63965 0.78876 0.26591 0.0
H429 H 0.61185 0.77669 0.22249 0.0
H430 H 0.642 0.80487 0.51203 0.0
H431 H 0.60968 0.78979 0.46975 0.0
H432 H 0.72029 0.85658 0.44135 0.0
H433 H 0.75272 0.87253 0.48363 0.0
Tb434 Tb 0.20621 0.85861 0.37656 0.0
Eu435 Eu 0.17709 0.85772 0.31811 0.0
C436 C 0.1679 0.78297 0.34118 0.0
C437 C 0.26215 0.87178 0.33458 0.0
C438 C 0.20854 0.86063 0.44551 0.0
C439 C 0.20803 0.85278 0.4897 0.0
C440 C 0.22299 0.85219 0.46703 0.0
C441 C 0.17805 0.86852 0.44683 0.0
C442 C 0.16318 0.86924 0.46947 0.0
C443 C 0.17833 0.86188 0.49124 0.0
C444 C 0.22714 0.86378 0.42232 0.0
O445 O 0.23221 0.91645 0.36512 0.0
O446 O 0.18099 0.9087 0.34017 0.0
O447 O 0.1226 0.8323 0.33761 0.0
O448 O 0.14943 0.85456 0.37803 0.0
C449 C 0.21127 0.93046 0.35595 0.0
O450 O 0.18193 0.88982 0.28611 0.0
O451 O 0.14272 0.82814 0.28285 0.0
O452 O 0.17916 0.80328 0.32211 0.0
O453 O 0.16801 0.79879 0.36301 0.0
O454 O 0.24997 0.85543 0.35519 0.0
O455 O 0.24186 0.88278 0.32085 0.0
C456 C 0.11912 0.83846 0.36119 0.0
O457 O 0.21408 0.83243 0.40743 0.0
O458 O 0.23274 0.89289 0.41017 0.0
C459 C 0.17537 0.85501 0.24742 0.0
C460 C 0.20481 0.84724 0.20255 0.0
C461 C 0.22181 0.88299 0.21686 0.0
C462 C 0.20718 0.88688 0.239 0.0
C463 C 0.15823 0.81933 0.23297 0.0
C464 C 0.17289 0.81546 0.21086 0.0
C465 C 0.15995 0.85889 0.27103 0.0
H466 H 0.22081 0.84769 0.5062 0.0
H467 H 0.24665 0.84626 0.46646 0.0
H468 H 0.1665 0.87524 0.43049 0.0
H469 H 0.14029 0.8763 0.47007 0.0
H470 H 0.24678 0.90785 0.21113 0.0
H471 H 0.22102 0.91487 0.24957 0.0
H472 H 0.13348 0.79431 0.23877 0.0
H473 H 0.15903 0.7876 0.20011 0.0
Tb474 Tb 0.82637 0.66223 0.65847 0.0
Eu475 Eu 0.84542 0.69595 0.71835 0.0
C476 C 0.85545 0.6259 0.69828 0.0
C477 C 0.76401 0.62508 0.69657 0.0
C478 C 0.82344 0.65951 0.5894 0.0
C479 C 0.81541 0.65629 0.54431 0.0
C480 C 0.80543 0.63851 0.56636 0.0
C481 C 0.8514 0.69871 0.59007 0.0
C482 C 0.86115 0.71661 0.56805 0.0
C483 C 0.84352 0.69551 0.5449 0.0
C484 C 0.81388 0.64001 0.61246 0.0
O485 O 0.80657 0.70369 0.66274 0.0
O486 O 0.84347 0.74225 0.69809 0.0
O487 O 0.90269 0.72339 0.70159 0.0
O488 O 0.88046 0.71685 0.66054 0.0
C489 C 0.82225 0.73623 0.67714 0.0
O490 O 0.83111 0.71794 0.75145 0.0
O491 O 0.87916 0.70712 0.75408 0.0
O492 O 0.84133 0.63809 0.7155 0.0
O493 O 0.85909 0.63842 0.67619 0.0
O494 O 0.78033 0.61825 0.67796 0.0
O495 O 0.78098 0.6587 0.70965 0.0
C496 C 0.9088 0.73206 0.67859 0.0
O497 O 0.84323 0.64411 0.62684 0.0
O498 O 0.78918 0.64398 0.62522 0.0
C499 C 0.84185 0.69397 0.7881 0.0
C500 C 0.81563 0.65294 0.83015 0.0
C501 C 0.84422 0.6922 0.83288 0.0
C502 C 0.85724 0.71247 0.81205 0.0
C503 C 0.813 0.65492 0.78522 0.0
C504 C 0.7999 0.63463 0.80606 0.0
C505 C 0.85649 0.71529 0.76627 0.0
H506 H 0.80101 0.63941 0.52678 0.0
H507 H 0.78385 0.60823 0.56539 0.0
H508 H 0.866 0.71534 0.60761 0.0
H509 H 0.88304 0.74679 0.56906 0.0
H510 H 0.85702 0.70707 0.85116 0.0
H511 H 0.87957 0.74255 0.81464 0.0
H512 H 0.80069 0.64013 0.76686 0.0
H513 H 0.77731 0.60467 0.8033 0.0
Tb514 Tb 0.36057 0.16521 0.66089 0.0
Eu515 Eu 0.33187 0.15492 0.71709 0.0
C516 C 0.40216 0.2335 0.7027 0.0
C517 C 0.40171 0.14279 0.70318 0.0
C518 C 0.36396 0.1635 0.59273 0.0
C519 C 0.36796 0.16159 0.54833 0.0
C520 C 0.38579 0.16918 0.57251 0.0
C521 C 0.32402 0.14963 0.58862 0.0
C522 C 0.30613 0.14196 0.56447 0.0
C523 C 0.32807 0.14835 0.54413 0.0
C524 C 0.38327 0.17371 0.618 0.0
O525 O 0.31729 0.10455 0.65994 0.0
O526 O 0.2833 0.10493 0.69271 0.0
O527 O 0.30351 0.18365 0.6972 0.0
O528 O 0.30621 0.1662 0.65665 0.0
C529 C 0.28633 0.08845 0.67202 0.0
O530 O 0.30917 0.11989 0.74782 0.0
O531 O 0.32067 0.17877 0.75063 0.0
O532 O 0.38996 0.21002 0.72021 0.0
O533 O 0.38612 0.22249 0.67981 0.0
O534 O 0.40627 0.16411 0.68472 0.0
O535 O 0.3701 0.12861 0.71455 0.0
C536 C 0.29213 0.17953 0.67345 0.0
O537 O 0.3791 0.19923 0.63125 0.0
O538 O 0.37839 0.1451 0.63053 0.0
C539 C 0.32922 0.1544 0.78735 0.0
C540 C 0.36397 0.16722 0.83613 0.0
C541 C 0.32481 0.15691 0.83171 0.0
C542 C 0.30757 0.15047 0.80748 0.0
C543 C 0.36839 0.16498 0.7916 0.0
C544 C 0.38569 0.17143 0.81587 0.0
C545 C 0.31074 0.14799 0.76208 0.0
H546 H 0.38532 0.16604 0.53292 0.0
H547 H 0.41666 0.17986 0.57542 0.0
H548 H 0.30691 0.14537 0.60412 0.0
H549 H 0.27536 0.13181 0.56167 0.0
H550 H 0.30767 0.15433 0.847 0.0
H551 H 0.27737 0.14262 0.80445 0.0
H552 H 0.38551 0.16828 0.77618 0.0
H553 H 0.41592 0.17939 0.81882 0.0
Tb554 Tb 0.87334 0.1958 0.70802 0.0
Eu555 Eu 0.83985 0.18843 0.64913 0.0
C556 C 0.83197 0.11608 0.67573 0.0
C557 C 0.92543 0.20035 0.665 0.0
C558 C 0.87779 0.20564 0.7771 0.0
C559 C 0.87482 0.19554 0.82096 0.0
C560 C 0.8896 0.19418 0.79833 0.0
C561 C 0.85006 0.21737 0.77869 0.0
C562 C 0.83529 0.2187 0.80125 0.0
C563 C 0.84809 0.20859 0.82278 0.0
C564 C 0.89604 0.20733 0.75388 0.0
O565 O 0.89938 0.251 0.69282 0.0
O566 O 0.84608 0.24149 0.66987 0.0
O567 O 0.78649 0.16475 0.66983 0.0
O568 O 0.81617 0.19077 0.70945 0.0
C569 C 0.87783 0.26455 0.68408 0.0
O570 O 0.84249 0.21979 0.61714 0.0
O571 O 0.80641 0.15766 0.6137 0.0
O572 O 0.83926 0.13322 0.65518 0.0
O573 O 0.83579 0.13471 0.69733 0.0
O574 O 0.91702 0.19114 0.68771 0.0
O575 O 0.90333 0.20733 0.64968 0.0
C576 C 0.7848 0.17255 0.69352 0.0
O577 O 0.88469 0.17485 0.74055 0.0
O578 O 0.89931 0.23415 0.7401 0.0
C579 C 0.83931 0.18657 0.57912 0.0
C580 C 0.87257 0.18195 0.53545 0.0
C581 C 0.83368 0.17299 0.53433 0.0
C582 C 0.81713 0.17512 0.55603 0.0
C583 C 0.87842 0.19635 0.58017 0.0
C584 C 0.89487 0.19399 0.55854 0.0
C585 C 0.82186 0.18867 0.60199 0.0
H586 H 0.8853 0.18764 0.83723 0.0
H587 H 0.91097 0.18507 0.79756 0.0
H588 H 0.84029 0.22622 0.76257 0.0
H589 H 0.8141 0.22806 0.8019 0.0
H590 H 0.8159 0.16359 0.51672 0.0
H591 H 0.78699 0.16768 0.55481 0.0
H592 H 0.89624 0.20585 0.59774 0.0
H593 H 0.92507 0.20165 0.5598 0.0
C594 C 0.36679 0.89215 0.07814 0.0
C595 C 0.33223 0.86728 0.06306 0.0
C596 C 0.39945 0.9203 0.06817 0.0
C597 C 0.39943 0.9245 0.04258 0.0
H598 H 0.36885 0.88981 0.0979 0.0
H599 H 0.42515 0.93881 0.08068 0.0
S600 S 0.31651 0.86806 0.99486 0.0
N601 N 0.29981 0.85005 0.02102 0.0
N602 N 0.3621 0.90198 1.00229 0.0
C603 C 0.36552 0.89968 0.02712 0.0
C604 C 0.33176 0.87135 0.03733 0.0
C605 C 0.12391 0.43279 0.06692 0.0
C606 C 0.16323 0.4616 0.06805 0.0
C607 C 0.09435 0.43798 0.05586 0.0
C608 C 0.1027 0.47191 0.04497 0.0
H609 H 0.11575 0.40595 0.07487 0.0
H610 H 0.06459 0.41521 0.05596 0.0
S611 S 0.20039 0.55663 0.04298 0.0
N612 N 0.20861 0.52587 0.05751 0.0
N613 N 0.15303 0.5349 0.03593 0.0
C614 C 0.14179 0.50061 0.0453 0.0
C615 C 0.17201 0.49563 0.05697 0.0
C616 C 0.53502 0.68258 0.03938 0.0
C617 C 0.57129 0.70854 0.05223 0.0
C618 C 0.52781 0.64726 0.02776 0.0
C619 C 0.55662 0.6367 0.02868 0.0
H620 H 0.51156 0.68888 0.03917 0.0
H621 H 0.49896 0.62745 0.01897 0.0
S622 S 0.65818 0.69727 0.05683 0.0
N623 N 0.63757 0.72339 0.06279 0.0
N624 N 0.62403 0.65687 0.04127 0.0
C625 C 0.59365 0.6634 0.04031 0.0
C626 C 0.60098 0.69935 0.05202 0.0
C627 C 0.85583 0.33294 0.98857 0.0
C628 C 0.86425 0.30634 0.97651 0.0
C629 C 0.88564 0.36878 0.99977 0.0
C630 C 0.92485 0.3793 0.99915 0.0
H631 H 0.82614 0.32674 0.98839 0.0
H632 H 0.87794 0.38902 1.00796 0.0
S633 S 0.96181 0.31737 0.97342 0.0
N634 N 0.91432 0.29108 0.96736 0.0
N635 N 0.97018 0.35844 0.98791 0.0
C636 C 0.93345 0.35204 0.98838 0.0
C637 C 0.9032 0.31558 0.9772 0.0
C638 C 0.66319 0.53538 0.95338 0.0
C639 C 0.69838 0.54822 0.96808 0.0
C640 C 0.63004 0.53095 0.96374 0.0
C641 C 0.62996 0.53847 0.98939 0.0
H642 H 0.66106 0.52855 0.93354 0.0
H643 H 0.6041 0.52127 0.9514 0.0
S644 S 0.7144 0.57332 0.03641 0.0
N645 N 0.73122 0.56926 1.00997 0.0
N646 N 0.66823 0.55948 0.02943 0.0
C647 C 0.66459 0.55059 1.00453 0.0
C648 C 0.69884 0.55576 0.99391 0.0
C649 C 0.49746 0.16148 1.00029 0.0
C650 C 0.46175 0.15112 0.98708 0.0
C651 C 0.50429 0.13355 1.01013 0.0
C652 C 0.47569 0.09435 1.00694 0.0
H653 H 0.5208 0.19114 1.00221 0.0
H654 H 0.53271 0.14256 0.01931 0.0
S655 S 0.37543 0.05321 0.97703 0.0
N656 N 0.39605 0.09973 0.97384 0.0
N657 N 0.40905 0.04713 0.99187 0.0
C658 C 0.43923 0.08392 0.99486 0.0
C659 C 0.43221 0.11234 0.98504 0.0
C660 C 0.68528 0.12976 1.01218 0.0
C661 C 0.69106 0.13664 0.98719 0.0
C662 C 0.64799 0.10683 0.01953 0.0
C663 C 0.61485 0.08975 1.0022 0.0
H664 H 0.70985 0.14166 0.02614 0.0
H665 H 0.6453 0.10209 0.03895 0.0
S666 S 0.61478 0.09935 0.93432 0.0
N667 N 0.66092 0.12487 0.94513 0.0
N668 N 0.59089 0.08212 0.95865 0.0
C669 C 0.62038 0.09699 0.97713 0.0
C670 C 0.6584 0.12024 0.96971 0.0
C671 C 0.87819 0.52026 0.97072 0.0
C672 C 0.87655 0.54922 0.98571 0.0
C673 C 0.9055 0.50865 0.97689 0.0
C674 C 0.93235 0.52585 0.99813 0.0
H675 H 0.85834 0.50651 0.95411 0.0
H676 H 0.90528 0.48583 0.96512 0.0
S677 S 0.94339 0.60665 0.0414 0.0
N678 N 0.9064 0.59706 0.02127 0.0
N679 N 0.9575 0.57581 0.03281 0.0
C680 C 0.93177 0.55581 1.01265 0.0
C681 C 0.9041 0.56743 1.0064 0.0
C682 C 0.47253 0.3483 0.02481 0.0
C683 C 0.4587 0.32591 1.00182 0.0
C684 C 0.4856 0.38788 0.02654 0.0
C685 C 0.48579 0.40659 1.00528 0.0
H686 H 0.47334 0.33516 0.04159 0.0
H687 H 0.49607 0.40397 0.04467 0.0
S688 S 0.45207 0.36021 0.94067 0.0
N689 N 0.44546 0.32474 0.95745 0.0
N690 N 0.47045 0.39923 0.96046 0.0
C691 C 0.47205 0.38437 0.98213 0.0
C692 C 0.45841 0.34402 0.98047 0.0
C693 C 0.15091 0.66313 0.06216 0.0
C694 C 0.15728 0.68787 0.04332 0.0
C695 C 0.12173 0.6241 0.05857 0.0
C696 C 0.09746 0.60856 0.03617 0.0
H697 H 0.16848 0.67403 0.07983 0.0
H698 H 0.11828 0.60604 0.07343 0.0
S699 S 0.09997 0.66275 0.98207 0.0
N700 N 0.13542 0.69483 1.00227 0.0
N701 N 0.08064 0.62222 0.99541 0.0
C702 C 0.10301 0.63351 0.01749 0.0
C703 C 0.13273 0.67296 0.02115 0.0
C704 C 0.34421 0.46848 0.02729 0.0
C705 C 0.33764 0.46468 0.05246 0.0
C706 C 0.3815 0.48235 0.01958 0.0
C707 C 0.41398 0.49319 0.03672 0.0
H708 H 0.32015 0.45981 1.0133 0.0
H709 H 0.38471 0.48408 0.99993 0.0
S710 S 0.4121 0.48901 0.10498 0.0
N711 N 0.36655 0.47318 0.09455 0.0
N712 N 0.43661 0.49941 0.08035 0.0
C713 C 0.40783 0.49031 0.06208 0.0
C714 C 0.36975 0.47602 0.06985 0.0
C715 C 0.56032 0.88685 0.01927 0.0
C716 C 0.57068 0.88171 0.04337 0.0
C717 C 0.54539 0.91146 1.01535 0.0
C718 C 0.53999 0.93157 0.03542 0.0
H719 H 0.56392 0.87188 1.00331 0.0
H720 H 0.53802 0.91465 0.99642 0.0
S721 S 0.56273 0.92744 0.10228 0.0
N722 N 0.57469 0.89832 0.08754 0.0
N723 N 0.54638 0.94436 0.08045 0.0
C724 C 0.55001 0.92629 0.05968 0.0
C725 C 0.56544 0.90145 0.06358 0.0
C726 C 1.00372 0.23883 0.39419 0.0
C727 C 0.99469 0.20007 0.39321 0.0
C728 C 0.0357 0.2665 0.38328 0.0
C729 C 0.05982 0.25664 0.37056 0.0
H730 H 0.98609 0.24802 0.40366 0.0
H731 H 0.04187 0.29608 0.3851 0.0
S732 S 0.04997 0.15967 0.36312 0.0
N733 N 0.01357 0.15367 0.37892 0.0
N734 N 0.07279 0.20549 0.35781 0.0
C735 C 0.05077 0.21794 0.36891 0.0
C736 C 0.01848 0.18976 0.38035 0.0
C737 C 0.79006 0.76624 0.4022 0.0
C738 C 0.82933 0.79492 0.40267 0.0
C739 C 0.7602 0.77093 0.39101 0.0
C740 C 0.76817 0.80421 0.37938 0.0
H741 H 0.78219 0.73987 0.41069 0.0
H742 H 0.73052 0.74822 0.39154 0.0
S743 S 0.86565 0.88853 0.37579 0.0
N744 N 0.87425 0.85849 0.39089 0.0
N745 N 0.81819 0.8666 0.36918 0.0
C746 C 0.80722 0.83284 0.37921 0.0
C747 C 0.83772 0.82835 0.39097 0.0
C748 C 0.19599 0.01327 0.37643 0.0
C749 C 0.23166 0.03957 0.38982 0.0
C750 C 0.19012 0.97868 0.36447 0.0
C751 C 0.21973 0.96925 0.36558 0.0
H752 H 0.172 0.0188 0.37596 0.0
H753 H 0.1617 0.95854 0.35521 0.0
S754 S 0.3202 0.0312 0.39521 0.0
N755 N 0.29823 0.05601 0.40121 0.0
N756 N 0.28722 0.99085 0.37901 0.0
C757 C 0.25616 0.99628 0.37784 0.0
C758 C 0.26211 0.03148 0.38992 0.0
C759 C 0.52316 0.66279 0.31994 0.0
C760 C 0.53217 0.63645 0.30811 0.0
C761 C 0.55249 0.69913 0.33079 0.0
C762 C 0.59192 0.71065 0.32998 0.0
H763 H 0.49327 0.65581 0.3201 0.0
H764 H 0.5442 0.71886 0.33904 0.0
S765 S 0.6309 0.65049 0.3044 0.0
N766 N 0.58345 0.62297 0.29884 0.0
N767 N 0.63833 0.69149 0.31843 0.0
C768 C 0.60128 0.68404 0.31912 0.0
C769 C 0.5715 0.64694 0.3084 0.0
C770 C 0.35535 0.91396 0.30286 0.0
C771 C 0.36505 0.88455 0.30219 0.0
C772 C 0.32272 0.90994 0.31396 0.0
C773 C 0.29869 0.87674 0.32544 0.0
H774 H 0.37308 0.94046 0.2947 0.0
H775 H 0.31617 0.93309 0.31347 0.0
S776 S 0.30938 0.79035 0.32809 0.0
N777 N 0.34608 0.81993 0.31325 0.0
N778 N 0.28608 0.81351 0.33503 0.0
C779 C 0.30814 0.84734 0.32535 0.0
C780 C 0.34092 0.85098 0.31356 0.0
C781 C 0.15043 0.46817 0.30158 0.0
C782 C 0.13679 0.48814 0.31624 0.0
C783 C 0.15592 0.43924 0.31078 0.0
C784 C 0.14888 0.42976 0.33515 0.0
H785 H 0.15689 0.47486 0.28276 0.0
H786 H 0.16607 0.42436 0.29876 0.0
S787 S 0.11276 0.47262 0.38126 0.0
N788 N 0.11554 0.49549 0.35639 0.0
N789 N 0.12795 0.44211 0.37398 0.0
C790 C 0.13621 0.44986 0.35032 0.0
C791 C 0.12971 0.47888 0.3408 0.0
C792 C 0.34977 0.46286 0.34822 0.0
C793 C 0.35771 0.46835 0.32335 0.0
C794 C 0.31182 0.4395 0.35446 0.0
C795 C 0.28015 0.42057 0.33607 0.0
H796 H 0.37319 0.47622 0.36301 0.0
H797 H 0.30745 0.43592 0.37386 0.0
S798 S 0.28585 0.42576 0.26798 0.0
N799 N 0.3311 0.45306 0.28024 0.0
N800 N 0.25988 0.40957 0.29163 0.0
C801 C 0.28781 0.42635 0.31106 0.0
C802 C 0.32649 0.45001 0.3048 0.0
C803 C 0.54639 0.87071 0.34244 0.0
C804 C 0.53871 0.87631 0.31788 0.0
C805 C 0.5727 0.85816 0.34853 0.0
C806 C 0.59249 0.85051 0.33032 0.0
H807 H 0.53277 0.87713 0.35725 0.0
H808 H 0.57798 0.85512 0.36786 0.0
S809 S 0.58052 0.85835 0.26285 0.0
N810 N 0.55137 0.87158 0.27497 0.0
N811 N 0.60073 0.84768 0.28628 0.0
C812 C 0.58384 0.8545 0.30547 0.0
C813 C 0.55703 0.86748 0.2993 0.0
C814 C 0.14488 0.68387 0.35769 0.0
C815 C 0.13077 0.66146 0.33472 0.0
C816 C 0.15664 0.72313 0.35955 0.0
C817 C 0.15523 0.74149 0.33844 0.0
H818 H 0.14689 0.67099 0.37434 0.0
H819 H 0.16737 0.73928 0.37766 0.0
S820 S 0.12014 0.69506 0.27401 0.0
N821 N 0.11546 0.65993 0.29054 0.0
N822 N 0.13822 0.734 0.29385 0.0
C823 C 0.14131 0.71935 0.31532 0.0
C824 C 0.12892 0.67927 0.31352 0.0
C825 C 0.80487 1.0011 0.35699 0.0
C826 C 0.81864 0.0199 0.38104 0.0
C827 C 0.77741 0.96181 0.35312 0.0
C828 C 0.76252 0.93948 0.37313 0.0
H829 H 0.81487 0.01704 0.34097 0.0
H830 H 0.76761 0.949 0.33413 0.0
S831 S 0.79067 0.9751 0.43991 0.0
N832 N 0.8165 0.01348 0.42524 0.0
N833 N 0.76494 0.9393 0.41808 0.0
C834 C 0.77687 0.95778 0.39736 0.0
C835 C 0.80485 0.99802 0.40127 0.0
C836 C 0.03718 0.81382 0.40282 0.0
C837 C 1.00369 0.79735 0.3859 0.0
C838 C 0.0743 0.82792 0.39469 0.0
C839 C 0.0796 0.826 0.36924 0.0
H840 H 0.03454 0.81489 0.42257 0.0
H841 H 0.09891 0.83954 0.40859 0.0
S842 S 1.00102 0.78712 0.31727 0.0
N843 N 0.97823 0.78125 0.34248 0.0
N844 N 0.04744 0.8075 0.32713 0.0
C845 C 0.04622 0.81048 0.35211 0.0
C846 C 1.0085 0.79624 0.36043 0.0
C847 C 0.22886 0.23468 0.39712 0.0
C848 C 0.23282 0.21217 0.378 0.0
C849 C 0.21349 0.25851 0.39196 0.0
C850 C 0.20171 0.26076 0.36744 0.0
H851 H 0.2379 0.23392 0.41622 0.0
H852 H 0.21158 0.27583 0.40726 0.0
S853 S 0.20304 0.20486 0.31099 0.0
N854 N 0.22149 0.1915 0.33387 0.0
N855 N 0.19296 0.23665 0.32399 0.0
C856 C 0.20467 0.23763 0.34819 0.0
C857 C 0.22005 0.21315 0.35352 0.0
C858 C 0.67297 0.57441 0.73 0.0
C859 C 0.66464 0.53587 0.72855 0.0
C860 C 0.70422 0.60264 0.71881 0.0
C861 C 0.72837 0.59358 0.70542 0.0
H862 H 0.65523 0.58294 0.73995 0.0
H863 H 0.70976 0.63199 0.7209 0.0
S864 S 0.72058 0.49753 0.69708 0.0
N865 N 0.68439 0.49059 0.71339 0.0
N866 N 0.74238 0.54341 0.69194 0.0
C867 C 0.72018 0.55513 0.70354 0.0
C868 C 0.68858 0.5264 0.71519 0.0
C869 C 0.45559 0.09861 0.73542 0.0
C870 C 0.49491 0.12721 0.73597 0.0
C871 C 0.42583 0.10361 0.72439 0.0
C872 C 0.43399 0.13712 0.71299 0.0
H873 H 0.44761 0.07207 0.74371 0.0
H874 H 0.3961 0.08098 0.72485 0.0
S875 S 0.53163 0.22145 0.70983 0.0
N876 N 0.54003 0.19105 0.72465 0.0
N877 N 0.4842 0.19968 0.70317 0.0
C878 C 0.47308 0.16569 0.71294 0.0
C879 C 0.50345 0.16092 0.72455 0.0
C880 C 0.86171 0.34688 0.70456 0.0
C881 C 0.89694 0.3729 0.7185 0.0
C882 C 0.85638 0.31267 0.69232 0.0
C883 C 0.8861 0.30335 0.69366 0.0
H884 H 0.83756 0.35215 0.70402 0.0
H885 H 0.82819 0.29264 0.68272 0.0
S886 S 0.98577 0.36511 0.72461 0.0
N887 N 0.96337 0.38949 0.73057 0.0
N888 N 0.95342 0.32512 0.70777 0.0
C889 C 0.92223 0.33035 0.70631 0.0
C890 C 0.92762 0.36514 0.7187 0.0
C891 C 0.20478 0.98398 0.66311 0.0
C892 C 0.19187 0.97917 0.6377 0.0
C893 C 0.23468 0.01974 0.67448 0.0
C894 C 0.25302 0.05165 0.66071 0.0
H895 H 0.19252 0.9597 0.67412 0.0
H896 H 0.24437 0.02208 0.6939 0.0
S897 S 0.22639 0.05619 0.59488 0.0
N898 N 0.1968 0.01118 0.60013 0.0
N899 N 0.25382 0.07742 0.62122 0.0
C900 C 0.23943 0.04769 0.63567 0.0
C901 C 0.20866 0.01172 0.62424 0.0
C902 C 0.03093 0.22892 0.6585 0.0
C903 C 0.02895 0.21299 0.63424 0.0
C904 C 0.99725 0.22368 0.66895 0.0
C905 C 0.9605 0.20232 0.65546 0.0
H906 H 0.05879 0.24641 0.66921 0.0
H907 H 1.00013 0.23748 0.6873 0.0
S908 S 0.93903 0.14892 0.59322 0.0
N909 N 0.98671 0.17122 0.5984 0.0
N910 N 0.92382 0.16126 0.61792 0.0
C911 C 0.95808 0.18469 0.63176 0.0
C912 C 0.99216 0.19004 0.62118 0.0
C913 C 0.79493 0.81375 0.67276 0.0
C914 C 0.80412 0.82483 0.64876 0.0
C915 C 0.80192 0.78572 0.68238 0.0
C916 C 0.81778 0.76772 0.66811 0.0
H917 H 0.78137 0.82607 0.68392 0.0
H918 H 0.79375 0.77722 0.70068 0.0
S919 S 0.85189 0.7901 0.6059 0.0
N920 N 0.83412 0.81864 0.61231 0.0
N921 N 0.84563 0.76498 0.63002 0.0
C922 C 0.82831 0.77944 0.64457 0.0
C923 C 0.82189 0.80827 0.63497 0.0
C924 C 0.99302 0.79046 0.64064 0.0
C925 C 0.02547 0.80791 0.65839 0.0
C926 C 0.95554 0.76692 0.64746 0.0
C927 C 0.94882 0.75931 0.67235 0.0
H928 H 0.99674 0.79454 0.6212 0.0
H929 H 0.93178 0.754 0.63291 0.0
S930 S 0.02435 0.79838 0.72606 0.0
N931 N 0.0486 0.81626 0.70198 0.0
N932 N 0.97844 0.77207 0.71488 0.0
C933 C 0.98112 0.777 0.69035 0.0
C934 C 0.0193 0.80112 0.68335 0.0
C935 C 0.21957 0.21473 0.67824 0.0
C936 C 0.20814 0.21567 0.65342 0.0
C937 C 0.2461 0.20244 0.68434 0.0
C938 C 0.26253 0.19053 0.66589 0.0
H939 H 0.20849 0.22429 0.69317 0.0
H940 H 0.2541 0.20282 0.70383 0.0
S941 S 0.24078 0.18636 0.59784 0.0
N942 N 0.21428 0.20286 0.61016 0.0
N943 N 0.26397 0.17942 0.62145 0.0
C944 C 0.25055 0.19049 0.64089 0.0
C945 C 0.2235 0.20316 0.63471 0.0
C946 C 0.78859 0.0118 0.64985 0.0
C947 C 0.79088 0.99359 0.67075 0.0
C948 C 0.80199 0.05142 0.65163 0.0
C949 C 0.81803 0.07426 0.67443 0.0
H950 H 0.7767 0.99525 0.63192 0.0
H951 H 0.79958 0.06414 0.63499 0.0
S952 S 0.83174 0.04029 0.73454 0.0
N953 N 0.81126 1.00116 0.71475 0.0
N954 N 0.83614 0.07564 0.71833 0.0
C955 C 0.82049 0.05628 0.69551 0.0
C956 C 0.80708 0.01595 0.69361 0.0
C957 C 0.46406 0.33569 0.73351 0.0
C958 C 0.48885 0.35432 0.71522 0.0
C959 C 0.43712 0.29596 0.73008 0.0
C960 C 0.43415 0.27374 0.70822 0.0
H961 H 0.46473 0.35219 0.75021 0.0
H962 H 0.41745 0.28298 0.74407 0.0
S963 S 0.49691 0.30761 0.65678 0.0
N964 N 0.51197 0.34667 0.6761 0.0
N965 N 0.46138 0.27233 0.66947 0.0
C966 C 0.46048 0.29165 0.69059 0.0
C967 C 0.48793 0.33184 0.69418 0.0
C968 C 0.67688 0.13884 0.69373 0.0
C969 C 0.66983 0.13176 0.71858 0.0
C970 C 0.71412 0.15261 0.68591 0.0
C971 C 0.74604 0.16021 0.70263 0.0
H972 H 0.65322 0.13284 0.68005 0.0
H973 H 0.71779 0.15699 0.66651 0.0
S974 S 0.74273 0.14637 0.76984 0.0
N975 N 0.69773 0.13362 0.75988 0.0
N976 N 0.76757 0.15939 0.74543 0.0
C977 C 0.73942 0.15396 0.72768 0.0
C978 C 0.70144 0.13981 0.73557 0.0
C979 C 0.89511 0.55779 0.68975 0.0
C980 C 0.89684 0.54687 0.71372 0.0
C981 C 0.88123 0.58295 0.68493 0.0
C982 C 0.86849 0.59811 0.7039 0.0
H983 H 0.90482 0.54703 0.67461 0.0
H984 H 0.88075 0.59068 0.66615 0.0
S985 S 0.86681 0.57756 0.76997 0.0
N986 N 0.88467 0.55255 0.75663 0.0
N987 N 0.85812 0.59956 0.74774 0.0
C988 C 0.8697 0.58693 0.72799 0.0
C989 C 0.88405 0.56145 0.73285 0.0
C990 C 0.42741 0.9245 0.21172 0.0
C991 C 0.45326 0.93496 0.23328 0.0
C992 C 0.43947 0.94346 0.19011 0.0
C993 C 0.47764 0.97399 0.18938 0.0
H994 H 0.39796 0.9009 0.21137 0.0
H995 H 0.41874 0.93422 0.17387 0.0
S996 S 0.55613 0.01307 0.24116 0.0
N997 N 0.51842 0.97851 0.25271 0.0
N998 N 0.54104 0.01367 0.21228 0.0
C999 C 0.50348 0.98504 0.21097 0.0
C1000 C 0.49131 0.96568 0.23283 0.0
C1001 C 0.05963 0.53707 0.23696 0.0
C1002 C 0.09013 0.53002 0.24313 0.0
C1003 C 0.04233 0.52936 0.21257 0.0
C1004 C 0.0551 0.5146 0.19345 0.0
H1005 H 0.04874 0.54819 0.25116 0.0
H1006 H 0.01894 0.53526 0.2086 0.0
S1007 S 0.13434 0.49163 0.19987 0.0
N1008 N 0.13295 0.50817 0.22813 0.0
N1009 N 0.09988 0.49298 0.18231 0.0
C1010 C 0.08571 0.50761 0.19934 0.0
C1011 C 0.1033 0.51541 0.22418 0.0
C1012 C 0.51945 0.54622 0.22797 0.0
C1013 C 0.48339 0.54289 0.23195 0.0
C1014 C 0.52839 0.54011 0.20412 0.0
C1015 C 0.50171 0.53048 0.18313 0.0
H1016 H 0.54133 0.55438 0.24343 0.0
H1017 H 0.55703 0.54433 0.20203 0.0
S1018 S 0.40215 0.5154 0.18351 0.0
N1019 N 0.42013 0.52762 0.21291 0.0
N1020 N 0.43661 0.51531 0.16813 0.0
C1021 C 0.46498 0.52562 0.18692 0.0
C1022 C 0.45585 0.53187 0.21128 0.0
C1023 C 0.96822 0.44942 0.80606 0.0
C1024 C 0.93449 0.45147 0.80032 0.0
C1025 C 0.98497 0.45627 0.83051 0.0
C1026 C 0.96864 0.46541 0.85021 0.0
H1027 H 0.9821 0.44286 0.79148 0.0
H1028 H 0.01088 0.45424 0.83402 0.0
S1029 S 0.88037 0.47439 0.84517 0.0
N1030 N 0.88498 0.46279 0.81638 0.0
N1031 N 0.9171 0.47665 0.8624 0.0
C1032 C 0.93488 0.46753 0.8448 0.0
C1033 C 0.91774 0.46048 0.81984 0.0
C1034 C 0.58249 0.52818 0.80842 0.0
C1035 C 0.58719 0.4961 0.80312 0.0
C1036 C 0.56839 0.53322 0.83067 0.0
C1037 C 0.5585 0.50641 0.84851 0.0
H1038 H 0.58816 0.54867 0.79483 0.0
H1039 H 0.56464 0.55803 0.83374 0.0
S1040 S 0.56818 0.41886 0.84415 0.0
N1041 N 0.5837 0.43873 0.8183 0.0
N1042 N 0.55577 0.44715 0.85946 0.0
C1043 C 0.56448 0.47496 0.84376 0.0
C1044 C 0.57914 0.47008 0.82126 0.0
C1045 C 0.52322 0.09586 0.82767 0.0
C1046 C 0.54032 0.08378 0.80982 0.0
C1047 C 0.51372 0.07884 0.85009 0.0
C1048 C 0.52074 0.04884 0.85571 0.0
H1049 H 0.51696 0.11866 0.82427 0.0
H1050 H 0.49994 0.08874 0.8629 0.0
S1051 S 0.56659 0.00759 0.81594 0.0
N1052 N 0.56444 0.04017 0.79967 0.0
N1053 N 0.54788 0.00924 0.84201 0.0
C1054 C 0.53868 0.0371 0.83831 0.0
C1055 C 0.54823 0.05433 0.81542 0.0
C1056 C 0.11373 0.29312 0.56062 0.0
C1057 C 0.11304 0.25816 0.56359 0.0
C1058 C 0.12472 0.31149 0.53878 0.0
C1059 C 0.13504 0.29545 0.51888 0.0
H1060 H 0.10677 0.30696 0.57559 0.0
H1061 H 0.12529 0.33861 0.53749 0.0
S1062 S 0.13637 0.20348 0.51688 0.0
N1063 N 0.12215 0.20742 0.54434 0.0
N1064 N 0.1432 0.24207 0.50353 0.0
C1065 C 0.13358 0.26004 0.5214 0.0
C1066 C 0.12257 0.24143 0.54367 0.0
C1067 C 0.72261 0.87084 0.57015 0.0
C1068 C 0.75415 0.86543 0.57648 0.0
C1069 C 0.70534 0.86253 0.5457 0.0
C1070 C 0.71916 0.84879 0.52665 0.0
H1071 H 0.71074 0.88092 0.5843 0.0
H1072 H 0.68102 0.867 0.54164 0.0
S1073 S 0.8016 0.83054 0.53342 0.0
N1074 N 0.79928 0.84653 0.56162 0.0
N1075 N 0.76625 0.83015 0.51574 0.0
C1076 C 0.75095 0.84366 0.53267 0.0
C1077 C 0.76853 0.85209 0.55756 0.0
C1078 C 0.15633 0.90867 0.54604 0.0
C1079 C 0.14689 0.88193 0.56383 0.0
C1080 C 0.1653 0.90135 0.52247 0.0
C1081 C 0.16561 0.86713 0.51575 0.0
H1082 H 0.15724 0.93579 0.55051 0.0
H1083 H 0.17322 0.92324 0.50966 0.0
S1084 S 0.14141 0.78699 0.55512 0.0
N1085 N 0.13717 0.8193 0.57284 0.0
N1086 N 0.15405 0.80545 0.52846 0.0
C1087 C 0.15541 0.83973 0.53315 0.0
C1088 C 0.14592 0.84708 0.55715 0.0
C1089 C 0.60032 0.80315 0.15095 0.0
C1090 C 0.61749 0.79415 0.13168 0.0
C1091 C 0.61611 0.8097 0.17572 0.0
C1092 C 0.6498 0.80781 0.18206 0.0
H1093 H 0.57411 0.80446 0.14689 0.0
H1094 H 0.602 0.81657 0.19 0.0
S1095 S 0.70619 0.78605 0.13841 0.0
N1096 N 0.67059 0.78478 0.12051 0.0
N1097 N 0.69966 0.7961 0.16704 0.0
C1098 C 0.66738 0.79913 0.16292 0.0
C1099 C 0.65137 0.79252 0.13776 0.0
C1100 C 0.24054 0.8057 0.15264 0.0
C1101 C 0.24705 0.83006 0.13361 0.0
C1102 C 0.22752 0.81187 0.17495 0.0
C1103 C 0.22046 0.84267 0.17915 0.0
H1104 H 0.24519 0.78136 0.15014 0.0
H1105 H 0.22277 0.79223 0.189 0.0
S1106 S 0.232 0.91422 0.13502 0.0
N1107 N 0.24504 0.88593 0.12031 0.0
N1108 N 0.22053 0.89759 0.16228 0.0
C1109 C 0.22739 0.86762 0.16044 0.0
C1110 C 0.2407 0.86132 0.13768 0.0
C1111 C 0.22938 0.42691 0.16225 0.0
C1112 C 0.2032 0.41204 0.14062 0.0
C1113 C 0.21973 0.4094 0.18454 0.0
C1114 C 0.18369 0.37604 0.18604 0.0
H1115 H 0.2573 0.45266 0.16206 0.0
H1116 H 0.24082 0.42188 0.20068 0.0
S1117 S 0.10514 0.32529 0.13459 0.0
N1118 N 0.14002 0.36136 0.12205 0.0
N1119 N 0.12166 0.32916 0.16385 0.0
C1120 C 0.15741 0.36081 0.16449 0.0
C1121 C 0.1672 0.37861 0.14186 0.0
C1122 C 0.78274 0.62823 0.89461 0.0
C1123 C 0.78117 0.59268 0.89669 0.0
C1124 C 0.79346 0.64725 0.873 0.0
C1125 C 0.80272 0.63135 0.85247 0.0
H1126 H 0.77663 0.642 0.91007 0.0
H1127 H 0.79462 0.67474 0.87238 0.0
S1128 S 0.8017 0.53819 0.84809 0.0
N1129 N 0.78835 0.5416 0.87592 0.0
N1130 N 0.80917 0.57761 0.8356 0.0
C1131 C 0.80052 0.59545 0.85413 0.0
C1132 C 0.78967 0.57612 0.87614 0.0
C1133 C 0.43419 0.21669 0.89396 0.0
C1134 C 0.41712 0.19047 0.9117 0.0
C1135 C 0.41716 0.20866 0.86944 0.0
C1136 C 0.38227 0.17432 0.86188 0.0
H1137 H 0.461 0.24353 0.89905 0.0
H1138 H 0.43103 0.22979 0.85641 0.0
S1139 S 0.32613 0.09612 0.90116 0.0
N1140 N 0.36334 0.12887 0.92007 0.0
N1141 N 0.33172 0.11351 0.87388 0.0
C1142 C 0.36506 0.14776 0.87939 0.0
C1143 C 0.38241 0.15588 0.90432 0.0
C1144 C 0.81202 0.1889 0.88698 0.0
C1145 C 0.8148 0.22394 0.89577 0.0
C1146 C 0.82225 0.18386 0.86324 0.0
C1147 C 0.8352 0.2135 0.84731 0.0
H1148 H 0.80317 0.16573 0.89886 0.0
H1149 H 0.82035 0.15668 0.85738 0.0
S1150 S 0.84595 0.31017 0.8612 0.0
N1151 N 0.82977 0.28807 0.88628 0.0
N1152 N 0.84958 0.27892 0.84204 0.0
C1153 C 0.83706 0.24827 0.85569 0.0
C1154 C 0.82674 0.25339 0.87979 0.0
C1155 C 0.25899 0.09759 0.4861 0.0
C1156 C 0.27376 0.12538 0.46901 0.0
C1157 C 0.27634 0.10546 0.51051 0.0
C1158 C 0.30934 0.14121 0.51855 0.0
H1159 H 0.23388 0.06954 0.48051 0.0
H1160 H 0.26433 0.08318 0.52305 0.0
S1161 S 0.35878 0.22385 0.48117 0.0
N1162 N 0.32299 0.19009 0.46185 0.0
N1163 N 0.35542 0.205 0.50784 0.0
C1164 C 0.32411 0.16937 0.50175 0.0
C1165 C 0.30633 0.16144 0.47695 0.0
C1166 C 0.90334 0.19163 0.46989 0.0
C1167 C 0.9172 0.1656 0.46754 0.0
C1168 C 0.88938 0.19724 0.49204 0.0
C1169 C 0.88944 0.17747 0.51267 0.0
H1170 H 0.90179 0.20651 0.45418 0.0
H1171 H 0.87802 0.21679 0.49296 0.0
S1172 S 0.92402 0.10726 0.51614 0.0
N1173 N 0.93093 0.12059 0.48775 0.0
N1174 N 0.90543 0.13162 0.52946 0.0
C1175 C 0.9044 0.15234 0.51075 0.0
C1176 C 0.91807 0.14625 0.48815 0.0
C1177 C 0.86176 0.76537 0.49562 0.0
C1178 C 0.87377 0.75034 0.47613 0.0
C1179 C 0.85268 0.74793 0.51794 0.0
C1180 C 0.85451 0.71432 0.52144 0.0
H1181 H 0.85945 0.7909 0.49362 0.0
H1182 H 0.84345 0.76041 0.53239 0.0
S1183 S 0.88443 0.66359 0.47628 0.0
N1184 N 0.88722 0.70002 0.46197 0.0
N1185 N 0.86993 0.66718 0.5037 0.0
C1186 C 0.8666 0.69912 0.50215 0.0
C1187 C 0.87632 0.71714 0.47959 0.0
loop_
_geom_bond_atom_site_label_1
_geom_bond_atom_site_label_2
_geom_bond_distance
_geom_bond_site_symmetry_2
_ccdc_geom_bond_type
H0 C7 0.929 . S
H1 C10 0.930 . S
H2 C12 0.929 . S
H3 C4 0.969 . S
C4 H3 0.969 . S
C4 O5 1.550 . S
C4 H6 0.973 . S
O5 C4 1.550 . S
O5 C11 1.412 . S
H6 C4 0.973 . S
C7 H0 0.929 . S
C7 C8 1.400 . S
C7 C9 1.364 . S
C8 C7 1.400 . S
C8 C12 1.377 . S
C9 C7 1.364 . S
C9 C10 1.374 . S
C10 H1 0.930 . S
C10 C9 1.374 . S
C10 C11 1.383 . S
C11 O5 1.412 . S
C11 C10 1.383 . S
C11 C12 1.394 . S
C12 H2 0.929 . S
C12 C8 1.377 . S
C12 C11 1.394 . S
H13 C20 0.929 . S
H14 C23 0.930 . S
H15 C25 0.929 . S
H16 C17 0.969 . S
C17 H16 0.969 . S
C17 O18 1.550 . S
C17 H19 0.973 . S
O18 C17 1.550 . S
O18 C24 1.412 . S
H19 C17 0.973 . S
C20 H13 0.929 . S
C20 C21 1.400 . S
C20 C22 1.364 . S
C21 C20 1.400 . S
C21 C25 1.377 . S
C22 C20 1.364 . S
C22 C23 1.374 . S
C23 H14 0.930 . S
C23 C22 1.374 . S
C23 C24 1.383 . S
C24 O18 1.412 . S
C24 C23 1.383 . S
C24 C25 1.394 . S
C25 H15 0.929 . S
C25 C21 1.377 . S
C25 C24 1.394 . S
H26 C33 0.929 . S
H27 C36 0.930 . S
H28 C38 0.929 . S
H29 C30 0.969 . S
C30 H29 0.969 . S
C30 O31 1.550 . S
C30 H32 0.973 . S
O31 C30 1.550 . S
O31 C37 1.412 . S
H32 C30 0.973 . S
C33 H26 0.929 . S
C33 C34 1.400 . S
C33 C35 1.364 . S
C34 C33 1.400 . S
C34 C38 1.377 . S
C35 C33 1.364 . S
C35 C36 1.374 . S
C36 H27 0.930 . S
C36 C35 1.374 . S
C36 C37 1.383 . S
C37 O31 1.412 . S
C37 C36 1.383 . S
C37 C38 1.394 . S
C38 H28 0.929 . S
C38 C34 1.377 . S
C38 C37 1.394 . S
H39 C46 0.929 . S
H40 C49 0.930 . S
H41 C51 0.929 . S
H42 C43 0.969 . S
C43 H42 0.969 . S
C43 O44 1.550 . S
C43 H45 0.973 . S
O44 C43 1.550 . S
O44 C50 1.412 . S
H45 C43 0.973 . S
C46 H39 0.929 . S
C46 C47 1.400 . S
C46 C48 1.364 . S
C47 C46 1.400 . S
C47 C51 1.377 . S
C48 C46 1.364 . S
C48 C49 1.374 . S
C49 H40 0.930 . S
C49 C48 1.374 . S
C49 C50 1.383 . S
C50 O44 1.412 . S
C50 C49 1.383 . S
C50 C51 1.394 . S
C51 H41 0.929 . S
C51 C47 1.377 . S
C51 C50 1.394 . S
H52 C59 0.929 . S
H53 C62 0.930 . S
H54 C64 0.929 . S
H55 C56 0.969 . S
C56 H55 0.969 . S
C56 O57 1.550 . S
C56 H58 0.973 . S
O57 C56 1.550 . S
O57 C63 1.412 . S
H58 C56 0.973 . S
C59 H52 0.929 . S
C59 C60 1.400 . S
C59 C61 1.364 . S
C60 C59 1.400 . S
C60 C64 1.377 . S
C61 C59 1.364 . S
C61 C62 1.374 . S
C62 H53 0.930 . S
C62 C61 1.374 . S
C62 C63 1.383 . S
C63 O57 1.412 . S
C63 C62 1.383 . S
C63 C64 1.394 . S
C64 H54 0.929 . S
C64 C60 1.377 . S
C64 C63 1.394 . S
H65 C72 0.929 . S
H66 C75 0.930 . S
H67 C77 0.929 . S
H68 C69 0.969 . S
C69 H68 0.969 . S
C69 O70 1.550 . S
C69 H71 0.973 . S
O70 C69 1.550 . S
O70 C76 1.412 . S
H71 C69 0.973 . S
C72 H65 0.929 . S
C72 C73 1.400 . S
C72 C74 1.364 . S
C73 C72 1.400 . S
C73 C77 1.377 . S
C74 C72 1.364 . S
C74 C75 1.374 . S
C75 H66 0.930 . S
C75 C74 1.374 . S
C75 C76 1.383 . S
C76 O70 1.412 . S
C76 C75 1.383 . S
C76 C77 1.394 . S
C77 H67 0.929 . S
C77 C73 1.377 . S
C77 C76 1.394 . S
H78 C85 0.929 . S
H79 C88 0.930 . S
H80 C90 0.929 . S
H81 C82 0.969 . S
C82 H81 0.969 . S
C82 O83 1.550 . S
C82 H84 0.973 . S
O83 C82 1.550 . S
O83 C89 1.412 . S
H84 C82 0.973 . S
C85 H78 0.929 . S
C85 C86 1.400 . S
C85 C87 1.364 . S
C86 C85 1.400 . S
C86 C90 1.377 . S
C87 C85 1.364 . S
C87 C88 1.374 . S
C88 H79 0.930 . S
C88 C87 1.374 . S
C88 C89 1.383 . S
C89 O83 1.412 . S
C89 C88 1.383 . S
C89 C90 1.394 . S
C90 H80 0.929 . S
C90 C86 1.377 . S
C90 C89 1.394 . S
H91 C98 0.929 . S
H92 C101 0.930 . S
H93 C103 0.929 . S
H94 C95 0.969 . S
C95 H94 0.969 . S
C95 O96 1.550 . S
C95 H97 0.973 . S
O96 C95 1.550 . S
O96 C102 1.412 . S
H97 C95 0.973 . S
C98 H91 0.929 . S
C98 C99 1.400 . S
C98 C100 1.364 . S
C99 C98 1.400 . S
C99 C103 1.377 . S
C100 C98 1.364 . S
C100 C101 1.374 . S
C101 H92 0.930 . S
C101 C100 1.374 . S
C101 C102 1.383 . S
C102 O96 1.412 . S
C102 C101 1.383 . S
C102 C103 1.394 . S
C103 H93 0.929 . S
C103 C99 1.377 . S
C103 C102 1.394 . S
H104 C111 0.929 . S
H105 C114 0.930 . S
H106 C116 0.929 . S
H107 C108 0.969 . S
C108 H107 0.969 . S
C108 O109 1.550 . S
C108 H110 0.973 . S
O109 C108 1.550 . S
O109 C115 1.412 . S
H110 C108 0.973 . S
C111 H104 0.929 . S
C111 C112 1.400 . S
C111 C113 1.364 . S
C112 C111 1.400 . S
C112 C116 1.377 . S
C113 C111 1.364 . S
C113 C114 1.374 . S
C114 H105 0.930 . S
C114 C113 1.374 . S
C114 C115 1.383 . S
C115 O109 1.412 . S
C115 C114 1.383 . S
C115 C116 1.394 . S
C116 H106 0.929 . S
C116 C112 1.377 . S
C116 C115 1.394 . S
H117 C124 0.929 . S
H118 C127 0.930 . S
H119 C129 0.929 . S
H120 C121 0.969 . S
C121 H120 0.969 . S
C121 O122 1.550 . S
C121 H123 0.973 . S
O122 C121 1.550 . S
O122 C128 1.412 . S
H123 C121 0.973 . S
C124 H117 0.929 . S
C124 C125 1.400 . S
C124 C126 1.364 . S
C125 C124 1.400 . S
C125 C129 1.377 . S
C126 C124 1.364 . S
C126 C127 1.374 . S
C127 H118 0.930 . S
C127 C126 1.374 . S
C127 C128 1.383 . S
C128 O122 1.412 . S
C128 C127 1.383 . S
C128 C129 1.394 . S
C129 H119 0.929 . S
C129 C125 1.377 . S
C129 C128 1.394 . S
H130 C137 0.929 . S
H131 C140 0.930 . S
H132 C142 0.929 1_554 S
H133 C134 0.969 . S
C134 H133 0.969 . S
C134 O135 1.550 . S
C134 H136 0.973 . S
O135 C134 1.550 . S
O135 C141 1.412 . S
H136 C134 0.973 . S
C137 H130 0.929 . S
C137 C138 1.400 . S
C137 C139 1.364 . S
C138 C137 1.400 . S
C138 C142 1.377 . S
C139 C137 1.364 . S
C139 C140 1.374 . S
C140 H131 0.930 . S
C140 C139 1.374 . S
C140 C141 1.383 . S
C141 O135 1.412 . S
C141 C140 1.383 . S
C141 C142 1.394 . S
C142 H132 0.929 1_556 S
C142 C138 1.377 . S
C142 C141 1.394 . S
H143 C150 0.929 . S
H144 C153 0.930 . S
H145 C155 0.929 . S
H146 C147 0.969 . S
C147 H146 0.969 . S
C147 O148 1.550 . S
C147 H149 0.973 . S
O148 C147 1.550 . S
O148 C154 1.412 . S
H149 C147 0.973 . S
C150 H143 0.929 . S
C150 C151 1.400 . S
C150 C152 1.364 . S
C151 C150 1.400 . S
C151 C155 1.377 . S
C152 C150 1.364 . S
C152 C153 1.374 . S
C153 H144 0.930 . S
C153 C152 1.374 . S
C153 C154 1.383 . S
C154 O148 1.412 . S
C154 C153 1.383 . S
C154 C155 1.394 . S
C155 H145 0.929 . S
C155 C151 1.377 . S
C155 C154 1.394 . S
H156 C163 0.929 . S
H157 C166 0.930 . S
H158 C168 0.929 . S
H159 C160 0.969 . S
C160 H159 0.969 . S
C160 O161 1.550 . S
C160 H162 0.973 . S
O161 C160 1.550 . S
O161 C167 1.412 . S
H162 C160 0.973 . S
C163 H156 0.929 . S
C163 C164 1.400 . S
C163 C165 1.364 . S
C164 C163 1.400 . S
C164 C168 1.377 . S
C165 C163 1.364 . S
C165 C166 1.374 . S
C166 H157 0.930 . S
C166 C165 1.374 . S
C166 C167 1.383 . S
C167 O161 1.412 . S
C167 C166 1.383 . S
C167 C168 1.394 . S
C168 H158 0.929 . S
C168 C164 1.377 . S
C168 C167 1.394 . S
H169 C176 0.929 . S
H170 C179 0.930 . S
H171 C181 0.929 . S
H172 C173 0.969 . S
C173 H172 0.969 . S
C173 O174 1.550 . S
C173 H175 0.973 . S
O174 C173 1.550 . S
O174 C180 1.412 . S
H175 C173 0.973 . S
C176 H169 0.929 . S
C176 C177 1.400 . S
C176 C178 1.364 . S
C177 C176 1.400 . S
C177 C181 1.377 . S
C178 C176 1.364 . S
C178 C179 1.374 . S
C179 H170 0.930 . S
C179 C178 1.374 . S
C179 C180 1.383 . S
C180 O174 1.412 . S
C180 C179 1.383 . S
C180 C181 1.394 . S
C181 H171 0.929 . S
C181 C177 1.377 . S
C181 C180 1.394 . S
H182 C189 0.929 . S
H183 C192 0.930 . S
H184 C194 0.929 . S
H185 C186 0.969 . S
C186 H185 0.969 . S
C186 O187 1.550 . S
C186 H188 0.973 . S
O187 C186 1.550 . S
O187 C193 1.412 . S
H188 C186 0.973 . S
C189 H182 0.929 . S
C189 C190 1.400 . S
C189 C191 1.364 . S
C190 C189 1.400 . S
C190 C194 1.377 . S
C191 C189 1.364 . S
C191 C192 1.374 . S
C192 H183 0.930 . S
C192 C191 1.374 . S
C192 C193 1.383 . S
C193 O187 1.412 . S
C193 C192 1.383 . S
C193 C194 1.394 . S
C194 H184 0.929 . S
C194 C190 1.377 . S
C194 C193 1.394 . S
H195 C202 0.929 . S
H196 C205 0.930 . S
H197 C207 0.929 . S
H198 C199 0.969 . S
C199 H198 0.969 . S
C199 O200 1.550 . S
C199 H201 0.973 . S
O200 C199 1.550 . S
O200 C206 1.412 . S
H201 C199 0.973 . S
C202 H195 0.929 . S
C202 C203 1.400 . S
C202 C204 1.364 . S
C203 C202 1.400 . S
C203 C207 1.377 . S
C204 C202 1.364 . S
C204 C205 1.374 . S
C205 H196 0.930 . S
C205 C204 1.374 . S
C205 C206 1.383 . S
C206 O200 1.412 . S
C206 C205 1.383 . S
C206 C207 1.394 . S
C207 H197 0.929 . S
C207 C203 1.377 . S
C207 C206 1.394 . S
H208 C215 0.929 . S
H209 C218 0.930 . S
H210 C220 0.929 . S
H211 C212 0.969 . S
C212 H211 0.969 . S
C212 O213 1.550 . S
C212 H214 0.973 . S
O213 C212 1.550 . S
O213 C219 1.412 . S
H214 C212 0.973 . S
C215 H208 0.929 . S
C215 C216 1.400 . S
C215 C217 1.364 . S
C216 C215 1.400 . S
C216 C220 1.377 . S
C217 C215 1.364 . S
C217 C218 1.374 . S
C218 H209 0.930 . S
C218 C217 1.374 . S
C218 C219 1.383 . S
C219 O213 1.412 . S
C219 C218 1.383 . S
C219 C220 1.394 . S
C220 H210 0.929 . S
C220 C216 1.377 . S
C220 C219 1.394 . S
H221 C228 0.929 . S
H222 C231 0.930 . S
H223 C233 0.929 . S
H224 C225 0.969 . S
C225 H224 0.969 . S
C225 O226 1.550 . S
C225 H227 0.973 . S
O226 C225 1.550 . S
O226 C232 1.412 . S
H227 C225 0.973 . S
C228 H221 0.929 . S
C228 C229 1.400 . S
C228 C230 1.364 . S
C229 C228 1.400 . S
C229 C233 1.377 . S
C230 C228 1.364 . S
C230 C231 1.374 . S
C231 H222 0.930 . S
C231 C230 1.374 . S
C231 C232 1.383 . S
C232 O226 1.412 . S
C232 C231 1.383 . S
C232 C233 1.394 . S
C233 H223 0.929 . S
C233 C229 1.377 . S
C233 C232 1.394 . S
Tb234 C244 2.825 1_565 S
Tb234 O245 2.347 1_565 S
Tb234 O248 2.366 1_565 S
Tb234 O253 2.418 . S
Tb234 O254 2.384 . S
Tb234 O257 2.479 . S
Tb234 O258 2.471 1_565 S
Eu235 O246 2.418 . S
Eu235 O247 2.384 . S
Eu235 O250 2.479 . S
Eu235 O251 2.471 1_545 S
Eu235 O252 2.347 1_545 S
Eu235 O255 2.366 1_545 S
Eu235 C265 2.825 . S
C236 O252 1.259 . S
C236 O253 1.265 1_554 S
C237 O254 1.255 1_554 S
C237 O255 1.265 . S
C238 C240 1.380 1_545 S
C238 C241 1.374 . S
C238 C244 1.507 . S
C239 C240 1.384 1_545 S
C239 C243 1.387 . S
C239 H266 0.930 1_545 S
C240 C238 1.380 1_565 S
C240 C239 1.384 1_565 S
C240 H267 0.931 . S
C241 C238 1.374 . S
C241 C242 1.390 . S
C241 H268 0.930 . S
C242 C241 1.390 . S
C242 C243 1.391 . S
C242 H269 0.930 . S
C243 C239 1.387 . S
C243 C242 1.391 . S
C244 Tb234 2.825 1_545 S
C244 C238 1.507 . S
C244 O257 1.238 1_545 S
C244 O258 1.247 . S
O245 Tb234 2.347 1_545 S
O245 C249 1.259 1_556 S
O246 Eu235 2.418 . S
O246 C249 1.265 . S
O247 Eu235 2.384 . S
O247 C256 1.255 1_554 S
O248 Tb234 2.366 1_545 S
O248 C256 1.265 . S
C249 O245 1.259 1_554 S
C249 O246 1.265 . S
O250 Eu235 2.479 . S
O250 C265 1.238 . S
O251 Eu235 2.471 1_565 S
O251 C265 1.247 1_565 S
O252 Eu235 2.347 1_565 S
O252 C236 1.259 . S
O253 Tb234 2.418 . S
O253 C236 1.265 1_556 S
O254 Tb234 2.384 . S
O254 C237 1.255 1_556 S
O255 Eu235 2.366 1_565 S
O255 C237 1.265 . S
C256 O247 1.255 1_556 S
C256 O248 1.265 . S
O257 Tb234 2.479 . S
O257 C244 1.238 1_565 S
O258 Tb234 2.471 1_545 S
O258 C244 1.247 . S
C259 C262 1.380 1_565 S
C259 C263 1.374 . S
C259 C265 1.507 1_565 S
C260 C261 1.387 1_565 S
C260 C264 1.391 . S
C261 C260 1.387 1_545 S
C261 C262 1.384 . S
C261 H270 0.930 . S
C262 C259 1.380 1_545 S
C262 C261 1.384 . S
C262 H271 0.931 . S
C263 C259 1.374 . S
C263 C264 1.390 . S
C263 H272 0.930 . S
C264 C260 1.391 . S
C264 C263 1.390 . S
C264 H273 0.930 . S
C265 Eu235 2.825 . S
C265 O250 1.238 . S
C265 O251 1.247 1_545 S
C265 C259 1.507 1_545 S
H266 C239 0.930 1_565 S
H267 C240 0.931 . S
H268 C241 0.930 . S
H269 C242 0.930 . S
H270 C261 0.930 . S
H271 C262 0.931 . S
H272 C263 0.930 . S
H273 C264 0.930 . S
Tb274 C284 2.825 . S
Tb274 O285 2.347 1_455 S
Tb274 O288 2.366 1_455 S
Tb274 O293 2.418 . S
Tb274 O294 2.352 1_556 S
Tb274 O297 2.479 . S
Tb274 O298 2.471 1_455 S
Eu275 O286 2.418 . S
Eu275 O287 2.384 . S
Eu275 O290 2.479 . S
Eu275 O291 2.471 1_655 S
Eu275 O292 2.347 1_655 S
Eu275 O295 2.366 1_655 S
Eu275 C305 2.825 1_655 S
C276 O292 1.259 . S
C276 O293 1.265 1_554 S
C277 O294 1.299 . S
C277 O295 1.265 . S
C278 C280 1.380 1_655 S
C278 C281 1.374 . S
C278 C284 1.507 1_655 S
C279 C280 1.384 1_655 S
C279 C283 1.387 . S
C279 H306 0.930 1_655 S
C280 C278 1.380 1_455 S
C280 C279 1.384 1_455 S
C280 H307 0.931 . S
C281 C278 1.374 . S
C281 C282 1.390 . S
C281 H308 0.930 . S
C282 C281 1.390 . S
C282 C283 1.391 . S
C282 H309 0.930 . S
C283 C279 1.387 . S
C283 C282 1.391 . S
C284 Tb274 2.825 . S
C284 C278 1.507 1_455 S
C284 O297 1.237 . S
C284 O298 1.247 1_455 S
O285 Tb274 2.347 1_655 S
O285 C289 1.259 . S
O286 Eu275 2.418 . S
O286 C289 1.265 1_554 S
O287 Eu275 2.384 . S
O287 C296 1.255 1_554 S
O288 Tb274 2.366 1_655 S
O288 C296 1.265 . S
C289 O285 1.259 . S
C289 O286 1.265 1_556 S
O290 Eu275 2.479 . S
O290 C305 1.238 1_655 S
O291 Eu275 2.471 1_455 S
O291 C305 1.247 . S
O292 Eu275 2.347 1_455 S
O292 C276 1.259 . S
O293 Tb274 2.418 . S
O293 C276 1.265 1_556 S
O294 Tb274 2.352 1_554 S
O294 C277 1.299 . S
O295 Eu275 2.366 1_455 S
O295 C277 1.265 . S
C296 O287 1.255 1_556 S
C296 O288 1.265 . S
O297 Tb274 2.479 . S
O297 C284 1.237 . S
O298 Tb274 2.471 1_655 S
O298 C284 1.247 1_655 S
C299 C302 1.380 1_455 S
C299 C303 1.374 . S
C299 C305 1.507 . S
C300 C301 1.387 . S
C300 C304 1.391 . S
C301 C300 1.387 . S
C301 C302 1.384 1_455 S
C301 H310 0.930 1_455 S
C302 C299 1.380 1_655 S
C302 C301 1.384 1_655 S
C302 H311 0.931 . S
C303 C299 1.374 . S
C303 C304 1.390 . S
C303 H312 0.930 . S
C304 C300 1.391 . S
C304 C303 1.390 . S
C304 H313 0.930 . S
C305 Eu275 2.825 1_455 S
C305 O290 1.238 1_455 S
C305 O291 1.247 . S
C305 C299 1.507 . S
H306 C279 0.930 1_455 S
H307 C280 0.931 . S
H308 C281 0.930 . S
H309 C282 0.930 . S
H310 C301 0.930 1_655 S
H311 C302 0.931 . S
H312 C303 0.930 . S
H313 C304 0.930 . S
Tb314 C324 2.825 . S
Tb314 O325 2.347 . S
Tb314 O328 2.366 . S
Tb314 O333 2.418 . S
Tb314 O334 2.384 . S
Tb314 O337 2.479 . S
Tb314 O338 2.471 . S
Eu315 O326 2.418 . S
Eu315 O327 2.384 1_556 S
Eu315 O330 2.479 . S
Eu315 O331 2.471 . S
Eu315 O332 2.347 . S
Eu315 O335 2.366 . S
Eu315 C345 2.825 . S
C316 O332 1.259 1_554 S
C316 O333 1.265 . S
C317 O334 1.255 1_556 S
C317 O335 1.265 . S
C318 C320 1.380 . S
C318 C321 1.374 . S
C318 C324 1.507 . S
C319 C320 1.384 . S
C319 C323 1.387 . S
C319 H346 0.930 . S
C320 C318 1.380 . S
C320 C319 1.384 . S
C320 H347 0.931 . S
C321 C318 1.374 . S
C321 C322 1.390 . S
C321 H348 0.930 . S
C322 C321 1.390 . S
C322 C323 1.391 . S
C322 H349 0.930 . S
C323 C319 1.387 . S
C323 C322 1.391 . S
C324 Tb314 2.825 . S
C324 C318 1.507 . S
C324 O337 1.238 . S
C324 O338 1.247 . S
O325 Tb314 2.347 . S
O325 C329 1.259 . S
O326 Eu315 2.418 . S
O326 C329 1.265 1_556 S
O327 Eu315 2.384 1_554 S
O327 C336 1.255 . S
O328 Tb314 2.366 . S
O328 C336 1.265 . S
C329 O325 1.259 . S
C329 O326 1.265 1_554 S
O330 Eu315 2.479 . S
O330 C345 1.238 . S
O331 Eu315 2.471 . S
O331 C345 1.247 . S
O332 Eu315 2.347 . S
O332 C316 1.259 1_556 S
O333 Tb314 2.418 . S
O333 C316 1.265 . S
O334 Tb314 2.384 . S
O334 C317 1.255 1_554 S
O335 Eu315 2.366 . S
O335 C317 1.265 . S
C336 O327 1.255 . S
C336 O328 1.265 . S
O337 Tb314 2.479 . S
O337 C324 1.238 . S
O338 Tb314 2.471 . S
O338 C324 1.247 . S
C339 C342 1.380 . S
C339 C343 1.374 . S
C339 C345 1.507 . S
C340 C341 1.387 . S
C340 C344 1.391 . S
C341 C340 1.387 . S
C341 C342 1.384 . S
C341 H350 0.930 . S
C342 C339 1.380 . S
C342 C341 1.384 . S
C342 H351 0.931 . S
C343 C339 1.374 . S
C343 C344 1.390 . S
C343 H352 0.930 . S
C344 C340 1.391 . S
C344 C343 1.390 . S
C344 H353 0.930 . S
C345 Eu315 2.825 . S
C345 O330 1.238 . S
C345 O331 1.247 . S
C345 C339 1.507 . S
H346 C319 0.930 . S
H347 C320 0.931 . S
H348 C321 0.930 . S
H349 C322 0.930 . S
H350 C341 0.930 . S
H351 C342 0.931 . S
H352 C343 0.930 . S
H353 C344 0.930 . S
Tb354 C364 2.825 . S
Tb354 O365 2.347 . S
Tb354 O368 2.366 . S
Tb354 O373 2.418 . S
Tb354 O374 2.384 . S
Tb354 O377 2.479 . S
Tb354 O378 2.471 . S
Eu355 O366 2.418 . S
Eu355 O367 2.384 . S
Eu355 O370 2.479 . S
Eu355 O371 2.471 . S
Eu355 O372 2.347 . S
Eu355 O375 2.366 . S
Eu355 C385 2.825 . S
C356 O372 1.259 . S
C356 O373 1.265 . S
C357 O374 1.255 . S
C357 O375 1.265 . S
C358 C360 1.380 . S
C358 C361 1.374 . S
C358 C364 1.507 . S
C359 C360 1.384 . S
C359 C363 1.387 . S
C359 H386 0.930 . S
C360 C358 1.380 . S
C360 C359 1.384 . S
C360 H387 0.931 . S
C361 C358 1.374 . S
C361 C362 1.390 . S
C361 H388 0.930 . S
C362 C361 1.390 . S
C362 C363 1.391 . S
C362 H389 0.930 . S
C363 C359 1.387 . S
C363 C362 1.391 . S
C364 Tb354 2.825 . S
C364 C358 1.507 . S
C364 O377 1.238 . S
C364 O378 1.247 . S
O365 Tb354 2.347 . S
O365 C369 1.259 . S
O366 Eu355 2.418 . S
O366 C369 1.265 . S
O367 Eu355 2.384 . S
O367 C376 1.255 . S
O368 Tb354 2.366 . S
O368 C376 1.265 . S
C369 O365 1.259 . S
C369 O366 1.265 . S
O370 Eu355 2.479 . S
O370 C385 1.238 . S
O371 Eu355 2.471 . S
O371 C385 1.247 . S
O372 Eu355 2.347 . S
O372 C356 1.259 . S
O373 Tb354 2.418 . S
O373 C356 1.265 . S
O374 Tb354 2.384 . S
O374 C357 1.255 . S
O375 Eu355 2.366 . S
O375 C357 1.265 . S
C376 O367 1.255 . S
C376 O368 1.265 . S
O377 Tb354 2.479 . S
O377 C364 1.238 . S
O378 Tb354 2.471 . S
O378 C364 1.247 . S
C379 C382 1.380 . S
C379 C383 1.374 . S
C379 C385 1.507 . S
C380 C381 1.387 . S
C380 C384 1.391 . S
C381 C380 1.387 . S
C381 C382 1.384 . S
C381 H390 0.930 . S
C382 C379 1.380 . S
C382 C381 1.384 . S
C382 H391 0.931 . S
C383 C379 1.374 . S
C383 C384 1.390 . S
C383 H392 0.930 . S
C384 C380 1.391 . S
C384 C383 1.390 . S
C384 H393 0.930 . S
C385 Eu355 2.825 . S
C385 O370 1.238 . S
C385 O371 1.247 . S
C385 C379 1.507 . S
H386 C359 0.930 . S
H387 C360 0.931 . S
H388 C361 0.930 . S
H389 C362 0.930 . S
H390 C381 0.930 . S
H391 C382 0.931 . S
H392 C383 0.930 . S
H393 C384 0.930 . S
Tb394 C404 2.825 . S
Tb394 O405 2.347 . S
Tb394 O408 2.366 . S
Tb394 O413 2.418 . S
Tb394 O414 2.384 . S
Tb394 O417 2.479 . S
Tb394 O418 2.471 . S
Eu395 O406 2.418 . S
Eu395 O407 2.384 . S
Eu395 O410 2.479 . S
Eu395 O411 2.471 . S
Eu395 O412 2.347 . S
Eu395 O415 2.366 . S
Eu395 C425 2.825 . S
C396 O412 1.259 . S
C396 O413 1.265 . S
C397 O414 1.255 . S
C397 O415 1.265 . S
C398 C400 1.380 . S
C398 C401 1.374 . S
C398 C404 1.507 . S
C399 C400 1.384 . S
C399 C403 1.387 . S
C399 H426 0.930 . S
C400 C398 1.380 . S
C400 C399 1.384 . S
C400 H427 0.931 . S
C401 C398 1.374 . S
C401 C402 1.390 . S
C401 H428 0.930 . S
C402 C401 1.390 . S
C402 C403 1.391 . S
C402 H429 0.930 . S
C403 C399 1.387 . S
C403 C402 1.391 . S
C404 Tb394 2.825 . S
C404 C398 1.507 . S
C404 O417 1.238 . S
C404 O418 1.247 . S
O405 Tb394 2.347 . S
O405 C409 1.259 . S
O406 Eu395 2.418 . S
O406 C409 1.265 . S
O407 Eu395 2.384 . S
O407 C416 1.255 . S
O408 Tb394 2.366 . S
O408 C416 1.265 . S
C409 O405 1.259 . S
C409 O406 1.265 . S
O410 Eu395 2.479 . S
O410 C425 1.238 . S
O411 Eu395 2.471 . S
O411 C425 1.247 . S
O412 Eu395 2.347 . S
O412 C396 1.259 . S
O413 Tb394 2.418 . S
O413 C396 1.265 . S
O414 Tb394 2.384 . S
O414 C397 1.255 . S
O415 Eu395 2.366 . S
O415 C397 1.265 . S
C416 O407 1.255 . S
C416 O408 1.265 . S
O417 Tb394 2.479 . S
O417 C404 1.238 . S
O418 Tb394 2.471 . S
O418 C404 1.247 . S
C419 C422 1.380 . S
C419 C423 1.374 . S
C419 C425 1.507 . S
C420 C421 1.387 . S
C420 C424 1.391 . S
C421 C420 1.387 . S
C421 C422 1.384 . S
C421 H430 0.930 . S
C422 C419 1.380 . S
C422 C421 1.384 . S
C422 H431 0.931 . S
C423 C419 1.374 . S
C423 C424 1.390 . S
C423 H432 0.930 . S
C424 C420 1.391 . S
C424 C423 1.390 . S
C424 H433 0.930 . S
C425 Eu395 2.825 . S
C425 O410 1.238 . S
C425 O411 1.247 . S
C425 C419 1.507 . S
H426 C399 0.930 . S
H427 C400 0.931 . S
H428 C401 0.930 . S
H429 C402 0.930 . S
H430 C421 0.930 . S
H431 C422 0.931 . S
H432 C423 0.930 . S
H433 C424 0.930 . S
Tb434 C444 2.825 . S
Tb434 O445 2.347 . S
Tb434 O448 2.366 . S
Tb434 O453 2.418 . S
Tb434 O454 2.384 . S
Tb434 O457 2.479 . S
Tb434 O458 2.471 . S
Eu435 O446 2.418 . S
Eu435 O447 2.384 . S
Eu435 O450 2.479 . S
Eu435 O451 2.471 . S
Eu435 O452 2.347 . S
Eu435 O455 2.366 . S
Eu435 C465 2.825 . S
C436 O452 1.259 . S
C436 O453 1.265 . S
C437 O454 1.255 . S
C437 O455 1.265 . S
C438 C440 1.380 . S
C438 C441 1.374 . S
C438 C444 1.507 . S
C439 C440 1.384 . S
C439 C443 1.387 . S
C439 H466 0.930 . S
C440 C438 1.380 . S
C440 C439 1.384 . S
C440 H467 0.931 . S
C441 C438 1.374 . S
C441 C442 1.390 . S
C441 H468 0.930 . S
C442 C441 1.390 . S
C442 C443 1.391 . S
C442 H469 0.930 . S
C443 C439 1.387 . S
C443 C442 1.391 . S
C444 Tb434 2.825 . S
C444 C438 1.507 . S
C444 O457 1.238 . S
C444 O458 1.247 . S
O445 Tb434 2.347 . S
O445 C449 1.259 . S
O446 Eu435 2.418 . S
O446 C449 1.265 . S
O447 Eu435 2.384 . S
O447 C456 1.255 . S
O448 Tb434 2.366 . S
O448 C456 1.265 . S
C449 O445 1.259 . S
C449 O446 1.265 . S
O450 Eu435 2.479 . S
O450 C465 1.238 . S
O451 Eu435 2.471 . S
O451 C465 1.247 . S
O452 Eu435 2.347 . S
O452 C436 1.259 . S
O453 Tb434 2.418 . S
O453 C436 1.265 . S
O454 Tb434 2.384 . S
O454 C437 1.255 . S
O455 Eu435 2.366 . S
O455 C437 1.265 . S
C456 O447 1.255 . S
C456 O448 1.265 . S
O457 Tb434 2.479 . S
O457 C444 1.238 . S
O458 Tb434 2.471 . S
O458 C444 1.247 . S
C459 C462 1.380 . S
C459 C463 1.374 . S
C459 C465 1.507 . S
C460 C461 1.387 . S
C460 C464 1.391 . S
C461 C460 1.387 . S
C461 C462 1.384 . S
C461 H470 0.930 . S
C462 C459 1.380 . S
C462 C461 1.384 . S
C462 H471 0.931 . S
C463 C459 1.374 . S
C463 C464 1.390 . S
C463 H472 0.930 . S
C464 C460 1.391 . S
C464 C463 1.390 . S
C464 H473 0.930 . S
C465 Eu435 2.825 . S
C465 O450 1.238 . S
C465 O451 1.247 . S
C465 C459 1.507 . S
H466 C439 0.930 . S
H467 C440 0.931 . S
H468 C441 0.930 . S
H469 C442 0.930 . S
H470 C461 0.930 . S
H471 C462 0.931 . S
H472 C463 0.930 . S
H473 C464 0.930 . S
Tb474 C484 2.825 . S
Tb474 O485 2.347 . S
Tb474 O488 2.366 . S
Tb474 O493 2.418 . S
Tb474 O494 2.384 . S
Tb474 O497 2.479 . S
Tb474 O498 2.471 . S
Eu475 O486 2.418 . S
Eu475 O487 2.384 . S
Eu475 O490 2.479 . S
Eu475 O491 2.471 . S
Eu475 O492 2.347 . S
Eu475 O495 2.366 . S
Eu475 C505 2.825 . S
C476 O492 1.259 . S
C476 O493 1.265 . S
C477 O494 1.255 . S
C477 O495 1.265 . S
C478 C480 1.380 . S
C478 C481 1.374 . S
C478 C484 1.507 . S
C479 C480 1.384 . S
C479 C483 1.387 . S
C479 H506 0.930 . S
C480 C478 1.380 . S
C480 C479 1.384 . S
C480 H507 0.931 . S
C481 C478 1.374 . S
C481 C482 1.390 . S
C481 H508 0.930 . S
C482 C481 1.390 . S
C482 C483 1.391 . S
C482 H509 0.930 . S
C483 C479 1.387 . S
C483 C482 1.391 . S
C484 Tb474 2.825 . S
C484 C478 1.507 . S
C484 O497 1.238 . S
C484 O498 1.247 . S
O485 Tb474 2.347 . S
O485 C489 1.259 . S
O486 Eu475 2.418 . S
O486 C489 1.265 . S
O487 Eu475 2.384 . S
O487 C496 1.255 . S
O488 Tb474 2.366 . S
O488 C496 1.265 . S
C489 O485 1.259 . S
C489 O486 1.265 . S
O490 Eu475 2.479 . S
O490 C505 1.238 . S
O491 Eu475 2.471 . S
O491 C505 1.247 . S
O492 Eu475 2.347 . S
O492 C476 1.259 . S
O493 Tb474 2.418 . S
O493 C476 1.265 . S
O494 Tb474 2.384 . S
O494 C477 1.255 . S
O495 Eu475 2.366 . S
O495 C477 1.265 . S
C496 O487 1.255 . S
C496 O488 1.265 . S
O497 Tb474 2.479 . S
O497 C484 1.238 . S
O498 Tb474 2.471 . S
O498 C484 1.247 . S
C499 C502 1.380 . S
C499 C503 1.374 . S
C499 C505 1.507 . S
C500 C501 1.387 . S
C500 C504 1.391 . S
C501 C500 1.387 . S
C501 C502 1.384 . S
C501 H510 0.930 . S
C502 C499 1.380 . S
C502 C501 1.384 . S
C502 H511 0.931 . S
C503 C499 1.374 . S
C503 C504 1.390 . S
C503 H512 0.930 . S
C504 C500 1.391 . S
C504 C503 1.390 . S
C504 H513 0.930 . S
C505 Eu475 2.825 . S
C505 O490 1.238 . S
C505 O491 1.247 . S
C505 C499 1.507 . S
H506 C479 0.930 . S
H507 C480 0.931 . S
H508 C481 0.930 . S
H509 C482 0.930 . S
H510 C501 0.930 . S
H511 C502 0.931 . S
H512 C503 0.930 . S
H513 C504 0.930 . S
Tb514 C524 2.825 . S
Tb514 O525 2.347 . S
Tb514 O528 2.366 . S
Tb514 O533 2.418 . S
Tb514 O534 2.384 . S
Tb514 O537 2.479 . S
Tb514 O538 2.471 . S
Eu515 O526 2.418 . S
Eu515 O527 2.384 . S
Eu515 O530 2.479 . S
Eu515 O531 2.471 . S
Eu515 O532 2.347 . S
Eu515 O535 2.366 . S
Eu515 C545 2.825 . S
C516 O532 1.259 . S
C516 O533 1.265 . S
C517 O534 1.255 . S
C517 O535 1.265 . S
C518 C520 1.380 . S
C518 C521 1.374 . S
C518 C524 1.507 . S
C519 C520 1.384 . S
C519 C523 1.387 . S
C519 H546 0.930 . S
C520 C518 1.380 . S
C520 C519 1.384 . S
C520 H547 0.931 . S
C521 C518 1.374 . S
C521 C522 1.390 . S
C521 H548 0.930 . S
C522 C521 1.390 . S
C522 C523 1.391 . S
C522 H549 0.930 . S
C523 C519 1.387 . S
C523 C522 1.391 . S
C524 Tb514 2.825 . S
C524 C518 1.507 . S
C524 O537 1.238 . S
C524 O538 1.247 . S
O525 Tb514 2.347 . S
O525 C529 1.259 . S
O526 Eu515 2.418 . S
O526 C529 1.265 . S
O527 Eu515 2.384 . S
O527 C536 1.255 . S
O528 Tb514 2.366 . S
O528 C536 1.265 . S
C529 O525 1.259 . S
C529 O526 1.265 . S
O530 Eu515 2.479 . S
O530 C545 1.238 . S
O531 Eu515 2.471 . S
O531 C545 1.247 . S
O532 Eu515 2.347 . S
O532 C516 1.259 . S
O533 Tb514 2.418 . S
O533 C516 1.265 . S
O534 Tb514 2.384 . S
O534 C517 1.255 . S
O535 Eu515 2.366 . S
O535 C517 1.265 . S
C536 O527 1.255 . S
C536 O528 1.265 . S
O537 Tb514 2.479 . S
O537 C524 1.238 . S
O538 Tb514 2.471 . S
O538 C524 1.247 . S
C539 C542 1.380 . S
C539 C543 1.374 . S
C539 C545 1.507 . S
C540 C541 1.387 . S
C540 C544 1.391 . S
C541 C540 1.387 . S
C541 C542 1.384 . S
C541 H550 0.930 . S
C542 C539 1.380 . S
C542 C541 1.384 . S
C542 H551 0.931 . S
C543 C539 1.374 . S
C543 C544 1.390 . S
C543 H552 0.930 . S
C544 C540 1.391 . S
C544 C543 1.390 . S
C544 H553 0.930 . S
C545 Eu515 2.825 . S
C545 O530 1.238 . S
C545 O531 1.247 . S
C545 C539 1.507 . S
H546 C519 0.930 . S
H547 C520 0.931 . S
H548 C521 0.930 . S
H549 C522 0.930 . S
H550 C541 0.930 . S
H551 C542 0.931 . S
H552 C543 0.930 . S
H553 C544 0.930 . S
Tb554 C564 2.825 . S
Tb554 O565 2.347 . S
Tb554 O568 2.366 . S
Tb554 O573 2.418 . S
Tb554 O574 2.384 . S
Tb554 O577 2.479 . S
Tb554 O578 2.471 . S
Eu555 O566 2.418 . S
Eu555 O567 2.384 . S
Eu555 O570 2.479 . S
Eu555 O571 2.471 . S
Eu555 O572 2.347 . S
Eu555 O575 2.366 . S
Eu555 C585 2.825 . S
C556 O572 1.259 . S
C556 O573 1.265 . S
C557 O574 1.255 . S
C557 O575 1.265 . S
C558 C560 1.380 . S
C558 C561 1.374 . S
C558 C564 1.507 . S
C559 C560 1.384 . S
C559 C563 1.387 . S
C559 H586 0.930 . S
C560 C558 1.380 . S
C560 C559 1.384 . S
C560 H587 0.931 . S
C561 C558 1.374 . S
C561 C562 1.390 . S
C561 H588 0.930 . S
C562 C561 1.390 . S
C562 C563 1.391 . S
C562 H589 0.930 . S
C563 C559 1.387 . S
C563 C562 1.391 . S
C564 Tb554 2.825 . S
C564 C558 1.507 . S
C564 O577 1.238 . S
C564 O578 1.247 . S
O565 Tb554 2.347 . S
O565 C569 1.259 . S
O566 Eu555 2.418 . S
O566 C569 1.265 . S
O567 Eu555 2.384 . S
O567 C576 1.255 . S
O568 Tb554 2.366 . S
O568 C576 1.265 . S
C569 O565 1.259 . S
C569 O566 1.265 . S
O570 Eu555 2.479 . S
O570 C585 1.238 . S
O571 Eu555 2.471 . S
O571 C585 1.247 . S
O572 Eu555 2.347 . S
O572 C556 1.259 . S
O573 Tb554 2.418 . S
O573 C556 1.265 . S
O574 Tb554 2.384 . S
O574 C557 1.255 . S
O575 Eu555 2.366 . S
O575 C557 1.265 . S
C576 O567 1.255 . S
C576 O568 1.265 . S
O577 Tb554 2.479 . S
O577 C564 1.238 . S
O578 Tb554 2.471 . S
O578 C564 1.247 . S
C579 C582 1.380 . S
C579 C583 1.374 . S
C579 C585 1.507 . S
C580 C581 1.387 . S
C580 C584 1.391 . S
C581 C580 1.387 . S
C581 C582 1.384 . S
C581 H590 0.930 . S
C582 C579 1.380 . S
C582 C581 1.384 . S
C582 H591 0.931 . S
C583 C579 1.374 . S
C583 C584 1.390 . S
C583 H592 0.930 . S
C584 C580 1.391 . S
C584 C583 1.390 . S
C584 H593 0.930 . S
C585 Eu555 2.825 . S
C585 O570 1.238 . S
C585 O571 1.247 . S
C585 C579 1.507 . S
H586 C559 0.930 . S
H587 C560 0.931 . S
H588 C561 0.930 . S
H589 C562 0.930 . S
H590 C581 0.930 . S
H591 C582 0.931 . S
H592 C583 0.930 . S
H593 C584 0.930 . S
C594 C595 1.369 . S
C594 C596 1.419 . S
C594 H598 0.930 . S
C595 C594 1.369 . S
C595 C604 1.429 . S
C596 C594 1.419 . S
C596 C597 1.363 . S
C596 H599 0.929 . S
C597 C596 1.363 . S
C597 C603 1.428 . S
H598 C594 0.930 . S
H599 C596 0.929 . S
S600 N601 1.613 . S
S600 N602 1.610 . S
N601 S600 1.613 . S
N601 C604 1.350 1_556 S
N602 S600 1.610 . S
N602 C603 1.351 1_556 S
C603 C597 1.428 . S
C603 N602 1.351 1_554 S
C603 C604 1.434 . S
C604 C595 1.429 . S
C604 N601 1.350 1_554 S
C604 C603 1.434 . S
C605 C606 1.369 . S
C605 C607 1.419 . S
C605 H609 0.930 . S
C606 C605 1.369 . S
C606 C615 1.429 . S
C607 C605 1.419 . S
C607 C608 1.363 . S
C607 H610 0.929 . S
C608 C607 1.363 . S
C608 C614 1.428 . S
H609 C605 0.930 . S
H610 C607 0.929 . S
S611 N612 1.613 . S
S611 N613 1.610 . S
N612 S611 1.613 . S
N612 C615 1.350 . S
N613 S611 1.610 . S
N613 C614 1.351 . S
C614 C608 1.428 . S
C614 N613 1.351 . S
C614 C615 1.434 . S
C615 C606 1.429 . S
C615 N612 1.350 . S
C615 C614 1.434 . S
C616 C617 1.369 . S
C616 C618 1.419 . S
C616 H620 0.930 . S
C617 C616 1.369 . S
C617 C626 1.429 . S
C618 C616 1.419 . S
C618 C619 1.363 . S
C618 H621 0.929 . S
C619 C618 1.363 . S
C619 C625 1.428 . S
H620 C616 0.930 . S
H621 C618 0.929 . S
S622 N623 1.613 . S
S622 N624 1.610 . S
N623 S622 1.613 . S
N623 C626 1.350 . S
N624 S622 1.610 . S
N624 C625 1.351 . S
C625 C619 1.428 . S
C625 N624 1.351 . S
C625 C626 1.434 . S
C626 C617 1.429 . S
C626 N623 1.350 . S
C626 C625 1.434 . S
C627 C628 1.369 . S
C627 C629 1.419 . S
C627 H631 0.930 . S
C628 C627 1.369 . S
C628 C637 1.429 . S
C629 C627 1.419 . S
C629 C630 1.363 . S
C629 H632 0.929 . S
C630 C629 1.363 . S
C630 C636 1.428 . S
H631 C627 0.930 . S
H632 C629 0.929 . S
S633 N634 1.613 . S
S633 N635 1.610 . S
N634 S633 1.613 . S
N634 C637 1.350 1_554 S
N635 S633 1.610 . S
N635 C636 1.351 1_554 S
C636 C630 1.428 . S
C636 N635 1.351 1_556 S
C636 C637 1.434 . S
C637 C628 1.429 . S
C637 N634 1.350 1_556 S
C637 C636 1.434 . S
C638 C639 1.369 . S
C638 C640 1.419 . S
C638 H642 0.930 . S
C639 C638 1.369 . S
C639 C648 1.429 . S
C640 C638 1.419 . S
C640 C641 1.363 . S
C640 H643 0.929 . S
C641 C640 1.363 . S
C641 C647 1.428 . S
H642 C638 0.930 . S
H643 C640 0.929 . S
S644 N645 1.613 1_554 S
S644 N646 1.610 . S
N645 S644 1.613 1_556 S
N645 C648 1.350 . S
N646 S644 1.610 . S
N646 C647 1.351 1_554 S
C647 C641 1.428 . S
C647 N646 1.351 1_556 S
C647 C648 1.434 . S
C648 C639 1.429 . S
C648 N645 1.350 . S
C648 C647 1.434 . S
C649 C650 1.369 . S
C649 C651 1.419 . S
C649 H653 0.930 . S
C650 C649 1.369 . S
C650 C659 1.429 . S
C651 C649 1.419 . S
C651 C652 1.363 . S
C651 H654 0.929 1_556 S
C652 C651 1.363 . S
C652 C658 1.428 . S
H653 C649 0.930 . S
H654 C651 0.929 1_554 S
S655 N656 1.613 . S
S655 N657 1.610 . S
N656 S655 1.613 . S
N656 C659 1.350 . S
N657 S655 1.610 . S
N657 C658 1.351 . S
C658 C652 1.428 . S
C658 N657 1.351 . S
C658 C659 1.434 . S
C659 C650 1.429 . S
C659 N656 1.350 . S
C659 C658 1.434 . S
C660 C661 1.369 . S
C660 C662 1.419 . S
C660 H664 0.930 . S
C661 C660 1.369 . S
C661 C670 1.429 . S
C662 C660 1.419 . S
C662 C663 1.363 . S
C662 H665 0.929 . S
C663 C662 1.363 . S
C663 C669 1.428 . S
H664 C660 0.930 . S
H665 C662 0.929 . S
S666 N667 1.613 . S
S666 N668 1.610 . S
N667 S666 1.613 . S
N667 C670 1.350 . S
N668 S666 1.610 . S
N668 C669 1.351 . S
C669 C663 1.428 . S
C669 N668 1.351 . S
C669 C670 1.434 . S
C670 C661 1.429 . S
C670 N667 1.350 . S
C670 C669 1.434 . S
C671 C672 1.369 . S
C671 C673 1.419 . S
C671 H675 0.930 . S
C672 C671 1.369 . S
C672 C681 1.429 . S
C673 C671 1.419 . S
C673 C674 1.363 . S
C673 H676 0.929 . S
C674 C673 1.363 . S
C674 C680 1.428 . S
H675 C671 0.930 . S
H676 C673 0.929 . S
S677 N678 1.613 . S
S677 N679 1.610 . S
N678 S677 1.613 . S
N678 C681 1.350 . S
N679 S677 1.610 . S
N679 C680 1.351 . S
C680 C674 1.428 . S
C680 N679 1.351 . S
C680 C681 1.434 . S
C681 C672 1.429 . S
C681 N678 1.350 . S
C681 C680 1.434 . S
C682 C683 1.369 1_554 S
C682 C684 1.419 . S
C682 H686 0.930 . S
C683 C682 1.369 1_556 S
C683 C692 1.429 . S
C684 C682 1.419 . S
C684 C685 1.363 1_554 S
C684 H687 0.929 . S
C685 C684 1.363 1_556 S
C685 C691 1.428 . S
H686 C682 0.930 . S
H687 C684 0.929 . S
S688 N689 1.613 . S
S688 N690 1.610 . S
N689 S688 1.613 . S
N689 C692 1.350 . S
N690 S688 1.610 . S
N690 C691 1.351 . S
C691 C685 1.428 . S
C691 N690 1.351 . S
C691 C692 1.434 . S
C692 C683 1.429 . S
C692 N689 1.350 . S
C692 C691 1.434 . S
C693 C694 1.369 . S
C693 C695 1.419 . S
C693 H697 0.930 . S
C694 C693 1.369 . S
C694 C703 1.399 1_554 S
C695 C693 1.419 . S
C695 C696 1.363 . S
C695 H698 0.929 . S
C696 C695 1.363 . S
C696 C702 1.428 1_554 S
H697 C693 0.930 . S
H698 C695 0.929 . S
S699 N700 1.613 . S
S699 N701 1.610 . S
N700 S699 1.613 . S
N700 C703 1.381 . S
N701 S699 1.610 . S
N701 C702 1.351 . S
C702 C696 1.428 1_556 S
C702 N701 1.351 . S
C702 C703 1.435 . S
C703 C694 1.399 1_556 S
C703 N700 1.381 . S
C703 C702 1.435 . S
C704 C705 1.369 . S
C704 C706 1.419 . S
C704 H708 0.930 . S
C705 C704 1.369 . S
C705 C714 1.429 . S
C706 C704 1.419 . S
C706 C707 1.363 . S
C706 H709 0.929 . S
C707 C706 1.363 . S
C707 C713 1.428 . S
H708 C704 0.930 . S
H709 C706 0.929 . S
S710 N711 1.613 . S
S710 N712 1.610 . S
N711 S710 1.613 . S
N711 C714 1.350 . S
N712 S710 1.610 . S
N712 C713 1.351 . S
C713 C707 1.428 . S
C713 N712 1.351 . S
C713 C714 1.434 . S
C714 C705 1.429 . S
C714 N711 1.350 . S
C714 C713 1.434 . S
C715 C716 1.369 . S
C715 C717 1.419 . S
C715 H719 0.930 . S
C716 C715 1.369 . S
C716 C725 1.429 . S
C717 C715 1.419 . S
C717 C718 1.363 . S
C717 H720 0.940 . S
C718 C717 1.363 . S
C718 C724 1.428 . S
H719 C715 0.930 . S
H720 C717 0.940 . S
S721 N722 1.613 1_545 S
S721 N723 1.610 1_545 S
N722 S721 1.613 1_565 S
N722 C725 1.350 . S
N723 S721 1.610 1_565 S
N723 C724 1.351 . S
C724 C718 1.428 . S
C724 N723 1.351 . S
C724 C725 1.434 . S
C725 C716 1.429 . S
C725 N722 1.350 . S
C725 C724 1.434 . S
C726 C727 1.369 . S
C726 C728 1.419 1_655 S
C726 H730 0.930 . S
C727 C726 1.369 . S
C727 C736 1.429 . S
C728 C726 1.419 1_455 S
C728 C729 1.363 . S
C728 H731 0.929 . S
C729 C728 1.363 . S
C729 C735 1.428 . S
H730 C726 0.930 . S
H731 C728 0.929 . S
S732 N733 1.613 . S
S732 N734 1.610 1_655 S
N733 S732 1.613 . S
N733 C736 1.350 . S
N734 S732 1.610 1_455 S
N734 C735 1.351 . S
C735 C729 1.428 . S
C735 N734 1.351 . S
C735 C736 1.434 1_455 S
C736 C727 1.429 . S
C736 N733 1.350 . S
C736 C735 1.434 1_655 S
C737 C738 1.369 . S
C737 C739 1.419 . S
C737 H741 0.930 . S
C738 C737 1.369 . S
C738 C747 1.429 . S
C739 C737 1.419 . S
C739 C740 1.363 . S
C739 H742 0.929 . S
C740 C739 1.363 . S
C740 C746 1.428 . S
H741 C737 0.930 . S
H742 C739 0.929 . S
S743 N744 1.613 . S
S743 N745 1.610 . S
N744 S743 1.613 . S
N744 C747 1.350 . S
N745 S743 1.610 . S
N745 C746 1.351 . S
C746 C740 1.428 . S
C746 N745 1.351 . S
C746 C747 1.434 . S
C747 C738 1.429 . S
C747 N744 1.350 . S
C747 C746 1.434 . S
C748 C749 1.369 . S
C748 C750 1.419 . S
C748 H752 0.930 . S
C749 C748 1.369 . S
C749 C758 1.429 . S
C750 C748 1.419 . S
C750 C751 1.363 1_545 S
C750 H753 0.929 1_545 S
C751 C750 1.363 1_565 S
C751 C757 1.428 1_565 S
H752 C748 0.930 . S
H753 C750 0.929 1_565 S
S754 N755 1.613 . S
S754 N756 1.610 . S
N755 S754 1.613 . S
N755 C758 1.350 . S
N756 S754 1.610 . S
N756 C757 1.351 . S
C757 C751 1.428 1_545 S
C757 N756 1.351 . S
C757 C758 1.434 . S
C758 C749 1.429 . S
C758 N755 1.350 . S
C758 C757 1.434 . S
C759 C760 1.369 . S
C759 C761 1.419 . S
C759 H763 0.930 . S
C760 C759 1.369 . S
C760 C769 1.429 . S
C761 C759 1.419 . S
C761 C762 1.363 . S
C761 H764 0.929 . S
C762 C761 1.363 . S
C762 C768 1.428 . S
H763 C759 0.930 . S
H764 C761 0.929 . S
S765 N766 1.613 . S
S765 N767 1.610 . S
N766 S765 1.613 . S
N766 C769 1.350 . S
N767 S765 1.610 . S
N767 C768 1.351 . S
C768 C762 1.428 . S
C768 N767 1.351 . S
C768 C769 1.434 . S
C769 C760 1.429 . S
C769 N766 1.350 . S
C769 C768 1.434 . S
C770 C771 1.369 . S
C770 C772 1.419 . S
C770 H774 0.930 . S
C771 C770 1.369 . S
C771 C780 1.429 . S
C772 C770 1.419 . S
C772 C773 1.363 . S
C772 H775 0.929 . S
C773 C772 1.363 . S
C773 C779 1.428 . S
H774 C770 0.930 . S
H775 C772 0.929 . S
S776 N777 1.613 . S
S776 N778 1.610 . S
N777 S776 1.613 . S
N777 C780 1.350 . S
N778 S776 1.610 . S
N778 C779 1.351 . S
C779 C773 1.428 . S
C779 N778 1.351 . S
C779 C780 1.434 . S
C780 C771 1.429 . S
C780 N777 1.350 . S
C780 C779 1.434 . S
C781 C782 1.369 . S
C781 C783 1.419 . S
C781 H785 0.930 . S
C782 C781 1.369 . S
C782 C791 1.429 . S
C783 C781 1.419 . S
C783 C784 1.363 . S
C783 H786 0.929 . S
C784 C783 1.363 . S
C784 C790 1.428 . S
H785 C781 0.930 . S
H786 C783 0.929 . S
S787 N788 1.613 . S
S787 N789 1.610 . S
N788 S787 1.613 . S
N788 C791 1.350 . S
N789 S787 1.610 . S
N789 C790 1.351 . S
C790 C784 1.428 . S
C790 N789 1.351 . S
C790 C791 1.434 . S
C791 C782 1.429 . S
C791 N788 1.350 . S
C791 C790 1.434 . S
C792 C793 1.369 . S
C792 C794 1.419 . S
C792 H796 0.930 . S
C793 C792 1.369 . S
C793 C802 1.429 . S
C794 C792 1.419 . S
C794 C795 1.363 . S
C794 H797 0.929 . S
C795 C794 1.363 . S
C795 C801 1.428 . S
H796 C792 0.930 . S
H797 C794 0.929 . S
S798 N799 1.613 . S
S798 N800 1.610 . S
N799 S798 1.613 . S
N799 C802 1.350 . S
N800 S798 1.610 . S
N800 C801 1.351 . S
C801 C795 1.428 . S
C801 N800 1.351 . S
C801 C802 1.434 . S
C802 C793 1.429 . S
C802 N799 1.350 . S
C802 C801 1.434 . S
C803 C804 1.369 . S
C803 C805 1.419 . S
C803 H807 0.930 . S
C804 C803 1.369 . S
C804 C813 1.429 . S
C805 C803 1.419 . S
C805 C806 1.363 . S
C805 H808 0.929 . S
C806 C805 1.363 . S
C806 C812 1.428 . S
H807 C803 0.930 . S
H808 C805 0.929 . S
S809 N810 1.613 . S
S809 N811 1.610 . S
N810 S809 1.613 . S
N810 C813 1.350 . S
N811 S809 1.610 . S
N811 C812 1.351 . S
C812 C806 1.428 . S
C812 N811 1.351 . S
C812 C813 1.434 . S
C813 C804 1.429 . S
C813 N810 1.350 . S
C813 C812 1.434 . S
C814 C815 1.369 . S
C814 C816 1.419 . S
C814 H818 0.930 . S
C815 C814 1.369 . S
C815 C824 1.429 . S
C816 C814 1.419 . S
C816 C817 1.363 . S
C816 H819 0.929 . S
C817 C816 1.363 . S
C817 C823 1.428 . S
H818 C814 0.930 . S
H819 C816 0.929 . S
S820 N821 1.613 . S
S820 N822 1.610 . S
N821 S820 1.613 . S
N821 C824 1.350 . S
N822 S820 1.610 . S
N822 C823 1.351 . S
C823 C817 1.428 . S
C823 N822 1.351 . S
C823 C824 1.434 . S
C824 C815 1.429 . S
C824 N821 1.350 . S
C824 C823 1.434 . S
C825 C826 1.369 1_565 S
C825 C827 1.419 . S
C825 H829 0.930 . S
C826 C825 1.369 1_545 S
C826 C835 1.429 1_545 S
C827 C825 1.419 . S
C827 C828 1.363 . S
C827 H830 0.929 . S
C828 C827 1.363 . S
C828 C834 1.428 . S
H829 C825 0.930 . S
H830 C827 0.929 . S
S831 N832 1.613 . S
S831 N833 1.610 . S
N832 S831 1.613 . S
N832 C835 1.350 . S
N833 S831 1.610 . S
N833 C834 1.351 . S
C834 C828 1.428 . S
C834 N833 1.351 . S
C834 C835 1.434 . S
C835 C826 1.429 1_565 S
C835 N832 1.350 . S
C835 C834 1.434 . S
C836 C837 1.369 . S
C836 C838 1.419 . S
C836 H840 0.930 . S
C837 C836 1.369 . S
C837 C846 1.429 . S
C838 C836 1.419 . S
C838 C839 1.363 . S
C838 H841 0.929 . S
C839 C838 1.363 . S
C839 C845 1.428 . S
H840 C836 0.930 . S
H841 C838 0.929 . S
S842 N843 1.613 . S
S842 N844 1.610 . S
N843 S842 1.613 . S
N843 C846 1.350 . S
N844 S842 1.610 . S
N844 C845 1.351 . S
C845 C839 1.428 . S
C845 N844 1.351 . S
C845 C846 1.434 . S
C846 C837 1.429 . S
C846 N843 1.350 . S
C846 C845 1.434 . S
C847 C848 1.369 . S
C847 C849 1.419 . S
C847 H851 0.930 . S
C848 C847 1.369 . S
C848 C857 1.429 . S
C849 C847 1.419 . S
C849 C850 1.363 . S
C849 H852 0.929 . S
C850 C849 1.363 . S
C850 C856 1.428 . S
H851 C847 0.930 . S
H852 C849 0.929 . S
S853 N854 1.613 . S
S853 N855 1.610 . S
N854 S853 1.613 . S
N854 C857 1.350 . S
N855 S853 1.610 . S
N855 C856 1.351 . S
C856 C850 1.428 . S
C856 N855 1.351 . S
C856 C857 1.434 . S
C857 C848 1.429 . S
C857 N854 1.350 . S
C857 C856 1.434 . S
C858 C859 1.369 . S
C858 C860 1.419 . S
C858 H862 0.930 . S
C859 C858 1.369 . S
C859 C868 1.429 . S
C860 C858 1.419 . S
C860 C861 1.363 . S
C860 H863 0.929 . S
C861 C860 1.363 . S
C861 C867 1.428 . S
H862 C858 0.930 . S
H863 C860 0.929 . S
S864 N865 1.613 . S
S864 N866 1.610 . S
N865 S864 1.613 . S
N865 C868 1.350 . S
N866 S864 1.610 . S
N866 C867 1.351 . S
C867 C861 1.428 . S
C867 N866 1.351 . S
C867 C868 1.434 . S
C868 C859 1.429 . S
C868 N865 1.350 . S
C868 C867 1.434 . S
C869 C870 1.369 . S
C869 C871 1.419 . S
C869 H873 0.930 . S
C870 C869 1.369 . S
C870 C879 1.429 . S
C871 C869 1.419 . S
C871 C872 1.363 . S
C871 H874 0.929 . S
C872 C871 1.363 . S
C872 C878 1.428 . S
H873 C869 0.930 . S
H874 C871 0.929 . S
S875 N876 1.613 . S
S875 N877 1.610 . S
N876 S875 1.613 . S
N876 C879 1.350 . S
N877 S875 1.610 . S
N877 C878 1.351 . S
C878 C872 1.428 . S
C878 N877 1.351 . S
C878 C879 1.434 . S
C879 C870 1.429 . S
C879 N876 1.350 . S
C879 C878 1.434 . S
C880 C881 1.369 . S
C880 C882 1.419 . S
C880 H884 0.930 . S
C881 C880 1.369 . S
C881 C890 1.429 . S
C882 C880 1.419 . S
C882 C883 1.363 . S
C882 H885 0.929 . S
C883 C882 1.363 . S
C883 C889 1.428 . S
H884 C880 0.930 . S
H885 C882 0.929 . S
S886 N887 1.613 . S
S886 N888 1.610 . S
N887 S886 1.613 . S
N887 C890 1.350 . S
N888 S886 1.610 . S
N888 C889 1.351 . S
C889 C883 1.428 . S
C889 N888 1.351 . S
C889 C890 1.434 . S
C890 C881 1.429 . S
C890 N887 1.350 . S
C890 C889 1.434 . S
C891 C892 1.369 . S
C891 C893 1.419 1_565 S
C891 H895 0.930 . S
C892 C891 1.369 . S
C892 C901 1.429 . S
C893 C891 1.419 1_545 S
C893 C894 1.363 . S
C893 H896 0.929 . S
C894 C893 1.363 . S
C894 C900 1.428 . S
H895 C891 0.930 . S
H896 C893 0.929 . S
S897 N898 1.613 . S
S897 N899 1.610 1_565 S
N898 S897 1.613 . S
N898 C901 1.350 . S
N899 S897 1.610 1_545 S
N899 C900 1.351 . S
C900 C894 1.428 . S
C900 N899 1.351 . S
C900 C901 1.434 1_545 S
C901 C892 1.429 . S
C901 N898 1.350 . S
C901 C900 1.434 1_565 S
C902 C903 1.369 . S
C902 C904 1.419 . S
C902 H906 0.930 . S
C903 C902 1.369 . S
C903 C912 1.429 . S
C904 C902 1.419 . S
C904 C905 1.363 1_455 S
C904 H907 0.929 . S
C905 C904 1.363 1_655 S
C905 C911 1.428 . S
H906 C902 0.930 . S
H907 C904 0.929 . S
S908 N909 1.613 . S
S908 N910 1.610 . S
N909 S908 1.613 . S
N909 C912 1.350 1_655 S
N910 S908 1.610 . S
N910 C911 1.351 . S
C911 C905 1.428 . S
C911 N910 1.351 . S
C911 C912 1.434 1_655 S
C912 C903 1.429 . S
C912 N909 1.350 1_455 S
C912 C911 1.434 1_455 S
C913 C914 1.369 . S
C913 C915 1.419 . S
C913 H917 0.930 . S
C914 C913 1.369 . S
C914 C923 1.429 . S
C915 C913 1.419 . S
C915 C916 1.363 . S
C915 H918 0.929 . S
C916 C915 1.363 . S
C916 C922 1.428 . S
H917 C913 0.930 . S
H918 C915 0.929 . S
S919 N920 1.613 . S
S919 N921 1.610 . S
N920 S919 1.613 . S
N920 C923 1.350 . S
N921 S919 1.610 . S
N921 C922 1.351 . S
C922 C916 1.428 . S
C922 N921 1.351 . S
C922 C923 1.434 . S
C923 C914 1.429 . S
C923 N920 1.350 . S
C923 C922 1.434 . S
C924 C925 1.368 1_655 S
C924 C926 1.419 . S
C924 H928 0.930 . S
C925 C924 1.368 1_455 S
C925 C934 1.428 1_455 S
C926 C924 1.419 . S
C926 C927 1.363 . S
C926 H929 0.929 . S
C927 C926 1.363 . S
C927 C933 1.428 . S
H928 C924 0.930 . S
H929 C926 0.929 . S
S930 N931 1.613 1_655 S
S930 N932 1.610 . S
N931 S930 1.613 1_455 S
N931 C934 1.350 1_455 S
N932 S930 1.610 . S
N932 C933 1.351 . S
C933 C927 1.428 . S
C933 N932 1.351 . S
C933 C934 1.434 . S
C934 C925 1.428 1_655 S
C934 N931 1.350 1_655 S
C934 C933 1.434 . S
C935 C936 1.369 . S
C935 C937 1.419 . S
C935 H939 0.930 . S
C936 C935 1.369 . S
C936 C945 1.429 . S
C937 C935 1.419 . S
C937 C938 1.363 . S
C937 H940 0.929 . S
C938 C937 1.363 . S
C938 C944 1.428 . S
H939 C935 0.930 . S
H940 C937 0.929 . S
S941 N942 1.613 . S
S941 N943 1.610 . S
N942 S941 1.613 . S
N942 C945 1.350 . S
N943 S941 1.610 . S
N943 C944 1.351 . S
C944 C938 1.428 . S
C944 N943 1.351 . S
C944 C945 1.434 . S
C945 C936 1.429 . S
C945 N942 1.350 . S
C945 C944 1.434 . S
C946 C947 1.387 . S
C946 C948 1.419 . S
C946 H950 0.930 . S
C947 C946 1.387 . S
C947 C956 1.437 . S
C948 C946 1.419 . S
C948 C949 1.363 . S
C948 H951 0.929 . S
C949 C948 1.363 . S
C949 C955 1.428 . S
H950 C946 0.930 . S
H951 C948 0.929 . S
S952 N953 1.613 . S
S952 N954 1.610 . S
N953 S952 1.613 . S
N953 C956 1.350 . S
N954 S952 1.610 . S
N954 C955 1.351 . S
C955 C949 1.428 . S
C955 N954 1.351 . S
C955 C956 1.434 . S
C956 C947 1.437 . S
C956 N953 1.350 . S
C956 C955 1.434 . S
C957 C958 1.369 . S
C957 C959 1.419 . S
C957 H961 0.930 . S
C958 C957 1.369 . S
C958 C967 1.429 . S
C959 C957 1.419 . S
C959 C960 1.363 . S
C959 H962 0.929 . S
C960 C959 1.363 . S
C960 C966 1.428 . S
H961 C957 0.930 . S
H962 C959 0.929 . S
S963 N964 1.613 . S
S963 N965 1.610 . S
N964 S963 1.613 . S
N964 C967 1.350 . S
N965 S963 1.610 . S
N965 C966 1.351 . S
C966 C960 1.428 . S
C966 N965 1.351 . S
C966 C967 1.434 . S
C967 C958 1.429 . S
C967 N964 1.350 . S
C967 C966 1.434 . S
C968 C969 1.369 . S
C968 C970 1.419 . S
C968 H972 0.930 . S
C969 C968 1.369 . S
C969 C978 1.429 . S
C970 C968 1.419 . S
C970 C971 1.363 . S
C970 H973 0.929 . S
C971 C970 1.363 . S
C971 C977 1.428 . S
H972 C968 0.930 . S
H973 C970 0.929 . S
S974 N975 1.613 . S
S974 N976 1.610 . S
N975 S974 1.613 . S
N975 C978 1.350 . S
N976 S974 1.610 . S
N976 C977 1.351 . S
C977 C971 1.428 . S
C977 N976 1.351 . S
C977 C978 1.434 . S
C978 C969 1.429 . S
C978 N975 1.350 . S
C978 C977 1.434 . S
C979 C980 1.369 . S
C979 C981 1.419 . S
C979 H983 0.930 . S
C980 C979 1.369 . S
C980 C989 1.429 . S
C981 C979 1.419 . S
C981 C982 1.363 . S
C981 H984 0.929 . S
C982 C981 1.363 . S
C982 C988 1.428 . S
H983 C979 0.930 . S
H984 C981 0.929 . S
S985 N986 1.613 . S
S985 N987 1.610 . S
N986 S985 1.613 . S
N986 C989 1.350 . S
N987 S985 1.610 . S
N987 C988 1.351 . S
C988 C982 1.428 . S
C988 N987 1.351 . S
C988 C989 1.434 . S
C989 C980 1.429 . S
C989 N986 1.350 . S
C989 C988 1.434 . S
C990 C991 1.369 . S
C990 C992 1.419 . S
C990 H994 0.930 . S
C991 C990 1.369 . S
C991 C1000 1.429 . S
C992 C990 1.419 . S
C992 C993 1.363 . S
C992 H995 0.929 . S
C993 C992 1.363 . S
C993 C999 1.428 . S
H994 C990 0.930 . S
H995 C992 0.929 . S
S996 N997 1.613 1_545 S
S996 N998 1.610 1_545 S
N997 S996 1.613 1_565 S
N997 C1000 1.350 . S
N998 S996 1.610 1_565 S
N998 C999 1.351 . S
C999 C993 1.428 . S
C999 N998 1.351 . S
C999 C1000 1.434 . S
C1000 C991 1.429 . S
C1000 N997 1.350 . S
C1000 C999 1.434 . S
C1001 C1002 1.369 . S
C1001 C1003 1.419 . S
C1001 H1005 0.919 1_455 S
C1002 C1001 1.369 . S
C1002 C1011 1.429 . S
C1003 C1001 1.419 . S
C1003 C1004 1.363 . S
C1003 H1006 0.933 . S
C1004 C1003 1.363 . S
C1004 C1010 1.428 . S
H1005 C1001 0.919 1_655 S
H1006 C1003 0.933 . S
S1007 N1008 1.613 . S
S1007 N1009 1.610 . S
N1008 S1007 1.613 . S
N1008 C1011 1.350 . S
N1009 S1007 1.610 . S
N1009 C1010 1.351 . S
C1010 C1004 1.428 . S
C1010 N1009 1.351 . S
C1010 C1011 1.434 . S
C1011 C1002 1.429 . S
C1011 N1008 1.350 . S
C1011 C1010 1.434 . S
C1012 C1013 1.369 . S
C1012 C1014 1.419 . S
C1012 H1016 0.930 . S
C1013 C1012 1.369 . S
C1013 C1022 1.429 . S
C1014 C1012 1.419 . S
C1014 C1015 1.363 . S
C1014 H1017 0.929 . S
C1015 C1014 1.363 . S
C1015 C1021 1.428 . S
H1016 C1012 0.930 . S
H1017 C1014 0.929 . S
S1018 N1019 1.613 . S
S1018 N1020 1.610 . S
N1019 S1018 1.613 . S
N1019 C1022 1.350 . S
N1020 S1018 1.610 . S
N1020 C1021 1.351 . S
C1021 C1015 1.428 . S
C1021 N1020 1.351 . S
C1021 C1022 1.434 . S
C1022 C1013 1.429 . S
C1022 N1019 1.350 . S
C1022 C1021 1.434 . S
C1023 C1024 1.369 . S
C1023 C1025 1.419 . S
C1023 H1027 0.930 . S
C1024 C1023 1.369 . S
C1024 C1033 1.429 . S
C1025 C1023 1.419 . S
C1025 C1026 1.363 . S
C1025 H1028 0.929 . S
C1026 C1025 1.363 . S
C1026 C1032 1.428 . S
H1027 C1023 0.930 . S
H1028 C1025 0.929 . S
S1029 N1030 1.613 . S
S1029 N1031 1.610 . S
N1030 S1029 1.613 . S
N1030 C1033 1.350 . S
N1031 S1029 1.610 . S
N1031 C1032 1.351 . S
C1032 C1026 1.428 . S
C1032 N1031 1.351 . S
C1032 C1033 1.434 . S
C1033 C1024 1.429 . S
C1033 N1030 1.350 . S
C1033 C1032 1.434 . S
C1034 C1035 1.369 . S
C1034 C1036 1.419 . S
C1034 H1038 0.930 . S
C1035 C1034 1.369 . S
C1035 C1044 1.429 . S
C1036 C1034 1.419 . S
C1036 C1037 1.363 . S
C1036 H1039 0.929 . S
C1037 C1036 1.363 . S
C1037 C1043 1.428 . S
H1038 C1034 0.930 . S
H1039 C1036 0.929 . S
S1040 N1041 1.613 . S
S1040 N1042 1.610 . S
N1041 S1040 1.613 . S
N1041 C1044 1.350 . S
N1042 S1040 1.610 . S
N1042 C1043 1.351 . S
C1043 C1037 1.428 . S
C1043 N1042 1.351 . S
C1043 C1044 1.434 . S
C1044 C1035 1.429 . S
C1044 N1041 1.350 . S
C1044 C1043 1.434 . S
C1045 C1046 1.369 . S
C1045 C1047 1.419 . S
C1045 H1049 0.930 . S
C1046 C1045 1.369 . S
C1046 C1055 1.429 . S
C1047 C1045 1.419 . S
C1047 C1048 1.363 . S
C1047 H1050 0.929 . S
C1048 C1047 1.363 . S
C1048 C1054 1.428 . S
H1049 C1045 0.930 . S
H1050 C1047 0.929 . S
S1051 N1052 1.613 1_565 S
S1051 N1053 1.610 1_565 S
N1052 S1051 1.613 1_545 S
N1052 C1055 1.350 . S
N1053 S1051 1.610 1_545 S
N1053 C1054 1.351 . S
C1054 C1048 1.428 . S
C1054 N1053 1.351 . S
C1054 C1055 1.434 . S
C1055 C1046 1.429 . S
C1055 N1052 1.350 . S
C1055 C1054 1.434 . S
C1056 C1057 1.369 . S
C1056 C1058 1.419 . S
C1056 H1060 0.930 . S
C1057 C1056 1.369 . S
C1057 C1066 1.429 . S
C1058 C1056 1.419 . S
C1058 C1059 1.363 . S
C1058 H1061 0.929 . S
C1059 C1058 1.363 . S
C1059 C1065 1.428 . S
H1060 C1056 0.930 . S
H1061 C1058 0.929 . S
S1062 N1063 1.613 . S
S1062 N1064 1.610 . S
N1063 S1062 1.613 . S
N1063 C1066 1.350 . S
N1064 S1062 1.610 . S
N1064 C1065 1.351 . S
C1065 C1059 1.428 . S
C1065 N1064 1.351 . S
C1065 C1066 1.434 . S
C1066 C1057 1.429 . S
C1066 N1063 1.350 . S
C1066 C1065 1.434 . S
C1067 C1068 1.369 . S
C1067 C1069 1.419 . S
C1067 H1071 0.930 . S
C1068 C1067 1.369 . S
C1068 C1077 1.429 . S
C1069 C1067 1.419 . S
C1069 C1070 1.363 . S
C1069 H1072 0.929 . S
C1070 C1069 1.363 . S
C1070 C1076 1.428 . S
H1071 C1067 0.930 . S
H1072 C1069 0.929 . S
S1073 N1074 1.613 . S
S1073 N1075 1.610 . S
N1074 S1073 1.613 . S
N1074 C1077 1.350 . S
N1075 S1073 1.610 . S
N1075 C1076 1.351 . S
C1076 C1070 1.428 . S
C1076 N1075 1.351 . S
C1076 C1077 1.434 . S
C1077 C1068 1.429 . S
C1077 N1074 1.350 . S
C1077 C1076 1.434 . S
C1078 C1079 1.369 . S
C1078 C1080 1.419 . S
C1078 H1082 0.930 . S
C1079 C1078 1.369 . S
C1079 C1088 1.429 . S
C1080 C1078 1.419 . S
C1080 C1081 1.363 . S
C1080 H1083 0.929 . S
C1081 C1080 1.363 . S
C1081 C1087 1.428 . S
H1082 C1078 0.930 . S
H1083 C1080 0.929 . S
S1084 N1085 1.613 . S
S1084 N1086 1.610 . S
N1085 S1084 1.613 . S
N1085 C1088 1.350 . S
N1086 S1084 1.610 . S
N1086 C1087 1.351 . S
C1087 C1081 1.428 . S
C1087 N1086 1.351 . S
C1087 C1088 1.434 . S
C1088 C1079 1.429 . S
C1088 N1085 1.350 . S
C1088 C1087 1.434 . S
C1089 C1090 1.369 . S
C1089 C1091 1.419 . S
C1089 H1093 0.930 . S
C1090 C1089 1.369 . S
C1090 C1099 1.429 . S
C1091 C1089 1.419 . S
C1091 C1092 1.363 . S
C1091 H1094 0.929 . S
C1092 C1091 1.363 . S
C1092 C1098 1.428 . S
H1093 C1089 0.930 . S
H1094 C1091 0.929 . S
S1095 N1096 1.613 . S
S1095 N1097 1.610 . S
N1096 S1095 1.613 . S
N1096 C1099 1.350 . S
N1097 S1095 1.610 . S
N1097 C1098 1.351 . S
C1098 C1092 1.428 . S
C1098 N1097 1.351 . S
C1098 C1099 1.434 . S
C1099 C1090 1.429 . S
C1099 N1096 1.350 . S
C1099 C1098 1.434 . S
C1100 C1101 1.369 . S
C1100 C1102 1.419 . S
C1100 H1104 0.930 . S
C1101 C1100 1.369 . S
C1101 C1110 1.429 . S
C1102 C1100 1.419 . S
C1102 C1103 1.363 . S
C1102 H1105 0.929 . S
C1103 C1102 1.363 . S
C1103 C1109 1.428 . S
H1104 C1100 0.930 . S
H1105 C1102 0.929 . S
S1106 N1107 1.613 . S
S1106 N1108 1.610 . S
N1107 S1106 1.613 . S
N1107 C1110 1.350 . S
N1108 S1106 1.610 . S
N1108 C1109 1.351 . S
C1109 C1103 1.428 . S
C1109 N1108 1.351 . S
C1109 C1110 1.434 . S
C1110 C1101 1.429 . S
C1110 N1107 1.350 . S
C1110 C1109 1.434 . S
C1111 C1112 1.369 . S
C1111 C1113 1.419 . S
C1111 H1115 0.930 . S
C1112 C1111 1.369 . S
C1112 C1121 1.429 . S
C1113 C1111 1.419 . S
C1113 C1114 1.363 . S
C1113 H1116 0.929 . S
C1114 C1113 1.363 . S
C1114 C1120 1.428 . S
H1115 C1111 0.930 . S
H1116 C1113 0.929 . S
S1117 N1118 1.613 . S
S1117 N1119 1.610 . S
N1118 S1117 1.613 . S
N1118 C1121 1.350 . S
N1119 S1117 1.610 . S
N1119 C1120 1.351 . S
C1120 C1114 1.428 . S
C1120 N1119 1.351 . S
C1120 C1121 1.434 . S
C1121 C1112 1.429 . S
C1121 N1118 1.350 . S
C1121 C1120 1.434 . S
C1122 C1123 1.369 . S
C1122 C1124 1.419 . S
C1122 H1126 0.930 . S
C1123 C1122 1.369 . S
C1123 C1132 1.429 . S
C1124 C1122 1.419 . S
C1124 C1125 1.363 . S
C1124 H1127 0.929 . S
C1125 C1124 1.363 . S
C1125 C1131 1.428 . S
H1126 C1122 0.930 . S
H1127 C1124 0.929 . S
S1128 N1129 1.613 . S
S1128 N1130 1.610 . S
N1129 S1128 1.613 . S
N1129 C1132 1.350 . S
N1130 S1128 1.610 . S
N1130 C1131 1.351 . S
C1131 C1125 1.428 . S
C1131 N1130 1.351 . S
C1131 C1132 1.434 . S
C1132 C1123 1.429 . S
C1132 N1129 1.350 . S
C1132 C1131 1.434 . S
C1133 C1134 1.369 . S
C1133 C1135 1.419 . S
C1133 H1137 0.930 . S
C1134 C1133 1.369 . S
C1134 C1143 1.429 . S
C1135 C1133 1.419 . S
C1135 C1136 1.363 . S
C1135 H1138 0.929 . S
C1136 C1135 1.363 . S
C1136 C1142 1.428 . S
H1137 C1133 0.930 . S
H1138 C1135 0.929 . S
S1139 N1140 1.613 . S
S1139 N1141 1.610 . S
N1140 S1139 1.613 . S
N1140 C1143 1.350 . S
N1141 S1139 1.610 . S
N1141 C1142 1.351 . S
C1142 C1136 1.428 . S
C1142 N1141 1.351 . S
C1142 C1143 1.434 . S
C1143 C1134 1.429 . S
C1143 N1140 1.350 . S
C1143 C1142 1.434 . S
C1144 C1145 1.369 . S
C1144 C1146 1.419 . S
C1144 H1148 0.930 . S
C1145 C1144 1.369 . S
C1145 C1154 1.429 . S
C1146 C1144 1.419 . S
C1146 C1147 1.363 . S
C1146 H1149 0.929 . S
C1147 C1146 1.363 . S
C1147 C1153 1.428 . S
H1148 C1144 0.930 . S
H1149 C1146 0.929 . S
S1150 N1151 1.613 . S
S1150 N1152 1.610 . S
N1151 S1150 1.613 . S
N1151 C1154 1.350 . S
N1152 S1150 1.610 . S
N1152 C1153 1.351 . S
C1153 C1147 1.428 . S
C1153 N1152 1.351 . S
C1153 C1154 1.434 . S
C1154 C1145 1.429 . S
C1154 N1151 1.350 . S
C1154 C1153 1.434 . S
C1155 C1156 1.369 . S
C1155 C1157 1.419 . S
C1155 H1159 0.930 . S
C1156 C1155 1.369 . S
C1156 C1165 1.429 . S
C1157 C1155 1.419 . S
C1157 C1158 1.363 . S
C1157 H1160 0.929 . S
C1158 C1157 1.363 . S
C1158 C1164 1.428 . S
H1159 C1155 0.930 . S
H1160 C1157 0.929 . S
S1161 N1162 1.613 . S
S1161 N1163 1.610 . S
N1162 S1161 1.613 . S
N1162 C1165 1.350 . S
N1163 S1161 1.610 . S
N1163 C1164 1.351 . S
C1164 C1158 1.428 . S
C1164 N1163 1.351 . S
C1164 C1165 1.434 . S
C1165 C1156 1.429 . S
C1165 N1162 1.350 . S
C1165 C1164 1.434 . S
C1166 C1167 1.369 . S
C1166 C1168 1.419 . S
C1166 H1170 0.930 . S
C1167 C1166 1.369 . S
C1167 C1176 1.429 . S
C1168 C1166 1.419 . S
C1168 C1169 1.363 . S
C1168 H1171 0.929 . S
C1169 C1168 1.363 . S
C1169 C1175 1.428 . S
H1170 C1166 0.930 . S
H1171 C1168 0.929 . S
S1172 N1173 1.613 . S
S1172 N1174 1.610 . S
N1173 S1172 1.613 . S
N1173 C1176 1.350 . S
N1174 S1172 1.610 . S
N1174 C1175 1.351 . S
C1175 C1169 1.428 . S
C1175 N1174 1.351 . S
C1175 C1176 1.434 . S
C1176 C1167 1.429 . S
C1176 N1173 1.350 . S
C1176 C1175 1.434 . S
C1177 C1178 1.369 . S
C1177 C1179 1.419 . S
C1177 H1181 0.930 . S
C1178 C1177 1.369 . S
C1178 C1187 1.429 . S
C1179 C1177 1.419 . S
C1179 C1180 1.363 . S
C1179 H1182 0.929 . S
C1180 C1179 1.363 . S
C1180 C1186 1.428 . S
H1181 C1177 0.930 . S
H1182 C1179 0.929 . S
S1183 N1184 1.613 . S
S1183 N1185 1.610 . S
N1184 S1183 1.613 . S
N1184 C1187 1.350 . S
N1185 S1183 1.610 . S
N1185 C1186 1.351 . S
C1186 C1180 1.428 . S
C1186 N1185 1.351 . S
C1186 C1187 1.434 . S
C1187 C1178 1.429 . S
C1187 N1184 1.350 . S
C1187 C1186 1.434 . S
C595 C177 1.654 . S
C597 C237 1.666 . S
C606 C190 1.750 . S
C608 C277 1.747 . S
C617 C164 1.590 . S
C619 C329 1.581 . S
C628 C151 1.495 . S
C630 C289 1.472 . S
C641 C317 1.519 . S
C639 C125 1.522 . S
C650 C138 1.404 . S
C652 C249 1.404 1_556 S
C663 C256 1.673 . S
C661 C147 1.652 . S
C674 C296 1.647 . S
C672 C121 1.591 . S
C683 C134 1.606 . S
C685 C316 1.675 1_556 S
C694 C173 1.494 . S
C696 C276 1.528 . S
C705 C186 1.471 . S
C707 C336 1.486 . S
C718 C236 1.525 . S
C716 C160 1.489 . S
C729 C357 1.666 . S
C727 C21 1.653 . S
C738 C34 1.750 . S
C740 C397 1.747 . S
C749 C8 1.587 . S
C751 C449 1.584 . S
C760 C229 1.493 . S
C762 C409 1.475 . S
C771 C203 1.521 . S
C773 C437 1.518 . S
C782 C216 1.404 . S
C784 C369 1.401 . S
C793 C225 1.647 . S
C795 C376 1.670 . S
C804 C199 1.594 . S
C806 C416 1.650 . S
C817 C436 1.675 . S
C815 C212 1.608 . S
C826 C17 1.486 . S
C828 C396 1.534 . S
C839 C456 1.485 . S
C837 C30 1.472 1_455 S
C848 C4 1.497 . S
C850 C356 1.523 . S
C861 C477 1.666 . S
C859 C99 1.651 . S
C870 C112 1.751 . S
C872 C517 1.747 . S
C883 C569 1.580 . S
C881 C86 1.591 . S
C894 C529 1.476 . S
C892 C73 1.490 . S
C905 C557 1.519 . S
C903 C47 1.522 . S
C914 C60 1.400 . S
C916 C489 1.405 . S
C925 C69 1.654 . S
C927 C496 1.669 . S
C936 C43 1.595 . S
C938 C536 1.649 . S
C949 C556 1.669 . S
C947 C56 1.595 1_545 S
C958 C95 1.495 . S
C960 C516 1.530 . S
C969 C108 1.470 . S
C971 C576 1.486 . S
C980 C82 1.495 . S
C982 C476 1.525 . S
C991 C204 1.597 . S
C993 C260 1.555 . S
C1004 C300 1.868 . S
C1002 C217 1.915 . S
C1013 C230 1.555 . S
C1015 C323 1.571 . S
C1024 C87 1.731 . S
C1026 C283 1.726 . S
C1035 C100 1.680 . S
C1037 C340 1.651 . S
C1048 C243 1.369 . S
C1046 C113 1.362 . S
C1057 C48 1.599 . S
C1059 C380 1.554 . S
C1068 C61 1.914 . S
C1070 C420 1.869 . S
C1079 C74 1.556 . S
C1081 C443 1.569 . S
C1090 C165 1.728 . S
C1092 C403 1.725 . S
C1103 C460 1.652 . S
C1101 C178 1.679 . S
C1112 C191 1.360 . S
C1114 C363 1.368 . S
C1123 C126 1.599 . S
C1125 C500 1.554 . S
C1134 C139 1.913 . S
C1136 C540 1.870 . S
C1147 C563 1.572 . S
C1145 C152 1.551 . S
C1156 C9 1.733 . S
C1158 C523 1.724 . S
C1167 C22 1.680 . S
C1169 C580 1.652 . S
C1178 C35 1.363 . S
C1180 C483 1.369 . S
