# Generated by pormake.
# Topology eea, (3,6)-cn, num edge types: 1
# Building blocks:
#     Node 0, Type 0, BuildingBlock: BELTOD_clean_linker_0, # of connection points: 3
#     Node 1, Type 0, BuildingBlock: BELTOD_clean_linker_0, # of connection points: 3
#     Node 2, Type 0, BuildingBlock: BELTOD_clean_linker_0, # of connection points: 3
#     Node 3, Type 0, BuildingBlock: BELTOD_clean_linker_0, # of connection points: 3
#     Node 4, Type 0, BuildingBlock: BELTOD_clean_linker_0, # of connection points: 3
#     Node 5, Type 0, BuildingBlock: BELTOD_clean_linker_0, # of connection points: 3
#     Node 6, Type 0, BuildingBlock: BELTOD_clean_linker_0, # of connection points: 3
#     Node 7, Type 0, BuildingBlock: BELTOD_clean_linker_0, # of connection points: 3
#     Node 8, Type 0, BuildingBlock: BELTOD_clean_linker_0, # of connection points: 3
#     Node 9, Type 0, BuildingBlock: BELTOD_clean_linker_0, # of connection points: 3
#     Node 10, Type 0, BuildingBlock: BELTOD_clean_linker_0, # of connection points: 3
#     Node 11, Type 0, BuildingBlock: BELTOD_clean_linker_0, # of connection points: 3
#     Node 12, Type 0, BuildingBlock: BELTOD_clean_linker_0, # of connection points: 3
#     Node 13, Type 0, BuildingBlock: BELTOD_clean_linker_0, # of connection points: 3
#     Node 14, Type 0, BuildingBlock: BELTOD_clean_linker_0, # of connection points: 3
#     Node 15, Type 0, BuildingBlock: BELTOD_clean_linker_0, # of connection points: 3
#     Node 16, Type 0, BuildingBlock: BELTOD_clean_linker_0, # of connection points: 3
#     Node 17, Type 0, BuildingBlock: BELTOD_clean_linker_0, # of connection points: 3
#     Node 18, Type 1, BuildingBlock: KUMBUR_clean_sbu_0, # of connection points: 6
#     Node 19, Type 1, BuildingBlock: KUMBUR_clean_sbu_0, # of connection points: 6
#     Node 20, Type 1, BuildingBlock: KUMBUR_clean_sbu_0, # of connection points: 6
#     Node 21, Type 1, BuildingBlock: KUMBUR_clean_sbu_0, # of connection points: 6
#     Node 22, Type 1, BuildingBlock: KUMBUR_clean_sbu_0, # of connection points: 6
#     Node 23, Type 1, BuildingBlock: KUMBUR_clean_sbu_0, # of connection points: 6
#     Node 24, Type 1, BuildingBlock: KUMBUR_clean_sbu_0, # of connection points: 6
#     Node 25, Type 1, BuildingBlock: KUMBUR_clean_sbu_0, # of connection points: 6
#     Node 26, Type 1, BuildingBlock: KUMBUR_clean_sbu_0, # of connection points: 6
#     Edge 27, Type (0, 1), None
#     Edge 28, Type (0, 1), None
#     Edge 29, Type (0, 1), None
#     Edge 30, Type (0, 1), None
#     Edge 31, Type (0, 1), None
#     Edge 32, Type (0, 1), None
#     Edge 33, Type (0, 1), None
#     Edge 34, Type (0, 1), None
#     Edge 35, Type (0, 1), None
#     Edge 36, Type (0, 1), None
#     Edge 37, Type (0, 1), None
#     Edge 38, Type (0, 1), None
#     Edge 39, Type (0, 1), None
#     Edge 40, Type (0, 1), None
#     Edge 41, Type (0, 1), None
#     Edge 42, Type (0, 1), None
#     Edge 43, Type (0, 1), None
#     Edge 44, Type (0, 1), None
#     Edge 45, Type (0, 1), None
#     Edge 46, Type (0, 1), None
#     Edge 47, Type (0, 1), None
#     Edge 48, Type (0, 1), None
#     Edge 49, Type (0, 1), None
#     Edge 50, Type (0, 1), None
#     Edge 51, Type (0, 1), None
#     Edge 52, Type (0, 1), None
#     Edge 53, Type (0, 1), None
#     Edge 54, Type (0, 1), None
#     Edge 55, Type (0, 1), None
#     Edge 56, Type (0, 1), None
#     Edge 57, Type (0, 1), None
#     Edge 58, Type (0, 1), None
#     Edge 59, Type (0, 1), None
#     Edge 60, Type (0, 1), None
#     Edge 61, Type (0, 1), None
#     Edge 62, Type (0, 1), None
#     Edge 63, Type (0, 1), None
#     Edge 64, Type (0, 1), None
#     Edge 65, Type (0, 1), None
#     Edge 66, Type (0, 1), None
#     Edge 67, Type (0, 1), None
#     Edge 68, Type (0, 1), None
#     Edge 69, Type (0, 1), None
#     Edge 70, Type (0, 1), None
#     Edge 71, Type (0, 1), None
#     Edge 72, Type (0, 1), None
#     Edge 73, Type (0, 1), None
#     Edge 74, Type (0, 1), None
#     Edge 75, Type (0, 1), None
#     Edge 76, Type (0, 1), None
#     Edge 77, Type (0, 1), None
#     Edge 78, Type (0, 1), None
#     Edge 79, Type (0, 1), None
#     Edge 80, Type (0, 1), None
# Relax obj value: 0.005
# Max RMSD: 0.133
# Mean RMSD: 0.105
data_MOF--net-eea--node1-KUMBUR_clean_sbu_0--node2-BELTOD_clean_linker_0--edge1-none
_symmetry_space_group_name_H-M    P1
_symmetry_Int_Tables_number       1
_symmetry_cell_setting            triclinic
loop_
_symmetry_equiv_pos_as_xyz
'x, y, z'
_cell_length_a     28.852582
_cell_length_b     30.081699
_cell_length_c     48.190005
_cell_angle_alpha  89.746426
_cell_angle_beta   90.082955
_cell_angle_gamma 119.85095
loop_
_atom_site_label
_atom_site_type_symbol
_atom_site_fract_x
_atom_site_fract_y
_atom_site_fract_z
_atom_type_partial_charge
P0 P 0.31057 0.13772 0.40338 0.0
H1 H 0.28671 0.08975 0.34957 0.0
H2 H 0.23529 0.0013 0.3347 0.0
H3 H 0.19205 0.9522 0.41954 0.0
H4 H 0.24398 0.04183 0.43466 0.0
H5 H 0.34096 0.24448 0.41096 0.0
H6 H 0.30204 0.29571 0.39492 0.0
H7 H 0.16892 0.16035 0.35973 0.0
H8 H 0.20687 0.10902 0.37669 0.0
H9 H 0.37665 0.10354 0.43061 0.0
H10 H 0.29147 0.18135 0.45434 0.0
O11 O 0.36566 0.16295 0.38386 0.0
H12 H 0.41277 0.11402 0.47744 0.0
H13 H 0.32922 0.19401 0.50101 0.0
C14 C 0.27 0.07208 0.3932 0.0
C15 C 0.26562 0.06006 0.36498 0.0
C16 C 0.23501 0.00948 0.35636 0.0
C17 C 0.20828 0.96995 0.37578 0.0
C18 C 0.21166 0.98217 0.4041 0.0
C19 C 0.24177 0.03316 0.41276 0.0
C20 C 0.27682 0.1729 0.39536 0.0
C21 C 0.30281 0.22564 0.40037 0.0
C22 C 0.2806 0.2549 0.39101 0.0
C23 C 0.23258 0.23204 0.37586 0.0
C24 C 0.20621 0.17905 0.37112 0.0
C25 C 0.22797 0.14964 0.38097 0.0
C26 C 0.33213 0.14236 0.43888 0.0
C27 C 0.3658 0.12299 0.44595 0.0
C28 C 0.38676 0.12938 0.4727 0.0
C29 C 0.37468 0.15563 0.49296 0.0
C30 C 0.33927 0.17346 0.48601 0.0
C31 C 0.31798 0.16666 0.4592 0.0
P32 P 0.9345 0.09766 0.42558 0.0
H33 H 0.92656 0.01257 0.39398 0.0
H34 H 0.8526 0.94077 0.37062 0.0
H35 H 0.74852 0.0004 0.39202 0.0
H36 H 0.82329 0.07257 0.41569 0.0
H37 H 0.03466 0.1229 0.39824 0.0
H38 H 0.09827 0.19711 0.37191 0.0
H39 H 0.98926 0.25621 0.37202 0.0
H40 H 0.92392 0.17977 0.39774 0.0
H41 H 0.85863 0.04102 0.46933 0.0
H42 H 0.95867 0.19992 0.44633 0.0
O43 O 0.97066 0.07394 0.43955 0.0
H44 H 0.82342 0.0669 0.50855 0.0
H45 H 0.92137 0.2254 0.48451 0.0
C46 C 0.88001 0.04708 0.40704 0.0
C47 C 0.88789 0.01028 0.39362 0.0
C48 C 0.84557 0.96943 0.38009 0.0
C49 C 0.79472 0.965 0.37943 0.0
C50 C 0.78717 0.00266 0.39238 0.0
C51 C 0.82981 0.04383 0.40587 0.0
C52 C 0.97589 0.14737 0.40127 0.0
C53 C 0.02379 0.15119 0.39214 0.0
C54 C 0.06008 0.19355 0.37662 0.0
C55 C 0.04911 0.23294 0.37009 0.0
C56 C 0.99875 0.22645 0.37689 0.0
C57 C 0.96181 0.18326 0.39188 0.0
C58 C 0.90966 0.1183 0.45417 0.0
C59 C 0.87251 0.08136 0.47247 0.0
C60 C 0.8526 0.09607 0.49488 0.0
C61 C 0.86928 0.14798 0.49914 0.0
C62 C 0.90737 0.18506 0.48124 0.0
C63 C 0.92821 0.17039 0.45921 0.0
P64 P 0.85221 0.7102 0.39783 0.0
H65 H 0.73999 0.6586 0.3819 0.0
H66 H 0.67684 0.68695 0.37084 0.0
H67 H 0.80078 0.84417 0.38021 0.0
H68 H 0.86531 0.8156 0.39185 0.0
H69 H 0.90371 0.65601 0.37593 0.0
H70 H 0.99439 0.68081 0.36362 0.0
H71 H 0.04115 0.8401 0.3729 0.0
H72 H 0.94843 0.8148 0.38654 0.0
H73 H 0.78205 0.70869 0.44262 0.0
H74 H 0.92689 0.70087 0.43563 0.0
O75 O 0.81818 0.64823 0.38935 0.0
H76 H 0.77197 0.67901 0.49081 0.0
H77 H 0.91636 0.67091 0.4837 0.0
C78 C 0.80867 0.73488 0.38669 0.0
C79 C 0.75476 0.69941 0.38097 0.0
C80 C 0.71816 0.71554 0.37466 0.0
C81 C 0.7343 0.76774 0.37327 0.0
C82 C 0.78782 0.80369 0.37975 0.0
C83 C 0.82474 0.78736 0.3865 0.0
C84 C 0.91801 0.73332 0.38198 0.0
C85 C 0.93234 0.69654 0.37472 0.0
C86 C 0.98475 0.71072 0.36766 0.0
C87 C 0.02493 0.76232 0.36694 0.0
C88 C 0.01076 0.79996 0.37274 0.0
C89 C 0.9577 0.78548 0.38056 0.0
C90 C 0.85582 0.70808 0.43536 0.0
C91 C 0.81306 0.70299 0.45167 0.0
C92 C 0.80719 0.68595 0.47929 0.0
C93 C 0.84377 0.67335 0.49101 0.0
C94 C 0.88822 0.68135 0.47528 0.0
C95 C 0.89421 0.69858 0.44774 0.0
P96 P 0.14388 0.27875 0.62779 0.0
H97 H 0.09949 0.32492 0.66483 0.0
H98 H 0.00971 0.29867 0.68017 0.0
H99 H 0.95456 0.14708 0.64824 0.0
H100 H 0.04554 0.17452 0.63093 0.0
H101 H 0.25895 0.33604 0.63501 0.0
H102 H 0.32655 0.31309 0.64579 0.0
H103 H 0.20548 0.15353 0.64925 0.0
H104 H 0.13632 0.17683 0.63846 0.0
H105 H 0.08086 0.30778 0.59284 0.0
H106 H 0.19387 0.25543 0.58037 0.0
O107 O 0.17544 0.3411 0.6355 0.0
H108 H 0.0927 0.33675 0.54451 0.0
H109 H 0.20517 0.2839 0.53193 0.0
C110 C 0.08015 0.25195 0.64641 0.0
C111 C 0.06907 0.28544 0.66158 0.0
C112 C 0.01737 0.27023 0.67083 0.0
C113 C 0.97521 0.22029 0.66646 0.0
C114 C 0.98663 0.18525 0.65301 0.0
C115 C 0.03865 0.20107 0.64287 0.0
C116 C 0.19174 0.25844 0.63711 0.0
C117 C 0.24609 0.29603 0.63863 0.0
C118 C 0.28515 0.28295 0.64463 0.0
C119 C 0.27116 0.23186 0.64953 0.0
C120 C 0.21711 0.19353 0.64667 0.0
C121 C 0.17759 0.20675 0.64046 0.0
C122 C 0.13618 0.27915 0.59044 0.0
C123 C 0.1063 0.30027 0.57946 0.0
C124 C 0.11326 0.31706 0.55181 0.0
C125 C 0.14994 0.31266 0.53447 0.0
C126 C 0.17621 0.28725 0.54471 0.0
C127 C 0.16971 0.27099 0.57253 0.0
P128 P 0.82464 0.90398 0.59571 0.0
H129 H 0.90613 0.9829 0.63113 0.0
H130 H 0.90686 0.05047 0.65972 0.0
H131 H 0.74331 -0.00117 0.63628 0.0
H132 H 0.74178 0.93013 0.60909 0.0
H133 H 0.78178 0.79525 0.5821 0.0
H134 H 0.78065 0.72449 0.60778 0.0
H135 H 0.85365 0.8251 0.67772 0.0
H136 H 0.85181 0.8938 0.65288 0.0
H137 H 0.82916 0.95035 0.54223 0.0
H138 H 0.71056 0.82585 0.59161 0.0
O139 O 0.88451 0.92906 0.5806 0.0
H140 H 0.76256 0.93327 0.50648 0.0
H141 H 0.64362 0.80729 0.55537 0.0
C142 C 0.82425 0.95204 0.6176 0.0
C143 C 0.87028 0.98584 0.63243 0.0
C144 C 0.87061 0.02422 0.64881 0.0
C145 C 0.82532 0.03004 0.64987 0.0
C146 C 0.77893 -0.0046 0.63555 0.0
C147 C 0.77815 0.95622 0.61987 0.0
C148 C 0.81539 0.84959 0.61578 0.0
C149 C 0.79563 0.80139 0.60337 0.0
C150 C 0.79536 0.76099 0.61805 0.0
C151 C 0.8166 0.76876 0.64504 0.0
C152 C 0.83598 0.81711 0.6573 0.0
C153 C 0.83511 0.85689 0.64292 0.0
C154 C 0.7753 0.88801 0.56898 0.0
C155 C 0.78894 0.91865 0.54512 0.0
C156 C 0.75075 0.90892 0.52475 0.0
C157 C 0.69797 0.86839 0.52791 0.0
C158 C 0.68392 0.83874 0.55234 0.0
C159 C 0.72231 0.84873 0.57282 0.0
P160 P 0.15077 0.85669 0.63015 0.0
H161 H 0.1408 0.90726 0.6789 0.0
H162 H 0.18781 -0.00328 0.69241 0.0
H163 H 0.25268 0.04032 0.60984 0.0
H164 H 0.20634 0.95045 0.59637 0.0
H165 H 0.10711 0.75435 0.65229 0.0
H166 H 0.01791 0.6898 0.66719 0.0
H167 H 0.96086 0.79604 0.65307 0.0
H168 H 0.05127 0.8615 0.63793 0.0
H169 H 0.24217 0.87092 0.59815 0.0
H170 H 0.07588 0.81942 0.58242 0.0
O171 O 0.19451 0.84662 0.64785 0.0
H172 H 0.25284 0.84954 0.55064 0.0
H173 H 0.08669 0.79815 0.53433 0.0
C174 C 0.16961 0.92216 0.63658 0.0
C175 C 0.16331 0.93622 0.66336 0.0
C176 C 0.19004 0.98765 0.6711 0.0
C177 C 0.22371 0.02575 0.65226 0.0
C178 C 0.22708 0.01174 0.62487 0.0
C179 C 0.20032 0.96028 0.6171 0.0
C180 C 0.08578 0.8126 0.64399 0.0
C181 C 0.07598 0.76447 0.65304 0.0
C182 C 0.0252 0.72783 0.66189 0.0
C183 C 0.98316 0.73857 0.66197 0.0
C184 C 0.99321 0.7876 0.65409 0.0
C185 C 0.04446 0.82452 0.64502 0.0
C186 C 0.15789 0.84536 0.59404 0.0
C187 C 0.20799 0.85535 0.58439 0.0
C188 C 0.21422 0.84357 0.55718 0.0
C189 C 0.17059 0.82217 0.53889 0.0
C190 C 0.12102 0.81503 0.548 0.0
C191 C 0.11471 0.82663 0.57548 0.0
P192 P 0.97723 0.47105 0.73671 0.0
H193 H 0.95337 0.42308 0.6829 0.0
H194 H 0.90195 0.33463 0.66804 0.0
H195 H 0.85872 0.28553 0.75287 0.0
H196 H 0.91064 0.37516 0.76799 0.0
H197 H 0.00763 0.57781 0.74429 0.0
H198 H 0.96871 0.62904 0.72825 0.0
H199 H 0.83558 0.49368 0.69306 0.0
H200 H 0.87354 0.44235 0.71002 0.0
H201 H 0.04332 0.43687 0.76394 0.0
H202 H 0.95813 0.51468 0.78767 0.0
O203 O 0.03232 0.49628 0.7172 0.0
H204 H 0.07944 0.44736 0.81078 0.0
H205 H 0.99588 0.52734 0.83435 0.0
C206 C 0.93666 0.40541 0.72653 0.0
C207 C 0.93228 0.39339 0.69831 0.0
C208 C 0.90167 0.34281 0.6897 0.0
C209 C 0.87494 0.30328 0.70911 0.0
C210 C 0.87832 0.31551 0.73744 0.0
C211 C 0.90844 0.36649 0.74609 0.0
C212 C 0.94349 0.50623 0.72869 0.0
C213 C 0.96948 0.55898 0.7337 0.0
C214 C 0.94727 0.58823 0.72434 0.0
C215 C 0.89924 0.56537 0.7092 0.0
C216 C 0.87288 0.51238 0.70446 0.0
C217 C 0.89464 0.48297 0.71431 0.0
C218 C 0.9988 0.47569 0.77221 0.0
C219 C 0.03247 0.45632 0.77929 0.0
C220 C 0.05343 0.46272 0.80604 0.0
C221 C 0.04134 0.48896 0.82629 0.0
C222 C 0.00594 0.50679 0.81934 0.0
C223 C 0.98464 0.49999 0.79253 0.0
P224 P 0.60117 0.43099 0.75892 0.0
H225 H 0.59322 0.3459 0.72731 0.0
H226 H 0.51927 0.2741 0.70396 0.0
H227 H 0.41519 0.33373 0.72536 0.0
H228 H 0.48996 0.4059 0.74902 0.0
H229 H 0.70133 0.45622 0.73157 0.0
H230 H 0.76493 0.53044 0.70524 0.0
H231 H 0.65593 0.58955 0.70536 0.0
H232 H 0.59058 0.5131 0.73108 0.0
H233 H 0.5253 0.37435 0.80266 0.0
H234 H 0.62534 0.53325 0.77966 0.0
O235 O 0.63732 0.40727 0.77289 0.0
H236 H 0.49008 0.40023 0.84188 0.0
H237 H 0.58805 0.55873 0.81785 0.0
C238 C 0.54668 0.38041 0.74037 0.0
C239 C 0.55455 0.34361 0.72696 0.0
C240 C 0.51224 0.30276 0.71342 0.0
C241 C 0.46138 0.29833 0.71276 0.0
C242 C 0.45384 0.33599 0.72571 0.0
C243 C 0.49648 0.37716 0.73921 0.0
C244 C 0.64255 0.48071 0.7346 0.0
C245 C 0.69046 0.48452 0.72547 0.0
C246 C 0.72674 0.52688 0.70995 0.0
C247 C 0.71578 0.56627 0.70342 0.0
C248 C 0.66542 0.55978 0.71023 0.0
C249 C 0.62848 0.51659 0.72522 0.0
C250 C 0.57633 0.45164 0.7875 0.0
C251 C 0.53918 0.41469 0.8058 0.0
C252 C 0.51927 0.4294 0.82821 0.0
C253 C 0.53595 0.48131 0.83247 0.0
C254 C 0.57405 0.5184 0.81458 0.0
C255 C 0.59488 0.50372 0.79254 0.0
P256 P 0.51887 0.04353 0.73116 0.0
H257 H 0.40665 0.99194 0.71523 0.0
H258 H 0.34351 0.02028 0.70417 0.0
H259 H 0.46745 0.17751 0.71354 0.0
H260 H 0.53198 0.14893 0.72518 0.0
H261 H 0.57037 0.98935 0.70926 0.0
H262 H 0.66105 0.01414 0.69695 0.0
H263 H 0.70782 0.17343 0.70624 0.0
H264 H 0.6151 0.14813 0.71987 0.0
H265 H 0.44872 0.04203 0.77595 0.0
H266 H 0.59355 0.0342 0.76896 0.0
O267 O 0.48484 0.98156 0.72268 0.0
H268 H 0.43864 0.01235 0.82414 0.0
H269 H 0.58302 0.00424 0.81703 0.0
C270 C 0.47534 0.06821 0.72002 0.0
C271 C 0.42143 0.03274 0.7143 0.0
C272 C 0.38483 0.04887 0.70799 0.0
C273 C 0.40096 0.10107 0.7066 0.0
C274 C 0.45449 0.13702 0.71309 0.0
C275 C 0.49141 0.12069 0.71983 0.0
C276 C 0.58468 0.06665 0.71531 0.0
C277 C 0.599 0.02988 0.70805 0.0
C278 C 0.65142 0.04405 0.70099 0.0
C279 C 0.6916 0.09565 0.70027 0.0
C280 C 0.67743 0.13329 0.70607 0.0
C281 C 0.62436 0.11882 0.71389 0.0
C282 C 0.52249 0.04141 0.76869 0.0
C283 C 0.47973 0.03633 0.78501 0.0
C284 C 0.47386 0.01928 0.81262 0.0
C285 C 0.51044 0.00668 0.82434 0.0
C286 C 0.55488 0.01468 0.80862 0.0
C287 C 0.56088 0.03191 0.78107 0.0
P288 P 0.81054 0.61209 0.96112 0.0
H289 H 0.76616 0.65825 0.99817 0.0
H290 H 0.67638 0.632 0.0135 0.0
H291 H 0.62123 0.48042 0.98157 0.0
H292 H 0.71221 0.50785 0.96426 0.0
H293 H 0.92562 0.66937 0.96835 0.0
H294 H 0.99322 0.64643 0.97912 0.0
H295 H 0.87215 0.48686 0.98258 0.0
H296 H 0.80298 0.51016 0.97179 0.0
H297 H 0.74752 0.6411 0.92618 0.0
H298 H 0.86054 0.58877 0.9137 0.0
O299 O 0.84211 0.67444 0.96883 0.0
H300 H 0.75936 0.67007 0.87784 0.0
H301 H 0.87184 0.61724 0.86526 0.0
C302 C 0.74682 0.58528 0.97974 0.0
C303 C 0.73574 0.61877 0.99491 0.0
C304 C 0.68404 0.60357 1.00416 0.0
C305 C 0.64187 0.55362 0.9998 0.0
C306 C 0.6533 0.51859 0.98634 0.0
C307 C 0.70531 0.5344 0.9762 0.0
C308 C 0.85841 0.59177 0.97045 0.0
C309 C 0.91276 0.62936 0.97196 0.0
C310 C 0.95182 0.61628 0.97796 0.0
C311 C 0.93783 0.56519 0.98287 0.0
C312 C 0.88378 0.52686 0.98 0.0
C313 C 0.84426 0.54009 0.97379 0.0
C314 C 0.80285 0.61248 0.92377 0.0
C315 C 0.77296 0.6336 0.91279 0.0
C316 C 0.77992 0.65039 0.88515 0.0
C317 C 0.81661 0.64599 0.86781 0.0
C318 C 0.84288 0.62058 0.87804 0.0
C319 C 0.83638 0.60433 0.90586 0.0
P320 P 0.49131 0.23731 0.92904 0.0
H321 H 0.5728 0.31623 0.96447 0.0
H322 H 0.57353 0.3838 0.99305 0.0
H323 H 0.40998 0.33216 0.96961 0.0
H324 H 0.40845 0.26346 0.94243 0.0
H325 H 0.44845 0.12858 0.91543 0.0
H326 H 0.44732 0.05783 0.94111 0.0
H327 H 0.52032 0.15843 1.01105 0.0
H328 H 0.51848 0.22714 0.98622 0.0
H329 H 0.49583 0.28369 0.87556 0.0
H330 H 0.37722 0.15918 0.92495 0.0
O331 O 0.55118 0.26239 0.91393 0.0
H332 H 0.42923 0.26661 0.83982 0.0
H333 H 0.31028 0.14063 0.88871 0.0
C334 C 0.49091 0.28537 0.95093 0.0
C335 C 0.53695 0.31918 0.96576 0.0
C336 C 0.53728 0.35755 0.98214 0.0
C337 C 0.49198 0.36337 0.9832 0.0
C338 C 0.44559 0.32873 0.96888 0.0
C339 C 0.44481 0.28955 0.95321 0.0
C340 C 0.48206 0.18292 0.94912 0.0
C341 C 0.4623 0.13472 0.93671 0.0
C342 C 0.46203 0.09432 0.95139 0.0
C343 C 0.48327 0.1021 0.97837 0.0
C344 C 0.50265 0.15044 0.99064 0.0
C345 C 0.50178 0.19023 0.97626 0.0
C346 C 0.44197 0.22135 0.90231 0.0
C347 C 0.45561 0.25199 0.87845 0.0
C348 C 0.41741 0.24226 0.85808 0.0
C349 C 0.36464 0.20173 0.86124 0.0
C350 C 0.35059 0.17208 0.88567 0.0
C351 C 0.38898 0.18207 0.90615 0.0
P352 P 0.81744 0.19003 0.96349 0.0
H353 H 0.80746 0.2406 0.01224 0.0
H354 H 0.85448 0.33005 0.02574 0.0
H355 H 0.91935 0.37365 0.94317 0.0
H356 H 0.87301 0.28378 0.9297 0.0
H357 H 0.77378 0.08768 0.98563 0.0
H358 H 0.68458 0.02313 1.00053 0.0
H359 H 0.62753 0.12937 0.9864 0.0
H360 H 0.71794 0.19483 0.97126 0.0
H361 H 0.90884 0.20424 0.93149 0.0
H362 H 0.74255 0.15275 0.91575 0.0
O363 O 0.86117 0.17995 0.98118 0.0
H364 H 0.9195 0.18286 0.88398 0.0
H365 H 0.75335 0.13148 0.86766 0.0
C366 C 0.83628 0.25549 0.96991 0.0
C367 C 0.82997 0.26955 0.99669 0.0
C368 C 0.85671 0.32098 1.00443 0.0
C369 C 0.89037 0.35908 0.9856 0.0
C370 C 0.89375 0.34507 0.95821 0.0
C371 C 0.867 0.29361 0.95043 0.0
C372 C 0.75244 0.14594 0.97732 0.0
C373 C 0.74265 0.0978 0.98637 0.0
C374 C 0.69187 0.06116 0.99523 0.0
C375 C 0.64982 0.07191 0.9953 0.0
C376 C 0.65988 0.12093 0.98742 0.0
C377 C 0.71113 0.15785 0.97835 0.0
C378 C 0.82455 0.17869 0.92737 0.0
C379 C 0.87465 0.18867 0.91773 0.0
C380 C 0.88088 0.1769 0.89051 0.0
C381 C 0.83726 0.1555 0.87222 0.0
C382 C 0.78769 0.14837 0.88133 0.0
C383 C 0.78138 0.15996 0.90881 0.0
P384 P 0.6439 0.80439 0.07005 0.0
H385 H 0.62004 0.75641 0.01624 0.0
H386 H 0.56862 0.66797 1.00137 0.0
H387 H 0.52539 0.61886 0.08621 0.0
H388 H 0.57732 0.70849 0.10132 0.0
H389 H 0.6743 0.91114 0.07763 0.0
H390 H 0.63537 0.96238 0.06158 0.0
H391 H 0.50225 0.82702 0.02639 0.0
H392 H 0.5402 0.77569 0.04336 0.0
H393 H 0.70998 0.77021 0.09727 0.0
H394 H 0.6248 0.84802 0.12101 0.0
O395 O 0.69899 0.82962 0.05053 0.0
H396 H 0.7461 0.78069 0.14411 0.0
H397 H 0.66255 0.86068 0.16768 0.0
C398 C 0.60333 0.73875 0.05987 0.0
C399 C 0.59895 0.72672 0.03165 0.0
C400 C 0.56833 0.67614 0.02303 0.0
C401 C 0.54161 0.63662 0.04244 0.0
C402 C 0.54499 0.64884 0.07077 0.0
C403 C 0.57511 0.69982 0.07942 0.0
C404 C 0.61015 0.83956 0.06203 0.0
C405 C 0.63614 0.89231 0.06703 0.0
C406 C 0.61394 0.92157 0.05767 0.0
C407 C 0.56591 0.89871 0.04253 0.0
C408 C 0.53954 0.84572 0.03779 0.0
C409 C 0.5613 0.8163 0.04764 0.0
C410 C 0.66547 0.80903 0.10554 0.0
C411 C 0.69913 0.78965 0.11262 0.0
C412 C 0.72009 0.79605 0.13937 0.0
C413 C 0.70801 0.8223 0.15962 0.0
C414 C 0.6726 0.84013 0.15268 0.0
C415 C 0.65131 0.83333 0.12587 0.0
P416 P 0.26783 0.76433 0.09225 0.0
H417 H 0.25989 0.67924 0.06065 0.0
H418 H 0.18594 0.60744 0.03729 0.0
H419 H 0.08185 0.66706 0.05869 0.0
H420 H 0.15663 0.73923 0.08236 0.0
H421 H 0.36799 0.78956 0.0649 0.0
H422 H 0.4316 0.86377 0.03857 0.0
H423 H 0.32259 0.92288 0.03869 0.0
H424 H 0.25725 0.84644 0.06441 0.0
H425 H 0.19196 0.70768 0.13599 0.0
H426 H 0.29201 0.86659 0.113 0.0
O427 O 0.30399 0.74061 0.10622 0.0
H428 H 0.15674 0.73357 0.17521 0.0
H429 H 0.25472 0.89207 0.15118 0.0
C430 C 0.21334 0.71374 0.07371 0.0
C431 C 0.22122 0.67695 0.06029 0.0
C432 C 0.17891 0.6361 0.04676 0.0
C433 C 0.12805 0.63166 0.0461 0.0
C434 C 0.1205 0.66933 0.05904 0.0
C435 C 0.16314 0.71049 0.07254 0.0
C436 C 0.30922 0.81404 0.06793 0.0
C437 C 0.35712 0.81785 0.05881 0.0
C438 C 0.39341 0.86022 0.04329 0.0
C439 C 0.38244 0.89961 0.03676 0.0
C440 C 0.33208 0.89312 0.04356 0.0
C441 C 0.29514 0.84992 0.05855 0.0
C442 C 0.24299 0.78497 0.12083 0.0
C443 C 0.20584 0.74803 0.13913 0.0
C444 C 0.18593 0.76274 0.16154 0.0
C445 C 0.20262 0.81465 0.1658 0.0
C446 C 0.24071 0.85173 0.14791 0.0
C447 C 0.26154 0.83706 0.12588 0.0
P448 P 0.18554 0.37687 0.06449 0.0
H449 H 0.07332 0.32527 0.04857 0.0
H450 H 0.01018 0.35361 0.03751 0.0
H451 H 0.13412 0.51084 0.04688 0.0
H452 H 0.19865 0.48226 0.05851 0.0
H453 H 0.23704 0.32268 0.04259 0.0
H454 H 0.32772 0.34747 0.03028 0.0
H455 H 0.37449 0.50676 0.03957 0.0
H456 H 0.28177 0.48146 0.05321 0.0
H457 H 0.11539 0.37536 0.10929 0.0
H458 H 0.26022 0.36753 0.1023 0.0
O459 O 0.15151 0.3149 0.05601 0.0
H460 H 0.10532 0.34568 0.15748 0.0
H461 H 0.24969 0.33757 0.15036 0.0
C462 C 0.14201 0.40155 0.05335 0.0
C463 C 0.0881 0.36607 0.04764 0.0
C464 C 0.0515 0.3822 0.04133 0.0
C465 C 0.06763 0.4344 0.03994 0.0
C466 C 0.12116 0.47035 0.04642 0.0
C467 C 0.15808 0.45403 0.05316 0.0
C468 C 0.25135 0.39998 0.04864 0.0
C469 C 0.26567 0.36321 0.04138 0.0
C470 C 0.31809 0.37738 0.03432 0.0
C471 C 0.35827 0.42898 0.0336 0.0
C472 C 0.3441 0.46663 0.03941 0.0
C473 C 0.29103 0.45215 0.04723 0.0
C474 C 0.18916 0.37475 0.10203 0.0
C475 C 0.1464 0.36966 0.11834 0.0
C476 C 0.14053 0.35262 0.14595 0.0
C477 C 0.17711 0.34002 0.15768 0.0
C478 C 0.22156 0.34802 0.14195 0.0
C479 C 0.22755 0.36525 0.11441 0.0
P480 P 0.47721 0.94542 0.29445 0.0
H481 H 0.43282 0.99159 0.3315 0.0
H482 H 0.34304 0.96534 0.34684 0.0
H483 H 0.28789 0.81375 0.3149 0.0
H484 H 0.37887 0.84118 0.29759 0.0
H485 H 0.59228 0.00271 0.30168 0.0
H486 H 0.65989 0.97976 0.31246 0.0
H487 H 0.53882 0.8202 0.31591 0.0
H488 H 0.46965 0.8435 0.30513 0.0
H489 H 0.41419 0.97444 0.25951 0.0
H490 H 0.52721 0.9221 0.24703 0.0
O491 O 0.50878 0.00777 0.30216 0.0
H492 H 0.42603 0.00341 0.21118 0.0
H493 H 0.5385 0.95057 0.19859 0.0
C494 C 0.41349 0.91862 0.31307 0.0
C495 C 0.40241 0.95211 0.32824 0.0
C496 C 0.35071 0.9369 0.33749 0.0
C497 C 0.30854 0.88696 0.33313 0.0
C498 C 0.31997 0.85192 0.31968 0.0
C499 C 0.37198 0.86774 0.30954 0.0
C500 C 0.52508 0.92511 0.30378 0.0
C501 C 0.57942 0.9627 0.30529 0.0
C502 C 0.61848 0.94961 0.3113 0.0
C503 C 0.6045 0.89853 0.3162 0.0
C504 C 0.55044 0.8602 0.31333 0.0
C505 C 0.51093 0.87342 0.30713 0.0
C506 C 0.46951 0.94582 0.2571 0.0
C507 C 0.43963 0.96694 0.24612 0.0
C508 C 0.44659 0.98372 0.21848 0.0
C509 C 0.48328 0.97932 0.20114 0.0
C510 C 0.50954 0.95392 0.21137 0.0
C511 C 0.50304 0.93766 0.2392 0.0
P512 P 0.15798 0.57065 0.26238 0.0
H513 H 0.23946 0.64957 0.2978 0.0
H514 H 0.2402 0.71713 0.32639 0.0
H515 H 0.07664 0.6655 0.30295 0.0
H516 H 0.07511 0.5968 0.27576 0.0
H517 H 0.11512 0.46191 0.24877 0.0
H518 H 0.11399 0.39116 0.27444 0.0
H519 H 0.18699 0.49177 0.34438 0.0
H520 H 0.18514 0.56047 0.31955 0.0
H521 H 0.1625 0.61702 0.20889 0.0
H522 H 0.04389 0.49252 0.25828 0.0
O523 O 0.21784 0.59573 0.24727 0.0
H524 H 0.09589 0.59994 0.17315 0.0
H525 H 0.97695 0.47396 0.22204 0.0
C526 C 0.15758 0.61871 0.28427 0.0
C527 C 0.20362 0.65251 0.2991 0.0
C528 C 0.20395 0.69088 0.31548 0.0
C529 C 0.15865 0.6967 0.31654 0.0
C530 C 0.11226 0.66207 0.30221 0.0
C531 C 0.11148 0.62288 0.28654 0.0
C532 C 0.14873 0.51625 0.28245 0.0
C533 C 0.12897 0.46806 0.27004 0.0
C534 C 0.12869 0.42766 0.28472 0.0
C535 C 0.14993 0.43543 0.31171 0.0
C536 C 0.16932 0.48378 0.32397 0.0
C537 C 0.16845 0.52356 0.30959 0.0
C538 C 0.10864 0.55468 0.23565 0.0
C539 C 0.12228 0.58532 0.21179 0.0
C540 C 0.08408 0.57559 0.19141 0.0
C541 C 0.0313 0.53506 0.19458 0.0
C542 C 0.01725 0.50541 0.219 0.0
C543 C 0.05564 0.5154 0.23949 0.0
P544 P 0.48411 0.52336 0.29682 0.0
H545 H 0.47413 0.57393 0.34557 0.0
H546 H 0.52115 0.66339 0.35907 0.0
H547 H 0.58601 0.70698 0.2765 0.0
H548 H 0.53968 0.61712 0.26303 0.0
H549 H 0.44044 0.42102 0.31896 0.0
H550 H 0.35125 0.35647 0.33386 0.0
H551 H 0.2942 0.46271 0.31973 0.0
H552 H 0.38461 0.52817 0.3046 0.0
H553 H 0.57551 0.53758 0.26482 0.0
H554 H 0.40922 0.48608 0.24908 0.0
O555 O 0.52784 0.51329 0.31452 0.0
H556 H 0.58617 0.5162 0.21731 0.0
H557 H 0.42002 0.46482 0.201 0.0
C558 C 0.50294 0.58882 0.30325 0.0
C559 C 0.49664 0.60289 0.33002 0.0
C560 C 0.52338 0.65432 0.33777 0.0
C561 C 0.55704 0.69241 0.31893 0.0
C562 C 0.56042 0.67841 0.29154 0.0
C563 C 0.53366 0.62695 0.28377 0.0
C564 C 0.41911 0.47927 0.31066 0.0
C565 C 0.40931 0.43113 0.3197 0.0
C566 C 0.35854 0.39449 0.32856 0.0
C567 C 0.31649 0.40524 0.32863 0.0
C568 C 0.32654 0.45426 0.32076 0.0
C569 C 0.3778 0.49119 0.31169 0.0
C570 C 0.49122 0.51202 0.26071 0.0
C571 C 0.54132 0.52201 0.25106 0.0
C572 C 0.54755 0.51024 0.22384 0.0
C573 C 0.50393 0.48883 0.20555 0.0
C574 C 0.45436 0.4817 0.21466 0.0
C575 C 0.44804 0.49329 0.24215 0.0
Tb576 Tb 0.49695 0.95984 0.97938 0.0
C577 C 0.56754 0.14066 0.06058 0.0
C578 C 0.66349 0.1808 0.06511 0.0
C579 C 0.61941 0.23057 0.0731 0.0
C580 C 0.61358 0.13761 0.05911 0.0
C581 C 0.5697 0.18695 0.06795 0.0
C582 C 0.66612 0.22733 0.07182 0.0
C583 C 0.47328 0.14224 0.06719 0.0
N584 N 0.52023 0.09718 0.05633 0.0
C585 C 0.47316 0.09714 0.0602 0.0
C586 C 0.52173 0.18741 0.07091 0.0
Tb587 Tb 0.52433 0.02477 0.04607 0.0
N588 N 0.60892 0.09132 0.05385 0.0
C589 C 0.6526 0.0851 0.05596 0.0
C590 C 0.70889 0.17536 0.06535 0.0
C591 C 0.70329 0.1271 0.06103 0.0
H592 H 0.43517 0.06279 0.05758 0.0
H593 H 0.7379 0.12208 0.06185 0.0
H594 H 0.70378 0.26045 0.07706 0.0
H595 H 0.43594 0.14206 0.06983 0.0
H596 H 0.64886 0.04793 0.05322 0.0
H597 H 0.28333 0.87526 0.96907 0.0
H598 H 0.74806 0.20773 0.06967 0.0
H599 H 0.57786 0.91349 0.96563 0.0
H600 H 0.37516 0.94474 0.97768 0.0
H601 H 0.56977 0.83071 0.95354 0.0
H602 H 0.62211 0.26654 0.07888 0.0
H603 H 0.2661 0.78811 0.95818 0.0
H604 H 0.30361 0.73016 0.94786 0.0
H605 H 0.52146 0.22196 0.07663 0.0
H606 H 0.38089 0.71687 0.94552 0.0
N607 N 0.40976 0.89683 0.97389 0.0
C608 C 0.36829 0.90664 0.97375 0.0
C609 C 0.30645 0.81816 0.96268 0.0
C610 C 0.34931 0.80883 0.96168 0.0
C611 C 0.31604 0.86736 0.96872 0.0
C612 C 0.40098 0.84937 0.96769 0.0
H613 H 0.48068 0.75434 0.94788 0.0
N614 N 0.49371 0.88406 0.96867 0.0
C615 C 0.53419 0.83349 0.9568 0.0
C616 C 0.44458 0.84259 0.96525 0.0
C617 C 0.53851 0.88049 0.96367 0.0
C618 C 0.48378 0.79036 0.95375 0.0
C619 C 0.43815 0.79477 0.95733 0.0
O620 O 0.54235 0.98262 0.94245 0.0
O621 O 0.55246 0.02332 1.00455 0.0
O622 O 0.52067 0.07573 0.01515 0.0
O623 O 0.46757 0.01527 0.9821 0.0
O624 O 0.58302 0.99344 0.97659 0.0
O625 O 0.46607 0.97854 0.94439 0.0
O626 O 0.47502 -0.00295 0.08148 0.0
O627 O 0.47149 0.95969 0.02111 0.0
O628 O 0.51174 0.91371 1.00974 0.0
O629 O 0.56023 0.97536 0.04363 0.0
O630 O 0.43673 0.98783 0.04604 0.0
O631 O 0.55502 0.00995 0.08264 0.0
C632 C 0.59559 0.0278 0.99523 0.0
C633 C 0.49371 0.96511 0.90053 0.0
C634 C 0.4963 0.97515 0.85 0.0
C635 C 0.50785 -0.00307 0.87675 0.0
C636 C 0.47048 0.92164 0.84733 0.0
C637 C 0.46769 0.91178 0.89724 0.0
C638 C 0.45619 0.89024 0.8708 0.0
C639 C 0.48999 0.06212 0.9928 0.0
C640 C 0.50647 0.98767 0.9286 0.0
C641 C 0.38672 0.75378 0.95197 0.0
C642 C 0.34253 0.76111 0.95368 0.0
C643 C 0.42646 0.95113 0.02925 0.0
C644 C 0.51826 0.01946 0.12487 0.0
C645 C 0.49902 0.98808 0.14885 0.0
C646 C 0.50181 0.01014 0.17509 0.0
C647 C 0.52446 0.06359 0.17698 0.0
C648 C 0.54146 0.07268 0.12762 0.0
C649 C 0.54442 0.09454 0.15345 0.0
C650 C 0.54415 0.9304 0.03159 0.0
C651 C 0.51174 -0.00336 0.09697 0.0
H652 H 0.52789 0.03822 0.87903 0.0
H653 H 0.46122 0.90415 0.82698 0.0
H654 H 0.45631 0.88674 0.91505 0.0
H655 H 0.43616 0.84901 0.8685 0.0
H656 H 0.48123 0.94688 0.14705 0.0
H657 H 0.52756 0.08156 0.19686 0.0
H658 H 0.55705 0.09745 0.1098 0.0
H659 H 0.56224 0.13569 0.15525 0.0
Tb660 Tb 0.04452 0.51227 0.98138 0.0
C661 C 0.84282 0.45446 0.04838 0.0
C662 C 0.82873 0.52599 0.0408 0.0
C663 C 0.75263 0.43972 0.04365 0.0
C664 C 0.86312 0.50556 0.04354 0.0
C665 C 0.78738 0.42112 0.05019 0.0
C666 C 0.77332 0.49244 0.03924 0.0
C667 C 0.80609 0.35657 0.06805 0.0
N668 N 0.87803 0.43835 0.05367 0.0
C669 C 0.86082 0.39115 0.06523 0.0
C670 C 0.76902 0.37104 0.05957 0.0
Tb671 Tb 0.96597 0.49398 0.04379 0.0
N672 N 0.91689 0.53566 0.04353 0.0
C673 C 0.93892 0.58785 0.0443 0.0
C674 C 0.85116 0.57922 0.04007 0.0
C675 C 0.90648 0.61028 0.04257 0.0
H676 H 0.88917 0.37914 0.07091 0.0
H677 H 0.92433 0.65157 0.04253 0.0
H678 H 0.74625 0.50699 0.03551 0.0
H679 H 0.79295 0.31868 0.0763 0.0
H680 H 0.9815 0.61286 0.04554 0.0
H681 H 0.08472 0.35439 0.97666 0.0
H682 H 0.8262 0.59659 0.03812 0.0
H683 H 0.12633 0.63621 0.96929 0.0
H684 H 0.02837 0.39416 0.97369 0.0
H685 H 0.22298 0.69704 0.97353 0.0
H686 H 0.70985 0.41411 0.04313 0.0
H687 H 0.18139 0.40757 0.98656 0.0
H688 H 0.26012 0.49545 0.99608 0.0
H689 H 0.72662 0.34434 0.06148 0.0
H690 H 0.29876 0.58934 0.99391 0.0
N691 N 0.09275 0.47027 0.9803 0.0
C692 C 0.07069 0.41846 0.97697 0.0
C693 C 0.15716 0.42561 0.98418 0.0
C694 C 0.1798 0.47876 0.98625 0.0
C695 C 0.10259 0.3955 0.97868 0.0
C696 C 0.1464 0.50012 0.98302 0.0
H697 H 0.28538 0.66496 0.98468 0.0
N698 N 0.13393 0.57072 0.97804 0.0
C699 C 0.20818 0.65639 0.97568 0.0
C700 C 0.16785 0.55236 0.98196 0.0
C701 C 0.15344 0.62185 0.97313 0.0
C702 C 0.24316 0.63819 0.98205 0.0
C703 C 0.22319 0.58542 0.98477 0.0
O704 O 0.04876 0.54663 0.94268 0.0
O705 O 0.97737 0.51412 1.00022 0.0
O706 O 0.91387 0.43106 0.01601 0.0
O707 O 0.97607 0.43396 0.98346 0.0
O708 O 0.02391 0.57251 0.97368 0.0
O709 O 0.01958 0.46536 0.94605 0.0
O710 O 0.97546 0.46785 0.08273 0.0
O711 O 0.02923 0.48774 0.02379 0.0
O712 O 0.09547 0.56115 0.01458 0.0
O713 O 0.03365 0.57296 0.03901 0.0
O714 O 0.98618 0.43363 0.05285 0.0
O715 O 0.99494 0.54629 0.07688 0.0
C716 C 0.98119 0.55328 0.98847 0.0
C717 C 0.06293 0.50628 0.90448 0.0
C718 C 0.06699 0.49895 0.85416 0.0
C719 C 0.03827 0.49627 0.87833 0.0
C720 C 0.12091 0.51185 0.85675 0.0
C721 C 0.11652 0.51878 0.90657 0.0
C722 C 0.14531 0.52152 0.88278 0.0
C723 C 0.928 0.41139 0.9952 0.0
C724 C 0.0322 0.50381 0.92926 0.0
C725 C 0.25627 0.56462 0.99063 0.0
C726 C 0.23439 0.51123 0.99166 0.0
C727 C 0.02594 0.44916 0.03608 0.0
C728 C 0.97296 0.51196 0.12222 0.0
C729 C 0.00858 0.5234 0.14425 0.0
C730 C 0.99223 0.52263 0.17173 0.0
C731 C 0.93896 0.50966 0.17687 0.0
C732 C 0.92004 0.49938 0.12742 0.0
C733 C 0.90318 0.49825 0.15477 0.0
C734 C 0.08359 0.58727 0.03226 0.0
C735 C 0.99272 0.51218 0.09431 0.0
H736 H 0.99659 0.48595 0.87692 0.0
H737 H 0.14459 0.51524 0.83861 0.0
H738 H 0.13615 0.5266 0.92648 0.0
H739 H 0.18679 0.53148 0.8845 0.0
H740 H 0.04915 0.53207 0.13993 0.0
H741 H 0.92521 0.50894 0.19785 0.0
H742 H 0.89201 0.49023 0.11049 0.0
H743 H 0.86231 0.48849 0.15886 0.0
Tb744 Tb 0.5148 0.47454 0.04994 0.0
C745 C 0.41745 0.55651 0.96122 0.0
C746 C 0.32663 0.4881 0.95492 0.0
C747 C 0.35135 0.57471 0.94086 0.0
C748 C 0.37936 0.50582 0.96428 0.0
C749 C 0.40424 0.59148 0.94893 0.0
C750 C 0.3128 0.5229 0.94343 0.0
C751 C 0.49818 0.6537 0.9474 0.0
N752 N 0.46884 0.5699 0.96666 0.0
C753 C 0.50927 0.61692 0.95842 0.0
C754 C 0.44528 0.64105 0.9429 0.0
Tb755 Tb 0.48535 0.50707 0.98258 0.0
N756 N 0.39552 0.47296 0.97332 0.0
C757 C 0.36062 0.42123 0.97241 0.0
C758 C 0.29014 0.43558 0.95591 0.0
C759 C 0.30734 0.40197 0.96457 0.0
H760 H 0.55038 0.62621 0.96017 0.0
H761 H 0.27988 0.36107 0.96468 0.0
H762 H 0.27266 0.50991 0.9359 0.0
H763 H 0.53049 0.6912 0.94157 0.0
H764 H 0.37308 0.39411 0.97805 0.0
H765 H 0.71575 0.62268 0.07532 0.0
H766 H 0.24927 0.4205 0.94903 0.0
H767 H 0.45483 0.34748 0.0533 0.0
H768 H 0.62434 0.58939 0.05848 0.0
H769 H 0.47785 0.28231 0.06829 0.0
H770 H 0.34044 0.60096 0.93139 0.0
H771 H 0.74651 0.56302 0.09043 0.0
H772 H 0.72467 0.47258 0.09974 0.0
H773 H 0.43667 0.66864 0.93318 0.0
H774 H 0.66051 0.38016 0.09727 0.0
N775 N 0.60336 0.5107 0.06157 0.0
C776 C 0.63702 0.5624 0.06406 0.0
C777 C 0.70641 0.54797 0.08234 0.0
C778 C 0.67127 0.49517 0.08084 0.0
C779 C 0.68918 0.58171 0.07387 0.0
C780 C 0.61978 0.47752 0.0697 0.0
H781 H 0.56913 0.30936 0.08524 0.0
N782 N 0.53362 0.41038 0.0591 0.0
C783 C 0.50807 0.32247 0.06826 0.0
C784 C 0.5838 0.42562 0.06832 0.0
C785 C 0.49526 0.3595 0.05967 0.0
C786 C 0.55964 0.33774 0.07763 0.0
C787 C 0.59798 0.38979 0.07816 0.0
O788 O 0.46331 0.43823 0.08372 0.0
O789 O 0.45592 0.48128 0.02446 0.0
O790 O 0.49327 0.56874 1.00953 0.0
O791 O 0.53278 0.55462 0.04886 0.0
O792 O 0.43049 0.41589 0.04749 0.0
O793 O 0.53105 0.51389 0.08818 0.0
O794 O 0.53682 0.53169 0.94796 0.0
O795 O 0.54447 0.50468 1.00922 0.0
O796 O 0.52636 0.42843 0.01871 0.0
O797 O 0.46469 0.4263 0.98727 0.0
O798 O 0.57068 0.56505 0.98296 0.0
O799 O 0.46496 0.45869 0.94774 0.0
C800 C 0.41463 0.44001 0.03156 0.0
C801 C 0.50303 0.4601 0.12821 0.0
C802 C 0.50889 0.46715 0.17887 0.0
C803 C 0.49807 0.48231 0.153 0.0
C804 C 0.5247 0.4299 0.17965 0.0
C805 C 0.51721 0.42178 0.12989 0.0
C806 C 0.52851 0.40724 0.15532 0.0
C807 C 0.51892 0.58304 0.03364 0.0
C808 C 0.49148 0.47538 0.10091 0.0
C809 C 0.64901 0.4071 0.08942 0.0
C810 C 0.68551 0.45971 0.09085 0.0
C811 C 0.58638 0.54485 1.0016 0.0
C812 C 0.49672 0.50041 0.90455 0.0
C813 C 0.51837 0.48531 0.88295 0.0
C814 C 0.5129 0.49673 0.85524 0.0
C815 C 0.48525 0.523 0.84927 0.0
C816 C 0.46821 0.52567 0.89818 0.0
C817 C 0.46261 0.53697 0.87069 0.0
C818 C 0.49408 0.40749 0.99732 0.0
C819 C 0.50625 0.49127 0.93346 0.0
H820 H 0.48612 0.51123 0.15217 0.0
H821 H 0.53308 0.41754 0.19925 0.0
H822 H 0.51864 0.40216 0.1117 0.0
H823 H 0.53969 0.37783 0.15618 0.0
H824 H 0.54038 0.46567 0.88769 0.0
H825 H 0.48059 0.53205 0.82802 0.0
H826 H 0.45062 0.53698 0.91431 0.0
H827 H 0.44083 0.55676 0.86598 0.0
Tb828 Tb 0.16362 0.29317 0.31271 0.0
C829 C 0.23421 0.47399 0.39391 0.0
C830 C 0.33016 0.51413 0.39844 0.0
C831 C 0.28608 0.56391 0.40643 0.0
C832 C 0.28025 0.47094 0.39244 0.0
C833 C 0.23637 0.52028 0.40129 0.0
C834 C 0.33278 0.56067 0.40516 0.0
C835 C 0.13995 0.47557 0.40053 0.0
N836 N 0.18689 0.43052 0.38966 0.0
C837 C 0.13983 0.43047 0.39353 0.0
C838 C 0.1884 0.52074 0.40425 0.0
Tb839 Tb 0.191 0.3581 0.3794 0.0
N840 N 0.27558 0.42465 0.38718 0.0
C841 C 0.31927 0.41843 0.3893 0.0
C842 C 0.37556 0.50869 0.39868 0.0
C843 C 0.36996 0.46043 0.39436 0.0
H844 H 0.10183 0.39613 0.39091 0.0
H845 H 0.40457 0.45541 0.39519 0.0
H846 H 0.37045 0.59379 0.41039 0.0
H847 H 0.10261 0.4754 0.40317 0.0
H848 H 0.31553 0.38126 0.38655 0.0
H849 H 0.94999 0.2086 0.30241 0.0
H850 H 0.41473 0.54106 0.403 0.0
H851 H 0.24453 0.24682 0.29896 0.0
H852 H 0.04183 0.27807 0.31102 0.0
H853 H 0.23644 0.16405 0.28687 0.0
H854 H 0.28878 0.59987 0.41221 0.0
H855 H 0.93277 0.12144 0.29151 0.0
H856 H 0.97028 0.06349 0.2812 0.0
H857 H 0.18813 0.55529 0.40997 0.0
H858 H 0.04756 0.0502 0.27885 0.0
N859 N 0.07643 0.23017 0.30723 0.0
C860 C 0.03496 0.23998 0.30708 0.0
C861 C 0.97312 0.1515 0.29602 0.0
C862 C 0.01598 0.14216 0.29501 0.0
C863 C 0.98271 0.20069 0.30205 0.0
C864 C 0.06766 0.1827 0.30103 0.0
H865 H 0.14735 0.08768 0.28121 0.0
N866 N 0.16038 0.21739 0.30201 0.0
C867 C 0.20086 0.16682 0.29013 0.0
C868 C 0.11125 0.17593 0.29858 0.0
C869 C 0.20518 0.21382 0.297 0.0
C870 C 0.15045 0.12369 0.28708 0.0
C871 C 0.10482 0.12811 0.29067 0.0
O872 O 0.20902 0.31596 0.27578 0.0
O873 O 0.21913 0.35666 0.33789 0.0
O874 O 0.18733 0.40907 0.34848 0.0
O875 O 0.13424 0.34861 0.31543 0.0
O876 O 0.24969 0.32677 0.30993 0.0
O877 O 0.13274 0.31188 0.27772 0.0
O878 O 0.14168 0.33039 0.41481 0.0
O879 O 0.13816 0.29302 0.35445 0.0
O880 O 0.17841 0.24704 0.34307 0.0
O881 O 0.2269 0.3087 0.37696 0.0
O882 O 0.1034 0.32116 0.37938 0.0
O883 O 0.22169 0.34329 0.41597 0.0
C884 C 0.26226 0.36113 0.32856 0.0
C885 C 0.16038 0.29844 0.23387 0.0
C886 C 0.16297 0.30849 0.18334 0.0
C887 C 0.17452 0.33027 0.21009 0.0
C888 C 0.13715 0.25498 0.18067 0.0
C889 C 0.13437 0.24511 0.23057 0.0
C890 C 0.12287 0.22357 0.20414 0.0
C891 C 0.15665 0.39545 0.32613 0.0
C892 C 0.17314 0.321 0.26193 0.0
C893 C 0.05339 0.08711 0.2853 0.0
C894 C 0.0092 0.09445 0.28701 0.0
C895 C 0.09313 0.28446 0.36258 0.0
C896 C 0.18493 0.35279 0.4582 0.0
C897 C 0.16569 0.32141 0.48218 0.0
C898 C 0.16848 0.34347 0.50843 0.0
C899 C 0.19113 0.39692 0.51031 0.0
C900 C 0.20813 0.40602 0.46095 0.0
C901 C 0.21109 0.42787 0.48679 0.0
C902 C 0.21082 0.26374 0.36493 0.0
C903 C 0.17841 0.32997 0.4303 0.0
H904 H 0.19456 0.37155 0.21236 0.0
H905 H 0.1279 0.23748 0.16031 0.0
H906 H 0.12299 0.22007 0.24838 0.0
H907 H 0.10284 0.18235 0.20184 0.0
H908 H 0.1479 0.28021 0.48038 0.0
H909 H 0.19423 0.41489 0.53019 0.0
H910 H 0.22372 0.43078 0.44314 0.0
H911 H 0.2289 0.46903 0.48858 0.0
Tb912 Tb 0.71118 0.8456 0.31472 0.0
C913 C 0.50949 0.7878 0.38171 0.0
C914 C 0.4954 0.85932 0.37413 0.0
C915 C 0.4193 0.77305 0.37698 0.0
C916 C 0.52978 0.83889 0.37687 0.0
C917 C 0.45405 0.75446 0.38352 0.0
C918 C 0.43999 0.82578 0.37258 0.0
C919 C 0.47275 0.68991 0.40138 0.0
N920 N 0.5447 0.77168 0.387 0.0
C921 C 0.52749 0.72449 0.39856 0.0
C922 C 0.43569 0.70438 0.3929 0.0
Tb923 Tb 0.63264 0.82732 0.37712 0.0
N924 N 0.58356 0.86899 0.37687 0.0
C925 C 0.60558 0.92119 0.37763 0.0
C926 C 0.51783 0.91255 0.37341 0.0
C927 C 0.57314 0.94362 0.3759 0.0
H928 H 0.55583 0.71248 0.40425 0.0
H929 H 0.59099 0.98491 0.37587 0.0
H930 H 0.41291 0.84032 0.36884 0.0
H931 H 0.45961 0.65202 0.40963 0.0
H932 H 0.64817 0.94619 0.37887 0.0
H933 H 0.75139 0.68772 0.30999 0.0
H934 H 0.49287 0.92993 0.37146 0.0
H935 H 0.793 0.96955 0.30262 0.0
H936 H 0.69503 0.72749 0.30702 0.0
H937 H 0.88965 0.03037 0.30686 0.0
H938 H 0.37651 0.74745 0.37646 0.0
H939 H 0.84805 0.7409 0.31989 0.0
H940 H 0.92678 0.82879 0.32942 0.0
H941 H 0.39329 0.67767 0.39481 0.0
H942 H 0.96542 0.92267 0.32724 0.0
N943 N 0.75941 0.8036 0.31363 0.0
C944 C 0.73735 0.7518 0.3103 0.0
C945 C 0.82383 0.75895 0.31751 0.0
C946 C 0.84647 0.8121 0.31959 0.0
C947 C 0.76925 0.72883 0.31202 0.0
C948 C 0.81307 0.83345 0.31635 0.0
H949 H 0.95204 -0.0017 0.31801 0.0
N950 N 0.8006 0.90406 0.31137 0.0
C951 C 0.87485 0.98973 0.30902 0.0
C952 C 0.83451 0.88569 0.3153 0.0
C953 C 0.82011 0.95519 0.30647 0.0
C954 C 0.90983 0.97152 0.31538 0.0
C955 C 0.88986 0.91875 0.3181 0.0
O956 O 0.71543 0.87997 0.27601 0.0
O957 O 0.64404 0.84746 0.33356 0.0
O958 O 0.58053 0.76439 0.34935 0.0
O959 O 0.64273 0.7673 0.3168 0.0
O960 O 0.69058 0.90584 0.30701 0.0
O961 O 0.68625 0.7987 0.27938 0.0
O962 O 0.64213 0.80118 0.41606 0.0
O963 O 0.6959 0.82107 0.35712 0.0
O964 O 0.76214 0.89448 0.34791 0.0
O965 O 0.70032 0.9063 0.37234 0.0
O966 O 0.65284 0.76697 0.38618 0.0
O967 O 0.66161 0.87962 0.41022 0.0
C968 C 0.64785 0.88662 0.3218 0.0
C969 C 0.7296 0.83962 0.23781 0.0
C970 C 0.73366 0.83229 0.1875 0.0
C971 C 0.70493 0.82961 0.21166 0.0
C972 C 0.78758 0.84519 0.19008 0.0
C973 C 0.78319 0.85212 0.2399 0.0
C974 C 0.81197 0.85486 0.21611 0.0
C975 C 0.59466 0.74472 0.32854 0.0
C976 C 0.69887 0.83715 0.26259 0.0
C977 C 0.92293 0.89795 0.32396 0.0
C978 C 0.90105 0.84456 0.32499 0.0
C979 C 0.69261 0.7825 0.36942 0.0
C980 C 0.63962 0.8453 0.45555 0.0
C981 C 0.67525 0.85673 0.47758 0.0
C982 C 0.6589 0.85597 0.50506 0.0
C983 C 0.60563 0.84299 0.5102 0.0
C984 C 0.58671 0.83271 0.46075 0.0
C985 C 0.56985 0.83159 0.4881 0.0
C986 C 0.75025 0.92061 0.3656 0.0
C987 C 0.65939 0.84552 0.42764 0.0
H988 H 0.66326 0.81929 0.21025 0.0
H989 H 0.81125 0.84858 0.17194 0.0
H990 H 0.80281 0.85994 0.25982 0.0
H991 H 0.85345 0.86482 0.21783 0.0
H992 H 0.71581 0.8654 0.47326 0.0
H993 H 0.59187 0.84228 0.53119 0.0
H994 H 0.55868 0.82357 0.44382 0.0
H995 H 0.52897 0.82183 0.49219 0.0
Tb996 Tb 0.18147 0.80787 0.38328 0.0
C997 C 0.08412 0.88985 0.29456 0.0
C998 C 0.99329 0.82143 0.28825 0.0
C999 C 0.01802 0.90805 0.2742 0.0
C1000 C 0.04602 0.83916 0.29762 0.0
C1001 C 0.0709 0.92481 0.28227 0.0
C1002 C 0.97946 0.85623 0.27676 0.0
C1003 C 0.16484 0.98704 0.28074 0.0
N1004 N 0.1355 0.90324 0.29999 0.0
C1005 C 0.17594 0.95026 0.29176 0.0
C1006 C 0.11195 0.97438 0.27624 0.0
Tb1007 Tb 0.15201 0.84041 0.31591 0.0
N1008 N 0.06218 0.8063 0.30665 0.0
C1009 C 0.02728 0.75457 0.30574 0.0
C1010 C 0.9568 0.76892 0.28925 0.0
C1011 C 0.974 0.73531 0.29791 0.0
H1012 H 0.21704 0.95955 0.29351 0.0
H1013 H 0.94654 0.6944 0.29801 0.0
H1014 H 0.93933 0.84325 0.26924 0.0
H1015 H 0.19715 0.02454 0.27491 0.0
H1016 H 0.03975 0.72745 0.31138 0.0
H1017 H 0.38242 0.95601 0.40865 0.0
H1018 H 0.91594 0.75383 0.28236 0.0
H1019 H 0.12149 0.68081 0.38663 0.0
H1020 H 0.29101 0.92273 0.39181 0.0
H1021 H 0.14451 0.61564 0.40163 0.0
H1022 H 0.00711 0.93429 0.26473 0.0
H1023 H 0.41318 0.89636 0.42376 0.0
H1024 H 0.39133 0.80591 0.43307 0.0
H1025 H 0.10333 0.00197 0.26651 0.0
H1026 H 0.32717 0.7135 0.43061 0.0
N1027 N 0.27002 0.84403 0.3949 0.0
C1028 C 0.30369 0.89573 0.39739 0.0
C1029 C 0.37307 0.8813 0.41568 0.0
C1030 C 0.33794 0.82851 0.41417 0.0
C1031 C 0.35584 0.91504 0.4072 0.0
C1032 C 0.28645 0.81085 0.40303 0.0
H1033 H 0.2358 0.64269 0.41857 0.0
N1034 N 0.20028 0.74372 0.39244 0.0
C1035 C 0.17474 0.65581 0.4016 0.0
C1036 C 0.25047 0.75896 0.40165 0.0
C1037 C 0.16192 0.69284 0.39301 0.0
C1038 C 0.2263 0.67108 0.41097 0.0
C1039 C 0.26465 0.72313 0.4115 0.0
O1040 O 0.12998 0.77156 0.41706 0.0
O1041 O 0.12259 0.81461 0.35779 0.0
O1042 O 0.15993 0.90208 0.34287 0.0
O1043 O 0.19944 0.88795 0.38219 0.0
O1044 O 0.09716 0.74922 0.38083 0.0
O1045 O 0.19772 0.84722 0.42151 0.0
O1046 O 0.20349 0.86502 0.2813 0.0
O1047 O 0.21114 0.83802 0.34255 0.0
O1048 O 0.19303 0.76176 0.35205 0.0
O1049 O 0.13136 0.75963 0.3206 0.0
O1050 O 0.23734 0.89839 0.31629 0.0
O1051 O 0.13162 0.79203 0.28107 0.0
C1052 C 0.0813 0.77334 0.3649 0.0
C1053 C 0.1697 0.79343 0.46155 0.0
C1054 C 0.17556 0.80048 0.51221 0.0
C1055 C 0.16473 0.81565 0.48633 0.0
C1056 C 0.19137 0.76323 0.51298 0.0
C1057 C 0.18387 0.75512 0.46322 0.0
C1058 C 0.19518 0.74058 0.48865 0.0
C1059 C 0.18559 0.91637 0.36697 0.0
C1060 C 0.15815 0.80871 0.43424 0.0
C1061 C 0.31568 0.74044 0.42275 0.0
C1062 C 0.35218 0.79304 0.42418 0.0
C1063 C 0.25305 0.87819 0.33494 0.0
C1064 C 0.16338 0.83374 0.23789 0.0
C1065 C 0.18504 0.81865 0.21628 0.0
C1066 C 0.17957 0.83006 0.18857 0.0
C1067 C 0.15191 0.85634 0.1826 0.0
C1068 C 0.13488 0.85901 0.23152 0.0
C1069 C 0.12927 0.8703 0.20402 0.0
C1070 C 0.16075 0.74082 0.33065 0.0
C1071 C 0.17291 0.8246 0.2668 0.0
H1072 H 0.15279 0.84456 0.4855 0.0
H1073 H 0.19975 0.75087 0.53258 0.0
H1074 H 0.18531 0.7355 0.44503 0.0
H1075 H 0.20636 0.71116 0.48951 0.0
H1076 H 0.20704 0.799 0.22103 0.0
H1077 H 0.14725 0.86539 0.16136 0.0
H1078 H 0.11728 0.87032 0.24765 0.0
H1079 H 0.10749 0.8901 0.19932 0.0
Tb1080 Tb 0.83029 0.6265 0.64604 0.0
C1081 C 0.90087 0.80732 0.72725 0.0
C1082 C 0.99683 0.84747 0.73177 0.0
C1083 C 0.95274 0.89724 0.73977 0.0
C1084 C 0.94691 0.80427 0.72578 0.0
C1085 C 0.90303 0.85361 0.73462 0.0
C1086 C 0.99945 0.894 0.73849 0.0
C1087 C 0.80661 0.8089 0.73386 0.0
N1088 N 0.85356 0.76385 0.72299 0.0
C1089 C 0.80649 0.76381 0.72687 0.0
C1090 C 0.85506 0.85407 0.73758 0.0
Tb1091 Tb 0.85766 0.69144 0.71273 0.0
N1092 N 0.94225 0.75799 0.72052 0.0
C1093 C 0.98593 0.75177 0.72263 0.0
C1094 C 0.04222 0.84202 0.73201 0.0
C1095 C 0.03663 0.79377 0.72769 0.0
H1096 H 0.7685 0.72946 0.72425 0.0
H1097 H 0.07123 0.78874 0.72852 0.0
H1098 H 0.03711 0.92712 0.74372 0.0
H1099 H 0.76927 0.80873 0.7365 0.0
H1100 H 0.9822 0.7146 0.71988 0.0
H1101 H 0.61666 0.54193 0.63574 0.0
H1102 H 0.08139 0.8744 0.73633 0.0
H1103 H 0.9112 0.58015 0.6323 0.0
H1104 H 0.7085 0.6114 0.64435 0.0
H1105 H 0.90311 0.49738 0.6202 0.0
H1106 H 0.95544 0.9332 0.74554 0.0
H1107 H 0.59944 0.45478 0.62484 0.0
H1108 H 0.63694 0.39682 0.61453 0.0
H1109 H 0.8548 0.88863 0.7433 0.0
H1110 H 0.71423 0.38353 0.61218 0.0
N1111 N 0.74309 0.5635 0.64056 0.0
C1112 C 0.70162 0.57331 0.64041 0.0
C1113 C 0.63978 0.48483 0.62935 0.0
C1114 C 0.68264 0.47549 0.62835 0.0
C1115 C 0.64937 0.53402 0.63538 0.0
C1116 C 0.73432 0.51603 0.63436 0.0
H1117 H 0.81402 0.42101 0.61454 0.0
N1118 N 0.82704 0.55072 0.63534 0.0
C1119 C 0.86753 0.50016 0.62346 0.0
C1120 C 0.77792 0.50926 0.63191 0.0
C1121 C 0.87185 0.54715 0.63033 0.0
C1122 C 0.81712 0.45703 0.62041 0.0
C1123 C 0.77149 0.46144 0.624 0.0
O1124 O 0.87568 0.64928 0.60911 0.0
O1125 O 0.8858 0.68999 0.67122 0.0
O1126 O 0.854 0.7424 0.68181 0.0
O1127 O 0.8009 0.68194 0.64877 0.0
O1128 O 0.91636 0.6601 0.64326 0.0
O1129 O 0.7994 0.64521 0.61106 0.0
O1130 O 0.80835 0.66372 0.74815 0.0
O1131 O 0.80483 0.62635 0.68778 0.0
O1132 O 0.84507 0.58037 0.67641 0.0
O1133 O 0.89357 0.64203 0.71029 0.0
O1134 O 0.77006 0.65449 0.71271 0.0
O1135 O 0.88835 0.67662 0.74931 0.0
C1136 C 0.92892 0.69446 0.66189 0.0
C1137 C 0.82704 0.63178 0.5672 0.0
C1138 C 0.82963 0.64182 0.51667 0.0
C1139 C 0.84118 0.6636 0.54342 0.0
C1140 C 0.80381 0.58831 0.514 0.0
C1141 C 0.80102 0.57844 0.5639 0.0
C1142 C 0.78952 0.55691 0.53747 0.0
C1143 C 0.82332 0.72878 0.65946 0.0
C1144 C 0.8398 0.65433 0.59527 0.0
C1145 C 0.72005 0.42044 0.61864 0.0
C1146 C 0.67586 0.42778 0.62034 0.0
C1147 C 0.7598 0.61779 0.69591 0.0
C1148 C 0.8516 0.68612 0.79154 0.0
C1149 C 0.83236 0.65474 0.81551 0.0
C1150 C 0.83514 0.6768 0.84176 0.0
C1151 C 0.85779 0.73025 0.84364 0.0
C1152 C 0.87479 0.73935 0.79429 0.0
C1153 C 0.87775 0.7612 0.82012 0.0
C1154 C 0.87749 0.59707 0.69826 0.0
C1155 C 0.84507 0.66331 0.76363 0.0
H1156 H 0.86122 0.70489 0.54569 0.0
H1157 H 0.79455 0.57082 0.49364 0.0
H1158 H 0.78964 0.5534 0.58171 0.0
H1159 H 0.76949 0.51568 0.53517 0.0
H1160 H 0.81457 0.61354 0.81371 0.0
H1161 H 0.86089 0.74822 0.86352 0.0
H1162 H 0.89038 0.76411 0.77647 0.0
H1163 H 0.89556 0.80236 0.82191 0.0
Tb1164 Tb 0.37785 0.17894 0.64805 0.0
C1165 C 0.17615 0.12113 0.71505 0.0
C1166 C 0.16207 0.19266 0.70747 0.0
C1167 C 0.08596 0.10639 0.71032 0.0
C1168 C 0.19645 0.17223 0.71021 0.0
C1169 C 0.12071 0.08779 0.71686 0.0
C1170 C 0.10666 0.15911 0.70591 0.0
C1171 C 0.13942 0.02324 0.73471 0.0
N1172 N 0.21136 0.10502 0.72034 0.0
C1173 C 0.19415 0.05782 0.7319 0.0
C1174 C 0.10236 0.03771 0.72623 0.0
Tb1175 Tb 0.2993 0.16065 0.71045 0.0
N1176 N 0.25023 0.20233 0.7102 0.0
C1177 C 0.27225 0.25452 0.71096 0.0
C1178 C 0.1845 0.24589 0.70674 0.0
C1179 C 0.23981 0.27695 0.70923 0.0
H1180 H 0.2225 0.04581 0.73758 0.0
H1181 H 0.25766 0.31824 0.7092 0.0
H1182 H 0.07958 0.17366 0.70217 0.0
H1183 H 0.12628 0.98535 0.74297 0.0
H1184 H 0.31484 0.27952 0.7122 0.0
H1185 H 0.41805 0.02105 0.64332 0.0
H1186 H 0.15954 0.26326 0.70479 0.0
H1187 H 0.45967 0.30288 0.63595 0.0
H1188 H 0.3617 0.06083 0.64036 0.0
H1189 H 0.55631 0.36371 0.64019 0.0
H1190 H 0.04318 0.08078 0.7098 0.0
H1191 H 0.51472 0.07423 0.65323 0.0
H1192 H 0.59345 0.16212 0.66275 0.0
H1193 H 0.05996 0.01101 0.72814 0.0
H1194 H 0.63209 0.256 0.66058 0.0
N1195 N 0.42608 0.13693 0.64697 0.0
C1196 C 0.40402 0.08513 0.64363 0.0
C1197 C 0.49049 0.09228 0.65085 0.0
C1198 C 0.51313 0.14543 0.65292 0.0
C1199 C 0.43592 0.06217 0.64535 0.0
C1200 C 0.47973 0.16678 0.64969 0.0
H1201 H 0.61871 0.33163 0.65134 0.0
N1202 N 0.46727 0.23739 0.6447 0.0
C1203 C 0.54152 0.32306 0.64235 0.0
C1204 C 0.50118 0.21902 0.64863 0.0
C1205 C 0.48677 0.28852 0.6398 0.0
C1206 C 0.5765 0.30486 0.64872 0.0
C1207 C 0.55653 0.25209 0.65143 0.0
O1208 O 0.3821 0.2133 0.60935 0.0
O1209 O 0.3107 0.18079 0.66689 0.0
O1210 O 0.2472 0.09772 0.68268 0.0
O1211 O 0.3094 0.10063 0.65013 0.0
O1212 O 0.35724 0.23918 0.64035 0.0
O1213 O 0.35291 0.13203 0.61271 0.0
O1214 O 0.30879 0.13451 0.74939 0.0
O1215 O 0.36256 0.1544 0.69045 0.0
O1216 O 0.42881 0.22781 0.68124 0.0
O1217 O 0.36698 0.23963 0.70568 0.0
O1218 O 0.31951 0.1003 0.71952 0.0
O1219 O 0.32828 0.21296 0.74355 0.0
C1220 C 0.31452 0.21995 0.65513 0.0
C1221 C 0.39627 0.17295 0.57114 0.0
C1222 C 0.40032 0.16562 0.52083 0.0
C1223 C 0.3716 0.16294 0.545 0.0
C1224 C 0.45424 0.17852 0.52342 0.0
C1225 C 0.44985 0.18544 0.57323 0.0
C1226 C 0.47864 0.18819 0.54945 0.0
C1227 C 0.26133 0.07806 0.66187 0.0
C1228 C 0.36553 0.17048 0.59592 0.0
C1229 C 0.5896 0.23128 0.6573 0.0
C1230 C 0.56772 0.17789 0.65832 0.0
C1231 C 0.35927 0.11583 0.70275 0.0
C1232 C 0.30629 0.17863 0.78888 0.0
C1233 C 0.34192 0.19006 0.81092 0.0
C1234 C 0.32557 0.1893 0.83839 0.0
C1235 C 0.2723 0.17633 0.84354 0.0
C1236 C 0.25337 0.16605 0.79409 0.0
C1237 C 0.23652 0.16492 0.82143 0.0
C1238 C 0.41692 0.25394 0.69893 0.0
C1239 C 0.32606 0.17885 0.76098 0.0
H1240 H 0.32992 0.15262 0.54358 0.0
H1241 H 0.47792 0.18191 0.50528 0.0
H1242 H 0.46948 0.19327 0.59315 0.0
H1243 H 0.52012 0.19815 0.55116 0.0
H1244 H 0.38248 0.19873 0.80659 0.0
H1245 H 0.25854 0.17561 0.86452 0.0
H1246 H 0.22535 0.1569 0.77716 0.0
H1247 H 0.19564 0.15516 0.82552 0.0
Tb1248 Tb 0.84813 0.1412 0.71661 0.0
C1249 C 0.75078 0.22318 0.62789 0.0
C1250 C 0.65996 0.15476 0.62159 0.0
C1251 C 0.68468 0.24138 0.60753 0.0
C1252 C 0.71269 0.17249 0.63095 0.0
C1253 C 0.73757 0.25814 0.6156 0.0
C1254 C 0.64613 0.18956 0.61009 0.0
C1255 C 0.83151 0.32037 0.61407 0.0
N1256 N 0.80217 0.23657 0.63333 0.0
C1257 C 0.8426 0.28359 0.62509 0.0
C1258 C 0.77861 0.30772 0.60957 0.0
Tb1259 Tb 0.81868 0.17374 0.64924 0.0
N1260 N 0.72885 0.13963 0.63998 0.0
C1261 C 0.69395 0.0879 0.63907 0.0
C1262 C 0.62347 0.10225 0.62258 0.0
C1263 C 0.64067 0.06864 0.63124 0.0
H1264 H 0.88371 0.29288 0.62684 0.0
H1265 H 0.61321 0.02773 0.63134 0.0
H1266 H 0.60599 0.17658 0.60257 0.0
H1267 H 0.86381 0.35787 0.60824 0.0
H1268 H 0.70641 0.06078 0.64472 0.0
H1269 H 0.04908 0.28934 0.74198 0.0
H1270 H 0.5826 0.08716 0.6157 0.0
H1271 H 0.78816 0.01414 0.71996 0.0
H1272 H 0.95767 0.25606 0.72514 0.0
H1273 H 0.81118 0.94898 0.73496 0.0
H1274 H 0.67377 0.26763 0.59806 0.0
H1275 H 0.07984 0.22969 0.7571 0.0
H1276 H 0.058 0.13924 0.76641 0.0
H1277 H 0.77 0.33531 0.59984 0.0
H1278 H 0.99384 0.04682 0.76394 0.0
N1279 N 0.93669 0.17736 0.72823 0.0
C1280 C 0.97035 0.22906 0.73072 0.0
C1281 C 0.03974 0.21463 0.74901 0.0
C1282 C 0.0046 0.16184 0.7475 0.0
C1283 C 0.02251 0.24837 0.74053 0.0
C1284 C 0.95311 0.14418 0.73637 0.0
H1285 H 0.90246 0.97602 0.7519 0.0
N1286 N 0.86695 0.07705 0.72577 0.0
C1287 C 0.8414 0.98914 0.73493 0.0
C1288 C 0.91713 0.09229 0.73498 0.0
C1289 C 0.82859 0.02617 0.72634 0.0
C1290 C 0.89297 0.00441 0.7443 0.0
C1291 C 0.93131 0.05646 0.74483 0.0
O1292 O 0.79664 0.10489 0.75039 0.0
O1293 O 0.78925 0.14794 0.69113 0.0
O1294 O 0.8266 0.23541 0.6762 0.0
O1295 O 0.86611 0.22129 0.71552 0.0
O1296 O 0.76382 0.08255 0.71416 0.0
O1297 O 0.86438 0.18055 0.75484 0.0
O1298 O 0.87015 0.19836 0.61463 0.0
O1299 O 0.8778 0.17135 0.67588 0.0
O1300 O 0.85969 0.09509 0.68538 0.0
O1301 O 0.79802 0.09297 0.65394 0.0
O1302 O 0.90401 0.23172 0.64963 0.0
O1303 O 0.79829 0.12536 0.6144 0.0
C1304 C 0.74796 0.10668 0.69823 0.0
C1305 C 0.83636 0.12676 0.79488 0.0
C1306 C 0.84223 0.13381 0.84554 0.0
C1307 C 0.8314 0.14898 0.81966 0.0
C1308 C 0.85803 0.09656 0.84631 0.0
C1309 C 0.85054 0.08844 0.79655 0.0
C1310 C 0.86184 0.0739 0.82198 0.0
C1311 C 0.85225 0.2497 0.70031 0.0
C1312 C 0.82481 0.14204 0.76758 0.0
C1313 C 0.98234 0.07377 0.75609 0.0
C1314 C 0.01884 0.12637 0.75751 0.0
C1315 C 0.91971 0.21152 0.66827 0.0
C1316 C 0.83005 0.16707 0.57122 0.0
C1317 C 0.8517 0.15198 0.54962 0.0
C1318 C 0.84623 0.16339 0.52191 0.0
C1319 C 0.81858 0.18967 0.51594 0.0
C1320 C 0.80154 0.19233 0.56485 0.0
C1321 C 0.79594 0.20363 0.53735 0.0
C1322 C 0.82741 0.07416 0.66398 0.0
C1323 C 0.83958 0.15793 0.60013 0.0
H1324 H 0.81945 0.17789 0.81884 0.0
H1325 H 0.86641 0.0842 0.86591 0.0
H1326 H 0.85197 0.06883 0.77836 0.0
H1327 H 0.87302 0.04449 0.82285 0.0
H1328 H 0.87371 0.13233 0.55436 0.0
H1329 H 0.81392 0.19872 0.49469 0.0
H1330 H 0.78394 0.20365 0.58098 0.0
H1331 H 0.77415 0.22343 0.53265 0.0
loop_
_geom_bond_atom_site_label_1
_geom_bond_atom_site_label_2
_geom_bond_distance
_geom_bond_site_symmetry_2
_ccdc_geom_bond_type
P0 O11 1.490 . S
P0 C14 1.812 . S
P0 C20 1.803 . S
P0 C26 1.819 . S
H1 C15 0.941 . S
H2 C16 0.939 . S
H3 C18 0.940 1_565 S
H4 C19 0.940 . S
H5 C21 0.939 . S
H6 C22 0.942 . S
H7 C24 0.940 . S
H8 C25 0.939 . S
H9 C27 0.941 . S
H10 C31 0.939 . S
O11 P0 1.490 . S
H12 C28 0.939 . S
H13 C30 0.940 . S
C14 P0 1.812 . S
C14 C15 1.389 . S
C14 C19 1.391 . S
C15 H1 0.941 . S
C15 C14 1.389 . S
C15 C16 1.397 . S
C16 H2 0.939 . S
C16 C15 1.397 . S
C16 C17 1.378 1_545 S
C17 C16 1.378 1_565 S
C17 C18 1.378 1_565 S
C18 H3 0.940 1_545 S
C18 C17 1.378 1_545 S
C18 C19 1.396 . S
C19 H4 0.940 . S
C19 C14 1.391 . S
C19 C18 1.396 . S
C20 P0 1.803 . S
C20 C21 1.378 . S
C20 C25 1.400 . S
C21 H5 0.939 . S
C21 C20 1.378 . S
C21 C22 1.361 . S
C22 H6 0.942 . S
C22 C21 1.361 . S
C22 C23 1.369 . S
C23 C22 1.369 . S
C23 C24 1.404 . S
C24 H7 0.940 . S
C24 C23 1.404 . S
C24 C25 1.389 . S
C25 H8 0.939 . S
C25 C20 1.400 . S
C25 C24 1.389 . S
C26 P0 1.819 . S
C26 C27 1.391 . S
C26 C31 1.391 . S
C27 H9 0.941 . S
C27 C26 1.391 . S
C27 C28 1.396 . S
C28 H12 0.939 . S
C28 C27 1.396 . S
C28 C29 1.397 . S
C29 C28 1.397 . S
C29 C30 1.385 . S
C30 H13 0.940 . S
C30 C29 1.385 . S
C30 C31 1.388 . S
C31 H10 0.939 . S
C31 C26 1.391 . S
C31 C30 1.388 . S
P32 O43 1.490 . S
P32 C46 1.812 . S
P32 C52 1.803 . S
P32 C58 1.819 . S
H33 C47 0.932 1_565 S
H34 C48 0.939 . S
H35 C50 0.940 . S
H36 C51 0.940 . S
H37 C53 0.939 . S
H38 C54 0.942 . S
H39 C56 0.940 . S
H40 C57 0.939 . S
H41 C59 0.941 . S
H42 C63 0.939 . S
O43 P32 1.490 . S
H44 C60 0.939 . S
H45 C62 0.940 . S
C46 P32 1.812 . S
C46 C47 1.389 . S
C46 C51 1.391 . S
C47 H33 0.932 1_545 S
C47 C46 1.389 . S
C47 C48 1.397 1_545 S
C48 H34 0.939 . S
C48 C47 1.397 1_565 S
C48 C49 1.378 . S
C49 C48 1.378 . S
C49 C50 1.378 1_565 S
C50 H35 0.940 . S
C50 C49 1.378 1_545 S
C50 C51 1.396 . S
C51 H36 0.940 . S
C51 C46 1.391 . S
C51 C50 1.396 . S
C52 P32 1.803 . S
C52 C53 1.378 1_655 S
C52 C57 1.400 . S
C53 H37 0.939 . S
C53 C52 1.378 1_455 S
C53 C54 1.361 . S
C54 H38 0.942 . S
C54 C53 1.361 . S
C54 C55 1.369 . S
C55 C54 1.369 . S
C55 C56 1.404 1_455 S
C56 H39 0.940 . S
C56 C55 1.404 1_655 S
C56 C57 1.389 . S
C57 H40 0.939 . S
C57 C52 1.400 . S
C57 C56 1.389 . S
C58 P32 1.819 . S
C58 C59 1.391 . S
C58 C63 1.391 . S
C59 H41 0.941 . S
C59 C58 1.391 . S
C59 C60 1.396 . S
C60 H44 0.939 . S
C60 C59 1.396 . S
C60 C61 1.397 . S
C61 C60 1.397 . S
C61 C62 1.385 . S
C62 H45 0.940 . S
C62 C61 1.385 . S
C62 C63 1.388 . S
C63 H42 0.939 . S
C63 C58 1.391 . S
C63 C62 1.388 . S
P64 O75 1.490 . S
P64 C78 1.812 . S
P64 C84 1.803 . S
P64 C90 1.819 . S
H65 C79 0.941 . S
H66 C80 0.939 . S
H67 C82 0.940 . S
H68 C83 0.940 . S
H69 C85 0.939 . S
H70 C86 0.942 1_455 S
H71 C88 0.940 . S
H72 C89 0.939 . S
H73 C91 0.941 . S
H74 C95 0.939 . S
O75 P64 1.490 . S
H76 C92 0.939 . S
H77 C94 0.940 . S
C78 P64 1.812 . S
C78 C79 1.389 . S
C78 C83 1.391 . S
C79 H65 0.941 . S
C79 C78 1.389 . S
C79 C80 1.397 . S
C80 H66 0.939 . S
C80 C79 1.397 . S
C80 C81 1.378 . S
C81 C80 1.378 . S
C81 C82 1.378 . S
C82 H67 0.940 . S
C82 C81 1.378 . S
C82 C83 1.396 . S
C83 H68 0.940 . S
C83 C78 1.391 . S
C83 C82 1.396 . S
C84 P64 1.803 . S
C84 C85 1.378 . S
C84 C89 1.400 . S
C85 H69 0.939 . S
C85 C84 1.378 . S
C85 C86 1.361 . S
C86 H70 0.942 1_655 S
C86 C85 1.361 . S
C86 C87 1.369 1_655 S
C87 C86 1.369 1_455 S
C87 C88 1.404 . S
C88 H71 0.940 . S
C88 C87 1.404 . S
C88 C89 1.389 1_455 S
C89 H72 0.939 . S
C89 C84 1.400 . S
C89 C88 1.389 1_655 S
C90 P64 1.819 . S
C90 C91 1.391 . S
C90 C95 1.391 . S
C91 H73 0.941 . S
C91 C90 1.391 . S
C91 C92 1.396 . S
C92 H76 0.939 . S
C92 C91 1.396 . S
C92 C93 1.397 . S
C93 C92 1.397 . S
C93 C94 1.385 . S
C94 H77 0.940 . S
C94 C93 1.385 . S
C94 C95 1.388 . S
C95 H74 0.939 . S
C95 C90 1.391 . S
C95 C94 1.388 . S
P96 O107 1.490 . S
P96 C110 1.812 . S
P96 C116 1.803 . S
P96 C122 1.819 . S
H97 C111 0.941 . S
H98 C112 0.939 . S
H99 C114 0.940 . S
H100 C115 0.940 . S
H101 C117 0.939 . S
H102 C118 0.942 . S
H103 C120 0.940 . S
H104 C121 0.939 . S
H105 C123 0.941 . S
H106 C127 0.939 . S
O107 P96 1.490 . S
H108 C124 0.939 . S
H109 C126 0.940 . S
C110 P96 1.812 . S
C110 C111 1.389 . S
C110 C115 1.391 . S
C111 H97 0.941 . S
C111 C110 1.389 . S
C111 C112 1.397 . S
C112 H98 0.939 . S
C112 C111 1.397 . S
C112 C113 1.378 1_455 S
C113 C112 1.378 1_655 S
C113 C114 1.378 . S
C114 H99 0.940 . S
C114 C113 1.378 . S
C114 C115 1.396 1_655 S
C115 H100 0.940 . S
C115 C110 1.391 . S
C115 C114 1.396 1_455 S
C116 P96 1.803 . S
C116 C117 1.378 . S
C116 C121 1.400 . S
C117 H101 0.939 . S
C117 C116 1.378 . S
C117 C118 1.361 . S
C118 H102 0.942 . S
C118 C117 1.361 . S
C118 C119 1.369 . S
C119 C118 1.369 . S
C119 C120 1.404 . S
C120 H103 0.940 . S
C120 C119 1.404 . S
C120 C121 1.389 . S
C121 H104 0.939 . S
C121 C116 1.400 . S
C121 C120 1.389 . S
C122 P96 1.819 . S
C122 C123 1.391 . S
C122 C127 1.391 . S
C123 H105 0.941 . S
C123 C122 1.391 . S
C123 C124 1.396 . S
C124 H108 0.939 . S
C124 C123 1.396 . S
C124 C125 1.397 . S
C125 C124 1.397 . S
C125 C126 1.385 . S
C126 H109 0.940 . S
C126 C125 1.385 . S
C126 C127 1.388 . S
C127 H106 0.939 . S
C127 C122 1.391 . S
C127 C126 1.388 . S
P128 O139 1.490 . S
P128 C142 1.812 . S
P128 C148 1.803 . S
P128 C154 1.819 . S
H129 C143 0.939 . S
H130 C144 0.939 . S
H131 C146 0.940 . S
H132 C147 0.940 . S
H133 C149 0.939 . S
H134 C150 0.942 . S
H135 C152 0.940 . S
H136 C153 0.939 . S
H137 C155 0.941 . S
H138 C159 0.939 . S
O139 P128 1.490 . S
H140 C156 0.939 . S
H141 C158 0.940 . S
C142 P128 1.812 . S
C142 C143 1.389 . S
C142 C147 1.391 . S
C143 H129 0.939 . S
C143 C142 1.389 . S
C143 C144 1.397 1_565 S
C144 H130 0.939 . S
C144 C143 1.397 1_545 S
C144 C145 1.378 . S
C145 C144 1.378 . S
C145 C146 1.378 1_545 S
C146 H131 0.940 . S
C146 C145 1.378 1_565 S
C146 C147 1.396 . S
C147 H132 0.940 . S
C147 C142 1.391 . S
C147 C146 1.396 . S
C148 P128 1.803 . S
C148 C149 1.378 . S
C148 C153 1.400 . S
C149 H133 0.939 . S
C149 C148 1.378 . S
C149 C150 1.361 . S
C150 H134 0.942 . S
C150 C149 1.361 . S
C150 C151 1.369 . S
C151 C150 1.369 . S
C151 C152 1.404 . S
C152 H135 0.940 . S
C152 C151 1.404 . S
C152 C153 1.389 . S
C153 H136 0.939 . S
C153 C148 1.400 . S
C153 C152 1.389 . S
C154 P128 1.819 . S
C154 C155 1.391 . S
C154 C159 1.391 . S
C155 H137 0.941 . S
C155 C154 1.391 . S
C155 C156 1.396 . S
C156 H140 0.939 . S
C156 C155 1.396 . S
C156 C157 1.397 . S
C157 C156 1.397 . S
C157 C158 1.385 . S
C158 H141 0.940 . S
C158 C157 1.385 . S
C158 C159 1.388 . S
C159 H138 0.939 . S
C159 C154 1.391 . S
C159 C158 1.388 . S
P160 O171 1.490 . S
P160 C174 1.812 . S
P160 C180 1.803 . S
P160 C186 1.819 . S
H161 C175 0.941 . S
H162 C176 0.939 . S
H163 C178 0.931 1_545 S
H164 C179 0.940 . S
H165 C181 0.939 . S
H166 C182 0.942 1_655 S
H167 C184 0.940 1_655 S
H168 C185 0.939 . S
H169 C187 0.941 . S
H170 C191 0.939 . S
O171 P160 1.490 . S
H172 C188 0.939 . S
H173 C190 0.940 . S
C174 P160 1.812 . S
C174 C175 1.389 . S
C174 C179 1.391 . S
C175 H161 0.941 . S
C175 C174 1.389 . S
C175 C176 1.397 . S
C176 H162 0.939 . S
C176 C175 1.397 . S
C176 C177 1.378 1_565 S
C177 C176 1.378 1_545 S
C177 C178 1.378 1_545 S
C178 H163 0.931 1_565 S
C178 C177 1.378 1_565 S
C178 C179 1.404 . S
C179 H164 0.940 . S
C179 C174 1.391 . S
C179 C178 1.404 . S
C180 P160 1.803 . S
C180 C181 1.378 . S
C180 C185 1.400 . S
C181 H165 0.939 . S
C181 C180 1.378 . S
C181 C182 1.361 . S
C182 H166 0.942 1_455 S
C182 C181 1.361 . S
C182 C183 1.369 1_455 S
C183 C182 1.369 1_655 S
C183 C184 1.404 1_655 S
C184 H167 0.940 1_455 S
C184 C183 1.404 1_455 S
C184 C185 1.389 . S
C185 H168 0.939 . S
C185 C180 1.400 . S
C185 C184 1.389 . S
C186 P160 1.819 . S
C186 C187 1.391 . S
C186 C191 1.391 . S
C187 H169 0.941 . S
C187 C186 1.391 . S
C187 C188 1.396 . S
C188 H172 0.939 . S
C188 C187 1.396 . S
C188 C189 1.397 . S
C189 C188 1.397 . S
C189 C190 1.385 . S
C190 H173 0.940 . S
C190 C189 1.385 . S
C190 C191 1.388 . S
C191 H170 0.939 . S
C191 C186 1.391 . S
C191 C190 1.388 . S
P192 O203 1.490 1_655 S
P192 C206 1.812 . S
P192 C212 1.803 . S
P192 C218 1.819 . S
H193 C207 0.941 . S
H194 C208 0.939 . S
H195 C210 0.940 . S
H196 C211 0.940 . S
H197 C213 0.939 1_455 S
H198 C214 0.942 . S
H199 C216 0.940 . S
H200 C217 0.939 . S
H201 C219 0.941 . S
H202 C223 0.939 . S
O203 P192 1.490 1_455 S
H204 C220 0.923 1_455 S
H205 C222 0.940 . S
C206 P192 1.812 . S
C206 C207 1.389 . S
C206 C211 1.391 . S
C207 H193 0.941 . S
C207 C206 1.389 . S
C207 C208 1.397 . S
C208 H194 0.939 . S
C208 C207 1.397 . S
C208 C209 1.378 . S
C209 C208 1.378 . S
C209 C210 1.378 . S
C210 H195 0.940 . S
C210 C209 1.378 . S
C210 C211 1.396 . S
C211 H196 0.940 . S
C211 C206 1.391 . S
C211 C210 1.396 . S
C212 P192 1.803 . S
C212 C213 1.378 . S
C212 C217 1.400 . S
C213 H197 0.939 1_655 S
C213 C212 1.378 . S
C213 C214 1.361 . S
C214 H198 0.942 . S
C214 C213 1.361 . S
C214 C215 1.369 . S
C215 C214 1.369 . S
C215 C216 1.404 . S
C216 H199 0.940 . S
C216 C215 1.404 . S
C216 C217 1.389 . S
C217 H200 0.939 . S
C217 C212 1.400 . S
C217 C216 1.389 . S
C218 P192 1.819 . S
C218 C219 1.391 1_655 S
C218 C223 1.391 . S
C219 H201 0.941 . S
C219 C218 1.391 1_455 S
C219 C220 1.395 1_455 S
C220 H204 0.923 1_655 S
C220 C219 1.395 1_655 S
C220 C221 1.416 . S
C221 C220 1.416 . S
C221 C222 1.385 . S
C222 H205 0.940 . S
C222 C221 1.385 . S
C222 C223 1.388 . S
C223 H202 0.939 . S
C223 C218 1.391 . S
C223 C222 1.388 . S
P224 O235 1.490 . S
P224 C238 1.812 . S
P224 C244 1.803 . S
P224 C250 1.819 . S
H225 C239 0.941 . S
H226 C240 0.939 . S
H227 C242 0.940 . S
H228 C243 0.940 . S
H229 C245 0.939 . S
H230 C246 0.942 . S
H231 C248 0.940 . S
H232 C249 0.939 . S
H233 C251 0.941 . S
H234 C255 0.939 . S
O235 P224 1.490 . S
H236 C252 0.939 . S
H237 C254 0.940 . S
C238 P224 1.812 . S
C238 C239 1.389 . S
C238 C243 1.391 . S
C239 H225 0.941 . S
C239 C238 1.389 . S
C239 C240 1.397 . S
C240 H226 0.939 . S
C240 C239 1.397 . S
C240 C241 1.378 . S
C241 C240 1.378 . S
C241 C242 1.378 . S
C242 H227 0.940 . S
C242 C241 1.378 . S
C242 C243 1.396 . S
C243 H228 0.940 . S
C243 C238 1.391 . S
C243 C242 1.396 . S
C244 P224 1.803 . S
C244 C245 1.378 . S
C244 C249 1.400 . S
C245 H229 0.939 . S
C245 C244 1.378 . S
C245 C246 1.361 . S
C246 H230 0.942 . S
C246 C245 1.361 . S
C246 C247 1.369 . S
C247 C246 1.369 . S
C247 C248 1.404 . S
C248 H231 0.940 . S
C248 C247 1.404 . S
C248 C249 1.389 . S
C249 H232 0.939 . S
C249 C244 1.400 . S
C249 C248 1.389 . S
C250 P224 1.819 . S
C250 C251 1.391 . S
C250 C255 1.391 . S
C251 H233 0.941 . S
C251 C250 1.391 . S
C251 C252 1.396 . S
C252 H236 0.939 . S
C252 C251 1.396 . S
C252 C253 1.397 . S
C253 C252 1.397 . S
C253 C254 1.385 . S
C254 H237 0.940 . S
C254 C253 1.385 . S
C254 C255 1.388 . S
C255 H234 0.939 . S
C255 C250 1.391 . S
C255 C254 1.388 . S
P256 O267 1.490 1_545 S
P256 C270 1.812 . S
P256 C276 1.803 . S
P256 C282 1.819 . S
H257 C271 0.941 . S
H258 C272 0.939 . S
H259 C274 0.940 . S
H260 C275 0.940 . S
H261 C277 0.939 . S
H262 C278 0.942 . S
H263 C280 0.940 . S
H264 C281 0.939 . S
H265 C283 0.941 1_565 S
H266 C287 0.939 . S
O267 P256 1.490 1_565 S
H268 C284 0.939 . S
H269 C286 0.940 . S
C270 P256 1.812 . S
C270 C271 1.389 . S
C270 C275 1.391 . S
C271 H257 0.941 . S
C271 C270 1.389 . S
C271 C272 1.397 . S
C272 H258 0.939 . S
C272 C271 1.397 . S
C272 C273 1.378 . S
C273 C272 1.378 . S
C273 C274 1.378 . S
C274 H259 0.940 . S
C274 C273 1.378 . S
C274 C275 1.396 . S
C275 H260 0.940 . S
C275 C270 1.391 . S
C275 C274 1.396 . S
C276 P256 1.803 . S
C276 C277 1.378 . S
C276 C281 1.400 . S
C277 H261 0.939 . S
C277 C276 1.378 . S
C277 C278 1.361 . S
C278 H262 0.942 . S
C278 C277 1.361 . S
C278 C279 1.369 . S
C279 C278 1.369 . S
C279 C280 1.404 . S
C280 H263 0.940 . S
C280 C279 1.404 . S
C280 C281 1.389 . S
C281 H264 0.939 . S
C281 C276 1.400 . S
C281 C280 1.389 . S
C282 P256 1.819 . S
C282 C283 1.391 . S
C282 C287 1.391 . S
C283 H265 0.941 1_545 S
C283 C282 1.391 . S
C283 C284 1.396 . S
C284 H268 0.939 . S
C284 C283 1.396 . S
C284 C285 1.397 . S
C285 C284 1.397 . S
C285 C286 1.385 . S
C286 H269 0.940 . S
C286 C285 1.385 . S
C286 C287 1.388 . S
C287 H266 0.939 . S
C287 C282 1.391 . S
C287 C286 1.388 . S
P288 O299 1.490 . S
P288 C302 1.812 . S
P288 C308 1.803 . S
P288 C314 1.819 . S
H289 C303 0.941 . S
H290 C304 0.939 1_554 S
H291 C306 0.940 . S
H292 C307 0.940 . S
H293 C309 0.939 . S
H294 C310 0.942 . S
H295 C312 0.940 . S
H296 C313 0.939 . S
H297 C315 0.941 . S
H298 C319 0.939 . S
O299 P288 1.490 . S
H300 C316 0.939 . S
H301 C318 0.940 . S
C302 P288 1.812 . S
C302 C303 1.389 . S
C302 C307 1.391 . S
C303 H289 0.941 . S
C303 C302 1.389 . S
C303 C304 1.397 . S
C304 H290 0.939 1_556 S
C304 C303 1.397 . S
C304 C305 1.378 . S
C305 C304 1.378 . S
C305 C306 1.378 . S
C306 H291 0.940 . S
C306 C305 1.378 . S
C306 C307 1.396 . S
C307 H292 0.940 . S
C307 C302 1.391 . S
C307 C306 1.396 . S
C308 P288 1.803 . S
C308 C309 1.378 . S
C308 C313 1.400 . S
C309 H293 0.939 . S
C309 C308 1.378 . S
C309 C310 1.361 . S
C310 H294 0.942 . S
C310 C309 1.361 . S
C310 C311 1.369 . S
C311 C310 1.369 . S
C311 C312 1.404 . S
C312 H295 0.940 . S
C312 C311 1.404 . S
C312 C313 1.389 . S
C313 H296 0.939 . S
C313 C308 1.400 . S
C313 C312 1.389 . S
C314 P288 1.819 . S
C314 C315 1.391 . S
C314 C319 1.391 . S
C315 H297 0.941 . S
C315 C314 1.391 . S
C315 C316 1.396 . S
C316 H300 0.939 . S
C316 C315 1.396 . S
C316 C317 1.397 . S
C317 C316 1.397 . S
C317 C318 1.385 . S
C318 H301 0.940 . S
C318 C317 1.385 . S
C318 C319 1.388 . S
C319 H298 0.939 . S
C319 C314 1.391 . S
C319 C318 1.388 . S
P320 O331 1.490 . S
P320 C334 1.812 . S
P320 C340 1.803 . S
P320 C346 1.819 . S
H321 C335 0.941 . S
H322 C336 0.939 . S
H323 C338 0.940 . S
H324 C339 0.940 . S
H325 C341 0.939 . S
H326 C342 0.942 . S
H327 C344 0.940 . S
H328 C345 0.939 . S
H329 C347 0.941 . S
H330 C351 0.939 . S
O331 P320 1.490 . S
H332 C348 0.939 . S
H333 C350 0.940 . S
C334 P320 1.812 . S
C334 C335 1.389 . S
C334 C339 1.391 . S
C335 H321 0.941 . S
C335 C334 1.389 . S
C335 C336 1.397 . S
C336 H322 0.939 . S
C336 C335 1.397 . S
C336 C337 1.378 . S
C337 C336 1.378 . S
C337 C338 1.378 . S
C338 H323 0.940 . S
C338 C337 1.378 . S
C338 C339 1.396 . S
C339 H324 0.940 . S
C339 C334 1.391 . S
C339 C338 1.396 . S
C340 P320 1.803 . S
C340 C341 1.378 . S
C340 C345 1.400 . S
C341 H325 0.939 . S
C341 C340 1.378 . S
C341 C342 1.361 . S
C342 H326 0.942 . S
C342 C341 1.361 . S
C342 C343 1.369 . S
C343 C342 1.369 . S
C343 C344 1.404 . S
C344 H327 0.940 . S
C344 C343 1.404 . S
C344 C345 1.389 . S
C345 H328 0.939 . S
C345 C340 1.400 . S
C345 C344 1.389 . S
C346 P320 1.819 . S
C346 C347 1.391 . S
C346 C351 1.391 . S
C347 H329 0.941 . S
C347 C346 1.391 . S
C347 C348 1.396 . S
C348 H332 0.939 . S
C348 C347 1.396 . S
C348 C349 1.397 . S
C349 C348 1.397 . S
C349 C350 1.385 . S
C350 H333 0.940 . S
C350 C349 1.385 . S
C350 C351 1.388 . S
C351 H330 0.939 . S
C351 C346 1.391 . S
C351 C350 1.388 . S
P352 O363 1.490 . S
P352 C366 1.812 . S
P352 C372 1.803 . S
P352 C378 1.819 . S
H353 C367 0.941 . S
H354 C368 0.939 1_554 S
H355 C370 0.940 . S
H356 C371 0.940 . S
H357 C373 0.939 . S
H358 C374 0.942 . S
H359 C376 0.940 . S
H360 C377 0.939 . S
H361 C379 0.941 . S
H362 C383 0.939 . S
O363 P352 1.490 . S
H364 C380 0.939 . S
H365 C382 0.940 . S
C366 P352 1.812 . S
C366 C367 1.389 . S
C366 C371 1.391 . S
C367 H353 0.941 . S
C367 C366 1.389 . S
C367 C368 1.397 . S
C368 H354 0.939 1_556 S
C368 C367 1.397 . S
C368 C369 1.378 . S
C369 C368 1.378 . S
C369 C370 1.378 . S
C370 H355 0.940 . S
C370 C369 1.378 . S
C370 C371 1.396 . S
C371 H356 0.940 . S
C371 C366 1.391 . S
C371 C370 1.396 . S
C372 P352 1.803 . S
C372 C373 1.378 . S
C372 C377 1.400 . S
C373 H357 0.939 . S
C373 C372 1.378 . S
C373 C374 1.361 . S
C374 H358 0.942 . S
C374 C373 1.361 . S
C374 C375 1.369 . S
C375 C374 1.369 . S
C375 C376 1.404 . S
C376 H359 0.940 . S
C376 C375 1.404 . S
C376 C377 1.389 . S
C377 H360 0.939 . S
C377 C372 1.400 . S
C377 C376 1.389 . S
C378 P352 1.819 . S
C378 C379 1.391 . S
C378 C383 1.391 . S
C379 H361 0.941 . S
C379 C378 1.391 . S
C379 C380 1.396 . S
C380 H364 0.939 . S
C380 C379 1.396 . S
C380 C381 1.397 . S
C381 C380 1.397 . S
C381 C382 1.385 . S
C382 H365 0.940 . S
C382 C381 1.385 . S
C382 C383 1.388 . S
C383 H362 0.939 . S
C383 C378 1.391 . S
C383 C382 1.388 . S
P384 O395 1.490 . S
P384 C398 1.812 . S
P384 C404 1.803 . S
P384 C410 1.819 . S
H385 C399 0.941 . S
H386 C400 0.939 1_556 S
H387 C402 0.940 . S
H388 C403 0.940 . S
H389 C405 0.939 . S
H390 C406 0.942 . S
H391 C408 0.940 . S
H392 C409 0.939 . S
H393 C411 0.941 . S
H394 C415 0.939 . S
O395 P384 1.490 . S
H396 C412 0.939 . S
H397 C414 0.940 . S
C398 P384 1.812 . S
C398 C399 1.389 . S
C398 C403 1.391 . S
C399 H385 0.941 . S
C399 C398 1.389 . S
C399 C400 1.397 . S
C400 H386 0.939 1_554 S
C400 C399 1.397 . S
C400 C401 1.378 . S
C401 C400 1.378 . S
C401 C402 1.378 . S
C402 H387 0.940 . S
C402 C401 1.378 . S
C402 C403 1.396 . S
C403 H388 0.940 . S
C403 C398 1.391 . S
C403 C402 1.396 . S
C404 P384 1.803 . S
C404 C405 1.378 . S
C404 C409 1.400 . S
C405 H389 0.939 . S
C405 C404 1.378 . S
C405 C406 1.361 . S
C406 H390 0.942 . S
C406 C405 1.361 . S
C406 C407 1.369 . S
C407 C406 1.369 . S
C407 C408 1.404 . S
C408 H391 0.940 . S
C408 C407 1.404 . S
C408 C409 1.389 . S
C409 H392 0.939 . S
C409 C404 1.400 . S
C409 C408 1.389 . S
C410 P384 1.819 . S
C410 C411 1.391 . S
C410 C415 1.391 . S
C411 H393 0.941 . S
C411 C410 1.391 . S
C411 C412 1.396 . S
C412 H396 0.939 . S
C412 C411 1.396 . S
C412 C413 1.397 . S
C413 C412 1.397 . S
C413 C414 1.385 . S
C414 H397 0.940 . S
C414 C413 1.385 . S
C414 C415 1.388 . S
C415 H394 0.939 . S
C415 C410 1.391 . S
C415 C414 1.388 . S
P416 O427 1.490 . S
P416 C430 1.812 . S
P416 C436 1.803 . S
P416 C442 1.819 . S
H417 C431 0.941 . S
H418 C432 0.939 . S
H419 C434 0.940 . S
H420 C435 0.940 . S
H421 C437 0.939 . S
H422 C438 0.942 . S
H423 C440 0.940 . S
H424 C441 0.939 . S
H425 C443 0.941 . S
H426 C447 0.939 . S
O427 P416 1.490 . S
H428 C444 0.939 . S
H429 C446 0.940 . S
C430 P416 1.812 . S
C430 C431 1.389 . S
C430 C435 1.391 . S
C431 H417 0.941 . S
C431 C430 1.389 . S
C431 C432 1.397 . S
C432 H418 0.939 . S
C432 C431 1.397 . S
C432 C433 1.378 . S
C433 C432 1.378 . S
C433 C434 1.378 . S
C434 H419 0.940 . S
C434 C433 1.378 . S
C434 C435 1.396 . S
C435 H420 0.940 . S
C435 C430 1.391 . S
C435 C434 1.396 . S
C436 P416 1.803 . S
C436 C437 1.378 . S
C436 C441 1.400 . S
C437 H421 0.939 . S
C437 C436 1.378 . S
C437 C438 1.361 . S
C438 H422 0.942 . S
C438 C437 1.361 . S
C438 C439 1.369 . S
C439 C438 1.369 . S
C439 C440 1.404 . S
C440 H423 0.940 . S
C440 C439 1.404 . S
C440 C441 1.389 . S
C441 H424 0.939 . S
C441 C436 1.400 . S
C441 C440 1.389 . S
C442 P416 1.819 . S
C442 C443 1.391 . S
C442 C447 1.391 . S
C443 H425 0.941 . S
C443 C442 1.391 . S
C443 C444 1.396 . S
C444 H428 0.939 . S
C444 C443 1.396 . S
C444 C445 1.397 . S
C445 C444 1.397 . S
C445 C446 1.385 . S
C446 H429 0.940 . S
C446 C445 1.385 . S
C446 C447 1.388 . S
C447 H426 0.939 . S
C447 C442 1.391 . S
C447 C446 1.388 . S
P448 O459 1.490 . S
P448 C462 1.812 . S
P448 C468 1.803 . S
P448 C474 1.819 . S
H449 C463 0.941 . S
H450 C464 0.936 1_556 S
H451 C466 0.940 . S
H452 C467 0.940 . S
H453 C469 0.939 . S
H454 C470 0.942 . S
H455 C472 0.940 . S
H456 C473 0.939 . S
H457 C475 0.941 . S
H458 C479 0.939 . S
O459 P448 1.490 . S
H460 C476 0.939 . S
H461 C478 0.940 . S
C462 P448 1.812 . S
C462 C463 1.389 . S
C462 C467 1.391 . S
C463 H449 0.941 . S
C463 C462 1.389 . S
C463 C464 1.397 . S
C464 H450 0.936 1_554 S
C464 C463 1.397 . S
C464 C465 1.378 . S
C465 C464 1.378 . S
C465 C466 1.378 . S
C466 H451 0.940 . S
C466 C465 1.378 . S
C466 C467 1.396 . S
C467 H452 0.940 . S
C467 C462 1.391 . S
C467 C466 1.396 . S
C468 P448 1.803 . S
C468 C469 1.378 . S
C468 C473 1.400 . S
C469 H453 0.939 . S
C469 C468 1.378 . S
C469 C470 1.361 . S
C470 H454 0.942 . S
C470 C469 1.361 . S
C470 C471 1.369 . S
C471 C470 1.369 . S
C471 C472 1.404 . S
C472 H455 0.940 . S
C472 C471 1.404 . S
C472 C473 1.389 . S
C473 H456 0.939 . S
C473 C468 1.400 . S
C473 C472 1.389 . S
C474 P448 1.819 . S
C474 C475 1.391 . S
C474 C479 1.391 . S
C475 H457 0.941 . S
C475 C474 1.391 . S
C475 C476 1.396 . S
C476 H460 0.939 . S
C476 C475 1.396 . S
C476 C477 1.397 . S
C477 C476 1.397 . S
C477 C478 1.385 . S
C478 H461 0.940 . S
C478 C477 1.385 . S
C478 C479 1.388 . S
C479 H458 0.939 . S
C479 C474 1.391 . S
C479 C478 1.388 . S
P480 O491 1.490 1_565 S
P480 C494 1.812 . S
P480 C500 1.803 . S
P480 C506 1.819 . S
H481 C495 0.941 . S
H482 C496 0.939 . S
H483 C498 0.940 . S
H484 C499 0.940 . S
H485 C501 0.939 . S
H486 C502 0.942 . S
H487 C504 0.940 . S
H488 C505 0.939 . S
H489 C507 0.941 1_545 S
H490 C511 0.939 . S
O491 P480 1.490 1_545 S
H492 C508 0.948 . S
H493 C510 0.940 . S
C494 P480 1.812 . S
C494 C495 1.389 . S
C494 C499 1.391 . S
C495 H481 0.941 . S
C495 C494 1.389 . S
C495 C496 1.397 . S
C496 H482 0.939 . S
C496 C495 1.397 . S
C496 C497 1.378 . S
C497 C496 1.378 . S
C497 C498 1.378 . S
C498 H483 0.940 . S
C498 C497 1.378 . S
C498 C499 1.396 . S
C499 H484 0.940 . S
C499 C494 1.391 . S
C499 C498 1.396 . S
C500 P480 1.803 . S
C500 C501 1.378 . S
C500 C505 1.400 . S
C501 H485 0.939 . S
C501 C500 1.378 . S
C501 C502 1.361 . S
C502 H486 0.942 . S
C502 C501 1.361 . S
C502 C503 1.369 . S
C503 C502 1.369 . S
C503 C504 1.404 . S
C504 H487 0.940 . S
C504 C503 1.404 . S
C504 C505 1.389 . S
C505 H488 0.939 . S
C505 C500 1.400 . S
C505 C504 1.389 . S
C506 P480 1.819 . S
C506 C507 1.391 . S
C506 C511 1.391 . S
C507 H489 0.941 1_565 S
C507 C506 1.391 . S
C507 C508 1.396 . S
C508 H492 0.948 . S
C508 C507 1.396 . S
C508 C509 1.397 . S
C509 C508 1.397 . S
C509 C510 1.385 . S
C510 H493 0.940 . S
C510 C509 1.385 . S
C510 C511 1.388 . S
C511 H490 0.939 . S
C511 C506 1.391 . S
C511 C510 1.388 . S
P512 O523 1.490 . S
P512 C526 1.812 . S
P512 C532 1.803 . S
P512 C538 1.819 . S
H513 C527 0.941 . S
H514 C528 0.939 . S
H515 C530 0.940 . S
H516 C531 0.940 . S
H517 C533 0.939 . S
H518 C534 0.942 . S
H519 C536 0.940 . S
H520 C537 0.939 . S
H521 C539 0.941 . S
H522 C543 0.939 . S
O523 P512 1.490 . S
H524 C540 0.939 . S
H525 C542 0.940 . S
C526 P512 1.812 . S
C526 C527 1.389 . S
C526 C531 1.391 . S
C527 H513 0.941 . S
C527 C526 1.389 . S
C527 C528 1.397 . S
C528 H514 0.939 . S
C528 C527 1.397 . S
C528 C529 1.378 . S
C529 C528 1.378 . S
C529 C530 1.378 . S
C530 H515 0.940 . S
C530 C529 1.378 . S
C530 C531 1.396 . S
C531 H516 0.940 . S
C531 C526 1.391 . S
C531 C530 1.396 . S
C532 P512 1.803 . S
C532 C533 1.378 . S
C532 C537 1.400 . S
C533 H517 0.939 . S
C533 C532 1.378 . S
C533 C534 1.361 . S
C534 H518 0.942 . S
C534 C533 1.361 . S
C534 C535 1.369 . S
C535 C534 1.369 . S
C535 C536 1.404 . S
C536 H519 0.940 . S
C536 C535 1.404 . S
C536 C537 1.389 . S
C537 H520 0.939 . S
C537 C532 1.400 . S
C537 C536 1.389 . S
C538 P512 1.819 . S
C538 C539 1.391 . S
C538 C543 1.391 . S
C539 H521 0.941 . S
C539 C538 1.391 . S
C539 C540 1.396 . S
C540 H524 0.939 . S
C540 C539 1.396 . S
C540 C541 1.397 . S
C541 C540 1.397 . S
C541 C542 1.385 . S
C542 H525 0.940 . S
C542 C541 1.385 . S
C542 C543 1.388 . S
C543 H522 0.939 . S
C543 C538 1.391 . S
C543 C542 1.388 . S
P544 O555 1.490 . S
P544 C558 1.812 . S
P544 C564 1.803 . S
P544 C570 1.819 . S
H545 C559 0.941 . S
H546 C560 0.939 . S
H547 C562 0.940 . S
H548 C563 0.940 . S
H549 C565 0.939 . S
H550 C566 0.942 . S
H551 C568 0.940 . S
H552 C569 0.939 . S
H553 C571 0.941 . S
H554 C575 0.939 . S
O555 P544 1.490 . S
H556 C572 0.939 . S
H557 C574 0.940 . S
C558 P544 1.812 . S
C558 C559 1.389 . S
C558 C563 1.391 . S
C559 H545 0.941 . S
C559 C558 1.389 . S
C559 C560 1.397 . S
C560 H546 0.939 . S
C560 C559 1.397 . S
C560 C561 1.378 . S
C561 C560 1.378 . S
C561 C562 1.378 . S
C562 H547 0.940 . S
C562 C561 1.378 . S
C562 C563 1.396 . S
C563 H548 0.940 . S
C563 C558 1.391 . S
C563 C562 1.396 . S
C564 P544 1.803 . S
C564 C565 1.378 . S
C564 C569 1.400 . S
C565 H549 0.939 . S
C565 C564 1.378 . S
C565 C566 1.361 . S
C566 H550 0.942 . S
C566 C565 1.361 . S
C566 C567 1.369 . S
C567 C566 1.369 . S
C567 C568 1.404 . S
C568 H551 0.940 . S
C568 C567 1.404 . S
C568 C569 1.389 . S
C569 H552 0.939 . S
C569 C564 1.400 . S
C569 C568 1.389 . S
C570 P544 1.819 . S
C570 C571 1.391 . S
C570 C575 1.391 . S
C571 H553 0.941 . S
C571 C570 1.391 . S
C571 C572 1.396 . S
C572 H556 0.939 . S
C572 C571 1.396 . S
C572 C573 1.397 . S
C573 C572 1.397 . S
C573 C574 1.385 . S
C574 H557 0.940 . S
C574 C573 1.385 . S
C574 C575 1.388 . S
C575 H554 0.939 . S
C575 C570 1.391 . S
C575 C574 1.388 . S
Tb576 N607 2.660 . S
Tb576 N614 2.600 . S
Tb576 O620 2.546 . S
Tb576 O621 2.610 1_565 S
Tb576 O623 2.320 1_565 S
Tb576 O624 2.552 1_565 S
Tb576 O625 2.413 . S
Tb576 O627 2.362 1_556 S
Tb576 O628 2.421 . S
Tb576 C640 2.833 . S
C577 C580 1.432 . S
C577 C581 1.414 . S
C577 N584 1.359 . S
C578 C580 1.417 . S
C578 C582 1.432 . S
C578 C590 1.410 . S
C579 C581 1.444 . S
C579 C582 1.317 . S
C579 H602 0.929 . S
C580 C577 1.432 . S
C580 C578 1.417 . S
C580 N588 1.360 . S
C581 C577 1.414 . S
C581 C579 1.444 . S
C581 C586 1.385 . S
C582 C578 1.432 . S
C582 C579 1.317 . S
C582 H594 0.930 . S
C583 C585 1.392 . S
C583 C586 1.370 . S
C583 H595 0.931 . S
N584 C577 1.359 . S
N584 C585 1.327 . S
N584 Tb587 2.600 . S
C585 C583 1.392 . S
C585 N584 1.327 . S
C585 H592 0.930 . S
C586 C581 1.385 . S
C586 C583 1.370 . S
C586 H605 0.930 . S
Tb587 N584 2.600 . S
Tb587 N588 2.660 . S
Tb587 O621 2.362 1_554 S
Tb587 O622 2.421 . S
Tb587 O626 2.546 . S
Tb587 O627 2.610 1_545 S
Tb587 O629 2.320 1_545 S
Tb587 O630 2.552 1_545 S
Tb587 O631 2.413 . S
Tb587 C651 2.833 . S
N588 C580 1.360 . S
N588 Tb587 2.660 . S
N588 C589 1.305 . S
C589 N588 1.305 . S
C589 C591 1.407 . S
C589 H596 0.930 . S
C590 C578 1.410 . S
C590 C591 1.345 . S
C590 H598 0.930 . S
C591 C589 1.407 . S
C591 C590 1.345 . S
C591 H593 0.930 . S
H592 C585 0.930 . S
H593 C591 0.930 . S
H594 C582 0.930 . S
H595 C583 0.931 . S
H596 C589 0.930 . S
H597 C611 0.930 . S
H598 C590 0.930 . S
H599 C617 0.930 . S
H600 C608 0.930 . S
H601 C615 0.931 . S
H602 C579 0.929 . S
H603 C609 0.930 . S
H604 C642 0.930 . S
H605 C586 0.930 . S
H606 C641 0.929 . S
N607 Tb576 2.660 . S
N607 C608 1.305 . S
N607 C612 1.360 . S
C608 H600 0.930 . S
C608 N607 1.305 . S
C608 C611 1.407 . S
C609 H603 0.930 . S
C609 C610 1.410 . S
C609 C611 1.345 . S
C610 C609 1.410 . S
C610 C612 1.417 . S
C610 C642 1.432 . S
C611 H597 0.930 . S
C611 C608 1.407 . S
C611 C609 1.345 . S
C612 N607 1.360 . S
C612 C610 1.417 . S
C612 C616 1.432 . S
H613 C618 0.930 . S
N614 Tb576 2.600 . S
N614 C616 1.359 . S
N614 C617 1.327 . S
C615 H601 0.931 . S
C615 C617 1.392 . S
C615 C618 1.370 . S
C616 C612 1.432 . S
C616 N614 1.359 . S
C616 C619 1.414 . S
C617 H599 0.930 . S
C617 N614 1.327 . S
C617 C615 1.392 . S
C618 H613 0.930 . S
C618 C615 1.370 . S
C618 C619 1.385 . S
C619 C616 1.414 . S
C619 C618 1.385 . S
C619 C641 1.444 . S
O620 Tb576 2.546 . S
O620 C640 1.251 . S
O621 Tb576 2.610 1_545 S
O621 Tb587 2.362 1_556 S
O621 C632 1.283 . S
O622 Tb587 2.421 . S
O622 C639 1.262 1_554 S
O623 Tb576 2.320 1_545 S
O623 C639 1.260 . S
O624 Tb576 2.552 1_545 S
O624 C632 1.243 . S
O625 Tb576 2.413 . S
O625 C640 1.256 . S
O626 Tb587 2.546 . S
O626 C651 1.251 . S
O627 Tb576 2.362 1_554 S
O627 Tb587 2.610 1_565 S
O627 C643 1.283 . S
O628 Tb576 2.421 . S
O628 C650 1.262 1_556 S
O629 Tb587 2.320 1_565 S
O629 C650 1.260 . S
O630 Tb587 2.552 1_565 S
O630 C643 1.243 . S
O631 Tb587 2.413 . S
O631 C651 1.256 . S
C632 O621 1.283 . S
C632 O624 1.243 . S
C633 C635 1.382 1_565 S
C633 C637 1.393 . S
C633 C640 1.500 . S
C634 C635 1.400 . S
C634 C636 1.384 1_545 S
C635 C633 1.382 1_545 S
C635 C634 1.400 . S
C635 H652 0.930 . S
C636 C634 1.384 1_565 S
C636 C638 1.392 . S
C636 H653 0.931 . S
C637 C633 1.393 . S
C637 C638 1.401 . S
C637 H654 0.930 . S
C638 C636 1.392 . S
C638 C637 1.401 . S
C638 H655 0.930 . S
C639 O622 1.262 1_556 S
C639 O623 1.260 . S
C640 Tb576 2.833 . S
C640 O620 1.251 . S
C640 O625 1.256 . S
C640 C633 1.500 . S
C641 H606 0.929 . S
C641 C619 1.444 . S
C641 C642 1.317 . S
C642 H604 0.930 . S
C642 C610 1.432 . S
C642 C641 1.317 . S
C643 O627 1.283 . S
C643 O630 1.243 . S
C644 C645 1.382 1_545 S
C644 C648 1.393 . S
C644 C651 1.500 . S
C645 C644 1.382 1_565 S
C645 C646 1.400 . S
C645 H656 0.930 . S
C646 C645 1.400 . S
C646 C647 1.384 1_565 S
C647 C646 1.384 1_545 S
C647 C649 1.392 . S
C647 H657 0.931 . S
C648 C644 1.393 . S
C648 C649 1.401 . S
C648 H658 0.930 . S
C649 C647 1.392 . S
C649 C648 1.401 . S
C649 H659 0.930 . S
C650 O628 1.262 1_554 S
C650 O629 1.260 . S
C651 Tb587 2.833 . S
C651 O626 1.251 . S
C651 O631 1.256 . S
C651 C644 1.500 . S
H652 C635 0.930 . S
H653 C636 0.931 . S
H654 C637 0.930 . S
H655 C638 0.930 . S
H656 C645 0.930 . S
H657 C647 0.931 . S
H658 C648 0.930 . S
H659 C649 0.930 . S
Tb660 N691 2.660 . S
Tb660 N698 2.600 . S
Tb660 O704 2.546 . S
Tb660 O705 2.610 1_455 S
Tb660 O707 2.320 1_455 S
Tb660 O708 2.552 1_455 S
Tb660 O709 2.413 . S
Tb660 O711 2.362 1_556 S
Tb660 O712 2.421 . S
Tb660 C724 2.833 . S
C661 C664 1.432 . S
C661 C665 1.414 . S
C661 N668 1.359 . S
C662 C664 1.417 . S
C662 C666 1.432 . S
C662 C674 1.410 . S
C663 C665 1.444 . S
C663 C666 1.317 . S
C663 H686 0.929 . S
C664 C661 1.432 . S
C664 C662 1.417 . S
C664 N672 1.360 . S
C665 C661 1.414 . S
C665 C663 1.444 . S
C665 C670 1.385 . S
C666 C662 1.432 . S
C666 C663 1.317 . S
C666 H678 0.930 . S
C667 C669 1.392 . S
C667 C670 1.370 . S
C667 H679 0.931 . S
N668 C661 1.359 . S
N668 C669 1.327 . S
N668 Tb671 2.600 . S
C669 C667 1.392 . S
C669 N668 1.327 . S
C669 H676 0.930 . S
C670 C665 1.385 . S
C670 C667 1.370 . S
C670 H689 0.930 . S
Tb671 N668 2.600 . S
Tb671 N672 2.660 . S
Tb671 O705 2.362 1_554 S
Tb671 O706 2.421 . S
Tb671 O710 2.546 . S
Tb671 O711 2.610 1_655 S
Tb671 O713 2.320 1_655 S
Tb671 O714 2.552 1_655 S
Tb671 O715 2.413 . S
Tb671 C735 2.833 . S
N672 C664 1.360 . S
N672 Tb671 2.660 . S
N672 C673 1.305 . S
C673 N672 1.305 . S
C673 C675 1.407 . S
C673 H680 0.930 . S
C674 C662 1.410 . S
C674 C675 1.345 . S
C674 H682 0.930 . S
C675 C673 1.407 . S
C675 C674 1.345 . S
C675 H677 0.930 . S
H676 C669 0.930 . S
H677 C675 0.930 . S
H678 C666 0.930 . S
H679 C667 0.931 . S
H680 C673 0.930 . S
H681 C695 0.930 . S
H682 C674 0.930 . S
H683 C701 0.930 . S
H684 C692 0.930 . S
H685 C699 0.931 . S
H686 C663 0.929 . S
H687 C693 0.930 . S
H688 C726 0.930 . S
H689 C670 0.930 . S
H690 C725 0.929 . S
N691 Tb660 2.660 . S
N691 C692 1.305 . S
N691 C696 1.360 . S
C692 H684 0.930 . S
C692 N691 1.305 . S
C692 C695 1.407 . S
C693 H687 0.930 . S
C693 C694 1.410 . S
C693 C695 1.345 . S
C694 C693 1.410 . S
C694 C696 1.417 . S
C694 C726 1.432 . S
C695 H681 0.930 . S
C695 C692 1.407 . S
C695 C693 1.345 . S
C696 N691 1.360 . S
C696 C694 1.417 . S
C696 C700 1.432 . S
H697 C702 0.930 . S
N698 Tb660 2.600 . S
N698 C700 1.359 . S
N698 C701 1.327 . S
C699 H685 0.931 . S
C699 C701 1.392 . S
C699 C702 1.370 . S
C700 C696 1.432 . S
C700 N698 1.359 . S
C700 C703 1.414 . S
C701 H683 0.930 . S
C701 N698 1.327 . S
C701 C699 1.392 . S
C702 H697 0.930 . S
C702 C699 1.370 . S
C702 C703 1.385 . S
C703 C700 1.414 . S
C703 C702 1.385 . S
C703 C725 1.444 . S
O704 Tb660 2.546 . S
O704 C724 1.251 . S
O705 Tb660 2.610 1_655 S
O705 Tb671 2.362 1_556 S
O705 C716 1.283 . S
O706 Tb671 2.421 . S
O706 C723 1.262 1_554 S
O707 Tb660 2.320 1_655 S
O707 C723 1.260 . S
O708 Tb660 2.552 1_655 S
O708 C716 1.243 . S
O709 Tb660 2.413 . S
O709 C724 1.256 . S
O710 Tb671 2.546 . S
O710 C735 1.251 . S
O711 Tb660 2.362 1_554 S
O711 Tb671 2.610 1_455 S
O711 C727 1.283 . S
O712 Tb660 2.421 . S
O712 C734 1.262 1_556 S
O713 Tb671 2.320 1_455 S
O713 C734 1.260 . S
O714 Tb671 2.552 1_455 S
O714 C727 1.243 . S
O715 Tb671 2.413 . S
O715 C735 1.256 . S
C716 O705 1.283 . S
C716 O708 1.243 . S
C717 C719 1.382 1_455 S
C717 C721 1.393 . S
C717 C724 1.500 . S
C718 C719 1.400 . S
C718 C720 1.384 1_655 S
C719 C717 1.382 1_655 S
C719 C718 1.400 . S
C719 H736 0.930 . S
C720 C718 1.384 1_455 S
C720 C722 1.392 . S
C720 H737 0.931 . S
C721 C717 1.393 . S
C721 C722 1.401 . S
C721 H738 0.930 . S
C722 C720 1.392 . S
C722 C721 1.401 . S
C722 H739 0.930 . S
C723 O706 1.262 1_556 S
C723 O707 1.260 . S
C724 Tb660 2.833 . S
C724 O704 1.251 . S
C724 O709 1.256 . S
C724 C717 1.500 . S
C725 H690 0.929 . S
C725 C703 1.444 . S
C725 C726 1.317 . S
C726 H688 0.930 . S
C726 C694 1.432 . S
C726 C725 1.317 . S
C727 O711 1.283 . S
C727 O714 1.243 . S
C728 C729 1.382 1_655 S
C728 C732 1.393 . S
C728 C735 1.500 . S
C729 C728 1.382 1_455 S
C729 C730 1.400 . S
C729 H740 0.930 . S
C730 C729 1.400 . S
C730 C731 1.384 1_455 S
C731 C730 1.384 1_655 S
C731 C733 1.392 . S
C731 H741 0.931 . S
C732 C728 1.393 . S
C732 C733 1.401 . S
C732 H742 0.930 . S
C733 C731 1.392 . S
C733 C732 1.401 . S
C733 H743 0.930 . S
C734 O712 1.262 1_554 S
C734 O713 1.260 . S
C735 Tb671 2.833 . S
C735 O710 1.251 . S
C735 O715 1.256 . S
C735 C728 1.500 . S
H736 C719 0.930 . S
H737 C720 0.931 . S
H738 C721 0.930 . S
H739 C722 0.930 . S
H740 C729 0.930 . S
H741 C731 0.931 . S
H742 C732 0.930 . S
H743 C733 0.930 . S
Tb744 N775 2.660 . S
Tb744 N782 2.600 . S
Tb744 O788 2.546 . S
Tb744 O789 2.610 . S
Tb744 O791 2.320 . S
Tb744 O792 2.552 . S
Tb744 O793 2.413 . S
Tb744 O795 2.362 1_554 S
Tb744 O796 2.421 . S
Tb744 C808 2.833 . S
C745 C748 1.432 . S
C745 C749 1.414 . S
C745 N752 1.359 . S
C746 C748 1.417 . S
C746 C750 1.432 . S
C746 C758 1.410 . S
C747 C749 1.444 . S
C747 C750 1.317 . S
C747 H770 0.929 . S
C748 C745 1.432 . S
C748 C746 1.417 . S
C748 N756 1.360 . S
C749 C745 1.414 . S
C749 C747 1.444 . S
C749 C754 1.385 . S
C750 C746 1.432 . S
C750 C747 1.317 . S
C750 H762 0.930 . S
C751 C753 1.392 . S
C751 C754 1.370 . S
C751 H763 0.931 . S
N752 C745 1.359 . S
N752 C753 1.327 . S
N752 Tb755 2.600 . S
C753 C751 1.392 . S
C753 N752 1.327 . S
C753 H760 0.930 . S
C754 C749 1.385 . S
C754 C751 1.370 . S
C754 H773 0.930 . S
Tb755 N752 2.600 . S
Tb755 N756 2.660 . S
Tb755 O789 2.362 1_556 S
Tb755 O790 2.421 . S
Tb755 O794 2.546 . S
Tb755 O795 2.610 . S
Tb755 O797 2.320 . S
Tb755 O798 2.552 . S
Tb755 O799 2.413 . S
Tb755 C819 2.833 . S
N756 C748 1.360 . S
N756 Tb755 2.660 . S
N756 C757 1.305 . S
C757 N756 1.305 . S
C757 C759 1.407 . S
C757 H764 0.930 . S
C758 C746 1.410 . S
C758 C759 1.345 . S
C758 H766 0.930 . S
C759 C757 1.407 . S
C759 C758 1.345 . S
C759 H761 0.930 . S
H760 C753 0.930 . S
H761 C759 0.930 . S
H762 C750 0.930 . S
H763 C751 0.931 . S
H764 C757 0.930 . S
H765 C779 0.930 . S
H766 C758 0.930 . S
H767 C785 0.930 . S
H768 C776 0.930 . S
H769 C783 0.931 . S
H770 C747 0.929 . S
H771 C777 0.930 . S
H772 C810 0.930 . S
H773 C754 0.930 . S
H774 C809 0.929 . S
N775 Tb744 2.660 . S
N775 C776 1.305 . S
N775 C780 1.360 . S
C776 H768 0.930 . S
C776 N775 1.305 . S
C776 C779 1.407 . S
C777 H771 0.930 . S
C777 C778 1.410 . S
C777 C779 1.345 . S
C778 C777 1.410 . S
C778 C780 1.417 . S
C778 C810 1.432 . S
C779 H765 0.930 . S
C779 C776 1.407 . S
C779 C777 1.345 . S
C780 N775 1.360 . S
C780 C778 1.417 . S
C780 C784 1.432 . S
H781 C786 0.930 . S
N782 Tb744 2.600 . S
N782 C784 1.359 . S
N782 C785 1.327 . S
C783 H769 0.931 . S
C783 C785 1.392 . S
C783 C786 1.370 . S
C784 C780 1.432 . S
C784 N782 1.359 . S
C784 C787 1.414 . S
C785 H767 0.930 . S
C785 N782 1.327 . S
C785 C783 1.392 . S
C786 H781 0.930 . S
C786 C783 1.370 . S
C786 C787 1.385 . S
C787 C784 1.414 . S
C787 C786 1.385 . S
C787 C809 1.444 . S
O788 Tb744 2.546 . S
O788 C808 1.251 . S
O789 Tb744 2.610 . S
O789 Tb755 2.362 1_554 S
O789 C800 1.283 . S
O790 Tb755 2.421 . S
O790 C807 1.262 1_556 S
O791 Tb744 2.320 . S
O791 C807 1.260 . S
O792 Tb744 2.552 . S
O792 C800 1.243 . S
O793 Tb744 2.413 . S
O793 C808 1.256 . S
O794 Tb755 2.546 . S
O794 C819 1.251 . S
O795 Tb744 2.362 1_556 S
O795 Tb755 2.610 . S
O795 C811 1.283 . S
O796 Tb744 2.421 . S
O796 C818 1.262 1_554 S
O797 Tb755 2.320 . S
O797 C818 1.260 . S
O798 Tb755 2.552 . S
O798 C811 1.243 . S
O799 Tb755 2.413 . S
O799 C819 1.256 . S
C800 O789 1.283 . S
C800 O792 1.243 . S
C801 C803 1.382 . S
C801 C805 1.393 . S
C801 C808 1.500 . S
C802 C803 1.400 . S
C802 C804 1.384 . S
C803 C801 1.382 . S
C803 C802 1.400 . S
C803 H820 0.930 . S
C804 C802 1.384 . S
C804 C806 1.392 . S
C804 H821 0.931 . S
C805 C801 1.393 . S
C805 C806 1.401 . S
C805 H822 0.930 . S
C806 C804 1.392 . S
C806 C805 1.401 . S
C806 H823 0.930 . S
C807 O790 1.262 1_554 S
C807 O791 1.260 . S
C808 Tb744 2.833 . S
C808 O788 1.251 . S
C808 O793 1.256 . S
C808 C801 1.500 . S
C809 H774 0.929 . S
C809 C787 1.444 . S
C809 C810 1.317 . S
C810 H772 0.930 . S
C810 C778 1.432 . S
C810 C809 1.317 . S
C811 O795 1.283 . S
C811 O798 1.243 . S
C812 C813 1.382 . S
C812 C816 1.393 . S
C812 C819 1.500 . S
C813 C812 1.382 . S
C813 C814 1.400 . S
C813 H824 0.930 . S
C814 C813 1.400 . S
C814 C815 1.384 . S
C815 C814 1.384 . S
C815 C817 1.392 . S
C815 H825 0.931 . S
C816 C812 1.393 . S
C816 C817 1.401 . S
C816 H826 0.930 . S
C817 C815 1.392 . S
C817 C816 1.401 . S
C817 H827 0.930 . S
C818 O796 1.262 1_556 S
C818 O797 1.260 . S
C819 Tb755 2.833 . S
C819 O794 1.251 . S
C819 O799 1.256 . S
C819 C812 1.500 . S
H820 C803 0.930 . S
H821 C804 0.931 . S
H822 C805 0.930 . S
H823 C806 0.930 . S
H824 C813 0.930 . S
H825 C815 0.931 . S
H826 C816 0.930 . S
H827 C817 0.930 . S
Tb828 N859 2.660 . S
Tb828 N866 2.600 . S
Tb828 O872 2.546 . S
Tb828 O873 2.610 . S
Tb828 O875 2.320 . S
Tb828 O876 2.552 . S
Tb828 O877 2.413 . S
Tb828 O879 2.362 . S
Tb828 O880 2.421 . S
Tb828 C892 2.833 . S
C829 C832 1.432 . S
C829 C833 1.414 . S
C829 N836 1.359 . S
C830 C832 1.417 . S
C830 C834 1.432 . S
C830 C842 1.410 . S
C831 C833 1.444 . S
C831 C834 1.317 . S
C831 H854 0.929 . S
C832 C829 1.432 . S
C832 C830 1.417 . S
C832 N840 1.360 . S
C833 C829 1.414 . S
C833 C831 1.444 . S
C833 C838 1.385 . S
C834 C830 1.432 . S
C834 C831 1.317 . S
C834 H846 0.930 . S
C835 C837 1.392 . S
C835 C838 1.370 . S
C835 H847 0.931 . S
N836 C829 1.359 . S
N836 C837 1.327 . S
N836 Tb839 2.600 . S
C837 C835 1.392 . S
C837 N836 1.327 . S
C837 H844 0.930 . S
C838 C833 1.385 . S
C838 C835 1.370 . S
C838 H857 0.930 . S
Tb839 N836 2.600 . S
Tb839 N840 2.660 . S
Tb839 O873 2.362 . S
Tb839 O874 2.421 . S
Tb839 O878 2.546 . S
Tb839 O879 2.610 . S
Tb839 O881 2.320 . S
Tb839 O882 2.552 . S
Tb839 O883 2.413 . S
Tb839 C903 2.833 . S
N840 C832 1.360 . S
N840 Tb839 2.660 . S
N840 C841 1.305 . S
C841 N840 1.305 . S
C841 C843 1.407 . S
C841 H848 0.930 . S
C842 C830 1.410 . S
C842 C843 1.345 . S
C842 H850 0.930 . S
C843 C841 1.407 . S
C843 C842 1.345 . S
C843 H845 0.930 . S
H844 C837 0.930 . S
H845 C843 0.930 . S
H846 C834 0.930 . S
H847 C835 0.931 . S
H848 C841 0.930 . S
H849 C863 0.930 . S
H850 C842 0.930 . S
H851 C869 0.930 . S
H852 C860 0.930 . S
H853 C867 0.931 . S
H854 C831 0.929 . S
H855 C861 0.930 . S
H856 C894 0.930 . S
H857 C838 0.930 . S
H858 C893 0.929 . S
N859 Tb828 2.660 . S
N859 C860 1.305 . S
N859 C864 1.360 . S
C860 H852 0.930 . S
C860 N859 1.305 . S
C860 C863 1.407 1_455 S
C861 H855 0.930 . S
C861 C862 1.410 . S
C861 C863 1.345 . S
C862 C861 1.410 . S
C862 C864 1.417 1_655 S
C862 C894 1.432 . S
C863 H849 0.930 . S
C863 C860 1.407 1_655 S
C863 C861 1.345 . S
C864 N859 1.360 . S
C864 C862 1.417 1_455 S
C864 C868 1.432 . S
H865 C870 0.930 . S
N866 Tb828 2.600 . S
N866 C868 1.359 . S
N866 C869 1.327 . S
C867 H853 0.931 . S
C867 C869 1.392 . S
C867 C870 1.370 . S
C868 C864 1.432 . S
C868 N866 1.359 . S
C868 C871 1.414 . S
C869 H851 0.930 . S
C869 N866 1.327 . S
C869 C867 1.392 . S
C870 H865 0.930 . S
C870 C867 1.370 . S
C870 C871 1.385 . S
C871 C868 1.414 . S
C871 C870 1.385 . S
C871 C893 1.444 1_455 S
O872 Tb828 2.546 . S
O872 C892 1.251 . S
O873 Tb828 2.610 . S
O873 Tb839 2.362 . S
O873 C884 1.283 . S
O874 Tb839 2.421 . S
O874 C891 1.262 . S
O875 Tb828 2.320 . S
O875 C891 1.260 . S
O876 Tb828 2.552 . S
O876 C884 1.243 . S
O877 Tb828 2.413 . S
O877 C892 1.256 . S
O878 Tb839 2.546 . S
O878 C903 1.251 . S
O879 Tb828 2.362 . S
O879 Tb839 2.610 . S
O879 C895 1.283 . S
O880 Tb828 2.421 . S
O880 C902 1.262 . S
O881 Tb839 2.320 . S
O881 C902 1.260 . S
O882 Tb839 2.552 . S
O882 C895 1.243 . S
O883 Tb839 2.413 . S
O883 C903 1.256 . S
C884 O873 1.283 . S
C884 O876 1.243 . S
C885 C887 1.382 . S
C885 C889 1.393 . S
C885 C892 1.500 . S
C886 C887 1.400 . S
C886 C888 1.384 . S
C887 C885 1.382 . S
C887 C886 1.400 . S
C887 H904 0.930 . S
C888 C886 1.384 . S
C888 C890 1.392 . S
C888 H905 0.931 . S
C889 C885 1.393 . S
C889 C890 1.401 . S
C889 H906 0.930 . S
C890 C888 1.392 . S
C890 C889 1.401 . S
C890 H907 0.930 . S
C891 O874 1.262 . S
C891 O875 1.260 . S
C892 Tb828 2.833 . S
C892 O872 1.251 . S
C892 O877 1.256 . S
C892 C885 1.500 . S
C893 H858 0.929 . S
C893 C871 1.444 1_655 S
C893 C894 1.317 . S
C894 H856 0.930 . S
C894 C862 1.432 . S
C894 C893 1.317 . S
C895 O879 1.283 . S
C895 O882 1.243 . S
C896 C897 1.382 . S
C896 C900 1.393 . S
C896 C903 1.500 . S
C897 C896 1.382 . S
C897 C898 1.400 . S
C897 H908 0.930 . S
C898 C897 1.400 . S
C898 C899 1.384 . S
C899 C898 1.384 . S
C899 C901 1.392 . S
C899 H909 0.931 . S
C900 C896 1.393 . S
C900 C901 1.401 . S
C900 H910 0.930 . S
C901 C899 1.392 . S
C901 C900 1.401 . S
C901 H911 0.930 . S
C902 O880 1.262 . S
C902 O881 1.260 . S
C903 Tb839 2.833 . S
C903 O878 1.251 . S
C903 O883 1.256 . S
C903 C896 1.500 . S
H904 C887 0.930 . S
H905 C888 0.931 . S
H906 C889 0.930 . S
H907 C890 0.930 . S
H908 C897 0.930 . S
H909 C899 0.931 . S
H910 C900 0.930 . S
H911 C901 0.930 . S
Tb912 N943 2.660 . S
Tb912 N950 2.600 . S
Tb912 O956 2.546 . S
Tb912 O957 2.610 . S
Tb912 O959 2.320 . S
Tb912 O960 2.552 . S
Tb912 O961 2.413 . S
Tb912 O963 2.362 . S
Tb912 O964 2.421 . S
Tb912 C976 2.833 . S
C913 C916 1.432 . S
C913 C917 1.414 . S
C913 N920 1.359 . S
C914 C916 1.417 . S
C914 C918 1.432 . S
C914 C926 1.410 . S
C915 C917 1.444 . S
C915 C918 1.317 . S
C915 H938 0.929 . S
C916 C913 1.432 . S
C916 C914 1.417 . S
C916 N924 1.360 . S
C917 C913 1.414 . S
C917 C915 1.444 . S
C917 C922 1.385 . S
C918 C914 1.432 . S
C918 C915 1.317 . S
C918 H930 0.930 . S
C919 C921 1.392 . S
C919 C922 1.370 . S
C919 H931 0.931 . S
N920 C913 1.359 . S
N920 C921 1.327 . S
N920 Tb923 2.600 . S
C921 C919 1.392 . S
C921 N920 1.327 . S
C921 H928 0.930 . S
C922 C917 1.385 . S
C922 C919 1.370 . S
C922 H941 0.930 . S
Tb923 N920 2.600 . S
Tb923 N924 2.660 . S
Tb923 O957 2.362 . S
Tb923 O958 2.421 . S
Tb923 O962 2.546 . S
Tb923 O963 2.610 . S
Tb923 O965 2.320 . S
Tb923 O966 2.552 . S
Tb923 O967 2.413 . S
Tb923 C987 2.833 . S
N924 C916 1.360 . S
N924 Tb923 2.660 . S
N924 C925 1.305 . S
C925 N924 1.305 . S
C925 C927 1.407 . S
C925 H932 0.930 . S
C926 C914 1.410 . S
C926 C927 1.345 . S
C926 H934 0.930 . S
C927 C925 1.407 . S
C927 C926 1.345 . S
C927 H929 0.930 . S
H928 C921 0.930 . S
H929 C927 0.930 . S
H930 C918 0.930 . S
H931 C919 0.931 . S
H932 C925 0.930 . S
H933 C947 0.930 . S
H934 C926 0.930 . S
H935 C953 0.930 . S
H936 C944 0.930 . S
H937 C951 0.931 1_545 S
H938 C915 0.929 . S
H939 C945 0.930 . S
H940 C978 0.930 . S
H941 C922 0.930 . S
H942 C977 0.929 . S
N943 Tb912 2.660 . S
N943 C944 1.305 . S
N943 C948 1.360 . S
C944 H936 0.930 . S
C944 N943 1.305 . S
C944 C947 1.407 . S
C945 H939 0.930 . S
C945 C946 1.410 . S
C945 C947 1.345 . S
C946 C945 1.410 . S
C946 C948 1.417 . S
C946 C978 1.432 . S
C947 H933 0.930 . S
C947 C944 1.407 . S
C947 C945 1.345 . S
C948 N943 1.360 . S
C948 C946 1.417 . S
C948 C952 1.432 . S
H949 C954 0.930 . S
N950 Tb912 2.600 . S
N950 C952 1.359 . S
N950 C953 1.327 . S
C951 H937 0.931 1_565 S
C951 C953 1.392 . S
C951 C954 1.370 . S
C952 C948 1.432 . S
C952 N950 1.359 . S
C952 C955 1.414 . S
C953 H935 0.930 . S
C953 N950 1.327 . S
C953 C951 1.392 . S
C954 H949 0.930 . S
C954 C951 1.370 . S
C954 C955 1.385 . S
C955 C952 1.414 . S
C955 C954 1.385 . S
C955 C977 1.444 . S
O956 Tb912 2.546 . S
O956 C976 1.251 . S
O957 Tb912 2.610 . S
O957 Tb923 2.362 . S
O957 C968 1.283 . S
O958 Tb923 2.421 . S
O958 C975 1.262 . S
O959 Tb912 2.320 . S
O959 C975 1.260 . S
O960 Tb912 2.552 . S
O960 C968 1.243 . S
O961 Tb912 2.413 . S
O961 C976 1.256 . S
O962 Tb923 2.546 . S
O962 C987 1.251 . S
O963 Tb912 2.362 . S
O963 Tb923 2.610 . S
O963 C979 1.283 . S
O964 Tb912 2.421 . S
O964 C986 1.262 . S
O965 Tb923 2.320 . S
O965 C986 1.260 . S
O966 Tb923 2.552 . S
O966 C979 1.243 . S
O967 Tb923 2.413 . S
O967 C987 1.256 . S
C968 O957 1.283 . S
C968 O960 1.243 . S
C969 C971 1.382 . S
C969 C973 1.393 . S
C969 C976 1.500 . S
C970 C971 1.400 . S
C970 C972 1.384 . S
C971 C969 1.382 . S
C971 C970 1.400 . S
C971 H988 0.930 . S
C972 C970 1.384 . S
C972 C974 1.392 . S
C972 H989 0.931 . S
C973 C969 1.393 . S
C973 C974 1.401 . S
C973 H990 0.930 . S
C974 C972 1.392 . S
C974 C973 1.401 . S
C974 H991 0.930 . S
C975 O958 1.262 . S
C975 O959 1.260 . S
C976 Tb912 2.833 . S
C976 O956 1.251 . S
C976 O961 1.256 . S
C976 C969 1.500 . S
C977 H942 0.929 . S
C977 C955 1.444 . S
C977 C978 1.317 . S
C978 H940 0.930 . S
C978 C946 1.432 . S
C978 C977 1.317 . S
C979 O963 1.283 . S
C979 O966 1.243 . S
C980 C981 1.382 . S
C980 C984 1.393 . S
C980 C987 1.500 . S
C981 C980 1.382 . S
C981 C982 1.400 . S
C981 H992 0.930 . S
C982 C981 1.400 . S
C982 C983 1.384 . S
C983 C982 1.384 . S
C983 C985 1.392 . S
C983 H993 0.931 . S
C984 C980 1.393 . S
C984 C985 1.401 . S
C984 H994 0.930 . S
C985 C983 1.392 . S
C985 C984 1.401 . S
C985 H995 0.930 . S
C986 O964 1.262 . S
C986 O965 1.260 . S
C987 Tb923 2.833 . S
C987 O962 1.251 . S
C987 O967 1.256 . S
C987 C980 1.500 . S
H988 C971 0.930 . S
H989 C972 0.931 . S
H990 C973 0.930 . S
H991 C974 0.930 . S
H992 C981 0.930 . S
H993 C983 0.931 . S
H994 C984 0.930 . S
H995 C985 0.930 . S
Tb996 N1027 2.660 . S
Tb996 N1034 2.600 . S
Tb996 O1040 2.546 . S
Tb996 O1041 2.610 . S
Tb996 O1043 2.320 . S
Tb996 O1044 2.552 . S
Tb996 O1045 2.413 . S
Tb996 O1047 2.362 . S
Tb996 O1048 2.421 . S
Tb996 C1060 2.833 . S
C997 C1000 1.432 . S
C997 C1001 1.414 . S
C997 N1004 1.359 . S
C998 C1000 1.417 1_655 S
C998 C1002 1.432 . S
C998 C1010 1.410 . S
C999 C1001 1.444 1_655 S
C999 C1002 1.317 . S
C999 H1022 0.929 . S
C1000 C997 1.432 . S
C1000 C998 1.417 1_455 S
C1000 N1008 1.360 . S
C1001 C997 1.414 . S
C1001 C999 1.444 1_455 S
C1001 C1006 1.385 . S
C1002 C998 1.432 . S
C1002 C999 1.317 . S
C1002 H1014 0.930 . S
C1003 C1005 1.392 . S
C1003 C1006 1.370 . S
C1003 H1015 0.931 1_565 S
N1004 C997 1.359 . S
N1004 C1005 1.327 . S
N1004 Tb1007 2.600 . S
C1005 C1003 1.392 . S
C1005 N1004 1.327 . S
C1005 H1012 0.930 . S
C1006 C1001 1.385 . S
C1006 C1003 1.370 . S
C1006 H1025 0.930 . S
Tb1007 N1004 2.600 . S
Tb1007 N1008 2.660 . S
Tb1007 O1041 2.362 . S
Tb1007 O1042 2.421 . S
Tb1007 O1046 2.546 . S
Tb1007 O1047 2.610 . S
Tb1007 O1049 2.320 . S
Tb1007 O1050 2.552 . S
Tb1007 O1051 2.413 . S
Tb1007 C1071 2.833 . S
N1008 C1000 1.360 . S
N1008 Tb1007 2.660 . S
N1008 C1009 1.305 . S
C1009 N1008 1.305 . S
C1009 C1011 1.407 1_455 S
C1009 H1016 0.930 . S
C1010 C998 1.410 . S
C1010 C1011 1.345 . S
C1010 H1018 0.930 . S
C1011 C1009 1.407 1_655 S
C1011 C1010 1.345 . S
C1011 H1013 0.930 . S
H1012 C1005 0.930 . S
H1013 C1011 0.930 . S
H1014 C1002 0.930 . S
H1015 C1003 0.931 1_545 S
H1016 C1009 0.930 . S
H1017 C1031 0.930 . S
H1018 C1010 0.930 . S
H1019 C1037 0.930 . S
H1020 C1028 0.930 . S
H1021 C1035 0.931 . S
H1022 C999 0.929 . S
H1023 C1029 0.930 . S
H1024 C1062 0.930 . S
H1025 C1006 0.930 . S
H1026 C1061 0.929 . S
N1027 Tb996 2.660 . S
N1027 C1028 1.305 . S
N1027 C1032 1.360 . S
C1028 H1020 0.930 . S
C1028 N1027 1.305 . S
C1028 C1031 1.407 . S
C1029 H1023 0.930 . S
C1029 C1030 1.410 . S
C1029 C1031 1.345 . S
C1030 C1029 1.410 . S
C1030 C1032 1.417 . S
C1030 C1062 1.432 . S
C1031 H1017 0.930 . S
C1031 C1028 1.407 . S
C1031 C1029 1.345 . S
C1032 N1027 1.360 . S
C1032 C1030 1.417 . S
C1032 C1036 1.432 . S
H1033 C1038 0.930 . S
N1034 Tb996 2.600 . S
N1034 C1036 1.359 . S
N1034 C1037 1.327 . S
C1035 H1021 0.931 . S
C1035 C1037 1.392 . S
C1035 C1038 1.370 . S
C1036 C1032 1.432 . S
C1036 N1034 1.359 . S
C1036 C1039 1.414 . S
C1037 H1019 0.930 . S
C1037 N1034 1.327 . S
C1037 C1035 1.392 . S
C1038 H1033 0.930 . S
C1038 C1035 1.370 . S
C1038 C1039 1.385 . S
C1039 C1036 1.414 . S
C1039 C1038 1.385 . S
C1039 C1061 1.444 . S
O1040 Tb996 2.546 . S
O1040 C1060 1.251 . S
O1041 Tb996 2.610 . S
O1041 Tb1007 2.362 . S
O1041 C1052 1.283 . S
O1042 Tb1007 2.421 . S
O1042 C1059 1.262 . S
O1043 Tb996 2.320 . S
O1043 C1059 1.260 . S
O1044 Tb996 2.552 . S
O1044 C1052 1.243 . S
O1045 Tb996 2.413 . S
O1045 C1060 1.256 . S
O1046 Tb1007 2.546 . S
O1046 C1071 1.251 . S
O1047 Tb996 2.362 . S
O1047 Tb1007 2.610 . S
O1047 C1063 1.283 . S
O1048 Tb996 2.421 . S
O1048 C1070 1.262 . S
O1049 Tb1007 2.320 . S
O1049 C1070 1.260 . S
O1050 Tb1007 2.552 . S
O1050 C1063 1.243 . S
O1051 Tb1007 2.413 . S
O1051 C1071 1.256 . S
C1052 O1041 1.283 . S
C1052 O1044 1.243 . S
C1053 C1055 1.382 . S
C1053 C1057 1.393 . S
C1053 C1060 1.500 . S
C1054 C1055 1.400 . S
C1054 C1056 1.384 . S
C1055 C1053 1.382 . S
C1055 C1054 1.400 . S
C1055 H1072 0.930 . S
C1056 C1054 1.384 . S
C1056 C1058 1.392 . S
C1056 H1073 0.931 . S
C1057 C1053 1.393 . S
C1057 C1058 1.401 . S
C1057 H1074 0.930 . S
C1058 C1056 1.392 . S
C1058 C1057 1.401 . S
C1058 H1075 0.930 . S
C1059 O1042 1.262 . S
C1059 O1043 1.260 . S
C1060 Tb996 2.833 . S
C1060 O1040 1.251 . S
C1060 O1045 1.256 . S
C1060 C1053 1.500 . S
C1061 H1026 0.929 . S
C1061 C1039 1.444 . S
C1061 C1062 1.317 . S
C1062 H1024 0.930 . S
C1062 C1030 1.432 . S
C1062 C1061 1.317 . S
C1063 O1047 1.283 . S
C1063 O1050 1.243 . S
C1064 C1065 1.382 . S
C1064 C1068 1.393 . S
C1064 C1071 1.500 . S
C1065 C1064 1.382 . S
C1065 C1066 1.400 . S
C1065 H1076 0.930 . S
C1066 C1065 1.400 . S
C1066 C1067 1.384 . S
C1067 C1066 1.384 . S
C1067 C1069 1.392 . S
C1067 H1077 0.931 . S
C1068 C1064 1.393 . S
C1068 C1069 1.401 . S
C1068 H1078 0.930 . S
C1069 C1067 1.392 . S
C1069 C1068 1.401 . S
C1069 H1079 0.930 . S
C1070 O1048 1.262 . S
C1070 O1049 1.260 . S
C1071 Tb1007 2.833 . S
C1071 O1046 1.251 . S
C1071 O1051 1.256 . S
C1071 C1064 1.500 . S
H1072 C1055 0.930 . S
H1073 C1056 0.931 . S
H1074 C1057 0.930 . S
H1075 C1058 0.930 . S
H1076 C1065 0.930 . S
H1077 C1067 0.931 . S
H1078 C1068 0.930 . S
H1079 C1069 0.930 . S
Tb1080 N1111 2.660 . S
Tb1080 N1118 2.600 . S
Tb1080 O1124 2.546 . S
Tb1080 O1125 2.610 . S
Tb1080 O1127 2.320 . S
Tb1080 O1128 2.552 . S
Tb1080 O1129 2.413 . S
Tb1080 O1131 2.362 . S
Tb1080 O1132 2.421 . S
Tb1080 C1144 2.833 . S
C1081 C1084 1.432 . S
C1081 C1085 1.414 . S
C1081 N1088 1.359 . S
C1082 C1084 1.417 1_455 S
C1082 C1086 1.432 . S
C1082 C1094 1.410 . S
C1083 C1085 1.444 1_455 S
C1083 C1086 1.317 . S
C1083 H1106 0.929 . S
C1084 C1081 1.432 . S
C1084 C1082 1.417 1_655 S
C1084 N1092 1.360 . S
C1085 C1081 1.414 . S
C1085 C1083 1.444 1_655 S
C1085 C1090 1.385 . S
C1086 C1082 1.432 . S
C1086 C1083 1.317 . S
C1086 H1098 0.930 . S
C1087 C1089 1.392 . S
C1087 C1090 1.370 . S
C1087 H1099 0.931 . S
N1088 C1081 1.359 . S
N1088 C1089 1.327 . S
N1088 Tb1091 2.600 . S
C1089 C1087 1.392 . S
C1089 N1088 1.327 . S
C1089 H1096 0.930 . S
C1090 C1085 1.385 . S
C1090 C1087 1.370 . S
C1090 H1109 0.930 . S
Tb1091 N1088 2.600 . S
Tb1091 N1092 2.660 . S
Tb1091 O1125 2.362 . S
Tb1091 O1126 2.421 . S
Tb1091 O1130 2.546 . S
Tb1091 O1131 2.610 . S
Tb1091 O1133 2.320 . S
Tb1091 O1134 2.552 . S
Tb1091 O1135 2.413 . S
Tb1091 C1155 2.833 . S
N1092 C1084 1.360 . S
N1092 Tb1091 2.660 . S
N1092 C1093 1.305 . S
C1093 N1092 1.305 . S
C1093 C1095 1.407 1_655 S
C1093 H1100 0.930 . S
C1094 C1082 1.410 . S
C1094 C1095 1.345 . S
C1094 H1102 0.930 . S
C1095 C1093 1.407 1_455 S
C1095 C1094 1.345 . S
C1095 H1097 0.930 . S
H1096 C1089 0.930 . S
H1097 C1095 0.930 . S
H1098 C1086 0.930 . S
H1099 C1087 0.931 . S
H1100 C1093 0.930 . S
H1101 C1115 0.930 . S
H1102 C1094 0.930 . S
H1103 C1121 0.930 . S
H1104 C1112 0.930 . S
H1105 C1119 0.931 . S
H1106 C1083 0.929 . S
H1107 C1113 0.930 . S
H1108 C1146 0.930 . S
H1109 C1090 0.930 . S
H1110 C1145 0.929 . S
N1111 Tb1080 2.660 . S
N1111 C1112 1.305 . S
N1111 C1116 1.360 . S
C1112 H1104 0.930 . S
C1112 N1111 1.305 . S
C1112 C1115 1.407 . S
C1113 H1107 0.930 . S
C1113 C1114 1.410 . S
C1113 C1115 1.345 . S
C1114 C1113 1.410 . S
C1114 C1116 1.417 . S
C1114 C1146 1.432 . S
C1115 H1101 0.930 . S
C1115 C1112 1.407 . S
C1115 C1113 1.345 . S
C1116 N1111 1.360 . S
C1116 C1114 1.417 . S
C1116 C1120 1.432 . S
H1117 C1122 0.930 . S
N1118 Tb1080 2.600 . S
N1118 C1120 1.359 . S
N1118 C1121 1.327 . S
C1119 H1105 0.931 . S
C1119 C1121 1.392 . S
C1119 C1122 1.370 . S
C1120 C1116 1.432 . S
C1120 N1118 1.359 . S
C1120 C1123 1.414 . S
C1121 H1103 0.930 . S
C1121 N1118 1.327 . S
C1121 C1119 1.392 . S
C1122 H1117 0.930 . S
C1122 C1119 1.370 . S
C1122 C1123 1.385 . S
C1123 C1120 1.414 . S
C1123 C1122 1.385 . S
C1123 C1145 1.444 . S
O1124 Tb1080 2.546 . S
O1124 C1144 1.251 . S
O1125 Tb1080 2.610 . S
O1125 Tb1091 2.362 . S
O1125 C1136 1.283 . S
O1126 Tb1091 2.421 . S
O1126 C1143 1.262 . S
O1127 Tb1080 2.320 . S
O1127 C1143 1.260 . S
O1128 Tb1080 2.552 . S
O1128 C1136 1.243 . S
O1129 Tb1080 2.413 . S
O1129 C1144 1.256 . S
O1130 Tb1091 2.546 . S
O1130 C1155 1.251 . S
O1131 Tb1080 2.362 . S
O1131 Tb1091 2.610 . S
O1131 C1147 1.283 . S
O1132 Tb1080 2.421 . S
O1132 C1154 1.262 . S
O1133 Tb1091 2.320 . S
O1133 C1154 1.260 . S
O1134 Tb1091 2.552 . S
O1134 C1147 1.243 . S
O1135 Tb1091 2.413 . S
O1135 C1155 1.256 . S
C1136 O1125 1.283 . S
C1136 O1128 1.243 . S
C1137 C1139 1.382 . S
C1137 C1141 1.393 . S
C1137 C1144 1.500 . S
C1138 C1139 1.400 . S
C1138 C1140 1.384 . S
C1139 C1137 1.382 . S
C1139 C1138 1.400 . S
C1139 H1156 0.930 . S
C1140 C1138 1.384 . S
C1140 C1142 1.392 . S
C1140 H1157 0.931 . S
C1141 C1137 1.393 . S
C1141 C1142 1.401 . S
C1141 H1158 0.930 . S
C1142 C1140 1.392 . S
C1142 C1141 1.401 . S
C1142 H1159 0.930 . S
C1143 O1126 1.262 . S
C1143 O1127 1.260 . S
C1144 Tb1080 2.833 . S
C1144 O1124 1.251 . S
C1144 O1129 1.256 . S
C1144 C1137 1.500 . S
C1145 H1110 0.929 . S
C1145 C1123 1.444 . S
C1145 C1146 1.317 . S
C1146 H1108 0.930 . S
C1146 C1114 1.432 . S
C1146 C1145 1.317 . S
C1147 O1131 1.283 . S
C1147 O1134 1.243 . S
C1148 C1149 1.382 . S
C1148 C1152 1.393 . S
C1148 C1155 1.500 . S
C1149 C1148 1.382 . S
C1149 C1150 1.400 . S
C1149 H1160 0.930 . S
C1150 C1149 1.400 . S
C1150 C1151 1.384 . S
C1151 C1150 1.384 . S
C1151 C1153 1.392 . S
C1151 H1161 0.931 . S
C1152 C1148 1.393 . S
C1152 C1153 1.401 . S
C1152 H1162 0.930 . S
C1153 C1151 1.392 . S
C1153 C1152 1.401 . S
C1153 H1163 0.930 . S
C1154 O1132 1.262 . S
C1154 O1133 1.260 . S
C1155 Tb1091 2.833 . S
C1155 O1130 1.251 . S
C1155 O1135 1.256 . S
C1155 C1148 1.500 . S
H1156 C1139 0.930 . S
H1157 C1140 0.931 . S
H1158 C1141 0.930 . S
H1159 C1142 0.930 . S
H1160 C1149 0.930 . S
H1161 C1151 0.931 . S
H1162 C1152 0.930 . S
H1163 C1153 0.930 . S
Tb1164 N1195 2.660 . S
Tb1164 N1202 2.600 . S
Tb1164 O1208 2.546 . S
Tb1164 O1209 2.610 . S
Tb1164 O1211 2.320 . S
Tb1164 O1212 2.552 . S
Tb1164 O1213 2.413 . S
Tb1164 O1215 2.362 . S
Tb1164 O1216 2.421 . S
Tb1164 C1228 2.833 . S
C1165 C1168 1.432 . S
C1165 C1169 1.414 . S
C1165 N1172 1.359 . S
C1166 C1168 1.417 . S
C1166 C1170 1.432 . S
C1166 C1178 1.410 . S
C1167 C1169 1.444 . S
C1167 C1170 1.317 . S
C1167 H1190 0.929 . S
C1168 C1165 1.432 . S
C1168 C1166 1.417 . S
C1168 N1176 1.360 . S
C1169 C1165 1.414 . S
C1169 C1167 1.444 . S
C1169 C1174 1.385 . S
C1170 C1166 1.432 . S
C1170 C1167 1.317 . S
C1170 H1182 0.930 . S
C1171 C1173 1.392 . S
C1171 C1174 1.370 . S
C1171 H1183 0.931 1_545 S
N1172 C1165 1.359 . S
N1172 C1173 1.327 . S
N1172 Tb1175 2.600 . S
C1173 C1171 1.392 . S
C1173 N1172 1.327 . S
C1173 H1180 0.930 . S
C1174 C1169 1.385 . S
C1174 C1171 1.370 . S
C1174 H1193 0.930 . S
Tb1175 N1172 2.600 . S
Tb1175 N1176 2.660 . S
Tb1175 O1209 2.362 . S
Tb1175 O1210 2.421 . S
Tb1175 O1214 2.546 . S
Tb1175 O1215 2.610 . S
Tb1175 O1217 2.320 . S
Tb1175 O1218 2.552 . S
Tb1175 O1219 2.413 . S
Tb1175 C1239 2.833 . S
N1176 C1168 1.360 . S
N1176 Tb1175 2.660 . S
N1176 C1177 1.305 . S
C1177 N1176 1.305 . S
C1177 C1179 1.407 . S
C1177 H1184 0.930 . S
C1178 C1166 1.410 . S
C1178 C1179 1.345 . S
C1178 H1186 0.930 . S
C1179 C1177 1.407 . S
C1179 C1178 1.345 . S
C1179 H1181 0.930 . S
H1180 C1173 0.930 . S
H1181 C1179 0.930 . S
H1182 C1170 0.930 . S
H1183 C1171 0.931 1_565 S
H1184 C1177 0.930 . S
H1185 C1199 0.930 . S
H1186 C1178 0.930 . S
H1187 C1205 0.930 . S
H1188 C1196 0.930 . S
H1189 C1203 0.931 . S
H1190 C1167 0.929 . S
H1191 C1197 0.930 . S
H1192 C1230 0.930 . S
H1193 C1174 0.930 . S
H1194 C1229 0.929 . S
N1195 Tb1164 2.660 . S
N1195 C1196 1.305 . S
N1195 C1200 1.360 . S
C1196 H1188 0.930 . S
C1196 N1195 1.305 . S
C1196 C1199 1.407 . S
C1197 H1191 0.930 . S
C1197 C1198 1.410 . S
C1197 C1199 1.345 . S
C1198 C1197 1.410 . S
C1198 C1200 1.417 . S
C1198 C1230 1.432 . S
C1199 H1185 0.930 . S
C1199 C1196 1.407 . S
C1199 C1197 1.345 . S
C1200 N1195 1.360 . S
C1200 C1198 1.417 . S
C1200 C1204 1.432 . S
H1201 C1206 0.930 . S
N1202 Tb1164 2.600 . S
N1202 C1204 1.359 . S
N1202 C1205 1.327 . S
C1203 H1189 0.931 . S
C1203 C1205 1.392 . S
C1203 C1206 1.370 . S
C1204 C1200 1.432 . S
C1204 N1202 1.359 . S
C1204 C1207 1.414 . S
C1205 H1187 0.930 . S
C1205 N1202 1.327 . S
C1205 C1203 1.392 . S
C1206 H1201 0.930 . S
C1206 C1203 1.370 . S
C1206 C1207 1.385 . S
C1207 C1204 1.414 . S
C1207 C1206 1.385 . S
C1207 C1229 1.444 . S
O1208 Tb1164 2.546 . S
O1208 C1228 1.251 . S
O1209 Tb1164 2.610 . S
O1209 Tb1175 2.362 . S
O1209 C1220 1.283 . S
O1210 Tb1175 2.421 . S
O1210 C1227 1.262 . S
O1211 Tb1164 2.320 . S
O1211 C1227 1.260 . S
O1212 Tb1164 2.552 . S
O1212 C1220 1.243 . S
O1213 Tb1164 2.413 . S
O1213 C1228 1.256 . S
O1214 Tb1175 2.546 . S
O1214 C1239 1.251 . S
O1215 Tb1164 2.362 . S
O1215 Tb1175 2.610 . S
O1215 C1231 1.283 . S
O1216 Tb1164 2.421 . S
O1216 C1238 1.262 . S
O1217 Tb1175 2.320 . S
O1217 C1238 1.260 . S
O1218 Tb1175 2.552 . S
O1218 C1231 1.243 . S
O1219 Tb1175 2.413 . S
O1219 C1239 1.256 . S
C1220 O1209 1.283 . S
C1220 O1212 1.243 . S
C1221 C1223 1.382 . S
C1221 C1225 1.393 . S
C1221 C1228 1.500 . S
C1222 C1223 1.400 . S
C1222 C1224 1.384 . S
C1223 C1221 1.382 . S
C1223 C1222 1.400 . S
C1223 H1240 0.930 . S
C1224 C1222 1.384 . S
C1224 C1226 1.392 . S
C1224 H1241 0.931 . S
C1225 C1221 1.393 . S
C1225 C1226 1.401 . S
C1225 H1242 0.930 . S
C1226 C1224 1.392 . S
C1226 C1225 1.401 . S
C1226 H1243 0.930 . S
C1227 O1210 1.262 . S
C1227 O1211 1.260 . S
C1228 Tb1164 2.833 . S
C1228 O1208 1.251 . S
C1228 O1213 1.256 . S
C1228 C1221 1.500 . S
C1229 H1194 0.929 . S
C1229 C1207 1.444 . S
C1229 C1230 1.317 . S
C1230 H1192 0.930 . S
C1230 C1198 1.432 . S
C1230 C1229 1.317 . S
C1231 O1215 1.283 . S
C1231 O1218 1.243 . S
C1232 C1233 1.382 . S
C1232 C1236 1.393 . S
C1232 C1239 1.500 . S
C1233 C1232 1.382 . S
C1233 C1234 1.400 . S
C1233 H1244 0.930 . S
C1234 C1233 1.400 . S
C1234 C1235 1.384 . S
C1235 C1234 1.384 . S
C1235 C1237 1.392 . S
C1235 H1245 0.931 . S
C1236 C1232 1.393 . S
C1236 C1237 1.401 . S
C1236 H1246 0.930 . S
C1237 C1235 1.392 . S
C1237 C1236 1.401 . S
C1237 H1247 0.930 . S
C1238 O1216 1.262 . S
C1238 O1217 1.260 . S
C1239 Tb1175 2.833 . S
C1239 O1214 1.251 . S
C1239 O1219 1.256 . S
C1239 C1232 1.500 . S
H1240 C1223 0.930 . S
H1241 C1224 0.931 . S
H1242 C1225 0.930 . S
H1243 C1226 0.930 . S
H1244 C1233 0.930 . S
H1245 C1235 0.931 . S
H1246 C1236 0.930 . S
H1247 C1237 0.930 . S
Tb1248 N1279 2.660 . S
Tb1248 N1286 2.600 . S
Tb1248 O1292 2.546 . S
Tb1248 O1293 2.610 . S
Tb1248 O1295 2.320 . S
Tb1248 O1296 2.552 . S
Tb1248 O1297 2.413 . S
Tb1248 O1299 2.362 . S
Tb1248 O1300 2.421 . S
Tb1248 C1312 2.833 . S
C1249 C1252 1.432 . S
C1249 C1253 1.414 . S
C1249 N1256 1.359 . S
C1250 C1252 1.417 . S
C1250 C1254 1.432 . S
C1250 C1262 1.410 . S
C1251 C1253 1.444 . S
C1251 C1254 1.317 . S
C1251 H1274 0.929 . S
C1252 C1249 1.432 . S
C1252 C1250 1.417 . S
C1252 N1260 1.360 . S
C1253 C1249 1.414 . S
C1253 C1251 1.444 . S
C1253 C1258 1.385 . S
C1254 C1250 1.432 . S
C1254 C1251 1.317 . S
C1254 H1266 0.930 . S
C1255 C1257 1.392 . S
C1255 C1258 1.370 . S
C1255 H1267 0.931 . S
N1256 C1249 1.359 . S
N1256 C1257 1.327 . S
N1256 Tb1259 2.600 . S
C1257 C1255 1.392 . S
C1257 N1256 1.327 . S
C1257 H1264 0.930 . S
C1258 C1253 1.385 . S
C1258 C1255 1.370 . S
C1258 H1277 0.930 . S
Tb1259 N1256 2.600 . S
Tb1259 N1260 2.660 . S
Tb1259 O1293 2.362 . S
Tb1259 O1294 2.421 . S
Tb1259 O1298 2.546 . S
Tb1259 O1299 2.610 . S
Tb1259 O1301 2.320 . S
Tb1259 O1302 2.552 . S
Tb1259 O1303 2.413 . S
Tb1259 C1323 2.833 . S
N1260 C1252 1.360 . S
N1260 Tb1259 2.660 . S
N1260 C1261 1.305 . S
C1261 N1260 1.305 . S
C1261 C1263 1.407 . S
C1261 H1268 0.930 . S
C1262 C1250 1.410 . S
C1262 C1263 1.345 . S
C1262 H1270 0.930 . S
C1263 C1261 1.407 . S
C1263 C1262 1.345 . S
C1263 H1265 0.930 . S
H1264 C1257 0.930 . S
H1265 C1263 0.930 . S
H1266 C1254 0.930 . S
H1267 C1255 0.931 . S
H1268 C1261 0.930 . S
H1269 C1283 0.930 . S
H1270 C1262 0.930 . S
H1271 C1289 0.930 . S
H1272 C1280 0.930 . S
H1273 C1287 0.931 1_565 S
H1274 C1251 0.929 . S
H1275 C1281 0.930 . S
H1276 C1314 0.930 . S
H1277 C1258 0.930 . S
H1278 C1313 0.929 . S
N1279 Tb1248 2.660 . S
N1279 C1280 1.305 . S
N1279 C1284 1.360 . S
C1280 H1272 0.930 . S
C1280 N1279 1.305 . S
C1280 C1283 1.407 1_655 S
C1281 H1275 0.930 . S
C1281 C1282 1.410 . S
C1281 C1283 1.345 . S
C1282 C1281 1.410 . S
C1282 C1284 1.417 1_455 S
C1282 C1314 1.432 . S
C1283 H1269 0.930 . S
C1283 C1280 1.407 1_455 S
C1283 C1281 1.345 . S
C1284 N1279 1.360 . S
C1284 C1282 1.417 1_655 S
C1284 C1288 1.432 . S
H1285 C1290 0.930 . S
N1286 Tb1248 2.600 . S
N1286 C1288 1.359 . S
N1286 C1289 1.327 . S
C1287 H1273 0.931 1_545 S
C1287 C1289 1.392 . S
C1287 C1290 1.370 . S
C1288 C1284 1.432 . S
C1288 N1286 1.359 . S
C1288 C1291 1.414 . S
C1289 H1271 0.930 . S
C1289 N1286 1.327 . S
C1289 C1287 1.392 . S
C1290 H1285 0.930 . S
C1290 C1287 1.370 . S
C1290 C1291 1.385 . S
C1291 C1288 1.414 . S
C1291 C1290 1.385 . S
C1291 C1313 1.444 1_655 S
O1292 Tb1248 2.546 . S
O1292 C1312 1.251 . S
O1293 Tb1248 2.610 . S
O1293 Tb1259 2.362 . S
O1293 C1304 1.283 . S
O1294 Tb1259 2.421 . S
O1294 C1311 1.262 . S
O1295 Tb1248 2.320 . S
O1295 C1311 1.260 . S
O1296 Tb1248 2.552 . S
O1296 C1304 1.243 . S
O1297 Tb1248 2.413 . S
O1297 C1312 1.256 . S
O1298 Tb1259 2.546 . S
O1298 C1323 1.251 . S
O1299 Tb1248 2.362 . S
O1299 Tb1259 2.610 . S
O1299 C1315 1.283 . S
O1300 Tb1248 2.421 . S
O1300 C1322 1.262 . S
O1301 Tb1259 2.320 . S
O1301 C1322 1.260 . S
O1302 Tb1259 2.552 . S
O1302 C1315 1.243 . S
O1303 Tb1259 2.413 . S
O1303 C1323 1.256 . S
C1304 O1293 1.283 . S
C1304 O1296 1.243 . S
C1305 C1307 1.382 . S
C1305 C1309 1.393 . S
C1305 C1312 1.500 . S
C1306 C1307 1.400 . S
C1306 C1308 1.384 . S
C1307 C1305 1.382 . S
C1307 C1306 1.400 . S
C1307 H1324 0.930 . S
C1308 C1306 1.384 . S
C1308 C1310 1.392 . S
C1308 H1325 0.931 . S
C1309 C1305 1.393 . S
C1309 C1310 1.401 . S
C1309 H1326 0.930 . S
C1310 C1308 1.392 . S
C1310 C1309 1.401 . S
C1310 H1327 0.930 . S
C1311 O1294 1.262 . S
C1311 O1295 1.260 . S
C1312 Tb1248 2.833 . S
C1312 O1292 1.251 . S
C1312 O1297 1.256 . S
C1312 C1305 1.500 . S
C1313 H1278 0.929 . S
C1313 C1291 1.444 1_455 S
C1313 C1314 1.317 . S
C1314 H1276 0.930 . S
C1314 C1282 1.432 . S
C1314 C1313 1.317 . S
C1315 O1299 1.283 . S
C1315 O1302 1.243 . S
C1316 C1317 1.382 . S
C1316 C1320 1.393 . S
C1316 C1323 1.500 . S
C1317 C1316 1.382 . S
C1317 C1318 1.400 . S
C1317 H1328 0.930 . S
C1318 C1317 1.400 . S
C1318 C1319 1.384 . S
C1319 C1318 1.384 . S
C1319 C1321 1.392 . S
C1319 H1329 0.931 . S
C1320 C1316 1.393 . S
C1320 C1321 1.401 . S
C1320 H1330 0.930 . S
C1321 C1319 1.392 . S
C1321 C1320 1.401 . S
C1321 H1331 0.930 . S
C1322 O1300 1.262 . S
C1322 O1301 1.260 . S
C1323 Tb1259 2.833 . S
C1323 O1298 1.251 . S
C1323 O1303 1.256 . S
C1323 C1316 1.500 . S
H1324 C1307 0.930 . S
H1325 C1308 0.931 . S
H1326 C1309 0.930 . S
H1327 C1310 0.930 . S
H1328 C1317 0.930 . S
H1329 C1319 0.931 . S
H1330 C1320 0.930 . S
H1331 C1321 0.930 . S
C439 C643 1.317 . S
C465 C727 1.627 . S
C401 C807 1.578 . S
C369 C723 1.464 . S
C811 C305 1.536 . S
C343 C639 1.230 . S
C632 C375 1.605 . S
C716 C311 1.607 . S
C337 C818 1.372 . S
C433 C734 1.319 . S
C471 C800 1.516 . S
C650 C407 1.520 . S
C895 C55 1.317 . S
C81 C979 1.628 . S
C17 C1059 1.578 . S
C561 C975 1.464 . S
C497 C1063 1.536 . S
C535 C891 1.230 . S
C567 C884 1.604 . S
C503 C968 1.607 . S
C1070 C529 1.372 . S
C49 C986 1.319 . S
C1052 C87 1.516 . S
C23 C902 1.520 . S
C1147 C247 1.317 . S
C273 C1231 1.627 . S
C1311 C209 1.579 . S
C1227 C177 1.464 . S
C1315 C113 1.536 . S
C151 C1143 1.230 . S
C183 C1136 1.604 . S
C119 C1220 1.607 . S
C1322 C145 1.371 . S
C241 C1238 1.319 . S
C279 C1304 1.516 . S
C215 C1154 1.520 . S
C509 C646 1.413 . S
C730 C541 1.489 . S
C573 C802 1.283 . S
C221 C718 1.266 . S
C253 C814 1.588 . S
C634 C285 1.400 . S
C125 C898 1.413 . S
C157 C982 1.489 . S
C189 C1054 1.283 . S
C413 C970 1.266 . S
C1066 C445 1.588 . S
C477 C886 1.400 . S
C317 C1150 1.413 . S
C349 C1234 1.489 . S
C1306 C381 1.283 . S
C29 C1222 1.266 . S
C61 C1318 1.588 . S
C93 C1138 1.400 . S
