# Generated by pormake.
# Topology tsx, (6,3)-cn, num edge types: 1
# Building blocks:
#     Node 0, Type 0, BuildingBlock: LEVNOQ01_clean_sbu_1, # of connection points: 6
#     Node 1, Type 0, BuildingBlock: LEVNOQ01_clean_sbu_1, # of connection points: 6
#     Node 2, Type 1, BuildingBlock: CUQRIR_clean_linker_1, # of connection points: 3
#     Node 3, Type 1, BuildingBlock: CUQRIR_clean_linker_1, # of connection points: 3
#     Node 4, Type 1, BuildingBlock: CUQRIR_clean_linker_1, # of connection points: 3
#     Node 5, Type 1, BuildingBlock: CUQRIR_clean_linker_1, # of connection points: 3
#     Edge 6, Type (0, 1), BuildingBlock: EZIPEK_clean_linker_0, # of connection points: 2
#     Edge 7, Type (0, 1), BuildingBlock: EZIPEK_clean_linker_0, # of connection points: 2
#     Edge 8, Type (0, 1), BuildingBlock: EZIPEK_clean_linker_0, # of connection points: 2
#     Edge 9, Type (0, 1), BuildingBlock: EZIPEK_clean_linker_0, # of connection points: 2
#     Edge 10, Type (0, 1), BuildingBlock: EZIPEK_clean_linker_0, # of connection points: 2
#     Edge 11, Type (0, 1), BuildingBlock: EZIPEK_clean_linker_0, # of connection points: 2
#     Edge 12, Type (0, 1), BuildingBlock: EZIPEK_clean_linker_0, # of connection points: 2
#     Edge 13, Type (0, 1), BuildingBlock: EZIPEK_clean_linker_0, # of connection points: 2
#     Edge 14, Type (0, 1), BuildingBlock: EZIPEK_clean_linker_0, # of connection points: 2
#     Edge 15, Type (0, 1), BuildingBlock: EZIPEK_clean_linker_0, # of connection points: 2
#     Edge 16, Type (0, 1), BuildingBlock: EZIPEK_clean_linker_0, # of connection points: 2
#     Edge 17, Type (0, 1), BuildingBlock: EZIPEK_clean_linker_0, # of connection points: 2
# Relax obj value: 0.164
# Max RMSD: 0.172
# Mean RMSD: 0.160
data_MOF--net-tsx--node1-LEVNOQ01_clean_sbu_1--node2-CUQRIR_clean_linker_1--edge1-EZIPEK_clean_linker_0
_symmetry_space_group_name_H-M    P1
_symmetry_Int_Tables_number       1
_symmetry_cell_setting            triclinic
loop_
_symmetry_equiv_pos_as_xyz
'x, y, z'
_cell_length_a     12.299266
_cell_length_b     13.979138
_cell_length_c     24.529162
_cell_angle_alpha  87.734763
_cell_angle_beta   90.79323
_cell_angle_gamma 91.611837
loop_
_atom_site_label
_atom_site_type_symbol
_atom_site_fract_x
_atom_site_fract_y
_atom_site_fract_z
_atom_type_partial_charge
O0 O 0.21994 1.00801 0.05703 0.0
Mg1 Mg 0.24501 0.09981 -0.01388 0.0
O2 O 0.04334 0.02901 0.05759 0.0
Mg3 Mg 0.0503 0.07061 -0.03515 0.0
O4 O 0.14799 0.21393 -0.01374 0.0
O5 O 0.32677 0.22126 0.00715 0.0
O6 O 0.08462 0.11375 0.87159 0.0
O7 O 0.90565 0.17522 -0.04076 0.0
Mg8 Mg 0.90363 0.98511 0.8773 0.0
O9 O 0.92523 0.9482 -0.04308 0.0
O10 O 0.04612 0.98139 0.83008 0.0
O11 O 0.83096 0.12261 0.88164 0.0
O12 O 0.81976 0.86029 0.90401 0.0
C13 C 0.25614 0.95716 0.92253 0.0
C14 C 0.12949 0.99627 0.08095 0.0
C15 C 0.2339 0.26156 0.00249 0.0
C16 C 0.09755 0.06094 0.83096 0.0
C17 C 0.83881 0.18427 0.91862 0.0
C18 C 0.85441 0.87888 0.95227 0.0
O19 O 0.29266 0.04087 0.91154 0.0
O20 O 0.17885 0.94782 -0.0436 0.0
O21 O 0.75567 0.5142 0.56655 0.0
Mg22 Mg 0.78764 0.60834 0.49893 0.0
O23 O 0.57831 0.53247 0.56168 0.0
Mg24 Mg 0.57469 0.58144 0.47012 0.0
O25 O 0.68234 0.71795 0.4914 0.0
O26 O 0.85696 0.7363 0.51852 0.0
O27 O 0.5953 0.63596 0.37892 0.0
O28 O 0.43278 0.6901 0.47272 0.0
Mg29 Mg 0.44607 0.50809 0.39277 0.0
O30 O 0.44152 0.45562 0.47111 0.0
O31 O 0.5849 0.49773 0.34235 0.0
O32 O 0.36644 0.64365 0.39264 0.0
O33 O 0.34911 0.38654 0.40389 0.0
C34 C 0.79384 0.47155 0.42405 0.0
C35 C 0.66235 0.49987 0.58686 0.0
C36 C 0.76341 0.77224 0.5075 0.0
C37 C 0.61808 0.58406 0.33948 0.0
C38 C 0.36941 0.70272 0.43095 0.0
C39 C 0.37021 0.3919 0.45525 0.0
O40 O 0.84756 0.54853 0.42962 0.0
O41 O 0.70295 0.46206 0.44886 0.0
C42 C 0.05468 0.07621 0.38078 0.0
N43 N 0.10135 1.00869 0.35146 0.0
N44 N 0.99284 0.13469 0.34835 0.0
C45 C 0.07271 0.08606 0.44073 0.0
C46 C 0.00295 0.0999 0.29819 0.0
N47 N 0.06701 1.02264 0.29989 0.0
C48 C 0.95711 0.14572 0.2465 0.0
H49 H 0.00338 0.05116 0.46286 0.0
H50 H 0.0802 0.16258 0.4502 0.0
H51 H 0.14721 0.04996 0.45509 0.0
H52 H 0.01964 0.1499 0.21424 0.0
H53 H 0.92778 0.21866 0.25287 0.0
H54 H 0.88811 0.10047 0.23173 0.0
C55 C 0.92954 0.17491 0.55012 0.0
N56 N 0.02624 0.19271 0.57662 0.0
N57 N 0.86078 0.11562 0.58041 0.0
C58 C 0.89609 0.22515 0.49759 0.0
C59 C 0.91788 0.10449 0.6284 0.0
N60 N 0.01784 0.14804 0.6255 0.0
C61 C 0.87554 0.05578 0.68047 0.0
H62 H 0.81814 0.26131 0.50334 0.0
H63 H 0.88522 0.17275 0.46574 0.0
H64 H 0.95626 0.27841 0.48179 0.0
H65 H 0.86078 0.97816 0.67502 0.0
H66 H 0.8006 0.09035 0.69284 0.0
H67 H 0.93157 0.06282 0.71577 0.0
C68 C 0.52319 0.56569 0.88038 0.0
N69 N 0.5753 0.50071 0.85177 0.0
N70 N 0.47289 0.6299 0.8466 0.0
C71 C 0.52264 0.56776 0.94099 0.0
C72 C 0.49569 0.60183 0.79622 0.0
N73 N 0.5558 0.52242 0.79925 0.0
C74 C 0.46464 0.65467 0.74393 0.0
H75 H 0.5658 0.50671 -0.03949 0.0
H76 H 0.43782 0.56448 -0.04572 0.0
H77 H 0.55948 0.63673 0.9535 0.0
H78 H 0.53775 0.66768 0.71837 0.0
H79 H 0.42699 0.724 0.75148 0.0
H80 H 0.40629 0.60948 0.72069 0.0
C81 C 0.43576 0.6695 0.05709 0.0
N82 N 0.53258 0.6869 0.08271 0.0
N83 N 0.38154 0.59137 0.08029 0.0
C84 C 0.38543 0.74224 0.01885 0.0
C85 C 0.45081 0.56468 0.12197 0.0
N86 N 0.53842 0.6248 0.12451 0.0
C87 C 0.44298 0.47343 0.15709 0.0
H88 H 0.29885 0.7512 0.0291 0.0
H89 H 0.39197 0.7192 -0.0233 0.0
H90 H 0.42737 0.81297 0.02116 0.0
H91 H 0.41327 0.41204 0.13337 0.0
H92 H 0.38939 0.4836 0.19221 0.0
H93 H 0.52331 0.45351 0.17413 0.0
C94 C 0.24142 0.43876 -0.01577 0.0
C95 C 0.22446 0.36008 0.0211 0.0
C96 C 0.23065 0.47042 0.0963 0.0
C97 C 0.28431 0.53807 0.06127 0.0
N98 N 0.22844 0.61034 -0.02314 0.0
N99 N 0.17803 0.30278 0.1123 0.0
C100 C 0.25877 0.53071 0.00551 0.0
C101 C 0.20797 0.37674 0.07723 0.0
N102 N 0.24482 0.42612 0.92948 0.0
N103 N 0.20233 0.49686 0.14686 0.0
H104 H 0.15886 0.23431 0.09889 0.0
H105 H 0.17566 0.30889 0.15445 0.0
H106 H 0.21933 0.56644 0.15932 0.0
H107 H 0.15693 0.45309 0.17389 0.0
H108 H 0.26883 0.48113 0.90194 0.0
H109 H 0.22838 0.3599 0.91251 0.0
H110 H 0.18989 0.60822 0.9388 0.0
H111 H 0.18989 0.60822 0.9388 0.0
C112 C 0.42602 0.87073 0.90194 0.0
C113 C 0.3103 0.87255 0.90119 0.0
C114 C 0.303 0.71631 0.85778 0.0
C115 C 0.41744 0.71425 0.86116 0.0
N116 N 0.58748 0.8003 0.86776 0.0
N117 N 0.1369 0.79309 0.88134 0.0
C118 C 0.47866 0.79491 0.87746 0.0
C119 C 0.24803 0.7945 0.87952 0.0
N120 N 0.48596 0.93525 0.93124 0.0
N121 N 0.24759 0.64417 0.83235 0.0
H122 H 0.09203 0.84887 0.89506 0.0
H123 H 0.08753 0.73421 0.87207 0.0
H124 H 0.28575 0.58425 0.81848 0.0
H125 H 0.16525 0.64509 0.82223 0.0
H126 H 0.56978 0.93146 0.93687 0.0
H127 H 0.45168 0.98509 -0.04412 0.0
H128 H 0.63195 0.86453 0.86955 0.0
H129 H 0.62923 0.74452 0.85124 0.0
C130 C 0.7181 0.88688 0.02822 0.0
C131 C 0.79545 0.83398 -8e-05 0.0
C132 C 0.71014 0.68357 0.03457 0.0
C133 C 0.62735 0.73614 0.05893 0.0
N134 N 0.56821 0.8804 0.09345 0.0
N135 N 0.88716 0.68671 -0.00885 0.0
C136 C 0.63741 0.83637 0.06037 0.0
C137 C 0.79857 0.73357 0.00823 0.0
N138 N 0.71826 0.98434 0.02192 0.0
N139 N 0.7009 0.58611 0.03381 0.0
H140 H 0.95255 0.72284 -0.02799 0.0
H141 H 0.90116 0.61489 0.00076 0.0
H142 H 0.63558 0.54721 0.05089 0.0
H143 H 0.75274 0.54397 0.01246 0.0
H144 H 0.65618 1.02659 0.03499 0.0
H145 H 0.77935 1.02345 0.00142 0.0
H146 H 0.57071 0.95333 0.10082 0.0
H147 H 0.57071 0.95333 0.10082 0.0
C148 C 0.65484 0.25547 0.90636 0.0
C149 C 0.76954 0.26937 0.9115 0.0
C150 C 0.7502 0.44054 0.88931 0.0
C151 C 0.64001 0.42321 0.87421 0.0
N152 N 0.48098 0.32034 0.87703 0.0
N153 N 0.92862 0.37426 0.9023 0.0
C154 C 0.59039 0.33213 0.88541 0.0
C155 C 0.81793 0.3619 0.90208 0.0
N156 N 0.60796 0.16948 0.92286 0.0
N157 N 0.78879 0.53231 0.89406 0.0
H158 H 0.98187 0.31898 0.91129 0.0
H159 H 0.96788 0.43795 0.88923 0.0
H160 H 0.73909 0.59125 0.88898 0.0
H161 H 0.8665 0.54934 0.90873 0.0
H162 H 0.52456 0.15551 0.92412 0.0
H163 H 0.65307 0.11292 0.93911 0.0
H164 H 0.43928 0.25455 0.87843 0.0
H165 H 0.43124 0.37813 0.86806 0.0
C166 C 0.7192 0.88876 0.57899 0.0
C167 C 0.74425 0.87092 0.5239 0.0
C168 C 0.74811 0.04323 0.50524 0.0
C169 C 0.76681 0.05713 0.56113 0.0
N170 N 0.65644 1.01115 0.63743 0.0
N171 N 0.76131 0.93457 0.43143 0.0
C172 C 0.71812 0.98522 0.5952 0.0
C173 C 0.75119 0.94906 0.48567 0.0
N174 N 0.69835 0.815 0.61573 0.0
N175 N 0.69847 0.11393 0.47584 0.0
H176 H 0.75954 0.86628 0.41563 0.0
H177 H 0.77606 0.99112 0.4033 0.0
H178 H 0.66415 0.10379 0.43732 0.0
H179 H 0.66415 0.10379 0.43732 0.0
H180 H 0.68908 0.82578 0.65724 0.0
H181 H 0.69498 0.74355 0.60481 0.0
H182 H 0.61016 0.96208 0.66111 0.0
H183 H 0.64505 0.08347 0.64442 0.0
C184 C 0.77626 0.30794 0.38185 0.0
C185 C 0.84128 0.39033 0.39395 0.0
C186 C 0.0045 0.30692 0.36798 0.0
C187 C 0.94129 0.22239 0.36151 0.0
N188 N 0.77125 0.15015 0.34032 0.0
N189 N 0.00398 0.47949 0.36438 0.0
C190 C 0.82703 0.2259 0.3613 0.0
C191 C 0.95209 0.39393 0.37723 0.0
N192 N 0.66742 0.31088 0.3907 0.0
N193 N 0.11458 0.30477 0.36345 0.0
H194 H 0.96363 0.54374 0.35958 0.0
H195 H 0.08234 0.4852 0.34884 0.0
H196 H 0.15521 0.24389 0.35287 0.0
H197 H 0.16499 0.3627 0.37279 0.0
H198 H 0.61162 0.25457 0.38517 0.0
H199 H 0.61162 0.25457 0.38517 0.0
H200 H 0.68735 0.1463 0.33394 0.0
H201 H 0.68735 0.1463 0.33394 0.0
C202 C 0.19073 0.39062 0.50352 0.0
C203 C 0.29111 0.34593 0.49489 0.0
C204 C 0.21986 0.2009 0.5433 0.0
C205 C 0.12109 0.24712 0.55465 0.0
N206 N 0.02391 0.39435 0.55446 0.0
N207 N 0.40966 0.21588 0.51631 0.0
C208 C 0.11164 0.34531 0.53848 0.0
C209 C 0.3089 0.25393 0.51878 0.0
N210 N 0.16719 0.47369 0.47524 0.0
N211 N 0.22441 0.10417 0.55018 0.0
H212 H 0.4748 0.25231 0.49716 0.0
H213 H 0.43084 0.15276 0.53732 0.0
H214 H 0.29076 0.06452 0.53953 0.0
H215 H 0.15457 0.06312 0.55776 0.0
H216 H 0.08991 0.5024 0.47397 0.0
H217 H 0.2222 0.50963 0.44918 0.0
H218 H 0.01815 0.46841 0.54941 0.0
H219 H 0.95947 0.36099 0.57554 0.0
C220 C 0.18742 0.77839 0.42383 0.0
C221 C 0.30217 0.78944 0.42287 0.0
C222 C 0.28247 0.95314 0.38506 0.0
C223 C 0.17026 0.93361 0.37403 0.0
N224 N 0.01162 0.83343 0.39131 0.0
N225 N 0.46099 0.88836 0.40197 0.0
C226 C 0.12156 0.84734 0.39572 0.0
C227 C 0.3504 0.87735 0.40352 0.0
N228 N 0.14219 0.70474 0.45466 0.0
N229 N 0.32239 0.04523 0.38244 0.0
H230 H 0.51325 0.83646 0.41784 0.0
H231 H 0.50032 0.94684 0.38234 0.0
H232 H 0.27277 0.10348 0.37467 0.0
H233 H 0.40107 0.06457 0.39487 0.0
H234 H 0.05899 0.69369 0.46017 0.0
H235 H 0.19021 0.66139 0.48016 0.0
H236 H 0.97134 0.76847 0.40061 0.0
H237 H 0.96072 0.88734 0.37688 0.0
C238 C 0.21967 0.97758 0.17327 0.0
C239 C 0.12893 0.95778 0.1389 0.0
C240 C 0.02016 0.9253 0.22083 0.0
C241 C 0.10024 0.97601 0.25159 0.0
N242 N 0.26984 0.06673 0.25145 0.0
N243 N 0.95186 0.88285 0.13072 0.0
C244 C 0.19994 1.00419 0.22692 0.0
C245 C 0.0319 0.92079 0.16311 0.0
N246 N 0.3236 0.97211 0.15522 0.0
N247 N 0.93064 0.88732 0.24673 0.0
H248 H 0.96467 0.87101 0.08957 0.0
H249 H 0.8746 0.8621 0.14419 0.0
H250 H 0.91959 0.89469 0.28832 0.0
H251 H 0.87087 0.84519 0.22816 0.0
H252 H 0.39108 0.9839 0.18058 0.0
H253 H 0.34167 0.94075 0.1187 0.0
H254 H 0.3395 0.09534 0.23244 0.0
H255 H 0.24983 0.09955 0.28699 0.0
C256 C 0.13929 0.19494 0.76192 0.0
C257 C 0.1491 0.09825 0.7791 0.0
C258 C 0.13581 0.04849 0.68549 0.0
C259 C 0.09829 0.1413 0.66921 0.0
N260 N 0.07362 0.30547 0.6915 0.0
N261 N 0.22373 0.9497 0.75572 0.0
C262 C 0.10775 0.21655 0.70676 0.0
C263 C 0.1728 0.0316 0.73979 0.0
N264 N 0.1611 0.26481 0.79805 0.0
N265 N 0.11693 0.9725 0.65298 0.0
H266 H 0.24998 0.93844 0.79599 0.0
H267 H 0.25017 0.90024 0.72845 0.0
H268 H 0.07307 0.97752 0.61648 0.0
H269 H 0.13251 0.902 0.6653 0.0
H270 H 0.16213 0.33771 0.78753 0.0
H271 H 0.19171 0.2485 0.8371 0.0
H272 H 0.0651 0.36059 0.7183 0.0
H273 H 0.0487 0.32213 0.65189 0.0
C274 C 0.73581 0.48214 0.6823 0.0
C275 C 0.65391 0.45856 0.64363 0.0
C276 C 0.52681 0.42642 0.71818 0.0
C277 C 0.59888 0.47842 0.75261 0.0
N278 N 0.76629 0.56969 0.76333 0.0
N279 N 0.48496 0.37533 0.62592 0.0
C280 C 0.70336 0.50758 0.73431 0.0
C281 C 0.55364 0.41853 0.66224 0.0
N282 N 0.84333 0.48148 0.66967 0.0
N283 N 0.43009 0.39183 0.73841 0.0
H284 H 0.50876 0.36402 0.58603 0.0
H285 H 0.4074 0.34836 0.63501 0.0
H286 H 0.4075 0.40281 0.77836 0.0
H287 H 0.37341 0.35143 0.71666 0.0
H288 H 0.90491 0.49443 0.69833 0.0
H289 H 0.87033 0.45343 0.63383 0.0
H290 H 0.8393 0.59992 0.74878 0.0
H291 H 0.73851 0.60012 0.79829 0.0
C292 C 0.70382 0.57006 0.24799 0.0
C293 C 0.64991 0.62697 0.28524 0.0
C294 C 0.55461 0.70926 0.211 0.0
C295 C 0.59607 0.64336 0.17453 0.0
N296 N 0.73012 0.53453 0.15205 0.0
N297 N 0.5816 0.78437 0.29751 0.0
C298 C 0.68034 0.58281 0.19128 0.0
C299 C 0.59525 0.7087 0.26514 0.0
N300 N 0.77253 0.50205 0.26775 0.0
N301 N 0.47027 0.76611 0.19569 0.0
H302 H 0.62007 0.78848 0.33553 0.0
H303 H 0.54624 0.84776 0.28343 0.0
H304 H 0.43524 0.7665 0.15683 0.0
H305 H 0.42983 0.80735 0.22308 0.0
H306 H 0.80713 0.45032 0.24466 0.0
H307 H 0.79467 0.49939 0.30876 0.0
H308 H 0.79476 0.48883 0.15902 0.0
H309 H 0.79476 0.48883 0.15902 0.0
loop_
_geom_bond_atom_site_label_1
_geom_bond_atom_site_label_2
_geom_bond_distance
_geom_bond_site_symmetry_2
_ccdc_geom_bond_type
O0 Mg1 1.990 . S
O0 C14 1.253 . S
Mg1 O0 1.990 . S
Mg1 O4 2.180 . S
Mg1 O5 2.117 . S
Mg1 O19 2.030 1_545 S
O2 Mg3 2.072 1_554 S
O2 C14 1.260 . S
Mg3 O2 2.072 1_556 S
Mg3 O4 2.099 1_556 S
Mg3 O6 2.079 . S
Mg3 O7 2.072 1_456 S
Mg3 O9 2.099 1_445 S
Mg3 O20 2.079 1_545 S
O4 Mg1 2.180 . S
O4 Mg3 2.099 1_554 S
O4 C15 1.279 . S
O5 Mg1 2.117 . S
O5 C15 1.250 . S
O6 Mg3 2.079 . S
O6 C16 1.264 . S
O7 Mg3 2.072 1_654 S
O7 C17 1.260 1_554 S
Mg8 O9 2.180 1_545 S
Mg8 O10 2.030 . S
Mg8 O11 1.990 . S
Mg8 O12 2.117 1_545 S
O9 Mg3 2.099 1_665 S
O9 Mg8 2.180 1_565 S
O9 C18 1.279 1_556 S
O10 Mg8 2.030 . S
O10 C16 1.248 1_655 S
O11 Mg8 1.990 . S
O11 C17 1.253 . S
O12 Mg8 2.117 1_565 S
O12 C18 1.250 1_556 S
C13 O19 1.248 . S
C13 O20 1.264 1_554 S
C14 O0 1.253 . S
C14 O2 1.260 . S
C15 O4 1.279 . S
C15 O5 1.250 . S
C16 O6 1.264 . S
C16 O10 1.248 1_455 S
C17 O7 1.260 1_556 S
C17 O11 1.253 . S
C18 O9 1.279 1_554 S
C18 O12 1.250 1_554 S
O19 Mg1 2.030 1_565 S
O19 C13 1.248 . S
O20 Mg3 2.079 1_565 S
O20 C13 1.264 1_556 S
O21 Mg22 1.990 . S
O21 C35 1.253 . S
Mg22 O21 1.990 . S
Mg22 O25 2.180 . S
Mg22 O26 2.117 . S
Mg22 O40 2.030 . S
O23 Mg24 2.072 . S
O23 C35 1.260 . S
Mg24 O23 2.072 . S
Mg24 O25 2.099 . S
Mg24 O27 2.079 . S
Mg24 O28 2.072 . S
Mg24 O30 2.099 . S
Mg24 O41 2.079 . S
O25 Mg22 2.180 . S
O25 Mg24 2.099 . S
O25 C36 1.279 . S
O26 Mg22 2.117 . S
O26 C36 1.250 . S
O27 Mg24 2.079 . S
O27 C37 1.264 . S
O28 Mg24 2.072 . S
O28 C38 1.260 . S
Mg29 O30 2.180 . S
Mg29 O31 2.030 . S
Mg29 O32 1.990 . S
Mg29 O33 2.117 . S
O30 Mg24 2.099 . S
O30 Mg29 2.180 . S
O30 C39 1.279 . S
O31 Mg29 2.030 . S
O31 C37 1.248 . S
O32 Mg29 1.990 . S
O32 C38 1.253 . S
O33 Mg29 2.117 . S
O33 C39 1.250 . S
C34 O40 1.248 . S
C34 O41 1.264 . S
C35 O21 1.253 . S
C35 O23 1.260 . S
C36 O25 1.279 . S
C36 O26 1.250 . S
C37 O27 1.264 . S
C37 O31 1.248 . S
C38 O28 1.260 . S
C38 O32 1.253 . S
C39 O30 1.279 . S
C39 O33 1.250 . S
O40 Mg22 2.030 . S
O40 C34 1.248 . S
O41 Mg24 2.079 . S
O41 C34 1.264 . S
C42 N43 1.317 1_545 S
C42 N44 1.348 1_455 S
C42 C45 1.485 1_545 S
N43 C42 1.317 1_565 S
N43 N47 1.370 1_565 S
N44 C42 1.348 1_655 S
N44 C46 1.346 . S
C45 C42 1.485 1_565 S
C45 H49 0.960 . S
C45 H50 0.961 1_565 S
C45 H51 0.960 . S
C46 N44 1.346 . S
C46 N47 1.307 1_655 S
C46 C48 1.486 . S
N47 N43 1.370 1_545 S
N47 C46 1.307 1_455 S
C48 C46 1.486 . S
C48 H52 0.960 . S
C48 H53 0.960 . S
C48 H54 0.959 . S
H49 C45 0.960 . S
H50 C45 0.961 1_545 S
H51 C45 0.960 . S
H52 C48 0.960 . S
H53 C48 0.960 . S
H54 C48 0.959 . S
C55 N56 1.317 . S
C55 N57 1.348 1_455 S
C55 C58 1.485 . S
N56 C55 1.317 . S
N56 N60 1.370 . S
N57 C55 1.348 1_655 S
N57 C59 1.346 . S
C58 C55 1.485 . S
C58 H62 0.960 1_455 S
C58 H63 0.961 . S
C58 H64 0.960 . S
C59 N57 1.346 . S
C59 N60 1.307 1_655 S
C59 C61 1.486 1_545 S
N60 N56 1.370 . S
N60 C59 1.307 1_455 S
C61 C59 1.486 1_565 S
C61 H65 0.960 . S
C61 H66 0.960 . S
C61 H67 0.959 1_565 S
H62 C58 0.960 1_655 S
H63 C58 0.961 . S
H64 C58 0.960 . S
H65 C61 0.960 . S
H66 C61 0.960 . S
H67 C61 0.959 1_545 S
C68 N69 1.317 . S
C68 N70 1.348 . S
C68 C71 1.485 1_556 S
N69 C68 1.317 . S
N69 N73 1.370 . S
N70 C68 1.348 . S
N70 C72 1.346 . S
C71 C68 1.485 1_554 S
C71 H75 0.960 . S
C71 H76 0.961 . S
C71 H77 0.960 . S
C72 N70 1.346 . S
C72 N73 1.307 . S
C72 C74 1.486 . S
N73 N69 1.370 . S
N73 C72 1.307 . S
C74 C72 1.486 . S
C74 H78 0.960 . S
C74 H79 0.960 . S
C74 H80 0.959 . S
H75 C71 0.960 . S
H76 C71 0.961 . S
H77 C71 0.960 . S
H78 C74 0.960 . S
H79 C74 0.960 . S
H80 C74 0.959 . S
C81 N82 1.317 . S
C81 N83 1.348 . S
C81 C84 1.485 1_554 S
N82 C81 1.317 . S
N82 N86 1.370 . S
N83 C81 1.348 . S
N83 C85 1.346 . S
C84 C81 1.485 1_556 S
C84 H88 0.960 . S
C84 H89 0.961 . S
C84 H90 0.960 . S
C85 N83 1.346 . S
C85 N86 1.307 . S
C85 C87 1.486 . S
N86 N82 1.370 . S
N86 C85 1.307 . S
C87 C85 1.486 . S
C87 H91 0.960 . S
C87 H92 0.960 . S
C87 H93 0.959 . S
H88 C84 0.960 . S
H89 C84 0.961 . S
H90 C84 0.960 . S
H91 C87 0.960 . S
H92 C87 0.960 . S
H93 C87 0.959 . S
C94 C95 1.363 1_556 S
C94 C100 1.379 . S
C94 N102 1.356 . S
C95 C94 1.363 1_554 S
C95 C101 1.363 . S
C96 C97 1.363 . S
C96 C101 1.379 . S
C96 N103 1.356 . S
C97 C96 1.363 . S
C97 C100 1.363 1_554 S
N98 C100 1.356 . S
N98 H110 0.984 . S
N98 H111 0.985 . S
N99 C101 1.356 . S
N99 H104 0.984 . S
N99 H105 0.985 . S
C100 C94 1.379 . S
C100 C97 1.363 1_556 S
C100 N98 1.356 . S
C101 C95 1.363 . S
C101 C96 1.379 . S
C101 N99 1.356 . S
N102 C94 1.356 . S
N102 H108 0.984 . S
N102 H109 0.984 . S
N103 C96 1.356 . S
N103 H106 0.984 . S
N103 H107 0.985 . S
H104 N99 0.984 . S
H105 N99 0.985 . S
H106 N103 0.984 . S
H107 N103 0.985 . S
H108 N102 0.984 . S
H109 N102 0.984 . S
H110 N98 0.984 . S
H111 N98 0.985 . S
C112 C113 1.363 . S
C112 C118 1.379 . S
C112 N120 1.356 . S
C113 C112 1.363 . S
C113 C119 1.363 1_554 S
C114 C115 1.363 . S
C114 C119 1.379 . S
C114 N121 1.356 . S
C115 C114 1.363 . S
C115 C118 1.363 1_556 S
N116 C118 1.356 . S
N116 H128 0.984 . S
N116 H129 0.985 . S
N117 C119 1.356 . S
N117 H122 0.984 . S
N117 H123 0.985 . S
C118 C112 1.379 . S
C118 C115 1.363 1_554 S
C118 N116 1.356 . S
C119 C113 1.363 1_556 S
C119 C114 1.379 . S
C119 N117 1.356 . S
N120 C112 1.356 . S
N120 H126 0.984 . S
N120 H127 0.984 . S
N121 C114 1.356 . S
N121 H124 0.984 . S
N121 H125 0.985 . S
H122 N117 0.984 . S
H123 N117 0.985 . S
H124 N121 0.984 . S
H125 N121 0.985 . S
H126 N120 0.984 . S
H127 N120 0.984 . S
H128 N116 0.984 . S
H129 N116 0.985 . S
C130 C131 1.363 1_556 S
C130 C136 1.379 1_556 S
C130 N138 1.356 . S
C131 C130 1.363 1_554 S
C131 C137 1.363 . S
C132 C133 1.363 . S
C132 C137 1.379 . S
C132 N139 1.356 . S
C133 C132 1.363 . S
C133 C136 1.363 . S
N134 C136 1.356 1_556 S
N134 H146 0.984 . S
N134 H147 0.985 . S
N135 C137 1.356 . S
N135 H140 0.984 . S
N135 H141 0.985 . S
C136 C130 1.379 1_554 S
C136 C133 1.363 . S
C136 N134 1.356 1_554 S
C137 C131 1.363 . S
C137 C132 1.379 . S
C137 N135 1.356 . S
N138 C130 1.356 . S
N138 H144 0.984 . S
N138 H145 0.984 . S
N139 C132 1.356 . S
N139 H142 0.984 . S
N139 H143 0.985 . S
H140 N135 0.984 . S
H141 N135 0.985 . S
H142 N139 0.984 . S
H143 N139 0.985 . S
H144 N138 0.984 . S
H145 N138 0.984 . S
H146 N134 0.984 . S
H147 N134 0.985 . S
C148 C149 1.363 1_554 S
C148 C154 1.379 . S
C148 N156 1.356 . S
C149 C148 1.363 1_556 S
C149 C155 1.363 . S
C150 C151 1.363 . S
C150 C155 1.379 . S
C150 N157 1.356 . S
C151 C150 1.363 . S
C151 C154 1.363 1_556 S
N152 C154 1.356 . S
N152 H164 0.984 . S
N152 H165 0.985 . S
N153 C155 1.356 . S
N153 H158 0.984 . S
N153 H159 0.985 . S
C154 C148 1.379 . S
C154 C151 1.363 1_554 S
C154 N152 1.356 . S
C155 C149 1.363 . S
C155 C150 1.379 . S
C155 N153 1.356 . S
N156 C148 1.356 . S
N156 H162 0.984 . S
N156 H163 0.984 . S
N157 C150 1.356 . S
N157 H160 0.984 . S
N157 H161 0.985 . S
H158 N153 0.984 . S
H159 N153 0.985 . S
H160 N157 0.984 . S
H161 N157 0.985 . S
H162 N156 0.984 . S
H163 N156 0.984 . S
H164 N152 0.984 . S
H165 N152 0.985 . S
C166 C167 1.363 . S
C166 C172 1.379 . S
C166 N174 1.356 . S
C167 C166 1.363 . S
C167 C173 1.363 . S
C168 C169 1.363 . S
C168 C173 1.379 . S
C168 N175 1.353 1_655 S
C169 C168 1.363 . S
C169 C172 1.363 . S
N170 C172 1.356 1_545 S
N170 H182 0.984 . S
N170 H183 0.985 . S
N171 C173 1.356 . S
N171 H176 0.984 . S
N171 H177 0.985 . S
C172 C166 1.379 . S
C172 C169 1.363 . S
C172 N170 1.356 1_565 S
C173 C167 1.363 . S
C173 C168 1.379 . S
C173 N171 1.356 . S
N174 C166 1.356 . S
N174 H180 0.984 . S
N174 H181 0.984 . S
N175 C168 1.353 1_455 S
N175 H178 0.985 1_565 S
N175 H179 0.987 . S
H176 N171 0.984 . S
H177 N171 0.985 . S
H178 N175 0.985 1_545 S
H179 N175 0.987 . S
H180 N174 0.984 . S
H181 N174 0.984 . S
H182 N170 0.984 . S
H183 N170 0.985 . S
C184 C185 1.363 . S
C184 C190 1.379 . S
C184 N192 1.356 . S
C185 C184 1.363 . S
C185 C191 1.363 . S
C186 C187 1.363 . S
C186 C191 1.379 . S
C186 N193 1.356 . S
C187 C186 1.363 . S
C187 C190 1.363 . S
N188 C190 1.356 . S
N188 H200 0.984 . S
N188 H201 0.985 1_655 S
N189 C191 1.356 . S
N189 H194 0.984 . S
N189 H195 0.985 . S
C190 C184 1.379 . S
C190 C187 1.363 . S
C190 N188 1.356 . S
C191 C185 1.363 . S
C191 C186 1.379 . S
C191 N189 1.356 . S
N192 C184 1.356 . S
N192 H198 0.984 . S
N192 H199 0.984 . S
N193 C186 1.356 . S
N193 H196 0.984 . S
N193 H197 0.985 . S
H194 N189 0.984 . S
H195 N189 0.985 . S
H196 N193 0.984 . S
H197 N193 0.985 . S
H198 N192 0.984 . S
H199 N192 0.984 . S
H200 N188 0.984 . S
H201 N188 0.985 1_455 S
C202 C203 1.363 . S
C202 C208 1.379 . S
C202 N210 1.356 . S
C203 C202 1.363 . S
C203 C209 1.363 . S
C204 C205 1.363 . S
C204 C209 1.379 . S
C204 N211 1.356 . S
C205 C204 1.363 . S
C205 C208 1.363 . S
N206 C208 1.356 . S
N206 H218 0.984 . S
N206 H219 0.985 . S
N207 C209 1.356 . S
N207 H212 0.984 . S
N207 H213 0.985 . S
C208 C202 1.379 . S
C208 C205 1.363 . S
C208 N206 1.356 . S
C209 C203 1.363 . S
C209 C204 1.379 . S
C209 N207 1.356 . S
N210 C202 1.356 . S
N210 H216 0.984 . S
N210 H217 0.984 . S
N211 C204 1.356 . S
N211 H214 0.984 . S
N211 H215 0.985 . S
H212 N207 0.984 . S
H213 N207 0.985 . S
H214 N211 0.984 . S
H215 N211 0.985 . S
H216 N210 0.984 . S
H217 N210 0.984 . S
H218 N206 0.984 . S
H219 N206 0.985 . S
C220 C221 1.363 . S
C220 C226 1.379 . S
C220 N228 1.356 . S
C221 C220 1.363 . S
C221 C227 1.363 . S
C222 C223 1.363 . S
C222 C227 1.379 . S
C222 N229 1.356 . S
C223 C222 1.363 . S
C223 C226 1.363 . S
N224 C226 1.356 . S
N224 H236 0.984 . S
N224 H237 0.985 . S
N225 C227 1.356 . S
N225 H230 0.984 . S
N225 H231 0.985 . S
C226 C220 1.379 . S
C226 C223 1.363 . S
C226 N224 1.356 . S
C227 C221 1.363 . S
C227 C222 1.379 . S
C227 N225 1.356 . S
N228 C220 1.356 . S
N228 H234 0.984 . S
N228 H235 0.984 . S
N229 C222 1.356 . S
N229 H232 0.984 . S
N229 H233 0.985 . S
H230 N225 0.984 . S
H231 N225 0.985 . S
H232 N229 0.984 . S
H233 N229 0.985 . S
H234 N228 0.984 . S
H235 N228 0.984 . S
H236 N224 0.984 . S
H237 N224 0.985 . S
C238 C239 1.363 1_545 S
C238 C244 1.379 . S
C238 N246 1.356 . S
C239 C238 1.363 1_565 S
C239 C245 1.363 . S
C240 C241 1.363 . S
C240 C245 1.379 . S
C240 N247 1.356 . S
C241 C240 1.363 . S
C241 C244 1.363 1_565 S
N242 C244 1.356 . S
N242 H254 0.984 . S
N242 H255 0.985 . S
N243 C245 1.356 . S
N243 H248 0.984 . S
N243 H249 0.985 . S
C244 C238 1.379 . S
C244 C241 1.363 1_545 S
C244 N242 1.356 . S
C245 C239 1.363 . S
C245 C240 1.379 . S
C245 N243 1.356 . S
N246 C238 1.356 . S
N246 H252 0.984 . S
N246 H253 0.984 . S
N247 C240 1.356 . S
N247 H250 0.984 . S
N247 H251 0.985 . S
H248 N243 0.984 . S
H249 N243 0.985 . S
H250 N247 0.984 . S
H251 N247 0.985 . S
H252 N246 0.984 . S
H253 N246 0.984 . S
H254 N242 0.984 . S
H255 N242 0.985 . S
C256 C257 1.363 1_655 S
C256 C262 1.379 . S
C256 N264 1.356 . S
C257 C256 1.363 1_455 S
C257 C263 1.363 . S
C258 C259 1.363 . S
C258 C263 1.379 . S
C258 N265 1.356 . S
C259 C258 1.363 . S
C259 C262 1.363 1_455 S
N260 C262 1.356 . S
N260 H272 0.984 . S
N260 H273 0.985 . S
N261 C263 1.356 1_565 S
N261 H266 0.984 . S
N261 H267 0.985 . S
C262 C256 1.379 . S
C262 C259 1.363 1_655 S
C262 N260 1.356 . S
C263 C257 1.363 . S
C263 C258 1.379 . S
C263 N261 1.356 1_545 S
N264 C256 1.356 . S
N264 H270 0.984 . S
N264 H271 0.984 . S
N265 C258 1.356 . S
N265 H268 0.984 . S
N265 H269 0.985 1_545 S
H266 N261 0.984 . S
H267 N261 0.985 . S
H268 N265 0.984 . S
H269 N265 0.985 1_565 S
H270 N264 0.984 . S
H271 N264 0.984 . S
H272 N260 0.984 . S
H273 N260 0.985 . S
C274 C275 1.363 . S
C274 C280 1.379 . S
C274 N282 1.356 . S
C275 C274 1.363 . S
C275 C281 1.363 . S
C276 C277 1.363 . S
C276 C281 1.379 . S
C276 N283 1.356 . S
C277 C276 1.363 . S
C277 C280 1.363 . S
N278 C280 1.356 . S
N278 H290 0.984 . S
N278 H291 0.985 . S
N279 C281 1.356 . S
N279 H284 0.984 . S
N279 H285 0.985 . S
C280 C274 1.379 . S
C280 C277 1.363 . S
C280 N278 1.356 . S
C281 C275 1.363 . S
C281 C276 1.379 . S
C281 N279 1.356 . S
N282 C274 1.356 . S
N282 H288 0.984 . S
N282 H289 0.984 . S
N283 C276 1.356 . S
N283 H286 0.984 . S
N283 H287 0.985 . S
H284 N279 0.984 . S
H285 N279 0.985 . S
H286 N283 0.984 . S
H287 N283 0.985 . S
H288 N282 0.984 . S
H289 N282 0.984 . S
H290 N278 0.984 . S
H291 N278 0.985 . S
C292 C293 1.363 . S
C292 C298 1.379 . S
C292 N300 1.356 . S
C293 C292 1.363 . S
C293 C299 1.363 . S
C294 C295 1.363 . S
C294 C299 1.379 . S
C294 N301 1.356 . S
C295 C294 1.363 . S
C295 C298 1.363 . S
N296 C298 1.356 . S
N296 H308 0.984 . S
N296 H309 0.985 . S
N297 C299 1.356 . S
N297 H302 0.984 . S
N297 H303 0.985 . S
C298 C292 1.379 . S
C298 C295 1.363 . S
C298 N296 1.356 . S
C299 C293 1.363 . S
C299 C294 1.379 . S
C299 N297 1.356 . S
N300 C292 1.356 . S
N300 H306 0.984 . S
N300 H307 0.984 . S
N301 C294 1.356 . S
N301 H304 0.984 . S
N301 H305 0.985 . S
H302 N297 0.984 . S
H303 N297 0.985 . S
H304 N301 0.984 . S
H305 N301 0.985 . S
H306 N300 0.984 . S
H307 N300 0.984 . S
H308 N296 0.984 . S
H309 N296 0.985 . S
C97 N83 1.438 . S
C95 C15 1.286 . S
C113 C13 1.494 . S
C115 N70 1.479 . S
C131 C18 1.297 . S
C133 N82 1.533 . S
C149 C17 1.416 . S
C151 N69 1.495 . S
C167 C36 1.286 . S
C169 N57 1.438 1_565 S
C185 C34 1.494 . S
C187 N44 1.479 . S
C205 N56 1.533 . S
C203 C39 1.297 . S
C223 N43 1.495 . S
C221 C38 1.416 . S
C239 C14 1.540 1_565 S
C241 N47 1.578 1_565 S
C257 C16 1.420 . S
C259 N60 1.452 . S
C277 N73 1.578 . S
C275 C35 1.540 . S
C293 C37 1.420 . S
C295 N86 1.452 . S
