# Generated by pormake.
# Topology apo, (3,6)-cn, num edge types: 1
# Building blocks:
#     Node 0, Type 0, BuildingBlock: BETDAH_clean_linker_0, # of connection points: 3
#     Node 1, Type 0, BuildingBlock: BETDAH_clean_linker_0, # of connection points: 3
#     Node 2, Type 0, BuildingBlock: BETDAH_clean_linker_0, # of connection points: 3
#     Node 3, Type 0, BuildingBlock: BETDAH_clean_linker_0, # of connection points: 3
#     Node 4, Type 0, BuildingBlock: BETDAH_clean_linker_0, # of connection points: 3
#     Node 5, Type 0, BuildingBlock: BETDAH_clean_linker_0, # of connection points: 3
#     Node 6, Type 0, BuildingBlock: BETDAH_clean_linker_0, # of connection points: 3
#     Node 7, Type 0, BuildingBlock: BETDAH_clean_linker_0, # of connection points: 3
#     Node 8, Type 1, BuildingBlock: KUMBOL_clean_sbu_1, # of connection points: 6
#     Node 9, Type 1, BuildingBlock: KUMBOL_clean_sbu_1, # of connection points: 6
#     Node 10, Type 1, BuildingBlock: KUMBOL_clean_sbu_1, # of connection points: 6
#     Node 11, Type 1, BuildingBlock: KUMBOL_clean_sbu_1, # of connection points: 6
#     Edge 12, Type (0, 1), BuildingBlock: TEMPAE_clean_linker_10, # of connection points: 2
#     Edge 13, Type (0, 1), BuildingBlock: TEMPAE_clean_linker_10, # of connection points: 2
#     Edge 14, Type (0, 1), BuildingBlock: TEMPAE_clean_linker_10, # of connection points: 2
#     Edge 15, Type (0, 1), BuildingBlock: TEMPAE_clean_linker_10, # of connection points: 2
#     Edge 16, Type (0, 1), BuildingBlock: TEMPAE_clean_linker_10, # of connection points: 2
#     Edge 17, Type (0, 1), BuildingBlock: TEMPAE_clean_linker_10, # of connection points: 2
#     Edge 18, Type (0, 1), BuildingBlock: TEMPAE_clean_linker_10, # of connection points: 2
#     Edge 19, Type (0, 1), BuildingBlock: TEMPAE_clean_linker_10, # of connection points: 2
#     Edge 20, Type (0, 1), BuildingBlock: TEMPAE_clean_linker_10, # of connection points: 2
#     Edge 21, Type (0, 1), BuildingBlock: TEMPAE_clean_linker_10, # of connection points: 2
#     Edge 22, Type (0, 1), BuildingBlock: TEMPAE_clean_linker_10, # of connection points: 2
#     Edge 23, Type (0, 1), BuildingBlock: TEMPAE_clean_linker_10, # of connection points: 2
#     Edge 24, Type (0, 1), BuildingBlock: TEMPAE_clean_linker_10, # of connection points: 2
#     Edge 25, Type (0, 1), BuildingBlock: TEMPAE_clean_linker_10, # of connection points: 2
#     Edge 26, Type (0, 1), BuildingBlock: TEMPAE_clean_linker_10, # of connection points: 2
#     Edge 27, Type (0, 1), BuildingBlock: TEMPAE_clean_linker_10, # of connection points: 2
#     Edge 28, Type (0, 1), BuildingBlock: TEMPAE_clean_linker_10, # of connection points: 2
#     Edge 29, Type (0, 1), BuildingBlock: TEMPAE_clean_linker_10, # of connection points: 2
#     Edge 30, Type (0, 1), BuildingBlock: TEMPAE_clean_linker_10, # of connection points: 2
#     Edge 31, Type (0, 1), BuildingBlock: TEMPAE_clean_linker_10, # of connection points: 2
#     Edge 32, Type (0, 1), BuildingBlock: TEMPAE_clean_linker_10, # of connection points: 2
#     Edge 33, Type (0, 1), BuildingBlock: TEMPAE_clean_linker_10, # of connection points: 2
#     Edge 34, Type (0, 1), BuildingBlock: TEMPAE_clean_linker_10, # of connection points: 2
#     Edge 35, Type (0, 1), BuildingBlock: TEMPAE_clean_linker_10, # of connection points: 2
# Relax obj value: 0.037
# Max RMSD: 0.220
# Mean RMSD: 0.156
data_MOF--net-apo--node1-KUMBOL_clean_sbu_1--node2-BETDAH_clean_linker_0--edge1-TEMPAE_clean_linker_10
_symmetry_space_group_name_H-M    P1
_symmetry_Int_Tables_number       1
_symmetry_cell_setting            triclinic
loop_
_symmetry_equiv_pos_as_xyz
'x, y, z'
_cell_length_a     27.859854
_cell_length_b     42.499608
_cell_length_c     52.383204
_cell_angle_alpha  89.392315
_cell_angle_beta   89.916921
_cell_angle_gamma 90.310376
loop_
_atom_site_label
_atom_site_type_symbol
_atom_site_fract_x
_atom_site_fract_y
_atom_site_fract_z
_atom_type_partial_charge
H0 H 0.33782 0.43576 0.42933 0.0
H1 H 0.34393 0.37355 0.36487 0.0
H2 H 0.3227 0.33552 0.43981 0.0
C3 C 0.33628 0.41229 0.42152 0.0
C4 C 0.32904 0.38634 0.43809 0.0
C5 C 0.34235 0.40821 0.395 0.0
C6 C 0.33788 0.37764 0.38499 0.0
C7 C 0.32936 0.35171 0.40118 0.0
C8 C 0.32599 0.35609 0.42754 0.0
N9 N 0.33234 0.32069 0.39173 0.0
C10 C 0.29544 0.30612 0.37837 0.0
H11 H 0.15459 0.07266 0.92343 0.0
H12 H 0.20542 0.14138 0.86828 0.0
H13 H 0.19528 0.16528 0.94758 0.0
C14 C 0.16921 0.09577 0.91899 0.0
C15 C 0.17446 0.11767 0.93868 0.0
C16 C 0.17972 0.10407 0.89345 0.0
C17 C 0.1975 0.13458 0.88784 0.0
C18 C 0.20337 0.15658 0.90754 0.0
C19 C 0.19113 0.14805 0.93262 0.0
N20 N 0.21823 0.18818 0.903 0.0
C21 C 0.24784 0.19911 0.88335 0.0
H22 H 0.85781 0.10974 0.59378 0.0
H23 H 0.75524 0.14898 0.64633 0.0
H24 H 0.76042 0.18153 0.56851 0.0
C25 C 0.82906 0.12601 0.59787 0.0
C26 C 0.81249 0.14604 0.57834 0.0
C27 C 0.80876 0.12676 0.62256 0.0
C28 C 0.77125 0.14808 0.6275 0.0
C29 C 0.75401 0.16787 0.60787 0.0
C30 C 0.77447 0.16647 0.58354 0.0
N31 N 0.71495 0.18871 0.61128 0.0
C32 C 0.70021 0.20158 0.63426 0.0
H33 H 0.65375 0.41544 0.09211 0.0
H34 H 0.74215 0.37147 0.14944 0.0
H35 H 0.72929 0.3297 0.07577 0.0
C36 C 0.67682 0.39624 0.09789 0.0
C37 C 0.68893 0.37273 0.0803 0.0
C38 C 0.69514 0.39573 0.12297 0.0
C39 C 0.7274 0.37186 0.13032 0.0
C40 C 0.74006 0.34841 0.11285 0.0
C41 C 0.72027 0.34882 0.08836 0.0
N42 N 0.77315 0.32407 0.11852 0.0
C43 C 0.79035 0.31534 0.14242 0.0
H44 H 0.63977 0.58529 0.59023 0.0
H45 H 0.71464 0.64409 0.64415 0.0
H46 H 0.70581 0.67138 0.56505 0.0
C47 C 0.66119 0.60592 0.59452 0.0
C48 C 0.67194 0.62712 0.57465 0.0
C49 C 0.67653 0.61139 0.61975 0.0
C50 C 0.70233 0.63938 0.62496 0.0
C51 C 0.71236 0.66117 0.6051 0.0
C52 C 0.69709 0.65478 0.58024 0.0
N53 N 0.7375 0.68994 0.60882 0.0
C54 C 0.75965 0.70026 0.631 0.0
H55 H 0.846 0.9477 0.0873 0.0
H56 H 0.81675 0.85099 0.07026 0.0
H57 H 0.82442 0.87961 0.14826 0.0
C58 C 0.83792 0.92402 0.0939 0.0
C59 C 0.83695 0.917 0.12033 0.0
C60 C 0.83151 0.90036 0.0757 0.0
C61 C 0.82108 0.86963 0.08405 0.0
C62 C 0.81617 0.86252 0.11007 0.0
C63 C 0.82447 0.88609 0.12822 0.0
N64 N 0.80971 0.83059 0.11743 0.0
C65 C 0.77375 0.81964 0.13376 0.0
H66 H 0.18478 0.92133 0.42838 0.0
H67 H 0.27972 0.8828 0.37153 0.0
H68 H 0.29325 0.85485 0.45016 0.0
C69 C 0.21361 0.90565 0.42309 0.0
C70 C 0.23658 0.8879 0.44222 0.0
C71 C 0.22948 0.90454 0.3975 0.0
C72 C 0.26738 0.88413 0.39111 0.0
C73 C 0.29015 0.86611 0.41018 0.0
C74 C 0.27519 0.86863 0.43555 0.0
N75 N 0.32965 0.8462 0.405 0.0
C76 C 0.33884 0.83165 0.38186 0.0
H77 H 0.34414 0.5957 0.92361 0.0
H78 H 0.26157 0.67562 0.94699 0.0
H79 H 0.26877 0.65169 0.86763 0.0
C80 C 0.32195 0.61581 0.91889 0.0
C81 C 0.30911 0.6216 0.89326 0.0
C82 C 0.30442 0.63485 0.93854 0.0
C83 C 0.27479 0.66032 0.93215 0.0
C84 C 0.26203 0.66672 0.90683 0.0
C85 C 0.2789 0.64715 0.88728 0.0
N86 N 0.23153 0.69285 0.90229 0.0
C87 C 0.21817 0.70516 0.87868 0.0
C88 C 0.89381 0.06567 0.27788 0.0
C89 C 0.91391 0.01372 0.29386 0.0
C90 C 0.9251 0.04594 0.29082 0.0
C91 C 0.87227 1.00144 0.28246 0.0
C92 C 0.851 0.05379 0.26731 0.0
C93 C 0.84086 0.02145 0.26923 0.0
N94 N 0.9055 0.09662 0.27554 0.0
C95 C 0.87421 0.11757 0.26488 0.0
C96 C 0.81968 0.07486 0.25521 0.0
C97 C 0.83105 0.10695 0.2543 0.0
Gd98 Gd 0.07924 0.11698 0.23565 0.0
Gd99 Gd 0.97993 0.11218 0.29219 0.0
N100 N 0.9652 0.05856 0.30149 0.0
C101 C 0.94411 0.99503 0.30893 0.0
C102 C 0.99206 0.04109 0.3181 0.0
C103 C 0.98272 0.00897 0.32158 0.0
H104 H 0.02024 0.05192 0.32909 0.0
H105 H 0.00483 0.9951 0.33432 0.0
H106 H 0.06773 0.18944 0.21256 0.0
H107 H 0.88323 0.14232 0.26404 0.0
H108 H 0.1145 0.23922 0.21075 0.0
H109 H 0.93678 0.97018 0.3118 0.0
H110 H 0.86345 0.97666 0.28428 0.0
H111 H 0.15971 0.06032 0.25178 0.0
H112 H 0.78645 0.06666 0.24679 0.0
H113 H 0.80675 0.12346 0.24531 0.0
H114 H 0.26288 0.21348 0.25236 0.0
H115 H 0.80847 0.01176 0.26092 0.0
H116 H 0.28811 0.10589 0.27671 0.0
H117 H 0.24055 0.0573 0.27037 0.0
N118 N 0.15825 0.11048 0.25095 0.0
C119 C 0.18503 0.13723 0.25264 0.0
C120 C 0.17868 0.08189 0.25586 0.0
C121 C 0.25185 0.10747 0.26938 0.0
C122 C 0.2251 0.08 0.26586 0.0
C123 C 0.23249 0.13647 0.26198 0.0
H124 H 0.29618 0.16426 0.26981 0.0
N125 N 0.12105 0.1648 0.23354 0.0
C126 C 0.16621 0.16511 0.24317 0.0
C127 C 0.17497 0.21987 0.23106 0.0
C128 C 0.19423 0.19281 0.2425 0.0
C129 C 0.10291 0.19054 0.22118 0.0
C130 C 0.12932 0.21861 0.22007 0.0
O131 O 0.96501 0.09682 0.25146 0.0
O132 O 0.03453 0.0731 0.24013 0.0
O133 O 0.05523 0.11889 0.19619 0.0
O134 O 0.12718 0.1038 0.20486 0.0
O135 O 0.0536 0.09216 0.30054 0.0
O136 O 0.07874 0.07351 0.26156 0.0
O137 O 0.07245 0.15687 0.26387 0.0
O138 O 0.05345 0.13189 0.30146 0.0
O139 O 0.95159 0.10666 0.33076 0.0
O140 O 0.94523 0.1512 0.31103 0.0
O141 O 0.00965 0.14349 0.22864 0.0
O142 O 0.97699 0.15655 0.26813 0.0
C143 C 0.98762 0.07395 0.24003 0.0
C144 C 0.0789 0.0725 0.28674 0.0
C145 C 0.0909 0.08292 0.16809 0.0
C146 C 0.09643 0.06626 0.12363 0.0
C147 C 0.07403 0.02873 0.1571 0.0
C148 C 0.07776 0.05225 0.17542 0.0
C149 C 0.08292 0.03565 0.13136 0.0
C150 C 0.10035 0.08982 0.14226 0.0
C151 C 0.09521 0.10794 0.18711 0.0
C152 C 0.24084 0.19239 0.25261 0.0
C153 C 0.25979 0.16435 0.26254 0.0
H154 H 0.19538 0.24163 0.23019 0.0
C155 C 0.07554 0.15457 0.2888 0.0
C156 C 0.9818 0.16094 0.24326 0.0
C157 C 0.95976 0.15228 0.35548 0.0
C158 C 0.95831 0.16051 0.40166 0.0
C159 C 0.01781 0.18735 0.37502 0.0
C160 C 0.99905 0.173 0.35338 0.0
C161 C 0.99763 0.18126 0.39898 0.0
C162 C 0.93954 0.14609 0.37965 0.0
C163 C 0.94084 0.13624 0.33273 0.0
H164 H 0.06439 1.00501 0.16291 0.0
H165 H 0.0707 0.0465 0.19526 0.0
H166 H 0.0801 0.01693 0.11756 0.0
H167 H 0.11032 0.11361 0.13666 0.0
H168 H 0.04804 0.20334 0.37321 0.0
H169 H 0.01528 0.17811 0.33501 0.0
H170 H 0.01245 0.19318 0.41538 0.0
H171 H 0.90973 0.12969 0.38131 0.0
C172 C 0.63901 0.43108 0.78096 0.0
C173 C 0.6379 0.48726 0.7891 0.0
C174 C 0.61391 0.458 0.7878 0.0
C175 C 0.68699 0.4892 0.78314 0.0
C176 C 0.68835 0.433 0.77502 0.0
C177 C 0.71213 0.46217 0.77615 0.0
N178 N 0.61496 0.40321 0.77956 0.0
C179 C 0.63829 0.37626 0.77318 0.0
C180 C 0.71226 0.40555 0.7679 0.0
C181 C 0.68715 0.37705 0.76709 0.0
Gd182 Gd 0.43242 0.40268 0.73471 0.0
Gd183 Gd 0.53315 0.4047 0.78976 0.0
N184 N 0.56596 0.45564 0.79273 0.0
C185 C 0.61188 0.51373 0.79647 0.0
C186 C 0.54138 0.48095 0.80161 0.0
C187 C 0.56358 0.51045 0.80312 0.0
H188 H 0.50523 0.47854 0.80839 0.0
H189 H 0.5436 0.53052 0.80981 0.0
H190 H 0.46963 0.33458 0.70816 0.0
H191 H 0.61953 0.35402 0.77335 0.0
H192 H 0.44399 0.27926 0.70686 0.0
H193 H 0.629 0.53662 0.7977 0.0
H194 H 0.70589 0.51152 0.78391 0.0
H195 H 0.34164 0.44238 0.76052 0.0
H196 H 0.75013 0.40608 0.76315 0.0
H197 H 0.70548 0.35564 0.76193 0.0
H198 H 0.28896 0.27913 0.7466 0.0
H199 H 0.74998 0.46409 0.77155 0.0
H200 H 0.22735 0.37724 0.77637 0.0
H201 H 0.26023 0.43142 0.77731 0.0
N202 N 0.35489 0.39478 0.75087 0.0
C203 C 0.3371 0.36497 0.74951 0.0
C204 C 0.32777 0.41862 0.76032 0.0
C205 C 0.26307 0.3819 0.769 0.0
C206 C 0.28157 0.41251 0.76966 0.0
C207 C 0.29079 0.35769 0.75879 0.0
H208 H 0.2385 0.32045 0.76501 0.0
N209 N 0.41081 0.34928 0.73088 0.0
C210 C 0.36607 0.34153 0.73951 0.0
C211 C 0.37795 0.28754 0.72707 0.0
C212 C 0.34878 0.31033 0.73818 0.0
C213 C 0.43746 0.32769 0.7181 0.0
C214 C 0.42214 0.29639 0.71659 0.0
O215 O 0.55209 0.43019 0.75265 0.0
O216 O 0.48076 0.44536 0.73387 0.0
O217 O 0.43082 0.39609 0.69343 0.0
O218 O 0.38361 0.42965 0.711 0.0
O219 O 0.4626 0.4299 0.79659 0.0
O220 O 0.43319 0.44733 0.75756 0.0
O221 O 0.41741 0.3834 0.77465 0.0
O222 O 0.48801 0.36068 0.78647 0.0
O223 O 0.51501 0.40805 0.83013 0.0
O224 O 0.58083 0.38559 0.81846 0.0
O225 O 0.50623 0.38225 0.7262 0.0
O226 O 0.53211 0.36194 0.76481 0.0
C227 C 0.52741 0.4481 0.73684 0.0
C228 C 0.4371 0.44954 0.78251 0.0
C229 C 0.35539 0.40478 0.67365 0.0
C230 C 0.32185 0.39749 0.63099 0.0
C231 C 0.27272 0.38747 0.66861 0.0
C232 C 0.3111 0.39564 0.68432 0.0
C233 C 0.27785 0.3886 0.64211 0.0
C234 C 0.36078 0.40526 0.64691 0.0
C235 C 0.39527 0.41543 0.69004 0.0
C236 C 0.30275 0.30297 0.74751 0.0
C237 C 0.27389 0.32654 0.75784 0.0
H238 H 0.366 0.26331 0.72572 0.0
C239 C 0.44097 0.36066 0.78611 0.0
C240 C 0.53253 0.36238 0.73969 0.0
C241 C 0.54593 0.36747 0.85666 0.0
C242 C 0.55774 0.34934 0.90077 0.0
C243 C 0.53259 0.31268 0.86761 0.0
C244 C 0.53315 0.33692 0.84947 0.0
C245 C 0.54563 0.3186 0.89288 0.0
C246 C 0.55659 0.37377 0.88226 0.0
C247 C 0.55284 0.39248 0.83743 0.0
H248 H 0.23869 0.38055 0.67701 0.0
H249 H 0.30579 0.3953 0.70475 0.0
H250 H 0.24749 0.38235 0.63026 0.0
H251 H 0.39472 0.41252 0.6385 0.0
H252 H 0.52341 0.28899 0.8619 0.0
H253 H 0.52492 0.33167 0.82977 0.0
H254 H 0.5473 0.29872 0.90588 0.0
H255 H 0.56477 0.3978 0.88739 0.0
C256 C 0.84127 0.87225 0.76128 0.0
C257 C 0.84019 0.81778 0.77605 0.0
C258 C 0.86328 0.84729 0.77393 0.0
C259 C 0.79513 0.8134 0.76467 0.0
C260 C 0.79535 0.86806 0.75045 0.0
C261 C 0.7729 0.8384 0.75177 0.0
N262 N 0.86366 0.90085 0.76061 0.0
C263 C 0.83949 0.92675 0.75197 0.0
C264 C 0.77261 0.89406 0.73935 0.0
C265 C 0.7944 0.92364 0.74056 0.0
Gd266 Gd 0.03384 0.90569 0.71955 0.0
Gd267 Gd 0.94055 0.90222 0.77955 0.0
N268 N 0.90757 0.85185 0.78411 0.0
C269 C 0.8631 0.79359 0.78963 0.0
C270 C 0.92931 0.82887 0.79825 0.0
C271 C 0.90766 0.79925 0.80097 0.0
H272 H 0.96356 0.83341 0.80717 0.0
H273 H 0.92532 0.78084 0.81179 0.0
H274 H 0.98642 0.95641 0.67717 0.0
H275 H 0.85382 0.9501 0.75443 0.0
H276 H 0.00469 0.00866 0.65883 0.0
H277 H 0.84653 0.77057 0.79164 0.0
H278 H 0.77694 0.79084 0.76598 0.0
H279 H 0.13448 0.87999 0.74671 0.0
H280 H 0.73739 0.89181 0.7308 0.0
H281 H 0.77601 0.94419 0.73322 0.0
H282 H 0.16234 0.03221 0.69022 0.0
H283 H 0.73779 0.83475 0.7434 0.0
H284 H 0.24225 0.95167 0.73856 0.0
H285 H 0.21737 0.89884 0.75412 0.0
N286 N 0.11244 0.92219 0.72817 0.0
C287 C 0.12584 0.95068 0.71855 0.0
C288 C 0.14492 0.9032 0.74017 0.0
C289 C 0.20583 0.94355 0.73537 0.0
C290 C 0.1919 0.91375 0.74425 0.0
C291 C 0.17285 0.96231 0.72209 0.0
H292 H 0.22112 1.00162 0.71505 0.0
N293 N 0.04867 0.95507 0.70042 0.0
C294 C 0.09261 0.96794 0.70473 0.0
C295 C 0.07267 0.01271 0.67806 0.0
C296 C 0.10567 0.99729 0.69388 0.0
C297 C 0.01826 0.96868 0.68324 0.0
C298 C 0.0292 0.99797 0.67228 0.0
O299 O 0.95121 0.86127 0.75274 0.0
O300 O 0.95822 0.88763 0.7152 0.0
O301 O 0.05247 0.90285 0.67933 0.0
O302 O 0.05783 0.86153 0.70349 0.0
O303 O 0.01405 0.88187 0.78748 0.0
O304 O 0.04477 0.86597 0.7482 0.0
O305 O 0.05803 0.92888 0.75662 0.0
O306 O 0.98743 0.94533 0.77513 0.0
O307 O 0.95591 0.90221 0.8204 0.0
O308 O 0.88622 0.91621 0.80672 0.0
O309 O 0.95988 0.92734 0.71536 0.0
O310 O 0.93885 0.94658 0.75478 0.0
C311 C 0.94363 0.86288 0.72812 0.0
C312 C 0.04265 0.86433 0.77341 0.0
C313 C 0.11262 0.86644 0.66862 0.0
C314 C 0.16103 0.86397 0.62967 0.0
C315 C 0.19377 0.84595 0.67027 0.0
C316 C 0.15096 0.85357 0.68258 0.0
C317 C 0.19878 0.85093 0.644 0.0
C318 C 0.11806 0.87184 0.64219 0.0
C319 C 0.06643 0.87381 0.68102 0.0
C320 C 0.15182 0.00959 0.69823 0.0
C321 C 0.18537 0.99211 0.71226 0.0
H322 H 0.08134 0.03523 0.66926 0.0
C323 C 0.0345 0.94609 0.77327 0.0
C324 C 0.94059 0.94922 0.72965 0.0
C325 C 0.91147 0.93772 0.84572 0.0
C326 C 0.9 0.95301 0.89017 0.0
C327 C 0.91104 0.99293 0.85699 0.0
C328 C 0.91433 0.96956 0.83853 0.0
C329 C 0.90422 0.98478 0.88267 0.0
C330 C 0.90393 0.92956 0.87149 0.0
C331 C 0.91371 0.91273 0.82654 0.0
H332 H 0.22315 0.83603 0.68114 0.0
H333 H 0.14784 0.84923 0.70292 0.0
H334 H 0.23236 0.84486 0.63489 0.0
H335 H 0.0885 0.88158 0.63129 0.0
H336 H 0.91362 0.01746 0.85137 0.0
H337 H 0.91907 0.9763 0.81868 0.0
H338 H 0.90111 1.00332 0.8966 0.0
H339 H 0.90099 0.90495 0.87699 0.0
C340 C 0.68884 0.63761 0.26101 0.0
C341 C 0.69532 0.69449 0.26367 0.0
C342 C 0.66835 0.66651 0.26663 0.0
C343 C 0.74285 0.69306 0.25481 0.0
C344 C 0.73654 0.6361 0.25211 0.0
C345 C 0.76336 0.66397 0.249 0.0
N346 N 0.66182 0.61105 0.26382 0.0
C347 C 0.68065 0.58219 0.2588 0.0
C348 C 0.75581 0.60662 0.24645 0.0
C349 C 0.72779 0.57955 0.24992 0.0
Gd350 Gd 0.47282 0.61589 0.22806 0.0
Gd351 Gd 0.58272 0.61816 0.27772 0.0
N352 N 0.62164 0.66728 0.2743 0.0
C353 C 0.67362 0.72312 0.2696 0.0
C354 C 0.60097 0.69502 0.28101 0.0
C355 C 0.62636 0.72334 0.27846 0.0
H356 H 0.56521 0.69557 0.28865 0.0
H357 H 0.60957 0.74532 0.28354 0.0
H358 H 0.50365 0.54871 0.19777 0.0
H359 H 0.65958 0.56112 0.262 0.0
H360 H 0.48088 0.49278 0.19875 0.0
H361 H 0.69319 0.74511 0.26773 0.0
H362 H 0.76402 0.71433 0.2523 0.0
H363 H 0.38469 0.65451 0.25718 0.0
H364 H 0.79231 0.60449 0.23953 0.0
H365 H 0.74253 0.55663 0.24584 0.0
H366 H 0.33934 0.48953 0.25087 0.0
H367 H 0.80001 0.66328 0.24209 0.0
H368 H 0.27856 0.58736 0.28176 0.0
H369 H 0.30783 0.64239 0.279 0.0
N370 N 0.39863 0.60686 0.2481 0.0
C371 C 0.38259 0.57656 0.24874 0.0
C372 C 0.37211 0.63047 0.25838 0.0
C373 C 0.31213 0.59257 0.27209 0.0
C374 C 0.32859 0.62366 0.27064 0.0
C375 C 0.33907 0.56857 0.26099 0.0
H376 H 0.29101 0.53032 0.27153 0.0
N377 N 0.45223 0.56207 0.22564 0.0
C378 C 0.41053 0.55348 0.2375 0.0
C379 C 0.42154 0.49964 0.22445 0.0
C380 C 0.39464 0.52191 0.23768 0.0
C381 C 0.4754 0.54109 0.21047 0.0
C382 C 0.46146 0.50944 0.21029 0.0
O383 O 0.59465 0.6395 0.23844 0.0
O384 O 0.52184 0.65854 0.22448 0.0
O385 O 0.46909 0.61136 0.18677 0.0
O386 O 0.41664 0.63934 0.20638 0.0
O387 O 0.51622 0.64686 0.28709 0.0
O388 O 0.47714 0.66133 0.2496 0.0
O389 O 0.46304 0.5999 0.26952 0.0
O390 O 0.53387 0.57588 0.27861 0.0
O391 O 0.57403 0.62863 0.31796 0.0
O392 O 0.63076 0.59763 0.30581 0.0
O393 O 0.54404 0.5935 0.21717 0.0
O394 O 0.57312 0.57376 0.25518 0.0
C395 C 0.569 0.6599 0.22544 0.0
C396 C 0.48665 0.66517 0.27402 0.0
C397 C 0.39126 0.61245 0.16932 0.0
C398 C 0.35704 0.60082 0.12743 0.0
C399 C 0.3191 0.58047 0.16614 0.0
C400 C 0.35416 0.59502 0.18095 0.0
C401 C 0.32045 0.58329 0.13959 0.0
C402 C 0.3925 0.61536 0.14254 0.0
C403 C 0.42936 0.62711 0.18476 0.0
C404 C 0.35181 0.51372 0.25034 0.0
C405 C 0.32412 0.53698 0.26198 0.0
H406 H 0.41056 0.47516 0.2241 0.0
C407 C 0.48723 0.57754 0.28109 0.0
C408 C 0.57044 0.57322 0.23014 0.0
C409 C 0.59541 0.58744 0.34595 0.0
C410 C 0.59125 0.57556 0.39161 0.0
C411 C 0.56241 0.53754 0.3607 0.0
C412 C 0.57499 0.55797 0.34074 0.0
C413 C 0.57023 0.54625 0.38601 0.0
C414 C 0.60357 0.59612 0.37135 0.0
C415 C 0.60788 0.60943 0.32511 0.0
H416 H 0.29058 0.56712 0.17529 0.0
H417 H 0.35205 0.59273 0.20144 0.0
H418 H 0.29226 0.57222 0.12858 0.0
H419 H 0.42128 0.62866 0.1335 0.0
H420 H 0.54697 0.51478 0.35648 0.0
H421 H 0.5691 0.55071 0.32127 0.0
H422 H 0.56079 0.52981 0.40116 0.0
H423 H 0.61919 0.61897 0.37532 0.0
C424 C 0.15855 0.93092 0.377 0.0
C425 C 0.20829 0.92611 0.37797 0.0
C426 C 0.13852 0.95335 0.3603 0.0
C427 C 0.16892 0.9716 0.34419 0.0
C428 C 0.21903 0.96614 0.34446 0.0
C429 C 0.23808 0.94344 0.36129 0.0
C430 C 0.08487 0.9581 0.36036 0.0
C431 C 0.25272 0.98517 0.32771 0.0
C432 C 0.11149 0.01763 0.28934 0.0
C433 C 0.10551 0.0473 0.30031 0.0
C434 C 0.13271 0.99281 0.3032 0.0
C435 C 0.14863 0.99791 0.32853 0.0
C436 C 0.14393 0.02816 0.33933 0.0
C437 C 0.12236 0.05241 0.32512 0.0
C438 C 0.13689 0.96093 0.29102 0.0
C439 C 0.16067 0.03476 0.36616 0.0
H440 H 0.13525 0.91732 0.38957 0.0
H441 H 0.27661 0.94014 0.36209 0.0
H442 H 0.07646 0.98252 0.36608 0.0
H443 H 0.07044 0.95478 0.34084 0.0
H444 H 0.06606 0.94155 0.37359 0.0
H445 H 0.2902 0.97644 0.3287 0.0
H446 H 0.24062 0.98461 0.30755 0.0
H447 H 0.25241 0.01012 0.33372 0.0
H448 H 0.09815 0.01354 0.27022 0.0
H449 H 0.11805 0.0754 0.3336 0.0
H450 H 0.11434 0.94362 0.30164 0.0
H451 H 0.17448 0.95255 0.29205 0.0
H452 H 0.12537 0.96127 0.27072 0.0
H453 H 0.13994 0.02005 0.37995 0.0
H454 H 0.1563 0.05987 0.37134 0.0
H455 H 0.19903 0.0284 0.36828 0.0
C456 C 0.37491 0.59232 0.87147 0.0
C457 C 0.32612 0.59993 0.87314 0.0
C458 C 0.39109 0.56944 0.85438 0.0
C459 C 0.35752 0.5533 0.83893 0.0
C460 C 0.30835 0.5616 0.83998 0.0
C461 C 0.29329 0.58504 0.85694 0.0
C462 C 0.44393 0.56174 0.85354 0.0
C463 C 0.27136 0.54466 0.82412 0.0
C464 C 0.40711 0.50496 0.78404 0.0
C465 C 0.41201 0.47532 0.79571 0.0
C466 C 0.3885 0.53054 0.79766 0.0
C467 C 0.37355 0.52611 0.82333 0.0
C468 C 0.37647 0.49581 0.83474 0.0
C469 C 0.39615 0.47091 0.8209 0.0
C470 C 0.38686 0.56255 0.78497 0.0
C471 C 0.3601 0.48986 0.86187 0.0
H472 H 0.40038 0.604 0.88388 0.0
H473 H 0.2555 0.59071 0.85837 0.0
H474 H 0.44973 0.53762 0.86119 0.0
H475 H 0.4571 0.5622 0.83354 0.0
H476 H 0.46583 0.57842 0.8649 0.0
H477 H 0.23528 0.55548 0.82563 0.0
H478 H 0.28231 0.54461 0.80375 0.0
H479 H 0.26874 0.51974 0.83054 0.0
H480 H 0.41984 0.50849 0.76465 0.0
H481 H 0.3996 0.44794 0.8299 0.0
H482 H 0.41222 0.57868 0.79469 0.0
H483 H 0.35049 0.5728 0.78676 0.0
H484 H 0.39659 0.56166 0.76442 0.0
H485 H 0.38348 0.503 0.87522 0.0
H486 H 0.36115 0.4645 0.8672 0.0
H487 H 0.32293 0.4985 0.86452 0.0
C488 C 0.66224 0.55556 0.63424 0.0
C489 C 0.66405 0.58775 0.64014 0.0
C490 C 0.64294 0.53332 0.65139 0.0
C491 C 0.62692 0.54308 0.67567 0.0
C492 C 0.63238 0.57502 0.68268 0.0
C493 C 0.65022 0.59709 0.66471 0.0
C494 C 0.63779 0.49953 0.64305 0.0
C495 C 0.61778 0.58605 0.70883 0.0
C496 C 0.52732 0.49389 0.70614 0.0
C497 C 0.55306 0.47309 0.72192 0.0
C498 C 0.5509 0.51705 0.69137 0.0
C499 C 0.60149 0.52012 0.69279 0.0
C500 C 0.62766 0.49965 0.70901 0.0
C501 C 0.60322 0.47611 0.723 0.0
C502 C 0.52171 0.53761 0.67363 0.0
C503 C 0.68143 0.50263 0.71177 0.0
H504 H 0.6746 0.54773 0.61576 0.0
H505 H 0.65154 0.62177 0.66964 0.0
H506 H 0.65669 0.48366 0.65659 0.0
H507 H 0.5993 0.49262 0.64322 0.0
H508 H 0.65235 0.49571 0.62358 0.0
H509 H 0.62971 0.61058 0.71243 0.0
H510 H 0.57815 0.58491 0.71074 0.0
H511 H 0.63312 0.57037 0.72378 0.0
H512 H 0.48861 0.49181 0.70494 0.0
H513 H 0.62374 0.45982 0.73448 0.0
H514 H 0.5336 0.53412 0.65363 0.0
H515 H 0.52758 0.56277 0.67815 0.0
H516 H 0.48265 0.53241 0.67488 0.0
H517 H 0.69916 0.50505 0.69288 0.0
H518 H 0.69717 0.48212 0.72199 0.0
H519 H 0.68987 0.52418 0.7227 0.0
C520 C 0.83566 0.94186 0.16424 0.0
C521 C 0.85373 0.94108 0.13915 0.0
C522 C 0.85396 0.96324 0.18224 0.0
C523 C 0.89031 0.98495 0.17487 0.0
C524 C 0.90755 0.98499 0.14947 0.0
C525 C 0.88995 0.96276 0.13221 0.0
C526 C 0.83506 0.96224 0.20927 0.0
C527 C 0.94593 0.00787 0.14061 0.0
C528 C 0.91765 0.05882 0.21282 0.0
C529 C 0.96077 0.05063 0.22484 0.0
C530 C 0.89318 0.03729 0.19728 0.0
C531 C 0.91225 0.00679 0.19378 0.0
C532 C 0.95501 0.99813 0.20662 0.0
C533 C 0.97893 0.02024 0.22183 0.0
C534 C 0.84821 0.04771 0.18366 0.0
C535 C 0.97627 0.96576 0.20377 0.0
H536 H 0.80739 0.92565 0.16993 0.0
H537 H 0.90582 0.96201 0.11336 0.0
H538 H 0.86499 0.95796 0.22281 0.0
H539 H 0.81919 0.98528 0.21418 0.0
H540 H 0.8074 0.94361 0.21214 0.0
H541 H 0.95075 0.00777 0.11955 0.0
H542 H 0.93725 0.03216 0.14658 0.0
H543 H 0.98049 1.00139 0.14958 0.0
H544 H 0.9038 0.08243 0.21494 0.0
H545 H 0.01207 0.01377 0.23132 0.0
H546 H 0.81889 0.03034 0.18674 0.0
H547 H 0.85521 0.04906 0.16281 0.0
H548 H 0.83579 0.07111 0.19015 0.0
H549 H 0.94841 0.94743 0.20721 0.0
H550 H 0.00656 0.96164 0.21715 0.0
H551 H 0.98964 0.96286 0.18398 0.0
C552 C 0.79398 0.08762 0.65824 0.0
C553 C 0.82631 0.10449 0.64265 0.0
C554 C 0.8101 0.06385 0.67503 0.0
C555 C 0.85969 0.05668 0.6762 0.0
C556 C 0.89265 0.07485 0.66152 0.0
C557 C 0.87557 0.09844 0.645 0.0
C558 C 0.77385 0.04549 0.6907 0.0
C559 C 0.94584 0.06833 0.66172 0.0
C560 C 0.91268 1.00527 0.72915 0.0
C561 C 0.91616 0.97613 0.717 0.0
C562 C 0.89304 0.03155 0.71642 0.0
C563 C 0.87667 0.02859 0.69095 0.0
C564 C 0.8787 0.99891 0.67897 0.0
C565 C 0.89772 0.973 0.69227 0.0
C566 C 0.89163 0.06277 0.72982 0.0
C567 C 0.86242 0.99474 0.65173 0.0
H568 H 0.75583 0.09204 0.65653 0.0
H569 H 0.90096 0.11172 0.63339 0.0
H570 H 0.77164 0.02099 0.68366 0.0
H571 H 0.78526 0.04427 0.71097 0.0
H572 H 0.73749 0.05603 0.68971 0.0
H573 H 0.96688 0.09001 0.65733 0.0
H574 H 0.95824 0.05857 0.68027 0.0
H575 H 0.95377 0.05101 0.64662 0.0
H576 H 0.92664 0.00778 0.74833 0.0
H577 H 0.89929 0.95033 0.683 0.0
H578 H 0.85507 0.07292 0.72867 0.0
H579 H 0.9165 0.07956 0.72014 0.0
H580 H 0.90213 0.06069 0.75022 0.0
H581 H 0.82482 1.00276 0.6495 0.0
H582 H 0.86473 0.96989 0.6455 0.0
H583 H 0.88506 0.00948 0.63884 0.0
C584 C 0.6309 0.42715 0.14397 0.0
C585 C 0.67981 0.42028 0.14122 0.0
C586 C 0.61547 0.45154 0.15979 0.0
C587 C 0.64981 0.46985 0.17301 0.0
C588 C 0.69924 0.46266 0.17072 0.0
C589 C 0.71366 0.43777 0.15497 0.0
C590 C 0.56238 0.45802 0.16207 0.0
C591 C 0.73693 0.48183 0.1843 0.0
C592 C 0.60742 0.55173 0.1905 0.0
C593 C 0.59468 0.54763 0.21621 0.0
C594 C 0.62716 0.52693 0.17651 0.0
C595 C 0.63372 0.49717 0.18842 0.0
C596 C 0.62194 0.49314 0.21457 0.0
C597 C 0.60284 0.51849 0.2282 0.0
C598 C 0.63969 0.53233 0.14875 0.0
C599 C 0.62778 0.46174 0.22791 0.0
H600 H 0.60462 0.4134 0.13359 0.0
H601 H 0.7515 0.43265 0.15274 0.0
H602 H 0.55123 0.45661 0.18239 0.0
H603 H 0.55453 0.48221 0.15516 0.0
H604 H 0.54027 0.44117 0.151 0.0
H605 H 0.77365 0.47242 0.18143 0.0
H606 H 0.73608 0.50651 0.1772 0.0
H607 H 0.72922 0.48234 0.20508 0.0
H608 H 0.60143 0.57429 0.18123 0.0
H609 H 0.59267 0.51514 0.24803 0.0
H610 H 0.61588 0.51782 0.1366 0.0
H611 H 0.67714 0.52489 0.145 0.0
H612 H 0.63586 0.55739 0.14288 0.0
H613 H 0.60312 0.44425 0.21929 0.0
H614 H 0.61996 0.46302 0.24867 0.0
H615 H 0.66486 0.45294 0.22533 0.0
C616 C 0.34217 0.43779 0.35279 0.0
C617 C 0.35763 0.43528 0.37825 0.0
C618 C 0.35981 0.4617 0.33642 0.0
C619 C 0.39326 0.48402 0.34576 0.0
C620 C 0.40754 0.48238 0.37168 0.0
C621 C 0.39009 0.45792 0.38742 0.0
C622 C 0.34346 0.46269 0.30897 0.0
C623 C 0.44326 0.50523 0.38287 0.0
C624 C 0.48179 0.52348 0.30004 0.0
C625 C 0.46195 0.5535 0.29688 0.0
C626 C 0.45934 0.50057 0.31552 0.0
C627 C 0.41575 0.50772 0.32808 0.0
C628 C 0.39514 0.53788 0.32462 0.0
C629 C 0.41857 0.56044 0.30911 0.0
C630 C 0.48278 0.46884 0.31878 0.0
C631 C 0.34919 0.54665 0.33797 0.0
H632 H 0.31656 0.42083 0.34552 0.0
H633 H 0.4034 0.45605 0.40681 0.0
H634 H 0.32578 0.48549 0.30483 0.0
H635 H 0.37488 0.46098 0.29602 0.0
H636 H 0.31791 0.44336 0.30451 0.0
H637 H 0.43552 0.5093 0.40339 0.0
H638 H 0.4796 0.49483 0.38168 0.0
H639 H 0.44374 0.52829 0.37277 0.0
H640 H 0.51512 0.51788 0.29043 0.0
H641 H 0.4034 0.58375 0.30696 0.0
H642 H 0.45717 0.44988 0.31359 0.0
H643 H 0.49268 0.46515 0.3391 0.0
H644 H 0.51562 0.46655 0.30691 0.0
H645 H 0.32052 0.52933 0.33358 0.0
H646 H 0.33661 0.5705 0.33234 0.0
H647 H 0.35486 0.54601 0.35894 0.0
C648 C 0.18032 0.04948 0.87554 0.0
C649 C 0.16809 0.08135 0.87284 0.0
C650 C 0.1633 0.02686 0.85834 0.0
C651 C 0.13298 0.03622 0.83798 0.0
C652 C 0.12225 0.06854 0.8345 0.0
C653 C 0.14012 0.09073 0.85188 0.0
C654 C 0.17539 0.99267 0.86286 0.0
C655 C 0.08972 0.07949 0.81321 0.0
C656 C 0.10675 0.97974 0.7835 0.0
C657 C 0.06123 0.96806 0.79014 0.0
C658 C 0.13074 1.00179 0.79884 0.0
C659 C 0.10908 0.01201 0.82177 0.0
C660 C 0.06397 0.99926 0.82914 0.0
C661 C 0.04056 0.97778 0.81314 0.0
C662 C 0.17889 0.01453 0.7903 0.0
C663 C 0.03944 0.00873 0.85359 0.0
H664 H 0.20215 0.04211 0.89162 0.0
H665 H 0.13006 0.11523 0.84984 0.0
H666 H 0.14247 0.97963 0.8687 0.0
H667 H 0.18868 0.98191 0.845 0.0
H668 H 0.20293 0.98955 0.87798 0.0
H669 H 0.08823 0.10556 0.81169 0.0
H670 H 0.10201 0.06999 0.79468 0.0
H671 H 0.05285 0.07037 0.81668 0.0
H672 H 0.12328 0.97222 0.76607 0.0
H673 H 0.00607 0.96828 0.81882 0.0
H674 H 0.20595 0.01095 0.80555 0.0
H675 H 0.17627 0.04025 0.78674 0.0
H676 H 0.19188 1.00318 0.77259 0.0
H677 H 0.06549 0.01324 0.86913 0.0
H678 H 0.01392 0.99027 0.86032 0.0
H679 H 0.01898 0.03069 0.85009 0.0
C680 C 0.17726 0.08095 0.97659 0.0
C681 C 0.16141 0.10922 0.9655 0.0
C682 C 0.16643 0.07324 1.00215 0.0
C683 C 0.13857 0.09413 0.01692 0.0
C684 C 0.12174 0.12243 1.00566 0.0
C685 C 0.13356 0.1297 0.98017 0.0
C686 C 0.18547 0.04299 0.01349 0.0
C687 C 0.09141 0.14515 0.02059 0.0
C688 C 0.07659 0.06252 0.07694 0.0
C689 C 0.10705 0.07344 0.09628 0.0
C690 C 0.08633 0.06908 0.05107 0.0
C691 C 0.12781 0.08674 0.0443 0.0
C692 C 0.15883 0.09765 0.06374 0.0
C693 C 0.14796 0.09102 0.08946 0.0
C694 C 0.05201 0.05734 0.03098 0.0
C695 C 0.20368 0.11625 0.05736 0.0
H696 H 0.19907 0.06515 0.96541 0.0
H697 H 0.12063 0.15137 0.97161 0.0
H698 H 0.20918 0.04829 0.02991 0.0
H699 H 0.15538 0.02829 0.02085 0.0
H700 H 0.20607 0.02911 0.9994 0.0
H701 H 0.07994 0.16567 0.00883 0.0
H702 H 0.05896 0.13295 0.02812 0.0
H703 H 0.11189 0.15389 0.03724 0.0
H704 H 0.04467 0.04919 0.08209 0.0
H705 H 0.17198 0.09918 0.10428 0.0
H706 H 0.07117 0.04193 0.01742 0.0
H707 H 0.03768 0.07751 0.01979 0.0
H708 H 0.02137 0.04393 0.03936 0.0
H709 H 0.22708 0.10243 0.04456 0.0
H710 H 0.22447 0.12259 0.07466 0.0
H711 H 0.19407 0.1382 0.04697 0.0
C712 C 0.35707 0.41274 0.47843 0.0
C713 C 0.3276 0.39037 0.46645 0.0
C714 C 0.35752 0.41578 0.50514 0.0
C715 C 0.3286 0.39555 0.52041 0.0
C716 C 0.2987 0.373 0.50852 0.0
C717 C 0.29814 0.37095 0.48177 0.0
C718 C 0.38925 0.44051 0.51704 0.0
C719 C 0.26761 0.35077 0.52409 0.0
C720 C 0.36124 0.38121 0.59021 0.0
C721 C 0.32632 0.3989 0.60277 0.0
C722 C 0.36285 0.3802 0.56338 0.0
C723 C 0.32937 0.39787 0.54884 0.0
C724 C 0.29524 0.41673 0.56152 0.0
C725 C 0.29378 0.41672 0.58833 0.0
C726 C 0.39923 0.35936 0.55063 0.0
C727 C 0.2597 0.4365 0.54679 0.0
H728 H 0.38068 0.42754 0.46699 0.0
H729 H 0.27453 0.35398 0.47285 0.0
H730 H 0.36758 0.45594 0.52948 0.0
H731 H 0.41668 0.42909 0.5293 0.0
H732 H 0.40788 0.45538 0.5025 0.0
H733 H 0.24731 0.33403 0.51198 0.0
H734 H 0.29018 0.33709 0.53761 0.0
H735 H 0.24162 0.3643 0.53562 0.0
H736 H 0.38617 0.36726 0.6014 0.0
H737 H 0.26698 0.43059 0.59808 0.0
H738 H 0.42113 0.37327 0.53683 0.0
H739 H 0.38042 0.3408 0.53969 0.0
H740 H 0.42366 0.34788 0.5646 0.0
H741 H 0.27879 0.45179 0.53275 0.0
H742 H 0.23784 0.45157 0.55947 0.0
H743 H 0.23513 0.42103 0.5359 0.0
C744 C 0.62319 0.38506 0.04837 0.0
C745 C 0.66884 0.37263 0.05372 0.0
C746 C 0.60368 0.384 0.02364 0.0
C747 C 0.62918 0.36872 1.00399 0.0
C748 C 0.6751 0.35616 0.00913 0.0
C749 C 0.69488 0.35915 0.03359 0.0
C750 C 0.55564 0.39911 0.01859 0.0
C751 C 0.70305 0.33887 0.98894 0.0
C752 C 0.55908 0.33567 0.94799 0.0
C753 C 0.57356 0.35557 0.92771 0.0
C754 C 0.57694 0.33962 0.97283 0.0
C755 C 0.6078 0.36528 0.97809 0.0
C756 C 0.62041 0.38657 0.95825 0.0
C757 C 0.6045 0.38093 0.93328 0.0
C758 C 0.56409 0.31563 0.99323 0.0
C759 C 0.65153 0.41507 0.96324 0.0
H760 H 0.60206 0.39523 0.06351 0.0
H761 H 0.73088 0.35056 0.03684 0.0
H762 H 0.5578 0.41463 1.00144 0.0
H763 H 0.52834 0.38073 0.01468 0.0
H764 H 0.54314 0.41325 0.03501 0.0
H765 H 0.73668 0.32847 0.99656 0.0
H766 H 0.68068 0.31971 0.98088 0.0
H767 H 0.71251 0.35514 0.97302 0.0
H768 H 0.5341 0.3166 0.9446 0.0
H769 H 0.61749 0.39628 0.91816 0.0
H770 H 0.54514 0.32714 0.00921 0.0
H771 H 0.59731 0.30506 1.00117 0.0
H772 H 0.54089 0.29643 0.98586 0.0
H773 H 0.63923 0.42736 0.98064 0.0
H774 H 0.65124 0.43202 0.94695 0.0
H775 H 0.6891 0.40763 0.96655 0.0
C776 C 0.84448 0.11772 0.53998 0.0
C777 C 0.83481 0.14602 0.55249 0.0
C778 C 0.86438 0.11772 0.51528 0.0
C779 C 0.87517 0.14671 0.50289 0.0
C780 C 0.86593 0.17531 0.51556 0.0
C781 C 0.84582 0.17462 0.54014 0.0
C782 C 0.87345 0.08674 0.50234 0.0
C783 C 0.87734 0.20673 0.50316 0.0
C784 C 0.96643 0.15123 0.44892 0.0
C785 C 0.93687 0.15444 0.42737 0.0
C786 C 0.94685 0.14782 0.47352 0.0
C787 C 0.89639 0.14738 0.47672 0.0
C788 C 0.8663 0.14949 0.455 0.0
C789 C 0.88687 0.15306 0.43061 0.0
C790 C 0.98021 0.1456 0.49616 0.0
C791 C 0.81232 0.14899 0.45759 0.0
H792 H 0.83562 0.09556 0.54933 0.0
H793 H 0.83906 0.19656 0.54984 0.0
H794 H 0.85265 0.08558 0.48432 0.0
H795 H 0.91195 0.0848 0.4972 0.0
H796 H 0.86336 0.06626 0.5146 0.0
H797 H 0.86813 0.22682 0.51562 0.0
H798 H 0.91614 0.20813 0.49845 0.0
H799 H 0.85725 0.20922 0.48499 0.0
H800 H 0.00509 0.15163 0.44658 0.0
H801 H 0.8637 0.1558 0.41414 0.0
H802 H 0.97169 0.12431 0.50777 0.0
H803 H 0.97508 0.16628 0.5086 0.0
H804 H 0.01854 0.14469 0.49035 0.0
H805 H 0.80063 0.12814 0.46895 0.0
H806 H 0.79402 0.14851 0.43877 0.0
H807 H 0.80037 0.17018 0.46798 0.0
C808 C 0.81791 0.93331 0.03628 0.0
C809 C 0.83958 0.90729 0.04812 0.0
C810 C 0.82672 0.94057 0.01043 0.0
C811 C 0.85862 0.92167 0.9962 0.0
C812 C 0.8806 0.89538 0.00809 0.0
C813 C 0.87056 0.88839 0.03383 0.0
C814 C 0.80201 0.96852 0.99837 0.0
C815 C 0.91537 0.87491 0.99375 0.0
C816 C 0.853 0.92335 0.92354 0.0
C817 C 0.89013 0.94449 0.91729 0.0
C818 C 0.84209 0.91592 0.94912 0.0
C819 C 0.86946 0.92958 0.96894 0.0
C820 C 0.90739 0.95066 0.96272 0.0
C821 C 0.91701 0.95805 0.93698 0.0
C822 C 0.80095 0.8937 0.95493 0.0
C823 C 0.93795 0.96532 0.98324 0.0
H824 H 0.79377 0.94786 0.04724 0.0
H825 H 0.88795 0.86852 0.04302 0.0
H826 H 0.82912 0.98599 0.99174 0.0
H827 H 0.78143 0.96097 0.98135 0.0
H828 H 0.7771 0.98024 0.01179 0.0
H829 H 0.92935 0.8553 1.00574 0.0
H830 H 0.89763 0.86484 0.97672 0.0
H831 H 0.94616 0.88934 0.98684 0.0
H832 H 0.83177 0.91312 0.90838 0.0
H833 H 0.94597 0.97422 0.93221 0.0
H834 H 0.7741 0.90557 0.96713 0.0
H835 H 0.81413 0.87293 0.96578 0.0
H836 H 0.7828 0.88539 0.93736 0.0
H837 H 0.91519 0.97939 0.99618 0.0
H838 H 0.96657 0.98083 0.97522 0.0
H839 H 0.955 0.94662 0.995 0.0
C840 C 0.63702 0.64313 0.5323 0.0
C841 C 0.65778 0.61995 0.54796 0.0
C842 C 0.62444 0.63668 0.50691 0.0
C843 C 0.63321 0.60643 0.49689 0.0
C844 C 0.65394 0.58291 0.51266 0.0
C845 C 0.66582 0.58993 0.53801 0.0
C846 C 0.60199 0.66228 0.49077 0.0
C847 C 0.66425 0.55044 0.50264 0.0
C848 C 0.56684 0.57907 0.43763 0.0
C849 C 0.60129 0.58434 0.41848 0.0
C850 C 0.57642 0.58661 0.46318 0.0
C851 C 0.62169 0.59948 0.46976 0.0
C852 C 0.65649 0.60502 0.45047 0.0
C853 C 0.64581 0.59749 0.42507 0.0
C854 C 0.53824 0.58062 0.48315 0.0
C855 C 0.70533 0.61843 0.45673 0.0
H856 H 0.63027 0.66627 0.53999 0.0
H857 H 0.68239 0.57205 0.54993 0.0
H858 H 0.62524 0.66768 0.47406 0.0
H859 H 0.56686 0.65415 0.48329 0.0
H860 H 0.59639 0.68429 0.50161 0.0
H861 H 0.67989 0.53469 0.51746 0.0
H862 H 0.63075 0.5395 0.49543 0.0
H863 H 0.68967 0.55214 0.48635 0.0
H864 H 0.53219 0.56923 0.43259 0.0
H865 H 0.67278 0.60124 0.4104 0.0
H866 H 0.53022 0.60271 0.49339 0.0
H867 H 0.55144 0.5634 0.49753 0.0
H868 H 0.50441 0.57139 0.4748 0.0
H869 H 0.70145 0.6414 0.46636 0.0
H870 H 0.72804 0.62185 0.43947 0.0
H871 H 0.72424 0.60242 0.47018 0.0
C872 C 0.27958 0.62997 0.98442 0.0
C873 C 0.31573 0.62798 0.96583 0.0
C874 C 0.28956 0.62484 0.01037 0.0
C875 C 0.33688 0.61736 0.01804 0.0
C876 C 0.37347 0.61477 0.99937 0.0
C877 C 0.36245 0.62009 0.97347 0.0
C878 C 0.2494 0.62762 0.02961 0.0
C879 C 0.42432 0.60677 1.0068 0.0
C880 C 0.36482 0.63404 0.08767 0.0
C881 C 0.35702 0.60446 0.09912 0.0
C882 C 0.36023 0.63834 0.06115 0.0
C883 C 0.34766 0.61243 0.04567 0.0
C884 C 0.34172 0.58226 0.057 0.0
C885 C 0.34643 0.57865 0.08356 0.0
C886 C 0.36678 0.67089 0.04983 0.0
C887 C 0.32865 0.55398 0.04119 0.0
H888 H 0.24321 0.63546 0.97865 0.0
H889 H 0.39064 0.61872 0.95925 0.0
H890 H 0.24515 0.60516 0.04038 0.0
H891 H 0.25826 0.64613 0.04364 0.0
H892 H 0.21454 0.63352 0.02051 0.0
H893 H 0.44834 0.60482 0.98995 0.0
H894 H 0.43888 0.62515 0.01957 0.0
H895 H 0.42495 0.58419 0.0176 0.0
H896 H 0.37263 0.65413 0.09957 0.0
H897 H 0.34114 0.55562 0.09223 0.0
H898 H 0.33195 0.67948 0.04231 0.0
H899 H 0.39226 0.6703 0.03355 0.0
H900 H 0.38029 0.68799 0.06405 0.0
H901 H 0.29218 0.55709 0.03309 0.0
H902 H 0.3291 0.53177 0.05255 0.0
H903 H 0.35387 0.55171 0.02491 0.0
C904 C 0.17356 0.88213 0.47623 0.0
C905 C 0.22103 0.88928 0.46932 0.0
C906 C 0.16004 0.87962 0.50209 0.0
C907 C 0.19466 0.88494 0.52141 0.0
C908 C 0.24206 0.8937 0.51441 0.0
C909 C 0.25475 0.89546 0.48848 0.0
C910 C 0.10934 0.86983 0.50871 0.0
C911 C 0.27987 0.90018 0.53433 0.0
C912 C 0.15636 0.89826 0.59039 0.0
C913 C 0.16668 0.869 0.60169 0.0
C914 C 0.1645 0.90373 0.56419 0.0
C915 C 0.18259 0.87918 0.54886 0.0
C916 C 0.19154 0.84931 0.56008 0.0
C917 C 0.18388 0.84468 0.58636 0.0
C918 C 0.15521 0.93603 0.55308 0.0
C919 C 0.21006 0.82232 0.5444 0.0
H920 H 0.14756 0.87714 0.46142 0.0
H921 H 0.29139 0.90124 0.48313 0.0
H922 H 0.10966 0.84621 0.51795 0.0
H923 H 0.09352 0.88638 0.52257 0.0
H924 H 0.08587 0.86885 0.4916 0.0
H925 H 0.31371 0.90943 0.52579 0.0
H926 H 0.26641 0.91745 0.54833 0.0
H927 H 0.28806 0.87818 0.545 0.0
H928 H 0.14335 0.91717 0.60224 0.0
H929 H 0.19135 0.82193 0.59499 0.0
H930 H 0.13096 0.93436 0.53637 0.0
H931 H 0.18946 0.94656 0.54621 0.0
H932 H 0.13894 0.95211 0.56722 0.0
H933 H 0.18637 0.81842 0.52771 0.0
H934 H 0.21225 0.80007 0.55565 0.0
H935 H 0.24636 0.82813 0.53693 0.0
C936 C 0.27831 0.26354 0.34844 0.0
C937 C 0.26134 0.28647 0.36505 0.0
C938 C 0.2466 0.24251 0.33655 0.0
C939 C 0.19663 0.24465 0.34129 0.0
C940 C 0.17935 0.2681 0.358 0.0
C941 C 0.21206 0.28874 0.3698 0.0
C942 C 0.26663 0.21822 0.31871 0.0
C943 C 0.12644 0.27114 0.3636 0.0
C944 C 0.1142 0.20772 0.2919 0.0
C945 C 0.10422 0.1782 0.30293 0.0
C946 C 0.14346 0.22977 0.30433 0.0
C947 C 0.16273 0.22235 0.32865 0.0
C948 C 0.15134 0.19299 0.34031 0.0
C949 C 0.12231 0.17125 0.32729 0.0
C950 C 0.15462 0.26069 0.29112 0.0
C951 C 0.17091 0.18417 0.36624 0.0
H952 H 0.3166 0.26181 0.34497 0.0
H953 H 0.1992 0.30639 0.3829 0.0
H954 H 0.25214 0.19449 0.32342 0.0
H955 H 0.2554 0.22412 0.29898 0.0
H956 H 0.30646 0.21733 0.31924 0.0
H957 H 0.11863 0.29128 0.37627 0.0
H958 H 0.10616 0.27427 0.34554 0.0
H959 H 0.11297 0.24924 0.3729 0.0
H960 H 0.09917 0.21362 0.27344 0.0
H961 H 0.11453 0.14854 0.33602 0.0
H962 H 0.19314 0.26143 0.28574 0.0
H963 H 0.14804 0.28061 0.30417 0.0
H964 H 0.13287 0.26421 0.27357 0.0
H965 H 0.21065 0.18282 0.3653 0.0
H966 H 0.15669 0.16119 0.37327 0.0
H967 H 0.16178 0.20252 0.38032 0.0
C968 C 0.31402 0.23695 0.87933 0.0
C969 C 0.28018 0.2176 0.86746 0.0
C970 C 0.3419 0.2585 0.86511 0.0
C971 C 0.33586 0.26063 0.83829 0.0
C972 C 0.30287 0.24011 0.82611 0.0
C973 C 0.275 0.21897 0.84092 0.0
C974 C 0.37633 0.27995 0.87895 0.0
C975 C 0.29525 0.24143 0.79762 0.0
C976 C 0.36749 0.34001 0.8082 0.0
C977 C 0.41402 0.33486 0.79902 0.0
C978 C 0.34118 0.31582 0.82029 0.0
C979 C 0.362 0.28568 0.8235 0.0
C980 C 0.40883 0.28024 0.81396 0.0
C981 C 0.43437 0.30494 0.80194 0.0
C982 C 0.29136 0.32271 0.83003 0.0
C983 C 0.432 0.24837 0.81657 0.0
H984 H 0.31755 0.236 0.89995 0.0
H985 H 0.24835 0.20416 0.83184 0.0
H986 H 0.41282 0.27822 0.87059 0.0
H987 H 0.36465 0.30474 0.87663 0.0
H988 H 0.37847 0.27431 0.89967 0.0
H989 H 0.2781 0.21954 0.79053 0.0
H990 H 0.27128 0.26142 0.79295 0.0
H991 H 0.32962 0.24526 0.78729 0.0
H992 H 0.35181 0.36319 0.80624 0.0
H993 H 0.47017 0.30074 0.79463 0.0
H994 H 0.29 0.31905 0.85103 0.0
H995 H 0.26512 0.30623 0.82143 0.0
H996 H 0.28 0.34717 0.82556 0.0
H997 H 0.43696 0.2424 0.83706 0.0
H998 H 0.4675 0.24748 0.80692 0.0
H999 H 0.40827 0.23006 0.80831 0.0
C1000 C 0.63012 0.21852 0.65882 0.0
C1001 C 0.67955 0.22016 0.65434 0.0
C1002 C 0.60744 0.24048 0.67458 0.0
C1003 C 0.63506 0.26464 0.68599 0.0
C1004 C 0.68551 0.26539 0.68239 0.0
C1005 C 0.70718 0.24314 0.66643 0.0
C1006 C 0.55363 0.23883 0.67792 0.0
C1007 C 0.71622 0.29058 0.69437 0.0
C1008 C 0.57043 0.34117 0.70003 0.0
C1009 C 0.56065 0.33803 0.7262 0.0
C1010 C 0.59505 0.31761 0.68682 0.0
C1011 C 0.61066 0.29032 0.70011 0.0
C1012 C 0.60162 0.28725 0.72661 0.0
C1013 C 0.57646 0.31101 0.73929 0.0
C1014 C 0.60366 0.3217 0.65851 0.0
C1015 C 0.61788 0.25863 0.7415 0.0
H1016 H 0.60885 0.20089 0.64908 0.0
H1017 H 0.7454 0.24453 0.66258 0.0
H1018 H 0.54406 0.23929 0.69847 0.0
H1019 H 0.53692 0.25971 0.66874 0.0
H1020 H 0.53791 0.2173 0.66938 0.0
H1021 H 0.75517 0.28609 0.69179 0.0
H1022 H 0.70767 0.31376 0.6856 0.0
H1023 H 0.70841 0.29221 0.71508 0.0
H1024 H 0.55837 0.36194 0.68977 0.0
H1025 H 0.56858 0.30816 0.75945 0.0
H1026 H 0.58574 0.30238 0.64801 0.0
H1027 H 0.64263 0.32031 0.65431 0.0
H1028 H 0.58997 0.34452 0.65107 0.0
H1029 H 0.59952 0.23733 0.7342 0.0
H1030 H 0.6102 0.26056 0.76224 0.0
H1031 H 0.65701 0.25516 0.73888 0.0
C1032 C 0.8586 0.30782 0.17158 0.0
C1033 C 0.81291 0.2988 0.16333 0.0
C1034 C 0.88579 0.28778 0.18738 0.0
C1035 C 0.86681 0.25798 0.19466 0.0
C1036 C 0.81942 0.24971 0.18746 0.0
C1037 C 0.79302 0.2703 0.17181 0.0
C1038 C 0.93592 0.29761 0.19487 0.0
C1039 C 0.79784 0.21819 0.19472 0.0
C1040 C 0.95309 0.18994 0.20431 0.0
C1041 C 0.95374 0.18657 0.23098 0.0
C1042 C 0.92551 0.21337 0.19236 0.0
C1043 C 0.89799 0.23414 0.20739 0.0
C1044 C 0.89912 0.23129 0.23432 0.0
C1045 C 0.92685 0.20751 0.24579 0.0
C1046 C 0.92518 0.21551 0.16355 0.0
C1047 C 0.87057 0.25312 0.25099 0.0
H1048 H 0.87407 0.32976 0.16461 0.0
H1049 H 0.75786 0.26326 0.165 0.0
H1050 H 0.94192 0.29322 0.21554 0.0
H1051 H 0.96243 0.28337 0.18428 0.0
H1052 H 0.94294 0.32288 0.1906 0.0
H1053 H 0.75909 0.21671 0.18989 0.0
H1054 H 0.81699 0.19928 0.18447 0.0
H1055 H 0.80217 0.21357 0.21546 0.0
H1056 H 0.97365 0.17397 0.19264 0.0
H1057 H 0.92719 0.20528 0.26642 0.0
H1058 H 0.9366 0.23939 0.1572 0.0
H1059 H 0.8882 0.21163 0.15636 0.0
H1060 H 0.94926 0.19799 0.15465 0.0
H1061 H 0.88003 0.27795 0.24648 0.0
H1062 H 0.87689 0.24869 0.27165 0.0
H1063 H 0.83169 0.25018 0.24708 0.0
C1064 C 0.83655 0.72049 0.6468 0.0
C1065 C 0.78677 0.71786 0.64958 0.0
C1066 C 0.86294 0.7424 0.66107 0.0
C1067 C 0.83876 0.7622 0.67843 0.0
C1068 C 0.78855 0.75858 0.68201 0.0
C1069 C 0.76307 0.73643 0.66745 0.0
C1070 C 0.91632 0.74548 0.65659 0.0
C1071 C 0.76155 0.7787 0.70067 0.0
C1072 C 0.91448 0.80707 0.7266 0.0
C1073 C 0.91769 0.837 0.71516 0.0
C1074 C 0.88829 0.78264 0.71516 0.0
C1075 C 0.86553 0.78806 0.69139 0.0
C1076 C 0.86932 0.81814 0.67954 0.0
C1077 C 0.89527 0.84224 0.69159 0.0
C1078 C 0.88468 0.75116 0.72864 0.0
C1079 C 0.8458 0.8249 0.65414 0.0
H1080 H 0.8546 0.70637 0.63261 0.0
H1081 H 0.72438 0.73455 0.66928 0.0
H1082 H 0.92446 0.76885 0.64792 0.0
H1083 H 0.9359 0.74406 0.67498 0.0
H1084 H 0.93019 0.72699 0.64374 0.0
H1085 H 0.7222 0.77444 0.70003 0.0
H1086 H 0.77438 0.7735 0.72027 0.0
H1087 H 0.76859 0.80402 0.69675 0.0
H1088 H 0.93249 0.80269 0.74458 0.0
H1089 H 0.89752 0.86532 0.68265 0.0
H1090 H 0.8962 0.73207 0.71575 0.0
H1091 H 0.84674 0.7464 0.73395 0.0
H1092 H 0.90684 0.75019 0.74624 0.0
H1093 H 0.85964 0.80854 0.63953 0.0
H1094 H 0.85227 0.84944 0.64742 0.0
H1095 H 0.8065 0.82092 0.65566 0.0
C1096 C 0.73659 0.80146 0.17433 0.0
C1097 C 0.73745 0.80197 0.14764 0.0
C1098 C 0.70565 0.78076 0.18771 0.0
C1099 C 0.67559 0.75988 0.17396 0.0
C1100 C 0.67532 0.76133 0.14692 0.0
C1101 C 0.70627 0.7824 0.13411 0.0
C1102 C 0.70706 0.78011 0.21649 0.0
C1103 C 0.64421 0.73945 0.13147 0.0
C1104 C 0.64297 0.6809 0.20423 0.0
C1105 C 0.59509 0.68538 0.21158 0.0
C1106 C 0.66958 0.70505 0.19235 0.0
C1107 C 0.64785 0.73458 0.18756 0.0
C1108 C 0.59946 0.73931 0.19495 0.0
C1109 C 0.57354 0.71459 0.20677 0.0
C1110 C 0.72099 0.69885 0.18482 0.0
C1111 C 0.57526 0.77057 0.19056 0.0
H1112 H 0.76116 0.81648 0.18473 0.0
H1113 H 0.70742 0.78272 0.1134 0.0
H1114 H 0.67028 0.77848 0.22457 0.0
H1115 H 0.72701 0.759 0.22302 0.0
H1116 H 0.7252 0.80127 0.22429 0.0
H1117 H 0.64547 0.74513 0.11073 0.0
H1118 H 0.6564 0.71485 0.13433 0.0
H1119 H 0.60639 0.74058 0.13803 0.0
H1120 H 0.6598 0.65833 0.20774 0.0
H1121 H 0.53674 0.71832 0.21271 0.0
H1122 H 0.74522 0.71577 0.19444 0.0
H1123 H 0.7255 0.70238 0.16394 0.0
H1124 H 0.73252 0.6746 0.18992 0.0
H1125 H 0.59588 0.78947 0.20014 0.0
H1126 H 0.5378 0.7707 0.19785 0.0
H1127 H 0.57479 0.77633 0.16985 0.0
C1128 C 0.32802 0.78468 0.35546 0.0
C1129 C 0.35414 0.81188 0.36117 0.0
C1130 C 0.34694 0.76196 0.33899 0.0
C1131 C 0.39319 0.76662 0.32822 0.0
C1132 C 0.41855 0.79495 0.33303 0.0
C1133 C 0.3987 0.81725 0.34957 0.0
C1134 C 0.31868 0.73217 0.33434 0.0
C1135 C 0.46783 0.80089 0.32191 0.0
C1136 C 0.46715 0.69385 0.31428 0.0
C1137 C 0.46257 0.69123 0.2877 0.0
C1138 C 0.44473 0.71822 0.32759 0.0
C1139 C 0.41693 0.74066 0.31407 0.0
C1140 C 0.41208 0.73822 0.28726 0.0
C1141 C 0.43496 0.71356 0.2744 0.0
C1142 C 0.45083 0.71992 0.35619 0.0
C1143 C 0.38278 0.76168 0.27218 0.0
H1144 H 0.29374 0.7805 0.36478 0.0
H1145 H 0.41902 0.83822 0.35434 0.0
H1146 H 0.3172 0.72708 0.31362 0.0
H1147 H 0.33683 0.71203 0.34383 0.0
H1148 H 0.28143 0.73361 0.34181 0.0
H1149 H 0.48059 0.8253 0.32531 0.0
H1150 H 0.49382 0.7843 0.33065 0.0
H1151 H 0.46775 0.79661 0.30105 0.0
H1152 H 0.48824 0.67676 0.32482 0.0
H1153 H 0.43124 0.71188 0.25387 0.0
H1154 H 0.41524 0.71863 0.36569 0.0
H1155 H 0.46744 0.74275 0.36137 0.0
H1156 H 0.47358 0.70063 0.36386 0.0
H1157 H 0.34527 0.76173 0.27931 0.0
H1158 H 0.38236 0.75645 0.25145 0.0
H1159 H 0.39749 0.78573 0.27483 0.0
C1160 C 0.22295 0.75108 0.84996 0.0
C1161 C 0.19901 0.72366 0.85784 0.0
C1162 C 0.20039 0.77304 0.83378 0.0
C1163 C 0.15271 0.76738 0.82555 0.0
C1164 C 0.12949 0.73875 0.83244 0.0
C1165 C 0.15295 0.71723 0.84866 0.0
C1166 C 0.22645 0.80318 0.82687 0.0
C1167 C 0.07881 0.73172 0.824 0.0
C1168 C 0.0727 0.83814 0.81341 0.0
C1169 C 0.07211 0.84007 0.78665 0.0
C1170 C 0.099 0.81474 0.8262 0.0
C1171 C 0.12551 0.79261 0.81196 0.0
C1172 C 0.12558 0.79458 0.78497 0.0
C1173 C 0.09893 0.81826 0.77264 0.0
C1174 C 0.09808 0.81356 0.85503 0.0
C1175 C 0.15338 0.77146 0.76912 0.0
H1176 H 0.25841 0.75611 0.85746 0.0
H1177 H 0.13437 0.69612 0.85514 0.0
H1178 H 0.22395 0.80795 0.80605 0.0
H1179 H 0.20931 0.82317 0.83676 0.0
H1180 H 0.26493 0.80247 0.83236 0.0
H1181 H 0.06777 0.70717 0.8287 0.0
H1182 H 0.05367 0.74801 0.83354 0.0
H1183 H 0.07515 0.73558 0.80312 0.0
H1184 H 0.05234 0.85485 0.82448 0.0
H1185 H 0.09881 0.81944 0.75196 0.0
H1186 H 0.13514 0.81547 0.8626 0.0
H1187 H 0.08318 0.79065 0.8617 0.0
H1188 H 0.07618 0.83272 0.86329 0.0
H1189 H 0.19177 0.77175 0.77471 0.0
H1190 H 0.15082 0.77669 0.74834 0.0
H1191 H 0.13964 0.74727 0.77274 0.0
loop_
_geom_bond_atom_site_label_1
_geom_bond_atom_site_label_2
_geom_bond_distance
_geom_bond_site_symmetry_2
_ccdc_geom_bond_type
H0 C3 0.929 . S
H1 C6 0.929 . S
H2 C8 0.930 . S
C3 H0 0.929 . S
C3 C4 1.398 . S
C3 C5 1.396 . S
C4 C3 1.398 . S
C4 C8 1.407 . S
C5 C3 1.396 . S
C5 C6 1.394 . S
C6 H1 0.929 . S
C6 C5 1.394 . S
C6 C7 1.382 . S
C7 C6 1.382 . S
C7 C8 1.392 . S
C7 N9 1.420 . S
C8 H2 0.930 . S
C8 C4 1.407 . S
C8 C7 1.392 . S
N9 C7 1.420 . S
N9 C10 1.244 . S
C10 N9 1.244 . S
H11 C14 0.929 . S
H12 C17 0.929 . S
H13 C19 0.930 . S
C14 H11 0.929 . S
C14 C15 1.398 . S
C14 C16 1.396 . S
C15 C14 1.398 . S
C15 C19 1.407 . S
C16 C14 1.396 . S
C16 C17 1.394 . S
C17 H12 0.929 . S
C17 C16 1.394 . S
C17 C18 1.382 . S
C18 C17 1.382 . S
C18 C19 1.392 . S
C18 N20 1.420 . S
C19 H13 0.930 . S
C19 C15 1.407 . S
C19 C18 1.392 . S
N20 C18 1.420 . S
N20 C21 1.244 . S
C21 N20 1.244 . S
H22 C25 0.929 . S
H23 C28 0.929 . S
H24 C30 0.930 . S
C25 H22 0.929 . S
C25 C26 1.398 . S
C25 C27 1.396 . S
C26 C25 1.398 . S
C26 C30 1.407 . S
C27 C25 1.396 . S
C27 C28 1.394 . S
C28 H23 0.929 . S
C28 C27 1.394 . S
C28 C29 1.382 . S
C29 C28 1.382 . S
C29 C30 1.392 . S
C29 N31 1.420 . S
C30 H24 0.930 . S
C30 C26 1.407 . S
C30 C29 1.392 . S
N31 C29 1.420 . S
N31 C32 1.244 . S
C32 N31 1.244 . S
H33 C36 0.929 . S
H34 C39 0.929 . S
H35 C41 0.930 . S
C36 H33 0.929 . S
C36 C37 1.398 . S
C36 C38 1.396 . S
C37 C36 1.398 . S
C37 C41 1.407 . S
C38 C36 1.396 . S
C38 C39 1.394 . S
C39 H34 0.929 . S
C39 C38 1.394 . S
C39 C40 1.382 . S
C40 C39 1.382 . S
C40 C41 1.392 . S
C40 N42 1.420 . S
C41 H35 0.930 . S
C41 C37 1.407 . S
C41 C40 1.392 . S
N42 C40 1.420 . S
N42 C43 1.244 . S
C43 N42 1.244 . S
H44 C47 0.929 . S
H45 C50 0.929 . S
H46 C52 0.930 . S
C47 H44 0.929 . S
C47 C48 1.398 . S
C47 C49 1.396 . S
C48 C47 1.398 . S
C48 C52 1.407 . S
C49 C47 1.396 . S
C49 C50 1.394 . S
C50 H45 0.929 . S
C50 C49 1.394 . S
C50 C51 1.382 . S
C51 C50 1.382 . S
C51 C52 1.392 . S
C51 N53 1.420 . S
C52 H46 0.930 . S
C52 C48 1.407 . S
C52 C51 1.392 . S
N53 C51 1.420 . S
N53 C54 1.244 . S
C54 N53 1.244 . S
H55 C58 0.929 . S
H56 C61 0.929 . S
H57 C63 0.930 . S
C58 H55 0.929 . S
C58 C59 1.398 . S
C58 C60 1.396 . S
C59 C58 1.398 . S
C59 C63 1.407 . S
C60 C58 1.396 . S
C60 C61 1.394 . S
C61 H56 0.929 . S
C61 C60 1.394 . S
C61 C62 1.382 . S
C62 C61 1.382 . S
C62 C63 1.392 . S
C62 N64 1.420 . S
C63 H57 0.930 . S
C63 C59 1.407 . S
C63 C62 1.392 . S
N64 C62 1.420 . S
N64 C65 1.244 . S
C65 N64 1.244 . S
H66 C69 0.929 . S
H67 C72 0.929 . S
H68 C74 0.930 . S
C69 H66 0.929 . S
C69 C70 1.398 . S
C69 C71 1.396 . S
C70 C69 1.398 . S
C70 C74 1.407 . S
C71 C69 1.396 . S
C71 C72 1.394 . S
C72 H67 0.929 . S
C72 C71 1.394 . S
C72 C73 1.382 . S
C73 C72 1.382 . S
C73 C74 1.392 . S
C73 N75 1.420 . S
C74 H68 0.930 . S
C74 C70 1.407 . S
C74 C73 1.392 . S
N75 C73 1.420 . S
N75 C76 1.244 . S
C76 N75 1.244 . S
H77 C80 0.929 . S
H78 C83 0.929 . S
H79 C85 0.930 . S
C80 H77 0.929 . S
C80 C81 1.398 . S
C80 C82 1.396 . S
C81 C80 1.398 . S
C81 C85 1.407 . S
C82 C80 1.396 . S
C82 C83 1.394 . S
C83 H78 0.929 . S
C83 C82 1.394 . S
C83 C84 1.382 . S
C84 C83 1.382 . S
C84 C85 1.392 . S
C84 N86 1.420 . S
C85 H79 0.930 . S
C85 C81 1.407 . S
C85 C84 1.392 . S
N86 C84 1.420 . S
N86 C87 1.244 . S
C87 N86 1.244 . S
C88 C90 1.422 . S
C88 C92 1.415 . S
C88 N94 1.369 . S
C89 C90 1.421 . S
C89 C91 1.417 . S
C89 C101 1.422 1_545 S
C90 C88 1.422 . S
C90 C89 1.421 . S
C90 N100 1.359 . S
C91 C89 1.417 . S
C91 C93 1.329 . S
C91 H110 0.930 . S
C92 C88 1.415 . S
C92 C93 1.437 . S
C92 C96 1.413 . S
C93 C91 1.329 . S
C93 C92 1.437 . S
C93 H115 0.929 . S
N94 C88 1.369 . S
N94 C95 1.338 . S
N94 Gd99 2.622 . S
C95 N94 1.338 . S
C95 C97 1.378 . S
C95 H107 0.929 . S
C96 C92 1.413 . S
C96 C97 1.348 . S
C96 H112 0.931 . S
C97 C95 1.378 . S
C97 C96 1.348 . S
C97 H113 0.930 . S
Gd98 N118 2.622 . S
Gd98 N125 2.570 . S
Gd98 O132 2.353 . S
Gd98 O133 2.468 . S
Gd98 O134 2.427 . S
Gd98 O136 2.388 . S
Gd98 O137 2.386 . S
Gd98 O141 2.307 . S
Gd98 C151 2.805 . S
Gd99 N94 2.622 . S
Gd99 N100 2.570 . S
Gd99 O131 2.386 . S
Gd99 O135 2.307 1_655 S
Gd99 O138 2.353 1_655 S
Gd99 O139 2.468 . S
Gd99 O140 2.427 . S
Gd99 O142 2.388 . S
Gd99 C163 2.805 . S
N100 C90 1.359 . S
N100 Gd99 2.570 . S
N100 C102 1.343 . S
C101 C89 1.422 1_565 S
C101 C103 1.321 1_565 S
C101 H109 0.931 . S
C102 N100 1.343 . S
C102 C103 1.396 . S
C102 H104 0.931 . S
C103 C101 1.321 1_545 S
C103 C102 1.396 . S
C103 H105 0.924 1_545 S
H104 C102 0.931 . S
H105 C103 0.924 1_565 S
H106 C129 0.931 . S
H107 C95 0.929 . S
H108 C130 0.930 . S
H109 C101 0.931 . S
H110 C91 0.930 . S
H111 C120 0.929 . S
H112 C96 0.931 . S
H113 C97 0.930 . S
H114 C152 0.930 . S
H115 C93 0.929 . S
H116 C121 0.931 . S
H117 C122 0.930 . S
N118 Gd98 2.622 . S
N118 C119 1.369 . S
N118 C120 1.338 . S
C119 N118 1.369 . S
C119 C123 1.415 . S
C119 C126 1.422 . S
C120 H111 0.929 . S
C120 N118 1.338 . S
C120 C122 1.378 . S
C121 H116 0.931 . S
C121 C122 1.348 . S
C121 C123 1.413 . S
C122 H117 0.930 . S
C122 C120 1.378 . S
C122 C121 1.348 . S
C123 C119 1.415 . S
C123 C121 1.413 . S
C123 C153 1.437 . S
H124 C153 0.929 . S
N125 Gd98 2.570 . S
N125 C126 1.359 . S
N125 C129 1.343 . S
C126 C119 1.422 . S
C126 N125 1.359 . S
C126 C128 1.421 . S
C127 C128 1.422 . S
C127 C130 1.321 . S
C127 H154 0.931 . S
C128 C126 1.421 . S
C128 C127 1.422 . S
C128 C152 1.417 . S
C129 H106 0.931 . S
C129 N125 1.343 . S
C129 C130 1.390 . S
C130 H108 0.930 . S
C130 C127 1.321 . S
C130 C129 1.390 . S
O131 Gd99 2.386 . S
O131 C143 1.265 . S
O132 Gd98 2.353 . S
O132 C143 1.242 1_455 S
O133 Gd98 2.468 . S
O133 C151 1.263 . S
O134 Gd98 2.427 . S
O134 C151 1.252 . S
O135 Gd99 2.307 1_455 S
O135 C144 1.261 . S
O136 Gd98 2.388 . S
O136 C144 1.252 . S
O137 Gd98 2.386 . S
O137 C155 1.265 . S
O138 Gd99 2.353 1_455 S
O138 C155 1.242 . S
O139 Gd99 2.468 . S
O139 C163 1.263 . S
O140 Gd99 2.427 . S
O140 C163 1.252 . S
O141 Gd98 2.307 . S
O141 C156 1.261 1_455 S
O142 Gd99 2.388 . S
O142 C156 1.252 . S
C143 O131 1.265 . S
C143 O132 1.242 1_655 S
C144 O135 1.261 . S
C144 O136 1.252 . S
C145 C148 1.394 . S
C145 C150 1.370 . S
C145 C151 1.500 . S
C146 C149 1.383 . S
C146 C150 1.395 . S
C147 C148 1.396 . S
C147 C149 1.365 . S
C147 H164 0.929 . S
C148 C145 1.394 . S
C148 C147 1.396 . S
C148 H165 0.930 . S
C149 C146 1.383 . S
C149 C147 1.365 . S
C149 H166 0.931 . S
C150 C145 1.370 . S
C150 C146 1.395 . S
C150 H167 0.930 . S
C151 Gd98 2.805 . S
C151 O133 1.263 . S
C151 O134 1.252 . S
C151 C145 1.500 . S
C152 H114 0.930 . S
C152 C128 1.417 . S
C152 C153 1.329 . S
C153 C123 1.437 . S
C153 H124 0.929 . S
C153 C152 1.329 . S
H154 C127 0.931 . S
C155 O137 1.265 . S
C155 O138 1.242 . S
C156 O141 1.261 1_655 S
C156 O142 1.252 . S
C157 C160 1.394 . S
C157 C162 1.370 . S
C157 C163 1.500 . S
C158 C161 1.383 . S
C158 C162 1.395 . S
C159 C160 1.396 . S
C159 C161 1.365 . S
C159 H168 0.929 . S
C160 C157 1.394 . S
C160 C159 1.396 . S
C160 H169 0.930 . S
C161 C158 1.383 . S
C161 C159 1.365 . S
C161 H170 0.931 . S
C162 C157 1.370 . S
C162 C158 1.395 . S
C162 H171 0.930 . S
C163 Gd99 2.805 . S
C163 O139 1.263 . S
C163 O140 1.252 . S
C163 C157 1.500 . S
H164 C147 0.929 . S
H165 C148 0.930 . S
H166 C149 0.931 . S
H167 C150 0.930 . S
H168 C159 0.929 . S
H169 C160 0.930 . S
H170 C161 0.931 . S
H171 C162 0.930 . S
C172 C174 1.422 . S
C172 C176 1.415 . S
C172 N178 1.369 . S
C173 C174 1.421 . S
C173 C175 1.417 . S
C173 C185 1.422 . S
C174 C172 1.422 . S
C174 C173 1.421 . S
C174 N184 1.359 . S
C175 C173 1.417 . S
C175 C177 1.329 . S
C175 H194 0.930 . S
C176 C172 1.415 . S
C176 C177 1.437 . S
C176 C180 1.413 . S
C177 C175 1.329 . S
C177 C176 1.437 . S
C177 H199 0.929 . S
N178 C172 1.369 . S
N178 C179 1.338 . S
N178 Gd183 2.622 . S
C179 N178 1.338 . S
C179 C181 1.378 . S
C179 H191 0.929 . S
C180 C176 1.413 . S
C180 C181 1.348 . S
C180 H196 0.931 . S
C181 C179 1.378 . S
C181 C180 1.348 . S
C181 H197 0.930 . S
Gd182 N202 2.622 . S
Gd182 N209 2.570 . S
Gd182 O216 2.353 . S
Gd182 O217 2.468 . S
Gd182 O218 2.427 . S
Gd182 O220 2.388 . S
Gd182 O221 2.386 . S
Gd182 O225 2.307 . S
Gd182 C235 2.805 . S
Gd183 N178 2.622 . S
Gd183 N184 2.570 . S
Gd183 O215 2.386 . S
Gd183 O219 2.307 . S
Gd183 O222 2.353 . S
Gd183 O223 2.468 . S
Gd183 O224 2.427 . S
Gd183 O226 2.388 . S
Gd183 C247 2.805 . S
N184 C174 1.359 . S
N184 Gd183 2.570 . S
N184 C186 1.343 . S
C185 C173 1.422 . S
C185 C187 1.321 . S
C185 H193 0.931 . S
C186 N184 1.343 . S
C186 C187 1.390 . S
C186 H188 0.931 . S
C187 C185 1.321 . S
C187 C186 1.390 . S
C187 H189 0.930 . S
H188 C186 0.931 . S
H189 C187 0.930 . S
H190 C213 0.931 . S
H191 C179 0.929 . S
H192 C214 0.930 . S
H193 C185 0.931 . S
H194 C175 0.930 . S
H195 C204 0.929 . S
H196 C180 0.931 . S
H197 C181 0.930 . S
H198 C236 0.930 . S
H199 C177 0.929 . S
H200 C205 0.931 . S
H201 C206 0.930 . S
N202 Gd182 2.622 . S
N202 C203 1.369 . S
N202 C204 1.338 . S
C203 N202 1.369 . S
C203 C207 1.415 . S
C203 C210 1.422 . S
C204 H195 0.929 . S
C204 N202 1.338 . S
C204 C206 1.378 . S
C205 H200 0.931 . S
C205 C206 1.348 . S
C205 C207 1.413 . S
C206 H201 0.930 . S
C206 C204 1.378 . S
C206 C205 1.348 . S
C207 C203 1.415 . S
C207 C205 1.413 . S
C207 C237 1.437 . S
H208 C237 0.929 . S
N209 Gd182 2.570 . S
N209 C210 1.359 . S
N209 C213 1.343 . S
C210 C203 1.422 . S
C210 N209 1.359 . S
C210 C212 1.421 . S
C211 C212 1.422 . S
C211 C214 1.321 . S
C211 H238 0.931 . S
C212 C210 1.421 . S
C212 C211 1.422 . S
C212 C236 1.417 . S
C213 H190 0.931 . S
C213 N209 1.343 . S
C213 C214 1.390 . S
C214 H192 0.930 . S
C214 C211 1.321 . S
C214 C213 1.390 . S
O215 Gd183 2.386 . S
O215 C227 1.265 . S
O216 Gd182 2.353 . S
O216 C227 1.242 . S
O217 Gd182 2.468 . S
O217 C235 1.263 . S
O218 Gd182 2.427 . S
O218 C235 1.252 . S
O219 Gd183 2.307 . S
O219 C228 1.261 . S
O220 Gd182 2.388 . S
O220 C228 1.252 . S
O221 Gd182 2.386 . S
O221 C239 1.265 . S
O222 Gd183 2.353 . S
O222 C239 1.242 . S
O223 Gd183 2.468 . S
O223 C247 1.263 . S
O224 Gd183 2.427 . S
O224 C247 1.252 . S
O225 Gd182 2.307 . S
O225 C240 1.261 . S
O226 Gd183 2.388 . S
O226 C240 1.252 . S
C227 O215 1.265 . S
C227 O216 1.242 . S
C228 O219 1.261 . S
C228 O220 1.252 . S
C229 C232 1.394 . S
C229 C234 1.370 . S
C229 C235 1.500 . S
C230 C233 1.383 . S
C230 C234 1.395 . S
C231 C232 1.396 . S
C231 C233 1.365 . S
C231 H248 0.929 . S
C232 C229 1.394 . S
C232 C231 1.396 . S
C232 H249 0.930 . S
C233 C230 1.383 . S
C233 C231 1.365 . S
C233 H250 0.931 . S
C234 C229 1.370 . S
C234 C230 1.395 . S
C234 H251 0.930 . S
C235 Gd182 2.805 . S
C235 O217 1.263 . S
C235 O218 1.252 . S
C235 C229 1.500 . S
C236 H198 0.930 . S
C236 C212 1.417 . S
C236 C237 1.329 . S
C237 C207 1.437 . S
C237 H208 0.929 . S
C237 C236 1.329 . S
H238 C211 0.931 . S
C239 O221 1.265 . S
C239 O222 1.242 . S
C240 O225 1.261 . S
C240 O226 1.252 . S
C241 C244 1.394 . S
C241 C246 1.370 . S
C241 C247 1.500 . S
C242 C245 1.383 . S
C242 C246 1.395 . S
C243 C244 1.396 . S
C243 C245 1.365 . S
C243 H252 0.929 . S
C244 C241 1.394 . S
C244 C243 1.396 . S
C244 H253 0.930 . S
C245 C242 1.383 . S
C245 C243 1.365 . S
C245 H254 0.931 . S
C246 C241 1.370 . S
C246 C242 1.395 . S
C246 H255 0.930 . S
C247 Gd183 2.805 . S
C247 O223 1.263 . S
C247 O224 1.252 . S
C247 C241 1.500 . S
H248 C231 0.929 . S
H249 C232 0.930 . S
H250 C233 0.931 . S
H251 C234 0.930 . S
H252 C243 0.929 . S
H253 C244 0.930 . S
H254 C245 0.931 . S
H255 C246 0.930 . S
C256 C258 1.422 . S
C256 C260 1.415 . S
C256 N262 1.369 . S
C257 C258 1.421 . S
C257 C259 1.417 . S
C257 C269 1.422 . S
C258 C256 1.422 . S
C258 C257 1.421 . S
C258 N268 1.359 . S
C259 C257 1.417 . S
C259 C261 1.329 . S
C259 H278 0.930 . S
C260 C256 1.415 . S
C260 C261 1.437 . S
C260 C264 1.413 . S
C261 C259 1.329 . S
C261 C260 1.437 . S
C261 H283 0.929 . S
N262 C256 1.369 . S
N262 C263 1.338 . S
N262 Gd267 2.622 . S
C263 N262 1.338 . S
C263 C265 1.378 . S
C263 H275 0.929 . S
C264 C260 1.413 . S
C264 C265 1.348 . S
C264 H280 0.931 . S
C265 C263 1.378 . S
C265 C264 1.348 . S
C265 H281 0.930 . S
Gd266 N286 2.622 . S
Gd266 N293 2.570 . S
Gd266 O300 2.347 1_455 S
Gd266 O301 2.468 . S
Gd266 O302 2.427 . S
Gd266 O304 2.388 . S
Gd266 O305 2.386 . S
Gd266 O309 2.305 . S
Gd266 C319 2.805 . S
Gd267 N262 2.622 . S
Gd267 N268 2.570 . S
Gd267 O299 2.386 . S
Gd267 O303 2.307 1_655 S
Gd267 O306 2.353 1_655 S
Gd267 O307 2.468 . S
Gd267 O308 2.427 . S
Gd267 O310 2.388 . S
Gd267 C331 2.805 . S
N268 C258 1.359 . S
N268 Gd267 2.570 . S
N268 C270 1.343 . S
C269 C257 1.422 . S
C269 C271 1.321 . S
C269 H277 0.931 . S
C270 N268 1.343 . S
C270 C271 1.390 . S
C270 H272 0.931 . S
C271 C269 1.321 . S
C271 C270 1.390 . S
C271 H273 0.930 . S
H272 C270 0.931 . S
H273 C271 0.930 . S
H274 C297 0.931 . S
H275 C263 0.929 . S
H276 C298 0.930 . S
H277 C269 0.931 . S
H278 C259 0.930 . S
H279 C288 0.929 . S
H280 C264 0.931 . S
H281 C265 0.930 . S
H282 C320 0.930 . S
H283 C261 0.929 . S
H284 C289 0.931 . S
H285 C290 0.930 . S
N286 Gd266 2.622 . S
N286 C287 1.369 . S
N286 C288 1.338 . S
C287 N286 1.369 . S
C287 C291 1.415 . S
C287 C294 1.422 . S
C288 H279 0.929 . S
C288 N286 1.338 . S
C288 C290 1.378 . S
C289 H284 0.931 . S
C289 C290 1.348 . S
C289 C291 1.413 . S
C290 H285 0.930 . S
C290 C288 1.378 . S
C290 C289 1.348 . S
C291 C287 1.415 . S
C291 C289 1.413 . S
C291 C321 1.437 . S
H292 C321 0.929 . S
N293 Gd266 2.570 . S
N293 C294 1.359 . S
N293 C297 1.343 . S
C294 C287 1.422 . S
C294 N293 1.359 . S
C294 C296 1.421 . S
C295 C296 1.422 1_545 S
C295 C298 1.321 . S
C295 H322 0.931 . S
C296 C294 1.421 . S
C296 C295 1.422 1_565 S
C296 C320 1.417 . S
C297 H274 0.931 . S
C297 N293 1.343 . S
C297 C298 1.390 1_565 S
C298 H276 0.930 . S
C298 C295 1.321 . S
C298 C297 1.390 1_545 S
O299 Gd267 2.386 . S
O299 C311 1.265 . S
O300 Gd266 2.347 1_655 S
O300 C311 1.249 . S
O301 Gd266 2.468 . S
O301 C319 1.263 . S
O302 Gd266 2.427 . S
O302 C319 1.252 . S
O303 Gd267 2.307 1_455 S
O303 C312 1.261 . S
O304 Gd266 2.388 . S
O304 C312 1.252 . S
O305 Gd266 2.386 . S
O305 C323 1.265 . S
O306 Gd267 2.353 1_455 S
O306 C323 1.242 . S
O307 Gd267 2.468 . S
O307 C331 1.263 . S
O308 Gd267 2.427 . S
O308 C331 1.252 . S
O309 Gd266 2.305 . S
O309 C324 1.263 1_455 S
O310 Gd267 2.388 . S
O310 C324 1.252 . S
C311 O299 1.265 . S
C311 O300 1.249 . S
C312 O303 1.261 . S
C312 O304 1.252 . S
C313 C316 1.394 . S
C313 C318 1.370 . S
C313 C319 1.500 . S
C314 C317 1.383 . S
C314 C318 1.395 . S
C315 C316 1.396 . S
C315 C317 1.365 . S
C315 H332 0.929 . S
C316 C313 1.394 . S
C316 C315 1.396 . S
C316 H333 0.930 . S
C317 C314 1.383 . S
C317 C315 1.365 . S
C317 H334 0.931 . S
C318 C313 1.370 . S
C318 C314 1.395 . S
C318 H335 0.930 . S
C319 Gd266 2.805 . S
C319 O301 1.263 . S
C319 O302 1.252 . S
C319 C313 1.500 . S
C320 H282 0.930 . S
C320 C296 1.417 . S
C320 C321 1.329 . S
C321 C291 1.437 . S
C321 H292 0.929 . S
C321 C320 1.329 . S
H322 C295 0.931 . S
C323 O305 1.265 . S
C323 O306 1.242 . S
C324 O309 1.263 1_655 S
C324 O310 1.252 . S
C325 C328 1.394 . S
C325 C330 1.370 . S
C325 C331 1.500 . S
C326 C329 1.383 . S
C326 C330 1.395 . S
C327 C328 1.396 . S
C327 C329 1.365 . S
C327 H336 0.929 . S
C328 C325 1.394 . S
C328 C327 1.396 . S
C328 H337 0.930 . S
C329 C326 1.383 . S
C329 C327 1.365 . S
C329 H338 0.931 . S
C330 C325 1.370 . S
C330 C326 1.395 . S
C330 H339 0.930 . S
C331 Gd267 2.805 . S
C331 O307 1.263 . S
C331 O308 1.252 . S
C331 C325 1.500 . S
H332 C315 0.929 . S
H333 C316 0.930 . S
H334 C317 0.931 . S
H335 C318 0.930 . S
H336 C327 0.929 . S
H337 C328 0.930 . S
H338 C329 0.931 . S
H339 C330 0.930 . S
C340 C342 1.422 . S
C340 C344 1.415 . S
C340 N346 1.369 . S
C341 C342 1.421 . S
C341 C343 1.417 . S
C341 C353 1.422 . S
C342 C340 1.422 . S
C342 C341 1.421 . S
C342 N352 1.359 . S
C343 C341 1.417 . S
C343 C345 1.329 . S
C343 H362 0.930 . S
C344 C340 1.415 . S
C344 C345 1.437 . S
C344 C348 1.413 . S
C345 C343 1.329 . S
C345 C344 1.437 . S
C345 H367 0.929 . S
N346 C340 1.369 . S
N346 C347 1.338 . S
N346 Gd351 2.622 . S
C347 N346 1.338 . S
C347 C349 1.378 . S
C347 H359 0.929 . S
C348 C344 1.413 . S
C348 C349 1.348 . S
C348 H364 0.931 . S
C349 C347 1.378 . S
C349 C348 1.348 . S
C349 H365 0.930 . S
Gd350 N370 2.622 . S
Gd350 N377 2.570 . S
Gd350 O384 2.353 . S
Gd350 O385 2.468 . S
Gd350 O386 2.427 . S
Gd350 O388 2.388 . S
Gd350 O389 2.386 . S
Gd350 O393 2.307 . S
Gd350 C403 2.805 . S
Gd351 N346 2.622 . S
Gd351 N352 2.570 . S
Gd351 O383 2.386 . S
Gd351 O387 2.307 . S
Gd351 O390 2.353 . S
Gd351 O391 2.468 . S
Gd351 O392 2.427 . S
Gd351 O394 2.388 . S
Gd351 C415 2.805 . S
N352 C342 1.359 . S
N352 Gd351 2.570 . S
N352 C354 1.343 . S
C353 C341 1.422 . S
C353 C355 1.321 . S
C353 H361 0.931 . S
C354 N352 1.343 . S
C354 C355 1.390 . S
C354 H356 0.931 . S
C355 C353 1.321 . S
C355 C354 1.390 . S
C355 H357 0.930 . S
H356 C354 0.931 . S
H357 C355 0.930 . S
H358 C381 0.931 . S
H359 C347 0.929 . S
H360 C382 0.930 . S
H361 C353 0.931 . S
H362 C343 0.930 . S
H363 C372 0.929 . S
H364 C348 0.931 . S
H365 C349 0.930 . S
H366 C404 0.930 . S
H367 C345 0.929 . S
H368 C373 0.931 . S
H369 C374 0.930 . S
N370 Gd350 2.622 . S
N370 C371 1.369 . S
N370 C372 1.338 . S
C371 N370 1.369 . S
C371 C375 1.415 . S
C371 C378 1.422 . S
C372 H363 0.929 . S
C372 N370 1.338 . S
C372 C374 1.378 . S
C373 H368 0.931 . S
C373 C374 1.348 . S
C373 C375 1.413 . S
C374 H369 0.930 . S
C374 C372 1.378 . S
C374 C373 1.348 . S
C375 C371 1.415 . S
C375 C373 1.413 . S
C375 C405 1.437 . S
H376 C405 0.929 . S
N377 Gd350 2.570 . S
N377 C378 1.359 . S
N377 C381 1.343 . S
C378 C371 1.422 . S
C378 N377 1.359 . S
C378 C380 1.421 . S
C379 C380 1.422 . S
C379 C382 1.321 . S
C379 H406 0.931 . S
C380 C378 1.421 . S
C380 C379 1.422 . S
C380 C404 1.417 . S
C381 H358 0.931 . S
C381 N377 1.343 . S
C381 C382 1.390 . S
C382 H360 0.930 . S
C382 C379 1.321 . S
C382 C381 1.390 . S
O383 Gd351 2.386 . S
O383 C395 1.265 . S
O384 Gd350 2.353 . S
O384 C395 1.242 . S
O385 Gd350 2.468 . S
O385 C403 1.263 . S
O386 Gd350 2.427 . S
O386 C403 1.252 . S
O387 Gd351 2.307 . S
O387 C396 1.261 . S
O388 Gd350 2.388 . S
O388 C396 1.252 . S
O389 Gd350 2.386 . S
O389 C407 1.265 . S
O390 Gd351 2.353 . S
O390 C407 1.242 . S
O391 Gd351 2.468 . S
O391 C415 1.263 . S
O392 Gd351 2.427 . S
O392 C415 1.252 . S
O393 Gd350 2.307 . S
O393 C408 1.261 . S
O394 Gd351 2.388 . S
O394 C408 1.252 . S
C395 O383 1.265 . S
C395 O384 1.242 . S
C396 O387 1.261 . S
C396 O388 1.252 . S
C397 C400 1.394 . S
C397 C402 1.370 . S
C397 C403 1.500 . S
C398 C401 1.383 . S
C398 C402 1.395 . S
C399 C400 1.396 . S
C399 C401 1.365 . S
C399 H416 0.929 . S
C400 C397 1.394 . S
C400 C399 1.396 . S
C400 H417 0.930 . S
C401 C398 1.383 . S
C401 C399 1.365 . S
C401 H418 0.931 . S
C402 C397 1.370 . S
C402 C398 1.395 . S
C402 H419 0.930 . S
C403 Gd350 2.805 . S
C403 O385 1.263 . S
C403 O386 1.252 . S
C403 C397 1.500 . S
C404 H366 0.930 . S
C404 C380 1.417 . S
C404 C405 1.329 . S
C405 C375 1.437 . S
C405 H376 0.929 . S
C405 C404 1.329 . S
H406 C379 0.931 . S
C407 O389 1.265 . S
C407 O390 1.242 . S
C408 O393 1.261 . S
C408 O394 1.252 . S
C409 C412 1.394 . S
C409 C414 1.370 . S
C409 C415 1.500 . S
C410 C413 1.383 . S
C410 C414 1.395 . S
C411 C412 1.396 . S
C411 C413 1.365 . S
C411 H420 0.929 . S
C412 C409 1.394 . S
C412 C411 1.396 . S
C412 H421 0.930 . S
C413 C410 1.383 . S
C413 C411 1.365 . S
C413 H422 0.931 . S
C414 C409 1.370 . S
C414 C410 1.395 . S
C414 H423 0.930 . S
C415 Gd351 2.805 . S
C415 O391 1.263 . S
C415 O392 1.252 . S
C415 C409 1.500 . S
H416 C399 0.929 . S
H417 C400 0.930 . S
H418 C401 0.931 . S
H419 C402 0.930 . S
H420 C411 0.929 . S
H421 C412 0.930 . S
H422 C413 0.931 . S
H423 C414 0.930 . S
C424 C425 1.391 . S
C424 C426 1.394 . S
C424 H440 0.931 . S
C425 C424 1.391 . S
C425 C429 1.376 . S
C426 C424 1.394 . S
C426 C427 1.369 . S
C426 C430 1.531 . S
C427 C426 1.369 . S
C427 C428 1.410 . S
C427 C435 1.503 . S
C428 C427 1.410 . S
C428 C429 1.392 . S
C428 C431 1.511 . S
C429 C425 1.376 . S
C429 C428 1.392 . S
C429 H441 0.929 . S
C430 C426 1.531 . S
C430 H442 0.960 1_565 S
C430 H443 0.962 . S
C430 H444 0.960 1_565 S
C431 C428 1.511 . S
C431 H445 0.961 . S
C431 H446 0.961 . S
C431 H447 0.961 . S
C432 C433 1.370 . S
C432 C434 1.363 1_545 S
C432 H448 0.931 . S
C433 C432 1.370 . S
C433 C437 1.408 . S
C434 C432 1.363 1_565 S
C434 C435 1.370 . S
C434 C438 1.524 . S
C435 C427 1.503 . S
C435 C434 1.370 . S
C435 C436 1.403 1_565 S
C436 C435 1.403 1_545 S
C436 C437 1.404 . S
C436 C439 1.539 . S
C437 C433 1.408 . S
C437 C436 1.404 . S
C437 H449 0.930 . S
C438 C434 1.524 . S
C438 H450 0.956 . S
C438 H451 0.961 . S
C438 H452 0.961 . S
C439 C436 1.539 . S
C439 H453 0.958 . S
C439 H454 0.961 . S
C439 H455 0.960 . S
H440 C424 0.931 . S
H441 C429 0.929 . S
H442 C430 0.960 1_545 S
H443 C430 0.962 . S
H444 C430 0.960 1_545 S
H445 C431 0.961 . S
H446 C431 0.961 . S
H447 C431 0.961 . S
H448 C432 0.931 . S
H449 C437 0.930 . S
H450 C438 0.956 . S
H451 C438 0.961 . S
H452 C438 0.961 . S
H453 C439 0.958 . S
H454 C439 0.961 . S
H455 C439 0.960 . S
C456 C457 1.391 . S
C456 C458 1.394 . S
C456 H472 0.931 . S
C457 C456 1.391 . S
C457 C461 1.376 . S
C458 C456 1.394 . S
C458 C459 1.369 . S
C458 C462 1.531 . S
C459 C458 1.369 . S
C459 C460 1.410 . S
C459 C467 1.503 . S
C460 C459 1.410 . S
C460 C461 1.392 . S
C460 C463 1.511 . S
C461 C457 1.376 . S
C461 C460 1.392 . S
C461 H473 0.929 . S
C462 C458 1.531 . S
C462 H474 0.960 . S
C462 H475 0.962 . S
C462 H476 0.960 . S
C463 C460 1.511 . S
C463 H477 0.961 . S
C463 H478 0.961 . S
C463 H479 0.961 . S
C464 C465 1.370 . S
C464 C466 1.363 . S
C464 H480 0.931 . S
C465 C464 1.370 . S
C465 C469 1.408 . S
C466 C464 1.363 . S
C466 C467 1.370 . S
C466 C470 1.524 . S
C467 C459 1.503 . S
C467 C466 1.370 . S
C467 C468 1.403 . S
C468 C467 1.403 . S
C468 C469 1.404 . S
C468 C471 1.539 . S
C469 C465 1.408 . S
C469 C468 1.404 . S
C469 H481 0.930 . S
C470 C466 1.524 . S
C470 H482 0.956 . S
C470 H483 0.961 . S
C470 H484 0.961 . S
C471 C468 1.539 . S
C471 H485 0.958 . S
C471 H486 0.961 . S
C471 H487 0.960 . S
H472 C456 0.931 . S
H473 C461 0.929 . S
H474 C462 0.960 . S
H475 C462 0.962 . S
H476 C462 0.960 . S
H477 C463 0.961 . S
H478 C463 0.961 . S
H479 C463 0.961 . S
H480 C464 0.931 . S
H481 C469 0.930 . S
H482 C470 0.956 . S
H483 C470 0.961 . S
H484 C470 0.961 . S
H485 C471 0.958 . S
H486 C471 0.961 . S
H487 C471 0.960 . S
C488 C489 1.391 . S
C488 C490 1.394 . S
C488 H504 0.931 . S
C489 C488 1.391 . S
C489 C493 1.376 . S
C490 C488 1.394 . S
C490 C491 1.369 . S
C490 C494 1.531 . S
C491 C490 1.369 . S
C491 C492 1.410 . S
C491 C499 1.503 . S
C492 C491 1.410 . S
C492 C493 1.392 . S
C492 C495 1.511 . S
C493 C489 1.376 . S
C493 C492 1.392 . S
C493 H505 0.929 . S
C494 C490 1.531 . S
C494 H506 0.960 . S
C494 H507 0.962 . S
C494 H508 0.960 . S
C495 C492 1.511 . S
C495 H509 0.961 . S
C495 H510 0.961 . S
C495 H511 0.961 . S
C496 C497 1.370 . S
C496 C498 1.363 . S
C496 H512 0.931 . S
C497 C496 1.370 . S
C497 C501 1.408 . S
C498 C496 1.363 . S
C498 C499 1.370 . S
C498 C502 1.524 . S
C499 C491 1.503 . S
C499 C498 1.370 . S
C499 C500 1.403 . S
C500 C499 1.403 . S
C500 C501 1.404 . S
C500 C503 1.539 . S
C501 C497 1.408 . S
C501 C500 1.404 . S
C501 H513 0.930 . S
C502 C498 1.524 . S
C502 H514 0.956 . S
C502 H515 0.961 . S
C502 H516 0.961 . S
C503 C500 1.539 . S
C503 H517 0.958 . S
C503 H518 0.961 . S
C503 H519 0.960 . S
H504 C488 0.931 . S
H505 C493 0.929 . S
H506 C494 0.960 . S
H507 C494 0.962 . S
H508 C494 0.960 . S
H509 C495 0.961 . S
H510 C495 0.961 . S
H511 C495 0.961 . S
H512 C496 0.931 . S
H513 C501 0.930 . S
H514 C502 0.956 . S
H515 C502 0.961 . S
H516 C502 0.961 . S
H517 C503 0.958 . S
H518 C503 0.961 . S
H519 C503 0.960 . S
C520 C521 1.391 . S
C520 C522 1.394 . S
C520 H536 0.931 . S
C521 C520 1.391 . S
C521 C525 1.376 . S
C522 C520 1.394 . S
C522 C523 1.369 . S
C522 C526 1.531 . S
C523 C522 1.369 . S
C523 C524 1.410 . S
C523 C531 1.503 . S
C524 C523 1.410 . S
C524 C525 1.392 . S
C524 C527 1.511 . S
C525 C521 1.376 . S
C525 C524 1.392 . S
C525 H537 0.929 . S
C526 C522 1.531 . S
C526 H538 0.960 . S
C526 H539 0.962 . S
C526 H540 0.960 . S
C527 C524 1.511 . S
C527 H541 0.961 . S
C527 H542 0.961 . S
C527 H543 0.961 . S
C528 C529 1.370 . S
C528 C530 1.363 . S
C528 H544 0.931 . S
C529 C528 1.370 . S
C529 C533 1.408 . S
C530 C528 1.363 . S
C530 C531 1.370 1_545 S
C530 C534 1.524 . S
C531 C523 1.503 . S
C531 C530 1.370 1_565 S
C531 C532 1.403 . S
C532 C531 1.403 . S
C532 C533 1.404 1_565 S
C532 C535 1.539 . S
C533 C529 1.408 . S
C533 C532 1.404 1_545 S
C533 H545 0.930 1_545 S
C534 C530 1.524 . S
C534 H546 0.956 . S
C534 H547 0.961 . S
C534 H548 0.961 . S
C535 C532 1.539 . S
C535 H549 0.958 . S
C535 H550 0.961 . S
C535 H551 0.960 . S
H536 C520 0.931 . S
H537 C525 0.929 . S
H538 C526 0.960 . S
H539 C526 0.962 . S
H540 C526 0.960 . S
H541 C527 0.961 . S
H542 C527 0.961 . S
H543 C527 0.961 . S
H544 C528 0.931 . S
H545 C533 0.930 1_565 S
H546 C534 0.956 . S
H547 C534 0.961 . S
H548 C534 0.961 . S
H549 C535 0.958 . S
H550 C535 0.961 . S
H551 C535 0.960 . S
C552 C553 1.391 . S
C552 C554 1.394 . S
C552 H568 0.931 . S
C553 C552 1.391 . S
C553 C557 1.376 . S
C554 C552 1.394 . S
C554 C555 1.369 . S
C554 C558 1.531 1_545 S
C555 C554 1.369 . S
C555 C556 1.410 . S
C555 C563 1.503 . S
C556 C555 1.410 . S
C556 C557 1.392 . S
C556 C559 1.511 . S
C557 C553 1.376 . S
C557 C556 1.392 . S
C557 H569 0.929 . S
C558 C554 1.531 1_565 S
C558 H570 0.960 . S
C558 H571 0.962 . S
C558 H572 0.960 . S
C559 C556 1.511 . S
C559 H573 0.961 . S
C559 H574 0.961 . S
C559 H575 0.961 . S
C560 C561 1.370 . S
C560 C562 1.363 1_565 S
C560 H576 0.931 . S
C561 C560 1.370 . S
C561 C565 1.408 . S
C562 C560 1.363 1_545 S
C562 C563 1.370 . S
C562 C566 1.524 . S
C563 C555 1.503 . S
C563 C562 1.370 . S
C563 C564 1.403 1_545 S
C564 C563 1.403 1_565 S
C564 C565 1.404 . S
C564 C567 1.539 1_565 S
C565 C561 1.408 . S
C565 C564 1.404 . S
C565 H577 0.930 . S
C566 C562 1.524 . S
C566 H578 0.956 . S
C566 H579 0.961 . S
C566 H580 0.961 . S
C567 C564 1.539 1_545 S
C567 H581 0.958 1_545 S
C567 H582 0.961 1_545 S
C567 H583 0.960 . S
H568 C552 0.931 . S
H569 C557 0.929 . S
H570 C558 0.960 . S
H571 C558 0.962 . S
H572 C558 0.960 . S
H573 C559 0.961 . S
H574 C559 0.961 . S
H575 C559 0.961 . S
H576 C560 0.931 . S
H577 C565 0.930 . S
H578 C566 0.956 . S
H579 C566 0.961 . S
H580 C566 0.961 . S
H581 C567 0.958 1_565 S
H582 C567 0.961 1_565 S
H583 C567 0.960 . S
C584 C585 1.391 . S
C584 C586 1.394 . S
C584 H600 0.931 . S
C585 C584 1.391 . S
C585 C589 1.376 . S
C586 C584 1.394 . S
C586 C587 1.369 . S
C586 C590 1.531 . S
C587 C586 1.369 . S
C587 C588 1.410 . S
C587 C595 1.503 . S
C588 C587 1.410 . S
C588 C589 1.392 . S
C588 C591 1.511 . S
C589 C585 1.376 . S
C589 C588 1.392 . S
C589 H601 0.929 . S
C590 C586 1.531 . S
C590 H602 0.960 . S
C590 H603 0.962 . S
C590 H604 0.960 . S
C591 C588 1.511 . S
C591 H605 0.961 . S
C591 H606 0.961 . S
C591 H607 0.961 . S
C592 C593 1.370 . S
C592 C594 1.363 . S
C592 H608 0.931 . S
C593 C592 1.370 . S
C593 C597 1.408 . S
C594 C592 1.363 . S
C594 C595 1.370 . S
C594 C598 1.524 . S
C595 C587 1.503 . S
C595 C594 1.370 . S
C595 C596 1.403 . S
C596 C595 1.403 . S
C596 C597 1.404 . S
C596 C599 1.539 . S
C597 C593 1.408 . S
C597 C596 1.404 . S
C597 H609 0.930 . S
C598 C594 1.524 . S
C598 H610 0.956 . S
C598 H611 0.961 . S
C598 H612 0.961 . S
C599 C596 1.539 . S
C599 H613 0.958 . S
C599 H614 0.961 . S
C599 H615 0.960 . S
H600 C584 0.931 . S
H601 C589 0.929 . S
H602 C590 0.960 . S
H603 C590 0.962 . S
H604 C590 0.960 . S
H605 C591 0.961 . S
H606 C591 0.961 . S
H607 C591 0.961 . S
H608 C592 0.931 . S
H609 C597 0.930 . S
H610 C598 0.956 . S
H611 C598 0.961 . S
H612 C598 0.961 . S
H613 C599 0.958 . S
H614 C599 0.961 . S
H615 C599 0.960 . S
C616 C617 1.391 . S
C616 C618 1.394 . S
C616 H632 0.931 . S
C617 C616 1.391 . S
C617 C621 1.376 . S
C618 C616 1.394 . S
C618 C619 1.369 . S
C618 C622 1.531 . S
C619 C618 1.369 . S
C619 C620 1.410 . S
C619 C627 1.503 . S
C620 C619 1.410 . S
C620 C621 1.392 . S
C620 C623 1.511 . S
C621 C617 1.376 . S
C621 C620 1.392 . S
C621 H633 0.929 . S
C622 C618 1.531 . S
C622 H634 0.960 . S
C622 H635 0.962 . S
C622 H636 0.960 . S
C623 C620 1.511 . S
C623 H637 0.961 . S
C623 H638 0.961 . S
C623 H639 0.961 . S
C624 C625 1.370 . S
C624 C626 1.363 . S
C624 H640 0.931 . S
C625 C624 1.370 . S
C625 C629 1.408 . S
C626 C624 1.363 . S
C626 C627 1.370 . S
C626 C630 1.524 . S
C627 C619 1.503 . S
C627 C626 1.370 . S
C627 C628 1.403 . S
C628 C627 1.403 . S
C628 C629 1.404 . S
C628 C631 1.539 . S
C629 C625 1.408 . S
C629 C628 1.404 . S
C629 H641 0.930 . S
C630 C626 1.524 . S
C630 H642 0.956 . S
C630 H643 0.961 . S
C630 H644 0.961 . S
C631 C628 1.539 . S
C631 H645 0.958 . S
C631 H646 0.961 . S
C631 H647 0.960 . S
H632 C616 0.931 . S
H633 C621 0.929 . S
H634 C622 0.960 . S
H635 C622 0.962 . S
H636 C622 0.960 . S
H637 C623 0.961 . S
H638 C623 0.961 . S
H639 C623 0.961 . S
H640 C624 0.931 . S
H641 C629 0.930 . S
H642 C630 0.956 . S
H643 C630 0.961 . S
H644 C630 0.961 . S
H645 C631 0.958 . S
H646 C631 0.961 . S
H647 C631 0.960 . S
C648 C649 1.391 . S
C648 C650 1.394 . S
C648 H664 0.931 . S
C649 C648 1.391 . S
C649 C653 1.376 . S
C650 C648 1.394 . S
C650 C651 1.369 . S
C650 C654 1.531 1_545 S
C651 C650 1.369 . S
C651 C652 1.410 . S
C651 C659 1.503 . S
C652 C651 1.410 . S
C652 C653 1.392 . S
C652 C655 1.511 . S
C653 C649 1.376 . S
C653 C652 1.392 . S
C653 H665 0.929 . S
C654 C650 1.531 1_565 S
C654 H666 0.960 . S
C654 H667 0.962 . S
C654 H668 0.960 . S
C655 C652 1.511 . S
C655 H669 0.961 . S
C655 H670 0.961 . S
C655 H671 0.961 . S
C656 C657 1.370 . S
C656 C658 1.363 1_565 S
C656 H672 0.931 . S
C657 C656 1.370 . S
C657 C661 1.408 . S
C658 C656 1.363 1_545 S
C658 C659 1.370 . S
C658 C662 1.524 . S
C659 C651 1.503 . S
C659 C658 1.370 . S
C659 C660 1.403 1_545 S
C660 C659 1.403 1_565 S
C660 C661 1.404 . S
C660 C663 1.539 . S
C661 C657 1.408 . S
C661 C660 1.404 . S
C661 H673 0.930 . S
C662 C658 1.524 . S
C662 H674 0.956 . S
C662 H675 0.961 . S
C662 H676 0.961 . S
C663 C660 1.539 . S
C663 H677 0.958 . S
C663 H678 0.961 . S
C663 H679 0.960 1_565 S
H664 C648 0.931 . S
H665 C653 0.929 . S
H666 C654 0.960 . S
H667 C654 0.962 . S
H668 C654 0.960 . S
H669 C655 0.961 . S
H670 C655 0.961 . S
H671 C655 0.961 . S
H672 C656 0.931 . S
H673 C661 0.930 . S
H674 C662 0.956 . S
H675 C662 0.961 . S
H676 C662 0.961 . S
H677 C663 0.958 . S
H678 C663 0.961 . S
H679 C663 0.960 1_545 S
C680 C681 1.391 . S
C680 C682 1.394 . S
C680 H696 0.931 . S
C681 C680 1.391 . S
C681 C685 1.376 . S
C682 C680 1.394 . S
C682 C683 1.369 1_556 S
C682 C686 1.531 1_556 S
C683 C682 1.369 1_554 S
C683 C684 1.410 . S
C683 C691 1.503 . S
C684 C683 1.410 . S
C684 C685 1.392 1_554 S
C684 C687 1.511 . S
C685 C681 1.376 . S
C685 C684 1.392 1_556 S
C685 H697 0.929 . S
C686 C682 1.531 1_554 S
C686 H698 0.960 . S
C686 H699 0.962 . S
C686 H700 0.960 . S
C687 C684 1.511 . S
C687 H701 0.961 . S
C687 H702 0.961 . S
C687 H703 0.961 . S
C688 C689 1.370 . S
C688 C690 1.363 . S
C688 H704 0.931 . S
C689 C688 1.370 . S
C689 C693 1.408 . S
C690 C688 1.363 . S
C690 C691 1.370 . S
C690 C694 1.524 . S
C691 C683 1.503 . S
C691 C690 1.370 . S
C691 C692 1.403 . S
C692 C691 1.403 . S
C692 C693 1.404 . S
C692 C695 1.539 . S
C693 C689 1.408 . S
C693 C692 1.404 . S
C693 H705 0.930 . S
C694 C690 1.524 . S
C694 H706 0.956 . S
C694 H707 0.961 . S
C694 H708 0.961 . S
C695 C692 1.539 . S
C695 H709 0.958 . S
C695 H710 0.961 . S
C695 H711 0.960 . S
H696 C680 0.931 . S
H697 C685 0.929 . S
H698 C686 0.960 . S
H699 C686 0.962 . S
H700 C686 0.960 . S
H701 C687 0.961 . S
H702 C687 0.961 . S
H703 C687 0.961 . S
H704 C688 0.931 . S
H705 C693 0.930 . S
H706 C694 0.956 . S
H707 C694 0.961 . S
H708 C694 0.961 . S
H709 C695 0.958 . S
H710 C695 0.961 . S
H711 C695 0.960 . S
C712 C713 1.391 . S
C712 C714 1.394 . S
C712 H728 0.931 . S
C713 C712 1.391 . S
C713 C717 1.376 . S
C714 C712 1.394 . S
C714 C715 1.369 . S
C714 C718 1.531 . S
C715 C714 1.369 . S
C715 C716 1.410 . S
C715 C723 1.503 . S
C716 C715 1.410 . S
C716 C717 1.392 . S
C716 C719 1.511 . S
C717 C713 1.376 . S
C717 C716 1.392 . S
C717 H729 0.929 . S
C718 C714 1.531 . S
C718 H730 0.960 . S
C718 H731 0.962 . S
C718 H732 0.960 . S
C719 C716 1.511 . S
C719 H733 0.961 . S
C719 H734 0.961 . S
C719 H735 0.961 . S
C720 C721 1.370 . S
C720 C722 1.363 . S
C720 H736 0.931 . S
C721 C720 1.370 . S
C721 C725 1.408 . S
C722 C720 1.363 . S
C722 C723 1.370 . S
C722 C726 1.524 . S
C723 C715 1.503 . S
C723 C722 1.370 . S
C723 C724 1.403 . S
C724 C723 1.403 . S
C724 C725 1.404 . S
C724 C727 1.539 . S
C725 C721 1.408 . S
C725 C724 1.404 . S
C725 H737 0.930 . S
C726 C722 1.524 . S
C726 H738 0.956 . S
C726 H739 0.961 . S
C726 H740 0.961 . S
C727 C724 1.539 . S
C727 H741 0.958 . S
C727 H742 0.961 . S
C727 H743 0.960 . S
H728 C712 0.931 . S
H729 C717 0.929 . S
H730 C718 0.960 . S
H731 C718 0.962 . S
H732 C718 0.960 . S
H733 C719 0.961 . S
H734 C719 0.961 . S
H735 C719 0.961 . S
H736 C720 0.931 . S
H737 C725 0.930 . S
H738 C726 0.956 . S
H739 C726 0.961 . S
H740 C726 0.961 . S
H741 C727 0.958 . S
H742 C727 0.961 . S
H743 C727 0.960 . S
C744 C745 1.391 . S
C744 C746 1.394 . S
C744 H760 0.931 . S
C745 C744 1.391 . S
C745 C749 1.376 . S
C746 C744 1.394 . S
C746 C747 1.369 1_554 S
C746 C750 1.531 . S
C747 C746 1.369 1_556 S
C747 C748 1.410 . S
C747 C755 1.503 . S
C748 C747 1.410 . S
C748 C749 1.392 1_556 S
C748 C751 1.511 . S
C749 C745 1.376 . S
C749 C748 1.392 1_554 S
C749 H761 0.929 . S
C750 C746 1.531 . S
C750 H762 0.960 1_554 S
C750 H763 0.962 . S
C750 H764 0.960 . S
C751 C748 1.511 . S
C751 H765 0.961 . S
C751 H766 0.961 . S
C751 H767 0.961 . S
C752 C753 1.370 . S
C752 C754 1.363 . S
C752 H768 0.931 . S
C753 C752 1.370 . S
C753 C757 1.408 . S
C754 C752 1.363 . S
C754 C755 1.370 . S
C754 C758 1.524 . S
C755 C747 1.503 . S
C755 C754 1.370 . S
C755 C756 1.403 . S
C756 C755 1.403 . S
C756 C757 1.404 . S
C756 C759 1.539 . S
C757 C753 1.408 . S
C757 C756 1.404 . S
C757 H769 0.930 . S
C758 C754 1.524 . S
C758 H770 0.956 . S
C758 H771 0.961 . S
C758 H772 0.961 . S
C759 C756 1.539 . S
C759 H773 0.958 . S
C759 H774 0.961 . S
C759 H775 0.960 . S
H760 C744 0.931 . S
H761 C749 0.929 . S
H762 C750 0.960 1_556 S
H763 C750 0.962 . S
H764 C750 0.960 . S
H765 C751 0.961 . S
H766 C751 0.961 . S
H767 C751 0.961 . S
H768 C752 0.931 . S
H769 C757 0.930 . S
H770 C758 0.956 . S
H771 C758 0.961 . S
H772 C758 0.961 . S
H773 C759 0.958 . S
H774 C759 0.961 . S
H775 C759 0.960 . S
C776 C777 1.391 . S
C776 C778 1.394 . S
C776 H792 0.931 . S
C777 C776 1.391 . S
C777 C781 1.376 . S
C778 C776 1.394 . S
C778 C779 1.369 . S
C778 C782 1.531 . S
C779 C778 1.369 . S
C779 C780 1.410 . S
C779 C787 1.503 . S
C780 C779 1.410 . S
C780 C781 1.392 . S
C780 C783 1.511 . S
C781 C777 1.376 . S
C781 C780 1.392 . S
C781 H793 0.929 . S
C782 C778 1.531 . S
C782 H794 0.960 . S
C782 H795 0.962 . S
C782 H796 0.960 . S
C783 C780 1.511 . S
C783 H797 0.961 . S
C783 H798 0.961 . S
C783 H799 0.961 . S
C784 C785 1.370 . S
C784 C786 1.363 . S
C784 H800 0.931 . S
C785 C784 1.370 . S
C785 C789 1.408 . S
C786 C784 1.363 . S
C786 C787 1.370 . S
C786 C790 1.524 . S
C787 C779 1.503 . S
C787 C786 1.370 . S
C787 C788 1.403 . S
C788 C787 1.403 . S
C788 C789 1.404 . S
C788 C791 1.539 . S
C789 C785 1.408 . S
C789 C788 1.404 . S
C789 H801 0.930 . S
C790 C786 1.524 . S
C790 H802 0.956 . S
C790 H803 0.961 . S
C790 H804 0.961 . S
C791 C788 1.539 . S
C791 H805 0.958 . S
C791 H806 0.961 . S
C791 H807 0.960 . S
H792 C776 0.931 . S
H793 C781 0.929 . S
H794 C782 0.960 . S
H795 C782 0.962 . S
H796 C782 0.960 . S
H797 C783 0.961 . S
H798 C783 0.961 . S
H799 C783 0.961 . S
H800 C784 0.931 . S
H801 C789 0.930 . S
H802 C790 0.956 . S
H803 C790 0.961 . S
H804 C790 0.961 . S
H805 C791 0.958 . S
H806 C791 0.961 . S
H807 C791 0.960 . S
C808 C809 1.391 . S
C808 C810 1.394 . S
C808 H824 0.931 . S
C809 C808 1.391 . S
C809 C813 1.376 . S
C810 C808 1.394 . S
C810 C811 1.369 1_554 S
C810 C814 1.531 1_554 S
C811 C810 1.369 1_556 S
C811 C812 1.410 1_556 S
C811 C819 1.503 . S
C812 C811 1.410 1_554 S
C812 C813 1.392 . S
C812 C815 1.512 . S
C813 C809 1.376 . S
C813 C812 1.392 . S
C813 H825 0.929 . S
C814 C810 1.531 1_556 S
C814 H826 0.960 . S
C814 H827 0.962 . S
C814 H828 0.960 1_556 S
C815 C812 1.512 . S
C815 H829 0.961 . S
C815 H830 0.960 1_554 S
C815 H831 0.961 . S
C816 C817 1.370 . S
C816 C818 1.363 . S
C816 H832 0.931 . S
C817 C816 1.370 . S
C817 C821 1.408 . S
C818 C816 1.363 . S
C818 C819 1.370 . S
C818 C822 1.524 . S
C819 C811 1.503 . S
C819 C818 1.370 . S
C819 C820 1.403 . S
C820 C819 1.403 . S
C820 C821 1.404 . S
C820 C823 1.539 . S
C821 C817 1.408 . S
C821 C820 1.404 . S
C821 H833 0.930 . S
C822 C818 1.524 . S
C822 H834 0.956 . S
C822 H835 0.961 . S
C822 H836 0.961 . S
C823 C820 1.539 . S
C823 H837 0.958 . S
C823 H838 0.961 . S
C823 H839 0.960 1_556 S
H824 C808 0.931 . S
H825 C813 0.929 . S
H826 C814 0.960 . S
H827 C814 0.962 . S
H828 C814 0.960 1_554 S
H829 C815 0.961 . S
H830 C815 0.960 1_556 S
H831 C815 0.961 . S
H832 C816 0.931 . S
H833 C821 0.930 . S
H834 C822 0.956 . S
H835 C822 0.961 . S
H836 C822 0.961 . S
H837 C823 0.958 . S
H838 C823 0.961 . S
H839 C823 0.960 1_554 S
C840 C841 1.391 . S
C840 C842 1.394 . S
C840 H856 0.931 . S
C841 C840 1.391 . S
C841 C845 1.376 . S
C842 C840 1.394 . S
C842 C843 1.369 . S
C842 C846 1.531 . S
C843 C842 1.369 . S
C843 C844 1.410 . S
C843 C851 1.503 . S
C844 C843 1.410 . S
C844 C845 1.392 . S
C844 C847 1.511 . S
C845 C841 1.376 . S
C845 C844 1.392 . S
C845 H857 0.929 . S
C846 C842 1.531 . S
C846 H858 0.960 . S
C846 H859 0.962 . S
C846 H860 0.960 . S
C847 C844 1.511 . S
C847 H861 0.961 . S
C847 H862 0.961 . S
C847 H863 0.961 . S
C848 C849 1.370 . S
C848 C850 1.363 . S
C848 H864 0.931 . S
C849 C848 1.370 . S
C849 C853 1.408 . S
C850 C848 1.363 . S
C850 C851 1.370 . S
C850 C854 1.524 . S
C851 C843 1.503 . S
C851 C850 1.370 . S
C851 C852 1.403 . S
C852 C851 1.403 . S
C852 C853 1.404 . S
C852 C855 1.539 . S
C853 C849 1.408 . S
C853 C852 1.404 . S
C853 H865 0.930 . S
C854 C850 1.524 . S
C854 H866 0.956 . S
C854 H867 0.961 . S
C854 H868 0.961 . S
C855 C852 1.539 . S
C855 H869 0.958 . S
C855 H870 0.961 . S
C855 H871 0.960 . S
H856 C840 0.931 . S
H857 C845 0.929 . S
H858 C846 0.960 . S
H859 C846 0.962 . S
H860 C846 0.960 . S
H861 C847 0.961 . S
H862 C847 0.961 . S
H863 C847 0.961 . S
H864 C848 0.931 . S
H865 C853 0.930 . S
H866 C854 0.956 . S
H867 C854 0.961 . S
H868 C854 0.961 . S
H869 C855 0.958 . S
H870 C855 0.961 . S
H871 C855 0.960 . S
C872 C873 1.391 . S
C872 C874 1.394 . S
C872 H888 0.931 . S
C873 C872 1.391 . S
C873 C877 1.376 . S
C874 C872 1.394 . S
C874 C875 1.369 1_556 S
C874 C878 1.531 1_556 S
C875 C874 1.369 1_554 S
C875 C876 1.410 1_554 S
C875 C883 1.503 . S
C876 C875 1.410 1_556 S
C876 C877 1.392 . S
C876 C879 1.511 . S
C877 C873 1.376 . S
C877 C876 1.392 . S
C877 H889 0.929 . S
C878 C874 1.531 1_554 S
C878 H890 0.960 . S
C878 H891 0.962 . S
C878 H892 0.960 . S
C879 C876 1.511 . S
C879 H893 0.961 . S
C879 H894 0.961 1_556 S
C879 H895 0.961 . S
C880 C881 1.370 . S
C880 C882 1.363 . S
C880 H896 0.931 . S
C881 C880 1.370 . S
C881 C885 1.408 . S
C882 C880 1.363 . S
C882 C883 1.370 . S
C882 C886 1.524 . S
C883 C875 1.503 . S
C883 C882 1.370 . S
C883 C884 1.403 . S
C884 C883 1.403 . S
C884 C885 1.404 . S
C884 C887 1.539 . S
C885 C881 1.408 . S
C885 C884 1.404 . S
C885 H897 0.930 . S
C886 C882 1.524 . S
C886 H898 0.956 . S
C886 H899 0.961 . S
C886 H900 0.961 . S
C887 C884 1.539 . S
C887 H901 0.958 . S
C887 H902 0.961 . S
C887 H903 0.960 1_554 S
H888 C872 0.931 . S
H889 C877 0.929 . S
H890 C878 0.960 . S
H891 C878 0.962 . S
H892 C878 0.960 . S
H893 C879 0.961 . S
H894 C879 0.961 1_554 S
H895 C879 0.961 . S
H896 C880 0.931 . S
H897 C885 0.930 . S
H898 C886 0.956 . S
H899 C886 0.961 . S
H900 C886 0.961 . S
H901 C887 0.958 . S
H902 C887 0.961 . S
H903 C887 0.960 1_556 S
C904 C905 1.391 . S
C904 C906 1.394 . S
C904 H920 0.931 . S
C905 C904 1.391 . S
C905 C909 1.376 . S
C906 C904 1.394 . S
C906 C907 1.369 . S
C906 C910 1.531 . S
C907 C906 1.369 . S
C907 C908 1.410 . S
C907 C915 1.503 . S
C908 C907 1.410 . S
C908 C909 1.392 . S
C908 C911 1.511 . S
C909 C905 1.376 . S
C909 C908 1.392 . S
C909 H921 0.929 . S
C910 C906 1.531 . S
C910 H922 0.960 . S
C910 H923 0.962 . S
C910 H924 0.960 . S
C911 C908 1.511 . S
C911 H925 0.961 . S
C911 H926 0.961 . S
C911 H927 0.961 . S
C912 C913 1.370 . S
C912 C914 1.363 . S
C912 H928 0.931 . S
C913 C912 1.370 . S
C913 C917 1.408 . S
C914 C912 1.363 . S
C914 C915 1.370 . S
C914 C918 1.524 . S
C915 C907 1.503 . S
C915 C914 1.370 . S
C915 C916 1.403 . S
C916 C915 1.403 . S
C916 C917 1.404 . S
C916 C919 1.539 . S
C917 C913 1.408 . S
C917 C916 1.404 . S
C917 H929 0.930 . S
C918 C914 1.524 . S
C918 H930 0.956 . S
C918 H931 0.961 . S
C918 H932 0.961 . S
C919 C916 1.539 . S
C919 H933 0.958 . S
C919 H934 0.961 . S
C919 H935 0.960 . S
H920 C904 0.931 . S
H921 C909 0.929 . S
H922 C910 0.960 . S
H923 C910 0.962 . S
H924 C910 0.960 . S
H925 C911 0.961 . S
H926 C911 0.961 . S
H927 C911 0.961 . S
H928 C912 0.931 . S
H929 C917 0.930 . S
H930 C918 0.956 . S
H931 C918 0.961 . S
H932 C918 0.961 . S
H933 C919 0.958 . S
H934 C919 0.961 . S
H935 C919 0.960 . S
C936 C937 1.391 . S
C936 C938 1.394 . S
C936 H952 0.931 . S
C937 C936 1.391 . S
C937 C941 1.376 . S
C938 C936 1.394 . S
C938 C939 1.369 . S
C938 C942 1.531 . S
C939 C938 1.369 . S
C939 C940 1.410 . S
C939 C947 1.503 . S
C940 C939 1.410 . S
C940 C941 1.392 . S
C940 C943 1.511 . S
C941 C937 1.376 . S
C941 C940 1.392 . S
C941 H953 0.929 . S
C942 C938 1.531 . S
C942 H954 0.960 . S
C942 H955 0.962 . S
C942 H956 0.960 . S
C943 C940 1.511 . S
C943 H957 0.961 . S
C943 H958 0.961 . S
C943 H959 0.961 . S
C944 C945 1.370 . S
C944 C946 1.363 . S
C944 H960 0.931 . S
C945 C944 1.370 . S
C945 C949 1.408 . S
C946 C944 1.363 . S
C946 C947 1.370 . S
C946 C950 1.524 . S
C947 C939 1.503 . S
C947 C946 1.370 . S
C947 C948 1.403 . S
C948 C947 1.403 . S
C948 C949 1.404 . S
C948 C951 1.539 . S
C949 C945 1.408 . S
C949 C948 1.404 . S
C949 H961 0.930 . S
C950 C946 1.524 . S
C950 H962 0.956 . S
C950 H963 0.961 . S
C950 H964 0.961 . S
C951 C948 1.539 . S
C951 H965 0.958 . S
C951 H966 0.961 . S
C951 H967 0.960 . S
H952 C936 0.931 . S
H953 C941 0.929 . S
H954 C942 0.960 . S
H955 C942 0.962 . S
H956 C942 0.960 . S
H957 C943 0.961 . S
H958 C943 0.961 . S
H959 C943 0.961 . S
H960 C944 0.931 . S
H961 C949 0.930 . S
H962 C950 0.956 . S
H963 C950 0.961 . S
H964 C950 0.961 . S
H965 C951 0.958 . S
H966 C951 0.961 . S
H967 C951 0.960 . S
C968 C969 1.391 . S
C968 C970 1.394 . S
C968 H984 0.931 . S
C969 C968 1.391 . S
C969 C973 1.376 . S
C970 C968 1.394 . S
C970 C971 1.369 . S
C970 C974 1.531 . S
C971 C970 1.369 . S
C971 C972 1.410 . S
C971 C979 1.503 . S
C972 C971 1.410 . S
C972 C973 1.392 . S
C972 C975 1.511 . S
C973 C969 1.376 . S
C973 C972 1.392 . S
C973 H985 0.929 . S
C974 C970 1.531 . S
C974 H986 0.960 . S
C974 H987 0.962 . S
C974 H988 0.960 . S
C975 C972 1.511 . S
C975 H989 0.961 . S
C975 H990 0.961 . S
C975 H991 0.961 . S
C976 C977 1.370 . S
C976 C978 1.363 . S
C976 H992 0.931 . S
C977 C976 1.370 . S
C977 C981 1.408 . S
C978 C976 1.363 . S
C978 C979 1.370 . S
C978 C982 1.524 . S
C979 C971 1.503 . S
C979 C978 1.370 . S
C979 C980 1.403 . S
C980 C979 1.403 . S
C980 C981 1.404 . S
C980 C983 1.539 . S
C981 C977 1.408 . S
C981 C980 1.404 . S
C981 H993 0.930 . S
C982 C978 1.524 . S
C982 H994 0.956 . S
C982 H995 0.961 . S
C982 H996 0.961 . S
C983 C980 1.539 . S
C983 H997 0.958 . S
C983 H998 0.961 . S
C983 H999 0.960 . S
H984 C968 0.931 . S
H985 C973 0.929 . S
H986 C974 0.960 . S
H987 C974 0.962 . S
H988 C974 0.960 . S
H989 C975 0.961 . S
H990 C975 0.961 . S
H991 C975 0.961 . S
H992 C976 0.931 . S
H993 C981 0.930 . S
H994 C982 0.956 . S
H995 C982 0.961 . S
H996 C982 0.961 . S
H997 C983 0.958 . S
H998 C983 0.961 . S
H999 C983 0.960 . S
C1000 C1001 1.391 . S
C1000 C1002 1.394 . S
C1000 H1016 0.931 . S
C1001 C1000 1.391 . S
C1001 C1005 1.376 . S
C1002 C1000 1.394 . S
C1002 C1003 1.369 . S
C1002 C1006 1.531 . S
C1003 C1002 1.369 . S
C1003 C1004 1.410 . S
C1003 C1011 1.503 . S
C1004 C1003 1.410 . S
C1004 C1005 1.392 . S
C1004 C1007 1.511 . S
C1005 C1001 1.376 . S
C1005 C1004 1.392 . S
C1005 H1017 0.929 . S
C1006 C1002 1.531 . S
C1006 H1018 0.960 . S
C1006 H1019 0.962 . S
C1006 H1020 0.960 . S
C1007 C1004 1.511 . S
C1007 H1021 0.961 . S
C1007 H1022 0.961 . S
C1007 H1023 0.961 . S
C1008 C1009 1.370 . S
C1008 C1010 1.363 . S
C1008 H1024 0.931 . S
C1009 C1008 1.370 . S
C1009 C1013 1.408 . S
C1010 C1008 1.363 . S
C1010 C1011 1.370 . S
C1010 C1014 1.524 . S
C1011 C1003 1.503 . S
C1011 C1010 1.370 . S
C1011 C1012 1.403 . S
C1012 C1011 1.403 . S
C1012 C1013 1.404 . S
C1012 C1015 1.539 . S
C1013 C1009 1.408 . S
C1013 C1012 1.404 . S
C1013 H1025 0.930 . S
C1014 C1010 1.524 . S
C1014 H1026 0.956 . S
C1014 H1027 0.961 . S
C1014 H1028 0.961 . S
C1015 C1012 1.539 . S
C1015 H1029 0.958 . S
C1015 H1030 0.961 . S
C1015 H1031 0.960 . S
H1016 C1000 0.931 . S
H1017 C1005 0.929 . S
H1018 C1006 0.960 . S
H1019 C1006 0.962 . S
H1020 C1006 0.960 . S
H1021 C1007 0.961 . S
H1022 C1007 0.961 . S
H1023 C1007 0.961 . S
H1024 C1008 0.931 . S
H1025 C1013 0.930 . S
H1026 C1014 0.956 . S
H1027 C1014 0.961 . S
H1028 C1014 0.961 . S
H1029 C1015 0.958 . S
H1030 C1015 0.961 . S
H1031 C1015 0.960 . S
C1032 C1033 1.391 . S
C1032 C1034 1.394 . S
C1032 H1048 0.931 . S
C1033 C1032 1.391 . S
C1033 C1037 1.376 . S
C1034 C1032 1.394 . S
C1034 C1035 1.369 . S
C1034 C1038 1.531 . S
C1035 C1034 1.369 . S
C1035 C1036 1.410 . S
C1035 C1043 1.503 . S
C1036 C1035 1.410 . S
C1036 C1037 1.392 . S
C1036 C1039 1.511 . S
C1037 C1033 1.376 . S
C1037 C1036 1.392 . S
C1037 H1049 0.929 . S
C1038 C1034 1.531 . S
C1038 H1050 0.960 . S
C1038 H1051 0.962 . S
C1038 H1052 0.960 . S
C1039 C1036 1.511 . S
C1039 H1053 0.961 . S
C1039 H1054 0.961 . S
C1039 H1055 0.961 . S
C1040 C1041 1.370 . S
C1040 C1042 1.363 . S
C1040 H1056 0.931 . S
C1041 C1040 1.370 . S
C1041 C1045 1.408 . S
C1042 C1040 1.363 . S
C1042 C1043 1.370 . S
C1042 C1046 1.524 . S
C1043 C1035 1.503 . S
C1043 C1042 1.370 . S
C1043 C1044 1.403 . S
C1044 C1043 1.403 . S
C1044 C1045 1.404 . S
C1044 C1047 1.539 . S
C1045 C1041 1.408 . S
C1045 C1044 1.404 . S
C1045 H1057 0.930 1_655 S
C1046 C1042 1.524 . S
C1046 H1058 0.956 . S
C1046 H1059 0.961 . S
C1046 H1060 0.961 . S
C1047 C1044 1.539 . S
C1047 H1061 0.946 1_655 S
C1047 H1062 0.961 . S
C1047 H1063 0.960 . S
H1048 C1032 0.931 . S
H1049 C1037 0.929 . S
H1050 C1038 0.960 . S
H1051 C1038 0.962 . S
H1052 C1038 0.960 . S
H1053 C1039 0.961 . S
H1054 C1039 0.961 . S
H1055 C1039 0.961 . S
H1056 C1040 0.931 . S
H1057 C1045 0.930 1_455 S
H1058 C1046 0.956 . S
H1059 C1046 0.961 . S
H1060 C1046 0.961 . S
H1061 C1047 0.946 1_455 S
H1062 C1047 0.961 . S
H1063 C1047 0.960 . S
C1064 C1065 1.391 . S
C1064 C1066 1.394 . S
C1064 H1080 0.931 . S
C1065 C1064 1.391 . S
C1065 C1069 1.376 . S
C1066 C1064 1.394 . S
C1066 C1067 1.369 . S
C1066 C1070 1.531 . S
C1067 C1066 1.369 . S
C1067 C1068 1.410 . S
C1067 C1075 1.503 . S
C1068 C1067 1.410 . S
C1068 C1069 1.392 . S
C1068 C1071 1.511 . S
C1069 C1065 1.376 . S
C1069 C1068 1.392 . S
C1069 H1081 0.929 . S
C1070 C1066 1.531 . S
C1070 H1082 0.960 . S
C1070 H1083 0.962 . S
C1070 H1084 0.960 . S
C1071 C1068 1.511 . S
C1071 H1085 0.961 . S
C1071 H1086 0.961 . S
C1071 H1087 0.961 . S
C1072 C1073 1.370 . S
C1072 C1074 1.363 . S
C1072 H1088 0.931 . S
C1073 C1072 1.370 . S
C1073 C1077 1.408 . S
C1074 C1072 1.363 . S
C1074 C1075 1.370 . S
C1074 C1078 1.524 . S
C1075 C1067 1.503 . S
C1075 C1074 1.370 . S
C1075 C1076 1.403 . S
C1076 C1075 1.403 . S
C1076 C1077 1.404 . S
C1076 C1079 1.539 . S
C1077 C1073 1.408 . S
C1077 C1076 1.404 . S
C1077 H1089 0.930 . S
C1078 C1074 1.524 . S
C1078 H1090 0.956 . S
C1078 H1091 0.961 . S
C1078 H1092 0.961 . S
C1079 C1076 1.539 . S
C1079 H1093 0.958 . S
C1079 H1094 0.961 . S
C1079 H1095 0.960 . S
H1080 C1064 0.931 . S
H1081 C1069 0.929 . S
H1082 C1070 0.960 . S
H1083 C1070 0.962 . S
H1084 C1070 0.960 . S
H1085 C1071 0.961 . S
H1086 C1071 0.961 . S
H1087 C1071 0.961 . S
H1088 C1072 0.931 . S
H1089 C1077 0.930 . S
H1090 C1078 0.956 . S
H1091 C1078 0.961 . S
H1092 C1078 0.961 . S
H1093 C1079 0.958 . S
H1094 C1079 0.961 . S
H1095 C1079 0.960 . S
C1096 C1097 1.391 . S
C1096 C1098 1.394 . S
C1096 H1112 0.931 . S
C1097 C1096 1.391 . S
C1097 C1101 1.376 . S
C1098 C1096 1.394 . S
C1098 C1099 1.369 . S
C1098 C1102 1.531 . S
C1099 C1098 1.369 . S
C1099 C1100 1.410 . S
C1099 C1107 1.503 . S
C1100 C1099 1.410 . S
C1100 C1101 1.392 . S
C1100 C1103 1.511 . S
C1101 C1097 1.376 . S
C1101 C1100 1.392 . S
C1101 H1113 0.929 . S
C1102 C1098 1.531 . S
C1102 H1114 0.960 . S
C1102 H1115 0.962 . S
C1102 H1116 0.960 . S
C1103 C1100 1.511 . S
C1103 H1117 0.961 . S
C1103 H1118 0.961 . S
C1103 H1119 0.961 . S
C1104 C1105 1.370 . S
C1104 C1106 1.363 . S
C1104 H1120 0.931 . S
C1105 C1104 1.370 . S
C1105 C1109 1.408 . S
C1106 C1104 1.363 . S
C1106 C1107 1.370 . S
C1106 C1110 1.524 . S
C1107 C1099 1.503 . S
C1107 C1106 1.370 . S
C1107 C1108 1.403 . S
C1108 C1107 1.403 . S
C1108 C1109 1.404 . S
C1108 C1111 1.539 . S
C1109 C1105 1.408 . S
C1109 C1108 1.404 . S
C1109 H1121 0.930 . S
C1110 C1106 1.524 . S
C1110 H1122 0.956 . S
C1110 H1123 0.961 . S
C1110 H1124 0.961 . S
C1111 C1108 1.539 . S
C1111 H1125 0.958 . S
C1111 H1126 0.961 . S
C1111 H1127 0.960 . S
H1112 C1096 0.931 . S
H1113 C1101 0.929 . S
H1114 C1102 0.960 . S
H1115 C1102 0.962 . S
H1116 C1102 0.960 . S
H1117 C1103 0.961 . S
H1118 C1103 0.961 . S
H1119 C1103 0.961 . S
H1120 C1104 0.931 . S
H1121 C1109 0.930 . S
H1122 C1110 0.956 . S
H1123 C1110 0.961 . S
H1124 C1110 0.961 . S
H1125 C1111 0.958 . S
H1126 C1111 0.961 . S
H1127 C1111 0.960 . S
C1128 C1129 1.391 . S
C1128 C1130 1.394 . S
C1128 H1144 0.931 . S
C1129 C1128 1.391 . S
C1129 C1133 1.376 . S
C1130 C1128 1.394 . S
C1130 C1131 1.369 . S
C1130 C1134 1.531 . S
C1131 C1130 1.369 . S
C1131 C1132 1.410 . S
C1131 C1139 1.503 . S
C1132 C1131 1.410 . S
C1132 C1133 1.392 . S
C1132 C1135 1.511 . S
C1133 C1129 1.376 . S
C1133 C1132 1.392 . S
C1133 H1145 0.929 . S
C1134 C1130 1.531 . S
C1134 H1146 0.960 . S
C1134 H1147 0.962 . S
C1134 H1148 0.960 . S
C1135 C1132 1.511 . S
C1135 H1149 0.961 . S
C1135 H1150 0.961 . S
C1135 H1151 0.961 . S
C1136 C1137 1.370 . S
C1136 C1138 1.363 . S
C1136 H1152 0.931 . S
C1137 C1136 1.370 . S
C1137 C1141 1.408 . S
C1138 C1136 1.363 . S
C1138 C1139 1.370 . S
C1138 C1142 1.524 . S
C1139 C1131 1.503 . S
C1139 C1138 1.370 . S
C1139 C1140 1.403 . S
C1140 C1139 1.403 . S
C1140 C1141 1.404 . S
C1140 C1143 1.539 . S
C1141 C1137 1.408 . S
C1141 C1140 1.404 . S
C1141 H1153 0.930 . S
C1142 C1138 1.524 . S
C1142 H1154 0.956 . S
C1142 H1155 0.961 . S
C1142 H1156 0.961 . S
C1143 C1140 1.539 . S
C1143 H1157 0.958 . S
C1143 H1158 0.961 . S
C1143 H1159 0.960 . S
H1144 C1128 0.931 . S
H1145 C1133 0.929 . S
H1146 C1134 0.960 . S
H1147 C1134 0.962 . S
H1148 C1134 0.960 . S
H1149 C1135 0.961 . S
H1150 C1135 0.961 . S
H1151 C1135 0.961 . S
H1152 C1136 0.931 . S
H1153 C1141 0.930 . S
H1154 C1142 0.956 . S
H1155 C1142 0.961 . S
H1156 C1142 0.961 . S
H1157 C1143 0.958 . S
H1158 C1143 0.961 . S
H1159 C1143 0.960 . S
C1160 C1161 1.391 . S
C1160 C1162 1.394 . S
C1160 H1176 0.931 . S
C1161 C1160 1.391 . S
C1161 C1165 1.376 . S
C1162 C1160 1.394 . S
C1162 C1163 1.369 . S
C1162 C1166 1.531 . S
C1163 C1162 1.369 . S
C1163 C1164 1.410 . S
C1163 C1171 1.503 . S
C1164 C1163 1.410 . S
C1164 C1165 1.392 . S
C1164 C1167 1.511 . S
C1165 C1161 1.376 . S
C1165 C1164 1.392 . S
C1165 H1177 0.929 . S
C1166 C1162 1.531 . S
C1166 H1178 0.960 . S
C1166 H1179 0.962 . S
C1166 H1180 0.960 . S
C1167 C1164 1.511 . S
C1167 H1181 0.961 . S
C1167 H1182 0.961 . S
C1167 H1183 0.961 . S
C1168 C1169 1.370 . S
C1168 C1170 1.363 . S
C1168 H1184 0.931 . S
C1169 C1168 1.370 . S
C1169 C1173 1.408 . S
C1170 C1168 1.363 . S
C1170 C1171 1.370 . S
C1170 C1174 1.524 . S
C1171 C1163 1.503 . S
C1171 C1170 1.370 . S
C1171 C1172 1.403 . S
C1172 C1171 1.403 . S
C1172 C1173 1.404 . S
C1172 C1175 1.539 . S
C1173 C1169 1.408 . S
C1173 C1172 1.404 . S
C1173 H1185 0.930 . S
C1174 C1170 1.524 . S
C1174 H1186 0.956 . S
C1174 H1187 0.961 . S
C1174 H1188 0.961 . S
C1175 C1172 1.539 . S
C1175 H1189 0.958 . S
C1175 H1190 0.961 . S
C1175 H1191 0.960 . S
H1176 C1160 0.931 . S
H1177 C1165 0.929 . S
H1178 C1166 0.960 . S
H1179 C1166 0.962 . S
H1180 C1166 0.960 . S
H1181 C1167 0.961 . S
H1182 C1167 0.961 . S
H1183 C1167 0.961 . S
H1184 C1168 0.931 . S
H1185 C1173 0.930 . S
H1186 C1174 0.956 . S
H1187 C1174 0.961 . S
H1188 C1174 0.961 . S
H1189 C1175 0.958 . S
H1190 C1175 0.961 . S
H1191 C1175 0.960 . S
C425 C71 1.668 . S
C433 C144 1.648 . S
C465 C228 1.629 . S
C457 C81 1.644 . S
C497 C227 1.659 . S
C489 C49 1.663 . S
C521 C59 1.617 . S
C529 C143 1.637 . S
C561 C324 1.657 . S
C553 C27 1.650 . S
C593 C408 1.682 . S
C585 C38 1.705 . S
C617 C5 1.653 . S
C625 C407 1.654 . S
C649 C16 1.684 . S
C657 C323 1.700 . S
C689 C146 1.385 . S
C681 C15 1.569 . S
C721 C230 1.396 . S
C713 C4 1.576 . S
C753 C242 1.376 . S
C745 C37 1.563 . S
C785 C158 1.357 . S
C777 C26 1.587 . S
C817 C326 1.479 . S
C809 C60 1.586 . S
C841 C48 1.643 . S
C849 C410 1.470 . S
C881 C398 1.437 . S
C873 C82 1.597 . S
C905 C70 1.647 . S
C913 C314 1.406 . S
C945 C155 1.500 . S
C937 C10 1.500 . S
C977 C239 1.549 . S
C969 C21 1.547 . S
C1001 C32 1.471 . S
C1009 C240 1.458 . S
C1041 C156 1.510 . S
C1033 C43 1.529 . S
C1073 C311 1.591 . S
C1065 C54 1.587 . S
C1097 C65 1.544 . S
C1105 C395 1.547 . S
C1129 C76 1.568 . S
C1137 C396 1.562 . S
C1161 C87 1.537 . S
C1169 C312 1.512 . S
