# Generated by pormake.
# Topology nom, (4,4)-cn, num edge types: 1
# Building blocks:
#     Node 0, Type 0, BuildingBlock: MIFKUJ_clean_linker_1, # of connection points: 4
#     Node 1, Type 0, BuildingBlock: MIFKUJ_clean_linker_1, # of connection points: 4
#     Node 2, Type 0, BuildingBlock: MIFKUJ_clean_linker_1, # of connection points: 4
#     Node 3, Type 0, BuildingBlock: MIFKUJ_clean_linker_1, # of connection points: 4
#     Node 4, Type 0, BuildingBlock: MIFKUJ_clean_linker_1, # of connection points: 4
#     Node 5, Type 0, BuildingBlock: MIFKUJ_clean_linker_1, # of connection points: 4
#     Node 6, Type 1, BuildingBlock: NAHDIM_clean_sbu_0, # of connection points: 4
#     Node 7, Type 1, BuildingBlock: NAHDIM_clean_sbu_0, # of connection points: 4
#     Node 8, Type 1, BuildingBlock: NAHDIM_clean_sbu_0, # of connection points: 4
#     Node 9, Type 1, BuildingBlock: NAHDIM_clean_sbu_0, # of connection points: 4
#     Node 10, Type 1, BuildingBlock: NAHDIM_clean_sbu_0, # of connection points: 4
#     Node 11, Type 1, BuildingBlock: NAHDIM_clean_sbu_0, # of connection points: 4
#     Edge 12, Type (0, 1), BuildingBlock: XIVTED_clean_linker_0, # of connection points: 2
#     Edge 13, Type (0, 1), BuildingBlock: XIVTED_clean_linker_0, # of connection points: 2
#     Edge 14, Type (0, 1), BuildingBlock: XIVTED_clean_linker_0, # of connection points: 2
#     Edge 15, Type (0, 1), BuildingBlock: XIVTED_clean_linker_0, # of connection points: 2
#     Edge 16, Type (0, 1), BuildingBlock: XIVTED_clean_linker_0, # of connection points: 2
#     Edge 17, Type (0, 1), BuildingBlock: XIVTED_clean_linker_0, # of connection points: 2
#     Edge 18, Type (0, 1), BuildingBlock: XIVTED_clean_linker_0, # of connection points: 2
#     Edge 19, Type (0, 1), BuildingBlock: XIVTED_clean_linker_0, # of connection points: 2
#     Edge 20, Type (0, 1), BuildingBlock: XIVTED_clean_linker_0, # of connection points: 2
#     Edge 21, Type (0, 1), BuildingBlock: XIVTED_clean_linker_0, # of connection points: 2
#     Edge 22, Type (0, 1), BuildingBlock: XIVTED_clean_linker_0, # of connection points: 2
#     Edge 23, Type (0, 1), BuildingBlock: XIVTED_clean_linker_0, # of connection points: 2
#     Edge 24, Type (0, 1), BuildingBlock: XIVTED_clean_linker_0, # of connection points: 2
#     Edge 25, Type (0, 1), BuildingBlock: XIVTED_clean_linker_0, # of connection points: 2
#     Edge 26, Type (0, 1), BuildingBlock: XIVTED_clean_linker_0, # of connection points: 2
#     Edge 27, Type (0, 1), BuildingBlock: XIVTED_clean_linker_0, # of connection points: 2
#     Edge 28, Type (0, 1), BuildingBlock: XIVTED_clean_linker_0, # of connection points: 2
#     Edge 29, Type (0, 1), BuildingBlock: XIVTED_clean_linker_0, # of connection points: 2
#     Edge 30, Type (0, 1), BuildingBlock: XIVTED_clean_linker_0, # of connection points: 2
#     Edge 31, Type (0, 1), BuildingBlock: XIVTED_clean_linker_0, # of connection points: 2
#     Edge 32, Type (0, 1), BuildingBlock: XIVTED_clean_linker_0, # of connection points: 2
#     Edge 33, Type (0, 1), BuildingBlock: XIVTED_clean_linker_0, # of connection points: 2
#     Edge 34, Type (0, 1), BuildingBlock: XIVTED_clean_linker_0, # of connection points: 2
#     Edge 35, Type (0, 1), BuildingBlock: XIVTED_clean_linker_0, # of connection points: 2
# Relax obj value: 0.020
# Max RMSD: 0.118
# Mean RMSD: 0.104
data_MOF--net-nom--node1-NAHDIM_clean_sbu_0--node2-MIFKUJ_clean_linker_1--edge1-XIVTED_clean_linker_0
_symmetry_space_group_name_H-M    P1
_symmetry_Int_Tables_number       1
_symmetry_cell_setting            triclinic
loop_
_symmetry_equiv_pos_as_xyz
'x, y, z'
_cell_length_a     53.114109
_cell_length_b     54.647205
_cell_length_c     56.7735
_cell_angle_alpha  90.023672
_cell_angle_beta   90.520959
_cell_angle_gamma 121.03341
loop_
_atom_site_label
_atom_site_type_symbol
_atom_site_fract_x
_atom_site_fract_y
_atom_site_fract_z
_atom_type_partial_charge
H0 H 0.96986 0.4501 0.27596 0.0
H1 H 0.93568 0.43064 0.24258 0.0
H2 H 0.90578 0.48907 0.25758 0.0
H3 H 0.93985 0.50816 0.29122 0.0
H4 H 0.01528 0.50809 0.28319 0.0
H5 H 0.91941 0.43881 0.31864 0.0
H6 H 0.86848 0.42362 0.32772 0.0
H7 H 0.89861 0.5027 0.36582 0.0
H8 H 0.94891 0.51843 0.35531 0.0
H9 H 0.02639 0.55014 0.3788 0.0
H10 H 0.0603 0.56504 0.41252 0.0
H11 H 0.09484 0.51407 0.38629 0.0
H12 H 0.0609 0.49926 0.35251 0.0
H13 H 0.98301 0.49866 0.36608 0.0
H14 H 0.06623 0.57231 0.33439 0.0
H15 H 0.11636 0.60542 0.32203 0.0
H16 H 0.11275 0.54062 0.27612 0.0
H17 H 0.06252 0.50701 0.2891 0.0
C18 C 0.95718 0.48036 0.28614 0.0
C19 C 0.95591 0.45868 0.27203 0.0
C20 C 0.93645 0.44768 0.25291 0.0
C21 C 0.91801 0.45832 0.24739 0.0
C22 C 0.91937 0.48012 0.26156 0.0
C23 C 0.93888 0.49113 0.28072 0.0
C24 C 0.97816 0.49189 0.3062 0.0
C25 C 0.00828 0.50553 0.30137 0.0
C26 C 0.96896 0.49045 0.32974 0.0
C27 C 0.93798 0.47997 0.33596 0.0
C28 C 0.91494 0.45299 0.32867 0.0
C29 C 0.88585 0.4442 0.33414 0.0
C30 C 0.87933 0.46204 0.34735 0.0
C31 C 0.90262 0.48867 0.35513 0.0
C32 C 0.93152 0.49756 0.34939 0.0
C33 C 0.0412 0.52366 0.36316 0.0
C34 C 0.0413 0.54222 0.3803 0.0
C35 C 0.06077 0.55084 0.39944 0.0
C36 C 0.08015 0.54068 0.40196 0.0
C37 C 0.07999 0.52205 0.38481 0.0
C38 C 0.06077 0.51374 0.36549 0.0
C39 C 0.02012 0.51408 0.34313 0.0
C40 C 0.99008 0.50082 0.34793 0.0
C41 C 0.02945 0.5177 0.31947 0.0
C42 C 0.06071 0.53689 0.31307 0.0
C43 C 0.07642 0.56483 0.3222 0.0
C44 C 0.10506 0.58385 0.31501 0.0
C45 C 0.11846 0.57555 0.29819 0.0
C46 C 0.10285 0.54759 0.28905 0.0
C47 C 0.07423 0.52839 0.29648 0.0
H48 H 0.43812 0.95817 0.52195 0.0
H49 H 0.40646 0.90809 0.53222 0.0
H50 H 0.46683 0.88837 0.49892 0.0
H51 H 0.49846 0.93879 0.48845 0.0
H52 H 0.49378 0.99559 0.53465 0.0
H53 H 0.43964 0.95344 0.46244 0.0
H54 H 0.42222 0.92021 0.42911 0.0
H55 H 0.512 0.95327 0.40785 0.0
H56 H 0.52931 0.98601 0.44169 0.0
H57 H 0.56447 0.07664 0.45933 0.0
H58 H 0.57943 0.12532 0.44706 0.0
H59 H 0.51164 0.12259 0.49037 0.0
H60 H 0.49615 0.07392 0.50192 0.0
H61 H 0.51553 0.02868 0.45197 0.0
H62 H 0.5677 0.07725 0.52379 0.0
H63 H 0.58115 0.10816 0.55863 0.0
H64 H 0.49022 0.06282 0.57996 0.0
H65 H 0.4772 0.03177 0.54557 0.0
C66 C 0.4706 0.95217 0.50442 0.0
C67 C 0.44465 0.94309 0.51697 0.0
C68 C 0.42662 0.91447 0.52291 0.0
C69 C 0.43421 0.89428 0.51651 0.0
C70 C 0.46025 0.90338 0.5039 0.0
C71 C 0.47836 0.93215 0.49795 0.0
C72 C 0.48924 0.98274 0.49831 0.0
C73 C 0.49858 0.00289 0.51657 0.0
C74 C 0.49627 0.99217 0.4748 0.0
C75 C 0.48577 0.97192 0.45467 0.0
C76 C 0.45557 0.95331 0.45074 0.0
C77 C 0.44566 0.93452 0.43156 0.0
C78 C 0.46574 0.93413 0.41582 0.0
C79 C 0.49601 0.95282 0.41981 0.0
C80 C 0.50592 0.97166 0.43901 0.0
C81 C 0.52962 0.07181 0.48199 0.0
C82 C 0.55293 0.08659 0.46625 0.0
C83 C 0.5614 0.11431 0.4592 0.0
C84 C 0.54681 0.12772 0.46793 0.0
C85 C 0.5236 0.11294 0.48372 0.0
C86 C 0.51488 0.08517 0.49046 0.0
C87 C 0.51913 0.04172 0.48833 0.0
C88 C 0.51151 0.02157 0.47012 0.0
C89 C 0.51331 0.03222 0.51193 0.0
C90 C 0.52149 0.05213 0.53218 0.0
C91 C 0.55071 0.07415 0.53594 0.0
C92 C 0.55832 0.09183 0.55582 0.0
C93 C 0.53681 0.08779 0.57224 0.0
C94 C 0.50747 0.06612 0.56802 0.0
C95 C 0.49995 0.04842 0.54829 0.0
H96 H 0.53856 0.57278 0.69093 0.0
H97 H 0.51943 0.58734 0.72364 0.0
H98 H 0.43085 0.52983 0.69834 0.0
H99 H 0.45014 0.51451 0.66637 0.0
H100 H 0.52644 0.51701 0.68036 0.0
H101 H 0.50286 0.58625 0.64441 0.0
H102 H 0.46576 0.59856 0.63453 0.0
H103 H 0.41842 0.5212 0.59288 0.0
H104 H 0.45419 0.50822 0.60406 0.0
H105 H 0.49541 0.47732 0.58524 0.0
H106 H 0.51185 0.46024 0.55238 0.0
H107 H 0.60112 0.50936 0.5786 0.0
H108 H 0.58448 0.52627 0.61171 0.0
H109 H 0.50953 0.53032 0.59651 0.0
H110 H 0.50867 0.45415 0.62987 0.0
H111 H 0.52177 0.41949 0.64216 0.0
H112 H 0.58966 0.48278 0.68789 0.0
H113 H 0.57664 0.51786 0.67514 0.0
C114 C 0.4958 0.54287 0.67607 0.0
C115 C 0.51502 0.56329 0.69252 0.0
C116 C 0.50405 0.57177 0.71107 0.0
C117 C 0.47359 0.55988 0.71359 0.0
C118 C 0.4544 0.53923 0.69712 0.0
C119 C 0.46539 0.53065 0.67867 0.0
C120 C 0.50765 0.53402 0.65645 0.0
C121 C 0.52345 0.52059 0.66201 0.0
C122 C 0.5017 0.5367 0.63252 0.0
C123 C 0.48111 0.54611 0.62527 0.0
C124 C 0.48435 0.5719 0.63329 0.0
C125 C 0.46327 0.57904 0.62742 0.0
C126 C 0.43886 0.56069 0.61313 0.0
C127 C 0.43645 0.53549 0.60441 0.0
C128 C 0.45719 0.52822 0.61053 0.0
C129 C 0.53874 0.50306 0.60086 0.0
C130 C 0.51852 0.48439 0.58393 0.0
C131 C 0.52788 0.47451 0.56529 0.0
C132 C 0.55773 0.48349 0.56302 0.0
C133 C 0.57802 0.50226 0.57993 0.0
C134 C 0.56854 0.5118 0.59884 0.0
C135 C 0.52857 0.51366 0.62043 0.0
C136 C 0.51331 0.52752 0.61487 0.0
C137 C 0.53269 0.50911 0.6443 0.0
C138 C 0.54219 0.48887 0.6511 0.0
C139 C 0.52691 0.46089 0.64207 0.0
C140 C 0.53432 0.44101 0.64921 0.0
C141 C 0.55691 0.44848 0.66584 0.0
C142 C 0.57209 0.47642 0.67509 0.0
C143 C 0.56478 0.49648 0.66776 0.0
H144 H 0.02597 0.54616 0.77361 0.0
H145 H 0.06205 0.56311 0.74213 0.0
H146 H 0.09641 0.51231 0.76992 0.0
H147 H 0.05927 0.49438 0.80064 0.0
H148 H 0.98213 0.49188 0.78327 0.0
H149 H 0.07258 0.56494 0.82367 0.0
H150 H 0.12381 0.5841 0.83581 0.0
H151 H 0.09843 0.50541 0.87231 0.0
H152 H 0.04745 0.48648 0.86018 0.0
H153 H 0.96692 0.45524 0.88139 0.0
H154 H 0.9304 0.44051 0.91245 0.0
H155 H 0.89334 0.48532 0.87768 0.0
H156 H 0.93005 0.50018 0.84676 0.0
H157 H 0.00931 0.5044 0.86813 0.0
H158 H 0.92703 0.42896 0.83105 0.0
H159 H 0.87628 0.39867 0.81766 0.0
H160 H 0.88462 0.46748 0.77438 0.0
H161 H 0.93563 0.49777 0.78786 0.0
C162 C 0.04014 0.51928 0.78963 0.0
C163 C 0.04123 0.53862 0.77285 0.0
C164 C 0.06209 0.54852 0.755 0.0
C165 C 0.08231 0.53925 0.75356 0.0
C166 C 0.08104 0.51971 0.77036 0.0
C167 C 0.06002 0.50967 0.78811 0.0
C168 C 0.01783 0.50892 0.80845 0.0
C169 C 0.98808 0.49509 0.80183 0.0
C170 C 0.0255 0.51164 0.83266 0.0
C171 C 0.0563 0.5242 0.84086 0.0
C172 C 0.07812 0.55187 0.83429 0.0
C173 C 0.10734 0.56274 0.84119 0.0
C174 C 0.11514 0.54622 0.85497 0.0
C175 C 0.09308 0.5188 0.86196 0.0
C176 C 0.06395 0.50793 0.855 0.0
C177 C 0.95114 0.47866 0.86165 0.0
C178 C 0.95101 0.46199 0.8805 0.0
C179 C 0.93015 0.45361 0.89825 0.0
C180 C 0.90899 0.46176 0.8975 0.0
C181 C 0.9091 0.47839 0.87857 0.0
C182 C 0.93008 0.48689 0.8609 0.0
C183 C 0.97358 0.48787 0.84296 0.0
C184 C 0.00331 0.50145 0.84958 0.0
C185 C 0.96587 0.4838 0.81876 0.0
C186 C 0.93496 0.46575 0.81072 0.0
C187 C 0.91784 0.43765 0.81889 0.0
C188 C 0.88883 0.42036 0.81123 0.0
C189 C 0.87639 0.43074 0.79507 0.0
C190 C 0.89368 0.45881 0.78669 0.0
C191 C 0.92275 0.47615 0.79442 0.0
H192 H 0.55953 0.05581 0.01882 0.0
H193 H 0.59533 0.10554 0.02842 0.0
H194 H 0.53615 0.13072 0.00037 0.0
H195 H 0.49997 0.08059 0.99126 0.0
H196 H 0.50414 0.02029 0.03351 0.0
H197 H 0.55312 0.06209 0.96039 0.0
H198 H 0.56969 0.09602 0.92793 0.0
H199 H 0.47943 0.06855 0.9107 0.0
H200 H 0.46305 0.0352 0.9438 0.0
H201 H 0.42234 0.94062 0.96128 0.0
H202 H 0.40609 0.89256 0.94608 0.0
H203 H 0.48194 0.89642 0.97856 0.0
H204 H 0.49814 0.94427 0.99341 0.0
H205 H 0.47401 0.98983 0.95059 0.0
H206 H 0.42581 0.94127 0.02148 0.0
H207 H 0.41187 0.90907 0.05515 0.0
H208 H 0.50345 0.94823 0.07522 0.0
H209 H 0.51703 0.98075 0.04198 0.0
C210 C 0.52715 0.06453 0.00426 0.0
C211 C 0.55414 0.072 0.01492 0.0
C212 C 0.5747 0.10046 0.02016 0.0
C213 C 0.56865 0.12205 0.01496 0.0
C214 C 0.54135 0.1145 0.00468 0.0
C215 C 0.52076 0.08594 -0.00064 0.0
C216 C 0.50637 0.03432 0.99778 0.0
C217 C 0.4975 0.01359 0.01539 0.0
C218 C 0.49691 0.02568 0.97425 0.0
C219 C 0.50688 0.04641 0.95467 0.0
C220 C 0.53692 0.06363 0.9498 0.0
C221 C 0.54633 0.08281 0.93109 0.0
C222 C 0.52586 0.08495 0.9167 0.0
C223 C 0.49575 0.06767 0.92163 0.0
C224 C 0.48635 0.04847 0.9404 0.0
C225 C 0.46122 0.94583 0.97871 0.0
C226 C 0.43525 0.93093 0.96528 0.0
C227 C 0.42599 0.90353 0.95667 0.0
C228 C 0.44287 0.89088 0.96104 0.0
C229 C 0.46868 0.90577 0.97469 0.0
C230 C 0.47775 0.93296 0.98343 0.0
C231 C 0.47272 0.97572 0.98624 0.0
C232 C 0.47982 -0.00354 0.96883 0.0
C233 C 0.48079 0.98438 0.00993 0.0
C234 C 0.47244 0.96349 0.02931 0.0
C235 C 0.44286 0.94271 0.03306 0.0
C236 C 0.43494 0.92426 0.05229 0.0
C237 C 0.45651 0.9262 0.06807 0.0
C238 C 0.48619 0.94655 0.06379 0.0
C239 C 0.49404 0.96508 0.04471 0.0
H240 H 0.46156 0.45256 0.19477 0.0
H241 H 0.48023 0.43606 0.22676 0.0
H242 H 0.56828 0.48806 0.19991 0.0
H243 H 0.54964 0.50546 0.1688 0.0
H244 H 0.47472 0.507 0.18439 0.0
H245 H 0.48889 0.43459 0.14666 0.0
H246 H 0.52015 0.41547 0.13673 0.0
H247 H 0.57626 0.49166 0.09674 0.0
H248 H 0.54607 0.51129 0.10796 0.0
H249 H 0.50792 0.55084 0.09065 0.0
H250 H 0.49202 0.56864 0.05769 0.0
H251 H 0.40275 0.52105 0.08267 0.0
H252 H 0.41877 0.50308 0.11556 0.0
H253 H 0.49201 0.49681 0.10019 0.0
H254 H 0.49441 0.5734 0.13994 0.0
H255 H 0.47848 0.60564 0.15361 0.0
H256 H 0.40508 0.53535 0.18887 0.0
H257 H 0.42107 0.50303 0.17492 0.0
C258 C 0.50414 0.47994 0.17924 0.0
C259 C 0.48489 0.46046 0.19589 0.0
C260 C 0.49558 0.45084 0.21402 0.0
C261 C 0.52576 0.46062 0.21588 0.0
C262 C 0.54497 0.48031 0.19921 0.0
C263 C 0.53431 0.49006 0.18123 0.0
C264 C 0.49274 0.49 0.15996 0.0
C265 C 0.47791 0.50417 0.16596 0.0
C266 C 0.49823 0.48762 0.13594 0.0
C267 C 0.5154 0.47457 0.12839 0.0
C268 C 0.50804 0.44721 0.13588 0.0
C269 C 0.52577 0.43618 0.12996 0.0
C270 C 0.55092 0.45214 0.1161 0.0
C271 C 0.55748 0.47905 0.10788 0.0
C272 C 0.53999 0.49017 0.11403 0.0
C273 C 0.46453 0.52568 0.10553 0.0
C274 C 0.48495 0.54435 0.08908 0.0
C275 C 0.47588 0.55465 0.07037 0.0
C276 C 0.44615 0.54622 0.06763 0.0
C277 C 0.42576 0.52773 0.08427 0.0
C278 C 0.43491 0.51762 0.10312 0.0
C279 C 0.4741 0.51376 0.12467 0.0
C280 C 0.48836 0.49911 0.11862 0.0
C281 C 0.46933 0.51681 0.14865 0.0
C282 C 0.4587 0.5358 0.15621 0.0
C283 C 0.47471 0.56487 0.1504 0.0
C284 C 0.46577 0.58331 0.15842 0.0
C285 C 0.44061 0.573 0.17236 0.0
C286 C 0.42444 0.54381 0.17801 0.0
C287 C 0.43357 0.52538 0.17014 0.0
C288 C 0.59884 0.32322 0.41538 0.0
O289 O 0.61589 0.34475 0.42941 0.0
O290 O 0.65311 0.38461 0.38353 0.0
Zn291 Zn 0.61019 0.37027 0.3886 0.0
O292 O 0.60398 0.38852 0.41715 0.0
C293 C 0.60868 0.40013 0.34787 0.0
O294 O 0.63617 0.41705 0.35445 0.0
O295 O 0.59177 0.32838 0.39534 0.0
C296 C 0.6074 0.4133 0.41804 0.0
O297 O 0.616 0.42945 0.3992 0.0
C298 C 0.67453 0.40834 0.39074 0.0
O299 O 0.66944 0.42601 0.40249 0.0
O300 O 0.59254 0.37767 0.35968 0.0
C301 C 0.29375 0.68848 0.55444 0.0
O302 O 0.29196 0.66816 0.54085 0.0
O303 O 0.28377 0.62701 0.58184 0.0
Zn304 Zn 0.25422 0.6393 0.57805 0.0
O305 O 0.22861 0.6221 0.5492 0.0
C306 C 0.22269 0.60683 0.61836 0.0
O307 O 0.2325 0.59058 0.61082 0.0
O308 O 0.2782 0.68155 0.5729 0.0
C309 C 0.20636 0.59699 0.54753 0.0
O310 O 0.19889 0.57966 0.56557 0.0
C311 C 0.28154 0.60418 0.57408 0.0
O312 O 0.25773 0.58557 0.56249 0.0
O313 O 0.22937 0.62953 0.6072 0.0
C314 C 0.59136 0.29197 0.71582 0.0
O315 O 0.59902 0.27966 0.69988 0.0
O316 O 0.64976 0.28505 0.75411 0.0
Zn317 Zn 0.6071 0.26011 0.74583 0.0
O318 O 0.60248 0.23497 0.71813 0.0
C319 C 0.5979 0.21998 0.77988 0.0
O320 O 0.61976 0.22197 0.76763 0.0
O321 O 0.59177 0.28603 0.73742 0.0
C322 C 0.57889 0.211 0.71544 0.0
O323 O 0.55797 0.20277 0.73106 0.0
C324 C 0.66888 0.30088 0.73915 0.0
O325 O 0.66078 0.30063 0.71718 0.0
O326 O 0.58721 0.23523 0.77394 0.0
C327 C 0.39029 0.69522 0.90796 0.0
O328 O 0.36859 0.67367 0.919 0.0
O329 O 0.34564 0.62908 0.88085 0.0
Zn330 Zn 0.3893 0.64829 0.88713 0.0
O331 O 0.39809 0.63309 0.91645 0.0
C332 C 0.39353 0.61791 0.84821 0.0
O333 O 0.36687 0.59948 0.85536 0.0
O334 O 0.40426 0.69015 0.89253 0.0
C335 C 0.38812 0.60673 0.92018 0.0
O336 O 0.3709 0.5878 0.90433 0.0
C337 C 0.32559 0.61516 0.8958 0.0
O338 O 0.33278 0.61192 0.91727 0.0
O339 O 0.40833 0.64164 0.85907 0.0
C340 C 0.68854 0.38162 0.08552 0.0
O341 O 0.68025 0.35529 0.09142 0.0
O342 O 0.71438 0.33926 0.06706 0.0
Zn343 Zn 0.74019 0.38122 0.07382 0.0
O344 O 0.76316 0.38805 0.10391 0.0
C345 C 0.75964 0.39721 0.02588 0.0
O346 O 0.73132 0.38289 0.02115 0.0
O347 O 0.71413 0.39764 0.0773 0.0
C348 C 0.78716 0.3882 0.10398 0.0
O349 O 0.79622 0.38276 0.08429 0.0
C350 C 0.72213 0.32427 0.05565 0.0
O351 O 0.74926 0.33607 0.04819 0.0
O352 O 0.76833 0.3998 0.04715 0.0
C353 C 0.38288 0.71322 0.22199 0.0
O354 O 0.35938 0.71103 0.21205 0.0
O355 O 0.33834 0.73262 0.25243 0.0
Zn356 Zn 0.38075 0.7582 0.24373 0.0
O357 O 0.3854 0.78164 0.21489 0.0
C358 C 0.39055 0.79997 0.27712 0.0
O359 O 0.36828 0.79768 0.26491 0.0
O360 O 0.39734 0.7331 0.23693 0.0
C361 C 0.41021 0.80429 0.21213 0.0
O362 O 0.43097 0.81116 0.22803 0.0
C363 C 0.31631 0.72451 0.23879 0.0
O364 O 0.32037 0.73375 0.21699 0.0
O365 O 0.40102 0.78454 0.27133 0.0
H366 H 0.16688 0.61246 0.32433 0.0
H367 H 0.26552 0.69393 0.21275 0.0
H368 H 0.13745 0.58664 0.25262 0.0
H369 H 0.29966 0.70632 0.28386 0.0
H370 H 0.21732 0.65696 0.22704 0.0
H371 H 0.2149 0.64915 0.3098 0.0
C372 C 0.17059 0.61451 0.30551 0.0
C373 C 0.14821 0.59653 0.28964 0.0
C374 C 0.2354 0.6678 0.23948 0.0
C375 C 0.20301 0.63852 0.27287 0.0
C376 C 0.26285 0.68901 0.23137 0.0
C377 C 0.28666 0.7032 0.24713 0.0
C378 C 0.2317 0.66097 0.26354 0.0
C379 C 0.28197 0.69587 0.27106 0.0
C380 C 0.198 0.63539 0.29723 0.0
C381 C 0.15424 0.59991 0.26545 0.0
N382 N 0.25504 0.6753 0.27852 0.0
N383 N 0.18103 0.62064 0.25778 0.0
H384 H 0.55609 0.17258 0.4955 0.0
H385 H 0.57536 0.27482 0.38788 0.0
H386 H 0.55608 0.14876 0.42305 0.0
H387 H 0.60141 0.3048 0.45939 0.0
H388 H 0.56272 0.22688 0.40046 0.0
H389 H 0.56769 0.21991 0.48256 0.0
C390 C 0.55855 0.17738 0.47686 0.0
C391 C 0.55517 0.15682 0.4603 0.0
C392 C 0.57119 0.244 0.41335 0.0
C393 C 0.56825 0.21079 0.44535 0.0
C394 C 0.57823 0.27128 0.40623 0.0
C395 C 0.58951 0.29381 0.42262 0.0
C396 C 0.57513 0.23924 0.43706 0.0
C397 C 0.59291 0.28808 0.44614 0.0
C398 C 0.56525 0.20438 0.46948 0.0
C399 C 0.55879 0.16415 0.43637 0.0
N400 N 0.5857 0.26137 0.45266 0.0
N401 N 0.56497 0.19053 0.42957 0.0
H402 H 0.37942 0.52333 0.60979 0.0
H403 H 0.3376 0.64201 0.58894 0.0
H404 H 0.44496 0.61298 0.60399 0.0
H405 H 0.27961 0.55327 0.57045 0.0
H406 H 0.37628 0.63183 0.5983 0.0
H407 H 0.34156 0.534 0.59925 0.0
C408 C 0.38596 0.54526 0.60612 0.0
C409 C 0.41558 0.56726 0.60755 0.0
C410 C 0.35514 0.61464 0.5921 0.0
C411 C 0.37205 0.57962 0.59598 0.0
C412 C 0.33301 0.62038 0.58682 0.0
C413 C 0.30532 0.59841 0.57895 0.0
C414 C 0.3494 0.58666 0.5898 0.0
C415 C 0.30065 0.57084 0.57642 0.0
C416 C 0.36424 0.55131 0.6002 0.0
C417 C 0.42245 0.59536 0.60331 0.0
N418 N 0.32243 0.5657 0.582 0.0
N419 N 0.40082 0.60074 0.59775 0.0
H420 H 0.82865 0.39454 0.82142 0.0
H421 H 0.71568 0.33848 0.71231 0.0
H422 H 0.8539 0.42463 0.7503 0.0
H423 H 0.69232 0.30699 0.78332 0.0
H424 H 0.76629 0.37066 0.72572 0.0
H425 H 0.77833 0.36283 0.80764 0.0
C426 C 0.82362 0.39439 0.80287 0.0
C427 C 0.84555 0.41217 0.78697 0.0
C428 C 0.75007 0.35668 0.73834 0.0
C429 C 0.78784 0.37605 0.77106 0.0
C430 C 0.72118 0.33828 0.73069 0.0
C431 C 0.69972 0.32002 0.74672 0.0
C432 C 0.7575 0.3568 0.76217 0.0
C433 C 0.70811 0.32069 0.77033 0.0
C434 C 0.79484 0.37636 0.79502 0.0
C435 C 0.83763 0.41148 0.7632 0.0
N436 N 0.73631 0.33879 0.77733 0.0
N437 N 0.80942 0.39364 0.75595 0.0
H438 H 0.38825 0.84253 0.9609 0.0
H439 H 0.43935 0.74579 0.8952 0.0
H440 H 0.47735 0.87458 0.93875 0.0
H441 H 0.35839 0.71164 0.93365 0.0
H442 H 0.4516 0.79412 0.90631 0.0
H443 H 0.3747 0.79519 0.94601 0.0
C444 C 0.40488 0.83962 0.95273 0.0
C445 C 0.43398 0.8624 0.9512 0.0
C446 C 0.43114 0.776 0.91225 0.0
C447 C 0.41874 0.80842 0.9342 0.0
C448 C 0.42412 0.74846 0.90587 0.0
C449 C 0.39792 0.72467 0.91364 0.0
C450 C 0.41166 0.77971 0.92626 0.0
C451 C 0.37895 0.72934 0.92742 0.0
C452 C 0.39721 0.8126 0.94437 0.0
C453 C 0.45475 0.85745 0.94059 0.0
N454 N 0.38619 0.7563 0.93327 0.0
N455 N 0.44674 0.83098 0.93249 0.0
H456 H 0.53601 0.39695 0.10607 0.0
H457 H 0.70103 0.43684 0.08265 0.0
H458 H 0.6111 0.48237 0.11389 0.0
H459 H 0.63009 0.35081 0.0958 0.0
H460 H 0.66726 0.45402 0.08923 0.0
H461 H 0.5693 0.37966 0.09789 0.0
C462 C 0.55945 0.41207 0.10617 0.0
C463 C 0.5707 0.4412 0.11068 0.0
C464 C 0.65912 0.43139 0.09066 0.0
C465 C 0.60886 0.42158 0.10091 0.0
C466 C 0.67835 0.42156 0.08684 0.0
C467 C 0.66838 0.39237 0.08879 0.0
C468 C 0.62968 0.41184 0.09623 0.0
C469 C 0.63875 0.37353 0.09426 0.0
C470 C 0.57842 0.40219 0.10137 0.0
C471 C 0.60132 0.45983 0.11012 0.0
N472 N 0.62043 0.38358 0.09775 0.0
N473 N 0.6193 0.44971 0.10529 0.0
H474 H 0.40535 0.87245 0.55799 0.0
H475 H 0.3277 0.70973 0.5153 0.0
H476 H 0.41857 0.84677 0.48951 0.0
H477 H 0.30702 0.7361 0.58041 0.0
H478 H 0.36272 0.75964 0.50633 0.0
H479 H 0.37112 0.82244 0.56734 0.0
C480 C 0.401 0.85629 0.54488 0.0
C481 C 0.41471 0.86384 0.52286 0.0
C482 C 0.3505 0.75454 0.52256 0.0
C483 C 0.37572 0.80647 0.53356 0.0
C484 C 0.33047 0.72602 0.52772 0.0
C485 C 0.31438 0.71872 0.54865 0.0
C486 C 0.35459 0.77596 0.5385 0.0
C487 C 0.31891 0.74076 0.56405 0.0
C488 C 0.38152 0.82772 0.55028 0.0
C489 C 0.4087 0.84193 0.50677 0.0
N490 N 0.33865 0.76839 0.55868 0.0
N491 N 0.38958 0.81424 0.51242 0.0
H492 H 0.56701 0.43722 0.71093 0.0
H493 H 0.58549 0.30679 0.67115 0.0
H494 H 0.56218 0.41004 0.63881 0.0
H495 H 0.58304 0.32808 0.74401 0.0
H496 H 0.5781 0.34544 0.65921 0.0
H497 H 0.57511 0.39892 0.72361 0.0
C498 C 0.56795 0.42337 0.69776 0.0
C499 C 0.56381 0.42673 0.67379 0.0
C500 C 0.57908 0.34166 0.67783 0.0
C501 C 0.57269 0.38276 0.68814 0.0
C502 C 0.58325 0.31952 0.68467 0.0
C503 C 0.5849 0.31418 0.70863 0.0
C504 C 0.57664 0.35876 0.69503 0.0
C505 C 0.58183 0.3314 0.72534 0.0
C506 C 0.57232 0.40139 0.70501 0.0
C507 C 0.56488 0.40799 0.65749 0.0
N508 N 0.57795 0.35302 0.71822 0.0
N509 N 0.56918 0.38683 0.66497 0.0
H510 H 0.13716 0.54171 0.89751 0.0
H511 H 0.30341 0.61935 0.85331 0.0
H512 H 0.16385 0.5753 0.82744 0.0
H513 H 0.27709 0.58657 0.92368 0.0
H514 H 0.25232 0.60302 0.84347 0.0
H515 H 0.18827 0.55791 0.90746 0.0
C516 C 0.15379 0.55247 0.8842 0.0
C517 C 0.14623 0.55712 0.86159 0.0
C518 C 0.2577 0.59936 0.86106 0.0
C519 C 0.2048 0.57584 0.87289 0.0
C520 C 0.28688 0.60864 0.86669 0.0
C521 C 0.29456 0.60436 0.88939 0.0
C522 C 0.23598 0.58568 0.87822 0.0
C523 C 0.27218 0.59034 0.90598 0.0
C524 C 0.18297 0.56179 0.88992 0.0
C525 C 0.16873 0.57155 0.84516 0.0
N526 N 0.2439 0.58154 0.90007 0.0
N527 N 0.19698 0.58032 0.85111 0.0
H528 H 0.56006 0.16292 0.03472 0.0
H529 H 0.7304 0.28518 0.03205 0.0
H530 H 0.62787 0.14995 0.00731 0.0
H531 H 0.66352 0.29505 0.06568 0.0
H532 H 0.69298 0.23608 0.02155 0.0
H533 H 0.59747 0.21227 0.04445 0.0
C534 C 0.5828 0.17053 0.0306 0.0
C535 C 0.59089 0.15229 0.02028 0.0
C536 C 0.68653 0.24899 0.03127 0.0
C537 C 0.63384 0.20861 0.03153 0.0
C538 C 0.70789 0.27702 0.03728 0.0
C539 C 0.7001 0.29425 0.04978 0.0
C540 C 0.65717 0.23818 0.03771 0.0
C541 C 0.67057 0.28255 0.05607 0.0
C542 C 0.60417 0.19863 0.0363 0.0
C543 C 0.62072 0.16318 0.01557 0.0
N544 N 0.6502 0.25528 0.04993 0.0
N545 N 0.64111 0.19062 0.02123 0.0
H546 H 0.38538 0.56505 0.17213 0.0
H547 H 0.43431 0.71528 0.23346 0.0
H548 H 0.47504 0.62588 0.19228 0.0
H549 H 0.35155 0.66379 0.19682 0.0
H550 H 0.44825 0.68047 0.22256 0.0
H551 H 0.37102 0.59869 0.18546 0.0
C552 C 0.40198 0.58542 0.17952 0.0
C553 C 0.43144 0.59277 0.18102 0.0
C554 C 0.42705 0.67685 0.21694 0.0
C555 C 0.41526 0.63136 0.19622 0.0
C556 C 0.41907 0.69665 0.22319 0.0
C557 C 0.39179 0.69248 0.21595 0.0
C558 C 0.40748 0.65261 0.20359 0.0
C559 C 0.37288 0.66797 0.20267 0.0
C560 C 0.39384 0.60467 0.18698 0.0
C561 C 0.45215 0.61954 0.19054 0.0
N562 N 0.38105 0.64895 0.19696 0.0
N563 N 0.44366 0.63788 0.19781 0.0
H564 H 0.83349 0.40834 0.35834 0.0
H565 H 0.7242 0.46136 0.39286 0.0
H566 H 0.85469 0.49546 0.34947 0.0
H567 H 0.69382 0.37345 0.3754 0.0
H568 H 0.77401 0.47418 0.38201 0.0
H569 H 0.78344 0.39491 0.36886 0.0
C570 C 0.82765 0.42463 0.35842 0.0
C571 C 0.84852 0.45315 0.35311 0.0
C572 C 0.7564 0.4521 0.38055 0.0
C573 C 0.79147 0.43796 0.36568 0.0
C574 C 0.72803 0.44475 0.38685 0.0
C575 C 0.70486 0.41632 0.38496 0.0
C576 C 0.76167 0.4308 0.37264 0.0
C577 C 0.71104 0.39566 0.377 0.0
C578 C 0.79912 0.41694 0.36457 0.0
C579 C 0.83966 0.47335 0.35392 0.0
N580 N 0.73891 0.40329 0.37121 0.0
N581 N 0.81189 0.46539 0.36022 0.0
H582 H 0.11568 0.59436 0.41988 0.0
H583 H 0.16299 0.54296 0.53451 0.0
H584 H 0.08977 0.50639 0.43108 0.0
H585 H 0.20922 0.63032 0.51059 0.0
H586 H 0.13308 0.52891 0.49838 0.0
H587 H 0.1473 0.60791 0.45495 0.0
C588 C 0.11669 0.57792 0.42976 0.0
C589 C 0.10013 0.54924 0.42265 0.0
C590 C 0.14988 0.55112 0.50104 0.0
C591 C 0.13608 0.56449 0.46275 0.0
C592 C 0.16688 0.55917 0.52167 0.0
C593 C 0.18859 0.58786 0.52559 0.0
C594 C 0.15439 0.57198 0.4844 0.0
C595 C 0.19276 0.60795 0.5083 0.0
C596 C 0.13481 0.58565 0.44967 0.0
C597 C 0.10239 0.52877 0.43592 0.0
N598 N 0.17568 0.59965 0.48855 0.0
N599 N 0.11988 0.53677 0.45546 0.0
H600 H 0.51526 0.07081 0.61668 0.0
H601 H 0.61257 0.22524 0.67576 0.0
H602 H 0.57665 0.14537 0.5774 0.0
H603 H 0.53548 0.15558 0.70782 0.0
H604 H 0.60394 0.19512 0.64109 0.0
H605 H 0.52663 0.10053 0.65176 0.0
C606 C 0.53103 0.09347 0.61537 0.0
C607 C 0.54473 0.10563 0.59391 0.0
C608 C 0.58897 0.18646 0.65574 0.0
C609 C 0.55826 0.13976 0.63427 0.0
C610 C 0.59392 0.20358 0.67556 0.0
C611 C 0.57464 0.19291 0.69468 0.0
C612 C 0.56476 0.15841 0.65516 0.0
C613 C 0.55081 0.16473 0.69344 0.0
C614 C 0.53762 0.1104 0.63547 0.0
C615 C 0.56565 0.13502 0.59354 0.0
N616 N 0.54657 0.14846 0.67404 0.0
N617 N 0.57172 0.15111 0.61341 0.0
H618 H 0.42472 0.5261 0.73995 0.0
H619 H 0.44659 0.65156 0.82638 0.0
H620 H 0.49566 0.6135 0.7328 0.0
H621 H 0.36897 0.56725 0.82441 0.0
H622 H 0.46651 0.63792 0.79347 0.0
H623 H 0.40542 0.54069 0.77228 0.0
C624 C 0.43615 0.54842 0.74503 0.0
C625 C 0.46181 0.5686 0.73348 0.0
C626 C 0.4451 0.62247 0.80025 0.0
C627 C 0.44 0.58543 0.77092 0.0
C628 C 0.43374 0.63022 0.81903 0.0
C629 C 0.40606 0.61052 0.82817 0.0
C630 C 0.42874 0.59478 0.79066 0.0
C631 C 0.39037 0.58318 0.81795 0.0
C632 C 0.42519 0.55672 0.76363 0.0
C633 C 0.476 0.59712 0.74132 0.0
N634 N 0.40196 0.57612 0.79983 0.0
N635 N 0.46492 0.60469 0.75955 0.0
H636 H 0.91831 0.46227 0.94501 0.0
H637 H 0.74925 0.39587 0.97833 0.0
H638 H 0.85001 0.44197 0.89342 0.0
H639 H 0.81947 0.42392 0.02963 0.0
H640 H 0.78555 0.41251 0.94689 0.0
H641 H 0.88206 0.44773 0.97619 0.0
C642 C 0.89563 0.45462 0.94024 0.0
C643 C 0.88715 0.45323 0.91657 0.0
C644 C 0.793 0.41513 0.96504 0.0
C645 C 0.84551 0.43676 0.95222 0.0
C646 C 0.77229 0.40564 0.983 0.0
C647 C 0.78132 0.40845 0.00666 0.0
C648 C 0.82293 0.42738 0.97078 0.0
C649 C 0.81148 0.42129 0.01165 0.0
C650 C 0.87497 0.4465 0.95807 0.0
C651 C 0.85755 0.44361 0.91145 0.0
N652 N 0.83115 0.43016 0.99387 0.0
N653 N 0.83777 0.43563 0.92913 0.0
H654 H 0.4131 0.86959 0.07233 0.0
H655 H 0.45734 0.85762 0.20476 0.0
H656 H 0.48075 0.94079 0.11239 0.0
H657 H 0.37657 0.79256 0.17194 0.0
H658 H 0.46766 0.88723 0.16992 0.0
H659 H 0.40043 0.83995 0.10762 0.0
C660 C 0.42519 0.87906 0.08853 0.0
C661 C 0.4482 0.90774 0.08928 0.0
C662 C 0.44761 0.86653 0.17033 0.0
C663 C 0.43404 0.8738 0.12961 0.0
C664 C 0.44173 0.84956 0.19022 0.0
C665 C 0.41606 0.82255 0.19126 0.0
C666 C 0.42785 0.85637 0.15118 0.0
C667 C 0.3966 0.81328 0.17189 0.0
C668 C 0.41801 0.86208 0.10864 0.0
C669 C 0.4633 0.91868 0.11075 0.0
N670 N 0.40297 0.83012 0.15256 0.0
N671 N 0.45604 0.90169 0.12997 0.0
H672 H 0.50086 0.40682 0.23496 0.0
H673 H 0.63634 0.44921 0.32233 0.0
H674 H 0.57702 0.49179 0.24116 0.0
H675 H 0.55354 0.36965 0.32765 0.0
H676 H 0.61607 0.46335 0.29012 0.0
H677 H 0.52061 0.3913 0.26688 0.0
C678 C 0.52163 0.42227 0.24308 0.0
C679 C 0.5373 0.45069 0.23526 0.0
C680 C 0.60229 0.44279 0.2983 0.0
C681 C 0.56021 0.43289 0.27155 0.0
C682 C 0.61389 0.43463 0.31668 0.0
C683 C 0.59659 0.40821 0.32777 0.0
C684 C 0.57317 0.42437 0.29078 0.0
C685 C 0.56763 0.39025 0.31964 0.0
C686 C 0.53295 0.41333 0.26122 0.0
C687 C 0.56436 0.46957 0.24624 0.0
N688 N 0.55681 0.39866 0.3016 0.0
N689 N 0.57493 0.46032 0.26375 0.0
H690 H 0.41967 0.92204 0.38637 0.0
H691 H 0.43702 0.81104 0.30616 0.0
H692 H 0.48752 0.90205 0.3979 0.0
H693 H 0.37184 0.83454 0.29417 0.0
H694 H 0.45605 0.84402 0.3398 0.0
H695 H 0.40184 0.88962 0.35263 0.0
C696 C 0.43073 0.91069 0.38188 0.0
C697 C 0.45504 0.91467 0.39507 0.0
C698 C 0.43761 0.84196 0.32977 0.0
C699 C 0.4349 0.87764 0.35619 0.0
C700 C 0.42673 0.82313 0.31057 0.0
C701 C 0.40276 0.81999 0.29734 0.0
C702 C 0.42438 0.85769 0.33578 0.0
C703 C 0.39033 0.83623 0.30385 0.0
C704 C 0.42064 0.89229 0.3625 0.0
C705 C 0.46885 0.8998 0.38811 0.0
N706 N 0.40124 0.8543 0.32259 0.0
N707 N 0.45853 0.88186 0.36918 0.0
H708 H 0.60286 0.51563 0.53296 0.0
H709 H 0.57899 0.38215 0.45693 0.0
H710 H 0.53459 0.42885 0.54701 0.0
H711 H 0.62257 0.46798 0.42961 0.0
H712 H 0.56863 0.39938 0.49314 0.0
H713 H 0.61666 0.49885 0.49804 0.0
C714 C 0.591 0.49302 0.52879 0.0
C715 C 0.56751 0.47356 0.54276 0.0
C716 C 0.58048 0.41443 0.47922 0.0
C717 C 0.5831 0.45431 0.50307 0.0
C718 C 0.58648 0.40465 0.45857 0.0
C719 C 0.60155 0.42365 0.44017 0.0
C720 C 0.58994 0.44349 0.48164 0.0
C721 C 0.61072 0.45257 0.44329 0.0
C722 C 0.59872 0.48351 0.50883 0.0
C723 C 0.55266 0.44454 0.53654 0.0
N724 N 0.60484 0.46164 0.46368 0.0
N725 N 0.56074 0.43577 0.51717 0.0
H726 H 0.10122 0.50887 0.72848 0.0
H727 H 0.20083 0.63647 0.64067 0.0
H728 H 0.11339 0.59309 0.73468 0.0
H729 H 0.20016 0.55716 0.64313 0.0
H730 H 0.16762 0.62064 0.67428 0.0
H731 H 0.13653 0.52593 0.69649 0.0
C732 C 0.11149 0.53102 0.72329 0.0
C733 C 0.10425 0.54954 0.73435 0.0
C734 C 0.17484 0.60677 0.6675 0.0
C735 C 0.14442 0.56912 0.69734 0.0
C736 C 0.19376 0.61577 0.6483 0.0
C737 C 0.20326 0.5981 0.63904 0.0
C738 C 0.1652 0.57983 0.67741 0.0
C739 C 0.19342 0.57151 0.64966 0.0
C740 C 0.13155 0.54072 0.7049 0.0
C741 C 0.11791 0.5779 0.72646 0.0
N742 N 0.17486 0.56315 0.66819 0.0
N743 N 0.13726 0.58679 0.70841 0.0
H744 H 0.5688 0.09479 0.88534 0.0
H745 H 0.55296 0.21 0.80966 0.0
H746 H 0.50583 0.11974 0.90137 0.0
H747 H 0.61621 0.18467 0.79598 0.0
H748 H 0.53461 0.17687 0.84295 0.0
H749 H 0.58584 0.12756 0.85221 0.0
C750 C 0.55867 0.10732 0.88198 0.0
C751 C 0.53597 0.10463 0.89627 0.0
C752 C 0.55249 0.1786 0.83263 0.0
C753 C 0.55518 0.1421 0.85804 0.0
C754 C 0.56297 0.1975 0.81364 0.0
C755 C 0.58619 0.20015 0.80002 0.0
C756 C 0.56533 0.16229 0.83799 0.0
C757 C 0.59831 0.1834 0.80596 0.0
C758 C 0.56829 0.12594 0.86294 0.0
C759 C 0.52324 0.12098 0.89071 0.0
N760 N 0.58776 0.16525 0.82446 0.0
N761 N 0.53307 0.13909 0.87205 0.0
H762 H 0.4718 0.6001 0.04938 0.0
H763 H 0.36562 0.55222 0.93643 0.0
H764 H 0.3986 0.51434 0.03874 0.0
H765 H 0.42749 0.64032 0.95445 0.0
H766 H 0.37855 0.53762 0.97308 0.0
H767 H 0.45699 0.61506 0.01389 0.0
C768 C 0.45257 0.58444 0.03957 0.0
C769 C 0.43642 0.55594 0.04697 0.0
C770 C 0.38922 0.56014 0.96904 0.0
C771 C 0.41937 0.57284 0.00635 0.0
C772 C 0.38192 0.5685 0.94808 0.0
C773 C 0.39554 0.59754 0.94233 0.0
C774 C 0.41046 0.58096 0.98427 0.0
C775 C 0.41643 0.61769 0.95815 0.0
C776 C 0.44406 0.593 0.01938 0.0
C777 C 0.41151 0.53658 0.03376 0.0
N778 N 0.42334 0.60901 0.97834 0.0
N779 N 0.40385 0.54534 0.014 0.0
H780 H 0.86119 0.44651 0.24376 0.0
H781 H 0.84102 0.39356 0.10959 0.0
H782 H 0.92873 0.4442 0.20383 0.0
H783 H 0.77548 0.40156 0.1475 0.0
H784 H 0.87232 0.4095 0.14478 0.0
H785 H 0.82856 0.4281 0.20931 0.0
C786 C 0.86921 0.44225 0.22773 0.0
C787 C 0.89777 0.44694 0.22671 0.0
C788 C 0.85106 0.40769 0.14543 0.0
C789 C 0.86042 0.42554 0.18729 0.0
C790 C 0.83313 0.39853 0.12534 0.0
C791 C 0.80561 0.39631 0.12555 0.0
C792 C 0.84143 0.4147 0.16592 0.0
C793 C 0.79656 0.40302 0.14651 0.0
C794 C 0.85051 0.43158 0.20811 0.0
C795 C 0.90679 0.44058 0.20556 0.0
N796 N 0.81446 0.41199 0.16582 0.0
N797 N 0.8882 0.43025 0.18672 0.0
loop_
_geom_bond_atom_site_label_1
_geom_bond_atom_site_label_2
_geom_bond_distance
_geom_bond_site_symmetry_2
_ccdc_geom_bond_type
H0 C19 0.949 . S
H1 C20 0.950 . S
H2 C22 0.950 . S
H3 C23 0.950 . S
H4 C25 0.950 . S
H5 C28 0.950 . S
H6 C29 0.950 . S
H7 C31 0.951 . S
H8 C32 0.949 . S
H9 C34 0.949 . S
H10 C35 0.950 . S
H11 C37 0.950 . S
H12 C38 0.950 . S
H13 C40 0.950 . S
H14 C43 0.950 . S
H15 C44 0.950 . S
H16 C46 0.951 . S
H17 C47 0.949 . S
C18 C19 1.376 . S
C18 C23 1.386 . S
C18 C24 1.483 . S
C19 H0 0.949 . S
C19 C18 1.376 . S
C19 C20 1.397 . S
C20 H1 0.950 . S
C20 C19 1.397 . S
C20 C21 1.391 . S
C21 C20 1.391 . S
C21 C22 1.405 . S
C22 H2 0.950 . S
C22 C21 1.405 . S
C22 C23 1.367 . S
C23 H3 0.950 . S
C23 C18 1.386 . S
C23 C22 1.367 . S
C24 C18 1.483 . S
C24 C25 1.382 1_655 S
C24 C26 1.403 . S
C25 H4 0.950 . S
C25 C24 1.382 1_455 S
C25 C41 1.411 . S
C26 C24 1.403 . S
C26 C27 1.489 . S
C26 C40 1.411 . S
C27 C26 1.489 . S
C27 C28 1.383 . S
C27 C32 1.382 . S
C28 H5 0.950 . S
C28 C27 1.383 . S
C28 C29 1.395 . S
C29 H6 0.950 . S
C29 C28 1.395 . S
C29 C30 1.288 . S
C30 C29 1.288 . S
C30 C31 1.392 . S
C31 H7 0.951 . S
C31 C30 1.392 . S
C31 C32 1.392 . S
C32 H8 0.949 . S
C32 C27 1.382 . S
C32 C31 1.392 . S
C33 C34 1.376 . S
C33 C38 1.386 . S
C33 C39 1.483 . S
C34 H9 0.949 . S
C34 C33 1.376 . S
C34 C35 1.397 . S
C35 H10 0.950 . S
C35 C34 1.397 . S
C35 C36 1.391 . S
C36 C35 1.391 . S
C36 C37 1.405 . S
C37 H11 0.950 . S
C37 C36 1.405 . S
C37 C38 1.367 . S
C38 H12 0.950 . S
C38 C33 1.386 . S
C38 C37 1.367 . S
C39 C33 1.483 . S
C39 C40 1.382 1_455 S
C39 C41 1.403 . S
C40 H13 0.950 . S
C40 C26 1.411 . S
C40 C39 1.382 1_655 S
C41 C25 1.411 . S
C41 C39 1.403 . S
C41 C42 1.489 . S
C42 C41 1.489 . S
C42 C43 1.383 . S
C42 C47 1.382 . S
C43 H14 0.950 . S
C43 C42 1.383 . S
C43 C44 1.395 . S
C44 H15 0.950 . S
C44 C43 1.395 . S
C44 C45 1.288 . S
C45 C44 1.288 . S
C45 C46 1.392 . S
C46 H16 0.951 . S
C46 C45 1.392 . S
C46 C47 1.392 . S
C47 H17 0.949 . S
C47 C42 1.382 . S
C47 C46 1.392 . S
H48 C67 0.949 . S
H49 C68 0.950 . S
H50 C70 0.950 . S
H51 C71 0.950 . S
H52 C73 0.950 1_565 S
H53 C76 0.950 . S
H54 C77 0.950 . S
H55 C79 0.951 . S
H56 C80 0.949 . S
H57 C82 0.949 . S
H58 C83 0.950 . S
H59 C85 0.950 . S
H60 C86 0.950 . S
H61 C88 0.950 . S
H62 C91 0.950 . S
H63 C92 0.950 . S
H64 C94 0.951 . S
H65 C95 0.949 . S
C66 C67 1.376 . S
C66 C71 1.386 . S
C66 C72 1.483 . S
C67 H48 0.949 . S
C67 C66 1.376 . S
C67 C68 1.397 . S
C68 H49 0.950 . S
C68 C67 1.397 . S
C68 C69 1.391 . S
C69 C68 1.391 . S
C69 C70 1.405 . S
C70 H50 0.950 . S
C70 C69 1.405 . S
C70 C71 1.367 . S
C71 H51 0.950 . S
C71 C66 1.386 . S
C71 C70 1.367 . S
C72 C66 1.483 . S
C72 C73 1.382 1_565 S
C72 C74 1.403 . S
C73 H52 0.950 1_545 S
C73 C72 1.382 1_545 S
C73 C89 1.411 . S
C74 C72 1.403 . S
C74 C75 1.489 . S
C74 C88 1.411 1_565 S
C75 C74 1.489 . S
C75 C76 1.383 . S
C75 C80 1.382 . S
C76 H53 0.950 . S
C76 C75 1.383 . S
C76 C77 1.395 . S
C77 H54 0.950 . S
C77 C76 1.395 . S
C77 C78 1.288 . S
C78 C77 1.288 . S
C78 C79 1.392 . S
C79 H55 0.951 . S
C79 C78 1.392 . S
C79 C80 1.392 . S
C80 H56 0.949 . S
C80 C75 1.382 . S
C80 C79 1.392 . S
C81 C82 1.376 . S
C81 C86 1.386 . S
C81 C87 1.483 . S
C82 H57 0.949 . S
C82 C81 1.376 . S
C82 C83 1.397 . S
C83 H58 0.950 . S
C83 C82 1.397 . S
C83 C84 1.391 . S
C84 C83 1.391 . S
C84 C85 1.405 . S
C85 H59 0.950 . S
C85 C84 1.405 . S
C85 C86 1.367 . S
C86 H60 0.950 . S
C86 C81 1.386 . S
C86 C85 1.367 . S
C87 C81 1.483 . S
C87 C88 1.382 . S
C87 C89 1.403 . S
C88 H61 0.950 . S
C88 C74 1.411 1_545 S
C88 C87 1.382 . S
C89 C73 1.411 . S
C89 C87 1.403 . S
C89 C90 1.489 . S
C90 C89 1.489 . S
C90 C91 1.383 . S
C90 C95 1.382 . S
C91 H62 0.950 . S
C91 C90 1.383 . S
C91 C92 1.395 . S
C92 H63 0.950 . S
C92 C91 1.395 . S
C92 C93 1.288 . S
C93 C92 1.288 . S
C93 C94 1.392 . S
C94 H64 0.951 . S
C94 C93 1.392 . S
C94 C95 1.392 . S
C95 H65 0.949 . S
C95 C90 1.382 . S
C95 C94 1.392 . S
H96 C115 0.949 . S
H97 C116 0.950 . S
H98 C118 0.950 . S
H99 C119 0.950 . S
H100 C121 0.950 . S
H101 C124 0.950 . S
H102 C125 0.950 . S
H103 C127 0.951 . S
H104 C128 0.949 . S
H105 C130 0.949 . S
H106 C131 0.950 . S
H107 C133 0.950 . S
H108 C134 0.950 . S
H109 C136 0.950 . S
H110 C139 0.950 . S
H111 C140 0.950 . S
H112 C142 0.951 . S
H113 C143 0.949 . S
C114 C115 1.376 . S
C114 C119 1.386 . S
C114 C120 1.483 . S
C115 H96 0.949 . S
C115 C114 1.376 . S
C115 C116 1.397 . S
C116 H97 0.950 . S
C116 C115 1.397 . S
C116 C117 1.391 . S
C117 C116 1.391 . S
C117 C118 1.405 . S
C118 H98 0.950 . S
C118 C117 1.405 . S
C118 C119 1.367 . S
C119 H99 0.950 . S
C119 C114 1.386 . S
C119 C118 1.367 . S
C120 C114 1.483 . S
C120 C121 1.382 . S
C120 C122 1.403 . S
C121 H100 0.950 . S
C121 C120 1.382 . S
C121 C137 1.411 . S
C122 C120 1.403 . S
C122 C123 1.489 . S
C122 C136 1.411 . S
C123 C122 1.489 . S
C123 C124 1.383 . S
C123 C128 1.382 . S
C124 H101 0.950 . S
C124 C123 1.383 . S
C124 C125 1.395 . S
C125 H102 0.950 . S
C125 C124 1.395 . S
C125 C126 1.288 . S
C126 C125 1.288 . S
C126 C127 1.392 . S
C127 H103 0.951 . S
C127 C126 1.392 . S
C127 C128 1.392 . S
C128 H104 0.949 . S
C128 C123 1.382 . S
C128 C127 1.392 . S
C129 C130 1.376 . S
C129 C134 1.386 . S
C129 C135 1.483 . S
C130 H105 0.949 . S
C130 C129 1.376 . S
C130 C131 1.397 . S
C131 H106 0.950 . S
C131 C130 1.397 . S
C131 C132 1.391 . S
C132 C131 1.391 . S
C132 C133 1.405 . S
C133 H107 0.950 . S
C133 C132 1.405 . S
C133 C134 1.367 . S
C134 H108 0.950 . S
C134 C129 1.386 . S
C134 C133 1.367 . S
C135 C129 1.483 . S
C135 C136 1.382 . S
C135 C137 1.403 . S
C136 H109 0.950 . S
C136 C122 1.411 . S
C136 C135 1.382 . S
C137 C121 1.411 . S
C137 C135 1.403 . S
C137 C138 1.489 . S
C138 C137 1.489 . S
C138 C139 1.383 . S
C138 C143 1.382 . S
C139 H110 0.950 . S
C139 C138 1.383 . S
C139 C140 1.395 . S
C140 H111 0.950 . S
C140 C139 1.395 . S
C140 C141 1.288 . S
C141 C140 1.288 . S
C141 C142 1.392 . S
C142 H112 0.951 . S
C142 C141 1.392 . S
C142 C143 1.392 . S
C143 H113 0.949 . S
C143 C138 1.382 . S
C143 C142 1.392 . S
H144 C163 0.949 . S
H145 C164 0.950 . S
H146 C166 0.950 . S
H147 C167 0.950 . S
H148 C169 0.950 . S
H149 C172 0.950 . S
H150 C173 0.950 . S
H151 C175 0.951 . S
H152 C176 0.949 . S
H153 C178 0.949 . S
H154 C179 0.950 . S
H155 C181 0.950 . S
H156 C182 0.950 . S
H157 C184 0.950 . S
H158 C187 0.950 . S
H159 C188 0.950 . S
H160 C190 0.951 . S
H161 C191 0.949 . S
C162 C163 1.376 . S
C162 C167 1.386 . S
C162 C168 1.483 . S
C163 H144 0.949 . S
C163 C162 1.376 . S
C163 C164 1.397 . S
C164 H145 0.950 . S
C164 C163 1.397 . S
C164 C165 1.391 . S
C165 C164 1.391 . S
C165 C166 1.405 . S
C166 H146 0.950 . S
C166 C165 1.405 . S
C166 C167 1.367 . S
C167 H147 0.950 . S
C167 C162 1.386 . S
C167 C166 1.367 . S
C168 C162 1.483 . S
C168 C169 1.382 1_455 S
C168 C170 1.403 . S
C169 H148 0.950 . S
C169 C168 1.382 1_655 S
C169 C185 1.411 . S
C170 C168 1.403 . S
C170 C171 1.489 . S
C170 C184 1.411 . S
C171 C170 1.489 . S
C171 C172 1.383 . S
C171 C176 1.382 . S
C172 H149 0.950 . S
C172 C171 1.383 . S
C172 C173 1.395 . S
C173 H150 0.950 . S
C173 C172 1.395 . S
C173 C174 1.288 . S
C174 C173 1.288 . S
C174 C175 1.392 . S
C175 H151 0.951 . S
C175 C174 1.392 . S
C175 C176 1.392 . S
C176 H152 0.949 . S
C176 C171 1.382 . S
C176 C175 1.392 . S
C177 C178 1.376 . S
C177 C182 1.386 . S
C177 C183 1.483 . S
C178 H153 0.949 . S
C178 C177 1.376 . S
C178 C179 1.397 . S
C179 H154 0.950 . S
C179 C178 1.397 . S
C179 C180 1.391 . S
C180 C179 1.391 . S
C180 C181 1.405 . S
C181 H155 0.950 . S
C181 C180 1.405 . S
C181 C182 1.367 . S
C182 H156 0.950 . S
C182 C177 1.386 . S
C182 C181 1.367 . S
C183 C177 1.483 . S
C183 C184 1.382 1_655 S
C183 C185 1.403 . S
C184 H157 0.950 . S
C184 C170 1.411 . S
C184 C183 1.382 1_455 S
C185 C169 1.411 . S
C185 C183 1.403 . S
C185 C186 1.489 . S
C186 C185 1.489 . S
C186 C187 1.383 . S
C186 C191 1.382 . S
C187 H158 0.950 . S
C187 C186 1.383 . S
C187 C188 1.395 . S
C188 H159 0.950 . S
C188 C187 1.395 . S
C188 C189 1.288 . S
C189 C188 1.288 . S
C189 C190 1.392 . S
C190 H160 0.951 . S
C190 C189 1.392 . S
C190 C191 1.392 . S
C191 H161 0.949 . S
C191 C186 1.382 . S
C191 C190 1.392 . S
H192 C211 0.949 . S
H193 C212 0.950 . S
H194 C214 0.950 . S
H195 C215 0.950 . S
H196 C217 0.950 . S
H197 C220 0.950 . S
H198 C221 0.950 . S
H199 C223 0.951 . S
H200 C224 0.949 . S
H201 C226 0.949 . S
H202 C227 0.950 . S
H203 C229 0.950 . S
H204 C230 0.950 . S
H205 C232 0.950 1_565 S
H206 C235 0.950 . S
H207 C236 0.950 . S
H208 C238 0.951 . S
H209 C239 0.949 . S
C210 C211 1.376 . S
C210 C215 1.386 1_554 S
C210 C216 1.483 1_554 S
C211 H192 0.949 . S
C211 C210 1.376 . S
C211 C212 1.397 . S
C212 H193 0.950 . S
C212 C211 1.397 . S
C212 C213 1.391 . S
C213 C212 1.391 . S
C213 C214 1.405 . S
C214 H194 0.950 . S
C214 C213 1.405 . S
C214 C215 1.367 1_554 S
C215 H195 0.950 . S
C215 C210 1.386 1_556 S
C215 C214 1.367 1_556 S
C216 C210 1.483 1_556 S
C216 C217 1.382 1_556 S
C216 C218 1.403 . S
C217 H196 0.950 . S
C217 C216 1.382 1_554 S
C217 C233 1.411 1_545 S
C218 C216 1.403 . S
C218 C219 1.489 . S
C218 C232 1.411 . S
C219 C218 1.489 . S
C219 C220 1.383 . S
C219 C224 1.382 . S
C220 H197 0.950 . S
C220 C219 1.383 . S
C220 C221 1.395 . S
C221 H198 0.950 . S
C221 C220 1.395 . S
C221 C222 1.288 . S
C222 C221 1.288 . S
C222 C223 1.392 . S
C223 H199 0.951 . S
C223 C222 1.392 . S
C223 C224 1.392 . S
C224 H200 0.949 . S
C224 C219 1.382 . S
C224 C223 1.392 . S
C225 C226 1.376 . S
C225 C230 1.386 . S
C225 C231 1.483 . S
C226 H201 0.949 . S
C226 C225 1.376 . S
C226 C227 1.397 . S
C227 H202 0.950 . S
C227 C226 1.397 . S
C227 C228 1.391 . S
C228 C227 1.391 . S
C228 C229 1.405 . S
C229 H203 0.950 . S
C229 C228 1.405 . S
C229 C230 1.367 . S
C230 H204 0.950 . S
C230 C225 1.386 . S
C230 C229 1.367 . S
C231 C225 1.483 . S
C231 C232 1.382 1_565 S
C231 C233 1.403 1_556 S
C232 H205 0.950 1_545 S
C232 C218 1.411 . S
C232 C231 1.382 1_545 S
C233 C217 1.411 1_565 S
C233 C231 1.403 1_554 S
C233 C234 1.489 . S
C234 C233 1.489 . S
C234 C235 1.383 . S
C234 C239 1.382 . S
C235 H206 0.950 . S
C235 C234 1.383 . S
C235 C236 1.395 . S
C236 H207 0.950 . S
C236 C235 1.395 . S
C236 C237 1.288 . S
C237 C236 1.288 . S
C237 C238 1.392 . S
C238 H208 0.951 . S
C238 C237 1.392 . S
C238 C239 1.392 . S
C239 H209 0.949 . S
C239 C234 1.382 . S
C239 C238 1.392 . S
H240 C259 0.949 . S
H241 C260 0.950 . S
H242 C262 0.950 . S
H243 C263 0.950 . S
H244 C265 0.950 . S
H245 C268 0.950 . S
H246 C269 0.950 . S
H247 C271 0.951 . S
H248 C272 0.949 . S
H249 C274 0.949 . S
H250 C275 0.950 . S
H251 C277 0.950 . S
H252 C278 0.950 . S
H253 C280 0.950 . S
H254 C283 0.950 . S
H255 C284 0.950 . S
H256 C286 0.951 . S
H257 C287 0.949 . S
C258 C259 1.376 . S
C258 C263 1.386 . S
C258 C264 1.483 . S
C259 H240 0.949 . S
C259 C258 1.376 . S
C259 C260 1.397 . S
C260 H241 0.950 . S
C260 C259 1.397 . S
C260 C261 1.391 . S
C261 C260 1.391 . S
C261 C262 1.405 . S
C262 H242 0.950 . S
C262 C261 1.405 . S
C262 C263 1.367 . S
C263 H243 0.950 . S
C263 C258 1.386 . S
C263 C262 1.367 . S
C264 C258 1.483 . S
C264 C265 1.382 . S
C264 C266 1.403 . S
C265 H244 0.950 . S
C265 C264 1.382 . S
C265 C281 1.411 . S
C266 C264 1.403 . S
C266 C267 1.489 . S
C266 C280 1.411 . S
C267 C266 1.489 . S
C267 C268 1.383 . S
C267 C272 1.382 . S
C268 H245 0.950 . S
C268 C267 1.383 . S
C268 C269 1.395 . S
C269 H246 0.950 . S
C269 C268 1.395 . S
C269 C270 1.288 . S
C270 C269 1.288 . S
C270 C271 1.392 . S
C271 H247 0.951 . S
C271 C270 1.392 . S
C271 C272 1.392 . S
C272 H248 0.949 . S
C272 C267 1.382 . S
C272 C271 1.392 . S
C273 C274 1.376 . S
C273 C278 1.386 . S
C273 C279 1.483 . S
C274 H249 0.949 . S
C274 C273 1.376 . S
C274 C275 1.397 . S
C275 H250 0.950 . S
C275 C274 1.397 . S
C275 C276 1.391 . S
C276 C275 1.391 . S
C276 C277 1.405 . S
C277 H251 0.950 . S
C277 C276 1.405 . S
C277 C278 1.367 . S
C278 H252 0.950 . S
C278 C273 1.386 . S
C278 C277 1.367 . S
C279 C273 1.483 . S
C279 C280 1.382 . S
C279 C281 1.403 . S
C280 H253 0.950 . S
C280 C266 1.411 . S
C280 C279 1.382 . S
C281 C265 1.411 . S
C281 C279 1.403 . S
C281 C282 1.489 . S
C282 C281 1.489 . S
C282 C283 1.383 . S
C282 C287 1.382 . S
C283 H254 0.950 . S
C283 C282 1.383 . S
C283 C284 1.395 . S
C284 H255 0.950 . S
C284 C283 1.395 . S
C284 C285 1.288 . S
C285 C284 1.288 . S
C285 C286 1.392 . S
C286 H256 0.951 . S
C286 C285 1.392 . S
C286 C287 1.392 . S
C287 H257 0.949 . S
C287 C282 1.382 . S
C287 C286 1.392 . S
C288 O289 1.160 . S
C288 O295 1.185 . S
O289 C288 1.160 . S
O290 Zn291 1.899 . S
O290 C298 1.284 . S
Zn291 O290 1.899 . S
Zn291 O292 2.032 . S
Zn291 O295 2.086 . S
Zn291 O300 1.977 . S
O292 Zn291 2.032 . S
O292 C296 1.278 . S
C293 O294 1.203 . S
C293 O300 1.267 . S
O294 C293 1.203 . S
O295 C288 1.185 . S
O295 Zn291 2.086 . S
C296 O292 1.278 . S
C296 O297 1.211 . S
O297 C296 1.211 . S
C298 O290 1.284 . S
C298 O299 1.273 . S
O299 C298 1.273 . S
O300 Zn291 1.977 . S
O300 C293 1.267 . S
C301 O302 1.160 . S
C301 O308 1.185 . S
O302 C301 1.160 . S
O303 Zn304 1.899 . S
O303 C311 1.284 . S
Zn304 O303 1.899 . S
Zn304 O305 2.032 . S
Zn304 O308 2.086 . S
Zn304 O313 1.977 . S
O305 Zn304 2.032 . S
O305 C309 1.278 . S
C306 O307 1.203 . S
C306 O313 1.267 . S
O307 C306 1.203 . S
O308 C301 1.185 . S
O308 Zn304 2.086 . S
C309 O305 1.278 . S
C309 O310 1.211 . S
O310 C309 1.211 . S
C311 O303 1.284 . S
C311 O312 1.273 . S
O312 C311 1.273 . S
O313 Zn304 1.977 . S
O313 C306 1.267 . S
C314 O315 1.160 . S
C314 O321 1.185 . S
O315 C314 1.160 . S
O316 Zn317 1.899 . S
O316 C324 1.284 . S
Zn317 O316 1.899 . S
Zn317 O318 2.032 . S
Zn317 O321 2.086 . S
Zn317 O326 1.977 . S
O318 Zn317 2.032 . S
O318 C322 1.278 . S
C319 O320 1.203 . S
C319 O326 1.267 . S
O320 C319 1.203 . S
O321 C314 1.185 . S
O321 Zn317 2.086 . S
C322 O318 1.278 . S
C322 O323 1.211 . S
O323 C322 1.211 . S
C324 O316 1.284 . S
C324 O325 1.273 . S
O325 C324 1.273 . S
O326 Zn317 1.977 . S
O326 C319 1.267 . S
C327 O328 1.160 . S
C327 O334 1.185 . S
O328 C327 1.160 . S
O329 Zn330 1.899 . S
O329 C337 1.284 . S
Zn330 O329 1.899 . S
Zn330 O331 2.032 . S
Zn330 O334 2.086 . S
Zn330 O339 1.977 . S
O331 Zn330 2.032 . S
O331 C335 1.278 . S
C332 O333 1.203 . S
C332 O339 1.267 . S
O333 C332 1.203 . S
O334 C327 1.185 . S
O334 Zn330 2.086 . S
C335 O331 1.278 . S
C335 O336 1.211 . S
O336 C335 1.211 . S
C337 O329 1.284 . S
C337 O338 1.273 . S
O338 C337 1.273 . S
O339 Zn330 1.977 . S
O339 C332 1.267 . S
C340 O341 1.160 . S
C340 O347 1.185 . S
O341 C340 1.160 . S
O342 Zn343 1.899 . S
O342 C350 1.284 . S
Zn343 O342 1.899 . S
Zn343 O344 2.032 . S
Zn343 O347 2.086 . S
Zn343 O352 1.977 . S
O344 Zn343 2.032 . S
O344 C348 1.278 . S
C345 O346 1.203 . S
C345 O352 1.267 . S
O346 C345 1.203 . S
O347 C340 1.185 . S
O347 Zn343 2.086 . S
C348 O344 1.278 . S
C348 O349 1.211 . S
O349 C348 1.211 . S
C350 O342 1.284 . S
C350 O351 1.273 . S
O351 C350 1.273 . S
O352 Zn343 1.977 . S
O352 C345 1.267 . S
C353 O354 1.160 . S
C353 O360 1.185 . S
O354 C353 1.160 . S
O355 Zn356 1.899 . S
O355 C363 1.284 . S
Zn356 O355 1.899 . S
Zn356 O357 2.032 . S
Zn356 O360 2.086 . S
Zn356 O365 1.977 . S
O357 Zn356 2.032 . S
O357 C361 1.278 . S
C358 O359 1.203 . S
C358 O365 1.267 . S
O359 C358 1.203 . S
O360 C353 1.185 . S
O360 Zn356 2.086 . S
C361 O357 1.278 . S
C361 O362 1.211 . S
O362 C361 1.211 . S
C363 O355 1.284 . S
C363 O364 1.273 . S
O364 C363 1.273 . S
O365 Zn356 1.977 . S
O365 C358 1.267 . S
H366 C372 0.930 . S
H367 C376 0.930 . S
H368 C381 0.929 . S
H369 C379 0.929 . S
H370 C374 0.929 . S
H371 C380 0.929 . S
C372 H366 0.930 . S
C372 C373 1.367 . S
C372 C380 1.378 . S
C373 C372 1.367 . S
C373 C381 1.433 . S
C374 H370 0.929 . S
C374 C376 1.378 . S
C374 C378 1.350 . S
C375 C378 1.463 . S
C375 C380 1.350 . S
C375 N383 1.427 . S
C376 H367 0.930 . S
C376 C374 1.378 . S
C376 C377 1.367 . S
C377 C376 1.367 . S
C377 C379 1.433 . S
C378 C374 1.350 . S
C378 C375 1.463 . S
C378 N382 1.427 . S
C379 H369 0.929 . S
C379 C377 1.433 . S
C379 N382 1.384 . S
C380 H371 0.929 . S
C380 C372 1.378 . S
C380 C375 1.350 . S
C381 H368 0.929 . S
C381 C373 1.433 . S
C381 N383 1.384 . S
N382 C378 1.427 . S
N382 C379 1.384 . S
N383 C375 1.427 . S
N383 C381 1.384 . S
H384 C390 0.930 . S
H385 C394 0.930 . S
H386 C399 0.929 . S
H387 C397 0.929 . S
H388 C392 0.929 . S
H389 C398 0.929 . S
C390 H384 0.930 . S
C390 C391 1.367 . S
C390 C398 1.378 . S
C391 C390 1.367 . S
C391 C399 1.433 . S
C392 H388 0.929 . S
C392 C394 1.378 . S
C392 C396 1.350 . S
C393 C396 1.463 . S
C393 C398 1.350 . S
C393 N401 1.427 . S
C394 H385 0.930 . S
C394 C392 1.378 . S
C394 C395 1.367 . S
C395 C394 1.367 . S
C395 C397 1.433 . S
C396 C392 1.350 . S
C396 C393 1.463 . S
C396 N400 1.427 . S
C397 H387 0.929 . S
C397 C395 1.433 . S
C397 N400 1.384 . S
C398 H389 0.929 . S
C398 C390 1.378 . S
C398 C393 1.350 . S
C399 H386 0.929 . S
C399 C391 1.433 . S
C399 N401 1.384 . S
N400 C396 1.427 . S
N400 C397 1.384 . S
N401 C393 1.427 . S
N401 C399 1.384 . S
H402 C408 0.930 . S
H403 C412 0.930 . S
H404 C417 0.929 . S
H405 C415 0.929 . S
H406 C410 0.929 . S
H407 C416 0.929 . S
C408 H402 0.930 . S
C408 C409 1.367 . S
C408 C416 1.378 . S
C409 C408 1.367 . S
C409 C417 1.433 . S
C410 H406 0.929 . S
C410 C412 1.378 . S
C410 C414 1.350 . S
C411 C414 1.463 . S
C411 C416 1.350 . S
C411 N419 1.427 . S
C412 H403 0.930 . S
C412 C410 1.378 . S
C412 C413 1.367 . S
C413 C412 1.367 . S
C413 C415 1.433 . S
C414 C410 1.350 . S
C414 C411 1.463 . S
C414 N418 1.427 . S
C415 H405 0.929 . S
C415 C413 1.433 . S
C415 N418 1.384 . S
C416 H407 0.929 . S
C416 C408 1.378 . S
C416 C411 1.350 . S
C417 H404 0.929 . S
C417 C409 1.433 . S
C417 N419 1.384 . S
N418 C414 1.427 . S
N418 C415 1.384 . S
N419 C411 1.427 . S
N419 C417 1.384 . S
H420 C426 0.930 . S
H421 C430 0.930 . S
H422 C435 0.929 . S
H423 C433 0.929 . S
H424 C428 0.929 . S
H425 C434 0.929 . S
C426 H420 0.930 . S
C426 C427 1.367 . S
C426 C434 1.378 . S
C427 C426 1.367 . S
C427 C435 1.433 . S
C428 H424 0.929 . S
C428 C430 1.378 . S
C428 C432 1.350 . S
C429 C432 1.463 . S
C429 C434 1.350 . S
C429 N437 1.427 . S
C430 H421 0.930 . S
C430 C428 1.378 . S
C430 C431 1.367 . S
C431 C430 1.367 . S
C431 C433 1.433 . S
C432 C428 1.350 . S
C432 C429 1.463 . S
C432 N436 1.427 . S
C433 H423 0.929 . S
C433 C431 1.433 . S
C433 N436 1.384 . S
C434 H425 0.929 . S
C434 C426 1.378 . S
C434 C429 1.350 . S
C435 H422 0.929 . S
C435 C427 1.433 . S
C435 N437 1.384 . S
N436 C432 1.427 . S
N436 C433 1.384 . S
N437 C429 1.427 . S
N437 C435 1.384 . S
H438 C444 0.930 . S
H439 C448 0.930 . S
H440 C453 0.929 . S
H441 C451 0.929 . S
H442 C446 0.929 . S
H443 C452 0.929 . S
C444 H438 0.930 . S
C444 C445 1.367 . S
C444 C452 1.378 . S
C445 C444 1.367 . S
C445 C453 1.433 . S
C446 H442 0.929 . S
C446 C448 1.378 . S
C446 C450 1.350 . S
C447 C450 1.463 . S
C447 C452 1.350 . S
C447 N455 1.427 . S
C448 H439 0.930 . S
C448 C446 1.378 . S
C448 C449 1.367 . S
C449 C448 1.367 . S
C449 C451 1.433 . S
C450 C446 1.350 . S
C450 C447 1.463 . S
C450 N454 1.427 . S
C451 H441 0.929 . S
C451 C449 1.433 . S
C451 N454 1.384 . S
C452 H443 0.929 . S
C452 C444 1.378 . S
C452 C447 1.350 . S
C453 H440 0.929 . S
C453 C445 1.433 . S
C453 N455 1.384 . S
N454 C450 1.427 . S
N454 C451 1.384 . S
N455 C447 1.427 . S
N455 C453 1.384 . S
H456 C462 0.930 . S
H457 C466 0.930 . S
H458 C471 0.929 . S
H459 C469 0.929 . S
H460 C464 0.929 . S
H461 C470 0.929 . S
C462 H456 0.930 . S
C462 C463 1.367 . S
C462 C470 1.378 . S
C463 C462 1.367 . S
C463 C471 1.433 . S
C464 H460 0.929 . S
C464 C466 1.378 . S
C464 C468 1.350 . S
C465 C468 1.463 . S
C465 C470 1.350 . S
C465 N473 1.427 . S
C466 H457 0.930 . S
C466 C464 1.378 . S
C466 C467 1.367 . S
C467 C466 1.367 . S
C467 C469 1.433 . S
C468 C464 1.350 . S
C468 C465 1.463 . S
C468 N472 1.427 . S
C469 H459 0.929 . S
C469 C467 1.433 . S
C469 N472 1.384 . S
C470 H461 0.929 . S
C470 C462 1.378 . S
C470 C465 1.350 . S
C471 H458 0.929 . S
C471 C463 1.433 . S
C471 N473 1.384 . S
N472 C468 1.427 . S
N472 C469 1.384 . S
N473 C465 1.427 . S
N473 C471 1.384 . S
H474 C480 0.930 . S
H475 C484 0.930 . S
H476 C489 0.929 . S
H477 C487 0.929 . S
H478 C482 0.929 . S
H479 C488 0.929 . S
C480 H474 0.930 . S
C480 C481 1.367 . S
C480 C488 1.378 . S
C481 C480 1.367 . S
C481 C489 1.433 . S
C482 H478 0.929 . S
C482 C484 1.378 . S
C482 C486 1.350 . S
C483 C486 1.463 . S
C483 C488 1.350 . S
C483 N491 1.427 . S
C484 H475 0.930 . S
C484 C482 1.378 . S
C484 C485 1.367 . S
C485 C484 1.367 . S
C485 C487 1.433 . S
C486 C482 1.350 . S
C486 C483 1.463 . S
C486 N490 1.427 . S
C487 H477 0.929 . S
C487 C485 1.433 . S
C487 N490 1.384 . S
C488 H479 0.929 . S
C488 C480 1.378 . S
C488 C483 1.350 . S
C489 H476 0.929 . S
C489 C481 1.433 . S
C489 N491 1.384 . S
N490 C486 1.427 . S
N490 C487 1.384 . S
N491 C483 1.427 . S
N491 C489 1.384 . S
H492 C498 0.930 . S
H493 C502 0.930 . S
H494 C507 0.929 . S
H495 C505 0.929 . S
H496 C500 0.929 . S
H497 C506 0.929 . S
C498 H492 0.930 . S
C498 C499 1.367 . S
C498 C506 1.378 . S
C499 C498 1.367 . S
C499 C507 1.433 . S
C500 H496 0.929 . S
C500 C502 1.378 . S
C500 C504 1.350 . S
C501 C504 1.463 . S
C501 C506 1.350 . S
C501 N509 1.427 . S
C502 H493 0.930 . S
C502 C500 1.378 . S
C502 C503 1.367 . S
C503 C502 1.367 . S
C503 C505 1.433 . S
C504 C500 1.350 . S
C504 C501 1.463 . S
C504 N508 1.427 . S
C505 H495 0.929 . S
C505 C503 1.433 . S
C505 N508 1.384 . S
C506 H497 0.929 . S
C506 C498 1.378 . S
C506 C501 1.350 . S
C507 H494 0.929 . S
C507 C499 1.433 . S
C507 N509 1.384 . S
N508 C504 1.427 . S
N508 C505 1.384 . S
N509 C501 1.427 . S
N509 C507 1.384 . S
H510 C516 0.930 . S
H511 C520 0.930 . S
H512 C525 0.929 . S
H513 C523 0.929 . S
H514 C518 0.929 . S
H515 C524 0.929 . S
C516 H510 0.930 . S
C516 C517 1.367 . S
C516 C524 1.378 . S
C517 C516 1.367 . S
C517 C525 1.433 . S
C518 H514 0.929 . S
C518 C520 1.378 . S
C518 C522 1.350 . S
C519 C522 1.463 . S
C519 C524 1.350 . S
C519 N527 1.427 . S
C520 H511 0.930 . S
C520 C518 1.378 . S
C520 C521 1.367 . S
C521 C520 1.367 . S
C521 C523 1.433 . S
C522 C518 1.350 . S
C522 C519 1.463 . S
C522 N526 1.427 . S
C523 H513 0.929 . S
C523 C521 1.433 . S
C523 N526 1.384 . S
C524 H515 0.929 . S
C524 C516 1.378 . S
C524 C519 1.350 . S
C525 H512 0.929 . S
C525 C517 1.433 . S
C525 N527 1.384 . S
N526 C522 1.427 . S
N526 C523 1.384 . S
N527 C519 1.427 . S
N527 C525 1.384 . S
H528 C534 0.930 . S
H529 C538 0.930 . S
H530 C543 0.929 . S
H531 C541 0.929 . S
H532 C536 0.929 . S
H533 C542 0.929 . S
C534 H528 0.930 . S
C534 C535 1.367 . S
C534 C542 1.378 . S
C535 C534 1.367 . S
C535 C543 1.433 . S
C536 H532 0.929 . S
C536 C538 1.378 . S
C536 C540 1.350 . S
C537 C540 1.463 . S
C537 C542 1.350 . S
C537 N545 1.427 . S
C538 H529 0.930 . S
C538 C536 1.378 . S
C538 C539 1.367 . S
C539 C538 1.367 . S
C539 C541 1.433 . S
C540 C536 1.350 . S
C540 C537 1.463 . S
C540 N544 1.427 . S
C541 H531 0.929 . S
C541 C539 1.433 . S
C541 N544 1.384 . S
C542 H533 0.929 . S
C542 C534 1.378 . S
C542 C537 1.350 . S
C543 H530 0.929 . S
C543 C535 1.433 . S
C543 N545 1.384 . S
N544 C540 1.427 . S
N544 C541 1.384 . S
N545 C537 1.427 . S
N545 C543 1.384 . S
H546 C552 0.930 . S
H547 C556 0.930 . S
H548 C561 0.929 . S
H549 C559 0.929 . S
H550 C554 0.929 . S
H551 C560 0.929 . S
C552 H546 0.930 . S
C552 C553 1.367 . S
C552 C560 1.378 . S
C553 C552 1.367 . S
C553 C561 1.433 . S
C554 H550 0.929 . S
C554 C556 1.378 . S
C554 C558 1.350 . S
C555 C558 1.463 . S
C555 C560 1.350 . S
C555 N563 1.427 . S
C556 H547 0.930 . S
C556 C554 1.378 . S
C556 C557 1.367 . S
C557 C556 1.367 . S
C557 C559 1.433 . S
C558 C554 1.350 . S
C558 C555 1.463 . S
C558 N562 1.427 . S
C559 H549 0.929 . S
C559 C557 1.433 . S
C559 N562 1.384 . S
C560 H551 0.929 . S
C560 C552 1.378 . S
C560 C555 1.350 . S
C561 H548 0.929 . S
C561 C553 1.433 . S
C561 N563 1.384 . S
N562 C558 1.427 . S
N562 C559 1.384 . S
N563 C555 1.427 . S
N563 C561 1.384 . S
H564 C570 0.930 . S
H565 C574 0.930 . S
H566 C579 0.929 . S
H567 C577 0.929 . S
H568 C572 0.929 . S
H569 C578 0.929 . S
C570 H564 0.930 . S
C570 C571 1.367 . S
C570 C578 1.378 . S
C571 C570 1.367 . S
C571 C579 1.433 . S
C572 H568 0.929 . S
C572 C574 1.378 . S
C572 C576 1.350 . S
C573 C576 1.463 . S
C573 C578 1.350 . S
C573 N581 1.427 . S
C574 H565 0.930 . S
C574 C572 1.378 . S
C574 C575 1.367 . S
C575 C574 1.367 . S
C575 C577 1.433 . S
C576 C572 1.350 . S
C576 C573 1.463 . S
C576 N580 1.427 . S
C577 H567 0.929 . S
C577 C575 1.433 . S
C577 N580 1.384 . S
C578 H569 0.929 . S
C578 C570 1.378 . S
C578 C573 1.350 . S
C579 H566 0.929 . S
C579 C571 1.433 . S
C579 N581 1.384 . S
N580 C576 1.427 . S
N580 C577 1.384 . S
N581 C573 1.427 . S
N581 C579 1.384 . S
H582 C588 0.930 . S
H583 C592 0.930 . S
H584 C597 0.929 . S
H585 C595 0.929 . S
H586 C590 0.929 . S
H587 C596 0.929 . S
C588 H582 0.930 . S
C588 C589 1.367 . S
C588 C596 1.378 . S
C589 C588 1.367 . S
C589 C597 1.433 . S
C590 H586 0.929 . S
C590 C592 1.378 . S
C590 C594 1.350 . S
C591 C594 1.463 . S
C591 C596 1.350 . S
C591 N599 1.427 . S
C592 H583 0.930 . S
C592 C590 1.378 . S
C592 C593 1.367 . S
C593 C592 1.367 . S
C593 C595 1.433 . S
C594 C590 1.350 . S
C594 C591 1.463 . S
C594 N598 1.427 . S
C595 H585 0.929 . S
C595 C593 1.433 . S
C595 N598 1.384 . S
C596 H587 0.929 . S
C596 C588 1.378 . S
C596 C591 1.350 . S
C597 H584 0.929 . S
C597 C589 1.433 . S
C597 N599 1.384 . S
N598 C594 1.427 . S
N598 C595 1.384 . S
N599 C591 1.427 . S
N599 C597 1.384 . S
H600 C606 0.930 . S
H601 C610 0.930 . S
H602 C615 0.929 . S
H603 C613 0.929 . S
H604 C608 0.929 . S
H605 C614 0.929 . S
C606 H600 0.930 . S
C606 C607 1.367 . S
C606 C614 1.378 . S
C607 C606 1.367 . S
C607 C615 1.433 . S
C608 H604 0.929 . S
C608 C610 1.378 . S
C608 C612 1.350 . S
C609 C612 1.463 . S
C609 C614 1.350 . S
C609 N617 1.427 . S
C610 H601 0.930 . S
C610 C608 1.378 . S
C610 C611 1.367 . S
C611 C610 1.367 . S
C611 C613 1.433 . S
C612 C608 1.350 . S
C612 C609 1.463 . S
C612 N616 1.427 . S
C613 H603 0.929 . S
C613 C611 1.433 . S
C613 N616 1.384 . S
C614 H605 0.929 . S
C614 C606 1.378 . S
C614 C609 1.350 . S
C615 H602 0.929 . S
C615 C607 1.433 . S
C615 N617 1.384 . S
N616 C612 1.427 . S
N616 C613 1.384 . S
N617 C609 1.427 . S
N617 C615 1.384 . S
H618 C624 0.930 . S
H619 C628 0.930 . S
H620 C633 0.929 . S
H621 C631 0.929 . S
H622 C626 0.929 . S
H623 C632 0.929 . S
C624 H618 0.930 . S
C624 C625 1.367 . S
C624 C632 1.378 . S
C625 C624 1.367 . S
C625 C633 1.433 . S
C626 H622 0.929 . S
C626 C628 1.378 . S
C626 C630 1.350 . S
C627 C630 1.463 . S
C627 C632 1.350 . S
C627 N635 1.427 . S
C628 H619 0.930 . S
C628 C626 1.378 . S
C628 C629 1.367 . S
C629 C628 1.367 . S
C629 C631 1.433 . S
C630 C626 1.350 . S
C630 C627 1.463 . S
C630 N634 1.427 . S
C631 H621 0.929 . S
C631 C629 1.433 . S
C631 N634 1.384 . S
C632 H623 0.929 . S
C632 C624 1.378 . S
C632 C627 1.350 . S
C633 H620 0.929 . S
C633 C625 1.433 . S
C633 N635 1.384 . S
N634 C630 1.427 . S
N634 C631 1.384 . S
N635 C627 1.427 . S
N635 C633 1.384 . S
H636 C642 0.930 . S
H637 C646 0.930 . S
H638 C651 0.929 . S
H639 C649 0.929 . S
H640 C644 0.929 . S
H641 C650 0.929 . S
C642 H636 0.930 . S
C642 C643 1.367 . S
C642 C650 1.378 . S
C643 C642 1.367 . S
C643 C651 1.433 . S
C644 H640 0.929 . S
C644 C646 1.378 . S
C644 C648 1.350 . S
C645 C648 1.463 . S
C645 C650 1.350 . S
C645 N653 1.427 . S
C646 H637 0.930 . S
C646 C644 1.378 . S
C646 C647 1.367 1_556 S
C647 C646 1.367 1_554 S
C647 C649 1.433 . S
C648 C644 1.350 . S
C648 C645 1.463 . S
C648 N652 1.427 . S
C649 H639 0.929 . S
C649 C647 1.433 . S
C649 N652 1.384 1_554 S
C650 H641 0.929 . S
C650 C642 1.378 . S
C650 C645 1.350 . S
C651 H638 0.929 . S
C651 C643 1.433 . S
C651 N653 1.384 . S
N652 C648 1.427 . S
N652 C649 1.384 1_556 S
N653 C645 1.427 . S
N653 C651 1.384 . S
H654 C660 0.930 . S
H655 C664 0.930 . S
H656 C669 0.929 . S
H657 C667 0.929 . S
H658 C662 0.929 . S
H659 C668 0.929 . S
C660 H654 0.930 . S
C660 C661 1.367 . S
C660 C668 1.378 . S
C661 C660 1.367 . S
C661 C669 1.433 . S
C662 H658 0.929 . S
C662 C664 1.378 . S
C662 C666 1.350 . S
C663 C666 1.463 . S
C663 C668 1.350 . S
C663 N671 1.427 . S
C664 H655 0.930 . S
C664 C662 1.378 . S
C664 C665 1.367 . S
C665 C664 1.367 . S
C665 C667 1.433 . S
C666 C662 1.350 . S
C666 C663 1.463 . S
C666 N670 1.427 . S
C667 H657 0.929 . S
C667 C665 1.433 . S
C667 N670 1.384 . S
C668 H659 0.929 . S
C668 C660 1.378 . S
C668 C663 1.350 . S
C669 H656 0.929 . S
C669 C661 1.433 . S
C669 N671 1.384 . S
N670 C666 1.427 . S
N670 C667 1.384 . S
N671 C663 1.427 . S
N671 C669 1.384 . S
H672 C678 0.930 . S
H673 C682 0.930 . S
H674 C687 0.929 . S
H675 C685 0.929 . S
H676 C680 0.929 . S
H677 C686 0.929 . S
C678 H672 0.930 . S
C678 C679 1.367 . S
C678 C686 1.378 . S
C679 C678 1.367 . S
C679 C687 1.433 . S
C680 H676 0.929 . S
C680 C682 1.378 . S
C680 C684 1.350 . S
C681 C684 1.463 . S
C681 C686 1.350 . S
C681 N689 1.427 . S
C682 H673 0.930 . S
C682 C680 1.378 . S
C682 C683 1.367 . S
C683 C682 1.367 . S
C683 C685 1.433 . S
C684 C680 1.350 . S
C684 C681 1.463 . S
C684 N688 1.427 . S
C685 H675 0.929 . S
C685 C683 1.433 . S
C685 N688 1.384 . S
C686 H677 0.929 . S
C686 C678 1.378 . S
C686 C681 1.350 . S
C687 H674 0.929 . S
C687 C679 1.433 . S
C687 N689 1.384 . S
N688 C684 1.427 . S
N688 C685 1.384 . S
N689 C681 1.427 . S
N689 C687 1.384 . S
H690 C696 0.930 . S
H691 C700 0.930 . S
H692 C705 0.929 . S
H693 C703 0.929 . S
H694 C698 0.929 . S
H695 C704 0.929 . S
C696 H690 0.930 . S
C696 C697 1.367 . S
C696 C704 1.378 . S
C697 C696 1.367 . S
C697 C705 1.433 . S
C698 H694 0.929 . S
C698 C700 1.378 . S
C698 C702 1.350 . S
C699 C702 1.463 . S
C699 C704 1.350 . S
C699 N707 1.427 . S
C700 H691 0.930 . S
C700 C698 1.378 . S
C700 C701 1.367 . S
C701 C700 1.367 . S
C701 C703 1.433 . S
C702 C698 1.350 . S
C702 C699 1.463 . S
C702 N706 1.427 . S
C703 H693 0.929 . S
C703 C701 1.433 . S
C703 N706 1.384 . S
C704 H695 0.929 . S
C704 C696 1.378 . S
C704 C699 1.350 . S
C705 H692 0.929 . S
C705 C697 1.433 . S
C705 N707 1.384 . S
N706 C702 1.427 . S
N706 C703 1.384 . S
N707 C699 1.427 . S
N707 C705 1.384 . S
H708 C714 0.930 . S
H709 C718 0.930 . S
H710 C723 0.929 . S
H711 C721 0.929 . S
H712 C716 0.929 . S
H713 C722 0.929 . S
C714 H708 0.930 . S
C714 C715 1.367 . S
C714 C722 1.378 . S
C715 C714 1.367 . S
C715 C723 1.433 . S
C716 H712 0.929 . S
C716 C718 1.378 . S
C716 C720 1.350 . S
C717 C720 1.463 . S
C717 C722 1.350 . S
C717 N725 1.427 . S
C718 H709 0.930 . S
C718 C716 1.378 . S
C718 C719 1.367 . S
C719 C718 1.367 . S
C719 C721 1.433 . S
C720 C716 1.350 . S
C720 C717 1.463 . S
C720 N724 1.427 . S
C721 H711 0.929 . S
C721 C719 1.433 . S
C721 N724 1.384 . S
C722 H713 0.929 . S
C722 C714 1.378 . S
C722 C717 1.350 . S
C723 H710 0.929 . S
C723 C715 1.433 . S
C723 N725 1.384 . S
N724 C720 1.427 . S
N724 C721 1.384 . S
N725 C717 1.427 . S
N725 C723 1.384 . S
H726 C732 0.930 . S
H727 C736 0.930 . S
H728 C741 0.929 . S
H729 C739 0.929 . S
H730 C734 0.929 . S
H731 C740 0.929 . S
C732 H726 0.930 . S
C732 C733 1.367 . S
C732 C740 1.378 . S
C733 C732 1.367 . S
C733 C741 1.433 . S
C734 H730 0.929 . S
C734 C736 1.378 . S
C734 C738 1.350 . S
C735 C738 1.463 . S
C735 C740 1.350 . S
C735 N743 1.427 . S
C736 H727 0.930 . S
C736 C734 1.378 . S
C736 C737 1.367 . S
C737 C736 1.367 . S
C737 C739 1.433 . S
C738 C734 1.350 . S
C738 C735 1.463 . S
C738 N742 1.427 . S
C739 H729 0.929 . S
C739 C737 1.433 . S
C739 N742 1.384 . S
C740 H731 0.929 . S
C740 C732 1.378 . S
C740 C735 1.350 . S
C741 H728 0.929 . S
C741 C733 1.433 . S
C741 N743 1.384 . S
N742 C738 1.427 . S
N742 C739 1.384 . S
N743 C735 1.427 . S
N743 C741 1.384 . S
H744 C750 0.930 . S
H745 C754 0.930 . S
H746 C759 0.929 . S
H747 C757 0.929 . S
H748 C752 0.929 . S
H749 C758 0.929 . S
C750 H744 0.930 . S
C750 C751 1.367 . S
C750 C758 1.378 . S
C751 C750 1.367 . S
C751 C759 1.433 . S
C752 H748 0.929 . S
C752 C754 1.378 . S
C752 C756 1.350 . S
C753 C756 1.463 . S
C753 C758 1.350 . S
C753 N761 1.427 . S
C754 H745 0.930 . S
C754 C752 1.378 . S
C754 C755 1.367 . S
C755 C754 1.367 . S
C755 C757 1.433 . S
C756 C752 1.350 . S
C756 C753 1.463 . S
C756 N760 1.427 . S
C757 H747 0.929 . S
C757 C755 1.433 . S
C757 N760 1.384 . S
C758 H749 0.929 . S
C758 C750 1.378 . S
C758 C753 1.350 . S
C759 H746 0.929 . S
C759 C751 1.433 . S
C759 N761 1.384 . S
N760 C756 1.427 . S
N760 C757 1.384 . S
N761 C753 1.427 . S
N761 C759 1.384 . S
H762 C768 0.930 . S
H763 C772 0.930 . S
H764 C777 0.929 . S
H765 C775 0.929 . S
H766 C770 0.929 . S
H767 C776 0.929 . S
C768 H762 0.930 . S
C768 C769 1.367 . S
C768 C776 1.378 . S
C769 C768 1.367 . S
C769 C777 1.433 . S
C770 H766 0.929 . S
C770 C772 1.378 . S
C770 C774 1.350 . S
C771 C774 1.463 1_554 S
C771 C776 1.350 . S
C771 N779 1.427 . S
C772 H763 0.930 . S
C772 C770 1.378 . S
C772 C773 1.367 . S
C773 C772 1.367 . S
C773 C775 1.433 . S
C774 C770 1.350 . S
C774 C771 1.463 1_556 S
C774 N778 1.427 . S
C775 H765 0.929 . S
C775 C773 1.433 . S
C775 N778 1.384 . S
C776 H767 0.929 . S
C776 C768 1.378 . S
C776 C771 1.350 . S
C777 H764 0.929 . S
C777 C769 1.433 . S
C777 N779 1.384 . S
N778 C774 1.427 . S
N778 C775 1.384 . S
N779 C771 1.427 . S
N779 C777 1.384 . S
H780 C786 0.930 . S
H781 C790 0.930 . S
H782 C795 0.929 . S
H783 C793 0.929 . S
H784 C788 0.929 . S
H785 C794 0.929 . S
C786 H780 0.930 . S
C786 C787 1.367 . S
C786 C794 1.378 . S
C787 C786 1.367 . S
C787 C795 1.433 . S
C788 H784 0.929 . S
C788 C790 1.378 . S
C788 C792 1.350 . S
C789 C792 1.463 . S
C789 C794 1.350 . S
C789 N797 1.427 . S
C790 H781 0.930 . S
C790 C788 1.378 . S
C790 C791 1.367 . S
C791 C790 1.367 . S
C791 C793 1.433 . S
C792 C788 1.350 . S
C792 C789 1.463 . S
C792 N796 1.427 . S
C793 H783 0.929 . S
C793 C791 1.433 . S
C793 N796 1.384 . S
C794 H785 0.929 . S
C794 C786 1.378 . S
C794 C789 1.350 . S
C795 H782 0.929 . S
C795 C787 1.433 . S
C795 N797 1.384 . S
N796 C792 1.427 . S
N796 C793 1.384 . S
N797 C789 1.427 . S
N797 C795 1.384 . S
C377 C363 1.598 . S
C373 C45 1.597 . S
C391 C84 1.566 . S
C395 C288 1.504 . S
C409 C126 1.566 . S
C413 C311 1.624 . S
C427 C189 1.464 . S
C431 C324 1.461 . S
C449 C327 1.548 . S
C445 C228 1.607 . S
C463 C270 1.473 . S
C467 C340 1.452 . S
C481 C69 1.480 . S
C485 C301 1.437 . S
C499 C141 1.613 . S
C503 C314 1.544 . S
C517 C174 1.433 . S
C521 C337 1.466 . S
C539 C350 1.627 . S
C535 C213 1.597 . S
C557 C353 1.507 . S
C553 C285 1.575 . S
C575 C298 1.602 . S
C571 C30 1.561 . S
C589 C36 1.484 . S
C593 C309 1.446 . S
C607 C93 1.457 . S
C611 C322 1.430 . S
C629 C332 1.458 . S
C625 C117 1.495 . S
C643 C180 1.475 . S
C647 C345 1.423 . S
C665 C361 1.457 . S
C661 C237 1.502 . S
C683 C293 1.415 . S
C679 C261 1.455 . S
C701 C358 1.420 . S
C697 C78 1.453 . S
C715 C132 1.508 . S
C719 C296 1.471 . S
C737 C306 1.430 . S
C733 C165 1.470 . S
C751 C222 1.490 . S
C755 C319 1.455 . S
C769 C276 1.461 . S
C773 C335 1.424 . S
C787 C21 1.476 . S
C791 C348 1.438 . S
