# Generated by pormake.
# Topology hwx, (6,3)-cn, num edge types: 1
# Building blocks:
#     Node 0, Type 0, BuildingBlock: IZENUY_clean_sbu_0, # of connection points: 6
#     Node 1, Type 0, BuildingBlock: IZENUY_clean_sbu_0, # of connection points: 6
#     Node 2, Type 0, BuildingBlock: IZENUY_clean_sbu_0, # of connection points: 6
#     Node 3, Type 0, BuildingBlock: IZENUY_clean_sbu_0, # of connection points: 6
#     Node 4, Type 1, BuildingBlock: CUQRIR_clean_linker_1, # of connection points: 3
#     Node 5, Type 1, BuildingBlock: CUQRIR_clean_linker_1, # of connection points: 3
#     Node 6, Type 1, BuildingBlock: CUQRIR_clean_linker_1, # of connection points: 3
#     Node 7, Type 1, BuildingBlock: CUQRIR_clean_linker_1, # of connection points: 3
#     Node 8, Type 1, BuildingBlock: CUQRIR_clean_linker_1, # of connection points: 3
#     Node 9, Type 1, BuildingBlock: CUQRIR_clean_linker_1, # of connection points: 3
#     Node 10, Type 1, BuildingBlock: CUQRIR_clean_linker_1, # of connection points: 3
#     Node 11, Type 1, BuildingBlock: CUQRIR_clean_linker_1, # of connection points: 3
#     Edge 12, Type (0, 1), BuildingBlock: CIFDUS_clean_linker_0, # of connection points: 2
#     Edge 13, Type (0, 1), BuildingBlock: CIFDUS_clean_linker_0, # of connection points: 2
#     Edge 14, Type (0, 1), BuildingBlock: CIFDUS_clean_linker_0, # of connection points: 2
#     Edge 15, Type (0, 1), BuildingBlock: CIFDUS_clean_linker_0, # of connection points: 2
#     Edge 16, Type (0, 1), BuildingBlock: CIFDUS_clean_linker_0, # of connection points: 2
#     Edge 17, Type (0, 1), BuildingBlock: CIFDUS_clean_linker_0, # of connection points: 2
#     Edge 18, Type (0, 1), BuildingBlock: CIFDUS_clean_linker_0, # of connection points: 2
#     Edge 19, Type (0, 1), BuildingBlock: CIFDUS_clean_linker_0, # of connection points: 2
#     Edge 20, Type (0, 1), BuildingBlock: CIFDUS_clean_linker_0, # of connection points: 2
#     Edge 21, Type (0, 1), BuildingBlock: CIFDUS_clean_linker_0, # of connection points: 2
#     Edge 22, Type (0, 1), BuildingBlock: CIFDUS_clean_linker_0, # of connection points: 2
#     Edge 23, Type (0, 1), BuildingBlock: CIFDUS_clean_linker_0, # of connection points: 2
#     Edge 24, Type (0, 1), BuildingBlock: CIFDUS_clean_linker_0, # of connection points: 2
#     Edge 25, Type (0, 1), BuildingBlock: CIFDUS_clean_linker_0, # of connection points: 2
#     Edge 26, Type (0, 1), BuildingBlock: CIFDUS_clean_linker_0, # of connection points: 2
#     Edge 27, Type (0, 1), BuildingBlock: CIFDUS_clean_linker_0, # of connection points: 2
#     Edge 28, Type (0, 1), BuildingBlock: CIFDUS_clean_linker_0, # of connection points: 2
#     Edge 29, Type (0, 1), BuildingBlock: CIFDUS_clean_linker_0, # of connection points: 2
#     Edge 30, Type (0, 1), BuildingBlock: CIFDUS_clean_linker_0, # of connection points: 2
#     Edge 31, Type (0, 1), BuildingBlock: CIFDUS_clean_linker_0, # of connection points: 2
#     Edge 32, Type (0, 1), BuildingBlock: CIFDUS_clean_linker_0, # of connection points: 2
#     Edge 33, Type (0, 1), BuildingBlock: CIFDUS_clean_linker_0, # of connection points: 2
#     Edge 34, Type (0, 1), BuildingBlock: CIFDUS_clean_linker_0, # of connection points: 2
#     Edge 35, Type (0, 1), BuildingBlock: CIFDUS_clean_linker_0, # of connection points: 2
# Relax obj value: 0.001
# Max RMSD: 0.071
# Mean RMSD: 0.052
data_MOF--net-hwx--node1-IZENUY_clean_sbu_0--node2-CUQRIR_clean_linker_1--edge1-CIFDUS_clean_linker_0
_symmetry_space_group_name_H-M    P1
_symmetry_Int_Tables_number       1
_symmetry_cell_setting            triclinic
loop_
_symmetry_equiv_pos_as_xyz
'x, y, z'
_cell_length_a     41.4408
_cell_length_b     41.480176
_cell_length_c     16.326625
_cell_angle_alpha  89.71953
_cell_angle_beta   90.601966
_cell_angle_gamma 89.916338
loop_
_atom_site_label
_atom_site_type_symbol
_atom_site_fract_x
_atom_site_fract_y
_atom_site_fract_z
_atom_type_partial_charge
Fe0 Fe 0.25359 0.25796 0.11751 0.0
Fe1 Fe 0.25386 0.25467 0.92972 0.0
O2 O 0.23696 0.24298 0.02477 0.0
Fe3 Fe 0.2034 0.21666 0.02779 0.0
O4 O 0.17904 0.24637 0.0804 0.0
O5 O 0.21558 0.2575 0.17412 0.0
O6 O 0.24417 0.29925 0.08716 0.0
C7 C 0.25363 0.31231 0.02154 0.0
C8 C 0.24332 0.19519 0.1604 0.0
O9 O 0.26505 0.29535 0.96423 0.0
C10 C 0.23791 0.18852 0.9054 0.0
O11 O 0.29494 0.26085 0.07958 0.0
O12 O 0.29296 0.23825 0.95825 0.0
O13 O 0.21589 0.1968 0.12501 0.0
O14 O 0.26368 0.21756 0.1523 0.0
C15 C 0.18976 0.25673 0.88884 0.0
O16 O 0.24542 0.21616 0.87826 0.0
O17 O 0.22512 0.18527 0.97478 0.0
C18 C 0.30847 0.24597 0.02193 0.0
O19 O 0.21604 0.27191 0.8938 0.0
O20 O 0.18519 0.23148 0.9313 0.0
C21 C 0.18676 0.2584 0.14845 0.0
Fe22 Fe 0.26624 0.75303 0.59942 0.0
Fe23 Fe 0.30804 0.70642 0.49956 0.0
O24 O 0.28039 0.73894 0.50378 0.0
Fe25 Fe 0.26653 0.75734 0.41168 0.0
O26 O 0.28342 0.79565 0.44171 0.0
O27 O 0.26287 0.79569 0.56546 0.0
O28 O 0.30701 0.76236 0.63508 0.0
C29 C 0.32993 0.74222 0.63835 0.0
C30 C 0.21035 0.756 0.50874 0.0
O31 O 0.32902 0.71674 0.59576 0.0
C32 C 0.26482 0.69421 0.36726 0.0
O33 O 0.26731 0.7131 0.65039 0.0
O34 O 0.28063 0.6797 0.55214 0.0
O35 O 0.22646 0.76816 0.45089 0.0
O36 O 0.22449 0.74431 0.57093 0.0
C37 C 0.33247 0.74425 0.37843 0.0
O38 O 0.29192 0.69023 0.40259 0.0
O39 O 0.24888 0.71984 0.37631 0.0
C40 C 0.26924 0.68469 0.62226 0.0
O41 O 0.33765 0.73058 0.44643 0.0
O42 O 0.30394 0.75033 0.3544 0.0
C43 C 0.27594 0.81049 0.50596 0.0
Fe44 Fe 0.76593 0.76439 0.92273 0.0
Fe45 Fe 0.76095 0.76686 0.10958 0.0
O46 O 0.77773 0.78177 0.01744 0.0
Fe47 Fe 0.80593 0.81378 0.02103 0.0
O48 O 0.79227 0.83231 0.92378 0.0
O49 O 0.7511 0.80265 0.88318 0.0
O50 O 0.72418 0.756 0.95522 0.0
C51 C 0.7074 0.769 1.01082 0.0
C52 C 0.83298 0.77722 0.90028 0.0
O53 O 0.72059 0.77889 0.07623 0.0
C54 C 0.82419 0.77314 0.15551 0.0
O55 O 0.78019 0.72471 0.95526 0.0
O56 O 0.75502 0.72564 0.0724 0.0
O57 O 0.83648 0.79035 0.96936 0.0
O58 O 0.80516 0.77015 0.87295 0.0
C59 C 0.76492 0.83357 0.14023 0.0
O60 O 0.80044 0.7543 0.14691 0.0
O61 O 0.8247 0.80035 0.11911 0.0
C62 C 0.76974 0.7102 0.01763 0.0
O63 O 0.76376 0.8049 0.16595 0.0
O64 O 0.77752 0.84013 0.07237 0.0
C65 C 0.76732 0.82835 0.87915 0.0
Fe66 Fe 0.70803 0.31494 0.50136 0.0
Fe67 Fe 0.75039 0.26724 0.59799 0.0
O68 O 0.73734 0.28388 0.50319 0.0
Fe69 Fe 0.75392 0.26947 0.41077 0.0
O70 O 0.75126 0.30852 0.35568 0.0
O71 O 0.73493 0.34233 0.44975 0.0
O72 O 0.72179 0.33333 0.59859 0.0
C73 C 0.74873 0.33102 0.63587 0.0
C74 C 0.69048 0.27544 0.36608 0.0
O75 O 0.76562 0.30586 0.63117 0.0
C76 C 0.74578 0.21279 0.50729 0.0
O77 O 0.67893 0.28983 0.55299 0.0
O78 O 0.71179 0.27326 0.65063 0.0
O79 O 0.71461 0.25708 0.37352 0.0
O80 O 0.68922 0.30209 0.40378 0.0
C81 C 0.80792 0.27048 0.50715 0.0
O82 O 0.73621 0.22761 0.56973 0.0
O83 O 0.75926 0.22771 0.44882 0.0
C84 C 0.68346 0.27753 0.62286 0.0
O85 O 0.79139 0.25808 0.56383 0.0
O86 O 0.79444 0.281 0.44273 0.0
C87 C 0.74762 0.33713 0.38131 0.0
C88 C 0.22811 0.52121 0.94788 0.0
N89 N 0.23273 0.55282 0.96613 0.0
N90 N 0.22923 0.50276 0.01678 0.0
C91 C 0.22021 0.50846 0.86399 0.0
C92 C 0.23456 0.52424 0.07758 0.0
N93 N 0.23636 0.55453 0.04702 0.0
C94 C 0.24063 0.51538 0.16599 0.0
H95 H 0.20493 0.48658 0.86835 0.0
H96 H 0.2429 0.50178 0.83286 0.0
H97 H 0.20748 0.52696 0.82639 0.0
H98 H 0.25287 0.49164 0.17108 0.0
H99 H 0.21713 0.51374 0.19767 0.0
H100 H 0.25554 0.53379 0.19762 0.0
C101 C 0.998 0.74501 0.58714 0.0
N102 N 0.96721 0.75059 0.56125 0.0
N103 N 0.01846 0.7444 0.52273 0.0
C104 C 1.00823 0.74136 0.67558 0.0
C105 C 0.99891 0.74959 0.4568 0.0
N106 N 0.96781 0.75305 0.48 0.0
C107 C 1.01025 0.75196 0.36986 0.0
H108 H 0.0135 0.76557 0.70096 0.0
H109 H 0.03031 0.72662 0.68283 0.0
H110 H 0.98876 0.73016 0.7121 0.0
H111 H 0.99152 0.74292 0.32674 0.0
H112 H 0.03292 0.73815 0.36153 0.0
H113 H 0.01488 0.77765 0.35492 0.0
C114 C 0.79219 0.50016 0.06072 0.0
N115 N 0.78534 0.4693 0.0394 0.0
N116 N 0.79117 0.51987 0.99416 0.0
C117 C 0.80207 0.51085 0.14523 0.0
C118 C 0.78357 0.49992 0.93152 0.0
N119 N 0.7803 0.46929 0.95886 0.0
C120 C 0.77679 0.51073 0.84487 0.0
H121 H 0.78029 0.51803 0.17964 0.0
H122 H 0.81842 0.53198 0.14192 0.0
H123 H 0.81436 0.49101 0.17915 0.0
H124 H 0.76537 0.53494 0.8439 0.0
H125 H 0.76084 0.49351 0.81213 0.0
H126 H 0.79994 0.51227 0.81157 0.0
C127 C 0.0207 0.2825 0.44782 0.0
N128 N 0.05074 0.27813 0.48006 0.0
N129 N 0.99878 0.28612 0.50801 0.0
C130 C 0.012 0.27875 0.3585 0.0
C131 C 0.0164 0.28335 0.57796 0.0
N132 N 0.0479 0.2783 0.5612 0.0
C133 C 1.00303 0.28638 0.6629 0.0
H134 H 0.0127 0.30274 0.32826 0.0
H135 H 0.98731 0.26883 0.35087 0.0
H136 H 0.02918 0.2625 0.32728 0.0
H137 H 0.99668 0.26206 0.68623 0.0
H138 H 0.98099 0.30161 0.66262 0.0
H139 H 0.02129 0.29691 0.70511 0.0
C140 C 0.74504 1.00377 0.57491 0.0
N141 N 0.75011 0.97234 0.55684 0.0
N142 N 0.7417 0.02162 0.50565 0.0
C143 C 0.74208 0.01678 0.66036 0.0
C144 C 0.74502 0.99991 0.44459 0.0
N145 N 0.74971 0.96979 0.47555 0.0
C146 C 0.74799 1.00894 0.35545 0.0
H147 H 0.72625 0.03837 0.66108 0.0
H148 H 0.76635 0.02374 0.68336 0.0
H149 H 0.73222 0.99817 0.70223 0.0
H150 H 0.75753 0.03376 0.34845 0.0
H151 H 0.72378 1.00802 0.32592 0.0
H152 H 0.76425 0.99209 0.32314 0.0
C153 C 0.5211 0.2385 0.93568 0.0
N154 N 0.55146 0.24487 0.96235 0.0
N155 N 0.49921 0.2454 0.99418 0.0
C156 C 0.51305 0.22365 0.85403 0.0
C157 C 0.51749 0.25589 0.05808 0.0
N158 N 0.54917 0.2554 0.03878 0.0
C159 C 0.50435 0.26828 0.13756 0.0
H160 H 0.50872 0.24298 0.80804 0.0
H161 H 0.49095 0.20869 0.85815 0.0
H162 H 0.53338 0.20854 0.83261 0.0
H163 H 0.48139 0.28152 0.12686 0.0
H164 H 0.52174 0.28439 0.16911 0.0
H165 H 0.49944 0.24751 0.1786 0.0
C166 C 0.25639 0.02066 0.4642 0.0
N167 N 0.2557 0.05217 0.48577 0.0
N168 N 0.26162 1.00163 0.53084 0.0
C169 C 0.25005 1.00839 0.37907 0.0
C170 C 0.26413 0.02276 0.59355 0.0
N171 N 0.26012 0.05348 0.56649 0.0
C172 C 0.27305 0.0134 0.6801 0.0
H173 H 0.23569 0.02591 0.34227 0.0
H174 H 0.23719 0.98496 0.38108 0.0
H175 H 0.27349 1.00462 0.34829 0.0
H176 H 0.28792 0.99112 0.68096 0.0
H177 H 0.25076 1.00864 0.71512 0.0
H178 H 0.28665 0.03302 0.71086 0.0
C179 C 0.49571 0.79173 0.07572 0.0
N180 N 0.46475 0.78921 0.04854 0.0
N181 N 0.51643 0.79285 0.01195 0.0
C182 C 0.50606 0.7933 0.16442 0.0
C183 C 0.49687 0.79087 0.94498 0.0
N184 N 0.46551 0.78888 0.96712 0.0
C185 C 0.50825 0.79153 0.85791 0.0
H186 H 0.51257 0.81851 0.17948 0.0
H187 H 0.52776 0.77806 0.17494 0.0
H188 H 0.48687 0.78585 0.20706 0.0
H189 H 0.51174 0.76639 0.83681 0.0
H190 H 0.53153 0.80454 0.85294 0.0
H191 H 0.48999 0.80317 0.81725 0.0
H192 H 0.17253 0.22953 0.29123 0.0
H193 H 0.14436 0.3079 0.13171 0.0
H194 H 0.1018 0.32347 0.22735 0.0
H195 H 0.07165 0.31334 0.35388 0.0
H196 H 0.09448 0.22994 0.50169 0.0
H197 H 0.14096 0.21832 0.41558 0.0
C198 C 0.15705 0.25008 0.27801 0.0
C199 C 0.16131 0.26775 0.20535 0.0
C200 C 0.1321 0.25809 0.33174 0.0
C201 C 0.14118 0.29406 0.18751 0.0
C202 C 0.11704 0.30295 0.24216 0.0
C203 C 0.08686 0.29264 0.36696 0.0
C204 C 0.07988 0.27275 0.43445 0.0
C205 C 0.11213 0.28495 0.31404 0.0
C206 C 0.09984 0.24612 0.45154 0.0
C207 C 0.1261 0.23919 0.40149 0.0
H208 H 0.23272 0.68204 0.76126 0.0
H209 H 0.29284 0.62383 0.60593 0.0
H210 H 0.2873 0.57826 0.69916 0.0
H211 H 0.26742 0.55532 0.82788 0.0
H212 H 0.20325 0.6109 0.97745 0.0
H213 H 0.20901 0.65726 0.88526 0.0
C214 C 0.24442 0.65931 0.74765 0.0
C215 C 0.26324 0.65652 0.67664 0.0
C216 C 0.24078 0.63281 0.80121 0.0
C217 C 0.27806 0.62676 0.65972 0.0
C218 C 0.27507 0.60063 0.7133 0.0
C219 C 0.25418 0.57735 0.83932 0.0
C220 C 0.23507 0.5797 0.90963 0.0
C221 C 0.25671 0.60342 0.78447 0.0
C222 C 0.21865 0.60871 0.92468 0.0
C223 C 0.2217 0.63511 0.87152 0.0
H224 H 0.86167 0.81344 0.24798 0.0
H225 H 0.84493 0.7129 0.19669 0.0
H226 H 0.8878 0.69764 0.29343 0.0
H227 H 0.93097 0.71292 0.39171 0.0
H228 H 0.94573 0.81277 0.44945 0.0
H229 H 0.90285 0.8285 0.35175 0.0
C230 C 0.86752 0.78822 0.25782 0.0
C231 C 0.85031 0.76435 0.21456 0.0
C232 C 0.89177 0.77956 0.31509 0.0
C233 C 0.8578 0.73173 0.22909 0.0
C234 C 0.88234 0.72298 0.28439 0.0
C235 C 0.92437 0.73802 0.38306 0.0
C236 C 0.94103 0.76178 0.42739 0.0
C237 C 0.89951 0.74665 0.32768 0.0
C238 C 0.93281 0.79428 0.41601 0.0
C239 C 0.90847 0.80317 0.36009 0.0
H240 H 0.71244 0.36376 0.74518 0.0
H241 H 0.80916 0.35454 0.65343 0.0
H242 H 0.82791 0.39645 0.74751 0.0
H243 H 0.81643 0.43652 0.85456 0.0
H244 H 0.72114 0.44314 0.95408 0.0
H245 H 0.70188 0.40121 0.85938 0.0
C246 C 0.73754 0.37115 0.74578 0.0
C247 C 0.75938 0.35661 0.69202 0.0
C248 C 0.74832 0.39447 0.80189 0.0
C249 C 0.792 0.36567 0.69421 0.0
C250 C 0.80271 0.38953 0.74794 0.0
C251 C 0.79162 0.42827 0.85563 0.0
C252 C 0.77008 0.44234 0.91046 0.0
C253 C 0.78109 0.40409 0.80195 0.0
C254 C 0.73792 0.43207 0.91228 0.0
C255 C 0.727 0.40839 0.858 0.0
H256 H 0.65304 0.31591 0.27373 0.0
H257 H 0.6707 0.21525 0.32492 0.0
H258 H 0.6286 0.20008 0.22652 0.0
H259 H 0.58594 0.21551 0.12719 0.0
H260 H 0.57023 0.31545 0.06926 0.0
H261 H 0.61235 0.33117 0.16865 0.0
C262 C 0.64752 0.29069 0.26348 0.0
C263 C 0.66471 0.26672 0.30697 0.0
C264 C 0.6238 0.28212 0.20529 0.0
C265 C 0.65775 0.23411 0.29217 0.0
C266 C 0.6337 0.22542 0.23597 0.0
C267 C 0.59228 0.24062 0.13599 0.0
C268 C 0.57563 0.2644 0.09133 0.0
C269 C 0.6166 0.24919 0.19223 0.0
C270 C 0.58327 0.29696 0.10302 0.0
C271 C 0.60712 0.30582 0.15986 0.0
H272 H 0.27193 0.1828 0.76368 0.0
H273 H 0.20725 0.13081 0.92246 0.0
H274 H 0.20668 0.08559 0.82789 0.0
H275 H 0.22389 0.06086 0.6996 0.0
H276 H 0.2923 0.10976 0.5465 0.0
H277 H 0.2911 0.15672 0.6372 0.0
C278 C 0.25782 0.16152 0.77773 0.0
C279 C 0.23967 0.16028 0.85024 0.0
C280 C 0.25782 0.1353 0.72332 0.0
C281 C 0.22163 0.13243 0.86757 0.0
C282 C 0.2211 0.10658 0.81323 0.0
C283 C 0.23876 0.08171 0.68673 0.0
C284 C 0.25814 0.08194 0.61668 0.0
C285 C 0.23901 0.10779 0.74098 0.0
C286 C 0.27677 0.10931 0.59933 0.0
C287 C 0.27638 0.13594 0.65176 0.0
H288 H 0.33978 0.79129 0.26338 0.0
H289 H 0.38535 0.70601 0.36337 0.0
H290 H 0.4287 0.71063 0.26371 0.0
H291 H 0.45423 0.73942 0.14912 0.0
H292 H 0.41311 0.82856 0.06198 0.0
H293 H 0.36692 0.8216 0.15287 0.0
C294 C 0.35926 0.77379 0.26322 0.0
C295 C 0.35941 0.74837 0.32061 0.0
C296 C 0.38459 0.77707 0.20702 0.0
C297 C 0.38488 0.72597 0.32033 0.0
C298 C 0.40955 0.72847 0.26302 0.0
C299 C 0.43496 0.75713 0.15014 0.0
C300 C 0.43658 0.78412 0.09808 0.0
C301 C 0.40969 0.75393 0.20623 0.0
C302 C 0.41179 0.80714 0.0997 0.0
C303 C 0.38569 0.80339 0.15266 0.0
H304 H 0.80086 0.88257 0.83955 0.0
H305 H 0.71543 0.82887 0.77313 0.0
H306 H 0.7032 0.86785 0.66437 0.0
H307 H 0.71661 0.91807 0.58813 0.0
H308 H 0.8016 0.97129 0.65663 0.0
H309 H 0.8144 0.93165 0.76381 0.0
C310 C 0.77946 0.87936 0.80164 0.0
C311 C 0.7591 0.85276 0.81504 0.0
C312 C 0.77262 0.90179 0.73898 0.0
C313 C 0.73157 0.84909 0.76461 0.0
C314 C 0.72457 0.87136 0.7021 0.0
C315 C 0.73799 0.92059 0.62637 0.0
C316 C 0.75822 0.94735 0.61518 0.0
C317 C 0.74493 0.89782 0.68856 0.0
C318 C 0.78578 0.9508 0.66496 0.0
C319 C 0.79302 0.92822 0.72608 0.0
H320 H 0.8386 0.74117 0.76132 0.0
H321 H 0.8908 0.80814 0.9148 0.0
H322 H 0.93571 0.80781 0.81959 0.0
H323 H 0.96009 0.78918 0.69169 0.0
H324 H 0.91102 0.71814 0.54534 0.0
H325 H 0.86441 0.7204 0.63627 0.0
C326 C 0.85988 0.75556 0.77415 0.0
C327 C 0.86123 0.77461 0.84537 0.0
C328 C 0.88593 0.75501 0.71942 0.0
C329 C 0.8891 0.79302 0.86102 0.0
C330 C 0.91476 0.79306 0.80623 0.0
C331 C 0.93931 0.77398 0.68035 0.0
C332 C 0.93895 0.75356 0.61189 0.0
C333 C 0.91341 0.77424 0.73519 0.0
C334 C 0.91158 0.73451 0.59668 0.0
C335 C 0.88514 0.73548 0.64936 0.0
H336 H 0.78232 0.33889 0.23891 0.0
H337 H 0.72566 0.39851 0.3993 0.0
H338 H 0.73158 0.44406 0.30655 0.0
H339 H 0.75129 0.46694 0.178 0.0
H340 H 0.81159 0.40989 0.02193 0.0
H341 H 0.80506 0.36321 0.11301 0.0
C342 C 0.77142 0.36189 0.25368 0.0
C343 C 0.75351 0.36508 0.32612 0.0
C344 C 0.7752 0.3884 0.2002 0.0
C345 C 0.7397 0.3952 0.34437 0.0
C346 C 0.74292 0.42135 0.29111 0.0
C347 C 0.76345 0.44445 0.16481 0.0
C348 C 0.78188 0.44185 0.09348 0.0
C349 C 0.76045 0.41821 0.21878 0.0
C350 C 0.79686 0.41231 0.07586 0.0
C351 C 0.79335 0.38573 0.12834 0.0
H352 H 0.13531 0.22445 0.84484 0.0
H353 H 0.19033 0.30978 0.78756 0.0
H354 H 0.15202 0.32344 0.67782 0.0
H355 H 0.10215 0.31112 0.59782 0.0
H356 H 0.04781 0.22607 0.65719 0.0
H357 H 0.08662 0.21204 0.76571 0.0
C358 C 0.13893 0.24615 0.80878 0.0
C359 C 0.16568 0.26606 0.82488 0.0
C360 C 0.11696 0.25376 0.74555 0.0
C361 C 0.16994 0.29399 0.77683 0.0
C362 C 0.14808 0.3018 0.7138 0.0
C363 C 0.09921 0.28948 0.63446 0.0
C364 C 0.07239 0.26957 0.6204 0.0
C365 C 0.12151 0.28182 0.69739 0.0
C366 C 0.06836 0.24164 0.66792 0.0
C367 C 0.09046 0.2337 0.72975 0.0
H368 H 0.30114 0.66236 0.25762 0.0
H369 H 0.2035 0.67287 0.342 0.0
H370 H 0.18546 0.63084 0.24686 0.0
H371 H 0.19836 0.58908 0.14414 0.0
H372 H 0.29499 0.58141 0.05335 0.0
H373 H 0.31288 0.6246 0.14577 0.0
C374 C 0.27592 0.65541 0.25489 0.0
C375 C 0.25368 0.67016 0.30724 0.0
C376 C 0.26569 0.63194 0.19874 0.0
C377 C 0.22097 0.66161 0.30229 0.0
C378 C 0.2107 0.63763 0.24809 0.0
C379 C 0.22313 0.59746 0.1442 0.0
C380 C 0.2455 0.5826 0.09271 0.0
C381 C 0.23291 0.62242 0.19663 0.0
C382 C 0.2776 0.59304 0.0925 0.0
C383 C 0.28773 0.61746 0.14547 0.0
H384 H 0.34596 0.7961 0.72713 0.0
H385 H 0.3745 0.69734 0.68638 0.0
H386 H 0.41799 0.70268 0.78676 0.0
H387 H 0.44873 0.73547 0.88636 0.0
H388 H 0.42289 0.83471 0.92159 0.0
H389 H 0.37754 0.82924 0.8247 0.0
C390 C 0.36166 0.77574 0.74027 0.0
C391 C 0.35677 0.74636 0.6989 0.0
C392 C 0.38702 0.779 0.79797 0.0
C393 C 0.3776 0.72033 0.71665 0.0
C394 C 0.40253 0.72328 0.77442 0.0
C395 C 0.43282 0.75565 0.87303 0.0
C396 C 0.43817 0.7851 0.91272 0.0
C397 C 0.4075 0.75245 0.81548 0.0
C398 C 0.41822 0.81151 0.89391 0.0
C399 C 0.39262 0.80844 0.83784 0.0
H400 H 0.79557 0.84782 0.28156 0.0
H401 H 0.71654 0.87733 0.12484 0.0
H402 H 0.70242 0.92014 0.22152 0.0
H403 H 0.71359 0.94972 0.34894 0.0
H404 H 0.79741 0.92533 0.49473 0.0
H405 H 0.80805 0.87906 0.40655 0.0
C406 C 0.77528 0.86373 0.26901 0.0
C407 C 0.75699 0.85974 0.19681 0.0
C408 C 0.768 0.88874 0.32355 0.0
C409 C 0.73091 0.88033 0.1801 0.0
C410 C 0.72282 0.90459 0.23542 0.0
C411 C 0.73423 0.93429 0.36103 0.0
C412 C 0.75453 0.94079 0.42855 0.0
C413 C 0.74133 0.90911 0.30703 0.0
C414 C 0.78097 0.92041 0.44446 0.0
C415 C 0.78733 0.89426 0.39324 0.0
H416 H 0.68117 0.24337 0.76618 0.0
H417 H 0.62295 0.30217 0.60282 0.0
H418 H 0.57774 0.2984 0.69628 0.0
H419 H 0.55489 0.27948 0.82524 0.0
H420 H 0.61028 0.21694 0.98393 0.0
H421 H 0.65691 0.22191 0.89324 0.0
C422 C 0.65854 0.25523 0.75096 0.0
C423 C 0.65554 0.27307 0.67758 0.0
C424 C 0.63236 0.2527 0.80475 0.0
C425 C 0.62596 0.28815 0.65853 0.0
C426 C 0.6001 0.28617 0.71216 0.0
C427 C 0.57712 0.26669 0.83927 0.0
C428 C 0.57935 0.24803 0.91101 0.0
C429 C 0.60308 0.26866 0.7854 0.0
C430 C 0.60832 0.23197 0.92983 0.0
C431 C 0.63477 0.23452 0.87747 0.0
H432 H 0.20141 0.16254 0.25814 0.0
H433 H 0.30186 0.16826 0.19329 0.0
H434 H 0.3147 0.12422 0.28844 0.0
H435 H 0.2972 0.08346 0.38988 0.0
H436 H 0.19791 0.08016 0.46229 0.0
H437 H 0.1845 0.12379 0.36503 0.0
C438 C 0.22606 0.154 0.26467 0.0
C439 C 0.25062 0.1684 0.21814 0.0
C440 C 0.2334 0.1292 0.3212 0.0
C441 C 0.28255 0.15752 0.22834 0.0
C442 C 0.28991 0.13234 0.28268 0.0
C443 C 0.27277 0.09265 0.38426 0.0
C444 C 0.24848 0.07905 0.43256 0.0
C445 C 0.26556 0.11799 0.32942 0.0
C446 C 0.21681 0.0907 0.42557 0.0
C447 C 0.20924 0.11546 0.36996 0.0
H448 H 0.21629 0.35555 0.10329 0.0
H449 H 0.2892 0.34904 0.91721 0.0
H450 H 0.28743 0.40737 0.89767 0.0
H451 H 0.26577 0.46063 0.93473 0.0
H452 H 0.19148 0.46733 0.11596 0.0
H453 H 0.19315 0.40872 0.13653 0.0
C454 C 0.23194 0.36694 0.05888 0.0
C455 C 0.25303 0.34792 0.01232 0.0
C456 C 0.23043 0.40056 0.04688 0.0
C457 C 0.27276 0.36304 0.95403 0.0
C458 C 0.27177 0.39644 0.94269 0.0
C459 C 0.24963 0.44908 0.97763 0.0
C460 C 0.22852 0.46808 0.02378 0.0
C461 C 0.25067 0.41544 0.9886 0.0
C462 C 0.20805 0.45305 0.0803 0.0
C463 C 0.20902 0.41962 0.09196 0.0
H464 H 0.16637 0.71299 0.56712 0.0
H465 H 0.17426 0.80462 0.44318 0.0
H466 H 0.11547 0.80934 0.4369 0.0
H467 H 0.06142 0.78755 0.46765 0.0
H468 H 0.05326 0.69384 0.5793 0.0
H469 H 0.11223 0.68964 0.58978 0.0
C470 C 0.15514 0.73403 0.53915 0.0
C471 C 0.17464 0.75856 0.50636 0.0
C472 C 0.12122 0.73616 0.53364 0.0
C473 C 0.15979 0.78542 0.4689 0.0
C474 C 0.12616 0.78815 0.46531 0.0
C475 C 0.07271 0.76621 0.49372 0.0
C476 C 0.0532 0.74136 0.52453 0.0
C477 C 0.1066 0.76368 0.49737 0.0
C478 C 0.06793 0.7136 0.55739 0.0
C479 C 0.10159 0.71116 0.56292 0.0
H480 H 0.80648 0.66847 0.92806 0.0
H481 H 0.73636 0.67161 0.12179 0.0
H482 H 0.73765 0.61315 0.13309 0.0
H483 H 0.75724 0.56074 0.08563 0.0
H484 H 0.82834 0.55655 0.89596 0.0
H485 H 0.82804 0.61562 0.88474 0.0
C486 C 0.79148 0.65633 0.97264 0.0
C487 C 0.77124 0.67452 0.02359 0.0
C488 C 0.79249 0.62247 0.97953 0.0
C489 C 0.75219 0.65836 0.08165 0.0
C490 C 0.75286 0.62484 0.08826 0.0
C491 C 0.77306 0.57289 0.04304 0.0
C492 C 0.79284 0.55457 0.99188 0.0
C493 C 0.77281 0.60666 0.03746 0.0
C494 C 0.81281 0.57037 0.93555 0.0
C495 C 0.81263 0.60404 0.92928 0.0
H496 H 0.85171 0.3088 0.43006 0.0
H497 H 0.8438 0.22924 0.60014 0.0
H498 H 0.90231 0.22699 0.61483 0.0
H499 H 0.95585 0.24729 0.57912 0.0
H500 H 0.96464 0.32843 0.41587 0.0
H501 H 0.90576 0.33028 0.39753 0.0
C502 C 0.86288 0.29092 0.46998 0.0
C503 C 0.84347 0.26921 0.51377 0.0
C504 C 0.89664 0.29008 0.47933 0.0
C505 C 0.85819 0.24635 0.56601 0.0
C506 C 0.89165 0.24498 0.57442 0.0
C507 C 0.94472 0.26566 0.54071 0.0
C508 C 0.96423 0.28787 0.49942 0.0
C509 C 0.91108 0.26678 0.53172 0.0
C510 C 0.94983 0.31112 0.44802 0.0
C511 C 0.91629 0.31216 0.43773 0.0
H512 H 0.70985 0.16722 0.43017 0.0
H513 H 0.78922 0.18033 0.5991 0.0
H514 H 0.79531 0.12184 0.61375 0.0
H515 H 0.77809 0.06693 0.57787 0.0
H516 H 0.69701 0.05327 0.41507 0.0
H517 H 0.6915 0.11182 0.39757 0.0
C518 C 0.72845 0.15705 0.46983 0.0
C519 C 0.74919 0.17764 0.51333 0.0
C520 C 0.73142 0.12341 0.47893 0.0
C521 C 0.7731 0.16462 0.56516 0.0
C522 C 0.77655 0.13129 0.57354 0.0
C523 C 0.75898 0.07691 0.53962 0.0
C524 C 0.73788 0.05605 0.49803 0.0
C525 C 0.75578 0.11046 0.53096 0.0
C526 C 0.71356 0.06906 0.4472 0.0
C527 C 0.71041 0.10244 0.43741 0.0
H528 H 0.35219 0.26265 0.90788 0.0
H529 H 0.34284 0.21922 0.14661 0.0
H530 H 0.40159 0.21306 0.15742 0.0
H531 H 0.45575 0.22143 0.09964 0.0
H532 H 0.46491 0.27185 0.86988 0.0
H533 H 0.4063 0.27337 0.85349 0.0
C534 C 0.36315 0.25157 0.96173 0.0
C535 C 0.34355 0.24105 0.026 0.0
C536 C 0.39687 0.24935 0.96881 0.0
C537 C 0.35774 0.22735 0.09643 0.0
C538 C 0.39122 0.22387 0.10259 0.0
C539 C 0.44481 0.23295 0.04651 0.0
C540 C 0.46456 0.24607 0.98548 0.0
C541 C 0.41105 0.23509 0.03947 0.0
C542 C 0.45018 0.26076 0.91646 0.0
C543 C 0.41668 0.26194 0.9075 0.0
H544 H 0.24276 0.85366 0.59898 0.0
H545 H 0.31485 0.84756 0.41083 0.0
H546 H 0.31698 0.90626 0.40178 0.0
H547 H 0.29751 0.95977 0.44533 0.0
H548 H 0.224 0.96583 0.62875 0.0
H549 H 0.22328 0.90701 0.6421 0.0
C550 C 0.25917 0.86518 0.55664 0.0
C551 C 0.27863 0.84618 0.50582 0.0
C552 C 0.25989 0.89905 0.55061 0.0
C553 C 0.29951 0.86157 0.45056 0.0
C554 C 0.30073 0.89518 0.4452 0.0
C555 C 0.28128 0.94804 0.48767 0.0
C556 C 0.26096 0.96692 0.5363 0.0
C557 C 0.28081 0.91419 0.49429 0.0
C558 C 0.24013 0.95165 0.59157 0.0
C559 C 0.23965 0.91808 0.59895 0.0
H560 H 0.66504 0.81106 0.07961 0.0
H561 H 0.66957 0.72834 0.92106 0.0
H562 H 0.61083 0.72861 0.90635 0.0
H563 H 0.55773 0.75165 0.94115 0.0
H564 H 0.5534 0.83669 0.09054 0.0
H565 H 0.6122 0.83619 0.10694 0.0
C566 C 0.65313 0.79305 0.04208 0.0
C567 C 0.67168 0.76955 1.00212 0.0
C568 C 0.61929 0.79374 0.03244 0.0
C569 C 0.65591 0.7467 0.95255 0.0
C570 C 0.62228 0.7468 0.94413 0.0
C571 C 0.5698 0.77026 0.97628 0.0
C572 C 0.55129 0.79389 0.01565 0.0
C573 C 0.60369 0.77017 0.98386 0.0
C574 C 0.56712 0.81782 0.06144 0.0
C575 C 0.60074 0.81763 0.07034 0.0
loop_
_geom_bond_atom_site_label_1
_geom_bond_atom_site_label_2
_geom_bond_distance
_geom_bond_site_symmetry_2
_ccdc_geom_bond_type
Fe0 O2 1.922 . S
Fe0 O5 1.997 . S
Fe0 O6 2.002 . S
Fe0 O11 1.976 . S
Fe0 O14 1.996 . S
Fe1 O2 1.914 1_556 S
Fe1 O9 1.997 . S
Fe1 O12 1.996 . S
Fe1 O16 1.976 . S
Fe1 O19 2.002 . S
O2 Fe0 1.922 . S
O2 Fe1 1.914 1_554 S
O2 Fe3 1.918 1_554 S
Fe3 O2 1.918 1_556 S
Fe3 O4 1.998 1_556 S
Fe3 O13 1.972 1_556 S
Fe3 O17 2.000 . S
Fe3 O20 2.001 . S
O4 Fe3 1.998 1_554 S
O4 C21 1.295 . S
O5 Fe0 1.997 . S
O5 C21 1.235 . S
O6 Fe0 2.002 . S
O6 C7 1.295 . S
C7 O6 1.295 . S
C7 O9 1.235 1_554 S
C8 O13 1.287 . S
C8 O14 1.255 . S
O9 Fe1 1.997 . S
O9 C7 1.235 1_556 S
C10 O16 1.287 . S
C10 O17 1.255 . S
O11 Fe0 1.976 . S
O11 C18 1.287 1_554 S
O12 Fe1 1.996 . S
O12 C18 1.255 . S
O13 Fe3 1.972 1_554 S
O13 C8 1.287 . S
O14 Fe0 1.996 . S
O14 C8 1.255 . S
C15 O19 1.295 . S
C15 O20 1.235 . S
O16 Fe1 1.976 . S
O16 C10 1.287 . S
O17 Fe3 2.000 . S
O17 C10 1.255 . S
C18 O11 1.287 1_556 S
C18 O12 1.255 . S
O19 Fe1 2.002 . S
O19 C15 1.295 . S
O20 Fe3 2.001 . S
O20 C15 1.235 . S
C21 O4 1.295 . S
C21 O5 1.235 . S
Fe22 O24 1.918 . S
Fe22 O27 1.997 . S
Fe22 O28 2.002 . S
Fe22 O33 1.976 . S
Fe22 O36 1.996 . S
Fe23 O24 1.918 . S
Fe23 O31 1.997 . S
Fe23 O34 1.996 . S
Fe23 O38 1.976 . S
Fe23 O41 2.002 . S
O24 Fe22 1.918 . S
O24 Fe23 1.918 . S
O24 Fe25 1.918 . S
Fe25 O24 1.918 . S
Fe25 O26 2.002 . S
Fe25 O35 1.976 . S
Fe25 O39 1.996 . S
Fe25 O42 1.997 . S
O26 Fe25 2.002 . S
O26 C43 1.295 . S
O27 Fe22 1.997 . S
O27 C43 1.235 . S
O28 Fe22 2.002 . S
O28 C29 1.295 . S
C29 O28 1.295 . S
C29 O31 1.235 . S
C30 O35 1.287 . S
C30 O36 1.255 . S
O31 Fe23 1.997 . S
O31 C29 1.235 . S
C32 O38 1.287 . S
C32 O39 1.255 . S
O33 Fe22 1.976 . S
O33 C40 1.287 . S
O34 Fe23 1.996 . S
O34 C40 1.255 . S
O35 Fe25 1.976 . S
O35 C30 1.287 . S
O36 Fe22 1.996 . S
O36 C30 1.255 . S
C37 O41 1.295 . S
C37 O42 1.235 . S
O38 Fe23 1.976 . S
O38 C32 1.287 . S
O39 Fe25 1.996 . S
O39 C32 1.255 . S
C40 O33 1.287 . S
C40 O34 1.255 . S
O41 Fe23 2.002 . S
O41 C37 1.295 . S
O42 Fe25 1.997 . S
O42 C37 1.235 . S
C43 O26 1.295 . S
C43 O27 1.235 . S
Fe44 O46 1.910 1_556 S
Fe44 O49 1.997 . S
Fe44 O50 2.002 . S
Fe44 O55 1.976 . S
Fe44 O58 1.996 . S
Fe45 O46 1.927 . S
Fe45 O53 1.997 . S
Fe45 O56 1.996 . S
Fe45 O60 1.976 . S
Fe45 O63 2.002 . S
O46 Fe44 1.910 1_554 S
O46 Fe45 1.927 . S
O46 Fe47 1.918 . S
Fe47 O46 1.918 . S
Fe47 O48 2.002 1_554 S
Fe47 O57 1.976 1_554 S
Fe47 O61 1.996 . S
Fe47 O64 1.997 . S
O48 Fe47 2.002 1_556 S
O48 C65 1.295 . S
O49 Fe44 1.997 . S
O49 C65 1.235 . S
O50 Fe44 2.002 . S
O50 C51 1.295 . S
C51 O50 1.295 . S
C51 O53 1.235 1_556 S
C52 O57 1.287 . S
C52 O58 1.255 . S
O53 Fe45 1.997 . S
O53 C51 1.235 1_554 S
C54 O60 1.287 . S
C54 O61 1.255 . S
O55 Fe44 1.976 . S
O55 C62 1.287 1_556 S
O56 Fe45 1.996 . S
O56 C62 1.255 . S
O57 Fe47 1.976 1_556 S
O57 C52 1.287 . S
O58 Fe44 1.996 . S
O58 C52 1.255 . S
C59 O63 1.295 . S
C59 O64 1.235 . S
O60 Fe45 1.976 . S
O60 C54 1.287 . S
O61 Fe47 1.996 . S
O61 C54 1.255 . S
C62 O55 1.287 1_554 S
C62 O56 1.255 . S
O63 Fe45 2.002 . S
O63 C59 1.295 . S
O64 Fe47 1.997 . S
O64 C59 1.235 . S
C65 O48 1.295 . S
C65 O49 1.235 . S
Fe66 O68 1.918 . S
Fe66 O71 1.997 . S
Fe66 O72 2.002 . S
Fe66 O77 1.976 . S
Fe66 O80 1.996 . S
Fe67 O68 1.918 . S
Fe67 O75 1.997 . S
Fe67 O78 1.996 . S
Fe67 O82 1.976 . S
Fe67 O85 2.002 . S
O68 Fe66 1.918 . S
O68 Fe67 1.918 . S
O68 Fe69 1.918 . S
Fe69 O68 1.918 . S
Fe69 O70 2.002 . S
Fe69 O79 1.976 . S
Fe69 O83 1.996 . S
Fe69 O86 1.997 . S
O70 Fe69 2.002 . S
O70 C87 1.295 . S
O71 Fe66 1.997 . S
O71 C87 1.235 . S
O72 Fe66 2.002 . S
O72 C73 1.295 . S
C73 O72 1.295 . S
C73 O75 1.235 . S
C74 O79 1.287 . S
C74 O80 1.255 . S
O75 Fe67 1.997 . S
O75 C73 1.235 . S
C76 O82 1.287 . S
C76 O83 1.255 . S
O77 Fe66 1.976 . S
O77 C84 1.287 . S
O78 Fe67 1.996 . S
O78 C84 1.255 . S
O79 Fe69 1.976 . S
O79 C74 1.287 . S
O80 Fe66 1.996 . S
O80 C74 1.255 . S
C81 O85 1.295 . S
C81 O86 1.235 . S
O82 Fe67 1.976 . S
O82 C76 1.287 . S
O83 Fe69 1.996 . S
O83 C76 1.255 . S
C84 O77 1.287 . S
C84 O78 1.255 . S
O85 Fe67 2.002 . S
O85 C81 1.295 . S
O86 Fe69 1.997 . S
O86 C81 1.235 . S
C87 O70 1.295 . S
C87 O71 1.235 . S
C88 N89 1.317 . S
C88 N90 1.357 . S
C88 C91 1.485 . S
N89 C88 1.317 . S
N89 N93 1.370 1_556 S
N90 C88 1.357 . S
N90 C92 1.337 1_556 S
C91 C88 1.485 . S
C91 H95 0.960 . S
C91 H96 0.961 . S
C91 H97 0.960 . S
C92 N90 1.337 1_554 S
C92 N93 1.307 . S
C92 C94 1.486 . S
N93 N89 1.370 1_554 S
N93 C92 1.307 . S
C94 C92 1.486 . S
C94 H98 0.960 . S
C94 H99 0.960 . S
C94 H100 0.959 . S
H95 C91 0.960 . S
H96 C91 0.961 . S
H97 C91 0.960 . S
H98 C94 0.960 . S
H99 C94 0.960 . S
H100 C94 0.959 . S
C101 N102 1.317 1_455 S
C101 N103 1.348 . S
C101 C104 1.485 . S
N102 C101 1.317 1_655 S
N102 N106 1.370 . S
N103 C101 1.348 . S
N103 C105 1.346 . S
C104 C101 1.485 . S
C104 H108 0.960 . S
C104 H109 0.961 . S
C104 H110 0.960 1_455 S
C105 N103 1.346 . S
C105 N106 1.307 1_455 S
C105 C107 1.486 . S
N106 N102 1.370 . S
N106 C105 1.307 1_655 S
C107 C105 1.486 . S
C107 H111 0.960 . S
C107 H112 0.960 . S
C107 H113 0.941 1_455 S
H108 C104 0.960 . S
H109 C104 0.961 . S
H110 C104 0.960 1_655 S
H111 C107 0.960 . S
H112 C107 0.960 . S
H113 C107 0.941 1_655 S
C114 N115 1.317 . S
C114 N116 1.348 . S
C114 C117 1.485 . S
N115 C114 1.317 . S
N115 N119 1.370 1_554 S
N116 C114 1.348 . S
N116 C118 1.346 1_554 S
C117 C114 1.485 . S
C117 H121 0.960 . S
C117 H122 0.961 . S
C117 H123 0.960 . S
C118 N116 1.346 1_556 S
C118 N119 1.307 . S
C118 C120 1.486 . S
N119 N115 1.370 1_556 S
N119 C118 1.307 . S
C120 C118 1.486 . S
C120 H124 0.960 . S
C120 H125 0.960 . S
C120 H126 0.959 . S
H121 C117 0.960 . S
H122 C117 0.961 . S
H123 C117 0.960 . S
H124 C120 0.960 . S
H125 C120 0.960 . S
H126 C120 0.959 . S
C127 N128 1.317 1_655 S
C127 N129 1.348 . S
C127 C130 1.485 . S
N128 C127 1.317 1_455 S
N128 N132 1.370 . S
N129 C127 1.348 . S
N129 C131 1.346 . S
C130 C127 1.485 . S
C130 H134 0.960 . S
C130 H135 0.961 . S
C130 H136 0.960 . S
C131 N129 1.346 . S
C131 N132 1.307 1_655 S
C131 C133 1.486 . S
N132 N128 1.370 . S
N132 C131 1.307 1_455 S
C133 C131 1.486 . S
C133 H137 0.960 . S
C133 H138 0.960 . S
C133 H139 0.959 . S
H134 C130 0.960 . S
H135 C130 0.961 . S
H136 C130 0.960 . S
H137 C133 0.960 . S
H138 C133 0.960 . S
H139 C133 0.959 . S
C140 N141 1.317 1_545 S
C140 N142 1.348 . S
C140 C143 1.485 . S
N141 C140 1.317 1_565 S
N141 N145 1.370 . S
N142 C140 1.348 . S
N142 C144 1.346 . S
C143 C140 1.485 . S
C143 H147 0.960 . S
C143 H148 0.961 . S
C143 H149 0.960 . S
C144 N142 1.346 . S
C144 N145 1.307 1_545 S
C144 C146 1.486 . S
N145 N141 1.370 . S
N145 C144 1.307 1_565 S
C146 C144 1.486 . S
C146 H150 0.960 . S
C146 H151 0.960 . S
C146 H152 0.959 . S
H147 C143 0.960 . S
H148 C143 0.961 . S
H149 C143 0.960 . S
H150 C146 0.960 . S
H151 C146 0.960 . S
H152 C146 0.959 . S
C153 N154 1.317 . S
C153 N155 1.357 . S
C153 C156 1.485 . S
N154 C153 1.317 . S
N154 N158 1.370 1_556 S
N155 C153 1.357 . S
N155 C157 1.337 1_556 S
C156 C153 1.485 . S
C156 H160 0.960 . S
C156 H161 0.961 . S
C156 H162 0.960 . S
C157 N155 1.337 1_554 S
C157 N158 1.307 . S
C157 C159 1.486 . S
N158 N154 1.370 1_554 S
N158 C157 1.307 . S
C159 C157 1.486 . S
C159 H163 0.960 . S
C159 H164 0.960 . S
C159 H165 0.959 . S
H160 C156 0.960 . S
H161 C156 0.961 . S
H162 C156 0.960 . S
H163 C159 0.960 . S
H164 C159 0.960 . S
H165 C159 0.959 . S
C166 N167 1.317 1_565 S
C166 N168 1.348 . S
C166 C169 1.485 . S
N167 C166 1.317 1_545 S
N167 N171 1.370 . S
N168 C166 1.348 . S
N168 C170 1.346 . S
C169 C166 1.485 . S
C169 H173 0.960 . S
C169 H174 0.961 . S
C169 H175 0.960 1_565 S
C170 N168 1.346 . S
C170 N171 1.307 1_565 S
C170 C172 1.486 . S
N171 N167 1.370 . S
N171 C170 1.307 1_545 S
C172 C170 1.486 . S
C172 H176 0.960 . S
C172 H177 0.960 . S
C172 H178 0.972 . S
H173 C169 0.960 . S
H174 C169 0.961 . S
H175 C169 0.960 1_545 S
H176 C172 0.960 . S
H177 C172 0.960 . S
H178 C172 0.972 . S
C179 N180 1.317 . S
C179 N181 1.348 . S
C179 C182 1.485 . S
N180 C179 1.317 . S
N180 N184 1.370 1_554 S
N181 C179 1.348 . S
N181 C183 1.346 1_554 S
C182 C179 1.485 . S
C182 H186 0.960 . S
C182 H187 0.961 . S
C182 H188 0.960 . S
C183 N181 1.346 1_556 S
C183 N184 1.307 . S
C183 C185 1.486 . S
N184 N180 1.370 1_556 S
N184 C183 1.307 . S
C185 C183 1.486 . S
C185 H189 0.960 . S
C185 H190 0.960 . S
C185 H191 0.959 . S
H186 C182 0.960 . S
H187 C182 0.961 . S
H188 C182 0.960 . S
H189 C185 0.960 . S
H190 C185 0.960 . S
H191 C185 0.959 . S
H192 C198 0.930 . S
H193 C201 0.930 . S
H194 C202 0.930 . S
H195 C203 0.930 . S
H196 C206 0.930 . S
H197 C207 0.930 . S
C198 H192 0.930 . S
C198 C199 1.355 . S
C198 C200 1.415 . S
C199 C198 1.355 . S
C199 C201 1.419 . S
C200 C198 1.415 . S
C200 C205 1.425 . S
C200 C207 1.409 . S
C201 H193 0.930 . S
C201 C199 1.419 . S
C201 C202 1.362 . S
C202 H194 0.930 . S
C202 C201 1.362 . S
C202 C205 1.409 . S
C203 H195 0.930 . S
C203 C204 1.355 . S
C203 C205 1.415 . S
C204 C203 1.355 . S
C204 C206 1.419 . S
C205 C200 1.425 . S
C205 C202 1.409 . S
C205 C203 1.415 . S
C206 H196 0.930 . S
C206 C204 1.419 . S
C206 C207 1.362 . S
C207 H197 0.930 . S
C207 C200 1.409 . S
C207 C206 1.362 . S
H208 C214 0.930 . S
H209 C217 0.930 . S
H210 C218 0.930 . S
H211 C219 0.930 . S
H212 C222 0.930 . S
H213 C223 0.930 . S
C214 H208 0.930 . S
C214 C215 1.355 . S
C214 C216 1.415 . S
C215 C214 1.355 . S
C215 C217 1.419 . S
C216 C214 1.415 . S
C216 C221 1.425 . S
C216 C223 1.409 . S
C217 H209 0.930 . S
C217 C215 1.419 . S
C217 C218 1.362 . S
C218 H210 0.930 . S
C218 C217 1.362 . S
C218 C221 1.409 . S
C219 H211 0.930 . S
C219 C220 1.355 . S
C219 C221 1.415 . S
C220 C219 1.355 . S
C220 C222 1.419 . S
C221 C216 1.425 . S
C221 C218 1.409 . S
C221 C219 1.415 . S
C222 H212 0.930 . S
C222 C220 1.419 . S
C222 C223 1.362 . S
C223 H213 0.930 . S
C223 C216 1.409 . S
C223 C222 1.362 . S
H224 C230 0.930 . S
H225 C233 0.930 . S
H226 C234 0.930 . S
H227 C235 0.930 . S
H228 C238 0.930 . S
H229 C239 0.930 . S
C230 H224 0.930 . S
C230 C231 1.355 . S
C230 C232 1.415 . S
C231 C230 1.355 . S
C231 C233 1.419 . S
C232 C230 1.415 . S
C232 C237 1.425 . S
C232 C239 1.409 . S
C233 H225 0.930 . S
C233 C231 1.419 . S
C233 C234 1.362 . S
C234 H226 0.930 . S
C234 C233 1.362 . S
C234 C237 1.409 . S
C235 H227 0.930 . S
C235 C236 1.355 . S
C235 C237 1.415 . S
C236 C235 1.355 . S
C236 C238 1.419 . S
C237 C232 1.425 . S
C237 C234 1.409 . S
C237 C235 1.415 . S
C238 H228 0.930 . S
C238 C236 1.419 . S
C238 C239 1.362 . S
C239 H229 0.930 . S
C239 C232 1.409 . S
C239 C238 1.362 . S
H240 C246 0.930 . S
H241 C249 0.930 . S
H242 C250 0.930 . S
H243 C251 0.930 . S
H244 C254 0.930 . S
H245 C255 0.930 . S
C246 H240 0.930 . S
C246 C247 1.355 . S
C246 C248 1.415 . S
C247 C246 1.355 . S
C247 C249 1.419 . S
C248 C246 1.415 . S
C248 C253 1.425 . S
C248 C255 1.409 . S
C249 H241 0.930 . S
C249 C247 1.419 . S
C249 C250 1.362 . S
C250 H242 0.930 . S
C250 C249 1.362 . S
C250 C253 1.409 . S
C251 H243 0.930 . S
C251 C252 1.355 . S
C251 C253 1.415 . S
C252 C251 1.355 . S
C252 C254 1.419 . S
C253 C248 1.425 . S
C253 C250 1.409 . S
C253 C251 1.415 . S
C254 H244 0.930 . S
C254 C252 1.419 . S
C254 C255 1.362 . S
C255 H245 0.930 . S
C255 C248 1.409 . S
C255 C254 1.362 . S
H256 C262 0.930 . S
H257 C265 0.930 . S
H258 C266 0.930 . S
H259 C267 0.930 . S
H260 C270 0.930 . S
H261 C271 0.930 . S
C262 H256 0.930 . S
C262 C263 1.355 . S
C262 C264 1.415 . S
C263 C262 1.355 . S
C263 C265 1.419 . S
C264 C262 1.415 . S
C264 C269 1.425 . S
C264 C271 1.409 . S
C265 H257 0.930 . S
C265 C263 1.419 . S
C265 C266 1.362 . S
C266 H258 0.930 . S
C266 C265 1.362 . S
C266 C269 1.409 . S
C267 H259 0.930 . S
C267 C268 1.355 . S
C267 C269 1.415 . S
C268 C267 1.355 . S
C268 C270 1.419 . S
C269 C264 1.425 . S
C269 C266 1.409 . S
C269 C267 1.415 . S
C270 H260 0.930 . S
C270 C268 1.419 . S
C270 C271 1.362 . S
C271 H261 0.930 . S
C271 C264 1.409 . S
C271 C270 1.362 . S
H272 C278 0.930 . S
H273 C281 0.930 . S
H274 C282 0.930 . S
H275 C283 0.930 . S
H276 C286 0.930 . S
H277 C287 0.930 . S
C278 H272 0.930 . S
C278 C279 1.355 . S
C278 C280 1.415 . S
C279 C278 1.355 . S
C279 C281 1.419 . S
C280 C278 1.415 . S
C280 C285 1.425 . S
C280 C287 1.409 . S
C281 H273 0.930 . S
C281 C279 1.419 . S
C281 C282 1.362 . S
C282 H274 0.930 . S
C282 C281 1.362 . S
C282 C285 1.409 . S
C283 H275 0.930 . S
C283 C284 1.355 . S
C283 C285 1.415 . S
C284 C283 1.355 . S
C284 C286 1.419 . S
C285 C280 1.425 . S
C285 C282 1.409 . S
C285 C283 1.415 . S
C286 H276 0.930 . S
C286 C284 1.419 . S
C286 C287 1.362 . S
C287 H277 0.930 . S
C287 C280 1.409 . S
C287 C286 1.362 . S
H288 C294 0.930 . S
H289 C297 0.930 . S
H290 C298 0.930 . S
H291 C299 0.930 . S
H292 C302 0.930 . S
H293 C303 0.930 . S
C294 H288 0.930 . S
C294 C295 1.355 . S
C294 C296 1.415 . S
C295 C294 1.355 . S
C295 C297 1.419 . S
C296 C294 1.415 . S
C296 C301 1.425 . S
C296 C303 1.409 . S
C297 H289 0.930 . S
C297 C295 1.419 . S
C297 C298 1.362 . S
C298 H290 0.930 . S
C298 C297 1.362 . S
C298 C301 1.409 . S
C299 H291 0.930 . S
C299 C300 1.355 . S
C299 C301 1.415 . S
C300 C299 1.355 . S
C300 C302 1.419 . S
C301 C296 1.425 . S
C301 C298 1.409 . S
C301 C299 1.415 . S
C302 H292 0.930 . S
C302 C300 1.419 . S
C302 C303 1.362 . S
C303 H293 0.930 . S
C303 C296 1.409 . S
C303 C302 1.362 . S
H304 C310 0.930 . S
H305 C313 0.930 . S
H306 C314 0.930 . S
H307 C315 0.930 . S
H308 C318 0.930 . S
H309 C319 0.930 . S
C310 H304 0.930 . S
C310 C311 1.355 . S
C310 C312 1.415 . S
C311 C310 1.355 . S
C311 C313 1.419 . S
C312 C310 1.415 . S
C312 C317 1.425 . S
C312 C319 1.409 . S
C313 H305 0.930 . S
C313 C311 1.419 . S
C313 C314 1.362 . S
C314 H306 0.930 . S
C314 C313 1.362 . S
C314 C317 1.409 . S
C315 H307 0.930 . S
C315 C316 1.355 . S
C315 C317 1.415 . S
C316 C315 1.355 . S
C316 C318 1.419 . S
C317 C312 1.425 . S
C317 C314 1.409 . S
C317 C315 1.415 . S
C318 H308 0.930 . S
C318 C316 1.419 . S
C318 C319 1.362 . S
C319 H309 0.930 . S
C319 C312 1.409 . S
C319 C318 1.362 . S
H320 C326 0.930 . S
H321 C329 0.930 . S
H322 C330 0.930 . S
H323 C331 0.930 . S
H324 C334 0.930 . S
H325 C335 0.930 . S
C326 H320 0.930 . S
C326 C327 1.355 . S
C326 C328 1.415 . S
C327 C326 1.355 . S
C327 C329 1.419 . S
C328 C326 1.415 . S
C328 C333 1.425 . S
C328 C335 1.409 . S
C329 H321 0.930 . S
C329 C327 1.419 . S
C329 C330 1.362 . S
C330 H322 0.930 . S
C330 C329 1.362 . S
C330 C333 1.409 . S
C331 H323 0.930 . S
C331 C332 1.355 . S
C331 C333 1.415 . S
C332 C331 1.355 . S
C332 C334 1.419 . S
C333 C328 1.425 . S
C333 C330 1.409 . S
C333 C331 1.415 . S
C334 H324 0.930 . S
C334 C332 1.419 . S
C334 C335 1.362 . S
C335 H325 0.930 . S
C335 C328 1.409 . S
C335 C334 1.362 . S
H336 C342 0.930 . S
H337 C345 0.930 . S
H338 C346 0.930 . S
H339 C347 0.930 . S
H340 C350 0.930 . S
H341 C351 0.930 . S
C342 H336 0.930 . S
C342 C343 1.355 . S
C342 C344 1.415 . S
C343 C342 1.355 . S
C343 C345 1.419 . S
C344 C342 1.415 . S
C344 C349 1.425 . S
C344 C351 1.409 . S
C345 H337 0.930 . S
C345 C343 1.419 . S
C345 C346 1.362 . S
C346 H338 0.930 . S
C346 C345 1.362 . S
C346 C349 1.409 . S
C347 H339 0.930 . S
C347 C348 1.355 . S
C347 C349 1.415 . S
C348 C347 1.355 . S
C348 C350 1.419 . S
C349 C344 1.425 . S
C349 C346 1.409 . S
C349 C347 1.415 . S
C350 H340 0.930 . S
C350 C348 1.419 . S
C350 C351 1.362 . S
C351 H341 0.930 . S
C351 C344 1.409 . S
C351 C350 1.362 . S
H352 C358 0.930 . S
H353 C361 0.930 . S
H354 C362 0.930 . S
H355 C363 0.930 . S
H356 C366 0.930 . S
H357 C367 0.930 . S
C358 H352 0.930 . S
C358 C359 1.355 . S
C358 C360 1.415 . S
C359 C358 1.355 . S
C359 C361 1.419 . S
C360 C358 1.415 . S
C360 C365 1.425 . S
C360 C367 1.409 . S
C361 H353 0.930 . S
C361 C359 1.419 . S
C361 C362 1.362 . S
C362 H354 0.930 . S
C362 C361 1.362 . S
C362 C365 1.409 . S
C363 H355 0.930 . S
C363 C364 1.355 . S
C363 C365 1.415 . S
C364 C363 1.355 . S
C364 C366 1.419 . S
C365 C360 1.425 . S
C365 C362 1.409 . S
C365 C363 1.415 . S
C366 H356 0.930 . S
C366 C364 1.419 . S
C366 C367 1.362 . S
C367 H357 0.930 . S
C367 C360 1.409 . S
C367 C366 1.362 . S
H368 C374 0.930 . S
H369 C377 0.930 . S
H370 C378 0.930 . S
H371 C379 0.930 . S
H372 C382 0.930 . S
H373 C383 0.930 . S
C374 H368 0.930 . S
C374 C375 1.355 . S
C374 C376 1.415 . S
C375 C374 1.355 . S
C375 C377 1.419 . S
C376 C374 1.415 . S
C376 C381 1.425 . S
C376 C383 1.409 . S
C377 H369 0.930 . S
C377 C375 1.419 . S
C377 C378 1.362 . S
C378 H370 0.930 . S
C378 C377 1.362 . S
C378 C381 1.409 . S
C379 H371 0.930 . S
C379 C380 1.355 . S
C379 C381 1.415 . S
C380 C379 1.355 . S
C380 C382 1.419 . S
C381 C376 1.425 . S
C381 C378 1.409 . S
C381 C379 1.415 . S
C382 H372 0.930 . S
C382 C380 1.419 . S
C382 C383 1.362 . S
C383 H373 0.930 . S
C383 C376 1.409 . S
C383 C382 1.362 . S
H384 C390 0.930 . S
H385 C393 0.930 . S
H386 C394 0.930 . S
H387 C395 0.930 . S
H388 C398 0.930 . S
H389 C399 0.930 . S
C390 H384 0.930 . S
C390 C391 1.355 . S
C390 C392 1.415 . S
C391 C390 1.355 . S
C391 C393 1.419 . S
C392 C390 1.415 . S
C392 C397 1.425 . S
C392 C399 1.409 . S
C393 H385 0.930 . S
C393 C391 1.419 . S
C393 C394 1.362 . S
C394 H386 0.930 . S
C394 C393 1.362 . S
C394 C397 1.409 . S
C395 H387 0.930 . S
C395 C396 1.355 . S
C395 C397 1.415 . S
C396 C395 1.355 . S
C396 C398 1.419 . S
C397 C392 1.425 . S
C397 C394 1.409 . S
C397 C395 1.415 . S
C398 H388 0.930 . S
C398 C396 1.419 . S
C398 C399 1.362 . S
C399 H389 0.930 . S
C399 C392 1.409 . S
C399 C398 1.362 . S
H400 C406 0.930 . S
H401 C409 0.930 . S
H402 C410 0.930 . S
H403 C411 0.930 . S
H404 C414 0.930 . S
H405 C415 0.930 . S
C406 H400 0.930 . S
C406 C407 1.355 . S
C406 C408 1.415 . S
C407 C406 1.355 . S
C407 C409 1.419 . S
C408 C406 1.415 . S
C408 C413 1.425 . S
C408 C415 1.409 . S
C409 H401 0.930 . S
C409 C407 1.419 . S
C409 C410 1.362 . S
C410 H402 0.930 . S
C410 C409 1.362 . S
C410 C413 1.409 . S
C411 H403 0.930 . S
C411 C412 1.355 . S
C411 C413 1.415 . S
C412 C411 1.355 . S
C412 C414 1.419 . S
C413 C408 1.425 . S
C413 C410 1.409 . S
C413 C411 1.415 . S
C414 H404 0.930 . S
C414 C412 1.419 . S
C414 C415 1.362 . S
C415 H405 0.930 . S
C415 C408 1.409 . S
C415 C414 1.362 . S
H416 C422 0.930 . S
H417 C425 0.930 . S
H418 C426 0.930 . S
H419 C427 0.930 . S
H420 C430 0.930 1_554 S
H421 C431 0.930 . S
C422 H416 0.930 . S
C422 C423 1.355 . S
C422 C424 1.415 . S
C423 C422 1.355 . S
C423 C425 1.419 . S
C424 C422 1.415 . S
C424 C429 1.425 . S
C424 C431 1.409 . S
C425 H417 0.930 . S
C425 C423 1.419 . S
C425 C426 1.362 . S
C426 H418 0.930 . S
C426 C425 1.362 . S
C426 C429 1.409 . S
C427 H419 0.930 . S
C427 C428 1.355 . S
C427 C429 1.415 . S
C428 C427 1.355 . S
C428 C430 1.419 . S
C429 C424 1.425 . S
C429 C426 1.409 . S
C429 C427 1.415 . S
C430 H420 0.930 1_556 S
C430 C428 1.419 . S
C430 C431 1.362 . S
C431 H421 0.930 . S
C431 C424 1.409 . S
C431 C430 1.362 . S
H432 C438 0.930 . S
H433 C441 0.930 . S
H434 C442 0.930 . S
H435 C443 0.930 . S
H436 C446 0.930 . S
H437 C447 0.930 . S
C438 H432 0.930 . S
C438 C439 1.355 . S
C438 C440 1.415 . S
C439 C438 1.355 . S
C439 C441 1.419 . S
C440 C438 1.415 . S
C440 C445 1.425 . S
C440 C447 1.409 . S
C441 H433 0.930 . S
C441 C439 1.419 . S
C441 C442 1.362 . S
C442 H434 0.930 . S
C442 C441 1.362 . S
C442 C445 1.409 . S
C443 H435 0.930 . S
C443 C444 1.355 . S
C443 C445 1.415 . S
C444 C443 1.355 . S
C444 C446 1.419 . S
C445 C440 1.425 . S
C445 C442 1.409 . S
C445 C443 1.415 . S
C446 H436 0.930 . S
C446 C444 1.419 . S
C446 C447 1.362 . S
C447 H437 0.930 . S
C447 C440 1.409 . S
C447 C446 1.362 . S
H448 C454 0.930 . S
H449 C457 0.930 . S
H450 C458 0.930 . S
H451 C459 0.930 . S
H452 C462 0.930 . S
H453 C463 0.930 . S
C454 H448 0.930 . S
C454 C455 1.355 1_554 S
C454 C456 1.415 . S
C455 C454 1.355 1_556 S
C455 C457 1.419 . S
C456 C454 1.415 . S
C456 C461 1.425 1_554 S
C456 C463 1.409 . S
C457 H449 0.930 . S
C457 C455 1.419 . S
C457 C458 1.362 . S
C458 H450 0.930 . S
C458 C457 1.362 . S
C458 C461 1.409 . S
C459 H451 0.930 . S
C459 C460 1.355 1_556 S
C459 C461 1.415 . S
C460 C459 1.355 1_554 S
C460 C462 1.419 . S
C461 C456 1.425 1_556 S
C461 C458 1.409 . S
C461 C459 1.415 . S
C462 H452 0.930 . S
C462 C460 1.419 . S
C462 C463 1.362 . S
C463 H453 0.930 . S
C463 C456 1.409 . S
C463 C462 1.362 . S
H464 C470 0.930 . S
H465 C473 0.930 . S
H466 C474 0.930 . S
H467 C475 0.930 . S
H468 C478 0.930 . S
H469 C479 0.930 . S
C470 H464 0.930 . S
C470 C471 1.355 . S
C470 C472 1.415 . S
C471 C470 1.355 . S
C471 C473 1.419 . S
C472 C470 1.415 . S
C472 C477 1.425 . S
C472 C479 1.409 . S
C473 H465 0.930 . S
C473 C471 1.419 . S
C473 C474 1.362 . S
C474 H466 0.930 . S
C474 C473 1.362 . S
C474 C477 1.409 . S
C475 H467 0.930 . S
C475 C476 1.355 . S
C475 C477 1.415 . S
C476 C475 1.355 . S
C476 C478 1.419 . S
C477 C472 1.425 . S
C477 C474 1.409 . S
C477 C475 1.415 . S
C478 H468 0.930 . S
C478 C476 1.419 . S
C478 C479 1.362 . S
C479 H469 0.930 . S
C479 C472 1.409 . S
C479 C478 1.362 . S
H480 C486 0.930 . S
H481 C489 0.930 . S
H482 C490 0.930 . S
H483 C491 0.930 . S
H484 C494 0.930 . S
H485 C495 0.930 . S
C486 H480 0.930 . S
C486 C487 1.355 1_554 S
C486 C488 1.415 . S
C487 C486 1.355 1_556 S
C487 C489 1.419 . S
C488 C486 1.415 . S
C488 C493 1.425 1_554 S
C488 C495 1.409 . S
C489 H481 0.930 . S
C489 C487 1.419 . S
C489 C490 1.362 . S
C490 H482 0.930 . S
C490 C489 1.362 . S
C490 C493 1.409 . S
C491 H483 0.930 . S
C491 C492 1.355 1_556 S
C491 C493 1.415 . S
C492 C491 1.355 1_554 S
C492 C494 1.419 . S
C493 C488 1.425 1_556 S
C493 C490 1.409 . S
C493 C491 1.415 . S
C494 H484 0.930 . S
C494 C492 1.419 . S
C494 C495 1.362 . S
C495 H485 0.930 . S
C495 C488 1.409 . S
C495 C494 1.362 . S
H496 C502 0.930 . S
H497 C505 0.930 . S
H498 C506 0.930 . S
H499 C507 0.930 . S
H500 C510 0.930 . S
H501 C511 0.930 . S
C502 H496 0.930 . S
C502 C503 1.355 . S
C502 C504 1.415 . S
C503 C502 1.355 . S
C503 C505 1.419 . S
C504 C502 1.415 . S
C504 C509 1.425 . S
C504 C511 1.409 . S
C505 H497 0.930 . S
C505 C503 1.419 . S
C505 C506 1.362 . S
C506 H498 0.930 . S
C506 C505 1.362 . S
C506 C509 1.409 . S
C507 H499 0.930 . S
C507 C508 1.355 . S
C507 C509 1.415 . S
C508 C507 1.355 . S
C508 C510 1.419 . S
C509 C504 1.425 . S
C509 C506 1.409 . S
C509 C507 1.415 . S
C510 H500 0.930 . S
C510 C508 1.419 . S
C510 C511 1.362 . S
C511 H501 0.930 . S
C511 C504 1.409 . S
C511 C510 1.362 . S
H512 C518 0.930 . S
H513 C521 0.930 . S
H514 C522 0.930 . S
H515 C523 0.930 . S
H516 C526 0.930 . S
H517 C527 0.930 . S
C518 H512 0.930 . S
C518 C519 1.355 . S
C518 C520 1.415 . S
C519 C518 1.355 . S
C519 C521 1.419 . S
C520 C518 1.415 . S
C520 C525 1.425 . S
C520 C527 1.409 . S
C521 H513 0.930 . S
C521 C519 1.419 . S
C521 C522 1.362 . S
C522 H514 0.930 . S
C522 C521 1.362 . S
C522 C525 1.409 . S
C523 H515 0.930 . S
C523 C524 1.355 . S
C523 C525 1.415 . S
C524 C523 1.355 . S
C524 C526 1.419 . S
C525 C520 1.425 . S
C525 C522 1.409 . S
C525 C523 1.415 . S
C526 H516 0.930 . S
C526 C524 1.419 . S
C526 C527 1.362 . S
C527 H517 0.930 . S
C527 C520 1.409 . S
C527 C526 1.362 . S
H528 C534 0.930 . S
H529 C537 0.930 . S
H530 C538 0.930 . S
H531 C539 0.930 . S
H532 C542 0.930 . S
H533 C543 0.930 . S
C534 H528 0.930 . S
C534 C535 1.355 1_556 S
C534 C536 1.415 . S
C535 C534 1.355 1_554 S
C535 C537 1.419 . S
C536 C534 1.415 . S
C536 C541 1.425 1_556 S
C536 C543 1.409 . S
C537 H529 0.930 . S
C537 C535 1.419 . S
C537 C538 1.362 . S
C538 H530 0.930 . S
C538 C537 1.362 . S
C538 C541 1.409 . S
C539 H531 0.930 . S
C539 C540 1.355 1_554 S
C539 C541 1.415 . S
C540 C539 1.355 1_556 S
C540 C542 1.419 . S
C541 C536 1.425 1_554 S
C541 C538 1.409 . S
C541 C539 1.415 . S
C542 H532 0.930 . S
C542 C540 1.419 . S
C542 C543 1.362 . S
C543 H533 0.930 . S
C543 C536 1.409 . S
C543 C542 1.362 . S
H544 C550 0.930 . S
H545 C553 0.930 . S
H546 C554 0.930 . S
H547 C555 0.930 . S
H548 C558 0.930 . S
H549 C559 0.930 . S
C550 H544 0.930 . S
C550 C551 1.355 . S
C550 C552 1.415 . S
C551 C550 1.355 . S
C551 C553 1.419 . S
C552 C550 1.415 . S
C552 C557 1.425 . S
C552 C559 1.409 . S
C553 H545 0.930 . S
C553 C551 1.419 . S
C553 C554 1.362 . S
C554 H546 0.930 . S
C554 C553 1.362 . S
C554 C557 1.409 . S
C555 H547 0.930 . S
C555 C556 1.355 . S
C555 C557 1.415 . S
C556 C555 1.355 . S
C556 C558 1.419 . S
C557 C552 1.425 . S
C557 C554 1.409 . S
C557 C555 1.415 . S
C558 H548 0.930 . S
C558 C556 1.419 . S
C558 C559 1.362 . S
C559 H549 0.930 . S
C559 C552 1.409 . S
C559 C558 1.362 . S
H560 C566 0.930 . S
H561 C569 0.930 . S
H562 C570 0.930 . S
H563 C571 0.930 . S
H564 C574 0.930 . S
H565 C575 0.930 . S
C566 H560 0.930 . S
C566 C567 1.355 1_554 S
C566 C568 1.415 . S
C567 C566 1.355 1_556 S
C567 C569 1.419 . S
C568 C566 1.415 . S
C568 C573 1.425 1_554 S
C568 C575 1.409 . S
C569 H561 0.930 . S
C569 C567 1.419 . S
C569 C570 1.362 . S
C570 H562 0.930 . S
C570 C569 1.362 . S
C570 C573 1.409 . S
C571 H563 0.930 . S
C571 C572 1.355 1_556 S
C571 C573 1.415 . S
C572 C571 1.355 1_554 S
C572 C574 1.419 . S
C573 C568 1.425 1_556 S
C573 C570 1.409 . S
C573 C571 1.415 . S
C574 H564 0.930 . S
C574 C572 1.419 . S
C574 C575 1.362 . S
C575 H565 0.930 . S
C575 C568 1.409 . S
C575 C574 1.362 . S
C199 C21 1.512 . S
C204 N128 1.518 . S
C215 C40 1.480 . S
C220 N89 1.487 . S
C236 N106 1.468 . S
C231 C54 1.464 . S
C247 C73 1.509 . S
C252 N119 1.499 . S
C268 N158 1.452 . S
C263 C74 1.459 . S
C284 N171 1.488 . S
C279 C10 1.481 . S
C300 N180 1.518 . S
C295 C37 1.495 . S
C316 N141 1.483 . S
C311 C65 1.500 . S
C327 C52 1.466 . S
C332 N102 1.466 . S
C343 C87 1.512 . S
C348 N115 1.516 . S
C359 C15 1.486 . S
C364 N132 1.501 . S
C380 N93 1.471 . S
C375 C32 1.474 . S
C391 C29 1.508 . S
C396 N184 1.518 . S
C412 N145 1.501 . S
C407 C59 1.513 . S
C428 N154 1.465 . S
C423 C84 1.466 . S
C439 C8 1.486 . S
C444 N167 1.486 . S
C460 N90 1.507 1_554 S
C455 C7 1.502 1_556 S
C476 N103 1.471 . S
C471 C30 1.468 . S
C487 C62 1.497 1_556 S
C492 N116 1.498 . S
C503 C81 1.489 . S
C508 N129 1.507 . S
C524 N142 1.503 . S
C519 C76 1.496 . S
C535 C18 1.483 1_554 S
C540 N155 1.480 . S
C551 C43 1.506 . S
C556 N168 1.507 . S
C567 C51 1.486 . S
C572 N181 1.507 . S
