# Generated by pormake.
# Topology anh, (6,3)-cn, num edge types: 1
# Building blocks:
#     Node 0, Type 0, BuildingBlock: VOLQOD_clean_sbu_1, # of connection points: 6
#     Node 1, Type 0, BuildingBlock: VOLQOD_clean_sbu_1, # of connection points: 6
#     Node 2, Type 0, BuildingBlock: VOLQOD_clean_sbu_1, # of connection points: 6
#     Node 3, Type 1, BuildingBlock: BETDAH_clean_linker_0, # of connection points: 3
#     Node 4, Type 1, BuildingBlock: BETDAH_clean_linker_0, # of connection points: 3
#     Node 5, Type 1, BuildingBlock: BETDAH_clean_linker_0, # of connection points: 3
#     Node 6, Type 1, BuildingBlock: BETDAH_clean_linker_0, # of connection points: 3
#     Node 7, Type 1, BuildingBlock: BETDAH_clean_linker_0, # of connection points: 3
#     Node 8, Type 1, BuildingBlock: BETDAH_clean_linker_0, # of connection points: 3
#     Edge 9, Type (0, 1), BuildingBlock: EZIPEK_clean_linker_0, # of connection points: 2
#     Edge 10, Type (0, 1), BuildingBlock: EZIPEK_clean_linker_0, # of connection points: 2
#     Edge 11, Type (0, 1), BuildingBlock: EZIPEK_clean_linker_0, # of connection points: 2
#     Edge 12, Type (0, 1), BuildingBlock: EZIPEK_clean_linker_0, # of connection points: 2
#     Edge 13, Type (0, 1), BuildingBlock: EZIPEK_clean_linker_0, # of connection points: 2
#     Edge 14, Type (0, 1), BuildingBlock: EZIPEK_clean_linker_0, # of connection points: 2
#     Edge 15, Type (0, 1), BuildingBlock: EZIPEK_clean_linker_0, # of connection points: 2
#     Edge 16, Type (0, 1), BuildingBlock: EZIPEK_clean_linker_0, # of connection points: 2
#     Edge 17, Type (0, 1), BuildingBlock: EZIPEK_clean_linker_0, # of connection points: 2
#     Edge 18, Type (0, 1), BuildingBlock: EZIPEK_clean_linker_0, # of connection points: 2
#     Edge 19, Type (0, 1), BuildingBlock: EZIPEK_clean_linker_0, # of connection points: 2
#     Edge 20, Type (0, 1), BuildingBlock: EZIPEK_clean_linker_0, # of connection points: 2
#     Edge 21, Type (0, 1), BuildingBlock: EZIPEK_clean_linker_0, # of connection points: 2
#     Edge 22, Type (0, 1), BuildingBlock: EZIPEK_clean_linker_0, # of connection points: 2
#     Edge 23, Type (0, 1), BuildingBlock: EZIPEK_clean_linker_0, # of connection points: 2
#     Edge 24, Type (0, 1), BuildingBlock: EZIPEK_clean_linker_0, # of connection points: 2
#     Edge 25, Type (0, 1), BuildingBlock: EZIPEK_clean_linker_0, # of connection points: 2
#     Edge 26, Type (0, 1), BuildingBlock: EZIPEK_clean_linker_0, # of connection points: 2
# Relax obj value: 0.160
# Max RMSD: 0.217
# Mean RMSD: 0.133
data_MOF--net-anh--node1-VOLQOD_clean_sbu_1--node2-BETDAH_clean_linker_0--edge1-EZIPEK_clean_linker_0
_symmetry_space_group_name_H-M    P1
_symmetry_Int_Tables_number       1
_symmetry_cell_setting            triclinic
loop_
_symmetry_equiv_pos_as_xyz
'x, y, z'
_cell_length_a     21.96522
_cell_length_b     21.932449
_cell_length_c     41.442241
_cell_angle_alpha  92.288384
_cell_angle_beta   92.864349
_cell_angle_gamma 120.2559
loop_
_atom_site_label
_atom_site_type_symbol
_atom_site_fract_x
_atom_site_fract_y
_atom_site_fract_z
_atom_type_partial_charge
O0 O 0.02264 0.64162 0.23996 0.0
Zn1 Zn 0.01493 0.65196 0.19178 0.0
O2 O 0.02203 0.5772 0.16772 0.0
Zn3 Zn 0.93601 0.51142 0.14235 0.0
Zn4 Zn 0.04722 0.52629 0.19756 0.0
Zn5 Zn 0.09179 0.61767 0.13725 0.0
O6 O 0.94789 0.50071 0.09468 0.0
O7 O 0.05055 0.59973 0.09161 0.0
O8 O 0.92116 0.64609 0.17877 0.0
O9 O 0.87242 0.54974 0.14441 0.0
O10 O 0.88631 0.41839 0.1623 0.0
O11 O 0.96373 0.43063 0.20243 0.0
O12 O 0.12563 0.51348 0.18231 0.0
O13 O 0.09907 0.7485 0.18488 0.0
O14 O 0.15355 0.57566 0.13877 0.0
O15 O 0.15213 0.72004 0.14839 0.0
C16 C 0.0517 0.6131 0.2559 0.0
C17 C -0.00486 0.54608 0.07813 0.0
C18 C 0.9038 0.39507 0.18654 0.0
C19 C 0.87056 0.60083 0.15891 0.0
C20 C 0.16172 0.5361 0.15793 0.0
C21 C 0.14995 0.7664 0.16684 0.0
O22 O 0.07192 0.57425 0.24207 0.0
O23 O 0.46327 0.03845 0.43186 0.0
Zn24 Zn 0.45 0.0459 0.47959 0.0
O25 O 0.53219 0.05523 0.50595 0.0
Zn26 Zn 0.58121 0.14432 0.53245 0.0
Zn27 Zn 0.59868 0.04973 0.47784 0.0
Zn28 Zn 0.49963 0.98046 0.53536 0.0
O29 O 0.58383 0.13272 0.58042 0.0
O30 O 0.52226 0.01601 0.58206 0.0
O31 O 0.44082 0.1329 0.48709 0.0
O32 O 0.53215 0.19705 0.52349 0.0
O33 O 0.68064 0.20685 0.52048 0.0
O34 O 0.69203 0.14124 0.48166 0.0
O35 O 0.61616 0.97089 0.48895 0.0
O36 O 0.35908 0.95684 0.48874 0.0
O37 O 0.54592 0.92379 0.52877 0.0
O38 O 0.39609 0.91421 0.52753 0.0
C39 C 0.5096 0.03356 0.41645 0.0
C40 C 0.55719 0.07775 0.59627 0.0
C41 C 0.71655 0.19863 0.49941 0.0
C42 C 0.47921 0.18861 0.50573 0.0
C43 C 0.59048 0.92545 0.50995 0.0
C44 C 0.3463 0.91009 0.50889 0.0
O45 O 0.56264 0.0347 0.43096 0.0
O46 O 0.49362 0.47378 0.75034 0.0
Zn47 Zn 0.47193 0.4553 0.79726 0.0
O48 O 0.54856 0.53249 0.82641 0.0
Zn49 Zn 0.51351 0.58581 0.84976 0.0
Zn50 Zn 0.62794 0.59506 0.80175 0.0
Zn51 Zn 0.58317 0.49373 0.85855 0.0
O52 O 0.51985 0.5808 0.89869 0.0
O53 O 0.56892 0.51434 0.90388 0.0
O54 O 0.37762 0.45013 0.80267 0.0
O55 O 0.41155 0.54572 0.83616 0.0
O56 O 0.56444 0.68691 0.83865 0.0
O57 O 0.6477 0.69498 0.80752 0.0
O58 O 0.71707 0.59208 0.81368 0.0
O59 O 0.46409 0.36047 0.8058 0.0
O60 O 0.68472 0.52478 0.85534 0.0
O61 O 0.535 0.3906 0.85042 0.0
C62 C 0.54816 0.51961 0.73741 0.0
C63 C 0.54302 0.54931 0.91625 0.0
C64 C 0.61639 0.72252 0.82186 0.0
C65 C 0.36407 0.49231 0.81857 0.0
C66 C 0.73055 0.5617 0.83615 0.0
C67 C 0.4915 0.34356 0.82913 0.0
O68 O 0.60293 0.56715 0.75428 0.0
H69 H 0.37791 0.95179 0.27299 0.0
H70 H 0.6036 0.08531 0.27172 0.0
H71 H 0.47187 0.01134 0.18242 0.0
C72 C 0.42408 0.98099 0.25961 0.0
C73 C 0.41661 0.9777 0.22566 0.0
C74 C 0.49117 0.02172 0.27634 0.0
C75 C 0.55151 0.05662 0.25892 0.0
C76 C 0.54406 0.05115 0.22487 0.0
C77 C 0.47687 0.01452 0.20869 0.0
N78 N 0.60251 0.07565 0.20586 0.0
C79 C 0.66726 0.13628 0.21379 0.0
H80 H 0.50391 0.41085 0.59206 0.0
H81 H 0.62921 0.63795 0.59784 0.0
H82 H 0.57588 0.51988 0.50548 0.0
C83 C 0.53018 0.45966 0.58003 0.0
C84 C 0.53503 0.45731 0.54639 0.0
C85 C 0.56174 0.52467 0.5985 0.0
C86 C 0.6007 0.58787 0.5834 0.0
C87 C 0.60651 0.58558 0.54985 0.0
C88 C 0.57066 0.52092 0.53135 0.0
N89 N 0.65642 0.64582 0.53514 0.0
C90 C 0.64807 0.70361 0.53161 0.0
H91 H 0.90596 0.53486 0.92534 0.0
H92 H 0.1081 0.5533 0.9467 0.0
H93 H 0.04069 0.56145 0.84853 0.0
C94 C 0.95413 0.53944 0.91712 0.0
C95 C 0.96722 0.54761 0.88435 0.0
C96 C 0.00459 0.54111 0.93964 0.0
C97 C 0.06791 0.54987 0.92919 0.0
C98 C 0.08041 0.55524 0.89638 0.0
C99 C 0.02981 0.55382 0.87373 0.0
N100 N 0.14768 0.57026 0.88767 0.0
C101 C 0.1587 0.53598 0.86175 0.0
H102 H 0.14151 0.71607 0.40874 0.0
H103 H 0.0299 0.49109 0.38608 0.0
H104 H 0.098 0.57478 0.48498 0.0
C105 C 0.11725 0.66292 0.41677 0.0
C106 C 0.12436 0.65273 0.44967 0.0
C107 C 0.08164 0.60478 0.39392 0.0
C108 C 0.05431 0.5361 0.40389 0.0
C109 C 0.05974 0.52525 0.43666 0.0
C110 C 0.09228 0.58337 0.45971 0.0
N111 N 0.04174 0.45702 0.44557 0.0
C112 C 0.98238 0.41589 0.46184 0.0
H113 H 0.53864 0.16333 0.73784 0.0
H114 H 0.65437 0.05361 0.74238 0.0
H115 H 0.60283 0.12144 0.83024 0.0
C116 C 0.56385 0.14047 0.75207 0.0
C117 C 0.56627 0.14621 0.78599 0.0
C118 C 0.59299 0.10464 0.7363 0.0
C119 C 0.62862 0.07783 0.75458 0.0
C120 C 0.63358 0.0857 0.78855 0.0
C121 C 0.59994 0.11703 0.80399 0.0
N122 N 0.67819 0.06976 0.80766 0.0
C123 C 0.67262 0.00388 0.80593 0.0
H124 H 0.64916 0.58499 0.06047 0.0
H125 H 0.42181 0.47556 0.05718 0.0
H126 H 0.54309 0.50663 0.14696 0.0
C127 C 0.60093 0.56028 0.07283 0.0
C128 C 0.60414 0.55097 0.10609 0.0
C129 C 0.53534 0.53467 0.05516 0.0
C130 C 0.47274 0.49869 0.07092 0.0
C131 C 0.47604 0.4877 0.10389 0.0
C132 C 0.54134 0.51612 0.12154 0.0
N133 N 0.41468 0.44063 0.11863 0.0
C134 C 0.36387 0.45789 0.1249 0.0
C135 C 0.27404 0.53643 0.17143 0.0
C136 C 0.21226 0.51332 0.15043 0.0
C137 C 0.25317 0.45771 0.11152 0.0
C138 C 0.31233 0.47662 0.13352 0.0
N139 N 0.37559 0.52446 0.18606 0.0
N140 N 0.13582 0.44167 0.10358 0.0
C141 C 0.32172 0.51307 0.16403 0.0
C142 C 0.19977 0.47109 0.12127 0.0
N143 N 0.28868 0.58317 0.19756 0.0
N144 N 0.24875 0.42824 0.08114 0.0
H145 H 0.09484 0.44929 0.1103 0.0
H146 H 0.12086 0.4047 0.08388 0.0
H147 H 0.28625 0.41614 0.07348 0.0
H148 H 0.21096 0.42059 0.06275 0.0
H149 H 0.33666 0.60817 0.21167 0.0
H150 H 0.25493 0.60148 0.20377 0.0
H151 H 0.38051 0.54365 0.21001 0.0
H152 H 0.41283 0.50987 0.1811 0.0
C153 C 0.79321 0.32136 0.48206 0.0
C154 C 0.78708 0.25866 0.49387 0.0
C155 C 0.91247 0.30305 0.48724 0.0
C156 C 0.91856 0.366 0.47606 0.0
N157 N 0.87101 0.44293 0.46974 0.0
N158 N 0.8428 0.19595 0.51446 0.0
C159 C 0.86091 0.37778 0.47584 0.0
C160 C 0.84742 0.25135 0.49852 0.0
N161 N 0.73393 0.32532 0.47483 0.0
N162 N 0.96823 0.29183 0.48619 0.0
H163 H 0.79602 0.15765 0.52333 0.0
H164 H 0.8863 0.19117 0.52146 0.0
H165 H 0.01764 0.32989 0.47943 0.0
H166 H 0.96459 0.2436 0.49023 0.0
H167 H 0.73434 0.36616 0.46269 0.0
H168 H 0.68313 0.28485 0.47847 0.0
H169 H 0.83278 0.45711 0.47246 0.0
H170 H 0.92 0.48506 0.46478 0.0
C171 C 0.6582 0.84544 0.84507 0.0
C172 C 0.63796 0.79701 0.81747 0.0
C173 C 0.65587 0.89052 0.78206 0.0
C174 C 0.66582 0.93542 0.8097 0.0
N175 N 0.67171 0.95551 0.86777 0.0
N176 N 0.60641 0.76984 0.75976 0.0
C177 C 0.66589 0.91298 0.84132 0.0
C178 C 0.6343 0.81859 0.78589 0.0
N179 N 0.67223 0.82763 0.87463 0.0
N180 N 0.6681 0.9168 0.75224 0.0
H181 H 0.58789 0.71608 0.76143 0.0
H182 H 0.59544 0.78154 0.73684 0.0
H183 H 0.6857 0.9698 0.7489 0.0
H184 H 0.66807 0.88813 0.73158 0.0
H185 H 0.69399 0.8632 0.89505 0.0
H186 H 0.66842 0.779 0.87811 0.0
H187 H 0.66361 0.93861 0.89111 0.0
H188 H 0.68012 0.0065 0.86614 0.0
C189 C 0.79823 0.6535 0.13849 0.0
C190 C 0.80306 0.59985 0.15433 0.0
C191 C 0.67906 0.51562 0.13877 0.0
C192 C 0.67227 0.56944 0.12398 0.0
N193 N 0.72082 0.6941 0.11739 0.0
N194 N 0.74338 0.48999 0.17972 0.0
C195 C 0.73046 0.64009 0.12632 0.0
C196 C 0.74137 0.53465 0.1582 0.0
N197 N 0.85811 0.71536 0.13356 0.0
N198 N 0.62898 0.44574 0.13226 0.0
H199 H 0.78891 0.50363 0.19457 0.0
H200 H 0.69835 0.44375 0.18515 0.0
H201 H 0.58525 0.42813 0.11561 0.0
H202 H 0.6354 0.40483 0.14042 0.0
H203 H 0.85822 0.7528 0.11882 0.0
H204 H 0.90825 0.72737 0.14281 0.0
H205 H 0.76011 0.74721 0.12118 0.0
H206 H 0.67156 0.68613 0.10904 0.0
C207 C 0.27379 0.77876 0.51177 0.0
C208 C 0.27594 0.84297 0.50606 0.0
C209 C 0.16004 0.77348 0.47552 0.0
C210 C 0.17138 0.71514 0.47264 0.0
N211 N 0.24874 0.66847 0.48527 0.0
N212 N 0.21173 0.89981 0.48896 0.0
C213 C 0.23032 0.71878 0.49037 0.0
C214 C 0.21564 0.83977 0.49007 0.0
N215 N 0.31183 0.77427 0.53765 0.0
N216 N 0.09617 0.76495 0.46485 0.0
H217 H 0.24746 0.94641 0.50282 0.0
H218 H 0.17387 0.90343 0.47436 0.0
H219 H 0.0541 0.71628 0.45515 0.0
H220 H 0.08272 0.80385 0.46828 0.0
H221 H 0.30855 0.72673 0.54312 0.0
H222 H 0.3369 0.81455 0.55619 0.0
H223 H 0.29507 0.67352 0.49617 0.0
H224 H 0.22313 0.62654 0.46756 0.0
C225 C 0.44477 0.2189 0.80348 0.0
C226 C 0.48832 0.27368 0.82761 0.0
C227 C 0.57653 0.23853 0.82781 0.0
C228 C 0.53601 0.18542 0.80249 0.0
N229 N 0.41958 0.10811 0.77556 0.0
N230 N 0.56687 0.29823 0.87552 0.0
C231 C 0.46597 0.16999 0.79316 0.0
C232 C 0.54427 0.27052 0.84431 0.0
N233 N 0.38346 0.21328 0.79089 0.0
N234 N 0.64687 0.26301 0.8347 0.0
H235 H 0.53931 0.3159 0.88918 0.0
H236 H 0.60622 0.29406 0.88868 0.0
H237 H 0.67595 0.24808 0.82069 0.0
H238 H 0.67783 0.30507 0.85191 0.0
H239 H 0.35398 0.18036 0.77042 0.0
H240 H 0.36257 0.24224 0.80124 0.0
H241 H 0.36657 0.09182 0.77001 0.0
H242 H 0.43242 0.06958 0.76943 0.0
C243 C 0.64936 0.87523 0.54333 0.0
C244 C 0.61348 0.87348 0.51357 0.0
C245 C 0.61107 0.76552 0.49408 0.0
C246 C 0.63884 0.76276 0.52524 0.0
N247 N 0.68012 0.81049 0.5805 0.0
N248 N 0.55347 0.81442 0.46161 0.0
C249 C 0.6571 0.81651 0.55016 0.0
C250 C 0.59313 0.81836 0.48899 0.0
N251 N 0.67758 0.93397 0.56461 0.0
N252 N 0.60247 0.718 0.46931 0.0
H253 H 0.53973 0.85246 0.45684 0.0
H254 H 0.52986 0.77099 0.44462 0.0
H255 H 0.61356 0.67749 0.47237 0.0
H256 H 0.58967 0.72194 0.44525 0.0
H257 H 0.71013 0.9415 0.58532 0.0
H258 H 0.67372 0.97842 0.56007 0.0
H259 H 0.68645 0.84363 0.60066 0.0
H260 H 0.68859 0.76922 0.58604 0.0
C261 C 0.8604 0.62636 0.85324 0.0
C262 C 0.79915 0.56437 0.83934 0.0
C263 C 0.85741 0.49498 0.84662 0.0
C264 C 0.91681 0.55582 0.86246 0.0
N265 N 0.98404 0.68237 0.87329 0.0
N266 N 0.74522 0.44585 0.81432 0.0
C267 C 0.92144 0.62275 0.86297 0.0
C268 C 0.79985 0.50064 0.83312 0.0
N269 N 0.85855 0.68719 0.85901 0.0
N270 N 0.85479 0.43134 0.84602 0.0
H271 H 0.70262 0.44906 0.80407 0.0
H272 H 0.7449 0.40001 0.8065 0.0
H273 H 0.89751 0.42644 0.85458 0.0
H274 H 0.80987 0.38322 0.83827 0.0
H275 H 0.89824 0.73186 0.87258 0.0
H276 H 0.81524 0.69198 0.85143 0.0
H277 H -0.00687 0.73351 0.87181 0.0
H278 H 0.02925 0.68082 0.88084 0.0
C279 C 0.22077 0.8896 0.19573 0.0
C280 C 0.21583 0.83725 0.1728 0.0
C281 C 0.34113 0.88034 0.18298 0.0
C282 C 0.34705 0.93111 0.2072 0.0
N283 N 0.29263 0.99387 0.2308 0.0
N284 N 0.28023 0.8183 0.13184 0.0
C285 C 0.2875 0.93917 0.21178 0.0
C286 C 0.27903 0.84438 0.16209 0.0
N287 N 0.16269 0.89465 0.20112 0.0
N288 N 0.39235 0.86272 0.18097 0.0
H289 H 0.23692 0.79851 0.11469 0.0
H290 H 0.32679 0.82597 0.12269 0.0
H291 H 0.43616 0.88243 0.19776 0.0
H292 H 0.38647 0.82196 0.16486 0.0
H293 H 0.16407 0.93139 0.21841 0.0
H294 H 0.11499 0.86507 0.18689 0.0
H295 H 0.33992 0.03471 0.24235 0.0
H296 H 0.33992 0.03471 0.24235 0.0
C297 C 0.4247 0.26072 0.52142 0.0
C298 C 0.4727 0.25175 0.5033 0.0
C299 C 0.55697 0.37752 0.50918 0.0
C300 C 0.50992 0.38821 0.52781 0.0
N301 N 0.38977 0.34284 0.54184 0.0
N302 N 0.56651 0.30222 0.46801 0.0
C303 C 0.44029 0.33063 0.53056 0.0
C304 C 0.53173 0.31097 0.49249 0.0
N305 N 0.36669 0.20291 0.53119 0.0
N306 N 0.62741 0.42691 0.51026 0.0
H307 H 0.54889 0.25258 0.45611 0.0
H308 H 0.60736 0.34485 0.45767 0.0
H309 H 0.65163 0.47292 0.52567 0.0
H310 H 0.66358 0.41763 0.49889 0.0
H311 H 0.33386 0.20632 0.54757 0.0
H312 H 0.35356 0.15144 0.52365 0.0
H313 H 0.33705 0.30322 0.54225 0.0
H314 H 0.39939 0.39384 0.54768 0.0
C315 C 0.24319 0.43342 0.83834 0.0
C316 C 0.29173 0.48092 0.81755 0.0
C317 C 0.22913 0.54678 0.8155 0.0
C318 C 0.18755 0.50575 0.83984 0.0
N319 N 0.13683 0.39771 0.86652 0.0
N320 N 0.31888 0.56679 0.77835 0.0
C321 C 0.18801 0.44417 0.84828 0.0
C322 C 0.27985 0.53186 0.80313 0.0
N323 N 0.2533 0.38175 0.85028 0.0
N324 N 0.22262 0.6022 0.80583 0.0
H325 H 0.35582 0.55548 0.76914 0.0
H326 H 0.31126 0.60237 0.76538 0.0
H327 H 0.18356 0.61166 0.81383 0.0
H328 H 0.25591 0.63913 0.79056 0.0
H329 H 0.22493 0.35012 0.86834 0.0
H330 H 0.29201 0.37167 0.84243 0.0
H331 H 0.13099 0.34931 0.87212 0.0
H332 H 0.09628 0.40557 0.87381 0.0
C333 C 0.79683 0.33099 0.21681 0.0
C334 C 0.84959 0.32921 0.19906 0.0
C335 C 0.79223 0.20113 0.2022 0.0
C336 C 0.73387 0.20192 0.21478 0.0
N337 N 0.67893 0.26511 0.23525 0.0
N338 N 0.90041 0.26494 0.17515 0.0
C339 C 0.73609 0.26627 0.22292 0.0
C340 C 0.84882 0.26501 0.19227 0.0
N341 N 0.80557 0.39461 0.2281 0.0
N342 N 0.79301 0.13919 0.19976 0.0
H343 H 0.94344 0.31124 0.16826 0.0
H344 H 0.89902 0.21915 0.1663 0.0
H345 H 0.75199 0.09189 0.20708 0.0
H346 H 0.83628 0.13559 0.19322 0.0
H347 H 0.77235 0.39966 0.24365 0.0
H348 H 0.84974 0.44302 0.22405 0.0
H349 H 0.67327 0.30934 0.23797 0.0
H350 H 0.63527 0.21861 0.24159 0.0
C351 C 0.98579 0.59329 0.02564 0.0
C352 C 0.98601 0.53827 0.04236 0.0
C353 C 0.98261 0.47794 0.9907 0.0
C354 C -0.00655 0.5382 0.97468 0.0
N355 N 0.01452 0.65765 0.97735 0.0
N356 N 0.99203 0.43128 0.04152 0.0
C357 C -0.00303 0.59696 0.9922 0.0
C358 C 0.98562 0.48086 0.0251 0.0
N359 N 0.97358 0.64131 0.04169 0.0
N360 N 0.96847 0.41769 0.97298 0.0
H361 H -0.00581 0.43131 0.0667 0.0
H362 H 0.0006 0.39318 0.03033 0.0
H363 H 0.96572 0.41378 0.94771 0.0
H364 H 0.95316 0.36982 0.9831 0.0
H365 H 0.96588 0.67845 0.03009 0.0
H366 H 0.96392 0.63932 0.06614 0.0
H367 H 0.02561 0.70471 0.98987 0.0
H368 H 0.0241 0.66313 0.95295 0.0
C369 C 0.51216 0.08961 0.36459 0.0
C370 C 0.50394 0.03014 0.38059 0.0
C371 C 0.49563 0.96871 0.32834 0.0
C372 C 0.49779 0.02563 0.31228 0.0
N373 N 0.49784 0.13566 0.31431 0.0
N374 N 0.47762 0.90916 0.37809 0.0
C375 C 0.50317 0.08485 0.33019 0.0
C376 C 0.49304 0.96859 0.36257 0.0
N377 N 0.53152 0.15165 0.3822 0.0
N378 N 0.49766 0.91559 0.31089 0.0
H379 H 0.47502 0.90709 0.40313 0.0
H380 H 0.46161 0.86023 0.36606 0.0
H381 H 0.49877 0.91358 0.28574 0.0
H382 H 0.5039 0.87658 0.32143 0.0
H383 H 0.54606 0.19907 0.37181 0.0
H384 H 0.53896 0.15751 0.40744 0.0
H385 H 0.49306 0.17575 0.32603 0.0
H386 H 0.49278 0.13482 0.28911 0.0
C387 C 0.59534 0.50068 0.6867 0.0
C388 C 0.54893 0.51815 0.70173 0.0
C389 C 0.50838 0.53702 0.64883 0.0
C390 C 0.55899 0.52525 0.63422 0.0
N391 N 0.65783 0.50609 0.6393 0.0
N392 N 0.46864 0.56282 0.69841 0.0
C393 C 0.60457 0.50997 0.6532 0.0
C394 C 0.5072 0.53882 0.68315 0.0
N395 N 0.62873 0.47291 0.70427 0.0
N396 N 0.46035 0.54471 0.62981 0.0
H397 H 0.46592 0.5643 0.72346 0.0
H398 H 0.44359 0.58624 0.6866 0.0
H399 H 0.46074 0.54536 0.60465 0.0
H400 H 0.41712 0.54539 0.63861 0.0
H401 H 0.65723 0.45197 0.69402 0.0
H402 H 0.6229 0.465 0.72885 0.0
H403 H 0.69755 0.50277 0.65247 0.0
H404 H 0.66591 0.51205 0.61476 0.0
C405 C 0.63632 0.12284 0.64802 0.0
C406 C 0.56711 0.0852 0.6321 0.0
C407 C 0.51721 0.05094 0.68435 0.0
C408 C 0.58533 0.09551 0.70039 0.0
N409 N 0.70824 0.18369 0.69781 0.0
N410 N 0.44067 0.02524 0.63557 0.0
C411 C 0.64461 0.13427 0.68233 0.0
C412 C 0.50717 0.05232 0.65038 0.0
N413 N 0.69411 0.14497 0.63057 0.0
N414 N 0.46242 0.00602 0.70148 0.0
H415 H 0.43099 0.0274 0.61087 0.0
H416 H 0.39569 0.00722 0.64829 0.0
H417 H 0.46801 0.0027 0.72639 0.0
H418 H 0.4134 0.96727 0.69055 0.0
H419 H 0.74532 0.16609 0.64127 0.0
H420 H 0.69048 0.13593 0.60546 0.0
H421 H 0.7511 0.2189 0.68559 0.0
H422 H 0.71645 0.19376 0.72293 0.0
C423 C 0.5662 0.61036 0.97231 0.0
C424 C 0.53453 0.54722 0.95155 0.0
C425 C 0.50536 0.47637 0.99865 0.0
C426 C 0.5324 0.53898 0.01943 0.0
N427 N 0.57571 0.6643 0.02602 0.0
N428 N 0.45684 0.42043 0.94484 0.0
C429 C 0.55883 0.6057 0.00623 0.0
C430 C 0.4988 0.48029 0.96472 0.0
N431 N 0.60622 0.67446 0.95996 0.0
N432 N 0.48915 0.41359 0.0111 0.0
H433 H 0.44862 0.42129 0.91988 0.0
H434 H 0.42422 0.37118 0.9535 0.0
H435 H 0.49499 0.40839 0.03578 0.0
H436 H 0.47656 0.36813 0.99668 0.0
H437 H 0.63695 0.72145 0.97438 0.0
H438 H 0.61341 0.6801 0.93535 0.0
H439 H 0.5885 0.71298 0.0174 0.0
H440 H 0.57075 0.66266 0.05093 0.0
C441 C 0.12848 0.65135 0.3076 0.0
C442 C 0.05991 0.62193 0.29165 0.0
C443 C 0.0083 0.59654 0.34393 0.0
C444 C 0.07543 0.61555 0.3591 0.0
N445 N 0.19885 0.65423 0.35512 0.0
N446 N 0.93299 0.5587 0.29395 0.0
C447 C 0.13566 0.64177 0.34095 0.0
C448 C -0.00072 0.59312 0.30962 0.0
N449 N 0.18667 0.68937 0.29088 0.0
N450 N 0.95345 0.5826 0.36238 0.0
H451 H 0.92365 0.55443 0.26883 0.0
H452 H 0.88717 0.5294 0.30569 0.0
H453 H 0.9583 0.58471 0.38764 0.0
H454 H 0.9053 0.57549 0.35289 0.0
H455 H 0.23798 0.71795 0.30187 0.0
H456 H 0.18298 0.6981 0.26647 0.0
H457 H 0.2424 0.66584 0.34218 0.0
H458 H 0.20629 0.64731 0.37945 0.0
loop_
_geom_bond_atom_site_label_1
_geom_bond_atom_site_label_2
_geom_bond_distance
_geom_bond_site_symmetry_2
_ccdc_geom_bond_type
O0 Zn1 1.953 . S
O0 C16 1.225 . S
Zn1 O0 1.953 . S
Zn1 O2 1.949 . S
Zn1 O8 1.919 1_455 S
Zn1 O13 1.924 . S
O2 Zn1 1.949 . S
O2 Zn3 1.923 1_455 S
O2 Zn4 1.950 . S
O2 Zn5 1.945 . S
Zn3 O2 1.923 1_655 S
Zn3 O6 1.933 . S
Zn3 O9 1.941 . S
Zn3 O10 1.965 . S
Zn4 O2 1.950 . S
Zn4 O11 1.938 1_455 S
Zn4 O12 1.906 . S
Zn4 O22 1.953 . S
Zn5 O2 1.945 . S
Zn5 O7 1.932 . S
Zn5 O14 1.977 . S
Zn5 O15 1.910 . S
O6 Zn3 1.933 . S
O6 C17 1.226 1_655 S
O7 Zn5 1.932 . S
O7 C17 1.307 . S
O8 Zn1 1.919 1_655 S
O8 C19 1.253 . S
O9 Zn3 1.941 . S
O9 C19 1.283 . S
O10 Zn3 1.965 . S
O10 C18 1.303 . S
O11 Zn4 1.938 1_655 S
O11 C18 1.247 . S
O12 Zn4 1.906 . S
O12 C20 1.304 . S
O13 Zn1 1.924 . S
O13 C21 1.311 . S
O14 Zn5 1.977 . S
O14 C20 1.272 . S
O15 Zn5 1.910 . S
O15 C21 1.231 . S
C16 O0 1.225 . S
C16 O22 1.298 . S
C17 O6 1.226 1_455 S
C17 O7 1.307 . S
C18 O10 1.303 . S
C18 O11 1.247 . S
C19 O8 1.253 . S
C19 O9 1.283 . S
C20 O12 1.304 . S
C20 O14 1.272 . S
C21 O13 1.311 . S
C21 O15 1.231 . S
O22 Zn4 1.953 . S
O22 C16 1.298 . S
O23 Zn24 1.953 . S
O23 C39 1.225 . S
Zn24 O23 1.953 . S
Zn24 O25 1.949 . S
Zn24 O31 1.919 . S
Zn24 O36 1.924 1_545 S
O25 Zn24 1.949 . S
O25 Zn26 1.923 . S
O25 Zn27 1.950 . S
O25 Zn28 1.945 1_545 S
Zn26 O25 1.923 . S
Zn26 O29 1.933 . S
Zn26 O32 1.941 . S
Zn26 O33 1.965 . S
Zn27 O25 1.950 . S
Zn27 O34 1.938 . S
Zn27 O35 1.906 1_545 S
Zn27 O45 1.953 . S
Zn28 O25 1.945 1_565 S
Zn28 O30 1.932 1_565 S
Zn28 O37 1.977 . S
Zn28 O38 1.910 . S
O29 Zn26 1.933 . S
O29 C40 1.226 . S
O30 Zn28 1.932 1_545 S
O30 C40 1.307 . S
O31 Zn24 1.919 . S
O31 C42 1.253 . S
O32 Zn26 1.941 . S
O32 C42 1.283 . S
O33 Zn26 1.965 . S
O33 C41 1.303 . S
O34 Zn27 1.938 . S
O34 C41 1.247 . S
O35 Zn27 1.906 1_565 S
O35 C43 1.304 . S
O36 Zn24 1.924 1_565 S
O36 C44 1.311 . S
O37 Zn28 1.977 . S
O37 C43 1.272 . S
O38 Zn28 1.910 . S
O38 C44 1.231 . S
C39 O23 1.225 . S
C39 O45 1.298 . S
C40 O29 1.226 . S
C40 O30 1.307 . S
C41 O33 1.303 . S
C41 O34 1.247 . S
C42 O31 1.253 . S
C42 O32 1.283 . S
C43 O35 1.304 . S
C43 O37 1.272 . S
C44 O36 1.311 . S
C44 O38 1.231 . S
O45 Zn27 1.953 . S
O45 C39 1.298 . S
O46 Zn47 1.953 . S
O46 C62 1.225 . S
Zn47 O46 1.953 . S
Zn47 O48 1.949 . S
Zn47 O54 1.919 . S
Zn47 O59 1.924 . S
O48 Zn47 1.949 . S
O48 Zn49 1.923 . S
O48 Zn50 1.950 . S
O48 Zn51 1.945 . S
Zn49 O48 1.923 . S
Zn49 O52 1.933 . S
Zn49 O55 1.941 . S
Zn49 O56 1.965 . S
Zn50 O48 1.950 . S
Zn50 O57 1.938 . S
Zn50 O58 1.906 . S
Zn50 O68 1.953 . S
Zn51 O48 1.945 . S
Zn51 O53 1.932 . S
Zn51 O60 1.977 . S
Zn51 O61 1.910 . S
O52 Zn49 1.933 . S
O52 C63 1.226 . S
O53 Zn51 1.932 . S
O53 C63 1.307 . S
O54 Zn47 1.919 . S
O54 C65 1.253 . S
O55 Zn49 1.941 . S
O55 C65 1.283 . S
O56 Zn49 1.965 . S
O56 C64 1.303 . S
O57 Zn50 1.938 . S
O57 C64 1.247 . S
O58 Zn50 1.906 . S
O58 C66 1.304 . S
O59 Zn47 1.924 . S
O59 C67 1.311 . S
O60 Zn51 1.977 . S
O60 C66 1.272 . S
O61 Zn51 1.910 . S
O61 C67 1.231 . S
C62 O46 1.225 . S
C62 O68 1.298 . S
C63 O52 1.226 . S
C63 O53 1.307 . S
C64 O56 1.303 . S
C64 O57 1.247 . S
C65 O54 1.253 . S
C65 O55 1.283 . S
C66 O58 1.304 . S
C66 O60 1.272 . S
C67 O59 1.311 . S
C67 O61 1.231 . S
O68 Zn50 1.953 . S
O68 C62 1.298 . S
H69 C72 0.929 . S
H70 C75 0.929 . S
H71 C77 0.930 . S
C72 H69 0.929 . S
C72 C73 1.398 . S
C72 C74 1.396 1_565 S
C73 C72 1.398 . S
C73 C77 1.407 1_565 S
C74 C72 1.396 1_545 S
C74 C75 1.394 . S
C75 H70 0.929 . S
C75 C74 1.394 . S
C75 C76 1.382 . S
C76 C75 1.382 . S
C76 C77 1.392 . S
C76 N78 1.420 . S
C77 H71 0.930 . S
C77 C73 1.407 1_545 S
C77 C76 1.392 . S
N78 C76 1.420 . S
N78 C79 1.244 . S
C79 N78 1.244 . S
H80 C83 0.929 . S
H81 C86 0.929 . S
H82 C88 0.930 . S
C83 H80 0.929 . S
C83 C84 1.398 . S
C83 C85 1.396 . S
C84 C83 1.398 . S
C84 C88 1.407 . S
C85 C83 1.396 . S
C85 C86 1.394 . S
C86 H81 0.929 . S
C86 C85 1.394 . S
C86 C87 1.382 . S
C87 C86 1.382 . S
C87 C88 1.392 . S
C87 N89 1.420 . S
C88 H82 0.930 . S
C88 C84 1.407 . S
C88 C87 1.392 . S
N89 C87 1.420 . S
N89 C90 1.244 . S
C90 N89 1.244 . S
H91 C94 0.929 . S
H92 C97 0.929 . S
H93 C99 0.930 . S
C94 H91 0.929 . S
C94 C95 1.398 . S
C94 C96 1.396 1_655 S
C95 C94 1.398 . S
C95 C99 1.407 1_655 S
C96 C94 1.396 1_455 S
C96 C97 1.394 . S
C97 H92 0.929 . S
C97 C96 1.394 . S
C97 C98 1.382 . S
C98 C97 1.382 . S
C98 C99 1.392 . S
C98 N100 1.420 . S
C99 H93 0.930 . S
C99 C95 1.407 1_455 S
C99 C98 1.392 . S
N100 C98 1.420 . S
N100 C101 1.244 . S
C101 N100 1.244 . S
H102 C105 0.929 . S
H103 C108 0.929 1_655 S
H104 C110 0.930 . S
C105 H102 0.929 . S
C105 C106 1.398 . S
C105 C107 1.396 . S
C106 C105 1.398 . S
C106 C110 1.407 . S
C107 C105 1.396 . S
C107 C108 1.394 . S
C108 H103 0.929 1_455 S
C108 C107 1.394 . S
C108 C109 1.382 . S
C109 C108 1.382 . S
C109 C110 1.392 . S
C109 N111 1.420 1_455 S
C110 H104 0.930 . S
C110 C106 1.407 . S
C110 C109 1.392 . S
N111 C109 1.420 1_655 S
N111 C112 1.244 . S
C112 N111 1.244 . S
H113 C116 0.929 . S
H114 C119 0.929 1_565 S
H115 C121 0.930 . S
C116 H113 0.929 . S
C116 C117 1.398 . S
C116 C118 1.396 . S
C117 C116 1.398 . S
C117 C121 1.407 . S
C118 C116 1.396 . S
C118 C119 1.394 . S
C119 H114 0.929 1_545 S
C119 C118 1.394 . S
C119 C120 1.382 . S
C120 C119 1.382 . S
C120 C121 1.392 . S
C120 N122 1.420 1_545 S
C121 H115 0.930 . S
C121 C117 1.407 . S
C121 C120 1.392 . S
N122 C120 1.420 1_565 S
N122 C123 1.244 . S
C123 N122 1.244 . S
H124 C127 0.929 . S
H125 C130 0.929 . S
H126 C132 0.930 . S
C127 H124 0.929 . S
C127 C128 1.398 . S
C127 C129 1.396 . S
C128 C127 1.398 . S
C128 C132 1.407 . S
C129 C127 1.396 . S
C129 C130 1.394 . S
C130 H125 0.929 . S
C130 C129 1.394 . S
C130 C131 1.382 . S
C131 C130 1.382 . S
C131 C132 1.392 . S
C131 N133 1.420 . S
C132 H126 0.930 . S
C132 C128 1.407 . S
C132 C131 1.392 . S
N133 C131 1.420 . S
N133 C134 1.244 . S
C134 N133 1.244 . S
C135 C136 1.363 . S
C135 C141 1.379 . S
C135 N143 1.356 . S
C136 C135 1.363 . S
C136 C142 1.363 . S
C137 C138 1.363 . S
C137 C142 1.379 . S
C137 N144 1.356 . S
C138 C137 1.363 . S
C138 C141 1.363 . S
N139 C141 1.356 . S
N139 H151 0.984 . S
N139 H152 0.985 . S
N140 C142 1.356 . S
N140 H145 0.984 . S
N140 H146 0.985 . S
C141 C135 1.379 . S
C141 C138 1.363 . S
C141 N139 1.356 . S
C142 C136 1.363 . S
C142 C137 1.379 . S
C142 N140 1.356 . S
N143 C135 1.356 . S
N143 H149 0.984 . S
N143 H150 0.984 . S
N144 C137 1.356 . S
N144 H147 0.984 . S
N144 H148 0.985 . S
H145 N140 0.984 . S
H146 N140 0.985 . S
H147 N144 0.984 . S
H148 N144 0.985 . S
H149 N143 0.984 . S
H150 N143 0.984 . S
H151 N139 0.984 . S
H152 N139 0.985 . S
C153 C154 1.363 . S
C153 C159 1.379 . S
C153 N161 1.356 . S
C154 C153 1.363 . S
C154 C160 1.363 . S
C155 C156 1.363 . S
C155 C160 1.379 . S
C155 N162 1.356 . S
C156 C155 1.363 . S
C156 C159 1.363 . S
N157 C159 1.356 . S
N157 H169 0.984 . S
N157 H170 0.985 . S
N158 C160 1.356 . S
N158 H163 0.984 . S
N158 H164 0.985 . S
C159 C153 1.379 . S
C159 C156 1.363 . S
C159 N157 1.356 . S
C160 C154 1.363 . S
C160 C155 1.379 . S
C160 N158 1.356 . S
N161 C153 1.356 . S
N161 H167 0.984 . S
N161 H168 0.984 . S
N162 C155 1.356 . S
N162 H165 0.984 . S
N162 H166 0.985 . S
H163 N158 0.984 . S
H164 N158 0.985 . S
H165 N162 0.984 . S
H166 N162 0.985 . S
H167 N161 0.984 . S
H168 N161 0.984 . S
H169 N157 0.984 . S
H170 N157 0.985 . S
C171 C172 1.363 . S
C171 C177 1.379 . S
C171 N179 1.356 . S
C172 C171 1.363 . S
C172 C178 1.363 . S
C173 C174 1.363 . S
C173 C178 1.379 . S
C173 N180 1.356 . S
C174 C173 1.363 . S
C174 C177 1.363 . S
N175 C177 1.356 . S
N175 H187 0.984 . S
N175 H188 0.985 . S
N176 C178 1.356 . S
N176 H181 0.984 . S
N176 H182 0.985 . S
C177 C171 1.379 . S
C177 C174 1.363 . S
C177 N175 1.356 . S
C178 C172 1.363 . S
C178 C173 1.379 . S
C178 N176 1.356 . S
N179 C171 1.356 . S
N179 H185 0.984 . S
N179 H186 0.984 . S
N180 C173 1.356 . S
N180 H183 0.984 . S
N180 H184 0.985 . S
H181 N176 0.984 . S
H182 N176 0.985 . S
H183 N180 0.984 . S
H184 N180 0.985 . S
H185 N179 0.984 . S
H186 N179 0.984 . S
H187 N175 0.984 . S
H188 N175 0.985 . S
C189 C190 1.363 . S
C189 C195 1.379 . S
C189 N197 1.356 . S
C190 C189 1.363 . S
C190 C196 1.363 . S
C191 C192 1.363 . S
C191 C196 1.379 . S
C191 N198 1.356 . S
C192 C191 1.363 . S
C192 C195 1.363 . S
N193 C195 1.356 . S
N193 H205 0.984 . S
N193 H206 0.985 . S
N194 C196 1.356 . S
N194 H199 0.984 . S
N194 H200 0.985 . S
C195 C189 1.379 . S
C195 C192 1.363 . S
C195 N193 1.356 . S
C196 C190 1.363 . S
C196 C191 1.379 . S
C196 N194 1.356 . S
N197 C189 1.356 . S
N197 H203 0.984 . S
N197 H204 0.984 . S
N198 C191 1.356 . S
N198 H201 0.984 . S
N198 H202 0.985 . S
H199 N194 0.984 . S
H200 N194 0.985 . S
H201 N198 0.984 . S
H202 N198 0.985 . S
H203 N197 0.984 . S
H204 N197 0.984 . S
H205 N193 0.984 . S
H206 N193 0.985 . S
C207 C208 1.363 . S
C207 C213 1.379 . S
C207 N215 1.356 . S
C208 C207 1.363 . S
C208 C214 1.363 . S
C209 C210 1.363 . S
C209 C214 1.379 . S
C209 N216 1.356 . S
C210 C209 1.363 . S
C210 C213 1.363 . S
N211 C213 1.356 . S
N211 H223 0.984 . S
N211 H224 0.985 . S
N212 C214 1.356 . S
N212 H217 0.984 . S
N212 H218 0.985 . S
C213 C207 1.379 . S
C213 C210 1.363 . S
C213 N211 1.356 . S
C214 C208 1.363 . S
C214 C209 1.379 . S
C214 N212 1.356 . S
N215 C207 1.356 . S
N215 H221 0.984 . S
N215 H222 0.984 . S
N216 C209 1.356 . S
N216 H219 0.984 . S
N216 H220 0.985 . S
H217 N212 0.984 . S
H218 N212 0.985 . S
H219 N216 0.984 . S
H220 N216 0.985 . S
H221 N215 0.984 . S
H222 N215 0.984 . S
H223 N211 0.984 . S
H224 N211 0.985 . S
C225 C226 1.363 . S
C225 C231 1.379 . S
C225 N233 1.356 . S
C226 C225 1.363 . S
C226 C232 1.363 . S
C227 C228 1.363 . S
C227 C232 1.379 . S
C227 N234 1.356 . S
C228 C227 1.363 . S
C228 C231 1.363 . S
N229 C231 1.356 . S
N229 H241 0.984 . S
N229 H242 0.985 . S
N230 C232 1.356 . S
N230 H235 0.984 . S
N230 H236 0.985 . S
C231 C225 1.379 . S
C231 C228 1.363 . S
C231 N229 1.356 . S
C232 C226 1.363 . S
C232 C227 1.379 . S
C232 N230 1.356 . S
N233 C225 1.356 . S
N233 H239 0.984 . S
N233 H240 0.984 . S
N234 C227 1.356 . S
N234 H237 0.984 . S
N234 H238 0.985 . S
H235 N230 0.984 . S
H236 N230 0.985 . S
H237 N234 0.984 . S
H238 N234 0.985 . S
H239 N233 0.984 . S
H240 N233 0.984 . S
H241 N229 0.984 . S
H242 N229 0.985 . S
C243 C244 1.363 . S
C243 C249 1.379 . S
C243 N251 1.356 . S
C244 C243 1.363 . S
C244 C250 1.363 . S
C245 C246 1.363 . S
C245 C250 1.379 . S
C245 N252 1.356 . S
C246 C245 1.363 . S
C246 C249 1.363 . S
N247 C249 1.356 . S
N247 H259 0.984 . S
N247 H260 0.985 . S
N248 C250 1.356 . S
N248 H253 0.984 . S
N248 H254 0.985 . S
C249 C243 1.379 . S
C249 C246 1.363 . S
C249 N247 1.356 . S
C250 C244 1.363 . S
C250 C245 1.379 . S
C250 N248 1.356 . S
N251 C243 1.356 . S
N251 H257 0.984 . S
N251 H258 0.984 . S
N252 C245 1.356 . S
N252 H255 0.984 . S
N252 H256 0.985 . S
H253 N248 0.984 . S
H254 N248 0.985 . S
H255 N252 0.984 . S
H256 N252 0.985 . S
H257 N251 0.984 . S
H258 N251 0.984 . S
H259 N247 0.984 . S
H260 N247 0.985 . S
C261 C262 1.363 . S
C261 C267 1.379 . S
C261 N269 1.356 . S
C262 C261 1.363 . S
C262 C268 1.363 . S
C263 C264 1.363 . S
C263 C268 1.379 . S
C263 N270 1.356 . S
C264 C263 1.363 . S
C264 C267 1.363 . S
N265 C267 1.356 . S
N265 H277 0.984 . S
N265 H278 0.985 . S
N266 C268 1.356 . S
N266 H271 0.984 . S
N266 H272 0.985 . S
C267 C261 1.379 . S
C267 C264 1.363 . S
C267 N265 1.356 . S
C268 C262 1.363 . S
C268 C263 1.379 . S
C268 N266 1.356 . S
N269 C261 1.356 . S
N269 H275 0.984 . S
N269 H276 0.984 . S
N270 C263 1.356 . S
N270 H273 0.984 . S
N270 H274 0.985 . S
H271 N266 0.984 . S
H272 N266 0.985 . S
H273 N270 0.984 . S
H274 N270 0.985 . S
H275 N269 0.984 . S
H276 N269 0.984 . S
H277 N265 0.984 . S
H278 N265 0.985 . S
C279 C280 1.363 . S
C279 C285 1.379 . S
C279 N287 1.356 . S
C280 C279 1.363 . S
C280 C286 1.363 . S
C281 C282 1.363 . S
C281 C286 1.379 . S
C281 N288 1.356 . S
C282 C281 1.363 . S
C282 C285 1.363 . S
N283 C285 1.356 . S
N283 H295 0.984 . S
N283 H296 0.985 . S
N284 C286 1.356 . S
N284 H289 0.984 . S
N284 H290 0.985 . S
C285 C279 1.379 . S
C285 C282 1.363 . S
C285 N283 1.356 . S
C286 C280 1.363 . S
C286 C281 1.379 . S
C286 N284 1.356 . S
N287 C279 1.356 . S
N287 H293 0.984 . S
N287 H294 0.984 . S
N288 C281 1.356 . S
N288 H291 0.984 . S
N288 H292 0.985 . S
H289 N284 0.984 . S
H290 N284 0.985 . S
H291 N288 0.984 . S
H292 N288 0.985 . S
H293 N287 0.984 . S
H294 N287 0.984 . S
H295 N283 0.984 . S
H296 N283 0.985 . S
C297 C298 1.363 . S
C297 C303 1.379 . S
C297 N305 1.356 . S
C298 C297 1.363 . S
C298 C304 1.363 . S
C299 C300 1.363 . S
C299 C304 1.379 . S
C299 N306 1.356 . S
C300 C299 1.363 . S
C300 C303 1.363 . S
N301 C303 1.356 . S
N301 H313 0.984 . S
N301 H314 0.985 . S
N302 C304 1.356 . S
N302 H307 0.984 . S
N302 H308 0.985 . S
C303 C297 1.379 . S
C303 C300 1.363 . S
C303 N301 1.356 . S
C304 C298 1.363 . S
C304 C299 1.379 . S
C304 N302 1.356 . S
N305 C297 1.356 . S
N305 H311 0.984 . S
N305 H312 0.984 . S
N306 C299 1.356 . S
N306 H309 0.984 . S
N306 H310 0.985 . S
H307 N302 0.984 . S
H308 N302 0.985 . S
H309 N306 0.984 . S
H310 N306 0.985 . S
H311 N305 0.984 . S
H312 N305 0.984 . S
H313 N301 0.984 . S
H314 N301 0.985 . S
C315 C316 1.363 . S
C315 C321 1.379 . S
C315 N323 1.356 . S
C316 C315 1.363 . S
C316 C322 1.363 . S
C317 C318 1.363 . S
C317 C322 1.379 . S
C317 N324 1.356 . S
C318 C317 1.363 . S
C318 C321 1.363 . S
N319 C321 1.356 . S
N319 H331 0.984 . S
N319 H332 0.985 . S
N320 C322 1.356 . S
N320 H325 0.984 . S
N320 H326 0.985 . S
C321 C315 1.379 . S
C321 C318 1.363 . S
C321 N319 1.356 . S
C322 C316 1.363 . S
C322 C317 1.379 . S
C322 N320 1.356 . S
N323 C315 1.356 . S
N323 H329 0.984 . S
N323 H330 0.984 . S
N324 C317 1.356 . S
N324 H327 0.984 . S
N324 H328 0.985 . S
H325 N320 0.984 . S
H326 N320 0.985 . S
H327 N324 0.984 . S
H328 N324 0.985 . S
H329 N323 0.984 . S
H330 N323 0.984 . S
H331 N319 0.984 . S
H332 N319 0.985 . S
C333 C334 1.363 . S
C333 C339 1.379 . S
C333 N341 1.356 . S
C334 C333 1.363 . S
C334 C340 1.363 . S
C335 C336 1.363 . S
C335 C340 1.379 . S
C335 N342 1.356 . S
C336 C335 1.363 . S
C336 C339 1.363 . S
N337 C339 1.356 . S
N337 H349 0.984 . S
N337 H350 0.985 . S
N338 C340 1.356 . S
N338 H343 0.984 . S
N338 H344 0.985 . S
C339 C333 1.379 . S
C339 C336 1.363 . S
C339 N337 1.356 . S
C340 C334 1.363 . S
C340 C335 1.379 . S
C340 N338 1.356 . S
N341 C333 1.356 . S
N341 H347 0.984 . S
N341 H348 0.984 . S
N342 C335 1.356 . S
N342 H345 0.984 . S
N342 H346 0.985 . S
H343 N338 0.984 . S
H344 N338 0.985 . S
H345 N342 0.984 . S
H346 N342 0.985 . S
H347 N341 0.984 . S
H348 N341 0.984 . S
H349 N337 0.984 . S
H350 N337 0.985 . S
C351 C352 1.363 . S
C351 C357 1.379 1_554 S
C351 N359 1.356 . S
C352 C351 1.363 . S
C352 C358 1.363 . S
C353 C354 1.363 . S
C353 C358 1.379 1_556 S
C353 N360 1.356 . S
C354 C353 1.363 . S
C354 C357 1.363 . S
N355 C357 1.356 . S
N355 H367 0.984 . S
N355 H368 0.985 . S
N356 C358 1.356 . S
N356 H361 0.984 . S
N356 H362 0.985 . S
C357 C351 1.379 1_556 S
C357 C354 1.363 . S
C357 N355 1.356 . S
C358 C352 1.363 . S
C358 C353 1.379 1_554 S
C358 N356 1.356 . S
N359 C351 1.356 . S
N359 H365 0.984 . S
N359 H366 0.984 . S
N360 C353 1.356 . S
N360 H363 0.984 . S
N360 H364 0.985 . S
H361 N356 0.984 . S
H362 N356 0.985 . S
H363 N360 0.984 . S
H364 N360 0.985 . S
H365 N359 0.984 . S
H366 N359 0.984 . S
H367 N355 0.984 . S
H368 N355 0.985 . S
C369 C370 1.363 . S
C369 C375 1.379 . S
C369 N377 1.356 . S
C370 C369 1.363 . S
C370 C376 1.363 . S
C371 C372 1.363 . S
C371 C376 1.379 . S
C371 N378 1.356 1_545 S
C372 C371 1.363 . S
C372 C375 1.363 . S
N373 C375 1.356 . S
N373 H385 0.984 . S
N373 H386 0.985 . S
N374 C376 1.356 1_565 S
N374 H379 0.984 . S
N374 H380 0.985 . S
C375 C369 1.379 . S
C375 C372 1.363 . S
C375 N373 1.356 . S
C376 C370 1.363 . S
C376 C371 1.379 . S
C376 N374 1.356 1_545 S
N377 C369 1.356 . S
N377 H383 0.984 . S
N377 H384 0.984 . S
N378 C371 1.356 1_565 S
N378 H381 0.984 . S
N378 H382 0.985 . S
H379 N374 0.984 . S
H380 N374 0.985 . S
H381 N378 0.984 . S
H382 N378 0.985 . S
H383 N377 0.984 . S
H384 N377 0.984 . S
H385 N373 0.984 . S
H386 N373 0.985 . S
C387 C388 1.363 . S
C387 C393 1.379 . S
C387 N395 1.356 . S
C388 C387 1.363 . S
C388 C394 1.363 . S
C389 C390 1.363 . S
C389 C394 1.379 . S
C389 N396 1.356 . S
C390 C389 1.363 . S
C390 C393 1.363 . S
N391 C393 1.356 . S
N391 H403 0.984 . S
N391 H404 0.985 . S
N392 C394 1.356 . S
N392 H397 0.984 . S
N392 H398 0.985 . S
C393 C387 1.379 . S
C393 C390 1.363 . S
C393 N391 1.356 . S
C394 C388 1.363 . S
C394 C389 1.379 . S
C394 N392 1.356 . S
N395 C387 1.356 . S
N395 H401 0.984 . S
N395 H402 0.984 . S
N396 C389 1.356 . S
N396 H399 0.984 . S
N396 H400 0.985 . S
H397 N392 0.984 . S
H398 N392 0.985 . S
H399 N396 0.984 . S
H400 N396 0.985 . S
H401 N395 0.984 . S
H402 N395 0.984 . S
H403 N391 0.984 . S
H404 N391 0.985 . S
C405 C406 1.363 . S
C405 C411 1.379 . S
C405 N413 1.356 . S
C406 C405 1.363 . S
C406 C412 1.363 . S
C407 C408 1.363 . S
C407 C412 1.379 . S
C407 N414 1.356 1_545 S
C408 C407 1.363 . S
C408 C411 1.363 . S
N409 C411 1.356 . S
N409 H421 0.984 . S
N409 H422 0.985 . S
N410 C412 1.356 1_565 S
N410 H415 0.984 . S
N410 H416 0.985 . S
C411 C405 1.379 . S
C411 C408 1.363 . S
C411 N409 1.356 . S
C412 C406 1.363 . S
C412 C407 1.379 . S
C412 N410 1.356 1_545 S
N413 C405 1.356 . S
N413 H419 0.984 . S
N413 H420 0.984 . S
N414 C407 1.356 1_565 S
N414 H417 0.984 . S
N414 H418 0.985 . S
H415 N410 0.984 . S
H416 N410 0.985 . S
H417 N414 0.984 . S
H418 N414 0.985 . S
H419 N413 0.984 . S
H420 N413 0.984 . S
H421 N409 0.984 . S
H422 N409 0.985 . S
C423 C424 1.363 . S
C423 C429 1.379 1_556 S
C423 N431 1.356 . S
C424 C423 1.363 . S
C424 C430 1.363 . S
C425 C426 1.384 . S
C425 C430 1.343 1_554 S
C425 N432 1.380 . S
C426 C425 1.384 . S
C426 C429 1.363 . S
N427 C429 1.356 . S
N427 H439 0.984 . S
N427 H440 0.985 . S
N428 C430 1.356 . S
N428 H433 0.984 . S
N428 H434 0.985 . S
C429 C423 1.379 1_554 S
C429 C426 1.363 . S
C429 N427 1.356 . S
C430 C424 1.363 . S
C430 C425 1.343 1_556 S
C430 N428 1.356 . S
N431 C423 1.356 . S
N431 H437 0.984 . S
N431 H438 0.984 . S
N432 C425 1.380 . S
N432 H435 0.984 . S
N432 H436 0.985 . S
H433 N428 0.984 . S
H434 N428 0.985 . S
H435 N432 0.984 . S
H436 N432 0.985 . S
H437 N431 0.984 . S
H438 N431 0.984 . S
H439 N427 0.984 . S
H440 N427 0.985 . S
C441 C442 1.363 . S
C441 C447 1.379 . S
C441 N449 1.356 . S
C442 C441 1.363 . S
C442 C448 1.363 1_455 S
C443 C444 1.363 1_655 S
C443 C448 1.379 . S
C443 N450 1.356 . S
C444 C443 1.363 1_455 S
C444 C447 1.363 . S
N445 C447 1.356 . S
N445 H457 0.984 . S
N445 H458 0.985 . S
N446 C448 1.356 . S
N446 H451 0.984 . S
N446 H452 0.985 . S
C447 C441 1.379 . S
C447 C444 1.363 . S
C447 N445 1.356 . S
C448 C442 1.363 1_655 S
C448 C443 1.379 . S
C448 N446 1.356 . S
N449 C441 1.356 . S
N449 H455 0.984 . S
N449 H456 0.984 . S
N450 C443 1.356 . S
N450 H453 0.984 . S
N450 H454 0.985 . S
H451 N446 0.984 . S
H452 N446 0.985 . S
H453 N450 0.984 . S
H454 N450 0.985 . S
H455 N449 0.984 . S
H456 N449 0.984 . S
H457 N445 0.984 . S
H458 N445 0.985 . S
C136 C20 1.351 . S
C138 C134 1.372 . S
C154 C41 1.399 . S
C156 C112 1.381 . S
C172 C64 1.434 . S
C174 C123 1.417 . S
C190 C19 1.367 . S
C192 C128 1.466 . S
C210 C106 1.423 . S
C208 C44 1.403 . S
C228 C117 1.365 . S
C226 C67 1.356 . S
C244 C43 1.346 . S
C246 C90 1.372 . S
C262 C66 1.287 . S
C264 C95 1.351 . S
C280 C21 1.402 . S
C282 C73 1.422 . S
C300 C84 1.446 . S
C298 C42 1.352 . S
C318 C101 1.416 . S
C316 C65 1.366 . S
C334 C18 1.401 . S
C336 C79 1.382 . S
C354 C96 1.523 . S
C352 C17 1.522 . S
C370 C39 1.537 . S
C372 C74 1.530 . S
C388 C62 1.533 . S
C390 C85 1.525 . S
C408 C118 1.518 . S
C406 C40 1.516 . S
C426 C129 1.516 . S
C424 C63 1.523 . S
C442 C16 1.534 . S
C444 C107 1.527 . S
