# Generated by pormake.
# Topology sqc, (4,8)-cn, num edge types: 1
# Building blocks:
#     Node 0, Type 0, BuildingBlock: KUFVIS_clean_linker_0, # of connection points: 4
#     Node 1, Type 0, BuildingBlock: KUFVIS_clean_linker_0, # of connection points: 4
#     Node 2, Type 0, BuildingBlock: KUFVIS_clean_linker_0, # of connection points: 4
#     Node 3, Type 0, BuildingBlock: KUFVIS_clean_linker_0, # of connection points: 4
#     Node 4, Type 0, BuildingBlock: KUFVIS_clean_linker_0, # of connection points: 4
#     Node 5, Type 0, BuildingBlock: KUFVIS_clean_linker_0, # of connection points: 4
#     Node 6, Type 0, BuildingBlock: KUFVIS_clean_linker_0, # of connection points: 4
#     Node 7, Type 0, BuildingBlock: KUFVIS_clean_linker_0, # of connection points: 4
#     Node 8, Type 1, BuildingBlock: VETTIZ_charged_sbu_0, # of connection points: 8
#     Node 9, Type 1, BuildingBlock: VETTIZ_charged_sbu_0, # of connection points: 8
#     Node 10, Type 1, BuildingBlock: VETTIZ_charged_sbu_0, # of connection points: 8
#     Node 11, Type 1, BuildingBlock: VETTIZ_charged_sbu_0, # of connection points: 8
#     Edge 12, Type (0, 1), BuildingBlock: MIFKUJ_clean_linker_0, # of connection points: 2
#     Edge 13, Type (0, 1), BuildingBlock: MIFKUJ_clean_linker_0, # of connection points: 2
#     Edge 14, Type (0, 1), BuildingBlock: MIFKUJ_clean_linker_0, # of connection points: 2
#     Edge 15, Type (0, 1), BuildingBlock: MIFKUJ_clean_linker_0, # of connection points: 2
#     Edge 16, Type (0, 1), BuildingBlock: MIFKUJ_clean_linker_0, # of connection points: 2
#     Edge 17, Type (0, 1), BuildingBlock: MIFKUJ_clean_linker_0, # of connection points: 2
#     Edge 18, Type (0, 1), BuildingBlock: MIFKUJ_clean_linker_0, # of connection points: 2
#     Edge 19, Type (0, 1), BuildingBlock: MIFKUJ_clean_linker_0, # of connection points: 2
#     Edge 20, Type (0, 1), BuildingBlock: MIFKUJ_clean_linker_0, # of connection points: 2
#     Edge 21, Type (0, 1), BuildingBlock: MIFKUJ_clean_linker_0, # of connection points: 2
#     Edge 22, Type (0, 1), BuildingBlock: MIFKUJ_clean_linker_0, # of connection points: 2
#     Edge 23, Type (0, 1), BuildingBlock: MIFKUJ_clean_linker_0, # of connection points: 2
#     Edge 24, Type (0, 1), BuildingBlock: MIFKUJ_clean_linker_0, # of connection points: 2
#     Edge 25, Type (0, 1), BuildingBlock: MIFKUJ_clean_linker_0, # of connection points: 2
#     Edge 26, Type (0, 1), BuildingBlock: MIFKUJ_clean_linker_0, # of connection points: 2
#     Edge 27, Type (0, 1), BuildingBlock: MIFKUJ_clean_linker_0, # of connection points: 2
#     Edge 28, Type (0, 1), BuildingBlock: MIFKUJ_clean_linker_0, # of connection points: 2
#     Edge 29, Type (0, 1), BuildingBlock: MIFKUJ_clean_linker_0, # of connection points: 2
#     Edge 30, Type (0, 1), BuildingBlock: MIFKUJ_clean_linker_0, # of connection points: 2
#     Edge 31, Type (0, 1), BuildingBlock: MIFKUJ_clean_linker_0, # of connection points: 2
#     Edge 32, Type (0, 1), BuildingBlock: MIFKUJ_clean_linker_0, # of connection points: 2
#     Edge 33, Type (0, 1), BuildingBlock: MIFKUJ_clean_linker_0, # of connection points: 2
#     Edge 34, Type (0, 1), BuildingBlock: MIFKUJ_clean_linker_0, # of connection points: 2
#     Edge 35, Type (0, 1), BuildingBlock: MIFKUJ_clean_linker_0, # of connection points: 2
#     Edge 36, Type (0, 1), BuildingBlock: MIFKUJ_clean_linker_0, # of connection points: 2
#     Edge 37, Type (0, 1), BuildingBlock: MIFKUJ_clean_linker_0, # of connection points: 2
#     Edge 38, Type (0, 1), BuildingBlock: MIFKUJ_clean_linker_0, # of connection points: 2
#     Edge 39, Type (0, 1), BuildingBlock: MIFKUJ_clean_linker_0, # of connection points: 2
#     Edge 40, Type (0, 1), BuildingBlock: MIFKUJ_clean_linker_0, # of connection points: 2
#     Edge 41, Type (0, 1), BuildingBlock: MIFKUJ_clean_linker_0, # of connection points: 2
#     Edge 42, Type (0, 1), BuildingBlock: MIFKUJ_clean_linker_0, # of connection points: 2
#     Edge 43, Type (0, 1), BuildingBlock: MIFKUJ_clean_linker_0, # of connection points: 2
# Relax obj value: 0.164
# Max RMSD: 0.278
# Mean RMSD: 0.218
data_MOF--net-sqc--node1-VETTIZ_charged_sbu_0--node2-KUFVIS_clean_linker_0--edge1-MIFKUJ_clean_linker_0
_symmetry_space_group_name_H-M    P1
_symmetry_Int_Tables_number       1
_symmetry_cell_setting            triclinic
loop_
_symmetry_equiv_pos_as_xyz
'x, y, z'
_cell_length_a     31.539249
_cell_length_b     31.487099
_cell_length_c     86.064567
_cell_angle_alpha  89.944164
_cell_angle_beta   90.373843
_cell_angle_gamma 89.942862
loop_
_atom_site_label
_atom_site_type_symbol
_atom_site_fract_x
_atom_site_fract_y
_atom_site_fract_z
_atom_type_partial_charge
H0 H 0.85585 0.02742 0.50695 0.0
H1 H 0.97151 0.06779 0.52844 0.0
H2 H 0.97361 0.985 0.48807 0.0
H3 H 0.03641 0.01414 0.48399 0.0
H4 H 0.15173 0.03442 0.50957 0.0
H5 H 0.03395 0.04129 0.53348 0.0
C6 C 0.89025 0.02749 0.5073 0.0
C7 C 0.91249 1.00508 0.49597 0.0
C8 C 0.91134 0.04923 0.51921 0.0
C9 C 0.95595 0.049 0.51959 0.0
C10 C 0.97982 0.02627 0.50836 0.0
C11 C 0.9571 1.00357 0.4967 0.0
C12 C 0.0279 0.0273 0.50868 0.0
C13 C 0.05198 0.02029 0.49499 0.0
C14 C 0.09666 0.02283 0.49523 0.0
C15 C 0.11737 0.03263 0.50918 0.0
C16 C 0.09476 0.04003 0.52276 0.0
C17 C 0.05038 0.03667 0.52263 0.0
H18 H 0.2425 0.90406 0.75341 0.0
H19 H 0.23735 0.78376 0.77618 0.0
H20 H 0.25402 0.79084 0.72626 0.0
H21 H 0.28191 0.72727 0.72879 0.0
H22 H 0.24329 0.60841 0.74807 0.0
H23 H 0.20945 0.72283 0.7715 0.0
C24 C 0.24346 0.86971 0.75274 0.0
C25 C 0.2502 0.8501 0.73836 0.0
C26 C 0.23769 0.84585 0.76628 0.0
C27 C 0.23974 0.80136 0.76543 0.0
C28 C 0.24556 0.7802 0.75106 0.0
C29 C 0.25068 0.80543 0.73755 0.0
C30 C 0.24544 0.73224 0.75021 0.0
C31 C 0.26516 0.71028 0.73777 0.0
C32 C 0.26312 0.66574 0.73677 0.0
C33 C 0.24396 0.64281 0.74872 0.0
C34 C 0.2262 0.66316 0.76154 0.0
C35 C 0.22543 0.70774 0.76192 0.0
H36 H 0.653 0.00887 0.01181 0.0
H37 H 0.53737 0.01206 0.03726 0.0
H38 H 0.53673 0.03183 0.98725 0.0
H39 H 0.47806 0.06784 0.99155 0.0
H40 H 0.35925 0.04615 0.01363 0.0
H41 H 0.47157 0.99299 0.03392 0.0
C42 C 0.6188 0.01259 0.01188 0.0
C43 C 0.59735 0.02116 0.99795 0.0
C44 C 0.5973 0.00857 0.02592 0.0
C45 C 0.553 0.0139 0.02614 0.0
C46 C 0.52977 0.02294 0.01229 0.0
C47 C 0.5529 0.02628 0.99818 0.0
C48 C 0.48198 0.02915 0.01263 0.0
C49 C 0.46068 0.05302 1.00088 0.0
C50 C 0.4165 0.05931 1.00136 0.0
C51 C 0.39342 0.04217 0.01363 0.0
C52 C 0.41305 0.0195 0.02567 0.0
C53 C 0.4571 0.01202 0.02488 0.0
H54 H 0.25076 0.42231 0.25452 0.0
H55 H 0.30601 0.31281 0.27602 0.0
H56 H 0.22052 0.29986 0.23642 0.0
H57 H 0.25191 0.23959 0.23266 0.0
H58 H 0.28913 0.12796 0.25767 0.0
H59 H 0.29072 0.24709 0.28116 0.0
C60 C 0.25469 0.38808 0.25506 0.0
C61 C 0.23457 0.36301 0.24389 0.0
C62 C 0.27999 0.37024 0.26674 0.0
C63 C 0.28461 0.32571 0.26737 0.0
C64 C 0.26356 0.29874 0.25649 0.0
C65 C 0.23776 0.31847 0.24489 0.0
C66 C 0.26994 0.25078 0.25688 0.0
C67 C 0.26215 0.22534 0.24347 0.0
C68 C 0.26885 0.181 0.24365 0.0
C69 C 0.28452 0.16209 0.25723 0.0
C70 C 0.29361 0.18594 0.27049 0.0
C71 C 0.28507 0.22983 0.27051 0.0
H72 H 0.79294 0.42106 0.25938 0.0
H73 H 0.74982 0.30715 0.28142 0.0
H74 H 0.78816 0.30658 0.23314 0.0
H75 H 0.79342 0.23857 0.23611 0.0
H76 H 0.72297 0.13389 0.25416 0.0
H77 H 0.70844 0.256 0.27498 0.0
C78 C 0.78665 0.38724 0.25911 0.0
C79 C 0.79537 0.36492 0.24547 0.0
C80 C 0.76872 0.36702 0.272 0.0
C81 C 0.76047 0.32313 0.27105 0.0
C82 C 0.76608 0.3002 0.25702 0.0
C83 C 0.78347 0.32214 0.24418 0.0
C84 C 0.75346 0.25398 0.25588 0.0
C85 C 0.77047 0.22689 0.24432 0.0
C86 C 0.7579 0.18409 0.24319 0.0
C87 C 0.73024 0.16753 0.25432 0.0
C88 C 0.71326 0.19314 0.26601 0.0
C89 C 0.72392 0.2364 0.26642 0.0
H90 H 0.77973 0.90234 0.75121 0.0
H91 H 0.78793 0.7899 0.77896 0.0
H92 H 0.75737 0.78237 0.72967 0.0
H93 H 0.73329 0.71998 0.73457 0.0
H94 H 0.76056 0.60673 0.7603 0.0
H95 H 0.80845 0.72475 0.77706 0.0
C96 C 0.77766 0.86803 0.7522 0.0
C97 C 0.76673 0.84431 0.7391 0.0
C98 C 0.78572 0.84855 0.76651 0.0
C99 C 0.78308 0.80394 0.76764 0.0
C100 C 0.77285 0.77837 0.75448 0.0
C101 C 0.76466 0.79972 0.74016 0.0
C102 C 0.77028 0.73012 0.75581 0.0
C103 C 0.74852 0.70523 0.74445 0.0
C104 C 0.74649 0.66051 0.74563 0.0
C105 C 0.76352 0.64084 0.75887 0.0
C106 C 0.78516 0.66395 0.77022 0.0
C107 C 0.78971 0.70814 0.76846 0.0
H108 H 0.65514 0.53668 1.00144 0.0
H109 H 0.54098 0.50019 0.97767 0.0
H110 H 0.53819 0.53905 0.02601 0.0
H111 H 0.475 0.56181 0.01998 0.0
H112 H 0.36125 0.50526 1.00229 0.0
H113 H 0.48021 0.46846 0.98299 0.0
C114 C 0.62104 0.53228 1.00138 0.0
C115 C 0.59843 0.54149 0.01487 0.0
C116 C 0.60078 0.51653 0.98805 0.0
C117 C 0.55649 0.51041 0.98826 0.0
C118 C 0.53256 0.51891 1.00182 0.0
C119 C 0.55468 0.53332 0.01524 0.0
C120 C 0.48476 0.51452 1.00191 0.0
C121 C 0.46011 0.53887 0.01238 0.0
C122 C 0.41567 0.53548 0.01276 0.0
C123 C 0.39548 0.50848 1.00215 0.0
C124 C 0.41843 0.48562 0.99112 0.0
C125 C 0.46303 0.48753 0.99129 0.0
H126 H 0.15443 0.48984 0.49797 0.0
H127 H 0.03878 0.47528 0.52299 0.0
H128 H 0.03662 0.51984 0.47531 0.0
H129 H 0.97434 0.55036 0.48334 0.0
H130 H 0.85992 0.49992 0.50279 0.0
H131 H 0.97889 0.44515 0.51583 0.0
C132 C 0.12009 0.49151 0.49825 0.0
C133 C 0.09802 0.50641 0.48517 0.0
C134 C 0.09889 0.47917 0.51173 0.0
C135 C 0.05466 0.48367 0.51231 0.0
C136 C 0.03107 0.49773 0.4992 0.0
C137 C 0.05349 0.50956 0.48564 0.0
C138 C 0.98333 0.49815 0.49965 0.0
C139 C 0.95894 0.52729 0.49073 0.0
C140 C 0.91432 0.52788 0.4918 0.0
C141 C 0.89418 0.49916 0.50177 0.0
C142 C 0.91744 0.46988 0.5106 0.0
C143 C 0.96168 0.4691 0.50933 0.0
Fe144 Fe 0.01232 0.79513 0.17041 0.0
O145 O 0.01193 0.80018 0.14761 0.0
Fe146 Fe 0.95975 0.77643 0.13504 0.0
Fe147 Fe 0.05823 0.77594 0.1346 0.0
O148 O 0.00769 0.80055 0.14758 0.0
O149 O 1.00601 0.75186 0.122 0.0
O150 O 0.01038 0.75172 0.122 0.0
Fe151 Fe 1.00662 0.75632 0.09922 0.0
C152 C 0.09425 0.8365 0.16001 0.0
O153 O 0.06013 0.74986 0.1712 0.0
O154 O 0.0589 0.72084 0.14771 0.0
O155 O 0.95648 0.71391 0.10136 0.0
O156 O 0.91577 0.74625 0.12022 0.0
O157 O 0.95939 0.72185 0.14809 0.0
O158 O 0.96839 0.74677 0.17212 0.0
O159 O 0.10061 0.74625 0.11914 0.0
O160 O 0.05761 0.71476 0.10059 0.0
C161 C 0.95717 0.71756 0.16274 0.0
O162 O 0.95931 0.80174 0.09813 0.0
O163 O 0.95631 0.83057 0.12165 0.0
O164 O 0.05954 0.83914 0.16795 0.0
O165 O 0.1022 0.80766 0.14946 0.0
C166 C 0.06519 0.71811 0.16228 0.0
C167 C 0.09416 0.72074 0.10739 0.0
C168 C 0.06741 0.83109 0.10685 0.0
O169 O 0.0599 0.83029 0.12135 0.0
O170 O 0.05279 0.80284 0.09767 0.0
C171 C 0.92102 0.71941 0.10883 0.0
O172 O 0.91782 0.80757 0.15034 0.0
O173 O 0.96166 0.83625 0.16931 0.0
C174 C 0.94588 0.83032 0.10733 0.0
C175 C 0.92608 0.83378 0.16172 0.0
Fe176 Fe 0.48036 0.77341 0.4199 0.0
O177 O 0.47803 0.7715 0.39695 0.0
Fe178 Fe 0.50181 0.82462 0.38497 0.0
Fe179 Fe 0.50593 0.72584 0.38449 0.0
O180 O 0.47785 0.77586 0.39698 0.0
O181 O 0.53034 0.77893 0.37266 0.0
O182 O 0.53053 0.77455 0.37263 0.0
Fe183 Fe 0.531 0.77733 0.34987 0.0
C184 C 0.56097 0.722 0.41338 0.0
O185 O 0.44098 0.72183 0.41734 0.0
O186 O 0.4742 0.68101 0.39862 0.0
O187 O 0.4834 0.82197 0.34743 0.0
O188 O 0.45004 0.82599 0.37011 0.0
O189 O 0.46622 0.86581 0.39953 0.0
O190 O 0.43535 0.82005 0.4172 0.0
O191 O 0.45439 0.72151 0.36965 0.0
O192 O 0.48754 0.72898 0.34705 0.0
C193 C 0.43708 0.85569 0.40964 0.0
O194 O 0.56983 0.82982 0.353 0.0
O195 O 0.53207 0.86949 0.37085 0.0
O196 O 0.5296 0.73016 0.42213 0.0
O197 O 0.55868 0.72632 0.39872 0.0
C198 C 0.44607 0.68704 0.4095 0.0
C199 C 0.45752 0.71377 0.35516 0.0
C200 C 0.56862 0.69187 0.35954 0.0
O201 O 0.53981 0.68457 0.37001 0.0
O202 O 0.57481 0.72838 0.35275 0.0
C203 C 0.45261 0.83501 0.35569 0.0
O204 O 0.55448 0.82681 0.39918 0.0
O205 O 0.52447 0.82182 0.42232 0.0
C206 C 0.56026 0.86533 0.35993 0.0
C207 C 0.5561 0.83093 0.41384 0.0
Fe208 Fe 0.50112 0.23561 0.67061 0.0
O209 O 0.50779 0.22918 0.64795 0.0
Fe210 Fe 0.45813 0.25359 0.63424 0.0
Fe211 Fe 0.55674 0.25206 0.63582 0.0
O212 O 0.50346 0.22919 0.64786 0.0
O213 O 0.50658 0.27681 0.62212 0.0
O214 O 0.51099 0.27698 0.62226 0.0
Fe215 Fe 0.50953 0.27233 0.59947 0.0
C216 C 0.55689 0.31355 0.66328 0.0
O217 O 0.55191 0.19463 0.67053 0.0
O218 O 0.59764 0.22045 0.6519 0.0
O219 O 0.46187 0.22761 0.59765 0.0
O220 O 0.45576 0.19897 0.62111 0.0
O221 O 0.41314 0.22349 0.64861 0.0
O222 O 0.45403 0.19124 0.66765 0.0
O223 O 0.55975 0.19727 0.62266 0.0
O224 O 0.55432 0.22498 0.59887 0.0
C225 C 0.41995 0.19449 0.65919 0.0
O226 O 0.46014 0.31577 0.60056 0.0
O227 O 0.41664 0.28401 0.61867 0.0
O228 O 0.5445 0.28491 0.67272 0.0
O229 O 0.55744 0.30756 0.64864 0.0
C230 C 0.58821 0.19522 0.66351 0.0
C231 C 0.5675 0.19625 0.60814 0.0
C232 C 0.59687 0.30514 0.60883 0.0
O233 O 0.60167 0.28024 0.62089 0.0
O234 O 0.56098 0.31258 0.60174 0.0
C235 C 0.44782 0.19874 0.6066 0.0
O236 O 0.45776 0.30871 0.64692 0.0
O237 O 0.4528 0.28026 0.67039 0.0
C238 C 0.42374 0.31065 0.60738 0.0
C239 C 0.44793 0.31133 0.66112 0.0
Fe240 Fe 0.97873 0.25533 0.91997 0.0
O241 O 0.97729 0.25129 0.89702 0.0
Fe242 Fe 1.00515 0.3011 0.88439 0.0
Fe243 Fe 1.00344 0.20258 0.88568 0.0
O244 O 0.97743 0.25562 0.89699 0.0
O245 O 0.03146 0.25237 0.87311 0.0
O246 O 0.03133 0.24814 0.87315 0.0
Fe247 Fe 0.03382 0.24841 0.85043 0.0
C248 C 0.05682 0.20097 0.9149 0.0
O249 O 0.93515 0.20754 0.91746 0.0
O250 O 0.96815 0.16147 0.90044 0.0
O251 O 0.99027 0.29644 0.84693 0.0
O252 O 0.95454 0.30386 0.86897 0.0
O253 O 0.97188 0.34617 0.8979 0.0
O254 O 0.93776 0.30527 0.91635 0.0
O255 O 0.95276 0.1986 0.87045 0.0
O256 O 0.98697 0.203 0.84788 0.0
C257 C 0.94215 0.33952 0.90812 0.0
O258 O 0.07621 0.29858 0.8533 0.0
O259 O 0.03885 0.34216 0.86993 0.0
O260 O 0.02427 0.20816 0.92318 0.0
O261 O 0.05537 0.20379 0.90022 0.0
C262 C 0.93812 0.17158 0.91021 0.0
C263 C 0.95596 0.18989 0.85603 0.0
C264 C 0.06562 0.16182 0.86193 0.0
O265 O 0.03607 0.15753 0.87235 0.0
O266 O 0.07386 0.19691 0.85447 0.0
C267 C 0.96 0.31275 0.85465 0.0
O268 O 0.05701 0.30178 0.89895 0.0
O269 O 0.02677 0.29995 0.92215 0.0
C270 C 0.06792 0.33545 0.85952 0.0
C271 C 0.0588 0.30672 0.91356 0.0
H272 H 0.09155 0.9562 0.47473 0.0
H273 H 0.14512 0.9352 0.45565 0.0
H274 H 0.21661 0.04861 0.46591 0.0
H275 H 0.16259 0.07034 0.48445 0.0
H276 H 0.22621 0.03001 0.43643 0.0
H277 H 0.23713 0.95415 0.48442 0.0
H278 H 0.21244 0.90909 0.50598 0.0
H279 H 0.18958 0.80653 0.47418 0.0
H280 H 0.21323 0.85131 0.45234 0.0
H281 H 0.43597 0.93884 0.41993 0.0
H282 H 0.37343 0.97642 0.43025 0.0
H283 H 0.29368 0.87217 0.41593 0.0
H284 H 0.35545 0.835 0.40581 0.0
H285 H 0.28871 0.88833 0.44706 0.0
H286 H 0.28479 0.96782 0.39899 0.0
H287 H 0.31121 0.01632 0.37874 0.0
H288 H 0.32716 0.11491 0.41271 0.0
H289 H 0.30156 0.06679 0.43321 0.0
C290 C 0.11798 0.97726 0.47253 0.0
C291 C 0.12315 0.01459 0.48126 0.0
C292 C 0.14887 0.96505 0.46175 0.0
C293 C 0.1856 0.98977 0.45962 0.0
C294 C 0.18889 0.02876 0.46739 0.0
C295 C 0.15802 0.04105 0.47807 0.0
C296 C 0.22225 0.9735 0.45047 0.0
C297 C 0.24005 0.99911 0.43881 0.0
C298 C 0.24062 0.93329 0.45359 0.0
C299 C 0.22646 0.90626 0.46671 0.0
C300 C 0.22649 0.92211 0.48199 0.0
C301 C 0.21272 0.89661 0.49427 0.0
C302 C 0.19939 0.85501 0.49145 0.0
C303 C 0.19983 0.8388 0.47634 0.0
C304 C 0.21337 0.86423 0.46401 0.0
C305 C 0.40482 0.92486 0.41853 0.0
C306 C 0.4004 0.88407 0.41212 0.0
C307 C 0.36915 0.94617 0.42447 0.0
C308 C 0.32884 0.92689 0.42399 0.0
C309 C 0.32436 0.88757 0.41654 0.0
C310 C 0.35967 0.86644 0.4107 0.0
C311 C 0.2922 0.94441 0.43277 0.0
C312 C 0.27468 0.91908 0.44455 0.0
C313 C 0.27485 0.98517 0.42995 0.0
C314 C 0.2916 0.01354 0.41767 0.0
C315 C 0.29446 0.99964 0.40219 0.0
C316 C 0.30916 0.02713 0.39065 0.0
C317 C 0.32076 0.06869 0.39444 0.0
C318 C 0.31809 0.08273 0.40979 0.0
C319 C 0.30351 0.05537 0.42137 0.0
H320 H 0.33167 0.09015 0.38551 0.0
H321 H 0.18881 0.8353 0.50097 0.0
H322 H 0.20764 0.9221 0.72967 0.0
H323 H 0.22956 0.97465 0.71066 0.0
H324 H 0.3311 0.89213 0.69602 0.0
H325 H 0.31064 0.84024 0.71584 0.0
H326 H 0.36205 0.96529 0.70101 0.0
H327 H 0.2433 0.92016 0.6717 0.0
H328 H 0.16934 0.89955 0.6662 0.0
H329 H 0.12702 0.0247 0.67843 0.0
H330 H 0.20067 0.04594 0.68423 0.0
H331 H 0.42882 0.11678 0.64702 0.0
H332 H 0.39075 0.05242 0.65467 0.0
H333 H 0.30746 0.12765 0.68316 0.0
H334 H 0.34578 0.19238 0.67543 0.0
H335 H 0.26797 0.05324 0.66752 0.0
H336 H 0.39026 0.09221 0.69953 0.0
H337 H 0.46566 0.11102 0.70285 0.0
H338 H 0.5024 0.99167 0.68294 0.0
H339 H 0.42714 0.97258 0.67915 0.0
C340 C 0.2344 0.91487 0.7223 0.0
C341 C 0.25784 0.87725 0.72447 0.0
C342 C 0.24661 0.94482 0.71124 0.0
C343 C 0.28196 0.93751 0.70177 0.0
C344 C 0.30377 0.89866 0.7032 0.0
C345 C 0.29182 0.86879 0.71444 0.0
C346 C 0.29866 0.97232 0.69175 0.0
C347 C 0.34151 0.98374 0.69342 0.0
C348 C 0.27201 0.99711 0.68196 0.0
C349 C 0.22756 0.98455 0.6785 0.0
C350 C 0.21821 0.94321 0.67333 0.0
C351 C 0.17633 0.93143 0.67014 0.0
C352 C 0.1435 0.96077 0.67199 0.0
C353 C 0.15249 1.002 0.67701 0.0
C354 C 0.19432 0.01395 0.68023 0.0
C355 C 0.40138 0.11964 0.65447 0.0
C356 C 0.38984 0.15924 0.6606 0.0
C357 C 0.37978 0.08293 0.65885 0.0
C358 C 0.3466 0.08527 0.66959 0.0
C359 C 0.33288 0.12528 0.6748 0.0
C360 C 0.35463 0.16215 0.6704 0.0
C361 C 0.33071 0.04596 0.67705 0.0
C362 C 0.28826 0.03403 0.67494 0.0
C363 C 0.35783 0.02015 0.68623 0.0
C364 C 0.40307 0.03118 0.68889 0.0
C365 C 0.41441 0.07012 0.69574 0.0
C366 C 0.45713 0.08084 0.6977 0.0
C367 C 0.48882 0.05264 0.69304 0.0
C368 C 0.47783 0.01357 0.68647 0.0
C369 C 0.43515 1.00278 0.68442 0.0
H370 H 0.52188 0.06101 0.69455 0.0
H371 H 0.11109 0.95158 0.66952 0.0
H372 H 0.41022 0.04337 0.97009 0.0
H373 H 0.35676 0.07273 0.95207 0.0
H374 H 0.31243 0.15628 0.98821 0.0
H375 H 0.36608 0.12786 0.00592 0.0
H376 H 0.27329 0.06652 0.95479 0.0
H377 H 0.26508 0.2444 0.97319 0.0
H378 H 0.31404 0.29935 0.98293 0.0
H379 H 0.41841 0.23637 0.96092 0.0
H380 H 0.36996 0.18169 0.95066 0.0
H381 H 0.07041 0.16115 0.94292 0.0
H382 H 0.13881 0.14153 0.95473 0.0
H383 H 0.20443 0.19757 0.91603 0.0
H384 H 0.13631 0.21633 0.90399 0.0
H385 H 0.23928 0.21881 0.94642 0.0
H386 H 0.201 0.09898 0.91523 0.0
H387 H 0.1531 0.0429 0.90559 0.0
H388 H 0.14614 0.98967 0.95146 0.0
H389 H 0.19334 0.04599 0.96144 0.0
C390 C 0.39008 0.06913 0.97393 0.0
C391 C 0.39252 0.08362 0.98934 0.0
C392 C 0.35916 0.08551 0.96372 0.0
C393 C 0.33044 0.11687 0.96872 0.0
C394 C 0.33444 0.1327 0.98391 0.0
C395 C 0.36521 0.11645 0.99405 0.0
C396 C 0.29418 0.13083 0.95866 0.0
C397 C 0.26618 0.09984 0.95288 0.0
C398 C 0.28479 0.17435 0.95598 0.0
C399 C 0.31386 0.20856 0.96131 0.0
C400 C 0.2984 0.24244 0.97029 0.0
C401 C 0.3261 0.27353 0.97594 0.0
C402 C 0.36938 0.27113 0.97267 0.0
C403 C 0.38495 0.23796 0.96357 0.0
C404 C 0.35735 0.20698 0.9578 0.0
C405 C 0.0994 0.1693 0.93694 0.0
C406 C 0.09791 0.18981 0.92243 0.0
C407 C 0.13845 0.15808 0.94369 0.0
C408 C 0.17674 0.16793 0.93622 0.0
C409 C 0.17534 0.18958 0.92198 0.0
C410 C 0.13635 0.19999 0.91507 0.0
C411 C 0.2181 0.15449 0.9431 0.0
C412 C 0.24685 0.18556 0.94825 0.0
C413 C 0.22847 0.1111 0.94509 0.0
C414 C 0.20039 0.07695 0.93911 0.0
C415 C 0.18896 0.07555 0.92329 0.0
C416 C 0.16198 0.04368 0.91776 0.0
C417 C 0.14655 0.01278 0.92791 0.0
C418 C 0.1581 0.01366 0.94361 0.0
C419 C 0.18497 0.04554 0.94921 0.0
H420 H 0.1257 0.98812 0.92361 0.0
H421 H 0.39086 0.29504 0.97712 0.0
H422 H 0.19929 0.18386 0.22414 0.0
H423 H 0.17675 0.12947 0.20551 0.0
H424 H 0.29137 0.05865 0.21475 0.0
H425 H 0.31516 0.11402 0.23249 0.0
H426 H 0.27149 0.04502 0.18645 0.0
H427 H 0.19556 0.03864 0.23391 0.0
H428 H 0.15121 0.06393 0.2555 0.0
H429 H 0.04859 0.08813 0.22364 0.0
H430 H 0.09265 0.06358 0.20181 0.0
H431 H 0.17445 0.83538 0.17288 0.0
H432 H 0.21241 0.89782 0.1833 0.0
H433 H 0.11572 0.97993 0.16419 0.0
H434 H 0.07831 0.91816 0.15382 0.0
H435 H 0.12819 0.98725 0.19673 0.0
H436 H 0.20988 0.97693 0.14969 0.0
H437 H 0.25713 0.93923 0.13168 0.0
H438 H 0.35477 0.93534 0.1666 0.0
H439 H 0.30737 0.97091 0.18516 0.0
C440 C 0.22027 0.1574 0.22183 0.0
C441 C 0.25864 0.15299 0.23009 0.0
C442 C 0.20712 0.12594 0.21131 0.0
C443 C 0.23169 0.08906 0.20902 0.0
C444 C 0.27148 0.08636 0.21635 0.0
C445 C 0.28489 0.118 0.22665 0.0
C446 C 0.21477 0.05193 0.20008 0.0
C447 C 0.24023 0.03228 0.18877 0.0
C448 C 0.17414 0.03471 0.20314 0.0
C449 C 0.14761 0.04983 0.2162 0.0
C450 C 0.16368 0.04973 0.23149 0.0
C451 C 0.13858 0.06388 0.24377 0.0
C452 C 0.09715 0.07778 0.24094 0.0
C453 C 0.08073 0.07748 0.22581 0.0
C454 C 0.10576 0.06347 0.21348 0.0
C455 C 0.16242 0.86692 0.17042 0.0
C456 C 0.1238 0.87217 0.16243 0.0
C457 C 0.18382 0.9025 0.17647 0.0
C458 C 0.16665 0.94353 0.17462 0.0
C459 C 0.12944 0.94866 0.16582 0.0
C460 C 0.10832 0.9134 0.15979 0.0
C461 C 0.18459 0.98084 0.18299 0.0
C462 C 0.15929 1.0003 0.1943 0.0
C463 C 0.22589 0.99666 0.18029 0.0
C464 C 0.25478 0.97633 0.16891 0.0
C465 C 0.24123 0.96767 0.15363 0.0
C466 C 0.26807 0.94669 0.14329 0.0
C467 C 0.30898 0.93515 0.14795 0.0
C468 C 0.32307 0.94435 0.16299 0.0
C469 C 0.29614 0.96475 0.17345 0.0
H470 H 0.32975 0.91903 0.13991 0.0
H471 H 0.07774 0.08867 0.25046 0.0
H472 H 0.11539 0.1201 0.53118 0.0
H473 H 0.17295 0.14083 0.54883 0.0
H474 H 0.18911 0.00985 0.5625 0.0
H475 H 0.1322 0.98914 0.54444 0.0
H476 H 0.19632 0.13898 0.57792 0.0
H477 H 0.29534 0.98748 0.56457 0.0
H478 H 0.3008 0.93313 0.54402 0.0
H479 H 0.24887 0.02075 0.51068 0.0
H480 H 0.24396 0.07584 0.53094 0.0
H481 H 0.38443 0.15765 0.62234 0.0
H482 H 0.32211 0.12275 0.61099 0.0
H483 H 0.37329 0.14087 0.56513 0.0
H484 H 0.43552 0.17567 0.57635 0.0
H485 H 0.3322 0.06557 0.56689 0.0
H486 H 0.30497 0.21058 0.5772 0.0
H487 H 0.3034 0.27589 0.59276 0.0
H488 H 0.21621 0.218 0.62451 0.0
H489 H 0.21783 0.15174 0.60915 0.0
C490 C 0.13022 0.09607 0.53842 0.0
C491 C 0.11913 0.05317 0.53667 0.0
C492 C 0.16326 0.10784 0.54845 0.0
C493 C 0.18599 0.07684 0.55683 0.0
C494 C 0.17254 0.03429 0.556 0.0
C495 C 0.1397 0.02249 0.54585 0.0
C496 C 0.22611 0.08856 0.56505 0.0
C497 C 0.22582 0.1224 0.57568 0.0
C498 C 0.26521 0.06828 0.56168 0.0
C499 C 0.26878 0.03557 0.54934 0.0
C500 C 0.28526 0.99518 0.55284 0.0
C501 C 0.28828 0.96427 0.54124 0.0
C502 C 0.27509 0.97346 0.52607 0.0
C503 C 0.259 0.01364 0.52245 0.0
C504 C 0.2561 0.04472 0.53399 0.0
C505 C 0.38304 0.15307 0.60988 0.0
C506 C 0.41495 0.1696 0.60025 0.0
C507 C 0.34719 0.13341 0.60339 0.0
C508 C 0.34272 0.12963 0.58718 0.0
C509 C 0.37595 0.14338 0.57765 0.0
C510 C 0.41152 0.16338 0.5841 0.0
C511 C 0.30204 0.1151 0.58003 0.0
C512 C 0.30238 0.08114 0.56948 0.0
C513 C 0.26335 0.13654 0.58287 0.0
C514 C 0.26196 0.17609 0.59217 0.0
C515 C 0.28574 0.21164 0.58758 0.0
C516 C 0.28479 0.24889 0.59635 0.0
C517 C 0.25981 0.25119 0.60967 0.0
C518 C 0.23563 0.21616 0.61421 0.0
C519 C 0.23654 0.17872 0.60547 0.0
H520 H 0.25912 0.28013 0.61644 0.0
H521 H 0.27749 0.94949 0.51711 0.0
H522 H 0.17596 0.82586 0.78731 0.0
H523 H 0.1509 0.86976 0.80888 0.0
H524 H 0.24932 0.96121 0.79955 0.0
H525 H 0.27536 0.9168 0.77843 0.0
H526 H 0.23712 0.95761 0.82955 0.0
H527 H 0.14855 0.96959 0.78432 0.0
H528 H 0.10009 0.94771 0.76323 0.0
H529 H 0.00929 0.90521 0.79679 0.0
H530 H 0.05766 0.92599 0.8181 0.0
H531 H 0.13898 0.15728 0.84511 0.0
H532 H 0.17297 0.09365 0.83478 0.0
H533 H 0.08037 0.01519 0.85762 0.0
H534 H 0.04614 0.07863 0.86813 0.0
H535 H 0.08728 1.00362 0.82478 0.0
H536 H 0.17547 1.00547 0.86989 0.0
H537 H 0.22312 0.0374 0.88945 0.0
H538 H 0.31408 0.06534 0.85401 0.0
H539 H 0.26678 0.03408 0.83417 0.0
C540 C 0.19297 0.85472 0.79015 0.0
C541 C 0.22728 0.86816 0.78102 0.0
C542 C 0.17836 0.88002 0.80238 0.0
C543 C 0.19761 0.91932 0.80563 0.0
C544 C 0.23371 0.93123 0.79723 0.0
C545 C 0.2484 0.90593 0.78507 0.0
C546 C 0.17851 0.9497 0.81684 0.0
C547 C 0.20436 0.96778 0.82846 0.0
C548 C 0.13554 0.96265 0.81562 0.0
C549 C 0.10716 0.94851 0.80281 0.0
C550 C 0.11858 0.95491 0.78721 0.0
C551 C 0.09105 0.94284 0.77521 0.0
C552 C 0.05174 0.92485 0.77867 0.0
C553 C 0.03986 0.91891 0.79413 0.0
C554 C 0.06737 0.93072 0.80617 0.0
C555 C 0.12616 0.12652 0.84817 0.0
C556 C 0.08955 0.1232 0.85735 0.0
C557 C 0.14584 0.09015 0.84233 0.0
C558 C 0.12923 0.04976 0.84548 0.0
C559 C 0.0938 0.04611 0.85515 0.0
C560 C 0.07431 0.08247 0.86114 0.0
C561 C 0.14599 0.01217 0.83716 0.0
C562 C 0.11974 0.99286 0.82605 0.0
C563 C 0.18869 0.99904 0.83859 0.0
C564 C 0.2174 0.01765 0.85051 0.0
C565 C 0.20548 0.01872 0.86623 0.0
C566 C 0.23245 0.03665 0.87738 0.0
C567 C 0.27153 0.05348 0.87297 0.0
C568 C 0.28379 0.0523 0.8574 0.0
C569 C 0.25693 0.0344 0.8462 0.0
H570 H 0.29236 0.06736 0.88162 0.0
H571 H 0.03039 0.9157 0.76936 0.0
H572 H 0.41593 0.94229 0.04117 0.0
H573 H 0.36313 0.91423 0.05926 0.0
H574 H 0.29433 0.03264 0.05666 0.0
H575 H 0.34876 0.06189 0.04005 0.0
H576 H 0.28011 1.00475 0.08271 0.0
H577 H 0.27317 0.93803 0.03212 0.0
H578 H 0.30249 0.89734 0.01016 0.0
H579 H 0.32765 0.79192 0.04058 0.0
H580 H 0.29863 0.83198 0.06265 0.0
H581 H 0.08026 0.85484 0.07676 0.0
H582 H 0.14137 0.89212 0.06617 0.0
H583 H 0.19206 0.90863 0.11246 0.0
H584 H 0.13012 0.87245 0.12318 0.0
H585 H 0.21807 0.86736 0.06618 0.0
H586 H 0.26468 0.99791 0.11168 0.0
H587 H 0.22989 0.04478 0.13066 0.0
H588 H 0.11231 0.03403 0.10557 0.0
H589 H 0.14656 0.98801 0.08623 0.0
C590 C 0.39026 0.96272 0.04485 0.0
C591 C 0.38601 1.00396 0.03873 0.0
C592 C 0.3596 0.94644 0.05502 0.0
C593 C 0.32348 0.97059 0.05891 0.0
C594 C 0.32127 0.01286 0.05379 0.0
C595 C 0.35233 0.02944 0.04404 0.0
C596 C 0.28632 0.95156 0.06716 0.0
C597 C 0.2667 0.97454 0.07917 0.0
C598 C 0.26788 0.91264 0.06238 0.0
C599 C 0.28422 0.88811 0.04903 0.0
C600 C 0.28501 0.90615 0.03409 0.0
C601 C 0.30155 0.8832 0.02162 0.0
C602 C 0.31703 0.84208 0.02396 0.0
C603 C 0.31566 0.8237 0.03874 0.0
C604 C 0.29913 0.84649 0.05123 0.0
C605 C 0.10391 0.86724 0.08473 0.0
C606 C 0.1002 0.86059 0.10082 0.0
C607 C 0.13909 0.88831 0.07865 0.0
C608 C 0.17173 0.903 0.08846 0.0
C609 C 0.16728 0.89803 0.10461 0.0
C610 C 0.13169 0.87737 0.11074 0.0
C611 C 0.21129 0.92089 0.08157 0.0
C612 C 0.2315 0.89746 0.06986 0.0
C613 C 0.22905 0.96029 0.08622 0.0
C614 C 0.20804 0.98843 0.09771 0.0
C615 C 0.23138 1.00547 0.11021 0.0
C616 C 0.21178 0.03204 0.12101 0.0
C617 C 0.16881 0.04202 0.11942 0.0
C618 C 0.1455 0.02591 0.10689 0.0
C619 C 0.16501 0.99953 0.09601 0.0
H620 H 0.15366 0.06245 0.12783 0.0
H621 H 0.33012 0.82454 0.01431 0.0
H622 H 0.36836 0.14395 0.27109 0.0
H623 H 0.39018 0.08903 0.28958 0.0
H624 H 0.2829 0.11875 0.31836 0.0
H625 H 0.26045 0.17378 0.29962 0.0
H626 H 0.37899 0.09128 0.33267 0.0
H627 H 0.25534 0.0495 0.3004 0.0
H628 H 0.22042 0.04932 0.27465 0.0
H629 H 0.32737 0.98431 0.25521 0.0
H630 H 0.36324 0.98484 0.2808 0.0
H631 H 0.39856 0.89082 0.37053 0.0
H632 H 0.36448 0.95384 0.3592 0.0
H633 H 0.41156 0.91899 0.31402 0.0
H634 H 0.4442 0.8558 0.32506 0.0
H635 H 0.33826 0.95208 0.31004 0.0
H636 H 0.46305 0.99134 0.33859 0.0
H637 H 0.50936 0.99601 0.36168 0.0
H638 H 0.41463 0.06843 0.38552 0.0
H639 H 0.36734 0.06363 0.36256 0.0
C640 C 0.35029 0.13988 0.28165 0.0
C641 C 0.31273 0.16311 0.28395 0.0
C642 C 0.36277 0.10846 0.29219 0.0
C643 C 0.33806 0.09967 0.30528 0.0
C644 C 0.30253 0.12527 0.30836 0.0
C645 C 0.28982 0.15678 0.29771 0.0
C646 C 0.34592 0.05974 0.31408 0.0
C647 C 0.36919 0.06082 0.32801 0.0
C648 C 0.33465 0.02003 0.30761 0.0
C649 C 0.312 0.01738 0.29248 0.0
C650 C 0.27142 0.03526 0.29062 0.0
C651 C 0.25148 0.03514 0.27606 0.0
C652 C 0.2717 0.01688 0.2633 0.0
C653 C 0.31176 0.99845 0.2651 0.0
C654 C 0.33187 0.99859 0.27964 0.0
C655 C 0.40065 0.89597 0.35811 0.0
C656 C 0.42445 0.86819 0.34875 0.0
C657 C 0.38154 0.93236 0.35166 0.0
C658 C 0.38613 0.9419 0.33576 0.0
C659 C 0.40755 0.91271 0.3263 0.0
C660 C 0.42636 0.87642 0.33268 0.0
C661 C 0.37108 0.98309 0.32895 0.0
C662 C 0.347 0.98234 0.31514 0.0
C663 C 0.38266 0.02304 0.33535 0.0
C664 C 0.41133 0.02648 0.34901 0.0
C665 C 0.45192 1.00794 0.3488 0.0
C666 C 0.47839 0.01067 0.36185 0.0
C667 C 0.4649 0.0323 0.37509 0.0
C668 C 0.42494 0.05149 0.37528 0.0
C669 C 0.39828 0.04877 0.36227 0.0
H670 H 0.48547 0.03434 0.38517 0.0
H671 H 0.25633 0.01698 0.25202 0.0
H672 H 0.8451 0.10323 0.51439 0.0
H673 H 0.79382 0.12797 0.53335 0.0
H674 H 0.86722 0.07009 0.57022 0.0
H675 H 0.91832 0.04399 0.55099 0.0
H676 H 0.78974 0.04841 0.57396 0.0
H677 H 0.85281 0.18111 0.56824 0.0
H678 H 0.88455 0.24566 0.55704 0.0
H679 H 0.7675 0.27429 0.53354 0.0
H680 H 0.73517 0.20955 0.54439 0.0
H681 H 0.63276 0.15648 0.62386 0.0
H682 H 0.69709 0.12705 0.612 0.0
H683 H 0.64078 0.14211 0.56655 0.0
H684 H 0.57682 0.17108 0.57821 0.0
H685 H 0.71738 0.18805 0.57165 0.0
H686 H 0.6604 0.04547 0.57889 0.0
H687 H 0.63271 0.98679 0.59489 0.0
H688 H 0.74725 0.98659 0.62213 0.0
H689 H 0.77554 0.04544 0.60632 0.0
C690 C 0.85076 0.0964 0.52657 0.0
C691 C 0.8856 0.07141 0.53118 0.0
C692 C 0.82152 0.11089 0.53747 0.0
C693 C 0.82651 0.1012 0.55332 0.0
C694 C 0.86253 0.07802 0.55808 0.0
C695 C 0.89195 0.06344 0.54711 0.0
C696 C 0.79181 0.11183 0.5644 0.0
C697 C 0.77472 0.0794 0.57375 0.0
C698 C 0.77188 0.1522 0.5643 0.0
C699 C 0.79173 0.19 0.55697 0.0
C700 C 0.83402 0.20073 0.56047 0.0
C701 C 0.85207 0.23748 0.55423 0.0
C702 C 0.82815 0.26387 0.54449 0.0
C703 C 0.78607 0.25366 0.54102 0.0
C704 C 0.76786 0.21694 0.54721 0.0
C705 C 0.6335 0.15197 0.6114 0.0
C706 C 0.59989 0.16665 0.60196 0.0
C707 C 0.67037 0.13535 0.60463 0.0
C708 C 0.67388 0.133 0.58838 0.0
C709 C 0.63887 0.14402 0.5791 0.0
C710 C 0.60223 0.16044 0.58581 0.0
C711 C 0.7152 0.12458 0.58078 0.0
C712 C 0.7332 0.15745 0.57202 0.0
C713 C 0.73689 0.08548 0.58208 0.0
C714 C 0.71994 0.05002 0.5915 0.0
C715 C 0.67958 0.03306 0.58834 0.0
C716 C 0.66385 0.99966 0.59734 0.0
C717 C 0.68826 0.98291 0.60949 0.0
C718 C 0.72845 0.99951 0.61268 0.0
C719 C 0.74438 0.03281 0.60368 0.0
H720 H 0.67596 0.95717 0.61648 0.0
H721 H 0.84215 0.29235 0.5397 0.0
H722 H 0.6505 0.13394 0.26233 0.0
H723 H 0.61764 0.09123 0.28249 0.0
H724 H 0.68132 0.1655 0.31771 0.0
H725 H 0.71619 0.20703 0.29744 0.0
H726 H 0.69515 0.0878 0.3235 0.0
H727 H 0.56942 0.1632 0.31335 0.0
H728 H 0.51025 0.19708 0.29917 0.0
H729 H 0.47151 0.07583 0.28131 0.0
H730 H 0.53088 0.04124 0.29512 0.0
H731 H 0.5794 0.93966 0.37506 0.0
H732 H 0.60134 1.00719 0.36308 0.0
H733 H 0.60024 0.94759 0.31801 0.0
H734 H 0.57985 0.8802 0.32982 0.0
H735 H 0.54894 0.03 0.32311 0.0
H736 H 0.68858 0.96154 0.32992 0.0
H737 H 0.74454 0.92985 0.3464 0.0
H738 H 0.75162 0.04452 0.37326 0.0
H739 H 0.69523 0.07666 0.35704 0.0
C740 C 0.65714 0.14156 0.27437 0.0
C741 C 0.6865 0.17348 0.27826 0.0
C742 C 0.63781 0.11744 0.28594 0.0
C743 C 0.64673 0.12513 0.30171 0.0
C744 C 0.67391 0.15886 0.30565 0.0
C745 C 0.69358 0.18284 0.29404 0.0
C746 C 0.63218 0.09443 0.31372 0.0
C747 C 0.66281 0.0761 0.32363 0.0
C748 C 0.59002 0.07882 0.31403 0.0
C749 C 0.55492 0.09962 0.30524 0.0
C750 C 0.54863 0.14377 0.30626 0.0
C751 C 0.51494 0.16311 0.29831 0.0
C752 C 0.48715 0.13863 0.28934 0.0
C753 C 0.49305 0.09476 0.28826 0.0
C754 C 0.52672 0.07527 0.29617 0.0
C755 C 0.58463 0.94092 0.36264 0.0
C756 C 0.57826 0.90466 0.35338 0.0
C757 C 0.59698 0.9794 0.35584 0.0
C758 C 0.60197 0.98221 0.33969 0.0
C759 C 0.59629 0.94594 0.3305 0.0
C760 C 0.58506 0.90741 0.33729 0.0
C761 C 0.61229 0.0229 0.33206 0.0
C762 C 0.58084 0.04286 0.32308 0.0
C763 C 0.65333 0.04051 0.33278 0.0
C764 C 0.68735 0.02126 0.34242 0.0
C765 C 0.70177 0.97982 0.33944 0.0
C766 C 0.73363 0.96182 0.34871 0.0
C767 C 0.75151 0.9851 0.36091 0.0
C768 C 0.73767 0.02649 0.36383 0.0
C769 C 0.70579 0.04461 0.3546 0.0
H770 H 0.77617 0.97111 0.36807 0.0
H771 H 0.46099 0.15363 0.28324 0.0
H772 H 0.58766 0.94005 0.04518 0.0
H773 H 0.64009 0.91277 0.06396 0.0
H774 H 0.71808 0.02315 0.05613 0.0
H775 H 0.66565 0.0505 0.03769 0.0
H776 H 0.71655 0.8886 0.05715 0.0
H777 H 0.78396 0.04251 0.08622 0.0
H778 H 0.75717 0.10995 0.09692 0.0
H779 H 0.63485 0.05356 0.10385 0.0
H780 H 0.66102 0.98562 0.09341 0.0
H781 H 0.92919 0.85565 0.07754 0.0
H782 H 0.86446 0.88925 0.06765 0.0
H783 H 0.81648 0.89841 0.11433 0.0
H784 H 0.88103 0.86438 0.12424 0.0
H785 H 0.79495 0.96795 0.09796 0.0
H786 H 0.78676 0.81915 0.09121 0.0
H787 H 0.80972 0.74809 0.08292 0.0
H788 H 0.8035 0.78684 0.03517 0.0
H789 H 0.78201 0.85889 0.04316 0.0
C790 C 0.61524 0.95914 0.04795 0.0
C791 C 0.62255 0.99742 0.04002 0.0
C792 C 0.64543 0.94336 0.05856 0.0
C793 C 0.68323 0.96581 0.06152 0.0
C794 C 0.68909 1.00539 0.0543 0.0
C795 C 0.65909 0.02102 0.04371 0.0
C796 C 0.71867 0.94614 0.07064 0.0
C797 C 0.73349 0.90594 0.06612 0.0
C798 C 0.74044 0.96817 0.08263 0.0
C799 C 0.72442 0.00902 0.0889 0.0
C800 C 0.75139 0.04443 0.09008 0.0
C801 C 0.7363 0.08277 0.09609 0.0
C802 C 0.69431 0.08607 0.10103 0.0
C803 C 0.66732 0.05101 0.09997 0.0
C804 C 0.68226 0.0126 0.09398 0.0
C805 C 0.90526 0.86564 0.08574 0.0
C806 C 0.91066 0.85792 0.10174 0.0
C807 C 0.8681 0.88461 0.08006 0.0
C808 C 0.8352 0.89584 0.0902 0.0
C809 C 0.84137 0.89016 0.10626 0.0
C810 C 0.87861 0.87118 0.11195 0.0
C811 C 0.79372 0.9114 0.08395 0.0
C812 C 0.77782 0.95065 0.08902 0.0
C813 C 0.77032 0.88806 0.07272 0.0
C814 C 0.7832 0.84469 0.06782 0.0
C815 C 0.79073 0.81276 0.07895 0.0
C816 C 0.80348 0.77224 0.0743 0.0
C817 C 0.80808 0.76287 0.05855 0.0
C818 C 0.80001 0.79414 0.04739 0.0
C819 C 0.78765 0.8349 0.05197 0.0
H820 H 0.81774 0.73136 0.05501 0.0
H821 H 0.6827 0.11577 0.10569 0.0
H822 H 0.85309 0.84012 0.78668 0.0
H823 H 0.87836 0.89258 0.80574 0.0
H824 H 0.77087 0.97253 0.79508 0.0
H825 H 0.74533 0.92014 0.77639 0.0
H826 H 0.90397 0.9705 0.80001 0.0
H827 H 0.74521 0.03465 0.82551 0.0
H828 H 0.67585 1.00656 0.83367 0.0
H829 H 0.73102 0.88329 0.84075 0.0
H830 H 0.80082 0.91073 0.83287 0.0
H831 H 0.93749 0.17865 0.82528 0.0
H832 H 0.90418 0.11694 0.81314 0.0
H833 H 0.88006 0.06354 0.8584 0.0
H834 H 0.91224 0.12603 0.87065 0.0
H835 H 0.81735 0.04378 0.83976 0.0
H836 H 0.96739 0.03964 0.8364 0.0
H837 H 0.03877 0.06495 0.82973 0.0
H838 H 0.00801 0.0579 0.7812 0.0
H839 H 0.93535 0.03533 0.78751 0.0
C840 C 0.8343 0.86833 0.78876 0.0
C841 C 0.79727 0.876 0.78002 0.0
C842 C 0.84893 0.8985 0.79955 0.0
C843 C 0.82652 0.93662 0.80194 0.0
C844 C 0.78852 0.94328 0.79369 0.0
C845 C 0.77404 0.91333 0.78291 0.0
C846 C 0.84429 0.97114 0.81195 0.0
C847 C 0.88509 0.98645 0.80874 0.0
C848 C 0.8201 0.99143 0.82361 0.0
C849 C 0.77821 0.97473 0.82847 0.0
C850 C 0.7426 1.0016 0.82887 0.0
C851 C 0.70319 0.98577 0.83344 0.0
C852 C 0.69901 0.94315 0.83768 0.0
C853 C 0.73426 0.91626 0.83741 0.0
C854 C 0.77375 0.93193 0.83287 0.0
C855 C 0.92424 0.15423 0.83268 0.0
C856 C 0.92778 0.15724 0.84895 0.0
C857 C 0.90549 0.11872 0.82571 0.0
C858 C 0.89068 0.08481 0.83481 0.0
C859 C 0.89155 0.08901 0.85108 0.0
C860 C 0.90981 0.12492 0.85809 0.0
C861 C 0.87637 0.04437 0.82732 0.0
C862 C 0.83631 0.02786 0.83105 0.0
C863 C 0.90166 0.02248 0.8163 0.0
C864 C 0.94554 0.03616 0.81247 0.0
C865 C 0.97551 0.04404 0.8243 0.0
C866 C 0.01625 0.05798 0.82059 0.0
C867 C 0.02804 0.06276 0.80508 0.0
C868 C 0.99886 0.05416 0.79322 0.0
C869 C 0.95774 0.04112 0.79687 0.0
H870 H 0.05979 0.07313 0.80225 0.0
H871 H 0.66847 0.93096 0.84121 0.0
H872 H 0.90226 0.92002 0.49005 0.0
H873 H 0.84662 0.88779 0.47371 0.0
H874 H 0.80866 0.01244 0.45804 0.0
H875 H 0.86357 0.04435 0.47444 0.0
H876 H 0.74275 0.97161 0.46873 0.0
H877 H 0.85546 0.93994 0.43382 0.0
H878 H 0.92385 0.91031 0.42532 0.0
H879 H 0.88088 0.78463 0.43634 0.0
H880 H 0.81263 0.81348 0.44527 0.0
H881 H 0.62752 0.86118 0.39947 0.0
H882 H 0.69244 0.88816 0.41161 0.0
H883 H 0.64059 0.86311 0.45693 0.0
H884 H 0.57536 0.83663 0.44492 0.0
H885 H 0.75232 0.85482 0.43029 0.0
H886 H 0.67258 0.93962 0.482 0.0
H887 H 0.60434 0.97361 0.48837 0.0
H888 H 0.58301 1.00168 0.44011 0.0
H889 H 0.65135 0.96839 0.43349 0.0
C890 C 0.88292 0.94024 0.48269 0.0
C891 C 0.88735 0.9846 0.48339 0.0
C892 C 0.85097 0.9219 0.47341 0.0
C893 C 0.82311 0.94768 0.46467 0.0
C894 C 0.8294 0.99183 0.46472 0.0
C895 C 0.86106 0.01005 0.47398 0.0
C896 C 0.78513 0.92953 0.45661 0.0
C897 C 0.74502 0.94601 0.46034 0.0
C898 C 0.78775 0.8964 0.44552 0.0
C899 C 0.82908 0.87898 0.44041 0.0
C900 C 0.86079 0.90602 0.43463 0.0
C901 C 0.89953 0.88933 0.42971 0.0
C902 C 0.90681 0.84559 0.43037 0.0
C903 C 0.87532 0.81847 0.43592 0.0
C904 C 0.8366 0.83498 0.44092 0.0
C905 C 0.62983 0.86141 0.41203 0.0
C906 C 0.59582 0.84715 0.4212 0.0
C907 C 0.66716 0.87666 0.41896 0.0
C908 C 0.6714 0.87813 0.4352 0.0
C909 C 0.63792 0.86298 0.44438 0.0
C910 C 0.60054 0.84785 0.43747 0.0
C911 C 0.71019 0.89671 0.44256 0.0
C912 C 0.75027 0.88028 0.43873 0.0
C913 C 0.70775 0.93047 0.45337 0.0
C914 C 0.66687 0.95112 0.45725 0.0
C915 C 0.65339 0.9532 0.47276 0.0
C916 C 0.61468 0.97232 0.47641 0.0
C917 C 0.58929 0.98966 0.46465 0.0
C918 C 0.60263 0.98809 0.44921 0.0
C919 C 0.64132 0.96906 0.4455 0.0
H920 H 0.55932 1.0044 0.4675 0.0
H921 H 0.93677 0.83269 0.42652 0.0
H922 H 0.83908 0.17673 0.2318 0.0
H923 H 0.86543 0.12359 0.21343 0.0
H924 H 0.73918 0.07216 0.20883 0.0
H925 H 0.71252 0.12628 0.22639 0.0
H926 H 0.87015 0.04372 0.21691 0.0
H927 H 0.72381 0.01985 0.17542 0.0
H928 H 0.66983 0.06365 0.16211 0.0
H929 H 0.75107 0.17263 0.16544 0.0
H930 H 0.80583 0.12939 0.17855 0.0
H931 H 0.88125 0.83905 0.18834 0.0
H932 H 0.84808 0.90344 0.19868 0.0
H933 H 0.8727 0.9685 0.15554 0.0
H934 H 0.90583 0.90412 0.14527 0.0
H935 H 0.79945 0.99674 0.1682 0.0
H936 H 0.94233 0.9777 0.18385 0.0
H937 H 1.00456 0.93984 0.19447 0.0
H938 H 0.94311 0.92865 0.23866 0.0
H939 H 0.8802 0.96592 0.22823 0.0
C940 C 0.8168 0.15484 0.22653 0.0
C941 C 0.77376 0.15554 0.23069 0.0
C942 C 0.83193 0.12421 0.21612 0.0
C943 C 0.80434 0.09378 0.20965 0.0
C944 C 0.76113 0.09554 0.21339 0.0
C945 C 0.74598 0.12625 0.22363 0.0
C946 C 0.82092 0.05785 0.20018 0.0
C947 C 0.8547 0.03375 0.20622 0.0
C948 C 0.80167 0.0451 0.18598 0.0
C949 C 0.76881 0.07138 0.17811 0.0
C950 C 0.73025 0.05311 0.17327 0.0
C951 C 0.6995 0.07786 0.16576 0.0
C952 C 0.70697 0.12092 0.16297 0.0
C953 C 0.74526 0.13931 0.16766 0.0
C954 C 0.77614 0.1147 0.17516 0.0
C955 C 0.87775 0.86655 0.18086 0.0
C956 C 0.89476 0.86634 0.16585 0.0
C957 C 0.8593 0.90345 0.18681 0.0
C958 C 0.85848 0.94099 0.17796 0.0
C959 C 0.87275 0.93989 0.16255 0.0
C960 C 0.8911 0.90289 0.15658 0.0
C961 C 0.84718 0.98209 0.18535 0.0
C962 C 0.8147 1.00705 0.17888 0.0
C963 C 0.86861 0.99661 0.19884 0.0
C964 C 0.90639 0.97426 0.20521 0.0
C965 C 0.94195 0.96688 0.1958 0.0
C966 C 0.97737 0.94557 0.20179 0.0
C967 C 0.97775 0.93177 0.21722 0.0
C968 C 0.94274 0.93932 0.2267 0.0
C969 C 0.9072 0.96057 0.22076 0.0
H970 H 1.00521 0.91529 0.22184 0.0
H971 H 0.68312 0.14002 0.15715 0.0
H972 H 0.5952 0.08513 0.97612 0.0
H973 H 0.64937 0.09994 0.95638 0.0
H974 H 0.71338 0.98326 0.96828 0.0
H975 H 0.65908 0.96779 0.98758 0.0
H976 H 0.76392 0.05824 0.97127 0.0
H977 H 0.67178 0.98937 0.93421 0.0
H978 H 0.60449 0.97814 0.92008 0.0
H979 H 0.61006 0.10529 0.90214 0.0
H980 H 0.67712 0.11751 0.91635 0.0
H981 H 0.93864 0.09026 0.92213 0.0
H982 H 0.87666 0.05259 0.93266 0.0
H983 H 0.7948 0.15254 0.91572 0.0
H984 H 0.85611 0.18939 0.90511 0.0
H985 H 0.75308 0.08026 0.91431 0.0
H986 H 0.83417 0.1552 0.95257 0.0
H987 H 0.89835 0.17471 0.96742 0.0
H988 H 0.90963 0.04663 0.98417 0.0
H989 H 0.84574 0.02623 0.96922 0.0
C990 C 0.61997 0.06196 0.97412 0.0
C991 C 0.6231 0.02555 0.98354 0.0
C992 C 0.65107 0.07056 0.96291 0.0
C993 C 0.68573 0.0429 0.96099 0.0
C994 C 0.68718 1.0052 0.96964 0.0
C995 C 0.65605 0.99641 0.98066 0.0
C996 C 0.72271 0.05509 0.95127 0.0
C997 C 0.76173 0.06221 0.95877 0.0
C998 C 0.71954 0.06178 0.93505 0.0
C999 C 0.67928 0.05447 0.92647 0.0
C1000 C 0.65847 0.01507 0.92737 0.0
C1001 C 0.6204 0.0085 0.91932 0.0
C1002 C 0.60295 0.04101 0.91025 0.0
C1003 C 0.62359 0.08015 0.90918 0.0
C1004 C 0.66165 0.08689 0.91722 0.0
C1005 C 0.9072 0.10314 0.92017 0.0
C1006 C 0.90203 0.14258 0.91279 0.0
C1007 C 0.87183 0.08194 0.92632 0.0
C1008 C 0.83096 0.10009 0.92524 0.0
C1009 C 0.82573 0.13777 0.91675 0.0
C1010 C 0.86086 0.15884 0.91068 0.0
C1011 C 0.79449 0.083 0.93431 0.0
C1012 C 0.75548 0.07547 0.92677 0.0
C1013 C 0.79722 0.07698 0.95061 0.0
C1014 C 0.83556 0.08906 0.95962 0.0
C1015 C 0.85055 0.13112 0.95932 0.0
C1016 C 0.88683 0.14235 0.96777 0.0
C1017 C 0.90815 0.11188 0.97669 0.0
C1018 C 0.89314 0.07016 0.97722 0.0
C1019 C 0.8569 0.05874 0.96876 0.0
H1020 H 0.93623 0.12064 0.98323 0.0
H1021 H 0.57349 0.03586 0.90401 0.0
H1022 H 0.82047 0.88881 0.72067 0.0
H1023 H 0.80087 0.94509 0.70228 0.0
H1024 H 0.66882 0.91364 0.70808 0.0
H1025 H 0.68869 0.85647 0.72612 0.0
H1026 H 0.68124 0.94362 0.67915 0.0
H1027 H 0.71622 0.9868 0.73108 0.0
H1028 H 0.76151 0.99132 0.75448 0.0
H1029 H 0.85679 0.05694 0.72837 0.0
H1030 H 0.81232 0.05208 0.70472 0.0
H1031 H 0.58157 0.14496 0.68918 0.0
H1032 H 0.62421 0.08419 0.69649 0.0
H1033 H 0.70857 0.10832 0.65834 0.0
H1034 H 0.66474 0.16968 0.6504 0.0
H1035 H 0.72989 0.08298 0.69942 0.0
H1036 H 0.68416 0.03991 0.64653 0.0
H1037 H 0.6281 0.04003 0.62642 0.0
H1038 H 0.54372 0.97628 0.65765 0.0
H1039 H 0.59868 0.97759 0.67821 0.0
C1040 C 0.78743 0.89276 0.71746 0.0
C1041 C 0.7561 0.86809 0.72468 0.0
C1042 C 0.77617 0.92521 0.70708 0.0
C1043 C 0.73326 0.93436 0.70402 0.0
C1044 C 0.70212 0.90735 0.71022 0.0
C1045 C 0.71346 0.87451 0.72049 0.0
C1046 C 0.72071 0.97494 0.69617 0.0
C1047 C 0.6925 0.97397 0.68345 0.0
C1048 C 0.73475 0.01492 0.70183 0.0
C1049 C 0.76119 0.01863 0.71609 0.0
C1050 C 0.74694 1.00196 0.7303 0.0
C1051 C 0.77245 1.00458 0.74361 0.0
C1052 C 0.81205 0.0243 0.7429 0.0
C1053 C 0.82615 0.04158 0.72889 0.0
C1054 C 0.80082 0.03889 0.71553 0.0
C1055 C 0.60924 0.13796 0.68224 0.0
C1056 C 0.61914 0.1623 0.66896 0.0
C1057 C 0.63369 0.10298 0.68654 0.0
C1058 C 0.66914 0.09133 0.67787 0.0
C1059 C 0.68092 0.11656 0.6651 0.0
C1060 C 0.65596 0.15173 0.66061 0.0
C1061 C 0.69172 0.05147 0.68217 0.0
C1062 C 0.72063 0.05251 0.6946 0.0
C1063 C 0.67778 0.01171 0.67645 0.0
C1064 C 0.6454 0.00917 0.66393 0.0
C1065 C 0.65352 0.02629 0.64915 0.0
C1066 C 0.62195 0.0261 0.63768 0.0
C1067 C 0.58242 1.00805 0.64074 0.0
C1068 C 0.57435 0.99025 0.6553 0.0
C1069 C 0.60566 0.99082 0.66689 0.0
H1070 H 0.55806 1.00785 0.63183 0.0
H1071 H 0.83177 0.02629 0.75322 0.0
H1072 H 0.66612 0.56237 0.97573 0.0
H1073 H 0.71887 0.53815 0.95728 0.0
H1074 H 0.64773 0.42274 0.95002 0.0
H1075 H 0.59594 0.44591 0.96936 0.0
H1076 H 0.72414 0.40222 0.95503 0.0
H1077 H 0.66231 0.50289 0.92091 0.0
H1078 H 0.6335 0.57147 0.91189 0.0
H1079 H 0.75507 0.62995 0.91881 0.0
H1080 H 0.7845 0.56187 0.92811 0.0
H1081 H 0.8624 0.32706 0.89847 0.0
H1082 H 0.79935 0.36551 0.90702 0.0
H1083 H 0.87873 0.45715 0.93036 0.0
H1084 H 0.94234 0.41823 0.92181 0.0
H1085 H 0.79563 0.48891 0.91477 0.0
H1086 H 0.85238 0.38436 0.95153 0.0
H1087 H 0.87894 0.31263 0.95782 0.0
H1088 H 0.76068 0.25852 0.94281 0.0
H1089 H 0.73368 0.32996 0.93618 0.0
C1090 C 0.6614 0.53196 0.97011 0.0
C1091 C 0.62711 0.50576 0.97425 0.0
C1092 C 0.69144 0.51833 0.95935 0.0
C1093 C 0.68749 0.47856 0.95212 0.0
C1094 C 0.65172 0.4535 0.95546 0.0
C1095 C 0.62182 0.46695 0.96641 0.0
C1096 C 0.72284 0.46155 0.94245 0.0
C1097 C 0.73903 0.42109 0.94604 0.0
C1098 C 0.74314 0.48609 0.9308 0.0
C1099 C 0.72552 0.52728 0.92534 0.0
C1100 C 0.68283 0.53045 0.92065 0.0
C1101 C 0.6664 0.56923 0.91546 0.0
C1102 C 0.69241 0.60507 0.91481 0.0
C1103 C 0.73494 0.60217 0.91933 0.0
C1104 C 0.75153 0.56347 0.92455 0.0
C1105 C 0.86638 0.35636 0.90492 0.0
C1106 C 0.90701 0.37 0.90942 0.0
C1107 C 0.83039 0.37818 0.90983 0.0
C1108 C 0.83439 0.41393 0.91942 0.0
C1109 C 0.87507 0.42973 0.92289 0.0
C1110 C 0.91132 0.40768 0.91798 0.0
C1111 C 0.79651 0.43036 0.9276 0.0
C1112 C 0.78014 0.4704 0.92372 0.0
C1113 C 0.77543 0.40523 0.93878 0.0
C1114 C 0.79118 0.36244 0.94322 0.0
C1115 C 0.83215 0.35714 0.94948 0.0
C1116 C 0.84727 0.31654 0.95311 0.0
C1117 C 0.82156 0.28102 0.95068 0.0
C1118 C 0.78059 0.28606 0.94467 0.0
C1119 C 0.76535 0.3266 0.94099 0.0
H1120 H 0.83335 0.2496 0.95347 0.0
H1121 H 0.67964 0.63506 0.91077 0.0
H1122 H 0.87169 0.40322 0.24704 0.0
H1123 H 0.90039 0.4553 0.22889 0.0
H1124 H 0.79609 0.432 0.1974 0.0
H1125 H 0.76715 0.37931 0.21568 0.0
H1126 H 0.88468 0.4531 0.18344 0.0
H1127 H 0.77634 0.50417 0.21866 0.0
H1128 H 0.74449 0.50746 0.24473 0.0
H1129 H 0.85836 0.56378 0.26291 0.0
H1130 H 0.89122 0.55994 0.237 0.0
H1131 H 0.90567 0.65924 0.14845 0.0
H1132 H 0.87758 0.5934 0.15949 0.0
H1133 H 0.9452 0.61813 0.2023 0.0
H1134 H 0.97205 0.68451 0.19153 0.0
H1135 H 0.8688 0.59394 0.20866 0.0
H1136 H 0.97695 0.54646 0.17383 0.0
H1137 H 0.01199 0.5405 0.14842 0.0
H1138 H 0.90415 0.47395 0.13004 0.0
H1139 H 0.86735 0.48172 0.15506 0.0
C1140 C 0.85564 0.40822 0.23602 0.0
C1141 C 0.8171 0.3877 0.23276 0.0
C1142 C 0.87209 0.43783 0.22565 0.0
C1143 C 0.85012 0.44771 0.2119 0.0
C1144 C 0.81355 0.42458 0.20794 0.0
C1145 C 0.79705 0.39463 0.21836 0.0
C1146 C 0.86156 0.48686 0.20337 0.0
C1147 C 0.88061 0.48407 0.18874 0.0
C1148 C 0.85684 0.52699 0.21051 0.0
C1149 C 0.83632 0.53151 0.22591 0.0
C1150 C 0.79463 0.51711 0.22823 0.0
C1151 C 0.77641 0.51903 0.24298 0.0
C1152 C 0.79941 0.53574 0.25548 0.0
C1153 C 0.84059 0.55081 0.25322 0.0
C1154 C 0.85902 0.54881 0.2385 0.0
C1155 C 0.91456 0.65055 0.16021 0.0
C1156 C 0.94086 0.67718 0.16916 0.0
C1157 C 0.89859 0.61284 0.16649 0.0
C1158 C 0.90947 0.60055 0.18171 0.0
C1159 C 0.93609 0.62698 0.19057 0.0
C1160 C 0.95146 0.66495 0.1844 0.0
C1161 C 0.89275 0.56066 0.18864 0.0
C1162 C 0.87256 0.56325 0.20311 0.0
C1163 C 0.89673 0.52046 0.18131 0.0
C1164 C 0.91915 0.51519 0.1663 0.0
C1165 C 0.96048 0.53101 0.16432 0.0
C1166 C 0.98066 0.52732 0.14998 0.0
C1167 C 0.96039 0.50676 0.13763 0.0
C1168 C 0.91977 0.49002 0.13959 0.0
C1169 C 0.89912 0.49428 0.15383 0.0
H1170 H 0.97619 0.50376 0.12656 0.0
H1171 H 0.78532 0.53704 0.2669 0.0
H1172 H 0.91247 0.54144 0.46027 0.0
H1173 H 0.8575 0.57978 0.44546 0.0
H1174 H 0.79963 0.61936 0.48837 0.0
H1175 H 0.85396 0.58097 0.50307 0.0
H1176 H 0.74309 0.58213 0.46982 0.0
H1177 H 0.85147 0.68869 0.46388 0.0
H1178 H 0.92217 0.71434 0.45626 0.0
H1179 H 0.89676 0.67973 0.40887 0.0
H1180 H 0.82624 0.65291 0.41627 0.0
H1181 H 0.58299 0.7204 0.4442 0.0
H1182 H 0.64789 0.69265 0.45601 0.0
H1183 H 0.69533 0.65985 0.41069 0.0
H1184 H 0.63061 0.68834 0.39871 0.0
H1185 H 0.75846 0.69144 0.42871 0.0
H1186 H 0.65266 0.58428 0.43388 0.0
H1187 H 0.58304 0.55441 0.44078 0.0
H1188 H 0.60464 0.58637 0.48867 0.0
H1189 H 0.67415 0.61705 0.48202 0.0
C1190 C 0.88868 0.55937 0.46649 0.0
C1191 C 0.88738 0.55811 0.48281 0.0
C1192 C 0.85717 0.58115 0.45803 0.0
C1193 C 0.82416 0.60235 0.46579 0.0
C1194 C 0.82446 0.60304 0.4821 0.0
C1195 C 0.85566 0.58125 0.4905 0.0
C1196 C 0.7873 0.62084 0.45715 0.0
C1197 C 0.74653 0.60649 0.461 0.0
C1198 C 0.79169 0.6514 0.44517 0.0
C1199 C 0.83376 0.66828 0.44067 0.0
C1200 C 0.8611 0.68614 0.45186 0.0
C1201 C 0.90118 0.70083 0.44759 0.0
C1202 C 0.91405 0.69842 0.43211 0.0
C1203 C 0.88681 0.68144 0.42087 0.0
C1204 C 0.84679 0.66644 0.4251 0.0
C1205 C 0.60714 0.70732 0.43671 0.0
C1206 C 0.60118 0.70616 0.4205 0.0
C1207 C 0.64434 0.69143 0.44349 0.0
C1208 C 0.67635 0.67348 0.43429 0.0
C1209 C 0.67113 0.67343 0.41806 0.0
C1210 C 0.63395 0.68959 0.41123 0.0
C1211 C 0.71433 0.65344 0.44172 0.0
C1212 C 0.75515 0.66717 0.43758 0.0
C1213 C 0.71019 0.6219 0.45335 0.0
C1214 C 0.66844 0.60335 0.45742 0.0
C1215 C 0.64242 0.58525 0.44586 0.0
C1216 C 0.603 0.56813 0.44973 0.0
C1217 C 0.58938 0.56859 0.46515 0.0
C1218 C 0.61521 0.58609 0.47673 0.0
C1219 C 0.65464 0.60333 0.47292 0.0
H1220 H 0.55885 0.55531 0.46812 0.0
H1221 H 0.94503 0.70998 0.42882 0.0
H1222 H 0.77682 0.5851 0.73466 0.0
H1223 H 0.7417 0.5345 0.71771 0.0
H1224 H 0.63901 0.62314 0.71042 0.0
H1225 H 0.67294 0.67313 0.72847 0.0
H1226 H 0.60625 0.55206 0.7152 0.0
H1227 H 0.71482 0.59353 0.68093 0.0
H1228 H 0.78718 0.61006 0.67212 0.0
H1229 H 0.82509 0.48101 0.6805 0.0
H1230 H 0.75311 0.46381 0.68957 0.0
H1231 H 0.59221 0.38066 0.64747 0.0
H1232 H 0.61812 0.4479 0.65803 0.0
H1233 H 0.58099 0.40871 0.704 0.0
H1234 H 0.55444 0.34175 0.6935 0.0
H1235 H 0.67973 0.46354 0.67611 0.0
H1236 H 0.56224 0.48361 0.72703 0.0
H1237 H 0.48596 0.49028 0.73285 0.0
H1238 H 0.45989 0.51872 0.68495 0.0
H1239 H 0.53568 0.51067 0.67875 0.0
C1240 C 0.74668 0.594 0.7295 0.0
C1241 C 0.7274 0.63307 0.73322 0.0
C1242 C 0.72687 0.56511 0.71953 0.0
C1243 C 0.6877 0.57479 0.71254 0.0
C1244 C 0.66918 0.61465 0.71564 0.0
C1245 C 0.68881 0.6435 0.72587 0.0
C1246 C 0.66487 0.54189 0.70309 0.0
C1247 C 0.62244 0.5329 0.70661 0.0
C1248 C 0.68518 0.51735 0.69149 0.0
C1249 C 0.72858 0.52746 0.68603 0.0
C1250 C 0.73865 0.56874 0.681 0.0
C1251 C 0.7796 0.57822 0.67594 0.0
C1252 C 0.81073 0.54662 0.67578 0.0
C1253 C 0.80095 0.50545 0.68064 0.0
C1254 C 0.76005 0.49581 0.68572 0.0
C1255 C 0.58921 0.38639 0.65982 0.0
C1256 C 0.57155 0.3553 0.66962 0.0
C1257 C 0.60406 0.42503 0.66587 0.0
C1258 C 0.60141 0.4339 0.68185 0.0
C1259 C 0.58286 0.40332 0.6916 0.0
C1260 C 0.56809 0.36462 0.68558 0.0
C1261 C 0.62138 0.47309 0.68854 0.0
C1262 C 0.66348 0.48297 0.68461 0.0
C1263 C 0.60034 0.49955 0.69933 0.0
C1264 C 0.55444 0.49609 0.70242 0.0
C1265 C 0.54 0.49021 0.71769 0.0
C1266 C 0.49691 0.49432 0.72105 0.0
C1267 C 0.46815 0.50503 0.70928 0.0
C1268 C 0.48213 0.51002 0.69402 0.0
C1269 C 0.52509 0.50521 0.69054 0.0
H1270 H 0.4351 0.50966 0.71202 0.0
H1271 H 0.84242 0.55403 0.67186 0.0
H1272 H 0.60011 0.51566 0.04544 0.0
H1273 H 0.64528 0.54397 0.06646 0.0
H1274 H 0.69435 0.63854 0.03507 0.0
H1275 H 0.64942 0.61074 0.01427 0.0
H1276 H 0.7313 0.54666 0.06735 0.0
H1277 H 0.72034 0.72835 0.05467 0.0
H1278 H 0.66721 0.78115 0.04627 0.0
H1279 H 0.56716 0.7004 0.0625 0.0
H1280 H 0.61974 0.64748 0.07131 0.0
H1281 H 0.91581 0.6646 0.08413 0.0
H1282 H 0.85272 0.63065 0.07345 0.0
H1283 H 0.77701 0.68529 0.10986 0.0
H1284 H 0.84009 0.71994 0.12065 0.0
H1285 H 0.74258 0.69919 0.08114 0.0
H1286 H 0.79293 0.581 0.10994 0.0
H1287 H 0.84583 0.52948 0.11955 0.0
H1288 H 0.86411 0.4834 0.07312 0.0
H1289 H 0.81177 0.53513 0.06319 0.0
C1290 C 0.61997 0.543 0.04318 0.0
C1291 C 0.62139 0.56094 0.02823 0.0
C1292 C 0.64592 0.55897 0.05514 0.0
C1293 C 0.67307 0.59358 0.05239 0.0
C1294 C 0.67334 0.61225 0.03758 0.0
C1295 C 0.64781 0.59616 0.02566 0.0
C1296 C 0.70344 0.60871 0.0645 0.0
C1297 C 0.73351 0.57995 0.07048 0.0
C1298 C 0.70603 0.65207 0.06881 0.0
C1299 C 0.67406 0.68375 0.06356 0.0
C1300 C 0.68704 0.72193 0.05653 0.0
C1301 C 0.657 0.75189 0.05169 0.0
C1302 C 0.61382 0.74408 0.05381 0.0
C1303 C 0.60061 0.70634 0.06082 0.0
C1304 C 0.63053 0.67632 0.06573 0.0
C1305 C 0.88596 0.66911 0.09005 0.0
C1306 C 0.88324 0.69535 0.10325 0.0
C1307 C 0.84984 0.64942 0.08393 0.0
C1308 C 0.81014 0.65521 0.09089 0.0
C1309 C 0.80735 0.68031 0.10432 0.0
C1310 C 0.84353 0.7001 0.11047 0.0
C1311 C 0.77142 0.63752 0.08337 0.0
C1312 C 0.73994 0.66581 0.07821 0.0
C1313 C 0.76742 0.59378 0.07989 0.0
C1314 C 0.79853 0.56214 0.08581 0.0
C1315 C 0.8084 0.56006 0.10176 0.0
C1316 C 0.83829 0.53079 0.10727 0.0
C1317 C 0.85837 0.50321 0.09695 0.0
C1318 C 0.84851 0.50478 0.08111 0.0
C1319 C 0.81868 0.53403 0.07553 0.0
H1320 H 0.88154 0.48059 0.10122 0.0
H1321 H 0.5906 0.76731 0.05004 0.0
H1322 H 0.70088 0.35412 0.29146 0.0
H1323 H 0.6735 0.40209 0.31109 0.0
H1324 H 0.77682 0.48856 0.30273 0.0
H1325 H 0.80716 0.43865 0.2843 0.0
H1326 H 0.75416 0.4955 0.33182 0.0
H1327 H 0.67732 0.50037 0.28278 0.0
H1328 H 0.64042 0.46503 0.26097 0.0
H1329 H 0.54977 0.41256 0.29267 0.0
H1330 H 0.58568 0.44825 0.31459 0.0
H1331 H 0.64485 0.69289 0.34435 0.0
H1332 H 0.68338 0.63214 0.33362 0.0
H1333 H 0.58795 0.54722 0.35127 0.0
H1334 H 0.54945 0.60753 0.36218 0.0
H1335 H 0.60584 0.53679 0.31933 0.0
H1336 H 0.67955 0.54591 0.36808 0.0
H1337 H 0.71942 0.58233 0.38888 0.0
H1338 H 0.81935 0.61089 0.35689 0.0
H1339 H 0.7797 0.57531 0.33581 0.0
C1340 C 0.71886 0.38247 0.29413 0.0
C1341 C 0.75585 0.39271 0.28584 0.0
C1342 C 0.70266 0.41035 0.30525 0.0
C1343 C 0.72208 0.44984 0.30796 0.0
C1344 C 0.76076 0.45866 0.30069 0.0
C1345 C 0.77771 0.43022 0.2899 0.0
C1346 C 0.70005 0.48346 0.31705 0.0
C1347 C 0.72185 0.50471 0.32903 0.0
C1348 C 0.65774 0.49547 0.31354 0.0
C1349 C 0.63418 0.4768 0.30028 0.0
C1350 C 0.64924 0.48162 0.28504 0.0
C1351 C 0.62849 0.46158 0.27267 0.0
C1352 C 0.59268 0.43666 0.27542 0.0
C1353 C 0.57725 0.43217 0.29052 0.0
C1354 C 0.59763 0.45249 0.30291 0.0
C1355 C 0.63228 0.66126 0.3461 0.0
C1356 C 0.59403 0.65512 0.35412 0.0
C1357 C 0.65443 0.62658 0.34002 0.0
C1358 C 0.63855 0.58521 0.3417 0.0
C1359 C 0.60078 0.5789 0.34989 0.0
C1360 C 0.57893 0.61344 0.35617 0.0
C1361 C 0.65993 0.54885 0.33408 0.0
C1362 C 0.63801 0.52732 0.32226 0.0
C1363 C 0.70228 0.53725 0.33762 0.0
C1364 C 0.72645 0.55825 0.35032 0.0
C1365 C 0.70986 0.56026 0.36544 0.0
C1366 C 0.73245 0.58071 0.37729 0.0
C1367 C 0.77185 0.59899 0.3742 0.0
C1368 C 0.7888 0.59675 0.35926 0.0
C1369 C 0.76629 0.57642 0.34736 0.0
H1370 H 0.78929 0.6148 0.38339 0.0
H1371 H 0.577 0.42072 0.26585 0.0
H1372 H 0.84756 0.42113 0.50507 0.0
H1373 H 0.80224 0.38724 0.5244 0.0
H1374 H 0.8903 0.42245 0.56067 0.0
H1375 H 0.93609 0.4563 0.5413 0.0
H1376 H 0.84754 0.34126 0.56559 0.0
H1377 H 0.81666 0.48789 0.55453 0.0
H1378 H 0.80413 0.54825 0.53681 0.0
H1379 H 0.69443 0.48566 0.51795 0.0
H1380 H 0.70684 0.42448 0.53535 0.0
H1381 H 0.67608 0.32184 0.6215 0.0
H1382 H 0.73917 0.34743 0.6076 0.0
H1383 H 0.66739 0.3485 0.56472 0.0
H1384 H 0.60488 0.32531 0.57843 0.0
H1385 H 0.70965 0.41711 0.56652 0.0
H1386 H 0.74022 0.26911 0.57859 0.0
H1387 H 0.7549 0.20957 0.59651 0.0
H1388 H 0.86744 0.27191 0.6128 0.0
H1389 H 0.85204 0.33323 0.59587 0.0
C1390 C 0.85772 0.42082 0.51712 0.0
C1391 C 0.89495 0.44192 0.52173 0.0
C1392 C 0.83193 0.40133 0.52813 0.0
C1393 C 0.84262 0.403 0.54398 0.0
C1394 C 0.88154 0.42085 0.5485 0.0
C1395 C 0.90759 0.4402 0.53743 0.0
C1396 C 0.81031 0.39187 0.55573 0.0
C1397 C 0.81742 0.35788 0.56597 0.0
C1398 C 0.77134 0.414 0.55623 0.0
C1399 C 0.76285 0.45148 0.54618 0.0
C1400 C 0.78997 0.48691 0.54656 0.0
C1401 C 0.78292 0.52126 0.53656 0.0
C1402 C 0.74855 0.52076 0.52624 0.0
C1403 C 0.72106 0.48599 0.52594 0.0
C1404 C 0.72807 0.45147 0.53588 0.0
C1405 C 0.67388 0.328 0.60914 0.0
C1406 C 0.63527 0.32212 0.60114 0.0
C1407 C 0.70998 0.3423 0.60118 0.0
C1408 C 0.70823 0.34969 0.58505 0.0
C1409 C 0.66968 0.34347 0.57716 0.0
C1410 C 0.63374 0.33024 0.58508 0.0
C1411 C 0.74551 0.36466 0.57602 0.0
C1412 C 0.7396 0.40012 0.56631 0.0
C1413 C 0.78538 0.34358 0.57605 0.0
C1414 C 0.79454 0.30623 0.58611 0.0
C1415 C 0.76776 0.27051 0.58615 0.0
C1416 C 0.77624 0.23636 0.59611 0.0
C1417 C 0.81219 0.23679 0.60565 0.0
C1418 C 0.83957 0.27159 0.60539 0.0
C1419 C 0.83079 0.30622 0.59572 0.0
H1420 H 0.81878 0.21019 0.61326 0.0
H1421 H 0.74319 0.54735 0.51848 0.0
H1422 H 0.74326 0.62124 0.79285 0.0
H1423 H 0.77248 0.56685 0.8103 0.0
H1424 H 0.89823 0.59481 0.79381 0.0
H1425 H 0.8689 0.6496 0.77643 0.0
H1426 H 0.87583 0.51065 0.79039 0.0
H1427 H 0.87197 0.61531 0.8309 0.0
H1428 H 0.83918 0.66931 0.84772 0.0
H1429 H 0.75138 0.57651 0.86483 0.0
H1430 H 0.78318 0.52207 0.84791 0.0
H1431 H 0.99474 0.36844 0.83452 0.0
H1432 H 0.96384 0.43184 0.82317 0.0
H1433 H 0.84693 0.40796 0.84739 0.0
H1434 H 0.87911 0.34471 0.85968 0.0
H1435 H 0.861 0.48958 0.84721 0.0
H1436 H 0.86233 0.38512 0.80734 0.0
H1437 H 0.89133 0.33007 0.79005 0.0
H1438 H 0.97774 0.42075 0.77066 0.0
H1439 H 0.95016 0.47608 0.78815 0.0
C1440 C 0.77731 0.61682 0.79341 0.0
C1441 C 0.80394 0.63995 0.78346 0.0
C1442 C 0.79398 0.58565 0.80335 0.0
C1443 C 0.8376 0.57663 0.8034 0.0
C1444 C 0.8645 0.60126 0.79402 0.0
C1445 C 0.84784 0.63282 0.7842 0.0
C1446 C 0.85431 0.53845 0.81174 0.0
C1447 C 0.87329 0.50638 0.80286 0.0
C1448 C 0.84906 0.53189 0.8279 0.0
C1449 C 0.82969 0.56469 0.838 0.0
C1450 C 0.84537 0.6065 0.83812 0.0
C1451 C 0.82702 0.63718 0.8477 0.0
C1452 C 0.79313 0.62638 0.8573 0.0
C1453 C 0.77758 0.58485 0.85736 0.0
C1454 C 0.79577 0.55406 0.84778 0.0
C1455 C 0.96221 0.37617 0.83736 0.0
C1456 C 0.93894 0.35065 0.84769 0.0
C1457 C 0.94452 0.41264 0.8308 0.0
C1458 C 0.90245 0.42419 0.83391 0.0
C1459 C 0.87929 0.39952 0.8446 0.0
C1460 C 0.89753 0.36323 0.85155 0.0
C1461 C 0.88338 0.46197 0.82589 0.0
C1462 C 0.86367 0.4938 0.83475 0.0
C1463 C 0.88729 0.46814 0.8096 0.0
C1464 C 0.90435 0.43472 0.79917 0.0
C1465 C 0.88781 0.39325 0.79951 0.0
C1466 C 0.90401 0.36198 0.78966 0.0
C1467 C 0.93639 0.3719 0.77927 0.0
C1468 C 0.95261 0.41313 0.77869 0.0
C1469 C 0.93681 0.44442 0.78861 0.0
H1470 H 0.94889 0.34765 0.77166 0.0
H1471 H 0.77901 0.65016 0.86472 0.0
H1472 H 0.33889 0.57372 0.00743 0.0
H1473 H 0.29268 0.60774 0.02607 0.0
H1474 H 0.38743 0.59138 0.06197 0.0
H1475 H 0.43299 0.55391 0.04348 0.0
H1476 H 0.31277 0.57262 0.07317 0.0
H1477 H 0.36595 0.68889 0.04418 0.0
H1478 H 0.38496 0.72665 0.02012 0.0
H1479 H 0.25363 0.73339 0.00693 0.0
H1480 H 0.23385 0.69448 0.03065 0.0
H1481 H 0.17502 0.71105 0.11938 0.0
H1482 H 0.23761 0.683 0.10593 0.0
H1483 H 0.161 0.65763 0.06536 0.0
H1484 H 0.09862 0.68464 0.07861 0.0
H1485 H 0.23736 0.70622 0.05979 0.0
H1486 H 0.19019 0.57386 0.08403 0.0
H1487 H 0.17104 0.52791 0.10611 0.0
H1488 H 0.29105 0.5539 0.12795 0.0
H1489 H 0.31109 0.59961 0.10584 0.0
C1490 C 0.34997 0.57685 0.01931 0.0
C1491 C 0.38965 0.56052 0.02394 0.0
C1492 C 0.32363 0.59704 0.02995 0.0
C1493 C 0.33672 0.60293 0.04542 0.0
C1494 C 0.37665 0.58744 0.05008 0.0
C1495 C 0.40288 0.56644 0.03945 0.0
C1496 C 0.30774 0.62399 0.05666 0.0
C1497 C 0.29716 0.60242 0.0704 0.0
C1498 C 0.2869 0.66277 0.05307 0.0
C1499 C 0.29843 0.68839 0.03919 0.0
C1500 C 0.3411 0.69818 0.03612 0.0
C1501 C 0.35205 0.71961 0.02249 0.0
C1502 C 0.32055 0.73209 0.01195 0.0
C1503 C 0.27801 0.72352 0.01508 0.0
C1504 C 0.26691 0.70176 0.02862 0.0
C1505 C 0.17141 0.69904 0.10766 0.0
C1506 C 0.13164 0.70017 0.10012 0.0
C1507 C 0.20721 0.68305 0.1 0.0
C1508 C 0.20393 0.66853 0.08462 0.0
C1509 C 0.16425 0.66889 0.0772 0.0
C1510 C 0.1285 0.68416 0.08488 0.0
C1511 C 0.2417 0.65403 0.07588 0.0
C1512 C 0.25395 0.67703 0.06268 0.0
C1513 C 0.26421 0.61682 0.07997 0.0
C1514 C 0.25187 0.59047 0.09343 0.0
C1515 C 0.21231 0.57003 0.09362 0.0
C1516 C 0.2014 0.54387 0.10609 0.0
C1517 C 0.2297 0.53817 0.11848 0.0
C1518 C 0.26911 0.55842 0.11837 0.0
C1519 C 0.28034 0.58431 0.10584 0.0
H1520 H 0.22114 0.51797 0.12815 0.0
H1521 H 0.32908 0.74866 1.0014 0.0
H1522 H 0.15245 0.67373 0.7783 0.0
H1523 H 0.12334 0.62504 0.79794 0.0
H1524 H 0.23257 0.54393 0.79316 0.0
H1525 H 0.26269 0.59282 0.77427 0.0
H1526 H 0.13548 0.51089 0.78811 0.0
H1527 H 0.24121 0.58179 0.82221 0.0
H1528 H 0.27022 0.64615 0.83465 0.0
H1529 H 0.14892 0.6723 0.85492 0.0
H1530 H 0.11907 0.60835 0.84239 0.0
H1531 H 0.13252 0.33831 0.83829 0.0
H1532 H 0.15807 0.4006 0.82429 0.0
H1533 H 0.07529 0.48094 0.85105 0.0
H1534 H 0.05008 0.41915 0.86532 0.0
H1535 H 0.14876 0.52104 0.84549 0.0
H1536 H 0.04478 0.44751 0.81647 0.0
H1537 H 0.01008 0.38552 0.80447 0.0
H1538 H 0.1158 0.36938 0.77388 0.0
H1539 H 0.15201 0.43031 0.78611 0.0
C1540 C 0.17064 0.64602 0.7817 0.0
C1541 C 0.20958 0.63683 0.77453 0.0
C1542 C 0.15388 0.6182 0.79283 0.0
C1543 C 0.17581 0.58092 0.79684 0.0
C1544 C 0.21516 0.57247 0.79011 0.0
C1545 C 0.23212 0.60034 0.77924 0.0
C1546 C 0.15716 0.54893 0.80732 0.0
C1547 C 0.13845 0.51289 0.80065 0.0
C1548 C 0.15975 0.55254 0.82364 0.0
C1549 C 0.1778 0.5907 0.8312 0.0
C1550 C 0.22063 0.60154 0.82917 0.0
C1551 C 0.23725 0.63786 0.83627 0.0
C1552 C 0.21139 0.66339 0.84552 0.0
C1553 C 0.16889 0.65256 0.84773 0.0
C1554 C 0.15212 0.61628 0.84064 0.0
C1555 C 0.12024 0.36925 0.84142 0.0
C1556 C 0.08884 0.37347 0.85284 0.0
C1557 C 0.13479 0.40485 0.83335 0.0
C1558 C 0.11789 0.44529 0.8364 0.0
C1559 C 0.08861 0.45004 0.84845 0.0
C1560 C 0.07422 0.41451 0.8566 0.0
C1561 C 0.12858 0.48186 0.82627 0.0
C1562 C 0.1454 0.51892 0.83296 0.0
C1563 C 0.1233 0.47961 0.80993 0.0
C1564 C 0.10134 0.44333 0.80232 0.0
C1565 C 0.06086 0.43054 0.80728 0.0
C1566 C 0.04092 0.39555 0.80046 0.0
C1567 C 0.06067 0.37357 0.78841 0.0
C1568 C 0.10053 0.38645 0.78322 0.0
C1569 C 0.12086 0.42115 0.79013 0.0
H1570 H 0.04505 0.34662 0.78309 0.0
H1571 H 0.22431 0.69149 0.85101 0.0
H1572 H 0.16222 0.42083 0.50961 0.0
H1573 H 0.20723 0.39294 0.53018 0.0
H1574 H 0.13596 0.4634 0.56418 0.0
H1575 H 0.09159 0.4934 0.54329 0.0
H1576 H 0.2164 0.47177 0.57033 0.0
H1577 H 0.12977 0.35309 0.56169 0.0
H1578 H 0.08989 0.2973 0.54787 0.0
H1579 H 0.206 0.24648 0.52989 0.0
H1580 H 0.24658 0.30244 0.54334 0.0
H1581 H 0.35141 0.33594 0.62236 0.0
H1582 H 0.28746 0.36746 0.61052 0.0
H1583 H 0.34807 0.36639 0.56579 0.0
H1584 H 0.41215 0.33626 0.57749 0.0
H1585 H 0.26039 0.32046 0.57125 0.0
H1586 H 0.34182 0.45362 0.57762 0.0
H1587 H 0.37795 0.50637 0.59422 0.0
H1588 H 0.2636 0.52456 0.62021 0.0
H1589 H 0.22697 0.47143 0.60387 0.0
C1590 C 0.15606 0.43062 0.52145 0.0
C1591 C 0.12355 0.45977 0.52476 0.0
C1592 C 0.18152 0.41408 0.53327 0.0
C1593 C 0.17471 0.42543 0.54883 0.0
C1594 C 0.14173 0.45395 0.55229 0.0
C1595 C 0.11621 0.47085 0.54036 0.0
C1596 C 0.20408 0.4092 0.5611 0.0
C1597 C 0.22524 0.43849 0.57074 0.0
C1598 C 0.21553 0.36566 0.56189 0.0
C1599 C 0.19124 0.33224 0.55349 0.0
C1600 C 0.14681 0.33031 0.55467 0.0
C1601 C 0.12407 0.29858 0.54691 0.0
C1602 C 0.14539 0.26839 0.53799 0.0
C1603 C 0.18952 0.2699 0.5368 0.0
C1604 C 0.21241 0.30161 0.5445 0.0
C1605 C 0.35128 0.34317 0.61005 0.0
C1606 C 0.3868 0.3337 0.60084 0.0
C1607 C 0.31486 0.36121 0.60335 0.0
C1608 C 0.31324 0.36911 0.58732 0.0
C1609 C 0.3489 0.36055 0.5782 0.0
C1610 C 0.38552 0.3435 0.58491 0.0
C1611 C 0.27368 0.38334 0.57962 0.0
C1612 C 0.25064 0.35351 0.57096 0.0
C1613 C 0.2599 0.42597 0.58003 0.0
C1614 C 0.28185 0.4582 0.58967 0.0
C1615 C 0.32452 0.46856 0.58697 0.0
C1616 C 0.34505 0.4986 0.59631 0.0
C1617 C 0.32313 0.51869 0.6083 0.0
C1618 C 0.28057 0.50891 0.61094 0.0
C1619 C 0.25991 0.47887 0.60164 0.0
H1620 H 0.33909 0.54192 0.61552 0.0
H1621 H 0.12774 0.2438 0.53202 0.0
H1622 H 0.32422 0.44153 0.25943 0.0
H1623 H 0.35137 0.4959 0.27687 0.0
H1624 H 0.31425 0.42069 0.31642 0.0
H1625 H 0.28498 0.36632 0.29876 0.0
H1626 H 0.29241 0.50522 0.31994 0.0
H1627 H 0.41802 0.42864 0.30599 0.0
H1628 H 0.4646 0.39422 0.28685 0.0
H1629 H 0.48671 0.51455 0.26487 0.0
H1630 H 0.4394 0.54959 0.28362 0.0
H1631 H 0.41707 0.64688 0.36916 0.0
H1632 H 0.38401 0.58549 0.35642 0.0
H1633 H 0.40856 0.64165 0.31166 0.0
H1634 H 0.44041 0.70333 0.32433 0.0
H1635 H 0.43861 0.56041 0.31372 0.0
H1636 H 0.31096 0.63612 0.32486 0.0
H1637 H 0.25875 0.67265 0.34131 0.0
H1638 H 0.23768 0.55752 0.3668 0.0
H1639 H 0.29082 0.52042 0.35074 0.0
C1640 C 0.32192 0.43632 0.27185 0.0
C1641 C 0.30227 0.39957 0.2777 0.0
C1642 C 0.33769 0.46745 0.28183 0.0
C1643 C 0.33527 0.46241 0.29801 0.0
C1644 C 0.31652 0.42532 0.30398 0.0
C1645 C 0.30033 0.39402 0.2939 0.0
C1646 C 0.35219 0.49644 0.30842 0.0
C1647 C 0.32468 0.51667 0.31887 0.0
C1648 C 0.39401 0.51217 0.30676 0.0
C1649 C 0.42485 0.49169 0.29615 0.0
C1650 C 0.43275 0.44777 0.29706 0.0
C1651 C 0.45913 0.42813 0.28624 0.0
C1652 C 0.47827 0.45215 0.27458 0.0
C1653 C 0.47165 0.49597 0.27386 0.0
C1654 C 0.44507 0.51575 0.28459 0.0
C1655 C 0.41376 0.64695 0.35666 0.0
C1656 C 0.43072 0.68042 0.34781 0.0
C1657 C 0.3954 0.61154 0.34936 0.0
C1658 C 0.39397 0.60881 0.33306 0.0
C1659 C 0.40952 0.64287 0.32424 0.0
C1660 C 0.42752 0.67827 0.33152 0.0
C1661 C 0.37864 0.56969 0.32505 0.0
C1662 C 0.40657 0.54849 0.31505 0.0
C1663 C 0.33717 0.55343 0.32705 0.0
C1664 C 0.30544 0.57565 0.33678 0.0
C1665 C 0.29572 0.61869 0.33412 0.0
C1666 C 0.26592 0.63949 0.34336 0.0
C1667 C 0.2452 0.61746 0.35518 0.0
C1668 C 0.25411 0.57455 0.35774 0.0
C1669 C 0.28408 0.55364 0.34858 0.0
H1670 H 0.22206 0.63358 0.3623 0.0
H1671 H 0.49833 0.43681 0.26611 0.0
H1672 H 0.41053 0.39937 0.98682 0.0
H1673 H 0.3551 0.36376 0.97127 0.0
H1674 H 0.31348 0.4851 0.95369 0.0
H1675 H 0.36844 0.52046 0.96906 0.0
H1676 H 0.24992 0.44217 0.96736 0.0
H1677 H 0.36017 0.41577 0.93142 0.0
H1678 H 0.42775 0.38868 0.92129 0.0
H1679 H 0.38636 0.26058 0.9289 0.0
H1680 H 0.31898 0.28686 0.93958 0.0
H1681 H 0.13001 0.33559 0.89883 0.0
H1682 H 0.19618 0.36046 0.91057 0.0
H1683 H 0.14716 0.33305 0.95615 0.0
H1684 H 0.08044 0.30898 0.94451 0.0
H1685 H 0.25722 0.32746 0.92804 0.0
H1686 H 0.18171 0.40712 0.98162 0.0
H1687 H 0.1138 0.43972 0.98928 0.0
H1688 H 0.08718 0.47126 0.94165 0.0
H1689 H 0.15515 0.43936 0.93374 0.0
C1690 C 0.3905 0.4181 0.97917 0.0
C1691 C 0.39384 0.46259 0.97902 0.0
C1692 C 0.35871 0.3978 0.97038 0.0
C1693 C 0.32986 0.42173 0.96141 0.0
C1694 C 0.33511 0.46593 0.96057 0.0
C1695 C 0.36674 0.48609 0.96925 0.0
C1696 C 0.29162 0.4019 0.95418 0.0
C1697 C 0.25169 0.41689 0.95882 0.0
C1698 C 0.29374 0.36926 0.94287 0.0
C1699 C 0.33479 0.3534 0.93675 0.0
C1700 C 0.36575 0.38184 0.93131 0.0
C1701 C 0.40403 0.36661 0.92538 0.0
C1702 C 0.41153 0.32294 0.9246 0.0
C1703 C 0.38068 0.29442 0.92966 0.0
C1704 C 0.34247 0.30949 0.93569 0.0
C1705 C 0.1332 0.33483 0.91136 0.0
C1706 C 0.09947 0.32093 0.92073 0.0
C1707 C 0.17127 0.34883 0.91806 0.0
C1708 C 0.17663 0.34921 0.93427 0.0
C1709 C 0.1436 0.33386 0.94363 0.0
C1710 C 0.10537 0.32015 0.93695 0.0
C1711 C 0.21585 0.36757 0.94136 0.0
C1712 C 0.25575 0.35233 0.93673 0.0
C1713 C 0.21399 0.4007 0.95244 0.0
C1714 C 0.17328 0.42043 0.95709 0.0
C1715 C 0.16141 0.42114 0.9728 0.0
C1716 C 0.12291 0.43948 0.97718 0.0
C1717 C 0.09613 0.45741 0.96595 0.0
C1718 C 0.10787 0.45721 0.95033 0.0
C1719 C 0.14636 0.43897 0.94589 0.0
H1720 H 0.06632 0.47155 0.96937 0.0
H1721 H 0.44112 0.31121 0.91996 0.0
H1722 H 0.34485 0.667 0.7259 0.0
H1723 H 0.37785 0.61254 0.70932 0.0
H1724 H 0.25602 0.55318 0.70268 0.0
H1725 H 0.22298 0.60763 0.7188 0.0
H1726 H 0.332 0.50529 0.719 0.0
H1727 H 0.28474 0.58477 0.67323 0.0
H1728 H 0.28249 0.64847 0.65655 0.0
H1729 H 0.41799 0.64478 0.65217 0.0
H1730 H 0.42107 0.58137 0.66902 0.0
H1731 H 0.37478 0.31956 0.67722 0.0
H1732 H 0.34252 0.38518 0.68672 0.0
H1733 H 0.44708 0.4571 0.66798 0.0
H1734 H 0.47747 0.39163 0.65752 0.0
H1735 H 0.38331 0.50237 0.66468 0.0
H1736 H 0.43468 0.42281 0.70782 0.0
H1737 H 0.44372 0.36318 0.72601 0.0
H1738 H 0.31183 0.36973 0.73781 0.0
H1739 H 0.30182 0.42939 0.71959 0.0
C1740 C 0.32499 0.64333 0.72035 0.0
C1741 C 0.28145 0.64133 0.72367 0.0
C1742 C 0.34384 0.61216 0.71099 0.0
C1743 C 0.31929 0.57881 0.70489 0.0
C1744 C 0.27543 0.57867 0.70729 0.0
C1745 C 0.25663 0.60982 0.71646 0.0
C1746 C 0.33949 0.54095 0.69791 0.0
C1747 C 0.3429 0.50428 0.70707 0.0
C1748 C 0.35507 0.54053 0.68259 0.0
C1749 C 0.35317 0.57871 0.67254 0.0
C1750 C 0.31409 0.59785 0.66886 0.0
C1751 C 0.31265 0.63381 0.65933 0.0
C1752 C 0.35009 0.65075 0.65334 0.0
C1753 C 0.38903 0.63169 0.65684 0.0
C1754 C 0.39063 0.59573 0.66637 0.0
C1755 C 0.39066 0.34952 0.67515 0.0
C1756 C 0.42867 0.3508 0.66683 0.0
C1757 C 0.37242 0.38701 0.68064 0.0
C1758 C 0.39297 0.42627 0.67859 0.0
C1759 C 0.43066 0.42743 0.66993 0.0
C1760 C 0.44813 0.39005 0.66398 0.0
C1761 C 0.37561 0.46578 0.68571 0.0
C1762 C 0.3726 0.50289 0.67663 0.0
C1763 C 0.36148 0.46695 0.70134 0.0
C1764 C 0.36746 0.43073 0.71227 0.0
C1765 C 0.40754 0.41168 0.71427 0.0
C1766 C 0.41284 0.37776 0.72459 0.0
C1767 C 0.37837 0.36265 0.73306 0.0
C1768 C 0.33852 0.38147 0.73124 0.0
C1769 C 0.33302 0.4154 0.72093 0.0
H1770 H 0.38254 0.33637 0.74104 0.0
H1771 H 0.34891 0.67858 0.64596 0.0
H1772 H 0.15729 0.45868 0.47052 0.0
H1773 H 0.21259 0.48421 0.45321 0.0
H1774 H 0.15153 0.60681 0.45106 0.0
H1775 H 0.0967 0.58154 0.46899 0.0
H1776 H 0.22642 0.5166 0.42598 0.0
H1777 H 0.22744 0.68371 0.45337 0.0
H1778 H 0.20399 0.71983 0.47727 0.0
H1779 H 0.21358 0.60248 0.50253 0.0
H1780 H 0.2377 0.56587 0.47885 0.0
H1781 H 0.38043 0.65962 0.39162 0.0
H1782 H 0.31843 0.61987 0.40057 0.0
H1783 H 0.37786 0.60422 0.44551 0.0
H1784 H 0.43996 0.64349 0.43643 0.0
H1785 H 0.30225 0.64092 0.44793 0.0
H1786 H 0.36099 0.52248 0.42179 0.0
H1787 H 0.38969 0.48001 0.40028 0.0
H1788 H 0.27024 0.48774 0.37629 0.0
H1789 H 0.24138 0.53229 0.39725 0.0
C1790 C 0.1551 0.4908 0.46605 0.0
C1791 C 0.12314 0.51838 0.4713 0.0
C1792 C 0.18669 0.50534 0.45609 0.0
C1793 C 0.18695 0.54778 0.45111 0.0
C1794 C 0.15251 0.57416 0.45502 0.0
C1795 C 0.12093 0.55963 0.46512 0.0
C1796 C 0.2257 0.56514 0.44358 0.0
C1797 C 0.24278 0.54413 0.43062 0.0
C1798 C 0.24786 0.60023 0.44994 0.0
C1799 C 0.2338 0.62199 0.46429 0.0
C1800 C 0.22462 0.66568 0.46404 0.0
C1801 C 0.21124 0.68623 0.47755 0.0
C1802 C 0.20713 0.66342 0.4914 0.0
C1803 C 0.21662 0.62007 0.49179 0.0
C1804 C 0.23014 0.59941 0.47833 0.0
C1805 C 0.38123 0.64548 0.40307 0.0
C1806 C 0.41554 0.65322 0.41316 0.0
C1807 C 0.34549 0.62336 0.40829 0.0
C1808 C 0.34339 0.60911 0.42374 0.0
C1809 C 0.37871 0.61493 0.43355 0.0
C1810 C 0.41436 0.63692 0.42832 0.0
C1811 C 0.30303 0.59255 0.43024 0.0
C1812 C 0.28565 0.61382 0.44305 0.0
C1813 C 0.2814 0.55703 0.42396 0.0
C1814 C 0.29921 0.53152 0.41102 0.0
C1815 C 0.34107 0.51606 0.41177 0.0
C1816 C 0.3574 0.49159 0.39965 0.0
C1817 C 0.33196 0.48163 0.38683 0.0
C1818 C 0.29011 0.49605 0.38611 0.0
C1819 C 0.2738 0.52107 0.39809 0.0
H1820 H 0.34455 0.46246 0.3775 0.0
H1821 H 0.19671 0.67938 0.50183 0.0
H1822 H 0.26969 0.41703 0.22331 0.0
H1823 H 0.23299 0.46918 0.20701 0.0
H1824 H 0.11281 0.41421 0.21941 0.0
H1825 H 0.14971 0.36196 0.23609 0.0
H1826 H 0.14371 0.45432 0.18244 0.0
H1827 H 0.10783 0.48099 0.23825 0.0
H1828 H 0.13211 0.48241 0.26558 0.0
H1829 H 0.23266 0.56781 0.25339 0.0
H1830 H 0.20923 0.56636 0.22595 0.0
H1831 H 0.03033 0.63973 0.15794 0.0
H1832 H 0.05125 0.57286 0.17047 0.0
H1833 H 0.15381 0.63753 0.19395 0.0
H1834 H 0.13064 0.70482 0.18243 0.0
H1835 H 0.12532 0.58663 0.21296 0.0
H1836 H 0.15939 0.5713 0.1592 0.0
H1837 H 0.14452 0.57033 0.1311 0.0
H1838 H 0.06243 0.46288 0.13697 0.0
H1839 H 0.07473 0.46483 0.16529 0.0
C1840 C 0.23551 0.41512 0.22215 0.0
C1841 C 0.21252 0.38542 0.23094 0.0
C1842 C 0.2146 0.44497 0.21285 0.0
C1843 C 0.17024 0.44567 0.21204 0.0
C1844 C 0.14714 0.414 0.21983 0.0
C1845 C 0.16818 0.38407 0.22927 0.0
C1846 C 0.14886 0.48316 0.20497 0.0
C1847 C 0.13858 0.48308 0.1891 0.0
C1848 C 0.14408 0.52105 0.21355 0.0
C1849 C 0.15696 0.52336 0.2301 0.0
C1850 C 0.1352 0.49992 0.24142 0.0
C1851 C 0.1488 0.50073 0.25691 0.0
C1852 C 0.18396 0.52512 0.26121 0.0
C1853 C 0.20545 0.54892 0.25004 0.0
C1854 C 0.19199 0.54816 0.23453 0.0
C1855 C 0.05743 0.63946 0.16575 0.0
C1856 C 0.07925 0.67726 0.16911 0.0
C1857 C 0.06949 0.60117 0.17287 0.0
C1858 C 0.1048 0.59947 0.18296 0.0
C1859 C 0.12648 0.63754 0.18627 0.0
C1860 C 0.11347 0.67604 0.17959 0.0
C1861 C 0.11928 0.55846 0.19017 0.0
C1862 C 0.1291 0.55792 0.20615 0.0
C1863 C 0.12438 0.52028 0.18151 0.0
C1864 C 0.11756 0.5186 0.16443 0.0
C1865 C 0.1378 0.54773 0.15454 0.0
C1866 C 0.12976 0.54705 0.13856 0.0
C1867 C 0.10268 0.51645 0.13223 0.0
C1868 C 0.08345 0.48654 0.14189 0.0
C1869 C 0.09065 0.48766 0.15793 0.0
H1870 H 0.09658 0.51591 0.11984 0.0
H1871 H 0.19452 0.52562 0.2732 0.0
loop_
_geom_bond_atom_site_label_1
_geom_bond_atom_site_label_2
_geom_bond_distance
_geom_bond_site_symmetry_2
_ccdc_geom_bond_type
H0 C6 0.930 . S
H1 C9 0.931 . S
H2 C11 0.931 . S
H3 C13 0.930 . S
H4 C15 0.930 . S
H5 C17 0.931 . S
C6 H0 0.930 . S
C6 C7 1.380 1_545 S
C6 C8 1.394 . S
C7 C6 1.380 1_565 S
C7 C11 1.382 . S
C8 C6 1.394 . S
C8 C9 1.400 . S
C9 H1 0.931 . S
C9 C8 1.400 . S
C9 C10 1.375 . S
C10 C9 1.375 . S
C10 C11 1.415 1_545 S
C10 C12 1.501 1_655 S
C11 H2 0.931 . S
C11 C7 1.382 . S
C11 C10 1.415 1_565 S
C12 C10 1.501 1_455 S
C12 C13 1.384 1_545 S
C12 C17 1.408 . S
C13 H3 0.930 . S
C13 C12 1.384 1_565 S
C13 C14 1.389 . S
C14 C13 1.389 . S
C14 C15 1.405 1_565 S
C15 H4 0.930 . S
C15 C14 1.405 1_545 S
C15 C16 1.364 . S
C16 C15 1.364 . S
C16 C17 1.400 . S
C17 H5 0.931 . S
C17 C12 1.408 . S
C17 C16 1.400 . S
H18 C24 0.930 . S
H19 C27 0.931 . S
H20 C29 0.931 . S
H21 C31 0.930 . S
H22 C33 0.930 . S
H23 C35 0.931 . S
C24 H18 0.930 . S
C24 C25 1.380 . S
C24 C26 1.394 . S
C25 C24 1.380 . S
C25 C29 1.382 . S
C26 C24 1.394 . S
C26 C27 1.400 . S
C27 H19 0.931 . S
C27 C26 1.400 . S
C27 C28 1.375 . S
C28 C27 1.375 . S
C28 C29 1.415 . S
C28 C30 1.501 . S
C29 H20 0.931 . S
C29 C25 1.382 . S
C29 C28 1.415 . S
C30 C28 1.501 . S
C30 C31 1.384 . S
C30 C35 1.408 . S
C31 H21 0.930 . S
C31 C30 1.384 . S
C31 C32 1.389 . S
C32 C31 1.389 . S
C32 C33 1.405 . S
C33 H22 0.930 . S
C33 C32 1.405 . S
C33 C34 1.364 . S
C34 C33 1.364 . S
C34 C35 1.400 . S
C35 H23 0.931 . S
C35 C30 1.408 . S
C35 C34 1.400 . S
H36 C42 0.929 1_565 S
H37 C45 0.931 . S
H38 C47 0.931 . S
H39 C49 0.930 . S
H40 C51 0.930 . S
H41 C53 0.931 . S
C42 H36 0.929 1_545 S
C42 C43 1.386 1_554 S
C42 C44 1.389 1_545 S
C43 C42 1.386 1_556 S
C43 C47 1.382 . S
C44 C42 1.389 1_565 S
C44 C45 1.400 . S
C45 H37 0.931 . S
C45 C44 1.400 . S
C45 C46 1.375 1_565 S
C46 C45 1.375 1_545 S
C46 C47 1.415 1_554 S
C46 C48 1.501 . S
C47 H38 0.931 . S
C47 C43 1.382 . S
C47 C46 1.415 1_556 S
C48 C46 1.501 . S
C48 C49 1.384 1_554 S
C48 C53 1.408 1_545 S
C49 H39 0.930 . S
C49 C48 1.384 1_556 S
C49 C50 1.389 . S
C50 C49 1.389 . S
C50 C51 1.405 1_556 S
C51 H40 0.930 . S
C51 C50 1.405 1_554 S
C51 C52 1.364 1_545 S
C52 C51 1.364 1_565 S
C52 C53 1.400 . S
C53 H41 0.931 . S
C53 C48 1.408 1_565 S
C53 C52 1.400 . S
H54 C60 0.930 . S
H55 C63 0.931 . S
H56 C65 0.931 . S
H57 C67 0.930 . S
H58 C69 0.930 . S
H59 C71 0.931 . S
C60 H54 0.930 . S
C60 C61 1.380 . S
C60 C62 1.394 . S
C61 C60 1.380 . S
C61 C65 1.382 . S
C62 C60 1.394 . S
C62 C63 1.400 . S
C63 H55 0.931 . S
C63 C62 1.400 . S
C63 C64 1.375 . S
C64 C63 1.375 . S
C64 C65 1.415 . S
C64 C66 1.501 . S
C65 H56 0.931 . S
C65 C61 1.382 . S
C65 C64 1.415 . S
C66 C64 1.501 . S
C66 C67 1.384 . S
C66 C71 1.408 . S
C67 H57 0.930 . S
C67 C66 1.384 . S
C67 C68 1.389 . S
C68 C67 1.389 . S
C68 C69 1.405 . S
C69 H58 0.930 . S
C69 C68 1.405 . S
C69 C70 1.364 . S
C70 C69 1.364 . S
C70 C71 1.400 . S
C71 H59 0.931 . S
C71 C66 1.408 . S
C71 C70 1.400 . S
H72 C78 0.930 . S
H73 C81 0.931 . S
H74 C83 0.931 . S
H75 C85 0.930 . S
H76 C87 0.930 . S
H77 C89 0.931 . S
C78 H72 0.930 . S
C78 C79 1.380 . S
C78 C80 1.394 . S
C79 C78 1.380 . S
C79 C83 1.382 . S
C80 C78 1.394 . S
C80 C81 1.400 . S
C81 H73 0.931 . S
C81 C80 1.400 . S
C81 C82 1.375 . S
C82 C81 1.375 . S
C82 C83 1.415 . S
C82 C84 1.501 . S
C83 H74 0.931 . S
C83 C79 1.382 . S
C83 C82 1.415 . S
C84 C82 1.501 . S
C84 C85 1.384 . S
C84 C89 1.408 . S
C85 H75 0.930 . S
C85 C84 1.384 . S
C85 C86 1.389 . S
C86 C85 1.389 . S
C86 C87 1.405 . S
C87 H76 0.930 . S
C87 C86 1.405 . S
C87 C88 1.364 . S
C88 C87 1.364 . S
C88 C89 1.400 . S
C89 H77 0.931 . S
C89 C84 1.408 . S
C89 C88 1.400 . S
H90 C96 0.930 . S
H91 C99 0.931 . S
H92 C101 0.931 . S
H93 C103 0.930 . S
H94 C105 0.930 . S
H95 C107 0.931 . S
C96 H90 0.930 . S
C96 C97 1.380 . S
C96 C98 1.394 . S
C97 C96 1.380 . S
C97 C101 1.382 . S
C98 C96 1.394 . S
C98 C99 1.400 . S
C99 H91 0.931 . S
C99 C98 1.400 . S
C99 C100 1.375 . S
C100 C99 1.375 . S
C100 C101 1.415 . S
C100 C102 1.501 . S
C101 H92 0.931 . S
C101 C97 1.382 . S
C101 C100 1.415 . S
C102 C100 1.501 . S
C102 C103 1.384 . S
C102 C107 1.408 . S
C103 H93 0.930 . S
C103 C102 1.384 . S
C103 C104 1.389 . S
C104 C103 1.389 . S
C104 C105 1.405 . S
C105 H94 0.930 . S
C105 C104 1.405 . S
C105 C106 1.364 . S
C106 C105 1.364 . S
C106 C107 1.400 . S
C107 H95 0.931 . S
C107 C102 1.408 . S
C107 C106 1.400 . S
H108 C114 0.930 . S
H109 C117 0.931 . S
H110 C119 0.931 . S
H111 C121 0.930 . S
H112 C123 0.930 . S
H113 C125 0.931 . S
C114 H108 0.930 . S
C114 C115 1.380 . S
C114 C116 1.394 1_554 S
C115 C114 1.380 . S
C115 C119 1.382 . S
C116 C114 1.394 1_556 S
C116 C117 1.400 . S
C117 H109 0.931 . S
C117 C116 1.400 . S
C117 C118 1.375 1_556 S
C118 C117 1.375 1_554 S
C118 C119 1.415 . S
C118 C120 1.501 . S
C119 H110 0.931 . S
C119 C115 1.382 . S
C119 C118 1.415 . S
C120 C118 1.501 . S
C120 C121 1.384 . S
C120 C125 1.408 1_554 S
C121 H111 0.930 . S
C121 C120 1.384 . S
C121 C122 1.389 . S
C122 C121 1.389 . S
C122 C123 1.405 . S
C123 H112 0.930 . S
C123 C122 1.405 . S
C123 C124 1.364 1_554 S
C124 C123 1.364 1_556 S
C124 C125 1.400 . S
C125 H113 0.931 . S
C125 C120 1.408 1_556 S
C125 C124 1.400 . S
H126 C132 0.930 . S
H127 C135 0.931 . S
H128 C137 0.931 . S
H129 C139 0.930 . S
H130 C141 0.930 . S
H131 C143 0.931 . S
C132 H126 0.930 . S
C132 C133 1.380 . S
C132 C134 1.394 . S
C133 C132 1.380 . S
C133 C137 1.382 . S
C134 C132 1.394 . S
C134 C135 1.400 . S
C135 H127 0.931 . S
C135 C134 1.400 . S
C135 C136 1.375 . S
C136 C135 1.375 . S
C136 C137 1.415 . S
C136 C138 1.501 1_455 S
C137 H128 0.931 . S
C137 C133 1.382 . S
C137 C136 1.415 . S
C138 C136 1.501 1_655 S
C138 C139 1.384 . S
C138 C143 1.408 . S
C139 H129 0.930 . S
C139 C138 1.384 . S
C139 C140 1.389 . S
C140 C139 1.389 . S
C140 C141 1.405 . S
C141 H130 0.930 . S
C141 C140 1.405 . S
C141 C142 1.364 . S
C142 C141 1.364 . S
C142 C143 1.400 . S
C143 H131 0.931 . S
C143 C138 1.408 . S
C143 C142 1.400 . S
Fe144 O145 1.886 . S
Fe144 O148 1.715 1_455 S
Fe144 O153 2.077 . S
Fe144 O158 1.935 1_455 S
Fe144 O164 2.077 . S
Fe144 O173 1.935 1_455 S
O145 Fe144 1.886 . S
O145 Fe147 1.715 . S
Fe146 O148 1.886 . S
Fe146 O149 1.715 . S
Fe146 O156 1.935 . S
Fe146 O157 2.077 . S
Fe146 O163 1.935 . S
Fe146 O172 2.077 . S
Fe147 O145 1.715 . S
Fe147 O150 1.886 . S
Fe147 O154 1.935 . S
Fe147 O159 2.077 . S
Fe147 O165 1.935 . S
Fe147 O169 2.077 . S
O148 Fe144 1.715 1_655 S
O148 Fe146 1.886 . S
O149 Fe146 1.715 . S
O149 Fe151 1.904 . S
O150 Fe147 1.886 . S
O150 Fe151 1.696 1_455 S
Fe151 O149 1.904 . S
Fe151 O150 1.696 1_655 S
Fe151 O155 2.094 . S
Fe151 O160 1.921 1_655 S
Fe151 O162 2.094 . S
Fe151 O170 1.921 1_655 S
C152 O164 1.381 . S
C152 O165 1.421 . S
O153 Fe144 2.077 . S
O153 C166 1.381 . S
O154 Fe147 1.935 . S
O154 C166 1.421 . S
O155 Fe151 2.094 . S
O155 C171 1.381 . S
O156 Fe146 1.935 . S
O156 C171 1.421 . S
O157 Fe146 2.077 . S
O157 C161 1.381 . S
O158 Fe144 1.935 1_655 S
O158 C161 1.421 . S
O159 Fe147 2.077 . S
O159 C167 1.381 . S
O160 Fe151 1.921 1_455 S
O160 C167 1.421 . S
C161 O157 1.381 . S
C161 O158 1.421 . S
O162 Fe151 2.094 . S
O162 C174 1.381 . S
O163 Fe146 1.935 . S
O163 C174 1.421 . S
O164 Fe144 2.077 . S
O164 C152 1.381 . S
O165 Fe147 1.935 . S
O165 C152 1.421 . S
C166 O153 1.381 . S
C166 O154 1.421 . S
C167 O159 1.381 . S
C167 O160 1.421 . S
C168 O169 1.381 . S
C168 O170 1.421 . S
O169 Fe147 2.077 . S
O169 C168 1.381 . S
O170 Fe151 1.921 1_455 S
O170 C168 1.421 . S
C171 O155 1.381 . S
C171 O156 1.421 . S
O172 Fe146 2.077 . S
O172 C175 1.381 . S
O173 Fe144 1.935 1_655 S
O173 C175 1.421 . S
C174 O162 1.381 . S
C174 O163 1.421 . S
C175 O172 1.381 . S
C175 O173 1.421 . S
Fe176 O177 1.886 . S
Fe176 O180 1.715 . S
Fe176 O185 2.077 . S
Fe176 O190 1.935 . S
Fe176 O196 2.077 . S
Fe176 O205 1.935 . S
O177 Fe176 1.886 . S
O177 Fe179 1.715 . S
Fe178 O180 1.886 . S
Fe178 O181 1.715 . S
Fe178 O188 1.935 . S
Fe178 O189 2.077 . S
Fe178 O195 1.935 . S
Fe178 O204 2.077 . S
Fe179 O177 1.715 . S
Fe179 O182 1.886 . S
Fe179 O186 1.935 . S
Fe179 O191 2.077 . S
Fe179 O197 1.935 . S
Fe179 O201 2.077 . S
O180 Fe176 1.715 . S
O180 Fe178 1.886 . S
O181 Fe178 1.715 . S
O181 Fe183 1.886 . S
O182 Fe179 1.886 . S
O182 Fe183 1.715 . S
Fe183 O181 1.886 . S
Fe183 O182 1.715 . S
Fe183 O187 2.077 . S
Fe183 O192 1.935 . S
Fe183 O194 2.077 . S
Fe183 O202 1.935 . S
C184 O196 1.381 . S
C184 O197 1.421 . S
O185 Fe176 2.077 . S
O185 C198 1.381 . S
O186 Fe179 1.935 . S
O186 C198 1.421 . S
O187 Fe183 2.077 . S
O187 C203 1.381 . S
O188 Fe178 1.935 . S
O188 C203 1.421 . S
O189 Fe178 2.077 . S
O189 C193 1.381 . S
O190 Fe176 1.935 . S
O190 C193 1.421 . S
O191 Fe179 2.077 . S
O191 C199 1.381 . S
O192 Fe183 1.935 . S
O192 C199 1.421 . S
C193 O189 1.381 . S
C193 O190 1.421 . S
O194 Fe183 2.077 . S
O194 C206 1.381 . S
O195 Fe178 1.935 . S
O195 C206 1.421 . S
O196 Fe176 2.077 . S
O196 C184 1.381 . S
O197 Fe179 1.935 . S
O197 C184 1.421 . S
C198 O185 1.381 . S
C198 O186 1.421 . S
C199 O191 1.381 . S
C199 O192 1.421 . S
C200 O201 1.381 . S
C200 O202 1.421 . S
O201 Fe179 2.077 . S
O201 C200 1.381 . S
O202 Fe183 1.935 . S
O202 C200 1.421 . S
C203 O187 1.381 . S
C203 O188 1.421 . S
O204 Fe178 2.077 . S
O204 C207 1.381 . S
O205 Fe176 1.935 . S
O205 C207 1.421 . S
C206 O194 1.381 . S
C206 O195 1.421 . S
C207 O204 1.381 . S
C207 O205 1.421 . S
Fe208 O209 1.886 . S
Fe208 O212 1.715 . S
Fe208 O217 2.077 . S
Fe208 O222 1.935 . S
Fe208 O228 2.077 . S
Fe208 O237 1.935 . S
O209 Fe208 1.886 . S
O209 Fe211 1.715 . S
Fe210 O212 1.886 . S
Fe210 O213 1.715 . S
Fe210 O220 1.935 . S
Fe210 O221 2.077 . S
Fe210 O227 1.935 . S
Fe210 O236 2.077 . S
Fe211 O209 1.715 . S
Fe211 O214 1.886 . S
Fe211 O218 1.935 . S
Fe211 O223 2.077 . S
Fe211 O229 1.935 . S
Fe211 O233 2.077 . S
O212 Fe208 1.715 . S
O212 Fe210 1.886 . S
O213 Fe210 1.715 . S
O213 Fe215 1.886 . S
O214 Fe211 1.886 . S
O214 Fe215 1.715 . S
Fe215 O213 1.886 . S
Fe215 O214 1.715 . S
Fe215 O219 2.077 . S
Fe215 O224 1.935 . S
Fe215 O226 2.077 . S
Fe215 O234 1.935 . S
C216 O228 1.381 . S
C216 O229 1.421 . S
O217 Fe208 2.077 . S
O217 C230 1.381 . S
O218 Fe211 1.935 . S
O218 C230 1.421 . S
O219 Fe215 2.077 . S
O219 C235 1.381 . S
O220 Fe210 1.935 . S
O220 C235 1.421 . S
O221 Fe210 2.077 . S
O221 C225 1.381 . S
O222 Fe208 1.935 . S
O222 C225 1.421 . S
O223 Fe211 2.077 . S
O223 C231 1.381 . S
O224 Fe215 1.935 . S
O224 C231 1.421 . S
C225 O221 1.381 . S
C225 O222 1.421 . S
O226 Fe215 2.077 . S
O226 C238 1.381 . S
O227 Fe210 1.935 . S
O227 C238 1.421 . S
O228 Fe208 2.077 . S
O228 C216 1.381 . S
O229 Fe211 1.935 . S
O229 C216 1.421 . S
C230 O217 1.381 . S
C230 O218 1.421 . S
C231 O223 1.381 . S
C231 O224 1.421 . S
C232 O233 1.381 . S
C232 O234 1.421 . S
O233 Fe211 2.077 . S
O233 C232 1.381 . S
O234 Fe215 1.935 . S
O234 C232 1.421 . S
C235 O219 1.381 . S
C235 O220 1.421 . S
O236 Fe210 2.077 . S
O236 C239 1.381 . S
O237 Fe208 1.935 . S
O237 C239 1.421 . S
C238 O226 1.381 . S
C238 O227 1.421 . S
C239 O236 1.381 . S
C239 O237 1.421 . S
Fe240 O241 1.886 . S
Fe240 O244 1.715 . S
Fe240 O249 2.077 1_455 S
Fe240 O254 1.935 1_455 S
Fe240 O260 2.077 . S
Fe240 O269 1.935 . S
O241 Fe240 1.886 . S
O241 Fe243 1.715 . S
Fe242 O244 1.886 . S
Fe242 O245 1.715 . S
Fe242 O252 1.935 1_455 S
Fe242 O253 2.077 1_455 S
Fe242 O259 1.936 . S
Fe242 O268 2.077 . S
Fe243 O241 1.715 . S
Fe243 O246 1.886 . S
Fe243 O250 1.936 1_455 S
Fe243 O255 2.077 1_455 S
Fe243 O261 1.935 . S
Fe243 O265 2.077 . S
O244 Fe240 1.715 . S
O244 Fe242 1.886 . S
O245 Fe242 1.715 . S
O245 Fe247 1.886 . S
O246 Fe243 1.886 . S
O246 Fe247 1.715 . S
Fe247 O245 1.886 . S
Fe247 O246 1.715 . S
Fe247 O251 2.077 1_455 S
Fe247 O256 1.935 1_455 S
Fe247 O258 2.077 . S
Fe247 O266 1.935 . S
C248 O260 1.381 . S
C248 O261 1.421 . S
O249 Fe240 2.077 1_655 S
O249 C262 1.381 . S
O250 Fe243 1.936 1_655 S
O250 C262 1.421 . S
O251 Fe247 2.077 1_655 S
O251 C267 1.381 . S
O252 Fe242 1.935 1_655 S
O252 C267 1.421 . S
O253 Fe242 2.077 1_655 S
O253 C257 1.381 . S
O254 Fe240 1.935 1_655 S
O254 C257 1.421 . S
O255 Fe243 2.077 1_655 S
O255 C263 1.381 . S
O256 Fe247 1.935 1_655 S
O256 C263 1.421 . S
C257 O253 1.381 . S
C257 O254 1.421 . S
O258 Fe247 2.077 . S
O258 C270 1.381 . S
O259 Fe242 1.936 . S
O259 C270 1.421 . S
O260 Fe240 2.077 . S
O260 C248 1.381 . S
O261 Fe243 1.935 . S
O261 C248 1.421 . S
C262 O249 1.381 . S
C262 O250 1.421 . S
C263 O255 1.381 . S
C263 O256 1.421 . S
C264 O265 1.381 . S
C264 O266 1.421 . S
O265 Fe243 2.077 . S
O265 C264 1.381 . S
O266 Fe247 1.935 . S
O266 C264 1.421 . S
C267 O251 1.381 . S
C267 O252 1.421 . S
O268 Fe242 2.077 . S
O268 C271 1.381 . S
O269 Fe240 1.935 . S
O269 C271 1.421 . S
C270 O258 1.381 . S
C270 O259 1.421 . S
C271 O268 1.381 . S
C271 O269 1.421 . S
H272 C290 0.951 . S
H273 C292 0.951 . S
H274 C294 0.950 . S
H275 C295 0.950 1_545 S
H276 C297 0.950 . S
H277 C300 0.950 . S
H278 C301 0.950 . S
H279 C303 0.950 . S
H280 C304 0.950 . S
H281 C305 0.951 . S
H282 C307 0.951 . S
H283 C309 0.950 . S
H284 C310 0.950 . S
H285 C312 0.950 . S
H286 C315 0.950 . S
H287 C316 0.950 . S
H288 C318 0.950 . S
H289 C319 0.950 . S
C290 H272 0.951 . S
C290 C291 1.366 . S
C290 C292 1.388 . S
C291 C290 1.366 . S
C291 C295 1.385 . S
C292 H273 0.951 . S
C292 C290 1.388 . S
C292 C293 1.366 . S
C293 C292 1.366 . S
C293 C294 1.414 . S
C293 C296 1.499 . S
C294 H274 0.950 . S
C294 C293 1.414 . S
C294 C295 1.374 . S
C295 H275 0.950 1_565 S
C295 C291 1.385 . S
C295 C294 1.374 . S
C296 C293 1.499 . S
C296 C297 1.373 . S
C296 C298 1.389 . S
C297 H276 0.950 . S
C297 C296 1.373 . S
C297 C313 1.377 . S
C298 C296 1.389 . S
C298 C299 1.524 . S
C298 C312 1.377 . S
C299 C298 1.524 . S
C299 C300 1.397 . S
C299 C304 1.363 . S
C300 H277 0.950 . S
C300 C299 1.397 . S
C300 C301 1.334 . S
C301 H278 0.950 . S
C301 C300 1.334 . S
C301 C302 1.287 . S
C302 C301 1.287 . S
C302 C303 1.524 . S
C302 H321 0.913 . S
C303 H279 0.950 . S
C303 C302 1.524 . S
C303 C304 1.415 . S
C304 H280 0.950 . S
C304 C299 1.363 . S
C304 C303 1.415 . S
C305 H281 0.951 . S
C305 C306 1.366 . S
C305 C307 1.388 . S
C306 C305 1.366 . S
C306 C310 1.385 . S
C307 H282 0.951 . S
C307 C305 1.388 . S
C307 C308 1.366 . S
C308 C307 1.366 . S
C308 C309 1.414 . S
C308 C311 1.499 . S
C309 H283 0.950 . S
C309 C308 1.414 . S
C309 C310 1.374 . S
C310 H284 0.950 . S
C310 C306 1.385 . S
C310 C309 1.374 . S
C311 C308 1.499 . S
C311 C312 1.373 . S
C311 C313 1.389 . S
C312 H285 0.950 . S
C312 C298 1.377 . S
C312 C311 1.373 . S
C313 C297 1.377 . S
C313 C311 1.389 . S
C313 C314 1.524 . S
C314 C313 1.524 . S
C314 C315 1.397 . S
C314 C319 1.363 1_565 S
C315 H286 0.950 . S
C315 C314 1.397 . S
C315 C316 1.334 . S
C316 H287 0.950 . S
C316 C315 1.334 . S
C316 C317 1.287 1_565 S
C317 C316 1.287 1_545 S
C317 C318 1.524 . S
C317 H320 0.999 . S
C318 H288 0.950 . S
C318 C317 1.524 . S
C318 C319 1.415 . S
C319 H289 0.950 . S
C319 C314 1.363 1_545 S
C319 C318 1.415 . S
H320 C317 0.999 . S
H321 C302 0.913 . S
H322 C340 0.951 . S
H323 C342 0.951 . S
H324 C344 0.950 . S
H325 C345 0.950 . S
H326 C347 0.950 . S
H327 C350 0.950 . S
H328 C351 0.950 . S
H329 C353 0.950 . S
H330 C354 0.950 . S
H331 C355 0.951 . S
H332 C357 0.951 . S
H333 C359 0.950 . S
H334 C360 0.950 . S
H335 C362 0.950 . S
H336 C365 0.950 . S
H337 C366 0.950 . S
H338 C368 0.950 . S
H339 C369 0.950 1_565 S
C340 H322 0.951 . S
C340 C341 1.366 . S
C340 C342 1.388 . S
C341 C340 1.366 . S
C341 C345 1.385 . S
C342 H323 0.951 . S
C342 C340 1.388 . S
C342 C343 1.366 . S
C343 C342 1.366 . S
C343 C344 1.414 . S
C343 C346 1.499 . S
C344 H324 0.950 . S
C344 C343 1.414 . S
C344 C345 1.374 . S
C345 H325 0.950 . S
C345 C341 1.385 . S
C345 C344 1.374 . S
C346 C343 1.499 . S
C346 C347 1.373 . S
C346 C348 1.389 1_565 S
C347 H326 0.950 . S
C347 C346 1.373 . S
C347 C363 1.377 1_565 S
C348 C346 1.389 1_545 S
C348 C349 1.524 1_545 S
C348 C362 1.377 . S
C349 C348 1.524 1_565 S
C349 C350 1.397 . S
C349 C354 1.363 1_565 S
C350 H327 0.950 . S
C350 C349 1.397 . S
C350 C351 1.334 . S
C351 H328 0.950 . S
C351 C350 1.334 . S
C351 C352 1.287 . S
C352 C351 1.287 . S
C352 C353 1.524 1_565 S
C352 H371 0.913 . S
C353 H329 0.950 . S
C353 C352 1.524 1_545 S
C353 C354 1.415 . S
C354 H330 0.950 . S
C354 C349 1.363 1_545 S
C354 C353 1.415 . S
C355 H331 0.951 . S
C355 C356 1.366 . S
C355 C357 1.388 . S
C356 C355 1.366 . S
C356 C360 1.385 . S
C357 H332 0.951 . S
C357 C355 1.388 . S
C357 C358 1.366 . S
C358 C357 1.366 . S
C358 C359 1.414 . S
C358 C361 1.499 . S
C359 H333 0.950 . S
C359 C358 1.414 . S
C359 C360 1.374 . S
C360 H334 0.950 . S
C360 C356 1.385 . S
C360 C359 1.374 . S
C361 C358 1.499 . S
C361 C362 1.373 . S
C361 C363 1.389 . S
C362 H335 0.950 . S
C362 C348 1.377 . S
C362 C361 1.373 . S
C363 C347 1.377 1_545 S
C363 C361 1.389 . S
C363 C364 1.524 . S
C364 C363 1.524 . S
C364 C365 1.397 . S
C364 C369 1.363 . S
C365 H336 0.950 . S
C365 C364 1.397 . S
C365 C366 1.334 . S
C366 H337 0.950 . S
C366 C365 1.334 . S
C366 C367 1.287 . S
C367 C366 1.287 . S
C367 C368 1.524 . S
C367 H370 0.999 . S
C368 H338 0.950 . S
C368 C367 1.524 . S
C368 C369 1.415 . S
C369 H339 0.950 1_545 S
C369 C364 1.363 . S
C369 C368 1.415 . S
H370 C367 0.999 . S
H371 C352 0.913 . S
H372 C390 0.951 . S
H373 C392 0.951 . S
H374 C394 0.950 . S
H375 C395 0.950 . S
H376 C397 0.950 . S
H377 C400 0.950 . S
H378 C401 0.950 . S
H379 C403 0.950 . S
H380 C404 0.950 . S
H381 C405 0.951 . S
H382 C407 0.951 . S
H383 C409 0.950 . S
H384 C410 0.950 . S
H385 C412 0.950 . S
H386 C415 0.950 . S
H387 C416 0.950 . S
H388 C418 0.950 . S
H389 C419 0.950 . S
C390 H372 0.951 . S
C390 C391 1.366 . S
C390 C392 1.388 . S
C391 C390 1.366 . S
C391 C395 1.385 . S
C392 H373 0.951 . S
C392 C390 1.388 . S
C392 C393 1.366 . S
C393 C392 1.366 . S
C393 C394 1.414 . S
C393 C396 1.499 . S
C394 H374 0.950 . S
C394 C393 1.414 . S
C394 C395 1.374 . S
C395 H375 0.950 . S
C395 C391 1.385 . S
C395 C394 1.374 . S
C396 C393 1.499 . S
C396 C397 1.373 . S
C396 C398 1.389 . S
C397 H376 0.950 . S
C397 C396 1.373 . S
C397 C413 1.377 . S
C398 C396 1.389 . S
C398 C399 1.524 . S
C398 C412 1.377 . S
C399 C398 1.524 . S
C399 C400 1.397 . S
C399 C404 1.363 . S
C400 H377 0.950 . S
C400 C399 1.397 . S
C400 C401 1.334 . S
C401 H378 0.950 . S
C401 C400 1.334 . S
C401 C402 1.287 . S
C402 C401 1.287 . S
C402 C403 1.524 . S
C402 H421 0.913 . S
C403 H379 0.950 . S
C403 C402 1.524 . S
C403 C404 1.415 . S
C404 H380 0.950 . S
C404 C399 1.363 . S
C404 C403 1.415 . S
C405 H381 0.951 . S
C405 C406 1.366 . S
C405 C407 1.388 . S
C406 C405 1.366 . S
C406 C410 1.385 . S
C407 H382 0.951 . S
C407 C405 1.388 . S
C407 C408 1.366 . S
C408 C407 1.366 . S
C408 C409 1.414 . S
C408 C411 1.499 . S
C409 H383 0.950 . S
C409 C408 1.414 . S
C409 C410 1.374 . S
C410 H384 0.950 . S
C410 C406 1.385 . S
C410 C409 1.374 . S
C411 C408 1.499 . S
C411 C412 1.373 . S
C411 C413 1.389 . S
C412 H385 0.950 . S
C412 C398 1.377 . S
C412 C411 1.373 . S
C413 C397 1.377 . S
C413 C411 1.389 . S
C413 C414 1.524 . S
C414 C413 1.524 . S
C414 C415 1.397 . S
C414 C419 1.363 . S
C415 H386 0.950 . S
C415 C414 1.397 . S
C415 C416 1.334 . S
C416 H387 0.950 . S
C416 C415 1.334 . S
C416 C417 1.287 1_545 S
C417 C416 1.287 1_565 S
C417 C418 1.524 . S
C417 H420 0.999 . S
C418 H388 0.950 . S
C418 C417 1.524 . S
C418 C419 1.415 1_565 S
C419 H389 0.950 . S
C419 C414 1.363 . S
C419 C418 1.415 1_545 S
H420 C417 0.999 . S
H421 C402 0.913 . S
H422 C440 0.951 . S
H423 C442 0.951 . S
H424 C444 0.950 . S
H425 C445 0.950 . S
H426 C447 0.950 . S
H427 C450 0.950 . S
H428 C451 0.950 . S
H429 C453 0.950 . S
H430 C454 0.950 . S
H431 C455 0.951 . S
H432 C457 0.951 . S
H433 C459 0.950 . S
H434 C460 0.950 . S
H435 C462 0.950 . S
H436 C465 0.950 . S
H437 C466 0.950 . S
H438 C468 0.950 . S
H439 C469 0.950 . S
C440 H422 0.951 . S
C440 C441 1.366 . S
C440 C442 1.388 . S
C441 C440 1.366 . S
C441 C445 1.385 . S
C442 H423 0.951 . S
C442 C440 1.388 . S
C442 C443 1.366 . S
C443 C442 1.366 . S
C443 C444 1.414 . S
C443 C446 1.499 . S
C444 H424 0.950 . S
C444 C443 1.414 . S
C444 C445 1.374 . S
C445 H425 0.950 . S
C445 C441 1.385 . S
C445 C444 1.374 . S
C446 C443 1.499 . S
C446 C447 1.373 . S
C446 C448 1.389 . S
C447 H426 0.950 . S
C447 C446 1.373 . S
C447 C463 1.377 1_545 S
C448 C446 1.389 . S
C448 C449 1.524 . S
C448 C462 1.377 1_545 S
C449 C448 1.524 . S
C449 C450 1.397 . S
C449 C454 1.363 . S
C450 H427 0.950 . S
C450 C449 1.397 . S
C450 C451 1.334 . S
C451 H428 0.950 . S
C451 C450 1.334 . S
C451 C452 1.287 . S
C452 C451 1.287 . S
C452 C453 1.524 . S
C452 H471 0.913 . S
C453 H429 0.950 . S
C453 C452 1.524 . S
C453 C454 1.415 . S
C454 H430 0.950 . S
C454 C449 1.363 . S
C454 C453 1.415 . S
C455 H431 0.951 . S
C455 C456 1.366 . S
C455 C457 1.388 . S
C456 C455 1.366 . S
C456 C460 1.385 . S
C457 H432 0.951 . S
C457 C455 1.388 . S
C457 C458 1.366 . S
C458 C457 1.366 . S
C458 C459 1.414 . S
C458 C461 1.499 . S
C459 H433 0.950 . S
C459 C458 1.414 . S
C459 C460 1.374 . S
C460 H434 0.950 . S
C460 C456 1.385 . S
C460 C459 1.374 . S
C461 C458 1.499 . S
C461 C462 1.373 . S
C461 C463 1.389 . S
C462 H435 0.950 . S
C462 C448 1.377 1_565 S
C462 C461 1.373 . S
C463 C447 1.377 1_565 S
C463 C461 1.389 . S
C463 C464 1.524 . S
C464 C463 1.524 . S
C464 C465 1.397 . S
C464 C469 1.363 . S
C465 H436 0.950 . S
C465 C464 1.397 . S
C465 C466 1.334 . S
C466 H437 0.950 . S
C466 C465 1.334 . S
C466 C467 1.287 . S
C467 C466 1.287 . S
C467 C468 1.524 . S
C467 H470 0.999 . S
C468 H438 0.950 . S
C468 C467 1.524 . S
C468 C469 1.415 . S
C469 H439 0.950 . S
C469 C464 1.363 . S
C469 C468 1.415 . S
H470 C467 0.999 . S
H471 C452 0.913 . S
H472 C490 0.951 . S
H473 C492 0.951 . S
H474 C494 0.950 . S
H475 C495 0.950 . S
H476 C497 0.950 . S
H477 C500 0.950 . S
H478 C501 0.950 . S
H479 C503 0.950 . S
H480 C504 0.950 . S
H481 C505 0.951 . S
H482 C507 0.951 . S
H483 C509 0.950 . S
H484 C510 0.950 . S
H485 C512 0.950 . S
H486 C515 0.950 . S
H487 C516 0.950 . S
H488 C518 0.950 . S
H489 C519 0.950 . S
C490 H472 0.951 . S
C490 C491 1.366 . S
C490 C492 1.388 . S
C491 C490 1.366 . S
C491 C495 1.385 . S
C492 H473 0.951 . S
C492 C490 1.388 . S
C492 C493 1.366 . S
C493 C492 1.366 . S
C493 C494 1.414 . S
C493 C496 1.499 . S
C494 H474 0.950 . S
C494 C493 1.414 . S
C494 C495 1.374 . S
C495 H475 0.950 . S
C495 C491 1.385 . S
C495 C494 1.374 . S
C496 C493 1.499 . S
C496 C497 1.373 . S
C496 C498 1.389 . S
C497 H476 0.950 . S
C497 C496 1.373 . S
C497 C513 1.377 . S
C498 C496 1.389 . S
C498 C499 1.524 . S
C498 C512 1.377 . S
C499 C498 1.524 . S
C499 C500 1.397 . S
C499 C504 1.363 . S
C500 H477 0.950 . S
C500 C499 1.397 . S
C500 C501 1.334 1_545 S
C501 H478 0.950 . S
C501 C500 1.334 1_565 S
C501 C502 1.287 . S
C502 C501 1.287 . S
C502 C503 1.524 . S
C502 H521 0.913 . S
C503 H479 0.950 . S
C503 C502 1.524 . S
C503 C504 1.415 1_565 S
C504 H480 0.950 . S
C504 C499 1.363 . S
C504 C503 1.415 1_545 S
C505 H481 0.951 . S
C505 C506 1.366 . S
C505 C507 1.388 . S
C506 C505 1.366 . S
C506 C510 1.385 . S
C507 H482 0.951 . S
C507 C505 1.388 . S
C507 C508 1.366 . S
C508 C507 1.366 . S
C508 C509 1.414 . S
C508 C511 1.499 . S
C509 H483 0.950 . S
C509 C508 1.414 . S
C509 C510 1.374 . S
C510 H484 0.950 . S
C510 C506 1.385 . S
C510 C509 1.374 . S
C511 C508 1.499 . S
C511 C512 1.373 . S
C511 C513 1.389 . S
C512 H485 0.950 . S
C512 C498 1.377 . S
C512 C511 1.373 . S
C513 C497 1.377 . S
C513 C511 1.389 . S
C513 C514 1.524 . S
C514 C513 1.524 . S
C514 C515 1.397 . S
C514 C519 1.363 . S
C515 H486 0.950 . S
C515 C514 1.397 . S
C515 C516 1.334 . S
C516 H487 0.950 . S
C516 C515 1.334 . S
C516 C517 1.287 . S
C517 C516 1.287 . S
C517 C518 1.524 . S
C517 H520 0.999 . S
C518 H488 0.950 . S
C518 C517 1.524 . S
C518 C519 1.415 . S
C519 H489 0.950 . S
C519 C514 1.363 . S
C519 C518 1.415 . S
H520 C517 0.999 . S
H521 C502 0.913 . S
H522 C540 0.951 . S
H523 C542 0.951 . S
H524 C544 0.950 . S
H525 C545 0.950 . S
H526 C547 0.950 . S
H527 C550 0.950 . S
H528 C551 0.950 . S
H529 C553 0.969 . S
H530 C554 0.950 . S
H531 C555 0.951 . S
H532 C557 0.951 . S
H533 C559 0.950 . S
H534 C560 0.950 . S
H535 C562 0.950 . S
H536 C565 0.950 . S
H537 C566 0.950 . S
H538 C568 0.950 . S
H539 C569 0.950 . S
C540 H522 0.951 . S
C540 C541 1.366 . S
C540 C542 1.388 . S
C541 C540 1.366 . S
C541 C545 1.385 . S
C542 H523 0.951 . S
C542 C540 1.388 . S
C542 C543 1.366 . S
C543 C542 1.366 . S
C543 C544 1.414 . S
C543 C546 1.499 . S
C544 H524 0.950 . S
C544 C543 1.414 . S
C544 C545 1.374 . S
C545 H525 0.950 . S
C545 C541 1.385 . S
C545 C544 1.374 . S
C546 C543 1.499 . S
C546 C547 1.373 . S
C546 C548 1.389 1_565 S
C547 H526 0.950 . S
C547 C546 1.373 . S
C547 C563 1.377 1_565 S
C548 C546 1.389 1_545 S
C548 C549 1.522 1_545 S
C548 C562 1.377 . S
C549 C548 1.522 1_565 S
C549 C550 1.396 1_565 S
C549 C554 1.365 . S
C550 H527 0.950 . S
C550 C549 1.396 1_545 S
C550 C551 1.334 1_545 S
C551 H528 0.950 . S
C551 C550 1.334 1_565 S
C551 C552 1.287 . S
C552 C551 1.287 . S
C552 C553 1.524 . S
C552 H571 0.913 . S
C553 H529 0.969 . S
C553 C552 1.524 . S
C553 C554 1.415 . S
C554 H530 0.950 . S
C554 C549 1.365 . S
C554 C553 1.415 . S
C555 H531 0.951 . S
C555 C556 1.366 . S
C555 C557 1.388 . S
C556 C555 1.366 . S
C556 C560 1.385 . S
C557 H532 0.951 . S
C557 C555 1.388 . S
C557 C558 1.366 . S
C558 C557 1.366 . S
C558 C559 1.414 . S
C558 C561 1.499 . S
C559 H533 0.950 . S
C559 C558 1.414 . S
C559 C560 1.374 . S
C560 H534 0.950 . S
C560 C556 1.385 . S
C560 C559 1.374 . S
C561 C558 1.499 . S
C561 C562 1.373 . S
C561 C563 1.389 . S
C562 H535 0.950 . S
C562 C548 1.377 . S
C562 C561 1.373 . S
C563 C547 1.377 1_545 S
C563 C561 1.389 . S
C563 C564 1.524 . S
C564 C563 1.524 . S
C564 C565 1.397 . S
C564 C569 1.363 . S
C565 H536 0.950 . S
C565 C564 1.397 . S
C565 C566 1.334 . S
C566 H537 0.950 . S
C566 C565 1.334 . S
C566 C567 1.287 . S
C567 C566 1.287 . S
C567 C568 1.524 . S
C567 H570 0.999 . S
C568 H538 0.950 . S
C568 C567 1.524 . S
C568 C569 1.415 . S
C569 H539 0.950 . S
C569 C564 1.363 . S
C569 C568 1.415 . S
H570 C567 0.999 . S
H571 C552 0.913 . S
H572 C590 0.951 . S
H573 C592 0.951 . S
H574 C594 0.950 . S
H575 C595 0.950 . S
H576 C597 0.950 . S
H577 C600 0.950 . S
H578 C601 0.950 . S
H579 C603 0.950 . S
H580 C604 0.950 . S
H581 C605 0.951 . S
H582 C607 0.951 . S
H583 C609 0.950 . S
H584 C610 0.950 . S
H585 C612 0.950 . S
H586 C615 0.950 . S
H587 C616 0.950 . S
H588 C618 0.950 . S
H589 C619 0.950 . S
C590 H572 0.951 . S
C590 C591 1.366 . S
C590 C592 1.388 . S
C591 C590 1.366 . S
C591 C595 1.385 . S
C592 H573 0.951 . S
C592 C590 1.388 . S
C592 C593 1.366 . S
C593 C592 1.366 . S
C593 C594 1.414 . S
C593 C596 1.499 . S
C594 H574 0.950 . S
C594 C593 1.414 . S
C594 C595 1.374 . S
C595 H575 0.950 . S
C595 C591 1.385 . S
C595 C594 1.374 . S
C596 C593 1.499 . S
C596 C597 1.373 . S
C596 C598 1.389 . S
C597 H576 0.950 . S
C597 C596 1.373 . S
C597 C613 1.377 . S
C598 C596 1.389 . S
C598 C599 1.524 . S
C598 C612 1.377 . S
C599 C598 1.524 . S
C599 C600 1.397 . S
C599 C604 1.363 . S
C600 H577 0.950 . S
C600 C599 1.397 . S
C600 C601 1.334 . S
C601 H578 0.950 . S
C601 C600 1.334 . S
C601 C602 1.287 . S
C602 C601 1.287 . S
C602 C603 1.524 . S
C602 H621 0.913 . S
C603 H579 0.950 . S
C603 C602 1.524 . S
C603 C604 1.415 . S
C604 H580 0.950 . S
C604 C599 1.363 . S
C604 C603 1.415 . S
C605 H581 0.951 . S
C605 C606 1.366 . S
C605 C607 1.388 . S
C606 C605 1.366 . S
C606 C610 1.385 . S
C607 H582 0.951 . S
C607 C605 1.388 . S
C607 C608 1.366 . S
C608 C607 1.366 . S
C608 C609 1.414 . S
C608 C611 1.499 . S
C609 H583 0.950 . S
C609 C608 1.414 . S
C609 C610 1.374 . S
C610 H584 0.950 . S
C610 C606 1.385 . S
C610 C609 1.374 . S
C611 C608 1.499 . S
C611 C612 1.373 . S
C611 C613 1.389 . S
C612 H585 0.950 . S
C612 C598 1.377 . S
C612 C611 1.373 . S
C613 C597 1.377 . S
C613 C611 1.389 . S
C613 C614 1.524 . S
C614 C613 1.524 . S
C614 C615 1.397 . S
C614 C619 1.363 . S
C615 H586 0.950 . S
C615 C614 1.397 . S
C615 C616 1.334 . S
C616 H587 0.950 . S
C616 C615 1.334 . S
C616 C617 1.287 1_565 S
C617 C616 1.287 1_545 S
C617 C618 1.524 . S
C617 H620 0.999 . S
C618 H588 0.950 . S
C618 C617 1.524 . S
C618 C619 1.415 1_545 S
C619 H589 0.950 . S
C619 C614 1.363 . S
C619 C618 1.415 1_565 S
H620 C617 0.999 . S
H621 C602 0.913 . S
H622 C640 0.951 . S
H623 C642 0.951 . S
H624 C644 0.950 . S
H625 C645 0.950 . S
H626 C647 0.950 . S
H627 C650 0.953 . S
H628 C651 0.950 . S
H629 C653 0.950 . S
H630 C654 0.950 . S
H631 C655 0.951 . S
H632 C657 0.951 . S
H633 C659 0.950 . S
H634 C660 0.950 . S
H635 C662 0.950 . S
H636 C665 0.950 1_565 S
H637 C666 0.950 . S
H638 C668 0.950 . S
H639 C669 0.950 . S
C640 H622 0.951 . S
C640 C641 1.366 . S
C640 C642 1.388 . S
C641 C640 1.366 . S
C641 C645 1.385 . S
C642 H623 0.951 . S
C642 C640 1.388 . S
C642 C643 1.366 . S
C643 C642 1.366 . S
C643 C644 1.414 . S
C643 C646 1.499 . S
C644 H624 0.950 . S
C644 C643 1.414 . S
C644 C645 1.374 . S
C645 H625 0.950 . S
C645 C641 1.385 . S
C645 C644 1.374 . S
C646 C643 1.499 . S
C646 C647 1.373 . S
C646 C648 1.389 1_545 S
C647 H626 0.950 . S
C647 C646 1.373 . S
C647 C663 1.384 . S
C648 C646 1.389 1_565 S
C648 C649 1.524 . S
C648 C662 1.377 . S
C649 C648 1.524 . S
C649 C650 1.397 . S
C649 C654 1.363 . S
C650 H627 0.953 . S
C650 C649 1.397 . S
C650 C651 1.334 . S
C651 H628 0.950 . S
C651 C650 1.334 . S
C651 C652 1.287 . S
C652 C651 1.287 . S
C652 C653 1.524 . S
C652 H671 0.913 . S
C653 H629 0.950 . S
C653 C652 1.524 . S
C653 C654 1.415 . S
C654 H630 0.950 . S
C654 C649 1.363 . S
C654 C653 1.415 . S
C655 H631 0.951 . S
C655 C656 1.366 . S
C655 C657 1.388 . S
C656 C655 1.366 . S
C656 C660 1.385 . S
C657 H632 0.951 . S
C657 C655 1.388 . S
C657 C658 1.366 . S
C658 C657 1.366 . S
C658 C659 1.414 . S
C658 C661 1.499 . S
C659 H633 0.950 . S
C659 C658 1.414 . S
C659 C660 1.374 . S
C660 H634 0.950 . S
C660 C656 1.385 . S
C660 C659 1.374 . S
C661 C658 1.499 . S
C661 C662 1.373 . S
C661 C663 1.381 1_565 S
C662 H635 0.950 . S
C662 C648 1.377 . S
C662 C661 1.373 . S
C663 C647 1.384 . S
C663 C661 1.381 1_545 S
C663 C664 1.526 . S
C664 C663 1.526 . S
C664 C665 1.397 . S
C664 C669 1.363 . S
C665 H636 0.950 1_545 S
C665 C664 1.397 . S
C665 C666 1.334 . S
C666 H637 0.950 . S
C666 C665 1.334 . S
C666 C667 1.287 . S
C667 C666 1.287 . S
C667 C668 1.524 . S
C667 H670 0.999 . S
C668 H638 0.950 . S
C668 C667 1.524 . S
C668 C669 1.415 . S
C669 H639 0.950 . S
C669 C664 1.363 . S
C669 C668 1.415 . S
H670 C667 0.999 . S
H671 C652 0.913 . S
H672 C690 0.951 . S
H673 C692 0.951 . S
H674 C694 0.950 . S
H675 C695 0.950 . S
H676 C697 0.950 . S
H677 C700 0.950 . S
H678 C701 0.950 . S
H679 C703 0.950 . S
H680 C704 0.950 . S
H681 C705 0.951 . S
H682 C707 0.951 . S
H683 C709 0.950 . S
H684 C710 0.950 . S
H685 C712 0.950 . S
H686 C715 0.950 . S
H687 C716 0.950 . S
H688 C718 0.950 . S
H689 C719 0.950 . S
C690 H672 0.951 . S
C690 C691 1.366 . S
C690 C692 1.388 . S
C691 C690 1.366 . S
C691 C695 1.385 . S
C692 H673 0.951 . S
C692 C690 1.388 . S
C692 C693 1.366 . S
C693 C692 1.366 . S
C693 C694 1.414 . S
C693 C696 1.499 . S
C694 H674 0.950 . S
C694 C693 1.414 . S
C694 C695 1.374 . S
C695 H675 0.950 . S
C695 C691 1.385 . S
C695 C694 1.374 . S
C696 C693 1.499 . S
C696 C697 1.373 . S
C696 C698 1.389 . S
C697 H676 0.950 . S
C697 C696 1.373 . S
C697 C713 1.377 . S
C698 C696 1.389 . S
C698 C699 1.524 . S
C698 C712 1.377 . S
C699 C698 1.524 . S
C699 C700 1.397 . S
C699 C704 1.363 . S
C700 H677 0.950 . S
C700 C699 1.397 . S
C700 C701 1.334 . S
C701 H678 0.950 . S
C701 C700 1.334 . S
C701 C702 1.287 . S
C702 C701 1.287 . S
C702 C703 1.524 . S
C702 H721 0.913 . S
C703 H679 0.950 . S
C703 C702 1.524 . S
C703 C704 1.415 . S
C704 H680 0.950 . S
C704 C699 1.363 . S
C704 C703 1.415 . S
C705 H681 0.951 . S
C705 C706 1.366 . S
C705 C707 1.388 . S
C706 C705 1.366 . S
C706 C710 1.385 . S
C707 H682 0.951 . S
C707 C705 1.388 . S
C707 C708 1.366 . S
C708 C707 1.366 . S
C708 C709 1.414 . S
C708 C711 1.499 . S
C709 H683 0.950 . S
C709 C708 1.414 . S
C709 C710 1.374 . S
C710 H684 0.950 . S
C710 C706 1.385 . S
C710 C709 1.374 . S
C711 C708 1.499 . S
C711 C712 1.373 . S
C711 C713 1.389 . S
C712 H685 0.950 . S
C712 C698 1.377 . S
C712 C711 1.373 . S
C713 C697 1.377 . S
C713 C711 1.389 . S
C713 C714 1.524 . S
C714 C713 1.524 . S
C714 C715 1.397 . S
C714 C719 1.363 . S
C715 H686 0.950 . S
C715 C714 1.397 . S
C715 C716 1.334 . S
C716 H687 0.950 . S
C716 C715 1.334 . S
C716 C717 1.287 . S
C717 C716 1.287 . S
C717 C718 1.524 . S
C717 H720 0.999 . S
C718 H688 0.950 . S
C718 C717 1.524 . S
C718 C719 1.415 . S
C719 H689 0.950 . S
C719 C714 1.363 . S
C719 C718 1.415 . S
H720 C717 0.999 . S
H721 C702 0.913 . S
H722 C740 0.951 . S
H723 C742 0.951 . S
H724 C744 0.950 . S
H725 C745 0.950 . S
H726 C747 0.950 . S
H727 C750 0.950 . S
H728 C751 0.950 . S
H729 C753 0.950 . S
H730 C754 0.950 1_565 S
H731 C755 0.951 . S
H732 C757 0.951 . S
H733 C759 0.950 . S
H734 C760 0.950 . S
H735 C762 0.950 . S
H736 C765 0.950 . S
H737 C766 0.950 . S
H738 C768 0.950 . S
H739 C769 0.950 1_545 S
C740 H722 0.951 . S
C740 C741 1.366 . S
C740 C742 1.388 . S
C741 C740 1.366 . S
C741 C745 1.385 . S
C742 H723 0.951 . S
C742 C740 1.388 . S
C742 C743 1.366 . S
C743 C742 1.366 . S
C743 C744 1.414 . S
C743 C746 1.499 . S
C744 H724 0.950 . S
C744 C743 1.414 . S
C744 C745 1.374 . S
C745 H725 0.950 . S
C745 C741 1.385 . S
C745 C744 1.374 . S
C746 C743 1.499 . S
C746 C747 1.373 . S
C746 C748 1.389 . S
C747 H726 0.950 . S
C747 C746 1.373 . S
C747 C763 1.377 1_545 S
C748 C746 1.389 . S
C748 C749 1.524 . S
C748 C762 1.377 1_545 S
C749 C748 1.524 . S
C749 C750 1.397 . S
C749 C754 1.363 . S
C750 H727 0.950 . S
C750 C749 1.397 . S
C750 C751 1.334 . S
C751 H728 0.950 . S
C751 C750 1.334 . S
C751 C752 1.287 . S
C752 C751 1.287 . S
C752 C753 1.524 . S
C752 H771 0.913 . S
C753 H729 0.950 . S
C753 C752 1.524 . S
C753 C754 1.415 . S
C754 H730 0.950 1_545 S
C754 C749 1.363 . S
C754 C753 1.415 . S
C755 H731 0.951 . S
C755 C756 1.366 . S
C755 C757 1.388 . S
C756 C755 1.366 . S
C756 C760 1.385 . S
C757 H732 0.951 . S
C757 C755 1.388 . S
C757 C758 1.366 . S
C758 C757 1.366 . S
C758 C759 1.414 . S
C758 C761 1.499 . S
C759 H733 0.950 . S
C759 C758 1.414 . S
C759 C760 1.374 . S
C760 H734 0.950 . S
C760 C756 1.385 . S
C760 C759 1.374 . S
C761 C758 1.499 . S
C761 C762 1.373 . S
C761 C763 1.389 . S
C762 H735 0.950 . S
C762 C748 1.377 1_565 S
C762 C761 1.373 . S
C763 C747 1.377 1_565 S
C763 C761 1.389 . S
C763 C764 1.524 . S
C764 C763 1.524 . S
C764 C765 1.397 . S
C764 C769 1.363 . S
C765 H736 0.950 . S
C765 C764 1.397 . S
C765 C766 1.334 . S
C766 H737 0.950 . S
C766 C765 1.334 . S
C766 C767 1.287 . S
C767 C766 1.287 . S
C767 C768 1.524 . S
C767 H770 0.999 . S
C768 H738 0.950 . S
C768 C767 1.524 . S
C768 C769 1.415 . S
C769 H739 0.950 1_565 S
C769 C764 1.363 . S
C769 C768 1.415 . S
H770 C767 0.999 . S
H771 C752 0.913 . S
H772 C790 0.951 . S
H773 C792 0.951 . S
H774 C794 0.950 . S
H775 C795 0.950 1_545 S
H776 C797 0.950 . S
H777 C800 0.950 . S
H778 C801 0.950 1_545 S
H779 C803 0.950 . S
H780 C804 0.950 . S
H781 C805 0.951 . S
H782 C807 0.951 . S
H783 C809 0.950 . S
H784 C810 0.950 . S
H785 C812 0.950 . S
H786 C815 0.950 . S
H787 C816 0.950 . S
H788 C818 0.950 . S
H789 C819 0.950 . S
C790 H772 0.951 . S
C790 C791 1.366 . S
C790 C792 1.388 . S
C791 C790 1.366 . S
C791 C795 1.385 . S
C792 H773 0.951 . S
C792 C790 1.388 . S
C792 C793 1.366 . S
C793 C792 1.366 . S
C793 C794 1.414 . S
C793 C796 1.499 . S
C794 H774 0.950 . S
C794 C793 1.414 . S
C794 C795 1.374 . S
C795 H775 0.950 1_565 S
C795 C791 1.385 . S
C795 C794 1.374 . S
C796 C793 1.499 . S
C796 C797 1.373 . S
C796 C798 1.389 . S
C797 H776 0.950 . S
C797 C796 1.373 . S
C797 C813 1.377 . S
C798 C796 1.389 . S
C798 C799 1.524 . S
C798 C812 1.377 . S
C799 C798 1.524 . S
C799 C800 1.397 . S
C799 C804 1.363 . S
C800 H777 0.950 . S
C800 C799 1.397 . S
C800 C801 1.334 . S
C801 H778 0.950 1_565 S
C801 C800 1.334 . S
C801 C802 1.287 . S
C802 C801 1.287 . S
C802 C803 1.524 . S
C802 H821 0.913 . S
C803 H779 0.950 . S
C803 C802 1.524 . S
C803 C804 1.415 . S
C804 H780 0.950 . S
C804 C799 1.363 . S
C804 C803 1.415 . S
C805 H781 0.951 . S
C805 C806 1.366 . S
C805 C807 1.388 . S
C806 C805 1.366 . S
C806 C810 1.385 . S
C807 H782 0.951 . S
C807 C805 1.388 . S
C807 C808 1.366 . S
C808 C807 1.366 . S
C808 C809 1.414 . S
C808 C811 1.499 . S
C809 H783 0.950 . S
C809 C808 1.414 . S
C809 C810 1.374 . S
C810 H784 0.950 . S
C810 C806 1.385 . S
C810 C809 1.374 . S
C811 C808 1.499 . S
C811 C812 1.373 . S
C811 C813 1.389 . S
C812 H785 0.950 . S
C812 C798 1.377 . S
C812 C811 1.373 . S
C813 C797 1.377 . S
C813 C811 1.389 . S
C813 C814 1.524 . S
C814 C813 1.524 . S
C814 C815 1.397 . S
C814 C819 1.363 . S
C815 H786 0.950 . S
C815 C814 1.397 . S
C815 C816 1.334 . S
C816 H787 0.950 . S
C816 C815 1.334 . S
C816 C817 1.287 . S
C817 C816 1.287 . S
C817 C818 1.524 . S
C817 H820 0.999 . S
C818 H788 0.950 . S
C818 C817 1.524 . S
C818 C819 1.415 . S
C819 H789 0.950 . S
C819 C814 1.363 . S
C819 C818 1.415 . S
H820 C817 0.999 . S
H821 C802 0.913 . S
H822 C840 0.951 . S
H823 C842 0.951 . S
H824 C844 0.950 . S
H825 C845 0.950 . S
H826 C847 0.950 . S
H827 C850 0.950 . S
H828 C851 0.950 . S
H829 C853 0.950 . S
H830 C854 0.950 . S
H831 C855 0.951 . S
H832 C857 0.951 . S
H833 C859 0.950 . S
H834 C860 0.950 . S
H835 C862 0.950 . S
H836 C865 0.950 . S
H837 C866 0.950 . S
H838 C868 0.950 . S
H839 C869 0.950 . S
C840 H822 0.951 . S
C840 C841 1.366 . S
C840 C842 1.388 . S
C841 C840 1.366 . S
C841 C845 1.385 . S
C842 H823 0.951 . S
C842 C840 1.388 . S
C842 C843 1.366 . S
C843 C842 1.366 . S
C843 C844 1.414 . S
C843 C846 1.499 . S
C844 H824 0.950 . S
C844 C843 1.414 . S
C844 C845 1.374 . S
C845 H825 0.950 . S
C845 C841 1.385 . S
C845 C844 1.374 . S
C846 C843 1.499 . S
C846 C847 1.373 1_565 S
C846 C848 1.389 . S
C847 H826 0.950 . S
C847 C846 1.373 1_545 S
C847 C863 1.377 . S
C848 C846 1.389 . S
C848 C849 1.524 . S
C848 C862 1.377 1_565 S
C849 C848 1.524 . S
C849 C850 1.397 . S
C849 C854 1.363 . S
C850 H827 0.950 . S
C850 C849 1.397 . S
C850 C851 1.334 . S
C851 H828 0.950 . S
C851 C850 1.334 . S
C851 C852 1.287 . S
C852 C851 1.287 . S
C852 C853 1.524 . S
C852 H871 0.913 . S
C853 H829 0.950 . S
C853 C852 1.524 . S
C853 C854 1.415 . S
C854 H830 0.950 . S
C854 C849 1.363 . S
C854 C853 1.415 . S
C855 H831 0.951 . S
C855 C856 1.366 . S
C855 C857 1.388 . S
C856 C855 1.366 . S
C856 C860 1.385 . S
C857 H832 0.951 . S
C857 C855 1.388 . S
C857 C858 1.366 . S
C858 C857 1.366 . S
C858 C859 1.414 . S
C858 C861 1.499 . S
C859 H833 0.950 . S
C859 C858 1.414 . S
C859 C860 1.374 . S
C860 H834 0.950 . S
C860 C856 1.385 . S
C860 C859 1.374 . S
C861 C858 1.499 . S
C861 C862 1.373 . S
C861 C863 1.389 . S
C862 H835 0.950 . S
C862 C848 1.377 1_545 S
C862 C861 1.373 . S
C863 C847 1.377 . S
C863 C861 1.389 . S
C863 C864 1.524 . S
C864 C863 1.524 . S
C864 C865 1.397 . S
C864 C869 1.363 . S
C865 H836 0.950 . S
C865 C864 1.397 . S
C865 C866 1.334 . S
C866 H837 0.950 . S
C866 C865 1.334 . S
C866 C867 1.287 . S
C867 C866 1.287 . S
C867 C868 1.524 . S
C867 H870 0.999 . S
C868 H838 0.950 . S
C868 C867 1.524 . S
C868 C869 1.415 . S
C869 H839 0.950 . S
C869 C864 1.363 . S
C869 C868 1.415 . S
H870 C867 0.999 . S
H871 C852 0.913 . S
H872 C890 0.951 . S
H873 C892 0.951 . S
H874 C894 0.950 1_545 S
H875 C895 0.950 . S
H876 C897 0.950 . S
H877 C900 0.950 . S
H878 C901 0.950 . S
H879 C903 0.950 . S
H880 C904 0.950 . S
H881 C905 0.951 . S
H882 C907 0.951 . S
H883 C909 0.950 . S
H884 C910 0.950 . S
H885 C912 0.950 . S
H886 C915 0.950 . S
H887 C916 0.950 . S
H888 C918 0.950 . S
H889 C919 0.950 1_545 S
C890 H872 0.951 . S
C890 C891 1.366 . S
C890 C892 1.388 . S
C891 C890 1.366 . S
C891 C895 1.385 1_565 S
C892 H873 0.951 . S
C892 C890 1.388 . S
C892 C893 1.366 . S
C893 C892 1.366 . S
C893 C894 1.414 . S
C893 C896 1.499 . S
C894 H874 0.950 1_565 S
C894 C893 1.414 . S
C894 C895 1.374 1_565 S
C895 H875 0.950 . S
C895 C891 1.385 1_545 S
C895 C894 1.374 1_545 S
C896 C893 1.499 . S
C896 C897 1.373 . S
C896 C898 1.389 . S
C897 H876 0.950 . S
C897 C896 1.373 . S
C897 C913 1.377 . S
C898 C896 1.389 . S
C898 C899 1.524 . S
C898 C912 1.377 . S
C899 C898 1.524 . S
C899 C900 1.397 . S
C899 C904 1.363 . S
C900 H877 0.950 . S
C900 C899 1.397 . S
C900 C901 1.334 . S
C901 H878 0.950 . S
C901 C900 1.334 . S
C901 C902 1.287 . S
C902 C901 1.287 . S
C902 C903 1.524 . S
C902 H921 0.913 . S
C903 H879 0.950 . S
C903 C902 1.524 . S
C903 C904 1.415 . S
C904 H880 0.950 . S
C904 C899 1.363 . S
C904 C903 1.415 . S
C905 H881 0.951 . S
C905 C906 1.366 . S
C905 C907 1.388 . S
C906 C905 1.366 . S
C906 C910 1.385 . S
C907 H882 0.951 . S
C907 C905 1.388 . S
C907 C908 1.366 . S
C908 C907 1.366 . S
C908 C909 1.414 . S
C908 C911 1.499 . S
C909 H883 0.950 . S
C909 C908 1.414 . S
C909 C910 1.374 . S
C910 H884 0.950 . S
C910 C906 1.385 . S
C910 C909 1.374 . S
C911 C908 1.499 . S
C911 C912 1.373 . S
C911 C913 1.389 . S
C912 H885 0.950 . S
C912 C898 1.377 . S
C912 C911 1.373 . S
C913 C897 1.377 . S
C913 C911 1.389 . S
C913 C914 1.524 . S
C914 C913 1.524 . S
C914 C915 1.397 . S
C914 C919 1.363 . S
C915 H886 0.950 . S
C915 C914 1.397 . S
C915 C916 1.334 . S
C916 H887 0.950 . S
C916 C915 1.334 . S
C916 C917 1.287 . S
C917 C916 1.287 . S
C917 C918 1.524 1_565 S
C917 H920 0.999 . S
C918 H888 0.950 . S
C918 C917 1.524 1_545 S
C918 C919 1.415 1_545 S
C919 H889 0.950 1_565 S
C919 C914 1.363 . S
C919 C918 1.415 1_565 S
H920 C917 0.999 . S
H921 C902 0.913 . S
H922 C940 0.951 . S
H923 C942 0.951 . S
H924 C944 0.950 . S
H925 C945 0.950 . S
H926 C947 0.950 . S
H927 C950 0.950 . S
H928 C951 0.950 . S
H929 C953 0.950 . S
H930 C954 0.950 . S
H931 C955 0.951 . S
H932 C957 0.951 . S
H933 C959 0.950 . S
H934 C960 0.950 . S
H935 C962 0.951 . S
H936 C965 0.950 . S
H937 C966 0.950 . S
H938 C968 0.950 . S
H939 C969 0.950 . S
C940 H922 0.951 . S
C940 C941 1.366 . S
C940 C942 1.388 . S
C941 C940 1.366 . S
C941 C945 1.385 . S
C942 H923 0.951 . S
C942 C940 1.388 . S
C942 C943 1.366 . S
C943 C942 1.366 . S
C943 C944 1.414 . S
C943 C946 1.499 . S
C944 H924 0.950 . S
C944 C943 1.414 . S
C944 C945 1.374 . S
C945 H925 0.950 . S
C945 C941 1.385 . S
C945 C944 1.374 . S
C946 C943 1.499 . S
C946 C947 1.373 1_545 S
C946 C948 1.389 . S
C947 H926 0.950 . S
C947 C946 1.373 1_565 S
C947 C963 1.377 . S
C948 C946 1.389 . S
C948 C949 1.524 . S
C948 C962 1.384 . S
C949 C948 1.524 . S
C949 C950 1.397 . S
C949 C954 1.363 . S
C950 H927 0.950 . S
C950 C949 1.397 . S
C950 C951 1.334 . S
C951 H928 0.950 . S
C951 C950 1.334 . S
C951 C952 1.287 . S
C952 C951 1.287 . S
C952 C953 1.524 . S
C952 H971 0.913 . S
C953 H929 0.950 . S
C953 C952 1.524 . S
C953 C954 1.415 . S
C954 H930 0.950 . S
C954 C949 1.363 . S
C954 C953 1.415 . S
C955 H931 0.951 . S
C955 C956 1.366 . S
C955 C957 1.388 . S
C956 C955 1.366 . S
C956 C960 1.385 . S
C957 H932 0.951 . S
C957 C955 1.388 . S
C957 C958 1.366 . S
C958 C957 1.366 . S
C958 C959 1.414 . S
C958 C961 1.499 . S
C959 H933 0.950 . S
C959 C958 1.414 . S
C959 C960 1.374 . S
C960 H934 0.950 . S
C960 C956 1.385 . S
C960 C959 1.374 . S
C961 C958 1.499 . S
C961 C962 1.365 1_565 S
C961 C963 1.389 . S
C962 H935 0.951 . S
C962 C948 1.384 . S
C962 C961 1.365 1_545 S
C963 C947 1.377 . S
C963 C961 1.389 . S
C963 C964 1.524 . S
C964 C963 1.524 . S
C964 C965 1.397 . S
C964 C969 1.363 . S
C965 H936 0.950 . S
C965 C964 1.397 . S
C965 C966 1.334 . S
C966 H937 0.950 . S
C966 C965 1.334 . S
C966 C967 1.287 . S
C967 C966 1.287 . S
C967 C968 1.524 . S
C967 H970 0.999 . S
C968 H938 0.950 . S
C968 C967 1.524 . S
C968 C969 1.415 . S
C969 H939 0.950 . S
C969 C964 1.363 . S
C969 C968 1.415 . S
H970 C967 0.999 . S
H971 C952 0.913 . S
H972 C990 0.951 . S
H973 C992 0.951 . S
H974 C994 0.950 . S
H975 C995 0.950 . S
H976 C997 0.950 . S
H977 C1000 0.950 . S
H978 C1001 0.950 1_565 S
H979 C1003 0.950 . S
H980 C1004 0.950 . S
H981 C1005 0.951 . S
H982 C1007 0.951 . S
H983 C1009 0.950 . S
H984 C1010 0.950 . S
H985 C1012 0.950 . S
H986 C1015 0.950 . S
H987 C1016 0.950 . S
H988 C1018 0.950 . S
H989 C1019 0.950 . S
C990 H972 0.951 . S
C990 C991 1.366 . S
C990 C992 1.388 . S
C991 C990 1.366 . S
C991 C995 1.385 . S
C992 H973 0.951 . S
C992 C990 1.388 . S
C992 C993 1.366 . S
C993 C992 1.366 . S
C993 C994 1.414 . S
C993 C996 1.499 . S
C994 H974 0.950 . S
C994 C993 1.414 . S
C994 C995 1.374 . S
C995 H975 0.950 . S
C995 C991 1.385 . S
C995 C994 1.374 . S
C996 C993 1.499 . S
C996 C997 1.373 . S
C996 C998 1.389 . S
C997 H976 0.950 . S
C997 C996 1.373 . S
C997 C1013 1.377 . S
C998 C996 1.389 . S
C998 C999 1.524 . S
C998 C1012 1.377 . S
C999 C998 1.524 . S
C999 C1000 1.397 . S
C999 C1004 1.363 . S
C1000 H977 0.950 . S
C1000 C999 1.397 . S
C1000 C1001 1.334 . S
C1001 H978 0.950 1_545 S
C1001 C1000 1.334 . S
C1001 C1002 1.287 . S
C1002 C1001 1.287 . S
C1002 C1003 1.524 . S
C1002 H1021 0.913 . S
C1003 H979 0.950 . S
C1003 C1002 1.524 . S
C1003 C1004 1.415 . S
C1004 H980 0.950 . S
C1004 C999 1.363 . S
C1004 C1003 1.415 . S
C1005 H981 0.951 . S
C1005 C1006 1.366 . S
C1005 C1007 1.388 . S
C1006 C1005 1.366 . S
C1006 C1010 1.385 . S
C1007 H982 0.951 . S
C1007 C1005 1.388 . S
C1007 C1008 1.366 . S
C1008 C1007 1.366 . S
C1008 C1009 1.414 . S
C1008 C1011 1.499 . S
C1009 H983 0.950 . S
C1009 C1008 1.414 . S
C1009 C1010 1.374 . S
C1010 H984 0.950 . S
C1010 C1006 1.385 . S
C1010 C1009 1.374 . S
C1011 C1008 1.499 . S
C1011 C1012 1.373 . S
C1011 C1013 1.389 . S
C1012 H985 0.950 . S
C1012 C998 1.377 . S
C1012 C1011 1.373 . S
C1013 C997 1.377 . S
C1013 C1011 1.389 . S
C1013 C1014 1.524 . S
C1014 C1013 1.524 . S
C1014 C1015 1.397 . S
C1014 C1019 1.363 . S
C1015 H986 0.950 . S
C1015 C1014 1.397 . S
C1015 C1016 1.334 . S
C1016 H987 0.950 . S
C1016 C1015 1.334 . S
C1016 C1017 1.287 . S
C1017 C1016 1.287 . S
C1017 C1018 1.524 . S
C1017 H1020 0.999 . S
C1018 H988 0.950 . S
C1018 C1017 1.524 . S
C1018 C1019 1.415 . S
C1019 H989 0.950 . S
C1019 C1014 1.363 . S
C1019 C1018 1.415 . S
H1020 C1017 0.999 . S
H1021 C1002 0.913 . S
H1022 C1040 0.951 . S
H1023 C1042 0.951 . S
H1024 C1044 0.950 . S
H1025 C1045 0.950 . S
H1026 C1047 0.950 . S
H1027 C1050 0.950 . S
H1028 C1051 0.950 . S
H1029 C1053 0.950 . S
H1030 C1054 0.950 . S
H1031 C1055 0.951 . S
H1032 C1057 0.951 . S
H1033 C1059 0.950 . S
H1034 C1060 0.950 . S
H1035 C1062 0.950 . S
H1036 C1065 0.950 . S
H1037 C1066 0.950 . S
H1038 C1068 0.950 . S
H1039 C1069 0.950 . S
C1040 H1022 0.951 . S
C1040 C1041 1.366 . S
C1040 C1042 1.388 . S
C1041 C1040 1.366 . S
C1041 C1045 1.385 . S
C1042 H1023 0.951 . S
C1042 C1040 1.388 . S
C1042 C1043 1.366 . S
C1043 C1042 1.366 . S
C1043 C1044 1.414 . S
C1043 C1046 1.499 . S
C1044 H1024 0.950 . S
C1044 C1043 1.414 . S
C1044 C1045 1.374 . S
C1045 H1025 0.950 . S
C1045 C1041 1.385 . S
C1045 C1044 1.374 . S
C1046 C1043 1.499 . S
C1046 C1047 1.373 . S
C1046 C1048 1.389 1_565 S
C1047 H1026 0.950 . S
C1047 C1046 1.373 . S
C1047 C1063 1.377 1_565 S
C1048 C1046 1.389 1_545 S
C1048 C1049 1.524 . S
C1048 C1062 1.377 . S
C1049 C1048 1.524 . S
C1049 C1050 1.397 . S
C1049 C1054 1.363 . S
C1050 H1027 0.950 . S
C1050 C1049 1.397 . S
C1050 C1051 1.334 . S
C1051 H1028 0.950 . S
C1051 C1050 1.334 . S
C1051 C1052 1.287 . S
C1052 C1051 1.287 . S
C1052 C1053 1.524 . S
C1052 H1071 0.913 . S
C1053 H1029 0.950 . S
C1053 C1052 1.524 . S
C1053 C1054 1.415 . S
C1054 H1030 0.950 . S
C1054 C1049 1.363 . S
C1054 C1053 1.415 . S
C1055 H1031 0.951 . S
C1055 C1056 1.366 . S
C1055 C1057 1.388 . S
C1056 C1055 1.366 . S
C1056 C1060 1.385 . S
C1057 H1032 0.951 . S
C1057 C1055 1.388 . S
C1057 C1058 1.366 . S
C1058 C1057 1.366 . S
C1058 C1059 1.414 . S
C1058 C1061 1.499 . S
C1059 H1033 0.950 . S
C1059 C1058 1.414 . S
C1059 C1060 1.374 . S
C1060 H1034 0.950 . S
C1060 C1056 1.385 . S
C1060 C1059 1.374 . S
C1061 C1058 1.499 . S
C1061 C1062 1.373 . S
C1061 C1063 1.389 . S
C1062 H1035 0.950 . S
C1062 C1048 1.377 . S
C1062 C1061 1.373 . S
C1063 C1047 1.377 1_545 S
C1063 C1061 1.389 . S
C1063 C1064 1.524 1_545 S
C1064 C1063 1.524 1_565 S
C1064 C1065 1.397 1_565 S
C1064 C1069 1.363 . S
C1065 H1036 0.950 . S
C1065 C1064 1.397 1_545 S
C1065 C1066 1.334 . S
C1066 H1037 0.950 . S
C1066 C1065 1.334 . S
C1066 C1067 1.287 1_545 S
C1067 C1066 1.287 1_565 S
C1067 C1068 1.524 . S
C1067 H1070 0.999 . S
C1068 H1038 0.950 . S
C1068 C1067 1.524 . S
C1068 C1069 1.415 . S
C1069 H1039 0.950 . S
C1069 C1064 1.363 . S
C1069 C1068 1.415 . S
H1070 C1067 0.999 . S
H1071 C1052 0.913 . S
H1072 C1090 0.951 . S
H1073 C1092 0.951 . S
H1074 C1094 0.950 . S
H1075 C1095 0.950 . S
H1076 C1097 0.950 . S
H1077 C1100 0.950 . S
H1078 C1101 0.950 . S
H1079 C1103 0.950 . S
H1080 C1104 0.950 . S
H1081 C1105 0.951 . S
H1082 C1107 0.951 . S
H1083 C1109 0.950 . S
H1084 C1110 0.950 . S
H1085 C1112 0.950 . S
H1086 C1115 0.950 . S
H1087 C1116 0.950 . S
H1088 C1118 0.950 . S
H1089 C1119 0.950 . S
C1090 H1072 0.951 . S
C1090 C1091 1.366 . S
C1090 C1092 1.388 . S
C1091 C1090 1.366 . S
C1091 C1095 1.385 . S
C1092 H1073 0.951 . S
C1092 C1090 1.388 . S
C1092 C1093 1.366 . S
C1093 C1092 1.366 . S
C1093 C1094 1.414 . S
C1093 C1096 1.499 . S
C1094 H1074 0.950 . S
C1094 C1093 1.414 . S
C1094 C1095 1.374 . S
C1095 H1075 0.950 . S
C1095 C1091 1.385 . S
C1095 C1094 1.374 . S
C1096 C1093 1.499 . S
C1096 C1097 1.373 . S
C1096 C1098 1.389 . S
C1097 H1076 0.950 . S
C1097 C1096 1.373 . S
C1097 C1113 1.377 . S
C1098 C1096 1.389 . S
C1098 C1099 1.524 . S
C1098 C1112 1.377 . S
C1099 C1098 1.524 . S
C1099 C1100 1.397 . S
C1099 C1104 1.363 . S
C1100 H1077 0.950 . S
C1100 C1099 1.397 . S
C1100 C1101 1.334 . S
C1101 H1078 0.950 . S
C1101 C1100 1.334 . S
C1101 C1102 1.287 . S
C1102 C1101 1.287 . S
C1102 C1103 1.524 . S
C1102 H1121 0.913 . S
C1103 H1079 0.950 . S
C1103 C1102 1.524 . S
C1103 C1104 1.415 . S
C1104 H1080 0.950 . S
C1104 C1099 1.363 . S
C1104 C1103 1.415 . S
C1105 H1081 0.951 . S
C1105 C1106 1.366 . S
C1105 C1107 1.388 . S
C1106 C1105 1.366 . S
C1106 C1110 1.385 . S
C1107 H1082 0.951 . S
C1107 C1105 1.388 . S
C1107 C1108 1.366 . S
C1108 C1107 1.366 . S
C1108 C1109 1.414 . S
C1108 C1111 1.499 . S
C1109 H1083 0.950 . S
C1109 C1108 1.414 . S
C1109 C1110 1.374 . S
C1110 H1084 0.950 . S
C1110 C1106 1.385 . S
C1110 C1109 1.374 . S
C1111 C1108 1.499 . S
C1111 C1112 1.373 . S
C1111 C1113 1.389 . S
C1112 H1085 0.950 . S
C1112 C1098 1.377 . S
C1112 C1111 1.373 . S
C1113 C1097 1.377 . S
C1113 C1111 1.389 . S
C1113 C1114 1.524 . S
C1114 C1113 1.524 . S
C1114 C1115 1.397 . S
C1114 C1119 1.363 . S
C1115 H1086 0.950 . S
C1115 C1114 1.397 . S
C1115 C1116 1.334 . S
C1116 H1087 0.950 . S
C1116 C1115 1.334 . S
C1116 C1117 1.287 . S
C1117 C1116 1.287 . S
C1117 C1118 1.524 . S
C1117 H1120 0.999 . S
C1118 H1088 0.950 . S
C1118 C1117 1.524 . S
C1118 C1119 1.415 . S
C1119 H1089 0.950 . S
C1119 C1114 1.363 . S
C1119 C1118 1.415 . S
H1120 C1117 0.999 . S
H1121 C1102 0.913 . S
H1122 C1140 0.951 . S
H1123 C1142 0.951 . S
H1124 C1144 0.950 . S
H1125 C1145 0.950 . S
H1126 C1147 0.950 . S
H1127 C1150 0.950 . S
H1128 C1151 0.950 . S
H1129 C1153 0.950 . S
H1130 C1154 0.950 . S
H1131 C1155 0.951 . S
H1132 C1157 0.951 . S
H1133 C1159 0.950 . S
H1134 C1160 0.950 . S
H1135 C1162 0.950 . S
H1136 C1165 0.950 . S
H1137 C1166 0.950 1_455 S
H1138 C1168 0.950 . S
H1139 C1169 0.950 . S
C1140 H1122 0.951 . S
C1140 C1141 1.366 . S
C1140 C1142 1.388 . S
C1141 C1140 1.366 . S
C1141 C1145 1.385 . S
C1142 H1123 0.951 . S
C1142 C1140 1.388 . S
C1142 C1143 1.366 . S
C1143 C1142 1.366 . S
C1143 C1144 1.414 . S
C1143 C1146 1.499 . S
C1144 H1124 0.950 . S
C1144 C1143 1.414 . S
C1144 C1145 1.374 . S
C1145 H1125 0.950 . S
C1145 C1141 1.385 . S
C1145 C1144 1.374 . S
C1146 C1143 1.499 . S
C1146 C1147 1.373 . S
C1146 C1148 1.389 . S
C1147 H1126 0.950 . S
C1147 C1146 1.373 . S
C1147 C1163 1.377 . S
C1148 C1146 1.389 . S
C1148 C1149 1.524 . S
C1148 C1162 1.377 . S
C1149 C1148 1.524 . S
C1149 C1150 1.397 . S
C1149 C1154 1.363 . S
C1150 H1127 0.950 . S
C1150 C1149 1.397 . S
C1150 C1151 1.334 . S
C1151 H1128 0.950 . S
C1151 C1150 1.334 . S
C1151 C1152 1.287 . S
C1152 C1151 1.287 . S
C1152 C1153 1.524 . S
C1152 H1171 0.913 . S
C1153 H1129 0.950 . S
C1153 C1152 1.524 . S
C1153 C1154 1.415 . S
C1154 H1130 0.950 . S
C1154 C1149 1.363 . S
C1154 C1153 1.415 . S
C1155 H1131 0.951 . S
C1155 C1156 1.366 . S
C1155 C1157 1.388 . S
C1156 C1155 1.366 . S
C1156 C1160 1.385 . S
C1157 H1132 0.951 . S
C1157 C1155 1.388 . S
C1157 C1158 1.366 . S
C1158 C1157 1.366 . S
C1158 C1159 1.414 . S
C1158 C1161 1.499 . S
C1159 H1133 0.950 . S
C1159 C1158 1.414 . S
C1159 C1160 1.374 . S
C1160 H1134 0.950 . S
C1160 C1156 1.385 . S
C1160 C1159 1.374 . S
C1161 C1158 1.499 . S
C1161 C1162 1.373 . S
C1161 C1163 1.389 . S
C1162 H1135 0.950 . S
C1162 C1148 1.377 . S
C1162 C1161 1.373 . S
C1163 C1147 1.377 . S
C1163 C1161 1.389 . S
C1163 C1164 1.524 . S
C1164 C1163 1.524 . S
C1164 C1165 1.397 . S
C1164 C1169 1.363 . S
C1165 H1136 0.950 . S
C1165 C1164 1.397 . S
C1165 C1166 1.334 . S
C1166 H1137 0.950 1_655 S
C1166 C1165 1.334 . S
C1166 C1167 1.287 . S
C1167 C1166 1.287 . S
C1167 C1168 1.524 . S
C1167 H1170 0.999 1_655 S
C1168 H1138 0.950 . S
C1168 C1167 1.524 . S
C1168 C1169 1.415 . S
C1169 H1139 0.950 . S
C1169 C1164 1.363 . S
C1169 C1168 1.415 . S
H1170 C1167 0.999 1_455 S
H1171 C1152 0.913 . S
H1172 C1190 0.951 . S
H1173 C1192 0.951 . S
H1174 C1194 0.950 . S
H1175 C1195 0.950 . S
H1176 C1197 0.950 . S
H1177 C1200 0.950 . S
H1178 C1201 0.950 . S
H1179 C1203 0.950 . S
H1180 C1204 0.950 . S
H1181 C1205 0.951 . S
H1182 C1207 0.951 . S
H1183 C1209 0.950 . S
H1184 C1210 0.950 . S
H1185 C1212 0.950 . S
H1186 C1215 0.950 . S
H1187 C1216 0.950 . S
H1188 C1218 0.950 . S
H1189 C1219 0.950 . S
C1190 H1172 0.951 . S
C1190 C1191 1.366 . S
C1190 C1192 1.388 . S
C1191 C1190 1.366 . S
C1191 C1195 1.385 . S
C1192 H1173 0.951 . S
C1192 C1190 1.388 . S
C1192 C1193 1.366 . S
C1193 C1192 1.366 . S
C1193 C1194 1.414 . S
C1193 C1196 1.499 . S
C1194 H1174 0.950 . S
C1194 C1193 1.414 . S
C1194 C1195 1.374 . S
C1195 H1175 0.950 . S
C1195 C1191 1.385 . S
C1195 C1194 1.374 . S
C1196 C1193 1.499 . S
C1196 C1197 1.373 . S
C1196 C1198 1.389 . S
C1197 H1176 0.950 . S
C1197 C1196 1.373 . S
C1197 C1213 1.377 . S
C1198 C1196 1.389 . S
C1198 C1199 1.524 . S
C1198 C1212 1.377 . S
C1199 C1198 1.524 . S
C1199 C1200 1.397 . S
C1199 C1204 1.363 . S
C1200 H1177 0.950 . S
C1200 C1199 1.397 . S
C1200 C1201 1.334 . S
C1201 H1178 0.950 . S
C1201 C1200 1.334 . S
C1201 C1202 1.287 . S
C1202 C1201 1.287 . S
C1202 C1203 1.524 . S
C1202 H1221 0.913 . S
C1203 H1179 0.950 . S
C1203 C1202 1.524 . S
C1203 C1204 1.415 . S
C1204 H1180 0.950 . S
C1204 C1199 1.363 . S
C1204 C1203 1.415 . S
C1205 H1181 0.951 . S
C1205 C1206 1.366 . S
C1205 C1207 1.388 . S
C1206 C1205 1.366 . S
C1206 C1210 1.385 . S
C1207 H1182 0.951 . S
C1207 C1205 1.388 . S
C1207 C1208 1.366 . S
C1208 C1207 1.366 . S
C1208 C1209 1.414 . S
C1208 C1211 1.499 . S
C1209 H1183 0.950 . S
C1209 C1208 1.414 . S
C1209 C1210 1.374 . S
C1210 H1184 0.950 . S
C1210 C1206 1.385 . S
C1210 C1209 1.374 . S
C1211 C1208 1.499 . S
C1211 C1212 1.373 . S
C1211 C1213 1.389 . S
C1212 H1185 0.950 . S
C1212 C1198 1.377 . S
C1212 C1211 1.373 . S
C1213 C1197 1.377 . S
C1213 C1211 1.389 . S
C1213 C1214 1.524 . S
C1214 C1213 1.524 . S
C1214 C1215 1.397 . S
C1214 C1219 1.363 . S
C1215 H1186 0.950 . S
C1215 C1214 1.397 . S
C1215 C1216 1.334 . S
C1216 H1187 0.950 . S
C1216 C1215 1.334 . S
C1216 C1217 1.287 . S
C1217 C1216 1.287 . S
C1217 C1218 1.524 . S
C1217 H1220 0.999 . S
C1218 H1188 0.950 . S
C1218 C1217 1.524 . S
C1218 C1219 1.415 . S
C1219 H1189 0.950 . S
C1219 C1214 1.363 . S
C1219 C1218 1.415 . S
H1220 C1217 0.999 . S
H1221 C1202 0.913 . S
H1222 C1240 0.951 . S
H1223 C1242 0.951 . S
H1224 C1244 0.950 . S
H1225 C1245 0.950 . S
H1226 C1247 0.950 . S
H1227 C1250 0.950 . S
H1228 C1251 0.950 . S
H1229 C1253 0.950 . S
H1230 C1254 0.950 . S
H1231 C1255 0.951 . S
H1232 C1257 0.951 . S
H1233 C1259 0.950 . S
H1234 C1260 0.950 . S
H1235 C1262 0.950 . S
H1236 C1265 0.950 . S
H1237 C1266 0.950 . S
H1238 C1268 0.950 . S
H1239 C1269 0.950 . S
C1240 H1222 0.951 . S
C1240 C1241 1.366 . S
C1240 C1242 1.388 . S
C1241 C1240 1.366 . S
C1241 C1245 1.385 . S
C1242 H1223 0.951 . S
C1242 C1240 1.388 . S
C1242 C1243 1.366 . S
C1243 C1242 1.366 . S
C1243 C1244 1.414 . S
C1243 C1246 1.499 . S
C1244 H1224 0.950 . S
C1244 C1243 1.414 . S
C1244 C1245 1.374 . S
C1245 H1225 0.950 . S
C1245 C1241 1.385 . S
C1245 C1244 1.374 . S
C1246 C1243 1.499 . S
C1246 C1247 1.373 . S
C1246 C1248 1.389 . S
C1247 H1226 0.950 . S
C1247 C1246 1.373 . S
C1247 C1263 1.377 . S
C1248 C1246 1.389 . S
C1248 C1249 1.524 . S
C1248 C1262 1.377 . S
C1249 C1248 1.524 . S
C1249 C1250 1.397 . S
C1249 C1254 1.363 . S
C1250 H1227 0.950 . S
C1250 C1249 1.397 . S
C1250 C1251 1.334 . S
C1251 H1228 0.950 . S
C1251 C1250 1.334 . S
C1251 C1252 1.287 . S
C1252 C1251 1.287 . S
C1252 C1253 1.524 . S
C1252 H1271 0.913 . S
C1253 H1229 0.950 . S
C1253 C1252 1.524 . S
C1253 C1254 1.415 . S
C1254 H1230 0.950 . S
C1254 C1249 1.363 . S
C1254 C1253 1.415 . S
C1255 H1231 0.951 . S
C1255 C1256 1.366 . S
C1255 C1257 1.388 . S
C1256 C1255 1.366 . S
C1256 C1260 1.385 . S
C1257 H1232 0.951 . S
C1257 C1255 1.388 . S
C1257 C1258 1.366 . S
C1258 C1257 1.366 . S
C1258 C1259 1.414 . S
C1258 C1261 1.499 . S
C1259 H1233 0.950 . S
C1259 C1258 1.414 . S
C1259 C1260 1.374 . S
C1260 H1234 0.950 . S
C1260 C1256 1.385 . S
C1260 C1259 1.374 . S
C1261 C1258 1.499 . S
C1261 C1262 1.373 . S
C1261 C1263 1.389 . S
C1262 H1235 0.950 . S
C1262 C1248 1.377 . S
C1262 C1261 1.373 . S
C1263 C1247 1.377 . S
C1263 C1261 1.389 . S
C1263 C1264 1.524 . S
C1264 C1263 1.524 . S
C1264 C1265 1.397 . S
C1264 C1269 1.363 . S
C1265 H1236 0.950 . S
C1265 C1264 1.397 . S
C1265 C1266 1.334 . S
C1266 H1237 0.950 . S
C1266 C1265 1.334 . S
C1266 C1267 1.287 . S
C1267 C1266 1.287 . S
C1267 C1268 1.524 . S
C1267 H1270 0.999 . S
C1268 H1238 0.950 . S
C1268 C1267 1.524 . S
C1268 C1269 1.415 . S
C1269 H1239 0.950 . S
C1269 C1264 1.363 . S
C1269 C1268 1.415 . S
H1270 C1267 0.999 . S
H1271 C1252 0.913 . S
H1272 C1290 0.951 . S
H1273 C1292 0.951 . S
H1274 C1294 0.950 . S
H1275 C1295 0.950 . S
H1276 C1297 0.950 . S
H1277 C1300 0.950 . S
H1278 C1301 0.950 . S
H1279 C1303 0.950 . S
H1280 C1304 0.950 . S
H1281 C1305 0.951 . S
H1282 C1307 0.951 . S
H1283 C1309 0.950 . S
H1284 C1310 0.950 . S
H1285 C1312 0.950 . S
H1286 C1315 0.950 . S
H1287 C1316 0.950 . S
H1288 C1318 0.950 . S
H1289 C1319 0.950 . S
C1290 H1272 0.951 . S
C1290 C1291 1.366 . S
C1290 C1292 1.388 . S
C1291 C1290 1.366 . S
C1291 C1295 1.385 . S
C1292 H1273 0.951 . S
C1292 C1290 1.388 . S
C1292 C1293 1.366 . S
C1293 C1292 1.366 . S
C1293 C1294 1.414 . S
C1293 C1296 1.499 . S
C1294 H1274 0.950 . S
C1294 C1293 1.414 . S
C1294 C1295 1.374 . S
C1295 H1275 0.950 . S
C1295 C1291 1.385 . S
C1295 C1294 1.374 . S
C1296 C1293 1.499 . S
C1296 C1297 1.373 . S
C1296 C1298 1.389 . S
C1297 H1276 0.950 . S
C1297 C1296 1.373 . S
C1297 C1313 1.377 . S
C1298 C1296 1.389 . S
C1298 C1299 1.524 . S
C1298 C1312 1.377 . S
C1299 C1298 1.524 . S
C1299 C1300 1.397 . S
C1299 C1304 1.363 . S
C1300 H1277 0.950 . S
C1300 C1299 1.397 . S
C1300 C1301 1.334 . S
C1301 H1278 0.950 . S
C1301 C1300 1.334 . S
C1301 C1302 1.287 . S
C1302 C1301 1.287 . S
C1302 C1303 1.524 . S
C1302 H1321 0.913 . S
C1303 H1279 0.950 . S
C1303 C1302 1.524 . S
C1303 C1304 1.415 . S
C1304 H1280 0.950 . S
C1304 C1299 1.363 . S
C1304 C1303 1.415 . S
C1305 H1281 0.951 . S
C1305 C1306 1.366 . S
C1305 C1307 1.388 . S
C1306 C1305 1.366 . S
C1306 C1310 1.385 . S
C1307 H1282 0.951 . S
C1307 C1305 1.388 . S
C1307 C1308 1.366 . S
C1308 C1307 1.366 . S
C1308 C1309 1.414 . S
C1308 C1311 1.499 . S
C1309 H1283 0.950 . S
C1309 C1308 1.414 . S
C1309 C1310 1.374 . S
C1310 H1284 0.950 . S
C1310 C1306 1.385 . S
C1310 C1309 1.374 . S
C1311 C1308 1.499 . S
C1311 C1312 1.373 . S
C1311 C1313 1.389 . S
C1312 H1285 0.950 . S
C1312 C1298 1.377 . S
C1312 C1311 1.373 . S
C1313 C1297 1.377 . S
C1313 C1311 1.389 . S
C1313 C1314 1.524 . S
C1314 C1313 1.524 . S
C1314 C1315 1.397 . S
C1314 C1319 1.363 . S
C1315 H1286 0.950 . S
C1315 C1314 1.397 . S
C1315 C1316 1.334 . S
C1316 H1287 0.950 . S
C1316 C1315 1.334 . S
C1316 C1317 1.287 . S
C1317 C1316 1.287 . S
C1317 C1318 1.524 . S
C1317 H1320 0.999 . S
C1318 H1288 0.950 . S
C1318 C1317 1.524 . S
C1318 C1319 1.415 . S
C1319 H1289 0.950 . S
C1319 C1314 1.363 . S
C1319 C1318 1.415 . S
H1320 C1317 0.999 . S
H1321 C1302 0.913 . S
H1322 C1340 0.951 . S
H1323 C1342 0.951 . S
H1324 C1344 0.950 . S
H1325 C1345 0.950 . S
H1326 C1347 0.950 . S
H1327 C1350 0.950 . S
H1328 C1351 0.950 . S
H1329 C1353 0.950 . S
H1330 C1354 0.950 . S
H1331 C1355 0.951 . S
H1332 C1357 0.951 . S
H1333 C1359 0.950 . S
H1334 C1360 0.950 . S
H1335 C1362 0.950 . S
H1336 C1365 0.950 . S
H1337 C1366 0.950 . S
H1338 C1368 0.950 . S
H1339 C1369 0.950 . S
C1340 H1322 0.951 . S
C1340 C1341 1.366 . S
C1340 C1342 1.388 . S
C1341 C1340 1.366 . S
C1341 C1345 1.385 . S
C1342 H1323 0.951 . S
C1342 C1340 1.388 . S
C1342 C1343 1.366 . S
C1343 C1342 1.366 . S
C1343 C1344 1.414 . S
C1343 C1346 1.499 . S
C1344 H1324 0.950 . S
C1344 C1343 1.414 . S
C1344 C1345 1.374 . S
C1345 H1325 0.950 . S
C1345 C1341 1.385 . S
C1345 C1344 1.374 . S
C1346 C1343 1.499 . S
C1346 C1347 1.373 . S
C1346 C1348 1.389 . S
C1347 H1326 0.950 . S
C1347 C1346 1.373 . S
C1347 C1363 1.377 . S
C1348 C1346 1.389 . S
C1348 C1349 1.524 . S
C1348 C1362 1.377 . S
C1349 C1348 1.524 . S
C1349 C1350 1.397 . S
C1349 C1354 1.363 . S
C1350 H1327 0.950 . S
C1350 C1349 1.397 . S
C1350 C1351 1.334 . S
C1351 H1328 0.950 . S
C1351 C1350 1.334 . S
C1351 C1352 1.287 . S
C1352 C1351 1.287 . S
C1352 C1353 1.524 . S
C1352 H1371 0.913 . S
C1353 H1329 0.950 . S
C1353 C1352 1.524 . S
C1353 C1354 1.415 . S
C1354 H1330 0.950 . S
C1354 C1349 1.363 . S
C1354 C1353 1.415 . S
C1355 H1331 0.951 . S
C1355 C1356 1.366 . S
C1355 C1357 1.388 . S
C1356 C1355 1.366 . S
C1356 C1360 1.385 . S
C1357 H1332 0.951 . S
C1357 C1355 1.388 . S
C1357 C1358 1.366 . S
C1358 C1357 1.366 . S
C1358 C1359 1.414 . S
C1358 C1361 1.499 . S
C1359 H1333 0.950 . S
C1359 C1358 1.414 . S
C1359 C1360 1.374 . S
C1360 H1334 0.950 . S
C1360 C1356 1.385 . S
C1360 C1359 1.374 . S
C1361 C1358 1.499 . S
C1361 C1362 1.373 . S
C1361 C1363 1.389 . S
C1362 H1335 0.950 . S
C1362 C1348 1.377 . S
C1362 C1361 1.373 . S
C1363 C1347 1.377 . S
C1363 C1361 1.389 . S
C1363 C1364 1.524 . S
C1364 C1363 1.524 . S
C1364 C1365 1.397 . S
C1364 C1369 1.363 . S
C1365 H1336 0.950 . S
C1365 C1364 1.397 . S
C1365 C1366 1.334 . S
C1366 H1337 0.950 . S
C1366 C1365 1.334 . S
C1366 C1367 1.287 . S
C1367 C1366 1.287 . S
C1367 C1368 1.524 . S
C1367 H1370 0.999 . S
C1368 H1338 0.950 . S
C1368 C1367 1.524 . S
C1368 C1369 1.415 . S
C1369 H1339 0.950 . S
C1369 C1364 1.363 . S
C1369 C1368 1.415 . S
H1370 C1367 0.999 . S
H1371 C1352 0.913 . S
H1372 C1390 0.951 . S
H1373 C1392 0.951 . S
H1374 C1394 0.950 . S
H1375 C1395 0.950 . S
H1376 C1397 0.950 . S
H1377 C1400 0.950 . S
H1378 C1401 0.950 . S
H1379 C1403 0.950 . S
H1380 C1404 0.950 . S
H1381 C1405 0.951 . S
H1382 C1407 0.951 . S
H1383 C1409 0.950 . S
H1384 C1410 0.950 . S
H1385 C1412 0.950 . S
H1386 C1415 0.950 . S
H1387 C1416 0.950 . S
H1388 C1418 0.950 . S
H1389 C1419 0.950 . S
C1390 H1372 0.951 . S
C1390 C1391 1.366 . S
C1390 C1392 1.388 . S
C1391 C1390 1.366 . S
C1391 C1395 1.385 . S
C1392 H1373 0.951 . S
C1392 C1390 1.388 . S
C1392 C1393 1.366 . S
C1393 C1392 1.366 . S
C1393 C1394 1.414 . S
C1393 C1396 1.499 . S
C1394 H1374 0.950 . S
C1394 C1393 1.414 . S
C1394 C1395 1.374 . S
C1395 H1375 0.950 . S
C1395 C1391 1.385 . S
C1395 C1394 1.374 . S
C1396 C1393 1.499 . S
C1396 C1397 1.373 . S
C1396 C1398 1.389 . S
C1397 H1376 0.950 . S
C1397 C1396 1.373 . S
C1397 C1413 1.377 . S
C1398 C1396 1.389 . S
C1398 C1399 1.524 . S
C1398 C1412 1.377 . S
C1399 C1398 1.524 . S
C1399 C1400 1.397 . S
C1399 C1404 1.363 . S
C1400 H1377 0.950 . S
C1400 C1399 1.397 . S
C1400 C1401 1.334 . S
C1401 H1378 0.950 . S
C1401 C1400 1.334 . S
C1401 C1402 1.287 . S
C1402 C1401 1.287 . S
C1402 C1403 1.524 . S
C1402 H1421 0.913 . S
C1403 H1379 0.950 . S
C1403 C1402 1.524 . S
C1403 C1404 1.415 . S
C1404 H1380 0.950 . S
C1404 C1399 1.363 . S
C1404 C1403 1.415 . S
C1405 H1381 0.951 . S
C1405 C1406 1.366 . S
C1405 C1407 1.388 . S
C1406 C1405 1.366 . S
C1406 C1410 1.385 . S
C1407 H1382 0.951 . S
C1407 C1405 1.388 . S
C1407 C1408 1.366 . S
C1408 C1407 1.366 . S
C1408 C1409 1.414 . S
C1408 C1411 1.499 . S
C1409 H1383 0.950 . S
C1409 C1408 1.414 . S
C1409 C1410 1.374 . S
C1410 H1384 0.950 . S
C1410 C1406 1.385 . S
C1410 C1409 1.374 . S
C1411 C1408 1.499 . S
C1411 C1412 1.373 . S
C1411 C1413 1.389 . S
C1412 H1385 0.950 . S
C1412 C1398 1.377 . S
C1412 C1411 1.373 . S
C1413 C1397 1.377 . S
C1413 C1411 1.389 . S
C1413 C1414 1.524 . S
C1414 C1413 1.524 . S
C1414 C1415 1.397 . S
C1414 C1419 1.363 . S
C1415 H1386 0.950 . S
C1415 C1414 1.397 . S
C1415 C1416 1.334 . S
C1416 H1387 0.950 . S
C1416 C1415 1.334 . S
C1416 C1417 1.287 . S
C1417 C1416 1.287 . S
C1417 C1418 1.524 . S
C1417 H1420 0.999 . S
C1418 H1388 0.950 . S
C1418 C1417 1.524 . S
C1418 C1419 1.415 . S
C1419 H1389 0.950 . S
C1419 C1414 1.363 . S
C1419 C1418 1.415 . S
H1420 C1417 0.999 . S
H1421 C1402 0.913 . S
H1422 C1440 0.951 . S
H1423 C1442 0.951 . S
H1424 C1444 0.950 . S
H1425 C1445 0.950 . S
H1426 C1447 0.950 . S
H1427 C1450 0.950 . S
H1428 C1451 0.950 . S
H1429 C1453 0.950 . S
H1430 C1454 0.950 . S
H1431 C1455 0.951 . S
H1432 C1457 0.951 . S
H1433 C1459 0.950 . S
H1434 C1460 0.950 . S
H1435 C1462 0.950 . S
H1436 C1465 0.950 . S
H1437 C1466 0.950 . S
H1438 C1468 0.950 . S
H1439 C1469 0.950 . S
C1440 H1422 0.951 . S
C1440 C1441 1.366 . S
C1440 C1442 1.388 . S
C1441 C1440 1.366 . S
C1441 C1445 1.385 . S
C1442 H1423 0.951 . S
C1442 C1440 1.388 . S
C1442 C1443 1.366 . S
C1443 C1442 1.366 . S
C1443 C1444 1.414 . S
C1443 C1446 1.499 . S
C1444 H1424 0.950 . S
C1444 C1443 1.414 . S
C1444 C1445 1.374 . S
C1445 H1425 0.950 . S
C1445 C1441 1.385 . S
C1445 C1444 1.374 . S
C1446 C1443 1.499 . S
C1446 C1447 1.373 . S
C1446 C1448 1.389 . S
C1447 H1426 0.950 . S
C1447 C1446 1.373 . S
C1447 C1463 1.377 . S
C1448 C1446 1.389 . S
C1448 C1449 1.524 . S
C1448 C1462 1.377 . S
C1449 C1448 1.524 . S
C1449 C1450 1.397 . S
C1449 C1454 1.363 . S
C1450 H1427 0.950 . S
C1450 C1449 1.397 . S
C1450 C1451 1.334 . S
C1451 H1428 0.950 . S
C1451 C1450 1.334 . S
C1451 C1452 1.287 . S
C1452 C1451 1.287 . S
C1452 C1453 1.524 . S
C1452 H1471 0.913 . S
C1453 H1429 0.950 . S
C1453 C1452 1.524 . S
C1453 C1454 1.415 . S
C1454 H1430 0.950 . S
C1454 C1449 1.363 . S
C1454 C1453 1.415 . S
C1455 H1431 0.951 . S
C1455 C1456 1.366 . S
C1455 C1457 1.388 . S
C1456 C1455 1.366 . S
C1456 C1460 1.385 . S
C1457 H1432 0.951 . S
C1457 C1455 1.388 . S
C1457 C1458 1.366 . S
C1458 C1457 1.366 . S
C1458 C1459 1.414 . S
C1458 C1461 1.499 . S
C1459 H1433 0.950 . S
C1459 C1458 1.414 . S
C1459 C1460 1.374 . S
C1460 H1434 0.950 . S
C1460 C1456 1.385 . S
C1460 C1459 1.374 . S
C1461 C1458 1.499 . S
C1461 C1462 1.373 . S
C1461 C1463 1.389 . S
C1462 H1435 0.950 . S
C1462 C1448 1.377 . S
C1462 C1461 1.373 . S
C1463 C1447 1.377 . S
C1463 C1461 1.389 . S
C1463 C1464 1.524 . S
C1464 C1463 1.524 . S
C1464 C1465 1.397 . S
C1464 C1469 1.363 . S
C1465 H1436 0.950 . S
C1465 C1464 1.397 . S
C1465 C1466 1.334 . S
C1466 H1437 0.950 . S
C1466 C1465 1.334 . S
C1466 C1467 1.268 1_655 S
C1467 C1466 1.268 1_455 S
C1467 C1468 1.528 . S
C1467 H1470 1.018 . S
C1468 H1438 0.950 . S
C1468 C1467 1.528 . S
C1468 C1469 1.415 1_455 S
C1469 H1439 0.950 . S
C1469 C1464 1.363 . S
C1469 C1468 1.415 1_655 S
H1470 C1467 1.018 . S
H1471 C1452 0.913 . S
H1472 C1490 0.951 . S
H1473 C1492 0.951 . S
H1474 C1494 0.950 . S
H1475 C1495 0.950 . S
H1476 C1497 0.950 . S
H1477 C1500 0.950 . S
H1478 C1501 0.950 . S
H1479 C1503 0.922 1_556 S
H1480 C1504 0.950 . S
H1481 C1505 0.951 . S
H1482 C1507 0.951 . S
H1483 C1509 0.950 . S
H1484 C1510 0.950 . S
H1485 C1512 0.950 . S
H1486 C1515 0.950 . S
H1487 C1516 0.950 . S
H1488 C1518 0.950 . S
H1489 C1519 0.950 . S
C1490 H1472 0.951 . S
C1490 C1491 1.366 . S
C1490 C1492 1.388 . S
C1491 C1490 1.366 . S
C1491 C1495 1.385 . S
C1492 H1473 0.951 . S
C1492 C1490 1.388 . S
C1492 C1493 1.366 . S
C1493 C1492 1.366 . S
C1493 C1494 1.414 . S
C1493 C1496 1.499 . S
C1494 H1474 0.950 . S
C1494 C1493 1.414 . S
C1494 C1495 1.374 . S
C1495 H1475 0.950 . S
C1495 C1491 1.385 . S
C1495 C1494 1.374 . S
C1496 C1493 1.499 . S
C1496 C1497 1.373 . S
C1496 C1498 1.389 . S
C1497 H1476 0.950 . S
C1497 C1496 1.373 . S
C1497 C1513 1.377 . S
C1498 C1496 1.389 . S
C1498 C1499 1.524 . S
C1498 C1512 1.377 . S
C1499 C1498 1.524 . S
C1499 C1500 1.397 . S
C1499 C1504 1.363 . S
C1500 H1477 0.950 . S
C1500 C1499 1.397 . S
C1500 C1501 1.334 . S
C1501 H1478 0.950 . S
C1501 C1500 1.334 . S
C1501 C1502 1.287 . S
C1502 C1501 1.287 . S
C1502 C1503 1.524 . S
C1502 H1521 0.918 1_554 S
C1503 H1479 0.922 1_554 S
C1503 C1502 1.524 . S
C1503 C1504 1.415 . S
C1504 H1480 0.950 . S
C1504 C1499 1.363 . S
C1504 C1503 1.415 . S
C1505 H1481 0.951 . S
C1505 C1506 1.366 . S
C1505 C1507 1.388 . S
C1506 C1505 1.366 . S
C1506 C1510 1.385 . S
C1507 H1482 0.951 . S
C1507 C1505 1.388 . S
C1507 C1508 1.366 . S
C1508 C1507 1.366 . S
C1508 C1509 1.414 . S
C1508 C1511 1.499 . S
C1509 H1483 0.950 . S
C1509 C1508 1.414 . S
C1509 C1510 1.374 . S
C1510 H1484 0.950 . S
C1510 C1506 1.385 . S
C1510 C1509 1.374 . S
C1511 C1508 1.499 . S
C1511 C1512 1.373 . S
C1511 C1513 1.389 . S
C1512 H1485 0.950 . S
C1512 C1498 1.377 . S
C1512 C1511 1.373 . S
C1513 C1497 1.377 . S
C1513 C1511 1.389 . S
C1513 C1514 1.524 . S
C1514 C1513 1.524 . S
C1514 C1515 1.397 . S
C1514 C1519 1.363 . S
C1515 H1486 0.950 . S
C1515 C1514 1.397 . S
C1515 C1516 1.334 . S
C1516 H1487 0.950 . S
C1516 C1515 1.334 . S
C1516 C1517 1.287 . S
C1517 C1516 1.287 . S
C1517 C1518 1.524 . S
C1517 H1520 0.999 . S
C1518 H1488 0.950 . S
C1518 C1517 1.524 . S
C1518 C1519 1.415 . S
C1519 H1489 0.950 . S
C1519 C1514 1.363 . S
C1519 C1518 1.415 . S
H1520 C1517 0.999 . S
H1521 C1502 0.918 1_556 S
H1522 C1540 0.951 . S
H1523 C1542 0.951 . S
H1524 C1544 0.950 . S
H1525 C1545 0.950 . S
H1526 C1547 0.950 . S
H1527 C1550 0.950 . S
H1528 C1551 0.950 . S
H1529 C1553 0.950 . S
H1530 C1554 0.950 . S
H1531 C1555 0.951 . S
H1532 C1557 0.951 . S
H1533 C1559 0.950 . S
H1534 C1560 0.950 . S
H1535 C1562 0.950 . S
H1536 C1565 0.950 . S
H1537 C1566 0.950 . S
H1538 C1568 0.950 . S
H1539 C1569 0.950 . S
C1540 H1522 0.951 . S
C1540 C1541 1.366 . S
C1540 C1542 1.388 . S
C1541 C1540 1.366 . S
C1541 C1545 1.385 . S
C1542 H1523 0.951 . S
C1542 C1540 1.388 . S
C1542 C1543 1.366 . S
C1543 C1542 1.366 . S
C1543 C1544 1.414 . S
C1543 C1546 1.499 . S
C1544 H1524 0.950 . S
C1544 C1543 1.414 . S
C1544 C1545 1.374 . S
C1545 H1525 0.950 . S
C1545 C1541 1.385 . S
C1545 C1544 1.374 . S
C1546 C1543 1.499 . S
C1546 C1547 1.373 . S
C1546 C1548 1.389 . S
C1547 H1526 0.950 . S
C1547 C1546 1.373 . S
C1547 C1563 1.377 . S
C1548 C1546 1.389 . S
C1548 C1549 1.524 . S
C1548 C1562 1.377 . S
C1549 C1548 1.524 . S
C1549 C1550 1.397 . S
C1549 C1554 1.363 . S
C1550 H1527 0.950 . S
C1550 C1549 1.397 . S
C1550 C1551 1.334 . S
C1551 H1528 0.950 . S
C1551 C1550 1.334 . S
C1551 C1552 1.287 . S
C1552 C1551 1.287 . S
C1552 C1553 1.524 . S
C1552 H1571 0.913 . S
C1553 H1529 0.950 . S
C1553 C1552 1.524 . S
C1553 C1554 1.415 . S
C1554 H1530 0.950 . S
C1554 C1549 1.363 . S
C1554 C1553 1.415 . S
C1555 H1531 0.951 . S
C1555 C1556 1.366 . S
C1555 C1557 1.388 . S
C1556 C1555 1.366 . S
C1556 C1560 1.385 . S
C1557 H1532 0.951 . S
C1557 C1555 1.388 . S
C1557 C1558 1.366 . S
C1558 C1557 1.366 . S
C1558 C1559 1.414 . S
C1558 C1561 1.499 . S
C1559 H1533 0.950 . S
C1559 C1558 1.414 . S
C1559 C1560 1.374 . S
C1560 H1534 0.950 . S
C1560 C1556 1.385 . S
C1560 C1559 1.374 . S
C1561 C1558 1.499 . S
C1561 C1562 1.373 . S
C1561 C1563 1.389 . S
C1562 H1535 0.950 . S
C1562 C1548 1.377 . S
C1562 C1561 1.373 . S
C1563 C1547 1.377 . S
C1563 C1561 1.389 . S
C1563 C1564 1.524 . S
C1564 C1563 1.524 . S
C1564 C1565 1.397 . S
C1564 C1569 1.363 . S
C1565 H1536 0.950 . S
C1565 C1564 1.397 . S
C1565 C1566 1.334 . S
C1566 H1537 0.950 . S
C1566 C1565 1.334 . S
C1566 C1567 1.287 . S
C1567 C1566 1.287 . S
C1567 C1568 1.524 . S
C1567 H1570 0.999 . S
C1568 H1538 0.950 . S
C1568 C1567 1.524 . S
C1568 C1569 1.415 . S
C1569 H1539 0.950 . S
C1569 C1564 1.363 . S
C1569 C1568 1.415 . S
H1570 C1567 0.999 . S
H1571 C1552 0.913 . S
H1572 C1590 0.951 . S
H1573 C1592 0.951 . S
H1574 C1594 0.950 . S
H1575 C1595 0.950 . S
H1576 C1597 0.950 . S
H1577 C1600 0.950 . S
H1578 C1601 0.950 . S
H1579 C1603 0.950 . S
H1580 C1604 0.950 . S
H1581 C1605 0.951 . S
H1582 C1607 0.951 . S
H1583 C1609 0.950 . S
H1584 C1610 0.950 . S
H1585 C1612 0.950 . S
H1586 C1615 0.950 . S
H1587 C1616 0.950 . S
H1588 C1618 0.950 . S
H1589 C1619 0.950 . S
C1590 H1572 0.951 . S
C1590 C1591 1.366 . S
C1590 C1592 1.388 . S
C1591 C1590 1.366 . S
C1591 C1595 1.385 . S
C1592 H1573 0.951 . S
C1592 C1590 1.388 . S
C1592 C1593 1.366 . S
C1593 C1592 1.366 . S
C1593 C1594 1.414 . S
C1593 C1596 1.499 . S
C1594 H1574 0.950 . S
C1594 C1593 1.414 . S
C1594 C1595 1.374 . S
C1595 H1575 0.950 . S
C1595 C1591 1.385 . S
C1595 C1594 1.374 . S
C1596 C1593 1.499 . S
C1596 C1597 1.373 . S
C1596 C1598 1.389 . S
C1597 H1576 0.950 . S
C1597 C1596 1.373 . S
C1597 C1613 1.377 . S
C1598 C1596 1.389 . S
C1598 C1599 1.524 . S
C1598 C1612 1.377 . S
C1599 C1598 1.524 . S
C1599 C1600 1.397 . S
C1599 C1604 1.363 . S
C1600 H1577 0.950 . S
C1600 C1599 1.397 . S
C1600 C1601 1.334 . S
C1601 H1578 0.950 . S
C1601 C1600 1.334 . S
C1601 C1602 1.287 . S
C1602 C1601 1.287 . S
C1602 C1603 1.524 . S
C1602 H1621 0.913 . S
C1603 H1579 0.950 . S
C1603 C1602 1.524 . S
C1603 C1604 1.415 . S
C1604 H1580 0.950 . S
C1604 C1599 1.363 . S
C1604 C1603 1.415 . S
C1605 H1581 0.951 . S
C1605 C1606 1.366 . S
C1605 C1607 1.388 . S
C1606 C1605 1.366 . S
C1606 C1610 1.385 . S
C1607 H1582 0.951 . S
C1607 C1605 1.388 . S
C1607 C1608 1.366 . S
C1608 C1607 1.366 . S
C1608 C1609 1.414 . S
C1608 C1611 1.499 . S
C1609 H1583 0.950 . S
C1609 C1608 1.414 . S
C1609 C1610 1.374 . S
C1610 H1584 0.950 . S
C1610 C1606 1.385 . S
C1610 C1609 1.374 . S
C1611 C1608 1.499 . S
C1611 C1612 1.373 . S
C1611 C1613 1.389 . S
C1612 H1585 0.950 . S
C1612 C1598 1.377 . S
C1612 C1611 1.373 . S
C1613 C1597 1.377 . S
C1613 C1611 1.389 . S
C1613 C1614 1.524 . S
C1614 C1613 1.524 . S
C1614 C1615 1.397 . S
C1614 C1619 1.363 . S
C1615 H1586 0.950 . S
C1615 C1614 1.397 . S
C1615 C1616 1.334 . S
C1616 H1587 0.950 . S
C1616 C1615 1.334 . S
C1616 C1617 1.287 . S
C1617 C1616 1.287 . S
C1617 C1618 1.524 . S
C1617 H1620 0.999 . S
C1618 H1588 0.950 . S
C1618 C1617 1.524 . S
C1618 C1619 1.415 . S
C1619 H1589 0.950 . S
C1619 C1614 1.363 . S
C1619 C1618 1.415 . S
H1620 C1617 0.999 . S
H1621 C1602 0.913 . S
H1622 C1640 0.951 . S
H1623 C1642 0.951 . S
H1624 C1644 0.950 . S
H1625 C1645 0.950 . S
H1626 C1647 0.950 . S
H1627 C1650 0.950 . S
H1628 C1651 0.950 . S
H1629 C1653 0.950 . S
H1630 C1654 0.950 . S
H1631 C1655 0.951 . S
H1632 C1657 0.951 . S
H1633 C1659 0.950 . S
H1634 C1660 0.950 . S
H1635 C1662 0.950 . S
H1636 C1665 0.950 . S
H1637 C1666 0.950 . S
H1638 C1668 0.950 . S
H1639 C1669 0.950 . S
C1640 H1622 0.951 . S
C1640 C1641 1.366 . S
C1640 C1642 1.388 . S
C1641 C1640 1.366 . S
C1641 C1645 1.385 . S
C1642 H1623 0.951 . S
C1642 C1640 1.388 . S
C1642 C1643 1.366 . S
C1643 C1642 1.366 . S
C1643 C1644 1.414 . S
C1643 C1646 1.499 . S
C1644 H1624 0.950 . S
C1644 C1643 1.414 . S
C1644 C1645 1.374 . S
C1645 H1625 0.950 . S
C1645 C1641 1.385 . S
C1645 C1644 1.374 . S
C1646 C1643 1.499 . S
C1646 C1647 1.373 . S
C1646 C1648 1.389 . S
C1647 H1626 0.950 . S
C1647 C1646 1.373 . S
C1647 C1663 1.377 . S
C1648 C1646 1.389 . S
C1648 C1649 1.524 . S
C1648 C1662 1.377 . S
C1649 C1648 1.524 . S
C1649 C1650 1.397 . S
C1649 C1654 1.363 . S
C1650 H1627 0.950 . S
C1650 C1649 1.397 . S
C1650 C1651 1.334 . S
C1651 H1628 0.950 . S
C1651 C1650 1.334 . S
C1651 C1652 1.287 . S
C1652 C1651 1.287 . S
C1652 C1653 1.524 . S
C1652 H1671 0.913 . S
C1653 H1629 0.950 . S
C1653 C1652 1.524 . S
C1653 C1654 1.415 . S
C1654 H1630 0.950 . S
C1654 C1649 1.363 . S
C1654 C1653 1.415 . S
C1655 H1631 0.951 . S
C1655 C1656 1.366 . S
C1655 C1657 1.388 . S
C1656 C1655 1.366 . S
C1656 C1660 1.385 . S
C1657 H1632 0.951 . S
C1657 C1655 1.388 . S
C1657 C1658 1.366 . S
C1658 C1657 1.366 . S
C1658 C1659 1.414 . S
C1658 C1661 1.499 . S
C1659 H1633 0.950 . S
C1659 C1658 1.414 . S
C1659 C1660 1.374 . S
C1660 H1634 0.950 . S
C1660 C1656 1.385 . S
C1660 C1659 1.374 . S
C1661 C1658 1.499 . S
C1661 C1662 1.373 . S
C1661 C1663 1.389 . S
C1662 H1635 0.950 . S
C1662 C1648 1.377 . S
C1662 C1661 1.373 . S
C1663 C1647 1.377 . S
C1663 C1661 1.389 . S
C1663 C1664 1.524 . S
C1664 C1663 1.524 . S
C1664 C1665 1.397 . S
C1664 C1669 1.363 . S
C1665 H1636 0.950 . S
C1665 C1664 1.397 . S
C1665 C1666 1.334 . S
C1666 H1637 0.950 . S
C1666 C1665 1.334 . S
C1666 C1667 1.287 . S
C1667 C1666 1.287 . S
C1667 C1668 1.524 . S
C1667 H1670 0.999 . S
C1668 H1638 0.950 . S
C1668 C1667 1.524 . S
C1668 C1669 1.415 . S
C1669 H1639 0.950 . S
C1669 C1664 1.363 . S
C1669 C1668 1.415 . S
H1670 C1667 0.999 . S
H1671 C1652 0.913 . S
H1672 C1690 0.951 . S
H1673 C1692 0.951 . S
H1674 C1694 0.950 . S
H1675 C1695 0.950 . S
H1676 C1697 0.950 . S
H1677 C1700 0.950 . S
H1678 C1701 0.950 . S
H1679 C1703 0.950 . S
H1680 C1704 0.950 . S
H1681 C1705 0.951 . S
H1682 C1707 0.951 . S
H1683 C1709 0.950 . S
H1684 C1710 0.950 . S
H1685 C1712 0.950 . S
H1686 C1715 0.950 . S
H1687 C1716 0.950 . S
H1688 C1718 0.950 . S
H1689 C1719 0.950 . S
C1690 H1672 0.951 . S
C1690 C1691 1.366 . S
C1690 C1692 1.388 . S
C1691 C1690 1.366 . S
C1691 C1695 1.385 . S
C1692 H1673 0.951 . S
C1692 C1690 1.388 . S
C1692 C1693 1.366 . S
C1693 C1692 1.366 . S
C1693 C1694 1.414 . S
C1693 C1696 1.499 . S
C1694 H1674 0.950 . S
C1694 C1693 1.414 . S
C1694 C1695 1.374 . S
C1695 H1675 0.950 . S
C1695 C1691 1.385 . S
C1695 C1694 1.374 . S
C1696 C1693 1.499 . S
C1696 C1697 1.373 . S
C1696 C1698 1.389 . S
C1697 H1676 0.950 . S
C1697 C1696 1.373 . S
C1697 C1713 1.377 . S
C1698 C1696 1.389 . S
C1698 C1699 1.524 . S
C1698 C1712 1.377 . S
C1699 C1698 1.524 . S
C1699 C1700 1.397 . S
C1699 C1704 1.363 . S
C1700 H1677 0.950 . S
C1700 C1699 1.397 . S
C1700 C1701 1.334 . S
C1701 H1678 0.950 . S
C1701 C1700 1.334 . S
C1701 C1702 1.287 . S
C1702 C1701 1.287 . S
C1702 C1703 1.524 . S
C1702 H1721 0.913 . S
C1703 H1679 0.950 . S
C1703 C1702 1.524 . S
C1703 C1704 1.415 . S
C1704 H1680 0.950 . S
C1704 C1699 1.363 . S
C1704 C1703 1.415 . S
C1705 H1681 0.951 . S
C1705 C1706 1.366 . S
C1705 C1707 1.388 . S
C1706 C1705 1.366 . S
C1706 C1710 1.385 . S
C1707 H1682 0.951 . S
C1707 C1705 1.388 . S
C1707 C1708 1.366 . S
C1708 C1707 1.366 . S
C1708 C1709 1.414 . S
C1708 C1711 1.499 . S
C1709 H1683 0.950 . S
C1709 C1708 1.414 . S
C1709 C1710 1.374 . S
C1710 H1684 0.950 . S
C1710 C1706 1.385 . S
C1710 C1709 1.374 . S
C1711 C1708 1.499 . S
C1711 C1712 1.373 . S
C1711 C1713 1.389 . S
C1712 H1685 0.950 . S
C1712 C1698 1.377 . S
C1712 C1711 1.373 . S
C1713 C1697 1.377 . S
C1713 C1711 1.389 . S
C1713 C1714 1.524 . S
C1714 C1713 1.524 . S
C1714 C1715 1.397 . S
C1714 C1719 1.363 . S
C1715 H1686 0.950 . S
C1715 C1714 1.397 . S
C1715 C1716 1.334 . S
C1716 H1687 0.950 . S
C1716 C1715 1.334 . S
C1716 C1717 1.287 . S
C1717 C1716 1.287 . S
C1717 C1718 1.524 . S
C1717 H1720 0.999 . S
C1718 H1688 0.950 . S
C1718 C1717 1.524 . S
C1718 C1719 1.415 . S
C1719 H1689 0.950 . S
C1719 C1714 1.363 . S
C1719 C1718 1.415 . S
H1720 C1717 0.999 . S
H1721 C1702 0.913 . S
H1722 C1740 0.951 . S
H1723 C1742 0.951 . S
H1724 C1744 0.950 . S
H1725 C1745 0.950 . S
H1726 C1747 0.950 . S
H1727 C1750 0.950 . S
H1728 C1751 0.950 . S
H1729 C1753 0.950 . S
H1730 C1754 0.950 . S
H1731 C1755 0.951 . S
H1732 C1757 0.951 . S
H1733 C1759 0.950 . S
H1734 C1760 0.950 . S
H1735 C1762 0.950 . S
H1736 C1765 0.950 . S
H1737 C1766 0.950 . S
H1738 C1768 0.950 . S
H1739 C1769 0.950 . S
C1740 H1722 0.951 . S
C1740 C1741 1.366 . S
C1740 C1742 1.388 . S
C1741 C1740 1.366 . S
C1741 C1745 1.385 . S
C1742 H1723 0.951 . S
C1742 C1740 1.388 . S
C1742 C1743 1.366 . S
C1743 C1742 1.366 . S
C1743 C1744 1.414 . S
C1743 C1746 1.499 . S
C1744 H1724 0.950 . S
C1744 C1743 1.414 . S
C1744 C1745 1.374 . S
C1745 H1725 0.950 . S
C1745 C1741 1.385 . S
C1745 C1744 1.374 . S
C1746 C1743 1.499 . S
C1746 C1747 1.373 . S
C1746 C1748 1.389 . S
C1747 H1726 0.950 . S
C1747 C1746 1.373 . S
C1747 C1763 1.377 . S
C1748 C1746 1.389 . S
C1748 C1749 1.524 . S
C1748 C1762 1.377 . S
C1749 C1748 1.524 . S
C1749 C1750 1.397 . S
C1749 C1754 1.363 . S
C1750 H1727 0.950 . S
C1750 C1749 1.397 . S
C1750 C1751 1.334 . S
C1751 H1728 0.950 . S
C1751 C1750 1.334 . S
C1751 C1752 1.287 . S
C1752 C1751 1.287 . S
C1752 C1753 1.524 . S
C1752 H1771 0.913 . S
C1753 H1729 0.950 . S
C1753 C1752 1.524 . S
C1753 C1754 1.415 . S
C1754 H1730 0.950 . S
C1754 C1749 1.363 . S
C1754 C1753 1.415 . S
C1755 H1731 0.951 . S
C1755 C1756 1.366 . S
C1755 C1757 1.388 . S
C1756 C1755 1.366 . S
C1756 C1760 1.385 . S
C1757 H1732 0.951 . S
C1757 C1755 1.388 . S
C1757 C1758 1.366 . S
C1758 C1757 1.366 . S
C1758 C1759 1.414 . S
C1758 C1761 1.499 . S
C1759 H1733 0.950 . S
C1759 C1758 1.414 . S
C1759 C1760 1.374 . S
C1760 H1734 0.950 . S
C1760 C1756 1.385 . S
C1760 C1759 1.374 . S
C1761 C1758 1.499 . S
C1761 C1762 1.373 . S
C1761 C1763 1.389 . S
C1762 H1735 0.950 . S
C1762 C1748 1.377 . S
C1762 C1761 1.373 . S
C1763 C1747 1.377 . S
C1763 C1761 1.389 . S
C1763 C1764 1.524 . S
C1764 C1763 1.524 . S
C1764 C1765 1.397 . S
C1764 C1769 1.363 . S
C1765 H1736 0.950 . S
C1765 C1764 1.397 . S
C1765 C1766 1.334 . S
C1766 H1737 0.950 . S
C1766 C1765 1.334 . S
C1766 C1767 1.287 . S
C1767 C1766 1.287 . S
C1767 C1768 1.524 . S
C1767 H1770 0.999 . S
C1768 H1738 0.950 . S
C1768 C1767 1.524 . S
C1768 C1769 1.415 . S
C1769 H1739 0.950 . S
C1769 C1764 1.363 . S
C1769 C1768 1.415 . S
H1770 C1767 0.999 . S
H1771 C1752 0.913 . S
H1772 C1790 0.951 . S
H1773 C1792 0.951 . S
H1774 C1794 0.950 . S
H1775 C1795 0.950 . S
H1776 C1797 0.950 . S
H1777 C1800 0.950 . S
H1778 C1801 0.950 . S
H1779 C1803 0.950 . S
H1780 C1804 0.950 . S
H1781 C1805 0.951 . S
H1782 C1807 0.951 . S
H1783 C1809 0.950 . S
H1784 C1810 0.950 . S
H1785 C1812 0.950 . S
H1786 C1815 0.950 . S
H1787 C1816 0.950 . S
H1788 C1818 0.950 . S
H1789 C1819 0.950 . S
C1790 H1772 0.951 . S
C1790 C1791 1.366 . S
C1790 C1792 1.388 . S
C1791 C1790 1.366 . S
C1791 C1795 1.385 . S
C1792 H1773 0.951 . S
C1792 C1790 1.388 . S
C1792 C1793 1.366 . S
C1793 C1792 1.366 . S
C1793 C1794 1.414 . S
C1793 C1796 1.499 . S
C1794 H1774 0.950 . S
C1794 C1793 1.414 . S
C1794 C1795 1.374 . S
C1795 H1775 0.950 . S
C1795 C1791 1.385 . S
C1795 C1794 1.374 . S
C1796 C1793 1.499 . S
C1796 C1797 1.373 . S
C1796 C1798 1.389 . S
C1797 H1776 0.950 . S
C1797 C1796 1.373 . S
C1797 C1813 1.377 . S
C1798 C1796 1.389 . S
C1798 C1799 1.524 . S
C1798 C1812 1.377 . S
C1799 C1798 1.524 . S
C1799 C1800 1.397 . S
C1799 C1804 1.363 . S
C1800 H1777 0.950 . S
C1800 C1799 1.397 . S
C1800 C1801 1.334 . S
C1801 H1778 0.950 . S
C1801 C1800 1.334 . S
C1801 C1802 1.287 . S
C1802 C1801 1.287 . S
C1802 C1803 1.524 . S
C1802 H1821 0.913 . S
C1803 H1779 0.950 . S
C1803 C1802 1.524 . S
C1803 C1804 1.415 . S
C1804 H1780 0.950 . S
C1804 C1799 1.363 . S
C1804 C1803 1.415 . S
C1805 H1781 0.951 . S
C1805 C1806 1.366 . S
C1805 C1807 1.388 . S
C1806 C1805 1.366 . S
C1806 C1810 1.385 . S
C1807 H1782 0.951 . S
C1807 C1805 1.388 . S
C1807 C1808 1.366 . S
C1808 C1807 1.366 . S
C1808 C1809 1.414 . S
C1808 C1811 1.499 . S
C1809 H1783 0.950 . S
C1809 C1808 1.414 . S
C1809 C1810 1.374 . S
C1810 H1784 0.950 . S
C1810 C1806 1.385 . S
C1810 C1809 1.374 . S
C1811 C1808 1.499 . S
C1811 C1812 1.373 . S
C1811 C1813 1.389 . S
C1812 H1785 0.950 . S
C1812 C1798 1.377 . S
C1812 C1811 1.373 . S
C1813 C1797 1.377 . S
C1813 C1811 1.389 . S
C1813 C1814 1.524 . S
C1814 C1813 1.524 . S
C1814 C1815 1.397 . S
C1814 C1819 1.363 . S
C1815 H1786 0.950 . S
C1815 C1814 1.397 . S
C1815 C1816 1.334 . S
C1816 H1787 0.950 . S
C1816 C1815 1.334 . S
C1816 C1817 1.287 . S
C1817 C1816 1.287 . S
C1817 C1818 1.524 . S
C1817 H1820 0.999 . S
C1818 H1788 0.950 . S
C1818 C1817 1.524 . S
C1818 C1819 1.415 . S
C1819 H1789 0.950 . S
C1819 C1814 1.363 . S
C1819 C1818 1.415 . S
H1820 C1817 0.999 . S
H1821 C1802 0.913 . S
H1822 C1840 0.951 . S
H1823 C1842 0.951 . S
H1824 C1844 0.950 . S
H1825 C1845 0.950 . S
H1826 C1847 0.950 . S
H1827 C1850 0.950 . S
H1828 C1851 0.950 . S
H1829 C1853 0.950 . S
H1830 C1854 0.950 . S
H1831 C1855 0.951 . S
H1832 C1857 0.951 . S
H1833 C1859 0.950 . S
H1834 C1860 0.950 . S
H1835 C1862 0.950 . S
H1836 C1865 0.950 . S
H1837 C1866 0.950 . S
H1838 C1868 0.950 . S
H1839 C1869 0.950 . S
C1840 H1822 0.951 . S
C1840 C1841 1.366 . S
C1840 C1842 1.388 . S
C1841 C1840 1.366 . S
C1841 C1845 1.385 . S
C1842 H1823 0.951 . S
C1842 C1840 1.388 . S
C1842 C1843 1.366 . S
C1843 C1842 1.366 . S
C1843 C1844 1.414 . S
C1843 C1846 1.499 . S
C1844 H1824 0.950 . S
C1844 C1843 1.414 . S
C1844 C1845 1.374 . S
C1845 H1825 0.950 . S
C1845 C1841 1.385 . S
C1845 C1844 1.374 . S
C1846 C1843 1.499 . S
C1846 C1847 1.373 . S
C1846 C1848 1.389 . S
C1847 H1826 0.950 . S
C1847 C1846 1.373 . S
C1847 C1863 1.377 . S
C1848 C1846 1.389 . S
C1848 C1849 1.524 . S
C1848 C1862 1.377 . S
C1849 C1848 1.524 . S
C1849 C1850 1.397 . S
C1849 C1854 1.363 . S
C1850 H1827 0.950 . S
C1850 C1849 1.397 . S
C1850 C1851 1.334 . S
C1851 H1828 0.950 . S
C1851 C1850 1.334 . S
C1851 C1852 1.287 . S
C1852 C1851 1.287 . S
C1852 C1853 1.524 . S
C1852 H1871 0.913 . S
C1853 H1829 0.950 . S
C1853 C1852 1.524 . S
C1853 C1854 1.415 . S
C1854 H1830 0.950 . S
C1854 C1849 1.363 . S
C1854 C1853 1.415 . S
C1855 H1831 0.951 . S
C1855 C1856 1.366 . S
C1855 C1857 1.388 . S
C1856 C1855 1.366 . S
C1856 C1860 1.385 . S
C1857 H1832 0.951 . S
C1857 C1855 1.388 . S
C1857 C1858 1.366 . S
C1858 C1857 1.366 . S
C1858 C1859 1.414 . S
C1858 C1861 1.499 . S
C1859 H1833 0.950 . S
C1859 C1858 1.414 . S
C1859 C1860 1.374 . S
C1860 H1834 0.950 . S
C1860 C1856 1.385 . S
C1860 C1859 1.374 . S
C1861 C1858 1.499 . S
C1861 C1862 1.373 . S
C1861 C1863 1.389 . S
C1862 H1835 0.950 . S
C1862 C1848 1.377 . S
C1862 C1861 1.373 . S
C1863 C1847 1.377 . S
C1863 C1861 1.389 . S
C1863 C1864 1.524 . S
C1864 C1863 1.524 . S
C1864 C1865 1.397 . S
C1864 C1869 1.363 . S
C1865 H1836 0.950 . S
C1865 C1864 1.397 . S
C1865 C1866 1.334 . S
C1866 H1837 0.950 . S
C1866 C1865 1.334 . S
C1866 C1867 1.287 . S
C1867 C1866 1.287 . S
C1867 C1868 1.524 . S
C1867 H1870 0.999 . S
C1868 H1838 0.950 . S
C1868 C1867 1.524 . S
C1868 C1869 1.415 . S
C1869 H1839 0.950 . S
C1869 C1864 1.363 . S
C1869 C1868 1.415 . S
H1870 C1867 0.999 . S
H1871 C1852 0.913 . S
C306 C193 1.532 . S
C291 C14 1.518 . S
C341 C25 1.513 . S
C356 C225 1.530 . S
C391 C50 1.518 . S
C406 C248 1.539 . S
C456 C152 1.541 . S
C441 C68 1.519 . S
C506 C235 1.378 . S
C491 C16 1.469 . S
C556 C264 1.387 . S
C541 C26 1.473 . S
C606 C168 1.390 . S
C591 C52 1.469 . S
C656 C203 1.377 . S
C641 C70 1.470 . S
C691 C8 1.462 . S
C706 C231 1.382 . S
C741 C88 1.464 . S
C756 C206 1.370 . S
C791 C44 1.462 . S
C806 C174 1.368 . S
C856 C263 1.382 . S
C841 C98 1.463 . S
C906 C207 1.531 . S
C891 C7 1.515 . S
C941 C86 1.517 . S
C956 C175 1.532 . S
C991 C43 1.513 . S
C1006 C262 1.539 . S
C1056 C230 1.537 . S
C1041 C97 1.513 . S
C1091 C116 1.512 . S
C1106 C257 1.525 . S
C1141 C79 1.513 . S
C1156 C161 1.530 . S
C1191 C140 1.518 . S
C1206 C184 1.541 . S
C1241 C104 1.519 . S
C1256 C216 1.542 . S
C1306 C171 1.379 . S
C1291 C115 1.475 . S
C1341 C80 1.474 . S
C1356 C200 1.386 . S
C1391 C142 1.470 . S
C1406 C232 1.392 . S
C1456 C267 1.377 . S
C1441 C106 1.470 . S
C1491 C122 1.469 . S
C1506 C167 1.387 . S
C1541 C34 1.464 . S
C1556 C270 1.371 . S
C1591 C134 1.462 . S
C1606 C238 1.366 . S
C1656 C199 1.381 . S
C1641 C62 1.463 . S
C1706 C271 1.529 . S
C1691 C124 1.510 . S
C1756 C239 1.532 . S
C1741 C32 1.517 . S
C1806 C198 1.538 . S
C1791 C133 1.513 . S
C1856 C166 1.537 . S
C1841 C61 1.512 . S
