# Generated by pormake.
# Topology llk, (3,12)-cn, num edge types: 1
# Building blocks:
#     Node 0, Type 0, BuildingBlock: QEWDON_clean_linker_0, # of connection points: 3
#     Node 1, Type 0, BuildingBlock: QEWDON_clean_linker_0, # of connection points: 3
#     Node 2, Type 0, BuildingBlock: QEWDON_clean_linker_0, # of connection points: 3
#     Node 3, Type 0, BuildingBlock: QEWDON_clean_linker_0, # of connection points: 3
#     Node 4, Type 0, BuildingBlock: QEWDON_clean_linker_0, # of connection points: 3
#     Node 5, Type 0, BuildingBlock: QEWDON_clean_linker_0, # of connection points: 3
#     Node 6, Type 0, BuildingBlock: QEWDON_clean_linker_0, # of connection points: 3
#     Node 7, Type 0, BuildingBlock: QEWDON_clean_linker_0, # of connection points: 3
#     Node 8, Type 0, BuildingBlock: QEWDON_clean_linker_0, # of connection points: 3
#     Node 9, Type 0, BuildingBlock: QEWDON_clean_linker_0, # of connection points: 3
#     Node 10, Type 0, BuildingBlock: QEWDON_clean_linker_0, # of connection points: 3
#     Node 11, Type 0, BuildingBlock: QEWDON_clean_linker_0, # of connection points: 3
#     Node 12, Type 0, BuildingBlock: QEWDON_clean_linker_0, # of connection points: 3
#     Node 13, Type 0, BuildingBlock: QEWDON_clean_linker_0, # of connection points: 3
#     Node 14, Type 0, BuildingBlock: QEWDON_clean_linker_0, # of connection points: 3
#     Node 15, Type 0, BuildingBlock: QEWDON_clean_linker_0, # of connection points: 3
#     Node 16, Type 0, BuildingBlock: QEWDON_clean_linker_0, # of connection points: 3
#     Node 17, Type 0, BuildingBlock: QEWDON_clean_linker_0, # of connection points: 3
#     Node 18, Type 0, BuildingBlock: QEWDON_clean_linker_0, # of connection points: 3
#     Node 19, Type 0, BuildingBlock: QEWDON_clean_linker_0, # of connection points: 3
#     Node 20, Type 0, BuildingBlock: QEWDON_clean_linker_0, # of connection points: 3
#     Node 21, Type 0, BuildingBlock: QEWDON_clean_linker_0, # of connection points: 3
#     Node 22, Type 0, BuildingBlock: QEWDON_clean_linker_0, # of connection points: 3
#     Node 23, Type 0, BuildingBlock: QEWDON_clean_linker_0, # of connection points: 3
#     Node 24, Type 1, BuildingBlock: QEWDON_clean_sbu_0, # of connection points: 12
#     Node 25, Type 1, BuildingBlock: QEWDON_clean_sbu_0, # of connection points: 12
#     Node 26, Type 1, BuildingBlock: QEWDON_clean_sbu_0, # of connection points: 12
#     Node 27, Type 1, BuildingBlock: QEWDON_clean_sbu_0, # of connection points: 12
#     Node 28, Type 1, BuildingBlock: QEWDON_clean_sbu_0, # of connection points: 12
#     Node 29, Type 1, BuildingBlock: QEWDON_clean_sbu_0, # of connection points: 12
#     Edge 30, Type (0, 1), BuildingBlock: EZIPEK_clean_linker_0, # of connection points: 2
#     Edge 31, Type (0, 1), BuildingBlock: EZIPEK_clean_linker_0, # of connection points: 2
#     Edge 32, Type (0, 1), BuildingBlock: EZIPEK_clean_linker_0, # of connection points: 2
#     Edge 33, Type (0, 1), BuildingBlock: EZIPEK_clean_linker_0, # of connection points: 2
#     Edge 34, Type (0, 1), BuildingBlock: EZIPEK_clean_linker_0, # of connection points: 2
#     Edge 35, Type (0, 1), BuildingBlock: EZIPEK_clean_linker_0, # of connection points: 2
#     Edge 36, Type (0, 1), BuildingBlock: EZIPEK_clean_linker_0, # of connection points: 2
#     Edge 37, Type (0, 1), BuildingBlock: EZIPEK_clean_linker_0, # of connection points: 2
#     Edge 38, Type (0, 1), BuildingBlock: EZIPEK_clean_linker_0, # of connection points: 2
#     Edge 39, Type (0, 1), BuildingBlock: EZIPEK_clean_linker_0, # of connection points: 2
#     Edge 40, Type (0, 1), BuildingBlock: EZIPEK_clean_linker_0, # of connection points: 2
#     Edge 41, Type (0, 1), BuildingBlock: EZIPEK_clean_linker_0, # of connection points: 2
#     Edge 42, Type (0, 1), BuildingBlock: EZIPEK_clean_linker_0, # of connection points: 2
#     Edge 43, Type (0, 1), BuildingBlock: EZIPEK_clean_linker_0, # of connection points: 2
#     Edge 44, Type (0, 1), BuildingBlock: EZIPEK_clean_linker_0, # of connection points: 2
#     Edge 45, Type (0, 1), BuildingBlock: EZIPEK_clean_linker_0, # of connection points: 2
#     Edge 46, Type (0, 1), BuildingBlock: EZIPEK_clean_linker_0, # of connection points: 2
#     Edge 47, Type (0, 1), BuildingBlock: EZIPEK_clean_linker_0, # of connection points: 2
#     Edge 48, Type (0, 1), BuildingBlock: EZIPEK_clean_linker_0, # of connection points: 2
#     Edge 49, Type (0, 1), BuildingBlock: EZIPEK_clean_linker_0, # of connection points: 2
#     Edge 50, Type (0, 1), BuildingBlock: EZIPEK_clean_linker_0, # of connection points: 2
#     Edge 51, Type (0, 1), BuildingBlock: EZIPEK_clean_linker_0, # of connection points: 2
#     Edge 52, Type (0, 1), BuildingBlock: EZIPEK_clean_linker_0, # of connection points: 2
#     Edge 53, Type (0, 1), BuildingBlock: EZIPEK_clean_linker_0, # of connection points: 2
#     Edge 54, Type (0, 1), BuildingBlock: EZIPEK_clean_linker_0, # of connection points: 2
#     Edge 55, Type (0, 1), BuildingBlock: EZIPEK_clean_linker_0, # of connection points: 2
#     Edge 56, Type (0, 1), BuildingBlock: EZIPEK_clean_linker_0, # of connection points: 2
#     Edge 57, Type (0, 1), BuildingBlock: EZIPEK_clean_linker_0, # of connection points: 2
#     Edge 58, Type (0, 1), BuildingBlock: EZIPEK_clean_linker_0, # of connection points: 2
#     Edge 59, Type (0, 1), BuildingBlock: EZIPEK_clean_linker_0, # of connection points: 2
#     Edge 60, Type (0, 1), BuildingBlock: EZIPEK_clean_linker_0, # of connection points: 2
#     Edge 61, Type (0, 1), BuildingBlock: EZIPEK_clean_linker_0, # of connection points: 2
#     Edge 62, Type (0, 1), BuildingBlock: EZIPEK_clean_linker_0, # of connection points: 2
#     Edge 63, Type (0, 1), BuildingBlock: EZIPEK_clean_linker_0, # of connection points: 2
#     Edge 64, Type (0, 1), BuildingBlock: EZIPEK_clean_linker_0, # of connection points: 2
#     Edge 65, Type (0, 1), BuildingBlock: EZIPEK_clean_linker_0, # of connection points: 2
#     Edge 66, Type (0, 1), BuildingBlock: EZIPEK_clean_linker_0, # of connection points: 2
#     Edge 67, Type (0, 1), BuildingBlock: EZIPEK_clean_linker_0, # of connection points: 2
#     Edge 68, Type (0, 1), BuildingBlock: EZIPEK_clean_linker_0, # of connection points: 2
#     Edge 69, Type (0, 1), BuildingBlock: EZIPEK_clean_linker_0, # of connection points: 2
#     Edge 70, Type (0, 1), BuildingBlock: EZIPEK_clean_linker_0, # of connection points: 2
#     Edge 71, Type (0, 1), BuildingBlock: EZIPEK_clean_linker_0, # of connection points: 2
#     Edge 72, Type (0, 1), BuildingBlock: EZIPEK_clean_linker_0, # of connection points: 2
#     Edge 73, Type (0, 1), BuildingBlock: EZIPEK_clean_linker_0, # of connection points: 2
#     Edge 74, Type (0, 1), BuildingBlock: EZIPEK_clean_linker_0, # of connection points: 2
#     Edge 75, Type (0, 1), BuildingBlock: EZIPEK_clean_linker_0, # of connection points: 2
#     Edge 76, Type (0, 1), BuildingBlock: EZIPEK_clean_linker_0, # of connection points: 2
#     Edge 77, Type (0, 1), BuildingBlock: EZIPEK_clean_linker_0, # of connection points: 2
#     Edge 78, Type (0, 1), BuildingBlock: EZIPEK_clean_linker_0, # of connection points: 2
#     Edge 79, Type (0, 1), BuildingBlock: EZIPEK_clean_linker_0, # of connection points: 2
#     Edge 80, Type (0, 1), BuildingBlock: EZIPEK_clean_linker_0, # of connection points: 2
#     Edge 81, Type (0, 1), BuildingBlock: EZIPEK_clean_linker_0, # of connection points: 2
#     Edge 82, Type (0, 1), BuildingBlock: EZIPEK_clean_linker_0, # of connection points: 2
#     Edge 83, Type (0, 1), BuildingBlock: EZIPEK_clean_linker_0, # of connection points: 2
#     Edge 84, Type (0, 1), BuildingBlock: EZIPEK_clean_linker_0, # of connection points: 2
#     Edge 85, Type (0, 1), BuildingBlock: EZIPEK_clean_linker_0, # of connection points: 2
#     Edge 86, Type (0, 1), BuildingBlock: EZIPEK_clean_linker_0, # of connection points: 2
#     Edge 87, Type (0, 1), BuildingBlock: EZIPEK_clean_linker_0, # of connection points: 2
#     Edge 88, Type (0, 1), BuildingBlock: EZIPEK_clean_linker_0, # of connection points: 2
#     Edge 89, Type (0, 1), BuildingBlock: EZIPEK_clean_linker_0, # of connection points: 2
#     Edge 90, Type (0, 1), BuildingBlock: EZIPEK_clean_linker_0, # of connection points: 2
#     Edge 91, Type (0, 1), BuildingBlock: EZIPEK_clean_linker_0, # of connection points: 2
#     Edge 92, Type (0, 1), BuildingBlock: EZIPEK_clean_linker_0, # of connection points: 2
#     Edge 93, Type (0, 1), BuildingBlock: EZIPEK_clean_linker_0, # of connection points: 2
#     Edge 94, Type (0, 1), BuildingBlock: EZIPEK_clean_linker_0, # of connection points: 2
#     Edge 95, Type (0, 1), BuildingBlock: EZIPEK_clean_linker_0, # of connection points: 2
#     Edge 96, Type (0, 1), BuildingBlock: EZIPEK_clean_linker_0, # of connection points: 2
#     Edge 97, Type (0, 1), BuildingBlock: EZIPEK_clean_linker_0, # of connection points: 2
#     Edge 98, Type (0, 1), BuildingBlock: EZIPEK_clean_linker_0, # of connection points: 2
#     Edge 99, Type (0, 1), BuildingBlock: EZIPEK_clean_linker_0, # of connection points: 2
#     Edge 100, Type (0, 1), BuildingBlock: EZIPEK_clean_linker_0, # of connection points: 2
#     Edge 101, Type (0, 1), BuildingBlock: EZIPEK_clean_linker_0, # of connection points: 2
# Relax obj value: 0.118
# Max RMSD: 0.259
# Mean RMSD: 0.203
data_MOF--net-llk--node1-QEWDON_clean_sbu_0--node2-QEWDON_clean_linker_0--edge1-EZIPEK_clean_linker_0
_symmetry_space_group_name_H-M    P1
_symmetry_Int_Tables_number       1
_symmetry_cell_setting            triclinic
loop_
_symmetry_equiv_pos_as_xyz
'x, y, z'
_cell_length_a     37.959752
_cell_length_b     38.039916
_cell_length_c     37.110822
_cell_angle_alpha  90.215145
_cell_angle_beta   90.102895
_cell_angle_gamma 89.548038
loop_
_atom_site_label
_atom_site_type_symbol
_atom_site_fract_x
_atom_site_fract_y
_atom_site_fract_z
_atom_type_partial_charge
H0 H 0.00041 0.33325 0.28365 0.0
C1 C 0.00663 0.30867 0.29696 0.0
C2 C 0.00606 0.30752 0.33475 0.0
C3 C 0.0132 0.27796 0.27663 0.0
H4 H 0.00813 0.2742 0.38143 0.0
C5 C 0.01075 0.27534 0.35237 0.0
C6 C 0.01792 0.24453 0.33267 0.0
C7 C 0.02103 0.2465 0.29499 0.0
C8 C 0.00815 0.27783 0.23672 0.0
H9 H 0.02707 0.22275 0.27993 0.0
C10 C 0.01675 0.30735 0.21576 0.0
C11 C 0.00907 0.30804 0.17869 0.0
C12 C -0.00771 0.24882 0.21956 0.0
H13 H 0.98436 0.22598 0.23476 0.0
C14 C 0.98518 0.24936 0.18263 0.0
H15 H 0.02913 0.32997 0.2281 0.0
C16 C -0.00669 0.2789 0.16225 0.0
H17 H 0.98711 0.2792 0.13375 0.0
H18 H 0.97277 0.22699 0.16989 0.0
H19 H 0.71746 0.09504 0.27587 0.0
C20 C 0.7072 0.0892 0.24927 0.0
C21 C 0.67094 0.08459 0.24524 0.0
C22 C 0.73013 0.08463 0.21982 0.0
H23 H 0.62877 0.07352 0.20834 0.0
C24 C 0.65687 0.07778 0.21125 0.0
C25 C 0.67914 0.07351 0.18159 0.0
C26 C 0.71574 0.07703 0.18568 0.0
C27 C 0.76887 0.08522 0.22581 0.0
H28 H 0.73278 0.07211 0.16279 0.0
C29 C 0.78302 0.07197 0.25814 0.0
C30 C 0.81899 0.07457 0.26566 0.0
C31 C 0.79189 0.09953 0.20017 0.0
H32 H 0.78191 0.11014 0.17508 0.0
C33 C 0.82809 0.10117 0.20722 0.0
H34 H 0.76612 0.05995 0.27803 0.0
C35 C 0.84164 0.08904 0.24001 0.0
H36 H 0.86955 0.09131 0.24558 0.0
H37 H 0.84559 0.11249 0.1875 0.0
H38 H 0.987 0.71886 0.33054 0.0
C39 C -0.00703 0.7102 0.30335 0.0
C40 C 0.0059 0.67603 0.29794 0.0
C41 C 0.98638 0.7326 0.27402 0.0
H42 H 0.02244 0.63759 0.25864 0.0
C43 C 0.01271 0.66417 0.26285 0.0
C44 C 0.0045 0.68541 0.23311 0.0
C45 C -0.00849 0.71966 0.23878 0.0
C46 C 0.97309 0.76892 0.28055 0.0
H47 H 0.98568 0.73607 0.21569 0.0
C48 C 0.98545 0.78852 0.31025 0.0
C49 C 0.97179 0.82211 0.3175 0.0
C50 C 0.94734 0.78396 0.25789 0.0
H51 H 0.93678 0.76944 0.23523 0.0
C52 C 0.93421 0.8177 0.26482 0.0
H53 H 0.00563 0.77781 0.32786 0.0
C54 C 0.94627 0.83671 0.29454 0.0
H55 H 0.93559 0.86272 0.29979 0.0
H56 H 0.91432 0.829 0.24732 0.0
H57 H 0.24202 0.96905 0.29879 0.0
C58 C 0.25987 0.96992 0.27613 0.0
C59 C 0.29586 0.97469 0.28316 0.0
C60 C 0.24714 0.96867 0.24026 0.0
H61 H 0.34746 0.98037 0.25969 0.0
C62 C 0.31978 0.97554 0.25447 0.0
C63 C 0.30772 0.97391 0.21896 0.0
C64 C 0.2717 0.97057 0.21196 0.0
C65 C 0.20853 0.97054 0.23198 0.0
H66 H 0.263 0.97203 0.1842 0.0
C67 C 0.18515 0.98718 0.25608 0.0
C68 C 0.14976 0.99329 0.24684 0.0
C69 C 0.19504 0.95863 0.19867 0.0
H70 H 0.21148 0.94436 0.17975 0.0
C71 C 0.1601 0.9656 0.18892 0.0
H72 H 0.19435 0.99672 0.28189 0.0
C73 C 0.13772 0.98363 0.2125 0.0
H74 H 0.11076 0.98902 0.20449 0.0
H75 H 0.15038 0.95708 0.1629 0.0
H76 H 0.95906 0.70282 0.70449 0.0
C77 C 0.97007 0.72606 0.69214 0.0
C78 C 0.98282 0.72403 0.65668 0.0
C79 C 0.97382 0.75684 0.7127 0.0
H80 H 0.00599 0.7537 0.61321 0.0
C81 C -0.00393 0.75463 0.64057 0.0
C82 C -0.00393 0.78669 0.65946 0.0
C83 C 0.9859 0.78747 0.69585 0.0
C84 C 0.96659 0.75602 0.752 0.0
H85 H 0.98791 0.81179 0.71099 0.0
C86 C 0.97835 0.72726 0.7728 0.0
C87 C 0.96938 0.72461 0.80938 0.0
C88 C 0.94741 0.78317 0.76884 0.0
H89 H 0.93804 0.80557 0.75354 0.0
C90 C 0.93926 0.7811 0.80549 0.0
H91 H -0.00627 0.70637 0.7604 0.0
C92 C 0.94983 0.75186 0.8256 0.0
H93 H 0.94253 0.75032 0.85376 0.0
H94 H 0.92415 0.80195 0.8182 0.0
H95 H 0.29799 0.01089 0.73682 0.0
C96 C 0.31045 0.00342 0.76198 0.0
C97 C 0.34443 0.98912 0.76065 0.0
C98 C 0.29482 0.01252 0.79509 0.0
H99 H 0.38805 0.96924 0.79129 0.0
C100 C 0.3616 0.98019 0.79254 0.0
C101 C 0.34788 0.99138 0.82571 0.0
C102 C 0.31418 0.00704 0.82699 0.0
C103 C 0.26028 0.03137 0.79512 0.0
H104 H 0.30375 0.01594 0.85262 0.0
C105 C 0.23493 0.02317 0.7688 0.0
C106 C 0.20334 0.04272 0.76466 0.0
C107 C 0.25381 0.05962 0.81858 0.0
H108 H 0.27296 0.06726 0.83873 0.0
C109 C 0.22363 0.08022 0.81434 0.0
H110 H 0.24143 0.00228 0.75035 0.0
C111 C 0.19938 0.07273 0.78708 0.0
H112 H 0.17869 0.09187 0.7833 0.0
H113 H 0.21973 0.10311 0.83133 0.0
H114 H 0.98047 0.28898 0.68929 0.0
C115 C 0.98677 0.2977 0.71637 0.0
C116 C 0.00076 0.33136 0.72154 0.0
C117 C 0.98029 0.27574 0.74605 0.0
H118 H 0.01744 0.36984 0.76046 0.0
C119 C 0.00749 0.34344 0.75649 0.0
C120 C 0.00036 0.32243 0.78641 0.0
C121 C 0.98773 0.28815 0.78109 0.0
C122 C 0.96449 0.24052 0.74036 0.0
H123 H 0.98289 0.27163 0.80427 0.0
C124 C 0.97662 0.21838 0.71248 0.0
C125 C 0.96134 0.18531 0.70673 0.0
C126 C 0.93665 0.2291 0.76227 0.0
H127 H 0.92641 0.24576 0.78362 0.0
C128 C 0.92126 0.19631 0.75636 0.0
H129 H -0.00166 0.22651 0.69558 0.0
C130 C 0.93354 0.17443 0.72874 0.0
H131 H 0.92169 0.14891 0.72473 0.0
H132 H 0.89977 0.18781 0.77328 0.0
H133 H 0.71456 0.09172 0.7594 0.0
C134 C 0.74166 0.08925 0.7506 0.0
C135 C 0.74854 0.08259 0.71397 0.0
C136 C 0.76964 0.09246 0.77559 0.0
H137 H 0.78888 0.07468 0.67406 0.0
C138 C 0.78341 0.07992 0.70228 0.0
C139 C 0.81124 0.08228 0.72682 0.0
C140 C 0.8045 0.08874 0.76324 0.0
C141 C 0.76278 0.09792 0.81472 0.0
H142 H 0.82649 0.08977 0.78186 0.0
C143 C 0.7338 0.08193 0.83132 0.0
C144 C 0.72793 0.08598 0.86839 0.0
C145 C 0.78579 0.11816 0.8361 0.0
H146 H 0.80802 0.13147 0.82423 0.0
C147 C 0.78032 0.12153 0.87319 0.0
H148 H 0.71589 0.06584 0.81574 0.0
C149 C 0.75156 0.10537 0.88937 0.0
H150 H 0.74757 0.10804 0.91813 0.0
H151 H 0.79836 0.13684 0.8894 0.0
H152 H 0.2836 0.33397 0.05063 0.0
C153 C 0.29345 0.30723 0.04862 0.0
C154 C 0.33 0.30155 0.04766 0.0
C155 C 0.26995 0.27874 0.04739 0.0
H156 H 0.37155 0.26277 0.04545 0.0
C157 C 0.34329 0.26722 0.0463 0.0
C158 C 0.32049 0.23872 0.04373 0.0
C159 C 0.2839 0.24434 0.04435 0.0
C160 C 0.23112 0.28506 0.04926 0.0
H161 H 0.26656 0.22199 0.04178 0.0
C162 C 0.21576 0.3153 0.03368 0.0
C163 C 0.17953 0.32217 0.03713 0.0
C164 C 0.20918 0.26147 0.06768 0.0
H165 H 0.21999 0.2383 0.08059 0.0
C166 C 0.17299 0.26797 0.07045 0.0
H167 H 0.23178 0.3337 0.01884 0.0
C168 C 0.15818 0.29822 0.05534 0.0
H169 H 0.13017 0.30301 0.05794 0.0
H170 H 0.15642 0.24968 0.08474 0.0
H171 H 0.25173 0.72505 0.05024 0.0
C172 C 0.26279 0.74972 0.0413 0.0
C173 C 0.29859 0.75105 0.03286 0.0
C174 C 0.24166 0.78024 0.03945 0.0
H175 H 0.34148 0.78383 0.01658 0.0
C176 C 0.31354 0.78288 0.02262 0.0
C177 C 0.29304 0.81358 0.02059 0.0
C178 C 0.2569 0.81224 0.02878 0.0
C179 C 0.20425 0.77821 0.05048 0.0
H180 H 0.24094 0.83593 0.02718 0.0
C181 C 0.18366 0.74991 0.03865 0.0
C182 C 0.15045 0.74362 0.05376 0.0
C183 C 0.19018 0.80186 0.07589 0.0
H184 H 0.2056 0.82379 0.08562 0.0
C185 C 0.15672 0.79622 0.09042 0.0
H186 H 0.19412 0.73175 0.01868 0.0
C187 C 0.13719 0.76684 0.08002 0.0
H188 H 0.11182 0.76218 0.09237 0.0
H189 H 0.1463 0.81414 0.11054 0.0
H190 H 0.7548 0.2818 0.01733 0.0
C191 C 0.77984 0.29475 0.01435 0.0
C192 C 0.77988 0.33149 0.01607 0.0
C193 C 0.81147 0.2755 0.00902 0.0
H194 H 0.81165 0.3779 0.01805 0.0
C195 C 0.81165 0.34948 0.01545 0.0
C196 C 0.84342 0.33106 0.01171 0.0
C197 C 0.84326 0.29448 0.00671 0.0
C198 C 0.81117 0.23605 0.00646 0.0
H199 H 0.86816 0.28131 0.00192 0.0
C200 C 0.78001 0.21807 -0.00271 0.0
C201 C 0.77881 0.18126 -0.00307 0.0
C202 C 0.84156 0.21572 0.01417 0.0
H203 H 0.86591 0.22771 0.0227 0.0
C204 C 0.84086 0.17904 0.01184 0.0
H205 H 0.75613 0.2322 0.99046 0.0
C206 C 0.80967 0.16178 0.0032 0.0
H207 H 0.80925 0.13332 0.00259 0.0
H208 H 0.86444 0.16389 0.01764 0.0
H209 H 0.73331 0.75692 0.9882 0.0
C210 C 0.75905 0.74446 0.9878 0.0
C211 C 0.76069 0.70832 0.99337 0.0
C212 C 0.78933 0.76376 0.97916 0.0
H213 H 0.7944 0.66314 -0.00259 0.0
C214 C 0.79326 0.69117 0.99224 0.0
C215 C 0.82411 0.70943 0.98339 0.0
C216 C 0.82183 0.7457 0.97583 0.0
C217 C 0.78534 0.80201 0.97142 0.0
H218 H 0.84537 0.75968 0.96816 0.0
C219 C 0.7579 0.82126 0.98799 0.0
C220 C 0.74675 0.8535 0.97398 0.0
C221 C 0.80505 0.81836 0.94419 0.0
H222 H 0.82622 0.80454 0.93057 0.0
C223 C 0.7961 0.85227 0.93265 0.0
H224 H 0.74294 0.81006 0.00991 0.0
C225 C 0.76649 0.86947 0.94679 0.0
H226 H 0.75835 0.89461 0.93581 0.0
H227 H 0.81103 0.86446 0.91132 0.0
H228 H 0.49861 0.82261 0.74712 0.0
C229 C 0.50474 0.79844 0.76125 0.0
C230 C 0.50895 0.79957 0.79874 0.0
C231 C 0.50763 0.76637 0.74225 0.0
H232 H 0.51681 0.76883 0.84676 0.0
C233 C 0.51478 0.76823 0.8176 0.0
C234 C 0.51575 0.7359 0.79952 0.0
C235 C 0.51327 0.73506 0.76176 0.0
C236 C 0.5034 0.76586 0.70235 0.0
H237 H 0.51482 0.70996 0.74794 0.0
C238 C 0.51645 0.79368 0.68149 0.0
C239 C 0.51049 0.79485 0.64424 0.0
C240 C 0.48512 0.73857 0.6849 0.0
H241 H 0.47418 0.71702 0.70009 0.0
C242 C 0.47979 0.73939 0.64759 0.0
H243 H 0.53099 0.81483 0.69413 0.0
C244 C 0.4922 0.76754 0.62728 0.0
H245 H 0.48731 0.76824 0.59853 0.0
H246 H 0.46547 0.71842 0.63449 0.0
H247 H 0.26525 0.58012 0.80744 0.0
C248 C 0.25772 0.57964 0.77928 0.0
C249 C 0.22196 0.57611 0.77053 0.0
C250 C 0.28333 0.58291 0.75197 0.0
H251 H 0.18389 0.57339 0.7278 0.0
C252 C 0.21156 0.57631 0.73449 0.0
C253 C 0.23641 0.57907 0.70693 0.0
C254 C 0.27223 0.58267 0.71558 0.0
C255 C 0.32139 0.58632 0.76158 0.0
H256 H 0.29123 0.58431 0.69393 0.0
C257 C 0.33539 0.56931 0.79223 0.0
C258 C 0.37078 0.57373 0.80213 0.0
C259 C 0.34396 0.60724 0.74068 0.0
H260 H 0.33418 0.62133 0.71739 0.0
C261 C 0.37942 0.6109 0.75009 0.0
H262 H 0.31895 0.55265 0.80866 0.0
C263 C 0.39282 0.59428 0.7807 0.0
H264 H 0.42028 0.59761 0.7878 0.0
H265 H 0.39647 0.62705 0.73381 0.0
H266 H 0.46024 0.2144 0.82701 0.0
C267 C 0.45958 0.20135 0.80107 0.0
C268 C 0.46051 0.16438 0.79994 0.0
C269 C 0.45803 0.22146 0.76932 0.0
H270 H 0.45951 0.11903 0.76469 0.0
C271 C 0.45873 0.1475 0.76614 0.0
C272 C 0.46109 0.16695 0.73413 0.0
C273 C 0.45976 0.20384 0.73581 0.0
C274 C 0.45543 0.26071 0.77131 0.0
H275 H 0.46198 0.2187 0.71108 0.0
C276 C 0.47126 0.27977 0.79977 0.0
C277 C 0.46667 0.3164 0.80268 0.0
C278 C 0.43568 0.2794 0.74543 0.0
H279 H 0.42256 0.2658 0.72359 0.0
C280 C 0.43174 0.31588 0.74794 0.0
H281 H 0.4872 0.26644 0.81981 0.0
C282 C 0.44699 0.33432 0.77646 0.0
H283 H 0.44328 0.36254 0.77828 0.0
H284 H 0.41636 0.32985 0.72793 0.0
H285 H 0.73504 0.48614 0.81627 0.0
C286 C 0.75374 0.48736 0.79434 0.0
C287 C 0.78921 0.49141 0.80301 0.0
C288 C 0.74269 0.48582 0.758 0.0
H289 H 0.84208 0.49424 0.78286 0.0
C290 C 0.81448 0.49128 0.77584 0.0
C291 C 0.80457 0.4892 0.73968 0.0
C292 C 0.76858 0.48705 0.73061 0.0
C293 C 0.70423 0.48385 0.74942 0.0
H294 H 0.76105 0.48679 0.70246 0.0
C295 C 0.67937 0.49861 0.77332 0.0
C296 C 0.64321 0.49352 0.76844 0.0
C297 C 0.69172 0.46595 0.71871 0.0
H298 H 0.70979 0.45382 0.69978 0.0
C299 C 0.65544 0.4625 0.71271 0.0
H300 H 0.68784 0.51361 0.79658 0.0
C301 C 0.63116 0.47591 0.73766 0.0
H302 H 0.60324 0.47193 0.73343 0.0
H303 H 0.64614 0.44852 0.68913 0.0
H304 H 0.46015 0.2235 0.22711 0.0
C305 C 0.46767 0.2483 0.21522 0.0
C306 C 0.4735 0.24973 0.17797 0.0
C307 C 0.47343 0.27812 0.23707 0.0
H308 H 0.48597 0.28282 0.1331 0.0
C309 C 0.4817 0.2818 0.16199 0.0
C310 C 0.48769 0.31184 0.18296 0.0
C311 C 0.48382 0.30986 0.22061 0.0
C312 C 0.46916 0.2757 0.27694 0.0
H313 H 0.48981 0.33271 0.23696 0.0
C314 C 0.47912 0.24492 0.29573 0.0
C315 C 0.47125 0.2411 0.3326 0.0
C316 C 0.45338 0.30351 0.29627 0.0
H317 H 0.44516 0.32738 0.28274 0.0
C318 C 0.4468 0.30032 0.33311 0.0
H319 H 0.49188 0.22335 0.2816 0.0
C320 C 0.45522 0.2692 0.3511 0.0
H321 H 0.44878 0.26684 0.37941 0.0
H322 H 0.43428 0.32175 0.34761 0.0
H323 H 0.77963 0.48389 0.20105 0.0
C324 C 0.78518 0.49221 0.22843 0.0
C325 C 0.81723 0.50888 0.23613 0.0
C326 C 0.76099 0.48517 0.25625 0.0
H327 H 0.85017 0.53043 0.27772 0.0
C328 C 0.82502 0.51839 0.27163 0.0
C329 C 0.80173 0.51074 0.2996 0.0
C330 C 0.76928 0.49508 0.29182 0.0
C331 C 0.72795 0.46598 0.24844 0.0
H332 H 0.75119 0.4896 0.31362 0.0
C333 C 0.70708 0.47526 0.21864 0.0
C334 C 0.67621 0.45668 0.21064 0.0
C335 C 0.71737 0.43788 0.27036 0.0
H336 H 0.73312 0.42992 0.29334 0.0
C337 C 0.68675 0.41921 0.26228 0.0
H338 H 0.71467 0.49709 0.2017 0.0
C339 C 0.66628 0.4284 0.2324 0.0
H340 H 0.6427 0.41364 0.22631 0.0
H341 H 0.67899 0.39745 0.27912 0.0
H342 H 0.57383 0.79475 0.19983 0.0
C343 C 0.56783 0.8043 0.22669 0.0
C344 C 0.55532 0.83875 0.23076 0.0
C345 C 0.57226 0.78228 0.2568 0.0
H346 H 0.53799 0.87859 0.26798 0.0
C347 C 0.54813 0.85197 0.26509 0.0
C348 C 0.5517 0.83062 0.29545 0.0
C349 C 0.56396 0.79574 0.29145 0.0
C350 C 0.58528 0.74547 0.25139 0.0
H351 H 0.56603 0.7791 0.31499 0.0
C352 C 0.57513 0.72583 0.2207 0.0
C353 C 0.58936 0.69218 0.21409 0.0
C354 C 0.60925 0.73026 0.27582 0.0
H355 H 0.61795 0.74464 0.29941 0.0
C356 C 0.62317 0.69666 0.26946 0.0
H357 H 0.55604 0.7365 0.20186 0.0
C358 C 0.61353 0.67778 0.23866 0.0
H359 H 0.62469 0.65186 0.23407 0.0
H360 H 0.6418 0.68534 0.28833 0.0
H361 H 0.23306 0.55091 0.21013 0.0
C362 C 0.26131 0.54846 0.20674 0.0
C363 C 0.27427 0.54476 0.17179 0.0
C364 C 0.28409 0.5508 0.23653 0.0
H365 H 0.32027 0.54221 0.13851 0.0
C366 C 0.31039 0.54392 0.16588 0.0
C367 C 0.33378 0.54802 0.19486 0.0
C368 C 0.32071 0.55124 0.2302 0.0
C369 C 0.26877 0.55456 0.27336 0.0
H370 H 0.33911 0.55435 0.25228 0.0
C371 C 0.23541 0.54028 0.28074 0.0
C372 C 0.21813 0.54753 0.31314 0.0
C373 C 0.28557 0.5743 0.3005 0.0
H374 H 0.31093 0.58625 0.29592 0.0
C375 C 0.26901 0.58009 0.33368 0.0
H376 H 0.22206 0.524 0.26108 0.0
C377 C 0.2352 0.56718 0.33988 0.0
H378 H 0.22214 0.57295 0.36517 0.0
H379 H 0.28201 0.59552 0.35427 0.0
H380 H 0.79076 0.83582 0.51588 0.0
C381 C 0.80093 0.80928 0.51307 0.0
C382 C 0.83742 0.80444 0.51452 0.0
C383 C 0.77794 0.78051 0.51045 0.0
H384 H 0.87988 0.76673 0.51736 0.0
C385 C 0.85169 0.77048 0.51424 0.0
C386 C 0.82935 0.74135 0.51294 0.0
C387 C 0.79269 0.74633 0.50997 0.0
C388 C 0.73894 0.7867 0.51169 0.0
H389 H 0.77595 0.72345 0.50883 0.0
C390 C 0.72443 0.81878 0.49945 0.0
C391 C 0.6891 0.82748 0.50595 0.0
C392 C 0.71623 0.76236 0.52809 0.0
H393 H 0.72608 0.7377 0.53866 0.0
C394 C 0.68045 0.77027 0.5327 0.0
H395 H 0.7407 0.83791 0.48596 0.0
C396 C 0.66696 0.80291 0.52216 0.0
H397 H 0.6396 0.80936 0.52744 0.0
H398 H 0.6634 0.75151 0.54568 0.0
H399 H 0.79792 0.19129 0.53418 0.0
C400 C 0.80448 0.21771 0.52579 0.0
C401 C 0.83585 0.22371 0.50653 0.0
C402 C 0.78234 0.24582 0.53582 0.0
H403 H 0.86853 0.26341 0.48238 0.0
C404 C 0.84423 0.25829 0.49669 0.0
C405 C 0.82418 0.28663 0.50972 0.0
C406 C 0.79263 0.28032 0.52811 0.0
C407 C 0.7501 0.23945 0.55717 0.0
H408 H 0.7771 0.30236 0.53801 0.0
C409 C 0.72388 0.21668 0.5443 0.0
C410 C 0.69287 0.21154 0.56424 0.0
C411 C 0.74521 0.25658 0.59043 0.0
H412 H 0.76514 0.27411 0.60095 0.0
C413 C 0.71476 0.25089 0.6106 0.0
H414 H 0.72718 0.20363 0.51848 0.0
C415 C 0.68865 0.22849 0.59761 0.0
H416 H 0.66499 0.22461 0.61335 0.0
H417 H 0.7113 0.26404 0.63628 0.0
H418 H 0.1789 0.79388 0.52915 0.0
C419 C 0.20565 0.80327 0.52648 0.0
C420 C 0.21126 0.83795 0.51515 0.0
C421 C 0.2344 0.78134 0.53559 0.0
H422 H 0.24967 0.87814 0.50561 0.0
C423 C 0.24554 0.85097 0.51321 0.0
C424 C 0.27438 0.82992 0.52276 0.0
C425 C 0.26889 0.7949 0.53315 0.0
C426 C 0.22832 0.74529 0.54991 0.0
H427 H 0.29142 0.77876 0.54044 0.0
C428 C 0.20227 0.72325 0.53497 0.0
C429 C 0.19676 0.68938 0.54899 0.0
C430 C 0.24829 0.73289 0.57933 0.0
H431 H 0.26796 0.74932 0.59199 0.0
C432 C 0.24268 0.69934 0.59324 0.0
H433 H 0.18678 0.73201 0.5121 0.0
C434 C 0.21717 0.67761 0.5781 0.0
H435 H 0.21338 0.65153 0.58897 0.0
H436 H 0.2582 0.69014 0.61587 0.0
H437 H 0.21334 0.23637 0.53894 0.0
C438 C 0.23627 0.22166 0.52992 0.0
C439 C 0.23354 0.18525 0.52427 0.0
C440 C 0.2677 0.23933 0.52208 0.0
H441 H 0.26262 0.13758 0.51328 0.0
C442 C 0.26411 0.16593 0.51567 0.0
C443 C 0.29651 0.18266 0.51003 0.0
C444 C 0.29735 0.21965 0.51086 0.0
C445 C 0.26961 0.27823 0.52594 0.0
H446 H 0.32162 0.23295 0.50424 0.0
C447 C 0.24154 0.30001 0.51444 0.0
C448 C 0.24372 0.33675 0.51786 0.0
C449 C 0.29958 0.29388 0.54133 0.0
H450 H 0.32133 0.27788 0.55099 0.0
C451 C 0.30159 0.33036 0.54494 0.0
H452 H 0.21836 0.28862 0.50209 0.0
C453 C 0.27388 0.35175 0.53318 0.0
H454 H 0.27592 0.38003 0.53595 0.0
H455 H 0.32475 0.3421 0.55687 0.0
Zn456 Zn 0.94568 0.99478 0.42835 0.0
Zn457 Zn 0.9446 0.07576 0.44074 0.0
O458 O 0.97897 0.03595 0.43234 0.0
H459 H 0.00092 0.03687 0.41923 0.0
C460 C 0.90186 0.93835 0.54014 0.0
O461 O 0.886 0.96592 0.52613 0.0
Zn462 Zn 0.08731 0.06424 0.57107 0.0
Zn463 Zn 0.08314 0.98158 0.59039 0.0
O464 O 0.05606 0.02115 0.56737 0.0
H465 H 0.03317 0.01896 0.55627 0.0
Zn466 Zn 0.94076 0.9926 0.57776 0.0
O467 O 0.96098 0.02535 0.54101 0.0
Zn468 Zn 0.96432 0.06963 0.56977 0.0
H469 H 0.97436 0.01898 0.51981 0.0
Zn470 Zn 0.0625 0.99324 0.44448 0.0
O471 O 0.05515 0.03676 0.47486 0.0
H472 H 0.03965 0.03747 0.49544 0.0
Zn473 Zn 0.06374 0.07853 0.44332 0.0
C474 C 0.11689 0.95032 0.47675 0.0
O475 O 0.13307 0.98069 0.47562 0.0
O476 O 0.90112 0.00994 0.4009 0.0
O477 O 0.89901 0.06673 0.41339 0.0
O478 O 0.11634 0.00276 0.62662 0.0
O479 O 0.13016 0.05515 0.60402 0.0
O480 O 0.91432 0.01735 0.61919 0.0
O481 O 0.9455 0.0664 0.62009 0.0
C482 C -0.00259 0.12302 0.4196 0.0
O483 O 0.07794 0.00533 0.39343 0.0
O484 O 0.0798 0.06381 0.39308 0.0
O485 O 0.06171 0.93386 0.60608 0.0
C486 C 0.88586 0.03968 0.39808 0.0
O487 O 0.96542 0.94731 0.40965 0.0
C488 C 0.02864 0.10208 0.59606 0.0
O489 O 0.9268 0.94262 0.56248 0.0
C490 C 0.13365 0.03118 0.62793 0.0
O491 O 0.08514 0.94829 0.46621 0.0
C492 C 0.92876 0.10658 0.51301 0.0
O493 O 0.96421 0.11993 0.42027 0.0
O494 O 0.01565 0.10022 0.43651 0.0
C495 C 0.92207 0.04678 0.6335 0.0
O496 O 0.06179 0.10166 0.59884 0.0
O497 O 0.01451 0.08229 0.57273 0.0
C498 C 0.10898 0.10436 0.50141 0.0
O499 O 0.93558 0.10727 0.54642 0.0
O500 O 0.94126 0.0817 0.49399 0.0
C501 C 0.08384 0.03418 0.37733 0.0
O502 O 0.10053 0.10883 0.4684 0.0
O503 O 0.0924 0.08158 0.51958 0.0
C504 C 0.03609 0.91759 0.59189 0.0
O505 O 0.01955 0.93106 0.56398 0.0
C506 C 0.98624 0.92519 0.42412 0.0
O507 O -0.00025 0.93119 0.45613 0.0
Zn508 Zn 0.42546 0.03838 0.0392 0.0
Zn509 Zn 0.46091 0.07677 0.98389 0.0
O510 O 0.47634 0.04571 0.02437 0.0
H511 H 0.49587 0.04944 0.04063 0.0
C512 C 0.5066 0.15038 0.06886 0.0
O513 O 0.48914 0.12571 0.05185 0.0
Zn514 Zn 0.56455 0.95649 0.94143 0.0
Zn515 Zn 0.55807 0.96969 0.02712 0.0
O516 O 0.53799 0.98532 0.97811 0.0
H517 H 0.52526 0.00695 0.97358 0.0
Zn518 Zn 0.5647 0.13215 0.01819 0.0
O519 O 0.55412 0.08129 0.00702 0.0
Zn520 Zn 0.57826 0.08276 0.95986 0.0
H521 H 0.55599 0.10486 0.0165 0.0
Zn522 Zn 0.47096 0.92031 0.0388 0.0
O523 O 0.5005 0.92828 0.99426 0.0
H524 H 0.49025 0.92319 0.01742 0.0
Zn525 Zn 0.46381 0.94608 0.96045 0.0
C526 C 0.51717 0.91503 0.10272 0.0
O527 O 0.52809 0.94625 0.09303 0.0
O528 O 0.39436 0.08311 0.03572 0.0
O529 O 0.429 0.11573 0.00154 0.0
O530 O 0.59858 0.93321 0.0242 0.0
O531 O 0.60004 0.92464 0.96503 0.0
O532 O 0.61713 0.14307 0.00883 0.0
O533 O 0.62679 0.10402 0.96497 0.0
C534 C 0.43635 0.0154 0.94617 0.0
O535 O 0.42038 0.90483 0.02764 0.0
O536 O 0.41599 0.924 0.97145 0.0
O537 O 0.57084 0.00579 0.06691 0.0
C538 C 0.40172 0.11234 0.02114 0.0
O539 O 0.4159 0.01115 0.08585 0.0
C540 C 0.60253 0.01863 0.92127 0.0
O541 O 0.53806 0.15735 0.05982 0.0
C542 C 0.61212 0.91892 -0.00355 0.0
O543 O 0.49379 0.89943 0.08431 0.0
C544 C 0.51455 0.10788 0.93068 0.0
O545 O 0.4337 0.04853 0.94902 0.0
O546 O 0.45817 0.9984 0.96542 0.0
C547 C 0.63757 0.12818 0.9861 0.0
O548 O 0.59856 0.98646 0.91333 0.0
O549 O 0.58045 0.03324 0.94216 0.0
C550 C 0.50422 0.91807 0.89608 0.0
O551 O 0.54754 0.10957 0.92517 0.0
O552 O 0.50435 0.09426 0.96 0.0
C553 C 0.4029 0.90831 -0.00144 0.0
O554 O 0.4758 0.92899 0.91068 0.0
O555 O 0.53464 0.92669 0.90768 0.0
C556 C 0.59798 0.02425 0.0612 0.0
O557 O 0.61257 0.02361 0.02916 0.0
C558 C 0.3834 0.00489 0.08971 0.0
O559 O 0.36139 0.01378 0.06389 0.0
Zn560 Zn 0.9621 0.48906 0.905 0.0
Zn561 Zn 0.9417 0.56014 0.9461 0.0
O562 O 0.97931 0.52231 0.94376 0.0
H563 H -0.00651 0.51376 0.96348 0.0
C564 C 0.93575 0.44249 0.03892 0.0
O565 O 0.91557 0.47065 0.0373 0.0
Zn566 Zn 0.0836 0.57249 0.05906 0.0
Zn567 Zn 0.0778 0.50552 0.10509 0.0
O568 O 0.0542 0.52901 0.06265 0.0
H569 H 0.04381 0.51633 0.04278 0.0
Zn570 Zn 0.97363 0.49328 0.07562 0.0
O571 O 0.97196 0.53382 0.04095 0.0
Zn572 Zn 0.96455 0.57471 0.07348 0.0
H573 H 0.98666 0.53481 0.01984 0.0
Zn574 Zn 0.0863 0.50263 0.93377 0.0
O575 O 0.06097 0.54001 0.96225 0.0
H576 H 0.04714 0.5361 0.98361 0.0
Zn577 Zn 0.05968 0.5832 0.93147 0.0
C578 C 0.12704 0.45292 0.97734 0.0
O579 O 0.14499 0.48154 0.98437 0.0
O580 O 0.91015 0.49712 0.89307 0.0
O581 O 0.89456 0.53982 0.93119 0.0
O582 O 0.12988 0.51801 0.11062 0.0
O583 O 0.13427 0.56135 0.07065 0.0
O584 O 0.93927 0.50225 0.11725 0.0
O585 O 0.93403 0.56056 0.11635 0.0
C586 C 0.98348 0.60634 0.90338 0.0
O587 O 0.11689 0.52389 0.89427 0.0
O588 O 0.0924 0.57718 0.88797 0.0
O589 O 0.06008 0.45781 0.12439 0.0
C590 C 0.88687 0.51687 0.90742 0.0
O591 O 0.97781 0.43659 0.9017 0.0
C592 C 0.03449 0.60909 0.10269 0.0
O593 O 0.9661 0.4447 0.053 0.0
C594 C 0.14804 0.54042 0.0935 0.0
O595 O 0.10023 0.45472 0.95688 0.0
C596 C 0.93107 0.6089 0.01315 0.0
O597 O 0.95195 0.59774 0.90996 0.0
O598 O 0.00801 0.59046 0.9203 0.0
C599 C 0.92583 0.53066 0.12933 0.0
O600 O 0.06726 0.60752 0.0963 0.0
O601 O 0.0143 0.59008 0.08364 0.0
C602 C 0.08428 0.62063 0.99397 0.0
O603 O 0.93821 0.61211 0.04647 0.0
O604 O 0.94202 0.58149 -0.00343 0.0
C605 C 0.11484 0.55358 0.87857 0.0
O606 O 0.0777 0.62427 0.96062 0.0
O607 O 0.07833 0.59116 0.00864 0.0
C608 C 0.0453 0.43542 0.10403 0.0
O609 O 0.04033 0.44258 0.0698 0.0
C610 C 0.00769 0.42533 0.89121 0.0
O611 O 0.03166 0.44867 0.88288 0.0
Zn612 Zn 0.45928 0.47294 0.98902 0.0
Zn613 Zn 0.47591 0.47128 0.07344 0.0
O614 O 0.48027 0.5013 0.02988 0.0
H615 H 0.49837 0.51874 0.02736 0.0
C616 C 0.5257 0.39233 0.92419 0.0
O617 O 0.5225 0.42658 0.9276 0.0
Zn618 Zn 0.58547 0.57989 0.0511 0.0
Zn619 Zn 0.5801 0.58203 0.96717 0.0
O620 O 0.57273 0.54899 0.00895 0.0
H621 H 0.55657 0.52953 0.00895 0.0
Zn622 Zn 0.56886 0.39774 0.99149 0.0
O623 O 0.55562 0.44614 0.01072 0.0
Zn624 Zn 0.59168 0.45234 0.04997 0.0
H625 H 0.54278 0.46438 -0.00187 0.0
Zn626 Zn 0.4783 0.63984 0.98953 0.0
O627 O 0.48891 0.5922 0.01158 0.0
H628 H 0.48938 0.57081 -0.00249 0.0
Zn629 Zn 0.46588 0.60065 0.06004 0.0
C630 C 0.50559 0.63682 0.91285 0.0
O631 O 0.50461 0.60243 0.9155 0.0
O632 O 0.42867 0.4322 0.00648 0.0
O633 O 0.44267 0.43052 0.06484 0.0
O634 O 0.62227 0.61391 0.97708 0.0
O635 O 0.62208 0.61541 0.03703 0.0
O636 O 0.62096 0.38496 0.00066 0.0
O637 O 0.63797 0.42916 0.0363 0.0
C638 C 0.45263 0.53532 0.11445 0.0
O639 O 0.4306 0.65999 0.0056 0.0
O640 O 0.41902 0.62643 0.0532 0.0
O641 O 0.57378 0.56432 0.91459 0.0
C642 C 0.42573 0.41868 0.03769 0.0
O643 O 0.44797 0.49608 0.93963 0.0
C644 C 0.60633 0.51808 0.08899 0.0
O645 O 0.5432 0.37494 0.94741 0.0
C646 C 0.63487 0.62486 0.00688 0.0
O647 O 0.49685 0.65603 0.93951 0.0
C648 C 0.54229 0.42843 0.09971 0.0
O649 O 0.45707 0.50201 0.11387 0.0
O650 O 0.46144 0.55277 0.08639 0.0
C651 C 0.64467 0.40129 0.01822 0.0
O652 O 0.6045 0.55125 0.09223 0.0
O653 O 0.59549 0.50378 0.06018 0.0
C654 C 0.53024 0.62508 0.08911 0.0
O655 O 0.57508 0.42689 0.09361 0.0
O656 O 0.5247 0.45225 0.08344 0.0
C657 C 0.4103 0.65052 0.03096 0.0
O658 O 0.49767 0.63201 0.08997 0.0
O659 O 0.54101 0.60371 0.06519 0.0
C660 C 0.59687 0.54248 0.90371 0.0
O661 O 0.62085 0.53099 0.92644 0.0
C662 C 0.41818 0.51104 0.93577 0.0
O663 O 0.3962 0.51225 0.96305 0.0
Zn664 Zn 0.96749 0.50685 0.43027 0.0
Zn665 Zn 0.93781 0.57015 0.46973 0.0
O666 O 0.97002 0.52887 0.48089 0.0
H667 H 0.97222 0.51446 0.45951 0.0
C668 C 0.88669 0.42468 0.51687 0.0
O669 O 0.86665 0.45282 0.51403 0.0
Zn670 Zn 0.07233 0.56251 0.55583 0.0
Zn671 Zn 0.08803 0.48749 0.58974 0.0
O672 O 0.05238 0.51475 0.56061 0.0
H673 H 0.02939 0.50723 0.55261 0.0
Zn674 Zn 0.93242 0.4731 0.55708 0.0
O675 O 0.92497 0.521 0.5346 0.0
Zn676 Zn 0.93713 0.55316 0.57591 0.0
H677 H 0.90705 0.52551 0.51665 0.0
Zn678 Zn 0.07669 0.46886 0.43729 0.0
O679 O 0.06423 0.51113 0.46759 0.0
H680 H 0.05272 0.5091 0.49062 0.0
Zn681 Zn 0.06087 0.55326 0.43522 0.0
C682 C 0.1393 0.43734 0.46909 0.0
O683 O 0.15071 0.46947 0.4642 0.0
O684 O 0.91935 0.5136 0.40575 0.0
O685 O 0.89543 0.5541 0.44143 0.0
O686 O 0.12955 0.51742 0.60834 0.0
O687 O 0.1205 0.56749 0.57899 0.0
O688 O 0.91469 0.4746 0.60893 0.0
O689 O 0.92122 0.53057 0.62293 0.0
C690 C -0.0058 0.59572 0.42593 0.0
O691 O 0.09225 0.48469 0.38732 0.0
O692 O 0.07592 0.54078 0.38442 0.0
O693 O 0.06996 0.446 0.62023 0.0
C694 C 0.89335 0.53281 0.41506 0.0
O695 O -0.0071 0.46103 0.41321 0.0
C696 C 0.00603 0.59383 0.58338 0.0
O697 O 0.91692 0.4272 0.53137 0.0
C698 C 0.1388 0.54861 0.60037 0.0
O699 O 0.10792 0.42973 0.46033 0.0
C700 C 0.90349 0.61038 0.54036 0.0
O701 O 0.9627 0.6021 0.43558 0.0
O702 O 0.01174 0.57207 0.44209 0.0
C703 C 0.91238 0.49942 0.63181 0.0
O704 O 0.03907 0.59643 0.57866 0.0
O705 O 0.98973 0.56608 0.57363 0.0
C706 C 0.0959 0.59309 0.48596 0.0
O707 O 0.90758 0.59633 0.57092 0.0
O708 O 0.91686 0.59464 0.51329 0.0
C709 C 0.08976 0.51344 0.36995 0.0
O710 O 0.09451 0.59074 0.45198 0.0
O711 O 0.07618 0.5729 0.50389 0.0
C712 C 0.03858 0.43516 0.61652 0.0
O713 O 0.01763 0.44974 0.59258 0.0
C714 C 0.97602 0.43291 0.41893 0.0
O715 O 0.94799 0.43413 0.43956 0.0
Zn716 Zn 0.44998 0.97642 0.43332 0.0
Zn717 Zn 0.43207 0.0574 0.44349 0.0
O718 O 0.47359 0.02449 0.43572 0.0
H719 H 0.49501 0.02998 0.42298 0.0
C720 C 0.38726 0.92665 0.53187 0.0
O721 O 0.37322 0.95435 0.54767 0.0
Zn722 Zn 0.57465 0.07654 0.5652 0.0
Zn723 Zn 0.58175 0.99796 0.59241 0.0
O724 O 0.55329 0.02904 0.55992 0.0
H725 H 0.53651 0.02159 0.54194 0.0
Zn726 Zn 0.4442 0.96591 0.5567 0.0
O727 O 0.46402 0.01086 0.53551 0.0
Zn728 Zn 0.45395 0.04902 0.57232 0.0
H729 H 0.47735 0.01304 0.51349 0.0
Zn730 Zn 0.60309 0.02935 0.45017 0.0
O731 O 0.5559 0.04755 0.46691 0.0
H732 H 0.53735 0.03393 0.47769 0.0
Zn733 Zn 0.55021 0.09294 0.44042 0.0
C734 C 0.64581 0.971 0.47748 0.0
O735 O 0.66678 0.99691 0.48647 0.0
O736 O 0.40301 0.98144 0.4066 0.0
O737 O 0.38874 0.03719 0.41808 0.0
O738 O 0.62107 0.02357 0.6198 0.0
O739 O 0.6232 0.07423 0.58967 0.0
O740 O 0.42182 0.97349 0.60618 0.0
O741 O 0.4355 0.02895 0.61854 0.0
C742 C 0.47355 0.11568 0.41892 0.0
O743 O 0.61517 0.04837 0.40008 0.0
O744 O 0.57306 0.08886 0.39147 0.0
O745 O 0.56313 0.94896 0.60725 0.0
C746 C 0.38213 0.00758 0.4033 0.0
O747 O 0.47758 0.93034 0.41988 0.0
C748 C 0.51314 0.09734 0.60477 0.0
O749 O 0.42051 0.92515 0.52831 0.0
C750 C 0.63534 0.05318 0.6136 0.0
O751 O 0.61683 0.97769 0.4617 0.0
C752 C 0.41042 0.08382 0.51833 0.0
O753 O 0.44217 0.10442 0.42067 0.0
O754 O 0.49749 0.09831 0.43514 0.0
C755 C 0.42186 0.99975 0.62742 0.0
O756 O 0.54525 0.10478 0.5996 0.0
O757 O 0.4988 0.07573 0.58292 0.0
C758 C 0.58486 0.12434 0.50079 0.0
O759 O 0.41672 0.08172 0.5519 0.0
O760 O 0.42705 0.06333 0.49711 0.0
C761 C 0.59966 0.07117 0.38045 0.0
O762 O 0.57676 0.13072 0.46819 0.0
O763 O 0.57167 0.09759 0.51573 0.0
C764 C 0.56284 0.92366 0.5848 0.0
O765 O 0.57455 0.9284 0.5519 0.0
C766 C 0.4991 0.93078 0.3937 0.0
O767 O 0.50628 0.96081 0.37812 0.0
C768 C 0.19543 0.13441 0.54379 0.0
C769 C 0.19866 0.16715 0.52567 0.0
C770 C 0.1367 0.16271 0.50883 0.0
C771 C 0.13697 0.12661 0.51738 0.0
N772 N 0.16981 0.0766 0.54024 0.0
N773 N 0.17185 0.20846 0.48353 0.0
C774 C 0.167 0.11195 0.53469 0.0
C775 C 0.16901 0.18066 0.50651 0.0
N776 N 0.21915 0.1249 0.56971 0.0
N777 N 0.1056 0.17976 0.50278 0.0
H778 H 0.19571 0.22001 0.47686 0.0
H779 H 0.15088 0.21695 0.46747 0.0
H780 H 0.08151 0.16729 0.50664 0.0
H781 H 0.10411 0.20687 0.49876 0.0
H782 H 0.21628 0.10233 0.58528 0.0
H783 H 0.23921 0.14161 0.57824 0.0
H784 H 0.19292 0.06474 0.54959 0.0
H785 H 0.15025 0.05889 0.53292 0.0
C786 C 0.89775 0.19784 0.50978 0.0
C787 C 0.86155 0.19423 0.50014 0.0
C788 C 0.87168 0.13121 0.49004 0.0
C789 C 0.90787 0.13581 0.49777 0.0
N790 N 0.95684 0.1751 0.50086 0.0
N791 N 0.81757 0.15907 0.46992 0.0
C792 C 0.92137 0.16989 0.50221 0.0
C793 C 0.84963 0.1614 0.48644 0.0
N794 N 0.9092 0.22589 0.52958 0.0
N795 N 0.85791 0.09823 0.48835 0.0
H796 H 0.8018 0.18109 0.46483 0.0
H797 H 0.80837 0.13597 0.4582 0.0
H798 H 0.87353 0.07557 0.48958 0.0
H799 H 0.83089 0.09359 0.48757 0.0
H800 H 0.93501 0.22789 0.53896 0.0
H801 H 0.89232 0.24462 0.54081 0.0
H802 H 0.96794 0.20009 0.5015 0.0
H803 H 0.97445 0.15453 0.49539 0.0
C804 C 0.86571 0.84706 0.55633 0.0
C805 C 0.85984 0.8356 0.5205 0.0
C806 C 0.88624 0.88963 0.49729 0.0
C807 C 0.88827 0.90267 0.53316 0.0
N808 N 0.87358 0.8967 0.59621 0.0
N809 N 0.86332 0.84503 0.45652 0.0
C810 C 0.87672 0.88204 0.56262 0.0
C811 C 0.86995 0.85659 0.49079 0.0
N812 N 0.86038 0.82457 0.58442 0.0
N813 N 0.90043 0.9086 0.4697 0.0
H814 H 0.85321 0.82014 0.45105 0.0
H815 H 0.86649 0.86027 0.43357 0.0
H816 H 0.91339 0.93237 0.47371 0.0
H817 H 0.90173 0.89993 0.44313 0.0
H818 H 0.86771 0.83018 0.61086 0.0
H819 H 0.8515 0.79893 0.58093 0.0
H820 H 0.86152 0.88415 0.61775 0.0
H821 H 0.87972 0.92278 0.60198 0.0
C822 C 0.17196 0.88801 0.53374 0.0
C823 C 0.18145 0.86233 0.50755 0.0
C824 C 0.14561 0.89245 0.46197 0.0
C825 C 0.13649 0.91842 0.48802 0.0
N826 N 0.13519 0.93825 0.54965 0.0
N827 N 0.17248 0.83556 0.44941 0.0
C828 C 0.1479 0.91531 0.52428 0.0
C829 C 0.16647 0.863 0.47255 0.0
N830 N 0.18691 0.88677 0.56728 0.0
N831 N 0.13621 0.8971 0.42668 0.0
H832 H 0.1885 0.81412 0.45598 0.0
H833 H 0.15951 0.83251 0.42489 0.0
H834 H 0.12087 0.91821 0.41776 0.0
H835 H 0.14549 0.88146 0.40563 0.0
H836 H 0.18476 0.90684 0.5863 0.0
H837 H 0.20291 0.86595 0.57578 0.0
H838 H 0.13956 0.93572 0.57721 0.0
H839 H 0.1179 0.95874 0.54328 0.0
C840 C 0.50352 0.19314 0.15968 0.0
C841 C 0.47523 0.2175 0.15524 0.0
C842 C 0.4627 0.19301 0.09544 0.0
C843 C 0.49102 0.16894 0.10008 0.0
N844 N 0.52947 0.13777 0.14066 0.0
N845 N 0.42195 0.23391 0.12405 0.0
C846 C 0.50832 0.16617 0.13371 0.0
C847 C 0.45263 0.21493 0.12484 0.0
N848 N 0.5276 0.19724 0.18679 0.0
N849 N 0.44696 0.19656 0.06249 0.0
H850 H 0.41402 0.2499 0.14553 0.0
H851 H 0.40305 0.23127 0.10387 0.0
H852 H 0.45342 0.18071 0.04045 0.0
H853 H 0.42892 0.21645 0.05645 0.0
H854 H 0.55082 0.18253 0.18837 0.0
H855 H 0.52628 0.2172 0.206 0.0
H856 H 0.54051 0.13283 0.16588 0.0
H857 H 0.53257 0.11718 0.12224 0.0
C858 C 0.83837 0.53872 0.17961 0.0
C859 C 0.84436 0.5144 0.20789 0.0
C860 C 0.9057 0.50749 0.18868 0.0
C861 C 0.89853 0.52805 0.15772 0.0
N862 N 0.85541 0.55754 0.12002 0.0
N863 N 0.88166 0.46975 0.23456 0.0
C864 C 0.86417 0.54231 0.15216 0.0
C865 C 0.87747 0.49706 0.21105 0.0
N866 N 0.80855 0.55909 0.17941 0.0
N867 N 0.93965 0.49882 0.19739 0.0
H868 H 0.86123 0.46044 0.25059 0.0
H869 H 0.90426 0.45405 0.23535 0.0
H870 H 0.96119 0.50689 0.18218 0.0
H871 H 0.9466 0.48679 0.22159 0.0
H872 H 0.8047 0.57985 0.16155 0.0
H873 H 0.78909 0.55737 0.1991 0.0
H874 H 0.82971 0.56486 0.11336 0.0
H875 H 0.87291 0.55981 0.09858 0.0
C876 C 0.57349 0.87314 0.17617 0.0
C877 C 0.54642 0.86018 0.19874 0.0
C878 C 0.50214 0.89111 0.16282 0.0
C879 C 0.52839 0.89951 0.13727 0.0
N880 N 0.58885 0.89607 0.11743 0.0
N881 N 0.48433 0.85172 0.21011 0.0
C882 C 0.56415 0.89016 0.14342 0.0
C883 C 0.51053 0.86783 0.19121 0.0
N884 N 0.60795 0.86986 0.18643 0.0
N885 N 0.46943 0.90625 0.16053 0.0
H886 H 0.48917 0.8336 0.23058 0.0
H887 H 0.4578 0.85371 0.2031 0.0
H888 H 0.46279 0.92457 0.14075 0.0
H889 H 0.4503 0.90367 0.18043 0.0
H890 H 0.62861 0.8819 0.17292 0.0
H891 H 0.61565 0.85757 0.2103 0.0
H892 H 0.61455 0.88635 0.11874 0.0
H893 H 0.58302 0.90859 0.09318 0.0
C894 C 0.23021 0.57767 0.13601 0.0
C895 C 0.24902 0.54594 0.14155 0.0
C896 C 0.20812 0.51523 0.10192 0.0
C897 C 0.18517 0.54472 0.10382 0.0
N898 N 0.17301 0.60365 0.12586 0.0
N899 N 0.25701 0.48405 0.12959 0.0
C900 C 0.19607 0.57626 0.12093 0.0
C901 C 0.23875 0.51461 0.12386 0.0
N902 N 0.24468 0.60892 0.14627 0.0
N903 N 0.20043 0.48805 0.07918 0.0
H904 H 0.28004 0.48294 0.14493 0.0
H905 H 0.24834 0.45958 0.12073 0.0
H906 H 0.17867 0.4889 0.06198 0.0
H907 H 0.21729 0.46677 0.07466 0.0
H908 H 0.23337 0.63322 0.14009 0.0
H909 H 0.26982 0.61045 0.1576 0.0
H910 H 0.17861 0.62527 0.14215 0.0
H911 H 0.1473 0.60392 0.11602 0.0
C912 C 0.52802 0.86142 0.81502 0.0
C913 C 0.50433 0.83299 0.81926 0.0
C914 C 0.48033 0.8605 0.87346 0.0
C915 C 0.50196 0.89037 0.86788 0.0
N916 N 0.53948 0.92285 0.82775 0.0
N917 N 0.45024 0.81196 0.84521 0.0
C918 C 0.52362 0.89202 0.83679 0.0
C919 C 0.47779 0.83485 0.84596 0.0
N920 N 0.55575 0.85864 0.79176 0.0
N921 N 0.46457 0.85468 0.90598 0.0
H922 H 0.44711 0.79326 0.82482 0.0
H923 H 0.42871 0.81428 0.8625 0.0
H924 H 0.46818 0.8706 0.92856 0.0
H925 H 0.45133 0.83149 0.91185 0.0
H926 H 0.57577 0.87718 0.79052 0.0
H927 H 0.56049 0.83642 0.77593 0.0
H928 H 0.55306 0.92629 0.80366 0.0
H929 H 0.53583 0.946 0.84251 0.0
C930 C 0.17592 0.53873 0.7994 0.0
C931 C 0.19493 0.57069 0.79883 0.0
C932 C 0.16253 0.5912 0.85196 0.0
C933 C 0.1407 0.56104 0.84979 0.0
N934 N 0.12175 0.51012 0.81612 0.0
N935 N 0.20128 0.63043 0.81992 0.0
C936 C 0.14597 0.53595 0.82191 0.0
C937 C 0.18675 0.5979 0.82373 0.0
N938 N 0.18714 0.51057 0.77936 0.0
N939 N 0.16171 0.61243 0.88177 0.0
H940 H 0.21888 0.63653 0.79936 0.0
H941 H 0.19333 0.65216 0.83513 0.0
H942 H 0.14554 0.60789 0.9039 0.0
H943 H 0.17973 0.63253 0.88613 0.0
H944 H 0.17621 0.48563 0.78156 0.0
H945 H 0.20967 0.51116 0.76332 0.0
H946 H 0.12267 0.49319 0.794 0.0
H947 H 0.09866 0.50805 0.83116 0.0
C948 C 0.49374 0.11707 0.83496 0.0
C949 C 0.46747 0.14402 0.83397 0.0
C950 C 0.4651 0.14228 0.90026 0.0
C951 C 0.4905 0.11488 0.89999 0.0
N952 N 0.51411 0.0659 0.86691 0.0
N953 N 0.41909 0.17168 0.86608 0.0
C954 C 0.4991 0.09847 0.86716 0.0
C955 C 0.45 0.15318 0.86682 0.0
N956 N 0.51672 0.1117 0.80724 0.0
N957 N 0.45668 0.15892 0.9317 0.0
H958 H 0.40653 0.17826 0.84196 0.0
H959 H 0.4043 0.17689 0.88917 0.0
H960 H 0.46771 0.15155 0.95632 0.0
H961 H 0.44062 0.18126 0.93276 0.0
H962 H 0.53754 0.09369 0.80866 0.0
H963 H 0.51859 0.1286 0.78553 0.0
H964 H 0.51915 0.05209 0.84309 0.0
H965 H 0.51848 0.05193 0.8907 0.0
C966 C 0.81106 0.47321 0.86384 0.0
C967 C 0.80066 0.50022 0.83995 0.0
C968 C 0.8374 0.54269 0.87138 0.0
C969 C 0.85081 0.51481 0.89286 0.0
N970 N 0.84185 0.45804 0.91917 0.0
N971 N 0.79244 0.56195 0.82913 0.0
C972 C 0.83437 0.48155 0.89249 0.0
C973 C 0.8096 0.53557 0.84701 0.0
N974 N 0.80047 0.43951 0.85767 0.0
N975 N 0.85328 0.57481 0.87156 0.0
H976 H 0.77223 0.55693 0.81075 0.0
H977 H 0.79575 0.5885 0.8351 0.0
H978 H 0.87351 0.58152 0.88919 0.0
H979 H 0.84755 0.59446 0.85293 0.0
H980 H 0.81031 0.4179 0.87169 0.0
H981 H 0.78248 0.43321 0.83739 0.0
H982 H 0.82895 0.43416 0.92203 0.0
H983 H 0.85866 0.46436 0.9405 0.0
C984 C 0.70049 0.69035 0.97214 0.0
C985 C 0.72774 0.68811 -0.00168 0.0
C986 C 0.69501 0.64251 0.02966 0.0
C987 C 0.66589 0.64819 0.00611 0.0
N988 N 0.6379 0.68618 0.96226 0.0
N989 N 0.74594 0.66894 0.05758 0.0
C990 C 0.66763 0.67485 0.97961 0.0
C991 C 0.72344 0.66641 0.02894 0.0
N992 N 0.70627 0.70565 0.93945 0.0
N993 N 0.69696 0.61335 0.05099 0.0
H994 H 0.76637 0.6871 0.05861 0.0
H995 H 0.74184 0.65568 0.08173 0.0
H996 H 0.6784 0.59334 0.0505 0.0
H997 H 0.71933 0.60699 0.06604 0.0
H998 H 0.68776 0.70508 0.91865 0.0
H999 H 0.73075 0.71519 0.93161 0.0
H1000 H 0.63781 0.70759 0.94479 0.0
H1001 H 0.61282 0.67711 0.96868 0.0
C1002 C 0.3441 0.71708 0.06666 0.0
C1003 C 0.32157 0.71964 0.03633 0.0
C1004 C 0.35085 0.66868 0.00886 0.0
C1005 C 0.37712 0.67037 0.03598 0.0
N1006 N 0.40099 0.69832 0.08915 0.0
N1007 N 0.30306 0.69877 0.97794 0.0
C1008 C 0.37407 0.69468 0.06492 0.0
C1009 C 0.32445 0.69533 0.00741 0.0
N1010 N 0.33693 0.73641 0.09693 0.0
N1011 N 0.35123 0.64145 0.98472 0.0
H1012 H 0.2828 0.71741 0.97649 0.0
H1013 H 0.30655 0.68453 0.95419 0.0
H1014 H 0.37005 0.62133 0.98579 0.0
H1015 H 0.33131 0.63701 0.96597 0.0
H1016 H 0.35043 0.73317 0.12116 0.0
H1017 H 0.3152 0.7533 0.09881 0.0
H1018 H 0.40195 0.71838 0.10829 0.0
H1019 H 0.4239 0.68305 0.08839 0.0
C1020 C 0.3562 0.35651 0.07439 0.0
C1021 C 0.35468 0.33159 0.0459 0.0
C1022 C 0.40455 0.35999 0.01684 0.0
C1023 C 0.40239 0.38799 0.04208 0.0
N1024 N 0.37084 0.41607 0.09118 0.0
N1025 N 0.37227 0.31488 0.98551 0.0
C1026 C 0.37683 0.38717 0.07001 0.0
C1027 C 0.37737 0.33483 0.01576 0.0
N1028 N 0.33886 0.35052 0.10598 0.0
N1029 N 0.43324 0.35648 0.99489 0.0
H1030 H 0.35154 0.29724 0.98278 0.0
H1031 H 0.38631 0.31875 0.96175 0.0
H1032 H 0.45492 0.37309 -0.00349 0.0
H1033 H 0.43725 0.33472 0.97819 0.0
H1034 H 0.34199 0.36629 0.12877 0.0
H1035 H 0.32419 0.32791 0.11057 0.0
H1036 H 0.35009 0.4177 0.10948 0.0
H1037 H 0.38407 0.43974 0.08794 0.0
C1038 C 0.7292 0.35736 0.05066 0.0
C1039 C 0.74625 0.35141 0.01722 0.0
C1040 C 0.69974 0.38417 0.98579 0.0
C1041 C 0.6807 0.38649 0.01854 0.0
N1042 N 0.67477 0.37186 0.08152 0.0
N1043 N 0.74698 0.35594 0.95238 0.0
C1044 C 0.69484 0.37245 0.05095 0.0
C1045 C 0.73137 0.36404 0.98459 0.0
N1046 N 0.74608 0.34901 0.08209 0.0
N1047 N 0.68805 0.40211 0.95616 0.0
H1048 H 0.77067 0.34198 0.95039 0.0
H1049 H 0.73531 0.36085 0.92748 0.0
H1050 H 0.66511 0.4174 0.95626 0.0
H1051 H 0.70256 0.40449 0.93252 0.0
H1052 H 0.73675 0.3563 0.10743 0.0
H1053 H 0.77098 0.3372 0.08277 0.0
H1054 H 0.68209 0.35848 0.10481 0.0
H1055 H 0.64945 0.38262 0.08297 0.0
C1056 C 0.97227 0.68585 0.60125 0.0
C1057 C 0.98406 0.68926 0.63756 0.0
C1058 C -0.00609 0.62558 0.63955 0.0
C1059 C 0.9887 0.62345 0.60202 0.0
N1060 N 0.97728 0.65252 0.54562 0.0
N1061 N 0.01657 0.66238 0.68683 0.0
C1062 C 0.97904 0.65389 0.58234 0.0
C1063 C -0.00257 0.65905 0.65579 0.0
N1064 N 0.95357 0.71237 0.58521 0.0
N1065 N -0.00257 0.59556 0.65932 0.0
H1066 H 0.02407 0.68663 0.6974 0.0
H1067 H 0.02903 0.64116 0.69933 0.0
H1068 H -0.00479 0.57063 0.64768 0.0
H1069 H -0.00124 0.59571 0.68739 0.0
H1070 H 0.94263 0.71016 0.55954 0.0
H1071 H 0.94522 0.73477 0.59912 0.0
H1072 H 0.9742 0.6748 0.52963 0.0
H1073 H 0.98087 0.62916 0.53119 0.0
C1074 C 0.3818 0.96122 0.71209 0.0
C1075 C 0.36497 0.99132 0.72688 0.0
C1076 C 0.38236 0.02569 0.67478 0.0
C1077 C 0.40321 0.99705 0.66221 0.0
N1078 N 0.43026 0.94063 0.67542 0.0
N1079 N 0.36108 0.05503 0.72797 0.0
C1080 C 0.40514 0.96555 0.68269 0.0
C1081 C 0.36892 0.0245 0.71006 0.0
N1082 N 0.37512 0.92858 0.72552 0.0
N1083 N 0.37349 0.05315 0.6528 0.0
H1084 H 0.35338 0.05576 0.75492 0.0
H1085 H 0.36649 0.07972 0.71725 0.0
H1086 H 0.37932 0.05375 0.6254 0.0
H1087 H 0.35618 0.0731 0.66084 0.0
H1088 H 0.38447 0.90558 0.71338 0.0
H1089 H 0.35754 0.92439 0.74662 0.0
H1090 H 0.4343 0.91862 0.69159 0.0
H1091 H 0.44981 0.9441 0.65609 0.0
C1092 C 0.03443 0.34847 0.66593 0.0
C1093 C 0.00684 0.35543 0.69079 0.0
C1094 C -0.0011 0.4146 0.66591 0.0
C1095 C 0.02551 0.40702 0.64015 0.0
N1096 N 0.06252 0.36456 0.60981 0.0
N1097 N 0.95774 0.39154 0.70969 0.0
C1098 C 0.04135 0.3732 0.63832 0.0
C1099 C 0.98734 0.38741 0.6891 0.0
N1100 N 0.05535 0.31931 0.66987 0.0
N1101 N 0.98591 0.4481 0.66935 0.0
H1102 H 0.94777 0.3715 0.72576 0.0
H1103 H 0.94143 0.4136 0.70892 0.0
H1104 H -0.00638 0.46876 0.65284 0.0
H1105 H 0.96941 0.45619 0.69021 0.0
H1106 H 0.07829 0.31504 0.6551 0.0
H1107 H 0.0515 0.30063 0.68993 0.0
H1108 H 0.072 0.3392 0.60507 0.0
H1109 H 0.06785 0.38203 0.58894 0.0
C1110 C 0.71726 0.04273 0.67055 0.0
C1111 C 0.71959 0.07608 0.68768 0.0
C1112 C 0.66639 0.09552 0.65564 0.0
C1113 C 0.66614 0.06327 0.63605 0.0
N1114 N 0.69742 0.01063 0.61806 0.0
N1115 N 0.70127 0.13693 0.68998 0.0
C1116 C 0.69351 0.03824 0.64142 0.0
C1117 C 0.69566 0.10337 0.67821 0.0
N1118 N 0.73671 0.01488 0.68295 0.0
N1119 N 0.63797 0.11779 0.65461 0.0
H1120 H 0.72255 0.14374 0.70634 0.0
H1121 H 0.68675 0.15844 0.6807 0.0
H1122 H 0.61531 0.11283 0.63965 0.0
H1123 H 0.63549 0.13965 0.67145 0.0
H1124 H 0.73339 0.98927 0.67354 0.0
H1125 H 0.75348 0.0166 0.70517 0.0
H1126 H 0.71885 0.99336 0.61888 0.0
H1127 H 0.68144 0.00744 0.5954 0.0
C1128 C 0.9638 0.35397 0.35689 0.0
C1129 C -0.00153 0.33983 0.35613 0.0
C1130 C 0.01759 0.38456 0.3996 0.0
C1131 C 0.98389 0.40078 0.39751 0.0
N1132 N 0.92714 0.40514 0.368 0.0
N1133 N 0.0599 0.34478 0.37196 0.0
C1134 C 0.95752 0.38663 0.3745 0.0
C1135 C 0.02585 0.35604 0.37611 0.0
N1136 N 0.93666 0.33574 0.34164 0.0
N1137 N 0.04116 0.39533 0.42511 0.0
H1138 H 0.06695 0.32388 0.3551 0.0
H1139 H 0.0814 0.35803 0.38276 0.0
H1140 H 0.03579 0.41574 0.44317 0.0
H1141 H 0.06451 0.38182 0.43063 0.0
H1142 H 0.91029 0.34284 0.34493 0.0
H1143 H 0.94017 0.31171 0.32843 0.0
H1144 H 0.90868 0.3977 0.34867 0.0
H1145 H 0.92188 0.42983 0.37912 0.0
C1146 C 0.63657 0.04891 0.28918 0.0
C1147 C 0.64845 0.0823 0.27759 0.0
C1148 C 0.62613 0.10954 0.33286 0.0
C1149 C 0.61287 0.07639 0.34359 0.0
N1150 N 0.59676 0.01709 0.32779 0.0
N1151 N 0.64793 0.14533 0.28388 0.0
C1152 C 0.6153 0.04687 0.32035 0.0
C1153 C 0.641 0.11299 0.29799 0.0
N1154 N 0.64711 0.01893 0.27165 0.0
N1155 N 0.62649 0.13712 0.3566 0.0
H1156 H 0.65893 0.14861 0.25837 0.0
H1157 H 0.63988 0.1688 0.29598 0.0
H1158 H 0.61629 0.13568 0.3826 0.0
H1159 H 0.63946 0.16062 0.35157 0.0
H1160 H 0.6424 0.99379 0.28148 0.0
H1161 H 0.6633 0.01895 0.249 0.0
H1162 H 0.59487 0.99597 0.30995 0.0
H1163 H 0.58025 0.01498 0.35013 0.0
C1164 C 0.98723 0.6214 0.33041 0.0
C1165 C 0.00886 0.65168 0.32904 0.0
C1166 C 0.02742 0.64143 0.39149 0.0
C1167 C 0.0065 0.61086 0.39191 0.0
N1168 N 0.97704 0.56531 0.35866 0.0
N1169 N 0.05646 0.6852 0.35485 0.0
C1170 C 0.99033 0.59854 0.36008 0.0
C1171 C 0.03138 0.65994 0.35851 0.0
N1172 N 0.96145 0.61603 0.30531 0.0
N1173 N 0.04205 0.65352 0.42276 0.0
H1174 H 0.06028 0.69872 0.33077 0.0
H1175 H 0.07543 0.69036 0.37444 0.0
H1176 H 0.03997 0.63992 0.44702 0.0
H1177 H 0.05445 0.67776 0.42498 0.0
H1178 H 0.94294 0.59604 0.30731 0.0
H1179 H 0.95571 0.63391 0.28499 0.0
H1180 H 0.96737 0.55402 0.33503 0.0
H1181 H 0.97943 0.54786 0.38017 0.0
C1182 C 0.31972 0.02076 0.32379 0.0
C1183 C 0.30839 0.98569 0.3194 0.0
C1184 C 0.33239 0.97184 0.37881 0.0
C1185 C 0.35173 0.00371 0.37829 0.0
N1186 N 0.36606 0.05755 0.34626 0.0
N1187 N 0.30311 0.92715 0.34314 0.0
C1188 C 0.34553 0.02844 0.35019 0.0
C1189 C 0.31395 0.96105 0.34731 0.0
N1190 N 0.30622 0.04657 0.30222 0.0
N1191 N 0.33148 0.95222 0.4095 0.0
H1192 H 0.28895 0.91873 0.32063 0.0
H1193 H 0.30994 0.90714 0.361 0.0
H1194 H 0.34376 0.96035 0.43328 0.0
H1195 H 0.31551 0.93026 0.4124 0.0
H1196 H 0.31154 0.07316 0.30615 0.0
H1197 H 0.28648 0.0416 0.2833 0.0
H1198 H 0.36455 0.07377 0.32373 0.0
H1199 H 0.38698 0.06397 0.36306 0.0
C1200 C -0.00428 0.18247 0.34078 0.0
C1201 C 0.01884 0.20987 0.3515 0.0
C1202 C 0.03417 0.17646 0.40581 0.0
C1203 C 0.01238 0.1487 0.39398 0.0
N1204 N 0.98351 0.12028 0.34408 0.0
N1205 N 0.06817 0.22728 0.38853 0.0
C1206 C -0.00269 0.14997 0.35911 0.0
C1207 C 0.04087 0.20495 0.38213 0.0
N1208 N 0.96997 0.18813 0.31562 0.0
N1209 N 0.04638 0.17708 0.44032 0.0
H1210 H 0.07442 0.24773 0.37105 0.0
H1211 H 0.08658 0.22314 0.40899 0.0
H1212 H 0.04212 0.1566 0.45833 0.0
H1213 H 0.05808 0.19927 0.45152 0.0
H1214 H 0.95076 0.16956 0.30961 0.0
H1215 H 0.9649 0.21253 0.30401 0.0
H1216 H 0.97443 0.11931 0.31755 0.0
H1217 H 0.98492 0.09592 0.35692 0.0
C1218 C 0.84168 0.02857 0.30826 0.0
C1219 C 0.83194 0.06404 0.30174 0.0
C1220 C 0.84223 0.07836 0.36527 0.0
C1221 C 0.85753 0.04465 0.37017 0.0
N1222 N 0.85261 0.98368 0.35314 0.0
N1223 N 0.82168 0.12305 0.32366 0.0
C1224 C 0.85158 0.01833 0.34368 0.0
C1225 C 0.8314 0.08898 0.33029 0.0
N1226 N 0.84252 0.00496 0.28042 0.0
N1227 N 0.83581 0.09899 0.39469 0.0
H1228 H 0.8127 0.13164 0.29858 0.0
H1229 H 0.82463 0.14337 0.34225 0.0
H1230 H 0.83989 0.08954 0.42068 0.0
H1231 H 0.82242 0.12294 0.3938 0.0
H1232 H 0.85334 0.97981 0.28265 0.0
H1233 H 0.83477 0.01139 0.25425 0.0
H1234 H 0.84625 0.96325 0.33562 0.0
H1235 H 0.85462 0.97576 0.37995 0.0
C1236 C 0.96698 0.83784 0.3832 0.0
C1237 C 0.98379 0.84238 0.34936 0.0
C1238 C 0.01381 0.89449 0.37193 0.0
C1239 C -0.00607 0.89249 0.40404 0.0
N1240 N 0.96174 0.85692 0.44567 0.0
N1241 N 0.02842 0.87067 0.31371 0.0
C1242 C 0.97395 0.86217 0.41154 0.0
C1243 C 0.00924 0.86896 0.34472 0.0
N1244 N 0.94293 0.81163 0.38742 0.0
N1245 N 0.03696 0.92104 0.36638 0.0
H1246 H 0.02616 0.85218 0.293 0.0
H1247 H 0.04728 0.89001 0.30944 0.0
H1248 H 0.0424 0.94042 0.38556 0.0
H1249 H 0.0424 0.94042 0.38556 0.0
H1250 H 0.92674 0.80929 0.40986 0.0
H1251 H 0.93797 0.79289 0.3675 0.0
H1252 H 0.949 0.83421 0.45391 0.0
H1253 H 0.96725 0.87431 0.4667 0.0
C1254 C 0.13679 0.04191 0.29051 0.0
C1255 C 0.12612 0.01001 0.274 0.0
C1256 C 0.07766 0.00683 0.31688 0.0
C1257 C 0.09458 0.03207 0.33897 0.0
N1258 N 0.14259 0.07321 0.34682 0.0
N1259 N 0.08707 0.95982 0.27433 0.0
C1260 C 0.12437 0.05023 0.32558 0.0
C1261 C 0.09624 0.99209 0.2874 0.0
N1262 N 0.15928 0.06376 0.27289 0.0
N1263 N 0.04405 0.99667 0.32444 0.0
H1264 H 0.10103 0.94652 0.25432 0.0
H1265 H 0.06736 0.94472 0.28592 0.0
H1266 H 0.02946 0.00793 0.34539 0.0
H1267 H 0.0296 0.98022 0.30753 0.0
H1268 H 0.16577 0.08867 0.28251 0.0
H1269 H 0.16826 0.05837 0.24685 0.0
H1270 H 0.1667 0.08378 0.33923 0.0
H1271 H 0.13548 0.07964 0.37309 0.0
C1272 C 0.98027 0.84612 0.63458 0.0
C1273 C 0.00621 0.81974 0.64092 0.0
C1274 C 0.04999 0.85537 0.60949 0.0
C1275 C 0.02518 0.88343 0.60726 0.0
N1276 N 0.96863 0.90787 0.62397 0.0
N1277 N 0.06718 0.8014 0.63948 0.0
C1278 C 0.99075 0.87945 0.62138 0.0
C1279 C 0.04151 0.82491 0.6297 0.0
N1280 N 0.94548 0.83906 0.64026 0.0
N1281 N 0.08123 0.85736 0.59133 0.0
H1282 H 0.06209 0.77901 0.65468 0.0
H1283 H 0.09393 0.8057 0.63532 0.0
H1284 H 0.08806 0.87892 0.5756 0.0
H1285 H 0.09882 0.83632 0.58898 0.0
H1286 H 0.92523 0.85615 0.63278 0.0
H1287 H 0.93658 0.81476 0.64928 0.0
H1288 H 0.94465 0.90729 0.63755 0.0
H1289 H 0.97567 0.93299 0.61561 0.0
C1290 C 0.18467 0.00614 0.70985 0.0
C1291 C 0.1784 0.03486 0.73344 0.0
C1292 C 0.14075 0.06171 0.68733 0.0
C1293 C 0.15387 0.03711 0.66149 0.0
N1294 N 0.19086 0.98685 0.64822 0.0
N1295 N 0.1282 0.0697 0.75054 0.0
C1296 C 0.17681 0.00974 0.67281 0.0
C1297 C 0.15024 0.0577 0.72416 0.0
N1298 N 0.19212 0.97376 0.72368 0.0
N1299 N 0.11851 0.08831 0.67728 0.0
H1300 H 0.13058 0.06082 0.77705 0.0
H1301 H 0.10495 0.08355 0.74536 0.0
H1302 H 0.10993 0.09205 0.65095 0.0
H1303 H 0.111 0.10847 0.69484 0.0
H1304 H 0.19356 0.95107 0.70788 0.0
H1305 H 0.1923 0.96941 0.75147 0.0
H1306 H 0.20973 0.96796 0.65519 0.0
H1307 H 0.18609 0.98911 0.6206 0.0
C1308 C -0.00304 0.13253 0.68764 0.0
C1309 C 0.97536 0.16168 0.67814 0.0
C1310 C 0.98726 0.15087 0.61415 0.0
C1311 C 0.00751 0.12085 0.62359 0.0
N1312 N 0.02489 0.07819 0.66824 0.0
N1313 N 0.94339 0.1939 0.63263 0.0
C1314 C 0.01024 0.11014 0.66006 0.0
C1315 C 0.96842 0.16937 0.64142 0.0
N1316 N 0.00613 0.12713 0.72285 0.0
N1317 N 0.98759 0.16288 0.57954 0.0
H1318 H 0.9291 0.20793 0.65199 0.0
H1319 H 0.93456 0.19797 0.60636 0.0
H1320 H 0.00087 0.14984 0.55878 0.0
H1321 H 0.97711 0.18718 0.57213 0.0
H1322 H 0.0251 0.10883 0.73087 0.0
H1323 H -0.00307 0.14287 0.74395 0.0
H1324 H 0.02445 0.06738 0.69398 0.0
H1325 H 0.0345 0.06089 0.64864 0.0
C1326 C 0.86165 0.10365 0.69149 0.0
C1327 C 0.84741 0.07707 0.71327 0.0
C1328 C 0.89305 0.03625 0.69265 0.0
C1329 C 0.90105 0.05982 0.66436 0.0
N1330 N 0.88998 0.11621 0.63519 0.0
N1331 N 0.8493 0.01773 0.73585 0.0
C1332 C 0.88538 0.09407 0.66374 0.0
C1333 C 0.86347 0.0434 0.71485 0.0
N1334 N 0.85123 0.13776 0.69652 0.0
N1335 N 0.91375 0.00723 0.69822 0.0
H1336 H 0.82814 0.02236 0.75315 0.0
H1337 H 0.85734 0.99151 0.73464 0.0
H1338 H 0.93625 0.00202 0.68291 0.0
H1339 H 0.91078 0.99057 0.7202 0.0
H1340 H 0.86301 0.15886 0.68352 0.0
H1341 H 0.83345 0.14506 0.7167 0.0
H1342 H 0.87602 0.13971 0.63222 0.0
H1343 H 0.90475 0.11014 0.61245 0.0
C1344 C 0.33579 0.01753 0.17825 0.0
C1345 C 0.33178 0.98196 0.18882 0.0
C1346 C 0.36944 0.96242 0.13892 0.0
C1347 C 0.36935 0.99733 0.12578 0.0
N1348 N 0.35394 0.05867 0.13226 0.0
N1349 N 0.34364 0.92023 0.17999 0.0
C1350 C 0.35325 0.02512 0.14549 0.0
C1351 C 0.34861 0.95427 0.16957 0.0
N1352 N 0.32302 0.044 0.19974 0.0
N1353 N 0.38958 0.93733 0.12215 0.0
H1354 H 0.32956 0.91359 0.20307 0.0
H1355 H 0.35182 0.8985 0.165 0.0
H1356 H 0.4051 0.94277 0.0997 0.0
H1357 H 0.39307 0.91189 0.13178 0.0
H1358 H 0.32846 0.07048 0.19593 0.0
H1359 H 0.30868 0.03949 0.22313 0.0
H1360 H 0.3389 0.07939 0.14247 0.0
H1361 H 0.36873 0.06578 0.10981 0.0
C1362 C -0.00482 0.37042 0.16188 0.0
C1363 C 0.01651 0.33995 0.15721 0.0
C1364 C 0.05079 0.37007 0.11091 0.0
C1365 C 0.03294 0.40191 0.11949 0.0
N1366 N 0.98867 0.4333 0.15358 0.0
N1367 N 0.0669 0.31131 0.13017 0.0
C1368 C 0.00522 0.40232 0.1451 0.0
C1369 C 0.04478 0.33979 0.13227 0.0
N1370 N 0.96473 0.36849 0.18141 0.0
N1371 N 0.07335 0.36867 0.0823 0.0
H1372 H 0.06343 0.28861 0.1454 0.0
H1373 H 0.09033 0.3112 0.11562 0.0
H1374 H 0.0787 0.39033 0.06624 0.0
H1375 H 0.08412 0.34535 0.07234 0.0
H1376 H 0.94607 0.38866 0.18265 0.0
H1377 H 0.95648 0.34548 0.19393 0.0
H1378 H 0.97138 0.43612 0.17514 0.0
H1379 H -0.00654 0.45674 0.14002 0.0
C1380 C 0.645 0.08554 0.12573 0.0
C1381 C 0.66338 0.0611 0.14751 0.0
C1382 C 0.64028 0.01238 0.1115 0.0
C1383 C 0.61897 0.03675 0.0922 0.0
N1384 N 0.59528 0.09517 0.08616 0.0
N1385 N 0.67636 0.00113 0.1642 0.0
C1386 C 0.61988 0.07305 0.10057 0.0
C1387 C 0.6607 0.02443 0.14107 0.0
N1388 N 0.65152 0.12066 0.12934 0.0
N1389 N 0.64118 0.97776 0.10147 0.0
H1390 H 0.69271 0.00887 0.18534 0.0
H1391 H 0.67156 0.97422 0.16383 0.0
H1392 H 0.62483 0.96732 0.08165 0.0
H1393 H 0.65949 0.95967 0.11135 0.0
H1394 H 0.64145 0.1396 0.11186 0.0
H1395 H 0.66983 0.13043 0.14777 0.0
H1396 H 0.59313 0.12171 0.09281 0.0
H1397 H 0.57426 0.08572 0.07108 0.0
C1398 C 0.03183 0.68325 0.17089 0.0
C1399 C 0.00733 0.67018 0.19624 0.0
C1400 C -0.00069 0.61747 0.15962 0.0
C1401 C 0.02158 0.63149 0.13275 0.0
N1402 N 0.05107 0.68231 0.10876 0.0
N1403 N 0.95829 0.63176 0.20708 0.0
C1404 C 0.03523 0.66597 0.13705 0.0
C1405 C 0.98786 0.63958 0.18799 0.0
N1406 N 0.05312 0.7108 0.17959 0.0
N1407 N -0.0085 0.58253 0.16022 0.0
H1408 H 0.94788 0.64903 0.22625 0.0
H1409 H 0.94205 0.61069 0.20047 0.0
H1410 H 0.00137 0.56448 0.14155 0.0
H1411 H 0.97816 0.57104 0.18165 0.0
H1412 H 0.07388 0.71883 0.16332 0.0
H1413 H 0.05203 0.72372 0.20439 0.0
H1414 H 0.05898 0.70847 0.10955 0.0
H1415 H 0.05266 0.67078 0.08331 0.0
C1416 C 0.40593 0.00673 0.85383 0.0
C1417 C 0.37163 0.99235 0.85756 0.0
C1418 C 0.3818 0.98684 0.92239 0.0
C1419 C 0.4168 0.99822 0.91715 0.0
N1420 N 0.46531 0.00437 0.87639 0.0
N1421 N 0.3312 0.95937 0.89453 0.0
C1422 C 0.42998 0.00271 0.88224 0.0
C1423 C 0.36078 0.9793 0.89163 0.0
N1424 N 0.41477 0.02706 0.82499 0.0
N1425 N 0.36836 0.98443 0.95636 0.0
H1426 H 0.31609 0.95221 0.87222 0.0
H1427 H 0.32396 0.94709 0.91844 0.0
H1428 H 0.38361 0.98914 0.9793 0.0
H1429 H 0.34187 0.97948 0.96145 0.0
H1430 H 0.439 0.0397 0.8232 0.0
H1431 H 0.39659 0.03518 0.80559 0.0
H1432 H 0.47588 0.0047 0.85046 0.0
H1433 H 0.48352 1.00104 0.89725 0.0
C1434 C 0.97576 0.34578 0.8451 0.0
C1435 C 0.00531 0.33799 0.82294 0.0
C1436 C 0.04222 0.37609 0.86077 0.0
C1437 C 0.01121 0.38798 0.87837 0.0
N1438 N 0.95685 0.36737 0.9034 0.0
N1439 N 0.06835 0.33642 0.81622 0.0
C1440 C 0.98064 0.36716 0.87594 0.0
C1441 C 0.03934 0.34993 0.83324 0.0
N1442 N 0.94267 0.33539 0.83553 0.0
N1443 N 0.07397 0.38963 0.87083 0.0
H1444 H 0.06648 0.3165 0.79689 0.0
H1445 H 0.09416 0.34322 0.8223 0.0
H1446 H 0.07657 0.40506 0.89399 0.0
H1447 H 0.09761 0.38475 0.85756 0.0
H1448 H 0.92015 0.34398 0.8491 0.0
H1449 H 0.93727 0.32055 0.81258 0.0
H1450 H 0.93501 0.35094 0.90397 0.0
H1451 H 0.96211 0.38036 0.92761 0.0
C1452 C 0.69904 0.0397 0.90602 0.0
C1453 C 0.69615 0.07045 0.88475 0.0
C1454 C 0.63195 0.06657 0.88597 0.0
C1455 C 0.63459 0.03725 0.90928 0.0
N1456 N 0.67044 1.00036 0.94769 0.0
N1457 N 0.66043 0.11758 0.86076 0.0
C1458 C 0.66812 0.02511 0.92117 0.0
C1459 C 0.66273 0.08534 0.8768 0.0
N1460 N 0.73108 0.02364 0.91057 0.0
N1461 N 0.60032 0.07519 0.87093 0.0
H1462 H 0.68253 0.1322 0.8538 0.0
H1463 H 0.63678 0.13129 0.85759 0.0
H1464 H 0.57797 0.06053 0.87593 0.0
H1465 H 0.59706 0.09414 0.85099 0.0
H1466 H 0.7342 0.99895 0.92223 0.0
H1467 H 0.7544 0.03369 0.90011 0.0
H1468 H 0.69409 0.99316 0.95997 0.0
H1469 H 0.6484 0.9893 0.9598 0.0
C1470 C 0.96495 0.65938 0.82092 0.0
C1471 C 0.97906 0.69264 0.83053 0.0
C1472 C 0.00289 0.66739 0.88638 0.0
C1473 C 0.98955 0.63409 0.87617 0.0
N1474 N 0.96768 0.59626 0.82926 0.0
N1475 N 0.01973 0.72573 0.8671 0.0
C1476 C 0.97405 0.62945 0.84176 0.0
C1477 C 0.00084 0.69577 0.86154 0.0
N1478 N 0.94091 0.65661 0.79359 0.0
N1479 N 0.01535 0.67261 0.92048 0.0
H1480 H 0.01922 0.74674 0.8491 0.0
H1481 H 0.03842 0.72827 0.88751 0.0
H1482 H 0.01702 0.65248 0.93933 0.0
H1483 H 0.02156 0.69731 0.93079 0.0
H1484 H 0.92713 0.63362 0.78811 0.0
H1485 H 0.93203 0.67799 0.77854 0.0
H1486 H 0.95929 0.591 0.80306 0.0
H1487 H 0.97445 0.57386 0.84399 0.0
C1488 C 0.15674 0.35716 0.98468 0.0
C1489 C 0.16413 0.35503 0.02207 0.0
C1490 C 0.14195 0.41521 0.03061 0.0
C1491 C 0.13853 0.41875 0.99271 0.0
N1492 N 0.14783 0.39489 0.933 0.0
N1493 N 0.16805 0.38306 0.08035 0.0
C1494 C 0.14707 0.39013 0.9695 0.0
C1495 C 0.15792 0.38436 0.045 0.0
N1496 N 0.15849 0.32753 0.96378 0.0
N1497 N 0.12848 0.44062 0.05294 0.0
H1498 H 0.17916 0.36069 0.09209 0.0
H1499 H 0.16796 0.40493 0.09732 0.0
H1500 H 0.1156 0.46308 0.04345 0.0
H1501 H 0.12709 0.438 0.08082 0.0
H1502 H 0.14964 0.32658 0.93722 0.0
H1503 H 0.16598 0.30303 0.97391 0.0
H1504 H 0.15744 0.37609 0.915 0.0
H1505 H 0.14188 0.41881 0.92071 0.0
C1506 C 0.14739 0.678 0.04748 0.0
C1507 C 0.13093 0.7114 0.04308 0.0
C1508 C 0.08003 0.68275 0.01547 0.0
C1509 C 0.09902 0.65055 0.01446 0.0
N1510 N 0.15373 0.61904 0.02362 0.0
N1511 N 0.08353 0.74611 0.01744 0.0
C1512 C 0.13346 0.6484 0.02914 0.0
C1513 C 0.09759 0.71399 0.02584 0.0
N1514 N 0.17624 0.6746 0.06932 0.0
N1515 N 0.04491 0.68326 0.00744 0.0
H1516 H 0.09598 0.76976 0.02337 0.0
H1517 H 0.06109 0.74919 0.00151 0.0
H1518 H 0.03108 0.66042 0.00131 0.0
H1519 H 0.02894 0.70542 0.01087 0.0
H1520 H 0.18834 0.65058 0.07486 0.0
H1521 H 0.18613 0.6954 0.08459 0.0
H1522 H 0.18033 0.61756 0.03044 0.0
H1523 H 0.14485 0.59715 0.00935 0.0
C1524 C 0.34369 0.19195 0.00231 0.0
C1525 C 0.33595 0.2033 0.0379 0.0
C1526 C 0.37137 0.15507 0.06266 0.0
C1527 C 0.37806 0.14287 0.02705 0.0
N1528 N 0.36445 0.1448 0.96352 0.0
N1529 N 0.33604 0.1925 0.10174 0.0
C1530 C 0.36242 0.15989 -0.00302 0.0
C1531 C 0.3476 0.18364 0.06803 0.0
N1532 N 0.33412 0.21241 0.97364 0.0
N1533 N 0.38949 0.14098 0.09112 0.0
H1534 H 0.31902 0.21368 0.1065 0.0
H1535 H 0.34078 0.17718 0.12447 0.0
H1536 H 0.40818 0.12093 0.08829 0.0
H1537 H 0.38866 0.15135 0.1171 0.0
H1538 H 0.34301 0.20797 0.94748 0.0
H1539 H 0.3189 0.23522 0.97631 0.0
H1540 H 0.35065 0.15412 0.9412 0.0
H1541 H 0.37738 0.12096 0.95861 0.0
C1542 C 0.89357 0.35317 0.04836 0.0
C1543 C 0.87655 0.35115 0.01445 0.0
C1544 C 0.90894 0.40253 0.99335 0.0
C1545 C 0.92085 0.40808 0.02918 0.0
N1546 N 0.92365 0.39 0.0916 0.0
N1547 N 0.87125 0.36908 0.95273 0.0
C1548 C 0.91386 0.38325 0.05674 0.0
C1549 C 0.8857 0.37418 0.98611 0.0
N1550 N 0.88954 0.32676 0.07286 0.0
N1551 N 0.91946 0.42496 0.96678 0.0
H1552 H 0.85539 0.34749 0.94686 0.0
H1553 H 0.87491 0.3855 0.93078 0.0
H1554 H 0.93723 0.44527 0.97147 0.0
H1555 H 0.91223 0.42284 0.93986 0.0
H1556 H 0.90425 0.32478 0.09648 0.0
H1557 H 0.87384 0.30489 0.06811 0.0
H1558 H 0.91537 0.37525 0.11353 0.0
H1559 H 0.93799 0.41195 0.09942 0.0
C1560 C 0.68058 0.85088 0.97376 0.0
C1561 C 0.71195 0.86813 0.98483 0.0
C1562 C 0.67715 0.9168 0.00969 0.0
C1563 C 0.64576 0.89921 -0.00083 0.0
N1564 N 0.61729 0.84588 0.98078 0.0
N1565 N 0.73991 0.91224 0.02144 0.0
C1566 C 0.64746 0.86493 0.98444 0.0
C1567 C 0.71014 0.89937 0.00558 0.0
N1568 N 0.68227 0.82226 0.95138 0.0
N1569 N 0.67589 0.95095 0.02121 0.0
H1570 H 0.76453 0.90014 0.01865 0.0
H1571 H 0.73966 0.93287 0.03997 0.0
H1572 H 0.65258 0.96527 0.02374 0.0
H1573 H 0.69821 0.96619 0.02535 0.0
H1574 H 0.66018 0.81097 0.93953 0.0
H1575 H 0.70587 0.8115 0.94199 0.0
H1576 H 0.61708 0.81944 0.97339 0.0
H1577 H 0.59272 0.85564 0.98879 0.0
C1578 C 0.88744 0.69712 0.00318 0.0
C1579 C 0.8578 0.68891 0.9813 0.0
C1580 C 0.87877 0.62849 0.9757 0.0
C1581 C 0.90934 0.6368 -0.00417 0.0
N1582 N 0.94805 0.68233 0.01738 0.0
N1583 N 0.83442 0.65099 0.93497 0.0
C1584 C 0.91562 0.6724 0.00534 0.0
C1585 C 0.85723 0.65621 0.96288 0.0
N1586 N 0.88776 0.7265 0.02442 0.0
N1587 N 0.86743 0.5947 0.97281 0.0
H1588 H 0.81861 0.67128 0.92485 0.0
H1589 H 0.83407 0.62772 0.92006 0.0
H1590 H 0.87958 0.57393 0.98631 0.0
H1591 H 0.84347 0.58822 0.96078 0.0
H1592 H 0.90751 0.73124 0.04334 0.0
H1593 H 0.86696 0.7444 0.02588 0.0
H1594 H 0.95459 0.70851 0.02216 0.0
H1595 H 0.96923 0.66473 0.01869 0.0
C1596 C 0.32629 0.848 0.97519 0.0
C1597 C 0.31095 0.84655 0.00991 0.0
C1598 C 0.34481 0.89813 0.02753 0.0
C1599 C 0.36684 0.89312 -0.00288 0.0
N1600 N 0.37725 0.86369 0.93996 0.0
N1601 N 0.30532 0.87085 0.06988 0.0
C1602 C 0.35674 0.86888 0.96975 0.0
C1603 C 0.31942 0.87234 0.03609 0.0
N1604 N 0.31205 0.82865 0.9478 0.0
N1605 N 0.34836 0.92766 0.04811 0.0
H1606 H 0.28645 0.85252 0.07728 0.0
H1607 H 0.31403 0.8865 0.09117 0.0
H1608 H 0.3663 0.94722 0.04146 0.0
H1609 H 0.33111 0.93435 0.0689 0.0
H1610 H 0.32001 0.83073 0.92106 0.0
H1611 H 0.28975 0.81318 0.95151 0.0
H1612 H 0.37354 0.84304 0.92189 0.0
H1613 H 0.39914 0.87876 0.93392 0.0
C1614 C 0.72912 0.14507 0.02131 0.0
C1615 C 0.74432 0.1636 0.99208 0.0
C1616 C 0.68946 0.15759 0.95757 0.0
C1617 C 0.67518 0.13769 0.98617 0.0
N1618 N 0.68426 0.10438 0.04051 0.0
N1619 N 0.74178 0.18184 0.92995 0.0
C1620 C 0.69599 0.12882 0.01652 0.0
C1621 C 0.72531 0.16808 0.95937 0.0
N1622 N 0.74511 0.14485 0.05437 0.0
N1623 N 0.66839 0.16766 0.92948 0.0
H1624 H 0.76824 0.18903 0.93019 0.0
H1625 H 0.73041 0.18295 0.90443 0.0
H1626 H 0.64218 0.15992 0.92704 0.0
H1627 H 0.67606 0.18546 0.90982 0.0
H1628 H 0.73313 0.13507 0.07745 0.0
H1629 H 0.76885 0.15743 0.05972 0.0
H1630 H 0.6998 0.0943 0.06127 0.0
H1631 H 0.66028 0.0915 0.03735 0.0
C1632 C 0.48403 0.68503 0.82727 0.0
C1633 C 0.51605 0.70321 0.82138 0.0
C1634 C 0.5441 0.67109 0.87109 0.0
C1635 C 0.51175 0.65394 0.87768 0.0
N1636 N 0.45447 0.63666 0.85657 0.0
N1637 N 0.57854 0.70761 0.83087 0.0
C1638 C 0.48299 0.65811 0.85367 0.0
C1639 C 0.54685 0.69408 0.84104 0.0
N1640 N 0.45401 0.69515 0.80954 0.0
N1641 N 0.57164 0.66629 0.89437 0.0
H1642 H 0.58101 0.72437 0.80882 0.0
H1643 H 0.60255 0.70003 0.84209 0.0
H1644 H 0.57081 0.64829 0.91551 0.0
H1645 H 0.59472 0.68085 0.8936 0.0
H1646 H 0.42903 0.68604 0.81598 0.0
H1647 H 0.4535 0.71454 0.78979 0.0
H1648 H 0.43387 0.63637 0.83806 0.0
H1649 H 0.45296 0.6168 0.87573 0.0
C1650 C 0.38465 0.57811 0.86812 0.0
C1651 C 0.38438 0.55783 0.83596 0.0
C1652 C 0.40557 0.50626 0.86932 0.0
C1653 C 0.40816 0.52728 0.90095 0.0
N1654 N 0.40777 0.58474 0.92862 0.0
N1655 N 0.39965 0.50452 0.80419 0.0
C1656 C 0.39978 0.56366 0.89986 0.0
C1657 C 0.39648 0.52246 0.83602 0.0
N1658 N 0.36972 0.61094 0.86856 0.0
N1659 N 0.41009 0.47061 0.87141 0.0
H1660 H 0.39245 0.51533 0.77942 0.0
H1661 H 0.41192 0.48003 0.80193 0.0
H1662 H 0.41634 0.45765 0.89531 0.0
H1663 H 0.4048 0.45347 0.85017 0.0
H1664 H 0.36555 0.62534 0.89212 0.0
H1665 H 0.35913 0.62286 0.84566 0.0
H1666 H 0.40599 0.61206 0.92786 0.0
H1667 H 0.41962 0.57527 0.95208 0.0
C1668 C 0.51846 0.34366 0.83442 0.0
C1669 C 0.48191 0.33613 0.8337 0.0
C1670 C 0.47351 0.36954 0.88987 0.0
C1671 C 0.51051 0.37409 0.89242 0.0
N1672 N 0.56891 0.36358 0.86895 0.0
N1673 N 0.42525 0.3372 0.86299 0.0
C1674 C 0.53321 0.36049 0.86524 0.0
C1675 C 0.45955 0.34789 0.86201 0.0
N1676 N 0.5388 0.33588 0.80502 0.0
N1677 N 0.45168 0.38616 0.91386 0.0
H1678 H 0.41406 0.32134 0.84312 0.0
H1679 H 0.40866 0.34151 0.88491 0.0
H1680 H 0.4609 0.40144 0.9352 0.0
H1681 H 0.42438 0.38705 0.91112 0.0
H1682 H 0.56469 0.34417 0.80203 0.0
H1683 H 0.52896 0.32336 0.78211 0.0
H1684 H 0.58704 0.35065 0.85247 0.0
H1685 H 0.5807 0.37762 0.88987 0.0
C1686 C 0.61294 0.54148 0.80252 0.0
C1687 C 0.61917 0.50505 0.79778 0.0
C1688 C 0.5967 0.49395 0.85845 0.0
C1689 C 0.598 0.53051 0.86569 0.0
N1690 N 0.60705 0.58988 0.84476 0.0
N1691 N 0.6162 0.44577 0.82034 0.0
C1692 C 0.60512 0.55467 0.83754 0.0
C1693 C 0.61004 0.48091 0.82522 0.0
N1694 N 0.61533 0.56333 0.77352 0.0
N1695 N 0.58261 0.47185 0.88344 0.0
H1696 H 0.62487 0.43515 0.79595 0.0
H1697 H 0.61439 0.42732 0.84089 0.0
H1698 H 0.57236 0.48093 0.90788 0.0
H1699 H 0.57795 0.44532 0.87858 0.0
H1700 H 0.60826 0.58982 0.77423 0.0
H1701 H 0.62123 0.55391 0.74774 0.0
H1702 H 0.61605 0.60831 0.82635 0.0
H1703 H 0.60178 0.60069 0.87001 0.0
C1704 C 0.48387 0.37629 0.16483 0.0
C1705 C 0.50215 0.34355 0.16479 0.0
C1706 C 0.54037 0.365 0.11711 0.0
C1707 C 0.52606 0.39946 0.1209 0.0
N1708 N 0.48899 0.43888 0.15522 0.0
N1709 N 0.55498 0.31147 0.14838 0.0
C1710 C 0.49899 0.40548 0.1466 0.0
C1711 C 0.53281 0.33951 0.14343 0.0
N1712 N 0.4518 0.37942 0.18115 0.0
N1713 N 0.55956 0.35575 0.08736 0.0
H1714 H 0.5512 0.29293 0.16865 0.0
H1715 H 0.57905 0.30908 0.13505 0.0
H1716 H 0.56256 0.37228 0.06523 0.0
H1717 H 0.56827 0.33007 0.08266 0.0
H1718 H 0.43593 0.40178 0.17868 0.0
H1719 H 0.43971 0.3586 0.19434 0.0
H1720 H 0.47136 0.44436 0.17598 0.0
H1721 H 0.50138 0.46081 0.14453 0.0
C1722 C 0.6694 0.46182 0.14391 0.0
C1723 C 0.65493 0.46689 0.17875 0.0
C1724 C 0.60364 0.49655 0.15226 0.0
C1725 C 0.62113 0.49685 0.11859 0.0
N1726 N 0.67233 0.48292 0.08259 0.0
N1727 N 0.60949 0.49151 0.217 0.0
C1728 C 0.65428 0.47992 0.11426 0.0
C1729 C 0.6221 0.48453 0.18322 0.0
N1730 N 0.69749 0.43956 0.13925 0.0
N1731 N 0.56928 0.50739 0.15445 0.0
H1732 H 0.62225 0.48328 0.24043 0.0
H1733 H 0.58779 0.50774 0.2219 0.0
H1734 H 0.555 0.51594 0.13203 0.0
H1735 H 0.55401 0.50465 0.17755 0.0
H1736 H 0.7073 0.43243 0.11405 0.0
H1737 H 0.70888 0.42557 0.16047 0.0
H1738 H 0.69832 0.47455 0.0793 0.0
H1739 H 0.66226 0.49606 0.06016 0.0
C1740 C 0.59043 0.68189 0.14682 0.0
C1741 C 0.57841 0.6718 0.18155 0.0
C1742 C 0.54505 0.6236 0.15421 0.0
C1743 C 0.55245 0.63717 0.11953 0.0
N1744 N 0.58129 0.67942 0.08194 0.0
N1745 N 0.54166 0.63496 0.21836 0.0
C1746 C 0.57531 0.66612 0.11551 0.0
C1747 C 0.55532 0.64287 0.18532 0.0
N1748 N 0.6166 0.70618 0.1439 0.0
N1749 N 0.52822 0.59209 0.15725 0.0
H1750 H 0.54826 0.64854 0.24185 0.0
H1751 H 0.5216 0.61683 0.22214 0.0
H1752 H 0.52069 0.57726 0.13485 0.0
H1753 H 0.52489 0.57902 0.1816 0.0
H1754 H 0.6289 0.71229 0.1197 0.0
H1755 H 0.62811 0.71821 0.16627 0.0
H1756 H 0.59441 0.7029 0.0773 0.0
H1757 H 0.57147 0.66765 0.05859 0.0
C1758 C 0.38033 0.58219 0.164 0.0
C1759 C 0.37141 0.55338 0.18633 0.0
C1760 C 0.43019 0.52899 0.17731 0.0
C1761 C 0.43382 0.55052 0.14666 0.0
N1762 N 0.42485 0.60953 0.12747 0.0
N1763 N 0.38938 0.50023 0.21716 0.0
C1764 C 0.41244 0.5809 0.14458 0.0
C1765 C 0.39716 0.52754 0.19488 0.0
N1766 N 0.35734 0.60979 0.16039 0.0
N1767 N 0.45875 0.51093 0.18984 0.0
H1768 H 0.36526 0.49799 0.23027 0.0
H1769 H 0.40626 0.47879 0.2208 0.0
H1770 H 0.48344 0.51368 0.1778 0.0
H1771 H 0.45865 0.49704 0.21399 0.0
H1772 H 0.35978 0.62933 0.141 0.0
H1773 H 0.33511 0.61261 0.1767 0.0
H1774 H 0.41234 0.63393 0.12716 0.0
H1775 H 0.45062 0.6094 0.11882 0.0
C1776 C 0.84405 0.46007 0.69383 0.0
C1777 C 0.83293 0.49105 0.71212 0.0
C1778 C 0.88433 0.52239 0.68897 0.0
C1779 C 0.89219 0.49348 0.66611 0.0
N1780 N 0.89051 0.43026 0.66066 0.0
N1781 N 0.84022 0.55293 0.72438 0.0
C1782 C 0.87514 0.46084 0.67237 0.0
C1783 C 0.85258 0.52252 0.70907 0.0
N1784 N 0.82472 0.43003 0.6967 0.0
N1785 N 0.90861 0.54832 0.69371 0.0
H1786 H 0.81661 0.55432 0.7387 0.0
H1787 H 0.85158 0.57738 0.71993 0.0
H1788 H 0.93397 0.54638 0.68304 0.0
H1789 H 0.90562 0.56875 0.71224 0.0
H1790 H 0.82862 0.40793 0.68054 0.0
H1791 H 0.80303 0.42782 0.71369 0.0
H1792 H 0.88096 0.40533 0.66631 0.0
H1793 H 0.91579 0.42939 0.6498 0.0
C1794 C 0.55737 0.82707 0.61074 0.0
C1795 C 0.5223 0.82592 0.62368 0.0
C1796 C 0.51213 0.88647 0.60366 0.0
C1797 C 0.54851 0.88922 0.59561 0.0
N1798 N 0.60664 0.86332 0.59314 0.0
N1799 N 0.46608 0.85415 0.63396 0.0
C1800 C 0.57133 0.85968 0.5991 0.0
C1801 C 0.49948 0.85544 0.62026 0.0
N1802 N 0.57716 0.79691 0.60951 0.0
N1803 N 0.48959 0.91318 0.59446 0.0
H1804 H 0.45546 0.83149 0.64518 0.0
H1805 H 0.44945 0.87595 0.63601 0.0
H1806 H 0.49805 0.9363 0.58231 0.0
H1807 H 0.4623 0.91121 0.59583 0.0
H1808 H 0.60163 0.7951 0.59697 0.0
H1809 H 0.56776 0.77274 0.61839 0.0
H1810 H 0.62528 0.84392 0.59886 0.0
H1811 H 0.61775 0.88688 0.58482 0.0
C1812 C 0.20061 0.6046 0.65765 0.0
C1813 C 0.22324 0.57728 0.66932 0.0
C1814 C 0.20062 0.5397 0.62129 0.0
C1815 C 0.17133 0.5628 0.61737 0.0
N1816 N 0.14403 0.61927 0.63195 0.0
N1817 N 0.24665 0.51871 0.66113 0.0
C1818 C 0.17187 0.5964 0.63462 0.0
C1819 C 0.2245 0.54505 0.65019 0.0
N1820 N 0.20595 0.63797 0.67005 0.0
N1821 N 0.20533 0.51264 0.59744 0.0
H1822 H 0.26509 0.52199 0.68168 0.0
H1823 H 0.24545 0.49317 0.65099 0.0
H1824 H 0.1887 0.509 0.57532 0.0
H1825 H 0.22763 0.49649 0.59735 0.0
H1826 H 0.19227 0.65982 0.66033 0.0
H1827 H 0.22684 0.64395 0.68732 0.0
H1828 H 0.14177 0.64198 0.64757 0.0
H1829 H 0.12184 0.61502 0.61619 0.0
C1830 C 0.50763 0.1362 0.69794 0.0
C1831 C 0.47251 0.14877 0.70031 0.0
C1832 C 0.46243 0.12818 0.63834 0.0
C1833 C 0.49603 0.11134 0.63832 0.0
N1834 N 0.54521 0.0905 0.67418 0.0
N1835 N 0.41437 0.15212 0.67436 0.0
C1836 C 0.51685 0.11248 0.67011 0.0
C1837 C 0.44908 0.14309 0.67107 0.0
N1838 N 0.53286 0.14841 0.72094 0.0
N1839 N 0.44452 0.1324 0.60686 0.0
H1840 H 0.40419 0.16376 0.69767 0.0
H1841 H 0.39549 0.14553 0.65511 0.0
H1842 H 0.45523 0.12444 0.58238 0.0
H1843 H 0.42127 0.14698 0.60473 0.0
H1844 H 0.55948 0.14198 0.71814 0.0
H1845 H 0.52778 0.16806 0.73997 0.0
H1846 H 0.55961 0.08903 0.6981 0.0
H1847 H 0.55158 0.07093 0.65546 0.0
C1848 C 0.82497 0.48909 0.35898 0.0
C1849 C 0.81364 0.51747 0.337 0.0
C1850 C 0.84774 0.55876 0.37341 0.0
C1851 C 0.86041 0.53002 0.39412 0.0
N1852 N 0.8506 0.47158 0.41596 0.0
N1853 N 0.80412 0.57964 0.33041 0.0
C1854 C 0.84528 0.49643 0.39008 0.0
C1855 C 0.82137 0.55254 0.34702 0.0
N1856 N 0.81903 0.45507 0.34882 0.0
N1857 N 0.86262 0.59121 0.37687 0.0
H1858 H 0.78472 0.57531 0.31094 0.0
H1859 H 0.8065 0.6058 0.33838 0.0
H1860 H 0.882 0.59697 0.39584 0.0
H1861 H 0.85725 0.61194 0.35941 0.0
H1862 H 0.83071 0.43362 0.36166 0.0
H1863 H 0.80442 0.44815 0.32615 0.0
H1864 H 0.83719 0.4478 0.41621 0.0
H1865 H 0.86528 0.47669 0.4392 0.0
C1866 C 0.50258 0.84769 0.33628 0.0
C1867 C 0.53937 0.84554 0.33037 0.0
C1868 C 0.54878 0.89027 0.37705 0.0
C1869 C 0.51213 0.89756 0.37715 0.0
N1870 N 0.45335 0.88324 0.35708 0.0
N1871 N 0.5982 0.86289 0.34596 0.0
C1872 C 0.48863 0.87571 0.35754 0.0
C1873 C 0.56276 0.86574 0.35165 0.0
N1874 N 0.48109 0.82335 0.3206 0.0
N1875 N 0.57005 0.9067 0.40145 0.0
H1876 H 0.60905 0.84402 0.32867 0.0
H1877 H 0.61656 0.87996 0.35715 0.0
H1878 H 0.56039 0.92482 0.42026 0.0
H1879 H 0.59631 0.89976 0.40537 0.0
H1880 H 0.45428 0.82144 0.32603 0.0
H1881 H 0.49095 0.80286 0.30468 0.0
H1882 H 0.4355 0.87101 0.3399 0.0
H1883 H 0.44194 0.90335 0.37234 0.0
C1884 C 0.17308 0.50059 0.32366 0.0
C1885 C 0.18102 0.53651 0.31765 0.0
C1886 C 0.11849 0.55204 0.32422 0.0
C1887 C 0.11276 0.51788 0.33772 0.0
N1888 N 0.12702 0.45697 0.32875 0.0
N1889 N 0.16094 0.59552 0.30459 0.0
C1890 C 0.13764 0.49113 0.33001 0.0
C1891 C 0.15341 0.56196 0.31495 0.0
N1892 N 0.19945 0.47601 0.32567 0.0
N1893 N 0.0903 0.57416 0.31993 0.0
H1894 H 0.18593 0.60299 0.29599 0.0
H1895 H 0.14282 0.61616 0.30482 0.0
H1896 H 0.06459 0.56556 0.32437 0.0
H1897 H 0.09168 0.5994 0.30941 0.0
H1898 H 0.19533 0.45024 0.33395 0.0
H1899 H 0.22591 0.48197 0.32156 0.0
H1900 H 0.14341 0.43622 0.32095 0.0
H1901 H 0.1005 0.45037 0.33156 0.0
C1902 C 0.46006 0.17608 0.34026 0.0
C1903 C 0.4776 0.20706 0.35171 0.0
C1904 C 0.49758 0.17649 0.40646 0.0
C1905 C 0.48104 0.14536 0.39416 0.0
N1906 N 0.45761 0.11267 0.3439 0.0
N1907 N 0.52125 0.23338 0.39043 0.0
C1908 C 0.46606 0.14426 0.35915 0.0
C1909 C 0.49912 0.20613 0.38312 0.0
N1910 N 0.43575 0.17728 0.31306 0.0
N1911 N 0.50984 0.17867 0.441 0.0
H1912 H 0.52349 0.25507 0.37347 0.0
H1913 H 0.53979 0.23276 0.41116 0.0
H1914 H 0.50887 0.15773 0.45899 0.0
H1915 H 0.51849 0.20205 0.45259 0.0
H1916 H 0.41975 0.15607 0.30644 0.0
H1917 H 0.42878 0.20027 0.29956 0.0
H1918 H 0.44936 0.11013 0.31722 0.0
H1919 H 0.46272 0.08875 0.35665 0.0
C1920 C 0.67527 0.88879 0.52731 0.0
C1921 C 0.67659 0.86383 0.49876 0.0
C1922 C 0.66071 0.91007 0.45572 0.0
C1923 C 0.65631 0.93413 0.48477 0.0
N1924 N 0.65775 0.94593 0.54888 0.0
N1925 N 0.66559 0.84919 0.43656 0.0
C1926 C 0.66303 0.92331 0.52065 0.0
C1927 C 0.66782 0.87404 0.46314 0.0
N1928 N 0.68573 0.88055 0.56141 0.0
N1929 N 0.66037 0.92205 0.42102 0.0
H1930 H 0.67102 0.82262 0.441 0.0
H1931 H 0.65558 0.85439 0.41097 0.0
H1932 H 0.65592 0.94833 0.41441 0.0
H1933 H 0.66746 0.90654 0.39897 0.0
H1934 H 0.69554 0.856 0.56914 0.0
H1935 H 0.69554 0.856 0.56914 0.0
H1936 H 0.6626 0.93877 0.57558 0.0
H1937 H 0.64728 0.97117 0.54581 0.0
C1938 C 0.63281 0.20458 0.5364 0.0
C1939 C 0.66433 0.18897 0.54975 0.0
C1940 C 0.64405 0.13105 0.53013 0.0
C1941 C 0.61129 0.1462 0.51964 0.0
N1942 N 0.57181 0.19607 0.51911 0.0
N1943 N 0.69668 0.13673 0.5666 0.0
C1944 C 0.60487 0.18264 0.52464 0.0
C1945 C 0.66894 0.15197 0.54887 0.0
N1946 N 0.63006 0.24033 0.53371 0.0
N1947 N 0.65229 0.09724 0.52049 0.0
H1948 H 0.71546 0.15125 0.58067 0.0
H1949 H 0.69916 0.10966 0.57016 0.0
H1950 H 0.63514 0.08098 0.50628 0.0
H1951 H 0.67728 0.08623 0.52405 0.0
H1952 H 0.60931 0.25301 0.52059 0.0
H1953 H 0.64999 0.25732 0.54187 0.0
H1954 H 0.56462 0.22179 0.52564 0.0
H1955 H 0.55062 0.1805 0.51122 0.0
C1956 C 0.84965 0.68122 0.49294 0.0
C1957 C 0.84415 0.70602 0.52077 0.0
C1958 C 0.87483 0.66766 0.56366 0.0
C1959 C 0.88006 0.6421 0.53562 0.0
N1960 N 0.85624 0.61955 0.47954 0.0
N1961 N 0.84052 0.71782 0.58444 0.0
C1962 C 0.86283 0.64737 0.50185 0.0
C1963 C 0.85316 0.69754 0.55674 0.0
N1964 N 0.84239 0.68983 0.458 0.0
N1965 N 0.89125 0.66491 0.59638 0.0
H1966 H 0.82448 0.73984 0.58037 0.0
H1967 H 0.84261 0.71069 0.61144 0.0
H1968 H 0.90823 0.64487 0.60404 0.0
H1969 H 0.89091 0.68499 0.61555 0.0
H1970 H 0.84937 0.67367 0.43636 0.0
H1971 H 0.83187 0.71419 0.45061 0.0
H1972 H 0.8418 0.62185 0.45574 0.0
H1973 H 0.86017 0.59359 0.48759 0.0
C1974 C 0.32251 0.85775 0.55919 0.0
C1975 C 0.30966 0.84661 0.52508 0.0
C1976 C 0.35481 0.88177 0.49459 0.0
C1977 C 0.36573 0.89451 0.52869 0.0
N1978 N 0.36932 0.88602 0.5928 0.0
N1979 N 0.31711 0.84164 0.4609 0.0
C1980 C 0.35263 0.87952 0.56079 0.0
C1981 C 0.3273 0.85637 0.49288 0.0
N1982 N 0.30453 0.84968 0.58994 0.0
N1983 N 0.37012 0.89474 0.46415 0.0
H1984 H 0.29736 0.82276 0.45936 0.0
H1985 H 0.32921 0.84626 0.43629 0.0
H1986 H 0.39071 0.91274 0.46507 0.0
H1987 H 0.36256 0.88825 0.43805 0.0
H1988 H 0.31001 0.86086 0.61496 0.0
H1989 H 0.28246 0.83357 0.59028 0.0
H1990 H 0.36326 0.8732 0.61672 0.0
H1991 H 0.39177 0.9016 0.59466 0.0
C1992 C 0.18926 0.37319 0.5293 0.0
C1993 C 0.2148 0.35999 0.50468 0.0
C1994 C 0.18982 0.39653 0.45643 0.0
C1995 C 0.16408 0.40944 0.48095 0.0
N1996 N 0.13553 0.40723 0.53881 0.0
N1997 N 0.23682 0.3545 0.44404 0.0
C1998 C 0.16258 0.39677 0.51683 0.0
C1999 C 0.21424 0.37026 0.46795 0.0
N2000 N 0.19121 0.3638 0.56481 0.0
N2001 N 0.19127 0.40994 0.42228 0.0
H2002 H 0.25588 0.33608 0.4517 0.0
H2003 H 0.23541 0.35775 0.41625 0.0
H2004 H 0.17258 0.42756 0.41212 0.0
H2005 H 0.21179 0.40507 0.40436 0.0
H2006 H 0.17616 0.37532 0.58513 0.0
H2007 H 0.20935 0.34537 0.5745 0.0
H2008 H 0.1307 0.39656 0.56407 0.0
H2009 H 0.11629 0.42538 0.53093 0.0
C2010 C 0.36055 0.16768 0.52494 0.0
C2011 C 0.32934 0.1609 0.50475 0.0
C2012 C 0.3542 0.10363 0.48704 0.0
C2013 C 0.38574 0.11166 0.50565 0.0
N2014 N 0.42343 0.1576 0.52737 0.0
N2015 N 0.30405 0.12802 0.45522 0.0
C2016 C 0.39047 0.146 0.51927 0.0
C2017 C 0.3287 0.13074 0.48185 0.0
N2018 N 0.36117 0.19217 0.55194 0.0
N2019 N 0.34722 0.06999 0.47664 0.0
H2020 H 0.28624 0.14831 0.44955 0.0
H2021 H 0.30415 0.10749 0.43651 0.0
H2022 H 0.36448 0.04914 0.48168 0.0
H2023 H 0.32299 0.06258 0.46584 0.0
H2024 H 0.38308 0.19559 0.56856 0.0
H2025 H 0.33889 0.20562 0.56098 0.0
H2026 H 0.42831 0.18339 0.53551 0.0
H2027 H 0.44583 0.14238 0.52189 0.0
C2028 C 0.85234 0.33552 0.54419 0.0
C2029 C 0.83989 0.32223 0.51075 0.0
C2030 C 0.86156 0.37484 0.48022 0.0
C2031 C 0.87041 0.38955 0.51421 0.0
N2032 N 0.86703 0.387 0.5792 0.0
N2033 N 0.82867 0.33049 0.44742 0.0
C2034 C 0.86374 0.37078 0.5464 0.0
C2035 C 0.84339 0.34224 0.47881 0.0
N2036 N 0.85469 0.31406 0.57362 0.0
N2037 N 0.87154 0.39143 0.44939 0.0
H2038 H 0.81538 0.30665 0.44555 0.0
H2039 H 0.82725 0.34549 0.42404 0.0
H2040 H 0.88457 0.4154 0.44976 0.0
H2041 H 0.86932 0.38034 0.4238 0.0
H2042 H 0.86725 0.32141 0.59744 0.0
H2043 H 0.84736 0.2877 0.57325 0.0
H2044 H 0.85873 0.37565 0.60321 0.0
H2045 H 0.87471 0.4131 0.58222 0.0
C2046 C 0.13483 0.66646 0.54398 0.0
C2047 C 0.17048 0.66531 0.53255 0.0
C2048 C 0.15791 0.61372 0.495 0.0
C2049 C 0.12156 0.61704 0.5035 0.0
N2050 N 0.0744 0.65043 0.53105 0.0
N2051 N 0.21512 0.64151 0.4931 0.0
C2052 C 0.10969 0.64437 0.5268 0.0
C2053 C 0.18176 0.64002 0.5068 0.0
N2054 N 0.1251 0.68823 0.57167 0.0
N2055 N 0.16993 0.5846 0.47696 0.0
H2056 H 0.23355 0.66003 0.50152 0.0
H2057 H 0.22359 0.62637 0.47129 0.0
H2058 H 0.15351 0.56418 0.46885 0.0
H2059 H 0.19656 0.57896 0.47318 0.0
H2060 H 0.1005 0.68727 0.58401 0.0
H2061 H 0.14257 0.70544 0.58422 0.0
H2062 H 0.06413 0.67214 0.54474 0.0
H2063 H 0.05519 0.63537 0.5183 0.0
loop_
_geom_bond_atom_site_label_1
_geom_bond_atom_site_label_2
_geom_bond_distance
_geom_bond_site_symmetry_2
_ccdc_geom_bond_type
H0 C1 0.949 . S
C1 H0 0.949 . S
C1 C2 1.395 . S
C1 C3 1.391 . S
C2 C1 1.395 . S
C2 C5 1.390 . S
C3 C1 1.391 . S
C3 C7 1.387 . S
C3 C8 1.491 . S
H4 C5 0.950 . S
C5 C2 1.390 . S
C5 H4 0.950 . S
C5 C6 1.378 . S
C6 C5 1.378 . S
C6 C7 1.409 . S
C7 C3 1.387 . S
C7 C6 1.409 . S
C7 H9 0.951 . S
C8 C3 1.491 . S
C8 C10 1.382 . S
C8 C12 1.404 1_455 S
H9 C7 0.951 . S
C10 C8 1.382 . S
C10 C11 1.390 . S
C10 H15 0.949 . S
C11 C10 1.390 . S
C11 C16 1.399 . S
C12 C8 1.404 1_655 S
C12 H13 0.950 . S
C12 C14 1.375 . S
H13 C12 0.950 . S
C14 C12 1.375 . S
C14 C16 1.382 1_655 S
C14 H18 0.950 . S
H15 C10 0.949 . S
C16 C11 1.399 . S
C16 C14 1.382 1_455 S
C16 H17 0.952 1_455 S
H17 C16 0.952 1_655 S
H18 C14 0.950 . S
H19 C20 0.949 . S
C20 H19 0.949 . S
C20 C21 1.395 . S
C20 C22 1.391 . S
C21 C20 1.395 . S
C21 C24 1.390 . S
C22 C20 1.391 . S
C22 C26 1.387 . S
C22 C27 1.491 . S
H23 C24 0.950 . S
C24 C21 1.390 . S
C24 H23 0.950 . S
C24 C25 1.378 . S
C25 C24 1.378 . S
C25 C26 1.409 . S
C26 C22 1.387 . S
C26 C25 1.409 . S
C26 H28 0.951 . S
C27 C22 1.491 . S
C27 C29 1.382 . S
C27 C31 1.404 . S
H28 C26 0.951 . S
C29 C27 1.382 . S
C29 C30 1.390 . S
C29 H34 0.949 . S
C30 C29 1.390 . S
C30 C35 1.399 . S
C31 C27 1.404 . S
C31 H32 0.950 . S
C31 C33 1.375 . S
H32 C31 0.950 . S
C33 C31 1.375 . S
C33 C35 1.382 . S
C33 H37 0.950 . S
H34 C29 0.949 . S
C35 C30 1.399 . S
C35 C33 1.382 . S
C35 H36 0.952 . S
H36 C35 0.952 . S
H37 C33 0.950 . S
H38 C39 0.949 . S
C39 H38 0.949 . S
C39 C40 1.395 . S
C39 C41 1.391 . S
C40 C39 1.395 . S
C40 C43 1.390 . S
C41 C39 1.391 . S
C41 C45 1.387 . S
C41 C46 1.491 . S
H42 C43 0.950 . S
C43 C40 1.390 . S
C43 H42 0.950 . S
C43 C44 1.378 . S
C44 C43 1.378 . S
C44 C45 1.409 . S
C45 C41 1.387 . S
C45 C44 1.409 . S
C45 H47 0.951 . S
C46 C41 1.491 . S
C46 C48 1.382 . S
C46 C50 1.404 1_455 S
H47 C45 0.951 . S
C48 C46 1.382 . S
C48 C49 1.390 . S
C48 H53 0.949 . S
C49 C48 1.390 . S
C49 C54 1.399 1_455 S
C50 C46 1.404 1_655 S
C50 H51 0.950 . S
C50 C52 1.375 . S
H51 C50 0.950 . S
C52 C50 1.375 . S
C52 C54 1.382 . S
C52 H56 0.950 . S
H53 C48 0.949 . S
C54 C49 1.399 1_655 S
C54 C52 1.382 . S
C54 H55 0.952 . S
H55 C54 0.952 . S
H56 C52 0.950 . S
H57 C58 0.949 . S
C58 H57 0.949 . S
C58 C59 1.395 1_565 S
C58 C60 1.391 . S
C59 C58 1.395 1_545 S
C59 C62 1.390 . S
C60 C58 1.391 . S
C60 C64 1.387 . S
C60 C65 1.491 . S
H61 C62 0.950 . S
C62 C59 1.390 . S
C62 H61 0.950 . S
C62 C63 1.378 . S
C63 C62 1.378 . S
C63 C64 1.409 1_545 S
C64 C60 1.387 . S
C64 C63 1.409 1_565 S
C64 H66 0.951 . S
C65 C60 1.491 . S
C65 C67 1.382 1_565 S
C65 C69 1.404 . S
H66 C64 0.951 . S
C67 C65 1.382 1_545 S
C67 C68 1.390 1_545 S
C67 H72 0.949 . S
C68 C67 1.390 1_565 S
C68 C73 1.399 . S
C69 C65 1.404 . S
C69 H70 0.950 . S
C69 C71 1.375 . S
H70 C69 0.950 . S
C71 C69 1.375 . S
C71 C73 1.382 . S
C71 H75 0.950 . S
H72 C67 0.949 . S
C73 C68 1.399 . S
C73 C71 1.382 . S
C73 H74 0.952 . S
H74 C73 0.952 . S
H75 C71 0.950 . S
H76 C77 0.949 . S
C77 H76 0.949 . S
C77 C78 1.393 1_655 S
C77 C79 1.391 . S
C78 C77 1.393 1_455 S
C78 C81 1.391 . S
C79 C77 1.391 . S
C79 C83 1.387 . S
C79 C84 1.491 . S
H80 C81 0.950 . S
C81 C78 1.391 . S
C81 H80 0.950 . S
C81 C82 1.379 . S
C82 C81 1.379 . S
C82 C83 1.406 1_455 S
C83 C79 1.387 . S
C83 C82 1.406 1_655 S
C83 H85 0.951 . S
C84 C79 1.491 . S
C84 C86 1.382 . S
C84 C88 1.404 . S
H85 C83 0.951 . S
C86 C84 1.382 . S
C86 C87 1.390 . S
C86 H91 0.949 1_655 S
C87 C86 1.390 . S
C87 C92 1.399 . S
C88 C84 1.404 . S
C88 H89 0.950 . S
C88 C90 1.375 . S
H89 C88 0.950 . S
C90 C88 1.375 . S
C90 C92 1.382 . S
C90 H94 0.950 . S
H91 C86 0.949 1_455 S
C92 C87 1.399 . S
C92 C90 1.382 . S
C92 H93 0.952 . S
H93 C92 0.952 . S
H94 C90 0.950 . S
H95 C96 0.949 . S
C96 H95 0.949 . S
C96 C97 1.395 . S
C96 C98 1.391 . S
C97 C96 1.395 . S
C97 C100 1.390 . S
C98 C96 1.391 . S
C98 C102 1.387 . S
C98 C103 1.491 . S
H99 C100 0.954 . S
C100 C97 1.390 . S
C100 H99 0.954 . S
C100 C101 1.378 . S
C101 C100 1.378 . S
C101 C102 1.409 . S
C102 C98 1.387 . S
C102 C101 1.409 . S
C102 H104 0.951 . S
C103 C98 1.491 . S
C103 C105 1.382 . S
C103 C107 1.404 . S
H104 C102 0.951 . S
C105 C103 1.382 . S
C105 C106 1.390 . S
C105 H110 0.949 1_545 S
C106 C105 1.390 . S
C106 C111 1.399 . S
C107 C103 1.404 . S
C107 H108 0.950 . S
C107 C109 1.375 . S
H108 C107 0.950 . S
C109 C107 1.375 . S
C109 C111 1.382 . S
C109 H113 0.950 . S
H110 C105 0.949 1_565 S
C111 C106 1.399 . S
C111 C109 1.382 . S
C111 H112 0.952 . S
H112 C111 0.952 . S
H113 C109 0.950 . S
H114 C115 0.949 . S
C115 H114 0.949 . S
C115 C116 1.395 . S
C115 C117 1.391 . S
C116 C115 1.395 . S
C116 C119 1.390 . S
C117 C115 1.391 . S
C117 C121 1.387 . S
C117 C122 1.491 . S
H118 C119 0.950 . S
C119 C116 1.390 . S
C119 H118 0.950 . S
C119 C120 1.378 . S
C120 C119 1.378 . S
C120 C121 1.409 . S
C121 C117 1.387 . S
C121 C120 1.409 . S
C121 H123 0.951 . S
C122 C117 1.491 . S
C122 C124 1.382 . S
C122 C126 1.404 1_455 S
H123 C121 0.951 . S
C124 C122 1.382 . S
C124 C125 1.390 . S
C124 H129 0.949 . S
C125 C124 1.390 . S
C125 C130 1.399 1_455 S
C126 C122 1.404 1_655 S
C126 H127 0.950 . S
C126 C128 1.375 . S
H127 C126 0.950 . S
C128 C126 1.375 . S
C128 C130 1.382 . S
C128 H132 0.950 . S
H129 C124 0.949 . S
C130 C125 1.399 1_655 S
C130 C128 1.382 . S
C130 H131 0.952 . S
H131 C130 0.952 . S
H132 C128 0.950 . S
H133 C134 0.949 . S
C134 H133 0.949 . S
C134 C135 1.395 . S
C134 C136 1.391 . S
C135 C134 1.395 . S
C135 C138 1.390 . S
C136 C134 1.391 . S
C136 C140 1.387 . S
C136 C141 1.491 . S
H137 C138 0.950 . S
C138 C135 1.390 . S
C138 H137 0.950 . S
C138 C139 1.378 . S
C139 C138 1.378 . S
C139 C140 1.409 . S
C140 C136 1.387 . S
C140 C139 1.409 . S
C140 H142 0.951 . S
C141 C136 1.491 . S
C141 C143 1.382 . S
C141 C145 1.404 . S
H142 C140 0.951 . S
C143 C141 1.382 . S
C143 C144 1.390 . S
C143 H148 0.949 . S
C144 C143 1.390 . S
C144 C149 1.399 . S
C145 C141 1.404 . S
C145 H146 0.950 . S
C145 C147 1.375 . S
H146 C145 0.950 . S
C147 C145 1.375 . S
C147 C149 1.382 . S
C147 H151 0.950 . S
H148 C143 0.949 . S
C149 C144 1.399 . S
C149 C147 1.382 . S
C149 H150 0.952 . S
H150 C149 0.952 . S
H151 C147 0.950 . S
H152 C153 0.949 . S
C153 H152 0.949 . S
C153 C154 1.395 . S
C153 C155 1.391 . S
C154 C153 1.395 . S
C154 C157 1.390 . S
C155 C153 1.391 . S
C155 C159 1.387 . S
C155 C160 1.491 . S
H156 C157 0.950 . S
C157 C154 1.390 . S
C157 H156 0.950 . S
C157 C158 1.378 . S
C158 C157 1.378 . S
C158 C159 1.409 . S
C159 C155 1.387 . S
C159 C158 1.409 . S
C159 H161 0.951 . S
C160 C155 1.491 . S
C160 C162 1.382 . S
C160 C164 1.404 . S
H161 C159 0.951 . S
C162 C160 1.382 . S
C162 C163 1.390 . S
C162 H167 0.949 . S
C163 C162 1.390 . S
C163 C168 1.399 . S
C164 C160 1.404 . S
C164 H165 0.950 . S
C164 C166 1.375 . S
H165 C164 0.950 . S
C166 C164 1.375 . S
C166 C168 1.382 . S
C166 H170 0.950 . S
H167 C162 0.949 . S
C168 C163 1.399 . S
C168 C166 1.382 . S
C168 H169 0.952 . S
H169 C168 0.952 . S
H170 C166 0.950 . S
H171 C172 0.949 . S
C172 H171 0.949 . S
C172 C173 1.395 . S
C172 C174 1.391 . S
C173 C172 1.395 . S
C173 C176 1.390 . S
C174 C172 1.391 . S
C174 C178 1.387 . S
C174 C179 1.491 1_554 S
H175 C176 0.950 . S
C176 C173 1.390 . S
C176 H175 0.950 . S
C176 C177 1.378 . S
C177 C176 1.378 . S
C177 C178 1.409 . S
C178 C174 1.387 . S
C178 C177 1.409 . S
C178 H180 0.951 . S
C179 C174 1.491 1_556 S
C179 C181 1.382 1_556 S
C179 C183 1.404 . S
H180 C178 0.951 . S
C181 C179 1.382 1_554 S
C181 C182 1.390 . S
C181 H186 0.949 . S
C182 C181 1.390 . S
C182 C187 1.399 1_554 S
C183 C179 1.404 . S
C183 H184 0.950 . S
C183 C185 1.375 . S
H184 C183 0.950 . S
C185 C183 1.375 . S
C185 C187 1.382 . S
C185 H189 0.950 . S
H186 C181 0.949 . S
C187 C182 1.399 1_556 S
C187 C185 1.382 . S
C187 H188 0.952 . S
H188 C187 0.952 . S
H189 C185 0.950 . S
H190 C191 0.949 . S
C191 H190 0.949 . S
C191 C192 1.395 . S
C191 C193 1.391 . S
C192 C191 1.395 . S
C192 C195 1.390 . S
C193 C191 1.391 . S
C193 C197 1.387 . S
C193 C198 1.491 . S
H194 C195 0.950 1_556 S
C195 C192 1.390 . S
C195 H194 0.950 1_554 S
C195 C196 1.378 . S
C196 C195 1.378 . S
C196 C197 1.409 . S
C197 C193 1.387 . S
C197 C196 1.409 . S
C197 H199 0.951 . S
C198 C193 1.491 . S
C198 C200 1.382 . S
C198 C202 1.404 . S
H199 C197 0.951 . S
C200 C198 1.382 . S
C200 C201 1.390 . S
C200 H205 0.949 1_554 S
C201 C200 1.390 . S
C201 C206 1.399 . S
C202 C198 1.404 . S
C202 H203 0.950 . S
C202 C204 1.375 . S
H203 C202 0.950 . S
C204 C202 1.375 . S
C204 C206 1.382 . S
C204 H208 0.950 . S
H205 C200 0.949 1_556 S
C206 C201 1.399 . S
C206 C204 1.382 . S
C206 H207 0.952 . S
H207 C206 0.952 . S
H208 C204 0.950 . S
H209 C210 0.950 . S
C210 H209 0.950 . S
C210 C211 1.395 . S
C210 C212 1.391 1_554 S
C211 C210 1.395 . S
C211 C214 1.390 . S
C212 C210 1.391 1_556 S
C212 C216 1.388 . S
C212 C217 1.491 . S
H213 C214 0.950 . S
C214 C211 1.390 . S
C214 H213 0.950 . S
C214 C215 1.378 . S
C215 C214 1.378 . S
C215 C216 1.407 1_554 S
C216 C212 1.388 . S
C216 C215 1.407 1_556 S
C216 H218 0.952 . S
C217 C212 1.491 . S
C217 C219 1.382 1_556 S
C217 C221 1.404 . S
H218 C216 0.952 . S
C219 C217 1.382 1_554 S
C219 C220 1.390 1_554 S
C219 H224 0.949 . S
C220 C219 1.390 1_556 S
C220 C225 1.399 . S
C221 C217 1.404 . S
C221 H222 0.950 . S
C221 C223 1.375 . S
H222 C221 0.950 . S
C223 C221 1.375 . S
C223 C225 1.382 . S
C223 H227 0.950 . S
H224 C219 0.949 . S
C225 C220 1.399 . S
C225 C223 1.382 . S
C225 H226 0.952 . S
H226 C225 0.952 . S
H227 C223 0.950 . S
H228 C229 0.949 . S
C229 H228 0.949 . S
C229 C230 1.395 . S
C229 C231 1.391 . S
C230 C229 1.395 . S
C230 C233 1.390 . S
C231 C229 1.391 . S
C231 C235 1.387 . S
C231 C236 1.491 . S
H232 C233 0.950 . S
C233 C230 1.390 . S
C233 H232 0.950 . S
C233 C234 1.378 . S
C234 C233 1.378 . S
C234 C235 1.409 . S
C235 C231 1.387 . S
C235 C234 1.409 . S
C235 H237 0.951 . S
C236 C231 1.491 . S
C236 C238 1.382 . S
C236 C240 1.404 . S
H237 C235 0.951 . S
C238 C236 1.382 . S
C238 C239 1.390 . S
C238 H243 0.949 . S
C239 C238 1.390 . S
C239 C244 1.399 . S
C240 C236 1.404 . S
C240 H241 0.950 . S
C240 C242 1.375 . S
H241 C240 0.950 . S
C242 C240 1.375 . S
C242 C244 1.382 . S
C242 H246 0.950 . S
H243 C238 0.949 . S
C244 C239 1.399 . S
C244 C242 1.382 . S
C244 H245 0.952 . S
H245 C244 0.952 . S
H246 C242 0.950 . S
H247 C248 0.949 . S
C248 H247 0.949 . S
C248 C249 1.395 . S
C248 C250 1.391 . S
C249 C248 1.395 . S
C249 C252 1.390 . S
C250 C248 1.391 . S
C250 C254 1.387 . S
C250 C255 1.491 . S
H251 C252 0.950 . S
C252 C249 1.390 . S
C252 H251 0.950 . S
C252 C253 1.378 . S
C253 C252 1.378 . S
C253 C254 1.409 . S
C254 C250 1.387 . S
C254 C253 1.409 . S
C254 H256 0.951 . S
C255 C250 1.491 . S
C255 C257 1.382 . S
C255 C259 1.404 . S
H256 C254 0.951 . S
C257 C255 1.382 . S
C257 C258 1.390 . S
C257 H262 0.949 . S
C258 C257 1.390 . S
C258 C263 1.399 . S
C259 C255 1.404 . S
C259 H260 0.950 . S
C259 C261 1.375 . S
H260 C259 0.950 . S
C261 C259 1.375 . S
C261 C263 1.382 . S
C261 H265 0.950 . S
H262 C257 0.949 . S
C263 C258 1.399 . S
C263 C261 1.382 . S
C263 H264 0.952 . S
H264 C263 0.952 . S
H265 C261 0.950 . S
H266 C267 0.949 . S
C267 H266 0.949 . S
C267 C268 1.395 . S
C267 C269 1.391 . S
C268 C267 1.395 . S
C268 C271 1.390 . S
C269 C267 1.391 . S
C269 C273 1.387 . S
C269 C274 1.491 . S
H270 C271 0.950 . S
C271 C268 1.390 . S
C271 H270 0.950 . S
C271 C272 1.378 . S
C272 C271 1.378 . S
C272 C273 1.409 . S
C273 C269 1.387 . S
C273 C272 1.409 . S
C273 H275 0.951 . S
C274 C269 1.491 . S
C274 C276 1.382 . S
C274 C278 1.404 . S
H275 C273 0.951 . S
C276 C274 1.382 . S
C276 C277 1.390 . S
C276 H281 0.949 . S
C277 C276 1.390 . S
C277 C282 1.399 . S
C278 C274 1.404 . S
C278 H279 0.950 . S
C278 C280 1.375 . S
H279 C278 0.950 . S
C280 C278 1.375 . S
C280 C282 1.382 . S
C280 H284 0.950 . S
H281 C276 0.949 . S
C282 C277 1.399 . S
C282 C280 1.382 . S
C282 H283 0.952 . S
H283 C282 0.952 . S
H284 C280 0.950 . S
H285 C286 0.949 . S
C286 H285 0.949 . S
C286 C287 1.395 . S
C286 C288 1.391 . S
C287 C286 1.395 . S
C287 C290 1.390 . S
C288 C286 1.391 . S
C288 C292 1.387 . S
C288 C293 1.491 . S
H289 C290 0.950 . S
C290 C287 1.390 . S
C290 H289 0.950 . S
C290 C291 1.378 . S
C291 C290 1.378 . S
C291 C292 1.409 . S
C292 C288 1.387 . S
C292 C291 1.409 . S
C292 H294 0.951 . S
C293 C288 1.491 . S
C293 C295 1.382 . S
C293 C297 1.404 . S
H294 C292 0.951 . S
C295 C293 1.382 . S
C295 C296 1.390 . S
C295 H300 0.949 . S
C296 C295 1.390 . S
C296 C301 1.399 . S
C297 C293 1.404 . S
C297 H298 0.950 . S
C297 C299 1.375 . S
H298 C297 0.950 . S
C299 C297 1.375 . S
C299 C301 1.382 . S
C299 H303 0.950 . S
H300 C295 0.949 . S
C301 C296 1.399 . S
C301 C299 1.382 . S
C301 H302 0.952 . S
H302 C301 0.952 . S
H303 C299 0.950 . S
H304 C305 0.949 . S
C305 H304 0.949 . S
C305 C306 1.395 . S
C305 C307 1.391 . S
C306 C305 1.395 . S
C306 C309 1.390 . S
C307 C305 1.391 . S
C307 C311 1.387 . S
C307 C312 1.491 . S
H308 C309 0.950 . S
C309 C306 1.390 . S
C309 H308 0.950 . S
C309 C310 1.378 . S
C310 C309 1.378 . S
C310 C311 1.409 . S
C311 C307 1.387 . S
C311 C310 1.409 . S
C311 H313 0.951 . S
C312 C307 1.491 . S
C312 C314 1.382 . S
C312 C316 1.404 . S
H313 C311 0.951 . S
C314 C312 1.382 . S
C314 C315 1.390 . S
C314 H319 0.949 . S
C315 C314 1.390 . S
C315 C320 1.399 . S
C316 C312 1.404 . S
C316 H317 0.950 . S
C316 C318 1.375 . S
H317 C316 0.950 . S
C318 C316 1.375 . S
C318 C320 1.382 . S
C318 H322 0.950 . S
H319 C314 0.949 . S
C320 C315 1.399 . S
C320 C318 1.382 . S
C320 H321 0.952 . S
H321 C320 0.952 . S
H322 C318 0.950 . S
H323 C324 0.949 . S
C324 H323 0.949 . S
C324 C325 1.395 . S
C324 C326 1.391 . S
C325 C324 1.395 . S
C325 C328 1.390 . S
C326 C324 1.391 . S
C326 C330 1.387 . S
C326 C331 1.491 . S
H327 C328 0.950 . S
C328 C325 1.390 . S
C328 H327 0.950 . S
C328 C329 1.378 . S
C329 C328 1.378 . S
C329 C330 1.409 . S
C330 C326 1.387 . S
C330 C329 1.409 . S
C330 H332 0.951 . S
C331 C326 1.491 . S
C331 C333 1.382 . S
C331 C335 1.404 . S
H332 C330 0.951 . S
C333 C331 1.382 . S
C333 C334 1.390 . S
C333 H338 0.949 . S
C334 C333 1.390 . S
C334 C339 1.399 . S
C335 C331 1.404 . S
C335 H336 0.950 . S
C335 C337 1.375 . S
H336 C335 0.950 . S
C337 C335 1.375 . S
C337 C339 1.382 . S
C337 H341 0.950 . S
H338 C333 0.949 . S
C339 C334 1.399 . S
C339 C337 1.382 . S
C339 H340 0.952 . S
H340 C339 0.952 . S
H341 C337 0.950 . S
H342 C343 0.949 . S
C343 H342 0.949 . S
C343 C344 1.395 . S
C343 C345 1.391 . S
C344 C343 1.395 . S
C344 C347 1.390 . S
C345 C343 1.391 . S
C345 C349 1.387 . S
C345 C350 1.491 . S
H346 C347 0.950 . S
C347 C344 1.390 . S
C347 H346 0.950 . S
C347 C348 1.378 . S
C348 C347 1.378 . S
C348 C349 1.409 . S
C349 C345 1.387 . S
C349 C348 1.409 . S
C349 H351 0.951 . S
C350 C345 1.491 . S
C350 C352 1.382 . S
C350 C354 1.404 . S
H351 C349 0.951 . S
C352 C350 1.382 . S
C352 C353 1.390 . S
C352 H357 0.949 . S
C353 C352 1.390 . S
C353 C358 1.399 . S
C354 C350 1.404 . S
C354 H355 0.950 . S
C354 C356 1.375 . S
H355 C354 0.950 . S
C356 C354 1.375 . S
C356 C358 1.382 . S
C356 H360 0.950 . S
H357 C352 0.949 . S
C358 C353 1.399 . S
C358 C356 1.382 . S
C358 H359 0.952 . S
H359 C358 0.952 . S
H360 C356 0.950 . S
H361 C362 0.949 . S
C362 H361 0.949 . S
C362 C363 1.395 . S
C362 C364 1.391 . S
C363 C362 1.395 . S
C363 C366 1.390 . S
C364 C362 1.391 . S
C364 C368 1.387 . S
C364 C369 1.491 . S
H365 C366 0.950 . S
C366 C363 1.390 . S
C366 H365 0.950 . S
C366 C367 1.378 . S
C367 C366 1.378 . S
C367 C368 1.409 . S
C368 C364 1.387 . S
C368 C367 1.409 . S
C368 H370 0.951 . S
C369 C364 1.491 . S
C369 C371 1.382 . S
C369 C373 1.404 . S
H370 C368 0.951 . S
C371 C369 1.382 . S
C371 C372 1.390 . S
C371 H376 0.949 . S
C372 C371 1.390 . S
C372 C377 1.399 . S
C373 C369 1.404 . S
C373 H374 0.950 . S
C373 C375 1.375 . S
H374 C373 0.950 . S
C375 C373 1.375 . S
C375 C377 1.382 . S
C375 H379 0.950 . S
H376 C371 0.949 . S
C377 C372 1.399 . S
C377 C375 1.382 . S
C377 H378 0.952 . S
H378 C377 0.952 . S
H379 C375 0.950 . S
H380 C381 0.949 . S
C381 H380 0.949 . S
C381 C382 1.395 . S
C381 C383 1.391 . S
C382 C381 1.395 . S
C382 C385 1.390 . S
C383 C381 1.391 . S
C383 C387 1.387 . S
C383 C388 1.491 . S
H384 C385 0.950 . S
C385 C382 1.390 . S
C385 H384 0.950 . S
C385 C386 1.378 . S
C386 C385 1.378 . S
C386 C387 1.409 . S
C387 C383 1.387 . S
C387 C386 1.409 . S
C387 H389 0.951 . S
C388 C383 1.491 . S
C388 C390 1.382 . S
C388 C392 1.404 . S
H389 C387 0.951 . S
C390 C388 1.382 . S
C390 C391 1.390 . S
C390 H395 0.949 . S
C391 C390 1.390 . S
C391 C396 1.399 . S
C392 C388 1.404 . S
C392 H393 0.950 . S
C392 C394 1.375 . S
H393 C392 0.950 . S
C394 C392 1.375 . S
C394 C396 1.382 . S
C394 H398 0.950 . S
H395 C390 0.949 . S
C396 C391 1.399 . S
C396 C394 1.382 . S
C396 H397 0.952 . S
H397 C396 0.952 . S
H398 C394 0.950 . S
H399 C400 0.949 . S
C400 H399 0.949 . S
C400 C401 1.395 . S
C400 C402 1.391 . S
C401 C400 1.395 . S
C401 C404 1.390 . S
C402 C400 1.391 . S
C402 C406 1.387 . S
C402 C407 1.491 . S
H403 C404 0.950 . S
C404 C401 1.390 . S
C404 H403 0.950 . S
C404 C405 1.378 . S
C405 C404 1.378 . S
C405 C406 1.409 . S
C406 C402 1.387 . S
C406 C405 1.409 . S
C406 H408 0.951 . S
C407 C402 1.491 . S
C407 C409 1.382 . S
C407 C411 1.404 . S
H408 C406 0.951 . S
C409 C407 1.382 . S
C409 C410 1.390 . S
C409 H414 0.949 . S
C410 C409 1.390 . S
C410 C415 1.399 . S
C411 C407 1.404 . S
C411 H412 0.950 . S
C411 C413 1.375 . S
H412 C411 0.950 . S
C413 C411 1.375 . S
C413 C415 1.382 . S
C413 H417 0.950 . S
H414 C409 0.949 . S
C415 C410 1.399 . S
C415 C413 1.382 . S
C415 H416 0.952 . S
H416 C415 0.952 . S
H417 C413 0.950 . S
H418 C419 0.949 . S
C419 H418 0.949 . S
C419 C420 1.395 . S
C419 C421 1.391 . S
C420 C419 1.395 . S
C420 C423 1.390 . S
C421 C419 1.391 . S
C421 C425 1.387 . S
C421 C426 1.491 . S
H422 C423 0.950 . S
C423 C420 1.390 . S
C423 H422 0.950 . S
C423 C424 1.378 . S
C424 C423 1.378 . S
C424 C425 1.409 . S
C425 C421 1.387 . S
C425 C424 1.409 . S
C425 H427 0.951 . S
C426 C421 1.491 . S
C426 C428 1.382 . S
C426 C430 1.404 . S
H427 C425 0.951 . S
C428 C426 1.382 . S
C428 C429 1.390 . S
C428 H433 0.949 . S
C429 C428 1.390 . S
C429 C434 1.399 . S
C430 C426 1.404 . S
C430 H431 0.950 . S
C430 C432 1.375 . S
H431 C430 0.950 . S
C432 C430 1.375 . S
C432 C434 1.382 . S
C432 H436 0.950 . S
H433 C428 0.949 . S
C434 C429 1.399 . S
C434 C432 1.382 . S
C434 H435 0.952 . S
H435 C434 0.952 . S
H436 C432 0.950 . S
H437 C438 0.949 . S
C438 H437 0.949 . S
C438 C439 1.395 . S
C438 C440 1.391 . S
C439 C438 1.395 . S
C439 C442 1.390 . S
C440 C438 1.391 . S
C440 C444 1.387 . S
C440 C445 1.491 . S
H441 C442 0.950 . S
C442 C439 1.390 . S
C442 H441 0.950 . S
C442 C443 1.378 . S
C443 C442 1.378 . S
C443 C444 1.409 . S
C444 C440 1.387 . S
C444 C443 1.409 . S
C444 H446 0.951 . S
C445 C440 1.491 . S
C445 C447 1.382 . S
C445 C449 1.404 . S
H446 C444 0.951 . S
C447 C445 1.382 . S
C447 C448 1.390 . S
C447 H452 0.949 . S
C448 C447 1.390 . S
C448 C453 1.399 . S
C449 C445 1.404 . S
C449 H450 0.950 . S
C449 C451 1.375 . S
H450 C449 0.950 . S
C451 C449 1.375 . S
C451 C453 1.382 . S
C451 H455 0.950 . S
H452 C447 0.949 . S
C453 C448 1.399 . S
C453 C451 1.382 . S
C453 H454 0.952 . S
H454 C453 0.952 . S
H455 C451 0.950 . S
Zn456 O458 1.933 1_565 S
Zn456 O476 1.985 . S
Zn456 O487 1.955 . S
Zn457 O458 1.911 . S
Zn457 O477 1.970 . S
Zn457 O493 1.945 . S
Zn457 O500 1.981 . S
O458 Zn456 1.933 1_545 S
O458 Zn457 1.911 . S
O458 H459 0.841 1_655 S
H459 O458 0.841 1_455 S
C460 O461 1.246 . S
C460 O489 1.276 . S
O461 C460 1.246 . S
Zn462 O464 1.911 . S
Zn462 O479 1.970 . S
Zn462 O496 1.945 . S
Zn462 O503 1.981 . S
Zn463 O464 1.933 1_565 S
Zn463 O478 1.985 . S
Zn463 O485 1.955 . S
O464 Zn462 1.911 . S
O464 Zn463 1.933 1_545 S
O464 H465 0.841 . S
H465 O464 0.841 . S
Zn466 O467 1.933 1_565 S
Zn466 O480 1.985 . S
Zn466 O489 1.955 . S
O467 Zn466 1.933 1_545 S
O467 Zn468 1.911 . S
O467 H469 0.841 . S
Zn468 O467 1.911 . S
Zn468 O481 1.970 . S
Zn468 O497 1.981 1_655 S
Zn468 O499 1.945 . S
H469 O467 0.841 . S
Zn470 O471 1.933 1_565 S
Zn470 O483 1.985 . S
Zn470 O491 1.955 . S
O471 Zn470 1.933 1_545 S
O471 H472 0.841 . S
O471 Zn473 1.911 . S
H472 O471 0.841 . S
Zn473 O471 1.911 . S
Zn473 O484 1.970 . S
Zn473 O494 1.981 . S
Zn473 O502 1.945 . S
C474 O475 1.246 . S
C474 O491 1.276 . S
O475 C474 1.246 . S
O476 Zn456 1.985 . S
O476 C486 1.245 1_565 S
O477 Zn457 1.970 . S
O477 C486 1.263 . S
O478 Zn463 1.985 . S
O478 C490 1.245 1_565 S
O479 Zn462 1.970 . S
O479 C490 1.263 . S
O480 Zn466 1.985 . S
O480 C495 1.245 1_565 S
O481 Zn468 1.970 . S
O481 C495 1.263 . S
C482 O493 1.262 1_455 S
C482 O494 1.245 . S
O483 Zn470 1.985 . S
O483 C501 1.245 1_565 S
O484 Zn473 1.970 . S
O484 C501 1.263 . S
O485 Zn463 1.955 . S
O485 C504 1.276 . S
C486 O476 1.245 1_545 S
C486 O477 1.263 . S
O487 Zn456 1.955 . S
O487 C506 1.276 1_655 S
C488 O496 1.262 . S
C488 O497 1.245 . S
O489 C460 1.276 . S
O489 Zn466 1.955 . S
C490 O478 1.245 1_545 S
C490 O479 1.263 . S
O491 Zn470 1.955 . S
O491 C474 1.276 . S
C492 O499 1.262 . S
C492 O500 1.245 . S
O493 Zn457 1.945 . S
O493 C482 1.262 1_655 S
O494 Zn473 1.981 . S
O494 C482 1.245 . S
C495 O480 1.245 1_545 S
C495 O481 1.263 . S
O496 Zn462 1.945 . S
O496 C488 1.262 . S
O497 Zn468 1.981 1_455 S
O497 C488 1.245 . S
C498 O502 1.262 . S
C498 O503 1.245 . S
O499 Zn468 1.945 . S
O499 C492 1.262 . S
O500 Zn457 1.981 . S
O500 C492 1.245 . S
C501 O483 1.245 1_545 S
C501 O484 1.263 . S
O502 Zn473 1.945 . S
O502 C498 1.262 . S
O503 Zn462 1.981 . S
O503 C498 1.245 . S
C504 O485 1.276 . S
C504 O505 1.246 . S
O505 C504 1.246 . S
C506 O487 1.276 1_455 S
C506 O507 1.246 . S
O507 C506 1.246 . S
Zn508 O510 1.933 . S
Zn508 O528 1.985 . S
Zn508 O539 1.955 . S
Zn509 O510 1.911 1_556 S
Zn509 O529 1.970 . S
Zn509 O545 1.945 . S
Zn509 O552 1.981 . S
O510 Zn508 1.933 . S
O510 Zn509 1.911 1_554 S
O510 H511 0.841 . S
H511 O510 0.841 . S
C512 O513 1.246 . S
C512 O541 1.276 . S
O513 C512 1.246 . S
Zn514 O516 1.911 1_556 S
Zn514 O531 1.970 . S
Zn514 O548 1.945 . S
Zn514 O555 1.981 . S
Zn515 O516 1.933 . S
Zn515 O530 1.985 . S
Zn515 O537 1.955 . S
O516 Zn514 1.911 1_554 S
O516 Zn515 1.933 . S
O516 H517 0.841 1_565 S
H517 O516 0.841 1_545 S
Zn518 O519 1.933 . S
Zn518 O532 1.985 . S
Zn518 O541 1.955 . S
O519 Zn518 1.933 . S
O519 Zn520 1.911 1_554 S
O519 H521 0.841 . S
Zn520 O519 1.911 1_556 S
Zn520 O533 1.970 . S
Zn520 O549 1.981 . S
Zn520 O551 1.945 . S
H521 O519 0.841 . S
Zn522 O523 1.933 . S
Zn522 O535 1.985 . S
Zn522 O543 1.955 . S
O523 Zn522 1.933 . S
O523 H524 0.841 . S
O523 Zn525 1.911 1_554 S
H524 O523 0.841 . S
Zn525 O523 1.911 1_556 S
Zn525 O536 1.970 . S
Zn525 O546 1.975 1_565 S
Zn525 O554 1.945 . S
C526 O527 1.246 . S
C526 O543 1.276 . S
O527 C526 1.246 . S
O528 Zn508 1.985 . S
O528 C538 1.245 . S
O529 Zn509 1.970 . S
O529 C538 1.263 1_556 S
O530 Zn515 1.985 . S
O530 C542 1.245 . S
O531 Zn514 1.970 . S
O531 C542 1.263 1_556 S
O532 Zn518 1.985 . S
O532 C547 1.245 . S
O533 Zn520 1.970 . S
O533 C547 1.263 1_556 S
C534 O545 1.262 . S
C534 O546 1.249 . S
O535 Zn522 1.985 . S
O535 C553 1.245 . S
O536 Zn525 1.970 . S
O536 C553 1.263 1_556 S
O537 Zn515 1.955 . S
O537 C556 1.276 1_565 S
C538 O528 1.245 . S
C538 O529 1.263 1_554 S
O539 Zn508 1.955 . S
O539 C558 1.276 . S
C540 O548 1.262 1_545 S
C540 O549 1.245 . S
O541 C512 1.276 . S
O541 Zn518 1.955 . S
C542 O530 1.245 . S
C542 O531 1.263 1_554 S
O543 Zn522 1.955 . S
O543 C526 1.276 . S
C544 O551 1.262 . S
C544 O552 1.245 . S
O545 Zn509 1.945 . S
O545 C534 1.262 . S
O546 Zn525 1.975 1_545 S
O546 C534 1.249 . S
C547 O532 1.245 . S
C547 O533 1.263 1_554 S
O548 Zn514 1.945 . S
O548 C540 1.262 1_565 S
O549 Zn520 1.981 . S
O549 C540 1.245 . S
C550 O554 1.262 . S
C550 O555 1.245 . S
O551 Zn520 1.945 . S
O551 C544 1.262 . S
O552 Zn509 1.981 . S
O552 C544 1.245 . S
C553 O535 1.245 . S
C553 O536 1.263 1_554 S
O554 Zn525 1.945 . S
O554 C550 1.262 . S
O555 Zn514 1.981 . S
O555 C550 1.245 . S
C556 O537 1.276 1_545 S
C556 O557 1.246 . S
O557 C556 1.246 . S
C558 O539 1.276 . S
C558 O559 1.246 1_545 S
O559 C558 1.246 1_565 S
Zn560 O562 1.933 . S
Zn560 O580 1.985 . S
Zn560 O591 1.955 . S
Zn561 O562 1.911 . S
Zn561 O581 1.970 . S
Zn561 O597 1.945 . S
Zn561 O604 1.981 . S
O562 Zn560 1.933 . S
O562 Zn561 1.911 . S
O562 H563 0.841 1_655 S
H563 O562 0.841 1_455 S
C564 O565 1.246 1_554 S
C564 O593 1.276 . S
O565 C564 1.246 1_556 S
Zn566 O568 1.911 . S
Zn566 O583 1.970 . S
Zn566 O600 1.945 . S
Zn566 O607 1.981 . S
Zn567 O568 1.933 . S
Zn567 O582 1.985 . S
Zn567 O589 1.955 . S
O568 Zn566 1.911 . S
O568 Zn567 1.933 . S
O568 H569 0.841 . S
H569 O568 0.841 . S
Zn570 O571 1.933 . S
Zn570 O584 1.985 . S
Zn570 O593 1.955 . S
O571 Zn570 1.933 . S
O571 Zn572 1.911 . S
O571 H573 0.841 . S
Zn572 O571 1.911 . S
Zn572 O585 1.970 . S
Zn572 O601 1.981 . S
Zn572 O603 1.945 . S
H573 O571 0.841 . S
Zn574 O575 1.933 . S
Zn574 O587 1.985 . S
Zn574 O595 1.955 . S
O575 Zn574 1.933 . S
O575 H576 0.841 . S
O575 Zn577 1.911 . S
H576 O575 0.841 . S
Zn577 O575 1.911 . S
Zn577 O588 1.970 . S
Zn577 O598 1.981 . S
Zn577 O606 1.945 . S
C578 O579 1.246 . S
C578 O595 1.276 1_554 S
O579 C578 1.246 . S
O580 Zn560 1.985 . S
O580 C590 1.245 . S
O581 Zn561 1.970 . S
O581 C590 1.263 . S
O582 Zn567 1.985 . S
O582 C594 1.245 . S
O583 Zn566 1.970 . S
O583 C594 1.263 . S
O584 Zn570 1.985 . S
O584 C599 1.245 . S
O585 Zn572 1.970 . S
O585 C599 1.263 . S
C586 O597 1.262 1_455 S
C586 O598 1.245 . S
O587 Zn574 1.985 . S
O587 C605 1.245 . S
O588 Zn577 1.970 . S
O588 C605 1.263 . S
O589 Zn567 1.955 . S
O589 C608 1.276 . S
C590 O580 1.245 . S
C590 O581 1.263 . S
O591 Zn560 1.955 . S
O591 C610 1.276 1_655 S
C592 O600 1.262 . S
C592 O601 1.245 1_455 S
O593 C564 1.276 . S
O593 Zn570 1.955 . S
C594 O582 1.245 . S
C594 O583 1.263 . S
O595 Zn574 1.955 . S
O595 C578 1.276 1_556 S
C596 O603 1.262 . S
C596 O604 1.245 1_554 S
O597 Zn561 1.945 . S
O597 C586 1.262 1_655 S
O598 Zn577 1.981 . S
O598 C586 1.245 . S
C599 O584 1.245 . S
C599 O585 1.263 . S
O600 Zn566 1.945 . S
O600 C592 1.262 . S
O601 Zn572 1.981 . S
O601 C592 1.245 1_655 S
C602 O606 1.262 1_554 S
C602 O607 1.245 . S
O603 Zn572 1.945 . S
O603 C596 1.262 . S
O604 Zn561 1.981 . S
O604 C596 1.245 1_556 S
C605 O587 1.245 . S
C605 O588 1.263 . S
O606 Zn577 1.945 . S
O606 C602 1.262 1_556 S
O607 Zn566 1.981 . S
O607 C602 1.245 . S
C608 O589 1.276 . S
C608 O609 1.246 1_455 S
O609 C608 1.246 1_655 S
C610 O591 1.276 1_455 S
C610 O611 1.246 . S
O611 C610 1.246 . S
Zn612 O614 1.933 1_556 S
Zn612 O632 1.985 . S
Zn612 O643 1.955 . S
Zn613 O614 1.911 . S
Zn613 O633 1.970 . S
Zn613 O649 1.945 . S
Zn613 O656 1.981 . S
O614 Zn612 1.933 1_554 S
O614 Zn613 1.911 . S
O614 H615 0.841 . S
H615 O614 0.841 . S
C616 O617 1.246 . S
C616 O645 1.276 . S
O617 C616 1.246 . S
Zn618 O620 1.911 . S
Zn618 O635 1.970 . S
Zn618 O652 1.945 . S
Zn618 O659 1.981 . S
Zn619 O620 1.933 1_556 S
Zn619 O634 1.985 . S
Zn619 O641 1.955 . S
O620 Zn618 1.911 . S
O620 Zn619 1.933 1_554 S
O620 H621 0.841 . S
H621 O620 0.841 . S
Zn622 O623 1.933 1_556 S
Zn622 O636 1.985 . S
Zn622 O645 1.955 . S
O623 Zn622 1.933 1_554 S
O623 Zn624 1.911 . S
O623 H625 0.841 . S
Zn624 O623 1.911 . S
Zn624 O637 1.970 . S
Zn624 O653 1.981 . S
Zn624 O655 1.945 . S
H625 O623 0.841 . S
Zn626 O627 1.933 1_556 S
Zn626 O639 1.985 . S
Zn626 O647 1.955 . S
O627 Zn626 1.933 1_554 S
O627 H628 0.841 . S
O627 Zn629 1.911 . S
H628 O627 0.841 . S
Zn629 O627 1.911 . S
Zn629 O640 1.970 . S
Zn629 O650 1.981 . S
Zn629 O658 1.945 . S
C630 O631 1.246 . S
C630 O647 1.276 . S
O631 C630 1.246 . S
O632 Zn612 1.985 . S
O632 C642 1.245 1_556 S
O633 Zn613 1.970 . S
O633 C642 1.263 . S
O634 Zn619 1.985 . S
O634 C646 1.245 1_556 S
O635 Zn618 1.970 . S
O635 C646 1.263 . S
O636 Zn622 1.985 . S
O636 C651 1.245 1_556 S
O637 Zn624 1.970 . S
O637 C651 1.263 . S
C638 O649 1.262 . S
C638 O650 1.245 . S
O639 Zn626 1.985 . S
O639 C657 1.245 1_556 S
O640 Zn629 1.970 . S
O640 C657 1.263 . S
O641 Zn619 1.955 . S
O641 C660 1.276 . S
C642 O632 1.245 1_554 S
C642 O633 1.263 . S
O643 Zn612 1.955 . S
O643 C662 1.276 . S
C644 O652 1.262 . S
C644 O653 1.245 . S
O645 C616 1.276 . S
O645 Zn622 1.955 . S
C646 O634 1.245 1_554 S
C646 O635 1.263 . S
O647 Zn626 1.955 . S
O647 C630 1.276 . S
C648 O655 1.262 . S
C648 O656 1.245 . S
O649 Zn613 1.945 . S
O649 C638 1.262 . S
O650 Zn629 1.981 . S
O650 C638 1.245 . S
C651 O636 1.245 1_554 S
C651 O637 1.263 . S
O652 Zn618 1.945 . S
O652 C644 1.262 . S
O653 Zn624 1.981 . S
O653 C644 1.245 . S
C654 O658 1.262 . S
C654 O659 1.245 . S
O655 Zn624 1.945 . S
O655 C648 1.262 . S
O656 Zn613 1.981 . S
O656 C648 1.245 . S
C657 O639 1.245 1_554 S
C657 O640 1.263 . S
O658 Zn629 1.945 . S
O658 C654 1.262 . S
O659 Zn618 1.981 . S
O659 C654 1.245 . S
C660 O641 1.276 . S
C660 O661 1.246 . S
O661 C660 1.246 . S
C662 O643 1.276 . S
C662 O663 1.246 . S
O663 C662 1.246 . S
Zn664 O666 1.933 . S
Zn664 O684 1.985 . S
Zn664 O695 1.955 . S
Zn665 O666 1.911 . S
Zn665 O685 1.970 . S
Zn665 O701 1.945 . S
Zn665 O708 1.981 . S
O666 Zn664 1.933 . S
O666 Zn665 1.911 . S
O666 H667 0.841 1_655 S
H667 O666 0.841 1_455 S
C668 O669 1.246 . S
C668 O697 1.276 . S
O669 C668 1.246 . S
Zn670 O672 1.911 . S
Zn670 O687 1.970 . S
Zn670 O704 1.945 . S
Zn670 O711 1.981 . S
Zn671 O672 1.933 . S
Zn671 O686 1.985 . S
Zn671 O693 1.955 . S
O672 Zn670 1.911 . S
O672 Zn671 1.933 . S
O672 H673 0.841 . S
H673 O672 0.841 . S
Zn674 O675 1.933 . S
Zn674 O688 1.985 . S
Zn674 O697 1.955 . S
O675 Zn674 1.933 . S
O675 Zn676 1.911 . S
O675 H677 0.841 . S
Zn676 O675 1.911 . S
Zn676 O689 1.970 . S
Zn676 O705 1.971 1_655 S
Zn676 O707 1.945 . S
H677 O675 0.841 . S
Zn678 O679 1.933 . S
Zn678 O691 1.985 . S
Zn678 O699 1.955 . S
O679 Zn678 1.933 . S
O679 H680 0.841 . S
O679 Zn681 1.911 . S
H680 O679 0.841 . S
Zn681 O679 1.911 . S
Zn681 O692 1.970 . S
Zn681 O702 1.981 . S
Zn681 O710 1.945 . S
C682 O683 1.246 . S
C682 O699 1.276 . S
O683 C682 1.246 . S
O684 Zn664 1.985 . S
O684 C694 1.245 . S
O685 Zn665 1.970 . S
O685 C694 1.263 . S
O686 Zn671 1.985 . S
O686 C698 1.245 . S
O687 Zn670 1.970 . S
O687 C698 1.263 . S
O688 Zn674 1.985 . S
O688 C703 1.245 . S
O689 Zn676 1.970 . S
O689 C703 1.263 . S
C690 O701 1.262 1_455 S
C690 O702 1.245 . S
O691 Zn678 1.985 . S
O691 C709 1.245 . S
O692 Zn681 1.970 . S
O692 C709 1.263 . S
O693 Zn671 1.955 . S
O693 C712 1.276 . S
C694 O684 1.245 . S
C694 O685 1.263 . S
O695 Zn664 1.955 . S
O695 C714 1.276 1_655 S
C696 O704 1.262 . S
C696 O705 1.252 . S
O697 C668 1.276 . S
O697 Zn674 1.955 . S
C698 O686 1.245 . S
C698 O687 1.263 . S
O699 Zn678 1.955 . S
O699 C682 1.276 . S
C700 O707 1.262 . S
C700 O708 1.245 . S
O701 Zn665 1.945 . S
O701 C690 1.262 1_655 S
O702 Zn681 1.981 . S
O702 C690 1.245 . S
C703 O688 1.245 . S
C703 O689 1.263 . S
O704 Zn670 1.945 . S
O704 C696 1.262 . S
O705 Zn676 1.971 1_455 S
O705 C696 1.252 . S
C706 O710 1.262 . S
C706 O711 1.245 . S
O707 Zn676 1.945 . S
O707 C700 1.262 . S
O708 Zn665 1.981 . S
O708 C700 1.245 . S
C709 O691 1.245 . S
C709 O692 1.263 . S
O710 Zn681 1.945 . S
O710 C706 1.262 . S
O711 Zn670 1.981 . S
O711 C706 1.245 . S
C712 O693 1.276 . S
C712 O713 1.246 . S
O713 C712 1.246 . S
C714 O695 1.276 1_455 S
C714 O715 1.246 . S
O715 C714 1.246 . S
Zn716 O718 1.933 1_565 S
Zn716 O736 1.985 . S
Zn716 O747 1.955 . S
Zn717 O718 1.911 . S
Zn717 O737 1.970 . S
Zn717 O753 1.945 . S
Zn717 O760 1.981 . S
O718 Zn716 1.933 1_545 S
O718 Zn717 1.911 . S
O718 H719 0.841 . S
H719 O718 0.841 . S
C720 O721 1.246 . S
C720 O749 1.276 . S
O721 C720 1.246 . S
Zn722 O724 1.911 . S
Zn722 O739 1.970 . S
Zn722 O756 1.945 . S
Zn722 O763 1.981 . S
Zn723 O724 1.933 1_565 S
Zn723 O738 1.985 . S
Zn723 O745 1.955 . S
O724 Zn722 1.911 . S
O724 Zn723 1.933 1_545 S
O724 H725 0.841 . S
H725 O724 0.841 . S
Zn726 O727 1.933 1_565 S
Zn726 O740 1.985 . S
Zn726 O749 1.955 . S
O727 Zn726 1.933 1_545 S
O727 Zn728 1.911 . S
O727 H729 0.841 . S
Zn728 O727 1.911 . S
Zn728 O741 1.970 . S
Zn728 O757 1.981 . S
Zn728 O759 1.945 . S
H729 O727 0.841 . S
Zn730 O731 1.933 1_565 S
Zn730 O743 1.985 . S
Zn730 O751 1.955 . S
O731 Zn730 1.933 1_545 S
O731 H732 0.841 . S
O731 Zn733 1.911 . S
H732 O731 0.841 . S
Zn733 O731 1.911 . S
Zn733 O744 1.970 . S
Zn733 O754 1.981 . S
Zn733 O762 1.945 . S
C734 O735 1.246 . S
C734 O751 1.276 . S
O735 C734 1.246 . S
O736 Zn716 1.985 . S
O736 C746 1.245 1_565 S
O737 Zn717 1.970 . S
O737 C746 1.263 . S
O738 Zn723 1.985 . S
O738 C750 1.245 1_565 S
O739 Zn722 1.970 . S
O739 C750 1.263 . S
O740 Zn726 1.985 . S
O740 C755 1.245 1_565 S
O741 Zn728 1.970 . S
O741 C755 1.263 . S
C742 O753 1.262 . S
C742 O754 1.245 . S
O743 Zn730 1.985 . S
O743 C761 1.245 1_565 S
O744 Zn733 1.970 . S
O744 C761 1.263 . S
O745 Zn723 1.955 . S
O745 C764 1.276 . S
C746 O736 1.245 1_545 S
C746 O737 1.263 . S
O747 Zn716 1.955 . S
O747 C766 1.276 . S
C748 O756 1.262 . S
C748 O757 1.245 . S
O749 C720 1.276 . S
O749 Zn726 1.955 . S
C750 O738 1.245 1_545 S
C750 O739 1.263 . S
O751 Zn730 1.955 . S
O751 C734 1.276 . S
C752 O759 1.262 . S
C752 O760 1.245 . S
O753 Zn717 1.945 . S
O753 C742 1.262 . S
O754 Zn733 1.981 . S
O754 C742 1.245 . S
C755 O740 1.245 1_545 S
C755 O741 1.263 . S
O756 Zn722 1.945 . S
O756 C748 1.262 . S
O757 Zn728 1.981 . S
O757 C748 1.245 . S
C758 O762 1.262 . S
C758 O763 1.245 . S
O759 Zn728 1.945 . S
O759 C752 1.262 . S
O760 Zn717 1.981 . S
O760 C752 1.245 . S
C761 O743 1.245 1_545 S
C761 O744 1.263 . S
O762 Zn733 1.945 . S
O762 C758 1.262 . S
O763 Zn722 1.981 . S
O763 C758 1.245 . S
C764 O745 1.276 . S
C764 O765 1.246 . S
O765 C764 1.246 . S
C766 O747 1.276 . S
C766 O767 1.246 . S
O767 C766 1.246 . S
C768 C769 1.363 . S
C768 C774 1.379 . S
C768 N776 1.356 . S
C769 C768 1.363 . S
C769 C775 1.363 . S
C770 C771 1.363 . S
C770 C775 1.379 . S
C770 N777 1.356 . S
C771 C770 1.363 . S
C771 C774 1.363 . S
N772 C774 1.356 . S
N772 H784 0.984 . S
N772 H785 0.985 . S
N773 C775 1.356 . S
N773 H778 0.984 . S
N773 H779 0.985 . S
C774 C768 1.379 . S
C774 C771 1.363 . S
C774 N772 1.356 . S
C775 C769 1.363 . S
C775 C770 1.379 . S
C775 N773 1.356 . S
N776 C768 1.356 . S
N776 H782 0.984 . S
N776 H783 0.984 . S
N777 C770 1.356 . S
N777 H780 0.984 . S
N777 H781 0.985 . S
H778 N773 0.984 . S
H779 N773 0.985 . S
H780 N777 0.984 . S
H781 N777 0.985 . S
H782 N776 0.984 . S
H783 N776 0.984 . S
H784 N772 0.984 . S
H785 N772 0.985 . S
C786 C787 1.363 . S
C786 C792 1.379 . S
C786 N794 1.356 . S
C787 C786 1.363 . S
C787 C793 1.363 . S
C788 C789 1.363 . S
C788 C793 1.379 . S
C788 N795 1.356 . S
C789 C788 1.363 . S
C789 C792 1.363 . S
N790 C792 1.356 . S
N790 H802 0.984 . S
N790 H803 0.985 . S
N791 C793 1.356 . S
N791 H796 0.984 . S
N791 H797 0.985 . S
C792 C786 1.379 . S
C792 C789 1.363 . S
C792 N790 1.356 . S
C793 C787 1.363 . S
C793 C788 1.379 . S
C793 N791 1.356 . S
N794 C786 1.356 . S
N794 H800 0.984 . S
N794 H801 0.984 . S
N795 C788 1.356 . S
N795 H798 0.984 . S
N795 H799 0.985 . S
H796 N791 0.984 . S
H797 N791 0.985 . S
H798 N795 0.984 . S
H799 N795 0.985 . S
H800 N794 0.984 . S
H801 N794 0.984 . S
H802 N790 0.984 . S
H803 N790 0.985 . S
C804 C805 1.363 . S
C804 C810 1.379 . S
C804 N812 1.356 . S
C805 C804 1.363 . S
C805 C811 1.363 . S
C806 C807 1.363 . S
C806 C811 1.379 . S
C806 N813 1.356 . S
C807 C806 1.363 . S
C807 C810 1.363 . S
N808 C810 1.356 . S
N808 H820 0.984 . S
N808 H821 0.985 . S
N809 C811 1.356 . S
N809 H814 0.984 . S
N809 H815 0.985 . S
C810 C804 1.379 . S
C810 C807 1.363 . S
C810 N808 1.356 . S
C811 C805 1.363 . S
C811 C806 1.379 . S
C811 N809 1.356 . S
N812 C804 1.356 . S
N812 H818 0.984 . S
N812 H819 0.984 . S
N813 C806 1.356 . S
N813 H816 0.984 . S
N813 H817 0.985 . S
H814 N809 0.984 . S
H815 N809 0.985 . S
H816 N813 0.984 . S
H817 N813 0.985 . S
H818 N812 0.984 . S
H819 N812 0.984 . S
H820 N808 0.984 . S
H821 N808 0.985 . S
C822 C823 1.363 . S
C822 C828 1.379 . S
C822 N830 1.356 . S
C823 C822 1.363 . S
C823 C829 1.363 . S
C824 C825 1.363 . S
C824 C829 1.379 . S
C824 N831 1.356 . S
C825 C824 1.363 . S
C825 C828 1.363 . S
N826 C828 1.356 . S
N826 H838 0.984 . S
N826 H839 0.985 . S
N827 C829 1.356 . S
N827 H832 0.984 . S
N827 H833 0.985 . S
C828 C822 1.379 . S
C828 C825 1.363 . S
C828 N826 1.356 . S
C829 C823 1.363 . S
C829 C824 1.379 . S
C829 N827 1.356 . S
N830 C822 1.356 . S
N830 H836 0.984 . S
N830 H837 0.984 . S
N831 C824 1.356 . S
N831 H834 0.984 . S
N831 H835 0.985 . S
H832 N827 0.984 . S
H833 N827 0.985 . S
H834 N831 0.984 . S
H835 N831 0.985 . S
H836 N830 0.984 . S
H837 N830 0.984 . S
H838 N826 0.984 . S
H839 N826 0.985 . S
C840 C841 1.363 . S
C840 C846 1.379 . S
C840 N848 1.356 . S
C841 C840 1.363 . S
C841 C847 1.363 . S
C842 C843 1.363 . S
C842 C847 1.379 . S
C842 N849 1.356 . S
C843 C842 1.363 . S
C843 C846 1.363 . S
N844 C846 1.356 . S
N844 H856 0.984 . S
N844 H857 0.985 . S
N845 C847 1.356 . S
N845 H850 0.984 . S
N845 H851 0.985 . S
C846 C840 1.379 . S
C846 C843 1.363 . S
C846 N844 1.356 . S
C847 C841 1.363 . S
C847 C842 1.379 . S
C847 N845 1.356 . S
N848 C840 1.356 . S
N848 H854 0.984 . S
N848 H855 0.984 . S
N849 C842 1.356 . S
N849 H852 0.984 . S
N849 H853 0.985 . S
H850 N845 0.984 . S
H851 N845 0.985 . S
H852 N849 0.984 . S
H853 N849 0.985 . S
H854 N848 0.984 . S
H855 N848 0.984 . S
H856 N844 0.984 . S
H857 N844 0.985 . S
C858 C859 1.363 . S
C858 C864 1.379 . S
C858 N866 1.356 . S
C859 C858 1.363 . S
C859 C865 1.363 . S
C860 C861 1.363 . S
C860 C865 1.379 . S
C860 N867 1.356 . S
C861 C860 1.363 . S
C861 C864 1.363 . S
N862 C864 1.356 . S
N862 H874 0.984 . S
N862 H875 0.985 . S
N863 C865 1.356 . S
N863 H868 0.984 . S
N863 H869 0.985 . S
C864 C858 1.379 . S
C864 C861 1.363 . S
C864 N862 1.356 . S
C865 C859 1.363 . S
C865 C860 1.379 . S
C865 N863 1.356 . S
N866 C858 1.356 . S
N866 H872 0.984 . S
N866 H873 0.984 . S
N867 C860 1.356 . S
N867 H870 0.984 . S
N867 H871 0.985 . S
H868 N863 0.984 . S
H869 N863 0.985 . S
H870 N867 0.984 . S
H871 N867 0.985 . S
H872 N866 0.984 . S
H873 N866 0.984 . S
H874 N862 0.984 . S
H875 N862 0.985 . S
C876 C877 1.363 . S
C876 C882 1.379 . S
C876 N884 1.356 . S
C877 C876 1.363 . S
C877 C883 1.363 . S
C878 C879 1.363 . S
C878 C883 1.379 . S
C878 N885 1.356 . S
C879 C878 1.363 . S
C879 C882 1.363 . S
N880 C882 1.356 . S
N880 H892 0.984 . S
N880 H893 0.985 . S
N881 C883 1.356 . S
N881 H886 0.984 . S
N881 H887 0.985 . S
C882 C876 1.379 . S
C882 C879 1.363 . S
C882 N880 1.356 . S
C883 C877 1.363 . S
C883 C878 1.379 . S
C883 N881 1.356 . S
N884 C876 1.356 . S
N884 H890 0.984 . S
N884 H891 0.984 . S
N885 C878 1.356 . S
N885 H888 0.984 . S
N885 H889 0.985 . S
H886 N881 0.984 . S
H887 N881 0.985 . S
H888 N885 0.984 . S
H889 N885 0.985 . S
H890 N884 0.984 . S
H891 N884 0.984 . S
H892 N880 0.984 . S
H893 N880 0.985 . S
C894 C895 1.363 . S
C894 C900 1.379 . S
C894 N902 1.356 . S
C895 C894 1.363 . S
C895 C901 1.363 . S
C896 C897 1.363 . S
C896 C901 1.379 . S
C896 N903 1.356 . S
C897 C896 1.363 . S
C897 C900 1.363 . S
N898 C900 1.356 . S
N898 H910 0.984 . S
N898 H911 0.985 . S
N899 C901 1.356 . S
N899 H904 0.984 . S
N899 H905 0.985 . S
C900 C894 1.379 . S
C900 C897 1.363 . S
C900 N898 1.356 . S
C901 C895 1.363 . S
C901 C896 1.379 . S
C901 N899 1.356 . S
N902 C894 1.356 . S
N902 H908 0.984 . S
N902 H909 0.984 . S
N903 C896 1.356 . S
N903 H906 0.984 . S
N903 H907 0.985 . S
H904 N899 0.984 . S
H905 N899 0.985 . S
H906 N903 0.984 . S
H907 N903 0.985 . S
H908 N902 0.984 . S
H909 N902 0.984 . S
H910 N898 0.984 . S
H911 N898 0.985 . S
C912 C913 1.363 . S
C912 C918 1.379 . S
C912 N920 1.356 . S
C913 C912 1.363 . S
C913 C919 1.363 . S
C914 C915 1.363 . S
C914 C919 1.379 . S
C914 N921 1.356 . S
C915 C914 1.363 . S
C915 C918 1.363 . S
N916 C918 1.356 . S
N916 H928 0.984 . S
N916 H929 0.985 . S
N917 C919 1.356 . S
N917 H922 0.984 . S
N917 H923 0.985 . S
C918 C912 1.379 . S
C918 C915 1.363 . S
C918 N916 1.356 . S
C919 C913 1.363 . S
C919 C914 1.379 . S
C919 N917 1.356 . S
N920 C912 1.356 . S
N920 H926 0.984 . S
N920 H927 0.984 . S
N921 C914 1.356 . S
N921 H924 0.984 . S
N921 H925 0.985 . S
H922 N917 0.984 . S
H923 N917 0.985 . S
H924 N921 0.984 . S
H925 N921 0.985 . S
H926 N920 0.984 . S
H927 N920 0.984 . S
H928 N916 0.984 . S
H929 N916 0.985 . S
C930 C931 1.363 . S
C930 C936 1.379 . S
C930 N938 1.356 . S
C931 C930 1.363 . S
C931 C937 1.363 . S
C932 C933 1.363 . S
C932 C937 1.379 . S
C932 N939 1.356 . S
C933 C932 1.363 . S
C933 C936 1.363 . S
N934 C936 1.356 . S
N934 H946 0.984 . S
N934 H947 0.985 . S
N935 C937 1.356 . S
N935 H940 0.984 . S
N935 H941 0.985 . S
C936 C930 1.379 . S
C936 C933 1.363 . S
C936 N934 1.356 . S
C937 C931 1.363 . S
C937 C932 1.379 . S
C937 N935 1.356 . S
N938 C930 1.356 . S
N938 H944 0.984 . S
N938 H945 0.984 . S
N939 C932 1.356 . S
N939 H942 0.984 . S
N939 H943 0.985 . S
H940 N935 0.984 . S
H941 N935 0.985 . S
H942 N939 0.984 . S
H943 N939 0.985 . S
H944 N938 0.984 . S
H945 N938 0.984 . S
H946 N934 0.984 . S
H947 N934 0.985 . S
C948 C949 1.363 . S
C948 C954 1.379 . S
C948 N956 1.356 . S
C949 C948 1.363 . S
C949 C955 1.363 . S
C950 C951 1.363 . S
C950 C955 1.379 . S
C950 N957 1.356 . S
C951 C950 1.363 . S
C951 C954 1.363 . S
N952 C954 1.356 . S
N952 H964 0.984 . S
N952 H965 0.985 . S
N953 C955 1.356 . S
N953 H958 0.984 . S
N953 H959 0.985 . S
C954 C948 1.379 . S
C954 C951 1.363 . S
C954 N952 1.356 . S
C955 C949 1.363 . S
C955 C950 1.379 . S
C955 N953 1.356 . S
N956 C948 1.356 . S
N956 H962 0.984 . S
N956 H963 0.984 . S
N957 C950 1.356 . S
N957 H960 0.984 . S
N957 H961 0.985 . S
H958 N953 0.984 . S
H959 N953 0.985 . S
H960 N957 0.984 . S
H961 N957 0.985 . S
H962 N956 0.984 . S
H963 N956 0.984 . S
H964 N952 0.984 . S
H965 N952 0.985 . S
C966 C967 1.363 . S
C966 C972 1.379 . S
C966 N974 1.356 . S
C967 C966 1.363 . S
C967 C973 1.363 . S
C968 C969 1.363 . S
C968 C973 1.379 . S
C968 N975 1.356 . S
C969 C968 1.363 . S
C969 C972 1.363 . S
N970 C972 1.356 . S
N970 H982 0.984 . S
N970 H983 0.985 . S
N971 C973 1.356 . S
N971 H976 0.984 . S
N971 H977 0.985 . S
C972 C966 1.379 . S
C972 C969 1.363 . S
C972 N970 1.356 . S
C973 C967 1.363 . S
C973 C968 1.379 . S
C973 N971 1.356 . S
N974 C966 1.356 . S
N974 H980 0.984 . S
N974 H981 0.984 . S
N975 C968 1.356 . S
N975 H978 0.984 . S
N975 H979 0.985 . S
H976 N971 0.984 . S
H977 N971 0.985 . S
H978 N975 0.984 . S
H979 N975 0.985 . S
H980 N974 0.984 . S
H981 N974 0.984 . S
H982 N970 0.984 . S
H983 N970 0.985 . S
C984 C985 1.363 1_556 S
C984 C990 1.379 . S
C984 N992 1.356 . S
C985 C984 1.363 1_554 S
C985 C991 1.363 . S
C986 C987 1.363 . S
C986 C991 1.379 . S
C986 N993 1.356 . S
C987 C986 1.363 . S
C987 C990 1.363 1_554 S
N988 C990 1.356 . S
N988 H1000 0.984 . S
N988 H1001 0.985 . S
N989 C991 1.356 . S
N989 H994 0.984 . S
N989 H995 0.985 . S
C990 C984 1.379 . S
C990 C987 1.363 1_556 S
C990 N988 1.356 . S
C991 C985 1.363 . S
C991 C986 1.379 . S
C991 N989 1.356 . S
N992 C984 1.356 . S
N992 H998 0.984 . S
N992 H999 0.984 . S
N993 C986 1.356 . S
N993 H996 0.984 . S
N993 H997 0.985 . S
H994 N989 0.984 . S
H995 N989 0.985 . S
H996 N993 0.984 . S
H997 N993 0.985 . S
H998 N992 0.984 . S
H999 N992 0.984 . S
H1000 N988 0.984 . S
H1001 N988 0.985 . S
C1002 C1003 1.363 . S
C1002 C1008 1.379 . S
C1002 N1010 1.356 . S
C1003 C1002 1.363 . S
C1003 C1009 1.363 1_554 S
C1004 C1005 1.363 1_556 S
C1004 C1009 1.379 . S
C1004 N1011 1.356 . S
C1005 C1004 1.363 1_554 S
C1005 C1008 1.363 . S
N1006 C1008 1.356 . S
N1006 H1018 0.984 . S
N1006 H1019 0.985 . S
N1007 C1009 1.356 . S
N1007 H1012 0.984 . S
N1007 H1013 0.985 . S
C1008 C1002 1.379 . S
C1008 C1005 1.363 . S
C1008 N1006 1.356 . S
C1009 C1003 1.363 1_556 S
C1009 C1004 1.379 . S
C1009 N1007 1.356 . S
N1010 C1002 1.356 . S
N1010 H1016 0.984 . S
N1010 H1017 0.984 . S
N1011 C1004 1.356 . S
N1011 H1014 0.984 . S
N1011 H1015 0.985 . S
H1012 N1007 0.984 . S
H1013 N1007 0.985 . S
H1014 N1011 0.984 . S
H1015 N1011 0.985 . S
H1016 N1010 0.984 . S
H1017 N1010 0.984 . S
H1018 N1006 0.984 . S
H1019 N1006 0.985 . S
C1020 C1021 1.363 . S
C1020 C1026 1.379 . S
C1020 N1028 1.356 . S
C1021 C1020 1.363 . S
C1021 C1027 1.363 1_554 S
C1022 C1023 1.363 1_556 S
C1022 C1027 1.379 . S
C1022 N1029 1.356 . S
C1023 C1022 1.363 1_554 S
C1023 C1026 1.363 . S
N1024 C1026 1.356 . S
N1024 H1036 0.984 . S
N1024 H1037 0.985 . S
N1025 C1027 1.356 . S
N1025 H1030 0.984 . S
N1025 H1031 0.985 . S
C1026 C1020 1.379 . S
C1026 C1023 1.363 . S
C1026 N1024 1.356 . S
C1027 C1021 1.363 1_556 S
C1027 C1022 1.379 . S
C1027 N1025 1.356 . S
N1028 C1020 1.356 . S
N1028 H1034 0.984 . S
N1028 H1035 0.984 . S
N1029 C1022 1.356 . S
N1029 H1032 0.984 . S
N1029 H1033 0.985 . S
H1030 N1025 0.984 . S
H1031 N1025 0.985 . S
H1032 N1029 0.984 . S
H1033 N1029 0.985 . S
H1034 N1028 0.984 . S
H1035 N1028 0.984 . S
H1036 N1024 0.984 . S
H1037 N1024 0.985 . S
C1038 C1039 1.363 . S
C1038 C1044 1.379 . S
C1038 N1046 1.356 . S
C1039 C1038 1.363 . S
C1039 C1045 1.363 1_554 S
C1040 C1041 1.363 1_556 S
C1040 C1045 1.379 . S
C1040 N1047 1.356 . S
C1041 C1040 1.363 1_554 S
C1041 C1044 1.363 . S
N1042 C1044 1.356 . S
N1042 H1054 0.984 . S
N1042 H1055 0.985 . S
N1043 C1045 1.356 . S
N1043 H1048 0.984 . S
N1043 H1049 0.985 . S
C1044 C1038 1.379 . S
C1044 C1041 1.363 . S
C1044 N1042 1.356 . S
C1045 C1039 1.363 1_556 S
C1045 C1040 1.379 . S
C1045 N1043 1.356 . S
N1046 C1038 1.356 . S
N1046 H1052 0.984 . S
N1046 H1053 0.984 . S
N1047 C1040 1.356 . S
N1047 H1050 0.984 . S
N1047 H1051 0.985 . S
H1048 N1043 0.984 . S
H1049 N1043 0.985 . S
H1050 N1047 0.984 . S
H1051 N1047 0.985 . S
H1052 N1046 0.984 . S
H1053 N1046 0.984 . S
H1054 N1042 0.984 . S
H1055 N1042 0.985 . S
C1056 C1057 1.363 1_655 S
C1056 C1062 1.379 . S
C1056 N1064 1.356 . S
C1057 C1056 1.363 1_455 S
C1057 C1063 1.363 . S
C1058 C1059 1.363 . S
C1058 C1063 1.379 . S
C1058 N1065 1.356 . S
C1059 C1058 1.363 . S
C1059 C1062 1.363 1_455 S
N1060 C1062 1.356 . S
N1060 H1072 0.984 . S
N1060 H1073 0.985 . S
N1061 C1063 1.356 . S
N1061 H1066 0.984 . S
N1061 H1067 0.985 . S
C1062 C1056 1.379 . S
C1062 C1059 1.363 1_655 S
C1062 N1060 1.356 . S
C1063 C1057 1.363 . S
C1063 C1058 1.379 . S
C1063 N1061 1.356 . S
N1064 C1056 1.356 . S
N1064 H1070 0.984 . S
N1064 H1071 0.984 . S
N1065 C1058 1.356 . S
N1065 H1068 0.984 . S
N1065 H1069 0.985 . S
H1066 N1061 0.984 . S
H1067 N1061 0.985 . S
H1068 N1065 0.984 . S
H1069 N1065 0.985 . S
H1070 N1064 0.984 . S
H1071 N1064 0.984 . S
H1072 N1060 0.984 . S
H1073 N1060 0.985 . S
C1074 C1075 1.363 1_565 S
C1074 C1080 1.379 . S
C1074 N1082 1.356 . S
C1075 C1074 1.363 1_545 S
C1075 C1081 1.363 . S
C1076 C1077 1.363 . S
C1076 C1081 1.379 . S
C1076 N1083 1.356 . S
C1077 C1076 1.363 . S
C1077 C1080 1.363 1_545 S
N1078 C1080 1.356 . S
N1078 H1090 0.984 . S
N1078 H1091 0.985 . S
N1079 C1081 1.356 . S
N1079 H1084 0.984 . S
N1079 H1085 0.985 . S
C1080 C1074 1.379 . S
C1080 C1077 1.363 1_565 S
C1080 N1078 1.356 . S
C1081 C1075 1.363 . S
C1081 C1076 1.379 . S
C1081 N1079 1.356 . S
N1082 C1074 1.356 . S
N1082 H1088 0.984 . S
N1082 H1089 0.984 . S
N1083 C1076 1.356 . S
N1083 H1086 0.984 . S
N1083 H1087 0.985 . S
H1084 N1079 0.984 . S
H1085 N1079 0.985 . S
H1086 N1083 0.984 . S
H1087 N1083 0.985 . S
H1088 N1082 0.984 . S
H1089 N1082 0.984 . S
H1090 N1078 0.984 . S
H1091 N1078 0.985 . S
C1092 C1093 1.363 . S
C1092 C1098 1.379 . S
C1092 N1100 1.356 . S
C1093 C1092 1.363 . S
C1093 C1099 1.363 . S
C1094 C1095 1.363 . S
C1094 C1099 1.379 . S
C1094 N1101 1.356 1_455 S
C1095 C1094 1.363 . S
C1095 C1098 1.363 . S
N1096 C1098 1.356 . S
N1096 H1108 0.984 . S
N1096 H1109 0.985 . S
N1097 C1099 1.362 . S
N1097 H1102 0.990 . S
N1097 H1103 0.974 1_455 S
C1098 C1092 1.379 . S
C1098 C1095 1.363 . S
C1098 N1096 1.356 . S
C1099 C1093 1.363 . S
C1099 C1094 1.379 . S
C1099 N1097 1.362 . S
N1100 C1092 1.356 . S
N1100 H1106 0.984 . S
N1100 H1107 0.984 . S
N1101 C1094 1.356 1_655 S
N1101 H1104 0.984 . S
N1101 H1105 0.985 . S
H1102 N1097 0.990 . S
H1103 N1097 0.974 1_655 S
H1104 N1101 0.984 . S
H1105 N1101 0.985 . S
H1106 N1100 0.984 . S
H1107 N1100 0.984 . S
H1108 N1096 0.984 . S
H1109 N1096 0.985 . S
C1110 C1111 1.363 . S
C1110 C1116 1.379 . S
C1110 N1118 1.356 . S
C1111 C1110 1.363 . S
C1111 C1117 1.363 . S
C1112 C1113 1.363 . S
C1112 C1117 1.379 . S
C1112 N1119 1.356 . S
C1113 C1112 1.363 . S
C1113 C1116 1.363 . S
N1114 C1116 1.356 1_565 S
N1114 H1126 0.984 . S
N1114 H1127 0.985 . S
N1115 C1117 1.356 . S
N1115 H1120 0.984 . S
N1115 H1121 0.985 . S
C1116 C1110 1.379 . S
C1116 C1113 1.363 . S
C1116 N1114 1.356 1_545 S
C1117 C1111 1.363 . S
C1117 C1112 1.379 . S
C1117 N1115 1.356 . S
N1118 C1110 1.356 . S
N1118 H1124 0.984 1_545 S
N1118 H1125 0.984 . S
N1119 C1112 1.356 . S
N1119 H1122 0.984 . S
N1119 H1123 0.985 . S
H1120 N1115 0.984 . S
H1121 N1115 0.985 . S
H1122 N1119 0.984 . S
H1123 N1119 0.985 . S
H1124 N1118 0.984 1_565 S
H1125 N1118 0.984 . S
H1126 N1114 0.984 . S
H1127 N1114 0.985 . S
C1128 C1129 1.363 . S
C1128 C1134 1.379 . S
C1128 N1136 1.356 1_455 S
C1129 C1128 1.363 . S
C1129 C1135 1.363 . S
C1130 C1131 1.363 . S
C1130 C1135 1.379 . S
C1130 N1137 1.356 . S
C1131 C1130 1.363 . S
C1131 C1134 1.363 . S
N1132 C1134 1.356 1_655 S
N1132 H1144 0.984 . S
N1132 H1145 0.985 . S
N1133 C1135 1.356 . S
N1133 H1138 0.984 . S
N1133 H1139 0.985 . S
C1134 C1128 1.379 . S
C1134 C1131 1.363 . S
C1134 N1132 1.356 1_455 S
C1135 C1129 1.363 . S
C1135 C1130 1.379 . S
C1135 N1133 1.356 . S
N1136 C1128 1.356 1_655 S
N1136 H1142 0.984 . S
N1136 H1143 0.984 . S
N1137 C1130 1.356 . S
N1137 H1140 0.984 . S
N1137 H1141 0.985 . S
H1138 N1133 0.984 . S
H1139 N1133 0.985 . S
H1140 N1137 0.984 . S
H1141 N1137 0.985 . S
H1142 N1136 0.984 . S
H1143 N1136 0.984 . S
H1144 N1132 0.984 . S
H1145 N1132 0.985 . S
C1146 C1147 1.363 . S
C1146 C1152 1.379 . S
C1146 N1154 1.352 1_545 S
C1147 C1146 1.363 . S
C1147 C1153 1.363 . S
C1148 C1149 1.363 . S
C1148 C1153 1.379 . S
C1148 N1155 1.356 . S
C1149 C1148 1.363 . S
C1149 C1152 1.363 . S
N1150 C1152 1.356 1_565 S
N1150 H1162 0.984 . S
N1150 H1163 0.985 . S
N1151 C1153 1.356 . S
N1151 H1156 0.984 . S
N1151 H1157 0.985 . S
C1152 C1146 1.379 . S
C1152 C1149 1.363 . S
C1152 N1150 1.356 1_545 S
C1153 C1147 1.363 . S
C1153 C1148 1.379 . S
C1153 N1151 1.356 . S
N1154 C1146 1.352 1_565 S
N1154 H1160 0.993 . S
N1154 H1161 0.980 1_565 S
N1155 C1148 1.356 . S
N1155 H1158 0.984 . S
N1155 H1159 0.985 . S
H1156 N1151 0.984 . S
H1157 N1151 0.985 . S
H1158 N1155 0.984 . S
H1159 N1155 0.985 . S
H1160 N1154 0.993 . S
H1161 N1154 0.980 1_545 S
H1162 N1150 0.984 . S
H1163 N1150 0.985 . S
C1164 C1165 1.363 . S
C1164 C1170 1.379 . S
C1164 N1172 1.356 1_455 S
C1165 C1164 1.363 . S
C1165 C1171 1.363 . S
C1166 C1167 1.363 . S
C1166 C1171 1.379 . S
C1166 N1173 1.356 . S
C1167 C1166 1.363 . S
C1167 C1170 1.363 . S
N1168 C1170 1.356 1_655 S
N1168 H1180 0.984 . S
N1168 H1181 0.985 . S
N1169 C1171 1.356 . S
N1169 H1174 0.984 . S
N1169 H1175 0.985 . S
C1170 C1164 1.379 . S
C1170 C1167 1.363 . S
C1170 N1168 1.356 1_455 S
C1171 C1165 1.363 . S
C1171 C1166 1.379 . S
C1171 N1169 1.356 . S
N1172 C1164 1.356 1_655 S
N1172 H1178 0.984 . S
N1172 H1179 0.984 . S
N1173 C1166 1.356 . S
N1173 H1176 0.984 . S
N1173 H1177 0.985 . S
H1174 N1169 0.984 . S
H1175 N1169 0.985 . S
H1176 N1173 0.984 . S
H1177 N1173 0.985 . S
H1178 N1172 0.984 . S
H1179 N1172 0.984 . S
H1180 N1168 0.984 . S
H1181 N1168 0.985 . S
C1182 C1183 1.363 . S
C1182 C1188 1.379 . S
C1182 N1190 1.356 . S
C1183 C1182 1.363 . S
C1183 C1189 1.363 1_545 S
C1184 C1185 1.363 1_565 S
C1184 C1189 1.379 . S
C1184 N1191 1.356 . S
C1185 C1184 1.363 1_545 S
C1185 C1188 1.363 . S
N1186 C1188 1.356 . S
N1186 H1198 0.984 . S
N1186 H1199 0.985 . S
N1187 C1189 1.356 . S
N1187 H1192 0.984 . S
N1187 H1193 0.985 . S
C1188 C1182 1.379 . S
C1188 C1185 1.363 . S
C1188 N1186 1.356 . S
C1189 C1183 1.363 1_565 S
C1189 C1184 1.379 . S
C1189 N1187 1.356 . S
N1190 C1182 1.356 . S
N1190 H1196 0.984 . S
N1190 H1197 0.984 . S
N1191 C1184 1.356 . S
N1191 H1194 0.984 . S
N1191 H1195 0.985 . S
H1192 N1187 0.984 . S
H1193 N1187 0.985 . S
H1194 N1191 0.984 . S
H1195 N1191 0.985 . S
H1196 N1190 0.984 . S
H1197 N1190 0.984 . S
H1198 N1186 0.984 . S
H1199 N1186 0.985 . S
C1200 C1201 1.363 . S
C1200 C1206 1.379 . S
C1200 N1208 1.356 1_455 S
C1201 C1200 1.363 . S
C1201 C1207 1.363 . S
C1202 C1203 1.363 . S
C1202 C1207 1.379 . S
C1202 N1209 1.356 . S
C1203 C1202 1.363 . S
C1203 C1206 1.363 . S
N1204 C1206 1.356 1_655 S
N1204 H1216 0.984 . S
N1204 H1217 0.985 . S
N1205 C1207 1.356 . S
N1205 H1210 0.984 . S
N1205 H1211 0.985 . S
C1206 C1200 1.379 . S
C1206 C1203 1.363 . S
C1206 N1204 1.356 1_455 S
C1207 C1201 1.363 . S
C1207 C1202 1.379 . S
C1207 N1205 1.356 . S
N1208 C1200 1.356 1_655 S
N1208 H1214 0.984 . S
N1208 H1215 0.984 . S
N1209 C1202 1.356 . S
N1209 H1212 0.984 . S
N1209 H1213 0.985 . S
H1210 N1205 0.984 . S
H1211 N1205 0.985 . S
H1212 N1209 0.984 . S
H1213 N1209 0.985 . S
H1214 N1208 0.984 . S
H1215 N1208 0.984 . S
H1216 N1204 0.984 . S
H1217 N1204 0.985 . S
C1218 C1219 1.363 . S
C1218 C1224 1.379 1_545 S
C1218 N1226 1.356 1_545 S
C1219 C1218 1.363 . S
C1219 C1225 1.363 . S
C1220 C1221 1.363 . S
C1220 C1225 1.379 . S
C1220 N1227 1.356 . S
C1221 C1220 1.363 . S
C1221 C1224 1.363 1_545 S
N1222 C1224 1.356 . S
N1222 H1234 0.984 . S
N1222 H1235 0.985 . S
N1223 C1225 1.356 . S
N1223 H1228 0.984 . S
N1223 H1229 0.985 . S
C1224 C1218 1.379 1_565 S
C1224 C1221 1.363 1_565 S
C1224 N1222 1.356 . S
C1225 C1219 1.363 . S
C1225 C1220 1.379 . S
C1225 N1223 1.356 . S
N1226 C1218 1.356 1_565 S
N1226 H1232 0.984 . S
N1226 H1233 0.984 . S
N1227 C1220 1.356 . S
N1227 H1230 0.984 . S
N1227 H1231 0.985 . S
H1228 N1223 0.984 . S
H1229 N1223 0.985 . S
H1230 N1227 0.984 . S
H1231 N1227 0.985 . S
H1232 N1226 0.984 . S
H1233 N1226 0.984 . S
H1234 N1222 0.984 . S
H1235 N1222 0.985 . S
C1236 C1237 1.363 . S
C1236 C1242 1.379 . S
C1236 N1244 1.356 1_455 S
C1237 C1236 1.363 . S
C1237 C1243 1.363 . S
C1238 C1239 1.363 . S
C1238 C1243 1.379 . S
C1238 N1245 1.356 . S
C1239 C1238 1.363 . S
C1239 C1242 1.363 . S
N1240 C1242 1.357 . S
N1240 H1252 0.982 1_455 S
N1240 H1253 0.985 . S
N1241 C1243 1.356 . S
N1241 H1246 0.984 . S
N1241 H1247 0.985 . S
C1242 C1236 1.379 . S
C1242 C1239 1.363 . S
C1242 N1240 1.357 . S
C1243 C1237 1.363 . S
C1243 C1238 1.379 . S
C1243 N1241 1.356 . S
N1244 C1236 1.356 1_655 S
N1244 H1250 0.984 . S
N1244 H1251 0.984 . S
N1245 C1238 1.356 . S
N1245 H1248 0.984 . S
N1245 H1249 0.985 . S
H1246 N1241 0.984 . S
H1247 N1241 0.985 . S
H1248 N1245 0.984 . S
H1249 N1245 0.985 . S
H1250 N1244 0.984 . S
H1251 N1244 0.984 . S
H1252 N1240 0.982 1_655 S
H1253 N1240 0.985 . S
C1254 C1255 1.363 . S
C1254 C1260 1.379 . S
C1254 N1262 1.356 . S
C1255 C1254 1.363 . S
C1255 C1261 1.363 1_545 S
C1256 C1257 1.363 1_565 S
C1256 C1261 1.379 . S
C1256 N1263 1.356 . S
C1257 C1256 1.363 1_545 S
C1257 C1260 1.363 . S
N1258 C1260 1.356 . S
N1258 H1270 0.984 . S
N1258 H1271 0.985 . S
N1259 C1261 1.356 . S
N1259 H1264 0.984 . S
N1259 H1265 0.985 . S
C1260 C1254 1.379 . S
C1260 C1257 1.363 . S
C1260 N1258 1.356 . S
C1261 C1255 1.363 1_565 S
C1261 C1256 1.379 . S
C1261 N1259 1.356 . S
N1262 C1254 1.356 . S
N1262 H1268 0.984 . S
N1262 H1269 0.984 . S
N1263 C1256 1.356 . S
N1263 H1266 0.984 . S
N1263 H1267 0.985 . S
H1264 N1259 0.984 . S
H1265 N1259 0.985 . S
H1266 N1263 0.984 . S
H1267 N1263 0.985 . S
H1268 N1262 0.984 . S
H1269 N1262 0.984 . S
H1270 N1258 0.984 . S
H1271 N1258 0.985 . S
C1272 C1273 1.363 1_655 S
C1272 C1278 1.379 . S
C1272 N1280 1.356 . S
C1273 C1272 1.363 1_455 S
C1273 C1279 1.363 . S
C1274 C1275 1.363 . S
C1274 C1279 1.379 . S
C1274 N1281 1.356 . S
C1275 C1274 1.363 . S
C1275 C1278 1.363 1_455 S
N1276 C1278 1.356 . S
N1276 H1288 0.984 . S
N1276 H1289 0.985 . S
N1277 C1279 1.356 . S
N1277 H1282 0.984 . S
N1277 H1283 0.985 . S
C1278 C1272 1.379 . S
C1278 C1275 1.363 1_655 S
C1278 N1276 1.356 . S
C1279 C1273 1.363 . S
C1279 C1274 1.379 . S
C1279 N1277 1.356 . S
N1280 C1272 1.356 . S
N1280 H1286 0.984 . S
N1280 H1287 0.984 . S
N1281 C1274 1.356 . S
N1281 H1284 0.984 . S
N1281 H1285 0.985 . S
H1282 N1277 0.984 . S
H1283 N1277 0.985 . S
H1284 N1281 0.984 . S
H1285 N1281 0.985 . S
H1286 N1280 0.984 . S
H1287 N1280 0.984 . S
H1288 N1276 0.984 . S
H1289 N1276 0.985 . S
C1290 C1291 1.363 1_565 S
C1290 C1296 1.380 . S
C1290 N1298 1.356 . S
C1291 C1290 1.363 1_545 S
C1291 C1297 1.363 . S
C1292 C1293 1.363 . S
C1292 C1297 1.379 . S
C1292 N1299 1.356 . S
C1293 C1292 1.363 . S
C1293 C1296 1.356 1_545 S
N1294 C1296 1.360 . S
N1294 H1306 0.984 . S
N1294 H1307 0.985 . S
N1295 C1297 1.356 . S
N1295 H1300 0.984 . S
N1295 H1301 0.985 . S
C1296 C1290 1.380 . S
C1296 C1293 1.356 1_565 S
C1296 N1294 1.360 . S
C1297 C1291 1.363 . S
C1297 C1292 1.379 . S
C1297 N1295 1.356 . S
N1298 C1290 1.356 . S
N1298 H1304 0.984 . S
N1298 H1305 0.984 . S
N1299 C1292 1.356 . S
N1299 H1302 0.984 . S
N1299 H1303 0.985 . S
H1300 N1295 0.984 . S
H1301 N1295 0.985 . S
H1302 N1299 0.984 . S
H1303 N1299 0.985 . S
H1304 N1298 0.984 . S
H1305 N1298 0.984 . S
H1306 N1294 0.984 . S
H1307 N1294 0.985 . S
C1308 C1309 1.363 . S
C1308 C1314 1.379 . S
C1308 N1316 1.356 . S
C1309 C1308 1.363 . S
C1309 C1315 1.363 . S
C1310 C1311 1.363 . S
C1310 C1315 1.379 . S
C1310 N1317 1.356 . S
C1311 C1310 1.363 . S
C1311 C1314 1.363 . S
N1312 C1314 1.356 . S
N1312 H1324 0.984 . S
N1312 H1325 0.985 . S
N1313 C1315 1.356 . S
N1313 H1318 0.984 . S
N1313 H1319 0.985 . S
C1314 C1308 1.379 . S
C1314 C1311 1.363 . S
C1314 N1312 1.356 . S
C1315 C1309 1.363 . S
C1315 C1310 1.379 . S
C1315 N1313 1.356 . S
N1316 C1308 1.356 . S
N1316 H1322 0.984 . S
N1316 H1323 0.984 . S
N1317 C1310 1.356 . S
N1317 H1320 0.984 . S
N1317 H1321 0.985 . S
H1318 N1313 0.984 . S
H1319 N1313 0.985 . S
H1320 N1317 0.984 . S
H1321 N1317 0.985 . S
H1322 N1316 0.984 . S
H1323 N1316 0.984 . S
H1324 N1312 0.984 . S
H1325 N1312 0.985 . S
C1326 C1327 1.363 . S
C1326 C1332 1.379 . S
C1326 N1334 1.356 . S
C1327 C1326 1.363 . S
C1327 C1333 1.363 . S
C1328 C1329 1.363 . S
C1328 C1333 1.379 . S
C1328 N1335 1.356 1_545 S
C1329 C1328 1.363 . S
C1329 C1332 1.363 . S
N1330 C1332 1.356 . S
N1330 H1342 0.984 . S
N1330 H1343 0.985 . S
N1331 C1333 1.356 1_565 S
N1331 H1336 0.984 1_565 S
N1331 H1337 0.985 . S
C1332 C1326 1.379 . S
C1332 C1329 1.363 . S
C1332 N1330 1.356 . S
C1333 C1327 1.363 . S
C1333 C1328 1.379 . S
C1333 N1331 1.356 1_545 S
N1334 C1326 1.356 . S
N1334 H1340 0.984 . S
N1334 H1341 0.984 . S
N1335 C1328 1.356 1_565 S
N1335 H1338 0.984 . S
N1335 H1339 0.985 . S
H1336 N1331 0.984 1_545 S
H1337 N1331 0.985 . S
H1338 N1335 0.984 . S
H1339 N1335 0.985 . S
H1340 N1334 0.984 . S
H1341 N1334 0.984 . S
H1342 N1330 0.984 . S
H1343 N1330 0.985 . S
C1344 C1345 1.363 . S
C1344 C1350 1.379 . S
C1344 N1352 1.356 . S
C1345 C1344 1.363 . S
C1345 C1351 1.363 1_545 S
C1346 C1347 1.363 1_565 S
C1346 C1351 1.379 . S
C1346 N1353 1.356 . S
C1347 C1346 1.363 1_545 S
C1347 C1350 1.363 . S
N1348 C1350 1.356 . S
N1348 H1360 0.984 . S
N1348 H1361 0.985 . S
N1349 C1351 1.356 . S
N1349 H1354 0.984 . S
N1349 H1355 0.985 . S
C1350 C1344 1.379 . S
C1350 C1347 1.363 . S
C1350 N1348 1.356 . S
C1351 C1345 1.363 1_565 S
C1351 C1346 1.379 . S
C1351 N1349 1.356 . S
N1352 C1344 1.356 . S
N1352 H1358 0.984 . S
N1352 H1359 0.984 . S
N1353 C1346 1.356 . S
N1353 H1356 0.984 . S
N1353 H1357 0.985 . S
H1354 N1349 0.984 . S
H1355 N1349 0.985 . S
H1356 N1353 0.984 . S
H1357 N1353 0.985 . S
H1358 N1352 0.984 . S
H1359 N1352 0.984 . S
H1360 N1348 0.984 . S
H1361 N1348 0.985 . S
C1362 C1363 1.363 . S
C1362 C1368 1.379 . S
C1362 N1370 1.356 . S
C1363 C1362 1.363 . S
C1363 C1369 1.363 . S
C1364 C1365 1.363 . S
C1364 C1369 1.379 . S
C1364 N1371 1.356 . S
C1365 C1364 1.363 . S
C1365 C1368 1.363 . S
N1366 C1368 1.356 1_655 S
N1366 H1378 0.984 . S
N1366 H1379 0.985 . S
N1367 C1369 1.356 . S
N1367 H1372 0.984 . S
N1367 H1373 0.985 . S
C1368 C1362 1.379 . S
C1368 C1365 1.363 . S
C1368 N1366 1.356 1_455 S
C1369 C1363 1.363 . S
C1369 C1364 1.379 . S
C1369 N1367 1.356 . S
N1370 C1362 1.356 . S
N1370 H1376 0.984 1_455 S
N1370 H1377 0.984 . S
N1371 C1364 1.356 . S
N1371 H1374 0.984 . S
N1371 H1375 0.985 . S
H1372 N1367 0.984 . S
H1373 N1367 0.985 . S
H1374 N1371 0.984 . S
H1375 N1371 0.985 . S
H1376 N1370 0.984 1_655 S
H1377 N1370 0.984 . S
H1378 N1366 0.984 . S
H1379 N1366 0.985 . S
C1380 C1381 1.363 . S
C1380 C1386 1.379 . S
C1380 N1388 1.356 . S
C1381 C1380 1.363 . S
C1381 C1387 1.363 . S
C1382 C1383 1.363 . S
C1382 C1387 1.379 . S
C1382 N1389 1.356 1_545 S
C1383 C1382 1.363 . S
C1383 C1386 1.363 . S
N1384 C1386 1.356 . S
N1384 H1396 0.984 . S
N1384 H1397 0.985 . S
N1385 C1387 1.356 1_565 S
N1385 H1390 0.994 . S
N1385 H1391 0.985 . S
C1386 C1380 1.379 . S
C1386 C1383 1.363 . S
C1386 N1384 1.356 . S
C1387 C1381 1.363 . S
C1387 C1382 1.379 . S
C1387 N1385 1.356 1_545 S
N1388 C1380 1.356 . S
N1388 H1394 0.984 . S
N1388 H1395 0.984 . S
N1389 C1382 1.356 1_565 S
N1389 H1392 0.984 . S
N1389 H1393 0.985 . S
H1390 N1385 0.994 . S
H1391 N1385 0.985 . S
H1392 N1389 0.984 . S
H1393 N1389 0.985 . S
H1394 N1388 0.984 . S
H1395 N1388 0.984 . S
H1396 N1384 0.984 . S
H1397 N1384 0.985 . S
C1398 C1399 1.363 . S
C1398 C1404 1.379 . S
C1398 N1406 1.356 . S
C1399 C1398 1.363 . S
C1399 C1405 1.363 . S
C1400 C1401 1.363 . S
C1400 C1405 1.379 . S
C1400 N1407 1.356 1_455 S
C1401 C1400 1.363 . S
C1401 C1404 1.363 . S
N1402 C1404 1.356 . S
N1402 H1414 0.984 . S
N1402 H1415 0.985 . S
N1403 C1405 1.356 . S
N1403 H1408 0.984 . S
N1403 H1409 0.985 . S
C1404 C1398 1.379 . S
C1404 C1401 1.363 . S
C1404 N1402 1.356 . S
C1405 C1399 1.363 . S
C1405 C1400 1.379 . S
C1405 N1403 1.356 . S
N1406 C1398 1.356 . S
N1406 H1412 0.984 . S
N1406 H1413 0.984 . S
N1407 C1400 1.356 1_655 S
N1407 H1410 0.984 . S
N1407 H1411 0.985 . S
H1408 N1403 0.984 . S
H1409 N1403 0.985 . S
H1410 N1407 0.984 . S
H1411 N1407 0.985 . S
H1412 N1406 0.984 . S
H1413 N1406 0.984 . S
H1414 N1402 0.984 . S
H1415 N1402 0.985 . S
C1416 C1417 1.363 . S
C1416 C1422 1.379 . S
C1416 N1424 1.356 . S
C1417 C1416 1.363 . S
C1417 C1423 1.363 1_545 S
C1418 C1419 1.363 1_565 S
C1418 C1423 1.379 . S
C1418 N1425 1.356 . S
C1419 C1418 1.363 1_545 S
C1419 C1422 1.363 . S
N1420 C1422 1.356 . S
N1420 H1432 0.984 . S
N1420 H1433 0.985 . S
N1421 C1423 1.356 . S
N1421 H1426 0.984 . S
N1421 H1427 0.985 . S
C1422 C1416 1.379 . S
C1422 C1419 1.363 . S
C1422 N1420 1.356 . S
C1423 C1417 1.363 1_565 S
C1423 C1418 1.379 . S
C1423 N1421 1.356 . S
N1424 C1416 1.356 . S
N1424 H1430 0.984 . S
N1424 H1431 0.984 . S
N1425 C1418 1.356 . S
N1425 H1428 0.984 . S
N1425 H1429 0.985 . S
H1426 N1421 0.984 . S
H1427 N1421 0.985 . S
H1428 N1425 0.984 . S
H1429 N1425 0.985 . S
H1430 N1424 0.984 . S
H1431 N1424 0.984 . S
H1432 N1420 0.984 . S
H1433 N1420 0.985 . S
C1434 C1435 1.354 1_655 S
C1434 C1440 1.378 1_655 S
C1434 N1442 1.365 . S
C1435 C1434 1.354 1_455 S
C1435 C1441 1.363 . S
C1436 C1437 1.363 . S
C1436 C1441 1.379 . S
C1436 N1443 1.356 . S
C1437 C1436 1.363 . S
C1437 C1440 1.363 . S
N1438 C1440 1.356 1_655 S
N1438 H1450 0.984 . S
N1438 H1451 0.985 . S
N1439 C1441 1.356 . S
N1439 H1444 0.984 . S
N1439 H1445 0.985 . S
C1440 C1434 1.378 1_455 S
C1440 C1437 1.363 . S
C1440 N1438 1.356 1_455 S
C1441 C1435 1.363 . S
C1441 C1436 1.379 . S
C1441 N1439 1.356 . S
N1442 C1434 1.365 . S
N1442 H1448 0.984 . S
N1442 H1449 0.984 . S
N1443 C1436 1.356 . S
N1443 H1446 0.984 . S
N1443 H1447 0.985 . S
H1444 N1439 0.984 . S
H1445 N1439 0.985 . S
H1446 N1443 0.984 . S
H1447 N1443 0.985 . S
H1448 N1442 0.984 . S
H1449 N1442 0.984 . S
H1450 N1438 0.984 . S
H1451 N1438 0.985 . S
C1452 C1453 1.363 . S
C1452 C1458 1.379 . S
C1452 N1460 1.356 . S
C1453 C1452 1.363 . S
C1453 C1459 1.363 . S
C1454 C1455 1.363 . S
C1454 C1459 1.379 . S
C1454 N1461 1.356 . S
C1455 C1454 1.363 . S
C1455 C1458 1.363 . S
N1456 C1458 1.356 1_565 S
N1456 H1468 0.984 . S
N1456 H1469 0.985 1_565 S
N1457 C1459 1.356 . S
N1457 H1462 0.984 . S
N1457 H1463 0.985 . S
C1458 C1452 1.379 . S
C1458 C1455 1.363 . S
C1458 N1456 1.356 1_545 S
C1459 C1453 1.363 . S
C1459 C1454 1.379 . S
C1459 N1457 1.356 . S
N1460 C1452 1.356 . S
N1460 H1466 0.984 1_545 S
N1460 H1467 0.984 . S
N1461 C1454 1.356 . S
N1461 H1464 0.984 . S
N1461 H1465 0.985 . S
H1462 N1457 0.984 . S
H1463 N1457 0.985 . S
H1464 N1461 0.984 . S
H1465 N1461 0.985 . S
H1466 N1460 0.984 1_565 S
H1467 N1460 0.984 . S
H1468 N1456 0.984 . S
H1469 N1456 0.985 1_545 S
C1470 C1471 1.363 1_655 S
C1470 C1476 1.379 . S
C1470 N1478 1.356 . S
C1471 C1470 1.363 1_455 S
C1471 C1477 1.363 . S
C1472 C1473 1.363 . S
C1472 C1477 1.379 . S
C1472 N1479 1.356 . S
C1473 C1472 1.363 . S
C1473 C1476 1.363 1_455 S
N1474 C1476 1.356 . S
N1474 H1486 0.984 . S
N1474 H1487 0.985 . S
N1475 C1477 1.356 . S
N1475 H1480 0.984 . S
N1475 H1481 0.985 . S
C1476 C1470 1.379 . S
C1476 C1473 1.363 1_655 S
C1476 N1474 1.356 . S
C1477 C1471 1.363 . S
C1477 C1472 1.379 . S
C1477 N1475 1.356 . S
N1478 C1470 1.356 . S
N1478 H1484 0.984 . S
N1478 H1485 0.984 . S
N1479 C1472 1.356 . S
N1479 H1482 0.984 . S
N1479 H1483 0.985 . S
H1480 N1475 0.984 . S
H1481 N1475 0.985 . S
H1482 N1479 0.984 . S
H1483 N1479 0.985 . S
H1484 N1478 0.984 . S
H1485 N1478 0.984 . S
H1486 N1474 0.984 . S
H1487 N1474 0.985 . S
C1488 C1489 1.363 1_556 S
C1488 C1494 1.379 . S
C1488 N1496 1.356 . S
C1489 C1488 1.363 1_554 S
C1489 C1495 1.363 . S
C1490 C1491 1.363 . S
C1490 C1495 1.379 . S
C1490 N1497 1.356 . S
C1491 C1490 1.363 . S
C1491 C1494 1.363 1_554 S
N1492 C1494 1.356 . S
N1492 H1504 0.984 . S
N1492 H1505 0.985 . S
N1493 C1495 1.356 . S
N1493 H1498 0.984 . S
N1493 H1499 0.985 . S
C1494 C1488 1.379 . S
C1494 C1491 1.363 1_556 S
C1494 N1492 1.356 . S
C1495 C1489 1.363 . S
C1495 C1490 1.379 . S
C1495 N1493 1.356 . S
N1496 C1488 1.356 . S
N1496 H1502 0.984 . S
N1496 H1503 0.984 . S
N1497 C1490 1.356 . S
N1497 H1500 0.984 . S
N1497 H1501 0.985 . S
H1498 N1493 0.984 . S
H1499 N1493 0.985 . S
H1500 N1497 0.984 . S
H1501 N1497 0.985 . S
H1502 N1496 0.984 . S
H1503 N1496 0.984 . S
H1504 N1492 0.984 . S
H1505 N1492 0.985 . S
C1506 C1507 1.363 . S
C1506 C1512 1.379 . S
C1506 N1514 1.356 . S
C1507 C1506 1.363 . S
C1507 C1513 1.363 1_554 S
C1508 C1509 1.363 1_556 S
C1508 C1513 1.379 . S
C1508 N1515 1.356 . S
C1509 C1508 1.363 1_554 S
C1509 C1512 1.363 . S
N1510 C1512 1.356 . S
N1510 H1522 0.984 . S
N1510 H1523 0.985 . S
N1511 C1513 1.356 . S
N1511 H1516 0.984 . S
N1511 H1517 0.985 . S
C1512 C1506 1.379 . S
C1512 C1509 1.363 . S
C1512 N1510 1.356 . S
C1513 C1507 1.363 1_556 S
C1513 C1508 1.379 . S
C1513 N1511 1.356 . S
N1514 C1506 1.356 . S
N1514 H1520 0.984 . S
N1514 H1521 0.984 . S
N1515 C1508 1.356 . S
N1515 H1518 0.984 . S
N1515 H1519 0.985 . S
H1516 N1511 0.984 . S
H1517 N1511 0.985 . S
H1518 N1515 0.984 . S
H1519 N1515 0.985 . S
H1520 N1514 0.984 . S
H1521 N1514 0.984 . S
H1522 N1510 0.984 . S
H1523 N1510 0.985 . S
C1524 C1525 1.363 1_556 S
C1524 C1530 1.379 . S
C1524 N1532 1.356 . S
C1525 C1524 1.363 1_554 S
C1525 C1531 1.363 . S
C1526 C1527 1.363 . S
C1526 C1531 1.379 . S
C1526 N1533 1.356 . S
C1527 C1526 1.363 . S
C1527 C1530 1.363 1_554 S
N1528 C1530 1.356 . S
N1528 H1540 0.984 . S
N1528 H1541 0.985 . S
N1529 C1531 1.356 . S
N1529 H1534 0.984 . S
N1529 H1535 0.985 . S
C1530 C1524 1.379 . S
C1530 C1527 1.363 1_556 S
C1530 N1528 1.356 . S
C1531 C1525 1.363 . S
C1531 C1526 1.379 . S
C1531 N1529 1.356 . S
N1532 C1524 1.356 . S
N1532 H1538 0.984 . S
N1532 H1539 0.984 . S
N1533 C1526 1.356 . S
N1533 H1536 0.984 . S
N1533 H1537 0.985 . S
H1534 N1529 0.984 . S
H1535 N1529 0.985 . S
H1536 N1533 0.984 . S
H1537 N1533 0.985 . S
H1538 N1532 0.984 . S
H1539 N1532 0.984 . S
H1540 N1528 0.984 . S
H1541 N1528 0.985 . S
C1542 C1543 1.363 . S
C1542 C1548 1.379 . S
C1542 N1550 1.356 . S
C1543 C1542 1.363 . S
C1543 C1549 1.363 1_554 S
C1544 C1545 1.363 . S
C1544 C1549 1.379 . S
C1544 N1551 1.356 . S
C1545 C1544 1.363 . S
C1545 C1548 1.363 1_556 S
N1546 C1548 1.356 . S
N1546 H1558 0.984 . S
N1546 H1559 0.985 . S
N1547 C1549 1.356 . S
N1547 H1552 0.984 . S
N1547 H1553 0.985 . S
C1548 C1542 1.379 . S
C1548 C1545 1.363 1_554 S
C1548 N1546 1.356 . S
C1549 C1543 1.363 1_556 S
C1549 C1544 1.379 . S
C1549 N1547 1.356 . S
N1550 C1542 1.356 . S
N1550 H1556 0.984 . S
N1550 H1557 0.984 . S
N1551 C1544 1.356 . S
N1551 H1554 0.984 . S
N1551 H1555 0.985 . S
H1552 N1547 0.984 . S
H1553 N1547 0.985 . S
H1554 N1551 0.984 . S
H1555 N1551 0.985 . S
H1556 N1550 0.984 . S
H1557 N1550 0.984 . S
H1558 N1546 0.984 . S
H1559 N1546 0.985 . S
C1560 C1561 1.363 . S
C1560 C1566 1.379 . S
C1560 N1568 1.356 . S
C1561 C1560 1.363 . S
C1561 C1567 1.363 1_554 S
C1562 C1563 1.363 . S
C1562 C1567 1.379 1_554 S
C1562 N1569 1.356 1_554 S
C1563 C1562 1.363 . S
C1563 C1566 1.363 . S
N1564 C1566 1.356 . S
N1564 H1576 0.984 . S
N1564 H1577 0.985 . S
N1565 C1567 1.356 . S
N1565 H1570 0.984 . S
N1565 H1571 0.985 . S
C1566 C1560 1.379 . S
C1566 C1563 1.363 . S
C1566 N1564 1.356 . S
C1567 C1561 1.363 1_556 S
C1567 C1562 1.379 1_556 S
C1567 N1565 1.356 . S
N1568 C1560 1.356 . S
N1568 H1574 0.984 . S
N1568 H1575 0.984 . S
N1569 C1562 1.356 1_556 S
N1569 H1572 0.991 . S
N1569 H1573 0.985 . S
H1570 N1565 0.984 . S
H1571 N1565 0.985 . S
H1572 N1569 0.991 . S
H1573 N1569 0.985 . S
H1574 N1568 0.984 . S
H1575 N1568 0.984 . S
H1576 N1564 0.984 . S
H1577 N1564 0.985 . S
C1578 C1579 1.363 . S
C1578 C1584 1.379 . S
C1578 N1586 1.356 . S
C1579 C1578 1.363 . S
C1579 C1585 1.363 1_554 S
C1580 C1581 1.367 . S
C1580 C1585 1.379 . S
C1580 N1587 1.356 . S
C1581 C1580 1.367 . S
C1581 C1584 1.358 1_556 S
N1582 C1584 1.356 . S
N1582 H1594 0.984 . S
N1582 H1595 0.985 . S
N1583 C1585 1.356 . S
N1583 H1588 0.984 . S
N1583 H1589 0.985 . S
C1584 C1578 1.379 . S
C1584 C1581 1.358 1_554 S
C1584 N1582 1.356 . S
C1585 C1579 1.363 1_556 S
C1585 C1580 1.379 . S
C1585 N1583 1.356 . S
N1586 C1578 1.356 . S
N1586 H1592 0.984 . S
N1586 H1593 0.984 . S
N1587 C1580 1.356 . S
N1587 H1590 0.984 . S
N1587 H1591 0.985 . S
H1588 N1583 0.984 . S
H1589 N1583 0.985 . S
H1590 N1587 0.984 . S
H1591 N1587 0.985 . S
H1592 N1586 0.984 . S
H1593 N1586 0.984 . S
H1594 N1582 0.984 . S
H1595 N1582 0.985 . S
C1596 C1597 1.363 1_556 S
C1596 C1602 1.379 . S
C1596 N1604 1.356 . S
C1597 C1596 1.363 1_554 S
C1597 C1603 1.363 . S
C1598 C1599 1.363 . S
C1598 C1603 1.379 . S
C1598 N1605 1.356 . S
C1599 C1598 1.363 . S
C1599 C1602 1.363 1_554 S
N1600 C1602 1.356 . S
N1600 H1612 0.984 . S
N1600 H1613 0.985 . S
N1601 C1603 1.356 . S
N1601 H1606 0.984 . S
N1601 H1607 0.985 . S
C1602 C1596 1.379 . S
C1602 C1599 1.363 1_556 S
C1602 N1600 1.356 . S
C1603 C1597 1.363 . S
C1603 C1598 1.379 . S
C1603 N1601 1.356 . S
N1604 C1596 1.356 . S
N1604 H1610 0.984 . S
N1604 H1611 0.984 . S
N1605 C1598 1.356 . S
N1605 H1608 0.984 . S
N1605 H1609 0.985 . S
H1606 N1601 0.984 . S
H1607 N1601 0.985 . S
H1608 N1605 0.984 . S
H1609 N1605 0.985 . S
H1610 N1604 0.984 . S
H1611 N1604 0.984 . S
H1612 N1600 0.984 . S
H1613 N1600 0.985 . S
C1614 C1615 1.363 . S
C1614 C1620 1.379 . S
C1614 N1622 1.356 . S
C1615 C1614 1.363 . S
C1615 C1621 1.363 1_554 S
C1616 C1617 1.363 1_556 S
C1616 C1621 1.379 . S
C1616 N1623 1.356 . S
C1617 C1616 1.363 1_554 S
C1617 C1620 1.363 . S
N1618 C1620 1.356 . S
N1618 H1630 0.984 . S
N1618 H1631 0.985 . S
N1619 C1621 1.356 . S
N1619 H1624 0.984 . S
N1619 H1625 0.985 . S
C1620 C1614 1.379 . S
C1620 C1617 1.363 . S
C1620 N1618 1.356 . S
C1621 C1615 1.363 1_556 S
C1621 C1616 1.379 . S
C1621 N1619 1.356 . S
N1622 C1614 1.356 . S
N1622 H1628 0.984 . S
N1622 H1629 0.984 . S
N1623 C1616 1.356 . S
N1623 H1626 0.984 . S
N1623 H1627 0.985 . S
H1624 N1619 0.984 . S
H1625 N1619 0.985 . S
H1626 N1623 0.984 . S
H1627 N1623 0.985 . S
H1628 N1622 0.984 . S
H1629 N1622 0.984 . S
H1630 N1618 0.984 . S
H1631 N1618 0.985 . S
C1632 C1633 1.363 . S
C1632 C1638 1.379 . S
C1632 N1640 1.356 . S
C1633 C1632 1.363 . S
C1633 C1639 1.363 . S
C1634 C1635 1.363 . S
C1634 C1639 1.379 . S
C1634 N1641 1.356 . S
C1635 C1634 1.363 . S
C1635 C1638 1.363 . S
N1636 C1638 1.356 . S
N1636 H1648 0.984 . S
N1636 H1649 0.985 . S
N1637 C1639 1.356 . S
N1637 H1642 0.984 . S
N1637 H1643 0.985 . S
C1638 C1632 1.379 . S
C1638 C1635 1.363 . S
C1638 N1636 1.356 . S
C1639 C1633 1.363 . S
C1639 C1634 1.379 . S
C1639 N1637 1.356 . S
N1640 C1632 1.356 . S
N1640 H1646 0.984 . S
N1640 H1647 0.984 . S
N1641 C1634 1.356 . S
N1641 H1644 0.984 . S
N1641 H1645 0.985 . S
H1642 N1637 0.984 . S
H1643 N1637 0.985 . S
H1644 N1641 0.984 . S
H1645 N1641 0.985 . S
H1646 N1640 0.984 . S
H1647 N1640 0.984 . S
H1648 N1636 0.984 . S
H1649 N1636 0.985 . S
C1650 C1651 1.363 . S
C1650 C1656 1.379 . S
C1650 N1658 1.356 . S
C1651 C1650 1.363 . S
C1651 C1657 1.363 . S
C1652 C1653 1.363 . S
C1652 C1657 1.379 . S
C1652 N1659 1.356 . S
C1653 C1652 1.363 . S
C1653 C1656 1.363 . S
N1654 C1656 1.356 . S
N1654 H1666 0.984 . S
N1654 H1667 0.985 . S
N1655 C1657 1.356 . S
N1655 H1660 0.984 . S
N1655 H1661 0.985 . S
C1656 C1650 1.379 . S
C1656 C1653 1.363 . S
C1656 N1654 1.356 . S
C1657 C1651 1.363 . S
C1657 C1652 1.379 . S
C1657 N1655 1.356 . S
N1658 C1650 1.356 . S
N1658 H1664 0.984 . S
N1658 H1665 0.984 . S
N1659 C1652 1.356 . S
N1659 H1662 0.984 . S
N1659 H1663 0.985 . S
H1660 N1655 0.984 . S
H1661 N1655 0.985 . S
H1662 N1659 0.984 . S
H1663 N1659 0.985 . S
H1664 N1658 0.984 . S
H1665 N1658 0.984 . S
H1666 N1654 0.984 . S
H1667 N1654 0.985 . S
C1668 C1669 1.363 . S
C1668 C1674 1.379 . S
C1668 N1676 1.356 . S
C1669 C1668 1.363 . S
C1669 C1675 1.363 . S
C1670 C1671 1.363 . S
C1670 C1675 1.379 . S
C1670 N1677 1.356 . S
C1671 C1670 1.363 . S
C1671 C1674 1.363 . S
N1672 C1674 1.356 . S
N1672 H1684 0.984 . S
N1672 H1685 0.985 . S
N1673 C1675 1.356 . S
N1673 H1678 0.984 . S
N1673 H1679 0.985 . S
C1674 C1668 1.379 . S
C1674 C1671 1.363 . S
C1674 N1672 1.356 . S
C1675 C1669 1.363 . S
C1675 C1670 1.379 . S
C1675 N1673 1.356 . S
N1676 C1668 1.356 . S
N1676 H1682 0.984 . S
N1676 H1683 0.984 . S
N1677 C1670 1.356 . S
N1677 H1680 0.984 . S
N1677 H1681 0.985 . S
H1678 N1673 0.984 . S
H1679 N1673 0.985 . S
H1680 N1677 0.984 . S
H1681 N1677 0.985 . S
H1682 N1676 0.984 . S
H1683 N1676 0.984 . S
H1684 N1672 0.984 . S
H1685 N1672 0.985 . S
C1686 C1687 1.363 . S
C1686 C1692 1.379 . S
C1686 N1694 1.356 . S
C1687 C1686 1.363 . S
C1687 C1693 1.363 . S
C1688 C1689 1.363 . S
C1688 C1693 1.379 . S
C1688 N1695 1.356 . S
C1689 C1688 1.363 . S
C1689 C1692 1.363 . S
N1690 C1692 1.356 . S
N1690 H1702 0.984 . S
N1690 H1703 0.985 . S
N1691 C1693 1.356 . S
N1691 H1696 0.984 . S
N1691 H1697 0.985 . S
C1692 C1686 1.379 . S
C1692 C1689 1.363 . S
C1692 N1690 1.356 . S
C1693 C1687 1.363 . S
C1693 C1688 1.379 . S
C1693 N1691 1.356 . S
N1694 C1686 1.356 . S
N1694 H1700 0.984 . S
N1694 H1701 0.984 . S
N1695 C1688 1.356 . S
N1695 H1698 0.984 . S
N1695 H1699 0.985 . S
H1696 N1691 0.984 . S
H1697 N1691 0.985 . S
H1698 N1695 0.984 . S
H1699 N1695 0.985 . S
H1700 N1694 0.984 . S
H1701 N1694 0.984 . S
H1702 N1690 0.984 . S
H1703 N1690 0.985 . S
C1704 C1705 1.363 . S
C1704 C1710 1.379 . S
C1704 N1712 1.356 . S
C1705 C1704 1.363 . S
C1705 C1711 1.363 . S
C1706 C1707 1.363 . S
C1706 C1711 1.379 . S
C1706 N1713 1.356 . S
C1707 C1706 1.363 . S
C1707 C1710 1.363 . S
N1708 C1710 1.356 . S
N1708 H1720 0.984 . S
N1708 H1721 0.985 . S
N1709 C1711 1.356 . S
N1709 H1714 0.984 . S
N1709 H1715 0.985 . S
C1710 C1704 1.379 . S
C1710 C1707 1.363 . S
C1710 N1708 1.356 . S
C1711 C1705 1.363 . S
C1711 C1706 1.379 . S
C1711 N1709 1.356 . S
N1712 C1704 1.356 . S
N1712 H1718 0.984 . S
N1712 H1719 0.984 . S
N1713 C1706 1.356 . S
N1713 H1716 0.984 . S
N1713 H1717 0.985 . S
H1714 N1709 0.984 . S
H1715 N1709 0.985 . S
H1716 N1713 0.984 . S
H1717 N1713 0.985 . S
H1718 N1712 0.984 . S
H1719 N1712 0.984 . S
H1720 N1708 0.984 . S
H1721 N1708 0.985 . S
C1722 C1723 1.363 . S
C1722 C1728 1.379 . S
C1722 N1730 1.356 . S
C1723 C1722 1.363 . S
C1723 C1729 1.363 . S
C1724 C1725 1.363 . S
C1724 C1729 1.379 . S
C1724 N1731 1.356 . S
C1725 C1724 1.363 . S
C1725 C1728 1.363 . S
N1726 C1728 1.356 . S
N1726 H1738 0.984 . S
N1726 H1739 0.985 . S
N1727 C1729 1.356 . S
N1727 H1732 0.984 . S
N1727 H1733 0.985 . S
C1728 C1722 1.379 . S
C1728 C1725 1.363 . S
C1728 N1726 1.356 . S
C1729 C1723 1.363 . S
C1729 C1724 1.379 . S
C1729 N1727 1.356 . S
N1730 C1722 1.356 . S
N1730 H1736 0.984 . S
N1730 H1737 0.984 . S
N1731 C1724 1.356 . S
N1731 H1734 0.984 . S
N1731 H1735 0.985 . S
H1732 N1727 0.984 . S
H1733 N1727 0.985 . S
H1734 N1731 0.984 . S
H1735 N1731 0.985 . S
H1736 N1730 0.984 . S
H1737 N1730 0.984 . S
H1738 N1726 0.984 . S
H1739 N1726 0.985 . S
C1740 C1741 1.363 . S
C1740 C1746 1.379 . S
C1740 N1748 1.356 . S
C1741 C1740 1.363 . S
C1741 C1747 1.363 . S
C1742 C1743 1.363 . S
C1742 C1747 1.379 . S
C1742 N1749 1.356 . S
C1743 C1742 1.363 . S
C1743 C1746 1.363 . S
N1744 C1746 1.356 . S
N1744 H1756 0.984 . S
N1744 H1757 0.985 . S
N1745 C1747 1.356 . S
N1745 H1750 0.984 . S
N1745 H1751 0.985 . S
C1746 C1740 1.379 . S
C1746 C1743 1.363 . S
C1746 N1744 1.356 . S
C1747 C1741 1.363 . S
C1747 C1742 1.379 . S
C1747 N1745 1.356 . S
N1748 C1740 1.356 . S
N1748 H1754 0.984 . S
N1748 H1755 0.984 . S
N1749 C1742 1.356 . S
N1749 H1752 0.984 . S
N1749 H1753 0.985 . S
H1750 N1745 0.984 . S
H1751 N1745 0.985 . S
H1752 N1749 0.984 . S
H1753 N1749 0.985 . S
H1754 N1748 0.984 . S
H1755 N1748 0.984 . S
H1756 N1744 0.984 . S
H1757 N1744 0.985 . S
C1758 C1759 1.363 . S
C1758 C1764 1.379 . S
C1758 N1766 1.356 . S
C1759 C1758 1.363 . S
C1759 C1765 1.363 . S
C1760 C1761 1.363 . S
C1760 C1765 1.379 . S
C1760 N1767 1.356 . S
C1761 C1760 1.363 . S
C1761 C1764 1.363 . S
N1762 C1764 1.356 . S
N1762 H1774 0.984 . S
N1762 H1775 0.985 . S
N1763 C1765 1.356 . S
N1763 H1768 0.984 . S
N1763 H1769 0.985 . S
C1764 C1758 1.379 . S
C1764 C1761 1.363 . S
C1764 N1762 1.356 . S
C1765 C1759 1.363 . S
C1765 C1760 1.379 . S
C1765 N1763 1.356 . S
N1766 C1758 1.356 . S
N1766 H1772 0.984 . S
N1766 H1773 0.984 . S
N1767 C1760 1.356 . S
N1767 H1770 0.984 . S
N1767 H1771 0.985 . S
H1768 N1763 0.984 . S
H1769 N1763 0.985 . S
H1770 N1767 0.984 . S
H1771 N1767 0.985 . S
H1772 N1766 0.984 . S
H1773 N1766 0.984 . S
H1774 N1762 0.984 . S
H1775 N1762 0.985 . S
C1776 C1777 1.363 . S
C1776 C1782 1.379 . S
C1776 N1784 1.356 . S
C1777 C1776 1.363 . S
C1777 C1783 1.363 . S
C1778 C1779 1.363 . S
C1778 C1783 1.379 . S
C1778 N1785 1.356 . S
C1779 C1778 1.363 . S
C1779 C1782 1.363 . S
N1780 C1782 1.356 . S
N1780 H1792 0.984 . S
N1780 H1793 0.985 . S
N1781 C1783 1.356 . S
N1781 H1786 0.984 . S
N1781 H1787 0.985 . S
C1782 C1776 1.379 . S
C1782 C1779 1.363 . S
C1782 N1780 1.356 . S
C1783 C1777 1.363 . S
C1783 C1778 1.379 . S
C1783 N1781 1.356 . S
N1784 C1776 1.356 . S
N1784 H1790 0.984 . S
N1784 H1791 0.984 . S
N1785 C1778 1.356 . S
N1785 H1788 0.984 . S
N1785 H1789 0.985 . S
H1786 N1781 0.984 . S
H1787 N1781 0.985 . S
H1788 N1785 0.984 . S
H1789 N1785 0.985 . S
H1790 N1784 0.984 . S
H1791 N1784 0.984 . S
H1792 N1780 0.984 . S
H1793 N1780 0.985 . S
C1794 C1795 1.363 . S
C1794 C1800 1.379 . S
C1794 N1802 1.356 . S
C1795 C1794 1.363 . S
C1795 C1801 1.363 . S
C1796 C1797 1.363 . S
C1796 C1801 1.379 . S
C1796 N1803 1.356 . S
C1797 C1796 1.363 . S
C1797 C1800 1.363 . S
N1798 C1800 1.356 . S
N1798 H1810 0.984 . S
N1798 H1811 0.985 . S
N1799 C1801 1.356 . S
N1799 H1804 0.984 . S
N1799 H1805 0.985 . S
C1800 C1794 1.379 . S
C1800 C1797 1.363 . S
C1800 N1798 1.356 . S
C1801 C1795 1.363 . S
C1801 C1796 1.379 . S
C1801 N1799 1.356 . S
N1802 C1794 1.356 . S
N1802 H1808 0.984 . S
N1802 H1809 0.984 . S
N1803 C1796 1.356 . S
N1803 H1806 0.984 . S
N1803 H1807 0.985 . S
H1804 N1799 0.984 . S
H1805 N1799 0.985 . S
H1806 N1803 0.984 . S
H1807 N1803 0.985 . S
H1808 N1802 0.984 . S
H1809 N1802 0.984 . S
H1810 N1798 0.984 . S
H1811 N1798 0.985 . S
C1812 C1813 1.363 . S
C1812 C1818 1.379 . S
C1812 N1820 1.356 . S
C1813 C1812 1.363 . S
C1813 C1819 1.363 . S
C1814 C1815 1.363 . S
C1814 C1819 1.379 . S
C1814 N1821 1.356 . S
C1815 C1814 1.363 . S
C1815 C1818 1.363 . S
N1816 C1818 1.356 . S
N1816 H1828 0.984 . S
N1816 H1829 0.985 . S
N1817 C1819 1.356 . S
N1817 H1822 0.984 . S
N1817 H1823 0.985 . S
C1818 C1812 1.379 . S
C1818 C1815 1.363 . S
C1818 N1816 1.356 . S
C1819 C1813 1.363 . S
C1819 C1814 1.379 . S
C1819 N1817 1.356 . S
N1820 C1812 1.356 . S
N1820 H1826 0.984 . S
N1820 H1827 0.984 . S
N1821 C1814 1.356 . S
N1821 H1824 0.984 . S
N1821 H1825 0.985 . S
H1822 N1817 0.984 . S
H1823 N1817 0.985 . S
H1824 N1821 0.984 . S
H1825 N1821 0.985 . S
H1826 N1820 0.984 . S
H1827 N1820 0.984 . S
H1828 N1816 0.984 . S
H1829 N1816 0.985 . S
C1830 C1831 1.363 . S
C1830 C1836 1.379 . S
C1830 N1838 1.356 . S
C1831 C1830 1.363 . S
C1831 C1837 1.363 . S
C1832 C1833 1.363 . S
C1832 C1837 1.379 . S
C1832 N1839 1.356 . S
C1833 C1832 1.363 . S
C1833 C1836 1.363 . S
N1834 C1836 1.356 . S
N1834 H1846 0.984 . S
N1834 H1847 0.985 . S
N1835 C1837 1.356 . S
N1835 H1840 0.984 . S
N1835 H1841 0.985 . S
C1836 C1830 1.379 . S
C1836 C1833 1.363 . S
C1836 N1834 1.356 . S
C1837 C1831 1.363 . S
C1837 C1832 1.379 . S
C1837 N1835 1.356 . S
N1838 C1830 1.356 . S
N1838 H1844 0.984 . S
N1838 H1845 0.984 . S
N1839 C1832 1.356 . S
N1839 H1842 0.984 . S
N1839 H1843 0.985 . S
H1840 N1835 0.984 . S
H1841 N1835 0.985 . S
H1842 N1839 0.984 . S
H1843 N1839 0.985 . S
H1844 N1838 0.984 . S
H1845 N1838 0.984 . S
H1846 N1834 0.984 . S
H1847 N1834 0.985 . S
C1848 C1849 1.363 . S
C1848 C1854 1.379 . S
C1848 N1856 1.356 . S
C1849 C1848 1.363 . S
C1849 C1855 1.363 . S
C1850 C1851 1.363 . S
C1850 C1855 1.379 . S
C1850 N1857 1.356 . S
C1851 C1850 1.363 . S
C1851 C1854 1.363 . S
N1852 C1854 1.356 . S
N1852 H1864 0.984 . S
N1852 H1865 0.985 . S
N1853 C1855 1.356 . S
N1853 H1858 0.984 . S
N1853 H1859 0.985 . S
C1854 C1848 1.379 . S
C1854 C1851 1.363 . S
C1854 N1852 1.356 . S
C1855 C1849 1.363 . S
C1855 C1850 1.379 . S
C1855 N1853 1.356 . S
N1856 C1848 1.356 . S
N1856 H1862 0.984 . S
N1856 H1863 0.984 . S
N1857 C1850 1.356 . S
N1857 H1860 0.984 . S
N1857 H1861 0.985 . S
H1858 N1853 0.984 . S
H1859 N1853 0.985 . S
H1860 N1857 0.984 . S
H1861 N1857 0.985 . S
H1862 N1856 0.984 . S
H1863 N1856 0.984 . S
H1864 N1852 0.984 . S
H1865 N1852 0.985 . S
C1866 C1867 1.363 . S
C1866 C1872 1.379 . S
C1866 N1874 1.356 . S
C1867 C1866 1.363 . S
C1867 C1873 1.363 . S
C1868 C1869 1.363 . S
C1868 C1873 1.379 . S
C1868 N1875 1.356 . S
C1869 C1868 1.363 . S
C1869 C1872 1.363 . S
N1870 C1872 1.356 . S
N1870 H1882 0.984 . S
N1870 H1883 0.985 . S
N1871 C1873 1.356 . S
N1871 H1876 0.984 . S
N1871 H1877 0.985 . S
C1872 C1866 1.379 . S
C1872 C1869 1.363 . S
C1872 N1870 1.356 . S
C1873 C1867 1.363 . S
C1873 C1868 1.379 . S
C1873 N1871 1.356 . S
N1874 C1866 1.356 . S
N1874 H1880 0.984 . S
N1874 H1881 0.984 . S
N1875 C1868 1.356 . S
N1875 H1878 0.984 . S
N1875 H1879 0.985 . S
H1876 N1871 0.984 . S
H1877 N1871 0.985 . S
H1878 N1875 0.984 . S
H1879 N1875 0.985 . S
H1880 N1874 0.984 . S
H1881 N1874 0.984 . S
H1882 N1870 0.984 . S
H1883 N1870 0.985 . S
C1884 C1885 1.363 . S
C1884 C1890 1.379 . S
C1884 N1892 1.356 . S
C1885 C1884 1.363 . S
C1885 C1891 1.363 . S
C1886 C1887 1.363 . S
C1886 C1891 1.379 . S
C1886 N1893 1.356 . S
C1887 C1886 1.363 . S
C1887 C1890 1.363 . S
N1888 C1890 1.356 . S
N1888 H1900 0.984 . S
N1888 H1901 0.985 . S
N1889 C1891 1.356 . S
N1889 H1894 0.984 . S
N1889 H1895 0.985 . S
C1890 C1884 1.379 . S
C1890 C1887 1.363 . S
C1890 N1888 1.356 . S
C1891 C1885 1.363 . S
C1891 C1886 1.379 . S
C1891 N1889 1.356 . S
N1892 C1884 1.356 . S
N1892 H1898 0.984 . S
N1892 H1899 0.984 . S
N1893 C1886 1.356 . S
N1893 H1896 0.984 . S
N1893 H1897 0.985 . S
H1894 N1889 0.984 . S
H1895 N1889 0.985 . S
H1896 N1893 0.984 . S
H1897 N1893 0.985 . S
H1898 N1892 0.984 . S
H1899 N1892 0.984 . S
H1900 N1888 0.984 . S
H1901 N1888 0.985 . S
C1902 C1903 1.363 . S
C1902 C1908 1.379 . S
C1902 N1910 1.356 . S
C1903 C1902 1.363 . S
C1903 C1909 1.363 . S
C1904 C1905 1.363 . S
C1904 C1909 1.379 . S
C1904 N1911 1.356 . S
C1905 C1904 1.363 . S
C1905 C1908 1.363 . S
N1906 C1908 1.356 . S
N1906 H1918 0.984 . S
N1906 H1919 0.985 . S
N1907 C1909 1.356 . S
N1907 H1912 0.984 . S
N1907 H1913 0.985 . S
C1908 C1902 1.379 . S
C1908 C1905 1.363 . S
C1908 N1906 1.356 . S
C1909 C1903 1.363 . S
C1909 C1904 1.379 . S
C1909 N1907 1.356 . S
N1910 C1902 1.356 . S
N1910 H1916 0.984 . S
N1910 H1917 0.984 . S
N1911 C1904 1.356 . S
N1911 H1914 0.984 . S
N1911 H1915 0.985 . S
H1912 N1907 0.984 . S
H1913 N1907 0.985 . S
H1914 N1911 0.984 . S
H1915 N1911 0.985 . S
H1916 N1910 0.984 . S
H1917 N1910 0.984 . S
H1918 N1906 0.984 . S
H1919 N1906 0.985 . S
C1920 C1921 1.363 . S
C1920 C1926 1.379 . S
C1920 N1928 1.356 . S
C1921 C1920 1.363 . S
C1921 C1927 1.363 . S
C1922 C1923 1.363 . S
C1922 C1927 1.379 . S
C1922 N1929 1.356 . S
C1923 C1922 1.363 . S
C1923 C1926 1.363 . S
N1924 C1926 1.356 . S
N1924 H1936 0.984 . S
N1924 H1937 0.985 . S
N1925 C1927 1.356 . S
N1925 H1930 0.984 . S
N1925 H1931 0.985 . S
C1926 C1920 1.379 . S
C1926 C1923 1.363 . S
C1926 N1924 1.356 . S
C1927 C1921 1.363 . S
C1927 C1922 1.379 . S
C1927 N1925 1.356 . S
N1928 C1920 1.356 . S
N1928 H1934 0.984 . S
N1928 H1935 0.984 . S
N1929 C1922 1.356 . S
N1929 H1932 0.984 . S
N1929 H1933 0.985 . S
H1930 N1925 0.984 . S
H1931 N1925 0.985 . S
H1932 N1929 0.984 . S
H1933 N1929 0.985 . S
H1934 N1928 0.984 . S
H1935 N1928 0.984 . S
H1936 N1924 0.984 . S
H1937 N1924 0.985 . S
C1938 C1939 1.363 . S
C1938 C1944 1.379 . S
C1938 N1946 1.356 . S
C1939 C1938 1.363 . S
C1939 C1945 1.363 . S
C1940 C1941 1.363 . S
C1940 C1945 1.379 . S
C1940 N1947 1.356 . S
C1941 C1940 1.363 . S
C1941 C1944 1.363 . S
N1942 C1944 1.356 . S
N1942 H1954 0.984 . S
N1942 H1955 0.985 . S
N1943 C1945 1.356 . S
N1943 H1948 0.984 . S
N1943 H1949 0.985 . S
C1944 C1938 1.379 . S
C1944 C1941 1.363 . S
C1944 N1942 1.356 . S
C1945 C1939 1.363 . S
C1945 C1940 1.379 . S
C1945 N1943 1.356 . S
N1946 C1938 1.356 . S
N1946 H1952 0.984 . S
N1946 H1953 0.984 . S
N1947 C1940 1.356 . S
N1947 H1950 0.984 . S
N1947 H1951 0.985 . S
H1948 N1943 0.984 . S
H1949 N1943 0.985 . S
H1950 N1947 0.984 . S
H1951 N1947 0.985 . S
H1952 N1946 0.984 . S
H1953 N1946 0.984 . S
H1954 N1942 0.984 . S
H1955 N1942 0.985 . S
C1956 C1957 1.363 . S
C1956 C1962 1.379 . S
C1956 N1964 1.356 . S
C1957 C1956 1.363 . S
C1957 C1963 1.363 . S
C1958 C1959 1.363 . S
C1958 C1963 1.379 . S
C1958 N1965 1.356 . S
C1959 C1958 1.363 . S
C1959 C1962 1.363 . S
N1960 C1962 1.356 . S
N1960 H1972 0.984 . S
N1960 H1973 0.985 . S
N1961 C1963 1.356 . S
N1961 H1966 0.984 . S
N1961 H1967 0.985 . S
C1962 C1956 1.379 . S
C1962 C1959 1.363 . S
C1962 N1960 1.356 . S
C1963 C1957 1.363 . S
C1963 C1958 1.379 . S
C1963 N1961 1.356 . S
N1964 C1956 1.356 . S
N1964 H1970 0.984 . S
N1964 H1971 0.984 . S
N1965 C1958 1.356 . S
N1965 H1968 0.984 . S
N1965 H1969 0.985 . S
H1966 N1961 0.984 . S
H1967 N1961 0.985 . S
H1968 N1965 0.984 . S
H1969 N1965 0.985 . S
H1970 N1964 0.984 . S
H1971 N1964 0.984 . S
H1972 N1960 0.984 . S
H1973 N1960 0.985 . S
C1974 C1975 1.363 . S
C1974 C1980 1.379 . S
C1974 N1982 1.356 . S
C1975 C1974 1.363 . S
C1975 C1981 1.363 . S
C1976 C1977 1.363 . S
C1976 C1981 1.379 . S
C1976 N1983 1.356 . S
C1977 C1976 1.363 . S
C1977 C1980 1.363 . S
N1978 C1980 1.356 . S
N1978 H1990 0.984 . S
N1978 H1991 0.985 . S
N1979 C1981 1.356 . S
N1979 H1984 0.984 . S
N1979 H1985 0.985 . S
C1980 C1974 1.379 . S
C1980 C1977 1.363 . S
C1980 N1978 1.356 . S
C1981 C1975 1.363 . S
C1981 C1976 1.379 . S
C1981 N1979 1.356 . S
N1982 C1974 1.356 . S
N1982 H1988 0.984 . S
N1982 H1989 0.984 . S
N1983 C1976 1.356 . S
N1983 H1986 0.984 . S
N1983 H1987 0.985 . S
H1984 N1979 0.984 . S
H1985 N1979 0.985 . S
H1986 N1983 0.984 . S
H1987 N1983 0.985 . S
H1988 N1982 0.984 . S
H1989 N1982 0.984 . S
H1990 N1978 0.984 . S
H1991 N1978 0.985 . S
C1992 C1993 1.363 . S
C1992 C1998 1.379 . S
C1992 N2000 1.356 . S
C1993 C1992 1.363 . S
C1993 C1999 1.363 . S
C1994 C1995 1.363 . S
C1994 C1999 1.379 . S
C1994 N2001 1.356 . S
C1995 C1994 1.363 . S
C1995 C1998 1.363 . S
N1996 C1998 1.356 . S
N1996 H2008 0.984 . S
N1996 H2009 0.985 . S
N1997 C1999 1.356 . S
N1997 H2002 0.984 . S
N1997 H2003 0.985 . S
C1998 C1992 1.379 . S
C1998 C1995 1.363 . S
C1998 N1996 1.356 . S
C1999 C1993 1.363 . S
C1999 C1994 1.379 . S
C1999 N1997 1.356 . S
N2000 C1992 1.356 . S
N2000 H2006 0.984 . S
N2000 H2007 0.984 . S
N2001 C1994 1.356 . S
N2001 H2004 0.984 . S
N2001 H2005 0.985 . S
H2002 N1997 0.984 . S
H2003 N1997 0.985 . S
H2004 N2001 0.984 . S
H2005 N2001 0.985 . S
H2006 N2000 0.984 . S
H2007 N2000 0.984 . S
H2008 N1996 0.984 . S
H2009 N1996 0.985 . S
C2010 C2011 1.363 . S
C2010 C2016 1.379 . S
C2010 N2018 1.356 . S
C2011 C2010 1.363 . S
C2011 C2017 1.363 . S
C2012 C2013 1.363 . S
C2012 C2017 1.379 . S
C2012 N2019 1.356 . S
C2013 C2012 1.363 . S
C2013 C2016 1.363 . S
N2014 C2016 1.356 . S
N2014 H2026 0.984 . S
N2014 H2027 0.985 . S
N2015 C2017 1.356 . S
N2015 H2020 0.984 . S
N2015 H2021 0.985 . S
C2016 C2010 1.379 . S
C2016 C2013 1.363 . S
C2016 N2014 1.356 . S
C2017 C2011 1.363 . S
C2017 C2012 1.379 . S
C2017 N2015 1.356 . S
N2018 C2010 1.356 . S
N2018 H2024 0.984 . S
N2018 H2025 0.984 . S
N2019 C2012 1.356 . S
N2019 H2022 0.984 . S
N2019 H2023 0.985 . S
H2020 N2015 0.984 . S
H2021 N2015 0.985 . S
H2022 N2019 0.984 . S
H2023 N2019 0.985 . S
H2024 N2018 0.984 . S
H2025 N2018 0.984 . S
H2026 N2014 0.984 . S
H2027 N2014 0.985 . S
C2028 C2029 1.363 . S
C2028 C2034 1.379 . S
C2028 N2036 1.356 . S
C2029 C2028 1.363 . S
C2029 C2035 1.363 . S
C2030 C2031 1.363 . S
C2030 C2035 1.379 . S
C2030 N2037 1.356 . S
C2031 C2030 1.363 . S
C2031 C2034 1.363 . S
N2032 C2034 1.356 . S
N2032 H2044 0.984 . S
N2032 H2045 0.985 . S
N2033 C2035 1.356 . S
N2033 H2038 0.984 . S
N2033 H2039 0.985 . S
C2034 C2028 1.379 . S
C2034 C2031 1.363 . S
C2034 N2032 1.356 . S
C2035 C2029 1.363 . S
C2035 C2030 1.379 . S
C2035 N2033 1.356 . S
N2036 C2028 1.356 . S
N2036 H2042 0.984 . S
N2036 H2043 0.984 . S
N2037 C2030 1.356 . S
N2037 H2040 0.984 . S
N2037 H2041 0.985 . S
H2038 N2033 0.984 . S
H2039 N2033 0.985 . S
H2040 N2037 0.984 . S
H2041 N2037 0.985 . S
H2042 N2036 0.984 . S
H2043 N2036 0.984 . S
H2044 N2032 0.984 . S
H2045 N2032 0.985 . S
C2046 C2047 1.363 . S
C2046 C2052 1.379 . S
C2046 N2054 1.356 . S
C2047 C2046 1.363 . S
C2047 C2053 1.363 . S
C2048 C2049 1.363 . S
C2048 C2053 1.379 . S
C2048 N2055 1.356 . S
C2049 C2048 1.363 . S
C2049 C2052 1.363 . S
N2050 C2052 1.356 . S
N2050 H2062 0.984 . S
N2050 H2063 0.985 . S
N2051 C2053 1.356 . S
N2051 H2056 0.984 . S
N2051 H2057 0.985 . S
C2052 C2046 1.379 . S
C2052 C2049 1.363 . S
C2052 N2050 1.356 . S
C2053 C2047 1.363 . S
C2053 C2048 1.379 . S
C2053 N2051 1.356 . S
N2054 C2046 1.356 . S
N2054 H2060 0.984 . S
N2054 H2061 0.984 . S
N2055 C2048 1.356 . S
N2055 H2058 0.984 . S
N2055 H2059 0.985 . S
H2056 N2051 0.984 . S
H2057 N2051 0.985 . S
H2058 N2055 0.984 . S
H2059 N2055 0.985 . S
H2060 N2054 0.984 . S
H2061 N2054 0.984 . S
H2062 N2050 0.984 . S
H2063 N2050 0.985 . S
C771 C498 1.617 . S
C769 C439 1.724 . S
C787 C401 1.878 . S
C789 C492 1.808 . S
C807 C460 1.896 . S
C805 C382 1.987 . S
C823 C420 1.907 . S
C825 C474 1.733 . S
C843 C512 2.017 . S
C841 C306 2.210 . S
C861 C599 1.713 . S
C859 C325 1.732 . S
C877 C344 2.135 . S
C879 C526 2.060 . S
C897 C594 1.576 . S
C895 C363 1.588 . S
C913 C230 2.308 . S
C915 C550 2.154 . S
C933 C605 1.734 . S
C931 C249 1.771 . S
C949 C268 2.211 . S
C951 C544 2.153 . S
C967 C287 1.479 . S
C969 C590 1.409 . S
C987 C646 1.450 . S
C985 C211 1.520 . S
C1003 C173 1.912 . S
C1005 C657 1.850 . S
C1021 C154 1.664 . S
C1023 C642 1.645 . S
C1041 C651 1.777 . S
C1039 C192 1.790 . S
C1057 C78 1.799 . S
C1059 C696 1.755 . S
C1075 C97 1.217 . S
C1077 C755 1.216 . S
C1093 C116 1.913 . S
C1095 C712 1.743 . S
C1111 C135 1.561 . S
C1113 C750 1.537 . S
C1131 C714 1.929 . S
C1129 C2 2.022 . S
C1149 C761 1.104 . S
C1147 C21 1.114 . S
C1165 C40 1.912 . S
C1167 C690 1.761 . S
C1185 C746 1.368 . S
C1183 C59 1.471 . S
C1203 C482 1.600 . S
C1201 C6 1.657 . S
C1219 C30 1.318 . S
C1221 C486 1.261 . S
C1237 C49 1.561 . S
C1239 C506 1.402 . S
C1255 C68 0.981 1_545 S
C1257 C501 0.991 . S
C1273 C82 1.681 . S
C1275 C504 1.621 . S
C1293 C490 1.205 . S
C1291 C106 1.241 . S
C1309 C125 1.466 . S
C1311 C488 1.357 . S
C1329 C495 1.377 . S
C1327 C139 1.429 . S
C1347 C558 1.517 . S
C1345 C63 1.587 . S
C1363 C11 1.616 . S
C1365 C608 1.606 . S
C1383 C556 1.299 . S
C1381 C25 1.351 . S
C1401 C592 1.733 . S
C1399 C44 1.876 . S
C1417 C101 1.431 . S
C1419 C534 1.386 . S
C1437 C610 1.630 . S
C1435 C120 1.740 . S
C1455 C540 1.340 . S
C1453 C144 1.470 . S
C1473 C586 1.485 . S
C1471 C87 1.528 1_455 S
C1491 C578 1.471 . S
C1489 C163 1.470 . S
C1507 C182 1.373 . S
C1509 C602 1.387 . S
C1527 C538 1.421 . S
C1525 C158 1.418 . S
C1545 C564 1.496 1_556 S
C1543 C196 1.562 . S
C1561 C220 1.198 1_554 S
C1563 C542 1.129 . S
C1579 C215 1.626 . S
C1581 C596 1.572 1_556 S
C1599 C553 1.596 . S
C1597 C177 1.596 . S
C1617 C547 1.401 . S
C1615 C201 1.341 . S
C1635 C630 1.814 . S
C1633 C234 1.923 . S
C1653 C662 1.502 . S
C1651 C258 1.503 . S
C1669 C277 1.682 . S
C1671 C616 1.673 . S
C1689 C660 1.155 . S
C1687 C296 1.151 . S
C1707 C648 1.784 . S
C1705 C310 1.857 . S
C1723 C334 1.391 . S
C1725 C644 1.413 . S
C1741 C353 1.637 . S
C1743 C654 1.689 . S
C1761 C638 1.469 . S
C1759 C367 1.576 . S
C1779 C703 1.442 . S
C1777 C291 1.444 . S
C1795 C239 1.519 . S
C1797 C764 1.532 . S
C1815 C698 1.209 . S
C1813 C253 1.185 . S
C1833 C748 1.620 . S
C1831 C272 1.661 . S
C1851 C694 1.276 . S
C1849 C329 1.282 . S
C1867 C348 1.495 . S
C1869 C766 1.475 . S
C1887 C709 1.279 . S
C1885 C372 1.370 . S
C1905 C742 1.381 . S
C1903 C315 1.396 . S
C1923 C734 1.577 . S
C1921 C391 1.582 . S
C1939 C410 1.659 . S
C1941 C758 1.592 . S
C1959 C700 1.645 . S
C1957 C386 1.693 . S
C1975 C424 2.026 . S
C1977 C720 1.842 . S
C1995 C682 1.342 . S
C1993 C448 1.466 . S
C2013 C752 1.701 . S
C2011 C443 1.808 . S
C2031 C668 1.648 . S
C2029 C405 1.718 . S
C2047 C429 1.446 . S
C2049 C706 1.321 . S
