# Generated by pormake.
# Topology tsx, (6,3)-cn, num edge types: 1
# Building blocks:
#     Node 0, Type 0, BuildingBlock: FUNLAD_clean_sbu_0, # of connection points: 6
#     Node 1, Type 0, BuildingBlock: FUNLAD_clean_sbu_0, # of connection points: 6
#     Node 2, Type 1, BuildingBlock: KAKCAD_clean_linker_0, # of connection points: 3
#     Node 3, Type 1, BuildingBlock: KAKCAD_clean_linker_0, # of connection points: 3
#     Node 4, Type 1, BuildingBlock: KAKCAD_clean_linker_0, # of connection points: 3
#     Node 5, Type 1, BuildingBlock: KAKCAD_clean_linker_0, # of connection points: 3
#     Edge 6, Type (0, 1), BuildingBlock: KIFKEQ_clean_linker_1, # of connection points: 2
#     Edge 7, Type (0, 1), BuildingBlock: KIFKEQ_clean_linker_1, # of connection points: 2
#     Edge 8, Type (0, 1), BuildingBlock: KIFKEQ_clean_linker_1, # of connection points: 2
#     Edge 9, Type (0, 1), BuildingBlock: KIFKEQ_clean_linker_1, # of connection points: 2
#     Edge 10, Type (0, 1), BuildingBlock: KIFKEQ_clean_linker_1, # of connection points: 2
#     Edge 11, Type (0, 1), BuildingBlock: KIFKEQ_clean_linker_1, # of connection points: 2
#     Edge 12, Type (0, 1), BuildingBlock: KIFKEQ_clean_linker_1, # of connection points: 2
#     Edge 13, Type (0, 1), BuildingBlock: KIFKEQ_clean_linker_1, # of connection points: 2
#     Edge 14, Type (0, 1), BuildingBlock: KIFKEQ_clean_linker_1, # of connection points: 2
#     Edge 15, Type (0, 1), BuildingBlock: KIFKEQ_clean_linker_1, # of connection points: 2
#     Edge 16, Type (0, 1), BuildingBlock: KIFKEQ_clean_linker_1, # of connection points: 2
#     Edge 17, Type (0, 1), BuildingBlock: KIFKEQ_clean_linker_1, # of connection points: 2
# Relax obj value: 0.164
# Max RMSD: 0.155
# Mean RMSD: 0.089
data_MOF--net-tsx--node1-FUNLAD_clean_sbu_0--node2-KAKCAD_clean_linker_0--edge1-KIFKEQ_clean_linker_1
_symmetry_space_group_name_H-M    P1
_symmetry_Int_Tables_number       1
_symmetry_cell_setting            triclinic
loop_
_symmetry_equiv_pos_as_xyz
'x, y, z'
_cell_length_a     23.736422
_cell_length_b     26.334934
_cell_length_c     50.663001
_cell_angle_alpha  91.370194
_cell_angle_beta   91.917635
_cell_angle_gamma 89.980781
loop_
_atom_site_label
_atom_site_type_symbol
_atom_site_fract_x
_atom_site_fract_y
_atom_site_fract_z
_atom_type_partial_charge
C0 C 0.92636 0.93451 0.00158 0.0
N1 N 0.0084 0.01002 0.06559 0.0
C2 C 0.95864 0.00423 0.07778 0.0
C3 C 0.95757 0.00159 0.10523 0.0
C4 C 0.00806 0.00573 0.12033 0.0
C5 C 0.05869 0.01269 0.10734 0.0
C6 C 0.05796 0.01434 0.07978 0.0
Zn7 Zn 0.00814 0.01032 0.02517 0.0
C8 C 0.08973 0.93603 0.00308 0.0
N9 N 0.00607 0.00864 0.94075 0.0
C10 C 0.9568 0.00249 0.92649 0.0
C11 C 0.05593 0.01428 0.92862 0.0
C12 C 0.05743 0.01449 0.90112 0.0
C13 C 0.00737 0.00766 0.88601 0.0
C14 C 0.95659 0.00132 0.89891 0.0
Zn15 Zn 0.00613 0.00892 0.98113 0.0
O16 O 0.94697 0.95212 0.02337 0.0
C17 C 0.92336 0.08213 0.0029 0.0
O18 O 0.94355 0.95149 0.98003 0.0
H19 H 0.09473 0.01846 0.94025 0.0
H20 H 0.91965 0.00129 0.06618 0.0
H21 H 0.91759 -0.0016 0.93649 0.0
O22 O 0.94278 0.06525 0.02467 0.0
O23 O 0.94312 0.06561 0.98131 0.0
H24 H 0.09707 0.01859 0.06971 0.0
O25 O 0.06902 0.06607 0.98289 0.0
O26 O 0.06903 0.06912 0.0262 0.0
O27 O 0.06834 0.95229 0.98157 0.0
O28 O 0.07336 0.95454 0.02494 0.0
C29 C 0.08783 0.08507 0.00471 0.0
H30 H 0.91761 -0.00326 0.11459 0.0
H31 H 0.09851 0.0157 0.11835 0.0
H32 H 0.0974 0.01905 0.89173 0.0
H33 H 0.91718 -0.00381 0.88776 0.0
C34 C 0.42312 0.43201 0.50164 0.0
N35 N 0.50743 0.50555 0.56589 0.0
C36 C 0.4574 0.50135 0.57805 0.0
C37 C 0.456 0.499 0.60552 0.0
C38 C 0.50646 0.50184 0.62071 0.0
C39 C 0.55743 0.50717 0.60777 0.0
C40 C 0.557 0.50853 0.58018 0.0
Zn41 Zn 0.50724 0.50576 0.52536 0.0
C42 C 0.58675 0.43065 0.50307 0.0
N43 N 0.50435 0.50485 0.4407 0.0
C44 C 0.45526 0.49824 0.42634 0.0
C45 C 0.55431 0.51029 0.42862 0.0
C46 C 0.55614 0.5097 0.40111 0.0
C47 C 0.5063 0.50228 0.3859 0.0
C48 C 0.45538 0.49628 0.39874 0.0
Zn49 Zn 0.50435 0.50535 0.4812 0.0
O50 O 0.4433 0.44977 0.52349 0.0
C51 C 0.42396 0.57974 0.5032 0.0
O52 O 0.44156 0.44812 0.48014 0.0
H53 H 0.593 0.51479 0.44032 0.0
H54 H 0.41839 0.4995 0.56641 0.0
H55 H 0.41595 0.49426 0.43628 0.0
O56 O 0.44431 0.56318 0.52488 0.0
O57 O 0.44184 0.5621 0.48145 0.0
H58 H 0.59634 0.51155 0.57016 0.0
O59 O 0.56712 0.56258 0.48296 0.0
O60 O 0.57146 0.56175 0.52631 0.0
O61 O 0.56656 0.44842 0.48166 0.0
O62 O 0.56973 0.44802 0.52504 0.0
C63 C 0.58866 0.57907 0.5048 0.0
H64 H 0.4158 0.49543 0.61482 0.0
H65 H 0.59724 0.50916 0.61883 0.0
H66 H 0.59624 0.51403 0.39181 0.0
H67 H 0.41609 0.49075 0.38755 0.0
C68 C 0.97791 0.94398 0.33156 0.0
C69 C -0.00311 0.98771 0.31921 0.0
C70 C 0.97514 0.94293 0.35907 0.0
C71 C 0.99037 0.98589 0.37467 0.0
C72 C 0.00915 0.02966 0.36229 0.0
C73 C 0.01279 0.03043 0.33484 0.0
C74 C 0.9866 0.98525 0.40378 0.0
C75 C 0.0106 0.94535 0.4182 0.0
C76 C 0.0092 0.94574 0.44592 0.0
C77 C 0.98185 0.98567 0.45911 0.0
C78 C 0.95685 0.02528 0.44492 0.0
C79 C 0.95995 0.02517 0.4173 0.0
C80 C 0.92634 0.06634 0.45879 0.0
C81 C 0.8843 0.05454 0.4765 0.0
C82 C 0.93668 0.11739 0.45319 0.0
C83 C 0.90404 0.15591 0.46434 0.0
C84 C 0.86005 0.14395 0.48099 0.0
C85 C 0.04048 0.90676 0.46104 0.0
C86 C 0.0367 0.85519 0.45348 0.0
C87 C 0.07848 0.92164 0.48162 0.0
C88 C 0.11484 0.88625 0.49316 0.0
C89 C 0.11353 0.83523 0.48444 0.0
C90 C 0.07274 0.81964 0.4652 0.0
C91 C 0.85117 0.09302 0.48739 0.0
H92 H 0.96571 0.91046 0.31995 0.0
H93 H 0.96032 0.9088 0.36815 0.0
H94 H 0.02152 0.06315 0.3739 0.0
H95 H 0.02721 0.06472 0.32578 0.0
H96 H 0.03273 0.91525 0.40789 0.0
H97 H 0.94037 0.05559 0.40623 0.0
H98 H 0.98074 0.98634 0.48043 0.0
H99 H 0.87537 0.01541 0.48099 0.0
H100 H 0.96921 0.12738 0.43974 0.0
H101 H 0.91144 0.19482 0.4589 0.0
H102 H 0.00731 0.84271 0.43783 0.0
H103 H 0.08248 0.96118 0.48765 0.0
H104 H 0.81762 0.08288 0.50026 0.0
H105 H 0.07104 0.78057 0.45803 0.0
H106 H 0.14567 0.89915 0.50809 0.0
C107 C 0.02665 0.044 0.67341 0.0
C108 C 0.02538 -0.00145 0.68722 0.0
C109 C 0.02769 0.04306 0.64585 0.0
C110 C 0.02872 -0.00346 0.63154 0.0
C111 C 0.02856 0.95105 0.64562 0.0
C112 C 0.02626 0.95209 0.67315 0.0
C113 C 0.02878 -0.00445 0.60209 0.0
C114 C 0.05662 0.03344 0.58848 0.0
C115 C 0.05429 0.03437 0.56072 0.0
C116 C 0.02558 -0.00457 0.5464 0.0
C117 C -0.00118 0.9564 0.55963 0.0
C118 C -0.00015 0.9573 0.58739 0.0
C119 C 0.96782 0.91527 0.54488 0.0
C120 C 0.93017 0.92629 0.52383 0.0
C121 C 0.9724 0.86501 0.55329 0.0
C122 C 0.93739 0.8272 0.54217 0.0
C123 C 0.89736 0.83851 0.52204 0.0
C124 C 0.08173 0.0765 0.54701 0.0
C125 C 0.07837 0.1264 0.55726 0.0
C126 C 0.11323 0.06718 0.52441 0.0
C127 C 0.1425 0.10665 0.51293 0.0
C128 C 0.14123 0.15619 0.52396 0.0
C129 C 0.10801 0.16562 0.54602 0.0
C130 C 0.89562 0.88821 0.51235 0.0
H131 H 0.02553 0.08028 0.68393 0.0
H132 H 0.02654 0.07889 0.63581 0.0
H133 H 0.03055 0.91451 0.63545 0.0
H134 H 0.02582 0.91657 0.6835 0.0
H135 H 0.08085 0.06215 0.5995 0.0
H136 H 0.97645 0.92879 0.59752 0.0
H137 H 0.02372 -0.00433 0.52503 0.0
H138 H 0.92531 0.96482 0.51717 0.0
H139 H 0.00167 0.85526 0.56924 0.0
H140 H 0.93986 0.78974 0.55046 0.0
H141 H 0.05362 0.13506 0.57437 0.0
H142 H 0.11699 0.02912 0.51616 0.0
H143 H 0.86618 0.89821 0.49653 0.0
H144 H 0.10647 0.20296 0.55537 0.0
H145 H 0.16698 0.09809 0.49573 0.0
C146 C 0.47202 0.44267 0.83214 0.0
C147 C 0.49172 0.48619 0.81982 0.0
C148 C 0.46893 0.44163 0.85965 0.0
C149 C 0.48451 0.48442 0.87531 0.0
C150 C 0.50396 0.528 0.86298 0.0
C151 C 0.50796 0.52873 0.83552 0.0
C152 C 0.4805 0.48374 0.90445 0.0
C153 C 0.50414 0.44369 0.91888 0.0
C154 C 0.50266 0.44407 0.94662 0.0
C155 C 0.47543 0.48406 0.95982 0.0
C156 C 0.45096 0.52395 0.94562 0.0
C157 C 0.45419 0.52385 0.91799 0.0
C158 C 0.42133 0.56559 0.9595 0.0
C159 C 0.37942 0.55466 0.97745 0.0
C160 C 0.43259 0.61642 0.95378 0.0
C161 C 0.40102 0.65557 0.96502 0.0
C162 C 0.35717 0.64454 0.98193 0.0
C163 C 0.53413 0.40516 0.96172 0.0
C164 C 0.53023 0.35356 0.95424 0.0
C165 C 0.57274 0.42019 0.98202 0.0
C166 C 0.60958 0.38489 0.99332 0.0
C167 C 0.60823 0.33386 0.98461 0.0
C168 C 0.5668 0.31812 0.9657 0.0
C169 C 0.34733 0.59379 0.98844 0.0
H170 H 0.45953 0.40927 0.82048 0.0
H171 H 0.45361 0.40763 0.86867 0.0
H172 H 0.51662 0.56136 0.87462 0.0
H173 H 0.52297 0.56286 0.82651 0.0
H174 H 0.52615 0.4135 0.90858 0.0
H175 H 0.43505 0.55448 0.90692 0.0
H176 H 0.47413 0.48461 0.98117 0.0
H177 H 0.36984 0.51571 0.98207 0.0
H178 H 0.46508 0.62577 0.94018 0.0
H179 H 0.40916 0.6943 0.95949 0.0
H180 H 0.50042 0.34099 0.93879 0.0
H181 H 0.57693 0.45978 0.98797 0.0
H182 H 0.31389 0.58434 0.0015 0.0
H183 H 0.56501 0.27904 0.95855 0.0
H184 H 0.64087 0.39791 0.00801 0.0
C185 C 0.53509 0.53633 0.17367 0.0
C186 C 0.52994 0.49073 0.1873 0.0
C187 C 0.53793 0.53601 0.14619 0.0
C188 C 0.53706 0.49001 0.13145 0.0
C189 C 0.53329 0.44428 0.14511 0.0
C190 C 0.52929 0.44465 0.17261 0.0
C191 C 0.53801 0.49021 0.10198 0.0
C192 C 0.56753 0.52812 0.08907 0.0
C193 C 0.56367 0.53218 0.06144 0.0
C194 C 0.5316 0.49644 0.04647 0.0
C195 C 0.50401 0.45702 0.05888 0.0
C196 C 0.50698 0.45428 0.08654 0.0
C197 C 0.46867 0.42035 0.04334 0.0
C198 C 0.4237 0.43748 0.02722 0.0
C199 C 0.47647 0.36803 0.04652 0.0
C200 C 0.43799 0.3334 0.03497 0.0
C201 C 0.39069 0.35063 0.02036 0.0
C202 C 0.59187 0.57478 0.04849 0.0
C203 C 0.59158 0.62365 0.06021 0.0
C204 C 0.62006 0.567 0.02476 0.0
C205 C 0.64878 0.60697 0.01346 0.0
C206 C 0.65004 0.65549 0.02571 0.0
C207 C 0.62053 0.66337 0.04907 0.0
C208 C 0.38482 0.40287 0.01589 0.0
H209 H 0.53697 0.5726 0.18417 0.0
H210 H 0.53973 0.57217 0.13653 0.0
H211 H 0.5333 0.408 0.1346 0.0
H212 H 0.52473 0.4087 0.18223 0.0
H213 H 0.59369 0.55474 0.10056 0.0
H214 H 0.48278 0.42537 0.09597 0.0
H215 H 0.5273 0.49965 0.02522 0.0
H216 H 0.41691 0.47775 0.0246 0.0
H217 H 0.51116 0.35411 0.05876 0.0
H218 H 0.44338 0.29339 0.03888 0.0
H219 H 0.56937 0.63118 0.07822 0.0
H220 H 0.62128 0.52973 0.01532 0.0
H221 H 0.34895 0.41707 0.00452 0.0
H222 H 0.62118 0.69992 0.05933 0.0
H223 H 0.67054 0.5997 0.99531 0.0
H224 H 0.15455 0.11185 0.96439 0.0
H225 H 0.11908 0.14908 0.04572 0.0
H226 H 0.22676 0.17823 0.9651 0.0
H227 H 0.19075 0.21561 0.04623 0.0
H228 H 0.2791 0.36343 0.02863 0.0
H229 H 0.20421 0.30029 0.02272 0.0
H230 H 0.32291 0.19325 0.99047 0.0
H231 H 0.39819 0.25665 0.99636 0.0
C232 C 0.162 0.13432 0.98236 0.0
C233 C 0.13117 0.12531 0.00502 0.0
C234 C 0.2034 0.1721 0.98275 0.0
C235 C 0.21398 0.20209 0.00565 0.0
C236 C 0.1829 0.19334 0.02822 0.0
C237 C 0.14217 0.15509 0.02797 0.0
C238 C 0.28896 0.32684 0.01971 0.0
C239 C 0.34441 0.31487 0.01293 0.0
C240 C 0.24625 0.2906 0.0166 0.0
C241 C 0.25801 0.24188 0.00638 0.0
C242 C 0.3128 0.23064 0.99834 0.0
C243 C 0.35579 0.26674 0.00178 0.0
H244 H 0.109 0.87139 0.96184 0.0
H245 H 0.16299 0.90536 0.04268 0.0
H246 H 0.1736 0.79962 0.96056 0.0
H247 H 0.22888 0.83341 0.04107 0.0
H248 H 0.38403 0.7384 0.00325 0.0
H249 H 0.31921 0.80933 0.01136 0.0
H250 H 0.17848 0.71376 0.98679 0.0
H251 H 0.24278 0.64304 0.97886 0.0
C252 C 0.13494 0.86375 0.9793 0.0
C253 C 0.1309 0.89399 0.00238 0.0
C254 C 0.17161 0.82247 0.97859 0.0
C255 C 0.20572 0.81095 0.00078 0.0
C256 C 0.20283 0.84167 0.02374 0.0
C257 C 0.16518 0.88261 0.02464 0.0
C258 C 0.33914 0.73248 1.00002 0.0
C259 C 0.31834 0.68535 0.99039 0.0
C260 C 0.3022 0.77285 0.00477 0.0
C261 C 0.24411 0.76685 0.99952 0.0
C262 C 0.2232 0.71925 0.99086 0.0
C263 C 0.25991 0.67878 0.98651 0.0
H264 H 0.8969 0.86634 0.96189 0.0
H265 H 0.85643 0.91396 0.04125 0.0
H266 H 0.82534 0.79915 0.96297 0.0
H267 H 0.78463 0.84786 0.04201 0.0
H268 H 0.62522 0.75709 0.02435 0.0
H269 H 0.68937 0.82634 0.01513 0.0
H270 H 0.81723 0.7178 0.99388 0.0
H271 H 0.75429 0.64826 0.00415 0.0
C272 C 0.87241 0.86272 0.97941 0.0
C273 C 0.88228 0.89511 0.00154 0.0
C274 C 0.83171 0.82438 0.98001 0.0
C275 C 0.79946 0.81879 0.00249 0.0
C276 C 0.80859 0.85185 0.02434 0.0
C277 C 0.84992 0.88936 0.02397 0.0
C278 C 0.66692 0.74786 0.01763 0.0
C279 C 0.68492 0.69706 0.01548 0.0
C280 C 0.70338 0.78751 0.01221 0.0
C281 C 0.75817 0.77718 0.00404 0.0
C282 C 0.77497 0.72659 1.00002 0.0
C283 C 0.73878 0.68683 0.00582 0.0
H284 H 0.8481 0.10295 0.04139 0.0
H285 H 0.89547 0.14698 0.96355 0.0
H286 H 0.77098 0.16499 0.04005 0.0
H287 H 0.81935 0.20939 0.96256 0.0
H288 H 0.72053 0.35258 0.98442 0.0
H289 H 0.7975 0.29231 0.99122 0.0
H290 H 0.67762 0.17543 0.00832 0.0
H291 H 0.60001 0.23587 0.00126 0.0
C292 C 0.84229 0.1261 0.02412 0.0
C293 C 0.87776 0.12024 0.00257 0.0
C294 C 0.79812 0.1613 0.02334 0.0
C295 C 0.78961 0.19191 0.00127 0.0
C296 C 0.82544 0.18643 0.97989 0.0
C297 C 0.86877 0.15062 0.98042 0.0
C298 C 0.71061 0.31434 0.99018 0.0
C299 C 0.65435 0.29884 0.99237 0.0
C300 C 0.7546 0.27984 0.99385 0.0
C301 C 0.74327 0.22935 1.00013 0.0
C302 C 0.68727 0.21429 0.00357 0.0
C303 C 0.64304 0.24868 0.99946 0.0
H304 H 0.61141 0.64656 0.46652 0.0
H305 H 0.66916 0.59694 0.54348 0.0
H306 H 0.68791 0.70917 0.46687 0.0
H307 H 0.74634 0.65854 0.54338 0.0
H308 H 0.91027 0.73493 0.51644 0.0
H309 H 0.83569 0.67145 0.5106 0.0
H310 H 0.71234 0.79038 0.50111 0.0
H311 H 0.78578 0.85423 0.50854 0.0
C312 C 0.64057 0.6489 0.48342 0.0
C313 C 0.63431 0.61709 0.50503 0.0
C314 C 0.68414 0.68463 0.48358 0.0
C315 C 0.72294 0.68815 0.50505 0.0
C316 C 0.71709 0.65605 0.52651 0.0
C317 C 0.6728 0.62118 0.52664 0.0
C318 C 0.86732 0.74777 0.51316 0.0
C319 C 0.85419 0.79994 0.51342 0.0
C320 C 0.8248 0.71135 0.50967 0.0
C321 C 0.76853 0.72629 0.50566 0.0
C322 C 0.75561 0.77809 0.50409 0.0
C323 C 0.79791 0.8146 0.50815 0.0
H324 H 0.65964 0.3994 0.54256 0.0
H325 H 0.60665 0.36713 0.46143 0.0
H326 H 0.72674 0.32849 0.54051 0.0
H327 H 0.67255 0.29628 0.45969 0.0
H328 H 0.74582 0.1404 0.47707 0.0
H329 H 0.67964 0.20967 0.48506 0.0
H330 H 0.81759 0.30739 0.51097 0.0
H331 H 0.88427 0.23792 0.5028 0.0
C332 C 0.66225 0.37717 0.52438 0.0
C333 C 0.62798 0.38875 0.50215 0.0
C334 C 0.70061 0.33683 0.52322 0.0
C335 C 0.70426 0.30693 0.50002 0.0
C336 C 0.67 0.31853 0.47788 0.0
C337 C 0.63259 0.35926 0.47886 0.0
C338 C 0.76192 0.17631 0.485 0.0
C339 C 0.8201 0.18392 0.48929 0.0
C340 C 0.72415 0.21595 0.48938 0.0
C341 C 0.74375 0.26371 0.49847 0.0
C342 C 0.80159 0.27074 0.50405 0.0
C343 C 0.8396 0.23123 0.49927 0.0
H344 H 0.39536 0.36254 0.46238 0.0
H345 H 0.34994 0.41408 0.54045 0.0
H346 H 0.32296 0.29608 0.46316 0.0
H347 H 0.2771 0.3487 0.54085 0.0
H348 H 0.11721 0.2579 0.52038 0.0
H349 H 0.18299 0.32635 0.51192 0.0
H350 H 0.31271 0.21634 0.49571 0.0
H351 H 0.24828 0.14769 0.50545 0.0
C352 C 0.36958 0.35996 0.47954 0.0
C353 C 0.37834 0.39321 0.50141 0.0
C354 C 0.32838 0.32203 0.47997 0.0
C355 C 0.29449 0.31772 0.50198 0.0
C356 C 0.30241 0.3517 0.52355 0.0
C357 C 0.34429 0.38879 0.52338 0.0
C358 C 0.15969 0.24813 0.51499 0.0
C359 C 0.17761 0.19716 0.51408 0.0
C360 C 0.1971 0.28734 0.50998 0.0
C361 C 0.25278 0.27639 0.50338 0.0
C362 C 0.26976 0.22559 0.50062 0.0
C363 C 0.23266 0.18631 0.50609 0.0
H364 H 0.39688 0.64494 0.46396 0.0
H365 H 0.35035 0.60238 0.54216 0.0
H366 H 0.32212 0.70865 0.46322 0.0
H367 H 0.27446 0.66572 0.54106 0.0
H368 H 0.10382 0.73753 0.50127 0.0
H369 H 0.18066 0.67651 0.50884 0.0
H370 H 0.30222 0.79234 0.49232 0.0
H371 H 0.226 0.85322 0.48505 0.0
C372 C 0.37066 0.64921 0.48097 0.0
C373 C 0.37944 0.61883 0.50313 0.0
C374 C 0.32813 0.68576 0.48058 0.0
C375 C 0.29287 0.69198 0.50211 0.0
C376 C 0.30121 0.66146 0.52424 0.0
C377 C 0.34465 0.62553 0.52488 0.0
C378 C 0.14705 0.75 0.49973 0.0
C379 C 0.15908 0.8 0.49263 0.0
C380 C 0.19083 0.71529 0.50415 0.0
C381 C 0.24707 0.7299 0.501 0.0
C382 C 0.25911 0.78026 0.49476 0.0
C383 C 0.21556 0.81509 0.49081 0.0
H384 H 0.95684 0.93404 0.14909 0.0
H385 H 0.05871 0.06951 0.15714 0.0
H386 H 0.95597 0.92798 0.19699 0.0
H387 H 0.05604 0.06508 0.20512 0.0
H388 H 0.08483 0.01822 0.29012 0.0
H389 H 0.08917 0.02093 0.24214 0.0
H390 H 0.91782 0.96513 0.23479 0.0
H391 H 0.91484 0.96048 0.2827 0.0
C392 C 0.97858 0.96282 0.1612 0.0
C393 C 0.00778 0.00226 0.14947 0.0
C394 C 0.9779 0.95956 0.18868 0.0
C395 C 0.00572 -0.00384 0.2051 0.0
C396 C 0.03496 0.03566 0.19322 0.0
C397 C 0.03632 0.03843 0.16572 0.0
C398 C 0.04823 0.00653 0.27814 0.0
C399 C -0.00044 0.98906 0.29006 0.0
C400 C 0.0505 0.00831 0.25065 0.0
C401 C 0.0038 0.99337 0.23443 0.0
C402 C 0.95504 0.97601 0.2465 0.0
C403 C 0.95313 0.97353 0.27398 0.0
H404 H 0.04725 0.08083 0.85469 0.0
H405 H 0.9701 0.93255 0.85209 0.0
H406 H 0.04967 0.07967 0.80661 0.0
H407 H 0.97556 0.92935 0.8041 0.0
H408 H 0.94547 0.95594 0.7168 0.0
H409 H 0.93887 0.95967 0.76474 0.0
H410 H 0.0948 0.04507 0.77078 0.0
H411 H 0.09875 0.04381 0.72275 0.0
C412 C 0.0313 0.04778 0.84369 0.0
C413 C 0.00839 0.00685 0.8569 0.0
C414 C 0.03306 0.04679 0.81615 0.0
C415 C 0.0131 0.00426 0.80124 0.0
C416 C 0.99033 0.96321 0.8147 0.0
C417 C 0.98746 0.96476 0.84221 0.0
C418 C 0.97812 0.97549 0.72854 0.0
C419 C 0.02252 -0.00034 0.71628 0.0
C420 C 0.97469 0.97741 0.75602 0.0
C421 C 0.01634 0.00264 0.77187 0.0
C422 C 0.0612 0.02626 0.75937 0.0
C423 C 0.06387 0.02525 0.73186 0.0
H424 H 0.55875 0.56471 0.65752 0.0
H425 H 0.45262 0.43192 0.64961 0.0
H426 H 0.55514 0.56111 0.7055 0.0
H427 H 0.45087 0.42654 0.69751 0.0
H428 H 0.40977 0.45998 0.78303 0.0
H429 H 0.41359 0.46422 0.73514 0.0
H430 H 0.58581 0.51768 0.74298 0.0
H431 H 0.58058 0.51552 0.79093 0.0
C432 C 0.53523 0.53437 0.66613 0.0
C433 C 0.50577 0.49875 0.64989 0.0
C434 C 0.53332 0.53206 0.69365 0.0
C435 C 0.50262 0.49353 0.70559 0.0
C436 C 0.47392 0.45744 0.68918 0.0
C437 C 0.47512 0.46028 0.66169 0.0
C438 C 0.44842 0.47246 0.77442 0.0
C439 C 0.49483 0.48747 0.79065 0.0
C440 C 0.45083 0.47469 0.74694 0.0
C441 C 0.5001 0.49122 0.73497 0.0
C442 C 0.54675 0.5057 0.75135 0.0
C443 C 0.54397 0.50422 0.77886 0.0
H444 H 0.46749 0.42691 0.35229 0.0
H445 H 0.54871 0.57359 0.35407 0.0
H446 H 0.47267 0.42301 0.30394 0.0
H447 H 0.5526 0.57027 0.30573 0.0
H448 H 0.4772 0.56204 0.21844 0.0
H449 H 0.47181 0.56494 0.26638 0.0
H450 H 0.5616 0.42294 0.27088 0.0
H451 H 0.57049 0.42107 0.223 0.0
C452 C 0.486 0.45839 0.34226 0.0
C453 C 0.50772 0.50055 0.35674 0.0
C454 C 0.48922 0.45605 0.31474 0.0
C455 C 0.51301 0.49635 0.30127 0.0
C456 C 0.53389 0.53885 0.31573 0.0
C457 C 0.53184 0.54067 0.34327 0.0
C458 C 0.49684 0.53177 0.22952 0.0
C459 C 0.52477 0.4915 0.21661 0.0
C460 C 0.49324 0.53335 0.25699 0.0
C461 C 0.51627 0.49417 0.27217 0.0
C462 C 0.54312 0.45338 0.25948 0.0
C463 C 0.54783 0.45227 0.23202 0.0
loop_
_geom_bond_atom_site_label_1
_geom_bond_atom_site_label_2
_geom_bond_distance
_geom_bond_site_symmetry_2
_ccdc_geom_bond_type
C0 O16 1.251 . S
C0 O18 1.254 1_554 S
N1 C2 1.333 1_445 S
N1 C6 1.307 . S
N1 Zn7 2.020 . S
C2 N1 1.333 1_665 S
C2 C3 1.379 . S
C2 H20 0.952 . S
C3 C2 1.379 . S
C3 C4 1.390 1_665 S
C3 H30 0.949 . S
C4 C3 1.390 1_445 S
C4 C5 1.357 . S
C5 C4 1.357 . S
C5 C6 1.370 . S
C5 H31 0.950 . S
C6 N1 1.307 . S
C6 C5 1.370 . S
C6 H24 0.948 . S
Zn7 N1 2.020 . S
Zn7 O16 2.039 1_445 S
Zn7 O22 2.034 1_455 S
Zn7 O26 2.025 . S
Zn7 O28 2.024 1_545 S
C8 O27 1.246 1_554 S
C8 O28 1.249 . S
N9 C10 1.307 1_445 S
N9 C11 1.333 . S
N9 Zn15 2.020 . S
C10 N9 1.307 1_665 S
C10 C14 1.370 . S
C10 H21 0.948 . S
C11 N9 1.333 . S
C11 C12 1.379 . S
C11 H19 0.952 . S
C12 C11 1.379 . S
C12 C13 1.390 . S
C12 H32 0.949 . S
C13 C12 1.390 . S
C13 C14 1.357 1_445 S
C14 C10 1.370 . S
C14 C13 1.357 1_665 S
C14 H33 0.950 . S
Zn15 N9 2.020 . S
Zn15 O18 2.025 1_445 S
Zn15 O23 2.024 1_455 S
Zn15 O25 2.039 . S
Zn15 O27 2.034 1_545 S
O16 C0 1.251 . S
O16 Zn7 2.039 1_665 S
C17 O22 1.246 . S
C17 O23 1.249 1_554 S
O18 C0 1.254 1_556 S
O18 Zn15 2.025 1_665 S
H19 C11 0.952 . S
H20 C2 0.952 . S
H21 C10 0.948 . S
O22 Zn7 2.034 1_655 S
O22 C17 1.246 . S
O23 Zn15 2.024 1_655 S
O23 C17 1.249 1_556 S
H24 C6 0.948 . S
O25 Zn15 2.039 . S
O25 C29 1.251 1_556 S
O26 Zn7 2.025 . S
O26 C29 1.254 . S
O27 C8 1.246 1_556 S
O27 Zn15 2.034 1_565 S
O28 Zn7 2.024 1_565 S
O28 C8 1.249 . S
C29 O25 1.251 1_554 S
C29 O26 1.254 . S
H30 C3 0.949 . S
H31 C5 0.950 . S
H32 C12 0.949 . S
H33 C14 0.950 . S
C34 O50 1.251 . S
C34 O52 1.254 . S
N35 C36 1.333 . S
N35 C40 1.307 . S
N35 Zn41 2.020 . S
C36 N35 1.333 . S
C36 C37 1.379 . S
C36 H54 0.952 . S
C37 C36 1.379 . S
C37 C38 1.390 . S
C37 H64 0.949 . S
C38 C37 1.390 . S
C38 C39 1.357 . S
C39 C38 1.357 . S
C39 C40 1.370 . S
C39 H65 0.950 . S
C40 N35 1.307 . S
C40 C39 1.370 . S
C40 H58 0.948 . S
Zn41 N35 2.020 . S
Zn41 O50 2.039 . S
Zn41 O56 2.034 . S
Zn41 O60 2.025 . S
Zn41 O62 2.024 . S
C42 O61 1.246 . S
C42 O62 1.249 . S
N43 C44 1.307 . S
N43 C45 1.333 . S
N43 Zn49 2.020 . S
C44 N43 1.307 . S
C44 C48 1.370 . S
C44 H55 0.948 . S
C45 N43 1.333 . S
C45 C46 1.379 . S
C45 H53 0.952 . S
C46 C45 1.379 . S
C46 C47 1.390 . S
C46 H66 0.949 . S
C47 C46 1.390 . S
C47 C48 1.357 . S
C48 C44 1.370 . S
C48 C47 1.357 . S
C48 H67 0.950 . S
Zn49 N43 2.020 . S
Zn49 O52 2.025 . S
Zn49 O57 2.024 . S
Zn49 O59 2.039 . S
Zn49 O61 2.034 . S
O50 C34 1.251 . S
O50 Zn41 2.039 . S
C51 O56 1.246 . S
C51 O57 1.249 . S
O52 C34 1.254 . S
O52 Zn49 2.025 . S
H53 C45 0.952 . S
H54 C36 0.952 . S
H55 C44 0.948 . S
O56 Zn41 2.034 . S
O56 C51 1.246 . S
O57 Zn49 2.024 . S
O57 C51 1.249 . S
H58 C40 0.948 . S
O59 Zn49 2.039 . S
O59 C63 1.251 . S
O60 Zn41 2.025 . S
O60 C63 1.254 . S
O61 C42 1.246 . S
O61 Zn49 2.034 . S
O62 Zn41 2.024 . S
O62 C42 1.249 . S
C63 O59 1.251 . S
C63 O60 1.254 . S
H64 C37 0.949 . S
H65 C39 0.950 . S
H66 C46 0.949 . S
H67 C48 0.950 . S
C68 C69 1.386 1_565 S
C68 C70 1.397 . S
C68 H92 0.931 . S
C69 C68 1.386 1_545 S
C69 C73 1.397 1_655 S
C70 C68 1.397 . S
C70 C71 1.385 1_655 S
C70 H93 0.930 . S
C71 C70 1.385 1_455 S
C71 C72 1.378 1_565 S
C71 C74 1.480 . S
C72 C71 1.378 1_545 S
C72 C73 1.389 . S
C72 H94 0.929 . S
C73 C69 1.397 1_455 S
C73 C72 1.389 . S
C73 H95 0.931 . S
C74 C71 1.480 . S
C74 C75 1.388 . S
C74 C79 1.389 1_465 S
C75 C74 1.388 . S
C75 C76 1.401 . S
C75 H96 0.930 . S
C76 C75 1.401 . S
C76 C77 1.370 1_455 S
C76 C85 1.511 . S
C77 C76 1.370 1_655 S
C77 C78 1.398 1_565 S
C77 H98 0.932 . S
C78 C77 1.398 1_545 S
C78 C79 1.361 . S
C78 C80 1.500 . S
C79 C74 1.389 1_645 S
C79 C78 1.361 . S
C79 H97 0.931 . S
C80 C78 1.500 . S
C80 C81 1.371 . S
C80 C82 1.365 . S
C81 C80 1.371 . S
C81 C91 1.386 . S
C81 H99 0.931 . S
C82 C80 1.365 . S
C82 C83 1.409 . S
C82 H100 0.929 . S
C83 C82 1.409 . S
C83 C84 1.380 . S
C83 H101 0.930 . S
C84 C83 1.380 . S
C84 C91 1.357 . S
C85 C76 1.511 . S
C85 C86 1.341 . S
C85 C87 1.371 . S
C86 C85 1.341 . S
C86 C90 1.394 . S
C86 H102 0.930 . S
C87 C85 1.371 . S
C87 C88 1.392 . S
C87 H103 0.931 . S
C88 C87 1.392 . S
C88 C89 1.331 . S
C88 H106 0.932 . S
C89 C88 1.331 . S
C89 C90 1.336 . S
C90 C86 1.394 . S
C90 C89 1.336 . S
C90 H105 0.929 . S
C91 C81 1.386 . S
C91 C84 1.357 . S
C91 H104 0.928 . S
H92 C68 0.931 . S
H93 C70 0.930 . S
H94 C72 0.929 . S
H95 C73 0.931 . S
H96 C75 0.930 . S
H97 C79 0.931 . S
H98 C77 0.932 . S
H99 C81 0.931 . S
H100 C82 0.929 . S
H101 C83 0.930 . S
H102 C86 0.930 . S
H103 C87 0.931 . S
H104 C91 0.928 . S
H105 C90 0.929 . S
H106 C88 0.932 . S
C107 C108 1.386 . S
C107 C109 1.397 . S
C107 H131 0.931 . S
C108 C107 1.386 . S
C108 C112 1.397 1_545 S
C109 C107 1.397 . S
C109 C110 1.384 . S
C109 H132 0.930 . S
C110 C109 1.384 . S
C110 C111 1.377 1_545 S
C110 C113 1.481 . S
C111 C110 1.377 1_565 S
C111 C112 1.389 . S
C111 H133 0.929 . S
C112 C108 1.397 1_565 S
C112 C111 1.389 . S
C112 H134 0.931 . S
C113 C110 1.481 . S
C113 C114 1.387 . S
C113 C118 1.390 1_445 S
C114 C113 1.387 . S
C114 C115 1.401 . S
C114 H135 0.930 . S
C115 C114 1.401 . S
C115 C116 1.376 . S
C115 C124 1.511 . S
C116 C115 1.376 . S
C116 C117 1.392 1_445 S
C116 H137 0.931 . S
C117 C116 1.392 1_665 S
C117 C118 1.361 . S
C117 C119 1.500 . S
C118 C113 1.390 1_665 S
C118 C117 1.361 . S
C118 H136 0.931 . S
C119 C117 1.500 . S
C119 C120 1.371 . S
C119 C121 1.365 . S
C120 C119 1.371 . S
C120 C130 1.386 . S
C120 H138 0.931 . S
C121 C119 1.365 . S
C121 C122 1.409 . S
C121 H139 0.929 . S
C122 C121 1.409 . S
C122 C123 1.380 . S
C122 H140 0.930 . S
C123 C122 1.380 . S
C123 C130 1.357 . S
C124 C115 1.511 . S
C124 C125 1.341 . S
C124 C126 1.371 . S
C125 C124 1.341 . S
C125 C129 1.394 . S
C125 H141 0.930 . S
C126 C124 1.371 . S
C126 C127 1.392 . S
C126 H142 0.931 . S
C127 C126 1.392 . S
C127 C128 1.331 . S
C127 H145 0.932 . S
C128 C127 1.331 . S
C128 C129 1.336 . S
C129 C125 1.394 . S
C129 C128 1.336 . S
C129 H144 0.929 . S
C130 C120 1.386 . S
C130 C123 1.357 . S
C130 H143 0.928 . S
H131 C107 0.931 . S
H132 C109 0.930 . S
H133 C111 0.929 . S
H134 C112 0.931 . S
H135 C114 0.930 . S
H136 C118 0.931 . S
H137 C116 0.931 . S
H138 C120 0.931 . S
H139 C121 0.929 . S
H140 C122 0.930 . S
H141 C125 0.930 . S
H142 C126 0.931 . S
H143 C130 0.928 . S
H144 C129 0.929 . S
H145 C127 0.932 . S
C146 C147 1.386 . S
C146 C148 1.397 . S
C146 H170 0.931 . S
C147 C146 1.386 . S
C147 C151 1.397 . S
C148 C146 1.397 . S
C148 C149 1.384 . S
C148 H171 0.930 . S
C149 C148 1.384 . S
C149 C150 1.377 . S
C149 C152 1.481 . S
C150 C149 1.377 . S
C150 C151 1.389 . S
C150 H172 0.929 . S
C151 C147 1.397 . S
C151 C150 1.389 . S
C151 H173 0.931 . S
C152 C149 1.481 . S
C152 C153 1.387 . S
C152 C157 1.390 . S
C153 C152 1.387 . S
C153 C154 1.401 . S
C153 H174 0.930 . S
C154 C153 1.401 . S
C154 C155 1.376 . S
C154 C163 1.511 . S
C155 C154 1.376 . S
C155 C156 1.392 . S
C155 H176 0.931 . S
C156 C155 1.392 . S
C156 C157 1.361 . S
C156 C158 1.500 . S
C157 C152 1.390 . S
C157 C156 1.361 . S
C157 H175 0.931 . S
C158 C156 1.500 . S
C158 C159 1.371 . S
C158 C160 1.365 . S
C159 C158 1.371 . S
C159 C169 1.386 1_556 S
C159 H177 0.931 . S
C160 C158 1.365 . S
C160 C161 1.409 . S
C160 H178 0.929 . S
C161 C160 1.409 . S
C161 C162 1.380 . S
C161 H179 0.930 . S
C162 C161 1.380 . S
C162 C169 1.357 1_556 S
C163 C154 1.511 . S
C163 C164 1.341 . S
C163 C165 1.371 . S
C164 C163 1.341 . S
C164 C168 1.394 . S
C164 H180 0.930 . S
C165 C163 1.371 . S
C165 C166 1.392 1_556 S
C165 H181 0.931 1_556 S
C166 C165 1.392 1_554 S
C166 C167 1.331 1_554 S
C166 H184 0.932 . S
C167 C166 1.331 1_556 S
C167 C168 1.336 . S
C168 C164 1.394 . S
C168 C167 1.336 . S
C168 H183 0.929 . S
C169 C159 1.386 1_554 S
C169 C162 1.357 1_554 S
C169 H182 0.928 . S
H170 C146 0.931 . S
H171 C148 0.930 . S
H172 C150 0.929 . S
H173 C151 0.931 . S
H174 C153 0.930 . S
H175 C157 0.931 . S
H176 C155 0.931 . S
H177 C159 0.931 . S
H178 C160 0.929 . S
H179 C161 0.930 . S
H180 C164 0.930 . S
H181 C165 0.931 1_554 S
H182 C169 0.928 . S
H183 C168 0.929 . S
H184 C166 0.932 . S
C185 C186 1.386 . S
C185 C187 1.397 . S
C185 H209 0.931 . S
C186 C185 1.386 . S
C186 C190 1.397 . S
C187 C185 1.397 . S
C187 C188 1.384 . S
C187 H210 0.930 . S
C188 C187 1.384 . S
C188 C189 1.377 . S
C188 C191 1.481 . S
C189 C188 1.377 . S
C189 C190 1.389 . S
C189 H211 0.929 . S
C190 C186 1.397 . S
C190 C189 1.389 . S
C190 H212 0.931 . S
C191 C188 1.481 . S
C191 C192 1.387 . S
C191 C196 1.390 . S
C192 C191 1.387 . S
C192 C193 1.401 . S
C192 H213 0.930 . S
C193 C192 1.401 . S
C193 C194 1.376 . S
C193 C202 1.511 . S
C194 C193 1.376 . S
C194 C195 1.392 . S
C194 H215 0.931 . S
C195 C194 1.392 . S
C195 C196 1.361 . S
C195 C197 1.500 . S
C196 C191 1.390 . S
C196 C195 1.361 . S
C196 H214 0.931 . S
C197 C195 1.500 . S
C197 C198 1.371 . S
C197 C199 1.365 . S
C198 C197 1.371 . S
C198 C208 1.386 . S
C198 H216 0.931 . S
C199 C197 1.365 . S
C199 C200 1.409 . S
C199 H217 0.929 . S
C200 C199 1.409 . S
C200 C201 1.380 . S
C200 H218 0.930 . S
C201 C200 1.380 . S
C201 C208 1.357 . S
C202 C193 1.511 . S
C202 C203 1.341 . S
C202 C204 1.371 . S
C203 C202 1.341 . S
C203 C207 1.394 . S
C203 H219 0.930 . S
C204 C202 1.371 . S
C204 C205 1.392 . S
C204 H220 0.931 . S
C205 C204 1.392 . S
C205 C206 1.331 . S
C205 H223 0.932 1_554 S
C206 C205 1.331 . S
C206 C207 1.336 . S
C207 C203 1.394 . S
C207 C206 1.336 . S
C207 H222 0.929 . S
C208 C198 1.386 . S
C208 C201 1.357 . S
C208 H221 0.928 1_554 S
H209 C185 0.931 . S
H210 C187 0.930 . S
H211 C189 0.929 . S
H212 C190 0.931 . S
H213 C192 0.930 . S
H214 C196 0.931 . S
H215 C194 0.931 . S
H216 C198 0.931 . S
H217 C199 0.929 . S
H218 C200 0.930 . S
H219 C203 0.930 . S
H220 C204 0.931 . S
H221 C208 0.928 1_556 S
H222 C207 0.929 . S
H223 C205 0.932 1_556 S
H224 C232 0.950 . S
H225 C237 0.950 . S
H226 C234 0.950 . S
H227 C236 0.950 . S
H228 C238 0.950 . S
H229 C240 0.950 . S
H230 C242 0.950 . S
H231 C243 0.950 . S
C232 H224 0.950 . S
C232 C233 1.386 1_556 S
C232 C234 1.391 . S
C233 C232 1.386 1_554 S
C233 C237 1.393 . S
C234 H226 0.950 . S
C234 C232 1.391 . S
C234 C235 1.400 1_556 S
C235 C234 1.400 1_554 S
C235 C236 1.398 . S
C235 C241 1.491 . S
C236 H227 0.950 . S
C236 C235 1.398 . S
C236 C237 1.391 . S
C237 H225 0.950 . S
C237 C233 1.393 . S
C237 C236 1.391 . S
C238 H228 0.950 . S
C238 C239 1.386 . S
C238 C240 1.391 . S
C239 C238 1.386 . S
C239 C243 1.393 1_554 S
C240 H229 0.950 . S
C240 C238 1.391 . S
C240 C241 1.400 . S
C241 C235 1.491 . S
C241 C240 1.400 . S
C241 C242 1.398 1_554 S
C242 H230 0.950 . S
C242 C241 1.398 1_556 S
C242 C243 1.391 . S
C243 H231 0.950 . S
C243 C239 1.393 1_556 S
C243 C242 1.391 . S
H244 C252 0.950 . S
H245 C257 0.950 . S
H246 C254 0.950 . S
H247 C256 0.950 . S
H248 C258 0.950 . S
H249 C260 0.950 . S
H250 C262 0.950 . S
H251 C263 0.950 . S
C252 H244 0.950 . S
C252 C253 1.386 1_556 S
C252 C254 1.391 . S
C253 C252 1.386 1_554 S
C253 C257 1.393 . S
C254 H246 0.950 . S
C254 C252 1.391 . S
C254 C255 1.376 1_556 S
C255 C254 1.376 1_554 S
C255 C256 1.424 . S
C255 C261 1.490 1_554 S
C256 H247 0.950 . S
C256 C255 1.424 . S
C256 C257 1.391 . S
C257 H245 0.950 . S
C257 C253 1.393 . S
C257 C256 1.391 . S
C258 H248 0.950 . S
C258 C259 1.386 1_554 S
C258 C260 1.391 . S
C259 C258 1.386 1_556 S
C259 C263 1.393 . S
C260 H249 0.950 . S
C260 C258 1.391 . S
C260 C261 1.392 1_554 S
C261 C255 1.490 1_556 S
C261 C260 1.392 1_556 S
C261 C262 1.407 . S
C262 H250 0.950 . S
C262 C261 1.407 . S
C262 C263 1.391 . S
C263 H251 0.950 . S
C263 C259 1.393 . S
C263 C262 1.391 . S
H264 C272 0.950 . S
H265 C277 0.950 . S
H266 C274 0.950 . S
H267 C276 0.950 . S
H268 C278 0.950 . S
H269 C280 0.950 . S
H270 C282 0.950 . S
H271 C283 0.950 . S
C272 H264 0.950 . S
C272 C273 1.386 1_556 S
C272 C274 1.391 . S
C273 C272 1.386 1_554 S
C273 C277 1.393 . S
C274 H266 0.950 . S
C274 C272 1.391 . S
C274 C275 1.400 1_556 S
C275 C274 1.400 1_554 S
C275 C276 1.398 . S
C275 C281 1.491 . S
C276 H267 0.950 . S
C276 C275 1.398 . S
C276 C277 1.391 . S
C277 H265 0.950 . S
C277 C273 1.393 . S
C277 C276 1.391 . S
C278 H268 0.950 . S
C278 C279 1.386 . S
C278 C280 1.391 . S
C279 C278 1.386 . S
C279 C283 1.393 1_554 S
C280 H269 0.950 . S
C280 C278 1.391 . S
C280 C281 1.400 . S
C281 C275 1.491 . S
C281 C280 1.400 . S
C281 C282 1.398 1_554 S
C282 H270 0.950 . S
C282 C281 1.398 1_556 S
C282 C283 1.391 . S
C283 H271 0.950 . S
C283 C279 1.393 1_556 S
C283 C282 1.391 . S
H284 C292 0.950 . S
H285 C297 0.950 . S
H286 C294 0.950 . S
H287 C296 0.950 . S
H288 C298 0.950 . S
H289 C300 0.950 . S
H290 C302 0.950 . S
H291 C303 0.950 . S
C292 H284 0.950 . S
C292 C293 1.386 . S
C292 C294 1.391 . S
C293 C292 1.386 . S
C293 C297 1.393 1_554 S
C294 H286 0.950 . S
C294 C292 1.391 . S
C294 C295 1.400 . S
C295 C294 1.400 . S
C295 C296 1.398 1_554 S
C295 C301 1.491 . S
C296 H287 0.950 . S
C296 C295 1.398 1_556 S
C296 C297 1.391 . S
C297 H285 0.950 . S
C297 C293 1.393 1_556 S
C297 C296 1.391 . S
C298 H288 0.950 . S
C298 C299 1.380 1_556 S
C298 C300 1.391 . S
C299 C298 1.380 1_554 S
C299 C303 1.399 . S
C300 H289 0.950 . S
C300 C298 1.391 . S
C300 C301 1.400 1_556 S
C301 C295 1.491 . S
C301 C300 1.400 1_554 S
C301 C302 1.398 . S
C302 H290 0.950 . S
C302 C301 1.398 . S
C302 C303 1.391 . S
C303 H291 0.950 . S
C303 C299 1.399 . S
C303 C302 1.391 . S
H304 C312 0.950 . S
H305 C317 0.950 . S
H306 C314 0.950 . S
H307 C316 0.950 . S
H308 C318 0.950 . S
H309 C320 0.950 . S
H310 C322 0.950 . S
H311 C323 0.950 . S
C312 H304 0.950 . S
C312 C313 1.386 . S
C312 C314 1.391 . S
C313 C312 1.386 . S
C313 C317 1.393 . S
C314 H306 0.950 . S
C314 C312 1.391 . S
C314 C315 1.400 . S
C315 C314 1.400 . S
C315 C316 1.398 . S
C315 C321 1.491 . S
C316 H307 0.950 . S
C316 C315 1.398 . S
C316 C317 1.391 . S
C317 H305 0.950 . S
C317 C313 1.393 . S
C317 C316 1.391 . S
C318 H308 0.950 . S
C318 C319 1.386 . S
C318 C320 1.391 . S
C319 C318 1.386 . S
C319 C323 1.393 . S
C320 H309 0.950 . S
C320 C318 1.391 . S
C320 C321 1.400 . S
C321 C315 1.491 . S
C321 C320 1.400 . S
C321 C322 1.398 . S
C322 H310 0.950 . S
C322 C321 1.398 . S
C322 C323 1.391 . S
C323 H311 0.950 . S
C323 C319 1.393 . S
C323 C322 1.391 . S
H324 C332 0.950 . S
H325 C337 0.950 . S
H326 C334 0.950 . S
H327 C336 0.950 . S
H328 C338 0.950 . S
H329 C340 0.950 . S
H330 C342 0.950 . S
H331 C343 0.950 . S
C332 H324 0.950 . S
C332 C333 1.386 . S
C332 C334 1.391 . S
C333 C332 1.386 . S
C333 C337 1.393 . S
C334 H326 0.950 . S
C334 C332 1.391 . S
C334 C335 1.400 . S
C335 C334 1.400 . S
C335 C336 1.398 . S
C335 C341 1.491 . S
C336 H327 0.950 . S
C336 C335 1.398 . S
C336 C337 1.391 . S
C337 H325 0.950 . S
C337 C333 1.393 . S
C337 C336 1.391 . S
C338 H328 0.950 . S
C338 C339 1.386 . S
C338 C340 1.391 . S
C339 C338 1.386 . S
C339 C343 1.393 . S
C340 H329 0.950 . S
C340 C338 1.391 . S
C340 C341 1.400 . S
C341 C335 1.491 . S
C341 C340 1.400 . S
C341 C342 1.398 . S
C342 H330 0.950 . S
C342 C341 1.398 . S
C342 C343 1.391 . S
C343 H331 0.950 . S
C343 C339 1.393 . S
C343 C342 1.391 . S
H344 C352 0.950 . S
H345 C357 0.950 . S
H346 C354 0.950 . S
H347 C356 0.950 . S
H348 C358 0.950 . S
H349 C360 0.950 . S
H350 C362 0.950 . S
H351 C363 0.950 . S
C352 H344 0.950 . S
C352 C353 1.386 . S
C352 C354 1.391 . S
C353 C352 1.386 . S
C353 C357 1.393 . S
C354 H346 0.950 . S
C354 C352 1.391 . S
C354 C355 1.400 . S
C355 C354 1.400 . S
C355 C356 1.398 . S
C355 C361 1.491 . S
C356 H347 0.950 . S
C356 C355 1.398 . S
C356 C357 1.391 . S
C357 H345 0.950 . S
C357 C353 1.393 . S
C357 C356 1.391 . S
C358 H348 0.950 . S
C358 C359 1.386 . S
C358 C360 1.391 . S
C359 C358 1.386 . S
C359 C363 1.393 . S
C360 H349 0.950 . S
C360 C358 1.391 . S
C360 C361 1.400 . S
C361 C355 1.491 . S
C361 C360 1.400 . S
C361 C362 1.398 . S
C362 H350 0.950 . S
C362 C361 1.398 . S
C362 C363 1.391 . S
C363 H351 0.950 . S
C363 C359 1.393 . S
C363 C362 1.391 . S
H364 C372 0.950 . S
H365 C377 0.950 . S
H366 C374 0.950 . S
H367 C376 0.950 . S
H368 C378 0.950 . S
H369 C380 0.950 . S
H370 C382 0.950 . S
H371 C383 0.950 . S
C372 H364 0.950 . S
C372 C373 1.386 . S
C372 C374 1.391 . S
C373 C372 1.386 . S
C373 C377 1.393 . S
C374 H366 0.950 . S
C374 C372 1.391 . S
C374 C375 1.400 . S
C375 C374 1.400 . S
C375 C376 1.398 . S
C375 C381 1.491 . S
C376 H367 0.950 . S
C376 C375 1.398 . S
C376 C377 1.391 . S
C377 H365 0.950 . S
C377 C373 1.393 . S
C377 C376 1.391 . S
C378 H368 0.950 . S
C378 C379 1.386 . S
C378 C380 1.391 . S
C379 C378 1.386 . S
C379 C383 1.393 . S
C380 H369 0.950 . S
C380 C378 1.391 . S
C380 C381 1.400 . S
C381 C375 1.491 . S
C381 C380 1.400 . S
C381 C382 1.398 . S
C382 H370 0.950 . S
C382 C381 1.398 . S
C382 C383 1.391 . S
C383 H371 0.950 . S
C383 C379 1.393 . S
C383 C382 1.391 . S
H384 C392 0.950 . S
H385 C397 0.950 . S
H386 C394 0.950 . S
H387 C396 0.950 . S
H388 C398 0.950 . S
H389 C400 0.950 . S
H390 C402 0.950 . S
H391 C403 0.950 . S
C392 H384 0.950 . S
C392 C393 1.386 1_665 S
C392 C394 1.391 . S
C393 C392 1.386 1_445 S
C393 C397 1.393 . S
C394 H386 0.950 . S
C394 C392 1.391 . S
C394 C395 1.400 1_665 S
C395 C394 1.400 1_445 S
C395 C396 1.398 . S
C395 C401 1.491 . S
C396 H387 0.950 . S
C396 C395 1.398 . S
C396 C397 1.391 . S
C397 H385 0.950 . S
C397 C393 1.393 . S
C397 C396 1.391 . S
C398 H388 0.950 . S
C398 C399 1.386 1_455 S
C398 C400 1.391 . S
C399 C398 1.386 1_655 S
C399 C403 1.393 1_545 S
C400 H389 0.950 . S
C400 C398 1.391 . S
C400 C401 1.403 . S
C401 C395 1.491 . S
C401 C400 1.403 . S
C401 C402 1.395 1_445 S
C402 H390 0.950 . S
C402 C401 1.395 1_665 S
C402 C403 1.391 . S
C403 H391 0.950 . S
C403 C399 1.393 1_565 S
C403 C402 1.391 . S
H404 C412 0.950 . S
H405 C417 0.950 . S
H406 C414 0.950 . S
H407 C416 0.950 . S
H408 C418 0.950 . S
H409 C420 0.950 . S
H410 C422 0.950 . S
H411 C423 0.950 . S
C412 H404 0.950 . S
C412 C413 1.386 . S
C412 C414 1.391 . S
C413 C412 1.386 . S
C413 C417 1.393 1_445 S
C414 H406 0.950 . S
C414 C412 1.391 . S
C414 C415 1.400 . S
C415 C414 1.400 . S
C415 C416 1.398 1_445 S
C415 C421 1.491 . S
C416 H407 0.950 . S
C416 C415 1.398 1_665 S
C416 C417 1.391 . S
C417 H405 0.950 . S
C417 C413 1.393 1_665 S
C417 C416 1.391 . S
C418 H408 0.950 . S
C418 C419 1.386 1_665 S
C418 C420 1.391 . S
C419 C418 1.386 1_445 S
C419 C423 1.393 . S
C420 H409 0.950 . S
C420 C418 1.391 . S
C420 C421 1.400 1_665 S
C421 C415 1.491 . S
C421 C420 1.400 1_445 S
C421 C422 1.398 . S
C422 H410 0.950 . S
C422 C421 1.398 . S
C422 C423 1.391 . S
C423 H411 0.950 . S
C423 C419 1.393 . S
C423 C422 1.391 . S
H424 C432 0.950 . S
H425 C437 0.950 . S
H426 C434 0.950 . S
H427 C436 0.950 . S
H428 C438 0.950 . S
H429 C440 0.950 . S
H430 C442 0.950 . S
H431 C443 0.950 . S
C432 H424 0.950 . S
C432 C433 1.386 . S
C432 C434 1.391 . S
C433 C432 1.386 . S
C433 C437 1.393 . S
C434 H426 0.950 . S
C434 C432 1.391 . S
C434 C435 1.400 . S
C435 C434 1.400 . S
C435 C436 1.398 . S
C435 C441 1.491 . S
C436 H427 0.950 . S
C436 C435 1.398 . S
C436 C437 1.391 . S
C437 H425 0.950 . S
C437 C433 1.393 . S
C437 C436 1.391 . S
C438 H428 0.950 . S
C438 C439 1.386 . S
C438 C440 1.391 . S
C439 C438 1.386 . S
C439 C443 1.393 . S
C440 H429 0.950 . S
C440 C438 1.391 . S
C440 C441 1.400 . S
C441 C435 1.491 . S
C441 C440 1.400 . S
C441 C442 1.398 . S
C442 H430 0.950 . S
C442 C441 1.398 . S
C442 C443 1.391 . S
C443 H431 0.950 . S
C443 C439 1.393 . S
C443 C442 1.391 . S
H444 C452 0.950 . S
H445 C457 0.950 . S
H446 C454 0.950 . S
H447 C456 0.950 . S
H448 C458 0.950 . S
H449 C460 0.950 . S
H450 C462 0.950 . S
H451 C463 0.950 . S
C452 H444 0.950 . S
C452 C453 1.386 . S
C452 C454 1.391 . S
C453 C452 1.386 . S
C453 C457 1.393 . S
C454 H446 0.950 . S
C454 C452 1.391 . S
C454 C455 1.400 . S
C455 C454 1.400 . S
C455 C456 1.398 . S
C455 C461 1.491 . S
C456 H447 0.950 . S
C456 C455 1.398 . S
C456 C457 1.391 . S
C457 H445 0.950 . S
C457 C453 1.393 . S
C457 C456 1.391 . S
C458 H448 0.950 . S
C458 C459 1.386 . S
C458 C460 1.391 . S
C459 C458 1.386 . S
C459 C463 1.393 . S
C460 H449 0.950 . S
C460 C458 1.391 . S
C460 C461 1.400 . S
C461 C455 1.491 . S
C461 C460 1.400 . S
C461 C462 1.398 . S
C462 H450 0.950 . S
C462 C461 1.398 . S
C462 C463 1.391 . S
C463 H451 0.950 . S
C463 C459 1.393 . S
C463 C462 1.391 . S
C239 C201 1.440 . S
C233 C29 1.500 . S
C253 C8 1.479 . S
C259 C162 1.438 . S
C273 C0 1.474 . S
C279 C206 1.446 . S
C293 C17 1.495 . S
C299 C167 1.447 1_554 S
C313 C63 1.498 . S
C319 C123 1.461 . S
C333 C42 1.482 . S
C339 C84 1.434 . S
C359 C128 1.447 . S
C353 C34 1.474 . S
C379 C89 1.459 . S
C373 C51 1.488 . S
C393 C4 1.484 . S
C399 C69 1.487 . S
C413 C13 1.481 . S
C419 C108 1.484 . S
C439 C147 1.485 . S
C433 C38 1.485 . S
C453 C47 1.481 . S
C459 C186 1.485 . S
