# Generated by pormake.
# Topology zzz, (3,6)-cn, num edge types: 1
# Building blocks:
#     Node 0, Type 0, BuildingBlock: BETDAH_clean_linker_0, # of connection points: 3
#     Node 1, Type 0, BuildingBlock: BETDAH_clean_linker_0, # of connection points: 3
#     Node 2, Type 0, BuildingBlock: BETDAH_clean_linker_0, # of connection points: 3
#     Node 3, Type 0, BuildingBlock: BETDAH_clean_linker_0, # of connection points: 3
#     Node 4, Type 0, BuildingBlock: BETDAH_clean_linker_0, # of connection points: 3
#     Node 5, Type 0, BuildingBlock: BETDAH_clean_linker_0, # of connection points: 3
#     Node 6, Type 0, BuildingBlock: BETDAH_clean_linker_0, # of connection points: 3
#     Node 7, Type 0, BuildingBlock: BETDAH_clean_linker_0, # of connection points: 3
#     Node 8, Type 1, BuildingBlock: PAMTUU_clean_sbu_0, # of connection points: 6
#     Node 9, Type 1, BuildingBlock: PAMTUU_clean_sbu_0, # of connection points: 6
#     Node 10, Type 1, BuildingBlock: PAMTUU_clean_sbu_0, # of connection points: 6
#     Node 11, Type 1, BuildingBlock: PAMTUU_clean_sbu_0, # of connection points: 6
#     Edge 12, Type (0, 1), BuildingBlock: ZUJKAS_clean_linker_0, # of connection points: 2
#     Edge 13, Type (0, 1), BuildingBlock: ZUJKAS_clean_linker_0, # of connection points: 2
#     Edge 14, Type (0, 1), BuildingBlock: ZUJKAS_clean_linker_0, # of connection points: 2
#     Edge 15, Type (0, 1), BuildingBlock: ZUJKAS_clean_linker_0, # of connection points: 2
#     Edge 16, Type (0, 1), BuildingBlock: ZUJKAS_clean_linker_0, # of connection points: 2
#     Edge 17, Type (0, 1), BuildingBlock: ZUJKAS_clean_linker_0, # of connection points: 2
#     Edge 18, Type (0, 1), BuildingBlock: ZUJKAS_clean_linker_0, # of connection points: 2
#     Edge 19, Type (0, 1), BuildingBlock: ZUJKAS_clean_linker_0, # of connection points: 2
#     Edge 20, Type (0, 1), BuildingBlock: ZUJKAS_clean_linker_0, # of connection points: 2
#     Edge 21, Type (0, 1), BuildingBlock: ZUJKAS_clean_linker_0, # of connection points: 2
#     Edge 22, Type (0, 1), BuildingBlock: ZUJKAS_clean_linker_0, # of connection points: 2
#     Edge 23, Type (0, 1), BuildingBlock: ZUJKAS_clean_linker_0, # of connection points: 2
#     Edge 24, Type (0, 1), BuildingBlock: ZUJKAS_clean_linker_0, # of connection points: 2
#     Edge 25, Type (0, 1), BuildingBlock: ZUJKAS_clean_linker_0, # of connection points: 2
#     Edge 26, Type (0, 1), BuildingBlock: ZUJKAS_clean_linker_0, # of connection points: 2
#     Edge 27, Type (0, 1), BuildingBlock: ZUJKAS_clean_linker_0, # of connection points: 2
#     Edge 28, Type (0, 1), BuildingBlock: ZUJKAS_clean_linker_0, # of connection points: 2
#     Edge 29, Type (0, 1), BuildingBlock: ZUJKAS_clean_linker_0, # of connection points: 2
#     Edge 30, Type (0, 1), BuildingBlock: ZUJKAS_clean_linker_0, # of connection points: 2
#     Edge 31, Type (0, 1), BuildingBlock: ZUJKAS_clean_linker_0, # of connection points: 2
#     Edge 32, Type (0, 1), BuildingBlock: ZUJKAS_clean_linker_0, # of connection points: 2
#     Edge 33, Type (0, 1), BuildingBlock: ZUJKAS_clean_linker_0, # of connection points: 2
#     Edge 34, Type (0, 1), BuildingBlock: ZUJKAS_clean_linker_0, # of connection points: 2
#     Edge 35, Type (0, 1), BuildingBlock: ZUJKAS_clean_linker_0, # of connection points: 2
# Relax obj value: 0.185
# Max RMSD: 0.204
# Mean RMSD: 0.121
data_MOF--net-zzz--node1-PAMTUU_clean_sbu_0--node2-BETDAH_clean_linker_0--edge1-ZUJKAS_clean_linker_0
_symmetry_space_group_name_H-M    P1
_symmetry_Int_Tables_number       1
_symmetry_cell_setting            triclinic
loop_
_symmetry_equiv_pos_as_xyz
'x, y, z'
_cell_length_a     66.827275
_cell_length_b     70.097364
_cell_length_c     19.822318
_cell_angle_alpha  98.907809
_cell_angle_beta   89.927593
_cell_angle_gamma 91.594493
loop_
_atom_site_label
_atom_site_type_symbol
_atom_site_fract_x
_atom_site_fract_y
_atom_site_fract_z
_atom_type_partial_charge
H0 H 0.81515 0.47367 0.30367 0.0
H1 H 0.75598 0.48304 0.23305 0.0
H2 H 0.77697 0.5129 0.42787 0.0
C3 C 0.80069 0.48025 0.31219 0.0
C4 C 0.79772 0.49311 0.37267 0.0
C5 C 0.78581 0.47651 0.26144 0.0
C6 C 0.76755 0.48596 0.27173 0.0
C7 C 0.76424 0.49918 0.33157 0.0
C8 C 0.77946 0.50277 0.38172 0.0
N9 N 0.74589 0.5091 0.34244 0.0
C10 C 0.7299 0.50695 0.29617 0.0
H11 H 1.00998 0.79496 0.34986 0.0
H12 H 0.9951 0.7368 0.2583 0.0
H13 H 0.97965 0.75673 0.46853 0.0
C14 C 1.00389 0.78072 0.35472 0.0
C15 C 0.99519 0.77754 0.41635 0.0
C16 C 1.0038 0.76619 0.29777 0.0
C17 C 0.99532 0.74794 0.30274 0.0
C18 C 0.98686 0.74439 0.36515 0.0
C19 C 0.98648 0.75937 0.42108 0.0
N20 N 0.97838 0.72611 0.37335 0.0
C21 C 0.98167 0.70921 0.32859 0.0
H22 H 0.73723 0.02751 0.33315 0.0
H23 H 0.79706 0.0184 0.25912 0.0
H24 H 0.77625 0.99217 0.43027 0.0
C25 C 0.75182 0.02149 0.33805 0.0
C26 C 0.75488 0.01003 0.38907 0.0
C27 C 0.76692 0.02467 0.29139 0.0
C28 C 0.78542 0.01592 0.29503 0.0
C29 C 0.78888 0.00407 0.3448 0.0
C30 C 0.77353 1.00116 0.39162 0.0
N31 N 0.80758 0.99495 0.34883 0.0
C32 C 0.82371 0.9967 0.30493 0.0
H33 H 0.55018 0.70269 0.12316 0.0
H34 H 0.53576 0.75477 0.04651 0.0
H35 H 0.55016 0.7565 0.25973 0.0
C36 C 0.54873 0.71826 0.13164 0.0
C37 C 0.55127 0.72845 0.19758 0.0
C38 C 0.54313 0.72752 0.07709 0.0
C39 C 0.54032 0.74759 0.08839 0.0
C40 C 0.54321 0.75816 0.15456 0.0
C41 C 0.54832 0.74842 0.20879 0.0
N42 N 0.54068 0.77844 0.16978 0.0
C43 C 0.53863 0.79112 0.12278 0.0
H44 H 0.23305 0.51875 0.25933 0.0
H45 H 0.29295 0.50935 0.32252 0.0
H46 H 0.27192 0.48356 0.12268 0.0
C47 C 0.24767 0.51273 0.24814 0.0
C48 C 0.25078 0.50146 0.18436 0.0
C49 C 0.2627 0.5155 0.29856 0.0
C50 C 0.28127 0.50696 0.28422 0.0
C51 C 0.28474 0.49531 0.2211 0.0
C52 C 0.26935 0.49251 0.1714 0.0
N53 N 0.30344 0.4862 0.2068 0.0
C54 C 0.31942 0.48766 0.25306 0.0
H55 H 0.07147 0.21136 0.23102 0.0
H56 H 0.05727 0.27049 0.30087 0.0
H57 H 0.0757 0.25264 0.0924 0.0
C58 C 0.07077 0.22619 0.22176 0.0
C59 C 0.07478 0.23037 0.15627 0.0
C60 C 0.06426 0.24048 0.27387 0.0
C61 C 0.06246 0.25948 0.26074 0.0
C62 C 0.06708 0.26402 0.19538 0.0
C63 C 0.07279 0.24931 0.14317 0.0
N64 N 0.06574 0.28305 0.17984 0.0
C65 C 0.06292 0.29928 0.22848 0.0
H66 H 0.31743 0.99284 0.25108 0.0
H67 H 0.25508 0.99362 0.30083 0.0
H68 H 0.27593 0.01636 0.12192 0.0
C69 C 0.30231 0.99658 0.23936 0.0
C70 C 0.29877 0.00512 0.18121 0.0
C71 C 0.28656 0.99226 0.28163 0.0
C72 C 0.267 0.99688 0.26708 0.0
C73 C 0.26298 0.00589 0.21009 0.0
C74 C 0.27892 0.0096 0.16631 0.0
N75 N 0.2432 0.0115 0.19649 0.0
C76 C 0.22701 0.0104 0.24083 0.0
H77 H 0.52828 0.29196 0.41083 0.0
H78 H 0.5193 0.24281 0.51417 0.0
H79 H 0.49722 0.24132 0.30886 0.0
C80 C 0.52325 0.27707 0.40989 0.0
C81 C 0.51304 0.26757 0.35234 0.0
C82 C 0.52545 0.26842 0.46855 0.0
C83 C 0.51798 0.24943 0.46857 0.0
C84 C 0.50817 0.23941 0.40996 0.0
C85 C 0.50535 0.24877 0.35292 0.0
N86 N 0.50004 0.22034 0.40716 0.0
C87 C 0.50521 0.20718 0.4497 0.0
Tb88 Tb 0.01286 0.01429 0.72522 0.0
Tb89 Tb 0.04079 0.99611 0.83398 0.0
C90 C 0.99514 0.00512 0.86359 0.0
C91 C 0.99689 0.05029 0.6247 0.0
C92 C 1.00358 0.08773 0.5925 0.0
C93 C 0.9865 0.07663 0.56766 0.0
C94 C 0.98318 0.05804 0.58373 0.0
C95 C 0.01393 0.06128 0.64954 0.0
C96 C 0.01724 0.07982 0.6337 0.0
C97 C 0.9932 0.03118 0.64463 0.0
O98 O 0.02304 0.03797 0.80262 0.0
O99 O 0.05176 0.02573 0.84002 0.0
O100 O 0.05668 0.99289 0.73644 0.0
O101 O 0.0437 0.01828 0.69352 0.0
O102 O 0.05029 0.99412 0.93386 0.0
O103 O 0.06253 0.97599 0.84676 0.0
O104 O 0.01908 0.97383 0.79433 0.0
O105 O 0.01254 0.98312 0.6908 0.0
O106 O 0.99195 0.0045 0.79783 0.0
O107 O 0.01345 0.00573 0.88869 0.0
C108 C 0.04068 0.04042 0.83232 0.0
O109 O 1.00658 0.01833 0.62455 0.0
O110 O 0.98871 0.03152 0.70875 0.0
C111 C 0.05778 0.00565 0.69443 0.0
C112 C 0.05651 0.96162 0.9432 0.0
C113 C 0.0487 0.92536 0.98404 0.0
C114 C 0.06825 0.93347 0.98722 0.0
C115 C 0.07212 0.95144 0.96682 0.0
C116 C 0.03692 0.9538 0.94128 0.0
C117 C 0.03304 0.93586 0.96165 0.0
C118 C 0.06101 0.97908 0.91294 0.0
C119 C 0.01253 0.96993 0.73136 0.0
H120 H 0.97581 0.08223 0.53521 0.0
H121 H 0.9699 0.04976 0.56446 0.0
H122 H 0.0246 0.05558 0.68182 0.0
H123 H 0.03037 0.08805 0.65457 0.0
H124 H 0.08059 0.92587 0.00509 0.0
H125 H 0.08736 0.95718 0.96789 0.0
H126 H 0.02471 0.96133 0.92214 0.0
H127 H 0.01786 0.92994 0.95781 0.0
Tb128 Tb 0.51868 0.98744 0.72014 0.0
Tb129 Tb 0.53795 0.01215 0.85803 0.0
C130 C 0.53264 0.96787 0.84095 0.0
C131 C 0.48015 0.96363 0.60614 0.0
C132 C 0.4388 0.9554 0.59235 0.0
C133 C 0.45262 0.94289 0.55638 0.0
C134 C 0.4732 0.94697 0.56341 0.0
C135 C 0.46642 0.97613 0.64199 0.0
C136 C 0.44595 0.97204 0.63529 0.0
C137 C 0.50158 0.96696 0.61991 0.0
O138 O 0.49417 0.99003 0.79374 0.0
O139 O 0.50575 0.0152 0.874 0.0
O140 O 0.53858 0.03033 0.77863 0.0
O141 O 0.51089 0.01745 0.72013 0.0
O142 O 0.55584 0.01332 0.94546 0.0
O143 O 0.54264 0.03909 0.92024 0.0
O144 O 0.56315 0.99989 0.79703 0.0
O145 O 0.54904 0.99471 0.69003 0.0
O146 O 0.53487 0.96817 0.77542 0.0
O147 O 0.52906 0.98389 0.88228 0.0
C148 C 0.49118 0.00343 0.84684 0.0
O149 O 0.50854 0.98447 0.61855 0.0
O150 O 0.50772 0.96028 0.67371 0.0
C151 C 0.52358 0.032 0.73765 0.0
C152 C 0.57588 0.04172 0.95947 0.0
C153 C 0.61451 0.05916 0.96475 0.0
C154 C 0.59923 0.06729 0.00821 0.0
C155 C 0.58005 0.0586 0.0056 0.0
C156 C 0.59083 0.03407 0.91423 0.0
C157 C 0.60993 0.04261 0.917 0.0
C158 C 0.55596 0.03216 0.95714 0.0
C159 C 0.56489 0.99694 0.73009 0.0
H160 H 0.44753 0.93008 0.52237 0.0
H161 H 0.48366 0.93703 0.53627 0.0
H162 H 0.47154 0.98889 0.67623 0.0
H163 H 0.43571 0.98181 0.66447 0.0
H164 H 0.60217 0.08017 0.04504 0.0
H165 H 0.5686 0.0649 0.04014 0.0
H166 H 0.58793 0.02117 0.87771 0.0
H167 H 0.6213 0.03566 0.88359 0.0
Tb168 Tb 0.5098 0.49448 0.84412 0.0
Tb169 Tb 0.53795 0.50272 0.7154 0.0
C170 C 0.49103 0.49744 0.70172 0.0
C171 C 0.49039 0.46698 0.97241 0.0
C172 C 0.491 0.43168 0.02442 0.0
C173 C 0.47588 0.44503 0.0439 0.0
C174 C 0.47557 0.46253 0.018 0.0
C175 C 0.50557 0.4538 0.95323 0.0
C176 C 0.50588 0.43634 0.97888 0.0
C177 C 0.48952 0.48469 0.94129 0.0
O178 O 0.51431 0.46691 0.77998 0.0
O179 O 0.54345 0.47269 0.72387 0.0
O180 O 0.55599 0.50919 0.80842 0.0
O181 O 0.54035 0.48845 0.87053 0.0
O182 O 0.54342 0.50103 0.61 0.0
O183 O 0.56406 0.51616 0.68389 0.0
O184 O 0.52153 0.52876 0.74743 0.0
O185 O 0.51576 0.52569 0.85937 0.0
O186 O 0.4893 0.50248 0.76818 0.0
O187 O 0.5085 0.49301 0.67373 0.0
C188 C 0.53034 0.46073 0.74588 0.0
O189 O 0.50534 0.49615 0.94993 0.0
O190 O 0.48346 0.482 0.87803 0.0
C191 C 0.55611 0.49897 0.85859 0.0
C192 C 0.55798 0.53052 0.58757 0.0
C193 C 0.55795 0.56649 0.54005 0.0
C194 C 0.57531 0.55541 0.53535 0.0
C195 C 0.57531 0.53761 0.55904 0.0
C196 C 0.54053 0.54133 0.59133 0.0
C197 C 0.54049 0.55911 0.56767 0.0
C198 C 0.55875 0.51302 0.62 0.0
C199 C 0.5175 0.53636 0.81044 0.0
H200 H 0.46432 0.44199 0.0794 0.0
H201 H 0.46368 0.47249 0.03304 0.0
H202 H 0.51704 0.45689 0.91747 0.0
H203 H 0.51755 0.42631 0.96183 0.0
H204 H 0.58908 0.56075 0.51523 0.0
H205 H 0.58901 0.52962 0.55673 0.0
H206 H 0.52701 0.5362 0.61378 0.0
H207 H 0.52679 0.56708 0.57122 0.0
Tb208 Tb 0.03204 0.51619 0.74563 0.0
Tb209 Tb 0.01294 0.48709 0.8432 0.0
C210 C 0.01338 0.53127 0.88455 0.0
C211 C 0.07137 0.54396 0.67727 0.0
C212 C 0.11263 0.55335 0.68592 0.0
C213 C 0.09884 0.56697 0.67107 0.0
C214 C 0.07835 0.5623 0.6669 0.0
C215 C 0.08503 0.53038 0.69246 0.0
C216 C 0.10545 0.53499 0.69639 0.0
C217 C 0.04983 0.53971 0.68087 0.0
O218 O 0.05475 0.51392 0.82269 0.0
O219 O 0.04531 0.485 0.85538 0.0
O220 O 0.01432 0.47164 0.73997 0.0
O221 O 0.04197 0.48728 0.70636 0.0
O222 O 0.99598 0.48307 0.92913 0.0
O223 O 1.00868 0.45877 0.86486 0.0
O224 O 0.98727 0.49777 0.79268 0.0
O225 O 1.00246 0.50886 0.70104 0.0
O226 O 0.01233 0.53211 0.81924 0.0
O227 O 0.01839 0.51519 0.90534 0.0
C228 C 0.05884 0.49882 0.85156 0.0
O229 O 0.04368 0.52247 0.65267 0.0
O230 O 0.04232 0.54449 0.74152 0.0
C231 C 0.03007 0.47192 0.70082 0.0
C232 C 0.97595 0.45474 0.90494 0.0
C233 C 0.9375 0.43695 0.88921 0.0
C234 C 0.95362 0.42719 0.91259 0.0
C235 C 0.97274 0.43602 0.92019 0.0
C236 C 0.95999 0.46427 0.88026 0.0
C237 C 0.94102 0.45552 0.8725 0.0
C238 C 0.99588 0.4643 0.91309 0.0
C239 C 0.9863 0.50365 0.73263 0.0
H240 H 0.10386 0.58129 0.66334 0.0
H241 H 0.06793 0.57309 0.65678 0.0
H242 H 0.07988 0.51626 0.70206 0.0
H243 H 0.11562 0.52401 0.70661 0.0
H244 H 0.9514 0.41285 0.92576 0.0
H245 H 0.98494 0.42834 0.93863 0.0
H246 H 0.96209 0.47873 0.86838 0.0
H247 H 0.92894 0.46372 0.85602 0.0
H248 H 0.19623 0.03487 0.25929 0.0
H249 H 0.16777 0.03384 0.33754 0.0
H250 H 0.19123 0.98308 0.40372 0.0
H251 H 0.21972 0.98419 0.32577 0.0
H252 H 0.13869 0.0047 0.34209 0.0
H253 H 0.18167 0.01822 0.58492 0.0
H254 H 0.19229 0.02243 0.50458 0.0
H255 H 0.19023 0.99832 0.5247 0.0
C256 C 0.19529 0.02355 0.29081 0.0
C257 C 0.21016 0.00968 0.28697 0.0
C258 C 0.17904 0.02295 0.33544 0.0
C259 C 0.17743 0.00856 0.37751 0.0
C260 C 0.19228 0.99457 0.37304 0.0
H261 H 0.08965 0.98136 0.67915 0.0
H262 H 0.11818 0.98183 0.60168 0.0
C263 C 0.20851 0.99515 0.32825 0.0
C264 C 0.16 0.00794 0.42464 0.0
H265 H 0.14723 0.00981 0.59283 0.0
C266 C 0.14057 0.0059 0.39694 0.0
C267 C 0.16237 0.00942 0.49631 0.0
C268 C 0.18273 0.01239 0.52966 0.0
C269 C 0.12355 0.00499 0.43855 0.0
C270 C 0.1259 0.0066 0.51029 0.0
C271 C 0.14535 0.00857 0.53797 0.0
C272 C 0.10841 0.00636 0.55746 0.0
C273 C 0.10323 0.00184 0.40492 0.0
C274 C 0.09344 0.02014 0.55944 0.0
C275 C 0.07704 0.01987 0.6036 0.0
C276 C 0.07526 0.0059 0.64745 0.0
C277 C 0.09042 0.99229 0.64606 0.0
C278 C 0.10681 0.99255 0.60177 0.0
H279 H 0.10439 0.9954 0.35024 0.0
H280 H 0.09348 0.99223 0.43121 0.0
H281 H 0.09592 0.01594 0.40749 0.0
H282 H 0.0945 0.03125 0.52715 0.0
H283 H 0.0658 0.0307 0.60349 0.0
H284 H 0.5177 0.17267 0.39024 0.0
H285 H 0.52092 0.14346 0.44282 0.0
H286 H 0.50411 0.17533 0.63764 0.0
H287 H 0.50051 0.20455 0.5843 0.0
H288 H 0.54447 0.13507 0.54456 0.0
H289 H 0.46461 0.12974 0.61815 0.0
H290 H 0.47353 0.14596 0.56167 0.0
H291 H 0.47689 0.15225 0.65247 0.0
C292 C 0.51487 0.17342 0.44442 0.0
C293 C 0.50893 0.19073 0.48348 0.0
C294 C 0.51666 0.15675 0.47441 0.0
C295 C 0.51243 0.15705 0.54402 0.0
C296 C 0.50703 0.17459 0.58358 0.0
H297 H 0.54544 0.06564 0.77198 0.0
H298 H 0.54253 0.09582 0.72627 0.0
C299 C 0.50517 0.19131 0.55338 0.0
C300 C 0.51369 0.13893 0.57442 0.0
H301 H 0.48637 0.10742 0.65609 0.0
C302 C 0.53176 0.12905 0.56902 0.0
C303 C 0.49701 0.13085 0.60529 0.0
C304 C 0.47685 0.14012 0.60928 0.0
C305 C 0.53369 0.11147 0.59401 0.0
C306 C 0.5172 0.10368 0.62674 0.0
C307 C 0.49906 0.11345 0.63158 0.0
C308 C 0.5185 0.08539 0.65595 0.0
C309 C 0.55326 0.10119 0.58356 0.0
C310 C 0.50549 0.06957 0.6335 0.0
C311 C 0.50698 0.05224 0.66014 0.0
C312 C 0.52149 0.0504 0.70994 0.0
C313 C 0.53422 0.06641 0.73317 0.0
C314 C 0.53266 0.08371 0.70678 0.0
H315 H 0.56209 0.10598 0.54138 0.0
H316 H 0.56235 0.10449 0.63092 0.0
H317 H 0.55073 0.08529 0.57196 0.0
H318 H 0.49434 0.07054 0.59463 0.0
H319 H 0.49688 0.04025 0.64125 0.0
H320 H 0.35843 0.48322 0.22029 0.0
H321 H 0.38703 0.48508 0.29912 0.0
H322 H 0.34699 0.49734 0.47028 0.0
H323 H 0.31839 0.49507 0.3914 0.0
H324 H 0.40129 0.51498 0.39346 0.0
H325 H 0.37837 0.45351 0.52461 0.0
H326 H 0.36665 0.45785 0.44666 0.0
H327 H 0.35982 0.47164 0.5272 0.0
C328 C 0.3558 0.48622 0.27481 0.0
C329 C 0.33629 0.48894 0.29997 0.0
C330 C 0.37212 0.48732 0.31983 0.0
C331 C 0.36923 0.49105 0.39093 0.0
C332 C 0.34965 0.494 0.4159 0.0
H333 H 0.45186 0.50402 0.73955 0.0
H334 H 0.42245 0.50311 0.66521 0.0
C335 C 0.33332 0.49286 0.37081 0.0
C336 C 0.38675 0.49224 0.43852 0.0
H337 H 0.40635 0.47266 0.57106 0.0
C338 C 0.4024 0.50566 0.43211 0.0
C339 C 0.38827 0.48016 0.48931 0.0
C340 C 0.37249 0.46485 0.49715 0.0
C341 C 0.41931 0.50747 0.47524 0.0
C342 C 0.42088 0.49531 0.5257 0.0
C343 C 0.40517 0.48201 0.53255 0.0
C344 C 0.43885 0.49594 0.57095 0.0
C345 C 0.43519 0.52267 0.46716 0.0
C346 C 0.4579 0.49197 0.54305 0.0
C347 C 0.47475 0.49246 0.5854 0.0
C348 C 0.473 0.49685 0.65692 0.0
C349 C 0.45386 0.50065 0.68481 0.0
C350 C 0.43698 0.50011 0.64232 0.0
H351 H 0.42932 0.53412 0.44021 0.0
H352 H 0.44124 0.52953 0.51754 0.0
H353 H 0.44772 0.51581 0.43652 0.0
H354 H 0.45973 0.48831 0.48832 0.0
H355 H 0.48918 0.48937 0.56188 0.0
H356 H 0.03485 0.30571 0.32659 0.0
H357 H 0.03039 0.33582 0.40662 0.0
H358 H 0.08149 0.36172 0.31853 0.0
H359 H 0.08573 0.33173 0.23811 0.0
H360 H 0.05737 0.35534 0.5036 0.0
H361 H 0.03779 0.40107 0.30944 0.0
H362 H 0.03762 0.37502 0.29093 0.0
H363 H 0.06088 0.38864 0.29376 0.0
C364 C 0.04504 0.31791 0.32457 0.0
C365 C 0.06054 0.31667 0.27659 0.0
C366 C 0.04253 0.33502 0.37008 0.0
C367 C 0.05542 0.35109 0.36773 0.0
C368 C 0.07113 0.34964 0.32025 0.0
H369 H 0.06076 0.46682 0.60796 0.0
H370 H 0.06792 0.43752 0.52767 0.0
C371 C 0.07362 0.33254 0.27477 0.0
C372 C 0.05261 0.36925 0.41566 0.0
H373 H 0.04241 0.41702 0.42296 0.0
C374 C 0.05406 0.36882 0.48602 0.0
C375 C 0.04839 0.38683 0.39249 0.0
C376 C 0.04589 0.38798 0.31758 0.0
C377 C 0.05151 0.38554 0.53391 0.0
C378 C 0.04709 0.40306 0.51077 0.0
C379 C 0.04587 0.40356 0.44043 0.0
C380 C 0.04282 0.42082 0.55895 0.0
C381 C 0.05376 0.38437 0.60888 0.0
C382 C 0.02617 0.42119 0.60212 0.0
C383 C 0.02202 0.43784 0.64773 0.0
C384 C 0.03441 0.45452 0.65095 0.0
C385 C 0.05096 0.45421 0.6069 0.0
C386 C 0.05507 0.4375 0.56103 0.0
H387 H 0.06229 0.37154 0.61722 0.0
H388 H 0.06147 0.39755 0.63627 0.0
H389 H 0.0387 0.38314 0.63171 0.0
H390 H 0.01631 0.40859 0.60035 0.0
H391 H 1.0091 0.43756 0.68064 0.0
H392 H 0.86274 0.99842 0.34099 0.0
H393 H 0.89185 1.00046 0.26621 0.0
H394 H 0.8523 0.99966 0.09388 0.0
H395 H 0.82322 0.99792 0.16904 0.0
H396 H 0.90389 0.97519 0.15434 0.0
H397 H 0.88858 0.04614 0.07734 0.0
H398 H 0.87584 0.03755 0.14764 0.0
H399 H 0.86815 0.02887 0.06116 0.0
C400 C 0.86034 0.99882 0.28718 0.0
C401 C 0.84084 0.99814 0.26061 0.0
C402 C 0.87695 0.99994 0.24445 0.0
C403 C 0.87436 1.00052 0.17439 0.0
C404 C 0.85476 0.99968 0.14787 0.0
H405 H 0.95519 0.00404 0.83064 0.0
H406 H 0.92645 0.00264 0.90631 0.0
C407 C 0.83815 0.99857 0.19068 0.0
C408 C 0.89216 0.00149 0.12905 0.0
H409 H 0.91463 0.02826 0.01817 0.0
C410 C 0.90628 0.98686 0.12486 0.0
C411 C 0.89534 0.01668 0.09031 0.0
C412 C 0.8813 0.0333 0.09465 0.0
C413 C 0.92319 0.98679 0.08227 0.0
C414 C 0.92637 0.00197 0.04353 0.0
C415 C 0.91225 0.01661 0.04772 0.0
C416 C 0.9441 0.00285 0.99783 0.0
C417 C 0.93723 0.97015 0.07782 0.0
C418 C 0.96372 0.0037 0.02388 0.0
C419 C 0.98027 0.00448 0.98059 0.0
C420 C 0.97761 0.00456 0.91016 0.0
C421 C 0.95791 0.00396 0.88444 0.0
C422 C 0.9414 0.00318 0.92775 0.0
H423 H 0.93 0.95736 0.09562 0.0
H424 H 0.94252 0.96582 0.02468 0.0
H425 H 0.95047 0.97462 0.11078 0.0
H426 H 0.96627 0.00389 0.07792 0.0
H427 H 0.99516 0.00502 0.00244 0.0
H428 H 0.5253 0.82575 0.17583 0.0
H429 H 0.52463 0.85484 0.12141 0.0
H430 H 0.54813 0.82282 0.93621 0.0
H431 H 0.54874 0.79355 0.99104 0.0
H432 H 0.55864 0.87264 0.06652 0.0
H433 H 0.49928 0.85083 0.87105 0.0
H434 H 0.50224 0.83875 0.94443 0.0
H435 H 0.51917 0.83419 0.8738 0.0
C436 C 0.53006 0.8249 0.12318 0.0
C437 C 0.5369 0.80752 0.08718 0.0
C438 C 0.52974 0.84151 0.09225 0.0
C439 C 0.53617 0.841 0.02457 0.0
C440 C 0.54281 0.82348 0.98812 0.0
H441 H 0.54226 0.93253 0.77076 0.0
H442 H 0.54414 0.90186 0.81441 0.0
C443 C 0.54319 0.80681 0.01933 0.0
C444 C 0.53667 0.85909 0.99395 0.0
H445 H 0.51529 0.88125 0.87119 0.0
C446 C 0.54919 0.87452 0.02372 0.0
C447 C 0.52443 0.86148 0.93789 0.0
C448 C 0.51038 0.84553 0.90497 0.0
C449 C 0.54981 0.89228 0.99905 0.0
C450 C 0.53717 0.89488 0.94408 0.0
C451 C 0.52491 0.87931 0.9135 0.0
C452 C 0.5363 0.91369 0.91809 0.0
C453 C 0.56424 0.90797 0.0315 0.0
C454 C 0.53109 0.93061 0.9616 0.0
C455 C 0.53012 0.94823 0.93689 0.0
C456 C 0.53413 0.9493 0.86787 0.0
C457 C 0.53915 0.93229 0.82426 0.0
C458 C 0.54019 0.9147 0.84909 0.0
H459 H 0.57675 0.90194 0.05765 0.0
H460 H 0.57062 0.91634 0.99297 0.0
H461 H 0.55621 0.91804 0.07035 0.0
H462 H 0.52753 0.93015 0.01465 0.0
H463 H 0.52602 0.96097 0.97178 0.0
H464 H 0.7257 0.52419 0.18418 0.0
H465 H 0.69616 0.52251 0.10926 0.0
H466 H 0.66625 0.48412 0.22964 0.0
H467 H 0.69567 0.48605 0.30495 0.0
H468 H 0.67705 0.49145 0.02925 0.0
H469 H 0.62513 0.52571 0.22751 0.0
H470 H 0.65191 0.52627 0.2399 0.0
H471 H 0.63722 0.50501 0.24994 0.0
C472 C 0.71278 0.51541 0.1944 0.0
C473 C 0.71281 0.50532 0.25024 0.0
C474 C 0.69593 0.51444 0.15166 0.0
C475 C 0.67877 0.50346 0.16434 0.0
C476 C 0.67906 0.49304 0.21956 0.0
H477 H 0.56176 0.48015 0.96853 0.0
H478 H 0.5916 0.48094 0.04054 0.0
C479 C 0.69591 0.49403 0.26227 0.0
C480 C 0.66069 0.50279 0.11954 0.0
H481 H 0.61066 0.51208 0.12105 0.0
C482 C 0.66256 0.49605 0.04931 0.0
C483 C 0.64172 0.50876 0.1455 0.0
C484 C 0.63884 0.51702 0.2197 0.0
C485 C 0.64598 0.49478 0.00479 0.0
C486 C 0.62701 0.50073 0.03079 0.0
C487 C 0.62515 0.50747 0.101 0.0
C488 C 0.60893 0.50016 0.9861 0.0
C489 C 0.64886 0.48663 0.9305 0.0
C490 C 0.60853 0.51087 0.93179 0.0
C491 C 0.59146 0.51045 0.89041 0.0
C492 C 0.57429 0.49939 0.90255 0.0
C493 C 0.57467 0.4888 0.95739 0.0
C494 C 0.59175 0.48924 0.99877 0.0
H495 H 0.6626 0.478 0.92247 0.0
H496 H 0.63581 0.47736 0.91024 0.0
H497 H 0.65039 0.4987 0.90049 0.0
H498 H 0.62138 0.51975 0.92174 0.0
H499 H 0.59173 0.51889 0.84901 0.0
H500 H 0.99156 0.67599 0.36981 0.0
H501 H 0.99772 0.64505 0.29692 0.0
H502 H 0.98561 0.67103 0.11806 0.0
H503 H 0.97971 0.70203 0.19109 0.0
H504 H 0.9716 0.62287 0.204 0.0
H505 H 0.03976 0.64599 0.07462 0.0
H506 H 0.02993 0.65985 0.15126 0.0
H507 H 0.01873 0.66111 0.06971 0.0
C508 C 0.99033 0.67501 0.31486 0.0
C509 C 0.9853 0.69117 0.28547 0.0
C510 C 0.99381 0.65741 0.27342 0.0
C511 C 0.99239 0.65583 0.20211 0.0
C512 C 0.98717 0.67205 0.17289 0.0
H513 H 1.00217 0.5663 0.85647 0.0
H514 H 0.99691 0.59574 0.93681 0.0
C515 C 0.9837 0.68966 0.21441 0.0
C516 C 0.99591 0.6371 0.15842 0.0
H517 H 0.02512 0.61542 0.02902 0.0
C518 C 0.98339 0.62116 0.16604 0.0
C519 C 1.01135 0.63495 0.1092 0.0
C520 C 0.02585 0.65132 0.10096 0.0
C521 C 0.9855 0.60325 0.12419 0.0
C522 C 1.00073 0.6012 0.07423 0.0
C523 C 0.01343 0.61706 0.06733 0.0
C524 C 1.00332 0.58296 0.02668 0.0
C525 C 0.97104 0.58684 0.13228 0.0
C526 C 1.00868 0.56597 0.05067 0.0
C527 C 1.01168 0.549 0.00473 0.0
C528 C 1.00946 0.54883 0.93409 0.0
C529 C 1.00399 0.56588 0.91051 0.0
C530 C 1.001 0.58276 0.95633 0.0
H531 H 0.95765 0.59194 0.16236 0.0
H532 H 0.96604 0.57912 0.08167 0.0
H533 H 0.97865 0.57635 0.15939 0.0
H534 H 1.01087 0.56592 0.10476 0.0
H535 H 0.01599 0.53614 0.02448 0.0
H536 H 0.02758 0.24533 0.33322 0.0
H537 H 0.01331 0.22649 0.41706 0.0
H538 H 0.07091 0.20177 0.439 0.0
H539 H 0.08515 0.22073 0.35657 0.0
H540 H 0.01218 0.18776 0.3841 0.0
H541 H 0.05077 0.20663 0.63216 0.0
H542 H 0.0512 0.22255 0.56863 0.0
H543 H 0.0685 0.20312 0.56378 0.0
C544 C 0.03736 0.23659 0.3586 0.0
C545 C 0.05744 0.23442 0.33857 0.0
C546 C 0.02918 0.22574 0.40607 0.0
C547 C 0.04104 0.21276 0.43462 0.0
C548 C 0.06152 0.21194 0.41898 0.0
H549 H 0.0392 0.10371 0.55808 0.0
H550 H 0.04551 0.1359 0.52867 0.0
C551 C 0.06966 0.22272 0.37156 0.0
C552 C 0.03165 0.19757 0.46974 0.0
H553 H 0.038 0.17338 0.60467 0.0
C554 C 0.0174 0.18491 0.43327 0.0
C555 C 0.03854 0.19379 0.53366 0.0
C556 C 0.05295 0.20739 0.57705 0.0
C557 C 1.01096 0.16785 0.45654 0.0
C558 C 0.01876 0.16351 0.51848 0.0
C559 C 0.03214 0.1767 0.55694 0.0
C560 C 0.01473 0.14454 0.54061 0.0
C561 C 0.99687 0.15401 0.41248 0.0
C562 C 0.99533 0.1388 0.55772 0.0
C563 C 0.99166 0.12036 0.57464 0.0
C564 C 1.00736 0.10741 0.57513 0.0
C565 C 0.02681 0.11339 0.559 0.0
C566 C 0.03045 0.13177 0.54208 0.0
H567 H 0.99489 0.15803 0.36088 0.0
H568 H 1.00245 0.13907 0.40666 0.0
H569 H 0.98197 0.15404 0.43728 0.0
H570 H 0.98304 0.14855 0.55775 0.0
H571 H 0.97657 0.11632 0.58792 0.0
H572 H 0.27478 0.95618 0.30289 0.0
H573 H 0.28835 0.93831 0.38934 0.0
H574 H 0.32215 0.98945 0.47777 0.0
H575 H 0.30883 0.00703 0.39166 0.0
H576 H 0.32868 0.93343 0.38876 0.0
H577 H 0.30744 0.96633 0.64728 0.0
H578 H 0.29222 0.96815 0.57317 0.0
H579 H 0.31272 0.98512 0.59749 0.0
C580 C 0.28455 0.96366 0.34254 0.0
C581 C 0.29093 0.98285 0.3411 0.0
C582 C 0.29221 0.95351 0.39182 0.0
C583 C 0.30598 0.96263 0.44072 0.0
C584 C 0.31111 0.98225 0.44189 0.0
H585 H 0.41059 0.98153 0.57702 0.0
H586 H 0.37494 0.97572 0.55694 0.0
C587 C 0.30371 0.99226 0.39232 0.0
C588 C 0.31859 0.95127 0.48008 0.0
H589 H 0.3437 0.95866 0.63146 0.0
C590 C 0.3315 0.93815 0.44273 0.0
C591 C 0.32199 0.95709 0.55063 0.0
C592 C 0.30765 0.96979 0.59445 0.0
C593 C 0.34959 0.9335 0.47114 0.0
C594 C 0.35451 0.94201 0.53867 0.0
C595 C 0.34004 0.95245 0.5792 0.0
C596 C 0.37566 0.94501 0.56015 0.0
C597 C 0.36437 0.92166 0.42604 0.0
C598 C 0.38788 0.92965 0.56924 0.0
C599 C 0.40846 0.93296 0.58057 0.0
C600 C 0.41697 0.95167 0.58334 0.0
C601 C 0.40449 0.96701 0.57614 0.0
C602 C 0.38409 0.96371 0.56476 0.0
H603 H 0.35824 0.91636 0.37425 0.0
H604 H 0.37821 0.93044 0.42071 0.0
H605 H 0.36857 0.90898 0.44966 0.0
H606 H 0.38161 0.91513 0.56625 0.0
H607 H 0.41771 0.92091 0.5869 0.0
H608 H 0.56098 0.2884 0.48591 0.0
H609 H 0.56598 0.31906 0.56149 0.0
H610 H 0.51088 0.30873 0.66523 0.0
H611 H 0.50561 0.27819 0.58809 0.0
H612 H 0.50939 0.33974 0.60171 0.0
H613 H 0.57958 0.34542 0.75173 0.0
H614 H 0.58355 0.3358 0.66369 0.0
H615 H 0.56815 0.32244 0.71572 0.0
C616 C 0.55053 0.29217 0.52736 0.0
C617 C 0.53285 0.28102 0.53095 0.0
C618 C 0.55339 0.30975 0.57069 0.0
C619 C 0.53876 0.31631 0.61896 0.0
C620 C 0.52237 0.30396 0.62833 0.0
H621 H 0.50913 0.43293 0.79961 0.0
H622 H 0.51244 0.39807 0.77498 0.0
C623 C 0.51946 0.28639 0.58471 0.0
C624 C 0.53824 0.33721 0.64744 0.0
H625 H 0.56614 0.37552 0.7293 0.0
C626 C 0.52166 0.34746 0.63077 0.0
C627 C 0.55442 0.3474 0.68407 0.0
C628 C 0.57234 0.33715 0.70539 0.0
C629 C 0.52098 0.36759 0.64806 0.0
C630 C 0.53721 0.37781 0.68399 0.0
C631 C 0.55375 0.36763 0.7015 0.0
C632 C 0.53691 0.39907 0.70406 0.0
C633 C 0.50313 0.37784 0.62581 0.0
C634 C 0.55002 0.41127 0.67385 0.0
C635 C 0.54821 0.43139 0.68793 0.0
C636 C 0.53323 0.43956 0.73239 0.0
C637 C 0.52065 0.42721 0.76429 0.0
C638 C 0.52253 0.40722 0.75047 0.0
H639 H 0.49424 0.36853 0.58552 0.0
H640 H 0.49321 0.38194 0.67032 0.0
H641 H 0.50793 0.39124 0.60617 0.0
H642 H 0.56124 0.40522 0.63789 0.0
H643 H 0.55823 0.44048 0.66292 0.0
H644 H 0.27465 0.50718 0.42336 0.0
H645 H 0.26148 0.5206 0.53511 0.0
H646 H 0.22638 0.56014 0.44136 0.0
H647 H 0.24072 0.54802 0.33073 0.0
H648 H 0.2364 0.57552 0.57082 0.0
H649 H 0.20626 0.50007 0.56344 0.0
H650 H 0.23293 0.50359 0.56771 0.0
H651 H 0.21959 0.50728 0.49221 0.0
C652 C 0.26472 0.51924 0.42678 0.0
C653 C 0.25821 0.5261 0.3676 0.0
C654 C 0.25704 0.52674 0.49076 0.0
C655 C 0.24236 0.54083 0.49617 0.0
C656 C 0.23749 0.54907 0.43837 0.0
H657 H 0.13361 0.57311 0.5993 0.0
H658 H 0.16963 0.57427 0.58366 0.0
C659 C 0.24546 0.5419 0.37483 0.0
C660 C 0.22958 0.54492 0.55756 0.0
H661 H 0.1907 0.52435 0.63458 0.0
C662 C 0.22675 0.56428 0.58628 0.0
C663 C 0.2171 0.53022 0.57845 0.0
C664 C 0.21896 0.50914 0.54882 0.0
C665 C 0.21054 0.56946 0.62973 0.0
C666 C 0.19693 0.55492 0.64456 0.0
C667 C 0.20115 0.53547 0.62271 0.0
C668 C 0.17631 0.55925 0.6682 0.0
C669 C 0.20742 0.59052 0.65583 0.0
C670 C 0.16806 0.55082 0.72204 0.0
C671 C 0.14733 0.55014 0.73116 0.0
C672 C 0.13452 0.55762 0.6859 0.0
C673 C 0.14298 0.56737 0.63548 0.0
C674 C 0.16367 0.56816 0.62671 0.0
H675 H 0.22199 0.59858 0.66381 0.0
H676 H 0.19885 0.5969 0.61731 0.0
H677 H 0.19894 0.59249 0.70453 0.0
H678 H 0.17754 0.54373 0.75426 0.0
H679 H 0.14128 0.54289 0.77148 0.0
H680 H 0.04225 0.7731 0.26342 0.0
H681 H 0.05255 0.79524 0.18482 0.0
H682 H 0.99168 0.79586 0.11358 0.0
H683 H 0.98144 0.77343 0.19141 0.0
H684 H 0.02441 0.80205 0.0123 0.0
H685 H 0.02873 0.8492 0.26543 0.0
H686 H 0.04368 0.82805 0.25625 0.0
H687 H 0.01687 0.82549 0.2539 0.0
C688 C 0.03135 0.77706 0.22796 0.0
C689 C 1.01111 0.77158 0.23297 0.0
C690 C 0.03719 0.78982 0.18356 0.0
C691 C 0.02279 0.79741 0.14446 0.0
C692 C 1.00301 0.79012 0.14333 0.0
H693 H 0.01734 0.91374 0.05818 0.0
H694 H 1.01092 0.88182 0.09012 0.0
C695 C 0.99718 0.77722 0.18742 0.0
C696 C 0.02731 0.81553 0.1171 0.0
H697 H 0.03656 0.86369 0.16917 0.0
C698 C 0.0272 0.81553 0.04633 0.0
C699 C 0.0305 0.83313 0.16197 0.0
C700 C 0.02981 0.83413 0.23864 0.0
C701 C 0.03043 0.83277 0.01921 0.0
C702 C 0.03394 0.85029 0.06422 0.0
C703 C 0.03395 0.85022 0.13487 0.0
C704 C 0.03719 0.86907 0.03981 0.0
C705 C 0.02957 0.83222 0.94291 0.0
C706 C 0.05414 0.87249 0.00115 0.0
C707 C 0.05784 0.89074 0.98274 0.0
C708 C 0.04469 0.9059 0.0029 0.0
C709 C 0.02765 0.90234 0.04121 0.0
C710 C 0.02399 0.88412 0.05966 0.0
H711 H 0.02237 0.81861 0.91664 0.0
H712 H 0.02121 0.84464 0.92987 0.0
H713 H 0.04501 0.83325 0.92293 0.0
H714 H 0.06471 0.86117 0.98637 0.0
H715 H 0.07098 0.89295 0.95256 0.0
H716 H 0.77689 0.01729 0.15554 0.0
H717 H 0.76333 0.03274 0.06368 0.0
H718 H 0.7324 0.07283 0.21284 0.0
H719 H 0.74696 0.05842 0.30412 0.0
H720 H 0.72664 0.02941 0.03785 0.0
H721 H 0.74132 0.10735 0.07772 0.0
H722 H 0.75633 0.09153 0.11939 0.0
H723 H 0.73369 0.10152 0.15873 0.0
C724 C 0.76794 0.02996 0.16876 0.0
C725 C 0.76262 0.03639 0.23701 0.0
C726 C 0.76014 0.03877 0.11614 0.0
C727 C 0.74684 0.05405 0.1309 0.0
C728 C 0.74297 0.06144 0.19951 0.0
H729 H 0.63396 0.07241 0.08467 0.0
H730 H 0.66991 0.07619 0.1023 0.0
C731 C 0.75098 0.05288 0.25193 0.0
C732 C 0.73354 0.05932 0.07702 0.0
H733 H 0.70555 0.09695 0.04513 0.0
C734 C 0.72263 0.04426 0.03704 0.0
C735 C 0.72835 0.07866 0.07471 0.0
C736 C 0.74078 0.09561 0.10953 0.0
C737 C 0.70514 0.04784 0.00279 0.0
C738 C 0.69845 0.06698 0.00875 0.0
C739 C 0.71058 0.08225 0.04168 0.0
C740 C 0.67728 0.07051 0.99493 0.0
C741 C 0.69281 0.03091 0.96672 0.0
C742 C 0.66952 0.06713 0.92838 0.0
C743 C 0.64882 0.06511 0.91795 0.0
C744 C 0.63566 0.06626 0.97403 0.0
C745 C 0.64353 0.07152 0.04024 0.0
C746 C 0.66415 0.07367 0.0505 0.0
H747 H 0.69988 0.01686 0.96882 0.0
H748 H 0.67772 0.0306 0.99013 0.0
H749 H 0.69082 0.03248 0.9123 0.0
H750 H 0.67946 0.06476 0.88488 0.0
H751 H 0.64322 0.06153 0.86616 0.0
H752 H 0.5689 0.70451 0.9997 0.0
H753 H 0.55949 0.67475 0.92511 0.0
H754 H 0.49773 0.69143 0.93395 0.0
H755 H 0.50721 0.72105 0.01153 0.0
H756 H 0.50034 0.65884 0.97605 0.0
H757 H 0.54352 0.65188 0.73814 0.0
H758 H 0.56052 0.65846 0.80807 0.0
H759 H 0.54125 0.67485 0.79275 0.0
C760 C 0.55348 0.70229 0.98276 0.0
C761 C 0.53878 0.71504 0.0112 0.0
C762 C 0.54806 0.68522 0.93989 0.0
C763 C 0.52785 0.68071 0.9235 0.0
C764 C 0.51342 0.69453 0.94581 0.0
H765 H 0.50958 0.56095 0.72036 0.0
H766 H 0.50848 0.59613 0.74296 0.0
C767 C 0.51885 0.7116 0.98941 0.0
C768 C 0.52173 0.66043 0.89534 0.0
H769 H 0.53613 0.62151 0.78209 0.0
C770 C 0.50783 0.65082 0.9325 0.0
C771 C 0.53116 0.64983 0.83798 0.0
C772 C 0.54476 0.65941 0.79166 0.0
C773 C 0.50411 0.63081 0.91678 0.0
C774 C 0.51515 0.61991 0.86399 0.0
C775 C 0.528 0.6297 0.82378 0.0
C776 C 0.51425 0.59838 0.85139 0.0
C777 C 0.48849 0.62162 0.95748 0.0
C778 C 0.51779 0.58777 0.90475 0.0
C779 C 0.51807 0.56756 0.89217 0.0
C780 C 0.51533 0.55757 0.82562 0.0
C781 C 0.51175 0.56819 0.7723 0.0
C782 C 0.51115 0.58835 0.7851 0.0
H783 H 0.47668 0.63201 0.97598 0.0
H784 H 0.48126 0.60866 0.92689 0.0
H785 H 0.49565 0.61728 0.00303 0.0
H786 H 0.5209 0.59512 0.95596 0.0
H787 H 0.52116 0.55983 0.93409 0.0
H788 H 0.80679 0.44312 0.24371 0.0
H789 H 0.82236 0.42809 0.13882 0.0
H790 H 0.78901 0.46421 0.02449 0.0
H791 H 0.77488 0.48078 0.13063 0.0
H792 H 0.81566 0.40948 0.01521 0.0
H793 H 0.84375 0.48413 0.99469 0.0
H794 H 0.82941 0.47907 0.06694 0.0
H795 H 0.81722 0.48001 0.98657 0.0
C796 C 0.80271 0.44791 0.1963 0.0
C797 C 0.79033 0.4638 0.19615 0.0
C798 C 0.8114 0.43906 0.136 0.0
C799 C 0.80752 0.44558 0.07399 0.0
C800 C 0.79288 0.45949 0.07217 0.0
H801 H 0.90782 0.43859 0.79484 0.0
H802 H 0.87186 0.43493 0.81411 0.0
C803 C 0.78458 0.46879 0.13297 0.0
C804 C 0.82121 0.43996 0.01563 0.0
H805 H 0.85968 0.45873 0.93099 0.0
C806 C 0.82499 0.42025 0.99546 0.0
C807 C 0.83339 0.454 0.98939 0.0
C808 C 0.83091 0.47547 0.01065 0.0
C809 C 0.84163 0.41432 0.955 0.0
C810 C 0.8546 0.42844 0.93366 0.0
C811 C 0.84963 0.44795 0.94754 0.0
C812 C 0.87523 0.4242 0.9099 0.0
C813 C 0.84586 0.39311 0.93863 0.0
C814 C 0.88902 0.41854 0.95585 0.0
C815 C 0.90955 0.42096 0.94571 0.0
C816 C 0.91661 0.42911 0.88942 0.0
C817 C 0.90281 0.43268 0.83953 0.0
C818 C 0.88226 0.43039 0.85 0.0
H819 H 0.83182 0.38418 0.93713 0.0
H820 H 0.85367 0.38971 0.8889 0.0
H821 H 0.85562 0.38904 0.97908 0.0
H822 H 0.88394 0.41409 0.00311 0.0
H823 H 0.91972 0.41816 0.98532 0.0
H824 H 0.10434 0.20442 0.1531 0.0
H825 H 0.10544 0.17296 0.07995 0.0
H826 H 0.05446 0.18766 0.9669 0.0
H827 H 0.05372 0.21932 0.03886 0.0
H828 H 0.07461 0.14834 0.08503 0.0
H829 H 0.08639 0.15761 0.8156 0.0
H830 H 0.09219 0.1766 0.88594 0.0
H831 H 0.06686 0.17241 0.8552 0.0
C832 C 0.09392 0.20118 0.11076 0.0
C833 C 0.07896 0.2142 0.10135 0.0
C834 C 0.09451 0.18322 0.06917 0.0
C835 C 0.08007 0.17794 0.0178 0.0
C836 C 0.06603 0.19153 0.00513 0.0
H837 H 0.02274 0.07416 0.81846 0.0
H838 H 0.03471 0.10706 0.86027 0.0
C839 C 0.06558 0.20962 0.04633 0.0
C840 C 0.07749 0.1574 0.98634 0.0
H841 H 0.07101 0.12735 0.83459 0.0
C842 C 0.07422 0.1437 0.03023 0.0
C843 C 0.07675 0.1514 0.91489 0.0
C844 C 0.08093 0.16527 0.86521 0.0
C845 C 0.06949 0.12433 0.00482 0.0
C846 C 0.06829 0.11841 0.93345 0.0
C847 C 0.07198 0.13197 0.88933 0.0
C848 C 0.062 0.09844 0.90418 0.0
C849 C 0.06493 0.11054 0.05466 0.0
C850 C 0.07354 0.08269 0.91423 0.0
C851 C 0.06669 0.0638 0.89082 0.0
C852 C 0.04819 0.06036 0.85673 0.0
C853 C 0.03695 0.07624 0.84519 0.0
C854 C 0.04381 0.09508 0.8686 0.0
H855 H 0.06248 0.11825 0.10723 0.0
H856 H 0.05142 0.10141 0.03843 0.0
H857 H 0.07773 0.10087 0.05628 0.0
H858 H 0.08776 0.08502 0.9408 0.0
H859 H 0.07582 0.05192 0.89989 0.0
H860 H 0.33262 0.02631 0.22069 0.0
H861 H 0.36388 0.02793 0.15727 0.0
H862 H 0.33654 0.99269 0.98208 0.0
H863 H 0.30496 0.99159 0.04526 0.0
H864 H 0.38681 0.99878 0.11323 0.0
H865 H 0.36543 0.03199 0.88863 0.0
H866 H 0.3493 0.03213 0.96179 0.0
H867 H 0.35045 0.01092 0.89795 0.0
C868 C 0.33312 0.01936 0.16797 0.0
C869 C 0.31625 0.00898 0.13776 0.0
C870 C 0.35106 0.02018 0.13179 0.0
C871 C 0.35274 0.01055 0.0644 0.0
C872 C 0.33567 1.00066 0.03327 0.0
H873 H 0.45654 0.9838 0.79929 0.0
H874 H 0.42321 0.98578 0.85072 0.0
C875 C 0.31756 1.00002 0.06941 0.0
C876 C 0.37276 0.00966 0.02968 0.0
H877 H 0.3977 0.01824 0.88566 0.0
C878 C 0.38914 0.00319 0.06366 0.0
C879 C 0.37599 0.01524 0.96464 0.0
C880 C 0.35941 0.02313 0.92635 0.0
C881 C 0.40841 0.00203 0.03465 0.0
C882 C 0.41164 0.00767 0.96987 0.0
C883 C 0.39528 0.01395 0.93536 0.0
C884 C 0.4319 0.00708 0.93735 0.0
C885 C 0.42512 0.9944 0.07317 0.0
C886 C 0.44796 0.01861 0.96811 0.0
C887 C 0.46711 0.01758 0.93864 0.0
C888 C 0.4707 0.00496 0.8776 0.0
C889 C 0.45447 0.99364 0.84638 0.0
C890 C 0.43532 0.99478 0.87568 0.0
H891 H 0.41932 0.98642 0.11369 0.0
H892 H 0.43464 0.98465 0.03803 0.0
H893 H 0.43469 0.0067 0.09791 0.0
H894 H 0.44569 0.02844 0.01512 0.0
H895 H 0.47912 0.02659 0.96412 0.0
H896 H 0.47707 0.27333 0.29409 0.0
H897 H 0.47015 0.29743 0.22003 0.0
H898 H 0.53329 0.31148 0.21281 0.0
H899 H 0.54022 0.28734 0.28558 0.0
H900 H 0.47905 0.33608 0.2607 0.0
H901 H 0.51685 0.31125 0.0158 0.0
H902 H 0.51112 0.2953 0.07702 0.0
H903 H 0.53303 0.31102 0.08778 0.0
C904 C 0.48949 0.28106 0.27445 0.0
C905 C 0.50918 0.27845 0.29534 0.0
C906 C 0.48552 0.29492 0.23265 0.0
C907 C 0.50121 0.30618 0.2104 0.0
C908 C 0.52097 0.30274 0.22807 0.0
H909 H 0.52346 0.41328 0.06536 0.0
H910 H 0.52399 0.38216 0.10638 0.0
C911 C 0.52492 0.289 0.26994 0.0
C912 C 0.49696 0.32311 0.17639 0.0
H913 H 0.51035 0.34526 0.04057 0.0
C914 C 0.48556 0.33794 0.2119 0.0
C915 C 0.50557 0.32559 0.11298 0.0
C916 C 0.51716 0.30985 0.07087 0.0
C917 C 0.48336 0.35554 0.18741 0.0
C918 C 0.49255 0.35826 0.12515 0.0
C919 C 0.50339 0.34319 0.08848 0.0
C920 C 0.49195 0.37698 0.09899 0.0
C921 C 0.47203 0.37141 0.23001 0.0
C922 C 0.47376 0.38436 0.08072 0.0
C923 C 0.4734 0.40216 0.05703 0.0
C924 C 0.49126 0.41288 0.05077 0.0
C925 C 0.50945 0.40534 0.06876 0.0
C926 C 0.50979 0.38757 0.09241 0.0
H927 H 0.46953 0.36848 0.28292 0.0
H928 H 0.48021 0.38552 0.23243 0.0
H929 H 0.4572 0.37266 0.20625 0.0
H930 H 0.45985 0.37627 0.08425 0.0
H931 H 0.45917 0.40736 0.0425 0.0
H932 H 0.2304 0.52979 0.13711 0.0
H933 H 0.19932 0.52652 0.07037 0.0
H934 H 0.20131 0.46457 0.05338 0.0
H935 H 0.23267 0.46779 0.12002 0.0
H936 H 0.1892 0.5032 0.93253 0.0
H937 H 0.14637 0.48164 0.15112 0.0
H938 H 0.17049 0.49401 0.16232 0.0
H939 H 0.1689 0.46898 0.12564 0.0
C940 C 0.22443 0.51544 0.11797 0.0
C941 C 0.23402 0.49904 0.13371 0.0
C942 C 0.20664 0.5136 0.07993 0.0
C943 C 0.19782 0.49533 0.05745 0.0
C944 C 0.20776 0.47884 0.07059 0.0
H945 H 0.07551 0.46819 0.90107 0.0
H946 H 0.10946 0.4662 0.94553 0.0
C947 C 0.22576 0.48067 0.10811 0.0
C948 C 0.17774 0.4938 0.02369 0.0
H949 H 0.12814 0.48479 0.05254 0.0
C950 C 0.17585 0.49904 0.95848 0.0
C951 C 0.16031 0.48836 0.05747 0.0
C952 C 0.16142 0.48301 0.12818 0.0
C953 C 0.15704 0.49896 0.92613 0.0
C954 C 0.13946 0.4941 0.96083 0.0
C955 C 0.14148 0.48854 0.02567 0.0
C956 C 0.11883 0.49518 0.93194 0.0
C957 C 0.15637 0.50379 0.85458 0.0
C958 C 0.11246 0.51219 0.91015 0.0
C959 C 0.0931 0.51329 0.88404 0.0
C960 C 0.07936 0.49754 0.88026 0.0
C961 C 0.0856 0.48062 0.90323 0.0
C962 C 0.10508 0.47946 0.92869 0.0
H963 H 0.17069 0.50043 0.82731 0.0
H964 H 0.144 0.49577 0.82422 0.0
H965 H 0.15408 0.51951 0.85714 0.0
H966 H 0.12238 0.52478 0.91398 0.0
H967 H 0.08888 0.52662 0.86733 0.0
H968 H 0.02598 0.8015 0.46723 0.0
H969 H 0.02369 0.83248 0.54153 0.0
H970 H 0.96045 0.82183 0.56757 0.0
H971 H 0.96263 0.79083 0.49119 0.0
H972 H 0.9679 0.85599 0.52505 0.0
H973 H 0.0177 0.85083 0.74258 0.0
H974 H 0.03039 0.84332 0.66364 0.0
H975 H 1.00866 0.82975 0.68557 0.0
C976 C 1.01169 0.80556 0.49018 0.0
C977 C 0.99447 0.79385 0.47334 0.0
C978 C 1.01042 0.8232 0.5331 0.0
C979 C 0.99194 0.82941 0.5607 0.0
C980 C 0.97488 0.81724 0.54711 0.0
H981 H 0.99898 0.9436 0.80897 0.0
H982 H 0.9899 0.90971 0.77154 0.0
C983 C 0.97616 0.7995 0.50398 0.0
C984 C 0.99026 0.84954 0.59591 0.0
H985 H 0.01358 0.88309 0.71486 0.0
C986 C 0.97756 0.86186 0.56758 0.0
C987 C 1.00263 0.85717 0.65196 0.0
C988 C 0.01543 0.84449 0.6881 0.0
C989 C 0.97784 0.88181 0.59106 0.0
C990 C 0.99155 0.88967 0.64297 0.0
C991 C 1.00331 0.87716 0.67415 0.0
C992 C 0.99464 0.91079 0.66415 0.0
C993 C 0.96357 0.89423 0.55948 0.0
C994 C 1.00004 0.92282 0.61611 0.0
C995 C 1.00501 0.94236 0.63733 0.0
C996 C 1.00507 0.95004 0.70706 0.0
C997 C 0.99921 0.93807 0.75481 0.0
C998 C 0.99399 0.91868 0.73355 0.0
H999 H 0.9499 0.88582 0.53979 0.0
H1000 H 0.95903 0.90686 0.59674 0.0
H1001 H 0.97099 0.89958 0.51562 0.0
H1002 H 1.00118 0.91696 0.56245 0.0
H1003 H 1.00964 0.9512 0.59955 0.0
H1004 H 0.74173 0.97678 0.43683 0.0
H1005 H 0.71152 0.97244 0.50428 0.0
H1006 H 0.69939 0.03294 0.51531 0.0
H1007 H 0.72984 0.03751 0.45151 0.0
H1008 H 0.69055 0.02192 0.63264 0.0
H1009 H 0.65596 0.96871 0.42644 0.0
H1010 H 0.67927 0.96132 0.45744 0.0
H1011 H 0.67878 0.98203 0.41406 0.0
C1012 C 0.73282 0.98921 0.45477 0.0
C1013 C 0.73811 0.00743 0.43755 0.0
C1014 C 0.71535 0.98667 0.49252 0.0
C1015 C 0.70271 0.00224 0.51339 0.0
C1016 C 0.70862 0.0206 0.49937 0.0
H1017 H 0.57537 1.00006 0.5982 0.0
H1018 H 0.609 1.00088 0.54965 0.0
C1019 C 0.72606 0.02317 0.46231 0.0
C1020 C 0.68309 0.99967 0.5482 0.0
H1021 H 0.63756 0.97582 0.52836 0.0
C1022 C 0.67901 0.01177 0.6099 0.0
C1023 C 0.66778 0.98667 0.51828 0.0
C1024 C 0.67052 0.97407 0.45012 0.0
C1025 C 0.66016 0.01142 0.64186 0.0
C1026 C 0.64497 0.99817 0.61254 0.0
C1027 C 0.64913 0.98591 0.55129 0.0
C1028 C 0.62443 0.99731 0.64271 0.0
C1029 C 0.65655 0.02589 0.7052 0.0
C1030 C 0.62163 0.99471 0.71108 0.0
C1031 C 0.60236 0.99449 0.73926 0.0
C1032 C 0.58532 0.99646 0.69942 0.0
C1033 C 0.58809 0.99847 0.63046 0.0
C1034 C 0.60738 0.99894 0.60257 0.0
H1035 H 0.66723 0.03845 0.70904 0.0
H1036 H 0.64109 0.03132 0.70605 0.0
H1037 H 0.6587 0.01887 0.75103 0.0
H1038 H 0.63436 0.9928 0.74285 0.0
H1039 H 0.60084 0.99266 0.79229 0.0
H1040 H 0.53249 0.73012 0.32126 0.0
H1041 H 0.53559 0.70727 0.40265 0.0
H1042 H 0.58233 0.67849 0.27925 0.0
H1043 H 0.57971 0.70151 0.19954 0.0
H1044 H 0.52742 0.66927 0.36885 0.0
H1045 H 0.60494 0.67847 0.46636 0.0
H1046 H 0.59333 0.69631 0.42376 0.0
H1047 H 0.60456 0.6755 0.37495 0.0
C1048 C 0.54392 0.71935 0.31303 0.0
C1049 C 0.55582 0.71755 0.25401 0.0
C1050 C 0.54558 0.70622 0.35923 0.0
C1051 C 0.55932 0.69123 0.34748 0.0
C1052 C 0.57194 0.69013 0.29046 0.0
H1053 H 0.57633 0.57724 0.42743 0.0
H1054 H 0.57645 0.60888 0.38989 0.0
C1055 C 0.5703 0.70321 0.24451 0.0
C1056 C 0.55882 0.67528 0.38899 0.0
H1057 H 0.58899 0.64704 0.46869 0.0
C1058 C 0.54079 0.66467 0.39206 0.0
C1059 C 0.57627 0.66922 0.41914 0.0
C1060 C 0.5958 0.68062 0.42151 0.0
C1061 C 0.53998 0.64759 0.42096 0.0
C1062 C 0.55765 0.64104 0.44789 0.0
C1063 C 0.5755 0.65203 0.44743 0.0
C1064 C 0.5581 0.62221 0.47302 0.0
C1065 C 0.52048 0.63615 0.41953 0.0
C1066 C 0.54791 0.61932 0.53265 0.0
C1067 C 0.54791 0.60128 0.55458 0.0
C1068 C 0.55811 0.58578 0.51719 0.0
C1069 C 0.56851 0.58887 0.45787 0.0
C1070 C 0.56854 0.60692 0.43618 0.0
H1071 H 0.50892 0.6417 0.38791 0.0
H1072 H 0.52284 0.6207 0.39923 0.0
H1073 H 0.51466 0.63695 0.47232 0.0
H1074 H 0.53997 0.63103 0.56225 0.0
H1075 H 0.54008 0.59955 0.60121 0.0
H1076 H 0.81542 0.52748 0.43354 0.0
H1077 H 0.84673 0.53163 0.50038 0.0
H1078 H 0.84889 0.46993 0.49298 0.0
H1079 H 0.81795 0.46575 0.42608 0.0
H1080 H 0.85998 0.52062 0.62444 0.0
H1081 H 0.90174 0.48296 0.40383 0.0
H1082 H 0.8766 0.49114 0.39613 0.0
H1083 H 0.88083 0.46895 0.42826 0.0
C1084 C 0.82237 0.51487 0.44752 0.0
C1085 C 0.81431 0.49628 0.42401 0.0
C1086 C 0.84033 0.51723 0.48535 0.0
C1087 C 0.85049 0.50105 0.50026 0.0
C1088 C 0.84167 0.48261 0.48068 0.0
H1089 H 0.94941 0.49298 0.77863 0.0
H1090 H 0.91688 0.49359 0.72357 0.0
C1091 C 0.82389 0.48025 0.4428 0.0
C1092 C 0.87068 0.50314 0.53342 0.0
H1093 H 0.91898 0.48855 0.5103 0.0
C1094 C 0.87291 0.51371 0.59936 0.0
C1095 C 0.88771 0.49444 0.50038 0.0
C1096 C 0.88672 0.4839 0.42799 0.0
C1097 C 0.89149 0.51526 0.63383 0.0
C1098 C 0.90829 0.50574 0.60201 0.0
C1099 C 0.90615 0.49569 0.53525 0.0
C1100 C 0.92818 0.50584 0.63681 0.0
C1101 C 0.89296 0.52732 0.70369 0.0
C1102 C 0.94566 0.51199 0.60588 0.0
C1103 C 0.96445 0.51139 0.63697 0.0
C1104 C 0.96627 0.50455 0.69981 0.0
C1105 C 0.94872 0.4984 0.73057 0.0
C1106 C 0.92997 0.49892 0.69931 0.0
H1107 H 0.88105 0.53819 0.71159 0.0
H1108 H 0.89106 0.51777 0.74309 0.0
H1109 H 0.90775 0.53495 0.71159 0.0
H1110 H 0.94478 0.51728 0.55746 0.0
H1111 H 0.97755 0.51625 0.6115 0.0
loop_
_geom_bond_atom_site_label_1
_geom_bond_atom_site_label_2
_geom_bond_distance
_geom_bond_site_symmetry_2
_ccdc_geom_bond_type
H0 C3 0.929 . S
H1 C6 0.929 . S
H2 C8 0.930 . S
C3 H0 0.929 . S
C3 C4 1.398 . S
C3 C5 1.396 . S
C4 C3 1.398 . S
C4 C8 1.407 . S
C5 C3 1.396 . S
C5 C6 1.394 . S
C6 H1 0.929 . S
C6 C5 1.394 . S
C6 C7 1.382 . S
C7 C6 1.382 . S
C7 C8 1.392 . S
C7 N9 1.420 . S
C8 H2 0.930 . S
C8 C4 1.407 . S
C8 C7 1.392 . S
N9 C7 1.420 . S
N9 C10 1.244 . S
C10 N9 1.244 . S
H11 C14 0.929 . S
H12 C17 0.929 . S
H13 C19 0.930 . S
C14 H11 0.929 . S
C14 C15 1.398 . S
C14 C16 1.396 . S
C15 C14 1.398 . S
C15 C19 1.407 . S
C16 C14 1.396 . S
C16 C17 1.394 . S
C17 H12 0.929 . S
C17 C16 1.394 . S
C17 C18 1.382 . S
C18 C17 1.382 . S
C18 C19 1.392 . S
C18 N20 1.420 . S
C19 H13 0.930 . S
C19 C15 1.407 . S
C19 C18 1.392 . S
N20 C18 1.420 . S
N20 C21 1.244 . S
C21 N20 1.244 . S
H22 C25 0.929 . S
H23 C28 0.929 . S
H24 C30 0.930 . S
C25 H22 0.929 . S
C25 C26 1.400 1_565 S
C25 C27 1.393 1_565 S
C26 C25 1.400 1_545 S
C26 C30 1.413 . S
C27 C25 1.393 1_545 S
C27 C28 1.396 . S
C28 H23 0.929 . S
C28 C27 1.396 . S
C28 C29 1.382 . S
C29 C28 1.382 . S
C29 C30 1.392 . S
C29 N31 1.420 . S
C30 H24 0.930 . S
C30 C26 1.413 . S
C30 C29 1.392 . S
N31 C29 1.420 . S
N31 C32 1.235 1_545 S
C32 N31 1.235 1_565 S
H33 C36 0.929 . S
H34 C39 0.929 . S
H35 C41 0.930 . S
C36 H33 0.929 . S
C36 C37 1.398 . S
C36 C38 1.396 1_554 S
C37 C36 1.398 . S
C37 C41 1.407 . S
C38 C36 1.396 1_556 S
C38 C39 1.394 . S
C39 H34 0.929 . S
C39 C38 1.394 . S
C39 C40 1.382 1_556 S
C40 C39 1.382 1_554 S
C40 C41 1.392 . S
C40 N42 1.420 . S
C41 H35 0.930 . S
C41 C37 1.407 . S
C41 C40 1.392 . S
N42 C40 1.420 . S
N42 C43 1.244 1_554 S
C43 N42 1.244 1_556 S
H44 C47 0.929 . S
H45 C50 0.929 . S
H46 C52 0.930 . S
C47 H44 0.929 . S
C47 C48 1.398 . S
C47 C49 1.396 . S
C48 C47 1.398 . S
C48 C52 1.407 . S
C49 C47 1.396 . S
C49 C50 1.394 . S
C50 H45 0.929 . S
C50 C49 1.394 . S
C50 C51 1.382 . S
C51 C50 1.382 . S
C51 C52 1.392 . S
C51 N53 1.420 . S
C52 H46 0.930 . S
C52 C48 1.407 . S
C52 C51 1.392 . S
N53 C51 1.420 . S
N53 C54 1.244 . S
C54 N53 1.244 . S
H55 C58 0.929 . S
H56 C61 0.929 . S
H57 C63 0.930 . S
C58 H55 0.929 . S
C58 C59 1.398 . S
C58 C60 1.396 . S
C59 C58 1.398 . S
C59 C63 1.407 . S
C60 C58 1.396 . S
C60 C61 1.394 . S
C61 H56 0.929 . S
C61 C60 1.394 . S
C61 C62 1.382 . S
C62 C61 1.382 . S
C62 C63 1.392 . S
C62 N64 1.420 . S
C63 H57 0.930 . S
C63 C59 1.407 . S
C63 C62 1.392 . S
N64 C62 1.420 . S
N64 C65 1.244 . S
C65 N64 1.244 . S
H66 C69 0.929 . S
H67 C72 0.929 . S
H68 C74 0.930 . S
C69 H66 0.929 . S
C69 C70 1.388 1_565 S
C69 C71 1.397 1_565 S
C70 C69 1.388 1_545 S
C70 C74 1.416 . S
C71 C69 1.397 1_545 S
C71 C72 1.399 . S
C72 H67 0.929 . S
C72 C71 1.399 . S
C72 C73 1.382 . S
C73 C72 1.382 . S
C73 C74 1.392 . S
C73 N75 1.420 . S
C74 H68 0.930 . S
C74 C70 1.416 . S
C74 C73 1.392 . S
N75 C73 1.420 . S
N75 C76 1.236 1_545 S
C76 N75 1.236 1_565 S
H77 C80 0.929 . S
H78 C83 0.929 . S
H79 C85 0.930 . S
C80 H77 0.929 . S
C80 C81 1.398 . S
C80 C82 1.396 . S
C81 C80 1.398 . S
C81 C85 1.407 . S
C82 C80 1.396 . S
C82 C83 1.394 . S
C83 H78 0.929 . S
C83 C82 1.394 . S
C83 C84 1.382 . S
C84 C83 1.382 . S
C84 C85 1.392 . S
C84 N86 1.420 . S
C85 H79 0.930 . S
C85 C81 1.407 . S
C85 C84 1.392 . S
N86 C84 1.420 . S
N86 C87 1.244 . S
C87 N86 1.244 . S
Tb88 C97 2.762 1_455 S
Tb88 O98 2.338 . S
Tb88 O101 2.344 . S
Tb88 O105 2.319 1_445 S
Tb88 O106 2.315 1_455 S
Tb88 O109 2.433 . S
Tb88 O110 2.378 1_455 S
Tb89 O99 2.322 1_565 S
Tb89 O100 2.349 . S
Tb89 O102 2.415 . S
Tb89 O103 2.399 . S
Tb89 O104 2.325 . S
Tb89 O107 2.303 1_455 S
Tb89 C118 2.764 . S
C90 O106 1.261 . S
C90 O107 1.257 1_545 S
C91 C94 1.397 . S
C91 C95 1.297 1_655 S
C91 C97 1.503 . S
C92 C93 1.373 . S
C92 C96 1.308 1_655 S
C93 C92 1.373 . S
C93 C94 1.429 . S
C93 H120 0.932 . S
C94 C91 1.397 . S
C94 C93 1.429 . S
C94 H121 0.930 . S
C95 C91 1.297 1_455 S
C95 C96 1.394 . S
C95 H122 0.932 . S
C96 C92 1.308 1_455 S
C96 C95 1.394 . S
C96 H123 0.929 . S
C97 Tb88 2.762 1_655 S
C97 C91 1.503 . S
C97 O109 1.229 1_655 S
C97 O110 1.272 . S
O98 Tb88 2.338 . S
O98 C108 1.236 . S
O99 Tb89 2.322 1_545 S
O99 C108 1.257 . S
O100 Tb89 2.349 . S
O100 C111 1.261 . S
O101 Tb88 2.344 . S
O101 C111 1.257 1_545 S
O102 Tb89 2.415 . S
O102 C118 1.239 . S
O103 Tb89 2.399 . S
O103 C118 1.263 . S
O104 Tb89 2.325 . S
O104 C119 1.236 . S
O105 Tb88 2.319 1_665 S
O105 C119 1.257 1_655 S
O106 Tb88 2.315 1_655 S
O106 C90 1.261 . S
O107 Tb89 2.303 1_655 S
O107 C90 1.257 1_565 S
C108 O98 1.236 . S
C108 O99 1.257 . S
O109 Tb88 2.433 . S
O109 C97 1.229 1_455 S
O110 Tb88 2.378 1_655 S
O110 C97 1.272 . S
C111 O100 1.261 . S
C111 O101 1.257 1_565 S
C112 C115 1.358 . S
C112 C116 1.332 . S
C112 C118 1.504 . S
C113 C114 1.373 . S
C113 C117 1.308 . S
C114 C113 1.373 . S
C114 C115 1.429 . S
C114 H124 0.932 . S
C115 C112 1.358 . S
C115 C114 1.429 . S
C115 H125 0.930 . S
C116 C112 1.332 . S
C116 C117 1.394 . S
C116 H126 0.984 . S
C117 C113 1.308 . S
C117 C116 1.394 . S
C117 H127 0.929 . S
C118 Tb89 2.764 . S
C118 O102 1.239 . S
C118 O103 1.263 . S
C118 C112 1.504 . S
C119 O104 1.236 . S
C119 O105 1.257 1_455 S
H120 C93 0.932 . S
H121 C94 0.930 . S
H122 C95 0.932 . S
H123 C96 0.929 . S
H124 C114 0.932 . S
H125 C115 0.930 . S
H126 C116 0.984 . S
H127 C117 0.929 . S
Tb128 C137 2.764 . S
Tb128 O138 2.325 . S
Tb128 O141 2.303 1_565 S
Tb128 O145 2.322 . S
Tb128 O146 2.349 . S
Tb128 O149 2.415 1_565 S
Tb128 O150 2.399 . S
Tb129 O139 2.322 . S
Tb129 O140 2.349 . S
Tb129 O142 2.415 1_545 S
Tb129 O143 2.399 . S
Tb129 O144 2.325 . S
Tb129 O147 2.303 1_545 S
Tb129 C158 2.764 . S
C130 O146 1.261 . S
C130 O147 1.257 . S
C131 C134 1.358 . S
C131 C135 1.332 1_565 S
C131 C137 1.504 . S
C132 C133 1.373 . S
C132 C136 1.308 1_565 S
C133 C132 1.373 . S
C133 C134 1.429 . S
C133 H160 0.932 . S
C134 C131 1.358 . S
C134 C133 1.429 . S
C134 H161 0.930 . S
C135 C131 1.332 1_545 S
C135 C136 1.394 . S
C135 H162 0.932 . S
C136 C132 1.308 1_545 S
C136 C135 1.394 . S
C136 H163 0.929 . S
C137 Tb128 2.764 . S
C137 C131 1.504 . S
C137 O149 1.239 1_565 S
C137 O150 1.263 . S
O138 Tb128 2.325 . S
O138 C148 1.236 1_565 S
O139 Tb129 2.322 . S
O139 C148 1.257 . S
O140 Tb129 2.349 . S
O140 C151 1.261 . S
O141 Tb128 2.303 1_545 S
O141 C151 1.257 . S
O142 Tb129 2.415 1_565 S
O142 C158 1.239 1_565 S
O143 Tb129 2.399 . S
O143 C158 1.263 . S
O144 Tb129 2.325 . S
O144 C159 1.236 1_545 S
O145 Tb128 2.322 . S
O145 C159 1.257 . S
O146 Tb128 2.349 . S
O146 C130 1.261 . S
O147 Tb129 2.303 1_565 S
O147 C130 1.257 . S
C148 O138 1.236 1_545 S
C148 O139 1.257 . S
O149 Tb128 2.415 1_545 S
O149 C137 1.239 1_545 S
O150 Tb128 2.399 . S
O150 C137 1.263 . S
C151 O140 1.261 . S
C151 O141 1.257 . S
C152 C155 1.358 1_556 S
C152 C156 1.332 1_545 S
C152 C158 1.504 . S
C153 C154 1.373 . S
C153 C157 1.306 1_544 S
C154 C153 1.373 . S
C154 C155 1.429 . S
C154 H164 0.932 . S
C155 C152 1.358 1_554 S
C155 C154 1.429 . S
C155 H165 0.930 . S
C156 C152 1.332 1_565 S
C156 C157 1.396 . S
C156 H166 0.932 . S
C157 C153 1.306 1_566 S
C157 C156 1.396 . S
C157 H167 0.929 . S
C158 Tb129 2.764 . S
C158 O142 1.239 1_545 S
C158 O143 1.263 . S
C158 C152 1.504 . S
C159 O144 1.236 1_565 S
C159 O145 1.257 . S
H160 C133 0.932 . S
H161 C134 0.930 . S
H162 C135 0.932 . S
H163 C136 0.929 . S
H164 C154 0.932 . S
H165 C155 0.930 . S
H166 C156 0.932 . S
H167 C157 0.929 . S
Tb168 C177 2.764 . S
Tb168 O178 2.325 . S
Tb168 O181 2.303 . S
Tb168 O185 2.322 . S
Tb168 O186 2.349 . S
Tb168 O189 2.415 . S
Tb168 O190 2.399 . S
Tb169 O179 2.322 . S
Tb169 O180 2.349 . S
Tb169 O182 2.415 . S
Tb169 O183 2.399 . S
Tb169 O184 2.325 . S
Tb169 O187 2.303 . S
Tb169 C198 2.764 . S
C170 O186 1.261 . S
C170 O187 1.257 . S
C171 C174 1.354 1_556 S
C171 C175 1.332 1_556 S
C171 C177 1.504 . S
C172 C173 1.373 . S
C172 C176 1.308 . S
C173 C172 1.373 . S
C173 C174 1.439 . S
C173 H200 0.932 . S
C174 C171 1.354 1_554 S
C174 C173 1.439 . S
C174 H201 0.924 1_554 S
C175 C171 1.332 1_554 S
C175 C176 1.394 . S
C175 H202 0.932 1_554 S
C176 C172 1.308 . S
C176 C175 1.394 . S
C176 H203 0.929 . S
C177 Tb168 2.764 . S
C177 C171 1.504 . S
C177 O189 1.239 . S
C177 O190 1.263 . S
O178 Tb168 2.325 . S
O178 C188 1.236 . S
O179 Tb169 2.322 . S
O179 C188 1.257 . S
O180 Tb169 2.349 . S
O180 C191 1.261 . S
O181 Tb168 2.303 . S
O181 C191 1.257 . S
O182 Tb169 2.415 . S
O182 C198 1.239 . S
O183 Tb169 2.399 . S
O183 C198 1.263 . S
O184 Tb169 2.325 . S
O184 C199 1.236 . S
O185 Tb168 2.322 . S
O185 C199 1.257 . S
O186 Tb168 2.349 . S
O186 C170 1.261 . S
O187 Tb169 2.303 . S
O187 C170 1.257 . S
C188 O178 1.236 . S
C188 O179 1.257 . S
O189 Tb168 2.415 . S
O189 C177 1.239 . S
O190 Tb168 2.399 . S
O190 C177 1.263 . S
C191 O180 1.261 . S
C191 O181 1.257 . S
C192 C195 1.358 . S
C192 C196 1.332 . S
C192 C198 1.504 . S
C193 C194 1.373 . S
C193 C197 1.308 . S
C194 C193 1.373 . S
C194 C195 1.429 . S
C194 H204 0.932 . S
C195 C192 1.358 . S
C195 C194 1.429 . S
C195 H205 0.930 . S
C196 C192 1.332 . S
C196 C197 1.394 . S
C196 H206 0.932 . S
C197 C193 1.308 . S
C197 C196 1.394 . S
C197 H207 0.929 . S
C198 Tb169 2.764 . S
C198 O182 1.239 . S
C198 O183 1.263 . S
C198 C192 1.504 . S
C199 O184 1.236 . S
C199 O185 1.257 . S
H200 C173 0.932 . S
H201 C174 0.924 1_556 S
H202 C175 0.932 1_556 S
H203 C176 0.929 . S
H204 C194 0.932 . S
H205 C195 0.930 . S
H206 C196 0.932 . S
H207 C197 0.929 . S
Tb208 C217 2.764 . S
Tb208 O218 2.325 . S
Tb208 O221 2.303 . S
Tb208 O225 2.322 1_455 S
Tb208 O226 2.349 . S
Tb208 O229 2.415 . S
Tb208 O230 2.399 . S
Tb209 O219 2.376 . S
Tb209 O220 2.358 . S
Tb209 O222 2.372 1_455 S
Tb209 O223 2.356 1_455 S
Tb209 O224 2.291 1_455 S
Tb209 O227 2.317 . S
Tb209 C238 2.716 1_455 S
C210 O226 1.261 . S
C210 O227 1.257 . S
C211 C214 1.358 . S
C211 C215 1.332 . S
C211 C217 1.504 . S
C212 C213 1.373 . S
C212 C216 1.308 . S
C213 C212 1.373 . S
C213 C214 1.429 . S
C213 H240 0.932 . S
C214 C211 1.358 . S
C214 C213 1.429 . S
C214 H241 0.930 . S
C215 C211 1.332 . S
C215 C216 1.394 . S
C215 H242 0.932 . S
C216 C212 1.308 . S
C216 C215 1.394 . S
C216 H243 0.929 . S
C217 Tb208 2.764 . S
C217 C211 1.504 . S
C217 O229 1.239 . S
C217 O230 1.263 . S
O218 Tb208 2.325 . S
O218 C228 1.236 . S
O219 Tb209 2.376 . S
O219 C228 1.257 . S
O220 Tb209 2.358 . S
O220 C231 1.261 . S
O221 Tb208 2.303 . S
O221 C231 1.257 . S
O222 Tb209 2.372 1_655 S
O222 C238 1.239 . S
O223 Tb209 2.356 1_655 S
O223 C238 1.263 . S
O224 Tb209 2.291 1_655 S
O224 C239 1.236 . S
O225 Tb208 2.322 1_655 S
O225 C239 1.257 . S
O226 Tb208 2.349 . S
O226 C210 1.261 . S
O227 Tb209 2.317 . S
O227 C210 1.257 . S
C228 O218 1.236 . S
C228 O219 1.257 . S
O229 Tb208 2.415 . S
O229 C217 1.239 . S
O230 Tb208 2.399 . S
O230 C217 1.263 . S
C231 O220 1.261 . S
C231 O221 1.257 . S
C232 C235 1.358 . S
C232 C236 1.332 . S
C232 C238 1.504 . S
C233 C234 1.373 . S
C233 C237 1.308 . S
C234 C233 1.373 . S
C234 C235 1.430 1_554 S
C234 H244 0.931 . S
C235 C232 1.358 . S
C235 C234 1.430 1_556 S
C235 H245 0.930 . S
C236 C232 1.332 . S
C236 C237 1.394 1_556 S
C236 H246 0.932 . S
C237 C233 1.308 . S
C237 C236 1.394 1_554 S
C237 H247 0.929 . S
C238 Tb209 2.716 1_655 S
C238 O222 1.239 . S
C238 O223 1.263 . S
C238 C232 1.504 . S
C239 O224 1.236 . S
C239 O225 1.257 . S
H240 C213 0.932 . S
H241 C214 0.930 . S
H242 C215 0.932 . S
H243 C216 0.929 . S
H244 C234 0.931 . S
H245 C235 0.930 . S
H246 C236 0.932 . S
H247 C237 0.929 . S
H248 C256 0.929 . S
H249 C258 0.930 . S
H250 C260 0.930 . S
H251 C263 0.929 . S
H252 C266 0.930 . S
H253 C268 0.960 . S
H254 C268 0.941 1_545 S
H255 C268 0.960 . S
C256 H248 0.929 . S
C256 C257 1.398 . S
C256 C258 1.384 . S
C257 C256 1.398 . S
C257 C263 1.368 1_545 S
C258 H249 0.930 . S
C258 C256 1.384 . S
C258 C259 1.372 . S
C259 C258 1.372 . S
C259 C260 1.400 1_545 S
C259 C264 1.490 . S
C260 H250 0.930 . S
C260 C259 1.400 1_565 S
C260 C263 1.386 . S
H261 C277 0.930 . S
H262 C278 0.931 . S
C263 H251 0.929 . S
C263 C257 1.368 1_565 S
C263 C260 1.386 . S
C264 C259 1.490 . S
C264 C266 1.395 . S
C264 C267 1.403 1_545 S
H265 C271 0.930 . S
C266 H252 0.930 . S
C266 C264 1.395 . S
C266 C269 1.403 . S
C267 C264 1.403 1_565 S
C267 C268 1.524 . S
C267 C271 1.400 . S
C268 H253 0.960 . S
C268 H254 0.941 1_565 S
C268 H255 0.960 . S
C268 C267 1.524 . S
C269 C266 1.403 . S
C269 C270 1.392 . S
C269 C273 1.495 . S
C270 C269 1.392 . S
C270 C271 1.385 1_545 S
C270 C272 1.478 . S
C271 H265 0.930 . S
C271 C267 1.400 . S
C271 C270 1.385 1_565 S
C272 C270 1.478 . S
C272 C274 1.381 . S
C272 C278 1.383 1_545 S
C273 C269 1.495 . S
C273 H279 0.959 . S
C273 H280 0.961 . S
C273 H281 0.960 . S
C274 C272 1.381 . S
C274 C275 1.394 . S
C274 H282 0.930 . S
C275 C274 1.394 . S
C275 C276 1.383 . S
C275 H283 0.929 . S
C276 C275 1.383 . S
C276 C277 1.377 1_545 S
C277 H261 0.930 . S
C277 C276 1.377 1_565 S
C277 C278 1.379 . S
C278 H262 0.931 . S
C278 C272 1.383 1_565 S
C278 C277 1.379 . S
H279 C273 0.959 . S
H280 C273 0.961 . S
H281 C273 0.960 . S
H282 C274 0.930 . S
H283 C275 0.929 . S
H284 C292 0.929 . S
H285 C294 0.930 . S
H286 C296 0.930 . S
H287 C299 0.929 . S
H288 C302 0.930 . S
H289 C304 0.960 . S
H290 C304 0.960 . S
H291 C304 0.960 . S
C292 H284 0.929 . S
C292 C293 1.377 . S
C292 C294 1.384 . S
C293 C292 1.377 . S
C293 C299 1.390 . S
C294 H285 0.930 . S
C294 C292 1.384 . S
C294 C295 1.372 . S
C295 C294 1.372 . S
C295 C296 1.400 . S
C295 C300 1.490 . S
C296 H286 0.930 . S
C296 C295 1.400 . S
C296 C299 1.386 . S
H297 C313 0.930 . S
H298 C314 0.931 . S
C299 H287 0.929 . S
C299 C293 1.390 . S
C299 C296 1.386 . S
C300 C295 1.490 . S
C300 C302 1.395 . S
C300 C303 1.403 . S
H301 C307 0.930 . S
C302 H288 0.930 . S
C302 C300 1.395 . S
C302 C305 1.403 . S
C303 C300 1.403 . S
C303 C304 1.524 . S
C303 C307 1.400 . S
C304 H289 0.960 . S
C304 H290 0.960 . S
C304 H291 0.960 . S
C304 C303 1.524 . S
C305 C302 1.403 . S
C305 C306 1.392 . S
C305 C309 1.495 . S
C306 C305 1.392 . S
C306 C307 1.385 . S
C306 C308 1.478 . S
C307 H301 0.930 . S
C307 C303 1.400 . S
C307 C306 1.385 . S
C308 C306 1.478 . S
C308 C310 1.381 . S
C308 C314 1.383 . S
C309 C305 1.495 . S
C309 H315 0.959 . S
C309 H316 0.961 . S
C309 H317 0.960 . S
C310 C308 1.381 . S
C310 C311 1.394 . S
C310 H318 0.930 . S
C311 C310 1.394 . S
C311 C312 1.383 . S
C311 H319 0.929 . S
C312 C311 1.383 . S
C312 C313 1.377 . S
C313 H297 0.930 . S
C313 C312 1.377 . S
C313 C314 1.379 . S
C314 H298 0.931 . S
C314 C308 1.383 . S
C314 C313 1.379 . S
H315 C309 0.959 . S
H316 C309 0.961 . S
H317 C309 0.960 . S
H318 C310 0.930 . S
H319 C311 0.929 . S
H320 C328 0.929 . S
H321 C330 0.930 . S
H322 C332 0.930 . S
H323 C335 0.929 . S
H324 C338 0.930 . S
H325 C340 0.960 . S
H326 C340 0.960 . S
H327 C340 0.960 . S
C328 H320 0.929 . S
C328 C329 1.377 . S
C328 C330 1.384 . S
C329 C328 1.377 . S
C329 C335 1.390 . S
C330 H321 0.930 . S
C330 C328 1.384 . S
C330 C331 1.372 . S
C331 C330 1.372 . S
C331 C332 1.400 . S
C331 C336 1.490 . S
C332 H322 0.930 . S
C332 C331 1.400 . S
C332 C335 1.386 . S
H333 C349 0.930 . S
H334 C350 0.931 . S
C335 H323 0.929 . S
C335 C329 1.390 . S
C335 C332 1.386 . S
C336 C331 1.490 . S
C336 C338 1.395 . S
C336 C339 1.403 . S
H337 C343 0.930 . S
C338 H324 0.930 . S
C338 C336 1.395 . S
C338 C341 1.403 . S
C339 C336 1.403 . S
C339 C340 1.524 . S
C339 C343 1.400 . S
C340 H325 0.960 . S
C340 H326 0.960 . S
C340 H327 0.960 . S
C340 C339 1.524 . S
C341 C338 1.403 . S
C341 C342 1.392 . S
C341 C345 1.495 . S
C342 C341 1.392 . S
C342 C343 1.385 . S
C342 C344 1.478 . S
C343 H337 0.930 . S
C343 C339 1.400 . S
C343 C342 1.385 . S
C344 C342 1.478 . S
C344 C346 1.381 . S
C344 C350 1.383 . S
C345 C341 1.495 . S
C345 H351 0.959 . S
C345 H352 0.961 . S
C345 H353 0.960 . S
C346 C344 1.381 . S
C346 C347 1.394 . S
C346 H354 0.930 . S
C347 C346 1.394 . S
C347 C348 1.383 . S
C347 H355 0.929 . S
C348 C347 1.383 . S
C348 C349 1.377 . S
C349 H333 0.930 . S
C349 C348 1.377 . S
C349 C350 1.379 . S
C350 H334 0.931 . S
C350 C344 1.383 . S
C350 C349 1.379 . S
H351 C345 0.959 . S
H352 C345 0.961 . S
H353 C345 0.960 . S
H354 C346 0.930 . S
H355 C347 0.929 . S
H356 C364 0.929 . S
H357 C366 0.930 . S
H358 C368 0.930 . S
H359 C371 0.929 . S
H360 C374 0.930 . S
H361 C376 0.960 1_655 S
H362 C376 0.960 1_655 S
H363 C376 0.960 . S
C364 H356 0.929 . S
C364 C365 1.377 . S
C364 C366 1.384 . S
C365 C364 1.377 . S
C365 C371 1.390 . S
C366 H357 0.930 . S
C366 C364 1.384 . S
C366 C367 1.372 . S
C367 C366 1.372 . S
C367 C368 1.400 . S
C367 C372 1.490 . S
C368 H358 0.930 . S
C368 C367 1.400 . S
C368 C371 1.386 . S
H369 C385 0.930 . S
H370 C386 0.931 . S
C371 H359 0.929 . S
C371 C365 1.390 . S
C371 C368 1.386 . S
C372 C367 1.490 . S
C372 C374 1.395 . S
C372 C375 1.403 . S
H373 C379 0.930 . S
C374 H360 0.930 . S
C374 C372 1.395 . S
C374 C377 1.403 . S
C375 C372 1.403 . S
C375 C376 1.524 . S
C375 C379 1.400 . S
C376 H361 0.960 1_455 S
C376 H362 0.960 1_455 S
C376 H363 0.960 . S
C376 C375 1.524 . S
C377 C374 1.403 . S
C377 C378 1.392 . S
C377 C381 1.495 . S
C378 C377 1.392 . S
C378 C379 1.385 . S
C378 C380 1.478 . S
C379 H373 0.930 . S
C379 C375 1.400 . S
C379 C378 1.385 . S
C380 C378 1.478 . S
C380 C382 1.381 . S
C380 C386 1.383 . S
C381 C377 1.495 . S
C381 H387 0.959 . S
C381 H388 0.961 . S
C381 H389 0.960 . S
C382 C380 1.381 . S
C382 C383 1.394 . S
C382 H390 0.930 . S
C383 C382 1.394 . S
C383 C384 1.383 . S
C383 H391 0.929 . S
C384 C383 1.383 . S
C384 C385 1.377 . S
C385 H369 0.930 . S
C385 C384 1.377 . S
C385 C386 1.379 . S
C386 H370 0.931 . S
C386 C380 1.383 . S
C386 C385 1.379 . S
H387 C381 0.959 . S
H388 C381 0.961 . S
H389 C381 0.960 . S
H390 C382 0.930 . S
H391 C383 0.929 . S
H392 C400 0.929 . S
H393 C402 0.930 . S
H394 C404 0.930 . S
H395 C407 0.929 . S
H396 C410 0.926 . S
H397 C412 0.960 . S
H398 C412 0.960 . S
H399 C412 0.960 1_565 S
C400 H392 0.929 . S
C400 C401 1.385 . S
C400 C402 1.384 . S
C401 C400 1.385 . S
C401 C407 1.383 1_545 S
C402 H393 0.930 . S
C402 C400 1.384 . S
C402 C403 1.395 . S
C403 C402 1.395 . S
C403 C404 1.373 1_545 S
C403 C408 1.491 . S
C404 H394 0.930 . S
C404 C403 1.373 1_565 S
C404 C407 1.386 . S
H405 C421 0.930 . S
H406 C422 0.931 . S
C407 H395 0.929 . S
C407 C401 1.383 1_565 S
C407 C404 1.386 . S
C408 C403 1.491 . S
C408 C410 1.388 1_545 S
C408 C411 1.408 . S
H409 C415 0.926 1_556 S
C410 H396 0.926 . S
C410 C408 1.388 1_565 S
C410 C413 1.402 . S
C411 C408 1.408 . S
C411 C412 1.524 . S
C411 C415 1.399 . S
C412 H397 0.960 . S
C412 H398 0.960 . S
C412 H399 0.960 1_545 S
C412 C411 1.524 . S
C413 C410 1.402 . S
C413 C414 1.398 . S
C413 C417 1.495 . S
C414 C413 1.398 . S
C414 C415 1.378 1_565 S
C414 C416 1.488 . S
C415 H409 0.926 1_554 S
C415 C411 1.399 . S
C415 C414 1.378 1_545 S
C416 C414 1.488 . S
C416 C418 1.380 1_565 S
C416 C422 1.372 1_554 S
C417 C413 1.495 . S
C417 H423 0.959 . S
C417 H424 0.961 . S
C417 H425 0.960 1_565 S
C418 C416 1.380 1_545 S
C418 C419 1.386 1_554 S
C418 H426 0.937 . S
C419 C418 1.386 1_556 S
C419 C420 1.383 1_545 S
C419 H427 0.929 . S
C420 C419 1.383 1_565 S
C420 C421 1.377 . S
C421 H405 0.930 . S
C421 C420 1.377 . S
C421 C422 1.379 . S
C422 H406 0.931 . S
C422 C416 1.372 1_556 S
C422 C421 1.379 . S
H423 C417 0.959 . S
H424 C417 0.961 . S
H425 C417 0.960 1_545 S
H426 C418 0.937 . S
H427 C419 0.929 . S
H428 C436 0.929 . S
H429 C438 0.930 1_554 S
H430 C440 0.930 . S
H431 C443 0.929 . S
H432 C446 0.930 . S
H433 C448 0.960 . S
H434 C448 0.960 . S
H435 C448 0.960 . S
C436 H428 0.929 . S
C436 C437 1.377 1_554 S
C436 C438 1.384 1_554 S
C437 C436 1.377 1_556 S
C437 C443 1.390 . S
C438 H429 0.930 1_556 S
C438 C436 1.384 1_556 S
C438 C439 1.372 . S
C439 C438 1.372 . S
C439 C440 1.400 . S
C439 C444 1.490 . S
C440 H430 0.930 . S
C440 C439 1.400 . S
C440 C443 1.386 . S
H441 C457 0.930 . S
H442 C458 0.931 . S
C443 H431 0.929 . S
C443 C437 1.390 . S
C443 C440 1.386 . S
C444 C439 1.490 . S
C444 C446 1.395 . S
C444 C447 1.403 . S
H445 C451 0.930 . S
C446 H432 0.930 . S
C446 C444 1.395 . S
C446 C449 1.403 . S
C447 C444 1.403 . S
C447 C448 1.524 . S
C447 C451 1.400 . S
C448 H433 0.960 . S
C448 H434 0.960 . S
C448 H435 0.960 . S
C448 C447 1.524 . S
C449 C446 1.403 . S
C449 C450 1.392 . S
C449 C453 1.495 . S
C450 C449 1.392 . S
C450 C451 1.385 . S
C450 C452 1.478 . S
C451 H445 0.930 . S
C451 C447 1.400 . S
C451 C450 1.385 . S
C452 C450 1.478 . S
C452 C454 1.381 . S
C452 C458 1.383 . S
C453 C449 1.495 . S
C453 H459 0.959 . S
C453 H460 0.961 . S
C453 H461 0.960 . S
C454 C452 1.381 . S
C454 C455 1.394 . S
C454 H462 0.930 . S
C455 C454 1.394 . S
C455 C456 1.383 . S
C455 H463 0.929 . S
C456 C455 1.383 . S
C456 C457 1.377 . S
C457 H441 0.930 . S
C457 C456 1.377 . S
C457 C458 1.379 . S
C458 H442 0.931 . S
C458 C452 1.383 . S
C458 C457 1.379 . S
H459 C453 0.959 . S
H460 C453 0.961 . S
H461 C453 0.960 . S
H462 C454 0.930 . S
H463 C455 0.929 . S
H464 C472 0.929 . S
H465 C474 0.930 . S
H466 C476 0.930 . S
H467 C479 0.929 . S
H468 C482 0.930 . S
H469 C484 0.960 . S
H470 C484 0.960 . S
H471 C484 0.960 . S
C472 H464 0.929 . S
C472 C473 1.377 . S
C472 C474 1.384 . S
C473 C472 1.377 . S
C473 C479 1.390 . S
C474 H465 0.930 . S
C474 C472 1.384 . S
C474 C475 1.372 . S
C475 C474 1.372 . S
C475 C476 1.400 . S
C475 C480 1.490 . S
C476 H466 0.930 . S
C476 C475 1.400 . S
C476 C479 1.386 . S
H477 C493 0.930 . S
H478 C494 0.931 . S
C479 H467 0.929 . S
C479 C473 1.390 . S
C479 C476 1.386 . S
C480 C475 1.490 . S
C480 C482 1.395 . S
C480 C483 1.403 . S
H481 C487 0.930 . S
C482 H468 0.930 . S
C482 C480 1.395 . S
C482 C485 1.403 . S
C483 C480 1.403 . S
C483 C484 1.524 . S
C483 C487 1.400 . S
C484 H469 0.960 . S
C484 H470 0.960 . S
C484 H471 0.960 . S
C484 C483 1.524 . S
C485 C482 1.403 . S
C485 C486 1.392 . S
C485 C489 1.495 1_554 S
C486 C485 1.392 . S
C486 C487 1.385 . S
C486 C488 1.478 1_554 S
C487 H481 0.930 . S
C487 C483 1.400 . S
C487 C486 1.385 . S
C488 C486 1.478 1_556 S
C488 C490 1.381 . S
C488 C494 1.383 1_556 S
C489 C485 1.495 1_556 S
C489 H495 0.959 . S
C489 H496 0.961 . S
C489 H497 0.960 . S
C490 C488 1.381 . S
C490 C491 1.394 . S
C490 H498 0.930 . S
C491 C490 1.394 . S
C491 C492 1.383 . S
C491 H499 0.929 . S
C492 C491 1.383 . S
C492 C493 1.377 . S
C493 H477 0.930 . S
C493 C492 1.377 . S
C493 C494 1.379 1_556 S
C494 H478 0.931 . S
C494 C488 1.383 1_554 S
C494 C493 1.379 1_554 S
H495 C489 0.959 . S
H496 C489 0.961 . S
H497 C489 0.960 . S
H498 C490 0.930 . S
H499 C491 0.929 . S
H500 C508 0.923 1_455 S
H501 C510 0.930 . S
H502 C512 0.930 . S
H503 C515 0.929 . S
H504 C518 0.930 . S
H505 C520 0.960 . S
H506 C520 0.960 . S
H507 C520 0.960 . S
C508 H500 0.923 1_655 S
C508 C509 1.377 . S
C508 C510 1.384 1_655 S
C509 C508 1.377 . S
C509 C515 1.390 . S
C510 H501 0.930 . S
C510 C508 1.384 1_455 S
C510 C511 1.372 1_455 S
C511 C510 1.372 1_655 S
C511 C512 1.400 . S
C511 C516 1.490 . S
C512 H502 0.930 . S
C512 C511 1.400 . S
C512 C515 1.386 . S
H513 C529 0.929 . S
H514 C530 0.931 . S
C515 H503 0.929 . S
C515 C509 1.390 . S
C515 C512 1.386 . S
C516 C511 1.490 . S
C516 C518 1.395 . S
C516 C519 1.403 1_655 S
H517 C523 0.930 1_556 S
C518 H504 0.930 . S
C518 C516 1.395 . S
C518 C521 1.403 . S
C519 C516 1.403 1_455 S
C519 C520 1.524 . S
C519 C523 1.400 . S
C520 H505 0.960 . S
C520 H506 0.960 . S
C520 H507 0.960 . S
C520 C519 1.524 . S
C521 C518 1.403 . S
C521 C522 1.387 1_655 S
C521 C525 1.495 . S
C522 C521 1.387 1_455 S
C522 C523 1.390 . S
C522 C524 1.478 1_554 S
C523 H517 0.930 1_554 S
C523 C519 1.400 . S
C523 C522 1.390 . S
C524 C522 1.478 1_556 S
C524 C526 1.381 . S
C524 C530 1.383 1_455 S
C525 C521 1.495 . S
C525 H531 0.959 . S
C525 H532 0.961 . S
C525 H533 0.960 . S
C526 C524 1.381 . S
C526 C527 1.394 . S
C526 H534 0.930 1_556 S
C527 C526 1.394 . S
C527 C528 1.383 . S
C527 H535 0.929 . S
C528 C527 1.383 . S
C528 C529 1.378 1_455 S
C529 H513 0.929 . S
C529 C528 1.378 1_655 S
C529 C530 1.379 . S
C530 H514 0.931 . S
C530 C524 1.383 1_655 S
C530 C529 1.379 . S
H531 C525 0.959 . S
H532 C525 0.961 . S
H533 C525 0.960 . S
H534 C526 0.930 1_554 S
H535 C527 0.929 . S
H536 C544 0.929 . S
H537 C546 0.948 . S
H538 C548 0.930 . S
H539 C551 0.929 . S
H540 C554 0.933 1_655 S
H541 C556 0.960 . S
H542 C556 0.960 . S
H543 C556 0.960 . S
C544 H536 0.929 . S
C544 C545 1.377 . S
C544 C546 1.384 . S
C545 C544 1.377 . S
C545 C551 1.390 . S
C546 H537 0.948 . S
C546 C544 1.384 . S
C546 C547 1.372 . S
C547 C546 1.372 . S
C547 C548 1.400 . S
C547 C552 1.490 . S
C548 H538 0.930 . S
C548 C547 1.400 . S
C548 C551 1.386 . S
H549 C565 0.930 . S
H550 C566 0.931 . S
C551 H539 0.929 . S
C551 C545 1.390 . S
C551 C548 1.386 . S
C552 C547 1.490 . S
C552 C554 1.395 . S
C552 C555 1.403 . S
H553 C559 0.930 . S
C554 H540 0.933 1_455 S
C554 C552 1.395 . S
C554 C557 1.398 1_455 S
C555 C552 1.403 . S
C555 C556 1.524 . S
C555 C559 1.400 . S
C556 H541 0.960 . S
C556 H542 0.960 . S
C556 H543 0.960 . S
C556 C555 1.524 . S
C557 C554 1.398 1_655 S
C557 C558 1.384 1_655 S
C557 C561 1.509 . S
C558 C557 1.384 1_455 S
C558 C559 1.385 . S
C558 C560 1.478 . S
C559 H553 0.930 . S
C559 C555 1.400 . S
C559 C558 1.385 . S
C560 C558 1.478 . S
C560 C562 1.381 1_455 S
C560 C566 1.383 . S
C561 C557 1.509 . S
C561 H567 0.959 . S
C561 H568 0.961 . S
C561 H569 0.960 . S
C562 C560 1.381 1_655 S
C562 C563 1.394 . S
C562 H570 0.930 . S
C563 C562 1.394 . S
C563 C564 1.383 . S
C563 H571 0.929 . S
C564 C563 1.383 . S
C564 C565 1.377 1_655 S
C565 H549 0.930 . S
C565 C564 1.377 1_455 S
C565 C566 1.379 . S
C566 H550 0.931 . S
C566 C560 1.383 . S
C566 C565 1.379 . S
H567 C561 0.959 . S
H568 C561 0.961 . S
H569 C561 0.960 . S
H570 C562 0.930 . S
H571 C563 0.929 . S
H572 C580 0.929 . S
H573 C582 0.930 . S
H574 C584 0.930 . S
H575 C587 0.929 . S
H576 C590 0.930 . S
H577 C592 0.957 . S
H578 C592 0.960 . S
H579 C592 0.960 1_545 S
C580 H572 0.929 . S
C580 C581 1.332 1_565 S
C580 C582 1.384 . S
C581 C580 1.332 1_545 S
C581 C587 1.423 . S
C582 H573 0.930 . S
C582 C580 1.384 . S
C582 C583 1.372 . S
C583 C582 1.372 . S
C583 C584 1.400 1_565 S
C583 C588 1.490 . S
C584 H574 0.930 . S
C584 C583 1.400 1_545 S
C584 C587 1.386 . S
H585 C601 0.945 . S
H586 C602 0.931 . S
C587 H575 0.929 . S
C587 C581 1.423 . S
C587 C584 1.386 . S
C588 C583 1.490 . S
C588 C590 1.395 . S
C588 C591 1.403 . S
H589 C595 0.930 . S
C590 H576 0.930 . S
C590 C588 1.395 . S
C590 C593 1.403 . S
C591 C588 1.403 . S
C591 C592 1.524 . S
C591 C595 1.400 . S
C592 H577 0.957 . S
C592 H578 0.960 . S
C592 H579 0.960 1_565 S
C592 C591 1.524 . S
C593 C590 1.403 . S
C593 C594 1.392 . S
C593 C597 1.495 . S
C594 C593 1.392 . S
C594 C595 1.385 . S
C594 C596 1.478 . S
C595 H589 0.930 . S
C595 C591 1.400 . S
C595 C594 1.385 . S
C596 C594 1.478 . S
C596 C598 1.381 . S
C596 C602 1.383 1_565 S
C597 C593 1.495 . S
C597 H603 0.959 . S
C597 H604 0.961 . S
C597 H605 0.960 . S
C598 C596 1.381 . S
C598 C599 1.394 . S
C598 H606 0.930 . S
C599 C598 1.394 . S
C599 C600 1.383 . S
C599 H607 0.929 . S
C600 C599 1.383 . S
C600 C601 1.357 1_565 S
C601 H585 0.945 . S
C601 C600 1.357 1_545 S
C601 C602 1.384 . S
C602 H586 0.931 . S
C602 C596 1.383 1_545 S
C602 C601 1.384 . S
H603 C597 0.959 . S
H604 C597 0.961 . S
H605 C597 0.960 . S
H606 C598 0.930 . S
H607 C599 0.929 . S
H608 C616 0.929 . S
H609 C618 0.930 . S
H610 C620 0.930 . S
H611 C623 0.929 . S
H612 C626 0.930 . S
H613 C628 0.960 . S
H614 C628 0.960 . S
H615 C628 0.960 . S
C616 H608 0.929 . S
C616 C617 1.377 . S
C616 C618 1.384 . S
C617 C616 1.377 . S
C617 C623 1.390 . S
C618 H609 0.930 . S
C618 C616 1.384 . S
C618 C619 1.372 . S
C619 C618 1.372 . S
C619 C620 1.400 . S
C619 C624 1.490 . S
C620 H610 0.930 . S
C620 C619 1.400 . S
C620 C623 1.386 . S
H621 C637 0.930 . S
H622 C638 0.931 . S
C623 H611 0.929 . S
C623 C617 1.390 . S
C623 C620 1.386 . S
C624 C619 1.490 . S
C624 C626 1.395 . S
C624 C627 1.403 . S
H625 C631 0.930 . S
C626 H612 0.930 . S
C626 C624 1.395 . S
C626 C629 1.403 . S
C627 C624 1.403 . S
C627 C628 1.524 . S
C627 C631 1.400 . S
C628 H613 0.960 . S
C628 H614 0.960 . S
C628 H615 0.960 . S
C628 C627 1.524 . S
C629 C626 1.403 . S
C629 C630 1.392 . S
C629 C633 1.495 . S
C630 C629 1.392 . S
C630 C631 1.385 . S
C630 C632 1.478 . S
C631 H625 0.930 . S
C631 C627 1.400 . S
C631 C630 1.385 . S
C632 C630 1.478 . S
C632 C634 1.381 . S
C632 C638 1.383 . S
C633 C629 1.495 . S
C633 H639 0.959 . S
C633 H640 0.961 . S
C633 H641 0.960 . S
C634 C632 1.381 . S
C634 C635 1.394 . S
C634 H642 0.930 . S
C635 C634 1.394 . S
C635 C636 1.383 . S
C635 H643 0.929 . S
C636 C635 1.383 . S
C636 C637 1.377 . S
C637 H621 0.930 . S
C637 C636 1.377 . S
C637 C638 1.379 . S
C638 H622 0.931 . S
C638 C632 1.383 . S
C638 C637 1.379 . S
H639 C633 0.959 . S
H640 C633 0.961 . S
H641 C633 0.960 . S
H642 C634 0.930 . S
H643 C635 0.929 . S
H644 C652 0.929 . S
H645 C654 0.930 . S
H646 C656 0.930 . S
H647 C659 0.929 . S
H648 C662 0.930 . S
H649 C664 0.960 . S
H650 C664 0.960 . S
H651 C664 0.960 . S
C652 H644 0.929 . S
C652 C653 1.377 . S
C652 C654 1.384 . S
C653 C652 1.377 . S
C653 C659 1.390 . S
C654 H645 0.930 . S
C654 C652 1.384 . S
C654 C655 1.372 . S
C655 C654 1.372 . S
C655 C656 1.400 . S
C655 C660 1.490 . S
C656 H646 0.930 . S
C656 C655 1.400 . S
C656 C659 1.386 . S
H657 C673 0.930 . S
H658 C674 0.931 . S
C659 H647 0.929 . S
C659 C653 1.390 . S
C659 C656 1.386 . S
C660 C655 1.490 . S
C660 C662 1.395 . S
C660 C663 1.403 . S
H661 C667 0.930 . S
C662 H648 0.930 . S
C662 C660 1.395 . S
C662 C665 1.403 . S
C663 C660 1.403 . S
C663 C664 1.524 . S
C663 C667 1.400 . S
C664 H649 0.960 . S
C664 H650 0.960 . S
C664 H651 0.960 . S
C664 C663 1.524 . S
C665 C662 1.403 . S
C665 C666 1.392 . S
C665 C669 1.495 . S
C666 C665 1.392 . S
C666 C667 1.385 . S
C666 C668 1.478 . S
C667 H661 0.930 . S
C667 C663 1.400 . S
C667 C666 1.385 . S
C668 C666 1.478 . S
C668 C670 1.381 . S
C668 C674 1.383 . S
C669 C665 1.495 . S
C669 H675 0.959 . S
C669 H676 0.961 . S
C669 H677 0.960 . S
C670 C668 1.381 . S
C670 C671 1.394 . S
C670 H678 0.930 . S
C671 C670 1.394 . S
C671 C672 1.383 . S
C671 H679 0.929 . S
C672 C671 1.383 . S
C672 C673 1.377 . S
C673 H657 0.930 . S
C673 C672 1.377 . S
C673 C674 1.379 . S
C674 H658 0.931 . S
C674 C668 1.383 . S
C674 C673 1.379 . S
H675 C669 0.959 . S
H676 C669 0.961 . S
H677 C669 0.960 . S
H678 C670 0.930 . S
H679 C671 0.929 . S
H680 C688 0.933 . S
H681 C690 0.930 . S
H682 C692 0.930 . S
H683 C695 0.929 . S
H684 C698 0.930 . S
H685 C700 0.960 . S
H686 C700 0.960 . S
H687 C700 0.960 . S
C688 H680 0.933 . S
C688 C689 1.371 1_455 S
C688 C690 1.387 . S
C689 C688 1.371 1_655 S
C689 C695 1.390 . S
C690 H681 0.930 . S
C690 C688 1.387 . S
C690 C691 1.372 . S
C691 C690 1.372 . S
C691 C692 1.400 1_455 S
C691 C696 1.490 . S
C692 H682 0.930 . S
C692 C691 1.400 1_655 S
C692 C695 1.386 . S
H693 C709 0.930 . S
H694 C710 0.931 . S
C695 H683 0.929 . S
C695 C689 1.390 . S
C695 C692 1.386 . S
C696 C691 1.490 . S
C696 C698 1.395 1_455 S
C696 C699 1.403 . S
H697 C703 0.930 . S
C698 H684 0.930 . S
C698 C696 1.395 1_655 S
C698 C701 1.403 1_655 S
C699 C696 1.403 . S
C699 C700 1.524 . S
C699 C703 1.400 . S
C700 H685 0.960 . S
C700 H686 0.960 . S
C700 H687 0.960 . S
C700 C699 1.524 . S
C701 C698 1.403 1_455 S
C701 C702 1.392 . S
C701 C705 1.495 1_455 S
C702 C701 1.392 . S
C702 C703 1.385 . S
C702 C704 1.478 . S
C703 H697 0.930 . S
C703 C699 1.400 . S
C703 C702 1.385 . S
C704 C702 1.478 . S
C704 C706 1.381 . S
C704 C710 1.383 . S
C705 C701 1.495 1_655 S
C705 H711 0.959 1_554 S
C705 H712 0.961 . S
C705 H713 0.960 1_654 S
C706 C704 1.381 . S
C706 C707 1.394 1_554 S
C706 H714 0.930 1_554 S
C707 C706 1.394 1_556 S
C707 C708 1.383 1_556 S
C707 H715 0.929 . S
C708 C707 1.383 1_554 S
C708 C709 1.377 . S
C709 H693 0.930 . S
C709 C708 1.377 . S
C709 C710 1.379 . S
C710 H694 0.931 . S
C710 C704 1.383 . S
C710 C709 1.379 . S
H711 C705 0.959 1_556 S
H712 C705 0.961 . S
H713 C705 0.960 1_456 S
H714 C706 0.930 1_556 S
H715 C707 0.929 . S
H716 C724 0.929 . S
H717 C726 0.930 . S
H718 C728 0.930 . S
H719 C731 0.929 . S
H720 C734 0.930 . S
H721 C736 0.960 . S
H722 C736 0.960 . S
H723 C736 0.960 . S
C724 H716 0.929 . S
C724 C725 1.382 . S
C724 C726 1.384 . S
C725 C724 1.382 . S
C725 C731 1.376 1_565 S
C726 H717 0.930 . S
C726 C724 1.384 . S
C726 C727 1.372 1_565 S
C727 C726 1.372 1_545 S
C727 C728 1.400 . S
C727 C732 1.490 . S
C728 H718 0.930 . S
C728 C727 1.400 . S
C728 C731 1.386 . S
H729 C745 0.930 . S
H730 C746 0.931 . S
C731 H719 0.929 . S
C731 C725 1.376 1_545 S
C731 C728 1.386 . S
C732 C727 1.490 . S
C732 C734 1.395 1_545 S
C732 C735 1.403 . S
H733 C739 0.930 . S
C734 H720 0.930 . S
C734 C732 1.395 1_565 S
C734 C737 1.403 . S
C735 C732 1.403 . S
C735 C736 1.524 . S
C735 C739 1.400 . S
C736 H721 0.960 . S
C736 H722 0.960 . S
C736 H723 0.960 . S
C736 C735 1.524 . S
C737 C734 1.403 . S
C737 C738 1.392 1_565 S
C737 C741 1.495 . S
C738 C737 1.392 1_545 S
C738 C739 1.385 . S
C738 C740 1.478 . S
C739 H733 0.930 . S
C739 C735 1.400 . S
C739 C738 1.385 . S
C740 C738 1.478 . S
C740 C742 1.381 . S
C740 C746 1.383 . S
C741 C737 1.495 . S
C741 H747 0.959 . S
C741 H748 0.961 . S
C741 H749 0.960 . S
C742 C740 1.381 . S
C742 C743 1.394 . S
C742 H750 0.930 . S
C743 C742 1.394 . S
C743 C744 1.383 . S
C743 H751 0.929 1_554 S
C744 C743 1.383 . S
C744 C745 1.377 . S
C745 H729 0.930 . S
C745 C744 1.377 . S
C745 C746 1.379 . S
C746 H730 0.931 . S
C746 C740 1.383 . S
C746 C745 1.379 . S
H747 C741 0.959 . S
H748 C741 0.961 . S
H749 C741 0.960 . S
H750 C742 0.930 . S
H751 C743 0.929 1_556 S
H752 C760 0.929 1_554 S
H753 C762 0.930 . S
H754 C764 0.930 . S
H755 C767 0.929 . S
H756 C770 0.930 . S
H757 C772 0.960 . S
H758 C772 0.960 . S
H759 C772 0.960 . S
C760 H752 0.929 1_556 S
C760 C761 1.377 . S
C760 C762 1.384 . S
C761 C760 1.377 . S
C761 C767 1.390 . S
C762 H753 0.930 . S
C762 C760 1.384 . S
C762 C763 1.372 . S
C763 C762 1.372 . S
C763 C764 1.400 . S
C763 C768 1.490 . S
C764 H754 0.930 . S
C764 C763 1.400 . S
C764 C767 1.386 . S
H765 C781 0.930 . S
H766 C782 0.931 . S
C767 H755 0.929 . S
C767 C761 1.390 . S
C767 C764 1.386 . S
C768 C763 1.490 . S
C768 C770 1.395 . S
C768 C771 1.403 . S
H769 C775 0.930 . S
C770 H756 0.930 . S
C770 C768 1.395 . S
C770 C773 1.403 . S
C771 C768 1.403 . S
C771 C772 1.524 . S
C771 C775 1.400 . S
C772 H757 0.960 . S
C772 H758 0.960 . S
C772 H759 0.960 . S
C772 C771 1.524 . S
C773 C770 1.403 . S
C773 C774 1.392 . S
C773 C777 1.495 . S
C774 C773 1.392 . S
C774 C775 1.385 . S
C774 C776 1.478 . S
C775 H769 0.930 . S
C775 C771 1.400 . S
C775 C774 1.385 . S
C776 C774 1.478 . S
C776 C778 1.381 . S
C776 C782 1.383 . S
C777 C773 1.495 . S
C777 H783 0.959 1_556 S
C777 H784 0.961 . S
C777 H785 0.960 1_556 S
C778 C776 1.381 . S
C778 C779 1.394 . S
C778 H786 0.930 . S
C779 C778 1.394 . S
C779 C780 1.383 . S
C779 H787 0.929 . S
C780 C779 1.383 . S
C780 C781 1.377 . S
C781 H765 0.930 . S
C781 C780 1.377 . S
C781 C782 1.379 . S
C782 H766 0.931 . S
C782 C776 1.383 . S
C782 C781 1.379 . S
H783 C777 0.959 1_554 S
H784 C777 0.961 . S
H785 C777 0.960 1_554 S
H786 C778 0.930 . S
H787 C779 0.929 . S
H788 C796 0.929 . S
H789 C798 0.930 . S
H790 C800 0.930 . S
H791 C803 0.929 . S
H792 C806 0.930 . S
H793 C808 0.960 . S
H794 C808 0.960 . S
H795 C808 0.960 . S
C796 H788 0.929 . S
C796 C797 1.377 . S
C796 C798 1.384 . S
C797 C796 1.377 . S
C797 C803 1.390 . S
C798 H789 0.930 . S
C798 C796 1.384 . S
C798 C799 1.372 . S
C799 C798 1.372 . S
C799 C800 1.400 . S
C799 C804 1.490 . S
C800 H790 0.930 . S
C800 C799 1.400 . S
C800 C803 1.386 . S
H801 C817 0.930 . S
H802 C818 0.931 . S
C803 H791 0.929 . S
C803 C797 1.390 . S
C803 C800 1.386 . S
C804 C799 1.490 . S
C804 C806 1.395 . S
C804 C807 1.403 . S
H805 C811 0.930 . S
C806 H792 0.930 . S
C806 C804 1.395 . S
C806 C809 1.403 . S
C807 C804 1.403 . S
C807 C808 1.524 . S
C807 C811 1.400 . S
C808 H793 0.960 . S
C808 H794 0.960 . S
C808 H795 0.960 . S
C808 C807 1.524 . S
C809 C806 1.403 . S
C809 C810 1.392 . S
C809 C813 1.495 . S
C810 C809 1.392 . S
C810 C811 1.385 . S
C810 C812 1.478 . S
C811 H805 0.930 . S
C811 C807 1.400 . S
C811 C810 1.385 . S
C812 C810 1.478 . S
C812 C814 1.381 . S
C812 C818 1.383 . S
C813 C809 1.495 . S
C813 H819 0.959 . S
C813 H820 0.961 . S
C813 H821 0.960 . S
C814 C812 1.381 . S
C814 C815 1.394 . S
C814 H822 0.930 . S
C815 C814 1.394 . S
C815 C816 1.383 . S
C815 H823 0.929 . S
C816 C815 1.383 . S
C816 C817 1.377 1_554 S
C817 H801 0.930 . S
C817 C816 1.377 1_556 S
C817 C818 1.379 1_556 S
C818 H802 0.931 . S
C818 C812 1.383 . S
C818 C817 1.379 1_554 S
H819 C813 0.959 . S
H820 C813 0.961 . S
H821 C813 0.960 . S
H822 C814 0.930 . S
H823 C815 0.929 . S
H824 C832 0.929 . S
H825 C834 0.930 1_556 S
H826 C836 0.930 . S
H827 C839 0.929 . S
H828 C842 0.930 . S
H829 C844 0.961 1_655 S
H830 C844 0.960 . S
H831 C844 0.962 1_655 S
C832 H824 0.929 . S
C832 C833 1.377 . S
C832 C834 1.384 . S
C833 C832 1.377 . S
C833 C839 1.390 . S
C834 H825 0.930 1_554 S
C834 C832 1.384 . S
C834 C835 1.372 . S
C835 C834 1.372 . S
C835 C836 1.400 . S
C835 C840 1.490 . S
C836 H826 0.930 . S
C836 C835 1.400 . S
C836 C839 1.386 . S
H837 C853 0.930 . S
H838 C854 0.931 . S
C839 H827 0.929 . S
C839 C833 1.390 . S
C839 C836 1.386 . S
C840 C835 1.490 . S
C840 C842 1.395 . S
C840 C843 1.403 1_554 S
H841 C847 0.930 . S
C842 H828 0.930 . S
C842 C840 1.395 . S
C842 C845 1.403 1_554 S
C843 C840 1.403 1_556 S
C843 C844 1.522 . S
C843 C847 1.400 . S
C844 H829 0.961 1_455 S
C844 H830 0.960 . S
C844 H831 0.962 1_455 S
C844 C843 1.522 . S
C845 C842 1.403 1_556 S
C845 C846 1.392 . S
C845 C849 1.495 . S
C846 C845 1.392 . S
C846 C847 1.385 . S
C846 C848 1.478 . S
C847 H841 0.930 . S
C847 C843 1.400 . S
C847 C846 1.385 . S
C848 C846 1.478 . S
C848 C850 1.381 . S
C848 C854 1.383 . S
C849 C845 1.495 . S
C849 H855 0.959 1_556 S
C849 H856 0.961 1_556 S
C849 H857 0.960 . S
C850 C848 1.381 . S
C850 C851 1.394 . S
C850 H858 0.930 . S
C851 C850 1.394 . S
C851 C852 1.383 . S
C851 H859 0.929 . S
C852 C851 1.383 . S
C852 C853 1.377 . S
C853 H837 0.930 . S
C853 C852 1.377 . S
C853 C854 1.379 . S
C854 H838 0.931 . S
C854 C848 1.383 . S
C854 C853 1.379 . S
H855 C849 0.959 1_554 S
H856 C849 0.961 1_554 S
H857 C849 0.960 . S
H858 C850 0.930 . S
H859 C851 0.929 . S
H860 C868 0.929 . S
H861 C870 0.930 . S
H862 C872 0.930 . S
H863 C875 0.929 . S
H864 C878 0.930 . S
H865 C880 0.960 . S
H866 C880 0.960 1_545 S
H867 C880 0.960 . S
C868 H860 0.929 . S
C868 C869 1.424 . S
C868 C870 1.384 . S
C869 C868 1.424 . S
C869 C875 1.348 1_545 S
C870 H861 0.930 . S
C870 C868 1.384 . S
C870 C871 1.372 . S
C871 C870 1.372 . S
C871 C872 1.400 1_544 S
C871 C876 1.490 1_554 S
C872 H862 0.930 . S
C872 C871 1.400 1_566 S
C872 C875 1.386 1_556 S
H873 C889 0.930 . S
H874 C890 0.931 . S
C875 H863 0.929 . S
C875 C869 1.348 1_565 S
C875 C872 1.386 1_554 S
C876 C871 1.490 1_556 S
C876 C878 1.395 1_556 S
C876 C879 1.403 1_545 S
H877 C883 0.930 . S
C878 H864 0.930 . S
C878 C876 1.395 1_554 S
C878 C881 1.403 . S
C879 C876 1.403 1_565 S
C879 C880 1.524 . S
C879 C883 1.400 . S
C880 H865 0.960 . S
C880 H866 0.960 1_565 S
C880 H867 0.960 . S
C880 C879 1.524 . S
C881 C878 1.403 . S
C881 C882 1.392 1_554 S
C881 C885 1.495 . S
C882 C881 1.392 1_556 S
C882 C883 1.385 1_545 S
C882 C884 1.478 . S
C883 H877 0.930 . S
C883 C879 1.400 . S
C883 C882 1.385 1_565 S
C884 C882 1.478 . S
C884 C886 1.381 . S
C884 C890 1.383 1_545 S
C885 C881 1.495 . S
C885 H891 0.959 . S
C885 H892 0.961 . S
C885 H893 0.960 . S
C886 C884 1.381 . S
C886 C887 1.394 . S
C886 H894 0.930 . S
C887 C886 1.394 . S
C887 C888 1.383 . S
C887 H895 0.929 . S
C888 C887 1.383 . S
C888 C889 1.377 1_545 S
C889 H873 0.930 . S
C889 C888 1.377 1_565 S
C889 C890 1.379 . S
C890 H874 0.931 . S
C890 C884 1.383 1_565 S
C890 C889 1.379 . S
H891 C885 0.959 . S
H892 C885 0.961 . S
H893 C885 0.960 . S
H894 C886 0.930 . S
H895 C887 0.929 . S
H896 C904 0.929 . S
H897 C906 0.930 . S
H898 C908 0.930 . S
H899 C911 0.929 . S
H900 C914 0.930 . S
H901 C916 0.960 . S
H902 C916 0.960 . S
H903 C916 0.960 . S
C904 H896 0.929 . S
C904 C905 1.377 . S
C904 C906 1.384 . S
C905 C904 1.377 . S
C905 C911 1.390 . S
C906 H897 0.930 . S
C906 C904 1.384 . S
C906 C907 1.372 . S
C907 C906 1.372 . S
C907 C908 1.400 . S
C907 C912 1.490 . S
C908 H898 0.930 . S
C908 C907 1.400 . S
C908 C911 1.386 . S
H909 C925 0.930 . S
H910 C926 0.931 . S
C911 H899 0.929 . S
C911 C905 1.390 . S
C911 C908 1.386 . S
C912 C907 1.490 . S
C912 C914 1.395 . S
C912 C915 1.403 . S
H913 C919 0.930 . S
C914 H900 0.930 . S
C914 C912 1.395 . S
C914 C917 1.403 . S
C915 C912 1.403 . S
C915 C916 1.524 . S
C915 C919 1.400 . S
C916 H901 0.960 . S
C916 H902 0.960 . S
C916 H903 0.960 . S
C916 C915 1.524 . S
C917 C914 1.403 . S
C917 C918 1.392 . S
C917 C921 1.495 . S
C918 C917 1.392 . S
C918 C919 1.385 . S
C918 C920 1.478 . S
C919 H913 0.930 . S
C919 C915 1.400 . S
C919 C918 1.385 . S
C920 C918 1.478 . S
C920 C922 1.381 . S
C920 C926 1.383 . S
C921 C917 1.495 . S
C921 H927 0.959 . S
C921 H928 0.961 . S
C921 H929 0.960 . S
C922 C920 1.381 . S
C922 C923 1.394 . S
C922 H930 0.930 . S
C923 C922 1.394 . S
C923 C924 1.383 . S
C923 H931 0.929 . S
C924 C923 1.383 . S
C924 C925 1.377 . S
C925 H909 0.930 . S
C925 C924 1.377 . S
C925 C926 1.379 . S
C926 H910 0.931 . S
C926 C920 1.383 . S
C926 C925 1.379 . S
H927 C921 0.959 . S
H928 C921 0.961 . S
H929 C921 0.960 . S
H930 C922 0.930 . S
H931 C923 0.929 . S
H932 C940 0.929 . S
H933 C942 0.930 . S
H934 C944 0.930 1_556 S
H935 C947 0.929 . S
H936 C950 0.930 . S
H937 C952 0.960 . S
H938 C952 0.960 . S
H939 C952 0.960 . S
C940 H932 0.929 . S
C940 C941 1.377 . S
C940 C942 1.384 . S
C941 C940 1.377 . S
C941 C947 1.390 . S
C942 H933 0.930 . S
C942 C940 1.384 . S
C942 C943 1.372 1_554 S
C943 C942 1.372 1_556 S
C943 C944 1.400 1_556 S
C943 C948 1.490 . S
C944 H934 0.930 1_554 S
C944 C943 1.400 1_554 S
C944 C947 1.386 . S
H945 C961 0.930 . S
H946 C962 0.931 . S
C947 H935 0.929 . S
C947 C941 1.390 . S
C947 C944 1.386 . S
C948 C943 1.490 . S
C948 C950 1.395 . S
C948 C951 1.403 1_556 S
H949 C955 0.930 1_554 S
C950 H936 0.930 . S
C950 C948 1.395 . S
C950 C953 1.403 . S
C951 C948 1.403 1_554 S
C951 C952 1.524 . S
C951 C955 1.400 1_554 S
C952 H937 0.960 . S
C952 H938 0.960 . S
C952 H939 0.960 . S
C952 C951 1.524 . S
C953 C950 1.403 . S
C953 C954 1.392 . S
C953 C957 1.495 . S
C954 C953 1.392 . S
C954 C955 1.385 . S
C954 C956 1.478 . S
C955 H949 0.930 1_556 S
C955 C951 1.400 1_556 S
C955 C954 1.385 . S
C956 C954 1.478 . S
C956 C958 1.381 . S
C956 C962 1.383 . S
C957 C953 1.495 . S
C957 H963 0.959 . S
C957 H964 0.961 . S
C957 H965 0.960 . S
C958 C956 1.381 . S
C958 C959 1.394 . S
C958 H966 0.930 . S
C959 C958 1.394 . S
C959 C960 1.383 . S
C959 H967 0.929 . S
C960 C959 1.383 . S
C960 C961 1.377 . S
C961 H945 0.930 . S
C961 C960 1.377 . S
C961 C962 1.379 . S
C962 H946 0.931 . S
C962 C956 1.383 . S
C962 C961 1.379 . S
H963 C957 0.959 . S
H964 C957 0.961 . S
H965 C957 0.960 . S
H966 C958 0.930 . S
H967 C959 0.929 . S
H968 C976 0.929 . S
H969 C978 0.930 . S
H970 C980 0.930 . S
H971 C983 0.929 . S
H972 C986 0.930 . S
H973 C988 0.960 . S
H974 C988 0.960 . S
H975 C988 0.960 1_655 S
C976 H968 0.929 . S
C976 C977 1.377 1_455 S
C976 C978 1.384 . S
C977 C976 1.377 1_655 S
C977 C983 1.390 . S
C978 H969 0.930 . S
C978 C976 1.384 . S
C978 C979 1.372 1_455 S
C979 C978 1.372 1_655 S
C979 C980 1.400 . S
C979 C984 1.490 . S
C980 H970 0.930 . S
C980 C979 1.400 . S
C980 C983 1.386 . S
H981 C997 0.930 . S
H982 C998 0.931 . S
C983 H971 0.929 . S
C983 C977 1.390 . S
C983 C980 1.386 . S
C984 C979 1.490 . S
C984 C986 1.395 . S
C984 C987 1.403 1_655 S
H985 C991 0.930 . S
C986 H972 0.930 . S
C986 C984 1.395 . S
C986 C989 1.403 . S
C987 C984 1.403 1_455 S
C987 C988 1.524 . S
C987 C991 1.400 . S
C988 H973 0.960 . S
C988 H974 0.960 . S
C988 H975 0.960 1_455 S
C988 C987 1.524 . S
C989 C986 1.403 . S
C989 C990 1.392 . S
C989 C993 1.495 . S
C990 C989 1.392 . S
C990 C991 1.385 1_655 S
C990 C992 1.478 . S
C991 H985 0.930 . S
C991 C987 1.400 . S
C991 C990 1.385 1_455 S
C992 C990 1.478 . S
C992 C994 1.381 1_655 S
C992 C998 1.383 . S
C993 C989 1.495 . S
C993 H999 0.959 . S
C993 H1000 0.961 . S
C993 H1001 0.960 . S
C994 C992 1.381 1_455 S
C994 C995 1.394 . S
C994 H1002 0.930 . S
C995 C994 1.394 . S
C995 C996 1.357 1_455 S
C995 H1003 0.929 . S
C996 C995 1.357 1_655 S
C996 C997 1.405 . S
C997 H981 0.930 . S
C997 C996 1.405 . S
C997 C998 1.379 . S
C998 H982 0.931 . S
C998 C992 1.383 . S
C998 C997 1.379 . S
H999 C993 0.959 . S
H1000 C993 0.961 . S
H1001 C993 0.960 . S
H1002 C994 0.930 . S
H1003 C995 0.929 . S
H1004 C1012 0.929 . S
H1005 C1014 0.930 . S
H1006 C1016 0.930 . S
H1007 C1019 0.929 . S
H1008 C1022 0.935 . S
H1009 C1024 0.960 . S
H1010 C1024 0.960 . S
H1011 C1024 0.960 . S
C1012 H1004 0.929 . S
C1012 C1013 1.412 . S
C1012 C1014 1.384 . S
C1013 C1012 1.412 . S
C1013 C1019 1.359 1_565 S
C1014 H1005 0.930 . S
C1014 C1012 1.384 . S
C1014 C1015 1.372 . S
C1015 C1014 1.372 . S
C1015 C1016 1.400 1_565 S
C1015 C1020 1.490 . S
C1016 H1006 0.930 . S
C1016 C1015 1.400 1_545 S
C1016 C1019 1.386 . S
H1017 C1033 0.930 . S
H1018 C1034 0.931 . S
C1019 H1007 0.929 . S
C1019 C1013 1.359 1_545 S
C1019 C1016 1.386 . S
C1020 C1015 1.490 . S
C1020 C1022 1.394 1_565 S
C1020 C1023 1.403 . S
H1021 C1027 0.930 . S
C1022 H1008 0.935 . S
C1022 C1020 1.394 1_545 S
C1022 C1025 1.404 . S
C1023 C1020 1.403 . S
C1023 C1024 1.524 . S
C1023 C1027 1.400 . S
C1024 H1009 0.960 . S
C1024 H1010 0.960 . S
C1024 H1011 0.960 . S
C1024 C1023 1.524 . S
C1025 C1022 1.404 . S
C1025 C1026 1.390 1_545 S
C1025 C1029 1.499 . S
C1026 C1025 1.390 1_565 S
C1026 C1027 1.385 . S
C1026 C1028 1.478 . S
C1027 H1021 0.930 . S
C1027 C1023 1.400 . S
C1027 C1026 1.385 . S
C1028 C1026 1.478 . S
C1028 C1030 1.381 . S
C1028 C1034 1.383 1_565 S
C1029 C1025 1.499 . S
C1029 H1035 0.959 . S
C1029 H1036 0.961 . S
C1029 H1037 0.960 1_545 S
C1030 C1028 1.381 . S
C1030 C1031 1.394 . S
C1030 H1038 0.930 . S
C1031 C1030 1.394 . S
C1031 C1032 1.383 . S
C1031 H1039 0.929 . S
C1032 C1031 1.383 . S
C1032 C1033 1.377 1_565 S
C1033 H1017 0.930 . S
C1033 C1032 1.377 1_545 S
C1033 C1034 1.379 . S
C1034 H1018 0.931 . S
C1034 C1028 1.383 1_545 S
C1034 C1033 1.379 . S
H1035 C1029 0.959 . S
H1036 C1029 0.961 . S
H1037 C1029 0.960 1_565 S
H1038 C1030 0.930 . S
H1039 C1031 0.929 . S
H1040 C1048 0.929 . S
H1041 C1050 0.930 . S
H1042 C1052 0.930 . S
H1043 C1055 0.929 . S
H1044 C1058 0.930 . S
H1045 C1060 0.960 . S
H1046 C1060 0.960 . S
H1047 C1060 0.960 . S
C1048 H1040 0.929 . S
C1048 C1049 1.377 . S
C1048 C1050 1.384 . S
C1049 C1048 1.377 . S
C1049 C1055 1.390 . S
C1050 H1041 0.930 . S
C1050 C1048 1.384 . S
C1050 C1051 1.372 . S
C1051 C1050 1.372 . S
C1051 C1052 1.400 . S
C1051 C1056 1.490 . S
C1052 H1042 0.930 . S
C1052 C1051 1.400 . S
C1052 C1055 1.386 . S
H1053 C1069 0.930 . S
H1054 C1070 0.931 . S
C1055 H1043 0.929 . S
C1055 C1049 1.390 . S
C1055 C1052 1.386 . S
C1056 C1051 1.490 . S
C1056 C1058 1.395 . S
C1056 C1059 1.403 . S
H1057 C1063 0.930 . S
C1058 H1044 0.930 . S
C1058 C1056 1.395 . S
C1058 C1061 1.403 . S
C1059 C1056 1.403 . S
C1059 C1060 1.524 . S
C1059 C1063 1.400 . S
C1060 H1045 0.960 . S
C1060 H1046 0.960 . S
C1060 H1047 0.960 . S
C1060 C1059 1.524 . S
C1061 C1058 1.403 . S
C1061 C1062 1.392 . S
C1061 C1065 1.495 . S
C1062 C1061 1.392 . S
C1062 C1063 1.385 . S
C1062 C1064 1.478 . S
C1063 H1057 0.930 . S
C1063 C1059 1.400 . S
C1063 C1062 1.385 . S
C1064 C1062 1.478 . S
C1064 C1066 1.381 . S
C1064 C1070 1.383 . S
C1065 C1061 1.495 . S
C1065 H1071 0.959 . S
C1065 H1072 0.961 . S
C1065 H1073 0.960 . S
C1066 C1064 1.381 . S
C1066 C1067 1.394 . S
C1066 H1074 0.930 . S
C1067 C1066 1.394 . S
C1067 C1068 1.383 . S
C1067 H1075 0.929 . S
C1068 C1067 1.383 . S
C1068 C1069 1.377 . S
C1069 H1053 0.930 . S
C1069 C1068 1.377 . S
C1069 C1070 1.379 . S
C1070 H1054 0.931 . S
C1070 C1064 1.383 . S
C1070 C1069 1.379 . S
H1071 C1065 0.959 . S
H1072 C1065 0.961 . S
H1073 C1065 0.960 . S
H1074 C1066 0.930 . S
H1075 C1067 0.929 . S
H1076 C1084 0.929 . S
H1077 C1086 0.930 . S
H1078 C1088 0.930 . S
H1079 C1091 0.929 . S
H1080 C1094 0.930 . S
H1081 C1096 0.960 . S
H1082 C1096 0.960 . S
H1083 C1096 0.960 . S
C1084 H1076 0.929 . S
C1084 C1085 1.377 . S
C1084 C1086 1.384 . S
C1085 C1084 1.377 . S
C1085 C1091 1.390 . S
C1086 H1077 0.930 . S
C1086 C1084 1.384 . S
C1086 C1087 1.372 . S
C1087 C1086 1.372 . S
C1087 C1088 1.400 . S
C1087 C1092 1.490 . S
C1088 H1078 0.930 . S
C1088 C1087 1.400 . S
C1088 C1091 1.386 . S
H1089 C1105 0.930 . S
H1090 C1106 0.931 . S
C1091 H1079 0.929 . S
C1091 C1085 1.390 . S
C1091 C1088 1.386 . S
C1092 C1087 1.490 . S
C1092 C1094 1.395 . S
C1092 C1095 1.403 . S
H1093 C1099 0.930 . S
C1094 H1080 0.930 . S
C1094 C1092 1.395 . S
C1094 C1097 1.403 . S
C1095 C1092 1.403 . S
C1095 C1096 1.524 . S
C1095 C1099 1.400 . S
C1096 H1081 0.960 . S
C1096 H1082 0.960 . S
C1096 H1083 0.960 . S
C1096 C1095 1.524 . S
C1097 C1094 1.403 . S
C1097 C1098 1.392 . S
C1097 C1101 1.495 . S
C1098 C1097 1.392 . S
C1098 C1099 1.385 . S
C1098 C1100 1.478 . S
C1099 H1093 0.930 . S
C1099 C1095 1.400 . S
C1099 C1098 1.385 . S
C1100 C1098 1.478 . S
C1100 C1102 1.381 . S
C1100 C1106 1.383 . S
C1101 C1097 1.495 . S
C1101 H1107 0.959 . S
C1101 H1108 0.961 . S
C1101 H1109 0.960 . S
C1102 C1100 1.381 . S
C1102 C1103 1.394 . S
C1102 H1110 0.930 . S
C1103 C1102 1.394 . S
C1103 C1104 1.383 . S
C1103 H1111 0.929 . S
C1104 C1103 1.383 . S
C1104 C1105 1.377 . S
C1105 H1089 0.930 . S
C1105 C1104 1.377 . S
C1105 C1106 1.379 . S
C1106 H1090 0.931 . S
C1106 C1100 1.383 . S
C1106 C1105 1.379 . S
H1107 C1101 0.959 . S
H1108 C1101 0.961 . S
H1109 C1101 0.960 . S
H1110 C1102 0.930 . S
H1111 C1103 0.929 . S
C257 C76 1.760 1_545 S
C276 C111 1.849 1_545 S
C312 C151 1.656 . S
C293 C87 1.667 . S
C348 C170 1.866 . S
C329 C54 1.775 . S
C384 C231 1.352 . S
C365 C65 1.294 . S
C420 C90 1.848 1_565 S
C401 C32 1.759 1_545 S
C437 C43 1.677 . S
C456 C130 1.685 . S
C473 C10 1.772 . S
C492 C191 1.863 . S
C509 C21 1.303 . S
C528 C210 1.359 . S
C564 C92 0.679 . S
C545 C60 0.649 . S
C600 C132 0.288 . S
C581 C71 0.321 . S
C636 C188 0.602 . S
C617 C82 0.662 . S
C653 C49 0.333 . S
C672 C212 0.323 . S
C689 C16 0.644 . S
C708 C113 0.614 1_554 S
C744 C153 0.151 . S
C725 C27 0.335 1_565 S
C780 C199 0.655 . S
C761 C38 0.675 . S
C797 C5 0.328 . S
C816 C233 0.365 . S
C833 C59 1.409 . S
C852 C108 1.519 . S
C869 C70 2.032 . S
C888 C148 2.200 . S
C924 C172 1.469 . S
C905 C81 1.432 . S
C960 C228 2.186 . S
C941 C48 2.023 . S
C977 C15 1.398 . S
C996 C119 1.516 1_655 S
C1032 C159 2.191 . S
C1013 C26 2.021 1_565 S
C1068 C193 1.428 . S
C1049 C37 1.430 . S
C1085 C4 2.023 . S
C1104 C239 2.192 . S
