# Generated by pormake.
# Topology rtl, (3,6)-cn, num edge types: 1
# Building blocks:
#     Node 0, Type 0, BuildingBlock: MIDCAF_clean_linker_0, # of connection points: 3
#     Node 1, Type 0, BuildingBlock: MIDCAF_clean_linker_0, # of connection points: 3
#     Node 2, Type 0, BuildingBlock: MIDCAF_clean_linker_0, # of connection points: 3
#     Node 3, Type 0, BuildingBlock: MIDCAF_clean_linker_0, # of connection points: 3
#     Node 4, Type 1, BuildingBlock: KUMBOL_clean_sbu_1, # of connection points: 6
#     Node 5, Type 1, BuildingBlock: KUMBOL_clean_sbu_1, # of connection points: 6
#     Edge 6, Type (0, 1), None
#     Edge 7, Type (0, 1), None
#     Edge 8, Type (0, 1), None
#     Edge 9, Type (0, 1), None
#     Edge 10, Type (0, 1), None
#     Edge 11, Type (0, 1), None
#     Edge 12, Type (0, 1), None
#     Edge 13, Type (0, 1), None
#     Edge 14, Type (0, 1), None
#     Edge 15, Type (0, 1), None
#     Edge 16, Type (0, 1), None
#     Edge 17, Type (0, 1), None
# Relax obj value: 0.020
# Max RMSD: 0.144
# Mean RMSD: 0.087
data_MOF--net-rtl--node1-KUMBOL_clean_sbu_1--node2-MIDCAF_clean_linker_0--edge1-none
_symmetry_space_group_name_H-M    P1
_symmetry_Int_Tables_number       1
_symmetry_cell_setting            triclinic
loop_
_symmetry_equiv_pos_as_xyz
'x, y, z'
_cell_length_a     21.759984
_cell_length_b     22.650368
_cell_length_c     21.064161
_cell_angle_alpha  72.335007
_cell_angle_beta   98.977703
_cell_angle_gamma 90.841626
loop_
_atom_site_label
_atom_site_type_symbol
_atom_site_fract_x
_atom_site_fract_y
_atom_site_fract_z
_atom_type_partial_charge
C0 C 0.12764 0.94889 0.15869 0.0
C1 C 0.13083 0.90409 0.222 0.0
C2 C 0.16986 0.85103 0.23744 0.0
C3 C 0.2014 0.84083 0.18829 0.0
H4 H 0.33335 0.72292 0.1416 0.0
H5 H 0.4046 0.63642 0.15262 0.0
H6 H 0.38485 0.68499 0.93547 0.0
H7 H 0.31412 0.77004 0.92424 0.0
H8 H 0.13636 0.8164 0.87557 0.0
H9 H 0.07285 0.85631 0.76515 0.0
H10 H 0.11967 0.04336 0.76128 0.0
H11 H 0.17889 1.00298 0.8758 0.0
H12 H 0.15359 0.97361 0.0608 0.0
H13 H 0.09885 0.99076 0.146 0.0
H14 H 0.1731 0.81582 0.28606 0.0
H15 H 0.22813 0.79784 0.20009 0.0
N16 N 0.2582 0.82119 0.07692 0.0
N17 N 0.24197 0.83428 0.96061 0.0
N18 N 0.18732 0.89816 0.00266 0.0
C19 C 0.27215 0.80466 0.02349 0.0
C20 C 0.20012 0.8811 0.94989 0.0
C21 C 0.21587 0.86848 0.06643 0.0
C22 C 0.31746 0.75335 0.03215 0.0
C23 C 0.34436 0.71515 0.09631 0.0
C24 C 0.38517 0.66563 0.10258 0.0
C25 C 0.39966 0.65338 0.04484 0.0
C26 C 0.37381 0.69237 0.98096 0.0
C27 C 0.33323 0.74149 0.97467 0.0
C28 C 0.16287 0.90679 0.88309 0.0
C29 C 0.13278 0.86605 0.85109 0.0
C30 C 0.09689 0.88896 0.7877 0.0
C31 C 0.09274 0.95288 0.75365 0.0
C32 C 0.12199 0.99391 0.78633 0.0
C33 C 0.15619 0.97095 0.85131 0.0
C34 C 0.19438 0.88372 0.12317 0.0
C35 C 0.15918 0.93897 0.10998 0.0
C36 C 0.57462 0.57772 0.52642 0.0
C37 C 0.61106 0.57713 0.47694 0.0
C38 C 0.66647 0.60993 0.47495 0.0
C39 C 0.68522 0.64198 0.52144 0.0
H40 H 0.79648 0.77741 0.54803 0.0
H41 H 0.8727 0.85583 0.51992 0.0
H42 H 0.8701 0.89454 0.70804 0.0
H43 H 0.7922 0.81566 0.73644 0.0
H44 H 0.73085 0.62177 0.85355 0.0
H45 H 0.68365 0.57143 0.95384 0.0
H46 H 0.50619 0.66021 0.84973 0.0
H47 H 0.55279 0.70651 0.74817 0.0
H48 H 0.56494 0.60831 0.61124 0.0
H49 H 0.53105 0.55411 0.52861 0.0
H50 H 0.69637 0.60971 0.43846 0.0
H51 H 0.72863 0.66596 0.5188 0.0
N52 N 0.71674 0.71497 0.61244 0.0
N53 N 0.71602 0.72793 0.71875 0.0
N54 N 0.64766 0.65945 0.68134 0.0
C55 C 0.73916 0.74302 0.65949 0.0
C56 C 0.66997 0.68632 0.72945 0.0
C57 C 0.67125 0.6732 0.62281 0.0
C58 C 0.78775 0.78998 0.64465 0.0
C59 C 0.81184 0.80233 0.58382 0.0
C60 C 0.85592 0.84744 0.56757 0.0
C61 C 0.87749 0.88162 0.61161 0.0
C62 C 0.85407 0.86922 0.6728 0.0
C63 C 0.80962 0.82383 0.68919 0.0
C64 C 0.6452 0.66762 0.7935 0.0
C65 C 0.682 0.63107 0.85279 0.0
C66 C 0.65485 0.60221 0.91003 0.0
C67 C 0.59062 0.61026 0.90906 0.0
C68 C 0.55521 0.65111 0.85127 0.0
C69 C 0.58194 0.67839 0.79352 0.0
C70 C 0.64949 0.64145 0.57176 0.0
C71 C 0.59383 0.60915 0.57356 0.0
C72 C 0.94905 0.12763 0.95865 0.0
C73 C 0.92647 0.1618 0.89163 0.0
C74 C 0.87263 0.20009 0.87784 0.0
C75 C 0.84298 0.20527 0.9306 0.0
H76 H 0.70467 0.30793 0.98398 0.0
H77 H 0.62811 0.38914 0.97542 0.0
H78 H 0.63337 0.32331 0.19131 0.0
H79 H 0.70912 0.24276 0.20029 0.0
H80 H 0.78066 0.08569 0.27881 0.0
H81 H 0.83097 0.03688 0.39582 0.0
H82 H 0.01042 0.08897 0.33833 0.0
H83 H 0.96102 0.13348 0.22035 0.0
H84 H 0.93896 0.10539 0.06192 0.0
H85 H 0.98979 0.09694 0.97074 0.0
H86 H 0.85434 0.22707 0.8265 0.0
H87 H 0.80217 0.23579 0.91865 0.0
N88 N 0.78831 0.21762 0.04596 0.0
N89 N 0.7884 0.18636 0.163 0.0
N90 N 0.86197 0.14308 0.11884 0.0
C91 C 0.76364 0.22224 0.10012 0.0
C92 C 0.8374 0.14694 0.17257 0.0
C93 C 0.8374 0.17741 0.05524 0.0
C94 C 0.7136 0.26887 0.09276 0.0
C95 C 0.68918 0.31049 0.02953 0.0
C96 C 0.64532 0.35699 0.02463 0.0
C97 C 0.62548 0.36304 0.08287 0.0
C98 C 0.64855 0.3205 0.14568 0.0
C99 C 0.69193 0.27402 0.1506 0.0
C100 C 0.8672 0.11322 0.24118 0.0
C101 C 0.8309 0.08561 0.29114 0.0
C102 C 0.85938 0.05823 0.35767 0.0
C103 C 0.92385 0.06096 0.37514 0.0
C104 C 0.9604 0.08707 0.32523 0.0
C105 C 0.93226 0.1122 0.25822 0.0
C106 C 0.86645 0.17179 0.99793 0.0
C107 C 0.91948 0.13243 0.01098 0.0
C108 C 0.44556 0.43608 0.6039 0.0
C109 C 0.40892 0.43724 0.65302 0.0
C110 C 0.35287 0.40552 0.65431 0.0
C111 C 0.33368 0.37397 0.60747 0.0
H112 H 0.20971 0.25183 0.57092 0.0
H113 H 0.13244 0.17442 0.59921 0.0
H114 H 0.15362 0.11667 0.426 0.0
H115 H 0.23207 0.19478 0.39742 0.0
H116 H 0.28955 0.39396 0.27523 0.0
H117 H 0.33772 0.44366 0.17556 0.0
H118 H 0.51415 0.35336 0.28108 0.0
H119 H 0.46665 0.30788 0.38221 0.0
H120 H 0.45502 0.4055 0.51902 0.0
H121 H 0.4896 0.45889 0.60225 0.0
H122 H 0.32284 0.40623 0.69053 0.0
H123 H 0.28979 0.35083 0.60958 0.0
N124 N 0.30056 0.3024 0.5155 0.0
N125 N 0.30186 0.28904 0.40947 0.0
N126 N 0.37191 0.35553 0.4482 0.0
C127 C 0.27772 0.27493 0.46808 0.0
C128 C 0.34924 0.3292 0.39973 0.0
C129 C 0.34743 0.34267 0.50612 0.0
C130 C 0.22765 0.22955 0.48193 0.0
C131 C 0.19811 0.2229 0.53849 0.0
C132 C 0.15345 0.17837 0.5548 0.0
C133 C 0.13699 0.13896 0.51518 0.0
C134 C 0.16555 0.14607 0.45786 0.0
C135 C 0.21033 0.19103 0.4413 0.0
C136 C 0.37463 0.34746 0.33604 0.0
C137 C 0.3384 0.38421 0.27646 0.0
C138 C 0.36611 0.4127 0.21955 0.0
C139 C 0.43033 0.404 0.22105 0.0
C140 C 0.46518 0.36298 0.27913 0.0
C141 C 0.43791 0.33614 0.33662 0.0
C142 C 0.36964 0.3739 0.55752 0.0
C143 C 0.42595 0.40512 0.55642 0.0
C144 C 0.87377 0.16728 0.45511 0.0
C145 C 0.77119 0.12478 0.4428 0.0
C146 C 0.83282 0.12051 0.47739 0.0
C147 C 0.75257 0.17451 0.38407 0.0
C148 C 0.85492 0.21777 0.39679 0.0
C149 C 0.79437 0.22074 0.361 0.0
N150 N 0.93256 0.1628 0.48994 0.0
C151 C 0.9737 0.20855 0.47144 0.0
C152 C 0.89753 0.26392 0.37623 0.0
C153 C 0.95699 0.25951 0.41404 0.0
Gd154 Gd 0.05803 0.94513 0.54234 0.0
Gd155 Gd 0.95697 0.07446 0.58378 0.0
N156 N 0.85253 0.07194 0.5336 0.0
C157 C 0.72976 0.07936 0.46879 0.0
C158 C 0.81055 0.03099 0.56223 0.0
C159 C 0.74924 0.03296 0.52944 0.0
H160 H 0.82314 0.99774 0.61137 0.0
H161 H 0.71669 0.99939 0.55172 0.0
H162 H 0.19283 0.022 0.55821 0.0
H163 H 0.01938 0.20555 0.50102 0.0
H164 H 0.29119 0.00808 0.63614 0.0
H165 H 0.6821 0.08097 0.44372 0.0
H166 H 0.70569 0.178 0.35648 0.0
H167 H 0.9861 0.8114 0.58829 0.0
H168 H 0.88477 0.30343 0.3317 0.0
H169 H 0.98993 0.29539 0.39906 0.0
H170 H 0.2841 0.80292 0.78792 0.0
H171 H 0.77918 0.25897 0.31583 0.0
H172 H 0.10398 0.68513 0.75434 0.0
H173 H 0.00495 0.70856 0.67429 0.0
N174 N 0.07293 0.84574 0.6202 0.0
C175 C 0.12809 0.83362 0.66287 0.0
C176 C 0.02908 0.80173 0.62351 0.0
C177 C 0.09593 0.73025 0.7167 0.0
C178 C 0.03987 0.74337 0.67177 0.0
C179 C 0.14087 0.77557 0.71274 0.0
H180 H 0.20779 0.72085 0.79662 0.0
N181 N 0.15651 0.93643 0.61063 0.0
C182 C 0.17084 0.88039 0.65837 0.0
C183 C 0.27077 0.91676 0.69602 0.0
C184 C 0.2279 0.86951 0.70309 0.0
C185 C 0.20022 0.98075 0.60058 0.0
C186 C 0.25725 0.97221 0.64383 0.0
O187 O 0.96725 0.08191 0.4765 0.0
O188 O 0.96797 0.98173 0.47412 0.0
O189 O 0.11262 0.95737 0.46151 0.0
O190 O 0.06476 0.87228 0.49622 0.0
O191 O 0.93088 0.97333 0.62299 0.0
O192 O 0.95576 0.92795 0.54485 0.0
O193 O 0.04983 0.93463 0.6504 0.0
O194 O 0.0451 0.03426 0.65541 0.0
O195 O 0.91456 0.07471 0.67086 0.0
O196 O 0.95076 0.15875 0.61104 0.0
O197 O 0.0854 0.04599 0.50565 0.0
O198 O 0.05879 0.09243 0.5821 0.0
C199 C 0.95248 0.04036 0.44575 0.0
C200 C 0.92419 0.92961 0.59301 0.0
C201 C 0.0714 0.90952 0.38056 0.0
C202 C 0.08908 0.91063 0.26883 0.0
C203 C 0.98501 0.93055 0.28785 0.0
C204 C 0.00777 0.9227 0.35559 0.0
C205 C 0.02534 0.9248 0.24457 0.0
C206 C 0.1119 0.90285 0.3372 0.0
C207 C 0.09605 0.90526 0.45088 0.0
C208 C 0.24068 0.81185 0.75295 0.0
C209 C 0.19731 0.76502 0.75775 0.0
H210 H 0.31509 0.91025 0.72933 0.0
C211 C 0.06021 0.97518 0.68351 0.0
C212 C 0.09077 0.09051 0.53453 0.0
C213 C 0.96186 0.1427 0.72761 0.0
C214 C 0.96047 0.15793 0.83713 0.0
C215 C 0.0587 0.15484 0.79644 0.0
C216 C 0.02704 0.14571 0.73753 0.0
C217 C 0.02579 0.16084 0.84602 0.0
C218 C 0.92865 0.1492 0.77731 0.0
C219 C 0.92866 0.13178 0.66607 0.0
H220 H 0.93598 0.94112 0.26886 0.0
H221 H 0.97561 0.927 0.38828 0.0
H222 H 0.00653 0.9306 0.19221 0.0
H223 H 0.16108 0.89285 0.35626 0.0
H224 H 0.10894 0.15703 0.8038 0.0
H225 H 0.05347 0.14093 0.69974 0.0
H226 H 0.05144 0.16799 0.89133 0.0
H227 H 0.87841 0.14606 0.77008 0.0
C228 C 0.70944 0.57254 0.09789 0.0
C229 C 0.70109 0.68257 0.03639 0.0
C230 C 0.67369 0.62746 0.06998 0.0
C231 C 0.76459 0.68175 0.03107 0.0
C232 C 0.77319 0.5716 0.09258 0.0
C233 C 0.80051 0.62645 0.05904 0.0
N234 N 0.68157 0.51984 0.12901 0.0
C235 C 0.71498 0.46521 0.15773 0.0
C236 C 0.80753 0.51541 0.12083 0.0
C237 C 0.77832 0.46206 0.15377 0.0
Gd238 Gd 0.44678 0.48212 0.99865 0.0
Gd239 Gd 0.57531 0.53014 0.13215 0.0
N240 N 0.61172 0.62643 0.07384 0.0
C241 C 0.66374 0.73688 0.00891 0.0
C242 C 0.57582 0.67976 0.04977 0.0
C243 C 0.601 0.73554 0.0162 0.0
H244 H 0.52807 0.67994 0.05704 0.0
H245 H 0.5721 0.7776 0.99642 0.0
H246 H 0.49755 0.33286 0.0722 0.0
H247 H 0.69307 0.42434 0.18499 0.0
H248 H 0.45627 0.23409 0.13377 0.0
H249 H 0.68304 0.78018 0.98273 0.0
H250 H 0.78637 0.72364 0.00529 0.0
H251 H 0.327 0.58539 0.9493 0.0
H252 H 0.85662 0.5128 0.1178 0.0
H253 H 0.80465 0.41858 0.17648 0.0
H254 H 0.2416 0.283 0.12943 0.0
H255 H 0.84941 0.62659 0.05438 0.0
H256 H 0.1662 0.49251 0.01873 0.0
H257 H 0.21565 0.58832 0.95969 0.0
N258 N 0.34079 0.48982 0.00425 0.0
C259 C 0.31436 0.43629 0.03565 0.0
C260 C 0.30617 0.54381 0.97659 0.0
C261 C 0.21518 0.49113 0.01479 0.0
C262 C 0.24296 0.54538 0.98166 0.0
C263 C 0.25082 0.43565 0.04217 0.0
H264 H 0.17629 0.37866 0.08168 0.0
N265 N 0.41317 0.38467 0.05772 0.0
C266 C 0.35144 0.38217 0.06286 0.0
C267 C 0.36408 0.27274 0.12346 0.0
C268 C 0.32553 0.32627 0.09685 0.0
C269 C 0.45016 0.33205 0.0808 0.0
C270 C 0.42648 0.27557 0.11481 0.0
O271 O 0.59501 0.54792 0.02503 0.0
O272 O 0.49954 0.5682 0.95666 0.0
O273 O 0.46211 0.43247 0.92858 0.0
O274 O 0.38616 0.50025 0.90217 0.0
O275 O 0.47863 0.57559 0.10822 0.0
O276 O 0.44176 0.58164 0.9973 0.0
O277 O 0.42674 0.46657 0.10525 0.0
O278 O 0.52206 0.44418 0.17338 0.0
O279 O 0.55814 0.57965 0.20177 0.0
O280 O 0.63527 0.51309 0.22887 0.0
O281 O 0.54413 0.43858 0.02114 0.0
O282 O 0.57946 0.43081 0.1326 0.0
C283 C 0.56021 0.57395 0.96638 0.0
C284 C 0.44138 0.60033 0.05068 0.0
C285 C 0.43122 0.48561 0.81309 0.0
C286 C 0.42792 0.47281 0.70149 0.0
C287 C 0.47127 0.56512 0.72499 0.0
C288 C 0.45865 0.54294 0.7909 0.0
C289 C 0.4558 0.53052 0.68037 0.0
C290 C 0.41636 0.45047 0.76857 0.0
C291 C 0.41695 0.46229 0.88214 0.0
C292 C 0.26223 0.32552 0.10334 0.0
C293 C 0.22501 0.38002 0.0761 0.0
H294 H 0.34593 0.22889 0.1499 0.0
C295 C 0.46123 0.43969 0.16384 0.0
C296 C 0.58154 0.4138 0.0785 0.0
C297 C 0.58944 0.5276 0.31754 0.0
C298 C 0.59256 0.54101 0.42888 0.0
C299 C 0.55061 0.44779 0.40633 0.0
C300 C 0.56295 0.46985 0.3403 0.0
C301 C 0.56553 0.48288 0.45053 0.0
C302 C 0.60375 0.56323 0.36164 0.0
C303 C 0.60358 0.55074 0.24843 0.0
H304 H 0.49224 0.60965 0.7081 0.0
H305 H 0.46944 0.57054 0.82453 0.0
H306 H 0.46426 0.54973 0.62891 0.0
H307 H 0.39571 0.40581 0.78637 0.0
H308 H 0.53035 0.40294 0.42365 0.0
H309 H 0.55272 0.44182 0.30703 0.0
H310 H 0.55733 0.46374 0.50209 0.0
H311 H 0.62372 0.60819 0.34341 0.0
loop_
_geom_bond_atom_site_label_1
_geom_bond_atom_site_label_2
_geom_bond_distance
_geom_bond_site_symmetry_2
_ccdc_geom_bond_type
C0 C1 1.384 . S
C0 H13 0.947 . S
C0 C35 1.382 . S
C1 C0 1.384 . S
C1 C2 1.378 . S
C2 C1 1.378 . S
C2 C3 1.378 . S
C2 H14 0.952 . S
C3 C2 1.378 . S
C3 H15 0.950 . S
C3 C34 1.383 . S
H4 C23 0.947 . S
H5 C24 0.946 . S
H6 C26 0.953 . S
H7 C27 0.945 . S
H8 C29 0.952 . S
H9 C30 0.949 . S
H10 C32 0.950 . S
H11 C33 0.948 1_545 S
H12 C35 0.951 . S
H13 C0 0.947 . S
H14 C2 0.952 . S
H15 C3 0.950 . S
N16 C19 1.382 . S
N16 C21 1.363 . S
N17 C19 1.371 1_556 S
N17 C20 1.372 . S
N18 C20 1.361 . S
N18 C21 1.377 1_556 S
C19 N16 1.382 . S
C19 N17 1.371 1_554 S
C19 C22 1.480 . S
C20 N17 1.372 . S
C20 N18 1.361 . S
C20 C28 1.457 . S
C21 N16 1.363 . S
C21 N18 1.377 1_554 S
C21 C34 1.479 . S
C22 C19 1.480 . S
C22 C23 1.383 . S
C22 C27 1.385 1_554 S
C23 H4 0.947 . S
C23 C22 1.383 . S
C23 C24 1.388 . S
C24 H5 0.946 . S
C24 C23 1.388 . S
C24 C25 1.384 . S
C25 C24 1.384 . S
C25 C26 1.377 1_554 S
C26 H6 0.953 . S
C26 C25 1.377 1_556 S
C26 C27 1.369 . S
C27 H7 0.945 . S
C27 C22 1.385 1_556 S
C27 C26 1.369 . S
C28 C20 1.457 . S
C28 C29 1.372 . S
C28 C33 1.364 . S
C29 H8 0.952 . S
C29 C28 1.372 . S
C29 C30 1.389 . S
C30 H9 0.949 . S
C30 C29 1.389 . S
C30 C31 1.387 . S
C31 C30 1.387 . S
C31 C32 1.372 1_565 S
C32 H10 0.950 . S
C32 C31 1.372 1_545 S
C32 C33 1.379 1_545 S
C33 H11 0.948 1_565 S
C33 C28 1.364 . S
C33 C32 1.379 1_565 S
C34 C3 1.383 . S
C34 C21 1.479 . S
C34 C35 1.398 . S
C35 C0 1.382 . S
C35 H12 0.951 . S
C35 C34 1.398 . S
C36 C37 1.384 . S
C36 H49 0.947 . S
C36 C71 1.382 . S
C37 C36 1.384 . S
C37 C38 1.378 . S
C38 C37 1.378 . S
C38 C39 1.378 . S
C38 H50 0.952 . S
C39 C38 1.378 . S
C39 H51 0.950 . S
C39 C70 1.383 . S
H40 C59 0.947 . S
H41 C60 0.946 . S
H42 C62 0.953 . S
H43 C63 0.945 . S
H44 C65 0.952 . S
H45 C66 0.949 . S
H46 C68 0.950 . S
H47 C69 0.948 . S
H48 C71 0.951 . S
H49 C36 0.947 . S
H50 C38 0.952 . S
H51 C39 0.950 . S
N52 C55 1.382 . S
N52 C57 1.363 . S
N53 C55 1.371 . S
N53 C56 1.372 . S
N54 C56 1.361 . S
N54 C57 1.377 . S
C55 N52 1.382 . S
C55 N53 1.371 . S
C55 C58 1.480 . S
C56 N53 1.372 . S
C56 N54 1.361 . S
C56 C64 1.457 . S
C57 N52 1.363 . S
C57 N54 1.377 . S
C57 C70 1.479 . S
C58 C55 1.480 . S
C58 C59 1.383 . S
C58 C63 1.385 . S
C59 H40 0.947 . S
C59 C58 1.383 . S
C59 C60 1.388 . S
C60 H41 0.946 . S
C60 C59 1.388 . S
C60 C61 1.384 . S
C61 C60 1.384 . S
C61 C62 1.377 . S
C62 H42 0.953 . S
C62 C61 1.377 . S
C62 C63 1.369 . S
C63 H43 0.945 . S
C63 C58 1.385 . S
C63 C62 1.369 . S
C64 C56 1.457 . S
C64 C65 1.372 . S
C64 C69 1.364 . S
C65 H44 0.952 . S
C65 C64 1.372 . S
C65 C66 1.389 . S
C66 H45 0.949 . S
C66 C65 1.389 . S
C66 C67 1.387 . S
C67 C66 1.387 . S
C67 C68 1.372 . S
C68 H46 0.950 . S
C68 C67 1.372 . S
C68 C69 1.379 . S
C69 H47 0.948 . S
C69 C64 1.364 . S
C69 C68 1.379 . S
C70 C39 1.383 . S
C70 C57 1.479 . S
C70 C71 1.398 . S
C71 C36 1.382 . S
C71 H48 0.951 . S
C71 C70 1.398 . S
C72 C73 1.384 . S
C72 H85 0.947 . S
C72 C107 1.382 1_556 S
C73 C72 1.384 . S
C73 C74 1.378 . S
C74 C73 1.378 . S
C74 C75 1.378 . S
C74 H86 0.952 . S
C75 C74 1.378 . S
C75 H87 0.950 . S
C75 C106 1.383 1_556 S
H76 C95 0.947 1_556 S
H77 C96 0.946 1_556 S
H78 C98 0.953 . S
H79 C99 0.945 . S
H80 C101 0.952 . S
H81 C102 0.949 . S
H82 C104 0.950 1_565 S
H83 C105 0.948 . S
H84 C107 0.951 . S
H85 C72 0.947 . S
H86 C74 0.952 . S
H87 C75 0.950 . S
N88 C91 1.382 . S
N88 C93 1.363 . S
N89 C91 1.371 . S
N89 C92 1.372 . S
N90 C92 1.361 . S
N90 C93 1.377 . S
C91 N88 1.382 . S
C91 N89 1.371 . S
C91 C94 1.480 . S
C92 N89 1.372 . S
C92 N90 1.361 . S
C92 C100 1.457 . S
C93 N88 1.363 . S
C93 N90 1.377 . S
C93 C106 1.479 . S
C94 C91 1.480 . S
C94 C95 1.383 . S
C94 C99 1.385 . S
C95 H76 0.947 1_554 S
C95 C94 1.383 . S
C95 C96 1.388 . S
C96 H77 0.946 1_554 S
C96 C95 1.388 . S
C96 C97 1.384 . S
C97 C96 1.384 . S
C97 C98 1.377 . S
C98 H78 0.953 . S
C98 C97 1.377 . S
C98 C99 1.369 . S
C99 H79 0.945 . S
C99 C94 1.385 . S
C99 C98 1.369 . S
C100 C92 1.457 . S
C100 C101 1.372 . S
C100 C105 1.364 . S
C101 H80 0.952 . S
C101 C100 1.372 . S
C101 C102 1.389 . S
C102 H81 0.949 . S
C102 C101 1.389 . S
C102 C103 1.387 . S
C103 C102 1.387 . S
C103 C104 1.372 . S
C104 H82 0.950 1_545 S
C104 C103 1.372 . S
C104 C105 1.379 . S
C105 H83 0.948 . S
C105 C100 1.364 . S
C105 C104 1.379 . S
C106 C75 1.383 1_554 S
C106 C93 1.479 . S
C106 C107 1.398 . S
C107 C72 1.382 1_554 S
C107 H84 0.951 . S
C107 C106 1.398 . S
C108 C109 1.384 . S
C108 H121 0.947 . S
C108 C143 1.382 . S
C109 C108 1.384 . S
C109 C110 1.378 . S
C110 C109 1.378 . S
C110 C111 1.378 . S
C110 H122 0.952 . S
C111 C110 1.378 . S
C111 H123 0.950 . S
C111 C142 1.383 . S
H112 C131 0.947 . S
H113 C132 0.946 . S
H114 C134 0.953 . S
H115 C135 0.945 . S
H116 C137 0.952 . S
H117 C138 0.949 . S
H118 C140 0.950 . S
H119 C141 0.948 . S
H120 C143 0.951 . S
H121 C108 0.947 . S
H122 C110 0.952 . S
H123 C111 0.950 . S
N124 C127 1.382 . S
N124 C129 1.363 . S
N125 C127 1.371 . S
N125 C128 1.372 . S
N126 C128 1.361 . S
N126 C129 1.377 . S
C127 N124 1.382 . S
C127 N125 1.371 . S
C127 C130 1.480 . S
C128 N125 1.372 . S
C128 N126 1.361 . S
C128 C136 1.457 . S
C129 N124 1.363 . S
C129 N126 1.377 . S
C129 C142 1.479 . S
C130 C127 1.480 . S
C130 C131 1.383 . S
C130 C135 1.385 . S
C131 H112 0.947 . S
C131 C130 1.383 . S
C131 C132 1.388 . S
C132 H113 0.946 . S
C132 C131 1.388 . S
C132 C133 1.384 . S
C133 C132 1.384 . S
C133 C134 1.377 . S
C134 H114 0.953 . S
C134 C133 1.377 . S
C134 C135 1.369 . S
C135 H115 0.945 . S
C135 C130 1.385 . S
C135 C134 1.369 . S
C136 C128 1.457 . S
C136 C137 1.372 . S
C136 C141 1.364 . S
C137 H116 0.952 . S
C137 C136 1.372 . S
C137 C138 1.389 . S
C138 H117 0.949 . S
C138 C137 1.389 . S
C138 C139 1.387 . S
C139 C138 1.387 . S
C139 C140 1.372 . S
C140 H118 0.950 . S
C140 C139 1.372 . S
C140 C141 1.379 . S
C141 H119 0.948 . S
C141 C136 1.364 . S
C141 C140 1.379 . S
C142 C111 1.383 . S
C142 C129 1.479 . S
C142 C143 1.398 . S
C143 C108 1.382 . S
C143 H120 0.951 . S
C143 C142 1.398 . S
C144 C146 1.422 . S
C144 C148 1.415 . S
C144 N150 1.369 . S
C145 C146 1.421 . S
C145 C147 1.417 . S
C145 C157 1.422 . S
C146 C144 1.422 . S
C146 C145 1.421 . S
C146 N156 1.359 . S
C147 C145 1.417 . S
C147 C149 1.329 . S
C147 H166 0.930 . S
C148 C144 1.415 . S
C148 C149 1.437 . S
C148 C152 1.413 . S
C149 C147 1.329 . S
C149 C148 1.437 . S
C149 H171 0.929 . S
N150 C144 1.369 . S
N150 C151 1.338 . S
N150 Gd155 2.622 . S
C151 N150 1.338 . S
C151 C153 1.378 . S
C151 H163 0.929 1_655 S
C152 C148 1.413 . S
C152 C153 1.348 . S
C152 H168 0.931 . S
C153 C151 1.378 . S
C153 C152 1.348 . S
C153 H169 0.930 1_655 S
Gd154 N174 2.622 . S
Gd154 N181 2.570 . S
Gd154 O188 2.353 1_465 S
Gd154 O189 2.468 . S
Gd154 O190 2.427 . S
Gd154 O192 2.388 1_455 S
Gd154 O193 2.386 . S
Gd154 O197 2.307 1_565 S
Gd154 C207 2.805 . S
Gd155 N150 2.622 . S
Gd155 N156 2.570 . S
Gd155 O187 2.386 . S
Gd155 O191 2.307 1_545 S
Gd155 O194 2.353 1_655 S
Gd155 O195 2.468 . S
Gd155 O196 2.427 . S
Gd155 O198 2.388 1_655 S
Gd155 C219 2.805 . S
N156 C146 1.359 . S
N156 Gd155 2.570 . S
N156 C158 1.343 . S
C157 C145 1.422 . S
C157 C159 1.321 . S
C157 H165 0.931 . S
C158 N156 1.343 . S
C158 C159 1.390 . S
C158 H160 0.931 . S
C159 C157 1.321 . S
C159 C158 1.390 . S
C159 H161 0.930 . S
H160 C158 0.931 . S
H161 C159 0.930 . S
H162 C185 0.931 . S
H163 C151 0.929 1_455 S
H164 C186 0.930 . S
H165 C157 0.931 . S
H166 C147 0.930 . S
H167 C176 0.929 1_655 S
H168 C152 0.931 . S
H169 C153 0.930 1_455 S
H170 C208 0.930 . S
H171 C149 0.929 . S
H172 C177 0.931 . S
H173 C178 0.930 1_655 S
N174 Gd154 2.622 . S
N174 C175 1.369 . S
N174 C176 1.338 . S
C175 N174 1.369 . S
C175 C179 1.415 . S
C175 C182 1.422 . S
C176 H167 0.929 1_455 S
C176 N174 1.338 . S
C176 C178 1.378 . S
C177 H172 0.931 . S
C177 C178 1.348 . S
C177 C179 1.413 . S
C178 H173 0.930 1_455 S
C178 C176 1.378 . S
C178 C177 1.348 . S
C179 C175 1.415 . S
C179 C177 1.413 . S
C179 C209 1.437 . S
H180 C209 0.929 . S
N181 Gd154 2.570 . S
N181 C182 1.359 . S
N181 C185 1.343 . S
C182 C175 1.422 . S
C182 N181 1.359 . S
C182 C184 1.421 . S
C183 C184 1.422 . S
C183 C186 1.321 . S
C183 H210 0.931 . S
C184 C182 1.421 . S
C184 C183 1.422 . S
C184 C208 1.417 . S
C185 H162 0.931 . S
C185 N181 1.343 . S
C185 C186 1.390 . S
C186 H164 0.930 . S
C186 C183 1.321 . S
C186 C185 1.390 . S
O187 Gd155 2.386 . S
O187 C199 1.265 . S
O188 Gd154 2.353 1_645 S
O188 C199 1.242 . S
O189 Gd154 2.468 . S
O189 C207 1.263 . S
O190 Gd154 2.427 . S
O190 C207 1.252 . S
O191 Gd155 2.307 1_565 S
O191 C200 1.261 . S
O192 Gd154 2.388 1_655 S
O192 C200 1.252 . S
O193 Gd154 2.386 . S
O193 C211 1.265 . S
O194 Gd155 2.353 1_455 S
O194 C211 1.242 1_545 S
O195 Gd155 2.468 . S
O195 C219 1.263 . S
O196 Gd155 2.427 . S
O196 C219 1.252 . S
O197 Gd154 2.307 1_545 S
O197 C212 1.261 . S
O198 Gd155 2.388 1_455 S
O198 C212 1.252 . S
C199 O187 1.265 . S
C199 O188 1.242 . S
C200 O191 1.261 . S
C200 O192 1.252 . S
C201 C204 1.394 . S
C201 C206 1.370 . S
C201 C207 1.500 . S
C202 C205 1.383 . S
C202 C206 1.395 . S
C203 C204 1.396 . S
C203 C205 1.365 . S
C203 H220 0.929 . S
C204 C201 1.394 . S
C204 C203 1.396 . S
C204 H221 0.930 . S
C205 C202 1.383 . S
C205 C203 1.365 . S
C205 H222 0.931 . S
C206 C201 1.370 . S
C206 C202 1.395 . S
C206 H223 0.930 . S
C207 Gd154 2.805 . S
C207 O189 1.263 . S
C207 O190 1.252 . S
C207 C201 1.500 . S
C208 H170 0.930 . S
C208 C184 1.417 . S
C208 C209 1.329 . S
C209 C179 1.437 . S
C209 H180 0.929 . S
C209 C208 1.329 . S
H210 C183 0.931 . S
C211 O193 1.265 . S
C211 O194 1.242 1_565 S
C212 O197 1.261 . S
C212 O198 1.252 . S
C213 C216 1.394 . S
C213 C218 1.370 . S
C213 C219 1.500 . S
C214 C217 1.383 . S
C214 C218 1.395 . S
C215 C216 1.396 . S
C215 C217 1.365 . S
C215 H224 0.929 . S
C216 C213 1.394 . S
C216 C215 1.396 . S
C216 H225 0.930 . S
C217 C214 1.383 . S
C217 C215 1.365 . S
C217 H226 0.931 . S
C218 C213 1.370 . S
C218 C214 1.395 . S
C218 H227 0.930 . S
C219 Gd155 2.805 . S
C219 O195 1.263 . S
C219 O196 1.252 . S
C219 C213 1.500 . S
H220 C203 0.929 . S
H221 C204 0.930 . S
H222 C205 0.931 . S
H223 C206 0.930 . S
H224 C215 0.929 . S
H225 C216 0.930 . S
H226 C217 0.931 . S
H227 C218 0.930 . S
C228 C230 1.422 . S
C228 C232 1.415 . S
C228 N234 1.369 . S
C229 C230 1.421 . S
C229 C231 1.417 . S
C229 C241 1.422 . S
C230 C228 1.422 . S
C230 C229 1.421 . S
C230 N240 1.359 . S
C231 C229 1.417 . S
C231 C233 1.329 . S
C231 H250 0.930 . S
C232 C228 1.415 . S
C232 C233 1.437 . S
C232 C236 1.413 . S
C233 C231 1.329 . S
C233 C232 1.437 . S
C233 H255 0.929 . S
N234 C228 1.369 . S
N234 C235 1.338 . S
N234 Gd239 2.622 . S
C235 N234 1.338 . S
C235 C237 1.378 . S
C235 H247 0.929 . S
C236 C232 1.413 . S
C236 C237 1.348 . S
C236 H252 0.931 . S
C237 C235 1.378 . S
C237 C236 1.348 . S
C237 H253 0.930 . S
Gd238 N258 2.618 1_556 S
Gd238 N265 2.569 1_556 S
Gd238 O272 2.358 . S
Gd238 O273 2.477 . S
Gd238 O274 2.436 . S
Gd238 O276 2.385 . S
Gd238 O277 2.376 1_556 S
Gd238 O281 2.305 1_556 S
Gd238 C291 2.815 . S
Gd239 N234 2.622 . S
Gd239 N240 2.570 . S
Gd239 O271 2.386 . S
Gd239 O275 2.307 . S
Gd239 O278 2.353 . S
Gd239 O279 2.468 . S
Gd239 O280 2.427 . S
Gd239 O282 2.388 . S
Gd239 C303 2.805 . S
N240 C230 1.359 . S
N240 Gd239 2.570 . S
N240 C242 1.343 . S
C241 C229 1.422 . S
C241 C243 1.321 . S
C241 H249 0.931 . S
C242 N240 1.343 . S
C242 C243 1.390 . S
C242 H244 0.931 . S
C243 C241 1.321 . S
C243 C242 1.390 . S
C243 H245 0.930 . S
H244 C242 0.931 . S
H245 C243 0.930 . S
H246 C269 0.931 . S
H247 C235 0.929 . S
H248 C270 0.930 . S
H249 C241 0.931 . S
H250 C231 0.930 . S
H251 C260 0.929 . S
H252 C236 0.931 . S
H253 C237 0.930 . S
H254 C292 0.930 . S
H255 C233 0.929 . S
H256 C261 0.931 . S
H257 C262 0.930 . S
N258 Gd238 2.618 1_554 S
N258 C259 1.371 . S
N258 C260 1.338 1_554 S
C259 N258 1.371 . S
C259 C263 1.415 . S
C259 C266 1.422 . S
C260 H251 0.929 . S
C260 N258 1.338 1_556 S
C260 C262 1.378 . S
C261 H256 0.931 . S
C261 C262 1.348 1_554 S
C261 C263 1.413 . S
C262 H257 0.930 . S
C262 C260 1.378 . S
C262 C261 1.348 1_556 S
C263 C259 1.415 . S
C263 C261 1.413 . S
C263 C293 1.437 . S
H264 C293 0.929 . S
N265 Gd238 2.569 1_554 S
N265 C266 1.359 . S
N265 C269 1.343 . S
C266 C259 1.422 . S
C266 N265 1.359 . S
C266 C268 1.421 . S
C267 C268 1.422 . S
C267 C270 1.321 . S
C267 H294 0.931 . S
C268 C266 1.421 . S
C268 C267 1.422 . S
C268 C292 1.417 . S
C269 H246 0.931 . S
C269 N265 1.343 . S
C269 C270 1.390 . S
C270 H248 0.930 . S
C270 C267 1.321 . S
C270 C269 1.390 . S
O271 Gd239 2.386 . S
O271 C283 1.265 1_554 S
O272 Gd238 2.358 . S
O272 C283 1.242 . S
O273 Gd238 2.477 . S
O273 C291 1.263 . S
O274 Gd238 2.436 . S
O274 C291 1.252 . S
O275 Gd239 2.307 . S
O275 C284 1.261 . S
O276 Gd238 2.385 . S
O276 C284 1.250 1_556 S
O277 Gd238 2.376 1_554 S
O277 C295 1.265 . S
O278 Gd239 2.353 . S
O278 C295 1.242 . S
O279 Gd239 2.468 . S
O279 C303 1.263 . S
O280 Gd239 2.427 . S
O280 C303 1.252 . S
O281 Gd238 2.305 1_554 S
O281 C296 1.261 . S
O282 Gd239 2.388 . S
O282 C296 1.252 . S
C283 O271 1.265 1_556 S
C283 O272 1.242 . S
C284 O275 1.261 . S
C284 O276 1.250 1_554 S
C285 C288 1.394 . S
C285 C290 1.370 . S
C285 C291 1.500 . S
C286 C289 1.383 . S
C286 C290 1.395 . S
C287 C288 1.396 . S
C287 C289 1.365 . S
C287 H304 0.929 . S
C288 C285 1.394 . S
C288 C287 1.396 . S
C288 H305 0.930 . S
C289 C286 1.383 . S
C289 C287 1.365 . S
C289 H306 0.931 . S
C290 C285 1.370 . S
C290 C286 1.395 . S
C290 H307 0.930 . S
C291 Gd238 2.815 . S
C291 O273 1.263 . S
C291 O274 1.252 . S
C291 C285 1.500 . S
C292 H254 0.930 . S
C292 C268 1.417 . S
C292 C293 1.329 . S
C293 C263 1.437 . S
C293 H264 0.929 . S
C293 C292 1.329 . S
H294 C267 0.931 . S
C295 O277 1.265 . S
C295 O278 1.242 . S
C296 O281 1.261 . S
C296 O282 1.252 . S
C297 C300 1.394 . S
C297 C302 1.370 . S
C297 C303 1.500 . S
C298 C301 1.383 . S
C298 C302 1.395 . S
C299 C300 1.396 . S
C299 C301 1.365 . S
C299 H308 0.929 . S
C300 C297 1.394 . S
C300 C299 1.396 . S
C300 H309 0.930 . S
C301 C298 1.383 . S
C301 C299 1.365 . S
C301 H310 0.931 . S
C302 C297 1.370 . S
C302 C298 1.395 . S
C302 H311 0.930 . S
C303 Gd239 2.805 . S
C303 O279 1.263 . S
C303 O280 1.252 . S
C303 C297 1.500 . S
H304 C287 0.929 . S
H305 C288 0.930 . S
H306 C289 0.931 . S
H307 C290 0.930 . S
H308 C299 0.929 . S
H309 C300 0.930 . S
H310 C301 0.931 . S
H311 C302 0.930 . S
C212 C133 2.173 . S
C25 C284 2.155 . S
C61 C200 2.098 . S
C97 C296 2.007 . S
C202 C1 1.617 . S
C283 C67 1.832 . S
C103 C199 2.086 . S
C109 C286 1.545 . S
C298 C37 1.458 . S
C214 C73 1.510 . S
C295 C139 1.921 . S
C31 C211 2.245 . S
