# Generated by pormake.
# Topology zzz, (3,6)-cn, num edge types: 1
# Building blocks:
#     Node 0, Type 0, BuildingBlock: CUQRIR_clean_linker_1, # of connection points: 3
#     Node 1, Type 0, BuildingBlock: CUQRIR_clean_linker_1, # of connection points: 3
#     Node 2, Type 0, BuildingBlock: CUQRIR_clean_linker_1, # of connection points: 3
#     Node 3, Type 0, BuildingBlock: CUQRIR_clean_linker_1, # of connection points: 3
#     Node 4, Type 0, BuildingBlock: CUQRIR_clean_linker_1, # of connection points: 3
#     Node 5, Type 0, BuildingBlock: CUQRIR_clean_linker_1, # of connection points: 3
#     Node 6, Type 0, BuildingBlock: CUQRIR_clean_linker_1, # of connection points: 3
#     Node 7, Type 0, BuildingBlock: CUQRIR_clean_linker_1, # of connection points: 3
#     Node 8, Type 1, BuildingBlock: FUNLAD_clean_sbu_0, # of connection points: 6
#     Node 9, Type 1, BuildingBlock: FUNLAD_clean_sbu_0, # of connection points: 6
#     Node 10, Type 1, BuildingBlock: FUNLAD_clean_sbu_0, # of connection points: 6
#     Node 11, Type 1, BuildingBlock: FUNLAD_clean_sbu_0, # of connection points: 6
#     Edge 12, Type (0, 1), BuildingBlock: MIFKUJ_clean_linker_0, # of connection points: 2
#     Edge 13, Type (0, 1), BuildingBlock: MIFKUJ_clean_linker_0, # of connection points: 2
#     Edge 14, Type (0, 1), BuildingBlock: MIFKUJ_clean_linker_0, # of connection points: 2
#     Edge 15, Type (0, 1), BuildingBlock: MIFKUJ_clean_linker_0, # of connection points: 2
#     Edge 16, Type (0, 1), BuildingBlock: MIFKUJ_clean_linker_0, # of connection points: 2
#     Edge 17, Type (0, 1), BuildingBlock: MIFKUJ_clean_linker_0, # of connection points: 2
#     Edge 18, Type (0, 1), BuildingBlock: MIFKUJ_clean_linker_0, # of connection points: 2
#     Edge 19, Type (0, 1), BuildingBlock: MIFKUJ_clean_linker_0, # of connection points: 2
#     Edge 20, Type (0, 1), BuildingBlock: MIFKUJ_clean_linker_0, # of connection points: 2
#     Edge 21, Type (0, 1), BuildingBlock: MIFKUJ_clean_linker_0, # of connection points: 2
#     Edge 22, Type (0, 1), BuildingBlock: MIFKUJ_clean_linker_0, # of connection points: 2
#     Edge 23, Type (0, 1), BuildingBlock: MIFKUJ_clean_linker_0, # of connection points: 2
#     Edge 24, Type (0, 1), BuildingBlock: MIFKUJ_clean_linker_0, # of connection points: 2
#     Edge 25, Type (0, 1), BuildingBlock: MIFKUJ_clean_linker_0, # of connection points: 2
#     Edge 26, Type (0, 1), BuildingBlock: MIFKUJ_clean_linker_0, # of connection points: 2
#     Edge 27, Type (0, 1), BuildingBlock: MIFKUJ_clean_linker_0, # of connection points: 2
#     Edge 28, Type (0, 1), BuildingBlock: MIFKUJ_clean_linker_0, # of connection points: 2
#     Edge 29, Type (0, 1), BuildingBlock: MIFKUJ_clean_linker_0, # of connection points: 2
#     Edge 30, Type (0, 1), BuildingBlock: MIFKUJ_clean_linker_0, # of connection points: 2
#     Edge 31, Type (0, 1), BuildingBlock: MIFKUJ_clean_linker_0, # of connection points: 2
#     Edge 32, Type (0, 1), BuildingBlock: MIFKUJ_clean_linker_0, # of connection points: 2
#     Edge 33, Type (0, 1), BuildingBlock: MIFKUJ_clean_linker_0, # of connection points: 2
#     Edge 34, Type (0, 1), BuildingBlock: MIFKUJ_clean_linker_0, # of connection points: 2
#     Edge 35, Type (0, 1), BuildingBlock: MIFKUJ_clean_linker_0, # of connection points: 2
# Relax obj value: 0.138
# Max RMSD: 0.180
# Mean RMSD: 0.101
data_MOF--net-zzz--node1-FUNLAD_clean_sbu_0--node2-CUQRIR_clean_linker_1--edge1-MIFKUJ_clean_linker_0
_symmetry_space_group_name_H-M    P1
_symmetry_Int_Tables_number       1
_symmetry_cell_setting            triclinic
loop_
_symmetry_equiv_pos_as_xyz
'x, y, z'
_cell_length_a     63.324016
_cell_length_b     68.983647
_cell_length_c     20.559843
_cell_angle_alpha  86.044587
_cell_angle_beta   85.735429
_cell_angle_gamma 89.816967
loop_
_atom_site_label
_atom_site_type_symbol
_atom_site_fract_x
_atom_site_fract_y
_atom_site_fract_z
_atom_type_partial_charge
C0 C 0.77504 0.48076 0.26568 0.0
N1 N 0.79647 0.48075 0.26433 0.0
N2 N 0.76861 0.47576 0.2076 0.0
C3 C 0.76058 0.48632 0.32263 0.0
C4 C 0.78685 0.47293 0.17089 0.0
N5 N 0.80373 0.47597 0.20532 0.0
C6 C 0.78798 0.46808 0.10035 0.0
H7 H 0.7608 0.47468 0.36256 0.0
H8 H 0.74403 0.48831 0.30941 0.0
H9 H 0.76639 0.49986 0.34151 0.0
H10 H 0.77953 0.47939 0.07134 0.0
H11 H 0.77986 0.45404 0.09645 0.0
H12 H 0.80447 0.46682 0.07899 0.0
C13 C 0.93925 0.76408 0.14161 0.0
N14 N 0.9413 0.78359 0.14087 0.0
N15 N 0.94508 0.75786 0.08196 0.0
C16 C 0.93324 0.751 0.20142 0.0
C17 C 0.95126 0.77418 0.04544 0.0
N18 N 0.94893 0.78986 0.0812 0.0
C19 C 0.96125 0.77448 0.97671 0.0
H20 H 0.94777 0.74702 0.22623 0.0
H21 H 0.92575 0.73747 0.18792 0.0
H22 H 0.92231 0.75856 0.23601 0.0
H23 H 0.95407 0.76318 0.94936 0.0
H24 H 0.97837 0.7712 0.97842 0.0
H25 H 0.95948 0.78896 0.95065 0.0
C26 C 0.75642 0.99772 0.16043 0.0
N27 N 0.73515 -0.00013 0.15633 0.0
N28 N 0.76698 0.00069 0.10034 0.0
C29 C 0.76699 0.99407 0.22307 0.0
C30 C 0.75138 0.00453 0.05978 0.0
N31 N 0.73228 0.00424 0.09358 0.0
C32 C 0.75461 0.00704 0.98631 0.0
H33 H 0.75757 0.00033 0.2642 0.0
H34 H 0.78319 0.00034 0.21854 0.0
H35 H 0.76825 0.97816 0.23416 0.0
H36 H 0.76895 -0.00079 0.96807 0.0
H37 H 0.75656 0.02273 0.97128 0.0
H38 H 0.74072 0.0016 0.96314 0.0
C39 C 0.5479 0.71812 0.16706 0.0
N40 N 0.54384 0.69924 0.15776 0.0
N41 N 0.54519 0.72944 0.11183 0.0
C42 C 0.55348 0.72564 0.23043 0.0
C43 C 0.53907 0.71696 0.06902 0.0
N44 N 0.53818 0.69867 0.09689 0.0
C45 C 0.53361 0.72273 1.00036 0.0
H46 H 0.54554 0.71689 0.27254 0.0
H47 H 0.54899 0.74114 0.23315 0.0
H48 H 0.57085 0.72445 0.23371 0.0
H49 H 0.54193 0.73625 0.9808 0.0
H50 H 0.51632 0.72538 1.00072 0.0
H51 H 0.53769 0.71095 0.9675 0.0
C52 C 0.24551 0.50288 0.13503 0.0
N53 N 0.22422 0.50121 0.13412 0.0
N54 N 0.25119 0.50152 0.19755 0.0
C55 C 0.26045 0.50706 0.07552 0.0
C56 C 0.23263 0.49881 0.23413 0.0
N57 N 0.21631 0.4986 0.19569 0.0
C58 C 0.23025 0.4974 0.3077 0.0
H59 H 0.27663 0.50178 0.08379 0.0
H60 H 0.26127 0.52301 0.06416 0.0
H61 H 0.25467 0.50028 0.03276 0.0
H62 H 0.22673 0.51204 0.32492 0.0
H63 H 0.24496 0.49188 0.32857 0.0
H64 H 0.21691 0.48764 0.32596 0.0
C65 C 0.07163 0.23598 0.26435 0.0
N66 N 0.07278 0.21635 0.26604 0.0
N67 N 0.07169 0.24211 0.32556 0.0
C68 C 0.06861 0.24899 0.2041 0.0
C69 C 0.07298 0.22551 0.36435 0.0
N70 N 0.07362 0.20987 0.32819 0.0
C71 C 0.07155 0.22451 0.43794 0.0
H72 H 0.07724 0.26288 0.20555 0.0
H73 H 0.05152 0.25239 0.20221 0.0
H74 H 0.07416 0.24187 0.15919 0.0
H75 H 0.05532 0.21992 0.45667 0.0
H76 H 0.0751 0.23876 0.45655 0.0
H77 H 0.08278 0.21361 0.45731 0.0
C78 C 0.2724 0.99732 0.23426 0.0
N79 N 0.29382 0.99603 0.23637 0.0
N80 N 0.2626 0.99577 0.29562 0.0
C81 C 0.26095 0.99859 0.17272 0.0
C82 C 0.27879 0.99373 0.33492 0.0
N83 N 0.29761 0.99363 0.29929 0.0
C84 C 0.2763 0.99347 0.40846 0.0
H85 H 0.25849 0.01412 0.15742 0.0
H86 H 0.24522 0.99146 0.1811 0.0
H87 H 0.27035 0.99177 0.13271 0.0
H88 H 0.27454 0.97823 0.4291 0.0
H89 H 0.26202 0.0017 0.4249 0.0
H90 H 0.29039 -0.00014 0.42795 0.0
C91 C 0.48831 0.28094 0.22079 0.0
N92 N 0.49212 0.30026 0.21844 0.0
N93 N 0.49017 0.27284 0.28212 0.0
C94 C 0.4824 0.27011 0.16391 0.0
C95 C 0.49526 0.28796 0.31668 0.0
N96 N 0.4964 0.30457 0.27789 0.0
C97 C 0.50014 0.28635 0.38733 0.0
H98 H 0.47266 0.25714 0.1809 0.0
H99 H 0.4971 0.2652 0.13717 0.0
H100 H 0.47365 0.27967 0.1296 0.0
H101 H 0.50736 0.27206 0.40033 0.0
H102 H 0.48516 0.28764 0.41831 0.0
H103 H 0.51098 0.29813 0.39803 0.0
C104 C 0.02344 0.96733 0.78822 0.0
N105 N 0.99985 0.96663 0.60332 0.0
C106 C 0.01349 0.95189 0.59028 0.0
C107 C 0.00761 0.93695 0.55288 0.0
C108 C 0.9873 0.93689 0.5295 0.0
C109 C 0.97359 0.95241 0.54344 0.0
C110 C 0.98027 0.96724 0.58016 0.0
Zn111 Zn 0.0087 0.98736 0.66253 0.0
C112 C 0.97369 0.99763 0.75933 0.0
N113 N 0.02799 0.0279 0.79396 0.0
C114 C 0.04407 0.02657 0.83432 0.0
C115 C 0.0152 0.04376 0.7918 0.0
C116 C 0.01866 0.05931 0.82908 0.0
C117 C 0.03506 0.05858 0.87165 0.0
C118 C 0.04776 0.0417 0.87425 0.0
Zn119 Zn 0.02052 0.00667 0.73446 0.0
O120 O 0.01627 0.96516 0.733 0.0
C121 C 0.05562 0.99634 0.63875 0.0
O122 O 0.02721 0.9843 0.8049 0.0
H123 H 0.00211 0.04449 0.76089 0.0
H124 H 0.02892 0.95156 0.60956 0.0
H125 H 0.0539 0.01372 0.83602 0.0
O126 O 0.04026 0.98723 0.61824 0.0
O127 O 0.05239 0.00577 0.68981 0.0
H128 H 0.96965 0.97907 0.59111 0.0
O129 O 0.01385 0.02863 0.66224 0.0
O130 O 0.00198 0.0097 0.59161 0.0
O131 O 0.989 0.00706 0.77844 0.0
O132 O 0.9769 0.98803 0.70885 0.0
C133 C 0.00669 0.02654 0.60722 0.0
H134 H 0.01893 0.92558 0.54254 0.0
H135 H 0.95768 0.95292 0.52752 0.0
H136 H 0.00853 0.07184 0.82321 0.0
H137 H 0.06029 0.03996 0.90714 0.0
C138 C 0.48981 0.98868 0.60136 0.0
N139 N 0.50998 0.04364 0.64344 0.0
C140 C 0.51264 0.04687 0.57731 0.0
C141 C 0.51042 0.06549 0.54787 0.0
C142 C 0.50548 0.08109 0.58668 0.0
C143 C 0.50287 0.07738 0.65495 0.0
C144 C 0.5052 0.05843 0.68246 0.0
Zn145 Zn 0.51288 0.01566 0.68154 0.0
C146 C 0.47723 0.00337 0.77875 0.0
N147 N 0.51866 0.95637 0.75179 0.0
C148 C 0.52541 0.94171 0.71439 0.0
C149 C 0.51437 0.9532 0.81752 0.0
C150 C 0.51663 0.93474 0.84808 0.0
C151 C 0.52365 0.91936 0.81096 0.0
C152 C 0.52815 0.92297 0.74326 0.0
Zn153 Zn 0.51567 0.98429 0.71307 0.0
O154 O 0.49432 0.00624 0.60934 0.0
C155 C 0.55126 0.99651 0.61571 0.0
O156 O 0.49701 0.9752 0.63891 0.0
H157 H 0.50941 0.96508 0.8467 0.0
H158 H 0.51634 0.03492 0.54707 0.0
H159 H 0.52881 0.94456 0.66228 0.0
O160 O 0.54112 0.01242 0.61879 0.0
O161 O 0.54421 0.98162 0.65056 0.0
H162 H 0.50316 0.05553 0.73492 0.0
O163 O 0.53404 0.99377 0.78609 0.0
O164 O 0.53181 0.02471 0.75466 0.0
O165 O 0.48731 0.98746 0.77494 0.0
O166 O 0.48436 0.01839 0.74474 0.0
C167 C 0.53881 0.01134 0.79294 0.0
H168 H 0.51222 0.06757 0.49506 0.0
H169 H 0.49927 0.089 0.68681 0.0
H170 H 0.51331 0.93261 0.90054 0.0
H171 H 0.53355 0.91142 0.71302 0.0
C172 C 0.52297 0.47409 0.60315 0.0
N173 N 0.46704 0.50395 0.64429 0.0
C174 C 0.46853 0.50466 0.57781 0.0
C175 C 0.45056 0.50647 0.54325 0.0
C176 C 0.43058 0.50803 0.57675 0.0
C177 C 0.42932 0.50717 0.6456 0.0
C178 C 0.44791 0.50509 0.67867 0.0
Zn179 Zn 0.49565 0.50181 0.68479 0.0
C180 C 0.50015 0.46958 0.78018 0.0
N181 N 0.55849 0.49724 0.74291 0.0
C182 C 0.5773 0.49701 0.70626 0.0
C183 C 0.55777 0.4963 0.80941 0.0
C184 C 0.5763 0.49569 0.84159 0.0
C185 C 0.59585 0.4956 0.80528 0.0
C186 C 0.59638 0.49598 0.73683 0.0
Zn187 Zn 0.52975 0.49945 0.70371 0.0
O188 O 0.50484 0.48108 0.618 0.0
C189 C 0.52571 0.53157 0.60809 0.0
O190 O 0.53885 0.47976 0.63116 0.0
H191 H 0.54273 0.49611 0.83795 0.0
H192 H 0.48379 0.50393 0.55092 0.0
H193 H 0.57751 0.49771 0.65349 0.0
O194 O 0.50687 0.52509 0.61734 0.0
O195 O 0.54018 0.52338 0.63967 0.0
H196 H 0.44707 0.50458 0.7315 0.0
O197 O 0.52003 0.51909 0.77511 0.0
O198 O 0.48678 0.52228 0.75301 0.0
O199 O 0.51903 0.47559 0.76701 0.0
O200 O 0.48509 0.47849 0.75316 0.0
C201 C 0.50193 0.52665 0.78646 0.0
H202 H 0.4524 0.5065 0.49045 0.0
H203 H 0.41425 0.50838 0.67351 0.0
H204 H 0.57538 0.49512 0.89454 0.0
H205 H 0.61132 0.49583 0.70757 0.0
C206 C 0.02926 0.51561 0.58019 0.0
N207 N 0.01906 0.4586 0.65722 0.0
C208 C 0.01665 0.45575 0.59333 0.0
C209 C 0.02187 0.43799 0.5682 0.0
C210 C 0.02925 0.42286 0.60943 0.0
C211 C 0.03099 0.42586 0.67564 0.0
C212 C 0.02596 0.44406 0.69859 0.0
Zn213 Zn 0.01322 0.48584 0.68722 0.0
C214 C 0.04984 0.50165 0.74865 0.0
N215 N 0.00222 0.544 0.73881 0.0
C216 C 0.01753 0.55794 0.73155 0.0
C217 C 0.98284 0.54747 0.7688 0.0
C218 C 0.97831 0.56542 0.79372 0.0
C219 C 0.99388 0.58 0.78795 0.0
C220 C 0.01369 0.57614 0.75601 0.0
Zn221 Zn 0.00816 0.51671 0.70938 0.0
O222 O 0.02786 0.49766 0.59809 0.0
C223 C 0.97194 0.5007 0.64502 0.0
O224 O 0.02183 0.52812 0.61812 0.0
H225 H 0.97095 0.53614 0.77464 0.0
H226 H 0.01091 0.46737 0.56135 0.0
H227 H 0.03285 0.55486 0.70759 0.0
O228 O 0.98399 0.48597 0.64507 0.0
O229 O 0.9777 0.51592 0.67054 0.0
H230 H 0.02783 0.44667 0.74911 0.0
O231 O 0.99495 0.50499 0.80126 0.0
O232 O 0.99831 0.47458 0.7772 0.0
O233 O 0.03858 0.51694 0.74605 0.0
O234 O 0.04278 0.486 0.72919 0.0
C235 C 0.99231 0.48701 0.81752 0.0
H236 H 0.02009 0.43606 0.51703 0.0
H237 H 0.03666 0.41443 0.70869 0.0
H238 H 0.96294 0.56765 0.81889 0.0
H239 H 0.02607 0.58704 0.75004 0.0
H240 H 0.23201 0.02202 0.26662 0.0
H241 H 0.19545 0.02232 0.31667 0.0
H242 H 0.20713 0.96815 0.4261 0.0
H243 H 0.24291 0.9674 0.37317 0.0
H244 H 0.16961 0.9669 0.39699 0.0
H245 H 0.20994 0.01553 0.48959 0.0
H246 H 0.23224 0.04484 0.4879 0.0
H247 H 0.18321 0.07931 0.40421 0.0
H248 H 0.16072 0.05015 0.4046 0.0
H249 H 0.09417 0.00823 0.67619 0.0
H250 H 0.12857 0.00813 0.61276 0.0
H251 H 0.09868 0.98603 0.45106 0.0
H252 H 0.06466 0.98536 0.5148 0.0
H253 H 0.14513 0.02569 0.50626 0.0
H254 H 0.13099 0.95769 0.36377 0.0
H255 H 0.11117 0.92677 0.37932 0.0
H256 H 0.11226 0.92813 0.58753 0.0
H257 H 0.13232 0.9589 0.5732 0.0
C258 C 0.22647 0.01 0.30011 0.0
C259 C 0.24029 0.99478 0.31661 0.0
C260 C 0.2057 0.01028 0.32952 0.0
C261 C 0.19852 0.9955 0.37679 0.0
C262 C 0.21211 0.97982 0.39033 0.0
C263 C 0.23263 0.97942 0.36033 0.0
C264 C 0.1773 0.99643 0.41414 0.0
C265 C 0.16428 0.97983 0.42049 0.0
C266 C 0.17031 0.01308 0.44648 0.0
C267 C 0.18375 0.03064 0.44649 0.0
C268 C 0.20397 0.02935 0.47045 0.0
C269 C 0.21664 0.04593 0.46976 0.0
C270 C 0.20917 0.06392 0.4458 0.0
C271 C 0.18899 0.06537 0.42264 0.0
C272 C 0.17627 0.04882 0.4231 0.0
C273 C 0.09498 0.00323 0.62727 0.0
C274 C 0.07666 0.99653 0.60108 0.0
C275 C 0.11466 0.00327 0.59082 0.0
C276 C 0.11644 0.99676 0.5272 0.0
C277 C 0.098 0.99064 0.50047 0.0
C278 C 0.07845 0.99031 0.5371 0.0
C279 C 0.13751 0.99617 0.48893 0.0
C280 C 0.15044 0.01282 0.48236 0.0
C281 C 0.1448 0.97934 0.45827 0.0
C282 C 0.13296 0.96071 0.46736 0.0
C283 C 0.12707 0.95135 0.41284 0.0
C284 C 0.11578 0.93386 0.42145 0.0
C285 C 0.11039 0.92553 0.48437 0.0
C286 C 0.11636 0.93463 0.53883 0.0
C287 C 0.12768 0.95211 0.53049 0.0
H288 H 0.10163 0.912 0.49093 0.0
H289 H 0.219 0.07674 0.44531 0.0
H290 H 0.51304 0.24295 0.23761 0.0
H291 H 0.51306 0.20951 0.28687 0.0
H292 H 0.46323 0.22443 0.42959 0.0
H293 H 0.46361 0.25793 0.38064 0.0
H294 H 0.49362 0.20615 0.48807 0.0
H295 H 0.45437 0.19468 0.30479 0.0
H296 H 0.44692 0.19591 0.18857 0.0
H297 H 0.50309 0.1628 0.14475 0.0
H298 H 0.51105 0.16161 0.26061 0.0
H299 H 0.47592 0.10855 0.62015 0.0
H300 H 0.47131 0.14091 0.5666 0.0
H301 H 0.52428 0.13089 0.42879 0.0
H302 H 0.52923 0.09869 0.48254 0.0
H303 H 0.49028 0.14633 0.36847 0.0
H304 H 0.53005 0.15939 0.55164 0.0
H305 H 0.53717 0.15823 0.66814 0.0
H306 H 0.47899 0.18841 0.71212 0.0
H307 H 0.47138 0.18951 0.59593 0.0
C308 C 0.50185 0.23885 0.27861 0.0
C309 C 0.48829 0.25278 0.30553 0.0
C310 C 0.50183 0.21982 0.30677 0.0
C311 C 0.48804 0.2144 0.36178 0.0
C312 C 0.47403 0.22827 0.38734 0.0
C313 C 0.47418 0.24731 0.35942 0.0
C314 C 0.48916 0.19466 0.39514 0.0
C315 C 0.4925 0.19307 0.46208 0.0
C316 C 0.48818 0.17759 0.36104 0.0
C317 C 0.4834 0.1782 0.29133 0.0
C318 C 0.46522 0.18779 0.2703 0.0
C319 C 0.46089 0.18846 0.20449 0.0
C320 C 0.47455 0.17948 0.15928 0.0
C321 C 0.49254 0.16977 0.17982 0.0
C322 C 0.49696 0.16907 0.24557 0.0
C323 C 0.48676 0.11332 0.57898 0.0
C324 C 0.50295 0.101 0.55565 0.0
C325 C 0.48404 0.13178 0.54824 0.0
C326 C 0.49749 0.13831 0.49381 0.0
C327 C 0.51364 0.12608 0.47045 0.0
C328 C 0.51641 0.10766 0.5012 0.0
C329 C 0.4948 0.1579 0.46109 0.0
C330 C 0.49122 0.15945 0.39436 0.0
C331 C 0.49545 0.17494 0.49539 0.0
C332 C 0.50004 0.17434 0.56522 0.0
C333 C 0.51869 0.16564 0.58624 0.0
C334 C 0.52283 0.16502 0.6522 0.0
C335 C 0.50851 0.17319 0.69753 0.0
C336 C 0.49005 0.18205 0.67696 0.0
C337 C 0.48582 0.18269 0.61106 0.0
H338 H 0.51175 0.1727 0.74858 0.0
H339 H 0.47117 0.18001 0.10835 0.0
H340 H 0.26047 0.52968 0.27415 0.0
H341 H 0.29235 0.5322 0.33271 0.0
H342 H 0.31994 0.48422 0.2319 0.0
H343 H 0.28697 0.48073 0.17779 0.0
H344 H 0.32713 0.47833 0.34861 0.0
H345 H 0.33763 0.53414 0.20297 0.0
H346 H 0.32889 0.56491 0.14269 0.0
H347 H 0.31853 0.59236 0.3235 0.0
H348 H 0.32693 0.56168 0.38498 0.0
H349 H 0.42693 0.52919 0.46071 0.0
H350 H 0.39793 0.52893 0.38996 0.0
H351 H 0.36103 0.49339 0.53756 0.0
H352 H 0.39087 0.4922 0.6067 0.0
H353 H 0.36103 0.54071 0.38819 0.0
H354 H 0.32875 0.46328 0.47085 0.0
H355 H 0.34213 0.43172 0.51439 0.0
H356 H 0.4045 0.44616 0.42875 0.0
H357 H 0.39144 0.47768 0.38406 0.0
C358 C 0.2735 0.51986 0.26417 0.0
C359 C 0.27144 0.50507 0.2216 0.0
C360 C 0.29181 0.52139 0.29709 0.0
C361 C 0.30881 0.50859 0.28624 0.0
C362 C 0.30709 0.49429 0.24124 0.0
C363 C 0.28845 0.49244 0.2096 0.0
C364 C 0.32761 0.50931 0.32541 0.0
C365 C 0.33462 0.49198 0.35676 0.0
C366 C 0.33779 0.52702 0.33533 0.0
C367 C 0.33277 0.54555 0.29861 0.0
C368 C 0.33335 0.5467 0.22992 0.0
C369 C 0.32847 0.56413 0.19553 0.0
C370 C 0.32311 0.58057 0.22925 0.0
C371 C 0.32267 0.57961 0.29745 0.0
C372 C 0.32752 0.56221 0.33209 0.0
C373 C 0.41276 0.52109 0.47802 0.0
C374 C 0.4115 0.51026 0.53881 0.0
C375 C 0.39603 0.52117 0.43767 0.0
C376 C 0.37741 0.51077 0.45755 0.0
C377 C 0.37547 0.50107 0.52021 0.0
C378 C 0.39244 0.50064 0.56021 0.0
C379 C 0.36037 0.50977 0.41179 0.0
C380 C 0.35364 0.52706 0.37952 0.0
C381 C 0.35119 0.49192 0.39841 0.0
C382 C 0.35915 0.47292 0.42475 0.0
C383 C 0.3453 0.45969 0.46117 0.0
C384 C 0.35284 0.44181 0.48607 0.0
C385 C 0.37417 0.43697 0.47454 0.0
C386 C 0.388 0.44996 0.43787 0.0
C387 C 0.38055 0.46784 0.41281 0.0
H388 H 0.37997 0.42313 0.49389 0.0
H389 H 0.31934 0.59405 0.20253 0.0
H390 H 0.09511 0.2746 0.29848 0.0
H391 H 0.08806 0.30647 0.34197 0.0
H392 H 0.03091 0.28357 0.44704 0.0
H393 H 0.03743 0.25223 0.40013 0.0
H394 H 0.02357 0.31839 0.40437 0.0
H395 H 0.07916 0.28817 0.51999 0.0
H396 H 0.11369 0.27229 0.53268 0.0
H397 H 0.14565 0.32319 0.44267 0.0
H398 H 0.11126 0.33928 0.42858 0.0
H399 H 0.0144 0.38677 0.65149 0.0
H400 H 0.02225 0.35614 0.60023 0.0
H401 H 0.06548 0.3864 0.45619 0.0
H402 H 0.05735 0.41707 0.50638 0.0
H403 H 0.08017 0.34873 0.51784 0.0
H404 H 0.022 0.37847 0.40671 0.0
H405 H 0.98658 0.39331 0.40393 0.0
H406 H 0.95849 0.34124 0.49892 0.0
H407 H 0.99382 0.32619 0.50321 0.0
C408 C 0.08087 0.27665 0.32975 0.0
C409 C 0.06682 0.26115 0.34643 0.0
C410 C 0.07695 0.2947 0.35523 0.0
C411 C 0.05918 0.29732 0.39902 0.0
C412 C 0.04476 0.28193 0.41365 0.0
C413 C 0.04851 0.26405 0.38727 0.0
C414 C 0.05581 0.31583 0.43121 0.0
C415 C 0.03593 0.32487 0.42966 0.0
C416 C 0.07193 0.32445 0.46398 0.0
C417 C 0.09263 0.31485 0.47261 0.0
C418 C 0.09355 0.29593 0.50248 0.0
C419 C 0.11309 0.2869 0.50997 0.0
C420 C 0.13185 0.29671 0.48834 0.0
C421 C 0.1311 0.3156 0.45931 0.0
C422 C 0.11159 0.32468 0.45158 0.0
C423 C 0.02573 0.38677 0.60934 0.0
C424 C 0.03524 0.40416 0.58255 0.0
C425 C 0.03014 0.36936 0.58009 0.0
C426 C 0.04436 0.36913 0.52442 0.0
C427 C 0.05448 0.38636 0.49915 0.0
C428 C 0.04978 0.4038 0.5276 0.0
C429 C 0.04805 0.35105 0.49085 0.0
C430 C 0.06794 0.34216 0.49227 0.0
C431 C 0.03183 0.34234 0.45921 0.0
C432 C 0.01057 0.35129 0.45589 0.0
C433 C 0.00829 0.37024 0.42752 0.0
C434 C 0.98823 0.37868 0.42557 0.0
C435 C 0.9703 0.36824 0.4514 0.0
C436 C 0.9724 0.34932 0.47902 0.0
C437 C 0.99243 0.34082 0.48118 0.0
H438 H 0.95478 0.37481 0.44987 0.0
H439 H 0.14697 0.28969 0.4942 0.0
H440 H 0.79522 0.97188 0.12497 0.0
H441 H 0.83214 0.9703 0.07849 0.0
H442 H 0.82536 0.02723 0.98119 0.0
H443 H 0.78932 0.02917 0.031 0.0
H444 H 0.84836 0.96861 0.96246 0.0
H445 H 0.87012 0.05114 0.94771 0.0
H446 H 0.86375 0.07949 0.01334 0.0
H447 H 0.85197 0.0416 0.18679 0.0
H448 H 0.85855 0.01304 0.12242 0.0
H449 H 0.9348 0.98578 0.72414 0.0
H450 H 0.90096 0.98517 0.79043 0.0
H451 H 0.93224 0.00621 0.95138 0.0
H452 H 0.96561 0.00783 0.88441 0.0
H453 H 0.89862 0.02394 0.94954 0.0
H454 H 0.91252 0.9559 0.95016 0.0
H455 H 0.92138 0.92444 0.90485 0.0
H456 H 0.86759 0.92933 0.78947 0.0
H457 H 0.85811 0.96063 0.83532 0.0
C458 C 0.80197 0.98423 0.09532 0.0
C459 C 0.78948 0.00066 0.08165 0.0
C460 C 0.82295 0.98326 0.06796 0.0
C461 C 0.83182 0.99869 0.0263 0.0
C462 C 0.81932 0.01525 0.01407 0.0
C463 C 0.7986 0.01633 0.04217 0.0
C464 C 0.85366 0.99734 0.99317 0.0
C465 C 0.85936 0.9807 0.96005 0.0
C466 C 0.86847 0.01281 0.99087 0.0
C467 C 0.86466 0.02994 0.03006 0.0
C468 C 0.86627 0.04886 0.9999 0.0
C469 C 0.8626 0.06496 0.03688 0.0
C470 C 0.8574 0.06234 0.10415 0.0
C471 C 0.85592 0.04361 0.13464 0.0
C472 C 0.85959 0.02746 0.09791 0.0
C473 C 0.9344 0.99033 0.77359 0.0
C474 C 0.95292 0.99703 0.7986 0.0
C475 C 0.91505 0.98978 0.81191 0.0
C476 C 0.91385 0.99541 0.87674 0.0
C477 C 0.93247 0.00189 0.90167 0.0
C478 C 0.95165 0.0028 0.86312 0.0
C479 C 0.89324 0.99533 0.91795 0.0
C480 C 0.88771 0.01178 0.95233 0.0
C481 C 0.87905 0.97934 0.92384 0.0
C482 C 0.88474 0.96067 0.89563 0.0
C483 C 0.90265 0.95031 0.91485 0.0
C484 C 0.90776 0.9325 0.8892 0.0
C485 C 0.89522 0.925 0.84374 0.0
C486 C 0.87735 0.93519 0.82449 0.0
C487 C 0.87201 0.9529 0.85062 0.0
H488 H 0.89928 0.91126 0.82371 0.0
H489 H 0.85455 0.07483 0.13268 0.0
H490 H 0.51449 0.75448 0.14424 0.0
H491 H 0.51244 0.7886 0.10211 0.0
H492 H 0.57538 0.78445 0.00807 0.0
H493 H 0.57734 0.75039 0.05134 0.0
H494 H 0.56785 0.82073 0.0534 0.0
H495 H 0.53451 0.7767 0.92162 0.0
H496 H 0.51025 0.75041 0.89982 0.0
H497 H 0.45708 0.78361 0.97157 0.0
H498 H 0.48105 0.81011 0.99392 0.0
H499 H 0.55764 0.89505 0.79673 0.0
H500 H 0.5628 0.86345 0.85586 0.0
H501 H 0.5012 0.86816 0.9581 0.0
H502 H 0.49595 0.89965 0.89916 0.0
H503 H 0.50873 0.83192 0.9097 0.0
H504 H 0.54331 0.87711 0.0352 0.0
H505 H 0.56841 0.9033 0.05125 0.0
H506 H 0.62042 0.86761 0.98637 0.0
H507 H 0.59558 0.84129 0.96897 0.0
C508 C 0.52808 0.76121 0.11661 0.0
C509 C 0.54612 0.75016 0.10117 0.0
C510 C 0.52688 0.78054 0.09208 0.0
C511 C 0.54364 0.78894 0.05107 0.0
C512 C 0.5623 0.77826 0.03961 0.0
C513 C 0.56348 0.75893 0.06436 0.0
C514 C 0.54083 0.80799 0.01482 0.0
C515 C 0.55505 0.82315 0.02154 0.0
C516 C 0.52405 0.81116 0.9735 0.0
C517 C 0.50958 0.79529 0.96004 0.0
C518 C 0.51765 0.77833 0.93314 0.0
C519 C 0.50396 0.76341 0.92059 0.0
C520 C 0.48215 0.76529 0.93463 0.0
C521 C 0.47398 0.78216 0.96087 0.0
C522 C 0.48761 0.79715 0.97333 0.0
C523 C 0.54515 0.88923 0.83138 0.0
C524 C 0.52642 0.89978 0.84355 0.0
C525 C 0.54818 0.87129 0.86545 0.0
C526 C 0.53246 0.8636 0.9118 0.0
C527 C 0.51355 0.8739 0.92275 0.0
C528 C 0.51061 0.89188 0.88927 0.0
C529 C 0.53561 0.84475 0.94876 0.0
C530 C 0.52148 0.82956 0.94183 0.0
C531 C 0.55259 0.84156 0.98925 0.0
C532 C 0.56756 0.8573 1.00013 0.0
C533 C 0.56008 0.8749 0.02382 0.0
C534 C 0.57426 0.88976 0.03326 0.0
C535 C 0.59599 0.88714 0.01966 0.0
C536 C 0.60359 0.86963 0.99678 0.0
C537 C 0.58946 0.85473 0.98717 0.0
H538 H 0.60695 0.89866 0.02699 0.0
H539 H 0.47157 0.75371 0.92498 0.0
H540 H 0.74416 0.50747 0.1938 0.0
H541 H 0.71264 0.51045 0.13078 0.0
H542 H 0.71616 0.44927 0.09979 0.0
H543 H 0.74719 0.44626 0.16473 0.0
H544 H 0.71728 0.47563 0.98305 0.0
H545 H 0.67672 0.46238 0.18908 0.0
H546 H 0.66574 0.46765 0.30408 0.0
H547 H 0.64625 0.52572 0.24824 0.0
H548 H 0.65741 0.5209 0.13295 0.0
H549 H 0.62541 0.46693 0.80812 0.0
H550 H 0.65446 0.46348 0.8805 0.0
H551 H 0.6389 0.51941 0.95347 0.0
H552 H 0.60929 0.52233 0.88336 0.0
H553 H 0.64406 0.49553 0.05091 0.0
H554 H 0.6847 0.5108 0.849 0.0
H555 H 0.6969 0.50791 0.73338 0.0
H556 H 0.71795 0.44965 0.77898 0.0
H557 H 0.70561 0.4521 0.8948 0.0
C558 C 0.73761 0.4946 0.17555 0.0
C559 C 0.74785 0.47664 0.18397 0.0
C560 C 0.7198 0.4963 0.13927 0.0
C561 C 0.71223 0.48008 0.11044 0.0
C562 C 0.72184 0.46194 0.12157 0.0
C563 C 0.73943 0.46021 0.15864 0.0
C564 C 0.69557 0.48241 0.06386 0.0
C565 C 0.70115 0.4797 0.99781 0.0
C566 C 0.67486 0.48843 0.08315 0.0
C567 C 0.66811 0.49134 0.15245 0.0
C568 C 0.67029 0.47634 0.20138 0.0
C569 C 0.66399 0.47923 0.26662 0.0
C570 C 0.65536 0.49703 0.28349 0.0
C571 C 0.65296 0.51195 0.23512 0.0
C572 C 0.65925 0.50914 0.16981 0.0
C573 C 0.62856 0.4786 0.83877 0.0
C574 C 0.61536 0.49494 0.84019 0.0
C575 C 0.64512 0.47666 0.88007 0.0
C576 C 0.64902 0.49126 0.92224 0.0
C577 C 0.6362 0.50791 0.9217 0.0
C578 C 0.61942 0.50967 0.88138 0.0
C579 C 0.66567 0.48876 0.96941 0.0
C580 C 0.66015 0.49146 0.03571 0.0
C581 C 0.6866 0.48311 0.95011 0.0
C582 C 0.69403 0.48157 0.88048 0.0
C583 C 0.69177 0.49731 0.83429 0.0
C584 C 0.69875 0.49577 0.76873 0.0
C585 C 0.70815 0.47859 0.74881 0.0
C586 C 0.71064 0.46294 0.79446 0.0
C587 C 0.70368 0.4644 0.86009 0.0
H588 H 0.71354 0.47742 0.69804 0.0
H589 H 0.65048 0.49923 0.33401 0.0
H590 H 0.97889 0.73574 0.10465 0.0
H591 H 0.98716 0.70411 0.06037 0.0
H592 H 0.92722 0.70515 0.97296 0.0
H593 H 0.91915 0.7368 0.01751 0.0
H594 H 0.93775 0.66824 0.02765 0.0
H595 H 0.96918 0.71982 0.88332 0.0
H596 H 0.99113 0.74913 0.85662 0.0
H597 H 0.0461 0.7178 0.91496 0.0
H598 H 0.02435 0.68837 0.94333 0.0
H599 H 0.95779 0.6018 0.78476 0.0
H600 H 0.94965 0.6315 0.8398 0.0
H601 H 0.01189 0.63055 0.91216 0.0
H602 H 0.02014 0.60074 0.85739 0.0
H603 H 1.00076 0.66696 0.86911 0.0
H604 H 0.9697 0.61515 0.01128 0.0
H605 H 0.94772 0.58595 0.04029 0.0
H606 H 0.89231 0.61755 0.98736 0.0
H607 H 0.91402 0.64688 0.95708 0.0
C608 C 0.96742 0.72887 0.07714 0.0
C609 C 0.94842 0.73832 0.06435 0.0
C610 C 0.97212 0.71098 0.05169 0.0
C611 C 0.95786 0.70242 0.01294 0.0
C612 C 0.93839 0.71151 0.00285 0.0
C613 C 0.93377 0.72946 0.02809 0.0
C614 C 0.96386 0.68473 0.97917 0.0
C615 C 0.9514 0.66798 0.99252 0.0
C616 C 0.98191 0.68437 0.93431 0.0
C617 C 0.99509 0.70194 0.9161 0.0
C618 C 0.98591 0.71921 0.89093 0.0
C619 C 0.99832 0.73585 0.87546 0.0
C620 C 0.01999 0.73534 0.88422 0.0
C621 C 0.0293 0.71818 0.9083 0.0
C622 C 0.01694 0.70151 0.92409 0.0
C623 C 0.96974 0.60788 0.8125 0.0
C624 C 0.98955 0.59883 0.81716 0.0
C625 C 0.96507 0.62486 0.84388 0.0
C626 C 0.98005 0.63304 0.88094 0.0
C627 C 1.0001 0.62443 0.88391 0.0
C628 C 0.0048 0.60745 0.8524 0.0
C629 C 0.97462 0.6504 0.91741 0.0
C630 C 0.98717 0.66714 0.90448 0.0
C631 C 0.95666 0.65073 0.96274 0.0
C632 C 0.94353 0.63316 0.98135 0.0
C633 C 0.95285 0.61583 0.00536 0.0
C634 C 0.94044 0.59926 0.0221 0.0
C635 C 0.91864 0.59988 0.01553 0.0
C636 C 0.9092 0.61709 0.99236 0.0
C637 C 0.92155 0.63369 0.97545 0.0
H638 H 0.90906 0.58703 0.02852 0.0
H639 H 0.02957 0.74824 0.87221 0.0
H640 H 0.09868 0.18705 0.40199 0.0
H641 H 0.09129 0.15329 0.44491 0.0
H642 H 0.03322 0.15428 0.34756 0.0
H643 H 0.03974 0.1883 0.30951 0.0
H644 H 0.05237 0.1397 0.52294 0.0
H645 H 0.04001 0.10551 0.26876 0.0
H646 H 0.05867 0.10688 0.15886 0.0
H647 H 0.11309 0.13192 0.23212 0.0
H648 H 0.09577 0.12929 0.34331 0.0
H649 H 0.98721 0.06163 0.60771 0.0
H650 H 1.00107 0.09156 0.54921 0.0
H651 H 0.0494 0.05835 0.44725 0.0
H652 H 0.03431 0.02842 0.50156 0.0
H653 H 0.04433 0.08698 0.37409 0.0
H654 H 0.05694 0.08065 0.59554 0.0
H655 H 0.05159 0.07619 0.71568 0.0
H656 H 0.01406 0.12809 0.71937 0.0
H657 H 0.01888 0.13272 0.59918 0.0
C658 C 0.08424 0.18004 0.39085 0.0
C659 C 0.06974 0.19008 0.35268 0.0
C660 C 0.08014 0.16083 0.4147 0.0
C661 C 0.06187 0.15135 0.39846 0.0
C662 C 0.04754 0.16133 0.35969 0.0
C663 C 0.05129 0.18064 0.33784 0.0
C664 C 0.05685 0.13131 0.42425 0.0
C665 C 0.0506 0.12809 0.49071 0.0
C666 C 0.0559 0.116 0.38234 0.0
C667 C 0.06624 0.11771 0.31468 0.0
C668 C 0.05597 0.11129 0.26173 0.0
C669 C 0.06634 0.1122 0.1991 0.0
C670 C 0.08677 0.11985 0.18823 0.0
C671 C 0.09714 0.12621 0.24035 0.0
C672 C 0.08708 0.12494 0.30332 0.0
C673 C 1.00007 0.06075 0.57019 0.0
C674 C 0.00952 0.04285 0.55807 0.0
C675 C 0.00832 0.07784 0.53783 0.0
C676 C 0.02685 0.07735 0.49569 0.0
C677 C 0.0352 0.05924 0.47969 0.0
C678 C 0.02645 0.04209 0.51029 0.0
C679 C 0.03834 0.09563 0.47267 0.0
C680 C 0.04598 0.0985 0.40664 0.0
C681 C 0.04204 0.1102 0.51605 0.0
C682 C 0.03817 0.10697 0.58818 0.0
C683 C 0.04733 0.09099 0.62187 0.0
C684 C 0.04443 0.08846 0.69002 0.0
C685 C 0.03254 0.10188 0.72509 0.0
C686 C 0.0233 0.11773 0.6921 0.0
C687 C 0.0261 0.12031 0.62397 0.0
H688 H 0.03058 0.1001 0.77787 0.0
H689 H 0.09461 0.12068 0.1395 0.0
H690 H 0.33254 0.0163 0.27692 0.0
H691 H 0.36706 0.01022 0.32228 0.0
H692 H 0.34233 0.95816 0.42791 0.0
H693 H 0.30824 0.96356 0.38017 0.0
H694 H 0.36747 0.99715 0.48761 0.0
H695 H 0.36718 0.94157 0.35062 0.0
H696 H 0.36268 0.92788 0.24498 0.0
H697 H 0.41332 0.9638 0.1544 0.0
H698 H 0.41767 0.97815 0.25932 0.0
H699 H 0.47029 0.95403 0.58403 0.0
H700 H 0.43912 0.94984 0.52205 0.0
H701 H 0.44284 0.0101 0.45127 0.0
H702 H 0.47394 0.01441 0.51154 0.0
H703 H 0.42741 0.96223 0.3783 0.0
H704 H 0.39136 0.02668 0.51008 0.0
H705 H 0.39643 0.04434 0.60801 0.0
H706 H 0.42039 0.99255 0.70425 0.0
H707 H 0.41429 0.97427 0.60848 0.0
C708 C 0.33469 0.00343 0.30892 0.0
C709 C 0.31791 0.99033 0.3251 0.0
C710 C 0.35429 -3e-05 0.33447 0.0
C711 C 0.35725 0.98355 0.37688 0.0
C712 C 0.3404 0.9707 0.39418 0.0
C713 C 0.32096 0.97389 0.36758 0.0
C714 C 0.37764 0.98055 0.4062 0.0
C715 C 0.38053 0.98935 0.46424 0.0
C716 C 0.39453 0.9704 0.37508 0.0
C717 C 0.3923 0.96139 0.31246 0.0
C718 C 0.37703 0.94688 0.30794 0.0
C719 C 0.37458 0.93893 0.24823 0.0
C720 C 0.38756 0.94512 0.19284 0.0
C721 C 0.40314 0.95916 0.19722 0.0
C722 C 0.40557 0.96724 0.25678 0.0
C723 C 0.46486 0.96621 0.55361 0.0
C724 C 0.47431 0.98464 0.55372 0.0
C725 C 0.44713 0.96376 0.5181 0.0
C726 C 0.43864 0.97975 0.48305 0.0
C727 C 0.44916 0.99766 0.47847 0.0
C728 C 0.46688 8e-05 0.5133 0.0
C729 C 0.41721 0.97882 0.45987 0.0
C730 C 0.4142 0.96959 0.40259 0.0
C731 C 0.40014 0.98867 0.49158 0.0
C732 C 0.4027 -0.00084 0.55139 0.0
C733 C 0.39748 0.01898 0.55238 0.0
C734 C 0.40045 0.02908 0.60766 0.0
C735 C 0.40876 0.01957 0.66224 0.0
C736 C 0.41399 -0.0001 0.66184 0.0
C737 C 0.41068 0.98963 0.60714 0.0
H738 H 0.41107 0.02744 0.70488 0.0
H739 H 0.38565 0.93895 0.14664 0.0
H740 H 0.47263 0.32669 0.35651 0.0
H741 H 0.48197 0.35883 0.39083 0.0
H742 H 0.54158 0.35681 0.27519 0.0
H743 H 0.53206 0.32462 0.24105 0.0
H744 H 0.54459 0.36669 0.40687 0.0
H745 H 0.50534 0.38607 0.22099 0.0
H746 H 0.47447 0.38571 0.1544 0.0
H747 H 0.43451 0.40607 0.3128 0.0
H748 H 0.46484 0.40612 0.38118 0.0
H749 H 0.55828 0.46088 0.53194 0.0
H750 H 0.55914 0.43507 0.45468 0.0
H751 H 0.49185 0.4264 0.49635 0.0
H752 H 0.49078 0.45226 0.56989 0.0
H753 H 0.49978 0.42512 0.37429 0.0
H754 H 0.53197 0.39668 0.5667 0.0
H755 H 0.55899 0.39431 0.64737 0.0
H756 H 0.60774 0.38864 0.49313 0.0
H757 H 0.58098 0.3912 0.41148 0.0
C758 C 0.48761 0.3333 0.33838 0.0
C759 C 0.50165 0.32354 0.29623 0.0
C760 C 0.49291 0.35157 0.35753 0.0
C761 C 0.51238 0.36022 0.33491 0.0
C762 C 0.52645 0.3504 0.29274 0.0
C763 C 0.52103 0.33217 0.27317 0.0
C764 C 0.51825 0.37913 0.35823 0.0
C765 C 0.53512 0.37965 0.39865 0.0
C766 C 0.50562 0.39583 0.34817 0.0
C767 C 0.48742 0.39605 0.30639 0.0
C768 C 0.48996 0.39036 0.24185 0.0
C769 C 0.47257 0.39021 0.20373 0.0
C770 C 0.45262 0.39587 0.22924 0.0
C771 C 0.44998 0.4017 0.29303 0.0
C772 C 0.46726 0.4018 0.33151 0.0
C773 C 0.54374 0.45346 0.52407 0.0
C774 C 0.52448 0.45864 0.55673 0.0
C775 C 0.54423 0.43872 0.48013 0.0
C776 C 0.52554 0.42874 0.46964 0.0
C777 C 0.50644 0.43399 0.50265 0.0
C778 C 0.50588 0.44879 0.54515 0.0
C779 C 0.52531 0.41237 0.42632 0.0
C780 C 0.50963 0.41236 0.38137 0.0
C781 C 0.5385 0.3959 0.43409 0.0
C782 C 0.55455 0.3944 0.48301 0.0
C783 C 0.54848 0.39508 0.55001 0.0
C784 C 0.56373 0.39368 0.59588 0.0
C785 C 0.58508 0.39141 0.57536 0.0
C786 C 0.59121 0.39046 0.50893 0.0
C787 C 0.57601 0.39189 0.46284 0.0
H788 H 0.59687 0.39031 0.61095 0.0
H789 H 0.43922 0.39574 0.19955 0.0
H790 H 0.18861 0.47162 0.24964 0.0
H791 H 0.15288 0.47774 0.29958 0.0
H792 H 0.1607 0.53899 0.24422 0.0
H793 H 0.19601 0.53255 0.19273 0.0
H794 H 0.14335 0.4987 0.40085 0.0
H795 H 0.11339 0.5605 0.23187 0.0
H796 H 0.11847 0.57292 0.11638 0.0
H797 H 0.13045 0.51498 0.05887 0.0
H798 H 0.12536 0.50222 0.17391 0.0
H799 H 0.05833 0.54462 0.56175 0.0
H800 H 0.08758 0.54659 0.47646 0.0
H801 H 0.05888 0.50112 0.37914 0.0
H802 H 0.03002 0.49863 0.46533 0.0
H803 H 0.0854 0.53467 0.29571 0.0
H804 H 0.08544 0.48184 0.47263 0.0
H805 H 0.08072 0.47143 0.59008 0.0
H806 H 0.12869 0.51183 0.6307 0.0
H807 H 0.13339 0.52271 0.51343 0.0
C808 C 0.1823 0.48623 0.24717 0.0
C809 C 0.19462 0.50165 0.21747 0.0
C810 C 0.16209 0.48978 0.2758 0.0
C811 C 0.15406 0.50881 0.27527 0.0
C812 C 0.16635 0.52416 0.24414 0.0
C813 C 0.18643 0.52054 0.21494 0.0
C814 C 0.13348 0.51274 0.31099 0.0
C815 C 0.13071 0.50647 0.3775 0.0
C816 C 0.11704 0.52318 0.28112 0.0
C817 C 0.11917 0.53045 0.21147 0.0
C818 C 0.11696 0.5504 0.19448 0.0
C819 C 0.11991 0.55751 0.12918 0.0
C820 C 0.12495 0.54479 0.08046 0.0
C821 C 0.12674 0.52487 0.09671 0.0
C822 C 0.12384 0.51768 0.16198 0.0
C823 C 0.05779 0.53571 0.52051 0.0
C824 C 0.04214 0.5214 0.5199 0.0
C825 C 0.07447 0.53683 0.47199 0.0
C826 C 0.0753 0.52392 0.42204 0.0
C827 C 0.05834 0.51126 0.4172 0.0
C828 C 0.04195 0.50981 0.46644 0.0
C829 C 0.0955 0.52051 0.38456 0.0
C830 C 0.09816 0.52689 0.31839 0.0
C831 C 0.1119 0.51019 0.41452 0.0
C832 C 0.10966 0.50316 0.48449 0.0
C833 C 0.0949 0.48856 0.50668 0.0
C834 C 0.09223 0.48257 0.57317 0.0
C835 C 0.10441 0.49096 0.61779 0.0
C836 C 0.11928 0.50534 0.59602 0.0
C837 C 0.12196 0.51142 0.52958 0.0
H838 H 0.10239 0.48626 0.66918 0.0
H839 H 0.12752 0.55044 0.03025 0.0
H840 H 0.98997 0.79927 0.05584 0.0
H841 H 0.0047 0.83172 0.02468 0.0
H842 H 0.94165 0.85587 0.03969 0.0
H843 H 0.92703 0.82316 0.06655 0.0
H844 H 0.96069 0.87013 0.93513 0.0
H845 H 0.97947 0.86238 0.15315 0.0
H846 H 0.99436 0.84672 0.25136 0.0
H847 H 0.05665 0.85005 0.15376 0.0
H848 H 0.04208 0.86516 0.05458 0.0
H849 H 0.01759 0.96597 0.92162 0.0
H850 H 0.00807 0.93681 0.99299 0.0
H851 H 0.02128 0.9012 0.83053 0.0
H852 H 0.03043 0.9301 0.75914 0.0
H853 H 0.0238 0.89717 0.02683 0.0
H854 H 0.97471 0.87891 0.81207 0.0
H855 H 0.95994 0.89659 0.71732 0.0
H856 H 0.9555 0.94856 0.82098 0.0
H857 H 0.96963 0.93108 0.91692 0.0
C858 C 0.97939 0.8116 0.05215 0.0
C859 C 0.95747 0.80895 0.06371 0.0
C860 C 0.98777 0.83013 0.03534 0.0
C861 C 0.97433 0.84636 0.03103 0.0
C862 C 0.95236 0.84363 0.0431 0.0
C863 C 0.94401 0.82504 0.05887 0.0
C864 C 0.98307 0.86589 0.00907 0.0
C865 C 0.97434 0.87604 0.95587 0.0
C866 C 1.00069 0.87394 0.03673 0.0
C867 C 0.00959 0.86479 0.09629 0.0
C868 C 0.99629 0.85959 0.15255 0.0
C869 C 0.00467 0.85084 0.20834 0.0
C870 C 0.02641 0.84743 0.20879 0.0
C871 C 0.0398 0.85271 0.15337 0.0
C872 C 0.03148 0.86136 0.09732 0.0
C873 C 0.01928 0.95183 0.90193 0.0
C874 C 0.02436 0.95023 0.83477 0.0
C875 C 0.01386 0.93523 0.94273 0.0
C876 C 0.01361 0.917 0.91646 0.0
C877 C 0.02118 0.91522 0.85132 0.0
C878 C 0.02636 0.93172 0.81061 0.0
C879 C 0.0019 0.90055 0.95193 0.0
C880 C 0.00998 0.89118 0.0073 0.0
C881 C 0.98334 0.8934 0.92757 0.0
C882 C 0.97345 0.90369 0.87153 0.0
C883 C 0.97036 0.89405 0.81494 0.0
C884 C 0.96211 0.90405 0.76097 0.0
C885 C 0.95687 0.9237 0.76303 0.0
C886 C 0.95968 0.93337 0.81926 0.0
C887 C 0.96776 0.9234 0.87351 0.0
H888 H 0.95059 0.93143 0.7211 0.0
H889 H 0.03287 0.8407 0.25208 0.0
H890 H 0.71934 0.03654 0.02774 0.0
H891 H 0.68535 0.04138 0.97838 0.0
H892 H 0.66706 0.98277 0.04566 0.0
H893 H 0.70084 0.9782 0.0959 0.0
H894 H 0.65757 0.99063 0.92466 0.0
H895 H 0.65341 0.0254 0.12209 0.0
H896 H 0.66184 0.0507 0.19467 0.0
H897 H 0.64471 0.09498 0.05141 0.0
H898 H 0.63617 0.06998 0.9775 0.0
H899 H 0.5505 0.98769 0.89513 0.0
H900 H 0.58223 0.99069 0.95396 0.0
H901 H 0.59516 0.04686 0.85379 0.0
H902 H 0.56318 0.04405 0.79465 0.0
H903 H 0.60769 0.04307 0.98635 0.0
H904 H 0.61633 0.0118 0.78605 0.0
H905 H 0.60683 0.98865 0.70683 0.0
H906 H 0.61801 0.94089 0.84514 0.0
H907 H 0.627 0.9638 0.92598 0.0
C908 C 0.70785 0.02485 0.03212 0.0
C909 C 0.71228 0.00712 0.06591 0.0
C910 C 0.68852 0.0276 0.0043 0.0
C911 C 0.67341 0.01261 0.01016 0.0
C912 C 0.67822 0.99469 0.04239 0.0
C913 C 0.69742 0.99204 0.0708 0.0
C914 C 0.65258 0.01534 0.98263 0.0
C915 C 0.64664 0.00201 0.93875 0.0
C916 C 0.63864 0.0307 0.99908 0.0
C917 C 0.64406 0.04569 0.04395 0.0
C918 C 0.65136 0.04048 0.10581 0.0
C919 C 0.65621 0.0548 0.14728 0.0
C920 C 0.65381 0.07441 0.1277 0.0
C921 C 0.64654 0.07977 0.06657 0.0
C922 C 0.64165 0.06552 0.0249 0.0
C923 C 0.55975 0.00093 0.88684 0.0
C924 C 0.5546 0.01549 0.83941 0.0
C925 C 0.57785 0.00263 0.92059 0.0
C926 C 0.59118 0.01881 0.90711 0.0
C927 C 0.58504 0.03424 0.86458 0.0
C928 C 0.5668 0.0326 0.83083 0.0
C929 C 0.61275 0.01814 0.93005 0.0
C930 C 0.61879 0.0318 0.9725 0.0
C931 C 0.62709 0.00341 0.91135 0.0
C932 C 0.62213 0.98954 0.86237 0.0
C933 C 0.61656 0.99637 0.79986 0.0
C934 C 0.61125 0.98329 0.75465 0.0
C935 C 0.61179 0.96331 0.77096 0.0
C936 C 0.61761 0.95637 0.83257 0.0
C937 C 0.62278 0.9694 0.87816 0.0
H938 H 0.60774 0.95321 0.73581 0.0
H939 H 0.6576 0.08546 0.15991 0.0
H940 H 0.50133 0.69188 0.04529 0.0
H941 H 0.49144 0.66237 0.99433 0.0
H942 H 0.55261 0.63766 0.02929 0.0
H943 H 0.56241 0.66722 0.0797 0.0
H944 H 0.54261 0.63015 0.91435 0.0
H945 H 0.5055 0.62906 0.12753 0.0
H946 H 0.48043 0.63967 0.21513 0.0
H947 H 0.42887 0.63395 0.09368 0.0
H948 H 0.45361 0.62334 0.00492 0.0
H949 H 0.52769 0.53271 0.88271 0.0
H950 H 0.52907 0.56153 0.94441 0.0
H951 H 0.47294 0.58379 0.85903 0.0
H952 H 0.47133 0.55475 0.79687 0.0
H953 H 0.47787 0.59301 0.99611 0.0
H954 H 0.51501 0.59574 0.78234 0.0
H955 H 0.5394 0.58231 0.69783 0.0
H956 H 0.59068 0.58549 0.822 0.0
H957 H 0.5664 0.59816 0.90848 0.0
C958 C 0.51258 0.68008 0.04159 0.0
C959 C 0.53253 0.68154 0.06628 0.0
C960 C 0.50692 0.66325 0.01311 0.0
C961 C 0.52109 0.64758 0.00973 0.0
C962 C 0.54127 0.64937 0.03282 0.0
C963 C 0.54689 0.66617 0.06138 0.0
C964 C 0.51502 0.62924 0.98262 0.0
C965 C 0.52852 0.62201 0.9327 0.0
C966 C 0.49633 0.61882 0.00556 0.0
C967 C 0.48151 0.62537 0.05922 0.0
C968 C 0.48885 0.63002 0.11925 0.0
C969 C 0.47469 0.63608 0.1692 0.0
C970 C 0.4531 0.63749 0.15998 0.0
C971 C 0.44561 0.63284 0.10078 0.0
C972 C 0.4597 0.62677 0.05064 0.0
C973 C 0.51531 0.54349 0.8782 0.0
C974 C 0.49964 0.54171 0.83398 0.0
C975 C 0.51608 0.55989 0.91372 0.0
C976 C 0.50133 0.57485 0.90522 0.0
C977 C 0.48447 0.57234 0.86598 0.0
C978 C 0.48361 0.55581 0.83043 0.0
C979 C 0.50559 0.59405 0.92902 0.0
C980 C 0.49182 0.60136 0.97787 0.0
C981 C 0.52399 0.60463 0.90529 0.0
C982 C 0.5388 0.59773 0.85225 0.0
C983 C 0.53143 0.59339 0.79197 0.0
C984 C 0.54523 0.58587 0.74374 0.0
C985 C 0.56657 0.58306 0.75452 0.0
C986 C 0.57414 0.58769 0.81369 0.0
C987 C 0.56035 0.59497 0.86244 0.0
H988 H 0.57724 0.57732 0.71699 0.0
H989 H 0.44216 0.64219 0.19874 0.0
H990 H 0.83426 0.45143 0.24396 0.0
H991 H 0.87109 0.45038 0.196 0.0
H992 H 0.85863 0.50029 0.06589 0.0
H993 H 0.82198 0.50095 0.11317 0.0
H994 H 0.87563 0.47232 0.99976 0.0
H995 H 0.89001 0.50369 0.19356 0.0
H996 H 0.89042 0.50775 0.31179 0.0
H997 H 0.92545 0.45473 0.33637 0.0
H998 H 0.92531 0.45034 0.21823 0.0
H999 H 0.98338 0.50894 0.92127 0.0
H1000 H 0.95622 0.50228 0.01044 0.0
H1001 H 0.94643 0.44531 0.94384 0.0
H1002 H 0.97364 0.45183 0.85422 0.0
H1003 H 0.94192 0.47388 0.11395 0.0
H1004 H 0.89477 0.4451 0.91321 0.0
H1005 H 0.89647 0.4462 0.79261 0.0
H1006 H 0.92659 0.50215 0.78161 0.0
H1007 H 0.92455 0.50156 0.90183 0.0
C1008 C 0.83965 0.46215 0.20539 0.0
C1009 C 0.82554 0.47605 0.18092 0.0
C1010 C 0.86057 0.46165 0.17838 0.0
C1011 C 0.86755 0.47521 0.12719 0.0
C1012 C 0.85353 0.48958 0.1049 0.0
C1013 C 0.8327 0.48998 0.13159 0.0
C1014 C 0.88885 0.47378 0.09306 0.0
C1015 C 0.89006 0.4725 0.02507 0.0
C1016 C 0.90772 0.47416 0.12588 0.0
C1017 C 0.90746 0.47658 0.19712 0.0
C1018 C 0.89761 0.49279 0.22425 0.0
C1019 C 0.89783 0.49517 0.29122 0.0
C1020 C 0.90783 0.48145 0.33155 0.0
C1021 C 0.91767 0.46532 0.30504 0.0
C1022 C 0.91758 0.4629 0.23806 0.0
C1023 C 0.97594 0.49474 0.92678 0.0
C1024 C 0.98023 0.48107 0.87985 0.0
C1025 C 0.96059 0.49089 0.97828 0.0
C1026 C 0.94919 0.47342 0.98311 0.0
C1027 C 0.95508 0.4589 0.94067 0.0
C1028 C 0.97055 0.46269 0.88931 0.0
C1029 C 0.92845 0.47237 0.02128 0.0
C1030 C 0.92737 0.47324 0.08945 0.0
C1031 C 0.90956 0.47225 0.98873 0.0
C1032 C 0.90979 0.47313 0.91639 0.0
C1033 C 0.90162 0.45767 0.88494 0.0
C1034 C 0.90265 0.45822 0.81662 0.0
C1035 C 0.91177 0.47418 0.77937 0.0
C1036 C 0.91961 0.48975 0.81036 0.0
C1037 C 0.91849 0.48933 0.87857 0.0
H1038 H 0.91277 0.47452 0.72656 0.0
H1039 H 0.90809 0.48339 0.38323 0.0
H1040 H 0.09989 0.18848 0.23011 0.0
H1041 H 0.09363 0.16322 0.1555 0.0
H1042 H 0.03433 0.19032 0.11196 0.0
H1043 H 0.04066 0.21551 0.18714 0.0
H1044 H 0.02978 0.15175 0.1469 0.0
H1045 H 0.07584 0.19147 0.99678 0.0
H1046 H 0.10837 0.21008 0.96167 0.0
H1047 H 0.14566 0.1585 0.98987 0.0
H1048 H 0.11336 0.13962 0.02599 0.0
H1049 H 0.00635 0.08625 0.91438 0.0
H1050 H 0.01314 0.11493 0.97007 0.0
H1051 H 0.07793 0.09691 0.98705 0.0
H1052 H 0.07228 0.0697 0.92172 0.0
H1053 H 0.07884 0.13233 0.96368 0.0
H1054 H 0.03231 0.09169 0.10949 0.0
H1055 H 1.00027 0.07352 0.15121 0.0
H1056 H 0.96349 0.1258 0.13697 0.0
H1057 H 0.99532 0.1444 0.09472 0.0
C1058 C 0.08585 0.18924 0.20302 0.0
C1059 C 0.07093 0.204 0.21312 0.0
C1060 C 0.08221 0.17482 0.16079 0.0
C1061 C 0.06351 0.1749 0.12808 0.0
C1062 C 0.04888 0.19002 0.13659 0.0
C1063 C 0.05261 0.20453 0.17862 0.0
C1064 C 0.05868 0.15854 0.08834 0.0
C1065 C 0.04022 0.14765 0.10589 0.0
C1066 C 0.07277 0.15288 0.03661 0.0
C1067 C 0.09219 0.16417 0.01449 0.0
C1068 C 0.09099 0.18412 0.9959 0.0
C1069 C 0.10938 0.19471 0.97575 0.0
C1070 C 0.12907 0.18548 0.97364 0.0
C1071 C 0.1304 0.16563 0.99155 0.0
C1072 C 0.11205 0.15497 0.01178 0.0
C1073 C 0.02229 0.08846 0.92781 0.0
C1074 C 0.03878 0.07537 0.91202 0.0
C1075 C 0.02599 0.10481 0.96161 0.0
C1076 C 0.04591 0.10799 0.98456 0.0
C1077 C 0.06233 0.09484 0.97021 0.0
C1078 C 0.05893 0.07894 0.93362 0.0
C1079 C 0.04983 0.12517 0.02218 0.0
C1080 C 0.06817 0.13632 0.00432 0.0
C1081 C 0.0356 0.13094 0.07406 0.0
C1082 C 0.01635 0.11954 0.09873 0.0
C1083 C 0.01747 0.09941 0.11517 0.0
C1084 C 0.99929 0.08899 0.13889 0.0
C1085 C 0.97985 0.09849 0.14675 0.0
C1086 C 0.97856 0.11845 0.13089 0.0
C1087 C 0.99669 0.12895 0.10711 0.0
H1088 H 0.9658 0.09039 0.16513 0.0
H1089 H 0.1433 0.19371 0.95804 0.0
H1090 H 0.32619 0.9708 0.21459 0.0
H1091 H 0.35639 0.97519 0.13308 0.0
H1092 H 0.32759 0.02692 0.04999 0.0
H1093 H 0.29813 0.02346 0.13516 0.0
H1094 H 0.34652 0.99425 0.95914 0.0
H1095 H 0.35998 0.03941 0.11368 0.0
H1096 H 0.36518 0.05323 0.21846 0.0
H1097 H 0.41755 0.0148 0.24779 0.0
H1098 H 0.4123 0.00033 0.14377 0.0
H1099 H 0.44455 0.02967 0.77226 0.0
H1100 H 0.41136 0.02977 0.84271 0.0
H1101 H 0.43204 0.97902 0.95444 0.0
H1102 H 0.46477 0.97841 0.88326 0.0
H1103 H 0.41611 0.01513 0.02619 0.0
H1104 H 0.39785 0.96805 0.87175 0.0
H1105 H 0.39251 0.95719 0.76226 0.0
H1106 H 0.35001 0.00478 0.72761 0.0
H1107 H 0.35515 0.01593 0.83694 0.0
C1108 C 0.32637 0.9832 0.17933 0.0
C1109 C 0.30992 0.99697 0.18206 0.0
C1110 C 0.3436 0.98565 0.13262 0.0
C1111 C 0.34441 0.00153 0.08598 0.0
C1112 C 0.32738 0.01464 0.08584 0.0
C1113 C 0.31046 0.01255 0.13405 0.0
C1114 C 0.36318 0.00431 0.03797 0.0
C1115 C 0.36165 -0.00091 0.97364 0.0
C1116 C 0.38298 0.01061 0.05674 0.0
C1117 C 0.38532 0.01833 0.12158 0.0
C1118 C 0.37221 0.03346 0.14322 0.0
C1119 C 0.37532 0.04158 0.20222 0.0
C1120 C 0.3917 0.0349 0.23971 0.0
C1121 C 0.40485 0.01993 0.21868 0.0
C1122 C 0.40174 0.0117 0.15982 0.0
C1123 C 0.442 0.01854 0.81182 0.0
C1124 C 0.45734 0.00405 0.82212 0.0
C1125 C 0.423 0.01857 0.85184 0.0
C1126 C 0.41921 0.00437 0.90374 0.0
C1127 C 0.43461 0.99007 0.9146 0.0
C1128 C 0.45332 0.98976 0.87381 0.0
C1129 C 0.39952 0.00462 0.94822 0.0
C1130 C 0.40092 0.01039 0.01188 0.0
C1131 C 0.37956 -0.00079 0.92855 0.0
C1132 C 0.37703 0.99291 0.86217 0.0
C1133 C 0.38753 0.97629 0.84052 0.0
C1134 C 0.38441 0.97001 0.77872 0.0
C1135 C 0.37084 0.98023 0.73817 0.0
C1136 C 0.36044 0.99682 0.7592 0.0
C1137 C 0.36342 0.00311 0.8211 0.0
H1138 H 0.36848 0.97537 0.6903 0.0
H1139 H 0.39416 0.04127 0.28521 0.0
H1140 H 0.45772 0.32122 0.19269 0.0
H1141 H 0.45611 0.34919 0.11198 0.0
H1142 H 0.52146 0.33975 0.04695 0.0
H1143 H 0.52276 0.31159 0.12697 0.0
H1144 H 0.51091 0.37798 0.08811 0.0
H1145 H 0.48702 0.33082 0.94734 0.0
H1146 H 0.46378 0.30468 0.91807 0.0
H1147 H 0.40992 0.34239 0.93705 0.0
H1148 H 0.43281 0.36868 0.96746 0.0
H1149 H 0.53004 0.44503 0.82543 0.0
H1150 H 0.52523 0.41593 0.89781 0.0
H1151 H 0.45758 0.42462 0.9104 0.0
H1152 H 0.46227 0.4539 0.83523 0.0
H1153 H 0.46626 0.38726 0.90008 0.0
H1154 H 0.48678 0.43414 0.03933 0.0
H1155 H 0.50714 0.46095 0.07779 0.0
H1156 H 0.5629 0.42536 0.07599 0.0
H1157 H 0.54296 0.39841 0.03658 0.0
C1158 C 0.47143 0.32488 0.15951 0.0
C1159 C 0.49025 0.31433 0.16458 0.0
C1160 C 0.47056 0.34079 0.11382 0.0
C1161 C 0.48863 0.34641 0.07334 0.0
C1162 C 0.50732 0.33552 0.07749 0.0
C1163 C 0.50806 0.31948 0.1226 0.0
C1164 C 0.48863 0.36464 0.03097 0.0
C1165 C 0.50141 0.37996 0.04635 0.0
C1166 C 0.47536 0.36743 0.9788 0.0
C1167 C 0.4616 0.35165 0.96038 0.0
C1168 C 0.47019 0.33348 0.94592 0.0
C1169 C 0.45709 0.31865 0.92898 0.0
C1170 C 0.43538 0.32185 0.92588 0.0
C1171 C 0.42673 0.33992 0.93956 0.0
C1172 C 0.43977 0.3548 0.9566 0.0
C1173 C 0.51407 0.4409 0.84356 0.0
C1174 C 0.49652 0.45195 0.82494 0.0
C1175 C 0.51137 0.42423 0.88537 0.0
C1176 C 0.49109 0.41827 0.91085 0.0
C1177 C 0.47341 0.42902 0.89168 0.0
C1178 C 0.47609 0.44576 0.84895 0.0
C1179 C 0.4888 0.40065 0.9567 0.0
C1180 C 0.47568 0.3854 0.94203 0.0
C1181 C 0.50122 0.39809 0.01122 0.0
C1182 C 0.5134 0.41431 0.03433 0.0
C1183 C 0.50344 0.43208 0.04652 0.0
C1184 C 0.51489 0.4473 0.06863 0.0
C1185 C 0.53631 0.44488 0.07916 0.0
C1186 C 0.54631 0.42722 0.06773 0.0
C1187 C 0.53493 0.41196 0.04556 0.0
H1188 H 0.54515 0.45667 0.09631 0.0
H1189 H 0.42526 0.31036 0.91273 0.0
H1190 H 0.19717 0.47377 0.10734 0.0
H1191 H 0.1727 0.4754 0.02044 0.0
H1192 H 0.19805 0.53159 0.94967 0.0
H1193 H 0.22233 0.52999 0.03812 0.0
H1194 H 0.15568 0.53199 0.9635 0.0
H1195 H 0.20712 0.4925 0.85868 0.0
H1196 H 0.23245 0.46551 0.84793 0.0
H1197 H 0.18168 0.42425 0.8866 0.0
H1198 H 0.15605 0.45098 0.8986 0.0
H1199 H 0.07766 0.53184 0.73565 0.0
H1200 H 0.11271 0.533 0.77793 0.0
H1201 H 0.10449 0.47406 0.86114 0.0
H1202 H 0.07005 0.47249 0.81501 0.0
H1203 H 0.14356 0.47871 0.82034 0.0
H1204 H 0.09466 0.51653 0.95412 0.0
H1205 H 0.06858 0.54254 0.97383 0.0
H1206 H 0.11352 0.58528 0.88895 0.0
H1207 H 0.13981 0.55947 0.86832 0.0
C1208 C 0.19766 0.48629 0.07245 0.0
C1209 C 0.21167 0.50163 0.07851 0.0
C1210 C 0.18383 0.48719 0.02264 0.0
C1211 C 0.18379 0.50347 0.97771 0.0
C1212 C 0.198 0.51879 0.98329 0.0
C1213 C 0.21192 0.51784 0.0333 0.0
C1214 C 0.16757 0.50499 0.92902 0.0
C1215 C 0.15328 0.52054 0.93116 0.0
C1216 C 0.16431 0.48995 0.88732 0.0
C1217 C 0.17966 0.47378 0.87985 0.0
C1218 C 0.20136 0.47767 0.86534 0.0
C1219 C 0.21578 0.46241 0.85896 0.0
C1220 C 0.20869 0.44318 0.86665 0.0
C1221 C 0.18715 0.43916 0.88063 0.0
C1222 C 0.17266 0.45437 0.88712 0.0
C1223 C 0.08342 0.51914 0.76284 0.0
C1224 C 0.07108 0.50219 0.77318 0.0
C1225 C 0.10342 0.51981 0.78707 0.0
C1226 C 0.11108 0.5038 0.82433 0.0
C1227 C 0.09897 0.48664 0.83279 0.0
C1228 C 0.07923 0.48578 0.80687 0.0
C1229 C 0.13104 0.50516 0.8577 0.0
C1230 C 0.14611 0.49027 0.85211 0.0
C1231 C 0.13485 0.52061 0.8973 0.0
C1232 C 0.11907 0.5361 0.90906 0.0
C1233 C 0.09889 0.53147 0.93922 0.0
C1234 C 0.0841 0.54617 0.95067 0.0
C1235 C 0.08937 0.56554 0.93246 0.0
C1236 C 0.10945 0.57026 0.90287 0.0
C1237 C 0.1243 0.55562 0.89131 0.0
H1238 H 0.0779 0.5769 0.94141 0.0
H1239 H 0.21987 0.43138 0.86169 0.0
H1240 H 0.96903 0.78436 0.23301 0.0
H1241 H 0.97083 0.80914 0.31299 0.0
H1242 H 0.91306 0.8347 0.24845 0.0
H1243 H 0.91098 0.80943 0.17033 0.0
H1244 H 0.95187 0.8586 0.23464 0.0
H1245 H 0.9091 0.81911 0.39236 0.0
H1246 H 0.89895 0.78896 0.45852 0.0
H1247 H 0.9578 0.78959 0.54949 0.0
H1248 H 0.96846 0.81959 0.48311 0.0
H1249 H 0.9611 0.9383 0.42816 0.0
H1250 H 0.94888 0.9113 0.37031 0.0
H1251 H 0.9866 0.87165 0.48477 0.0
H1252 H 0.99747 0.89825 0.54645 0.0
H1253 H 0.95244 0.85498 0.47594 0.0
H1254 H 1.00012 0.88749 0.31829 0.0
H1255 H 0.01785 0.91234 0.24145 0.0
H1256 H 0.96108 0.91994 0.14077 0.0
H1257 H 0.94286 0.89534 0.21773 0.0
C1258 C 0.95637 0.79487 0.23808 0.0
C1259 C 0.93993 0.79526 0.19608 0.0
C1260 C 0.95738 0.80896 0.2834 0.0
C1261 C 0.94201 0.82365 0.28656 0.0
C1262 C 0.92495 0.82338 0.2469 0.0
C1263 C 0.92379 0.80909 0.20242 0.0
C1264 C 0.94567 0.84077 0.3235 0.0
C1265 C 0.95175 0.85805 0.28747 0.0
C1266 C 0.94606 0.83954 0.39213 0.0
C1267 C 0.93965 0.82153 0.43233 0.0
C1268 C 0.91997 0.81273 0.42602 0.0
C1269 C 0.9141 0.79568 0.46367 0.0
C1270 C 0.92774 0.78734 0.50809 0.0
C1271 C 0.94725 0.79606 0.51504 0.0
C1272 C 0.9532 0.8131 0.47747 0.0
C1273 C 0.9666 0.92382 0.44177 0.0
C1274 C 0.98035 0.92057 0.49215 0.0
C1275 C 0.95983 0.90838 0.40779 0.0
C1276 C 0.96701 0.8894 0.42235 0.0
C1277 C 0.9808 0.88613 0.47241 0.0
C1278 C 0.98726 0.90147 0.50716 0.0
C1279 C 0.95982 0.87285 0.38671 0.0
C1280 C 0.95274 0.85574 0.42302 0.0
C1281 C 0.95971 0.87381 0.31762 0.0
C1282 C 0.96997 0.88984 0.27475 0.0
C1283 C 0.99125 0.89477 0.28073 0.0
C1284 C 1.00144 0.90872 0.23684 0.0
C1285 C 0.99057 0.91779 0.18646 0.0
C1286 C 0.96945 0.91298 0.18002 0.0
C1287 C 0.95917 0.89906 0.22385 0.0
H1288 H 0.99854 0.92847 0.15222 0.0
H1289 H 0.92316 0.77415 0.53719 0.0
H1290 H 0.72771 0.97069 0.25125 0.0
H1291 H 0.69721 0.96755 0.3331 0.0
H1292 H 0.67334 0.02257 0.25854 0.0
H1293 H 0.70414 0.02617 0.17926 0.0
H1294 H 0.68214 0.99122 0.43286 0.0
H1295 H 0.61776 0.01713 0.25452 0.0
H1296 H 0.60798 0.01288 0.14243 0.0
H1297 H 0.64715 0.96209 0.13382 0.0
H1298 H 0.65707 0.96593 0.24573 0.0
H1299 H 0.56581 0.02309 0.51807 0.0
H1300 H 0.59805 0.02171 0.44546 0.0
H1301 H 0.61411 0.96665 0.54128 0.0
H1302 H 0.58167 0.96785 0.61419 0.0
H1303 H 0.60944 0.99427 0.35821 0.0
H1304 H 0.66957 0.96437 0.53431 0.0
H1305 H 0.67568 0.96374 0.65163 0.0
H1306 H 0.64304 0.01807 0.6668 0.0
H1307 H 0.63689 0.0191 0.54955 0.0
C1308 C 0.71615 0.98227 0.25333 0.0
C1309 C 0.71831 0.99863 0.20853 0.0
C1310 C 0.69863 0.9804 0.2997 0.0
C1311 C 0.68271 0.99468 0.30134 0.0
C1312 C 0.68514 0.01119 0.25751 0.0
C1313 C 0.70277 0.01323 0.21219 0.0
C1314 C 0.66362 0.99269 0.34888 0.0
C1315 C 0.66626 0.99161 0.41641 0.0
C1316 C 0.64277 0.99334 0.3279 0.0
C1317 C 0.63843 0.99201 0.25834 0.0
C1318 C 0.62441 0.00513 0.22855 0.0
C1319 C 0.61873 0.00272 0.16514 0.0
C1320 C 0.62702 0.98729 0.13087 0.0
C1321 C 0.64092 0.97418 0.16009 0.0
C1322 C 0.64668 0.97652 0.2234 0.0
C1323 C 0.57619 0.01067 0.52394 0.0
C1324 C 0.57104 0.99554 0.57193 0.0
C1325 C 0.59464 0.0099 0.48221 0.0
C1326 C 0.60864 0.99414 0.4879 0.0
C1327 C 0.60369 0.97905 0.53616 0.0
C1328 C 0.58505 0.9797 0.57757 0.0
C1329 C 0.62798 0.99339 0.44169 0.0
C1330 C 0.62536 0.99393 0.37444 0.0
C1331 C 0.64873 0.992 0.46299 0.0
C1332 C 0.65262 0.99171 0.53329 0.0
C1333 C 0.66377 0.97621 0.56266 0.0
C1334 C 0.66723 0.97578 0.62914 0.0
C1335 C 0.65974 0.99085 0.66664 0.0
C1336 C 0.64881 0.0064 0.63771 0.0
C1337 C 0.64528 0.00688 0.5713 0.0
H1338 H 0.66239 0.99046 0.71813 0.0
H1339 H 0.62266 0.98548 0.08172 0.0
H1340 H 0.57611 0.6879 0.23063 0.0
H1341 H 0.57718 0.65885 0.3069 0.0
H1342 H 0.51384 0.64393 0.26451 0.0
H1343 H 0.51243 0.67327 0.19064 0.0
H1344 H 0.55049 0.64812 0.41884 0.0
H1345 H 0.51218 0.59378 0.25619 0.0
H1346 H 0.51276 0.58604 0.14067 0.0
H1347 H 0.57282 0.61479 0.10091 0.0
H1348 H 0.57264 0.62265 0.21599 0.0
H1349 H 0.50015 0.54744 0.5181 0.0
H1350 H 0.50679 0.57605 0.44311 0.0
H1351 H 0.56794 0.58334 0.51772 0.0
H1352 H 0.56137 0.55456 0.59361 0.0
H1353 H 0.53766 0.58245 0.34546 0.0
H1354 H 0.57808 0.6328 0.50953 0.0
H1355 H 0.57863 0.63922 0.62607 0.0
H1356 H 0.51492 0.61788 0.66232 0.0
H1357 H 0.51401 0.61135 0.5461 0.0
C1358 C 0.56235 0.67853 0.23855 0.0
C1359 C 0.54421 0.68275 0.20484 0.0
C1360 C 0.56302 0.66191 0.28154 0.0
C1361 C 0.54569 0.6491 0.2905 0.0
C1362 C 0.5275 0.65344 0.25732 0.0
C1363 C 0.52671 0.67016 0.21527 0.0
C1364 C 0.54614 0.63146 0.33597 0.0
C1365 C 0.5481 0.6337 0.40263 0.0
C1366 C 0.54266 0.61269 0.31494 0.0
C1367 C 0.54227 0.609 0.24471 0.0
C1368 C 0.52548 0.59851 0.22275 0.0
C1369 C 0.52577 0.59403 0.15736 0.0
C1370 C 0.54277 0.59999 0.11339 0.0
C1371 C 0.55955 0.61035 0.13483 0.0
C1372 C 0.55932 0.6149 0.20008 0.0
C1373 C 0.51504 0.55509 0.5187 0.0
C1374 C 0.53027 0.54868 0.56171 0.0
C1375 C 0.51882 0.57143 0.47564 0.0
C1376 C 0.5378 0.58189 0.47498 0.0
C1377 C 0.5531 0.57557 0.5178 0.0
C1378 C 0.54939 0.55906 0.56077 0.0
C1379 C 0.54145 0.59917 0.42839 0.0
C1380 C 0.54026 0.59685 0.36151 0.0
C1381 C 0.54561 0.61782 0.4492 0.0
C1382 C 0.54608 0.62141 0.51932 0.0
C1383 C 0.56421 0.62947 0.54244 0.0
C1384 C 0.56458 0.63312 0.60841 0.0
C1385 C 0.54683 0.62895 0.65156 0.0
C1386 C 0.52868 0.62107 0.62886 0.0
C1387 C 0.52827 0.6173 0.56303 0.0
H1388 H 0.54714 0.63181 0.70259 0.0
H1389 H 0.54293 0.59656 0.06275 0.0
H1390 H 0.79659 0.46395 0.3866 0.0
H1391 H 0.82192 0.46999 0.46755 0.0
H1392 H 0.85246 0.51388 0.33275 0.0
H1393 H 0.8261 0.50887 0.25498 0.0
H1394 H 0.86034 0.46308 0.46356 0.0
H1395 H 0.8816 0.54473 0.40095 0.0
H1396 H 0.86356 0.5754 0.37047 0.0
H1397 H 0.80486 0.55243 0.46173 0.0
H1398 H 0.8226 0.52172 0.49352 0.0
H1399 H 0.96314 0.47928 0.54479 0.0
H1400 H 0.93013 0.47787 0.49172 0.0
H1401 H 0.9017 0.51837 0.62333 0.0
H1402 H 0.9355 0.52096 0.67328 0.0
H1403 H 0.88868 0.52697 0.51266 0.0
H1404 H 0.89074 0.4663 0.63826 0.0
H1405 H 0.90681 0.43562 0.6794 0.0
H1406 H 0.91307 0.41636 0.48477 0.0
H1407 H 0.89737 0.44702 0.4424 0.0
C1408 C 0.80829 0.47533 0.37567 0.0
C1409 C 0.80953 0.48593 0.31485 0.0
C1410 C 0.82294 0.47863 0.4214 0.0
C1411 C 0.83922 0.49243 0.40666 0.0
C1412 C 0.83996 0.5034 0.34631 0.0
C1413 C 0.82506 0.50038 0.30138 0.0
C1414 C 0.85644 0.49416 0.4515 0.0
C1415 C 0.8663 0.47708 0.47494 0.0
C1416 C 0.86417 0.51235 0.4675 0.0
C1417 C 0.85343 0.53088 0.44931 0.0
C1418 C 0.86488 0.54627 0.41489 0.0
C1419 C 0.85469 0.56365 0.39727 0.0
C1420 C 0.83307 0.56585 0.41405 0.0
C1421 C 0.82159 0.55069 0.44861 0.0
C1422 C 0.8317 0.53328 0.46637 0.0
C1423 C 0.94984 0.48788 0.56245 0.0
C1424 C 0.95177 0.50006 0.61365 0.0
C1425 C 0.93087 0.48693 0.53244 0.0
C1426 C 0.9131 0.49752 0.55471 0.0
C1427 C 0.91509 0.50993 0.60546 0.0
C1428 C 0.93436 0.51136 0.63417 0.0
C1429 C 0.8927 0.49591 0.52372 0.0
C1430 C 0.88236 0.51299 0.5025 0.0
C1431 C 0.88403 0.47769 0.51174 0.0
C1432 C 0.89308 0.45904 0.53716 0.0
C1433 C 0.89569 0.45556 0.60426 0.0
C1434 C 0.9047 0.43818 0.62779 0.0
C1435 C 0.91099 0.42408 0.58473 0.0
C1436 C 0.90821 0.4273 0.51807 0.0
C1437 C 0.89924 0.44468 0.49428 0.0
H1438 H 0.91798 0.41064 0.60304 0.0
H1439 H 0.82521 0.57931 0.40032 0.0
loop_
_geom_bond_atom_site_label_1
_geom_bond_atom_site_label_2
_geom_bond_distance
_geom_bond_site_symmetry_2
_ccdc_geom_bond_type
C0 N1 1.317 . S
C0 N2 1.348 . S
C0 C3 1.485 . S
N1 C0 1.317 . S
N1 N5 1.370 . S
N2 C0 1.348 . S
N2 C4 1.346 . S
C3 C0 1.485 . S
C3 H7 0.960 . S
C3 H8 0.961 . S
C3 H9 0.960 . S
C4 N2 1.346 . S
C4 N5 1.307 . S
C4 C6 1.486 1_554 S
N5 N1 1.370 . S
N5 C4 1.307 . S
C6 C4 1.486 1_556 S
C6 H10 0.960 . S
C6 H11 0.960 . S
C6 H12 0.959 . S
H7 C3 0.960 . S
H8 C3 0.961 . S
H9 C3 0.960 . S
H10 C6 0.960 . S
H11 C6 0.960 . S
H12 C6 0.959 . S
C13 N14 1.317 . S
C13 N15 1.348 1_554 S
C13 C16 1.485 . S
N14 C13 1.317 . S
N14 N18 1.370 1_554 S
N15 C13 1.348 1_556 S
N15 C17 1.346 . S
C16 C13 1.485 . S
C16 H20 0.960 . S
C16 H21 0.961 . S
C16 H22 0.960 . S
C17 N15 1.346 . S
C17 N18 1.307 . S
C17 C19 1.486 . S
N18 N14 1.370 1_556 S
N18 C17 1.307 . S
C19 C17 1.486 . S
C19 H23 0.960 . S
C19 H24 0.960 . S
C19 H25 0.959 . S
H20 C16 0.960 . S
H21 C16 0.961 . S
H22 C16 0.960 . S
H23 C19 0.960 . S
H24 C19 0.960 . S
H25 C19 0.959 . S
C26 N27 1.317 . S
C26 N28 1.348 . S
C26 C29 1.485 . S
N27 C26 1.317 . S
N27 N31 1.370 . S
N28 C26 1.348 . S
N28 C30 1.347 1_565 S
C29 C26 1.485 . S
C29 H33 0.960 1_565 S
C29 H34 0.961 . S
C29 H35 0.960 . S
C30 N28 1.347 1_545 S
C30 N31 1.307 1_545 S
C30 C32 1.488 1_554 S
N31 N27 1.370 . S
N31 C30 1.307 1_565 S
C32 C30 1.488 1_556 S
C32 H36 0.924 1_545 S
C32 H37 0.988 . S
C32 H38 0.966 . S
H33 C29 0.960 1_545 S
H34 C29 0.961 . S
H35 C29 0.960 . S
H36 C32 0.924 1_565 S
H37 C32 0.988 . S
H38 C32 0.966 . S
C39 N40 1.317 . S
C39 N41 1.348 . S
C39 C42 1.485 . S
N40 C39 1.317 . S
N40 N44 1.370 . S
N41 C39 1.348 . S
N41 C43 1.346 . S
C42 C39 1.485 . S
C42 H46 0.960 . S
C42 H47 0.961 . S
C42 H48 0.960 . S
C43 N41 1.346 . S
C43 N44 1.307 . S
C43 C45 1.486 1_554 S
N44 N40 1.370 . S
N44 C43 1.307 . S
C45 C43 1.486 1_556 S
C45 H49 0.960 . S
C45 H50 0.960 . S
C45 H51 0.959 . S
H46 C42 0.960 . S
H47 C42 0.961 . S
H48 C42 0.960 . S
H49 C45 0.960 . S
H50 C45 0.960 . S
H51 C45 0.959 . S
C52 N53 1.317 . S
C52 N54 1.348 . S
C52 C55 1.485 . S
N53 C52 1.317 . S
N53 N57 1.370 . S
N54 C52 1.348 . S
N54 C56 1.346 . S
C55 C52 1.485 . S
C55 H59 0.960 . S
C55 H60 0.961 . S
C55 H61 0.960 . S
C56 N54 1.346 . S
C56 N57 1.307 . S
C56 C58 1.486 . S
N57 N53 1.370 . S
N57 C56 1.307 . S
C58 C56 1.486 . S
C58 H62 0.960 . S
C58 H63 0.960 . S
C58 H64 0.959 . S
H59 C55 0.960 . S
H60 C55 0.961 . S
H61 C55 0.960 . S
H62 C58 0.960 . S
H63 C58 0.960 . S
H64 C58 0.959 . S
C65 N66 1.317 . S
C65 N67 1.348 . S
C65 C68 1.485 . S
N66 C65 1.317 . S
N66 N70 1.370 . S
N67 C65 1.348 . S
N67 C69 1.346 . S
C68 C65 1.485 . S
C68 H72 0.960 . S
C68 H73 0.961 . S
C68 H74 0.960 . S
C69 N67 1.346 . S
C69 N70 1.307 . S
C69 C71 1.486 . S
N70 N66 1.370 . S
N70 C69 1.307 . S
C71 C69 1.486 . S
C71 H75 0.960 . S
C71 H76 0.960 . S
C71 H77 0.959 . S
H72 C68 0.960 . S
H73 C68 0.961 . S
H74 C68 0.960 . S
H75 C71 0.960 . S
H76 C71 0.960 . S
H77 C71 0.959 . S
C78 N79 1.320 . S
C78 N80 1.351 . S
C78 C81 1.485 . S
N79 C78 1.320 . S
N79 N83 1.365 . S
N80 C78 1.351 . S
N80 C82 1.344 1_565 S
C81 C78 1.485 . S
C81 H85 0.960 1_565 S
C81 H86 0.961 . S
C81 H87 0.960 . S
C82 N80 1.344 1_545 S
C82 N83 1.306 1_545 S
C82 C84 1.483 . S
N83 N79 1.365 . S
N83 C82 1.306 1_565 S
C84 C82 1.483 . S
C84 H88 0.915 1_545 S
C84 H89 1.000 . S
C84 H90 0.971 . S
H85 C81 0.960 1_545 S
H86 C81 0.961 . S
H87 C81 0.960 . S
H88 C84 0.915 1_565 S
H89 C84 1.000 . S
H90 C84 0.971 . S
C91 N92 1.317 . S
C91 N93 1.348 . S
C91 C94 1.485 . S
N92 C91 1.317 . S
N92 N96 1.370 . S
N93 C91 1.348 . S
N93 C95 1.346 . S
C94 C91 1.485 . S
C94 H98 0.960 . S
C94 H99 0.961 . S
C94 H100 0.960 . S
C95 N93 1.346 . S
C95 N96 1.307 . S
C95 C97 1.486 . S
N96 N92 1.370 . S
N96 C95 1.307 . S
C97 C95 1.486 . S
C97 H101 0.960 . S
C97 H102 0.960 . S
C97 H103 0.959 . S
H98 C94 0.960 . S
H99 C94 0.961 . S
H100 C94 0.960 . S
H101 C97 0.960 . S
H102 C97 0.960 . S
H103 C97 0.959 . S
C104 O120 1.251 . S
C104 O122 1.254 . S
N105 C106 1.340 . S
N105 C110 1.290 1_455 S
N105 Zn111 2.026 . S
C106 N105 1.340 . S
C106 C107 1.379 . S
C106 H124 0.952 . S
C107 C106 1.379 . S
C107 C108 1.390 1_455 S
C107 H134 0.949 . S
C108 C107 1.390 1_655 S
C108 C109 1.357 . S
C109 C108 1.357 . S
C109 C110 1.370 . S
C109 H135 0.950 . S
C110 N105 1.290 1_655 S
C110 C109 1.370 . S
C110 H128 0.948 . S
Zn111 N105 2.026 . S
Zn111 O120 2.039 . S
Zn111 O126 2.034 . S
Zn111 O130 2.025 1_565 S
Zn111 O132 2.024 1_455 S
C112 O131 1.246 . S
C112 O132 1.249 1_545 S
N113 C114 1.307 . S
N113 C115 1.333 . S
N113 Zn119 2.020 . S
C114 N113 1.307 . S
C114 C118 1.370 . S
C114 H125 0.948 . S
C115 N113 1.333 . S
C115 C116 1.379 . S
C115 H123 0.952 . S
C116 C115 1.379 . S
C116 C117 1.390 . S
C116 H136 0.949 . S
C117 C116 1.390 . S
C117 C118 1.357 . S
C118 C114 1.370 . S
C118 C117 1.357 . S
C118 H137 0.950 . S
Zn119 N113 2.020 . S
Zn119 O122 2.025 1_545 S
Zn119 O127 2.024 . S
Zn119 O129 2.039 . S
Zn119 O131 2.034 1_455 S
O120 C104 1.251 . S
O120 Zn111 2.039 . S
C121 O126 1.246 . S
C121 O127 1.249 1_565 S
O122 C104 1.254 . S
O122 Zn119 2.025 1_565 S
H123 C115 0.952 . S
H124 C106 0.952 . S
H125 C114 0.948 . S
O126 Zn111 2.034 . S
O126 C121 1.246 . S
O127 Zn119 2.024 . S
O127 C121 1.249 1_545 S
H128 C110 0.948 . S
O129 Zn119 2.039 . S
O129 C133 1.251 . S
O130 Zn111 2.025 1_545 S
O130 C133 1.254 . S
O131 C112 1.246 . S
O131 Zn119 2.034 1_655 S
O132 Zn111 2.024 1_655 S
O132 C112 1.249 1_565 S
C133 O129 1.251 . S
C133 O130 1.254 . S
H134 C107 0.949 . S
H135 C109 0.950 . S
H136 C116 0.949 . S
H137 C118 0.950 . S
C138 O154 1.251 1_565 S
C138 O156 1.254 . S
N139 C140 1.333 . S
N139 C144 1.307 . S
N139 Zn145 2.020 . S
C140 N139 1.333 . S
C140 C141 1.379 . S
C140 H158 0.952 . S
C141 C140 1.379 . S
C141 C142 1.390 . S
C141 H168 0.949 . S
C142 C141 1.390 . S
C142 C143 1.357 . S
C143 C142 1.357 . S
C143 C144 1.370 . S
C143 H169 0.950 . S
C144 N139 1.307 . S
C144 C143 1.370 . S
C144 H162 0.948 . S
Zn145 N139 2.020 . S
Zn145 O154 2.039 . S
Zn145 O160 2.034 . S
Zn145 O164 2.025 . S
Zn145 O166 2.024 . S
C146 O165 1.246 1_545 S
C146 O166 1.249 . S
N147 C148 1.307 . S
N147 C149 1.333 . S
N147 Zn153 2.020 . S
C148 N147 1.307 . S
C148 C152 1.370 . S
C148 H159 0.948 . S
C149 N147 1.333 . S
C149 C150 1.379 . S
C149 H157 0.952 . S
C150 C149 1.379 . S
C150 C151 1.390 . S
C150 H170 0.949 . S
C151 C150 1.390 . S
C151 C152 1.357 . S
C152 C148 1.370 . S
C152 C151 1.357 . S
C152 H171 0.950 . S
Zn153 N147 2.020 . S
Zn153 O156 2.025 . S
Zn153 O161 2.024 . S
Zn153 O163 2.039 . S
Zn153 O165 2.034 . S
O154 C138 1.251 1_545 S
O154 Zn145 2.039 . S
C155 O160 1.246 1_565 S
C155 O161 1.249 . S
O156 C138 1.254 . S
O156 Zn153 2.025 . S
H157 C149 0.952 . S
H158 C140 0.952 . S
H159 C148 0.948 . S
O160 Zn145 2.034 . S
O160 C155 1.246 1_545 S
O161 Zn153 2.024 . S
O161 C155 1.249 . S
H162 C144 0.948 . S
O163 Zn153 2.039 . S
O163 C167 1.251 1_565 S
O164 Zn145 2.025 . S
O164 C167 1.254 . S
O165 C146 1.246 1_565 S
O165 Zn153 2.034 . S
O166 Zn145 2.024 . S
O166 C146 1.249 . S
C167 O163 1.251 1_545 S
C167 O164 1.254 . S
H168 C141 0.949 . S
H169 C143 0.950 . S
H170 C150 0.949 . S
H171 C152 0.950 . S
C172 O188 1.251 . S
C172 O190 1.254 . S
N173 C174 1.333 . S
N173 C178 1.307 . S
N173 Zn179 2.020 . S
C174 N173 1.333 . S
C174 C175 1.379 . S
C174 H192 0.952 . S
C175 C174 1.379 . S
C175 C176 1.390 . S
C175 H202 0.949 . S
C176 C175 1.390 . S
C176 C177 1.357 . S
C177 C176 1.357 . S
C177 C178 1.370 . S
C177 H203 0.950 . S
C178 N173 1.307 . S
C178 C177 1.370 . S
C178 H196 0.948 . S
Zn179 N173 2.020 . S
Zn179 O188 2.039 . S
Zn179 O194 2.034 . S
Zn179 O198 2.025 . S
Zn179 O200 2.024 . S
C180 O199 1.246 . S
C180 O200 1.249 . S
N181 C182 1.307 . S
N181 C183 1.333 . S
N181 Zn187 2.020 . S
C182 N181 1.307 . S
C182 C186 1.370 . S
C182 H193 0.948 . S
C183 N181 1.333 . S
C183 C184 1.379 . S
C183 H191 0.952 . S
C184 C183 1.379 . S
C184 C185 1.390 . S
C184 H204 0.949 . S
C185 C184 1.390 . S
C185 C186 1.357 . S
C186 C182 1.370 . S
C186 C185 1.357 . S
C186 H205 0.950 . S
Zn187 N181 2.020 . S
Zn187 O190 2.025 . S
Zn187 O195 2.024 . S
Zn187 O197 2.039 . S
Zn187 O199 2.034 . S
O188 C172 1.251 . S
O188 Zn179 2.039 . S
C189 O194 1.246 . S
C189 O195 1.249 . S
O190 C172 1.254 . S
O190 Zn187 2.025 . S
H191 C183 0.952 . S
H192 C174 0.952 . S
H193 C182 0.948 . S
O194 Zn179 2.034 . S
O194 C189 1.246 . S
O195 Zn187 2.024 . S
O195 C189 1.249 . S
H196 C178 0.948 . S
O197 Zn187 2.039 . S
O197 C201 1.251 . S
O198 Zn179 2.025 . S
O198 C201 1.254 . S
O199 C180 1.246 . S
O199 Zn187 2.034 . S
O200 Zn179 2.024 . S
O200 C180 1.249 . S
C201 O197 1.251 . S
C201 O198 1.254 . S
H202 C175 0.949 . S
H203 C177 0.950 . S
H204 C184 0.949 . S
H205 C186 0.950 . S
C206 O222 1.251 . S
C206 O224 1.254 . S
N207 C208 1.333 . S
N207 C212 1.307 . S
N207 Zn213 2.020 . S
C208 N207 1.333 . S
C208 C209 1.379 . S
C208 H226 0.952 . S
C209 C208 1.379 . S
C209 C210 1.390 . S
C209 H236 0.949 . S
C210 C209 1.390 . S
C210 C211 1.357 . S
C211 C210 1.357 . S
C211 C212 1.370 . S
C211 H237 0.950 . S
C212 N207 1.307 . S
C212 C211 1.370 . S
C212 H230 0.948 . S
Zn213 N207 2.020 . S
Zn213 O222 2.039 . S
Zn213 O228 2.034 1_455 S
Zn213 O232 2.025 1_455 S
Zn213 O234 2.024 . S
C214 O233 1.246 . S
C214 O234 1.249 . S
N215 C216 1.307 . S
N215 C217 1.333 1_455 S
N215 Zn221 2.020 . S
C216 N215 1.307 . S
C216 C220 1.370 . S
C216 H227 0.948 . S
C217 N215 1.333 1_655 S
C217 C218 1.379 . S
C217 H225 0.952 . S
C218 C217 1.379 . S
C218 C219 1.390 1_655 S
C218 H238 0.949 . S
C219 C218 1.390 1_455 S
C219 C220 1.357 . S
C220 C216 1.370 . S
C220 C219 1.357 . S
C220 H239 0.950 . S
Zn221 N215 2.020 . S
Zn221 O224 2.025 . S
Zn221 O229 2.024 1_455 S
Zn221 O231 2.039 1_455 S
Zn221 O233 2.034 . S
O222 C206 1.251 . S
O222 Zn213 2.039 . S
C223 O228 1.246 . S
C223 O229 1.249 . S
O224 C206 1.254 . S
O224 Zn221 2.025 . S
H225 C217 0.952 . S
H226 C208 0.952 . S
H227 C216 0.948 . S
O228 Zn213 2.034 1_655 S
O228 C223 1.246 . S
O229 Zn221 2.024 1_655 S
O229 C223 1.249 . S
H230 C212 0.948 . S
O231 Zn221 2.039 1_655 S
O231 C235 1.251 . S
O232 Zn213 2.025 1_655 S
O232 C235 1.254 . S
O233 C214 1.246 . S
O233 Zn221 2.034 . S
O234 Zn213 2.024 . S
O234 C214 1.249 . S
C235 O231 1.251 . S
C235 O232 1.254 . S
H236 C209 0.949 . S
H237 C211 0.950 . S
H238 C218 0.949 . S
H239 C220 0.950 . S
H240 C258 0.951 . S
H241 C260 0.951 . S
H242 C262 0.950 . S
H243 C263 0.950 . S
H244 C265 0.950 . S
H245 C268 0.950 . S
H246 C269 0.950 . S
H247 C271 0.950 . S
H248 C272 0.950 . S
H249 C273 0.951 . S
H250 C275 0.951 . S
H251 C277 0.949 1_545 S
H252 C278 0.949 1_545 S
H253 C280 0.950 . S
H254 C283 0.950 . S
H255 C284 0.950 . S
H256 C286 0.950 . S
H257 C287 0.950 . S
C258 H240 0.951 . S
C258 C259 1.366 1_545 S
C258 C260 1.388 . S
C259 C258 1.366 1_565 S
C259 C263 1.385 . S
C260 H241 0.951 . S
C260 C258 1.388 . S
C260 C261 1.366 . S
C261 C260 1.366 . S
C261 C262 1.413 1_545 S
C261 C264 1.499 . S
C262 H242 0.950 . S
C262 C261 1.413 1_565 S
C262 C263 1.374 . S
C263 H243 0.950 . S
C263 C259 1.385 . S
C263 C262 1.374 . S
C264 C261 1.499 . S
C264 C265 1.375 1_545 S
C264 C266 1.387 . S
C265 H244 0.950 . S
C265 C264 1.375 1_565 S
C265 C281 1.377 . S
C266 C264 1.387 . S
C266 C267 1.524 . S
C266 C280 1.377 . S
C267 C266 1.524 . S
C267 C268 1.397 . S
C267 C272 1.363 . S
C268 H245 0.950 . S
C268 C267 1.397 . S
C268 C269 1.334 . S
C269 H246 0.950 . S
C269 C268 1.334 . S
C269 C270 1.287 . S
C270 C269 1.287 . S
C270 C271 1.524 . S
C270 H289 0.913 . S
C271 H247 0.950 . S
C271 C270 1.524 . S
C271 C272 1.415 . S
C272 H248 0.950 . S
C272 C267 1.363 . S
C272 C271 1.415 . S
C273 H249 0.951 . S
C273 C274 1.366 . S
C273 C275 1.388 . S
C274 C273 1.366 . S
C274 C278 1.386 . S
C275 H250 0.951 . S
C275 C273 1.388 . S
C275 C276 1.366 . S
C276 C275 1.366 . S
C276 C277 1.417 . S
C276 C279 1.499 . S
C277 H251 0.949 1_565 S
C277 C276 1.417 . S
C277 C278 1.374 . S
C278 H252 0.949 1_565 S
C278 C274 1.386 . S
C278 C277 1.374 . S
C279 C276 1.499 . S
C279 C280 1.373 1_565 S
C279 C281 1.389 . S
C280 H253 0.950 . S
C280 C266 1.377 . S
C280 C279 1.373 1_545 S
C281 C265 1.377 . S
C281 C279 1.389 . S
C281 C282 1.524 . S
C282 C281 1.524 . S
C282 C283 1.397 . S
C282 C287 1.363 . S
C283 H254 0.950 . S
C283 C282 1.397 . S
C283 C284 1.334 . S
C284 H255 0.950 . S
C284 C283 1.334 . S
C284 C285 1.287 . S
C285 C284 1.287 . S
C285 C286 1.524 . S
C285 H288 0.999 . S
C286 H256 0.950 . S
C286 C285 1.524 . S
C286 C287 1.415 . S
C287 H257 0.950 . S
C287 C282 1.363 . S
C287 C286 1.415 . S
H288 C285 0.999 . S
H289 C270 0.913 . S
H290 C308 0.951 . S
H291 C310 0.951 . S
H292 C312 0.950 . S
H293 C313 0.950 . S
H294 C315 0.950 . S
H295 C318 0.950 . S
H296 C319 0.950 . S
H297 C321 0.950 . S
H298 C322 0.950 . S
H299 C323 0.951 . S
H300 C325 0.951 . S
H301 C327 0.950 . S
H302 C328 0.950 . S
H303 C330 0.950 . S
H304 C333 0.950 . S
H305 C334 0.950 . S
H306 C336 0.950 . S
H307 C337 0.950 . S
C308 H290 0.951 . S
C308 C309 1.366 . S
C308 C310 1.388 . S
C309 C308 1.366 . S
C309 C313 1.385 . S
C310 H291 0.951 . S
C310 C308 1.388 . S
C310 C311 1.366 . S
C311 C310 1.366 . S
C311 C312 1.414 . S
C311 C314 1.499 . S
C312 H292 0.950 . S
C312 C311 1.414 . S
C312 C313 1.374 . S
C313 H293 0.950 . S
C313 C309 1.385 . S
C313 C312 1.374 . S
C314 C311 1.499 . S
C314 C315 1.373 . S
C314 C316 1.389 . S
C315 H294 0.950 . S
C315 C314 1.373 . S
C315 C331 1.377 . S
C316 C314 1.389 . S
C316 C317 1.524 . S
C316 C330 1.377 . S
C317 C316 1.524 . S
C317 C318 1.397 . S
C317 C322 1.363 . S
C318 H295 0.950 . S
C318 C317 1.397 . S
C318 C319 1.334 . S
C319 H296 0.950 . S
C319 C318 1.334 . S
C319 C320 1.287 . S
C320 C319 1.287 . S
C320 C321 1.524 . S
C320 H339 0.913 . S
C321 H297 0.950 . S
C321 C320 1.524 . S
C321 C322 1.415 . S
C322 H298 0.950 . S
C322 C317 1.363 . S
C322 C321 1.415 . S
C323 H299 0.951 . S
C323 C324 1.366 . S
C323 C325 1.388 . S
C324 C323 1.366 . S
C324 C328 1.385 . S
C325 H300 0.951 . S
C325 C323 1.388 . S
C325 C326 1.366 . S
C326 C325 1.366 . S
C326 C327 1.414 . S
C326 C329 1.499 . S
C327 H301 0.950 . S
C327 C326 1.414 . S
C327 C328 1.374 . S
C328 H302 0.950 . S
C328 C324 1.385 . S
C328 C327 1.374 . S
C329 C326 1.499 . S
C329 C330 1.373 . S
C329 C331 1.389 . S
C330 H303 0.950 . S
C330 C316 1.377 . S
C330 C329 1.373 . S
C331 C315 1.377 . S
C331 C329 1.389 . S
C331 C332 1.524 . S
C332 C331 1.524 . S
C332 C333 1.397 . S
C332 C337 1.363 . S
C333 H304 0.950 . S
C333 C332 1.397 . S
C333 C334 1.334 . S
C334 H305 0.950 . S
C334 C333 1.334 . S
C334 C335 1.287 . S
C335 C334 1.287 . S
C335 C336 1.524 . S
C335 H338 0.999 . S
C336 H306 0.950 . S
C336 C335 1.524 . S
C336 C337 1.415 . S
C337 H307 0.950 . S
C337 C332 1.363 . S
C337 C336 1.415 . S
H338 C335 0.999 . S
H339 C320 0.913 . S
H340 C358 0.951 . S
H341 C360 0.951 . S
H342 C362 0.950 . S
H343 C363 0.950 . S
H344 C365 0.950 . S
H345 C368 0.950 . S
H346 C369 0.950 . S
H347 C371 0.950 . S
H348 C372 0.950 . S
H349 C373 0.951 . S
H350 C375 0.951 . S
H351 C377 0.950 . S
H352 C378 0.950 . S
H353 C380 0.950 . S
H354 C383 0.950 . S
H355 C384 0.950 . S
H356 C386 0.950 . S
H357 C387 0.950 . S
C358 H340 0.951 . S
C358 C359 1.366 . S
C358 C360 1.388 . S
C359 C358 1.366 . S
C359 C363 1.385 . S
C360 H341 0.951 . S
C360 C358 1.388 . S
C360 C361 1.366 . S
C361 C360 1.366 . S
C361 C362 1.414 . S
C361 C364 1.499 . S
C362 H342 0.950 . S
C362 C361 1.414 . S
C362 C363 1.374 . S
C363 H343 0.950 . S
C363 C359 1.385 . S
C363 C362 1.374 . S
C364 C361 1.499 . S
C364 C365 1.373 . S
C364 C366 1.389 . S
C365 H344 0.950 . S
C365 C364 1.373 . S
C365 C381 1.377 . S
C366 C364 1.389 . S
C366 C367 1.524 . S
C366 C380 1.377 . S
C367 C366 1.524 . S
C367 C368 1.397 . S
C367 C372 1.363 . S
C368 H345 0.950 . S
C368 C367 1.397 . S
C368 C369 1.334 . S
C369 H346 0.950 . S
C369 C368 1.334 . S
C369 C370 1.287 . S
C370 C369 1.287 . S
C370 C371 1.524 . S
C370 H389 0.913 . S
C371 H347 0.950 . S
C371 C370 1.524 . S
C371 C372 1.415 . S
C372 H348 0.950 . S
C372 C367 1.363 . S
C372 C371 1.415 . S
C373 H349 0.951 . S
C373 C374 1.366 . S
C373 C375 1.388 . S
C374 C373 1.366 . S
C374 C378 1.385 . S
C375 H350 0.951 . S
C375 C373 1.388 . S
C375 C376 1.366 . S
C376 C375 1.366 . S
C376 C377 1.414 . S
C376 C379 1.499 . S
C377 H351 0.950 . S
C377 C376 1.414 . S
C377 C378 1.374 . S
C378 H352 0.950 . S
C378 C374 1.385 . S
C378 C377 1.374 . S
C379 C376 1.499 . S
C379 C380 1.373 . S
C379 C381 1.389 . S
C380 H353 0.950 . S
C380 C366 1.377 . S
C380 C379 1.373 . S
C381 C365 1.377 . S
C381 C379 1.389 . S
C381 C382 1.524 . S
C382 C381 1.524 . S
C382 C383 1.397 . S
C382 C387 1.363 . S
C383 H354 0.950 . S
C383 C382 1.397 . S
C383 C384 1.334 . S
C384 H355 0.950 . S
C384 C383 1.334 . S
C384 C385 1.287 . S
C385 C384 1.287 . S
C385 C386 1.524 . S
C385 H388 0.999 . S
C386 H356 0.950 . S
C386 C385 1.524 . S
C386 C387 1.415 . S
C387 H357 0.950 . S
C387 C382 1.363 . S
C387 C386 1.415 . S
H388 C385 0.999 . S
H389 C370 0.913 . S
H390 C408 0.951 . S
H391 C410 0.951 . S
H392 C412 0.950 . S
H393 C413 0.950 . S
H394 C415 0.950 . S
H395 C418 0.950 . S
H396 C419 0.950 . S
H397 C421 0.950 . S
H398 C422 0.950 . S
H399 C423 0.951 . S
H400 C425 0.951 . S
H401 C427 0.950 . S
H402 C428 0.950 . S
H403 C430 0.950 . S
H404 C433 0.950 . S
H405 C434 0.950 . S
H406 C436 0.950 . S
H407 C437 0.950 . S
C408 H390 0.951 . S
C408 C409 1.366 . S
C408 C410 1.388 . S
C409 C408 1.366 . S
C409 C413 1.385 . S
C410 H391 0.951 . S
C410 C408 1.388 . S
C410 C411 1.366 . S
C411 C410 1.366 . S
C411 C412 1.414 . S
C411 C414 1.499 . S
C412 H392 0.950 . S
C412 C411 1.414 . S
C412 C413 1.374 . S
C413 H393 0.950 . S
C413 C409 1.385 . S
C413 C412 1.374 . S
C414 C411 1.499 . S
C414 C415 1.373 . S
C414 C416 1.389 . S
C415 H394 0.950 . S
C415 C414 1.373 . S
C415 C431 1.377 . S
C416 C414 1.389 . S
C416 C417 1.524 . S
C416 C430 1.377 . S
C417 C416 1.524 . S
C417 C418 1.397 . S
C417 C422 1.363 . S
C418 H395 0.950 . S
C418 C417 1.397 . S
C418 C419 1.334 . S
C419 H396 0.950 . S
C419 C418 1.334 . S
C419 C420 1.287 . S
C420 C419 1.287 . S
C420 C421 1.524 . S
C420 H439 0.913 . S
C421 H397 0.950 . S
C421 C420 1.524 . S
C421 C422 1.415 . S
C422 H398 0.950 . S
C422 C417 1.363 . S
C422 C421 1.415 . S
C423 H399 0.951 . S
C423 C424 1.366 . S
C423 C425 1.388 . S
C424 C423 1.366 . S
C424 C428 1.385 . S
C425 H400 0.951 . S
C425 C423 1.388 . S
C425 C426 1.366 . S
C426 C425 1.366 . S
C426 C427 1.414 . S
C426 C429 1.499 . S
C427 H401 0.950 . S
C427 C426 1.414 . S
C427 C428 1.374 . S
C428 H402 0.950 . S
C428 C424 1.385 . S
C428 C427 1.374 . S
C429 C426 1.499 . S
C429 C430 1.373 . S
C429 C431 1.389 . S
C430 H403 0.950 . S
C430 C416 1.377 . S
C430 C429 1.373 . S
C431 C415 1.377 . S
C431 C429 1.389 . S
C431 C432 1.524 1_455 S
C432 C431 1.524 1_655 S
C432 C433 1.397 . S
C432 C437 1.363 . S
C433 H404 0.950 . S
C433 C432 1.397 . S
C433 C434 1.334 . S
C434 H405 0.950 . S
C434 C433 1.334 . S
C434 C435 1.287 . S
C435 C434 1.287 . S
C435 C436 1.524 . S
C435 H438 0.999 . S
C436 H406 0.950 . S
C436 C435 1.524 . S
C436 C437 1.415 . S
C437 H407 0.950 . S
C437 C432 1.363 . S
C437 C436 1.415 . S
H438 C435 0.999 . S
H439 C420 0.913 . S
H440 C458 0.951 . S
H441 C460 0.951 . S
H442 C462 0.950 . S
H443 C463 0.950 . S
H444 C465 0.950 . S
H445 C468 0.950 1_556 S
H446 C469 0.950 . S
H447 C471 0.950 . S
H448 C472 0.950 . S
H449 C473 0.951 . S
H450 C475 0.951 . S
H451 C477 0.950 . S
H452 C478 0.950 . S
H453 C480 0.950 . S
H454 C483 0.950 . S
H455 C484 0.950 . S
H456 C486 0.950 . S
H457 C487 0.950 1_545 S
C458 H440 0.951 . S
C458 C459 1.361 1_565 S
C458 C460 1.388 . S
C459 C458 1.361 1_545 S
C459 C463 1.390 1_554 S
C460 H441 0.951 . S
C460 C458 1.388 . S
C460 C461 1.366 1_564 S
C461 C460 1.366 1_546 S
C461 C462 1.414 . S
C461 C464 1.499 . S
C462 H442 0.950 . S
C462 C461 1.414 . S
C462 C463 1.374 . S
C463 H443 0.950 . S
C463 C459 1.390 1_556 S
C463 C462 1.374 . S
C464 C461 1.499 . S
C464 C465 1.373 1_545 S
C464 C466 1.389 . S
C465 H444 0.950 . S
C465 C464 1.373 1_565 S
C465 C481 1.377 . S
C466 C464 1.389 . S
C466 C467 1.524 1_556 S
C466 C480 1.377 . S
C467 C466 1.524 1_554 S
C467 C468 1.397 . S
C467 C472 1.363 . S
C468 H445 0.950 1_554 S
C468 C467 1.397 . S
C468 C469 1.334 . S
C469 H446 0.950 . S
C469 C468 1.334 . S
C469 C470 1.287 . S
C470 C469 1.287 . S
C470 C471 1.524 . S
C470 H489 0.913 . S
C471 H447 0.950 . S
C471 C470 1.524 . S
C471 C472 1.415 . S
C472 H448 0.950 . S
C472 C467 1.363 . S
C472 C471 1.415 . S
C473 H449 0.951 . S
C473 C474 1.366 . S
C473 C475 1.388 . S
C474 C473 1.366 . S
C474 C478 1.385 1_545 S
C475 H450 0.951 . S
C475 C473 1.388 . S
C475 C476 1.366 . S
C476 C475 1.366 . S
C476 C477 1.414 1_545 S
C476 C479 1.499 . S
C477 H451 0.950 . S
C477 C476 1.414 1_565 S
C477 C478 1.374 . S
C478 H452 0.950 . S
C478 C474 1.385 1_565 S
C478 C477 1.374 . S
C479 C476 1.499 . S
C479 C480 1.384 . S
C479 C481 1.381 1_545 S
C480 H453 0.950 . S
C480 C466 1.377 . S
C480 C479 1.384 . S
C481 C465 1.377 . S
C481 C479 1.381 1_565 S
C481 C482 1.524 . S
C482 C481 1.524 . S
C482 C483 1.397 . S
C482 C487 1.363 . S
C483 H454 0.950 . S
C483 C482 1.397 . S
C483 C484 1.334 . S
C484 H455 0.950 . S
C484 C483 1.334 . S
C484 C485 1.287 . S
C485 C484 1.287 . S
C485 C486 1.524 . S
C485 H488 0.999 . S
C486 H456 0.950 . S
C486 C485 1.524 . S
C486 C487 1.415 . S
C487 H457 0.950 1_565 S
C487 C482 1.363 . S
C487 C486 1.415 . S
H488 C485 0.999 . S
H489 C470 0.913 . S
H490 C508 0.951 . S
H491 C510 0.951 . S
H492 C512 0.950 . S
H493 C513 0.950 . S
H494 C515 0.950 1_554 S
H495 C518 0.950 . S
H496 C519 0.950 . S
H497 C521 0.950 . S
H498 C522 0.950 . S
H499 C523 0.951 . S
H500 C525 0.951 . S
H501 C527 0.950 . S
H502 C528 0.950 . S
H503 C530 0.950 . S
H504 C533 0.950 1_556 S
H505 C534 0.950 . S
H506 C536 0.950 . S
H507 C537 0.950 . S
C508 H490 0.951 . S
C508 C509 1.366 . S
C508 C510 1.388 1_554 S
C509 C508 1.366 . S
C509 C513 1.385 . S
C510 H491 0.951 . S
C510 C508 1.388 1_556 S
C510 C511 1.366 . S
C511 C510 1.366 . S
C511 C512 1.414 . S
C511 C514 1.499 . S
C512 H492 0.950 . S
C512 C511 1.414 . S
C512 C513 1.374 1_556 S
C513 H493 0.950 . S
C513 C509 1.385 . S
C513 C512 1.374 1_554 S
C514 C511 1.499 . S
C514 C515 1.373 . S
C514 C516 1.389 . S
C515 H494 0.950 1_556 S
C515 C514 1.373 . S
C515 C531 1.377 . S
C516 C514 1.389 . S
C516 C517 1.524 . S
C516 C530 1.377 . S
C517 C516 1.524 . S
C517 C518 1.397 . S
C517 C522 1.363 . S
C518 H495 0.950 . S
C518 C517 1.397 . S
C518 C519 1.334 . S
C519 H496 0.950 . S
C519 C518 1.334 . S
C519 C520 1.287 . S
C520 C519 1.287 . S
C520 C521 1.524 . S
C520 H539 0.913 . S
C521 H497 0.950 . S
C521 C520 1.524 . S
C521 C522 1.415 . S
C522 H498 0.950 . S
C522 C517 1.363 . S
C522 C521 1.415 . S
C523 H499 0.951 . S
C523 C524 1.366 . S
C523 C525 1.388 . S
C524 C523 1.366 . S
C524 C528 1.385 . S
C525 H500 0.951 . S
C525 C523 1.388 . S
C525 C526 1.366 . S
C526 C525 1.366 . S
C526 C527 1.414 . S
C526 C529 1.499 . S
C527 H501 0.950 . S
C527 C526 1.414 . S
C527 C528 1.374 . S
C528 H502 0.950 . S
C528 C524 1.385 . S
C528 C527 1.374 . S
C529 C526 1.499 . S
C529 C530 1.373 . S
C529 C531 1.389 . S
C530 H503 0.950 . S
C530 C516 1.377 . S
C530 C529 1.373 . S
C531 C515 1.377 . S
C531 C529 1.389 . S
C531 C532 1.524 . S
C532 C531 1.524 . S
C532 C533 1.397 1_556 S
C532 C537 1.363 . S
C533 H504 0.950 1_554 S
C533 C532 1.397 1_554 S
C533 C534 1.334 . S
C534 H505 0.950 . S
C534 C533 1.334 . S
C534 C535 1.287 . S
C535 C534 1.287 . S
C535 C536 1.524 . S
C535 H538 0.999 . S
C536 H506 0.950 . S
C536 C535 1.524 . S
C536 C537 1.415 1_554 S
C537 H507 0.950 . S
C537 C532 1.363 . S
C537 C536 1.415 1_556 S
H538 C535 0.999 . S
H539 C520 0.913 . S
H540 C558 0.951 . S
H541 C560 0.951 . S
H542 C562 0.950 1_556 S
H543 C563 0.950 . S
H544 C565 0.950 . S
H545 C568 0.950 . S
H546 C569 0.950 . S
H547 C571 0.950 . S
H548 C572 0.950 . S
H549 C573 0.951 . S
H550 C575 0.951 . S
H551 C577 0.950 . S
H552 C578 0.950 . S
H553 C580 0.950 . S
H554 C583 0.950 . S
H555 C584 0.950 . S
H556 C586 0.950 . S
H557 C587 0.950 . S
C558 H540 0.951 . S
C558 C559 1.366 . S
C558 C560 1.388 . S
C559 C558 1.366 . S
C559 C563 1.385 . S
C560 H541 0.951 . S
C560 C558 1.388 . S
C560 C561 1.366 . S
C561 C560 1.366 . S
C561 C562 1.414 . S
C561 C564 1.499 1_554 S
C562 H542 0.950 1_554 S
C562 C561 1.414 . S
C562 C563 1.374 . S
C563 H543 0.950 . S
C563 C559 1.385 . S
C563 C562 1.374 . S
C564 C561 1.499 1_556 S
C564 C565 1.373 . S
C564 C566 1.389 1_556 S
C565 H544 0.950 . S
C565 C564 1.373 . S
C565 C581 1.377 . S
C566 C564 1.389 1_554 S
C566 C567 1.524 . S
C566 C580 1.377 1_554 S
C567 C566 1.524 . S
C567 C568 1.397 . S
C567 C572 1.363 . S
C568 H545 0.950 . S
C568 C567 1.397 . S
C568 C569 1.334 . S
C569 H546 0.950 . S
C569 C568 1.334 . S
C569 C570 1.287 . S
C570 C569 1.287 . S
C570 C571 1.524 . S
C570 H589 0.913 . S
C571 H547 0.950 . S
C571 C570 1.524 . S
C571 C572 1.415 . S
C572 H548 0.950 . S
C572 C567 1.363 . S
C572 C571 1.415 . S
C573 H549 0.951 . S
C573 C574 1.366 . S
C573 C575 1.388 . S
C574 C573 1.366 . S
C574 C578 1.385 . S
C575 H550 0.951 . S
C575 C573 1.388 . S
C575 C576 1.366 . S
C576 C575 1.366 . S
C576 C577 1.414 . S
C576 C579 1.499 . S
C577 H551 0.950 . S
C577 C576 1.414 . S
C577 C578 1.374 . S
C578 H552 0.950 . S
C578 C574 1.385 . S
C578 C577 1.374 . S
C579 C576 1.499 . S
C579 C580 1.373 . S
C579 C581 1.389 . S
C580 H553 0.950 . S
C580 C566 1.377 1_556 S
C580 C579 1.373 . S
C581 C565 1.377 . S
C581 C579 1.389 . S
C581 C582 1.524 . S
C582 C581 1.524 . S
C582 C583 1.397 . S
C582 C587 1.363 . S
C583 H554 0.950 . S
C583 C582 1.397 . S
C583 C584 1.334 . S
C584 H555 0.950 . S
C584 C583 1.334 . S
C584 C585 1.287 . S
C585 C584 1.287 . S
C585 C586 1.524 . S
C585 H588 0.999 . S
C586 H556 0.950 . S
C586 C585 1.524 . S
C586 C587 1.415 . S
C587 H557 0.950 . S
C587 C582 1.363 . S
C587 C586 1.415 . S
H588 C585 0.999 . S
H589 C570 0.913 . S
H590 C608 0.951 1_455 S
H591 C610 0.951 1_455 S
H592 C612 0.950 . S
H593 C613 0.950 . S
H594 C615 0.950 . S
H595 C618 0.950 . S
H596 C619 0.956 . S
H597 C621 0.950 . S
H598 C622 0.950 . S
H599 C623 0.951 . S
H600 C625 0.951 . S
H601 C627 0.950 . S
H602 C628 0.950 . S
H603 C630 0.942 1_455 S
H604 C633 0.950 . S
H605 C634 0.950 . S
H606 C636 0.950 1_554 S
H607 C637 0.950 . S
C608 H590 0.951 1_655 S
C608 C609 1.366 . S
C608 C610 1.388 . S
C609 C608 1.366 . S
C609 C613 1.385 . S
C610 H591 0.951 1_655 S
C610 C608 1.388 . S
C610 C611 1.366 . S
C611 C610 1.366 . S
C611 C612 1.414 . S
C611 C614 1.499 . S
C612 H592 0.950 . S
C612 C611 1.414 . S
C612 C613 1.374 . S
C613 H593 0.950 . S
C613 C609 1.385 . S
C613 C612 1.374 . S
C614 C611 1.499 . S
C614 C615 1.373 . S
C614 C616 1.389 . S
C615 H594 0.950 . S
C615 C614 1.373 . S
C615 C631 1.377 . S
C616 C614 1.389 . S
C616 C617 1.524 1_655 S
C616 C630 1.379 . S
C617 C616 1.524 1_455 S
C617 C618 1.397 1_455 S
C617 C622 1.363 . S
C618 H595 0.950 . S
C618 C617 1.397 1_655 S
C618 C619 1.337 . S
C619 H596 0.956 . S
C619 C618 1.337 . S
C619 C620 1.278 1_655 S
C620 C619 1.278 1_455 S
C620 C621 1.524 . S
C620 H639 0.913 . S
C621 H597 0.950 . S
C621 C620 1.524 . S
C621 C622 1.415 . S
C622 H598 0.950 . S
C622 C617 1.363 . S
C622 C621 1.415 . S
C623 H599 0.951 . S
C623 C624 1.390 . S
C623 C625 1.388 . S
C624 C623 1.390 . S
C624 C628 1.364 1_655 S
C625 H600 0.951 . S
C625 C623 1.388 . S
C625 C626 1.366 . S
C626 C625 1.366 . S
C626 C627 1.414 1_655 S
C626 C629 1.499 . S
C627 H601 0.950 . S
C627 C626 1.414 1_455 S
C627 C628 1.374 . S
C628 H602 0.950 . S
C628 C624 1.364 1_455 S
C628 C627 1.374 . S
C629 C626 1.499 . S
C629 C630 1.380 . S
C629 C631 1.389 . S
C630 H603 0.942 1_655 S
C630 C616 1.379 . S
C630 C629 1.380 . S
C631 C615 1.377 . S
C631 C629 1.389 . S
C631 C632 1.524 . S
C632 C631 1.524 . S
C632 C633 1.397 . S
C632 C637 1.363 . S
C633 H604 0.950 . S
C633 C632 1.397 . S
C633 C634 1.334 1_556 S
C634 H605 0.950 . S
C634 C633 1.334 1_554 S
C634 C635 1.287 . S
C635 C634 1.287 . S
C635 C636 1.524 1_554 S
C635 H638 0.999 . S
C636 H606 0.950 1_556 S
C636 C635 1.524 1_556 S
C636 C637 1.415 . S
C637 H607 0.950 . S
C637 C632 1.363 . S
C637 C636 1.415 . S
H638 C635 0.999 . S
H639 C620 0.913 . S
H640 C658 0.951 . S
H641 C660 0.951 . S
H642 C662 0.950 . S
H643 C663 0.950 . S
H644 C665 0.950 . S
H645 C668 0.950 . S
H646 C669 0.950 . S
H647 C671 0.950 . S
H648 C672 0.950 . S
H649 C673 0.951 . S
H650 C675 0.951 1_655 S
H651 C677 0.950 . S
H652 C678 0.950 . S
H653 C680 0.950 . S
H654 C683 0.950 . S
H655 C684 0.950 . S
H656 C686 0.950 . S
H657 C687 0.950 . S
C658 H640 0.951 . S
C658 C659 1.366 . S
C658 C660 1.388 . S
C659 C658 1.366 . S
C659 C663 1.385 . S
C660 H641 0.951 . S
C660 C658 1.388 . S
C660 C661 1.366 . S
C661 C660 1.366 . S
C661 C662 1.414 . S
C661 C664 1.499 . S
C662 H642 0.950 . S
C662 C661 1.414 . S
C662 C663 1.374 . S
C663 H643 0.950 . S
C663 C659 1.385 . S
C663 C662 1.374 . S
C664 C661 1.499 . S
C664 C665 1.373 . S
C664 C666 1.389 . S
C665 H644 0.950 . S
C665 C664 1.373 . S
C665 C681 1.377 . S
C666 C664 1.389 . S
C666 C667 1.524 . S
C666 C680 1.377 . S
C667 C666 1.524 . S
C667 C668 1.397 . S
C667 C672 1.363 . S
C668 H645 0.950 . S
C668 C667 1.397 . S
C668 C669 1.334 . S
C669 H646 0.950 . S
C669 C668 1.334 . S
C669 C670 1.287 . S
C670 C669 1.287 . S
C670 C671 1.524 . S
C670 H689 0.913 . S
C671 H647 0.950 . S
C671 C670 1.524 . S
C671 C672 1.415 . S
C672 H648 0.950 . S
C672 C667 1.363 . S
C672 C671 1.415 . S
C673 H649 0.951 . S
C673 C674 1.366 1_655 S
C673 C675 1.388 1_655 S
C674 C673 1.366 1_455 S
C674 C678 1.385 . S
C675 H650 0.951 1_455 S
C675 C673 1.388 1_455 S
C675 C676 1.366 . S
C676 C675 1.366 . S
C676 C677 1.414 . S
C676 C679 1.499 . S
C677 H651 0.950 . S
C677 C676 1.414 . S
C677 C678 1.374 . S
C678 H652 0.950 . S
C678 C674 1.385 . S
C678 C677 1.374 . S
C679 C676 1.499 . S
C679 C680 1.373 . S
C679 C681 1.389 . S
C680 H653 0.950 . S
C680 C666 1.377 . S
C680 C679 1.373 . S
C681 C665 1.377 . S
C681 C679 1.389 . S
C681 C682 1.524 . S
C682 C681 1.524 . S
C682 C683 1.397 . S
C682 C687 1.363 1_455 S
C683 H654 0.950 . S
C683 C682 1.397 . S
C683 C684 1.334 . S
C684 H655 0.950 . S
C684 C683 1.334 . S
C684 C685 1.287 1_455 S
C685 C684 1.287 1_655 S
C685 C686 1.524 . S
C685 H688 0.999 . S
C686 H656 0.950 . S
C686 C685 1.524 . S
C686 C687 1.415 . S
C687 H657 0.950 . S
C687 C682 1.363 1_655 S
C687 C686 1.415 . S
H688 C685 0.999 . S
H689 C670 0.913 . S
H690 C708 0.951 . S
H691 C710 0.951 . S
H692 C712 0.955 . S
H693 C713 0.950 . S
H694 C715 0.950 . S
H695 C718 0.950 . S
H696 C719 0.950 . S
H697 C721 0.950 . S
H698 C722 0.950 . S
H699 C723 0.951 . S
H700 C725 0.950 . S
H701 C727 0.950 . S
H702 C728 0.950 . S
H703 C730 0.950 . S
H704 C733 0.950 . S
H705 C734 0.950 . S
H706 C736 0.950 . S
H707 C737 0.950 . S
C708 H690 0.951 . S
C708 C709 1.365 1_565 S
C708 C710 1.388 . S
C709 C708 1.365 1_545 S
C709 C713 1.385 . S
C710 H691 0.951 . S
C710 C708 1.388 . S
C710 C711 1.366 . S
C711 C710 1.366 . S
C711 C712 1.410 1_565 S
C711 C714 1.499 . S
C712 H692 0.955 . S
C712 C711 1.410 1_545 S
C712 C713 1.374 . S
C713 H693 0.950 . S
C713 C709 1.385 . S
C713 C712 1.374 . S
C714 C711 1.499 . S
C714 C715 1.373 1_565 S
C714 C716 1.389 . S
C715 H694 0.950 . S
C715 C714 1.373 1_545 S
C715 C731 1.377 . S
C716 C714 1.389 . S
C716 C717 1.524 . S
C716 C730 1.377 . S
C717 C716 1.524 . S
C717 C718 1.397 . S
C717 C722 1.363 . S
C718 H695 0.950 . S
C718 C717 1.397 . S
C718 C719 1.334 . S
C719 H696 0.950 . S
C719 C718 1.334 . S
C719 C720 1.287 . S
C720 C719 1.287 . S
C720 C721 1.524 . S
C720 H739 0.913 . S
C721 H697 0.950 . S
C721 C720 1.524 . S
C721 C722 1.415 . S
C722 H698 0.950 . S
C722 C717 1.363 . S
C722 C721 1.415 . S
C723 H699 0.951 . S
C723 C724 1.366 . S
C723 C725 1.388 . S
C724 C723 1.366 . S
C724 C728 1.385 . S
C725 H700 0.950 . S
C725 C723 1.388 . S
C725 C726 1.366 . S
C726 C725 1.366 . S
C726 C727 1.414 . S
C726 C729 1.499 . S
C727 H701 0.950 . S
C727 C726 1.414 . S
C727 C728 1.374 . S
C728 H702 0.950 . S
C728 C724 1.385 . S
C728 C727 1.374 . S
C729 C726 1.499 . S
C729 C730 1.373 . S
C729 C731 1.389 1_565 S
C730 H703 0.950 . S
C730 C716 1.377 . S
C730 C729 1.373 . S
C731 C715 1.377 . S
C731 C729 1.389 1_545 S
C731 C732 1.524 . S
C732 C731 1.524 . S
C732 C733 1.397 . S
C732 C737 1.363 . S
C733 H704 0.950 . S
C733 C732 1.397 . S
C733 C734 1.334 . S
C734 H705 0.950 . S
C734 C733 1.334 . S
C734 C735 1.287 . S
C735 C734 1.287 . S
C735 C736 1.524 . S
C735 H738 0.999 . S
C736 H706 0.950 . S
C736 C735 1.524 . S
C736 C737 1.415 . S
C737 H707 0.950 . S
C737 C732 1.363 . S
C737 C736 1.415 . S
H738 C735 0.999 . S
H739 C720 0.913 . S
H740 C758 0.951 . S
H741 C760 0.951 . S
H742 C762 0.950 . S
H743 C763 0.950 . S
H744 C765 0.950 . S
H745 C768 0.950 . S
H746 C769 0.950 . S
H747 C771 0.950 . S
H748 C772 0.950 . S
H749 C773 0.951 . S
H750 C775 0.951 . S
H751 C777 0.950 . S
H752 C778 0.950 . S
H753 C780 0.950 . S
H754 C783 0.950 . S
H755 C784 0.950 . S
H756 C786 0.950 . S
H757 C787 0.950 . S
C758 H740 0.951 . S
C758 C759 1.366 . S
C758 C760 1.388 . S
C759 C758 1.366 . S
C759 C763 1.385 . S
C760 H741 0.951 . S
C760 C758 1.388 . S
C760 C761 1.366 . S
C761 C760 1.366 . S
C761 C762 1.414 . S
C761 C764 1.499 . S
C762 H742 0.950 . S
C762 C761 1.414 . S
C762 C763 1.374 . S
C763 H743 0.950 . S
C763 C759 1.385 . S
C763 C762 1.374 . S
C764 C761 1.499 . S
C764 C765 1.373 . S
C764 C766 1.389 . S
C765 H744 0.950 . S
C765 C764 1.373 . S
C765 C781 1.377 . S
C766 C764 1.389 . S
C766 C767 1.524 . S
C766 C780 1.377 . S
C767 C766 1.524 . S
C767 C768 1.397 . S
C767 C772 1.363 . S
C768 H745 0.950 . S
C768 C767 1.397 . S
C768 C769 1.334 . S
C769 H746 0.950 . S
C769 C768 1.334 . S
C769 C770 1.287 . S
C770 C769 1.287 . S
C770 C771 1.524 . S
C770 H789 0.913 . S
C771 H747 0.950 . S
C771 C770 1.524 . S
C771 C772 1.415 . S
C772 H748 0.950 . S
C772 C767 1.363 . S
C772 C771 1.415 . S
C773 H749 0.951 . S
C773 C774 1.366 . S
C773 C775 1.388 . S
C774 C773 1.366 . S
C774 C778 1.385 . S
C775 H750 0.951 . S
C775 C773 1.388 . S
C775 C776 1.366 . S
C776 C775 1.366 . S
C776 C777 1.414 . S
C776 C779 1.499 . S
C777 H751 0.950 . S
C777 C776 1.414 . S
C777 C778 1.374 . S
C778 H752 0.950 . S
C778 C774 1.385 . S
C778 C777 1.374 . S
C779 C776 1.499 . S
C779 C780 1.373 . S
C779 C781 1.389 . S
C780 H753 0.950 . S
C780 C766 1.377 . S
C780 C779 1.373 . S
C781 C765 1.377 . S
C781 C779 1.389 . S
C781 C782 1.524 . S
C782 C781 1.524 . S
C782 C783 1.397 . S
C782 C787 1.363 . S
C783 H754 0.950 . S
C783 C782 1.397 . S
C783 C784 1.334 . S
C784 H755 0.950 . S
C784 C783 1.334 . S
C784 C785 1.287 . S
C785 C784 1.287 . S
C785 C786 1.524 . S
C785 H788 0.999 . S
C786 H756 0.950 . S
C786 C785 1.524 . S
C786 C787 1.415 . S
C787 H757 0.950 . S
C787 C782 1.363 . S
C787 C786 1.415 . S
H788 C785 0.999 . S
H789 C770 0.913 . S
H790 C808 0.951 . S
H791 C810 0.951 . S
H792 C812 0.950 . S
H793 C813 0.950 . S
H794 C815 0.950 . S
H795 C818 0.950 . S
H796 C819 0.950 . S
H797 C821 0.950 . S
H798 C822 0.950 . S
H799 C823 0.951 . S
H800 C825 0.951 . S
H801 C827 0.950 . S
H802 C828 0.950 . S
H803 C830 0.950 . S
H804 C833 0.950 . S
H805 C834 0.950 . S
H806 C836 0.950 . S
H807 C837 0.950 . S
C808 H790 0.951 . S
C808 C809 1.366 . S
C808 C810 1.388 . S
C809 C808 1.366 . S
C809 C813 1.385 . S
C810 H791 0.951 . S
C810 C808 1.388 . S
C810 C811 1.366 . S
C811 C810 1.366 . S
C811 C812 1.414 . S
C811 C814 1.499 . S
C812 H792 0.950 . S
C812 C811 1.414 . S
C812 C813 1.374 . S
C813 H793 0.950 . S
C813 C809 1.385 . S
C813 C812 1.374 . S
C814 C811 1.499 . S
C814 C815 1.373 . S
C814 C816 1.389 . S
C815 H794 0.950 . S
C815 C814 1.373 . S
C815 C831 1.377 . S
C816 C814 1.389 . S
C816 C817 1.524 . S
C816 C830 1.377 . S
C817 C816 1.524 . S
C817 C818 1.397 . S
C817 C822 1.363 . S
C818 H795 0.950 . S
C818 C817 1.397 . S
C818 C819 1.334 . S
C819 H796 0.950 . S
C819 C818 1.334 . S
C819 C820 1.287 . S
C820 C819 1.287 . S
C820 C821 1.524 . S
C820 H839 0.913 . S
C821 H797 0.950 . S
C821 C820 1.524 . S
C821 C822 1.415 . S
C822 H798 0.950 . S
C822 C817 1.363 . S
C822 C821 1.415 . S
C823 H799 0.951 . S
C823 C824 1.366 . S
C823 C825 1.388 . S
C824 C823 1.366 . S
C824 C828 1.385 . S
C825 H800 0.951 . S
C825 C823 1.388 . S
C825 C826 1.366 . S
C826 C825 1.366 . S
C826 C827 1.414 . S
C826 C829 1.499 . S
C827 H801 0.950 . S
C827 C826 1.414 . S
C827 C828 1.374 . S
C828 H802 0.950 . S
C828 C824 1.385 . S
C828 C827 1.374 . S
C829 C826 1.499 . S
C829 C830 1.373 . S
C829 C831 1.389 . S
C830 H803 0.950 . S
C830 C816 1.377 . S
C830 C829 1.373 . S
C831 C815 1.377 . S
C831 C829 1.389 . S
C831 C832 1.524 . S
C832 C831 1.524 . S
C832 C833 1.397 . S
C832 C837 1.363 . S
C833 H804 0.950 . S
C833 C832 1.397 . S
C833 C834 1.334 . S
C834 H805 0.950 . S
C834 C833 1.334 . S
C834 C835 1.287 . S
C835 C834 1.287 . S
C835 C836 1.524 . S
C835 H838 0.999 . S
C836 H806 0.950 . S
C836 C835 1.524 . S
C836 C837 1.415 . S
C837 H807 0.950 . S
C837 C832 1.363 . S
C837 C836 1.415 . S
H838 C835 0.999 . S
H839 C820 0.913 . S
H840 C858 0.951 . S
H841 C860 0.951 1_455 S
H842 C862 0.950 . S
H843 C863 0.950 . S
H844 C865 0.950 . S
H845 C868 0.950 . S
H846 C869 0.950 . S
H847 C871 0.950 . S
H848 C872 0.950 1_556 S
H849 C873 0.951 . S
H850 C875 0.951 . S
H851 C877 0.950 . S
H852 C878 0.950 . S
H853 C880 0.950 . S
H854 C883 0.950 1_455 S
H855 C884 0.950 1_455 S
H856 C886 0.950 . S
H857 C887 0.950 . S
C858 H840 0.951 . S
C858 C859 1.366 . S
C858 C860 1.388 . S
C859 C858 1.366 . S
C859 C863 1.385 . S
C860 H841 0.951 1_655 S
C860 C858 1.388 . S
C860 C861 1.366 . S
C861 C860 1.366 . S
C861 C862 1.414 . S
C861 C864 1.499 . S
C862 H842 0.950 . S
C862 C861 1.414 . S
C862 C863 1.374 . S
C863 H843 0.950 . S
C863 C859 1.385 . S
C863 C862 1.374 . S
C864 C861 1.499 . S
C864 C865 1.373 . S
C864 C866 1.389 . S
C865 H844 0.950 . S
C865 C864 1.373 . S
C865 C881 1.377 . S
C866 C864 1.389 . S
C866 C867 1.515 1_656 S
C866 C880 1.377 1_655 S
C867 C866 1.515 1_454 S
C867 C868 1.403 1_455 S
C867 C872 1.366 . S
C868 H845 0.950 . S
C868 C867 1.403 1_655 S
C868 C869 1.334 . S
C869 H846 0.950 . S
C869 C868 1.334 . S
C869 C870 1.287 1_655 S
C870 C869 1.287 1_455 S
C870 C871 1.524 . S
C870 H889 0.913 . S
C871 H847 0.950 . S
C871 C870 1.524 . S
C871 C872 1.415 . S
C872 H848 0.950 1_554 S
C872 C867 1.366 . S
C872 C871 1.415 . S
C873 H849 0.951 . S
C873 C874 1.366 1_655 S
C873 C875 1.388 . S
C874 C873 1.366 1_455 S
C874 C878 1.385 . S
C875 H850 0.951 . S
C875 C873 1.388 . S
C875 C876 1.366 1_655 S
C876 C875 1.366 1_455 S
C876 C877 1.414 . S
C876 C879 1.499 1_455 S
C877 H851 0.950 . S
C877 C876 1.414 . S
C877 C878 1.374 . S
C878 H852 0.950 . S
C878 C874 1.385 . S
C878 C877 1.374 . S
C879 C876 1.499 1_655 S
C879 C880 1.373 1_655 S
C879 C881 1.389 . S
C880 H853 0.950 . S
C880 C866 1.377 1_455 S
C880 C879 1.373 1_455 S
C881 C865 1.377 . S
C881 C879 1.389 . S
C881 C882 1.524 . S
C882 C881 1.524 . S
C882 C883 1.397 . S
C882 C887 1.363 . S
C883 H854 0.950 1_655 S
C883 C882 1.397 . S
C883 C884 1.334 . S
C884 H855 0.950 1_655 S
C884 C883 1.334 . S
C884 C885 1.287 . S
C885 C884 1.287 . S
C885 C886 1.524 . S
C885 H888 0.999 . S
C886 H856 0.950 . S
C886 C885 1.524 . S
C886 C887 1.415 . S
C887 H857 0.950 . S
C887 C882 1.363 . S
C887 C886 1.415 . S
H888 C885 0.999 . S
H889 C870 0.913 . S
H890 C908 0.951 . S
H891 C910 0.951 . S
H892 C912 0.950 . S
H893 C913 0.950 . S
H894 C915 0.950 . S
H895 C918 0.950 1_565 S
H896 C919 0.950 . S
H897 C921 0.950 . S
H898 C922 0.950 1_556 S
H899 C923 0.951 . S
H900 C925 0.951 . S
H901 C927 0.950 . S
H902 C928 0.950 . S
H903 C930 0.950 . S
H904 C933 0.950 1_545 S
H905 C934 0.950 . S
H906 C936 0.950 . S
H907 C937 0.950 . S
C908 H890 0.951 . S
C908 C909 1.363 . S
C908 C910 1.388 1_554 S
C909 C908 1.363 . S
C909 C913 1.387 1_545 S
C910 H891 0.951 . S
C910 C908 1.388 1_556 S
C910 C911 1.366 . S
C911 C910 1.366 . S
C911 C912 1.414 1_545 S
C911 C914 1.499 . S
C912 H892 0.950 . S
C912 C911 1.414 1_565 S
C912 C913 1.374 1_556 S
C913 H893 0.950 . S
C913 C909 1.387 1_565 S
C913 C912 1.374 1_554 S
C914 C911 1.499 . S
C914 C915 1.373 1_545 S
C914 C916 1.389 . S
C915 H894 0.950 . S
C915 C914 1.373 1_565 S
C915 C931 1.377 . S
C916 C914 1.389 . S
C916 C917 1.524 1_556 S
C916 C930 1.377 . S
C917 C916 1.524 1_554 S
C917 C918 1.397 . S
C917 C922 1.363 . S
C918 H895 0.950 1_545 S
C918 C917 1.397 . S
C918 C919 1.334 . S
C919 H896 0.950 . S
C919 C918 1.334 . S
C919 C920 1.287 . S
C920 C919 1.287 . S
C920 C921 1.524 . S
C920 H939 0.913 . S
C921 H897 0.950 . S
C921 C920 1.524 . S
C921 C922 1.415 . S
C922 H898 0.950 1_554 S
C922 C917 1.363 . S
C922 C921 1.415 . S
C923 H899 0.951 . S
C923 C924 1.366 1_565 S
C923 C925 1.388 . S
C924 C923 1.366 1_545 S
C924 C928 1.385 . S
C925 H900 0.951 . S
C925 C923 1.388 . S
C925 C926 1.366 1_565 S
C926 C925 1.366 1_545 S
C926 C927 1.414 . S
C926 C929 1.499 . S
C927 H901 0.950 . S
C927 C926 1.414 . S
C927 C928 1.374 . S
C928 H902 0.950 . S
C928 C924 1.385 . S
C928 C927 1.374 . S
C929 C926 1.499 . S
C929 C930 1.373 . S
C929 C931 1.389 1_545 S
C930 H903 0.950 . S
C930 C916 1.377 . S
C930 C929 1.373 . S
C931 C915 1.377 . S
C931 C929 1.389 1_565 S
C931 C932 1.524 . S
C932 C931 1.524 . S
C932 C933 1.397 . S
C932 C937 1.363 . S
C933 H904 0.950 1_565 S
C933 C932 1.397 . S
C933 C934 1.334 . S
C934 H905 0.950 . S
C934 C933 1.334 . S
C934 C935 1.287 . S
C935 C934 1.287 . S
C935 C936 1.524 . S
C935 H938 0.999 . S
C936 H906 0.950 . S
C936 C935 1.524 . S
C936 C937 1.415 . S
C937 H907 0.950 . S
C937 C932 1.363 . S
C937 C936 1.415 . S
H938 C935 0.999 . S
H939 C920 0.913 . S
H940 C958 0.951 . S
H941 C960 0.951 . S
H942 C962 0.950 . S
H943 C963 0.950 . S
H944 C965 0.950 . S
H945 C968 0.950 . S
H946 C969 0.950 . S
H947 C971 0.950 . S
H948 C972 0.950 1_556 S
H949 C973 0.951 . S
H950 C975 0.951 . S
H951 C977 0.950 . S
H952 C978 0.950 . S
H953 C980 0.950 . S
H954 C983 0.950 . S
H955 C984 0.950 . S
H956 C986 0.950 . S
H957 C987 0.950 . S
C958 H940 0.951 . S
C958 C959 1.366 . S
C958 C960 1.388 1_554 S
C959 C958 1.366 . S
C959 C963 1.385 . S
C960 H941 0.951 . S
C960 C958 1.388 1_556 S
C960 C961 1.366 . S
C961 C960 1.366 . S
C961 C962 1.414 . S
C961 C964 1.499 . S
C962 H942 0.950 . S
C962 C961 1.414 . S
C962 C963 1.374 1_556 S
C963 H943 0.950 . S
C963 C959 1.385 . S
C963 C962 1.374 1_554 S
C964 C961 1.499 . S
C964 C965 1.373 . S
C964 C966 1.389 . S
C965 H944 0.950 . S
C965 C964 1.373 . S
C965 C981 1.377 . S
C966 C964 1.389 . S
C966 C967 1.524 1_556 S
C966 C980 1.377 . S
C967 C966 1.524 1_554 S
C967 C968 1.397 . S
C967 C972 1.363 . S
C968 H945 0.950 . S
C968 C967 1.397 . S
C968 C969 1.334 . S
C969 H946 0.950 . S
C969 C968 1.334 . S
C969 C970 1.287 . S
C970 C969 1.287 . S
C970 C971 1.524 . S
C970 H989 0.913 . S
C971 H947 0.950 . S
C971 C970 1.524 . S
C971 C972 1.415 . S
C972 H948 0.950 1_554 S
C972 C967 1.363 . S
C972 C971 1.415 . S
C973 H949 0.951 . S
C973 C974 1.366 . S
C973 C975 1.388 . S
C974 C973 1.366 . S
C974 C978 1.385 . S
C975 H950 0.951 . S
C975 C973 1.388 . S
C975 C976 1.366 . S
C976 C975 1.366 . S
C976 C977 1.414 . S
C976 C979 1.499 . S
C977 H951 0.950 . S
C977 C976 1.414 . S
C977 C978 1.374 . S
C978 H952 0.950 . S
C978 C974 1.385 . S
C978 C977 1.374 . S
C979 C976 1.499 . S
C979 C980 1.373 . S
C979 C981 1.389 . S
C980 H953 0.950 . S
C980 C966 1.377 . S
C980 C979 1.373 . S
C981 C965 1.377 . S
C981 C979 1.389 . S
C981 C982 1.524 . S
C982 C981 1.524 . S
C982 C983 1.397 . S
C982 C987 1.363 . S
C983 H954 0.950 . S
C983 C982 1.397 . S
C983 C984 1.334 . S
C984 H955 0.950 . S
C984 C983 1.334 . S
C984 C985 1.287 . S
C985 C984 1.287 . S
C985 C986 1.524 . S
C985 H988 0.999 . S
C986 H956 0.950 . S
C986 C985 1.524 . S
C986 C987 1.415 . S
C987 H957 0.950 . S
C987 C982 1.363 . S
C987 C986 1.415 . S
H988 C985 0.999 . S
H989 C970 0.913 . S
H990 C1008 0.951 . S
H991 C1010 0.951 . S
H992 C1012 0.951 . S
H993 C1013 0.950 . S
H994 C1015 0.950 . S
H995 C1018 0.950 . S
H996 C1019 0.950 . S
H997 C1021 0.950 . S
H998 C1022 0.950 . S
H999 C1023 0.951 . S
H1000 C1025 0.951 . S
H1001 C1027 0.950 . S
H1002 C1028 0.950 . S
H1003 C1030 0.950 . S
H1004 C1033 0.950 . S
H1005 C1034 0.950 . S
H1006 C1036 0.950 . S
H1007 C1037 0.950 . S
C1008 H990 0.951 . S
C1008 C1009 1.366 . S
C1008 C1010 1.388 . S
C1009 C1008 1.366 . S
C1009 C1013 1.385 . S
C1010 H991 0.951 . S
C1010 C1008 1.388 . S
C1010 C1011 1.366 . S
C1011 C1010 1.366 . S
C1011 C1012 1.414 1_554 S
C1011 C1014 1.499 1_554 S
C1012 H992 0.951 . S
C1012 C1011 1.414 1_556 S
C1012 C1013 1.374 1_556 S
C1013 H993 0.950 . S
C1013 C1009 1.385 . S
C1013 C1012 1.374 1_554 S
C1014 C1011 1.499 1_556 S
C1014 C1015 1.373 . S
C1014 C1016 1.389 1_556 S
C1015 H994 0.950 . S
C1015 C1014 1.373 . S
C1015 C1031 1.377 . S
C1016 C1014 1.389 1_554 S
C1016 C1017 1.524 . S
C1016 C1030 1.377 1_554 S
C1017 C1016 1.524 . S
C1017 C1018 1.397 . S
C1017 C1022 1.363 . S
C1018 H995 0.950 . S
C1018 C1017 1.397 . S
C1018 C1019 1.334 . S
C1019 H996 0.950 . S
C1019 C1018 1.334 . S
C1019 C1020 1.287 . S
C1020 C1019 1.287 . S
C1020 C1021 1.524 . S
C1020 H1039 0.913 . S
C1021 H997 0.950 . S
C1021 C1020 1.524 . S
C1021 C1022 1.415 . S
C1022 H998 0.950 . S
C1022 C1017 1.363 . S
C1022 C1021 1.415 . S
C1023 H999 0.951 . S
C1023 C1024 1.366 . S
C1023 C1025 1.388 . S
C1024 C1023 1.366 . S
C1024 C1028 1.385 . S
C1025 H1000 0.951 . S
C1025 C1023 1.388 . S
C1025 C1026 1.366 . S
C1026 C1025 1.366 . S
C1026 C1027 1.414 . S
C1026 C1029 1.499 . S
C1027 H1001 0.950 . S
C1027 C1026 1.414 . S
C1027 C1028 1.374 . S
C1028 H1002 0.950 . S
C1028 C1024 1.385 . S
C1028 C1027 1.374 . S
C1029 C1026 1.499 . S
C1029 C1030 1.373 . S
C1029 C1031 1.389 . S
C1030 H1003 0.950 . S
C1030 C1016 1.377 1_556 S
C1030 C1029 1.373 . S
C1031 C1015 1.377 . S
C1031 C1029 1.389 . S
C1031 C1032 1.524 . S
C1032 C1031 1.524 . S
C1032 C1033 1.397 . S
C1032 C1037 1.363 . S
C1033 H1004 0.950 . S
C1033 C1032 1.397 . S
C1033 C1034 1.334 . S
C1034 H1005 0.950 . S
C1034 C1033 1.334 . S
C1034 C1035 1.287 . S
C1035 C1034 1.287 . S
C1035 C1036 1.524 . S
C1035 H1038 0.999 . S
C1036 H1006 0.950 . S
C1036 C1035 1.524 . S
C1036 C1037 1.415 . S
C1037 H1007 0.950 . S
C1037 C1032 1.363 . S
C1037 C1036 1.415 . S
H1038 C1035 0.999 . S
H1039 C1020 0.913 . S
H1040 C1058 0.951 . S
H1041 C1060 0.951 . S
H1042 C1062 0.950 . S
H1043 C1063 0.950 . S
H1044 C1065 0.950 . S
H1045 C1068 0.950 . S
H1046 C1069 0.950 . S
H1047 C1071 0.950 . S
H1048 C1072 0.950 . S
H1049 C1073 0.951 . S
H1050 C1075 0.951 . S
H1051 C1077 0.950 . S
H1052 C1078 0.948 1_556 S
H1053 C1080 0.950 . S
H1054 C1083 0.950 . S
H1055 C1084 0.944 1_455 S
H1056 C1086 0.950 . S
H1057 C1087 0.950 . S
C1058 H1040 0.951 . S
C1058 C1059 1.366 . S
C1058 C1060 1.388 . S
C1059 C1058 1.366 . S
C1059 C1063 1.385 . S
C1060 H1041 0.951 . S
C1060 C1058 1.388 . S
C1060 C1061 1.366 . S
C1061 C1060 1.366 . S
C1061 C1062 1.414 . S
C1061 C1064 1.499 . S
C1062 H1042 0.950 . S
C1062 C1061 1.414 . S
C1062 C1063 1.374 . S
C1063 H1043 0.950 . S
C1063 C1059 1.385 . S
C1063 C1062 1.374 . S
C1064 C1061 1.499 . S
C1064 C1065 1.373 . S
C1064 C1066 1.389 . S
C1065 H1044 0.950 . S
C1065 C1064 1.373 . S
C1065 C1081 1.377 . S
C1066 C1064 1.389 . S
C1066 C1067 1.524 . S
C1066 C1080 1.377 . S
C1067 C1066 1.524 . S
C1067 C1068 1.397 . S
C1067 C1072 1.363 . S
C1068 H1045 0.950 . S
C1068 C1067 1.397 . S
C1068 C1069 1.334 . S
C1069 H1046 0.950 . S
C1069 C1068 1.334 . S
C1069 C1070 1.287 . S
C1070 C1069 1.287 . S
C1070 C1071 1.524 . S
C1070 H1089 0.913 . S
C1071 H1047 0.950 . S
C1071 C1070 1.524 . S
C1071 C1072 1.415 . S
C1072 H1048 0.950 . S
C1072 C1067 1.363 . S
C1072 C1071 1.415 . S
C1073 H1049 0.951 . S
C1073 C1074 1.366 . S
C1073 C1075 1.388 1_556 S
C1074 C1073 1.366 . S
C1074 C1078 1.385 1_556 S
C1075 H1050 0.951 . S
C1075 C1073 1.388 1_554 S
C1075 C1076 1.366 . S
C1076 C1075 1.366 . S
C1076 C1077 1.414 . S
C1076 C1079 1.499 . S
C1077 H1051 0.950 . S
C1077 C1076 1.414 . S
C1077 C1078 1.374 . S
C1078 H1052 0.948 1_554 S
C1078 C1074 1.385 1_554 S
C1078 C1077 1.374 . S
C1079 C1076 1.499 . S
C1079 C1080 1.373 . S
C1079 C1081 1.389 . S
C1080 H1053 0.950 . S
C1080 C1066 1.377 . S
C1080 C1079 1.373 . S
C1081 C1065 1.377 . S
C1081 C1079 1.389 . S
C1081 C1082 1.524 . S
C1082 C1081 1.524 . S
C1082 C1083 1.397 . S
C1082 C1087 1.363 1_455 S
C1083 H1054 0.950 . S
C1083 C1082 1.397 . S
C1083 C1084 1.334 1_455 S
C1084 H1055 0.944 1_655 S
C1084 C1083 1.334 1_655 S
C1084 C1085 1.287 . S
C1085 C1084 1.287 . S
C1085 C1086 1.524 . S
C1085 H1088 0.999 . S
C1086 H1056 0.950 . S
C1086 C1085 1.524 . S
C1086 C1087 1.415 . S
C1087 H1057 0.950 . S
C1087 C1082 1.363 1_655 S
C1087 C1086 1.415 . S
H1088 C1085 0.999 . S
H1089 C1070 0.913 . S
H1090 C1108 0.951 . S
H1091 C1110 0.951 . S
H1092 C1112 0.950 . S
H1093 C1113 0.950 . S
H1094 C1115 0.950 . S
H1095 C1118 0.950 . S
H1096 C1119 0.950 . S
H1097 C1121 0.950 . S
H1098 C1122 0.950 . S
H1099 C1123 0.951 . S
H1100 C1125 0.951 . S
H1101 C1127 0.950 1_554 S
H1102 C1128 0.950 . S
H1103 C1130 0.950 . S
H1104 C1133 0.950 . S
H1105 C1134 0.950 . S
H1106 C1136 0.950 . S
H1107 C1137 0.950 . S
C1108 H1090 0.951 . S
C1108 C1109 1.362 1_565 S
C1108 C1110 1.388 . S
C1109 C1108 1.362 1_545 S
C1109 C1113 1.389 . S
C1110 H1091 0.951 . S
C1110 C1108 1.388 . S
C1110 C1111 1.366 1_565 S
C1111 C1110 1.366 1_545 S
C1111 C1112 1.414 . S
C1111 C1114 1.499 . S
C1112 H1092 0.950 . S
C1112 C1111 1.414 . S
C1112 C1113 1.374 . S
C1113 H1093 0.950 . S
C1113 C1109 1.389 . S
C1113 C1112 1.374 . S
C1114 C1111 1.499 . S
C1114 C1115 1.373 1_545 S
C1114 C1116 1.389 . S
C1115 H1094 0.950 . S
C1115 C1114 1.373 1_565 S
C1115 C1131 1.377 1_554 S
C1116 C1114 1.389 . S
C1116 C1117 1.524 . S
C1116 C1130 1.377 . S
C1117 C1116 1.524 . S
C1117 C1118 1.397 . S
C1117 C1122 1.363 . S
C1118 H1095 0.950 . S
C1118 C1117 1.397 . S
C1118 C1119 1.334 . S
C1119 H1096 0.950 . S
C1119 C1118 1.334 . S
C1119 C1120 1.287 . S
C1120 C1119 1.287 . S
C1120 C1121 1.524 . S
C1120 H1139 0.913 . S
C1121 H1097 0.950 . S
C1121 C1120 1.524 . S
C1121 C1122 1.415 . S
C1122 H1098 0.950 . S
C1122 C1117 1.363 . S
C1122 C1121 1.415 . S
C1123 H1099 0.951 . S
C1123 C1124 1.366 . S
C1123 C1125 1.388 . S
C1124 C1123 1.366 . S
C1124 C1128 1.385 1_545 S
C1125 H1100 0.951 . S
C1125 C1123 1.388 . S
C1125 C1126 1.366 . S
C1126 C1125 1.366 . S
C1126 C1127 1.414 1_545 S
C1126 C1129 1.499 . S
C1127 H1101 0.950 1_556 S
C1127 C1126 1.414 1_565 S
C1127 C1128 1.374 . S
C1128 H1102 0.950 . S
C1128 C1124 1.385 1_565 S
C1128 C1127 1.374 . S
C1129 C1126 1.499 . S
C1129 C1130 1.373 1_556 S
C1129 C1131 1.389 1_545 S
C1130 H1103 0.950 . S
C1130 C1116 1.377 . S
C1130 C1129 1.373 1_554 S
C1131 C1115 1.377 1_556 S
C1131 C1129 1.389 1_565 S
C1131 C1132 1.524 . S
C1132 C1131 1.524 . S
C1132 C1133 1.397 . S
C1132 C1137 1.363 . S
C1133 H1104 0.950 . S
C1133 C1132 1.397 . S
C1133 C1134 1.334 . S
C1134 H1105 0.950 . S
C1134 C1133 1.334 . S
C1134 C1135 1.287 . S
C1135 C1134 1.287 . S
C1135 C1136 1.524 . S
C1135 H1138 0.999 . S
C1136 H1106 0.950 . S
C1136 C1135 1.524 . S
C1136 C1137 1.415 . S
C1137 H1107 0.950 . S
C1137 C1132 1.363 . S
C1137 C1136 1.415 . S
H1138 C1135 0.999 . S
H1139 C1120 0.913 . S
H1140 C1158 0.951 . S
H1141 C1160 0.951 . S
H1142 C1162 0.950 . S
H1143 C1163 0.950 . S
H1144 C1165 0.950 . S
H1145 C1168 0.950 1_554 S
H1146 C1169 0.950 . S
H1147 C1171 0.950 . S
H1148 C1172 0.950 . S
H1149 C1173 0.951 . S
H1150 C1175 0.951 . S
H1151 C1177 0.950 . S
H1152 C1178 0.950 . S
H1153 C1180 0.950 . S
H1154 C1183 0.950 . S
H1155 C1184 0.950 . S
H1156 C1186 0.950 . S
H1157 C1187 0.950 . S
C1158 H1140 0.951 . S
C1158 C1159 1.366 . S
C1158 C1160 1.388 . S
C1159 C1158 1.366 . S
C1159 C1163 1.385 . S
C1160 H1141 0.951 . S
C1160 C1158 1.388 . S
C1160 C1161 1.366 . S
C1161 C1160 1.366 . S
C1161 C1162 1.414 . S
C1161 C1164 1.499 . S
C1162 H1142 0.950 . S
C1162 C1161 1.414 . S
C1162 C1163 1.374 . S
C1163 H1143 0.950 . S
C1163 C1159 1.385 . S
C1163 C1162 1.374 . S
C1164 C1161 1.499 . S
C1164 C1165 1.373 . S
C1164 C1166 1.389 . S
C1165 H1144 0.950 . S
C1165 C1164 1.373 . S
C1165 C1181 1.377 . S
C1166 C1164 1.389 . S
C1166 C1167 1.524 1_554 S
C1166 C1180 1.377 1_554 S
C1167 C1166 1.524 1_556 S
C1167 C1168 1.397 . S
C1167 C1172 1.363 . S
C1168 H1145 0.950 1_556 S
C1168 C1167 1.397 . S
C1168 C1169 1.334 . S
C1169 H1146 0.950 . S
C1169 C1168 1.334 . S
C1169 C1170 1.287 . S
C1170 C1169 1.287 . S
C1170 C1171 1.524 . S
C1170 H1189 0.913 . S
C1171 H1147 0.950 . S
C1171 C1170 1.524 . S
C1171 C1172 1.415 . S
C1172 H1148 0.950 . S
C1172 C1167 1.363 . S
C1172 C1171 1.415 . S
C1173 H1149 0.951 . S
C1173 C1174 1.366 . S
C1173 C1175 1.388 . S
C1174 C1173 1.366 . S
C1174 C1178 1.385 . S
C1175 H1150 0.951 . S
C1175 C1173 1.388 . S
C1175 C1176 1.366 . S
C1176 C1175 1.366 . S
C1176 C1177 1.414 . S
C1176 C1179 1.499 . S
C1177 H1151 0.950 . S
C1177 C1176 1.414 . S
C1177 C1178 1.374 . S
C1178 H1152 0.950 . S
C1178 C1174 1.385 . S
C1178 C1177 1.374 . S
C1179 C1176 1.499 . S
C1179 C1180 1.373 . S
C1179 C1181 1.389 1_556 S
C1180 H1153 0.950 . S
C1180 C1166 1.377 1_556 S
C1180 C1179 1.373 . S
C1181 C1165 1.377 . S
C1181 C1179 1.389 1_554 S
C1181 C1182 1.524 . S
C1182 C1181 1.524 . S
C1182 C1183 1.397 . S
C1182 C1187 1.363 . S
C1183 H1154 0.950 . S
C1183 C1182 1.397 . S
C1183 C1184 1.334 . S
C1184 H1155 0.950 . S
C1184 C1183 1.334 . S
C1184 C1185 1.287 . S
C1185 C1184 1.287 . S
C1185 C1186 1.524 . S
C1185 H1188 0.999 . S
C1186 H1156 0.950 . S
C1186 C1185 1.524 . S
C1186 C1187 1.415 . S
C1187 H1157 0.950 . S
C1187 C1182 1.363 . S
C1187 C1186 1.415 . S
H1188 C1185 0.999 . S
H1189 C1170 0.913 . S
H1190 C1208 0.951 . S
H1191 C1210 0.951 . S
H1192 C1212 0.950 . S
H1193 C1213 0.950 . S
H1194 C1215 0.950 . S
H1195 C1218 0.950 . S
H1196 C1219 0.950 . S
H1197 C1221 0.950 . S
H1198 C1222 0.950 . S
H1199 C1223 0.951 . S
H1200 C1225 0.951 . S
H1201 C1227 0.950 . S
H1202 C1228 0.950 . S
H1203 C1230 0.950 . S
H1204 C1233 0.950 . S
H1205 C1234 0.950 . S
H1206 C1236 0.950 . S
H1207 C1237 0.950 . S
C1208 H1190 0.951 . S
C1208 C1209 1.366 . S
C1208 C1210 1.388 . S
C1209 C1208 1.366 . S
C1209 C1213 1.385 . S
C1210 H1191 0.951 . S
C1210 C1208 1.388 . S
C1210 C1211 1.366 . S
C1211 C1210 1.366 . S
C1211 C1212 1.414 . S
C1211 C1214 1.499 . S
C1212 H1192 0.950 . S
C1212 C1211 1.414 . S
C1212 C1213 1.374 . S
C1213 H1193 0.950 . S
C1213 C1209 1.385 . S
C1213 C1212 1.374 . S
C1214 C1211 1.499 . S
C1214 C1215 1.373 . S
C1214 C1216 1.389 . S
C1215 H1194 0.950 . S
C1215 C1214 1.373 . S
C1215 C1231 1.377 1_554 S
C1216 C1214 1.389 . S
C1216 C1217 1.524 . S
C1216 C1230 1.377 1_554 S
C1217 C1216 1.524 . S
C1217 C1218 1.397 . S
C1217 C1222 1.363 . S
C1218 H1195 0.950 . S
C1218 C1217 1.397 . S
C1218 C1219 1.334 . S
C1219 H1196 0.950 . S
C1219 C1218 1.334 . S
C1219 C1220 1.287 . S
C1220 C1219 1.287 . S
C1220 C1221 1.524 . S
C1220 H1239 0.913 . S
C1221 H1197 0.950 . S
C1221 C1220 1.524 . S
C1221 C1222 1.415 . S
C1222 H1198 0.950 . S
C1222 C1217 1.363 . S
C1222 C1221 1.415 . S
C1223 H1199 0.951 . S
C1223 C1224 1.366 . S
C1223 C1225 1.388 . S
C1224 C1223 1.366 . S
C1224 C1228 1.385 . S
C1225 H1200 0.951 . S
C1225 C1223 1.388 . S
C1225 C1226 1.366 . S
C1226 C1225 1.366 . S
C1226 C1227 1.414 . S
C1226 C1229 1.499 . S
C1227 H1201 0.950 . S
C1227 C1226 1.414 . S
C1227 C1228 1.374 . S
C1228 H1202 0.950 . S
C1228 C1224 1.385 . S
C1228 C1227 1.374 . S
C1229 C1226 1.499 . S
C1229 C1230 1.373 . S
C1229 C1231 1.389 . S
C1230 H1203 0.950 . S
C1230 C1216 1.377 1_556 S
C1230 C1229 1.373 . S
C1231 C1215 1.377 1_556 S
C1231 C1229 1.389 . S
C1231 C1232 1.524 . S
C1232 C1231 1.524 . S
C1232 C1233 1.397 . S
C1232 C1237 1.363 . S
C1233 H1204 0.950 . S
C1233 C1232 1.397 . S
C1233 C1234 1.334 . S
C1234 H1205 0.950 . S
C1234 C1233 1.334 . S
C1234 C1235 1.287 . S
C1235 C1234 1.287 . S
C1235 C1236 1.524 . S
C1235 H1238 0.999 . S
C1236 H1206 0.950 . S
C1236 C1235 1.524 . S
C1236 C1237 1.415 . S
C1237 H1207 0.950 . S
C1237 C1232 1.363 . S
C1237 C1236 1.415 . S
H1238 C1235 0.999 . S
H1239 C1220 0.913 . S
H1240 C1258 0.951 . S
H1241 C1260 0.951 . S
H1242 C1262 0.950 . S
H1243 C1263 0.950 . S
H1244 C1265 0.950 . S
H1245 C1268 0.950 . S
H1246 C1269 0.950 . S
H1247 C1271 0.950 . S
H1248 C1272 0.950 . S
H1249 C1273 0.951 . S
H1250 C1275 0.951 . S
H1251 C1277 0.950 1_455 S
H1252 C1278 0.972 . S
H1253 C1280 0.950 . S
H1254 C1283 0.950 . S
H1255 C1284 0.950 . S
H1256 C1286 0.950 . S
H1257 C1287 0.950 . S
C1258 H1240 0.951 . S
C1258 C1259 1.366 . S
C1258 C1260 1.388 . S
C1259 C1258 1.366 . S
C1259 C1263 1.385 . S
C1260 H1241 0.951 . S
C1260 C1258 1.388 . S
C1260 C1261 1.366 . S
C1261 C1260 1.366 . S
C1261 C1262 1.414 . S
C1261 C1264 1.499 . S
C1262 H1242 0.950 . S
C1262 C1261 1.414 . S
C1262 C1263 1.374 . S
C1263 H1243 0.950 . S
C1263 C1259 1.385 . S
C1263 C1262 1.374 . S
C1264 C1261 1.499 . S
C1264 C1265 1.373 . S
C1264 C1266 1.389 . S
C1265 H1244 0.950 . S
C1265 C1264 1.373 . S
C1265 C1281 1.377 . S
C1266 C1264 1.389 . S
C1266 C1267 1.524 . S
C1266 C1280 1.377 . S
C1267 C1266 1.524 . S
C1267 C1268 1.397 . S
C1267 C1272 1.363 . S
C1268 H1245 0.950 . S
C1268 C1267 1.397 . S
C1268 C1269 1.334 . S
C1269 H1246 0.950 . S
C1269 C1268 1.334 . S
C1269 C1270 1.287 . S
C1270 C1269 1.287 . S
C1270 C1271 1.524 . S
C1270 H1289 0.913 . S
C1271 H1247 0.950 . S
C1271 C1270 1.524 . S
C1271 C1272 1.415 . S
C1272 H1248 0.950 . S
C1272 C1267 1.363 . S
C1272 C1271 1.415 . S
C1273 H1249 0.951 . S
C1273 C1274 1.366 . S
C1273 C1275 1.388 . S
C1274 C1273 1.366 . S
C1274 C1278 1.367 1_655 S
C1275 H1250 0.951 . S
C1275 C1273 1.388 . S
C1275 C1276 1.366 . S
C1276 C1275 1.366 . S
C1276 C1277 1.414 . S
C1276 C1279 1.499 . S
C1277 H1251 0.950 1_655 S
C1277 C1276 1.414 . S
C1277 C1278 1.370 1_655 S
C1278 H1252 0.972 . S
C1278 C1274 1.367 1_455 S
C1278 C1277 1.370 1_455 S
C1279 C1276 1.499 . S
C1279 C1280 1.373 . S
C1279 C1281 1.389 . S
C1280 H1253 0.950 . S
C1280 C1266 1.377 . S
C1280 C1279 1.373 . S
C1281 C1265 1.377 . S
C1281 C1279 1.389 . S
C1281 C1282 1.524 . S
C1282 C1281 1.524 . S
C1282 C1283 1.397 1_655 S
C1282 C1287 1.363 . S
C1283 H1254 0.950 . S
C1283 C1282 1.397 1_455 S
C1283 C1284 1.334 . S
C1284 H1255 0.950 . S
C1284 C1283 1.334 . S
C1284 C1285 1.287 . S
C1285 C1284 1.287 . S
C1285 C1286 1.524 1_455 S
C1285 H1288 0.999 . S
C1286 H1256 0.950 . S
C1286 C1285 1.524 1_655 S
C1286 C1287 1.415 . S
C1287 H1257 0.950 . S
C1287 C1282 1.363 . S
C1287 C1286 1.415 . S
H1288 C1285 0.999 . S
H1289 C1270 0.913 . S
H1290 C1308 0.951 . S
H1291 C1310 0.951 . S
H1292 C1312 0.950 . S
H1293 C1313 0.950 . S
H1294 C1315 0.950 . S
H1295 C1318 0.950 . S
H1296 C1319 0.950 . S
H1297 C1321 0.947 . S
H1298 C1322 0.962 . S
H1299 C1323 0.951 . S
H1300 C1325 0.951 . S
H1301 C1327 0.950 . S
H1302 C1328 0.950 . S
H1303 C1330 0.956 . S
H1304 C1333 0.950 . S
H1305 C1334 0.950 . S
H1306 C1336 0.950 . S
H1307 C1337 0.950 1_545 S
C1308 H1290 0.951 . S
C1308 C1309 1.370 . S
C1308 C1310 1.388 . S
C1309 C1308 1.370 . S
C1309 C1313 1.380 1_565 S
C1310 H1291 0.951 . S
C1310 C1308 1.388 . S
C1310 C1311 1.368 . S
C1311 C1310 1.368 . S
C1311 C1312 1.412 1_565 S
C1311 C1314 1.499 . S
C1312 H1292 0.950 . S
C1312 C1311 1.412 1_545 S
C1312 C1313 1.374 . S
C1313 H1293 0.950 . S
C1313 C1309 1.380 1_545 S
C1313 C1312 1.374 . S
C1314 C1311 1.499 . S
C1314 C1315 1.374 . S
C1314 C1316 1.389 1_565 S
C1315 H1294 0.950 . S
C1315 C1314 1.374 . S
C1315 C1331 1.377 . S
C1316 C1314 1.389 1_545 S
C1316 C1317 1.524 . S
C1316 C1330 1.379 . S
C1317 C1316 1.524 . S
C1317 C1318 1.397 . S
C1317 C1322 1.355 1_545 S
C1318 H1295 0.950 . S
C1318 C1317 1.397 . S
C1318 C1319 1.334 . S
C1319 H1296 0.950 . S
C1319 C1318 1.334 . S
C1319 C1320 1.287 . S
C1320 C1319 1.287 . S
C1320 C1321 1.524 . S
C1320 H1339 0.913 . S
C1321 H1297 0.947 . S
C1321 C1320 1.524 . S
C1321 C1322 1.411 1_545 S
C1322 H1298 0.962 . S
C1322 C1317 1.355 1_565 S
C1322 C1321 1.411 1_565 S
C1323 H1299 0.951 . S
C1323 C1324 1.366 1_545 S
C1323 C1325 1.388 . S
C1324 C1323 1.366 1_565 S
C1324 C1328 1.385 . S
C1325 H1300 0.951 . S
C1325 C1323 1.388 . S
C1325 C1326 1.366 1_545 S
C1326 C1325 1.366 1_565 S
C1326 C1327 1.414 . S
C1326 C1329 1.499 . S
C1327 H1301 0.950 . S
C1327 C1326 1.414 . S
C1327 C1328 1.374 . S
C1328 H1302 0.950 . S
C1328 C1324 1.385 . S
C1328 C1327 1.374 . S
C1329 C1326 1.499 . S
C1329 C1330 1.368 1_565 S
C1329 C1331 1.389 . S
C1330 H1303 0.956 . S
C1330 C1316 1.379 . S
C1330 C1329 1.368 1_545 S
C1331 C1315 1.377 . S
C1331 C1329 1.389 . S
C1331 C1332 1.524 . S
C1332 C1331 1.524 . S
C1332 C1333 1.397 . S
C1332 C1337 1.363 . S
C1333 H1304 0.950 . S
C1333 C1332 1.397 . S
C1333 C1334 1.334 . S
C1334 H1305 0.950 . S
C1334 C1333 1.334 . S
C1334 C1335 1.287 . S
C1335 C1334 1.287 . S
C1335 C1336 1.524 . S
C1335 H1338 0.999 . S
C1336 H1306 0.950 . S
C1336 C1335 1.524 . S
C1336 C1337 1.415 . S
C1337 H1307 0.950 1_565 S
C1337 C1332 1.363 . S
C1337 C1336 1.415 . S
H1338 C1335 0.999 . S
H1339 C1320 0.913 . S
H1340 C1358 0.951 . S
H1341 C1360 0.951 . S
H1342 C1362 0.950 . S
H1343 C1363 0.950 . S
H1344 C1365 0.950 . S
H1345 C1368 0.950 . S
H1346 C1369 0.950 . S
H1347 C1371 0.950 . S
H1348 C1372 0.950 . S
H1349 C1373 0.951 . S
H1350 C1375 0.951 . S
H1351 C1377 0.950 . S
H1352 C1378 0.950 . S
H1353 C1380 0.950 . S
H1354 C1383 0.950 . S
H1355 C1384 0.950 . S
H1356 C1386 0.950 . S
H1357 C1387 0.950 . S
C1358 H1340 0.951 . S
C1358 C1359 1.366 . S
C1358 C1360 1.388 . S
C1359 C1358 1.366 . S
C1359 C1363 1.385 . S
C1360 H1341 0.951 . S
C1360 C1358 1.388 . S
C1360 C1361 1.366 . S
C1361 C1360 1.366 . S
C1361 C1362 1.414 . S
C1361 C1364 1.499 . S
C1362 H1342 0.950 . S
C1362 C1361 1.414 . S
C1362 C1363 1.374 . S
C1363 H1343 0.950 . S
C1363 C1359 1.385 . S
C1363 C1362 1.374 . S
C1364 C1361 1.499 . S
C1364 C1365 1.373 . S
C1364 C1366 1.389 . S
C1365 H1344 0.950 . S
C1365 C1364 1.373 . S
C1365 C1381 1.377 . S
C1366 C1364 1.389 . S
C1366 C1367 1.524 . S
C1366 C1380 1.377 . S
C1367 C1366 1.524 . S
C1367 C1368 1.397 . S
C1367 C1372 1.363 . S
C1368 H1345 0.950 . S
C1368 C1367 1.397 . S
C1368 C1369 1.334 . S
C1369 H1346 0.950 . S
C1369 C1368 1.334 . S
C1369 C1370 1.287 . S
C1370 C1369 1.287 . S
C1370 C1371 1.524 . S
C1370 H1389 0.913 . S
C1371 H1347 0.950 . S
C1371 C1370 1.524 . S
C1371 C1372 1.415 . S
C1372 H1348 0.950 . S
C1372 C1367 1.363 . S
C1372 C1371 1.415 . S
C1373 H1349 0.951 . S
C1373 C1374 1.366 . S
C1373 C1375 1.388 . S
C1374 C1373 1.366 . S
C1374 C1378 1.385 . S
C1375 H1350 0.951 . S
C1375 C1373 1.388 . S
C1375 C1376 1.366 . S
C1376 C1375 1.366 . S
C1376 C1377 1.414 . S
C1376 C1379 1.499 . S
C1377 H1351 0.950 . S
C1377 C1376 1.414 . S
C1377 C1378 1.374 . S
C1378 H1352 0.950 . S
C1378 C1374 1.385 . S
C1378 C1377 1.374 . S
C1379 C1376 1.499 . S
C1379 C1380 1.373 . S
C1379 C1381 1.389 . S
C1380 H1353 0.950 . S
C1380 C1366 1.377 . S
C1380 C1379 1.373 . S
C1381 C1365 1.377 . S
C1381 C1379 1.389 . S
C1381 C1382 1.524 . S
C1382 C1381 1.524 . S
C1382 C1383 1.397 . S
C1382 C1387 1.363 . S
C1383 H1354 0.950 . S
C1383 C1382 1.397 . S
C1383 C1384 1.334 . S
C1384 H1355 0.950 . S
C1384 C1383 1.334 . S
C1384 C1385 1.287 . S
C1385 C1384 1.287 . S
C1385 C1386 1.524 . S
C1385 H1388 0.999 . S
C1386 H1356 0.950 . S
C1386 C1385 1.524 . S
C1386 C1387 1.415 . S
C1387 H1357 0.950 . S
C1387 C1382 1.363 . S
C1387 C1386 1.415 . S
H1388 C1385 0.999 . S
H1389 C1370 0.913 . S
H1390 C1408 0.951 . S
H1391 C1410 0.951 . S
H1392 C1412 0.950 . S
H1393 C1413 0.950 . S
H1394 C1415 0.950 . S
H1395 C1418 0.950 . S
H1396 C1419 0.950 . S
H1397 C1421 0.950 . S
H1398 C1422 0.950 . S
H1399 C1423 0.951 . S
H1400 C1425 0.951 . S
H1401 C1427 0.950 . S
H1402 C1428 0.950 . S
H1403 C1430 0.950 . S
H1404 C1433 0.950 . S
H1405 C1434 0.950 . S
H1406 C1436 0.950 . S
H1407 C1437 0.950 . S
C1408 H1390 0.951 . S
C1408 C1409 1.366 . S
C1408 C1410 1.388 . S
C1409 C1408 1.366 . S
C1409 C1413 1.385 . S
C1410 H1391 0.951 . S
C1410 C1408 1.388 . S
C1410 C1411 1.366 . S
C1411 C1410 1.366 . S
C1411 C1412 1.414 . S
C1411 C1414 1.499 . S
C1412 H1392 0.950 . S
C1412 C1411 1.414 . S
C1412 C1413 1.374 . S
C1413 H1393 0.950 . S
C1413 C1409 1.385 . S
C1413 C1412 1.374 . S
C1414 C1411 1.499 . S
C1414 C1415 1.373 . S
C1414 C1416 1.389 . S
C1415 H1394 0.950 . S
C1415 C1414 1.373 . S
C1415 C1431 1.377 . S
C1416 C1414 1.389 . S
C1416 C1417 1.524 . S
C1416 C1430 1.377 . S
C1417 C1416 1.524 . S
C1417 C1418 1.397 . S
C1417 C1422 1.363 . S
C1418 H1395 0.950 . S
C1418 C1417 1.397 . S
C1418 C1419 1.334 . S
C1419 H1396 0.950 . S
C1419 C1418 1.334 . S
C1419 C1420 1.287 . S
C1420 C1419 1.287 . S
C1420 C1421 1.524 . S
C1420 H1439 0.913 . S
C1421 H1397 0.950 . S
C1421 C1420 1.524 . S
C1421 C1422 1.415 . S
C1422 H1398 0.950 . S
C1422 C1417 1.363 . S
C1422 C1421 1.415 . S
C1423 H1399 0.951 . S
C1423 C1424 1.366 . S
C1423 C1425 1.388 . S
C1424 C1423 1.366 . S
C1424 C1428 1.385 . S
C1425 H1400 0.951 . S
C1425 C1423 1.388 . S
C1425 C1426 1.366 . S
C1426 C1425 1.366 . S
C1426 C1427 1.414 . S
C1426 C1429 1.499 . S
C1427 H1401 0.950 . S
C1427 C1426 1.414 . S
C1427 C1428 1.374 . S
C1428 H1402 0.950 . S
C1428 C1424 1.385 . S
C1428 C1427 1.374 . S
C1429 C1426 1.499 . S
C1429 C1430 1.373 . S
C1429 C1431 1.389 . S
C1430 H1403 0.950 . S
C1430 C1416 1.377 . S
C1430 C1429 1.373 . S
C1431 C1415 1.377 . S
C1431 C1429 1.389 . S
C1431 C1432 1.524 . S
C1432 C1431 1.524 . S
C1432 C1433 1.397 . S
C1432 C1437 1.363 . S
C1433 H1404 0.950 . S
C1433 C1432 1.397 . S
C1433 C1434 1.334 . S
C1434 H1405 0.950 . S
C1434 C1433 1.334 . S
C1434 C1435 1.287 . S
C1435 C1434 1.287 . S
C1435 C1436 1.524 . S
C1435 H1438 0.999 . S
C1436 H1406 0.950 . S
C1436 C1435 1.524 . S
C1436 C1437 1.415 . S
C1437 H1407 0.950 . S
C1437 C1432 1.363 . S
C1437 C1436 1.415 . S
H1438 C1435 0.999 . S
H1439 C1420 0.913 . S
C259 N80 1.889 . S
C274 C121 1.898 . S
C324 C142 1.553 . S
C309 N93 1.539 . S
C374 C176 1.327 . S
C359 N54 1.320 . S
C424 C210 1.535 . S
C409 N67 1.527 . S
C474 C112 1.897 . S
C459 N28 1.890 1_545 S
C509 N41 1.550 . S
C524 C151 1.559 . S
C559 N2 1.320 . S
C574 C185 1.326 . S
C609 N15 1.534 . S
C624 C219 1.532 1_655 S
C674 C133 0.232 . S
C659 N70 0.230 . S
C724 C138 0.689 . S
C709 N83 0.688 1_545 S
C774 C172 0.610 . S
C759 N96 0.609 . S
C809 N57 0.172 . S
C824 C206 0.160 . S
C859 N18 0.217 . S
C874 C104 0.236 . S
C924 C167 0.689 . S
C909 N31 0.688 1_545 S
C974 C201 0.610 . S
C959 N44 0.608 . S
C1009 N5 0.171 . S
C1024 C235 0.157 . S
C1059 N66 1.297 . S
C1074 C117 1.295 . S
C1109 N79 1.747 1_545 S
C1124 C146 1.751 . S
C1174 C180 1.558 . S
C1159 N92 1.553 . S
C1224 C214 1.617 . S
C1209 N53 1.612 . S
C1259 N14 1.302 . S
C1274 C108 1.303 . S
C1324 C155 1.750 . S
C1309 N27 1.746 . S
C1374 C189 1.558 . S
C1359 N40 1.558 . S
C1409 N1 1.609 . S
C1424 C223 1.618 . S
