# Generated by pormake.
# Topology ant, (3,6)-cn, num edge types: 1
# Building blocks:
#     Node 0, Type 0, BuildingBlock: VETTIZ_charged_linker_0, # of connection points: 3
#     Node 1, Type 0, BuildingBlock: VETTIZ_charged_linker_0, # of connection points: 3
#     Node 2, Type 0, BuildingBlock: VETTIZ_charged_linker_0, # of connection points: 3
#     Node 3, Type 0, BuildingBlock: VETTIZ_charged_linker_0, # of connection points: 3
#     Node 4, Type 0, BuildingBlock: VETTIZ_charged_linker_0, # of connection points: 3
#     Node 5, Type 0, BuildingBlock: VETTIZ_charged_linker_0, # of connection points: 3
#     Node 6, Type 0, BuildingBlock: VETTIZ_charged_linker_0, # of connection points: 3
#     Node 7, Type 0, BuildingBlock: VETTIZ_charged_linker_0, # of connection points: 3
#     Node 8, Type 1, BuildingBlock: MIDCAF_clean_sbu_0, # of connection points: 6
#     Node 9, Type 1, BuildingBlock: MIDCAF_clean_sbu_0, # of connection points: 6
#     Node 10, Type 1, BuildingBlock: MIDCAF_clean_sbu_0, # of connection points: 6
#     Node 11, Type 1, BuildingBlock: MIDCAF_clean_sbu_0, # of connection points: 6
#     Edge 12, Type (0, 1), BuildingBlock: TEMPAE_clean_linker_10, # of connection points: 2
#     Edge 13, Type (0, 1), BuildingBlock: TEMPAE_clean_linker_10, # of connection points: 2
#     Edge 14, Type (0, 1), BuildingBlock: TEMPAE_clean_linker_10, # of connection points: 2
#     Edge 15, Type (0, 1), BuildingBlock: TEMPAE_clean_linker_10, # of connection points: 2
#     Edge 16, Type (0, 1), BuildingBlock: TEMPAE_clean_linker_10, # of connection points: 2
#     Edge 17, Type (0, 1), BuildingBlock: TEMPAE_clean_linker_10, # of connection points: 2
#     Edge 18, Type (0, 1), BuildingBlock: TEMPAE_clean_linker_10, # of connection points: 2
#     Edge 19, Type (0, 1), BuildingBlock: TEMPAE_clean_linker_10, # of connection points: 2
#     Edge 20, Type (0, 1), BuildingBlock: TEMPAE_clean_linker_10, # of connection points: 2
#     Edge 21, Type (0, 1), BuildingBlock: TEMPAE_clean_linker_10, # of connection points: 2
#     Edge 22, Type (0, 1), BuildingBlock: TEMPAE_clean_linker_10, # of connection points: 2
#     Edge 23, Type (0, 1), BuildingBlock: TEMPAE_clean_linker_10, # of connection points: 2
#     Edge 24, Type (0, 1), BuildingBlock: TEMPAE_clean_linker_10, # of connection points: 2
#     Edge 25, Type (0, 1), BuildingBlock: TEMPAE_clean_linker_10, # of connection points: 2
#     Edge 26, Type (0, 1), BuildingBlock: TEMPAE_clean_linker_10, # of connection points: 2
#     Edge 27, Type (0, 1), BuildingBlock: TEMPAE_clean_linker_10, # of connection points: 2
#     Edge 28, Type (0, 1), BuildingBlock: TEMPAE_clean_linker_10, # of connection points: 2
#     Edge 29, Type (0, 1), BuildingBlock: TEMPAE_clean_linker_10, # of connection points: 2
#     Edge 30, Type (0, 1), BuildingBlock: TEMPAE_clean_linker_10, # of connection points: 2
#     Edge 31, Type (0, 1), BuildingBlock: TEMPAE_clean_linker_10, # of connection points: 2
#     Edge 32, Type (0, 1), BuildingBlock: TEMPAE_clean_linker_10, # of connection points: 2
#     Edge 33, Type (0, 1), BuildingBlock: TEMPAE_clean_linker_10, # of connection points: 2
#     Edge 34, Type (0, 1), BuildingBlock: TEMPAE_clean_linker_10, # of connection points: 2
#     Edge 35, Type (0, 1), BuildingBlock: TEMPAE_clean_linker_10, # of connection points: 2
# Relax obj value: 0.106
# Max RMSD: 0.160
# Mean RMSD: 0.107
data_MOF--net-ant--node1-MIDCAF_clean_sbu_0--node2-VETTIZ_charged_linker_0--edge1-TEMPAE_clean_linker_10
_symmetry_space_group_name_H-M    P1
_symmetry_Int_Tables_number       1
_symmetry_cell_setting            triclinic
loop_
_symmetry_equiv_pos_as_xyz
'x, y, z'
_cell_length_a     34.573047
_cell_length_b     34.232496
_cell_length_c     94.417302
_cell_angle_alpha  90.115171
_cell_angle_beta   93.863003
_cell_angle_gamma 89.970689
loop_
_atom_site_label
_atom_site_type_symbol
_atom_site_fract_x
_atom_site_fract_y
_atom_site_fract_z
_atom_type_partial_charge
C0 C 0.23992 0.1452 0.09845 0.0
C1 C 0.24974 0.10714 0.09416 0.0
C2 C 0.25135 0.09896 0.0796 0.0
C3 C 0.22974 0.16431 0.07371 0.0
C4 C 0.23086 0.1737 0.08797 0.0
C5 C 0.22154 0.21643 0.09015 0.0
H6 H 0.16712 0.3906 0.05953 0.0
C7 C 0.21612 0.19857 0.06543 0.0
C8 C 0.21205 0.22986 0.07488 0.0
H9 H 0.19891 0.36947 0.1039 0.0
H10 H 0.208 0.30064 0.09895 0.0
H11 H 0.23334 0.33814 0.04686 0.0
H12 H 0.11462 0.31712 0.05526 0.0
H13 H 0.12269 0.2892 0.04016 0.0
H14 H 0.1274 0.34169 0.03949 0.0
H15 H 0.19284 0.3599 0.03689 0.0
H16 H 0.21161 0.31291 0.03215 0.0
C17 C 0.25834 0.23649 0.09693 0.0
C18 C 0.18608 0.2194 0.0992 0.0
C19 C 0.17569 0.18062 0.01309 0.0
C20 C 0.15929 0.20596 0.00266 0.0
C21 C 0.15378 0.24558 0.00619 0.0
C22 C 0.16361 0.25945 0.01992 0.0
C23 C 0.17931 0.23357 0.03031 0.0
C24 C 0.18541 0.19501 0.02677 0.0
C25 C 0.2028 0.17185 0.0391 0.0
C26 C 0.2047 0.20259 0.05079 0.0
C27 C 0.19105 0.23859 0.04555 0.0
C28 C 0.24374 0.15795 0.03544 0.0
C29 C 0.17422 0.13845 0.04205 0.0
C30 C 0.17655 0.37135 0.06818 0.0
C31 C 0.18276 0.38571 0.08208 0.0
C32 C 0.19387 0.35921 0.09307 0.0
C33 C 0.19957 0.31933 0.09016 0.0
C34 C 0.1942 0.30573 0.0761 0.0
C35 C 0.18243 0.3317 0.06545 0.0
C36 C 0.17687 0.31246 0.05119 0.0
C37 C 0.18892 0.27099 0.05483 0.0
C38 C 0.19906 0.26684 0.06945 0.0
C39 C 0.20483 0.33184 0.04113 0.0
C40 C 0.1333 0.31533 0.04613 0.0
H41 H 0.24231 0.11867 0.05853 0.0
H42 H 0.23895 0.15231 0.1096 0.0
H43 H 0.163 0.19876 0.0952 0.0
H44 H 0.17274 0.24868 0.09883 0.0
H45 H 0.19419 0.21197 0.11046 0.0
H46 H 0.2848 0.22485 0.09232 0.0
H47 H 0.26135 0.23131 0.10857 0.0
H48 H 0.2589 0.2682 0.09493 0.0
H49 H 0.18041 0.15007 0.01075 0.0
H50 H 0.1422 0.26607 -0.00173 0.0
H51 H 0.1586 0.28984 0.02189 0.0
H52 H 0.25523 0.1754 0.02672 0.0
H53 H 0.24335 0.1269 0.032 0.0
H54 H 0.26558 0.16166 0.04449 0.0
H55 H 0.14401 0.14976 0.04188 0.0
H56 H 0.17979 0.12482 0.05254 0.0
H57 H 0.17505 0.11521 0.03385 0.0
H58 H 0.25852 0.06988 0.07604 0.0
C59 C 0.24146 0.12723 0.06941 0.0
C60 C 0.19365 0.82087 0.34109 0.0
C61 C 0.22895 0.83152 0.33543 0.0
C62 C 0.22877 0.84167 0.32098 0.0
C63 C 0.16008 0.82845 0.31779 0.0
C64 C 0.15939 0.82011 0.33209 0.0
C65 C 0.11877 0.81068 0.3361 0.0
H66 H 0.92824 0.78827 0.31337 0.0
C67 C 0.12074 0.82319 0.31106 0.0
C68 C 0.09588 0.8134 0.32173 0.0
H69 H 0.97694 0.77707 0.35657 0.0
H70 H 0.04101 0.79128 0.34876 0.0
H71 H 0.9758 0.8613 0.30434 0.0
H72 H 0.98972 0.73746 0.30072 0.0
H73 H 0.01084 0.7561 0.28581 0.0
H74 H 0.95996 0.76449 0.28794 0.0
H75 H 0.94607 0.8309 0.29253 0.0
H76 H 0.99031 0.85237 0.28713 0.0
C77 C 0.10635 0.84228 0.34658 0.0
C78 C 0.11855 0.76887 0.3422 0.0
C79 C 0.1002 0.82646 0.25709 0.0
C80 C 0.06776 0.81805 0.2477 0.0
C81 C 0.03167 0.81156 0.25343 0.0
C82 C 0.02815 0.81231 0.26809 0.0
C83 C 0.06111 0.81883 0.27731 0.0
C84 C 0.09629 0.82619 0.27179 0.0
C85 C 0.12834 0.83127 0.28327 0.0
C86 C 0.1066 0.82461 0.29657 0.0
C87 C 0.06736 0.81757 0.29295 0.0
C88 C 0.14399 0.87362 0.28245 0.0
C89 C 0.15898 0.79904 0.28121 0.0
C90 C 0.9525 0.78825 0.32125 0.0
C91 C 0.94714 0.7812 0.33561 0.0
C92 C 0.97995 0.78268 0.34541 0.0
C93 C 0.0172 0.79086 0.34086 0.0
C94 C 0.02176 0.79759 0.32634 0.0
C95 C 0.98948 0.7958 0.3169 0.0
C96 C -0.00118 0.80172 0.30183 0.0
C97 C 0.04188 0.80909 0.30365 0.0
C98 C 0.05571 0.80673 0.318 0.0
C99 C 0.97652 0.83828 0.29602 0.0
C100 C 0.98921 0.76324 0.29355 0.0
H101 H 0.19687 0.84782 0.30127 0.0
H102 H 0.19281 0.8133 0.3522 0.0
H103 H 0.1345 0.74857 0.33546 0.0
H104 H 0.08907 0.75678 0.34251 0.0
H105 H 0.1328 0.76809 0.3531 0.0
H106 H 0.11474 0.87183 0.34299 0.0
H107 H 0.12056 0.83746 0.35734 0.0
H108 H 0.07472 0.84342 0.34738 0.0
H109 H 0.12829 0.83233 0.25314 0.0
H110 H 0.0062 0.8044 0.24663 0.0
H111 H -0.00011 0.80682 0.27166 0.0
H112 H 0.12189 0.89375 0.2774 0.0
H113 H 0.16993 0.87497 0.27614 0.0
H114 H 0.15118 0.88642 0.29309 0.0
H115 H 0.1446 0.77054 0.2787 0.0
H116 H 0.1783 0.79364 0.29076 0.0
H117 H 0.17705 0.80637 0.27229 0.0
H118 H 0.25544 0.84949 0.31629 0.0
C119 C 0.1947 0.84028 0.31219 0.0
C120 C 0.72599 0.6215 0.59846 0.0
C121 C 0.72617 0.58182 0.59453 0.0
C122 C 0.71962 0.57138 0.58017 0.0
C123 C 0.70992 0.63906 0.5738 0.0
C124 C 0.71788 0.64977 0.58783 0.0
C125 C 0.71544 0.6935 0.58975 0.0
H126 H 0.67524 0.87117 0.55982 0.0
C127 C 0.7006 0.67445 0.56543 0.0
C128 C 0.70423 0.70678 0.5746 0.0
H129 H 0.71112 0.84678 0.60367 0.0
H130 H 0.7147 0.77786 0.59833 0.0
H131 H 0.73538 0.81694 0.54653 0.0
H132 H 0.61665 0.79734 0.55552 0.0
H133 H 0.623 0.77971 0.53832 0.0
H134 H 0.63118 0.83061 0.54219 0.0
H135 H 0.69593 0.83457 0.53497 0.0
H136 H 0.71588 0.78621 0.53298 0.0
C137 C 0.75601 0.70851 0.59511 0.0
C138 C 0.68324 0.70225 0.59992 0.0
C139 C 0.65355 0.66043 0.51344 0.0
C140 C 0.64419 0.68773 0.50261 0.0
C141 C 0.64821 0.72795 0.50587 0.0
C142 C 0.65983 0.74064 0.5196 0.0
C143 C 0.66831 0.71301 0.5303 0.0
C144 C 0.66599 0.67371 0.52706 0.0
C145 C 0.67916 0.64863 0.53952 0.0
C146 C 0.68825 0.67939 0.5509 0.0
C147 C 0.68133 0.71695 0.54548 0.0
C148 C 0.71601 0.62604 0.53566 0.0
C149 C 0.64466 0.62239 0.5431 0.0
C150 C 0.68424 0.85112 0.56827 0.0
C151 C 0.69279 0.86462 0.58219 0.0
C152 C 0.70381 0.83721 0.59289 0.0
C153 C 0.70614 0.79716 0.58975 0.0
C154 C 0.69734 0.78422 0.57577 0.0
C155 C 0.68672 0.81117 0.56532 0.0
C156 C 0.67822 0.79251 0.55106 0.0
C157 C 0.68546 0.74988 0.5546 0.0
C158 C 0.69667 0.74496 0.5691 0.0
C159 C 0.70755 0.8084 0.54075 0.0
C160 C 0.63512 0.80047 0.54638 0.0
H161 H 0.70621 0.58959 0.55913 0.0
H162 H 0.73092 0.63009 0.60947 0.0
H163 H 0.65766 0.68312 0.59744 0.0
H164 H 0.67207 0.73236 0.59898 0.0
H165 H 0.6937 0.6969 0.61113 0.0
H166 H 0.7791 0.69288 0.58969 0.0
H167 H 0.76131 0.70368 0.60671 0.0
H168 H 0.76037 0.73971 0.59279 0.0
H169 H 0.65129 0.62934 0.51146 0.0
H170 H 0.64304 0.74996 0.49775 0.0
H171 H 0.66196 0.77156 0.52131 0.0
H172 H 0.73094 0.64079 0.52707 0.0
H173 H 0.70878 0.59595 0.53195 0.0
H174 H 0.73825 0.62458 0.54466 0.0
H175 H 0.61717 0.63941 0.54245 0.0
H176 H 0.64741 0.61065 0.55399 0.0
H177 H 0.64104 0.59759 0.53552 0.0
H178 H 0.71974 0.54091 0.57701 0.0
C179 C 0.71162 0.59969 0.56981 0.0
C180 C 0.69444 0.30723 0.84239 0.0
C181 C 0.73008 0.31348 0.8363 0.0
C182 C 0.73046 0.31806 0.82151 0.0
C183 C 0.66106 0.30929 0.81891 0.0
C184 C 0.66009 0.30593 0.83347 0.0
C185 C 0.61908 0.30096 0.83784 0.0
H186 H 0.42687 0.28825 0.81662 0.0
C187 C 0.62123 0.30621 0.81248 0.0
C188 C 0.59603 0.30222 0.82348 0.0
H189 H 0.47758 0.27895 0.85958 0.0
H190 H 0.54157 0.28983 0.85117 0.0
H191 H 0.47441 0.35716 0.8067 0.0
H192 H 0.49071 0.23316 0.80346 0.0
H193 H 0.49909 0.25324 0.78687 0.0
H194 H 0.45237 0.25933 0.79385 0.0
H195 H 0.44843 0.32873 0.79322 0.0
H196 H 0.49526 0.3498 0.79046 0.0
C197 C 0.60941 0.33581 0.84741 0.0
C198 C 0.6161 0.26079 0.84513 0.0
C199 C 0.59871 0.29527 0.75884 0.0
C200 C 0.56494 0.29397 0.74957 0.0
C201 C 0.52871 0.29941 0.75537 0.0
C202 C 0.52606 0.30358 0.77004 0.0
C203 C 0.55994 0.30276 0.77913 0.0
C204 C 0.59552 0.30038 0.77343 0.0
C205 C 0.62851 0.30412 0.78459 0.0
C206 C 0.60666 0.30589 0.79805 0.0
C207 C 0.56666 0.30439 0.79475 0.0
C208 C 0.65034 0.3428 0.78189 0.0
C209 C 0.65392 0.26695 0.78406 0.0
C210 C 0.45164 0.288 0.82428 0.0
C211 C 0.44701 0.28217 0.83876 0.0
C212 C 0.48023 0.28342 0.84834 0.0
C213 C 0.51739 0.28951 0.84342 0.0
C214 C 0.52138 0.29428 0.82877 0.0
C215 C 0.48857 0.29342 0.81956 0.0
C216 C 0.4974 0.29726 0.80433 0.0
C217 C 0.54098 0.30103 0.80575 0.0
C218 C 0.5553 0.29948 0.82007 0.0
C219 C 0.47775 0.33497 0.79824 0.0
C220 C 0.48412 0.25903 0.79659 0.0
H221 H 0.69886 0.31878 0.80165 0.0
H222 H 0.69342 0.30362 0.85375 0.0
H223 H 0.63149 0.23803 0.83923 0.0
H224 H 0.58598 0.25039 0.84536 0.0
H225 H 0.62941 0.26175 0.85617 0.0
H226 H 0.61961 0.36366 0.84289 0.0
H227 H 0.6238 0.33251 0.85822 0.0
H228 H 0.57801 0.33954 0.84834 0.0
H229 H 0.62721 0.29144 0.75498 0.0
H230 H 0.50218 0.30024 0.74861 0.0
H231 H 0.49758 0.30674 0.77375 0.0
H232 H 0.63286 0.36296 0.77479 0.0
H233 H 0.6779 0.33719 0.77683 0.0
H234 H 0.65661 0.35977 0.7918 0.0
H235 H 0.63543 0.24032 0.78349 0.0
H236 H 0.67397 0.26335 0.79356 0.0
H237 H 0.67127 0.26718 0.77458 0.0
H238 H 0.75758 0.32224 0.81658 0.0
C239 C 0.69631 0.31588 0.81282 0.0
C240 C 0.04879 0.82477 0.90615 0.0
C241 C 0.05664 0.85814 0.91466 0.0
C242 C 0.06527 0.85335 0.92934 0.0
C243 C 0.0596 0.78313 0.92687 0.0
C244 C 0.05006 0.78758 0.91251 0.0
C245 C 0.04123 0.74879 0.90532 0.0
H246 H 0.03814 0.5503 0.91087 0.0
C247 C 0.05983 0.741 0.9302 0.0
C248 C 0.04889 0.72048 0.91763 0.0
H249 H 0.00454 0.61815 0.87362 0.0
H250 H 0.01815 0.67839 0.8869 0.0
H251 H 0.11114 0.5971 0.92025 0.0
H252 H 0.9944 0.6047 0.93302 0.0
H253 H 0.02545 0.60779 0.94849 0.0
H254 H 0.02622 0.56455 0.9376 0.0
H255 H 0.0928 0.56352 0.93272 0.0
H256 H 0.11531 0.60908 0.93835 0.0
C257 C 0.06978 0.74274 0.8936 0.0
C258 C -0.00188 0.7488 0.89976 0.0
C259 C 0.10205 0.69609 0.98024 0.0
C260 C 0.1086 0.659 0.98644 0.0
C261 C 0.10208 0.62555 0.97786 0.0
C262 C 0.08914 0.62898 0.96351 0.0
C263 C 0.08274 0.66626 0.95754 0.0
C264 C 0.08963 0.69899 0.96586 0.0
C265 C 0.08279 0.73624 0.95762 0.0
C266 C 0.07022 0.72046 0.94297 0.0
C267 C 0.06989 0.67957 0.94305 0.0
C268 C 0.1219 0.75845 0.95773 0.0
C269 C 0.0497 0.75903 0.96425 0.0
C270 C 0.03345 0.57821 0.90562 0.0
C271 C 0.02037 0.57986 0.89128 0.0
C272 C 0.0145 0.61649 0.88472 0.0
C273 C 0.02251 0.65124 0.89244 0.0
C274 C 0.03618 0.64903 0.90685 0.0
C275 C 0.04093 0.61275 0.91315 0.0
C276 C 0.05528 0.6151 0.92845 0.0
C277 C 0.0582 0.65878 0.93049 0.0
C278 C 0.04734 0.67887 0.91784 0.0
C279 C 0.09558 0.595 0.93016 0.0
C280 C 0.02403 0.59692 0.93746 0.0
H281 H 0.07385 0.81469 0.94668 0.0
H282 H 0.04141 0.82764 0.89487 0.0
H283 H 0.97993 0.76394 0.90736 0.0
H284 H 0.98586 0.71912 0.89863 0.0
H285 H 0.99413 0.76414 0.88941 0.0
H286 H 0.09984 0.75013 0.89767 0.0
H287 H 0.06207 0.76177 0.88432 0.0
H288 H 0.07084 0.71223 0.88989 0.0
H289 H 0.10599 0.72257 0.98646 0.0
H290 H 0.10729 0.59663 0.9822 0.0
H291 H 0.0847 0.60237 0.95761 0.0
H292 H 0.14666 0.73771 0.95753 0.0
H293 H 0.12661 0.77675 0.96742 0.0
H294 H 0.12446 0.77694 0.94827 0.0
H295 H 0.02784 0.73865 0.96822 0.0
H296 H 0.03308 0.77777 0.9565 0.0
H297 H 0.06105 0.7772 0.97336 0.0
H298 H 0.07153 0.87851 0.93609 0.0
C299 C 0.06683 0.81619 0.93546 0.0
C300 C 0.7653 0.79206 0.1522 0.0
C301 C 0.80108 0.78158 0.15928 0.0
C302 C 0.80256 0.77382 0.17393 0.0
C303 C 0.73436 0.78882 0.17453 0.0
C304 C 0.73213 0.79508 0.16004 0.0
C305 C 0.69105 0.80433 0.15447 0.0
H306 H 0.50455 0.84212 0.17006 0.0
C307 C 0.69605 0.79673 0.17986 0.0
C308 C 0.67023 0.80606 0.16823 0.0
H309 H 0.54693 0.82626 0.12844 0.0
H310 H 0.61246 0.81793 0.13902 0.0
H311 H 0.55255 0.77054 0.18463 0.0
H312 H 0.57346 0.89435 0.18318 0.0
H313 H 0.59429 0.87829 0.19963 0.0
H314 H 0.54258 0.87362 0.1957 0.0
H315 H 0.52285 0.80668 0.19247 0.0
H316 H 0.56537 0.78765 0.20194 0.0
C317 C 0.67637 0.77012 0.1448 0.0
C318 C 0.69077 0.84421 0.14686 0.0
C319 C 0.68058 0.78864 0.23293 0.0
C320 C 0.6507 0.79955 0.24159 0.0
C321 C 0.61725 0.81759 0.23506 0.0
C322 C 0.61277 0.82248 0.22029 0.0
C323 C 0.64224 0.80988 0.21182 0.0
C324 C 0.67599 0.79473 0.21824 0.0
C325 C 0.70591 0.78698 0.20775 0.0
C326 C 0.68386 0.79831 0.1939 0.0
C327 C 0.6463 0.81075 0.19631 0.0
C328 C 0.71553 0.74275 0.20815 0.0
C329 C 0.74108 0.81426 0.21147 0.0
C330 C 0.52801 0.83753 0.16319 0.0
C331 C 0.52059 0.83516 0.1484 0.0
C332 C 0.5519 0.82815 0.13988 0.0
C333 C 0.58982 0.82307 0.14604 0.0
C334 C 0.59644 0.82424 0.16091 0.0
C335 C 0.56566 0.83155 0.16918 0.0
C336 C 0.57715 0.82987 0.1848 0.0
C337 C 0.61963 0.81917 0.18462 0.0
C338 C 0.63119 0.81639 0.17062 0.0
C339 C 0.55325 0.79716 0.19143 0.0
C340 C 0.57143 0.87097 0.19127 0.0
H341 H 0.77294 0.77137 0.19269 0.0
H342 H 0.76326 0.79749 0.14087 0.0
H343 H 0.70699 0.86628 0.15357 0.0
H344 H 0.66127 0.85598 0.14469 0.0
H345 H 0.70475 0.84197 0.13663 0.0
H346 H 0.68855 0.74179 0.14876 0.0
H347 H 0.68507 0.77409 0.13378 0.0
H348 H 0.64464 0.76627 0.1446 0.0
H349 H 0.70687 0.77492 0.23735 0.0
H350 H 0.59426 0.82797 0.24132 0.0
H351 H 0.58638 0.8357 0.21602 0.0
H352 H 0.6888 0.72517 0.20918 0.0
H353 H 0.73609 0.73563 0.21733 0.0
H354 H 0.72766 0.73216 0.19832 0.0
H355 H 0.73281 0.84013 0.21775 0.0
H356 H 0.75312 0.82691 0.20192 0.0
H357 H 0.76449 0.79873 0.21782 0.0
H358 H 0.8297 0.76583 0.1796 0.0
C359 C 0.76958 0.77741 0.18155 0.0
C360 C 0.55482 0.33917 0.40882 0.0
C361 C 0.56487 0.37177 0.41755 0.0
C362 C 0.57542 0.3654 0.43204 0.0
C363 C 0.56428 0.29595 0.42918 0.0
C364 C 0.55457 0.30152 0.41488 0.0
C365 C 0.54429 0.26325 0.40746 0.0
H366 H 0.51031 0.0674 0.41428 0.0
C367 C 0.56016 0.25408 0.43244 0.0
C368 C 0.54805 0.23442 0.4198 0.0
H369 H 0.50864 0.13201 0.3751 0.0
H370 H 0.52472 0.19192 0.38828 0.0
H371 H 0.58702 0.10027 0.42554 0.0
H372 H 0.47108 0.13351 0.43411 0.0
H373 H 0.49867 0.13283 0.45044 0.0
H374 H 0.49338 0.08859 0.44011 0.0
H375 H 0.5599 0.07386 0.43792 0.0
H376 H 0.58989 0.11515 0.44334 0.0
C377 C 0.57453 0.25532 0.39647 0.0
C378 C 0.50229 0.26593 0.40087 0.0
C379 C 0.58941 0.20777 0.48321 0.0
C380 C 0.58695 0.17114 0.48985 0.0
C381 C 0.57389 0.13875 0.48162 0.0
C382 C 0.56338 0.1428 0.46709 0.0
C383 C 0.566 0.17963 0.46062 0.0
C384 C 0.57876 0.2113 0.46869 0.0
C385 C 0.5792 0.24825 0.46012 0.0
C386 C 0.56535 0.23341 0.44547 0.0
C387 C 0.55766 0.19333 0.44585 0.0
C388 C 0.6216 0.26315 0.46051 0.0
C389 C 0.54996 0.27723 0.46621 0.0
C390 C 0.51245 0.09466 0.40856 0.0
C391 C 0.5072 0.09542 0.39374 0.0
C392 C 0.51196 0.13106 0.38658 0.0
C393 C 0.52152 0.16561 0.39425 0.0
C394 C 0.52736 0.16414 0.40917 0.0
C395 C 0.52306 0.12876 0.41597 0.0
C396 C 0.53397 0.13084 0.43156 0.0
C397 C 0.54478 0.17341 0.43323 0.0
C398 C 0.54044 0.1934 0.42018 0.0
C399 C 0.56931 0.10353 0.43489 0.0
C400 C 0.49763 0.1207 0.43958 0.0
H401 H 0.58336 0.32551 0.44896 0.0
H402 H 0.54665 0.34299 0.39764 0.0
H403 H 0.48275 0.27753 0.40878 0.0
H404 H 0.49041 0.2373 0.39745 0.0
H405 H 0.50052 0.28581 0.39156 0.0
H406 H 0.60413 0.26337 0.40086 0.0
H407 H 0.56805 0.27274 0.38667 0.0
H408 H 0.57636 0.22418 0.39358 0.0
H409 H 0.59971 0.23324 0.48915 0.0
H410 H 0.57121 0.11033 0.48648 0.0
H411 H 0.55347 0.11703 0.46147 0.0
H412 H 0.64228 0.23827 0.46026 0.0
H413 H 0.62915 0.28016 0.47034 0.0
H414 H 0.62761 0.2811 0.45121 0.0
H415 H 0.52601 0.26151 0.47107 0.0
H416 H 0.53512 0.29578 0.45795 0.0
H417 H 0.56433 0.29617 0.47456 0.0
H418 H 0.58418 0.38957 0.43895 0.0
C419 C 0.57513 0.32796 0.43785 0.0
C420 C 0.27965 0.2729 0.65782 0.0
C421 C 0.31662 0.26926 0.66513 0.0
C422 C 0.31965 0.27493 0.67997 0.0
C423 C 0.25069 0.28578 0.68014 0.0
C424 C 0.24711 0.28148 0.66556 0.0
C425 C 0.20555 0.28734 0.65981 0.0
H426 H 0.01883 0.32909 0.67427 0.0
C427 C 0.21235 0.29493 0.68519 0.0
C428 C 0.18549 0.29673 0.67336 0.0
H429 H 0.06032 0.30013 0.63341 0.0
H430 H 0.12609 0.29525 0.64405 0.0
H431 H 0.0677 0.26331 0.69097 0.0
H432 H 0.08759 0.38609 0.68497 0.0
H433 H 0.10506 0.37521 0.70241 0.0
H434 H 0.05419 0.36861 0.69725 0.0
H435 H 0.03939 0.30079 0.69868 0.0
H436 H 0.0837 0.28323 0.70748 0.0
C437 C 0.19095 0.24855 0.65296 0.0
C438 C 0.20429 0.32217 0.6494 0.0
C439 C 0.19716 0.30097 0.7383 0.0
C440 C 0.16574 0.30978 0.7465 0.0
C441 C 0.13109 0.32377 0.73945 0.0
C442 C 0.12693 0.32606 0.72459 0.0
C443 C 0.15784 0.31474 0.71657 0.0
C444 C 0.19267 0.3041 0.72348 0.0
C445 C 0.22337 0.29632 0.7133 0.0
C446 C 0.2004 0.30122 0.69911 0.0
C447 C 0.16197 0.31151 0.70108 0.0
C448 C 0.23779 0.25377 0.71559 0.0
C449 C 0.2553 0.32803 0.71574 0.0
C450 C 0.04212 0.32255 0.66752 0.0
C451 C 0.03437 0.31552 0.65295 0.0
C452 C 0.06553 0.30576 0.64467 0.0
C453 C 0.10366 0.30287 0.65088 0.0
C454 C 0.11069 0.30925 0.66557 0.0
C455 C 0.07998 0.31896 0.67357 0.0
C456 C 0.09173 0.32262 0.6891 0.0
C457 C 0.13463 0.31378 0.68921 0.0
C458 C 0.14599 0.30611 0.6754 0.0
C459 C 0.06948 0.29114 0.69709 0.0
C460 C 0.08409 0.36518 0.6938 0.0
H461 H 0.29184 0.28607 0.69868 0.0
H462 H 0.27603 0.26897 0.64643 0.0
H463 H 0.22197 0.34686 0.65397 0.0
H464 H 0.17482 0.33393 0.64719 0.0
H465 H 0.21613 0.31373 0.63918 0.0
H466 H 0.20118 0.22323 0.65957 0.0
H467 H 0.20191 0.24476 0.64225 0.0
H468 H 0.15907 0.24627 0.65209 0.0
H469 H 0.22439 0.29046 0.74318 0.0
H470 H 0.10677 0.33241 0.74539 0.0
H471 H 0.09951 0.33592 0.71991 0.0
H472 H 0.21291 0.23376 0.71687 0.0
H473 H 0.25768 0.25148 0.72529 0.0
H474 H 0.25271 0.24202 0.70654 0.0
H475 H 0.24479 0.35399 0.72148 0.0
H476 H 0.26474 0.33997 0.70563 0.0
H477 H 0.28095 0.31649 0.72212 0.0
H478 H 0.34749 0.27398 0.68594 0.0
C479 C 0.28714 0.28274 0.68744 0.0
Zn480 Zn 0.18723 0.71325 0.13782 0.0
Zn481 Zn 0.11752 0.79842 0.09992 0.0
Zn482 Zn 0.15483 0.75709 0.11814 0.0
C483 C 0.13379 0.73102 0.08574 0.0
C484 C 0.18135 0.84277 0.10867 0.0
O485 O 0.12078 0.75942 0.13727 0.0
O486 O 0.15152 0.72073 0.15307 0.0
C487 C 0.17524 0.66428 0.11472 0.0
O488 O 0.14635 0.72101 0.0984 0.0
O489 O 0.12217 0.76541 0.08332 0.0
O490 O 0.14933 0.84573 0.10153 0.0
O491 O 0.19034 0.81068 0.11524 0.0
O492 O 0.18736 0.66327 0.12762 0.0
O493 O 0.16239 0.69665 0.10916 0.0
O494 O 0.2131 0.78394 0.12343 0.0
O495 O 0.23693 0.74203 0.13949 0.0
C496 C 0.24125 0.77215 0.13206 0.0
O497 O 0.09594 0.77147 0.12569 0.0
O498 O 0.0653 0.79868 0.10694 0.0
C499 C 0.12443 0.74438 0.14982 0.0
C500 C 0.0646 0.7852 0.11932 0.0
Zn501 Zn 0.54998 0.69013 0.35188 0.0
Zn502 Zn 0.62959 0.78034 0.38663 0.0
Zn503 Zn 0.58629 0.73521 0.37089 0.0
C504 C 0.56118 0.82143 0.38176 0.0
C505 C 0.67449 0.76833 0.36529 0.0
O506 O 0.57815 0.67593 0.38082 0.0
O507 O 0.54801 0.64226 0.36336 0.0
C508 C 0.50024 0.75351 0.35757 0.0
O509 O 0.55217 0.79034 0.37448 0.0
O510 O 0.59389 0.82391 0.38846 0.0
O511 O 0.67603 0.78951 0.37622 0.0
O512 O 0.64401 0.74753 0.36198 0.0
O513 O 0.50264 0.72302 0.35011 0.0
O514 O 0.52905 0.7639 0.36614 0.0
O515 O 0.61775 0.7325 0.35123 0.0
O516 O 0.58575 0.69223 0.33634 0.0
C517 C 0.61368 0.71537 0.33904 0.0
O518 O 0.5976 0.70138 0.39069 0.0
O519 O 0.63584 0.74358 0.40252 0.0
C520 C 0.56272 0.64378 0.37595 0.0
C521 C 0.61887 0.71094 0.40189 0.0
Zn522 Zn 0.6314 0.27681 0.60567 0.0
Zn523 Zn 0.70552 0.18514 0.64225 0.0
Zn524 Zn 0.66945 0.23023 0.62369 0.0
C525 C 0.75635 0.24648 0.63805 0.0
C526 C 0.69349 0.13974 0.6181 0.0
O527 O 0.61035 0.24216 0.6311 0.0
O528 O 0.58021 0.27681 0.61389 0.0
C529 C 0.6963 0.3178 0.61604 0.0
O530 O 0.7273 0.25774 0.62974 0.0
O531 O 0.75404 0.21519 0.64499 0.0
O532 O 0.70746 0.1373 0.63076 0.0
O533 O 0.67836 0.17213 0.61343 0.0
O534 O 0.6652 0.3226 0.60848 0.0
O535 O 0.704 0.28476 0.62213 0.0
O536 O 0.66218 0.19819 0.60323 0.0
O537 O 0.63776 0.24423 0.58877 0.0
C538 C 0.6506 0.21004 0.59071 0.0
O539 O 0.63426 0.22668 0.64245 0.0
O540 O 0.66877 0.18847 0.6573 0.0
C541 C 0.57958 0.25921 0.62559 0.0
C542 C 0.63945 0.20985 0.65464 0.0
Zn543 Zn 0.05632 0.18125 0.84976 0.0
Zn544 Zn 0.13326 0.29202 0.89238 0.0
Zn545 Zn 0.08675 0.22263 0.87116 0.0
C546 C 0.11154 0.20427 0.89947 0.0
C547 C 0.05497 0.31072 0.88063 0.0
O548 O 0.12455 0.22672 0.85364 0.0
O549 O 0.09745 0.19033 0.83637 0.0
C550 C 0.06472 0.12939 0.87255 0.0
O551 O 0.09387 0.18453 0.8896 0.0
O552 O 0.12005 0.23873 0.89666 0.0
O553 O 0.08601 0.32181 0.88732 0.0
O554 O 0.05118 0.27639 0.87487 0.0
O555 O 0.05365 0.13037 0.85954 0.0
O556 O 0.0778 0.16075 0.87887 0.0
O557 O 0.02982 0.24964 0.86581 0.0
O558 O 0.00768 0.21279 0.84781 0.0
C559 C 0.0028 0.24069 0.85631 0.0
O560 O 0.14663 0.24263 0.86619 0.0
O561 O 0.17452 0.29171 0.87897 0.0
C562 C 0.12427 0.21296 0.84097 0.0
C563 C 0.17521 0.26646 0.86918 0.0
C564 C 0.15992 0.44134 0.09682 0.0
C565 C 0.17839 0.42827 0.08492 0.0
C566 C 0.15662 0.48144 0.09976 0.0
C567 C 0.17253 0.50921 0.09067 0.0
C568 C 0.19019 0.49623 0.07841 0.0
C569 C 0.19286 0.45599 0.07568 0.0
C570 C 0.13715 0.49405 0.11286 0.0
C571 C 0.20736 0.52479 0.06841 0.0
C572 C 0.14605 0.61599 0.09689 0.0
C573 C 0.17654 0.62746 0.10653 0.0
C574 C 0.14507 0.57807 0.091 0.0
C575 C 0.17503 0.55113 0.09503 0.0
C576 C 0.20678 0.5635 0.10417 0.0
C577 C 0.20706 0.60135 0.10981 0.0
C578 C 0.11093 0.56632 0.08113 0.0
C579 C 0.23977 0.53618 0.10854 0.0
H580 H 0.14803 0.42018 0.10386 0.0
H581 H 0.20737 0.44617 0.06649 0.0
H582 H 0.15887 0.50746 0.12058 0.0
H583 H 0.11479 0.51652 0.11007 0.0
H584 H 0.12323 0.46922 0.11812 0.0
H585 H 0.21961 0.51002 0.05923 0.0
H586 H 0.18479 0.5457 0.06434 0.0
H587 H 0.23066 0.542 0.07417 0.0
H588 H 0.12214 0.63591 0.09448 0.0
H589 H 0.23082 0.61023 0.1172 0.0
H590 H 0.09084 0.54829 0.08706 0.0
H591 H 0.12032 0.5484 0.07219 0.0
H592 H 0.09481 0.59218 0.07676 0.0
H593 H 0.22892 0.51196 0.11498 0.0
H594 H 0.2636 0.5512 0.11488 0.0
H595 H 0.25178 0.52302 0.09902 0.0
C596 C 0.88056 0.75241 0.3309 0.0
C597 C 0.90715 0.77318 0.34001 0.0
C598 C 0.84142 0.74903 0.33378 0.0
C599 C 0.82855 0.76552 0.34636 0.0
C600 C 0.85551 0.78465 0.35602 0.0
C601 C 0.89439 0.78856 0.35267 0.0
C602 C 0.81362 0.72886 0.32311 0.0
C603 C 0.84305 0.80192 0.36971 0.0
C604 C 0.72353 0.79504 0.34983 0.0
C605 C 0.70998 0.76397 0.35771 0.0
C606 C 0.76146 0.79482 0.34532 0.0
C607 C 0.78675 0.76354 0.34933 0.0
C608 C 0.77254 0.73143 0.35687 0.0
C609 C 0.73411 0.73188 0.36084 0.0
C610 C 0.775 0.82894 0.33686 0.0
C611 C 0.79859 0.69781 0.36155 0.0
H612 H 0.89017 0.73929 0.3213 0.0
H613 H 0.91441 0.80482 0.35976 0.0
H614 H 0.79864 0.70458 0.32825 0.0
H615 H 0.79099 0.74978 0.31906 0.0
H616 H 0.82841 0.71696 0.31395 0.0
H617 H 0.86793 0.81347 0.37652 0.0
H618 H 0.82223 0.82609 0.36734 0.0
H619 H 0.82791 0.77954 0.37578 0.0
H620 H 0.70488 0.82007 0.34761 0.0
H621 H 0.7237 0.70829 0.36723 0.0
H622 H 0.78949 0.81843 0.32743 0.0
H623 H 0.79658 0.84618 0.34347 0.0
H624 H 0.75069 0.84853 0.33323 0.0
H625 H 0.81354 0.68596 0.35244 0.0
H626 H 0.78237 0.67377 0.36636 0.0
H627 H 0.82132 0.70835 0.36951 0.0
C628 C 0.69671 0.52703 0.60672 0.0
C629 C 0.72952 0.54992 0.60501 0.0
C630 C 0.70017 0.48929 0.61233 0.0
C631 C 0.73746 0.47428 0.61647 0.0
C632 C 0.77021 0.49911 0.61632 0.0
C633 C 0.76595 0.53669 0.61037 0.0
C634 C 0.66429 0.46409 0.61226 0.0
C635 C 0.81017 0.48494 0.62121 0.0
C636 C 0.72384 0.37264 0.63065 0.0
C637 C 0.72216 0.35164 0.61789 0.0
C638 C 0.73395 0.41248 0.63089 0.0
C639 C 0.74201 0.4312 0.61804 0.0
C640 C 0.74546 0.40846 0.60562 0.0
C641 C 0.73525 0.36892 0.60571 0.0
C642 C 0.73164 0.43524 0.64449 0.0
C643 C 0.75479 0.42681 0.59172 0.0
H644 H 0.66864 0.5374 0.60246 0.0
H645 H 0.79137 0.55441 0.60894 0.0
H646 H 0.66578 0.44091 0.60407 0.0
H647 H 0.66245 0.44951 0.62266 0.0
H648 H 0.6373 0.48118 0.60991 0.0
H649 H 0.82907 0.50969 0.62489 0.0
H650 H 0.80909 0.46334 0.62992 0.0
H651 H 0.82365 0.47061 0.61222 0.0
H652 H 0.71349 0.35917 0.64007 0.0
H653 H 0.73384 0.35243 0.59586 0.0
H654 H 0.70256 0.44889 0.6447 0.0
H655 H 0.75358 0.45892 0.6453 0.0
H656 H 0.73593 0.41592 0.65391 0.0
H657 H 0.7298 0.44471 0.58754 0.0
H658 H 0.76099 0.40451 0.58361 0.0
H659 H 0.78023 0.44641 0.59327 0.0
C660 C 0.79501 0.34223 0.84304 0.0
C661 C 0.76774 0.31258 0.84477 0.0
C662 C 0.83417 0.33703 0.84757 0.0
C663 C 0.84634 0.30107 0.85374 0.0
C664 C 0.81823 0.2727 0.85681 0.0
C665 C 0.77911 0.27887 0.85232 0.0
C666 C 0.86296 0.36853 0.84452 0.0
C667 C 0.82995 0.23415 0.86352 0.0
C668 C 0.94087 0.25809 0.84291 0.0
C669 C 0.96487 0.26109 0.85543 0.0
C670 C 0.90274 0.27202 0.84219 0.0
C671 C 0.88811 0.28996 0.85426 0.0
C672 C 0.91282 0.29514 0.86672 0.0
C673 C 0.95082 0.2801 0.86722 0.0
C674 C 0.87768 0.2661 0.82861 0.0
C675 C 0.89881 0.31495 0.87971 0.0
H676 H 0.78611 0.3685 0.8373 0.0
H677 H 0.75808 0.25589 0.85362 0.0
H678 H 0.8849 0.37204 0.85356 0.0
H679 H 0.87853 0.36014 0.83507 0.0
H680 H 0.8485 0.39708 0.84234 0.0
H681 H 0.80459 0.21767 0.86699 0.0
H682 H 0.8446 0.21604 0.85572 0.0
H683 H 0.85082 0.23877 0.87281 0.0
H684 H 0.95157 0.24369 0.83371 0.0
H685 H 0.96883 0.28181 0.87704 0.0
H686 H 0.86588 0.29449 0.82467 0.0
H687 H 0.85269 0.24708 0.83066 0.0
H688 H 0.89384 0.25246 0.8201 0.0
H689 H 0.87996 0.3403 0.87676 0.0
H690 H 0.9234 0.32513 0.88697 0.0
H691 H 0.88143 0.29396 0.88557 0.0
C692 C 0.97814 0.5273 0.88011 0.0
C693 C 0.01521 0.54261 0.88346 0.0
C694 C 0.97325 0.48766 0.87636 0.0
C695 C 0.0062 0.46306 0.87621 0.0
C696 C 0.04378 0.47952 0.87839 0.0
C697 C 0.04775 0.51906 0.882 0.0
C698 C 0.93279 0.47167 0.87371 0.0
C699 C 0.07989 0.45466 0.87825 0.0
C700 C 0.01442 0.36125 0.89053 0.0
C701 C 0.0251 0.34101 0.87851 0.0
C702 C 0.00304 0.40046 0.88963 0.0
C703 C 0.00232 0.41969 0.87633 0.0
C704 C 0.00717 0.39755 0.86387 0.0
C705 C 0.0188 0.35823 0.86512 0.0
C706 C 0.99736 0.42251 0.9032 0.0
C707 C 0.00487 0.41639 0.84943 0.0
H708 H 0.95294 0.54555 0.88136 0.0
H709 H 0.07637 0.53106 0.88466 0.0
H710 H 0.93192 0.44723 0.86595 0.0
H711 H 0.9226 0.46039 0.88381 0.0
H712 H 0.91231 0.4948 0.86974 0.0
H713 H 0.10678 0.47251 0.87894 0.0
H714 H 0.08105 0.43427 0.8874 0.0
H715 H 0.07937 0.43683 0.86842 0.0
H716 H 0.01944 0.34779 0.90088 0.0
H717 H 0.02725 0.34257 0.85581 0.0
H718 H 0.97168 0.44188 0.90191 0.0
H719 H 0.02308 0.44119 0.90588 0.0
H720 H 0.9936 0.4025 0.91226 0.0
H721 H 0.98226 0.43944 0.84864 0.0
H722 H -0.00148 0.39445 0.8409 0.0
H723 H 0.03311 0.43025 0.84762 0.0
C724 C 0.86206 0.74715 0.15377 0.0
C725 C 0.8376 0.77971 0.15188 0.0
C726 C 0.89913 0.74681 0.14855 0.0
C727 C 0.91231 0.78003 0.14138 0.0
C728 C 0.88741 0.81271 0.13919 0.0
C729 C 0.85019 0.81204 0.14437 0.0
C730 C 0.92439 0.71112 0.15089 0.0
C731 C 0.90055 0.84882 0.13173 0.0
C732 C 0.02134 0.79414 0.13943 0.0
C733 C 0.0266 0.78224 0.12553 0.0
C734 C 0.98433 0.79341 0.14481 0.0
C735 C 0.95195 0.78034 0.13602 0.0
C736 C 0.9574 0.7678 0.12201 0.0
C737 C 0.99455 0.7692 0.11692 0.0
C738 C 0.97978 0.8073 0.15977 0.0
C739 C 0.92396 0.75307 0.11234 0.0
H740 H 0.85231 0.72209 0.15956 0.0
H741 H 0.83155 0.83744 0.14309 0.0
H742 H 0.93364 0.70015 0.14057 0.0
H743 H 0.95102 0.71886 0.1575 0.0
H744 H 0.9093 0.68718 0.15621 0.0
H745 H 0.87774 0.87172 0.13083 0.0
H746 H 0.92666 0.8611 0.1376 0.0
H747 H 0.90883 0.84121 0.12092 0.0
H748 H 0.04578 0.8055 0.14587 0.0
H749 H -0.00139 0.75997 0.10612 0.0
H750 H 0.96801 0.78341 0.16613 0.0
H751 H 0.95876 0.83182 0.15971 0.0
H752 H 0.00773 0.81717 0.16507 0.0
H753 H 0.90958 0.72828 0.11741 0.0
H754 H 0.93333 0.74326 0.10188 0.0
H755 H 0.902 0.77648 0.11054 0.0
C756 C 0.57979 0.42159 0.39901 0.0
C757 C 0.56427 0.41258 0.41196 0.0
C758 C 0.58109 0.46045 0.39417 0.0
C759 C 0.56625 0.49107 0.4024 0.0
C760 C 0.55044 0.48206 0.41544 0.0
C761 C 0.54961 0.44308 0.42003 0.0
C762 C 0.59822 0.46878 0.3802 0.0
C763 C 0.53415 0.51359 0.42454 0.0
C764 C 0.59397 0.59608 0.39356 0.0
C765 C 0.56225 0.6074 0.38446 0.0
C766 C 0.59531 0.55871 0.39987 0.0
C767 C 0.56446 0.53197 0.39682 0.0
C768 C 0.53188 0.54393 0.38802 0.0
C769 C 0.53123 0.58132 0.38197 0.0
C770 C 0.63038 0.54731 0.40932 0.0
C771 C 0.49805 0.51681 0.38465 0.0
H772 H 0.59158 0.39834 0.39279 0.0
H773 H 0.53708 0.43642 0.42996 0.0
H774 H 0.5757 0.48138 0.37261 0.0
H775 H 0.62175 0.49072 0.38175 0.0
H776 H 0.61013 0.4421 0.37537 0.0
H777 H 0.52201 0.50164 0.43423 0.0
H778 H 0.55727 0.53482 0.42782 0.0
H779 H 0.51099 0.52991 0.41836 0.0
H780 H 0.61841 0.61573 0.39526 0.0
H781 H 0.5066 0.5899 0.37494 0.0
H782 H 0.64682 0.5243 0.40401 0.0
H783 H 0.62142 0.53492 0.41943 0.0
H784 H 0.64997 0.57251 0.41177 0.0
H785 H 0.50784 0.49093 0.37877 0.0
H786 H 0.47416 0.53118 0.37814 0.0
H787 H 0.48648 0.5061 0.39461 0.0
C788 C 0.97923 0.2839 0.63857 0.0
C789 C 0.99338 0.31531 0.64695 0.0
C790 C 0.93924 0.2792 0.63525 0.0
C791 C 0.91276 0.30661 0.64039 0.0
C792 C 0.92716 0.34016 0.64776 0.0
C793 C 0.96725 0.34402 0.65101 0.0
C794 C 0.92519 0.24314 0.62726 0.0
C795 C 0.9001 0.37056 0.65314 0.0
C796 C 0.80599 0.29146 0.6283 0.0
C797 C 0.79375 0.26794 0.6393 0.0
C798 C 0.8442 0.30611 0.62873 0.0
C799 C 0.87073 0.29646 0.64032 0.0
C800 C 0.85771 0.27451 0.65176 0.0
C801 C 0.81952 0.26077 0.65113 0.0
C802 C 0.85653 0.33018 0.61646 0.0
C803 C 0.88463 0.26377 0.66444 0.0
H804 H -0.00085 0.26153 0.63542 0.0
H805 H 0.97805 0.36877 0.65728 0.0
H806 H 0.91146 0.22302 0.63465 0.0
H807 H 0.90292 0.25095 0.61873 0.0
H808 H 0.94918 0.22736 0.62247 0.0
H809 H 0.91564 0.39789 0.65636 0.0
H810 H 0.87673 0.37761 0.6449 0.0
H811 H 0.88612 0.3589 0.66249 0.0
H812 H 0.78647 0.2968 0.61905 0.0
H813 H 0.81021 0.243 0.65976 0.0
H814 H 0.87298 0.31142 0.60938 0.0
H815 H 0.87583 0.35448 0.62022 0.0
H816 H 0.83116 0.34251 0.61012 0.0
H817 H 0.90837 0.24492 0.66098 0.0
H818 H 0.86947 0.24793 0.67271 0.0
H819 H 0.89811 0.29041 0.66931 0.0
C820 C 0.38285 0.23921 0.66469 0.0
C821 C 0.35268 0.26088 0.65772 0.0
C822 C 0.41958 0.23674 0.6593 0.0
C823 C 0.42601 0.25448 0.64617 0.0
C824 C 0.39489 0.27355 0.63843 0.0
C825 C 0.35874 0.27705 0.64439 0.0
C826 C 0.45191 0.21647 0.668 0.0
C827 C 0.40022 0.29162 0.62413 0.0
C828 C 0.52827 0.28793 0.63967 0.0
C829 C 0.54225 0.2563 0.63213 0.0
C830 C 0.49067 0.28741 0.64446 0.0
C831 C 0.46594 0.25523 0.64106 0.0
C832 C 0.47982 0.22355 0.63316 0.0
C833 C 0.51805 0.22428 0.62893 0.0
C834 C 0.47734 0.32127 0.65318 0.0
C835 C 0.45393 0.18955 0.62878 0.0
H836 H 0.37821 0.22508 0.67469 0.0
H837 H 0.33585 0.29377 0.63884 0.0
H838 H 0.46146 0.19028 0.66226 0.0
H839 H 0.47735 0.23615 0.66959 0.0
H840 H 0.44299 0.20717 0.67856 0.0
H841 H 0.37217 0.30044 0.61862 0.0
H842 H 0.41888 0.31788 0.62547 0.0
H843 H 0.41499 0.27083 0.61725 0.0
H844 H 0.54676 0.31315 0.64175 0.0
H845 H 0.52862 0.20045 0.62267 0.0
H846 H 0.4696 0.31061 0.66371 0.0
H847 H 0.45092 0.33464 0.64793 0.0
H848 H 0.49985 0.34429 0.65477 0.0
H849 H 0.4439 0.17472 0.63829 0.0
H850 H 0.46881 0.16777 0.6223 0.0
H851 H 0.42775 0.20028 0.62252 0.0
C852 C 0.46561 0.80711 0.13297 0.0
C853 C 0.47976 0.83652 0.14228 0.0
C854 C 0.42565 0.80322 0.12939 0.0
C855 C 0.39922 0.82956 0.13518 0.0
C856 C 0.4137 0.86142 0.14351 0.0
C857 C 0.45374 0.86432 0.14708 0.0
C858 C 0.41154 0.76891 0.12042 0.0
C859 C 0.38669 0.89082 0.14954 0.0
C860 C 0.29234 0.81651 0.12272 0.0
C861 C 0.2797 0.79181 0.13332 0.0
C862 C 0.33067 0.83096 0.12346 0.0
C863 C 0.35715 0.81935 0.13482 0.0
C864 C 0.34398 0.79559 0.14576 0.0
C865 C 0.30556 0.78254 0.14493 0.0
C866 C 0.34301 0.8573 0.11181 0.0
C867 C 0.37089 0.78248 0.15813 0.0
H868 H 0.48548 0.78545 0.12926 0.0
H869 H 0.46458 0.88751 0.1541 0.0
H870 H 0.39738 0.74743 0.12719 0.0
H871 H 0.3896 0.77851 0.11204 0.0
H872 H 0.43557 0.75401 0.11532 0.0
H873 H 0.40237 0.91743 0.15348 0.0
H874 H 0.36356 0.89947 0.14143 0.0
H875 H 0.37239 0.8775 0.15853 0.0
H876 H 0.27285 0.82346 0.11362 0.0
H877 H 0.2961 0.76383 0.15328 0.0
H878 H 0.3587 0.8398 0.10412 0.0
H879 H 0.36296 0.88048 0.11611 0.0
H880 H 0.31766 0.87131 0.10599 0.0
H881 H 0.39484 0.76477 0.1542 0.0
H882 H 0.3558 0.7647 0.1659 0.0
H883 H 0.38408 0.80818 0.16376 0.0
C884 C 0.38101 0.25204 0.83504 0.0
C885 C 0.40741 0.27477 0.84351 0.0
C886 C 0.34226 0.24818 0.83831 0.0
C887 C 0.32966 0.26656 0.8506 0.0
C888 C 0.35644 0.28815 0.85956 0.0
C889 C 0.39498 0.29217 0.85587 0.0
C890 C 0.31455 0.22533 0.8284 0.0
C891 C 0.3441 0.30781 0.87286 0.0
C892 C 0.22394 0.29304 0.85369 0.0
C893 C 0.21151 0.26261 0.86213 0.0
C894 C 0.26177 0.2935 0.84918 0.0
C895 C 0.28827 0.26396 0.85392 0.0
C896 C 0.27551 0.23279 0.86228 0.0
C897 C 0.23698 0.23222 0.86612 0.0
C898 C 0.27375 0.32643 0.83982 0.0
C899 C 0.30304 0.20125 0.86781 0.0
H900 H 0.39051 0.23763 0.82565 0.0
H901 H 0.415 0.30995 0.86243 0.0
H902 H 0.30093 0.20151 0.83426 0.0
H903 H 0.29087 0.24473 0.82409 0.0
H904 H 0.3291 0.21237 0.81936 0.0
H905 H 0.36884 0.32165 0.8791 0.0
H906 H 0.32216 0.33063 0.87001 0.0
H907 H 0.33033 0.28625 0.87969 0.0
H908 H 0.2043 0.31694 0.85092 0.0
H909 H 0.22743 0.20933 0.873 0.0
H910 H 0.28829 0.3147 0.83059 0.0
H911 H 0.29487 0.34553 0.84588 0.0
H912 H 0.24864 0.3445 0.83583 0.0
H913 H 0.31756 0.18754 0.85893 0.0
H914 H 0.28813 0.17812 0.87362 0.0
H915 H 0.32603 0.21435 0.87509 0.0
C916 C 0.29462 0.85896 0.34254 0.0
C917 C 0.26683 0.82952 0.34389 0.0
C918 C 0.33356 0.85324 0.34733 0.0
C919 C 0.34505 0.81716 0.35356 0.0
C920 C 0.31639 0.78903 0.3563 0.0
C921 C 0.27756 0.79554 0.35143 0.0
C922 C 0.36292 0.88441 0.34451 0.0
C923 C 0.32728 0.75045 0.36315 0.0
C924 C 0.4397 0.77235 0.34368 0.0
C925 C 0.46321 0.77551 0.35632 0.0
C926 C 0.40185 0.78703 0.34259 0.0
C927 C 0.38681 0.80563 0.35445 0.0
C928 C 0.41112 0.81108 0.36702 0.0
C929 C 0.44909 0.79569 0.36784 0.0
C930 C 0.37747 0.78111 0.32885 0.0
C931 C 0.39663 0.83138 0.37983 0.0
H932 H 0.28633 0.88564 0.33696 0.0
H933 H 0.25627 0.77269 0.35253 0.0
H934 H 0.38408 0.88804 0.35379 0.0
H935 H 0.37938 0.87553 0.33534 0.0
H936 H 0.3489 0.91302 0.34203 0.0
H937 H 0.3015 0.73437 0.36647 0.0
H938 H 0.34211 0.732 0.35549 0.0
H939 H 0.34776 0.75497 0.37257 0.0
H940 H 0.45058 0.75717 0.33467 0.0
H941 H 0.46699 0.79797 0.37768 0.0
H942 H 0.36577 0.80948 0.32485 0.0
H943 H 0.35241 0.76199 0.33073 0.0
H944 H 0.39411 0.76755 0.32046 0.0
H945 H 0.37791 0.85666 0.37668 0.0
H946 H 0.42098 0.84173 0.38717 0.0
H947 H 0.37897 0.8106 0.38567 0.0
C948 C 0.70343 0.93511 0.57609 0.0
C949 C 0.69028 0.90708 0.5855 0.0
C950 C 0.70217 0.9752 0.57925 0.0
C951 C 0.68766 0.9876 0.59218 0.0
C952 C 0.67333 0.95955 0.60153 0.0
C953 C 0.6748 0.9197 0.59807 0.0
C954 C 0.71779 0.00409 0.56902 0.0
C955 C 0.65749 0.97154 0.61542 0.0
C956 C 0.72561 0.07854 0.61123 0.0
C957 C 0.69421 0.10428 0.6092 0.0
C958 C 0.72459 0.04127 0.60508 0.0
C959 C 0.69116 0.02922 0.59675 0.0
C960 C 0.66015 0.05588 0.59399 0.0
C961 C 0.66206 0.09325 0.60028 0.0
C962 C 0.75845 0.01401 0.60821 0.0
C963 C 0.62421 0.0442 0.58505 0.0
H964 H 0.71577 0.92567 0.5664 0.0
H965 H 0.66384 0.89836 0.60526 0.0
H966 H 0.6969 0.02832 0.56689 0.0
H967 H 0.74503 0.01711 0.57379 0.0
H968 H 0.72398 0.99023 0.55876 0.0
H969 H 0.64493 0.9465 0.621 0.0
H970 H 0.68103 0.9845 0.62249 0.0
H971 H 0.63478 0.9942 0.61356 0.0
H972 H 0.75057 0.0871 0.61811 0.0
H973 H 0.63746 0.11278 0.59898 0.0
H974 H 0.76799 1.00118 0.59823 0.0
H975 H 0.74942 0.98955 0.61494 0.0
H976 H 0.78355 0.029 0.61382 0.0
H977 H 0.63215 0.0338 0.5745 0.0
H978 H 0.60333 0.06873 0.58351 0.0
H979 H 0.60962 0.01963 0.59018 0.0
C980 C 0.2855 0.04846 0.10357 0.0
C981 C 0.25373 0.07381 0.10413 0.0
C982 C 0.28314 0.00957 0.10814 0.0
C983 C 0.24794 0.99577 0.11308 0.0
C984 C 0.21802 0.02279 0.11558 0.0
C985 C 0.22132 0.06169 0.11108 0.0
C986 C 0.31638 0.98217 0.10593 0.0
C987 C 0.18035 0.00951 0.12116 0.0
C988 C 0.20624 0.90196 0.09759 0.0
C989 C 0.20661 0.87756 0.10947 0.0
C990 C 0.22164 0.93966 0.09853 0.0
C991 C 0.23821 0.95344 0.11175 0.0
C992 C 0.24175 0.92772 0.12353 0.0
C993 C 0.22552 0.88998 0.12229 0.0
C994 C 0.21771 0.96554 0.08555 0.0
C995 C 0.26036 0.94053 0.13767 0.0
H996 H 0.31078 0.05795 0.0983 0.0
H997 H 0.19673 0.08123 0.11153 0.0
H998 H 0.31943 0.96012 0.11454 0.0
H999 H 0.31071 0.96632 0.09574 0.0
H1000 H 0.34415 0.99829 0.10549 0.0
H1001 H 0.16295 0.0345 0.12475 0.0
H1002 H 0.16299 0.9938 0.11262 0.0
H1003 H 0.18584 0.98898 0.13014 0.0
H1004 H 0.19193 0.89218 0.08763 0.0
H1005 H 0.22568 0.8712 0.13152 0.0
H1006 H 0.24636 0.97753 0.0832 0.0
H1007 H 0.19842 0.99061 0.08754 0.0
H1008 H 0.2055 0.94969 0.07598 0.0
H1009 H 0.28364 0.9623 0.13643 0.0
H1010 H 0.27274 0.91517 0.14376 0.0
H1011 H 0.23804 0.95416 0.144 0.0
C1012 C 0.46935 0.03414 0.38895 0.0
C1013 C 0.50113 0.0577 0.38617 0.0
C1014 C 0.46877 0.99419 0.38543 0.0
C1015 C 0.50137 0.97723 0.3795 0.0
C1016 C 0.53178 0.00178 0.37545 0.0
C1017 C 0.53115 0.04185 0.37876 0.0
C1018 C 0.43494 0.96954 0.38931 0.0
C1019 C 0.56709 0.98509 0.36907 0.0
C1020 C 0.53975 0.8808 0.3939 0.0
C1021 C 0.53607 0.85651 0.38191 0.0
C1022 C 0.52656 0.91943 0.39341 0.0
C1023 C 0.50819 0.93419 0.38067 0.0
C1024 C 0.5006 0.90856 0.36896 0.0
C1025 C 0.51519 0.87001 0.36964 0.0
C1026 C 0.53526 0.94525 0.40625 0.0
C1027 C 0.47941 0.92231 0.35541 0.0
H1028 H 0.44607 0.04643 0.39469 0.0
H1029 H 0.55586 0.05999 0.37672 0.0
H1030 H 0.42831 0.94654 0.38121 0.0
H1031 H 0.44228 0.95481 0.3996 0.0
H1032 H 0.4086 0.98759 0.39043 0.0
H1033 H 0.58574 0.00825 0.36492 0.0
H1034 H 0.5845 0.96834 0.3773 0.0
H1035 H 0.55841 0.96462 0.36031 0.0
H1036 H 0.55553 0.87032 0.40347 0.0
H1037 H 0.51245 0.85152 0.3603 0.0
H1038 H 0.50834 0.95927 0.40951 0.0
H1039 H 0.55547 0.96889 0.40357 0.0
H1040 H 0.5486 0.92881 0.41547 0.0
H1041 H 0.45701 0.9444 0.35754 0.0
H1042 H 0.46533 0.89749 0.34947 0.0
H1043 H 0.50039 0.93596 0.34854 0.0
C1044 C 0.03654 0.92843 0.91489 0.0
C1045 C 0.05638 0.89808 0.90848 0.0
C1046 C 0.03779 0.96689 0.90978 0.0
C1047 C 0.05989 0.97544 0.89807 0.0
C1048 C 0.08006 0.94487 0.89157 0.0
C1049 C 0.07775 0.90649 0.89677 0.0
C1050 C 0.01514 0.9983 0.91683 0.0
C1051 C 0.10429 0.95277 0.87917 0.0
C1052 C 0.03433 0.06405 0.87513 0.0
C1053 C 0.06228 0.0915 0.88007 0.0
C1054 C 0.03288 0.02661 0.88107 0.0
C1055 C 0.06032 0.01592 0.89218 0.0
C1056 C 0.08826 0.04369 0.89741 0.0
C1057 C 0.08891 0.08121 0.89128 0.0
C1058 C 0.00218 0.9983 0.87532 0.0
C1059 C 0.11816 0.0334 0.90919 0.0
H1060 H 0.01978 0.92196 0.9239 0.0
H1061 H 0.0935 0.88318 0.8919 0.0
H1062 H 0.03482 0.02218 0.92069 0.0
H1063 H 0.99344 0.01122 0.909 0.0
H1064 H -0.00022 0.98694 0.92593 0.0
H1065 H 0.11953 0.92619 0.8757 0.0
H1066 H 0.08563 0.964 0.87006 0.0
H1067 H 0.12615 0.97564 0.88207 0.0
H1068 H 0.01355 0.07181 0.86648 0.0
H1069 H 0.11111 0.10193 0.89491 0.0
H1070 H 0.98516 0.98747 0.88405 0.0
H1071 H 0.01607 0.97258 0.8706 0.0
H1072 H 0.98194 0.01172 0.86707 0.0
H1073 H 0.10382 0.02209 0.91851 0.0
H1074 H 0.13642 0.05886 0.91261 0.0
H1075 H 0.13721 0.00983 0.90555 0.0
C1076 C 0.17304 0.16612 0.98117 0.0
C1077 C 0.14862 0.19173 0.98804 0.0
C1078 C 0.1657 0.15682 0.96675 0.0
C1079 C 0.1337 0.17411 0.95901 0.0
C1080 C 0.1073 0.19739 0.96617 0.0
C1081 C 0.11494 0.20565 0.98061 0.0
C1082 C 0.19403 0.13124 0.95954 0.0
C1083 C 0.07299 0.21672 0.95829 0.0
C1084 C 0.1479 0.21262 0.92253 0.0
C1085 C 0.12162 0.19014 0.91398 0.0
C1086 C 0.15313 0.20649 0.93709 0.0
C1087 C 0.13278 0.17588 0.9433 0.0
C1088 C 0.10902 0.15052 0.93457 0.0
C1089 C 0.10305 0.15843 0.91994 0.0
C1090 C 0.17829 0.23482 0.94591 0.0
C1091 C 0.08833 0.11647 0.94075 0.0
H1092 H 0.1991 0.15507 0.98682 0.0
H1093 H 0.09529 0.22445 0.98597 0.0
H1094 H 0.17866 0.11174 0.95162 0.0
H1095 H 0.21405 0.14985 0.9538 0.0
H1096 H 0.21165 0.11315 0.96731 0.0
H1097 H 0.05278 0.2299 0.96562 0.0
H1098 H 0.08343 0.24018 0.9514 0.0
H1099 H 0.05678 0.19536 0.95134 0.0
H1100 H 0.16302 0.23679 0.91795 0.0
H1101 H 0.08262 0.14108 0.9134 0.0
H1102 H 0.20084 0.21885 0.95249 0.0
H1103 H 0.16026 0.25109 0.95323 0.0
H1104 H 0.19291 0.25637 0.9393 0.0
H1105 H 0.10697 0.10205 0.94923 0.0
H1106 H 0.07949 0.0945 0.93247 0.0
H1107 H 0.06188 0.1271 0.94555 0.0
C1108 C 0.0412 0.82308 0.22222 0.0
C1109 C 0.07174 0.81312 0.23215 0.0
C1110 C 0.04306 0.81458 0.20771 0.0
C1111 C 0.07676 0.79684 0.20293 0.0
C1112 C 0.10829 0.78818 0.21278 0.0
C1113 C 0.10521 0.79594 0.22725 0.0
C1114 C 0.00866 0.82376 0.19758 0.0
C1115 C 0.14506 0.76978 0.20809 0.0
C1116 C 0.08339 0.73441 0.17012 0.0
C1117 C 0.1023 0.75985 0.16131 0.0
C1118 C 0.07108 0.74736 0.18321 0.0
C1119 C 0.07934 0.78615 0.18772 0.0
C1120 C 0.09599 0.81259 0.17836 0.0
C1121 C 0.10715 0.79909 0.16521 0.0
C1122 C 0.05222 0.71862 0.19268 0.0
C1123 C 0.10568 0.85402 0.18277 0.0
H1124 H 0.0155 0.83712 0.22578 0.0
H1125 H 0.12874 0.78735 0.23475 0.0
H1126 H 0.01712 0.84507 0.18952 0.0
H1127 H -0.00126 0.79685 0.19187 0.0
H1128 H 0.98398 0.83609 0.20308 0.0
H1129 H 0.16783 0.76727 0.21692 0.0
H1130 H 0.1387 0.74013 0.20378 0.0
H1131 H 0.15674 0.78731 0.19947 0.0
H1132 H 0.08 0.70396 0.1671 0.0
H1133 H 0.12236 0.81853 0.15842 0.0
H1134 H 0.02743 0.73237 0.19767 0.0
H1135 H 0.07353 0.70937 0.20134 0.0
H1136 H 0.04175 0.69218 0.18676 0.0
H1137 H 0.08143 0.86761 0.1881 0.0
H1138 H 0.11242 0.87241 0.17357 0.0
H1139 H 0.13137 0.85384 0.19048 0.0
C1140 C 0.60708 0.69881 0.47919 0.0
C1141 C 0.63187 0.67502 0.48782 0.0
C1142 C 0.60145 0.69217 0.46456 0.0
C1143 C 0.6193 0.65953 0.45843 0.0
C1144 C 0.63973 0.63229 0.46736 0.0
C1145 C 0.64665 0.6408 0.48189 0.0
C1146 C 0.57953 0.72235 0.45552 0.0
C1147 C 0.65676 0.5955 0.46154 0.0
C1148 C 0.59224 0.66339 0.41904 0.0
C1149 C 0.62293 0.68613 0.41467 0.0
C1150 C 0.59296 0.64914 0.43304 0.0
C1151 C 0.62396 0.65983 0.44288 0.0
C1152 C 0.6568 0.67889 0.43797 0.0
C1153 C 0.6561 0.69107 0.42386 0.0
C1154 C 0.55936 0.62519 0.43752 0.0
C1155 C 0.69099 0.69041 0.44792 0.0
H1156 H 0.59358 0.72406 0.48372 0.0
H1157 H 0.66536 0.62152 0.48834 0.0
H1158 H 0.59935 0.73631 0.44826 0.0
H1159 H 0.5558 0.70831 0.44888 0.0
H1160 H 0.56678 0.7456 0.46199 0.0
H1161 H 0.65424 0.57102 0.46912 0.0
H1162 H 0.64232 0.58696 0.45113 0.0
H1163 H 0.68808 0.59997 0.46022 0.0
H1164 H 0.56671 0.65897 0.41191 0.0
H1165 H 0.68041 0.70763 0.42034 0.0
H1166 H 0.53781 0.64457 0.44215 0.0
H1167 H 0.56918 0.60342 0.4457 0.0
H1168 H 0.54466 0.60973 0.42831 0.0
H1169 H 0.68135 0.71069 0.45618 0.0
H1170 H 0.71425 0.70497 0.44232 0.0
H1171 H 0.70352 0.66426 0.45338 0.0
C1172 C 0.6005 0.29616 0.72714 0.0
C1173 C 0.56749 0.28538 0.73411 0.0
C1174 C 0.60566 0.28384 0.71323 0.0
C1175 C 0.57625 0.2618 0.70575 0.0
C1176 C 0.54162 0.25329 0.71225 0.0
C1177 C 0.53793 0.26446 0.72642 0.0
C1178 C 0.64342 0.29302 0.70676 0.0
C1179 C 0.50872 0.2319 0.70429 0.0
C1180 C 0.59491 0.25476 0.66674 0.0
C1181 C 0.61467 0.21906 0.66639 0.0
C1182 C 0.57898 0.26773 0.67923 0.0
C1183 C 0.58383 0.24483 0.69168 0.0
C1184 C 0.60139 0.20756 0.6911 0.0
C1185 C 0.61622 0.19499 0.67841 0.0
C1186 C 0.55899 0.30689 0.67933 0.0
C1187 C 0.60771 0.18243 0.70418 0.0
H1188 H 0.62293 0.31361 0.73263 0.0
H1189 H 0.51229 0.25559 0.73155 0.0
H1190 H 0.65821 0.26543 0.70409 0.0
H1191 H 0.63779 0.30953 0.69674 0.0
H1192 H 0.66341 0.3104 0.71399 0.0
H1193 H 0.48412 0.22631 0.711 0.0
H1194 H 0.49803 0.2496 0.69502 0.0
H1195 H 0.51888 0.2036 0.70016 0.0
H1196 H 0.59443 0.27388 0.65763 0.0
H1197 H 0.6313 0.16723 0.6782 0.0
H1198 H 0.57305 0.32611 0.68763 0.0
H1199 H 0.52847 0.30278 0.68196 0.0
H1200 H 0.55935 0.32203 0.66896 0.0
H1201 H 0.62872 0.19699 0.71189 0.0
H1202 H 0.61914 0.15303 0.70172 0.0
H1203 H 0.58025 0.17879 0.70946 0.0
C1204 C 0.1066 0.62586 0.01029 0.0
C1205 C 0.12108 0.6556 0.00185 0.0
C1206 C 0.11362 0.62623 0.02515 0.0
C1207 C 0.13441 0.65771 0.03172 0.0
C1208 C 0.15201 0.68569 0.02319 0.0
C1209 C 0.14561 0.68393 0.00839 0.0
C1210 C 0.09619 0.59464 0.03384 0.0
C1211 C 0.17459 0.71974 0.02971 0.0
C1212 C 0.09883 0.70761 0.06384 0.0
C1213 C 0.13058 0.7034 0.07373 0.0
C1214 C 0.09841 0.69007 0.05048 0.0
C1215 C 0.13034 0.66694 0.04697 0.0
C1216 C 0.16043 0.65877 0.05753 0.0
C1217 C 0.16056 0.67771 0.07081 0.0
C1218 C 0.06545 0.69957 0.03969 0.0
C1219 C 0.1938 0.63239 0.05453 0.0
H1220 H 0.08795 0.60345 0.00544 0.0
H1221 H 0.15844 0.70601 0.00197 0.0
H1222 H 0.11506 0.58801 0.04352 0.0
H1223 H 0.06775 0.60459 0.03726 0.0
H1224 H 0.09139 0.56739 0.02756 0.0
H1225 H 0.18925 0.73696 0.02167 0.0
H1226 H 0.15461 0.73943 0.03507 0.0
H1227 H 0.19679 0.70934 0.03785 0.0
H1228 H 0.07525 0.72695 0.06623 0.0
H1229 H 0.18509 0.67429 0.07848 0.0
H1230 H 0.05279 0.67241 0.03497 0.0
H1231 H 0.07654 0.71709 0.03095 0.0
H1232 H 0.04197 0.71639 0.04439 0.0
H1233 H 0.18437 0.60849 0.04713 0.0
H1234 H 0.20714 0.61948 0.06449 0.0
H1235 H 0.21639 0.6496 0.04954 0.0
C1236 C 0.62001 0.78216 0.26416 0.0
C1237 C 0.65358 0.79077 0.25717 0.0
C1238 C 0.62193 0.77214 0.27856 0.0
C1239 C 0.65847 0.76898 0.2862 0.0
C1240 C 0.69256 0.7778 0.27938 0.0
C1241 C 0.68969 0.78919 0.26502 0.0
C1242 C 0.58467 0.76388 0.28552 0.0
C1243 C 0.73211 0.77374 0.28704 0.0
C1244 C 0.64573 0.76693 0.32556 0.0
C1245 C 0.63731 0.7273 0.32737 0.0
C1246 C 0.65681 0.78091 0.31247 0.0
C1247 C 0.66012 0.75439 0.30108 0.0
C1248 C 0.65675 0.71377 0.30352 0.0
C1249 C 0.64465 0.70072 0.31658 0.0
C1250 C 0.6602 0.82442 0.31042 0.0
C1251 C 0.66194 0.68436 0.29187 0.0
H1252 H 0.59197 0.78213 0.25831 0.0
H1253 H 0.71592 0.79648 0.25997 0.0
H1254 H 0.58317 0.73242 0.28823 0.0
H1255 H 0.58379 0.7807 0.29556 0.0
H1256 H 0.55859 0.77143 0.27855 0.0
H1257 H 0.7552 0.78719 0.28103 0.0
H1258 H 0.73272 0.78723 0.29775 0.0
H1259 H 0.73891 0.74228 0.28854 0.0
H1260 H 0.63991 0.7876 0.33388 0.0
H1261 H 0.63861 0.66996 0.31805 0.0
H1262 H 0.63252 0.83561 0.30532 0.0
H1263 H 0.68356 0.83164 0.30338 0.0
H1264 H 0.66597 0.83987 0.32071 0.0
H1265 H 0.6357 0.6842 0.28443 0.0
H1266 H 0.66636 0.65438 0.29617 0.0
H1267 H 0.68703 0.69224 0.28572 0.0
C1268 C 0.61907 0.13483 0.51066 0.0
C1269 C 0.59755 0.16705 0.50532 0.0
C1270 C 0.6306 0.1319 0.5252 0.0
C1271 C 0.62067 0.16206 0.53456 0.0
C1272 C 0.59808 0.19407 0.52928 0.0
C1273 C 0.58667 0.19604 0.51478 0.0
C1274 C 0.65441 0.09723 0.53044 0.0
C1275 C 0.58671 0.2269 0.53889 0.0
C1276 C 0.61953 0.16099 0.57447 0.0
C1277 C 0.65143 0.18488 0.57817 0.0
C1278 C 0.6115 0.149 0.56034 0.0
C1279 C 0.63549 0.16219 0.54974 0.0
C1280 C 0.66997 0.1829 0.55375 0.0
C1281 C 0.67746 0.1941 0.56796 0.0
C1282 C 0.57504 0.12606 0.55654 0.0
C1283 C 0.69639 0.1975 0.54283 0.0
H1284 H 0.62781 0.11239 0.50342 0.0
H1285 H 0.5693 0.22054 0.51081 0.0
H1286 H 0.6849 0.10647 0.53282 0.0
H1287 H 0.64365 0.08562 0.54041 0.0
H1288 H 0.65404 0.07338 0.52243 0.0
H1289 H 0.56831 0.24918 0.53317 0.0
H1290 H 0.57062 0.21512 0.54772 0.0
H1291 H 0.61311 0.24153 0.54367 0.0
H1292 H 0.5989 0.15474 0.58232 0.0
H1293 H 0.70173 0.21325 0.57084 0.0
H1294 H 0.58074 0.10251 0.54887 0.0
H1295 H 0.55278 0.14571 0.55139 0.0
H1296 H 0.56301 0.1129 0.56605 0.0
H1297 H 0.70143 0.17447 0.53488 0.0
H1298 H 0.72483 0.20728 0.54776 0.0
H1299 H 0.68245 0.22261 0.53708 0.0
C1300 C 0.20321 0.30452 0.77046 0.0
C1301 C 0.168 0.30161 0.76211 0.0
C1302 C 0.20602 0.29281 0.78479 0.0
C1303 C 0.1727 0.2786 0.79099 0.0
C1304 C 0.1368 0.27731 0.78284 0.0
C1305 C 0.13504 0.28821 0.76852 0.0
C1306 C 0.24495 0.29404 0.79304 0.0
C1307 C 0.10026 0.26303 0.7891 0.0
C1308 C 0.16376 0.20547 0.8201 0.0
C1309 C 0.14999 0.22934 0.8307 0.0
C1310 C 0.17686 0.22181 0.80768 0.0
C1311 C 0.17471 0.26277 0.80569 0.0
C1312 C 0.16526 0.28708 0.81711 0.0
C1313 C 0.15304 0.26997 0.82954 0.0
C1314 C 0.18855 0.19496 0.79602 0.0
C1315 C 0.16307 0.33087 0.81558 0.0
H1316 H 0.22884 0.31543 0.76579 0.0
H1317 H 0.10784 0.2848 0.76226 0.0
H1318 H 0.24223 0.30481 0.80402 0.0
H1319 H 0.25699 0.26401 0.79385 0.0
H1320 H 0.26594 0.31279 0.7878 0.0
H1321 H 0.07414 0.26698 0.78173 0.0
H1322 H 0.10313 0.23152 0.79169 0.0
H1323 H 0.09564 0.27888 0.79911 0.0
H1324 H 0.16162 0.17399 0.82106 0.0
H1325 H 0.14205 0.28847 0.8377 0.0
H1326 H 0.2134 0.20727 0.79066 0.0
H1327 H 0.16393 0.19176 0.78793 0.0
H1328 H 0.19656 0.16547 0.80015 0.0
H1329 H 0.18693 0.34211 0.80946 0.0
H1330 H 0.16428 0.34564 0.82609 0.0
H1331 H 0.13525 0.33875 0.80973 0.0
loop_
_geom_bond_atom_site_label_1
_geom_bond_atom_site_label_2
_geom_bond_distance
_geom_bond_site_symmetry_2
_ccdc_geom_bond_type
C0 C1 1.391 . S
C0 C4 1.391 . S
C0 H42 0.948 . S
C1 C0 1.391 . S
C1 C2 1.391 . S
C2 C1 1.391 . S
C2 H58 0.947 . S
C2 C59 1.392 . S
C3 C4 1.391 . S
C3 C7 1.397 . S
C3 C59 1.419 . S
C4 C0 1.391 . S
C4 C3 1.391 . S
C4 C5 1.399 . S
C5 C4 1.399 . S
C5 C8 1.396 . S
C5 C17 1.453 . S
C5 C18 1.684 . S
H6 C30 0.948 . S
C7 C3 1.397 . S
C7 C8 1.394 . S
C7 C26 1.723 . S
C8 C5 1.396 . S
C8 C7 1.394 . S
C8 C38 1.723 . S
H9 C32 0.947 . S
H10 C33 0.948 . S
H11 C39 0.982 . S
H12 C40 0.979 . S
H13 C40 0.980 . S
H14 C40 0.983 . S
H15 C39 0.979 . S
H16 C39 0.977 . S
C17 C5 1.453 . S
C17 H46 0.982 . S
C17 H47 0.979 . S
C17 H48 0.977 . S
C18 C5 1.684 . S
C18 H43 0.979 . S
C18 H44 0.980 . S
C18 H45 0.983 . S
C19 C20 1.391 . S
C19 C24 1.391 . S
C19 H49 0.948 . S
C20 C19 1.391 . S
C20 C21 1.391 . S
C21 C20 1.391 . S
C21 C22 1.392 . S
C21 H50 0.947 . S
C22 C21 1.392 . S
C22 C23 1.419 . S
C22 H51 0.948 . S
C23 C22 1.419 . S
C23 C24 1.391 . S
C23 C27 1.397 . S
C24 C19 1.391 . S
C24 C23 1.391 . S
C24 C25 1.399 . S
C25 C24 1.399 . S
C25 C26 1.396 . S
C25 C28 1.453 . S
C25 C29 1.684 . S
C26 C7 1.723 . S
C26 C25 1.396 . S
C26 C27 1.394 . S
C27 C23 1.397 . S
C27 C26 1.394 . S
C27 C37 1.723 . S
C28 C25 1.453 . S
C28 H52 0.982 . S
C28 H53 0.979 . S
C28 H54 0.977 . S
C29 C25 1.684 . S
C29 H55 0.979 . S
C29 H56 0.980 . S
C29 H57 0.983 . S
C30 H6 0.948 . S
C30 C31 1.391 . S
C30 C35 1.391 . S
C31 C30 1.391 . S
C31 C32 1.391 . S
C32 H9 0.947 . S
C32 C31 1.391 . S
C32 C33 1.392 . S
C33 H10 0.948 . S
C33 C32 1.392 . S
C33 C34 1.419 . S
C34 C33 1.419 . S
C34 C35 1.391 . S
C34 C38 1.397 . S
C35 C30 1.391 . S
C35 C34 1.391 . S
C35 C36 1.399 . S
C36 C35 1.399 . S
C36 C37 1.396 . S
C36 C39 1.453 . S
C36 C40 1.684 . S
C37 C27 1.723 . S
C37 C36 1.396 . S
C37 C38 1.394 . S
C38 C8 1.723 . S
C38 C34 1.397 . S
C38 C37 1.394 . S
C39 H11 0.982 . S
C39 H15 0.979 . S
C39 H16 0.977 . S
C39 C36 1.453 . S
C40 H12 0.979 . S
C40 H13 0.980 . S
C40 H14 0.983 . S
C40 C36 1.684 . S
H41 C59 0.948 . S
H42 C0 0.948 . S
H43 C18 0.979 . S
H44 C18 0.980 . S
H45 C18 0.983 . S
H46 C17 0.982 . S
H47 C17 0.979 . S
H48 C17 0.977 . S
H49 C19 0.948 . S
H50 C21 0.947 . S
H51 C22 0.948 . S
H52 C28 0.982 . S
H53 C28 0.979 . S
H54 C28 0.977 . S
H55 C29 0.979 . S
H56 C29 0.980 . S
H57 C29 0.983 . S
H58 C2 0.947 . S
C59 C2 1.392 . S
C59 C3 1.419 . S
C59 H41 0.948 . S
C60 C61 1.391 . S
C60 C64 1.391 . S
C60 H102 0.948 . S
C61 C60 1.391 . S
C61 C62 1.391 . S
C62 C61 1.391 . S
C62 H118 0.947 . S
C62 C119 1.392 . S
C63 C64 1.391 . S
C63 C67 1.397 . S
C63 C119 1.419 . S
C64 C60 1.391 . S
C64 C63 1.391 . S
C64 C65 1.399 . S
C65 C64 1.399 . S
C65 C68 1.396 . S
C65 C77 1.453 . S
C65 C78 1.684 . S
H66 C90 0.948 . S
C67 C63 1.397 . S
C67 C68 1.394 . S
C67 C86 1.723 . S
C68 C65 1.396 . S
C68 C67 1.394 . S
C68 C98 1.723 . S
H69 C92 0.947 . S
H70 C93 0.948 . S
H71 C99 0.982 . S
H72 C100 0.979 . S
H73 C100 0.980 . S
H74 C100 0.983 1_655 S
H75 C99 0.979 1_655 S
H76 C99 0.977 . S
C77 C65 1.453 . S
C77 H106 0.982 . S
C77 H107 0.979 . S
C77 H108 0.977 . S
C78 C65 1.684 . S
C78 H103 0.979 . S
C78 H104 0.980 . S
C78 H105 0.983 . S
C79 C80 1.391 . S
C79 C84 1.391 . S
C79 H109 0.948 . S
C80 C79 1.391 . S
C80 C81 1.391 . S
C81 C80 1.391 . S
C81 C82 1.392 . S
C81 H110 0.947 . S
C82 C81 1.392 . S
C82 C83 1.419 . S
C82 H111 0.948 . S
C83 C82 1.419 . S
C83 C84 1.391 . S
C83 C87 1.397 . S
C84 C79 1.391 . S
C84 C83 1.391 . S
C84 C85 1.399 . S
C85 C84 1.399 . S
C85 C86 1.396 . S
C85 C88 1.453 . S
C85 C89 1.684 . S
C86 C67 1.723 . S
C86 C85 1.396 . S
C86 C87 1.394 . S
C87 C83 1.397 . S
C87 C86 1.394 . S
C87 C97 1.723 . S
C88 C85 1.453 . S
C88 H112 0.982 . S
C88 H113 0.979 . S
C88 H114 0.977 . S
C89 C85 1.684 . S
C89 H115 0.979 . S
C89 H116 0.980 . S
C89 H117 0.983 . S
C90 H66 0.948 . S
C90 C91 1.391 . S
C90 C95 1.391 1_655 S
C91 C90 1.391 . S
C91 C92 1.391 1_655 S
C92 H69 0.947 . S
C92 C91 1.391 1_455 S
C92 C93 1.392 . S
C93 H70 0.948 . S
C93 C92 1.392 . S
C93 C94 1.419 . S
C94 C93 1.419 . S
C94 C95 1.391 . S
C94 C98 1.397 . S
C95 C90 1.391 1_455 S
C95 C94 1.391 . S
C95 C96 1.399 . S
C96 C95 1.399 . S
C96 C97 1.396 . S
C96 C99 1.453 . S
C96 C100 1.684 . S
C97 C87 1.723 . S
C97 C96 1.396 . S
C97 C98 1.394 . S
C98 C68 1.723 . S
C98 C94 1.397 . S
C98 C97 1.394 . S
C99 H71 0.982 . S
C99 H75 0.979 1_455 S
C99 H76 0.977 . S
C99 C96 1.453 . S
C100 H72 0.979 . S
C100 H73 0.980 . S
C100 H74 0.983 1_455 S
C100 C96 1.684 . S
H101 C119 0.948 . S
H102 C60 0.948 . S
H103 C78 0.979 . S
H104 C78 0.980 . S
H105 C78 0.983 . S
H106 C77 0.982 . S
H107 C77 0.979 . S
H108 C77 0.977 . S
H109 C79 0.948 . S
H110 C81 0.947 . S
H111 C82 0.948 . S
H112 C88 0.982 . S
H113 C88 0.979 . S
H114 C88 0.977 . S
H115 C89 0.979 . S
H116 C89 0.980 . S
H117 C89 0.983 . S
H118 C62 0.947 . S
C119 C62 1.392 . S
C119 C63 1.419 . S
C119 H101 0.948 . S
C120 C121 1.391 . S
C120 C124 1.391 . S
C120 H162 0.948 . S
C121 C120 1.391 . S
C121 C122 1.391 . S
C122 C121 1.391 . S
C122 H178 0.947 . S
C122 C179 1.392 . S
C123 C124 1.391 . S
C123 C127 1.397 . S
C123 C179 1.419 . S
C124 C120 1.391 . S
C124 C123 1.391 . S
C124 C125 1.399 . S
C125 C124 1.399 . S
C125 C128 1.396 . S
C125 C137 1.453 . S
C125 C138 1.684 . S
H126 C150 0.948 . S
C127 C123 1.397 . S
C127 C128 1.394 . S
C127 C146 1.723 . S
C128 C125 1.396 . S
C128 C127 1.394 . S
C128 C158 1.723 . S
H129 C152 0.947 . S
H130 C153 0.948 . S
H131 C159 0.982 . S
H132 C160 0.979 . S
H133 C160 0.980 . S
H134 C160 0.983 . S
H135 C159 0.979 . S
H136 C159 0.977 . S
C137 C125 1.453 . S
C137 H166 0.982 . S
C137 H167 0.979 . S
C137 H168 0.977 . S
C138 C125 1.684 . S
C138 H163 0.979 . S
C138 H164 0.980 . S
C138 H165 0.983 . S
C139 C140 1.391 . S
C139 C144 1.391 . S
C139 H169 0.948 . S
C140 C139 1.391 . S
C140 C141 1.391 . S
C141 C140 1.391 . S
C141 C142 1.392 . S
C141 H170 0.947 . S
C142 C141 1.392 . S
C142 C143 1.419 . S
C142 H171 0.948 . S
C143 C142 1.419 . S
C143 C144 1.391 . S
C143 C147 1.397 . S
C144 C139 1.391 . S
C144 C143 1.391 . S
C144 C145 1.399 . S
C145 C144 1.399 . S
C145 C146 1.396 . S
C145 C148 1.453 . S
C145 C149 1.684 . S
C146 C127 1.723 . S
C146 C145 1.396 . S
C146 C147 1.394 . S
C147 C143 1.397 . S
C147 C146 1.394 . S
C147 C157 1.723 . S
C148 C145 1.453 . S
C148 H172 0.982 . S
C148 H173 0.979 . S
C148 H174 0.977 . S
C149 C145 1.684 . S
C149 H175 0.979 . S
C149 H176 0.980 . S
C149 H177 0.983 . S
C150 H126 0.948 . S
C150 C151 1.391 . S
C150 C155 1.391 . S
C151 C150 1.391 . S
C151 C152 1.391 . S
C152 H129 0.947 . S
C152 C151 1.391 . S
C152 C153 1.392 . S
C153 H130 0.948 . S
C153 C152 1.392 . S
C153 C154 1.419 . S
C154 C153 1.419 . S
C154 C155 1.391 . S
C154 C158 1.397 . S
C155 C150 1.391 . S
C155 C154 1.391 . S
C155 C156 1.399 . S
C156 C155 1.399 . S
C156 C157 1.396 . S
C156 C159 1.453 . S
C156 C160 1.684 . S
C157 C147 1.723 . S
C157 C156 1.396 . S
C157 C158 1.394 . S
C158 C128 1.723 . S
C158 C154 1.397 . S
C158 C157 1.394 . S
C159 H131 0.982 . S
C159 H135 0.979 . S
C159 H136 0.977 . S
C159 C156 1.453 . S
C160 H132 0.979 . S
C160 H133 0.980 . S
C160 H134 0.983 . S
C160 C156 1.684 . S
H161 C179 0.948 . S
H162 C120 0.948 . S
H163 C138 0.979 . S
H164 C138 0.980 . S
H165 C138 0.983 . S
H166 C137 0.982 . S
H167 C137 0.979 . S
H168 C137 0.977 . S
H169 C139 0.948 . S
H170 C141 0.947 . S
H171 C142 0.948 . S
H172 C148 0.982 . S
H173 C148 0.979 . S
H174 C148 0.977 . S
H175 C149 0.979 . S
H176 C149 0.980 . S
H177 C149 0.983 . S
H178 C122 0.947 . S
C179 C122 1.392 . S
C179 C123 1.419 . S
C179 H161 0.948 . S
C180 C181 1.391 . S
C180 C184 1.391 . S
C180 H222 0.948 . S
C181 C180 1.391 . S
C181 C182 1.391 . S
C182 C181 1.391 . S
C182 H238 0.947 . S
C182 C239 1.392 . S
C183 C184 1.391 . S
C183 C187 1.397 . S
C183 C239 1.419 . S
C184 C180 1.391 . S
C184 C183 1.391 . S
C184 C185 1.399 . S
C185 C184 1.399 . S
C185 C188 1.396 . S
C185 C197 1.453 . S
C185 C198 1.684 . S
H186 C210 0.948 . S
C187 C183 1.397 . S
C187 C188 1.394 . S
C187 C206 1.723 . S
C188 C185 1.396 . S
C188 C187 1.394 . S
C188 C218 1.723 . S
H189 C212 0.947 . S
H190 C213 0.948 . S
H191 C219 0.982 . S
H192 C220 0.979 . S
H193 C220 0.980 . S
H194 C220 0.983 . S
H195 C219 0.979 . S
H196 C219 0.977 . S
C197 C185 1.453 . S
C197 H226 0.982 . S
C197 H227 0.979 . S
C197 H228 0.977 . S
C198 C185 1.684 . S
C198 H223 0.979 . S
C198 H224 0.980 . S
C198 H225 0.983 . S
C199 C200 1.391 . S
C199 C204 1.391 . S
C199 H229 0.948 . S
C200 C199 1.391 . S
C200 C201 1.391 . S
C201 C200 1.391 . S
C201 C202 1.392 . S
C201 H230 0.947 . S
C202 C201 1.392 . S
C202 C203 1.419 . S
C202 H231 0.948 . S
C203 C202 1.419 . S
C203 C204 1.391 . S
C203 C207 1.397 . S
C204 C199 1.391 . S
C204 C203 1.391 . S
C204 C205 1.399 . S
C205 C204 1.399 . S
C205 C206 1.396 . S
C205 C208 1.453 . S
C205 C209 1.684 . S
C206 C187 1.723 . S
C206 C205 1.396 . S
C206 C207 1.394 . S
C207 C203 1.397 . S
C207 C206 1.394 . S
C207 C217 1.723 . S
C208 C205 1.453 . S
C208 H232 0.982 . S
C208 H233 0.979 . S
C208 H234 0.977 . S
C209 C205 1.684 . S
C209 H235 0.979 . S
C209 H236 0.980 . S
C209 H237 0.983 . S
C210 H186 0.948 . S
C210 C211 1.391 . S
C210 C215 1.391 . S
C211 C210 1.391 . S
C211 C212 1.391 . S
C212 H189 0.947 . S
C212 C211 1.391 . S
C212 C213 1.392 . S
C213 H190 0.948 . S
C213 C212 1.392 . S
C213 C214 1.419 . S
C214 C213 1.419 . S
C214 C215 1.391 . S
C214 C218 1.397 . S
C215 C210 1.391 . S
C215 C214 1.391 . S
C215 C216 1.399 . S
C216 C215 1.399 . S
C216 C217 1.396 . S
C216 C219 1.453 . S
C216 C220 1.684 . S
C217 C207 1.723 . S
C217 C216 1.396 . S
C217 C218 1.394 . S
C218 C188 1.723 . S
C218 C214 1.397 . S
C218 C217 1.394 . S
C219 H191 0.982 . S
C219 H195 0.979 . S
C219 H196 0.977 . S
C219 C216 1.453 . S
C220 H192 0.979 . S
C220 H193 0.980 . S
C220 H194 0.983 . S
C220 C216 1.684 . S
H221 C239 0.948 . S
H222 C180 0.948 . S
H223 C198 0.979 . S
H224 C198 0.980 . S
H225 C198 0.983 . S
H226 C197 0.982 . S
H227 C197 0.979 . S
H228 C197 0.977 . S
H229 C199 0.948 . S
H230 C201 0.947 . S
H231 C202 0.948 . S
H232 C208 0.982 . S
H233 C208 0.979 . S
H234 C208 0.977 . S
H235 C209 0.979 . S
H236 C209 0.980 . S
H237 C209 0.983 . S
H238 C182 0.947 . S
C239 C182 1.392 . S
C239 C183 1.419 . S
C239 H221 0.948 . S
C240 C241 1.391 . S
C240 C244 1.391 . S
C240 H282 0.948 . S
C241 C240 1.391 . S
C241 C242 1.391 . S
C242 C241 1.391 . S
C242 H298 0.947 . S
C242 C299 1.392 . S
C243 C244 1.391 . S
C243 C247 1.397 . S
C243 C299 1.419 . S
C244 C240 1.391 . S
C244 C243 1.391 . S
C244 C245 1.399 . S
C245 C244 1.399 . S
C245 C248 1.396 . S
C245 C257 1.453 . S
C245 C258 1.684 . S
H246 C270 0.948 . S
C247 C243 1.397 . S
C247 C248 1.394 . S
C247 C266 1.723 . S
C248 C245 1.396 . S
C248 C247 1.394 . S
C248 C278 1.723 . S
H249 C272 0.947 . S
H250 C273 0.948 . S
H251 C279 0.982 . S
H252 C280 0.979 1_655 S
H253 C280 0.980 . S
H254 C280 0.983 . S
H255 C279 0.979 . S
H256 C279 0.977 . S
C257 C245 1.453 . S
C257 H286 0.982 . S
C257 H287 0.979 . S
C257 H288 0.977 . S
C258 C245 1.684 . S
C258 H283 0.979 1_455 S
C258 H284 0.980 . S
C258 H285 0.983 . S
C259 C260 1.391 . S
C259 C264 1.391 . S
C259 H289 0.948 . S
C260 C259 1.391 . S
C260 C261 1.391 . S
C261 C260 1.391 . S
C261 C262 1.392 . S
C261 H290 0.947 . S
C262 C261 1.392 . S
C262 C263 1.419 . S
C262 H291 0.948 . S
C263 C262 1.419 . S
C263 C264 1.391 . S
C263 C267 1.397 . S
C264 C259 1.391 . S
C264 C263 1.391 . S
C264 C265 1.399 . S
C265 C264 1.399 . S
C265 C266 1.396 . S
C265 C268 1.453 . S
C265 C269 1.684 . S
C266 C247 1.723 . S
C266 C265 1.396 . S
C266 C267 1.394 . S
C267 C263 1.397 . S
C267 C266 1.394 . S
C267 C277 1.723 . S
C268 C265 1.453 . S
C268 H292 0.982 . S
C268 H293 0.979 . S
C268 H294 0.977 . S
C269 C265 1.684 . S
C269 H295 0.979 1_455 S
C269 H296 0.980 . S
C269 H297 0.983 . S
C270 H246 0.948 . S
C270 C271 1.391 . S
C270 C275 1.391 . S
C271 C270 1.391 . S
C271 C272 1.391 . S
C272 H249 0.947 . S
C272 C271 1.391 . S
C272 C273 1.392 . S
C273 H250 0.948 . S
C273 C272 1.392 . S
C273 C274 1.419 . S
C274 C273 1.419 . S
C274 C275 1.391 . S
C274 C278 1.397 . S
C275 C270 1.391 . S
C275 C274 1.391 . S
C275 C276 1.399 . S
C276 C275 1.399 . S
C276 C277 1.396 . S
C276 C279 1.453 . S
C276 C280 1.684 . S
C277 C267 1.723 . S
C277 C276 1.396 . S
C277 C278 1.394 . S
C278 C248 1.723 . S
C278 C274 1.397 . S
C278 C277 1.394 . S
C279 H251 0.982 . S
C279 H255 0.979 . S
C279 H256 0.977 . S
C279 C276 1.453 . S
C280 H252 0.979 1_455 S
C280 H253 0.980 . S
C280 H254 0.983 . S
C280 C276 1.684 . S
H281 C299 0.948 . S
H282 C240 0.948 . S
H283 C258 0.979 1_655 S
H284 C258 0.980 . S
H285 C258 0.983 . S
H286 C257 0.982 . S
H287 C257 0.979 . S
H288 C257 0.977 . S
H289 C259 0.948 . S
H290 C261 0.947 . S
H291 C262 0.948 . S
H292 C268 0.982 . S
H293 C268 0.979 . S
H294 C268 0.977 . S
H295 C269 0.979 1_655 S
H296 C269 0.980 . S
H297 C269 0.983 . S
H298 C242 0.947 . S
C299 C242 1.392 . S
C299 C243 1.419 . S
C299 H281 0.948 . S
C300 C301 1.391 . S
C300 C304 1.391 . S
C300 H342 0.948 . S
C301 C300 1.391 . S
C301 C302 1.391 . S
C302 C301 1.391 . S
C302 H358 0.947 . S
C302 C359 1.392 . S
C303 C304 1.391 . S
C303 C307 1.397 . S
C303 C359 1.419 . S
C304 C300 1.391 . S
C304 C303 1.391 . S
C304 C305 1.399 . S
C305 C304 1.399 . S
C305 C308 1.396 . S
C305 C317 1.453 . S
C305 C318 1.684 . S
H306 C330 0.948 . S
C307 C303 1.397 . S
C307 C308 1.394 . S
C307 C326 1.723 . S
C308 C305 1.396 . S
C308 C307 1.394 . S
C308 C338 1.723 . S
H309 C332 0.947 . S
H310 C333 0.948 . S
H311 C339 0.982 . S
H312 C340 0.979 . S
H313 C340 0.980 . S
H314 C340 0.983 . S
H315 C339 0.979 . S
H316 C339 0.977 . S
C317 C305 1.453 . S
C317 H346 0.982 . S
C317 H347 0.979 . S
C317 H348 0.977 . S
C318 C305 1.684 . S
C318 H343 0.979 . S
C318 H344 0.980 . S
C318 H345 0.983 . S
C319 C320 1.391 . S
C319 C324 1.391 . S
C319 H349 0.948 . S
C320 C319 1.391 . S
C320 C321 1.391 . S
C321 C320 1.391 . S
C321 C322 1.392 . S
C321 H350 0.947 . S
C322 C321 1.392 . S
C322 C323 1.419 . S
C322 H351 0.948 . S
C323 C322 1.419 . S
C323 C324 1.391 . S
C323 C327 1.397 . S
C324 C319 1.391 . S
C324 C323 1.391 . S
C324 C325 1.399 . S
C325 C324 1.399 . S
C325 C326 1.396 . S
C325 C328 1.453 . S
C325 C329 1.684 . S
C326 C307 1.723 . S
C326 C325 1.396 . S
C326 C327 1.394 . S
C327 C323 1.397 . S
C327 C326 1.394 . S
C327 C337 1.723 . S
C328 C325 1.453 . S
C328 H352 0.982 . S
C328 H353 0.979 . S
C328 H354 0.977 . S
C329 C325 1.684 . S
C329 H355 0.979 . S
C329 H356 0.980 . S
C329 H357 0.983 . S
C330 H306 0.948 . S
C330 C331 1.391 . S
C330 C335 1.391 . S
C331 C330 1.391 . S
C331 C332 1.391 . S
C332 H309 0.947 . S
C332 C331 1.391 . S
C332 C333 1.392 . S
C333 H310 0.948 . S
C333 C332 1.392 . S
C333 C334 1.419 . S
C334 C333 1.419 . S
C334 C335 1.391 . S
C334 C338 1.397 . S
C335 C330 1.391 . S
C335 C334 1.391 . S
C335 C336 1.399 . S
C336 C335 1.399 . S
C336 C337 1.396 . S
C336 C339 1.453 . S
C336 C340 1.684 . S
C337 C327 1.723 . S
C337 C336 1.396 . S
C337 C338 1.394 . S
C338 C308 1.723 . S
C338 C334 1.397 . S
C338 C337 1.394 . S
C339 H311 0.982 . S
C339 H315 0.979 . S
C339 H316 0.977 . S
C339 C336 1.453 . S
C340 H312 0.979 . S
C340 H313 0.980 . S
C340 H314 0.983 . S
C340 C336 1.684 . S
H341 C359 0.948 . S
H342 C300 0.948 . S
H343 C318 0.979 . S
H344 C318 0.980 . S
H345 C318 0.983 . S
H346 C317 0.982 . S
H347 C317 0.979 . S
H348 C317 0.977 . S
H349 C319 0.948 . S
H350 C321 0.947 . S
H351 C322 0.948 . S
H352 C328 0.982 . S
H353 C328 0.979 . S
H354 C328 0.977 . S
H355 C329 0.979 . S
H356 C329 0.980 . S
H357 C329 0.983 . S
H358 C302 0.947 . S
C359 C302 1.392 . S
C359 C303 1.419 . S
C359 H341 0.948 . S
C360 C361 1.391 . S
C360 C364 1.391 . S
C360 H402 0.948 . S
C361 C360 1.391 . S
C361 C362 1.391 . S
C362 C361 1.391 . S
C362 H418 0.947 . S
C362 C419 1.392 . S
C363 C364 1.391 . S
C363 C367 1.397 . S
C363 C419 1.419 . S
C364 C360 1.391 . S
C364 C363 1.391 . S
C364 C365 1.399 . S
C365 C364 1.399 . S
C365 C368 1.396 . S
C365 C377 1.453 . S
C365 C378 1.684 . S
H366 C390 0.948 . S
C367 C363 1.397 . S
C367 C368 1.394 . S
C367 C386 1.723 . S
C368 C365 1.396 . S
C368 C367 1.394 . S
C368 C398 1.723 . S
H369 C392 0.947 . S
H370 C393 0.948 . S
H371 C399 0.982 . S
H372 C400 0.979 . S
H373 C400 0.980 . S
H374 C400 0.983 . S
H375 C399 0.979 . S
H376 C399 0.977 . S
C377 C365 1.453 . S
C377 H406 0.982 . S
C377 H407 0.979 . S
C377 H408 0.977 . S
C378 C365 1.684 . S
C378 H403 0.979 . S
C378 H404 0.980 . S
C378 H405 0.983 . S
C379 C380 1.391 . S
C379 C384 1.391 . S
C379 H409 0.948 . S
C380 C379 1.391 . S
C380 C381 1.391 . S
C381 C380 1.391 . S
C381 C382 1.392 . S
C381 H410 0.947 . S
C382 C381 1.392 . S
C382 C383 1.419 . S
C382 H411 0.948 . S
C383 C382 1.419 . S
C383 C384 1.391 . S
C383 C387 1.397 . S
C384 C379 1.391 . S
C384 C383 1.391 . S
C384 C385 1.399 . S
C385 C384 1.399 . S
C385 C386 1.396 . S
C385 C388 1.453 . S
C385 C389 1.684 . S
C386 C367 1.723 . S
C386 C385 1.396 . S
C386 C387 1.394 . S
C387 C383 1.397 . S
C387 C386 1.394 . S
C387 C397 1.723 . S
C388 C385 1.453 . S
C388 H412 0.982 . S
C388 H413 0.979 . S
C388 H414 0.977 . S
C389 C385 1.684 . S
C389 H415 0.979 . S
C389 H416 0.980 . S
C389 H417 0.983 . S
C390 H366 0.948 . S
C390 C391 1.391 . S
C390 C395 1.391 . S
C391 C390 1.391 . S
C391 C392 1.391 . S
C392 H369 0.947 . S
C392 C391 1.391 . S
C392 C393 1.392 . S
C393 H370 0.948 . S
C393 C392 1.392 . S
C393 C394 1.419 . S
C394 C393 1.419 . S
C394 C395 1.391 . S
C394 C398 1.397 . S
C395 C390 1.391 . S
C395 C394 1.391 . S
C395 C396 1.399 . S
C396 C395 1.399 . S
C396 C397 1.396 . S
C396 C399 1.453 . S
C396 C400 1.684 . S
C397 C387 1.723 . S
C397 C396 1.396 . S
C397 C398 1.394 . S
C398 C368 1.723 . S
C398 C394 1.397 . S
C398 C397 1.394 . S
C399 H371 0.982 . S
C399 H375 0.979 . S
C399 H376 0.977 . S
C399 C396 1.453 . S
C400 H372 0.979 . S
C400 H373 0.980 . S
C400 H374 0.983 . S
C400 C396 1.684 . S
H401 C419 0.948 . S
H402 C360 0.948 . S
H403 C378 0.979 . S
H404 C378 0.980 . S
H405 C378 0.983 . S
H406 C377 0.982 . S
H407 C377 0.979 . S
H408 C377 0.977 . S
H409 C379 0.948 . S
H410 C381 0.947 . S
H411 C382 0.948 . S
H412 C388 0.982 . S
H413 C388 0.979 . S
H414 C388 0.977 . S
H415 C389 0.979 . S
H416 C389 0.980 . S
H417 C389 0.983 . S
H418 C362 0.947 . S
C419 C362 1.392 . S
C419 C363 1.419 . S
C419 H401 0.948 . S
C420 C421 1.391 . S
C420 C424 1.391 . S
C420 H462 0.948 . S
C421 C420 1.391 . S
C421 C422 1.391 . S
C422 C421 1.391 . S
C422 H478 0.947 . S
C422 C479 1.392 . S
C423 C424 1.391 . S
C423 C427 1.397 . S
C423 C479 1.419 . S
C424 C420 1.391 . S
C424 C423 1.391 . S
C424 C425 1.399 . S
C425 C424 1.399 . S
C425 C428 1.396 . S
C425 C437 1.453 . S
C425 C438 1.684 . S
H426 C450 0.948 1_655 S
C427 C423 1.397 . S
C427 C428 1.394 . S
C427 C446 1.723 . S
C428 C425 1.396 . S
C428 C427 1.394 . S
C428 C458 1.723 . S
H429 C452 0.947 . S
H430 C453 0.948 . S
H431 C459 0.982 . S
H432 C460 0.979 . S
H433 C460 0.980 . S
H434 C460 0.983 . S
H435 C459 0.979 . S
H436 C459 0.977 . S
C437 C425 1.453 . S
C437 H466 0.982 . S
C437 H467 0.979 . S
C437 H468 0.977 . S
C438 C425 1.684 . S
C438 H463 0.979 . S
C438 H464 0.980 . S
C438 H465 0.983 . S
C439 C440 1.391 . S
C439 C444 1.391 . S
C439 H469 0.948 . S
C440 C439 1.391 . S
C440 C441 1.391 . S
C441 C440 1.391 . S
C441 C442 1.392 . S
C441 H470 0.947 . S
C442 C441 1.392 . S
C442 C443 1.419 . S
C442 H471 0.948 . S
C443 C442 1.419 . S
C443 C444 1.391 . S
C443 C447 1.397 . S
C444 C439 1.391 . S
C444 C443 1.391 . S
C444 C445 1.399 . S
C445 C444 1.399 . S
C445 C446 1.396 . S
C445 C448 1.453 . S
C445 C449 1.684 . S
C446 C427 1.723 . S
C446 C445 1.396 . S
C446 C447 1.394 . S
C447 C443 1.397 . S
C447 C446 1.394 . S
C447 C457 1.723 . S
C448 C445 1.453 . S
C448 H472 0.982 . S
C448 H473 0.979 . S
C448 H474 0.977 . S
C449 C445 1.684 . S
C449 H475 0.979 . S
C449 H476 0.980 . S
C449 H477 0.983 . S
C450 H426 0.948 1_455 S
C450 C451 1.391 1_455 S
C450 C455 1.391 . S
C451 C450 1.391 1_655 S
C451 C452 1.391 1_655 S
C452 H429 0.947 . S
C452 C451 1.391 1_455 S
C452 C453 1.392 . S
C453 H430 0.948 . S
C453 C452 1.392 . S
C453 C454 1.419 . S
C454 C453 1.419 . S
C454 C455 1.391 . S
C454 C458 1.397 . S
C455 C450 1.391 . S
C455 C454 1.391 . S
C455 C456 1.399 . S
C456 C455 1.399 . S
C456 C457 1.396 . S
C456 C459 1.453 . S
C456 C460 1.684 . S
C457 C447 1.723 . S
C457 C456 1.396 . S
C457 C458 1.394 . S
C458 C428 1.723 . S
C458 C454 1.397 . S
C458 C457 1.394 . S
C459 H431 0.982 . S
C459 H435 0.979 . S
C459 H436 0.977 . S
C459 C456 1.453 . S
C460 H432 0.979 . S
C460 H433 0.980 . S
C460 H434 0.983 . S
C460 C456 1.684 . S
H461 C479 0.948 . S
H462 C420 0.948 . S
H463 C438 0.979 . S
H464 C438 0.980 . S
H465 C438 0.983 . S
H466 C437 0.982 . S
H467 C437 0.979 . S
H468 C437 0.977 . S
H469 C439 0.948 . S
H470 C441 0.947 . S
H471 C442 0.948 . S
H472 C448 0.982 . S
H473 C448 0.979 . S
H474 C448 0.977 . S
H475 C449 0.979 . S
H476 C449 0.980 . S
H477 C449 0.983 . S
H478 C422 0.947 . S
C479 C422 1.392 . S
C479 C423 1.419 . S
C479 H461 0.948 . S
Zn480 O486 1.920 . S
Zn480 O492 1.898 . S
Zn480 O495 1.905 . S
Zn481 O489 1.905 . S
Zn481 O490 1.898 . S
Zn481 O498 1.920 . S
Zn482 O485 2.080 . S
Zn482 O488 2.114 . S
Zn482 O491 2.120 . S
Zn482 O493 2.120 . S
Zn482 O494 2.114 . S
Zn482 O497 2.080 . S
C483 O488 1.166 . S
C483 O489 1.182 . S
C484 O490 1.167 . S
C484 O491 1.299 . S
O485 Zn482 2.080 . S
O485 C499 1.305 . S
O486 Zn480 1.920 . S
O486 C499 1.234 . S
C487 O492 1.167 . S
C487 O493 1.299 . S
O488 Zn482 2.114 . S
O488 C483 1.166 . S
O489 Zn481 1.905 . S
O489 C483 1.182 . S
O490 Zn481 1.898 . S
O490 C484 1.167 . S
O491 Zn482 2.120 . S
O491 C484 1.299 . S
O492 Zn480 1.898 . S
O492 C487 1.167 . S
O493 Zn482 2.120 . S
O493 C487 1.299 . S
O494 Zn482 2.114 . S
O494 C496 1.166 . S
O495 Zn480 1.905 . S
O495 C496 1.182 . S
C496 O494 1.166 . S
C496 O495 1.182 . S
O497 Zn482 2.080 . S
O497 C500 1.305 . S
O498 Zn481 1.920 . S
O498 C500 1.234 . S
C499 O485 1.305 . S
C499 O486 1.234 . S
C500 O497 1.305 . S
C500 O498 1.234 . S
Zn501 O507 1.920 . S
Zn501 O513 1.898 . S
Zn501 O516 1.905 . S
Zn502 O510 1.905 . S
Zn502 O511 1.898 . S
Zn502 O519 1.920 . S
Zn503 O506 2.080 . S
Zn503 O509 2.114 . S
Zn503 O512 2.120 . S
Zn503 O514 2.120 . S
Zn503 O515 2.114 . S
Zn503 O518 2.080 . S
C504 O509 1.166 . S
C504 O510 1.182 . S
C505 O511 1.167 . S
C505 O512 1.299 . S
O506 Zn503 2.080 . S
O506 C520 1.305 . S
O507 Zn501 1.920 . S
O507 C520 1.234 . S
C508 O513 1.167 . S
C508 O514 1.299 . S
O509 Zn503 2.114 . S
O509 C504 1.166 . S
O510 Zn502 1.905 . S
O510 C504 1.182 . S
O511 Zn502 1.898 . S
O511 C505 1.167 . S
O512 Zn503 2.120 . S
O512 C505 1.299 . S
O513 Zn501 1.898 . S
O513 C508 1.167 . S
O514 Zn503 2.120 . S
O514 C508 1.299 . S
O515 Zn503 2.114 . S
O515 C517 1.166 . S
O516 Zn501 1.905 . S
O516 C517 1.182 . S
C517 O515 1.166 . S
C517 O516 1.182 . S
O518 Zn503 2.080 . S
O518 C521 1.305 . S
O519 Zn502 1.920 . S
O519 C521 1.234 . S
C520 O506 1.305 . S
C520 O507 1.234 . S
C521 O518 1.305 . S
C521 O519 1.234 . S
Zn522 O528 1.920 . S
Zn522 O534 1.898 . S
Zn522 O537 1.905 . S
Zn523 O531 1.905 . S
Zn523 O532 1.898 . S
Zn523 O540 1.920 . S
Zn524 O527 2.080 . S
Zn524 O530 2.114 . S
Zn524 O533 2.120 . S
Zn524 O535 2.120 . S
Zn524 O536 2.114 . S
Zn524 O539 2.080 . S
C525 O530 1.166 . S
C525 O531 1.182 . S
C526 O532 1.167 . S
C526 O533 1.299 . S
O527 Zn524 2.080 . S
O527 C541 1.305 . S
O528 Zn522 1.920 . S
O528 C541 1.234 . S
C529 O534 1.167 . S
C529 O535 1.299 . S
O530 Zn524 2.114 . S
O530 C525 1.166 . S
O531 Zn523 1.905 . S
O531 C525 1.182 . S
O532 Zn523 1.898 . S
O532 C526 1.167 . S
O533 Zn524 2.120 . S
O533 C526 1.299 . S
O534 Zn522 1.898 . S
O534 C529 1.167 . S
O535 Zn524 2.120 . S
O535 C529 1.299 . S
O536 Zn524 2.114 . S
O536 C538 1.166 . S
O537 Zn522 1.905 . S
O537 C538 1.182 . S
C538 O536 1.166 . S
C538 O537 1.182 . S
O539 Zn524 2.080 . S
O539 C542 1.305 . S
O540 Zn523 1.920 . S
O540 C542 1.234 . S
C541 O527 1.305 . S
C541 O528 1.234 . S
C542 O539 1.305 . S
C542 O540 1.234 . S
Zn543 O549 1.920 . S
Zn543 O555 1.898 . S
Zn543 O558 1.905 . S
Zn544 O552 1.905 . S
Zn544 O553 1.898 . S
Zn544 O561 1.920 . S
Zn545 O548 2.080 . S
Zn545 O551 2.114 . S
Zn545 O554 2.120 . S
Zn545 O556 2.120 . S
Zn545 O557 2.114 . S
Zn545 O560 2.080 . S
C546 O551 1.166 . S
C546 O552 1.182 . S
C547 O553 1.167 . S
C547 O554 1.299 . S
O548 Zn545 2.080 . S
O548 C562 1.305 . S
O549 Zn543 1.920 . S
O549 C562 1.234 . S
C550 O555 1.167 . S
C550 O556 1.299 . S
O551 Zn545 2.114 . S
O551 C546 1.166 . S
O552 Zn544 1.905 . S
O552 C546 1.182 . S
O553 Zn544 1.898 . S
O553 C547 1.167 . S
O554 Zn545 2.120 . S
O554 C547 1.299 . S
O555 Zn543 1.898 . S
O555 C550 1.167 . S
O556 Zn545 2.120 . S
O556 C550 1.299 . S
O557 Zn545 2.114 . S
O557 C559 1.166 . S
O558 Zn543 1.905 . S
O558 C559 1.182 . S
C559 O557 1.166 . S
C559 O558 1.182 . S
O560 Zn545 2.080 . S
O560 C563 1.305 . S
O561 Zn544 1.920 . S
O561 C563 1.234 . S
C562 O548 1.305 . S
C562 O549 1.234 . S
C563 O560 1.305 . S
C563 O561 1.234 . S
C564 C565 1.391 . S
C564 C566 1.394 . S
C564 H580 0.931 . S
C565 C564 1.391 . S
C565 C569 1.376 . S
C566 C564 1.394 . S
C566 C567 1.369 . S
C566 C570 1.531 . S
C567 C566 1.369 . S
C567 C568 1.410 . S
C567 C575 1.503 . S
C568 C567 1.410 . S
C568 C569 1.392 . S
C568 C571 1.511 . S
C569 C565 1.376 . S
C569 C568 1.392 . S
C569 H581 0.929 . S
C570 C566 1.531 . S
C570 H582 0.960 . S
C570 H583 0.962 . S
C570 H584 0.960 . S
C571 C568 1.511 . S
C571 H585 0.961 . S
C571 H586 0.961 . S
C571 H587 0.961 . S
C572 C573 1.370 . S
C572 C574 1.363 . S
C572 H588 0.931 . S
C573 C572 1.370 . S
C573 C577 1.408 . S
C574 C572 1.363 . S
C574 C575 1.370 . S
C574 C578 1.524 . S
C575 C567 1.503 . S
C575 C574 1.370 . S
C575 C576 1.403 . S
C576 C575 1.403 . S
C576 C577 1.404 . S
C576 C579 1.539 . S
C577 C573 1.408 . S
C577 C576 1.404 . S
C577 H589 0.930 . S
C578 C574 1.524 . S
C578 H590 0.956 . S
C578 H591 0.961 . S
C578 H592 0.961 . S
C579 C576 1.539 . S
C579 H593 0.958 . S
C579 H594 0.961 . S
C579 H595 0.960 . S
H580 C564 0.931 . S
H581 C569 0.929 . S
H582 C570 0.960 . S
H583 C570 0.962 . S
H584 C570 0.960 . S
H585 C571 0.961 . S
H586 C571 0.961 . S
H587 C571 0.961 . S
H588 C572 0.931 . S
H589 C577 0.930 . S
H590 C578 0.956 . S
H591 C578 0.961 . S
H592 C578 0.961 . S
H593 C579 0.958 . S
H594 C579 0.961 . S
H595 C579 0.960 . S
C596 C597 1.391 . S
C596 C598 1.394 . S
C596 H612 0.931 . S
C597 C596 1.391 . S
C597 C601 1.376 . S
C598 C596 1.394 . S
C598 C599 1.369 . S
C598 C602 1.531 . S
C599 C598 1.369 . S
C599 C600 1.410 . S
C599 C607 1.503 . S
C600 C599 1.410 . S
C600 C601 1.392 . S
C600 C603 1.511 . S
C601 C597 1.376 . S
C601 C600 1.392 . S
C601 H613 0.929 . S
C602 C598 1.531 . S
C602 H614 0.960 . S
C602 H615 0.962 . S
C602 H616 0.960 . S
C603 C600 1.511 . S
C603 H617 0.961 . S
C603 H618 0.961 . S
C603 H619 0.961 . S
C604 C605 1.370 . S
C604 C606 1.363 . S
C604 H620 0.931 . S
C605 C604 1.370 . S
C605 C609 1.408 . S
C606 C604 1.363 . S
C606 C607 1.370 . S
C606 C610 1.524 . S
C607 C599 1.503 . S
C607 C606 1.370 . S
C607 C608 1.403 . S
C608 C607 1.403 . S
C608 C609 1.404 . S
C608 C611 1.539 . S
C609 C605 1.408 . S
C609 C608 1.404 . S
C609 H621 0.930 . S
C610 C606 1.524 . S
C610 H622 0.956 . S
C610 H623 0.961 . S
C610 H624 0.961 . S
C611 C608 1.539 . S
C611 H625 0.958 . S
C611 H626 0.961 . S
C611 H627 0.960 . S
H612 C596 0.931 . S
H613 C601 0.929 . S
H614 C602 0.960 . S
H615 C602 0.962 . S
H616 C602 0.960 . S
H617 C603 0.961 . S
H618 C603 0.961 . S
H619 C603 0.961 . S
H620 C604 0.931 . S
H621 C609 0.930 . S
H622 C610 0.956 . S
H623 C610 0.961 . S
H624 C610 0.961 . S
H625 C611 0.958 . S
H626 C611 0.961 . S
H627 C611 0.960 . S
C628 C629 1.391 . S
C628 C630 1.394 . S
C628 H644 0.931 . S
C629 C628 1.391 . S
C629 C633 1.376 . S
C630 C628 1.394 . S
C630 C631 1.369 . S
C630 C634 1.531 . S
C631 C630 1.369 . S
C631 C632 1.410 . S
C631 C639 1.503 . S
C632 C631 1.410 . S
C632 C633 1.392 . S
C632 C635 1.511 . S
C633 C629 1.376 . S
C633 C632 1.392 . S
C633 H645 0.929 . S
C634 C630 1.531 . S
C634 H646 0.960 . S
C634 H647 0.962 . S
C634 H648 0.960 . S
C635 C632 1.511 . S
C635 H649 0.961 . S
C635 H650 0.961 . S
C635 H651 0.961 . S
C636 C637 1.370 . S
C636 C638 1.363 . S
C636 H652 0.931 . S
C637 C636 1.370 . S
C637 C641 1.408 . S
C638 C636 1.363 . S
C638 C639 1.370 . S
C638 C642 1.524 . S
C639 C631 1.503 . S
C639 C638 1.370 . S
C639 C640 1.403 . S
C640 C639 1.403 . S
C640 C641 1.404 . S
C640 C643 1.539 . S
C641 C637 1.408 . S
C641 C640 1.404 . S
C641 H653 0.930 . S
C642 C638 1.524 . S
C642 H654 0.956 . S
C642 H655 0.961 . S
C642 H656 0.961 . S
C643 C640 1.539 . S
C643 H657 0.958 . S
C643 H658 0.961 . S
C643 H659 0.960 . S
H644 C628 0.931 . S
H645 C633 0.929 . S
H646 C634 0.960 . S
H647 C634 0.962 . S
H648 C634 0.960 . S
H649 C635 0.961 . S
H650 C635 0.961 . S
H651 C635 0.961 . S
H652 C636 0.931 . S
H653 C641 0.930 . S
H654 C642 0.956 . S
H655 C642 0.961 . S
H656 C642 0.961 . S
H657 C643 0.958 . S
H658 C643 0.961 . S
H659 C643 0.960 . S
C660 C661 1.391 . S
C660 C662 1.394 . S
C660 H676 0.931 . S
C661 C660 1.391 . S
C661 C665 1.376 . S
C662 C660 1.394 . S
C662 C663 1.369 . S
C662 C666 1.531 . S
C663 C662 1.369 . S
C663 C664 1.410 . S
C663 C671 1.503 . S
C664 C663 1.410 . S
C664 C665 1.392 . S
C664 C667 1.511 . S
C665 C661 1.376 . S
C665 C664 1.392 . S
C665 H677 0.929 . S
C666 C662 1.531 . S
C666 H678 0.960 . S
C666 H679 0.962 . S
C666 H680 0.960 . S
C667 C664 1.511 . S
C667 H681 0.961 . S
C667 H682 0.961 . S
C667 H683 0.961 . S
C668 C669 1.370 1_655 S
C668 C670 1.363 . S
C668 H684 0.931 . S
C669 C668 1.370 1_455 S
C669 C673 1.408 1_455 S
C670 C668 1.363 . S
C670 C671 1.370 . S
C670 C674 1.524 . S
C671 C663 1.503 . S
C671 C670 1.370 . S
C671 C672 1.403 . S
C672 C671 1.403 . S
C672 C673 1.404 . S
C672 C675 1.539 . S
C673 C669 1.408 1_655 S
C673 C672 1.404 . S
C673 H685 0.930 . S
C674 C670 1.524 . S
C674 H686 0.956 . S
C674 H687 0.961 . S
C674 H688 0.961 . S
C675 C672 1.539 . S
C675 H689 0.958 . S
C675 H690 0.961 . S
C675 H691 0.960 . S
H676 C660 0.931 . S
H677 C665 0.929 . S
H678 C666 0.960 . S
H679 C666 0.962 . S
H680 C666 0.960 . S
H681 C667 0.961 . S
H682 C667 0.961 . S
H683 C667 0.961 . S
H684 C668 0.931 . S
H685 C673 0.930 . S
H686 C674 0.956 . S
H687 C674 0.961 . S
H688 C674 0.961 . S
H689 C675 0.958 . S
H690 C675 0.961 . S
H691 C675 0.960 . S
C692 C693 1.391 . S
C692 C694 1.394 . S
C692 H708 0.931 . S
C693 C692 1.391 . S
C693 C697 1.376 . S
C694 C692 1.394 . S
C694 C695 1.369 . S
C694 C698 1.531 . S
C695 C694 1.369 . S
C695 C696 1.410 . S
C695 C703 1.503 . S
C696 C695 1.410 . S
C696 C697 1.392 . S
C696 C699 1.511 . S
C697 C693 1.376 . S
C697 C696 1.392 . S
C697 H709 0.929 . S
C698 C694 1.531 . S
C698 H710 0.960 . S
C698 H711 0.962 . S
C698 H712 0.960 . S
C699 C696 1.511 . S
C699 H713 0.961 . S
C699 H714 0.961 . S
C699 H715 0.961 . S
C700 C701 1.370 . S
C700 C702 1.363 . S
C700 H716 0.931 . S
C701 C700 1.370 . S
C701 C705 1.408 . S
C702 C700 1.363 . S
C702 C703 1.370 . S
C702 C706 1.524 . S
C703 C695 1.503 . S
C703 C702 1.370 . S
C703 C704 1.403 . S
C704 C703 1.403 . S
C704 C705 1.404 . S
C704 C707 1.539 . S
C705 C701 1.408 . S
C705 C704 1.404 . S
C705 H717 0.930 . S
C706 C702 1.524 . S
C706 H718 0.956 . S
C706 H719 0.961 . S
C706 H720 0.961 . S
C707 C704 1.539 . S
C707 H721 0.958 . S
C707 H722 0.961 . S
C707 H723 0.960 . S
H708 C692 0.931 . S
H709 C697 0.929 . S
H710 C698 0.960 . S
H711 C698 0.962 . S
H712 C698 0.960 . S
H713 C699 0.961 . S
H714 C699 0.961 . S
H715 C699 0.961 . S
H716 C700 0.931 . S
H717 C705 0.930 . S
H718 C706 0.956 . S
H719 C706 0.961 . S
H720 C706 0.961 . S
H721 C707 0.958 . S
H722 C707 0.961 . S
H723 C707 0.960 . S
C724 C725 1.391 . S
C724 C726 1.394 . S
C724 H740 0.931 . S
C725 C724 1.391 . S
C725 C729 1.376 . S
C726 C724 1.394 . S
C726 C727 1.369 . S
C726 C730 1.531 . S
C727 C726 1.369 . S
C727 C728 1.410 . S
C727 C735 1.503 . S
C728 C727 1.410 . S
C728 C729 1.392 . S
C728 C731 1.511 . S
C729 C725 1.376 . S
C729 C728 1.392 . S
C729 H741 0.929 . S
C730 C726 1.531 . S
C730 H742 0.960 . S
C730 H743 0.962 . S
C730 H744 0.960 . S
C731 C728 1.511 . S
C731 H745 0.961 . S
C731 H746 0.961 . S
C731 H747 0.961 . S
C732 C733 1.370 1_655 S
C732 C734 1.363 . S
C732 H748 0.931 1_655 S
C733 C732 1.370 1_455 S
C733 C737 1.408 1_455 S
C734 C732 1.363 . S
C734 C735 1.370 . S
C734 C738 1.524 . S
C735 C727 1.503 . S
C735 C734 1.370 . S
C735 C736 1.403 . S
C736 C735 1.403 . S
C736 C737 1.404 . S
C736 C739 1.539 . S
C737 C733 1.408 1_655 S
C737 C736 1.404 . S
C737 H749 0.930 . S
C738 C734 1.524 . S
C738 H750 0.956 . S
C738 H751 0.961 . S
C738 H752 0.961 . S
C739 C736 1.539 . S
C739 H753 0.958 . S
C739 H754 0.961 . S
C739 H755 0.960 . S
H740 C724 0.931 . S
H741 C729 0.929 . S
H742 C730 0.960 . S
H743 C730 0.962 . S
H744 C730 0.960 . S
H745 C731 0.961 . S
H746 C731 0.961 . S
H747 C731 0.961 . S
H748 C732 0.931 1_455 S
H749 C737 0.930 . S
H750 C738 0.956 . S
H751 C738 0.961 . S
H752 C738 0.961 . S
H753 C739 0.958 . S
H754 C739 0.961 . S
H755 C739 0.960 . S
C756 C757 1.391 . S
C756 C758 1.394 . S
C756 H772 0.931 . S
C757 C756 1.391 . S
C757 C761 1.376 . S
C758 C756 1.394 . S
C758 C759 1.369 . S
C758 C762 1.531 . S
C759 C758 1.369 . S
C759 C760 1.410 . S
C759 C767 1.503 . S
C760 C759 1.410 . S
C760 C761 1.392 . S
C760 C763 1.511 . S
C761 C757 1.376 . S
C761 C760 1.392 . S
C761 H773 0.929 . S
C762 C758 1.531 . S
C762 H774 0.960 . S
C762 H775 0.962 . S
C762 H776 0.960 . S
C763 C760 1.511 . S
C763 H777 0.961 . S
C763 H778 0.961 . S
C763 H779 0.961 . S
C764 C765 1.370 . S
C764 C766 1.363 . S
C764 H780 0.931 . S
C765 C764 1.370 . S
C765 C769 1.408 . S
C766 C764 1.363 . S
C766 C767 1.370 . S
C766 C770 1.524 . S
C767 C759 1.503 . S
C767 C766 1.370 . S
C767 C768 1.403 . S
C768 C767 1.403 . S
C768 C769 1.404 . S
C768 C771 1.539 . S
C769 C765 1.408 . S
C769 C768 1.404 . S
C769 H781 0.930 . S
C770 C766 1.524 . S
C770 H782 0.956 . S
C770 H783 0.961 . S
C770 H784 0.961 . S
C771 C768 1.539 . S
C771 H785 0.958 . S
C771 H786 0.961 . S
C771 H787 0.960 . S
H772 C756 0.931 . S
H773 C761 0.929 . S
H774 C762 0.960 . S
H775 C762 0.962 . S
H776 C762 0.960 . S
H777 C763 0.961 . S
H778 C763 0.961 . S
H779 C763 0.961 . S
H780 C764 0.931 . S
H781 C769 0.930 . S
H782 C770 0.956 . S
H783 C770 0.961 . S
H784 C770 0.961 . S
H785 C771 0.958 . S
H786 C771 0.961 . S
H787 C771 0.960 . S
C788 C789 1.391 . S
C788 C790 1.394 . S
C788 H804 0.931 . S
C789 C788 1.391 . S
C789 C793 1.376 . S
C790 C788 1.394 . S
C790 C791 1.369 . S
C790 C794 1.531 . S
C791 C790 1.369 . S
C791 C792 1.410 . S
C791 C799 1.503 . S
C792 C791 1.410 . S
C792 C793 1.392 . S
C792 C795 1.511 . S
C793 C789 1.376 . S
C793 C792 1.392 . S
C793 H805 0.929 . S
C794 C790 1.531 . S
C794 H806 0.960 . S
C794 H807 0.962 . S
C794 H808 0.960 . S
C795 C792 1.511 . S
C795 H809 0.961 . S
C795 H810 0.961 . S
C795 H811 0.961 . S
C796 C797 1.370 . S
C796 C798 1.363 . S
C796 H812 0.931 . S
C797 C796 1.370 . S
C797 C801 1.408 . S
C798 C796 1.363 . S
C798 C799 1.370 . S
C798 C802 1.524 . S
C799 C791 1.503 . S
C799 C798 1.370 . S
C799 C800 1.403 . S
C800 C799 1.403 . S
C800 C801 1.404 . S
C800 C803 1.539 . S
C801 C797 1.408 . S
C801 C800 1.404 . S
C801 H813 0.930 . S
C802 C798 1.524 . S
C802 H814 0.956 . S
C802 H815 0.961 . S
C802 H816 0.961 . S
C803 C800 1.539 . S
C803 H817 0.958 . S
C803 H818 0.961 . S
C803 H819 0.960 . S
H804 C788 0.931 . S
H805 C793 0.929 . S
H806 C794 0.960 . S
H807 C794 0.962 . S
H808 C794 0.960 . S
H809 C795 0.961 . S
H810 C795 0.961 . S
H811 C795 0.961 . S
H812 C796 0.931 . S
H813 C801 0.930 . S
H814 C802 0.956 . S
H815 C802 0.961 . S
H816 C802 0.961 . S
H817 C803 0.958 . S
H818 C803 0.961 . S
H819 C803 0.960 . S
C820 C821 1.391 . S
C820 C822 1.394 . S
C820 H836 0.931 . S
C821 C820 1.391 . S
C821 C825 1.376 . S
C822 C820 1.394 . S
C822 C823 1.369 . S
C822 C826 1.531 . S
C823 C822 1.369 . S
C823 C824 1.410 . S
C823 C831 1.503 . S
C824 C823 1.410 . S
C824 C825 1.392 . S
C824 C827 1.511 . S
C825 C821 1.376 . S
C825 C824 1.392 . S
C825 H837 0.929 . S
C826 C822 1.531 . S
C826 H838 0.960 . S
C826 H839 0.962 . S
C826 H840 0.960 . S
C827 C824 1.511 . S
C827 H841 0.961 . S
C827 H842 0.961 . S
C827 H843 0.961 . S
C828 C829 1.370 . S
C828 C830 1.363 . S
C828 H844 0.931 . S
C829 C828 1.370 . S
C829 C833 1.408 . S
C830 C828 1.363 . S
C830 C831 1.370 . S
C830 C834 1.524 . S
C831 C823 1.503 . S
C831 C830 1.370 . S
C831 C832 1.403 . S
C832 C831 1.403 . S
C832 C833 1.404 . S
C832 C835 1.539 . S
C833 C829 1.408 . S
C833 C832 1.404 . S
C833 H845 0.930 . S
C834 C830 1.524 . S
C834 H846 0.956 . S
C834 H847 0.961 . S
C834 H848 0.961 . S
C835 C832 1.539 . S
C835 H849 0.958 . S
C835 H850 0.961 . S
C835 H851 0.960 . S
H836 C820 0.931 . S
H837 C825 0.929 . S
H838 C826 0.960 . S
H839 C826 0.962 . S
H840 C826 0.960 . S
H841 C827 0.961 . S
H842 C827 0.961 . S
H843 C827 0.961 . S
H844 C828 0.931 . S
H845 C833 0.930 . S
H846 C834 0.956 . S
H847 C834 0.961 . S
H848 C834 0.961 . S
H849 C835 0.958 . S
H850 C835 0.961 . S
H851 C835 0.960 . S
C852 C853 1.391 . S
C852 C854 1.394 . S
C852 H868 0.931 . S
C853 C852 1.391 . S
C853 C857 1.376 . S
C854 C852 1.394 . S
C854 C855 1.369 . S
C854 C858 1.531 . S
C855 C854 1.369 . S
C855 C856 1.410 . S
C855 C863 1.503 . S
C856 C855 1.410 . S
C856 C857 1.392 . S
C856 C859 1.511 . S
C857 C853 1.376 . S
C857 C856 1.392 . S
C857 H869 0.929 . S
C858 C854 1.531 . S
C858 H870 0.960 . S
C858 H871 0.962 . S
C858 H872 0.960 . S
C859 C856 1.511 . S
C859 H873 0.961 . S
C859 H874 0.961 . S
C859 H875 0.961 . S
C860 C861 1.370 . S
C860 C862 1.363 . S
C860 H876 0.931 . S
C861 C860 1.370 . S
C861 C865 1.408 . S
C862 C860 1.363 . S
C862 C863 1.370 . S
C862 C866 1.524 . S
C863 C855 1.503 . S
C863 C862 1.370 . S
C863 C864 1.403 . S
C864 C863 1.403 . S
C864 C865 1.404 . S
C864 C867 1.539 . S
C865 C861 1.408 . S
C865 C864 1.404 . S
C865 H877 0.930 . S
C866 C862 1.524 . S
C866 H878 0.956 . S
C866 H879 0.961 . S
C866 H880 0.961 . S
C867 C864 1.539 . S
C867 H881 0.958 . S
C867 H882 0.961 . S
C867 H883 0.960 . S
H868 C852 0.931 . S
H869 C857 0.929 . S
H870 C858 0.960 . S
H871 C858 0.962 . S
H872 C858 0.960 . S
H873 C859 0.961 . S
H874 C859 0.961 . S
H875 C859 0.961 . S
H876 C860 0.931 . S
H877 C865 0.930 . S
H878 C866 0.956 . S
H879 C866 0.961 . S
H880 C866 0.961 . S
H881 C867 0.958 . S
H882 C867 0.961 . S
H883 C867 0.960 . S
C884 C885 1.391 . S
C884 C886 1.394 . S
C884 H900 0.931 . S
C885 C884 1.391 . S
C885 C889 1.376 . S
C886 C884 1.394 . S
C886 C887 1.369 . S
C886 C890 1.531 . S
C887 C886 1.369 . S
C887 C888 1.410 . S
C887 C895 1.503 . S
C888 C887 1.410 . S
C888 C889 1.392 . S
C888 C891 1.511 . S
C889 C885 1.376 . S
C889 C888 1.392 . S
C889 H901 0.929 . S
C890 C886 1.531 . S
C890 H902 0.960 . S
C890 H903 0.962 . S
C890 H904 0.960 . S
C891 C888 1.511 . S
C891 H905 0.961 . S
C891 H906 0.961 . S
C891 H907 0.961 . S
C892 C893 1.370 . S
C892 C894 1.363 . S
C892 H908 0.931 . S
C893 C892 1.370 . S
C893 C897 1.408 . S
C894 C892 1.363 . S
C894 C895 1.370 . S
C894 C898 1.524 . S
C895 C887 1.503 . S
C895 C894 1.370 . S
C895 C896 1.403 . S
C896 C895 1.403 . S
C896 C897 1.404 . S
C896 C899 1.539 . S
C897 C893 1.408 . S
C897 C896 1.404 . S
C897 H909 0.930 . S
C898 C894 1.524 . S
C898 H910 0.956 . S
C898 H911 0.961 . S
C898 H912 0.961 . S
C899 C896 1.539 . S
C899 H913 0.958 . S
C899 H914 0.961 . S
C899 H915 0.960 . S
H900 C884 0.931 . S
H901 C889 0.929 . S
H902 C890 0.960 . S
H903 C890 0.962 . S
H904 C890 0.960 . S
H905 C891 0.961 . S
H906 C891 0.961 . S
H907 C891 0.961 . S
H908 C892 0.931 . S
H909 C897 0.930 . S
H910 C898 0.956 . S
H911 C898 0.961 . S
H912 C898 0.961 . S
H913 C899 0.958 . S
H914 C899 0.961 . S
H915 C899 0.960 . S
C916 C917 1.391 . S
C916 C918 1.394 . S
C916 H932 0.931 . S
C917 C916 1.391 . S
C917 C921 1.376 . S
C918 C916 1.394 . S
C918 C919 1.369 . S
C918 C922 1.531 . S
C919 C918 1.369 . S
C919 C920 1.410 . S
C919 C927 1.503 . S
C920 C919 1.410 . S
C920 C921 1.392 . S
C920 C923 1.511 . S
C921 C917 1.376 . S
C921 C920 1.392 . S
C921 H933 0.929 . S
C922 C918 1.531 . S
C922 H934 0.960 . S
C922 H935 0.962 . S
C922 H936 0.960 . S
C923 C920 1.511 . S
C923 H937 0.961 . S
C923 H938 0.961 . S
C923 H939 0.961 . S
C924 C925 1.370 . S
C924 C926 1.363 . S
C924 H940 0.931 . S
C925 C924 1.370 . S
C925 C929 1.408 . S
C926 C924 1.363 . S
C926 C927 1.370 . S
C926 C930 1.524 . S
C927 C919 1.503 . S
C927 C926 1.370 . S
C927 C928 1.403 . S
C928 C927 1.403 . S
C928 C929 1.404 . S
C928 C931 1.539 . S
C929 C925 1.408 . S
C929 C928 1.404 . S
C929 H941 0.930 . S
C930 C926 1.524 . S
C930 H942 0.956 . S
C930 H943 0.961 . S
C930 H944 0.961 . S
C931 C928 1.539 . S
C931 H945 0.958 . S
C931 H946 0.961 . S
C931 H947 0.960 . S
H932 C916 0.931 . S
H933 C921 0.929 . S
H934 C922 0.960 . S
H935 C922 0.962 . S
H936 C922 0.960 . S
H937 C923 0.961 . S
H938 C923 0.961 . S
H939 C923 0.961 . S
H940 C924 0.931 . S
H941 C929 0.930 . S
H942 C930 0.956 . S
H943 C930 0.961 . S
H944 C930 0.961 . S
H945 C931 0.958 . S
H946 C931 0.961 . S
H947 C931 0.960 . S
C948 C949 1.391 . S
C948 C950 1.394 . S
C948 H964 0.931 . S
C949 C948 1.391 . S
C949 C953 1.376 . S
C950 C948 1.394 . S
C950 C951 1.369 . S
C950 C954 1.531 1_565 S
C951 C950 1.369 . S
C951 C952 1.410 . S
C951 C959 1.503 1_565 S
C952 C951 1.410 . S
C952 C953 1.392 . S
C952 C955 1.511 . S
C953 C949 1.376 . S
C953 C952 1.392 . S
C953 H965 0.929 . S
C954 C950 1.531 1_545 S
C954 H966 0.960 . S
C954 H967 0.962 . S
C954 H968 0.960 . S
C955 C952 1.511 . S
C955 H969 0.961 . S
C955 H970 0.961 1_565 S
C955 H971 0.961 . S
C956 C957 1.370 . S
C956 C958 1.363 . S
C956 H972 0.931 . S
C957 C956 1.370 . S
C957 C961 1.408 . S
C958 C956 1.363 . S
C958 C959 1.370 . S
C958 C962 1.524 . S
C959 C951 1.503 1_545 S
C959 C958 1.370 . S
C959 C960 1.403 . S
C960 C959 1.403 . S
C960 C961 1.404 . S
C960 C963 1.539 . S
C961 C957 1.408 . S
C961 C960 1.404 . S
C961 H973 0.930 . S
C962 C958 1.524 . S
C962 H974 0.956 . S
C962 H975 0.961 . S
C962 H976 0.961 . S
C963 C960 1.539 . S
C963 H977 0.958 . S
C963 H978 0.961 . S
C963 H979 0.960 1_545 S
H964 C948 0.931 . S
H965 C953 0.929 . S
H966 C954 0.960 . S
H967 C954 0.962 . S
H968 C954 0.960 . S
H969 C955 0.961 . S
H970 C955 0.961 1_545 S
H971 C955 0.961 . S
H972 C956 0.931 . S
H973 C961 0.930 . S
H974 C962 0.956 . S
H975 C962 0.961 . S
H976 C962 0.961 . S
H977 C963 0.958 . S
H978 C963 0.961 . S
H979 C963 0.960 1_565 S
C980 C981 1.391 . S
C980 C982 1.394 . S
C980 H996 0.931 . S
C981 C980 1.391 . S
C981 C985 1.376 . S
C982 C980 1.394 . S
C982 C983 1.369 1_545 S
C982 C986 1.531 1_545 S
C983 C982 1.369 1_565 S
C983 C984 1.410 1_565 S
C983 C991 1.503 . S
C984 C983 1.410 1_545 S
C984 C985 1.392 . S
C984 C987 1.511 1_545 S
C985 C981 1.376 . S
C985 C984 1.392 . S
C985 H997 0.929 . S
C986 C982 1.531 1_565 S
C986 H998 0.960 . S
C986 H999 0.962 . S
C986 H1000 0.960 1_565 S
C987 C984 1.511 1_565 S
C987 H1001 0.961 . S
C987 H1002 0.961 . S
C987 H1003 0.961 . S
C988 C989 1.370 . S
C988 C990 1.363 . S
C988 H1004 0.931 . S
C989 C988 1.370 . S
C989 C993 1.408 . S
C990 C988 1.363 . S
C990 C991 1.370 . S
C990 C994 1.524 . S
C991 C983 1.503 . S
C991 C990 1.370 . S
C991 C992 1.403 . S
C992 C991 1.403 . S
C992 C993 1.404 . S
C992 C995 1.539 . S
C993 C989 1.408 . S
C993 C992 1.404 . S
C993 H1005 0.930 . S
C994 C990 1.524 . S
C994 H1006 0.956 . S
C994 H1007 0.961 . S
C994 H1008 0.961 . S
C995 C992 1.539 . S
C995 H1009 0.958 . S
C995 H1010 0.961 . S
C995 H1011 0.960 . S
H996 C980 0.931 . S
H997 C985 0.929 . S
H998 C986 0.960 . S
H999 C986 0.962 . S
H1000 C986 0.960 1_545 S
H1001 C987 0.961 . S
H1002 C987 0.961 . S
H1003 C987 0.961 . S
H1004 C988 0.931 . S
H1005 C993 0.930 . S
H1006 C994 0.956 . S
H1007 C994 0.961 . S
H1008 C994 0.961 . S
H1009 C995 0.958 . S
H1010 C995 0.961 . S
H1011 C995 0.960 . S
C1012 C1013 1.391 . S
C1012 C1014 1.394 1_545 S
C1012 H1028 0.931 . S
C1013 C1012 1.391 . S
C1013 C1017 1.376 . S
C1014 C1012 1.394 1_565 S
C1014 C1015 1.369 . S
C1014 C1018 1.531 . S
C1015 C1014 1.369 . S
C1015 C1016 1.410 1_565 S
C1015 C1023 1.503 . S
C1016 C1015 1.410 1_545 S
C1016 C1017 1.392 . S
C1016 C1019 1.511 1_545 S
C1017 C1013 1.376 . S
C1017 C1016 1.392 . S
C1017 H1029 0.929 . S
C1018 C1014 1.531 . S
C1018 H1030 0.960 . S
C1018 H1031 0.962 . S
C1018 H1032 0.960 . S
C1019 C1016 1.511 1_565 S
C1019 H1033 0.961 1_565 S
C1019 H1034 0.961 . S
C1019 H1035 0.961 . S
C1020 C1021 1.370 . S
C1020 C1022 1.363 . S
C1020 H1036 0.931 . S
C1021 C1020 1.370 . S
C1021 C1025 1.408 . S
C1022 C1020 1.363 . S
C1022 C1023 1.370 . S
C1022 C1026 1.524 . S
C1023 C1015 1.503 . S
C1023 C1022 1.370 . S
C1023 C1024 1.403 . S
C1024 C1023 1.403 . S
C1024 C1025 1.404 . S
C1024 C1027 1.539 . S
C1025 C1021 1.408 . S
C1025 C1024 1.404 . S
C1025 H1037 0.930 . S
C1026 C1022 1.524 . S
C1026 H1038 0.956 . S
C1026 H1039 0.961 . S
C1026 H1040 0.961 . S
C1027 C1024 1.539 . S
C1027 H1041 0.958 . S
C1027 H1042 0.961 . S
C1027 H1043 0.960 . S
H1028 C1012 0.931 . S
H1029 C1017 0.929 . S
H1030 C1018 0.960 . S
H1031 C1018 0.962 . S
H1032 C1018 0.960 . S
H1033 C1019 0.961 1_545 S
H1034 C1019 0.961 . S
H1035 C1019 0.961 . S
H1036 C1020 0.931 . S
H1037 C1025 0.930 . S
H1038 C1026 0.956 . S
H1039 C1026 0.961 . S
H1040 C1026 0.961 . S
H1041 C1027 0.958 . S
H1042 C1027 0.961 . S
H1043 C1027 0.960 . S
C1044 C1045 1.391 . S
C1044 C1046 1.394 . S
C1044 H1060 0.931 . S
C1045 C1044 1.391 . S
C1045 C1049 1.376 . S
C1046 C1044 1.394 . S
C1046 C1047 1.369 . S
C1046 C1050 1.531 1_565 S
C1047 C1046 1.369 . S
C1047 C1048 1.410 . S
C1047 C1055 1.503 1_565 S
C1048 C1047 1.410 . S
C1048 C1049 1.392 . S
C1048 C1051 1.511 . S
C1049 C1045 1.376 . S
C1049 C1048 1.392 . S
C1049 H1061 0.929 . S
C1050 C1046 1.531 1_545 S
C1050 H1062 0.960 . S
C1050 H1063 0.962 1_455 S
C1050 H1064 0.960 1_455 S
C1051 C1048 1.511 . S
C1051 H1065 0.961 . S
C1051 H1066 0.969 . S
C1051 H1067 0.961 . S
C1052 C1053 1.370 . S
C1052 C1054 1.363 . S
C1052 H1068 0.931 . S
C1053 C1052 1.370 . S
C1053 C1057 1.408 . S
C1054 C1052 1.363 . S
C1054 C1055 1.370 . S
C1054 C1058 1.524 . S
C1055 C1047 1.503 1_545 S
C1055 C1054 1.370 . S
C1055 C1056 1.403 . S
C1056 C1055 1.403 . S
C1056 C1057 1.404 . S
C1056 C1059 1.539 . S
C1057 C1053 1.408 . S
C1057 C1056 1.404 . S
C1057 H1069 0.930 . S
C1058 C1054 1.524 . S
C1058 H1070 0.956 . S
C1058 H1071 0.961 . S
C1058 H1072 0.961 . S
C1059 C1056 1.539 . S
C1059 H1073 0.958 . S
C1059 H1074 0.961 . S
C1059 H1075 0.960 . S
H1060 C1044 0.931 . S
H1061 C1049 0.929 . S
H1062 C1050 0.960 . S
H1063 C1050 0.962 1_655 S
H1064 C1050 0.960 1_655 S
H1065 C1051 0.961 . S
H1066 C1051 0.969 . S
H1067 C1051 0.961 . S
H1068 C1052 0.931 . S
H1069 C1057 0.930 . S
H1070 C1058 0.956 . S
H1071 C1058 0.961 . S
H1072 C1058 0.961 . S
H1073 C1059 0.958 . S
H1074 C1059 0.961 . S
H1075 C1059 0.960 . S
C1076 C1077 1.391 . S
C1076 C1078 1.394 . S
C1076 H1092 0.931 . S
C1077 C1076 1.391 . S
C1077 C1081 1.376 . S
C1078 C1076 1.394 . S
C1078 C1079 1.369 . S
C1078 C1082 1.531 . S
C1079 C1078 1.369 . S
C1079 C1080 1.410 . S
C1079 C1087 1.503 . S
C1080 C1079 1.410 . S
C1080 C1081 1.392 . S
C1080 C1083 1.511 . S
C1081 C1077 1.376 . S
C1081 C1080 1.392 . S
C1081 H1093 0.929 . S
C1082 C1078 1.531 . S
C1082 H1094 0.960 . S
C1082 H1095 0.962 . S
C1082 H1096 0.960 . S
C1083 C1080 1.511 . S
C1083 H1097 0.961 . S
C1083 H1098 0.961 . S
C1083 H1099 0.961 . S
C1084 C1085 1.370 . S
C1084 C1086 1.363 . S
C1084 H1100 0.931 . S
C1085 C1084 1.370 . S
C1085 C1089 1.408 . S
C1086 C1084 1.363 . S
C1086 C1087 1.370 . S
C1086 C1090 1.524 . S
C1087 C1079 1.503 . S
C1087 C1086 1.370 . S
C1087 C1088 1.403 . S
C1088 C1087 1.403 . S
C1088 C1089 1.404 . S
C1088 C1091 1.539 . S
C1089 C1085 1.408 . S
C1089 C1088 1.404 . S
C1089 H1101 0.930 . S
C1090 C1086 1.524 . S
C1090 H1102 0.956 . S
C1090 H1103 0.961 . S
C1090 H1104 0.961 . S
C1091 C1088 1.539 . S
C1091 H1105 0.958 . S
C1091 H1106 0.961 . S
C1091 H1107 0.960 . S
H1092 C1076 0.931 . S
H1093 C1081 0.929 . S
H1094 C1082 0.960 . S
H1095 C1082 0.962 . S
H1096 C1082 0.960 . S
H1097 C1083 0.961 . S
H1098 C1083 0.961 . S
H1099 C1083 0.961 . S
H1100 C1084 0.931 . S
H1101 C1089 0.930 . S
H1102 C1090 0.956 . S
H1103 C1090 0.961 . S
H1104 C1090 0.961 . S
H1105 C1091 0.958 . S
H1106 C1091 0.961 . S
H1107 C1091 0.960 . S
C1108 C1109 1.391 . S
C1108 C1110 1.394 . S
C1108 H1124 0.931 . S
C1109 C1108 1.391 . S
C1109 C1113 1.376 . S
C1110 C1108 1.394 . S
C1110 C1111 1.369 . S
C1110 C1114 1.531 . S
C1111 C1110 1.369 . S
C1111 C1112 1.410 . S
C1111 C1119 1.503 . S
C1112 C1111 1.410 . S
C1112 C1113 1.392 . S
C1112 C1115 1.511 . S
C1113 C1109 1.376 . S
C1113 C1112 1.392 . S
C1113 H1125 0.929 . S
C1114 C1110 1.531 . S
C1114 H1126 0.960 . S
C1114 H1127 0.962 . S
C1114 H1128 0.960 . S
C1115 C1112 1.511 . S
C1115 H1129 0.961 . S
C1115 H1130 0.961 . S
C1115 H1131 0.961 . S
C1116 C1117 1.370 . S
C1116 C1118 1.363 . S
C1116 H1132 0.931 . S
C1117 C1116 1.370 . S
C1117 C1121 1.408 . S
C1118 C1116 1.363 . S
C1118 C1119 1.370 . S
C1118 C1122 1.524 . S
C1119 C1111 1.503 . S
C1119 C1118 1.370 . S
C1119 C1120 1.403 . S
C1120 C1119 1.403 . S
C1120 C1121 1.404 . S
C1120 C1123 1.539 . S
C1121 C1117 1.408 . S
C1121 C1120 1.404 . S
C1121 H1133 0.930 . S
C1122 C1118 1.524 . S
C1122 H1134 0.956 . S
C1122 H1135 0.961 . S
C1122 H1136 0.961 . S
C1123 C1120 1.539 . S
C1123 H1137 0.958 . S
C1123 H1138 0.961 . S
C1123 H1139 0.960 . S
H1124 C1108 0.931 . S
H1125 C1113 0.929 . S
H1126 C1114 0.960 . S
H1127 C1114 0.962 . S
H1128 C1114 0.960 . S
H1129 C1115 0.961 . S
H1130 C1115 0.961 . S
H1131 C1115 0.961 . S
H1132 C1116 0.931 . S
H1133 C1121 0.930 . S
H1134 C1122 0.956 . S
H1135 C1122 0.961 . S
H1136 C1122 0.961 . S
H1137 C1123 0.958 . S
H1138 C1123 0.961 . S
H1139 C1123 0.960 . S
C1140 C1141 1.391 . S
C1140 C1142 1.394 . S
C1140 H1156 0.931 . S
C1141 C1140 1.391 . S
C1141 C1145 1.376 . S
C1142 C1140 1.394 . S
C1142 C1143 1.369 . S
C1142 C1146 1.531 . S
C1143 C1142 1.369 . S
C1143 C1144 1.410 . S
C1143 C1151 1.503 . S
C1144 C1143 1.410 . S
C1144 C1145 1.392 . S
C1144 C1147 1.511 . S
C1145 C1141 1.376 . S
C1145 C1144 1.392 . S
C1145 H1157 0.929 . S
C1146 C1142 1.531 . S
C1146 H1158 0.960 . S
C1146 H1159 0.962 . S
C1146 H1160 0.960 . S
C1147 C1144 1.511 . S
C1147 H1161 0.961 . S
C1147 H1162 0.961 . S
C1147 H1163 0.961 . S
C1148 C1149 1.370 . S
C1148 C1150 1.363 . S
C1148 H1164 0.931 . S
C1149 C1148 1.370 . S
C1149 C1153 1.408 . S
C1150 C1148 1.363 . S
C1150 C1151 1.370 . S
C1150 C1154 1.524 . S
C1151 C1143 1.503 . S
C1151 C1150 1.370 . S
C1151 C1152 1.403 . S
C1152 C1151 1.403 . S
C1152 C1153 1.404 . S
C1152 C1155 1.539 . S
C1153 C1149 1.408 . S
C1153 C1152 1.404 . S
C1153 H1165 0.930 . S
C1154 C1150 1.524 . S
C1154 H1166 0.956 . S
C1154 H1167 0.961 . S
C1154 H1168 0.961 . S
C1155 C1152 1.539 . S
C1155 H1169 0.958 . S
C1155 H1170 0.961 . S
C1155 H1171 0.960 . S
H1156 C1140 0.931 . S
H1157 C1145 0.929 . S
H1158 C1146 0.960 . S
H1159 C1146 0.962 . S
H1160 C1146 0.960 . S
H1161 C1147 0.961 . S
H1162 C1147 0.961 . S
H1163 C1147 0.961 . S
H1164 C1148 0.931 . S
H1165 C1153 0.930 . S
H1166 C1154 0.956 . S
H1167 C1154 0.961 . S
H1168 C1154 0.961 . S
H1169 C1155 0.958 . S
H1170 C1155 0.961 . S
H1171 C1155 0.960 . S
C1172 C1173 1.391 . S
C1172 C1174 1.394 . S
C1172 H1188 0.931 . S
C1173 C1172 1.391 . S
C1173 C1177 1.376 . S
C1174 C1172 1.394 . S
C1174 C1175 1.369 . S
C1174 C1178 1.531 . S
C1175 C1174 1.369 . S
C1175 C1176 1.410 . S
C1175 C1183 1.503 . S
C1176 C1175 1.410 . S
C1176 C1177 1.392 . S
C1176 C1179 1.511 . S
C1177 C1173 1.376 . S
C1177 C1176 1.392 . S
C1177 H1189 0.929 . S
C1178 C1174 1.531 . S
C1178 H1190 0.960 . S
C1178 H1191 0.962 . S
C1178 H1192 0.960 . S
C1179 C1176 1.511 . S
C1179 H1193 0.961 . S
C1179 H1194 0.961 . S
C1179 H1195 0.961 . S
C1180 C1181 1.370 . S
C1180 C1182 1.363 . S
C1180 H1196 0.931 . S
C1181 C1180 1.370 . S
C1181 C1185 1.408 . S
C1182 C1180 1.363 . S
C1182 C1183 1.370 . S
C1182 C1186 1.524 . S
C1183 C1175 1.503 . S
C1183 C1182 1.370 . S
C1183 C1184 1.403 . S
C1184 C1183 1.403 . S
C1184 C1185 1.404 . S
C1184 C1187 1.539 . S
C1185 C1181 1.408 . S
C1185 C1184 1.404 . S
C1185 H1197 0.930 . S
C1186 C1182 1.524 . S
C1186 H1198 0.956 . S
C1186 H1199 0.961 . S
C1186 H1200 0.961 . S
C1187 C1184 1.539 . S
C1187 H1201 0.958 . S
C1187 H1202 0.961 . S
C1187 H1203 0.960 . S
H1188 C1172 0.931 . S
H1189 C1177 0.929 . S
H1190 C1178 0.960 . S
H1191 C1178 0.962 . S
H1192 C1178 0.960 . S
H1193 C1179 0.961 . S
H1194 C1179 0.961 . S
H1195 C1179 0.961 . S
H1196 C1180 0.931 . S
H1197 C1185 0.930 . S
H1198 C1186 0.956 . S
H1199 C1186 0.961 . S
H1200 C1186 0.961 . S
H1201 C1187 0.958 . S
H1202 C1187 0.961 . S
H1203 C1187 0.960 . S
C1204 C1205 1.391 . S
C1204 C1206 1.394 . S
C1204 H1220 0.931 . S
C1205 C1204 1.391 . S
C1205 C1209 1.376 . S
C1206 C1204 1.394 . S
C1206 C1207 1.369 . S
C1206 C1210 1.531 . S
C1207 C1206 1.369 . S
C1207 C1208 1.410 . S
C1207 C1215 1.503 . S
C1208 C1207 1.410 . S
C1208 C1209 1.392 . S
C1208 C1211 1.511 . S
C1209 C1205 1.376 . S
C1209 C1208 1.392 . S
C1209 H1221 0.929 . S
C1210 C1206 1.531 . S
C1210 H1222 0.960 . S
C1210 H1223 0.962 1_455 S
C1210 H1224 0.960 1_455 S
C1211 C1208 1.511 . S
C1211 H1225 0.961 . S
C1211 H1226 0.961 . S
C1211 H1227 0.961 . S
C1212 C1213 1.370 . S
C1212 C1214 1.363 . S
C1212 H1228 0.931 . S
C1213 C1212 1.370 . S
C1213 C1217 1.408 . S
C1214 C1212 1.363 . S
C1214 C1215 1.370 . S
C1214 C1218 1.524 . S
C1215 C1207 1.503 . S
C1215 C1214 1.370 . S
C1215 C1216 1.403 . S
C1216 C1215 1.403 . S
C1216 C1217 1.404 . S
C1216 C1219 1.539 . S
C1217 C1213 1.408 . S
C1217 C1216 1.404 . S
C1217 H1229 0.930 . S
C1218 C1214 1.524 . S
C1218 H1230 0.956 . S
C1218 H1231 0.961 . S
C1218 H1232 0.961 . S
C1219 C1216 1.539 . S
C1219 H1233 0.958 . S
C1219 H1234 0.961 . S
C1219 H1235 0.960 . S
H1220 C1204 0.931 . S
H1221 C1209 0.929 . S
H1222 C1210 0.960 . S
H1223 C1210 0.962 1_655 S
H1224 C1210 0.960 1_655 S
H1225 C1211 0.961 . S
H1226 C1211 0.961 . S
H1227 C1211 0.961 . S
H1228 C1212 0.931 . S
H1229 C1217 0.930 . S
H1230 C1218 0.956 . S
H1231 C1218 0.961 . S
H1232 C1218 0.961 . S
H1233 C1219 0.958 . S
H1234 C1219 0.961 . S
H1235 C1219 0.960 . S
C1236 C1237 1.391 . S
C1236 C1238 1.394 . S
C1236 H1252 0.931 . S
C1237 C1236 1.391 . S
C1237 C1241 1.376 . S
C1238 C1236 1.394 . S
C1238 C1239 1.369 . S
C1238 C1242 1.531 . S
C1239 C1238 1.369 . S
C1239 C1240 1.410 . S
C1239 C1247 1.503 . S
C1240 C1239 1.410 . S
C1240 C1241 1.392 . S
C1240 C1243 1.511 . S
C1241 C1237 1.376 . S
C1241 C1240 1.392 . S
C1241 H1253 0.929 . S
C1242 C1238 1.531 . S
C1242 H1254 0.960 . S
C1242 H1255 0.962 . S
C1242 H1256 0.960 . S
C1243 C1240 1.511 . S
C1243 H1257 0.961 . S
C1243 H1258 0.961 . S
C1243 H1259 0.961 . S
C1244 C1245 1.370 . S
C1244 C1246 1.363 . S
C1244 H1260 0.931 . S
C1245 C1244 1.370 . S
C1245 C1249 1.408 . S
C1246 C1244 1.363 . S
C1246 C1247 1.370 . S
C1246 C1250 1.524 . S
C1247 C1239 1.503 . S
C1247 C1246 1.370 . S
C1247 C1248 1.403 . S
C1248 C1247 1.403 . S
C1248 C1249 1.404 . S
C1248 C1251 1.539 . S
C1249 C1245 1.408 . S
C1249 C1248 1.404 . S
C1249 H1261 0.930 . S
C1250 C1246 1.524 . S
C1250 H1262 0.956 . S
C1250 H1263 0.961 . S
C1250 H1264 0.961 . S
C1251 C1248 1.539 . S
C1251 H1265 0.958 . S
C1251 H1266 0.961 . S
C1251 H1267 0.960 . S
H1252 C1236 0.931 . S
H1253 C1241 0.929 . S
H1254 C1242 0.960 . S
H1255 C1242 0.962 . S
H1256 C1242 0.960 . S
H1257 C1243 0.961 . S
H1258 C1243 0.961 . S
H1259 C1243 0.961 . S
H1260 C1244 0.931 . S
H1261 C1249 0.930 . S
H1262 C1250 0.956 . S
H1263 C1250 0.961 . S
H1264 C1250 0.961 . S
H1265 C1251 0.958 . S
H1266 C1251 0.961 . S
H1267 C1251 0.960 . S
C1268 C1269 1.391 . S
C1268 C1270 1.394 . S
C1268 H1284 0.931 . S
C1269 C1268 1.391 . S
C1269 C1273 1.376 . S
C1270 C1268 1.394 . S
C1270 C1271 1.369 . S
C1270 C1274 1.531 . S
C1271 C1270 1.369 . S
C1271 C1272 1.410 . S
C1271 C1279 1.503 . S
C1272 C1271 1.410 . S
C1272 C1273 1.392 . S
C1272 C1275 1.511 . S
C1273 C1269 1.376 . S
C1273 C1272 1.392 . S
C1273 H1285 0.929 . S
C1274 C1270 1.531 . S
C1274 H1286 0.960 . S
C1274 H1287 0.962 . S
C1274 H1288 0.960 . S
C1275 C1272 1.511 . S
C1275 H1289 0.961 . S
C1275 H1290 0.961 . S
C1275 H1291 0.961 . S
C1276 C1277 1.370 . S
C1276 C1278 1.363 . S
C1276 H1292 0.931 . S
C1277 C1276 1.370 . S
C1277 C1281 1.408 . S
C1278 C1276 1.363 . S
C1278 C1279 1.370 . S
C1278 C1282 1.524 . S
C1279 C1271 1.503 . S
C1279 C1278 1.370 . S
C1279 C1280 1.403 . S
C1280 C1279 1.403 . S
C1280 C1281 1.404 . S
C1280 C1283 1.539 . S
C1281 C1277 1.408 . S
C1281 C1280 1.404 . S
C1281 H1293 0.930 . S
C1282 C1278 1.524 . S
C1282 H1294 0.956 . S
C1282 H1295 0.961 . S
C1282 H1296 0.961 . S
C1283 C1280 1.539 . S
C1283 H1297 0.958 . S
C1283 H1298 0.961 . S
C1283 H1299 0.960 . S
H1284 C1268 0.931 . S
H1285 C1273 0.929 . S
H1286 C1274 0.960 . S
H1287 C1274 0.962 . S
H1288 C1274 0.960 . S
H1289 C1275 0.961 . S
H1290 C1275 0.961 . S
H1291 C1275 0.961 . S
H1292 C1276 0.931 . S
H1293 C1281 0.930 . S
H1294 C1282 0.956 . S
H1295 C1282 0.961 . S
H1296 C1282 0.961 . S
H1297 C1283 0.958 . S
H1298 C1283 0.961 . S
H1299 C1283 0.960 . S
C1300 C1301 1.391 . S
C1300 C1302 1.394 . S
C1300 H1316 0.931 . S
C1301 C1300 1.391 . S
C1301 C1305 1.376 . S
C1302 C1300 1.394 . S
C1302 C1303 1.369 . S
C1302 C1306 1.531 . S
C1303 C1302 1.369 . S
C1303 C1304 1.410 . S
C1303 C1311 1.503 . S
C1304 C1303 1.410 . S
C1304 C1305 1.392 . S
C1304 C1307 1.511 . S
C1305 C1301 1.376 . S
C1305 C1304 1.392 . S
C1305 H1317 0.929 . S
C1306 C1302 1.531 . S
C1306 H1318 0.960 . S
C1306 H1319 0.962 . S
C1306 H1320 0.960 . S
C1307 C1304 1.511 . S
C1307 H1321 0.961 . S
C1307 H1322 0.961 . S
C1307 H1323 0.961 . S
C1308 C1309 1.370 . S
C1308 C1310 1.363 . S
C1308 H1324 0.931 . S
C1309 C1308 1.370 . S
C1309 C1313 1.408 . S
C1310 C1308 1.363 . S
C1310 C1311 1.370 . S
C1310 C1314 1.524 . S
C1311 C1303 1.503 . S
C1311 C1310 1.370 . S
C1311 C1312 1.403 . S
C1312 C1311 1.403 . S
C1312 C1313 1.404 . S
C1312 C1315 1.539 . S
C1313 C1309 1.408 . S
C1313 C1312 1.404 . S
C1313 H1325 0.930 . S
C1314 C1310 1.524 . S
C1314 H1326 0.956 . S
C1314 H1327 0.961 . S
C1314 H1328 0.961 . S
C1315 C1312 1.539 . S
C1315 H1329 0.958 . S
C1315 H1330 0.961 . S
C1315 H1331 0.960 . S
H1316 C1300 0.931 . S
H1317 C1305 0.929 . S
H1318 C1306 0.960 . S
H1319 C1306 0.962 . S
H1320 C1306 0.960 . S
H1321 C1307 0.961 . S
H1322 C1307 0.961 . S
H1323 C1307 0.961 . S
H1324 C1308 0.931 . S
H1325 C1313 0.930 . S
H1326 C1314 0.956 . S
H1327 C1314 0.961 . S
H1328 C1314 0.961 . S
H1329 C1315 0.958 . S
H1330 C1315 0.961 . S
H1331 C1315 0.960 . S
C573 C487 1.491 . S
C565 C31 1.656 . S
C605 C505 1.304 . S
C597 C91 1.381 . S
C629 C121 1.324 . S
C637 C529 1.329 . S
C669 C559 1.321 . S
C661 C181 1.412 . S
C701 C547 1.316 . S
C693 C271 1.429 . S
C725 C301 1.380 . S
C733 C500 1.318 . S
C757 C361 1.606 . S
C765 C520 1.486 . S
C789 C451 1.478 . S
C797 C525 1.301 . S
C821 C421 1.380 . S
C829 C541 1.300 . S
C853 C331 1.481 . S
C861 C496 1.297 . S
C893 C563 1.298 . S
C885 C211 1.394 . S
C925 C508 1.321 . S
C917 C61 1.419 . S
C949 C151 1.615 . S
C957 C526 1.522 . S
C981 C1 1.338 . S
C989 C484 1.320 . S
C1021 C504 1.323 . S
C1013 C391 1.421 . S
C1053 C550 1.530 . S
C1045 C241 1.572 . S
C1085 C546 1.347 . S
C1077 C20 1.450 1_556 S
C1117 C499 1.344 . S
C1109 C80 1.441 . S
C1141 C140 1.444 . S
C1149 C521 1.282 . S
C1173 C200 1.444 . S
C1181 C542 1.351 . S
C1213 C483 1.352 . S
C1205 C260 1.472 1_554 S
C1237 C320 1.476 . S
C1245 C517 1.398 . S
C1277 C538 1.351 . S
C1269 C380 1.502 . S
C1309 C562 1.360 . S
C1301 C440 1.425 . S
