# Generated by pormake.
# Topology anh, (6,3)-cn, num edge types: 1
# Building blocks:
#     Node 0, Type 0, BuildingBlock: BETDIP_clean_sbu_0, # of connection points: 6
#     Node 1, Type 0, BuildingBlock: BETDIP_clean_sbu_0, # of connection points: 6
#     Node 2, Type 0, BuildingBlock: BETDIP_clean_sbu_0, # of connection points: 6
#     Node 3, Type 1, BuildingBlock: VETTIZ_charged_linker_0, # of connection points: 3
#     Node 4, Type 1, BuildingBlock: VETTIZ_charged_linker_0, # of connection points: 3
#     Node 5, Type 1, BuildingBlock: VETTIZ_charged_linker_0, # of connection points: 3
#     Node 6, Type 1, BuildingBlock: VETTIZ_charged_linker_0, # of connection points: 3
#     Node 7, Type 1, BuildingBlock: VETTIZ_charged_linker_0, # of connection points: 3
#     Node 8, Type 1, BuildingBlock: VETTIZ_charged_linker_0, # of connection points: 3
#     Edge 9, Type (0, 1), None
#     Edge 10, Type (0, 1), None
#     Edge 11, Type (0, 1), None
#     Edge 12, Type (0, 1), None
#     Edge 13, Type (0, 1), None
#     Edge 14, Type (0, 1), None
#     Edge 15, Type (0, 1), None
#     Edge 16, Type (0, 1), None
#     Edge 17, Type (0, 1), None
#     Edge 18, Type (0, 1), None
#     Edge 19, Type (0, 1), None
#     Edge 20, Type (0, 1), None
#     Edge 21, Type (0, 1), None
#     Edge 22, Type (0, 1), None
#     Edge 23, Type (0, 1), None
#     Edge 24, Type (0, 1), None
#     Edge 25, Type (0, 1), None
#     Edge 26, Type (0, 1), None
# Relax obj value: 0.464
# Max RMSD: 0.216
# Mean RMSD: 0.183
data_MOF--net-anh--node1-BETDIP_clean_sbu_0--node2-VETTIZ_charged_linker_0--edge1-none
_symmetry_space_group_name_H-M    P1
_symmetry_Int_Tables_number       1
_symmetry_cell_setting            triclinic
loop_
_symmetry_equiv_pos_as_xyz
'x, y, z'
_cell_length_a     19.340446
_cell_length_b     19.367558
_cell_length_c     37.96379
_cell_angle_alpha  90.207563
_cell_angle_beta   89.973843
_cell_angle_gamma 118.79465
loop_
_atom_site_label
_atom_site_type_symbol
_atom_site_fract_x
_atom_site_fract_y
_atom_site_fract_z
_atom_type_partial_charge
Tb0 Tb 0.29117 0.6912 0.13436 0.0
Tb1 Tb 0.21145 0.52776 0.14709 0.0
C2 C 0.36909 0.83813 0.13657 0.0
C3 C 0.34318 0.89695 0.14204 0.0
C4 C 0.39099 0.97424 0.13086 0.0
C5 C 0.37834 1.03439 0.14413 0.0
C6 C 0.31898 1.01761 0.16947 0.0
C7 C 0.26341 0.93879 0.17589 0.0
C8 C 0.27578 0.87862 0.16239 0.0
C9 C 0.22896 0.60347 0.07781 0.0
C10 C 0.40113 0.6071 0.13389 0.0
C11 C 1.12914 0.38298 0.14516 0.0
C12 C 1.04416 0.34845 0.15363 0.0
C13 C 0.9948 0.3632 0.1309 0.0
C14 C 0.93224 0.37194 0.14448 0.0
C15 C 0.91701 0.36379 0.18068 0.0
C16 C 0.95757 0.33579 0.20209 0.0
C17 C 1.02035 0.32774 0.18864 0.0
C18 C 0.21998 0.60951 0.20561 0.0
C19 C 1.10413 0.61436 0.13589 0.0
O20 O 0.34741 0.79866 0.10707 0.0
O21 O 0.35943 0.79301 0.16373 0.0
O22 O 0.26634 0.59226 0.10195 0.0
O23 O 0.22521 0.66699 0.08465 0.0
O24 O 0.39537 0.67141 0.12625 0.0
O25 O 0.33584 0.54293 0.14498 0.0
O26 O 1.1507 0.42553 0.11646 0.0
O27 O 1.1778 0.41876 0.17147 0.0
O28 O 0.27443 0.62667 0.18301 0.0
O29 O 1.1594 0.54595 0.19485 0.0
O30 O 1.10919 0.54848 0.13082 0.0
O31 O 1.17129 0.67886 0.14371 0.0
H32 H 0.44228 0.98904 0.11458 0.0
H33 H 0.4222 1.09457 0.13846 0.0
H34 H 0.21708 0.92434 0.19513 0.0
H35 H 0.23727 0.81884 0.17084 0.0
H36 H 1.01005 0.37761 0.10344 0.0
H37 H 0.90027 0.39119 0.12724 0.0
H38 H 0.94413 0.32508 0.2299 0.0
H39 H 1.05584 0.3146 0.20666 0.0
Tb40 Tb 0.75077 1.10559 0.48519 0.0
Tb41 Tb 0.6723 0.19466 0.46922 0.0
C42 C 0.83502 1.05781 0.51522 0.0
C43 C 0.9157 1.09155 0.52968 0.0
C44 C 0.92515 1.08851 0.5661 0.0
C45 C 0.99639 1.09928 0.57988 0.0
C46 C 1.05904 1.11089 0.55726 0.0
C47 C 1.05393 1.1285 0.52167 0.0
C48 C 0.98218 1.11734 0.5078 0.0
C49 C 0.72668 1.11598 0.41812 0.0
C50 C 0.56334 0.99902 0.4702 0.0
C51 C 0.60456 0.26441 0.44297 0.0
C52 C 0.64254 0.34948 0.43628 0.0
C53 C 0.72212 0.38831 0.42591 0.0
C54 C 0.77044 0.46728 0.43403 0.0
C55 C 0.73984 0.50767 0.45349 0.0
C56 C 0.65775 0.47296 0.45865 0.0
C57 C 0.60912 0.39372 0.45015 0.0
C58 C 0.7093 0.20115 0.5371 0.0
C59 C 0.86339 0.29884 0.46972 0.0
O60 O 0.78646 1.07543 0.532 0.0
O61 O 0.82688 1.05725 0.48098 0.0
O62 O 0.74976 0.16904 0.44095 0.0
O63 O 0.71485 1.05046 0.43255 0.0
O64 O 0.6277 0.99924 0.48362 0.0
O65 O 0.57038 1.0692 0.46119 0.0
O66 O 0.63035 0.22496 0.42405 0.0
O67 O 0.5996 0.24629 0.47639 0.0
O68 O 0.68139 0.1398 0.5177 0.0
O69 O 0.71295 0.25867 0.51857 0.0
O70 O 0.79512 0.29507 0.46021 0.0
O71 O 0.85886 0.23094 0.48146 0.0
H72 H 0.87532 1.0706 0.58369 0.0
H73 H 0.99744 1.08721 0.60763 0.0
H74 H 1.10189 0.14068 0.50367 0.0
H75 H 0.97737 1.12273 0.47964 0.0
H76 H 0.7496 0.35564 0.41541 0.0
H77 H 0.83344 0.49261 0.42982 0.0
H78 H 0.63309 0.50378 0.47354 0.0
H79 H 0.54803 0.36503 0.45851 0.0
Tb80 Tb 0.68119 0.66563 0.81417 0.0
Tb81 Tb 0.85229 0.75461 0.80697 0.0
C82 C 0.54377 0.59774 0.83787 0.0
C83 C 0.48966 0.51494 0.84716 0.0
C84 C 0.47281 0.49545 0.88278 0.0
C85 C 0.41731 0.41961 0.89262 0.0
C86 C 0.37559 0.36139 0.86696 0.0
C87 C 0.39865 0.37885 0.83146 0.0
C88 C 0.45492 0.45516 0.8216 0.0
C89 C 0.73293 0.67242 0.74992 0.0
C90 C 0.75945 0.85716 0.80122 0.0
C91 C 0.99319 0.81691 0.79 0.0
C92 C 1.03529 0.7704 0.79273 0.0
C93 C 1.01151 0.70378 0.77067 0.0
C94 C 1.01222 0.63644 0.78312 0.0
C95 C 1.03984 0.63597 0.81717 0.0
C96 C 1.07731 0.70728 0.83625 0.0
C97 C 1.07506 0.77405 0.82412 0.0
C98 C 0.80278 0.70425 0.87249 0.0
C99 C 0.77136 0.56371 0.80434 0.0
O100 O 0.55928 0.61559 0.80449 0.0
O101 O 0.60669 0.63217 0.85766 0.0
O102 O 0.7577 0.72636 0.77246 0.0
O103 O 0.67387 0.60969 0.7627 0.0
O104 O 0.69337 0.78693 0.80403 0.0
O105 O 0.82948 0.85848 0.80266 0.0
O106 O 0.93626 0.78978 0.76677 0.0
O107 O 0.97056 0.83376 0.82 0.0
O108 O 0.77356 0.73244 0.85085 0.0
O109 O 0.8632 0.70522 0.85758 0.0
O110 O 0.82965 0.6319 0.79249 0.0
O111 O 0.70997 0.56563 0.81965 0.0
H112 H 0.5 0.54001 0.90312 0.0
H113 H 0.40192 0.40959 0.92024 0.0
H114 H 0.36851 0.33535 0.81104 0.0
H115 H 0.46851 0.46794 0.79393 0.0
H116 H 0.98234 0.69929 0.74575 0.0
H117 H 0.98472 0.58315 0.76736 0.0
H118 H 1.10321 0.70992 0.86185 0.0
H119 H 1.09574 0.82494 0.84133 0.0
C120 C 0.78441 0.35865 0.18437 0.0
C121 C 0.86185 0.38676 0.19722 0.0
C122 C 0.88295 0.42723 0.22971 0.0
C123 C 0.74595 0.37509 0.24259 0.0
C124 C 0.72671 0.3567 0.20766 0.0
C125 C 0.6381 0.31809 0.20297 0.0
H126 H 0.33032 0.99763 0.23916 0.0
C127 C 0.67688 0.32344 0.26355 0.0
C128 C 0.61149 0.29347 0.24093 0.0
H129 H 0.35281 0.17262 0.16292 0.0
H130 H 0.46001 0.27364 0.19735 0.0
H131 H 0.48305 1.02837 0.23853 0.0
H132 H 0.39588 1.13174 0.31565 0.0
H133 H 0.45036 1.0913 0.33632 0.0
H134 H 0.36275 1.02791 0.31177 0.0
H135 H 0.43311 0.97588 0.27753 0.0
H136 H 0.53807 1.04209 0.27694 0.0
C137 C 0.60965 0.24782 0.17699 0.0
C138 C 0.61595 0.38135 0.19095 0.0
C139 C 0.73757 0.20046 0.36821 0.0
C140 C 0.69805 1.12619 0.38387 0.0
C141 C 0.62575 1.06933 0.36984 0.0
C142 C 0.58927 1.08929 0.34266 0.0
C143 C 0.62858 0.16566 0.3282 0.0
C144 C 0.70333 0.21821 0.33987 0.0
C145 C 0.74224 0.29196 0.31826 0.0
C146 C 0.67575 0.27765 0.29293 0.0
C147 C 0.60888 0.20456 0.29956 0.0
C148 C 0.81641 0.29548 0.30046 0.0
C149 C 0.7616 0.36373 0.34189 0.0
C150 C 0.35495 1.05833 0.23074 0.0
C151 C 0.3364 1.07695 0.19739 0.0
C152 C 0.36825 0.15676 0.18791 0.0
C153 C 0.43171 0.21448 0.20704 0.0
C154 C 0.46253 0.19044 0.23491 0.0
C155 C 0.42034 1.11592 0.24875 0.0
C156 C 0.46431 1.10199 0.27829 0.0
C157 C 0.53971 0.18063 0.27918 0.0
C158 C 0.53948 0.22961 0.2522 0.0
C159 C 0.48024 1.0333 0.26765 0.0
C160 C 0.41593 1.08704 0.31246 0.0
H161 H 0.84088 0.44714 0.2785 0.0
H162 H 0.76844 0.33192 0.15853 0.0
H163 H 0.66468 0.44204 0.19574 0.0
H164 H 0.56632 0.37928 0.20627 0.0
H165 H 0.60055 0.37527 0.16251 0.0
H166 H 0.62623 0.20367 0.1867 0.0
H167 H 0.63601 0.26816 0.15055 0.0
H168 H 0.54543 0.21786 0.17276 0.0
H169 H 0.79399 0.24452 0.37812 0.0
H170 H 0.59672 1.011 0.38085 0.0
H171 H 0.53226 1.04473 0.33394 0.0
H172 H 0.83725 0.25791 0.31382 0.0
H173 H 0.86794 0.35541 0.3016 0.0
H174 H 0.80425 0.27454 0.27271 0.0
H175 H 0.70836 0.35314 0.35707 0.0
H176 H 0.77794 0.41777 0.32664 0.0
H177 H 0.81089 0.37529 0.36016 0.0
H178 H 0.94351 0.45523 0.23891 0.0
C179 C 0.82434 0.42165 0.25267 0.0
C180 C 1.1061 1.0166 0.54395 0.0
C181 C 1.1091 1.0746 0.56733 0.0
C182 C 1.11894 1.06438 0.60344 0.0
C183 C 1.06418 0.92497 0.59242 0.0
C184 C 1.07694 0.93993 0.55678 0.0
C185 C 1.03467 0.86607 0.53496 0.0
H186 H 0.72921 0.50156 0.52345 0.0
C187 C 1.00743 0.84056 0.59689 0.0
C188 C 0.9918 0.80522 0.56333 0.0
H189 H 0.87571 0.64587 0.43867 0.0
H190 H 0.96582 0.74066 0.48129 0.0
H191 H 0.88553 0.53369 0.57368 0.0
H192 H 0.70157 0.58523 0.56452 0.0
H193 H 0.74307 0.64241 0.60255 0.0
H194 H 0.70512 0.53709 0.60345 0.0
H195 H 0.78339 0.4766 0.58549 0.0
H196 H 0.8564 0.54041 0.617 0.0
C197 C 1.0973 0.85111 0.51623 0.0
C198 C 0.97672 0.87607 0.50962 0.0
C199 C 0.83446 0.75186 0.70577 0.0
C200 C 0.77366 0.67818 0.71658 0.0
C201 C 0.7557 0.61086 0.69627 0.0
C202 C 0.79764 0.61726 0.66528 0.0
C203 C 0.85632 0.69185 0.65424 0.0
C204 C 0.87665 0.75698 0.67515 0.0
C205 C 0.94539 0.82999 0.66052 0.0
C206 C 0.95882 0.79846 0.62582 0.0
C207 C 0.90395 0.71824 0.62199 0.0
C208 C 1.01652 0.85652 0.68591 0.0
C209 C 0.91794 0.89236 0.65519 0.0
C210 C 0.77936 0.555 0.514 0.0
C211 C 0.79316 0.56942 0.47789 0.0
C212 C 0.8624 0.63588 0.46651 0.0
C213 C 0.91464 0.68999 0.49121 0.0
C214 C 0.89654 0.67739 0.52738 0.0
C215 C 0.831 0.60947 0.53813 0.0
C216 C 0.82225 0.60272 0.57734 0.0
C217 C 0.88973 0.682 0.58845 0.0
C218 C 0.93334 0.72525 0.55918 0.0
C219 C 0.83712 0.53451 0.58922 0.0
C220 C 0.7392 0.59126 0.58768 0.0
H221 H 1.09215 0.98073 0.64432 0.0
H222 H 1.10548 1.02433 0.51576 0.0
H223 H 0.9223 0.82101 0.50392 0.0
H224 H 1.00583 0.90311 0.48431 0.0
H225 H 0.95477 0.9145 0.52148 0.0
H226 H 1.14874 0.86643 0.53382 0.0
H227 H 1.11954 0.88754 0.4921 0.0
H228 H 1.07489 0.78843 0.50928 0.0
H229 H 0.84917 0.80454 0.72098 0.0
H230 H 0.70979 0.55343 0.70446 0.0
H231 H 0.78307 0.56419 0.65109 0.0
H232 H 1.01136 0.80692 0.70237 0.0
H233 H 1.02138 0.90388 0.704 0.0
H234 H 1.07288 0.87677 0.67161 0.0
H235 H 0.90557 0.91173 0.68089 0.0
H236 H 0.86296 0.8674 0.63916 0.0
H237 H 0.9612 0.9457 0.64159 0.0
H238 H 1.12882 1.11063 0.62215 0.0
C239 C 1.09515 0.98838 0.61632 0.0
C240 C 0.23316 0.29535 0.85635 0.0
C241 C 0.29541 0.29706 0.87614 0.0
C242 C 0.2794 0.27083 0.9114 0.0
C243 C 1.1704 0.29798 0.91086 0.0
C244 C 1.17393 0.30217 0.87462 0.0
C245 C 1.12389 0.33516 0.85989 0.0
H246 H 0.9939 0.59143 0.88444 0.0
C247 C 1.1233 0.33424 0.92333 0.0
C248 C 1.0924 0.35281 0.89356 0.0
H249 H 1.04397 0.50719 0.78751 0.0
H250 H 1.04144 0.39746 0.81863 0.0
H251 H 0.88739 0.39671 0.92388 0.0
H252 H 1.08302 0.61557 0.92746 0.0
H253 H 1.12847 0.57035 0.95106 0.0
H254 H 1.04404 0.57603 0.96861 0.0
H255 H 0.9071 0.49302 0.93823 0.0
H256 H 0.91935 0.42712 0.96771 0.0
C257 C 1.05662 0.26947 0.83821 0.0
C258 C 1.17776 0.41129 0.83847 0.0
C259 C 0.20668 0.49399 0.03626 0.0
C260 C 1.18064 0.54382 0.05139 0.0
C261 C 1.10719 0.5356 0.04115 0.0
C262 C 1.06421 0.48462 0.01378 0.0
C263 C 1.09789 0.44625 -0.00498 0.0
C264 C 1.16386 0.44516 0.00792 0.0
C265 C 1.18414 0.39204 -0.01371 0.0
C266 C 1.12342 0.3688 0.95638 0.0
C267 C 1.07709 0.4061 0.96081 0.0
C268 C 1.17211 0.3208 0.00913 0.0
C269 C 0.26992 0.44147 0.97293 0.0
C270 C 1.00708 0.55063 0.87018 0.0
C271 C 1.02529 0.56136 0.83414 0.0
C272 C 1.03324 0.50247 0.81562 0.0
C273 C 1.0331 0.43953 0.83382 0.0
C274 C 1.02983 0.43847 0.87087 0.0
C275 C 1.01356 0.49144 0.88837 0.0
C276 C 1.01361 0.48305 0.92771 0.0
C277 C 1.04295 0.42267 0.93099 0.0
C278 C 1.05096 0.39618 0.89744 0.0
C279 C 0.92735 0.4484 0.9403 0.0
C280 C 1.06996 0.56475 0.9447 0.0
H281 H 0.20911 0.25914 0.95675 0.0
H282 H 0.24023 0.30903 0.82852 0.0
H283 H 0.24173 0.43125 0.84173 0.0
H284 H 1.1729 0.46318 0.84742 0.0
H285 H 1.16501 0.40244 0.80979 0.0
H286 H 1.03286 0.21164 0.85177 0.0
H287 H 1.0779 0.26327 0.81182 0.0
H288 H 1.00579 0.28011 0.83507 0.0
H289 H 0.26074 0.49591 0.0452 0.0
H290 H 1.08303 0.56861 0.05408 0.0
H291 H 1.00759 0.47835 0.00721 0.0
H292 H 1.15355 0.32437 0.03652 0.0
H293 H 0.22746 0.31704 0.01145 0.0
H294 H 1.12532 0.26437 -0.00195 0.0
H295 H 0.31222 0.46348 -0.00472 0.0
H296 H 0.27635 0.49305 0.95758 0.0
H297 H 0.28873 0.40752 0.95589 0.0
H298 H 0.32339 0.26484 0.92677 0.0
C299 C 0.21567 0.27098 0.92906 0.0
C300 C 1.00647 0.43847 0.47328 0.0
C301 C 0.94312 0.36988 0.45508 0.0
C302 C 0.95242 0.37047 0.41836 0.0
C303 C 1.07607 0.49809 0.41754 0.0
C304 C 1.07315 0.50194 0.4538 0.0
C305 C 1.14889 0.57994 0.46591 0.0
H306 H 0.48493 0.93903 0.40582 0.0
C307 C 1.1483 0.57016 0.4032 0.0
C308 C 1.19451 0.62103 0.43111 0.0
H309 H 0.45421 0.87009 0.51448 0.0
H310 H 0.3309 0.74727 0.49877 0.0
H311 H 0.46297 0.77449 0.38327 0.0
H312 H 0.30258 0.86957 0.37896 0.0
H313 H 0.30324 0.82738 0.33771 0.0
H314 H 0.39287 0.9082 0.35431 0.0
H315 H 0.46993 0.84225 0.34961 0.0
H316 H 0.4072 0.73718 0.34478 0.0
C317 C 1.20009 0.5582 0.48937 0.0
C318 C 1.12425 0.63389 0.48573 0.0
C319 C 1.17497 0.58019 0.26892 0.0
C320 C 0.23086 0.6314 0.24435 0.0
C321 C 0.29532 0.70074 0.25775 0.0
C322 C 0.30348 0.71794 0.29451 0.0
C323 C 0.24758 0.66462 0.31882 0.0
C324 C 1.18489 0.59722 0.30536 0.0
C325 C 1.13178 0.54511 0.33394 0.0
C326 C 1.17201 0.59123 0.36734 0.0
C327 C 0.23999 0.662 0.35871 0.0
C328 C 1.13338 0.46564 0.33191 0.0
C329 C 1.04925 0.5388 0.32837 0.0
C330 C 0.45392 0.89885 0.4268 0.0
C331 C 0.48397 0.91893 0.46172 0.0
C332 C 0.43618 0.86004 0.48712 0.0
C333 C 0.36376 0.78789 0.47803 0.0
C334 C 0.33682 0.76917 0.44249 0.0
C335 C 0.38513 0.82528 0.41789 0.0
C336 C 0.36 0.79538 0.38091 0.0
C337 C 0.28708 0.71497 0.38628 0.0
C338 C 0.26829 0.69656 0.42278 0.0
C339 C 0.42834 0.78725 0.36342 0.0
C340 C 0.33888 0.85314 0.36168 0.0
H341 H 1.01379 0.42405 0.37224 0.0
H342 H 1.00392 0.44302 0.5016 0.0
H343 H 1.0865 0.64865 0.46869 0.0
H344 H 1.17699 0.6897 0.49362 0.0
H345 H 1.09032 0.60445 0.50982 0.0
H346 H 0.21703 0.51859 0.47492 0.0
H347 H 1.16733 0.52731 0.51348 0.0
H348 H 0.25485 0.61154 0.49748 0.0
H349 H 1.12453 0.52612 0.26011 0.0
H350 H 0.33926 0.74193 0.23981 0.0
H351 H 0.3534 0.77227 0.30264 0.0
H352 H 1.19025 0.47369 0.32103 0.0
H353 H 1.08545 0.42246 0.31473 0.0
H354 H 1.12937 0.43907 0.3581 0.0
H355 H 1.05439 0.59359 0.31655 0.0
H356 H 1.01708 0.53222 0.35329 0.0
H357 H 1.01202 0.48925 0.31041 0.0
H358 H 0.90921 0.32199 0.40295 0.0
C359 C 1.01556 0.4317 0.40014 0.0
C360 C 0.76197 0.99966 0.80305 0.0
C361 C 0.75466 0.92956 0.78518 0.0
C362 C 0.74308 0.92759 0.7485 0.0
C363 C 0.74733 1.05719 0.74738 0.0
C364 C 0.75753 1.06277 0.78354 0.0
C365 C 0.76098 0.14164 0.79609 0.0
H366 H 0.78445 0.50575 0.73968 0.0
C367 C 0.74706 1.13027 0.7333 0.0
C368 C 0.7553 0.1826 0.76159 0.0
H369 H 0.75524 0.43495 0.84816 0.0
H370 H 0.75369 0.3099 0.83095 0.0
H371 H 0.89816 0.43755 0.71425 0.0
H372 H 0.64886 0.3519 0.71592 0.0
H373 H 0.66397 0.31083 0.67759 0.0
H374 H 0.71037 0.41662 0.68211 0.0
H375 H 0.84832 0.47256 0.68545 0.0
H376 H 0.86273 0.39 0.67357 0.0
C377 C 0.83922 0.19354 0.81514 0.0
C378 C 0.69028 1.12233 0.82023 0.0
C379 C 0.71612 0.147 0.59871 0.0
C380 C 0.72065 0.2078 0.57656 0.0
C381 C 0.73823 0.28044 0.59254 0.0
C382 C 0.74908 0.2924 0.62901 0.0
C383 C 0.74268 0.2313 0.651 0.0
C384 C 0.7281 0.16058 0.63572 0.0
C385 C 0.72882 1.10474 0.66334 0.0
C386 C 0.74232 0.1521 0.69765 0.0
C387 C 0.74965 0.22622 0.69019 0.0
C388 C 0.79892 1.08942 0.65493 0.0
C389 C 0.64673 1.03005 0.66291 0.0
C390 C 0.77789 0.46456 0.76023 0.0
C391 C 0.77035 0.48369 0.79548 0.0
C392 C 0.76101 0.42445 0.82057 0.0
C393 C 0.76003 0.35126 0.8106 0.0
C394 C 0.76561 0.33307 0.77469 0.0
C395 C 0.77285 0.39057 0.75066 0.0
C396 C 0.76853 0.36263 0.7135 0.0
C397 C 0.75871 0.28005 0.71805 0.0
C398 C 0.75937 0.26006 0.75412 0.0
C399 C 0.84808 0.41857 0.69543 0.0
C400 C 0.69475 0.3607 0.69608 0.0
H401 H 0.73073 0.98049 0.70222 0.0
H402 H 0.77051 1.00508 0.83129 0.0
H403 H 0.63407 1.08351 0.80632 0.0
H404 H 0.68883 0.17653 0.82839 0.0
H405 H 0.69334 1.09144 0.84431 0.0
H406 H 0.88961 0.20622 0.79737 0.0
H407 H 0.84477 0.16349 0.839 0.0
H408 H 0.84322 0.25047 0.8233 0.0
H409 H 0.70407 1.09072 0.58766 0.0
H410 H 0.74337 0.32909 0.57669 0.0
H411 H 0.76198 0.34946 0.63858 0.0
H412 H 0.84614 0.13902 0.63994 0.0
H413 H 0.77959 1.03517 0.63885 0.0
H414 H 0.82901 1.08512 0.67894 0.0
H415 H 0.59922 1.04609 0.65902 0.0
H416 H 0.6321 0.99747 0.68803 0.0
H417 H 0.64227 0.98961 0.64114 0.0
H418 H 0.73719 0.87731 0.73348 0.0
C419 C 0.73962 0.98905 0.73004 0.0
C420 C 0.95568 0.59849 0.13535 0.0
C421 C 1.03391 0.62408 0.12057 0.0
C422 C 1.04898 0.66557 0.08863 0.0
C423 C 0.91343 0.64407 0.08315 0.0
C424 C 0.89714 0.61218 0.11652 0.0
C425 C 0.81332 0.59876 0.12706 0.0
H426 H 0.48486 0.64792 0.07204 0.0
C427 C 0.84276 0.64715 0.06817 0.0
C428 C 0.78307 0.62507 0.09429 0.0
H429 H 0.50008 0.5629 0.17467 0.0
H430 H 0.62834 0.57034 0.15819 0.0
H431 H 0.66197 0.77641 0.06049 0.0
H432 H 0.53023 0.53058 0.03465 0.0
H433 H 0.59535 0.57335 -0.00053 0.0
H434 H 0.52296 0.60434 0.00902 0.0
H435 H 0.58769 0.73795 0.02676 0.0
H436 H 0.68927 0.76602 0.01745 0.0
C437 C 0.82017 0.64944 0.15944 0.0
C438 C 0.75899 0.51125 0.13422 0.0
C439 C 0.83928 0.68555 0.93457 0.0
C440 C 0.78701 0.69464 0.91145 0.0
C441 C 0.72131 0.69696 0.92629 0.0
C442 C 0.70568 0.68639 0.96273 0.0
C443 C 0.75727 0.67522 0.98542 0.0
C444 C 0.82397 0.67726 0.97122 0.0
C445 C 0.87785 0.67576 -0.0004 0.0
C446 C 0.82796 0.66242 0.0329 0.0
C447 C 0.75748 0.66277 0.02446 0.0
C448 C 0.95347 0.75769 -0.00013 0.0
C449 C 0.89377 0.60619 -0.00815 0.0
C450 C 0.51509 0.63155 0.09158 0.0
C451 C 0.48004 0.60619 0.12506 0.0
C452 C 0.52351 0.58341 0.14861 0.0
C453 C 0.59876 0.58845 0.1392 0.0
C454 C 0.63274 0.61532 0.10538 0.0
C455 C 0.58794 0.63387 0.08234 0.0
C456 C 0.62373 0.65257 0.04629 0.0
C457 C 0.69965 0.64804 0.05108 0.0
C458 C 0.70891 0.62722 0.08607 0.0
C459 C 0.64127 0.73736 0.03689 0.0
C460 C 0.56535 0.58761 0.02079 0.0
H461 H 1.00813 0.70283 0.04522 0.0
H462 H 0.94108 0.57021 0.16084 0.0
H463 H 0.75847 0.47486 0.1114 0.0
H464 H 0.69783 0.50019 0.13851 0.0
H465 H 0.77951 0.49254 0.15778 0.0
H466 H 0.86066 0.71267 0.15386 0.0
H467 H 0.8438 0.63182 0.18236 0.0
H468 H 0.76197 0.64306 0.16678 0.0
H469 H 0.8923 0.68694 0.92446 0.0
H470 H 0.68199 0.7077 0.90983 0.0
H471 H 0.65414 0.68831 0.97186 0.0
H472 H 0.94696 0.80216 0.98379 0.0
H473 H 1.00509 0.75406 -0.01087 0.0
H474 H 0.96777 0.78371 0.02673 0.0
H475 H 0.83728 0.55089 -0.0123 0.0
H476 H 0.92495 0.59467 0.01339 0.0
H477 H 0.93002 0.61766 0.96768 0.0
H478 H 1.10716 0.69094 0.07703 0.0
C479 C 0.99047 0.67348 0.06991 0.0
loop_
_geom_bond_atom_site_label_1
_geom_bond_atom_site_label_2
_geom_bond_distance
_geom_bond_site_symmetry_2
_ccdc_geom_bond_type
Tb0 C2 2.809 . S
Tb0 O20 2.484 . S
Tb0 O21 2.440 . S
Tb0 O22 2.658 . S
Tb0 O23 2.409 . S
Tb0 O24 2.378 . S
Tb0 O28 2.325 . S
Tb0 O31 2.341 1_455 S
Tb1 C11 2.809 . S
Tb1 O22 2.325 1_655 S
Tb1 O25 2.341 1_655 S
Tb1 O26 2.484 . S
Tb1 O27 2.440 . S
Tb1 O28 2.658 1_655 S
Tb1 O29 2.409 . S
Tb1 O30 2.378 . S
C2 Tb0 2.809 . S
C2 C3 1.514 . S
C2 O20 1.248 . S
C2 O21 1.266 . S
C3 C2 1.514 . S
C3 C4 1.359 . S
C3 C8 1.348 . S
C4 C3 1.359 . S
C4 C5 1.380 . S
C4 H32 0.929 . S
C5 C4 1.380 . S
C5 C6 1.347 . S
C5 H33 0.931 . S
C6 C5 1.347 . S
C6 C7 1.369 . S
C7 C6 1.369 . S
C7 C8 1.408 . S
C7 H34 0.930 . S
C8 C3 1.348 . S
C8 C7 1.408 . S
C8 H35 0.930 . S
C9 O22 1.281 . S
C9 O23 1.254 . S
C10 O24 1.236 . S
C10 O25 1.266 . S
C11 Tb1 2.809 . S
C11 C12 1.514 . S
C11 O26 1.248 . S
C11 O27 1.266 . S
C12 C11 1.514 . S
C12 C13 1.359 . S
C12 C17 1.348 . S
C13 C12 1.359 . S
C13 C14 1.380 . S
C13 H36 0.929 . S
C14 C13 1.380 . S
C14 C15 1.347 . S
C14 H37 0.931 . S
C15 C14 1.347 . S
C15 C16 1.369 . S
C16 C15 1.369 . S
C16 C17 1.408 . S
C16 H38 0.930 . S
C17 C12 1.348 . S
C17 C16 1.408 . S
C17 H39 0.930 . S
C18 O28 1.281 . S
C18 O29 1.254 1_455 S
C19 O30 1.236 . S
C19 O31 1.266 . S
O20 Tb0 2.484 . S
O20 C2 1.248 . S
O21 Tb0 2.440 . S
O21 C2 1.266 . S
O22 Tb0 2.658 . S
O22 Tb1 2.325 1_455 S
O22 C9 1.281 . S
O23 Tb0 2.409 . S
O23 C9 1.254 . S
O24 Tb0 2.378 . S
O24 C10 1.236 . S
O25 Tb1 2.341 1_455 S
O25 C10 1.266 . S
O26 Tb1 2.484 . S
O26 C11 1.248 . S
O27 Tb1 2.440 . S
O27 C11 1.266 . S
O28 Tb0 2.325 . S
O28 Tb1 2.658 1_455 S
O28 C18 1.281 . S
O29 Tb1 2.409 . S
O29 C18 1.254 1_655 S
O30 Tb1 2.378 . S
O30 C19 1.236 . S
O31 Tb0 2.341 1_655 S
O31 C19 1.266 . S
H32 C4 0.929 . S
H33 C5 0.931 . S
H34 C7 0.930 . S
H35 C8 0.930 . S
H36 C13 0.929 . S
H37 C14 0.931 . S
H38 C16 0.930 . S
H39 C17 0.930 . S
Tb40 C42 2.809 . S
Tb40 O60 2.484 . S
Tb40 O61 2.440 . S
Tb40 O62 2.658 1_565 S
Tb40 O63 2.409 . S
Tb40 O64 2.378 . S
Tb40 O68 2.325 1_565 S
Tb40 O71 2.341 1_565 S
Tb41 C51 2.809 . S
Tb41 O62 2.325 . S
Tb41 O65 2.341 1_545 S
Tb41 O66 2.484 . S
Tb41 O67 2.440 . S
Tb41 O68 2.658 . S
Tb41 O69 2.409 . S
Tb41 O70 2.378 . S
C42 Tb40 2.809 . S
C42 C43 1.514 . S
C42 O60 1.248 . S
C42 O61 1.266 . S
C43 C42 1.514 . S
C43 C44 1.359 . S
C43 C48 1.348 . S
C44 C43 1.359 . S
C44 C45 1.380 . S
C44 H72 0.929 . S
C45 C44 1.380 . S
C45 C46 1.347 . S
C45 H73 0.931 . S
C46 C45 1.347 . S
C46 C47 1.369 . S
C47 C46 1.369 . S
C47 C48 1.408 . S
C47 H74 0.930 . S
C48 C43 1.348 . S
C48 C47 1.408 . S
C48 H75 0.930 . S
C49 O62 1.281 . S
C49 O63 1.254 1_545 S
C50 O64 1.236 . S
C50 O65 1.266 . S
C51 Tb41 2.809 . S
C51 C52 1.514 . S
C51 O66 1.248 . S
C51 O67 1.266 . S
C52 C51 1.514 . S
C52 C53 1.359 . S
C52 C57 1.348 . S
C53 C52 1.359 . S
C53 C54 1.380 . S
C53 H76 0.929 . S
C54 C53 1.380 . S
C54 C55 1.347 . S
C54 H77 0.931 . S
C55 C54 1.347 . S
C55 C56 1.369 . S
C56 C55 1.369 . S
C56 C57 1.408 . S
C56 H78 0.930 . S
C57 C52 1.348 . S
C57 C56 1.408 . S
C57 H79 0.930 . S
C58 O68 1.281 . S
C58 O69 1.254 . S
C59 O70 1.236 . S
C59 O71 1.266 . S
O60 Tb40 2.484 . S
O60 C42 1.248 . S
O61 Tb40 2.440 . S
O61 C42 1.266 . S
O62 Tb40 2.658 1_545 S
O62 Tb41 2.325 . S
O62 C49 1.281 . S
O63 Tb40 2.409 . S
O63 C49 1.254 1_565 S
O64 Tb40 2.378 . S
O64 C50 1.236 . S
O65 Tb41 2.341 1_565 S
O65 C50 1.266 . S
O66 Tb41 2.484 . S
O66 C51 1.248 . S
O67 Tb41 2.440 . S
O67 C51 1.266 . S
O68 Tb40 2.325 1_545 S
O68 Tb41 2.658 . S
O68 C58 1.281 . S
O69 Tb41 2.409 . S
O69 C58 1.254 . S
O70 Tb41 2.378 . S
O70 C59 1.236 . S
O71 Tb40 2.341 1_545 S
O71 C59 1.266 . S
H72 C44 0.929 . S
H73 C45 0.931 . S
H74 C47 0.930 . S
H75 C48 0.930 . S
H76 C53 0.929 . S
H77 C54 0.931 . S
H78 C56 0.930 . S
H79 C57 0.930 . S
Tb80 C82 2.809 . S
Tb80 O100 2.484 . S
Tb80 O101 2.440 . S
Tb80 O102 2.658 . S
Tb80 O103 2.409 . S
Tb80 O104 2.378 . S
Tb80 O108 2.325 . S
Tb80 O111 2.341 . S
Tb81 C91 2.809 . S
Tb81 O102 2.325 . S
Tb81 O105 2.341 . S
Tb81 O106 2.484 . S
Tb81 O107 2.440 . S
Tb81 O108 2.658 . S
Tb81 O109 2.409 . S
Tb81 O110 2.378 . S
C82 Tb80 2.809 . S
C82 C83 1.514 . S
C82 O100 1.248 . S
C82 O101 1.266 . S
C83 C82 1.514 . S
C83 C84 1.359 . S
C83 C88 1.348 . S
C84 C83 1.359 . S
C84 C85 1.380 . S
C84 H112 0.929 . S
C85 C84 1.380 . S
C85 C86 1.347 . S
C85 H113 0.931 . S
C86 C85 1.347 . S
C86 C87 1.369 . S
C87 C86 1.369 . S
C87 C88 1.408 . S
C87 H114 0.930 . S
C88 C83 1.348 . S
C88 C87 1.408 . S
C88 H115 0.930 . S
C89 O102 1.281 . S
C89 O103 1.254 . S
C90 O104 1.236 . S
C90 O105 1.266 . S
C91 Tb81 2.809 . S
C91 C92 1.514 . S
C91 O106 1.248 . S
C91 O107 1.266 . S
C92 C91 1.514 . S
C92 C93 1.359 . S
C92 C97 1.348 . S
C93 C92 1.359 . S
C93 C94 1.380 . S
C93 H116 0.929 . S
C94 C93 1.380 . S
C94 C95 1.347 . S
C94 H117 0.931 . S
C95 C94 1.347 . S
C95 C96 1.369 . S
C96 C95 1.369 . S
C96 C97 1.408 . S
C96 H118 0.930 . S
C97 C92 1.348 . S
C97 C96 1.408 . S
C97 H119 0.930 . S
C98 O108 1.281 . S
C98 O109 1.254 . S
C99 O110 1.236 . S
C99 O111 1.266 . S
O100 Tb80 2.484 . S
O100 C82 1.248 . S
O101 Tb80 2.440 . S
O101 C82 1.266 . S
O102 Tb80 2.658 . S
O102 Tb81 2.325 . S
O102 C89 1.281 . S
O103 Tb80 2.409 . S
O103 C89 1.254 . S
O104 Tb80 2.378 . S
O104 C90 1.236 . S
O105 Tb81 2.341 . S
O105 C90 1.266 . S
O106 Tb81 2.484 . S
O106 C91 1.248 . S
O107 Tb81 2.440 . S
O107 C91 1.266 . S
O108 Tb80 2.325 . S
O108 Tb81 2.658 . S
O108 C98 1.281 . S
O109 Tb81 2.409 . S
O109 C98 1.254 . S
O110 Tb81 2.378 . S
O110 C99 1.236 . S
O111 Tb80 2.341 . S
O111 C99 1.266 . S
H112 C84 0.929 . S
H113 C85 0.931 . S
H114 C87 0.930 . S
H115 C88 0.930 . S
H116 C93 0.929 . S
H117 C94 0.931 . S
H118 C96 0.930 . S
H119 C97 0.930 . S
C120 C121 1.391 . S
C120 C124 1.391 . S
C120 H162 0.948 . S
C121 C120 1.391 . S
C121 C122 1.391 . S
C122 C121 1.391 . S
C122 H178 0.947 . S
C122 C179 1.392 . S
C123 C124 1.391 . S
C123 C127 1.397 . S
C123 C179 1.419 . S
C124 C120 1.391 . S
C124 C123 1.391 . S
C124 C125 1.399 . S
C125 C124 1.399 . S
C125 C128 1.396 . S
C125 C137 1.453 . S
C125 C138 1.684 . S
H126 C150 0.948 . S
C127 C123 1.397 . S
C127 C128 1.394 . S
C127 C146 1.723 . S
C128 C125 1.396 . S
C128 C127 1.394 . S
C128 C158 1.723 . S
H129 C152 0.947 . S
H130 C153 0.948 . S
H131 C159 0.982 . S
H132 C160 0.979 . S
H133 C160 0.980 . S
H134 C160 0.983 . S
H135 C159 0.979 . S
H136 C159 0.977 . S
C137 C125 1.453 . S
C137 H166 0.982 . S
C137 H167 0.979 . S
C137 H168 0.977 . S
C138 C125 1.684 . S
C138 H163 0.979 . S
C138 H164 0.980 . S
C138 H165 0.983 . S
C139 C140 1.391 . S
C139 C144 1.391 . S
C139 H169 0.948 . S
C140 C139 1.391 . S
C140 C141 1.391 1_545 S
C141 C140 1.391 1_565 S
C141 C142 1.392 . S
C141 H170 0.947 . S
C142 C141 1.392 . S
C142 C143 1.419 1_565 S
C142 H171 0.948 . S
C143 C142 1.419 1_545 S
C143 C144 1.391 . S
C143 C147 1.397 . S
C144 C139 1.391 . S
C144 C143 1.391 . S
C144 C145 1.399 . S
C145 C144 1.399 . S
C145 C146 1.396 . S
C145 C148 1.453 . S
C145 C149 1.684 . S
C146 C127 1.723 . S
C146 C145 1.396 . S
C146 C147 1.394 . S
C147 C143 1.397 . S
C147 C146 1.394 . S
C147 C157 1.723 1_545 S
C148 C145 1.453 . S
C148 H172 0.982 . S
C148 H173 0.979 . S
C148 H174 0.977 . S
C149 C145 1.684 . S
C149 H175 0.979 . S
C149 H176 0.980 . S
C149 H177 0.983 . S
C150 H126 0.948 . S
C150 C151 1.391 . S
C150 C155 1.391 . S
C151 C150 1.391 . S
C151 C152 1.391 . S
C152 H129 0.947 . S
C152 C151 1.391 . S
C152 C153 1.392 . S
C153 H130 0.948 . S
C153 C152 1.392 . S
C153 C154 1.419 . S
C154 C153 1.419 . S
C154 C155 1.391 . S
C154 C158 1.397 1_565 S
C155 C150 1.391 . S
C155 C154 1.391 . S
C155 C156 1.399 . S
C156 C155 1.399 . S
C156 C157 1.396 . S
C156 C159 1.453 . S
C156 C160 1.684 . S
C157 C147 1.723 1_565 S
C157 C156 1.396 . S
C157 C158 1.394 1_565 S
C158 C128 1.723 . S
C158 C154 1.397 1_545 S
C158 C157 1.394 1_545 S
C159 H131 0.982 . S
C159 H135 0.979 . S
C159 H136 0.977 . S
C159 C156 1.453 . S
C160 H132 0.979 . S
C160 H133 0.980 . S
C160 H134 0.983 . S
C160 C156 1.684 . S
H161 C179 0.948 . S
H162 C120 0.948 . S
H163 C138 0.979 . S
H164 C138 0.980 . S
H165 C138 0.983 . S
H166 C137 0.982 . S
H167 C137 0.979 . S
H168 C137 0.977 . S
H169 C139 0.948 . S
H170 C141 0.947 . S
H171 C142 0.948 . S
H172 C148 0.982 . S
H173 C148 0.979 . S
H174 C148 0.977 . S
H175 C149 0.979 . S
H176 C149 0.980 . S
H177 C149 0.983 . S
H178 C122 0.947 . S
C179 C122 1.392 . S
C179 C123 1.419 . S
C179 H161 0.948 . S
C180 C181 1.391 . S
C180 C184 1.391 . S
C180 H222 0.948 . S
C181 C180 1.391 . S
C181 C182 1.391 . S
C182 C181 1.391 . S
C182 H238 0.947 . S
C182 C239 1.392 . S
C183 C184 1.391 . S
C183 C187 1.397 . S
C183 C239 1.419 . S
C184 C180 1.391 . S
C184 C183 1.391 . S
C184 C185 1.399 . S
C185 C184 1.399 . S
C185 C188 1.396 . S
C185 C197 1.453 . S
C185 C198 1.684 . S
H186 C210 0.948 . S
C187 C183 1.397 . S
C187 C188 1.394 . S
C187 C206 1.723 . S
C188 C185 1.396 . S
C188 C187 1.394 . S
C188 C218 1.723 . S
H189 C212 0.947 . S
H190 C213 0.948 . S
H191 C219 0.982 . S
H192 C220 0.979 . S
H193 C220 0.980 . S
H194 C220 0.983 . S
H195 C219 0.979 . S
H196 C219 0.977 . S
C197 C185 1.453 . S
C197 H226 0.982 . S
C197 H227 0.979 . S
C197 H228 0.977 . S
C198 C185 1.684 . S
C198 H223 0.979 . S
C198 H224 0.980 . S
C198 H225 0.983 . S
C199 C200 1.391 . S
C199 C204 1.391 . S
C199 H229 0.948 . S
C200 C199 1.391 . S
C200 C201 1.391 . S
C201 C200 1.391 . S
C201 C202 1.392 . S
C201 H230 0.947 . S
C202 C201 1.392 . S
C202 C203 1.419 . S
C202 H231 0.948 . S
C203 C202 1.419 . S
C203 C204 1.391 . S
C203 C207 1.397 . S
C204 C199 1.391 . S
C204 C203 1.391 . S
C204 C205 1.399 . S
C205 C204 1.399 . S
C205 C206 1.396 . S
C205 C208 1.453 . S
C205 C209 1.684 . S
C206 C187 1.723 . S
C206 C205 1.396 . S
C206 C207 1.394 . S
C207 C203 1.397 . S
C207 C206 1.394 . S
C207 C217 1.723 . S
C208 C205 1.453 . S
C208 H232 0.982 . S
C208 H233 0.979 . S
C208 H234 0.977 . S
C209 C205 1.684 . S
C209 H235 0.979 . S
C209 H236 0.980 . S
C209 H237 0.983 . S
C210 H186 0.948 . S
C210 C211 1.391 . S
C210 C215 1.391 . S
C211 C210 1.391 . S
C211 C212 1.391 . S
C212 H189 0.947 . S
C212 C211 1.391 . S
C212 C213 1.392 . S
C213 H190 0.948 . S
C213 C212 1.392 . S
C213 C214 1.419 . S
C214 C213 1.419 . S
C214 C215 1.391 . S
C214 C218 1.397 . S
C215 C210 1.391 . S
C215 C214 1.391 . S
C215 C216 1.399 . S
C216 C215 1.399 . S
C216 C217 1.396 . S
C216 C219 1.453 . S
C216 C220 1.684 . S
C217 C207 1.723 . S
C217 C216 1.396 . S
C217 C218 1.394 . S
C218 C188 1.723 . S
C218 C214 1.397 . S
C218 C217 1.394 . S
C219 H191 0.982 . S
C219 H195 0.979 . S
C219 H196 0.977 . S
C219 C216 1.453 . S
C220 H192 0.979 . S
C220 H193 0.980 . S
C220 H194 0.983 . S
C220 C216 1.684 . S
H221 C239 0.948 . S
H222 C180 0.948 . S
H223 C198 0.979 . S
H224 C198 0.980 . S
H225 C198 0.983 . S
H226 C197 0.982 . S
H227 C197 0.979 . S
H228 C197 0.977 . S
H229 C199 0.948 . S
H230 C201 0.947 . S
H231 C202 0.948 . S
H232 C208 0.982 . S
H233 C208 0.979 . S
H234 C208 0.977 . S
H235 C209 0.979 . S
H236 C209 0.980 . S
H237 C209 0.983 . S
H238 C182 0.947 . S
C239 C182 1.392 . S
C239 C183 1.419 . S
C239 H221 0.948 . S
C240 C241 1.391 . S
C240 C244 1.391 . S
C240 H282 0.948 . S
C241 C240 1.391 . S
C241 C242 1.391 . S
C242 C241 1.391 . S
C242 H298 0.947 . S
C242 C299 1.392 . S
C243 C244 1.391 . S
C243 C247 1.397 . S
C243 C299 1.419 . S
C244 C240 1.391 . S
C244 C243 1.391 . S
C244 C245 1.399 . S
C245 C244 1.399 . S
C245 C248 1.396 . S
C245 C257 1.453 . S
C245 C258 1.684 . S
H246 C270 0.948 . S
C247 C243 1.397 . S
C247 C248 1.394 . S
C247 C266 1.723 . S
C248 C245 1.396 . S
C248 C247 1.394 . S
C248 C278 1.723 1_455 S
H249 C272 0.947 . S
H250 C273 0.948 . S
H251 C279 0.982 . S
H252 C280 0.979 . S
H253 C280 0.980 . S
H254 C280 0.983 . S
H255 C279 0.979 . S
H256 C279 0.977 . S
C257 C245 1.453 . S
C257 H286 0.982 1_455 S
C257 H287 0.979 . S
C257 H288 0.977 1_455 S
C258 C245 1.684 . S
C258 H283 0.979 . S
C258 H284 0.980 . S
C258 H285 0.983 . S
C259 C260 1.391 . S
C259 C264 1.391 . S
C259 H289 0.948 . S
C260 C259 1.391 . S
C260 C261 1.391 1_455 S
C261 C260 1.391 1_655 S
C261 C262 1.392 . S
C261 H290 0.947 . S
C262 C261 1.392 . S
C262 C263 1.419 . S
C262 H291 0.948 . S
C263 C262 1.419 . S
C263 C264 1.391 1_655 S
C263 C267 1.397 1_554 S
C264 C259 1.391 . S
C264 C263 1.391 1_455 S
C264 C265 1.399 1_554 S
C265 C264 1.399 1_556 S
C265 C266 1.396 . S
C265 C268 1.453 . S
C265 C269 1.684 . S
C266 C247 1.723 . S
C266 C265 1.396 . S
C266 C267 1.394 1_455 S
C267 C263 1.397 1_556 S
C267 C266 1.394 1_655 S
C267 C277 1.723 . S
C268 C265 1.453 . S
C268 H292 0.982 . S
C268 H293 0.979 1_556 S
C268 H294 0.977 . S
C269 C265 1.684 . S
C269 H295 0.979 . S
C269 H296 0.984 . S
C269 H297 0.978 1_556 S
C270 H246 0.948 . S
C270 C271 1.391 . S
C270 C275 1.391 . S
C271 C270 1.391 . S
C271 C272 1.391 . S
C272 H249 0.947 . S
C272 C271 1.391 . S
C272 C273 1.392 . S
C273 H250 0.948 . S
C273 C272 1.392 . S
C273 C274 1.419 . S
C274 C273 1.419 . S
C274 C275 1.391 . S
C274 C278 1.397 . S
C275 C270 1.391 . S
C275 C274 1.391 . S
C275 C276 1.399 . S
C276 C275 1.399 . S
C276 C277 1.396 . S
C276 C279 1.453 . S
C276 C280 1.684 . S
C277 C267 1.723 . S
C277 C276 1.396 . S
C277 C278 1.394 . S
C278 C248 1.723 1_655 S
C278 C274 1.397 . S
C278 C277 1.394 . S
C279 H251 0.982 . S
C279 H255 0.979 . S
C279 H256 0.977 . S
C279 C276 1.453 . S
C280 H252 0.979 . S
C280 H253 0.980 . S
C280 H254 0.983 . S
C280 C276 1.684 . S
H281 C299 0.948 . S
H282 C240 0.948 . S
H283 C258 0.979 . S
H284 C258 0.980 . S
H285 C258 0.983 . S
H286 C257 0.982 1_655 S
H287 C257 0.979 . S
H288 C257 0.977 1_655 S
H289 C259 0.948 . S
H290 C261 0.947 . S
H291 C262 0.948 . S
H292 C268 0.982 . S
H293 C268 0.979 1_554 S
H294 C268 0.977 . S
H295 C269 0.979 . S
H296 C269 0.984 . S
H297 C269 0.978 1_554 S
H298 C242 0.947 . S
C299 C242 1.392 . S
C299 C243 1.419 . S
C299 H281 0.948 . S
C300 C301 1.391 . S
C300 C304 1.391 . S
C300 H342 0.948 . S
C301 C300 1.391 . S
C301 C302 1.391 . S
C302 C301 1.391 . S
C302 H358 0.947 . S
C302 C359 1.392 . S
C303 C304 1.391 . S
C303 C307 1.397 . S
C303 C359 1.419 . S
C304 C300 1.391 . S
C304 C303 1.391 . S
C304 C305 1.406 . S
C305 C304 1.406 . S
C305 C308 1.392 1_655 S
C305 C317 1.443 1_655 S
C305 C318 1.688 . S
H306 C330 0.948 . S
C307 C303 1.397 . S
C307 C308 1.394 1_655 S
C307 C326 1.723 1_655 S
C308 C305 1.392 1_455 S
C308 C307 1.394 1_455 S
C308 C338 1.723 . S
H309 C332 0.947 . S
H310 C333 0.948 . S
H311 C339 0.982 . S
H312 C340 0.979 . S
H313 C340 0.980 . S
H314 C340 0.983 . S
H315 C339 0.979 . S
H316 C339 0.977 . S
C317 C305 1.443 1_455 S
C317 H346 0.982 . S
C317 H347 0.979 . S
C317 H348 0.977 . S
C318 C305 1.688 . S
C318 H343 0.979 . S
C318 H344 0.980 1_655 S
C318 H345 0.983 . S
C319 C320 1.392 . S
C319 C324 1.391 . S
C319 H349 0.947 1_455 S
C320 C319 1.392 . S
C320 C321 1.391 . S
C321 C320 1.391 . S
C321 C322 1.392 . S
C321 H350 0.947 . S
C322 C321 1.392 . S
C322 C323 1.419 . S
C322 H351 0.948 . S
C323 C322 1.419 . S
C323 C324 1.391 . S
C323 C327 1.397 . S
C324 C319 1.391 . S
C324 C323 1.391 . S
C324 C325 1.399 1_455 S
C325 C324 1.399 1_655 S
C325 C326 1.396 1_655 S
C325 C328 1.453 . S
C325 C329 1.684 . S
C326 C307 1.723 1_455 S
C326 C325 1.396 1_455 S
C326 C327 1.394 . S
C327 C323 1.397 . S
C327 C326 1.394 . S
C327 C337 1.723 . S
C328 C325 1.453 . S
C328 H352 0.982 . S
C328 H353 0.979 . S
C328 H354 0.977 . S
C329 C325 1.684 . S
C329 H355 0.979 . S
C329 H356 0.980 . S
C329 H357 0.983 . S
C330 H306 0.948 . S
C330 C331 1.391 . S
C330 C335 1.391 . S
C331 C330 1.391 . S
C331 C332 1.391 . S
C332 H309 0.947 . S
C332 C331 1.391 . S
C332 C333 1.392 . S
C333 H310 0.948 . S
C333 C332 1.392 . S
C333 C334 1.419 . S
C334 C333 1.419 . S
C334 C335 1.391 . S
C334 C338 1.397 . S
C335 C330 1.391 . S
C335 C334 1.391 . S
C335 C336 1.399 . S
C336 C335 1.399 . S
C336 C337 1.396 . S
C336 C339 1.453 . S
C336 C340 1.684 . S
C337 C327 1.723 . S
C337 C336 1.396 . S
C337 C338 1.394 . S
C338 C308 1.723 . S
C338 C334 1.397 . S
C338 C337 1.394 . S
C339 H311 0.982 . S
C339 H315 0.979 . S
C339 H316 0.977 . S
C339 C336 1.453 . S
C340 H312 0.979 . S
C340 H313 0.980 . S
C340 H314 0.983 . S
C340 C336 1.684 . S
H341 C359 0.948 . S
H342 C300 0.948 . S
H343 C318 0.979 . S
H344 C318 0.980 1_455 S
H345 C318 0.983 . S
H346 C317 0.982 . S
H347 C317 0.979 . S
H348 C317 0.977 . S
H349 C319 0.947 1_655 S
H350 C321 0.947 . S
H351 C322 0.948 . S
H352 C328 0.982 . S
H353 C328 0.979 . S
H354 C328 0.977 . S
H355 C329 0.979 . S
H356 C329 0.980 . S
H357 C329 0.983 . S
H358 C302 0.947 . S
C359 C302 1.392 . S
C359 C303 1.419 . S
C359 H341 0.948 . S
C360 C361 1.391 . S
C360 C364 1.391 . S
C360 H402 0.948 . S
C361 C360 1.391 . S
C361 C362 1.391 . S
C362 C361 1.391 . S
C362 H418 0.947 . S
C362 C419 1.392 . S
C363 C364 1.391 . S
C363 C367 1.397 . S
C363 C419 1.419 . S
C364 C360 1.391 . S
C364 C363 1.391 . S
C364 C365 1.399 . S
C365 C364 1.399 . S
C365 C368 1.396 . S
C365 C377 1.453 . S
C365 C378 1.684 . S
H366 C390 0.948 . S
C367 C363 1.397 . S
C367 C368 1.394 . S
C367 C386 1.723 . S
C368 C365 1.396 . S
C368 C367 1.394 . S
C368 C398 1.723 1_565 S
H369 C392 0.947 . S
H370 C393 0.948 . S
H371 C399 0.982 . S
H372 C400 0.979 . S
H373 C400 0.980 . S
H374 C400 0.983 . S
H375 C399 0.979 . S
H376 C399 0.977 . S
C377 C365 1.453 . S
C377 H406 0.982 1_565 S
C377 H407 0.979 . S
C377 H408 0.977 1_565 S
C378 C365 1.684 . S
C378 H403 0.979 . S
C378 H404 0.980 . S
C378 H405 0.983 . S
C379 C380 1.391 1_565 S
C379 C384 1.391 . S
C379 H409 0.948 . S
C380 C379 1.391 1_545 S
C380 C381 1.391 . S
C381 C380 1.391 . S
C381 C382 1.392 . S
C381 H410 0.947 . S
C382 C381 1.392 . S
C382 C383 1.419 . S
C382 H411 0.948 . S
C383 C382 1.419 . S
C383 C384 1.391 1_545 S
C383 C387 1.397 . S
C384 C379 1.391 . S
C384 C383 1.391 1_565 S
C384 C385 1.399 . S
C385 C384 1.399 . S
C385 C386 1.396 . S
C385 C388 1.453 . S
C385 C389 1.684 . S
C386 C367 1.723 . S
C386 C385 1.396 . S
C386 C387 1.394 1_565 S
C387 C383 1.397 . S
C387 C386 1.394 1_545 S
C387 C397 1.723 . S
C388 C385 1.453 . S
C388 H412 0.982 . S
C388 H413 0.979 . S
C388 H414 0.977 . S
C389 C385 1.684 . S
C389 H415 0.979 . S
C389 H416 0.980 . S
C389 H417 0.983 . S
C390 H366 0.948 . S
C390 C391 1.391 . S
C390 C395 1.391 . S
C391 C390 1.391 . S
C391 C392 1.391 . S
C392 H369 0.947 . S
C392 C391 1.391 . S
C392 C393 1.392 . S
C393 H370 0.948 . S
C393 C392 1.392 . S
C393 C394 1.419 . S
C394 C393 1.419 . S
C394 C395 1.391 . S
C394 C398 1.397 . S
C395 C390 1.391 . S
C395 C394 1.391 . S
C395 C396 1.399 . S
C396 C395 1.399 . S
C396 C397 1.396 . S
C396 C399 1.453 . S
C396 C400 1.684 . S
C397 C387 1.723 . S
C397 C396 1.396 . S
C397 C398 1.394 . S
C398 C368 1.723 1_545 S
C398 C394 1.397 . S
C398 C397 1.394 . S
C399 H371 0.982 . S
C399 H375 0.979 . S
C399 H376 0.977 . S
C399 C396 1.453 . S
C400 H372 0.979 . S
C400 H373 0.980 . S
C400 H374 0.983 . S
C400 C396 1.684 . S
H401 C419 0.948 . S
H402 C360 0.948 . S
H403 C378 0.979 . S
H404 C378 0.980 . S
H405 C378 0.983 . S
H406 C377 0.982 1_545 S
H407 C377 0.979 . S
H408 C377 0.977 1_545 S
H409 C379 0.948 . S
H410 C381 0.947 . S
H411 C382 0.948 . S
H412 C388 0.982 . S
H413 C388 0.979 . S
H414 C388 0.977 . S
H415 C389 0.979 . S
H416 C389 0.980 . S
H417 C389 0.983 . S
H418 C362 0.947 . S
C419 C362 1.392 . S
C419 C363 1.419 . S
C419 H401 0.948 . S
C420 C421 1.391 . S
C420 C424 1.391 . S
C420 H462 0.948 . S
C421 C420 1.391 . S
C421 C422 1.391 . S
C422 C421 1.391 . S
C422 H478 0.947 . S
C422 C479 1.392 . S
C423 C424 1.391 . S
C423 C427 1.397 . S
C423 C479 1.419 . S
C424 C420 1.391 . S
C424 C423 1.391 . S
C424 C425 1.399 . S
C425 C424 1.399 . S
C425 C428 1.396 . S
C425 C437 1.453 . S
C425 C438 1.684 . S
H426 C450 0.948 . S
C427 C423 1.397 . S
C427 C428 1.394 . S
C427 C446 1.723 . S
C428 C425 1.396 . S
C428 C427 1.394 . S
C428 C458 1.723 . S
H429 C452 0.947 . S
H430 C453 0.948 . S
H431 C459 0.982 . S
H432 C460 0.979 . S
H433 C460 0.980 . S
H434 C460 0.983 . S
H435 C459 0.979 . S
H436 C459 0.977 . S
C437 C425 1.453 . S
C437 H466 0.982 . S
C437 H467 0.979 . S
C437 H468 0.977 . S
C438 C425 1.684 . S
C438 H463 0.979 . S
C438 H464 0.980 . S
C438 H465 0.983 . S
C439 C440 1.391 . S
C439 C444 1.415 . S
C439 H469 0.948 . S
C440 C439 1.391 . S
C440 C441 1.391 . S
C441 C440 1.391 . S
C441 C442 1.392 . S
C441 H470 0.947 . S
C442 C441 1.392 . S
C442 C443 1.419 1_556 S
C442 H471 0.948 1_556 S
C443 C442 1.419 1_554 S
C443 C444 1.382 1_554 S
C443 C447 1.397 . S
C444 C439 1.415 . S
C444 C443 1.382 1_556 S
C444 C445 1.382 1_556 S
C445 C444 1.382 1_554 S
C445 C446 1.396 . S
C445 C448 1.453 . S
C445 C449 1.684 . S
C446 C427 1.723 . S
C446 C445 1.396 . S
C446 C447 1.394 . S
C447 C443 1.397 . S
C447 C446 1.394 . S
C447 C457 1.723 . S
C448 C445 1.453 . S
C448 H472 0.982 . S
C448 H473 0.979 . S
C448 H474 0.977 . S
C449 C445 1.684 . S
C449 H475 0.979 . S
C449 H476 0.980 . S
C449 H477 0.985 1_554 S
C450 H426 0.948 . S
C450 C451 1.391 . S
C450 C455 1.391 . S
C451 C450 1.391 . S
C451 C452 1.391 . S
C452 H429 0.947 . S
C452 C451 1.391 . S
C452 C453 1.392 . S
C453 H430 0.948 . S
C453 C452 1.392 . S
C453 C454 1.419 . S
C454 C453 1.419 . S
C454 C455 1.391 . S
C454 C458 1.397 . S
C455 C450 1.391 . S
C455 C454 1.391 . S
C455 C456 1.399 . S
C456 C455 1.399 . S
C456 C457 1.396 . S
C456 C459 1.453 . S
C456 C460 1.684 . S
C457 C447 1.723 . S
C457 C456 1.396 . S
C457 C458 1.394 . S
C458 C428 1.723 . S
C458 C454 1.397 . S
C458 C457 1.394 . S
C459 H431 0.982 . S
C459 H435 0.979 . S
C459 H436 0.977 . S
C459 C456 1.453 . S
C460 H432 0.979 . S
C460 H433 0.980 . S
C460 H434 0.983 . S
C460 C456 1.684 . S
H461 C479 0.948 . S
H462 C420 0.948 . S
H463 C438 0.979 . S
H464 C438 0.980 . S
H465 C438 0.983 . S
H466 C437 0.982 . S
H467 C437 0.979 . S
H468 C437 0.977 . S
H469 C439 0.948 . S
H470 C441 0.947 . S
H471 C442 0.948 1_554 S
H472 C448 0.982 . S
H473 C448 0.979 . S
H474 C448 0.977 . S
H475 C449 0.979 . S
H476 C449 0.980 . S
H477 C449 0.985 1_556 S
H478 C422 0.947 . S
C479 C422 1.392 . S
C479 C423 1.419 . S
C479 H461 0.948 . S
C10 C451 5.027 . S
C59 C301 4.802 . S
C90 C361 4.735 . S
C19 C421 4.802 . S
C331 C50 5.027 . S
C391 C99 5.070 . S
C46 C181 2.024 . S
C95 C271 1.679 . S
C6 C151 1.856 . S
C211 C55 1.679 . S
C241 C86 2.024 . S
C15 C121 2.168 . S
C260 C9 0.910 . S
C49 C140 1.248 . S
C89 C200 0.909 . S
C380 C58 1.998 . S
C440 C98 2.063 . S
C18 C320 2.063 . S
