# Generated by pormake.
# Topology zzz, (3,6)-cn, num edge types: 1
# Building blocks:
#     Node 0, Type 0, BuildingBlock: CUQRIR_clean_linker_1, # of connection points: 3
#     Node 1, Type 0, BuildingBlock: CUQRIR_clean_linker_1, # of connection points: 3
#     Node 2, Type 0, BuildingBlock: CUQRIR_clean_linker_1, # of connection points: 3
#     Node 3, Type 0, BuildingBlock: CUQRIR_clean_linker_1, # of connection points: 3
#     Node 4, Type 0, BuildingBlock: CUQRIR_clean_linker_1, # of connection points: 3
#     Node 5, Type 0, BuildingBlock: CUQRIR_clean_linker_1, # of connection points: 3
#     Node 6, Type 0, BuildingBlock: CUQRIR_clean_linker_1, # of connection points: 3
#     Node 7, Type 0, BuildingBlock: CUQRIR_clean_linker_1, # of connection points: 3
#     Node 8, Type 1, BuildingBlock: CUKXOW_clean_sbu_0, # of connection points: 6
#     Node 9, Type 1, BuildingBlock: CUKXOW_clean_sbu_0, # of connection points: 6
#     Node 10, Type 1, BuildingBlock: CUKXOW_clean_sbu_0, # of connection points: 6
#     Node 11, Type 1, BuildingBlock: CUKXOW_clean_sbu_0, # of connection points: 6
#     Edge 12, Type (0, 1), BuildingBlock: EZIPEK_clean_linker_0, # of connection points: 2
#     Edge 13, Type (0, 1), BuildingBlock: EZIPEK_clean_linker_0, # of connection points: 2
#     Edge 14, Type (0, 1), BuildingBlock: EZIPEK_clean_linker_0, # of connection points: 2
#     Edge 15, Type (0, 1), BuildingBlock: EZIPEK_clean_linker_0, # of connection points: 2
#     Edge 16, Type (0, 1), BuildingBlock: EZIPEK_clean_linker_0, # of connection points: 2
#     Edge 17, Type (0, 1), BuildingBlock: EZIPEK_clean_linker_0, # of connection points: 2
#     Edge 18, Type (0, 1), BuildingBlock: EZIPEK_clean_linker_0, # of connection points: 2
#     Edge 19, Type (0, 1), BuildingBlock: EZIPEK_clean_linker_0, # of connection points: 2
#     Edge 20, Type (0, 1), BuildingBlock: EZIPEK_clean_linker_0, # of connection points: 2
#     Edge 21, Type (0, 1), BuildingBlock: EZIPEK_clean_linker_0, # of connection points: 2
#     Edge 22, Type (0, 1), BuildingBlock: EZIPEK_clean_linker_0, # of connection points: 2
#     Edge 23, Type (0, 1), BuildingBlock: EZIPEK_clean_linker_0, # of connection points: 2
#     Edge 24, Type (0, 1), BuildingBlock: EZIPEK_clean_linker_0, # of connection points: 2
#     Edge 25, Type (0, 1), BuildingBlock: EZIPEK_clean_linker_0, # of connection points: 2
#     Edge 26, Type (0, 1), BuildingBlock: EZIPEK_clean_linker_0, # of connection points: 2
#     Edge 27, Type (0, 1), BuildingBlock: EZIPEK_clean_linker_0, # of connection points: 2
#     Edge 28, Type (0, 1), BuildingBlock: EZIPEK_clean_linker_0, # of connection points: 2
#     Edge 29, Type (0, 1), BuildingBlock: EZIPEK_clean_linker_0, # of connection points: 2
#     Edge 30, Type (0, 1), BuildingBlock: EZIPEK_clean_linker_0, # of connection points: 2
#     Edge 31, Type (0, 1), BuildingBlock: EZIPEK_clean_linker_0, # of connection points: 2
#     Edge 32, Type (0, 1), BuildingBlock: EZIPEK_clean_linker_0, # of connection points: 2
#     Edge 33, Type (0, 1), BuildingBlock: EZIPEK_clean_linker_0, # of connection points: 2
#     Edge 34, Type (0, 1), BuildingBlock: EZIPEK_clean_linker_0, # of connection points: 2
#     Edge 35, Type (0, 1), BuildingBlock: EZIPEK_clean_linker_0, # of connection points: 2
# Relax obj value: 0.059
# Max RMSD: 0.113
# Mean RMSD: 0.080
data_MOF--net-zzz--node1-CUKXOW_clean_sbu_0--node2-CUQRIR_clean_linker_1--edge1-EZIPEK_clean_linker_0
_symmetry_space_group_name_H-M    P1
_symmetry_Int_Tables_number       1
_symmetry_cell_setting            triclinic
loop_
_symmetry_equiv_pos_as_xyz
'x, y, z'
_cell_length_a     33.606037
_cell_length_b     35.658735
_cell_length_c     10.188369
_cell_angle_alpha  94.573302
_cell_angle_beta   85.505261
_cell_angle_gamma 93.632785
loop_
_atom_site_label
_atom_site_type_symbol
_atom_site_fract_x
_atom_site_fract_y
_atom_site_fract_z
_atom_type_partial_charge
C0 C 0.72995 0.49856 0.17951 0.0
N1 N 0.76982 0.50151 0.19178 0.0
N2 N 0.72231 0.49937 0.051 0.0
C3 C 0.69859 0.49519 0.29177 0.0
C4 C 0.75883 0.50284 0.98588 0.0
N5 N 0.78759 0.50378 0.07148 0.0
C6 C 0.76634 0.50479 0.83919 0.0
H7 H 0.67286 0.47654 0.25999 0.0
H8 H 0.68756 0.5235 0.32199 0.0
H9 H 0.71099 0.48417 0.37791 0.0
H10 H 0.74193 0.51884 0.79879 0.0
H11 H 0.76717 0.4757 0.79187 0.0
H12 H 0.79546 0.51999 0.81431 0.0
C13 C 0.99055 0.75593 0.08107 0.0
N14 N 0.99591 0.79392 0.0943 0.0
N15 N 0.99561 0.74326 0.95224 0.0
C16 C 0.98208 0.73095 0.19285 0.0
C17 C 0.00443 0.77485 0.88771 0.0
N18 N 0.00504 0.80558 0.97443 0.0
C19 C 0.01326 0.77545 0.7412 0.0
H20 H 0.00619 0.71099 0.19082 0.0
H21 H 0.95368 0.71398 0.17897 0.0
H22 H 0.9799 0.74744 0.28993 0.0
H23 H 0.99518 0.75271 0.68871 0.0
H24 H 0.0453 0.77035 0.71663 0.0
H25 H 0.00721 0.80318 0.70698 0.0
C26 C 0.76278 0.03263 0.17377 0.0
N27 N 0.72307 0.03589 0.16769 0.0
N28 N 0.78255 0.03898 0.05569 0.0
C29 C 0.78189 0.02094 0.29105 0.0
C30 C 0.75358 0.04692 0.97886 0.0
N31 N 0.71749 0.04515 0.04709 0.0
C32 C 0.75998 0.05193 0.83358 0.0
H33 H 0.81293 0.03348 0.29341 0.0
H34 H 0.78311 0.98982 0.28303 0.0
H35 H 0.76421 0.02948 0.38402 0.0
H36 H 0.73497 0.0664 0.7985 0.0
H37 H 0.76173 0.02378 0.77922 0.0
H38 H 0.7886 0.06827 0.81154 0.0
C39 C 0.54887 0.7591 0.20444 0.0
N40 N 0.54056 0.72141 0.19017 0.0
N41 N 0.54232 0.77489 0.09178 0.0
C42 C 0.56132 0.78041 0.32868 0.0
C43 C 0.52957 0.74586 0.00987 0.0
N44 N 0.5279 0.71367 0.07033 0.0
C45 C 0.51793 0.74931 0.87177 0.0
H46 H 0.53456 0.78376 0.39869 0.0
H47 H 0.57487 0.80875 0.30829 0.0
H48 H 0.58276 0.76435 0.37604 0.0
H49 H 0.54108 0.76684 0.81722 0.0
H50 H 0.48953 0.76381 0.87705 0.0
H51 H 0.51381 0.72144 0.81648 0.0
C52 C 0.26206 0.51675 0.297 0.0
N53 N 0.22207 0.51377 0.28761 0.0
N54 N 0.27053 0.51636 0.42477 0.0
C55 C 0.29274 0.51932 0.18241 0.0
C56 C 0.23439 0.51294 0.49248 0.0
N57 N 0.20503 0.51151 0.40893 0.0
C58 C 0.22781 0.51173 0.63965 0.0
H59 H 0.30301 0.49072 0.1522 0.0
H60 H 0.31905 0.53759 0.21155 0.0
H61 H 0.27998 0.53035 0.09696 0.0
H62 H 0.2249 0.54089 0.68468 0.0
H63 H 0.25349 0.49976 0.68048 0.0
H64 H 0.19984 0.49494 0.66662 0.0
C65 C 0.02018 0.26248 0.40036 0.0
N66 N 0.01967 0.22437 0.38852 0.0
N67 N 0.00572 0.27473 0.52307 0.0
C68 C 0.03476 0.28777 0.29381 0.0
C69 C 0.99641 0.24281 0.58519 0.0
N70 N 0.00518 0.21223 0.5036 0.0
C71 C 0.98027 0.2416 0.7265 0.0
H72 H 0.0548 0.31101 0.33467 0.0
H73 H 0.00876 0.30065 0.2584 0.0
H74 H 0.05075 0.27202 0.20951 0.0
H75 H 0.96164 0.26586 0.75664 0.0
H76 H 0.00566 0.24328 0.79051 0.0
H77 H 0.96238 0.21483 0.74119 0.0
C78 C 0.27166 -0.0003 0.24517 0.0
N79 N 0.31192 0.99769 0.23319 0.0
N80 N 0.2584 0.00389 0.37411 0.0
C81 C 0.2449 0.99559 0.13298 0.0
C82 C 0.29168 0.00401 0.44024 0.0
N83 N 0.32421 -0.00047 0.35483 0.0
C84 C 0.29189 0.00693 0.58812 0.0
H85 H 0.22999 0.02231 0.12874 0.0
H86 H 0.22108 0.97322 0.15135 0.0
H87 H 0.26175 0.98859 0.03706 0.0
H88 H 0.27988 0.97983 0.62595 0.0
H89 H 0.27203 0.02915 0.6313 0.0
H90 H 0.3225 0.01338 0.62021 0.0
C91 C 0.43711 0.25926 0.25928 0.0
N92 N 0.44503 0.29683 0.27936 0.0
N93 N 0.4465 0.24172 0.36505 0.0
C94 C 0.42339 0.23966 0.13378 0.0
C95 C 0.46064 0.26971 0.44886 0.0
N96 N 0.46025 0.30296 0.3959 0.0
C97 C 0.47713 0.26415 0.57855 0.0
H98 H 0.40184 0.25681 0.09136 0.0
H99 H 0.40948 0.21127 0.15133 0.0
H100 H 0.44956 0.23653 0.06115 0.0
H101 H 0.50817 0.25511 0.55934 0.0
H102 H 0.45917 0.24166 0.62932 0.0
H103 H 0.4776 0.29058 0.64387 0.0
Tb104 Tb 0.00688 0.98144 0.63341 0.0
C105 C 0.10009 0.00412 0.63029 0.0
Tb106 Tb 0.03743 0.0337 0.85926 0.0
O107 O 0.98223 0.02887 0.54945 0.0
O108 O 0.03247 0.03755 0.65467 0.0
O109 O 0.07099 0.98246 0.57801 0.0
C110 C 0.03997 0.09737 0.02076 0.0
O111 O 0.09356 0.02867 0.73407 0.0
C112 C 0.03625 0.96235 0.89959 0.0
C113 C 0.94266 0.01306 0.84031 0.0
O114 O 0.07003 0.07649 0.98627 0.0
O115 O 0.0092 0.08179 0.96536 0.0
O116 O 0.05835 0.98785 0.96315 0.0
O117 O 0.0122 0.97862 0.83791 0.0
O118 O 0.97195 0.0343 0.89448 0.0
O119 O 0.9494 0.98744 0.74101 0.0
C120 C 0.99724 0.91693 0.48543 0.0
O121 O 0.98667 0.94946 0.45533 0.0
O122 O 0.01278 0.92069 0.59855 0.0
C123 C 0.00765 0.05444 0.59785 0.0
Tb124 Tb 0.50636 0.04992 0.67358 0.0
C125 C 0.58069 0.01589 0.51115 0.0
Tb126 Tb 0.52387 0.96775 0.7025 0.0
O127 O 0.56011 0.07396 0.76348 0.0
O128 O 0.53698 0.02066 0.80535 0.0
O129 O 0.5517 0.03933 0.51117 0.0
C130 C 0.53555 0.90741 0.83096 0.0
O131 O 0.57819 0.98767 0.58894 0.0
C132 C 0.47997 0.97848 0.50685 0.0
C133 C 0.44585 0.00247 0.85635 0.0
O134 O 0.52316 0.93901 0.88413 0.0
O135 O 0.5416 0.9093 0.704 0.0
O136 O 0.50162 0.94949 0.50807 0.0
O137 O 0.48164 0.9962 0.61736 0.0
O138 O 0.46514 0.97178 0.81301 0.0
O139 O 0.45806 0.0367 0.82107 0.0
C140 C 0.47483 0.10481 0.56567 0.0
O141 O 0.48278 0.10606 0.68926 0.0
O142 O 0.48485 0.07325 0.50483 0.0
C143 C 0.56728 0.0433 0.8163 0.0
Tb144 Tb 0.51789 0.52842 0.61204 0.0
C145 C 0.42215 0.51875 0.64595 0.0
Tb146 Tb 0.47659 0.48822 0.85154 0.0
O147 O 0.53016 0.4748 0.49902 0.0
O148 O 0.4843 0.47815 0.64574 0.0
O149 O 0.45469 0.5325 0.57969 0.0
C150 C 0.46365 0.4277 0.98939 0.0
O151 O 0.42312 0.49924 0.75175 0.0
C152 C 0.4895 0.56115 0.89021 0.0
C153 C 0.57246 0.49816 0.81754 0.0
O154 O 0.44648 0.45946 0.01823 0.0
O155 O 0.48644 0.43004 0.88163 0.0
O156 O 0.46375 0.54156 0.96412 0.0
O157 O 0.51007 0.53831 0.81815 0.0
O158 O 0.53991 0.48411 0.88307 0.0
O159 O 0.57146 0.51783 0.71205 0.0
C160 C 0.53056 0.59038 0.48088 0.0
O161 O 0.54749 0.55867 0.44736 0.0
O162 O 0.50747 0.58693 0.58749 0.0
C163 C 0.50456 0.45511 0.57339 0.0
Tb164 Tb 0.9631 0.50665 0.64041 0.0
C165 C 0.99396 0.42951 0.71237 0.0
Tb166 Tb 0.02907 0.50845 0.83742 0.0
O167 O 0.00631 0.49231 0.47349 0.0
O168 O 0.02418 0.52319 0.64377 0.0
O169 O 0.96384 0.44699 0.67214 0.0
C170 C 0.09963 0.50769 0.93873 0.0
O171 O 0.02554 0.44903 0.75963 0.0
C172 C 0.95588 0.5091 0.94183 0.0
C173 C 0.99428 0.58567 0.78151 0.0
O174 O 0.09414 0.51922 0.82419 0.0
O175 O 0.06562 0.49589 0.99492 0.0
O176 O 0.98643 0.52211 0.00602 0.0
O177 O 0.96804 0.49236 0.83441 0.0
O178 O 0.02129 0.56861 0.84064 0.0
O179 O 0.9695 0.56737 0.69892 0.0
C180 C 0.89329 0.50859 0.53468 0.0
O181 O 0.89967 0.51926 0.65649 0.0
O182 O 0.92603 0.49709 0.4729 0.0
C183 C 0.03653 0.50614 0.53735 0.0
C184 C 0.19955 0.03815 0.46151 0.0
C185 C 0.2178 0.00368 0.43039 0.0
C186 C 0.1596 0.9692 0.53208 0.0
C187 C 0.14044 0.00375 0.55944 0.0
N188 N 0.13797 0.06932 0.51794 0.0
N189 N 0.21437 0.93614 0.41505 0.0
C190 C 0.15929 0.03785 0.51568 0.0
C191 C 0.19745 0.96909 0.45925 0.0
N192 N 0.22108 0.07115 0.4401 0.0
N193 N 0.14238 0.93677 0.57965 0.0
H194 H 0.24248 0.93545 0.36404 0.0
H195 H 0.19956 0.90969 0.41954 0.0
H196 H 0.11425 0.93522 0.62993 0.0
H197 H 0.15685 0.91173 0.57679 0.0
H198 H 0.21127 0.09755 0.47408 0.0
H199 H 0.25018 0.07188 0.39585 0.0
H200 H 0.14918 0.09418 0.47816 0.0
H201 H 0.10753 0.06938 0.54654 0.0
C202 C 0.41818 0.18366 0.45638 0.0
C203 C 0.44906 0.20243 0.38037 0.0
C204 C 0.49559 0.15503 0.41471 0.0
C205 C 0.4651 0.13708 0.49619 0.0
N206 N 0.39548 0.12789 0.56934 0.0
N207 N 0.5133 0.20301 0.26058 0.0
C208 C 0.42562 0.14931 0.5088 0.0
C209 C 0.4864 0.18665 0.34938 0.0
N210 N 0.38262 0.20017 0.48395 0.0
N211 N 0.53378 0.14327 0.40638 0.0
H212 H 0.50732 0.22702 0.21512 0.0
H213 H 0.53992 0.19138 0.22382 0.0
H214 H 0.54197 0.12042 0.45397 0.0
H215 H 0.55819 0.15745 0.35941 0.0
H216 H 0.36008 0.19049 0.55104 0.0
H217 H 0.37649 0.22481 0.44231 0.0
H218 H 0.36542 0.13356 0.57151 0.0
H219 H 0.4003 0.10263 0.60919 0.0
C220 C 0.32442 0.55165 0.54141 0.0
C221 C 0.30916 0.51776 0.47676 0.0
C222 C 0.3707 0.48744 0.50355 0.0
C223 C 0.38394 0.51947 0.58373 0.0
N224 N 0.37542 0.58309 0.67468 0.0
N225 N 0.31447 0.45206 0.40994 0.0
C226 C 0.36136 0.55202 0.60134 0.0
C227 C 0.33141 0.48525 0.4617 0.0
N228 N 0.30387 0.58349 0.54158 0.0
N229 N 0.3965 0.46022 0.4607 0.0
H230 H 0.2856 0.44974 0.37804 0.0
H231 H 0.32765 0.42636 0.40896 0.0
H232 H 0.42648 0.46253 0.48079 0.0
H233 H 0.38956 0.4377 0.39326 0.0
H234 H 0.31445 0.61011 0.57728 0.0
H235 H 0.27685 0.58362 0.49766 0.0
H236 H 0.35885 0.60641 0.70354 0.0
H237 H 0.40381 0.58508 0.71002 0.0
C238 C 0.96563 0.33025 0.57146 0.0
C239 C 0.00194 0.31293 0.57796 0.0
C240 C 0.02741 0.36725 0.71579 0.0
C241 C 0.99337 0.38702 0.69315 0.0
N242 N 0.92247 0.37868 0.66466 0.0
N243 N 0.06847 0.31443 0.64832 0.0
C244 C 0.9601 0.36618 0.63899 0.0
C245 C 0.03312 0.33129 0.64828 0.0
N246 N 0.93665 0.31238 0.4986 0.0
N247 N 0.05168 0.38065 0.81251 0.0
H248 H 0.07298 0.28774 0.6018 0.0
H249 H 0.09412 0.32801 0.68485 0.0
H250 H 0.04391 0.40259 0.88164 0.0
H251 H 0.07563 0.36644 0.83872 0.0
H252 H 0.91125 0.32523 0.47659 0.0
H253 H 0.93964 0.28554 0.45136 0.0
H254 H 0.89675 0.36354 0.6354 0.0
H255 H 0.91619 0.40123 0.73293 0.0
C256 C 0.85108 0.06259 0.99224 0.0
C257 C 0.82333 0.03183 0.01145 0.0
C258 C 0.87374 0.98784 0.92373 0.0
C259 C 0.9008 0.01897 0.89387 0.0
N260 N 0.91074 0.08598 0.86941 0.0
N261 N 0.80529 0.96571 0.97857 0.0
C262 C 0.88835 0.05645 0.9205 0.0
C263 C 0.83388 0.99459 0.97265 0.0
N264 N 0.84147 0.09776 0.04261 0.0
N265 N 0.88611 0.95187 0.9103 0.0
H266 H 0.77634 0.96946 0.01924 0.0
H267 H 0.80941 0.93865 0.93522 0.0
H268 H 0.91429 0.94471 0.87103 0.0
H269 H 0.86928 0.92903 0.94753 0.0
H270 H 0.86185 0.12102 0.04384 0.0
H271 H 0.81394 0.10279 0.09376 0.0
H272 H 0.90142 0.11342 0.87638 0.0
H273 H 0.93649 0.08254 0.80667 0.0
C274 C 0.50906 0.83223 0.06939 0.0
C275 C 0.54488 0.81344 0.06061 0.0
C276 C 0.57661 0.85845 0.91022 0.0
C277 C 0.53902 0.8742 0.90565 0.0
N278 N 0.46795 0.87257 0.96464 0.0
N279 N 0.61274 0.80697 0.97659 0.0
C280 C 0.50487 0.86058 0.98257 0.0
C281 C 0.57898 0.82665 0.98416 0.0
N282 N 0.47863 0.82157 0.1578 0.0
N283 N 0.60988 0.87396 0.84474 0.0
H284 H 0.61518 0.7844 0.03424 0.0
H285 H 0.63747 0.81187 0.91083 0.0
H286 H 0.60867 0.89543 0.7821 0.0
H287 H 0.63883 0.8667 0.85651 0.0
H288 H 0.45265 0.83605 0.17815 0.0
H289 H 0.48121 0.8 0.21961 0.0
H290 H 0.44143 0.86121 0.00899 0.0
H291 H 0.46327 0.89148 0.89513 0.0
C292 C 0.6618 0.53076 0.01118 0.0
C293 C 0.68414 0.49831 0.99571 0.0
C294 C 0.63359 0.46521 0.86099 0.0
C295 C 0.6106 0.49747 0.88052 0.0
N296 N 0.59689 0.55584 0.00808 0.0
N297 N 0.69006 0.43302 0.92476 0.0
C298 C 0.623 0.52889 0.9652 0.0
C299 C 0.66967 0.46498 0.92559 0.0
N300 N 0.67821 0.56365 0.06714 0.0
N301 N 0.62079 0.43495 0.78118 0.0
H302 H 0.71637 0.43241 0.9724 0.0
H303 H 0.67983 0.4067 0.88522 0.0
H304 H 0.59314 0.43342 0.7407 0.0
H305 H 0.6379 0.41206 0.75118 0.0
H306 H 0.66502 0.58937 0.06894 0.0
H307 H 0.70673 0.56577 0.10177 0.0
H308 H 0.60309 0.57764 0.07912 0.0
H309 H 0.56727 0.55389 0.98403 0.0
C310 C 0.95801 0.68508 0.87498 0.0
C311 C 0.99493 0.70467 0.89794 0.0
C312 C 0.03047 0.6493 0.81053 0.0
C313 C 0.99347 0.62752 0.80698 0.0
N314 N 0.9211 0.62495 0.8459 0.0
N315 N 0.06622 0.70535 0.90185 0.0
C316 C 0.95683 0.64553 0.84008 0.0
C317 C 0.03117 0.68677 0.86923 0.0
N318 N 0.92409 0.70461 0.88609 0.0
N319 N 0.06481 0.63472 0.75286 0.0
H320 H 0.06757 0.73299 0.94406 0.0
H321 H 0.09329 0.69241 0.89714 0.0
H322 H 0.06535 0.60809 0.70298 0.0
H323 H 0.09188 0.65046 0.74165 0.0
H324 H 0.89659 0.69319 0.85699 0.0
H325 H 0.92433 0.73341 0.91438 0.0
H326 H 0.89433 0.63601 0.8844 0.0
H327 H 0.91806 0.59604 0.82311 0.0
C328 C 0.97877 0.14675 0.47613 0.0
C329 C 0.00501 0.17361 0.53654 0.0
C330 C 0.03613 0.12368 0.63582 0.0
C331 C 0.01067 0.09564 0.56871 0.0
N332 N 0.97284 0.08356 0.37462 0.0
N333 N 0.06476 0.18798 0.64874 0.0
C334 C 0.9858 0.10787 0.47489 0.0
C335 C 0.03542 0.16217 0.60927 0.0
N336 N 0.94779 0.15947 0.41741 0.0
N337 N 0.0607 0.11461 0.72696 0.0
H338 H 0.0646 0.21654 0.63393 0.0
H339 H 0.09121 0.18076 0.68458 0.0
H340 H 0.06551 0.08762 0.74665 0.0
H341 H 0.07488 0.13449 0.79077 0.0
H342 H 0.92531 0.14191 0.37602 0.0
H343 H 0.92531 0.14191 0.37602 0.0
H344 H 0.9575 0.09212 0.29819 0.0
H345 H 0.98344 0.05676 0.35377 0.0
C346 C 0.37043 0.9592 0.44928 0.0
C347 C 0.36401 0.99227 0.38716 0.0
C348 C 0.43624 0.0057 0.35902 0.0
C349 C 0.44209 0.97696 0.44199 0.0
N350 N 0.41354 0.92815 0.57935 0.0
N351 N 0.3904 0.05052 0.30261 0.0
C352 C 0.40891 0.95392 0.49012 0.0
C353 C 0.39689 0.01653 0.3471 0.0
N354 N 0.34011 0.93226 0.46572 0.0
N355 N 0.46827 0.02223 0.29053 0.0
H356 H 0.36166 0.05966 0.29878 0.0
H357 H 0.41336 0.07074 0.28215 0.0
H358 H 0.49733 0.01403 0.29665 0.0
H359 H 0.46539 0.04125 0.21975 0.0
H360 H 0.3443 0.90589 0.49804 0.0
H361 H 0.3117 0.93468 0.43435 0.0
H362 H 0.38947 0.9146 0.6307 0.0
H363 H 0.44119 0.92189 0.60874 0.0
C364 C 0.51296 0.35288 0.4384 0.0
C365 C 0.47277 0.33914 0.45504 0.0
C366 C 0.45575 0.39685 0.58539 0.0
C367 C 0.49498 0.41338 0.55267 0.0
N368 N 0.56378 0.40057 0.47234 0.0
N369 N 0.40686 0.34574 0.56216 0.0
C370 C 0.5242 0.38972 0.48669 0.0
C371 C 0.44465 0.36035 0.53255 0.0
N372 N 0.54183 0.33095 0.37876 0.0
N373 N 0.42863 0.41481 0.67025 0.0
H374 H 0.3965 0.31849 0.53138 0.0
H375 H 0.3965 0.31849 0.53138 0.0
H376 H 0.4365 0.43721 0.7343 0.0
H377 H 0.39909 0.40448 0.68818 0.0
H378 H 0.53641 0.30286 0.34444 0.0
H379 H 0.53641 0.30286 0.34444 0.0
H380 H 0.57642 0.42591 0.51275 0.0
H381 H 0.57642 0.42591 0.51275 0.0
C382 C 0.14252 0.54336 0.4628 0.0
C383 C 0.16262 0.5096 0.44245 0.0
C384 C 0.09913 0.47237 0.47034 0.0
C385 C 0.07898 0.50645 0.48754 0.0
N386 N 0.07976 0.57321 0.46539 0.0
N387 N 0.16215 0.44219 0.42118 0.0
C388 C 0.10021 0.54167 0.47396 0.0
C389 C 0.14142 0.47408 0.44437 0.0
N390 N 0.16417 0.57699 0.47567 0.0
N391 N 0.07792 0.43866 0.4822 0.0
H392 H 0.19332 0.44307 0.4111 0.0
H393 H 0.14895 0.41513 0.40792 0.0
H394 H 0.0468 0.43632 0.49057 0.0
H395 H 0.09075 0.41303 0.48591 0.0
H396 H 0.15143 0.60253 0.50399 0.0
H397 H 0.19535 0.57882 0.46907 0.0
H398 H 0.09353 0.59908 0.44224 0.0
H399 H 0.0486 0.57266 0.46932 0.0
C400 C 0.98253 0.86925 0.96464 0.0
C401 C 0.01382 0.84443 0.94719 0.0
C402 C 0.06211 0.89768 0.90802 0.0
C403 C 0.0304 0.92244 0.93107 0.0
N404 N 0.9648 0.93248 0.03536 0.0
N405 N 0.08408 0.83439 0.92056 0.0
C406 C 0.99176 0.90848 0.97473 0.0
C407 C 0.05396 0.85847 0.92382 0.0
N408 N 0.94383 0.85518 0.96864 0.0
N409 N 0.0997 0.91158 0.8703 0.0
H410 H 0.07865 0.80554 0.92868 0.0
H411 H 0.11427 0.84305 0.91769 0.0
H412 H 0.10701 0.94032 0.86576 0.0
H413 H 0.12327 0.89475 0.8383 0.0
H414 H 0.91967 0.87226 0.9715 0.0
H415 H 0.93644 0.82631 0.95591 0.0
H416 H 0.9379 0.92295 0.0831 0.0
H417 H 0.97134 0.96143 0.05063 0.0
C418 C 0.66363 0.00991 0.93276 0.0
C419 C 0.67914 0.04409 0.99276 0.0
C420 C 0.61603 0.0731 0.97355 0.0
C421 C 0.60196 0.04033 0.89844 0.0
N422 N 0.61226 0.97642 0.8144 0.0
N423 N 0.67363 0.10988 0.05388 0.0
C424 C 0.62555 0.00831 0.8821 0.0
C425 C 0.65624 0.07617 0.00919 0.0
N426 N 0.68521 0.97853 0.92656 0.0
N427 N 0.59035 0.10049 0.01585 0.0
H428 H 0.70356 0.11275 0.07549 0.0
H429 H 0.65976 0.13527 0.05731 0.0
H430 H 0.56002 0.0977 0.99916 0.0
H431 H 0.59788 0.12358 0.08019 0.0
H432 H 0.6736 0.95134 0.90184 0.0
H433 H 0.71452 0.97941 0.95293 0.0
H434 H 0.63101 0.95636 0.76884 0.0
H435 H 0.58231 0.971 0.80288 0.0
C436 C 0.54802 0.65512 0.95078 0.0
C437 C 0.51752 0.67685 0.01243 0.0
C438 C 0.46746 0.62587 0.96747 0.0
C439 C 0.49837 0.60273 0.91129 0.0
N440 N 0.56507 0.60324 0.79826 0.0
N441 N 0.44704 0.68609 0.05726 0.0
C442 C 0.53792 0.61944 0.88799 0.0
C443 C 0.47713 0.66342 0.01345 0.0
N444 N 0.58684 0.669 0.9508 0.0
N445 N 0.4283 0.61283 0.97289 0.0
H446 H 0.45161 0.71445 0.0897 0.0
H447 H 0.45161 0.71445 0.0897 0.0
H448 H 0.41853 0.58684 0.92923 0.0
H449 H 0.40526 0.629 0.0164 0.0
H450 H 0.61116 0.65241 0.92633 0.0
H451 H 0.59473 0.69675 0.98311 0.0
H452 H 0.59296 0.61583 0.77068 0.0
H453 H 0.55783 0.58035 0.73526 0.0
C454 C 0.84922 0.47145 0.00364 0.0
C455 C 0.83012 0.50522 0.04112 0.0
C456 C 0.89466 0.54107 0.04016 0.0
C457 C 0.91365 0.50754 0.99454 0.0
N458 N 0.91124 0.4397 0.97631 0.0
N459 N 0.83226 0.57243 0.07886 0.0
C460 C 0.89152 0.47233 0.98785 0.0
C461 C 0.85226 0.54009 0.05655 0.0
N462 N 0.82663 0.43881 0.9791 0.0
N463 N 0.91703 0.57348 0.07075 0.0
H464 H 0.80111 0.57221 0.08742 0.0
H465 H 0.84605 0.59939 0.07818 0.0
H466 H 0.94804 0.57584 0.05602 0.0
H467 H 0.90515 0.59756 0.11894 0.0
H468 H 0.83832 0.41393 0.93688 0.0
H469 H 0.7955 0.43735 0.9921 0.0
H470 H 0.89706 0.41308 0.98405 0.0
H471 H 0.94233 0.43944 0.97324 0.0
C472 C 0.06474 0.1783 0.27785 0.0
C473 C 0.03109 0.19972 0.27447 0.0
C474 C 0.01198 0.16118 0.07833 0.0
C475 C 0.04012 0.13436 0.10093 0.0
N476 N 0.08982 0.11627 0.24128 0.0
N477 N 0.97026 0.21024 0.1778 0.0
C478 C 0.06618 0.14278 0.20446 0.0
C479 C 0.00426 0.19111 0.17537 0.0
N480 N 0.09473 0.19173 0.3544 0.0
N481 N 0.99335 0.15907 0.96331 0.0
H482 H 0.9639 0.23255 0.24717 0.0
H483 H 0.94706 0.202 0.11769 0.0
H484 H 0.99945 0.13934 0.88498 0.0
H485 H 0.97532 0.17983 0.93918 0.0
H486 H 0.12162 0.17869 0.35445 0.0
H487 H 0.09392 0.21811 0.4067 0.0
H488 H 0.106 0.12041 0.32487 0.0
H489 H 0.09003 0.08878 0.1989 0.0
C490 C 0.36343 0.96393 0.09663 0.0
C491 C 0.33814 0.99417 0.11405 0.0
C492 C 0.37599 0.0222 0.92844 0.0
C493 C 0.40746 0.99791 0.939 0.0
N494 N 0.43269 0.95076 0.06546 0.0
N495 N 0.32324 0.05553 0.05256 0.0
C496 C 0.40154 0.96951 0.03015 0.0
C497 C 0.34481 0.02423 0.03058 0.0
N498 N 0.35187 0.93088 0.15034 0.0
N499 N 0.37487 0.04224 0.82021 0.0
H500 H 0.3012 0.05876 0.12971 0.0
H501 H 0.32993 0.07953 0.00102 0.0
H502 H 0.39456 0.03836 0.73656 0.0
H503 H 0.35109 0.05861 0.80675 0.0
H504 H 0.36891 0.90724 0.13558 0.0
H505 H 0.32337 0.92658 0.19727 0.0
H506 H 0.42936 0.93196 0.13948 0.0
H507 H 0.46233 0.95806 0.03629 0.0
C508 C 0.4816 0.33288 0.1126 0.0
C509 C 0.44552 0.3251 0.18611 0.0
C510 C 0.41997 0.38372 0.12568 0.0
C511 C 0.45801 0.39333 0.06339 0.0
N512 N 0.52803 0.37818 0.02059 0.0
N513 N 0.37945 0.34106 0.26536 0.0
C514 C 0.48948 0.3683 0.06133 0.0
C515 C 0.41415 0.34993 0.1929 0.0
N516 N 0.50928 0.30636 0.10043 0.0
N517 N 0.38992 0.4069 0.11448 0.0
H518 H 0.3742 0.31495 0.30505 0.0
H519 H 0.35669 0.3594 0.28939 0.0
H520 H 0.36028 0.40189 0.14993 0.0
H521 H 0.36028 0.40189 0.14993 0.0
H522 H 0.53719 0.30977 0.04873 0.0
H523 H 0.53719 0.30977 0.04873 0.0
H524 H 0.53834 0.40501 0.99494 0.0
H525 H 0.53834 0.40501 0.99494 0.0
C526 C 0.18652 0.47739 0.11345 0.0
C527 C 0.20029 0.51265 0.17086 0.0
C528 C 0.15699 0.54491 0.03948 0.0
C529 C 0.13812 0.50937 0.00076 0.0
N530 N 0.13599 0.44153 0.99039 0.0
N531 N 0.20313 0.58001 0.18316 0.0
C532 C 0.15355 0.47545 0.03345 0.0
C533 C 0.18737 0.5465 0.12994 0.0
N534 N 0.20541 0.446 0.13599 0.0
N535 N 0.14527 0.577 0.99221 0.0
H536 H 0.2268 0.58144 0.24414 0.0
H537 H 0.19238 0.60613 0.17101 0.0
H538 H 0.12211 0.57713 0.9301 0.0
H539 H 0.15987 0.60339 0.00763 0.0
H540 H 0.19911 0.41934 0.09063 0.0
H541 H 0.22994 0.44744 0.19337 0.0
H542 H 0.14259 0.41582 0.0226 0.0
H543 H 0.11362 0.43918 0.92423 0.0
C544 C 0.03201 0.8334 0.25956 0.0
C545 C 0.99529 0.81852 0.21396 0.0
C546 C 0.95923 0.86335 0.36716 0.0
C547 C 0.99641 0.88186 0.39741 0.0
N548 N 0.06856 0.88635 0.36701 0.0
N549 N 0.92371 0.81642 0.22602 0.0
C550 C 0.033 0.86708 0.34378 0.0
C551 C 0.95871 0.83235 0.26986 0.0
N552 N 0.06582 0.81488 0.22166 0.0
N553 N 0.92469 0.87505 0.43339 0.0
H554 H 0.92284 0.79266 0.15936 0.0
H555 H 0.89591 0.82737 0.25058 0.0
H556 H 0.92424 0.89767 0.50495 0.0
H557 H 0.89684 0.861 0.42466 0.0
H558 H 0.09342 0.82213 0.25931 0.0
H559 H 0.06517 0.78985 0.16107 0.0
H560 H 0.09585 0.87918 0.31925 0.0
H561 H 0.07064 0.91142 0.42669 0.0
C562 C 0.67099 0.99398 0.2739 0.0
C563 C 0.69122 0.02981 0.26864 0.0
C564 C 0.64078 0.0568 0.42905 0.0
C565 C 0.61785 0.02162 0.42296 0.0
N566 N 0.60809 0.95881 0.31873 0.0
N567 N 0.69684 0.09542 0.33789 0.0
C568 C 0.63227 0.99066 0.34019 0.0
C569 C 0.67655 0.06117 0.34607 0.0
N570 N 0.68932 0.96303 0.21748 0.0
N571 N 0.62935 0.0857 0.51699 0.0
H572 H 0.72477 0.09853 0.2862 0.0
H573 H 0.68545 0.12082 0.37622 0.0
H574 H 0.60239 0.08517 0.57325 0.0
H575 H 0.64746 0.10977 0.53935 0.0
H576 H 0.67777 0.93552 0.22739 0.0
H577 H 0.7182 0.96491 0.17225 0.0
H578 H 0.61549 0.9369 0.24901 0.0
H579 H 0.5788 0.95592 0.36026 0.0
C580 C 0.5758 0.67477 0.29897 0.0
C581 C 0.5408 0.69379 0.28595 0.0
C582 C 0.49984 0.64467 0.39293 0.0
C583 C 0.53468 0.62518 0.40897 0.0
N584 N 0.60684 0.62612 0.40228 0.0
N585 N 0.47199 0.70191 0.33856 0.0
C586 C 0.5731 0.64139 0.36863 0.0
C587 C 0.50383 0.6804 0.342 0.0
N588 N 0.61134 0.6884 0.24224 0.0
N589 N 0.46213 0.62922 0.41786 0.0
H590 H 0.44315 0.69419 0.37673 0.0
H591 H 0.44315 0.69419 0.37673 0.0
H592 H 0.45539 0.60177 0.44449 0.0
H593 H 0.45539 0.60177 0.44449 0.0
H594 H 0.63732 0.67368 0.23268 0.0
H595 H 0.61414 0.71411 0.1992 0.0
H596 H 0.63547 0.63858 0.38626 0.0
H597 H 0.60617 0.60247 0.45638 0.0
C598 C 0.8025 0.53712 0.37453 0.0
C599 C 0.79108 0.50205 0.30959 0.0
C600 C 0.83763 0.47056 0.43095 0.0
C601 C 0.85424 0.50639 0.47613 0.0
N602 N 0.85221 0.57406 0.49826 0.0
N603 N 0.79353 0.43499 0.28198 0.0
C604 C 0.83599 0.53981 0.4528 0.0
C605 C 0.80697 0.46851 0.34171 0.0
N606 N 0.78147 0.56774 0.35867 0.0
N607 N 0.85099 0.43873 0.47509 0.0
H608 H 0.76943 0.43305 0.22263 0.0
H609 H 0.80667 0.40957 0.28749 0.0
H610 H 0.8729 0.43963 0.54267 0.0
H611 H 0.8384 0.41173 0.45382 0.0
H612 H 0.7859 0.59384 0.41035 0.0
H613 H 0.7572 0.56599 0.30016 0.0
H614 H 0.84323 0.5997 0.47235 0.0
H615 H 0.87622 0.57693 0.55793 0.0
loop_
_geom_bond_atom_site_label_1
_geom_bond_atom_site_label_2
_geom_bond_distance
_geom_bond_site_symmetry_2
_ccdc_geom_bond_type
C0 N1 1.317 . S
C0 N2 1.348 . S
C0 C3 1.485 . S
N1 C0 1.317 . S
N1 N5 1.370 . S
N2 C0 1.348 . S
N2 C4 1.346 1_554 S
C3 C0 1.485 . S
C3 H7 0.960 . S
C3 H8 0.961 . S
C3 H9 0.960 . S
C4 N2 1.346 1_556 S
C4 N5 1.307 1_556 S
C4 C6 1.486 . S
N5 N1 1.370 . S
N5 C4 1.307 1_554 S
C6 C4 1.486 . S
C6 H10 0.960 . S
C6 H11 0.960 . S
C6 H12 0.959 . S
H7 C3 0.960 . S
H8 C3 0.961 . S
H9 C3 0.960 . S
H10 C6 0.960 . S
H11 C6 0.960 . S
H12 C6 0.959 . S
C13 N14 1.317 . S
C13 N15 1.348 1_554 S
C13 C16 1.485 . S
N14 C13 1.317 . S
N14 N18 1.370 1_554 S
N15 C13 1.348 1_556 S
N15 C17 1.346 . S
C16 C13 1.485 . S
C16 H20 0.960 . S
C16 H21 0.961 . S
C16 H22 0.960 . S
C17 N15 1.346 . S
C17 N18 1.307 . S
C17 C19 1.486 . S
N18 N14 1.370 1_556 S
N18 C17 1.307 . S
C19 C17 1.486 . S
C19 H23 0.960 . S
C19 H24 0.960 . S
C19 H25 0.959 . S
H20 C16 0.960 . S
H21 C16 0.961 . S
H22 C16 0.960 . S
H23 C19 0.960 . S
H24 C19 0.960 . S
H25 C19 0.959 . S
C26 N27 1.317 . S
C26 N28 1.348 . S
C26 C29 1.485 . S
N27 C26 1.317 . S
N27 N31 1.370 . S
N28 C26 1.348 . S
N28 C30 1.346 1_554 S
C29 C26 1.485 . S
C29 H33 0.960 . S
C29 H34 0.961 . S
C29 H35 0.960 . S
C30 N28 1.346 1_556 S
C30 N31 1.307 1_556 S
C30 C32 1.486 . S
N31 N27 1.370 . S
N31 C30 1.307 1_554 S
C32 C30 1.486 . S
C32 H36 0.960 . S
C32 H37 0.960 . S
C32 H38 0.959 . S
H33 C29 0.960 . S
H34 C29 0.961 . S
H35 C29 0.960 . S
H36 C32 0.960 . S
H37 C32 0.960 . S
H38 C32 0.959 . S
C39 N40 1.317 . S
C39 N41 1.348 . S
C39 C42 1.485 . S
N40 C39 1.317 . S
N40 N44 1.370 . S
N41 C39 1.348 . S
N41 C43 1.346 1_554 S
C42 C39 1.485 . S
C42 H46 0.960 . S
C42 H47 0.961 . S
C42 H48 0.960 . S
C43 N41 1.346 1_556 S
C43 N44 1.307 1_556 S
C43 C45 1.486 . S
N44 N40 1.370 . S
N44 C43 1.307 1_554 S
C45 C43 1.486 . S
C45 H49 0.960 . S
C45 H50 0.960 . S
C45 H51 0.959 . S
H46 C42 0.960 . S
H47 C42 0.961 . S
H48 C42 0.960 . S
H49 C45 0.960 . S
H50 C45 0.960 . S
H51 C45 0.959 . S
C52 N53 1.317 . S
C52 N54 1.348 . S
C52 C55 1.485 . S
N53 C52 1.317 . S
N53 N57 1.370 . S
N54 C52 1.348 . S
N54 C56 1.346 . S
C55 C52 1.485 . S
C55 H59 0.960 . S
C55 H60 0.961 . S
C55 H61 0.960 . S
C56 N54 1.346 . S
C56 N57 1.307 . S
C56 C58 1.486 . S
N57 N53 1.370 . S
N57 C56 1.307 . S
C58 C56 1.486 . S
C58 H62 0.960 . S
C58 H63 0.960 . S
C58 H64 0.959 . S
H59 C55 0.960 . S
H60 C55 0.961 . S
H61 C55 0.960 . S
H62 C58 0.960 . S
H63 C58 0.960 . S
H64 C58 0.959 . S
C65 N66 1.317 . S
C65 N67 1.348 . S
C65 C68 1.485 . S
N66 C65 1.317 . S
N66 N70 1.370 . S
N67 C65 1.348 . S
N67 C69 1.346 . S
C68 C65 1.485 . S
C68 H72 0.960 . S
C68 H73 0.961 . S
C68 H74 0.960 . S
C69 N67 1.346 . S
C69 N70 1.307 . S
C69 C71 1.486 . S
N70 N66 1.370 . S
N70 C69 1.307 . S
C71 C69 1.486 . S
C71 H75 0.960 . S
C71 H76 0.960 . S
C71 H77 0.959 . S
H72 C68 0.960 . S
H73 C68 0.961 . S
H74 C68 0.960 . S
H75 C71 0.960 . S
H76 C71 0.960 . S
H77 C71 0.959 . S
C78 N79 1.317 . S
C78 N80 1.348 . S
C78 C81 1.485 . S
N79 C78 1.317 . S
N79 N83 1.370 . S
N80 C78 1.348 . S
N80 C82 1.346 . S
C81 C78 1.485 . S
C81 H85 0.960 . S
C81 H86 0.961 . S
C81 H87 0.960 . S
C82 N80 1.346 . S
C82 N83 1.307 . S
C82 C84 1.486 . S
N83 N79 1.370 . S
N83 C82 1.307 . S
C84 C82 1.486 . S
C84 H88 0.960 . S
C84 H89 0.960 . S
C84 H90 0.959 . S
H85 C81 0.960 . S
H86 C81 0.961 . S
H87 C81 0.960 . S
H88 C84 0.960 . S
H89 C84 0.960 . S
H90 C84 0.959 . S
C91 N92 1.317 . S
C91 N93 1.348 . S
C91 C94 1.485 . S
N92 C91 1.317 . S
N92 N96 1.370 . S
N93 C91 1.348 . S
N93 C95 1.346 . S
C94 C91 1.485 . S
C94 H98 0.960 . S
C94 H99 0.961 . S
C94 H100 0.960 . S
C95 N93 1.346 . S
C95 N96 1.307 . S
C95 C97 1.486 . S
N96 N92 1.370 . S
N96 C95 1.307 . S
C97 C95 1.486 . S
C97 H101 0.960 . S
C97 H102 0.960 . S
C97 H103 0.959 . S
H98 C94 0.960 . S
H99 C94 0.961 . S
H100 C94 0.960 . S
H101 C97 0.960 . S
H102 C97 0.960 . S
H103 C97 0.959 . S
Tb104 O107 2.453 1_565 S
Tb104 O108 2.596 1_665 S
Tb104 O109 2.374 1_665 S
Tb104 O117 2.343 . S
Tb104 O119 2.353 1_565 S
Tb104 O121 2.427 . S
Tb104 O122 2.513 1_655 S
C105 O109 1.251 . S
C105 O111 1.263 . S
Tb106 O108 2.343 . S
Tb106 O111 2.353 . S
Tb106 O114 2.427 . S
Tb106 O115 2.513 1_456 S
Tb106 O116 2.453 1_545 S
Tb106 O117 2.596 1_445 S
Tb106 O118 2.374 1_455 S
O107 Tb104 2.453 1_545 S
O107 C123 1.245 1_655 S
O108 Tb104 2.596 1_445 S
O108 Tb106 2.343 . S
O108 C123 1.259 . S
O109 Tb104 2.374 1_445 S
O109 C105 1.251 . S
C110 O114 1.275 1_554 S
C110 O115 1.246 1_455 S
O111 C105 1.263 . S
O111 Tb106 2.353 . S
C112 O116 1.245 . S
C112 O117 1.260 1_455 S
C113 O118 1.250 . S
C113 O119 1.263 . S
O114 Tb106 2.427 . S
O114 C110 1.275 1_556 S
O115 Tb106 2.513 1_654 S
O115 C110 1.246 1_655 S
O116 Tb106 2.453 1_565 S
O116 C112 1.245 . S
O117 Tb104 2.343 . S
O117 Tb106 2.596 1_665 S
O117 C112 1.260 1_655 S
O118 Tb106 2.374 1_655 S
O118 C113 1.250 . S
O119 Tb104 2.353 1_545 S
O119 C113 1.263 . S
C120 O121 1.275 . S
C120 O122 1.246 1_655 S
O121 Tb104 2.427 . S
O121 C120 1.275 . S
O122 Tb104 2.513 1_455 S
O122 C120 1.246 1_455 S
C123 O107 1.245 1_455 S
C123 O108 1.259 . S
Tb124 O127 2.453 . S
Tb124 O128 2.596 1_545 S
Tb124 O129 2.374 . S
Tb124 O137 2.343 . S
Tb124 O139 2.353 . S
Tb124 O141 2.427 . S
Tb124 O142 2.513 . S
C125 O129 1.246 1_565 S
C125 O131 1.266 . S
Tb126 O128 2.343 . S
Tb126 O131 2.353 . S
Tb126 O134 2.427 . S
Tb126 O135 2.513 . S
Tb126 O136 2.453 . S
Tb126 O137 2.596 1_565 S
Tb126 O138 2.374 . S
O127 Tb124 2.453 . S
O127 C143 1.245 . S
O128 Tb124 2.596 1_565 S
O128 Tb126 2.343 . S
O128 C143 1.259 1_565 S
O129 Tb124 2.374 . S
O129 C125 1.246 1_545 S
C130 O134 1.275 . S
C130 O135 1.246 . S
O131 C125 1.266 . S
O131 Tb126 2.353 . S
C132 O136 1.245 1_545 S
C132 O137 1.259 . S
C133 O138 1.250 1_545 S
C133 O139 1.263 . S
O134 Tb126 2.427 . S
O134 C130 1.275 . S
O135 Tb126 2.513 . S
O135 C130 1.246 . S
O136 Tb126 2.453 . S
O136 C132 1.245 1_565 S
O137 Tb124 2.343 . S
O137 Tb126 2.596 1_545 S
O137 C132 1.259 . S
O138 Tb126 2.374 . S
O138 C133 1.250 1_565 S
O139 Tb124 2.353 . S
O139 C133 1.263 . S
C140 O141 1.275 . S
C140 O142 1.246 . S
O141 Tb124 2.427 . S
O141 C140 1.275 . S
O142 Tb124 2.513 . S
O142 C140 1.246 . S
C143 O127 1.245 . S
C143 O128 1.259 1_545 S
Tb144 O147 2.453 . S
Tb144 O148 2.596 . S
Tb144 O149 2.374 . S
Tb144 O157 2.343 . S
Tb144 O159 2.353 . S
Tb144 O161 2.427 . S
Tb144 O162 2.513 . S
C145 O149 1.251 . S
C145 O151 1.263 . S
Tb146 O148 2.343 . S
Tb146 O151 2.353 . S
Tb146 O154 2.427 . S
Tb146 O155 2.513 . S
Tb146 O156 2.453 . S
Tb146 O157 2.596 . S
Tb146 O158 2.374 . S
O147 Tb144 2.453 . S
O147 C163 1.245 . S
O148 Tb144 2.596 . S
O148 Tb146 2.343 . S
O148 C163 1.259 . S
O149 Tb144 2.374 . S
O149 C145 1.251 . S
C150 O154 1.275 . S
C150 O155 1.246 . S
O151 C145 1.263 . S
O151 Tb146 2.353 . S
C152 O156 1.245 . S
C152 O157 1.259 . S
C153 O158 1.250 . S
C153 O159 1.263 . S
O154 Tb146 2.427 . S
O154 C150 1.275 . S
O155 Tb146 2.513 . S
O155 C150 1.246 . S
O156 Tb146 2.453 . S
O156 C152 1.245 . S
O157 Tb144 2.343 . S
O157 Tb146 2.596 . S
O157 C152 1.259 . S
O158 Tb146 2.374 . S
O158 C153 1.250 . S
O159 Tb144 2.353 . S
O159 C153 1.263 . S
C160 O161 1.275 . S
C160 O162 1.246 . S
O161 Tb144 2.427 . S
O161 C160 1.275 . S
O162 Tb144 2.513 . S
O162 C160 1.246 . S
C163 O147 1.245 . S
C163 O148 1.259 . S
Tb164 O167 2.453 1_655 S
Tb164 O168 2.596 1_655 S
Tb164 O169 2.372 1_655 S
Tb164 O177 2.343 . S
Tb164 O179 2.353 1_655 S
Tb164 O181 2.427 . S
Tb164 O182 2.513 . S
C165 O169 1.255 . S
C165 O171 1.263 . S
Tb166 O168 2.343 . S
Tb166 O171 2.353 . S
Tb166 O174 2.427 . S
Tb166 O175 2.513 . S
Tb166 O176 2.453 1_455 S
Tb166 O177 2.596 1_455 S
Tb166 O178 2.374 . S
O167 Tb164 2.453 1_455 S
O167 C183 1.245 . S
O168 Tb164 2.596 1_455 S
O168 Tb166 2.343 . S
O168 C183 1.259 . S
O169 Tb164 2.372 1_455 S
O169 C165 1.255 . S
C170 O174 1.275 . S
C170 O175 1.246 . S
O171 C165 1.263 . S
O171 Tb166 2.353 . S
C172 O176 1.245 . S
C172 O177 1.259 . S
C173 O178 1.248 1_655 S
C173 O179 1.263 1_655 S
O174 Tb166 2.427 . S
O174 C170 1.275 . S
O175 Tb166 2.513 . S
O175 C170 1.246 . S
O176 Tb166 2.453 1_655 S
O176 C172 1.245 . S
O177 Tb164 2.343 . S
O177 Tb166 2.596 1_655 S
O177 C172 1.259 . S
O178 Tb166 2.374 . S
O178 C173 1.248 1_455 S
O179 Tb164 2.353 1_455 S
O179 C173 1.263 1_455 S
C180 O181 1.275 . S
C180 O182 1.246 . S
O181 Tb164 2.427 . S
O181 C180 1.275 . S
O182 Tb164 2.513 . S
O182 C180 1.246 . S
C183 O167 1.245 . S
C183 O168 1.259 . S
C184 C185 1.363 . S
C184 C190 1.379 . S
C184 N192 1.356 . S
C185 C184 1.363 . S
C185 C191 1.363 . S
C186 C187 1.363 . S
C186 C191 1.379 . S
C186 N193 1.356 1_545 S
C187 C186 1.363 . S
C187 C190 1.363 . S
N188 C190 1.356 . S
N188 H200 0.984 . S
N188 H201 0.985 . S
N189 C191 1.356 . S
N189 H194 0.984 . S
N189 H195 0.985 1_545 S
C190 C184 1.379 . S
C190 C187 1.363 . S
C190 N188 1.356 . S
C191 C185 1.363 . S
C191 C186 1.379 . S
C191 N189 1.356 . S
N192 C184 1.356 . S
N192 H198 0.984 . S
N192 H199 0.984 . S
N193 C186 1.356 1_565 S
N193 H196 0.984 . S
N193 H197 0.985 . S
H194 N189 0.984 . S
H195 N189 0.985 1_565 S
H196 N193 0.984 . S
H197 N193 0.985 . S
H198 N192 0.984 . S
H199 N192 0.984 . S
H200 N188 0.984 . S
H201 N188 0.985 . S
C202 C203 1.363 . S
C202 C208 1.379 . S
C202 N210 1.356 . S
C203 C202 1.363 . S
C203 C209 1.363 . S
C204 C205 1.363 . S
C204 C209 1.379 . S
C204 N211 1.356 . S
C205 C204 1.363 . S
C205 C208 1.363 . S
N206 C208 1.356 . S
N206 H218 0.984 . S
N206 H219 0.985 . S
N207 C209 1.356 . S
N207 H212 0.984 . S
N207 H213 0.985 . S
C208 C202 1.379 . S
C208 C205 1.363 . S
C208 N206 1.356 . S
C209 C203 1.363 . S
C209 C204 1.379 . S
C209 N207 1.356 . S
N210 C202 1.356 . S
N210 H216 0.984 . S
N210 H217 0.984 . S
N211 C204 1.356 . S
N211 H214 0.984 . S
N211 H215 0.985 . S
H212 N207 0.984 . S
H213 N207 0.985 . S
H214 N211 0.984 . S
H215 N211 0.985 . S
H216 N210 0.984 . S
H217 N210 0.984 . S
H218 N206 0.984 . S
H219 N206 0.985 . S
C220 C221 1.363 . S
C220 C226 1.379 . S
C220 N228 1.356 . S
C221 C220 1.363 . S
C221 C227 1.363 . S
C222 C223 1.363 . S
C222 C227 1.379 . S
C222 N229 1.356 . S
C223 C222 1.363 . S
C223 C226 1.363 . S
N224 C226 1.356 . S
N224 H236 0.984 . S
N224 H237 0.985 . S
N225 C227 1.356 . S
N225 H230 0.984 . S
N225 H231 0.985 . S
C226 C220 1.379 . S
C226 C223 1.363 . S
C226 N224 1.356 . S
C227 C221 1.363 . S
C227 C222 1.379 . S
C227 N225 1.356 . S
N228 C220 1.356 . S
N228 H234 0.984 . S
N228 H235 0.984 . S
N229 C222 1.356 . S
N229 H232 0.984 . S
N229 H233 0.985 . S
H230 N225 0.984 . S
H231 N225 0.985 . S
H232 N229 0.984 . S
H233 N229 0.985 . S
H234 N228 0.984 . S
H235 N228 0.984 . S
H236 N224 0.984 . S
H237 N224 0.985 . S
C238 C239 1.363 . S
C238 C244 1.379 . S
C238 N246 1.356 . S
C239 C238 1.363 . S
C239 C245 1.363 . S
C240 C241 1.363 . S
C240 C245 1.379 . S
C240 N247 1.356 . S
C241 C240 1.363 . S
C241 C244 1.363 . S
N242 C244 1.356 1_655 S
N242 H254 0.984 . S
N242 H255 0.985 . S
N243 C245 1.356 . S
N243 H248 0.984 . S
N243 H249 0.985 . S
C244 C238 1.379 . S
C244 C241 1.363 . S
C244 N242 1.356 1_455 S
C245 C239 1.363 . S
C245 C240 1.379 . S
C245 N243 1.356 . S
N246 C238 1.356 . S
N246 H252 0.984 1_455 S
N246 H253 0.984 . S
N247 C240 1.356 . S
N247 H250 0.984 . S
N247 H251 0.985 . S
H248 N243 0.984 . S
H249 N243 0.985 . S
H250 N247 0.984 . S
H251 N247 0.985 . S
H252 N246 0.984 1_655 S
H253 N246 0.984 . S
H254 N242 0.984 . S
H255 N242 0.985 . S
C256 C257 1.363 . S
C256 C262 1.379 1_565 S
C256 N264 1.356 1_565 S
C257 C256 1.363 . S
C257 C263 1.363 1_556 S
C258 C259 1.363 . S
C258 C263 1.379 1_556 S
C258 N265 1.356 . S
C259 C258 1.363 . S
C259 C262 1.363 1_565 S
N260 C262 1.356 . S
N260 H272 0.984 . S
N260 H273 0.985 . S
N261 C263 1.356 . S
N261 H266 0.984 . S
N261 H267 0.985 . S
C262 C256 1.379 1_545 S
C262 C259 1.363 1_545 S
C262 N260 1.356 . S
C263 C257 1.363 1_554 S
C263 C258 1.379 1_554 S
C263 N261 1.356 . S
N264 C256 1.356 1_545 S
N264 H270 0.984 . S
N264 H271 0.984 1_545 S
N265 C258 1.356 . S
N265 H268 0.984 . S
N265 H269 0.985 1_556 S
H266 N261 0.984 . S
H267 N261 0.985 . S
H268 N265 0.984 . S
H269 N265 0.985 1_554 S
H270 N264 0.984 . S
H271 N264 0.984 1_565 S
H272 N260 0.984 . S
H273 N260 0.985 . S
C274 C275 1.363 . S
C274 C280 1.379 . S
C274 N282 1.356 . S
C275 C274 1.363 . S
C275 C281 1.363 1_554 S
C276 C277 1.363 . S
C276 C281 1.379 . S
C276 N283 1.356 . S
C277 C276 1.363 . S
C277 C280 1.363 1_556 S
N278 C280 1.356 . S
N278 H290 0.984 . S
N278 H291 0.985 . S
N279 C281 1.356 . S
N279 H284 0.984 . S
N279 H285 0.985 . S
C280 C274 1.379 . S
C280 C277 1.363 1_554 S
C280 N278 1.356 . S
C281 C275 1.363 1_556 S
C281 C276 1.379 . S
C281 N279 1.356 . S
N282 C274 1.356 . S
N282 H288 0.984 . S
N282 H289 0.984 . S
N283 C276 1.356 . S
N283 H286 0.984 . S
N283 H287 0.985 . S
H284 N279 0.984 . S
H285 N279 0.985 . S
H286 N283 0.984 . S
H287 N283 0.985 . S
H288 N282 0.984 . S
H289 N282 0.984 . S
H290 N278 0.984 . S
H291 N278 0.985 . S
C292 C293 1.363 1_554 S
C292 C298 1.377 1_554 S
C292 N300 1.358 . S
C293 C292 1.363 1_556 S
C293 C299 1.363 . S
C294 C295 1.363 . S
C294 C299 1.379 . S
C294 N301 1.356 . S
C295 C294 1.363 . S
C295 C298 1.363 . S
N296 C298 1.356 . S
N296 H308 0.984 . S
N296 H309 0.985 . S
N297 C299 1.356 . S
N297 H302 0.984 . S
N297 H303 0.985 . S
C298 C292 1.377 1_556 S
C298 C295 1.363 . S
C298 N296 1.356 . S
C299 C293 1.363 . S
C299 C294 1.379 . S
C299 N297 1.356 . S
N300 C292 1.358 . S
N300 H306 0.984 . S
N300 H307 0.984 . S
N301 C294 1.356 . S
N301 H304 0.984 . S
N301 H305 0.985 . S
H302 N297 0.984 . S
H303 N297 0.985 . S
H304 N301 0.984 . S
H305 N301 0.985 . S
H306 N300 0.984 . S
H307 N300 0.984 . S
H308 N296 0.984 . S
H309 N296 0.985 . S
C310 C311 1.363 . S
C310 C316 1.379 . S
C310 N318 1.356 . S
C311 C310 1.363 . S
C311 C317 1.363 . S
C312 C313 1.374 . S
C312 C317 1.388 . S
C312 N319 1.337 1_655 S
C313 C312 1.374 . S
C313 C316 1.363 . S
N314 C316 1.356 . S
N314 H326 0.984 . S
N314 H327 0.985 . S
N315 C317 1.356 1_554 S
N315 H320 0.984 . S
N315 H321 0.985 1_655 S
C316 C310 1.379 . S
C316 C313 1.363 . S
C316 N314 1.356 . S
C317 C311 1.363 . S
C317 C312 1.388 . S
C317 N315 1.356 1_556 S
N318 C310 1.356 . S
N318 H324 0.984 . S
N318 H325 0.984 . S
N319 C312 1.337 1_455 S
N319 H322 0.984 . S
N319 H323 0.985 1_556 S
H320 N315 0.984 . S
H321 N315 0.985 1_455 S
H322 N319 0.984 . S
H323 N319 0.985 1_554 S
H324 N318 0.984 . S
H325 N318 0.984 . S
H326 N314 0.984 . S
H327 N314 0.985 . S
C328 C329 1.363 . S
C328 C334 1.379 . S
C328 N336 1.356 . S
C329 C328 1.363 . S
C329 C335 1.363 . S
C330 C331 1.363 . S
C330 C335 1.379 . S
C330 N337 1.356 . S
C331 C330 1.363 . S
C331 C334 1.363 . S
N332 C334 1.356 . S
N332 H344 0.984 . S
N332 H345 0.985 . S
N333 C335 1.356 . S
N333 H338 0.984 . S
N333 H339 0.985 . S
C334 C328 1.379 . S
C334 C331 1.363 . S
C334 N332 1.356 . S
C335 C329 1.363 . S
C335 C330 1.379 . S
C335 N333 1.356 . S
N336 C328 1.356 . S
N336 H342 0.984 . S
N336 H343 0.984 . S
N337 C330 1.356 . S
N337 H340 0.984 . S
N337 H341 0.985 . S
H338 N333 0.984 . S
H339 N333 0.985 . S
H340 N337 0.984 . S
H341 N337 0.985 . S
H342 N336 0.984 . S
H343 N336 0.984 . S
H344 N332 0.984 . S
H345 N332 0.985 . S
C346 C347 1.363 . S
C346 C352 1.379 . S
C346 N354 1.356 1_545 S
C347 C346 1.363 . S
C347 C353 1.363 . S
C348 C349 1.363 . S
C348 C353 1.379 . S
C348 N355 1.356 . S
C349 C348 1.363 . S
C349 C352 1.363 . S
N350 C352 1.356 1_565 S
N350 H362 0.984 . S
N350 H363 0.985 . S
N351 C353 1.356 . S
N351 H356 0.984 . S
N351 H357 0.985 . S
C352 C346 1.379 . S
C352 C349 1.363 . S
C352 N350 1.356 1_545 S
C353 C347 1.363 . S
C353 C348 1.379 . S
C353 N351 1.356 . S
N354 C346 1.356 1_565 S
N354 H360 0.984 . S
N354 H361 0.984 1_565 S
N355 C348 1.356 . S
N355 H358 0.984 . S
N355 H359 0.985 . S
H356 N351 0.984 . S
H357 N351 0.985 . S
H358 N355 0.984 . S
H359 N355 0.985 . S
H360 N354 0.984 . S
H361 N354 0.984 1_545 S
H362 N350 0.984 . S
H363 N350 0.985 . S
C364 C365 1.363 . S
C364 C370 1.379 . S
C364 N372 1.356 . S
C365 C364 1.363 . S
C365 C371 1.363 . S
C366 C367 1.363 . S
C366 C371 1.379 . S
C366 N373 1.356 . S
C367 C366 1.363 . S
C367 C370 1.363 . S
N368 C370 1.356 . S
N368 H380 0.984 . S
N368 H381 0.985 . S
N369 C371 1.356 . S
N369 H374 0.984 . S
N369 H375 0.985 . S
C370 C364 1.379 . S
C370 C367 1.363 . S
C370 N368 1.356 . S
C371 C365 1.363 . S
C371 C366 1.379 . S
C371 N369 1.356 . S
N372 C364 1.356 . S
N372 H378 0.984 . S
N372 H379 0.984 . S
N373 C366 1.356 . S
N373 H376 0.984 . S
N373 H377 0.985 . S
H374 N369 0.984 . S
H375 N369 0.985 . S
H376 N373 0.984 . S
H377 N373 0.985 . S
H378 N372 0.984 . S
H379 N372 0.984 . S
H380 N368 0.984 . S
H381 N368 0.985 . S
C382 C383 1.363 . S
C382 C388 1.379 . S
C382 N390 1.356 . S
C383 C382 1.363 . S
C383 C389 1.363 . S
C384 C385 1.363 . S
C384 C389 1.379 . S
C384 N391 1.356 . S
C385 C384 1.363 . S
C385 C388 1.363 . S
N386 C388 1.356 . S
N386 H398 0.984 . S
N386 H399 0.985 . S
N387 C389 1.356 . S
N387 H392 0.984 . S
N387 H393 0.985 . S
C388 C382 1.379 . S
C388 C385 1.363 . S
C388 N386 1.356 . S
C389 C383 1.363 . S
C389 C384 1.379 . S
C389 N387 1.356 . S
N390 C382 1.356 . S
N390 H396 0.984 . S
N390 H397 0.984 . S
N391 C384 1.356 . S
N391 H394 0.984 . S
N391 H395 0.985 . S
H392 N387 0.984 . S
H393 N387 0.985 . S
H394 N391 0.984 . S
H395 N391 0.985 . S
H396 N390 0.984 . S
H397 N390 0.984 . S
H398 N386 0.984 . S
H399 N386 0.985 . S
C400 C401 1.363 . S
C400 C406 1.379 . S
C400 N408 1.356 1_556 S
C401 C400 1.363 . S
C401 C407 1.363 . S
C402 C403 1.363 . S
C402 C407 1.379 . S
C402 N409 1.356 1_655 S
C403 C402 1.363 . S
C403 C406 1.363 . S
N404 C406 1.356 . S
N404 H416 0.984 1_556 S
N404 H417 0.985 . S
N405 C407 1.356 . S
N405 H410 0.984 . S
N405 H411 0.985 1_655 S
C406 C400 1.379 . S
C406 C403 1.363 . S
C406 N404 1.356 . S
C407 C401 1.363 . S
C407 C402 1.379 . S
C407 N405 1.356 . S
N408 C400 1.356 1_554 S
N408 H414 0.984 . S
N408 H415 0.984 . S
N409 C402 1.356 1_455 S
N409 H412 0.984 . S
N409 H413 0.985 . S
H410 N405 0.984 . S
H411 N405 0.985 1_455 S
H412 N409 0.984 . S
H413 N409 0.985 . S
H414 N408 0.984 . S
H415 N408 0.984 . S
H416 N404 0.984 1_554 S
H417 N404 0.985 . S
C418 C419 1.363 . S
C418 C424 1.379 . S
C418 N426 1.356 . S
C419 C418 1.363 . S
C419 C425 1.363 1_556 S
C420 C421 1.363 1_554 S
C420 C425 1.379 . S
C420 N427 1.356 1_565 S
C421 C420 1.363 1_556 S
C421 C424 1.363 . S
N422 C424 1.356 . S
N422 H434 0.984 . S
N422 H435 0.985 . S
N423 C425 1.356 . S
N423 H428 0.984 . S
N423 H429 0.985 . S
C424 C418 1.379 . S
C424 C421 1.363 . S
C424 N422 1.356 . S
C425 C419 1.363 1_554 S
C425 C420 1.379 . S
C425 N423 1.356 . S
N426 C418 1.356 . S
N426 H432 0.984 . S
N426 H433 0.984 . S
N427 C420 1.356 1_545 S
N427 H430 0.984 . S
N427 H431 0.985 . S
H428 N423 0.984 . S
H429 N423 0.985 . S
H430 N427 0.984 . S
H431 N427 0.985 . S
H432 N426 0.984 . S
H433 N426 0.984 . S
H434 N422 0.984 . S
H435 N422 0.985 . S
C436 C437 1.363 . S
C436 C442 1.379 . S
C436 N444 1.356 . S
C437 C436 1.363 . S
C437 C443 1.363 1_556 S
C438 C439 1.363 . S
C438 C443 1.379 1_556 S
C438 N445 1.356 1_556 S
C439 C438 1.363 . S
C439 C442 1.363 . S
N440 C442 1.356 . S
N440 H452 0.984 . S
N440 H453 0.985 . S
N441 C443 1.356 . S
N441 H446 0.984 . S
N441 H447 0.985 . S
C442 C436 1.379 . S
C442 C439 1.363 . S
C442 N440 1.356 . S
C443 C437 1.363 1_554 S
C443 C438 1.379 1_554 S
C443 N441 1.356 . S
N444 C436 1.356 . S
N444 H450 0.984 . S
N444 H451 0.984 . S
N445 C438 1.356 1_554 S
N445 H448 0.984 1_554 S
N445 H449 0.985 . S
H446 N441 0.984 . S
H447 N441 0.985 . S
H448 N445 0.984 1_556 S
H449 N445 0.985 . S
H450 N444 0.984 . S
H451 N444 0.984 . S
H452 N440 0.984 . S
H453 N440 0.985 . S
C454 C455 1.363 1_554 S
C454 C460 1.379 1_554 S
C454 N462 1.356 . S
C455 C454 1.363 1_556 S
C455 C461 1.363 . S
C456 C457 1.363 . S
C456 C461 1.379 . S
C456 N463 1.356 . S
C457 C456 1.363 . S
C457 C460 1.363 . S
N458 C460 1.356 . S
N458 H470 0.984 1_556 S
N458 H471 0.985 . S
N459 C461 1.356 . S
N459 H464 0.984 . S
N459 H465 0.985 . S
C460 C454 1.379 1_556 S
C460 C457 1.363 . S
C460 N458 1.356 . S
C461 C455 1.363 . S
C461 C456 1.379 . S
C461 N459 1.356 . S
N462 C454 1.356 . S
N462 H468 0.984 . S
N462 H469 0.984 . S
N463 C456 1.356 . S
N463 H466 0.984 . S
N463 H467 0.985 . S
H464 N459 0.984 . S
H465 N459 0.985 . S
H466 N463 0.984 . S
H467 N463 0.985 . S
H468 N462 0.984 . S
H469 N462 0.984 . S
H470 N458 0.984 1_554 S
H471 N458 0.985 . S
C472 C473 1.363 . S
C472 C478 1.379 . S
C472 N480 1.356 . S
C473 C472 1.363 . S
C473 C479 1.363 . S
C474 C475 1.363 . S
C474 C479 1.379 . S
C474 N481 1.356 1_554 S
C475 C474 1.363 . S
C475 C478 1.363 . S
N476 C478 1.356 . S
N476 H488 0.984 . S
N476 H489 0.985 . S
N477 C479 1.356 . S
N477 H482 0.984 . S
N477 H483 0.985 . S
C478 C472 1.379 . S
C478 C475 1.363 . S
C478 N476 1.356 . S
C479 C473 1.363 . S
C479 C474 1.379 . S
C479 N477 1.356 . S
N480 C472 1.356 . S
N480 H486 0.984 . S
N480 H487 0.984 . S
N481 C474 1.356 1_556 S
N481 H484 0.984 . S
N481 H485 0.985 1_455 S
H482 N477 0.984 . S
H483 N477 0.985 . S
H484 N481 0.984 . S
H485 N481 0.985 1_655 S
H486 N480 0.984 . S
H487 N480 0.984 . S
H488 N476 0.984 . S
H489 N476 0.985 . S
C490 C491 1.363 . S
C490 C496 1.379 . S
C490 N498 1.356 1_545 S
C491 C490 1.363 . S
C491 C497 1.363 . S
C492 C493 1.363 . S
C492 C497 1.379 . S
C492 N499 1.356 1_554 S
C493 C492 1.363 . S
C493 C496 1.363 . S
N494 C496 1.356 1_565 S
N494 H506 0.984 . S
N494 H507 0.985 1_554 S
N495 C497 1.356 . S
N495 H500 0.984 . S
N495 H501 0.985 . S
C496 C490 1.379 . S
C496 C493 1.363 . S
C496 N494 1.356 1_545 S
C497 C491 1.363 . S
C497 C492 1.379 . S
C497 N495 1.356 . S
N498 C490 1.356 1_565 S
N498 H504 0.984 . S
N498 H505 0.984 1_565 S
N499 C492 1.356 1_556 S
N499 H502 0.984 . S
N499 H503 0.985 . S
H500 N495 0.984 . S
H501 N495 0.985 . S
H502 N499 0.984 . S
H503 N499 0.985 . S
H504 N498 0.984 . S
H505 N498 0.984 1_545 S
H506 N494 0.984 . S
H507 N494 0.985 1_556 S
C508 C509 1.363 . S
C508 C514 1.379 . S
C508 N516 1.356 . S
C509 C508 1.363 . S
C509 C515 1.363 . S
C510 C511 1.363 1_556 S
C510 C515 1.379 1_556 S
C510 N517 1.356 . S
C511 C510 1.363 1_554 S
C511 C514 1.363 . S
N512 C514 1.356 . S
N512 H524 0.984 . S
N512 H525 0.985 . S
N513 C515 1.356 . S
N513 H518 0.984 . S
N513 H519 0.985 1_554 S
C514 C508 1.379 . S
C514 C511 1.363 . S
C514 N512 1.356 . S
C515 C509 1.363 . S
C515 C510 1.379 1_554 S
C515 N513 1.356 . S
N516 C508 1.356 . S
N516 H522 0.984 . S
N516 H523 0.984 . S
N517 C510 1.356 . S
N517 H520 0.984 . S
N517 H521 0.985 . S
H518 N513 0.984 . S
H519 N513 0.985 1_556 S
H520 N517 0.984 . S
H521 N517 0.985 . S
H522 N516 0.984 . S
H523 N516 0.984 . S
H524 N512 0.984 . S
H525 N512 0.985 . S
C526 C527 1.363 . S
C526 C532 1.379 . S
C526 N534 1.356 . S
C527 C526 1.363 . S
C527 C533 1.363 . S
C528 C529 1.363 . S
C528 C533 1.379 . S
C528 N535 1.356 1_554 S
C529 C528 1.363 . S
C529 C532 1.363 . S
N530 C532 1.356 . S
N530 H542 0.984 . S
N530 H543 0.985 . S
N531 C533 1.356 . S
N531 H536 0.984 . S
N531 H537 0.985 . S
C532 C526 1.379 . S
C532 C529 1.363 . S
C532 N530 1.356 . S
C533 C527 1.363 . S
C533 C528 1.379 . S
C533 N531 1.356 . S
N534 C526 1.356 . S
N534 H540 0.984 . S
N534 H541 0.984 . S
N535 C528 1.356 1_556 S
N535 H538 0.984 . S
N535 H539 0.985 . S
H536 N531 0.984 . S
H537 N531 0.985 . S
H538 N535 0.984 . S
H539 N535 0.985 . S
H540 N534 0.984 . S
H541 N534 0.984 . S
H542 N530 0.984 . S
H543 N530 0.985 . S
C544 C545 1.363 . S
C544 C550 1.379 1_655 S
C544 N552 1.356 1_655 S
C545 C544 1.363 . S
C545 C551 1.363 . S
C546 C547 1.363 . S
C546 C551 1.379 . S
C546 N553 1.356 . S
C547 C546 1.363 . S
C547 C550 1.363 1_655 S
N548 C550 1.356 . S
N548 H560 0.984 . S
N548 H561 0.985 . S
N549 C551 1.356 . S
N549 H554 0.984 . S
N549 H555 0.985 . S
C550 C544 1.379 1_455 S
C550 C547 1.363 1_455 S
C550 N548 1.356 . S
C551 C545 1.363 . S
C551 C546 1.379 . S
C551 N549 1.356 . S
N552 C544 1.356 1_455 S
N552 H558 0.984 . S
N552 H559 0.984 . S
N553 C546 1.356 . S
N553 H556 0.984 . S
N553 H557 0.985 . S
H554 N549 0.984 . S
H555 N549 0.985 . S
H556 N553 0.984 . S
H557 N553 0.985 . S
H558 N552 0.984 . S
H559 N552 0.984 . S
H560 N548 0.984 . S
H561 N548 0.985 . S
C562 C563 1.363 . S
C562 C568 1.379 . S
C562 N570 1.356 . S
C563 C562 1.363 . S
C563 C569 1.363 1_565 S
C564 C565 1.363 1_545 S
C564 C569 1.379 . S
C564 N571 1.356 . S
C565 C564 1.363 1_565 S
C565 C568 1.363 . S
N566 C568 1.356 . S
N566 H578 0.984 . S
N566 H579 0.985 . S
N567 C569 1.356 . S
N567 H572 0.984 . S
N567 H573 0.985 . S
C568 C562 1.379 . S
C568 C565 1.363 . S
C568 N566 1.356 . S
C569 C563 1.363 1_545 S
C569 C564 1.379 . S
C569 N567 1.356 . S
N570 C562 1.356 . S
N570 H576 0.984 . S
N570 H577 0.984 . S
N571 C564 1.356 . S
N571 H574 0.984 . S
N571 H575 0.985 . S
H572 N567 0.984 . S
H573 N567 0.985 . S
H574 N571 0.984 . S
H575 N571 0.985 . S
H576 N570 0.984 . S
H577 N570 0.984 . S
H578 N566 0.984 . S
H579 N566 0.985 . S
C580 C581 1.363 . S
C580 C586 1.379 . S
C580 N588 1.356 . S
C581 C580 1.363 . S
C581 C587 1.363 . S
C582 C583 1.363 . S
C582 C587 1.379 . S
C582 N589 1.356 . S
C583 C582 1.363 . S
C583 C586 1.363 . S
N584 C586 1.356 . S
N584 H596 0.984 . S
N584 H597 0.985 . S
N585 C587 1.356 . S
N585 H590 0.984 . S
N585 H591 0.985 . S
C586 C580 1.379 . S
C586 C583 1.363 . S
C586 N584 1.356 . S
C587 C581 1.363 . S
C587 C582 1.379 . S
C587 N585 1.356 . S
N588 C580 1.356 . S
N588 H594 0.984 . S
N588 H595 0.984 . S
N589 C582 1.356 . S
N589 H592 0.984 . S
N589 H593 0.985 . S
H590 N585 0.984 . S
H591 N585 0.985 . S
H592 N589 0.984 . S
H593 N589 0.985 . S
H594 N588 0.984 . S
H595 N588 0.984 . S
H596 N584 0.984 . S
H597 N584 0.985 . S
C598 C599 1.363 . S
C598 C604 1.379 . S
C598 N606 1.356 . S
C599 C598 1.363 . S
C599 C605 1.363 . S
C600 C601 1.363 . S
C600 C605 1.379 . S
C600 N607 1.356 . S
C601 C600 1.363 . S
C601 C604 1.363 . S
N602 C604 1.356 . S
N602 H614 0.984 . S
N602 H615 0.985 . S
N603 C605 1.356 . S
N603 H608 0.984 . S
N603 H609 0.985 . S
C604 C598 1.379 . S
C604 C601 1.363 . S
C604 N602 1.356 . S
C605 C599 1.363 . S
C605 C600 1.379 . S
C605 N603 1.356 . S
N606 C598 1.356 . S
N606 H612 0.984 . S
N606 H613 0.984 . S
N607 C600 1.356 . S
N607 H610 0.984 . S
N607 H611 0.985 . S
H608 N603 0.984 . S
H609 N603 0.985 . S
H610 N607 0.984 . S
H611 N607 0.985 . S
H612 N606 0.984 . S
H613 N606 0.984 . S
H614 N602 0.984 . S
H615 N602 0.985 . S
C185 N80 1.570 . S
C187 C105 1.589 . S
C205 C140 1.553 . S
C203 N93 1.511 . S
C223 C145 1.400 . S
C221 N54 1.391 . S
C241 C165 1.529 . S
C239 N67 1.510 . S
C259 C113 1.589 1_565 S
C257 N28 1.580 1_556 S
C275 N41 1.527 . S
C277 C130 1.554 . S
C293 N2 1.396 1_556 S
C295 C153 1.401 . S
C311 N15 1.522 . S
C313 C173 1.532 . S
C331 C123 1.366 . S
C329 N70 1.386 . S
C349 C132 1.173 . S
C347 N83 1.185 . S
C367 C163 1.372 . S
C365 N96 1.360 . S
C383 N57 1.143 . S
C385 C183 1.108 . S
C401 N18 1.390 . S
C403 C112 1.367 1_655 S
C421 C143 1.173 1_565 S
C419 N31 1.188 1_556 S
C439 C152 1.372 . S
C437 N44 1.366 1_556 S
C455 N5 1.144 1_556 S
C457 C172 1.108 . S
C473 N66 1.469 . S
C475 C110 1.452 . S
C491 N79 1.526 . S
C493 C133 1.551 1_554 S
C511 C150 1.522 1_554 S
C509 N92 1.518 . S
C529 C170 1.542 1_554 S
C527 N53 1.560 . S
C545 N14 1.480 . S
C547 C120 1.451 . S
C565 C125 1.552 . S
C563 N27 1.541 . S
C583 C160 1.522 . S
C581 N40 1.538 . S
C599 N1 1.565 . S
C601 C180 1.542 . S
