# Generated by pormake.
# Topology eea, (3,6)-cn, num edge types: 1
# Building blocks:
#     Node 0, Type 0, BuildingBlock: VETTIZ_charged_linker_0, # of connection points: 3
#     Node 1, Type 0, BuildingBlock: VETTIZ_charged_linker_0, # of connection points: 3
#     Node 2, Type 0, BuildingBlock: VETTIZ_charged_linker_0, # of connection points: 3
#     Node 3, Type 0, BuildingBlock: VETTIZ_charged_linker_0, # of connection points: 3
#     Node 4, Type 0, BuildingBlock: VETTIZ_charged_linker_0, # of connection points: 3
#     Node 5, Type 0, BuildingBlock: VETTIZ_charged_linker_0, # of connection points: 3
#     Node 6, Type 0, BuildingBlock: VETTIZ_charged_linker_0, # of connection points: 3
#     Node 7, Type 0, BuildingBlock: VETTIZ_charged_linker_0, # of connection points: 3
#     Node 8, Type 0, BuildingBlock: VETTIZ_charged_linker_0, # of connection points: 3
#     Node 9, Type 0, BuildingBlock: VETTIZ_charged_linker_0, # of connection points: 3
#     Node 10, Type 0, BuildingBlock: VETTIZ_charged_linker_0, # of connection points: 3
#     Node 11, Type 0, BuildingBlock: VETTIZ_charged_linker_0, # of connection points: 3
#     Node 12, Type 0, BuildingBlock: VETTIZ_charged_linker_0, # of connection points: 3
#     Node 13, Type 0, BuildingBlock: VETTIZ_charged_linker_0, # of connection points: 3
#     Node 14, Type 0, BuildingBlock: VETTIZ_charged_linker_0, # of connection points: 3
#     Node 15, Type 0, BuildingBlock: VETTIZ_charged_linker_0, # of connection points: 3
#     Node 16, Type 0, BuildingBlock: VETTIZ_charged_linker_0, # of connection points: 3
#     Node 17, Type 0, BuildingBlock: VETTIZ_charged_linker_0, # of connection points: 3
#     Node 18, Type 1, BuildingBlock: CUWYAW_clean_sbu_0, # of connection points: 6
#     Node 19, Type 1, BuildingBlock: CUWYAW_clean_sbu_0, # of connection points: 6
#     Node 20, Type 1, BuildingBlock: CUWYAW_clean_sbu_0, # of connection points: 6
#     Node 21, Type 1, BuildingBlock: CUWYAW_clean_sbu_0, # of connection points: 6
#     Node 22, Type 1, BuildingBlock: CUWYAW_clean_sbu_0, # of connection points: 6
#     Node 23, Type 1, BuildingBlock: CUWYAW_clean_sbu_0, # of connection points: 6
#     Node 24, Type 1, BuildingBlock: CUWYAW_clean_sbu_0, # of connection points: 6
#     Node 25, Type 1, BuildingBlock: CUWYAW_clean_sbu_0, # of connection points: 6
#     Node 26, Type 1, BuildingBlock: CUWYAW_clean_sbu_0, # of connection points: 6
#     Edge 27, Type (0, 1), BuildingBlock: UVAHIK_clean_linker_0, # of connection points: 2
#     Edge 28, Type (0, 1), BuildingBlock: UVAHIK_clean_linker_0, # of connection points: 2
#     Edge 29, Type (0, 1), BuildingBlock: UVAHIK_clean_linker_0, # of connection points: 2
#     Edge 30, Type (0, 1), BuildingBlock: UVAHIK_clean_linker_0, # of connection points: 2
#     Edge 31, Type (0, 1), BuildingBlock: UVAHIK_clean_linker_0, # of connection points: 2
#     Edge 32, Type (0, 1), BuildingBlock: UVAHIK_clean_linker_0, # of connection points: 2
#     Edge 33, Type (0, 1), BuildingBlock: UVAHIK_clean_linker_0, # of connection points: 2
#     Edge 34, Type (0, 1), BuildingBlock: UVAHIK_clean_linker_0, # of connection points: 2
#     Edge 35, Type (0, 1), BuildingBlock: UVAHIK_clean_linker_0, # of connection points: 2
#     Edge 36, Type (0, 1), BuildingBlock: UVAHIK_clean_linker_0, # of connection points: 2
#     Edge 37, Type (0, 1), BuildingBlock: UVAHIK_clean_linker_0, # of connection points: 2
#     Edge 38, Type (0, 1), BuildingBlock: UVAHIK_clean_linker_0, # of connection points: 2
#     Edge 39, Type (0, 1), BuildingBlock: UVAHIK_clean_linker_0, # of connection points: 2
#     Edge 40, Type (0, 1), BuildingBlock: UVAHIK_clean_linker_0, # of connection points: 2
#     Edge 41, Type (0, 1), BuildingBlock: UVAHIK_clean_linker_0, # of connection points: 2
#     Edge 42, Type (0, 1), BuildingBlock: UVAHIK_clean_linker_0, # of connection points: 2
#     Edge 43, Type (0, 1), BuildingBlock: UVAHIK_clean_linker_0, # of connection points: 2
#     Edge 44, Type (0, 1), BuildingBlock: UVAHIK_clean_linker_0, # of connection points: 2
#     Edge 45, Type (0, 1), BuildingBlock: UVAHIK_clean_linker_0, # of connection points: 2
#     Edge 46, Type (0, 1), BuildingBlock: UVAHIK_clean_linker_0, # of connection points: 2
#     Edge 47, Type (0, 1), BuildingBlock: UVAHIK_clean_linker_0, # of connection points: 2
#     Edge 48, Type (0, 1), BuildingBlock: UVAHIK_clean_linker_0, # of connection points: 2
#     Edge 49, Type (0, 1), BuildingBlock: UVAHIK_clean_linker_0, # of connection points: 2
#     Edge 50, Type (0, 1), BuildingBlock: UVAHIK_clean_linker_0, # of connection points: 2
#     Edge 51, Type (0, 1), BuildingBlock: UVAHIK_clean_linker_0, # of connection points: 2
#     Edge 52, Type (0, 1), BuildingBlock: UVAHIK_clean_linker_0, # of connection points: 2
#     Edge 53, Type (0, 1), BuildingBlock: UVAHIK_clean_linker_0, # of connection points: 2
#     Edge 54, Type (0, 1), BuildingBlock: UVAHIK_clean_linker_0, # of connection points: 2
#     Edge 55, Type (0, 1), BuildingBlock: UVAHIK_clean_linker_0, # of connection points: 2
#     Edge 56, Type (0, 1), BuildingBlock: UVAHIK_clean_linker_0, # of connection points: 2
#     Edge 57, Type (0, 1), BuildingBlock: UVAHIK_clean_linker_0, # of connection points: 2
#     Edge 58, Type (0, 1), BuildingBlock: UVAHIK_clean_linker_0, # of connection points: 2
#     Edge 59, Type (0, 1), BuildingBlock: UVAHIK_clean_linker_0, # of connection points: 2
#     Edge 60, Type (0, 1), BuildingBlock: UVAHIK_clean_linker_0, # of connection points: 2
#     Edge 61, Type (0, 1), BuildingBlock: UVAHIK_clean_linker_0, # of connection points: 2
#     Edge 62, Type (0, 1), BuildingBlock: UVAHIK_clean_linker_0, # of connection points: 2
#     Edge 63, Type (0, 1), BuildingBlock: UVAHIK_clean_linker_0, # of connection points: 2
#     Edge 64, Type (0, 1), BuildingBlock: UVAHIK_clean_linker_0, # of connection points: 2
#     Edge 65, Type (0, 1), BuildingBlock: UVAHIK_clean_linker_0, # of connection points: 2
#     Edge 66, Type (0, 1), BuildingBlock: UVAHIK_clean_linker_0, # of connection points: 2
#     Edge 67, Type (0, 1), BuildingBlock: UVAHIK_clean_linker_0, # of connection points: 2
#     Edge 68, Type (0, 1), BuildingBlock: UVAHIK_clean_linker_0, # of connection points: 2
#     Edge 69, Type (0, 1), BuildingBlock: UVAHIK_clean_linker_0, # of connection points: 2
#     Edge 70, Type (0, 1), BuildingBlock: UVAHIK_clean_linker_0, # of connection points: 2
#     Edge 71, Type (0, 1), BuildingBlock: UVAHIK_clean_linker_0, # of connection points: 2
#     Edge 72, Type (0, 1), BuildingBlock: UVAHIK_clean_linker_0, # of connection points: 2
#     Edge 73, Type (0, 1), BuildingBlock: UVAHIK_clean_linker_0, # of connection points: 2
#     Edge 74, Type (0, 1), BuildingBlock: UVAHIK_clean_linker_0, # of connection points: 2
#     Edge 75, Type (0, 1), BuildingBlock: UVAHIK_clean_linker_0, # of connection points: 2
#     Edge 76, Type (0, 1), BuildingBlock: UVAHIK_clean_linker_0, # of connection points: 2
#     Edge 77, Type (0, 1), BuildingBlock: UVAHIK_clean_linker_0, # of connection points: 2
#     Edge 78, Type (0, 1), BuildingBlock: UVAHIK_clean_linker_0, # of connection points: 2
#     Edge 79, Type (0, 1), BuildingBlock: UVAHIK_clean_linker_0, # of connection points: 2
#     Edge 80, Type (0, 1), BuildingBlock: UVAHIK_clean_linker_0, # of connection points: 2
# Relax obj value: 0.035
# Max RMSD: 0.136
# Mean RMSD: 0.066
data_MOF--net-eea--node1-CUWYAW_clean_sbu_0--node2-VETTIZ_charged_linker_0--edge1-UVAHIK_clean_linker_0
_symmetry_space_group_name_H-M    P1
_symmetry_Int_Tables_number       1
_symmetry_cell_setting            triclinic
loop_
_symmetry_equiv_pos_as_xyz
'x, y, z'
_cell_length_a     77.123475
_cell_length_b     76.899396
_cell_length_c     108.31939
_cell_angle_alpha  93.460756
_cell_angle_beta   93.438685
_cell_angle_gamma 119.84029
loop_
_atom_site_label
_atom_site_type_symbol
_atom_site_fract_x
_atom_site_fract_y
_atom_site_fract_z
_atom_type_partial_charge
C0 C 0.25758 0.18379 0.38883 0.0
C1 C 0.26104 0.20209 0.39489 0.0
C2 C 0.27213 0.209 0.40671 0.0
C3 C 0.27459 0.17876 0.40664 0.0
C4 C 0.26445 0.17243 0.39484 0.0
C5 C 0.26123 0.15224 0.38989 0.0
H6 H 0.26599 0.06883 0.40007 0.0
C7 C 0.27845 0.16282 0.41058 0.0
C8 C 0.27081 0.14732 0.40075 0.0
H9 H 0.24142 0.08077 0.36682 0.0
H10 H 0.25214 0.11433 0.37604 0.0
H11 H 0.30653 0.11252 0.40489 0.0
H12 H 0.24876 0.08766 0.4189 0.0
H13 H 0.26683 0.102 0.43147 0.0
H14 H 0.26689 0.08062 0.42372 0.0
H15 H 0.29901 0.0947 0.41623 0.0
H16 H 0.31094 0.12147 0.42072 0.0
C17 C 0.27272 0.15505 0.37824 0.0
C18 C 0.23827 0.13739 0.38749 0.0
C19 C 0.3074 0.16795 0.45492 0.0
C20 C 0.31086 0.15463 0.46158 0.0
C21 C 0.30784 0.13664 0.45519 0.0
C22 C 0.30089 0.13171 0.44253 0.0
C23 C 0.29668 0.14476 0.43615 0.0
C24 C 0.30028 0.1627 0.44228 0.0
C25 C 0.29468 0.17457 0.43403 0.0
C26 C 0.28688 0.16063 0.42199 0.0
C27 C 0.28798 0.14316 0.42333 0.0
C28 C 0.31398 0.19472 0.43261 0.0
C29 C 0.27794 0.17696 0.43975 0.0
C30 C 0.26286 0.07865 0.39478 0.0
C31 C 0.2527 0.07204 0.38272 0.0
C32 C 0.24933 0.08549 0.37609 0.0
C33 C 0.25543 0.10495 0.3815 0.0
C34 C 0.2649 0.11104 0.39373 0.0
C35 C 0.26876 0.09808 0.40007 0.0
C36 C 0.27888 0.10706 0.41299 0.0
C37 C 0.28033 0.12751 0.41339 0.0
C38 C 0.27198 0.12968 0.40212 0.0
C39 C 0.2999 0.10897 0.41388 0.0
C40 C 0.26481 0.09369 0.42234 0.0
H41 H 0.28699 0.20334 0.42168 0.0
H42 H 0.24943 0.17825 0.37965 0.0
H43 H 0.23026 0.14024 0.39485 0.0
H44 H 0.23412 0.12148 0.38775 0.0
H45 H 0.23207 0.13908 0.37841 0.0
H46 H 0.28667 0.17008 0.37912 0.0
H47 H 0.26335 0.15397 0.36971 0.0
H48 H 0.27795 0.14411 0.37689 0.0
H49 H 0.30983 0.18203 0.45948 0.0
H50 H 0.31014 0.12596 0.46008 0.0
H51 H 0.29857 0.11765 0.43829 0.0
H52 H 0.32733 0.19274 0.43275 0.0
H53 H 0.31697 0.20638 0.44031 0.0
H54 H 0.31339 0.20058 0.42363 0.0
H55 H 0.26727 0.16294 0.4437 0.0
H56 H 0.26853 0.17955 0.43289 0.0
H57 H 0.2844 0.18947 0.44738 0.0
H58 H 0.27496 0.22303 0.41158 0.0
C59 C 0.27897 0.19746 0.4126 0.0
C60 C 0.93405 0.18399 0.39756 0.0
C61 C 0.949 0.20184 0.40453 0.0
C62 C 0.94585 0.20642 0.41671 0.0
C63 C 0.91361 0.17544 0.41485 0.0
C64 C 0.91659 0.17114 0.40285 0.0
C65 C 0.89946 0.15148 0.39671 0.0
H66 H 0.81129 0.06639 0.4008 0.0
C67 C 0.89407 0.15871 0.41761 0.0
C68 C 0.88567 0.14469 0.40697 0.0
H69 H 0.84651 0.08285 0.36946 0.0
H70 H 0.87043 0.11492 0.3808 0.0
H71 H 0.84802 0.08233 0.42137 0.0
H72 H 0.81471 0.10925 0.40713 0.0
H73 H 0.82072 0.11739 0.42309 0.0
H74 H 0.80514 0.0908 0.41804 0.0
H75 H 0.82273 0.07438 0.4246 0.0
H76 H 0.84403 0.09452 0.43418 0.0
C77 C 0.9077 0.13714 0.39369 0.0
C78 C 0.88986 0.1559 0.38523 0.0
C79 C 0.87123 0.15739 0.46089 0.0
C80 C 0.85411 0.14332 0.46616 0.0
C81 C 0.83881 0.12653 0.45847 0.0
C82 C 0.8408 0.12334 0.44592 0.0
C83 C 0.85831 0.13705 0.44092 0.0
C84 C 0.873 0.15395 0.44827 0.0
C85 C 0.89038 0.16701 0.44119 0.0
C86 C 0.88383 0.15487 0.42849 0.0
C87 C 0.86511 0.13728 0.42845 0.0
C88 C 0.90957 0.16828 0.44753 0.0
C89 C 0.8915 0.18763 0.44071 0.0
C90 C 0.82398 0.07702 0.39629 0.0
C91 C 0.82703 0.07202 0.38422 0.0
C92 C 0.84395 0.08621 0.37881 0.0
C93 C 0.85779 0.10486 0.38539 0.0
C94 C 0.85479 0.10938 0.39758 0.0
C95 C 0.83797 0.09564 0.40275 0.0
C96 C 0.83733 0.10283 0.41584 0.0
C97 C 0.85663 0.1231 0.41771 0.0
C98 C 0.86682 0.12683 0.40701 0.0
C99 C 0.83792 0.08777 0.42453 0.0
C100 C 0.81847 0.10509 0.41616 0.0
H101 H 0.92679 0.19765 0.43121 0.0
H102 H 0.93605 0.17981 0.38825 0.0
H103 H 0.89011 0.17042 0.38708 0.0
H104 H 0.87383 0.14453 0.38281 0.0
H105 H 0.89814 0.15701 0.377 0.0
H106 H 0.91962 0.13949 0.40103 0.0
H107 H 0.91438 0.13982 0.38471 0.0
H108 H 0.89622 0.12105 0.39343 0.0
H109 H 0.88325 0.17047 0.46652 0.0
H110 H 0.82524 0.11573 0.46219 0.0
H111 H 0.82871 0.11014 0.44066 0.0
H112 H 0.90622 0.15338 0.45045 0.0
H113 H 0.91569 0.17934 0.45595 0.0
H114 H 0.92152 0.17228 0.4413 0.0
H115 H 0.87623 0.18584 0.44026 0.0
H116 H 0.8978 0.19491 0.43232 0.0
H117 H 0.90045 0.19809 0.44911 0.0
H118 H 0.95697 0.2202 0.42223 0.0
C119 C 0.92826 0.19335 0.42189 0.0
C120 C 0.93661 0.75893 0.40243 0.0
C121 C 0.95172 0.7559 0.40797 0.0
C122 C 0.9494 0.74833 0.41967 0.0
C123 C 0.91768 0.74764 0.42025 0.0
C124 C 0.91984 0.75476 0.40871 0.0
C125 C 0.90283 0.75787 0.40427 0.0
H126 H 0.81739 0.75758 0.41565 0.0
C127 C 0.8989 0.74559 0.42444 0.0
C128 C 0.89014 0.75155 0.41509 0.0
H129 H 0.8492 0.77454 0.38293 0.0
H130 H 0.87336 0.76607 0.39151 0.0
H131 H 0.82035 0.71799 0.41815 0.0
H132 H 0.85586 0.77898 0.43511 0.0
H133 H 0.85401 0.76349 0.44679 0.0
H134 H 0.83149 0.76178 0.4395 0.0
H135 H 0.81204 0.72803 0.43032 0.0
H136 H 0.82698 0.71645 0.43366 0.0
C137 C 0.89173 0.74356 0.39223 0.0
C138 C 0.91161 0.78056 0.40271 0.0
C139 C 0.87879 0.72348 0.46722 0.0
C140 C 0.86277 0.72147 0.47376 0.0
C141 C 0.84805 0.72482 0.46788 0.0
C142 C 0.84942 0.73048 0.4558 0.0
C143 C 0.86575 0.73297 0.44949 0.0
C144 C 0.88002 0.72933 0.45513 0.0
C145 C 0.89646 0.73308 0.44699 0.0
C146 C 0.88965 0.73958 0.43557 0.0
C147 C 0.87169 0.73951 0.43715 0.0
C148 C 0.89609 0.71294 0.44402 0.0
C149 C 0.91658 0.7503 0.45376 0.0
C150 C 0.82964 0.75961 0.41036 0.0
C151 C 0.83147 0.76688 0.39864 0.0
C152 C 0.84739 0.76886 0.39196 0.0
C153 C 0.86148 0.76405 0.39699 0.0
C154 C 0.85965 0.75717 0.40884 0.0
C155 C 0.8438 0.75487 0.41525 0.0
C156 C 0.84411 0.7473 0.42767 0.0
C157 C 0.86287 0.74559 0.42774 0.0
C158 C 0.87197 0.75146 0.41673 0.0
C159 C 0.82486 0.72642 0.42758 0.0
C160 C 0.84634 0.76355 0.43787 0.0
H161 H 0.93159 0.73849 0.43471 0.0
H162 H 0.93804 0.76498 0.39353 0.0
H163 H 0.92411 0.79009 0.41009 0.0
H164 H 0.90062 0.78564 0.40368 0.0
H165 H 0.91768 0.78416 0.39358 0.0
H166 H 0.8915 0.72903 0.39265 0.0
H167 H 0.89925 0.75037 0.38394 0.0
H168 H 0.87575 0.7393 0.39076 0.0
H169 H 0.89038 0.7211 0.47153 0.0
H170 H 0.8354 0.72303 0.47266 0.0
H171 H 0.83777 0.73291 0.45191 0.0
H172 H 0.88037 0.70006 0.44262 0.0
H173 H 0.90417 0.71008 0.45175 0.0
H174 H 0.90254 0.71231 0.43529 0.0
H175 H 0.91425 0.76172 0.45904 0.0
H176 H 0.92769 0.75886 0.44734 0.0
H177 H 0.92332 0.74443 0.46049 0.0
H178 H 0.96071 0.74564 0.42407 0.0
C179 C 0.93245 0.74413 0.42581 0.0
C180 C 0.16122 0.23726 0.59807 0.0
C181 C 0.17898 0.2406 0.59316 0.0
C182 C 0.18366 0.24942 0.5819 0.0
C183 C 0.15294 0.25088 0.58049 0.0
C184 C 0.14849 0.24251 0.59162 0.0
C185 C 0.12894 0.23976 0.59547 0.0
H186 H 0.04541 0.24621 0.58273 0.0
C187 C 0.13638 0.2541 0.576 0.0
C188 C 0.12228 0.24766 0.58475 0.0
H189 H 0.06178 0.22493 0.615 0.0
H190 H 0.09291 0.23213 0.60703 0.0
H191 H 0.08934 0.28483 0.58166 0.0
H192 H 0.05996 0.2248 0.56266 0.0
H193 H 0.07255 0.24174 0.5518 0.0
H194 H 0.05272 0.24294 0.55911 0.0
H195 H 0.06923 0.27633 0.56946 0.0
H196 H 0.09501 0.28693 0.56616 0.0
C197 C 0.13346 0.25306 0.60791 0.0
C198 C 0.11448 0.21694 0.59607 0.0
C199 C 0.1379 0.28189 0.53454 0.0
C200 C 0.12453 0.28595 0.52764 0.0
C201 C 0.10668 0.28244 0.53257 0.0
C202 C 0.10222 0.27495 0.54416 0.0
C203 C 0.11571 0.27083 0.5509 0.0
C204 C 0.13323 0.27439 0.54606 0.0
C205 C 0.14573 0.26899 0.55439 0.0
C206 C 0.13286 0.26161 0.56506 0.0
C207 C 0.11528 0.26268 0.56297 0.0
C208 C 0.1661 0.28844 0.55855 0.0
C209 C 0.14747 0.25191 0.54726 0.0
C210 C 0.05565 0.24298 0.58802 0.0
C211 C 0.0511 0.23498 0.59951 0.0
C212 C 0.06501 0.2313 0.6062 0.0
C213 C 0.08304 0.23537 0.60151 0.0
C214 C 0.0873 0.24321 0.58999 0.0
C215 C 0.07378 0.24702 0.58348 0.0
C216 C 0.08099 0.25559 0.57146 0.0
C217 C 0.10099 0.25618 0.57181 0.0
C218 C 0.10455 0.24882 0.58266 0.0
C219 C 0.0837 0.27699 0.57208 0.0
C220 C 0.06579 0.24067 0.56063 0.0
H221 H 0.17512 0.26107 0.56699 0.0
H222 H 0.15731 0.23077 0.60679 0.0
H223 H 0.11634 0.20784 0.58844 0.0
H224 H 0.09848 0.21258 0.59477 0.0
H225 H 0.1175 0.21212 0.60502 0.0
H226 H 0.14833 0.26711 0.60839 0.0
H227 H 0.13376 0.24495 0.61599 0.0
H228 H 0.12263 0.25833 0.60903 0.0
H229 H 0.15159 0.28409 0.53095 0.0
H230 H 0.09622 0.28562 0.52749 0.0
H231 H 0.08842 0.27259 0.54741 0.0
H232 H 0.16411 0.30179 0.55977 0.0
H233 H 0.17693 0.29139 0.55154 0.0
H234 H 0.17301 0.28805 0.56769 0.0
H235 H 0.1334 0.2416 0.54114 0.0
H236 H 0.14953 0.24205 0.55345 0.0
H237 H 0.15998 0.25813 0.54127 0.0
H238 H 0.19713 0.25196 0.57784 0.0
C239 C 0.17077 0.25458 0.57556 0.0
C240 C 0.74142 0.8142 0.6117 0.0
C241 C 0.73884 0.79669 0.60498 0.0
C242 C 0.72959 0.79148 0.59266 0.0
C243 C 0.72675 0.82153 0.59372 0.0
C244 C 0.7353 0.82632 0.60591 0.0
C245 C 0.73776 0.84587 0.61157 0.0
H246 H 0.73319 0.93019 0.60416 0.0
C247 C 0.7231 0.83782 0.59029 0.0
C248 C 0.72938 0.85206 0.60074 0.0
H249 H 0.75449 0.9147 0.63722 0.0
H250 H 0.74531 0.88227 0.62669 0.0
H251 H 0.75236 0.91391 0.58535 0.0
H252 H 0.6929 0.8863 0.59714 0.0
H253 H 0.69009 0.87891 0.58114 0.0
H254 H 0.7012 0.90531 0.58656 0.0
H255 H 0.73445 0.92131 0.58065 0.0
H256 H 0.7354 0.90105 0.57205 0.0
C257 C 0.76051 0.86074 0.61516 0.0
C258 C 0.72475 0.84134 0.6226 0.0
C259 C 0.69849 0.8376 0.54568 0.0
C260 C 0.6952 0.85146 0.53953 0.0
C261 C 0.69702 0.86844 0.54655 0.0
C262 C 0.70272 0.87196 0.55937 0.0
C263 C 0.70682 0.85844 0.56528 0.0
C264 C 0.70429 0.84139 0.5585 0.0
C265 C 0.70943 0.82877 0.56635 0.0
C266 C 0.71572 0.84123 0.57891 0.0
C267 C 0.71429 0.85864 0.5782 0.0
C268 C 0.72714 0.8277 0.56104 0.0
C269 C 0.69015 0.80804 0.56653 0.0
C270 C 0.73556 0.91968 0.6092 0.0
C271 C 0.74467 0.92506 0.62152 0.0
C272 C 0.74775 0.91103 0.62767 0.0
C273 C 0.74236 0.89218 0.62155 0.0
C274 C 0.73394 0.88733 0.60909 0.0
C275 C 0.73038 0.90086 0.6032 0.0
C276 C 0.72161 0.8933 0.5899 0.0
C277 C 0.72064 0.87306 0.58875 0.0
C278 C 0.72799 0.8697 0.59999 0.0
C279 C 0.73654 0.90812 0.58146 0.0
C280 C 0.70039 0.89091 0.58849 0.0
H281 H 0.71671 0.79905 0.57759 0.0
H282 H 0.74867 0.81876 0.62113 0.0
H283 H 0.71067 0.82648 0.62062 0.0
H284 H 0.71965 0.8523 0.62436 0.0
H285 H 0.73296 0.8409 0.63125 0.0
H286 H 0.76959 0.85872 0.60821 0.0
H287 H 0.76557 0.85827 0.62437 0.0
H288 H 0.76463 0.8767 0.61528 0.0
H289 H 0.69736 0.82447 0.54055 0.0
H290 H 0.69421 0.87915 0.54207 0.0
H291 H 0.70411 0.8853 0.56414 0.0
H292 H 0.73797 0.84237 0.5578 0.0
H293 H 0.7217 0.81598 0.55299 0.0
H294 H 0.73616 0.82477 0.56799 0.0
H295 H 0.67653 0.80959 0.56614 0.0
H296 H 0.68991 0.80108 0.5752 0.0
H297 H 0.68822 0.79742 0.55844 0.0
H298 H 0.72714 0.77791 0.58735 0.0
C299 C 0.72347 0.80374 0.58702 0.0
C300 C 0.06313 0.8188 0.60206 0.0
C301 C 0.048 0.80038 0.59575 0.0
C302 C 0.05086 0.79432 0.58385 0.0
C303 C 0.08333 0.82486 0.58476 0.0
C304 C 0.08055 0.8307 0.59644 0.0
C305 C 0.09784 0.8508 0.60188 0.0
H306 H 0.18634 0.93383 0.59506 0.0
C307 C 0.10296 0.84084 0.58153 0.0
C308 C 0.11155 0.85604 0.59156 0.0
H309 H 0.15133 0.92177 0.62644 0.0
H310 H 0.12735 0.88863 0.61645 0.0
H311 H 0.183 0.89126 0.59149 0.0
H312 H 0.14878 0.91483 0.57385 0.0
H313 H 0.15409 0.90177 0.56218 0.0
H314 H 0.1745 0.92312 0.57155 0.0
H315 H 0.192 0.90702 0.57912 0.0
H316 H 0.17629 0.87997 0.57609 0.0
C317 C 0.10742 0.84768 0.61392 0.0
C318 C 0.08985 0.86559 0.60379 0.0
C319 C 0.12626 0.83517 0.53924 0.0
C320 C 0.14383 0.8477 0.53378 0.0
C321 C 0.15906 0.86548 0.54073 0.0
C322 C 0.15673 0.87091 0.55281 0.0
C323 C 0.13897 0.85847 0.55807 0.0
C324 C 0.12422 0.84077 0.5514 0.0
C325 C 0.10666 0.82917 0.5587 0.0
C326 C 0.11321 0.84301 0.57075 0.0
C327 C 0.13205 0.86023 0.57025 0.0
C328 C 0.10514 0.8087 0.56071 0.0
C329 C 0.08771 0.8274 0.55161 0.0
C330 C 0.17345 0.92407 0.59975 0.0
C331 C 0.17063 0.93048 0.6115 0.0
C332 C 0.1539 0.91715 0.61741 0.0
C333 C 0.13991 0.89795 0.61155 0.0
C334 C 0.14265 0.89198 0.59964 0.0
C335 C 0.15937 0.90485 0.59403 0.0
C336 C 0.15999 0.89589 0.58145 0.0
C337 C 0.14064 0.87568 0.58032 0.0
C338 C 0.1305 0.87352 0.59096 0.0
C339 C 0.17882 0.89348 0.58194 0.0
C340 C 0.15944 0.90957 0.57168 0.0
H341 H 0.06971 0.80099 0.56928 0.0
H342 H 0.06132 0.82408 0.61112 0.0
H343 H 0.0781 0.86266 0.59616 0.0
H344 H 0.10149 0.8815 0.60355 0.0
H345 H 0.08301 0.86397 0.6127 0.0
H346 H 0.10673 0.83285 0.61302 0.0
H347 H 0.09944 0.84806 0.62204 0.0
H348 H 0.12358 0.85889 0.61599 0.0
H349 H 0.1144 0.82129 0.53418 0.0
H350 H 0.17264 0.87548 0.53669 0.0
H351 H 0.16878 0.88473 0.55753 0.0
H352 H 0.12032 0.81028 0.56183 0.0
H353 H 0.09636 0.79729 0.55266 0.0
H354 H 0.09845 0.8027 0.56931 0.0
H355 H 0.09141 0.84166 0.54755 0.0
H356 H 0.07582 0.82488 0.55766 0.0
H357 H 0.08138 0.81508 0.54387 0.0
H358 H 0.03956 0.7801 0.57884 0.0
C359 C 0.06844 0.80643 0.57834 0.0
C360 C 0.92585 0.51807 0.72219 0.0
C361 C 0.93009 0.53669 0.72822 0.0
C362 C 0.9411 0.54323 0.74007 0.0
C363 C 0.94225 0.51231 0.74001 0.0
C364 C 0.93207 0.5062 0.72822 0.0
C365 C 0.92816 0.48573 0.72328 0.0
H366 H 0.93129 0.40133 0.73328 0.0
C367 C 0.94551 0.496 0.74393 0.0
C368 C 0.93744 0.48045 0.73412 0.0
H369 H 0.90657 0.41358 0.70023 0.0
H370 H 0.91767 0.44722 0.70951 0.0
H371 H 0.97214 0.44486 0.73805 0.0
H372 H 0.9145 0.4203 0.75221 0.0
H373 H 0.93257 0.43485 0.76473 0.0
H374 H 0.93263 0.41335 0.75716 0.0
H375 H 0.96434 0.42669 0.74918 0.0
H376 H 0.97664 0.45339 0.75397 0.0
C377 C 0.93946 0.48809 0.71158 0.0
C378 C 0.90509 0.47142 0.72095 0.0
C379 C 0.97474 0.50076 0.78813 0.0
C380 C 0.97781 0.48719 0.79478 0.0
C381 C 0.97421 0.46896 0.78841 0.0
C382 C 0.96707 0.46405 0.77577 0.0
C383 C 0.96326 0.47737 0.7694 0.0
C384 C 0.96742 0.49552 0.77552 0.0
C385 C 0.96215 0.50765 0.76729 0.0
C386 C 0.95388 0.49363 0.75529 0.0
C387 C 0.95449 0.47589 0.75662 0.0
C388 C 0.98173 0.52748 0.76576 0.0
C389 C 0.94584 0.51067 0.77313 0.0
C390 C 0.9282 0.41123 0.72805 0.0
C391 C 0.91792 0.4047 0.71603 0.0
C392 C 0.91459 0.41824 0.70946 0.0
C393 C 0.92092 0.43775 0.71491 0.0
C394 C 0.93062 0.4438 0.72708 0.0
C395 C 0.93434 0.4307 0.73337 0.0
C396 C 0.94463 0.4396 0.74626 0.0
C397 C 0.94643 0.4602 0.74669 0.0
C398 C 0.9381 0.46253 0.73547 0.0
C399 C 0.9655 0.44115 0.74703 0.0
C400 C 0.93055 0.42638 0.75566 0.0
H401 H 0.95539 0.53693 0.75503 0.0
H402 H 0.91729 0.51249 0.71313 0.0
H403 H 0.89735 0.4747 0.72831 0.0
H404 H 0.90049 0.4554 0.72128 0.0
H405 H 0.89902 0.47322 0.71186 0.0
H406 H 0.9538 0.50277 0.71249 0.0
H407 H 0.93027 0.48752 0.7031 0.0
H408 H 0.94397 0.47661 0.71012 0.0
H409 H 0.97762 0.51501 0.79267 0.0
H410 H 0.9762 0.4581 0.79329 0.0
H411 H 0.9643 0.4498 0.77154 0.0
H412 H 0.99484 0.52508 0.76591 0.0
H413 H 0.98506 0.53935 0.77339 0.0
H414 H 0.98128 0.53326 0.75672 0.0
H415 H 0.935 0.49683 0.77717 0.0
H416 H 0.93654 0.51348 0.76632 0.0
H417 H 0.95268 0.52326 0.78071 0.0
H418 H 0.94489 0.55767 0.74483 0.0
C419 C 0.94725 0.53119 0.74597 0.0
C420 C 0.60055 0.51558 0.73116 0.0
C421 C 0.6157 0.53333 0.73811 0.0
C422 C 0.61267 0.53807 0.75029 0.0
C423 C 0.58009 0.50746 0.74842 0.0
C424 C 0.58299 0.503 0.73644 0.0
C425 C 0.56569 0.48345 0.73031 0.0
H426 H 0.47698 0.39907 0.73444 0.0
C427 C 0.5604 0.49096 0.75118 0.0
C428 C 0.55186 0.47692 0.74055 0.0
H429 H 0.51235 0.41498 0.70317 0.0
H430 H 0.5364 0.44705 0.71443 0.0
H431 H 0.51361 0.41495 0.75513 0.0
H432 H 0.48078 0.44214 0.74056 0.0
H433 H 0.4869 0.45059 0.75648 0.0
H434 H 0.47107 0.42396 0.75162 0.0
H435 H 0.48828 0.40715 0.75818 0.0
H436 H 0.5095 0.42722 0.76784 0.0
C437 C 0.57361 0.46882 0.72735 0.0
C438 C 0.5563 0.48803 0.7188 0.0
C439 C 0.53749 0.49028 0.79438 0.0
C440 C 0.52023 0.47643 0.79964 0.0
C441 C 0.50478 0.45975 0.79195 0.0
C442 C 0.50677 0.45644 0.77941 0.0
C443 C 0.52442 0.4699 0.77443 0.0
C444 C 0.53924 0.48672 0.78178 0.0
C445 C 0.55676 0.49952 0.77472 0.0
C446 C 0.55011 0.48734 0.76203 0.0
C447 C 0.53123 0.46994 0.76199 0.0
C448 C 0.57576 0.50046 0.78111 0.0
C449 C 0.55827 0.52031 0.77419 0.0
C450 C 0.48972 0.40959 0.72993 0.0
C451 C 0.49279 0.40442 0.71791 0.0
C452 C 0.50978 0.41846 0.71248 0.0
C453 C 0.5237 0.43711 0.71903 0.0
C454 C 0.52071 0.44179 0.73118 0.0
C455 C 0.50381 0.42822 0.73636 0.0
C456 C 0.5032 0.43557 0.74942 0.0
C457 C 0.52264 0.45572 0.75127 0.0
C458 C 0.53286 0.45924 0.74059 0.0
C459 C 0.50353 0.42048 0.75817 0.0
C460 C 0.48449 0.43811 0.74965 0.0
H461 H 0.59357 0.52967 0.76478 0.0
H462 H 0.60247 0.51128 0.72186 0.0
H463 H 0.55679 0.50268 0.72062 0.0
H464 H 0.54022 0.47683 0.71636 0.0
H465 H 0.56457 0.48898 0.71058 0.0
H466 H 0.58551 0.47109 0.73467 0.0
H467 H 0.58021 0.47128 0.71833 0.0
H468 H 0.56197 0.45281 0.72717 0.0
H469 H 0.54962 0.50326 0.80002 0.0
H470 H 0.49111 0.44914 0.79565 0.0
H471 H 0.49457 0.44334 0.77414 0.0
H472 H 0.57212 0.48553 0.78411 0.0
H473 H 0.58202 0.5116 0.7895 0.0
H474 H 0.58768 0.50417 0.7749 0.0
H475 H 0.5431 0.51877 0.7736 0.0
H476 H 0.56484 0.52756 0.76584 0.0
H477 H 0.56715 0.53068 0.78263 0.0
H478 H 0.62397 0.55176 0.7558 0.0
C479 C 0.59495 0.52527 0.75546 0.0
C480 C 0.60325 0.09529 0.73651 0.0
C481 C 0.61849 0.09219 0.74177 0.0
C482 C 0.6162 0.08392 0.75323 0.0
C483 C 0.58409 0.08232 0.75407 0.0
C484 C 0.5863 0.09031 0.74279 0.0
C485 C 0.56902 0.09316 0.7386 0.0
H486 H 0.48131 0.08787 0.75005 0.0
C487 C 0.56494 0.07922 0.75825 0.0
C488 C 0.55605 0.08555 0.74921 0.0
H489 H 0.51445 0.10921 0.7182 0.0
H490 H 0.53927 0.10142 0.72646 0.0
H491 H 0.48574 0.04917 0.75104 0.0
H492 H 0.51965 0.10871 0.77043 0.0
H493 H 0.51665 0.09167 0.78132 0.0
H494 H 0.49475 0.0907 0.77365 0.0
H495 H 0.47667 0.05718 0.76378 0.0
H496 H 0.49234 0.04614 0.76621 0.0
C497 C 0.55847 0.07968 0.7262 0.0
C498 C 0.5773 0.11597 0.73779 0.0
C499 C 0.54348 0.05149 0.79963 0.0
C500 C 0.52658 0.04725 0.80593 0.0
C501 C 0.51164 0.05058 0.80035 0.0
C502 C 0.51351 0.05811 0.78876 0.0
C503 C 0.53054 0.06245 0.78264 0.0
C504 C 0.54511 0.05901 0.78802 0.0
C505 C 0.5621 0.06443 0.78007 0.0
C506 C 0.55532 0.07175 0.76908 0.0
C507 C 0.53688 0.07063 0.77069 0.0
C508 C 0.56274 0.04503 0.77626 0.0
C509 C 0.58165 0.08154 0.78747 0.0
C510 C 0.494 0.09102 0.74491 0.0
C511 C 0.49598 0.09927 0.73349 0.0
C512 C 0.51251 0.10273 0.72697 0.0
C513 C 0.52697 0.0983 0.73182 0.0
C514 C 0.52492 0.0903 0.74333 0.0
C515 C 0.50855 0.08665 0.74961 0.0
C516 C 0.50867 0.07791 0.76163 0.0
C517 C 0.52796 0.07715 0.76161 0.0
C518 C 0.53744 0.08448 0.7509 0.0
C519 C 0.48986 0.05654 0.76076 0.0
C520 C 0.50985 0.09284 0.77238 0.0
H521 H 0.59824 0.0727 0.76808 0.0
H522 H 0.60466 0.10188 0.7278 0.0
H523 H 0.58966 0.12519 0.7453 0.0
H524 H 0.566 0.12054 0.73913 0.0
H525 H 0.58341 0.12049 0.72876 0.0
H526 H 0.55863 0.06529 0.72614 0.0
H527 H 0.56614 0.08735 0.71815 0.0
H528 H 0.54241 0.07508 0.72467 0.0
H529 H 0.55514 0.04892 0.8036 0.0
H530 H 0.49862 0.04773 0.80507 0.0
H531 H 0.50167 0.06042 0.78509 0.0
H532 H 0.54728 0.03173 0.77454 0.0
H533 H 0.57109 0.04192 0.78369 0.0
H534 H 0.56944 0.04559 0.76746 0.0
H535 H 0.57855 0.09206 0.79314 0.0
H536 H 0.59296 0.09113 0.78144 0.0
H537 H 0.58848 0.07538 0.79392 0.0
H538 H 0.62761 0.08117 0.75741 0.0
C539 C 0.59908 0.07893 0.75939 0.0
C540 C 0.82961 0.57219 0.93132 0.0
C541 C 0.84743 0.57599 0.9263 0.0
C542 C 0.85188 0.58508 0.91512 0.0
C543 C 0.82083 0.58594 0.914 0.0
C544 C 0.81657 0.57721 0.92503 0.0
C545 C 0.79671 0.57357 0.92888 0.0
H546 H 0.71105 0.57612 0.91625 0.0
C547 C 0.80392 0.58871 0.90966 0.0
C548 C 0.78973 0.58149 0.91833 0.0
H549 H 0.72846 0.55479 0.94811 0.0
H550 H 0.76009 0.56379 0.94028 0.0
H551 H 0.75462 0.61666 0.91618 0.0
H552 H 0.72748 0.55765 0.89596 0.0
H553 H 0.73976 0.5755 0.8855 0.0
H554 H 0.71933 0.57528 0.89288 0.0
H555 H 0.73467 0.60817 0.90386 0.0
H556 H 0.76065 0.6199 0.90079 0.0
C557 C 0.80073 0.58631 0.94147 0.0
C558 C 0.78284 0.55055 0.92916 0.0
C559 C 0.80496 0.61823 0.8689 0.0
C560 C 0.7913 0.6221 0.86217 0.0
C561 C 0.77324 0.61781 0.86712 0.0
C562 C 0.76885 0.60971 0.87855 0.0
C563 C 0.78261 0.60576 0.8851 0.0
C564 C 0.80035 0.61013 0.88026 0.0
C565 C 0.81314 0.60478 0.88837 0.0
C566 C 0.80019 0.59652 0.89892 0.0
C567 C 0.78231 0.59707 0.89695 0.0
C568 C 0.83318 0.62442 0.89283 0.0
C569 C 0.81551 0.58838 0.88088 0.0
C570 C 0.72175 0.57356 0.92159 0.0
C571 C 0.71712 0.56454 0.93277 0.0
C572 C 0.73145 0.56134 0.93936 0.0
C573 C 0.7499 0.56669 0.93483 0.0
C574 C 0.75416 0.57535 0.92355 0.0
C575 C 0.74028 0.57881 0.91718 0.0
C576 C 0.74749 0.58824 0.90538 0.0
C577 C 0.76789 0.58969 0.90569 0.0
C578 C 0.77165 0.58205 0.91634 0.0
C579 C 0.74937 0.6093 0.90647 0.0
C580 C 0.73277 0.57358 0.89429 0.0
H581 H 0.84296 0.59694 0.90048 0.0
H582 H 0.82562 0.565 0.93982 0.0
H583 H 0.78551 0.54195 0.92161 0.0
H584 H 0.76671 0.5456 0.9275 0.0
H585 H 0.78564 0.54566 0.93814 0.0
H586 H 0.81515 0.60086 0.942 0.0
H587 H 0.80171 0.57822 0.9494 0.0
H588 H 0.78926 0.59066 0.94283 0.0
H589 H 0.81881 0.62101 0.86528 0.0
H590 H 0.76254 0.62081 0.86217 0.0
H591 H 0.75486 0.60673 0.88181 0.0
H592 H 0.83064 0.63734 0.8946 0.0
H593 H 0.84399 0.62829 0.88572 0.0
H594 H 0.84036 0.62364 0.90175 0.0
H595 H 0.80175 0.57828 0.87446 0.0
H596 H 0.81745 0.57818 0.88683 0.0
H597 H 0.82833 0.59526 0.87517 0.0
H598 H 0.86562 0.58839 0.91114 0.0
C599 C 0.83873 0.59011 0.90897 0.0
C600 C 0.40513 0.1472 0.94555 0.0
C601 C 0.40041 0.12833 0.93963 0.0
C602 C 0.38914 0.12182 0.92783 0.0
C603 C 0.38899 0.15326 0.92774 0.0
C604 C 0.39912 0.15921 0.93954 0.0
C605 C 0.40293 0.17957 0.94463 0.0
H606 H 0.40086 0.2646 0.93537 0.0
C607 C 0.38604 0.16978 0.92385 0.0
C608 C 0.39387 0.18508 0.9338 0.0
H609 H 0.42266 0.25027 0.96874 0.0
H610 H 0.41236 0.21716 0.95887 0.0
H611 H 0.41847 0.24641 0.91687 0.0
H612 H 0.35958 0.22094 0.92934 0.0
H613 H 0.35627 0.21348 0.91331 0.0
H614 H 0.36843 0.23995 0.91875 0.0
H615 H 0.4006 0.2534 0.9114 0.0
H616 H 0.40133 0.23224 0.9039 0.0
C617 C 0.42597 0.19388 0.94714 0.0
C618 C 0.39137 0.17692 0.95625 0.0
C619 C 0.36091 0.1677 0.87902 0.0
C620 C 0.35881 0.18186 0.87243 0.0
C621 C 0.36181 0.1997 0.87899 0.0
C622 C 0.36761 0.20376 0.89181 0.0
C623 C 0.37063 0.18994 0.89816 0.0
C624 C 0.3669 0.17207 0.89183 0.0
C625 C 0.37111 0.15929 0.90011 0.0
C626 C 0.37846 0.1727 0.91237 0.0
C627 C 0.3782 0.19065 0.91113 0.0
C628 C 0.38783 0.15633 0.89488 0.0
C629 C 0.35114 0.13943 0.90088 0.0
C630 C 0.40312 0.25421 0.94062 0.0
C631 C 0.41266 0.26009 0.95284 0.0
C632 C 0.41559 0.2462 0.95926 0.0
C633 C 0.40952 0.22694 0.95353 0.0
C634 C 0.40052 0.2215 0.94119 0.0
C635 C 0.39722 0.23494 0.93501 0.0
C636 C 0.38776 0.22667 0.92189 0.0
C637 C 0.38578 0.20597 0.92126 0.0
C638 C 0.39342 0.20312 0.93256 0.0
C639 C 0.40261 0.24035 0.91297 0.0
C640 C 0.36696 0.22526 0.92063 0.0
H641 H 0.37514 0.12847 0.91285 0.0
H642 H 0.41385 0.1529 0.95455 0.0
H643 H 0.37761 0.16177 0.95554 0.0
H644 H 0.38581 0.18763 0.95734 0.0
H645 H 0.40083 0.1785 0.96486 0.0
H646 H 0.43379 0.19117 0.93959 0.0
H647 H 0.43196 0.19144 0.95604 0.0
H648 H 0.43054 0.20996 0.94733 0.0
H649 H 0.35878 0.15389 0.87422 0.0
H650 H 0.35993 0.21067 0.87416 0.0
H651 H 0.36994 0.21773 0.89622 0.0
H652 H 0.39992 0.17076 0.89208 0.0
H653 H 0.38172 0.14507 0.88655 0.0
H654 H 0.39539 0.15155 0.90169 0.0
H655 H 0.33801 0.14172 0.89971 0.0
H656 H 0.35031 0.13365 0.91006 0.0
H657 H 0.34885 0.12757 0.89351 0.0
H658 H 0.38475 0.10717 0.92315 0.0
C659 C 0.38344 0.13417 0.92187 0.0
C660 C 0.73133 0.15038 0.93643 0.0
C661 C 0.71649 0.13186 0.93006 0.0
C662 C 0.71973 0.12592 0.91825 0.0
C663 C 0.75185 0.1569 0.91926 0.0
C664 C 0.74877 0.16256 0.93091 0.0
C665 C 0.76572 0.18284 0.93638 0.0
H666 H 0.85276 0.26755 0.92952 0.0
C667 C 0.77124 0.1733 0.91604 0.0
C668 C 0.77945 0.18851 0.92607 0.0
H669 H 0.81824 0.25411 0.96116 0.0
H670 H 0.79477 0.22083 0.9511 0.0
H671 H 0.85013 0.22473 0.92542 0.0
H672 H 0.81559 0.24882 0.9089 0.0
H673 H 0.81927 0.23509 0.89684 0.0
H674 H 0.84075 0.25647 0.90552 0.0
H675 H 0.85935 0.24214 0.9139 0.0
H676 H 0.84444 0.21526 0.90967 0.0
C677 C 0.77555 0.17999 0.9484 0.0
C678 C 0.75716 0.19716 0.93832 0.0
C679 C 0.79473 0.16896 0.8736 0.0
C680 C 0.81164 0.18237 0.86789 0.0
C681 C 0.82621 0.20068 0.87471 0.0
C682 C 0.8239 0.20567 0.88689 0.0
C683 C 0.80676 0.19234 0.89237 0.0
C684 C 0.79261 0.17425 0.88581 0.0
C685 C 0.77533 0.16207 0.89319 0.0
C686 C 0.78146 0.17591 0.90521 0.0
C687 C 0.79984 0.19364 0.90462 0.0
C688 C 0.77493 0.14212 0.89525 0.0
C689 C 0.75589 0.15927 0.88613 0.0
C690 C 0.84009 0.25745 0.93426 0.0
C691 C 0.83724 0.26351 0.9461 0.0
C692 C 0.82081 0.24976 0.95206 0.0
C693 C 0.80712 0.23049 0.94616 0.0
C694 C 0.80988 0.22487 0.93416 0.0
C695 C 0.82633 0.23816 0.92851 0.0
C696 C 0.82701 0.22959 0.91583 0.0
C697 C 0.80808 0.20905 0.91472 0.0
C698 C 0.79804 0.20641 0.92543 0.0
C699 C 0.84625 0.22791 0.91609 0.0
C700 C 0.82574 0.24316 0.9062 0.0
H701 H 0.73888 0.13296 0.90382 0.0
H702 H 0.72924 0.15556 0.94544 0.0
H703 H 0.7456 0.19421 0.93057 0.0
H704 H 0.76858 0.21321 0.93837 0.0
H705 H 0.74995 0.195 0.94711 0.0
H706 H 0.77507 0.16526 0.94756 0.0
H707 H 0.76762 0.18034 0.95656 0.0
H708 H 0.79168 0.19136 0.95039 0.0
H709 H 0.78334 0.1547 0.86869 0.0
H710 H 0.83921 0.21147 0.87052 0.0
H711 H 0.83544 0.21991 0.89148 0.0
H712 H 0.79045 0.14463 0.89667 0.0
H713 H 0.76691 0.13071 0.8871 0.0
H714 H 0.768 0.13568 0.90371 0.0
H715 H 0.75893 0.17312 0.88176 0.0
H716 H 0.7441 0.15674 0.89226 0.0
H717 H 0.74969 0.1466 0.87862 0.0
H718 H 0.70867 0.11163 0.9132 0.0
C719 C 0.73732 0.1383 0.91284 0.0
C720 C 0.59198 0.8507 0.055 0.0
C721 C 0.59532 0.86897 0.06103 0.0
C722 C 0.60635 0.87595 0.07286 0.0
C723 C 0.60894 0.8458 0.07289 0.0
C724 C 0.59888 0.83941 0.06107 0.0
C725 C 0.59576 0.81924 0.05617 0.0
H726 H 0.59948 0.73549 0.06697 0.0
C727 C 0.61278 0.82989 0.07691 0.0
C728 C 0.60525 0.81437 0.06711 0.0
H729 H 0.57643 0.74777 0.03325 0.0
H730 H 0.58727 0.78146 0.04235 0.0
H731 H 0.6403 0.77862 0.07178 0.0
H732 H 0.58244 0.75521 0.08553 0.0
H733 H 0.6006 0.76911 0.09815 0.0
H734 H 0.6 0.74744 0.09034 0.0
H735 H 0.63257 0.76142 0.08348 0.0
H736 H 0.64477 0.78835 0.08746 0.0
C737 C 0.60738 0.82204 0.04458 0.0
C738 C 0.57282 0.80435 0.05369 0.0
C739 C 0.64124 0.83519 0.12141 0.0
C740 C 0.64461 0.82189 0.12816 0.0
C741 C 0.64155 0.80383 0.12186 0.0
C742 C 0.63467 0.79882 0.10919 0.0
C743 C 0.63057 0.81186 0.10271 0.0
C744 C 0.6342 0.82987 0.10877 0.0
C745 C 0.62873 0.84171 0.10041 0.0
C746 C 0.62103 0.82772 0.0884 0.0
C747 C 0.62203 0.81022 0.08984 0.0
C748 C 0.64808 0.86183 0.09903 0.0
C749 C 0.61193 0.84416 0.10601 0.0
C750 C 0.59673 0.74543 0.06156 0.0
C751 C 0.58692 0.7389 0.04942 0.0
C752 C 0.58404 0.75246 0.0426 0.0
C753 C 0.59021 0.77198 0.04794 0.0
C754 C 0.59928 0.77801 0.06025 0.0
C755 C 0.60277 0.76495 0.06676 0.0
C756 C 0.61274 0.77397 0.0797 0.0
C757 C 0.61444 0.79452 0.07994 0.0
C758 C 0.60635 0.79671 0.06858 0.0
C759 C 0.63364 0.77561 0.08079 0.0
C760 C 0.59839 0.7608 0.089 0.0
H761 H 0.62119 0.87041 0.0879 0.0
H762 H 0.58388 0.84512 0.0458 0.0
H763 H 0.56477 0.80692 0.06114 0.0
H764 H 0.56872 0.78842 0.0537 0.0
H765 H 0.56664 0.80632 0.04469 0.0
H766 H 0.62112 0.83722 0.04536 0.0
H767 H 0.59795 0.82052 0.03597 0.0
H768 H 0.61297 0.81136 0.04345 0.0
H769 H 0.6437 0.84932 0.12591 0.0
H770 H 0.64376 0.79316 0.12681 0.0
H771 H 0.63232 0.78471 0.10501 0.0
H772 H 0.66141 0.85981 0.09924 0.0
H773 H 0.65103 0.87352 0.10671 0.0
H774 H 0.64758 0.86768 0.09002 0.0
H775 H 0.60124 0.8302 0.11001 0.0
H776 H 0.60254 0.84663 0.09907 0.0
H777 H 0.61833 0.85675 0.11358 0.0
H778 H 0.60907 0.88995 0.07771 0.0
C779 C 0.61322 0.86449 0.07881 0.0
C780 C 0.26825 0.84843 0.06438 0.0
C781 C 0.28325 0.86633 0.07123 0.0
C782 C 0.27981 0.87179 0.0831 0.0
C783 C 0.24727 0.84115 0.08135 0.0
C784 C 0.25046 0.83619 0.06956 0.0
C785 C 0.23314 0.81662 0.06348 0.0
H786 H 0.14416 0.7327 0.06773 0.0
C787 C 0.22749 0.82482 0.08411 0.0
C788 C 0.21907 0.81052 0.0736 0.0
H789 H 0.17963 0.74815 0.03649 0.0
H790 H 0.20365 0.78032 0.04763 0.0
H791 H 0.1808 0.74893 0.0885 0.0
H792 H 0.1479 0.77577 0.0735 0.0
H793 H 0.15393 0.78445 0.08939 0.0
H794 H 0.13818 0.75777 0.08466 0.0
H795 H 0.15545 0.74117 0.0915 0.0
H796 H 0.17665 0.7614 0.10109 0.0
C797 C 0.24092 0.80176 0.06095 0.0
C798 C 0.22412 0.82101 0.05171 0.0
C799 C 0.20463 0.82457 0.12731 0.0
C800 C 0.18742 0.81072 0.13261 0.0
C801 C 0.17194 0.79404 0.12495 0.0
C802 C 0.17385 0.79069 0.11241 0.0
C803 C 0.19147 0.8041 0.10738 0.0
C804 C 0.20632 0.82097 0.1147 0.0
C805 C 0.22379 0.83372 0.10759 0.0
C806 C 0.21714 0.82141 0.09494 0.0
C807 C 0.19827 0.804 0.09495 0.0
C808 C 0.24283 0.8348 0.114 0.0
C809 C 0.22525 0.85448 0.10695 0.0
C810 C 0.15693 0.74313 0.0632 0.0
C811 C 0.16003 0.7378 0.05123 0.0
C812 C 0.17703 0.75175 0.04577 0.0
C813 C 0.19094 0.77046 0.05225 0.0
C814 C 0.18794 0.7753 0.06436 0.0
C815 C 0.171 0.76184 0.06956 0.0
C816 C 0.17033 0.7694 0.08254 0.0
C817 C 0.18974 0.78959 0.08432 0.0
C818 C 0.20003 0.7929 0.07368 0.0
C819 C 0.17069 0.7545 0.09145 0.0
C820 C 0.15158 0.77189 0.08265 0.0
H821 H 0.26027 0.86409 0.09735 0.0
H822 H 0.27031 0.84402 0.05513 0.0
H823 H 0.22534 0.83605 0.05309 0.0
H824 H 0.20786 0.81028 0.04946 0.0
H825 H 0.2321 0.82093 0.04353 0.0
H826 H 0.25215 0.80369 0.06866 0.0
H827 H 0.24833 0.80437 0.05222 0.0
H828 H 0.22904 0.7858 0.06045 0.0
H829 H 0.21677 0.83758 0.13292 0.0
H830 H 0.1583 0.78343 0.12869 0.0
H831 H 0.16163 0.77757 0.10716 0.0
H832 H 0.23936 0.81977 0.11674 0.0
H833 H 0.24873 0.84558 0.12255 0.0
H834 H 0.25499 0.8391 0.10792 0.0
H835 H 0.21012 0.85301 0.10668 0.0
H836 H 0.23128 0.86136 0.0984 0.0
H837 H 0.23461 0.86513 0.11519 0.0
H838 H 0.29118 0.88552 0.08856 0.0
C839 C 0.26191 0.85929 0.08821 0.0
C840 C 0.27058 0.42874 0.07019 0.0
C841 C 0.28591 0.42606 0.07577 0.0
C842 C 0.2837 0.41855 0.08748 0.0
C843 C 0.25144 0.41676 0.08787 0.0
C844 C 0.2536 0.42404 0.07637 0.0
C845 C 0.23624 0.42651 0.0718 0.0
H846 H 0.14801 0.42096 0.08194 0.0
C847 C 0.23217 0.41368 0.09181 0.0
C848 C 0.22319 0.41935 0.08241 0.0
H849 H 0.18166 0.44155 0.0502 0.0
H850 H 0.20663 0.43441 0.05906 0.0
H851 H 0.15258 0.38234 0.0837 0.0
H852 H 0.1857 0.44241 0.10235 0.0
H853 H 0.18256 0.42588 0.11361 0.0
H854 H 0.16073 0.42435 0.10544 0.0
H855 H 0.14336 0.3904 0.09633 0.0
H856 H 0.15942 0.37982 0.09895 0.0
C857 C 0.22586 0.41244 0.05959 0.0
C858 C 0.24433 0.44918 0.0705 0.0
C859 C 0.2108 0.38894 0.13391 0.0
C860 C 0.19373 0.3849 0.13998 0.0
C861 C 0.17834 0.3869 0.13373 0.0
C862 C 0.1801 0.39333 0.12184 0.0
C863 C 0.19743 0.39781 0.11603 0.0
C864 C 0.2123 0.39532 0.12196 0.0
C865 C 0.22943 0.40047 0.11416 0.0
C866 C 0.22246 0.4067 0.10269 0.0
C867 C 0.20377 0.40522 0.10392 0.0
C868 C 0.2306 0.38115 0.11115 0.0
C869 C 0.24876 0.41827 0.12131 0.0
C870 C 0.16062 0.4237 0.07682 0.0
C871 C 0.16287 0.43187 0.06536 0.0
C872 C 0.1797 0.43551 0.05911 0.0
C873 C 0.19415 0.43126 0.06425 0.0
C874 C 0.19183 0.42338 0.07581 0.0
C875 C 0.1752 0.41962 0.08184 0.0
C876 C 0.17526 0.41144 0.09408 0.0
C877 C 0.19476 0.41106 0.09446 0.0
C878 C 0.2044 0.41806 0.08376 0.0
C879 C 0.15667 0.38995 0.09336 0.0
C880 C 0.17596 0.42663 0.10448 0.0
H881 H 0.26577 0.4082 0.10243 0.0
H882 H 0.27194 0.43479 0.06129 0.0
H883 H 0.25702 0.45884 0.07774 0.0
H884 H 0.23307 0.45378 0.07192 0.0
H885 H 0.24992 0.45315 0.06128 0.0
H886 H 0.22568 0.39794 0.06008 0.0
H887 H 0.23391 0.41949 0.0515 0.0
H888 H 0.20992 0.40813 0.05772 0.0
H889 H 0.22291 0.38758 0.13843 0.0
H890 H 0.1648 0.3834 0.13803 0.0
H891 H 0.16791 0.39466 0.11767 0.0
H892 H 0.21531 0.36755 0.10979 0.0
H893 H 0.23933 0.37899 0.11884 0.0
H894 H 0.23717 0.38108 0.10238 0.0
H895 H 0.24538 0.42921 0.12623 0.0
H896 H 0.26022 0.42718 0.11517 0.0
H897 H 0.2555 0.4129 0.1284 0.0
H898 H 0.29521 0.41617 0.09193 0.0
C899 C 0.26655 0.41384 0.09354 0.0
C900 C 0.49564 0.90481 0.2647 0.0
C901 C 0.51312 0.90774 0.25958 0.0
C902 C 0.51752 0.91624 0.2482 0.0
C903 C 0.48709 0.91821 0.2471 0.0
C904 C 0.48287 0.91009 0.25832 0.0
C905 C 0.46341 0.90744 0.26229 0.0
H906 H 0.37972 0.91371 0.24985 0.0
C907 C 0.47053 0.9215 0.24272 0.0
C908 C 0.4566 0.91522 0.25156 0.0
H909 H 0.39638 0.89252 0.28205 0.0
H910 H 0.42748 0.89981 0.274 0.0
H911 H 0.42355 0.95238 0.24875 0.0
H912 H 0.39419 0.89241 0.22969 0.0
H913 H 0.4066 0.90941 0.21882 0.0
H914 H 0.38683 0.91052 0.22626 0.0
H915 H 0.40349 0.94397 0.23651 0.0
H916 H 0.42932 0.95458 0.23327 0.0
C917 C 0.46816 0.9209 0.27468 0.0
C918 C 0.44895 0.88465 0.26302 0.0
C919 C 0.47178 0.94955 0.20138 0.0
C920 C 0.45841 0.95374 0.19459 0.0
C921 C 0.44062 0.95023 0.1996 0.0
C922 C 0.43623 0.94264 0.21117 0.0
C923 C 0.44972 0.93841 0.2178 0.0
C924 C 0.46717 0.94195 0.21288 0.0
C925 C 0.47968 0.9364 0.22109 0.0
C926 C 0.46692 0.92902 0.23181 0.0
C927 C 0.44938 0.93019 0.22983 0.0
C928 C 0.50012 0.95577 0.22522 0.0
C929 C 0.48125 0.91929 0.21385 0.0
C930 C 0.39002 0.91052 0.25511 0.0
C931 C 0.38556 0.9025 0.26659 0.0
C932 C 0.39954 0.89889 0.27325 0.0
C933 C 0.41756 0.90302 0.26852 0.0
C934 C 0.42172 0.91084 0.25698 0.0
C935 C 0.40813 0.91461 0.25052 0.0
C936 C 0.41523 0.92318 0.23848 0.0
C937 C 0.43521 0.92376 0.23875 0.0
C938 C 0.43888 0.91643 0.24958 0.0
C939 C 0.41795 0.9446 0.23915 0.0
C940 C 0.39994 0.90828 0.22768 0.0
H941 H 0.50884 0.92786 0.23333 0.0
H942 H 0.49171 0.89812 0.27336 0.0
H943 H 0.45086 0.87541 0.2555 0.0
H944 H 0.43295 0.88027 0.26163 0.0
H945 H 0.45192 0.88 0.27205 0.0
H946 H 0.48288 0.93507 0.27494 0.0
H947 H 0.46893 0.91302 0.28277 0.0
H948 H 0.45719 0.92595 0.27595 0.0
H949 H 0.48541 0.95173 0.19771 0.0
H950 H 0.43016 0.9535 0.19461 0.0
H951 H 0.42246 0.94029 0.21449 0.0
H952 H 0.49814 0.96909 0.22676 0.0
H953 H 0.51072 0.95892 0.21804 0.0
H954 H 0.50729 0.95515 0.23419 0.0
H955 H 0.46728 0.90929 0.20758 0.0
H956 H 0.48288 0.90912 0.21998 0.0
H957 H 0.49396 0.9255 0.20801 0.0
H958 H 0.53103 0.91891 0.24414 0.0
C959 C 0.50465 0.92151 0.24196 0.0
C960 C 0.07134 0.48021 0.27891 0.0
C961 C 0.06676 0.46149 0.27283 0.0
C962 C 0.05595 0.45535 0.2609 0.0
C963 C 0.05587 0.48685 0.26103 0.0
C964 C 0.06564 0.49247 0.27292 0.0
C965 C 0.06951 0.5128 0.27811 0.0
H966 H 0.06846 0.59846 0.26918 0.0
C967 C 0.05315 0.50353 0.25721 0.0
C968 C 0.06084 0.51865 0.26726 0.0
H969 H 0.08958 0.58345 0.30253 0.0
H970 H 0.07916 0.55039 0.29252 0.0
H971 H 0.08607 0.58017 0.25064 0.0
H972 H 0.02708 0.55512 0.26292 0.0
H973 H 0.02381 0.54762 0.2469 0.0
H974 H 0.0361 0.57411 0.25232 0.0
H975 H 0.06852 0.58767 0.24533 0.0
H976 H 0.0689 0.56647 0.23758 0.0
C977 C 0.09255 0.52693 0.28086 0.0
C978 C 0.05766 0.50999 0.2896 0.0
C979 C 0.02845 0.50218 0.2124 0.0
C980 C 0.02639 0.51644 0.2059 0.0
C981 C 0.02944 0.53424 0.21254 0.0
C982 C 0.03521 0.53815 0.22536 0.0
C983 C 0.03816 0.52422 0.23163 0.0
C984 C 0.0344 0.5064 0.22521 0.0
C985 C 0.0385 0.49347 0.23342 0.0
C986 C 0.04578 0.5067 0.24574 0.0
C987 C 0.04563 0.52472 0.24459 0.0
C988 C 0.05524 0.49054 0.22818 0.0
C989 C 0.01848 0.4736 0.23407 0.0
C990 C 0.07054 0.58794 0.2744 0.0
C991 C 0.07993 0.59361 0.28666 0.0
C992 C 0.08264 0.57955 0.29303 0.0
C993 C 0.0765 0.56032 0.28721 0.0
C994 C 0.06765 0.55508 0.27484 0.0
C995 C 0.06457 0.5687 0.2687 0.0
C996 C 0.05524 0.56065 0.25554 0.0
C997 C 0.05313 0.53989 0.25481 0.0
C998 C 0.06055 0.53679 0.26611 0.0
C999 C 0.07027 0.57441 0.24673 0.0
C1000 C 0.03452 0.55938 0.25423 0.0
H1001 H 0.04252 0.46248 0.24586 0.0
H1002 H 0.07974 0.4856 0.28802 0.0
H1003 H 0.04364 0.49502 0.28862 0.0
H1004 H 0.05247 0.521 0.29081 0.0
H1005 H 0.06675 0.51099 0.29825 0.0
H1006 H 0.10054 0.52417 0.27345 0.0
H1007 H 0.09822 0.52437 0.28984 0.0
H1008 H 0.09729 0.54305 0.28104 0.0
H1009 H 0.0263 0.48841 0.20754 0.0
H1010 H 0.02758 0.54529 0.20778 0.0
H1011 H 0.03758 0.5521 0.22984 0.0
H1012 H 0.06725 0.50495 0.2253 0.0
H1013 H 0.04912 0.47919 0.2199 0.0
H1014 H 0.06293 0.48595 0.23502 0.0
H1015 H 0.0054 0.47601 0.23303 0.0
H1016 H 0.01761 0.46757 0.24317 0.0
H1017 H 0.01611 0.46191 0.22656 0.0
H1018 H 0.05174 0.44083 0.25608 0.0
C1019 C 0.05049 0.4679 0.25498 0.0
C1020 C 0.39968 0.48476 0.27096 0.0
C1021 C 0.38344 0.46766 0.26407 0.0
C1022 C 0.38544 0.46287 0.25163 0.0
C1023 C 0.41887 0.49221 0.25311 0.0
C1024 C 0.41698 0.49688 0.26528 0.0
C1025 C 0.43471 0.51647 0.27103 0.0
H1026 H 0.52177 0.60103 0.26399 0.0
C1027 C 0.4384 0.50836 0.24988 0.0
C1028 C 0.44766 0.5227 0.26033 0.0
H1029 H 0.48899 0.5865 0.2964 0.0
H1030 H 0.46507 0.55349 0.28614 0.0
H1031 H 0.51854 0.55808 0.25864 0.0
H1032 H 0.48395 0.58344 0.24405 0.0
H1033 H 0.48757 0.57056 0.23143 0.0
H1034 H 0.50908 0.59134 0.24047 0.0
H1035 H 0.5271 0.57531 0.24698 0.0
H1036 H 0.5114 0.54844 0.24293 0.0
C1037 C 0.44493 0.51206 0.28218 0.0
C1038 C 0.42713 0.53126 0.27444 0.0
C1039 C 0.46011 0.50504 0.20673 0.0
C1040 C 0.47724 0.51817 0.20107 0.0
C1041 C 0.49237 0.53597 0.20807 0.0
C1042 C 0.4905 0.54069 0.22041 0.0
C1043 C 0.47322 0.5276 0.22586 0.0
C1044 C 0.45845 0.51004 0.2191 0.0
C1045 C 0.44109 0.49808 0.22648 0.0
C1046 C 0.44806 0.5113 0.2388 0.0
C1047 C 0.46682 0.52861 0.23832 0.0
C1048 C 0.43952 0.47744 0.22782 0.0
C1049 C 0.42197 0.49672 0.21988 0.0
C1050 C 0.5094 0.59075 0.26886 0.0
C1051 C 0.50711 0.59646 0.28096 0.0
C1052 C 0.4911 0.58245 0.28709 0.0
C1053 C 0.47713 0.56335 0.28107 0.0
C1054 C 0.47914 0.55821 0.26877 0.0
C1055 C 0.49532 0.57167 0.26299 0.0
C1056 C 0.49523 0.56361 0.24998 0.0
C1057 C 0.47596 0.54334 0.24876 0.0
C1058 C 0.46655 0.54029 0.25976 0.0
C1059 C 0.51406 0.56132 0.24948 0.0
C1060 C 0.49403 0.57794 0.24093 0.0
H1061 H 0.40355 0.47057 0.23665 0.0
H1062 H 0.39898 0.48887 0.28057 0.0
H1063 H 0.41438 0.52861 0.2677 0.0
H1064 H 0.43858 0.5472 0.27403 0.0
H1065 H 0.4218 0.52939 0.28383 0.0
H1066 H 0.44484 0.49767 0.28004 0.0
H1067 H 0.43696 0.51066 0.29059 0.0
H1068 H 0.46094 0.52362 0.28443 0.0
H1069 H 0.44825 0.49118 0.20166 0.0
H1070 H 0.50554 0.54658 0.20393 0.0
H1071 H 0.50248 0.55454 0.22515 0.0
H1072 H 0.45471 0.47932 0.22985 0.0
H1073 H 0.43234 0.46715 0.21911 0.0
H1074 H 0.43109 0.46992 0.2356 0.0
H1075 H 0.4258 0.51024 0.21492 0.0
H1076 H 0.41143 0.49641 0.22646 0.0
H1077 H 0.41397 0.48328 0.21292 0.0
H1078 H 0.37318 0.45007 0.24596 0.0
C1079 C 0.40306 0.47495 0.24616 0.0
C1080 C 0.52753 0.02637 0.03567 0.0
Eu1081 Eu 0.5111 0.01324 0.01285 0.0
C1082 C 0.5216 0.0208 0.0481 0.0
C1083 C 0.53004 0.0356 0.05827 0.0
C1084 C 0.52434 0.03066 0.07014 0.0
C1085 C 0.51006 0.01078 0.07203 0.0
C1086 C 0.50155 0.99599 0.06175 0.0
C1087 C 0.50727 0.00096 0.04988 0.0
C1088 C 0.49724 0.03119 0.99763 0.0
C1089 C 0.46367 0.97888 0.0122 0.0
C1090 C 0.47202 0.973 0.96581 0.0
Eu1091 Eu 0.4879 0.98769 0.9886 0.0
C1092 C 0.47731 0.97926 0.95341 0.0
C1093 C 0.46924 0.9648 0.94306 0.0
C1094 C 0.47482 0.97035 0.93125 0.0
C1095 C 0.48862 0.99051 0.92963 0.0
C1096 C 0.49658 0.00501 0.94006 0.0
C1097 C 0.49099 0.99942 0.95186 0.0
C1098 C 0.50226 0.97041 0.00407 0.0
C1099 C 0.53495 0.02283 0.98913 0.0
O1100 O 0.53013 0.01359 0.02863 0.0
O1101 O 0.51779 0.03362 0.0296 0.0
O1102 O 0.51393 0.04091 0.00489 0.0
O1103 O 0.48787 0.01284 0.99946 0.0
O1104 O 0.4814 0.98943 0.01883 0.0
O1105 O 0.4618 0.97779 -6e-05 0.0
O1106 O 0.46701 0.9839 0.97282 0.0
O1107 O 0.48397 0.96827 0.97191 0.0
O1108 O 0.48488 0.96056 0.99754 0.0
O1109 O 0.51142 0.98849 0.00176 0.0
O1110 O 0.51715 0.0124 0.98256 0.0
O1111 O 0.53696 0.02344 0.00136 0.0
H1112 H 0.541 0.05102 0.05703 0.0
H1113 H 0.53095 0.04247 0.07782 0.0
H1114 H 0.49069 0.9805 0.0629 0.0
H1115 H 0.50057 0.98931 0.04212 0.0
H1116 H 0.4587 0.94916 0.94411 0.0
H1117 H 0.46822 0.95889 0.92339 0.0
H1118 H 0.5074 0.0206 0.93913 0.0
H1119 H 0.49749 0.01078 0.95978 0.0
C1120 C 0.99233 0.5187 0.03492 0.0
Eu1121 Eu 0.99312 0.50486 0.01254 0.0
C1122 C 0.9941 0.51441 0.04791 0.0
C1123 C 0.97683 0.50517 0.05422 0.0
C1124 C 0.97825 0.50182 0.06667 0.0
C1125 C 0.99703 0.50783 0.07315 0.0
C1126 C 0.01431 0.51689 0.06679 0.0
C1127 C 0.01287 0.52015 0.0543 0.0
C1128 C 0.96779 0.46688 0.00184 0.0
C1129 C 0.0234 0.48663 0.0123 0.0
C1130 C 0.0052 0.48049 0.9657 0.0
Eu1131 Eu 0.00436 0.49441 0.98803 0.0
C1132 C 0.00324 0.4845 0.95268 0.0
C1133 C 0.02017 0.49222 0.94601 0.0
C1134 C 0.01854 0.49524 0.93352 0.0
C1135 C -0.00011 0.49039 0.92739 0.0
C1136 C 0.98296 0.48288 0.93407 0.0
C1137 C 0.98462 0.48 0.94662 0.0
C1138 C 0.02963 0.53243 0.99879 0.0
C1139 C 0.97408 0.51258 0.98816 0.0
O1140 O 0.00854 0.52609 0.02907 0.0
O1141 O 0.97622 0.50535 0.02781 0.0
O1142 O 0.9619 0.4776 0.00802 0.0
O1143 O 0.98663 0.47604 0.00228 0.0
O1144 O 0.01774 0.49793 0.0186 0.0
O1145 O 0.01709 0.48033 0.00043 0.0
O1146 O 0.98904 0.47299 0.97158 0.0
O1147 O 0.02128 0.49408 0.97272 0.0
O1148 O 0.03558 0.52176 0.9926 0.0
O1149 O 0.01079 0.52319 0.99827 0.0
O1150 O 0.9799 0.50139 0.9819 0.0
O1151 O 0.98017 0.51877 7e-05 0.0
H1152 H 0.96217 0.50069 0.04955 0.0
H1153 H 0.96461 0.49455 0.07122 0.0
H1154 H 0.02904 0.52197 0.07154 0.0
H1155 H 0.02651 0.52744 0.04975 0.0
H1156 H 0.03465 0.49563 0.95043 0.0
H1157 H 0.03178 0.50079 0.92855 0.0
H1158 H 0.96842 0.47915 0.92959 0.0
H1159 H 0.97127 0.47404 0.95149 0.0
C1160 C 0.46847 0.47904 0.96559 0.0
Eu1161 Eu 0.48622 0.49422 0.98797 0.0
C1162 C 0.47422 0.48062 0.95287 0.0
C1163 C 0.49323 0.4957 0.95028 0.0
C1164 C 0.49852 0.49678 0.9381 0.0
C1165 C 0.48491 0.48273 0.92838 0.0
C1166 C 0.46588 0.4677 0.93108 0.0
C1167 C 0.4606 0.46668 0.94323 0.0
C1168 C 0.50108 0.53254 0.99806 0.0
C1169 C 0.53465 0.51077 0.98881 0.0
C1170 C 0.52878 0.51956 0.03541 0.0
Eu1171 Eu 0.51167 0.50523 0.01285 0.0
C1172 C 0.52228 0.51755 0.04804 0.0
C1173 C 0.53101 0.51093 0.05696 0.0
C1174 C 0.52505 0.50878 0.06896 0.0
C1175 C 0.51036 0.5134 0.0723 0.0
C1176 C 0.50158 0.51998 0.06336 0.0
C1177 C 0.50741 0.52195 0.05131 0.0
C1178 C 0.49678 0.46692 0.00267 0.0
C1179 C 0.46337 0.48874 0.01212 0.0
O1180 O 0.47537 0.47027 0.97275 0.0
O1181 O 0.46964 0.49515 0.97128 0.0
O1182 O 0.48346 0.52198 0.99186 0.0
O1183 O 0.51035 0.52295 0.998 0.0
O1184 O 0.51668 0.50024 0.98242 0.0
O1185 O 0.53682 0.51711 0.0007 0.0
O1186 O 0.52309 0.52916 0.02809 0.0
O1187 O 0.52759 0.50351 0.02963 0.0
O1188 O 0.51445 0.47749 0.0088 0.0
O1189 O 0.48754 0.47653 0.00283 0.0
O1190 O 0.48137 0.49949 0.01842 0.0
O1191 O 0.46114 0.48228 0.00024 0.0
H1192 H 0.50396 0.50654 0.95766 0.0
H1193 H 0.51335 0.50839 0.93632 0.0
H1194 H 0.45497 0.45684 0.92377 0.0
H1195 H 0.44587 0.45496 0.9451 0.0
H1196 H 0.54251 0.50746 0.05464 0.0
H1197 H 0.53223 0.50389 0.07571 0.0
H1198 H 0.4901 0.52348 0.06566 0.0
H1199 H 0.50027 0.52693 0.0446 0.0
C1200 C 0.19388 0.35942 0.3688 0.0
Eu1201 Eu 0.17745 0.34644 0.34598 0.0
C1202 C 0.1881 0.35354 0.38121 0.0
C1203 C 0.19659 0.36814 0.39149 0.0
C1204 C 0.19094 0.36293 0.40333 0.0
C1205 C 0.17666 0.34298 0.40508 0.0
C1206 C 0.16813 0.32838 0.3947 0.0
C1207 C 0.1738 0.33363 0.38286 0.0
C1208 C 0.16315 0.36395 0.33075 0.0
C1209 C 0.13006 0.31201 0.34539 0.0
C1210 C 0.13757 0.30647 0.29899 0.0
Eu1211 Eu 0.15412 0.32066 0.32169 0.0
C1212 C 0.14332 0.31136 0.28641 0.0
C1213 C 0.16289 0.31743 0.28347 0.0
C1214 C 0.1681 0.32226 0.27149 0.0
C1215 C 0.15386 0.32118 0.26226 0.0
C1216 C 0.13431 0.31518 0.26532 0.0
C1217 C 0.12911 0.3103 0.27727 0.0
C1218 C 0.16875 0.30362 0.33712 0.0
C1219 C 0.20139 0.3559 0.32216 0.0
O1220 O 0.19681 0.34698 0.36164 0.0
O1221 O 0.18379 0.36643 0.36286 0.0
O1222 O 0.17975 0.37392 0.33806 0.0
O1223 O 0.154 0.34564 0.33266 0.0
O1224 O 0.14779 0.32258 0.35201 0.0
O1225 O 0.12817 0.3109 0.33314 0.0
O1226 O 0.13502 0.31963 0.30564 0.0
O1227 O 0.1471 0.29935 0.30544 0.0
O1228 O 0.15139 0.29362 0.33056 0.0
O1229 O 0.17781 0.32174 0.33483 0.0
O1230 O 0.18386 0.34416 0.31549 0.0
O1231 O 0.2033 0.35781 0.33443 0.0
H1232 H 0.20752 0.38362 0.39034 0.0
H1233 H 0.19757 0.37459 0.41109 0.0
H1234 H 0.15727 0.31285 0.39575 0.0
H1235 H 0.16705 0.32214 0.37501 0.0
H1236 H 0.17414 0.31842 0.2904 0.0
H1237 H 0.18323 0.32663 0.26944 0.0
H1238 H 0.12307 0.31455 0.25852 0.0
H1239 H 0.11398 0.30581 0.27941 0.0
C1240 C 0.66086 0.85329 0.36831 0.0
Eu1241 Eu 0.66107 0.83906 0.34592 0.0
C1242 C 0.66287 0.84917 0.38133 0.0
C1243 C 0.64561 0.83769 0.38732 0.0
C1244 C 0.64729 0.83461 0.39981 0.0
C1245 C 0.66627 0.84308 0.40663 0.0
C1246 C 0.68355 0.85439 0.4006 0.0
C1247 C 0.68187 0.85744 0.38809 0.0
C1248 C 0.63589 0.80082 0.33557 0.0
C1249 C 0.69177 0.82132 0.3454 0.0
C1250 C 0.67219 0.81432 0.2989 0.0
Eu1251 Eu 0.67181 0.82842 0.32128 0.0
C1252 C 0.6699 0.81829 0.28591 0.0
C1253 C 0.68671 0.82631 0.27914 0.0
C1254 C 0.6848 0.82941 0.26669 0.0
C1255 C 0.66599 0.82433 0.2607 0.0
C1256 C 0.64917 0.81648 0.26749 0.0
C1257 C 0.65111 0.81353 0.27999 0.0
C1258 C 0.69696 0.86667 0.33173 0.0
C1259 C 0.64109 0.84604 0.32166 0.0
O1260 O 0.67694 0.86043 0.36235 0.0
O1261 O 0.64459 0.84 0.3613 0.0
O1262 O 0.62998 0.81144 0.34185 0.0
O1263 O 0.65469 0.81021 0.33577 0.0
O1264 O 0.68602 0.83249 0.35177 0.0
O1265 O 0.68522 0.81486 0.33358 0.0
O1266 O 0.65619 0.80681 0.30494 0.0
O1267 O 0.68839 0.82798 0.30581 0.0
O1268 O 0.70291 0.85606 0.32548 0.0
O1269 O 0.67814 0.85724 0.33142 0.0
O1270 O 0.6469 0.83488 0.31537 0.0
O1271 O 0.64749 0.8525 0.33351 0.0
H1272 H 0.63074 0.83125 0.38241 0.0
H1273 H 0.6337 0.82563 0.40413 0.0
H1274 H 0.69839 0.8614 0.40563 0.0
H1275 H 0.69546 0.86657 0.3838 0.0
H1276 H 0.70133 0.82993 0.28344 0.0
H1277 H 0.69796 0.83522 0.26164 0.0
H1278 H 0.63451 0.81256 0.26311 0.0
H1279 H 0.63784 0.80732 0.28495 0.0
C1280 C 0.13604 0.81191 0.29873 0.0
Eu1281 Eu 0.15357 0.8275 0.32111 0.0
C1282 C 0.14182 0.81361 0.28602 0.0
C1283 C 0.16073 0.82891 0.28343 0.0
C1284 C 0.16605 0.83012 0.27125 0.0
C1285 C 0.15256 0.81598 0.26152 0.0
C1286 C 0.13364 0.80073 0.26421 0.0
C1287 C 0.12833 0.79958 0.27636 0.0
C1288 C 0.16817 0.86592 0.331 0.0
C1289 C 0.20206 0.8449 0.32208 0.0
C1290 C 0.19653 0.85453 0.36854 0.0
Eu1291 Eu 0.17897 0.83907 0.34616 0.0
C1292 C 0.1911 0.85119 0.38127 0.0
C1293 C 0.17213 0.83565 0.38355 0.0
C1294 C 0.16723 0.83256 0.39576 0.0
C1295 C 0.18126 0.84494 0.40586 0.0
C1296 C 0.20021 0.86055 0.40346 0.0
C1297 C 0.20507 0.86362 0.39126 0.0
C1298 C 0.16427 0.80058 0.33632 0.0
C1299 C 0.13041 0.82168 0.34523 0.0
O1300 O 0.14336 0.80355 0.30595 0.0
O1301 O 0.13668 0.82779 0.30437 0.0
O1302 O 0.15068 0.85529 0.32465 0.0
O1303 O 0.17747 0.85637 0.33111 0.0
O1304 O 0.18415 0.83376 0.3157 0.0
O1305 O 0.20399 0.85158 0.33389 0.0
O1306 O 0.18741 0.86181 0.36185 0.0
O1307 O 0.19765 0.84003 0.36235 0.0
O1308 O 0.18168 0.81114 0.34275 0.0
O1309 O 0.15506 0.81022 0.33619 0.0
O1310 O 0.14834 0.83242 0.35165 0.0
O1311 O 0.12839 0.81546 0.33332 0.0
H1312 H 0.17136 0.83983 0.29082 0.0
H1313 H 0.18079 0.84191 0.26949 0.0
H1314 H 0.12282 0.78979 0.2569 0.0
H1315 H 0.11368 0.78769 0.27822 0.0
H1316 H 0.16119 0.82587 0.3759 0.0
H1317 H 0.15258 0.82032 0.39729 0.0
H1318 H 0.21123 0.87056 0.41101 0.0
H1319 H 0.21974 0.87574 0.38964 0.0
C1320 C 0.86154 0.69006 0.70292 0.0
Eu1321 Eu 0.84483 0.67828 0.6801 0.0
C1322 C 0.8551 0.68546 0.71539 0.0
C1323 C 0.86377 0.70081 0.72527 0.0
C1324 C 0.85782 0.69678 0.73719 0.0
C1325 C 0.84309 0.67728 0.73944 0.0
C1326 C 0.8343 0.66196 0.72946 0.0
C1327 C 0.84024 0.66603 0.71753 0.0
C1328 C 0.82935 0.69626 0.66619 0.0
C1329 C 0.79729 0.64343 0.67932 0.0
C1330 C 0.80486 0.64259 0.63258 0.0
Eu1331 Eu 0.8211 0.6543 0.65549 0.0
C1332 C 0.8112 0.6494 0.62041 0.0
C1333 C 0.80392 0.63536 0.60984 0.0
C1334 C 0.81004 0.64159 0.59823 0.0
C1335 C 0.82355 0.66199 0.59702 0.0
C1336 C 0.83093 0.67599 0.60767 0.0
C1337 C 0.82483 0.66975 0.61928 0.0
C1338 C 0.8366 0.63638 0.66946 0.0
C1339 C 0.86833 0.68945 0.65626 0.0
O1340 O 0.86178 0.67569 0.69595 0.0
O1341 O 0.8542 0.69948 0.69678 0.0
O1342 O 0.84679 0.70608 0.67268 0.0
O1343 O 0.82065 0.67785 0.6678 0.0
O1344 O 0.81503 0.65416 0.68596 0.0
O1345 O 0.79529 0.64282 0.66709 0.0
O1346 O 0.80196 0.65471 0.64006 0.0
O1347 O 0.81452 0.63492 0.63827 0.0
O1348 O 0.81911 0.62656 0.66301 0.0
O1349 O 0.8453 0.65475 0.66776 0.0
O1350 O 0.85045 0.67934 0.64975 0.0
O1351 O 0.87052 0.68924 0.66841 0.0
H1352 H 0.87514 0.71594 0.72376 0.0
H1353 H 0.86466 0.70899 0.74462 0.0
H1354 H 0.82309 0.64674 0.73088 0.0
H1355 H 0.83331 0.65396 0.71001 0.0
H1356 H 0.79344 0.61959 0.61057 0.0
H1357 H 0.80393 0.63049 0.59017 0.0
H1358 H 0.84154 0.69176 0.60706 0.0
H1359 H 0.83077 0.68081 0.62736 0.0
C1360 C 0.3249 0.18464 0.70159 0.0
Eu1361 Eu 0.32608 0.17109 0.67923 0.0
C1362 C 0.32661 0.18026 0.71457 0.0
C1363 C 0.30937 0.17142 0.72093 0.0
C1364 C 0.31072 0.16794 0.73335 0.0
C1365 C 0.32942 0.17344 0.73977 0.0
C1366 C 0.34666 0.1821 0.73335 0.0
C1367 C 0.34528 0.18548 0.72089 0.0
C1368 C 0.30101 0.13316 0.66837 0.0
C1369 C 0.35667 0.1532 0.67913 0.0
C1370 C 0.33877 0.14723 0.63244 0.0
Eu1371 Eu 0.3377 0.16094 0.65478 0.0
C1372 C 0.33653 0.15115 0.61942 0.0
C1373 C 0.35342 0.15936 0.61273 0.0
C1374 C 0.35156 0.16236 0.60025 0.0
C1375 C 0.33271 0.15698 0.59416 0.0
C1376 C 0.31582 0.14895 0.60088 0.0
C1377 C 0.3177 0.1461 0.61341 0.0
C1378 C 0.36276 0.19892 0.66566 0.0
C1379 C 0.30724 0.1789 0.65483 0.0
O1380 O 0.34118 0.19225 0.69582 0.0
O1381 O 0.30891 0.17123 0.69442 0.0
O1382 O 0.29494 0.14378 0.67448 0.0
O1383 O 0.31986 0.1424 0.66893 0.0
O1384 O 0.35066 0.16421 0.68541 0.0
O1385 O 0.35068 0.1471 0.66721 0.0
O1386 O 0.32266 0.13936 0.63837 0.0
O1387 O 0.35473 0.1611 0.63943 0.0
O1388 O 0.36883 0.18834 0.6595 0.0
O1389 O 0.34391 0.18962 0.66507 0.0
O1390 O 0.31307 0.16769 0.64861 0.0
O1391 O 0.31331 0.18513 0.66673 0.0
H1392 H 0.29479 0.16733 0.71631 0.0
H1393 H 0.2971 0.16097 0.73794 0.0
H1394 H 0.36134 0.18679 0.73805 0.0
H1395 H 0.35889 0.19243 0.71628 0.0
H1396 H 0.36806 0.1632 0.61711 0.0
H1397 H 0.36479 0.16832 0.59526 0.0
H1398 H 0.30114 0.14481 0.59643 0.0
H1399 H 0.30438 0.13974 0.6183 0.0
C1400 C 0.80173 0.14492 0.63204 0.0
Eu1401 Eu 0.81936 0.16025 0.65443 0.0
C1402 C 0.80754 0.14657 0.61934 0.0
C1403 C 0.82645 0.16186 0.61675 0.0
C1404 C 0.83181 0.16301 0.60459 0.0
C1405 C 0.81837 0.14881 0.59487 0.0
C1406 C 0.79943 0.13357 0.59756 0.0
C1407 C 0.79409 0.13247 0.60969 0.0
C1408 C 0.8341 0.19858 0.66448 0.0
C1409 C 0.86784 0.17722 0.65533 0.0
C1410 C 0.86174 0.18552 0.70193 0.0
Eu1411 Eu 0.84467 0.17125 0.67935 0.0
C1412 C 0.85544 0.18309 0.71461 0.0
C1413 C 0.86467 0.17669 0.72334 0.0
C1414 C 0.85901 0.17428 0.73541 0.0
C1415 C 0.84413 0.17844 0.73901 0.0
C1416 C 0.83483 0.18478 0.73025 0.0
C1417 C 0.84036 0.187 0.71814 0.0
C1418 C 0.82973 0.13287 0.66921 0.0
C1419 C 0.79636 0.15481 0.67852 0.0
O1420 O 0.80878 0.1363 0.63923 0.0
O1421 O 0.80268 0.16093 0.63771 0.0
O1422 O 0.81658 0.18803 0.65817 0.0
O1423 O 0.84339 0.18899 0.6645 0.0
O1424 O 0.84991 0.16653 0.64892 0.0
O1425 O 0.86987 0.18346 0.66723 0.0
O1426 O 0.85543 0.19482 0.69477 0.0
O1427 O 0.86112 0.16986 0.696 0.0
O1428 O 0.84736 0.14344 0.67538 0.0
O1429 O 0.82053 0.14254 0.66933 0.0
O1430 O 0.81433 0.16544 0.68487 0.0
O1431 O 0.79418 0.14842 0.66664 0.0
H1432 H 0.83706 0.17282 0.62414 0.0
H1433 H 0.84656 0.1748 0.60282 0.0
H1434 H 0.78865 0.12258 0.59025 0.0
H1435 H 0.77943 0.12059 0.61155 0.0
H1436 H 0.87635 0.17361 0.72083 0.0
H1437 H 0.86659 0.16959 0.74201 0.0
H1438 H 0.82319 0.18791 0.73275 0.0
H1439 H 0.83285 0.19182 0.71158 0.0
C1440 C 0.31251 0.86992 0.06049 0.0
C1441 C 0.30254 0.87895 0.06605 0.0
C1442 C 0.33048 0.8816 0.05537 0.0
C1443 C 0.35898 0.92908 0.04184 0.0
H1444 H 0.40365 0.9197 0.04767 0.0
C1445 C 0.42622 0.95944 0.0123 0.0
C1446 C 0.4455 0.96807 0.01875 0.0
C1447 C 0.40908 0.94942 0.01854 0.0
C1448 C 0.39135 0.92258 0.04602 0.0
H1449 H 0.30353 0.90727 0.07064 0.0
H1450 H 0.33501 0.92777 0.06158 0.0
H1451 H 0.37332 0.90084 0.05804 0.0
H1452 H 0.46185 0.97287 0.03683 0.0
H1453 H 0.43192 0.95522 0.04766 0.0
H1454 H 0.37696 0.9507 0.02974 0.0
C1455 C 0.32886 0.91163 0.06121 0.0
C1456 C 0.37395 0.91169 0.05188 0.0
C1457 C 0.31097 0.89995 0.06647 0.0
C1458 C 0.44724 0.9664 0.03157 0.0
C1459 C 0.4301 0.95621 0.03777 0.0
C1460 C 0.37631 0.93983 0.03589 0.0
C1461 C 0.33878 0.90255 0.0556 0.0
C1462 C 0.35755 0.91475 0.0498 0.0
C1463 C 0.41084 0.94764 0.03133 0.0
C1464 C 0.39264 0.93663 0.03788 0.0
H1465 H 0.30645 0.85379 0.06014 0.0
H1466 H 0.33769 0.87417 0.05101 0.0
H1467 H 0.34651 0.93164 0.04 0.0
H1468 H 0.42433 0.96049 0.00244 0.0
H1469 H 0.39442 0.94277 0.01331 0.0
C1470 C 0.15422 0.45515 0.05482 0.0
C1471 C 0.14792 0.43698 0.06014 0.0
C1472 C 0.14018 0.46027 0.05028 0.0
C1473 C 0.08666 0.4381 0.03907 0.0
H1474 H 0.09794 0.49319 0.04491 0.0
C1475 C 0.04151 0.46726 0.01214 0.0
C1476 C 0.03661 0.48034 0.01864 0.0
C1477 C 0.05435 0.4616 0.01787 0.0
C1478 C 0.09448 0.4777 0.04332 0.0
H1479 H 0.12192 0.40977 0.06466 0.0
H1480 H 0.09744 0.41881 0.05687 0.0
H1481 H 0.12188 0.48406 0.05368 0.0
H1482 H 0.04124 0.49761 0.03635 0.0
H1483 H 0.0637 0.4876 0.04642 0.0
H1484 H 0.05923 0.43169 0.02877 0.0
C1485 C 0.11323 0.42906 0.05616 0.0
C1486 C 0.1083 0.47253 0.04821 0.0
C1487 C 0.12727 0.42396 0.06072 0.0
C1488 C 0.04473 0.48752 0.03108 0.0
C1489 C 0.05767 0.48188 0.03682 0.0
C1490 C 0.07289 0.44327 0.03416 0.0
C1491 C 0.11953 0.4473 0.05093 0.0
C1492 C 0.10461 0.4527 0.04605 0.0
C1493 C 0.06263 0.46888 0.03026 0.0
C1494 C 0.07672 0.46317 0.03613 0.0
H1495 H 0.17003 0.4656 0.05436 0.0
H1496 H 0.14549 0.47431 0.04617 0.0
H1497 H 0.08344 0.42273 0.03716 0.0
H1498 H 0.03557 0.46146 0.00254 0.0
H1499 H 0.0581 0.4518 0.0125 0.0
C1500 C 0.58085 0.71326 0.03168 0.0
C1501 C 0.57891 0.71776 0.04412 0.0
C1502 C 0.57272 0.69326 0.02666 0.0
C1503 C 0.53391 0.6416 0.03105 0.0
H1504 H 0.56396 0.62583 0.01019 0.0
C1505 C 0.49836 0.5631 0.00326 0.0
C1506 C 0.5099 0.55363 0.00338 0.0
C1507 C 0.50682 0.58318 0.00822 0.0
C1508 C 0.55543 0.62999 0.01605 0.0
H1509 H 0.56682 0.70481 0.061 0.0
H1510 H 0.55287 0.66995 0.05228 0.0
H1511 H 0.57898 0.66088 0.01899 0.0
H1512 H 0.53926 0.55756 0.00878 0.0
H1513 H 0.55404 0.59261 0.01749 0.0
H1514 H 0.51046 0.61069 0.02823 0.0
C1515 C 0.56057 0.68187 0.04639 0.0
C1516 C 0.56395 0.65009 0.02099 0.0
C1517 C 0.56876 0.70184 0.05143 0.0
C1518 C 0.53003 0.56453 0.00856 0.0
C1519 C 0.53852 0.58462 0.01347 0.0
C1520 C 0.52535 0.62154 0.02606 0.0
C1521 C 0.56237 0.67735 0.03394 0.0
C1522 C 0.5533 0.65608 0.02857 0.0
C1523 C 0.52701 0.59416 0.01334 0.0
C1524 C 0.53604 0.61551 0.01854 0.0
H1525 H 0.58871 0.72522 0.02585 0.0
H1526 H 0.57423 0.69023 0.01701 0.0
H1527 H 0.52525 0.6458 0.03676 0.0
H1528 H 0.48279 0.55501 0.99931 0.0
H1529 H 0.49763 0.59019 0.00788 0.0
C1530 C 0.85686 0.30078 0.94497 0.0
C1531 C 0.85097 0.28432 0.95201 0.0
C1532 C 0.86951 0.32044 0.9505 0.0
C1533 C 0.88564 0.36026 0.9665 0.0
H1534 H 0.93294 0.37312 0.98849 0.0
C1535 C 0.93354 0.43719 0.99589 0.0
C1536 C 0.95447 0.44605 0.99615 0.0
C1537 C 0.92088 0.41739 0.99056 0.0
C1538 C 0.91983 0.36976 0.98232 0.0
H1539 H 0.85391 0.27552 0.9703 0.0
H1540 H 0.87606 0.30998 0.97999 0.0
H1541 H 0.91093 0.33854 0.97903 0.0
H1542 H 0.97867 0.44132 0.99103 0.0
H1543 H 0.95655 0.40666 0.98172 0.0
H1544 H 0.8946 0.39148 0.9697 0.0
C1545 C 0.8709 0.30762 0.97019 0.0
C1546 C 0.90714 0.34995 0.97701 0.0
C1547 C 0.8581 0.28793 0.96468 0.0
C1548 C 0.96256 0.4348 0.99098 0.0
C1549 C 0.94992 0.41495 0.98572 0.0
C1550 C 0.89824 0.38003 0.97188 0.0
C1551 C 0.87665 0.32408 0.96316 0.0
C1552 C 0.88996 0.34501 0.969 0.0
C1553 C 0.92894 0.40604 0.98545 0.0
C1554 C 0.9155 0.385 0.97982 0.0
H1555 H 0.85145 0.29848 0.93522 0.0
H1556 H 0.87384 0.3328 0.94482 0.0
H1557 H 0.87241 0.35687 0.96045 0.0
H1558 H 0.92693 0.44556 -0.00019 0.0
H1559 H 0.90479 0.41086 0.99058 0.0
C1560 C 0.68881 0.57069 0.93706 0.0
C1561 C 0.69742 0.55833 0.93756 0.0
C1562 C 0.67057 0.56502 0.94193 0.0
C1563 C 0.6388 0.53335 0.9647 0.0
H1564 H 0.59764 0.54124 0.9481 0.0
C1565 C 0.55139 0.51088 0.9696 0.0
C1566 C 0.55285 0.51613 0.98244 0.0
C1567 C 0.56869 0.51587 0.96369 0.0
C1568 C 0.60894 0.53882 0.95279 0.0
H1569 H 0.6932 0.52995 0.94313 0.0
H1570 H 0.66148 0.52016 0.95168 0.0
H1571 H 0.62829 0.54986 0.9383 0.0
H1572 H 0.57367 0.5309 0.9991 0.0
H1573 H 0.60368 0.53962 0.9888 0.0
H1574 H 0.61948 0.52218 0.97913 0.0
C1575 C 0.669 0.53439 0.94771 0.0
C1576 C 0.62656 0.54394 0.94725 0.0
C1577 C 0.6872 0.54002 0.94283 0.0
C1578 C 0.57196 0.52655 0.98921 0.0
C1579 C 0.58919 0.53146 0.98332 0.0
C1580 C 0.62126 0.52832 0.97026 0.0
C1581 C 0.66056 0.5469 0.94742 0.0
C1582 C 0.6417 0.54128 0.95316 0.0
C1583 C 0.58776 0.52611 0.97052 0.0
C1584 C 0.60616 0.53107 0.9644 0.0
H1585 H 0.69642 0.58498 0.93317 0.0
H1586 H 0.66456 0.57509 0.94169 0.0
H1587 H 0.65026 0.53132 0.96956 0.0
H1588 H 0.53691 0.50285 0.9641 0.0
H1589 H 0.5671 0.51141 0.95382 0.0
C1590 C 0.4103 0.11645 0.95855 0.0
C1591 C 0.40799 0.11603 0.94552 0.0
C1592 C 0.41928 0.10655 0.9641 0.0
C1593 C 0.42888 0.0655 0.96031 0.0
H1594 H 0.47849 0.09931 0.9816 0.0
C1595 C 0.47727 0.03336 0.97949 0.0
C1596 C 0.48772 0.04116 0.99134 0.0
C1597 C 0.46763 0.04245 0.97368 0.0
C1598 C 0.46448 0.08952 0.97589 0.0
H1599 H 0.41288 0.10418 0.92815 0.0
H1600 H 0.4276 0.08609 0.93793 0.0
H1601 H 0.46017 0.11429 0.97226 0.0
H1602 H 0.49645 0.06444 0.00653 0.0
H1603 H 0.47882 0.07979 0.99678 0.0
H1604 H 0.43251 0.04056 0.96425 0.0
C1605 C 0.42264 0.09438 0.94376 0.0
C1606 C 0.45409 0.09817 0.97048 0.0
C1607 C 0.41406 0.10464 0.93819 0.0
C1608 C 0.48856 0.05827 0.99732 0.0
C1609 C 0.47853 0.06711 0.99167 0.0
C1610 C 0.439 0.05672 0.96593 0.0
C1611 C 0.42567 0.09562 0.95674 0.0
C1612 C 0.43628 0.08625 0.96262 0.0
C1613 C 0.46789 0.05931 0.97976 0.0
C1614 C 0.45702 0.06863 0.97376 0.0
H1615 H 0.40536 0.12458 0.96452 0.0
H1616 H 0.42131 0.10749 0.97415 0.0
H1617 H 0.41508 0.05603 0.9543 0.0
H1618 H 0.47686 0.02046 0.97462 0.0
H1619 H 0.46014 0.0363 0.96439 0.0
C1620 C 0.67891 0.10961 0.92829 0.0
C1621 C 0.69755 0.11915 0.93562 0.0
C1622 C 0.66102 0.09868 0.9337 0.0
C1623 C 0.64025 0.09469 0.96379 0.0
H1624 H 0.59679 0.04325 0.94825 0.0
C1625 C 0.57227 0.0442 0.98941 0.0
C1626 C 0.55316 0.03399 0.98265 0.0
C1627 C 0.58953 0.0545 0.98336 0.0
C1628 C 0.60868 0.05773 0.95263 0.0
H1629 H 0.71202 0.12393 0.9543 0.0
H1630 H 0.68084 0.10495 0.96373 0.0
H1631 H 0.62767 0.06101 0.93823 0.0
H1632 H 0.53722 0.02667 0.96417 0.0
H1633 H 0.5674 0.04492 0.95363 0.0
H1634 H 0.62135 0.09154 0.97814 0.0
C1635 C 0.68004 0.10623 0.95384 0.0
C1636 C 0.62638 0.06787 0.94689 0.0
C1637 C 0.6979 0.1171 0.94843 0.0
C1638 C 0.55171 0.03436 0.96967 0.0
C1639 C 0.56902 0.04472 0.96361 0.0
C1640 C 0.62257 0.0846 0.96949 0.0
C1641 C 0.66139 0.0971 0.94657 0.0
C1642 C 0.64241 0.08639 0.95247 0.0
C1643 C 0.58814 0.05492 0.97039 0.0
C1644 C 0.60663 0.06592 0.96404 0.0
H1645 H 0.67809 0.1111 0.91843 0.0
H1646 H 0.64687 0.09197 0.92788 0.0
H1647 H 0.65217 0.10912 0.9682 0.0
H1648 H 0.57398 0.04415 0.9994 0.0
H1649 H 0.60403 0.06191 0.98885 0.0
C1650 C 0.86561 0.57358 0.94553 0.0
C1651 C 0.86108 0.57009 0.93255 0.0
C1652 C 0.87809 0.56758 0.95142 0.0
C1653 C 0.91623 0.55301 0.94554 0.0
H1654 H 0.90241 0.52935 0.97664 0.0
C1655 C 0.95607 0.51451 0.96868 0.0
C1656 C 0.96121 0.51906 0.9816 0.0
C1657 C 0.94394 0.52075 0.96255 0.0
C1658 C 0.90656 0.5361 0.96802 0.0
H1659 H 0.86596 0.55743 0.91557 0.0
H1660 H 0.88761 0.5468 0.92586 0.0
H1661 H 0.88123 0.5404 0.96624 0.0
H1662 H 0.9576 0.53371 0.99823 0.0
H1663 H 0.93652 0.54457 0.98753 0.0
H1664 H 0.9415 0.54853 0.94731 0.0
C1665 C 0.88183 0.55451 0.93147 0.0
C1666 C 0.89446 0.54247 0.96207 0.0
C1667 C 0.86941 0.56059 0.92558 0.0
C1668 C 0.95392 0.52993 0.98826 0.0
C1669 C 0.94174 0.53606 0.98215 0.0
C1670 C 0.9283 0.54656 0.95147 0.0
C1671 C 0.88626 0.55787 0.94448 0.0
C1672 C 0.89917 0.55107 0.95078 0.0
C1673 C 0.93661 0.53154 0.96923 0.0
C1674 C 0.92363 0.53809 0.9628 0.0
H1675 H 0.85963 0.58112 0.95113 0.0
H1676 H 0.88148 0.57072 0.96143 0.0
H1677 H 0.92045 0.55983 0.93694 0.0
H1678 H 0.96141 0.50615 0.96327 0.0
H1679 H 0.94008 0.51689 0.9526 0.0
C1680 C 0.43948 0.29169 0.9653 0.0
C1681 C 0.4203 0.2809 0.95866 0.0
C1682 C 0.44712 0.31158 0.97035 0.0
C1683 C 0.44119 0.35587 0.96706 0.0
H1684 H 0.4726 0.37506 0.9993 0.0
C1685 C 0.46797 0.4351 0.99184 0.0
C1686 C 0.48782 0.44572 0.99753 0.0
C1687 C 0.45935 0.41489 0.98715 0.0
C1688 C 0.46401 0.36996 0.99023 0.0
H1689 H 0.39387 0.28233 0.95234 0.0
H1690 H 0.40713 0.31705 0.96125 0.0
H1691 H 0.45783 0.33975 0.99128 0.0
H1692 H 0.51429 0.44372 0.00272 0.0
H1693 H 0.49926 0.40839 0.99451 0.0
H1694 H 0.44736 0.38612 0.96605 0.0
C1695 C 0.41642 0.31024 0.96237 0.0
C1696 C 0.45555 0.34974 0.98564 0.0
C1697 C 0.40881 0.29035 0.95729 0.0
C1698 C 0.49893 0.43584 0.99841 0.0
C1699 C 0.49029 0.41561 0.99377 0.0
C1700 C 0.44959 0.37609 0.97168 0.0
C1701 C 0.43572 0.32113 0.96889 0.0
C1702 C 0.44414 0.34248 0.97397 0.0
C1703 C 0.4704 0.4049 0.98811 0.0
C1704 C 0.46119 0.38337 0.98329 0.0
H1705 H 0.44884 0.28494 0.96633 0.0
H1706 H 0.46216 0.31962 0.97513 0.0
H1707 H 0.43274 0.35085 0.95796 0.0
H1708 H 0.45904 0.44235 0.9911 0.0
H1709 H 0.44393 0.40699 0.98295 0.0
C1710 C 0.12522 0.70839 0.04525 0.0
C1711 C 0.14608 0.71743 0.04473 0.0
C1712 C 0.11225 0.68872 0.03981 0.0
C1713 C 0.10896 0.64914 0.01696 0.0
H1714 H 0.06634 0.61296 0.0357 0.0
C1715 C 0.06356 0.56318 0.00337 0.0
C1716 C 0.04275 0.55352 0.00411 0.0
C1717 C 0.07594 0.58332 0.00817 0.0
C1718 C 0.07802 0.62293 0.03028 0.0
H1719 H 0.16963 0.71289 0.03804 0.0
H1720 H 0.14701 0.67861 0.02853 0.0
H1721 H 0.08817 0.64808 0.04402 0.0
H1722 H 0.01853 0.55714 0.0105 0.0
H1723 H 0.04012 0.59237 0.01882 0.0
H1724 H 0.09886 0.62393 0.00325 0.0
C1725 C 0.14065 0.68683 0.03299 0.0
C1726 C 0.09052 0.64306 0.03504 0.0
C1727 C 0.15362 0.70649 0.03843 0.0
C1728 C 0.03455 0.56425 0.00983 0.0
C1729 C 0.04692 0.58438 0.01464 0.0
C1730 C 0.09646 0.62899 0.0122 0.0
C1731 C 0.11983 0.67764 0.03373 0.0
C1732 C 0.10618 0.65639 0.02846 0.0
C1733 C 0.06776 0.59418 0.01382 0.0
C1734 C 0.0809 0.61564 0.01883 0.0
H1735 H 0.11892 0.71652 0.04988 0.0
H1736 H 0.09625 0.68219 0.04035 0.0
H1737 H 0.1207 0.65908 0.01157 0.0
H1738 H 0.07026 0.5552 0.99905 0.0
H1739 H 0.09196 0.59035 0.00756 0.0
C1740 C 0.30279 0.42667 0.05658 0.0
C1741 C 0.30425 0.43148 0.06947 0.0
C1742 C 0.32008 0.4326 0.05053 0.0
C1743 C 0.3743 0.44972 0.05595 0.0
H1744 H 0.37628 0.47062 0.02405 0.0
C1745 C 0.44713 0.48805 0.03162 0.0
C1746 C 0.44529 0.48282 0.01874 0.0
C1747 C 0.43004 0.48192 0.03791 0.0
C1748 C 0.37589 0.46464 0.03289 0.0
H1749 H 0.32502 0.44622 0.08611 0.0
H1750 H 0.35522 0.45665 0.07554 0.0
H1751 H 0.34624 0.45926 0.03485 0.0
H1752 H 0.42399 0.46718 0.00238 0.0
H1753 H 0.39424 0.45646 0.01337 0.0
H1754 H 0.40401 0.45519 0.05398 0.0
C1755 C 0.34069 0.44804 0.07014 0.0
C1756 C 0.35866 0.4581 0.03908 0.0
C1757 C 0.32338 0.44206 0.0762 0.0
C1758 C 0.42598 0.47151 0.01229 0.0
C1759 C 0.4089 0.46544 0.01858 0.0
C1760 C 0.39156 0.4563 0.04977 0.0
C1761 C 0.33924 0.44353 0.05721 0.0
C1762 C 0.35762 0.4505 0.05067 0.0
C1763 C 0.41072 0.47051 0.03147 0.0
C1764 C 0.39252 0.46379 0.03815 0.0
H1765 H 0.28825 0.41824 0.05117 0.0
H1766 H 0.31841 0.42854 0.0406 0.0
H1767 H 0.37389 0.44371 0.06479 0.0
H1768 H 0.46178 0.49676 0.03688 0.0
H1769 H 0.43195 0.48627 0.04781 0.0
C1770 C 0.59737 0.90122 0.05558 0.0
C1771 C 0.58638 0.88012 0.05527 0.0
C1772 C 0.58863 0.91157 0.0503 0.0
C1773 C 0.54672 0.90373 0.02777 0.0
H1774 H 0.55555 0.9539 0.04455 0.0
C1775 C 0.50072 0.94009 0.01219 0.0
C1776 C 0.51159 0.96086 0.01111 0.0
C1777 C 0.50995 0.9307 0.01807 0.0
C1778 C 0.55309 0.93998 0.03972 0.0
H1779 H 0.55751 0.85336 0.04946 0.0
H1780 H 0.54227 0.87135 0.04034 0.0
H1781 H 0.57184 0.93668 0.05365 0.0
H1782 H 0.54042 0.98823 0.01557 0.0
H1783 H 0.55657 0.97181 0.02594 0.0
H1784 H 0.52787 0.90693 0.0139 0.0
C1785 C 0.55776 0.87991 0.0444 0.0
C1786 C 0.56245 0.93015 0.0449 0.0
C1787 C 0.5665 0.86959 0.04963 0.0
C1788 C 0.53168 0.97219 0.01634 0.0
C1789 C 0.5409 0.96281 0.02228 0.0
C1790 C 0.53731 0.91349 0.02263 0.0
C1791 C 0.56872 0.90101 0.04464 0.0
C1792 C 0.55929 0.91185 0.03901 0.0
C1793 C 0.53021 0.94191 0.02303 0.0
C1794 C 0.54031 0.93167 0.02857 0.0
H1795 H 0.61278 0.90971 0.05978 0.0
H1796 H 0.59756 0.92781 0.0505 0.0
H1797 H 0.54428 0.88987 0.02287 0.0
H1798 H 0.48517 0.93103 0.00829 0.0
H1799 H 0.50126 0.91461 0.01868 0.0
C1800 C 0.98656 0.22428 0.40645 0.0
C1801 C 0.96792 0.21532 0.39916 0.0
C1802 C 0.00443 0.23602 0.4012 0.0
C1803 C 0.02445 0.26359 0.37371 0.0
H1804 H 0.06985 0.25651 0.38261 0.0
C1805 C 0.09262 0.2918 0.34529 0.0
C1806 C 0.11182 0.30138 0.35193 0.0
C1807 C 0.07539 0.28214 0.35147 0.0
C1808 C 0.05738 0.25882 0.38014 0.0
H1809 H 0.95344 0.21228 0.38072 0.0
H1810 H 0.98455 0.23224 0.3715 0.0
H1811 H 0.03919 0.23851 0.39273 0.0
H1812 H 0.12793 0.30817 0.37032 0.0
H1813 H 0.09781 0.29123 0.38108 0.0
H1814 H 0.04257 0.28363 0.36095 0.0
C1815 C 0.9854 0.2304 0.38131 0.0
C1816 C 0.03982 0.24855 0.38595 0.0
C1817 C 0.96755 0.21873 0.38657 0.0
C1818 C 0.11339 0.30093 0.3649 0.0
C1819 C 0.09614 0.29115 0.37107 0.0
C1820 C 0.04198 0.27378 0.36786 0.0
C1821 C 0.00407 0.23905 0.38853 0.0
C1822 C 0.02308 0.2507 0.38275 0.0
C1823 C 0.07695 0.28173 0.36443 0.0
C1824 C 0.05858 0.2714 0.37094 0.0
H1825 H 0.98742 0.22182 0.41615 0.0
H1826 H 0.01853 0.24267 0.40706 0.0
H1827 H 0.01199 0.26589 0.37118 0.0
H1828 H 0.09085 0.29184 0.33529 0.0
H1829 H 0.06082 0.27478 0.34607 0.0
C1830 C 0.8107 0.78337 0.40121 0.0
C1831 C 0.81692 0.77256 0.39351 0.0
C1832 C 0.79679 0.78851 0.39647 0.0
C1833 C 0.75691 0.77406 0.37095 0.0
H1834 H 0.76529 0.82762 0.37939 0.0
C1835 C 0.71145 0.80357 0.3448 0.0
C1836 C 0.70532 0.81533 0.35162 0.0
C1837 C 0.72448 0.79807 0.35045 0.0
C1838 C 0.76258 0.81251 0.37709 0.0
H1839 H 0.81342 0.75866 0.37483 0.0
H1840 H 0.78929 0.76786 0.3665 0.0
H1841 H 0.78942 0.81871 0.38809 0.0
H1842 H 0.70799 0.83046 0.3698 0.0
H1843 H 0.73069 0.82065 0.37973 0.0
H1844 H 0.73013 0.76783 0.35993 0.0
C1845 C 0.79505 0.77219 0.37623 0.0
C1846 C 0.77642 0.80742 0.38205 0.0
C1847 C 0.80902 0.76711 0.38096 0.0
C1848 C 0.71246 0.82141 0.36428 0.0
C1849 C 0.72554 0.81588 0.36995 0.0
C1850 C 0.74306 0.77912 0.36601 0.0
C1851 C 0.78876 0.78291 0.38395 0.0
C1852 C 0.77382 0.78819 0.37894 0.0
C1853 C 0.73169 0.80415 0.36309 0.0
C1854 C 0.74584 0.79847 0.36892 0.0
H1855 H 0.81669 0.78798 0.41089 0.0
H1856 H 0.79213 0.79665 0.40267 0.0
H1857 H 0.7543 0.759 0.36857 0.0
H1858 H 0.70634 0.79868 0.33502 0.0
H1859 H 0.72919 0.78933 0.34484 0.0
C1860 C 0.24598 0.04659 0.36469 0.0
C1861 C 0.2449 0.05096 0.37731 0.0
C1862 C 0.23807 0.02665 0.35958 0.0
C1863 C 0.2229 0.97564 0.36819 0.0
H1864 H 0.19185 0.95804 0.33584 0.0
C1865 C 0.16582 0.89692 0.33534 0.0
C1866 C 0.17691 0.88702 0.33629 0.0
C1867 C 0.17429 0.91702 0.34028 0.0
C1868 C 0.20037 0.9627 0.34491 0.0
H1869 H 0.2344 0.03779 0.39442 0.0
H1870 H 0.22072 0.00309 0.38554 0.0
H1871 H 0.20642 0.99302 0.34462 0.0
H1872 H 0.20547 0.89022 0.3431 0.0
H1873 H 0.22028 0.9253 0.35167 0.0
H1874 H 0.21657 0.94526 0.3686 0.0
C1875 C 0.22795 0.01507 0.37963 0.0
C1876 C 0.20892 0.98279 0.34988 0.0
C1877 C 0.23583 0.03497 0.38472 0.0
C1878 C 0.19656 0.89749 0.34228 0.0
C1879 C 0.205 0.91754 0.34724 0.0
C1880 C 0.21441 0.95559 0.36322 0.0
C1881 C 0.22893 0.01068 0.367 0.0
C1882 C 0.22022 0.98946 0.36159 0.0
C1883 C 0.19398 0.92754 0.34628 0.0
C1884 C 0.20301 0.94888 0.35154 0.0
H1885 H 0.25309 0.05859 0.35877 0.0
H1886 H 0.23929 0.02376 0.34986 0.0
H1887 H 0.23169 0.98036 0.37718 0.0
H1888 H 0.15061 0.88914 0.33079 0.0
H1889 H 0.16533 0.92424 0.33952 0.0
C1890 C 0.52595 0.63376 0.27994 0.0
C1891 C 0.52079 0.61728 0.28687 0.0
C1892 C 0.53839 0.65344 0.28547 0.0
C1893 C 0.57664 0.68349 0.3116 0.0
H1894 H 0.56231 0.724 0.30488 0.0
C1895 C 0.6309 0.76877 0.32483 0.0
C1896 C 0.6227 0.7798 0.33016 0.0
C1897 C 0.6184 0.74876 0.31982 0.0
C1898 C 0.56645 0.71283 0.30691 0.0
H1899 H 0.52482 0.6085 0.30498 0.0
H1900 H 0.54661 0.64304 0.31469 0.0
H1901 H 0.54049 0.68923 0.29581 0.0
H1902 H 0.5951 0.77875 0.33438 0.0
H1903 H 0.57321 0.74376 0.32558 0.0
H1904 H 0.60258 0.70713 0.32274 0.0
C1905 C 0.54104 0.64065 0.30496 0.0
C1906 C 0.55406 0.69297 0.30162 0.0
C1907 C 0.52845 0.62092 0.29944 0.0
C1908 C 0.60179 0.77055 0.33032 0.0
C1909 C 0.58928 0.75058 0.32524 0.0
C1910 C 0.58911 0.7034 0.31682 0.0
C1911 C 0.54602 0.65712 0.29804 0.0
C1912 C 0.55904 0.6781 0.30388 0.0
C1913 C 0.59745 0.73946 0.31996 0.0
C1914 C 0.58416 0.71828 0.31452 0.0
H1915 H 0.52009 0.63146 0.27027 0.0
H1916 H 0.54213 0.66581 0.27987 0.0
H1917 H 0.58093 0.67238 0.31343 0.0
H1918 H 0.64698 0.77558 0.32456 0.0
H1919 H 0.62511 0.74066 0.31567 0.0
C1920 C 0.36598 0.90245 0.28427 0.0
C1921 C 0.36634 0.89768 0.27159 0.0
C1922 C 0.34784 0.89741 0.28907 0.0
C1923 C 0.29341 0.86241 0.28309 0.0
H1924 H 0.29037 0.89977 0.30734 0.0
C1925 C 0.21908 0.84571 0.30289 0.0
C1926 C 0.22039 0.85096 0.31572 0.0
C1927 C 0.23651 0.85179 0.29693 0.0
C1928 C 0.29102 0.88909 0.30066 0.0
H1929 H 0.34795 0.88393 0.254 0.0
H1930 H 0.31623 0.8753 0.26237 0.0
H1931 H 0.32154 0.90992 0.29797 0.0
H1932 H 0.24105 0.86654 0.33234 0.0
H1933 H 0.27129 0.87683 0.32202 0.0
H1934 H 0.26296 0.84147 0.28592 0.0
C1935 C 0.33 0.88282 0.2686 0.0
C1936 C 0.30887 0.89492 0.29529 0.0
C1937 C 0.34817 0.88794 0.26379 0.0
C1938 C 0.23947 0.86231 0.32245 0.0
C1939 C 0.25685 0.86835 0.3165 0.0
C1940 C 0.27554 0.85655 0.2885 0.0
C1941 C 0.32963 0.88744 0.2813 0.0
C1942 C 0.31033 0.88158 0.28654 0.0
C1943 C 0.2556 0.86324 0.30367 0.0
C1944 C 0.27421 0.86975 0.29744 0.0
H1945 H 0.37976 0.91013 0.29049 0.0
H1946 H 0.34805 0.90101 0.29892 0.0
H1947 H 0.29414 0.85171 0.27648 0.0
H1948 H 0.20462 0.83702 0.29742 0.0
H1949 H 0.23504 0.84777 0.28702 0.0
C1950 C 0.08083 0.43818 0.27143 0.0
C1951 C 0.07405 0.44896 0.2787 0.0
C1952 C 0.08918 0.42775 0.27703 0.0
C1953 C 0.11759 0.42974 0.30533 0.0
H1954 H 0.10093 0.374 0.29508 0.0
C1955 C 0.15074 0.38817 0.33149 0.0
C1956 C 0.15321 0.37365 0.32465 0.0
C1957 C 0.14054 0.39686 0.32588 0.0
C1958 C 0.10602 0.38968 0.29793 0.0
H1959 H 0.06989 0.45628 0.29758 0.0
H1960 H 0.08522 0.43872 0.30732 0.0
H1961 H 0.08361 0.38962 0.28516 0.0
H1962 H 0.14806 0.35744 0.30658 0.0
H1963 H 0.13081 0.37303 0.29654 0.0
H1964 H 0.14048 0.43029 0.31771 0.0
C1965 C 0.08404 0.43844 0.29729 0.0
C1966 C 0.09598 0.39853 0.2923 0.0
C1967 C 0.07537 0.44858 0.29169 0.0
C1968 C 0.14582 0.36824 0.31206 0.0
C1969 C 0.13592 0.37719 0.30636 0.0
C1970 C 0.12787 0.42104 0.3108 0.0
C1971 C 0.09121 0.42814 0.29001 0.0
C1972 C 0.10162 0.4186 0.296 0.0
C1973 C 0.13299 0.39151 0.31322 0.0
C1974 C 0.12217 0.40085 0.30724 0.0
H1975 H 0.08038 0.43836 0.26143 0.0
H1976 H 0.09475 0.42001 0.27124 0.0
H1977 H 0.1224 0.44536 0.3082 0.0
H1978 H 0.15628 0.39244 0.34126 0.0
H1979 H 0.1383 0.40752 0.33155 0.0
C1980 C 0.35779 0.46449 0.27848 0.0
C1981 C 0.36436 0.45533 0.26972 0.0
C1982 C 0.3401 0.45303 0.28391 0.0
C1983 C 0.29106 0.40943 0.27906 0.0
H1984 H 0.29382 0.40922 0.3149 0.0
C1985 C 0.22074 0.35986 0.30378 0.0
C1986 C 0.21953 0.3671 0.31571 0.0
C1987 C 0.23832 0.37006 0.29794 0.0
C1988 C 0.29264 0.40936 0.30491 0.0
H1989 H 0.35709 0.42667 0.25985 0.0
H1990 H 0.32561 0.40689 0.26896 0.0
H1991 H 0.32453 0.42828 0.30506 0.0
H1992 H 0.23538 0.39105 0.33073 0.0
H1993 H 0.26554 0.40943 0.32037 0.0
H1994 H 0.25917 0.3914 0.27882 0.0
C1995 C 0.33449 0.42298 0.27164 0.0
C1996 C 0.31029 0.42014 0.29929 0.0
C1997 C 0.35245 0.43438 0.26639 0.0
C1998 C 0.23599 0.38498 0.32158 0.0
C1999 C 0.25338 0.39542 0.31565 0.0
C2000 C 0.2733 0.39898 0.28469 0.0
C2001 C 0.3283 0.43222 0.28052 0.0
C2002 C 0.30963 0.42026 0.28634 0.0
C2003 C 0.25493 0.38799 0.30381 0.0
C2004 C 0.27383 0.39885 0.29771 0.0
H2005 H 0.36614 0.48061 0.28106 0.0
H2006 H 0.33546 0.46047 0.29066 0.0
H2007 H 0.29025 0.40949 0.26904 0.0
H2008 H 0.20832 0.34601 0.29907 0.0
H2009 H 0.23895 0.36363 0.28893 0.0
C2010 C 0.53437 0.89151 0.25906 0.0
C2011 C 0.52653 0.90163 0.26593 0.0
C2012 C 0.54682 0.88554 0.26502 0.0
C2013 C 0.58023 0.89622 0.29363 0.0
H2014 H 0.5721 0.84295 0.28445 0.0
C2015 C 0.62086 0.86333 0.3218 0.0
C2016 C 0.62794 0.85226 0.31516 0.0
C2017 C 0.60854 0.86933 0.31571 0.0
C2018 C 0.57474 0.85796 0.28702 0.0
H2019 H 0.52578 0.91362 0.2844 0.0
H2020 H 0.54741 0.90301 0.29484 0.0
H2021 H 0.55055 0.85356 0.27399 0.0
H2022 H 0.62763 0.83883 0.29688 0.0
H2023 H 0.60634 0.84956 0.28623 0.0
H2024 H 0.60447 0.9007 0.30661 0.0
C2025 C 0.544 0.89981 0.28483 0.0
C2026 C 0.56237 0.86403 0.28103 0.0
C2027 C 0.53147 0.90571 0.27888 0.0
C2028 C 0.62238 0.84729 0.30229 0.0
C2029 C 0.61009 0.85335 0.29619 0.0
C2030 C 0.59264 0.89019 0.29959 0.0
C2031 C 0.55177 0.88962 0.27797 0.0
C2032 C 0.56496 0.88321 0.28429 0.0
C2033 C 0.60305 0.86447 0.30283 0.0
C2034 C 0.59 0.87096 0.29638 0.0
H2035 H 0.53067 0.88797 0.24909 0.0
H2036 H 0.55272 0.87787 0.25947 0.0
H2037 H 0.58279 0.91121 0.29622 0.0
H2038 H 0.62475 0.86732 0.33174 0.0
H2039 H 0.60312 0.87759 0.32115 0.0
C2040 C 0.10672 0.62501 0.29933 0.0
C2041 C 0.08762 0.61438 0.29257 0.0
C2042 C 0.11444 0.64491 0.3044 0.0
C2043 C 0.10908 0.68947 0.30089 0.0
H2044 H 0.13991 0.70855 0.33331 0.0
C2045 C 0.13565 0.76873 0.3254 0.0
C2046 C 0.15537 0.77934 0.33129 0.0
C2047 C 0.12709 0.74851 0.32077 0.0
C2048 C 0.1315 0.70348 0.32419 0.0
H2049 H 0.06141 0.6161 0.28611 0.0
H2050 H 0.07483 0.65082 0.29505 0.0
H2051 H 0.12509 0.6732 0.32532 0.0
H2052 H 0.18166 0.77727 0.33694 0.0
H2053 H 0.16672 0.7419 0.32881 0.0
H2054 H 0.11548 0.71977 0.29978 0.0
C2055 C 0.08399 0.64388 0.29624 0.0
C2056 C 0.123 0.68324 0.31961 0.0
C2057 C 0.07628 0.62399 0.29114 0.0
C2058 C 0.1664 0.76941 0.33246 0.0
C2059 C 0.15781 0.74915 0.32787 0.0
C2060 C 0.11753 0.7097 0.30549 0.0
C2061 C 0.10322 0.65462 0.30285 0.0
C2062 C 0.11177 0.67601 0.30789 0.0
C2063 C 0.13805 0.73848 0.32199 0.0
C2064 C 0.1289 0.71694 0.31716 0.0
H2065 H 0.11596 0.61814 0.30042 0.0
H2066 H 0.12943 0.65284 0.30927 0.0
H2067 H 0.10079 0.68448 0.29174 0.0
H2068 H 0.12678 0.77602 0.32444 0.0
H2069 H 0.11176 0.74064 0.3164 0.0
C2070 C 0.82064 0.04098 0.37111 0.0
C2071 C 0.8131 0.05175 0.37759 0.0
C2072 C 0.80769 0.02135 0.36561 0.0
C2073 C 0.75778 0.97737 0.36785 0.0
H2074 H 0.76572 0.95844 0.33586 0.0
C2075 C 0.70181 0.89845 0.34279 0.0
C2076 C 0.71003 0.88782 0.33696 0.0
C2077 C 0.71414 0.91861 0.34756 0.0
C2078 C 0.76344 0.96345 0.34486 0.0
H2079 H 0.78595 0.05063 0.38296 0.0
H2080 H 0.76332 0.01636 0.37332 0.0
H2081 H 0.78752 0.99361 0.34418 0.0
H2082 H 0.7375 0.88972 0.33163 0.0
H2083 H 0.75912 0.92492 0.34004 0.0
H2084 H 0.73378 0.94721 0.36856 0.0
C2085 C 0.7793 0.02298 0.37269 0.0
C2086 C 0.77591 0.9836 0.34962 0.0
C2087 C 0.79225 0.04261 0.37819 0.0
C2088 C 0.73079 0.89762 0.33604 0.0
C2089 C 0.74313 0.91779 0.34079 0.0
C2090 C 0.74531 0.95723 0.36309 0.0
C2091 C 0.78689 0.01203 0.36646 0.0
C2092 C 0.77327 0.99078 0.36119 0.0
C2093 C 0.73494 0.92854 0.34657 0.0
C2094 C 0.74804 0.95002 0.35156 0.0
H2095 H 0.83665 0.04747 0.37064 0.0
H2096 H 0.81405 0.01324 0.36102 0.0
H2097 H 0.75556 0.98233 0.37689 0.0
H2098 H 0.68583 0.89123 0.3436 0.0
H2099 H 0.70734 0.92652 0.35184 0.0
C2100 C 0.96877 0.75669 0.38881 0.0
C2101 C 0.9701 0.76125 0.40172 0.0
C2102 C 0.98613 0.76276 0.38281 0.0
C2103 C 0.04041 0.78006 0.38838 0.0
H2104 H 0.04272 0.80197 0.3568 0.0
C2105 C 0.11375 0.8201 0.36466 0.0
C2106 C 0.11218 0.81533 0.35175 0.0
C2107 C 0.09648 0.81352 0.37085 0.0
C2108 C 0.04224 0.79571 0.36555 0.0
H2109 H 0.99071 0.77565 0.41846 0.0
H2110 H 0.02103 0.7863 0.40799 0.0
H2111 H 0.01244 0.78993 0.36742 0.0
H2112 H 0.0912 0.80001 0.33522 0.0
H2113 H 0.06117 0.78852 0.34602 0.0
H2114 H 0.0703 0.78596 0.38651 0.0
C2115 C 0.00655 0.77778 0.40253 0.0
C2116 C 0.02487 0.78877 0.37163 0.0
C2117 C 0.98917 0.77167 0.40853 0.0
C2118 C 0.09298 0.804 0.34516 0.0
C2119 C 0.07574 0.79749 0.35134 0.0
C2120 C 0.05782 0.78704 0.38231 0.0
C2121 C 0.00524 0.77357 0.38958 0.0
C2122 C 0.02372 0.78082 0.38311 0.0
C2123 C 0.07729 0.8021 0.36426 0.0
C2124 C 0.05891 0.79491 0.37081 0.0
H2125 H 0.95428 0.74841 0.38333 0.0
H2126 H 0.98457 0.75894 0.37287 0.0
H2127 H 0.03993 0.77379 0.39713 0.0
H2128 H 0.1283 0.82883 0.37003 0.0
H2129 H 0.09818 0.81753 0.38078 0.0
C2130 C 0.26334 0.23445 0.38944 0.0
C2131 C 0.25223 0.21335 0.38915 0.0
C2132 C 0.25476 0.24489 0.38409 0.0
C2133 C 0.21313 0.23717 0.36138 0.0
H2134 H 0.22212 0.28759 0.37788 0.0
C2135 C 0.16728 0.27346 0.34542 0.0
C2136 C 0.17814 0.29419 0.34425 0.0
C2137 C 0.17653 0.26415 0.35139 0.0
C2138 C 0.21962 0.2736 0.37313 0.0
H2139 H 0.22325 0.18672 0.38337 0.0
H2140 H 0.20827 0.20486 0.37415 0.0
H2141 H 0.23822 0.27032 0.38718 0.0
H2142 H 0.20696 0.3216 0.34862 0.0
H2143 H 0.22313 0.30531 0.35914 0.0
H2144 H 0.19442 0.24035 0.34739 0.0
C2145 C 0.22376 0.21335 0.37822 0.0
C2146 C 0.22887 0.26374 0.37843 0.0
C2147 C 0.23234 0.20294 0.38351 0.0
C2148 C 0.19823 0.30559 0.34946 0.0
C2149 C 0.20747 0.29628 0.35549 0.0
C2150 C 0.20383 0.24697 0.35612 0.0
C2151 C 0.23487 0.23444 0.3784 0.0
C2152 C 0.22562 0.24534 0.37264 0.0
C2153 C 0.19679 0.27541 0.35634 0.0
C2154 C 0.20687 0.26522 0.36197 0.0
H2155 H 0.27876 0.24285 0.39364 0.0
H2156 H 0.2638 0.26111 0.38426 0.0
H2157 H 0.21063 0.22325 0.35655 0.0
H2158 H 0.15173 0.26436 0.34155 0.0
H2159 H 0.16783 0.24809 0.35208 0.0
C2160 C 0.65336 0.55505 0.73996 0.0
C2161 C 0.6347 0.54647 0.73272 0.0
C2162 C 0.67128 0.56622 0.73461 0.0
C2163 C 0.69165 0.57188 0.7044 0.0
H2164 H 0.73601 0.62212 0.72067 0.0
C2165 C 0.75994 0.62248 0.67907 0.0
C2166 C 0.77908 0.63221 0.68579 0.0
C2167 C 0.74267 0.61219 0.68512 0.0
C2168 C 0.72387 0.60797 0.71608 0.0
H2169 H 0.62025 0.54377 0.71433 0.0
H2170 H 0.65146 0.56308 0.70501 0.0
H2171 H 0.70518 0.60426 0.73073 0.0
H2172 H 0.79505 0.63867 0.70418 0.0
H2173 H 0.76489 0.62038 0.71472 0.0
H2174 H 0.71025 0.57536 0.68982 0.0
C2175 C 0.65224 0.56087 0.71477 0.0
C2176 C 0.7062 0.59778 0.72183 0.0
C2177 C 0.63436 0.5498 0.72011 0.0
C2178 C 0.78054 0.63136 0.69872 0.0
C2179 C 0.76324 0.62098 0.70478 0.0
C2180 C 0.70931 0.58198 0.69869 0.0
C2181 C 0.6709 0.56897 0.72191 0.0
C2182 C 0.68984 0.57972 0.716 0.0
C2183 C 0.74408 0.61127 0.69804 0.0
C2184 C 0.72558 0.60023 0.7044 0.0
H2185 H 0.65417 0.55258 0.74966 0.0
H2186 H 0.68544 0.57215 0.74033 0.0
H2187 H 0.67945 0.55778 0.69979 0.0
H2188 H 0.75821 0.62293 0.66912 0.0
H2189 H 0.72817 0.6052 0.67967 0.0
C2190 C 0.47369 0.09967 0.7158 0.0
C2191 C 0.48093 0.10438 0.72847 0.0
C2192 C 0.45946 0.10443 0.7111 0.0
C2193 C 0.43935 0.13819 0.71737 0.0
H2194 H 0.39478 0.0995 0.69381 0.0
C2195 C 0.37612 0.15241 0.69835 0.0
C2196 C 0.36991 0.14701 0.68555 0.0
C2197 C 0.38889 0.14669 0.70424 0.0
C2198 C 0.40723 0.11054 0.7003 0.0
H2199 H 0.47915 0.11801 0.74612 0.0
H2200 H 0.45418 0.12618 0.73791 0.0
H2201 H 0.41874 0.09062 0.70274 0.0
H2202 H 0.37228 0.1314 0.66891 0.0
H2203 H 0.39462 0.12175 0.67911 0.0
H2204 H 0.42802 0.15824 0.71479 0.0
C2205 C 0.45955 0.11887 0.73162 0.0
C2206 C 0.42095 0.10544 0.70541 0.0
C2207 C 0.4737 0.11401 0.73633 0.0
C2208 C 0.37667 0.13574 0.6788 0.0
C2209 C 0.3894 0.13007 0.68467 0.0
C2210 C 0.42565 0.14332 0.71222 0.0
C2211 C 0.45226 0.11409 0.71895 0.0
C2212 C 0.43727 0.11927 0.71391 0.0
C2213 C 0.39568 0.13546 0.69745 0.0
C2214 C 0.40956 0.12963 0.70352 0.0
H2215 H 0.47885 0.0921 0.70954 0.0
H2216 H 0.45428 0.10075 0.70127 0.0
H2217 H 0.45189 0.14924 0.72381 0.0
H2218 H 0.37116 0.16105 0.70382 0.0
H2219 H 0.39331 0.15092 0.71412 0.0
C2220 C 0.91106 0.37931 0.69792 0.0
C2221 C 0.91005 0.38363 0.71056 0.0
C2222 C 0.90329 0.3594 0.6928 0.0
C2223 C 0.8889 0.30856 0.70138 0.0
H2224 H 0.85742 0.29056 0.66917 0.0
C2225 C 0.83172 0.22952 0.66891 0.0
C2226 C 0.84291 0.21971 0.66974 0.0
C2227 C 0.84019 0.24964 0.67379 0.0
C2228 C 0.86608 0.29533 0.67821 0.0
H2229 H 0.89977 0.37038 0.72769 0.0
H2230 H 0.88634 0.33573 0.71878 0.0
H2231 H 0.87173 0.32552 0.67791 0.0
H2232 H 0.87166 0.2231 0.67626 0.0
H2233 H 0.88649 0.25824 0.68476 0.0
H2234 H 0.88295 0.2783 0.70179 0.0
C2235 C 0.89342 0.34774 0.71286 0.0
C2236 C 0.87447 0.31541 0.68315 0.0
C2237 C 0.90114 0.36761 0.71797 0.0
C2238 C 0.86267 0.23029 0.67556 0.0
C2239 C 0.87112 0.25038 0.68046 0.0
C2240 C 0.88056 0.28851 0.69643 0.0
C2241 C 0.89438 0.3434 0.70022 0.0
C2242 C 0.8859 0.32222 0.69481 0.0
C2243 C 0.85999 0.26029 0.67961 0.0
C2244 C 0.869 0.28165 0.68481 0.0
H2245 H 0.91805 0.39133 0.692 0.0
H2246 H 0.90448 0.35655 0.68306 0.0
H2247 H 0.8978 0.31339 0.71034 0.0
H2248 H 0.81643 0.22166 0.6645 0.0
H2249 H 0.83115 0.25678 0.67313 0.0
C2250 C 0.19151 0.9548 0.6301 0.0
C2251 C 0.18468 0.95123 0.61738 0.0
C2252 C 0.20444 0.97445 0.63562 0.0
C2253 C 0.21985 0.02717 0.63181 0.0
H2254 H 0.2663 0.03958 0.6545 0.0
C2255 C 0.26687 0.10358 0.66189 0.0
C2256 C 0.28783 0.11242 0.66248 0.0
C2257 C 0.25435 0.08388 0.65635 0.0
C2258 C 0.25344 0.03635 0.64813 0.0
H2259 H 0.18591 0.96541 0.60049 0.0
H2260 H 0.20854 0.99969 0.61012 0.0
H2261 H 0.24445 0.0051 0.64481 0.0
H2262 H 0.31224 0.10778 0.65773 0.0
H2263 H 0.29036 0.0733 0.64806 0.0
H2264 H 0.22888 0.05841 0.63507 0.0
C2265 C 0.20386 0.98731 0.61582 0.0
C2266 C 0.24084 0.0166 0.64268 0.0
C2267 C 0.19108 0.96768 0.61029 0.0
C2268 C 0.2961 0.10127 0.65742 0.0
C2269 C 0.28359 0.08152 0.65195 0.0
C2270 C 0.23235 0.04688 0.63733 0.0
C2271 C 0.21063 0.99092 0.62855 0.0
C2272 C 0.22395 0.01182 0.63443 0.0
C2273 C 0.26259 0.07263 0.65136 0.0
C2274 C 0.2493 0.05168 0.64553 0.0
H2275 H 0.18694 0.9424 0.63577 0.0
H2276 H 0.20931 0.97679 0.64547 0.0
H2277 H 0.20684 0.02391 0.62557 0.0
H2278 H 0.26013 0.11188 0.66572 0.0
H2279 H 0.23822 0.07736 0.65612 0.0
C2280 C 0.03153 0.23499 0.61717 0.0
C2281 C 0.03189 0.23027 0.60449 0.0
C2282 C 0.0134 0.22999 0.62197 0.0
C2283 C 0.95892 0.1951 0.61593 0.0
H2284 H 0.95607 0.23214 0.64053 0.0
C2285 C 0.88475 0.17828 0.63605 0.0
C2286 C 0.88613 0.18327 0.64891 0.0
C2287 C 0.90214 0.18441 0.63003 0.0
C2288 C 0.95666 0.22155 0.63375 0.0
H2289 H 0.01351 0.21667 0.58688 0.0
H2290 H 0.98181 0.20811 0.59525 0.0
H2291 H 0.98718 0.24241 0.63107 0.0
H2292 H 0.90689 0.19844 0.66555 0.0
H2293 H 0.93705 0.20884 0.65512 0.0
H2294 H 0.92847 0.17414 0.61874 0.0
C2295 C 0.99556 0.21556 0.60149 0.0
C2296 C 0.97449 0.22745 0.62832 0.0
C2297 C 0.01373 0.22064 0.59668 0.0
C2298 C 0.90524 0.1944 0.65563 0.0
C2299 C 0.92258 0.2005 0.64962 0.0
C2300 C 0.94108 0.18918 0.62138 0.0
C2301 C 0.99519 0.22011 0.61421 0.0
C2302 C 0.97589 0.21422 0.61945 0.0
C2303 C 0.92126 0.19566 0.63675 0.0
C2304 C 0.93982 0.20226 0.63046 0.0
H2305 H 0.0453 0.2426 0.62341 0.0
H2306 H 0.01361 0.23353 0.63183 0.0
H2307 H 0.9596 0.18448 0.60923 0.0
H2308 H 0.87026 0.16976 0.63059 0.0
H2309 H 0.90061 0.18059 0.62009 0.0
C2310 C 0.74435 0.78053 0.62312 0.0
C2311 C 0.74658 0.78445 0.61064 0.0
C2312 C 0.75262 0.76994 0.62861 0.0
C2313 C 0.76268 0.73814 0.63589 0.0
H2314 H 0.8167 0.7518 0.62936 0.0
C2315 C 0.79986 0.69412 0.65386 0.0
C2316 C 0.81995 0.70565 0.65904 0.0
C2317 C 0.79069 0.70311 0.64742 0.0
C2318 C 0.80164 0.74789 0.63132 0.0
H2319 H 0.75913 0.7802 0.59409 0.0
H2320 H 0.77324 0.76142 0.60361 0.0
H2321 H 0.80076 0.76856 0.61929 0.0
H2322 H 0.84633 0.73549 0.66147 0.0
H2323 H 0.83028 0.75131 0.6503 0.0
H2324 H 0.76374 0.7178 0.64814 0.0
C2325 C 0.76527 0.7667 0.60919 0.0
C2326 C 0.79242 0.75732 0.62544 0.0
C2327 C 0.75697 0.77725 0.6037 0.0
C2328 C 0.83081 0.72627 0.65755 0.0
C2329 C 0.82166 0.73528 0.65109 0.0
C2330 C 0.77188 0.72867 0.64174 0.0
C2331 C 0.76333 0.76308 0.62173 0.0
C2332 C 0.77287 0.75262 0.62771 0.0
C2333 C 0.80144 0.72382 0.64604 0.0
C2334 C 0.7915 0.73351 0.63956 0.0
H2335 H 0.73628 0.78573 0.62868 0.0
H2336 H 0.751 0.76753 0.63832 0.0
H2337 H 0.74754 0.73406 0.63774 0.0
H2338 H 0.79112 0.67817 0.6549 0.0
H2339 H 0.77518 0.69383 0.6435 0.0
C2340 C 0.02998 0.78564 0.6143 0.0
C2341 C 0.02924 0.78779 0.60151 0.0
C2342 C 0.01232 0.77471 0.61989 0.0
C2343 C 0.95861 0.73626 0.61331 0.0
H2344 H 0.95438 0.75903 0.64515 0.0
C2345 C 0.88468 0.70188 0.6368 0.0
C2346 C 0.88639 0.701 0.64972 0.0
C2347 C 0.90182 0.71253 0.63066 0.0
C2348 C 0.95539 0.75235 0.63632 0.0
H2349 H 0.00932 0.77995 0.58455 0.0
H2350 H 0.97844 0.76074 0.59432 0.0
H2351 H 0.98485 0.77704 0.63491 0.0
H2352 H 0.90753 0.71062 0.66629 0.0
H2353 H 0.93732 0.72893 0.65557 0.0
H2354 H 0.92916 0.7115 0.61477 0.0
C2355 C 0.99273 0.76739 0.59999 0.0
C2356 C 0.97286 0.76267 0.63045 0.0
C2357 C 0.01042 0.77837 0.59439 0.0
C2358 C 0.90562 0.71105 0.65635 0.0
C2359 C 0.92273 0.72166 0.6502 0.0
C2360 C 0.94112 0.7259 0.6192 0.0
C2361 C 0.99348 0.76563 0.61282 0.0
C2362 C 0.97473 0.7547 0.61892 0.0
C2363 C 0.92105 0.72253 0.63729 0.0
C2364 C 0.93936 0.73377 0.63081 0.0
H2365 H 0.04424 0.79238 0.62 0.0
H2366 H 0.01342 0.7733 0.62975 0.0
H2367 H 0.95968 0.72964 0.60448 0.0
H2368 H 0.87011 0.69434 0.63141 0.0
H2369 H 0.89999 0.7131 0.62072 0.0
C2370 C 0.2134 0.24715 0.60053 0.0
C2371 C 0.19242 0.23458 0.5996 0.0
C2372 C 0.22604 0.24128 0.60636 0.0
C2373 C 0.2273 0.19638 0.61532 0.0
H2374 H 0.27383 0.23525 0.63756 0.0
C2375 C 0.28746 0.17893 0.63557 0.0
C2376 C 0.29437 0.18536 0.64823 0.0
C2377 C 0.27524 0.18504 0.62942 0.0
C2378 C 0.26084 0.2242 0.63142 0.0
H2379 H 0.16824 0.20593 0.60401 0.0
H2380 H 0.1903 0.19582 0.61437 0.0
H2381 H 0.25181 0.24564 0.62749 0.0
H2382 H 0.29383 0.20324 0.66434 0.0
H2383 H 0.27247 0.21373 0.65364 0.0
H2384 H 0.23614 0.17484 0.61943 0.0
C2385 C 0.19698 0.21014 0.61048 0.0
C2386 C 0.24834 0.2302 0.62556 0.0
C2387 C 0.18434 0.21604 0.60468 0.0
C2388 C 0.28883 0.19804 0.65458 0.0
C2389 C 0.27668 0.20417 0.64843 0.0
C2390 C 0.23984 0.19039 0.62116 0.0
C2391 C 0.21797 0.22267 0.61136 0.0
C2392 C 0.23139 0.21634 0.61748 0.0
C2393 C 0.26974 0.19774 0.63578 0.0
C2394 C 0.2567 0.20421 0.62932 0.0
H2395 H 0.22007 0.26161 0.5968 0.0
H2396 H 0.24215 0.25119 0.6068 0.0
H2397 H 0.21448 0.1854 0.60903 0.0
H2398 H 0.29147 0.16918 0.63039 0.0
H2399 H 0.2703 0.18 0.61964 0.0
C2400 C 0.74038 0.955 0.62625 0.0
C2401 C 0.75196 0.94563 0.62764 0.0
C2402 C 0.74791 0.97489 0.6313 0.0
C2403 C 0.78726 0.01503 0.65422 0.0
H2404 H 0.77924 0.05074 0.63387 0.0
C2405 C 0.83146 0.10145 0.66557 0.0
C2406 C 0.82055 0.1115 0.66439 0.0
C2407 C 0.82257 0.08103 0.6613 0.0
C2408 C 0.78142 0.04091 0.63972 0.0
H2409 H 0.78047 0.94977 0.63547 0.0
H2410 H 0.79362 0.98445 0.64423 0.0
H2411 H 0.76428 0.01521 0.62636 0.0
H2412 H 0.79191 0.10827 0.65777 0.0
H2413 H 0.77637 0.07259 0.65026 0.0
H2414 H 0.80461 0.04083 0.66751 0.0
C2415 C 0.77859 0.97634 0.63942 0.0
C2416 C 0.77281 0.02053 0.63543 0.0
C2417 C 0.77105 0.95645 0.6344 0.0
C2418 C 0.80068 0.10088 0.65875 0.0
C2419 C 0.79182 0.08049 0.65442 0.0
C2420 C 0.79591 0.03542 0.65849 0.0
C2421 C 0.7672 0.98587 0.63782 0.0
C2422 C 0.77571 0.00737 0.64261 0.0
C2423 C 0.80264 0.07032 0.65571 0.0
C2424 C 0.79317 0.0486 0.65126 0.0
H2425 H 0.72551 0.94696 0.62122 0.0
H2426 H 0.73861 0.98168 0.63008 0.0
H2427 H 0.78952 0.00524 0.66006 0.0
H2428 H 0.84683 0.10933 0.66986 0.0
H2429 H 0.83138 0.07368 0.66227 0.0
C2430 C 0.48635 0.37321 0.70499 0.0
C2431 C 0.47883 0.38411 0.71134 0.0
C2432 C 0.47337 0.35355 0.69953 0.0
C2433 C 0.4233 0.30975 0.70168 0.0
H2434 H 0.43159 0.29053 0.6699 0.0
C2435 C 0.3675 0.23072 0.67663 0.0
C2436 C 0.37579 0.22004 0.67096 0.0
C2437 C 0.3798 0.25089 0.6814 0.0
C2438 C 0.42921 0.29562 0.67885 0.0
H2439 H 0.45168 0.38317 0.71656 0.0
H2440 H 0.429 0.34885 0.707 0.0
H2441 H 0.45337 0.32573 0.67816 0.0
H2442 H 0.40337 0.22185 0.66594 0.0
H2443 H 0.42493 0.25706 0.67435 0.0
H2444 H 0.3992 0.27963 0.7024 0.0
C2445 C 0.44499 0.3554 0.70643 0.0
C2446 C 0.44167 0.31579 0.68357 0.0
C2447 C 0.45797 0.37506 0.71189 0.0
C2448 C 0.39659 0.22979 0.67022 0.0
C2449 C 0.4089 0.24997 0.67496 0.0
C2450 C 0.41083 0.28959 0.69696 0.0
C2451 C 0.45256 0.34434 0.70031 0.0
C2452 C 0.43891 0.32307 0.69507 0.0
C2453 C 0.40063 0.26077 0.68057 0.0
C2454 C 0.4137 0.28227 0.68551 0.0
H2455 H 0.50236 0.37963 0.70457 0.0
H2456 H 0.47973 0.34536 0.69504 0.0
H2457 H 0.42097 0.3148 0.71066 0.0
H2458 H 0.35148 0.22355 0.6773 0.0
H2459 H 0.37294 0.25884 0.68555 0.0
C2460 C 0.65593 0.10802 0.7422 0.0
C2461 C 0.63684 0.09793 0.73541 0.0
C2462 C 0.67325 0.11411 0.73614 0.0
C2463 C 0.69168 0.12521 0.70523 0.0
H2464 H 0.73622 0.12068 0.71988 0.0
C2465 C 0.75897 0.13811 0.67853 0.0
C2466 C 0.77824 0.14898 0.68508 0.0
C2467 C 0.74184 0.13216 0.68475 0.0
C2468 C 0.72399 0.12225 0.71574 0.0
H2469 H 0.62092 0.08579 0.71699 0.0
H2470 H 0.65112 0.09626 0.70643 0.0
H2471 H 0.70601 0.1093 0.73057 0.0
H2472 H 0.79458 0.16225 0.70333 0.0
H2473 H 0.76466 0.15193 0.71415 0.0
H2474 H 0.70963 0.13804 0.69037 0.0
C2475 C 0.65274 0.09985 0.7164 0.0
C2476 C 0.70668 0.11573 0.72186 0.0
C2477 C 0.63543 0.09381 0.72245 0.0
C2478 C 0.77998 0.15387 0.69799 0.0
C2479 C 0.76282 0.14785 0.70421 0.0
C2480 C 0.70896 0.13167 0.6991 0.0
C2481 C 0.67187 0.1102 0.72316 0.0
C2482 C 0.6903 0.1171 0.71667 0.0
C2483 C 0.74356 0.13688 0.69766 0.0
C2484 C 0.7253 0.13025 0.70427 0.0
H2485 H 0.65752 0.11166 0.75217 0.0
H2486 H 0.68775 0.12229 0.74161 0.0
H2487 H 0.6795 0.12682 0.70108 0.0
H2488 H 0.75706 0.13406 0.66859 0.0
H2489 H 0.7272 0.12353 0.67946 0.0
C2490 C 0.91396 0.55804 0.72962 0.0
C2491 C 0.92227 0.54877 0.72241 0.0
C2492 C 0.90551 0.56841 0.72408 0.0
C2493 C 0.88268 0.57105 0.69403 0.0
H2494 H 0.89052 0.62144 0.70981 0.0
C2495 C 0.86632 0.63845 0.68146 0.0
C2496 C 0.84627 0.62687 0.6762 0.0
C2497 C 0.87578 0.62931 0.68742 0.0
C2498 C 0.88828 0.60743 0.70526 0.0
H2499 H 0.92883 0.54372 0.70377 0.0
H2500 H 0.914 0.56179 0.69408 0.0
H2501 H 0.90765 0.60535 0.71937 0.0
H2502 H 0.82024 0.59681 0.6732 0.0
H2503 H 0.83672 0.5808 0.68366 0.0
H2504 H 0.8635 0.57322 0.67986 0.0
C2505 C 0.91378 0.56077 0.70401 0.0
C2506 C 0.89795 0.59814 0.71079 0.0
C2507 C 0.92227 0.55043 0.70956 0.0
C2508 C 0.83574 0.60606 0.67714 0.0
C2509 C 0.84521 0.59689 0.68306 0.0
C2510 C 0.87297 0.5803 0.68854 0.0
C2511 C 0.90514 0.56971 0.71119 0.0
C2512 C 0.89524 0.57984 0.70523 0.0
C2513 C 0.86537 0.6084 0.68819 0.0
C2514 C 0.87564 0.59857 0.6941 0.0
H2515 H 0.91342 0.55677 0.73951 0.0
H2516 H 0.89874 0.57491 0.72984 0.0
H2517 H 0.88012 0.55685 0.68959 0.0
H2518 H 0.87483 0.65452 0.68079 0.0
H2519 H 0.89138 0.63854 0.69116 0.0
C2520 C 0.44784 0.95354 0.17216 0.0
C2521 C 0.46293 0.96132 0.18222 0.0
C2522 C 0.45248 0.95966 0.16032 0.0
C2523 C 0.49517 0.98075 0.14148 0.0
H2524 H 0.46043 0.99114 0.11959 0.0
C2525 C 0.51885 0.01362 0.09502 0.0
C2526 C 0.50424 0.0055 0.08469 0.0
C2527 C 0.51349 0.00859 0.10692 0.0
C2528 C 0.47017 0.98807 0.12555 0.0
H2529 H 0.49451 0.98234 0.18787 0.0
H2530 H 0.50261 0.99299 0.16724 0.0
H2531 H 0.45155 0.98204 0.14046 0.0
H2532 H 0.47245 0.98592 0.07881 0.0
H2533 H 0.46314 0.9768 0.09959 0.0
H2534 H 0.51372 0.9866 0.1266 0.0
C2535 C 0.48726 0.98187 0.16844 0.0
C2536 C 0.4651 0.98289 0.1375 0.0
C2537 C 0.48263 0.97578 0.18026 0.0
C2538 C 0.48411 0.99227 0.08656 0.0
C2539 C 0.47873 0.98723 0.09848 0.0
C2540 C 0.50022 0.98588 0.12955 0.0
C2541 C 0.47231 0.97367 0.1583 0.0
C2542 C 0.47759 0.97924 0.14561 0.0
C2543 C 0.49338 0.99528 0.10879 0.0
C2544 C 0.48783 0.98967 0.12145 0.0
H2545 H 0.43256 0.94222 0.17335 0.0
H2546 H 0.44067 0.95293 0.15267 0.0
H2547 H 0.50491 0.97764 0.14741 0.0
H2548 H 0.53453 0.02368 0.09389 0.0
H2549 H 0.52511 0.01524 0.11468 0.0
C2550 C 0.03337 0.52941 0.18508 0.0
C2551 C 0.02229 0.51343 0.19215 0.0
C2552 C 0.03011 0.52663 0.17213 0.0
C2553 C 0.99269 0.49527 0.14606 0.0
H2554 H 0.03859 0.51854 0.12692 0.0
C2555 C 0.98695 0.50912 0.09464 0.0
C2556 C 0.99866 0.50538 0.0866 0.0
C2557 C 0.98902 0.50768 0.10737 0.0
C2558 C 0.02561 0.51175 0.13212 0.0
H2559 H 0.99898 0.48204 0.19121 0.0
H2560 H 0.99323 0.47717 0.16846 0.0
H2561 H 0.04395 0.52056 0.1495 0.0
H2562 H 0.02129 0.49656 0.08564 0.0
H2563 H 0.02509 0.49432 0.10793 0.0
H2564 H 0.97436 0.48662 0.12865 0.0
C2565 C 0.00442 0.49185 0.17299 0.0
C2566 C 0.02869 0.51309 0.14505 0.0
C2567 C 0.00779 0.4946 0.18599 0.0
C2568 C 0.01228 0.49986 0.09159 0.0
C2569 C 0.01442 0.49852 0.10435 0.0
C2570 C 0.98961 0.49403 0.13311 0.0
C2571 C 0.01564 0.50783 0.16594 0.0
C2572 C 0.01227 0.50511 0.15217 0.0
C2573 C 0.00292 0.50257 0.11238 0.0
C2574 C 0.00605 0.50247 0.12602 0.0
H2575 H 0.04483 0.54402 0.18956 0.0
H2576 H 0.03882 0.53929 0.16696 0.0
H2577 H 0.97975 0.48906 0.15131 0.0
H2578 H 0.97657 0.51374 0.09117 0.0
H2579 H 0.98019 0.51121 0.11335 0.0
C2580 C 0.49809 0.51876 0.184 0.0
C2581 C 0.47922 0.51391 0.18781 0.0
C2582 C 0.50047 0.51682 0.17141 0.0
C2583 C 0.47408 0.49275 0.1405 0.0
H2584 H 0.51796 0.53996 0.12888 0.0
C2585 C 0.50087 0.49493 0.09132 0.0
C2586 C 0.5047 0.51191 0.08519 0.0
C2587 C 0.49646 0.49401 0.10367 0.0
C2588 C 0.5056 0.52671 0.13198 0.0
H2589 H 0.44787 0.50242 0.18135 0.0
H2590 H 0.45202 0.49866 0.15935 0.0
H2591 H 0.51287 0.53979 0.1509 0.0
H2592 H 0.50676 0.54112 0.08712 0.0
H2593 H 0.4992 0.53957 0.10874 0.0
H2594 H 0.4669 0.47968 0.12152 0.0
C2595 C 0.46494 0.50401 0.16615 0.0
C2596 C 0.50281 0.52653 0.14459 0.0
C2597 C 0.46258 0.50612 0.17876 0.0
C2598 C 0.50375 0.5278 0.09159 0.0
C2599 C 0.49958 0.52698 0.10397 0.0
C2600 C 0.47704 0.49283 0.12788 0.0
C2601 C 0.484 0.50979 0.16236 0.0
C2602 C 0.48701 0.50958 0.14898 0.0
C2603 C 0.49606 0.51016 0.11017 0.0
C2604 C 0.49278 0.50987 0.12351 0.0
H2605 H 0.51113 0.52434 0.19074 0.0
H2606 H 0.51527 0.52104 0.16875 0.0
H2607 H 0.46182 0.47947 0.14366 0.0
H2608 H 0.50135 0.48241 0.08656 0.0
H2609 H 0.4939 0.48092 0.10825 0.0
C2610 C 0.97474 0.49978 0.816 0.0
C2611 C 0.98342 0.49129 0.80845 0.0
C2612 C 0.97845 0.50187 0.82894 0.0
C2613 C 0.99093 0.4786 0.85364 0.0
H2614 H 0.0 0.52542 0.87489 0.0
C2615 C 0.98233 0.47638 0.90594 0.0
C2616 C 0.99798 0.49225 0.9139 0.0
C2617 C 0.98127 0.47744 0.89312 0.0
C2618 C 0.99758 0.5123 0.86906 0.0
H2619 H 0.00366 0.47934 0.80859 0.0
H2620 H 0.00986 0.4827 0.83121 0.0
H2621 H 0.99818 0.52593 0.85228 0.0
H2622 H 0.02443 0.52195 0.91476 0.0
H2623 H 0.02252 0.52383 0.89229 0.0
H2624 H 0.99016 0.46488 0.87036 0.0
C2625 C 2e-05 0.48754 0.82708 0.0
C2626 C 0.99642 0.51255 0.85614 0.0
C2627 C 0.99644 0.48558 0.81414 0.0
C2628 C 0.01228 0.50943 0.90882 0.0
C2629 C 0.01112 0.51057 0.89599 0.0
C2630 C 0.99189 0.47828 0.86652 0.0
C2631 C 0.9908 0.49539 0.83461 0.0
C2632 C 0.99303 0.49567 0.84831 0.0
C2633 C 0.99577 0.49445 0.88801 0.0
C2634 C 0.99511 0.49507 0.87436 0.0
H2635 H 0.9644 0.50406 0.81196 0.0
H2636 H 0.97096 0.50777 0.83452 0.0
H2637 H 0.98808 0.46529 0.84783 0.0
H2638 H 0.9712 0.46289 0.90959 0.0
H2639 H 0.96915 0.46489 0.88719 0.0
C2640 C 0.51032 0.46177 0.81978 0.0
C2641 C 0.51836 0.47877 0.81312 0.0
C2642 C 0.50767 0.46352 0.83232 0.0
C2643 C 0.52384 0.49914 0.8605 0.0
H2644 H 0.47341 0.45838 0.8709 0.0
C2645 C 0.50026 0.502 0.91027 0.0
C2646 C 0.49042 0.48355 0.91544 0.0
C2647 C 0.50446 0.50251 0.89786 0.0
C2648 C 0.48766 0.46976 0.86819 0.0
H2649 H 0.53041 0.51109 0.81452 0.0
H2650 H 0.52584 0.51418 0.83657 0.0
H2651 H 0.47935 0.45746 0.84914 0.0
H2652 H 0.47817 0.45131 0.91184 0.0
H2653 H 0.48559 0.45218 0.89029 0.0
H2654 H 0.53217 0.51133 0.87964 0.0
C2655 C 0.52164 0.49949 0.83202 0.0
C2656 C 0.49105 0.46924 0.85571 0.0
C2657 C 0.52426 0.49772 0.81941 0.0
C2658 C 0.48538 0.46571 0.90805 0.0
C2659 C 0.48961 0.46622 0.8957 0.0
C2660 C 0.52046 0.49963 0.87304 0.0
C2661 C 0.51305 0.48234 0.83855 0.0
C2662 C 0.50926 0.48376 0.85174 0.0
C2663 C 0.49894 0.48457 0.89039 0.0
C2664 C 0.50242 0.48477 0.87704 0.0
H2665 H 0.50611 0.44703 0.81531 0.0
H2666 H 0.50145 0.4501 0.83716 0.0
H2667 H 0.53806 0.51046 0.85772 0.0
H2668 H 0.50419 0.51599 0.91571 0.0
H2669 H 0.51153 0.51687 0.89403 0.0
C2670 C 0.50589 0.0248 0.82146 0.0
C2671 C 0.52461 0.03986 0.81841 0.0
C2672 C 0.50365 0.01879 0.83344 0.0
C2673 C 0.52636 0.03716 0.86575 0.0
H2674 H 0.49115 0.98148 0.87144 0.0
C2675 C 0.49629 0.01412 0.9131 0.0
C2676 C 0.49464 0.99634 0.91709 0.0
C2677 C 0.50148 0.01933 0.90118 0.0
C2678 C 0.50121 0.99706 0.87003 0.0
H2679 H 0.55579 0.0601 0.82548 0.0
H2680 H 0.55196 0.04934 0.84638 0.0
H2681 H 0.49783 0.99012 0.8503 0.0
H2682 H 0.49773 0.97044 0.91182 0.0
H2683 H 0.50681 0.97956 0.89103 0.0
H2684 H 0.52984 0.04408 0.88549 0.0
C2685 C 0.53895 0.04237 0.83953 0.0
C2686 C 0.50487 0.00204 0.8579 0.0
C2687 C 0.54119 0.04837 0.82752 0.0
C2688 C 0.49855 0.98405 0.90895 0.0
C2689 C 0.50376 0.98928 0.89704 0.0
C2690 C 0.5227 0.03218 0.87788 0.0
C2691 C 0.52009 0.02768 0.84266 0.0
C2692 C 0.5173 0.02218 0.8556 0.0
C2693 C 0.50516 0.00692 0.89299 0.0
C2694 C 0.50991 0.0121 0.88016 0.0
H2695 H 0.49288 0.01776 0.8146 0.0
H2696 H 0.48887 0.00757 0.83557 0.0
H2697 H 0.53586 0.05284 0.8643 0.0
H2698 H 0.49313 0.02377 0.91909 0.0
H2699 H 0.50211 0.03286 0.89829 0.0
C2700 C 0.14882 0.30779 0.51326 0.0
C2701 C 0.12911 0.29338 0.51523 0.0
C2702 C 0.1535 0.31375 0.50142 0.0
C2703 C 0.13143 0.3146 0.47042 0.0
H2704 H 0.18006 0.3182 0.45962 0.0
C2705 C 0.15067 0.3242 0.41953 0.0
C2706 C 0.17082 0.33745 0.41771 0.0
C2707 C 0.14524 0.31902 0.43143 0.0
C2708 C 0.16656 0.31751 0.46254 0.0
H2709 H 0.09876 0.27422 0.50634 0.0
H2710 H 0.10694 0.28472 0.48563 0.0
H2711 H 0.17118 0.30931 0.48043 0.0
H2712 H 0.20109 0.35548 0.42696 0.0
H2713 H 0.19158 0.34682 0.44771 0.0
H2714 H 0.12686 0.32284 0.45249 0.0
C2715 C 0.11873 0.29151 0.49329 0.0
C2716 C 0.16147 0.31241 0.47447 0.0
C2717 C 0.11404 0.28551 0.50515 0.0
C2718 C 0.1854 0.34541 0.42805 0.0
C2719 C 0.17998 0.34025 0.43993 0.0
C2720 C 0.13656 0.31975 0.45847 0.0
C2721 C 0.13858 0.30547 0.49127 0.0
C2722 C 0.14389 0.31095 0.47856 0.0
C2723 C 0.15985 0.32696 0.44176 0.0
C2724 C 0.15422 0.32131 0.4544 0.0
H2725 H 0.16069 0.31442 0.52089 0.0
H2726 H 0.16885 0.32484 0.50021 0.0
H2727 H 0.11789 0.31379 0.47335 0.0
H2728 H 0.13903 0.31796 0.41178 0.0
H2729 H 0.12964 0.3086 0.4325 0.0
C2730 C 0.6777 0.82981 0.51939 0.0
C2731 C 0.69102 0.84886 0.5258 0.0
C2732 C 0.67444 0.82743 0.50641 0.0
C2733 C 0.69792 0.85134 0.47885 0.0
H2734 H 0.644 0.81997 0.46194 0.0
C2735 C 0.68326 0.83776 0.42537 0.0
C2736 C 0.66802 0.84084 0.4201 0.0
C2737 C 0.68547 0.83669 0.43815 0.0
C2738 C 0.65914 0.82879 0.46654 0.0
H2739 H 0.71148 0.88029 0.5236 0.0
H2740 H 0.70558 0.87618 0.50101 0.0
H2741 H 0.64908 0.82251 0.48461 0.0
H2742 H 0.64308 0.8451 0.42415 0.0
H2743 H 0.64689 0.84315 0.44641 0.0
H2744 H 0.70797 0.85806 0.46085 0.0
C2745 C 0.69775 0.86307 0.506 0.0
C2746 C 0.66206 0.83009 0.4795 0.0
C2747 C 0.70094 0.86546 0.51896 0.0
C2748 C 0.65478 0.8424 0.42787 0.0
C2749 C 0.65696 0.84128 0.44064 0.0
C2750 C 0.69502 0.84997 0.4659 0.0
C2751 C 0.68456 0.84402 0.49958 0.0
C2752 C 0.68146 0.84161 0.4858 0.0
C2753 C 0.67246 0.83864 0.44594 0.0
C2754 C 0.67557 0.83888 0.45961 0.0
H2755 H 0.66976 0.81677 0.52443 0.0
H2756 H 0.66425 0.81255 0.5017 0.0
H2757 H 0.71308 0.86012 0.48343 0.0
H2758 H 0.6935 0.83617 0.41961 0.0
H2759 H 0.69739 0.83437 0.44195 0.0
C2760 C 0.13057 0.83711 0.51126 0.0
C2761 C 0.1462 0.84284 0.52076 0.0
C2762 C 0.1336 0.83467 0.49882 0.0
C2763 C 0.17481 0.85163 0.47872 0.0
H2764 H 0.13354 0.8115 0.45399 0.0
C2765 C 0.19068 0.84352 0.4282 0.0
C2766 C 0.17625 0.84175 0.41887 0.0
C2767 C 0.18643 0.84163 0.44055 0.0
C2768 C 0.14516 0.82286 0.46079 0.0
H2769 H 0.1768 0.84926 0.52479 0.0
H2770 H 0.18202 0.8447 0.50313 0.0
H2771 H 0.12711 0.81135 0.47582 0.0
H2772 H 0.14586 0.8362 0.4152 0.0
H2773 H 0.13842 0.83286 0.43681 0.0
H2774 H 0.1928 0.86324 0.46375 0.0
C2775 C 0.1676 0.84263 0.50523 0.0
C2776 C 0.14148 0.82278 0.47329 0.0
C2777 C 0.1646 0.84518 0.51763 0.0
C2778 C 0.15724 0.83746 0.42214 0.0
C2779 C 0.15298 0.83554 0.43452 0.0
C2780 C 0.1785 0.85165 0.46627 0.0
C2781 C 0.1523 0.83781 0.49564 0.0
C2782 C 0.15626 0.83722 0.4824 0.0
C2783 C 0.16763 0.83789 0.44388 0.0
C2784 C 0.16371 0.83732 0.45715 0.0
H2785 H 0.11628 0.83536 0.5134 0.0
H2786 H 0.12156 0.83114 0.49168 0.0
H2787 H 0.18638 0.86325 0.48543 0.0
H2788 H 0.20531 0.8464 0.42595 0.0
H2789 H 0.19791 0.84314 0.44752 0.0
C2790 C 0.66323 0.82076 0.14767 0.0
C2791 C 0.64996 0.82604 0.14185 0.0
C2792 C 0.66657 0.82267 0.16062 0.0
C2793 C 0.66171 0.84689 0.18957 0.0
H2794 H 0.65632 0.79949 0.20373 0.0
C2795 C 0.67785 0.84369 0.2422 0.0
C2796 C 0.66383 0.82632 0.24726 0.0
C2797 C 0.67653 0.84493 0.22939 0.0
C2798 C 0.65779 0.8128 0.1999 0.0
H2799 H 0.63025 0.83806 0.14514 0.0
H2800 H 0.63637 0.8417 0.16773 0.0
H2801 H 0.65446 0.80006 0.18121 0.0
H2802 H 0.63733 0.79674 0.24292 0.0
H2803 H 0.63503 0.79892 0.22055 0.0
H2804 H 0.66487 0.85952 0.20833 0.0
C2805 C 0.64424 0.83615 0.16224 0.0
C2806 C 0.65696 0.81322 0.18703 0.0
C2807 C 0.64078 0.83411 0.14929 0.0
C2808 C 0.64825 0.81038 0.2393 0.0
C2809 C 0.64705 0.81154 0.22649 0.0
C2810 C 0.66275 0.84654 0.20248 0.0
C2811 C 0.65682 0.83005 0.16803 0.0
C2812 C 0.65878 0.83021 0.18173 0.0
C2813 C 0.6613 0.82873 0.2214 0.0
C2814 C 0.66061 0.82941 0.20776 0.0
H2815 H 0.67085 0.81487 0.14221 0.0
H2816 H 0.67659 0.81815 0.16485 0.0
H2817 H 0.66324 0.8602 0.18572 0.0
H2818 H 0.68992 0.85626 0.24815 0.0
H2819 H 0.68775 0.85833 0.2257 0.0
C2820 C 0.17778 0.79598 0.15276 0.0
C2821 C 0.18568 0.81301 0.14612 0.0
C2822 C 0.17521 0.79766 0.16531 0.0
C2823 C 0.19129 0.83316 0.19357 0.0
H2824 H 0.14112 0.79197 0.20402 0.0
C2825 C 0.16773 0.83544 0.24343 0.0
C2826 C 0.15809 0.81695 0.24857 0.0
C2827 C 0.17192 0.83607 0.23102 0.0
C2828 C 0.1553 0.80347 0.20129 0.0
H2829 H 0.19758 0.8453 0.14759 0.0
H2830 H 0.19313 0.84826 0.16968 0.0
H2831 H 0.14697 0.79125 0.18223 0.0
H2832 H 0.1462 0.78478 0.24491 0.0
H2833 H 0.15358 0.78586 0.22335 0.0
H2834 H 0.19962 0.84528 0.21273 0.0
C2835 C 0.18898 0.83361 0.16509 0.0
C2836 C 0.15864 0.80307 0.1888 0.0
C2837 C 0.19153 0.83192 0.15246 0.0
C2838 C 0.15325 0.7992 0.24115 0.0
C2839 C 0.15746 0.79983 0.22879 0.0
C2840 C 0.18795 0.83354 0.20613 0.0
C2841 C 0.18051 0.81642 0.17159 0.0
C2842 C 0.17676 0.81773 0.18481 0.0
C2843 C 0.16658 0.81822 0.22351 0.0
C2844 C 0.17001 0.81853 0.21015 0.0
H2845 H 0.17361 0.78128 0.14825 0.0
H2846 H 0.16909 0.78421 0.17013 0.0
H2847 H 0.20544 0.84459 0.19078 0.0
H2848 H 0.17151 0.84936 0.2489 0.0
H2849 H 0.17883 0.85046 0.22721 0.0
C2850 C 0.19773 0.36513 0.15653 0.0
C2851 C 0.19181 0.37878 0.15281 0.0
C2852 C 0.19483 0.35866 0.16843 0.0
C2853 C 0.16273 0.3522 0.19337 0.0
H2854 H 0.20348 0.34911 0.21433 0.0
C2855 C 0.14556 0.31537 0.23908 0.0
C2856 C 0.15933 0.32646 0.24954 0.0
C2857 C 0.15024 0.32091 0.22716 0.0
C2858 C 0.19199 0.34993 0.20857 0.0
H2859 H 0.17921 0.39716 0.15893 0.0
H2860 H 0.17389 0.38565 0.17954 0.0
H2861 H 0.21071 0.36105 0.19376 0.0
H2862 H 0.18902 0.35193 0.2556 0.0
H2863 H 0.19725 0.36146 0.23473 0.0
H2864 H 0.14406 0.3413 0.20814 0.0
C2865 C 0.18046 0.3797 0.17319 0.0
C2866 C 0.19607 0.35661 0.19679 0.0
C2867 C 0.18347 0.38624 0.16137 0.0
C2868 C 0.17815 0.34291 0.24775 0.0
C2869 C 0.18287 0.34839 0.2358 0.0
C2870 C 0.1586 0.34537 0.20507 0.0
C2871 C 0.18585 0.36565 0.17679 0.0
C2872 C 0.18152 0.35798 0.18913 0.0
C2873 C 0.16885 0.33761 0.2254 0.0
C2874 C 0.17321 0.34427 0.21283 0.0
H2875 H 0.20407 0.35898 0.15013 0.0
H2876 H 0.19903 0.34774 0.17095 0.0
H2877 H 0.15115 0.35289 0.18761 0.0
H2878 H 0.13111 0.30236 0.24009 0.0
H2879 H 0.13926 0.31214 0.21929 0.0
C2880 C 0.81536 0.64491 0.84804 0.0
C2881 C 0.79576 0.63005 0.84989 0.0
C2882 C 0.82002 0.6512 0.83626 0.0
C2883 C 0.79804 0.65185 0.80517 0.0
H2884 H 0.84689 0.65578 0.79454 0.0
C2885 C 0.81705 0.65998 0.75417 0.0
C2886 C 0.83722 0.67286 0.7522 0.0
C2887 C 0.81169 0.6555 0.76617 0.0
C2888 C 0.83334 0.65504 0.79741 0.0
H2889 H 0.76557 0.61051 0.84086 0.0
H2890 H 0.77372 0.6216 0.82027 0.0
H2891 H 0.83805 0.64713 0.81538 0.0
H2892 H 0.86755 0.69113 0.76134 0.0
H2893 H 0.85815 0.68375 0.78224 0.0
H2894 H 0.79334 0.65975 0.78715 0.0
C2895 C 0.78543 0.62847 0.82797 0.0
C2896 C 0.82827 0.65006 0.80936 0.0
C2897 C 0.78076 0.62213 0.83977 0.0
C2898 C 0.85185 0.68132 0.76252 0.0
C2899 C 0.84649 0.67689 0.7745 0.0
C2900 C 0.80315 0.6569 0.7932 0.0
C2901 C 0.8052 0.64281 0.82606 0.0
C2902 C 0.81058 0.64842 0.81339 0.0
C2903 C 0.82638 0.66381 0.77647 0.0
C2904 C 0.82087 0.65856 0.78919 0.0
H2905 H 0.82716 0.65159 0.8557 0.0
H2906 H 0.8353 0.66257 0.83513 0.0
H2907 H 0.7844 0.65087 0.80805 0.0
H2908 H 0.80537 0.65339 0.74645 0.0
H2909 H 0.79609 0.64523 0.76734 0.0
C2910 C 0.34017 0.15989 0.85257 0.0
C2911 C 0.35474 0.17873 0.85869 0.0
C2912 C 0.33678 0.15706 0.83958 0.0
C2913 C 0.36104 0.17793 0.81157 0.0
H2914 H 0.3067 0.15219 0.79525 0.0
C2915 C 0.34432 0.16491 0.75811 0.0
C2916 C 0.33101 0.17086 0.75321 0.0
C2917 C 0.34645 0.16346 0.77085 0.0
C2918 C 0.32195 0.15938 0.79969 0.0
H2919 H 0.37743 0.20923 0.85602 0.0
H2920 H 0.37142 0.20434 0.83342 0.0
H2921 H 0.31215 0.15455 0.81791 0.0
H2922 H 0.30945 0.17989 0.75791 0.0
H2923 H 0.31302 0.17713 0.78006 0.0
H2924 H 0.37089 0.18323 0.79342 0.0
C2925 C 0.36265 0.19175 0.83863 0.0
C2926 C 0.32506 0.16057 0.81264 0.0
C2927 C 0.36591 0.19461 0.85158 0.0
C2928 C 0.31958 0.17492 0.76131 0.0
C2929 C 0.32163 0.17336 0.77403 0.0
C2930 C 0.35793 0.17661 0.79864 0.0
C2931 C 0.34808 0.17295 0.83248 0.0
C2932 C 0.34465 0.17018 0.81872 0.0
C2933 C 0.33523 0.16782 0.77895 0.0
C2934 C 0.33837 0.16761 0.79257 0.0
H2935 H 0.3313 0.14741 0.85783 0.0
H2936 H 0.32551 0.14239 0.83507 0.0
H2937 H 0.37631 0.18521 0.816 0.0
H2938 H 0.35311 0.16135 0.75211 0.0
H2939 H 0.35689 0.15893 0.77438 0.0
C2940 C 0.83294 0.18347 0.85098 0.0
C2941 C 0.81387 0.17795 0.85471 0.0
C2942 C 0.83548 0.18149 0.83842 0.0
C2943 C 0.80946 0.15663 0.80749 0.0
H2944 H 0.85227 0.20459 0.79579 0.0
C2945 C 0.83564 0.1599 0.75804 0.0
C2946 C 0.83882 0.17675 0.75198 0.0
C2947 C 0.83152 0.1588 0.77045 0.0
C2948 C 0.84022 0.19112 0.79892 0.0
H2949 H 0.78235 0.16519 0.84816 0.0
H2950 H 0.78678 0.16139 0.82622 0.0
H2951 H 0.84728 0.2042 0.81782 0.0
H2952 H 0.84006 0.20557 0.7541 0.0
H2953 H 0.83299 0.2037 0.77582 0.0
H2954 H 0.80244 0.14359 0.7885 0.0
C2955 C 0.79974 0.16728 0.83306 0.0
C2956 C 0.83749 0.19082 0.81153 0.0
C2957 C 0.79722 0.16942 0.84563 0.0
C2958 C 0.83754 0.19234 0.75851 0.0
C2959 C 0.83366 0.19135 0.77096 0.0
C2960 C 0.81236 0.15684 0.79485 0.0
C2961 C 0.81897 0.17375 0.82932 0.0
C2962 C 0.82206 0.17361 0.81595 0.0
C2963 C 0.83077 0.17465 0.77707 0.0
C2964 C 0.82769 0.17415 0.79045 0.0
H2965 H 0.84602 0.18965 0.85775 0.0
H2966 H 0.85042 0.18626 0.83581 0.0
H2967 H 0.79749 0.14315 0.81066 0.0
H2968 H 0.83639 0.1476 0.75318 0.0
H2969 H 0.82945 0.1458 0.77497 0.0
C2970 C 0.30709 0.16664 0.48278 0.0
C2971 C 0.31627 0.15868 0.47527 0.0
C2972 C 0.31062 0.16863 0.49573 0.0
C2973 C 0.32376 0.1458 0.52042 0.0
H2974 H 0.33141 0.19193 0.54179 0.0
C2975 C 0.31519 0.14282 0.57272 0.0
C2976 C 0.33062 0.15888 0.5807 0.0
C2977 C 0.31401 0.14395 0.55991 0.0
C2978 C 0.32938 0.179 0.53592 0.0
H2979 H 0.33722 0.14759 0.4755 0.0
H2980 H 0.34311 0.15077 0.49812 0.0
H2981 H 0.32964 0.19263 0.51918 0.0
H2982 H 0.35649 0.18897 0.58159 0.0
H2983 H 0.35437 0.19097 0.55914 0.0
H2984 H 0.32335 0.1321 0.5371 0.0
C2985 C 0.33302 0.15527 0.49396 0.0
C2986 C 0.32825 0.17936 0.52301 0.0
C2987 C 0.32961 0.15341 0.48101 0.0
C2988 C 0.34454 0.17631 0.57564 0.0
C2989 C 0.34324 0.17751 0.56282 0.0
C2990 C 0.32468 0.14537 0.5333 0.0
C2991 C 0.3233 0.16257 0.50144 0.0
C2992 C 0.32539 0.16273 0.51514 0.0
C2993 C 0.32814 0.16122 0.55482 0.0
C2994 C 0.32741 0.16192 0.54117 0.0
H2995 H 0.2965 0.17058 0.4787 0.0
H2996 H 0.30276 0.17412 0.50127 0.0
H2997 H 0.32132 0.13268 0.51458 0.0
H2998 H 0.30436 0.12914 0.57634 0.0
H2999 H 0.30209 0.13125 0.55396 0.0
C3000 C 0.85783 0.16444 0.48595 0.0
C3001 C 0.85225 0.14557 0.47965 0.0
C3002 C 0.85518 0.16611 0.49856 0.0
C3003 C 0.82495 0.1355 0.52225 0.0
H3004 H 0.8656 0.17801 0.54617 0.0
C3005 C 0.81922 0.13195 0.57459 0.0
C3006 C 0.82394 0.14972 0.58194 0.0
C3007 C 0.82351 0.13252 0.56224 0.0
C3008 C 0.85401 0.16619 0.53957 0.0
H3009 H 0.84053 0.1139 0.48183 0.0
H3010 H 0.83582 0.11681 0.50369 0.0
H3011 H 0.87157 0.17727 0.52425 0.0
H3012 H 0.8372 0.1821 0.58216 0.0
H3013 H 0.84463 0.18308 0.5605 0.0
H3014 H 0.80735 0.12437 0.53743 0.0
C3015 C 0.84182 0.13023 0.49885 0.0
C3016 C 0.85744 0.16577 0.52703 0.0
C3017 C 0.8445 0.12857 0.48631 0.0
C3018 C 0.83352 0.16817 0.57675 0.0
C3019 C 0.83778 0.16873 0.56435 0.0
C3020 C 0.82151 0.13593 0.53472 0.0
C3021 C 0.84687 0.14895 0.50508 0.0
C3022 C 0.84304 0.15024 0.51828 0.0
C3023 C 0.83257 0.15086 0.55691 0.0
C3024 C 0.8361 0.1511 0.54357 0.0
H3025 H 0.86375 0.1778 0.48106 0.0
H3026 H 0.85914 0.18073 0.50311 0.0
H3027 H 0.81337 0.12359 0.51568 0.0
H3028 H 0.81222 0.11756 0.57839 0.0
H3029 H 0.81973 0.11853 0.55686 0.0
C3030 C 0.85678 0.72702 0.49567 0.0
C3031 C 0.86138 0.71632 0.48676 0.0
C3032 C 0.85414 0.72153 0.50774 0.0
C3033 C 0.86345 0.69223 0.53045 0.0
H3034 H 0.81918 0.69287 0.54526 0.0
C3035 C 0.83422 0.65743 0.57617 0.0
C3036 C 0.82952 0.6687 0.58463 0.0
C3037 C 0.83918 0.66347 0.56435 0.0
C3038 C 0.83173 0.69281 0.54131 0.0
H3039 H 0.86739 0.69182 0.48356 0.0
H3040 H 0.86249 0.68197 0.50471 0.0
H3041 H 0.82599 0.70289 0.52443 0.0
H3042 H 0.82643 0.69516 0.58734 0.0
H3043 H 0.83524 0.70577 0.56677 0.0
H3044 H 0.86895 0.68186 0.54738 0.0
C3045 C 0.86115 0.69477 0.50238 0.0
C3046 C 0.83567 0.69859 0.52937 0.0
C3047 C 0.86392 0.70037 0.49027 0.0
C3048 C 0.83013 0.68625 0.58107 0.0
C3049 C 0.83498 0.69222 0.56925 0.0
C3050 C 0.85944 0.68635 0.54241 0.0
C3051 C 0.85591 0.70511 0.51119 0.0
C3052 C 0.85167 0.69854 0.52382 0.0
C3053 C 0.83939 0.68081 0.56073 0.0
C3054 C 0.84362 0.68673 0.54799 0.0
H3055 H 0.85514 0.73965 0.49328 0.0
H3056 H 0.85062 0.73015 0.51437 0.0
H3057 H 0.876 0.69219 0.52648 0.0
H3058 H 0.83407 0.64395 0.5787 0.0
H3059 H 0.8424 0.65432 0.55795 0.0
loop_
_geom_bond_atom_site_label_1
_geom_bond_atom_site_label_2
_geom_bond_distance
_geom_bond_site_symmetry_2
_ccdc_geom_bond_type
C0 C1 1.391 . S
C0 C4 1.391 . S
C0 H42 0.948 . S
C1 C0 1.391 . S
C1 C2 1.391 . S
C2 C1 1.391 . S
C2 H58 0.947 . S
C2 C59 1.392 . S
C3 C4 1.391 . S
C3 C7 1.397 . S
C3 C59 1.419 . S
C4 C0 1.391 . S
C4 C3 1.391 . S
C4 C5 1.399 . S
C5 C4 1.399 . S
C5 C8 1.396 . S
C5 C17 1.453 . S
C5 C18 1.684 . S
H6 C30 0.948 . S
C7 C3 1.397 . S
C7 C8 1.394 . S
C7 C26 1.723 . S
C8 C5 1.396 . S
C8 C7 1.394 . S
C8 C38 1.723 . S
H9 C32 0.947 . S
H10 C33 0.948 . S
H11 C39 0.982 . S
H12 C40 0.979 . S
H13 C40 0.980 . S
H14 C40 0.983 . S
H15 C39 0.979 . S
H16 C39 0.977 . S
C17 C5 1.453 . S
C17 H46 0.982 . S
C17 H47 0.979 . S
C17 H48 0.977 . S
C18 C5 1.684 . S
C18 H43 0.979 . S
C18 H44 0.980 . S
C18 H45 0.983 . S
C19 C20 1.391 . S
C19 C24 1.391 . S
C19 H49 0.948 . S
C20 C19 1.391 . S
C20 C21 1.391 . S
C21 C20 1.391 . S
C21 C22 1.392 . S
C21 H50 0.947 . S
C22 C21 1.392 . S
C22 C23 1.419 . S
C22 H51 0.948 . S
C23 C22 1.419 . S
C23 C24 1.391 . S
C23 C27 1.397 . S
C24 C19 1.391 . S
C24 C23 1.391 . S
C24 C25 1.399 . S
C25 C24 1.399 . S
C25 C26 1.396 . S
C25 C28 1.453 . S
C25 C29 1.684 . S
C26 C7 1.723 . S
C26 C25 1.396 . S
C26 C27 1.394 . S
C27 C23 1.397 . S
C27 C26 1.394 . S
C27 C37 1.723 . S
C28 C25 1.453 . S
C28 H52 0.982 . S
C28 H53 0.979 . S
C28 H54 0.977 . S
C29 C25 1.684 . S
C29 H55 0.979 . S
C29 H56 0.980 . S
C29 H57 0.983 . S
C30 H6 0.948 . S
C30 C31 1.391 . S
C30 C35 1.391 . S
C31 C30 1.391 . S
C31 C32 1.391 . S
C32 H9 0.947 . S
C32 C31 1.391 . S
C32 C33 1.392 . S
C33 H10 0.948 . S
C33 C32 1.392 . S
C33 C34 1.419 . S
C34 C33 1.419 . S
C34 C35 1.391 . S
C34 C38 1.397 . S
C35 C30 1.391 . S
C35 C34 1.391 . S
C35 C36 1.399 . S
C36 C35 1.399 . S
C36 C37 1.396 . S
C36 C39 1.453 . S
C36 C40 1.684 . S
C37 C27 1.723 . S
C37 C36 1.396 . S
C37 C38 1.394 . S
C38 C8 1.723 . S
C38 C34 1.397 . S
C38 C37 1.394 . S
C39 H11 0.982 . S
C39 H15 0.979 . S
C39 H16 0.977 . S
C39 C36 1.453 . S
C40 H12 0.979 . S
C40 H13 0.980 . S
C40 H14 0.983 . S
C40 C36 1.684 . S
H41 C59 0.948 . S
H42 C0 0.948 . S
H43 C18 0.979 . S
H44 C18 0.980 . S
H45 C18 0.983 . S
H46 C17 0.982 . S
H47 C17 0.979 . S
H48 C17 0.977 . S
H49 C19 0.948 . S
H50 C21 0.947 . S
H51 C22 0.948 . S
H52 C28 0.982 . S
H53 C28 0.979 . S
H54 C28 0.977 . S
H55 C29 0.979 . S
H56 C29 0.980 . S
H57 C29 0.983 . S
H58 C2 0.947 . S
C59 C2 1.392 . S
C59 C3 1.419 . S
C59 H41 0.948 . S
C60 C61 1.391 . S
C60 C64 1.391 . S
C60 H102 0.948 . S
C61 C60 1.391 . S
C61 C62 1.391 . S
C62 C61 1.391 . S
C62 H118 0.947 . S
C62 C119 1.392 . S
C63 C64 1.391 . S
C63 C67 1.397 . S
C63 C119 1.419 . S
C64 C60 1.391 . S
C64 C63 1.391 . S
C64 C65 1.399 . S
C65 C64 1.399 . S
C65 C68 1.396 . S
C65 C77 1.453 . S
C65 C78 1.684 . S
H66 C90 0.948 . S
C67 C63 1.397 . S
C67 C68 1.394 . S
C67 C86 1.723 . S
C68 C65 1.396 . S
C68 C67 1.394 . S
C68 C98 1.723 . S
H69 C92 0.947 . S
H70 C93 0.948 . S
H71 C99 0.982 . S
H72 C100 0.979 . S
H73 C100 0.980 . S
H74 C100 0.983 . S
H75 C99 0.979 . S
H76 C99 0.977 . S
C77 C65 1.453 . S
C77 H106 0.982 . S
C77 H107 0.979 . S
C77 H108 0.977 . S
C78 C65 1.684 . S
C78 H103 0.979 . S
C78 H104 0.980 . S
C78 H105 0.983 . S
C79 C80 1.391 . S
C79 C84 1.391 . S
C79 H109 0.948 . S
C80 C79 1.391 . S
C80 C81 1.391 . S
C81 C80 1.391 . S
C81 C82 1.392 . S
C81 H110 0.947 . S
C82 C81 1.392 . S
C82 C83 1.419 . S
C82 H111 0.948 . S
C83 C82 1.419 . S
C83 C84 1.391 . S
C83 C87 1.397 . S
C84 C79 1.391 . S
C84 C83 1.391 . S
C84 C85 1.399 . S
C85 C84 1.399 . S
C85 C86 1.396 . S
C85 C88 1.453 . S
C85 C89 1.684 . S
C86 C67 1.723 . S
C86 C85 1.396 . S
C86 C87 1.394 . S
C87 C83 1.397 . S
C87 C86 1.394 . S
C87 C97 1.723 . S
C88 C85 1.453 . S
C88 H112 0.982 . S
C88 H113 0.979 . S
C88 H114 0.977 . S
C89 C85 1.684 . S
C89 H115 0.979 . S
C89 H116 0.980 . S
C89 H117 0.983 . S
C90 H66 0.948 . S
C90 C91 1.391 . S
C90 C95 1.391 . S
C91 C90 1.391 . S
C91 C92 1.391 . S
C92 H69 0.947 . S
C92 C91 1.391 . S
C92 C93 1.392 . S
C93 H70 0.948 . S
C93 C92 1.392 . S
C93 C94 1.419 . S
C94 C93 1.419 . S
C94 C95 1.391 . S
C94 C98 1.397 . S
C95 C90 1.391 . S
C95 C94 1.391 . S
C95 C96 1.399 . S
C96 C95 1.399 . S
C96 C97 1.396 . S
C96 C99 1.453 . S
C96 C100 1.684 . S
C97 C87 1.723 . S
C97 C96 1.396 . S
C97 C98 1.394 . S
C98 C68 1.723 . S
C98 C94 1.397 . S
C98 C97 1.394 . S
C99 H71 0.982 . S
C99 H75 0.979 . S
C99 H76 0.977 . S
C99 C96 1.453 . S
C100 H72 0.979 . S
C100 H73 0.980 . S
C100 H74 0.983 . S
C100 C96 1.684 . S
H101 C119 0.948 . S
H102 C60 0.948 . S
H103 C78 0.979 . S
H104 C78 0.980 . S
H105 C78 0.983 . S
H106 C77 0.982 . S
H107 C77 0.979 . S
H108 C77 0.977 . S
H109 C79 0.948 . S
H110 C81 0.947 . S
H111 C82 0.948 . S
H112 C88 0.982 . S
H113 C88 0.979 . S
H114 C88 0.977 . S
H115 C89 0.979 . S
H116 C89 0.980 . S
H117 C89 0.983 . S
H118 C62 0.947 . S
C119 C62 1.392 . S
C119 C63 1.419 . S
C119 H101 0.948 . S
C120 C121 1.391 . S
C120 C124 1.391 . S
C120 H162 0.948 . S
C121 C120 1.391 . S
C121 C122 1.391 . S
C122 C121 1.391 . S
C122 H178 0.947 . S
C122 C179 1.392 . S
C123 C124 1.391 . S
C123 C127 1.397 . S
C123 C179 1.419 . S
C124 C120 1.391 . S
C124 C123 1.391 . S
C124 C125 1.399 . S
C125 C124 1.399 . S
C125 C128 1.396 . S
C125 C137 1.453 . S
C125 C138 1.684 . S
H126 C150 0.948 . S
C127 C123 1.397 . S
C127 C128 1.394 . S
C127 C146 1.723 . S
C128 C125 1.396 . S
C128 C127 1.394 . S
C128 C158 1.723 . S
H129 C152 0.947 . S
H130 C153 0.948 . S
H131 C159 0.982 . S
H132 C160 0.979 . S
H133 C160 0.980 . S
H134 C160 0.983 . S
H135 C159 0.979 . S
H136 C159 0.977 . S
C137 C125 1.453 . S
C137 H166 0.982 . S
C137 H167 0.979 . S
C137 H168 0.977 . S
C138 C125 1.684 . S
C138 H163 0.979 . S
C138 H164 0.980 . S
C138 H165 0.983 . S
C139 C140 1.391 . S
C139 C144 1.391 . S
C139 H169 0.948 . S
C140 C139 1.391 . S
C140 C141 1.391 . S
C141 C140 1.391 . S
C141 C142 1.392 . S
C141 H170 0.947 . S
C142 C141 1.392 . S
C142 C143 1.419 . S
C142 H171 0.948 . S
C143 C142 1.419 . S
C143 C144 1.391 . S
C143 C147 1.397 . S
C144 C139 1.391 . S
C144 C143 1.391 . S
C144 C145 1.399 . S
C145 C144 1.399 . S
C145 C146 1.396 . S
C145 C148 1.453 . S
C145 C149 1.684 . S
C146 C127 1.723 . S
C146 C145 1.396 . S
C146 C147 1.394 . S
C147 C143 1.397 . S
C147 C146 1.394 . S
C147 C157 1.723 . S
C148 C145 1.453 . S
C148 H172 0.982 . S
C148 H173 0.979 . S
C148 H174 0.977 . S
C149 C145 1.684 . S
C149 H175 0.979 . S
C149 H176 0.980 . S
C149 H177 0.983 . S
C150 H126 0.948 . S
C150 C151 1.391 . S
C150 C155 1.391 . S
C151 C150 1.391 . S
C151 C152 1.391 . S
C152 H129 0.947 . S
C152 C151 1.391 . S
C152 C153 1.392 . S
C153 H130 0.948 . S
C153 C152 1.392 . S
C153 C154 1.419 . S
C154 C153 1.419 . S
C154 C155 1.391 . S
C154 C158 1.397 . S
C155 C150 1.391 . S
C155 C154 1.391 . S
C155 C156 1.399 . S
C156 C155 1.399 . S
C156 C157 1.396 . S
C156 C159 1.453 . S
C156 C160 1.684 . S
C157 C147 1.723 . S
C157 C156 1.396 . S
C157 C158 1.394 . S
C158 C128 1.723 . S
C158 C154 1.397 . S
C158 C157 1.394 . S
C159 H131 0.982 . S
C159 H135 0.979 . S
C159 H136 0.977 . S
C159 C156 1.453 . S
C160 H132 0.979 . S
C160 H133 0.980 . S
C160 H134 0.983 . S
C160 C156 1.684 . S
H161 C179 0.948 . S
H162 C120 0.948 . S
H163 C138 0.979 . S
H164 C138 0.980 . S
H165 C138 0.983 . S
H166 C137 0.982 . S
H167 C137 0.979 . S
H168 C137 0.977 . S
H169 C139 0.948 . S
H170 C141 0.947 . S
H171 C142 0.948 . S
H172 C148 0.982 . S
H173 C148 0.979 . S
H174 C148 0.977 . S
H175 C149 0.979 . S
H176 C149 0.980 . S
H177 C149 0.983 . S
H178 C122 0.947 . S
C179 C122 1.392 . S
C179 C123 1.419 . S
C179 H161 0.948 . S
C180 C181 1.391 . S
C180 C184 1.391 . S
C180 H222 0.948 . S
C181 C180 1.391 . S
C181 C182 1.391 . S
C182 C181 1.391 . S
C182 H238 0.947 . S
C182 C239 1.392 . S
C183 C184 1.391 . S
C183 C187 1.397 . S
C183 C239 1.419 . S
C184 C180 1.391 . S
C184 C183 1.391 . S
C184 C185 1.399 . S
C185 C184 1.399 . S
C185 C188 1.396 . S
C185 C197 1.453 . S
C185 C198 1.684 . S
H186 C210 0.948 . S
C187 C183 1.397 . S
C187 C188 1.394 . S
C187 C206 1.723 . S
C188 C185 1.396 . S
C188 C187 1.394 . S
C188 C218 1.723 . S
H189 C212 0.947 . S
H190 C213 0.948 . S
H191 C219 0.982 . S
H192 C220 0.979 . S
H193 C220 0.980 . S
H194 C220 0.983 . S
H195 C219 0.979 . S
H196 C219 0.977 . S
C197 C185 1.453 . S
C197 H226 0.982 . S
C197 H227 0.979 . S
C197 H228 0.977 . S
C198 C185 1.684 . S
C198 H223 0.979 . S
C198 H224 0.980 . S
C198 H225 0.983 . S
C199 C200 1.391 . S
C199 C204 1.391 . S
C199 H229 0.948 . S
C200 C199 1.391 . S
C200 C201 1.391 . S
C201 C200 1.391 . S
C201 C202 1.392 . S
C201 H230 0.947 . S
C202 C201 1.392 . S
C202 C203 1.419 . S
C202 H231 0.948 . S
C203 C202 1.419 . S
C203 C204 1.391 . S
C203 C207 1.397 . S
C204 C199 1.391 . S
C204 C203 1.391 . S
C204 C205 1.399 . S
C205 C204 1.399 . S
C205 C206 1.396 . S
C205 C208 1.453 . S
C205 C209 1.684 . S
C206 C187 1.723 . S
C206 C205 1.396 . S
C206 C207 1.394 . S
C207 C203 1.397 . S
C207 C206 1.394 . S
C207 C217 1.723 . S
C208 C205 1.453 . S
C208 H232 0.982 . S
C208 H233 0.979 . S
C208 H234 0.977 . S
C209 C205 1.684 . S
C209 H235 0.979 . S
C209 H236 0.980 . S
C209 H237 0.983 . S
C210 H186 0.948 . S
C210 C211 1.391 . S
C210 C215 1.391 . S
C211 C210 1.391 . S
C211 C212 1.391 . S
C212 H189 0.947 . S
C212 C211 1.391 . S
C212 C213 1.392 . S
C213 H190 0.948 . S
C213 C212 1.392 . S
C213 C214 1.419 . S
C214 C213 1.419 . S
C214 C215 1.391 . S
C214 C218 1.397 . S
C215 C210 1.391 . S
C215 C214 1.391 . S
C215 C216 1.399 . S
C216 C215 1.399 . S
C216 C217 1.396 . S
C216 C219 1.453 . S
C216 C220 1.684 . S
C217 C207 1.723 . S
C217 C216 1.396 . S
C217 C218 1.394 . S
C218 C188 1.723 . S
C218 C214 1.397 . S
C218 C217 1.394 . S
C219 H191 0.982 . S
C219 H195 0.979 . S
C219 H196 0.977 . S
C219 C216 1.453 . S
C220 H192 0.979 . S
C220 H193 0.980 . S
C220 H194 0.983 . S
C220 C216 1.684 . S
H221 C239 0.948 . S
H222 C180 0.948 . S
H223 C198 0.979 . S
H224 C198 0.980 . S
H225 C198 0.983 . S
H226 C197 0.982 . S
H227 C197 0.979 . S
H228 C197 0.977 . S
H229 C199 0.948 . S
H230 C201 0.947 . S
H231 C202 0.948 . S
H232 C208 0.982 . S
H233 C208 0.979 . S
H234 C208 0.977 . S
H235 C209 0.979 . S
H236 C209 0.980 . S
H237 C209 0.983 . S
H238 C182 0.947 . S
C239 C182 1.392 . S
C239 C183 1.419 . S
C239 H221 0.948 . S
C240 C241 1.391 . S
C240 C244 1.391 . S
C240 H282 0.948 . S
C241 C240 1.391 . S
C241 C242 1.391 . S
C242 C241 1.391 . S
C242 H298 0.947 . S
C242 C299 1.392 . S
C243 C244 1.391 . S
C243 C247 1.397 . S
C243 C299 1.419 . S
C244 C240 1.391 . S
C244 C243 1.391 . S
C244 C245 1.399 . S
C245 C244 1.399 . S
C245 C248 1.396 . S
C245 C257 1.453 . S
C245 C258 1.684 . S
H246 C270 0.948 . S
C247 C243 1.397 . S
C247 C248 1.394 . S
C247 C266 1.723 . S
C248 C245 1.396 . S
C248 C247 1.394 . S
C248 C278 1.723 . S
H249 C272 0.947 . S
H250 C273 0.948 . S
H251 C279 0.982 . S
H252 C280 0.979 . S
H253 C280 0.980 . S
H254 C280 0.983 . S
H255 C279 0.979 . S
H256 C279 0.977 . S
C257 C245 1.453 . S
C257 H286 0.982 . S
C257 H287 0.979 . S
C257 H288 0.977 . S
C258 C245 1.684 . S
C258 H283 0.979 . S
C258 H284 0.980 . S
C258 H285 0.983 . S
C259 C260 1.391 . S
C259 C264 1.391 . S
C259 H289 0.948 . S
C260 C259 1.391 . S
C260 C261 1.391 . S
C261 C260 1.391 . S
C261 C262 1.392 . S
C261 H290 0.947 . S
C262 C261 1.392 . S
C262 C263 1.419 . S
C262 H291 0.948 . S
C263 C262 1.419 . S
C263 C264 1.391 . S
C263 C267 1.397 . S
C264 C259 1.391 . S
C264 C263 1.391 . S
C264 C265 1.399 . S
C265 C264 1.399 . S
C265 C266 1.396 . S
C265 C268 1.453 . S
C265 C269 1.684 . S
C266 C247 1.723 . S
C266 C265 1.396 . S
C266 C267 1.394 . S
C267 C263 1.397 . S
C267 C266 1.394 . S
C267 C277 1.723 . S
C268 C265 1.453 . S
C268 H292 0.982 . S
C268 H293 0.979 . S
C268 H294 0.977 . S
C269 C265 1.684 . S
C269 H295 0.979 . S
C269 H296 0.980 . S
C269 H297 0.983 . S
C270 H246 0.948 . S
C270 C271 1.391 . S
C270 C275 1.391 . S
C271 C270 1.391 . S
C271 C272 1.391 . S
C272 H249 0.947 . S
C272 C271 1.391 . S
C272 C273 1.392 . S
C273 H250 0.948 . S
C273 C272 1.392 . S
C273 C274 1.419 . S
C274 C273 1.419 . S
C274 C275 1.391 . S
C274 C278 1.397 . S
C275 C270 1.391 . S
C275 C274 1.391 . S
C275 C276 1.399 . S
C276 C275 1.399 . S
C276 C277 1.396 . S
C276 C279 1.453 . S
C276 C280 1.684 . S
C277 C267 1.723 . S
C277 C276 1.396 . S
C277 C278 1.394 . S
C278 C248 1.723 . S
C278 C274 1.397 . S
C278 C277 1.394 . S
C279 H251 0.982 . S
C279 H255 0.979 . S
C279 H256 0.977 . S
C279 C276 1.453 . S
C280 H252 0.979 . S
C280 H253 0.980 . S
C280 H254 0.983 . S
C280 C276 1.684 . S
H281 C299 0.948 . S
H282 C240 0.948 . S
H283 C258 0.979 . S
H284 C258 0.980 . S
H285 C258 0.983 . S
H286 C257 0.982 . S
H287 C257 0.979 . S
H288 C257 0.977 . S
H289 C259 0.948 . S
H290 C261 0.947 . S
H291 C262 0.948 . S
H292 C268 0.982 . S
H293 C268 0.979 . S
H294 C268 0.977 . S
H295 C269 0.979 . S
H296 C269 0.980 . S
H297 C269 0.983 . S
H298 C242 0.947 . S
C299 C242 1.392 . S
C299 C243 1.419 . S
C299 H281 0.948 . S
C300 C301 1.391 . S
C300 C304 1.391 . S
C300 H342 0.948 . S
C301 C300 1.391 . S
C301 C302 1.391 . S
C302 C301 1.391 . S
C302 H358 0.947 . S
C302 C359 1.392 . S
C303 C304 1.391 . S
C303 C307 1.397 . S
C303 C359 1.419 . S
C304 C300 1.391 . S
C304 C303 1.391 . S
C304 C305 1.399 . S
C305 C304 1.399 . S
C305 C308 1.396 . S
C305 C317 1.453 . S
C305 C318 1.684 . S
H306 C330 0.948 . S
C307 C303 1.397 . S
C307 C308 1.394 . S
C307 C326 1.723 . S
C308 C305 1.396 . S
C308 C307 1.394 . S
C308 C338 1.723 . S
H309 C332 0.947 . S
H310 C333 0.948 . S
H311 C339 0.982 . S
H312 C340 0.979 . S
H313 C340 0.980 . S
H314 C340 0.983 . S
H315 C339 0.979 . S
H316 C339 0.977 . S
C317 C305 1.453 . S
C317 H346 0.982 . S
C317 H347 0.979 . S
C317 H348 0.977 . S
C318 C305 1.684 . S
C318 H343 0.979 . S
C318 H344 0.980 . S
C318 H345 0.983 . S
C319 C320 1.391 . S
C319 C324 1.391 . S
C319 H349 0.948 . S
C320 C319 1.391 . S
C320 C321 1.391 . S
C321 C320 1.391 . S
C321 C322 1.392 . S
C321 H350 0.947 . S
C322 C321 1.392 . S
C322 C323 1.419 . S
C322 H351 0.948 . S
C323 C322 1.419 . S
C323 C324 1.391 . S
C323 C327 1.397 . S
C324 C319 1.391 . S
C324 C323 1.391 . S
C324 C325 1.399 . S
C325 C324 1.399 . S
C325 C326 1.396 . S
C325 C328 1.453 . S
C325 C329 1.684 . S
C326 C307 1.723 . S
C326 C325 1.396 . S
C326 C327 1.394 . S
C327 C323 1.397 . S
C327 C326 1.394 . S
C327 C337 1.723 . S
C328 C325 1.453 . S
C328 H352 0.982 . S
C328 H353 0.979 . S
C328 H354 0.977 . S
C329 C325 1.684 . S
C329 H355 0.979 . S
C329 H356 0.980 . S
C329 H357 0.983 . S
C330 H306 0.948 . S
C330 C331 1.391 . S
C330 C335 1.391 . S
C331 C330 1.391 . S
C331 C332 1.391 . S
C332 H309 0.947 . S
C332 C331 1.391 . S
C332 C333 1.392 . S
C333 H310 0.948 . S
C333 C332 1.392 . S
C333 C334 1.419 . S
C334 C333 1.419 . S
C334 C335 1.391 . S
C334 C338 1.397 . S
C335 C330 1.391 . S
C335 C334 1.391 . S
C335 C336 1.399 . S
C336 C335 1.399 . S
C336 C337 1.396 . S
C336 C339 1.453 . S
C336 C340 1.684 . S
C337 C327 1.723 . S
C337 C336 1.396 . S
C337 C338 1.394 . S
C338 C308 1.723 . S
C338 C334 1.397 . S
C338 C337 1.394 . S
C339 H311 0.982 . S
C339 H315 0.979 . S
C339 H316 0.977 . S
C339 C336 1.453 . S
C340 H312 0.979 . S
C340 H313 0.980 . S
C340 H314 0.983 . S
C340 C336 1.684 . S
H341 C359 0.948 . S
H342 C300 0.948 . S
H343 C318 0.979 . S
H344 C318 0.980 . S
H345 C318 0.983 . S
H346 C317 0.982 . S
H347 C317 0.979 . S
H348 C317 0.977 . S
H349 C319 0.948 . S
H350 C321 0.947 . S
H351 C322 0.948 . S
H352 C328 0.982 . S
H353 C328 0.979 . S
H354 C328 0.977 . S
H355 C329 0.979 . S
H356 C329 0.980 . S
H357 C329 0.983 . S
H358 C302 0.947 . S
C359 C302 1.392 . S
C359 C303 1.419 . S
C359 H341 0.948 . S
C360 C361 1.391 . S
C360 C364 1.391 . S
C360 H402 0.948 . S
C361 C360 1.391 . S
C361 C362 1.391 . S
C362 C361 1.391 . S
C362 H418 0.947 . S
C362 C419 1.392 . S
C363 C364 1.391 . S
C363 C367 1.397 . S
C363 C419 1.419 . S
C364 C360 1.391 . S
C364 C363 1.391 . S
C364 C365 1.399 . S
C365 C364 1.399 . S
C365 C368 1.396 . S
C365 C377 1.453 . S
C365 C378 1.684 . S
H366 C390 0.948 . S
C367 C363 1.397 . S
C367 C368 1.394 . S
C367 C386 1.723 . S
C368 C365 1.396 . S
C368 C367 1.394 . S
C368 C398 1.723 . S
H369 C392 0.947 . S
H370 C393 0.948 . S
H371 C399 0.982 . S
H372 C400 0.979 . S
H373 C400 0.980 . S
H374 C400 0.983 . S
H375 C399 0.979 . S
H376 C399 0.977 . S
C377 C365 1.453 . S
C377 H406 0.982 . S
C377 H407 0.979 . S
C377 H408 0.977 . S
C378 C365 1.684 . S
C378 H403 0.979 . S
C378 H404 0.980 . S
C378 H405 0.983 . S
C379 C380 1.391 . S
C379 C384 1.391 . S
C379 H409 0.948 . S
C380 C379 1.391 . S
C380 C381 1.391 . S
C381 C380 1.391 . S
C381 C382 1.392 . S
C381 H410 0.947 . S
C382 C381 1.392 . S
C382 C383 1.419 . S
C382 H411 0.948 . S
C383 C382 1.419 . S
C383 C384 1.391 . S
C383 C387 1.397 . S
C384 C379 1.391 . S
C384 C383 1.391 . S
C384 C385 1.399 . S
C385 C384 1.399 . S
C385 C386 1.396 . S
C385 C388 1.453 . S
C385 C389 1.684 . S
C386 C367 1.723 . S
C386 C385 1.396 . S
C386 C387 1.394 . S
C387 C383 1.397 . S
C387 C386 1.394 . S
C387 C397 1.723 . S
C388 C385 1.453 . S
C388 H412 0.982 . S
C388 H413 0.979 . S
C388 H414 0.977 . S
C389 C385 1.684 . S
C389 H415 0.979 . S
C389 H416 0.980 . S
C389 H417 0.983 . S
C390 H366 0.948 . S
C390 C391 1.391 . S
C390 C395 1.391 . S
C391 C390 1.391 . S
C391 C392 1.391 . S
C392 H369 0.947 . S
C392 C391 1.391 . S
C392 C393 1.392 . S
C393 H370 0.948 . S
C393 C392 1.392 . S
C393 C394 1.419 . S
C394 C393 1.419 . S
C394 C395 1.391 . S
C394 C398 1.397 . S
C395 C390 1.391 . S
C395 C394 1.391 . S
C395 C396 1.399 . S
C396 C395 1.399 . S
C396 C397 1.396 . S
C396 C399 1.453 . S
C396 C400 1.684 . S
C397 C387 1.723 . S
C397 C396 1.396 . S
C397 C398 1.394 . S
C398 C368 1.723 . S
C398 C394 1.397 . S
C398 C397 1.394 . S
C399 H371 0.982 . S
C399 H375 0.979 . S
C399 H376 0.977 . S
C399 C396 1.453 . S
C400 H372 0.979 . S
C400 H373 0.980 . S
C400 H374 0.983 . S
C400 C396 1.684 . S
H401 C419 0.948 . S
H402 C360 0.948 . S
H403 C378 0.979 . S
H404 C378 0.980 . S
H405 C378 0.983 . S
H406 C377 0.982 . S
H407 C377 0.979 . S
H408 C377 0.977 . S
H409 C379 0.948 . S
H410 C381 0.947 . S
H411 C382 0.948 . S
H412 C388 0.982 . S
H413 C388 0.979 . S
H414 C388 0.977 . S
H415 C389 0.979 . S
H416 C389 0.980 . S
H417 C389 0.983 . S
H418 C362 0.947 . S
C419 C362 1.392 . S
C419 C363 1.419 . S
C419 H401 0.948 . S
C420 C421 1.391 . S
C420 C424 1.391 . S
C420 H462 0.948 . S
C421 C420 1.391 . S
C421 C422 1.391 . S
C422 C421 1.391 . S
C422 H478 0.947 . S
C422 C479 1.392 . S
C423 C424 1.391 . S
C423 C427 1.397 . S
C423 C479 1.419 . S
C424 C420 1.391 . S
C424 C423 1.391 . S
C424 C425 1.399 . S
C425 C424 1.399 . S
C425 C428 1.396 . S
C425 C437 1.453 . S
C425 C438 1.684 . S
H426 C450 0.948 . S
C427 C423 1.397 . S
C427 C428 1.394 . S
C427 C446 1.723 . S
C428 C425 1.396 . S
C428 C427 1.394 . S
C428 C458 1.723 . S
H429 C452 0.947 . S
H430 C453 0.948 . S
H431 C459 0.982 . S
H432 C460 0.979 . S
H433 C460 0.980 . S
H434 C460 0.983 . S
H435 C459 0.979 . S
H436 C459 0.977 . S
C437 C425 1.453 . S
C437 H466 0.982 . S
C437 H467 0.979 . S
C437 H468 0.977 . S
C438 C425 1.684 . S
C438 H463 0.979 . S
C438 H464 0.980 . S
C438 H465 0.983 . S
C439 C440 1.391 . S
C439 C444 1.391 . S
C439 H469 0.948 . S
C440 C439 1.391 . S
C440 C441 1.391 . S
C441 C440 1.391 . S
C441 C442 1.392 . S
C441 H470 0.947 . S
C442 C441 1.392 . S
C442 C443 1.419 . S
C442 H471 0.948 . S
C443 C442 1.419 . S
C443 C444 1.391 . S
C443 C447 1.397 . S
C444 C439 1.391 . S
C444 C443 1.391 . S
C444 C445 1.399 . S
C445 C444 1.399 . S
C445 C446 1.396 . S
C445 C448 1.453 . S
C445 C449 1.684 . S
C446 C427 1.723 . S
C446 C445 1.396 . S
C446 C447 1.394 . S
C447 C443 1.397 . S
C447 C446 1.394 . S
C447 C457 1.723 . S
C448 C445 1.453 . S
C448 H472 0.982 . S
C448 H473 0.979 . S
C448 H474 0.977 . S
C449 C445 1.684 . S
C449 H475 0.979 . S
C449 H476 0.980 . S
C449 H477 0.983 . S
C450 H426 0.948 . S
C450 C451 1.391 . S
C450 C455 1.391 . S
C451 C450 1.391 . S
C451 C452 1.391 . S
C452 H429 0.947 . S
C452 C451 1.391 . S
C452 C453 1.392 . S
C453 H430 0.948 . S
C453 C452 1.392 . S
C453 C454 1.419 . S
C454 C453 1.419 . S
C454 C455 1.391 . S
C454 C458 1.397 . S
C455 C450 1.391 . S
C455 C454 1.391 . S
C455 C456 1.399 . S
C456 C455 1.399 . S
C456 C457 1.396 . S
C456 C459 1.453 . S
C456 C460 1.684 . S
C457 C447 1.723 . S
C457 C456 1.396 . S
C457 C458 1.394 . S
C458 C428 1.723 . S
C458 C454 1.397 . S
C458 C457 1.394 . S
C459 H431 0.982 . S
C459 H435 0.979 . S
C459 H436 0.977 . S
C459 C456 1.453 . S
C460 H432 0.979 . S
C460 H433 0.980 . S
C460 H434 0.983 . S
C460 C456 1.684 . S
H461 C479 0.948 . S
H462 C420 0.948 . S
H463 C438 0.979 . S
H464 C438 0.980 . S
H465 C438 0.983 . S
H466 C437 0.982 . S
H467 C437 0.979 . S
H468 C437 0.977 . S
H469 C439 0.948 . S
H470 C441 0.947 . S
H471 C442 0.948 . S
H472 C448 0.982 . S
H473 C448 0.979 . S
H474 C448 0.977 . S
H475 C449 0.979 . S
H476 C449 0.980 . S
H477 C449 0.983 . S
H478 C422 0.947 . S
C479 C422 1.392 . S
C479 C423 1.419 . S
C479 H461 0.948 . S
C480 C481 1.391 . S
C480 C484 1.391 . S
C480 H522 0.948 . S
C481 C480 1.391 . S
C481 C482 1.391 . S
C482 C481 1.391 . S
C482 H538 0.947 . S
C482 C539 1.392 . S
C483 C484 1.391 . S
C483 C487 1.397 . S
C483 C539 1.419 . S
C484 C480 1.391 . S
C484 C483 1.391 . S
C484 C485 1.399 . S
C485 C484 1.399 . S
C485 C488 1.396 . S
C485 C497 1.453 . S
C485 C498 1.684 . S
H486 C510 0.948 . S
C487 C483 1.397 . S
C487 C488 1.394 . S
C487 C506 1.723 . S
C488 C485 1.396 . S
C488 C487 1.394 . S
C488 C518 1.723 . S
H489 C512 0.947 . S
H490 C513 0.948 . S
H491 C519 0.982 . S
H492 C520 0.979 . S
H493 C520 0.980 . S
H494 C520 0.983 . S
H495 C519 0.979 . S
H496 C519 0.977 . S
C497 C485 1.453 . S
C497 H526 0.982 . S
C497 H527 0.979 . S
C497 H528 0.977 . S
C498 C485 1.684 . S
C498 H523 0.979 . S
C498 H524 0.980 . S
C498 H525 0.983 . S
C499 C500 1.391 . S
C499 C504 1.391 . S
C499 H529 0.948 . S
C500 C499 1.391 . S
C500 C501 1.391 . S
C501 C500 1.391 . S
C501 C502 1.392 . S
C501 H530 0.947 . S
C502 C501 1.392 . S
C502 C503 1.419 . S
C502 H531 0.948 . S
C503 C502 1.419 . S
C503 C504 1.391 . S
C503 C507 1.397 . S
C504 C499 1.391 . S
C504 C503 1.391 . S
C504 C505 1.399 . S
C505 C504 1.399 . S
C505 C506 1.396 . S
C505 C508 1.453 . S
C505 C509 1.684 . S
C506 C487 1.723 . S
C506 C505 1.396 . S
C506 C507 1.394 . S
C507 C503 1.397 . S
C507 C506 1.394 . S
C507 C517 1.723 . S
C508 C505 1.453 . S
C508 H532 0.982 . S
C508 H533 0.979 . S
C508 H534 0.977 . S
C509 C505 1.684 . S
C509 H535 0.979 . S
C509 H536 0.980 . S
C509 H537 0.983 . S
C510 H486 0.948 . S
C510 C511 1.391 . S
C510 C515 1.391 . S
C511 C510 1.391 . S
C511 C512 1.391 . S
C512 H489 0.947 . S
C512 C511 1.391 . S
C512 C513 1.392 . S
C513 H490 0.948 . S
C513 C512 1.392 . S
C513 C514 1.419 . S
C514 C513 1.419 . S
C514 C515 1.391 . S
C514 C518 1.397 . S
C515 C510 1.391 . S
C515 C514 1.391 . S
C515 C516 1.399 . S
C516 C515 1.399 . S
C516 C517 1.396 . S
C516 C519 1.453 . S
C516 C520 1.684 . S
C517 C507 1.723 . S
C517 C516 1.396 . S
C517 C518 1.394 . S
C518 C488 1.723 . S
C518 C514 1.397 . S
C518 C517 1.394 . S
C519 H491 0.982 . S
C519 H495 0.979 . S
C519 H496 0.977 . S
C519 C516 1.453 . S
C520 H492 0.979 . S
C520 H493 0.980 . S
C520 H494 0.983 . S
C520 C516 1.684 . S
H521 C539 0.948 . S
H522 C480 0.948 . S
H523 C498 0.979 . S
H524 C498 0.980 . S
H525 C498 0.983 . S
H526 C497 0.982 . S
H527 C497 0.979 . S
H528 C497 0.977 . S
H529 C499 0.948 . S
H530 C501 0.947 . S
H531 C502 0.948 . S
H532 C508 0.982 . S
H533 C508 0.979 . S
H534 C508 0.977 . S
H535 C509 0.979 . S
H536 C509 0.980 . S
H537 C509 0.983 . S
H538 C482 0.947 . S
C539 C482 1.392 . S
C539 C483 1.419 . S
C539 H521 0.948 . S
C540 C541 1.391 . S
C540 C544 1.391 . S
C540 H582 0.948 . S
C541 C540 1.391 . S
C541 C542 1.391 . S
C542 C541 1.391 . S
C542 H598 0.947 . S
C542 C599 1.392 . S
C543 C544 1.391 . S
C543 C547 1.397 . S
C543 C599 1.419 . S
C544 C540 1.391 . S
C544 C543 1.391 . S
C544 C545 1.399 . S
C545 C544 1.399 . S
C545 C548 1.396 . S
C545 C557 1.453 . S
C545 C558 1.684 . S
H546 C570 0.948 . S
C547 C543 1.397 . S
C547 C548 1.394 . S
C547 C566 1.723 . S
C548 C545 1.396 . S
C548 C547 1.394 . S
C548 C578 1.723 . S
H549 C572 0.947 . S
H550 C573 0.948 . S
H551 C579 0.982 . S
H552 C580 0.979 . S
H553 C580 0.980 . S
H554 C580 0.983 . S
H555 C579 0.979 . S
H556 C579 0.977 . S
C557 C545 1.453 . S
C557 H586 0.982 . S
C557 H587 0.979 . S
C557 H588 0.977 . S
C558 C545 1.684 . S
C558 H583 0.979 . S
C558 H584 0.980 . S
C558 H585 0.983 . S
C559 C560 1.391 . S
C559 C564 1.391 . S
C559 H589 0.948 . S
C560 C559 1.391 . S
C560 C561 1.391 . S
C561 C560 1.391 . S
C561 C562 1.392 . S
C561 H590 0.947 . S
C562 C561 1.392 . S
C562 C563 1.419 . S
C562 H591 0.948 . S
C563 C562 1.419 . S
C563 C564 1.391 . S
C563 C567 1.397 . S
C564 C559 1.391 . S
C564 C563 1.391 . S
C564 C565 1.399 . S
C565 C564 1.399 . S
C565 C566 1.396 . S
C565 C568 1.453 . S
C565 C569 1.684 . S
C566 C547 1.723 . S
C566 C565 1.396 . S
C566 C567 1.394 . S
C567 C563 1.397 . S
C567 C566 1.394 . S
C567 C577 1.723 . S
C568 C565 1.453 . S
C568 H592 0.982 . S
C568 H593 0.979 . S
C568 H594 0.977 . S
C569 C565 1.684 . S
C569 H595 0.979 . S
C569 H596 0.980 . S
C569 H597 0.983 . S
C570 H546 0.948 . S
C570 C571 1.391 . S
C570 C575 1.391 . S
C571 C570 1.391 . S
C571 C572 1.391 . S
C572 H549 0.947 . S
C572 C571 1.391 . S
C572 C573 1.392 . S
C573 H550 0.948 . S
C573 C572 1.392 . S
C573 C574 1.419 . S
C574 C573 1.419 . S
C574 C575 1.391 . S
C574 C578 1.397 . S
C575 C570 1.391 . S
C575 C574 1.391 . S
C575 C576 1.399 . S
C576 C575 1.399 . S
C576 C577 1.396 . S
C576 C579 1.453 . S
C576 C580 1.684 . S
C577 C567 1.723 . S
C577 C576 1.396 . S
C577 C578 1.394 . S
C578 C548 1.723 . S
C578 C574 1.397 . S
C578 C577 1.394 . S
C579 H551 0.982 . S
C579 H555 0.979 . S
C579 H556 0.977 . S
C579 C576 1.453 . S
C580 H552 0.979 . S
C580 H553 0.980 . S
C580 H554 0.983 . S
C580 C576 1.684 . S
H581 C599 0.948 . S
H582 C540 0.948 . S
H583 C558 0.979 . S
H584 C558 0.980 . S
H585 C558 0.983 . S
H586 C557 0.982 . S
H587 C557 0.979 . S
H588 C557 0.977 . S
H589 C559 0.948 . S
H590 C561 0.947 . S
H591 C562 0.948 . S
H592 C568 0.982 . S
H593 C568 0.979 . S
H594 C568 0.977 . S
H595 C569 0.979 . S
H596 C569 0.980 . S
H597 C569 0.983 . S
H598 C542 0.947 . S
C599 C542 1.392 . S
C599 C543 1.419 . S
C599 H581 0.948 . S
C600 C601 1.391 . S
C600 C604 1.391 . S
C600 H642 0.948 . S
C601 C600 1.391 . S
C601 C602 1.391 . S
C602 C601 1.391 . S
C602 H658 0.947 . S
C602 C659 1.392 . S
C603 C604 1.391 . S
C603 C607 1.397 . S
C603 C659 1.419 . S
C604 C600 1.391 . S
C604 C603 1.391 . S
C604 C605 1.399 . S
C605 C604 1.399 . S
C605 C608 1.396 . S
C605 C617 1.453 . S
C605 C618 1.684 . S
H606 C630 0.948 . S
C607 C603 1.397 . S
C607 C608 1.394 . S
C607 C626 1.723 . S
C608 C605 1.396 . S
C608 C607 1.394 . S
C608 C638 1.723 . S
H609 C632 0.947 . S
H610 C633 0.948 . S
H611 C639 0.982 . S
H612 C640 0.979 . S
H613 C640 0.980 . S
H614 C640 0.983 . S
H615 C639 0.979 . S
H616 C639 0.977 . S
C617 C605 1.453 . S
C617 H646 0.982 . S
C617 H647 0.979 . S
C617 H648 0.977 . S
C618 C605 1.684 . S
C618 H643 0.979 . S
C618 H644 0.980 . S
C618 H645 0.983 . S
C619 C620 1.391 . S
C619 C624 1.391 . S
C619 H649 0.948 . S
C620 C619 1.391 . S
C620 C621 1.391 . S
C621 C620 1.391 . S
C621 C622 1.392 . S
C621 H650 0.947 . S
C622 C621 1.392 . S
C622 C623 1.419 . S
C622 H651 0.948 . S
C623 C622 1.419 . S
C623 C624 1.391 . S
C623 C627 1.397 . S
C624 C619 1.391 . S
C624 C623 1.391 . S
C624 C625 1.399 . S
C625 C624 1.399 . S
C625 C626 1.396 . S
C625 C628 1.453 . S
C625 C629 1.684 . S
C626 C607 1.723 . S
C626 C625 1.396 . S
C626 C627 1.394 . S
C627 C623 1.397 . S
C627 C626 1.394 . S
C627 C637 1.723 . S
C628 C625 1.453 . S
C628 H652 0.982 . S
C628 H653 0.979 . S
C628 H654 0.977 . S
C629 C625 1.684 . S
C629 H655 0.979 . S
C629 H656 0.980 . S
C629 H657 0.983 . S
C630 H606 0.948 . S
C630 C631 1.391 . S
C630 C635 1.391 . S
C631 C630 1.391 . S
C631 C632 1.391 . S
C632 H609 0.947 . S
C632 C631 1.391 . S
C632 C633 1.392 . S
C633 H610 0.948 . S
C633 C632 1.392 . S
C633 C634 1.419 . S
C634 C633 1.419 . S
C634 C635 1.391 . S
C634 C638 1.397 . S
C635 C630 1.391 . S
C635 C634 1.391 . S
C635 C636 1.399 . S
C636 C635 1.399 . S
C636 C637 1.396 . S
C636 C639 1.453 . S
C636 C640 1.684 . S
C637 C627 1.723 . S
C637 C636 1.396 . S
C637 C638 1.394 . S
C638 C608 1.723 . S
C638 C634 1.397 . S
C638 C637 1.394 . S
C639 H611 0.982 . S
C639 H615 0.979 . S
C639 H616 0.977 . S
C639 C636 1.453 . S
C640 H612 0.979 . S
C640 H613 0.980 . S
C640 H614 0.983 . S
C640 C636 1.684 . S
H641 C659 0.948 . S
H642 C600 0.948 . S
H643 C618 0.979 . S
H644 C618 0.980 . S
H645 C618 0.983 . S
H646 C617 0.982 . S
H647 C617 0.979 . S
H648 C617 0.977 . S
H649 C619 0.948 . S
H650 C621 0.947 . S
H651 C622 0.948 . S
H652 C628 0.982 . S
H653 C628 0.979 . S
H654 C628 0.977 . S
H655 C629 0.979 . S
H656 C629 0.980 . S
H657 C629 0.983 . S
H658 C602 0.947 . S
C659 C602 1.392 . S
C659 C603 1.419 . S
C659 H641 0.948 . S
C660 C661 1.391 . S
C660 C664 1.391 . S
C660 H702 0.948 . S
C661 C660 1.391 . S
C661 C662 1.391 . S
C662 C661 1.391 . S
C662 H718 0.947 . S
C662 C719 1.392 . S
C663 C664 1.391 . S
C663 C667 1.397 . S
C663 C719 1.419 . S
C664 C660 1.391 . S
C664 C663 1.391 . S
C664 C665 1.399 . S
C665 C664 1.399 . S
C665 C668 1.396 . S
C665 C677 1.453 . S
C665 C678 1.684 . S
H666 C690 0.948 . S
C667 C663 1.397 . S
C667 C668 1.394 . S
C667 C686 1.723 . S
C668 C665 1.396 . S
C668 C667 1.394 . S
C668 C698 1.723 . S
H669 C692 0.947 . S
H670 C693 0.948 . S
H671 C699 0.982 . S
H672 C700 0.979 . S
H673 C700 0.980 . S
H674 C700 0.983 . S
H675 C699 0.979 . S
H676 C699 0.977 . S
C677 C665 1.453 . S
C677 H706 0.982 . S
C677 H707 0.979 . S
C677 H708 0.977 . S
C678 C665 1.684 . S
C678 H703 0.979 . S
C678 H704 0.980 . S
C678 H705 0.983 . S
C679 C680 1.391 . S
C679 C684 1.391 . S
C679 H709 0.948 . S
C680 C679 1.391 . S
C680 C681 1.391 . S
C681 C680 1.391 . S
C681 C682 1.392 . S
C681 H710 0.947 . S
C682 C681 1.392 . S
C682 C683 1.419 . S
C682 H711 0.948 . S
C683 C682 1.419 . S
C683 C684 1.391 . S
C683 C687 1.397 . S
C684 C679 1.391 . S
C684 C683 1.391 . S
C684 C685 1.399 . S
C685 C684 1.399 . S
C685 C686 1.396 . S
C685 C688 1.453 . S
C685 C689 1.684 . S
C686 C667 1.723 . S
C686 C685 1.396 . S
C686 C687 1.394 . S
C687 C683 1.397 . S
C687 C686 1.394 . S
C687 C697 1.723 . S
C688 C685 1.453 . S
C688 H712 0.982 . S
C688 H713 0.979 . S
C688 H714 0.977 . S
C689 C685 1.684 . S
C689 H715 0.979 . S
C689 H716 0.980 . S
C689 H717 0.983 . S
C690 H666 0.948 . S
C690 C691 1.391 . S
C690 C695 1.391 . S
C691 C690 1.391 . S
C691 C692 1.391 . S
C692 H669 0.947 . S
C692 C691 1.391 . S
C692 C693 1.392 . S
C693 H670 0.948 . S
C693 C692 1.392 . S
C693 C694 1.419 . S
C694 C693 1.419 . S
C694 C695 1.391 . S
C694 C698 1.397 . S
C695 C690 1.391 . S
C695 C694 1.391 . S
C695 C696 1.399 . S
C696 C695 1.399 . S
C696 C697 1.396 . S
C696 C699 1.453 . S
C696 C700 1.684 . S
C697 C687 1.723 . S
C697 C696 1.396 . S
C697 C698 1.394 . S
C698 C668 1.723 . S
C698 C694 1.397 . S
C698 C697 1.394 . S
C699 H671 0.982 . S
C699 H675 0.979 . S
C699 H676 0.977 . S
C699 C696 1.453 . S
C700 H672 0.979 . S
C700 H673 0.980 . S
C700 H674 0.983 . S
C700 C696 1.684 . S
H701 C719 0.948 . S
H702 C660 0.948 . S
H703 C678 0.979 . S
H704 C678 0.980 . S
H705 C678 0.983 . S
H706 C677 0.982 . S
H707 C677 0.979 . S
H708 C677 0.977 . S
H709 C679 0.948 . S
H710 C681 0.947 . S
H711 C682 0.948 . S
H712 C688 0.982 . S
H713 C688 0.979 . S
H714 C688 0.977 . S
H715 C689 0.979 . S
H716 C689 0.980 . S
H717 C689 0.983 . S
H718 C662 0.947 . S
C719 C662 1.392 . S
C719 C663 1.419 . S
C719 H701 0.948 . S
C720 C721 1.391 . S
C720 C724 1.391 . S
C720 H762 0.948 . S
C721 C720 1.391 . S
C721 C722 1.391 . S
C722 C721 1.391 . S
C722 H778 0.947 . S
C722 C779 1.392 . S
C723 C724 1.391 . S
C723 C727 1.397 . S
C723 C779 1.419 . S
C724 C720 1.391 . S
C724 C723 1.391 . S
C724 C725 1.399 . S
C725 C724 1.399 . S
C725 C728 1.396 . S
C725 C737 1.453 . S
C725 C738 1.684 . S
H726 C750 0.948 . S
C727 C723 1.397 . S
C727 C728 1.394 . S
C727 C746 1.723 . S
C728 C725 1.396 . S
C728 C727 1.394 . S
C728 C758 1.723 . S
H729 C752 0.947 . S
H730 C753 0.948 . S
H731 C759 0.982 . S
H732 C760 0.979 . S
H733 C760 0.980 . S
H734 C760 0.983 . S
H735 C759 0.979 . S
H736 C759 0.977 . S
C737 C725 1.453 . S
C737 H766 0.982 . S
C737 H767 0.979 . S
C737 H768 0.977 . S
C738 C725 1.684 . S
C738 H763 0.979 . S
C738 H764 0.980 . S
C738 H765 0.983 . S
C739 C740 1.391 . S
C739 C744 1.391 . S
C739 H769 0.948 . S
C740 C739 1.391 . S
C740 C741 1.391 . S
C741 C740 1.391 . S
C741 C742 1.392 . S
C741 H770 0.947 . S
C742 C741 1.392 . S
C742 C743 1.419 . S
C742 H771 0.948 . S
C743 C742 1.419 . S
C743 C744 1.391 . S
C743 C747 1.397 . S
C744 C739 1.391 . S
C744 C743 1.391 . S
C744 C745 1.399 . S
C745 C744 1.399 . S
C745 C746 1.396 . S
C745 C748 1.453 . S
C745 C749 1.684 . S
C746 C727 1.723 . S
C746 C745 1.396 . S
C746 C747 1.394 . S
C747 C743 1.397 . S
C747 C746 1.394 . S
C747 C757 1.723 . S
C748 C745 1.453 . S
C748 H772 0.982 . S
C748 H773 0.979 . S
C748 H774 0.977 . S
C749 C745 1.684 . S
C749 H775 0.979 . S
C749 H776 0.980 . S
C749 H777 0.983 . S
C750 H726 0.948 . S
C750 C751 1.391 . S
C750 C755 1.391 . S
C751 C750 1.391 . S
C751 C752 1.391 . S
C752 H729 0.947 . S
C752 C751 1.391 . S
C752 C753 1.392 . S
C753 H730 0.948 . S
C753 C752 1.392 . S
C753 C754 1.419 . S
C754 C753 1.419 . S
C754 C755 1.391 . S
C754 C758 1.397 . S
C755 C750 1.391 . S
C755 C754 1.391 . S
C755 C756 1.399 . S
C756 C755 1.399 . S
C756 C757 1.396 . S
C756 C759 1.453 . S
C756 C760 1.684 . S
C757 C747 1.723 . S
C757 C756 1.396 . S
C757 C758 1.394 . S
C758 C728 1.723 . S
C758 C754 1.397 . S
C758 C757 1.394 . S
C759 H731 0.982 . S
C759 H735 0.979 . S
C759 H736 0.977 . S
C759 C756 1.453 . S
C760 H732 0.979 . S
C760 H733 0.980 . S
C760 H734 0.983 . S
C760 C756 1.684 . S
H761 C779 0.948 . S
H762 C720 0.948 . S
H763 C738 0.979 . S
H764 C738 0.980 . S
H765 C738 0.983 . S
H766 C737 0.982 . S
H767 C737 0.979 . S
H768 C737 0.977 . S
H769 C739 0.948 . S
H770 C741 0.947 . S
H771 C742 0.948 . S
H772 C748 0.982 . S
H773 C748 0.979 . S
H774 C748 0.977 . S
H775 C749 0.979 . S
H776 C749 0.980 . S
H777 C749 0.983 . S
H778 C722 0.947 . S
C779 C722 1.392 . S
C779 C723 1.419 . S
C779 H761 0.948 . S
C780 C781 1.391 . S
C780 C784 1.391 . S
C780 H822 0.948 . S
C781 C780 1.391 . S
C781 C782 1.391 . S
C782 C781 1.391 . S
C782 H838 0.947 . S
C782 C839 1.392 . S
C783 C784 1.391 . S
C783 C787 1.397 . S
C783 C839 1.419 . S
C784 C780 1.391 . S
C784 C783 1.391 . S
C784 C785 1.399 . S
C785 C784 1.399 . S
C785 C788 1.396 . S
C785 C797 1.453 . S
C785 C798 1.684 . S
H786 C810 0.948 . S
C787 C783 1.397 . S
C787 C788 1.394 . S
C787 C806 1.723 . S
C788 C785 1.396 . S
C788 C787 1.394 . S
C788 C818 1.723 . S
H789 C812 0.947 . S
H790 C813 0.948 . S
H791 C819 0.982 . S
H792 C820 0.979 . S
H793 C820 0.980 . S
H794 C820 0.983 . S
H795 C819 0.979 . S
H796 C819 0.977 . S
C797 C785 1.453 . S
C797 H826 0.982 . S
C797 H827 0.979 . S
C797 H828 0.977 . S
C798 C785 1.684 . S
C798 H823 0.979 . S
C798 H824 0.980 . S
C798 H825 0.983 . S
C799 C800 1.391 . S
C799 C804 1.391 . S
C799 H829 0.948 . S
C800 C799 1.391 . S
C800 C801 1.391 . S
C801 C800 1.391 . S
C801 C802 1.392 . S
C801 H830 0.947 . S
C802 C801 1.392 . S
C802 C803 1.419 . S
C802 H831 0.948 . S
C803 C802 1.419 . S
C803 C804 1.391 . S
C803 C807 1.397 . S
C804 C799 1.391 . S
C804 C803 1.391 . S
C804 C805 1.399 . S
C805 C804 1.399 . S
C805 C806 1.396 . S
C805 C808 1.453 . S
C805 C809 1.684 . S
C806 C787 1.723 . S
C806 C805 1.396 . S
C806 C807 1.394 . S
C807 C803 1.397 . S
C807 C806 1.394 . S
C807 C817 1.723 . S
C808 C805 1.453 . S
C808 H832 0.982 . S
C808 H833 0.979 . S
C808 H834 0.977 . S
C809 C805 1.684 . S
C809 H835 0.979 . S
C809 H836 0.980 . S
C809 H837 0.983 . S
C810 H786 0.948 . S
C810 C811 1.391 . S
C810 C815 1.391 . S
C811 C810 1.391 . S
C811 C812 1.391 . S
C812 H789 0.947 . S
C812 C811 1.391 . S
C812 C813 1.392 . S
C813 H790 0.948 . S
C813 C812 1.392 . S
C813 C814 1.419 . S
C814 C813 1.419 . S
C814 C815 1.391 . S
C814 C818 1.397 . S
C815 C810 1.391 . S
C815 C814 1.391 . S
C815 C816 1.399 . S
C816 C815 1.399 . S
C816 C817 1.396 . S
C816 C819 1.453 . S
C816 C820 1.684 . S
C817 C807 1.723 . S
C817 C816 1.396 . S
C817 C818 1.394 . S
C818 C788 1.723 . S
C818 C814 1.397 . S
C818 C817 1.394 . S
C819 H791 0.982 . S
C819 H795 0.979 . S
C819 H796 0.977 . S
C819 C816 1.453 . S
C820 H792 0.979 . S
C820 H793 0.980 . S
C820 H794 0.983 . S
C820 C816 1.684 . S
H821 C839 0.948 . S
H822 C780 0.948 . S
H823 C798 0.979 . S
H824 C798 0.980 . S
H825 C798 0.983 . S
H826 C797 0.982 . S
H827 C797 0.979 . S
H828 C797 0.977 . S
H829 C799 0.948 . S
H830 C801 0.947 . S
H831 C802 0.948 . S
H832 C808 0.982 . S
H833 C808 0.979 . S
H834 C808 0.977 . S
H835 C809 0.979 . S
H836 C809 0.980 . S
H837 C809 0.983 . S
H838 C782 0.947 . S
C839 C782 1.392 . S
C839 C783 1.419 . S
C839 H821 0.948 . S
C840 C841 1.391 . S
C840 C844 1.391 . S
C840 H882 0.948 . S
C841 C840 1.391 . S
C841 C842 1.391 . S
C842 C841 1.391 . S
C842 H898 0.947 . S
C842 C899 1.392 . S
C843 C844 1.391 . S
C843 C847 1.397 . S
C843 C899 1.419 . S
C844 C840 1.391 . S
C844 C843 1.391 . S
C844 C845 1.399 . S
C845 C844 1.399 . S
C845 C848 1.396 . S
C845 C857 1.453 . S
C845 C858 1.684 . S
H846 C870 0.948 . S
C847 C843 1.397 . S
C847 C848 1.394 . S
C847 C866 1.723 . S
C848 C845 1.396 . S
C848 C847 1.394 . S
C848 C878 1.723 . S
H849 C872 0.947 . S
H850 C873 0.948 . S
H851 C879 0.982 . S
H852 C880 0.979 . S
H853 C880 0.980 . S
H854 C880 0.983 . S
H855 C879 0.979 . S
H856 C879 0.977 . S
C857 C845 1.453 . S
C857 H886 0.982 . S
C857 H887 0.979 . S
C857 H888 0.977 . S
C858 C845 1.684 . S
C858 H883 0.979 . S
C858 H884 0.980 . S
C858 H885 0.983 . S
C859 C860 1.391 . S
C859 C864 1.391 . S
C859 H889 0.948 . S
C860 C859 1.391 . S
C860 C861 1.391 . S
C861 C860 1.391 . S
C861 C862 1.392 . S
C861 H890 0.947 . S
C862 C861 1.392 . S
C862 C863 1.419 . S
C862 H891 0.948 . S
C863 C862 1.419 . S
C863 C864 1.391 . S
C863 C867 1.397 . S
C864 C859 1.391 . S
C864 C863 1.391 . S
C864 C865 1.399 . S
C865 C864 1.399 . S
C865 C866 1.396 . S
C865 C868 1.453 . S
C865 C869 1.684 . S
C866 C847 1.723 . S
C866 C865 1.396 . S
C866 C867 1.394 . S
C867 C863 1.397 . S
C867 C866 1.394 . S
C867 C877 1.723 . S
C868 C865 1.453 . S
C868 H892 0.982 . S
C868 H893 0.979 . S
C868 H894 0.977 . S
C869 C865 1.684 . S
C869 H895 0.979 . S
C869 H896 0.980 . S
C869 H897 0.983 . S
C870 H846 0.948 . S
C870 C871 1.391 . S
C870 C875 1.391 . S
C871 C870 1.391 . S
C871 C872 1.391 . S
C872 H849 0.947 . S
C872 C871 1.391 . S
C872 C873 1.392 . S
C873 H850 0.948 . S
C873 C872 1.392 . S
C873 C874 1.419 . S
C874 C873 1.419 . S
C874 C875 1.391 . S
C874 C878 1.397 . S
C875 C870 1.391 . S
C875 C874 1.391 . S
C875 C876 1.399 . S
C876 C875 1.399 . S
C876 C877 1.396 . S
C876 C879 1.453 . S
C876 C880 1.684 . S
C877 C867 1.723 . S
C877 C876 1.396 . S
C877 C878 1.394 . S
C878 C848 1.723 . S
C878 C874 1.397 . S
C878 C877 1.394 . S
C879 H851 0.982 . S
C879 H855 0.979 . S
C879 H856 0.977 . S
C879 C876 1.453 . S
C880 H852 0.979 . S
C880 H853 0.980 . S
C880 H854 0.983 . S
C880 C876 1.684 . S
H881 C899 0.948 . S
H882 C840 0.948 . S
H883 C858 0.979 . S
H884 C858 0.980 . S
H885 C858 0.983 . S
H886 C857 0.982 . S
H887 C857 0.979 . S
H888 C857 0.977 . S
H889 C859 0.948 . S
H890 C861 0.947 . S
H891 C862 0.948 . S
H892 C868 0.982 . S
H893 C868 0.979 . S
H894 C868 0.977 . S
H895 C869 0.979 . S
H896 C869 0.980 . S
H897 C869 0.983 . S
H898 C842 0.947 . S
C899 C842 1.392 . S
C899 C843 1.419 . S
C899 H881 0.948 . S
C900 C901 1.391 . S
C900 C904 1.391 . S
C900 H942 0.948 . S
C901 C900 1.391 . S
C901 C902 1.391 . S
C902 C901 1.391 . S
C902 H958 0.947 . S
C902 C959 1.392 . S
C903 C904 1.391 . S
C903 C907 1.397 . S
C903 C959 1.419 . S
C904 C900 1.391 . S
C904 C903 1.391 . S
C904 C905 1.399 . S
C905 C904 1.399 . S
C905 C908 1.396 . S
C905 C917 1.453 . S
C905 C918 1.684 . S
H906 C930 0.948 . S
C907 C903 1.397 . S
C907 C908 1.394 . S
C907 C926 1.723 . S
C908 C905 1.396 . S
C908 C907 1.394 . S
C908 C938 1.723 . S
H909 C932 0.947 . S
H910 C933 0.948 . S
H911 C939 0.982 . S
H912 C940 0.979 . S
H913 C940 0.980 . S
H914 C940 0.983 . S
H915 C939 0.979 . S
H916 C939 0.977 . S
C917 C905 1.453 . S
C917 H946 0.982 . S
C917 H947 0.979 . S
C917 H948 0.977 . S
C918 C905 1.684 . S
C918 H943 0.979 . S
C918 H944 0.980 . S
C918 H945 0.983 . S
C919 C920 1.391 . S
C919 C924 1.391 . S
C919 H949 0.948 . S
C920 C919 1.391 . S
C920 C921 1.391 . S
C921 C920 1.391 . S
C921 C922 1.392 . S
C921 H950 0.947 . S
C922 C921 1.392 . S
C922 C923 1.419 . S
C922 H951 0.948 . S
C923 C922 1.419 . S
C923 C924 1.391 . S
C923 C927 1.397 . S
C924 C919 1.391 . S
C924 C923 1.391 . S
C924 C925 1.399 . S
C925 C924 1.399 . S
C925 C926 1.396 . S
C925 C928 1.453 . S
C925 C929 1.684 . S
C926 C907 1.723 . S
C926 C925 1.396 . S
C926 C927 1.394 . S
C927 C923 1.397 . S
C927 C926 1.394 . S
C927 C937 1.723 . S
C928 C925 1.453 . S
C928 H952 0.982 . S
C928 H953 0.979 . S
C928 H954 0.977 . S
C929 C925 1.684 . S
C929 H955 0.979 . S
C929 H956 0.980 . S
C929 H957 0.983 . S
C930 H906 0.948 . S
C930 C931 1.391 . S
C930 C935 1.391 . S
C931 C930 1.391 . S
C931 C932 1.391 . S
C932 H909 0.947 . S
C932 C931 1.391 . S
C932 C933 1.392 . S
C933 H910 0.948 . S
C933 C932 1.392 . S
C933 C934 1.419 . S
C934 C933 1.419 . S
C934 C935 1.391 . S
C934 C938 1.397 . S
C935 C930 1.391 . S
C935 C934 1.391 . S
C935 C936 1.399 . S
C936 C935 1.399 . S
C936 C937 1.396 . S
C936 C939 1.453 . S
C936 C940 1.684 . S
C937 C927 1.723 . S
C937 C936 1.396 . S
C937 C938 1.394 . S
C938 C908 1.723 . S
C938 C934 1.397 . S
C938 C937 1.394 . S
C939 H911 0.982 . S
C939 H915 0.979 . S
C939 H916 0.977 . S
C939 C936 1.453 . S
C940 H912 0.979 . S
C940 H913 0.980 . S
C940 H914 0.983 . S
C940 C936 1.684 . S
H941 C959 0.948 . S
H942 C900 0.948 . S
H943 C918 0.979 . S
H944 C918 0.980 . S
H945 C918 0.983 . S
H946 C917 0.982 . S
H947 C917 0.979 . S
H948 C917 0.977 . S
H949 C919 0.948 . S
H950 C921 0.947 . S
H951 C922 0.948 . S
H952 C928 0.982 . S
H953 C928 0.979 . S
H954 C928 0.977 . S
H955 C929 0.979 . S
H956 C929 0.980 . S
H957 C929 0.983 . S
H958 C902 0.947 . S
C959 C902 1.392 . S
C959 C903 1.419 . S
C959 H941 0.948 . S
C960 C961 1.391 . S
C960 C964 1.391 . S
C960 H1002 0.948 . S
C961 C960 1.391 . S
C961 C962 1.391 . S
C962 C961 1.391 . S
C962 H1018 0.947 . S
C962 C1019 1.392 . S
C963 C964 1.391 . S
C963 C967 1.397 . S
C963 C1019 1.419 . S
C964 C960 1.391 . S
C964 C963 1.391 . S
C964 C965 1.399 . S
C965 C964 1.399 . S
C965 C968 1.396 . S
C965 C977 1.453 . S
C965 C978 1.684 . S
H966 C990 0.948 . S
C967 C963 1.397 . S
C967 C968 1.394 . S
C967 C986 1.723 . S
C968 C965 1.396 . S
C968 C967 1.394 . S
C968 C998 1.723 . S
H969 C992 0.947 . S
H970 C993 0.948 . S
H971 C999 0.982 . S
H972 C1000 0.979 . S
H973 C1000 0.980 . S
H974 C1000 0.983 . S
H975 C999 0.979 . S
H976 C999 0.977 . S
C977 C965 1.453 . S
C977 H1006 0.982 . S
C977 H1007 0.979 . S
C977 H1008 0.977 . S
C978 C965 1.684 . S
C978 H1003 0.979 . S
C978 H1004 0.980 . S
C978 H1005 0.983 . S
C979 C980 1.391 . S
C979 C984 1.391 . S
C979 H1009 0.948 . S
C980 C979 1.391 . S
C980 C981 1.391 . S
C981 C980 1.391 . S
C981 C982 1.392 . S
C981 H1010 0.947 . S
C982 C981 1.392 . S
C982 C983 1.419 . S
C982 H1011 0.948 . S
C983 C982 1.419 . S
C983 C984 1.391 . S
C983 C987 1.397 . S
C984 C979 1.391 . S
C984 C983 1.391 . S
C984 C985 1.399 . S
C985 C984 1.399 . S
C985 C986 1.396 . S
C985 C988 1.453 . S
C985 C989 1.684 . S
C986 C967 1.723 . S
C986 C985 1.396 . S
C986 C987 1.394 . S
C987 C983 1.397 . S
C987 C986 1.394 . S
C987 C997 1.723 . S
C988 C985 1.453 . S
C988 H1012 0.982 . S
C988 H1013 0.979 . S
C988 H1014 0.977 . S
C989 C985 1.684 . S
C989 H1015 0.979 1_455 S
C989 H1016 0.980 . S
C989 H1017 0.983 . S
C990 H966 0.948 . S
C990 C991 1.391 . S
C990 C995 1.391 . S
C991 C990 1.391 . S
C991 C992 1.391 . S
C992 H969 0.947 . S
C992 C991 1.391 . S
C992 C993 1.392 . S
C993 H970 0.948 . S
C993 C992 1.392 . S
C993 C994 1.419 . S
C994 C993 1.419 . S
C994 C995 1.391 . S
C994 C998 1.397 . S
C995 C990 1.391 . S
C995 C994 1.391 . S
C995 C996 1.399 . S
C996 C995 1.399 . S
C996 C997 1.396 . S
C996 C999 1.453 . S
C996 C1000 1.684 . S
C997 C987 1.723 . S
C997 C996 1.396 . S
C997 C998 1.394 . S
C998 C968 1.723 . S
C998 C994 1.397 . S
C998 C997 1.394 . S
C999 H971 0.982 . S
C999 H975 0.979 . S
C999 H976 0.977 . S
C999 C996 1.453 . S
C1000 H972 0.979 . S
C1000 H973 0.980 . S
C1000 H974 0.983 . S
C1000 C996 1.684 . S
H1001 C1019 0.948 . S
H1002 C960 0.948 . S
H1003 C978 0.979 . S
H1004 C978 0.980 . S
H1005 C978 0.983 . S
H1006 C977 0.982 . S
H1007 C977 0.979 . S
H1008 C977 0.977 . S
H1009 C979 0.948 . S
H1010 C981 0.947 . S
H1011 C982 0.948 . S
H1012 C988 0.982 . S
H1013 C988 0.979 . S
H1014 C988 0.977 . S
H1015 C989 0.979 1_655 S
H1016 C989 0.980 . S
H1017 C989 0.983 . S
H1018 C962 0.947 . S
C1019 C962 1.392 . S
C1019 C963 1.419 . S
C1019 H1001 0.948 . S
C1020 C1021 1.391 . S
C1020 C1024 1.391 . S
C1020 H1062 0.948 . S
C1021 C1020 1.391 . S
C1021 C1022 1.391 . S
C1022 C1021 1.391 . S
C1022 H1078 0.947 . S
C1022 C1079 1.392 . S
C1023 C1024 1.391 . S
C1023 C1027 1.397 . S
C1023 C1079 1.419 . S
C1024 C1020 1.391 . S
C1024 C1023 1.391 . S
C1024 C1025 1.399 . S
C1025 C1024 1.399 . S
C1025 C1028 1.396 . S
C1025 C1037 1.453 . S
C1025 C1038 1.684 . S
H1026 C1050 0.948 . S
C1027 C1023 1.397 . S
C1027 C1028 1.394 . S
C1027 C1046 1.723 . S
C1028 C1025 1.396 . S
C1028 C1027 1.394 . S
C1028 C1058 1.723 . S
H1029 C1052 0.947 . S
H1030 C1053 0.948 . S
H1031 C1059 0.982 . S
H1032 C1060 0.979 . S
H1033 C1060 0.980 . S
H1034 C1060 0.983 . S
H1035 C1059 0.979 . S
H1036 C1059 0.977 . S
C1037 C1025 1.453 . S
C1037 H1066 0.982 . S
C1037 H1067 0.979 . S
C1037 H1068 0.977 . S
C1038 C1025 1.684 . S
C1038 H1063 0.979 . S
C1038 H1064 0.980 . S
C1038 H1065 0.983 . S
C1039 C1040 1.391 . S
C1039 C1044 1.391 . S
C1039 H1069 0.948 . S
C1040 C1039 1.391 . S
C1040 C1041 1.391 . S
C1041 C1040 1.391 . S
C1041 C1042 1.392 . S
C1041 H1070 0.947 . S
C1042 C1041 1.392 . S
C1042 C1043 1.419 . S
C1042 H1071 0.948 . S
C1043 C1042 1.419 . S
C1043 C1044 1.391 . S
C1043 C1047 1.397 . S
C1044 C1039 1.391 . S
C1044 C1043 1.391 . S
C1044 C1045 1.399 . S
C1045 C1044 1.399 . S
C1045 C1046 1.396 . S
C1045 C1048 1.453 . S
C1045 C1049 1.684 . S
C1046 C1027 1.723 . S
C1046 C1045 1.396 . S
C1046 C1047 1.394 . S
C1047 C1043 1.397 . S
C1047 C1046 1.394 . S
C1047 C1057 1.723 . S
C1048 C1045 1.453 . S
C1048 H1072 0.982 . S
C1048 H1073 0.979 . S
C1048 H1074 0.977 . S
C1049 C1045 1.684 . S
C1049 H1075 0.979 . S
C1049 H1076 0.980 . S
C1049 H1077 0.983 . S
C1050 H1026 0.948 . S
C1050 C1051 1.391 . S
C1050 C1055 1.391 . S
C1051 C1050 1.391 . S
C1051 C1052 1.391 . S
C1052 H1029 0.947 . S
C1052 C1051 1.391 . S
C1052 C1053 1.392 . S
C1053 H1030 0.948 . S
C1053 C1052 1.392 . S
C1053 C1054 1.419 . S
C1054 C1053 1.419 . S
C1054 C1055 1.391 . S
C1054 C1058 1.397 . S
C1055 C1050 1.391 . S
C1055 C1054 1.391 . S
C1055 C1056 1.399 . S
C1056 C1055 1.399 . S
C1056 C1057 1.396 . S
C1056 C1059 1.453 . S
C1056 C1060 1.684 . S
C1057 C1047 1.723 . S
C1057 C1056 1.396 . S
C1057 C1058 1.394 . S
C1058 C1028 1.723 . S
C1058 C1054 1.397 . S
C1058 C1057 1.394 . S
C1059 H1031 0.982 . S
C1059 H1035 0.979 . S
C1059 H1036 0.977 . S
C1059 C1056 1.453 . S
C1060 H1032 0.979 . S
C1060 H1033 0.980 . S
C1060 H1034 0.983 . S
C1060 C1056 1.684 . S
H1061 C1079 0.948 . S
H1062 C1020 0.948 . S
H1063 C1038 0.979 . S
H1064 C1038 0.980 . S
H1065 C1038 0.983 . S
H1066 C1037 0.982 . S
H1067 C1037 0.979 . S
H1068 C1037 0.977 . S
H1069 C1039 0.948 . S
H1070 C1041 0.947 . S
H1071 C1042 0.948 . S
H1072 C1048 0.982 . S
H1073 C1048 0.979 . S
H1074 C1048 0.977 . S
H1075 C1049 0.979 . S
H1076 C1049 0.980 . S
H1077 C1049 0.983 . S
H1078 C1022 0.947 . S
C1079 C1022 1.392 . S
C1079 C1023 1.419 . S
C1079 H1061 0.948 . S
C1080 Eu1081 2.835 . S
C1080 C1082 1.500 . S
C1080 O1100 1.257 1_545 S
C1080 O1101 1.260 . S
Eu1081 C1080 2.835 . S
Eu1081 O1100 2.473 1_545 S
Eu1081 O1101 2.480 . S
Eu1081 O1102 2.430 . S
Eu1081 O1103 2.670 1_554 S
Eu1081 O1104 2.394 1_545 S
Eu1081 O1109 2.355 1_545 S
Eu1081 O1111 2.374 . S
C1082 C1080 1.500 . S
C1082 C1083 1.377 . S
C1082 C1087 1.377 1_545 S
C1083 C1082 1.377 . S
C1083 C1084 1.395 . S
C1083 H1112 0.931 . S
C1084 C1083 1.395 . S
C1084 C1085 1.383 1_545 S
C1084 H1113 0.931 . S
C1085 C1084 1.383 1_565 S
C1085 C1086 1.394 . S
C1086 C1085 1.394 . S
C1086 C1087 1.378 . S
C1086 H1114 0.931 . S
C1087 C1082 1.377 1_565 S
C1087 C1086 1.378 . S
C1087 H1115 0.931 . S
C1088 O1102 1.259 1_556 S
C1088 O1103 1.270 . S
C1089 O1104 1.251 . S
C1089 O1105 1.251 1_554 S
C1090 Eu1091 2.835 . S
C1090 C1092 1.500 . S
C1090 O1106 1.257 1_565 S
C1090 O1107 1.260 . S
Eu1091 C1090 2.835 . S
Eu1091 O1103 2.355 1_565 S
Eu1091 O1105 2.374 . S
Eu1091 O1106 2.473 1_565 S
Eu1091 O1107 2.480 . S
Eu1091 O1108 2.430 . S
Eu1091 O1109 2.670 1_556 S
Eu1091 O1110 2.394 1_565 S
C1092 C1090 1.500 . S
C1092 C1093 1.377 . S
C1092 C1097 1.377 1_565 S
C1093 C1092 1.377 . S
C1093 C1094 1.395 . S
C1093 H1116 0.931 . S
C1094 C1093 1.395 . S
C1094 C1095 1.383 1_565 S
C1094 H1117 0.931 . S
C1095 C1094 1.383 1_545 S
C1095 C1096 1.394 . S
C1096 C1095 1.394 . S
C1096 C1097 1.378 . S
C1096 H1118 0.931 . S
C1097 C1092 1.377 1_545 S
C1097 C1096 1.378 . S
C1097 H1119 0.931 . S
C1098 O1108 1.259 1_554 S
C1098 O1109 1.270 . S
C1099 O1110 1.251 . S
C1099 O1111 1.251 1_556 S
O1100 C1080 1.257 1_565 S
O1100 Eu1081 2.473 1_565 S
O1101 C1080 1.260 . S
O1101 Eu1081 2.480 . S
O1102 Eu1081 2.430 . S
O1102 C1088 1.259 1_554 S
O1103 Eu1081 2.670 1_556 S
O1103 C1088 1.270 . S
O1103 Eu1091 2.355 1_545 S
O1104 Eu1081 2.394 1_565 S
O1104 C1089 1.251 . S
O1105 C1089 1.251 1_556 S
O1105 Eu1091 2.374 . S
O1106 C1090 1.257 1_545 S
O1106 Eu1091 2.473 1_545 S
O1107 C1090 1.260 . S
O1107 Eu1091 2.480 . S
O1108 Eu1091 2.430 . S
O1108 C1098 1.259 1_556 S
O1109 Eu1081 2.355 1_565 S
O1109 Eu1091 2.670 1_554 S
O1109 C1098 1.270 . S
O1110 Eu1091 2.394 1_545 S
O1110 C1099 1.251 . S
O1111 Eu1081 2.374 . S
O1111 C1099 1.251 1_554 S
H1112 C1083 0.931 . S
H1113 C1084 0.931 . S
H1114 C1086 0.931 . S
H1115 C1087 0.931 . S
H1116 C1093 0.931 . S
H1117 C1094 0.931 . S
H1118 C1096 0.931 . S
H1119 C1097 0.931 . S
C1120 Eu1121 2.835 . S
C1120 C1122 1.500 1_655 S
C1120 O1140 1.257 1_655 S
C1120 O1141 1.260 . S
Eu1121 C1120 2.835 . S
Eu1121 O1140 2.473 1_655 S
Eu1121 O1141 2.480 . S
Eu1121 O1142 2.430 . S
Eu1121 O1143 2.670 1_554 S
Eu1121 O1144 2.394 1_655 S
Eu1121 O1149 2.355 1_655 S
Eu1121 O1151 2.425 . S
C1122 C1120 1.500 1_455 S
C1122 C1123 1.377 1_455 S
C1122 C1127 1.377 . S
C1123 C1122 1.377 1_655 S
C1123 C1124 1.395 . S
C1123 H1152 0.931 . S
C1124 C1123 1.395 . S
C1124 C1125 1.383 1_655 S
C1124 H1153 0.931 . S
C1125 C1124 1.383 1_455 S
C1125 C1126 1.394 . S
C1126 C1125 1.394 . S
C1126 C1127 1.378 . S
C1126 H1154 0.931 . S
C1127 C1122 1.377 . S
C1127 C1126 1.378 . S
C1127 H1155 0.931 . S
C1128 O1142 1.259 1_556 S
C1128 O1143 1.270 . S
C1129 O1144 1.251 . S
C1129 O1145 1.317 . S
C1130 Eu1131 2.835 . S
C1130 C1132 1.500 1_455 S
C1130 O1146 1.257 1_455 S
C1130 O1147 1.260 . S
Eu1131 C1130 2.835 . S
Eu1131 O1143 2.355 1_455 S
Eu1131 O1145 2.327 1_556 S
Eu1131 O1146 2.473 1_455 S
Eu1131 O1147 2.480 . S
Eu1131 O1148 2.430 . S
Eu1131 O1149 2.670 1_556 S
Eu1131 O1150 2.394 1_455 S
C1132 C1130 1.500 1_655 S
C1132 C1133 1.377 1_655 S
C1132 C1137 1.377 . S
C1133 C1132 1.377 1_455 S
C1133 C1134 1.395 . S
C1133 H1156 0.931 . S
C1134 C1133 1.395 . S
C1134 C1135 1.383 1_455 S
C1134 H1157 0.931 . S
C1135 C1134 1.383 1_655 S
C1135 C1136 1.394 . S
C1136 C1135 1.394 . S
C1136 C1137 1.378 . S
C1136 H1158 0.931 . S
C1137 C1132 1.377 . S
C1137 C1136 1.378 . S
C1137 H1159 0.931 . S
C1138 O1148 1.259 1_554 S
C1138 O1149 1.270 . S
C1139 O1150 1.251 . S
C1139 O1151 1.182 1_556 S
O1140 C1120 1.257 1_455 S
O1140 Eu1121 2.473 1_455 S
O1141 C1120 1.260 . S
O1141 Eu1121 2.480 . S
O1142 Eu1121 2.430 . S
O1142 C1128 1.259 1_554 S
O1143 Eu1121 2.670 1_556 S
O1143 C1128 1.270 . S
O1143 Eu1131 2.355 1_655 S
O1144 Eu1121 2.394 1_455 S
O1144 C1129 1.251 . S
O1145 C1129 1.317 . S
O1145 Eu1131 2.327 1_554 S
O1146 C1130 1.257 1_655 S
O1146 Eu1131 2.473 1_655 S
O1147 C1130 1.260 . S
O1147 Eu1131 2.480 . S
O1148 Eu1131 2.430 . S
O1148 C1138 1.259 1_556 S
O1149 Eu1121 2.355 1_455 S
O1149 Eu1131 2.670 1_554 S
O1149 C1138 1.270 . S
O1150 Eu1131 2.394 1_655 S
O1150 C1139 1.251 . S
O1151 Eu1121 2.425 . S
O1151 C1139 1.182 1_554 S
H1152 C1123 0.931 . S
H1153 C1124 0.931 . S
H1154 C1126 0.931 . S
H1155 C1127 0.931 . S
H1156 C1133 0.931 . S
H1157 C1134 0.931 . S
H1158 C1136 0.931 . S
H1159 C1137 0.931 . S
C1160 Eu1161 2.835 . S
C1160 C1162 1.500 . S
C1160 O1180 1.257 . S
C1160 O1181 1.260 . S
Eu1161 C1160 2.835 . S
Eu1161 O1180 2.473 . S
Eu1161 O1181 2.480 . S
Eu1161 O1182 2.430 . S
Eu1161 O1183 2.670 1_556 S
Eu1161 O1184 2.394 . S
Eu1161 O1189 2.355 . S
Eu1161 O1191 2.421 . S
C1162 C1160 1.500 . S
C1162 C1163 1.377 . S
C1162 C1167 1.377 . S
C1163 C1162 1.377 . S
C1163 C1164 1.395 . S
C1163 H1192 0.931 . S
C1164 C1163 1.395 . S
C1164 C1165 1.383 . S
C1164 H1193 0.931 . S
C1165 C1164 1.383 . S
C1165 C1166 1.394 . S
C1166 C1165 1.394 . S
C1166 C1167 1.378 . S
C1166 H1194 0.931 . S
C1167 C1162 1.377 . S
C1167 C1166 1.378 . S
C1167 H1195 0.931 . S
C1168 O1182 1.259 1_554 S
C1168 O1183 1.270 . S
C1169 O1184 1.251 . S
C1169 O1185 1.251 1_556 S
C1170 Eu1171 2.835 . S
C1170 C1172 1.500 . S
C1170 O1186 1.257 . S
C1170 O1187 1.260 . S
Eu1171 C1170 2.835 . S
Eu1171 O1183 2.355 . S
Eu1171 O1185 2.374 . S
Eu1171 O1186 2.473 . S
Eu1171 O1187 2.480 . S
Eu1171 O1188 2.430 . S
Eu1171 O1189 2.670 1_554 S
Eu1171 O1190 2.394 . S
C1172 C1170 1.500 . S
C1172 C1173 1.377 . S
C1172 C1177 1.377 . S
C1173 C1172 1.377 . S
C1173 C1174 1.395 . S
C1173 H1196 0.931 . S
C1174 C1173 1.395 . S
C1174 C1175 1.383 . S
C1174 H1197 0.931 . S
C1175 C1174 1.383 . S
C1175 C1176 1.394 . S
C1176 C1175 1.394 . S
C1176 C1177 1.378 . S
C1176 H1198 0.931 . S
C1177 C1172 1.377 . S
C1177 C1176 1.378 . S
C1177 H1199 0.931 . S
C1178 O1188 1.259 1_556 S
C1178 O1189 1.270 . S
C1179 O1190 1.251 . S
C1179 O1191 1.191 1_554 S
O1180 C1160 1.257 . S
O1180 Eu1161 2.473 . S
O1181 C1160 1.260 . S
O1181 Eu1161 2.480 . S
O1182 Eu1161 2.430 . S
O1182 C1168 1.259 1_556 S
O1183 Eu1161 2.670 1_554 S
O1183 C1168 1.270 . S
O1183 Eu1171 2.355 . S
O1184 Eu1161 2.394 . S
O1184 C1169 1.251 . S
O1185 C1169 1.251 1_554 S
O1185 Eu1171 2.374 . S
O1186 C1170 1.257 . S
O1186 Eu1171 2.473 . S
O1187 C1170 1.260 . S
O1187 Eu1171 2.480 . S
O1188 Eu1171 2.430 . S
O1188 C1178 1.259 1_554 S
O1189 Eu1161 2.355 . S
O1189 Eu1171 2.670 1_556 S
O1189 C1178 1.270 . S
O1190 Eu1171 2.394 . S
O1190 C1179 1.251 . S
O1191 Eu1161 2.421 . S
O1191 C1179 1.191 1_556 S
H1192 C1163 0.931 . S
H1193 C1164 0.931 . S
H1194 C1166 0.931 . S
H1195 C1167 0.931 . S
H1196 C1173 0.931 . S
H1197 C1174 0.931 . S
H1198 C1176 0.931 . S
H1199 C1177 0.931 . S
C1200 Eu1201 2.835 . S
C1200 C1202 1.500 . S
C1200 O1220 1.257 . S
C1200 O1221 1.260 . S
Eu1201 C1200 2.835 . S
Eu1201 O1220 2.473 . S
Eu1201 O1221 2.480 . S
Eu1201 O1222 2.430 . S
Eu1201 O1223 2.670 . S
Eu1201 O1224 2.394 . S
Eu1201 O1229 2.355 . S
Eu1201 O1231 2.374 . S
C1202 C1200 1.500 . S
C1202 C1203 1.377 . S
C1202 C1207 1.377 . S
C1203 C1202 1.377 . S
C1203 C1204 1.395 . S
C1203 H1232 0.931 . S
C1204 C1203 1.395 . S
C1204 C1205 1.383 . S
C1204 H1233 0.931 . S
C1205 C1204 1.383 . S
C1205 C1206 1.394 . S
C1206 C1205 1.394 . S
C1206 C1207 1.378 . S
C1206 H1234 0.931 . S
C1207 C1202 1.377 . S
C1207 C1206 1.378 . S
C1207 H1235 0.931 . S
C1208 O1222 1.259 . S
C1208 O1223 1.270 . S
C1209 O1224 1.251 . S
C1209 O1225 1.251 . S
C1210 Eu1211 2.835 . S
C1210 C1212 1.500 . S
C1210 O1226 1.257 . S
C1210 O1227 1.260 . S
Eu1211 C1210 2.835 . S
Eu1211 O1223 2.355 . S
Eu1211 O1225 2.374 . S
Eu1211 O1226 2.473 . S
Eu1211 O1227 2.480 . S
Eu1211 O1228 2.430 . S
Eu1211 O1229 2.670 . S
Eu1211 O1230 2.394 . S
C1212 C1210 1.500 . S
C1212 C1213 1.377 . S
C1212 C1217 1.377 . S
C1213 C1212 1.377 . S
C1213 C1214 1.395 . S
C1213 H1236 0.931 . S
C1214 C1213 1.395 . S
C1214 C1215 1.383 . S
C1214 H1237 0.931 . S
C1215 C1214 1.383 . S
C1215 C1216 1.394 . S
C1216 C1215 1.394 . S
C1216 C1217 1.378 . S
C1216 H1238 0.931 . S
C1217 C1212 1.377 . S
C1217 C1216 1.378 . S
C1217 H1239 0.931 . S
C1218 O1228 1.259 . S
C1218 O1229 1.270 . S
C1219 O1230 1.251 . S
C1219 O1231 1.251 . S
O1220 C1200 1.257 . S
O1220 Eu1201 2.473 . S
O1221 C1200 1.260 . S
O1221 Eu1201 2.480 . S
O1222 Eu1201 2.430 . S
O1222 C1208 1.259 . S
O1223 Eu1201 2.670 . S
O1223 C1208 1.270 . S
O1223 Eu1211 2.355 . S
O1224 Eu1201 2.394 . S
O1224 C1209 1.251 . S
O1225 C1209 1.251 . S
O1225 Eu1211 2.374 . S
O1226 C1210 1.257 . S
O1226 Eu1211 2.473 . S
O1227 C1210 1.260 . S
O1227 Eu1211 2.480 . S
O1228 Eu1211 2.430 . S
O1228 C1218 1.259 . S
O1229 Eu1201 2.355 . S
O1229 Eu1211 2.670 . S
O1229 C1218 1.270 . S
O1230 Eu1211 2.394 . S
O1230 C1219 1.251 . S
O1231 Eu1201 2.374 . S
O1231 C1219 1.251 . S
H1232 C1203 0.931 . S
H1233 C1204 0.931 . S
H1234 C1206 0.931 . S
H1235 C1207 0.931 . S
H1236 C1213 0.931 . S
H1237 C1214 0.931 . S
H1238 C1216 0.931 . S
H1239 C1217 0.931 . S
C1240 Eu1241 2.835 . S
C1240 C1242 1.500 . S
C1240 O1260 1.257 . S
C1240 O1261 1.260 . S
Eu1241 C1240 2.835 . S
Eu1241 O1260 2.473 . S
Eu1241 O1261 2.480 . S
Eu1241 O1262 2.430 . S
Eu1241 O1263 2.670 . S
Eu1241 O1264 2.394 . S
Eu1241 O1269 2.355 . S
Eu1241 O1271 2.374 . S
C1242 C1240 1.500 . S
C1242 C1243 1.377 . S
C1242 C1247 1.377 . S
C1243 C1242 1.377 . S
C1243 C1244 1.395 . S
C1243 H1272 0.931 . S
C1244 C1243 1.395 . S
C1244 C1245 1.383 . S
C1244 H1273 0.931 . S
C1245 C1244 1.383 . S
C1245 C1246 1.394 . S
C1246 C1245 1.394 . S
C1246 C1247 1.378 . S
C1246 H1274 0.931 . S
C1247 C1242 1.377 . S
C1247 C1246 1.378 . S
C1247 H1275 0.931 . S
C1248 O1262 1.259 . S
C1248 O1263 1.270 . S
C1249 O1264 1.251 . S
C1249 O1265 1.251 . S
C1250 Eu1251 2.835 . S
C1250 C1252 1.500 . S
C1250 O1266 1.257 . S
C1250 O1267 1.260 . S
Eu1251 C1250 2.835 . S
Eu1251 O1263 2.355 . S
Eu1251 O1265 2.374 . S
Eu1251 O1266 2.473 . S
Eu1251 O1267 2.480 . S
Eu1251 O1268 2.430 . S
Eu1251 O1269 2.670 . S
Eu1251 O1270 2.394 . S
C1252 C1250 1.500 . S
C1252 C1253 1.377 . S
C1252 C1257 1.377 . S
C1253 C1252 1.377 . S
C1253 C1254 1.395 . S
C1253 H1276 0.931 . S
C1254 C1253 1.395 . S
C1254 C1255 1.383 . S
C1254 H1277 0.931 . S
C1255 C1254 1.383 . S
C1255 C1256 1.394 . S
C1256 C1255 1.394 . S
C1256 C1257 1.378 . S
C1256 H1278 0.931 . S
C1257 C1252 1.377 . S
C1257 C1256 1.378 . S
C1257 H1279 0.931 . S
C1258 O1268 1.259 . S
C1258 O1269 1.270 . S
C1259 O1270 1.251 . S
C1259 O1271 1.251 . S
O1260 C1240 1.257 . S
O1260 Eu1241 2.473 . S
O1261 C1240 1.260 . S
O1261 Eu1241 2.480 . S
O1262 Eu1241 2.430 . S
O1262 C1248 1.259 . S
O1263 Eu1241 2.670 . S
O1263 C1248 1.270 . S
O1263 Eu1251 2.355 . S
O1264 Eu1241 2.394 . S
O1264 C1249 1.251 . S
O1265 C1249 1.251 . S
O1265 Eu1251 2.374 . S
O1266 C1250 1.257 . S
O1266 Eu1251 2.473 . S
O1267 C1250 1.260 . S
O1267 Eu1251 2.480 . S
O1268 Eu1251 2.430 . S
O1268 C1258 1.259 . S
O1269 Eu1241 2.355 . S
O1269 Eu1251 2.670 . S
O1269 C1258 1.270 . S
O1270 Eu1251 2.394 . S
O1270 C1259 1.251 . S
O1271 Eu1241 2.374 . S
O1271 C1259 1.251 . S
H1272 C1243 0.931 . S
H1273 C1244 0.931 . S
H1274 C1246 0.931 . S
H1275 C1247 0.931 . S
H1276 C1253 0.931 . S
H1277 C1254 0.931 . S
H1278 C1256 0.931 . S
H1279 C1257 0.931 . S
C1280 Eu1281 2.835 . S
C1280 C1282 1.500 . S
C1280 O1300 1.257 . S
C1280 O1301 1.260 . S
Eu1281 C1280 2.835 . S
Eu1281 O1300 2.473 . S
Eu1281 O1301 2.480 . S
Eu1281 O1302 2.430 . S
Eu1281 O1303 2.670 . S
Eu1281 O1304 2.394 . S
Eu1281 O1309 2.355 . S
Eu1281 O1311 2.374 . S
C1282 C1280 1.500 . S
C1282 C1283 1.377 . S
C1282 C1287 1.377 . S
C1283 C1282 1.377 . S
C1283 C1284 1.395 . S
C1283 H1312 0.931 . S
C1284 C1283 1.395 . S
C1284 C1285 1.383 . S
C1284 H1313 0.931 . S
C1285 C1284 1.383 . S
C1285 C1286 1.394 . S
C1286 C1285 1.394 . S
C1286 C1287 1.378 . S
C1286 H1314 0.931 . S
C1287 C1282 1.377 . S
C1287 C1286 1.378 . S
C1287 H1315 0.931 . S
C1288 O1302 1.259 . S
C1288 O1303 1.270 . S
C1289 O1304 1.251 . S
C1289 O1305 1.251 . S
C1290 Eu1291 2.835 . S
C1290 C1292 1.500 . S
C1290 O1306 1.257 . S
C1290 O1307 1.260 . S
Eu1291 C1290 2.835 . S
Eu1291 O1303 2.355 . S
Eu1291 O1305 2.374 . S
Eu1291 O1306 2.473 . S
Eu1291 O1307 2.480 . S
Eu1291 O1308 2.430 . S
Eu1291 O1309 2.670 . S
Eu1291 O1310 2.394 . S
C1292 C1290 1.500 . S
C1292 C1293 1.377 . S
C1292 C1297 1.377 . S
C1293 C1292 1.377 . S
C1293 C1294 1.395 . S
C1293 H1316 0.931 . S
C1294 C1293 1.395 . S
C1294 C1295 1.383 . S
C1294 H1317 0.931 . S
C1295 C1294 1.383 . S
C1295 C1296 1.394 . S
C1296 C1295 1.394 . S
C1296 C1297 1.378 . S
C1296 H1318 0.931 . S
C1297 C1292 1.377 . S
C1297 C1296 1.378 . S
C1297 H1319 0.931 . S
C1298 O1308 1.259 . S
C1298 O1309 1.270 . S
C1299 O1310 1.251 . S
C1299 O1311 1.251 . S
O1300 C1280 1.257 . S
O1300 Eu1281 2.473 . S
O1301 C1280 1.260 . S
O1301 Eu1281 2.480 . S
O1302 Eu1281 2.430 . S
O1302 C1288 1.259 . S
O1303 Eu1281 2.670 . S
O1303 C1288 1.270 . S
O1303 Eu1291 2.355 . S
O1304 Eu1281 2.394 . S
O1304 C1289 1.251 . S
O1305 C1289 1.251 . S
O1305 Eu1291 2.374 . S
O1306 C1290 1.257 . S
O1306 Eu1291 2.473 . S
O1307 C1290 1.260 . S
O1307 Eu1291 2.480 . S
O1308 Eu1291 2.430 . S
O1308 C1298 1.259 . S
O1309 Eu1281 2.355 . S
O1309 Eu1291 2.670 . S
O1309 C1298 1.270 . S
O1310 Eu1291 2.394 . S
O1310 C1299 1.251 . S
O1311 Eu1281 2.374 . S
O1311 C1299 1.251 . S
H1312 C1283 0.931 . S
H1313 C1284 0.931 . S
H1314 C1286 0.931 . S
H1315 C1287 0.931 . S
H1316 C1293 0.931 . S
H1317 C1294 0.931 . S
H1318 C1296 0.931 . S
H1319 C1297 0.931 . S
C1320 Eu1321 2.835 . S
C1320 C1322 1.500 . S
C1320 O1340 1.257 . S
C1320 O1341 1.260 . S
Eu1321 C1320 2.835 . S
Eu1321 O1340 2.473 . S
Eu1321 O1341 2.480 . S
Eu1321 O1342 2.430 . S
Eu1321 O1343 2.670 . S
Eu1321 O1344 2.394 . S
Eu1321 O1349 2.355 . S
Eu1321 O1351 2.374 . S
C1322 C1320 1.500 . S
C1322 C1323 1.377 . S
C1322 C1327 1.377 . S
C1323 C1322 1.377 . S
C1323 C1324 1.395 . S
C1323 H1352 0.931 . S
C1324 C1323 1.395 . S
C1324 C1325 1.383 . S
C1324 H1353 0.931 . S
C1325 C1324 1.383 . S
C1325 C1326 1.394 . S
C1326 C1325 1.394 . S
C1326 C1327 1.378 . S
C1326 H1354 0.931 . S
C1327 C1322 1.377 . S
C1327 C1326 1.378 . S
C1327 H1355 0.931 . S
C1328 O1342 1.259 . S
C1328 O1343 1.270 . S
C1329 O1344 1.251 . S
C1329 O1345 1.251 . S
C1330 Eu1331 2.835 . S
C1330 C1332 1.500 . S
C1330 O1346 1.257 . S
C1330 O1347 1.260 . S
Eu1331 C1330 2.835 . S
Eu1331 O1343 2.355 . S
Eu1331 O1345 2.374 . S
Eu1331 O1346 2.473 . S
Eu1331 O1347 2.480 . S
Eu1331 O1348 2.430 . S
Eu1331 O1349 2.670 . S
Eu1331 O1350 2.394 . S
C1332 C1330 1.500 . S
C1332 C1333 1.377 . S
C1332 C1337 1.377 . S
C1333 C1332 1.377 . S
C1333 C1334 1.395 . S
C1333 H1356 0.931 . S
C1334 C1333 1.395 . S
C1334 C1335 1.383 . S
C1334 H1357 0.931 . S
C1335 C1334 1.383 . S
C1335 C1336 1.394 . S
C1336 C1335 1.394 . S
C1336 C1337 1.378 . S
C1336 H1358 0.931 . S
C1337 C1332 1.377 . S
C1337 C1336 1.378 . S
C1337 H1359 0.931 . S
C1338 O1348 1.259 . S
C1338 O1349 1.270 . S
C1339 O1350 1.251 . S
C1339 O1351 1.251 . S
O1340 C1320 1.257 . S
O1340 Eu1321 2.473 . S
O1341 C1320 1.260 . S
O1341 Eu1321 2.480 . S
O1342 Eu1321 2.430 . S
O1342 C1328 1.259 . S
O1343 Eu1321 2.670 . S
O1343 C1328 1.270 . S
O1343 Eu1331 2.355 . S
O1344 Eu1321 2.394 . S
O1344 C1329 1.251 . S
O1345 C1329 1.251 . S
O1345 Eu1331 2.374 . S
O1346 C1330 1.257 . S
O1346 Eu1331 2.473 . S
O1347 C1330 1.260 . S
O1347 Eu1331 2.480 . S
O1348 Eu1331 2.430 . S
O1348 C1338 1.259 . S
O1349 Eu1321 2.355 . S
O1349 Eu1331 2.670 . S
O1349 C1338 1.270 . S
O1350 Eu1331 2.394 . S
O1350 C1339 1.251 . S
O1351 Eu1321 2.374 . S
O1351 C1339 1.251 . S
H1352 C1323 0.931 . S
H1353 C1324 0.931 . S
H1354 C1326 0.931 . S
H1355 C1327 0.931 . S
H1356 C1333 0.931 . S
H1357 C1334 0.931 . S
H1358 C1336 0.931 . S
H1359 C1337 0.931 . S
C1360 Eu1361 2.835 . S
C1360 C1362 1.500 . S
C1360 O1380 1.257 . S
C1360 O1381 1.260 . S
Eu1361 C1360 2.835 . S
Eu1361 O1380 2.473 . S
Eu1361 O1381 2.480 . S
Eu1361 O1382 2.430 . S
Eu1361 O1383 2.670 . S
Eu1361 O1384 2.394 . S
Eu1361 O1389 2.355 . S
Eu1361 O1391 2.374 . S
C1362 C1360 1.500 . S
C1362 C1363 1.377 . S
C1362 C1367 1.377 . S
C1363 C1362 1.377 . S
C1363 C1364 1.395 . S
C1363 H1392 0.931 . S
C1364 C1363 1.395 . S
C1364 C1365 1.383 . S
C1364 H1393 0.931 . S
C1365 C1364 1.383 . S
C1365 C1366 1.394 . S
C1366 C1365 1.394 . S
C1366 C1367 1.378 . S
C1366 H1394 0.931 . S
C1367 C1362 1.377 . S
C1367 C1366 1.378 . S
C1367 H1395 0.931 . S
C1368 O1382 1.259 . S
C1368 O1383 1.270 . S
C1369 O1384 1.251 . S
C1369 O1385 1.251 . S
C1370 Eu1371 2.835 . S
C1370 C1372 1.500 . S
C1370 O1386 1.257 . S
C1370 O1387 1.260 . S
Eu1371 C1370 2.835 . S
Eu1371 O1383 2.355 . S
Eu1371 O1385 2.374 . S
Eu1371 O1386 2.473 . S
Eu1371 O1387 2.480 . S
Eu1371 O1388 2.430 . S
Eu1371 O1389 2.670 . S
Eu1371 O1390 2.394 . S
C1372 C1370 1.500 . S
C1372 C1373 1.377 . S
C1372 C1377 1.377 . S
C1373 C1372 1.377 . S
C1373 C1374 1.395 . S
C1373 H1396 0.931 . S
C1374 C1373 1.395 . S
C1374 C1375 1.383 . S
C1374 H1397 0.931 . S
C1375 C1374 1.383 . S
C1375 C1376 1.394 . S
C1376 C1375 1.394 . S
C1376 C1377 1.378 . S
C1376 H1398 0.931 . S
C1377 C1372 1.377 . S
C1377 C1376 1.378 . S
C1377 H1399 0.931 . S
C1378 O1388 1.259 . S
C1378 O1389 1.270 . S
C1379 O1390 1.251 . S
C1379 O1391 1.251 . S
O1380 C1360 1.257 . S
O1380 Eu1361 2.473 . S
O1381 C1360 1.260 . S
O1381 Eu1361 2.480 . S
O1382 Eu1361 2.430 . S
O1382 C1368 1.259 . S
O1383 Eu1361 2.670 . S
O1383 C1368 1.270 . S
O1383 Eu1371 2.355 . S
O1384 Eu1361 2.394 . S
O1384 C1369 1.251 . S
O1385 C1369 1.251 . S
O1385 Eu1371 2.374 . S
O1386 C1370 1.257 . S
O1386 Eu1371 2.473 . S
O1387 C1370 1.260 . S
O1387 Eu1371 2.480 . S
O1388 Eu1371 2.430 . S
O1388 C1378 1.259 . S
O1389 Eu1361 2.355 . S
O1389 Eu1371 2.670 . S
O1389 C1378 1.270 . S
O1390 Eu1371 2.394 . S
O1390 C1379 1.251 . S
O1391 Eu1361 2.374 . S
O1391 C1379 1.251 . S
H1392 C1363 0.931 . S
H1393 C1364 0.931 . S
H1394 C1366 0.931 . S
H1395 C1367 0.931 . S
H1396 C1373 0.931 . S
H1397 C1374 0.931 . S
H1398 C1376 0.931 . S
H1399 C1377 0.931 . S
C1400 Eu1401 2.835 . S
C1400 C1402 1.500 . S
C1400 O1420 1.257 . S
C1400 O1421 1.260 . S
Eu1401 C1400 2.835 . S
Eu1401 O1420 2.473 . S
Eu1401 O1421 2.480 . S
Eu1401 O1422 2.430 . S
Eu1401 O1423 2.670 . S
Eu1401 O1424 2.394 . S
Eu1401 O1429 2.355 . S
Eu1401 O1431 2.374 . S
C1402 C1400 1.500 . S
C1402 C1403 1.377 . S
C1402 C1407 1.377 . S
C1403 C1402 1.377 . S
C1403 C1404 1.395 . S
C1403 H1432 0.931 . S
C1404 C1403 1.395 . S
C1404 C1405 1.383 . S
C1404 H1433 0.931 . S
C1405 C1404 1.383 . S
C1405 C1406 1.394 . S
C1406 C1405 1.394 . S
C1406 C1407 1.378 . S
C1406 H1434 0.931 . S
C1407 C1402 1.377 . S
C1407 C1406 1.378 . S
C1407 H1435 0.931 . S
C1408 O1422 1.259 . S
C1408 O1423 1.270 . S
C1409 O1424 1.251 . S
C1409 O1425 1.251 . S
C1410 Eu1411 2.835 . S
C1410 C1412 1.500 . S
C1410 O1426 1.257 . S
C1410 O1427 1.260 . S
Eu1411 C1410 2.835 . S
Eu1411 O1423 2.355 . S
Eu1411 O1425 2.374 . S
Eu1411 O1426 2.473 . S
Eu1411 O1427 2.480 . S
Eu1411 O1428 2.430 . S
Eu1411 O1429 2.670 . S
Eu1411 O1430 2.394 . S
C1412 C1410 1.500 . S
C1412 C1413 1.377 . S
C1412 C1417 1.377 . S
C1413 C1412 1.377 . S
C1413 C1414 1.395 . S
C1413 H1436 0.931 . S
C1414 C1413 1.395 . S
C1414 C1415 1.383 . S
C1414 H1437 0.931 . S
C1415 C1414 1.383 . S
C1415 C1416 1.394 . S
C1416 C1415 1.394 . S
C1416 C1417 1.378 . S
C1416 H1438 0.931 . S
C1417 C1412 1.377 . S
C1417 C1416 1.378 . S
C1417 H1439 0.931 . S
C1418 O1428 1.259 . S
C1418 O1429 1.270 . S
C1419 O1430 1.251 . S
C1419 O1431 1.251 . S
O1420 C1400 1.257 . S
O1420 Eu1401 2.473 . S
O1421 C1400 1.260 . S
O1421 Eu1401 2.480 . S
O1422 Eu1401 2.430 . S
O1422 C1408 1.259 . S
O1423 Eu1401 2.670 . S
O1423 C1408 1.270 . S
O1423 Eu1411 2.355 . S
O1424 Eu1401 2.394 . S
O1424 C1409 1.251 . S
O1425 C1409 1.251 . S
O1425 Eu1411 2.374 . S
O1426 C1410 1.257 . S
O1426 Eu1411 2.473 . S
O1427 C1410 1.260 . S
O1427 Eu1411 2.480 . S
O1428 Eu1411 2.430 . S
O1428 C1418 1.259 . S
O1429 Eu1401 2.355 . S
O1429 Eu1411 2.670 . S
O1429 C1418 1.270 . S
O1430 Eu1411 2.394 . S
O1430 C1419 1.251 . S
O1431 Eu1401 2.374 . S
O1431 C1419 1.251 . S
H1432 C1403 0.931 . S
H1433 C1404 0.931 . S
H1434 C1406 0.931 . S
H1435 C1407 0.931 . S
H1436 C1413 0.931 . S
H1437 C1414 0.931 . S
H1438 C1416 0.931 . S
H1439 C1417 0.931 . S
C1440 C1441 1.349 . S
C1440 C1442 1.327 . S
C1440 H1465 0.950 . S
C1441 C1440 1.349 . S
C1441 C1457 1.349 . S
C1442 C1440 1.327 . S
C1442 C1461 1.429 . S
C1442 H1466 0.950 . S
C1443 C1460 1.574 . S
C1443 C1462 1.368 . S
C1443 H1467 0.949 . S
H1444 C1448 0.949 . S
C1445 C1446 1.349 . S
C1445 C1447 1.327 . S
C1445 H1468 0.950 . S
C1446 C1445 1.349 . S
C1446 C1458 1.349 . S
C1447 C1445 1.327 . S
C1447 C1463 1.429 . S
C1447 H1469 0.950 . S
C1448 H1444 0.949 . S
C1448 C1456 1.574 . S
C1448 C1464 1.368 . S
H1449 C1457 0.950 . S
H1450 C1455 0.950 . S
H1451 C1456 0.949 . S
H1452 C1458 0.950 . S
H1453 C1459 0.950 . S
H1454 C1460 0.949 . S
C1455 H1450 0.950 . S
C1455 C1457 1.327 . S
C1455 C1461 1.429 . S
C1456 C1448 1.574 . S
C1456 H1451 0.949 . S
C1456 C1462 1.368 . S
C1457 C1441 1.349 . S
C1457 H1449 0.950 . S
C1457 C1455 1.327 . S
C1458 C1446 1.349 . S
C1458 H1452 0.950 . S
C1458 C1459 1.327 . S
C1459 H1453 0.950 . S
C1459 C1458 1.327 . S
C1459 C1463 1.429 . S
C1460 C1443 1.574 . S
C1460 H1454 0.949 . S
C1460 C1464 1.368 . S
C1461 C1442 1.429 . S
C1461 C1455 1.429 . S
C1461 C1462 1.523 . S
C1462 C1443 1.368 . S
C1462 C1456 1.368 . S
C1462 C1461 1.523 . S
C1463 C1447 1.429 . S
C1463 C1459 1.429 . S
C1463 C1464 1.523 . S
C1464 C1448 1.368 . S
C1464 C1460 1.368 . S
C1464 C1463 1.523 . S
H1465 C1440 0.950 . S
H1466 C1442 0.950 . S
H1467 C1443 0.949 . S
H1468 C1445 0.950 . S
H1469 C1447 0.950 . S
C1470 C1471 1.349 . S
C1470 C1472 1.327 . S
C1470 H1495 0.950 . S
C1471 C1470 1.349 . S
C1471 C1487 1.349 . S
C1472 C1470 1.327 . S
C1472 C1491 1.429 . S
C1472 H1496 0.950 . S
C1473 C1490 1.574 . S
C1473 C1492 1.368 . S
C1473 H1497 0.949 . S
H1474 C1478 0.949 . S
C1475 C1476 1.349 . S
C1475 C1477 1.327 . S
C1475 H1498 0.950 . S
C1476 C1475 1.349 . S
C1476 C1488 1.349 . S
C1477 C1475 1.327 . S
C1477 C1493 1.429 . S
C1477 H1499 0.950 . S
C1478 H1474 0.949 . S
C1478 C1486 1.574 . S
C1478 C1494 1.368 . S
H1479 C1487 0.950 . S
H1480 C1485 0.950 . S
H1481 C1486 0.949 . S
H1482 C1488 0.950 . S
H1483 C1489 0.950 . S
H1484 C1490 0.949 . S
C1485 H1480 0.950 . S
C1485 C1487 1.327 . S
C1485 C1491 1.429 . S
C1486 C1478 1.574 . S
C1486 H1481 0.949 . S
C1486 C1492 1.368 . S
C1487 C1471 1.349 . S
C1487 H1479 0.950 . S
C1487 C1485 1.327 . S
C1488 C1476 1.349 . S
C1488 H1482 0.950 . S
C1488 C1489 1.327 . S
C1489 H1483 0.950 . S
C1489 C1488 1.327 . S
C1489 C1493 1.429 . S
C1490 C1473 1.574 . S
C1490 H1484 0.949 . S
C1490 C1494 1.368 . S
C1491 C1472 1.429 . S
C1491 C1485 1.429 . S
C1491 C1492 1.523 . S
C1492 C1473 1.368 . S
C1492 C1486 1.368 . S
C1492 C1491 1.523 . S
C1493 C1477 1.429 . S
C1493 C1489 1.429 . S
C1493 C1494 1.523 . S
C1494 C1478 1.368 . S
C1494 C1490 1.368 . S
C1494 C1493 1.523 . S
H1495 C1470 0.950 . S
H1496 C1472 0.950 . S
H1497 C1473 0.949 . S
H1498 C1475 0.950 . S
H1499 C1477 0.950 . S
C1500 C1501 1.349 . S
C1500 C1502 1.327 . S
C1500 H1525 0.950 . S
C1501 C1500 1.349 . S
C1501 C1517 1.349 . S
C1502 C1500 1.327 . S
C1502 C1521 1.429 . S
C1502 H1526 0.950 . S
C1503 C1520 1.574 . S
C1503 C1522 1.368 . S
C1503 H1527 0.949 . S
H1504 C1508 0.949 . S
C1505 C1506 1.349 . S
C1505 C1507 1.327 . S
C1505 H1528 0.950 . S
C1506 C1505 1.349 . S
C1506 C1518 1.349 . S
C1507 C1505 1.327 . S
C1507 C1523 1.429 . S
C1507 H1529 0.950 . S
C1508 H1504 0.949 . S
C1508 C1516 1.574 . S
C1508 C1524 1.368 . S
H1509 C1517 0.950 . S
H1510 C1515 0.950 . S
H1511 C1516 0.949 . S
H1512 C1518 0.950 1_556 S
H1513 C1519 0.995 . S
H1514 C1520 0.949 . S
C1515 H1510 0.950 . S
C1515 C1517 1.327 . S
C1515 C1521 1.429 . S
C1516 C1508 1.574 . S
C1516 H1511 0.949 . S
C1516 C1522 1.368 . S
C1517 C1501 1.349 . S
C1517 H1509 0.950 . S
C1517 C1515 1.327 . S
C1518 C1506 1.349 . S
C1518 H1512 0.950 1_554 S
C1518 C1519 1.327 . S
C1519 H1513 0.995 . S
C1519 C1518 1.327 . S
C1519 C1523 1.429 . S
C1520 C1503 1.574 . S
C1520 H1514 0.949 . S
C1520 C1524 1.368 . S
C1521 C1502 1.429 . S
C1521 C1515 1.429 . S
C1521 C1522 1.523 . S
C1522 C1503 1.368 . S
C1522 C1516 1.368 . S
C1522 C1521 1.523 . S
C1523 C1507 1.429 . S
C1523 C1519 1.429 . S
C1523 C1524 1.523 . S
C1524 C1508 1.368 . S
C1524 C1520 1.368 . S
C1524 C1523 1.523 . S
H1525 C1500 0.950 . S
H1526 C1502 0.950 . S
H1527 C1503 0.949 . S
H1528 C1505 0.950 . S
H1529 C1507 0.950 . S
C1530 C1531 1.349 . S
C1530 C1532 1.327 . S
C1530 H1555 0.950 . S
C1531 C1530 1.349 . S
C1531 C1547 1.349 . S
C1532 C1530 1.327 . S
C1532 C1551 1.429 . S
C1532 H1556 0.950 . S
C1533 C1550 1.574 . S
C1533 C1552 1.368 . S
C1533 H1557 0.949 . S
H1534 C1538 0.949 . S
C1535 C1536 1.349 . S
C1535 C1537 1.327 . S
C1535 H1558 0.950 1_556 S
C1536 C1535 1.349 . S
C1536 C1548 1.349 . S
C1537 C1535 1.327 . S
C1537 C1553 1.429 . S
C1537 H1559 0.883 1_556 S
C1538 H1534 0.949 . S
C1538 C1546 1.574 . S
C1538 C1554 1.368 . S
H1539 C1547 0.950 . S
H1540 C1545 0.950 . S
H1541 C1546 0.949 . S
H1542 C1548 0.950 . S
H1543 C1549 0.950 . S
H1544 C1550 0.949 . S
C1545 H1540 0.950 . S
C1545 C1547 1.327 . S
C1545 C1551 1.429 . S
C1546 C1538 1.574 . S
C1546 H1541 0.949 . S
C1546 C1552 1.368 . S
C1547 C1531 1.349 . S
C1547 H1539 0.950 . S
C1547 C1545 1.327 . S
C1548 C1536 1.349 . S
C1548 H1542 0.950 . S
C1548 C1549 1.327 . S
C1549 H1543 0.950 . S
C1549 C1548 1.327 . S
C1549 C1553 1.429 . S
C1550 C1533 1.574 . S
C1550 H1544 0.949 . S
C1550 C1554 1.368 . S
C1551 C1532 1.429 . S
C1551 C1545 1.429 . S
C1551 C1552 1.523 . S
C1552 C1533 1.368 . S
C1552 C1546 1.368 . S
C1552 C1551 1.523 . S
C1553 C1537 1.429 . S
C1553 C1549 1.429 . S
C1553 C1554 1.523 . S
C1554 C1538 1.368 . S
C1554 C1550 1.368 . S
C1554 C1553 1.523 . S
H1555 C1530 0.950 . S
H1556 C1532 0.950 . S
H1557 C1533 0.949 . S
H1558 C1535 0.950 1_554 S
H1559 C1537 0.883 1_554 S
C1560 C1561 1.349 . S
C1560 C1562 1.327 . S
C1560 H1585 0.950 . S
C1561 C1560 1.349 . S
C1561 C1577 1.349 . S
C1562 C1560 1.327 . S
C1562 C1581 1.429 . S
C1562 H1586 0.950 . S
C1563 C1580 1.574 . S
C1563 C1582 1.368 . S
C1563 H1587 0.949 . S
H1564 C1568 0.949 . S
C1565 C1566 1.349 . S
C1565 C1567 1.327 . S
C1565 H1588 0.950 . S
C1566 C1565 1.349 . S
C1566 C1578 1.349 . S
C1567 C1565 1.327 . S
C1567 C1583 1.429 . S
C1567 H1589 0.950 . S
C1568 H1564 0.949 . S
C1568 C1576 1.574 . S
C1568 C1584 1.368 . S
H1569 C1577 0.950 . S
H1570 C1575 0.950 . S
H1571 C1576 0.949 . S
H1572 C1578 0.950 . S
H1573 C1579 0.950 . S
H1574 C1580 0.949 . S
C1575 H1570 0.950 . S
C1575 C1577 1.327 . S
C1575 C1581 1.429 . S
C1576 C1568 1.574 . S
C1576 H1571 0.949 . S
C1576 C1582 1.368 . S
C1577 C1561 1.349 . S
C1577 H1569 0.950 . S
C1577 C1575 1.327 . S
C1578 C1566 1.349 . S
C1578 H1572 0.950 . S
C1578 C1579 1.327 . S
C1579 H1573 0.950 . S
C1579 C1578 1.327 . S
C1579 C1583 1.429 . S
C1580 C1563 1.574 . S
C1580 H1574 0.949 . S
C1580 C1584 1.368 . S
C1581 C1562 1.429 . S
C1581 C1575 1.429 . S
C1581 C1582 1.523 . S
C1582 C1563 1.368 . S
C1582 C1576 1.368 . S
C1582 C1581 1.523 . S
C1583 C1567 1.429 . S
C1583 C1579 1.429 . S
C1583 C1584 1.523 . S
C1584 C1568 1.368 . S
C1584 C1580 1.368 . S
C1584 C1583 1.523 . S
H1585 C1560 0.950 . S
H1586 C1562 0.950 . S
H1587 C1563 0.949 . S
H1588 C1565 0.950 . S
H1589 C1567 0.950 . S
C1590 C1591 1.349 . S
C1590 C1592 1.327 . S
C1590 H1615 0.950 . S
C1591 C1590 1.349 . S
C1591 C1607 1.349 . S
C1592 C1590 1.327 . S
C1592 C1611 1.429 . S
C1592 H1616 0.950 . S
C1593 C1610 1.574 . S
C1593 C1612 1.368 . S
C1593 H1617 0.949 . S
H1594 C1598 0.944 1_554 S
C1595 C1596 1.349 . S
C1595 C1597 1.327 . S
C1595 H1618 0.950 . S
C1596 C1595 1.349 . S
C1596 C1608 1.349 1_556 S
C1597 C1595 1.327 . S
C1597 C1613 1.429 . S
C1597 H1619 0.950 . S
C1598 H1594 0.944 1_556 S
C1598 C1606 1.574 . S
C1598 C1614 1.368 . S
H1599 C1607 0.950 . S
H1600 C1605 0.950 . S
H1601 C1606 0.949 . S
H1602 C1608 0.950 . S
H1603 C1609 0.950 1_554 S
H1604 C1610 0.949 . S
C1605 H1600 0.950 . S
C1605 C1607 1.327 . S
C1605 C1611 1.429 . S
C1606 C1598 1.574 . S
C1606 H1601 0.949 . S
C1606 C1612 1.368 . S
C1607 C1591 1.349 . S
C1607 H1599 0.950 . S
C1607 C1605 1.327 . S
C1608 C1596 1.349 1_554 S
C1608 H1602 0.950 . S
C1608 C1609 1.327 1_554 S
C1609 H1603 0.950 1_556 S
C1609 C1608 1.327 1_556 S
C1609 C1613 1.429 . S
C1610 C1593 1.574 . S
C1610 H1604 0.949 . S
C1610 C1614 1.368 . S
C1611 C1592 1.429 . S
C1611 C1605 1.429 . S
C1611 C1612 1.523 . S
C1612 C1593 1.368 . S
C1612 C1606 1.368 . S
C1612 C1611 1.523 . S
C1613 C1597 1.429 . S
C1613 C1609 1.429 . S
C1613 C1614 1.523 . S
C1614 C1598 1.368 . S
C1614 C1610 1.368 . S
C1614 C1613 1.523 . S
H1615 C1590 0.950 . S
H1616 C1592 0.950 . S
H1617 C1593 0.949 . S
H1618 C1595 0.950 . S
H1619 C1597 0.950 . S
C1620 C1621 1.349 . S
C1620 C1622 1.327 . S
C1620 H1645 0.950 . S
C1621 C1620 1.349 . S
C1621 C1637 1.349 . S
C1622 C1620 1.327 . S
C1622 C1641 1.429 . S
C1622 H1646 0.950 . S
C1623 C1640 1.574 . S
C1623 C1642 1.368 . S
C1623 H1647 0.949 . S
H1624 C1628 0.949 . S
C1625 C1626 1.349 . S
C1625 C1627 1.327 . S
C1625 H1648 0.950 1_556 S
C1626 C1625 1.349 . S
C1626 C1638 1.349 . S
C1627 C1625 1.327 . S
C1627 C1643 1.429 . S
C1627 H1649 0.950 . S
C1628 H1624 0.949 . S
C1628 C1636 1.574 . S
C1628 C1644 1.368 . S
H1629 C1637 0.950 . S
H1630 C1635 0.950 . S
H1631 C1636 0.949 . S
H1632 C1638 0.950 . S
H1633 C1639 0.950 . S
H1634 C1640 0.949 . S
C1635 H1630 0.950 . S
C1635 C1637 1.327 . S
C1635 C1641 1.429 . S
C1636 C1628 1.574 . S
C1636 H1631 0.949 . S
C1636 C1642 1.368 . S
C1637 C1621 1.349 . S
C1637 H1629 0.950 . S
C1637 C1635 1.327 . S
C1638 C1626 1.349 . S
C1638 H1632 0.950 . S
C1638 C1639 1.327 . S
C1639 H1633 0.950 . S
C1639 C1638 1.327 . S
C1639 C1643 1.429 . S
C1640 C1623 1.574 . S
C1640 H1634 0.949 . S
C1640 C1644 1.368 . S
C1641 C1622 1.429 . S
C1641 C1635 1.429 . S
C1641 C1642 1.523 . S
C1642 C1623 1.368 . S
C1642 C1636 1.368 . S
C1642 C1641 1.523 . S
C1643 C1627 1.429 . S
C1643 C1639 1.429 . S
C1643 C1644 1.523 . S
C1644 C1628 1.368 . S
C1644 C1640 1.368 . S
C1644 C1643 1.523 . S
H1645 C1620 0.950 . S
H1646 C1622 0.950 . S
H1647 C1623 0.949 . S
H1648 C1625 0.950 1_554 S
H1649 C1627 0.950 . S
C1650 C1651 1.349 . S
C1650 C1652 1.327 . S
C1650 H1675 0.950 . S
C1651 C1650 1.349 . S
C1651 C1667 1.349 . S
C1652 C1650 1.327 . S
C1652 C1671 1.429 . S
C1652 H1676 0.950 . S
C1653 C1670 1.574 . S
C1653 C1672 1.368 . S
C1653 H1677 0.949 . S
H1654 C1658 0.949 . S
C1655 C1656 1.349 . S
C1655 C1657 1.327 . S
C1655 H1678 0.950 . S
C1656 C1655 1.349 . S
C1656 C1668 1.349 . S
C1657 C1655 1.327 . S
C1657 C1673 1.429 . S
C1657 H1679 0.950 . S
C1658 H1654 0.949 . S
C1658 C1666 1.574 . S
C1658 C1674 1.368 . S
H1659 C1667 0.950 . S
H1660 C1665 0.950 . S
H1661 C1666 0.949 . S
H1662 C1668 0.993 . S
H1663 C1669 0.950 . S
H1664 C1670 0.949 . S
C1665 H1660 0.950 . S
C1665 C1667 1.327 . S
C1665 C1671 1.429 . S
C1666 C1658 1.574 . S
C1666 H1661 0.949 . S
C1666 C1672 1.368 . S
C1667 C1651 1.349 . S
C1667 H1659 0.950 . S
C1667 C1665 1.327 . S
C1668 C1656 1.349 . S
C1668 H1662 0.993 . S
C1668 C1669 1.327 . S
C1669 H1663 0.950 . S
C1669 C1668 1.327 . S
C1669 C1673 1.429 . S
C1670 C1653 1.574 . S
C1670 H1664 0.949 . S
C1670 C1674 1.368 . S
C1671 C1652 1.429 . S
C1671 C1665 1.429 . S
C1671 C1672 1.523 . S
C1672 C1653 1.368 . S
C1672 C1666 1.368 . S
C1672 C1671 1.523 . S
C1673 C1657 1.429 . S
C1673 C1669 1.429 . S
C1673 C1674 1.523 . S
C1674 C1658 1.368 . S
C1674 C1670 1.368 . S
C1674 C1673 1.523 . S
H1675 C1650 0.950 . S
H1676 C1652 0.950 . S
H1677 C1653 0.949 . S
H1678 C1655 0.950 . S
H1679 C1657 0.950 . S
C1680 C1681 1.349 . S
C1680 C1682 1.327 . S
C1680 H1705 0.950 . S
C1681 C1680 1.349 . S
C1681 C1697 1.349 . S
C1682 C1680 1.327 . S
C1682 C1701 1.429 . S
C1682 H1706 0.950 . S
C1683 C1700 1.574 . S
C1683 C1702 1.368 . S
C1683 H1707 0.949 . S
H1684 C1688 0.949 . S
C1685 C1686 1.349 . S
C1685 C1687 1.327 . S
C1685 H1708 0.950 . S
C1686 C1685 1.349 . S
C1686 C1698 1.349 . S
C1687 C1685 1.327 . S
C1687 C1703 1.429 . S
C1687 H1709 0.950 . S
C1688 H1684 0.949 . S
C1688 C1696 1.574 . S
C1688 C1704 1.368 . S
H1689 C1697 0.950 . S
H1690 C1695 0.950 . S
H1691 C1696 0.949 . S
H1692 C1698 0.950 1_554 S
H1693 C1699 0.950 1_554 S
H1694 C1700 0.949 . S
C1695 H1690 0.950 . S
C1695 C1697 1.327 . S
C1695 C1701 1.429 . S
C1696 C1688 1.574 . S
C1696 H1691 0.949 . S
C1696 C1702 1.368 . S
C1697 C1681 1.349 . S
C1697 H1689 0.950 . S
C1697 C1695 1.327 . S
C1698 C1686 1.349 . S
C1698 H1692 0.950 1_556 S
C1698 C1699 1.327 . S
C1699 H1693 0.950 1_556 S
C1699 C1698 1.327 . S
C1699 C1703 1.429 . S
C1700 C1683 1.574 . S
C1700 H1694 0.949 . S
C1700 C1704 1.368 . S
C1701 C1682 1.429 . S
C1701 C1695 1.429 . S
C1701 C1702 1.523 . S
C1702 C1683 1.368 . S
C1702 C1696 1.368 . S
C1702 C1701 1.523 . S
C1703 C1687 1.429 . S
C1703 C1699 1.429 . S
C1703 C1704 1.523 . S
C1704 C1688 1.368 . S
C1704 C1700 1.368 . S
C1704 C1703 1.523 . S
H1705 C1680 0.950 . S
H1706 C1682 0.950 . S
H1707 C1683 0.949 . S
H1708 C1685 0.950 . S
H1709 C1687 0.950 . S
C1710 C1711 1.349 . S
C1710 C1712 1.327 . S
C1710 H1735 0.950 . S
C1711 C1710 1.349 . S
C1711 C1727 1.349 . S
C1712 C1710 1.327 . S
C1712 C1731 1.429 . S
C1712 H1736 0.950 . S
C1713 C1730 1.574 . S
C1713 C1732 1.368 . S
C1713 H1737 0.949 . S
H1714 C1718 0.949 . S
C1715 C1716 1.349 . S
C1715 C1717 1.327 . S
C1715 H1738 0.950 . S
C1716 C1715 1.349 . S
C1716 C1728 1.349 . S
C1717 C1715 1.327 . S
C1717 C1733 1.429 . S
C1717 H1739 0.950 . S
C1718 H1714 0.949 . S
C1718 C1726 1.574 . S
C1718 C1734 1.368 . S
H1719 C1727 0.950 . S
H1720 C1725 0.950 . S
H1721 C1726 0.949 . S
H1722 C1728 0.950 . S
H1723 C1729 0.950 . S
H1724 C1730 0.949 . S
C1725 H1720 0.950 . S
C1725 C1727 1.327 . S
C1725 C1731 1.429 . S
C1726 C1718 1.574 . S
C1726 H1721 0.949 . S
C1726 C1732 1.368 . S
C1727 C1711 1.349 . S
C1727 H1719 0.950 . S
C1727 C1725 1.327 . S
C1728 C1716 1.349 . S
C1728 H1722 0.950 . S
C1728 C1729 1.327 . S
C1729 H1723 0.950 . S
C1729 C1728 1.327 . S
C1729 C1733 1.429 . S
C1730 C1713 1.574 . S
C1730 H1724 0.949 . S
C1730 C1734 1.368 . S
C1731 C1712 1.429 . S
C1731 C1725 1.429 . S
C1731 C1732 1.523 . S
C1732 C1713 1.368 . S
C1732 C1726 1.368 . S
C1732 C1731 1.523 . S
C1733 C1717 1.429 . S
C1733 C1729 1.429 . S
C1733 C1734 1.523 . S
C1734 C1718 1.368 . S
C1734 C1730 1.368 . S
C1734 C1733 1.523 . S
H1735 C1710 0.950 . S
H1736 C1712 0.950 . S
H1737 C1713 0.949 . S
H1738 C1715 0.950 . S
H1739 C1717 0.950 . S
C1740 C1741 1.349 . S
C1740 C1742 1.327 . S
C1740 H1765 0.950 . S
C1741 C1740 1.349 . S
C1741 C1757 1.349 . S
C1742 C1740 1.327 . S
C1742 C1761 1.429 . S
C1742 H1766 0.950 . S
C1743 C1760 1.574 . S
C1743 C1762 1.368 . S
C1743 H1767 0.949 . S
H1744 C1748 0.949 . S
C1745 C1746 1.349 . S
C1745 C1747 1.327 . S
C1745 H1768 0.950 . S
C1746 C1745 1.349 . S
C1746 C1758 1.349 . S
C1747 C1745 1.327 . S
C1747 C1763 1.429 . S
C1747 H1769 0.950 . S
C1748 H1744 0.949 . S
C1748 C1756 1.574 . S
C1748 C1764 1.368 . S
H1749 C1757 0.950 . S
H1750 C1755 0.950 . S
H1751 C1756 0.949 . S
H1752 C1758 1.005 . S
H1753 C1759 0.950 . S
H1754 C1760 0.949 . S
C1755 H1750 0.950 . S
C1755 C1757 1.327 . S
C1755 C1761 1.429 . S
C1756 C1748 1.574 . S
C1756 H1751 0.949 . S
C1756 C1762 1.368 . S
C1757 C1741 1.349 . S
C1757 H1749 0.950 . S
C1757 C1755 1.327 . S
C1758 C1746 1.349 . S
C1758 H1752 1.005 . S
C1758 C1759 1.327 . S
C1759 H1753 0.950 . S
C1759 C1758 1.327 . S
C1759 C1763 1.429 . S
C1760 C1743 1.574 . S
C1760 H1754 0.949 . S
C1760 C1764 1.368 . S
C1761 C1742 1.429 . S
C1761 C1755 1.429 . S
C1761 C1762 1.523 . S
C1762 C1743 1.368 . S
C1762 C1756 1.368 . S
C1762 C1761 1.523 . S
C1763 C1747 1.429 . S
C1763 C1759 1.429 . S
C1763 C1764 1.523 . S
C1764 C1748 1.368 . S
C1764 C1760 1.368 . S
C1764 C1763 1.523 . S
H1765 C1740 0.950 . S
H1766 C1742 0.950 . S
H1767 C1743 0.949 . S
H1768 C1745 0.950 . S
H1769 C1747 0.950 . S
C1770 C1771 1.349 . S
C1770 C1772 1.327 . S
C1770 H1795 0.950 . S
C1771 C1770 1.349 . S
C1771 C1787 1.349 . S
C1772 C1770 1.327 . S
C1772 C1791 1.429 . S
C1772 H1796 0.950 . S
C1773 C1790 1.574 . S
C1773 C1792 1.368 . S
C1773 H1797 0.949 . S
H1774 C1778 0.949 . S
C1775 C1776 1.349 . S
C1775 C1777 1.327 . S
C1775 H1798 0.950 1_554 S
C1776 C1775 1.349 . S
C1776 C1788 1.349 . S
C1777 C1775 1.327 . S
C1777 C1793 1.429 . S
C1777 H1799 0.950 . S
C1778 H1774 0.949 . S
C1778 C1786 1.574 . S
C1778 C1794 1.368 . S
H1779 C1787 0.950 . S
H1780 C1785 0.950 . S
H1781 C1786 0.949 . S
H1782 C1788 0.950 . S
H1783 C1789 0.950 . S
H1784 C1790 0.949 . S
C1785 H1780 0.950 . S
C1785 C1787 1.327 . S
C1785 C1791 1.429 . S
C1786 C1778 1.574 . S
C1786 H1781 0.949 . S
C1786 C1792 1.368 . S
C1787 C1771 1.349 . S
C1787 H1779 0.950 . S
C1787 C1785 1.327 . S
C1788 C1776 1.349 . S
C1788 H1782 0.950 . S
C1788 C1789 1.327 . S
C1789 H1783 0.950 . S
C1789 C1788 1.327 . S
C1789 C1793 1.429 . S
C1790 C1773 1.574 . S
C1790 H1784 0.949 . S
C1790 C1794 1.368 . S
C1791 C1772 1.429 . S
C1791 C1785 1.429 . S
C1791 C1792 1.523 . S
C1792 C1773 1.368 . S
C1792 C1786 1.368 . S
C1792 C1791 1.523 . S
C1793 C1777 1.429 . S
C1793 C1789 1.429 . S
C1793 C1794 1.523 . S
C1794 C1778 1.368 . S
C1794 C1790 1.368 . S
C1794 C1793 1.523 . S
H1795 C1770 0.950 . S
H1796 C1772 0.950 . S
H1797 C1773 0.949 . S
H1798 C1775 0.950 1_556 S
H1799 C1777 0.950 . S
C1800 C1801 1.349 . S
C1800 C1802 1.327 . S
C1800 H1825 0.950 . S
C1801 C1800 1.349 . S
C1801 C1817 1.349 . S
C1802 C1800 1.327 . S
C1802 C1821 1.429 . S
C1802 H1826 0.955 1_655 S
C1803 C1820 1.574 . S
C1803 C1822 1.368 . S
C1803 H1827 0.949 . S
H1804 C1808 0.949 . S
C1805 C1806 1.349 . S
C1805 C1807 1.327 . S
C1805 H1828 0.950 . S
C1806 C1805 1.349 . S
C1806 C1818 1.349 . S
C1807 C1805 1.327 . S
C1807 C1823 1.429 . S
C1807 H1829 0.950 . S
C1808 H1804 0.949 . S
C1808 C1816 1.574 . S
C1808 C1824 1.368 . S
H1809 C1817 0.950 . S
H1810 C1815 0.950 . S
H1811 C1816 0.949 . S
H1812 C1818 0.950 . S
H1813 C1819 0.950 . S
H1814 C1820 0.949 . S
C1815 H1810 0.950 . S
C1815 C1817 1.327 . S
C1815 C1821 1.429 . S
C1816 C1808 1.574 . S
C1816 H1811 0.949 . S
C1816 C1822 1.368 . S
C1817 C1801 1.349 . S
C1817 H1809 0.950 . S
C1817 C1815 1.327 . S
C1818 C1806 1.349 . S
C1818 H1812 0.950 . S
C1818 C1819 1.327 . S
C1819 H1813 0.950 . S
C1819 C1818 1.327 . S
C1819 C1823 1.429 . S
C1820 C1803 1.574 . S
C1820 H1814 0.949 . S
C1820 C1824 1.368 . S
C1821 C1802 1.429 . S
C1821 C1815 1.429 . S
C1821 C1822 1.523 1_655 S
C1822 C1803 1.368 . S
C1822 C1816 1.368 . S
C1822 C1821 1.523 1_455 S
C1823 C1807 1.429 . S
C1823 C1819 1.429 . S
C1823 C1824 1.523 . S
C1824 C1808 1.368 . S
C1824 C1820 1.368 . S
C1824 C1823 1.523 . S
H1825 C1800 0.950 . S
H1826 C1802 0.955 1_455 S
H1827 C1803 0.949 . S
H1828 C1805 0.950 . S
H1829 C1807 0.950 . S
C1830 C1831 1.349 . S
C1830 C1832 1.327 . S
C1830 H1855 0.950 . S
C1831 C1830 1.349 . S
C1831 C1847 1.349 . S
C1832 C1830 1.327 . S
C1832 C1851 1.429 . S
C1832 H1856 0.950 . S
C1833 C1850 1.574 . S
C1833 C1852 1.368 . S
C1833 H1857 0.949 . S
H1834 C1838 0.949 . S
C1835 C1836 1.349 . S
C1835 C1837 1.327 . S
C1835 H1858 0.950 . S
C1836 C1835 1.349 . S
C1836 C1848 1.349 . S
C1837 C1835 1.327 . S
C1837 C1853 1.429 . S
C1837 H1859 0.950 . S
C1838 H1834 0.949 . S
C1838 C1846 1.574 . S
C1838 C1854 1.368 . S
H1839 C1847 0.950 . S
H1840 C1845 0.950 . S
H1841 C1846 0.949 . S
H1842 C1848 0.950 . S
H1843 C1849 0.950 . S
H1844 C1850 0.949 . S
C1845 H1840 0.950 . S
C1845 C1847 1.327 . S
C1845 C1851 1.429 . S
C1846 C1838 1.574 . S
C1846 H1841 0.949 . S
C1846 C1852 1.368 . S
C1847 C1831 1.349 . S
C1847 H1839 0.950 . S
C1847 C1845 1.327 . S
C1848 C1836 1.349 . S
C1848 H1842 0.950 . S
C1848 C1849 1.327 . S
C1849 H1843 0.950 . S
C1849 C1848 1.327 . S
C1849 C1853 1.429 . S
C1850 C1833 1.574 . S
C1850 H1844 0.949 . S
C1850 C1854 1.368 . S
C1851 C1832 1.429 . S
C1851 C1845 1.429 . S
C1851 C1852 1.523 . S
C1852 C1833 1.368 . S
C1852 C1846 1.368 . S
C1852 C1851 1.523 . S
C1853 C1837 1.429 . S
C1853 C1849 1.429 . S
C1853 C1854 1.523 . S
C1854 C1838 1.368 . S
C1854 C1850 1.368 . S
C1854 C1853 1.523 . S
H1855 C1830 0.950 . S
H1856 C1832 0.950 . S
H1857 C1833 0.949 . S
H1858 C1835 0.950 . S
H1859 C1837 0.950 . S
C1860 C1861 1.349 . S
C1860 C1862 1.327 . S
C1860 H1885 0.950 . S
C1861 C1860 1.349 . S
C1861 C1877 1.349 . S
C1862 C1860 1.327 . S
C1862 C1881 1.429 . S
C1862 H1886 0.950 . S
C1863 C1880 1.574 . S
C1863 C1882 1.389 . S
C1863 H1887 0.949 . S
H1864 C1868 0.949 . S
C1865 C1866 1.349 . S
C1865 C1867 1.327 . S
C1865 H1888 0.950 . S
C1866 C1865 1.349 . S
C1866 C1878 1.349 . S
C1867 C1865 1.327 . S
C1867 C1883 1.429 . S
C1867 H1889 0.950 . S
C1868 H1864 0.949 . S
C1868 C1876 1.574 . S
C1868 C1884 1.368 . S
H1869 C1877 0.950 . S
H1870 C1875 0.950 . S
H1871 C1876 0.949 1_545 S
H1872 C1878 0.950 . S
H1873 C1879 0.950 . S
H1874 C1880 0.949 . S
C1875 H1870 0.950 . S
C1875 C1877 1.327 . S
C1875 C1881 1.429 . S
C1876 C1868 1.574 . S
C1876 H1871 0.949 1_565 S
C1876 C1882 1.393 . S
C1877 C1861 1.349 . S
C1877 H1869 0.950 . S
C1877 C1875 1.327 . S
C1878 C1866 1.349 . S
C1878 H1872 0.950 . S
C1878 C1879 1.327 . S
C1879 H1873 0.950 . S
C1879 C1878 1.327 . S
C1879 C1883 1.429 . S
C1880 C1863 1.574 . S
C1880 H1874 0.949 . S
C1880 C1884 1.368 . S
C1881 C1862 1.429 . S
C1881 C1875 1.429 . S
C1881 C1882 1.469 1_545 S
C1882 C1863 1.389 . S
C1882 C1876 1.393 . S
C1882 C1881 1.469 1_565 S
C1883 C1867 1.429 . S
C1883 C1879 1.429 . S
C1883 C1884 1.523 . S
C1884 C1868 1.368 . S
C1884 C1880 1.368 . S
C1884 C1883 1.523 . S
H1885 C1860 0.950 . S
H1886 C1862 0.950 . S
H1887 C1863 0.949 . S
H1888 C1865 0.950 . S
H1889 C1867 0.950 . S
C1890 C1891 1.349 . S
C1890 C1892 1.327 . S
C1890 H1915 0.950 . S
C1891 C1890 1.349 . S
C1891 C1907 1.349 . S
C1892 C1890 1.327 . S
C1892 C1911 1.429 . S
C1892 H1916 0.950 . S
C1893 C1910 1.574 . S
C1893 C1912 1.368 . S
C1893 H1917 0.949 . S
H1894 C1898 0.949 . S
C1895 C1896 1.349 . S
C1895 C1897 1.327 . S
C1895 H1918 0.950 . S
C1896 C1895 1.349 . S
C1896 C1908 1.349 . S
C1897 C1895 1.327 . S
C1897 C1913 1.429 . S
C1897 H1919 0.950 . S
C1898 H1894 0.949 . S
C1898 C1906 1.574 . S
C1898 C1914 1.368 . S
H1899 C1907 0.950 . S
H1900 C1905 0.950 . S
H1901 C1906 0.949 . S
H1902 C1908 0.950 . S
H1903 C1909 0.950 . S
H1904 C1910 0.949 . S
C1905 H1900 0.950 . S
C1905 C1907 1.327 . S
C1905 C1911 1.429 . S
C1906 C1898 1.574 . S
C1906 H1901 0.949 . S
C1906 C1912 1.368 . S
C1907 C1891 1.349 . S
C1907 H1899 0.950 . S
C1907 C1905 1.327 . S
C1908 C1896 1.349 . S
C1908 H1902 0.950 . S
C1908 C1909 1.327 . S
C1909 H1903 0.950 . S
C1909 C1908 1.327 . S
C1909 C1913 1.429 . S
C1910 C1893 1.574 . S
C1910 H1904 0.949 . S
C1910 C1914 1.368 . S
C1911 C1892 1.429 . S
C1911 C1905 1.429 . S
C1911 C1912 1.523 . S
C1912 C1893 1.368 . S
C1912 C1906 1.368 . S
C1912 C1911 1.523 . S
C1913 C1897 1.429 . S
C1913 C1909 1.429 . S
C1913 C1914 1.523 . S
C1914 C1898 1.368 . S
C1914 C1910 1.368 . S
C1914 C1913 1.523 . S
H1915 C1890 0.950 . S
H1916 C1892 0.950 . S
H1917 C1893 0.949 . S
H1918 C1895 0.950 . S
H1919 C1897 0.950 . S
C1920 C1921 1.349 . S
C1920 C1922 1.327 . S
C1920 H1945 0.950 . S
C1921 C1920 1.349 . S
C1921 C1937 1.349 . S
C1922 C1920 1.327 . S
C1922 C1941 1.429 . S
C1922 H1946 0.950 . S
C1923 C1940 1.574 . S
C1923 C1942 1.368 . S
C1923 H1947 0.949 . S
H1924 C1928 0.949 . S
C1925 C1926 1.349 . S
C1925 C1927 1.327 . S
C1925 H1948 0.950 . S
C1926 C1925 1.349 . S
C1926 C1938 1.349 . S
C1927 C1925 1.327 . S
C1927 C1943 1.429 . S
C1927 H1949 0.950 . S
C1928 H1924 0.949 . S
C1928 C1936 1.574 . S
C1928 C1944 1.368 . S
H1929 C1937 0.950 . S
H1930 C1935 0.950 . S
H1931 C1936 0.949 . S
H1932 C1938 0.950 . S
H1933 C1939 0.950 . S
H1934 C1940 0.949 . S
C1935 H1930 0.950 . S
C1935 C1937 1.327 . S
C1935 C1941 1.429 . S
C1936 C1928 1.574 . S
C1936 H1931 0.949 . S
C1936 C1942 1.368 . S
C1937 C1921 1.349 . S
C1937 H1929 0.950 . S
C1937 C1935 1.327 . S
C1938 C1926 1.349 . S
C1938 H1932 0.950 . S
C1938 C1939 1.327 . S
C1939 H1933 0.950 . S
C1939 C1938 1.327 . S
C1939 C1943 1.429 . S
C1940 C1923 1.574 . S
C1940 H1934 0.949 . S
C1940 C1944 1.368 . S
C1941 C1922 1.429 . S
C1941 C1935 1.429 . S
C1941 C1942 1.523 . S
C1942 C1923 1.368 . S
C1942 C1936 1.368 . S
C1942 C1941 1.523 . S
C1943 C1927 1.429 . S
C1943 C1939 1.429 . S
C1943 C1944 1.523 . S
C1944 C1928 1.368 . S
C1944 C1940 1.368 . S
C1944 C1943 1.523 . S
H1945 C1920 0.950 . S
H1946 C1922 0.950 . S
H1947 C1923 0.949 . S
H1948 C1925 0.950 . S
H1949 C1927 0.950 . S
C1950 C1951 1.349 . S
C1950 C1952 1.327 . S
C1950 H1975 0.950 . S
C1951 C1950 1.349 . S
C1951 C1967 1.349 . S
C1952 C1950 1.327 . S
C1952 C1971 1.429 . S
C1952 H1976 0.950 . S
C1953 C1970 1.574 . S
C1953 C1972 1.368 . S
C1953 H1977 0.949 . S
H1954 C1958 0.949 . S
C1955 C1956 1.349 . S
C1955 C1957 1.327 . S
C1955 H1978 0.950 . S
C1956 C1955 1.349 . S
C1956 C1968 1.349 . S
C1957 C1955 1.327 . S
C1957 C1973 1.429 . S
C1957 H1979 0.950 . S
C1958 H1954 0.949 . S
C1958 C1966 1.574 . S
C1958 C1974 1.368 . S
H1959 C1967 0.950 . S
H1960 C1965 0.950 . S
H1961 C1966 0.949 . S
H1962 C1968 0.950 . S
H1963 C1969 0.950 . S
H1964 C1970 0.949 . S
C1965 H1960 0.950 . S
C1965 C1967 1.327 . S
C1965 C1971 1.429 . S
C1966 C1958 1.574 . S
C1966 H1961 0.949 . S
C1966 C1972 1.368 . S
C1967 C1951 1.349 . S
C1967 H1959 0.950 . S
C1967 C1965 1.327 . S
C1968 C1956 1.349 . S
C1968 H1962 0.950 . S
C1968 C1969 1.327 . S
C1969 H1963 0.950 . S
C1969 C1968 1.327 . S
C1969 C1973 1.429 . S
C1970 C1953 1.574 . S
C1970 H1964 0.949 . S
C1970 C1974 1.368 . S
C1971 C1952 1.429 . S
C1971 C1965 1.429 . S
C1971 C1972 1.523 . S
C1972 C1953 1.368 . S
C1972 C1966 1.368 . S
C1972 C1971 1.523 . S
C1973 C1957 1.429 . S
C1973 C1969 1.429 . S
C1973 C1974 1.523 . S
C1974 C1958 1.368 . S
C1974 C1970 1.368 . S
C1974 C1973 1.523 . S
H1975 C1950 0.950 . S
H1976 C1952 0.950 . S
H1977 C1953 0.949 . S
H1978 C1955 0.950 . S
H1979 C1957 0.950 . S
C1980 C1981 1.349 . S
C1980 C1982 1.327 . S
C1980 H2005 0.950 . S
C1981 C1980 1.349 . S
C1981 C1997 1.349 . S
C1982 C1980 1.327 . S
C1982 C2001 1.429 . S
C1982 H2006 0.950 . S
C1983 C2000 1.574 . S
C1983 C2002 1.368 . S
C1983 H2007 0.949 . S
H1984 C1988 0.949 . S
C1985 C1986 1.349 . S
C1985 C1987 1.327 . S
C1985 H2008 0.950 . S
C1986 C1985 1.349 . S
C1986 C1998 1.349 . S
C1987 C1985 1.327 . S
C1987 C2003 1.429 . S
C1987 H2009 0.950 . S
C1988 H1984 0.949 . S
C1988 C1996 1.574 . S
C1988 C2004 1.368 . S
H1989 C1997 0.950 . S
H1990 C1995 0.950 . S
H1991 C1996 0.949 . S
H1992 C1998 0.950 . S
H1993 C1999 0.950 . S
H1994 C2000 0.949 . S
C1995 H1990 0.950 . S
C1995 C1997 1.327 . S
C1995 C2001 1.429 . S
C1996 C1988 1.574 . S
C1996 H1991 0.949 . S
C1996 C2002 1.368 . S
C1997 C1981 1.349 . S
C1997 H1989 0.950 . S
C1997 C1995 1.327 . S
C1998 C1986 1.349 . S
C1998 H1992 0.950 . S
C1998 C1999 1.327 . S
C1999 H1993 0.950 . S
C1999 C1998 1.327 . S
C1999 C2003 1.429 . S
C2000 C1983 1.574 . S
C2000 H1994 0.949 . S
C2000 C2004 1.368 . S
C2001 C1982 1.429 . S
C2001 C1995 1.429 . S
C2001 C2002 1.523 . S
C2002 C1983 1.368 . S
C2002 C1996 1.368 . S
C2002 C2001 1.523 . S
C2003 C1987 1.429 . S
C2003 C1999 1.429 . S
C2003 C2004 1.523 . S
C2004 C1988 1.368 . S
C2004 C2000 1.368 . S
C2004 C2003 1.523 . S
H2005 C1980 0.950 . S
H2006 C1982 0.950 . S
H2007 C1983 0.949 . S
H2008 C1985 0.950 . S
H2009 C1987 0.950 . S
C2010 C2011 1.349 . S
C2010 C2012 1.327 . S
C2010 H2035 0.950 . S
C2011 C2010 1.349 . S
C2011 C2027 1.349 . S
C2012 C2010 1.327 . S
C2012 C2031 1.429 . S
C2012 H2036 0.950 . S
C2013 C2030 1.574 . S
C2013 C2032 1.368 . S
C2013 H2037 0.949 . S
H2014 C2018 0.949 . S
C2015 C2016 1.349 . S
C2015 C2017 1.327 . S
C2015 H2038 0.950 . S
C2016 C2015 1.349 . S
C2016 C2028 1.349 . S
C2017 C2015 1.327 . S
C2017 C2033 1.429 . S
C2017 H2039 0.950 . S
C2018 H2014 0.949 . S
C2018 C2026 1.574 . S
C2018 C2034 1.368 . S
H2019 C2027 0.950 . S
H2020 C2025 0.950 . S
H2021 C2026 0.949 . S
H2022 C2028 0.950 . S
H2023 C2029 0.950 . S
H2024 C2030 0.949 . S
C2025 H2020 0.950 . S
C2025 C2027 1.327 . S
C2025 C2031 1.429 . S
C2026 C2018 1.574 . S
C2026 H2021 0.949 . S
C2026 C2032 1.368 . S
C2027 C2011 1.349 . S
C2027 H2019 0.950 . S
C2027 C2025 1.327 . S
C2028 C2016 1.349 . S
C2028 H2022 0.950 . S
C2028 C2029 1.327 . S
C2029 H2023 0.950 . S
C2029 C2028 1.327 . S
C2029 C2033 1.429 . S
C2030 C2013 1.574 . S
C2030 H2024 0.949 . S
C2030 C2034 1.368 . S
C2031 C2012 1.429 . S
C2031 C2025 1.429 . S
C2031 C2032 1.523 . S
C2032 C2013 1.368 . S
C2032 C2026 1.368 . S
C2032 C2031 1.523 . S
C2033 C2017 1.429 . S
C2033 C2029 1.429 . S
C2033 C2034 1.523 . S
C2034 C2018 1.368 . S
C2034 C2030 1.368 . S
C2034 C2033 1.523 . S
H2035 C2010 0.950 . S
H2036 C2012 0.950 . S
H2037 C2013 0.949 . S
H2038 C2015 0.950 . S
H2039 C2017 0.950 . S
C2040 C2041 1.349 . S
C2040 C2042 1.327 . S
C2040 H2065 0.950 . S
C2041 C2040 1.349 . S
C2041 C2057 1.349 . S
C2042 C2040 1.327 . S
C2042 C2061 1.429 . S
C2042 H2066 0.950 . S
C2043 C2060 1.574 . S
C2043 C2062 1.368 . S
C2043 H2067 0.949 . S
H2044 C2048 0.949 . S
C2045 C2046 1.349 . S
C2045 C2047 1.327 . S
C2045 H2068 0.950 . S
C2046 C2045 1.349 . S
C2046 C2058 1.349 . S
C2047 C2045 1.327 . S
C2047 C2063 1.429 . S
C2047 H2069 0.950 . S
C2048 H2044 0.949 . S
C2048 C2056 1.574 . S
C2048 C2064 1.368 . S
H2049 C2057 0.950 . S
H2050 C2055 0.950 . S
H2051 C2056 0.949 . S
H2052 C2058 0.950 . S
H2053 C2059 0.950 . S
H2054 C2060 0.949 . S
C2055 H2050 0.950 . S
C2055 C2057 1.327 . S
C2055 C2061 1.429 . S
C2056 C2048 1.574 . S
C2056 H2051 0.949 . S
C2056 C2062 1.368 . S
C2057 C2041 1.349 . S
C2057 H2049 0.950 . S
C2057 C2055 1.327 . S
C2058 C2046 1.349 . S
C2058 H2052 0.950 . S
C2058 C2059 1.327 . S
C2059 H2053 0.950 . S
C2059 C2058 1.327 . S
C2059 C2063 1.429 . S
C2060 C2043 1.574 . S
C2060 H2054 0.949 . S
C2060 C2064 1.368 . S
C2061 C2042 1.429 . S
C2061 C2055 1.429 . S
C2061 C2062 1.523 . S
C2062 C2043 1.368 . S
C2062 C2056 1.368 . S
C2062 C2061 1.523 . S
C2063 C2047 1.429 . S
C2063 C2059 1.429 . S
C2063 C2064 1.523 . S
C2064 C2048 1.368 . S
C2064 C2060 1.368 . S
C2064 C2063 1.523 . S
H2065 C2040 0.950 . S
H2066 C2042 0.950 . S
H2067 C2043 0.949 . S
H2068 C2045 0.950 . S
H2069 C2047 0.950 . S
C2070 C2071 1.349 . S
C2070 C2072 1.327 . S
C2070 H2095 0.950 . S
C2071 C2070 1.349 . S
C2071 C2087 1.349 . S
C2072 C2070 1.327 . S
C2072 C2091 1.429 . S
C2072 H2096 0.950 . S
C2073 C2090 1.574 . S
C2073 C2092 1.368 . S
C2073 H2097 0.949 . S
H2074 C2078 0.949 . S
C2075 C2076 1.349 . S
C2075 C2077 1.327 . S
C2075 H2098 0.950 . S
C2076 C2075 1.349 . S
C2076 C2088 1.349 . S
C2077 C2075 1.327 . S
C2077 C2093 1.429 . S
C2077 H2099 0.950 . S
C2078 H2074 0.949 . S
C2078 C2086 1.574 . S
C2078 C2094 1.368 . S
H2079 C2087 0.950 . S
H2080 C2085 0.950 . S
H2081 C2086 0.949 . S
H2082 C2088 0.950 . S
H2083 C2089 0.950 . S
H2084 C2090 0.949 . S
C2085 H2080 0.950 . S
C2085 C2087 1.327 . S
C2085 C2091 1.429 . S
C2086 C2078 1.574 . S
C2086 H2081 0.949 . S
C2086 C2092 1.368 . S
C2087 C2071 1.349 . S
C2087 H2079 0.950 . S
C2087 C2085 1.327 . S
C2088 C2076 1.349 . S
C2088 H2082 0.950 . S
C2088 C2089 1.327 . S
C2089 H2083 0.950 . S
C2089 C2088 1.327 . S
C2089 C2093 1.429 . S
C2090 C2073 1.574 . S
C2090 H2084 0.949 . S
C2090 C2094 1.368 . S
C2091 C2072 1.429 . S
C2091 C2085 1.429 . S
C2091 C2092 1.523 1_545 S
C2092 C2073 1.368 . S
C2092 C2086 1.368 . S
C2092 C2091 1.523 1_565 S
C2093 C2077 1.429 . S
C2093 C2089 1.429 . S
C2093 C2094 1.523 . S
C2094 C2078 1.368 . S
C2094 C2090 1.368 . S
C2094 C2093 1.523 . S
H2095 C2070 0.950 . S
H2096 C2072 0.950 . S
H2097 C2073 0.949 . S
H2098 C2075 0.950 . S
H2099 C2077 0.950 . S
C2100 C2101 1.349 . S
C2100 C2102 1.327 . S
C2100 H2125 0.950 . S
C2101 C2100 1.349 . S
C2101 C2117 1.349 . S
C2102 C2100 1.327 . S
C2102 C2121 1.429 1_655 S
C2102 H2126 0.950 . S
C2103 C2120 1.574 . S
C2103 C2122 1.368 . S
C2103 H2127 0.949 . S
H2104 C2108 0.949 . S
C2105 C2106 1.349 . S
C2105 C2107 1.327 . S
C2105 H2128 0.950 . S
C2106 C2105 1.349 . S
C2106 C2118 1.349 . S
C2107 C2105 1.327 . S
C2107 C2123 1.429 . S
C2107 H2129 0.950 . S
C2108 H2104 0.949 . S
C2108 C2116 1.574 . S
C2108 C2124 1.368 . S
H2109 C2117 0.950 . S
H2110 C2115 0.950 . S
H2111 C2116 0.949 . S
H2112 C2118 0.950 . S
H2113 C2119 0.950 . S
H2114 C2120 0.949 . S
C2115 H2110 0.950 . S
C2115 C2117 1.327 1_455 S
C2115 C2121 1.429 . S
C2116 C2108 1.574 . S
C2116 H2111 0.949 . S
C2116 C2122 1.368 . S
C2117 C2101 1.349 . S
C2117 H2109 0.950 . S
C2117 C2115 1.327 1_655 S
C2118 C2106 1.349 . S
C2118 H2112 0.950 . S
C2118 C2119 1.327 . S
C2119 H2113 0.950 . S
C2119 C2118 1.327 . S
C2119 C2123 1.429 . S
C2120 C2103 1.574 . S
C2120 H2114 0.949 . S
C2120 C2124 1.368 . S
C2121 C2102 1.429 1_455 S
C2121 C2115 1.429 . S
C2121 C2122 1.523 . S
C2122 C2103 1.368 . S
C2122 C2116 1.368 . S
C2122 C2121 1.523 . S
C2123 C2107 1.429 . S
C2123 C2119 1.429 . S
C2123 C2124 1.523 . S
C2124 C2108 1.368 . S
C2124 C2120 1.368 . S
C2124 C2123 1.523 . S
H2125 C2100 0.950 . S
H2126 C2102 0.950 . S
H2127 C2103 0.949 . S
H2128 C2105 0.950 . S
H2129 C2107 0.950 . S
C2130 C2131 1.349 . S
C2130 C2132 1.327 . S
C2130 H2155 0.950 . S
C2131 C2130 1.349 . S
C2131 C2147 1.349 . S
C2132 C2130 1.327 . S
C2132 C2151 1.429 . S
C2132 H2156 0.950 . S
C2133 C2150 1.574 . S
C2133 C2152 1.368 . S
C2133 H2157 0.949 . S
H2134 C2138 0.949 . S
C2135 C2136 1.349 . S
C2135 C2137 1.327 . S
C2135 H2158 0.950 . S
C2136 C2135 1.349 . S
C2136 C2148 1.349 . S
C2137 C2135 1.327 . S
C2137 C2153 1.429 . S
C2137 H2159 0.950 . S
C2138 H2134 0.949 . S
C2138 C2146 1.574 . S
C2138 C2154 1.368 . S
H2139 C2147 0.950 . S
H2140 C2145 0.950 . S
H2141 C2146 0.949 . S
H2142 C2148 0.950 . S
H2143 C2149 0.950 . S
H2144 C2150 0.949 . S
C2145 H2140 0.950 . S
C2145 C2147 1.327 . S
C2145 C2151 1.429 . S
C2146 C2138 1.574 . S
C2146 H2141 0.949 . S
C2146 C2152 1.368 . S
C2147 C2131 1.349 . S
C2147 H2139 0.950 . S
C2147 C2145 1.327 . S
C2148 C2136 1.349 . S
C2148 H2142 0.950 . S
C2148 C2149 1.327 . S
C2149 H2143 0.950 . S
C2149 C2148 1.327 . S
C2149 C2153 1.429 . S
C2150 C2133 1.574 . S
C2150 H2144 0.949 . S
C2150 C2154 1.368 . S
C2151 C2132 1.429 . S
C2151 C2145 1.429 . S
C2151 C2152 1.523 . S
C2152 C2133 1.368 . S
C2152 C2146 1.368 . S
C2152 C2151 1.523 . S
C2153 C2137 1.429 . S
C2153 C2149 1.429 . S
C2153 C2154 1.523 . S
C2154 C2138 1.368 . S
C2154 C2150 1.368 . S
C2154 C2153 1.523 . S
H2155 C2130 0.950 . S
H2156 C2132 0.950 . S
H2157 C2133 0.949 . S
H2158 C2135 0.950 . S
H2159 C2137 0.950 . S
C2160 C2161 1.349 . S
C2160 C2162 1.327 . S
C2160 H2185 0.950 . S
C2161 C2160 1.349 . S
C2161 C2177 1.349 . S
C2162 C2160 1.327 . S
C2162 C2181 1.429 . S
C2162 H2186 0.950 . S
C2163 C2180 1.574 . S
C2163 C2182 1.368 . S
C2163 H2187 0.949 . S
H2164 C2168 0.949 . S
C2165 C2166 1.349 . S
C2165 C2167 1.327 . S
C2165 H2188 0.950 . S
C2166 C2165 1.349 . S
C2166 C2178 1.349 . S
C2167 C2165 1.327 . S
C2167 C2183 1.429 . S
C2167 H2189 0.950 . S
C2168 H2164 0.949 . S
C2168 C2176 1.574 . S
C2168 C2184 1.368 . S
H2169 C2177 0.950 . S
H2170 C2175 0.950 . S
H2171 C2176 0.949 . S
H2172 C2178 0.950 . S
H2173 C2179 0.950 . S
H2174 C2180 0.949 . S
C2175 H2170 0.950 . S
C2175 C2177 1.327 . S
C2175 C2181 1.429 . S
C2176 C2168 1.574 . S
C2176 H2171 0.949 . S
C2176 C2182 1.368 . S
C2177 C2161 1.349 . S
C2177 H2169 0.950 . S
C2177 C2175 1.327 . S
C2178 C2166 1.349 . S
C2178 H2172 0.950 . S
C2178 C2179 1.327 . S
C2179 H2173 0.950 . S
C2179 C2178 1.327 . S
C2179 C2183 1.429 . S
C2180 C2163 1.574 . S
C2180 H2174 0.949 . S
C2180 C2184 1.368 . S
C2181 C2162 1.429 . S
C2181 C2175 1.429 . S
C2181 C2182 1.523 . S
C2182 C2163 1.368 . S
C2182 C2176 1.368 . S
C2182 C2181 1.523 . S
C2183 C2167 1.429 . S
C2183 C2179 1.429 . S
C2183 C2184 1.523 . S
C2184 C2168 1.368 . S
C2184 C2180 1.368 . S
C2184 C2183 1.523 . S
H2185 C2160 0.950 . S
H2186 C2162 0.950 . S
H2187 C2163 0.949 . S
H2188 C2165 0.950 . S
H2189 C2167 0.950 . S
C2190 C2191 1.349 . S
C2190 C2192 1.327 . S
C2190 H2215 0.950 . S
C2191 C2190 1.349 . S
C2191 C2207 1.349 . S
C2192 C2190 1.327 . S
C2192 C2211 1.429 . S
C2192 H2216 0.950 . S
C2193 C2210 1.574 . S
C2193 C2212 1.368 . S
C2193 H2217 0.949 . S
H2194 C2198 0.949 . S
C2195 C2196 1.349 . S
C2195 C2197 1.327 . S
C2195 H2218 0.950 . S
C2196 C2195 1.349 . S
C2196 C2208 1.349 . S
C2197 C2195 1.327 . S
C2197 C2213 1.429 . S
C2197 H2219 0.950 . S
C2198 H2194 0.949 . S
C2198 C2206 1.574 . S
C2198 C2214 1.368 . S
H2199 C2207 0.950 . S
H2200 C2205 0.950 . S
H2201 C2206 0.949 . S
H2202 C2208 0.950 . S
H2203 C2209 0.950 . S
H2204 C2210 0.949 . S
C2205 H2200 0.950 . S
C2205 C2207 1.327 . S
C2205 C2211 1.429 . S
C2206 C2198 1.574 . S
C2206 H2201 0.949 . S
C2206 C2212 1.368 . S
C2207 C2191 1.349 . S
C2207 H2199 0.950 . S
C2207 C2205 1.327 . S
C2208 C2196 1.349 . S
C2208 H2202 0.950 . S
C2208 C2209 1.327 . S
C2209 H2203 0.950 . S
C2209 C2208 1.327 . S
C2209 C2213 1.429 . S
C2210 C2193 1.574 . S
C2210 H2204 0.949 . S
C2210 C2214 1.368 . S
C2211 C2192 1.429 . S
C2211 C2205 1.429 . S
C2211 C2212 1.523 . S
C2212 C2193 1.368 . S
C2212 C2206 1.368 . S
C2212 C2211 1.523 . S
C2213 C2197 1.429 . S
C2213 C2209 1.429 . S
C2213 C2214 1.523 . S
C2214 C2198 1.368 . S
C2214 C2210 1.368 . S
C2214 C2213 1.523 . S
H2215 C2190 0.950 . S
H2216 C2192 0.950 . S
H2217 C2193 0.949 . S
H2218 C2195 0.950 . S
H2219 C2197 0.950 . S
C2220 C2221 1.349 . S
C2220 C2222 1.327 . S
C2220 H2245 0.950 . S
C2221 C2220 1.349 . S
C2221 C2237 1.349 . S
C2222 C2220 1.327 . S
C2222 C2241 1.429 . S
C2222 H2246 0.950 . S
C2223 C2240 1.574 . S
C2223 C2242 1.368 . S
C2223 H2247 0.949 . S
H2224 C2228 0.949 . S
C2225 C2226 1.349 . S
C2225 C2227 1.327 . S
C2225 H2248 0.950 . S
C2226 C2225 1.349 . S
C2226 C2238 1.349 . S
C2227 C2225 1.327 . S
C2227 C2243 1.429 . S
C2227 H2249 0.950 . S
C2228 H2224 0.949 . S
C2228 C2236 1.574 . S
C2228 C2244 1.368 . S
H2229 C2237 0.950 . S
H2230 C2235 0.950 . S
H2231 C2236 0.949 . S
H2232 C2238 0.950 . S
H2233 C2239 0.950 . S
H2234 C2240 0.949 . S
C2235 H2230 0.950 . S
C2235 C2237 1.327 . S
C2235 C2241 1.429 . S
C2236 C2228 1.574 . S
C2236 H2231 0.949 . S
C2236 C2242 1.368 . S
C2237 C2221 1.349 . S
C2237 H2229 0.950 . S
C2237 C2235 1.327 . S
C2238 C2226 1.349 . S
C2238 H2232 0.950 . S
C2238 C2239 1.327 . S
C2239 H2233 0.950 . S
C2239 C2238 1.327 . S
C2239 C2243 1.429 . S
C2240 C2223 1.574 . S
C2240 H2234 0.949 . S
C2240 C2244 1.368 . S
C2241 C2222 1.429 . S
C2241 C2235 1.429 . S
C2241 C2242 1.523 . S
C2242 C2223 1.368 . S
C2242 C2236 1.368 . S
C2242 C2241 1.523 . S
C2243 C2227 1.429 . S
C2243 C2239 1.429 . S
C2243 C2244 1.523 . S
C2244 C2228 1.368 . S
C2244 C2240 1.368 . S
C2244 C2243 1.523 . S
H2245 C2220 0.950 . S
H2246 C2222 0.950 . S
H2247 C2223 0.949 . S
H2248 C2225 0.950 . S
H2249 C2227 0.950 . S
C2250 C2251 1.349 . S
C2250 C2252 1.327 . S
C2250 H2275 0.950 . S
C2251 C2250 1.349 . S
C2251 C2267 1.349 . S
C2252 C2250 1.327 . S
C2252 C2271 1.429 . S
C2252 H2276 0.950 . S
C2253 C2270 1.574 . S
C2253 C2272 1.368 . S
C2253 H2277 0.949 . S
H2254 C2258 0.949 . S
C2255 C2256 1.349 . S
C2255 C2257 1.327 . S
C2255 H2278 0.950 . S
C2256 C2255 1.349 . S
C2256 C2268 1.349 . S
C2257 C2255 1.327 . S
C2257 C2273 1.429 . S
C2257 H2279 0.950 . S
C2258 H2254 0.949 . S
C2258 C2266 1.574 . S
C2258 C2274 1.368 . S
H2259 C2267 0.950 . S
H2260 C2265 0.950 . S
H2261 C2266 0.966 . S
H2262 C2268 0.950 . S
H2263 C2269 0.950 . S
H2264 C2270 0.949 . S
C2265 H2260 0.950 . S
C2265 C2267 1.327 . S
C2265 C2271 1.429 . S
C2266 C2258 1.574 . S
C2266 H2261 0.966 . S
C2266 C2272 1.368 . S
C2267 C2251 1.349 . S
C2267 H2259 0.950 . S
C2267 C2265 1.327 . S
C2268 C2256 1.349 . S
C2268 H2262 0.950 . S
C2268 C2269 1.327 . S
C2269 H2263 0.950 . S
C2269 C2268 1.327 . S
C2269 C2273 1.429 . S
C2270 C2253 1.574 . S
C2270 H2264 0.949 . S
C2270 C2274 1.368 . S
C2271 C2252 1.429 . S
C2271 C2265 1.429 . S
C2271 C2272 1.523 1_565 S
C2272 C2253 1.368 . S
C2272 C2266 1.368 . S
C2272 C2271 1.523 1_545 S
C2273 C2257 1.429 . S
C2273 C2269 1.429 . S
C2273 C2274 1.523 . S
C2274 C2258 1.368 . S
C2274 C2270 1.368 . S
C2274 C2273 1.523 . S
H2275 C2250 0.950 . S
H2276 C2252 0.950 . S
H2277 C2253 0.949 . S
H2278 C2255 0.950 . S
H2279 C2257 0.950 . S
C2280 C2281 1.349 . S
C2280 C2282 1.327 . S
C2280 H2305 0.950 . S
C2281 C2280 1.349 . S
C2281 C2297 1.349 . S
C2282 C2280 1.327 . S
C2282 C2301 1.429 1_455 S
C2282 H2306 0.950 . S
C2283 C2300 1.574 . S
C2283 C2302 1.368 . S
C2283 H2307 0.949 . S
H2284 C2288 0.949 . S
C2285 C2286 1.349 . S
C2285 C2287 1.327 . S
C2285 H2308 0.950 . S
C2286 C2285 1.349 . S
C2286 C2298 1.349 . S
C2287 C2285 1.327 . S
C2287 C2303 1.429 . S
C2287 H2309 0.950 . S
C2288 H2284 0.949 . S
C2288 C2296 1.574 . S
C2288 C2304 1.368 . S
H2289 C2297 0.950 . S
H2290 C2295 0.950 1_655 S
H2291 C2296 0.949 . S
H2292 C2298 0.950 . S
H2293 C2299 0.950 . S
H2294 C2300 0.949 . S
C2295 H2290 0.950 1_455 S
C2295 C2297 1.327 . S
C2295 C2301 1.429 1_455 S
C2296 C2288 1.574 . S
C2296 H2291 0.949 . S
C2296 C2302 1.368 . S
C2297 C2281 1.349 . S
C2297 H2289 0.950 . S
C2297 C2295 1.327 . S
C2298 C2286 1.349 . S
C2298 H2292 0.950 . S
C2298 C2299 1.327 . S
C2299 H2293 0.950 . S
C2299 C2298 1.327 . S
C2299 C2303 1.429 . S
C2300 C2283 1.574 . S
C2300 H2294 0.949 . S
C2300 C2304 1.368 . S
C2301 C2282 1.429 1_655 S
C2301 C2295 1.429 1_655 S
C2301 C2302 1.523 . S
C2302 C2283 1.368 . S
C2302 C2296 1.368 . S
C2302 C2301 1.523 . S
C2303 C2287 1.429 . S
C2303 C2299 1.429 . S
C2303 C2304 1.523 . S
C2304 C2288 1.368 . S
C2304 C2300 1.368 . S
C2304 C2303 1.523 . S
H2305 C2280 0.950 . S
H2306 C2282 0.950 . S
H2307 C2283 0.949 . S
H2308 C2285 0.950 . S
H2309 C2287 0.950 . S
C2310 C2311 1.349 . S
C2310 C2312 1.327 . S
C2310 H2335 0.950 . S
C2311 C2310 1.349 . S
C2311 C2327 1.349 . S
C2312 C2310 1.327 . S
C2312 C2331 1.429 . S
C2312 H2336 0.950 . S
C2313 C2330 1.574 . S
C2313 C2332 1.368 . S
C2313 H2337 0.949 . S
H2314 C2318 0.949 . S
C2315 C2316 1.349 . S
C2315 C2317 1.327 . S
C2315 H2338 0.950 . S
C2316 C2315 1.349 . S
C2316 C2328 1.349 . S
C2317 C2315 1.327 . S
C2317 C2333 1.429 . S
C2317 H2339 0.950 . S
C2318 H2314 0.949 . S
C2318 C2326 1.574 . S
C2318 C2334 1.368 . S
H2319 C2327 0.950 . S
H2320 C2325 0.950 . S
H2321 C2326 0.949 . S
H2322 C2328 0.950 . S
H2323 C2329 0.950 . S
H2324 C2330 0.949 . S
C2325 H2320 0.950 . S
C2325 C2327 1.327 . S
C2325 C2331 1.429 . S
C2326 C2318 1.574 . S
C2326 H2321 0.949 . S
C2326 C2332 1.368 . S
C2327 C2311 1.349 . S
C2327 H2319 0.950 . S
C2327 C2325 1.327 . S
C2328 C2316 1.349 . S
C2328 H2322 0.950 . S
C2328 C2329 1.327 . S
C2329 H2323 0.950 . S
C2329 C2328 1.327 . S
C2329 C2333 1.429 . S
C2330 C2313 1.574 . S
C2330 H2324 0.949 . S
C2330 C2334 1.368 . S
C2331 C2312 1.429 . S
C2331 C2325 1.429 . S
C2331 C2332 1.523 . S
C2332 C2313 1.368 . S
C2332 C2326 1.368 . S
C2332 C2331 1.523 . S
C2333 C2317 1.429 . S
C2333 C2329 1.429 . S
C2333 C2334 1.523 . S
C2334 C2318 1.368 . S
C2334 C2330 1.368 . S
C2334 C2333 1.523 . S
H2335 C2310 0.950 . S
H2336 C2312 0.950 . S
H2337 C2313 0.949 . S
H2338 C2315 0.950 . S
H2339 C2317 0.950 . S
C2340 C2341 1.349 . S
C2340 C2342 1.327 . S
C2340 H2365 0.950 . S
C2341 C2340 1.349 . S
C2341 C2357 1.349 . S
C2342 C2340 1.327 . S
C2342 C2361 1.429 . S
C2342 H2366 0.950 . S
C2343 C2360 1.574 . S
C2343 C2362 1.368 . S
C2343 H2367 0.949 . S
H2344 C2348 0.949 . S
C2345 C2346 1.349 . S
C2345 C2347 1.327 . S
C2345 H2368 0.950 . S
C2346 C2345 1.349 . S
C2346 C2358 1.349 . S
C2347 C2345 1.327 . S
C2347 C2363 1.429 . S
C2347 H2369 0.950 . S
C2348 H2344 0.949 . S
C2348 C2356 1.574 . S
C2348 C2364 1.368 . S
H2349 C2357 0.950 . S
H2350 C2355 0.940 1_655 S
H2351 C2356 0.949 . S
H2352 C2358 0.950 . S
H2353 C2359 0.950 . S
H2354 C2360 0.949 . S
C2355 H2350 0.940 1_455 S
C2355 C2357 1.327 . S
C2355 C2361 1.429 . S
C2356 C2348 1.574 . S
C2356 H2351 0.949 . S
C2356 C2362 1.368 . S
C2357 C2341 1.349 . S
C2357 H2349 0.950 . S
C2357 C2355 1.327 . S
C2358 C2346 1.349 . S
C2358 H2352 0.950 . S
C2358 C2359 1.327 . S
C2359 H2353 0.950 . S
C2359 C2358 1.327 . S
C2359 C2363 1.429 . S
C2360 C2343 1.574 . S
C2360 H2354 0.949 . S
C2360 C2364 1.368 . S
C2361 C2342 1.429 . S
C2361 C2355 1.429 . S
C2361 C2362 1.523 1_455 S
C2362 C2343 1.368 . S
C2362 C2356 1.368 . S
C2362 C2361 1.523 1_655 S
C2363 C2347 1.429 . S
C2363 C2359 1.429 . S
C2363 C2364 1.523 . S
C2364 C2348 1.368 . S
C2364 C2360 1.368 . S
C2364 C2363 1.523 . S
H2365 C2340 0.950 . S
H2366 C2342 0.950 . S
H2367 C2343 0.949 . S
H2368 C2345 0.950 . S
H2369 C2347 0.950 . S
C2370 C2371 1.349 . S
C2370 C2372 1.327 . S
C2370 H2395 0.950 . S
C2371 C2370 1.349 . S
C2371 C2387 1.349 . S
C2372 C2370 1.327 . S
C2372 C2391 1.429 . S
C2372 H2396 0.950 . S
C2373 C2390 1.574 . S
C2373 C2392 1.368 . S
C2373 H2397 0.949 . S
H2374 C2378 0.949 . S
C2375 C2376 1.349 . S
C2375 C2377 1.327 . S
C2375 H2398 0.950 . S
C2376 C2375 1.349 . S
C2376 C2388 1.349 . S
C2377 C2375 1.327 . S
C2377 C2393 1.429 . S
C2377 H2399 0.950 . S
C2378 H2374 0.949 . S
C2378 C2386 1.574 . S
C2378 C2394 1.368 . S
H2379 C2387 0.950 . S
H2380 C2385 0.950 . S
H2381 C2386 0.949 . S
H2382 C2388 0.950 . S
H2383 C2389 0.950 . S
H2384 C2390 0.949 . S
C2385 H2380 0.950 . S
C2385 C2387 1.327 . S
C2385 C2391 1.429 . S
C2386 C2378 1.574 . S
C2386 H2381 0.949 . S
C2386 C2392 1.368 . S
C2387 C2371 1.349 . S
C2387 H2379 0.950 . S
C2387 C2385 1.327 . S
C2388 C2376 1.349 . S
C2388 H2382 0.950 . S
C2388 C2389 1.327 . S
C2389 H2383 0.950 . S
C2389 C2388 1.327 . S
C2389 C2393 1.429 . S
C2390 C2373 1.574 . S
C2390 H2384 0.949 . S
C2390 C2394 1.368 . S
C2391 C2372 1.429 . S
C2391 C2385 1.429 . S
C2391 C2392 1.523 . S
C2392 C2373 1.368 . S
C2392 C2386 1.368 . S
C2392 C2391 1.523 . S
C2393 C2377 1.429 . S
C2393 C2389 1.429 . S
C2393 C2394 1.523 . S
C2394 C2378 1.368 . S
C2394 C2390 1.368 . S
C2394 C2393 1.523 . S
H2395 C2370 0.950 . S
H2396 C2372 0.950 . S
H2397 C2373 0.949 . S
H2398 C2375 0.950 . S
H2399 C2377 0.950 . S
C2400 C2401 1.349 . S
C2400 C2402 1.327 . S
C2400 H2425 0.950 . S
C2401 C2400 1.349 . S
C2401 C2417 1.349 . S
C2402 C2400 1.327 . S
C2402 C2421 1.429 . S
C2402 H2426 0.950 . S
C2403 C2420 1.574 . S
C2403 C2422 1.368 . S
C2403 H2427 0.949 1_545 S
H2404 C2408 0.949 . S
C2405 C2406 1.349 . S
C2405 C2407 1.327 . S
C2405 H2428 0.950 . S
C2406 C2405 1.349 . S
C2406 C2418 1.349 . S
C2407 C2405 1.327 . S
C2407 C2423 1.429 . S
C2407 H2429 0.950 . S
C2408 H2404 0.949 . S
C2408 C2416 1.574 . S
C2408 C2424 1.368 . S
H2409 C2417 0.950 . S
H2410 C2415 0.950 . S
H2411 C2416 0.949 . S
H2412 C2418 0.950 . S
H2413 C2419 0.950 . S
H2414 C2420 0.949 . S
C2415 H2410 0.950 . S
C2415 C2417 1.327 . S
C2415 C2421 1.429 . S
C2416 C2408 1.574 . S
C2416 H2411 0.949 . S
C2416 C2422 1.368 . S
C2417 C2401 1.349 . S
C2417 H2409 0.950 . S
C2417 C2415 1.327 . S
C2418 C2406 1.349 . S
C2418 H2412 0.950 . S
C2418 C2419 1.327 . S
C2419 H2413 0.950 . S
C2419 C2418 1.327 . S
C2419 C2423 1.429 . S
C2420 C2403 1.574 . S
C2420 H2414 0.949 . S
C2420 C2424 1.368 . S
C2421 C2402 1.429 . S
C2421 C2415 1.429 . S
C2421 C2422 1.523 1_565 S
C2422 C2403 1.368 . S
C2422 C2416 1.368 . S
C2422 C2421 1.523 1_545 S
C2423 C2407 1.429 . S
C2423 C2419 1.429 . S
C2423 C2424 1.523 . S
C2424 C2408 1.368 . S
C2424 C2420 1.368 . S
C2424 C2423 1.523 . S
H2425 C2400 0.950 . S
H2426 C2402 0.950 . S
H2427 C2403 0.949 1_565 S
H2428 C2405 0.950 . S
H2429 C2407 0.950 . S
C2430 C2431 1.349 . S
C2430 C2432 1.327 . S
C2430 H2455 0.950 . S
C2431 C2430 1.349 . S
C2431 C2447 1.349 . S
C2432 C2430 1.327 . S
C2432 C2451 1.429 . S
C2432 H2456 0.950 . S
C2433 C2450 1.574 . S
C2433 C2452 1.368 . S
C2433 H2457 0.949 . S
H2434 C2438 0.949 . S
C2435 C2436 1.349 . S
C2435 C2437 1.327 . S
C2435 H2458 0.950 . S
C2436 C2435 1.349 . S
C2436 C2448 1.349 . S
C2437 C2435 1.327 . S
C2437 C2453 1.429 . S
C2437 H2459 0.950 . S
C2438 H2434 0.949 . S
C2438 C2446 1.574 . S
C2438 C2454 1.368 . S
H2439 C2447 0.950 . S
H2440 C2445 0.950 . S
H2441 C2446 0.949 . S
H2442 C2448 0.950 . S
H2443 C2449 0.950 . S
H2444 C2450 0.949 . S
C2445 H2440 0.950 . S
C2445 C2447 1.327 . S
C2445 C2451 1.429 . S
C2446 C2438 1.574 . S
C2446 H2441 0.949 . S
C2446 C2452 1.368 . S
C2447 C2431 1.349 . S
C2447 H2439 0.950 . S
C2447 C2445 1.327 . S
C2448 C2436 1.349 . S
C2448 H2442 0.950 . S
C2448 C2449 1.327 . S
C2449 H2443 0.950 . S
C2449 C2448 1.327 . S
C2449 C2453 1.429 . S
C2450 C2433 1.574 . S
C2450 H2444 0.949 . S
C2450 C2454 1.368 . S
C2451 C2432 1.429 . S
C2451 C2445 1.429 . S
C2451 C2452 1.523 . S
C2452 C2433 1.368 . S
C2452 C2446 1.368 . S
C2452 C2451 1.523 . S
C2453 C2437 1.429 . S
C2453 C2449 1.429 . S
C2453 C2454 1.523 . S
C2454 C2438 1.368 . S
C2454 C2450 1.368 . S
C2454 C2453 1.523 . S
H2455 C2430 0.950 . S
H2456 C2432 0.950 . S
H2457 C2433 0.949 . S
H2458 C2435 0.950 . S
H2459 C2437 0.950 . S
C2460 C2461 1.349 . S
C2460 C2462 1.327 . S
C2460 H2485 0.950 . S
C2461 C2460 1.349 . S
C2461 C2477 1.349 . S
C2462 C2460 1.327 . S
C2462 C2481 1.429 . S
C2462 H2486 0.950 . S
C2463 C2480 1.574 . S
C2463 C2482 1.368 . S
C2463 H2487 0.949 . S
H2464 C2468 0.949 . S
C2465 C2466 1.349 . S
C2465 C2467 1.327 . S
C2465 H2488 0.950 . S
C2466 C2465 1.349 . S
C2466 C2478 1.349 . S
C2467 C2465 1.327 . S
C2467 C2483 1.429 . S
C2467 H2489 0.950 . S
C2468 H2464 0.949 . S
C2468 C2476 1.574 . S
C2468 C2484 1.368 . S
H2469 C2477 0.950 . S
H2470 C2475 0.950 . S
H2471 C2476 0.949 . S
H2472 C2478 0.950 . S
H2473 C2479 0.950 . S
H2474 C2480 0.949 . S
C2475 H2470 0.950 . S
C2475 C2477 1.327 . S
C2475 C2481 1.429 . S
C2476 C2468 1.574 . S
C2476 H2471 0.949 . S
C2476 C2482 1.368 . S
C2477 C2461 1.349 . S
C2477 H2469 0.950 . S
C2477 C2475 1.327 . S
C2478 C2466 1.349 . S
C2478 H2472 0.950 . S
C2478 C2479 1.327 . S
C2479 H2473 0.950 . S
C2479 C2478 1.327 . S
C2479 C2483 1.429 . S
C2480 C2463 1.574 . S
C2480 H2474 0.949 . S
C2480 C2484 1.368 . S
C2481 C2462 1.429 . S
C2481 C2475 1.429 . S
C2481 C2482 1.523 . S
C2482 C2463 1.368 . S
C2482 C2476 1.368 . S
C2482 C2481 1.523 . S
C2483 C2467 1.429 . S
C2483 C2479 1.429 . S
C2483 C2484 1.523 . S
C2484 C2468 1.368 . S
C2484 C2480 1.368 . S
C2484 C2483 1.523 . S
H2485 C2460 0.950 . S
H2486 C2462 0.950 . S
H2487 C2463 0.949 . S
H2488 C2465 0.950 . S
H2489 C2467 0.950 . S
C2490 C2491 1.349 . S
C2490 C2492 1.327 . S
C2490 H2515 0.950 . S
C2491 C2490 1.349 . S
C2491 C2507 1.349 . S
C2492 C2490 1.327 . S
C2492 C2511 1.429 . S
C2492 H2516 0.950 . S
C2493 C2510 1.574 . S
C2493 C2512 1.368 . S
C2493 H2517 0.949 . S
H2494 C2498 0.949 . S
C2495 C2496 1.349 . S
C2495 C2497 1.327 . S
C2495 H2518 0.950 . S
C2496 C2495 1.349 . S
C2496 C2508 1.349 . S
C2497 C2495 1.327 . S
C2497 C2513 1.429 . S
C2497 H2519 0.950 . S
C2498 H2494 0.949 . S
C2498 C2506 1.574 . S
C2498 C2514 1.368 . S
H2499 C2507 0.950 . S
H2500 C2505 0.950 . S
H2501 C2506 0.949 . S
H2502 C2508 0.950 . S
H2503 C2509 0.950 . S
H2504 C2510 0.949 . S
C2505 H2500 0.950 . S
C2505 C2507 1.327 . S
C2505 C2511 1.429 . S
C2506 C2498 1.574 . S
C2506 H2501 0.949 . S
C2506 C2512 1.368 . S
C2507 C2491 1.349 . S
C2507 H2499 0.950 . S
C2507 C2505 1.327 . S
C2508 C2496 1.349 . S
C2508 H2502 0.950 . S
C2508 C2509 1.327 . S
C2509 H2503 0.950 . S
C2509 C2508 1.327 . S
C2509 C2513 1.429 . S
C2510 C2493 1.574 . S
C2510 H2504 0.949 . S
C2510 C2514 1.368 . S
C2511 C2492 1.429 . S
C2511 C2505 1.429 . S
C2511 C2512 1.523 . S
C2512 C2493 1.368 . S
C2512 C2506 1.368 . S
C2512 C2511 1.523 . S
C2513 C2497 1.429 . S
C2513 C2509 1.429 . S
C2513 C2514 1.523 . S
C2514 C2498 1.368 . S
C2514 C2510 1.368 . S
C2514 C2513 1.523 . S
H2515 C2490 0.950 . S
H2516 C2492 0.950 . S
H2517 C2493 0.949 . S
H2518 C2495 0.950 . S
H2519 C2497 0.950 . S
C2520 C2521 1.349 . S
C2520 C2522 1.327 . S
C2520 H2545 0.950 . S
C2521 C2520 1.349 . S
C2521 C2537 1.349 . S
C2522 C2520 1.327 . S
C2522 C2541 1.429 . S
C2522 H2546 0.950 . S
C2523 C2540 1.574 . S
C2523 C2542 1.368 . S
C2523 H2547 0.933 1_565 S
H2524 C2528 0.949 . S
C2525 C2526 1.349 1_545 S
C2525 C2527 1.327 . S
C2525 H2548 0.950 . S
C2526 C2525 1.349 1_565 S
C2526 C2538 1.349 . S
C2527 C2525 1.327 . S
C2527 C2543 1.429 1_545 S
C2527 H2549 0.950 . S
C2528 H2524 0.949 . S
C2528 C2536 1.574 . S
C2528 C2544 1.368 . S
H2529 C2537 0.950 . S
H2530 C2535 0.950 . S
H2531 C2536 0.949 . S
H2532 C2538 0.950 . S
H2533 C2539 0.950 . S
H2534 C2540 0.949 1_545 S
C2535 H2530 0.950 . S
C2535 C2537 1.327 . S
C2535 C2541 1.429 . S
C2536 C2528 1.574 . S
C2536 H2531 0.949 . S
C2536 C2542 1.368 . S
C2537 C2521 1.349 . S
C2537 H2529 0.950 . S
C2537 C2535 1.327 . S
C2538 C2526 1.349 . S
C2538 H2532 0.950 . S
C2538 C2539 1.327 . S
C2539 H2533 0.950 . S
C2539 C2538 1.327 . S
C2539 C2543 1.429 . S
C2540 C2523 1.574 . S
C2540 H2534 0.949 1_565 S
C2540 C2544 1.368 . S
C2541 C2522 1.429 . S
C2541 C2535 1.429 . S
C2541 C2542 1.523 . S
C2542 C2523 1.368 . S
C2542 C2536 1.368 . S
C2542 C2541 1.523 . S
C2543 C2527 1.429 1_565 S
C2543 C2539 1.429 . S
C2543 C2544 1.523 . S
C2544 C2528 1.368 . S
C2544 C2540 1.368 . S
C2544 C2543 1.523 . S
H2545 C2520 0.950 . S
H2546 C2522 0.950 . S
H2547 C2523 0.933 1_545 S
H2548 C2525 0.950 . S
H2549 C2527 0.950 . S
C2550 C2551 1.349 . S
C2550 C2552 1.327 . S
C2550 H2575 0.950 . S
C2551 C2550 1.349 . S
C2551 C2567 1.349 1_455 S
C2552 C2550 1.327 . S
C2552 C2571 1.429 . S
C2552 H2576 0.950 . S
C2553 C2570 1.574 . S
C2553 C2572 1.368 1_655 S
C2553 H2577 0.949 . S
H2554 C2558 0.949 . S
C2555 C2556 1.349 1_655 S
C2555 C2557 1.327 . S
C2555 H2578 0.950 . S
C2556 C2555 1.349 1_455 S
C2556 C2568 1.349 . S
C2557 C2555 1.327 . S
C2557 C2573 1.429 1_655 S
C2557 H2579 0.950 . S
C2558 H2554 0.949 . S
C2558 C2566 1.574 . S
C2558 C2574 1.368 . S
H2559 C2567 0.950 . S
H2560 C2565 0.950 . S
H2561 C2566 0.949 . S
H2562 C2568 0.950 . S
H2563 C2569 0.950 . S
H2564 C2570 0.949 . S
C2565 H2560 0.950 . S
C2565 C2567 1.327 . S
C2565 C2571 1.429 1_655 S
C2566 C2558 1.574 . S
C2566 H2561 0.949 . S
C2566 C2572 1.368 . S
C2567 C2551 1.349 1_655 S
C2567 H2559 0.950 . S
C2567 C2565 1.327 . S
C2568 C2556 1.349 . S
C2568 H2562 0.950 . S
C2568 C2569 1.327 . S
C2569 H2563 0.950 . S
C2569 C2568 1.327 . S
C2569 C2573 1.429 . S
C2570 C2553 1.574 . S
C2570 H2564 0.949 . S
C2570 C2574 1.368 1_655 S
C2571 C2552 1.429 . S
C2571 C2565 1.429 1_455 S
C2571 C2572 1.523 . S
C2572 C2553 1.368 1_455 S
C2572 C2566 1.368 . S
C2572 C2571 1.523 . S
C2573 C2557 1.429 1_455 S
C2573 C2569 1.429 . S
C2573 C2574 1.523 . S
C2574 C2558 1.368 . S
C2574 C2570 1.368 1_455 S
C2574 C2573 1.523 . S
H2575 C2550 0.950 . S
H2576 C2552 0.950 . S
H2577 C2553 0.949 . S
H2578 C2555 0.950 . S
H2579 C2557 0.950 . S
C2580 C2581 1.349 . S
C2580 C2582 1.327 . S
C2580 H2605 0.950 . S
C2581 C2580 1.349 . S
C2581 C2597 1.349 . S
C2582 C2580 1.327 . S
C2582 C2601 1.429 . S
C2582 H2606 0.950 . S
C2583 C2600 1.574 . S
C2583 C2602 1.368 . S
C2583 H2607 0.949 . S
H2584 C2588 0.949 . S
C2585 C2586 1.349 . S
C2585 C2587 1.327 . S
C2585 H2608 0.950 . S
C2586 C2585 1.349 . S
C2586 C2598 1.349 . S
C2587 C2585 1.327 . S
C2587 C2603 1.429 . S
C2587 H2609 0.950 . S
C2588 H2584 0.949 . S
C2588 C2596 1.574 . S
C2588 C2604 1.368 . S
H2589 C2597 0.950 . S
H2590 C2595 0.950 . S
H2591 C2596 0.949 . S
H2592 C2598 0.950 . S
H2593 C2599 0.950 . S
H2594 C2600 0.949 . S
C2595 H2590 0.950 . S
C2595 C2597 1.327 . S
C2595 C2601 1.429 . S
C2596 C2588 1.574 . S
C2596 H2591 0.949 . S
C2596 C2602 1.368 . S
C2597 C2581 1.349 . S
C2597 H2589 0.950 . S
C2597 C2595 1.327 . S
C2598 C2586 1.349 . S
C2598 H2592 0.950 . S
C2598 C2599 1.327 . S
C2599 H2593 0.950 . S
C2599 C2598 1.327 . S
C2599 C2603 1.429 . S
C2600 C2583 1.574 . S
C2600 H2594 0.949 . S
C2600 C2604 1.368 . S
C2601 C2582 1.429 . S
C2601 C2595 1.429 . S
C2601 C2602 1.523 . S
C2602 C2583 1.368 . S
C2602 C2596 1.368 . S
C2602 C2601 1.523 . S
C2603 C2587 1.429 . S
C2603 C2599 1.429 . S
C2603 C2604 1.523 . S
C2604 C2588 1.368 . S
C2604 C2600 1.368 . S
C2604 C2603 1.523 . S
H2605 C2580 0.950 . S
H2606 C2582 0.950 . S
H2607 C2583 0.949 . S
H2608 C2585 0.950 . S
H2609 C2587 0.950 . S
C2610 C2611 1.349 . S
C2610 C2612 1.327 . S
C2610 H2635 0.950 . S
C2611 C2610 1.349 . S
C2611 C2627 1.349 . S
C2612 C2610 1.327 . S
C2612 C2631 1.429 . S
C2612 H2636 0.950 . S
C2613 C2630 1.574 . S
C2613 C2632 1.368 . S
C2613 H2637 0.949 . S
H2614 C2618 0.949 . S
C2615 C2616 1.349 . S
C2615 C2617 1.327 . S
C2615 H2638 0.950 . S
C2616 C2615 1.349 . S
C2616 C2628 1.349 . S
C2617 C2615 1.327 . S
C2617 C2633 1.429 . S
C2617 H2639 0.950 . S
C2618 H2614 0.949 . S
C2618 C2626 1.574 . S
C2618 C2634 1.368 . S
H2619 C2627 0.950 . S
H2620 C2625 0.950 . S
H2621 C2626 0.949 . S
H2622 C2628 0.950 . S
H2623 C2629 0.950 . S
H2624 C2630 0.949 . S
C2625 H2620 0.950 . S
C2625 C2627 1.327 . S
C2625 C2631 1.429 . S
C2626 C2618 1.574 . S
C2626 H2621 0.949 . S
C2626 C2632 1.368 . S
C2627 C2611 1.349 . S
C2627 H2619 0.950 . S
C2627 C2625 1.327 . S
C2628 C2616 1.349 . S
C2628 H2622 0.950 . S
C2628 C2629 1.327 . S
C2629 H2623 0.950 . S
C2629 C2628 1.327 . S
C2629 C2633 1.429 . S
C2630 C2613 1.574 . S
C2630 H2624 0.949 . S
C2630 C2634 1.368 . S
C2631 C2612 1.429 . S
C2631 C2625 1.429 . S
C2631 C2632 1.523 . S
C2632 C2613 1.368 . S
C2632 C2626 1.368 . S
C2632 C2631 1.523 . S
C2633 C2617 1.429 . S
C2633 C2629 1.429 . S
C2633 C2634 1.523 . S
C2634 C2618 1.368 . S
C2634 C2630 1.368 . S
C2634 C2633 1.523 . S
H2635 C2610 0.950 . S
H2636 C2612 0.950 . S
H2637 C2613 0.949 . S
H2638 C2615 0.950 . S
H2639 C2617 0.950 . S
C2640 C2641 1.349 . S
C2640 C2642 1.327 . S
C2640 H2665 0.950 . S
C2641 C2640 1.349 . S
C2641 C2657 1.349 . S
C2642 C2640 1.327 . S
C2642 C2661 1.429 . S
C2642 H2666 0.950 . S
C2643 C2660 1.574 . S
C2643 C2662 1.368 . S
C2643 H2667 0.949 . S
H2644 C2648 0.949 . S
C2645 C2646 1.349 . S
C2645 C2647 1.327 . S
C2645 H2668 0.950 . S
C2646 C2645 1.349 . S
C2646 C2658 1.349 . S
C2647 C2645 1.327 . S
C2647 C2663 1.429 . S
C2647 H2669 0.950 . S
C2648 H2644 0.949 . S
C2648 C2656 1.574 . S
C2648 C2664 1.368 . S
H2649 C2657 0.950 . S
H2650 C2655 0.950 . S
H2651 C2656 0.949 . S
H2652 C2658 0.950 . S
H2653 C2659 0.950 . S
H2654 C2660 0.949 . S
C2655 H2650 0.950 . S
C2655 C2657 1.327 . S
C2655 C2661 1.429 . S
C2656 C2648 1.574 . S
C2656 H2651 0.949 . S
C2656 C2662 1.368 . S
C2657 C2641 1.349 . S
C2657 H2649 0.950 . S
C2657 C2655 1.327 . S
C2658 C2646 1.349 . S
C2658 H2652 0.950 . S
C2658 C2659 1.327 . S
C2659 H2653 0.950 . S
C2659 C2658 1.327 . S
C2659 C2663 1.429 . S
C2660 C2643 1.574 . S
C2660 H2654 0.949 . S
C2660 C2664 1.368 . S
C2661 C2642 1.429 . S
C2661 C2655 1.429 . S
C2661 C2662 1.523 . S
C2662 C2643 1.368 . S
C2662 C2656 1.368 . S
C2662 C2661 1.523 . S
C2663 C2647 1.429 . S
C2663 C2659 1.429 . S
C2663 C2664 1.523 . S
C2664 C2648 1.368 . S
C2664 C2660 1.368 . S
C2664 C2663 1.523 . S
H2665 C2640 0.950 . S
H2666 C2642 0.950 . S
H2667 C2643 0.949 . S
H2668 C2645 0.950 . S
H2669 C2647 0.950 . S
C2670 C2671 1.349 . S
C2670 C2672 1.327 . S
C2670 H2695 0.950 . S
C2671 C2670 1.349 . S
C2671 C2687 1.349 . S
C2672 C2670 1.327 . S
C2672 C2691 1.429 . S
C2672 H2696 0.950 . S
C2673 C2690 1.574 . S
C2673 C2692 1.368 . S
C2673 H2697 0.949 . S
H2674 C2678 0.949 1_565 S
C2675 C2676 1.349 . S
C2675 C2677 1.327 . S
C2675 H2698 0.950 . S
C2676 C2675 1.349 . S
C2676 C2688 1.349 1_545 S
C2677 C2675 1.327 . S
C2677 C2693 1.429 . S
C2677 H2699 0.950 . S
C2678 H2674 0.949 1_545 S
C2678 C2686 1.574 . S
C2678 C2694 1.368 . S
H2679 C2687 0.950 . S
H2680 C2685 0.950 . S
H2681 C2686 0.949 . S
H2682 C2688 0.950 . S
H2683 C2689 0.950 1_565 S
H2684 C2690 0.949 . S
C2685 H2680 0.950 . S
C2685 C2687 1.327 . S
C2685 C2691 1.429 . S
C2686 C2678 1.574 . S
C2686 H2681 0.949 . S
C2686 C2692 1.368 . S
C2687 C2671 1.349 . S
C2687 H2679 0.950 . S
C2687 C2685 1.327 . S
C2688 C2676 1.349 1_565 S
C2688 H2682 0.950 . S
C2688 C2689 1.327 1_565 S
C2689 H2683 0.950 1_545 S
C2689 C2688 1.327 1_545 S
C2689 C2693 1.428 . S
C2690 C2673 1.574 . S
C2690 H2684 0.949 . S
C2690 C2694 1.368 . S
C2691 C2672 1.429 . S
C2691 C2685 1.429 . S
C2691 C2692 1.523 . S
C2692 C2673 1.368 . S
C2692 C2686 1.368 . S
C2692 C2691 1.523 . S
C2693 C2677 1.429 . S
C2693 C2689 1.428 . S
C2693 C2694 1.523 . S
C2694 C2678 1.368 . S
C2694 C2690 1.368 . S
C2694 C2693 1.523 . S
H2695 C2670 0.950 . S
H2696 C2672 0.950 . S
H2697 C2673 0.949 . S
H2698 C2675 0.950 . S
H2699 C2677 0.950 . S
C2700 C2701 1.349 . S
C2700 C2702 1.327 . S
C2700 H2725 0.950 . S
C2701 C2700 1.349 . S
C2701 C2717 1.349 . S
C2702 C2700 1.327 . S
C2702 C2721 1.429 . S
C2702 H2726 0.950 . S
C2703 C2720 1.574 . S
C2703 C2722 1.368 . S
C2703 H2727 0.949 . S
H2704 C2708 0.949 . S
C2705 C2706 1.349 . S
C2705 C2707 1.327 . S
C2705 H2728 0.950 . S
C2706 C2705 1.349 . S
C2706 C2718 1.349 . S
C2707 C2705 1.327 . S
C2707 C2723 1.429 . S
C2707 H2729 0.950 . S
C2708 H2704 0.949 . S
C2708 C2716 1.574 . S
C2708 C2724 1.368 . S
H2709 C2717 0.950 . S
H2710 C2715 0.950 . S
H2711 C2716 0.949 . S
H2712 C2718 0.950 . S
H2713 C2719 0.950 . S
H2714 C2720 0.949 . S
C2715 H2710 0.950 . S
C2715 C2717 1.327 . S
C2715 C2721 1.429 . S
C2716 C2708 1.574 . S
C2716 H2711 0.949 . S
C2716 C2722 1.368 . S
C2717 C2701 1.349 . S
C2717 H2709 0.950 . S
C2717 C2715 1.327 . S
C2718 C2706 1.349 . S
C2718 H2712 0.950 . S
C2718 C2719 1.327 . S
C2719 H2713 0.950 . S
C2719 C2718 1.327 . S
C2719 C2723 1.429 . S
C2720 C2703 1.574 . S
C2720 H2714 0.949 . S
C2720 C2724 1.368 . S
C2721 C2702 1.429 . S
C2721 C2715 1.429 . S
C2721 C2722 1.523 . S
C2722 C2703 1.368 . S
C2722 C2716 1.368 . S
C2722 C2721 1.523 . S
C2723 C2707 1.429 . S
C2723 C2719 1.429 . S
C2723 C2724 1.523 . S
C2724 C2708 1.368 . S
C2724 C2720 1.368 . S
C2724 C2723 1.523 . S
H2725 C2700 0.950 . S
H2726 C2702 0.950 . S
H2727 C2703 0.949 . S
H2728 C2705 0.950 . S
H2729 C2707 0.950 . S
C2730 C2731 1.349 . S
C2730 C2732 1.327 . S
C2730 H2755 0.950 . S
C2731 C2730 1.349 . S
C2731 C2747 1.349 . S
C2732 C2730 1.327 . S
C2732 C2751 1.429 . S
C2732 H2756 0.950 . S
C2733 C2750 1.574 . S
C2733 C2752 1.368 . S
C2733 H2757 0.949 . S
H2734 C2738 0.949 . S
C2735 C2736 1.349 . S
C2735 C2737 1.327 . S
C2735 H2758 0.950 . S
C2736 C2735 1.349 . S
C2736 C2748 1.349 . S
C2737 C2735 1.327 . S
C2737 C2753 1.429 . S
C2737 H2759 0.950 . S
C2738 H2734 0.949 . S
C2738 C2746 1.574 . S
C2738 C2754 1.368 . S
H2739 C2747 0.950 . S
H2740 C2745 0.950 . S
H2741 C2746 0.949 . S
H2742 C2748 0.950 . S
H2743 C2749 0.950 . S
H2744 C2750 0.949 . S
C2745 H2740 0.950 . S
C2745 C2747 1.327 . S
C2745 C2751 1.429 . S
C2746 C2738 1.574 . S
C2746 H2741 0.949 . S
C2746 C2752 1.368 . S
C2747 C2731 1.349 . S
C2747 H2739 0.950 . S
C2747 C2745 1.327 . S
C2748 C2736 1.349 . S
C2748 H2742 0.950 . S
C2748 C2749 1.327 . S
C2749 H2743 0.950 . S
C2749 C2748 1.327 . S
C2749 C2753 1.429 . S
C2750 C2733 1.574 . S
C2750 H2744 0.949 . S
C2750 C2754 1.368 . S
C2751 C2732 1.429 . S
C2751 C2745 1.429 . S
C2751 C2752 1.523 . S
C2752 C2733 1.368 . S
C2752 C2746 1.368 . S
C2752 C2751 1.523 . S
C2753 C2737 1.429 . S
C2753 C2749 1.429 . S
C2753 C2754 1.523 . S
C2754 C2738 1.368 . S
C2754 C2750 1.368 . S
C2754 C2753 1.523 . S
H2755 C2730 0.950 . S
H2756 C2732 0.950 . S
H2757 C2733 0.949 . S
H2758 C2735 0.950 . S
H2759 C2737 0.950 . S
C2760 C2761 1.349 . S
C2760 C2762 1.327 . S
C2760 H2785 0.950 . S
C2761 C2760 1.349 . S
C2761 C2777 1.349 . S
C2762 C2760 1.327 . S
C2762 C2781 1.429 . S
C2762 H2786 0.950 . S
C2763 C2780 1.574 . S
C2763 C2782 1.368 . S
C2763 H2787 0.949 . S
H2764 C2768 0.949 . S
C2765 C2766 1.349 . S
C2765 C2767 1.327 . S
C2765 H2788 0.950 . S
C2766 C2765 1.349 . S
C2766 C2778 1.349 . S
C2767 C2765 1.327 . S
C2767 C2783 1.429 . S
C2767 H2789 0.950 . S
C2768 H2764 0.949 . S
C2768 C2776 1.574 . S
C2768 C2784 1.368 . S
H2769 C2777 0.950 . S
H2770 C2775 0.950 . S
H2771 C2776 0.949 . S
H2772 C2778 0.950 . S
H2773 C2779 0.950 . S
H2774 C2780 0.949 . S
C2775 H2770 0.950 . S
C2775 C2777 1.327 . S
C2775 C2781 1.429 . S
C2776 C2768 1.574 . S
C2776 H2771 0.949 . S
C2776 C2782 1.368 . S
C2777 C2761 1.349 . S
C2777 H2769 0.950 . S
C2777 C2775 1.327 . S
C2778 C2766 1.349 . S
C2778 H2772 0.950 . S
C2778 C2779 1.327 . S
C2779 H2773 0.950 . S
C2779 C2778 1.327 . S
C2779 C2783 1.429 . S
C2780 C2763 1.574 . S
C2780 H2774 0.949 . S
C2780 C2784 1.368 . S
C2781 C2762 1.429 . S
C2781 C2775 1.429 . S
C2781 C2782 1.523 . S
C2782 C2763 1.368 . S
C2782 C2776 1.368 . S
C2782 C2781 1.523 . S
C2783 C2767 1.429 . S
C2783 C2779 1.429 . S
C2783 C2784 1.523 . S
C2784 C2768 1.368 . S
C2784 C2780 1.368 . S
C2784 C2783 1.523 . S
H2785 C2760 0.950 . S
H2786 C2762 0.950 . S
H2787 C2763 0.949 . S
H2788 C2765 0.950 . S
H2789 C2767 0.950 . S
C2790 C2791 1.349 . S
C2790 C2792 1.327 . S
C2790 H2815 0.950 . S
C2791 C2790 1.349 . S
C2791 C2807 1.349 . S
C2792 C2790 1.327 . S
C2792 C2811 1.429 . S
C2792 H2816 0.950 . S
C2793 C2810 1.574 . S
C2793 C2812 1.368 . S
C2793 H2817 0.949 . S
H2794 C2798 0.949 . S
C2795 C2796 1.349 . S
C2795 C2797 1.327 . S
C2795 H2818 0.950 . S
C2796 C2795 1.349 . S
C2796 C2808 1.349 . S
C2797 C2795 1.327 . S
C2797 C2813 1.429 . S
C2797 H2819 0.950 . S
C2798 H2794 0.949 . S
C2798 C2806 1.574 . S
C2798 C2814 1.368 . S
H2799 C2807 0.950 . S
H2800 C2805 0.950 . S
H2801 C2806 0.949 . S
H2802 C2808 0.950 . S
H2803 C2809 0.950 . S
H2804 C2810 0.949 . S
C2805 H2800 0.950 . S
C2805 C2807 1.327 . S
C2805 C2811 1.429 . S
C2806 C2798 1.574 . S
C2806 H2801 0.949 . S
C2806 C2812 1.368 . S
C2807 C2791 1.349 . S
C2807 H2799 0.950 . S
C2807 C2805 1.327 . S
C2808 C2796 1.349 . S
C2808 H2802 0.950 . S
C2808 C2809 1.327 . S
C2809 H2803 0.950 . S
C2809 C2808 1.327 . S
C2809 C2813 1.429 . S
C2810 C2793 1.574 . S
C2810 H2804 0.949 . S
C2810 C2814 1.368 . S
C2811 C2792 1.429 . S
C2811 C2805 1.429 . S
C2811 C2812 1.523 . S
C2812 C2793 1.368 . S
C2812 C2806 1.368 . S
C2812 C2811 1.523 . S
C2813 C2797 1.429 . S
C2813 C2809 1.429 . S
C2813 C2814 1.523 . S
C2814 C2798 1.368 . S
C2814 C2810 1.368 . S
C2814 C2813 1.523 . S
H2815 C2790 0.950 . S
H2816 C2792 0.950 . S
H2817 C2793 0.949 . S
H2818 C2795 0.950 . S
H2819 C2797 0.950 . S
C2820 C2821 1.349 . S
C2820 C2822 1.327 . S
C2820 H2845 0.950 . S
C2821 C2820 1.349 . S
C2821 C2837 1.349 . S
C2822 C2820 1.327 . S
C2822 C2841 1.429 . S
C2822 H2846 0.950 . S
C2823 C2840 1.574 . S
C2823 C2842 1.368 . S
C2823 H2847 0.949 . S
H2824 C2828 0.949 . S
C2825 C2826 1.349 . S
C2825 C2827 1.327 . S
C2825 H2848 0.950 . S
C2826 C2825 1.349 . S
C2826 C2838 1.349 . S
C2827 C2825 1.327 . S
C2827 C2843 1.429 . S
C2827 H2849 0.950 . S
C2828 H2824 0.949 . S
C2828 C2836 1.574 . S
C2828 C2844 1.368 . S
H2829 C2837 0.950 . S
H2830 C2835 0.950 . S
H2831 C2836 0.949 . S
H2832 C2838 0.950 . S
H2833 C2839 0.950 . S
H2834 C2840 0.949 . S
C2835 H2830 0.950 . S
C2835 C2837 1.327 . S
C2835 C2841 1.429 . S
C2836 C2828 1.574 . S
C2836 H2831 0.949 . S
C2836 C2842 1.368 . S
C2837 C2821 1.349 . S
C2837 H2829 0.950 . S
C2837 C2835 1.327 . S
C2838 C2826 1.349 . S
C2838 H2832 0.950 . S
C2838 C2839 1.327 . S
C2839 H2833 0.950 . S
C2839 C2838 1.327 . S
C2839 C2843 1.429 . S
C2840 C2823 1.574 . S
C2840 H2834 0.949 . S
C2840 C2844 1.368 . S
C2841 C2822 1.429 . S
C2841 C2835 1.429 . S
C2841 C2842 1.523 . S
C2842 C2823 1.368 . S
C2842 C2836 1.368 . S
C2842 C2841 1.523 . S
C2843 C2827 1.429 . S
C2843 C2839 1.429 . S
C2843 C2844 1.523 . S
C2844 C2828 1.368 . S
C2844 C2840 1.368 . S
C2844 C2843 1.523 . S
H2845 C2820 0.950 . S
H2846 C2822 0.950 . S
H2847 C2823 0.949 . S
H2848 C2825 0.950 . S
H2849 C2827 0.950 . S
C2850 C2851 1.349 . S
C2850 C2852 1.327 . S
C2850 H2875 0.950 . S
C2851 C2850 1.349 . S
C2851 C2867 1.349 . S
C2852 C2850 1.327 . S
C2852 C2871 1.429 . S
C2852 H2876 0.950 . S
C2853 C2870 1.574 . S
C2853 C2872 1.368 . S
C2853 H2877 0.949 . S
H2854 C2858 0.949 . S
C2855 C2856 1.349 . S
C2855 C2857 1.327 . S
C2855 H2878 0.950 . S
C2856 C2855 1.349 . S
C2856 C2868 1.349 . S
C2857 C2855 1.327 . S
C2857 C2873 1.429 . S
C2857 H2879 0.950 . S
C2858 H2854 0.949 . S
C2858 C2866 1.574 . S
C2858 C2874 1.368 . S
H2859 C2867 0.950 . S
H2860 C2865 0.950 . S
H2861 C2866 0.949 . S
H2862 C2868 0.950 . S
H2863 C2869 0.950 . S
H2864 C2870 0.949 . S
C2865 H2860 0.950 . S
C2865 C2867 1.327 . S
C2865 C2871 1.429 . S
C2866 C2858 1.574 . S
C2866 H2861 0.949 . S
C2866 C2872 1.368 . S
C2867 C2851 1.349 . S
C2867 H2859 0.950 . S
C2867 C2865 1.327 . S
C2868 C2856 1.349 . S
C2868 H2862 0.950 . S
C2868 C2869 1.327 . S
C2869 H2863 0.950 . S
C2869 C2868 1.327 . S
C2869 C2873 1.429 . S
C2870 C2853 1.574 . S
C2870 H2864 0.949 . S
C2870 C2874 1.368 . S
C2871 C2852 1.429 . S
C2871 C2865 1.429 . S
C2871 C2872 1.523 . S
C2872 C2853 1.368 . S
C2872 C2866 1.368 . S
C2872 C2871 1.523 . S
C2873 C2857 1.429 . S
C2873 C2869 1.429 . S
C2873 C2874 1.523 . S
C2874 C2858 1.368 . S
C2874 C2870 1.368 . S
C2874 C2873 1.523 . S
H2875 C2850 0.950 . S
H2876 C2852 0.950 . S
H2877 C2853 0.949 . S
H2878 C2855 0.950 . S
H2879 C2857 0.950 . S
C2880 C2881 1.349 . S
C2880 C2882 1.327 . S
C2880 H2905 0.950 . S
C2881 C2880 1.349 . S
C2881 C2897 1.349 . S
C2882 C2880 1.327 . S
C2882 C2901 1.429 . S
C2882 H2906 0.950 . S
C2883 C2900 1.574 . S
C2883 C2902 1.368 . S
C2883 H2907 0.949 . S
H2884 C2888 0.949 . S
C2885 C2886 1.349 . S
C2885 C2887 1.327 . S
C2885 H2908 0.950 . S
C2886 C2885 1.349 . S
C2886 C2898 1.349 . S
C2887 C2885 1.327 . S
C2887 C2903 1.429 . S
C2887 H2909 0.950 . S
C2888 H2884 0.949 . S
C2888 C2896 1.574 . S
C2888 C2904 1.368 . S
H2889 C2897 0.950 . S
H2890 C2895 0.950 . S
H2891 C2896 0.949 . S
H2892 C2898 0.950 . S
H2893 C2899 0.950 . S
H2894 C2900 0.949 . S
C2895 H2890 0.950 . S
C2895 C2897 1.327 . S
C2895 C2901 1.429 . S
C2896 C2888 1.574 . S
C2896 H2891 0.949 . S
C2896 C2902 1.368 . S
C2897 C2881 1.349 . S
C2897 H2889 0.950 . S
C2897 C2895 1.327 . S
C2898 C2886 1.349 . S
C2898 H2892 0.950 . S
C2898 C2899 1.327 . S
C2899 H2893 0.950 . S
C2899 C2898 1.327 . S
C2899 C2903 1.429 . S
C2900 C2883 1.574 . S
C2900 H2894 0.949 . S
C2900 C2904 1.368 . S
C2901 C2882 1.429 . S
C2901 C2895 1.429 . S
C2901 C2902 1.523 . S
C2902 C2883 1.368 . S
C2902 C2896 1.368 . S
C2902 C2901 1.523 . S
C2903 C2887 1.429 . S
C2903 C2899 1.429 . S
C2903 C2904 1.523 . S
C2904 C2888 1.368 . S
C2904 C2900 1.368 . S
C2904 C2903 1.523 . S
H2905 C2880 0.950 . S
H2906 C2882 0.950 . S
H2907 C2883 0.949 . S
H2908 C2885 0.950 . S
H2909 C2887 0.950 . S
C2910 C2911 1.349 . S
C2910 C2912 1.327 . S
C2910 H2935 0.950 . S
C2911 C2910 1.349 . S
C2911 C2927 1.349 . S
C2912 C2910 1.327 . S
C2912 C2931 1.429 . S
C2912 H2936 0.950 . S
C2913 C2930 1.574 . S
C2913 C2932 1.368 . S
C2913 H2937 0.949 . S
H2914 C2918 0.949 . S
C2915 C2916 1.349 . S
C2915 C2917 1.327 . S
C2915 H2938 0.950 . S
C2916 C2915 1.349 . S
C2916 C2928 1.349 . S
C2917 C2915 1.327 . S
C2917 C2933 1.429 . S
C2917 H2939 0.950 . S
C2918 H2914 0.949 . S
C2918 C2926 1.574 . S
C2918 C2934 1.368 . S
H2919 C2927 0.950 . S
H2920 C2925 0.950 . S
H2921 C2926 0.949 . S
H2922 C2928 0.950 . S
H2923 C2929 0.950 . S
H2924 C2930 0.949 . S
C2925 H2920 0.950 . S
C2925 C2927 1.327 . S
C2925 C2931 1.429 . S
C2926 C2918 1.574 . S
C2926 H2921 0.949 . S
C2926 C2932 1.368 . S
C2927 C2911 1.349 . S
C2927 H2919 0.950 . S
C2927 C2925 1.327 . S
C2928 C2916 1.349 . S
C2928 H2922 0.950 . S
C2928 C2929 1.327 . S
C2929 H2923 0.950 . S
C2929 C2928 1.327 . S
C2929 C2933 1.429 . S
C2930 C2913 1.574 . S
C2930 H2924 0.949 . S
C2930 C2934 1.368 . S
C2931 C2912 1.429 . S
C2931 C2925 1.429 . S
C2931 C2932 1.523 . S
C2932 C2913 1.368 . S
C2932 C2926 1.368 . S
C2932 C2931 1.523 . S
C2933 C2917 1.429 . S
C2933 C2929 1.429 . S
C2933 C2934 1.523 . S
C2934 C2918 1.368 . S
C2934 C2930 1.368 . S
C2934 C2933 1.523 . S
H2935 C2910 0.950 . S
H2936 C2912 0.950 . S
H2937 C2913 0.949 . S
H2938 C2915 0.950 . S
H2939 C2917 0.950 . S
C2940 C2941 1.349 . S
C2940 C2942 1.327 . S
C2940 H2965 0.950 . S
C2941 C2940 1.349 . S
C2941 C2957 1.349 . S
C2942 C2940 1.327 . S
C2942 C2961 1.429 . S
C2942 H2966 0.950 . S
C2943 C2960 1.574 . S
C2943 C2962 1.368 . S
C2943 H2967 0.949 . S
H2944 C2948 0.949 . S
C2945 C2946 1.349 . S
C2945 C2947 1.327 . S
C2945 H2968 0.950 . S
C2946 C2945 1.349 . S
C2946 C2958 1.349 . S
C2947 C2945 1.327 . S
C2947 C2963 1.429 . S
C2947 H2969 0.950 . S
C2948 H2944 0.949 . S
C2948 C2956 1.574 . S
C2948 C2964 1.368 . S
H2949 C2957 0.950 . S
H2950 C2955 0.950 . S
H2951 C2956 0.949 . S
H2952 C2958 0.950 . S
H2953 C2959 0.950 . S
H2954 C2960 0.949 . S
C2955 H2950 0.950 . S
C2955 C2957 1.327 . S
C2955 C2961 1.429 . S
C2956 C2948 1.574 . S
C2956 H2951 0.949 . S
C2956 C2962 1.368 . S
C2957 C2941 1.349 . S
C2957 H2949 0.950 . S
C2957 C2955 1.327 . S
C2958 C2946 1.349 . S
C2958 H2952 0.950 . S
C2958 C2959 1.327 . S
C2959 H2953 0.950 . S
C2959 C2958 1.327 . S
C2959 C2963 1.429 . S
C2960 C2943 1.574 . S
C2960 H2954 0.949 . S
C2960 C2964 1.368 . S
C2961 C2942 1.429 . S
C2961 C2955 1.429 . S
C2961 C2962 1.523 . S
C2962 C2943 1.368 . S
C2962 C2956 1.368 . S
C2962 C2961 1.523 . S
C2963 C2947 1.429 . S
C2963 C2959 1.429 . S
C2963 C2964 1.523 . S
C2964 C2948 1.368 . S
C2964 C2960 1.368 . S
C2964 C2963 1.523 . S
H2965 C2940 0.950 . S
H2966 C2942 0.950 . S
H2967 C2943 0.949 . S
H2968 C2945 0.950 . S
H2969 C2947 0.950 . S
C2970 C2971 1.349 . S
C2970 C2972 1.327 . S
C2970 H2995 0.950 . S
C2971 C2970 1.349 . S
C2971 C2987 1.349 . S
C2972 C2970 1.327 . S
C2972 C2991 1.429 . S
C2972 H2996 0.950 . S
C2973 C2990 1.574 . S
C2973 C2992 1.368 . S
C2973 H2997 0.949 . S
H2974 C2978 0.949 . S
C2975 C2976 1.349 . S
C2975 C2977 1.327 . S
C2975 H2998 0.950 . S
C2976 C2975 1.349 . S
C2976 C2988 1.349 . S
C2977 C2975 1.327 . S
C2977 C2993 1.429 . S
C2977 H2999 0.950 . S
C2978 H2974 0.949 . S
C2978 C2986 1.574 . S
C2978 C2994 1.368 . S
H2979 C2987 0.950 . S
H2980 C2985 0.950 . S
H2981 C2986 0.949 . S
H2982 C2988 0.950 . S
H2983 C2989 0.950 . S
H2984 C2990 0.949 . S
C2985 H2980 0.950 . S
C2985 C2987 1.327 . S
C2985 C2991 1.429 . S
C2986 C2978 1.574 . S
C2986 H2981 0.949 . S
C2986 C2992 1.368 . S
C2987 C2971 1.349 . S
C2987 H2979 0.950 . S
C2987 C2985 1.327 . S
C2988 C2976 1.349 . S
C2988 H2982 0.950 . S
C2988 C2989 1.327 . S
C2989 H2983 0.950 . S
C2989 C2988 1.327 . S
C2989 C2993 1.429 . S
C2990 C2973 1.574 . S
C2990 H2984 0.949 . S
C2990 C2994 1.368 . S
C2991 C2972 1.429 . S
C2991 C2985 1.429 . S
C2991 C2992 1.523 . S
C2992 C2973 1.368 . S
C2992 C2986 1.368 . S
C2992 C2991 1.523 . S
C2993 C2977 1.429 . S
C2993 C2989 1.429 . S
C2993 C2994 1.523 . S
C2994 C2978 1.368 . S
C2994 C2990 1.368 . S
C2994 C2993 1.523 . S
H2995 C2970 0.950 . S
H2996 C2972 0.950 . S
H2997 C2973 0.949 . S
H2998 C2975 0.950 . S
H2999 C2977 0.950 . S
C3000 C3001 1.349 . S
C3000 C3002 1.327 . S
C3000 H3025 0.950 . S
C3001 C3000 1.349 . S
C3001 C3017 1.349 . S
C3002 C3000 1.327 . S
C3002 C3021 1.429 . S
C3002 H3026 0.950 . S
C3003 C3020 1.574 . S
C3003 C3022 1.368 . S
C3003 H3027 0.949 . S
H3004 C3008 0.949 . S
C3005 C3006 1.349 . S
C3005 C3007 1.327 . S
C3005 H3028 0.950 . S
C3006 C3005 1.349 . S
C3006 C3018 1.349 . S
C3007 C3005 1.327 . S
C3007 C3023 1.429 . S
C3007 H3029 0.950 . S
C3008 H3004 0.949 . S
C3008 C3016 1.574 . S
C3008 C3024 1.368 . S
H3009 C3017 0.950 . S
H3010 C3015 0.950 . S
H3011 C3016 0.949 . S
H3012 C3018 0.950 . S
H3013 C3019 0.950 . S
H3014 C3020 0.949 . S
C3015 H3010 0.950 . S
C3015 C3017 1.327 . S
C3015 C3021 1.429 . S
C3016 C3008 1.574 . S
C3016 H3011 0.949 . S
C3016 C3022 1.368 . S
C3017 C3001 1.349 . S
C3017 H3009 0.950 . S
C3017 C3015 1.327 . S
C3018 C3006 1.349 . S
C3018 H3012 0.950 . S
C3018 C3019 1.327 . S
C3019 H3013 0.950 . S
C3019 C3018 1.327 . S
C3019 C3023 1.429 . S
C3020 C3003 1.574 . S
C3020 H3014 0.949 . S
C3020 C3024 1.368 . S
C3021 C3002 1.429 . S
C3021 C3015 1.429 . S
C3021 C3022 1.523 . S
C3022 C3003 1.368 . S
C3022 C3016 1.368 . S
C3022 C3021 1.523 . S
C3023 C3007 1.429 . S
C3023 C3019 1.429 . S
C3023 C3024 1.523 . S
C3024 C3008 1.368 . S
C3024 C3020 1.368 . S
C3024 C3023 1.523 . S
H3025 C3000 0.950 . S
H3026 C3002 0.950 . S
H3027 C3003 0.949 . S
H3028 C3005 0.950 . S
H3029 C3007 0.950 . S
C3030 C3031 1.349 . S
C3030 C3032 1.327 . S
C3030 H3055 0.950 . S
C3031 C3030 1.349 . S
C3031 C3047 1.349 . S
C3032 C3030 1.327 . S
C3032 C3051 1.429 . S
C3032 H3056 0.950 . S
C3033 C3050 1.574 . S
C3033 C3052 1.368 . S
C3033 H3057 0.949 . S
H3034 C3038 0.949 . S
C3035 C3036 1.349 . S
C3035 C3037 1.327 . S
C3035 H3058 0.950 . S
C3036 C3035 1.349 . S
C3036 C3048 1.349 . S
C3037 C3035 1.327 . S
C3037 C3053 1.429 . S
C3037 H3059 0.950 . S
C3038 H3034 0.949 . S
C3038 C3046 1.574 . S
C3038 C3054 1.368 . S
H3039 C3047 0.950 . S
H3040 C3045 0.950 . S
H3041 C3046 0.949 . S
H3042 C3048 0.950 . S
H3043 C3049 0.950 . S
H3044 C3050 0.949 . S
C3045 H3040 0.950 . S
C3045 C3047 1.327 . S
C3045 C3051 1.429 . S
C3046 C3038 1.574 . S
C3046 H3041 0.949 . S
C3046 C3052 1.368 . S
C3047 C3031 1.349 . S
C3047 H3039 0.950 . S
C3047 C3045 1.327 . S
C3048 C3036 1.349 . S
C3048 H3042 0.950 . S
C3048 C3049 1.327 . S
C3049 H3043 0.950 . S
C3049 C3048 1.327 . S
C3049 C3053 1.429 . S
C3050 C3033 1.574 . S
C3050 H3044 0.949 . S
C3050 C3054 1.368 . S
C3051 C3032 1.429 . S
C3051 C3045 1.429 . S
C3051 C3052 1.523 . S
C3052 C3033 1.368 . S
C3052 C3046 1.368 . S
C3052 C3051 1.523 . S
C3053 C3037 1.429 . S
C3053 C3049 1.429 . S
C3053 C3054 1.523 . S
C3054 C3038 1.368 . S
C3054 C3050 1.368 . S
C3054 C3053 1.523 . S
H3055 C3030 0.950 . S
H3056 C3032 0.950 . S
H3057 C3033 0.949 . S
H3058 C3035 0.950 . S
H3059 C3037 0.950 . S
C1441 C781 1.644 . S
C1446 C1089 1.623 . S
C1471 C871 1.768 . S
C1476 C1129 1.780 . S
C1501 C751 1.678 . S
C1506 C1168 1.711 . S
C1531 C691 1.504 . S
C1536 C1128 1.523 . S
C1566 C1169 1.416 . S
C1561 C571 1.383 . S
C1591 C601 1.341 . S
C1596 C1088 1.349 . S
C1626 C1099 1.622 . S
C1621 C661 1.588 . S
C1656 C1139 1.785 . S
C1651 C541 1.756 . S
C1681 C631 1.743 . S
C1686 C1178 1.711 . S
C1711 C811 1.554 . S
C1716 C1138 1.524 . S
C1741 C841 1.402 . S
C1746 C1179 1.416 . S
C1776 C1098 1.353 . S
C1771 C721 1.288 . S
C1806 C1209 1.622 . S
C1801 C61 1.644 . S
C1831 C151 1.768 . S
C1836 C1249 1.785 . S
C1861 C31 1.678 . S
C1866 C1288 1.711 . S
C1891 C1051 1.504 . S
C1896 C1248 1.523 . S
C1921 C931 1.382 . S
C1926 C1289 1.416 . S
C1951 C961 1.340 . S
C1956 C1208 1.352 . S
C1981 C1021 1.588 . S
C1986 C1219 1.622 . S
C2011 C901 1.752 . S
C2016 C1259 1.785 . S
C2046 C1298 1.711 . S
C2041 C991 1.743 . S
C2071 C91 1.553 . S
C2076 C1258 1.523 . S
C2106 C1299 1.416 . S
C2101 C121 1.401 . S
C2131 C1 1.285 . S
C2136 C1218 1.353 . S
C2166 C1329 1.622 . S
C2161 C421 1.644 . S
C2191 C511 1.768 . S
C2196 C1369 1.785 . S
C2226 C1408 1.711 . S
C2221 C391 1.678 . S
C2256 C1368 1.522 . S
C2251 C331 1.503 . S
C2286 C1409 1.416 . S
C2281 C211 1.383 . S
C2311 C241 1.341 . S
C2316 C1328 1.353 . S
C2341 C301 1.589 . S
C2346 C1339 1.622 . S
C2371 C181 1.752 . S
C2376 C1379 1.785 . S
C2406 C1418 1.711 . S
C2401 C271 1.743 . S
C2431 C451 1.554 . S
C2436 C1378 1.523 . S
C2461 C481 1.401 . S
C2466 C1419 1.416 . S
C2491 C361 1.284 . S
C2496 C1338 1.352 . S
C2521 C920 1.245 . S
C2526 C1085 1.265 . S
C2556 C1125 1.903 . S
C2551 C980 1.883 . S
C2581 C1040 1.520 . S
C2586 C1175 1.583 . S
C2611 C380 1.830 . S
C2616 C1135 1.903 . S
C2641 C440 1.552 . S
C2646 C1165 1.582 . S
C2676 C1095 1.264 . S
C2671 C500 1.239 . S
C2701 C200 1.245 . S
C2706 C1205 1.265 . S
C2731 C260 1.882 . S
C2736 C1245 1.903 . S
C2761 C320 1.520 . S
C2766 C1295 1.583 . S
C2791 C740 1.830 . S
C2796 C1255 1.903 . S
C2826 C1285 1.582 . S
C2821 C800 1.552 . S
C2851 C860 1.241 . S
C2856 C1215 1.265 . S
C2881 C560 1.245 . S
C2886 C1325 1.265 . S
C2911 C620 1.882 . S
C2916 C1365 1.903 . S
C2946 C1415 1.583 . S
C2941 C680 1.519 . S
C2971 C20 1.830 . S
C2976 C1375 1.903 . S
C3001 C80 1.552 . S
C3006 C1405 1.583 . S
C3031 C140 1.242 . S
C3036 C1335 1.265 . S
