# Generated by pormake.
# Topology anh, (6,3)-cn, num edge types: 1
# Building blocks:
#     Node 0, Type 0, BuildingBlock: BETFAJ_clean_sbu_0, # of connection points: 6
#     Node 1, Type 0, BuildingBlock: BETFAJ_clean_sbu_0, # of connection points: 6
#     Node 2, Type 0, BuildingBlock: BETFAJ_clean_sbu_0, # of connection points: 6
#     Node 3, Type 1, BuildingBlock: ESEHIV_clean_linker_0, # of connection points: 3
#     Node 4, Type 1, BuildingBlock: ESEHIV_clean_linker_0, # of connection points: 3
#     Node 5, Type 1, BuildingBlock: ESEHIV_clean_linker_0, # of connection points: 3
#     Node 6, Type 1, BuildingBlock: ESEHIV_clean_linker_0, # of connection points: 3
#     Node 7, Type 1, BuildingBlock: ESEHIV_clean_linker_0, # of connection points: 3
#     Node 8, Type 1, BuildingBlock: ESEHIV_clean_linker_0, # of connection points: 3
#     Edge 9, Type (0, 1), BuildingBlock: EZIPEK_clean_linker_0, # of connection points: 2
#     Edge 10, Type (0, 1), BuildingBlock: EZIPEK_clean_linker_0, # of connection points: 2
#     Edge 11, Type (0, 1), BuildingBlock: EZIPEK_clean_linker_0, # of connection points: 2
#     Edge 12, Type (0, 1), BuildingBlock: EZIPEK_clean_linker_0, # of connection points: 2
#     Edge 13, Type (0, 1), BuildingBlock: EZIPEK_clean_linker_0, # of connection points: 2
#     Edge 14, Type (0, 1), BuildingBlock: EZIPEK_clean_linker_0, # of connection points: 2
#     Edge 15, Type (0, 1), BuildingBlock: EZIPEK_clean_linker_0, # of connection points: 2
#     Edge 16, Type (0, 1), BuildingBlock: EZIPEK_clean_linker_0, # of connection points: 2
#     Edge 17, Type (0, 1), BuildingBlock: EZIPEK_clean_linker_0, # of connection points: 2
#     Edge 18, Type (0, 1), BuildingBlock: EZIPEK_clean_linker_0, # of connection points: 2
#     Edge 19, Type (0, 1), BuildingBlock: EZIPEK_clean_linker_0, # of connection points: 2
#     Edge 20, Type (0, 1), BuildingBlock: EZIPEK_clean_linker_0, # of connection points: 2
#     Edge 21, Type (0, 1), BuildingBlock: EZIPEK_clean_linker_0, # of connection points: 2
#     Edge 22, Type (0, 1), BuildingBlock: EZIPEK_clean_linker_0, # of connection points: 2
#     Edge 23, Type (0, 1), BuildingBlock: EZIPEK_clean_linker_0, # of connection points: 2
#     Edge 24, Type (0, 1), BuildingBlock: EZIPEK_clean_linker_0, # of connection points: 2
#     Edge 25, Type (0, 1), BuildingBlock: EZIPEK_clean_linker_0, # of connection points: 2
#     Edge 26, Type (0, 1), BuildingBlock: EZIPEK_clean_linker_0, # of connection points: 2
# Relax obj value: 0.287
# Max RMSD: 0.259
# Mean RMSD: 0.181
data_MOF--net-anh--node1-BETFAJ_clean_sbu_0--node2-ESEHIV_clean_linker_0--edge1-EZIPEK_clean_linker_0
_symmetry_space_group_name_H-M    P1
_symmetry_Int_Tables_number       1
_symmetry_cell_setting            triclinic
loop_
_symmetry_equiv_pos_as_xyz
'x, y, z'
_cell_length_a     20.028655
_cell_length_b     26.615026
_cell_length_c     37.911348
_cell_angle_alpha  91.392028
_cell_angle_beta   89.008797
_cell_angle_gamma 133.53487
loop_
_atom_site_label
_atom_site_type_symbol
_atom_site_fract_x
_atom_site_fract_y
_atom_site_fract_z
_atom_type_partial_charge
Sm0 Sm 0.23782 0.53434 0.12326 0.0
Sm1 Sm 1.10321 0.53385 0.16814 0.0
C2 C 0.31977 0.53846 0.06677 0.0
C3 C 0.39819 0.60042 0.04779 0.0
C4 C 0.46651 0.60382 0.03423 0.0
C5 C 0.55735 0.66797 0.03278 0.0
C6 C 0.58024 0.72701 0.04831 0.0
C7 C 0.50942 0.72593 0.05176 0.0
C8 C 0.41799 0.66215 0.05243 0.0
C9 C 0.25199 0.53187 0.19498 0.0
C10 C 0.32102 0.68187 0.15867 0.0
C11 C 1.00848 0.53447 0.21689 0.0
C12 C 0.90976 0.49055 0.22256 0.0
C13 C 0.87618 0.48962 0.25548 0.0
C14 C 0.78697 0.46296 0.25817 0.0
C15 C 0.7337 0.44102 0.22754 0.0
C16 C 0.76212 0.43071 0.19621 0.0
C17 C 0.84969 0.45527 0.19379 0.0
C18 C 1.09712 0.53811 0.09575 0.0
C19 C 1.02625 0.38351 0.14368 0.0
O20 O 0.24289 0.52411 0.0652 0.0
O21 O 0.33924 0.53424 0.09882 0.0
O22 O 0.17988 0.50273 0.17758 0.0
O23 O 0.31912 0.55495 0.17341 0.0
O24 O 0.33316 0.65217 0.13424 0.0
O25 O 0.24296 0.64603 0.17653 0.0
O26 O 1.03922 0.50488 0.22136 0.0
O27 O 1.04187 0.57284 0.18868 0.0
O28 O 0.16725 0.57038 0.11477 0.0
O29 O 1.02351 0.50392 0.11537 0.0
O30 O 1.01397 0.41715 0.16438 0.0
O31 O 1.10087 0.41647 0.12346 0.0
H32 H 0.45227 0.55694 0.02922 0.0
H33 H 0.61035 0.66823 0.02642 0.0
H34 H 0.52508 0.77196 0.06061 0.0
H35 H 0.36516 0.66078 0.06138 0.0
H36 H 0.92086 0.51404 0.27835 0.0
H37 H 0.76402 0.46654 0.28329 0.0
H38 H 0.72233 0.41258 0.17215 0.0
H39 H 0.87365 0.45315 0.16844 0.0
Sm40 Sm 0.80776 0.06997 0.46439 0.0
Sm41 Sm 0.68187 0.08992 0.45269 0.0
C42 C 0.88425 0.02934 0.49171 0.0
C43 C 0.85075 0.9629 0.50333 0.0
C44 C 0.77099 0.91795 0.52422 0.0
C45 C 0.74151 0.85603 0.53592 0.0
C46 C 0.79084 0.83796 0.52666 0.0
C47 C 0.86913 0.88191 0.50511 0.0
C48 C 0.89907 0.94415 0.49361 0.0
C49 C 0.79737 0.08885 0.39451 0.0
C50 C 0.58846 0.93093 0.44562 0.0
C51 C 0.60205 0.13477 0.43755 0.0
C52 C 0.60401 0.18475 0.45646 0.0
C53 C 0.6103 0.23264 0.43764 0.0
C54 C 0.61998 0.28389 0.45567 0.0
C55 C 0.62299 0.28743 0.49269 0.0
C56 C 0.61613 0.23937 0.51149 0.0
C57 C 0.60736 0.1887 0.49354 0.0
C58 C 0.69599 0.07328 0.52274 0.0
C59 C 0.90912 0.22833 0.45542 0.0
O60 O 0.85779 0.05483 0.51057 0.0
O61 O 0.88244 0.03596 0.45777 0.0
O62 O 0.7294 0.05268 0.41538 0.0
O63 O 0.87264 0.11341 0.40981 0.0
O64 O 0.66567 0.95557 0.46049 0.0
O65 O 0.58044 0.97421 0.43638 0.0
O66 O 0.68033 0.16091 0.42378 0.0
O67 O 0.55924 0.07625 0.45333 0.0
O68 O 0.7622 0.10921 0.50123 0.0
O69 O 0.62064 0.04831 0.50795 0.0
O70 O 0.82682 0.20109 0.44541 0.0
O71 O 0.91952 0.18891 0.46894 0.0
H72 H 0.73198 0.93095 0.53186 0.0
H73 H 0.6809 0.82258 0.55252 0.0
H74 H 0.90783 0.86852 0.49775 0.0
H75 H 0.96039 0.97796 0.4774 0.0
H76 H 0.60932 0.23109 0.40906 0.0
H77 H 0.62559 0.32095 0.44084 0.0
H78 H 0.61896 0.24181 0.54006 0.0
H79 H 0.60465 0.15329 0.50865 0.0
Sm80 Sm 0.70285 0.58224 0.85226 0.0
Sm81 Sm 0.57271 0.43643 0.85412 0.0
C82 C 0.79644 0.71507 0.84174 0.0
C83 C 0.778 0.75426 0.82506 0.0
C84 C 0.84322 0.80801 0.80189 0.0
C85 C 0.82754 0.84606 0.786 0.0
C86 C 0.74649 0.83127 0.79315 0.0
C87 C 0.68073 0.77712 0.81609 0.0
C88 C 0.69609 0.7387 0.83179 0.0
C89 C 0.68136 0.53547 0.91971 0.0
C90 C 0.48184 0.49981 0.86182 0.0
C91 C 0.48565 0.30375 0.85914 0.0
C92 C 0.50082 0.2629 0.84052 0.0
C93 C 0.55524 0.28879 0.80986 0.0
C94 C 0.57496 0.25279 0.79319 0.0
C95 C 0.54033 0.19008 0.80682 0.0
C96 C 0.48482 0.16351 0.83721 0.0
C97 C 0.4654 0.19984 0.85402 0.0
C98 C 0.59299 0.48168 0.78668 0.0
C99 C 0.79843 0.52239 0.85107 0.0
O100 O 0.8018 0.67846 0.82071 0.0
O101 O 0.7525 0.68303 0.87091 0.0
O102 O 0.61597 0.51146 0.89901 0.0
O103 O 0.75956 0.581 0.90381 0.0
O104 O 0.56283 0.55417 0.84824 0.0
O105 O 0.47005 0.44651 0.87141 0.0
O106 O 0.55137 0.35225 0.8805 0.0
O107 O 0.45627 0.32511 0.83983 0.0
O108 O 0.65853 0.50703 0.80757 0.0
O109 O 0.51462 0.43266 0.80142 0.0
O110 O 0.71302 0.46426 0.85865 0.0
O111 O 0.8132 0.57733 0.84296 0.0
H112 H 0.90653 0.82068 0.79615 0.0
H113 H 0.87894 0.88744 0.76829 0.0
H114 H 0.61759 0.76469 0.82185 0.0
H115 H 0.64405 0.69707 0.84925 0.0
H116 H 0.58374 0.33756 0.79913 0.0
H117 H 0.6181 0.27421 0.76986 0.0
H118 H 0.45773 0.11526 0.84814 0.0
H119 H 0.42378 0.17919 0.87775 0.0
H120 H 0.62966 0.93946 0.24624 0.0
H121 H 0.8463 0.15827 0.23232 0.0
H122 H 0.65765 0.02988 0.14714 0.0
C123 C 0.66523 0.98373 0.22926 0.0
C124 C 0.63358 0.97468 0.19455 0.0
C125 C 0.73798 0.04984 0.2434 0.0
C126 C 0.78823 0.10725 0.22153 0.0
C127 C 0.76155 0.10018 0.1865 0.0
C128 C 0.68158 0.03434 0.17348 0.0
H129 H 0.66249 0.61193 0.63578 0.0
H130 H 0.64347 0.44074 0.62545 0.0
H131 H 0.69279 0.55481 0.534 0.0
C132 C 0.66387 0.57844 0.61965 0.0
C133 C 0.68256 0.59096 0.58345 0.0
C134 C 0.65124 0.52507 0.63535 0.0
C135 C 0.65358 0.48241 0.61387 0.0
C136 C 0.66469 0.49131 0.57722 0.0
C137 C 0.68093 0.54641 0.56216 0.0
H138 H 1.03906 0.53371 0.93498 0.0
H139 H 0.24294 0.52522 0.94661 0.0
H140 H 1.14314 0.50882 0.84228 0.0
C141 C 1.08439 0.52944 0.9227 0.0
C142 C 1.08448 0.52302 0.88594 0.0
C143 C 1.14024 0.52963 0.94426 0.0
C144 C 0.19982 0.52445 0.92922 0.0
C145 C 0.20235 0.51592 0.8924 0.0
C146 C 1.14332 0.51525 0.87059 0.0
H147 H 0.16119 0.45275 0.35821 0.0
H148 H 0.35668 0.67369 0.34757 0.0
H149 H 0.24618 0.58306 0.45011 0.0
C150 C 0.20185 0.50398 0.37005 0.0
C151 C 0.19512 0.51042 0.40652 0.0
C152 C 0.25791 0.56228 0.34843 0.0
C153 C 0.31222 0.62849 0.36413 0.0
C154 C 0.31065 0.63732 0.40086 0.0
C155 C 0.24981 0.57748 0.42192 0.0
H156 H 0.65197 0.10354 0.68209 0.0
H157 H 0.72532 0.98493 0.67563 0.0
H158 H 0.6508 1.01471 0.77579 0.0
C159 C 0.66361 0.07413 0.69487 0.0
C160 C 0.6494 0.06333 0.7314 0.0
C161 C 0.6905 0.04568 0.67461 0.0
C162 C 0.70496 1.00722 0.69123 0.0
C163 C 0.69075 0.99581 0.72775 0.0
C164 C 0.66251 1.02374 0.74767 0.0
H165 H 0.6543 0.61611 0.04913 0.0
H166 H 0.6459 0.46841 0.09799 0.0
H167 H 0.6644 0.61407 0.16186 0.0
C168 C 0.65127 0.59287 0.0729 0.0
C169 C 0.65951 0.6215 0.10582 0.0
C170 C 0.64756 0.53866 0.06972 0.0
C171 C 0.64623 0.50926 0.10026 0.0
C172 C 0.64909 0.53498 0.13378 0.0
C173 C 0.65661 0.59154 0.13625 0.0
C174 C 0.61777 0.73918 0.1099 0.0
C175 C 0.65389 0.76521 0.07586 0.0
C176 C 0.74925 0.74108 0.08422 0.0
C177 C 0.67846 0.68615 0.10669 0.0
N178 N 0.54762 0.63882 0.14464 0.0
N179 N 0.78609 0.82168 0.0395 0.0
C180 C 0.61517 0.68818 0.122 0.0
C181 C 0.73432 0.7798 0.06723 0.0
N182 N 0.57751 0.75705 0.12801 0.0
N183 N 0.82545 0.75191 0.07768 0.0
H184 H 0.77058 0.84705 0.02683 0.0
H185 H 0.84122 0.82981 0.02903 0.0
H186 H 0.83553 0.72304 0.09022 0.0
H187 H 0.8804 0.79195 0.0622 0.0
H188 H 0.55183 0.74046 0.15356 0.0
H189 H 0.57933 0.79403 0.11808 0.0
H190 H 0.49591 0.63653 0.15328 0.0
H191 H 0.53915 0.59779 0.15293 0.0
C192 C 1.07509 0.32951 0.43487 0.0
C193 C 0.99094 0.30461 0.44966 0.0
C194 C 1.04686 0.42013 0.44116 0.0
C195 C 1.13139 0.44498 0.42749 0.0
N196 N 0.23609 0.42952 0.42235 0.0
N197 N 0.91265 0.33468 0.47734 0.0
C198 C 1.14877 0.40164 0.42828 0.0
C199 C 0.98189 0.35267 0.4561 0.0
N200 N 1.08341 0.28459 0.42433 0.0
N201 N 1.02616 0.45921 0.43843 0.0
H202 H 0.86679 0.28735 0.49019 0.0
H203 H 0.90777 0.36971 0.48549 0.0
H204 H 1.07169 0.50878 0.42792 0.0
H205 H 0.96123 0.44028 0.44422 0.0
H206 H 1.13937 0.29995 0.40978 0.0
H207 H 1.03144 0.23119 0.42667 0.0
H208 H 0.2551 0.40207 0.42586 0.0
H209 H 0.29137 0.48223 0.4177 0.0
C210 C 0.78644 0.94364 0.7871 0.0
C211 C 0.73103 0.87308 0.77681 0.0
C212 C 0.64222 0.88104 0.73767 0.0
C213 C 0.70401 0.95336 0.74504 0.0
N214 N 0.84457 0.05598 0.77223 0.0
N215 N 0.61613 0.77755 0.73781 0.0
C216 C 0.77883 0.98538 0.76855 0.0
C217 C 0.66153 0.84252 0.75084 0.0
N218 N 0.84422 0.97023 0.8154 0.0
N219 N 0.56334 0.84864 0.71907 0.0
H220 H 0.62878 0.74788 0.74652 0.0
H221 H 0.57198 0.75555 0.71619 0.0
H222 H 0.54605 0.87483 0.70947 0.0
H223 H 0.51103 0.79501 0.71603 0.0
H224 H 0.87894 1.019 0.82647 0.0
H225 H 0.85098 0.94117 0.82993 0.0
H226 H 0.9058 0.08271 0.786 0.0
H227 H 0.84198 0.08842 0.75889 0.0
C228 C 0.59473 0.40744 0.20148 0.0
C229 C 0.67261 0.45374 0.22355 0.0
C230 C 0.72407 0.55191 0.19113 0.0
C231 C 0.6515 0.50664 0.16647 0.0
N232 N 0.4998 0.39335 0.15542 0.0
N233 N 0.76592 0.56571 0.25223 0.0
C234 C 0.5801 0.43475 0.17411 0.0
C235 C 0.72027 0.52446 0.22312 0.0
N236 N 0.54113 0.33804 0.20488 0.0
N237 N 0.79994 0.61918 0.1833 0.0
H238 H 0.75874 0.5452 0.27662 0.0
H239 H 0.79952 0.61779 0.25289 0.0
H240 H 0.8114 0.64016 0.15855 0.0
H241 H 0.85646 0.65136 0.2002 0.0
H242 H 0.48928 0.30086 0.18717 0.0
H243 H 0.55251 0.31894 0.22527 0.0
H244 H 0.44356 0.34169 0.16147 0.0
H245 H 0.48671 0.41257 0.13589 0.0
C246 C 0.49929 0.80262 0.45606 0.0
C247 C 0.51339 0.85431 0.43615 0.0
C248 C 0.37713 0.75977 0.40093 0.0
C249 C 0.37437 0.71017 0.41615 0.0
N250 N 0.45095 0.69052 0.45352 0.0
N251 N 0.47949 0.87704 0.38074 0.0
C252 C 0.44036 0.73316 0.44251 0.0
C253 C 0.45581 0.83166 0.40619 0.0
N254 N 0.53912 0.81821 0.48838 0.0
N255 N 0.30495 0.7386 0.38117 0.0
H256 H 0.54316 0.92797 0.37991 0.0
H257 H 0.44186 0.86096 0.35749 0.0
H258 H 0.24465 0.68641 0.37784 0.0
H259 H 0.30151 0.77322 0.37165 0.0
H260 H 0.52409 0.78064 0.5048 0.0
H261 H 0.57793 0.86635 0.50071 0.0
H262 H 0.50416 0.70753 0.4702 0.0
H263 H 0.41345 0.64081 0.44316 0.0
C264 C 0.50426 0.09948 0.76445 0.0
C265 C 0.56477 0.15359 0.78951 0.0
C266 C 0.68147 0.14956 0.77609 0.0
C267 C 0.61914 0.09285 0.75246 0.0
N268 N 0.46517 1.00484 0.72925 0.0
N269 N 0.70251 0.22039 0.82462 0.0
C270 C 0.52864 0.06515 0.74813 0.0
C271 C 0.65083 0.1756 0.797 0.0
N272 N 0.42465 0.08219 0.75554 0.0
N273 N 0.77119 0.18063 0.77744 0.0
H274 H 0.68267 0.24104 0.84027 0.0
H275 H 0.7606 0.23215 0.83398 0.0
H276 H 0.79656 0.16347 0.76244 0.0
H277 H 0.82232 0.22689 0.79114 0.0
H278 H 0.38287 0.04896 0.73457 0.0
H279 H 0.40343 0.10489 0.7676 0.0
H280 H 0.39562 0.97809 0.72811 0.0
H281 H 0.48034 0.97803 0.71718 0.0
C282 C 0.68026 0.70809 0.52888 0.0
C283 C 0.76269 0.77426 0.54084 0.0
C284 C 0.79709 0.71971 0.57707 0.0
C285 C 0.70989 0.65372 0.56829 0.0
N286 N 0.56198 0.58482 0.54004 0.0
N287 N 0.89052 0.8432 0.58157 0.0
C288 C 0.64947 0.64773 0.54533 0.0
C289 C 0.81863 0.78017 0.56646 0.0
N290 N 0.63316 0.70289 0.50108 0.0
N291 N 0.86077 0.72466 0.59441 0.0
H292 H 0.90796 0.88883 0.5749 0.0
H293 H 0.92732 0.8492 0.60306 0.0
H294 H 0.84868 0.68145 0.60173 0.0
H295 H 0.92866 0.77133 0.59833 0.0
H296 H 0.57788 0.65596 0.48887 0.0
H297 H 0.65443 0.74605 0.48812 0.0
H298 H 0.51173 0.57855 0.52655 0.0
H299 H 0.53717 0.53951 0.55167 0.0
C300 C 0.86752 0.46894 0.8431 0.0
C301 C 0.87868 0.52632 0.85386 0.0
C302 C 1.03987 0.58847 0.86996 0.0
C303 C 1.022 0.52684 0.86622 0.0
N304 N 0.91285 0.40537 0.85128 0.0
N305 N 0.97733 0.63827 0.88406 0.0
C306 C 0.93429 0.46634 0.85307 0.0
C307 C 0.96594 0.58593 0.86854 0.0
N308 N 0.79505 0.41794 0.82202 0.0
N309 N 1.12823 0.64987 0.87582 0.0
H310 H 0.92506 0.63762 0.88661 0.0
H311 H 1.03606 0.6789 0.8983 0.0
H312 H 0.18309 0.65303 0.87703 0.0
H313 H 1.14794 0.69773 0.87559 0.0
H314 H 0.78699 0.37778 0.81101 0.0
H315 H 0.74952 0.42069 0.81203 0.0
H316 H 0.84656 0.35793 0.84616 0.0
H317 H 0.96029 0.40195 0.85715 0.0
C318 C 0.41025 0.78567 0.20115 0.0
C319 C 0.39713 0.75843 0.16647 0.0
C320 C 0.53981 0.87466 0.14843 0.0
C321 C 0.54764 0.90261 0.18233 0.0
N322 N 0.46106 0.88573 0.23375 0.0
N323 N 0.43116 0.78756 0.1047 0.0
C324 C 0.4733 0.85848 0.20637 0.0
C325 C 0.45607 0.8061 0.13922 0.0
N326 N 0.36724 0.74351 0.22965 0.0
N327 N 0.61248 0.91087 0.12557 0.0
H328 H 0.3676 0.73994 0.097 0.0
H329 H 0.46848 0.82302 0.08436 0.0
H330 H 0.67866 0.95647 0.13268 0.0
H331 H 0.60936 0.89117 0.10089 0.0
H332 H 0.38129 0.76316 0.25542 0.0
H333 H 0.32755 0.6904 0.2283 0.0
H334 H 0.40408 0.85491 0.25049 0.0
H335 H 0.50139 0.93891 0.23679 0.0
C336 C 0.72386 0.40338 0.52363 0.0
C337 C 0.6347 0.3421 0.51217 0.0
C338 C 0.5656 0.37873 0.5434 0.0
C339 C 0.65494 0.44067 0.55425 0.0
N340 N 0.81991 0.51743 0.55161 0.0
N341 N 0.47229 0.27444 0.50658 0.0
C342 C 0.73444 0.45465 0.5434 0.0
C343 C 0.55597 0.33072 0.5207 0.0
N344 N 0.79795 0.41157 0.51619 0.0
N345 N 0.48992 0.36531 0.55549 0.0
H346 H 0.46211 0.237 0.49081 0.0
H347 H 0.41388 0.26671 0.50843 0.0
H348 H 0.49427 0.40074 0.57061 0.0
H349 H 0.42253 0.31785 0.55227 0.0
H350 H 0.86314 0.45073 0.527 0.0
H351 H 0.79338 0.37678 0.50029 0.0
H352 H 0.88101 0.53431 0.54147 0.0
H353 H 0.83 0.55509 0.56713 0.0
C354 C 0.39766 0.53877 0.84466 0.0
C355 C 0.40512 0.49999 0.86699 0.0
C356 C 0.26178 0.45622 0.8963 0.0
C357 C 0.26544 0.50527 0.87921 0.0
N358 N 0.35256 0.60309 0.84041 0.0
N359 N 0.3519 0.43667 0.92165 0.0
C360 C 0.33772 0.54923 0.8542 0.0
C361 C 0.33887 0.46241 0.89478 0.0
N362 N 0.4441 0.56326 0.81335 0.0
N363 N 0.18401 0.40289 0.91415 0.0
H364 H 0.41178 0.44678 0.92469 0.0
H365 H 0.30898 0.41385 0.9437 0.0
H366 H 1.12507 0.3948 0.91465 0.0
H367 H 0.17492 0.36271 0.92473 0.0
H368 H 0.43574 0.58725 0.79511 0.0
H369 H 0.48089 0.5515 0.80343 0.0
H370 H 0.41003 0.6409 0.82503 0.0
H371 H 0.31256 0.61367 0.84706 0.0
C372 C 0.97993 0.26789 0.15071 0.0
C373 C 0.95465 0.30587 0.14561 0.0
C374 C 0.79391 0.20168 0.16059 0.0
C375 C 0.8195 0.16413 0.16483 0.0
N376 N 0.92889 0.15475 0.1534 0.0
N377 N 0.83182 0.30203 0.1364 0.0
C378 C 0.90979 0.19505 0.15589 0.0
C379 C 0.85964 0.27036 0.14739 0.0
N380 N 1.07034 0.3014 0.15414 0.0
N381 N 0.70853 0.17341 0.17109 0.0
H382 H 0.87706 0.35212 0.12667 0.0
H383 H 0.76286 0.27631 0.13378 0.0
H384 H 0.65786 0.12276 0.18 0.0
H385 H 0.69002 0.20159 0.17308 0.0
H386 H 1.09104 0.27649 0.1617 0.0
H387 H 1.12484 0.35494 0.15335 0.0
H388 H 0.99132 0.17296 0.1439 0.0
H389 H 0.87857 0.10132 0.15732 0.0
C390 C 1.04749 0.46998 0.03798 0.0
C391 C 1.10076 0.5347 0.05639 0.0
C392 C 0.18845 0.59523 0.00202 0.0
C393 C 1.13068 0.53109 0.98325 0.0
N394 N 0.99701 0.40807 0.98181 0.0
N395 N 0.20889 0.65936 0.05407 0.0
C396 C 1.05759 0.46873 0.00079 0.0
C397 C 0.16781 0.59748 0.03784 0.0
N398 N 0.99133 0.40951 0.0561 0.0
N399 N 0.2637 0.65397 0.98568 0.0
H400 H 0.19287 0.66296 0.07977 0.0
H401 H 0.25184 0.70647 0.04108 0.0
H402 H 0.27938 0.6545 0.95923 0.0
H403 H 0.31456 0.7008 -0.00099 0.0
H404 H 0.96048 0.36161 0.04493 0.0
H405 H 0.98123 0.40766 0.08309 0.0
H406 H 0.93543 0.36282 -0.00787 0.0
H407 H 1.0051 0.40388 0.95496 0.0
C408 C 0.76423 0.11364 0.33758 0.0
C409 C 0.78581 0.0805 0.35569 0.0
C410 C 0.78691 0.0334 0.29946 0.0
C411 C 0.75485 0.06003 0.2821 0.0
N412 N 0.69189 0.11148 0.28649 0.0
N413 N 0.80151 0.99825 0.35489 0.0
C414 C 0.73742 0.09618 0.30169 0.0
C415 C 0.79277 0.03738 0.33694 0.0
N416 N 0.77271 0.16383 0.35422 0.0
N417 N 0.81414 1.00612 0.28014 0.0
H418 H 0.80483 0.99893 0.38234 0.0
H419 H 0.79712 0.96052 0.34276 0.0
H420 H 0.81156 1.00303 0.25264 0.0
H421 H 0.84685 0.99237 0.29117 0.0
H422 H 0.76621 0.19437 0.34127 0.0
H423 H 0.79664 0.18017 0.38 0.0
H424 H 0.66954 0.13158 0.30073 0.0
H425 H 0.66783 0.0975 0.26058 0.0
C426 C 0.66736 0.55973 0.73452 0.0
C427 C 0.6045 0.49181 0.74789 0.0
C428 C 0.55906 0.44647 0.68728 0.0
C429 C 0.63483 0.51358 0.67421 0.0
N430 N 0.776 0.63175 0.6881 0.0
N431 N 0.50443 0.36869 0.73544 0.0
C432 C 0.69365 0.56974 0.6986 0.0
C433 C 0.55402 0.43438 0.7239 0.0
N434 N 0.6976 0.61433 0.75542 0.0
N435 N 0.48973 0.39498 0.66528 0.0
H436 H 0.50322 0.35733 0.76166 0.0
H437 H 0.47337 0.32662 0.71819 0.0
H438 H 0.48696 0.40292 0.63876 0.0
H439 H 0.42978 0.34703 0.67445 0.0
H440 H 0.73896 0.66455 0.74598 0.0
H441 H 0.67016 0.60695 0.78051 0.0
H442 H 0.82297 0.67209 0.70589 0.0
H443 H 0.80179 0.63976 0.66263 0.0
C444 C 0.63366 1.00036 0.57676 0.0
C445 C 0.70229 0.06654 0.56126 0.0
C446 C 0.77247 0.11639 0.61979 0.0
C447 C 0.69714 0.05226 0.63547 0.0
N448 N 0.54812 0.93574 0.62936 0.0
N449 N 0.82854 0.1905 0.56936 0.0
C450 C 0.62573 0.99483 0.61407 0.0
C451 C 0.77019 0.12543 0.58303 0.0
N452 N 0.57719 0.94218 0.55581 0.0
N453 N 0.84667 0.16848 0.64 0.0
H454 H 0.82732 0.20032 0.54308 0.0
H455 H 0.87238 0.23551 0.58483 0.0
H456 H 0.85007 0.16376 0.66701 0.0
H457 H 0.90786 0.21375 0.62948 0.0
H458 H 0.53333 0.89208 0.56556 0.0
H459 H 0.58042 0.94368 0.52838 0.0
H460 H 0.48925 0.89529 0.61514 0.0
H461 H 0.53907 0.92944 0.65659 0.0
C462 C 0.7468 0.58586 0.98077 0.0
C463 C 0.67284 0.52965 0.9591 0.0
C464 C 0.58227 0.46881 0.01301 0.0
C465 C 0.65961 0.52276 0.03371 0.0
N466 N 0.82332 0.61963 0.03711 0.0
N467 N 0.52643 0.40977 0.95627 0.0
C468 C 0.74503 0.57573 0.01728 0.0
C469 C 0.59238 0.46845 0.97568 0.0
N470 N 0.8132 0.65133 0.96791 0.0
N471 N 0.49857 0.4196 0.02881 0.0
H472 H 0.53113 0.40635 0.92915 0.0
H473 H 0.47121 0.36242 0.9676 0.0
H474 H 0.4903 0.41715 0.05616 0.0
H475 H 0.43728 0.38394 0.01472 0.0
H476 H 0.8644 0.69394 0.98381 0.0
H477 H 0.80874 0.66589 0.9435 0.0
H478 H 0.88865 0.65662 0.02591 0.0
H479 H 0.82294 0.6137 0.06426 0.0
C480 C 0.17528 0.49003 0.25463 0.0
C481 C 0.25729 0.53744 0.23449 0.0
C482 C 0.34238 0.59116 0.29025 0.0
C483 C 0.25833 0.55363 0.30915 0.0
N484 N 1.09323 0.48022 0.30537 0.0
N485 N 0.4191 0.64542 0.23505 0.0
C486 C 0.17414 0.50687 0.2902 0.0
C487 C 0.34133 0.59151 0.25272 0.0
N488 N 1.0996 0.42722 0.24075 0.0
N489 N 0.4229 0.62472 0.30777 0.0
H490 H 0.42127 0.65261 0.20809 0.0
H491 H 0.47875 0.68822 0.24808 0.0
H492 H 0.42593 0.62225 0.33504 0.0
H493 H 0.48434 0.64792 0.29472 0.0
H494 H 1.04047 0.39003 0.2556 0.0
H495 H 1.10091 0.40853 0.21653 0.0
H496 H 1.03174 0.4498 0.29121 0.0
H497 H 1.08972 0.4952 0.33048 0.0
loop_
_geom_bond_atom_site_label_1
_geom_bond_atom_site_label_2
_geom_bond_distance
_geom_bond_site_symmetry_2
_ccdc_geom_bond_type
Sm0 C2 2.846 . S
Sm0 O20 2.543 . S
Sm0 O21 2.450 . S
Sm0 O22 2.681 . S
Sm0 O23 2.464 . S
Sm0 O24 2.396 . S
Sm0 O28 2.386 . S
Sm0 O31 2.408 1_455 S
Sm1 C11 2.846 . S
Sm1 O22 2.386 1_655 S
Sm1 O25 2.408 1_655 S
Sm1 O26 2.543 . S
Sm1 O27 2.450 . S
Sm1 O28 2.681 1_655 S
Sm1 O29 2.464 . S
Sm1 O30 2.396 . S
C2 Sm0 2.846 . S
C2 C3 1.506 . S
C2 O20 1.261 . S
C2 O21 1.242 . S
C3 C2 1.506 . S
C3 C4 1.358 . S
C3 C8 1.382 . S
C4 C3 1.358 . S
C4 C5 1.385 . S
C4 H32 0.930 . S
C5 C4 1.385 . S
C5 C6 1.395 . S
C5 H33 0.929 . S
C6 C5 1.395 . S
C6 C7 1.335 . S
C7 C6 1.335 . S
C7 C8 1.398 . S
C7 H34 0.930 . S
C8 C3 1.382 . S
C8 C7 1.398 . S
C8 H35 0.929 . S
C9 O22 1.271 . S
C9 O23 1.251 . S
C10 O24 1.252 . S
C10 O25 1.272 . S
C11 Sm1 2.846 . S
C11 C12 1.506 . S
C11 O26 1.261 . S
C11 O27 1.242 . S
C12 C11 1.506 . S
C12 C13 1.358 . S
C12 C17 1.382 . S
C13 C12 1.358 . S
C13 C14 1.385 . S
C13 H36 0.930 . S
C14 C13 1.385 . S
C14 C15 1.395 . S
C14 H37 0.929 . S
C15 C14 1.395 . S
C15 C16 1.335 . S
C16 C15 1.335 . S
C16 C17 1.398 . S
C16 H38 0.930 . S
C17 C12 1.382 . S
C17 C16 1.398 . S
C17 H39 0.929 . S
C18 O28 1.271 . S
C18 O29 1.251 1_455 S
C19 O30 1.252 . S
C19 O31 1.272 . S
O20 Sm0 2.543 . S
O20 C2 1.261 . S
O21 Sm0 2.450 . S
O21 C2 1.242 . S
O22 Sm0 2.681 . S
O22 Sm1 2.386 1_455 S
O22 C9 1.271 . S
O23 Sm0 2.464 . S
O23 C9 1.251 . S
O24 Sm0 2.396 . S
O24 C10 1.252 . S
O25 Sm1 2.408 1_455 S
O25 C10 1.272 . S
O26 Sm1 2.543 . S
O26 C11 1.261 . S
O27 Sm1 2.450 . S
O27 C11 1.242 . S
O28 Sm0 2.386 . S
O28 Sm1 2.681 1_455 S
O28 C18 1.271 . S
O29 Sm1 2.464 . S
O29 C18 1.251 1_655 S
O30 Sm1 2.396 . S
O30 C19 1.252 . S
O31 Sm0 2.408 1_655 S
O31 C19 1.272 . S
H32 C4 0.930 . S
H33 C5 0.929 . S
H34 C7 0.930 . S
H35 C8 0.929 . S
H36 C13 0.930 . S
H37 C14 0.929 . S
H38 C16 0.930 . S
H39 C17 0.929 . S
Sm40 C42 2.846 . S
Sm40 O60 2.543 . S
Sm40 O61 2.450 . S
Sm40 O62 2.681 1_565 S
Sm40 O63 2.464 . S
Sm40 O64 2.396 . S
Sm40 O68 2.386 . S
Sm40 O71 2.408 1_565 S
Sm41 C51 2.846 . S
Sm41 O62 2.386 . S
Sm41 O65 2.408 1_545 S
Sm41 O66 2.543 . S
Sm41 O67 2.450 . S
Sm41 O68 2.681 1_545 S
Sm41 O69 2.464 . S
Sm41 O70 2.396 . S
C42 Sm40 2.846 . S
C42 C43 1.506 . S
C42 O60 1.261 . S
C42 O61 1.242 . S
C43 C42 1.506 . S
C43 C44 1.358 . S
C43 C48 1.382 . S
C44 C43 1.358 . S
C44 C45 1.385 . S
C44 H72 0.930 . S
C45 C44 1.385 . S
C45 C46 1.395 . S
C45 H73 0.929 . S
C46 C45 1.395 . S
C46 C47 1.335 . S
C47 C46 1.335 . S
C47 C48 1.398 . S
C47 H74 0.930 . S
C48 C43 1.382 . S
C48 C47 1.398 . S
C48 H75 0.929 . S
C49 O62 1.271 . S
C49 O63 1.251 1_545 S
C50 O64 1.252 . S
C50 O65 1.272 . S
C51 Sm41 2.846 . S
C51 C52 1.506 . S
C51 O66 1.261 . S
C51 O67 1.242 . S
C52 C51 1.506 . S
C52 C53 1.358 . S
C52 C57 1.382 . S
C53 C52 1.358 . S
C53 C54 1.385 . S
C53 H76 0.930 . S
C54 C53 1.385 . S
C54 C55 1.395 . S
C54 H77 0.929 . S
C55 C54 1.395 . S
C55 C56 1.335 . S
C56 C55 1.335 . S
C56 C57 1.398 . S
C56 H78 0.930 . S
C57 C52 1.382 . S
C57 C56 1.398 . S
C57 H79 0.929 . S
C58 O68 1.271 1_545 S
C58 O69 1.251 . S
C59 O70 1.252 . S
C59 O71 1.272 . S
O60 Sm40 2.543 . S
O60 C42 1.261 . S
O61 Sm40 2.450 . S
O61 C42 1.242 . S
O62 Sm40 2.681 1_545 S
O62 Sm41 2.386 . S
O62 C49 1.271 . S
O63 Sm40 2.464 . S
O63 C49 1.251 1_565 S
O64 Sm40 2.396 . S
O64 C50 1.252 . S
O65 Sm41 2.408 1_565 S
O65 C50 1.272 . S
O66 Sm41 2.543 . S
O66 C51 1.261 . S
O67 Sm41 2.450 . S
O67 C51 1.242 . S
O68 Sm40 2.386 . S
O68 Sm41 2.681 1_565 S
O68 C58 1.271 1_565 S
O69 Sm41 2.464 . S
O69 C58 1.251 . S
O70 Sm41 2.396 . S
O70 C59 1.252 . S
O71 Sm40 2.408 1_545 S
O71 C59 1.272 . S
H72 C44 0.930 . S
H73 C45 0.929 . S
H74 C47 0.930 . S
H75 C48 0.929 . S
H76 C53 0.930 . S
H77 C54 0.929 . S
H78 C56 0.930 . S
H79 C57 0.929 . S
Sm80 C82 2.846 . S
Sm80 O100 2.543 . S
Sm80 O101 2.450 . S
Sm80 O102 2.681 . S
Sm80 O103 2.464 . S
Sm80 O104 2.396 . S
Sm80 O108 2.386 . S
Sm80 O111 2.408 . S
Sm81 C91 2.846 . S
Sm81 O102 2.386 . S
Sm81 O105 2.408 . S
Sm81 O106 2.543 . S
Sm81 O107 2.450 . S
Sm81 O108 2.681 . S
Sm81 O109 2.464 . S
Sm81 O110 2.396 . S
C82 Sm80 2.846 . S
C82 C83 1.506 . S
C82 O100 1.261 . S
C82 O101 1.242 . S
C83 C82 1.506 . S
C83 C84 1.358 . S
C83 C88 1.382 . S
C84 C83 1.358 . S
C84 C85 1.385 . S
C84 H112 0.930 . S
C85 C84 1.385 . S
C85 C86 1.395 . S
C85 H113 0.929 . S
C86 C85 1.395 . S
C86 C87 1.335 . S
C87 C86 1.335 . S
C87 C88 1.398 . S
C87 H114 0.930 . S
C88 C83 1.382 . S
C88 C87 1.398 . S
C88 H115 0.929 . S
C89 O102 1.271 . S
C89 O103 1.251 . S
C90 O104 1.252 . S
C90 O105 1.272 . S
C91 Sm81 2.846 . S
C91 C92 1.506 . S
C91 O106 1.261 . S
C91 O107 1.242 . S
C92 C91 1.506 . S
C92 C93 1.358 . S
C92 C97 1.382 . S
C93 C92 1.358 . S
C93 C94 1.385 . S
C93 H116 0.930 . S
C94 C93 1.385 . S
C94 C95 1.395 . S
C94 H117 0.929 . S
C95 C94 1.395 . S
C95 C96 1.335 . S
C96 C95 1.335 . S
C96 C97 1.398 . S
C96 H118 0.930 . S
C97 C92 1.382 . S
C97 C96 1.398 . S
C97 H119 0.929 . S
C98 O108 1.271 . S
C98 O109 1.251 . S
C99 O110 1.252 . S
C99 O111 1.272 . S
O100 Sm80 2.543 . S
O100 C82 1.261 . S
O101 Sm80 2.450 . S
O101 C82 1.242 . S
O102 Sm80 2.681 . S
O102 Sm81 2.386 . S
O102 C89 1.271 . S
O103 Sm80 2.464 . S
O103 C89 1.251 . S
O104 Sm80 2.396 . S
O104 C90 1.252 . S
O105 Sm81 2.408 . S
O105 C90 1.272 . S
O106 Sm81 2.543 . S
O106 C91 1.261 . S
O107 Sm81 2.450 . S
O107 C91 1.242 . S
O108 Sm80 2.386 . S
O108 Sm81 2.681 . S
O108 C98 1.271 . S
O109 Sm81 2.464 . S
O109 C98 1.251 . S
O110 Sm81 2.396 . S
O110 C99 1.252 . S
O111 Sm80 2.408 . S
O111 C99 1.272 . S
H112 C84 0.930 . S
H113 C85 0.929 . S
H114 C87 0.930 . S
H115 C88 0.929 . S
H116 C93 0.930 . S
H117 C94 0.929 . S
H118 C96 0.930 . S
H119 C97 0.929 . S
H120 C123 0.931 . S
H121 C126 0.928 . S
H122 C128 0.930 . S
C123 H120 0.931 . S
C123 C124 1.413 . S
C123 C125 1.360 1_565 S
C124 C123 1.413 . S
C124 C128 1.429 1_565 S
C125 C123 1.360 1_545 S
C125 C126 1.372 . S
C126 H121 0.928 . S
C126 C125 1.372 . S
C126 C127 1.404 . S
C127 C126 1.404 . S
C127 C128 1.391 . S
C128 H122 0.930 . S
C128 C124 1.429 1_545 S
C128 C127 1.391 . S
H129 C132 0.931 . S
H130 C135 0.928 . S
H131 C137 0.930 . S
C132 H129 0.931 . S
C132 C133 1.413 . S
C132 C134 1.360 . S
C133 C132 1.413 . S
C133 C137 1.429 . S
C134 C132 1.360 . S
C134 C135 1.372 . S
C135 H130 0.928 . S
C135 C134 1.372 . S
C135 C136 1.404 . S
C136 C135 1.404 . S
C136 C137 1.391 . S
C137 H131 0.930 . S
C137 C133 1.429 . S
C137 C136 1.391 . S
H138 C141 0.931 1_655 S
H139 C144 0.928 . S
H140 C146 0.930 . S
C141 H138 0.931 1_455 S
C141 C142 1.413 . S
C141 C143 1.360 . S
C142 C141 1.413 . S
C142 C146 1.429 . S
C143 C141 1.360 . S
C143 C144 1.372 . S
C144 H139 0.928 . S
C144 C143 1.372 . S
C144 C145 1.404 . S
C145 C144 1.404 . S
C145 C146 1.391 . S
C146 H140 0.930 . S
C146 C142 1.429 . S
C146 C145 1.391 . S
H147 C150 0.931 . S
H148 C153 0.928 . S
H149 C155 0.931 . S
C150 H147 0.931 . S
C150 C151 1.413 . S
C150 C152 1.357 1_655 S
C151 C150 1.413 . S
C151 C155 1.429 1_655 S
C152 C150 1.357 1_455 S
C152 C153 1.375 . S
C153 H148 0.928 . S
C153 C152 1.375 . S
C153 C154 1.404 . S
C154 C153 1.404 . S
C154 C155 1.391 . S
C155 H149 0.931 . S
C155 C151 1.429 1_455 S
C155 C154 1.391 . S
H156 C159 0.931 . S
H157 C162 0.928 . S
H158 C164 0.930 . S
C159 H156 0.931 . S
C159 C160 1.413 . S
C159 C161 1.360 1_545 S
C160 C159 1.413 . S
C160 C164 1.429 . S
C161 C159 1.360 1_565 S
C161 C162 1.372 . S
C162 H157 0.928 . S
C162 C161 1.372 . S
C162 C163 1.404 . S
C163 C162 1.404 . S
C163 C164 1.391 1_565 S
C164 H158 0.930 . S
C164 C160 1.429 . S
C164 C163 1.391 1_545 S
H165 C168 0.931 . S
H166 C171 0.928 . S
H167 C173 0.930 . S
C168 H165 0.931 . S
C168 C169 1.413 . S
C168 C170 1.360 . S
C169 C168 1.413 . S
C169 C173 1.429 . S
C170 C168 1.360 . S
C170 C171 1.372 . S
C171 H166 0.928 . S
C171 C170 1.372 . S
C171 C172 1.404 . S
C172 C171 1.404 . S
C172 C173 1.391 . S
C173 H167 0.930 . S
C173 C169 1.429 . S
C173 C172 1.391 . S
C174 C175 1.363 . S
C174 C180 1.379 . S
C174 N182 1.356 . S
C175 C174 1.363 . S
C175 C181 1.363 . S
C176 C177 1.363 . S
C176 C181 1.379 . S
C176 N183 1.356 . S
C177 C176 1.363 . S
C177 C180 1.363 . S
N178 C180 1.356 . S
N178 H190 0.984 . S
N178 H191 0.985 . S
N179 C181 1.356 . S
N179 H184 0.984 . S
N179 H185 0.985 . S
C180 C174 1.379 . S
C180 C177 1.363 . S
C180 N178 1.356 . S
C181 C175 1.363 . S
C181 C176 1.379 . S
C181 N179 1.356 . S
N182 C174 1.356 . S
N182 H188 0.984 . S
N182 H189 0.984 . S
N183 C176 1.356 . S
N183 H186 0.984 . S
N183 H187 0.985 . S
H184 N179 0.984 . S
H185 N179 0.985 . S
H186 N183 0.984 . S
H187 N183 0.985 . S
H188 N182 0.984 . S
H189 N182 0.984 . S
H190 N178 0.984 . S
H191 N178 0.985 . S
C192 C193 1.363 . S
C192 C198 1.379 . S
C192 N200 1.356 . S
C193 C192 1.363 . S
C193 C199 1.363 . S
C194 C195 1.363 . S
C194 C199 1.379 . S
C194 N201 1.356 . S
C195 C194 1.363 . S
C195 C198 1.363 . S
N196 C198 1.356 . S
N196 H208 0.984 . S
N196 H209 0.985 . S
N197 C199 1.356 . S
N197 H202 0.984 . S
N197 H203 0.985 . S
C198 C192 1.379 . S
C198 C195 1.363 . S
C198 N196 1.356 . S
C199 C193 1.363 . S
C199 C194 1.379 . S
C199 N197 1.356 . S
N200 C192 1.356 . S
N200 H206 0.984 . S
N200 H207 0.984 . S
N201 C194 1.356 . S
N201 H204 0.984 . S
N201 H205 0.985 . S
H202 N197 0.984 . S
H203 N197 0.985 . S
H204 N201 0.984 . S
H205 N201 0.985 . S
H206 N200 0.984 . S
H207 N200 0.984 . S
H208 N196 0.984 . S
H209 N196 0.985 . S
C210 C211 1.363 . S
C210 C216 1.379 . S
C210 N218 1.356 . S
C211 C210 1.363 . S
C211 C217 1.363 . S
C212 C213 1.363 . S
C212 C217 1.379 . S
C212 N219 1.356 . S
C213 C212 1.363 . S
C213 C216 1.363 . S
N214 C216 1.356 1_545 S
N214 H226 0.984 . S
N214 H227 0.985 . S
N215 C217 1.356 . S
N215 H220 0.984 . S
N215 H221 0.985 . S
C216 C210 1.379 . S
C216 C213 1.363 . S
C216 N214 1.356 1_565 S
C217 C211 1.363 . S
C217 C212 1.379 . S
C217 N215 1.356 . S
N218 C210 1.356 . S
N218 H224 0.984 1_565 S
N218 H225 0.984 . S
N219 C212 1.356 . S
N219 H222 0.984 . S
N219 H223 0.985 . S
H220 N215 0.984 . S
H221 N215 0.985 . S
H222 N219 0.984 . S
H223 N219 0.985 . S
H224 N218 0.984 1_545 S
H225 N218 0.984 . S
H226 N214 0.984 . S
H227 N214 0.985 . S
C228 C229 1.363 . S
C228 C234 1.379 . S
C228 N236 1.356 . S
C229 C228 1.363 . S
C229 C235 1.363 . S
C230 C231 1.363 . S
C230 C235 1.379 . S
C230 N237 1.356 . S
C231 C230 1.363 . S
C231 C234 1.363 . S
N232 C234 1.356 . S
N232 H244 0.984 . S
N232 H245 0.985 . S
N233 C235 1.356 . S
N233 H238 0.984 . S
N233 H239 0.985 . S
C234 C228 1.379 . S
C234 C231 1.363 . S
C234 N232 1.356 . S
C235 C229 1.363 . S
C235 C230 1.379 . S
C235 N233 1.356 . S
N236 C228 1.356 . S
N236 H242 0.984 . S
N236 H243 0.984 . S
N237 C230 1.356 . S
N237 H240 0.984 . S
N237 H241 0.985 . S
H238 N233 0.984 . S
H239 N233 0.985 . S
H240 N237 0.984 . S
H241 N237 0.985 . S
H242 N236 0.984 . S
H243 N236 0.984 . S
H244 N232 0.984 . S
H245 N232 0.985 . S
C246 C247 1.363 . S
C246 C252 1.379 . S
C246 N254 1.356 . S
C247 C246 1.363 . S
C247 C253 1.363 . S
C248 C249 1.363 . S
C248 C253 1.379 . S
C248 N255 1.356 . S
C249 C248 1.363 . S
C249 C252 1.363 . S
N250 C252 1.356 . S
N250 H262 0.984 . S
N250 H263 0.985 . S
N251 C253 1.356 . S
N251 H256 0.984 . S
N251 H257 0.985 . S
C252 C246 1.379 . S
C252 C249 1.363 . S
C252 N250 1.356 . S
C253 C247 1.363 . S
C253 C248 1.379 . S
C253 N251 1.356 . S
N254 C246 1.356 . S
N254 H260 0.984 . S
N254 H261 0.984 . S
N255 C248 1.356 . S
N255 H258 0.984 . S
N255 H259 0.985 . S
H256 N251 0.984 . S
H257 N251 0.985 . S
H258 N255 0.984 . S
H259 N255 0.985 . S
H260 N254 0.984 . S
H261 N254 0.984 . S
H262 N250 0.984 . S
H263 N250 0.985 . S
C264 C265 1.363 . S
C264 C270 1.379 . S
C264 N272 1.356 . S
C265 C264 1.363 . S
C265 C271 1.363 . S
C266 C267 1.363 . S
C266 C271 1.379 . S
C266 N273 1.356 . S
C267 C266 1.363 . S
C267 C270 1.363 . S
N268 C270 1.356 . S
N268 H280 0.984 . S
N268 H281 0.985 . S
N269 C271 1.356 . S
N269 H274 0.984 . S
N269 H275 0.985 . S
C270 C264 1.379 . S
C270 C267 1.363 . S
C270 N268 1.356 . S
C271 C265 1.363 . S
C271 C266 1.379 . S
C271 N269 1.356 . S
N272 C264 1.356 . S
N272 H278 0.984 . S
N272 H279 0.984 . S
N273 C266 1.356 . S
N273 H276 0.984 . S
N273 H277 0.985 . S
H274 N269 0.984 . S
H275 N269 0.985 . S
H276 N273 0.984 . S
H277 N273 0.985 . S
H278 N272 0.984 . S
H279 N272 0.984 . S
H280 N268 0.984 . S
H281 N268 0.985 . S
C282 C283 1.363 . S
C282 C288 1.379 . S
C282 N290 1.356 . S
C283 C282 1.363 . S
C283 C289 1.363 . S
C284 C285 1.363 . S
C284 C289 1.379 . S
C284 N291 1.356 . S
C285 C284 1.363 . S
C285 C288 1.363 . S
N286 C288 1.356 . S
N286 H298 0.984 . S
N286 H299 0.985 . S
N287 C289 1.356 . S
N287 H292 0.984 . S
N287 H293 0.985 . S
C288 C282 1.379 . S
C288 C285 1.363 . S
C288 N286 1.356 . S
C289 C283 1.363 . S
C289 C284 1.379 . S
C289 N287 1.356 . S
N290 C282 1.356 . S
N290 H296 0.984 . S
N290 H297 0.984 . S
N291 C284 1.356 . S
N291 H294 0.984 . S
N291 H295 0.985 . S
H292 N287 0.984 . S
H293 N287 0.985 . S
H294 N291 0.984 . S
H295 N291 0.985 . S
H296 N290 0.984 . S
H297 N290 0.984 . S
H298 N286 0.984 . S
H299 N286 0.985 . S
C300 C301 1.363 . S
C300 C306 1.379 . S
C300 N308 1.356 . S
C301 C300 1.363 . S
C301 C307 1.363 . S
C302 C303 1.363 . S
C302 C307 1.379 . S
C302 N309 1.356 . S
C303 C302 1.363 . S
C303 C306 1.363 . S
N304 C306 1.356 . S
N304 H316 0.984 . S
N304 H317 0.985 . S
N305 C307 1.356 . S
N305 H310 0.984 . S
N305 H311 0.985 . S
C306 C300 1.379 . S
C306 C303 1.363 . S
C306 N304 1.356 . S
C307 C301 1.363 . S
C307 C302 1.379 . S
C307 N305 1.356 . S
N308 C300 1.356 . S
N308 H314 0.984 . S
N308 H315 0.984 . S
N309 C302 1.356 . S
N309 H312 0.984 . S
N309 H313 0.985 . S
H310 N305 0.984 . S
H311 N305 0.985 . S
H312 N309 0.984 . S
H313 N309 0.985 . S
H314 N308 0.984 . S
H315 N308 0.984 . S
H316 N304 0.984 . S
H317 N304 0.985 . S
C318 C319 1.363 . S
C318 C324 1.379 . S
C318 N326 1.356 . S
C319 C318 1.363 . S
C319 C325 1.363 . S
C320 C321 1.363 . S
C320 C325 1.379 . S
C320 N327 1.356 . S
C321 C320 1.363 . S
C321 C324 1.363 . S
N322 C324 1.356 . S
N322 H334 0.984 . S
N322 H335 0.985 . S
N323 C325 1.356 . S
N323 H328 0.984 . S
N323 H329 0.985 . S
C324 C318 1.379 . S
C324 C321 1.363 . S
C324 N322 1.356 . S
C325 C319 1.363 . S
C325 C320 1.379 . S
C325 N323 1.356 . S
N326 C318 1.356 . S
N326 H332 0.984 . S
N326 H333 0.984 . S
N327 C320 1.356 . S
N327 H330 0.984 . S
N327 H331 0.985 . S
H328 N323 0.984 . S
H329 N323 0.985 . S
H330 N327 0.984 . S
H331 N327 0.985 . S
H332 N326 0.984 . S
H333 N326 0.984 . S
H334 N322 0.984 . S
H335 N322 0.985 . S
C336 C337 1.363 . S
C336 C342 1.379 . S
C336 N344 1.356 . S
C337 C336 1.363 . S
C337 C343 1.363 . S
C338 C339 1.363 . S
C338 C343 1.379 . S
C338 N345 1.356 . S
C339 C338 1.363 . S
C339 C342 1.363 . S
N340 C342 1.356 . S
N340 H352 0.984 . S
N340 H353 0.985 . S
N341 C343 1.356 . S
N341 H346 0.984 . S
N341 H347 0.985 . S
C342 C336 1.379 . S
C342 C339 1.363 . S
C342 N340 1.356 . S
C343 C337 1.363 . S
C343 C338 1.379 . S
C343 N341 1.356 . S
N344 C336 1.356 . S
N344 H350 0.984 . S
N344 H351 0.984 . S
N345 C338 1.356 . S
N345 H348 0.984 . S
N345 H349 0.985 . S
H346 N341 0.984 . S
H347 N341 0.985 . S
H348 N345 0.984 . S
H349 N345 0.985 . S
H350 N344 0.984 . S
H351 N344 0.984 . S
H352 N340 0.984 . S
H353 N340 0.985 . S
C354 C355 1.363 . S
C354 C360 1.379 . S
C354 N362 1.356 . S
C355 C354 1.363 . S
C355 C361 1.363 . S
C356 C357 1.363 . S
C356 C361 1.379 . S
C356 N363 1.356 . S
C357 C356 1.363 . S
C357 C360 1.363 . S
N358 C360 1.356 . S
N358 H370 0.984 . S
N358 H371 0.985 . S
N359 C361 1.356 . S
N359 H364 0.984 . S
N359 H365 0.985 . S
C360 C354 1.379 . S
C360 C357 1.363 . S
C360 N358 1.356 . S
C361 C355 1.363 . S
C361 C356 1.379 . S
C361 N359 1.356 . S
N362 C354 1.356 . S
N362 H368 0.984 . S
N362 H369 0.984 . S
N363 C356 1.356 . S
N363 H366 0.984 . S
N363 H367 0.985 . S
H364 N359 0.984 . S
H365 N359 0.985 . S
H366 N363 0.984 . S
H367 N363 0.985 . S
H368 N362 0.984 . S
H369 N362 0.984 . S
H370 N358 0.984 . S
H371 N358 0.985 . S
C372 C373 1.363 . S
C372 C378 1.379 . S
C372 N380 1.356 . S
C373 C372 1.363 . S
C373 C379 1.363 . S
C374 C375 1.363 . S
C374 C379 1.379 . S
C374 N381 1.356 . S
C375 C374 1.363 . S
C375 C378 1.363 . S
N376 C378 1.356 . S
N376 H388 0.984 . S
N376 H389 0.985 . S
N377 C379 1.356 . S
N377 H382 0.984 . S
N377 H383 0.985 . S
C378 C372 1.379 . S
C378 C375 1.363 . S
C378 N376 1.356 . S
C379 C373 1.363 . S
C379 C374 1.379 . S
C379 N377 1.356 . S
N380 C372 1.356 . S
N380 H386 0.984 . S
N380 H387 0.984 . S
N381 C374 1.356 . S
N381 H384 0.984 . S
N381 H385 0.985 . S
H382 N377 0.984 . S
H383 N377 0.985 . S
H384 N381 0.984 . S
H385 N381 0.985 . S
H386 N380 0.984 . S
H387 N380 0.984 . S
H388 N376 0.984 . S
H389 N376 0.985 . S
C390 C391 1.363 . S
C390 C396 1.379 . S
C390 N398 1.356 . S
C391 C390 1.363 . S
C391 C397 1.363 . S
C392 C393 1.363 1_554 S
C392 C397 1.379 . S
C392 N399 1.356 1_554 S
C393 C392 1.363 1_556 S
C393 C396 1.363 1_556 S
N394 C396 1.356 1_556 S
N394 H406 0.984 . S
N394 H407 0.985 . S
N395 C397 1.356 . S
N395 H400 0.984 . S
N395 H401 0.985 . S
C396 C390 1.379 . S
C396 C393 1.363 1_554 S
C396 N394 1.356 1_554 S
C397 C391 1.363 . S
C397 C392 1.379 . S
C397 N395 1.356 . S
N398 C390 1.356 . S
N398 H404 0.984 . S
N398 H405 0.984 . S
N399 C392 1.356 1_556 S
N399 H402 0.984 . S
N399 H403 0.985 . S
H400 N395 0.984 . S
H401 N395 0.985 . S
H402 N399 0.984 . S
H403 N399 0.985 . S
H404 N398 0.984 . S
H405 N398 0.984 . S
H406 N394 0.984 . S
H407 N394 0.985 . S
C408 C409 1.363 . S
C408 C414 1.379 . S
C408 N416 1.356 . S
C409 C408 1.363 . S
C409 C415 1.363 1_545 S
C410 C411 1.363 1_565 S
C410 C415 1.379 . S
C410 N417 1.356 . S
C411 C410 1.363 1_545 S
C411 C414 1.363 . S
N412 C414 1.356 . S
N412 H424 0.984 . S
N412 H425 0.985 . S
N413 C415 1.356 . S
N413 H418 0.984 . S
N413 H419 0.985 . S
C414 C408 1.379 . S
C414 C411 1.363 . S
C414 N412 1.356 . S
C415 C409 1.363 1_565 S
C415 C410 1.379 . S
C415 N413 1.356 . S
N416 C408 1.356 . S
N416 H422 0.984 . S
N416 H423 0.984 . S
N417 C410 1.356 . S
N417 H420 0.984 . S
N417 H421 0.985 . S
H418 N413 0.984 . S
H419 N413 0.985 . S
H420 N417 0.984 . S
H421 N417 0.985 . S
H422 N416 0.984 . S
H423 N416 0.984 . S
H424 N412 0.984 . S
H425 N412 0.985 . S
C426 C427 1.363 . S
C426 C432 1.379 . S
C426 N434 1.356 . S
C427 C426 1.363 . S
C427 C433 1.363 . S
C428 C429 1.363 . S
C428 C433 1.379 . S
C428 N435 1.356 . S
C429 C428 1.363 . S
C429 C432 1.363 . S
N430 C432 1.356 . S
N430 H442 0.984 . S
N430 H443 0.985 . S
N431 C433 1.356 . S
N431 H436 0.984 . S
N431 H437 0.985 . S
C432 C426 1.379 . S
C432 C429 1.363 . S
C432 N430 1.356 . S
C433 C427 1.363 . S
C433 C428 1.379 . S
C433 N431 1.356 . S
N434 C426 1.356 . S
N434 H440 0.984 . S
N434 H441 0.984 . S
N435 C428 1.356 . S
N435 H438 0.984 . S
N435 H439 0.985 . S
H436 N431 0.984 . S
H437 N431 0.985 . S
H438 N435 0.984 . S
H439 N435 0.985 . S
H440 N434 0.984 . S
H441 N434 0.984 . S
H442 N430 0.984 . S
H443 N430 0.985 . S
C444 C445 1.363 1_565 S
C444 C450 1.379 . S
C444 N452 1.356 . S
C445 C444 1.363 1_545 S
C445 C451 1.363 . S
C446 C447 1.363 1_545 S
C446 C451 1.379 . S
C446 N453 1.356 . S
C447 C446 1.363 1_565 S
C447 C450 1.363 . S
N448 C450 1.356 . S
N448 H460 0.984 . S
N448 H461 0.985 . S
N449 C451 1.356 . S
N449 H454 0.984 . S
N449 H455 0.985 . S
C450 C444 1.379 . S
C450 C447 1.363 . S
C450 N448 1.356 . S
C451 C445 1.363 . S
C451 C446 1.379 . S
C451 N449 1.356 . S
N452 C444 1.356 . S
N452 H458 0.984 . S
N452 H459 0.984 . S
N453 C446 1.356 . S
N453 H456 0.984 . S
N453 H457 0.985 . S
H454 N449 0.984 . S
H455 N449 0.985 . S
H456 N453 0.984 . S
H457 N453 0.985 . S
H458 N452 0.984 . S
H459 N452 0.984 . S
H460 N448 0.984 . S
H461 N448 0.985 . S
C462 C463 1.363 . S
C462 C468 1.379 . S
C462 N470 1.356 . S
C463 C462 1.363 . S
C463 C469 1.363 . S
C464 C465 1.363 1_556 S
C464 C469 1.379 . S
C464 N471 1.356 . S
C465 C464 1.363 1_554 S
C465 C468 1.363 1_554 S
N466 C468 1.356 1_554 S
N466 H478 0.984 . S
N466 H479 0.985 . S
N467 C469 1.356 . S
N467 H472 0.984 . S
N467 H473 0.985 . S
C468 C462 1.379 . S
C468 C465 1.363 1_556 S
C468 N466 1.356 1_556 S
C469 C463 1.363 . S
C469 C464 1.379 . S
C469 N467 1.356 . S
N470 C462 1.356 . S
N470 H476 0.984 . S
N470 H477 0.984 . S
N471 C464 1.356 . S
N471 H474 0.984 1_556 S
N471 H475 0.985 . S
H472 N467 0.984 . S
H473 N467 0.985 . S
H474 N471 0.984 1_554 S
H475 N471 0.985 . S
H476 N470 0.984 . S
H477 N470 0.984 . S
H478 N466 0.984 . S
H479 N466 0.985 . S
C480 C481 1.363 1_655 S
C480 C486 1.379 . S
C480 N488 1.356 . S
C481 C480 1.363 1_455 S
C481 C487 1.363 . S
C482 C483 1.363 . S
C482 C487 1.379 . S
C482 N489 1.356 . S
C483 C482 1.363 . S
C483 C486 1.363 1_455 S
N484 C486 1.356 . S
N484 H496 0.984 . S
N484 H497 0.985 . S
N485 C487 1.356 . S
N485 H490 0.984 . S
N485 H491 0.985 . S
C486 C480 1.379 . S
C486 C483 1.363 1_655 S
C486 N484 1.356 . S
C487 C481 1.363 . S
C487 C482 1.379 . S
C487 N485 1.356 . S
N488 C480 1.356 . S
N488 H494 0.984 . S
N488 H495 0.984 . S
N489 C482 1.356 . S
N489 H492 0.984 . S
N489 H493 0.985 . S
H490 N485 0.984 . S
H491 N485 0.985 . S
H492 N489 0.984 . S
H493 N489 0.985 . S
H494 N488 0.984 . S
H495 N488 0.984 . S
H496 N484 0.984 . S
H497 N484 0.985 . S
C175 C6 1.215 . S
C177 C169 1.401 . S
C193 C59 1.878 . S
C195 C151 1.853 . S
C211 C86 1.635 . S
C213 C163 1.760 . S
C229 C15 0.964 . S
C231 C172 1.129 . S
C249 C154 1.862 . S
C247 C50 1.889 . S
C267 C160 1.600 . S
C265 C95 1.496 . S
C283 C46 1.473 . S
C285 C133 1.564 . S
C301 C99 3.043 . S
C303 C142 3.007 1_655 S
C319 C10 1.928 . S
C321 C124 1.941 . S
C339 C136 1.654 . S
C337 C55 1.519 . S
C357 C145 2.988 . S
C355 C90 2.978 . S
C373 C19 1.880 . S
C375 C127 1.873 . S
C393 C143 1.811 . S
C391 C18 1.740 . S
C409 C49 1.289 . S
C411 C125 1.337 . S
C427 C98 1.429 . S
C429 C134 1.496 . S
C447 C161 1.460 . S
C445 C58 1.412 . S
C465 C170 0.985 . S
C463 C89 0.990 . S
C481 C9 1.274 . S
C483 C152 1.312 . S
