# Generated by pormake.
# Topology tsx, (6,3)-cn, num edge types: 1
# Building blocks:
#     Node 0, Type 0, BuildingBlock: FUNLAD_clean_sbu_0, # of connection points: 6
#     Node 1, Type 0, BuildingBlock: FUNLAD_clean_sbu_0, # of connection points: 6
#     Node 2, Type 1, BuildingBlock: VETTIZ_charged_linker_0, # of connection points: 3
#     Node 3, Type 1, BuildingBlock: VETTIZ_charged_linker_0, # of connection points: 3
#     Node 4, Type 1, BuildingBlock: VETTIZ_charged_linker_0, # of connection points: 3
#     Node 5, Type 1, BuildingBlock: VETTIZ_charged_linker_0, # of connection points: 3
#     Edge 6, Type (0, 1), BuildingBlock: ZUJKAS_clean_linker_0, # of connection points: 2
#     Edge 7, Type (0, 1), BuildingBlock: ZUJKAS_clean_linker_0, # of connection points: 2
#     Edge 8, Type (0, 1), BuildingBlock: ZUJKAS_clean_linker_0, # of connection points: 2
#     Edge 9, Type (0, 1), BuildingBlock: ZUJKAS_clean_linker_0, # of connection points: 2
#     Edge 10, Type (0, 1), BuildingBlock: ZUJKAS_clean_linker_0, # of connection points: 2
#     Edge 11, Type (0, 1), BuildingBlock: ZUJKAS_clean_linker_0, # of connection points: 2
#     Edge 12, Type (0, 1), BuildingBlock: ZUJKAS_clean_linker_0, # of connection points: 2
#     Edge 13, Type (0, 1), BuildingBlock: ZUJKAS_clean_linker_0, # of connection points: 2
#     Edge 14, Type (0, 1), BuildingBlock: ZUJKAS_clean_linker_0, # of connection points: 2
#     Edge 15, Type (0, 1), BuildingBlock: ZUJKAS_clean_linker_0, # of connection points: 2
#     Edge 16, Type (0, 1), BuildingBlock: ZUJKAS_clean_linker_0, # of connection points: 2
#     Edge 17, Type (0, 1), BuildingBlock: ZUJKAS_clean_linker_0, # of connection points: 2
# Relax obj value: 0.169
# Max RMSD: 0.158
# Mean RMSD: 0.098
data_MOF--net-tsx--node1-FUNLAD_clean_sbu_0--node2-VETTIZ_charged_linker_0--edge1-ZUJKAS_clean_linker_0
_symmetry_space_group_name_H-M    P1
_symmetry_Int_Tables_number       1
_symmetry_cell_setting            triclinic
loop_
_symmetry_equiv_pos_as_xyz
'x, y, z'
_cell_length_a     28.707031
_cell_length_b     31.808589
_cell_length_c     61.383938
_cell_angle_alpha  90.907011
_cell_angle_beta   92.101187
_cell_angle_gamma 89.930474
loop_
_atom_site_label
_atom_site_type_symbol
_atom_site_fract_x
_atom_site_fract_y
_atom_site_fract_z
_atom_type_partial_charge
C0 C 0.96014 0.94912 0.99325 0.0
N1 N 0.0219 0.0148 0.04628 0.0
C2 C 0.97901 0.01421 0.05497 0.0
C3 C 0.97469 0.01398 0.0775 0.0
C4 C 0.01489 0.0143 0.09123 0.0
C5 C 0.05874 0.01527 0.08182 0.0
C6 C 0.06145 0.01556 0.05917 0.0
Zn7 Zn 0.02625 0.01286 0.01332 0.0
C8 C 0.09576 0.95093 -0.00125 0.0
N9 N 0.03259 0.00764 0.94436 0.0
C10 C 0.99367 0.00506 0.93109 0.0
C11 C 0.07594 0.00751 0.93613 0.0
C12 C 0.08147 0.00422 0.91373 0.0
C13 C 0.04202 0.00096 0.89963 0.0
C14 C 0.99761 0.0017 0.90853 0.0
Zn15 Zn 0.02758 0.01021 0.97728 0.0
O16 O 0.97525 0.96466 0.01136 0.0
C17 C 0.95736 0.07129 0.99204 0.0
O18 O 0.97658 0.96223 0.97568 0.0
H19 H 0.1064 0.00968 0.94698 0.0
H20 H 0.94804 0.01343 0.0444 0.0
H21 H 0.95958 0.00512 0.93803 0.0
O22 O 0.97308 0.05874 0.01043 0.0
O23 O 0.97425 0.05618 0.97472 0.0
H24 H 0.09517 0.01608 0.05188 0.0
O25 O 0.0779 0.05884 0.9791 0.0
O26 O 0.07684 0.06142 0.01478 0.0
O27 O 0.08058 0.96377 0.98032 0.0
O28 O 0.07926 0.96668 0.01597 0.0
C29 C 0.09227 0.07519 -0.00289 0.0
H30 H 0.94023 0.01267 0.08408 0.0
H31 H 0.09057 0.01601 0.09185 0.0
H32 H 0.1163 0.00442 0.90752 0.0
H33 H 0.96631 -0.00114 0.89822 0.0
C34 C 0.45346 0.44624 0.49723 0.0
N35 N 0.52017 0.51153 0.5489 0.0
C36 C 0.47771 0.51216 0.55801 0.0
C37 C 0.47436 0.51143 0.58055 0.0
C38 C 0.51507 0.50973 0.59387 0.0
C39 C 0.55853 0.50981 0.58407 0.0
C40 C 0.56028 0.51076 0.56139 0.0
Zn41 Zn 0.52206 0.50963 0.51596 0.0
C42 C 0.58918 0.44687 0.50012 0.0
N43 N 0.52184 0.50426 0.44702 0.0
C44 C 0.48181 0.50392 0.43447 0.0
C45 C 0.56439 0.50388 0.43799 0.0
C46 C 0.56792 0.50343 0.41545 0.0
C47 C 0.52727 0.50349 0.40206 0.0
C48 C 0.48374 0.50351 0.41178 0.0
Zn49 Zn 0.51975 0.50635 0.47995 0.0
O50 O 0.47042 0.46198 0.51495 0.0
C51 C 0.45211 0.56848 0.49588 0.0
O52 O 0.46821 0.45891 0.47923 0.0
H53 H 0.59574 0.50409 0.4483 0.0
H54 H 0.44628 0.51278 0.54777 0.0
H55 H 0.44839 0.5043 0.44205 0.0
O56 O 0.46939 0.55633 0.51405 0.0
O57 O 0.46707 0.55263 0.47834 0.0
H58 H 0.59363 0.51023 0.55375 0.0
O59 O 0.57061 0.55446 0.48082 0.0
O60 O 0.57342 0.55737 0.51654 0.0
O61 O 0.57235 0.45959 0.48196 0.0
O62 O 0.57448 0.46286 0.51766 0.0
C63 C 0.58715 0.57072 0.49846 0.0
H64 H 0.44017 0.5122 0.58744 0.0
H65 H 0.59074 0.5082 0.59377 0.0
H66 H 0.60215 0.50275 0.4086 0.0
H67 H 0.45158 0.50393 0.40199 0.0
C68 C 0.05862 0.88305 0.45965 0.0
C69 C 0.08306 0.85079 0.44904 0.0
C70 C 0.07911 0.84711 0.42613 0.0
C71 C 0.02893 0.90814 0.42466 0.0
C72 C 0.03166 0.9112 0.44715 0.0
C73 C 0.00319 0.9473 0.45563 0.0
H74 H 0.87361 0.12077 0.43369 0.0
C75 C -0.00019 0.94302 0.41642 0.0
C76 C 0.98429 0.96605 0.43445 0.0
H77 H 0.90807 0.06885 0.49679 0.0
H78 H 0.94886 0.01096 0.47951 0.0
H79 H 0.97278 0.1035 0.4121 0.0
H80 H 0.84348 0.03552 0.41198 0.0
H81 H 0.86581 0.02716 0.38605 0.0
H82 H 0.85132 0.0799 0.39483 0.0
H83 H 0.92074 0.12058 0.39772 0.0
H84 H 0.96125 0.08502 0.38533 0.0
C85 C 0.03641 0.9779 0.46842 0.0
C86 C 0.96385 0.92918 0.46929 0.0
C87 C 0.98255 0.96622 0.33484 0.0
C88 C 0.95991 0.99736 0.32235 0.0
C89 C 0.93397 0.02868 0.33299 0.0
C90 C 0.93147 0.02955 0.35571 0.0
C91 C 0.95525 -0.00115 0.368 0.0
C92 C 0.97974 0.96759 0.35754 0.0
C93 C 0.00281 0.93763 0.37328 0.0
C94 C 0.98827 0.95627 0.39492 0.0
C95 C 0.96074 0.9922 0.39169 0.0
C96 C 0.05622 0.94037 0.3706 0.0
C97 C 0.98173 0.89328 0.36893 0.0
C98 C 0.89053 0.09731 0.44386 0.0
C99 C 0.88897 0.09994 0.46667 0.0
C100 C 0.90971 0.06779 0.47923 0.0
C101 C 0.93317 0.03432 0.4692 0.0
C102 C 0.93522 0.03272 0.44637 0.0
C103 C 0.91338 0.06355 0.43412 0.0
C104 C 0.9169 0.05589 0.41007 0.0
C105 C 0.94495 0.01554 0.40983 0.0
C106 C 0.95615 0.00232 0.43111 0.0
C107 C 0.94402 0.09315 0.40061 0.0
C108 C 0.86695 0.04954 0.40003 0.0
H109 H 0.0511 0.87118 0.39656 0.0
H110 H 0.06053 0.88634 0.47725 0.0
H111 H 0.93161 0.94812 0.468 0.0
H112 H 0.97527 0.92646 0.48669 0.0
H113 H 0.95319 0.89728 0.46331 0.0
H114 H 0.06879 0.98282 0.45937 0.0
H115 H 0.04665 0.96515 0.48464 0.0
H116 H 0.02135 0.00946 0.47078 0.0
H117 H 0.0031 0.94193 0.32719 0.0
H118 H 0.91556 0.0526 0.32371 0.0
H119 H 0.91148 0.05439 0.36281 0.0
H120 H 0.067 0.97336 0.36772 0.0
H121 H 0.06717 0.9209 0.3565 0.0
H122 H 0.0767 0.93094 0.38527 0.0
H123 H 0.94488 0.89532 0.36274 0.0
H124 H 0.98017 0.87449 0.38388 0.0
H125 H 0.0015 0.87553 0.35657 0.0
H126 H 0.09805 0.82292 0.41753 0.0
C127 C 0.05215 0.87546 0.41393 0.0
C128 C 0.0705 0.13048 0.53717 0.0
C129 C 0.10339 0.15739 0.54768 0.0
C130 C 0.11427 0.15218 0.57005 0.0
C131 C 0.06209 0.09271 0.57087 0.0
C132 C 0.05015 0.0985 0.54911 0.0
C133 C 0.01469 0.06676 0.54067 0.0
H134 H 0.90462 0.88183 0.55656 0.0
C135 C 0.03775 0.05501 0.57819 0.0
C136 C 0.01032 0.03913 0.56051 0.0
H137 H 0.88974 0.96161 0.50045 0.0
H138 H 0.94146 0.01307 0.51827 0.0
H139 H 0.01447 0.89587 0.56773 0.0
H140 H 0.88867 0.95362 0.58922 0.0
H141 H 0.92751 0.95621 0.61188 0.0
H142 H 0.91015 0.90555 0.60066 0.0
H143 H 0.9738 0.87039 0.58469 0.0
H144 H 0.02046 0.90252 0.59621 0.0
C145 C 0.03494 0.04276 0.52104 0.0
C146 C 0.96883 0.09062 0.53524 0.0
C147 C 0.06179 0.00672 0.6563 0.0
C148 C 0.04462 0.97217 0.66756 0.0
C149 C 0.01833 0.94127 0.65592 0.0
C150 C 0.00774 0.9455 0.63365 0.0
C151 C 0.02355 0.98104 0.62282 0.0
C152 C 0.05082 0.0105 0.63402 0.0
C153 C 0.06501 0.04585 0.61968 0.0
C154 C 0.03997 0.03357 0.5983 0.0
C155 C 0.01583 0.9957 0.60031 0.0
C156 C 0.11882 0.04451 0.61803 0.0
C157 C 0.04578 0.08753 0.62922 0.0
C158 C 0.91322 0.90999 0.54785 0.0
C159 C 0.89494 0.91685 0.52668 0.0
C160 C 0.90463 0.95509 0.51649 0.0
C161 C 0.93445 0.98488 0.52682 0.0
C162 C 0.95381 0.97673 0.54768 0.0
C163 C 0.94189 0.94028 0.55804 0.0
C164 C 0.96146 0.93847 0.58097 0.0
C165 C 0.98852 0.97928 0.58249 0.0
C166 C 0.98479 0.0013 0.56285 0.0
C167 C 0.99409 0.89971 0.58271 0.0
C168 C 0.92012 0.93816 0.5966 0.0
H169 H 0.10423 0.11742 0.59854 0.0
H170 H 0.06114 0.13408 0.52005 0.0
H171 H 0.93764 0.07055 0.53613 0.0
H172 H 0.96967 0.10493 0.51887 0.0
H173 H 0.96329 0.11649 0.54729 0.0
H174 H 0.07209 0.03445 0.52451 0.0
H175 H 0.03323 0.0623 0.50619 0.0
H176 H 0.0171 0.01276 0.51724 0.0
H177 H 0.08191 0.03113 0.66477 0.0
H178 H 0.00548 0.91394 0.66413 0.0
H179 H 0.98715 0.92114 0.62581 0.0
H180 H 0.13266 0.01214 0.62041 0.0
H181 H 0.13622 0.06521 0.63058 0.0
H182 H 0.13044 0.0533 0.60174 0.0
H183 H 0.01012 0.08287 0.63528 0.0
H184 H 0.04205 0.11257 0.61704 0.0
H185 H 0.06827 0.09922 0.64313 0.0
H186 H 0.13988 0.17217 0.57846 0.0
C187 C 0.09389 0.12005 0.58166 0.0
C188 C 0.55763 0.38204 0.95986 0.0
C189 C 0.58041 0.3493 0.94879 0.0
C190 C 0.57382 0.34527 0.92599 0.0
C191 C 0.52505 0.40727 0.92542 0.0
C192 C 0.52993 0.41047 0.94786 0.0
C193 C 0.50293 0.44712 0.95681 0.0
H194 H 0.37716 0.62394 0.93674 0.0
C195 C 0.49628 0.44279 0.91768 0.0
C196 C 0.48259 0.46611 0.93596 0.0
H197 H 0.4114 0.57 -0.00062 0.0
H198 H 0.45021 0.51139 0.98144 0.0
H199 H 0.47523 0.60389 0.91426 0.0
H200 H 0.34324 0.54045 0.91502 0.0
H201 H 0.36433 0.53119 0.88892 0.0
H202 H 0.35241 0.58443 0.89777 0.0
H203 H 0.42336 0.62295 0.90049 0.0
H204 H 0.4618 0.58632 0.8875 0.0
C205 C 0.53775 0.47729 0.96882 0.0
C206 C 0.46458 0.4299 0.97135 0.0
C207 C 0.47778 0.46838 0.83646 0.0
C208 C 0.45596 0.50039 0.8243 0.0
C209 C 0.43109 0.53203 0.83524 0.0
C210 C 0.42896 0.53236 0.85798 0.0
C211 C 0.45202 0.50077 0.86994 0.0
C212 C 0.47531 0.46917 0.85915 0.0
C213 C 0.49773 0.43821 0.87452 0.0
C214 C 0.48431 0.45669 0.89636 0.0
C215 C 0.45793 0.49342 0.89354 0.0
C216 C 0.55112 0.43969 0.87154 0.0
C217 C 0.47516 0.3945 0.86997 0.0
C218 C 0.3936 0.59987 0.94668 0.0
C219 C 0.39259 0.60208 0.96951 0.0
C220 C 0.41266 0.5692 0.98179 0.0
C221 C 0.43491 0.53536 0.97143 0.0
C222 C 0.43629 0.53409 0.94858 0.0
C223 C 0.41508 0.56568 0.93664 0.0
C224 C 0.41739 0.55821 0.91253 0.0
C225 C 0.4438 0.51698 0.91192 0.0
C226 C 0.4555 0.5032 0.93304 0.0
C227 C 0.44559 0.59471 0.903 0.0
C228 C 0.36689 0.55358 0.90288 0.0
H229 H 0.54326 0.36941 0.89696 0.0
H230 H 0.56148 0.38553 0.97742 0.0
H231 H 0.454 0.39745 0.96629 0.0
H232 H 0.43208 0.4485 0.96995 0.0
H233 H 0.47687 0.42886 0.9887 0.0
H234 H 0.56835 0.48303 0.95867 0.0
H235 H 0.55077 0.46366 0.98444 0.0
H236 H 0.52265 0.50845 0.97225 0.0
H237 H 0.49754 0.44382 0.82858 0.0
H238 H 0.41331 0.55664 0.8262 0.0
H239 H 0.40986 0.5575 0.86533 0.0
H240 H 0.56295 0.47259 0.86929 0.0
H241 H 0.56094 0.42103 0.85696 0.0
H242 H 0.5717 0.42848 0.88581 0.0
H243 H 0.43872 0.39754 0.86336 0.0
H244 H 0.47208 0.37595 0.88495 0.0
H245 H 0.49493 0.37601 0.8579 0.0
H246 H 0.59133 0.32065 0.91704 0.0
C247 C 0.54622 0.37392 0.9143 0.0
C248 C 0.59603 0.61864 0.03225 0.0
C249 C 0.63398 0.64181 0.04126 0.0
C250 C 0.64556 0.63845 0.06367 0.0
C251 C 0.58406 0.58764 0.06752 0.0
C252 C 0.57183 0.59145 0.04565 0.0
C253 C 0.53207 0.56266 0.03878 0.0
H254 H 0.40118 0.39348 0.06285 0.0
C255 C 0.55441 0.55511 0.07668 0.0
C256 C 0.52412 0.53977 0.05992 0.0
H257 H 0.39528 0.46394 0.00328 0.0
H258 H 0.45071 0.51447 0.01937 0.0
H259 H 0.51108 0.4002 0.07467 0.0
H260 H 0.39136 0.47244 0.092 0.0
H261 H 0.43051 0.47797 0.11445 0.0
H262 H 0.4085 0.42645 0.10675 0.0
H263 H 0.46634 0.38179 0.09185 0.0
H264 H 0.51578 0.41081 0.10292 0.0
C265 C 0.54892 0.53273 0.02061 0.0
C266 C 0.48968 0.59009 0.03184 0.0
C267 C 0.57256 0.52039 0.15693 0.0
C268 C 0.55021 0.49119 0.16995 0.0
C269 C 0.51909 0.46186 0.16 0.0
C270 C 0.50906 0.4626 0.13755 0.0
C271 C 0.53024 0.49304 0.12489 0.0
C272 C 0.56198 0.52081 0.13453 0.0
C273 C 0.58126 0.55073 0.11843 0.0
C274 C 0.55396 0.53764 0.09778 0.0
C275 C 0.52437 0.50386 0.10171 0.0
C276 C 0.63427 0.54197 0.11685 0.0
C277 C 0.56904 0.59614 0.12577 0.0
C278 C 0.41243 0.41936 0.05305 0.0
C279 C 0.39586 0.42361 0.0314 0.0
C280 C 0.40898 0.45921 0.01971 0.0
C281 C 0.44106 0.48833 0.02896 0.0
C282 C 0.45946 0.48212 0.05016 0.0
C283 C 0.44357 0.44899 0.0621 0.0
C284 C 0.46262 0.4497 0.08515 0.0
C285 C 0.49455 0.48752 0.08478 0.0
C286 C 0.49339 0.50604 0.06414 0.0
C287 C 0.49025 0.40845 0.08907 0.0
C288 C 0.42137 0.45672 0.1005 0.0
H289 H 0.63165 0.6104 0.09368 0.0
H290 H 0.58634 0.62072 0.01508 0.0
H291 H 0.45609 0.57482 0.035 0.0
H292 H 0.49068 0.59829 0.01434 0.0
H293 H 0.48915 0.62003 0.04145 0.0
H294 H 0.58355 0.5192 0.02528 0.0
H295 H 0.55249 0.54985 0.00513 0.0
H296 H 0.52557 0.50575 0.01741 0.0
H297 H 0.59716 0.5429 0.16409 0.0
H298 H 0.50112 0.43928 0.1697 0.0
H299 H 0.48458 0.43986 0.13102 0.0
H300 H 0.64345 0.50945 0.12189 0.0
H301 H 0.65522 0.56392 0.1275 0.0
H302 H 0.6462 0.54391 0.09995 0.0
H303 H 0.53284 0.59764 0.13163 0.0
H304 H 0.56999 0.61897 0.11244 0.0
H305 H 0.59291 0.6071 0.13934 0.0
H306 H 0.67398 0.65668 0.07108 0.0
C307 C 0.62085 0.61161 0.0768 0.0
H308 H 0.13233 0.11618 0.03256 0.0
H309 H 0.1819 0.17864 0.03272 0.0
H310 H 0.17362 0.1795 0.96242 0.0
H311 H 0.12484 0.11654 0.96207 0.0
H312 H 0.26184 0.1934 0.97836 0.0
H313 H 0.13874 0.29786 0.02058 0.0
H314 H 0.15153 0.2511 0.03564 0.0
H315 H 0.12179 0.24713 0.00935 0.0
C316 C 0.14115 0.12957 0.01713 0.0
C317 C 0.12443 0.11152 -0.00269 0.0
C318 C 0.16914 0.16548 0.01725 0.0
C319 C 0.18049 0.18428 -0.00241 0.0
C320 C 0.16489 0.16571 0.97778 0.0
H321 H 0.31485 0.43266 0.00665 0.0
H322 H 0.26177 0.3764 -0.00646 0.0
C323 C 0.13707 0.12969 0.97763 0.0
C324 C 0.20949 0.22279 -0.00224 0.0
H325 H 0.21797 0.32179 0.01975 0.0
C326 C 0.25199 0.22168 0.98716 0.0
C327 C 0.19608 0.26007 0.00875 0.0
C328 C 0.1493 0.26436 0.01902 0.0
C329 C 0.28267 0.25602 0.98837 0.0
C330 C 0.27088 0.29199 0.00085 0.0
C331 C 0.2272 0.29403 0.01036 0.0
C332 C 0.30499 0.32586 0.00616 0.0
C333 C 0.32769 0.25318 0.9765 0.0
C334 C 0.34689 0.31604 0.01739 0.0
C335 C 0.37705 0.34787 0.02478 0.0
C336 C 0.36572 0.39031 0.02133 0.0
C337 C 0.32451 0.40021 0.00944 0.0
C338 C 0.29416 0.36817 0.00203 0.0
H339 H 0.32412 0.23183 0.96203 0.0
H340 H 0.33912 0.28456 0.97109 0.0
H341 H 0.35529 0.24013 0.98757 0.0
H342 H 0.35554 0.28375 0.02118 0.0
H343 H 0.40886 0.33929 0.03367 0.0
H344 H 0.13248 0.90667 0.965 0.0
H345 H 0.18567 0.84677 0.96709 0.0
H346 H 0.19084 0.85692 0.03725 0.0
H347 H 0.13743 0.91711 0.03539 0.0
H348 H 0.28076 0.84466 0.01651 0.0
H349 H 0.14575 0.72873 0.98924 0.0
H350 H 0.14915 0.77388 0.97213 0.0
H351 H 0.13155 0.78034 -0.00021 0.0
C352 C 0.14504 0.89638 0.9809 0.0
C353 C 0.13045 0.9165 4e-05 0.0
C354 C 0.17527 0.86203 0.98205 0.0
C355 C 0.19152 0.84713 0.00232 0.0
C356 C 0.17835 0.86787 0.02146 0.0
H357 H 0.32958 0.60098 0.00196 0.0
H358 H 0.28345 0.66047 0.01531 0.0
C359 C 0.14786 0.9022 0.02035 0.0
C360 C 0.22189 0.80955 0.00331 0.0
H361 H 0.22492 0.70607 0.98805 0.0
C362 C 0.26851 0.81417 0.0106 0.0
C363 C 0.20551 0.76971 -0.00402 0.0
C364 C 0.15513 0.7626 0.98902 0.0
C365 C 0.29994 0.78037 0.00952 0.0
C366 C 0.28426 0.74127 0.00074 0.0
C367 C 0.23698 0.73611 -0.00532 0.0
C368 C 0.3168 0.70662 -0.00443 0.0
C369 C 0.34979 0.78702 0.01741 0.0
C370 C 0.35121 0.71301 0.98033 0.0
C371 C 0.37739 0.67925 0.97271 0.0
C372 C 0.36951 0.63835 0.98008 0.0
C373 C 0.33657 0.63222 -0.00389 0.0
C374 C 0.31014 0.66609 0.00368 0.0
H375 H 0.35255 0.81264 0.02991 0.0
H376 H 0.36495 0.75786 0.02442 0.0
H377 H 0.37088 0.79624 0.00347 0.0
H378 H 0.35634 0.74379 0.97352 0.0
H379 H 0.40284 0.68492 0.96049 0.0
H380 H 0.91746 0.91103 0.95744 0.0
H381 H 0.85364 0.85982 0.95695 0.0
H382 H 0.85504 0.86357 0.02723 0.0
H383 H 0.91811 0.91488 0.02792 0.0
H384 H 0.85088 0.78062 0.97514 0.0
H385 H 0.71797 0.88417 0.01075 0.0
H386 H 0.77096 0.90426 -0.00018 0.0
H387 H 0.77106 0.88418 0.02709 0.0
C388 C 0.9041 0.90098 0.97279 0.0
C389 C 0.92272 0.91717 0.99273 0.0
C390 C 0.86762 0.87181 0.97246 0.0
C391 C 0.849 0.85864 0.99203 0.0
C392 C 0.86811 0.87417 0.01192 0.0
H393 H 0.72837 0.64539 0.04075 0.0
H394 H 0.77589 0.6968 0.02276 0.0
C395 C 0.90445 0.90325 0.01228 0.0
C396 C 0.81081 0.82742 0.99199 0.0
H397 H 0.70578 0.80941 0.01429 0.0
C398 C 0.81869 0.78708 0.9833 0.0
C399 C 0.76831 0.83616 0.00211 0.0
C400 C 0.75632 0.8797 0.01025 0.0
C401 C 0.7868 0.75435 0.98607 0.0
C402 C 0.74657 0.76213 -0.00184 0.0
C403 C 0.73691 0.80328 0.00524 0.0
C404 C 0.71762 0.72756 0.00622 0.0
C405 C 0.79723 0.71149 0.97657 0.0
C406 C 0.66889 0.72776 0.003 0.0
C407 C 0.64146 0.69851 0.01354 0.0
C408 C 0.66244 0.66913 0.02768 0.0
C409 C 0.71127 0.66799 0.03012 0.0
C410 C 0.73852 0.69701 0.0196 0.0
H411 H 0.81755 0.7141 0.96159 0.0
H412 H 0.81865 0.69346 0.9886 0.0
H413 H 0.76478 0.69358 0.97256 0.0
H414 H 0.65205 0.75137 0.99291 0.0
H415 H 0.60387 0.70017 0.01147 0.0
H416 H 0.9155 0.10512 0.95559 0.0
H417 H 0.85109 0.15546 0.95392 0.0
H418 H 0.84835 0.15849 0.02412 0.0
H419 H 0.91246 0.10782 0.02599 0.0
H420 H 0.76033 0.14837 0.00365 0.0
H421 H 0.85595 0.28156 0.96911 0.0
H422 H 0.86151 0.23344 0.95373 0.0
H423 H 0.88524 0.23693 0.98123 0.0
C424 C 0.90142 0.11666 0.97068 0.0
C425 C 0.91924 0.10259 0.99092 0.0
C426 C 0.86478 0.14559 0.9697 0.0
C427 C 0.84548 0.16112 0.98891 0.0
C428 C 0.863 0.14703 0.00912 0.0
H429 H 0.64821 0.37034 0.9794 0.0
H430 H 0.71068 0.32498 -0.00612 0.0
C431 C 0.89967 0.11814 0.01014 0.0
C432 C 0.80595 0.191 0.98779 0.0
H433 H 0.77272 0.28594 0.96736 0.0
C434 C 0.7631 0.17869 -0.00404 0.0
C435 C 0.80993 0.23082 0.97813 0.0
C436 C 0.85575 0.24673 0.97024 0.0
C437 C 0.72345 0.20435 -0.00627 0.0
C438 C 0.72677 0.24298 0.98281 0.0
C439 C 0.77016 0.25616 0.97561 0.0
C440 C 0.68526 0.26876 0.97709 0.0
C441 C 0.67833 0.1897 0.0029 0.0
C442 C 0.6498 0.25195 0.96324 0.0
C443 C 0.61409 0.27768 0.95505 0.0
C444 C 0.61337 0.3208 0.96042 0.0
C445 C 0.64762 0.33716 0.97515 0.0
C446 C 0.68344 0.31137 0.98332 0.0
H447 H 0.68472 0.16753 0.0165 0.0
H448 H 0.65744 0.21663 0.00889 0.0
H449 H 0.6575 0.17291 0.9899 0.0
H450 H 0.65094 0.21937 0.95789 0.0
H451 H 0.58795 0.26416 0.94386 0.0
H452 H 0.61165 0.61477 0.46283 0.0
H453 H 0.66251 0.67616 0.46195 0.0
H454 H 0.68862 0.66824 0.53143 0.0
H455 H 0.6367 0.60747 0.53256 0.0
H456 H 0.66714 0.7475 0.5189 0.0
H457 H 0.80325 0.68093 0.46634 0.0
H458 H 0.7452 0.67851 0.45448 0.0
H459 H 0.75978 0.64868 0.47842 0.0
C460 C 0.62854 0.62584 0.47791 0.0
C461 C 0.62026 0.60619 0.49778 0.0
C462 C 0.65779 0.66083 0.47734 0.0
C463 C 0.67985 0.67641 0.49656 0.0
C464 C 0.67197 0.65663 0.51639 0.0
H465 H 0.91156 0.83285 0.52503 0.0
H466 H 0.85697 0.77737 0.51373 0.0
C467 C 0.6424 0.62187 0.51701 0.0
C468 C 0.70989 0.71422 0.49628 0.0
H469 H 0.81033 0.75282 0.4762 0.0
C470 C 0.69835 0.7488 0.50949 0.0
C471 C 0.75056 0.71571 0.48396 0.0
C472 C 0.76578 0.67888 0.47014 0.0
C473 C 0.72707 0.7844 0.51128 0.0
C474 C 0.76785 0.78588 0.49904 0.0
C475 C 0.77872 0.75178 0.48533 0.0
C476 C 0.80263 0.81991 0.5025 0.0
C477 C 0.71469 0.81909 0.52713 0.0
C478 C 0.79098 0.86227 0.49904 0.0
C479 C 0.82207 0.89421 0.50577 0.0
C480 C 0.8652 0.88405 0.51592 0.0
C481 C 0.87809 0.84157 0.5177 0.0
C482 C 0.84707 0.80983 0.5111 0.0
H483 H 0.68742 0.8092 0.53837 0.0
H484 H 0.74589 0.82936 0.53704 0.0
H485 H 0.70118 0.84654 0.51793 0.0
H486 H 0.7572 0.87064 0.49195 0.0
H487 H 0.81136 0.9267 0.50411 0.0
H488 H 0.63143 0.41097 0.53605 0.0
H489 H 0.68593 0.35157 0.53671 0.0
H490 H 0.68011 0.34607 0.46643 0.0
H491 H 0.62563 0.40504 0.46555 0.0
H492 H 0.66419 0.26784 0.4877 0.0
H493 H 0.82512 0.34951 0.51906 0.0
H494 H 0.77301 0.35738 0.53405 0.0
H495 H 0.7761 0.37753 0.50702 0.0
C496 C 0.64206 0.39733 0.52073 0.0
C497 C 0.62415 0.41268 0.50073 0.0
C498 C 0.6733 0.36353 0.52116 0.0
C499 C 0.68716 0.34471 0.50162 0.0
C500 C 0.6698 0.36027 0.48168 0.0
H501 H 0.89571 0.18264 0.45657 0.0
H502 H 0.84771 0.2407 0.46944 0.0
C503 C 0.63872 0.39401 0.48122 0.0
C504 C 0.71829 0.30764 0.50171 0.0
H505 H 0.83115 0.27705 0.51113 0.0
C506 C 0.70057 0.2696 0.49306 0.0
C507 C 0.76567 0.31034 0.50867 0.0
C508 C 0.78646 0.35087 0.51762 0.0
C509 C 0.72938 0.23439 0.49051 0.0
C510 C 0.77703 0.23722 0.4971 0.0
C511 C 0.79448 0.27494 0.50634 0.0
C512 C 0.81011 0.20308 0.49201 0.0
C513 C 0.70914 0.19514 0.47974 0.0
C514 C 0.80593 0.16301 0.50101 0.0
C515 C 0.83316 0.12959 0.49354 0.0
C516 C 0.86484 0.13592 0.47697 0.0
C517 C 0.8709 0.17669 0.46904 0.0
C518 C 0.8438 0.20994 0.4765 0.0
H519 H 0.6738 0.20061 0.47233 0.0
H520 H 0.73212 0.18327 0.46684 0.0
H521 H 0.70642 0.17025 0.49209 0.0
H522 H 0.7805 0.15728 0.51322 0.0
H523 H 0.82782 0.09852 0.49996 0.0
H524 H 0.40153 0.41304 0.46275 0.0
H525 H 0.33737 0.36235 0.46416 0.0
H526 H 0.35658 0.35735 0.53406 0.0
H527 H 0.42043 0.40779 0.53289 0.0
H528 H 0.34903 0.27608 0.50985 0.0
H529 H 0.20612 0.39001 0.4908 0.0
H530 H 0.25549 0.38849 0.47351 0.0
H531 H 0.26288 0.40689 0.50116 0.0
C532 C 0.39219 0.40101 0.47841 0.0
C533 C 0.41599 0.41447 0.49772 0.0
C534 C 0.35545 0.37225 0.47917 0.0
C535 C 0.34218 0.35651 0.49923 0.0
C536 C 0.36635 0.36931 0.51844 0.0
H537 H 0.12109 0.23898 0.5595 0.0
H538 H 0.17575 0.28682 0.54297 0.0
C539 C 0.40279 0.39815 0.51773 0.0
C540 C 0.30308 0.32663 0.50051 0.0
H541 H 0.18426 0.3213 0.49968 0.0
C542 C 0.31298 0.28561 0.50727 0.0
C543 C 0.25626 0.33954 0.49725 0.0
C544 C 0.24414 0.38366 0.49037 0.0
C545 C 0.27713 0.25742 0.51164 0.0
C546 C 0.23021 0.27063 0.50894 0.0
C547 C 0.2203 0.31126 0.50149 0.0
C548 C 0.1916 0.24438 0.51636 0.0
C549 C 0.2897 0.21451 0.52024 0.0
C550 C 0.1811 0.20542 0.50633 0.0
C551 C 0.14994 0.17795 0.51579 0.0
C552 C 0.12902 0.18913 0.53542 0.0
C553 C 0.13723 0.22936 0.54454 0.0
C554 C 0.1682 0.25677 0.53506 0.0
H555 H 0.32753 0.2116 0.52444 0.0
H556 H 0.26986 0.20775 0.53498 0.0
H557 H 0.28036 0.19022 0.50766 0.0
H558 H 0.19855 0.19555 0.49176 0.0
H559 H 0.14437 0.14708 0.50846 0.0
H560 H 0.41122 0.60763 0.53033 0.0
H561 H 0.34752 0.6589 0.52894 0.0
H562 H 0.3437 0.65164 0.45868 0.0
H563 H 0.40756 0.60083 0.45984 0.0
H564 H 0.34287 0.73445 0.47637 0.0
H565 H 0.20964 0.63181 0.51221 0.0
H566 H 0.26375 0.63826 0.5276 0.0
H567 H 0.26314 0.61125 0.5017 0.0
C568 C 0.39686 0.61699 0.51457 0.0
C569 C 0.41435 0.60009 0.49517 0.0
C570 C 0.36033 0.64609 0.51384 0.0
C571 C 0.34065 0.65859 0.49373 0.0
C572 C 0.35843 0.64223 0.47437 0.0
H573 H 0.0921 0.7659 0.44373 0.0
H574 H 0.15398 0.72132 0.45908 0.0
C575 C 0.39488 0.61319 0.47507 0.0
C576 C 0.30163 0.68892 0.49258 0.0
H577 H 0.1856 0.69958 0.50174 0.0
C578 C 0.30858 0.72716 0.48214 0.0
C579 C 0.25704 0.67899 0.50008 0.0
C580 C 0.24755 0.63776 0.51091 0.0
C581 C 0.27168 0.75527 0.4783 0.0
C582 C 0.22683 0.74507 0.48546 0.0
C583 C 0.22017 0.70739 0.49651 0.0
C584 C 0.18563 0.77072 0.47922 0.0
C585 C 0.28047 0.7946 0.46562 0.0
C586 C 0.18191 0.81279 0.48617 0.0
C587 C 0.14675 0.83846 0.47727 0.0
C588 C 0.11484 0.82229 0.46135 0.0
C589 C 0.11674 0.77937 0.45566 0.0
C590 C 0.15184 0.75382 0.46453 0.0
H591 H 0.31501 0.79401 0.45803 0.0
H592 H 0.25307 0.79875 0.45258 0.0
H593 H 0.27944 0.82235 0.47677 0.0
H594 H 0.20733 0.82618 0.49776 0.0
H595 H 0.14617 0.87143 0.48194 0.0
H596 H 0.95392 0.05769 0.1163 0.0
H597 H 0.94577 0.05366 0.15574 0.0
H598 H 0.05831 0.96384 0.15969 0.0
H599 H 0.06656 0.96748 0.12023 0.0
H600 H 0.92632 0.98176 0.18 0.0
H601 H 0.09603 0.05417 0.20581 0.0
H602 H 0.0714 0.05832 0.17844 0.0
H603 H 0.09984 0.01065 0.18693 0.0
C604 C 0.97686 0.03701 0.12556 0.0
C605 C 0.01095 0.01296 0.11519 0.0
C606 C 0.97226 0.03486 0.14806 0.0
C607 C 0.00177 0.00882 0.16058 0.0
C608 C 0.03582 0.98474 0.15033 0.0
H609 H 0.95666 0.9307 0.29352 0.0
H610 H 0.96691 0.93224 0.25412 0.0
C611 C 0.0405 0.9869 0.12781 0.0
C612 C 0.99603 0.00617 0.18432 0.0
H613 H 0.05115 0.02559 0.23361 0.0
C614 C 0.95355 0.99133 0.19176 0.0
C615 C 0.03157 0.01904 0.19951 0.0
C616 C 0.07717 0.0368 0.19235 0.0
C617 C 0.94566 0.98885 0.21411 0.0
C618 C 0.9815 0.00102 0.2293 0.0
C619 C 0.02393 0.01601 0.22185 0.0
C620 C 0.97519 -0.00022 0.25304 0.0
C621 C 0.89875 0.97412 0.22127 0.0
C622 C 0.97738 0.03714 0.26544 0.0
C623 C 0.97202 0.03634 0.28792 0.0
C624 C 0.96455 0.99808 0.2984 0.0
C625 C 0.9626 0.96062 0.28592 0.0
C626 C 0.96799 0.96147 0.26341 0.0
H627 H 0.87185 0.9753 0.20781 0.0
H628 H 0.90172 0.94109 0.2267 0.0
H629 H 0.88679 0.99356 0.23518 0.0
H630 H 0.98322 0.06697 0.2577 0.0
H631 H 0.97453 0.06562 0.29713 0.0
H632 H 0.10485 0.95214 0.8784 0.0
H633 H 0.1145 0.94543 0.83908 0.0
H634 H 3e-05 0.03122 0.8277 0.0
H635 H 0.99105 0.03916 0.86702 0.0
H636 H 0.04972 0.917 0.80746 0.0
H637 H 0.10414 0.0807 0.79197 0.0
H638 H 0.10442 0.05901 0.81899 0.0
H639 H 0.0509 0.07746 0.80631 0.0
C640 C 0.08215 0.97003 0.86754 0.0
C641 C 0.04738 0.99642 0.8758 0.0
C642 C 0.08755 0.96596 0.84511 0.0
C643 C 0.05848 0.98835 0.83057 0.0
C644 C 0.0234 0.01432 0.83872 0.0
H645 H 0.9806 0.94979 0.69692 0.0
H646 H 0.98981 0.94992 0.73656 0.0
C647 C 0.01795 0.01843 0.86115 0.0
C648 C 0.06371 0.98349 0.80683 0.0
H649 H 0.08088 0.03892 0.76072 0.0
C650 C 0.05703 0.94353 0.79724 0.0
C651 C 0.07408 0.01804 0.79364 0.0
C652 C 0.08428 0.06115 0.80325 0.0
C653 C 0.05841 0.93755 0.7746 0.0
C654 C 0.06597 0.9726 0.76131 0.0
C655 C 0.07471 0.01219 0.77098 0.0
C656 C 0.06203 0.96949 0.73729 0.0
C657 C 0.05142 0.89388 0.76511 0.0
C658 C 0.09947 0.98098 0.7246 0.0
C659 C 0.09434 0.98093 0.70187 0.0
C660 C 0.05154 0.96962 0.69153 0.0
C661 C 0.01431 0.95776 0.70436 0.0
C662 C 0.01948 0.95782 0.72702 0.0
H663 H 0.06028 0.86942 0.77731 0.0
H664 H 0.01425 0.88977 0.75992 0.0
H665 H 0.07298 0.88871 0.75065 0.0
H666 H 0.1325 0.99034 0.73229 0.0
H667 H 0.12372 0.98994 0.69241 0.0
H668 H 0.56887 0.55051 0.62534 0.0
H669 H 0.5611 0.54792 0.66493 0.0
H670 H 0.44589 0.46178 0.65597 0.0
H671 H 0.45395 0.46332 0.61652 0.0
H672 H 0.43133 0.53767 0.68349 0.0
H673 H 0.58986 0.44466 0.70617 0.0
H674 H 0.5971 0.48802 0.68809 0.0
H675 H 0.56339 0.44323 0.679 0.0
C676 C 0.54236 0.53053 0.63182 0.0
C677 C 0.51186 0.50729 0.61783 0.0
C678 C 0.53794 0.52918 0.65438 0.0
C679 C 0.50305 0.50456 0.66319 0.0
C680 C 0.47294 0.48101 0.64934 0.0
H681 H 0.45132 0.43434 0.79522 0.0
H682 H 0.4627 0.43618 0.75592 0.0
C683 C 0.47743 0.48216 0.62685 0.0
C684 C 0.49655 0.5045 0.68685 0.0
H685 H 0.54515 0.47081 0.73499 0.0
C686 C 0.45617 0.52316 0.69481 0.0
C687 C 0.529 0.48519 0.70135 0.0
C688 C 0.57222 0.46383 0.69333 0.0
C689 C 0.44744 0.52322 0.7171 0.0
C690 C 0.48012 0.5043 0.73164 0.0
C691 C 0.52038 0.4854 0.72368 0.0
C692 C 0.47283 0.50349 0.75523 0.0
C693 C 0.40309 0.54288 0.72494 0.0
C694 C 0.475 0.54079 0.76767 0.0
C695 C 0.46888 0.53984 0.79009 0.0
C696 C 0.46053 0.50154 0.80038 0.0
C697 C 0.45818 0.46425 0.78778 0.0
C698 C 0.46449 0.46523 0.76537 0.0
H699 H 0.3776 0.54892 0.71128 0.0
H700 H 0.38654 0.5223 0.73688 0.0
H701 H 0.41144 0.57332 0.73325 0.0
H702 H 0.48205 0.5705 0.76007 0.0
H703 H 0.47175 0.56897 0.79941 0.0
H704 H 0.58672 0.54941 0.37821 0.0
H705 H 0.59381 0.5483 0.33864 0.0
H706 H 0.48249 0.45753 0.33215 0.0
H707 H 0.47549 0.45799 0.37179 0.0
H708 H 0.61245 0.47641 0.31148 0.0
H709 H 0.44332 0.55363 0.29021 0.0
H710 H 0.46982 0.55599 0.31734 0.0
H711 H 0.4398 0.5093 0.30788 0.0
C712 C 0.56391 0.52903 0.36837 0.0
C713 C 0.53055 0.50374 0.37807 0.0
C714 C 0.5679 0.52859 0.34581 0.0
C715 C 0.53842 0.50312 0.3326 0.0
C716 C 0.50503 0.47787 0.34216 0.0
H717 H 0.56153 0.42573 0.19804 0.0
H718 H 0.56252 0.42929 0.23793 0.0
C719 C 0.50102 0.47824 0.36474 0.0
C720 C 0.54322 0.50246 0.3088 0.0
H721 H 0.48577 0.52563 0.26093 0.0
C722 C 0.58489 0.48726 0.30037 0.0
C723 C 0.50729 0.5171 0.29453 0.0
C724 C 0.46264 0.53528 0.30288 0.0
C725 C 0.59129 0.48566 0.27785 0.0
C726 C 0.55486 0.49926 0.26357 0.0
C727 C 0.5135 0.51507 0.27202 0.0
C728 C 0.55858 0.4972 0.23971 0.0
C729 C 0.63701 0.46988 0.26952 0.0
C730 C 0.55601 0.53421 0.22765 0.0
C731 C 0.55508 0.53227 0.20494 0.0
C732 C 0.5564 0.49321 0.19395 0.0
C733 C 0.56019 0.45621 0.20611 0.0
C734 C 0.56118 0.45821 0.22885 0.0
H735 H 0.66495 0.47011 0.28254 0.0
H736 H 0.63255 0.43705 0.26342 0.0
H737 H 0.6484 0.48927 0.2558 0.0
H738 H 0.55366 0.56455 0.23582 0.0
H739 H 0.55145 0.56126 0.196 0.0
loop_
_geom_bond_atom_site_label_1
_geom_bond_atom_site_label_2
_geom_bond_distance
_geom_bond_site_symmetry_2
_ccdc_geom_bond_type
C0 O16 1.251 . S
C0 O18 1.254 1_554 S
N1 C2 1.333 1_445 S
N1 C6 1.307 . S
N1 Zn7 2.020 . S
C2 N1 1.333 1_665 S
C2 C3 1.379 . S
C2 H20 0.952 . S
C3 C2 1.379 . S
C3 C4 1.390 1_665 S
C3 H30 0.949 . S
C4 C3 1.390 1_445 S
C4 C5 1.357 . S
C5 C4 1.357 . S
C5 C6 1.370 . S
C5 H31 0.950 . S
C6 N1 1.307 . S
C6 C5 1.370 . S
C6 H24 0.948 . S
Zn7 N1 2.020 . S
Zn7 O16 2.039 1_445 S
Zn7 O22 2.034 1_455 S
Zn7 O26 2.025 . S
Zn7 O28 2.024 1_545 S
C8 O27 1.246 1_554 S
C8 O28 1.249 . S
N9 C10 1.307 1_445 S
N9 C11 1.333 . S
N9 Zn15 2.020 . S
C10 N9 1.307 1_665 S
C10 C14 1.370 . S
C10 H21 0.948 . S
C11 N9 1.333 . S
C11 C12 1.379 . S
C11 H19 0.952 . S
C12 C11 1.379 . S
C12 C13 1.390 . S
C12 H32 0.949 . S
C13 C12 1.390 . S
C13 C14 1.357 1_445 S
C14 C10 1.370 . S
C14 C13 1.357 1_665 S
C14 H33 0.950 . S
Zn15 N9 2.020 . S
Zn15 O18 2.025 1_445 S
Zn15 O23 2.024 1_455 S
Zn15 O25 2.039 . S
Zn15 O27 2.034 1_545 S
O16 C0 1.251 . S
O16 Zn7 2.039 1_665 S
C17 O22 1.246 . S
C17 O23 1.249 1_554 S
O18 C0 1.254 1_556 S
O18 Zn15 2.025 1_665 S
H19 C11 0.952 . S
H20 C2 0.952 . S
H21 C10 0.948 . S
O22 Zn7 2.034 1_655 S
O22 C17 1.246 . S
O23 Zn15 2.024 1_655 S
O23 C17 1.249 1_556 S
H24 C6 0.948 . S
O25 Zn15 2.039 . S
O25 C29 1.251 1_556 S
O26 Zn7 2.025 . S
O26 C29 1.254 . S
O27 C8 1.246 1_556 S
O27 Zn15 2.034 1_565 S
O28 Zn7 2.024 1_565 S
O28 C8 1.249 . S
C29 O25 1.251 1_554 S
C29 O26 1.254 . S
H30 C3 0.949 . S
H31 C5 0.950 . S
H32 C12 0.949 . S
H33 C14 0.950 . S
C34 O50 1.251 . S
C34 O52 1.254 . S
N35 C36 1.333 . S
N35 C40 1.307 . S
N35 Zn41 2.020 . S
C36 N35 1.333 . S
C36 C37 1.379 . S
C36 H54 0.952 . S
C37 C36 1.379 . S
C37 C38 1.390 . S
C37 H64 0.949 . S
C38 C37 1.390 . S
C38 C39 1.357 . S
C39 C38 1.357 . S
C39 C40 1.370 . S
C39 H65 0.950 . S
C40 N35 1.307 . S
C40 C39 1.370 . S
C40 H58 0.948 . S
Zn41 N35 2.020 . S
Zn41 O50 2.039 . S
Zn41 O56 2.034 . S
Zn41 O60 2.025 . S
Zn41 O62 2.024 . S
C42 O61 1.246 . S
C42 O62 1.249 . S
N43 C44 1.307 . S
N43 C45 1.333 . S
N43 Zn49 2.020 . S
C44 N43 1.307 . S
C44 C48 1.370 . S
C44 H55 0.948 . S
C45 N43 1.333 . S
C45 C46 1.379 . S
C45 H53 0.952 . S
C46 C45 1.379 . S
C46 C47 1.390 . S
C46 H66 0.949 . S
C47 C46 1.390 . S
C47 C48 1.357 . S
C48 C44 1.370 . S
C48 C47 1.357 . S
C48 H67 0.950 . S
Zn49 N43 2.020 . S
Zn49 O52 2.025 . S
Zn49 O57 2.024 . S
Zn49 O59 2.039 . S
Zn49 O61 2.034 . S
O50 C34 1.251 . S
O50 Zn41 2.039 . S
C51 O56 1.246 . S
C51 O57 1.249 . S
O52 C34 1.254 . S
O52 Zn49 2.025 . S
H53 C45 0.952 . S
H54 C36 0.952 . S
H55 C44 0.948 . S
O56 Zn41 2.034 . S
O56 C51 1.246 . S
O57 Zn49 2.024 . S
O57 C51 1.249 . S
H58 C40 0.948 . S
O59 Zn49 2.039 . S
O59 C63 1.251 . S
O60 Zn41 2.025 . S
O60 C63 1.254 . S
O61 C42 1.246 . S
O61 Zn49 2.034 . S
O62 Zn41 2.024 . S
O62 C42 1.249 . S
C63 O59 1.251 . S
C63 O60 1.254 . S
H64 C37 0.949 . S
H65 C39 0.950 . S
H66 C46 0.949 . S
H67 C48 0.950 . S
C68 C69 1.391 . S
C68 C72 1.391 . S
C68 H110 0.948 . S
C69 C68 1.391 . S
C69 C70 1.391 . S
C70 C69 1.391 . S
C70 H126 0.947 . S
C70 C127 1.392 . S
C71 C72 1.391 . S
C71 C75 1.397 . S
C71 C127 1.419 . S
C72 C68 1.391 . S
C72 C71 1.391 . S
C72 C73 1.399 . S
C73 C72 1.399 . S
C73 C76 1.396 . S
C73 C85 1.453 1_565 S
C73 C86 1.684 1_455 S
H74 C98 0.948 . S
C75 C71 1.397 . S
C75 C76 1.394 . S
C75 C94 1.723 . S
C76 C73 1.396 . S
C76 C75 1.394 . S
C76 C106 1.723 1_465 S
H77 C100 0.947 . S
H78 C101 0.948 . S
H79 C107 0.982 . S
H80 C108 0.979 . S
H81 C108 0.980 . S
H82 C108 0.983 . S
H83 C107 0.979 . S
H84 C107 0.977 . S
C85 C73 1.453 1_545 S
C85 H114 0.982 . S
C85 H115 0.979 1_545 S
C85 H116 0.977 . S
C86 C73 1.684 1_655 S
C86 H111 0.979 . S
C86 H112 0.980 . S
C86 H113 0.983 1_655 S
C87 C88 1.391 1_465 S
C87 C92 1.391 . S
C87 H117 0.948 . S
C88 C87 1.391 1_645 S
C88 C89 1.391 . S
C89 C88 1.391 . S
C89 C90 1.392 . S
C89 H118 0.947 . S
C90 C89 1.392 . S
C90 C91 1.419 . S
C90 H119 0.948 . S
C91 C90 1.419 . S
C91 C92 1.391 1_645 S
C91 C95 1.397 . S
C92 C87 1.391 . S
C92 C91 1.391 1_465 S
C92 C93 1.399 . S
C93 C92 1.399 . S
C93 C94 1.396 . S
C93 C96 1.453 . S
C93 C97 1.684 . S
C94 C75 1.723 . S
C94 C93 1.396 . S
C94 C95 1.394 1_465 S
C95 C91 1.397 . S
C95 C94 1.394 1_645 S
C95 C105 1.723 . S
C96 C93 1.453 . S
C96 H120 0.982 . S
C96 H121 0.979 . S
C96 H122 0.977 . S
C97 C93 1.684 . S
C97 H123 0.979 . S
C97 H124 0.980 . S
C97 H125 0.983 . S
C98 H74 0.948 . S
C98 C99 1.391 . S
C98 C103 1.391 . S
C99 C98 1.391 . S
C99 C100 1.391 . S
C100 H77 0.947 . S
C100 C99 1.391 . S
C100 C101 1.392 . S
C101 H78 0.948 . S
C101 C100 1.392 . S
C101 C102 1.419 . S
C102 C101 1.419 . S
C102 C103 1.391 . S
C102 C106 1.397 . S
C103 C98 1.391 . S
C103 C102 1.391 . S
C103 C104 1.399 . S
C104 C103 1.399 . S
C104 C105 1.396 . S
C104 C107 1.453 . S
C104 C108 1.684 . S
C105 C95 1.723 . S
C105 C104 1.396 . S
C105 C106 1.394 . S
C106 C76 1.723 1_645 S
C106 C102 1.397 . S
C106 C105 1.394 . S
C107 H79 0.982 . S
C107 H83 0.979 . S
C107 H84 0.977 . S
C107 C104 1.453 . S
C108 H80 0.979 . S
C108 H81 0.980 . S
C108 H82 0.983 . S
C108 C104 1.684 . S
H109 C127 0.948 . S
H110 C68 0.948 . S
H111 C86 0.979 . S
H112 C86 0.980 . S
H113 C86 0.983 1_455 S
H114 C85 0.982 . S
H115 C85 0.979 1_565 S
H116 C85 0.977 . S
H117 C87 0.948 . S
H118 C89 0.947 . S
H119 C90 0.948 . S
H120 C96 0.982 . S
H121 C96 0.979 . S
H122 C96 0.977 . S
H123 C97 0.979 . S
H124 C97 0.980 . S
H125 C97 0.983 . S
H126 C70 0.947 . S
C127 C70 1.392 . S
C127 C71 1.419 . S
C127 H109 0.948 . S
C128 C129 1.391 . S
C128 C132 1.391 . S
C128 H170 0.948 . S
C129 C128 1.391 . S
C129 C130 1.391 . S
C130 C129 1.391 . S
C130 H186 0.947 . S
C130 C187 1.392 . S
C131 C132 1.391 . S
C131 C135 1.397 . S
C131 C187 1.419 . S
C132 C128 1.391 . S
C132 C131 1.391 . S
C132 C133 1.399 . S
C133 C132 1.399 . S
C133 C136 1.396 . S
C133 C145 1.453 . S
C133 C146 1.684 . S
H134 C158 0.948 . S
C135 C131 1.397 . S
C135 C136 1.394 . S
C135 C154 1.723 . S
C136 C133 1.396 . S
C136 C135 1.394 . S
C136 C166 1.723 1_445 S
H137 C160 0.947 . S
H138 C161 0.948 . S
H139 C167 0.982 . S
H140 C168 0.979 . S
H141 C168 0.980 . S
H142 C168 0.983 . S
H143 C167 0.979 . S
H144 C167 0.977 . S
C145 C133 1.453 . S
C145 H174 0.982 1_545 S
C145 H175 0.979 . S
C145 H176 0.977 1_545 S
C146 C133 1.684 . S
C146 H171 0.979 1_455 S
C146 H172 0.980 1_455 S
C146 H173 0.983 . S
C147 C148 1.391 . S
C147 C152 1.391 . S
C147 H177 0.948 . S
C148 C147 1.391 . S
C148 C149 1.391 1_445 S
C149 C148 1.391 1_665 S
C149 C150 1.392 . S
C149 H178 0.947 . S
C150 C149 1.392 . S
C150 C151 1.416 1_665 S
C150 H179 0.948 . S
C151 C150 1.416 1_445 S
C151 C152 1.395 . S
C151 C155 1.397 . S
C152 C147 1.391 . S
C152 C151 1.395 . S
C152 C153 1.399 . S
C153 C152 1.399 . S
C153 C154 1.396 . S
C153 C156 1.453 . S
C153 C157 1.684 . S
C154 C135 1.723 . S
C154 C153 1.396 . S
C154 C155 1.394 . S
C155 C151 1.397 . S
C155 C154 1.394 . S
C155 C165 1.723 1_445 S
C156 C153 1.453 . S
C156 H180 0.982 . S
C156 H181 0.979 . S
C156 H182 0.977 . S
C157 C153 1.684 . S
C157 H183 0.979 . S
C157 H184 0.980 . S
C157 H185 0.983 . S
C158 H134 0.948 . S
C158 C159 1.391 . S
C158 C163 1.391 . S
C159 C158 1.391 . S
C159 C160 1.391 . S
C160 H137 0.947 . S
C160 C159 1.391 . S
C160 C161 1.392 . S
C161 H138 0.948 . S
C161 C160 1.392 . S
C161 C162 1.419 . S
C162 C161 1.419 . S
C162 C163 1.391 . S
C162 C166 1.397 . S
C163 C158 1.391 . S
C163 C162 1.391 . S
C163 C164 1.399 . S
C164 C163 1.399 . S
C164 C165 1.396 . S
C164 C167 1.453 . S
C164 C168 1.684 . S
C165 C155 1.723 1_665 S
C165 C164 1.396 . S
C165 C166 1.394 . S
C166 C136 1.723 1_665 S
C166 C162 1.397 . S
C166 C165 1.394 . S
C167 H139 0.982 . S
C167 H143 0.979 . S
C167 H144 0.977 . S
C167 C164 1.453 . S
C168 H140 0.979 . S
C168 H141 0.980 . S
C168 H142 0.983 . S
C168 C164 1.684 . S
H169 C187 0.948 . S
H170 C128 0.948 . S
H171 C146 0.979 1_655 S
H172 C146 0.980 1_655 S
H173 C146 0.983 . S
H174 C145 0.982 1_565 S
H175 C145 0.979 . S
H176 C145 0.977 1_565 S
H177 C147 0.948 . S
H178 C149 0.947 . S
H179 C150 0.948 . S
H180 C156 0.982 . S
H181 C156 0.979 . S
H182 C156 0.977 . S
H183 C157 0.979 . S
H184 C157 0.980 . S
H185 C157 0.983 . S
H186 C130 0.947 . S
C187 C130 1.392 . S
C187 C131 1.419 . S
C187 H169 0.948 . S
C188 C189 1.391 . S
C188 C192 1.391 . S
C188 H230 0.948 1_556 S
C189 C188 1.391 . S
C189 C190 1.391 . S
C190 C189 1.391 . S
C190 H246 0.947 . S
C190 C247 1.392 . S
C191 C192 1.391 . S
C191 C195 1.397 . S
C191 C247 1.419 . S
C192 C188 1.391 . S
C192 C191 1.391 . S
C192 C193 1.399 . S
C193 C192 1.399 . S
C193 C196 1.396 . S
C193 C205 1.453 . S
C193 C206 1.704 . S
H194 C218 0.948 . S
C195 C191 1.397 . S
C195 C196 1.394 . S
C195 C214 1.723 . S
C196 C193 1.396 . S
C196 C195 1.394 . S
C196 C226 1.723 . S
H197 C220 0.947 1_554 S
H198 C221 0.948 . S
H199 C227 0.982 . S
H200 C228 0.979 . S
H201 C228 0.980 . S
H202 C228 0.983 . S
H203 C227 0.979 . S
H204 C227 0.977 . S
C205 C193 1.453 . S
C205 H234 0.982 . S
C205 H235 0.979 1_556 S
C205 H236 0.977 . S
C206 C193 1.704 . S
C206 H231 0.986 . S
C206 H232 0.975 1_556 S
C206 H233 0.961 1_556 S
C207 C208 1.391 . S
C207 C212 1.391 . S
C207 H237 0.948 . S
C208 C207 1.391 . S
C208 C209 1.391 . S
C209 C208 1.391 . S
C209 C210 1.392 . S
C209 H238 0.947 . S
C210 C209 1.392 . S
C210 C211 1.419 . S
C210 H239 0.948 . S
C211 C210 1.419 . S
C211 C212 1.391 . S
C211 C215 1.397 . S
C212 C207 1.391 . S
C212 C211 1.391 . S
C212 C213 1.399 . S
C213 C212 1.399 . S
C213 C214 1.396 . S
C213 C216 1.453 . S
C213 C217 1.684 . S
C214 C195 1.723 . S
C214 C213 1.396 . S
C214 C215 1.394 . S
C215 C211 1.397 . S
C215 C214 1.394 . S
C215 C225 1.723 . S
C216 C213 1.453 . S
C216 H240 0.982 . S
C216 H241 0.979 . S
C216 H242 0.977 . S
C217 C213 1.684 . S
C217 H243 0.979 . S
C217 H244 0.980 . S
C217 H245 0.983 . S
C218 H194 0.948 . S
C218 C219 1.391 . S
C218 C223 1.391 . S
C219 C218 1.391 . S
C219 C220 1.391 . S
C220 H197 0.947 1_556 S
C220 C219 1.391 . S
C220 C221 1.392 . S
C221 H198 0.948 . S
C221 C220 1.392 . S
C221 C222 1.419 . S
C222 C221 1.419 . S
C222 C223 1.391 . S
C222 C226 1.397 . S
C223 C218 1.391 . S
C223 C222 1.391 . S
C223 C224 1.399 . S
C224 C223 1.399 . S
C224 C225 1.396 . S
C224 C227 1.453 . S
C224 C228 1.684 . S
C225 C215 1.723 . S
C225 C224 1.396 . S
C225 C226 1.394 . S
C226 C196 1.723 . S
C226 C222 1.397 . S
C226 C225 1.394 . S
C227 H199 0.982 . S
C227 H203 0.979 . S
C227 H204 0.977 . S
C227 C224 1.453 . S
C228 H200 0.979 . S
C228 H201 0.980 . S
C228 H202 0.983 . S
C228 C224 1.684 . S
H229 C247 0.948 . S
H230 C188 0.948 1_554 S
H231 C206 0.986 . S
H232 C206 0.975 1_554 S
H233 C206 0.961 1_554 S
H234 C205 0.982 . S
H235 C205 0.979 1_554 S
H236 C205 0.977 . S
H237 C207 0.948 . S
H238 C209 0.947 . S
H239 C210 0.948 . S
H240 C216 0.982 . S
H241 C216 0.979 . S
H242 C216 0.977 . S
H243 C217 0.979 . S
H244 C217 0.980 . S
H245 C217 0.983 . S
H246 C190 0.947 . S
C247 C190 1.392 . S
C247 C191 1.419 . S
C247 H229 0.948 . S
C248 C249 1.391 . S
C248 C252 1.391 . S
C248 H290 0.948 . S
C249 C248 1.391 . S
C249 C250 1.391 . S
C250 C249 1.391 . S
C250 H306 0.947 . S
C250 C307 1.392 . S
C251 C252 1.391 . S
C251 C255 1.397 . S
C251 C307 1.419 . S
C252 C248 1.391 . S
C252 C251 1.391 . S
C252 C253 1.399 . S
C253 C252 1.399 . S
C253 C256 1.396 . S
C253 C265 1.453 . S
C253 C266 1.684 . S
H254 C278 0.948 . S
C255 C251 1.397 . S
C255 C256 1.394 . S
C255 C274 1.723 . S
C256 C253 1.396 . S
C256 C255 1.394 . S
C256 C286 1.723 . S
H257 C280 0.947 1_556 S
H258 C281 0.948 . S
H259 C287 0.982 . S
H260 C288 0.979 . S
H261 C288 0.980 . S
H262 C288 0.983 . S
H263 C287 0.979 . S
H264 C287 0.977 . S
C265 C253 1.453 . S
C265 H294 0.982 . S
C265 H295 0.974 1_554 S
C265 H296 0.977 . S
C266 C253 1.684 . S
C266 H291 0.979 . S
C266 H292 0.980 . S
C266 H293 0.983 1_554 S
C267 C268 1.391 . S
C267 C272 1.391 . S
C267 H297 0.948 . S
C268 C267 1.391 . S
C268 C269 1.391 . S
C269 C268 1.391 . S
C269 C270 1.392 . S
C269 H298 0.947 . S
C270 C269 1.392 . S
C270 C271 1.419 . S
C270 H299 0.948 . S
C271 C270 1.419 . S
C271 C272 1.391 . S
C271 C275 1.397 . S
C272 C267 1.391 . S
C272 C271 1.391 . S
C272 C273 1.399 . S
C273 C272 1.399 . S
C273 C274 1.396 . S
C273 C276 1.453 . S
C273 C277 1.684 . S
C274 C255 1.723 . S
C274 C273 1.396 . S
C274 C275 1.394 . S
C275 C271 1.397 . S
C275 C274 1.394 . S
C275 C285 1.723 . S
C276 C273 1.453 . S
C276 H300 0.982 . S
C276 H301 0.979 . S
C276 H302 0.977 . S
C277 C273 1.684 . S
C277 H303 0.979 . S
C277 H304 0.980 . S
C277 H305 0.983 . S
C278 H254 0.948 . S
C278 C279 1.391 . S
C278 C283 1.391 . S
C279 C278 1.391 . S
C279 C280 1.391 . S
C280 H257 0.947 1_554 S
C280 C279 1.391 . S
C280 C281 1.392 . S
C281 H258 0.948 . S
C281 C280 1.392 . S
C281 C282 1.419 . S
C282 C281 1.419 . S
C282 C283 1.391 . S
C282 C286 1.397 . S
C283 C278 1.391 . S
C283 C282 1.391 . S
C283 C284 1.399 . S
C284 C283 1.399 . S
C284 C285 1.396 . S
C284 C287 1.453 . S
C284 C288 1.684 . S
C285 C275 1.723 . S
C285 C284 1.396 . S
C285 C286 1.394 . S
C286 C256 1.723 . S
C286 C282 1.397 . S
C286 C285 1.394 . S
C287 H259 0.982 . S
C287 H263 0.979 . S
C287 H264 0.977 . S
C287 C284 1.453 . S
C288 H260 0.979 . S
C288 H261 0.980 . S
C288 H262 0.983 . S
C288 C284 1.684 . S
H289 C307 0.948 . S
H290 C248 0.948 . S
H291 C266 0.979 . S
H292 C266 0.980 . S
H293 C266 0.983 1_556 S
H294 C265 0.982 . S
H295 C265 0.974 1_556 S
H296 C265 0.977 . S
H297 C267 0.948 . S
H298 C269 0.947 . S
H299 C270 0.948 . S
H300 C276 0.982 . S
H301 C276 0.979 . S
H302 C276 0.977 . S
H303 C277 0.979 . S
H304 C277 0.980 . S
H305 C277 0.983 . S
H306 C250 0.947 . S
C307 C250 1.392 . S
C307 C251 1.419 . S
C307 H289 0.948 . S
H308 C316 0.929 . S
H309 C318 0.930 . S
H310 C320 0.930 . S
H311 C323 0.929 . S
H312 C326 0.930 1_556 S
H313 C328 0.960 . S
H314 C328 0.960 . S
H315 C328 0.960 . S
C316 H308 0.929 . S
C316 C317 1.377 . S
C316 C318 1.384 . S
C317 C316 1.377 . S
C317 C323 1.390 1_554 S
C318 H309 0.930 . S
C318 C316 1.384 . S
C318 C319 1.372 . S
C319 C318 1.372 . S
C319 C320 1.400 1_554 S
C319 C324 1.490 . S
C320 H310 0.930 . S
C320 C319 1.400 1_556 S
C320 C323 1.386 . S
H321 C337 0.930 1_556 S
H322 C338 0.917 1_556 S
C323 H311 0.929 . S
C323 C317 1.390 1_556 S
C323 C320 1.386 . S
C324 C319 1.490 . S
C324 C326 1.395 . S
C324 C327 1.403 . S
H325 C331 0.930 . S
C326 H312 0.930 1_554 S
C326 C324 1.395 . S
C326 C329 1.403 . S
C327 C324 1.403 . S
C327 C328 1.524 . S
C327 C331 1.400 . S
C328 H313 0.960 . S
C328 H314 0.960 . S
C328 H315 0.960 . S
C328 C327 1.524 . S
C329 C326 1.403 . S
C329 C330 1.392 . S
C329 C333 1.495 1_554 S
C330 C329 1.392 . S
C330 C331 1.385 . S
C330 C332 1.478 . S
C331 H325 0.930 . S
C331 C327 1.400 . S
C331 C330 1.385 . S
C332 C330 1.478 . S
C332 C334 1.381 . S
C332 C338 1.395 . S
C333 C329 1.495 1_556 S
C333 H339 0.959 . S
C333 H340 0.961 . S
C333 H341 0.960 1_556 S
C334 C332 1.381 . S
C334 C335 1.394 . S
C334 H342 0.930 . S
C335 C334 1.394 . S
C335 C336 1.383 . S
C335 H343 0.929 . S
C336 C335 1.383 . S
C336 C337 1.377 . S
C337 H321 0.930 1_554 S
C337 C336 1.377 . S
C337 C338 1.381 . S
C338 H322 0.917 1_554 S
C338 C332 1.395 . S
C338 C337 1.381 . S
H339 C333 0.959 . S
H340 C333 0.961 . S
H341 C333 0.960 1_554 S
H342 C334 0.930 . S
H343 C335 0.929 . S
H344 C352 0.929 . S
H345 C354 0.930 . S
H346 C356 0.930 . S
H347 C359 0.929 . S
H348 C362 0.930 . S
H349 C364 0.964 . S
H350 C364 0.960 . S
H351 C364 0.960 1_554 S
C352 H344 0.929 . S
C352 C353 1.377 1_556 S
C352 C354 1.384 . S
C353 C352 1.377 1_554 S
C353 C359 1.390 . S
C354 H345 0.930 . S
C354 C352 1.384 . S
C354 C355 1.372 . S
C355 C354 1.372 . S
C355 C356 1.400 1_556 S
C355 C360 1.490 . S
C356 H346 0.930 . S
C356 C355 1.400 1_554 S
C356 C359 1.386 . S
H357 C373 0.930 . S
H358 C374 0.931 . S
C359 H347 0.929 . S
C359 C353 1.390 . S
C359 C356 1.386 . S
C360 C355 1.490 . S
C360 C362 1.395 . S
C360 C363 1.403 . S
H361 C367 0.930 . S
C362 H348 0.930 . S
C362 C360 1.395 . S
C362 C365 1.403 . S
C363 C360 1.403 . S
C363 C364 1.524 . S
C363 C367 1.400 . S
C364 H349 0.964 . S
C364 H350 0.960 . S
C364 H351 0.960 1_556 S
C364 C363 1.524 . S
C365 C362 1.403 . S
C365 C366 1.392 . S
C365 C369 1.495 . S
C366 C365 1.392 . S
C366 C367 1.385 . S
C366 C368 1.478 . S
C367 H361 0.930 . S
C367 C363 1.400 . S
C367 C366 1.385 . S
C368 C366 1.478 . S
C368 C370 1.381 . S
C368 C374 1.383 1_556 S
C369 C365 1.495 . S
C369 H375 0.959 . S
C369 H376 0.983 . S
C369 H377 0.960 . S
C370 C368 1.381 . S
C370 C371 1.394 . S
C370 H378 0.930 . S
C371 C370 1.394 . S
C371 C372 1.383 . S
C371 H379 0.929 . S
C372 C371 1.383 . S
C372 C373 1.377 1_556 S
C373 H357 0.930 . S
C373 C372 1.377 1_554 S
C373 C374 1.379 . S
C374 H358 0.931 . S
C374 C368 1.383 1_554 S
C374 C373 1.379 . S
H375 C369 0.959 . S
H376 C369 0.983 . S
H377 C369 0.960 . S
H378 C370 0.930 . S
H379 C371 0.929 . S
H380 C388 0.929 . S
H381 C390 0.930 . S
H382 C392 0.930 . S
H383 C395 0.929 . S
H384 C398 0.930 1_556 S
H385 C400 0.960 . S
H386 C400 0.960 . S
H387 C400 0.960 . S
C388 H380 0.929 . S
C388 C389 1.377 1_556 S
C388 C390 1.384 . S
C389 C388 1.377 1_554 S
C389 C395 1.390 . S
C390 H381 0.930 . S
C390 C388 1.384 . S
C390 C391 1.372 1_556 S
C391 C390 1.372 1_554 S
C391 C392 1.400 . S
C391 C396 1.490 . S
C392 H382 0.930 . S
C392 C391 1.400 . S
C392 C395 1.386 . S
H393 C409 0.930 . S
H394 C410 0.931 . S
C395 H383 0.929 . S
C395 C389 1.390 . S
C395 C392 1.386 . S
C396 C391 1.490 . S
C396 C398 1.395 . S
C396 C399 1.403 . S
H397 C403 0.930 . S
C398 H384 0.930 1_554 S
C398 C396 1.395 . S
C398 C401 1.403 . S
C399 C396 1.403 . S
C399 C400 1.524 . S
C399 C403 1.400 . S
C400 H385 0.960 . S
C400 H386 0.960 . S
C400 H387 0.960 . S
C400 C399 1.524 . S
C401 C398 1.403 . S
C401 C402 1.392 . S
C401 C405 1.495 1_554 S
C402 C401 1.392 . S
C402 C403 1.385 . S
C402 C404 1.478 . S
C403 H397 0.930 . S
C403 C399 1.400 . S
C403 C402 1.385 . S
C404 C402 1.478 . S
C404 C406 1.381 1_554 S
C404 C410 1.383 . S
C405 C401 1.495 1_556 S
C405 H411 0.959 . S
C405 H412 0.961 1_556 S
C405 H413 0.960 . S
C406 C404 1.381 1_556 S
C406 C407 1.396 . S
C406 H414 0.930 . S
C407 C406 1.396 . S
C407 C408 1.375 1_556 S
C407 H415 0.936 . S
C408 C407 1.375 1_554 S
C408 C409 1.377 . S
C409 H393 0.930 . S
C409 C408 1.377 . S
C409 C410 1.379 . S
C410 H394 0.931 . S
C410 C404 1.383 . S
C410 C409 1.379 . S
H411 C405 0.959 . S
H412 C405 0.961 1_554 S
H413 C405 0.960 . S
H414 C406 0.930 . S
H415 C407 0.936 . S
H416 C424 0.929 . S
H417 C426 0.930 . S
H418 C428 0.930 . S
H419 C431 0.929 . S
H420 C434 0.930 . S
H421 C436 0.960 . S
H422 C436 0.960 . S
H423 C436 0.960 . S
C424 H416 0.929 . S
C424 C425 1.377 1_556 S
C424 C426 1.384 . S
C425 C424 1.377 1_554 S
C425 C431 1.390 . S
C426 H417 0.930 . S
C426 C424 1.384 . S
C426 C427 1.372 . S
C427 C426 1.372 . S
C427 C428 1.400 1_556 S
C427 C432 1.490 . S
C428 H418 0.930 . S
C428 C427 1.400 1_554 S
C428 C431 1.386 . S
H429 C445 0.930 . S
H430 C446 0.931 . S
C431 H419 0.929 . S
C431 C425 1.390 . S
C431 C428 1.386 . S
C432 C427 1.490 . S
C432 C434 1.395 1_556 S
C432 C435 1.403 . S
H433 C439 0.930 . S
C434 H420 0.930 . S
C434 C432 1.395 1_554 S
C434 C437 1.403 . S
C435 C432 1.403 . S
C435 C436 1.524 . S
C435 C439 1.400 . S
C436 H421 0.960 . S
C436 H422 0.960 . S
C436 H423 0.960 . S
C436 C435 1.524 . S
C437 C434 1.403 . S
C437 C438 1.392 1_554 S
C437 C441 1.495 . S
C438 C437 1.392 1_556 S
C438 C439 1.385 . S
C438 C440 1.478 . S
C439 H433 0.930 . S
C439 C435 1.400 . S
C439 C438 1.385 . S
C440 C438 1.478 . S
C440 C442 1.381 . S
C440 C446 1.383 1_556 S
C441 C437 1.495 . S
C441 H447 0.959 . S
C441 H448 0.961 . S
C441 H449 0.960 1_554 S
C442 C440 1.381 . S
C442 C443 1.394 . S
C442 H450 0.930 . S
C443 C442 1.394 . S
C443 C444 1.383 . S
C443 H451 0.929 . S
C444 C443 1.383 . S
C444 C445 1.377 1_556 S
C445 H429 0.930 . S
C445 C444 1.377 1_554 S
C445 C446 1.379 . S
C446 H430 0.931 . S
C446 C440 1.383 1_554 S
C446 C445 1.379 . S
H447 C441 0.959 . S
H448 C441 0.961 . S
H449 C441 0.960 1_556 S
H450 C442 0.930 . S
H451 C443 0.929 . S
H452 C460 0.929 . S
H453 C462 0.930 . S
H454 C464 0.930 . S
H455 C467 0.929 . S
H456 C470 0.930 . S
H457 C472 0.960 . S
H458 C472 0.960 . S
H459 C472 0.960 . S
C460 H452 0.929 . S
C460 C461 1.377 . S
C460 C462 1.384 . S
C461 C460 1.377 . S
C461 C467 1.390 . S
C462 H453 0.930 . S
C462 C460 1.384 . S
C462 C463 1.372 . S
C463 C462 1.372 . S
C463 C464 1.400 . S
C463 C468 1.490 . S
C464 H454 0.930 . S
C464 C463 1.400 . S
C464 C467 1.386 . S
H465 C481 0.930 . S
H466 C482 0.931 . S
C467 H455 0.929 . S
C467 C461 1.390 . S
C467 C464 1.386 . S
C468 C463 1.490 . S
C468 C470 1.395 . S
C468 C471 1.403 . S
H469 C475 0.930 . S
C470 H456 0.930 . S
C470 C468 1.395 . S
C470 C473 1.403 . S
C471 C468 1.403 . S
C471 C472 1.524 . S
C471 C475 1.400 . S
C472 H457 0.960 . S
C472 H458 0.960 . S
C472 H459 0.960 . S
C472 C471 1.524 . S
C473 C470 1.403 . S
C473 C474 1.392 . S
C473 C477 1.495 . S
C474 C473 1.392 . S
C474 C475 1.385 . S
C474 C476 1.478 . S
C475 H469 0.930 . S
C475 C471 1.400 . S
C475 C474 1.385 . S
C476 C474 1.478 . S
C476 C478 1.381 . S
C476 C482 1.383 . S
C477 C473 1.495 . S
C477 H483 0.959 . S
C477 H484 0.961 . S
C477 H485 0.960 . S
C478 C476 1.381 . S
C478 C479 1.394 . S
C478 H486 0.930 . S
C479 C478 1.394 . S
C479 C480 1.383 . S
C479 H487 0.929 . S
C480 C479 1.383 . S
C480 C481 1.377 . S
C481 H465 0.930 . S
C481 C480 1.377 . S
C481 C482 1.379 . S
C482 H466 0.931 . S
C482 C476 1.383 . S
C482 C481 1.379 . S
H483 C477 0.959 . S
H484 C477 0.961 . S
H485 C477 0.960 . S
H486 C478 0.930 . S
H487 C479 0.929 . S
H488 C496 0.929 . S
H489 C498 0.930 . S
H490 C500 0.930 . S
H491 C503 0.929 . S
H492 C506 0.930 . S
H493 C508 0.960 . S
H494 C508 0.960 . S
H495 C508 0.960 . S
C496 H488 0.929 . S
C496 C497 1.377 . S
C496 C498 1.384 . S
C497 C496 1.377 . S
C497 C503 1.390 . S
C498 H489 0.930 . S
C498 C496 1.384 . S
C498 C499 1.372 . S
C499 C498 1.372 . S
C499 C500 1.400 . S
C499 C504 1.490 . S
C500 H490 0.930 . S
C500 C499 1.400 . S
C500 C503 1.386 . S
H501 C517 0.930 . S
H502 C518 0.931 . S
C503 H491 0.929 . S
C503 C497 1.390 . S
C503 C500 1.386 . S
C504 C499 1.490 . S
C504 C506 1.395 . S
C504 C507 1.403 . S
H505 C511 0.930 . S
C506 H492 0.930 . S
C506 C504 1.395 . S
C506 C509 1.403 . S
C507 C504 1.403 . S
C507 C508 1.524 . S
C507 C511 1.400 . S
C508 H493 0.960 . S
C508 H494 0.960 . S
C508 H495 0.960 . S
C508 C507 1.524 . S
C509 C506 1.403 . S
C509 C510 1.392 . S
C509 C513 1.495 . S
C510 C509 1.392 . S
C510 C511 1.385 . S
C510 C512 1.478 . S
C511 H505 0.930 . S
C511 C507 1.400 . S
C511 C510 1.385 . S
C512 C510 1.478 . S
C512 C514 1.381 . S
C512 C518 1.383 . S
C513 C509 1.495 . S
C513 H519 0.959 . S
C513 H520 0.961 . S
C513 H521 0.960 . S
C514 C512 1.381 . S
C514 C515 1.394 . S
C514 H522 0.930 . S
C515 C514 1.394 . S
C515 C516 1.383 . S
C515 H523 0.929 . S
C516 C515 1.383 . S
C516 C517 1.377 . S
C517 H501 0.930 . S
C517 C516 1.377 . S
C517 C518 1.379 . S
C518 H502 0.931 . S
C518 C512 1.383 . S
C518 C517 1.379 . S
H519 C513 0.959 . S
H520 C513 0.961 . S
H521 C513 0.960 . S
H522 C514 0.930 . S
H523 C515 0.929 . S
H524 C532 0.929 . S
H525 C534 0.930 . S
H526 C536 0.930 . S
H527 C539 0.929 . S
H528 C542 0.930 . S
H529 C544 0.960 . S
H530 C544 0.960 . S
H531 C544 0.960 . S
C532 H524 0.929 . S
C532 C533 1.377 . S
C532 C534 1.384 . S
C533 C532 1.377 . S
C533 C539 1.390 . S
C534 H525 0.930 . S
C534 C532 1.384 . S
C534 C535 1.372 . S
C535 C534 1.372 . S
C535 C536 1.400 . S
C535 C540 1.490 . S
C536 H526 0.930 . S
C536 C535 1.400 . S
C536 C539 1.386 . S
H537 C553 0.930 . S
H538 C554 0.931 . S
C539 H527 0.929 . S
C539 C533 1.390 . S
C539 C536 1.386 . S
C540 C535 1.490 . S
C540 C542 1.395 . S
C540 C543 1.403 . S
H541 C547 0.930 . S
C542 H528 0.930 . S
C542 C540 1.395 . S
C542 C545 1.403 . S
C543 C540 1.403 . S
C543 C544 1.524 . S
C543 C547 1.400 . S
C544 H529 0.960 . S
C544 H530 0.960 . S
C544 H531 0.960 . S
C544 C543 1.524 . S
C545 C542 1.403 . S
C545 C546 1.392 . S
C545 C549 1.495 . S
C546 C545 1.392 . S
C546 C547 1.385 . S
C546 C548 1.478 . S
C547 H541 0.930 . S
C547 C543 1.400 . S
C547 C546 1.385 . S
C548 C546 1.478 . S
C548 C550 1.381 . S
C548 C554 1.383 . S
C549 C545 1.495 . S
C549 H555 0.959 . S
C549 H556 0.961 . S
C549 H557 0.960 . S
C550 C548 1.381 . S
C550 C551 1.394 . S
C550 H558 0.930 . S
C551 C550 1.394 . S
C551 C552 1.383 . S
C551 H559 0.929 . S
C552 C551 1.383 . S
C552 C553 1.377 . S
C553 H537 0.930 . S
C553 C552 1.377 . S
C553 C554 1.379 . S
C554 H538 0.931 . S
C554 C548 1.383 . S
C554 C553 1.379 . S
H555 C549 0.959 . S
H556 C549 0.961 . S
H557 C549 0.960 . S
H558 C550 0.930 . S
H559 C551 0.929 . S
H560 C568 0.929 . S
H561 C570 0.930 . S
H562 C572 0.930 . S
H563 C575 0.929 . S
H564 C578 0.930 . S
H565 C580 0.960 . S
H566 C580 0.960 . S
H567 C580 0.960 . S
C568 H560 0.929 . S
C568 C569 1.377 . S
C568 C570 1.384 . S
C569 C568 1.377 . S
C569 C575 1.390 . S
C570 H561 0.930 . S
C570 C568 1.384 . S
C570 C571 1.372 . S
C571 C570 1.372 . S
C571 C572 1.400 . S
C571 C576 1.490 . S
C572 H562 0.930 . S
C572 C571 1.400 . S
C572 C575 1.386 . S
H573 C589 0.930 . S
H574 C590 0.931 . S
C575 H563 0.929 . S
C575 C569 1.390 . S
C575 C572 1.386 . S
C576 C571 1.490 . S
C576 C578 1.395 . S
C576 C579 1.403 . S
H577 C583 0.930 . S
C578 H564 0.930 . S
C578 C576 1.395 . S
C578 C581 1.403 . S
C579 C576 1.403 . S
C579 C580 1.524 . S
C579 C583 1.400 . S
C580 H565 0.960 . S
C580 H566 0.960 . S
C580 H567 0.960 . S
C580 C579 1.524 . S
C581 C578 1.403 . S
C581 C582 1.392 . S
C581 C585 1.495 . S
C582 C581 1.392 . S
C582 C583 1.385 . S
C582 C584 1.478 . S
C583 H577 0.930 . S
C583 C579 1.400 . S
C583 C582 1.385 . S
C584 C582 1.478 . S
C584 C586 1.381 . S
C584 C590 1.383 . S
C585 C581 1.495 . S
C585 H591 0.959 . S
C585 H592 0.961 . S
C585 H593 0.960 . S
C586 C584 1.381 . S
C586 C587 1.394 . S
C586 H594 0.930 . S
C587 C586 1.394 . S
C587 C588 1.383 . S
C587 H595 0.929 . S
C588 C587 1.383 . S
C588 C589 1.377 . S
C589 H573 0.930 . S
C589 C588 1.377 . S
C589 C590 1.379 . S
C590 H574 0.931 . S
C590 C584 1.383 . S
C590 C589 1.379 . S
H591 C585 0.959 . S
H592 C585 0.961 . S
H593 C585 0.960 . S
H594 C586 0.930 . S
H595 C587 0.929 . S
H596 C604 0.929 . S
H597 C606 0.930 . S
H598 C608 0.930 . S
H599 C611 0.929 . S
H600 C614 0.930 . S
H601 C616 0.960 . S
H602 C616 0.960 . S
H603 C616 0.960 . S
C604 H596 0.929 . S
C604 C605 1.377 1_655 S
C604 C606 1.384 . S
C605 C604 1.377 1_455 S
C605 C611 1.390 1_545 S
C606 H597 0.930 . S
C606 C604 1.384 . S
C606 C607 1.372 1_655 S
C607 C606 1.372 1_455 S
C607 C608 1.400 1_545 S
C607 C612 1.490 . S
C608 H598 0.930 . S
C608 C607 1.400 1_565 S
C608 C611 1.386 . S
H609 C625 0.930 . S
H610 C626 0.931 . S
C611 H599 0.929 . S
C611 C605 1.390 1_565 S
C611 C608 1.386 . S
C612 C607 1.490 . S
C612 C614 1.395 1_445 S
C612 C615 1.403 . S
H613 C619 0.930 . S
C614 H600 0.930 . S
C614 C612 1.395 1_665 S
C614 C617 1.403 . S
C615 C612 1.403 . S
C615 C616 1.524 . S
C615 C619 1.400 . S
C616 H601 0.960 . S
C616 H602 0.960 . S
C616 H603 0.960 . S
C616 C615 1.524 . S
C617 C614 1.403 . S
C617 C618 1.392 1_565 S
C617 C621 1.495 . S
C618 C617 1.392 1_545 S
C618 C619 1.385 1_655 S
C618 C620 1.478 1_545 S
C619 H613 0.930 . S
C619 C615 1.400 . S
C619 C618 1.385 1_455 S
C620 C618 1.478 1_565 S
C620 C622 1.383 1_565 S
C620 C626 1.381 1_655 S
C621 C617 1.495 . S
C621 H627 0.959 . S
C621 H628 0.961 . S
C621 H629 0.951 1_565 S
C622 C620 1.383 1_545 S
C622 C623 1.394 . S
C622 H630 0.930 . S
C623 C622 1.394 . S
C623 C624 1.383 . S
C623 H631 0.929 . S
C624 C623 1.383 . S
C624 C625 1.377 1_645 S
C625 H609 0.930 . S
C625 C624 1.377 1_465 S
C625 C626 1.379 . S
C626 H610 0.931 . S
C626 C620 1.381 1_455 S
C626 C625 1.379 . S
H627 C621 0.959 . S
H628 C621 0.961 . S
H629 C621 0.951 1_545 S
H630 C622 0.930 . S
H631 C623 0.929 . S
H632 C640 0.929 . S
H633 C642 0.930 . S
H634 C644 0.930 . S
H635 C647 0.929 . S
H636 C650 0.930 . S
H637 C652 0.960 . S
H638 C652 0.960 . S
H639 C652 0.960 . S
C640 H632 0.929 . S
C640 C641 1.377 . S
C640 C642 1.384 . S
C641 C640 1.377 . S
C641 C647 1.390 1_455 S
C642 H633 0.930 . S
C642 C640 1.384 . S
C642 C643 1.372 . S
C643 C642 1.372 . S
C643 C644 1.400 1_455 S
C643 C648 1.490 . S
C644 H634 0.930 . S
C644 C643 1.400 1_655 S
C644 C647 1.386 . S
H645 C661 0.934 . S
H646 C662 0.931 . S
C647 H635 0.929 . S
C647 C641 1.390 1_655 S
C647 C644 1.386 . S
C648 C643 1.490 . S
C648 C650 1.395 1_545 S
C648 C651 1.393 1_455 S
H649 C655 0.930 1_655 S
C650 H636 0.930 . S
C650 C648 1.395 1_565 S
C650 C653 1.403 . S
C651 C648 1.393 1_655 S
C651 C652 1.535 . S
C651 C655 1.398 1_655 S
C652 H637 0.960 . S
C652 H638 0.960 . S
C652 H639 0.960 . S
C652 C651 1.535 . S
C653 C650 1.403 . S
C653 C654 1.392 1_565 S
C653 C657 1.495 . S
C654 C653 1.392 1_545 S
C654 C655 1.385 . S
C654 C656 1.478 . S
C655 H649 0.930 1_455 S
C655 C651 1.398 1_455 S
C655 C654 1.385 . S
C656 C654 1.478 . S
C656 C658 1.381 . S
C656 C662 1.383 1_445 S
C657 C653 1.495 . S
C657 H663 0.959 . S
C657 H664 0.961 . S
C657 H665 0.960 . S
C658 C656 1.381 . S
C658 C659 1.394 . S
C658 H666 0.930 . S
C659 C658 1.394 . S
C659 C660 1.383 . S
C659 H667 0.929 . S
C660 C659 1.383 . S
C660 C661 1.371 1_445 S
C661 H645 0.934 . S
C661 C660 1.371 1_665 S
C661 C662 1.382 . S
C662 H646 0.931 . S
C662 C656 1.383 1_665 S
C662 C661 1.382 . S
H663 C657 0.959 . S
H664 C657 0.961 . S
H665 C657 0.960 . S
H666 C658 0.930 . S
H667 C659 0.929 . S
H668 C676 0.929 . S
H669 C678 0.930 . S
H670 C680 0.930 . S
H671 C683 0.929 . S
H672 C686 0.930 . S
H673 C688 0.960 . S
H674 C688 0.960 . S
H675 C688 0.960 . S
C676 H668 0.929 . S
C676 C677 1.377 . S
C676 C678 1.384 . S
C677 C676 1.377 . S
C677 C683 1.390 . S
C678 H669 0.930 . S
C678 C676 1.384 . S
C678 C679 1.372 . S
C679 C678 1.372 . S
C679 C680 1.400 . S
C679 C684 1.490 . S
C680 H670 0.930 . S
C680 C679 1.400 . S
C680 C683 1.386 . S
H681 C697 0.930 . S
H682 C698 0.931 . S
C683 H671 0.929 . S
C683 C677 1.390 . S
C683 C680 1.386 . S
C684 C679 1.490 . S
C684 C686 1.395 . S
C684 C687 1.403 . S
H685 C691 0.930 . S
C686 H672 0.930 . S
C686 C684 1.395 . S
C686 C689 1.403 . S
C687 C684 1.403 . S
C687 C688 1.524 . S
C687 C691 1.400 . S
C688 H673 0.960 . S
C688 H674 0.960 . S
C688 H675 0.960 . S
C688 C687 1.524 . S
C689 C686 1.403 . S
C689 C690 1.392 . S
C689 C693 1.495 . S
C690 C689 1.392 . S
C690 C691 1.385 . S
C690 C692 1.478 . S
C691 H685 0.930 . S
C691 C687 1.400 . S
C691 C690 1.385 . S
C692 C690 1.478 . S
C692 C694 1.381 . S
C692 C698 1.383 . S
C693 C689 1.495 . S
C693 H699 0.959 . S
C693 H700 0.961 . S
C693 H701 0.960 . S
C694 C692 1.381 . S
C694 C695 1.394 . S
C694 H702 0.930 . S
C695 C694 1.394 . S
C695 C696 1.383 . S
C695 H703 0.929 . S
C696 C695 1.383 . S
C696 C697 1.377 . S
C697 H681 0.930 . S
C697 C696 1.377 . S
C697 C698 1.379 . S
C698 H682 0.931 . S
C698 C692 1.383 . S
C698 C697 1.379 . S
H699 C693 0.959 . S
H700 C693 0.961 . S
H701 C693 0.960 . S
H702 C694 0.930 . S
H703 C695 0.929 . S
H704 C712 0.929 . S
H705 C714 0.930 . S
H706 C716 0.930 . S
H707 C719 0.929 . S
H708 C722 0.930 . S
H709 C724 0.960 . S
H710 C724 0.960 . S
H711 C724 0.960 . S
C712 H704 0.929 . S
C712 C713 1.377 . S
C712 C714 1.384 . S
C713 C712 1.377 . S
C713 C719 1.390 . S
C714 H705 0.930 . S
C714 C712 1.384 . S
C714 C715 1.372 . S
C715 C714 1.372 . S
C715 C716 1.400 . S
C715 C720 1.490 . S
C716 H706 0.930 . S
C716 C715 1.400 . S
C716 C719 1.386 . S
H717 C733 0.930 . S
H718 C734 0.931 . S
C719 H707 0.929 . S
C719 C713 1.390 . S
C719 C716 1.386 . S
C720 C715 1.490 . S
C720 C722 1.395 . S
C720 C723 1.403 . S
H721 C727 0.930 . S
C722 H708 0.930 . S
C722 C720 1.395 . S
C722 C725 1.403 . S
C723 C720 1.403 . S
C723 C724 1.524 . S
C723 C727 1.400 . S
C724 H709 0.960 . S
C724 H710 0.960 . S
C724 H711 0.960 . S
C724 C723 1.524 . S
C725 C722 1.403 . S
C725 C726 1.392 . S
C725 C729 1.495 . S
C726 C725 1.392 . S
C726 C727 1.385 . S
C726 C728 1.478 . S
C727 H721 0.930 . S
C727 C723 1.400 . S
C727 C726 1.385 . S
C728 C726 1.478 . S
C728 C730 1.381 . S
C728 C734 1.383 . S
C729 C725 1.495 . S
C729 H735 0.959 . S
C729 H736 0.961 . S
C729 H737 0.960 . S
C730 C728 1.381 . S
C730 C731 1.394 . S
C730 H738 0.930 . S
C731 C730 1.394 . S
C731 C732 1.383 . S
C731 H739 0.929 . S
C732 C731 1.383 . S
C732 C733 1.377 . S
C733 H717 0.930 . S
C733 C732 1.377 . S
C733 C734 1.379 . S
C734 H718 0.931 . S
C734 C728 1.383 . S
C734 C733 1.379 . S
H735 C729 0.959 . S
H736 C729 0.961 . S
H737 C729 0.960 . S
H738 C730 0.930 . S
H739 C731 0.929 . S
C336 C279 1.407 . S
C317 C29 1.405 . S
C353 C8 1.395 . S
C372 C219 1.395 . S
C389 C0 1.388 . S
C408 C249 1.313 . S
C425 C17 1.397 . S
C444 C189 1.309 . S
C461 C63 1.407 . S
C480 C159 1.382 . S
C497 C42 1.396 . S
C516 C99 1.376 . S
C552 C129 1.285 . S
C533 C34 1.388 . S
C588 C69 1.286 . S
C569 C51 1.401 . S
C605 C4 1.478 . S
C624 C88 1.443 . S
C641 C13 1.479 . S
C660 C148 1.453 . S
C696 C208 1.439 . S
C677 C38 1.478 . S
C713 C47 1.479 . S
C732 C268 1.464 . S
