# Generated by pormake.
# Topology pyr, (3,6)-cn, num edge types: 1
# Building blocks:
#     Node 0, Type 0, BuildingBlock: BELTOD_clean_linker_0, # of connection points: 3
#     Node 1, Type 0, BuildingBlock: BELTOD_clean_linker_0, # of connection points: 3
#     Node 2, Type 0, BuildingBlock: BELTOD_clean_linker_0, # of connection points: 3
#     Node 3, Type 0, BuildingBlock: BELTOD_clean_linker_0, # of connection points: 3
#     Node 4, Type 0, BuildingBlock: BELTOD_clean_linker_0, # of connection points: 3
#     Node 5, Type 0, BuildingBlock: BELTOD_clean_linker_0, # of connection points: 3
#     Node 6, Type 0, BuildingBlock: BELTOD_clean_linker_0, # of connection points: 3
#     Node 7, Type 0, BuildingBlock: BELTOD_clean_linker_0, # of connection points: 3
#     Node 8, Type 1, BuildingBlock: CIFDUS_clean_sbu_1, # of connection points: 6
#     Node 9, Type 1, BuildingBlock: CIFDUS_clean_sbu_1, # of connection points: 6
#     Node 10, Type 1, BuildingBlock: CIFDUS_clean_sbu_1, # of connection points: 6
#     Node 11, Type 1, BuildingBlock: CIFDUS_clean_sbu_1, # of connection points: 6
#     Edge 12, Type (0, 1), BuildingBlock: TEMPAE_clean_linker_10, # of connection points: 2
#     Edge 13, Type (0, 1), BuildingBlock: TEMPAE_clean_linker_10, # of connection points: 2
#     Edge 14, Type (0, 1), BuildingBlock: TEMPAE_clean_linker_10, # of connection points: 2
#     Edge 15, Type (0, 1), BuildingBlock: TEMPAE_clean_linker_10, # of connection points: 2
#     Edge 16, Type (0, 1), BuildingBlock: TEMPAE_clean_linker_10, # of connection points: 2
#     Edge 17, Type (0, 1), BuildingBlock: TEMPAE_clean_linker_10, # of connection points: 2
#     Edge 18, Type (0, 1), BuildingBlock: TEMPAE_clean_linker_10, # of connection points: 2
#     Edge 19, Type (0, 1), BuildingBlock: TEMPAE_clean_linker_10, # of connection points: 2
#     Edge 20, Type (0, 1), BuildingBlock: TEMPAE_clean_linker_10, # of connection points: 2
#     Edge 21, Type (0, 1), BuildingBlock: TEMPAE_clean_linker_10, # of connection points: 2
#     Edge 22, Type (0, 1), BuildingBlock: TEMPAE_clean_linker_10, # of connection points: 2
#     Edge 23, Type (0, 1), BuildingBlock: TEMPAE_clean_linker_10, # of connection points: 2
#     Edge 24, Type (0, 1), BuildingBlock: TEMPAE_clean_linker_10, # of connection points: 2
#     Edge 25, Type (0, 1), BuildingBlock: TEMPAE_clean_linker_10, # of connection points: 2
#     Edge 26, Type (0, 1), BuildingBlock: TEMPAE_clean_linker_10, # of connection points: 2
#     Edge 27, Type (0, 1), BuildingBlock: TEMPAE_clean_linker_10, # of connection points: 2
#     Edge 28, Type (0, 1), BuildingBlock: TEMPAE_clean_linker_10, # of connection points: 2
#     Edge 29, Type (0, 1), BuildingBlock: TEMPAE_clean_linker_10, # of connection points: 2
#     Edge 30, Type (0, 1), BuildingBlock: TEMPAE_clean_linker_10, # of connection points: 2
#     Edge 31, Type (0, 1), BuildingBlock: TEMPAE_clean_linker_10, # of connection points: 2
#     Edge 32, Type (0, 1), BuildingBlock: TEMPAE_clean_linker_10, # of connection points: 2
#     Edge 33, Type (0, 1), BuildingBlock: TEMPAE_clean_linker_10, # of connection points: 2
#     Edge 34, Type (0, 1), BuildingBlock: TEMPAE_clean_linker_10, # of connection points: 2
#     Edge 35, Type (0, 1), BuildingBlock: TEMPAE_clean_linker_10, # of connection points: 2
# Relax obj value: 0.036
# Max RMSD: 0.109
# Mean RMSD: 0.051
data_MOF--net-pry--node1-CIFDUS_clean_sbu_1--node2-BELTOD_clean_linker_0--edge1-TEMPAE_clean_linker_10
_symmetry_space_group_name_H-M    P1
_symmetry_Int_Tables_number       1
_symmetry_cell_setting            triclinic
loop_
_symmetry_equiv_pos_as_xyz
'x, y, z'
_cell_length_a     42.990678
_cell_length_b     41.831633
_cell_length_c     40.927215
_cell_angle_alpha  92.128135
_cell_angle_beta   91.433988
_cell_angle_gamma 93.409837
loop_
_atom_site_label
_atom_site_type_symbol
_atom_site_fract_x
_atom_site_fract_y
_atom_site_fract_z
_atom_type_partial_charge
P0 P 0.1635 0.16581 0.15506 0.0
H1 H 0.22554 0.18049 0.1305 0.0
H2 H 0.26467 0.14732 0.10658 0.0
H3 H 0.19862 0.06552 0.10279 0.0
H4 H 0.1593 0.09881 0.12783 0.0
H5 H 0.12525 0.21752 0.17416 0.0
H6 H 0.09617 0.25533 0.14387 0.0
H7 H 0.11508 0.20428 0.05341 0.0
H8 H 0.14548 0.16702 0.08431 0.0
H9 H 0.18733 0.13321 0.21062 0.0
H10 H 0.09703 0.14678 0.16709 0.0
O11 O 0.18642 0.19286 0.17673 0.0
H12 H 0.16288 0.10777 0.2567 0.0
H13 H 0.07203 0.12003 0.21277 0.0
C14 C 0.18955 0.14209 0.13141 0.0
C15 C 0.21919 0.15552 0.12432 0.0
C16 C 0.24161 0.13656 0.11069 0.0
C17 C 0.23473 0.10385 0.10318 0.0
C18 C 0.20448 0.09068 0.10847 0.0
C19 C 0.18204 0.10968 0.12266 0.0
C20 C 0.13753 0.18938 0.1316 0.0
C21 C 0.12277 0.21413 0.14783 0.0
C22 C 0.1059 0.23574 0.13034 0.0
C23 C 0.103 0.23308 0.09595 0.0
C24 C 0.11704 0.20746 0.07977 0.0
C25 C 0.13422 0.18588 0.09743 0.0
C26 C 0.14409 0.14211 0.1855 0.0
C27 C 0.16213 0.1301 0.21069 0.0
C28 C 0.148 0.11534 0.23708 0.0
C29 C 0.1153 0.11183 0.23884 0.0
C30 C 0.09722 0.1228 0.21272 0.0
C31 C 0.1115 0.13786 0.18634 0.0
P32 P 0.38847 0.90168 0.60002 0.0
H33 H 0.4489 0.91369 0.63306 0.0
H34 H 0.46471 0.92992 0.68934 0.0
H35 H 0.36791 0.92729 0.71588 0.0
H36 H 0.35243 0.90999 0.65988 0.0
H37 H 0.39423 0.87074 0.53608 0.0
H38 H 0.40437 0.81617 0.51797 0.0
H39 H 0.41188 0.78965 0.61887 0.0
H40 H 0.40045 0.84404 0.63665 0.0
H41 H 0.35307 0.95878 0.60269 0.0
H42 H 0.33437 0.85772 0.58041 0.0
O43 O 0.40917 0.92686 0.57712 0.0
H44 H 0.29846 0.96814 0.5897 0.0
H45 H 0.28009 0.86701 0.56709 0.0
C46 C 0.39953 0.91124 0.64216 0.0
C47 C 0.43113 0.91648 0.65108 0.0
C48 C 0.44009 0.92599 0.6832 0.0
C49 C 0.41755 0.93047 0.70706 0.0
C50 C 0.38589 0.92404 0.6982 0.0
C51 C 0.37698 0.91436 0.66605 0.0
C52 C 0.39727 0.86156 0.58766 0.0
C53 C 0.39822 0.85316 0.55427 0.0
C54 C 0.40407 0.82195 0.54397 0.0
C55 C 0.40922 0.79849 0.56692 0.0
C56 C 0.40774 0.80697 0.60048 0.0
C57 C 0.4016 0.8382 0.61073 0.0
C58 C 0.34788 0.90768 0.59215 0.0
C59 C 0.33721 0.93863 0.5951 0.0
C60 C 0.30603 0.94391 0.58783 0.0
C61 C 0.28511 0.91829 0.5772 0.0
C62 C 0.29581 0.88722 0.57483 0.0
C63 C 0.32689 0.88192 0.58247 0.0
P64 P 0.65503 0.36069 0.84321 0.0
H65 H 0.71311 0.34371 0.87249 0.0
H66 H 0.75004 0.37183 0.9114 0.0
H67 H 0.68833 0.44908 0.92195 0.0
H68 H 0.65081 0.42039 0.8831 0.0
H69 H 0.64688 0.29304 0.82533 0.0
H70 H 0.61514 0.2492 0.84627 0.0
H71 H 0.57693 0.31408 0.91732 0.0
H72 H 0.61011 0.35848 0.89641 0.0
H73 H 0.67379 0.42155 0.81664 0.0
H74 H 0.58993 0.35966 0.8189 0.0
O75 O 0.6785 0.34461 0.81604 0.0
H76 H 0.65083 0.45075 0.77239 0.0
H77 H 0.56686 0.3892 0.77475 0.0
C78 C 0.67959 0.38025 0.8747 0.0
C79 C 0.70725 0.36644 0.88352 0.0
C80 C 0.72822 0.38241 0.9058 0.0
C81 C 0.72175 0.4124 0.91963 0.0
C82 C 0.69362 0.42592 0.9115 0.0
C83 C 0.67235 0.40963 0.88939 0.0
C84 C 0.63086 0.32896 0.85937 0.0
C85 C 0.63175 0.29805 0.84539 0.0
C86 C 0.61325 0.27296 0.85722 0.0
C87 C 0.59303 0.27821 0.88306 0.0
C88 C 0.59223 0.30931 0.89732 0.0
C89 C 0.61105 0.33462 0.88542 0.0
C90 C 0.63352 0.38857 0.82108 0.0
C91 C 0.64991 0.41522 0.80872 0.0
C92 C 0.63687 0.43185 0.78347 0.0
C93 C 0.6073 0.42196 0.77038 0.0
C94 C 0.58964 0.39729 0.78485 0.0
C95 C 0.60284 0.38042 0.81 0.0
P96 P 0.85082 0.62774 0.37611 0.0
H97 H 0.89502 0.67824 0.35673 0.0
H98 H 0.92521 0.72086 0.38806 0.0
H99 H 0.89728 0.67816 0.478 0.0
H100 H 0.86758 0.63517 0.44656 0.0
H101 H 0.82171 0.58004 0.33057 0.0
H102 H 0.84097 0.55332 0.28159 0.0
H103 H 0.93471 0.58894 0.3083 0.0
H104 H 0.91541 0.61586 0.35741 0.0
H105 H 0.80171 0.65227 0.41464 0.0
H106 H 0.84037 0.56072 0.39629 0.0
O107 O 0.83026 0.65171 0.35338 0.0
H108 H 0.76162 0.62699 0.44773 0.0
H109 H 0.79998 0.535 0.42961 0.0
C110 C 0.87895 0.65364 0.39925 0.0
C111 C 0.8962 0.67747 0.38316 0.0
C112 C 0.91347 0.70178 0.4011 0.0
C113 C 0.9135 0.70281 0.43548 0.0
C114 C 0.89752 0.67795 0.45154 0.0
C115 C 0.88057 0.65338 0.43353 0.0
C116 C 0.86707 0.60011 0.34747 0.0
C117 C 0.84656 0.58118 0.32657 0.0
C118 C 0.85752 0.56596 0.29862 0.0
C119 C 0.88918 0.56936 0.29127 0.0
C120 C 0.91019 0.58589 0.3137 0.0
C121 C 0.89914 0.60138 0.34164 0.0
C122 C 0.82354 0.60828 0.40258 0.0
C123 C 0.80169 0.6267 0.41803 0.0
C124 C 0.77899 0.61225 0.43723 0.0
C125 C 0.77772 0.57901 0.44138 0.0
C126 C 0.80034 0.56065 0.42669 0.0
C127 C 0.82333 0.57528 0.40761 0.0
P128 P 0.88307 0.8946 0.90818 0.0
H129 H 0.85107 0.904 0.96923 0.0
H130 H 0.79933 0.92121 0.98236 0.0
H131 H 0.77499 0.9208 0.8793 0.0
H132 H 0.82689 0.90329 0.86639 0.0
H133 H 0.93208 0.8746 0.95276 0.0
H134 H 0.94651 0.82318 0.9716 0.0
H135 H 0.87291 0.77595 0.91016 0.0
H136 H 0.85704 0.82828 0.89349 0.0
H137 H 0.90524 0.95229 0.87583 0.0
H138 H 0.8818 0.85345 0.8472 0.0
O139 O 0.90466 0.92185 0.93105 0.0
H140 H 0.92034 0.96315 0.82025 0.0
H141 H 0.89571 0.86435 0.79097 0.0
C142 C 0.843 0.90243 0.91685 0.0
C143 C 0.83448 0.90722 0.94944 0.0
C144 C 0.80492 0.91741 0.9569 0.0
C145 C 0.78298 0.92292 0.93191 0.0
C146 C 0.79119 0.91679 0.89921 0.0
C147 C 0.82094 0.90676 0.89176 0.0
C148 C 0.89349 0.85552 0.92145 0.0
C149 C 0.91879 0.85327 0.94343 0.0
C150 C 0.92733 0.82349 0.954 0.0
C151 C 0.91127 0.79479 0.94236 0.0
C152 C 0.88577 0.79722 0.92026 0.0
C153 C 0.87683 0.82723 0.91023 0.0
C154 C 0.89284 0.90189 0.86605 0.0
C155 C 0.90319 0.93285 0.85754 0.0
C156 C 0.91156 0.93914 0.82545 0.0
C157 C 0.90931 0.91469 0.80073 0.0
C158 C 0.8983 0.88374 0.80928 0.0
C159 C 0.89012 0.87744 0.84155 0.0
P160 P 0.66301 0.16543 0.37454 0.0
H161 H 0.68239 0.21792 0.42026 0.0
H162 H 0.65329 0.25877 0.44829 0.0
H163 H 0.56679 0.20822 0.41588 0.0
H164 H 0.59601 0.16712 0.38866 0.0
H165 H 0.71466 0.13261 0.34879 0.0
H166 H 0.75779 0.10638 0.37431 0.0
H167 H 0.71776 0.12081 0.46902 0.0
H168 H 0.6743 0.1473 0.44317 0.0
H169 H 0.6216 0.18114 0.32135 0.0
H170 H 0.64908 0.09545 0.36683 0.0
O171 O 0.68287 0.19113 0.35145 0.0
H172 H 0.59224 0.14854 0.27901 0.0
H173 H 0.61971 0.06259 0.32441 0.0
C174 C 0.64142 0.18969 0.40212 0.0
C175 C 0.65717 0.21519 0.41996 0.0
C176 C 0.6405 0.23867 0.4357 0.0
C177 C 0.60771 0.23706 0.43381 0.0
C178 C 0.59201 0.21016 0.41788 0.0
C179 C 0.60875 0.18666 0.40214 0.0
C180 C 0.69172 0.14245 0.39417 0.0
C181 C 0.71499 0.12994 0.37502 0.0
C182 C 0.73961 0.11501 0.38961 0.0
C183 C 0.74134 0.11213 0.42367 0.0
C184 C 0.71698 0.12291 0.44272 0.0
C185 C 0.69229 0.13813 0.42802 0.0
C186 C 0.63787 0.14072 0.34686 0.0
C187 C 0.6209 0.15527 0.32246 0.0
C188 C 0.60396 0.1366 0.29842 0.0
C189 C 0.6038 0.10297 0.29831 0.0
C190 C 0.61969 0.08845 0.32372 0.0
C191 C 0.63648 0.10721 0.34796 0.0
P192 P 0.38725 0.6248 0.11978 0.0
H193 H 0.35877 0.5982 0.05834 0.0
H194 H 0.30436 0.58452 0.04092 0.0
H195 H 0.27378 0.61651 0.13553 0.0
H196 H 0.3282 0.62971 0.15322 0.0
H197 H 0.43402 0.65988 0.08184 0.0
H198 H 0.4452 0.71679 0.07391 0.0
H199 H 0.37036 0.73922 0.13804 0.0
H200 H 0.35867 0.68205 0.14478 0.0
H201 H 0.37042 0.56839 0.15662 0.0
H202 H 0.41877 0.66086 0.1756 0.0
O203 O 0.41079 0.60314 0.09731 0.0
H204 H 0.37856 0.55558 0.21408 0.0
H205 H 0.42649 0.64836 0.23286 0.0
C206 C 0.34747 0.61443 0.10722 0.0
C207 C 0.34042 0.60206 0.07543 0.0
C208 C 0.30947 0.59438 0.06545 0.0
C209 C 0.28529 0.59955 0.087 0.0
C210 C 0.29226 0.61245 0.11861 0.0
C211 C 0.32323 0.61986 0.12868 0.0
C212 C 0.39535 0.66678 0.11365 0.0
C213 C 0.41993 0.67703 0.09405 0.0
C214 C 0.42651 0.70969 0.08986 0.0
C215 C 0.40879 0.73275 0.1055 0.0
C216 C 0.38424 0.72222 0.12529 0.0
C217 C 0.37754 0.68952 0.12922 0.0
C218 C 0.39336 0.61581 0.16201 0.0
C219 C 0.38246 0.58604 0.17321 0.0
C220 C 0.38697 0.57882 0.20599 0.0
C221 C 0.4028 0.60117 0.22794 0.0
C222 C 0.41417 0.63074 0.21646 0.0
C223 C 0.40958 0.63796 0.18372 0.0
P224 P 0.13416 0.37139 0.64032 0.0
H225 H 0.15385 0.32201 0.5957 0.0
H226 H 0.12621 0.27612 0.56725 0.0
H227 H 0.03858 0.30953 0.59991 0.0
H228 H 0.06636 0.35635 0.62698 0.0
H229 H 0.19042 0.40931 0.66076 0.0
H230 H 0.23288 0.4345 0.63005 0.0
H231 H 0.18123 0.41143 0.53976 0.0
H232 H 0.13828 0.38677 0.57055 0.0
H233 H 0.0866 0.3524 0.68585 0.0
H234 H 0.13218 0.44085 0.65586 0.0
O235 O 0.15565 0.35008 0.66497 0.0
H236 H 0.06446 0.38107 0.732 0.0
H237 H 0.11111 0.46922 0.7031 0.0
C238 C 0.11228 0.34226 0.61397 0.0
C239 C 0.12863 0.31985 0.59612 0.0
C240 C 0.1128 0.29348 0.58009 0.0
C241 C 0.08023 0.28874 0.58195 0.0
C242 C 0.06366 0.31242 0.59804 0.0
C243 C 0.07959 0.33909 0.61384 0.0
C244 C 0.1615 0.39572 0.61787 0.0
C245 C 0.18784 0.41037 0.63443 0.0
C246 C 0.21198 0.42481 0.61697 0.0
C247 C 0.21008 0.42471 0.58271 0.0
C248 C 0.18296 0.41176 0.56622 0.0
C249 C 0.15859 0.39759 0.58378 0.0
C250 C 0.11078 0.39446 0.66715 0.0
C251 C 0.09084 0.37817 0.68838 0.0
C252 C 0.07826 0.3945 0.71478 0.0
C253 C 0.0861 0.42722 0.72079 0.0
C254 C 0.10461 0.444 0.6986 0.0
C255 C 0.1167 0.42772 0.67171 0.0
O256 O 0.95861 0.01639 0.50644 0.0
Mn257 Mn 0.00249 -0.00197 0.51116 0.0
O258 O 0.95426 0.00641 0.45338 0.0
Mn259 Mn 0.98283 0.97507 0.45493 0.0
O260 O 0.04675 0.9784 0.51529 0.0
O261 O 0.01709 0.0409 0.53409 0.0
Mn262 Mn 0.0433 0.03 0.56515 0.0
O263 O 0.98889 0.97918 0.55668 0.0
O264 O 0.07707 0.01321 0.54634 0.0
O265 O 0.0187 0.02145 0.46762 0.0
O266 O 0.0192 0.98081 0.43399 0.0
O267 O 0.0434 0.0729 0.57079 0.0
O268 O 0.02176 0.00472 0.59388 0.0
C269 C 0.97052 0.93124 0.46908 0.0
C270 C 0.94386 0.01866 0.47927 0.0
C271 C 0.0736 0.9888 0.52717 0.0
C272 C 0.02381 0.06994 0.54612 0.0
C273 C -0.00087 0.98453 0.58651 0.0
C274 C 0.02811 0.00915 0.44067 0.0
O275 O 0.98515 0.95182 0.49084 0.0
O276 O 0.96371 0.93998 0.43989 0.0
O277 O 0.48715 0.0051 0.95787 0.0
Mn278 Mn 0.50262 0.011 0.00675 0.0
O279 O 0.5158 0.96469 0.94605 0.0
Mn280 Mn 0.51795 0.95286 0.98903 0.0
O281 O 0.51884 0.01547 0.05657 0.0
O282 O 0.51282 0.05878 0.99689 0.0
Mn283 Mn 0.49999 0.07696 0.03363 0.0
O284 O 0.45582 0.02025 0.01916 0.0
O285 O 0.52326 0.06782 0.06897 0.0
O286 O 0.55097 0.00411 0.99432 0.0
O287 O 0.556 0.95534 0.00901 0.0
O288 O 0.51447 0.11091 0.01305 0.0
O289 O 0.45766 0.0716 0.03653 0.0
C290 C 0.48223 0.93166 0.01107 0.0
C291 C 0.49771 0.98548 0.93684 0.0
C292 C 0.52788 0.0394 0.07589 0.0
C293 C 0.51927 0.08909 0.99068 0.0
C294 C 0.44232 0.04535 0.02947 0.0
C295 C 0.56885 0.98171 0.0022 0.0
O296 O 0.48767 0.96304 0.01625 0.0
O297 O 0.49888 0.9153 0.99131 0.0
O298 O 0.53911 0.52453 0.50298 0.0
Mn299 Mn 0.49244 0.50839 0.50521 0.0
O300 O 0.55612 0.5003 0.45844 0.0
Mn301 Mn 0.51713 0.49062 0.43985 0.0
O302 O 0.44526 0.49308 0.51153 0.0
O303 O 0.50102 0.50674 0.55359 0.0
Mn304 Mn 0.47419 0.52891 0.57478 0.0
O305 O 0.4809 0.55686 0.50915 0.0
O306 O 0.43612 0.50869 0.56374 0.0
O307 O 0.50345 0.45916 0.49942 0.0
O308 O 0.50376 0.44911 0.445 0.0
O309 O 0.499 0.51352 0.60671 0.0
O310 O 0.48037 0.57041 0.56268 0.0
C311 C 0.48599 0.52789 0.43117 0.0
C312 C 0.56112 0.51664 0.48468 0.0
C313 C 0.42747 0.49471 0.53651 0.0
C314 C 0.51269 0.50093 0.58197 0.0
C315 C 0.4797 0.57779 0.53292 0.0
C316 C 0.50326 0.43939 0.47412 0.0
O317 O 0.48401 0.50938 0.45594 0.0
O318 O 0.5075 0.52063 0.41116 0.0
O319 O 0.95414 0.48472 0.00169 0.0
Mn320 Mn -0.00051 0.50505 0.00585 0.0
O321 O 0.93487 0.50451 0.9565 0.0
Mn322 Mn 0.97267 0.51605 0.9394 0.0
O323 O 0.0453 0.52497 0.01323 0.0
O324 O 0.99081 0.51052 0.05549 0.0
Mn325 Mn 0.02039 0.48648 0.07008 0.0
O326 O 0.01572 0.45737 0.00794 0.0
O327 O 0.05895 0.50477 0.06121 0.0
O328 O 0.98429 0.55331 -0.0005 0.0
O329 O 0.98256 0.55857 0.94495 0.0
O330 O 0.00434 0.4993 0.1073 0.0
O331 O 0.01257 0.44416 0.0594 0.0
C332 C 0.00639 0.48126 0.93178 0.0
C333 C 0.93142 0.48948 0.98233 0.0
C334 C 0.06504 0.52185 0.0369 0.0
C335 C 0.98626 0.51327 0.08716 0.0
C336 C 0.01629 0.43617 0.02995 0.0
C337 C 0.98219 0.57088 0.97383 0.0
O338 O 0.00731 0.50143 0.95682 0.0
O339 O 0.98424 0.48542 0.9107 0.0
C340 C 0.11445 0.07332 0.28493 0.0
C341 C 0.10054 0.09792 0.26844 0.0
C342 C 0.10232 0.06155 0.31404 0.0
C343 C 0.07513 0.07413 0.32698 0.0
C344 C 0.06034 0.09824 0.31002 0.0
C345 C 0.07335 0.11004 0.28123 0.0
C346 C 0.1185 0.03531 0.33079 0.0
C347 C 0.03076 0.11163 0.32229 0.0
C348 C 0.02981 0.01712 0.38077 0.0
C349 C 0.0389 0.0284 0.41267 0.0
C350 C 0.04037 0.03253 0.353 0.0
C351 C 0.06101 0.06003 0.35675 0.0
C352 C 0.06946 0.07246 0.38879 0.0
C353 C 0.05809 0.05662 0.41649 0.0
C354 C 0.02994 0.01874 0.31955 0.0
C355 C 0.09134 0.10185 0.39374 0.0
H356 H 0.1349 0.06303 0.275 0.0
H357 H 0.06244 0.12922 0.26908 0.0
H358 H 0.12387 0.04251 0.35678 0.0
H359 H 0.10286 0.01322 0.33049 0.0
H360 H 0.1405 0.02954 0.31884 0.0
H361 H 0.02063 0.12817 0.30486 0.0
H362 H 0.01307 0.09193 0.3266 0.0
H363 H 0.03568 0.12484 0.34603 0.0
H364 H 0.01432 0.99578 0.37731 0.0
H365 H 0.065 0.06566 0.44092 0.0
H366 H 0.05018 0.00969 0.30658 0.0
H367 H 0.02035 0.03759 0.30456 0.0
H368 H 0.0119 -0.00129 0.32089 0.0
H369 H 0.11466 0.09654 0.38466 0.0
H370 H 0.09384 0.10998 0.41988 0.0
H371 H 0.0829 0.12172 0.37936 0.0
C372 C 0.41247 0.92946 0.76813 0.0
C373 C 0.42711 0.94226 0.74084 0.0
C374 C 0.42213 0.93967 0.80009 0.0
C375 C 0.44708 0.9632 0.80489 0.0
C376 C 0.46137 0.97681 0.77746 0.0
C377 C 0.45119 0.96625 0.74582 0.0
C378 C 0.40647 0.92434 0.8287 0.0
C379 C 0.48825 0.00169 0.78154 0.0
C380 C 0.46281 0.00162 0.89035 0.0
C381 C 0.48642 0.98301 0.90217 0.0
C382 C 0.44994 0.99586 0.85847 0.0
C383 C 0.46071 0.97073 0.8383 0.0
C384 C 0.48487 0.95236 0.84996 0.0
C385 C 0.49759 0.95895 0.88141 0.0
C386 C 0.42444 0.01616 0.84657 0.0
C387 C 0.4968 0.92502 0.82957 0.0
H388 H 0.39405 0.91073 0.76457 0.0
H389 H 0.46226 0.97673 0.72491 0.0
H390 H 0.4235 0.91082 0.84259 0.0
H391 H 0.39813 0.94305 0.84569 0.0
H392 H 0.38637 0.90764 0.82088 0.0
H393 H 0.49507 0.0119 0.7579 0.0
H394 H 0.48212 0.02147 0.79854 0.0
H395 H 0.50877 0.99073 0.79245 0.0
H396 H 0.45395 0.02014 0.90617 0.0
H397 H 0.51584 0.94433 0.89008 0.0
H398 H 0.40275 0.0009 0.84144 0.0
H399 H 0.4311 0.02716 0.8233 0.0
H400 H 0.41945 0.0355 0.86468 0.0
H401 H 0.47756 0.90664 0.82386 0.0
H402 H 0.51604 0.91332 0.84215 0.0
H403 H 0.50532 0.93378 0.80596 0.0
C404 C 0.57204 0.44995 0.73308 0.0
C405 C 0.59817 0.43222 0.7378 0.0
C406 C 0.56321 0.45861 0.70154 0.0
C407 C 0.58057 0.44845 0.67436 0.0
C408 C 0.60683 0.4303 0.67923 0.0
C409 C 0.61548 0.42264 0.71102 0.0
C410 C 0.53528 0.47849 0.69728 0.0
C411 C 0.62551 0.41871 0.65088 0.0
C412 C 0.53176 0.45013 0.59698 0.0
C413 C 0.53906 0.48159 0.58814 0.0
C414 C 0.54732 0.43745 0.62358 0.0
C415 C 0.5709 0.45674 0.64089 0.0
C416 C 0.58175 0.4863 0.62835 0.0
C417 C 0.56584 0.4982 0.60157 0.0
C418 C 0.53554 0.40546 0.63578 0.0
C419 C 0.60695 0.50755 0.64591 0.0
H420 H 0.55875 0.45712 0.75402 0.0
H421 H 0.6355 0.40851 0.71498 0.0
H422 H 0.54198 0.50055 0.68426 0.0
H423 H 0.51697 0.46477 0.68209 0.0
H424 H 0.52519 0.48551 0.72103 0.0
H425 H 0.64497 0.40425 0.65888 0.0
H426 H 0.61015 0.40391 0.63331 0.0
H427 H 0.63529 0.43945 0.63756 0.0
H428 H 0.5109 0.43739 0.58653 0.0
H429 H 0.57132 0.52265 0.59464 0.0
H430 H 0.52019 0.40945 0.65677 0.0
H431 H 0.55511 0.39157 0.64446 0.0
H432 H 0.52188 0.39097 0.61648 0.0
H433 H 0.59681 0.51996 0.66722 0.0
H434 H 0.61697 0.52604 0.62974 0.0
H435 H 0.626 0.49337 0.65528 0.0
C436 C 0.92129 0.53885 0.25195 0.0
C437 C 0.89897 0.56122 0.25784 0.0
C438 C 0.93131 0.53264 0.22 0.0
C439 C 0.91925 0.54992 0.19377 0.0
C440 C 0.89657 0.57235 0.19981 0.0
C441 C 0.88651 0.5775 0.23174 0.0
C442 C 0.95521 0.50812 0.21442 0.0
C443 C 0.88363 0.59159 0.17269 0.0
C444 C 0.97338 0.55784 0.12268 0.0
C445 C 0.96237 0.53188 0.10216 0.0
C446 C 0.95871 0.56493 0.15203 0.0
C447 C 0.93186 0.54612 0.16044 0.0
C448 C 0.91847 0.52246 0.13778 0.0
C449 C 0.934 0.51557 0.10878 0.0
C450 C 0.97392 0.59022 0.17553 0.0
C451 C 0.88969 0.50208 0.14565 0.0
H452 H 0.93085 0.52634 0.27228 0.0
H453 H 0.86948 0.59508 0.23655 0.0
H454 H 0.94674 0.49033 0.19494 0.0
H455 H 0.97712 0.5201 0.20597 0.0
H456 H 0.96056 0.4952 0.23692 0.0
H457 H 0.86545 0.60745 0.18132 0.0
H458 H 0.90272 0.60663 0.16217 0.0
H459 H 0.87345 0.57529 0.1527 0.0
H460 H 0.99579 0.56986 0.11792 0.0
H461 H 0.92596 0.49492 0.09335 0.0
H462 H 0.98433 0.57849 0.19672 0.0
H463 H 0.95639 0.6063 0.18514 0.0
H464 H 0.99263 0.60496 0.16393 0.0
H465 H 0.89606 0.48402 0.16346 0.0
H466 H 0.87909 0.48921 0.12347 0.0
H467 H 0.87198 0.51684 0.15705 0.0
C468 C 0.28553 0.07935 0.11255 0.0
C469 C 0.26002 0.08383 0.09161 0.0
C470 C 0.31237 0.06553 0.10094 0.0
C471 C 0.31407 0.05651 0.06731 0.0
C472 C 0.2874 0.05887 0.04658 0.0
C473 C 0.26061 0.07247 0.059 0.0
C474 C 0.3399 0.06329 0.12417 0.0
C475 C 0.28802 0.0494 0.0107 0.0
C476 C 0.39424 0.07527 0.03386 0.0
C477 C 0.40796 0.04557 0.03403 0.0
C478 C 0.36357 0.07864 0.04348 0.0
C479 C 0.34532 0.0515 0.05305 0.0
C480 C 0.35813 0.02092 0.05121 0.0
C481 C 0.38943 0.01828 0.04182 0.0
C482 C 0.35132 0.11181 0.04507 0.0
C483 C 0.33935 0.99127 0.06066 0.0
H484 H 0.285 0.08802 0.13783 0.0
H485 H 0.24089 0.07595 0.04277 0.0
H486 H 0.35082 0.04014 0.12032 0.0
H487 H 0.35773 0.08275 0.11946 0.0
H488 H 0.33317 0.0657 0.15014 0.0
H489 H 0.26432 0.04782 0.99907 0.0
H490 H 0.30268 0.06746 0.99791 0.0
H491 H 0.29855 0.02598 0.00715 0.0
H492 H 0.40803 0.0965 0.02728 0.0
H493 H 0.39969 0.99524 0.042 0.0
H494 H 0.34656 0.11878 0.07082 0.0
H495 H 0.32903 0.11204 0.03086 0.0
H496 H 0.36801 0.13023 0.03546 0.0
H497 H 0.33782 0.99119 0.08768 0.0
H498 H 0.35012 0.96903 0.05222 0.0
H499 H 0.31522 0.99102 0.05035 0.0
C500 C 0.2347 0.94336 0.58775 0.0
C501 C 0.25248 0.9241 0.56769 0.0
C502 C 0.20422 0.95008 0.57834 0.0
C503 C 0.19136 0.93746 0.54798 0.0
C504 C 0.20905 0.91757 0.52791 0.0
C505 C 0.23937 0.91101 0.53807 0.0
C506 C 0.18598 0.97108 0.60069 0.0
C507 C 0.19632 0.90407 0.49523 0.0
C508 C 0.10349 0.94111 0.53729 0.0
C509 C 0.10155 0.97073 0.52279 0.0
C510 C 0.13268 0.92904 0.54433 0.0
C511 C 0.16028 0.94699 0.53634 0.0
C512 C 0.15815 0.97571 0.51939 0.0
C513 C 0.12879 0.9873 0.51302 0.0
C514 C 0.13401 0.8985 0.5627 0.0
C515 C 0.18693 0.99559 0.51039 0.0
H516 H 0.24467 0.95318 0.61084 0.0
H517 H 0.25319 0.89637 0.52237 0.0
H518 H 0.17954 0.99276 0.5879 0.0
H519 H 0.16398 0.95797 0.60733 0.0
H520 H 0.1993 0.97879 0.62353 0.0
H521 H 0.21237 0.88767 0.4833 0.0
H522 H 0.17349 0.89085 0.49825 0.0
H523 H 0.1923 0.92395 0.47871 0.0
H524 H 0.08243 0.9288 0.5457 0.0
H525 H 0.1272 0.01057 0.50244 0.0
H526 H 0.14274 0.90428 0.5881 0.0
H527 H 0.15047 0.88235 0.55117 0.0
H528 H 0.11076 0.88553 0.56372 0.0
H529 H 0.19876 0.00635 0.53295 0.0
H530 H 0.18131 0.01526 0.49414 0.0
H531 H 0.20367 0.98037 0.49798 0.0
C532 C 0.76005 0.45861 0.9303 0.0
C533 C 0.74582 0.4299 0.9406 0.0
C534 C 0.78852 0.47075 0.94459 0.0
C535 C 0.80262 0.45369 0.96973 0.0
C536 C 0.7865 0.42668 0.98247 0.0
C537 C 0.7583 0.41492 0.96753 0.0
C538 C 0.80501 0.49969 0.93031 0.0
C539 C 0.80064 0.40818 0.00948 0.0
C540 C 0.88971 0.45096 0.96334 0.0
C541 C 0.90046 0.47445 0.98671 0.0
C542 C 0.85786 0.44344 0.9583 0.0
C543 C 0.83633 0.45966 0.97751 0.0
C544 C 0.84721 0.48198 0.00271 0.0
C545 C 0.87941 0.48938 0.00687 0.0
C546 C 0.84732 0.41987 0.93077 0.0
C547 C 0.82492 0.49968 0.02359 0.0
H548 H 0.75035 0.47001 0.9093 0.0
H549 H 0.74704 0.39274 0.97543 0.0
H550 H 0.81618 0.51582 0.94987 0.0
H551 H 0.82367 0.49172 0.91418 0.0
H552 H 0.78881 0.51347 0.91555 0.0
H553 H 0.7832 0.39122 0.02018 0.0
H554 H 0.8197 0.39425 -0.00046 0.0
H555 H 0.81093 0.42475 0.02919 0.0
H556 H 0.90622 0.44023 0.94726 0.0
H557 H 0.88793 0.50832 0.02421 0.0
H558 H 0.83471 0.43245 0.91156 0.0
H559 H 0.83095 0.40091 0.93983 0.0
H560 H 0.86715 0.40824 0.91933 0.0
H561 H 0.81472 0.51861 0.00916 0.0
H562 H 0.8368 0.51127 0.04577 0.0
H563 H 0.80542 0.48329 0.0312 0.0
C564 C 0.73373 0.53742 0.4435 0.0
C565 C 0.75096 0.56375 0.45837 0.0
C566 C 0.70436 0.52749 0.45498 0.0
C567 C 0.69206 0.5444 0.48189 0.0
C568 C 0.71076 0.56881 0.49898 0.0
C569 C 0.74003 0.57824 0.48698 0.0
C570 C 0.68535 0.50098 0.43632 0.0
C571 C 0.69874 0.58687 0.52818 0.0
C572 C 0.60543 0.55321 0.47207 0.0
C573 C 0.59326 0.52898 0.49146 0.0
C574 C 0.63764 0.55941 0.47008 0.0
C575 C 0.65812 0.54078 0.48795 0.0
C576 C 0.64582 0.51754 0.50924 0.0
C577 C 0.61332 0.51172 0.51057 0.0
C578 C 0.64968 0.58435 0.44697 0.0
C579 C 0.66679 0.49722 0.5287 0.0
H580 H 0.74205 0.52611 0.42138 0.0
H581 H 0.75364 0.59819 0.49895 0.0
H582 H 0.67358 0.48448 0.45335 0.0
H583 H 0.66697 0.51152 0.42134 0.0
H584 H 0.6999 0.48689 0.41973 0.0
H585 H 0.71762 0.60158 0.54165 0.0
H586 H 0.68085 0.60305 0.51985 0.0
H587 H 0.68744 0.57005 0.54523 0.0
H588 H 0.5897 0.56591 0.45678 0.0
H589 H 0.6037 0.49239 0.5249 0.0
H590 H 0.66146 0.57248 0.4264 0.0
H591 H 0.66714 0.60134 0.45972 0.0
H592 H 0.63073 0.5982 0.43668 0.0
H593 H 0.67511 0.4779 0.51243 0.0
H594 H 0.65432 0.48587 0.54915 0.0
H595 H 0.68759 0.5116 0.53879 0.0
C596 C 0.09848 0.26928 0.0479 0.0
C597 C 0.08687 0.2581 0.0775 0.0
C598 C 0.08597 0.29562 0.03273 0.0
C599 C 0.06158 0.31168 0.04766 0.0
C600 C 0.04863 0.2994 0.0765 0.0
C601 C 0.06115 0.27271 0.09077 0.0
C602 C 0.10015 0.30739 0.00171 0.0
C603 C 0.02282 0.31572 0.09361 0.0
C604 C 0.05905 0.40199 0.04304 0.0
C605 C 0.03136 0.40543 0.025 0.0
C606 C 0.06971 0.37174 0.04935 0.0
C607 C 0.05284 0.34383 0.03641 0.0
C608 C 0.02629 0.34717 0.01566 0.0
C609 C 0.01549 0.37801 0.0106 0.0
C610 C 0.09754 0.36974 0.07234 0.0
C611 C 0.00843 0.31811 0.00027 0.0
H612 H 0.11836 0.25849 0.03729 0.0
H613 H 0.05127 0.26387 0.11304 0.0
H614 H 0.0817 0.31351 0.98396 0.0
H615 H 0.11515 0.3295 0.00736 0.0
H616 H 0.11465 0.28931 0.99001 0.0
H617 H 0.01374 0.30195 0.11439 0.0
H618 H 0.03165 0.33986 0.10311 0.0
H619 H 0.00322 0.3191 0.0762 0.0
H620 H 0.07112 0.42315 0.0546 0.0
H621 H 0.99381 0.38046 0.99709 0.0
H622 H 0.11501 0.35455 0.06118 0.0
H623 H 0.08997 0.35842 0.09516 0.0
H624 H 0.10903 0.39368 0.07895 0.0
H625 H 0.02459 0.30259 0.98732 0.0
H626 H 0.99 0.3247 0.98267 0.0
H627 H -0.00266 0.30372 0.01952 0.0
C628 C 0.57183 0.24541 0.9286 0.0
C629 C 0.57394 0.25056 0.89505 0.0
C630 C 0.55884 0.21624 0.93957 0.0
C631 C 0.54876 0.19148 0.91638 0.0
C632 C 0.54869 0.19756 0.88268 0.0
C633 C 0.56071 0.22725 0.87249 0.0
C634 C 0.55729 0.21156 0.97591 0.0
C635 C 0.53743 0.17213 0.85726 0.0
C636 C 0.55651 0.10966 0.95135 0.0
C637 C 0.52553 0.10117 0.95837 0.0
C638 C 0.56417 0.13798 0.93515 0.0
C639 C 0.54032 0.15863 0.92716 0.0
C640 C 0.50877 0.14837 0.93128 0.0
C641 C 0.50179 0.11891 0.94541 0.0
C642 C 0.59804 0.14719 0.92952 0.0
C643 C 0.48237 0.16994 0.92543 0.0
H644 H 0.58168 0.26344 0.94623 0.0
H645 H 0.56116 0.23166 0.84657 0.0
H646 H 0.53581 0.19718 0.98197 0.0
H647 H 0.57762 0.19853 0.98412 0.0
H648 H 0.55789 0.23487 0.98994 0.0
H649 H 0.53979 0.18046 0.83194 0.0
H650 H 0.55089 0.15049 0.8599 0.0
H651 H 0.51257 0.16491 0.86098 0.0
H652 H 0.57493 0.09626 0.96177 0.0
H653 H 0.47781 0.11264 0.95152 0.0
H654 H 0.60698 0.16487 0.94888 0.0
H655 H 0.60089 0.15846 0.90555 0.0
H656 H 0.61254 0.1261 0.93029 0.0
H657 H 0.47744 0.18261 0.94889 0.0
H658 H 0.46078 0.15565 0.91725 0.0
H659 H 0.48776 0.1883 0.90726 0.0
C660 C 0.95652 0.74507 0.44679 0.0
C661 C 0.92692 0.73179 0.45396 0.0
C662 C 0.96661 0.77599 0.45861 0.0
C663 C 0.9463 0.79425 0.47746 0.0
C664 C 0.91762 0.7797 0.48731 0.0
C665 C 0.9083 0.74856 0.47551 0.0
C666 C -0.00257 0.7904 0.4476 0.0
C667 C 0.89502 0.79831 0.50694 0.0
C668 C 0.97388 0.88093 0.50201 0.0
C669 C 0.96225 0.89699 0.47527 0.0
C670 C 0.96801 0.8474 0.50405 0.0
C671 C 0.9508 0.82987 0.47847 0.0
C672 C 0.93824 0.84631 0.45219 0.0
C673 C 0.94356 0.8794 0.45134 0.0
C674 C 0.98079 0.83061 0.53296 0.0
C675 C 0.92008 0.82891 0.42399 0.0
H676 H 0.97108 0.73196 0.43041 0.0
H677 H 0.88529 0.73844 0.48096 0.0
H678 H 0.99323 0.80645 0.42716 0.0
H679 H 0.00963 0.80501 0.46772 0.0
H680 H 0.0129 0.77168 0.43892 0.0
H681 H 0.87754 0.78215 0.51867 0.0
H682 H 0.90746 0.814 0.5261 0.0
H683 H 0.88236 0.81389 0.49047 0.0
H684 H 0.98805 0.89427 0.52074 0.0
H685 H 0.93365 0.89135 0.43083 0.0
H686 H -0.00115 0.81446 0.52478 0.0
H687 H 0.96201 0.81548 0.5439 0.0
H688 H 0.99126 0.84779 0.55209 0.0
H689 H 0.93503 0.81187 0.41137 0.0
H690 H 0.9116 0.8455 0.40562 0.0
H691 H 0.89965 0.81483 0.43312 0.0
C692 C 0.40557 0.73866 0.57217 0.0
C693 C 0.4171 0.76566 0.55592 0.0
C694 C 0.41478 0.70789 0.56351 0.0
C695 C 0.43591 0.704 0.53784 0.0
C696 C 0.44645 0.73088 0.52034 0.0
C697 C 0.43709 0.76138 0.52969 0.0
C698 C 0.40301 0.67981 0.58286 0.0
C699 C 0.46884 0.72763 0.49275 0.0
C700 C 0.48836 0.63535 0.54753 0.0
C701 C 0.47341 0.61129 0.52705 0.0
C702 C 0.47699 0.66595 0.55025 0.0
C703 C 0.4499 0.67267 0.53203 0.0
C704 C 0.43575 0.64903 0.50976 0.0
C705 C 0.44781 0.61849 0.50743 0.0
C706 C 0.49284 0.69039 0.57425 0.0
C707 C 0.40668 0.65522 0.49017 0.0
H708 H 0.38962 0.7416 0.59201 0.0
H709 H 0.44642 0.78204 0.51715 0.0
H710 H 0.39424 0.65958 0.56619 0.0
H711 H 0.42248 0.67127 0.59786 0.0
H712 H 0.38407 0.68618 0.59944 0.0
H713 H 0.47247 0.75022 0.47954 0.0
H714 H 0.49171 0.72089 0.50262 0.0
H715 H 0.4601 0.70826 0.47502 0.0
H716 H 0.50797 0.62957 0.56296 0.0
H717 H 0.43579 0.59963 0.49222 0.0
H718 H 0.47691 0.69559 0.59444 0.0
H719 H 0.49835 0.71322 0.56209 0.0
H720 H 0.51475 0.68199 0.58501 0.0
H721 H 0.38677 0.65655 0.5068 0.0
H722 H 0.40081 0.636 0.47118 0.0
H723 H 0.40944 0.67854 0.47819 0.0
C724 C 0.91369 0.95121 0.75293 0.0
C725 C 0.91889 0.92151 0.76648 0.0
C726 C 0.92446 0.95885 0.72178 0.0
C727 C 0.94044 0.9361 0.70316 0.0
C728 C 0.94475 0.90565 0.71607 0.0
C729 C 0.93415 0.89882 0.74753 0.0
C730 C 0.91968 0.99177 0.7093 0.0
C731 C 0.96173 0.8807 0.69721 0.0
C732 C 0.9542 0.95352 0.61292 0.0
C733 C 0.98442 0.96827 0.61474 0.0
C734 C 0.93974 0.94205 0.64129 0.0
C735 C 0.95579 0.94557 0.67212 0.0
C736 C 0.98662 0.9594 0.67374 0.0
C737 C 0.00049 0.97023 0.64524 0.0
C738 C 0.907 0.92698 0.63846 0.0
C739 C 0.00471 0.96403 0.70591 0.0
H740 H 0.90139 0.96878 0.76683 0.0
H741 H 0.93878 0.87597 0.75766 0.0
H742 H 0.94261 0.0046 0.70569 0.0
H743 H 0.9072 0.98968 0.6852 0.0
H744 H 0.9062 0.00651 0.72636 0.0
H745 H 0.95991 0.85703 0.70868 0.0
H746 H 0.95231 0.87783 0.67171 0.0
H747 H 0.98676 0.88858 0.69599 0.0
H748 H 0.94151 0.95185 0.58964 0.0
H749 H 0.02401 0.98114 0.64717 0.0
H750 H 0.89093 0.94256 0.65145 0.0
H751 H 0.90575 0.90353 0.65032 0.0
H752 H 0.8987 0.92333 0.61259 0.0
H753 H 0.99281 0.98076 0.72239 0.0
H754 H 0.02899 0.97386 0.70279 0.0
H755 H 0.00555 0.94094 0.71827 0.0
C756 C 0.56085 0.09072 0.25631 0.0
C757 C 0.58973 0.08357 0.26998 0.0
C758 C 0.54989 0.07633 0.22633 0.0
C759 C 0.56836 0.05435 0.20961 0.0
C760 C 0.59648 0.04544 0.22444 0.0
C761 C 0.60682 0.06014 0.25446 0.0
C762 C 0.51983 0.08667 0.21135 0.0
C763 C 0.61702 0.02249 0.20725 0.0
C764 C 0.53225 0.01467 0.13085 0.0
C765 C 0.54369 0.03607 0.10788 0.0
C766 C 0.54135 0.01913 0.16419 0.0
C767 C 0.56155 0.04593 0.1744 0.0
C768 C 0.57446 0.06629 0.15081 0.0
C769 C 0.56599 0.06057 0.11791 0.0
C770 C 0.52796 0.99642 0.18866 0.0
C771 C 0.59528 0.09576 0.16041 0.0
H772 H 0.5474 0.10856 0.26844 0.0
H773 H 0.62933 0.05476 0.2647 0.0
H774 H 0.52508 0.10158 0.19006 0.0
H775 H 0.5049 0.06552 0.20226 0.0
H776 H 0.50649 0.10089 0.22901 0.0
H777 H 0.63526 0.01404 0.224 0.0
H778 H 0.6029 0.00144 0.19654 0.0
H779 H 0.62875 0.03466 0.18687 0.0
H780 H 0.51478 0.99595 0.12323 0.0
H781 H 0.57496 0.07709 0.1001 0.0
H782 H 0.51081 0.00869 0.20371 0.0
H783 H 0.54663 0.98909 0.20553 0.0
H784 H 0.5161 0.97463 0.17657 0.0
H785 H 0.58199 0.11281 0.17514 0.0
H786 H 0.60433 0.10833 0.13884 0.0
H787 H 0.61537 0.08928 0.17577 0.0
C788 C 0.38409 0.5803 0.28104 0.0
C789 C 0.4084 0.59325 0.26248 0.0
C790 C 0.38952 0.5717 0.31345 0.0
C791 C 0.42013 0.57531 0.32721 0.0
C792 C 0.44468 0.58876 0.30857 0.0
C793 C 0.43838 0.59796 0.27661 0.0
C794 C 0.36264 0.55804 0.3326 0.0
C795 C 0.47802 0.5915 0.32147 0.0
C796 C 0.45 0.5693 0.41443 0.0
C797 C 0.45781 0.53732 0.41396 0.0
C798 C 0.43354 0.58113 0.38769 0.0
C799 C 0.42765 0.56122 0.35909 0.0
C800 C 0.43354 0.52831 0.35976 0.0
C801 C 0.44667 0.51648 0.3881 0.0
C802 C 0.42483 0.61552 0.38899 0.0
C803 C 0.42929 0.50611 0.32971 0.0
H804 H 0.36081 0.5769 0.27019 0.0
H805 H 0.45725 0.60761 0.26211 0.0
H806 H 0.3637 0.53168 0.33338 0.0
H807 H 0.36394 0.56787 0.3582 0.0
H808 H 0.33979 0.56316 0.32133 0.0
H809 H 0.49426 0.60264 0.30387 0.0
H810 H 0.47991 0.60606 0.34467 0.0
H811 H 0.48572 0.56731 0.32677 0.0
H812 H 0.45857 0.58548 0.43439 0.0
H813 H 0.4528 0.49166 0.38793 0.0
H814 H 0.40175 0.61772 0.37675 0.0
H815 H 0.44225 0.63054 0.37597 0.0
H816 H 0.42407 0.62514 0.4146 0.0
H817 H 0.40431 0.49837 0.32611 0.0
H818 H 0.4425 0.48423 0.33204 0.0
H819 H 0.43705 0.51817 0.30736 0.0
C820 C 0.1045 0.44511 0.7765 0.0
C821 C 0.08005 0.44162 0.75319 0.0
C822 C 0.09883 0.45272 0.80936 0.0
C823 C 0.06803 0.45764 0.81886 0.0
C824 C 0.04348 0.45611 0.79487 0.0
C825 C 0.04972 0.44747 0.76229 0.0
C826 C 0.12544 0.45329 0.83418 0.0
C827 C 0.01048 0.46252 0.80376 0.0
C828 C 0.03606 0.44172 0.90239 0.0
C829 C 0.03493 0.47295 0.91558 0.0
C830 C 0.04956 0.43604 0.87198 0.0
C831 C 0.06101 0.4624 0.85406 0.0
C832 C 0.06282 0.49356 0.8689 0.0
C833 C 0.05088 0.49821 0.9002 0.0
C834 C 0.0485 0.40223 0.8576 0.0
C835 C 0.07347 0.5225 0.8502 0.0
H836 H 0.12787 0.44004 0.76929 0.0
H837 H 0.03088 0.44452 0.74411 0.0
H838 H 0.12576 0.47513 0.85041 0.0
H839 H 0.1222 0.43235 0.84988 0.0
H840 H 0.14839 0.45234 0.82242 0.0
H841 H 0.99493 0.46378 0.7818 0.0
H842 H 0.00088 0.44319 0.81911 0.0
H843 H 0.0101 0.48541 0.81833 0.0
H844 H 0.02334 0.42224 0.91399 0.0
H845 H 0.04938 0.52249 0.91008 0.0
H846 H 0.07061 0.39754 0.84534 0.0
H847 H 0.02935 0.39891 0.83889 0.0
H848 H 0.04436 0.38424 0.87655 0.0
H849 H 0.09591 0.51872 0.83832 0.0
H850 H 0.07618 0.54463 0.86615 0.0
H851 H 0.05601 0.5263 0.83049 0.0
C852 C 0.72441 0.92356 0.92395 0.0
C853 C 0.75208 0.93565 0.94013 0.0
C854 C 0.69516 0.93436 0.93277 0.0
C855 C 0.69337 0.95818 0.95819 0.0
C856 C 0.72133 0.97116 0.97385 0.0
C857 C 0.75017 0.95975 0.96474 0.0
C858 C 0.66606 0.91944 0.91561 0.0
C859 C 0.7207 0.99648 0.00104 0.0
C860 C 0.61615 -0.00101 0.96957 0.0
C861 C 0.60266 0.98114 0.99451 0.0
C862 C 0.64591 0.9923 0.95779 0.0
C863 C 0.66234 0.96695 0.97092 0.0
C864 C 0.64912 0.94965 0.99672 0.0
C865 C 0.61994 0.95725 0.00841 0.0
C866 C 0.65935 0.01162 0.93056 0.0
C867 C 0.66517 0.92201 0.01115 0.0
H868 H 0.7255 0.90484 0.90505 0.0
H869 H 0.77136 0.96974 0.97705 0.0
H870 H 0.65075 0.90761 0.93358 0.0
H871 H 0.65275 0.9383 0.90435 0.0
H872 H 0.67134 0.9014 0.89624 0.0
H873 H 0.74445 0.00625 0.00875 0.0
H874 H 0.7068 0.0165 0.99318 0.0
H875 H 0.70926 0.98612 0.02257 0.0
H876 H 0.60293 0.01708 0.95826 0.0
H877 H 0.60983 0.94318 0.02764 0.0
H878 H 0.66143 0.99586 0.90841 0.0
H879 H 0.68316 0.02159 0.93766 0.0
H880 H 0.64472 0.03163 0.92423 0.0
H881 H 0.66816 0.9032 0.99183 0.0
H882 H 0.65188 0.91103 0.03125 0.0
H883 H 0.68875 0.93021 0.02079 0.0
C884 C 0.76808 0.0747 0.4604 0.0
C885 C 0.76977 0.10005 0.43893 0.0
C886 C 0.7954 0.06151 0.47217 0.0
C887 C 0.82489 0.07439 0.46255 0.0
C888 C 0.82656 0.10101 0.44217 0.0
C889 C 0.79902 0.11339 0.43054 0.0
C890 C 0.79272 0.0329 0.49354 0.0
C891 C 0.85743 0.11539 0.43113 0.0
C892 C 0.90267 0.05389 0.50093 0.0
C893 C 0.91281 0.03213 0.47721 0.0
C894 C 0.87336 0.06703 0.49736 0.0
C895 C 0.85382 0.05776 0.46975 0.0
C896 C 0.86348 0.03466 0.44667 0.0
C897 C 0.89278 0.02235 0.4506 0.0
C898 C 0.86375 0.09162 0.52241 0.0
C899 C 0.84334 0.02372 0.41706 0.0
H900 H 0.74544 0.06437 0.46685 0.0
H901 H 0.80032 0.13328 0.41428 0.0
H902 H 0.80167 0.01174 0.48054 0.0
H903 H 0.80723 0.03755 0.5162 0.0
H904 H 0.76826 0.02689 0.50035 0.0
H905 H 0.85485 0.13796 0.41812 0.0
H906 H 0.87373 0.12041 0.45238 0.0
H907 H 0.86821 0.09804 0.41436 0.0
H908 H 0.91793 0.06129 0.52167 0.0
H909 H 0.90006 0.00494 0.4325 0.0
H910 H 0.84033 0.08461 0.53149 0.0
H911 H 0.86212 0.11509 0.51089 0.0
H912 H 0.88052 0.09468 0.54356 0.0
H913 H 0.81974 0.01537 0.42465 0.0
H914 H 0.8534 0.00399 0.40266 0.0
H915 H 0.84056 0.0441 0.40085 0.0
C916 C 0.23319 0.61442 0.06692 0.0
C917 C 0.25281 0.59082 0.07666 0.0
C918 C 0.20214 0.60627 0.05704 0.0
C919 C 0.19059 0.57386 0.05742 0.0
C920 C 0.2105 0.55001 0.06743 0.0
C921 C 0.24154 0.5588 0.07668 0.0
C922 C 0.18152 0.63233 0.04684 0.0
C923 C 0.19881 0.51536 0.06916 0.0
C924 C 0.10532 0.55312 0.07009 0.0
C925 C 0.09525 0.54038 0.03916 0.0
C926 C 0.13594 0.56534 0.07596 0.0
C927 C 0.1571 0.56509 0.05012 0.0
C928 C 0.14661 0.55416 0.01824 0.0
C929 C 0.11557 0.54187 0.01304 0.0
C930 C 0.14603 0.57651 0.11037 0.0
C931 C 0.16862 0.55396 0.99013 0.0
H932 H 0.2422 0.63919 0.06707 0.0
H933 H 0.25693 0.54076 0.08447 0.0
H934 H 0.17042 0.62599 0.02251 0.0
H935 H 0.16251 0.63464 0.06445 0.0
H936 H 0.19463 0.65594 0.04571 0.0
H937 H 0.21741 0.49977 0.0771 0.0
H938 H 0.17952 0.51326 0.08662 0.0
H939 H 0.18934 0.50629 0.04488 0.0
H940 H 0.08942 0.55224 0.09026 0.0
H941 H 0.10778 0.53187 0.98921 0.0
H942 H 0.15826 0.6006 0.11041 0.0
H943 H 0.16266 0.55986 0.12042 0.0
H944 H 0.12605 0.57753 0.12701 0.0
H945 H 0.18049 0.57806 0.98807 0.0
H946 H 0.15645 0.54681 0.96648 0.0
H947 H 0.18696 0.53698 0.99476 0.0
C948 C 0.24719 0.46608 0.56048 0.0
C949 C 0.23818 0.43385 0.5646 0.0
C950 C 0.2767 0.47489 0.54848 0.0
C951 C 0.29769 0.45084 0.54127 0.0
C952 C 0.28778 0.41814 0.54364 0.0
C953 C 0.25803 0.41005 0.5552 0.0
C954 C 0.28636 0.51 0.54621 0.0
C955 C 0.30959 0.39181 0.53707 0.0
C956 C 0.37713 0.47521 0.50669 0.0
C957 C 0.39522 0.47995 0.53562 0.0
C958 C 0.34525 0.46508 0.50781 0.0
C959 C 0.33148 0.4599 0.53849 0.0
C960 C 0.35006 0.46357 0.56749 0.0
C961 C 0.38155 0.47309 0.56561 0.0
C962 C 0.32611 0.46084 0.47642 0.0
C963 C 0.33655 0.45839 0.60082 0.0
H964 H 0.23173 0.48438 0.56801 0.0
H965 H 0.25097 0.38514 0.55885 0.0
H966 H 0.30322 0.51742 0.56645 0.0
H967 H 0.29819 0.51442 0.52288 0.0
H968 H 0.26615 0.52528 0.5479 0.0
H969 H 0.29695 0.36785 0.53464 0.0
H970 H 0.32267 0.39611 0.51448 0.0
H971 H 0.32687 0.39149 0.55763 0.0
H972 H 0.38752 0.48041 0.48348 0.0
H973 H 0.39542 0.47598 0.58814 0.0
H974 H 0.30861 0.47928 0.47577 0.0
H975 H 0.31313 0.43708 0.47518 0.0
H976 H 0.34072 0.46299 0.45451 0.0
H977 H 0.31837 0.47561 0.60553 0.0
H978 H 0.35447 0.46159 0.62089 0.0
H979 H 0.32527 0.43391 0.60174 0.0
C980 C 0.95308 0.75828 0.96023 0.0
C981 C 0.92148 0.76273 0.95284 0.0
C982 C 0.96321 0.72837 0.96925 0.0
C983 C 0.94157 0.70154 0.97 0.0
C984 C 0.90961 0.70578 0.96306 0.0
C985 C 0.89995 0.73626 0.9551 0.0
C986 C -0.00252 0.72516 0.97648 0.0
C987 C 0.88576 0.67778 0.96264 0.0
C988 C 0.97405 0.62191 0.94594 0.0
C989 C 0.97483 0.60554 0.97547 0.0
C990 C 0.96275 0.65248 0.94402 0.0
C991 C 0.95309 0.6685 0.97264 0.0
C992 C 0.95499 0.65305 0.00297 0.0
C993 C 0.96553 0.62156 0.00402 0.0
C994 C 0.96042 0.66724 0.9109 0.0
C995 C 0.94582 0.66977 0.03421 0.0
H996 H 0.97034 0.77795 0.95803 0.0
H997 H 0.87541 0.73915 0.9503 0.0
H998 H 0.0008 0.71126 0.99875 0.0
H999 H 0.00783 0.71191 0.95587 0.0
H1000 H 0.01046 0.74885 0.98002 0.0
H1001 H 0.86182 0.68495 0.95686 0.0
H1002 H 0.89187 0.65928 0.94413 0.0
H1003 H 0.88579 0.66651 0.98673 0.0
H1004 H 0.98142 0.61039 0.92352 0.0
H1005 H 0.96593 0.60939 0.02693 0.0
H1006 H 0.97562 0.68958 0.91066 0.0
H1007 H 0.93616 0.67373 0.90583 0.0
H1008 H 0.9673 0.65085 0.89072 0.0
H1009 H 0.96111 0.69187 0.03888 0.0
H1010 H 0.94762 0.65434 0.0556 0.0
H1011 H 0.92156 0.67721 0.03185 0.0
C1012 C 0.4462 0.77988 0.09713 0.0
C1013 C 0.41542 0.76749 0.10022 0.0
C1014 C 0.45265 0.81139 0.08767 0.0
C1015 C 0.42771 0.83132 0.08194 0.0
C1016 C 0.39681 0.8199 0.08776 0.0
C1017 C 0.39096 0.78799 0.09642 0.0
C1018 C 0.48601 0.82252 0.08154 0.0
C1019 C 0.36973 0.84071 0.0827 0.0
C1020 C 0.45722 0.91585 0.06305 0.0
C1021 C 0.45894 0.91264 0.02901 0.0
C1022 C 0.44424 0.89042 0.08093 0.0
C1023 C 0.43365 0.86133 0.06418 0.0
C1024 C 0.43262 0.8595 0.02959 0.0
C1025 C 0.44461 0.8855 0.0125 0.0
C1026 C 0.4444 0.89376 0.11772 0.0
C1027 C 0.42234 0.82884 0.01054 0.0
H1028 H 0.46532 0.76457 0.10105 0.0
H1029 H 0.36706 0.77876 0.09865 0.0
H1030 H 0.48864 0.82725 0.05521 0.0
H1031 H 0.49231 0.84528 0.09554 0.0
H1032 H 0.50277 0.80456 0.08848 0.0
H1033 H 0.34834 0.83084 0.09434 0.0
H1034 H 0.37551 0.86539 0.0928 0.0
H1035 H 0.3646 0.84235 0.05614 0.0
H1036 H 0.46832 0.93684 0.07582 0.0
H1037 H 0.4457 0.88326 0.98605 0.0
H1038 H 0.46525 0.88286 0.12794 0.0
H1039 H 0.42345 0.88116 0.12765 0.0
H1040 H 0.44534 0.91935 0.12623 0.0
H1041 H 0.43916 0.81032 0.01535 0.0
H1042 H 0.42101 0.83217 0.98375 0.0
H1043 H 0.3992 0.81944 0.01843 0.0
C1044 C 0.07804 0.22905 0.57615 0.0
C1045 C 0.06429 0.25783 0.56984 0.0
C1046 C 0.06344 0.19937 0.56613 0.0
C1047 C 0.03421 0.19822 0.54914 0.0
C1048 C 0.02013 0.22714 0.54256 0.0
C1049 C 0.03527 0.25666 0.55318 0.0
C1050 C 0.07918 0.16919 0.57435 0.0
C1051 C 0.98902 0.22689 0.52467 0.0
C1052 C 0.02385 0.11545 0.50992 0.0
C1053 C 0.00992 0.09913 0.5355 0.0
C1054 C 0.02796 0.14912 0.51157 0.0
C1055 C 0.01849 0.16632 0.53977 0.0
C1056 C 7e-05 0.15013 0.56292 0.0
C1057 C 0.99536 0.11668 0.55995 0.0
C1058 C 0.04643 0.16566 0.48557 0.0
C1059 C 0.98995 0.16699 0.59378 0.0
H1060 H 0.10006 0.22965 0.58973 0.0
H1061 H 0.0245 0.27881 0.54823 0.0
H1062 H 0.06359 0.15372 0.58913 0.0
H1063 H 0.08396 0.15535 0.55157 0.0
H1064 H 0.10156 0.17431 0.58826 0.0
H1065 H 0.9827 0.25137 0.51855 0.0
H1066 H 0.98927 0.21185 0.50178 0.0
H1067 H 0.97056 0.21617 0.54004 0.0
H1068 H 0.03527 0.10195 0.49103 0.0
H1069 H 0.98472 0.10397 0.57987 0.0
H1070 H 0.07108 0.16978 0.49416 0.0
H1071 H 0.03731 0.18934 0.48068 0.0
H1072 H 0.04589 0.15093 0.46238 0.0
H1073 H 0.0098 0.16912 0.61177 0.0
H1074 H 0.97025 0.15337 0.60501 0.0
H1075 H 0.98296 0.19151 0.5891 0.0
C1076 C 0.60086 0.296 0.43849 0.0
C1077 C 0.5902 0.26472 0.44554 0.0
C1078 C 0.58382 0.32243 0.44719 0.0
C1079 C 0.55542 0.31761 0.46365 0.0
C1080 C 0.54467 0.28617 0.47125 0.0
C1081 C 0.56213 0.26006 0.46199 0.0
C1082 C 0.59576 0.35544 0.43777 0.0
C1083 C 0.51437 0.28008 0.48844 0.0
C1084 C 0.52835 0.39492 0.50237 0.0
C1085 C 0.50899 0.40506 0.47724 0.0
C1086 C 0.54195 0.36514 0.49945 0.0
C1087 C 0.53618 0.34544 0.4707 0.0
C1088 C 0.51451 0.35445 0.44668 0.0
C1089 C 0.50088 0.38388 0.45052 0.0
C1090 C 0.56441 0.35596 0.5259 0.0
C1091 C 0.50801 0.33469 0.41531 0.0
H1092 H 0.62212 0.29976 0.42509 0.0
H1093 H 0.55376 0.23597 0.46754 0.0
H1094 H 0.57854 0.36579 0.42119 0.0
H1095 H 0.59875 0.37163 0.45986 0.0
H1096 H 0.6184 0.35511 0.42529 0.0
H1097 H 0.51035 0.25458 0.49472 0.0
H1098 H 0.51416 0.29534 0.51119 0.0
H1099 H 0.49465 0.28665 0.47255 0.0
H1100 H 0.53483 0.41118 0.52298 0.0
H1101 H 0.48569 0.39149 0.4311 0.0
H1102 H 0.58856 0.35845 0.51697 0.0
H1103 H 0.55968 0.33053 0.53199 0.0
H1104 H 0.56305 0.37131 0.54851 0.0
H1105 H 0.52867 0.33689 0.39964 0.0
H1106 H 0.4876 0.3427 0.40132 0.0
H1107 H 0.50377 0.30897 0.42033 0.0
loop_
_geom_bond_atom_site_label_1
_geom_bond_atom_site_label_2
_geom_bond_distance
_geom_bond_site_symmetry_2
_ccdc_geom_bond_type
P0 O11 1.490 . S
P0 C14 1.812 . S
P0 C20 1.803 . S
P0 C26 1.819 . S
H1 C15 0.941 . S
H2 C16 0.939 . S
H3 C18 0.940 . S
H4 C19 0.940 . S
H5 C21 0.939 . S
H6 C22 0.942 . S
H7 C24 0.940 . S
H8 C25 0.939 . S
H9 C27 0.941 . S
H10 C31 0.939 . S
O11 P0 1.490 . S
H12 C28 0.939 . S
H13 C30 0.940 . S
C14 P0 1.812 . S
C14 C15 1.389 . S
C14 C19 1.391 . S
C15 H1 0.941 . S
C15 C14 1.389 . S
C15 C16 1.397 . S
C16 H2 0.939 . S
C16 C15 1.397 . S
C16 C17 1.378 . S
C17 C16 1.378 . S
C17 C18 1.378 . S
C18 H3 0.940 . S
C18 C17 1.378 . S
C18 C19 1.396 . S
C19 H4 0.940 . S
C19 C14 1.391 . S
C19 C18 1.396 . S
C20 P0 1.803 . S
C20 C21 1.378 . S
C20 C25 1.400 . S
C21 H5 0.939 . S
C21 C20 1.378 . S
C21 C22 1.361 . S
C22 H6 0.942 . S
C22 C21 1.361 . S
C22 C23 1.369 . S
C23 C22 1.369 . S
C23 C24 1.404 . S
C24 H7 0.940 . S
C24 C23 1.404 . S
C24 C25 1.389 . S
C25 H8 0.939 . S
C25 C20 1.400 . S
C25 C24 1.389 . S
C26 P0 1.819 . S
C26 C27 1.391 . S
C26 C31 1.391 . S
C27 H9 0.941 . S
C27 C26 1.391 . S
C27 C28 1.396 . S
C28 H12 0.939 . S
C28 C27 1.396 . S
C28 C29 1.397 . S
C29 C28 1.397 . S
C29 C30 1.385 . S
C30 H13 0.940 . S
C30 C29 1.385 . S
C30 C31 1.388 . S
C31 H10 0.939 . S
C31 C26 1.391 . S
C31 C30 1.388 . S
P32 O43 1.490 . S
P32 C46 1.812 . S
P32 C52 1.803 . S
P32 C58 1.819 . S
H33 C47 0.941 . S
H34 C48 0.939 . S
H35 C50 0.940 . S
H36 C51 0.940 . S
H37 C53 0.939 . S
H38 C54 0.942 . S
H39 C56 0.940 . S
H40 C57 0.939 . S
H41 C59 0.941 . S
H42 C63 0.939 . S
O43 P32 1.490 . S
H44 C60 0.939 . S
H45 C62 0.940 . S
C46 P32 1.812 . S
C46 C47 1.389 . S
C46 C51 1.391 . S
C47 H33 0.941 . S
C47 C46 1.389 . S
C47 C48 1.397 . S
C48 H34 0.939 . S
C48 C47 1.397 . S
C48 C49 1.378 . S
C49 C48 1.378 . S
C49 C50 1.378 . S
C50 H35 0.940 . S
C50 C49 1.378 . S
C50 C51 1.396 . S
C51 H36 0.940 . S
C51 C46 1.391 . S
C51 C50 1.396 . S
C52 P32 1.803 . S
C52 C53 1.378 . S
C52 C57 1.400 . S
C53 H37 0.939 . S
C53 C52 1.378 . S
C53 C54 1.361 . S
C54 H38 0.942 . S
C54 C53 1.361 . S
C54 C55 1.369 . S
C55 C54 1.369 . S
C55 C56 1.404 . S
C56 H39 0.940 . S
C56 C55 1.404 . S
C56 C57 1.389 . S
C57 H40 0.939 . S
C57 C52 1.400 . S
C57 C56 1.389 . S
C58 P32 1.819 . S
C58 C59 1.391 . S
C58 C63 1.391 . S
C59 H41 0.941 . S
C59 C58 1.391 . S
C59 C60 1.396 . S
C60 H44 0.939 . S
C60 C59 1.396 . S
C60 C61 1.397 . S
C61 C60 1.397 . S
C61 C62 1.385 . S
C62 H45 0.940 . S
C62 C61 1.385 . S
C62 C63 1.388 . S
C63 H42 0.939 . S
C63 C58 1.391 . S
C63 C62 1.388 . S
P64 O75 1.490 . S
P64 C78 1.812 . S
P64 C84 1.803 . S
P64 C90 1.819 . S
H65 C79 0.941 . S
H66 C80 0.939 . S
H67 C82 0.940 . S
H68 C83 0.940 . S
H69 C85 0.939 . S
H70 C86 0.942 . S
H71 C88 0.940 . S
H72 C89 0.939 . S
H73 C91 0.941 . S
H74 C95 0.939 . S
O75 P64 1.490 . S
H76 C92 0.939 . S
H77 C94 0.940 . S
C78 P64 1.812 . S
C78 C79 1.389 . S
C78 C83 1.391 . S
C79 H65 0.941 . S
C79 C78 1.389 . S
C79 C80 1.397 . S
C80 H66 0.939 . S
C80 C79 1.397 . S
C80 C81 1.378 . S
C81 C80 1.378 . S
C81 C82 1.378 . S
C82 H67 0.940 . S
C82 C81 1.378 . S
C82 C83 1.396 . S
C83 H68 0.940 . S
C83 C78 1.391 . S
C83 C82 1.396 . S
C84 P64 1.803 . S
C84 C85 1.378 . S
C84 C89 1.400 . S
C85 H69 0.939 . S
C85 C84 1.378 . S
C85 C86 1.361 . S
C86 H70 0.942 . S
C86 C85 1.361 . S
C86 C87 1.369 . S
C87 C86 1.369 . S
C87 C88 1.404 . S
C88 H71 0.940 . S
C88 C87 1.404 . S
C88 C89 1.389 . S
C89 H72 0.939 . S
C89 C84 1.400 . S
C89 C88 1.389 . S
C90 P64 1.819 . S
C90 C91 1.391 . S
C90 C95 1.391 . S
C91 H73 0.941 . S
C91 C90 1.391 . S
C91 C92 1.396 . S
C92 H76 0.939 . S
C92 C91 1.396 . S
C92 C93 1.397 . S
C93 C92 1.397 . S
C93 C94 1.385 . S
C94 H77 0.940 . S
C94 C93 1.385 . S
C94 C95 1.388 . S
C95 H74 0.939 . S
C95 C90 1.391 . S
C95 C94 1.388 . S
P96 O107 1.490 . S
P96 C110 1.812 . S
P96 C116 1.803 . S
P96 C122 1.819 . S
H97 C111 0.941 . S
H98 C112 0.939 . S
H99 C114 0.940 . S
H100 C115 0.940 . S
H101 C117 0.939 . S
H102 C118 0.942 . S
H103 C120 0.940 . S
H104 C121 0.939 . S
H105 C123 0.941 . S
H106 C127 0.939 . S
O107 P96 1.490 . S
H108 C124 0.939 . S
H109 C126 0.940 . S
C110 P96 1.812 . S
C110 C111 1.389 . S
C110 C115 1.391 . S
C111 H97 0.941 . S
C111 C110 1.389 . S
C111 C112 1.397 . S
C112 H98 0.939 . S
C112 C111 1.397 . S
C112 C113 1.378 . S
C113 C112 1.378 . S
C113 C114 1.378 . S
C114 H99 0.940 . S
C114 C113 1.378 . S
C114 C115 1.396 . S
C115 H100 0.940 . S
C115 C110 1.391 . S
C115 C114 1.396 . S
C116 P96 1.803 . S
C116 C117 1.378 . S
C116 C121 1.400 . S
C117 H101 0.939 . S
C117 C116 1.378 . S
C117 C118 1.361 . S
C118 H102 0.942 . S
C118 C117 1.361 . S
C118 C119 1.369 . S
C119 C118 1.369 . S
C119 C120 1.404 . S
C120 H103 0.940 . S
C120 C119 1.404 . S
C120 C121 1.389 . S
C121 H104 0.939 . S
C121 C116 1.400 . S
C121 C120 1.389 . S
C122 P96 1.819 . S
C122 C123 1.391 . S
C122 C127 1.391 . S
C123 H105 0.941 . S
C123 C122 1.391 . S
C123 C124 1.396 . S
C124 H108 0.939 . S
C124 C123 1.396 . S
C124 C125 1.397 . S
C125 C124 1.397 . S
C125 C126 1.385 . S
C126 H109 0.940 . S
C126 C125 1.385 . S
C126 C127 1.388 . S
C127 H106 0.939 . S
C127 C122 1.391 . S
C127 C126 1.388 . S
P128 O139 1.490 . S
P128 C142 1.812 . S
P128 C148 1.803 . S
P128 C154 1.819 . S
H129 C143 0.941 . S
H130 C144 0.939 . S
H131 C146 0.940 . S
H132 C147 0.940 . S
H133 C149 0.939 . S
H134 C150 0.942 . S
H135 C152 0.940 . S
H136 C153 0.939 . S
H137 C155 0.941 . S
H138 C159 0.939 . S
O139 P128 1.490 . S
H140 C156 0.939 . S
H141 C158 0.940 . S
C142 P128 1.812 . S
C142 C143 1.389 . S
C142 C147 1.391 . S
C143 H129 0.941 . S
C143 C142 1.389 . S
C143 C144 1.397 . S
C144 H130 0.939 . S
C144 C143 1.397 . S
C144 C145 1.378 . S
C145 C144 1.378 . S
C145 C146 1.378 . S
C146 H131 0.940 . S
C146 C145 1.378 . S
C146 C147 1.396 . S
C147 H132 0.940 . S
C147 C142 1.391 . S
C147 C146 1.396 . S
C148 P128 1.803 . S
C148 C149 1.378 . S
C148 C153 1.400 . S
C149 H133 0.939 . S
C149 C148 1.378 . S
C149 C150 1.361 . S
C150 H134 0.942 . S
C150 C149 1.361 . S
C150 C151 1.369 . S
C151 C150 1.369 . S
C151 C152 1.404 . S
C152 H135 0.940 . S
C152 C151 1.404 . S
C152 C153 1.389 . S
C153 H136 0.939 . S
C153 C148 1.400 . S
C153 C152 1.389 . S
C154 P128 1.819 . S
C154 C155 1.391 . S
C154 C159 1.391 . S
C155 H137 0.941 . S
C155 C154 1.391 . S
C155 C156 1.396 . S
C156 H140 0.939 . S
C156 C155 1.396 . S
C156 C157 1.397 . S
C157 C156 1.397 . S
C157 C158 1.385 . S
C158 H141 0.940 . S
C158 C157 1.385 . S
C158 C159 1.388 . S
C159 H138 0.939 . S
C159 C154 1.391 . S
C159 C158 1.388 . S
P160 O171 1.490 . S
P160 C174 1.812 . S
P160 C180 1.803 . S
P160 C186 1.819 . S
H161 C175 0.941 . S
H162 C176 0.939 . S
H163 C178 0.940 . S
H164 C179 0.940 . S
H165 C181 0.939 . S
H166 C182 0.942 . S
H167 C184 0.940 . S
H168 C185 0.939 . S
H169 C187 0.941 . S
H170 C191 0.939 . S
O171 P160 1.490 . S
H172 C188 0.939 . S
H173 C190 0.940 . S
C174 P160 1.812 . S
C174 C175 1.389 . S
C174 C179 1.391 . S
C175 H161 0.941 . S
C175 C174 1.389 . S
C175 C176 1.397 . S
C176 H162 0.939 . S
C176 C175 1.397 . S
C176 C177 1.378 . S
C177 C176 1.378 . S
C177 C178 1.378 . S
C178 H163 0.940 . S
C178 C177 1.378 . S
C178 C179 1.396 . S
C179 H164 0.940 . S
C179 C174 1.391 . S
C179 C178 1.396 . S
C180 P160 1.803 . S
C180 C181 1.378 . S
C180 C185 1.400 . S
C181 H165 0.939 . S
C181 C180 1.378 . S
C181 C182 1.361 . S
C182 H166 0.942 . S
C182 C181 1.361 . S
C182 C183 1.369 . S
C183 C182 1.369 . S
C183 C184 1.404 . S
C184 H167 0.940 . S
C184 C183 1.404 . S
C184 C185 1.389 . S
C185 H168 0.939 . S
C185 C180 1.400 . S
C185 C184 1.389 . S
C186 P160 1.819 . S
C186 C187 1.391 . S
C186 C191 1.391 . S
C187 H169 0.941 . S
C187 C186 1.391 . S
C187 C188 1.396 . S
C188 H172 0.939 . S
C188 C187 1.396 . S
C188 C189 1.397 . S
C189 C188 1.397 . S
C189 C190 1.385 . S
C190 H173 0.940 . S
C190 C189 1.385 . S
C190 C191 1.388 . S
C191 H170 0.939 . S
C191 C186 1.391 . S
C191 C190 1.388 . S
P192 O203 1.490 . S
P192 C206 1.812 . S
P192 C212 1.803 . S
P192 C218 1.819 . S
H193 C207 0.941 . S
H194 C208 0.939 . S
H195 C210 0.940 . S
H196 C211 0.940 . S
H197 C213 0.939 . S
H198 C214 0.942 . S
H199 C216 0.940 . S
H200 C217 0.939 . S
H201 C219 0.941 . S
H202 C223 0.939 . S
O203 P192 1.490 . S
H204 C220 0.939 . S
H205 C222 0.940 . S
C206 P192 1.812 . S
C206 C207 1.389 . S
C206 C211 1.391 . S
C207 H193 0.941 . S
C207 C206 1.389 . S
C207 C208 1.397 . S
C208 H194 0.939 . S
C208 C207 1.397 . S
C208 C209 1.378 . S
C209 C208 1.378 . S
C209 C210 1.378 . S
C210 H195 0.940 . S
C210 C209 1.378 . S
C210 C211 1.396 . S
C211 H196 0.940 . S
C211 C206 1.391 . S
C211 C210 1.396 . S
C212 P192 1.803 . S
C212 C213 1.378 . S
C212 C217 1.400 . S
C213 H197 0.939 . S
C213 C212 1.378 . S
C213 C214 1.361 . S
C214 H198 0.942 . S
C214 C213 1.361 . S
C214 C215 1.369 . S
C215 C214 1.369 . S
C215 C216 1.404 . S
C216 H199 0.940 . S
C216 C215 1.404 . S
C216 C217 1.389 . S
C217 H200 0.939 . S
C217 C212 1.400 . S
C217 C216 1.389 . S
C218 P192 1.819 . S
C218 C219 1.391 . S
C218 C223 1.391 . S
C219 H201 0.941 . S
C219 C218 1.391 . S
C219 C220 1.396 . S
C220 H204 0.939 . S
C220 C219 1.396 . S
C220 C221 1.397 . S
C221 C220 1.397 . S
C221 C222 1.385 . S
C222 H205 0.940 . S
C222 C221 1.385 . S
C222 C223 1.388 . S
C223 H202 0.939 . S
C223 C218 1.391 . S
C223 C222 1.388 . S
P224 O235 1.490 . S
P224 C238 1.812 . S
P224 C244 1.803 . S
P224 C250 1.819 . S
H225 C239 0.941 . S
H226 C240 0.939 . S
H227 C242 0.940 . S
H228 C243 0.940 . S
H229 C245 0.939 . S
H230 C246 0.942 . S
H231 C248 0.940 . S
H232 C249 0.939 . S
H233 C251 0.941 . S
H234 C255 0.939 . S
O235 P224 1.490 . S
H236 C252 0.939 . S
H237 C254 0.940 . S
C238 P224 1.812 . S
C238 C239 1.389 . S
C238 C243 1.391 . S
C239 H225 0.941 . S
C239 C238 1.389 . S
C239 C240 1.397 . S
C240 H226 0.939 . S
C240 C239 1.397 . S
C240 C241 1.378 . S
C241 C240 1.378 . S
C241 C242 1.378 . S
C242 H227 0.940 . S
C242 C241 1.378 . S
C242 C243 1.396 . S
C243 H228 0.940 . S
C243 C238 1.391 . S
C243 C242 1.396 . S
C244 P224 1.803 . S
C244 C245 1.378 . S
C244 C249 1.400 . S
C245 H229 0.939 . S
C245 C244 1.378 . S
C245 C246 1.361 . S
C246 H230 0.942 . S
C246 C245 1.361 . S
C246 C247 1.369 . S
C247 C246 1.369 . S
C247 C248 1.404 . S
C248 H231 0.940 . S
C248 C247 1.404 . S
C248 C249 1.389 . S
C249 H232 0.939 . S
C249 C244 1.400 . S
C249 C248 1.389 . S
C250 P224 1.819 . S
C250 C251 1.391 . S
C250 C255 1.391 . S
C251 H233 0.941 . S
C251 C250 1.391 . S
C251 C252 1.396 . S
C252 H236 0.939 . S
C252 C251 1.396 . S
C252 C253 1.397 . S
C253 C252 1.397 . S
C253 C254 1.385 . S
C254 H237 0.940 . S
C254 C253 1.385 . S
C254 C255 1.388 . S
C255 H234 0.939 . S
C255 C250 1.391 . S
C255 C254 1.388 . S
O256 Mn257 2.163 1_655 S
O256 C270 1.244 . S
Mn257 O256 2.163 1_455 S
Mn257 O260 2.160 1_545 S
Mn257 O261 2.221 . S
Mn257 O263 2.163 1_445 S
Mn257 O265 2.160 . S
Mn257 O275 2.221 1_445 S
O258 Mn259 2.087 1_545 S
O258 C270 1.256 . S
Mn259 O258 2.087 1_565 S
Mn259 O266 2.089 1_565 S
Mn259 O275 2.290 . S
Mn259 O276 2.251 . S
O260 Mn257 2.160 1_565 S
O260 C271 1.239 . S
O261 Mn257 2.221 . S
O261 Mn262 2.290 . S
O261 C272 1.278 . S
Mn262 O261 2.290 . S
Mn262 O264 2.089 1_545 S
Mn262 O267 2.251 . S
Mn262 O268 2.087 . S
O263 Mn257 2.163 1_665 S
O263 C273 1.244 . S
O264 Mn262 2.089 1_565 S
O264 C271 1.256 . S
O265 Mn257 2.160 . S
O265 C274 1.239 . S
O266 Mn259 2.089 1_545 S
O266 C274 1.256 1_655 S
O267 Mn262 2.251 . S
O267 C272 1.241 . S
O268 Mn262 2.087 . S
O268 C273 1.256 1_445 S
C269 O275 1.278 . S
C269 O276 1.241 . S
C270 O256 1.244 . S
C270 O258 1.256 . S
C271 O260 1.239 . S
C271 O264 1.256 . S
C272 O261 1.278 . S
C272 O267 1.241 . S
C273 O263 1.244 . S
C273 O268 1.256 1_665 S
C274 O265 1.239 . S
C274 O266 1.256 1_455 S
O275 Mn257 2.221 1_665 S
O275 Mn259 2.290 . S
O275 C269 1.278 . S
O276 Mn259 2.251 . S
O276 C269 1.241 . S
O277 Mn278 2.163 1_556 S
O277 C291 1.244 1_545 S
Mn278 O277 2.163 1_554 S
Mn278 O281 2.160 . S
Mn278 O282 2.221 . S
Mn278 O284 2.163 . S
Mn278 O286 2.160 1_554 S
Mn278 O296 2.221 1_545 S
O279 Mn280 2.087 . S
O279 C291 1.256 . S
Mn280 O279 2.087 . S
Mn280 O287 2.089 . S
Mn280 O296 2.290 1_556 S
Mn280 O297 2.251 1_556 S
O281 Mn278 2.160 . S
O281 C292 1.239 . S
O282 Mn278 2.221 . S
O282 Mn283 2.290 . S
O282 C293 1.278 1_554 S
Mn283 O282 2.290 . S
Mn283 O285 2.089 . S
Mn283 O288 2.251 1_554 S
Mn283 O289 2.087 . S
O284 Mn278 2.163 . S
O284 C294 1.244 . S
O285 Mn283 2.089 . S
O285 C292 1.256 . S
O286 Mn278 2.160 1_556 S
O286 C295 1.239 1_545 S
O287 Mn280 2.089 . S
O287 C295 1.256 . S
O288 Mn283 2.251 1_556 S
O288 C293 1.241 . S
O289 Mn283 2.087 . S
O289 C294 1.256 . S
C290 O296 1.278 . S
C290 O297 1.241 . S
C291 O277 1.244 1_565 S
C291 O279 1.256 . S
C292 O281 1.239 . S
C292 O285 1.256 . S
C293 O282 1.278 1_556 S
C293 O288 1.241 . S
C294 O284 1.244 . S
C294 O289 1.256 . S
C295 O286 1.239 1_565 S
C295 O287 1.256 . S
O296 Mn278 2.221 1_565 S
O296 Mn280 2.290 1_554 S
O296 C290 1.278 . S
O297 Mn280 2.251 1_554 S
O297 C290 1.241 . S
O298 Mn299 2.163 . S
O298 C312 1.244 . S
Mn299 O298 2.163 . S
Mn299 O302 2.160 . S
Mn299 O303 2.221 . S
Mn299 O305 2.163 . S
Mn299 O307 2.160 . S
Mn299 O317 2.221 . S
O300 Mn301 2.087 . S
O300 C312 1.256 . S
Mn301 O300 2.087 . S
Mn301 O308 2.089 . S
Mn301 O317 2.290 . S
Mn301 O318 2.251 . S
O302 Mn299 2.160 . S
O302 C313 1.239 . S
O303 Mn299 2.221 . S
O303 Mn304 2.290 . S
O303 C314 1.278 . S
Mn304 O303 2.290 . S
Mn304 O306 2.089 . S
Mn304 O309 2.251 . S
Mn304 O310 2.087 . S
O305 Mn299 2.163 . S
O305 C315 1.244 . S
O306 Mn304 2.089 . S
O306 C313 1.256 . S
O307 Mn299 2.160 . S
O307 C316 1.239 . S
O308 Mn301 2.089 . S
O308 C316 1.256 . S
O309 Mn304 2.251 . S
O309 C314 1.241 . S
O310 Mn304 2.087 . S
O310 C315 1.256 . S
C311 O317 1.278 . S
C311 O318 1.241 . S
C312 O298 1.244 . S
C312 O300 1.256 . S
C313 O302 1.239 . S
C313 O306 1.256 . S
C314 O303 1.278 . S
C314 O309 1.241 . S
C315 O305 1.244 . S
C315 O310 1.256 . S
C316 O307 1.239 . S
C316 O308 1.256 . S
O317 Mn299 2.221 . S
O317 Mn301 2.290 . S
O317 C311 1.278 . S
O318 Mn301 2.251 . S
O318 C311 1.241 . S
O319 Mn320 2.163 1_655 S
O319 C333 1.244 1_554 S
Mn320 O319 2.163 1_455 S
Mn320 O323 2.160 . S
Mn320 O324 2.221 1_455 S
Mn320 O326 2.163 . S
Mn320 O328 2.160 1_454 S
Mn320 O338 2.221 1_554 S
O321 Mn322 2.087 . S
O321 C333 1.256 . S
Mn322 O321 2.087 . S
Mn322 O329 2.089 . S
Mn322 O338 2.290 1_655 S
Mn322 O339 2.251 . S
O323 Mn320 2.160 . S
O323 C334 1.239 . S
O324 Mn320 2.221 1_655 S
O324 Mn325 2.290 1_655 S
O324 C335 1.278 . S
Mn325 O324 2.290 1_455 S
Mn325 O327 2.089 . S
Mn325 O330 2.251 1_455 S
Mn325 O331 2.087 . S
O326 Mn320 2.163 . S
O326 C336 1.244 . S
O327 Mn325 2.089 . S
O327 C334 1.256 . S
O328 Mn320 2.160 1_656 S
O328 C337 1.239 . S
O329 Mn322 2.089 . S
O329 C337 1.256 . S
O330 Mn325 2.251 1_655 S
O330 C335 1.241 . S
O331 Mn325 2.087 . S
O331 C336 1.256 . S
C332 O338 1.278 . S
C332 O339 1.241 1_455 S
C333 O319 1.244 1_556 S
C333 O321 1.256 . S
C334 O323 1.239 . S
C334 O327 1.256 . S
C335 O324 1.278 . S
C335 O330 1.241 . S
C336 O326 1.244 . S
C336 O331 1.256 . S
C337 O328 1.239 . S
C337 O329 1.256 . S
O338 Mn320 2.221 1_556 S
O338 Mn322 2.290 1_455 S
O338 C332 1.278 . S
O339 Mn322 2.251 . S
O339 C332 1.241 1_655 S
C340 C341 1.391 . S
C340 C342 1.394 . S
C340 H356 0.931 . S
C341 C340 1.391 . S
C341 C345 1.376 . S
C342 C340 1.394 . S
C342 C343 1.369 . S
C342 C346 1.531 . S
C343 C342 1.369 . S
C343 C344 1.410 . S
C343 C351 1.503 . S
C344 C343 1.410 . S
C344 C345 1.392 . S
C344 C347 1.511 . S
C345 C341 1.376 . S
C345 C344 1.392 . S
C345 H357 0.929 . S
C346 C342 1.531 . S
C346 H358 0.960 . S
C346 H359 0.962 . S
C346 H360 0.960 . S
C347 C344 1.511 . S
C347 H361 0.961 . S
C347 H362 0.961 . S
C347 H363 0.961 . S
C348 C349 1.370 . S
C348 C350 1.363 . S
C348 H364 0.931 . S
C349 C348 1.370 . S
C349 C353 1.408 . S
C350 C348 1.363 . S
C350 C351 1.370 . S
C350 C354 1.524 . S
C351 C343 1.503 . S
C351 C350 1.370 . S
C351 C352 1.403 . S
C352 C351 1.403 . S
C352 C353 1.404 . S
C352 C355 1.539 . S
C353 C349 1.408 . S
C353 C352 1.404 . S
C353 H365 0.930 . S
C354 C350 1.524 . S
C354 H366 0.956 . S
C354 H367 0.961 . S
C354 H368 0.961 . S
C355 C352 1.539 . S
C355 H369 0.958 . S
C355 H370 0.961 . S
C355 H371 0.960 . S
H356 C340 0.931 . S
H357 C345 0.929 . S
H358 C346 0.960 . S
H359 C346 0.962 . S
H360 C346 0.960 . S
H361 C347 0.961 . S
H362 C347 0.961 . S
H363 C347 0.961 . S
H364 C348 0.931 . S
H365 C353 0.930 . S
H366 C354 0.956 . S
H367 C354 0.961 . S
H368 C354 0.961 . S
H369 C355 0.958 . S
H370 C355 0.961 . S
H371 C355 0.960 . S
C372 C373 1.391 . S
C372 C374 1.394 . S
C372 H388 0.931 . S
C373 C372 1.391 . S
C373 C377 1.376 . S
C374 C372 1.394 . S
C374 C375 1.369 . S
C374 C378 1.531 . S
C375 C374 1.369 . S
C375 C376 1.410 . S
C375 C383 1.503 . S
C376 C375 1.410 . S
C376 C377 1.392 . S
C376 C379 1.511 . S
C377 C373 1.376 . S
C377 C376 1.392 . S
C377 H389 0.929 . S
C378 C374 1.531 . S
C378 H390 0.960 . S
C378 H391 0.962 . S
C378 H392 0.960 . S
C379 C376 1.511 . S
C379 H393 0.961 . S
C379 H394 0.961 . S
C379 H395 0.961 . S
C380 C381 1.370 1_545 S
C380 C382 1.363 1_545 S
C380 H396 0.931 . S
C381 C380 1.370 1_565 S
C381 C385 1.408 . S
C382 C380 1.363 1_565 S
C382 C383 1.370 . S
C382 C386 1.524 1_565 S
C383 C375 1.503 . S
C383 C382 1.370 . S
C383 C384 1.403 . S
C384 C383 1.403 . S
C384 C385 1.404 . S
C384 C387 1.539 . S
C385 C381 1.408 . S
C385 C384 1.404 . S
C385 H397 0.930 . S
C386 C382 1.524 1_545 S
C386 H398 0.956 1_545 S
C386 H399 0.961 . S
C386 H400 0.961 . S
C387 C384 1.539 . S
C387 H401 0.958 . S
C387 H402 0.961 . S
C387 H403 0.960 . S
H388 C372 0.931 . S
H389 C377 0.929 . S
H390 C378 0.960 . S
H391 C378 0.962 . S
H392 C378 0.960 . S
H393 C379 0.961 . S
H394 C379 0.961 . S
H395 C379 0.961 . S
H396 C380 0.931 . S
H397 C385 0.930 . S
H398 C386 0.956 1_565 S
H399 C386 0.961 . S
H400 C386 0.961 . S
H401 C387 0.958 . S
H402 C387 0.961 . S
H403 C387 0.960 . S
C404 C405 1.391 . S
C404 C406 1.394 . S
C404 H420 0.931 . S
C405 C404 1.391 . S
C405 C409 1.376 . S
C406 C404 1.394 . S
C406 C407 1.369 . S
C406 C410 1.531 . S
C407 C406 1.369 . S
C407 C408 1.410 . S
C407 C415 1.503 . S
C408 C407 1.410 . S
C408 C409 1.392 . S
C408 C411 1.511 . S
C409 C405 1.376 . S
C409 C408 1.392 . S
C409 H421 0.929 . S
C410 C406 1.531 . S
C410 H422 0.960 . S
C410 H423 0.962 . S
C410 H424 0.960 . S
C411 C408 1.511 . S
C411 H425 0.961 . S
C411 H426 0.961 . S
C411 H427 0.961 . S
C412 C413 1.370 . S
C412 C414 1.363 . S
C412 H428 0.931 . S
C413 C412 1.370 . S
C413 C417 1.408 . S
C414 C412 1.363 . S
C414 C415 1.370 . S
C414 C418 1.524 . S
C415 C407 1.503 . S
C415 C414 1.370 . S
C415 C416 1.403 . S
C416 C415 1.403 . S
C416 C417 1.404 . S
C416 C419 1.539 . S
C417 C413 1.408 . S
C417 C416 1.404 . S
C417 H429 0.930 . S
C418 C414 1.524 . S
C418 H430 0.956 . S
C418 H431 0.961 . S
C418 H432 0.961 . S
C419 C416 1.539 . S
C419 H433 0.958 . S
C419 H434 0.961 . S
C419 H435 0.960 . S
H420 C404 0.931 . S
H421 C409 0.929 . S
H422 C410 0.960 . S
H423 C410 0.962 . S
H424 C410 0.960 . S
H425 C411 0.961 . S
H426 C411 0.961 . S
H427 C411 0.961 . S
H428 C412 0.931 . S
H429 C417 0.930 . S
H430 C418 0.956 . S
H431 C418 0.961 . S
H432 C418 0.961 . S
H433 C419 0.958 . S
H434 C419 0.961 . S
H435 C419 0.960 . S
C436 C437 1.391 . S
C436 C438 1.394 . S
C436 H452 0.931 . S
C437 C436 1.391 . S
C437 C441 1.376 . S
C438 C436 1.394 . S
C438 C439 1.369 . S
C438 C442 1.531 . S
C439 C438 1.369 . S
C439 C440 1.410 . S
C439 C447 1.503 . S
C440 C439 1.410 . S
C440 C441 1.392 . S
C440 C443 1.511 . S
C441 C437 1.376 . S
C441 C440 1.392 . S
C441 H453 0.929 . S
C442 C438 1.531 . S
C442 H454 0.960 . S
C442 H455 0.962 . S
C442 H456 0.960 . S
C443 C440 1.511 . S
C443 H457 0.961 . S
C443 H458 0.961 . S
C443 H459 0.961 . S
C444 C445 1.370 . S
C444 C446 1.363 . S
C444 H460 0.931 . S
C445 C444 1.370 . S
C445 C449 1.408 . S
C446 C444 1.363 . S
C446 C447 1.370 . S
C446 C450 1.524 . S
C447 C439 1.503 . S
C447 C446 1.370 . S
C447 C448 1.403 . S
C448 C447 1.403 . S
C448 C449 1.404 . S
C448 C451 1.539 . S
C449 C445 1.408 . S
C449 C448 1.404 . S
C449 H461 0.930 . S
C450 C446 1.524 . S
C450 H462 0.956 . S
C450 H463 0.961 . S
C450 H464 0.961 1_655 S
C451 C448 1.539 . S
C451 H465 0.958 . S
C451 H466 0.961 . S
C451 H467 0.960 . S
H452 C436 0.931 . S
H453 C441 0.929 . S
H454 C442 0.960 . S
H455 C442 0.962 . S
H456 C442 0.960 . S
H457 C443 0.961 . S
H458 C443 0.961 . S
H459 C443 0.961 . S
H460 C444 0.931 . S
H461 C449 0.930 . S
H462 C450 0.956 . S
H463 C450 0.961 . S
H464 C450 0.961 1_455 S
H465 C451 0.958 . S
H466 C451 0.961 . S
H467 C451 0.960 . S
C468 C469 1.391 . S
C468 C470 1.394 . S
C468 H484 0.931 . S
C469 C468 1.391 . S
C469 C473 1.376 . S
C470 C468 1.394 . S
C470 C471 1.369 . S
C470 C474 1.531 . S
C471 C470 1.369 . S
C471 C472 1.410 . S
C471 C479 1.503 . S
C472 C471 1.410 . S
C472 C473 1.392 . S
C472 C475 1.511 . S
C473 C469 1.376 . S
C473 C472 1.392 . S
C473 H485 0.929 . S
C474 C470 1.531 . S
C474 H486 0.960 . S
C474 H487 0.962 . S
C474 H488 0.960 . S
C475 C472 1.511 . S
C475 H489 0.961 1_554 S
C475 H490 0.961 . S
C475 H491 0.961 . S
C476 C477 1.370 . S
C476 C478 1.363 . S
C476 H492 0.931 . S
C477 C476 1.370 . S
C477 C481 1.408 . S
C478 C476 1.363 . S
C478 C479 1.370 . S
C478 C482 1.524 . S
C479 C471 1.503 . S
C479 C478 1.370 . S
C479 C480 1.403 . S
C480 C479 1.403 . S
C480 C481 1.404 . S
C480 C483 1.539 1_545 S
C481 C477 1.408 . S
C481 C480 1.404 . S
C481 H493 0.930 1_545 S
C482 C478 1.524 . S
C482 H494 0.956 . S
C482 H495 0.961 . S
C482 H496 0.961 . S
C483 C480 1.539 1_565 S
C483 H497 0.958 . S
C483 H498 0.961 . S
C483 H499 0.960 1_565 S
H484 C468 0.931 . S
H485 C473 0.929 . S
H486 C474 0.960 . S
H487 C474 0.962 . S
H488 C474 0.960 . S
H489 C475 0.961 1_556 S
H490 C475 0.961 . S
H491 C475 0.961 . S
H492 C476 0.931 . S
H493 C481 0.930 1_565 S
H494 C482 0.956 . S
H495 C482 0.961 . S
H496 C482 0.961 . S
H497 C483 0.958 . S
H498 C483 0.961 . S
H499 C483 0.960 1_545 S
C500 C501 1.391 . S
C500 C502 1.394 . S
C500 H516 0.931 . S
C501 C500 1.391 . S
C501 C505 1.376 . S
C502 C500 1.394 . S
C502 C503 1.369 . S
C502 C506 1.531 . S
C503 C502 1.369 . S
C503 C504 1.410 . S
C503 C511 1.503 . S
C504 C503 1.410 . S
C504 C505 1.392 . S
C504 C507 1.511 . S
C505 C501 1.376 . S
C505 C504 1.392 . S
C505 H517 0.929 . S
C506 C502 1.531 . S
C506 H518 0.960 . S
C506 H519 0.962 . S
C506 H520 0.960 . S
C507 C504 1.511 . S
C507 H521 0.961 . S
C507 H522 0.961 . S
C507 H523 0.961 . S
C508 C509 1.370 . S
C508 C510 1.363 . S
C508 H524 0.931 . S
C509 C508 1.370 . S
C509 C513 1.408 . S
C510 C508 1.363 . S
C510 C511 1.370 . S
C510 C514 1.524 . S
C511 C503 1.503 . S
C511 C510 1.370 . S
C511 C512 1.403 . S
C512 C511 1.403 . S
C512 C513 1.404 . S
C512 C515 1.539 1_565 S
C513 C509 1.408 . S
C513 C512 1.404 . S
C513 H525 0.930 1_565 S
C514 C510 1.524 . S
C514 H526 0.956 . S
C514 H527 0.961 . S
C514 H528 0.961 . S
C515 C512 1.539 1_545 S
C515 H529 0.958 . S
C515 H530 0.961 . S
C515 H531 0.960 1_545 S
H516 C500 0.931 . S
H517 C505 0.929 . S
H518 C506 0.960 . S
H519 C506 0.962 . S
H520 C506 0.960 . S
H521 C507 0.961 . S
H522 C507 0.961 . S
H523 C507 0.961 . S
H524 C508 0.931 . S
H525 C513 0.930 1_545 S
H526 C514 0.956 . S
H527 C514 0.961 . S
H528 C514 0.961 . S
H529 C515 0.958 . S
H530 C515 0.961 . S
H531 C515 0.960 1_565 S
C532 C533 1.391 . S
C532 C534 1.394 . S
C532 H548 0.931 . S
C533 C532 1.391 . S
C533 C537 1.376 . S
C534 C532 1.394 . S
C534 C535 1.369 . S
C534 C538 1.531 . S
C535 C534 1.369 . S
C535 C536 1.410 . S
C535 C543 1.503 . S
C536 C535 1.410 . S
C536 C537 1.392 . S
C536 C539 1.511 . S
C537 C533 1.376 . S
C537 C536 1.392 . S
C537 H549 0.929 . S
C538 C534 1.531 . S
C538 H550 0.960 . S
C538 H551 0.962 . S
C538 H552 0.960 . S
C539 C536 1.511 . S
C539 H553 0.961 . S
C539 H554 0.961 . S
C539 H555 0.961 1_556 S
C540 C541 1.370 . S
C540 C542 1.363 . S
C540 H556 0.931 . S
C541 C540 1.370 . S
C541 C545 1.408 . S
C542 C540 1.363 . S
C542 C543 1.370 . S
C542 C546 1.524 . S
C543 C535 1.503 . S
C543 C542 1.370 . S
C543 C544 1.403 . S
C544 C543 1.403 . S
C544 C545 1.404 . S
C544 C547 1.539 1_556 S
C545 C541 1.408 . S
C545 C544 1.404 . S
C545 H557 0.930 1_556 S
C546 C542 1.524 . S
C546 H558 0.956 . S
C546 H559 0.961 . S
C546 H560 0.961 . S
C547 C544 1.539 1_554 S
C547 H561 0.958 . S
C547 H562 0.961 . S
C547 H563 0.960 . S
H548 C532 0.931 . S
H549 C537 0.929 . S
H550 C538 0.960 . S
H551 C538 0.962 . S
H552 C538 0.960 . S
H553 C539 0.961 . S
H554 C539 0.961 . S
H555 C539 0.961 1_554 S
H556 C540 0.931 . S
H557 C545 0.930 1_554 S
H558 C546 0.956 . S
H559 C546 0.961 . S
H560 C546 0.961 . S
H561 C547 0.958 . S
H562 C547 0.961 . S
H563 C547 0.960 . S
C564 C565 1.391 . S
C564 C566 1.394 . S
C564 H580 0.931 . S
C565 C564 1.391 . S
C565 C569 1.376 . S
C566 C564 1.394 . S
C566 C567 1.369 . S
C566 C570 1.531 . S
C567 C566 1.369 . S
C567 C568 1.410 . S
C567 C575 1.503 . S
C568 C567 1.410 . S
C568 C569 1.392 . S
C568 C571 1.511 . S
C569 C565 1.376 . S
C569 C568 1.392 . S
C569 H581 0.929 . S
C570 C566 1.531 . S
C570 H582 0.960 . S
C570 H583 0.962 . S
C570 H584 0.960 . S
C571 C568 1.511 . S
C571 H585 0.961 . S
C571 H586 0.961 . S
C571 H587 0.961 . S
C572 C573 1.370 . S
C572 C574 1.363 . S
C572 H588 0.931 . S
C573 C572 1.370 . S
C573 C577 1.408 . S
C574 C572 1.363 . S
C574 C575 1.370 . S
C574 C578 1.524 . S
C575 C567 1.503 . S
C575 C574 1.370 . S
C575 C576 1.403 . S
C576 C575 1.403 . S
C576 C577 1.404 . S
C576 C579 1.539 . S
C577 C573 1.408 . S
C577 C576 1.404 . S
C577 H589 0.930 . S
C578 C574 1.524 . S
C578 H590 0.956 . S
C578 H591 0.961 . S
C578 H592 0.961 . S
C579 C576 1.539 . S
C579 H593 0.958 . S
C579 H594 0.961 . S
C579 H595 0.960 . S
H580 C564 0.931 . S
H581 C569 0.929 . S
H582 C570 0.960 . S
H583 C570 0.962 . S
H584 C570 0.960 . S
H585 C571 0.961 . S
H586 C571 0.961 . S
H587 C571 0.961 . S
H588 C572 0.931 . S
H589 C577 0.930 . S
H590 C578 0.956 . S
H591 C578 0.961 . S
H592 C578 0.961 . S
H593 C579 0.958 . S
H594 C579 0.961 . S
H595 C579 0.960 . S
C596 C597 1.391 . S
C596 C598 1.394 . S
C596 H612 0.931 . S
C597 C596 1.391 . S
C597 C601 1.376 . S
C598 C596 1.394 . S
C598 C599 1.369 . S
C598 C602 1.531 . S
C599 C598 1.369 . S
C599 C600 1.410 . S
C599 C607 1.503 . S
C600 C599 1.410 . S
C600 C601 1.392 . S
C600 C603 1.511 . S
C601 C597 1.376 . S
C601 C600 1.392 . S
C601 H613 0.929 . S
C602 C598 1.531 . S
C602 H614 0.960 . S
C602 H615 0.962 . S
C602 H616 0.960 . S
C603 C600 1.511 . S
C603 H617 0.961 . S
C603 H618 0.961 . S
C603 H619 0.961 . S
C604 C605 1.370 . S
C604 C606 1.363 . S
C604 H620 0.931 . S
C605 C604 1.370 . S
C605 C609 1.408 . S
C606 C604 1.363 . S
C606 C607 1.370 . S
C606 C610 1.524 . S
C607 C599 1.503 . S
C607 C606 1.370 . S
C607 C608 1.403 . S
C608 C607 1.403 . S
C608 C609 1.404 . S
C608 C611 1.539 . S
C609 C605 1.408 . S
C609 C608 1.404 . S
C609 H621 0.930 . S
C610 C606 1.524 . S
C610 H622 0.956 . S
C610 H623 0.961 . S
C610 H624 0.961 . S
C611 C608 1.539 . S
C611 H625 0.958 1_554 S
C611 H626 0.961 1_455 S
C611 H627 0.960 . S
H612 C596 0.931 . S
H613 C601 0.929 . S
H614 C602 0.960 . S
H615 C602 0.962 . S
H616 C602 0.960 . S
H617 C603 0.961 . S
H618 C603 0.961 . S
H619 C603 0.961 . S
H620 C604 0.931 . S
H621 C609 0.930 . S
H622 C610 0.956 . S
H623 C610 0.961 . S
H624 C610 0.961 . S
H625 C611 0.958 1_556 S
H626 C611 0.961 1_655 S
H627 C611 0.960 . S
C628 C629 1.391 . S
C628 C630 1.394 . S
C628 H644 0.931 . S
C629 C628 1.391 . S
C629 C633 1.376 . S
C630 C628 1.394 . S
C630 C631 1.369 . S
C630 C634 1.531 . S
C631 C630 1.369 . S
C631 C632 1.410 . S
C631 C639 1.503 . S
C632 C631 1.410 . S
C632 C633 1.392 . S
C632 C635 1.511 . S
C633 C629 1.376 . S
C633 C632 1.392 . S
C633 H645 0.929 . S
C634 C630 1.531 . S
C634 H646 0.964 . S
C634 H647 0.962 1_556 S
C634 H648 0.960 1_556 S
C635 C632 1.511 . S
C635 H649 0.961 . S
C635 H650 0.961 . S
C635 H651 0.961 . S
C636 C637 1.370 . S
C636 C638 1.363 . S
C636 H652 0.931 . S
C637 C636 1.370 . S
C637 C641 1.408 . S
C638 C636 1.363 . S
C638 C639 1.370 . S
C638 C642 1.524 . S
C639 C631 1.503 . S
C639 C638 1.370 . S
C639 C640 1.403 . S
C640 C639 1.403 . S
C640 C641 1.404 . S
C640 C643 1.539 . S
C641 C637 1.408 . S
C641 C640 1.404 . S
C641 H653 0.930 . S
C642 C638 1.524 . S
C642 H654 0.956 . S
C642 H655 0.961 . S
C642 H656 0.961 . S
C643 C640 1.539 . S
C643 H657 0.958 . S
C643 H658 0.961 . S
C643 H659 0.960 . S
H644 C628 0.931 . S
H645 C633 0.929 . S
H646 C634 0.964 . S
H647 C634 0.962 1_554 S
H648 C634 0.960 1_554 S
H649 C635 0.961 . S
H650 C635 0.961 . S
H651 C635 0.961 . S
H652 C636 0.931 . S
H653 C641 0.930 . S
H654 C642 0.956 . S
H655 C642 0.961 . S
H656 C642 0.961 . S
H657 C643 0.958 . S
H658 C643 0.961 . S
H659 C643 0.960 . S
C660 C661 1.391 . S
C660 C662 1.394 . S
C660 H676 0.931 . S
C661 C660 1.391 . S
C661 C665 1.376 . S
C662 C660 1.394 . S
C662 C663 1.369 . S
C662 C666 1.531 . S
C663 C662 1.369 . S
C663 C664 1.410 . S
C663 C671 1.503 . S
C664 C663 1.410 . S
C664 C665 1.392 . S
C664 C667 1.511 . S
C665 C661 1.376 . S
C665 C664 1.392 . S
C665 H677 0.929 . S
C666 C662 1.531 . S
C666 H678 0.960 . S
C666 H679 0.962 1_655 S
C666 H680 0.969 . S
C667 C664 1.511 . S
C667 H681 0.961 . S
C667 H682 0.961 . S
C667 H683 0.961 . S
C668 C669 1.370 . S
C668 C670 1.363 . S
C668 H684 0.931 . S
C669 C668 1.370 . S
C669 C673 1.408 . S
C670 C668 1.363 . S
C670 C671 1.370 . S
C670 C674 1.524 . S
C671 C663 1.503 . S
C671 C670 1.370 . S
C671 C672 1.403 . S
C672 C671 1.403 . S
C672 C673 1.404 . S
C672 C675 1.539 . S
C673 C669 1.408 . S
C673 C672 1.404 . S
C673 H685 0.930 . S
C674 C670 1.524 . S
C674 H686 0.956 . S
C674 H687 0.961 . S
C674 H688 0.961 . S
C675 C672 1.539 . S
C675 H689 0.958 . S
C675 H690 0.961 . S
C675 H691 0.960 . S
H676 C660 0.931 . S
H677 C665 0.929 . S
H678 C666 0.960 . S
H679 C666 0.962 1_455 S
H680 C666 0.969 . S
H681 C667 0.961 . S
H682 C667 0.961 . S
H683 C667 0.961 . S
H684 C668 0.931 . S
H685 C673 0.930 . S
H686 C674 0.956 . S
H687 C674 0.961 . S
H688 C674 0.961 . S
H689 C675 0.958 . S
H690 C675 0.961 . S
H691 C675 0.960 . S
C692 C693 1.391 . S
C692 C694 1.394 . S
C692 H708 0.931 . S
C693 C692 1.391 . S
C693 C697 1.376 . S
C694 C692 1.394 . S
C694 C695 1.369 . S
C694 C698 1.531 . S
C695 C694 1.369 . S
C695 C696 1.410 . S
C695 C703 1.503 . S
C696 C695 1.410 . S
C696 C697 1.392 . S
C696 C699 1.511 . S
C697 C693 1.376 . S
C697 C696 1.392 . S
C697 H709 0.929 . S
C698 C694 1.531 . S
C698 H710 0.960 . S
C698 H711 0.962 . S
C698 H712 0.960 . S
C699 C696 1.511 . S
C699 H713 0.961 . S
C699 H714 0.961 . S
C699 H715 0.961 . S
C700 C701 1.370 . S
C700 C702 1.363 . S
C700 H716 0.931 . S
C701 C700 1.370 . S
C701 C705 1.408 . S
C702 C700 1.363 . S
C702 C703 1.370 . S
C702 C706 1.524 . S
C703 C695 1.503 . S
C703 C702 1.370 . S
C703 C704 1.403 . S
C704 C703 1.403 . S
C704 C705 1.404 . S
C704 C707 1.539 . S
C705 C701 1.408 . S
C705 C704 1.404 . S
C705 H717 0.930 . S
C706 C702 1.524 . S
C706 H718 0.956 . S
C706 H719 0.961 . S
C706 H720 0.961 . S
C707 C704 1.539 . S
C707 H721 0.958 . S
C707 H722 0.961 . S
C707 H723 0.960 . S
H708 C692 0.931 . S
H709 C697 0.929 . S
H710 C698 0.960 . S
H711 C698 0.962 . S
H712 C698 0.960 . S
H713 C699 0.961 . S
H714 C699 0.961 . S
H715 C699 0.961 . S
H716 C700 0.931 . S
H717 C705 0.930 . S
H718 C706 0.956 . S
H719 C706 0.961 . S
H720 C706 0.961 . S
H721 C707 0.958 . S
H722 C707 0.961 . S
H723 C707 0.960 . S
C724 C725 1.391 . S
C724 C726 1.394 . S
C724 H740 0.931 . S
C725 C724 1.391 . S
C725 C729 1.376 . S
C726 C724 1.394 . S
C726 C727 1.369 . S
C726 C730 1.531 1_565 S
C727 C726 1.369 . S
C727 C728 1.410 . S
C727 C735 1.503 . S
C728 C727 1.410 . S
C728 C729 1.392 . S
C728 C731 1.511 . S
C729 C725 1.376 . S
C729 C728 1.392 . S
C729 H741 0.929 . S
C730 C726 1.531 1_545 S
C730 H742 0.960 . S
C730 H743 0.962 . S
C730 H744 0.960 . S
C731 C728 1.511 . S
C731 H745 0.961 . S
C731 H746 0.961 . S
C731 H747 0.961 . S
C732 C733 1.370 . S
C732 C734 1.363 . S
C732 H748 0.931 . S
C733 C732 1.370 . S
C733 C737 1.408 . S
C734 C732 1.363 . S
C734 C735 1.370 . S
C734 C738 1.524 . S
C735 C727 1.503 . S
C735 C734 1.370 . S
C735 C736 1.403 . S
C736 C735 1.403 . S
C736 C737 1.404 . S
C736 C739 1.539 1_655 S
C737 C733 1.408 . S
C737 C736 1.404 . S
C737 H749 0.930 1_655 S
C738 C734 1.524 . S
C738 H750 0.956 . S
C738 H751 0.961 . S
C738 H752 0.961 . S
C739 C736 1.539 1_455 S
C739 H753 0.958 1_565 S
C739 H754 0.961 . S
C739 H755 0.960 . S
H740 C724 0.931 . S
H741 C729 0.929 . S
H742 C730 0.960 . S
H743 C730 0.962 . S
H744 C730 0.960 . S
H745 C731 0.961 . S
H746 C731 0.961 . S
H747 C731 0.961 . S
H748 C732 0.931 . S
H749 C737 0.930 1_455 S
H750 C738 0.956 . S
H751 C738 0.961 . S
H752 C738 0.961 . S
H753 C739 0.958 1_545 S
H754 C739 0.961 . S
H755 C739 0.960 . S
C756 C757 1.391 . S
C756 C758 1.394 . S
C756 H772 0.931 . S
C757 C756 1.391 . S
C757 C761 1.376 . S
C758 C756 1.394 . S
C758 C759 1.369 . S
C758 C762 1.531 . S
C759 C758 1.369 . S
C759 C760 1.410 . S
C759 C767 1.503 . S
C760 C759 1.410 . S
C760 C761 1.392 . S
C760 C763 1.511 . S
C761 C757 1.376 . S
C761 C760 1.392 . S
C761 H773 0.929 . S
C762 C758 1.531 . S
C762 H774 0.960 . S
C762 H775 0.962 . S
C762 H776 0.960 . S
C763 C760 1.511 . S
C763 H777 0.961 . S
C763 H778 0.961 . S
C763 H779 0.961 . S
C764 C765 1.370 . S
C764 C766 1.363 . S
C764 H780 0.931 . S
C765 C764 1.370 . S
C765 C769 1.408 . S
C766 C764 1.363 . S
C766 C767 1.370 . S
C766 C770 1.524 . S
C767 C759 1.503 . S
C767 C766 1.370 . S
C767 C768 1.403 . S
C768 C767 1.403 . S
C768 C769 1.404 . S
C768 C771 1.539 . S
C769 C765 1.408 . S
C769 C768 1.404 . S
C769 H781 0.930 . S
C770 C766 1.524 . S
C770 H782 0.956 . S
C770 H783 0.961 . S
C770 H784 0.961 1_545 S
C771 C768 1.539 . S
C771 H785 0.958 . S
C771 H786 0.961 . S
C771 H787 0.960 . S
H772 C756 0.931 . S
H773 C761 0.929 . S
H774 C762 0.960 . S
H775 C762 0.962 . S
H776 C762 0.960 . S
H777 C763 0.961 . S
H778 C763 0.961 . S
H779 C763 0.961 . S
H780 C764 0.931 . S
H781 C769 0.930 . S
H782 C770 0.956 . S
H783 C770 0.961 . S
H784 C770 0.961 1_565 S
H785 C771 0.958 . S
H786 C771 0.961 . S
H787 C771 0.960 . S
C788 C789 1.391 . S
C788 C790 1.394 . S
C788 H804 0.931 . S
C789 C788 1.391 . S
C789 C793 1.376 . S
C790 C788 1.394 . S
C790 C791 1.369 . S
C790 C794 1.531 . S
C791 C790 1.369 . S
C791 C792 1.410 . S
C791 C799 1.503 . S
C792 C791 1.410 . S
C792 C793 1.392 . S
C792 C795 1.511 . S
C793 C789 1.376 . S
C793 C792 1.392 . S
C793 H805 0.929 . S
C794 C790 1.531 . S
C794 H806 0.960 . S
C794 H807 0.962 . S
C794 H808 0.960 . S
C795 C792 1.511 . S
C795 H809 0.961 . S
C795 H810 0.961 . S
C795 H811 0.961 . S
C796 C797 1.370 . S
C796 C798 1.363 . S
C796 H812 0.931 . S
C797 C796 1.370 . S
C797 C801 1.408 . S
C798 C796 1.363 . S
C798 C799 1.370 . S
C798 C802 1.524 . S
C799 C791 1.503 . S
C799 C798 1.370 . S
C799 C800 1.403 . S
C800 C799 1.403 . S
C800 C801 1.404 . S
C800 C803 1.539 . S
C801 C797 1.408 . S
C801 C800 1.404 . S
C801 H813 0.930 . S
C802 C798 1.524 . S
C802 H814 0.956 . S
C802 H815 0.961 . S
C802 H816 0.961 . S
C803 C800 1.539 . S
C803 H817 0.958 . S
C803 H818 0.961 . S
C803 H819 0.960 . S
H804 C788 0.931 . S
H805 C793 0.929 . S
H806 C794 0.960 . S
H807 C794 0.962 . S
H808 C794 0.960 . S
H809 C795 0.961 . S
H810 C795 0.961 . S
H811 C795 0.961 . S
H812 C796 0.931 . S
H813 C801 0.930 . S
H814 C802 0.956 . S
H815 C802 0.961 . S
H816 C802 0.961 . S
H817 C803 0.958 . S
H818 C803 0.961 . S
H819 C803 0.960 . S
C820 C821 1.391 . S
C820 C822 1.394 . S
C820 H836 0.931 . S
C821 C820 1.391 . S
C821 C825 1.376 . S
C822 C820 1.394 . S
C822 C823 1.369 . S
C822 C826 1.531 . S
C823 C822 1.369 . S
C823 C824 1.410 . S
C823 C831 1.503 . S
C824 C823 1.410 . S
C824 C825 1.392 . S
C824 C827 1.511 1_455 S
C825 C821 1.376 . S
C825 C824 1.392 . S
C825 H837 0.929 . S
C826 C822 1.531 . S
C826 H838 0.960 . S
C826 H839 0.962 . S
C826 H840 0.960 . S
C827 C824 1.511 1_655 S
C827 H841 0.961 . S
C827 H842 0.961 . S
C827 H843 0.961 . S
C828 C829 1.370 . S
C828 C830 1.363 . S
C828 H844 0.931 . S
C829 C828 1.370 . S
C829 C833 1.408 . S
C830 C828 1.363 . S
C830 C831 1.370 . S
C830 C834 1.524 . S
C831 C823 1.503 . S
C831 C830 1.370 . S
C831 C832 1.403 . S
C832 C831 1.403 . S
C832 C833 1.404 . S
C832 C835 1.539 . S
C833 C829 1.408 . S
C833 C832 1.404 . S
C833 H845 0.930 . S
C834 C830 1.524 . S
C834 H846 0.956 . S
C834 H847 0.961 . S
C834 H848 0.961 . S
C835 C832 1.539 . S
C835 H849 0.958 . S
C835 H850 0.961 . S
C835 H851 0.960 . S
H836 C820 0.931 . S
H837 C825 0.929 . S
H838 C826 0.960 . S
H839 C826 0.962 . S
H840 C826 0.960 . S
H841 C827 0.961 . S
H842 C827 0.961 . S
H843 C827 0.961 . S
H844 C828 0.931 . S
H845 C833 0.930 . S
H846 C834 0.956 . S
H847 C834 0.961 . S
H848 C834 0.961 . S
H849 C835 0.958 . S
H850 C835 0.961 . S
H851 C835 0.960 . S
C852 C853 1.391 . S
C852 C854 1.394 . S
C852 H868 0.931 . S
C853 C852 1.391 . S
C853 C857 1.376 . S
C854 C852 1.394 . S
C854 C855 1.369 . S
C854 C858 1.531 . S
C855 C854 1.369 . S
C855 C856 1.410 . S
C855 C863 1.503 . S
C856 C855 1.410 . S
C856 C857 1.392 . S
C856 C859 1.511 1_556 S
C857 C853 1.376 . S
C857 C856 1.392 . S
C857 H869 0.929 . S
C858 C854 1.531 . S
C858 H870 0.960 . S
C858 H871 0.962 . S
C858 H872 0.960 . S
C859 C856 1.511 1_554 S
C859 H873 0.961 . S
C859 H874 0.957 1_554 S
C859 H875 0.961 . S
C860 C861 1.370 . S
C860 C862 1.363 . S
C860 H876 0.931 1_565 S
C861 C860 1.370 . S
C861 C865 1.408 . S
C862 C860 1.363 . S
C862 C863 1.370 . S
C862 C866 1.524 1_565 S
C863 C855 1.503 . S
C863 C862 1.370 . S
C863 C864 1.403 . S
C864 C863 1.403 . S
C864 C865 1.404 . S
C864 C867 1.523 1_556 S
C865 C861 1.408 . S
C865 C864 1.404 . S
C865 H877 0.930 1_556 S
C866 C862 1.524 1_545 S
C866 H878 0.956 1_545 S
C866 H879 0.961 . S
C866 H880 0.961 . S
C867 C864 1.523 1_554 S
C867 H881 0.944 1_554 S
C867 H882 0.990 . S
C867 H883 0.962 . S
H868 C852 0.931 . S
H869 C857 0.929 . S
H870 C858 0.960 . S
H871 C858 0.962 . S
H872 C858 0.960 . S
H873 C859 0.961 . S
H874 C859 0.957 1_556 S
H875 C859 0.961 . S
H876 C860 0.931 1_545 S
H877 C865 0.930 1_554 S
H878 C866 0.956 1_565 S
H879 C866 0.961 . S
H880 C866 0.961 . S
H881 C867 0.944 1_556 S
H882 C867 0.990 . S
H883 C867 0.962 . S
C884 C885 1.391 . S
C884 C886 1.394 . S
C884 H900 0.931 . S
C885 C884 1.391 . S
C885 C889 1.376 . S
C886 C884 1.394 . S
C886 C887 1.369 . S
C886 C890 1.531 . S
C887 C886 1.369 . S
C887 C888 1.410 . S
C887 C895 1.503 . S
C888 C887 1.410 . S
C888 C889 1.392 . S
C888 C891 1.511 . S
C889 C885 1.376 . S
C889 C888 1.392 . S
C889 H901 0.929 . S
C890 C886 1.531 . S
C890 H902 0.960 . S
C890 H903 0.962 . S
C890 H904 0.960 . S
C891 C888 1.511 . S
C891 H905 0.961 . S
C891 H906 0.961 . S
C891 H907 0.961 . S
C892 C893 1.370 . S
C892 C894 1.363 . S
C892 H908 0.931 . S
C893 C892 1.370 . S
C893 C897 1.408 . S
C894 C892 1.363 . S
C894 C895 1.370 . S
C894 C898 1.524 . S
C895 C887 1.503 . S
C895 C894 1.370 . S
C895 C896 1.403 . S
C896 C895 1.403 . S
C896 C897 1.404 . S
C896 C899 1.539 . S
C897 C893 1.408 . S
C897 C896 1.404 . S
C897 H909 0.930 . S
C898 C894 1.524 . S
C898 H910 0.956 . S
C898 H911 0.961 . S
C898 H912 0.961 . S
C899 C896 1.539 . S
C899 H913 0.944 1_545 S
C899 H914 0.961 . S
C899 H915 0.960 . S
H900 C884 0.931 . S
H901 C889 0.929 . S
H902 C890 0.960 . S
H903 C890 0.962 . S
H904 C890 0.960 . S
H905 C891 0.961 . S
H906 C891 0.961 . S
H907 C891 0.961 . S
H908 C892 0.931 . S
H909 C897 0.930 . S
H910 C898 0.956 . S
H911 C898 0.961 . S
H912 C898 0.961 . S
H913 C899 0.944 1_565 S
H914 C899 0.961 . S
H915 C899 0.960 . S
C916 C917 1.391 . S
C916 C918 1.394 . S
C916 H932 0.931 . S
C917 C916 1.391 . S
C917 C921 1.376 . S
C918 C916 1.394 . S
C918 C919 1.369 . S
C918 C922 1.531 . S
C919 C918 1.369 . S
C919 C920 1.410 . S
C919 C927 1.503 . S
C920 C919 1.410 . S
C920 C921 1.392 . S
C920 C923 1.511 . S
C921 C917 1.376 . S
C921 C920 1.392 . S
C921 H933 0.929 . S
C922 C918 1.531 . S
C922 H934 0.960 . S
C922 H935 0.962 . S
C922 H936 0.960 . S
C923 C920 1.511 . S
C923 H937 0.961 . S
C923 H938 0.961 . S
C923 H939 0.961 . S
C924 C925 1.370 . S
C924 C926 1.363 . S
C924 H940 0.931 . S
C925 C924 1.370 . S
C925 C929 1.408 . S
C926 C924 1.363 . S
C926 C927 1.370 . S
C926 C930 1.524 . S
C927 C919 1.503 . S
C927 C926 1.370 . S
C927 C928 1.403 . S
C928 C927 1.403 . S
C928 C929 1.404 . S
C928 C931 1.539 1_554 S
C929 C925 1.408 . S
C929 C928 1.404 . S
C929 H941 0.930 1_554 S
C930 C926 1.524 . S
C930 H942 0.956 . S
C930 H943 0.961 . S
C930 H944 0.961 . S
C931 C928 1.539 1_556 S
C931 H945 0.958 . S
C931 H946 0.961 . S
C931 H947 0.960 1_556 S
H932 C916 0.931 . S
H933 C921 0.929 . S
H934 C922 0.960 . S
H935 C922 0.962 . S
H936 C922 0.960 . S
H937 C923 0.961 . S
H938 C923 0.961 . S
H939 C923 0.961 . S
H940 C924 0.931 . S
H941 C929 0.930 1_556 S
H942 C930 0.956 . S
H943 C930 0.961 . S
H944 C930 0.961 . S
H945 C931 0.958 . S
H946 C931 0.961 . S
H947 C931 0.960 1_554 S
C948 C949 1.391 . S
C948 C950 1.394 . S
C948 H964 0.931 . S
C949 C948 1.391 . S
C949 C953 1.376 . S
C950 C948 1.394 . S
C950 C951 1.369 . S
C950 C954 1.531 . S
C951 C950 1.369 . S
C951 C952 1.410 . S
C951 C959 1.503 . S
C952 C951 1.410 . S
C952 C953 1.392 . S
C952 C955 1.511 . S
C953 C949 1.376 . S
C953 C952 1.392 . S
C953 H965 0.929 . S
C954 C950 1.531 . S
C954 H966 0.960 . S
C954 H967 0.962 . S
C954 H968 0.960 . S
C955 C952 1.511 . S
C955 H969 0.961 . S
C955 H970 0.961 . S
C955 H971 0.961 . S
C956 C957 1.370 . S
C956 C958 1.363 . S
C956 H972 0.931 . S
C957 C956 1.370 . S
C957 C961 1.408 . S
C958 C956 1.363 . S
C958 C959 1.370 . S
C958 C962 1.524 . S
C959 C951 1.503 . S
C959 C958 1.370 . S
C959 C960 1.403 . S
C960 C959 1.403 . S
C960 C961 1.404 . S
C960 C963 1.539 . S
C961 C957 1.408 . S
C961 C960 1.404 . S
C961 H973 0.930 . S
C962 C958 1.524 . S
C962 H974 0.956 . S
C962 H975 0.961 . S
C962 H976 0.961 . S
C963 C960 1.539 . S
C963 H977 0.958 . S
C963 H978 0.961 . S
C963 H979 0.960 . S
H964 C948 0.931 . S
H965 C953 0.929 . S
H966 C954 0.960 . S
H967 C954 0.962 . S
H968 C954 0.960 . S
H969 C955 0.961 . S
H970 C955 0.961 . S
H971 C955 0.961 . S
H972 C956 0.931 . S
H973 C961 0.930 . S
H974 C962 0.956 . S
H975 C962 0.961 . S
H976 C962 0.961 . S
H977 C963 0.958 . S
H978 C963 0.961 . S
H979 C963 0.960 . S
C980 C981 1.391 . S
C980 C982 1.394 . S
C980 H996 0.931 . S
C981 C980 1.391 . S
C981 C985 1.376 . S
C982 C980 1.394 . S
C982 C983 1.369 . S
C982 C986 1.531 . S
C983 C982 1.369 . S
C983 C984 1.410 . S
C983 C991 1.503 . S
C984 C983 1.410 . S
C984 C985 1.392 . S
C984 C987 1.511 . S
C985 C981 1.376 . S
C985 C984 1.392 . S
C985 H997 0.929 . S
C986 C982 1.531 . S
C986 H998 0.960 . S
C986 H999 0.962 1_655 S
C986 H1000 0.960 1_655 S
C987 C984 1.511 . S
C987 H1001 0.961 . S
C987 H1002 0.961 . S
C987 H1003 0.961 . S
C988 C989 1.370 . S
C988 C990 1.363 . S
C988 H1004 0.931 . S
C989 C988 1.370 . S
C989 C993 1.408 1_556 S
C990 C988 1.363 . S
C990 C991 1.370 . S
C990 C994 1.524 . S
C991 C983 1.503 . S
C991 C990 1.370 . S
C991 C992 1.403 . S
C992 C991 1.403 . S
C992 C993 1.404 1_556 S
C992 C995 1.539 1_556 S
C993 C989 1.408 1_554 S
C993 C992 1.404 1_554 S
C993 H1005 0.930 . S
C994 C990 1.524 . S
C994 H1006 0.956 . S
C994 H1007 0.961 . S
C994 H1008 0.961 . S
C995 C992 1.539 1_554 S
C995 H1009 0.958 . S
C995 H1010 0.961 . S
C995 H1011 0.960 . S
H996 C980 0.931 . S
H997 C985 0.929 . S
H998 C986 0.960 . S
H999 C986 0.962 1_455 S
H1000 C986 0.960 1_455 S
H1001 C987 0.961 . S
H1002 C987 0.961 . S
H1003 C987 0.961 . S
H1004 C988 0.931 . S
H1005 C993 0.930 . S
H1006 C994 0.956 . S
H1007 C994 0.961 . S
H1008 C994 0.961 . S
H1009 C995 0.958 . S
H1010 C995 0.961 . S
H1011 C995 0.960 . S
C1012 C1013 1.391 . S
C1012 C1014 1.394 . S
C1012 H1028 0.931 . S
C1013 C1012 1.391 . S
C1013 C1017 1.376 . S
C1014 C1012 1.394 . S
C1014 C1015 1.369 . S
C1014 C1018 1.531 . S
C1015 C1014 1.369 . S
C1015 C1016 1.410 . S
C1015 C1023 1.503 . S
C1016 C1015 1.410 . S
C1016 C1017 1.392 . S
C1016 C1019 1.511 . S
C1017 C1013 1.376 . S
C1017 C1016 1.392 . S
C1017 H1029 0.929 . S
C1018 C1014 1.531 . S
C1018 H1030 0.960 . S
C1018 H1031 0.962 . S
C1018 H1032 0.960 . S
C1019 C1016 1.511 . S
C1019 H1033 0.961 . S
C1019 H1034 0.961 . S
C1019 H1035 0.961 . S
C1020 C1021 1.370 . S
C1020 C1022 1.363 . S
C1020 H1036 0.931 . S
C1021 C1020 1.370 . S
C1021 C1025 1.408 . S
C1022 C1020 1.363 . S
C1022 C1023 1.370 . S
C1022 C1026 1.524 . S
C1023 C1015 1.503 . S
C1023 C1022 1.370 . S
C1023 C1024 1.403 . S
C1024 C1023 1.403 . S
C1024 C1025 1.404 . S
C1024 C1027 1.539 . S
C1025 C1021 1.408 . S
C1025 C1024 1.404 . S
C1025 H1037 0.902 1_554 S
C1026 C1022 1.524 . S
C1026 H1038 0.956 . S
C1026 H1039 0.961 . S
C1026 H1040 0.961 . S
C1027 C1024 1.539 . S
C1027 H1041 0.958 1_554 S
C1027 H1042 0.961 1_554 S
C1027 H1043 0.960 . S
H1028 C1012 0.931 . S
H1029 C1017 0.929 . S
H1030 C1018 0.960 . S
H1031 C1018 0.962 . S
H1032 C1018 0.960 . S
H1033 C1019 0.961 . S
H1034 C1019 0.961 . S
H1035 C1019 0.961 . S
H1036 C1020 0.931 . S
H1037 C1025 0.902 1_556 S
H1038 C1026 0.956 . S
H1039 C1026 0.961 . S
H1040 C1026 0.961 . S
H1041 C1027 0.958 1_556 S
H1042 C1027 0.961 1_556 S
H1043 C1027 0.960 . S
C1044 C1045 1.391 . S
C1044 C1046 1.394 . S
C1044 H1060 0.931 . S
C1045 C1044 1.391 . S
C1045 C1049 1.376 . S
C1046 C1044 1.394 . S
C1046 C1047 1.369 . S
C1046 C1050 1.531 . S
C1047 C1046 1.369 . S
C1047 C1048 1.410 . S
C1047 C1055 1.503 . S
C1048 C1047 1.410 . S
C1048 C1049 1.392 . S
C1048 C1051 1.511 1_455 S
C1049 C1045 1.376 . S
C1049 C1048 1.392 . S
C1049 H1061 0.929 . S
C1050 C1046 1.531 . S
C1050 H1062 0.960 . S
C1050 H1063 0.962 . S
C1050 H1064 0.960 . S
C1051 C1048 1.511 1_655 S
C1051 H1065 0.961 . S
C1051 H1066 0.961 . S
C1051 H1067 0.961 . S
C1052 C1053 1.370 . S
C1052 C1054 1.363 . S
C1052 H1068 0.931 . S
C1053 C1052 1.370 . S
C1053 C1057 1.408 . S
C1054 C1052 1.363 . S
C1054 C1055 1.370 . S
C1054 C1058 1.524 . S
C1055 C1047 1.503 . S
C1055 C1054 1.370 . S
C1055 C1056 1.403 . S
C1056 C1055 1.403 . S
C1056 C1057 1.404 . S
C1056 C1059 1.539 . S
C1057 C1053 1.408 . S
C1057 C1056 1.404 . S
C1057 H1069 0.930 . S
C1058 C1054 1.524 . S
C1058 H1070 0.956 . S
C1058 H1071 0.961 . S
C1058 H1072 0.961 . S
C1059 C1056 1.539 . S
C1059 H1073 0.958 . S
C1059 H1074 0.947 1_455 S
C1059 H1075 0.960 . S
H1060 C1044 0.931 . S
H1061 C1049 0.929 . S
H1062 C1050 0.960 . S
H1063 C1050 0.962 . S
H1064 C1050 0.960 . S
H1065 C1051 0.961 . S
H1066 C1051 0.961 . S
H1067 C1051 0.961 . S
H1068 C1052 0.931 . S
H1069 C1057 0.930 . S
H1070 C1058 0.956 . S
H1071 C1058 0.961 . S
H1072 C1058 0.961 . S
H1073 C1059 0.958 . S
H1074 C1059 0.947 1_655 S
H1075 C1059 0.960 . S
C1076 C1077 1.391 . S
C1076 C1078 1.394 . S
C1076 H1092 0.931 . S
C1077 C1076 1.391 . S
C1077 C1081 1.376 . S
C1078 C1076 1.394 . S
C1078 C1079 1.369 . S
C1078 C1082 1.531 . S
C1079 C1078 1.369 . S
C1079 C1080 1.410 . S
C1079 C1087 1.503 . S
C1080 C1079 1.410 . S
C1080 C1081 1.392 . S
C1080 C1083 1.511 . S
C1081 C1077 1.376 . S
C1081 C1080 1.392 . S
C1081 H1093 0.929 . S
C1082 C1078 1.531 . S
C1082 H1094 0.960 . S
C1082 H1095 0.962 . S
C1082 H1096 0.960 . S
C1083 C1080 1.511 . S
C1083 H1097 0.961 . S
C1083 H1098 0.961 . S
C1083 H1099 0.961 . S
C1084 C1085 1.370 . S
C1084 C1086 1.363 . S
C1084 H1100 0.931 . S
C1085 C1084 1.370 . S
C1085 C1089 1.408 . S
C1086 C1084 1.363 . S
C1086 C1087 1.370 . S
C1086 C1090 1.524 . S
C1087 C1079 1.503 . S
C1087 C1086 1.370 . S
C1087 C1088 1.403 . S
C1088 C1087 1.403 . S
C1088 C1089 1.404 . S
C1088 C1091 1.539 . S
C1089 C1085 1.408 . S
C1089 C1088 1.404 . S
C1089 H1101 0.930 . S
C1090 C1086 1.524 . S
C1090 H1102 0.956 . S
C1090 H1103 0.961 . S
C1090 H1104 0.961 . S
C1091 C1088 1.539 . S
C1091 H1105 0.958 . S
C1091 H1106 0.961 . S
C1091 H1107 0.960 . S
H1092 C1076 0.931 . S
H1093 C1081 0.929 . S
H1094 C1082 0.960 . S
H1095 C1082 0.962 . S
H1096 C1082 0.960 . S
H1097 C1083 0.961 . S
H1098 C1083 0.961 . S
H1099 C1083 0.961 . S
H1100 C1084 0.931 . S
H1101 C1089 0.930 . S
H1102 C1090 0.956 . S
H1103 C1090 0.961 . S
H1104 C1090 0.961 . S
H1105 C1091 0.958 . S
H1106 C1091 0.961 . S
H1107 C1091 0.960 . S
C341 C29 1.546 . S
C349 C274 1.616 . S
C373 C49 1.468 . S
C381 C291 1.420 . S
C413 C314 1.234 . S
C405 C93 1.410 . S
C437 C119 1.646 . S
C445 C335 1.442 . S
C477 C294 1.735 . S
C469 C17 1.723 . S
C509 C271 1.676 . S
C501 C61 1.733 . S
C541 C333 1.315 . S
C533 C81 1.338 . S
C573 C312 1.468 . S
C565 C125 1.452 . S
C597 C23 1.676 . S
C605 C336 1.669 . S
C637 C293 1.292 . S
C629 C87 1.546 . S
C661 C113 1.569 . S
C669 C269 1.497 . S
C693 C55 1.527 . S
C701 C315 1.507 . S
C733 C273 1.554 . S
C725 C157 1.606 . S
C757 C189 1.234 . S
C765 C292 1.280 . S
C789 C221 1.493 . S
C797 C311 1.257 . S
C821 C253 1.634 . S
C829 C332 1.387 . S
C853 C145 1.769 . S
C861 C295 1.731 . S
C893 C270 1.667 . S
C885 C183 1.656 . S
C925 C334 1.239 . S
C917 C209 1.247 . S
C957 C313 1.498 . S
C949 C247 1.463 . S
C981 C151 1.546 . S
C989 C337 1.531 . S
C1021 C290 1.208 . S
C1013 C215 1.466 . S
C1053 C272 1.312 . S
C1045 C241 1.393 . S
C1077 C177 1.412 . S
C1085 C316 1.453 . S
