# Generated by pormake.
# Topology rtl, (3,6)-cn, num edge types: 1
# Building blocks:
#     Node 0, Type 0, BuildingBlock: BELTOD_clean_linker_0, # of connection points: 3
#     Node 1, Type 0, BuildingBlock: BELTOD_clean_linker_0, # of connection points: 3
#     Node 2, Type 0, BuildingBlock: BELTOD_clean_linker_0, # of connection points: 3
#     Node 3, Type 0, BuildingBlock: BELTOD_clean_linker_0, # of connection points: 3
#     Node 4, Type 1, BuildingBlock: VOLQOD_clean_sbu_1, # of connection points: 6
#     Node 5, Type 1, BuildingBlock: VOLQOD_clean_sbu_1, # of connection points: 6
#     Edge 6, Type (0, 1), BuildingBlock: FUNLAD_clean_linker_1, # of connection points: 2
#     Edge 7, Type (0, 1), BuildingBlock: FUNLAD_clean_linker_1, # of connection points: 2
#     Edge 8, Type (0, 1), BuildingBlock: FUNLAD_clean_linker_1, # of connection points: 2
#     Edge 9, Type (0, 1), BuildingBlock: FUNLAD_clean_linker_1, # of connection points: 2
#     Edge 10, Type (0, 1), BuildingBlock: FUNLAD_clean_linker_1, # of connection points: 2
#     Edge 11, Type (0, 1), BuildingBlock: FUNLAD_clean_linker_1, # of connection points: 2
#     Edge 12, Type (0, 1), BuildingBlock: FUNLAD_clean_linker_1, # of connection points: 2
#     Edge 13, Type (0, 1), BuildingBlock: FUNLAD_clean_linker_1, # of connection points: 2
#     Edge 14, Type (0, 1), BuildingBlock: FUNLAD_clean_linker_1, # of connection points: 2
#     Edge 15, Type (0, 1), BuildingBlock: FUNLAD_clean_linker_1, # of connection points: 2
#     Edge 16, Type (0, 1), BuildingBlock: FUNLAD_clean_linker_1, # of connection points: 2
#     Edge 17, Type (0, 1), BuildingBlock: FUNLAD_clean_linker_1, # of connection points: 2
# Relax obj value: 0.074
# Max RMSD: 0.154
# Mean RMSD: 0.083
data_MOF--net-rtl--node1-VOLQOD_clean_sbu_1--node2-BELTOD_clean_linker_0--edge1-FUNLAD_clean_linker_1
_symmetry_space_group_name_H-M    P1
_symmetry_Int_Tables_number       1
_symmetry_cell_setting            triclinic
loop_
_symmetry_equiv_pos_as_xyz
'x, y, z'
_cell_length_a     43.291296
_cell_length_b     37.822743
_cell_length_c     27.698255
_cell_angle_alpha  89.158307
_cell_angle_beta   90.345809
_cell_angle_gamma 90.046279
loop_
_atom_site_label
_atom_site_type_symbol
_atom_site_fract_x
_atom_site_fract_y
_atom_site_fract_z
_atom_type_partial_charge
P0 P 0.1505 0.77242 0.01038 0.0
H1 H 0.17223 0.78229 0.10867 0.0
H2 H 0.1454 0.79234 0.18441 0.0
H3 H 0.0578 0.77576 0.11252 0.0
H4 H 0.085 0.76472 0.03694 0.0
H5 H 0.18993 0.74894 0.93333 0.0
H6 H 0.22252 0.69681 0.9239 0.0
H7 H 0.18757 0.65376 0.05837 0.0
H8 H 0.15525 0.70602 0.06757 0.0
H9 H 0.11887 0.83719 0.98395 0.0
H10 H 0.12404 0.73094 0.93028 0.0
O11 O 0.17741 0.80402 0.0113 0.0
H12 H 0.08634 0.85442 0.91568 0.0
H13 H 0.09237 0.74836 0.86031 0.0
C14 C 0.13054 0.77387 0.06703 0.0
C15 C 0.14726 0.78055 0.10935 0.0
C16 C 0.13182 0.78662 0.15254 0.0
C17 C 0.09931 0.78628 0.1539 0.0
C18 C 0.08281 0.77676 0.11225 0.0
C19 C 0.09832 0.77061 0.06903 0.0
C20 C 0.17043 0.73144 0.00127 0.0
C21 C 0.18906 0.72804 0.96047 0.0
C22 C 0.20762 0.69826 0.95512 0.0
C23 C 0.20829 0.6716 0.99089 0.0
C24 C 0.18841 0.67427 0.03077 0.0
C25 C 0.16966 0.70409 0.03594 0.0
C26 C 0.12463 0.78317 0.96134 0.0
C27 C 0.11319 0.81766 0.95708 0.0
C28 C 0.09481 0.82753 0.91762 0.0
C29 C 0.08784 0.80303 0.88132 0.0
C30 C 0.09787 0.76791 0.88724 0.0
C31 C 0.11612 0.758 0.92705 0.0
P32 P 0.68021 0.70856 0.50598 0.0
H33 H 0.70184 0.69022 0.41062 0.0
H34 H 0.67522 0.68131 0.33356 0.0
H35 H 0.58971 0.71583 0.39725 0.0
H36 H 0.61654 0.72495 0.47397 0.0
H37 H 0.7364 0.72234 0.56005 0.0
H38 H 0.77154 0.77281 0.56268 0.0
H39 H 0.71144 0.83052 0.46428 0.0
H40 H 0.67667 0.77972 0.46161 0.0
H41 H 0.62935 0.66052 0.52495 0.0
H42 H 0.67358 0.74744 0.59706 0.0
O43 O 0.70303 0.67309 0.51002 0.0
H44 H 0.59708 0.64984 0.59514 0.0
H45 H 0.64128 0.73678 0.668 0.0
C46 C 0.66091 0.70694 0.44834 0.0
C47 C 0.67739 0.69603 0.40786 0.0
C48 C 0.6622 0.69108 0.36388 0.0
C49 C 0.63024 0.69668 0.3598 0.0
C50 C 0.61415 0.70998 0.39966 0.0
C51 C 0.62948 0.71531 0.44356 0.0
C52 C 0.70445 0.74702 0.50964 0.0
C53 C 0.7309 0.74584 0.53891 0.0
C54 C 0.75089 0.77474 0.54049 0.0
C55 C 0.74487 0.80535 0.51272 0.0
C56 C 0.7175 0.80705 0.48495 0.0
C57 C 0.6974 0.77804 0.48357 0.0
C58 C 0.65343 0.70518 0.55529 0.0
C59 C 0.63146 0.67797 0.55546 0.0
C60 C 0.61283 0.67205 0.59572 0.0
C61 C 0.61609 0.6931 0.63695 0.0
C62 C 0.63798 0.72053 0.63648 0.0
C63 C 0.65645 0.72663 0.59591 0.0
P64 P 0.89522 0.33361 0.99147 0.0
H65 H 0.92749 0.35118 0.90159 0.0
H66 H 0.94341 0.31529 0.83302 0.0
H67 H 0.90382 0.2228 0.90218 0.0
H68 H 0.88812 0.25863 0.97017 0.0
H69 H 0.86104 0.39321 0.02958 0.0
H70 H 0.80656 0.40928 0.02747 0.0
H71 H 0.7869 0.31797 0.94032 0.0
H72 H 0.84145 0.3019 0.94312 0.0
H73 H 0.95066 0.31381 0.04485 0.0
H74 H 0.85271 0.29487 0.05586 0.0
O75 O 0.91736 0.36968 0.99408 0.0
H76 H 0.95985 0.27505 0.11428 0.0
H77 H 0.86154 0.2565 0.12615 0.0
C78 C 0.90685 0.30747 0.94102 0.0
C79 C 0.92224 0.32318 0.90187 0.0
C80 C 0.93125 0.30272 0.86274 0.0
C81 C 0.92434 0.26647 0.86172 0.0
C82 C 0.90876 0.25085 0.90106 0.0
C83 C 0.90009 0.27124 0.94033 0.0
C84 C 0.85547 0.34691 0.9855 0.0
C85 C 0.84508 0.37707 0.00921 0.0
C86 C 0.81383 0.38632 0.00771 0.0
C87 C 0.7924 0.3653 0.98256 0.0
C88 C 0.80294 0.33488 0.95938 0.0
C89 C 0.83418 0.32576 0.9608 0.0
C90 C 0.90102 0.30788 0.04587 0.0
C91 C 0.93107 0.30189 0.06303 0.0
C92 C 0.93623 0.27975 0.10311 0.0
C93 C 0.91124 0.26317 0.12674 0.0
C94 C 0.88118 0.26921 0.10912 0.0
C95 C 0.87609 0.2913 0.06901 0.0
P96 P 0.41169 0.17499 0.51218 0.0
H97 H 0.43922 0.15617 0.60584 0.0
H98 H 0.45053 0.19067 0.67807 0.0
H99 H 0.41175 0.28341 0.60749 0.0
H100 H 0.40009 0.2488 0.53666 0.0
H101 H 0.38313 0.1202 0.4547 0.0
H102 H 0.33027 0.09745 0.44953 0.0
H103 H 0.30325 0.16751 0.56384 0.0
H104 H 0.35565 0.19034 0.56798 0.0
H105 H 0.466 0.19669 0.4575 0.0
H106 H 0.36813 0.21764 0.45458 0.0
O107 O 0.43707 0.14191 0.5093 0.0
H108 H 0.47347 0.23854 0.3909 0.0
H109 H 0.37524 0.25926 0.3873 0.0
C110 C 0.41925 0.20007 0.5657 0.0
C111 C 0.43305 0.18391 0.6062 0.0
C112 C 0.43944 0.20361 0.64742 0.0
C113 C 0.43168 0.23964 0.64911 0.0
C114 C 0.41741 0.25558 0.60846 0.0
C115 C 0.41106 0.23585 0.56734 0.0
C116 C 0.37335 0.15665 0.512 0.0
C117 C 0.36577 0.13045 0.47877 0.0
C118 C 0.33557 0.11759 0.47574 0.0
C119 C 0.31231 0.13105 0.50544 0.0
C120 C 0.32017 0.15707 0.5393 0.0
C121 C 0.3504 0.16992 0.54224 0.0
C122 C 0.41646 0.20337 0.4601 0.0
C123 C 0.44603 0.20975 0.44169 0.0
C124 C 0.4502 0.23365 0.40329 0.0
C125 C 0.42472 0.2517 0.38282 0.0
C126 C 0.3952 0.24541 0.40186 0.0
C127 C 0.39109 0.22148 0.44016 0.0
O128 O 0.92492 0.02067 0.48346 0.0
Zn129 Zn 0.96177 0.05321 0.48916 0.0
O130 O 0.00023 0.02636 0.4983 0.0
Zn131 Zn 0.02001 0.04031 0.55862 0.0
Zn132 Zn 0.99095 0.97557 0.50078 0.0
Zn133 Zn 0.02851 0.03642 0.44498 0.0
O134 O 0.06254 0.06009 0.54764 0.0
O135 O 0.06962 0.0548 0.46873 0.0
O136 O 0.95391 0.08511 0.54566 0.0
O137 O 0.99504 0.07682 0.59285 0.0
O138 O 0.02515 0.9985 0.60332 0.0
O139 O 0.00581 0.95298 0.56321 0.0
O140 O 0.01109 0.95004 0.44579 0.0
O141 O 0.96386 0.08398 0.4291 0.0
O142 O 0.03666 0.99262 0.40685 0.0
O143 O 0.01046 0.07294 0.39945 0.0
C144 C 0.922 0.98727 0.48758 0.0
C145 C 0.07938 0.06341 0.51041 0.0
C146 C 0.01878 0.96577 0.60047 0.0
C147 C 0.96932 0.09185 0.5837 0.0
C148 C 0.02842 0.96046 0.41141 0.0
C149 C 0.98473 0.08915 0.39751 0.0
O150 O 0.94522 0.96723 0.49514 0.0
O151 O 0.56283 0.503 0.99961 0.0
Zn152 Zn 0.52203 0.52798 0.00461 0.0
O153 O 0.48796 0.49389 0.00636 0.0
Zn154 Zn 0.45897 0.50466 0.95372 0.0
Zn155 Zn 0.50422 0.44588 0.99904 0.0
Zn156 Zn 0.46652 0.49728 0.06807 0.0
O157 O 0.41782 0.52068 0.97913 0.0
O158 O 0.42258 0.51328 0.0586 0.0
O159 O 0.51897 0.56024 0.94628 0.0
O160 O 0.47572 0.54302 0.90993 0.0
O161 O 0.45216 0.46208 0.91213 0.0
O162 O 0.48594 0.42252 0.94038 0.0
O163 O 0.49378 0.41524 0.05683 0.0
O164 O 0.52387 0.55684 0.06516 0.0
O165 O 0.46633 0.45047 0.10367 0.0
O166 O 0.48709 0.53302 0.11093 0.0
C167 C 0.57062 0.47088 0.9945 0.0
C168 C 0.40672 0.5221 0.02155 0.0
C169 C 0.46504 0.43191 0.91026 0.0
C170 C 0.49955 0.56267 0.91166 0.0
C171 C 0.4784 0.42053 0.09504 0.0
C172 C 0.50897 0.55506 0.10465 0.0
O173 O 0.55063 0.44619 0.99285 0.0
H174 H 0.27743 0.0923 0.48098 0.0
C175 C 0.2804 0.11697 0.5002 0.0
H176 H 0.25656 0.15953 0.53207 0.0
H177 H 0.12982 0.13327 0.42674 0.0
H178 H 0.14682 0.18768 0.38781 0.0
H179 H 0.19921 0.21107 0.40237 0.0
H180 H 0.23484 0.18035 0.45622 0.0
C181 C 0.25502 0.13363 0.51595 0.0
C182 C 0.2236 0.119 0.50696 0.0
C183 C 0.20316 0.13714 0.47501 0.0
C184 C 0.17312 0.12337 0.46603 0.0
C185 C 0.15302 0.14231 0.43447 0.0
C186 C 0.16247 0.17361 0.4119 0.0
C187 C 0.19195 0.1868 0.42015 0.0
C188 C 0.21216 0.16891 0.45125 0.0
H189 H 0.11804 0.08541 0.55252 0.0
C190 C 0.11108 0.07691 0.51672 0.0
H191 H 0.12508 0.07032 0.44442 0.0
H192 H 0.25581 0.0794 0.57402 0.0
H193 H 0.23978 0.02356 0.60987 0.0
H194 H 0.18937 0.9972 0.58907 0.0
H195 H 0.15447 0.02693 0.5331 0.0
C196 C 0.13171 0.07797 0.4807 0.0
C197 C 0.16363 0.09142 0.48884 0.0
C198 C 0.18436 0.07279 0.51989 0.0
C199 C 0.21407 0.08708 0.52995 0.0
C200 C 0.23352 0.06905 0.56345 0.0
C201 C 0.22452 0.03706 0.58457 0.0
C202 C 0.1961 0.02229 0.57302 0.0
C203 C 0.17618 0.0398 0.54107 0.0
H204 H 0.24176 0.63907 0.95119 0.0
C205 C 0.23138 0.64287 0.98643 0.0
H206 H 0.23552 0.63024 0.06091 0.0
H207 H 0.32108 0.50767 0.95268 0.0
H208 H 0.27242 0.48337 0.92437 0.0
H209 H 0.22322 0.51399 0.93976 0.0
H210 H 0.22239 0.56916 0.98353 0.0
C211 C 0.24345 0.62522 0.02457 0.0
C212 C 0.27243 0.60466 0.01913 0.0
C213 C 0.27247 0.57235 0.99387 0.0
C214 C 0.30081 0.55458 0.98533 0.0
C215 C 0.30022 0.52233 0.96002 0.0
C216 C 0.27245 0.50805 0.94366 0.0
C217 C 0.24475 0.52531 0.95228 0.0
C218 C 0.2446 0.55704 0.9772 0.0
H219 H 0.36691 0.53755 0.06577 0.0
C220 C 0.37548 0.53639 0.02899 0.0
H221 H 0.36643 0.54929 0.9557 0.0
H222 H 0.28024 0.66557 0.07036 0.0
H223 H 0.3288 0.69039 0.09749 0.0
H224 H 0.37815 0.66081 0.08004 0.0
H225 H 0.37918 0.60616 0.03584 0.0
C226 C 0.35859 0.55061 0.99282 0.0
C227 C 0.32897 0.56903 0.00241 0.0
C228 C 0.32892 0.6014 0.02777 0.0
C229 C 0.30054 0.61889 0.03683 0.0
C230 C 0.30109 0.65111 0.06236 0.0
C231 C 0.32884 0.66575 0.07808 0.0
C232 C 0.3566 0.64907 0.06834 0.0
C233 C 0.35681 0.61744 0.04326 0.0
H234 H 0.78592 0.83289 0.54131 0.0
C235 C 0.76817 0.83422 0.51334 0.0
H236 H 0.75468 0.86089 0.44875 0.0
H237 H 0.85924 0.96085 0.5657 0.0
H238 H 0.81935 0.96928 0.62542 0.0
H239 H 0.76875 0.93975 0.61762 0.0
H240 H 0.75802 0.90108 0.55031 0.0
C241 C 0.77051 0.85975 0.47922 0.0
C242 C 0.79799 0.88347 0.47851 0.0
C243 C 0.80337 0.9073 0.51672 0.0
C244 C 0.83208 0.92543 0.5201 0.0
C245 C 0.83752 0.94732 0.56034 0.0
C246 C 0.81484 0.95227 0.59507 0.0
C247 C 0.7864 0.93556 0.59077 0.0
C248 C 0.7806 0.91328 0.55215 0.0
H249 H 0.87137 0.98913 0.47644 0.0
C250 C 0.89084 0.97167 0.48371 0.0
H251 H 0.90537 0.91889 0.49516 0.0
H252 H 0.79397 0.84221 0.39809 0.0
H253 H 0.83259 0.83651 0.33573 0.0
H254 H 0.88161 0.86965 0.34003 0.0
H255 H 0.89235 0.90855 0.40695 0.0
C256 C 0.88602 0.93676 0.48933 0.0
C257 C 0.85484 0.92072 0.48412 0.0
C258 C 0.84863 0.89868 0.44427 0.0
C259 C 0.82019 0.87999 0.44146 0.0
C260 C 0.815 0.85736 0.40189 0.0
C261 C 0.83701 0.85381 0.3658 0.0
C262 C 0.86462 0.87243 0.36823 0.0
C263 C 0.87051 0.89461 0.40693 0.0
H264 H 0.74302 0.35159 0.97359 0.0
C265 C 0.7588 0.37313 0.98177 0.0
H266 H 0.76173 0.42818 0.99447 0.0
H267 H 0.6291 0.45552 0.90186 0.0
H268 H 0.66183 0.47714 0.83709 0.0
H269 H 0.71833 0.46901 0.84087 0.0
H270 H 0.74242 0.43899 0.90936 0.0
C271 C 0.74692 0.40533 0.98966 0.0
C272 C 0.71298 0.41117 0.9884 0.0
C273 C 0.69938 0.42943 0.94864 0.0
C274 C 0.66687 0.43466 0.94688 0.0
C275 C 0.65375 0.45175 0.90579 0.0
C276 C 0.67226 0.46406 0.86815 0.0
C277 C 0.70406 0.45944 0.87025 0.0
C278 C 0.71759 0.44223 0.90983 0.0
H279 H 0.62014 0.48437 0.99369 0.0
C280 C 0.60379 0.46263 0.99108 0.0
H281 H 0.59854 0.40733 0.98447 0.0
H282 H 0.73197 0.37675 0.07116 0.0
H283 H 0.69928 0.35507 0.13589 0.0
H284 H 0.64283 0.36377 0.13261 0.0
H285 H 0.61876 0.39431 0.06462 0.0
C286 C 0.6144 0.42959 0.98557 0.0
C287 C 0.64815 0.4223 0.98549 0.0
C288 C 0.66175 0.40374 0.02504 0.0
C289 C 0.69424 0.3984 0.0267 0.0
C290 C 0.70734 0.38087 0.06747 0.0
C291 C 0.68886 0.36846 0.10506 0.0
C292 C 0.65709 0.37339 0.10324 0.0
C293 C 0.64357 0.39092 0.06391 0.0
H294 H 0.0581 0.78946 0.20089 0.0
C295 C 0.08197 0.79797 0.19691 0.0
H296 H 0.11649 0.83263 0.22313 0.0
H297 H 0.99748 0.91933 0.30283 0.0
H298 H 0.98498 0.93016 0.21835 0.0
H299 H 0.01376 0.90017 0.15418 0.0
H300 H 0.05468 0.85878 0.174 0.0
C301 C 0.09317 0.82252 0.227 0.0
C302 C 0.07397 0.83862 0.26512 0.0
C303 C 0.0506 0.86344 0.25253 0.0
C304 C 0.03493 0.88194 0.28936 0.0
C305 C 0.01089 0.90561 0.27612 0.0
C306 C 0.00335 0.91189 0.22781 0.0
C307 C 0.01948 0.89492 0.19171 0.0
C308 C 0.04288 0.87103 0.20367 0.0
H309 H 0.054 0.94537 0.34654 0.0
C310 C 0.03926 0.93522 0.37525 0.0
H311 H 0.01762 0.88972 0.40498 0.0
H312 H 0.11533 0.79039 0.30133 0.0
H313 H 0.12767 0.77967 0.38598 0.0
H314 H 0.10167 0.81326 0.44972 0.0
H315 H 0.0631 0.85766 0.42929 0.0
C316 C 0.03157 0.90079 0.37599 0.0
C317 C 0.04365 0.87682 0.3384 0.0
C318 C 0.0658 0.85069 0.35109 0.0
C319 C 0.08099 0.83157 0.31434 0.0
C320 C 0.10333 0.80589 0.32786 0.0
C321 C 0.11056 0.79943 0.37627 0.0
C322 C 0.09591 0.81832 0.41216 0.0
C323 C 0.07382 0.84375 0.39994 0.0
H324 H 0.61092 0.69114 0.71633 0.0
C325 C 0.5996 0.68451 0.68248 0.0
H326 H 0.56039 0.66061 0.65071 0.0
H327 H 0.54816 0.54796 0.8199 0.0
H328 H 0.56535 0.51165 0.75406 0.0
H329 H 0.58062 0.53865 0.6762 0.0
H330 H 0.57892 0.60212 0.66388 0.0
C331 C 0.57247 0.66719 0.68383 0.0
C332 C 0.56085 0.6514 0.72974 0.0
C333 C 0.56132 0.61411 0.73592 0.0
C334 C 0.55217 0.59851 0.78058 0.0
C335 C 0.55409 0.56127 0.7864 0.0
C336 C 0.56412 0.54005 0.74896 0.0
C337 C 0.57274 0.55525 0.70516 0.0
C338 C 0.57156 0.59179 0.69856 0.0
H339 H 0.49006 0.58567 0.83947 0.0
C340 C 0.50613 0.58595 0.86979 0.0
H341 H 0.54934 0.60453 0.89519 0.0
H342 H 0.55453 0.72341 0.72824 0.0
H343 H 0.53716 0.75982 0.79426 0.0
H344 H 0.52195 0.73275 0.87216 0.0
H345 H 0.52384 0.66903 0.88446 0.0
C346 C 0.53283 0.60382 0.86552 0.0
C347 C 0.54197 0.62023 0.81866 0.0
C348 C 0.54117 0.65744 0.81234 0.0
C349 C 0.55039 0.67307 0.76766 0.0
C350 C 0.54851 0.71025 0.76182 0.0
C351 C 0.5384 0.73142 0.79932 0.0
C352 C 0.5298 0.71617 0.84317 0.0
C353 C 0.53104 0.67961 0.84978 0.0
H354 H 0.89624 0.2208 0.17733 0.0
C355 C 0.91552 0.23801 0.16799 0.0
H356 H 0.96077 0.25334 0.18884 0.0
H357 H 0.95239 0.19017 0.40018 0.0
H358 H 0.95077 0.25307 0.41581 0.0
H359 H 0.94585 0.29646 0.34884 0.0
H360 H 0.9427 0.27722 0.26577 0.0
C361 C 0.94163 0.23526 0.19435 0.0
C362 C 0.94431 0.2089 0.23455 0.0
C363 C 0.94587 0.2206 0.28289 0.0
C364 C 0.94831 0.19556 0.32153 0.0
C365 C 0.95022 0.208 0.36945 0.0
C366 C 0.94935 0.24405 0.37895 0.0
C367 C 0.9466 0.26848 0.34124 0.0
C368 C 0.94486 0.25706 0.29371 0.0
H369 H 0.99769 0.11791 0.33087 0.0
C370 C 0.97941 0.11441 0.3573 0.0
H371 H 0.93499 0.13082 0.37902 0.0
H372 H 0.94494 0.17756 0.14581 0.0
H373 H 0.94451 0.11467 0.13037 0.0
H374 H 0.94487 0.07121 0.19767 0.0
H375 H 0.94624 0.09045 0.28076 0.0
C376 C 0.95314 0.133 0.35221 0.0
C377 C 0.94915 0.1589 0.31173 0.0
C378 C 0.94697 0.14715 0.26342 0.0
C379 C 0.94528 0.1722 0.22471 0.0
C380 C 0.94497 0.15975 0.17671 0.0
C381 C 0.94493 0.12368 0.16729 0.0
C382 C 0.94525 0.09922 0.20516 0.0
C383 C 0.94624 0.11065 0.25271 0.0
H384 H 0.45802 0.24918 0.7165 0.0
C385 C 0.44018 0.26002 0.69275 0.0
H386 H 0.40881 0.30256 0.68232 0.0
H387 H 0.44418 0.32514 0.91195 0.0
H388 H 0.41518 0.27114 0.92657 0.0
H389 H 0.39613 0.23547 0.85872 0.0
H390 H 0.40604 0.2535 0.77584 0.0
C391 C 0.42699 0.2909 0.70441 0.0
C392 C 0.43854 0.31188 0.74575 0.0
C393 C 0.43247 0.30094 0.79396 0.0
C394 C 0.44318 0.3217 0.83308 0.0
C395 C 0.43663 0.31034 0.88088 0.0
C396 C 0.41997 0.27943 0.88979 0.0
C397 C 0.40926 0.25933 0.85159 0.0
C398 C 0.41526 0.26989 0.80416 0.0
H399 H 0.43811 0.41714 0.84584 0.0
C400 C 0.4558 0.40803 0.87113 0.0
H401 H 0.48612 0.3662 0.89025 0.0
H402 H 0.45456 0.33986 0.65764 0.0
H403 H 0.48454 0.39311 0.64305 0.0
H404 H 0.50427 0.42829 0.71092 0.0
H405 H 0.49393 0.41059 0.79371 0.0
C406 C 0.46897 0.37629 0.86479 0.0
C407 C 0.45954 0.35355 0.82386 0.0
C408 C 0.46631 0.36398 0.77565 0.0
C409 C 0.45545 0.34334 0.73656 0.0
C410 C 0.46226 0.35453 0.68874 0.0
C411 C 0.47951 0.385 0.67982 0.0
C412 C 0.49058 0.40483 0.71802 0.0
C413 C 0.48425 0.39451 0.76542 0.0
H414 H 0.62824 0.68453 0.28195 0.0
C415 C 0.6144 0.68641 0.31448 0.0
H416 H 0.57163 0.67255 0.34623 0.0
H417 H 0.53408 0.66212 0.11462 0.0
H418 H 0.53304 0.72628 0.11591 0.0
H419 H 0.55041 0.7585 0.188 0.0
H420 H 0.5689 0.72672 0.25935 0.0
C421 C 0.58529 0.67405 0.31352 0.0
C422 C 0.57358 0.65503 0.27057 0.0
C423 C 0.56298 0.67396 0.22923 0.0
C424 C 0.55297 0.65535 0.1877 0.0
C425 C 0.54215 0.67492 0.14703 0.0
C426 C 0.54137 0.71174 0.14733 0.0
C427 C 0.55116 0.72989 0.18792 0.0
C428 C 0.56181 0.71136 0.22855 0.0
H429 H 0.50486 0.57519 0.17864 0.0
C430 C 0.51804 0.57752 0.14543 0.0
H431 H 0.55627 0.60175 0.11112 0.0
H432 H 0.59205 0.61086 0.34448 0.0
H433 H 0.59475 0.54689 0.34257 0.0
H434 H 0.57991 0.51463 0.26924 0.0
H435 H 0.56196 0.54606 0.19772 0.0
C436 C 0.54309 0.59851 0.14415 0.0
C437 C 0.55362 0.61786 0.18768 0.0
C438 C 0.56478 0.59894 0.22888 0.0
C439 C 0.57419 0.61757 0.27068 0.0
C440 C 0.5848 0.59807 0.31161 0.0
C441 C 0.58653 0.56133 0.31101 0.0
C442 C 0.57811 0.54317 0.26977 0.0
C443 C 0.56753 0.56159 0.22903 0.0
H444 H 0.95553 0.25387 0.80138 0.0
C445 C 0.93483 0.24529 0.82031 0.0
H446 H 0.89855 0.20782 0.82252 0.0
H447 H 0.96678 0.18676 0.60829 0.0
H448 H 0.94916 0.2461 0.58883 0.0
H449 H 0.92221 0.2817 0.64947 0.0
H450 H 0.9134 0.25841 0.73024 0.0
C451 C 0.91959 0.21656 0.80485 0.0
C452 C 0.93233 0.19399 0.7662 0.0
C453 C 0.93584 0.2074 0.71842 0.0
C454 C 0.94983 0.18615 0.68268 0.0
C455 C 0.955 0.20107 0.63621 0.0
C456 C 0.94519 0.23523 0.62463 0.0
C457 C 0.93014 0.25532 0.65883 0.0
C458 C 0.92544 0.24171 0.7052 0.0
H459 H 0.93316 0.12684 0.61233 0.0
C460 C 0.95652 0.11711 0.61833 0.0
H461 H 0.99579 0.11776 0.66392 0.0
H462 H 0.92868 0.16007 0.85418 0.0
H463 H 0.94381 0.09967 0.87248 0.0
H464 H 0.96539 0.06173 0.80937 0.0
H465 H 0.97223 0.08407 0.72771 0.0
C466 C 0.97268 0.12793 0.65699 0.0
C467 C 0.95866 0.15086 0.69412 0.0
C468 C 0.95438 0.13719 0.74155 0.0
C469 C 0.94137 0.15883 0.77768 0.0
C470 C 0.93799 0.14469 0.82505 0.0
C471 C 0.94664 0.11004 0.83613 0.0
C472 C 0.95883 0.0887 0.80063 0.0
C473 C 0.96271 0.10193 0.75387 0.0
H474 H 0.40923 0.29725 0.33791 0.0
C475 C 0.42804 0.27853 0.34349 0.0
H476 H 0.47145 0.26196 0.31647 0.0
H477 H 0.4274 0.34625 0.12176 0.0
H478 H 0.40549 0.28909 0.10278 0.0
H479 H 0.40608 0.24029 0.16287 0.0
H480 H 0.42834 0.24857 0.24261 0.0
C481 C 0.45256 0.28072 0.31408 0.0
C482 C 0.45435 0.3092 0.27676 0.0
C483 C 0.44211 0.30363 0.22997 0.0
C484 C 0.44259 0.33148 0.19491 0.0
C485 C 0.42875 0.3257 0.14923 0.0
C486 C 0.41584 0.29306 0.13797 0.0
C487 C 0.4161 0.26561 0.17184 0.0
C488 C 0.42895 0.27071 0.21743 0.0
H489 H 0.48746 0.36669 0.12344 0.0
C490 C 0.4751 0.39112 0.13017 0.0
H491 H 0.44574 0.4182 0.17774 0.0
H492 H 0.48011 0.32807 0.36305 0.0
H493 H 0.50277 0.38494 0.38212 0.0
H494 H 0.50469 0.43296 0.32096 0.0
H495 H 0.4839 0.4245 0.24048 0.0
C496 C 0.45761 0.39366 0.16987 0.0
C497 C 0.45621 0.36449 0.20643 0.0
C498 C 0.46853 0.36995 0.25331 0.0
C499 C 0.4676 0.34224 0.2885 0.0
C500 C 0.48016 0.34829 0.335 0.0
C501 C 0.49328 0.38077 0.3464 0.0
C502 C 0.49435 0.40781 0.31198 0.0
C503 C 0.48224 0.40261 0.26591 0.0
H504 H 0.05983 0.79307 0.81541 0.0
C505 C 0.071 0.81355 0.83646 0.0
H506 H 0.08474 0.86722 0.8367 0.0
H507 H 0.07894 0.89886 0.61654 0.0
H508 H 0.1341 0.88939 0.62687 0.0
H509 H 0.15505 0.86443 0.70309 0.0
H510 H 0.12098 0.84868 0.76933 0.0
C511 C 0.07142 0.84686 0.81885 0.0
C512 C 0.05811 0.85645 0.77092 0.0
C513 C 0.07834 0.86528 0.73256 0.0
C514 C 0.06634 0.87987 0.68883 0.0
C515 C 0.08699 0.88831 0.6509 0.0
C516 C 0.11865 0.88281 0.65625 0.0
C517 C 0.13044 0.86874 0.69915 0.0
C518 C 0.11064 0.85997 0.73695 0.0
H519 H 0.04068 0.95446 0.67075 0.0
C520 C 0.02802 0.94252 0.64109 0.0
H521 H 0.0092 0.89488 0.61417 0.0
H522 H 0.01272 0.83996 0.83611 0.0
H523 H 0.9575 0.8471 0.82406 0.0
H524 H 0.93674 0.87163 0.74747 0.0
H525 H 0.97119 0.88935 0.68246 0.0
C526 C 0.02242 0.9076 0.6425 0.0
C527 C 0.03419 0.88598 0.68385 0.0
C528 C 0.01375 0.87461 0.72064 0.0
C529 C 0.02573 0.86005 0.76454 0.0
C530 C 0.00488 0.85057 0.80172 0.0
C531 C 0.97312 0.85465 0.79533 0.0
C532 C 0.96143 0.8685 0.75221 0.0
C533 C 0.98141 0.87857 0.71524 0.0
loop_
_geom_bond_atom_site_label_1
_geom_bond_atom_site_label_2
_geom_bond_distance
_geom_bond_site_symmetry_2
_ccdc_geom_bond_type
P0 O11 1.490 . S
P0 C14 1.812 . S
P0 C20 1.803 . S
P0 C26 1.819 1_554 S
H1 C15 0.941 . S
H2 C16 0.939 . S
H3 C18 0.940 . S
H4 C19 0.940 . S
H5 C21 0.939 . S
H6 C22 0.942 . S
H7 C24 0.940 . S
H8 C25 0.939 . S
H9 C27 0.941 . S
H10 C31 0.939 . S
O11 P0 1.490 . S
H12 C28 0.939 . S
H13 C30 0.940 . S
C14 P0 1.812 . S
C14 C15 1.389 . S
C14 C19 1.391 . S
C15 H1 0.941 . S
C15 C14 1.389 . S
C15 C16 1.397 . S
C16 H2 0.939 . S
C16 C15 1.397 . S
C16 C17 1.378 . S
C17 C16 1.378 . S
C17 C18 1.378 . S
C18 H3 0.940 . S
C18 C17 1.378 . S
C18 C19 1.396 . S
C19 H4 0.940 . S
C19 C14 1.391 . S
C19 C18 1.396 . S
C20 P0 1.803 . S
C20 C21 1.378 1_554 S
C20 C25 1.400 . S
C21 H5 0.939 . S
C21 C20 1.378 1_556 S
C21 C22 1.361 . S
C22 H6 0.942 . S
C22 C21 1.361 . S
C22 C23 1.369 1_556 S
C23 C22 1.369 1_554 S
C23 C24 1.404 . S
C24 H7 0.940 . S
C24 C23 1.404 . S
C24 C25 1.389 . S
C25 H8 0.939 . S
C25 C20 1.400 . S
C25 C24 1.389 . S
C26 P0 1.819 1_556 S
C26 C27 1.391 . S
C26 C31 1.391 . S
C27 H9 0.941 . S
C27 C26 1.391 . S
C27 C28 1.396 . S
C28 H12 0.939 . S
C28 C27 1.396 . S
C28 C29 1.397 . S
C29 C28 1.397 . S
C29 C30 1.385 . S
C30 H13 0.940 . S
C30 C29 1.385 . S
C30 C31 1.388 . S
C31 H10 0.939 . S
C31 C26 1.391 . S
C31 C30 1.388 . S
P32 O43 1.490 . S
P32 C46 1.812 . S
P32 C52 1.803 . S
P32 C58 1.819 . S
H33 C47 0.941 . S
H34 C48 0.939 . S
H35 C50 0.940 . S
H36 C51 0.940 . S
H37 C53 0.939 . S
H38 C54 0.942 . S
H39 C56 0.940 . S
H40 C57 0.939 . S
H41 C59 0.941 . S
H42 C63 0.939 . S
O43 P32 1.490 . S
H44 C60 0.939 . S
H45 C62 0.940 . S
C46 P32 1.812 . S
C46 C47 1.389 . S
C46 C51 1.391 . S
C47 H33 0.941 . S
C47 C46 1.389 . S
C47 C48 1.397 . S
C48 H34 0.939 . S
C48 C47 1.397 . S
C48 C49 1.378 . S
C49 C48 1.378 . S
C49 C50 1.378 . S
C50 H35 0.940 . S
C50 C49 1.378 . S
C50 C51 1.396 . S
C51 H36 0.940 . S
C51 C46 1.391 . S
C51 C50 1.396 . S
C52 P32 1.803 . S
C52 C53 1.378 . S
C52 C57 1.400 . S
C53 H37 0.939 . S
C53 C52 1.378 . S
C53 C54 1.361 . S
C54 H38 0.942 . S
C54 C53 1.361 . S
C54 C55 1.369 . S
C55 C54 1.369 . S
C55 C56 1.404 . S
C56 H39 0.940 . S
C56 C55 1.404 . S
C56 C57 1.389 . S
C57 H40 0.939 . S
C57 C52 1.400 . S
C57 C56 1.389 . S
C58 P32 1.819 . S
C58 C59 1.391 . S
C58 C63 1.391 . S
C59 H41 0.941 . S
C59 C58 1.391 . S
C59 C60 1.396 . S
C60 H44 0.939 . S
C60 C59 1.396 . S
C60 C61 1.397 . S
C61 C60 1.397 . S
C61 C62 1.385 . S
C62 H45 0.940 . S
C62 C61 1.385 . S
C62 C63 1.388 . S
C63 H42 0.939 . S
C63 C58 1.391 . S
C63 C62 1.388 . S
P64 O75 1.490 . S
P64 C78 1.812 . S
P64 C84 1.803 . S
P64 C90 1.819 1_556 S
H65 C79 0.941 . S
H66 C80 0.939 . S
H67 C82 0.940 . S
H68 C83 0.940 . S
H69 C85 0.939 . S
H70 C86 0.942 . S
H71 C88 0.940 . S
H72 C89 0.939 . S
H73 C91 0.941 . S
H74 C95 0.939 . S
O75 P64 1.490 . S
H76 C92 0.939 . S
H77 C94 0.940 . S
C78 P64 1.812 . S
C78 C79 1.389 . S
C78 C83 1.391 . S
C79 H65 0.941 . S
C79 C78 1.389 . S
C79 C80 1.397 . S
C80 H66 0.939 . S
C80 C79 1.397 . S
C80 C81 1.378 . S
C81 C80 1.378 . S
C81 C82 1.378 . S
C82 H67 0.940 . S
C82 C81 1.378 . S
C82 C83 1.396 . S
C83 H68 0.940 . S
C83 C78 1.391 . S
C83 C82 1.396 . S
C84 P64 1.803 . S
C84 C85 1.378 1_556 S
C84 C89 1.400 . S
C85 H69 0.939 . S
C85 C84 1.378 1_554 S
C85 C86 1.361 . S
C86 H70 0.942 . S
C86 C85 1.361 . S
C86 C87 1.369 . S
C87 C86 1.369 . S
C87 C88 1.404 1_554 S
C88 H71 0.940 . S
C88 C87 1.404 1_556 S
C88 C89 1.389 . S
C89 H72 0.939 . S
C89 C84 1.400 . S
C89 C88 1.389 . S
C90 P64 1.819 1_554 S
C90 C91 1.391 . S
C90 C95 1.391 . S
C91 H73 0.941 . S
C91 C90 1.391 . S
C91 C92 1.396 . S
C92 H76 0.939 . S
C92 C91 1.396 . S
C92 C93 1.397 . S
C93 C92 1.397 . S
C93 C94 1.385 . S
C94 H77 0.940 . S
C94 C93 1.385 . S
C94 C95 1.388 . S
C95 H74 0.939 . S
C95 C90 1.391 . S
C95 C94 1.388 . S
P96 O107 1.490 . S
P96 C110 1.812 . S
P96 C116 1.803 . S
P96 C122 1.819 . S
H97 C111 0.941 . S
H98 C112 0.939 . S
H99 C114 0.940 . S
H100 C115 0.940 . S
H101 C117 0.939 . S
H102 C118 0.942 . S
H103 C120 0.940 . S
H104 C121 0.939 . S
H105 C123 0.941 . S
H106 C127 0.939 . S
O107 P96 1.490 . S
H108 C124 0.939 . S
H109 C126 0.940 . S
C110 P96 1.812 . S
C110 C111 1.389 . S
C110 C115 1.391 . S
C111 H97 0.941 . S
C111 C110 1.389 . S
C111 C112 1.397 . S
C112 H98 0.939 . S
C112 C111 1.397 . S
C112 C113 1.378 . S
C113 C112 1.378 . S
C113 C114 1.378 . S
C114 H99 0.940 . S
C114 C113 1.378 . S
C114 C115 1.396 . S
C115 H100 0.940 . S
C115 C110 1.391 . S
C115 C114 1.396 . S
C116 P96 1.803 . S
C116 C117 1.378 . S
C116 C121 1.400 . S
C117 H101 0.939 . S
C117 C116 1.378 . S
C117 C118 1.361 . S
C118 H102 0.942 . S
C118 C117 1.361 . S
C118 C119 1.369 . S
C119 C118 1.369 . S
C119 C120 1.404 . S
C120 H103 0.940 . S
C120 C119 1.404 . S
C120 C121 1.389 . S
C121 H104 0.939 . S
C121 C116 1.400 . S
C121 C120 1.389 . S
C122 P96 1.819 . S
C122 C123 1.391 . S
C122 C127 1.391 . S
C123 H105 0.941 . S
C123 C122 1.391 . S
C123 C124 1.396 . S
C124 H108 0.939 . S
C124 C123 1.396 . S
C124 C125 1.397 . S
C125 C124 1.397 . S
C125 C126 1.385 . S
C126 H109 0.940 . S
C126 C125 1.385 . S
C126 C127 1.388 . S
C127 H106 0.939 . S
C127 C122 1.391 . S
C127 C126 1.388 . S
O128 Zn129 1.953 1_565 S
O128 C144 1.225 . S
Zn129 O128 1.953 1_545 S
Zn129 O130 1.949 1_655 S
Zn129 O136 1.919 . S
Zn129 O141 1.924 . S
O130 Zn129 1.949 1_455 S
O130 Zn131 1.923 . S
O130 Zn132 1.950 1_445 S
O130 Zn133 1.945 . S
Zn131 O130 1.923 . S
Zn131 O134 1.933 . S
Zn131 O137 1.941 . S
Zn131 O138 1.965 1_545 S
Zn132 O130 1.950 1_665 S
Zn132 O139 1.938 1_655 S
Zn132 O140 1.906 1_655 S
Zn132 O150 1.953 . S
Zn133 O130 1.945 . S
Zn133 O135 1.932 . S
Zn133 O142 1.977 1_545 S
Zn133 O143 1.910 1_455 S
O134 Zn131 1.933 . S
O134 C145 1.226 . S
O135 Zn133 1.932 . S
O135 C145 1.307 . S
O136 Zn129 1.919 . S
O136 C147 1.253 . S
O137 Zn131 1.941 . S
O137 C147 1.283 1_455 S
O138 Zn131 1.965 1_565 S
O138 C146 1.303 . S
O139 Zn132 1.938 1_455 S
O139 C146 1.247 . S
O140 Zn132 1.906 1_455 S
O140 C148 1.304 . S
O141 Zn129 1.924 . S
O141 C149 1.311 . S
O142 Zn133 1.977 1_565 S
O142 C148 1.272 . S
O143 Zn133 1.910 1_655 S
O143 C149 1.231 . S
C144 O128 1.225 . S
C144 O150 1.298 . S
C145 O134 1.226 . S
C145 O135 1.307 . S
C146 O138 1.303 . S
C146 O139 1.247 . S
C147 O136 1.253 . S
C147 O137 1.283 1_655 S
C148 O140 1.304 . S
C148 O142 1.272 . S
C149 O141 1.311 . S
C149 O143 1.231 . S
O150 Zn132 1.953 . S
O150 C144 1.298 . S
O151 Zn152 1.953 . S
O151 C167 1.225 1_556 S
Zn152 O151 1.953 . S
Zn152 O153 1.949 1_556 S
Zn152 O159 1.919 . S
Zn152 O164 1.924 1_556 S
O153 Zn152 1.949 1_554 S
O153 Zn154 1.923 1_554 S
O153 Zn155 1.950 . S
O153 Zn156 1.945 . S
Zn154 O153 1.923 1_556 S
Zn154 O157 1.933 . S
Zn154 O160 1.941 . S
Zn154 O161 1.965 . S
Zn155 O153 1.950 . S
Zn155 O162 1.938 1_554 S
Zn155 O163 1.906 . S
Zn155 O173 1.953 . S
Zn156 O153 1.945 . S
Zn156 O158 1.932 . S
Zn156 O165 1.977 . S
Zn156 O166 1.910 . S
O157 Zn154 1.933 . S
O157 C168 1.226 1_556 S
O158 Zn156 1.932 . S
O158 C168 1.307 . S
O159 Zn152 1.919 . S
O159 C170 1.253 . S
O160 Zn154 1.941 . S
O160 C170 1.283 . S
O161 Zn154 1.965 . S
O161 C169 1.303 . S
O162 Zn155 1.938 1_556 S
O162 C169 1.247 . S
O163 Zn155 1.906 . S
O163 C171 1.304 . S
O164 Zn152 1.924 1_554 S
O164 C172 1.311 . S
O165 Zn156 1.977 . S
O165 C171 1.272 . S
O166 Zn156 1.910 . S
O166 C172 1.231 . S
C167 O151 1.225 1_554 S
C167 O173 1.298 . S
C168 O157 1.226 1_554 S
C168 O158 1.307 . S
C169 O161 1.303 . S
C169 O162 1.247 . S
C170 O159 1.253 . S
C170 O160 1.283 . S
C171 O163 1.304 . S
C171 O165 1.272 . S
C172 O164 1.311 . S
C172 O166 1.231 . S
O173 Zn155 1.953 . S
O173 C167 1.298 . S
H174 C175 0.951 . S
C175 H174 0.951 . S
C175 C181 1.265 . S
H176 C181 0.950 . S
H177 C185 0.949 . S
H178 C186 0.950 . S
H179 C187 0.951 . S
H180 C188 0.951 . S
C181 C175 1.265 . S
C181 H176 0.950 . S
C181 C182 1.478 . S
C182 C181 1.478 . S
C182 C183 1.397 . S
C182 C199 1.394 . S
C183 C182 1.397 . S
C183 C184 1.438 . S
C183 C188 1.429 . S
C184 C183 1.438 . S
C184 C185 1.428 . S
C184 C197 1.394 . S
C185 H177 0.949 . S
C185 C184 1.428 . S
C185 C186 1.345 . S
C186 H178 0.950 . S
C186 C185 1.345 . S
C186 C187 1.424 . S
C187 H179 0.951 . S
C187 C186 1.424 . S
C187 C188 1.347 . S
C188 H180 0.951 . S
C188 C183 1.429 . S
C188 C187 1.347 . S
H189 C190 0.951 . S
C190 H189 0.951 . S
C190 C196 1.265 . S
H191 C196 0.950 . S
H192 C200 0.949 . S
H193 C201 0.950 . S
H194 C202 0.951 . S
H195 C203 0.951 . S
C196 C190 1.265 . S
C196 H191 0.950 . S
C196 C197 1.478 . S
C197 C184 1.394 . S
C197 C196 1.478 . S
C197 C198 1.397 . S
C198 C197 1.397 . S
C198 C199 1.438 . S
C198 C203 1.429 . S
C199 C182 1.394 . S
C199 C198 1.438 . S
C199 C200 1.428 . S
C200 H192 0.949 . S
C200 C199 1.428 . S
C200 C201 1.345 . S
C201 H193 0.950 . S
C201 C200 1.345 . S
C201 C202 1.424 . S
C202 H194 0.951 . S
C202 C201 1.424 . S
C202 C203 1.347 . S
C203 H195 0.951 . S
C203 C198 1.429 . S
C203 C202 1.347 . S
H204 C205 0.951 . S
C205 H204 0.951 . S
C205 C211 1.265 . S
H206 C211 0.950 . S
H207 C215 0.949 . S
H208 C216 0.950 . S
H209 C217 0.951 . S
H210 C218 0.951 . S
C211 C205 1.265 . S
C211 H206 0.950 . S
C211 C212 1.478 . S
C212 C211 1.478 . S
C212 C213 1.397 1_554 S
C212 C229 1.394 . S
C213 C212 1.397 1_556 S
C213 C214 1.438 . S
C213 C218 1.429 . S
C214 C213 1.438 . S
C214 C215 1.428 . S
C214 C227 1.394 1_556 S
C215 H207 0.949 . S
C215 C214 1.428 . S
C215 C216 1.345 . S
C216 H208 0.950 . S
C216 C215 1.345 . S
C216 C217 1.424 . S
C217 H209 0.951 . S
C217 C216 1.424 . S
C217 C218 1.347 . S
C218 H210 0.951 . S
C218 C213 1.429 . S
C218 C217 1.347 . S
H219 C220 0.951 . S
C220 H219 0.951 . S
C220 C226 1.265 . S
H221 C226 0.950 . S
H222 C230 0.949 . S
H223 C231 0.950 . S
H224 C232 0.951 . S
H225 C233 0.951 . S
C226 C220 1.265 . S
C226 H221 0.950 . S
C226 C227 1.478 . S
C227 C214 1.394 1_554 S
C227 C226 1.478 . S
C227 C228 1.397 . S
C228 C227 1.397 . S
C228 C229 1.438 . S
C228 C233 1.429 . S
C229 C212 1.394 . S
C229 C228 1.438 . S
C229 C230 1.428 . S
C230 H222 0.949 . S
C230 C229 1.428 . S
C230 C231 1.345 . S
C231 H223 0.950 . S
C231 C230 1.345 . S
C231 C232 1.424 . S
C232 H224 0.951 . S
C232 C231 1.424 . S
C232 C233 1.347 . S
C233 H225 0.951 . S
C233 C228 1.429 . S
C233 C232 1.347 . S
H234 C235 0.951 . S
C235 H234 0.951 . S
C235 C241 1.265 . S
H236 C241 0.950 . S
H237 C245 0.949 . S
H238 C246 0.950 . S
H239 C247 0.951 . S
H240 C248 0.951 . S
C241 C235 1.265 . S
C241 H236 0.950 . S
C241 C242 1.478 . S
C242 C241 1.478 . S
C242 C243 1.397 . S
C242 C259 1.394 . S
C243 C242 1.397 . S
C243 C244 1.438 . S
C243 C248 1.429 . S
C244 C243 1.438 . S
C244 C245 1.428 . S
C244 C257 1.394 . S
C245 H237 0.949 . S
C245 C244 1.428 . S
C245 C246 1.345 . S
C246 H238 0.950 . S
C246 C245 1.345 . S
C246 C247 1.424 . S
C247 H239 0.951 . S
C247 C246 1.424 . S
C247 C248 1.347 . S
C248 H240 0.951 . S
C248 C243 1.429 . S
C248 C247 1.347 . S
H249 C250 0.951 . S
C250 H249 0.951 . S
C250 C256 1.265 . S
H251 C256 0.950 . S
H252 C260 0.949 . S
H253 C261 0.950 . S
H254 C262 0.951 . S
H255 C263 0.951 . S
C256 C250 1.265 . S
C256 H251 0.950 . S
C256 C257 1.478 . S
C257 C244 1.394 . S
C257 C256 1.478 . S
C257 C258 1.397 . S
C258 C257 1.397 . S
C258 C259 1.438 . S
C258 C263 1.429 . S
C259 C242 1.394 . S
C259 C258 1.438 . S
C259 C260 1.428 . S
C260 H252 0.949 . S
C260 C259 1.428 . S
C260 C261 1.345 . S
C261 H253 0.950 . S
C261 C260 1.345 . S
C261 C262 1.424 . S
C262 H254 0.951 . S
C262 C261 1.424 . S
C262 C263 1.347 . S
C263 H255 0.951 . S
C263 C258 1.429 . S
C263 C262 1.347 . S
H264 C265 0.951 . S
C265 H264 0.951 . S
C265 C271 1.265 1_554 S
H266 C271 0.950 . S
H267 C275 0.949 . S
H268 C276 0.950 . S
H269 C277 0.951 . S
H270 C278 0.951 . S
C271 C265 1.265 1_556 S
C271 H266 0.950 . S
C271 C272 1.478 . S
C272 C271 1.478 . S
C272 C273 1.399 . S
C272 C289 1.391 1_556 S
C273 C272 1.399 . S
C273 C274 1.438 . S
C273 C278 1.429 . S
C274 C273 1.438 . S
C274 C275 1.428 . S
C274 C287 1.394 1_556 S
C275 H267 0.949 . S
C275 C274 1.428 . S
C275 C276 1.345 . S
C276 H268 0.950 . S
C276 C275 1.345 . S
C276 C277 1.424 . S
C277 H269 0.951 . S
C277 C276 1.424 . S
C277 C278 1.347 . S
C278 H270 0.951 . S
C278 C273 1.429 . S
C278 C277 1.347 . S
H279 C280 0.951 1_556 S
C280 H279 0.951 1_554 S
C280 C286 1.265 . S
H281 C286 0.950 . S
H282 C290 0.949 . S
H283 C291 0.950 . S
H284 C292 0.951 . S
H285 C293 0.951 . S
C286 C280 1.265 . S
C286 H281 0.950 . S
C286 C287 1.478 . S
C287 C274 1.394 1_554 S
C287 C286 1.478 . S
C287 C288 1.397 . S
C288 C287 1.397 . S
C288 C289 1.438 . S
C288 C293 1.429 . S
C289 C272 1.391 1_554 S
C289 C288 1.438 . S
C289 C290 1.428 . S
C290 H282 0.949 . S
C290 C289 1.428 . S
C290 C291 1.345 . S
C291 H283 0.950 . S
C291 C290 1.345 . S
C291 C292 1.424 . S
C292 H284 0.951 . S
C292 C291 1.424 . S
C292 C293 1.347 . S
C293 H285 0.951 . S
C293 C288 1.429 . S
C293 C292 1.347 . S
H294 C295 0.951 . S
C295 H294 0.951 . S
C295 C301 1.265 . S
H296 C301 0.950 . S
H297 C305 0.949 . S
H298 C306 0.950 . S
H299 C307 0.951 . S
H300 C308 0.951 . S
C301 C295 1.265 . S
C301 H296 0.950 . S
C301 C302 1.478 . S
C302 C301 1.478 . S
C302 C303 1.397 . S
C302 C319 1.394 . S
C303 C302 1.397 . S
C303 C304 1.438 . S
C303 C308 1.429 . S
C304 C303 1.438 . S
C304 C305 1.428 . S
C304 C317 1.394 . S
C305 H297 0.949 . S
C305 C304 1.428 . S
C305 C306 1.345 . S
C306 H298 0.950 . S
C306 C305 1.345 . S
C306 C307 1.424 . S
C307 H299 0.951 . S
C307 C306 1.424 . S
C307 C308 1.347 . S
C308 H300 0.951 . S
C308 C303 1.429 . S
C308 C307 1.347 . S
H309 C310 0.951 . S
C310 H309 0.951 . S
C310 C316 1.265 . S
H311 C316 0.950 . S
H312 C320 0.949 . S
H313 C321 0.950 . S
H314 C322 0.951 . S
H315 C323 0.951 . S
C316 C310 1.265 . S
C316 H311 0.950 . S
C316 C317 1.478 . S
C317 C304 1.394 . S
C317 C316 1.478 . S
C317 C318 1.397 . S
C318 C317 1.397 . S
C318 C319 1.438 . S
C318 C323 1.429 . S
C319 C302 1.394 . S
C319 C318 1.438 . S
C319 C320 1.428 . S
C320 H312 0.949 . S
C320 C319 1.428 . S
C320 C321 1.345 . S
C321 H313 0.950 . S
C321 C320 1.345 . S
C321 C322 1.424 . S
C322 H314 0.951 . S
C322 C321 1.424 . S
C322 C323 1.347 . S
C323 H315 0.951 . S
C323 C318 1.429 . S
C323 C322 1.347 . S
H324 C325 0.951 . S
C325 H324 0.951 . S
C325 C331 1.265 . S
H326 C331 0.950 . S
H327 C335 0.949 . S
H328 C336 0.950 . S
H329 C337 0.951 . S
H330 C338 0.951 . S
C331 C325 1.265 . S
C331 H326 0.950 . S
C331 C332 1.478 . S
C332 C331 1.478 . S
C332 C333 1.397 . S
C332 C349 1.394 . S
C333 C332 1.397 . S
C333 C334 1.438 . S
C333 C338 1.429 . S
C334 C333 1.438 . S
C334 C335 1.428 . S
C334 C347 1.394 . S
C335 H327 0.949 . S
C335 C334 1.428 . S
C335 C336 1.345 . S
C336 H328 0.950 . S
C336 C335 1.345 . S
C336 C337 1.424 . S
C337 H329 0.951 . S
C337 C336 1.424 . S
C337 C338 1.347 . S
C338 H330 0.951 . S
C338 C333 1.429 . S
C338 C337 1.347 . S
H339 C340 0.951 . S
C340 H339 0.951 . S
C340 C346 1.265 . S
H341 C346 0.950 . S
H342 C350 0.949 . S
H343 C351 0.950 . S
H344 C352 0.951 . S
H345 C353 0.951 . S
C346 C340 1.265 . S
C346 H341 0.950 . S
C346 C347 1.478 . S
C347 C334 1.394 . S
C347 C346 1.478 . S
C347 C348 1.397 . S
C348 C347 1.397 . S
C348 C349 1.438 . S
C348 C353 1.429 . S
C349 C332 1.394 . S
C349 C348 1.438 . S
C349 C350 1.428 . S
C350 H342 0.949 . S
C350 C349 1.428 . S
C350 C351 1.345 . S
C351 H343 0.950 . S
C351 C350 1.345 . S
C351 C352 1.424 . S
C352 H344 0.951 . S
C352 C351 1.424 . S
C352 C353 1.347 . S
C353 H345 0.951 . S
C353 C348 1.429 . S
C353 C352 1.347 . S
H354 C355 0.951 . S
C355 H354 0.951 . S
C355 C361 1.265 . S
H356 C361 0.950 . S
H357 C365 0.949 . S
H358 C366 0.950 . S
H359 C367 0.951 . S
H360 C368 0.951 . S
C361 C355 1.265 . S
C361 H356 0.950 . S
C361 C362 1.478 . S
C362 C361 1.478 . S
C362 C363 1.397 . S
C362 C379 1.394 . S
C363 C362 1.397 . S
C363 C364 1.438 . S
C363 C368 1.429 . S
C364 C363 1.438 . S
C364 C365 1.428 . S
C364 C377 1.394 . S
C365 H357 0.949 . S
C365 C364 1.428 . S
C365 C366 1.345 . S
C366 H358 0.950 . S
C366 C365 1.345 . S
C366 C367 1.424 . S
C367 H359 0.951 . S
C367 C366 1.424 . S
C367 C368 1.347 . S
C368 H360 0.951 . S
C368 C363 1.429 . S
C368 C367 1.347 . S
H369 C370 0.951 . S
C370 H369 0.951 . S
C370 C376 1.265 . S
H371 C376 0.950 . S
H372 C380 0.949 . S
H373 C381 0.950 . S
H374 C382 0.951 . S
H375 C383 0.951 . S
C376 C370 1.265 . S
C376 H371 0.950 . S
C376 C377 1.478 . S
C377 C364 1.394 . S
C377 C376 1.478 . S
C377 C378 1.397 . S
C378 C377 1.397 . S
C378 C379 1.438 . S
C378 C383 1.429 . S
C379 C362 1.394 . S
C379 C378 1.438 . S
C379 C380 1.428 . S
C380 H372 0.949 . S
C380 C379 1.428 . S
C380 C381 1.345 . S
C381 H373 0.950 . S
C381 C380 1.345 . S
C381 C382 1.424 . S
C382 H374 0.951 . S
C382 C381 1.424 . S
C382 C383 1.347 . S
C383 H375 0.951 . S
C383 C378 1.429 . S
C383 C382 1.347 . S
H384 C385 0.951 . S
C385 H384 0.951 . S
C385 C391 1.265 . S
H386 C391 0.950 . S
H387 C395 0.949 . S
H388 C396 0.950 . S
H389 C397 0.951 . S
H390 C398 0.951 . S
C391 C385 1.265 . S
C391 H386 0.950 . S
C391 C392 1.478 . S
C392 C391 1.478 . S
C392 C393 1.397 . S
C392 C409 1.394 . S
C393 C392 1.397 . S
C393 C394 1.438 . S
C393 C398 1.429 . S
C394 C393 1.438 . S
C394 C395 1.428 . S
C394 C407 1.394 . S
C395 H387 0.949 . S
C395 C394 1.428 . S
C395 C396 1.345 . S
C396 H388 0.950 . S
C396 C395 1.345 . S
C396 C397 1.424 . S
C397 H389 0.951 . S
C397 C396 1.424 . S
C397 C398 1.347 . S
C398 H390 0.951 . S
C398 C393 1.429 . S
C398 C397 1.347 . S
H399 C400 0.951 . S
C400 H399 0.951 . S
C400 C406 1.265 . S
H401 C406 0.950 . S
H402 C410 0.949 . S
H403 C411 0.950 . S
H404 C412 0.951 . S
H405 C413 0.951 . S
C406 C400 1.265 . S
C406 H401 0.950 . S
C406 C407 1.478 . S
C407 C394 1.394 . S
C407 C406 1.478 . S
C407 C408 1.397 . S
C408 C407 1.397 . S
C408 C409 1.438 . S
C408 C413 1.429 . S
C409 C392 1.394 . S
C409 C408 1.438 . S
C409 C410 1.428 . S
C410 H402 0.949 . S
C410 C409 1.428 . S
C410 C411 1.345 . S
C411 H403 0.950 . S
C411 C410 1.345 . S
C411 C412 1.424 . S
C412 H404 0.951 . S
C412 C411 1.424 . S
C412 C413 1.347 . S
C413 H405 0.951 . S
C413 C408 1.429 . S
C413 C412 1.347 . S
H414 C415 0.951 . S
C415 H414 0.951 . S
C415 C421 1.265 . S
H416 C421 0.950 . S
H417 C425 0.949 . S
H418 C426 0.950 . S
H419 C427 0.951 . S
H420 C428 0.951 . S
C421 C415 1.265 . S
C421 H416 0.950 . S
C421 C422 1.478 . S
C422 C421 1.478 . S
C422 C423 1.397 . S
C422 C439 1.394 . S
C423 C422 1.397 . S
C423 C424 1.438 . S
C423 C428 1.429 . S
C424 C423 1.438 . S
C424 C425 1.428 . S
C424 C437 1.394 . S
C425 H417 0.949 . S
C425 C424 1.428 . S
C425 C426 1.345 . S
C426 H418 0.950 . S
C426 C425 1.345 . S
C426 C427 1.424 . S
C427 H419 0.951 . S
C427 C426 1.424 . S
C427 C428 1.347 . S
C428 H420 0.951 . S
C428 C423 1.429 . S
C428 C427 1.347 . S
H429 C430 0.951 . S
C430 H429 0.951 . S
C430 C436 1.265 . S
H431 C436 0.950 . S
H432 C440 0.949 . S
H433 C441 0.950 . S
H434 C442 0.951 . S
H435 C443 0.951 . S
C436 C430 1.265 . S
C436 H431 0.950 . S
C436 C437 1.478 . S
C437 C424 1.394 . S
C437 C436 1.478 . S
C437 C438 1.397 . S
C438 C437 1.397 . S
C438 C439 1.438 . S
C438 C443 1.429 . S
C439 C422 1.394 . S
C439 C438 1.438 . S
C439 C440 1.428 . S
C440 H432 0.949 . S
C440 C439 1.428 . S
C440 C441 1.345 . S
C441 H433 0.950 . S
C441 C440 1.345 . S
C441 C442 1.424 . S
C442 H434 0.951 . S
C442 C441 1.424 . S
C442 C443 1.347 . S
C443 H435 0.951 . S
C443 C438 1.429 . S
C443 C442 1.347 . S
H444 C445 0.951 . S
C445 H444 0.951 . S
C445 C451 1.265 . S
H446 C451 0.950 . S
H447 C455 0.949 . S
H448 C456 0.950 . S
H449 C457 0.951 . S
H450 C458 0.951 . S
C451 C445 1.265 . S
C451 H446 0.950 . S
C451 C452 1.478 . S
C452 C451 1.478 . S
C452 C453 1.397 . S
C452 C469 1.394 . S
C453 C452 1.397 . S
C453 C454 1.438 . S
C453 C458 1.429 . S
C454 C453 1.438 . S
C454 C455 1.428 . S
C454 C467 1.394 . S
C455 H447 0.949 . S
C455 C454 1.428 . S
C455 C456 1.345 . S
C456 H448 0.950 . S
C456 C455 1.345 . S
C456 C457 1.424 . S
C457 H449 0.951 . S
C457 C456 1.424 . S
C457 C458 1.347 . S
C458 H450 0.951 . S
C458 C453 1.429 . S
C458 C457 1.347 . S
H459 C460 0.951 . S
C460 H459 0.951 . S
C460 C466 1.265 . S
H461 C466 0.950 1_455 S
H462 C470 0.949 . S
H463 C471 0.950 . S
H464 C472 0.951 . S
H465 C473 0.951 . S
C466 C460 1.265 . S
C466 H461 0.950 1_655 S
C466 C467 1.478 . S
C467 C454 1.394 . S
C467 C466 1.478 . S
C467 C468 1.397 . S
C468 C467 1.397 . S
C468 C469 1.438 . S
C468 C473 1.429 . S
C469 C452 1.394 . S
C469 C468 1.438 . S
C469 C470 1.428 . S
C470 H462 0.949 . S
C470 C469 1.428 . S
C470 C471 1.345 . S
C471 H463 0.950 . S
C471 C470 1.345 . S
C471 C472 1.424 . S
C472 H464 0.951 . S
C472 C471 1.424 . S
C472 C473 1.347 . S
C473 H465 0.951 . S
C473 C468 1.429 . S
C473 C472 1.347 . S
H474 C475 0.951 . S
C475 H474 0.951 . S
C475 C481 1.265 . S
H476 C481 0.950 . S
H477 C485 0.949 . S
H478 C486 0.950 . S
H479 C487 0.951 . S
H480 C488 0.951 . S
C481 C475 1.265 . S
C481 H476 0.950 . S
C481 C482 1.478 . S
C482 C481 1.478 . S
C482 C483 1.397 . S
C482 C499 1.394 . S
C483 C482 1.397 . S
C483 C484 1.438 . S
C483 C488 1.429 . S
C484 C483 1.438 . S
C484 C485 1.428 . S
C484 C497 1.394 . S
C485 H477 0.949 . S
C485 C484 1.428 . S
C485 C486 1.345 . S
C486 H478 0.950 . S
C486 C485 1.345 . S
C486 C487 1.424 . S
C487 H479 0.951 . S
C487 C486 1.424 . S
C487 C488 1.347 . S
C488 H480 0.951 . S
C488 C483 1.429 . S
C488 C487 1.347 . S
H489 C490 0.951 . S
C490 H489 0.951 . S
C490 C496 1.265 . S
H491 C496 0.950 . S
H492 C500 0.949 . S
H493 C501 0.950 . S
H494 C502 0.951 . S
H495 C503 0.951 . S
C496 C490 1.265 . S
C496 H491 0.950 . S
C496 C497 1.478 . S
C497 C484 1.394 . S
C497 C496 1.478 . S
C497 C498 1.397 . S
C498 C497 1.397 . S
C498 C499 1.438 . S
C498 C503 1.429 . S
C499 C482 1.394 . S
C499 C498 1.438 . S
C499 C500 1.428 . S
C500 H492 0.949 . S
C500 C499 1.428 . S
C500 C501 1.345 . S
C501 H493 0.950 . S
C501 C500 1.345 . S
C501 C502 1.424 . S
C502 H494 0.951 . S
C502 C501 1.424 . S
C502 C503 1.347 . S
C503 H495 0.951 . S
C503 C498 1.429 . S
C503 C502 1.347 . S
H504 C505 0.951 . S
C505 H504 0.951 . S
C505 C511 1.265 . S
H506 C511 0.950 . S
H507 C515 0.949 . S
H508 C516 0.950 . S
H509 C517 0.951 . S
H510 C518 0.951 . S
C511 C505 1.265 . S
C511 H506 0.950 . S
C511 C512 1.478 . S
C512 C511 1.478 . S
C512 C513 1.397 . S
C512 C529 1.394 . S
C513 C512 1.397 . S
C513 C514 1.438 . S
C513 C518 1.429 . S
C514 C513 1.438 . S
C514 C515 1.428 . S
C514 C527 1.394 . S
C515 H507 0.949 . S
C515 C514 1.428 . S
C515 C516 1.345 . S
C516 H508 0.950 . S
C516 C515 1.345 . S
C516 C517 1.424 . S
C517 H509 0.951 . S
C517 C516 1.424 . S
C517 C518 1.347 . S
C518 H510 0.951 . S
C518 C513 1.429 . S
C518 C517 1.347 . S
H519 C520 0.951 . S
C520 H519 0.951 . S
C520 C526 1.265 . S
H521 C526 0.950 . S
H522 C530 0.949 . S
H523 C531 0.950 . S
H524 C532 0.951 . S
H525 C533 0.951 . S
C526 C520 1.265 . S
C526 H521 0.950 . S
C526 C527 1.478 . S
C527 C514 1.394 . S
C527 C526 1.478 . S
C527 C528 1.397 . S
C528 C527 1.397 . S
C528 C529 1.438 . S
C528 C533 1.429 1_455 S
C529 C512 1.394 . S
C529 C528 1.438 . S
C529 C530 1.428 . S
C530 H522 0.949 . S
C530 C529 1.428 . S
C530 C531 1.345 1_455 S
C531 H523 0.950 . S
C531 C530 1.345 1_655 S
C531 C532 1.424 . S
C532 H524 0.951 . S
C532 C531 1.424 . S
C532 C533 1.347 . S
C533 H525 0.951 . S
C533 C528 1.429 1_655 S
C533 C532 1.347 . S
C190 C145 1.602 . S
C175 C119 1.592 . S
C205 C23 1.420 . S
C220 C168 1.564 . S
C235 C55 1.440 . S
C250 C144 1.586 . S
C265 C87 1.609 . S
C280 C167 1.589 . S
C310 C148 1.592 . S
C295 C17 1.552 . S
C340 C170 1.584 . S
C325 C61 1.476 . S
C355 C93 1.625 . S
C370 C149 1.502 . S
C385 C113 1.570 . S
C400 C169 1.501 . S
C430 C172 1.510 . S
C415 C49 1.463 . S
C460 C147 1.538 . S
C445 C81 1.589 . S
C490 C171 1.498 . S
C475 C125 1.613 . S
C505 C29 1.539 . S
C520 C146 1.544 . S
