# Generated by pormake.
# Topology bpr, (3,3)-cn, num edge types: 1
# Building blocks:
#     Node 0, Type 0, BuildingBlock: WUSLED_clean_sbu_0, # of connection points: 3
#     Node 1, Type 0, BuildingBlock: WUSLED_clean_sbu_0, # of connection points: 3
#     Node 2, Type 0, BuildingBlock: WUSLED_clean_sbu_0, # of connection points: 3
#     Node 3, Type 0, BuildingBlock: WUSLED_clean_sbu_0, # of connection points: 3
#     Node 4, Type 0, BuildingBlock: WUSLED_clean_sbu_0, # of connection points: 3
#     Node 5, Type 0, BuildingBlock: WUSLED_clean_sbu_0, # of connection points: 3
#     Node 6, Type 0, BuildingBlock: WUSLED_clean_sbu_0, # of connection points: 3
#     Node 7, Type 0, BuildingBlock: WUSLED_clean_sbu_0, # of connection points: 3
#     Node 8, Type 0, BuildingBlock: WUSLED_clean_sbu_0, # of connection points: 3
#     Node 9, Type 0, BuildingBlock: WUSLED_clean_sbu_0, # of connection points: 3
#     Node 10, Type 0, BuildingBlock: WUSLED_clean_sbu_0, # of connection points: 3
#     Node 11, Type 0, BuildingBlock: WUSLED_clean_sbu_0, # of connection points: 3
#     Node 12, Type 0, BuildingBlock: WUSLED_clean_sbu_0, # of connection points: 3
#     Node 13, Type 0, BuildingBlock: WUSLED_clean_sbu_0, # of connection points: 3
#     Node 14, Type 0, BuildingBlock: WUSLED_clean_sbu_0, # of connection points: 3
#     Node 15, Type 0, BuildingBlock: WUSLED_clean_sbu_0, # of connection points: 3
#     Node 16, Type 0, BuildingBlock: WUSLED_clean_sbu_0, # of connection points: 3
#     Node 17, Type 0, BuildingBlock: WUSLED_clean_sbu_0, # of connection points: 3
#     Node 18, Type 0, BuildingBlock: WUSLED_clean_sbu_0, # of connection points: 3
#     Node 19, Type 0, BuildingBlock: WUSLED_clean_sbu_0, # of connection points: 3
#     Node 20, Type 0, BuildingBlock: WUSLED_clean_sbu_0, # of connection points: 3
#     Node 21, Type 0, BuildingBlock: WUSLED_clean_sbu_0, # of connection points: 3
#     Node 22, Type 0, BuildingBlock: WUSLED_clean_sbu_0, # of connection points: 3
#     Node 23, Type 0, BuildingBlock: WUSLED_clean_sbu_0, # of connection points: 3
#     Node 24, Type 0, BuildingBlock: WUSLED_clean_sbu_0, # of connection points: 3
#     Node 25, Type 0, BuildingBlock: WUSLED_clean_sbu_0, # of connection points: 3
#     Node 26, Type 0, BuildingBlock: WUSLED_clean_sbu_0, # of connection points: 3
#     Node 27, Type 0, BuildingBlock: WUSLED_clean_sbu_0, # of connection points: 3
#     Node 28, Type 0, BuildingBlock: WUSLED_clean_sbu_0, # of connection points: 3
#     Node 29, Type 0, BuildingBlock: WUSLED_clean_sbu_0, # of connection points: 3
#     Node 30, Type 0, BuildingBlock: WUSLED_clean_sbu_0, # of connection points: 3
#     Node 31, Type 0, BuildingBlock: WUSLED_clean_sbu_0, # of connection points: 3
#     Node 32, Type 0, BuildingBlock: WUSLED_clean_sbu_0, # of connection points: 3
#     Node 33, Type 0, BuildingBlock: WUSLED_clean_sbu_0, # of connection points: 3
#     Node 34, Type 0, BuildingBlock: WUSLED_clean_sbu_0, # of connection points: 3
#     Node 35, Type 0, BuildingBlock: WUSLED_clean_sbu_0, # of connection points: 3
#     Node 36, Type 0, BuildingBlock: WUSLED_clean_sbu_0, # of connection points: 3
#     Node 37, Type 0, BuildingBlock: WUSLED_clean_sbu_0, # of connection points: 3
#     Node 38, Type 0, BuildingBlock: WUSLED_clean_sbu_0, # of connection points: 3
#     Node 39, Type 0, BuildingBlock: WUSLED_clean_sbu_0, # of connection points: 3
#     Node 40, Type 0, BuildingBlock: WUSLED_clean_sbu_0, # of connection points: 3
#     Node 41, Type 0, BuildingBlock: WUSLED_clean_sbu_0, # of connection points: 3
#     Node 42, Type 0, BuildingBlock: WUSLED_clean_sbu_0, # of connection points: 3
#     Node 43, Type 0, BuildingBlock: WUSLED_clean_sbu_0, # of connection points: 3
#     Node 44, Type 0, BuildingBlock: WUSLED_clean_sbu_0, # of connection points: 3
#     Node 45, Type 0, BuildingBlock: WUSLED_clean_sbu_0, # of connection points: 3
#     Node 46, Type 0, BuildingBlock: WUSLED_clean_sbu_0, # of connection points: 3
#     Node 47, Type 0, BuildingBlock: WUSLED_clean_sbu_0, # of connection points: 3
#     Node 48, Type 1, BuildingBlock: BETDAH_clean_linker_0, # of connection points: 3
#     Node 49, Type 1, BuildingBlock: BETDAH_clean_linker_0, # of connection points: 3
#     Node 50, Type 1, BuildingBlock: BETDAH_clean_linker_0, # of connection points: 3
#     Node 51, Type 1, BuildingBlock: BETDAH_clean_linker_0, # of connection points: 3
#     Node 52, Type 1, BuildingBlock: BETDAH_clean_linker_0, # of connection points: 3
#     Node 53, Type 1, BuildingBlock: BETDAH_clean_linker_0, # of connection points: 3
#     Node 54, Type 1, BuildingBlock: BETDAH_clean_linker_0, # of connection points: 3
#     Node 55, Type 1, BuildingBlock: BETDAH_clean_linker_0, # of connection points: 3
#     Node 56, Type 1, BuildingBlock: BETDAH_clean_linker_0, # of connection points: 3
#     Node 57, Type 1, BuildingBlock: BETDAH_clean_linker_0, # of connection points: 3
#     Node 58, Type 1, BuildingBlock: BETDAH_clean_linker_0, # of connection points: 3
#     Node 59, Type 1, BuildingBlock: BETDAH_clean_linker_0, # of connection points: 3
#     Node 60, Type 1, BuildingBlock: BETDAH_clean_linker_0, # of connection points: 3
#     Node 61, Type 1, BuildingBlock: BETDAH_clean_linker_0, # of connection points: 3
#     Node 62, Type 1, BuildingBlock: BETDAH_clean_linker_0, # of connection points: 3
#     Node 63, Type 1, BuildingBlock: BETDAH_clean_linker_0, # of connection points: 3
#     Node 64, Type 1, BuildingBlock: BETDAH_clean_linker_0, # of connection points: 3
#     Node 65, Type 1, BuildingBlock: BETDAH_clean_linker_0, # of connection points: 3
#     Node 66, Type 1, BuildingBlock: BETDAH_clean_linker_0, # of connection points: 3
#     Node 67, Type 1, BuildingBlock: BETDAH_clean_linker_0, # of connection points: 3
#     Node 68, Type 1, BuildingBlock: BETDAH_clean_linker_0, # of connection points: 3
#     Node 69, Type 1, BuildingBlock: BETDAH_clean_linker_0, # of connection points: 3
#     Node 70, Type 1, BuildingBlock: BETDAH_clean_linker_0, # of connection points: 3
#     Node 71, Type 1, BuildingBlock: BETDAH_clean_linker_0, # of connection points: 3
#     Node 72, Type 1, BuildingBlock: BETDAH_clean_linker_0, # of connection points: 3
#     Node 73, Type 1, BuildingBlock: BETDAH_clean_linker_0, # of connection points: 3
#     Node 74, Type 1, BuildingBlock: BETDAH_clean_linker_0, # of connection points: 3
#     Node 75, Type 1, BuildingBlock: BETDAH_clean_linker_0, # of connection points: 3
#     Node 76, Type 1, BuildingBlock: BETDAH_clean_linker_0, # of connection points: 3
#     Node 77, Type 1, BuildingBlock: BETDAH_clean_linker_0, # of connection points: 3
#     Node 78, Type 1, BuildingBlock: BETDAH_clean_linker_0, # of connection points: 3
#     Node 79, Type 1, BuildingBlock: BETDAH_clean_linker_0, # of connection points: 3
#     Node 80, Type 1, BuildingBlock: BETDAH_clean_linker_0, # of connection points: 3
#     Node 81, Type 1, BuildingBlock: BETDAH_clean_linker_0, # of connection points: 3
#     Node 82, Type 1, BuildingBlock: BETDAH_clean_linker_0, # of connection points: 3
#     Node 83, Type 1, BuildingBlock: BETDAH_clean_linker_0, # of connection points: 3
#     Node 84, Type 1, BuildingBlock: BETDAH_clean_linker_0, # of connection points: 3
#     Node 85, Type 1, BuildingBlock: BETDAH_clean_linker_0, # of connection points: 3
#     Node 86, Type 1, BuildingBlock: BETDAH_clean_linker_0, # of connection points: 3
#     Node 87, Type 1, BuildingBlock: BETDAH_clean_linker_0, # of connection points: 3
#     Node 88, Type 1, BuildingBlock: BETDAH_clean_linker_0, # of connection points: 3
#     Node 89, Type 1, BuildingBlock: BETDAH_clean_linker_0, # of connection points: 3
#     Node 90, Type 1, BuildingBlock: BETDAH_clean_linker_0, # of connection points: 3
#     Node 91, Type 1, BuildingBlock: BETDAH_clean_linker_0, # of connection points: 3
#     Node 92, Type 1, BuildingBlock: BETDAH_clean_linker_0, # of connection points: 3
#     Node 93, Type 1, BuildingBlock: BETDAH_clean_linker_0, # of connection points: 3
#     Node 94, Type 1, BuildingBlock: BETDAH_clean_linker_0, # of connection points: 3
#     Node 95, Type 1, BuildingBlock: BETDAH_clean_linker_0, # of connection points: 3
#     Edge 96, Type (0, 1), BuildingBlock: UVAHIK_clean_linker_0, # of connection points: 2
#     Edge 97, Type (0, 1), BuildingBlock: UVAHIK_clean_linker_0, # of connection points: 2
#     Edge 98, Type (0, 1), BuildingBlock: UVAHIK_clean_linker_0, # of connection points: 2
#     Edge 99, Type (0, 1), BuildingBlock: UVAHIK_clean_linker_0, # of connection points: 2
#     Edge 100, Type (0, 1), BuildingBlock: UVAHIK_clean_linker_0, # of connection points: 2
#     Edge 101, Type (0, 1), BuildingBlock: UVAHIK_clean_linker_0, # of connection points: 2
#     Edge 102, Type (0, 1), BuildingBlock: UVAHIK_clean_linker_0, # of connection points: 2
#     Edge 103, Type (0, 1), BuildingBlock: UVAHIK_clean_linker_0, # of connection points: 2
#     Edge 104, Type (0, 1), BuildingBlock: UVAHIK_clean_linker_0, # of connection points: 2
#     Edge 105, Type (0, 1), BuildingBlock: UVAHIK_clean_linker_0, # of connection points: 2
#     Edge 106, Type (0, 1), BuildingBlock: UVAHIK_clean_linker_0, # of connection points: 2
#     Edge 107, Type (0, 1), BuildingBlock: UVAHIK_clean_linker_0, # of connection points: 2
#     Edge 108, Type (0, 1), BuildingBlock: UVAHIK_clean_linker_0, # of connection points: 2
#     Edge 109, Type (0, 1), BuildingBlock: UVAHIK_clean_linker_0, # of connection points: 2
#     Edge 110, Type (0, 1), BuildingBlock: UVAHIK_clean_linker_0, # of connection points: 2
#     Edge 111, Type (0, 1), BuildingBlock: UVAHIK_clean_linker_0, # of connection points: 2
#     Edge 112, Type (0, 1), BuildingBlock: UVAHIK_clean_linker_0, # of connection points: 2
#     Edge 113, Type (0, 1), BuildingBlock: UVAHIK_clean_linker_0, # of connection points: 2
#     Edge 114, Type (0, 1), BuildingBlock: UVAHIK_clean_linker_0, # of connection points: 2
#     Edge 115, Type (0, 1), BuildingBlock: UVAHIK_clean_linker_0, # of connection points: 2
#     Edge 116, Type (0, 1), BuildingBlock: UVAHIK_clean_linker_0, # of connection points: 2
#     Edge 117, Type (0, 1), BuildingBlock: UVAHIK_clean_linker_0, # of connection points: 2
#     Edge 118, Type (0, 1), BuildingBlock: UVAHIK_clean_linker_0, # of connection points: 2
#     Edge 119, Type (0, 1), BuildingBlock: UVAHIK_clean_linker_0, # of connection points: 2
#     Edge 120, Type (0, 1), BuildingBlock: UVAHIK_clean_linker_0, # of connection points: 2
#     Edge 121, Type (0, 1), BuildingBlock: UVAHIK_clean_linker_0, # of connection points: 2
#     Edge 122, Type (0, 1), BuildingBlock: UVAHIK_clean_linker_0, # of connection points: 2
#     Edge 123, Type (0, 1), BuildingBlock: UVAHIK_clean_linker_0, # of connection points: 2
#     Edge 124, Type (0, 1), BuildingBlock: UVAHIK_clean_linker_0, # of connection points: 2
#     Edge 125, Type (0, 1), BuildingBlock: UVAHIK_clean_linker_0, # of connection points: 2
#     Edge 126, Type (0, 1), BuildingBlock: UVAHIK_clean_linker_0, # of connection points: 2
#     Edge 127, Type (0, 1), BuildingBlock: UVAHIK_clean_linker_0, # of connection points: 2
#     Edge 128, Type (0, 1), BuildingBlock: UVAHIK_clean_linker_0, # of connection points: 2
#     Edge 129, Type (0, 1), BuildingBlock: UVAHIK_clean_linker_0, # of connection points: 2
#     Edge 130, Type (0, 1), BuildingBlock: UVAHIK_clean_linker_0, # of connection points: 2
#     Edge 131, Type (0, 1), BuildingBlock: UVAHIK_clean_linker_0, # of connection points: 2
#     Edge 132, Type (0, 1), BuildingBlock: UVAHIK_clean_linker_0, # of connection points: 2
#     Edge 133, Type (0, 1), BuildingBlock: UVAHIK_clean_linker_0, # of connection points: 2
#     Edge 134, Type (0, 1), BuildingBlock: UVAHIK_clean_linker_0, # of connection points: 2
#     Edge 135, Type (0, 1), BuildingBlock: UVAHIK_clean_linker_0, # of connection points: 2
#     Edge 136, Type (0, 1), BuildingBlock: UVAHIK_clean_linker_0, # of connection points: 2
#     Edge 137, Type (0, 1), BuildingBlock: UVAHIK_clean_linker_0, # of connection points: 2
#     Edge 138, Type (0, 1), BuildingBlock: UVAHIK_clean_linker_0, # of connection points: 2
#     Edge 139, Type (0, 1), BuildingBlock: UVAHIK_clean_linker_0, # of connection points: 2
#     Edge 140, Type (0, 1), BuildingBlock: UVAHIK_clean_linker_0, # of connection points: 2
#     Edge 141, Type (0, 1), BuildingBlock: UVAHIK_clean_linker_0, # of connection points: 2
#     Edge 142, Type (0, 1), BuildingBlock: UVAHIK_clean_linker_0, # of connection points: 2
#     Edge 143, Type (0, 1), BuildingBlock: UVAHIK_clean_linker_0, # of connection points: 2
#     Edge 144, Type (0, 1), BuildingBlock: UVAHIK_clean_linker_0, # of connection points: 2
#     Edge 145, Type (0, 1), BuildingBlock: UVAHIK_clean_linker_0, # of connection points: 2
#     Edge 146, Type (0, 1), BuildingBlock: UVAHIK_clean_linker_0, # of connection points: 2
#     Edge 147, Type (0, 1), BuildingBlock: UVAHIK_clean_linker_0, # of connection points: 2
#     Edge 148, Type (0, 1), BuildingBlock: UVAHIK_clean_linker_0, # of connection points: 2
#     Edge 149, Type (0, 1), BuildingBlock: UVAHIK_clean_linker_0, # of connection points: 2
#     Edge 150, Type (0, 1), BuildingBlock: UVAHIK_clean_linker_0, # of connection points: 2
#     Edge 151, Type (0, 1), BuildingBlock: UVAHIK_clean_linker_0, # of connection points: 2
#     Edge 152, Type (0, 1), BuildingBlock: UVAHIK_clean_linker_0, # of connection points: 2
#     Edge 153, Type (0, 1), BuildingBlock: UVAHIK_clean_linker_0, # of connection points: 2
#     Edge 154, Type (0, 1), BuildingBlock: UVAHIK_clean_linker_0, # of connection points: 2
#     Edge 155, Type (0, 1), BuildingBlock: UVAHIK_clean_linker_0, # of connection points: 2
#     Edge 156, Type (0, 1), BuildingBlock: UVAHIK_clean_linker_0, # of connection points: 2
#     Edge 157, Type (0, 1), BuildingBlock: UVAHIK_clean_linker_0, # of connection points: 2
#     Edge 158, Type (0, 1), BuildingBlock: UVAHIK_clean_linker_0, # of connection points: 2
#     Edge 159, Type (0, 1), BuildingBlock: UVAHIK_clean_linker_0, # of connection points: 2
#     Edge 160, Type (0, 1), BuildingBlock: UVAHIK_clean_linker_0, # of connection points: 2
#     Edge 161, Type (0, 1), BuildingBlock: UVAHIK_clean_linker_0, # of connection points: 2
#     Edge 162, Type (0, 1), BuildingBlock: UVAHIK_clean_linker_0, # of connection points: 2
#     Edge 163, Type (0, 1), BuildingBlock: UVAHIK_clean_linker_0, # of connection points: 2
#     Edge 164, Type (0, 1), BuildingBlock: UVAHIK_clean_linker_0, # of connection points: 2
#     Edge 165, Type (0, 1), BuildingBlock: UVAHIK_clean_linker_0, # of connection points: 2
#     Edge 166, Type (0, 1), BuildingBlock: UVAHIK_clean_linker_0, # of connection points: 2
#     Edge 167, Type (0, 1), BuildingBlock: UVAHIK_clean_linker_0, # of connection points: 2
#     Edge 168, Type (0, 1), BuildingBlock: UVAHIK_clean_linker_0, # of connection points: 2
#     Edge 169, Type (0, 1), BuildingBlock: UVAHIK_clean_linker_0, # of connection points: 2
#     Edge 170, Type (0, 1), BuildingBlock: UVAHIK_clean_linker_0, # of connection points: 2
#     Edge 171, Type (0, 1), BuildingBlock: UVAHIK_clean_linker_0, # of connection points: 2
#     Edge 172, Type (0, 1), BuildingBlock: UVAHIK_clean_linker_0, # of connection points: 2
#     Edge 173, Type (0, 1), BuildingBlock: UVAHIK_clean_linker_0, # of connection points: 2
#     Edge 174, Type (0, 1), BuildingBlock: UVAHIK_clean_linker_0, # of connection points: 2
#     Edge 175, Type (0, 1), BuildingBlock: UVAHIK_clean_linker_0, # of connection points: 2
#     Edge 176, Type (0, 1), BuildingBlock: UVAHIK_clean_linker_0, # of connection points: 2
#     Edge 177, Type (0, 1), BuildingBlock: UVAHIK_clean_linker_0, # of connection points: 2
#     Edge 178, Type (0, 1), BuildingBlock: UVAHIK_clean_linker_0, # of connection points: 2
#     Edge 179, Type (0, 1), BuildingBlock: UVAHIK_clean_linker_0, # of connection points: 2
#     Edge 180, Type (0, 1), BuildingBlock: UVAHIK_clean_linker_0, # of connection points: 2
#     Edge 181, Type (0, 1), BuildingBlock: UVAHIK_clean_linker_0, # of connection points: 2
#     Edge 182, Type (0, 1), BuildingBlock: UVAHIK_clean_linker_0, # of connection points: 2
#     Edge 183, Type (0, 1), BuildingBlock: UVAHIK_clean_linker_0, # of connection points: 2
#     Edge 184, Type (0, 1), BuildingBlock: UVAHIK_clean_linker_0, # of connection points: 2
#     Edge 185, Type (0, 1), BuildingBlock: UVAHIK_clean_linker_0, # of connection points: 2
#     Edge 186, Type (0, 1), BuildingBlock: UVAHIK_clean_linker_0, # of connection points: 2
#     Edge 187, Type (0, 1), BuildingBlock: UVAHIK_clean_linker_0, # of connection points: 2
#     Edge 188, Type (0, 1), BuildingBlock: UVAHIK_clean_linker_0, # of connection points: 2
#     Edge 189, Type (0, 1), BuildingBlock: UVAHIK_clean_linker_0, # of connection points: 2
#     Edge 190, Type (0, 1), BuildingBlock: UVAHIK_clean_linker_0, # of connection points: 2
#     Edge 191, Type (0, 1), BuildingBlock: UVAHIK_clean_linker_0, # of connection points: 2
#     Edge 192, Type (0, 1), BuildingBlock: UVAHIK_clean_linker_0, # of connection points: 2
#     Edge 193, Type (0, 1), BuildingBlock: UVAHIK_clean_linker_0, # of connection points: 2
#     Edge 194, Type (0, 1), BuildingBlock: UVAHIK_clean_linker_0, # of connection points: 2
#     Edge 195, Type (0, 1), BuildingBlock: UVAHIK_clean_linker_0, # of connection points: 2
#     Edge 196, Type (0, 1), BuildingBlock: UVAHIK_clean_linker_0, # of connection points: 2
#     Edge 197, Type (0, 1), BuildingBlock: UVAHIK_clean_linker_0, # of connection points: 2
#     Edge 198, Type (0, 1), BuildingBlock: UVAHIK_clean_linker_0, # of connection points: 2
#     Edge 199, Type (0, 1), BuildingBlock: UVAHIK_clean_linker_0, # of connection points: 2
#     Edge 200, Type (0, 1), BuildingBlock: UVAHIK_clean_linker_0, # of connection points: 2
#     Edge 201, Type (0, 1), BuildingBlock: UVAHIK_clean_linker_0, # of connection points: 2
#     Edge 202, Type (0, 1), BuildingBlock: UVAHIK_clean_linker_0, # of connection points: 2
#     Edge 203, Type (0, 1), BuildingBlock: UVAHIK_clean_linker_0, # of connection points: 2
#     Edge 204, Type (0, 1), BuildingBlock: UVAHIK_clean_linker_0, # of connection points: 2
#     Edge 205, Type (0, 1), BuildingBlock: UVAHIK_clean_linker_0, # of connection points: 2
#     Edge 206, Type (0, 1), BuildingBlock: UVAHIK_clean_linker_0, # of connection points: 2
#     Edge 207, Type (0, 1), BuildingBlock: UVAHIK_clean_linker_0, # of connection points: 2
#     Edge 208, Type (0, 1), BuildingBlock: UVAHIK_clean_linker_0, # of connection points: 2
#     Edge 209, Type (0, 1), BuildingBlock: UVAHIK_clean_linker_0, # of connection points: 2
#     Edge 210, Type (0, 1), BuildingBlock: UVAHIK_clean_linker_0, # of connection points: 2
#     Edge 211, Type (0, 1), BuildingBlock: UVAHIK_clean_linker_0, # of connection points: 2
#     Edge 212, Type (0, 1), BuildingBlock: UVAHIK_clean_linker_0, # of connection points: 2
#     Edge 213, Type (0, 1), BuildingBlock: UVAHIK_clean_linker_0, # of connection points: 2
#     Edge 214, Type (0, 1), BuildingBlock: UVAHIK_clean_linker_0, # of connection points: 2
#     Edge 215, Type (0, 1), BuildingBlock: UVAHIK_clean_linker_0, # of connection points: 2
#     Edge 216, Type (0, 1), BuildingBlock: UVAHIK_clean_linker_0, # of connection points: 2
#     Edge 217, Type (0, 1), BuildingBlock: UVAHIK_clean_linker_0, # of connection points: 2
#     Edge 218, Type (0, 1), BuildingBlock: UVAHIK_clean_linker_0, # of connection points: 2
#     Edge 219, Type (0, 1), BuildingBlock: UVAHIK_clean_linker_0, # of connection points: 2
#     Edge 220, Type (0, 1), BuildingBlock: UVAHIK_clean_linker_0, # of connection points: 2
#     Edge 221, Type (0, 1), BuildingBlock: UVAHIK_clean_linker_0, # of connection points: 2
#     Edge 222, Type (0, 1), BuildingBlock: UVAHIK_clean_linker_0, # of connection points: 2
#     Edge 223, Type (0, 1), BuildingBlock: UVAHIK_clean_linker_0, # of connection points: 2
#     Edge 224, Type (0, 1), BuildingBlock: UVAHIK_clean_linker_0, # of connection points: 2
#     Edge 225, Type (0, 1), BuildingBlock: UVAHIK_clean_linker_0, # of connection points: 2
#     Edge 226, Type (0, 1), BuildingBlock: UVAHIK_clean_linker_0, # of connection points: 2
#     Edge 227, Type (0, 1), BuildingBlock: UVAHIK_clean_linker_0, # of connection points: 2
#     Edge 228, Type (0, 1), BuildingBlock: UVAHIK_clean_linker_0, # of connection points: 2
#     Edge 229, Type (0, 1), BuildingBlock: UVAHIK_clean_linker_0, # of connection points: 2
#     Edge 230, Type (0, 1), BuildingBlock: UVAHIK_clean_linker_0, # of connection points: 2
#     Edge 231, Type (0, 1), BuildingBlock: UVAHIK_clean_linker_0, # of connection points: 2
#     Edge 232, Type (0, 1), BuildingBlock: UVAHIK_clean_linker_0, # of connection points: 2
#     Edge 233, Type (0, 1), BuildingBlock: UVAHIK_clean_linker_0, # of connection points: 2
#     Edge 234, Type (0, 1), BuildingBlock: UVAHIK_clean_linker_0, # of connection points: 2
#     Edge 235, Type (0, 1), BuildingBlock: UVAHIK_clean_linker_0, # of connection points: 2
#     Edge 236, Type (0, 1), BuildingBlock: UVAHIK_clean_linker_0, # of connection points: 2
#     Edge 237, Type (0, 1), BuildingBlock: UVAHIK_clean_linker_0, # of connection points: 2
#     Edge 238, Type (0, 1), BuildingBlock: UVAHIK_clean_linker_0, # of connection points: 2
#     Edge 239, Type (0, 1), BuildingBlock: UVAHIK_clean_linker_0, # of connection points: 2
# Relax obj value: 0.037
# Max RMSD: 0.120
# Mean RMSD: 0.052
data_MOF--net-bpr--node1-WUSLED_clean_sbu_0--node2-BETDAH_clean_linker_0--edge1-UVAHIK_clean_linker_0
_symmetry_space_group_name_H-M    P1
_symmetry_Int_Tables_number       1
_symmetry_cell_setting            triclinic
loop_
_symmetry_equiv_pos_as_xyz
'x, y, z'
_cell_length_a     131.22932
_cell_length_b     118.40567
_cell_length_c     128.51702
_cell_angle_alpha  91.545538
_cell_angle_beta   87.91148
_cell_angle_gamma 113.0523
loop_
_atom_site_label
_atom_site_type_symbol
_atom_site_fract_x
_atom_site_fract_y
_atom_site_fract_z
_atom_type_partial_charge
C0 C 0.0365 0.3958 0.31956 0.0
C1 C 0.03802 0.40237 0.32901 0.0
C2 C 0.01855 0.39944 0.32966 0.0
C3 C 0.02912 0.40418 0.33402 0.0
C4 C 0.01712 0.39287 0.32016 0.0
C5 C 0.02602 0.39107 0.31517 0.0
U6 U 0.06654 0.39883 0.31832 0.0
O7 O 0.07368 0.38562 0.31305 0.0
O8 O 0.07854 0.40323 0.30509 0.0
C9 C 0.07927 0.39248 0.30524 0.0
C10 C 0.04574 0.39374 0.31423 0.0
C11 C 0.07848 0.38616 0.29513 0.0
C12 C 0.06782 0.37217 0.28164 0.0
C13 C 0.06823 0.37849 0.2911 0.0
C14 C 0.08787 0.38137 0.28011 0.0
C15 C 0.07766 0.37344 0.2761 0.0
C16 C 0.08826 0.38764 0.28953 0.0
C17 C 0.08634 0.41427 0.33976 0.0
C18 C 0.10522 0.41539 0.33816 0.0
C19 C 0.09947 0.42441 0.35324 0.0
C20 C 0.08883 0.42065 0.34928 0.0
C21 C 0.1078 0.42183 0.34772 0.0
C22 C 0.09459 0.41166 0.33422 0.0
C23 C 0.07519 0.41037 0.33558 0.0
O24 O 0.05397 0.40368 0.31094 0.0
O25 O 0.04906 0.38601 0.31878 0.0
O26 O 0.06964 0.39843 0.33498 0.0
O27 O 0.07459 0.41607 0.32713 0.0
H28 H 0.04609 0.40611 0.3325 0.0
H29 H 0.03055 0.4094 0.34126 0.0
H30 H 0.00907 0.38893 0.31666 0.0
H31 H 0.02471 0.38593 0.30789 0.0
H32 H 0.05984 0.36609 0.27879 0.0
H33 H 0.06058 0.37727 0.29532 0.0
H34 H 0.09558 0.38276 0.27595 0.0
H35 H 0.09623 0.39358 0.29251 0.0
H36 H 0.11146 0.41341 0.33364 0.0
H37 H 0.10114 0.42922 0.36067 0.0
H38 H 0.08254 0.42271 0.35366 0.0
H39 H 0.09281 0.40677 0.32682 0.0
C40 C 0.82327 0.69567 0.53598 0.0
C41 C 0.82764 0.69748 0.54598 0.0
C42 C 0.82302 0.67553 0.54739 0.0
C43 C 0.82753 0.6875 0.55163 0.0
C44 C 0.81872 0.67381 0.53732 0.0
C45 C 0.81884 0.6838 0.53167 0.0
U46 U 0.82811 0.72929 0.53484 0.0
O47 O 0.83527 0.74289 0.52251 0.0
O48 O 0.81812 0.73834 0.52809 0.0
C49 C 0.82588 0.74414 0.52114 0.0
C50 C 0.82309 0.70607 0.53013 0.0
C51 C 0.82223 0.74301 0.51032 0.0
C52 C 0.82004 0.7334 0.49314 0.0
C53 C 0.82349 0.73423 0.50341 0.0
C54 C 0.81383 0.74992 0.49664 0.0
C55 C 0.81519 0.74125 0.48961 0.0
C56 C 0.81734 0.75079 0.50688 0.0
C57 C 0.83871 0.74912 0.55936 0.0
C58 C 0.84776 0.77138 0.56019 0.0
C59 C 0.84003 0.75992 0.57591 0.0
C60 C 0.8366 0.74897 0.57013 0.0
C61 C 0.84569 0.77125 0.57102 0.0
C62 C 0.84425 0.76041 0.55439 0.0
C63 C 0.83516 0.7374 0.55353 0.0
O64 O 0.81573 0.71037 0.53355 0.0
O65 O 0.83285 0.71475 0.52802 0.0
O66 O 0.84174 0.7368 0.54576 0.0
O67 O 0.82461 0.73241 0.55132 0.0
H68 H 0.83109 0.7066 0.54942 0.0
H69 H 0.83103 0.68918 0.55929 0.0
H70 H 0.81504 0.6647 0.53388 0.0
H71 H 0.81539 0.68225 0.52398 0.0
H72 H 0.82134 0.72671 0.48793 0.0
H73 H 0.82719 0.72808 0.50593 0.0
H74 H 0.80995 0.75596 0.49428 0.0
H75 H 0.81622 0.75755 0.51214 0.0
H76 H 0.85198 0.77998 0.55619 0.0
H77 H 0.83842 0.7595 0.58424 0.0
H78 H 0.83235 0.74034 0.57409 0.0
H79 H 0.84588 0.76074 0.54606 0.0
C80 C 0.48468 0.63979 0.78613 0.0
C81 C 0.47324 0.63565 0.7847 0.0
C82 C 0.47651 0.64478 0.7675 0.0
C83 C 0.46919 0.63808 0.77549 0.0
C84 C 0.488 0.6488 0.76892 0.0
C85 C 0.49205 0.64634 0.77817 0.0
U86 U 0.47822 0.62956 0.81377 0.0
O87 O 0.48357 0.61803 0.82358 0.0
O88 O 0.48657 0.63697 0.82845 0.0
C89 C 0.48809 0.62691 0.83042 0.0
C90 C 0.48882 0.63764 0.79607 0.0
C91 C 0.49917 0.62858 0.83388 0.0
C92 C 0.51929 0.63735 0.83207 0.0
C93 C 0.50888 0.63569 0.82831 0.0
C94 C 0.51034 0.62473 0.84691 0.0
C95 C 0.52014 0.63196 0.84147 0.0
C96 C 0.49999 0.62308 0.84315 0.0
C97 C 0.44731 0.61978 0.8218 0.0
C98 C 0.43897 0.6117 0.83863 0.0
C99 C 0.42801 0.61595 0.82568 0.0
C100 C 0.43718 0.61985 0.81882 0.0
C101 C 0.4288 0.6119 0.83569 0.0
C102 C 0.44818 0.61566 0.83173 0.0
C103 C 0.45679 0.6242 0.81441 0.0
O104 O 0.48831 0.64496 0.80376 0.0
O105 O 0.48523 0.62607 0.7988 0.0
O106 O 0.46114 0.61627 0.81155 0.0
O107 O 0.46424 0.63525 0.8163 0.0
H108 H 0.46741 0.63059 0.79078 0.0
H109 H 0.46031 0.63467 0.77461 0.0
H110 H 0.49387 0.6541 0.76299 0.0
H111 H 0.50091 0.64968 0.77917 0.0
H112 H 0.52666 0.64304 0.82771 0.0
H113 H 0.5084 0.64001 0.82112 0.0
H114 H 0.51065 0.62024 0.85405 0.0
H115 H 0.49258 0.61752 0.84754 0.0
H116 H 0.43986 0.60873 0.84631 0.0
H117 H 0.42028 0.61604 0.82312 0.0
H118 H 0.43636 0.62297 0.81116 0.0
H119 H 0.45597 0.61558 0.83416 0.0
C120 C 0.68198 0.30423 0.01356 0.0
C121 C 0.67828 0.30077 0.02382 0.0
C122 C 0.6816 0.32198 0.02852 0.0
C123 C 0.67806 0.30955 0.03122 0.0
C124 C 0.68527 0.32536 0.01819 0.0
C125 C 0.68545 0.31656 0.01079 0.0
U126 U 0.68045 0.27222 0.00699 0.0
O127 O 0.67255 0.25956 0.9941 0.0
O128 O 0.69047 0.26586 0.99612 0.0
C129 C 0.68203 0.25975 0.99024 0.0
C130 C 0.68243 0.29508 0.00579 0.0
C131 C 0.68396 0.26204 0.97901 0.0
C132 C 0.6879 0.2756 0.96421 0.0
C133 C 0.68595 0.27361 0.97493 0.0
C134 C 0.68585 0.25448 0.96161 0.0
C135 C 0.68787 0.26605 0.95742 0.0
C136 C 0.68392 0.25251 0.9723 0.0
C137 C 0.67534 0.24983 0.02955 0.0
C138 C 0.66808 0.22754 0.02839 0.0
C139 C 0.67698 0.23801 0.04408 0.0
C140 C 0.6789 0.24931 0.0396 0.0
C141 C 0.67138 0.22696 0.0386 0.0
C142 C 0.67006 0.23887 0.0239 0.0
C143 C 0.67695 0.26185 0.0253 0.0
O144 O 0.69096 0.29195 0.00643 0.0
O145 O 0.67304 0.28562 0.00443 0.0
O146 O 0.66896 0.26213 0.01956 0.0
O147 O 0.6869 0.26832 0.02146 0.0
H148 H 0.67557 0.29127 0.0261 0.0
H149 H 0.67506 0.30659 0.03905 0.0
H150 H 0.68822 0.33486 0.01587 0.0
H151 H 0.68839 0.31939 0.00291 0.0
H152 H 0.6893 0.28458 0.96123 0.0
H153 H 0.68599 0.28107 0.98002 0.0
H154 H 0.68594 0.24698 0.95664 0.0
H155 H 0.68245 0.24354 0.97534 0.0
H156 H 0.66367 0.21922 0.02398 0.0
H157 H 0.67984 0.23794 0.05187 0.0
H158 H 0.68306 0.25767 0.04405 0.0
H159 H 0.6673 0.23907 0.01609 0.0
C160 C 0.14386 0.76411 0.17198 0.0
C161 C 0.14019 0.75937 0.16206 0.0
C162 C 0.12391 0.76432 0.16475 0.0
C163 C 0.1303 0.75953 0.15844 0.0
C164 C 0.12787 0.76943 0.17454 0.0
C165 C 0.13775 0.76932 0.17812 0.0
U166 U 0.1663 0.75108 0.17111 0.0
O167 O 0.18352 0.75916 0.17637 0.0
O168 O 0.17156 0.74226 0.18343 0.0
C169 C 0.1816 0.75088 0.1836 0.0
C170 C 0.15352 0.76281 0.17639 0.0
C171 C 0.18571 0.75547 0.194 0.0
C172 C 0.18306 0.76251 0.21144 0.0
C173 C 0.1795 0.75946 0.20121 0.0
C174 C 0.19924 0.75801 0.20715 0.0
C175 C 0.19285 0.76154 0.21457 0.0
C176 C 0.19568 0.75499 0.19697 0.0
C177 C 0.16902 0.73038 0.1493 0.0
C178 C 0.17699 0.71524 0.15159 0.0
C179 C 0.17586 0.72223 0.13429 0.0
C180 C 0.17097 0.72999 0.13852 0.0
C181 C 0.17879 0.71467 0.14078 0.0
C182 C 0.17224 0.72309 0.15582 0.0
C183 C 0.16368 0.73839 0.15369 0.0
O184 O 0.15169 0.75172 0.17959 0.0
O185 O 0.16299 0.76795 0.17119 0.0
O186 O 0.17006 0.75014 0.15432 0.0
O187 O 0.15744 0.73427 0.16211 0.0
H188 H 0.14478 0.75523 0.15725 0.0
H189 H 0.12743 0.75541 0.15092 0.0
H190 H 0.1232 0.77331 0.17953 0.0
H191 H 0.14047 0.77299 0.18581 0.0
H192 H 0.17795 0.76514 0.21698 0.0
H193 H 0.17175 0.75987 0.19902 0.0
H194 H 0.20691 0.75738 0.20928 0.0
H195 H 0.20059 0.75196 0.19148 0.0
H196 H 0.17929 0.70962 0.15678 0.0
H197 H 0.1771 0.72192 0.12593 0.0
H198 H 0.16861 0.73559 0.13337 0.0
H199 H 0.17098 0.72337 0.16418 0.0
C200 C 0.60299 0.67983 0.52639 0.0
C201 C 0.59937 0.67285 0.51725 0.0
C202 C 0.61696 0.67051 0.5152 0.0
C203 C 0.60627 0.66818 0.51173 0.0
C204 C 0.62047 0.67733 0.52448 0.0
C205 C 0.61353 0.68195 0.53002 0.0
U206 U 0.57886 0.68968 0.52619 0.0
O207 O 0.56674 0.68995 0.5384 0.0
O208 O 0.57771 0.7071 0.53098 0.0
C209 C 0.57015 0.70197 0.53828 0.0
C210 C 0.59616 0.68564 0.53173 0.0
C211 C 0.57223 0.70825 0.54847 0.0
C212 C 0.58316 0.71528 0.56397 0.0
C213 C 0.58112 0.70878 0.55448 0.0
C214 C 0.56739 0.72065 0.56151 0.0
C215 C 0.57637 0.72138 0.56754 0.0
C216 C 0.56536 0.71415 0.55206 0.0
C217 C 0.56162 0.68346 0.50201 0.0
C218 C 0.54641 0.69018 0.50117 0.0
C219 C 0.55354 0.68384 0.48541 0.0
C220 C 0.56119 0.68136 0.49123 0.0
C221 C 0.54617 0.68849 0.49028 0.0
C222 C 0.5541 0.68773 0.50698 0.0
C223 C 0.57051 0.68213 0.50782 0.0
O224 O 0.59689 0.69596 0.52759 0.0
O225 O 0.58591 0.67827 0.53414 0.0
O226 O 0.56737 0.67529 0.51616 0.0
O227 O 0.57911 0.69243 0.50933 0.0
H228 H 0.59129 0.67125 0.51427 0.0
H229 H 0.60338 0.66311 0.50455 0.0
H230 H 0.62861 0.67917 0.52741 0.0
H231 H 0.61647 0.68737 0.53704 0.0
H232 H 0.59019 0.71574 0.5684 0.0
H233 H 0.58653 0.70429 0.55178 0.0
H234 H 0.5619 0.72506 0.56411 0.0
H235 H 0.55844 0.7138 0.54751 0.0
H236 H 0.54078 0.69361 0.50519 0.0
H237 H 0.55373 0.68262 0.47704 0.0
H238 H 0.56701 0.67816 0.48727 0.0
H239 H 0.55436 0.68946 0.51531 0.0
C240 C 0.36028 0.23867 0.67128 0.0
C241 C 0.3635 0.2414 0.66081 0.0
C242 C 0.37907 0.23532 0.66277 0.0
C243 C 0.37281 0.23973 0.65658 0.0
C244 C 0.3756 0.23233 0.67319 0.0
C245 C 0.3663 0.234 0.6774 0.0
U246 U 0.33686 0.25019 0.67002 0.0
O247 O 0.3207 0.24411 0.67834 0.0
O248 O 0.33296 0.26288 0.68068 0.0
C249 C 0.32332 0.25452 0.68357 0.0
C250 C 0.35115 0.24139 0.67613 0.0
C251 C 0.32112 0.25348 0.69487 0.0
C252 C 0.32365 0.24651 0.71182 0.0
C253 C 0.32567 0.24713 0.70103 0.0
C254 C 0.31258 0.25863 0.71035 0.0
C255 C 0.31712 0.25231 0.7166 0.0
C256 C 0.31456 0.2592 0.69958 0.0
C257 C 0.33019 0.26146 0.64481 0.0
C258 C 0.32025 0.27497 0.64462 0.0
C259 C 0.3248 0.26686 0.62841 0.0
C260 C 0.32979 0.26048 0.63394 0.0
C261 C 0.32016 0.27438 0.63367 0.0
C262 C 0.32517 0.26851 0.65014 0.0
C263 C 0.3364 0.25569 0.65046 0.0
O264 O 0.3529 0.2531 0.67665 0.0
O265 O 0.34111 0.23437 0.67322 0.0
O266 O 0.33055 0.24474 0.65421 0.0
O267 O 0.34351 0.26298 0.65709 0.0
H268 H 0.35893 0.24504 0.65597 0.0
H269 H 0.37517 0.24199 0.6485 0.0
H270 H 0.38029 0.22909 0.67824 0.0
H271 H 0.36398 0.23193 0.68552 0.0
H272 H 0.32737 0.24169 0.71643 0.0
H273 H 0.33083 0.24273 0.69751 0.0
H274 H 0.3074 0.26305 0.71376 0.0
H275 H 0.31099 0.26414 0.69492 0.0
H276 H 0.31659 0.28051 0.64891 0.0
H277 H 0.32501 0.2663 0.61999 0.0
H278 H 0.33362 0.25506 0.62971 0.0
H279 H 0.3253 0.26927 0.65856 0.0
C280 C 0.92543 0.28049 0.02594 0.0
C281 C 0.93147 0.27304 0.02451 0.0
C282 C 0.9274 0.26638 0.04254 0.0
C283 C 0.93245 0.26604 0.03274 0.0
C284 C 0.92151 0.27404 0.04393 0.0
C285 C 0.92054 0.28101 0.03571 0.0
U286 U 0.93163 0.29293 0.99816 0.0
O287 O 0.92018 0.29406 0.98657 0.0
O288 O 0.93329 0.31092 0.99234 0.0
C289 C 0.92446 0.30613 0.98663 0.0
C290 C 0.92391 0.28754 0.01733 0.0
C291 C 0.9165 0.31207 0.98763 0.0
C292 C 0.90014 0.31391 0.99564 0.0
C293 C 0.90789 0.30846 0.9952 0.0
C294 C 0.9097 0.3268 0.98111 0.0
C295 C 0.90092 0.3231 0.98855 0.0
C296 C 0.91741 0.32133 0.98067 0.0
C297 C 0.95207 0.28644 0.9797 0.0
C298 C 0.9516 0.28578 0.96077 0.0
C299 C 0.96902 0.29083 0.96929 0.0
C300 C 0.96354 0.28956 0.97901 0.0
C301 C 0.96312 0.28893 0.96003 0.0
C302 C 0.94615 0.28463 0.97048 0.0
C303 C 0.94644 0.28526 0.99002 0.0
O304 O 0.93246 0.29763 0.01489 0.0
O305 O 0.91902 0.28104 0.00915 0.0
O306 O 0.93575 0.27847 0.99035 0.0
O307 O 0.94909 0.29547 0.99554 0.0
H308 H 0.93531 0.27252 0.01699 0.0
H309 H 0.93696 0.26017 0.03137 0.0
H310 H 0.91767 0.2747 0.0514 0.0
H311 H 0.91588 0.28675 0.03696 0.0
H312 H 0.89354 0.31093 1.00151 0.0
H313 H 0.90711 0.30136 1.00068 0.0
H314 H 0.91047 0.33371 0.97544 0.0
H315 H 0.92399 0.32421 0.97476 0.0
H316 H 0.94672 0.28403 0.95385 0.0
H317 H 0.97791 0.29344 0.96905 0.0
H318 H 0.96828 0.29109 0.98602 0.0
H319 H 0.9373 0.28228 0.97076 0.0
C320 C 0.22883 0.03038 0.3935 0.0
C321 C 0.23269 0.04321 0.39466 0.0
C322 C 0.21425 0.04252 0.39155 0.0
C323 C 0.22546 0.0492 0.39375 0.0
C324 C 0.21042 0.0297 0.39029 0.0
C325 C 0.21764 0.02369 0.3913 0.0
U326 U 0.25657 0.02826 0.38741 0.0
O327 O 0.26783 0.0238 0.39721 0.0
O328 O 0.26104 0.01257 0.38329 0.0
C329 C 0.26701 0.01403 0.39161 0.0
C330 C 0.23638 0.02391 0.39439 0.0
C331 C 0.26593 0.00285 0.39729 0.0
C332 C 0.27021 0.99369 0.41243 0.0
C333 C 0.26927 0.00372 0.40767 0.0
C334 C 0.2641 0.98155 0.3967 0.0
C335 C 0.26791 0.98258 0.40691 0.0
C336 C 0.26316 0.99158 0.39194 0.0
C337 C 0.27807 0.05303 0.37106 0.0
C338 C 0.29624 0.05268 0.36746 0.0
C339 C 0.29204 0.06952 0.36135 0.0
C340 C 0.28134 0.06412 0.36574 0.0
C341 C 0.29965 0.06391 0.36223 0.0
C342 C 0.28554 0.04729 0.37184 0.0
C343 C 0.26697 0.04769 0.37599 0.0
O344 O 0.23849 0.01901 0.3857 0.0
O345 O 0.24522 0.02954 0.39995 0.0
O346 O 0.26675 0.04801 0.38622 0.0
O347 O 0.26038 0.03706 0.3721 0.0
H348 H 0.24131 0.04864 0.39622 0.0
H349 H 0.22868 0.0591 0.39462 0.0
H350 H 0.20182 0.02429 0.38865 0.0
H351 H 0.21449 0.0138 0.39035 0.0
H352 H 0.2733 0.99488 0.42025 0.0
H353 H 0.27165 0.01231 0.41198 0.0
H354 H 0.26211 0.97308 0.39228 0.0
H355 H 0.2607 0.99063 0.3839 0.0
H356 H 0.30185 0.04805 0.36818 0.0
H357 H 0.29443 0.07825 0.35751 0.0
H358 H 0.27568 0.06868 0.3651 0.0
H359 H 0.28312 0.0387 0.37592 0.0
C360 C 0.31486 0.1106 0.6452 0.0
C361 C 0.30494 0.10895 0.64038 0.0
C362 C 0.29791 0.08691 0.64339 0.0
C363 C 0.29656 0.09721 0.63944 0.0
C364 C 0.30779 0.0887 0.64843 0.0
C365 C 0.31618 0.10043 0.64929 0.0
U366 U 0.32531 0.14552 0.64625 0.0
O367 O 0.33881 0.1591 0.65521 0.0
O368 O 0.33933 0.15958 0.63812 0.0
C369 C 0.34458 0.16409 0.64675 0.0
C370 C 0.32394 0.1228 0.64589 0.0
C371 C 0.35637 0.1661 0.64652 0.0
C372 C 0.37143 0.16024 0.6406 0.0
C373 C 0.36008 0.15744 0.64195 0.0
C374 C 0.37546 0.1801 0.64887 0.0
C375 C 0.37924 0.17171 0.64384 0.0
C376 C 0.36412 0.17732 0.65017 0.0
C377 C 0.30537 0.16144 0.64513 0.0
C378 C 0.31195 0.18367 0.64664 0.0
C379 C 0.29328 0.17174 0.64105 0.0
C380 C 0.29511 0.16095 0.64195 0.0
C381 C 0.3017 0.18323 0.64334 0.0
C382 C 0.31379 0.17286 0.64748 0.0
C383 C 0.30735 0.15009 0.64553 0.0
O384 O 0.32584 0.12955 0.63751 0.0
O385 O 0.32415 0.12901 0.65457 0.0
O386 O 0.31132 0.14822 0.65427 0.0
O387 O 0.31237 0.14781 0.63719 0.0
H388 H 0.30373 0.1167 0.63721 0.0
H389 H 0.28914 0.09619 0.63541 0.0
H390 H 0.30905 0.08105 0.65173 0.0
H391 H 0.32375 0.10155 0.65311 0.0
H392 H 0.3741 0.15355 0.63679 0.0
H393 H 0.3542 0.14869 0.63913 0.0
H394 H 0.38125 0.18907 0.65135 0.0
H395 H 0.3614 0.18412 0.65369 0.0
H396 H 0.31861 0.19237 0.64837 0.0
H397 H 0.28525 0.17108 0.63863 0.0
H398 H 0.28854 0.15221 0.64007 0.0
H399 H 0.32181 0.17341 0.64986 0.0
C400 C 0.25324 0.99757 0.89269 0.0
C401 C 0.24178 0.99456 0.89309 0.0
C402 C 0.2449 0.01625 0.8937 0.0
C403 C 0.23765 0.0038 0.89361 0.0
C404 C 0.25641 0.01921 0.8933 0.0
C405 C 0.26053 0.00993 0.89279 0.0
U406 U 0.24732 0.96393 0.88964 0.0
O407 O 0.25562 0.95396 0.88029 0.0
O408 O 0.25376 0.9518 0.89727 0.0
C409 C 0.25799 0.94921 0.88854 0.0
C410 C 0.25751 0.98778 0.89199 0.0
C411 C 0.26931 0.94943 0.88884 0.0
C412 C 0.28658 0.95387 0.8977 0.0
C413 C 0.2764 0.95505 0.89707 0.0
C414 C 0.28287 0.94183 0.88171 0.0
C415 C 0.28985 0.94706 0.89011 0.0
C416 C 0.27272 0.94298 0.88111 0.0
C417 C 0.21703 0.94225 0.88678 0.0
C418 C 0.21123 0.92098 0.88105 0.0
C419 C 0.19756 0.92871 0.88749 0.0
C420 C 0.20597 0.94025 0.88919 0.0
C421 C 0.20008 0.91898 0.88331 0.0
C422 C 0.21965 0.93252 0.88281 0.0
C423 C 0.22568 0.95458 0.88824 0.0
O424 O 0.25462 0.98015 0.89985 0.0
O425 O 0.25638 0.98216 0.88289 0.0
O426 O 0.23251 0.9589 0.88023 0.0
O427 O 0.23071 0.95658 0.89717 0.0
H428 H 0.23602 0.98504 0.89301 0.0
H429 H 0.22876 1.00116 0.89408 0.0
H430 H 0.26223 0.0287 0.89324 0.0
H431 H 0.26941 0.01241 0.89243 0.0
H432 H 0.2917 0.95795 0.90431 0.0
H433 H 0.27399 0.96008 0.90317 0.0
H434 H 0.28521 0.93673 0.87563 0.0
H435 H 0.26738 0.93856 0.8747 0.0
H436 H 0.21344 0.91363 0.87793 0.0
H437 H 0.18906 0.92751 0.88918 0.0
H438 H 0.20382 0.94767 0.89226 0.0
H439 H 0.22817 0.93389 0.88097 0.0
C440 C 0.17748 0.84678 0.13901 0.0
C441 C 0.17383 0.83465 0.13515 0.0
C442 C 0.15473 0.8314 0.13969 0.0
C443 C 0.16256 0.82706 0.13543 0.0
C444 C 0.1584 0.84348 0.14366 0.0
C445 C 0.16967 0.85111 0.14327 0.0
U446 U 0.20749 0.85281 0.14437 0.0
O447 O 0.22279 0.86196 0.13508 0.0
O448 O 0.22088 0.86925 0.15059 0.0
C449 C 0.22694 0.87087 0.14196 0.0
C450 C 0.18934 0.85496 0.13879 0.0
C451 C 0.23146 0.8834 0.13784 0.0
C452 C 0.23098 0.89871 0.12584 0.0
C453 C 0.22619 0.88688 0.12995 0.0
C454 C 0.24616 0.90375 0.13765 0.0
C455 C 0.24105 0.90726 0.12963 0.0
C456 C 0.24141 0.89193 0.1417 0.0
C457 C 0.21452 0.82787 0.15626 0.0
C458 C 0.23296 0.83203 0.16238 0.0
C459 C 0.21998 0.81102 0.15984 0.0
C460 C 0.21203 0.81525 0.15667 0.0
C461 C 0.23057 0.81937 0.16267 0.0
C462 C 0.22502 0.83624 0.15916 0.0
C463 C 0.20629 0.8322 0.15245 0.0
O464 O 0.19371 0.85861 0.14795 0.0
O465 O 0.19579 0.85187 0.13226 0.0
O466 O 0.20682 0.83401 0.14236 0.0
O467 O 0.20499 0.84107 0.15798 0.0
H468 H 0.17967 0.831 0.13192 0.0
H469 H 0.15996 0.81776 0.13242 0.0
H470 H 0.15254 0.8471 0.14689 0.0
H471 H 0.17229 0.86042 0.1463 0.0
H472 H 0.22678 0.90117 0.11974 0.0
H473 H 0.21845 0.88043 0.1269 0.0
H474 H 0.25399 0.91006 0.14065 0.0
H475 H 0.2456 0.8894 0.14777 0.0
H476 H 0.24096 0.83871 0.16463 0.0
H477 H 0.21791 0.80123 0.1598 0.0
H478 H 0.20398 0.80867 0.15438 0.0
H479 H 0.22712 0.84603 0.15885 0.0
C480 C 0.32589 0.19948 0.01503 0.0
C481 C 0.3303 0.19951 0.02482 0.0
C482 C 0.32425 0.17727 0.02385 0.0
C483 C 0.32952 0.18849 0.02919 0.0
C484 C 0.31988 0.17733 0.01403 0.0
C485 C 0.32071 0.18835 0.00966 0.0
U486 U 0.33193 0.23361 0.01719 0.0
O487 O 0.34014 0.24849 0.0061 0.0
O488 O 0.32282 0.24402 0.01103 0.0
C489 C 0.33102 0.25029 0.00464 0.0
C490 C 0.32647 0.21094 0.01043 0.0
C491 C 0.32802 0.25027 0.99372 0.0
C492 C 0.32555 0.2413 0.97629 0.0
C493 C 0.32836 0.24116 0.98667 0.0
C494 C 0.32181 0.25951 0.97997 0.0
C495 C 0.32226 0.2505 0.97279 0.0
C496 C 0.32468 0.2594 0.99032 0.0
C497 C 0.34174 0.25056 0.04301 0.0
C498 C 0.34958 0.27278 0.04494 0.0
C499 C 0.34437 0.26002 0.06024 0.0
C500 C 0.3409 0.24952 0.05386 0.0
C501 C 0.3488 0.2718 0.05586 0.0
C502 C 0.34605 0.26226 0.03857 0.0
C503 C 0.33813 0.23938 0.03647 0.0
O504 O 0.31922 0.21518 0.01426 0.0
O505 O 0.33648 0.21951 0.00924 0.0
O506 O 0.34497 0.23928 0.02877 0.0
O507 O 0.32772 0.23508 0.03378 0.0
H508 H 0.33428 0.20805 0.02911 0.0
H509 H 0.33285 0.18874 0.03682 0.0
H510 H 0.31589 0.16886 0.00967 0.0
H511 H 0.31726 0.18818 0.00209 0.0
H512 H 0.32613 0.23431 0.97098 0.0
H513 H 0.33087 0.23399 0.98917 0.0
H514 H 0.31913 0.2666 0.97761 0.0
H515 H 0.32428 0.26644 0.99569 0.0
H516 H 0.35305 0.28168 0.04129 0.0
H517 H 0.34346 0.2589 0.0686 0.0
H518 H 0.33753 0.24056 0.05742 0.0
H519 H 0.34673 0.26324 0.03018 0.0
C520 C 0.86804 0.72635 0.1919 0.0
C521 C 0.86947 0.72756 0.18105 0.0
C522 C 0.8877 0.72669 0.1819 0.0
C523 C 0.8792 0.72771 0.1761 0.0
C524 C 0.88605 0.72513 0.19275 0.0
C525 C 0.87631 0.72498 0.19769 0.0
U526 U 0.8414 0.73193 0.19138 0.0
O527 O 0.82562 0.72375 0.20022 0.0
O528 O 0.8356 0.74352 0.20161 0.0
C529 C 0.8268 0.73418 0.20491 0.0
C530 C 0.85832 0.72732 0.1973 0.0
C531 C 0.82464 0.73371 0.21622 0.0
C532 C 0.82688 0.72739 0.23353 0.0
C533 C 0.82929 0.72785 0.2228 0.0
C534 C 0.81532 0.7388 0.23117 0.0
C535 C 0.81985 0.73285 0.23784 0.0
C536 C 0.8177 0.7392 0.22048 0.0
C537 C 0.83151 0.73854 0.16566 0.0
C538 C 0.81696 0.74636 0.16496 0.0
C539 C 0.82605 0.74324 0.14904 0.0
C540 C 0.8326 0.73897 0.1548 0.0
C541 C 0.81827 0.74719 0.15405 0.0
C542 C 0.82353 0.74204 0.17072 0.0
C543 C 0.83924 0.7352 0.17161 0.0
O544 O 0.85821 0.73837 0.19742 0.0
O545 O 0.84866 0.71865 0.19513 0.0
O546 O 0.83507 0.72436 0.17597 0.0
O547 O 0.84564 0.74391 0.17779 0.0
H548 H 0.86316 0.72864 0.17645 0.0
H549 H 0.88012 0.72876 0.16773 0.0
H550 H 0.89245 0.72448 0.19749 0.0
H551 H 0.87537 0.72411 0.20607 0.0
H552 H 0.83059 0.72286 0.23847 0.0
H553 H 0.83473 0.72362 0.21965 0.0
H554 H 0.80977 0.74294 0.2342 0.0
H555 H 0.81403 0.74375 0.2155 0.0
H556 H 0.811 0.74921 0.16907 0.0
H557 H 0.82745 0.74395 0.14069 0.0
H558 H 0.83876 0.73635 0.15078 0.0
H559 H 0.82256 0.74173 0.17913 0.0
C560 C 0.18721 0.80393 0.52221 0.0
C561 C 0.18479 0.80169 0.53286 0.0
C562 C 0.18682 0.82289 0.5358 0.0
C563 C 0.1846 0.81109 0.5396 0.0
C564 C 0.18916 0.82502 0.52508 0.0
C565 C 0.18936 0.81561 0.51835 0.0
U566 U 0.18456 0.77112 0.5177 0.0
O567 O 0.17701 0.75797 0.505 0.0
O568 O 0.19467 0.76358 0.5081 0.0
C569 C 0.18649 0.75746 0.50193 0.0
C570 C 0.18762 0.79415 0.51511 0.0
C571 C 0.18917 0.75904 0.49072 0.0
C572 C 0.19432 0.77167 0.47527 0.0
C573 C 0.19163 0.77036 0.48595 0.0
C574 C 0.19205 0.75037 0.47409 0.0
C575 C 0.19456 0.76168 0.46922 0.0
C576 C 0.18938 0.74907 0.48474 0.0
C577 C 0.17728 0.74987 0.54127 0.0
C578 C 0.16947 0.72754 0.54085 0.0
C579 C 0.17745 0.73852 0.55668 0.0
C580 C 0.18004 0.74968 0.55167 0.0
C581 C 0.17198 0.72731 0.55139 0.0
C582 C 0.17212 0.73873 0.53583 0.0
C583 C 0.17962 0.76177 0.5364 0.0
O584 O 0.19575 0.79059 0.51663 0.0
O585 O 0.17807 0.78495 0.51369 0.0
O586 O 0.17216 0.76212 0.53 0.0
O587 O 0.18986 0.76767 0.53295 0.0
H588 H 0.18308 0.79269 0.53596 0.0
H589 H 0.18263 0.80909 0.54778 0.0
H590 H 0.19106 0.83402 0.52192 0.0
H591 H 0.19127 0.81749 0.51015 0.0
H592 H 0.19608 0.78047 0.47175 0.0
H593 H 0.19149 0.77815 0.49047 0.0
H594 H 0.19232 0.74254 0.46972 0.0
H595 H 0.18755 0.74028 0.48832 0.0
H596 H 0.16519 0.7191 0.53656 0.0
H597 H 0.17971 0.7387 0.56472 0.0
H598 H 0.1841 0.75818 0.55597 0.0
H599 H 0.16998 0.73868 0.52776 0.0
C600 C 0.97748 0.61495 0.71822 0.0
C601 C 0.96659 0.6141 0.71993 0.0
C602 C 0.97097 0.62237 0.73753 0.0
C603 C 0.96336 0.61777 0.72948 0.0
C604 C 0.98189 0.62317 0.73576 0.0
C605 C 0.98511 0.61949 0.72618 0.0
U606 U 0.96977 0.60218 0.69117 0.0
O607 O 0.97856 0.60697 0.676 0.0
O608 O 0.97355 0.5883 0.68194 0.0
C609 C 0.97898 0.59611 0.67463 0.0
C610 C 0.98082 0.61106 0.70815 0.0
C611 C 0.98985 0.59611 0.67138 0.0
C612 C 0.00947 0.60167 0.67414 0.0
C613 C 0.9992 0.60171 0.67751 0.0
C614 C 1.00109 0.59038 0.65857 0.0
C615 C 0.01053 0.596 0.66462 0.0
C616 C 0.99086 0.59044 0.66192 0.0
C617 C 0.93952 0.59484 0.68412 0.0
C618 C 0.93177 0.58795 0.66709 0.0
C619 C 0.91983 0.58877 0.68167 0.0
C620 C 0.92895 0.5931 0.68811 0.0
C621 C 0.92111 0.58609 0.67109 0.0
C622 C 0.94092 0.59226 0.67357 0.0
C623 C 0.94889 0.59932 0.69117 0.0
O624 O 0.97604 0.59924 0.70607 0.0
O625 O 0.98097 0.61791 0.70021 0.0
O626 O 0.95712 0.60957 0.68851 0.0
O627 O 0.95218 0.59096 0.69454 0.0
H628 H 0.96057 0.61057 0.71386 0.0
H629 H 0.95485 0.61687 0.73061 0.0
H630 H 0.98799 0.62679 0.74174 0.0
H631 H 0.99356 0.62022 0.72498 0.0
H632 H 0.01654 0.60598 0.67904 0.0
H633 H 0.99855 0.6061 0.68487 0.0
H634 H 1.00163 0.58609 0.65113 0.0
H635 H 0.98373 0.58611 0.65709 0.0
H636 H 0.93301 0.58587 0.659 0.0
H637 H 0.91178 0.58764 0.68497 0.0
H638 H 0.92774 0.59509 0.69623 0.0
H639 H 0.94904 0.59353 0.67038 0.0
C640 C 0.21876 0.32339 0.46723 0.0
C641 C 0.21152 0.32153 0.45898 0.0
C642 C 0.22045 0.34315 0.45452 0.0
C643 C 0.21232 0.33134 0.45271 0.0
C644 C 0.22769 0.34494 0.46278 0.0
C645 C 0.22683 0.33515 0.46909 0.0
U646 U 0.21068 0.28923 0.47127 0.0
O647 O 0.21959 0.27943 0.47871 0.0
O648 O 0.20329 0.27777 0.48497 0.0
C649 C 0.21213 0.27541 0.48632 0.0
C650 C 0.21816 0.31314 0.4738 0.0
C651 C 0.21644 0.27761 0.49693 0.0
C652 C 0.22845 0.29096 0.51003 0.0
C653 C 0.22448 0.28903 0.49989 0.0
C654 C 0.2163 0.27013 0.51438 0.0
C655 C 0.22439 0.28153 0.51742 0.0
C656 C 0.21238 0.2682 0.50423 0.0
C657 C 0.19705 0.26727 0.44846 0.0
C658 C 0.18579 0.24535 0.44903 0.0
C659 C 0.19401 0.25482 0.43264 0.0
C660 C 0.19874 0.26619 0.43771 0.0
C661 C 0.18745 0.24426 0.43822 0.0
C662 C 0.19059 0.25676 0.45412 0.0
C663 C 0.20197 0.27948 0.45345 0.0
O664 O 0.20814 0.30569 0.4768 0.0
O665 O 0.22448 0.30736 0.47064 0.0
O666 O 0.21264 0.28355 0.45511 0.0
O667 O 0.19625 0.28176 0.46125 0.0
H668 H 0.2053 0.31248 0.45735 0.0
H669 H 0.20671 0.32964 0.44633 0.0
H670 H 0.23396 0.35395 0.46443 0.0
H671 H 0.2325 0.33675 0.47541 0.0
H672 H 0.23477 0.2998 0.51204 0.0
H673 H 0.2277 0.29644 0.49437 0.0
H674 H 0.21283 0.26273 0.51988 0.0
H675 H 0.20612 0.25935 0.5021 0.0
H676 H 0.18088 0.23737 0.45356 0.0
H677 H 0.19534 0.25432 0.4243 0.0
H678 H 0.20367 0.2742 0.43321 0.0
H679 H 0.18923 0.25736 0.46244 0.0
C680 C 0.50991 0.37258 0.20759 0.0
C681 C 0.51148 0.37564 0.19702 0.0
C682 C 0.49243 0.374 0.19627 0.0
C683 C 0.50283 0.37632 0.19141 0.0
C684 C 0.4909 0.37088 0.20688 0.0
C685 C 0.49958 0.37019 0.21249 0.0
U686 U 0.54002 0.37771 0.20825 0.0
O687 O 0.55258 0.38587 0.22018 0.0
O688 O 0.54864 0.36694 0.21459 0.0
C689 C 0.55424 0.3757 0.22117 0.0
C690 C 0.51913 0.37211 0.21348 0.0
C691 C 0.55502 0.37201 0.23187 0.0
C692 C 0.54875 0.35745 0.24607 0.0
C693 C 0.54702 0.36137 0.23634 0.0
C694 C 0.56622 0.37499 0.24713 0.0
C695 C 0.5585 0.36408 0.25146 0.0
C696 C 0.5645 0.37888 0.23744 0.0
C697 C 0.55785 0.38971 0.18387 0.0
C698 C 0.57687 0.39126 0.18259 0.0
C699 C 0.56968 0.39982 0.16912 0.0
C700 C 0.55943 0.39593 0.17445 0.0
C701 C 0.57851 0.39753 0.17313 0.0
C702 C 0.56663 0.38742 0.18793 0.0
C703 C 0.54709 0.38578 0.18944 0.0
O704 O 0.52299 0.36394 0.21006 0.0
O705 O 0.52699 0.38286 0.21554 0.0
O706 O 0.54655 0.39297 0.19723 0.0
O707 O 0.54251 0.37406 0.1917 0.0
H708 H 0.51942 0.37751 0.19311 0.0
H709 H 0.50426 0.37856 0.18323 0.0
H710 H 0.48305 0.36919 0.2109 0.0
H711 H 0.49826 0.36788 0.22067 0.0
H712 H 0.54266 0.349 0.24918 0.0
H713 H 0.53962 0.35592 0.23219 0.0
H714 H 0.57371 0.38044 0.25116 0.0
H715 H 0.57075 0.38713 0.23415 0.0
H716 H 0.58355 0.3895 0.18594 0.0
H717 H 0.57066 0.40452 0.1618 0.0
H718 H 0.55274 0.39777 0.17122 0.0
H719 H 0.56556 0.3827 0.19525 0.0
C720 C 0.34381 0.71678 0.99815 0.0
C721 C 0.34894 0.71814 0.98822 0.0
C722 C 0.34105 0.69595 0.98554 0.0
C723 C 0.34761 0.70783 0.98199 0.0
C724 C 0.33586 0.69468 0.99547 0.0
C725 C 0.33725 0.70501 0.00171 0.0
U726 U 0.35063 0.75095 1.00126 0.0
O727 O 0.34303 0.76099 0.01131 0.0
O728 O 0.36056 0.76424 0.01297 0.0
C729 C 0.35197 0.76619 0.01684 0.0
C730 C 0.34518 0.72756 0.00479 0.0
C731 C 0.3503 0.76501 0.02821 0.0
C732 C 0.3413 0.75319 0.04353 0.0
C733 C 0.3428 0.75412 0.0327 0.0
C734 C 0.35497 0.77394 0.0455 0.0
C735 C 0.34735 0.76311 0.05008 0.0
C736 C 0.3564 0.77488 0.03468 0.0
C737 C 0.35796 0.77035 0.97638 0.0
C738 C 0.35628 0.78972 0.97326 0.0
C739 C 0.36788 0.78295 0.96178 0.0
C740 C 0.36519 0.7724 0.9677 0.0
C741 C 0.36333 0.79166 0.96438 0.0
C742 C 0.35363 0.77916 0.97922 0.0
C743 C 0.35479 0.75875 0.98203 0.0
O744 O 0.35537 0.73581 0.00537 0.0
O745 O 0.33783 0.73238 0.0036 0.0
O746 O 0.34478 0.75432 0.98632 0.0
O747 O 0.36237 0.75783 0.98796 0.0
H748 H 0.35401 0.72719 0.98531 0.0
H749 H 0.35185 0.70916 0.97446 0.0
H750 H 0.3306 0.68571 0.99838 0.0
H751 H 0.33316 0.7038 0.00933 0.0
H752 H 0.33527 0.74477 0.04674 0.0
H753 H 0.33805 0.74634 0.02784 0.0
H754 H 0.35993 0.78168 0.05029 0.0
H755 H 0.36231 0.78332 0.03136 0.0
H756 H 0.35258 0.7962 0.97545 0.0
H757 H 0.37353 0.78426 0.95514 0.0
H758 H 0.36867 0.76575 0.96541 0.0
H759 H 0.34805 0.7778 0.98593 0.0
C760 C 0.8705 0.25011 0.83877 0.0
C761 C 0.87167 0.25225 0.84954 0.0
C762 C 0.88763 0.24655 0.84903 0.0
C763 C 0.88018 0.25048 0.85464 0.0
C764 C 0.88636 0.24442 0.83824 0.0
C765 C 0.87785 0.24613 0.83317 0.0
U766 U 0.84783 0.26265 0.83764 0.0
O767 O 0.84473 0.27364 0.8256 0.0
O768 O 0.83206 0.25551 0.82942 0.0
C769 C 0.83514 0.26499 0.82323 0.0
C770 C 0.86202 0.2525 0.83314 0.0
C771 C 0.83349 0.2621 0.81207 0.0
C772 C 0.83941 0.25636 0.79534 0.0
C773 C 0.84094 0.25863 0.80603 0.0
C774 C 0.82287 0.2608 0.79669 0.0
C775 C 0.83037 0.25747 0.79054 0.0
C776 C 0.82443 0.2631 0.80736 0.0
C777 C 0.83984 0.27738 0.8615 0.0
C778 C 0.83044 0.29141 0.86074 0.0
C779 C 0.83135 0.28226 0.87714 0.0
C780 C 0.83725 0.27595 0.87218 0.0
C781 C 0.82798 0.29015 0.87149 0.0
C782 C 0.83626 0.28501 0.85577 0.0
C783 C 0.84638 0.27099 0.8565 0.0
O784 O 0.85168 0.24618 0.83611 0.0
O785 O 0.86418 0.26415 0.83159 0.0
O786 O 0.85382 0.27731 0.84947 0.0
O787 O 0.84073 0.25955 0.85363 0.0
H788 H 0.86608 0.2554 0.85397 0.0
H789 H 0.88093 0.25218 0.86296 0.0
H790 H 0.89215 0.24176 0.83364 0.0
H791 H 0.87714 0.24455 0.82483 0.0
H792 H 0.84526 0.25369 0.79083 0.0
H793 H 0.84797 0.25778 0.80958 0.0
H794 H 0.81593 0.26191 0.79323 0.0
H795 H 0.81862 0.2658 0.81191 0.0
H796 H 0.82786 0.29733 0.85618 0.0
H797 H 0.82969 0.28121 0.88545 0.0
H798 H 0.83992 0.27008 0.87672 0.0
H799 H 0.83807 0.28613 0.84748 0.0
C800 C 0.4059 0.29042 0.46885 0.0
C801 C 0.40469 0.29122 0.4797 0.0
C802 C 0.39313 0.30285 0.47776 0.0
C803 C 0.39833 0.2973 0.48411 0.0
C804 C 0.39448 0.30212 0.46686 0.0
C805 C 0.4008 0.29594 0.46246 0.0
U806 U 0.42852 0.27862 0.47152 0.0
O807 O 0.4292 0.26076 0.46753 0.0
O808 O 0.44138 0.27754 0.46052 0.0
C809 C 0.43749 0.26549 0.4608 0.0
C810 C 0.41253 0.28389 0.46423 0.0
C811 C 0.43618 0.25902 0.45071 0.0
C812 C 0.42772 0.25336 0.43383 0.0
C813 C 0.42915 0.2601 0.44318 0.0
C814 C 0.44038 0.24452 0.43949 0.0
C815 C 0.43323 0.24538 0.43194 0.0
C816 C 0.44183 0.25128 0.44878 0.0
C817 C 0.44335 0.28475 0.49734 0.0
C818 C 0.45011 0.28584 0.5148 0.0
C819 C 0.45811 0.27786 0.50058 0.0
C820 C 0.45097 0.27983 0.49368 0.0
C821 C 0.45763 0.28068 0.51125 0.0
C822 C 0.44304 0.28785 0.5079 0.0
C823 C 0.4353 0.28616 0.49038 0.0
O824 O 0.42307 0.2907 0.46247 0.0
O825 O 0.41087 0.27334 0.46853 0.0
O826 O 0.42667 0.27602 0.48845 0.0
O827 O 0.43947 0.29278 0.48205 0.0
H828 H 0.40861 0.28707 0.48479 0.0
H829 H 0.39735 0.29747 0.4925 0.0
H830 H 0.39075 0.30643 0.46173 0.0
H831 H 0.40171 0.29549 0.45406 0.0
H832 H 0.4221 0.25414 0.4282 0.0
H833 H 0.42468 0.26601 0.44459 0.0
H834 H 0.44487 0.23861 0.43821 0.0
H835 H 0.4473 0.25036 0.45452 0.0
H836 H 0.44964 0.28825 0.52294 0.0
H837 H 0.46374 0.27377 0.49764 0.0
H838 H 0.45126 0.27731 0.48554 0.0
H839 H 0.43719 0.29165 0.51084 0.0
C840 C 0.66796 0.78566 0.3335 0.0
C841 C 0.66218 0.77786 0.34165 0.0
C842 C 0.6484 0.78698 0.34231 0.0
C843 C 0.65247 0.77849 0.346 0.0
C844 C 0.65446 0.79505 0.33438 0.0
C845 C 0.66413 0.79436 0.33001 0.0
U846 U 0.69039 0.77269 0.33214 0.0
O847 O 0.69582 0.76373 0.31916 0.0
O848 O 0.70769 0.78062 0.32624 0.0
C849 C 0.70592 0.77223 0.31884 0.0
C850 C 0.67758 0.78433 0.3282 0.0
C851 C 0.71047 0.77661 0.30841 0.0
C852 C 0.711 0.78771 0.29262 0.0
C853 C 0.70675 0.78413 0.30272 0.0
C854 C 0.72271 0.77629 0.29388 0.0
C855 C 0.71902 0.7838 0.28806 0.0
C856 C 0.71848 0.77277 0.30394 0.0
C857 C 0.69247 0.75273 0.35407 0.0
C858 C 0.70142 0.73825 0.35209 0.0
C859 C 0.69579 0.74302 0.36926 0.0
C860 C 0.69182 0.75114 0.36487 0.0
C861 C 0.70046 0.73631 0.3629 0.0
C862 C 0.6975 0.74643 0.34772 0.0
C863 C 0.68745 0.76056 0.34953 0.0
O864 O 0.68711 0.78961 0.33282 0.0
O865 O 0.67581 0.77321 0.32467 0.0
O866 O 0.68162 0.75602 0.3412 0.0
O867 O 0.6939 0.77224 0.34873 0.0
H868 H 0.66505 0.77112 0.34449 0.0
H869 H 0.64809 0.77226 0.35219 0.0
H870 H 0.65152 0.80161 0.33129 0.0
H871 H 0.66848 0.80044 0.32371 0.0
H872 H 0.70804 0.79357 0.2884 0.0
H873 H 0.70053 0.78716 0.30606 0.0
H874 H 0.7287 0.7729 0.29059 0.0
H875 H 0.72138 0.76687 0.3082 0.0
H876 H 0.70514 0.73339 0.34701 0.0
H877 H 0.69482 0.74166 0.37759 0.0
H878 H 0.68801 0.75596 0.36989 0.0
H879 H 0.6982 0.74766 0.33936 0.0
C880 C 0.08857 0.70166 0.97263 0.0
C881 C 0.08193 0.7085 0.97307 0.0
C882 C 0.0882 0.71594 0.95555 0.0
C883 C 0.08175 0.71558 0.96462 0.0
C884 C 0.09486 0.70905 0.95516 0.0
C885 C 0.09503 0.70196 0.96365 0.0
U886 U 0.07777 0.69016 0.99948 0.0
O887 O 0.07363 0.67218 0.00674 0.0
O888 O 0.08623 0.6888 0.01353 0.0
C889 C 0.08128 0.67676 0.01376 0.0
C890 C 0.08879 0.69434 0.9816 0.0
C891 C 0.08842 0.66999 0.01531 0.0
C892 C 0.10648 0.66868 0.01477 0.0
C893 C 0.09968 0.67479 0.01225 0.0
C894 C 0.09073 0.65265 0.02298 0.0
C895 C 0.10212 0.65766 0.02035 0.0
C896 C 0.08397 0.65878 0.02051 0.0
C897 C 0.05584 0.70031 0.01206 0.0
C898 C 0.0523 0.70137 0.03068 0.0
C899 C 0.03916 0.70271 0.01852 0.0
C900 C 0.04584 0.70148 0.0102 0.0
C901 C 0.04239 0.70288 0.02887 0.0
C902 C 0.05893 0.70004 0.02236 0.0
C903 C 0.06314 0.6999 0.00322 0.0
O904 O 0.09266 0.70075 0.99012 0.0
O905 O 0.07966 0.68457 0.98329 0.0
O906 O 0.06067 0.68915 0.99862 0.0
O907 O 0.07381 0.70582 0.00464 0.0
H908 H 0.07691 0.7084 0.97999 0.0
H909 H 0.07667 0.72091 0.96526 0.0
H910 H 0.09983 0.70902 0.94825 0.0
H911 H 0.1002 0.69672 0.96319 0.0
H912 H 0.11522 0.67285 0.01269 0.0
H913 H 0.1033 0.68342 0.00818 0.0
H914 H 0.08705 0.64406 0.0271 0.0
H915 H 0.07529 0.65488 0.02288 0.0
H916 H 0.05516 0.70161 0.03851 0.0
H917 H 0.0315 0.70364 0.01683 0.0
H918 H 0.04329 0.70164 0.0023 0.0
H919 H 0.0666 0.69908 0.02398 0.0
C920 C 0.77925 0.96528 0.62473 0.0
C921 C 0.7774 0.95576 0.63175 0.0
C922 C 0.79582 0.95615 0.62776 0.0
C923 C 0.78561 0.95129 0.63329 0.0
C924 C 0.79768 0.96581 0.6208 0.0
C925 C 0.78945 0.97032 0.6193 0.0
U926 U 0.74886 0.95874 0.62598 0.0
O927 O 0.73951 0.97011 0.63035 0.0
O928 O 0.7378 0.96155 0.61477 0.0
C929 C 0.73528 0.96906 0.62108 0.0
C930 C 0.77032 0.96943 0.62269 0.0
C931 C 0.73568 0.98044 0.61641 0.0
C932 C 0.74468 0.00236 0.61326 0.0
C933 C 0.74478 0.99166 0.61756 0.0
C934 C 0.7265 0.99068 0.60647 0.0
C935 C 0.73553 0.00198 0.60766 0.0
C936 C 0.72658 0.98004 0.61081 0.0
C937 C 0.72969 0.9275 0.63721 0.0
C938 C 0.71428 0.9193 0.64973 0.0
C939 C 0.7144 0.908 0.63377 0.0
C940 C 0.72457 0.91714 0.63079 0.0
C941 C 0.70917 0.90894 0.64331 0.0
C942 C 0.72443 0.92846 0.64673 0.0
C943 C 0.74073 0.93681 0.63419 0.0
O944 O 0.76348 0.96307 0.61547 0.0
O945 O 0.76522 0.97159 0.63104 0.0
O946 O 0.74442 0.94702 0.63977 0.0
O947 O 0.74278 0.93867 0.62415 0.0
H948 H 0.76954 0.95169 0.63597 0.0
H949 H 0.78394 0.944 0.63883 0.0
H950 H 0.80538 0.96967 0.61632 0.0
H951 H 0.79098 0.9776 0.61378 0.0
H952 H 0.7518 0.01091 0.61423 0.0
H953 H 0.75192 0.99215 0.62182 0.0
H954 H 0.71925 0.99009 0.60234 0.0
H955 H 0.71947 0.97147 0.60987 0.0
H956 H 0.71041 0.92034 0.65708 0.0
H957 H 0.71075 0.90005 0.62872 0.0
H958 H 0.7285 0.91602 0.6235 0.0
H959 H 0.72818 0.93625 0.65193 0.0
C960 C 0.66618 0.85645 0.37545 0.0
C961 C 0.66211 0.84366 0.37415 0.0
C962 C 0.64338 0.84206 0.37844 0.0
C963 C 0.65085 0.83654 0.37565 0.0
C964 C 0.64749 0.85492 0.37969 0.0
C965 C 0.65882 0.86206 0.3782 0.0
U966 U 0.6942 0.85673 0.36866 0.0
O967 O 0.70852 0.86929 0.35961 0.0
O968 O 0.71036 0.86579 0.37598 0.0
C969 C 0.71504 0.87213 0.36763 0.0
C970 C 0.67812 0.86375 0.37409 0.0
C971 C 0.72158 0.88529 0.36941 0.0
C972 C 0.72297 0.90607 0.37322 0.0
C973 C 0.7165 0.8936 0.37144 0.0
C974 C 0.73962 0.90198 0.37095 0.0
C975 C 0.73463 0.91039 0.37304 0.0
C976 C 0.73316 0.88956 0.36915 0.0
C977 C 0.69462 0.82513 0.36186 0.0
C978 C 0.71152 0.82199 0.35771 0.0
C979 C 0.69414 0.80446 0.36008 0.0
C980 C 0.68867 0.81239 0.36193 0.0
C981 C 0.70565 0.80918 0.35809 0.0
C982 C 0.70605 0.82991 0.35963 0.0
C983 C 0.68886 0.83325 0.36464 0.0
O984 O 0.68429 0.86144 0.38086 0.0
O985 O 0.68201 0.86425 0.36446 0.0
O986 O 0.68914 0.84116 0.35754 0.0
O987 O 0.69064 0.83807 0.37406 0.0
H988 H 0.6677 0.83917 0.37208 0.0
H989 H 0.64803 0.82667 0.37481 0.0
H990 H 0.64196 0.85948 0.38173 0.0
H991 H 0.66183 0.87194 0.37922 0.0
H992 H 0.71886 0.91228 0.37491 0.0
H993 H 0.70755 0.89044 0.3717 0.0
H994 H 0.74856 0.905 0.3706 0.0
H995 H 0.73722 0.88327 0.36757 0.0
H996 H 0.72041 0.82589 0.3563 0.0
H997 H 0.68939 0.79465 0.3603 0.0
H998 H 0.67983 0.80856 0.36362 0.0
H999 H 0.71076 0.83974 0.35959 0.0
C1000 C 0.76966 0.9932 0.0744 0.0
C1001 C 0.77802 0.99178 0.08005 0.0
C1002 C 0.77501 0.97243 0.07094 0.0
C1003 C 0.78064 0.98149 0.07838 0.0
C1004 C 0.76671 0.97399 0.06522 0.0
C1005 C 0.76406 0.98427 0.06694 0.0
U1006 U 0.77773 0.02571 0.08459 0.0
O1007 O 0.77564 0.04178 0.07823 0.0
O1008 O 0.76849 0.03477 0.09362 0.0
C1009 C 0.76954 0.04271 0.08628 0.0
C1010 C 0.7669 0.00405 0.07613 0.0
C1011 C 0.75957 0.04502 0.08407 0.0
C1012 C 0.73955 0.03862 0.08367 0.0
C1013 C 0.74887 0.03575 0.08469 0.0
C1014 C 0.75155 0.05995 0.08107 0.0
C1015 C 0.74078 0.05082 0.08205 0.0
C1016 C 0.76082 0.05708 0.08208 0.0
C1017 C 0.80629 0.04087 0.09676 0.0
C1018 C 0.81685 0.06277 0.0991 0.0
C1019 C 0.8217 0.04821 0.10852 0.0
C1020 C 0.81305 0.03853 0.10386 0.0
C1021 C 0.8238 0.06047 0.10612 0.0
C1022 C 0.80816 0.05307 0.0945 0.0
C1023 C 0.79752 0.03047 0.09168 0.0
O1024 O 0.76546 0.00673 0.08592 0.0
O1025 O 0.77296 0.01373 0.07066 0.0
O1026 O 0.79573 0.03202 0.08193 0.0
O1027 O 0.78837 0.0251 0.09726 0.0
H1028 H 0.7825 0.99861 0.08581 0.0
H1029 H 0.78696 0.98055 0.08304 0.0
H1030 H 0.76231 0.96734 0.05932 0.0
H1031 H 0.75765 0.98527 0.06243 0.0
H1032 H 0.73139 0.03137 0.08452 0.0
H1033 H 0.74771 0.02636 0.08624 0.0
H1034 H 0.75282 0.06939 0.07963 0.0
H1035 H 0.769 0.06437 0.08157 0.0
H1036 H 0.81828 0.07207 0.09698 0.0
H1037 H 0.82673 0.04608 0.11402 0.0
H1038 H 0.81169 0.02917 0.10576 0.0
H1039 H 0.803 0.05509 0.08907 0.0
C1040 C 0.8155 0.13238 0.84991 0.0
C1041 C 0.80391 0.1279 0.84949 0.0
C1042 C 0.80239 0.10825 0.85622 0.0
C1043 C 0.79741 0.11592 0.85258 0.0
C1044 C 0.81401 0.11282 0.85665 0.0
C1045 C 0.82051 0.12478 0.8535 0.0
U1046 U 0.818 0.16447 0.84379 0.0
O1047 O 0.83066 0.18257 0.84795 0.0
O1048 O 0.82741 0.17725 0.83151 0.0
C1049 C 0.83375 0.18535 0.83818 0.0
C1050 C 0.82237 0.14503 0.84682 0.0
C1051 C 0.84576 0.18992 0.83594 0.0
C1052 C 0.86219 0.18672 0.82982 0.0
C1053 C 0.85076 0.18213 0.83193 0.0
C1054 C 0.86376 0.20688 0.83588 0.0
C1055 C 0.86884 0.19915 0.83178 0.0
C1056 C 0.85233 0.2023 0.83791 0.0
C1057 C 0.79192 0.17132 0.84558 0.0
C1058 C 0.79244 0.19183 0.84324 0.0
C1059 C 0.7748 0.1745 0.84476 0.0
C1060 C 0.78033 0.16665 0.84585 0.0
C1061 C 0.78079 0.18717 0.8434 0.0
C1062 C 0.79797 0.18396 0.84428 0.0
C1063 C 0.79757 0.16289 0.84649 0.0
O1064 O 0.82038 0.14815 0.83761 0.0
O1065 O 0.82344 0.15344 0.85405 0.0
O1066 O 0.8046 0.16539 0.85409 0.0
O1067 O 0.80141 0.15998 0.83768 0.0
H1068 H 0.7999 0.13369 0.84682 0.0
H1069 H 0.78848 0.11273 0.85228 0.0
H1070 H 0.81809 0.1071 0.85932 0.0
H1071 H 0.82944 0.12811 0.85389 0.0
H1072 H 0.86579 0.18053 0.82659 0.0
H1073 H 0.84582 0.17252 0.83039 0.0
H1074 H 0.86863 0.21643 0.8377 0.0
H1075 H 0.84863 0.20843 0.84107 0.0
H1076 H 0.79728 0.20152 0.84208 0.0
H1077 H 0.76583 0.17065 0.84505 0.0
H1078 H 0.77555 0.15692 0.84686 0.0
H1079 H 0.80694 0.18769 0.84401 0.0
C1080 C 0.72588 0.83197 0.98952 0.0
C1081 C 0.72386 0.83019 0.97883 0.0
C1082 C 0.72482 0.85109 0.97752 0.0
C1083 C 0.72338 0.83967 0.97288 0.0
C1084 C 0.72671 0.85274 0.98828 0.0
C1085 C 0.72725 0.84326 0.99421 0.0
U1086 U 0.71932 0.79816 0.99347 0.0
O1087 O 0.72945 0.7889 0.99952 0.0
O1088 O 0.71378 0.78688 0.00751 0.0
C1089 C 0.72292 0.78485 0.00778 0.0
C1090 C 0.72646 0.82207 0.99584 0.0
C1091 C 0.72846 0.78754 0.01784 0.0
C1092 C 0.7399 0.80209 0.0306 0.0
C1093 C 0.73489 0.79965 0.02091 0.0
C1094 C 0.73211 0.78033 0.03426 0.0
C1095 C 0.73853 0.79246 0.03743 0.0
C1096 C 0.72713 0.77791 0.02456 0.0
C1097 C 0.70282 0.77589 0.97174 0.0
C1098 C 0.70136 0.75515 0.96762 0.0
C1099 C 0.68862 0.76278 0.96019 0.0
C1100 C 0.69379 0.77396 0.96544 0.0
C1101 C 0.69242 0.75327 0.9611 0.0
C1102 C 0.70651 0.76637 0.97291 0.0
C1103 C 0.7084 0.78806 0.97665 0.0
O1104 O 0.71693 0.81446 0.99977 0.0
O1105 O 0.73263 0.81648 0.99185 0.0
O1106 O 0.71926 0.79222 0.97711 0.0
O1107 O 0.70361 0.79025 0.98518 0.0
H1108 H 0.72272 0.82149 0.97508 0.0
H1109 H 0.72205 0.83811 0.9646 0.0
H1110 H 0.72767 0.86131 0.99215 0.0
H1111 H 0.72872 0.84475 0.00247 0.0
H1112 H 0.74487 0.81151 0.03273 0.0
H1113 H 0.73599 0.80721 0.01581 0.0
H1114 H 0.73072 0.77271 0.03936 0.0
H1115 H 0.72215 0.76851 0.02234 0.0
H1116 H 0.70454 0.74806 0.96845 0.0
H1117 H 0.68164 0.76159 0.95541 0.0
H1118 H 0.69079 0.78118 0.96448 0.0
H1119 H 0.71347 0.76766 0.97777 0.0
C1120 C 0.14862 0.26787 0.80857 0.0
C1121 C 0.14378 0.26219 0.81797 0.0
C1122 C 0.13071 0.27222 0.81803 0.0
C1123 C 0.1349 0.26434 0.82266 0.0
C1124 C 0.13576 0.27807 0.8087 0.0
C1125 C 0.14462 0.27589 0.80401 0.0
U1126 U 0.1687 0.25191 0.80813 0.0
O1127 O 0.17368 0.24207 0.7955 0.0
O1128 O 0.18618 0.25824 0.80291 0.0
C1129 C 0.18408 0.24987 0.79546 0.0
C1130 C 0.15762 0.26523 0.80335 0.0
C1131 C 0.18911 0.25428 0.78518 0.0
C1132 C 0.19058 0.26584 0.76946 0.0
C1133 C 0.18571 0.26193 0.7793 0.0
C1134 C 0.20227 0.2545 0.77134 0.0
C1135 C 0.19893 0.26216 0.76536 0.0
C1136 C 0.19741 0.25062 0.78115 0.0
C1137 C 0.16843 0.23211 0.83124 0.0
C1138 C 0.17587 0.21624 0.83097 0.0
C1139 C 0.17215 0.22454 0.84744 0.0
C1140 C 0.16846 0.23231 0.84214 0.0
C1141 C 0.17585 0.21636 0.84192 0.0
C1142 C 0.17226 0.2241 0.82567 0.0
C1143 C 0.16433 0.24027 0.82587 0.0
O1144 O 0.1672 0.26979 0.80797 0.0
O1145 O 0.15489 0.25378 0.80021 0.0
O1146 O 0.15877 0.23576 0.81738 0.0
O1147 O 0.17139 0.25171 0.82493 0.0
H1148 H 0.1468 0.25599 0.82162 0.0
H1149 H 0.1313 0.25981 0.8299 0.0
H1150 H 0.13266 0.28407 0.80486 0.0
H1151 H 0.14825 0.28033 0.79675 0.0
H1152 H 0.18788 0.27182 0.7651 0.0
H1153 H 0.1793 0.26485 0.78232 0.0
H1154 H 0.20852 0.25132 0.76838 0.0
H1155 H 0.20009 0.24466 0.78557 0.0
H1156 H 0.17877 0.21013 0.82651 0.0
H1157 H 0.1719 0.22475 0.85587 0.0
H1158 H 0.16554 0.23843 0.84657 0.0
H1159 H 0.1724 0.22388 0.81723 0.0
C1160 C 0.83419 0.20773 0.48085 0.0
C1161 C 0.84158 0.20889 0.47237 0.0
C1162 C 0.8324 0.18701 0.46841 0.0
C1163 C 0.84073 0.19863 0.46625 0.0
C1164 C 0.82495 0.18596 0.47685 0.0
C1165 C 0.82586 0.19622 0.48301 0.0
U1166 U 0.84101 0.24198 0.48441 0.0
O1167 O 0.83247 0.25169 0.49369 0.0
O1168 O 0.84967 0.25478 0.49697 0.0
C1169 C 0.84082 0.25678 0.49993 0.0
C1170 C 0.83501 0.2184 0.48747 0.0
C1171 C 0.83802 0.25548 0.51114 0.0
C1172 C 0.8293 0.24289 0.52614 0.0
C1173 C 0.83189 0.24394 0.51546 0.0
C1174 C 0.83903 0.26488 0.52831 0.0
C1175 C 0.83284 0.25335 0.53271 0.0
C1176 C 0.84158 0.26591 0.51763 0.0
C1177 C 0.85105 0.26267 0.4606 0.0
C1178 C 0.85773 0.28492 0.46158 0.0
C1179 C 0.8558 0.2746 0.44478 0.0
C1180 C 0.85198 0.26326 0.44973 0.0
C1181 C 0.85881 0.28558 0.45064 0.0
C1182 C 0.85387 0.27355 0.46652 0.0
C1183 C 0.8472 0.25064 0.46559 0.0
O1184 O 0.84509 0.22655 0.48902 0.0
O1185 O 0.82792 0.22338 0.48555 0.0
O1186 O 0.83682 0.24622 0.46896 0.0
O1187 O 0.85401 0.24923 0.47221 0.0
H1188 H 0.84805 0.21772 0.47051 0.0
H1189 H 0.8467 0.19978 0.45991 0.0
H1190 H 0.81831 0.17724 0.47865 0.0
H1191 H 0.82003 0.19516 0.48947 0.0
H1192 H 0.82442 0.23389 0.52923 0.0
H1193 H 0.82908 0.23577 0.51055 0.0
H1194 H 0.84206 0.2731 0.53314 0.0
H1195 H 0.84638 0.27488 0.51443 0.0
H1196 H 0.86006 0.2932 0.46633 0.0
H1197 H 0.85635 0.27474 0.43636 0.0
H1198 H 0.84976 0.25494 0.44504 0.0
H1199 H 0.85319 0.27324 0.47494 0.0
C1200 C 0.53487 0.89716 0.83123 0.0
C1201 C 0.53577 0.90232 0.84128 0.0
C1202 C 0.51692 0.90143 0.84063 0.0
C1203 C 0.52685 0.90442 0.84595 0.0
C1204 C 0.51612 0.89631 0.83053 0.0
C1205 C 0.52502 0.8942 0.82588 0.0
U1206 U 0.5647 0.89933 0.83068 0.0
O1207 O 0.57151 0.88575 0.82567 0.0
O1208 O 0.57683 0.90331 0.81756 0.0
C1209 C 0.5771 0.89234 0.81773 0.0
C1210 C 0.5441 0.89481 0.82621 0.0
C1211 C 0.57584 0.88588 0.8076 0.0
C1212 C 0.56518 0.86974 0.79554 0.0
C1213 C 0.56595 0.87605 0.80504 0.0
C1214 C 0.58402 0.88325 0.79093 0.0
C1215 C 0.57423 0.87325 0.7884 0.0
C1216 C 0.58482 0.88947 0.80045 0.0
C1217 C 0.58418 0.9146 0.85251 0.0
C1218 C 0.60292 0.91524 0.8517 0.0
C1219 C 0.59694 0.92485 0.86623 0.0
C1220 C 0.58647 0.92121 0.86193 0.0
C1221 C 0.6053 0.92191 0.86116 0.0
C1222 C 0.59246 0.91163 0.84742 0.0
C1223 C 0.5732 0.91086 0.84799 0.0
O1224 O 0.55254 0.9046 0.82301 0.0
O1225 O 0.54709 0.88695 0.83095 0.0
O1226 O 0.56748 0.89895 0.84741 0.0
O1227 O 0.57295 0.91657 0.83943 0.0
H1228 H 0.54335 0.90471 0.84549 0.0
H1229 H 0.52778 0.90849 0.85369 0.0
H1230 H 0.50855 0.89374 0.82628 0.0
H1231 H 0.5242 0.89019 0.81812 0.0
H1232 H 0.55749 0.86216 0.79376 0.0
H1233 H 0.55887 0.87317 0.81041 0.0
H1234 H 0.59118 0.88608 0.78566 0.0
H1235 H 0.59252 0.89703 0.80229 0.0
H1236 H 0.60921 0.91298 0.84752 0.0
H1237 H 0.59846 0.92985 0.87357 0.0
H1238 H 0.58015 0.92355 0.86597 0.0
H1239 H 0.59083 0.90655 0.8401 0.0
C1240 C 0.97905 0.13081 0.27082 0.0
C1241 C 0.9678 0.12641 0.26838 0.0
C1242 C 0.97255 0.13717 0.25186 0.0
C1243 C 0.96458 0.12953 0.25897 0.0
C1244 C 0.98382 0.14151 0.25435 0.0
C1245 C 0.98703 0.13835 0.26374 0.0
U1246 U 0.97142 0.11834 0.29807 0.0
O1247 O 0.97703 0.10652 0.30723 0.0
O1248 O 0.97945 0.12497 0.31303 0.0
C1249 C 0.98123 0.11496 0.31448 0.0
C1250 C 0.98245 0.12786 0.28084 0.0
C1251 C 0.99235 0.11678 0.31792 0.0
C1252 C 0.01223 0.12316 0.31491 0.0
C1253 C 1.00177 0.12159 0.31132 0.0
C1254 C 0.00389 0.11515 0.33168 0.0
C1255 C 0.01341 0.11998 0.32516 0.0
C1256 C 0.99349 0.11359 0.32809 0.0
C1257 C 0.94072 0.10706 0.30648 0.0
C1258 C 0.9335 0.09799 0.3233 0.0
C1259 C 0.92141 0.10193 0.31139 0.0
C1260 C 0.93023 0.10662 0.30418 0.0
C1261 C 0.92292 0.09757 0.32106 0.0
C1262 C 0.94233 0.10271 0.31607 0.0
C1263 C 0.94989 0.11226 0.29883 0.0
O1264 O 0.98139 0.13454 0.28882 0.0
O1265 O 0.97885 0.1161 0.28293 0.0
O1266 O 0.95454 0.10483 0.29533 0.0
O1267 O 0.9571 0.12335 0.30103 0.0
H1268 H 0.96151 0.12066 0.27379 0.0
H1269 H 0.95584 0.12616 0.25737 0.0
H1270 H 0.99017 0.14731 0.249 0.0
H1271 H 0.99575 0.14184 0.26551 0.0
H1272 H 0.01939 0.12699 0.30971 0.0
H1273 H 1.00104 0.12413 0.30344 0.0
H1274 H 0.00442 0.11239 0.33954 0.0
H1275 H 0.9863 0.10981 0.33328 0.0
H1276 H 0.93493 0.09461 0.33062 0.0
H1277 H 0.91345 0.10196 0.30947 0.0
H1278 H 0.92886 0.11 0.29683 0.0
H1279 H 0.95041 0.10299 0.31796 0.0
C1280 C 0.65787 0.27606 0.65168 0.0
C1281 C 0.65492 0.2707 0.64179 0.0
C1282 C 0.63936 0.27708 0.64186 0.0
C1283 C 0.64576 0.27123 0.63691 0.0
C1284 C 0.64259 0.28275 0.65164 0.0
C1285 C 0.65176 0.28224 0.6565 0.0
U1286 U 0.67855 0.26111 0.65418 0.0
O1287 O 0.69521 0.26795 0.66077 0.0
O1288 O 0.68177 0.25191 0.66749 0.0
C1289 C 0.69207 0.25981 0.66822 0.0
C1290 C 0.66665 0.27433 0.6574 0.0
C1291 C 0.69548 0.26438 0.67879 0.0
C1292 C 0.69264 0.27355 0.69521 0.0
C1293 C 0.69009 0.27063 0.68473 0.0
C1294 C 0.70627 0.26445 0.69372 0.0
C1295 C 0.70055 0.27018 0.69989 0.0
C1296 C 0.70373 0.26155 0.68328 0.0
C1297 C 0.68139 0.23902 0.63364 0.0
C1298 C 0.68755 0.22272 0.63737 0.0
C1299 C 0.6883 0.22951 0.61963 0.0
C1300 C 0.68398 0.2381 0.62305 0.0
C1301 C 0.68997 0.22161 0.62674 0.0
C1302 C 0.68338 0.23141 0.6408 0.0
C1303 C 0.67655 0.24785 0.63715 0.0
O1304 O 0.66386 0.26326 0.66111 0.0
O1305 O 0.67662 0.2787 0.653 0.0
O1306 O 0.68355 0.25936 0.63783 0.0
O1307 O 0.66955 0.24437 0.64515 0.0
H1308 H 0.65954 0.26584 0.63797 0.0
H1309 H 0.6436 0.2669 0.62932 0.0
H1310 H 0.63777 0.28715 0.65576 0.0
H1311 H 0.65387 0.28633 0.66418 0.0
H1312 H 0.68807 0.27793 0.69977 0.0
H1313 H 0.68368 0.27288 0.68135 0.0
H1314 H 0.71256 0.26195 0.69703 0.0
H1315 H 0.708 0.25678 0.67878 0.0
H1316 H 0.68888 0.21685 0.64302 0.0
H1317 H 0.69003 0.22879 0.61139 0.0
H1318 H 0.68256 0.24394 0.61743 0.0
H1319 H 0.6816 0.23207 0.64904 0.0
C1320 C 0.09454 0.17481 0.01217 0.0
C1321 C 0.09069 0.16834 0.00285 0.0
C1322 C 0.10737 0.16408 1.00088 0.0
C1323 C 0.09703 0.16298 0.99727 0.0
C1324 C 0.11112 0.17043 0.01031 0.0
C1325 C 0.10474 0.17574 0.01591 0.0
U1326 U 0.0728 0.18828 0.01182 0.0
O1327 O 0.06029 0.18874 0.02357 0.0
O1328 O 0.07299 0.20594 0.01768 0.0
C1329 C 0.06474 0.20078 0.02438 0.0
C1330 C 0.08832 0.18126 0.01764 0.0
C1331 C 0.06627 0.20595 0.03502 0.0
C1332 C 0.07802 0.21645 0.04939 0.0
C1333 C 0.07672 0.21075 0.03956 0.0
C1334 C 0.0584 0.21225 0.05038 0.0
C1335 C 0.06888 0.21736 0.05486 0.0
C1336 C 0.05712 0.20662 0.04055 0.0
C1337 C 0.05758 0.18653 0.987 0.0
C1338 C 0.04464 0.19654 0.98624 0.0
C1339 C 0.05018 0.18853 0.97045 0.0
C1340 C 0.05685 0.18443 0.97623 0.0
C1341 C 0.04414 0.19483 0.97536 0.0
C1342 C 0.05132 0.19244 0.992 0.0
C1343 C 0.0655 0.18338 0.99282 0.0
O1344 O 0.0904 0.19229 0.01417 0.0
O1345 O 0.07769 0.17474 0.01931 0.0
O1346 O 0.06126 0.17581 1.00059 0.0
O1347 O 0.07457 0.19281 0.99522 0.0
H1348 H 0.08289 0.16767 0.99977 0.0
H1349 H 0.09399 0.1583 0.98997 0.0
H1350 H 0.119 0.17134 0.01333 0.0
H1351 H 0.10785 0.18075 0.02307 0.0
H1352 H 0.08617 0.22019 0.05269 0.0
H1353 H 0.08389 0.21026 0.03544 0.0
H1354 H 0.05122 0.21292 0.05432 0.0
H1355 H 0.049 0.20301 0.03716 0.0
H1356 H 0.04 0.20122 0.99027 0.0
H1357 H 0.05012 0.18722 0.96207 0.0
H1358 H 0.0617 0.17996 0.97224 0.0
H1359 H 0.05182 0.19416 1.00033 0.0
C1360 C 0.42552 0.788 0.54544 0.0
C1361 C 0.43242 0.78149 0.54424 0.0
C1362 C 0.42707 0.77322 0.56168 0.0
C1363 C 0.43319 0.77416 0.55228 0.0
C1364 C 0.42024 0.77987 0.56285 0.0
C1365 C 0.41947 0.78718 0.55479 0.0
U1366 U 0.43415 0.80143 0.51849 0.0
O1367 O 0.42421 0.80307 0.50568 0.0
O1368 O 0.43678 0.81966 0.5125 0.0
C1369 C 0.42861 0.81514 0.50599 0.0
C1370 C 0.4245 0.79552 0.53694 0.0
C1371 C 0.42075 0.82123 0.50606 0.0
C1372 C 0.40356 0.82283 0.51203 0.0
C1373 C 0.41116 0.81723 0.5125 0.0
C1374 C 0.41521 0.83666 0.49889 0.0
C1375 C 0.40547 0.83257 0.50517 0.0
C1376 C 0.42276 0.83103 0.49934 0.0
C1377 C 0.4563 0.7941 0.50301 0.0
C1378 C 0.4617 0.80068 0.48518 0.0
C1379 C 0.46971 0.78806 0.49348 0.0
C1380 C 0.46352 0.78797 0.50258 0.0
C1381 C 0.46878 0.79429 0.48462 0.0
C1382 C 0.45549 0.80056 0.4943 0.0
C1383 C 0.44939 0.79327 0.51245 0.0
O1384 O 0.4332 0.80571 0.53519 0.0
O1385 O 0.42033 0.78941 0.52836 0.0
O1386 O 0.43873 0.78693 0.51137 0.0
O1387 O 0.4516 0.80355 0.51777 0.0
H1388 H 0.43719 0.78207 0.53706 0.0
H1389 H 0.43863 0.7693 0.55117 0.0
H1390 H 0.41532 0.77924 0.56993 0.0
H1391 H 0.41408 0.79212 0.55583 0.0
H1392 H 0.3962 0.81955 0.51704 0.0
H1393 H 0.4095 0.8097 0.5178 0.0
H1394 H 0.41687 0.84401 0.49342 0.0
H1395 H 0.43011 0.83421 0.4943 0.0
H1396 H 0.46071 0.80545 0.47846 0.0
H1397 H 0.47519 0.78319 0.49336 0.0
H1398 H 0.46426 0.78296 0.50925 0.0
H1399 H 0.44992 0.80532 0.4945 0.0
C1400 C 0.73304 0.53912 0.90358 0.0
C1401 C 0.73635 0.55123 0.90742 0.0
C1402 C 0.71844 0.55146 0.90336 0.0
C1403 C 0.7291 0.5573 0.90736 0.0
C1404 C 0.71513 0.53934 0.89954 0.0
C1405 C 0.72235 0.53322 0.89969 0.0
U1406 U 0.76117 0.53893 0.89614 0.0
O1407 O 0.77252 0.53298 0.90442 0.0
O1408 O 0.7662 0.52456 0.88928 0.0
C1409 C 0.77213 0.52462 0.89733 0.0
C1410 C 0.74074 0.53273 0.90322 0.0
C1411 C 0.77111 0.51257 0.90111 0.0
C1412 C 0.76607 0.497 0.91449 0.0
C1413 C 0.76573 0.50781 0.91063 0.0
C1414 C 0.77682 0.4954 0.89922 0.0
C1415 C 0.77178 0.49077 0.9089 0.0
C1416 C 0.77648 0.50617 0.89538 0.0
C1417 C 0.78222 0.56731 0.8828 0.0
C1418 C 0.80206 0.57243 0.88178 0.0
C1419 C 0.79398 0.58293 0.87088 0.0
C1420 C 0.78349 0.57598 0.87514 0.0
C1421 C 0.80343 0.58136 0.87425 0.0
C1422 C 0.79155 0.56543 0.88599 0.0
C1423 C 0.77117 0.56044 0.88745 0.0
O1424 O 0.7432 0.52958 0.89386 0.0
O1425 O 0.7494 0.53736 0.90918 0.0
O1426 O 0.77081 0.55878 0.89756 0.0
O1427 O 0.76495 0.55057 0.88227 0.0
H1428 H 0.74458 0.5561 0.91036 0.0
H1429 H 0.73195 0.56669 0.91024 0.0
H1430 H 0.70694 0.53457 0.89648 0.0
H1431 H 0.71961 0.5239 0.89667 0.0
H1432 H 0.76199 0.49361 0.92191 0.0
H1433 H 0.7615 0.51258 0.91518 0.0
H1434 H 0.78143 0.49099 0.89476 0.0
H1435 H 0.78075 0.50973 0.88806 0.0
H1436 H 0.80915 0.57106 0.88464 0.0
H1437 H 0.79467 0.58955 0.86496 0.0
H1438 H 0.77636 0.57747 0.87252 0.0
H1439 H 0.79073 0.5587 0.89185 0.0
C1440 C 0.79584 0.60096 0.16325 0.0
C1441 C 0.78793 0.6003 0.15594 0.0
C1442 C 0.77989 0.57801 0.15706 0.0
C1443 C 0.78005 0.58891 0.15283 0.0
C1444 C 0.78769 0.57875 0.16455 0.0
C1445 C 0.79562 0.59014 0.16758 0.0
U1446 U 0.80645 0.63574 0.16688 0.0
O1447 O 0.8169 0.64769 0.17911 0.0
O1448 O 0.82248 0.6502 0.16269 0.0
C1449 C 0.82496 0.6535 0.17242 0.0
C1450 C 0.80448 0.61282 0.16628 0.0
C1451 C 0.83621 0.6552 0.17528 0.0
C1452 C 0.85265 0.65073 0.17243 0.0
C1453 C 0.84136 0.64768 0.17102 0.0
C1454 C 0.85353 0.66833 0.18301 0.0
C1455 C 0.85894 0.66132 0.17818 0.0
C1456 C 0.84227 0.66531 0.18154 0.0
C1457 C 0.78993 0.65411 0.16075 0.0
C1458 C 0.79955 0.67629 0.16041 0.0
C1459 C 0.77955 0.66702 0.15944 0.0
C1460 C 0.77981 0.65534 0.15998 0.0
C1461 C 0.78942 0.67764 0.15967 0.0
C1462 C 0.7998 0.66465 0.16099 0.0
C1463 C 0.79031 0.64191 0.16146 0.0
O1464 O 0.80899 0.62053 0.15864 0.0
O1465 O 0.80222 0.61807 0.17469 0.0
O1466 O 0.79114 0.63853 0.17095 0.0
O1467 O 0.79714 0.63982 0.15469 0.0
H1468 H 0.7879 0.60858 0.15257 0.0
H1469 H 0.77406 0.58864 0.14715 0.0
H1470 H 0.78784 0.57051 0.16787 0.0
H1471 H 0.80166 0.59048 0.17324 0.0
H1472 H 0.85655 0.64518 0.16853 0.0
H1473 H 0.8368 0.6398 0.16618 0.0
H1474 H 0.85809 0.67641 0.18764 0.0
H1475 H 0.83841 0.67118 0.18493 0.0
H1476 H 0.80732 0.68423 0.16047 0.0
H1477 H 0.77159 0.66772 0.15904 0.0
H1478 H 0.77212 0.6473 0.15985 0.0
H1479 H 0.8077 0.66386 0.16162 0.0
C1480 C 0.75961 0.50245 0.39707 0.0
C1481 C 0.75142 0.50316 0.39068 0.0
C1482 C 0.75158 0.52132 0.40021 0.0
C1483 C 0.74752 0.51252 0.39218 0.0
C1484 C 0.75988 0.52066 0.40653 0.0
C1485 C 0.76386 0.51134 0.40495 0.0
U1486 U 0.7525 0.46851 0.39329 0.0
O1487 O 0.75961 0.45814 0.38299 0.0
O1488 O 0.75903 0.45586 0.39995 0.0
C1489 C 0.76225 0.45297 0.3908 0.0
C1490 C 0.76336 0.4922 0.39589 0.0
C1491 C 0.77325 0.45237 0.39007 0.0
C1492 C 0.79249 0.45917 0.395 0.0
C1493 C 0.78233 0.46053 0.39556 0.0
C1494 C 0.78459 0.44165 0.38339 0.0
C1495 C 0.79372 0.44967 0.38892 0.0
C1496 C 0.77449 0.44299 0.38397 0.0
C1497 C 0.72186 0.44784 0.39131 0.0
C1498 C 0.71541 0.42667 0.38515 0.0
C1499 C 0.70227 0.43481 0.39225 0.0
C1500 C 0.71094 0.44614 0.39402 0.0
C1501 C 0.70439 0.42498 0.3877 0.0
C1502 C 0.72409 0.438 0.38698 0.0
C1503 C 0.7308 0.45996 0.39284 0.0
O1504 O 0.76058 0.48446 0.40366 0.0
O1505 O 0.76193 0.48672 0.3867 0.0
O1506 O 0.7373 0.46441 0.38464 0.0
O1507 O 0.73624 0.46145 0.40149 0.0
H1508 H 0.74792 0.4964 0.38456 0.0
H1509 H 0.74128 0.51282 0.38704 0.0
H1510 H 0.76312 0.52716 0.41287 0.0
H1511 H 0.77012 0.51093 0.41002 0.0
H1512 H 0.79939 0.46557 0.39928 0.0
H1513 H 0.78155 0.46786 0.40031 0.0
H1514 H 0.78517 0.43412 0.37877 0.0
H1515 H 0.76756 0.43656 0.37973 0.0
H1516 H 0.71732 0.41924 0.38174 0.0
H1517 H 0.69387 0.43385 0.39418 0.0
H1518 H 0.70908 0.45364 0.39737 0.0
H1519 H 0.73251 0.43914 0.3849 0.0
C1520 C 0.66489 0.34437 0.65479 0.0
C1521 C 0.66082 0.33578 0.66281 0.0
C1522 C 0.6421 0.32913 0.65635 0.0
C1523 C 0.64954 0.3283 0.66362 0.0
C1524 C 0.64623 0.33782 0.64837 0.0
C1525 C 0.65751 0.34538 0.64763 0.0
U1526 U 0.69431 0.34639 0.65485 0.0
O1527 O 0.70856 0.35522 0.64419 0.0
O1528 O 0.70971 0.36048 0.66076 0.0
C1529 C 0.71454 0.3626 0.65147 0.0
C1530 C 0.67687 0.35176 0.65344 0.0
C1531 C 0.72027 0.37557 0.64868 0.0
C1532 C 0.72057 0.39432 0.64117 0.0
C1533 C 0.71474 0.38208 0.64405 0.0
C1534 C 0.73741 0.39366 0.6477 0.0
C1535 C 0.73201 0.40022 0.64288 0.0
C1536 C 0.73159 0.38146 0.65055 0.0
C1537 C 0.69914 0.31775 0.66072 0.0
C1538 C 0.71755 0.31768 0.65855 0.0
C1539 C 0.70237 0.29962 0.66502 0.0
C1540 C 0.69518 0.3057 0.66436 0.0
C1541 C 0.71361 0.30547 0.66198 0.0
C1542 C 0.71038 0.32375 0.65793 0.0
C1543 C 0.6915 0.32393 0.6596 0.0
O1544 O 0.68272 0.35388 0.6619 0.0
O1545 O 0.68164 0.34865 0.64533 0.0
O1546 O 0.69085 0.32732 0.65008 0.0
O1547 O 0.69229 0.33246 0.66665 0.0
H1548 H 0.66635 0.33472 0.6684 0.0
H1549 H 0.64666 0.32187 0.66996 0.0
H1550 H 0.64081 0.33859 0.64252 0.0
H1551 H 0.6605 0.35186 0.64132 0.0
H1552 H 0.71618 0.39908 0.63741 0.0
H1553 H 0.70597 0.37766 0.64257 0.0
H1554 H 0.74615 0.39797 0.64932 0.0
H1555 H 0.73598 0.37659 0.65418 0.0
H1556 H 0.7262 0.32257 0.65637 0.0
H1557 H 0.69905 0.29027 0.66771 0.0
H1558 H 0.68652 0.30096 0.66657 0.0
H1559 H 0.71358 0.33311 0.65518 0.0
C1560 C 0.47557 0.1082 0.19411 0.0
C1561 C 0.46613 0.11104 0.19457 0.0
C1562 C 0.4674 0.11363 0.21342 0.0
C1563 C 0.46211 0.11377 0.20412 0.0
C1564 C 0.47686 0.11076 0.21291 0.0
C1565 C 0.4809 0.10806 0.20333 0.0
U1566 U 0.4703 0.09972 0.16588 0.0
O1567 O 0.48075 0.10552 0.15168 0.0
O1568 O 0.47349 0.08604 0.15582 0.0
C1569 C 0.48024 0.0944 0.1495 0.0
C1570 C 0.47959 0.10505 0.18406 0.0
C1571 C 0.4909 0.09345 0.14695 0.0
C1572 C 0.50989 0.09714 0.15104 0.0
C1573 C 0.49971 0.09779 0.15383 0.0
C1574 C 0.50247 0.08763 0.13456 0.0
C1575 C 0.5114 0.09209 0.14135 0.0
C1576 C 0.49233 0.08832 0.13734 0.0
C1577 C 0.44173 0.09744 0.15692 0.0
C1578 C 0.43224 0.08735 0.14128 0.0
C1579 C 0.42456 0.09905 0.15243 0.0
C1580 C 0.43347 0.10197 0.15903 0.0
C1581 C 0.42371 0.09151 0.14359 0.0
C1582 C 0.44119 0.09028 0.14791 0.0
C1583 C 0.4504 0.09979 0.16458 0.0
O1584 O 0.4741 0.09373 0.18079 0.0
O1585 O 0.48148 0.11321 0.17672 0.0
O1586 O 0.45952 0.10962 0.16311 0.0
O1587 O 0.45222 0.09018 0.16741 0.0
H1588 H 0.46187 0.11114 0.18753 0.0
H1589 H 0.45492 0.11612 0.20418 0.0
H1590 H 0.48105 0.11041 0.21992 0.0
H1591 H 0.48814 0.10578 0.20312 0.0
H1592 H 0.51656 0.10053 0.1565 0.0
H1593 H 0.49874 0.10175 0.16131 0.0
H1594 H 0.50337 0.08385 0.12698 0.0
H1595 H 0.48562 0.08496 0.13192 0.0
H1596 H 0.4318 0.08147 0.13456 0.0
H1597 H 0.41823 0.10257 0.15433 0.0
H1598 H 0.43379 0.10755 0.16593 0.0
H1599 H 0.44752 0.08673 0.14616 0.0
C1600 C 0.01657 0.87587 0.70483 0.0
C1601 C 0.0178 0.87981 0.6945 0.0
C1602 C 0.99855 0.87769 0.69471 0.0
C1603 C 0.00887 0.8807 0.68947 0.0
C1604 C 0.99739 0.87373 0.70508 0.0
C1605 C 0.00632 0.87283 0.71009 0.0
U1606 U 0.04707 0.88146 0.70551 0.0
O1607 O 0.05883 0.88797 0.71829 0.0
O1608 O 0.05539 0.86991 0.71096 0.0
C1609 C 0.06035 0.87765 0.71848 0.0
C1610 C 0.02594 0.87504 0.71021 0.0
C1611 C 0.05981 0.87237 0.72884 0.0
C1612 C 0.05108 0.85638 0.7416 0.0
C1613 C 0.05092 0.86162 0.732 0.0
C1614 C 0.06877 0.8728 0.74513 0.0
C1615 C 0.06006 0.86186 0.74823 0.0
C1616 C 0.06864 0.87797 0.73553 0.0
C1617 C 0.06642 0.8964 0.68276 0.0
C1618 C 0.08544 0.89792 0.68228 0.0
C1619 C 0.07924 0.90778 0.66904 0.0
C1620 C 0.06866 0.90349 0.67376 0.0
C1621 C 0.08774 0.90501 0.67322 0.0
C1622 C 0.07487 0.89368 0.68702 0.0
C1623 C 0.05529 0.89191 0.68767 0.0
O1624 O 0.03005 0.86747 0.70591 0.0
O1625 O 0.03359 0.8856 0.71306 0.0
O1626 O 0.05423 0.89807 0.69601 0.0
O1627 O 0.05052 0.87995 0.68879 0.0
H1628 H 0.02567 0.8822 0.69032 0.0
H1629 H 0.01003 0.88363 0.68145 0.0
H1630 H 0.98962 0.87151 0.7094 0.0
H1631 H 0.00525 0.86983 0.71809 0.0
H1632 H 0.04419 0.84802 0.74382 0.0
H1633 H 0.04397 0.85718 0.72699 0.0
H1634 H 0.07587 0.87716 0.74999 0.0
H1635 H 0.07558 0.88625 0.73322 0.0
H1636 H 0.09184 0.89577 0.68578 0.0
H1637 H 0.08072 0.91311 0.66201 0.0
H1638 H 0.06222 0.90567 0.67038 0.0
H1639 H 0.07329 0.88828 0.69402 0.0
C1640 C 0.36784 0.73748 0.3534 0.0
C1641 C 0.36951 0.7398 0.3641 0.0
C1642 C 0.3852 0.7336 0.36302 0.0
C1643 C 0.37808 0.73784 0.36887 0.0
C1644 C 0.38331 0.73107 0.35232 0.0
C1645 C 0.37471 0.73298 0.34757 0.0
U1646 U 0.34683 0.75235 0.35323 0.0
O1647 O 0.34334 0.76302 0.34115 0.0
O1648 O 0.33028 0.74587 0.34652 0.0
C1649 C 0.33327 0.75477 0.33975 0.0
C1650 C 0.35933 0.74023 0.34814 0.0
C1651 C 0.33049 0.75104 0.32887 0.0
C1652 C 0.33568 0.74596 0.31159 0.0
C1653 C 0.33781 0.74808 0.3222 0.0
C1654 C 0.31854 0.74896 0.31431 0.0
C1655 C 0.32617 0.74671 0.30747 0.0
C1656 C 0.32071 0.75115 0.32492 0.0
C1657 C 0.34246 0.76966 0.37722 0.0
C1658 C 0.33422 0.78481 0.377 0.0
C1659 C 0.33609 0.77618 0.39335 0.0
C1660 C 0.34089 0.76895 0.38805 0.0
C1661 C 0.33284 0.78434 0.38791 0.0
C1662 C 0.33895 0.7775 0.37169 0.0
C1663 C 0.34786 0.76227 0.37185 0.0
O1664 O 0.34918 0.73496 0.352 0.0
O1665 O 0.3621 0.75187 0.34599 0.0
O1666 O 0.35475 0.76767 0.36412 0.0
O1667 O 0.34134 0.75084 0.36973 0.0
H1668 H 0.36427 0.74329 0.36872 0.0
H1669 H 0.37918 0.73973 0.37714 0.0
H1670 H 0.38871 0.728 0.34752 0.0
H1671 H 0.37357 0.7312 0.33929 0.0
H1672 H 0.34161 0.744 0.30656 0.0
H1673 H 0.34533 0.74778 0.32515 0.0
H1674 H 0.31114 0.74961 0.31141 0.0
H1675 H 0.31493 0.75333 0.32998 0.0
H1676 H 0.3319 0.79105 0.37257 0.0
H1677 H 0.33494 0.77537 0.40172 0.0
H1678 H 0.34344 0.76286 0.39242 0.0
H1679 H 0.34001 0.77811 0.3633 0.0
C1680 C 0.90039 0.7916 0.99847 0.0
C1681 C 0.89982 0.79363 0.00924 0.0
C1682 C 0.88684 0.80343 0.00678 0.0
C1683 C 0.8931 0.79946 0.01336 0.0
C1684 C 0.88758 0.8015 0.99596 0.0
C1685 C 0.89429 0.79563 0.99186 0.0
U1686 U 0.92183 0.77791 0.00189 0.0
O1687 O 0.92206 0.76017 0.99657 0.0
O1688 O 0.93538 0.7774 0.99157 0.0
C1689 C 0.93105 0.76536 0.99072 0.0
C1690 C 0.90712 0.78504 0.99413 0.0
C1691 C 0.9308 0.76015 0.98016 0.0
C1692 C 0.92822 0.76021 0.96152 0.0
C1693 C 0.92798 0.7652 0.9715 0.0
C1694 C 0.93392 0.74502 0.96881 0.0
C1695 C 0.93127 0.7501 0.96005 0.0
C1696 C 0.9337 0.75001 0.97874 0.0
C1697 C 0.93467 0.78035 0.02849 0.0
C1698 C 0.9427 0.76663 0.03493 0.0
C1699 C 0.94624 0.78614 0.04364 0.0
C1700 C 0.93981 0.7888 0.03642 0.0
C1701 C 0.94758 0.7749 0.04313 0.0
C1702 C 0.93634 0.76934 0.02766 0.0
C1703 C 0.92733 0.783 0.0214 0.0
O1704 O 0.91785 0.79154 0.99341 0.0
O1705 O 0.90463 0.77403 0.99788 0.0
O1706 O 0.91855 0.77349 0.01847 0.0
O1707 O 0.93229 0.79051 0.01376 0.0
H1708 H 0.90447 0.79056 0.01448 0.0
H1709 H 0.89264 0.80061 0.02173 0.0
H1710 H 0.88302 0.80459 0.99065 0.0
H1711 H 0.89465 0.79417 0.98352 0.0
H1712 H 0.9262 0.76441 0.95494 0.0
H1713 H 0.9257 0.77303 0.97244 0.0
H1714 H 0.93607 0.73709 0.96801 0.0
H1715 H 0.93585 0.74596 0.98534 0.0
H1716 H 0.94345 0.75784 0.03434 0.0
H1717 H 0.95005 0.79284 0.04971 0.0
H1718 H 0.93871 0.7974 0.03712 0.0
H1719 H 0.93251 0.76271 0.02154 0.0
C1720 C 0.59191 0.20509 0.47394 0.0
C1721 C 0.58457 0.2111 0.47419 0.0
C1722 C 0.59205 0.22038 0.45742 0.0
C1723 C 0.58464 0.21867 0.466 0.0
C1724 C 0.59941 0.21435 0.45726 0.0
C1725 C 0.59934 0.20677 0.46546 0.0
U1726 U 0.58122 0.19148 0.50052 0.0
O1727 O 0.57688 0.17273 0.50626 0.0
O1728 O 0.58994 0.18839 0.5137 0.0
C1729 C 0.58474 0.17639 0.51312 0.0
C1730 C 0.59188 0.19709 0.48249 0.0
C1731 C 0.5917 0.16922 0.5135 0.0
C1732 C 0.60942 0.16729 0.51104 0.0
C1733 C 0.60272 0.17386 0.50969 0.0
C1734 C 0.59402 0.15116 0.51958 0.0
C1735 C 0.6052 0.15596 0.51618 0.0
C1736 C 0.58737 0.15774 0.51828 0.0
C1737 C 0.56018 0.20036 0.51582 0.0
C1738 C 0.55192 0.19035 0.53207 0.0
C1739 C 0.55069 0.20954 0.5277 0.0
C1740 C 0.55651 0.20976 0.51832 0.0
C1741 C 0.54842 0.1999 0.53475 0.0
C1742 C 0.55779 0.19061 0.52272 0.0
C1743 C 0.56704 0.20121 0.50635 0.0
O1744 O 0.59593 0.20281 0.49124 0.0
O1745 O 0.58262 0.18739 0.48386 0.0
O1746 O 0.56433 0.19113 0.50064 0.0
O1747 O 0.57776 0.20674 0.50765 0.0
H1748 H 0.57877 0.20989 0.4807 0.0
H1749 H 0.57876 0.22304 0.46632 0.0
H1750 H 0.60533 0.21559 0.45085 0.0
H1751 H 0.60509 0.20224 0.46517 0.0
H1752 H 0.61801 0.17131 0.50839 0.0
H1753 H 0.60624 0.18269 0.50593 0.0
H1754 H 0.59044 0.14236 0.52339 0.0
H1755 H 0.57886 0.15398 0.52121 0.0
H1756 H 0.5502 0.18271 0.53724 0.0
H1757 H 0.54829 0.21715 0.52957 0.0
H1758 H 0.55837 0.21741 0.51313 0.0
H1759 H 0.56061 0.18329 0.52094 0.0
C1760 C 0.27779 0.46084 0.11832 0.0
C1761 C 0.27553 0.44833 0.11666 0.0
C1762 C 0.29425 0.45158 0.12154 0.0
C1763 C 0.28369 0.44378 0.11817 0.0
C1764 C 0.29648 0.46413 0.1232 0.0
C1765 C 0.28831 0.46871 0.12159 0.0
U1766 U 0.24744 0.45445 0.11915 0.0
O1767 O 0.23791 0.46512 0.12495 0.0
O1768 O 0.23683 0.459 0.10857 0.0
C1769 C 0.23405 0.46551 0.11572 0.0
C1770 C 0.26901 0.46548 0.11706 0.0
C1771 C 0.23446 0.47749 0.11236 0.0
C1772 C 0.24224 0.49983 0.11283 0.0
C1773 C 0.24247 0.48866 0.11589 0.0
C1774 C 0.22614 0.48876 0.10254 0.0
C1775 C 0.23405 0.49999 0.10612 0.0
C1776 C 0.22635 0.47765 0.10564 0.0
C1777 C 0.22795 0.42161 0.12683 0.0
C1778 C 0.21387 0.40921 0.13929 0.0
C1779 C 0.21115 0.40513 0.12083 0.0
C1780 C 0.22137 0.41468 0.11868 0.0
C1781 C 0.2073 0.40225 0.13116 0.0
C1782 C 0.22409 0.41873 0.13715 0.0
C1783 C 0.23905 0.43135 0.12471 0.0
O1784 O 0.26252 0.46072 0.10917 0.0
O1785 O 0.26354 0.46611 0.12569 0.0
O1786 O 0.24237 0.44057 0.13142 0.0
O1787 O 0.24157 0.43483 0.115 0.0
H1788 H 0.26743 0.44205 0.11422 0.0
H1789 H 0.28171 0.43412 0.11662 0.0
H1790 H 0.30446 0.47037 0.12591 0.0
H1791 H 0.29016 0.47836 0.12302 0.0
H1792 H 0.24849 0.50833 0.11565 0.0
H1793 H 0.24885 0.48876 0.12105 0.0
H1794 H 0.21962 0.48855 0.09751 0.0
H1795 H 0.22006 0.46914 0.10287 0.0
H1796 H 0.2111 0.40736 0.14734 0.0
H1797 H 0.20637 0.39985 0.11439 0.0
H1798 H 0.22415 0.41652 0.11063 0.0
H1799 H 0.22901 0.42379 0.14361 0.0
C1800 C 0.20848 0.40972 0.87071 0.0
C1801 C 0.21938 0.41092 0.87236 0.0
C1802 C 0.22508 0.43291 0.87541 0.0
C1803 C 0.22758 0.42239 0.87472 0.0
C1804 C 0.21417 0.43168 0.8736 0.0
C1805 C 0.20593 0.42016 0.87129 0.0
U1806 U 0.20116 0.37676 0.86264 0.0
O1807 O 0.1886 0.3595 0.86856 0.0
O1808 O 0.18863 0.36428 0.85216 0.0
C1809 C 0.18362 0.35648 0.85961 0.0
C1810 C 0.19985 0.39759 0.86833 0.0
C1811 C 0.17146 0.35183 0.86012 0.0
C1812 C 0.15421 0.35348 0.86575 0.0
C1813 C 0.16582 0.35855 0.86494 0.0
C1814 C 0.15387 0.33506 0.85681 0.0
C1815 C 0.1481 0.34163 0.86175 0.0
C1816 C 0.16542 0.34013 0.856 0.0
C1817 C 0.2249 0.36642 0.85732 0.0
C1818 C 0.22145 0.34504 0.85357 0.0
C1819 C 0.2403 0.36017 0.85429 0.0
C1820 C 0.23631 0.36934 0.85649 0.0
C1821 C 0.23292 0.34788 0.8529 0.0
C1822 C 0.21747 0.35424 0.85576 0.0
C1823 C 0.22084 0.37605 0.8601 0.0
O1824 O 0.19967 0.39399 0.85855 0.0
O1825 O 0.19896 0.38894 0.87494 0.0
O1826 O 0.21558 0.37473 0.86917 0.0
O1827 O 0.21583 0.37913 0.85267 0.0
H1828 H 0.22153 0.40297 0.87184 0.0
H1829 H 0.23592 0.42305 0.87592 0.0
H1830 H 0.21196 0.43959 0.87415 0.0
H1831 H 0.19757 0.4194 0.87001 0.0
H1832 H 0.15003 0.35883 0.86952 0.0
H1833 H 0.17038 0.36763 0.86815 0.0
H1834 H 0.14948 0.32585 0.8538 0.0
H1835 H 0.16966 0.33478 0.85231 0.0
H1836 H 0.21555 0.3357 0.85242 0.0
H1837 H 0.24918 0.36264 0.85397 0.0
H1838 H 0.24215 0.37871 0.85771 0.0
H1839 H 0.20861 0.35184 0.85634 0.0
C1840 C 0.26662 0.49708 0.5891 0.0
C1841 C 0.27554 0.49592 0.594 0.0
C1842 C 0.27297 0.47737 0.58383 0.0
C1843 C 0.27864 0.48615 0.59144 0.0
C1844 C 0.26396 0.47853 0.579 0.0
C1845 C 0.26083 0.4883 0.58162 0.0
U1846 U 0.27521 0.52931 0.59971 0.0
O1847 O 0.27282 0.54551 0.59408 0.0
O1848 O 0.2667 0.53843 0.6097 0.0
C1849 C 0.26728 0.54643 0.60256 0.0
C1850 C 0.26373 0.50774 0.59144 0.0
C1851 C 0.25718 0.54875 0.60109 0.0
C1852 C 0.23713 0.54221 0.60124 0.0
C1853 C 0.24653 0.5394 0.60182 0.0
C1854 C 0.24894 0.56366 0.5989 0.0
C1855 C 0.23823 0.55443 0.59994 0.0
C1856 C 0.2583 0.56084 0.59948 0.0
C1857 C 0.30492 0.54402 0.6096 0.0
C1858 C 0.31245 0.56331 0.61929 0.0
C1859 C 0.32465 0.55372 0.61255 0.0
C1860 C 0.31559 0.54411 0.60838 0.0
C1861 C 0.3232 0.56345 0.61804 0.0
C1862 C 0.30337 0.55368 0.61507 0.0
C1863 C 0.29558 0.5338 0.60506 0.0
O1864 O 0.26304 0.51033 0.6014 0.0
O1865 O 0.26925 0.5175 0.58585 0.0
O1866 O 0.29299 0.53559 0.59564 0.0
O1867 O 0.28688 0.52856 0.61126 0.0
H1868 H 0.28017 0.50265 0.59976 0.0
H1869 H 0.2855 0.48547 0.59544 0.0
H1870 H 0.25949 0.47205 0.57301 0.0
H1871 H 0.25398 0.48911 0.57768 0.0
H1872 H 0.22901 0.53489 0.60212 0.0
H1873 H 0.24548 0.52999 0.60305 0.0
H1874 H 0.25011 0.57311 0.5977 0.0
H1875 H 0.26644 0.56819 0.59886 0.0
H1876 H 0.31108 0.57073 0.62339 0.0
H1877 H 0.3328 0.55348 0.61156 0.0
H1878 H 0.31692 0.53671 0.6042 0.0
H1879 H 0.29518 0.5538 0.61603 0.0
C1880 C 0.36671 0.67207 0.34125 0.0
C1881 C 0.37093 0.68217 0.33458 0.0
C1882 C 0.3893 0.68809 0.34171 0.0
C1883 C 0.38212 0.69004 0.33476 0.0
C1884 C 0.38501 0.67792 0.34835 0.0
C1885 C 0.37384 0.66998 0.3481 0.0
U1886 U 0.33693 0.66851 0.33942 0.0
O1887 O 0.32246 0.65427 0.33219 0.0
O1888 O 0.32211 0.65821 0.34897 0.0
C1889 C 0.31698 0.65115 0.34113 0.0
C1890 C 0.35481 0.66411 0.34157 0.0
C1891 C 0.31186 0.63792 0.3432 0.0
C1892 C 0.31264 0.61918 0.34968 0.0
C1893 C 0.31787 0.63171 0.34746 0.0
C1894 C 0.29544 0.61897 0.34325 0.0
C1895 C 0.30134 0.61268 0.34763 0.0
C1896 C 0.30065 0.63147 0.34107 0.0
C1897 C 0.33151 0.69725 0.33465 0.0
C1898 C 0.31301 0.69649 0.33201 0.0
C1899 C 0.32804 0.71593 0.33576 0.0
C1900 C 0.33535 0.70999 0.33616 0.0
C1901 C 0.31679 0.70923 0.33378 0.0
C1902 C 0.32031 0.69053 0.33251 0.0
C1903 C 0.33914 0.69108 0.33587 0.0
O1904 O 0.34915 0.66617 0.34952 0.0
O1905 O 0.34969 0.66254 0.3327 0.0
O1906 O 0.33919 0.68327 0.32842 0.0
O1907 O 0.33912 0.68692 0.34525 0.0
H1908 H 0.36557 0.68405 0.3293 0.0
H1909 H 0.38513 0.69767 0.32944 0.0
H1910 H 0.39021 0.67624 0.35395 0.0
H1911 H 0.37071 0.66233 0.3534 0.0
H1912 H 0.31745 0.61458 0.35295 0.0
H1913 H 0.32656 0.63656 0.34912 0.0
H1914 H 0.2867 0.61431 0.34172 0.0
H1915 H 0.29589 0.63614 0.33781 0.0
H1916 H 0.30436 0.69111 0.33054 0.0
H1917 H 0.33118 0.72576 0.33703 0.0
H1918 H 0.34397 0.71529 0.33779 0.0
H1919 H 0.31719 0.68066 0.33141 0.0
H1920 H 0.10379 0.32831 0.17737 0.0
H1921 H 0.09248 0.30585 0.14998 0.0
H1922 H 0.06955 0.30383 0.17539 0.0
C1923 C 0.09718 0.32128 0.1732 0.0
C1924 C 0.08645 0.31646 0.17766 0.0
C1925 C 0.0994 0.31757 0.16321 0.0
C1926 C 0.09076 0.30874 0.15768 0.0
C1927 C 0.07997 0.3037 0.16212 0.0
C1928 C 0.07787 0.30772 0.17202 0.0
N1929 N 0.07103 0.29461 0.15689 0.0
C1930 C 0.07224 0.28839 0.14791 0.0
H1931 H 0.77378 0.74703 0.38498 0.0
H1932 H 0.77635 0.73541 0.35331 0.0
H1933 H 0.79195 0.72434 0.37764 0.0
C1934 C 0.77692 0.74217 0.3793 0.0
C1935 C 0.78324 0.73579 0.38262 0.0
C1936 C 0.7743 0.74199 0.36876 0.0
C1937 C 0.77825 0.73549 0.36145 0.0
C1938 C 0.78465 0.72914 0.36468 0.0
C1939 C 0.78695 0.7292 0.37524 0.0
N1940 N 0.78892 0.72256 0.3576 0.0
C1941 C 0.78964 0.72392 0.34685 0.0
H1942 H 0.41308 0.67584 0.63469 0.0
H1943 H 0.42226 0.6663 0.66397 0.0
H1944 H 0.43861 0.70302 0.65242 0.0
C1945 C 0.4183 0.67838 0.64143 0.0
C1946 C 0.42606 0.69048 0.64254 0.0
C1947 C 0.41684 0.66962 0.64911 0.0
C1948 C 0.42334 0.67303 0.65803 0.0
C1949 C 0.43126 0.68512 0.65919 0.0
C1950 C 0.43248 0.69375 0.65148 0.0
N1951 N 0.43815 0.68904 0.66795 0.0
C1952 C 0.43884 0.68148 0.67576 0.0
H1953 H 0.72349 0.26101 0.80814 0.0
H1954 H 0.71872 0.2695 0.84017 0.0
H1955 H 0.70633 0.28465 0.81594 0.0
C1956 C 0.72013 0.26555 0.81391 0.0
C1957 C 0.71459 0.27282 0.81067 0.0
C1958 C 0.72161 0.26426 0.82451 0.0
C1959 C 0.71764 0.27053 0.83199 0.0
C1960 C 0.71215 0.27795 0.82888 0.0
C1961 C 0.71072 0.27909 0.81825 0.0
N1962 N 0.70785 0.28427 0.83621 0.0
C1963 C 0.70727 0.28252 0.84691 0.0
H1964 H 0.23565 0.76027 0.31669 0.0
H1965 H 0.23168 0.76417 0.34979 0.0
H1966 H 0.21241 0.77499 0.32884 0.0
C1967 C 0.23154 0.76276 0.32328 0.0
C1968 C 0.22349 0.76747 0.32149 0.0
C1969 C 0.23449 0.76137 0.33343 0.0
C1970 C 0.2295 0.76522 0.34193 0.0
C1971 C 0.22161 0.77029 0.34023 0.0
C1972 C 0.21869 0.77137 0.33004 0.0
N1973 N 0.21634 0.77431 0.34852 0.0
C1974 C 0.21709 0.77233 0.35903 0.0
H1975 H 0.60635 0.83085 0.69295 0.0
H1976 H 0.59961 0.80621 0.66652 0.0
H1977 H 0.57478 0.80062 0.69086 0.0
C1978 C 0.60086 0.82273 0.68888 0.0
C1979 C 0.59024 0.8161 0.69313 0.0
C1980 C 0.60431 0.81927 0.67928 0.0
C1981 C 0.59697 0.80897 0.67389 0.0
C1982 C 0.58629 0.8022 0.67809 0.0
C1983 C 0.58299 0.80588 0.68764 0.0
N1984 N 0.57866 0.79165 0.67298 0.0
C1985 C 0.58096 0.78676 0.66367 0.0
H1986 H 0.28627 0.26636 0.8692 0.0
H1987 H 0.2906 0.26096 0.83639 0.0
H1988 H 0.30614 0.24661 0.85845 0.0
C1989 C 0.28963 0.26246 0.86291 0.0
C1990 C 0.29643 0.25623 0.86517 0.0
C1991 C 0.28745 0.26417 0.85256 0.0
C1992 C 0.29224 0.25964 0.84436 0.0
C1993 C 0.299 0.25328 0.84653 0.0
C1994 C 0.30101 0.25162 0.85689 0.0
N1995 N 0.30393 0.24838 0.83856 0.0
C1996 C 0.30281 0.24928 0.82794 0.0
H1997 H 0.91207 0.17439 0.1213 0.0
H1998 H 0.92602 0.16337 0.14701 0.0
H1999 H 0.94396 0.19816 0.13246 0.0
C2000 C 0.91864 0.17639 0.12681 0.0
C2001 C 0.92801 0.18743 0.12601 0.0
C2002 C 0.91785 0.16765 0.13432 0.0
C2003 C 0.92658 0.17007 0.14121 0.0
C2004 C 0.936 0.18114 0.14054 0.0
C2005 C 0.93669 0.18966 0.1329 0.0
N2006 N 0.94505 0.18405 0.14729 0.0
C2007 C 0.94502 0.17778 0.15631 0.0
H2008 H 0.15524 0.12556 0.38781 0.0
H2009 H 0.12551 0.12841 0.37751 0.0
H2010 H 0.13027 0.09471 0.37277 0.0
C2011 C 0.14731 0.12145 0.3841 0.0
C2012 C 0.14365 0.10927 0.38039 0.0
C2013 C 0.14081 0.1284 0.38317 0.0
C2014 C 0.13054 0.1231 0.37828 0.0
C2015 C 0.12684 0.11097 0.37439 0.0
C2016 C 0.13336 0.10414 0.37557 0.0
N2017 N 0.11657 0.10516 0.36936 0.0
C2018 C 0.1098 0.11094 0.36622 0.0
H2019 H 0.20219 0.96637 0.63293 0.0
H2020 H 0.19377 0.93381 0.61368 0.0
H2021 H 0.22612 0.96261 0.61081 0.0
C2022 C 0.20442 0.96119 0.62683 0.0
C2023 C 0.21513 0.96598 0.62228 0.0
C2024 C 0.19664 0.94958 0.6238 0.0
C2025 C 0.19972 0.9427 0.61613 0.0
C2026 C 0.21041 0.94742 0.6115 0.0
C2027 C 0.21798 0.959 0.61458 0.0
N2028 N 0.21392 0.94094 0.60366 0.0
C2029 C 0.20753 0.92934 0.59976 0.0
H2030 H 0.41422 0.89038 0.89479 0.0
H2031 H 0.39016 0.90623 0.90101 0.0
H2032 H 0.41956 0.92576 0.88252 0.0
C2033 C 0.41151 0.89785 0.89388 0.0
C2034 C 0.41815 0.90813 0.88807 0.0
C2035 C 0.40145 0.89711 0.89859 0.0
C2036 C 0.39792 0.90678 0.89738 0.0
C2037 C 0.40443 0.91708 0.89144 0.0
C2038 C 0.41451 0.9177 0.88691 0.0
N2039 N 0.40125 0.92707 0.88993 0.0
C2040 C 0.39082 0.92702 0.89233 0.0
H2041 H 0.31764 0.02949 0.09802 0.0
H2042 H 0.32448 0.05827 0.07582 0.0
H2043 H 0.2947 0.02561 0.07378 0.0
C2044 C 0.31518 0.03319 0.09138 0.0
C2045 C 0.30522 0.02618 0.08651 0.0
C2046 C 0.3222 0.04474 0.08757 0.0
C2047 C 0.31913 0.04936 0.07878 0.0
C2048 C 0.30917 0.04241 0.07382 0.0
C2049 C 0.30239 0.03083 0.07762 0.0
N2050 N 0.30574 0.0467 0.06494 0.0
C2051 C 0.3092 0.059 0.06241 0.0
H2052 H 0.03805 0.75346 0.1199 0.0
H2053 H 0.00511 0.75108 0.12718 0.0
H2054 H 0.03246 0.77636 0.1442 0.0
C2055 C 0.03256 0.75653 0.12455 0.0
C2056 C 0.03687 0.76569 0.13225 0.0
C2057 C 0.02119 0.75144 0.12255 0.0
C2058 C 0.01388 0.755 0.12872 0.0
C2059 C 0.018 0.76376 0.13677 0.0
C2060 C 0.02944 0.76924 0.13829 0.0
N2061 N 0.01098 0.76756 0.14335 0.0
C2062 C 0.99957 0.7613 0.14443 0.0
H2063 H 0.32299 0.85941 0.4599 0.0
H2064 H 0.30901 0.88382 0.44858 0.0
H2065 H 0.32842 0.89336 0.47625 0.0
C2066 C 0.3215 0.86777 0.46088 0.0
C2067 C 0.3264 0.87594 0.46906 0.0
C2068 C 0.31527 0.87057 0.4535 0.0
C2069 C 0.31373 0.88164 0.45437 0.0
C2070 C 0.31836 0.88983 0.46272 0.0
C2071 C 0.32475 0.88696 0.46994 0.0
N2072 N 0.31694 0.90108 0.46408 0.0
C2073 C 0.31071 0.90511 0.45774 0.0
H2074 H 0.48606 0.24134 0.5971 0.0
H2075 H 0.51977 0.26558 0.60296 0.0
H2076 H 0.4975 0.24772 0.62838 0.0
C2077 C 0.49272 0.24566 0.60248 0.0
C2078 C 0.49068 0.24334 0.61312 0.0
C2079 C 0.50314 0.25376 0.59875 0.0
C2080 C 0.51172 0.2593 0.60578 0.0
C2081 C 0.50972 0.25694 0.61652 0.0
C2082 C 0.49911 0.24927 0.62012 0.0
N2083 N 0.51808 0.26232 0.62391 0.0
C2084 C 0.52923 0.26481 0.6219 0.0
H2085 H 0.17621 0.14076 0.92016 0.0
H2086 H 0.18675 0.11478 0.90389 0.0
H2087 H 0.1687 0.10526 0.93318 0.0
C2088 C 0.17693 0.13195 0.91985 0.0
C2089 C 0.172 0.12351 0.92781 0.0
C2090 C 0.18217 0.12886 0.91115 0.0
C2091 C 0.18279 0.11725 0.91061 0.0
C2092 C 0.17801 0.10878 0.91866 0.0
C2093 C 0.17248 0.11189 0.92708 0.0
N2094 N 0.17824 0.0969 0.91843 0.0
C2095 C 0.18614 0.09372 0.91307 0.0
H2096 H 0.8185 0.35656 0.94983 0.0
H2097 H 0.80762 0.38451 0.94056 0.0
H2098 H 0.82727 0.38995 0.96785 0.0
C2099 C 0.8179 0.36534 0.95134 0.0
C2100 C 0.82345 0.37263 0.95976 0.0
C2101 C 0.81226 0.36958 0.94438 0.0
C2102 C 0.81188 0.3812 0.94601 0.0
C2103 C 0.81715 0.38849 0.95465 0.0
C2104 C 0.82303 0.38421 0.96136 0.0
N2105 N 0.81696 0.40024 0.95676 0.0
C2106 C 0.8108 0.40536 0.95143 0.0
H2107 H 0.9641 0.71946 0.13108 0.0
H2108 H 0.99877 0.72687 0.12712 0.0
H2109 H 0.9795 0.70292 0.15141 0.0
C2110 C 0.97139 0.71827 0.13364 0.0
C2111 C 0.97048 0.71057 0.14204 0.0
C2112 C 0.98154 0.72425 0.12828 0.0
C2113 C 0.99094 0.72238 0.13128 0.0
C2114 C 0.99012 0.7146 0.13964 0.0
C2115 C 0.97992 0.70871 0.14488 0.0
N2116 N 0.99929 0.71225 0.14293 0.0
C2117 C 0.01027 0.72032 0.14174 0.0
H2118 H 0.69148 0.65341 0.43589 0.0
H2119 H 0.70466 0.62866 0.42126 0.0
H2120 H 0.68525 0.61868 0.4498 0.0
C2121 C 0.69272 0.64488 0.43592 0.0
C2122 C 0.68772 0.63647 0.44389 0.0
C2123 C 0.69881 0.64217 0.42771 0.0
C2124 C 0.7 0.63084 0.42757 0.0
C2125 C 0.69514 0.62239 0.43563 0.0
C2126 C 0.68899 0.62525 0.44365 0.0
N2127 N 0.6961 0.61087 0.43603 0.0
C2128 C 0.70238 0.60665 0.42927 0.0
H2129 H 0.91866 0.39083 0.38914 0.0
H2130 H 0.89222 0.40371 0.39166 0.0
H2131 H 0.92013 0.42137 0.3709 0.0
C2132 C 0.91516 0.39732 0.38698 0.0
C2133 C 0.92071 0.40622 0.3795 0.0
C2134 C 0.9049 0.39635 0.39143 0.0
C2135 C 0.90011 0.4044 0.38825 0.0
C2136 C 0.90567 0.41348 0.38085 0.0
C2137 C 0.9159 0.41431 0.37655 0.0
N2138 N 0.90136 0.42204 0.37753 0.0
C2139 C 0.89103 0.42202 0.38038 0.0
H2140 H 0.66011 0.63592 0.90772 0.0
H2141 H 0.63264 0.64158 0.89492 0.0
H2142 H 0.6387 0.60941 0.88632 0.0
C2143 C 0.6529 0.63274 0.90289 0.0
C2144 C 0.65021 0.62172 0.89718 0.0
C2145 C 0.6466 0.63995 0.90219 0.0
C2146 C 0.63755 0.63611 0.8955 0.0
C2147 C 0.63476 0.62508 0.88973 0.0
C2148 C 0.64107 0.61798 0.89066 0.0
N2149 N 0.62567 0.62066 0.88294 0.0
C2150 C 0.61857 0.62645 0.88087 0.0
H2151 H 0.90999 0.67359 0.86748 0.0
H2152 H 0.92282 0.65765 0.8425 0.0
H2153 H 0.94496 0.68827 0.86022 0.0
C2154 C 0.91694 0.67363 0.86264 0.0
C2155 C 0.92764 0.68214 0.86476 0.0
C2156 C 0.91513 0.66478 0.85465 0.0
C2157 C 0.9242 0.66449 0.84865 0.0
C2158 C 0.93499 0.67305 0.85064 0.0
C2159 C 0.93664 0.68172 0.85874 0.0
N2160 N 0.94442 0.67321 0.84474 0.0
C2161 C 0.94403 0.66642 0.83565 0.0
H2162 H 0.25681 0.27159 0.66528 0.0
H2163 H 0.26064 0.28438 0.63376 0.0
H2164 H 0.24148 0.29583 0.65626 0.0
C2165 C 0.25536 0.2772 0.65946 0.0
C2166 C 0.24867 0.28372 0.66208 0.0
C2167 C 0.25975 0.27738 0.64927 0.0
C2168 C 0.25727 0.28413 0.64161 0.0
C2169 C 0.25064 0.29076 0.64416 0.0
C2170 C 0.24651 0.29061 0.65437 0.0
N2171 N 0.248 0.29775 0.63669 0.0
C2172 C 0.249 0.29641 0.62597 0.0
H2173 H 0.60558 0.33771 0.34435 0.0
H2174 H 0.60064 0.31322 0.36986 0.0
H2175 H 0.57506 0.30596 0.34759 0.0
C2176 C 0.60048 0.32939 0.3484 0.0
C2177 C 0.58989 0.32221 0.34476 0.0
C2178 C 0.60441 0.32623 0.35744 0.0
C2179 C 0.59762 0.3157 0.3629 0.0
C2180 C 0.58701 0.30836 0.35932 0.0
C2181 C 0.5832 0.31172 0.35033 0.0
N2182 N 0.57992 0.29755 0.36452 0.0
C2183 C 0.58304 0.2924 0.3728 0.0
H2184 H 0.31265 0.77068 0.15629 0.0
H2185 H 0.30899 0.75909 0.18809 0.0
H2186 H 0.32796 0.74671 0.16599 0.0
C2187 C 0.31458 0.76572 0.16237 0.0
C2188 C 0.321 0.75889 0.15989 0.0
C2189 C 0.31023 0.76586 0.17249 0.0
C2190 C 0.31235 0.75903 0.18028 0.0
C2191 C 0.3188 0.75212 0.17792 0.0
C2192 C 0.32297 0.752 0.16773 0.0
N2193 N 0.3212 0.74512 0.18555 0.0
C2194 C 0.31974 0.74635 0.19623 0.0
H2195 H 0.7948 0.25652 0.6854 0.0
H2196 H 0.80065 0.25314 0.6525 0.0
H2197 H 0.82194 0.24727 0.67449 0.0
C2198 C 0.79945 0.25443 0.67903 0.0
C2199 C 0.80859 0.25165 0.68124 0.0
C2200 C 0.79646 0.25497 0.66871 0.0
C2201 C 0.8029 0.25282 0.66048 0.0
C2202 C 0.81214 0.25009 0.6626 0.0
C2203 C 0.8149 0.24953 0.67294 0.0
N2204 N 0.81888 0.24781 0.65459 0.0
C2205 C 0.8173 0.24798 0.64397 0.0
H2206 H 0.40522 0.15291 0.34878 0.0
H2207 H 0.41263 0.14412 0.31748 0.0
H2208 H 0.43199 0.17932 0.33111 0.0
C2209 C 0.41038 0.15539 0.34175 0.0
C2210 C 0.41897 0.16706 0.34107 0.0
C2211 C 0.408 0.1471 0.33329 0.0
C2212 C 0.41447 0.15047 0.32405 0.0
C2213 C 0.42321 0.16211 0.32331 0.0
C2214 C 0.42527 0.17037 0.33176 0.0
N2215 N 0.43001 0.16595 0.31418 0.0
C2216 C 0.43112 0.15812 0.30637 0.0
H2217 H 0.76681 0.78272 0.18498 0.0
H2218 H 0.76965 0.79363 0.15303 0.0
H2219 H 0.7552 0.81032 0.17611 0.0
C2220 C 0.76576 0.78855 0.17911 0.0
C2221 C 0.76065 0.79668 0.18188 0.0
C2222 C 0.76896 0.78736 0.16871 0.0
C2223 C 0.76713 0.79452 0.16103 0.0
C2224 C 0.76222 0.80288 0.16371 0.0
C2225 C 0.75902 0.8039 0.17411 0.0
N2226 N 0.76033 0.81036 0.15618 0.0
C2227 C 0.76157 0.80905 0.14548 0.0
H2228 H 0.10283 0.8299 0.83979 0.0
H2229 H 0.09745 0.80592 0.86578 0.0
H2230 H 0.07199 0.79866 0.84338 0.0
C2231 C 0.09763 0.82172 0.84397 0.0
C2232 C 0.08699 0.81464 0.84041 0.0
C2233 C 0.10144 0.81868 0.85313 0.0
C2234 C 0.09452 0.80831 0.85874 0.0
C2235 C 0.08388 0.80105 0.85517 0.0
C2236 C 0.08018 0.80432 0.84608 0.0
N2237 N 0.07664 0.7904 0.86047 0.0
C2238 C 0.07933 0.78575 0.8693 0.0
H2239 H 0.86488 0.88473 0.62805 0.0
H2240 H 0.89504 0.88331 0.6387 0.0
H2241 H 0.88653 0.91394 0.6473 0.0
C2242 C 0.87231 0.8887 0.63255 0.0
C2243 C 0.87472 0.90004 0.63768 0.0
C2244 C 0.87958 0.8826 0.63287 0.0
C2245 C 0.88943 0.888 0.63839 0.0
C2246 C 0.89193 0.89935 0.6436 0.0
C2247 C 0.88458 0.90528 0.64316 0.0
N2248 N 0.9017 0.90512 0.64937 0.0
C2249 C 0.90935 0.90001 0.65122 0.0
H2250 H 0.83866 0.08825 0.39873 0.0
H2251 H 0.81937 0.05104 0.38901 0.0
H2252 H 0.80574 0.06929 0.41145 0.0
C2253 C 0.83108 0.08006 0.39919 0.0
C2254 C 0.82238 0.08003 0.40587 0.0
C2255 C 0.83013 0.06964 0.39311 0.0
C2256 C 0.82018 0.0591 0.39366 0.0
C2257 C 0.81139 0.05899 0.40035 0.0
C2258 C 0.81259 0.06942 0.4064 0.0
N2259 N 0.80118 0.04866 0.40126 0.0
C2260 C 0.79859 0.03738 0.39621 0.0
H2261 H 0.62027 0.1162 0.09517 0.0
H2262 H 0.64497 0.10232 0.08554 0.0
H2263 H 0.61575 0.07938 0.10274 0.0
C2264 C 0.6233 0.1089 0.09507 0.0
C2265 C 0.61681 0.09767 0.09972 0.0
C2266 C 0.63345 0.11068 0.08994 0.0
C2267 C 0.63716 0.101 0.08947 0.0
C2268 C 0.63074 0.08968 0.09413 0.0
C2269 C 0.6206 0.08809 0.09914 0.0
N2270 N 0.63409 0.07962 0.09394 0.0
C2271 C 0.64441 0.08002 0.09053 0.0
H2272 H 0.72011 0.98511 0.88634 0.0
H2273 H 0.71867 0.95362 0.90335 0.0
H2274 H 0.74983 0.98386 0.89824 0.0
C2275 C 0.72417 0.98044 0.8907 0.0
C2276 C 0.73569 0.98598 0.89188 0.0
C2277 C 0.71794 0.96871 0.89474 0.0
C2278 C 0.72339 0.9626 0.90015 0.0
C2279 C 0.73492 0.96811 0.90139 0.0
C2280 C 0.74097 0.97967 0.89717 0.0
N2281 N 0.74082 0.96233 0.90672 0.0
C2282 C 0.73602 0.95197 0.91283 0.0
H2283 H 0.97747 0.26771 0.85536 0.0
H2284 H 0.01321 0.28114 0.85329 0.0
H2285 H 0.99348 0.25804 0.82905 0.0
C2286 C 0.98507 0.26861 0.85119 0.0
C2287 C 0.98432 0.2623 0.8417 0.0
C2288 C 0.99544 0.27549 0.85555 0.0
C2289 C 0.00515 0.27584 0.85017 0.0
C2290 C 0.0044 0.26954 0.84058 0.0
C2291 C 0.99401 0.26285 0.83644 0.0
N2292 N 0.01385 0.26989 0.83464 0.0
C2293 C 0.02441 0.27296 0.83839 0.0
H2294 H 0.68262 0.12794 0.56838 0.0
H2295 H 0.70845 0.11491 0.5727 0.0
H2296 H 0.68756 0.10264 0.54614 0.0
C2297 C 0.68689 0.12208 0.56589 0.0
C2298 C 0.68387 0.11515 0.55667 0.0
C2299 C 0.69579 0.12213 0.57163 0.0
C2300 C 0.70153 0.11481 0.5683 0.0
C2301 C 0.69843 0.10761 0.55914 0.0
C2302 C 0.6898 0.10806 0.55325 0.0
N2303 N 0.70395 0.10002 0.55552 0.0
C2304 C 0.70927 0.09496 0.56199 0.0
H2305 H 0.53297 0.7537 0.41309 0.0
H2306 H 0.5003 0.73333 0.40176 0.0
H2307 H 0.52505 0.75955 0.38203 0.0
C2308 C 0.52706 0.75168 0.40693 0.0
C2309 C 0.53035 0.75773 0.39741 0.0
C2310 C 0.51628 0.74286 0.40853 0.0
C2311 C 0.50861 0.74021 0.40056 0.0
C2312 C 0.51176 0.74636 0.39101 0.0
C2313 C 0.52263 0.75498 0.38946 0.0
N2314 N 0.50424 0.74406 0.38279 0.0
C2315 C 0.49283 0.74018 0.38433 0.0
H2316 H 0.81624 0.82559 0.07545 0.0
H2317 H 0.78895 0.83259 0.08935 0.0
H2318 H 0.8049 0.85077 0.06109 0.0
C2319 C 0.81076 0.83047 0.07556 0.0
C2320 C 0.81162 0.83851 0.06744 0.0
C2321 C 0.80264 0.82823 0.08353 0.0
C2322 C 0.79526 0.83417 0.08326 0.0
C2323 C 0.79617 0.8425 0.07537 0.0
C2324 C 0.80433 0.84461 0.06737 0.0
N2325 N 0.78846 0.84822 0.07563 0.0
C2326 C 0.7903 0.85955 0.07137 0.0
H2327 H 0.17858 0.6287 0.07787 0.0
H2328 H 0.2036 0.61428 0.08133 0.0
H2329 H 0.18273 0.60391 0.05464 0.0
C2330 C 0.18262 0.62272 0.07508 0.0
C2331 C 0.17945 0.61623 0.06567 0.0
C2332 C 0.19135 0.62215 0.08068 0.0
C2333 C 0.19681 0.61467 0.07702 0.0
C2334 C 0.19357 0.60791 0.06765 0.0
C2335 C 0.18509 0.60898 0.06191 0.0
N2336 N 0.19878 0.60016 0.06366 0.0
C2337 C 0.20409 0.59475 0.06979 0.0
H2338 H 0.03604 0.26658 0.89731 0.0
H2339 H 1.0025 0.24541 0.88853 0.0
H2340 H 0.02582 0.26914 0.86633 0.0
C2341 C 0.0296 0.26422 0.89162 0.0
C2342 C 0.03223 0.2692 0.88161 0.0
C2343 C 0.01895 0.25553 0.89414 0.0
C2344 C 0.01072 0.25213 0.88665 0.0
C2345 C 0.01322 0.2571 0.87661 0.0
C2346 C 0.02399 0.26541 0.87411 0.0
N2347 N 0.0052 0.25369 0.86877 0.0
C2348 C 0.9939 0.25016 0.8708 0.0
H2349 H 0.32286 0.33825 0.54824 0.0
H2350 H 0.30869 0.36403 0.55819 0.0
H2351 H 0.3248 0.3674 0.52799 0.0
C2352 C 0.32089 0.34608 0.54659 0.0
C2353 C 0.32452 0.35222 0.53712 0.0
C2354 C 0.3151 0.35019 0.55419 0.0
C2355 C 0.31311 0.3608 0.55235 0.0
C2356 C 0.31662 0.367 0.54284 0.0
C2357 C 0.32223 0.36262 0.53531 0.0
N2358 N 0.31462 0.37759 0.54044 0.0
C2359 C 0.31027 0.38394 0.5473 0.0
H2360 H 0.11779 0.62002 0.61316 0.0
H2361 H 0.14244 0.60574 0.6043 0.0
H2362 H 0.11393 0.58414 0.62302 0.0
C2363 C 0.12092 0.61282 0.61349 0.0
C2364 C 0.11469 0.60202 0.61886 0.0
C2365 C 0.13093 0.61428 0.60822 0.0
C2366 C 0.13472 0.60468 0.60831 0.0
C2367 C 0.12854 0.59377 0.61367 0.0
C2368 C 0.11857 0.59252 0.61884 0.0
N2369 N 0.13199 0.58381 0.61406 0.0
C2370 C 0.14214 0.58396 0.61037 0.0
H2371 H 0.36441 0.38154 0.11812 0.0
H2372 H 0.39463 0.37988 0.12854 0.0
H2373 H 0.38488 0.40896 0.13936 0.0
C2374 C 0.37179 0.38526 0.12271 0.0
C2375 C 0.37374 0.39592 0.12872 0.0
C2376 C 0.37933 0.37945 0.12246 0.0
C2377 C 0.38874 0.38424 0.12868 0.0
C2378 C 0.39072 0.3949 0.1348 0.0
C2379 C 0.38329 0.40074 0.13465 0.0
N2380 N 0.40013 0.40018 0.14112 0.0
C2381 C 0.40739 0.39468 0.14338 0.0
H2382 H 0.69061 0.45874 0.13105 0.0
H2383 H 0.68423 0.42707 0.11106 0.0
H2384 H 0.71625 0.45685 0.11016 0.0
C2385 C 0.69341 0.45386 0.1251 0.0
C2386 C 0.70429 0.45923 0.12104 0.0
C2387 C 0.68609 0.44229 0.12153 0.0
C2388 C 0.68984 0.43596 0.11387 0.0
C2389 C 0.70074 0.44129 0.10973 0.0
C2390 C 0.70784 0.45287 0.11333 0.0
N2391 N 0.70492 0.43538 0.10193 0.0
C2392 C 0.69902 0.42391 0.09753 0.0
H2393 H 0.81435 0.52507 0.62435 0.0
H2394 H 0.81928 0.55952 0.61035 0.0
H2395 H 0.78758 0.5294 0.60897 0.0
C2396 C 0.81123 0.53064 0.61992 0.0
C2397 C 0.80015 0.52569 0.6169 0.0
C2398 C 0.8182 0.54285 0.61764 0.0
C2399 C 0.81395 0.55014 0.6122 0.0
C2400 C 0.80287 0.54525 0.60909 0.0
C2401 C 0.79607 0.53311 0.61149 0.0
N2402 N 0.79819 0.55217 0.60353 0.0
C2403 C 0.8039 0.56411 0.60015 0.0
H2404 H 0.53429 0.23868 0.63439 0.0
H2405 H 0.49886 0.2277 0.63578 0.0
H2406 H 0.51943 0.25529 0.65697 0.0
C2407 C 0.52692 0.23926 0.63801 0.0
C2408 C 0.52807 0.24774 0.64613 0.0
C2409 C 0.51646 0.2321 0.63409 0.0
C2410 C 0.50697 0.23328 0.63864 0.0
C2411 C 0.50806 0.2416 0.647 0.0
C2412 C 0.51861 0.2488 0.65062 0.0
N2413 N 0.49885 0.243 0.65214 0.0
C2414 C 0.48816 0.23904 0.64846 0.0
H2415 H 0.34191 0.5995 0.9109 0.0
H2416 H 0.32519 0.5609 0.90393 0.0
H2417 H 0.31473 0.5769 0.93049 0.0
C2418 C 0.33536 0.59066 0.91258 0.0
C2419 C 0.32833 0.58953 0.92132 0.0
C2420 C 0.33439 0.58039 0.9063 0.0
C2421 C 0.32603 0.56888 0.90871 0.0
C2422 C 0.31891 0.56767 0.91744 0.0
C2423 C 0.32024 0.57794 0.92377 0.0
N2424 N 0.31056 0.55624 0.92036 0.0
C2425 C 0.30504 0.54673 0.91347 0.0
H2426 H 0.22346 0.4862 0.37181 0.0
H2427 H 0.22192 0.45384 0.38748 0.0
H2428 H 0.25276 0.48512 0.38488 0.0
C2429 C 0.22746 0.48142 0.37612 0.0
C2430 C 0.23885 0.48719 0.37795 0.0
C2431 C 0.22126 0.46937 0.3795 0.0
C2432 C 0.22663 0.46307 0.38476 0.0
C2433 C 0.23803 0.46878 0.38666 0.0
C2434 C 0.24402 0.48076 0.38324 0.0
N2435 N 0.24383 0.46291 0.39202 0.0
C2436 C 0.2392 0.45111 0.396 0.0
H2437 H 0.49212 0.76849 0.38267 0.0
H2438 H 0.52738 0.78902 0.38056 0.0
H2439 H 0.50966 0.7704 0.35349 0.0
C2440 C 0.49985 0.77163 0.37816 0.0
C2441 C 0.49975 0.76861 0.36756 0.0
C2442 C 0.5098 0.77875 0.38298 0.0
C2443 C 0.51975 0.78305 0.37702 0.0
C2444 C 0.51973 0.77983 0.36639 0.0
C2445 C 0.5097 0.77269 0.36172 0.0
N2446 N 0.5295 0.78414 0.36 0.0
C2447 C 0.53984 0.78502 0.36307 0.0
C2448 C 0.18721 0.38998 0.12746 0.0
C2449 C 0.1965 0.39199 0.13351 0.0
C2450 C 0.17698 0.38061 0.12994 0.0
C2451 C 0.1613 0.36255 0.15218 0.0
H2452 H 0.14189 0.34157 0.1313 0.0
C2453 C 0.11994 0.3246 0.16433 0.0
C2454 C 0.11071 0.32341 0.15853 0.0
C2455 C 0.13064 0.33156 0.16059 0.0
C2456 C 0.14718 0.34742 0.13721 0.0
H2457 H 0.2024 0.38534 0.14664 0.0
H2458 H 0.18454 0.36914 0.15103 0.0
H2459 H 0.16016 0.35664 0.12604 0.0
H2460 H 0.10539 0.32811 0.14411 0.0
H2461 H 0.12409 0.34052 0.13763 0.0
H2462 H 0.14834 0.35369 0.16332 0.0
C2463 C 0.18514 0.37492 0.14446 0.0
C2464 C 0.15764 0.35604 0.1342 0.0
C2465 C 0.19537 0.38423 0.14195 0.0
C2466 C 0.11239 0.32883 0.14869 0.0
C2467 C 0.12311 0.33592 0.14499 0.0
C2468 C 0.15085 0.35402 0.15517 0.0
C2469 C 0.17581 0.37308 0.13855 0.0
C2470 C 0.1648 0.3637 0.14166 0.0
C2471 C 0.13236 0.33763 0.15103 0.0
C2472 C 0.14364 0.34634 0.14774 0.0
H2473 H 0.18776 0.39585 0.12097 0.0
H2474 H 0.16991 0.3795 0.12531 0.0
H2475 H 0.16654 0.36847 0.15809 0.0
H2476 H 0.11887 0.32037 0.17188 0.0
H2477 H 0.13757 0.3324 0.16532 0.0
C2478 C 0.71985 0.80265 0.3492 0.0
C2479 C 0.71162 0.80084 0.35701 0.0
C2480 C 0.72603 0.79533 0.3487 0.0
C2481 C 0.72714 0.76661 0.35861 0.0
H2482 H 0.75887 0.7842 0.35473 0.0
C2483 C 0.75817 0.74263 0.35921 0.0
C2484 C 0.76734 0.74851 0.36553 0.0
C2485 C 0.75117 0.74854 0.35682 0.0
C2486 C 0.75002 0.77915 0.3558 0.0
H2487 H 0.70325 0.78978 0.37032 0.0
H2488 H 0.71407 0.77709 0.36953 0.0
H2489 H 0.74662 0.79502 0.35299 0.0
H2490 H 0.77659 0.76528 0.374 0.0
H2491 H 0.76444 0.7756 0.3698 0.0
H2492 H 0.73062 0.75082 0.36177 0.0
C2493 C 0.71566 0.78403 0.36367 0.0
C2494 C 0.74298 0.78531 0.35469 0.0
C2495 C 0.70948 0.79133 0.36415 0.0
C2496 C 0.76954 0.76051 0.36917 0.0
C2497 C 0.76264 0.76644 0.36669 0.0
C2498 C 0.73418 0.76041 0.35966 0.0
C2499 C 0.72415 0.78609 0.35605 0.0
C2500 C 0.73147 0.77917 0.35625 0.0
C2501 C 0.75331 0.76049 0.36058 0.0
C2502 C 0.74572 0.76668 0.35846 0.0
H2503 H 0.72157 0.8098 0.34351 0.0
H2504 H 0.73237 0.79701 0.34263 0.0
H2505 H 0.71832 0.76162 0.3598 0.0
H2506 H 0.75623 0.73335 0.35637 0.0
H2507 H 0.74408 0.74375 0.35204 0.0
C2508 C 0.33244 0.57849 0.63239 0.0
C2509 C 0.33293 0.57372 0.62234 0.0
C2510 C 0.34171 0.58798 0.63646 0.0
C2511 C 0.37227 0.60348 0.63261 0.0
H2512 H 0.36863 0.63026 0.64813 0.0
C2513 C 0.40761 0.6508 0.63818 0.0
C2514 C 0.40828 0.65704 0.64774 0.0
C2515 C 0.39879 0.63964 0.63631 0.0
C2516 C 0.36977 0.62275 0.64396 0.0
H2517 H 0.34344 0.57541 0.60857 0.0
H2518 H 0.35952 0.59201 0.61557 0.0
H2519 H 0.35231 0.61288 0.64235 0.0
H2520 H 0.40048 0.65634 0.66299 0.0
H2521 H 0.38496 0.63673 0.65972 0.0
H2522 H 0.38974 0.61354 0.63396 0.0
C2523 C 0.35208 0.58823 0.62045 0.0
C2524 C 0.36042 0.61278 0.64064 0.0
C2525 C 0.34285 0.57873 0.61641 0.0
C2526 C 0.40018 0.65167 0.65557 0.0
C2527 C 0.39126 0.64053 0.65366 0.0
C2528 C 0.38161 0.61346 0.63589 0.0
C2529 C 0.35166 0.59294 0.63055 0.0
C2530 C 0.36155 0.60312 0.63477 0.0
C2531 C 0.39039 0.6345 0.64394 0.0
C2532 C 0.38048 0.6233 0.64145 0.0
H2533 H 0.32495 0.57473 0.63719 0.0
H2534 H 0.34112 0.5913 0.6443 0.0
H2535 H 0.37345 0.59607 0.62831 0.0
H2536 H 0.41378 0.65471 0.63203 0.0
H2537 H 0.39832 0.63529 0.62872 0.0
C2538 C 0.76572 0.19179 0.83544 0.0
C2539 C 0.77487 0.19542 0.84194 0.0
C2540 C 0.76015 0.19952 0.83397 0.0
C2541 C 0.75501 0.22561 0.84564 0.0
H2542 H 0.74633 0.22886 0.81772 0.0
C2543 C 0.73566 0.26026 0.83497 0.0
C2544 C 0.72726 0.25624 0.82762 0.0
C2545 C 0.74154 0.253 0.8372 0.0
C2546 C 0.74857 0.22795 0.82559 0.0
H2547 H 0.78527 0.20996 0.8521 0.0
H2548 H 0.77557 0.22354 0.84946 0.0
H2549 H 0.75658 0.21602 0.82059 0.0
H2550 H 0.71799 0.24123 0.8173 0.0
H2551 H 0.72809 0.22854 0.82126 0.0
H2552 H 0.7469 0.23749 0.85063 0.0
C2553 C 0.77269 0.21467 0.84554 0.0
C2554 C 0.75446 0.2206 0.82722 0.0
C2555 C 0.7783 0.20695 0.84697 0.0
C2556 C 0.72458 0.24466 0.82285 0.0
C2557 C 0.73039 0.23741 0.82509 0.0
C2558 C 0.74906 0.23295 0.844 0.0
C2559 C 0.76358 0.21105 0.83898 0.0
C2560 C 0.75767 0.21926 0.83727 0.0
C2561 C 0.73908 0.24158 0.83215 0.0
C2562 C 0.74568 0.2341 0.83396 0.0
H2563 H 0.76293 0.18302 0.83136 0.0
H2564 H 0.75309 0.19641 0.82895 0.0
H2565 H 0.75729 0.22467 0.85348 0.0
H2566 H 0.73795 0.26918 0.83873 0.0
H2567 H 0.74822 0.25651 0.84263 0.0
C2568 C 0.30864 0.7231 0.34238 0.0
C2569 C 0.30894 0.71544 0.33395 0.0
C2570 C 0.30118 0.72889 0.34267 0.0
C2571 C 0.28239 0.73678 0.32592 0.0
H2572 H 0.26812 0.73947 0.35231 0.0
C2573 C 0.24266 0.74603 0.32841 0.0
C2574 C 0.24275 0.75583 0.33489 0.0
C2575 C 0.25105 0.74162 0.32882 0.0
C2576 C 0.27213 0.73888 0.34492 0.0
H2577 H 0.3016 0.70766 0.31926 0.0
H2578 H 0.28827 0.71739 0.31988 0.0
H2579 H 0.2823 0.73088 0.35177 0.0
H2580 H 0.25147 0.76824 0.34731 0.0
H2581 H 0.26603 0.7602 0.34825 0.0
H2582 H 0.27188 0.74434 0.31905 0.0
C2583 C 0.29401 0.71926 0.32616 0.0
C2584 C 0.28029 0.73401 0.34459 0.0
C2585 C 0.30155 0.71356 0.32584 0.0
C2586 C 0.25113 0.76066 0.34223 0.0
C2587 C 0.25949 0.75611 0.34274 0.0
C2588 C 0.27414 0.74147 0.32624 0.0
C2589 C 0.29371 0.72699 0.33459 0.0
C2590 C 0.28544 0.73277 0.33506 0.0
C2591 C 0.25965 0.74675 0.33585 0.0
C2592 C 0.26885 0.74244 0.33572 0.0
H2593 H 0.31408 0.72445 0.34884 0.0
H2594 H 0.3013 0.73487 0.34923 0.0
H2595 H 0.28636 0.73627 0.31848 0.0
H2596 H 0.23617 0.74184 0.32287 0.0
H2597 H 0.25085 0.73421 0.32358 0.0
C2598 C 0.69001 0.8936 0.63955 0.0
C2599 C 0.69854 0.89905 0.64664 0.0
C2600 C 0.67998 0.88436 0.64275 0.0
C2601 C 0.66284 0.87178 0.66645 0.0
H2602 H 0.64759 0.84364 0.64863 0.0
C2603 C 0.62467 0.83112 0.68138 0.0
C2604 C 0.6155 0.82672 0.67488 0.0
C2605 C 0.63499 0.8392 0.67759 0.0
C2606 C 0.65172 0.8515 0.65365 0.0
H2607 H 0.70334 0.89882 0.66257 0.0
H2608 H 0.6859 0.88268 0.66814 0.0
H2609 H 0.66525 0.85934 0.6427 0.0
H2610 H 0.61008 0.82699 0.65919 0.0
H2611 H 0.62817 0.84111 0.65254 0.0
H2612 H 0.64936 0.86398 0.67739 0.0
C2613 C 0.68686 0.88571 0.66016 0.0
C2614 C 0.66182 0.8605 0.65026 0.0
C2615 C 0.69686 0.89496 0.65697 0.0
C2616 C 0.61701 0.83015 0.66437 0.0
C2617 C 0.62736 0.83825 0.66056 0.0
C2618 C 0.65279 0.86278 0.66984 0.0
C2619 C 0.67826 0.88034 0.65311 0.0
C2620 C 0.66751 0.87074 0.65663 0.0
C2621 C 0.6364 0.84306 0.66721 0.0
C2622 C 0.64713 0.85252 0.66351 0.0
H2623 H 0.69101 0.89664 0.63156 0.0
H2624 H 0.67348 0.88054 0.63716 0.0
H2625 H 0.66687 0.87966 0.67147 0.0
H2626 H 0.62383 0.82845 0.68946 0.0
H2627 H 0.64184 0.84253 0.68285 0.0
C2628 C 0.23223 0.32687 0.85649 0.0
C2629 C 0.23719 0.33804 0.85121 0.0
C2630 C 0.2367 0.31793 0.85551 0.0
C2631 C 0.25571 0.30785 0.83948 0.0
H2632 H 0.25875 0.29338 0.86528 0.0
C2633 C 0.28386 0.28074 0.84351 0.0
C2634 C 0.28035 0.27095 0.85051 0.0
C2635 C 0.27775 0.28804 0.8426 0.0
C2636 C 0.2578 0.29714 0.85796 0.0
H2637 H 0.25048 0.34836 0.84041 0.0
H2638 H 0.25837 0.33281 0.83882 0.0
H2639 H 0.24959 0.30767 0.86551 0.0
H2640 H 0.26733 0.2606 0.8615 0.0
H2641 H 0.25656 0.27313 0.85977 0.0
H2642 H 0.26405 0.29736 0.83196 0.0
C2643 C 0.25099 0.33094 0.84368 0.0
C2644 C 0.25256 0.30537 0.8581 0.0
C2645 C 0.24654 0.33991 0.84468 0.0
C2646 C 0.27033 0.26822 0.85617 0.0
C2647 C 0.26419 0.27544 0.85521 0.0
C2648 C 0.26095 0.29957 0.83933 0.0
C2649 C 0.24622 0.31994 0.84922 0.0
C2650 C 0.25147 0.31085 0.84888 0.0
C2651 C 0.26797 0.28565 0.84863 0.0
C2652 C 0.26208 0.29413 0.84858 0.0
H2653 H 0.22509 0.32516 0.86165 0.0
H2654 H 0.23275 0.30948 0.85978 0.0
H2655 H 0.25492 0.31185 0.83222 0.0
H2656 H 0.29159 0.28308 0.83909 0.0
H2657 H 0.28095 0.29588 0.83751 0.0
C2658 C 0.83245 0.08188 0.11366 0.0
C2659 C 0.83333 0.07076 0.11072 0.0
C2660 C 0.84153 0.09166 0.11767 0.0
C2661 C 0.87214 0.10363 0.11834 0.0
H2662 H 0.86824 0.1254 0.13975 0.0
C2663 C 0.90933 0.14462 0.1344 0.0
C2664 C 0.90804 0.15585 0.1345 0.0
C2665 C 0.90018 0.13355 0.13303 0.0
C2666 C 0.86945 0.1194 0.13376 0.0
H2667 H 0.84453 0.06127 0.10975 0.0
H2668 H 0.8602 0.07813 0.11703 0.0
H2669 H 0.85231 0.10735 0.13429 0.0
H2670 H 0.8961 0.16428 0.13391 0.0
H2671 H 0.88014 0.14502 0.13155 0.0
H2672 H 0.88926 0.11574 0.11776 0.0
C2673 C 0.85254 0.07937 0.11609 0.0
C2674 C 0.86032 0.10908 0.13059 0.0
C2675 C 0.84348 0.06963 0.11204 0.0
C2676 C 0.89734 0.15576 0.13378 0.0
C2677 C 0.8882 0.14472 0.1325 0.0
C2678 C 0.88127 0.1139 0.12155 0.0
C2679 C 0.85171 0.09056 0.11889 0.0
C2680 C 0.86152 0.10115 0.12273 0.0
C2681 C 0.88954 0.13351 0.13185 0.0
C2682 C 0.88001 0.122 0.1292 0.0
H2683 H 0.82474 0.08305 0.11288 0.0
H2684 H 0.84061 0.10017 0.11962 0.0
H2685 H 0.87337 0.09785 0.11215 0.0
H2686 H 0.91748 0.14442 0.13489 0.0
H2687 H 0.90145 0.12505 0.13268 0.0
C2688 C 0.17127 0.22437 0.43485 0.0
C2689 C 0.18235 0.23222 0.43273 0.0
C2690 C 0.16641 0.21324 0.4294 0.0
C2691 C 0.1734 0.19038 0.41397 0.0
H2692 H 0.14384 0.18057 0.40332 0.0
C2693 C 0.15584 0.14917 0.38597 0.0
C2694 C 0.14478 0.14104 0.38764 0.0
C2695 C 0.16002 0.16054 0.39112 0.0
C2696 C 0.15205 0.18311 0.40633 0.0
H2697 H 0.19706 0.23439 0.42336 0.0
H2698 H 0.18858 0.21504 0.41382 0.0
H2699 H 0.15192 0.19968 0.41336 0.0
H2700 H 0.12932 0.13862 0.39575 0.0
H2701 H 0.13665 0.15846 0.40486 0.0
H2702 H 0.17356 0.17383 0.40707 0.0
C2703 C 0.18365 0.21747 0.41972 0.0
C2704 C 0.15668 0.19406 0.41209 0.0
C2705 C 0.18848 0.22861 0.42512 0.0
C2706 C 0.13786 0.14474 0.39426 0.0
C2707 C 0.14207 0.15611 0.39948 0.0
C2708 C 0.16877 0.17943 0.40826 0.0
C2709 C 0.17255 0.20966 0.42176 0.0
C2710 C 0.16744 0.19786 0.41591 0.0
C2711 C 0.15328 0.16404 0.39813 0.0
C2712 C 0.15807 0.17569 0.40429 0.0
H2713 H 0.1663 0.22694 0.44061 0.0
H2714 H 0.15787 0.20738 0.43122 0.0
H2715 H 0.18163 0.19292 0.41696 0.0
H2716 H 0.16132 0.14665 0.38078 0.0
H2717 H 0.16861 0.16653 0.38968 0.0
C2718 C 0.10394 0.92154 0.66442 0.0
C2719 C 0.09896 0.90949 0.66816 0.0
C2720 C 0.1145 0.92575 0.65966 0.0
C2721 C 0.13443 0.915 0.64623 0.0
H2722 H 0.15578 0.94765 0.65285 0.0
C2723 C 0.18025 0.93243 0.63177 0.0
C2724 C 0.18531 0.94473 0.62865 0.0
C2725 C 0.1697 0.928 0.63657 0.0
C2726 C 0.14988 0.93856 0.65081 0.0
H2727 H 0.10114 0.89239 0.66973 0.0
H2728 H 0.11961 0.89978 0.66152 0.0
H2729 H 0.13744 0.94022 0.66126 0.0
H2730 H 0.18312 0.96191 0.62786 0.0
H2731 H 0.16472 0.95417 0.63613 0.0
H2732 H 0.14684 0.91336 0.63572 0.0
C2733 C 0.11532 0.90594 0.66221 0.0
C2734 C 0.13937 0.9343 0.65564 0.0
C2735 C 0.10478 0.90175 0.66702 0.0
C2736 C 0.17953 0.95244 0.63033 0.0
C2737 C 0.16899 0.94801 0.63509 0.0
C2738 C 0.14494 0.91927 0.64136 0.0
C2739 C 0.1203 0.918 0.65849 0.0
C2740 C 0.13151 0.92248 0.6534 0.0
C2741 C 0.16396 0.93575 0.63833 0.0
C2742 C 0.15279 0.93112 0.64357 0.0
H2743 H 0.09972 0.92776 0.66526 0.0
H2744 H 0.11806 0.93505 0.65679 0.0
H2745 H 0.12852 0.9059 0.64423 0.0
H2746 H 0.18454 0.9263 0.6307 0.0
H2747 H 0.16615 0.91856 0.63909 0.0
C2748 C 0.36652 0.8014 0.9468 0.0
C2749 C 0.36582 0.80256 0.95769 0.0
C2750 C 0.36929 0.81163 0.94047 0.0
C2751 C 0.37044 0.84319 0.93949 0.0
H2752 H 0.39263 0.84679 0.91765 0.0
C2753 C 0.39187 0.88764 0.91533 0.0
C2754 C 0.39491 0.88625 0.90493 0.0
C2755 C 0.38722 0.87738 0.92175 0.0
C2756 C 0.38628 0.84585 0.92358 0.0
H2757 H 0.36727 0.81544 0.97044 0.0
H2758 H 0.37201 0.83334 0.95933 0.0
H2759 H 0.38669 0.8291 0.92892 0.0
H2760 H 0.39477 0.87309 0.89286 0.0
H2761 H 0.38637 0.85519 0.90389 0.0
H2762 H 0.37003 0.85998 0.93408 0.0
C2763 C 0.37037 0.82445 0.95572 0.0
C2764 C 0.38291 0.83571 0.93007 0.0
C2765 C 0.36765 0.81419 0.96208 0.0
C2766 C 0.39263 0.87441 0.9009 0.0
C2767 C 0.3879 0.86418 0.90725 0.0
C2768 C 0.37378 0.85334 0.93292 0.0
C2769 C 0.37137 0.8233 0.94485 0.0
C2770 C 0.37493 0.83422 0.93807 0.0
C2771 C 0.38545 0.86555 0.91784 0.0
C2772 C 0.38171 0.85476 0.92485 0.0
H2773 H 0.36489 0.79255 0.94312 0.0
H2774 H 0.36978 0.8104 0.93211 0.0
H2775 H 0.36422 0.84224 0.94555 0.0
H2776 H 0.39361 0.8967 0.91864 0.0
H2777 H 0.3855 0.8788 0.92987 0.0
C2778 C 0.4144 0.0871 0.12626 0.0
C2779 C 0.41365 0.08749 0.1372 0.0
C2780 C 0.40481 0.08314 0.12037 0.0
C2781 C 0.37488 0.06435 0.12253 0.0
H2782 H 0.37265 0.08175 0.09815 0.0
C2783 C 0.33311 0.0526 0.10365 0.0
C2784 C 0.33284 0.05167 0.09274 0.0
C2785 C 0.34319 0.05779 0.10866 0.0
C2786 C 0.37318 0.07672 0.10488 0.0
H2787 H 0.40224 0.08386 0.15051 0.0
H2788 H 0.38561 0.07711 0.14029 0.0
H2789 H 0.39 0.08893 0.10755 0.0
H2790 H 0.34287 0.05586 0.0785 0.0
H2791 H 0.36057 0.06487 0.08727 0.0
H2792 H 0.35818 0.0521 0.1199 0.0
C2793 C 0.39358 0.07982 0.13625 0.0
C2794 C 0.38312 0.08083 0.11025 0.0
C2795 C 0.40312 0.08382 0.1421 0.0
C2796 C 0.34284 0.05654 0.08692 0.0
C2797 C 0.35297 0.06169 0.09195 0.0
C2798 C 0.365 0.06023 0.11717 0.0
C2799 C 0.39429 0.07937 0.12532 0.0
C2800 C 0.38401 0.07476 0.11922 0.0
C2801 C 0.35326 0.0621 0.10289 0.0
C2802 C 0.36397 0.06645 0.10835 0.0
H2803 H 0.4224 0.08993 0.12225 0.0
H2804 H 0.40561 0.08282 0.11196 0.0
H2805 H 0.37537 0.05931 0.12928 0.0
H2806 H 0.32551 0.04912 0.10833 0.0
H2807 H 0.34309 0.05826 0.11709 0.0
C2808 C 0.03091 0.71383 0.03681 0.0
C2809 C 0.03581 0.70526 0.03773 0.0
C2810 C 0.02564 0.71694 0.04539 0.0
C2811 C 0.0153 0.70808 0.07271 0.0
H2812 H 0.02303 0.74304 0.07637 0.0
C2813 C 0.01998 0.73279 0.11231 0.0
C2814 C 0.01735 0.74316 0.11342 0.0
C2815 C 0.01858 0.72641 0.10283 0.0
C2816 C 0.02056 0.73322 0.07539 0.0
H2817 H 0.03838 0.69272 0.04832 0.0
H2818 H 0.02963 0.69851 0.06336 0.0
H2819 H 0.02771 0.73523 0.06002 0.0
H2820 H 0.01066 0.75467 0.10572 0.0
H2821 H 0.00834 0.74361 0.089 0.0
H2822 H 0.00871 0.70625 0.08839 0.0
C2823 C 0.0297 0.70271 0.05597 0.0
C2824 C 0.02324 0.72871 0.06599 0.0
C2825 C 0.03489 0.69953 0.04736 0.0
C2826 C 0.01269 0.74665 0.10506 0.0
C2827 C 0.01144 0.74037 0.09549 0.0
C2828 C 0.01268 0.71261 0.08216 0.0
C2829 C 0.0252 0.71165 0.05515 0.0
C2830 C 0.02092 0.71612 0.06462 0.0
C2831 C 0.0147 0.73042 0.0942 0.0
C2832 C 0.01555 0.72527 0.08369 0.0
H2833 H 0.0315 0.71852 0.02955 0.0
H2834 H 0.02211 0.72371 0.04442 0.0
H2835 H 0.01316 0.6983 0.07186 0.0
H2836 H 0.0237 0.73003 0.1186 0.0
H2837 H 0.0213 0.71888 0.10207 0.0
C2838 C 0.31975 0.79527 0.38969 0.0
C2839 C 0.32839 0.79258 0.39368 0.0
C2840 C 0.31568 0.80309 0.39519 0.0
C2841 C 0.31415 0.8152 0.42162 0.0
H2842 H 0.31062 0.84224 0.40802 0.0
C2843 C 0.31667 0.86519 0.43481 0.0
C2844 C 0.31127 0.86207 0.44457 0.0
C2845 C 0.31561 0.85605 0.4273 0.0
C2846 C 0.3115 0.83468 0.41191 0.0
H2847 H 0.33972 0.79634 0.40641 0.0
H2848 H 0.33254 0.80971 0.416 0.0
H2849 H 0.31551 0.82734 0.39762 0.0
H2850 H 0.29975 0.84732 0.45386 0.0
H2851 H 0.29751 0.83139 0.44062 0.0
H2852 H 0.31072 0.82272 0.43593 0.0
C2853 C 0.32878 0.80564 0.40872 0.0
C2854 C 0.31422 0.82612 0.40595 0.0
C2855 C 0.33289 0.79794 0.40323 0.0
C2856 C 0.30396 0.84991 0.44635 0.0
C2857 C 0.30279 0.8408 0.43882 0.0
C2858 C 0.31141 0.8237 0.42755 0.0
C2859 C 0.32011 0.80827 0.4048 0.0
C2860 C 0.31587 0.81649 0.4108 0.0
C2861 C 0.3091 0.84365 0.42945 0.0
C2862 C 0.31029 0.83371 0.42282 0.0
H2863 H 0.31602 0.79122 0.38241 0.0
H2864 H 0.30895 0.80491 0.392 0.0
H2865 H 0.31522 0.80778 0.42557 0.0
H2866 H 0.32247 0.87451 0.43335 0.0
H2867 H 0.32064 0.85858 0.4202 0.0
C2868 C 0.4598 0.27216 0.52824 0.0
C2869 C 0.46455 0.27775 0.51877 0.0
C2870 C 0.46616 0.2693 0.53537 0.0
C2871 C 0.49454 0.27752 0.54383 0.0
H2872 H 0.48106 0.24672 0.55843 0.0
C2873 C 0.50645 0.26912 0.5848 0.0
C2874 C 0.50439 0.25704 0.58763 0.0
C2875 C 0.50434 0.27163 0.57471 0.0
C2876 C 0.4851 0.25527 0.55432 0.0
H2877 H 0.47972 0.28478 0.50937 0.0
H2878 H 0.49091 0.27976 0.52193 0.0
H2879 H 0.47158 0.2508 0.54405 0.0
H2880 H 0.49971 0.23836 0.58197 0.0
H2881 H 0.49642 0.24277 0.56424 0.0
H2882 H 0.508 0.28206 0.55428 0.0
C2883 C 0.48224 0.27762 0.52379 0.0
C2884 C 0.47956 0.25767 0.54615 0.0
C2885 C 0.47583 0.28041 0.51658 0.0
C2886 C 0.5013 0.24774 0.57996 0.0
C2887 C 0.49931 0.25026 0.56985 0.0
C2888 C 0.50011 0.27513 0.55205 0.0
C2889 C 0.47744 0.27197 0.53324 0.0
C2890 C 0.48407 0.26894 0.541 0.0
C2891 C 0.50021 0.26209 0.56727 0.0
C2892 C 0.49533 0.26407 0.55754 0.0
H2893 H 0.45111 0.26986 0.5301 0.0
H2894 H 0.46224 0.2651 0.54264 0.0
H2895 H 0.49821 0.28631 0.54 0.0
H2896 H 0.50873 0.27641 0.59062 0.0
H2897 H 0.50509 0.28084 0.57302 0.0
C2898 C 0.18606 0.212 0.85639 0.0
C2899 C 0.1794 0.20784 0.84765 0.0
C2900 C 0.1887 0.20382 0.86228 0.0
C2901 C 0.18854 0.17228 0.86246 0.0
H2902 H 0.1858 0.17624 0.89233 0.0
C2903 C 0.18183 0.13399 0.89243 0.0
C2904 C 0.18604 0.13758 0.90242 0.0
C2905 C 0.18327 0.14282 0.88486 0.0
C2906 C 0.18683 0.17511 0.88402 0.0
H2907 H 0.17052 0.19188 0.83807 0.0
H2908 H 0.175 0.17755 0.84843 0.0
H2909 H 0.18392 0.19118 0.88085 0.0
H2910 H 0.19591 0.153 0.91205 0.0
H2911 H 0.1987 0.16838 0.89879 0.0
H2912 H 0.19114 0.15594 0.86572 0.0
C2913 C 0.17834 0.18717 0.85065 0.0
C2914 C 0.18574 0.1837 0.87742 0.0
C2915 C 0.17575 0.19538 0.84472 0.0
C2916 C 0.1925 0.15002 0.90442 0.0
C2917 C 0.19401 0.15882 0.89686 0.0
C2918 C 0.18962 0.16364 0.8691 0.0
C2919 C 0.18468 0.19126 0.85962 0.0
C2920 C 0.1865 0.18237 0.86655 0.0
C2921 C 0.189 0.15539 0.88715 0.0
C2922 C 0.18871 0.16492 0.87997 0.0
H2923 H 0.18918 0.22159 0.85873 0.0
H2924 H 0.19381 0.20734 0.869 0.0
H2925 H 0.18929 0.17105 0.85413 0.0
H2926 H 0.17674 0.12446 0.89072 0.0
H2927 H 0.17927 0.13985 0.87748 0.0
C2928 C 0.81399 0.29203 0.88453 0.0
C2929 C 0.82238 0.29745 0.87695 0.0
C2930 C 0.80949 0.29916 0.89039 0.0
C2931 C 0.8083 0.33016 0.8926 0.0
H2932 H 0.80625 0.32354 0.92214 0.0
C2933 C 0.81287 0.3662 0.9252 0.0
C2934 C 0.80784 0.36208 0.93496 0.0
C2935 C 0.81137 0.35787 0.91688 0.0
C2936 C 0.80649 0.3254 0.91391 0.0
H2937 H 0.83234 0.31451 0.86932 0.0
H2938 H 0.82466 0.32701 0.87967 0.0
H2939 H 0.80993 0.30962 0.90991 0.0
H2940 H 0.79645 0.34646 0.94348 0.0
H2941 H 0.79346 0.332 0.92888 0.0
H2942 H 0.80531 0.34629 0.89676 0.0
C2943 C 0.82139 0.31721 0.88097 0.0
C2944 C 0.80863 0.31738 0.90686 0.0
C2945 C 0.82583 0.31005 0.87505 0.0
C2946 C 0.80041 0.34982 0.936 0.0
C2947 C 0.79881 0.34154 0.92768 0.0
C2948 C 0.80617 0.33823 0.89969 0.0
C2949 C 0.81335 0.3119 0.88888 0.0
C2950 C 0.80978 0.31976 0.89613 0.0
C2951 C 0.80476 0.34532 0.9182 0.0
C2952 C 0.80544 0.33605 0.91045 0.0
H2953 H 0.81103 0.28229 0.88603 0.0
H2954 H 0.80315 0.29472 0.89627 0.0
H2955 H 0.80899 0.33218 0.88438 0.0
H2956 H 0.81873 0.37559 0.92426 0.0
H2957 H 0.81611 0.36111 0.90972 0.0
C2958 C 0.95196 0.77452 0.06193 0.0
C2959 C 0.95342 0.77151 0.05148 0.0
C2960 C 0.95671 0.77062 0.0699 0.0
C2961 C 0.97769 0.75814 0.07592 0.0
H2962 H 0.95828 0.7456 0.10006 0.0
C2963 C 0.98546 0.73013 0.10945 0.0
C2964 C 0.98191 0.73225 0.11949 0.0
C2965 C 0.98363 0.7361 0.10086 0.0
C2966 C 0.96389 0.74923 0.09345 0.0
H2967 H 0.96144 0.76242 0.04123 0.0
H2968 H 0.96951 0.75534 0.05523 0.0
H2969 H 0.95185 0.75357 0.08563 0.0
H2970 H 0.97437 0.74274 0.12852 0.0
H2971 H 0.97165 0.75354 0.11374 0.0
H2972 H 0.98968 0.75354 0.08384 0.0
C2973 C 0.96476 0.76083 0.05722 0.0
C2974 C 0.96019 0.75381 0.08516 0.0
C2975 C 0.96002 0.76477 0.0492 0.0
C2976 C 0.97724 0.74102 0.12088 0.0
C2977 C 0.97555 0.74707 0.11239 0.0
C2978 C 0.98141 0.7535 0.08427 0.0
C2979 C 0.96298 0.76352 0.06768 0.0
C2980 C 0.96706 0.75845 0.07633 0.0
C2981 C 0.9783 0.74432 0.10223 0.0
C2982 C 0.97457 0.74914 0.09318 0.0
H2983 H 0.94685 0.77956 0.06403 0.0
H2984 H 0.95532 0.77304 0.07786 0.0
H2985 H 0.98319 0.76167 0.06923 0.0
H2986 H 0.98902 0.72334 0.10818 0.0
H2987 H 0.98582 0.73377 0.09313 0.0
C2988 C 0.7009 0.71528 0.36262 0.0
C2989 C 0.70368 0.72682 0.36751 0.0
C2990 C 0.70282 0.70588 0.36746 0.0
C2991 C 0.71754 0.6992 0.38922 0.0
H2992 H 0.69256 0.66778 0.3893 0.0
C2993 C 0.70878 0.66368 0.42153 0.0
C2994 C 0.70331 0.65112 0.41916 0.0
C2995 C 0.71109 0.67246 0.41378 0.0
C2996 C 0.69974 0.67638 0.38919 0.0
H2997 H 0.71127 0.73776 0.38107 0.0
H2998 H 0.71442 0.72132 0.38963 0.0
H2999 H 0.69234 0.68414 0.37842 0.0
H3000 H 0.69663 0.63784 0.40671 0.0
H3001 H 0.70079 0.6532 0.39308 0.0
H3002 H 0.72475 0.6915 0.40029 0.0
C3003 C 0.71081 0.71952 0.38201 0.0
C3004 C 0.6996 0.68581 0.38295 0.0
C3005 C 0.70888 0.72891 0.37716 0.0
C3006 C 0.70088 0.64746 0.40875 0.0
C3007 C 0.70316 0.65627 0.40098 0.0
C3008 C 0.71768 0.68976 0.39548 0.0
C3009 C 0.70757 0.7078 0.37732 0.0
C3010 C 0.70839 0.69742 0.38305 0.0
C3011 C 0.70796 0.66889 0.40347 0.0
C3012 C 0.70866 0.67832 0.39572 0.0
H3013 H 0.69683 0.71332 0.35521 0.0
H3014 H 0.70037 0.69703 0.36357 0.0
H3015 H 0.72453 0.70796 0.38936 0.0
H3016 H 0.71082 0.66675 0.42949 0.0
H3017 H 0.71472 0.68207 0.41603 0.0
C3018 C 0.87065 0.2996 0.43673 0.0
C3019 C 0.86325 0.29764 0.44533 0.0
C3020 C 0.87482 0.31086 0.43166 0.0
C3021 C 0.86958 0.33891 0.42764 0.0
H3022 H 0.90032 0.35185 0.41808 0.0
C3023 C 0.88814 0.37864 0.39811 0.0
C3024 C 0.89926 0.38666 0.3992 0.0
C3025 C 0.88336 0.36852 0.40466 0.0
C3026 C 0.89175 0.34848 0.4208 0.0
H3027 H 0.85438 0.30603 0.45528 0.0
H3028 H 0.86185 0.32581 0.44653 0.0
H3029 H 0.89295 0.33289 0.42778 0.0
H3030 H 0.91384 0.39094 0.40842 0.0
H3031 H 0.90547 0.37351 0.41995 0.0
H3032 H 0.86847 0.35465 0.42072 0.0
C3033 C 0.86432 0.31855 0.44365 0.0
C3034 C 0.88748 0.33748 0.42625 0.0
C3035 C 0.86014 0.30726 0.44874 0.0
C3036 C 0.9053 0.38478 0.4073 0.0
C3037 C 0.90051 0.37475 0.41387 0.0
C3038 C 0.87387 0.34995 0.42217 0.0
C3039 C 0.87174 0.32049 0.43507 0.0
C3040 C 0.87632 0.33249 0.42965 0.0
C3041 C 0.88958 0.3663 0.41245 0.0
C3042 C 0.88501 0.35484 0.41864 0.0
H3043 H 0.87333 0.29246 0.43397 0.0
H3044 H 0.8804 0.31196 0.425 0.0
H3045 H 0.86093 0.33527 0.43008 0.0
H3046 H 0.88332 0.37984 0.39189 0.0
H3047 H 0.87494 0.36216 0.4033 0.0
C3048 C 0.68396 0.74173 0.94478 0.0
C3049 C 0.68717 0.74158 0.95509 0.0
C3050 C 0.67896 0.7308 0.93912 0.0
C3051 C 0.66398 0.69722 0.94226 0.0
H3052 H 0.67216 0.69596 0.91308 0.0
C3053 C 0.65261 0.65179 0.9189 0.0
C3054 C 0.64967 0.6515 0.90845 0.0
C3055 C 0.65636 0.66278 0.92462 0.0
C3056 C 0.66966 0.6962 0.92118 0.0
H3057 H 0.68759 0.72973 0.9675 0.0
H3058 H 0.67909 0.71067 0.95753 0.0
H3059 H 0.68059 0.71504 0.92298 0.0
H3060 H 0.64808 0.66252 0.89591 0.0
H3061 H 0.65453 0.68178 0.90595 0.0
H3062 H 0.65315 0.67832 0.94047 0.0
C3063 C 0.6803 0.71926 0.95388 0.0
C3064 C 0.67451 0.70715 0.92687 0.0
C3065 C 0.68531 0.7302 0.95956 0.0
C3066 C 0.65024 0.66243 0.90395 0.0
C3067 C 0.65405 0.67347 0.90967 0.0
C3068 C 0.65915 0.68627 0.93657 0.0
C3069 C 0.67706 0.71942 0.94359 0.0
C3070 C 0.67177 0.70779 0.9375 0.0
C3071 C 0.65727 0.6738 0.92004 0.0
C3072 C 0.66197 0.68561 0.92597 0.0
H3073 H 0.6854 0.75032 0.94103 0.0
H3074 H 0.67648 0.73128 0.93125 0.0
H3075 H 0.66153 0.69744 0.95038 0.0
H3076 H 0.65215 0.64349 0.92263 0.0
H3077 H 0.65885 0.6627 0.93255 0.0
C3078 C 0.82295 0.58472 0.86839 0.0
C3079 C 0.81468 0.58938 0.87026 0.0
C3080 C 0.83368 0.59248 0.8652 0.0
C3081 C 0.85246 0.62521 0.86595 0.0
H3082 H 0.87039 0.61541 0.84592 0.0
C3083 C 0.89494 0.65964 0.85273 0.0
C3084 C 0.9037 0.65567 0.85307 0.0
C3085 C 0.88398 0.65119 0.85321 0.0
C3086 C 0.86548 0.61824 0.85156 0.0
H3087 H 0.81126 0.60589 0.8701 0.0
H3088 H 0.82978 0.61927 0.86425 0.0
H3089 H 0.85134 0.60128 0.85001 0.0
H3090 H 0.90791 0.63974 0.8535 0.0
H3091 H 0.88864 0.62488 0.8544 0.0
H3092 H 0.86652 0.64206 0.8676 0.0
C3093 C 0.82804 0.60965 0.86541 0.0
C3094 C 0.85459 0.61015 0.85392 0.0
C3095 C 0.81735 0.60193 0.86863 0.0
C3096 C 0.90129 0.64302 0.85318 0.0
C3097 C 0.89027 0.63453 0.85371 0.0
C3098 C 0.86328 0.63326 0.86357 0.0
C3099 C 0.83638 0.60508 0.8638 0.0
C3100 C 0.84794 0.61357 0.86113 0.0
C3101 C 0.88151 0.63858 0.8541 0.0
C3102 C 0.86992 0.62992 0.85633 0.0
H3103 H 0.82115 0.57508 0.86944 0.0
H3104 H 0.83992 0.58867 0.8641 0.0
H3105 H 0.84769 0.62804 0.87173 0.0
H3106 H 0.89658 0.66934 0.8525 0.0
H3107 H 0.87741 0.65458 0.85324 0.0
C3108 C 0.2941 0.19617 0.63364 0.0
C3109 C 0.29971 0.19466 0.64225 0.0
C3110 C 0.29155 0.20651 0.63291 0.0
C3111 C 0.29744 0.23777 0.64394 0.0
H3112 H 0.26738 0.23069 0.63576 0.0
C3113 C 0.27429 0.26956 0.65371 0.0
C3114 C 0.26655 0.27011 0.64666 0.0
C3115 C 0.27983 0.26172 0.6518 0.0
C3116 C 0.27587 0.23292 0.63787 0.0
H3117 H 0.30739 0.20304 0.6567 0.0
H3118 H 0.30283 0.22107 0.65549 0.0
H3119 H 0.27435 0.21449 0.63501 0.0
H3120 H 0.25898 0.26328 0.63182 0.0
H3121 H 0.26882 0.2498 0.62839 0.0
H3122 H 0.29874 0.25613 0.64713 0.0
C3123 C 0.30051 0.21432 0.64923 0.0
C3124 C 0.27988 0.2236 0.63744 0.0
C3125 C 0.3031 0.20397 0.64994 0.0
C3126 C 0.2649 0.2631 0.6374 0.0
C3127 C 0.27046 0.25528 0.63549 0.0
C3128 C 0.2934 0.2471 0.64439 0.0
C3129 C 0.29451 0.21559 0.6408 0.0
C3130 C 0.29067 0.22586 0.64058 0.0
C3131 C 0.27778 0.25426 0.64279 0.0
C3132 C 0.28252 0.24475 0.64146 0.0
H3133 H 0.2916 0.18929 0.62747 0.0
H3134 H 0.28714 0.20733 0.62619 0.0
H3135 H 0.30584 0.23986 0.64629 0.0
H3136 H 0.27589 0.275 0.66083 0.0
H3137 H 0.28536 0.26114 0.65762 0.0
C3138 C 0.69487 0.4073 0.37555 0.0
C3139 C 0.69508 0.4132 0.38523 0.0
C3140 C 0.68574 0.39673 0.37288 0.0
C3141 C 0.66089 0.37157 0.38359 0.0
H3142 H 0.6494 0.3713 0.35618 0.0
C3143 C 0.61701 0.33827 0.37158 0.0
C3144 C 0.61554 0.3342 0.36117 0.0
C3145 C 0.62726 0.34686 0.37478 0.0
C3146 C 0.65258 0.37108 0.36379 0.0
H3147 H 0.68605 0.41233 0.39986 0.0
H3148 H 0.67005 0.39391 0.39516 0.0
H3149 H 0.66635 0.3881 0.36127 0.0
H3150 H 0.62378 0.33531 0.34609 0.0
H3151 H 0.6417 0.35005 0.35168 0.0
H3152 H 0.64706 0.35454 0.38612 0.0
C3153 C 0.67697 0.39745 0.38965 0.0
C3154 C 0.66231 0.38074 0.36672 0.0
C3155 C 0.68609 0.40807 0.3923 0.0
C3156 C 0.62464 0.33844 0.35413 0.0
C3157 C 0.63489 0.34693 0.35733 0.0
C3158 C 0.65117 0.36183 0.38064 0.0
C3159 C 0.67662 0.39178 0.37984 0.0
C3160 C 0.66655 0.38115 0.37666 0.0
C3161 C 0.63627 0.35149 0.36763 0.0
C3162 C 0.64686 0.3615 0.37072 0.0
H3163 H 0.70163 0.41107 0.3699 0.0
H3164 H 0.68576 0.3925 0.36531 0.0
H3165 H 0.66402 0.37157 0.39128 0.0
H3166 H 0.61011 0.33521 0.37715 0.0
H3167 H 0.62798 0.35024 0.38275 0.0
C3168 C 0.25028 0.8211 0.16199 0.0
C3169 C 0.23924 0.81489 0.16548 0.0
C3170 C 0.25835 0.81662 0.16416 0.0
C3171 C 0.26452 0.79512 0.18089 0.0
H3172 H 0.28507 0.79602 0.15816 0.0
C3173 C 0.2926 0.76727 0.17938 0.0
C3174 C 0.30314 0.77287 0.17459 0.0
C3175 C 0.28521 0.7732 0.17969 0.0
C3176 C 0.27951 0.79586 0.16466 0.0
H3177 H 0.22813 0.79928 0.1743 0.0
H3178 H 0.24216 0.79126 0.17782 0.0
H3179 H 0.27135 0.80469 0.15585 0.0
H3180 H 0.31457 0.78941 0.16717 0.0
H3181 H 0.30179 0.79981 0.16782 0.0
H3182 H 0.27264 0.786 0.18961 0.0
C3183 C 0.2446 0.79969 0.17351 0.0
C3184 C 0.27163 0.80084 0.16333 0.0
C3185 C 0.23652 0.80421 0.17137 0.0
C3186 C 0.30643 0.78481 0.17075 0.0
C3187 C 0.29909 0.79073 0.17109 0.0
C3188 C 0.27242 0.79007 0.18222 0.0
C3189 C 0.25558 0.80576 0.16981 0.0
C3190 C 0.26404 0.80056 0.17142 0.0
C3191 C 0.28827 0.78484 0.17523 0.0
C3192 C 0.28002 0.79042 0.17411 0.0
H3193 H 0.25267 0.82928 0.15734 0.0
H3194 H 0.26676 0.82164 0.16133 0.0
H3195 H 0.25886 0.79485 0.18732 0.0
H3196 H 0.28983 0.75804 0.18234 0.0
H3197 H 0.27692 0.7684 0.18291 0.0
C3198 C 0.72925 0.30054 0.6542 0.0
C3199 C 0.7212 0.29887 0.66219 0.0
C3200 C 0.73658 0.29463 0.65446 0.0
C3201 C 0.74839 0.27957 0.67271 0.0
H3202 H 0.75892 0.26893 0.6472 0.0
C3203 C 0.77716 0.25338 0.67314 0.0
C3204 C 0.78676 0.25806 0.6667 0.0
C3205 C 0.76849 0.25726 0.67207 0.0
C3206 C 0.75608 0.2719 0.65438 0.0
H3207 H 0.71452 0.28952 0.6767 0.0
H3208 H 0.72705 0.27885 0.67698 0.0
H3209 H 0.74481 0.2775 0.64647 0.0
H3210 H 0.79452 0.27011 0.65376 0.0
H3211 H 0.77923 0.27672 0.65176 0.0
H3212 H 0.75961 0.27386 0.6806 0.0
C3213 C 0.72783 0.28493 0.67058 0.0
C3214 C 0.74802 0.27686 0.65397 0.0
C3215 C 0.72054 0.29093 0.67036 0.0
C3216 C 0.78722 0.26626 0.6588 0.0
C3217 C 0.77848 0.27007 0.65767 0.0
C3218 C 0.75636 0.2745 0.67312 0.0
C3219 C 0.73601 0.28678 0.66267 0.0
C3220 C 0.74415 0.28087 0.66312 0.0
C3221 C 0.76914 0.26581 0.66445 0.0
C3222 C 0.76035 0.27071 0.66395 0.0
H3223 H 0.72989 0.30643 0.64769 0.0
H3224 H 0.74285 0.29643 0.6483 0.0
H3225 H 0.7458 0.28276 0.6799 0.0
H3226 H 0.77641 0.24683 0.67914 0.0
H3227 H 0.76131 0.25364 0.67727 0.0
C3228 C 0.32016 0.07027 0.36389 0.0
C3229 C 0.31121 0.07002 0.35807 0.0
C3230 C 0.33106 0.0767 0.36035 0.0
C3231 C 0.34851 0.09122 0.33716 0.0
H3232 H 0.36835 0.11199 0.35783 0.0
C3233 C 0.38964 0.13224 0.32713 0.0
C3234 C 0.39829 0.1353 0.33416 0.0
C3235 C 0.37951 0.12249 0.32921 0.0
C3236 C 0.36302 0.10608 0.35197 0.0
H3237 H 0.30672 0.07593 0.34373 0.0
H3238 H 0.32578 0.08736 0.33764 0.0
H3239 H 0.34971 0.09839 0.36309 0.0
H3240 H 0.40353 0.13003 0.34837 0.0
H3241 H 0.38602 0.11279 0.35185 0.0
H3242 H 0.36185 0.09913 0.32601 0.0
C3243 C 0.32435 0.0825 0.34491 0.0
C3244 C 0.3523 0.09828 0.355 0.0
C3245 C 0.31343 0.07607 0.34846 0.0
C3246 C 0.39694 0.12791 0.34288 0.0
C3247 C 0.38688 0.11811 0.3449 0.0
C3248 C 0.35929 0.09903 0.33412 0.0
C3249 C 0.33329 0.08306 0.3509 0.0
C3250 C 0.34488 0.09082 0.34763 0.0
C3251 C 0.37789 0.11558 0.33833 0.0
C3252 C 0.36666 0.10661 0.34149 0.0
H3253 H 0.31876 0.0658 0.37136 0.0
H3254 H 0.33777 0.07683 0.36509 0.0
H3255 H 0.34302 0.08549 0.33131 0.0
H3256 H 0.39047 0.13788 0.32039 0.0
H3257 H 0.37276 0.12085 0.324 0.0
C3258 C 0.78175 0.69235 0.15289 0.0
C3259 C 0.78917 0.69008 0.15931 0.0
C3260 C 0.78124 0.70393 0.15285 0.0
C3261 C 0.78721 0.73138 0.16947 0.0
H3262 H 0.78204 0.7457 0.14444 0.0
C3263 C 0.7822 0.77732 0.1717 0.0
C3264 C 0.77367 0.77814 0.16589 0.0
C3265 C 0.78579 0.76778 0.16981 0.0
C3266 C 0.78338 0.74178 0.15152 0.0
H3267 H 0.80202 0.69833 0.17059 0.0
H3268 H 0.8013 0.71855 0.17033 0.0
H3269 H 0.78507 0.72665 0.14322 0.0
H3270 H 0.76252 0.76997 0.15327 0.0
H3271 H 0.76849 0.75307 0.15017 0.0
H3272 H 0.78529 0.74625 0.17783 0.0
C3273 C 0.79577 0.71133 0.16543 0.0
C3274 C 0.78513 0.73086 0.15081 0.0
C3275 C 0.79626 0.69975 0.16549 0.0
C3276 C 0.76914 0.76957 0.15784 0.0
C3277 C 0.77261 0.75991 0.15604 0.0
C3278 C 0.78545 0.74226 0.17018 0.0
C3279 C 0.78815 0.71351 0.15921 0.0
C3280 C 0.78698 0.72549 0.15979 0.0
C3281 C 0.78078 0.7587 0.1622 0.0
C3282 C 0.78343 0.74758 0.16123 0.0
H3283 H 0.77629 0.68518 0.1479 0.0
H3284 H 0.77521 0.70526 0.14803 0.0
H3285 H 0.78841 0.72739 0.17656 0.0
H3286 H 0.78595 0.78395 0.17784 0.0
H3287 H 0.79233 0.76737 0.17449 0.0
C3288 C 0.19117 0.90088 0.87139 0.0
C3289 C 0.19104 0.90696 0.88091 0.0
C3290 C 0.18226 0.89008 0.86875 0.0
C3291 C 0.1575 0.86476 0.87943 0.0
H3292 H 0.14638 0.86365 0.85172 0.0
C3293 C 0.1139 0.83094 0.86727 0.0
C3294 C 0.11255 0.82666 0.85691 0.0
C3295 C 0.12411 0.8396 0.87048 0.0
C3296 C 0.14947 0.86366 0.85942 0.0
H3297 H 0.18168 0.90618 0.89532 0.0
H3298 H 0.16605 0.88736 0.89066 0.0
H3299 H 0.16312 0.88075 0.85681 0.0
H3300 H 0.12095 0.82744 0.84195 0.0
H3301 H 0.13881 0.84232 0.84757 0.0
H3302 H 0.14377 0.84767 0.88205 0.0
C3303 C 0.17307 0.89093 0.88526 0.0
C3304 C 0.15907 0.8735 0.86234 0.0
C3305 C 0.18196 0.90178 0.88788 0.0
C3306 C 0.12172 0.83074 0.84995 0.0
C3307 C 0.13194 0.8393 0.85317 0.0
C3308 C 0.1479 0.85485 0.87648 0.0
C3309 C 0.17303 0.88508 0.87559 0.0
C3310 C 0.16315 0.87422 0.8724 0.0
C3311 C 0.1332 0.84409 0.8634 0.0
C3312 C 0.14372 0.85422 0.86646 0.0
H3313 H 0.19801 0.90468 0.86583 0.0
H3314 H 0.18252 0.88571 0.86129 0.0
H3315 H 0.16051 0.86501 0.8872 0.0
H3316 H 0.10694 0.828 0.87277 0.0
H3317 H 0.12473 0.84315 0.87838 0.0
C3318 C 0.86013 0.79194 0.57566 0.0
C3319 C 0.84943 0.78285 0.57723 0.0
C3320 C 0.86372 0.80272 0.58172 0.0
C3321 C 0.85335 0.8223 0.59787 0.0
H3322 H 0.88249 0.83461 0.60981 0.0
C3323 C 0.86601 0.86159 0.62811 0.0
C3324 C 0.87679 0.87067 0.62729 0.0
C3325 C 0.86303 0.85075 0.62223 0.0
C3326 C 0.87438 0.83138 0.60644 0.0
H3327 H 0.83407 0.77802 0.58625 0.0
H3328 H 0.84034 0.7968 0.59682 0.0
H3329 H 0.87659 0.81614 0.59881 0.0
H3330 H 0.89298 0.87542 0.61984 0.0
H3331 H 0.88775 0.85651 0.60942 0.0
H3332 H 0.85113 0.83754 0.60535 0.0
C3333 C 0.84594 0.79561 0.5909 0.0
C3334 C 0.871 0.8208 0.60014 0.0
C3335 C 0.84238 0.78481 0.58491 0.0
C3336 C 0.88464 0.86853 0.62068 0.0
C3337 C 0.88163 0.85769 0.61473 0.0
C3338 C 0.85674 0.8329 0.6041 0.0
C3339 C 0.85666 0.80467 0.5894 0.0
C3340 C 0.86042 0.8161 0.59585 0.0
C3341 C 0.87073 0.84875 0.61531 0.0
C3342 C 0.86726 0.83754 0.60854 0.0
H3343 H 0.86578 0.79064 0.56985 0.0
H3344 H 0.87199 0.80957 0.58032 0.0
H3345 H 0.84522 0.81902 0.59454 0.0
H3346 H 0.85984 0.86291 0.63327 0.0
H3347 H 0.85465 0.84394 0.62308 0.0
C3348 C 0.90273 0.08586 0.32562 0.0
C3349 C 0.91355 0.09293 0.32883 0.0
C3350 C 0.89382 0.08212 0.33283 0.0
C3351 C 0.88561 0.09051 0.35874 0.0
H3352 H 0.86117 0.05875 0.35681 0.0
C3353 C 0.85046 0.07534 0.38975 0.0
C3354 C 0.83958 0.07003 0.38616 0.0
C3355 C 0.85949 0.07698 0.383 0.0
C3356 C 0.8679 0.06769 0.3574 0.0
H3357 H 0.92347 0.10139 0.34221 0.0
H3358 H 0.90801 0.09463 0.35479 0.0
H3359 H 0.87703 0.06377 0.34464 0.0
H3360 H 0.82963 0.06182 0.37276 0.0
H3361 H 0.84546 0.06469 0.36092 0.0
H3362 H 0.87649 0.09449 0.37142 0.0
C3363 C 0.90637 0.09213 0.34667 0.0
C3364 C 0.87699 0.07057 0.35042 0.0
C3365 C 0.91528 0.09589 0.33946 0.0
C3366 C 0.83792 0.06588 0.37577 0.0
C3367 C 0.84698 0.06753 0.36899 0.0
C3368 C 0.87655 0.08762 0.36571 0.0
C3369 C 0.89551 0.08534 0.34343 0.0
C3370 C 0.88595 0.08203 0.351 0.0
C3371 C 0.85789 0.07334 0.37248 0.0
C3372 C 0.86758 0.07619 0.36513 0.0
H3373 H 0.90111 0.08327 0.31752 0.0
H3374 H 0.88557 0.07698 0.33003 0.0
H3375 H 0.89223 0.09951 0.35928 0.0
H3376 H 0.85201 0.07841 0.39777 0.0
H3377 H 0.86776 0.08122 0.38601 0.0
C3378 C 0.66514 0.21345 0.05425 0.0
C3379 C 0.66862 0.21493 0.04371 0.0
C3380 C 0.66224 0.20214 0.05906 0.0
C3381 C 0.66492 0.17214 0.05678 0.0
H3382 H 0.63934 0.16196 0.07571 0.0
C3383 C 0.64381 0.12321 0.07456 0.0
C3384 C 0.63986 0.12265 0.08493 0.0
C3385 C 0.64834 0.13448 0.06943 0.0
C3386 C 0.64659 0.16472 0.07055 0.0
H3387 H 0.67194 0.20564 0.03004 0.0
H3388 H 0.66662 0.18577 0.0384 0.0
H3389 H 0.64498 0.1814 0.06682 0.0
H3390 H 0.63833 0.13351 0.09829 0.0
H3391 H 0.64627 0.15309 0.0894 0.0
H3392 H 0.66638 0.15528 0.0605 0.0
C3393 C 0.66627 0.19344 0.04296 0.0
C3394 C 0.64983 0.17589 0.06545 0.0
C3395 C 0.6692 0.2048 0.03813 0.0
C3396 C 0.64112 0.13363 0.09023 0.0
C3397 C 0.64563 0.14484 0.08513 0.0
C3398 C 0.66164 0.1609 0.06189 0.0
C3399 C 0.66266 0.19196 0.05346 0.0
C3400 C 0.6591 0.17982 0.05858 0.0
C3401 C 0.64899 0.14537 0.07459 0.0
C3402 C 0.6525 0.15714 0.06893 0.0
H3403 H 0.66445 0.22098 0.05877 0.0
H3404 H 0.65966 0.20139 0.0672 0.0
H3405 H 0.67215 0.17494 0.0516 0.0
H3406 H 0.64289 0.11488 0.07027 0.0
H3407 H 0.65084 0.13458 0.06129 0.0
C3408 C 0.62219 0.91801 0.86539 0.0
C3409 C 0.61649 0.9259 0.86564 0.0
C3410 C 0.63281 0.92186 0.86938 0.0
C3411 C 0.65238 0.94515 0.88681 0.0
H3412 H 0.67463 0.93744 0.87102 0.0
C3413 C 0.69922 0.9697 0.89388 0.0
C3414 C 0.70584 0.96281 0.89297 0.0
C3415 C 0.68803 0.96445 0.89142 0.0
C3416 C 0.66848 0.93952 0.87562 0.0
H3417 H 0.61754 0.94407 0.87025 0.0
H3418 H 0.63606 0.95079 0.87718 0.0
H3419 H 0.6557 0.92975 0.865 0.0
H3420 H 0.70579 0.94488 0.88897 0.0
H3421 H 0.68619 0.93564 0.88483 0.0
H3422 H 0.66522 0.95507 0.89735 0.0
C3423 C 0.63225 0.94154 0.87406 0.0
C3424 C 0.65762 0.93511 0.87216 0.0
C3425 C 0.62163 0.93769 0.87007 0.0
C3426 C 0.70091 0.95042 0.88982 0.0
C3427 C 0.68971 0.94517 0.88733 0.0
C3428 C 0.66325 0.94957 0.89026 0.0
C3429 C 0.638 0.9337 0.87371 0.0
C3430 C 0.64945 0.93796 0.87766 0.0
C3431 C 0.68317 0.95217 0.88797 0.0
C3432 C 0.67146 0.94689 0.88466 0.0
H3433 H 0.6184 0.90879 0.86218 0.0
H3434 H 0.63693 0.91551 0.86913 0.0
H3435 H 0.64625 0.94734 0.89133 0.0
H3436 H 0.70274 0.97923 0.89639 0.0
H3437 H 0.68327 0.97015 0.89192 0.0
C3438 C 0.96549 0.29494 0.94116 0.0
C3439 C 0.96887 0.2901 0.94963 0.0
C3440 C 0.97049 0.29551 0.9313 0.0
C3441 C 0.98697 0.28162 0.91552 0.0
H3442 H 0.98929 0.30721 0.89623 0.0
C3443 C 0.00352 0.28162 0.87337 0.0
C3444 C 0.99584 0.28154 0.86598 0.0
C3445 C 1.0024 0.28491 0.88376 0.0
C3446 C 0.98874 0.30004 0.90156 0.0
H3447 H 0.98042 0.28227 0.9543 0.0
H3448 H 0.98943 0.28371 0.93721 0.0
H3449 H 0.98322 0.30848 0.91425 0.0
H3450 H 0.98194 0.28666 0.86349 0.0
H3451 H 0.98001 0.2924 0.88153 0.0
H3452 H 0.99245 0.27319 0.90276 0.0
C3453 C 0.98271 0.28682 0.93815 0.0
C3454 C 0.98518 0.3007 0.91187 0.0
C3455 C 0.97763 0.28615 0.94801 0.0
C3456 C 0.98776 0.28614 0.86901 0.0
C3457 C 0.98673 0.28958 0.87935 0.0
C3458 C 0.99065 0.28105 0.90525 0.0
C3459 C 0.97913 0.29138 0.92962 0.0
C3460 C 0.984 0.29135 0.91894 0.0
C3461 C 0.99376 0.28854 0.88691 0.0
C3462 C 0.99135 0.29012 0.8981 0.0
H3463 H 0.95891 0.29828 0.94212 0.0
H3464 H 0.96737 0.29892 0.92493 0.0
H3465 H 0.98603 0.27415 0.92065 0.0
H3466 H 0.01003 0.2785 0.87129 0.0
H3467 H 0.00806 0.28421 0.8894 0.0
C3468 C 0.68809 0.19976 0.62636 0.0
C3469 C 0.69375 0.21189 0.62305 0.0
C3470 C 0.69114 0.19039 0.62243 0.0
C3471 C 0.7057 0.18309 0.59966 0.0
H3472 H 0.70035 0.1537 0.61538 0.0
C3473 C 0.69186 0.13017 0.58874 0.0
C3474 C 0.6994 0.13076 0.58054 0.0
C3475 C 0.69401 0.14004 0.59571 0.0
C3476 C 0.70198 0.1619 0.61094 0.0
H3477 H 0.70735 0.22385 0.61338 0.0
H3478 H 0.71293 0.20756 0.60671 0.0
H3479 H 0.69894 0.17161 0.62417 0.0
H3480 H 0.71536 0.14168 0.5735 0.0
H3481 H 0.71911 0.15908 0.58565 0.0
H3482 H 0.70859 0.1733 0.58642 0.0
C3483 C 0.70592 0.20519 0.61213 0.0
C3484 C 0.70108 0.17214 0.61593 0.0
C3485 C 0.70276 0.21454 0.61596 0.0
C3486 C 0.70949 0.14099 0.57985 0.0
C3487 C 0.71158 0.15096 0.58673 0.0
C3488 C 0.70674 0.17293 0.59472 0.0
C3489 C 0.70003 0.19294 0.61517 0.0
C3490 C 0.70258 0.18273 0.61028 0.0
C3491 C 0.70367 0.15074 0.59449 0.0
C3492 C 0.70458 0.16212 0.60023 0.0
H3493 H 0.68103 0.19743 0.63173 0.0
H3494 H 0.68624 0.18107 0.62481 0.0
H3495 H 0.70676 0.19096 0.59499 0.0
H3496 H 0.68398 0.12241 0.58934 0.0
H3497 H 0.68772 0.13965 0.60155 0.0
C3498 C 0.53397 0.6858 0.47494 0.0
C3499 C 0.53896 0.69247 0.48391 0.0
C3500 C 0.5284 0.69041 0.46825 0.0
C3501 C 0.52895 0.7201 0.4603 0.0
H3502 H 0.50346 0.70041 0.44421 0.0
C3503 C 0.51529 0.74241 0.42792 0.0
C3504 C 0.51356 0.73601 0.41837 0.0
C3505 C 0.51536 0.73646 0.43713 0.0
C3506 C 0.51059 0.70603 0.44864 0.0
H3507 H 0.54149 0.70897 0.49308 0.0
H3508 H 0.53156 0.71681 0.48157 0.0
H3509 H 0.50936 0.691 0.45828 0.0
H3510 H 0.50983 0.71828 0.41095 0.0
H3511 H 0.5102 0.70787 0.427 0.0
H3512 H 0.53055 0.73498 0.45051 0.0
C3513 C 0.53212 0.70811 0.47963 0.0
C3514 C 0.51396 0.70064 0.45669 0.0
C3515 C 0.53771 0.70353 0.4863 0.0
C3516 C 0.51109 0.72336 0.41826 0.0
C3517 C 0.5113 0.71741 0.42746 0.0
C3518 C 0.52562 0.72546 0.45228 0.0
C3519 C 0.52767 0.70179 0.47037 0.0
C3520 C 0.52329 0.70759 0.46252 0.0
C3521 C 0.51391 0.72403 0.43694 0.0
C3522 C 0.5165 0.71848 0.44623 0.0
H3523 H 0.53463 0.67716 0.47295 0.0
H3524 H 0.52512 0.68533 0.46116 0.0
H3525 H 0.5363 0.72568 0.46447 0.0
H3526 H 0.51716 0.75218 0.42817 0.0
H3527 H 0.51711 0.74176 0.44432 0.0
C3528 C 0.81082 0.76357 0.15167 0.0
C3529 C 0.81225 0.75299 0.1479 0.0
C3530 C 0.80678 0.77013 0.14522 0.0
C3531 C 0.80812 0.77682 0.11778 0.0
H3532 H 0.78936 0.79441 0.12527 0.0
C3533 C 0.81169 0.81963 0.09619 0.0
C3534 C 0.80194 0.81961 0.092 0.0
C3535 C 0.81123 0.81088 0.10344 0.0
C3536 C 0.79455 0.78947 0.12307 0.0
H3537 H 0.80944 0.74034 0.13477 0.0
H3538 H 0.80263 0.75191 0.12349 0.0
H3539 H 0.7907 0.77922 0.13727 0.0
H3540 H 0.78402 0.81061 0.09247 0.0
H3541 H 0.78324 0.7954 0.10539 0.0
H3542 H 0.81228 0.78727 0.10381 0.0
C3543 C 0.80481 0.75523 0.13137 0.0
C3544 C 0.79535 0.78084 0.12993 0.0
C3545 C 0.80878 0.74865 0.13781 0.0
C3546 C 0.79166 0.81096 0.09563 0.0
C3547 C 0.7912 0.80224 0.103 0.0
C3548 C 0.80745 0.78551 0.11104 0.0
C3549 C 0.80417 0.76628 0.13487 0.0
C3550 C 0.80225 0.77453 0.12737 0.0
C3551 C 0.80101 0.80197 0.10678 0.0
C3552 C 0.80082 0.79207 0.11369 0.0
H3553 H 0.81341 0.7672 0.15939 0.0
H3554 H 0.80639 0.77862 0.14814 0.0
H3555 H 0.81362 0.77224 0.11563 0.0
H3556 H 0.81973 0.82632 0.09375 0.0
H3557 H 0.81891 0.81098 0.10635 0.0
C3558 C 0.1919 0.70959 0.12868 0.0
C3559 C 0.18333 0.70588 0.13629 0.0
C3560 C 0.19584 0.70112 0.12419 0.0
C3561 C 0.19448 0.66907 0.12689 0.0
H3562 H 0.20031 0.67154 0.09708 0.0
C3563 C 0.18783 0.62849 0.09858 0.0
C3564 C 0.19502 0.63029 0.08987 0.0
C3565 C 0.18948 0.63796 0.10588 0.0
C3566 C 0.19895 0.67083 0.10544 0.0
H3567 H 0.17217 0.69044 0.1452 0.0
H3568 H 0.1787 0.67559 0.13715 0.0
H3569 H 0.19702 0.68791 0.10646 0.0
H3570 H 0.20988 0.64296 0.08218 0.0
H3571 H 0.21276 0.65963 0.09494 0.0
H3572 H 0.1957 0.65152 0.12562 0.0
C3573 C 0.18269 0.68508 0.13484 0.0
C3574 C 0.19706 0.68025 0.11085 0.0
C3575 C 0.17887 0.69358 0.13942 0.0
C3576 C 0.20434 0.64134 0.08895 0.0
C3577 C 0.20591 0.65089 0.09617 0.0
C3578 C 0.19622 0.65956 0.12143 0.0
C3579 C 0.19117 0.6887 0.12709 0.0
C3580 C 0.19454 0.67938 0.12161 0.0
C3581 C 0.19823 0.64945 0.10447 0.0
C3582 C 0.19825 0.66024 0.11061 0.0
H3583 H 0.19558 0.71905 0.12621 0.0
H3584 H 0.20251 0.70432 0.11839 0.0
H3585 H 0.19283 0.66818 0.1352 0.0
H3586 H 0.18049 0.62009 0.09932 0.0
H3587 H 0.18337 0.63662 0.11213 0.0
C3588 C 0.03216 0.19415 0.9603 0.0
C3589 C 0.03807 0.20038 0.96904 0.0
C3590 C 0.02751 0.19996 0.95373 0.0
C3591 C 0.03218 0.23088 0.94532 0.0
H3592 H 0.00454 0.21467 0.93109 0.0
C3593 C 0.02052 0.25601 0.91351 0.0
C3594 C 0.01697 0.24922 0.90426 0.0
C3595 C 0.02065 0.25008 0.92273 0.0
C3596 C 0.01229 0.21932 0.93498 0.0
H3597 H 0.04334 0.21745 0.97793 0.0
H3598 H 0.03509 0.22748 0.96658 0.0
H3599 H 0.00941 0.20401 0.94488 0.0
H3600 H 0.01017 0.23092 0.89749 0.0
H3601 H 0.0106 0.22056 0.9135 0.0
H3602 H 0.03537 0.24596 0.93523 0.0
C3603 C 0.03415 0.21815 0.96475 0.0
C3604 C 0.01507 0.21321 0.94288 0.0
C3605 C 0.03879 0.21234 0.97132 0.0
C3606 C 0.01287 0.23636 0.90454 0.0
C3607 C 0.01311 0.23043 0.91374 0.0
C3608 C 0.02945 0.23695 0.93742 0.0
C3609 C 0.02869 0.21213 0.95575 0.0
C3610 C 0.02513 0.21888 0.94804 0.0
C3611 C 0.01737 0.23725 0.92285 0.0
C3612 C 0.01954 0.2312 0.93203 0.0
H3613 H 0.03134 0.18487 0.95841 0.0
H3614 H 0.02342 0.19509 0.94682 0.0
H3615 H 0.04009 0.23543 0.94899 0.0
H3616 H 0.0236 0.26594 0.91351 0.0
H3617 H 0.02372 0.2556 0.92966 0.0
C3618 C 0.31861 0.29453 0.63074 0.0
C3619 C 0.31602 0.28224 0.62769 0.0
C3620 C 0.31594 0.30239 0.62447 0.0
C3621 C 0.29967 0.30343 0.6016 0.0
H3622 H 0.3241 0.33468 0.59682 0.0
C3623 C 0.30634 0.33047 0.56378 0.0
C3624 C 0.3115 0.34334 0.56406 0.0
C3625 C 0.30458 0.32373 0.5729 0.0
C3626 C 0.31707 0.32613 0.59821 0.0
H3627 H 0.3079 0.26838 0.616 0.0
H3628 H 0.30347 0.28215 0.60494 0.0
H3629 H 0.32527 0.32137 0.61038 0.0
H3630 H 0.31825 0.35931 0.57417 0.0
H3631 H 0.31511 0.34752 0.5902 0.0
H3632 H 0.29167 0.30805 0.58911 0.0
C3633 C 0.30751 0.28571 0.61222 0.0
C3634 C 0.31775 0.31847 0.606 0.0
C3635 C 0.31018 0.27784 0.61849 0.0
C3636 C 0.31424 0.3494 0.57374 0.0
C3637 C 0.31253 0.34264 0.58289 0.0
C3638 C 0.299 0.3111 0.59379 0.0
C3639 C 0.31062 0.29817 0.615 0.0
C3640 C 0.30918 0.30689 0.60763 0.0
C3641 C 0.30797 0.32971 0.58252 0.0
C3642 C 0.30782 0.32242 0.59183 0.0
H3643 H 0.32316 0.29826 0.63774 0.0
H3644 H 0.31831 0.31188 0.62693 0.0
H3645 H 0.29283 0.29467 0.60277 0.0
H3646 H 0.30405 0.32557 0.55643 0.0
H3647 H 0.30114 0.31381 0.57229 0.0
C3648 C 0.16924 0.705 0.55206 0.0
C3649 C 0.16857 0.71547 0.55698 0.0
C3650 C 0.16579 0.69386 0.55734 0.0
C3651 C 0.14798 0.67759 0.57971 0.0
H3652 H 0.16439 0.65655 0.57734 0.0
C3653 C 0.13829 0.63718 0.60706 0.0
C3654 C 0.13716 0.62584 0.60252 0.0
C3655 C 0.14286 0.64796 0.60135 0.0
C3656 C 0.15968 0.66229 0.578 0.0
H3657 H 0.16363 0.72232 0.5713 0.0
H3658 H 0.15795 0.70311 0.58054 0.0
H3659 H 0.17077 0.67565 0.56753 0.0
H3660 H 0.14047 0.617 0.58856 0.0
H3661 H 0.14856 0.63595 0.57854 0.0
H3662 H 0.13695 0.66436 0.59021 0.0
C3663 C 0.16101 0.70343 0.57257 0.0
C3664 C 0.16332 0.67322 0.57237 0.0
C3665 C 0.16442 0.71452 0.5673 0.0
C3666 C 0.14127 0.62561 0.59228 0.0
C3667 C 0.14588 0.63645 0.58655 0.0
C3668 C 0.1444 0.66675 0.58535 0.0
C3669 C 0.16156 0.69293 0.56764 0.0
C3670 C 0.15757 0.68106 0.57325 0.0
C3671 C 0.14646 0.64769 0.59095 0.0
C3672 C 0.15026 0.65903 0.58465 0.0
H3673 H 0.17249 0.70543 0.54415 0.0
H3674 H 0.16626 0.68594 0.55329 0.0
H3675 H 0.14319 0.68324 0.58038 0.0
H3676 H 0.13542 0.63769 0.615 0.0
H3677 H 0.14343 0.65651 0.60504 0.0
C3678 C 0.35799 0.28331 0.07198 0.0
C3679 C 0.35253 0.28298 0.06268 0.0
C3680 C 0.36129 0.29372 0.07848 0.0
C3681 C 0.35566 0.3216 0.08428 0.0
H3682 H 0.38356 0.33266 0.09847 0.0
C3683 C 0.37329 0.36828 0.10548 0.0
C3684 C 0.37734 0.36857 0.11551 0.0
C3685 C 0.3707 0.35785 0.09911 0.0
C3686 C 0.3757 0.32961 0.09463 0.0
H3687 H 0.3463 0.29342 0.05296 0.0
H3688 H 0.35235 0.31166 0.0641 0.0
H3689 H 0.3782 0.3145 0.08711 0.0
H3690 H 0.38217 0.3582 0.12657 0.0
H3691 H 0.37776 0.33995 0.11535 0.0
H3692 H 0.35322 0.33677 0.0917 0.0
C3693 C 0.35392 0.30379 0.06647 0.0
C3694 C 0.37261 0.31919 0.08813 0.0
C3695 C 0.35057 0.29337 0.06 0.0
C3696 C 0.37913 0.3583 0.11887 0.0
C3697 C 0.37658 0.34785 0.11245 0.0
C3698 C 0.35877 0.33203 0.09071 0.0
C3699 C 0.35926 0.30408 0.07583 0.0
C3700 C 0.36256 0.31509 0.08284 0.0
C3701 C 0.37217 0.34746 0.10257 0.0
C3702 C 0.36885 0.33619 0.09592 0.0
H3703 H 0.35977 0.27554 0.07423 0.0
H3704 H 0.36529 0.29356 0.08566 0.0
H3705 H 0.34776 0.31857 0.08052 0.0
H3706 H 0.37208 0.37614 0.10253 0.0
H3707 H 0.36755 0.35794 0.09145 0.0
C3708 C 0.59403 0.4135 0.16313 0.0
C3709 C 0.58943 0.40175 0.1675 0.0
C3710 C 0.60434 0.41754 0.15792 0.0
C3711 C 0.62413 0.40659 0.14449 0.0
H3712 H 0.64524 0.43977 0.14976 0.0
C3713 C 0.66979 0.42471 0.12909 0.0
C3714 C 0.67457 0.43696 0.12585 0.0
C3715 C 0.65922 0.42005 0.13386 0.0
C3716 C 0.6394 0.43053 0.14808 0.0
H3717 H 0.59197 0.38496 0.16969 0.0
H3718 H 0.61005 0.39206 0.16065 0.0
H3719 H 0.62721 0.43239 0.15873 0.0
H3720 H 0.6718 0.45375 0.12455 0.0
H3721 H 0.65336 0.44562 0.13271 0.0
H3722 H 0.63632 0.40477 0.13379 0.0
C3723 C 0.60564 0.39812 0.16122 0.0
C3724 C 0.62906 0.4263 0.15324 0.0
C3725 C 0.59535 0.3941 0.16649 0.0
C3726 C 0.66842 0.44434 0.12715 0.0
C3727 C 0.65787 0.43968 0.13186 0.0
C3728 C 0.63447 0.41085 0.13928 0.0
C3729 C 0.61027 0.40991 0.15692 0.0
C3730 C 0.6213 0.4143 0.15148 0.0
C3731 C 0.6532 0.42754 0.13543 0.0
C3732 C 0.64221 0.42289 0.14099 0.0
H3733 H 0.58973 0.41966 0.16386 0.0
H3734 H 0.60764 0.42663 0.15461 0.0
H3735 H 0.61828 0.39734 0.14288 0.0
H3736 H 0.67437 0.41884 0.12825 0.0
H3737 H 0.65592 0.41069 0.1366 0.0
C3738 C 0.90122 0.57252 0.66816 0.0
C3739 C 0.91129 0.58134 0.66436 0.0
C3740 C 0.89183 0.56836 0.66207 0.0
C3741 C 0.87943 0.57707 0.63997 0.0
H3742 H 0.85928 0.54285 0.64078 0.0
C3743 C 0.83429 0.55961 0.62601 0.0
C3744 C 0.82981 0.54796 0.62122 0.0
C3745 C 0.84488 0.56394 0.63017 0.0
C3746 C 0.86486 0.55241 0.64035 0.0
H3747 H 0.9194 0.59263 0.6511 0.0
H3748 H 0.90299 0.58523 0.64036 0.0
H3749 H 0.8766 0.54957 0.64994 0.0
H3750 H 0.83316 0.532 0.61651 0.0
H3751 H 0.85163 0.53956 0.62368 0.0
H3752 H 0.86768 0.57988 0.63032 0.0
C3753 C 0.90236 0.58163 0.64812 0.0
C3754 C 0.87475 0.55629 0.64572 0.0
C3755 C 0.91179 0.58577 0.65423 0.0
C3756 C 0.8363 0.54092 0.62033 0.0
C3757 C 0.84688 0.54525 0.62445 0.0
C3758 C 0.86952 0.57319 0.6346 0.0
C3759 C 0.89225 0.57291 0.652 0.0
C3760 C 0.88209 0.56869 0.6457 0.0
C3761 C 0.85122 0.55672 0.6296 0.0
C3762 C 0.86206 0.56082 0.6348 0.0
H3763 H 0.90058 0.56881 0.67588 0.0
H3764 H 0.88416 0.56175 0.66534 0.0
H3765 H 0.88486 0.5867 0.63986 0.0
H3766 H 0.82946 0.56521 0.6269 0.0
H3767 H 0.8479 0.57275 0.63418 0.0
C3768 C 0.53444 0.20454 0.54613 0.0
C3769 C 0.54298 0.20018 0.54508 0.0
C3770 C 0.52995 0.20567 0.55596 0.0
C3771 C 0.53743 0.20944 0.58356 0.0
H3772 H 0.50645 0.20346 0.58871 0.0
C3773 C 0.52227 0.21697 0.62429 0.0
C3774 C 0.5159 0.22415 0.62482 0.0
C3775 C 0.52392 0.21175 0.61485 0.0
C3776 C 0.51512 0.2052 0.58737 0.0
H3777 H 0.55329 0.1933 0.55361 0.0
H3778 H 0.54526 0.19493 0.57064 0.0
H3779 H 0.51262 0.19877 0.57154 0.0
H3780 H 0.50554 0.23057 0.61603 0.0
H3781 H 0.50849 0.22162 0.59949 0.0
H3782 H 0.54003 0.21608 0.59925 0.0
C3783 C 0.54215 0.19768 0.56388 0.0
C3784 C 0.51867 0.20254 0.57754 0.0
C3785 C 0.54666 0.19659 0.55408 0.0
C3786 C 0.51048 0.22513 0.61588 0.0
C3787 C 0.51218 0.21997 0.60638 0.0
C3788 C 0.5339 0.21207 0.59335 0.0
C3789 C 0.53388 0.20244 0.56497 0.0
C3790 C 0.52988 0.20469 0.57551 0.0
C3791 C 0.51928 0.21362 0.60569 0.0
C3792 C 0.52272 0.21003 0.59539 0.0
H3793 H 0.53129 0.20723 0.53935 0.0
H3794 H 0.52365 0.20945 0.55651 0.0
H3795 H 0.54616 0.21149 0.58222 0.0
H3796 H 0.52642 0.2159 0.6311 0.0
H3797 H 0.5292 0.20664 0.61464 0.0
C3798 C 0.41238 0.61495 0.84381 0.0
C3799 C 0.41905 0.60811 0.84303 0.0
C3800 C 0.40305 0.61133 0.85047 0.0
C3801 C 0.38283 0.58462 0.86434 0.0
H3802 H 0.37674 0.60957 0.8804 0.0
C3803 C 0.34818 0.57379 0.89665 0.0
C3804 C 0.34262 0.58179 0.89767 0.0
C3805 C 0.3571 0.57624 0.88953 0.0
C3806 C 0.37822 0.60249 0.87586 0.0
H3807 H 0.42113 0.59208 0.84868 0.0
H3808 H 0.40484 0.58581 0.86046 0.0
H3809 H 0.39334 0.61545 0.86928 0.0
H3810 H 0.3415 0.59811 0.89153 0.0
H3811 H 0.35689 0.60229 0.87901 0.0
H3812 H 0.36765 0.57166 0.87096 0.0
C3813 C 0.40682 0.59393 0.85581 0.0
C3814 C 0.38777 0.60587 0.8695 0.0
C3815 C 0.4162 0.59759 0.84915 0.0
C3816 C 0.34575 0.5919 0.89103 0.0
C3817 C 0.35461 0.59432 0.8839 0.0
C3818 C 0.37324 0.58123 0.87071 0.0
C3819 C 0.40014 0.60077 0.85654 0.0
C3820 C 0.39016 0.597 0.8636 0.0
C3821 C 0.3606 0.58673 0.88326 0.0
C3822 C 0.37078 0.59015 0.87648 0.0
H3823 H 0.41441 0.62318 0.83929 0.0
H3824 H 0.39804 0.61674 0.85076 0.0
H3825 H 0.38438 0.57758 0.85981 0.0
H3826 H 0.34601 0.56599 0.90173 0.0
H3827 H 0.36156 0.57024 0.88927 0.0
C3828 C 0.12426 0.43761 0.35646 0.0
C3829 C 0.11916 0.42592 0.35184 0.0
C3830 C 0.13503 0.44157 0.3601 0.0
C3831 C 0.1607 0.43584 0.35693 0.0
H3832 H 0.16864 0.45494 0.38254 0.0
C3833 C 0.20444 0.45123 0.37384 0.0
C3834 C 0.20922 0.46346 0.37742 0.0
C3835 C 0.19324 0.44595 0.37134 0.0
C3836 C 0.16658 0.44969 0.37533 0.0
H3837 H 0.12132 0.40911 0.34766 0.0
H3838 H 0.14011 0.41602 0.35401 0.0
H3839 H 0.14951 0.44708 0.37697 0.0
H3840 H 0.20587 0.47958 0.38155 0.0
H3841 H 0.18642 0.47046 0.37706 0.0
H3842 H 0.17779 0.43855 0.35524 0.0
C3843 C 0.13584 0.4222 0.35467 0.0
C3844 C 0.15561 0.44519 0.37213 0.0
C3845 C 0.12506 0.41824 0.35103 0.0
C3846 C 0.20248 0.47018 0.37869 0.0
C3847 C 0.19129 0.4649 0.37622 0.0
C3848 C 0.17167 0.44033 0.36014 0.0
C3849 C 0.14098 0.43394 0.35921 0.0
C3850 C 0.15255 0.4383 0.36284 0.0
C3851 C 0.18655 0.45276 0.37243 0.0
C3852 C 0.17476 0.44741 0.36933 0.0
H3853 H 0.12001 0.44383 0.35707 0.0
H3854 H 0.1388 0.45074 0.3634 0.0
H3855 H 0.15867 0.43071 0.34966 0.0
H3856 H 0.20942 0.44582 0.37272 0.0
H3857 H 0.18981 0.43653 0.36854 0.0
C3858 C 0.4798 0.80395 0.46839 0.0
C3859 C 0.47476 0.7936 0.47471 0.0
C3860 C 0.48506 0.80306 0.45889 0.0
C3861 C 0.48453 0.78032 0.4387 0.0
H3862 H 0.51286 0.80464 0.42931 0.0
C3863 C 0.50498 0.77177 0.40123 0.0
C3864 C 0.5094 0.7815 0.39425 0.0
C3865 C 0.5024 0.77386 0.41152 0.0
C3866 C 0.50491 0.79782 0.43179 0.0
H3867 H 0.47132 0.77421 0.47599 0.0
H3868 H 0.48053 0.7727 0.45955 0.0
H3869 H 0.50491 0.80723 0.44632 0.0
H3870 H 0.51507 0.80116 0.39259 0.0
H3871 H 0.51026 0.80491 0.41063 0.0
H3872 H 0.48429 0.77102 0.42422 0.0
C3873 C 0.48039 0.7815 0.46189 0.0
C3874 C 0.50036 0.79931 0.44153 0.0
C3875 C 0.47521 0.78239 0.47138 0.0
C3876 C 0.51176 0.79352 0.39789 0.0
C3877 C 0.509 0.79564 0.40821 0.0
C3878 C 0.48902 0.77887 0.429 0.0
C3879 C 0.48528 0.79178 0.45549 0.0
C3880 C 0.49016 0.7905 0.44511 0.0
C3881 C 0.50391 0.78575 0.41503 0.0
C3882 C 0.49931 0.78752 0.42544 0.0
H3883 H 0.47968 0.81274 0.47078 0.0
H3884 H 0.48869 0.81113 0.4541 0.0
H3885 H 0.47654 0.77352 0.44112 0.0
H3886 H 0.50301 0.76244 0.3986 0.0
H3887 H 0.49879 0.76606 0.41661 0.0
C3888 C 0.07914 0.23537 0.06647 0.0
C3889 C 0.07026 0.22401 0.06502 0.0
C3890 C 0.07991 0.24212 0.07573 0.0
C3891 C 0.06237 0.24565 0.09764 0.0
H3892 H 0.09039 0.26411 0.11063 0.0
C3893 C 0.06448 0.26931 0.13766 0.0
C3894 C 0.07262 0.28115 0.13883 0.0
C3895 C 0.06457 0.26225 0.1288 0.0
C3896 C 0.08251 0.2591 0.10703 0.0
H3897 H 0.05553 0.21055 0.07235 0.0
H3898 H 0.05691 0.22224 0.08852 0.0
H3899 H 0.08996 0.25171 0.09501 0.0
H3900 H 0.0873 0.29504 0.13192 0.0
H3901 H 0.08749 0.28272 0.1163 0.0
H3902 H 0.05491 0.25303 0.10961 0.0
C3903 C 0.06315 0.22609 0.08241 0.0
C3904 C 0.08226 0.25199 0.09809 0.0
C3905 C 0.06236 0.21937 0.07316 0.0
C3906 C 0.08096 0.28588 0.13112 0.0
C3907 C 0.08108 0.27881 0.12224 0.0
C3908 C 0.06261 0.25273 0.10657 0.0
C3909 C 0.07182 0.23764 0.08375 0.0
C3910 C 0.07218 0.24515 0.09331 0.0
C3911 C 0.07283 0.26694 0.12095 0.0
C3912 C 0.07268 0.25951 0.11139 0.0
H3913 H 0.08528 0.23927 0.0603 0.0
H3914 H 0.08663 0.25103 0.07645 0.0
H3915 H 0.05448 0.24072 0.09404 0.0
H3916 H 0.05801 0.26552 0.14358 0.0
H3917 H 0.0582 0.25309 0.12813 0.0
C3918 C 0.81656 0.74245 0.25463 0.0
C3919 C 0.81706 0.7322 0.24919 0.0
C3920 C 0.81351 0.74171 0.26521 0.0
C3921 C 0.81105 0.72325 0.28871 0.0
H3922 H 0.7915 0.73882 0.29898 0.0
C3923 C 0.7914 0.71451 0.33001 0.0
C3924 C 0.79144 0.72476 0.33572 0.0
C3925 C 0.79417 0.71547 0.31938 0.0
C3926 C 0.79705 0.73452 0.29625 0.0
H3927 H 0.8147 0.71313 0.2506 0.0
H3928 H 0.80934 0.71181 0.26904 0.0
H3929 H 0.79729 0.74046 0.28062 0.0
H3930 H 0.79419 0.74396 0.33505 0.0
H3931 H 0.79906 0.74572 0.31637 0.0
H3932 H 0.81078 0.71727 0.30431 0.0
C3933 C 0.81147 0.72049 0.26517 0.0
C3934 C 0.80038 0.73548 0.28573 0.0
C3935 C 0.81455 0.72124 0.2546 0.0
C3936 C 0.79404 0.73593 0.3307 0.0
C3937 C 0.7968 0.73691 0.32003 0.0
C3938 C 0.8077 0.72228 0.2992 0.0
C3939 C 0.81086 0.7307 0.2706 0.0
C3940 C 0.80741 0.72983 0.28182 0.0
C3941 C 0.79706 0.72672 0.31428 0.0
C3942 C 0.80063 0.72786 0.3031 0.0
H3943 H 0.8186 0.75109 0.25073 0.0
H3944 H 0.81332 0.74981 0.26918 0.0
H3945 H 0.81663 0.71898 0.28601 0.0
H3946 H 0.78944 0.70582 0.33381 0.0
H3947 H 0.79412 0.70741 0.31515 0.0
C3948 C 0.4278 0.75359 0.56787 0.0
C3949 C 0.42772 0.76523 0.57017 0.0
C3950 C 0.42825 0.746 0.57584 0.0
C3951 C 0.42274 0.74082 0.60412 0.0
H3952 H 0.44033 0.72119 0.60025 0.0
C3953 C 0.42824 0.71161 0.63716 0.0
C3954 C 0.4273 0.69967 0.6344 0.0
C3955 C 0.4289 0.72005 0.62949 0.0
C3956 C 0.43531 0.72654 0.60142 0.0
H3957 H 0.42826 0.7781 0.58268 0.0
H3958 H 0.42908 0.76488 0.59658 0.0
H3959 H 0.44031 0.73508 0.58659 0.0
H3960 H 0.42665 0.68739 0.62138 0.0
H3961 H 0.42766 0.70204 0.60802 0.0
H3962 H 0.4177 0.73223 0.61894 0.0
C3963 C 0.42861 0.76153 0.58861 0.0
C3964 C 0.43529 0.73449 0.59358 0.0
C3965 C 0.42815 0.76912 0.58064 0.0
C3966 C 0.42725 0.69646 0.62378 0.0
C3967 C 0.42794 0.70491 0.61611 0.0
C3968 C 0.42277 0.73288 0.61197 0.0
C3969 C 0.42864 0.74986 0.58631 0.0
C3970 C 0.42894 0.74168 0.5948 0.0
C3971 C 0.42869 0.71677 0.61887 0.0
C3972 C 0.429 0.72558 0.61069 0.0
H3973 H 0.4273 0.75023 0.5599 0.0
H3974 H 0.42807 0.737 0.57378 0.0
H3975 H 0.41763 0.74607 0.60527 0.0
H3976 H 0.42823 0.71434 0.64527 0.0
H3977 H 0.42959 0.72915 0.63187 0.0
C3978 C 0.70297 0.26212 0.717 0.0
C3979 C 0.70233 0.27175 0.71128 0.0
C3980 C 0.70459 0.26337 0.7277 0.0
C3981 C 0.70225 0.28128 0.75106 0.0
H3982 H 0.72069 0.26626 0.76272 0.0
C3983 C 0.71384 0.28478 0.79492 0.0
C3984 C 0.71278 0.27363 0.79937 0.0
C3985 C 0.71267 0.28551 0.78418 0.0
C3986 C 0.71548 0.27046 0.75959 0.0
H3987 H 0.70279 0.29024 0.71235 0.0
H3988 H 0.70579 0.29251 0.73113 0.0
H3989 H 0.71883 0.26609 0.74395 0.0
H3990 H 0.70906 0.25436 0.79606 0.0
H3991 H 0.70729 0.25572 0.77742 0.0
H3992 H 0.69901 0.2857 0.76683 0.0
C3993 C 0.70492 0.28393 0.72731 0.0
C3994 C 0.71438 0.27033 0.74882 0.0
C3995 C 0.70322 0.28265 0.71656 0.0
C3996 C 0.71024 0.26318 0.79288 0.0
C3997 C 0.70919 0.26394 0.78219 0.0
C3998 C 0.70344 0.2815 0.76187 0.0
C3999 C 0.70569 0.27431 0.733 0.0
C4000 C 0.70756 0.27549 0.74442 0.0
C4001 C 0.71052 0.27513 0.7777 0.0
C4002 C 0.70989 0.27586 0.76624 0.0
H4003 H 0.70204 0.2535 0.71322 0.0
H4004 H 0.70483 0.25564 0.73185 0.0
H4005 H 0.69688 0.28528 0.74795 0.0
H4006 H 0.71586 0.29302 0.79966 0.0
H4007 H 0.71377 0.29426 0.78091 0.0
C4008 C 0.19176 0.75354 0.45081 0.0
C4009 C 0.19746 0.763 0.45788 0.0
C4010 C 0.19466 0.75459 0.4402 0.0
C4011 C 0.20895 0.77729 0.41987 0.0
H4012 H 0.20947 0.74886 0.40452 0.0
C4013 C 0.22321 0.78029 0.37662 0.0
C4014 C 0.21664 0.77071 0.37013 0.0
C4015 C 0.2218 0.77927 0.38745 0.0
C4016 C 0.20928 0.75686 0.40867 0.0
H4017 H 0.21073 0.78101 0.45928 0.0
H4018 H 0.21576 0.78287 0.44074 0.0
H4019 H 0.20501 0.74738 0.42315 0.0
H4020 H 0.20361 0.75255 0.36961 0.0
H4021 H 0.20106 0.75071 0.38853 0.0
H4022 H 0.21309 0.78674 0.40537 0.0
C4023 C 0.20897 0.77467 0.44341 0.0
C4024 C 0.20672 0.75601 0.41935 0.0
C4025 C 0.20607 0.77361 0.45404 0.0
C4026 C 0.20884 0.75998 0.37453 0.0
C4027 C 0.20742 0.75894 0.38536 0.0
C4028 C 0.21151 0.77814 0.40918 0.0
C4029 C 0.20333 0.76514 0.43637 0.0
C4030 C 0.20643 0.76618 0.42507 0.0
C4031 C 0.21376 0.76866 0.39195 0.0
C4032 C 0.21162 0.76791 0.40343 0.0
H4033 H 0.18496 0.74533 0.45346 0.0
H4034 H 0.19001 0.74718 0.43497 0.0
H4035 H 0.20866 0.78526 0.424 0.0
H4036 H 0.22923 0.78867 0.37332 0.0
H4037 H 0.22692 0.78685 0.39229 0.0
C4038 C 0.57795 0.87255 0.76915 0.0
C4039 C 0.57364 0.86631 0.77849 0.0
C4040 C 0.57805 0.86604 0.75994 0.0
C4041 C 0.57868 0.8368 0.75073 0.0
H4042 H 0.57243 0.84674 0.72399 0.0
C4043 C 0.59398 0.82324 0.71165 0.0
C4044 C 0.58678 0.82004 0.70325 0.0
C4045 C 0.59108 0.82766 0.72099 0.0
C4046 C 0.57408 0.84376 0.73141 0.0
H4047 H 0.5659 0.84835 0.78545 0.0
H4048 H 0.56606 0.83696 0.76933 0.0
H4049 H 0.56939 0.85686 0.73992 0.0
H4050 H 0.57083 0.81877 0.69808 0.0
H4051 H 0.56574 0.82654 0.71447 0.0
H4052 H 0.58353 0.82382 0.74221 0.0
C4053 C 0.56939 0.8469 0.76916 0.0
C4054 C 0.57244 0.84963 0.74052 0.0
C4055 C 0.56921 0.85341 0.77836 0.0
C4056 C 0.57651 0.82111 0.70445 0.0
C4057 C 0.57364 0.82564 0.71379 0.0
C4058 C 0.5804 0.83099 0.74162 0.0
C4059 C 0.57392 0.85315 0.75988 0.0
C4060 C 0.57485 0.84632 0.75027 0.0
C4061 C 0.58094 0.82905 0.72213 0.0
C4062 C 0.57825 0.83451 0.73185 0.0
H4063 H 0.58132 0.88249 0.76899 0.0
H4064 H 0.58168 0.87112 0.75294 0.0
H4065 H 0.58069 0.8341 0.75811 0.0
H4066 H 0.60191 0.82242 0.71097 0.0
H4067 H 0.59692 0.83031 0.72724 0.0
C4068 C 0.32256 0.26198 0.95652 0.0
C4069 C 0.31941 0.25076 0.96171 0.0
C4070 C 0.31997 0.26225 0.9461 0.0
C4071 C 0.30137 0.24353 0.92553 0.0
H4072 H 0.32278 0.26723 0.90718 0.0
C4073 C 0.29067 0.25236 0.88408 0.0
C4074 C 0.29891 0.2548 0.87616 0.0
C4075 C 0.29311 0.25149 0.89445 0.0
C4076 C 0.31675 0.26046 0.91216 0.0
H4077 H 0.31091 0.23102 0.95997 0.0
H4078 H 0.3067 0.23147 0.94173 0.0
H4079 H 0.32724 0.26631 0.92526 0.0
H4080 H 0.3162 0.25815 0.87301 0.0
H4081 H 0.32036 0.25623 0.89102 0.0
H4082 H 0.291 0.23746 0.91234 0.0
C4083 C 0.31104 0.24009 0.94576 0.0
C4084 C 0.31924 0.26005 0.92258 0.0
C4085 C 0.31359 0.23982 0.9562 0.0
C4086 C 0.30961 0.25614 0.87887 0.0
C4087 C 0.31204 0.25521 0.88924 0.0
C4088 C 0.29889 0.2439 0.91508 0.0
C4089 C 0.31421 0.25131 0.94056 0.0
C4090 C 0.31158 0.25162 0.92942 0.0
C4091 C 0.30385 0.25297 0.89718 0.0
C4092 C 0.30654 0.2524 0.90826 0.0
H4093 H 0.32717 0.27059 0.96046 0.0
H4094 H 0.32242 0.27108 0.94241 0.0
H4095 H 0.29521 0.237 0.93058 0.0
H4096 H 0.2823 0.25112 0.88227 0.0
H4097 H 0.28661 0.24988 0.90035 0.0
C4098 C 0.97414 0.15296 0.23851 0.0
C4099 C 0.9691 0.14081 0.24199 0.0
C4100 C 0.97079 0.15647 0.22935 0.0
C4101 C 0.9567 0.14427 0.20468 0.0
H4102 H 0.95385 0.17563 0.20418 0.0
C4103 C 0.94092 0.16066 0.16862 0.0
C4104 C 0.9466 0.17304 0.16608 0.0
C4105 C 0.94289 0.15625 0.17804 0.0
C4106 C 0.9547 0.16689 0.20414 0.0
H4107 H 0.95668 0.12276 0.23846 0.0
H4108 H 0.95077 0.12891 0.22251 0.0
H4109 H 0.95891 0.16887 0.22021 0.0
H4110 H 0.95872 0.19055 0.17114 0.0
H4111 H 0.96228 0.18293 0.1875 0.0
H4112 H 0.95263 0.14238 0.18855 0.0
C4113 C 0.95735 0.13572 0.22685 0.0
C4114 C 0.95761 0.16302 0.21335 0.0
C4115 C 0.96066 0.13222 0.23605 0.0
C4116 C 0.9542 0.18097 0.17302 0.0
C4117 C 0.95617 0.1766 0.18241 0.0
C4118 C 0.95382 0.14817 0.19544 0.0
C4119 C 0.96233 0.1479 0.22342 0.0
C4120 C 0.95877 0.15173 0.21371 0.0
C4121 C 0.95056 0.16418 0.18506 0.0
C4122 C 0.95291 0.15961 0.19503 0.0
H4123 H 0.98058 0.15984 0.24294 0.0
H4124 H 0.9749 0.16589 0.22688 0.0
H4125 H 0.95761 0.13557 0.20466 0.0
H4126 H 0.93502 0.15441 0.16331 0.0
H4127 H 0.93835 0.14666 0.17987 0.0
C4128 C 0.03199 0.11844 0.32277 0.0
C4129 C 0.02444 0.12149 0.32909 0.0
C4130 C 0.04201 0.11907 0.32675 0.0
C4131 C 0.05478 0.11818 0.35168 0.0
H4132 H 0.08215 0.12927 0.33518 0.0
C4133 C 0.09539 0.11944 0.36863 0.0
C4134 C 0.10177 0.11503 0.36204 0.0
C4135 C 0.08668 0.12191 0.36465 0.0
C4136 C 0.07456 0.12607 0.33988 0.0
H4137 H 0.0218 0.1282 0.34441 0.0
H4138 H 0.0392 0.12925 0.35132 0.0
H4139 H 0.06555 0.13031 0.32805 0.0
H4140 H 0.10436 0.10986 0.34621 0.0
H4141 H 0.08914 0.11402 0.33922 0.0
H4142 H 0.06366 0.11369 0.36342 0.0
C4143 C 0.03729 0.12614 0.34335 0.0
C4144 C 0.06504 0.12666 0.33578 0.0
C4145 C 0.02731 0.12553 0.33938 0.0
C4146 C 0.09958 0.1134 0.3514 0.0
C4147 C 0.09088 0.11583 0.34741 0.0
C4148 C 0.06428 0.11756 0.35577 0.0
C4149 C 0.04471 0.12276 0.33714 0.0
C4150 C 0.055 0.12264 0.3416 0.0
C4151 C 0.08418 0.11992 0.35401 0.0
C4152 C 0.07428 0.12139 0.34989 0.0
H4153 H 0.03002 0.11517 0.31485 0.0
H4154 H 0.04747 0.11628 0.32177 0.0
H4155 H 0.04716 0.11483 0.35633 0.0
H4156 H 0.09695 0.12069 0.3769 0.0
H4157 H 0.08181 0.1252 0.36994 0.0
C4158 C 0.19171 0.83445 0.55283 0.0
C4159 C 0.18692 0.83299 0.54301 0.0
C4160 C 0.19218 0.8442 0.55945 0.0
C4161 C 0.1919 0.8752 0.55894 0.0
H4162 H 0.18798 0.87132 0.58887 0.0
C4163 C 0.19588 0.91617 0.58603 0.0
C4164 C 0.20235 0.9175 0.59477 0.0
C4165 C 0.19224 0.90521 0.58023 0.0
C4166 C 0.18915 0.87257 0.58053 0.0
H4167 H 0.17855 0.84046 0.53261 0.0
H4168 H 0.17939 0.85748 0.54416 0.0
H4169 H 0.18502 0.85339 0.57767 0.0
H4170 H 0.20992 0.90858 0.60456 0.0
H4171 H 0.20364 0.8894 0.59444 0.0
H4172 H 0.19624 0.89437 0.56179 0.0
C4173 C 0.18293 0.85118 0.54667 0.0
C4174 C 0.18747 0.86229 0.57411 0.0
C4175 C 0.18246 0.84142 0.54005 0.0
C4176 C 0.20482 0.90764 0.59789 0.0
C4177 C 0.20119 0.89667 0.5921 0.0
C4178 C 0.19359 0.88546 0.56536 0.0
C4179 C 0.18788 0.85275 0.55642 0.0
C4180 C 0.18896 0.86351 0.56324 0.0
C4181 C 0.19507 0.89541 0.58306 0.0
C4182 C 0.19236 0.8843 0.57624 0.0
H4183 H 0.19537 0.82824 0.5553 0.0
H4184 H 0.19621 0.84524 0.56683 0.0
H4185 H 0.19329 0.87651 0.55062 0.0
H4186 H 0.19396 0.92375 0.58349 0.0
H4187 H 0.18742 0.90449 0.5734 0.0
C4188 C 0.50441 0.90062 0.85614 0.0
C4189 C 0.50735 0.90346 0.84562 0.0
C4190 C 0.49518 0.90211 0.86072 0.0
C4191 C 0.46882 0.90415 0.85401 0.0
H4192 H 0.46933 0.91614 0.88244 0.0
C4193 C 0.43192 0.91296 0.87302 0.0
C4194 C 0.42886 0.90882 0.88326 0.0
C4195 C 0.44181 0.91316 0.8684 0.0
C4196 C 0.46902 0.91269 0.87452 0.0
H4197 H 0.50306 0.91047 0.83174 0.0
H4198 H 0.48697 0.91309 0.83972 0.0
H4199 H 0.48604 0.91496 0.87445 0.0
H4200 H 0.43396 0.902 0.89678 0.0
H4201 H 0.4511 0.90216 0.88868 0.0
H4202 H 0.45179 0.90179 0.85411 0.0
C4203 C 0.49169 0.9095 0.84439 0.0
C4204 C 0.4786 0.912 0.86994 0.0
C4205 C 0.50092 0.908 0.83982 0.0
C4206 C 0.43601 0.9051 0.88884 0.0
C4207 C 0.4459 0.90533 0.88423 0.0
C4208 C 0.45925 0.90484 0.85859 0.0
C4209 C 0.48866 0.90649 0.85488 0.0
C4210 C 0.47859 0.90764 0.85965 0.0
C4211 C 0.44889 0.90927 0.87393 0.0
C4212 C 0.45921 0.90904 0.86892 0.0
H4213 H 0.50909 0.89695 0.86079 0.0
H4214 H 0.49299 0.89953 0.86877 0.0
H4215 H 0.46846 0.90057 0.84613 0.0
H4216 H 0.42657 0.91581 0.8685 0.0
H4217 H 0.44392 0.91637 0.86049 0.0
C4218 C 0.31316 0.15513 0.02796 0.0
C4219 C 0.32316 0.1655 0.02856 0.0
C4220 C 0.31209 0.14404 0.03233 0.0
C4221 C 0.3283 0.12674 0.04066 0.0
H4222 H 0.30095 0.10717 0.05532 0.0
C4223 C 0.32169 0.08089 0.06074 0.0
C4224 C 0.31134 0.07134 0.0593 0.0
C4225 C 0.32357 0.09281 0.05762 0.0
C4226 C 0.30861 0.11247 0.05118 0.0
H4227 H 0.33991 0.17231 0.0342 0.0
H4228 H 0.338 0.15293 0.04194 0.0
H4229 H 0.30341 0.12718 0.04869 0.0
H4230 H 0.29485 0.06645 0.05356 0.0
H4231 H 0.29809 0.08716 0.048 0.0
H4232 H 0.33344 0.11192 0.04303 0.0
C4233 C 0.33101 0.15339 0.03802 0.0
C4234 C 0.31002 0.12394 0.04738 0.0
C4235 C 0.33207 0.16452 0.03367 0.0
C4236 C 0.30289 0.07376 0.05475 0.0
C4237 C 0.30474 0.08562 0.05165 0.0
C4238 C 0.32689 0.11523 0.04445 0.0
C4239 C 0.321 0.14303 0.03741 0.0
C4240 C 0.31982 0.13115 0.04196 0.0
C4241 C 0.31509 0.09531 0.05305 0.0
C4242 C 0.31696 0.10789 0.04963 0.0
H4243 H 0.3061 0.15561 0.02417 0.0
H4244 H 0.30431 0.1362 0.03162 0.0
H4245 H 0.33591 0.13202 0.03643 0.0
H4246 H 0.3283 0.07914 0.06427 0.0
H4247 H 0.3316 0.10008 0.05888 0.0
C4248 C 0.90424 0.72086 0.17993 0.0
C4249 C 0.89849 0.72798 0.1768 0.0
C4250 C 0.91474 0.72277 0.17564 0.0
C4251 C 0.93415 0.73764 0.15348 0.0
H4252 H 0.95668 0.73805 0.17235 0.0
C4253 C 0.98093 0.76144 0.14367 0.0
C4254 C 0.98784 0.7557 0.1467 0.0
C4255 C 0.96971 0.75665 0.14668 0.0
C4256 C 0.95046 0.73782 0.16694 0.0
H4257 H 0.89933 0.74265 0.1666 0.0
H4258 H 0.91752 0.74591 0.15912 0.0
H4259 H 0.9376 0.73204 0.17872 0.0
H4260 H 0.98872 0.74058 0.15516 0.0
H4261 H 0.96911 0.73227 0.16064 0.0
H4262 H 0.9471 0.74368 0.14176 0.0
C4263 C 0.91387 0.73872 0.16478 0.0
C4264 C 0.93949 0.73435 0.17059 0.0
C4265 C 0.9034 0.73684 0.16908 0.0
C4266 C 0.98345 0.74508 0.15271 0.0
C4267 C 0.97226 0.74039 0.15587 0.0
C4268 C 0.94512 0.74117 0.14985 0.0
C4269 C 0.91974 0.7318 0.16807 0.0
C4270 C 0.93122 0.73443 0.16395 0.0
C4271 C 0.96526 0.74614 0.15291 0.0
C4272 C 0.95345 0.74151 0.15658 0.0
H4273 H 0.90064 0.71384 0.18574 0.0
H4274 H 0.91897 0.71723 0.1783 0.0
H4275 H 0.92796 0.73754 0.14808 0.0
H4276 H 0.98424 0.76973 0.13911 0.0
H4277 H 0.9646 0.76141 0.14438 0.0
C4278 C 0.38582 0.8308 0.50389 0.0
C4279 C 0.3972 0.83819 0.50421 0.0
C4280 C 0.37813 0.83598 0.5021 0.0
C4281 C 0.37638 0.86301 0.49002 0.0
H4282 H 0.34686 0.85077 0.5027 0.0
C4283 C 0.3443 0.8821 0.47844 0.0
C4284 C 0.33381 0.87316 0.47614 0.0
C4285 C 0.35194 0.87894 0.4837 0.0
C4286 C 0.35507 0.85427 0.49907 0.0
H4287 H 0.40934 0.85693 0.50346 0.0
H4288 H 0.39593 0.86597 0.50038 0.0
H4289 H 0.36047 0.84308 0.50845 0.0
H4290 H 0.32284 0.85409 0.47821 0.0
H4291 H 0.33617 0.84854 0.48724 0.0
H4292 H 0.37095 0.87396 0.48047 0.0
C4293 C 0.39297 0.85613 0.5013 0.0
C4294 C 0.36286 0.84985 0.50235 0.0
C4295 C 0.40066 0.85094 0.50307 0.0
C4296 C 0.33091 0.86116 0.47976 0.0
C4297 C 0.33853 0.85801 0.48502 0.0
C4298 C 0.3686 0.86742 0.48674 0.0
C4299 C 0.38163 0.84869 0.50061 0.0
C4300 C 0.37357 0.85404 0.49776 0.0
C4301 C 0.34925 0.86678 0.48681 0.0
C4302 C 0.3578 0.86298 0.49111 0.0
H4303 H 0.38289 0.82093 0.50462 0.0
H4304 H 0.36948 0.82995 0.50149 0.0
H4305 H 0.38448 0.86631 0.48619 0.0
H4306 H 0.34681 0.89141 0.47571 0.0
H4307 H 0.36008 0.88596 0.48509 0.0
C4308 C 0.62583 0.28666 0.63802 0.0
C4309 C 0.62894 0.27657 0.63721 0.0
C4310 C 0.61554 0.28573 0.63455 0.0
C4311 C 0.58759 0.26201 0.62922 0.0
H4312 H 0.58243 0.2897 0.61889 0.0
C4313 C 0.54395 0.25724 0.61789 0.0
C4314 C 0.54079 0.2668 0.62118 0.0
C4315 C 0.555 0.25861 0.61847 0.0
C4316 C 0.58372 0.2819 0.62183 0.0
H4317 H 0.62377 0.25771 0.63172 0.0
H4318 H 0.60606 0.25621 0.6254 0.0
H4319 H 0.60129 0.29183 0.62208 0.0
H4320 H 0.54645 0.28528 0.62746 0.0
H4321 H 0.56578 0.28775 0.62854 0.0
H4322 H 0.57003 0.25215 0.62916 0.0
C4323 C 0.61144 0.26478 0.62894 0.0
C4324 C 0.59455 0.28311 0.62367 0.0
C4325 C 0.6217 0.2657 0.63244 0.0
C4326 C 0.5488 0.27787 0.62475 0.0
C4327 C 0.55986 0.27927 0.62534 0.0
C4328 C 0.57678 0.26079 0.62736 0.0
C4329 C 0.60808 0.27467 0.63018 0.0
C4330 C 0.59664 0.27322 0.6275 0.0
C4331 C 0.56308 0.26959 0.62236 0.0
C4332 C 0.57468 0.27075 0.62374 0.0
H4333 H 0.63129 0.29524 0.64147 0.0
H4334 H 0.61328 0.29355 0.63571 0.0
H4335 H 0.58878 0.25426 0.63242 0.0
H4336 H 0.53782 0.24859 0.61516 0.0
H4337 H 0.55719 0.25103 0.61597 0.0
C4338 C 0.10982 0.14753 0.98967 0.0
C4339 C 0.11444 0.15913 0.99456 0.0
C4340 C 0.11639 0.14319 0.98327 0.0
C4341 C 0.14183 0.15432 0.96697 0.0
H4342 H 0.13943 0.12065 0.96764 0.0
C4343 C 0.17075 0.13835 0.94158 0.0
C4344 C 0.16603 0.12681 0.93663 0.0
C4345 C 0.16483 0.14188 0.94934 0.0
C4346 C 0.14012 0.13005 0.96728 0.0
H4347 H 0.1296 0.17522 0.99661 0.0
H4348 H 0.14108 0.16763 0.98549 0.0
H4349 H 0.1283 0.12754 0.97988 0.0
H4350 H 0.15145 0.10984 0.93606 0.0
H4351 H 0.14099 0.11607 0.94949 0.0
H4352 H 0.15342 0.15683 0.95427 0.0
C4353 C 0.13236 0.16191 0.98658 0.0
C4354 C 0.13376 0.13399 0.97431 0.0
C4355 C 0.12581 0.1662 0.99304 0.0
C4356 C 0.15535 0.11874 0.93981 0.0
C4357 C 0.14937 0.12232 0.94752 0.0
C4358 C 0.14813 0.15037 0.95992 0.0
C4359 C 0.12771 0.15041 0.98155 0.0
C4360 C 0.13456 0.14618 0.97423 0.0
C4361 C 0.15398 0.13401 0.95228 0.0
C4362 C 0.14737 0.13819 0.95997 0.0
H4363 H 0.1011 0.14182 0.99076 0.0
H4364 H 0.11255 0.13433 0.97944 0.0
H4365 H 0.14248 0.16371 0.96659 0.0
H4366 H 0.17904 0.14468 0.93939 0.0
H4367 H 0.16874 0.15084 0.95299 0.0
C4368 C 0.24705 0.92127 0.11425 0.0
C4369 C 0.24641 0.9197 0.12509 0.0
C4370 C 0.25277 0.93288 0.10997 0.0
C4371 C 0.27471 0.96301 0.11634 0.0
H4372 H 0.26437 0.97405 0.09226 0.0
C4373 C 0.29604 0.01247 0.10157 0.0
C4374 C 0.29782 0.01406 0.09076 0.0
C4375 C 0.28935 1.00104 0.10564 0.0
C4376 C 0.26741 0.97105 0.09893 0.0
H4377 H 0.25083 0.92916 0.13996 0.0
H4378 H 0.26072 0.9494 0.13252 0.0
H4379 H 0.25326 0.954 0.09964 0.0
H4380 H 0.29387 0.00483 0.07574 0.0
H4381 H 0.28215 0.98485 0.08285 0.0
H4382 H 0.28884 0.98001 0.11564 0.0
C4383 C 0.25703 0.94164 0.1273 0.0
C4384 C 0.26105 0.95956 0.10316 0.0
C4385 C 0.25134 0.93004 0.13156 0.0
C4386 C 0.29258 0.00396 0.0841 0.0
C4387 C 0.28586 0.99251 0.08817 0.0
C4388 C 0.28104 0.97448 0.11213 0.0
C4389 C 0.25796 0.94318 0.11645 0.0
C4390 C 0.26462 0.95542 0.11193 0.0
C4391 C 0.28425 0.9909 0.099 0.0
C4392 C 0.27746 0.97866 0.1034 0.0
H4393 H 0.24343 0.91347 0.10904 0.0
H4394 H 0.25343 0.93372 0.10158 0.0
H4395 H 0.27783 0.96002 0.12296 0.0
H4396 H 0.29977 0.02011 0.10691 0.0
H4397 H 0.28811 1.00017 0.114 0.0
C4398 C 0.77292 0.47007 0.9069 0.0
C4399 C 0.77312 0.47995 0.91335 0.0
C4400 C 0.77534 0.46054 0.91086 0.0
C4401 C 0.77799 0.44613 0.93535 0.0
H4402 H 0.79875 0.43653 0.91893 0.0
C4403 C 0.80265 0.42078 0.95307 0.0
C4404 C 0.80489 0.412 0.94697 0.0
C4405 C 0.79749 0.42781 0.94877 0.0
C4406 C 0.7928 0.43892 0.92355 0.0
H4407 H 0.77578 0.48734 0.92911 0.0
H4408 H 0.77992 0.47069 0.93601 0.0
H4409 H 0.79183 0.45096 0.91185 0.0
H4410 H 0.80347 0.4034 0.93174 0.0
H4411 H 0.79426 0.41562 0.92416 0.0
H4412 H 0.77906 0.4342 0.9471 0.0
C4413 C 0.77779 0.47026 0.92791 0.0
C4414 C 0.78883 0.44722 0.91949 0.0
C4415 C 0.77539 0.47981 0.92394 0.0
C4416 C 0.80178 0.41016 0.93655 0.0
C4417 C 0.79659 0.4172 0.93223 0.0
C4418 C 0.78193 0.4378 0.9394 0.0
C4419 C 0.77799 0.46062 0.92137 0.0
C4420 C 0.7815 0.45106 0.9254 0.0
C4421 C 0.79446 0.42619 0.93827 0.0
C4422 C 0.78952 0.43423 0.93362 0.0
H4423 H 0.771 0.46976 0.89875 0.0
H4424 H 0.77524 0.45314 0.90566 0.0
H4425 H 0.77222 0.44875 0.94004 0.0
H4426 H 0.80508 0.42236 0.96112 0.0
H4427 H 0.79617 0.43477 0.95362 0.0
C4428 C 0.87648 0.65746 0.1786 0.0
C4429 C 0.87122 0.66574 0.17815 0.0
C4430 C 0.88798 0.66156 0.17719 0.0
C4431 C 0.91395 0.68974 0.17586 0.0
H4432 H 0.92356 0.67087 0.15557 0.0
C4433 C 0.95267 0.711 0.14952 0.0
C4434 C 0.95972 0.70468 0.14788 0.0
C4435 C 0.94265 0.70566 0.15507 0.0
C4436 C 0.92105 0.67614 0.16138 0.0
H4437 H 0.87399 0.68489 0.17616 0.0
H4438 H 0.89391 0.69198 0.17374 0.0
H4439 H 0.90454 0.66249 0.16246 0.0
H4440 H 0.96147 0.68751 0.15057 0.0
H4441 H 0.94384 0.67812 0.1602 0.0
H4442 H 0.93033 0.70367 0.17433 0.0
C4443 C 0.88922 0.68236 0.17534 0.0
C4444 C 0.91016 0.67133 0.16535 0.0
C4445 C 0.87776 0.67827 0.17673 0.0
C4446 C 0.95638 0.69276 0.15184 0.0
C4447 C 0.94625 0.68734 0.1573 0.0
C4448 C 0.92479 0.6946 0.1718 0.0
C4449 C 0.89444 0.67401 0.17531 0.0
C4450 C 0.9064 0.67823 0.17242 0.0
C4451 C 0.93932 0.69377 0.15899 0.0
C4452 C 0.92836 0.68797 0.16433 0.0
H4453 H 0.87169 0.64778 0.17982 0.0
H4454 H 0.89179 0.65494 0.17735 0.0
H4455 H 0.91136 0.69513 0.18148 0.0
H4456 H 0.95487 0.72011 0.14653 0.0
H4457 H 0.93738 0.71075 0.15608 0.0
C4458 C 0.73554 0.52797 0.40097 0.0
C4459 C 0.74691 0.53086 0.40216 0.0
C4460 C 0.73107 0.53679 0.40291 0.0
C4461 C 0.7386 0.57044 0.40616 0.0
H4462 H 0.70955 0.55975 0.41971 0.0
C4463 C 0.71948 0.60337 0.42478 0.0
C4464 C 0.70808 0.60003 0.42367 0.0
C4465 C 0.72458 0.59561 0.42098 0.0
C4466 C 0.7176 0.56287 0.41579 0.0
H4467 H 0.7625 0.5455 0.40619 0.0
H4468 H 0.75462 0.56076 0.40993 0.0
H4469 H 0.71774 0.54489 0.41575 0.0
H4470 H 0.69306 0.58634 0.41755 0.0
H4471 H 0.70194 0.57281 0.41079 0.0
H4472 H 0.73849 0.58853 0.40648 0.0
C4473 C 0.74919 0.55169 0.40732 0.0
C4474 C 0.72232 0.55433 0.41351 0.0
C4475 C 0.75369 0.54287 0.40531 0.0
C4476 C 0.70191 0.58912 0.41839 0.0
C4477 C 0.70697 0.58134 0.41462 0.0
C4478 C 0.7339 0.57902 0.40852 0.0
C4479 C 0.7378 0.54875 0.40619 0.0
C4480 C 0.73286 0.55797 0.40862 0.0
C4481 C 0.71831 0.58434 0.41612 0.0
C4482 C 0.72332 0.57531 0.41333 0.0
H4483 H 0.73001 0.5188 0.39871 0.0
H4484 H 0.7223 0.5342 0.40179 0.0
H4485 H 0.74667 0.57356 0.40228 0.0
H4486 H 0.72434 0.6117 0.42899 0.0
H4487 H 0.73331 0.59814 0.42232 0.0
C4488 C 0.13783 0.81668 0.13091 0.0
C4489 C 0.14275 0.82342 0.13984 0.0
C4490 C 0.12647 0.80951 0.1309 0.0
C4491 C 0.10021 0.80603 0.14486 0.0
H4492 H 0.08858 0.77583 0.12862 0.0
C4493 C 0.05335 0.77582 0.14377 0.0
C4494 C 0.04909 0.77158 0.13385 0.0
C4495 C 0.06477 0.78125 0.14522 0.0
C4496 C 0.09171 0.78428 0.13315 0.0
H4497 H 0.13971 0.82762 0.15588 0.0
H4498 H 0.11991 0.81489 0.15596 0.0
H4499 H 0.10855 0.78676 0.12998 0.0
H4500 H 0.05382 0.77032 0.1176 0.0
H4501 H 0.07362 0.77957 0.12019 0.0
H4502 H 0.08333 0.80351 0.14802 0.0
C4503 C 0.12476 0.81538 0.14886 0.0
C4504 C 0.10316 0.79058 0.13391 0.0
C4505 C 0.13611 0.82265 0.14884 0.0
C4506 C 0.05666 0.77305 0.12542 0.0
C4507 C 0.06806 0.77841 0.12689 0.0
C4508 C 0.08876 0.79968 0.14417 0.0
C4509 C 0.11976 0.80882 0.13986 0.0
C4510 C 0.10757 0.80163 0.13965 0.0
C4511 C 0.07225 0.78261 0.13679 0.0
C4512 C 0.08438 0.78882 0.13818 0.0
H4513 H 0.14273 0.81721 0.12383 0.0
H4514 H 0.12292 0.80479 0.12376 0.0
H4515 H 0.10327 0.81461 0.14921 0.0
H4516 H 0.04789 0.77482 0.15051 0.0
H4517 H 0.06775 0.78427 0.15297 0.0
C4518 C 0.27787 0.07228 0.64274 0.0
C4519 C 0.28919 0.07434 0.64201 0.0
C4520 C 0.26973 0.06053 0.6411 0.0
C4521 C 0.26583 0.03046 0.62879 0.0
H4522 H 0.2383 0.01877 0.64508 0.0
C4523 C 0.2346 0.98026 0.62635 0.0
C4524 C 0.22337 0.97827 0.62546 0.0
C4525 C 0.24245 0.99191 0.6288 0.0
C4526 C 0.24591 0.02195 0.64042 0.0
H4527 H 0.30074 0.06553 0.63897 0.0
H4528 H 0.28659 0.04506 0.63647 0.0
H4529 H 0.25237 0.03919 0.64861 0.0
H4530 H 0.21161 0.98704 0.62663 0.0
H4531 H 0.22534 0.00737 0.63105 0.0
H4532 H 0.2594 0.0132 0.62066 0.0
C4533 C 0.28399 0.05256 0.63814 0.0
C4534 C 0.25398 0.03366 0.64242 0.0
C4535 C 0.29213 0.0643 0.63973 0.0
C4536 C 0.22016 0.98819 0.62736 0.0
C4537 C 0.22803 0.99985 0.62988 0.0
C4538 C 0.25781 0.01875 0.62684 0.0
C4539 C 0.27268 0.05053 0.63871 0.0
C4540 C 0.26405 0.03807 0.63664 0.0
C4541 C 0.23928 0.00186 0.6305 0.0
C4542 C 0.24776 0.01435 0.63264 0.0
H4543 H 0.27529 0.07975 0.64461 0.0
H4544 H 0.26111 0.05935 0.64151 0.0
H4545 H 0.27336 0.03362 0.62402 0.0
H4546 H 0.23734 0.97278 0.62517 0.0
H4547 H 0.25103 0.99311 0.62941 0.0
C4548 C 0.81048 0.44895 0.39741 0.0
C4549 C 0.80437 0.4479 0.38841 0.0
C4550 C 0.82008 0.44647 0.39698 0.0
C4551 C 0.84124 0.44328 0.37845 0.0
H4552 H 0.84614 0.42432 0.40044 0.0
C4553 C 0.87381 0.42215 0.37368 0.0
C4554 C 0.88067 0.42344 0.3821 0.0
C4555 C 0.86443 0.42495 0.37488 0.0
C4556 C 0.84494 0.42972 0.39428 0.0
H4557 H 0.80382 0.44384 0.37183 0.0
H4558 H 0.82036 0.43928 0.37113 0.0
H4559 H 0.83021 0.43016 0.40171 0.0
H4560 H 0.88321 0.42841 0.39839 0.0
H4561 H 0.8667 0.4333 0.40058 0.0
H4562 H 0.85588 0.44274 0.37096 0.0
C4563 C 0.81781 0.44211 0.37852 0.0
C4564 C 0.83583 0.4331 0.39502 0.0
C4565 C 0.80824 0.44459 0.37894 0.0
C4566 C 0.87792 0.42725 0.39183 0.0
C4567 C 0.86849 0.43003 0.39306 0.0
C4568 C 0.8503 0.43987 0.37769 0.0
C4569 C 0.82382 0.44292 0.38754 0.0
C4570 C 0.83381 0.43983 0.38706 0.0
C4571 C 0.86176 0.42914 0.38454 0.0
C4572 C 0.85221 0.43295 0.38555 0.0
H4573 H 0.80769 0.45139 0.40484 0.0
H4574 H 0.82458 0.44733 0.40406 0.0
H4575 H 0.84009 0.44868 0.37227 0.0
H4576 H 0.87586 0.41927 0.36609 0.0
H4577 H 0.85933 0.42397 0.3682 0.0
C4578 C 0.70502 0.55769 0.89399 0.0
C4579 C 0.71091 0.55812 0.903 0.0
C4580 C 0.69826 0.56431 0.89351 0.0
C4581 C 0.69329 0.59036 0.90631 0.0
H4582 H 0.66594 0.57714 0.89121 0.0
C4583 C 0.66132 0.613 0.90756 0.0
C4584 C 0.65697 0.61416 0.89798 0.0
C4585 C 0.66776 0.60604 0.90828 0.0
C4586 C 0.6736 0.58099 0.89539 0.0
H4587 H 0.71408 0.56555 0.91869 0.0
H4588 H 0.7021 0.57688 0.91798 0.0
H4589 H 0.67724 0.56508 0.89241 0.0
H4590 H 0.65617 0.60893 0.88161 0.0
H4591 H 0.6672 0.59661 0.88294 0.0
H4592 H 0.68951 0.60619 0.9094 0.0
C4593 C 0.70292 0.57171 0.91115 0.0
C4594 C 0.68011 0.57409 0.89606 0.0
C4595 C 0.70976 0.56517 0.91159 0.0
C4596 C 0.65919 0.60809 0.88916 0.0
C4597 C 0.66554 0.60104 0.88991 0.0
C4598 C 0.68672 0.5972 0.90572 0.0
C4599 C 0.69713 0.57145 0.90207 0.0
C4600 C 0.69007 0.5787 0.9015 0.0
C4601 C 0.66994 0.59997 0.89946 0.0
C4602 C 0.67683 0.59261 0.90022 0.0
H4603 H 0.70585 0.55247 0.88719 0.0
H4604 H 0.6941 0.56404 0.88632 0.0
H4605 H 0.70099 0.59434 0.9104 0.0
H4606 H 0.65963 0.61734 0.91456 0.0
H4607 H 0.67091 0.60526 0.91579 0.0
C4608 C 0.92348 0.74346 0.94223 0.0
C4609 C 0.93167 0.74478 0.94947 0.0
C4610 C 0.9236 0.73792 0.93249 0.0
C4611 C 0.94158 0.72872 0.91399 0.0
H4612 H 0.91351 0.70572 0.90374 0.0
C4613 C 0.93787 0.69354 0.8805 0.0
C4614 C 0.92928 0.69118 0.87347 0.0
C4615 C 0.93871 0.70115 0.88923 0.0
C4616 C 0.92141 0.71223 0.90641 0.0
H4617 H 0.94665 0.74171 0.95194 0.0
H4618 H 0.94668 0.73178 0.93513 0.0
H4619 H 0.91387 0.717 0.91992 0.0
H4620 H 0.91525 0.69555 0.86979 0.0
H4621 H 0.91672 0.70879 0.88499 0.0
H4622 H 0.94911 0.72373 0.90052 0.0
C4623 C 0.94022 0.73512 0.93692 0.0
C4624 C 0.92161 0.71873 0.9157 0.0
C4625 C 0.94011 0.74068 0.94663 0.0
C4626 C 0.92183 0.69698 0.87516 0.0
C4627 C 0.92266 0.70456 0.88388 0.0
C4628 C 0.94137 0.72218 0.9047 0.0
C4629 C 0.93191 0.73355 0.92976 0.0
C4630 C 0.9317 0.72702 0.91964 0.0
C4631 C 0.93099 0.70657 0.89112 0.0
C4632 C 0.93128 0.71383 0.90082 0.0
H4633 H 0.91682 0.74644 0.94417 0.0
H4634 H 0.91715 0.73702 0.92712 0.0
H4635 H 0.94948 0.73516 0.91671 0.0
H4636 H 0.94368 0.68912 0.87948 0.0
H4637 H 0.94517 0.70243 0.89471 0.0
C4638 C 0.21547 0.26925 0.75302 0.0
C4639 C 0.20405 0.26608 0.75484 0.0
C4640 C 0.22021 0.27223 0.74304 0.0
C4641 C 0.21291 0.26773 0.71531 0.0
H4642 H 0.24236 0.29291 0.71102 0.0
C4643 C 0.23251 0.28144 0.67417 0.0
C4644 C 0.24365 0.28297 0.67275 0.0
C4645 C 0.22763 0.2802 0.68416 0.0
C4646 C 0.23416 0.28579 0.7121 0.0
H4647 H 0.18871 0.2638 0.74754 0.0
H4648 H 0.19702 0.26926 0.73015 0.0
H4649 H 0.23388 0.28948 0.72848 0.0
H4650 H 0.25846 0.28468 0.68074 0.0
H4651 H 0.24992 0.28238 0.69817 0.0
H4652 H 0.21322 0.26399 0.69894 0.0
C4653 C 0.20229 0.26926 0.73644 0.0
C4654 C 0.2293 0.28382 0.72211 0.0
C4655 C 0.19754 0.26627 0.74644 0.0
C4656 C 0.24984 0.28341 0.68156 0.0
C4657 C 0.24497 0.28222 0.69156 0.0
C4658 C 0.21776 0.26973 0.7053 0.0
C4659 C 0.21366 0.27215 0.73459 0.0
C4660 C 0.21864 0.27469 0.72386 0.0
C4661 C 0.23378 0.2805 0.69298 0.0
C4662 C 0.22848 0.27871 0.70358 0.0
H4663 H 0.22076 0.26936 0.75933 0.0
H4664 H 0.22897 0.2743 0.7419 0.0
H4665 H 0.20477 0.26049 0.71638 0.0
H4666 H 0.22747 0.28093 0.66755 0.0
H4667 H 0.21903 0.27901 0.68498 0.0
C4668 C 0.59071 0.23943 0.45053 0.0
C4669 C 0.59202 0.22831 0.44864 0.0
C4670 C 0.59049 0.24676 0.44226 0.0
C4671 C 0.58518 0.2452 0.41411 0.0
H4672 H 0.59964 0.28068 0.41594 0.0
C4673 C 0.58779 0.27571 0.37911 0.0
C4674 C 0.58552 0.28617 0.38121 0.0
C4675 C 0.58935 0.26904 0.38728 0.0
C4676 C 0.59548 0.27079 0.41535 0.0
H4677 H 0.59409 0.2162 0.43654 0.0
H4678 H 0.59393 0.22909 0.42214 0.0
H4679 H 0.60086 0.26825 0.43032 0.0
H4680 H 0.58325 0.29813 0.39326 0.0
H4681 H 0.58592 0.28646 0.40764 0.0
H4682 H 0.57975 0.24773 0.39918 0.0
C4683 C 0.59295 0.23208 0.43002 0.0
C4684 C 0.59617 0.26366 0.42359 0.0
C4685 C 0.59318 0.22476 0.43828 0.0
C4686 C 0.58506 0.29008 0.39152 0.0
C4687 C 0.58663 0.28343 0.39972 0.0
C4688 C 0.5845 0.25232 0.40587 0.0
C4689 C 0.59155 0.24315 0.4319 0.0
C4690 C 0.591 0.25078 0.42308 0.0
C4691 C 0.58865 0.27273 0.39769 0.0
C4692 C 0.58962 0.2652 0.40639 0.0
H4693 H 0.58992 0.24252 0.45841 0.0
H4694 H 0.58929 0.25517 0.44399 0.0
H4695 H 0.58093 0.23532 0.41353 0.0
H4696 H 0.58817 0.27257 0.37116 0.0
H4697 H 0.59105 0.26096 0.38544 0.0
C4698 C 0.31423 0.7398 0.29171 0.0
C4699 C 0.32469 0.74612 0.29601 0.0
C4700 C 0.31286 0.73987 0.28095 0.0
C4701 C 0.32581 0.75784 0.25749 0.0
H4702 H 0.30888 0.72802 0.24227 0.0
C4703 C 0.32878 0.75436 0.21278 0.0
C4704 C 0.31922 0.74729 0.20743 0.0
C4705 C 0.32864 0.75458 0.22367 0.0
C4706 C 0.31349 0.73648 0.24642 0.0
H4707 H 0.34188 0.75752 0.29237 0.0
H4708 H 0.33954 0.7575 0.27368 0.0
H4709 H 0.31012 0.72747 0.26115 0.0
H4710 H 0.30199 0.73502 0.20899 0.0
H4711 H 0.30163 0.73549 0.2281 0.0
H4712 H 0.32923 0.76687 0.24281 0.0
C4713 C 0.33237 0.75255 0.2786 0.0
C4714 C 0.31421 0.73615 0.25724 0.0
C4715 C 0.33374 0.75242 0.28931 0.0
C4716 C 0.30944 0.74057 0.21303 0.0
C4717 C 0.30928 0.74077 0.22394 0.0
C4718 C 0.32505 0.75819 0.24669 0.0
C4719 C 0.32191 0.74636 0.27429 0.0
C4720 C 0.32053 0.74679 0.26288 0.0
C4721 C 0.31892 0.7477 0.2294 0.0
C4722 C 0.31902 0.74748 0.24099 0.0
H4723 H 0.3071 0.73481 0.29666 0.0
H4724 H 0.30469 0.73504 0.27787 0.0
H4725 H 0.33055 0.76626 0.26163 0.0
H4726 H 0.33643 0.75952 0.20855 0.0
H4727 H 0.33626 0.75985 0.22757 0.0
C4728 C 0.82745 0.2612 0.54956 0.0
C4729 C 0.83021 0.25227 0.54412 0.0
C4730 C 0.82528 0.26037 0.56032 0.0
C4731 C 0.83034 0.24598 0.58373 0.0
H4732 H 0.80735 0.25511 0.59646 0.0
C4733 C 0.81826 0.23802 0.6272 0.0
C4734 C 0.81696 0.24771 0.63277 0.0
C4735 C 0.81909 0.2382 0.61633 0.0
C4736 C 0.81386 0.25262 0.59303 0.0
H4737 H 0.83279 0.2354 0.54579 0.0
H4738 H 0.82872 0.23377 0.56446 0.0
H4739 H 0.81031 0.25606 0.57757 0.0
H4740 H 0.81527 0.26507 0.6316 0.0
H4741 H 0.81671 0.26547 0.61249 0.0
H4742 H 0.8339 0.24254 0.59916 0.0
C4743 C 0.8284 0.24154 0.56044 0.0
C4744 C 0.81557 0.25318 0.5822 0.0
C4745 C 0.83059 0.24239 0.54969 0.0
C4746 C 0.8162 0.25747 0.62738 0.0
C4747 C 0.817 0.25766 0.61648 0.0
C4748 C 0.82861 0.24538 0.59453 0.0
C4749 C 0.82579 0.25056 0.56591 0.0
C4750 C 0.82384 0.24986 0.57742 0.0
C4751 C 0.81864 0.24812 0.61083 0.0
C4752 C 0.82034 0.24868 0.59931 0.0
H4753 H 0.82694 0.26885 0.54551 0.0
H4754 H 0.82341 0.26754 0.56427 0.0
H4755 H 0.83693 0.2436 0.58036 0.0
H4756 H 0.81889 0.23043 0.63126 0.0
H4757 H 0.82018 0.23063 0.61222 0.0
C4758 C 0.45158 0.11249 0.22565 0.0
C4759 C 0.46307 0.11656 0.22358 0.0
C4760 C 0.44751 0.1156 0.23502 0.0
C4761 C 0.45533 0.12646 0.26197 0.0
H4762 H 0.43153 0.13801 0.26088 0.0
C4763 C 0.44489 0.15318 0.29597 0.0
C4764 C 0.43381 0.1514 0.29793 0.0
C4765 C 0.44784 0.14758 0.28733 0.0
C4766 C 0.43805 0.13461 0.26137 0.0
H4767 H 0.47924 0.12711 0.22984 0.0
H4768 H 0.47213 0.13244 0.24621 0.0
H4769 H 0.43789 0.1308 0.24498 0.0
H4770 H 0.41702 0.14233 0.29272 0.0
H4771 H 0.42209 0.13229 0.2776 0.0
H4772 H 0.45556 0.13034 0.27834 0.0
C4773 C 0.46628 0.12673 0.24061 0.0
C4774 C 0.44171 0.13049 0.25224 0.0
C4775 C 0.47036 0.12366 0.23122 0.0
C4776 C 0.42563 0.14376 0.2913 0.0
C4777 C 0.42856 0.13812 0.28264 0.0
C4778 C 0.45164 0.13052 0.27111 0.0
C4779 C 0.4548 0.12281 0.24259 0.0
C4780 C 0.4505 0.12652 0.2524 0.0
C4781 C 0.43973 0.14008 0.28047 0.0
C4782 C 0.44305 0.13481 0.27091 0.0
H4783 H 0.44572 0.10681 0.22004 0.0
H4784 H 0.43863 0.11229 0.23637 0.0
H4785 H 0.46199 0.12325 0.2624 0.0
H4786 H 0.45132 0.15915 0.30098 0.0
H4787 H 0.45652 0.14947 0.28584 0.0
C4788 C 0.74352 0.80517 0.05392 0.0
C4789 C 0.74349 0.79503 0.04794 0.0
C4790 C 0.7476 0.80721 0.06401 0.0
C4791 C 0.75199 0.79061 0.08601 0.0
H4792 H 0.76799 0.82332 0.09719 0.0
C4793 C 0.76389 0.79847 0.12926 0.0
C4794 C 0.76206 0.8082 0.13427 0.0
C4795 C 0.76351 0.79727 0.11839 0.0
C4796 C 0.76346 0.81413 0.09422 0.0
H4797 H 0.74822 0.7794 0.04777 0.0
H4798 H 0.75524 0.7829 0.0654 0.0
H4799 H 0.76394 0.82054 0.0787 0.0
H4800 H 0.75862 0.82438 0.1321 0.0
H4801 H 0.75781 0.82227 0.11317 0.0
H4802 H 0.75127 0.7842 0.10152 0.0
C4803 C 0.75196 0.78918 0.06232 0.0
C4804 C 0.76115 0.81254 0.08361 0.0
C4805 C 0.74791 0.78716 0.05222 0.0
C4806 C 0.76011 0.81685 0.12834 0.0
C4807 C 0.75973 0.81567 0.11749 0.0
C4808 C 0.7543 0.7922 0.09661 0.0
C4809 C 0.75173 0.79915 0.06838 0.0
C4810 C 0.75519 0.80078 0.07942 0.0
C4811 C 0.76128 0.80577 0.11237 0.0
C4812 C 0.75988 0.804 0.1009 0.0
H4813 H 0.74004 0.81132 0.05096 0.0
H4814 H 0.74714 0.81487 0.06851 0.0
H4815 H 0.74728 0.78144 0.08308 0.0
H4816 H 0.76541 0.7917 0.13374 0.0
H4817 H 0.76484 0.7896 0.11473 0.0
C4818 C 0.06448 0.86307 0.76718 0.0
C4819 C 0.06066 0.85596 0.75812 0.0
C4820 C 0.06594 0.85768 0.77625 0.0
C4821 C 0.07144 0.83132 0.78475 0.0
H4822 H 0.06453 0.84104 0.81229 0.0
C4823 C 0.08995 0.82194 0.82196 0.0
C4824 C 0.08297 0.81819 0.83086 0.0
C4825 C 0.08632 0.82566 0.81309 0.0
C4826 C 0.06641 0.83814 0.80465 0.0
H4827 H 0.05515 0.83754 0.75154 0.0
H4828 H 0.05759 0.8281 0.76741 0.0
H4829 H 0.05933 0.84904 0.79693 0.0
H4830 H 0.06671 0.81537 0.83741 0.0
H4831 H 0.06034 0.8218 0.82186 0.0
H4832 H 0.07857 0.82047 0.79246 0.0
C4833 C 0.05954 0.83787 0.76747 0.0
C4834 C 0.06353 0.84281 0.79586 0.0
C4835 C 0.05803 0.84326 0.75842 0.0
C4836 C 0.07224 0.81812 0.83065 0.0
C4837 C 0.06864 0.82191 0.82178 0.0
C4838 C 0.07438 0.82671 0.79354 0.0
C4839 C 0.06366 0.84505 0.77644 0.0
C4840 C 0.06609 0.83953 0.7858 0.0
C4841 C 0.07565 0.82576 0.81292 0.0
C4842 C 0.07199 0.83015 0.80359 0.0
H4843 H 0.06648 0.87286 0.76723 0.0
H4844 H 0.0692 0.86348 0.783 0.0
H4845 H 0.07363 0.82871 0.77712 0.0
H4846 H 0.09822 0.82199 0.82186 0.0
H4847 H 0.09197 0.82869 0.80642 0.0
C4848 C 0.97824 0.86999 0.69092 0.0
C4849 C 0.98908 0.87881 0.68942 0.0
C4850 C 0.96933 0.87117 0.68609 0.0
C4851 C 0.9625 0.88671 0.66439 0.0
H4852 H 0.93544 0.88076 0.6806 0.0
C4853 C 0.929 0.90332 0.65174 0.0
C4854 C 0.91789 0.89592 0.65395 0.0
C4855 C 0.93743 0.9001 0.6553 0.0
C4856 C 0.94286 0.88226 0.6759 0.0
H4857 H 0.999 0.89586 0.68172 0.0
H4858 H 0.98349 0.89789 0.67328 0.0
H4859 H 0.95064 0.87735 0.68836 0.0
H4860 H 0.90665 0.87931 0.66135 0.0
H4861 H 0.92138 0.8735 0.66751 0.0
H4862 H 0.95476 0.89175 0.65196 0.0
C4863 C 0.9819 0.88996 0.67807 0.0
C4864 C 0.95159 0.88032 0.68036 0.0
C4865 C 0.9908 0.88879 0.68291 0.0
C4866 C 0.91522 0.8851 0.65955 0.0
C4867 C 0.92364 0.88186 0.66313 0.0
C4868 C 0.95376 0.88863 0.65992 0.0
C4869 C 0.97105 0.88119 0.67963 0.0
C4870 C 0.96156 0.88265 0.6747 0.0
C4871 C 0.93486 0.88942 0.66118 0.0
C4872 C 0.94387 0.88656 0.66566 0.0
H4873 H 0.97664 0.86208 0.69575 0.0
H4874 H 0.9611 0.86417 0.68734 0.0
H4875 H 0.97 0.88839 0.65975 0.0
H4876 H 0.93119 0.91177 0.6475 0.0
H4877 H 0.94595 0.90623 0.65378 0.0
C4878 C 0.83361 0.17701 0.45109 0.0
C4879 C 0.8315 0.17604 0.46192 0.0
C4880 C 0.83275 0.1667 0.44502 0.0
C4881 C 0.81953 0.13298 0.44464 0.0
H4882 H 0.84226 0.13513 0.42375 0.0
C4883 C 0.8202 0.08996 0.42285 0.0
C4884 C 0.8235 0.09108 0.41227 0.0
C4885 C 0.82127 0.10035 0.42889 0.0
C4886 C 0.83575 0.13439 0.42944 0.0
H4887 H 0.82703 0.16339 0.47483 0.0
H4888 H 0.82533 0.14541 0.4642 0.0
H4889 H 0.84389 0.15321 0.43422 0.0
H4890 H 0.83036 0.10394 0.3997 0.0
H4891 H 0.83204 0.12205 0.41015 0.0
H4892 H 0.81128 0.11425 0.4398 0.0
C4893 C 0.82756 0.15415 0.46041 0.0
C4894 C 0.83671 0.14476 0.43546 0.0
C4895 C 0.82851 0.16447 0.4665 0.0
C4896 C 0.82787 0.10281 0.40786 0.0
C4897 C 0.82886 0.11319 0.41388 0.0
C4898 C 0.81852 0.12263 0.43857 0.0
C4899 C 0.82967 0.15515 0.44961 0.0
C4900 C 0.82863 0.14416 0.44315 0.0
C4901 C 0.82558 0.11211 0.42448 0.0
C4902 C 0.82663 0.12318 0.4309 0.0
H4903 H 0.83575 0.1857 0.44725 0.0
H4904 H 0.8343 0.16773 0.43669 0.0
H4905 H 0.81308 0.13227 0.45041 0.0
H4906 H 0.81694 0.08106 0.4265 0.0
H4907 H 0.81885 0.09916 0.43706 0.0
C4908 C 0.53225 0.10172 0.1402 0.0
C4909 C 0.5223 0.09169 0.13817 0.0
C4910 C 0.54244 0.1016 0.13673 0.0
C4911 C 0.55461 0.08686 0.117 0.0
H4912 H 0.58074 0.1009 0.13375 0.0
C4913 C 0.59659 0.08518 0.10364 0.0
C4914 C 0.60605 0.09602 0.10505 0.0
C4915 C 0.58637 0.08396 0.10822 0.0
C4916 C 0.57354 0.09703 0.12894 0.0
H4917 H 0.51533 0.07346 0.13121 0.0
H4918 H 0.53309 0.07324 0.12518 0.0
H4919 H 0.56294 0.10007 0.14078 0.0
H4920 H 0.61224 0.1139 0.11269 0.0
H4921 H 0.59443 0.11185 0.12052 0.0
H4922 H 0.56521 0.08394 0.10512 0.0
C4923 C 0.533 0.08131 0.12929 0.0
C4924 C 0.56333 0.09656 0.13297 0.0
C4925 C 0.52282 0.08143 0.13276 0.0
C4926 C 0.60509 0.10548 0.11134 0.0
C4927 C 0.5949 0.10425 0.11593 0.0
C4928 C 0.56481 0.08733 0.11297 0.0
C4929 C 0.54294 0.09144 0.13114 0.0
C4930 C 0.55374 0.09154 0.12703 0.0
C4931 C 0.58538 0.09352 0.11436 0.0
C4932 C 0.57442 0.0925 0.11886 0.0
H4933 H 0.53215 0.10984 0.14422 0.0
H4934 H 0.5499 0.10963 0.13818 0.0
H4935 H 0.54744 0.08311 0.11214 0.0
H4936 H 0.59702 0.07775 0.09878 0.0
H4937 H 0.57923 0.07551 0.10694 0.0
C4938 C 0.71699 0.8589 0.96303 0.0
C4939 C 0.7245 0.86127 0.97114 0.0
C4940 C 0.71687 0.86845 0.95692 0.0
C4941 C 0.72531 0.90209 0.95673 0.0
H4942 H 0.72474 0.89801 0.92669 0.0
C4943 C 0.7382 0.94313 0.92919 0.0
C4944 C 0.73272 0.94174 0.91981 0.0
C4945 C 0.73583 0.9331 0.93569 0.0
C4946 C 0.7247 0.89925 0.93507 0.0
H4947 H 0.73786 0.87563 0.9791 0.0
H4948 H 0.73755 0.89226 0.96855 0.0
H4949 H 0.72319 0.88084 0.9376 0.0
H4950 H 0.72039 0.92909 0.90978 0.0
H4951 H 0.71605 0.91143 0.92124 0.0
H4952 H 0.72688 0.9205 0.95424 0.0
C4953 C 0.73165 0.88302 0.96699 0.0
C4954 C 0.72384 0.88941 0.94133 0.0
C4955 C 0.73182 0.87347 0.97305 0.0
C4956 C 0.72467 0.93029 0.91704 0.0
C4957 C 0.72227 0.92021 0.92355 0.0
C4958 C 0.7261 0.91191 0.95049 0.0
C4959 C 0.72421 0.88062 0.95883 0.0
C4960 C 0.72432 0.89078 0.95222 0.0
C4961 C 0.72792 0.92147 0.93291 0.0
C4962 C 0.72601 0.91068 0.93957 0.0
H4963 H 0.7111 0.84966 0.96144 0.0
H4964 H 0.71096 0.86633 0.95076 0.0
H4965 H 0.7255 0.90337 0.96511 0.0
H4966 H 0.74452 0.95191 0.93138 0.0
H4967 H 0.74049 0.93439 0.94272 0.0
C4968 C 0.12023 0.28556 0.82283 0.0
C4969 C 0.12084 0.27395 0.82266 0.0
C4970 C 0.11064 0.28697 0.82658 0.0
C4971 C 0.08428 0.27134 0.84177 0.0
H4972 H 0.07341 0.29054 0.82474 0.0
C4973 C 0.03833 0.26456 0.84163 0.0
C4974 C 0.03573 0.27479 0.84014 0.0
C4975 C 0.04937 0.26577 0.84125 0.0
C4976 C 0.07639 0.28532 0.82971 0.0
H4977 H 0.11187 0.25478 0.82644 0.0
H4978 H 0.09518 0.25721 0.83291 0.0
H4979 H 0.09163 0.29035 0.8209 0.0
H4980 H 0.04238 0.29432 0.83744 0.0
H4981 H 0.06179 0.29657 0.83703 0.0
H4982 H 0.06886 0.26603 0.85038 0.0
C4983 C 0.10217 0.26528 0.83032 0.0
C4984 C 0.08687 0.28522 0.82751 0.0
C4985 C 0.11175 0.26387 0.82659 0.0
C4986 C 0.04427 0.28634 0.83871 0.0
C4987 C 0.05534 0.28758 0.83834 0.0
C4988 C 0.07378 0.27142 0.84395 0.0
C4989 C 0.10143 0.27681 0.83025 0.0
C4990 C 0.09085 0.27802 0.83337 0.0
C4991 C 0.058 0.27724 0.83934 0.0
C4992 C 0.06962 0.27821 0.83781 0.0
H4993 H 0.12715 0.29355 0.82002 0.0
H4994 H 0.11042 0.29602 0.82656 0.0
H4995 H 0.08718 0.2659 0.84658 0.0
H4996 H 0.03181 0.25553 0.8426 0.0
H4997 H 0.05109 0.2576 0.84198 0.0
C4998 C 0.62071 0.14911 0.51127 0.0
C4999 C 0.61254 0.14949 0.51851 0.0
C5000 C 0.62786 0.14343 0.51374 0.0
C5001 C 0.63122 0.1217 0.5323 0.0
H5002 H 0.66264 0.13934 0.52651 0.0
C5003 C 0.66483 0.11499 0.55563 0.0
C5004 C 0.67474 0.1158 0.55055 0.0
C5005 C 0.65672 0.11709 0.55022 0.0
C5006 C 0.65388 0.13416 0.52801 0.0
H5007 H 0.60561 0.14427 0.53409 0.0
H5008 H 0.61798 0.13439 0.53835 0.0
H5009 H 0.64942 0.14695 0.51976 0.0
H5010 H 0.68379 0.11897 0.53575 0.0
H5011 H 0.66953 0.12261 0.52623 0.0
H5012 H 0.63571 0.10913 0.54083 0.0
C5013 C 0.61874 0.13825 0.53068 0.0
C5014 C 0.6463 0.13853 0.52414 0.0
C5015 C 0.61163 0.14394 0.52823 0.0
C5016 C 0.67619 0.11823 0.53984 0.0
C5017 C 0.66809 0.12042 0.53443 0.0
C5018 C 0.63879 0.11734 0.53617 0.0
C5019 C 0.62699 0.13798 0.5235 0.0
C5020 C 0.6349 0.13252 0.52647 0.0
C5021 C 0.65834 0.12008 0.53961 0.0
C5022 C 0.65023 0.12369 0.53429 0.0
H5023 H 0.62156 0.15317 0.50367 0.0
H5024 H 0.63407 0.14329 0.508 0.0
H5025 H 0.62248 0.11671 0.53405 0.0
H5026 H 0.66346 0.11304 0.56387 0.0
H5027 H 0.64937 0.11687 0.55448 0.0
C5028 C 0.40119 0.74123 0.37518 0.0
C5029 C 0.39491 0.73245 0.36786 0.0
C5030 C 0.41087 0.74083 0.37901 0.0
C5031 C 0.42771 0.72141 0.37944 0.0
H5032 H 0.45184 0.75311 0.38295 0.0
C5033 C 0.47389 0.7282 0.37853 0.0
C5034 C 0.4811 0.73734 0.38498 0.0
C5035 C 0.46277 0.72664 0.37803 0.0
C5036 C 0.44516 0.74416 0.38222 0.0
H5037 H 0.39353 0.71585 0.35942 0.0
H5038 H 0.41068 0.71549 0.36561 0.0
H5039 H 0.43355 0.75213 0.37929 0.0
H5040 H 0.48248 0.75167 0.3963 0.0
H5041 H 0.46304 0.74887 0.39561 0.0
H5042 H 0.4396 0.71354 0.38187 0.0
C5043 C 0.4081 0.72264 0.36853 0.0
C5044 C 0.43459 0.74358 0.38015 0.0
C5045 C 0.39833 0.72296 0.36482 0.0
C5046 C 0.47702 0.74457 0.39126 0.0
C5047 C 0.46592 0.74302 0.39079 0.0
C5048 C 0.43834 0.72201 0.3814 0.0
C5049 C 0.41466 0.73174 0.37552 0.0
C5050 C 0.42571 0.73221 0.37861 0.0
C5051 C 0.45871 0.73419 0.38401 0.0
C5052 C 0.44722 0.73341 0.3827 0.0
H5053 H 0.39885 0.74871 0.3777 0.0
H5054 H 0.41549 0.74781 0.38459 0.0
H5055 H 0.42109 0.71246 0.37852 0.0
H5056 H 0.47695 0.72263 0.37353 0.0
H5057 H 0.45751 0.71989 0.37261 0.0
C5058 C 0.86895 0.8067 0.00706 0.0
C5059 C 0.87943 0.80933 0.01123 0.0
C5060 C 0.86181 0.81181 0.01152 0.0
C5061 C 0.86087 0.83636 0.02996 0.0
H5062 H 0.82982 0.81496 0.03304 0.0
C5063 C 0.83106 0.84301 0.0613 0.0
C5064 C 0.81989 0.83974 0.05892 0.0
C5065 C 0.8385 0.84146 0.05391 0.0
C5066 C 0.83842 0.82115 0.03208 0.0
H5067 H 0.89068 0.81978 0.02319 0.0
H5068 H 0.87813 0.82834 0.03115 0.0
H5069 H 0.84242 0.80778 0.02329 0.0
H5070 H 0.80783 0.83284 0.04685 0.0
H5071 H 0.82086 0.8301 0.03384 0.0
H5072 H 0.85688 0.84954 0.03916 0.0
C5073 C 0.87547 0.82246 0.02433 0.0
C5074 C 0.84568 0.81703 0.02648 0.0
C5075 C 0.88263 0.81739 0.01985 0.0
C5076 C 0.81643 0.83556 0.04882 0.0
C5077 C 0.82386 0.83386 0.04143 0.0
C5078 C 0.85362 0.84045 0.03563 0.0
C5079 C 0.86491 0.81966 0.02029 0.0
C5080 C 0.85704 0.82449 0.02549 0.0
C5081 C 0.8349 0.83645 0.04401 0.0
C5082 C 0.84234 0.83282 0.0369 0.0
H5083 H 0.86614 0.80045 1.00049 0.0
H5084 H 0.85382 0.80955 0.0081 0.0
H5085 H 0.86951 0.84247 0.0292 0.0
H5086 H 0.83389 0.84616 0.06907 0.0
H5087 H 0.8469 0.84346 0.05618 0.0
C5088 C 0.79789 0.09094 0.86876 0.0
C5089 C 0.79546 0.09557 0.85964 0.0
C5090 C 0.79133 0.07905 0.87203 0.0
C5091 C 0.76367 0.054 0.86875 0.0
H5092 H 0.77763 0.03423 0.88088 0.0
C5093 C 0.73842 0.00789 0.88895 0.0
C5094 C 0.74223 0.99837 0.88762 0.0
C5095 C 0.74479 0.01966 0.88527 0.0
C5096 C 0.77359 0.03957 0.87742 0.0
H5097 H 0.78435 0.09128 0.8467 0.0
H5098 H 0.77297 0.07049 0.85233 0.0
H5099 H 0.78901 0.05475 0.87481 0.0
H5100 H 0.75552 0.99362 0.88109 0.0
H5101 H 0.76655 0.01407 0.87457 0.0
H5102 H 0.74827 0.03869 0.87113 0.0
C5103 C 0.77981 0.07612 0.85708 0.0
C5104 C 0.78012 0.05142 0.87406 0.0
C5105 C 0.78634 0.08803 0.85384 0.0
C5106 C 0.75244 1.00081 0.88238 0.0
C5107 C 0.75878 0.01255 0.87866 0.0
C5108 C 0.75714 0.04213 0.87208 0.0
C5109 C 0.78221 0.07148 0.86623 0.0
C5110 C 0.77524 0.05881 0.86971 0.0
C5111 C 0.75508 0.02216 0.88014 0.0
C5112 C 0.76202 0.03476 0.87647 0.0
H5113 H 0.80475 0.09658 0.87348 0.0
H5114 H 0.79331 0.07588 0.8792 0.0
H5115 H 0.75961 0.05947 0.86554 0.0
H5116 H 0.73064 0.00633 0.89306 0.0
H5117 H 0.74174 0.02686 0.88668 0.0
C5118 C 0.2348 0.52118 0.11036 0.0
C5119 C 0.23349 0.51174 0.103 0.0
C5120 C 0.23335 0.5318 0.10756 0.0
C5121 C 0.23179 0.54957 0.08468 0.0
H5122 H 0.2137 0.56087 0.10328 0.0
C5123 C 0.22013 0.58978 0.07363 0.0
C5124 C 0.20897 0.58781 0.07538 0.0
C5125 C 0.22448 0.58202 0.07807 0.0
C5126 C 0.21877 0.55783 0.098 0.0
H5127 H 0.23015 0.5063 0.08683 0.0
H5128 H 0.22746 0.52466 0.08199 0.0
H5129 H 0.21897 0.54435 0.10867 0.0
H5130 H 0.19359 0.57655 0.08319 0.0
H5131 H 0.20111 0.56289 0.0909 0.0
H5132 H 0.23119 0.56265 0.07383 0.0
C5133 C 0.22966 0.52393 0.08991 0.0
C5134 C 0.22189 0.54845 0.10113 0.0
C5135 C 0.23108 0.51334 0.09271 0.0
C5136 C 0.20227 0.57826 0.08185 0.0
C5137 C 0.2066 0.57049 0.08628 0.0
C5138 C 0.22867 0.55894 0.08155 0.0
C5139 C 0.23063 0.53323 0.09732 0.0
C5140 C 0.22827 0.54404 0.09443 0.0
C5141 C 0.21772 0.57213 0.08429 0.0
C5142 C 0.22195 0.56304 0.08809 0.0
H5143 H 0.23659 0.52021 0.11837 0.0
H5144 H 0.23426 0.53884 0.11343 0.0
H5145 H 0.23683 0.54651 0.07938 0.0
H5146 H 0.22539 0.59711 0.06861 0.0
H5147 H 0.2331 0.58365 0.07648 0.0
C5148 C 0.12932 0.32845 0.85501 0.0
C5149 C 0.1358 0.33585 0.86301 0.0
C5150 C 0.11789 0.32213 0.8565 0.0
C5151 C 0.09378 0.32075 0.87309 0.0
H5152 H 0.0816 0.28656 0.86432 0.0
C5153 C 0.04986 0.28703 0.88605 0.0
C5154 C 0.04372 0.27787 0.87892 0.0
C5155 C 0.06088 0.29471 0.88376 0.0
C5156 C 0.08478 0.29614 0.86667 0.0
H5157 H 0.13524 0.34259 0.87879 0.0
H5158 H 0.11528 0.33165 0.88136 0.0
H5159 H 0.10104 0.29903 0.86073 0.0
H5160 H 0.04439 0.2697 0.86376 0.0
H5161 H 0.06347 0.28328 0.85969 0.0
H5162 H 0.07749 0.31786 0.87899 0.0
C5163 C 0.11905 0.33081 0.8739 0.0
C5164 C 0.09597 0.3033 0.86462 0.0
C5165 C 0.1305 0.3371 0.87242 0.0
C5166 C 0.04881 0.27675 0.86937 0.0
C5167 C 0.0598 0.28443 0.86708 0.0
C5168 C 0.08256 0.3136 0.87507 0.0
C5169 C 0.11264 0.32309 0.86602 0.0
C5170 C 0.10062 0.31567 0.86786 0.0
C5171 C 0.06603 0.29343 0.87426 0.0
C5172 C 0.07792 0.30118 0.87194 0.0
H5173 H 0.13309 0.32746 0.84759 0.0
H5174 H 0.11317 0.31643 0.85021 0.0
H5175 H 0.09709 0.33029 0.87557 0.0
H5176 H 0.04616 0.28822 0.89346 0.0
H5177 H 0.06543 0.30144 0.88954 0.0
C5178 C 0.28797 0.46946 0.58007 0.0
C5179 C 0.27663 0.46725 0.5808 0.0
C5180 C 0.29147 0.46005 0.57718 0.0
C5181 C 0.28184 0.4261 0.57489 0.0
H5182 H 0.30779 0.43403 0.55661 0.0
C5183 C 0.29492 0.38945 0.55401 0.0
C5184 C 0.30629 0.39209 0.5531 0.0
C5185 C 0.29118 0.39819 0.55829 0.0
C5186 C 0.30061 0.43168 0.56183 0.0
H5187 H 0.26007 0.45327 0.57912 0.0
H5188 H 0.26618 0.43694 0.57379 0.0
H5189 H 0.30144 0.45007 0.56202 0.0
H5190 H 0.32271 0.40559 0.55606 0.0
H5191 H 0.31624 0.42086 0.56366 0.0
H5192 H 0.28096 0.40762 0.57452 0.0
C5193 C 0.27238 0.44594 0.57562 0.0
C5194 C 0.29696 0.44089 0.56494 0.0
C5195 C 0.26887 0.45535 0.57855 0.0
C5196 C 0.31389 0.40338 0.55677 0.0
C5197 C 0.31017 0.41213 0.56102 0.0
C5198 C 0.28548 0.41685 0.57173 0.0
C5199 C 0.28373 0.44817 0.57486 0.0
C5200 C 0.28754 0.43826 0.57154 0.0
C5201 C 0.29878 0.40976 0.56163 0.0
C5202 C 0.29493 0.41954 0.56519 0.0
H5203 H 0.2942 0.47852 0.58161 0.0
H5204 H 0.30027 0.4621 0.57682 0.0
H5205 H 0.27464 0.42375 0.58008 0.0
H5206 H 0.28895 0.38081 0.55109 0.0
H5207 H 0.28237 0.3961 0.55856 0.0
C5208 C 0.88673 0.21596 0.82598 0.0
C5209 C 0.88105 0.20405 0.82981 0.0
C5210 C 0.89828 0.22099 0.82499 0.0
C5211 C 0.92287 0.2166 0.83484 0.0
H5212 H 0.93854 0.24327 0.816 0.0
C5213 C 0.97022 0.24222 0.83561 0.0
C5214 C 0.97337 0.25486 0.83742 0.0
C5215 C 0.95954 0.23501 0.83235 0.0
C5216 C 0.93427 0.23576 0.82123 0.0
H5217 H 0.88311 0.18782 0.83504 0.0
H5218 H 0.90313 0.19627 0.83274 0.0
H5219 H 0.91861 0.23206 0.81453 0.0
H5220 H 0.96815 0.27004 0.83682 0.0
H5221 H 0.9495 0.25748 0.83093 0.0
H5222 H 0.93862 0.22026 0.84142 0.0
C5223 C 0.89874 0.20199 0.83091 0.0
C5224 C 0.92281 0.22939 0.82049 0.0
C5225 C 0.88719 0.19704 0.83207 0.0
C5226 C 0.96586 0.26029 0.83548 0.0
C5227 C 0.95527 0.25314 0.83199 0.0
C5228 C 0.93435 0.22274 0.83539 0.0
C5229 C 0.90449 0.21416 0.82761 0.0
C5230 C 0.91688 0.21995 0.8275 0.0
C5231 C 0.95191 0.24038 0.83064 0.0
C5232 C 0.94011 0.23262 0.8288 0.0
H5233 H 0.88225 0.22152 0.82392 0.0
H5234 H 0.9023 0.23042 0.82254 0.0
H5235 H 0.91869 0.20961 0.84055 0.0
H5236 H 0.97588 0.23785 0.83712 0.0
H5237 H 0.95714 0.22519 0.83141 0.0
C5238 C 0.73901 0.93292 0.37082 0.0
C5239 C 0.7416 0.92358 0.37508 0.0
C5240 C 0.74574 0.9453 0.37256 0.0
C5241 C 0.76671 0.96586 0.39047 0.0
H5242 H 0.77357 0.98914 0.36801 0.0
C5243 C 0.79733 0.01605 0.39593 0.0
C5244 C 0.79406 0.02501 0.39206 0.0
C5245 C 0.7917 0.00369 0.39314 0.0
C5246 C 0.77167 0.98278 0.37439 0.0
H5247 H 0.75321 0.92 0.38471 0.0
H5248 H 0.765 0.94152 0.38763 0.0
H5249 H 0.76192 0.96757 0.36479 0.0
H5250 H 0.78261 0.02839 0.38216 0.0
H5251 H 0.77271 0.00682 0.37726 0.0
H5252 H 0.77633 0.98104 0.40011 0.0
C5253 C 0.75774 0.9393 0.38298 0.0
C5254 C 0.76497 0.97041 0.37254 0.0
C5255 C 0.75103 0.92694 0.38121 0.0
C5256 C 0.78534 0.02158 0.38511 0.0
C5257 C 0.7797 0.00924 0.38231 0.0
C5258 C 0.77339 0.97821 0.39232 0.0
C5259 C 0.7552 0.94864 0.37866 0.0
C5260 C 0.76238 0.9618 0.38057 0.0
C5261 C 0.78266 1.00009 0.38646 0.0
C5262 C 0.77594 0.98685 0.38431 0.0
H5263 H 0.73186 0.93067 0.36599 0.0
H5264 H 0.74348 0.95226 0.36922 0.0
H5265 H 0.76474 0.95953 0.39688 0.0
H5266 H 0.804 0.01854 0.40139 0.0
H5267 H 0.79431 0.99693 0.39636 0.0
C5268 C 0.22851 0.56829 0.60533 0.0
C5269 C 0.22833 0.55767 0.60002 0.0
C5270 C 0.21928 0.57143 0.60547 0.0
C5271 C 0.18899 0.55826 0.60186 0.0
H5272 H 0.19305 0.59243 0.60029 0.0
C5273 C 0.15169 0.57247 0.60085 0.0
C5274 C 0.1522 0.58237 0.60734 0.0
C5275 C 0.16113 0.56988 0.59894 0.0
C5276 C 0.19177 0.58286 0.60081 0.0
H5277 H 0.21828 0.54207 0.59063 0.0
H5278 H 0.20216 0.54756 0.59085 0.0
H5279 H 0.20913 0.58693 0.59891 0.0
H5280 H 0.1628 0.59747 0.61681 0.0
H5281 H 0.17937 0.593 0.61349 0.0
H5282 H 0.17165 0.5542 0.60384 0.0
C5283 C 0.20941 0.55339 0.59501 0.0
C5284 C 0.201 0.57969 0.60003 0.0
C5285 C 0.21866 0.55024 0.59488 0.0
C5286 C 0.1623 0.58987 0.61168 0.0
C5287 C 0.17176 0.5873 0.60976 0.0
C5288 C 0.17977 0.56142 0.60261 0.0
C5289 C 0.20961 0.56404 0.60031 0.0
C5290 C 0.19974 0.56736 0.60064 0.0
C5291 C 0.17124 0.57713 0.60351 0.0
C5292 C 0.18104 0.57377 0.60218 0.0
H5293 H 0.23573 0.5741 0.60955 0.0
H5294 H 0.21967 0.57955 0.60982 0.0
H5295 H 0.1877 0.54869 0.60252 0.0
H5296 H 0.14393 0.56654 0.59749 0.0
H5297 H 0.16046 0.5621 0.59397 0.0
C5298 C 0.31404 0.45328 0.12056 0.0
C5299 C 0.30283 0.44654 0.12328 0.0
C5300 C 0.32194 0.44822 0.12174 0.0
C5301 C 0.32444 0.41858 0.12243 0.0
H5302 H 0.35278 0.43658 0.13501 0.0
C5303 C 0.3544 0.39517 0.1302 0.0
C5304 C 0.3658 0.40204 0.12874 0.0
C5305 C 0.34687 0.40084 0.12999 0.0
C5306 C 0.34497 0.43148 0.13134 0.0
H5307 H 0.2913 0.42941 0.12987 0.0
H5308 H 0.30502 0.42054 0.13166 0.0
H5309 H 0.33948 0.44623 0.13373 0.0
H5310 H 0.37829 0.42021 0.12588 0.0
H5311 H 0.36515 0.43011 0.12519 0.0
H5312 H 0.32993 0.40397 0.11975 0.0
C5313 C 0.30765 0.42967 0.12851 0.0
C5314 C 0.33735 0.437 0.13065 0.0
C5315 C 0.29979 0.43475 0.12744 0.0
C5316 C 0.36954 0.41472 0.12713 0.0
C5317 C 0.362 0.42039 0.12678 0.0
C5318 C 0.33209 0.41311 0.123 0.0
C5319 C 0.31879 0.43629 0.12558 0.0
C5320 C 0.32698 0.43058 0.12625 0.0
C5321 C 0.35055 0.41351 0.12816 0.0
C5322 C 0.34245 0.41945 0.12752 0.0
H5323 H 0.31668 0.46232 0.11724 0.0
H5324 H 0.33047 0.4535 0.11936 0.0
H5325 H 0.31658 0.41348 0.11885 0.0
H5326 H 0.35131 0.38539 0.13161 0.0
H5327 H 0.33816 0.39528 0.13133 0.0
C5328 C 0.58152 0.72408 0.58639 0.0
C5329 C 0.57863 0.72861 0.57745 0.0
C5330 C 0.58317 0.7307 0.5958 0.0
C5331 C 0.58861 0.76172 0.60693 0.0
H5332 H 0.57514 0.74394 0.63207 0.0
C5333 C 0.58126 0.78565 0.64452 0.0
C5334 C 0.58262 0.78107 0.65407 0.0
C5335 C 0.58204 0.77959 0.63522 0.0
C5336 C 0.57911 0.74904 0.62516 0.0
H5337 H 0.5756 0.74386 0.5713 0.0
H5338 H 0.57828 0.75528 0.58771 0.0
H5339 H 0.57427 0.73269 0.61575 0.0
H5340 H 0.58604 0.76688 0.6616 0.0
H5341 H 0.58755 0.75628 0.64534 0.0
H5342 H 0.5933 0.77808 0.61632 0.0
C5343 C 0.57935 0.74665 0.58746 0.0
C5344 C 0.57861 0.74258 0.6158 0.0
C5345 C 0.57767 0.74003 0.57808 0.0
C5346 C 0.58498 0.77053 0.65426 0.0
C5347 C 0.58576 0.76444 0.64498 0.0
C5348 C 0.58911 0.76818 0.6163 0.0
C5349 C 0.58203 0.74203 0.59646 0.0
C5350 C 0.58323 0.74885 0.60654 0.0
C5351 C 0.58416 0.76882 0.63534 0.0
C5352 C 0.58426 0.76193 0.62551 0.0
H5353 H 0.58227 0.71528 0.58618 0.0
H5354 H 0.58533 0.72694 0.60257 0.0
H5355 H 0.59242 0.76681 0.59998 0.0
H5356 H 0.57936 0.79376 0.64427 0.0
H5357 H 0.58063 0.78312 0.62797 0.0
C5358 C 0.31554 0.26238 0.7337 0.0
C5359 C 0.31509 0.25185 0.72807 0.0
C5360 C 0.31362 0.26198 0.74448 0.0
C5361 C 0.31352 0.24395 0.7676 0.0
H5362 H 0.29693 0.2616 0.78068 0.0
C5363 C 0.30089 0.23855 0.81108 0.0
C5364 C 0.30255 0.24936 0.81675 0.0
C5365 C 0.30171 0.23871 0.80022 0.0
C5366 C 0.30165 0.25671 0.77715 0.0
H5367 H 0.31211 0.23259 0.72936 0.0
H5368 H 0.30869 0.23185 0.74816 0.0
H5369 H 0.29981 0.26211 0.76179 0.0
H5370 H 0.30614 0.26875 0.81576 0.0
H5371 H 0.3076 0.26911 0.79666 0.0
H5372 H 0.31536 0.23855 0.78293 0.0
C5373 C 0.31072 0.24049 0.74427 0.0
C5374 C 0.30332 0.25701 0.76633 0.0
C5375 C 0.31267 0.2409 0.73348 0.0
C5376 C 0.30476 0.2603 0.81147 0.0
C5377 C 0.30556 0.26048 0.80057 0.0
C5378 C 0.31182 0.24362 0.7784 0.0
C5379 C 0.31119 0.25103 0.74991 0.0
C5380 C 0.30929 0.25064 0.76141 0.0
C5381 C 0.30423 0.24971 0.79483 0.0
C5382 C 0.30587 0.24999 0.78331 0.0
H5383 H 0.31755 0.27101 0.72979 0.0
H5384 H 0.31425 0.27032 0.74859 0.0
H5385 H 0.31833 0.23913 0.76411 0.0
H5386 H 0.2992 0.23003 0.81507 0.0
H5387 H 0.30046 0.23023 0.79603 0.0
C5388 C 0.93795 0.25714 0.0531 0.0
C5389 C 0.92807 0.25866 0.05124 0.0
C5390 C 0.93854 0.24997 0.06136 0.0
C5391 C 0.92457 0.23703 0.08645 0.0
H5392 H 0.93957 0.21473 0.08256 0.0
C5393 C 0.9194 0.19901 0.11576 0.0
C5394 C 0.92872 0.19648 0.1179 0.0
C5395 C 0.91989 0.20715 0.1079 0.0
C5396 C 0.93548 0.22103 0.08383 0.0
H5397 H 0.91095 0.2535 0.05648 0.0
H5398 H 0.91198 0.24104 0.07085 0.0
H5399 H 0.93937 0.2278 0.06827 0.0
H5400 H 0.9459 0.20062 0.11347 0.0
H5401 H 0.9468 0.215 0.09984 0.0
H5402 H 0.92061 0.23023 0.10197 0.0
C5403 C 0.91935 0.24559 0.06606 0.0
C5404 C 0.93536 0.22852 0.07563 0.0
C5405 C 0.91877 0.25274 0.0578 0.0
C5406 C 0.9386 0.20244 0.11208 0.0
C5407 C 0.93907 0.21057 0.10419 0.0
C5408 C 0.92469 0.22956 0.09464 0.0
C5409 C 0.92925 0.24414 0.06797 0.0
C5410 C 0.92981 0.23653 0.07681 0.0
C5411 C 0.92971 0.21299 0.10197 0.0
C5412 C 0.93006 0.22137 0.0934 0.0
H5413 H 0.94531 0.26168 0.04828 0.0
H5414 H 0.94632 0.24915 0.06269 0.0
H5415 H 0.9204 0.24326 0.0877 0.0
H5416 H 0.9117 0.19469 0.12017 0.0
H5417 H 0.91248 0.20868 0.10634 0.0
C5418 C 0.19551 0.77332 0.23158 0.0
C5419 C 0.19612 0.76345 0.22563 0.0
C5420 C 0.1987 0.775 0.24199 0.0
C5421 C 0.21521 0.76602 0.26046 0.0
H5422 H 0.19793 0.77486 0.28185 0.0
C5423 C 0.21888 0.75827 0.30362 0.0
C5424 C 0.21999 0.76794 0.31067 0.0
C5425 C 0.21613 0.7588 0.29332 0.0
C5426 C 0.2029 0.77253 0.27593 0.0
H5427 H 0.20011 0.74735 0.22604 0.0
H5428 H 0.20555 0.75018 0.24408 0.0
H5429 H 0.19288 0.77385 0.26359 0.0
H5430 H 0.21873 0.78563 0.31245 0.0
H5431 H 0.21367 0.78642 0.29439 0.0
H5432 H 0.22503 0.76437 0.27278 0.0
C5433 C 0.20293 0.75685 0.24069 0.0
C5434 C 0.20003 0.77198 0.26548 0.0
C5435 C 0.1998 0.75521 0.23033 0.0
C5436 C 0.21789 0.778 0.30724 0.0
C5437 C 0.21503 0.77847 0.2969 0.0
C5438 C 0.21801 0.76649 0.27087 0.0
C5439 C 0.20252 0.76681 0.24664 0.0
C5440 C 0.20603 0.76848 0.25764 0.0
C5441 C 0.21429 0.76895 0.28982 0.0
C5442 C 0.21177 0.76952 0.27873 0.0
H5443 H 0.19275 0.77984 0.22815 0.0
H5444 H 0.19835 0.7828 0.24633 0.0
H5445 H 0.22019 0.76361 0.25461 0.0
H5446 H 0.22013 0.75023 0.30605 0.0
H5447 H 0.21538 0.7512 0.28809 0.0
C5448 C 0.69825 0.279 0.94224 0.0
C5449 C 0.68999 0.26809 0.94602 0.0
C5450 C 0.70044 0.28071 0.93153 0.0
C5451 C 0.69696 0.26343 0.90658 0.0
H5452 H 0.70252 0.2949 0.89427 0.0
C5453 C 0.69824 0.26986 0.86208 0.0
C5454 C 0.70612 0.28075 0.85801 0.0
C5455 C 0.6967 0.26834 0.87286 0.0
C5456 C 0.70113 0.2861 0.8976 0.0
H5457 H 0.67733 0.2506 0.94145 0.0
H5458 H 0.68115 0.25358 0.92281 0.0
H5459 H 0.6989 0.29232 0.91299 0.0
H5460 H 0.71868 0.29856 0.86173 0.0
H5461 H 0.71613 0.29591 0.88063 0.0
H5462 H 0.69916 0.25719 0.89121 0.0
C5463 C 0.68608 0.26072 0.92813 0.0
C5464 C 0.69905 0.28461 0.90834 0.0
C5465 C 0.68389 0.25901 0.93882 0.0
C5466 C 0.71255 0.29008 0.86478 0.0
C5467 C 0.71102 0.28858 0.87557 0.0
C5468 C 0.69905 0.26491 0.89586 0.0
C5469 C 0.69443 0.27156 0.92435 0.0
C5470 C 0.69687 0.27324 0.91295 0.0
C5471 C 0.70302 0.27772 0.87975 0.0
C5472 C 0.70111 0.27625 0.89122 0.0
H5473 H 0.7032 0.28611 0.94757 0.0
H5474 H 0.70702 0.28911 0.92889 0.0
H5475 H 0.69551 0.2546 0.90991 0.0
H5476 H 0.69316 0.26259 0.85693 0.0
H5477 H 0.69037 0.25993 0.87579 0.0
C5478 C 0.06951 0.36505 0.25869 0.0
C5479 C 0.07741 0.36644 0.26626 0.0
C5480 C 0.06971 0.35895 0.24924 0.0
C5481 C 0.08892 0.35094 0.23196 0.0
H5482 H 0.06236 0.32779 0.21922 0.0
C5483 C 0.09164 0.32214 0.19621 0.0
C5484 C 0.08429 0.32078 0.18814 0.0
C5485 C 0.09014 0.32706 0.20586 0.0
C5486 C 0.06984 0.33433 0.22263 0.0
H5487 H 0.09136 0.36194 0.27002 0.0
H5488 H 0.09175 0.35142 0.25358 0.0
H5489 H 0.0609 0.33771 0.23584 0.0
H5490 H 0.06945 0.32324 0.18394 0.0
H5491 H 0.06688 0.33196 0.20081 0.0
H5492 H 0.09788 0.34773 0.21879 0.0
C5493 C 0.08553 0.35525 0.25485 0.0
C5494 C 0.069 0.34 0.23214 0.0
C5495 C 0.08531 0.3613 0.26427 0.0
C5496 C 0.0752 0.3241 0.19004 0.0
C5497 C 0.07373 0.32908 0.1997 0.0
C5498 C 0.08976 0.34532 0.22247 0.0
C5499 C 0.07783 0.35415 0.24717 0.0
C5500 C 0.07855 0.34829 0.23695 0.0
C5501 C 0.08129 0.3308 0.20767 0.0
C5502 C 0.08025 0.33686 0.21772 0.0
H5503 H 0.06336 0.36898 0.25995 0.0
H5504 H 0.06371 0.35831 0.24345 0.0
H5505 H 0.09642 0.35748 0.23535 0.0
H5506 H 0.0986 0.31946 0.19503 0.0
H5507 H 0.09598 0.32798 0.21189 0.0
C5508 C 0.81305 0.75118 0.47321 0.0
C5509 C 0.81161 0.74048 0.47864 0.0
C5510 C 0.80967 0.75048 0.46293 0.0
C5511 C 0.80373 0.7306 0.43956 0.0
H5512 H 0.78803 0.75043 0.43106 0.0
C5513 C 0.78524 0.72536 0.39873 0.0
C5514 C 0.78605 0.73612 0.39375 0.0
C5515 C 0.78804 0.72571 0.40916 0.0
C5516 C 0.79252 0.74494 0.43326 0.0
H5517 H 0.80532 0.7206 0.47748 0.0
H5518 H 0.7996 0.71941 0.4595 0.0
H5519 H 0.79361 0.75143 0.44906 0.0
H5520 H 0.79054 0.75569 0.39578 0.0
H5521 H 0.79559 0.75636 0.41393 0.0
H5522 H 0.80282 0.72425 0.42374 0.0
C5523 C 0.80343 0.72836 0.4632 0.0
C5524 C 0.7957 0.7455 0.44359 0.0
C5525 C 0.80674 0.72905 0.4735 0.0
C5526 C 0.78969 0.74722 0.39944 0.0
C5527 C 0.79256 0.74759 0.40986 0.0
C5528 C 0.80062 0.7301 0.42921 0.0
C5529 C 0.80484 0.73906 0.45781 0.0
C5530 C 0.80135 0.73835 0.44685 0.0
C5531 C 0.79179 0.73684 0.41485 0.0
C5532 C 0.79498 0.73727 0.42591 0.0
H5533 H 0.81695 0.76015 0.47683 0.0
H5534 H 0.81102 0.7589 0.45894 0.0
H5535 H 0.8082 0.7251 0.4418 0.0
H5536 H 0.78231 0.71664 0.39458 0.0
H5537 H 0.78715 0.71722 0.41279 0.0
C5538 C 0.47704 0.64726 0.74802 0.0
C5539 C 0.47212 0.64773 0.75785 0.0
C5540 C 0.47286 0.65002 0.73899 0.0
C5541 C 0.45578 0.66632 0.73016 0.0
H5542 H 0.45405 0.64748 0.70466 0.0
C5543 C 0.43516 0.67464 0.69395 0.0
C5544 C 0.4409 0.67526 0.68444 0.0
C5545 C 0.43822 0.67019 0.70279 0.0
C5546 C 0.45455 0.65288 0.7117 0.0
H5547 H 0.45901 0.65166 0.76584 0.0
H5548 H 0.4516 0.65621 0.75014 0.0
H5549 H 0.46108 0.6421 0.7203 0.0
H5550 H 0.4541 0.67159 0.67647 0.0
H5551 H 0.45951 0.66381 0.69189 0.0
H5552 H 0.44933 0.67716 0.72157 0.0
C5553 C 0.45875 0.65381 0.7494 0.0
C5554 C 0.4586 0.64982 0.72067 0.0
C5555 C 0.46293 0.65105 0.75841 0.0
C5556 C 0.4495 0.67104 0.68375 0.0
C5557 C 0.45256 0.66658 0.69257 0.0
C5558 C 0.45172 0.66937 0.72121 0.0
C5559 C 0.46367 0.65336 0.73957 0.0
C5560 C 0.45929 0.65652 0.73001 0.0
C5561 C 0.44711 0.66633 0.70226 0.0
C5562 C 0.45106 0.66271 0.71186 0.0
H5563 H 0.48407 0.64463 0.74729 0.0
H5564 H 0.47692 0.6497 0.73157 0.0
H5565 H 0.45637 0.67183 0.73715 0.0
H5566 H 0.42854 0.67794 0.69463 0.0
H5567 H 0.43374 0.66996 0.71007 0.0
C5568 C 0.53292 0.6354 0.85643 0.0
C5569 C 0.53114 0.63378 0.84567 0.0
C5570 C 0.54297 0.63637 0.8605 0.0
C5571 C 0.57235 0.64263 0.85349 0.0
H5572 H 0.57068 0.62376 0.87815 0.0
C5573 C 0.60893 0.63141 0.86678 0.0
C5574 C 0.61021 0.63049 0.87746 0.0
C5575 C 0.59989 0.63352 0.86323 0.0
C5576 C 0.57135 0.62928 0.87138 0.0
H5577 H 0.53872 0.63216 0.83072 0.0
H5578 H 0.55629 0.6339 0.83783 0.0
H5579 H 0.5538 0.62415 0.87126 0.0
H5580 H 0.60338 0.63135 0.89288 0.0
H5581 H 0.58763 0.63533 0.88674 0.0
H5582 H 0.5899 0.64767 0.85356 0.0
C5583 C 0.54991 0.63452 0.84312 0.0
C5584 C 0.56164 0.62947 0.8674 0.0
C5585 C 0.53982 0.63352 0.83904 0.0
C5586 C 0.60255 0.63211 0.8846 0.0
C5587 C 0.5935 0.63426 0.88106 0.0
C5588 C 0.58208 0.64247 0.85749 0.0
C5589 C 0.55155 0.63579 0.85392 0.0
C5590 C 0.56199 0.63606 0.85835 0.0
C5591 C 0.59192 0.63474 0.8703 0.0
C5592 C 0.5817 0.63569 0.86644 0.0
H5593 H 0.52652 0.63591 0.86175 0.0
H5594 H 0.54402 0.63758 0.86883 0.0
H5595 H 0.57294 0.64794 0.8466 0.0
H5596 H 0.6147 0.63002 0.86115 0.0
H5597 H 0.59891 0.63366 0.85491 0.0
C5598 C 0.67871 0.34115 0.03389 0.0
C5599 C 0.6817 0.33142 0.03647 0.0
C5600 C 0.67919 0.35024 0.04126 0.0
C5601 C 0.69286 0.36432 0.0657 0.0
H5602 H 0.67115 0.37906 0.06692 0.0
C5603 C 0.69562 0.40199 0.09599 0.0
C5604 C 0.69437 0.41229 0.0921 0.0
C5605 C 0.69265 0.3912 0.09 0.0
C5606 C 0.6773 0.37507 0.06664 0.0
H5607 H 0.68747 0.3236 0.04893 0.0
H5608 H 0.68805 0.33926 0.06183 0.0
H5609 H 0.66875 0.36195 0.05488 0.0
H5610 H 0.68884 0.41953 0.07918 0.0
H5611 H 0.68363 0.40068 0.06863 0.0
H5612 H 0.70149 0.37751 0.07733 0.0
C5613 C 0.68547 0.33997 0.05405 0.0
C5614 C 0.67594 0.36528 0.05973 0.0
C5615 C 0.685 0.33089 0.04668 0.0
C5616 C 0.68974 0.41159 0.08234 0.0
C5617 C 0.68675 0.4008 0.07633 0.0
C5618 C 0.6942 0.37408 0.07261 0.0
C5619 C 0.68267 0.34982 0.05142 0.0
C5620 C 0.68376 0.35985 0.05911 0.0
C5621 C 0.68841 0.39057 0.07999 0.0
C5622 C 0.68649 0.37964 0.07312 0.0
H5623 H 0.67599 0.34177 0.02614 0.0
H5624 H 0.67707 0.35776 0.03892 0.0
H5625 H 0.69915 0.36052 0.06531 0.0
H5626 H 0.69925 0.40242 0.10351 0.0
H5627 H 0.69389 0.38343 0.09311 0.0
C5628 C 0.00749 0.40012 0.3459 0.0
C5629 C 0.00901 0.40119 0.33503 0.0
C5630 C 0.99835 0.40141 0.3509 0.0
C5631 C 0.97666 0.41366 0.3474 0.0
H5632 H 0.96109 0.39094 0.36932 0.0
C5633 C 0.93346 0.40862 0.36386 0.0
C5634 C 0.93138 0.40683 0.37463 0.0
C5635 C 0.94326 0.40861 0.35921 0.0
C5636 C 0.96542 0.39747 0.36331 0.0
H5637 H 1.00224 0.40478 0.32094 0.0
H5638 H 0.9862 0.40678 0.32963 0.0
H5639 H 0.97755 0.38968 0.36091 0.0
H5640 H 0.9382 0.40406 0.389 0.0
H5641 H 0.95529 0.40404 0.38091 0.0
H5642 H 0.96445 0.42137 0.34975 0.0
C5643 C 0.99212 0.40504 0.33431 0.0
C5644 C 0.97487 0.39674 0.35848 0.0
C5645 C 1.00125 0.40374 0.3293 0.0
C5646 C 0.93944 0.40525 0.38066 0.0
C5647 C 0.94924 0.40524 0.37602 0.0
C5648 C 0.9672 0.41437 0.35222 0.0
C5649 C 0.99051 0.40382 0.34516 0.0
C5650 C 0.9806 0.4048 0.35045 0.0
C5651 C 0.95123 0.40681 0.36522 0.0
C5652 C 0.96145 0.40626 0.36022 0.0
H5653 H 0.01324 0.39805 0.35054 0.0
H5654 H 0.99745 0.40055 0.35929 0.0
H5655 H 0.98096 0.42012 0.34134 0.0
H5656 H 0.92736 0.40969 0.35896 0.0
H5657 H 0.94446 0.40968 0.35086 0.0
C5658 C 0.82476 0.65519 0.54868 0.0
C5659 C 0.8226 0.66485 0.55351 0.0
C5660 C 0.82403 0.645 0.55438 0.0
C5661 C 0.81097 0.62808 0.57824 0.0
H5662 H 0.83153 0.61217 0.57316 0.0
C5663 C 0.80776 0.58614 0.60186 0.0
C5664 C 0.8085 0.57633 0.59601 0.0
C5665 C 0.81082 0.59766 0.59734 0.0
C5666 C 0.82569 0.61648 0.57463 0.0
H5667 H 0.81801 0.67135 0.56817 0.0
H5668 H 0.81696 0.6537 0.57815 0.0
H5669 H 0.83423 0.63094 0.56394 0.0
H5670 H 0.81314 0.57064 0.58108 0.0
H5671 H 0.81847 0.59077 0.57311 0.0
H5672 H 0.80233 0.61355 0.58879 0.0
C5673 C 0.81911 0.65395 0.56992 0.0
C5674 C 0.82722 0.62722 0.56933 0.0
C5675 C 0.81984 0.66414 0.56422 0.0
C5676 C 0.81264 0.57819 0.58573 0.0
C5677 C 0.81571 0.58971 0.5812 0.0
C5678 C 0.80944 0.61736 0.58353 0.0
C5679 C 0.82111 0.64421 0.56505 0.0
C5680 C 0.81982 0.6331 0.57101 0.0
C5681 C 0.81461 0.59952 0.58689 0.0
C5682 C 0.81672 0.61136 0.58173 0.0
H5683 H 0.82703 0.65551 0.54047 0.0
H5684 H 0.82552 0.63761 0.55036 0.0
H5685 H 0.805 0.63224 0.57959 0.0
H5686 H 0.80452 0.58481 0.60981 0.0
H5687 H 0.81002 0.60506 0.60198 0.0
C5688 C 0.39697 0.24372 0.65228 0.0
C5689 C 0.38949 0.23443 0.65861 0.0
C5690 C 0.40722 0.24349 0.64915 0.0
C5691 C 0.42322 0.22344 0.64753 0.0
H5692 H 0.44857 0.25442 0.64927 0.0
C5693 C 0.46817 0.22678 0.65092 0.0
C5694 C 0.47678 0.23678 0.64638 0.0
C5695 C 0.45722 0.22587 0.65064 0.0
C5696 C 0.44159 0.2457 0.64856 0.0
H5697 H 0.38674 0.21727 0.66614 0.0
H5698 H 0.40467 0.21701 0.66092 0.0
H5699 H 0.43001 0.254 0.65204 0.0
H5700 H 0.48089 0.25346 0.63772 0.0
H5701 H 0.46173 0.25176 0.63694 0.0
H5702 H 0.43486 0.21515 0.64454 0.0
C5703 C 0.40261 0.22445 0.6583 0.0
C5704 C 0.43091 0.24546 0.65014 0.0
C5705 C 0.39236 0.22467 0.66141 0.0
C5706 C 0.47431 0.24561 0.64121 0.0
C5707 C 0.46337 0.2447 0.64089 0.0
C5708 C 0.43392 0.22369 0.64604 0.0
C5709 C 0.41027 0.23398 0.65228 0.0
C5710 C 0.42157 0.23431 0.64978 0.0
C5711 C 0.4547 0.23498 0.64583 0.0
C5712 C 0.44326 0.23479 0.64661 0.0
H5713 H 0.39509 0.25143 0.65003 0.0
H5714 H 0.41281 0.25087 0.64438 0.0
H5715 H 0.41624 0.21471 0.647 0.0
H5716 H 0.46996 0.21996 0.65508 0.0
H5717 H 0.45081 0.21833 0.65463 0.0
C5718 C 0.88108 0.32095 0.98967 0.0
C5719 C 0.8924 0.32848 0.98855 0.0
C5720 C 0.87302 0.32582 0.98869 0.0
C5721 C 0.8686 0.35496 0.98826 0.0
H5722 H 0.84433 0.33623 0.97047 0.0
C5723 C 0.84139 0.37591 0.96812 0.0
C5724 C 0.83029 0.36833 0.96629 0.0
C5725 C 0.84836 0.37117 0.97272 0.0
C5726 C 0.85091 0.3415 0.97563 0.0
H5727 H 0.90413 0.34718 0.98607 0.0
H5728 H 0.89008 0.35563 0.98421 0.0
H5729 H 0.85758 0.32766 0.97509 0.0
H5730 H 0.81755 0.35014 0.96854 0.0
H5731 H 0.82962 0.34194 0.97677 0.0
H5732 H 0.862 0.36891 0.98862 0.0
C5733 C 0.88742 0.34596 0.98589 0.0
C5734 C 0.85854 0.33657 0.97827 0.0
C5735 C 0.89547 0.34109 0.98683 0.0
C5736 C 0.82612 0.35615 0.96973 0.0
C5737 C 0.83306 0.35144 0.97439 0.0
C5738 C 0.86094 0.35989 0.98564 0.0
C5739 C 0.87609 0.33834 0.98661 0.0
C5740 C 0.86755 0.34329 0.98452 0.0
C5741 C 0.84435 0.35878 0.97564 0.0
C5742 C 0.85206 0.35327 0.97918 0.0
H5743 H 0.87842 0.31119 0.99092 0.0
H5744 H 0.86437 0.31972 0.98941 0.0
H5745 H 0.87538 0.36031 0.9932 0.0
H5746 H 0.84485 0.3853 0.96546 0.0
H5747 H 0.85703 0.37707 0.97348 0.0
C5748 C 0.10376 0.759 0.16865 0.0
C5749 C 0.11277 0.76314 0.16152 0.0
C5750 C 0.09311 0.75708 0.16559 0.0
C5751 C 0.07617 0.75171 0.14196 0.0
H5752 H 0.05447 0.75319 0.16262 0.0
C5753 C 0.0296 0.72375 0.13724 0.0
C5754 C 0.02192 0.72789 0.14198 0.0
C5755 C 0.04095 0.73036 0.1385 0.0
C5756 C 0.06038 0.75291 0.15664 0.0
H5757 H 0.11771 0.76879 0.14559 0.0
H5758 H 0.09912 0.76551 0.14022 0.0
H5759 H 0.07385 0.76145 0.1668 0.0
H5760 H 0.01976 0.74195 0.15177 0.0
H5761 H 0.0395 0.75343 0.15419 0.0
H5762 H 0.06272 0.74372 0.13163 0.0
C5763 C 0.10023 0.76365 0.14819 0.0
C5764 C 0.07156 0.75747 0.15912 0.0
C5765 C 0.11091 0.76552 0.15126 0.0
C5766 C 0.02563 0.73872 0.14795 0.0
C5767 C 0.03696 0.74525 0.14935 0.0
C5768 C 0.065 0.74743 0.13938 0.0
C5769 C 0.09114 0.75934 0.1553 0.0
C5770 C 0.07957 0.75644 0.15199 0.0
C5771 C 0.04482 0.74115 0.14468 0.0
C5772 C 0.05688 0.74749 0.14683 0.0
H5773 H 0.10487 0.75682 0.17656 0.0
H5774 H 0.08637 0.75337 0.17125 0.0
H5775 H 0.08201 0.75077 0.1362 0.0
H5776 H 0.02683 0.71525 0.13276 0.0
H5777 H 0.04663 0.72665 0.135 0.0
C5778 C 0.62077 0.65462 0.50419 0.0
C5779 C 0.62461 0.66635 0.5089 0.0
C5780 C 0.62786 0.651 0.49782 0.0
C5781 C 0.65316 0.66393 0.48139 0.0
H5782 H 0.6535 0.6314 0.48263 0.0
C5783 C 0.68476 0.65104 0.45701 0.0
C5784 C 0.68096 0.63935 0.45225 0.0
C5785 C 0.67816 0.65403 0.46445 0.0
C5786 C 0.65342 0.64048 0.4821 0.0
H5787 H 0.63892 0.68344 0.51064 0.0
H5788 H 0.6513 0.67709 0.49961 0.0
H5789 H 0.64139 0.63712 0.49462 0.0
H5790 H 0.6673 0.62158 0.45166 0.0
H5791 H 0.65568 0.62683 0.46455 0.0
H5792 H 0.665 0.66728 0.46878 0.0
C5793 C 0.64279 0.67071 0.5008 0.0
C5794 C 0.6465 0.64375 0.48899 0.0
C5795 C 0.63573 0.6743 0.50721 0.0
C5796 C 0.6705 0.63062 0.45527 0.0
C5797 C 0.66385 0.63363 0.46267 0.0
C5798 C 0.66003 0.66065 0.47448 0.0
C5799 C 0.63892 0.65907 0.49595 0.0
C5800 C 0.64631 0.65553 0.48872 0.0
C5801 C 0.66755 0.64543 0.46727 0.0
C5802 C 0.66028 0.64889 0.47475 0.0
H5803 H 0.61227 0.64824 0.5054 0.0
H5804 H 0.62461 0.64199 0.49414 0.0
H5805 H 0.65306 0.673 0.48085 0.0
H5806 H 0.69286 0.6579 0.45496 0.0
H5807 H 0.68138 0.66311 0.46799 0.0
C5808 C 0.73396 0.42211 0.64103 0.0
C5809 C 0.73839 0.4131 0.63958 0.0
C5810 C 0.74017 0.43429 0.63822 0.0
C5811 C 0.76455 0.45354 0.62208 0.0
H5812 H 0.7644 0.4798 0.6407 0.0
C5813 C 0.79667 0.50333 0.61813 0.0
C5814 C 0.7928 0.51281 0.61942 0.0
C5815 C 0.78972 0.4912 0.62037 0.0
C5816 C 0.76444 0.47258 0.63536 0.0
H5817 H 0.75271 0.4098 0.63374 0.0
H5818 H 0.7636 0.431 0.62909 0.0
H5819 H 0.75269 0.45857 0.64484 0.0
H5820 H 0.77864 0.517 0.62424 0.0
H5821 H 0.76648 0.4958 0.62805 0.0
H5822 H 0.7764 0.46755 0.61267 0.0
C5823 C 0.7553 0.42868 0.63231 0.0
C5824 C 0.75771 0.46041 0.63772 0.0
C5825 C 0.7491 0.41653 0.63511 0.0
C5826 C 0.78184 0.50989 0.62306 0.0
C5827 C 0.77491 0.49776 0.62535 0.0
C5828 C 0.7713 0.4657 0.61974 0.0
C5829 C 0.75094 0.43773 0.63387 0.0
C5830 C 0.75774 0.45073 0.63114 0.0
C5831 C 0.77876 0.48827 0.624 0.0
C5832 C 0.77138 0.47536 0.62638 0.0
H5833 H 0.72576 0.41981 0.64451 0.0
H5834 H 0.73652 0.44101 0.63942 0.0
H5835 H 0.76463 0.44634 0.61674 0.0
H5836 H 0.80504 0.50526 0.61525 0.0
H5837 H 0.79298 0.48412 0.61936 0.0
C5838 C 0.27551 0.96611 0.4054 0.0
C5839 C 0.27034 0.9725 0.41151 0.0
C5840 C 0.2787 0.9574 0.40985 0.0
C5841 C 0.27466 0.93804 0.43313 0.0
H5842 H 0.30398 0.93955 0.42531 0.0
C5843 C 0.29789 0.91562 0.45725 0.0
C5844 C 0.30462 0.91054 0.45193 0.0
C5845 C 0.29274 0.92191 0.45182 0.0
C5846 C 0.2957 0.93884 0.42746 0.0
H5847 H 0.26411 0.97435 0.42705 0.0
H5848 H 0.26984 0.95928 0.43486 0.0
H5849 H 0.2967 0.95281 0.4168 0.0
H5850 H 0.31118 0.90767 0.43688 0.0
H5851 H 0.30206 0.91854 0.42726 0.0
H5852 H 0.27375 0.92417 0.44392 0.0
C5853 C 0.27136 0.96095 0.42659 0.0
C5854 C 0.29152 0.94647 0.42258 0.0
C5855 C 0.26817 0.96969 0.42214 0.0
C5856 C 0.30598 0.91154 0.44109 0.0
C5857 C 0.30082 0.91783 0.43563 0.0
C5858 C 0.27885 0.93039 0.43802 0.0
C5859 C 0.27682 0.95484 0.42053 0.0
C5860 C 0.28098 0.94625 0.42541 0.0
C5861 C 0.29426 0.92325 0.44095 0.0
C5862 C 0.28946 0.93078 0.43531 0.0
H5863 H 0.27744 0.96813 0.39722 0.0
H5864 H 0.28276 0.95275 0.40492 0.0
H5865 H 0.26646 0.93751 0.43539 0.0
H5866 H 0.29684 0.915 0.46565 0.0
H5867 H 0.28788 0.92608 0.45619 0.0
C5868 C 0.39458 0.17321 0.63106 0.0
C5869 C 0.39121 0.17544 0.64115 0.0
C5870 C 0.40576 0.17819 0.62799 0.0
C5871 C 0.43442 0.19308 0.63716 0.0
H5872 H 0.43934 0.21192 0.61191 0.0
C5873 C 0.47849 0.22358 0.6214 0.0
C5874 C 0.47969 0.23465 0.61679 0.0
C5875 C 0.46797 0.21497 0.62421 0.0
C5876 C 0.43815 0.20681 0.61903 0.0
H5877 H 0.397 0.18397 0.65612 0.0
H5878 H 0.41657 0.19269 0.65073 0.0
H5879 H 0.42061 0.19869 0.61728 0.0
H5880 H 0.47103 0.24561 0.61163 0.0
H5881 H 0.45269 0.2309 0.61689 0.0
H5882 H 0.45194 0.20162 0.63915 0.0
C5883 C 0.41054 0.18708 0.64522 0.0
C5884 C 0.42741 0.19905 0.622 0.0
C5885 C 0.39934 0.18219 0.64827 0.0
C5886 C 0.47026 0.23709 0.61515 0.0
C5887 C 0.45977 0.22858 0.61805 0.0
C5888 C 0.44522 0.20088 0.63417 0.0
C5889 C 0.41382 0.18543 0.63495 0.0
C5890 C 0.42539 0.19233 0.63122 0.0
C5891 C 0.45845 0.21732 0.62249 0.0
C5892 C 0.44717 0.20812 0.62522 0.0
H5893 H 0.38852 0.16815 0.62536 0.0
H5894 H 0.40807 0.17671 0.62005 0.0
H5895 H 0.4331 0.18794 0.64428 0.0
H5896 H 0.48565 0.22142 0.62252 0.0
H5897 H 0.4673 0.20637 0.62748 0.0
C5898 C 0.24537 0.03655 0.90063 0.0
C5899 C 0.24043 0.02605 0.89432 0.0
C5900 C 0.2408 0.04542 0.90161 0.0
C5901 C 0.22103 0.0564 0.88954 0.0
H5902 H 0.21891 0.06899 0.91733 0.0
C5903 C 0.19054 0.07928 0.90146 0.0
C5904 C 0.19393 0.08884 0.90884 0.0
C5905 C 0.19744 0.07313 0.89863 0.0
C5906 C 0.21959 0.06575 0.90948 0.0
H5907 H 0.22703 0.01692 0.88376 0.0
H5908 H 0.21893 0.0322 0.88566 0.0
H5909 H 0.22865 0.05537 0.91447 0.0
H5910 H 0.20714 0.09986 0.91888 0.0
H5911 H 0.21933 0.08926 0.91386 0.0
H5912 H 0.21171 0.06658 0.88463 0.0
C5913 C 0.2264 0.03366 0.8898 0.0
C5914 C 0.22519 0.05792 0.90783 0.0
C5915 C 0.23096 0.0248 0.88881 0.0
C5916 C 0.20444 0.09254 0.9131 0.0
C5917 C 0.21134 0.08639 0.91029 0.0
C5918 C 0.2154 0.06422 0.89119 0.0
C5919 C 0.23118 0.04402 0.8963 0.0
C5920 C 0.22587 0.05302 0.89786 0.0
C5921 C 0.20781 0.07641 0.90321 0.0
C5922 C 0.21452 0.06889 0.90121 0.0
H5923 H 0.25262 0.03778 0.90504 0.0
H5924 H 0.24479 0.05336 0.90659 0.0
H5925 H 0.22154 0.05296 0.88172 0.0
H5926 H 0.18238 0.07621 0.8982 0.0
H5927 H 0.1944 0.06541 0.89324 0.0
C5928 C 0.6219 0.32489 0.65435 0.0
C5929 C 0.63016 0.32075 0.65693 0.0
C5930 C 0.61074 0.31689 0.65454 0.0
C5931 C 0.59282 0.28387 0.65336 0.0
H5932 H 0.56981 0.29505 0.66234 0.0
C5933 C 0.547 0.25097 0.65194 0.0
C5934 C 0.53927 0.25589 0.64948 0.0
C5935 C 0.55785 0.2587 0.65428 0.0
C5936 C 0.57609 0.29179 0.65963 0.0
H5937 H 0.63306 0.30488 0.66182 0.0
H5938 H 0.61364 0.29107 0.66243 0.0
H5939 H 0.58914 0.30889 0.66358 0.0
H5940 H 0.53671 0.27266 0.64752 0.0
H5941 H 0.55573 0.28621 0.65104 0.0
H5942 H 0.57994 0.2669 0.64925 0.0
C5943 C 0.61579 0.30047 0.66012 0.0
C5944 C 0.58721 0.29975 0.66038 0.0
C5945 C 0.62694 0.30846 0.65989 0.0
C5946 C 0.5425 0.26866 0.64956 0.0
C5947 C 0.55342 0.27642 0.65164 0.0
C5948 C 0.58173 0.27596 0.6525 0.0
C5949 C 0.60755 0.30457 0.65738 0.0
C5950 C 0.59572 0.29593 0.65712 0.0
C5951 C 0.56131 0.27156 0.65393 0.0
C5952 C 0.57316 0.27983 0.65548 0.0
H5953 H 0.62403 0.33433 0.65218 0.0
H5954 H 0.60463 0.32033 0.65226 0.0
H5955 H 0.59912 0.28057 0.65081 0.0
H5956 H 0.54466 0.24112 0.65202 0.0
H5957 H 0.5635 0.25453 0.65631 0.0
C5958 C 0.76613 0.55662 0.16069 0.0
C5959 C 0.77179 0.56588 0.1535 0.0
C5960 C 0.75867 0.54513 0.15728 0.0
C5961 C 0.75203 0.52453 0.13439 0.0
H5962 H 0.72337 0.50867 0.14832 0.0
C5963 C 0.71849 0.48045 0.11777 0.0
C5964 C 0.71194 0.47147 0.12484 0.0
C5965 C 0.72569 0.49197 0.12134 0.0
C5966 C 0.7314 0.51288 0.14442 0.0
H5967 H 0.77412 0.57035 0.1371 0.0
H5968 H 0.76108 0.5503 0.13115 0.0
H5969 H 0.73613 0.52873 0.15448 0.0
H5970 H 0.7079 0.46747 0.14119 0.0
H5971 H 0.7206 0.48751 0.14744 0.0
H5972 H 0.74743 0.50866 0.12443 0.0
C5973 C 0.76243 0.55192 0.13942 0.0
C5974 C 0.73869 0.5244 0.14795 0.0
C5975 C 0.76981 0.56343 0.14283 0.0
C5976 C 0.71275 0.47426 0.13555 0.0
C5977 C 0.72001 0.48576 0.13913 0.0
C5978 C 0.74478 0.51298 0.13091 0.0
C5979 C 0.7568 0.54263 0.1466 0.0
C5980 C 0.74907 0.53036 0.14294 0.0
C5981 C 0.72658 0.49477 0.13207 0.0
C5982 C 0.73434 0.50703 0.13585 0.0
H5983 H 0.76743 0.55827 0.16896 0.0
H5984 H 0.7545 0.53813 0.16299 0.0
H5985 H 0.76004 0.52881 0.13048 0.0
H5986 H 0.71793 0.47862 0.10947 0.0
H5987 H 0.73046 0.49875 0.11566 0.0
C5988 C 0.30999 0.95446 0.89463 0.0
C5989 C 0.30028 0.94502 0.89112 0.0
C5990 C 0.31974 0.95245 0.89557 0.0
C5991 C 0.33016 0.92758 0.89747 0.0
H5992 H 0.35815 0.95285 0.88858 0.0
C5993 C 0.37049 0.91892 0.89097 0.0
C5994 C 0.38041 0.92835 0.89392 0.0
C5995 C 0.36058 0.92079 0.8915 0.0
C5996 C 0.35042 0.94575 0.89123 0.0
H5997 H 0.2932 0.92594 0.88604 0.0
H5998 H 0.31021 0.92255 0.8874 0.0
H5999 H 0.3412 0.95654 0.88775 0.0
H6000 H 0.38796 0.94694 0.89989 0.0
H6001 H 0.37066 0.95022 0.90095 0.0
H6002 H 0.3394 0.91673 0.90081 0.0
C6003 C 0.31029 0.93148 0.88955 0.0
C6004 C 0.34069 0.94788 0.89076 0.0
C6005 C 0.30055 0.93349 0.88862 0.0
C6006 C 0.38034 0.93955 0.89762 0.0
C6007 C 0.37046 0.94144 0.89813 0.0
C6008 C 0.33989 0.92544 0.89791 0.0
C6009 C 0.32002 0.94093 0.89302 0.0
C6010 C 0.33042 0.9388 0.89383 0.0
C6011 C 0.36048 0.93215 0.89493 0.0
C6012 C 0.35014 0.93449 0.89477 0.0
H6013 H 0.3101 0.96347 0.89656 0.0
H6014 H 0.32704 0.9599 0.89837 0.0
H6015 H 0.32242 0.92045 0.90005 0.0
H6016 H 0.37044 0.91025 0.888 0.0
H6017 H 0.35307 0.91349 0.88887 0.0
C6018 C 0.19925 0.04609 0.38227 0.0
C6019 C 0.20661 0.04895 0.39053 0.0
C6020 C 0.19228 0.05239 0.38118 0.0
C6021 C 0.1889 0.08109 0.38971 0.0
H6022 H 0.15922 0.06416 0.37948 0.0
C6023 C 0.15661 0.10313 0.39069 0.0
C6024 C 0.15056 0.10195 0.38162 0.0
C6025 C 0.1633 0.09652 0.39176 0.0
C6026 C 0.16752 0.06903 0.38227 0.0
H6027 H 0.21222 0.06042 0.40429 0.0
H6028 H 0.19993 0.0712 0.40255 0.0
H6029 H 0.17105 0.05285 0.38152 0.0
H6030 H 0.14686 0.09278 0.36654 0.0
H6031 H 0.15837 0.08106 0.36851 0.0
H6032 H 0.18526 0.09722 0.39062 0.0
C6033 C 0.19972 0.06435 0.39672 0.0
C6034 C 0.17433 0.06256 0.38342 0.0
C6035 C 0.20675 0.05813 0.39775 0.0
C6036 C 0.15126 0.09381 0.3737 0.0
C6037 C 0.15788 0.08711 0.37481 0.0
C6038 C 0.18205 0.08752 0.38866 0.0
C6039 C 0.19244 0.06164 0.38837 0.0
C6040 C 0.18513 0.0685 0.38715 0.0
C6041 C 0.16403 0.08845 0.38382 0.0
C6042 C 0.17129 0.08157 0.38492 0.0
H6043 H 0.19904 0.03916 0.37651 0.0
H6044 H 0.18694 0.05017 0.37456 0.0
H6045 H 0.19722 0.08606 0.3924 0.0
H6046 H 0.1561 0.10909 0.39706 0.0
H6047 H 0.1678 0.09761 0.39886 0.0
C6048 C 0.42998 0.22536 0.42279 0.0
C6049 C 0.43139 0.23773 0.42228 0.0
C6050 C 0.42845 0.21813 0.41376 0.0
C6051 C 0.43341 0.21991 0.38537 0.0
H6052 H 0.41186 0.18629 0.38577 0.0
C6053 C 0.42295 0.18815 0.34863 0.0
C6054 C 0.42112 0.17577 0.35007 0.0
C6055 C 0.42427 0.1961 0.35721 0.0
C6056 C 0.41801 0.19561 0.38555 0.0
H6057 H 0.4323 0.25221 0.41187 0.0
H6058 H 0.42955 0.23952 0.39603 0.0
H6059 H 0.41374 0.1994 0.4011 0.0
H6060 H 0.41974 0.16217 0.36159 0.0
H6061 H 0.42214 0.17601 0.3765 0.0
H6062 H 0.43775 0.21606 0.36983 0.0
C6063 C 0.4297 0.23546 0.40344 0.0
C6064 C 0.41906 0.20314 0.39434 0.0
C6065 C 0.43116 0.24269 0.41251 0.0
C6066 C 0.42094 0.1716 0.36023 0.0
C6067 C 0.42228 0.17953 0.36878 0.0
C6068 C 0.43237 0.21236 0.37656 0.0
C6069 C 0.42833 0.22309 0.40397 0.0
C6070 C 0.42685 0.21534 0.3944 0.0
C6071 C 0.42381 0.19184 0.3674 0.0
C6072 C 0.42473 0.20007 0.37659 0.0
H6073 H 0.42998 0.22121 0.4302 0.0
H6074 H 0.42754 0.20868 0.41443 0.0
H6075 H 0.43956 0.22924 0.3852 0.0
H6076 H 0.42303 0.19161 0.3409 0.0
H6077 H 0.42534 0.20549 0.35586 0.0
C6078 C 0.71634 0.7873 0.26926 0.0
C6079 C 0.7234 0.7872 0.27721 0.0
C6080 C 0.72033 0.78965 0.25895 0.0
C6081 C 0.74641 0.80207 0.24271 0.0
H6082 H 0.72775 0.78208 0.22093 0.0
C6083 C 0.76313 0.79727 0.20123 0.0
C6084 C 0.7566 0.79721 0.19278 0.0
C6085 C 0.75909 0.79712 0.21147 0.0
C6086 C 0.73302 0.78785 0.2269 0.0
H6087 H 0.74032 0.79004 0.28056 0.0
H6088 H 0.74717 0.79375 0.26263 0.0
H6089 H 0.72067 0.77999 0.23887 0.0
H6090 H 0.7407 0.79699 0.18849 0.0
H6091 H 0.73366 0.79678 0.20637 0.0
H6092 H 0.75886 0.8097 0.23072 0.0
C6093 C 0.73857 0.79215 0.26433 0.0
C6094 C 0.72895 0.78668 0.2372 0.0
C6095 C 0.7346 0.78984 0.27463 0.0
C6096 C 0.74598 0.79716 0.19482 0.0
C6097 C 0.7419 0.79691 0.20507 0.0
C6098 C 0.75051 0.80319 0.23241 0.0
C6099 C 0.73147 0.79195 0.25633 0.0
C6100 C 0.73562 0.7937 0.24527 0.0
C6101 C 0.74838 0.79681 0.21351 0.0
C6102 C 0.74389 0.79603 0.2244 0.0
H6103 H 0.70765 0.78521 0.27094 0.0
H6104 H 0.71465 0.78959 0.25303 0.0
H6105 H 0.75173 0.8078 0.24866 0.0
H6106 H 0.77138 0.79739 0.19992 0.0
H6107 H 0.76426 0.79695 0.2178 0.0
C6108 C 0.09769 0.73038 0.94092 0.0
C6109 C 0.08793 0.72349 0.94657 0.0
C6110 C 0.09743 0.73775 0.93268 0.0
C6111 C 0.08055 0.75338 0.9224 0.0
H6112 H 0.09669 0.75384 0.89642 0.0
C6113 C 0.07211 0.77352 0.885 0.0
C6114 C 0.08112 0.78001 0.8784 0.0
C6115 C 0.07359 0.76739 0.89358 0.0
C6116 C 0.09227 0.75397 0.90368 0.0
H6117 H 0.07019 0.71864 0.94774 0.0
H6118 H 0.06975 0.7315 0.93344 0.0
H6119 H 0.09805 0.74152 0.91082 0.0
H6120 H 0.09871 0.78543 0.87542 0.0
H6121 H 0.1014 0.77478 0.89056 0.0
H6122 H 0.07472 0.76576 0.91528 0.0
C6123 C 0.07764 0.73139 0.9355 0.0
C6124 C 0.09304 0.74688 0.91192 0.0
C6125 C 0.0779 0.72402 0.9437 0.0
C6126 C 0.09167 0.78044 0.88048 0.0
C6127 C 0.09317 0.7743 0.88908 0.0
C6128 C 0.0798 0.76047 0.91418 0.0
C6129 C 0.08741 0.73841 0.92994 0.0
C6130 C 0.08707 0.74639 0.92133 0.0
C6131 C 0.08413 0.76764 0.89571 0.0
C6132 C 0.08553 0.76073 0.90467 0.0
H6133 H 0.10559 0.73029 0.943 0.0
H6134 H 0.10511 0.74312 0.9286 0.0
H6135 H 0.07603 0.75339 0.92961 0.0
H6136 H 0.06389 0.77304 0.88344 0.0
H6137 H 0.06642 0.7622 0.8984 0.0
C6138 C 0.81823 0.24919 0.77515 0.0
C6139 C 0.82886 0.25546 0.77912 0.0
C6140 C 0.8167 0.2479 0.76441 0.0
C6141 C 0.82964 0.2622 0.7396 0.0
H6142 H 0.80831 0.23232 0.72751 0.0
C6143 C 0.82263 0.25637 0.69526 0.0
C6144 C 0.81154 0.25107 0.69222 0.0
C6145 C 0.82531 0.25623 0.70568 0.0
C6146 C 0.81424 0.24076 0.73078 0.0
H6147 H 0.84623 0.26512 0.7749 0.0
H6148 H 0.84358 0.26269 0.75615 0.0
H6149 H 0.812 0.2332 0.74604 0.0
H6150 H 0.79461 0.24115 0.69772 0.0
H6151 H 0.79925 0.24108 0.71589 0.0
H6152 H 0.83176 0.26983 0.72437 0.0
C6153 C 0.83641 0.25889 0.76135 0.0
C6154 C 0.81636 0.24126 0.7414 0.0
C6155 C 0.83795 0.26017 0.7721 0.0
C6156 C 0.80322 0.24543 0.69982 0.0
C6157 C 0.8059 0.24527 0.71022 0.0
C6158 C 0.82752 0.2617 0.72898 0.0
C6159 C 0.82575 0.25284 0.75738 0.0
C6160 C 0.82399 0.25203 0.74596 0.0
C6161 C 0.81696 0.25074 0.7133 0.0
C6162 C 0.8197 0.25102 0.72446 0.0
H6163 H 0.81107 0.24533 0.78034 0.0
H6164 H 0.80836 0.24328 0.76163 0.0
H6165 H 0.83545 0.2707 0.74289 0.0
H6166 H 0.82923 0.26086 0.68961 0.0
H6167 H 0.83393 0.26042 0.70777 0.0
C6168 C 0.34377 0.75121 0.06674 0.0
C6169 C 0.34564 0.76224 0.06161 0.0
C6170 C 0.34203 0.75039 0.07755 0.0
C6171 C 0.3467 0.76927 0.10158 0.0
H6172 H 0.32214 0.74147 0.11311 0.0
C6173 C 0.32964 0.76986 0.14337 0.0
C6174 C 0.32547 0.75893 0.14906 0.0
C6175 C 0.33307 0.76985 0.13296 0.0
C6176 C 0.32916 0.74919 0.11006 0.0
H6177 H 0.34699 0.78099 0.06391 0.0
H6178 H 0.34413 0.7796 0.08274 0.0
H6179 H 0.32625 0.74218 0.09442 0.0
H6180 H 0.32192 0.73944 0.14831 0.0
H6181 H 0.32818 0.73946 0.13016 0.0
H6182 H 0.34962 0.77633 0.11716 0.0
C6183 C 0.34413 0.77163 0.07839 0.0
C6184 C 0.33149 0.74961 0.09933 0.0
C6185 C 0.34579 0.77243 0.06759 0.0
C6186 C 0.32514 0.74803 0.14417 0.0
C6187 C 0.32861 0.74802 0.13373 0.0
C6188 C 0.34442 0.76883 0.1123 0.0
C6189 C 0.3422 0.7606 0.08349 0.0
C6190 C 0.34018 0.75975 0.09495 0.0
C6191 C 0.33248 0.75891 0.12796 0.0
C6192 C 0.3355 0.75888 0.11667 0.0
H6193 H 0.34378 0.74323 0.06242 0.0
H6194 H 0.34067 0.7418 0.08127 0.0
H6195 H 0.35357 0.77711 0.09845 0.0
H6196 H 0.33016 0.77845 0.14694 0.0
H6197 H 0.33588 0.77839 0.12876 0.0
C6198 C 0.9711 0.62363 0.75712 0.0
C6199 C 0.96751 0.62634 0.74768 0.0
C6200 C 0.9678 0.62732 0.76665 0.0
C6201 C 0.95709 0.64963 0.77817 0.0
H6202 H 0.94948 0.62804 0.80191 0.0
C6203 C 0.94039 0.66246 0.81694 0.0
C6204 C 0.94491 0.6603 0.82601 0.0
C6205 C 0.94226 0.65755 0.80737 0.0
C6206 C 0.95166 0.63422 0.79538 0.0
H6207 H 0.9577 0.6352 0.7409 0.0
H6208 H 0.9518 0.64145 0.75749 0.0
H6209 H 0.95466 0.62112 0.78524 0.0
H6210 H 0.95472 0.6513 0.83243 0.0
H6211 H 0.95806 0.64273 0.81573 0.0
H6212 H 0.95419 0.66276 0.78831 0.0
C6213 C 0.95725 0.63655 0.75753 0.0
C6214 C 0.95464 0.63025 0.78582 0.0
C6215 C 0.96054 0.63284 0.74802 0.0
C6216 C 0.95108 0.65296 0.82549 0.0
C6217 C 0.95295 0.64804 0.81594 0.0
C6218 C 0.95411 0.65358 0.78772 0.0
C6219 C 0.96084 0.63384 0.76698 0.0
C6220 C 0.95745 0.63794 0.77711 0.0
C6221 C 0.9487 0.65042 0.80673 0.0
C6222 C 0.9514 0.64596 0.79646 0.0
H6223 H 0.97638 0.61853 0.75716 0.0
H6224 H 0.97082 0.6252 0.77376 0.0
H6225 H 0.95936 0.65586 0.77168 0.0
H6226 H 0.93563 0.66816 0.81721 0.0
H6227 H 0.93873 0.65943 0.80046 0.0
C6228 C 0.22997 0.27427 0.53371 0.0
C6229 C 0.22842 0.28363 0.52829 0.0
C6230 C 0.23333 0.27609 0.54405 0.0
C6231 C 0.23384 0.29554 0.56723 0.0
H6232 H 0.25373 0.28175 0.57779 0.0
C6233 C 0.24939 0.30569 0.60904 0.0
C6234 C 0.2489 0.29558 0.61475 0.0
C6235 C 0.24803 0.30465 0.59828 0.0
C6236 C 0.24811 0.28559 0.57497 0.0
H6237 H 0.22934 0.30231 0.52957 0.0
H6238 H 0.2355 0.30559 0.54743 0.0
H6239 H 0.24923 0.27925 0.55936 0.0
H6240 H 0.24691 0.27658 0.61392 0.0
H6241 H 0.2445 0.27466 0.595 0.0
H6242 H 0.23269 0.30186 0.5828 0.0
C6243 C 0.23393 0.29676 0.54375 0.0
C6244 C 0.24551 0.28414 0.56441 0.0
C6245 C 0.23053 0.29493 0.53343 0.0
C6246 C 0.24738 0.2845 0.60958 0.0
C6247 C 0.24604 0.28344 0.59878 0.0
C6248 C 0.23647 0.29703 0.57775 0.0
C6249 C 0.23526 0.28732 0.54924 0.0
C6250 C 0.23831 0.28907 0.56041 0.0
C6251 C 0.24612 0.29344 0.59304 0.0
C6252 C 0.24362 0.29206 0.58176 0.0
H6253 H 0.22858 0.26551 0.52997 0.0
H6254 H 0.23417 0.26857 0.54803 0.0
H6255 H 0.22808 0.29925 0.56451 0.0
H6256 H 0.25054 0.31432 0.61294 0.0
H6257 H 0.24831 0.31258 0.59407 0.0
C6258 C 0.5717 0.35998 0.26287 0.0
C6259 C 0.56097 0.35942 0.26129 0.0
C6260 C 0.57421 0.35579 0.27209 0.0
C6261 C 0.56171 0.33583 0.29463 0.0
H6262 H 0.59019 0.35467 0.30668 0.0
C6263 C 0.57491 0.32492 0.33466 0.0
C6264 C 0.58588 0.32576 0.33519 0.0
C6265 C 0.57135 0.32879 0.3258 0.0
C6266 C 0.58225 0.34924 0.30337 0.0
H6267 H 0.54441 0.35386 0.26813 0.0
H6268 H 0.54883 0.34654 0.28432 0.0
H6269 H 0.58486 0.36199 0.2911 0.0
H6270 H 0.60154 0.33085 0.32661 0.0
H6271 H 0.59536 0.33765 0.31123 0.0
H6272 H 0.55914 0.32309 0.30698 0.0
C6273 C 0.55527 0.35016 0.27836 0.0
C6274 C 0.57919 0.35343 0.29443 0.0
C6275 C 0.55274 0.35436 0.2691 0.0
C6276 C 0.59311 0.33032 0.32656 0.0
C6277 C 0.58957 0.33421 0.31774 0.0
C6278 C 0.56477 0.33164 0.30362 0.0
C6279 C 0.56607 0.35091 0.27999 0.0
C6280 C 0.56896 0.34671 0.28986 0.0
C6281 C 0.57868 0.33361 0.31728 0.0
C6282 C 0.57514 0.33823 0.30801 0.0
H6283 H 0.57817 0.36355 0.25692 0.0
H6284 H 0.58254 0.35624 0.27296 0.0
H6285 H 0.55381 0.33038 0.29127 0.0
H6286 H 0.56915 0.32157 0.34121 0.0
H6287 H 0.56293 0.3283 0.32572 0.0
C6288 C 0.48552 0.38441 0.18308 0.0
C6289 C 0.4833 0.37496 0.19029 0.0
C6290 C 0.477 0.38529 0.17738 0.0
C6291 C 0.44671 0.37611 0.17765 0.0
H6292 H 0.45187 0.3851 0.14855 0.0
C6293 C 0.41225 0.37992 0.1531 0.0
C6294 C 0.4155 0.39034 0.14687 0.0
C6295 C 0.42025 0.37669 0.15764 0.0
C6296 C 0.45031 0.38265 0.15669 0.0
H6297 H 0.47034 0.35894 0.19708 0.0
H6298 H 0.45544 0.36053 0.18717 0.0
H6299 H 0.46635 0.38221 0.15814 0.0
H6300 H 0.42941 0.40546 0.14025 0.0
H6301 H 0.44343 0.39993 0.14819 0.0
H6302 H 0.43076 0.37677 0.17627 0.0
C6303 C 0.46378 0.36733 0.186 0.0
C6304 C 0.45862 0.38101 0.16219 0.0
C6305 C 0.47232 0.36643 0.1917 0.0
C6306 C 0.42678 0.3973 0.14496 0.0
C6307 C 0.43478 0.39409 0.14948 0.0
C6308 C 0.43841 0.37777 0.17216 0.0
C6309 C 0.46603 0.37676 0.17876 0.0
C6310 C 0.45697 0.37786 0.17277 0.0
C6311 C 0.43162 0.38387 0.15604 0.0
C6312 C 0.44015 0.3812 0.16164 0.0
H6313 H 0.49383 0.39127 0.18194 0.0
H6314 H 0.47898 0.39281 0.17202 0.0
H6315 H 0.44522 0.37383 0.18583 0.0
H6316 H 0.40355 0.37449 0.1547 0.0
H6317 H 0.41753 0.36868 0.16253 0.0
C6318 C 0.33864 0.68519 0.96808 0.0
C6319 C 0.33966 0.68494 0.97892 0.0
C6320 C 0.3374 0.67489 0.96186 0.0
C6321 C 0.34157 0.64561 0.96185 0.0
H6322 H 0.32191 0.63736 0.93851 0.0
C6323 C 0.32936 0.59975 0.93886 0.0
C6324 C 0.32954 0.60043 0.92795 0.0
C6325 C 0.3306 0.61005 0.94508 0.0
C6326 C 0.3275 0.63961 0.94495 0.0
H6327 H 0.34028 0.67361 0.99167 0.0
H6328 H 0.33776 0.65555 0.98091 0.0
H6329 H 0.32397 0.65527 0.94939 0.0
H6330 H 0.33103 0.6124 0.91501 0.0
H6331 H 0.33321 0.63041 0.92588 0.0
H6332 H 0.34496 0.62983 0.95745 0.0
C6333 C 0.33809 0.66378 0.97717 0.0
C6334 C 0.32871 0.64989 0.95118 0.0
C6335 C 0.33938 0.6741 0.98338 0.0
C6336 C 0.33094 0.61162 0.9234 0.0
C6337 C 0.33208 0.62189 0.92962 0.0
C6338 C 0.34029 0.63528 0.95566 0.0
C6339 C 0.3371 0.66404 0.96632 0.0
C6340 C 0.33578 0.65305 0.9597 0.0
C6341 C 0.33196 0.62123 0.94053 0.0
C6342 C 0.33326 0.63218 0.94713 0.0
H6343 H 0.33868 0.69332 0.96437 0.0
H6344 H 0.33681 0.67548 0.95353 0.0
H6345 H 0.34723 0.64787 0.96823 0.0
H6346 H 0.32839 0.59128 0.94259 0.0
H6347 H 0.33037 0.60923 0.95347 0.0
C6348 C 0.02209 0.58557 0.65596 0.0
C6349 C 0.02144 0.59603 0.66089 0.0
C6350 C 0.03223 0.58575 0.652 0.0
C6351 C 0.06265 0.60268 0.65353 0.0
H6352 H 0.06309 0.58766 0.62641 0.0
C6353 C 0.10331 0.61067 0.63011 0.0
C6354 C 0.10412 0.60072 0.62442 0.0
C6355 C 0.0933 0.60966 0.63501 0.0
C6356 C 0.06311 0.59175 0.63406 0.0
H6357 H 0.031 0.61487 0.66557 0.0
H6358 H 0.04868 0.61518 0.65867 0.0
H6359 H 0.04557 0.58674 0.63416 0.0
H6360 H 0.09502 0.58186 0.61951 0.0
H6361 H 0.0776 0.58003 0.62821 0.0
H6362 H 0.08021 0.60776 0.65338 0.0
C6363 C 0.04136 0.60678 0.65798 0.0
C6364 C 0.05304 0.59122 0.6385 0.0
C6365 C 0.03122 0.6066 0.66194 0.0
C6366 C 0.09471 0.58967 0.62389 0.0
C6367 C 0.08469 0.58867 0.62878 0.0
C6368 C 0.07272 0.6032 0.64908 0.0
C6369 C 0.04198 0.59639 0.65288 0.0
C6370 C 0.05269 0.59672 0.64828 0.0
C6371 C 0.08384 0.59868 0.63435 0.0
C6372 C 0.07308 0.59778 0.63926 0.0
H6373 H 0.01476 0.5772 0.65518 0.0
H6374 H 0.03242 0.57751 0.6483 0.0
H6375 H 0.06266 0.60685 0.66113 0.0
H6376 H 0.11042 0.61927 0.63079 0.0
H6377 H 0.09294 0.61759 0.63914 0.0
C6378 C 0.21205 0.35539 0.44477 0.0
C6379 C 0.22149 0.35354 0.44773 0.0
C6380 C 0.21309 0.36526 0.43846 0.0
C6381 C 0.23222 0.38701 0.41964 0.0
H6382 H 0.21617 0.40757 0.42717 0.0
C6383 C 0.24449 0.43514 0.4028 0.0
C6384 C 0.23615 0.43926 0.40066 0.0
C6385 C 0.24188 0.42399 0.40779 0.0
C6386 C 0.22057 0.40181 0.42484 0.0
H6387 H 0.2394 0.36046 0.44621 0.0
H6388 H 0.24122 0.37768 0.43526 0.0
H6389 H 0.21312 0.38934 0.43733 0.0
H6390 H 0.21859 0.43517 0.40185 0.0
H6391 H 0.21389 0.41543 0.41051 0.0
H6392 H 0.23971 0.39945 0.4072 0.0
C6393 C 0.23301 0.37149 0.43779 0.0
C6394 C 0.21884 0.39138 0.43069 0.0
C6395 C 0.23197 0.3617 0.44416 0.0
C6396 C 0.22512 0.43207 0.40345 0.0
C6397 C 0.22248 0.42085 0.40845 0.0
C6398 C 0.23391 0.39739 0.41377 0.0
C6399 C 0.22359 0.37341 0.43488 0.0
C6400 C 0.22479 0.38398 0.42826 0.0
C6401 C 0.23085 0.4167 0.41072 0.0
C6402 C 0.22826 0.40506 0.41641 0.0
H6403 H 0.20386 0.3493 0.44746 0.0
H6404 H 0.20567 0.36645 0.43631 0.0
H6405 H 0.23677 0.38137 0.41745 0.0
H6406 H 0.25307 0.44065 0.40077 0.0
H6407 H 0.24856 0.42123 0.40958 0.0
C6408 C 0.62843 0.77596 0.34792 0.0
C6409 C 0.63763 0.78705 0.34634 0.0
C6410 C 0.61811 0.77597 0.35105 0.0
C6411 C 0.60217 0.79591 0.35149 0.0
H6412 H 0.58202 0.77077 0.36957 0.0
C6413 C 0.55998 0.79676 0.36419 0.0
C6414 C 0.55091 0.78547 0.36413 0.0
C6415 C 0.57079 0.79717 0.36351 0.0
C6416 C 0.58751 0.77785 0.36449 0.0
H6417 H 0.64325 0.80686 0.34721 0.0
H6418 H 0.62529 0.8069 0.35274 0.0
H6419 H 0.60046 0.77125 0.36562 0.0
H6420 H 0.54579 0.76576 0.36365 0.0
H6421 H 0.56462 0.76637 0.36222 0.0
H6422 H 0.58929 0.80257 0.3504 0.0
C6423 C 0.62599 0.79817 0.35138 0.0
C6424 C 0.59811 0.7781 0.36218 0.0
C6425 C 0.6363 0.79816 0.34821 0.0
C6426 C 0.55273 0.77457 0.36378 0.0
C6427 C 0.56353 0.77496 0.363 0.0
C6428 C 0.59165 0.79577 0.35392 0.0
C6429 C 0.61671 0.78708 0.35274 0.0
C6430 C 0.60556 0.78708 0.35558 0.0
C6431 C 0.57271 0.78628 0.36255 0.0
C6432 C 0.58414 0.78672 0.36043 0.0
H6433 H 0.62911 0.76723 0.3464 0.0
H6434 H 0.61115 0.76724 0.35184 0.0
H6435 H 0.60756 0.80282 0.34621 0.0
H6436 H 0.55871 0.80528 0.36446 0.0
H6437 H 0.57764 0.80605 0.3635 0.0
C6438 C 0.10797 0.64702 0.03412 0.0
C6439 C 0.1095 0.65182 0.02403 0.0
C6440 C 0.11516 0.64209 0.03788 0.0
C6441 C 0.13631 0.62983 0.03011 0.0
H6442 H 0.14549 0.63873 0.05855 0.0
C6443 C 0.17196 0.62059 0.0492 0.0
C6444 C 0.17045 0.61752 0.05979 0.0
C6445 C 0.16411 0.62364 0.04415 0.0
C6446 C 0.1429 0.636 0.05064 0.0
H6447 H 0.11969 0.65488 0.00988 0.0
H6448 H 0.13243 0.64643 0.01655 0.0
H6449 H 0.13278 0.64641 0.05103 0.0
H6450 H 0.15921 0.61429 0.07318 0.0
H6451 H 0.14548 0.61941 0.06439 0.0
H6452 H 0.14658 0.61947 0.02977 0.0
C6453 C 0.12556 0.64641 0.0215 0.0
C6454 C 0.13561 0.64042 0.04633 0.0
C6455 C 0.11834 0.65136 0.01772 0.0
C6456 C 0.16066 0.61683 0.06506 0.0
C6457 C 0.15283 0.61982 0.06003 0.0
C6458 C 0.14365 0.62539 0.03445 0.0
C6459 C 0.12413 0.64187 0.03168 0.0
C6460 C 0.13214 0.63731 0.03605 0.0
C6461 C 0.15461 0.62364 0.04962 0.0
C6462 C 0.14693 0.62833 0.04481 0.0
H6463 H 0.10136 0.64734 0.03925 0.0
H6464 H 0.11373 0.63851 0.04571 0.0
H6465 H 0.13374 0.62721 0.02219 0.0
H6466 H 0.17946 0.62125 0.04497 0.0
H6467 H 0.16573 0.62658 0.03614 0.0
C6468 C 0.89993 0.23516 0.85141 0.0
C6469 C 0.89699 0.24507 0.85418 0.0
C6470 C 0.90961 0.2346 0.85504 0.0
C6471 C 0.93143 0.24602 0.87438 0.0
H6472 H 0.94995 0.24201 0.85169 0.0
C6473 C 0.97808 0.25445 0.87801 0.0
C6474 C 0.9822 0.24744 0.87149 0.0
C6475 C 0.96706 0.25322 0.87731 0.0
C6476 C 0.94484 0.24293 0.85813 0.0
H6477 H 0.90154 0.26174 0.86355 0.0
H6478 H 0.91843 0.26063 0.87008 0.0
H6479 H 0.93182 0.24172 0.84809 0.0
H6480 H 0.97818 0.23324 0.8596 0.0
H6481 H 0.95883 0.23054 0.85871 0.0
H6482 H 0.94463 0.24744 0.88442 0.0
C6483 C 0.91323 0.25335 0.86502 0.0
C6484 C 0.93443 0.24274 0.85607 0.0
C6485 C 0.90356 0.25397 0.86128 0.0
C6486 C 0.97511 0.2387 0.86471 0.0
C6487 C 0.96407 0.2373 0.86413 0.0
C6488 C 0.94192 0.24618 0.87645 0.0
C6489 C 0.91651 0.24386 0.86166 0.0
C6490 C 0.92756 0.24415 0.86416 0.0
C6491 C 0.95999 0.24483 0.87016 0.0
C6492 C 0.94873 0.24454 0.86832 0.0
H6493 H 0.89486 0.22796 0.84622 0.0
H6494 H 0.91185 0.22707 0.85247 0.0
H6495 H 0.92629 0.24719 0.88077 0.0
H6496 H 0.98347 0.26121 0.88332 0.0
H6497 H 0.96427 0.25923 0.88202 0.0
C6498 C 0.3764 0.30836 0.47796 0.0
C6499 C 0.38626 0.30923 0.48253 0.0
C6500 C 0.36973 0.3139 0.48271 0.0
C6501 C 0.3698 0.33689 0.50321 0.0
H6502 H 0.33796 0.31901 0.50294 0.0
C6503 C 0.34006 0.35626 0.52376 0.0
C6504 C 0.33092 0.34786 0.52933 0.0
C6505 C 0.34651 0.35213 0.51699 0.0
C6506 C 0.34683 0.3241 0.50316 0.0
H6507 H 0.39699 0.31704 0.49557 0.0
H6508 H 0.38519 0.32621 0.50404 0.0
H6509 H 0.34996 0.3108 0.49345 0.0
H6510 H 0.32116 0.32849 0.53173 0.0
H6511 H 0.3326 0.32133 0.52031 0.0
H6512 H 0.3667 0.34986 0.51337 0.0
C6513 C 0.38266 0.32142 0.49668 0.0
C6514 C 0.35373 0.31948 0.49757 0.0
C6515 C 0.38937 0.31598 0.49189 0.0
C6516 C 0.32824 0.33524 0.52772 0.0
C6517 C 0.33473 0.33111 0.52102 0.0
C6518 C 0.3629 0.34146 0.50888 0.0
C6519 C 0.3727 0.32039 0.4922 0.0
C6520 C 0.36532 0.32573 0.49761 0.0
C6521 C 0.34403 0.3395 0.51565 0.0
C6522 C 0.35132 0.33506 0.50903 0.0
H6523 H 0.37367 0.30316 0.47081 0.0
H6524 H 0.36221 0.31305 0.47894 0.0
H6525 H 0.37866 0.34209 0.5033 0.0
H6526 H 0.34244 0.36605 0.52485 0.0
H6527 H 0.3535 0.35887 0.51287 0.0
C6528 C 0.28786 0.59129 0.34346 0.0
C6529 C 0.29561 0.59946 0.35024 0.0
C6530 C 0.28201 0.57902 0.34615 0.0
C6531 C 0.2822 0.55481 0.36374 0.0
H6532 H 0.25087 0.53995 0.35797 0.0
C6533 C 0.25607 0.50318 0.36996 0.0
C6534 C 0.24536 0.49994 0.37439 0.0
C6535 C 0.26227 0.5152 0.3668 0.0
C6536 C 0.25959 0.54398 0.3597 0.0
H6537 H 0.30335 0.60107 0.36513 0.0
H6538 H 0.29315 0.57966 0.36983 0.0
H6539 H 0.26166 0.56111 0.35299 0.0
H6540 H 0.23282 0.50689 0.37903 0.0
H6541 H 0.24364 0.52787 0.37352 0.0
H6542 H 0.28006 0.53776 0.37066 0.0
C6543 C 0.29169 0.58271 0.36237 0.0
C6544 C 0.26582 0.55607 0.35673 0.0
C6545 C 0.29754 0.59499 0.35968 0.0
C6546 C 0.24097 0.50902 0.37551 0.0
C6547 C 0.24718 0.52105 0.37235 0.0
C6548 C 0.27597 0.54271 0.3667 0.0
C6549 C 0.28377 0.5746 0.35568 0.0
C6550 C 0.2772 0.56165 0.35872 0.0
C6551 C 0.25792 0.52431 0.36799 0.0
C6552 C 0.26458 0.53715 0.36474 0.0
H6553 H 0.28631 0.59438 0.33605 0.0
H6554 H 0.27613 0.57297 0.34073 0.0
H6555 H 0.29097 0.55878 0.36531 0.0
H6556 H 0.25963 0.49636 0.36883 0.0
H6557 H 0.27044 0.51734 0.36331 0.0
C6558 C 0.7386 0.02433 0.60895 0.0
C6559 C 0.73521 0.01328 0.60317 0.0
C6560 C 0.73753 0.03469 0.60495 0.0
C6561 C 0.73347 0.04804 0.58041 0.0
H6562 H 0.72072 0.06601 0.59861 0.0
C6563 C 0.72455 0.0885 0.56522 0.0
C6564 C 0.71411 0.08838 0.56806 0.0
C6565 C 0.72865 0.08089 0.57027 0.0
C6566 C 0.72429 0.06109 0.59342 0.0
H6567 H 0.72849 0.00461 0.58848 0.0
H6568 H 0.72651 0.02256 0.58158 0.0
H6569 H 0.7251 0.04955 0.60565 0.0
H6570 H 0.69979 0.08064 0.5784 0.0
H6571 H 0.70685 0.06722 0.58721 0.0
H6572 H 0.73225 0.05919 0.5681 0.0
C6573 C 0.73003 0.02328 0.58918 0.0
C6574 C 0.72691 0.05174 0.59748 0.0
C6575 C 0.73105 0.01293 0.59319 0.0
C6576 C 0.70793 0.0809 0.57619 0.0
C6577 C 0.71201 0.07328 0.58124 0.0
C6578 C 0.73086 0.05738 0.57636 0.0
C6579 C 0.73314 0.03424 0.59506 0.0
C6580 C 0.73135 0.04495 0.59098 0.0
C6581 C 0.72232 0.07299 0.5782 0.0
C6582 C 0.72607 0.06389 0.58277 0.0
H6583 H 0.74177 0.02486 0.61669 0.0
H6584 H 0.7401 0.04303 0.60964 0.0
H6585 H 0.73701 0.0431 0.57521 0.0
H6586 H 0.72941 0.09421 0.55892 0.0
H6587 H 0.73668 0.08102 0.56783 0.0
C6588 C 0.62611 0.82399 0.37374 0.0
C6589 C 0.63139 0.83432 0.38015 0.0
C6590 C 0.6151 0.81619 0.37573 0.0
C6591 C 0.58917 0.81409 0.38939 0.0
H6592 H 0.58216 0.77914 0.3875 0.0
C6593 C 0.544 0.77823 0.39146 0.0
C6594 C 0.5419 0.76678 0.3958 0.0
C6595 C 0.55486 0.78683 0.39003 0.0
C6596 C 0.58394 0.78885 0.38818 0.0
H6597 H 0.62908 0.84464 0.39358 0.0
H6598 H 0.60976 0.83108 0.39697 0.0
H6599 H 0.601 0.79353 0.38396 0.0
H6600 H 0.54952 0.75536 0.40223 0.0
H6601 H 0.56843 0.77033 0.39994 0.0
H6602 H 0.57216 0.80944 0.39381 0.0
C6603 C 0.61418 0.82907 0.39037 0.0
C6604 C 0.59475 0.79712 0.38601 0.0
C6605 C 0.62525 0.83686 0.38842 0.0
C6606 C 0.55088 0.76412 0.39883 0.0
C6607 C 0.56175 0.77268 0.3974 0.0
C6608 C 0.57832 0.8058 0.39155 0.0
C6609 C 0.60903 0.81855 0.38413 0.0
C6610 C 0.5975 0.80983 0.38653 0.0
C6611 C 0.56391 0.78413 0.39287 0.0
C6612 C 0.57553 0.79305 0.39091 0.0
H6613 H 0.63052 0.8219 0.36718 0.0
H6614 H 0.61133 0.80829 0.37068 0.0
H6615 H 0.59101 0.82384 0.38983 0.0
H6616 H 0.53723 0.78059 0.38929 0.0
H6617 H 0.55611 0.79549 0.38653 0.0
C6618 C 0.78865 0.96217 0.06983 0.0
C6619 C 0.77768 0.96133 0.0693 0.0
C6620 C 0.79108 0.95168 0.06866 0.0
C6621 C 0.77997 0.9197 0.0585 0.0
H6622 H 0.7991 0.9146 0.07852 0.0
C6623 C 0.78061 0.87211 0.06546 0.0
C6624 C 0.79046 0.87131 0.06843 0.0
C6625 C 0.78011 0.88356 0.06414 0.0
C6626 C 0.79391 0.91595 0.07272 0.0
H6627 H 0.76067 0.94867 0.06711 0.0
H6628 H 0.76493 0.93048 0.06493 0.0
H6629 H 0.79621 0.93372 0.07896 0.0
H6630 H 0.8076 0.88161 0.07212 0.0
H6631 H 0.80689 0.90175 0.06957 0.0
H6632 H 0.7776 0.90192 0.05229 0.0
C6633 C 0.77168 0.93929 0.06616 0.0
C6634 C 0.79223 0.92693 0.073 0.0
C6635 C 0.76924 0.94974 0.06739 0.0
C6636 C 0.79994 0.88207 0.06974 0.0
C6637 C 0.79947 0.89357 0.06839 0.0
C6638 C 0.78171 0.90877 0.05817 0.0
C6639 C 0.78262 0.94011 0.06685 0.0
C6640 C 0.78508 0.92885 0.06602 0.0
C6641 C 0.78948 0.89447 0.06577 0.0
C6642 C 0.78854 0.90663 0.06541 0.0
H6643 H 0.79541 0.97094 0.07108 0.0
H6644 H 0.79961 0.95266 0.0691 0.0
H6645 H 0.77457 0.92098 0.05289 0.0
H6646 H 0.77316 0.86388 0.06457 0.0
H6647 H 0.77223 0.88383 0.0623 0.0
C6648 C 0.40948 0.69257 0.34423 0.0
C6649 C 0.40111 0.69681 0.34228 0.0
C6650 C 0.42045 0.70083 0.34537 0.0
C6651 C 0.43664 0.73282 0.35283 0.0
H6652 H 0.46159 0.7262 0.34168 0.0
C6653 C 0.48102 0.76607 0.36189 0.0
C6654 C 0.48915 0.76125 0.36267 0.0
C6655 C 0.47068 0.75887 0.35791 0.0
C6656 C 0.45477 0.72814 0.34505 0.0
H6657 H 0.39787 0.71315 0.33978 0.0
H6658 H 0.41699 0.72748 0.34163 0.0
H6659 H 0.44286 0.71226 0.33765 0.0
H6660 H 0.49304 0.74528 0.35993 0.0
H6661 H 0.47482 0.73238 0.35361 0.0
H6662 H 0.44827 0.74837 0.36051 0.0
C6663 C 0.41503 0.71776 0.34235 0.0
C6664 C 0.44399 0.72014 0.34265 0.0
C6665 C 0.40407 0.70951 0.34119 0.0
C6666 C 0.48688 0.74919 0.35929 0.0
C6667 C 0.47642 0.74185 0.35557 0.0
C6668 C 0.44737 0.74069 0.35538 0.0
C6669 C 0.42332 0.71352 0.34459 0.0
C6670 C 0.43481 0.72233 0.34661 0.0
C6671 C 0.46808 0.74652 0.35493 0.0
C6672 C 0.45664 0.73843 0.35165 0.0
H6673 H 0.40757 0.68285 0.34492 0.0
H6674 H 0.42663 0.69727 0.34716 0.0
H6675 H 0.42974 0.73477 0.35602 0.0
H6676 H 0.48268 0.77542 0.3644 0.0
H6677 H 0.46476 0.76308 0.35724 0.0
C6678 C 0.24119 0.44609 0.88609 0.0
C6679 C 0.2338 0.44505 0.87812 0.0
C6680 C 0.24939 0.45748 0.88869 0.0
C6681 C 0.25665 0.49089 0.88657 0.0
H6682 H 0.28529 0.49302 0.89541 0.0
C6683 C 0.28622 0.53266 0.90933 0.0
C6684 C 0.29766 0.53634 0.90767 0.0
C6685 C 0.27886 0.52205 0.90449 0.0
C6686 C 0.2774 0.49265 0.89282 0.0
H6687 H 0.22936 0.45515 0.86652 0.0
H6688 H 0.24375 0.47503 0.87098 0.0
H6689 H 0.27181 0.47347 0.88915 0.0
H6690 H 0.31055 0.53216 0.89963 0.0
H6691 H 0.29765 0.51359 0.89095 0.0
H6692 H 0.26229 0.5101 0.8901 0.0
C6693 C 0.24309 0.46707 0.87535 0.0
C6694 C 0.2696 0.48138 0.88937 0.0
C6695 C 0.23484 0.45567 0.87278 0.0
C6696 C 0.30171 0.52944 0.90096 0.0
C6697 C 0.29433 0.51879 0.89608 0.0
C6698 C 0.26447 0.50217 0.88998 0.0
C6699 C 0.25046 0.46813 0.88336 0.0
C6700 C 0.25905 0.4803 0.88636 0.0
C6701 C 0.2828 0.51489 0.89788 0.0
C6702 C 0.27488 0.50315 0.89332 0.0
H6703 H 0.24051 0.43812 0.89045 0.0
H6704 H 0.25474 0.45796 0.89505 0.0
H6705 H 0.2486 0.49043 0.88439 0.0
H6706 H 0.28297 0.53784 0.91457 0.0
H6707 H 0.27008 0.51925 0.90623 0.0
C6708 C 0.72132 0.04667 0.07664 0.0
C6709 C 0.73095 0.05416 0.08182 0.0
C6710 C 0.7121 0.04985 0.07657 0.0
C6711 C 0.70358 0.07617 0.08124 0.0
H6712 H 0.67425 0.05059 0.08481 0.0
C6713 C 0.66456 0.08608 0.09222 0.0
C6714 C 0.65457 0.07854 0.08772 0.0
C6715 C 0.67409 0.0836 0.09048 0.0
C6716 C 0.68236 0.05784 0.08366 0.0
H6717 H 0.73829 0.07074 0.09118 0.0
H6718 H 0.72226 0.07621 0.09113 0.0
H6719 H 0.69034 0.04517 0.08377 0.0
H6720 H 0.64657 0.06272 0.07777 0.0
H6721 H 0.66322 0.05842 0.0746 0.0
H6722 H 0.69558 0.08886 0.08132 0.0
C6723 C 0.72189 0.06803 0.0869 0.0
C6724 C 0.69161 0.05473 0.08305 0.0
C6725 C 0.73111 0.06488 0.08694 0.0
C6726 C 0.65425 0.06869 0.08126 0.0
C6727 C 0.66374 0.06618 0.07954 0.0
C6728 C 0.69433 0.07929 0.08188 0.0
C6729 C 0.71225 0.06057 0.08172 0.0
C6730 C 0.70236 0.06385 0.08191 0.0
C6731 C 0.67375 0.07347 0.08428 0.0
C6732 C 0.6836 0.07017 0.08315 0.0
H6733 H 0.72096 0.03843 0.07252 0.0
H6734 H 0.70488 0.04396 0.07239 0.0
H6735 H 0.71171 0.08343 0.08018 0.0
H6736 H 0.66492 0.09366 0.09732 0.0
H6737 H 0.68161 0.08934 0.09434 0.0
C6738 C 0.80114 0.9382 0.63013 0.0
C6739 C 0.80433 0.95094 0.62908 0.0
C6740 C 0.80905 0.93324 0.63147 0.0
C6741 C 0.83858 0.93939 0.62706 0.0
H6742 H 0.83266 0.91365 0.64724 0.0
C6743 C 0.87091 0.91916 0.63601 0.0
C6744 C 0.86693 0.90637 0.63726 0.0
C6745 C 0.86355 0.92504 0.63543 0.0
C6746 C 0.8344 0.92073 0.64149 0.0
H6747 H 0.81841 0.96842 0.62864 0.0
H6748 H 0.83225 0.9597 0.63087 0.0
H6749 H 0.81934 0.92309 0.64536 0.0
H6750 H 0.85206 0.8898 0.63909 0.0
H6751 H 0.83926 0.89998 0.6378 0.0
H6752 H 0.85356 0.93691 0.62307 0.0
C6753 C 0.8236 0.95358 0.6306 0.0
C6754 C 0.82677 0.92616 0.64043 0.0
C6755 C 0.81567 0.95857 0.6293 0.0
C6756 C 0.85542 0.89964 0.638 0.0
C6757 C 0.84807 0.9055 0.63739 0.0
C6758 C 0.8462 0.93392 0.62809 0.0
C6759 C 0.82037 0.94086 0.63174 0.0
C6760 C 0.82873 0.93548 0.63315 0.0
C6761 C 0.85204 0.91828 0.63608 0.0
C6762 C 0.84416 0.92445 0.63526 0.0
H6763 H 0.79251 0.93202 0.62978 0.0
H6764 H 0.8063 0.92338 0.63214 0.0
H6765 H 0.84027 0.94645 0.6213 0.0
H6766 H 0.87972 0.92462 0.63532 0.0
H6767 H 0.8669 0.93491 0.63453 0.0
loop_
_geom_bond_atom_site_label_1
_geom_bond_atom_site_label_2
_geom_bond_distance
_geom_bond_site_symmetry_2
_ccdc_geom_bond_type
C0 C1 1.264 . S
C0 C5 1.479 . S
C0 C10 1.465 . S
C1 C0 1.264 . S
C1 C3 1.339 . S
C1 H28 0.931 . S
C2 C3 1.395 . S
C2 C4 1.320 . S
C3 C1 1.339 . S
C3 C2 1.395 . S
C3 H29 0.929 . S
C4 C2 1.320 . S
C4 C5 1.405 . S
C4 H30 0.930 . S
C5 C0 1.479 . S
C5 C4 1.405 . S
C5 H31 0.931 . S
U6 O7 2.454 . S
U6 O8 2.458 . S
U6 C9 2.984 . S
U6 C10 2.847 . S
U6 C23 2.882 . S
U6 O24 2.441 . S
U6 O25 2.420 . S
U6 O26 2.455 . S
U6 O27 2.449 . S
O7 U6 2.454 . S
O7 C9 1.353 . S
O8 U6 2.458 . S
O8 C9 1.286 . S
C9 U6 2.984 . S
C9 O7 1.353 . S
C9 O8 1.286 . S
C9 C11 1.363 . S
C10 C0 1.465 . S
C10 U6 2.847 . S
C10 O24 1.249 . S
C10 O25 1.202 . S
C11 C9 1.363 . S
C11 C13 1.408 . S
C11 C16 1.342 . S
C12 C13 1.310 . S
C12 C15 1.461 . S
C12 H32 0.932 . S
C13 C11 1.408 . S
C13 C12 1.310 . S
C13 H33 0.930 . S
C14 C15 1.474 . S
C14 C16 1.285 . S
C14 H34 0.929 . S
C15 C12 1.461 . S
C15 C14 1.474 . S
C16 C11 1.342 . S
C16 C14 1.285 . S
C16 H35 0.930 . S
C17 C20 1.424 . S
C17 C22 1.245 . S
C17 C23 1.428 . S
C18 C21 1.260 . S
C18 C22 1.477 . S
C18 H36 0.932 . S
C19 C20 1.384 . S
C19 C21 1.479 . S
C19 H37 0.929 . S
C20 C17 1.424 . S
C20 C19 1.384 . S
C20 H38 0.928 . S
C21 C18 1.260 . S
C21 C19 1.479 . S
C22 C17 1.245 . S
C22 C18 1.477 . S
C22 H39 0.932 . S
C23 U6 2.882 . S
C23 C17 1.428 . S
C23 O26 1.301 . S
C23 O27 1.282 . S
O24 U6 2.441 . S
O24 C10 1.249 . S
O25 U6 2.420 . S
O25 C10 1.202 . S
O26 U6 2.455 . S
O26 C23 1.301 . S
O27 U6 2.449 . S
O27 C23 1.282 . S
H28 C1 0.931 . S
H29 C3 0.929 . S
H30 C4 0.930 . S
H31 C5 0.931 . S
H32 C12 0.932 . S
H33 C13 0.930 . S
H34 C14 0.929 . S
H35 C16 0.930 . S
H36 C18 0.932 . S
H37 C19 0.929 . S
H38 C20 0.928 . S
H39 C22 0.932 . S
C40 C41 1.264 . S
C40 C45 1.479 . S
C40 C50 1.465 . S
C41 C40 1.264 . S
C41 C43 1.339 . S
C41 H68 0.931 . S
C42 C43 1.395 . S
C42 C44 1.320 . S
C43 C41 1.339 . S
C43 C42 1.395 . S
C43 H69 0.929 . S
C44 C42 1.320 . S
C44 C45 1.405 . S
C44 H70 0.930 . S
C45 C40 1.479 . S
C45 C44 1.405 . S
C45 H71 0.931 . S
U46 O47 2.454 . S
U46 O48 2.458 . S
U46 C49 2.984 . S
U46 C50 2.847 . S
U46 C63 2.882 . S
U46 O64 2.441 . S
U46 O65 2.420 . S
U46 O66 2.455 . S
U46 O67 2.449 . S
O47 U46 2.454 . S
O47 C49 1.353 . S
O48 U46 2.458 . S
O48 C49 1.286 . S
C49 U46 2.984 . S
C49 O47 1.353 . S
C49 O48 1.286 . S
C49 C51 1.363 . S
C50 C40 1.465 . S
C50 U46 2.847 . S
C50 O64 1.249 . S
C50 O65 1.202 . S
C51 C49 1.363 . S
C51 C53 1.408 . S
C51 C56 1.342 . S
C52 C53 1.310 . S
C52 C55 1.461 . S
C52 H72 0.932 . S
C53 C51 1.408 . S
C53 C52 1.310 . S
C53 H73 0.930 . S
C54 C55 1.474 . S
C54 C56 1.285 . S
C54 H74 0.929 . S
C55 C52 1.461 . S
C55 C54 1.474 . S
C56 C51 1.342 . S
C56 C54 1.285 . S
C56 H75 0.930 . S
C57 C60 1.424 . S
C57 C62 1.245 . S
C57 C63 1.428 . S
C58 C61 1.260 . S
C58 C62 1.477 . S
C58 H76 0.932 . S
C59 C60 1.384 . S
C59 C61 1.479 . S
C59 H77 0.929 . S
C60 C57 1.424 . S
C60 C59 1.384 . S
C60 H78 0.928 . S
C61 C58 1.260 . S
C61 C59 1.479 . S
C62 C57 1.245 . S
C62 C58 1.477 . S
C62 H79 0.932 . S
C63 U46 2.882 . S
C63 C57 1.428 . S
C63 O66 1.301 . S
C63 O67 1.282 . S
O64 U46 2.441 . S
O64 C50 1.249 . S
O65 U46 2.420 . S
O65 C50 1.202 . S
O66 U46 2.455 . S
O66 C63 1.301 . S
O67 U46 2.449 . S
O67 C63 1.282 . S
H68 C41 0.931 . S
H69 C43 0.929 . S
H70 C44 0.930 . S
H71 C45 0.931 . S
H72 C52 0.932 . S
H73 C53 0.930 . S
H74 C54 0.929 . S
H75 C56 0.930 . S
H76 C58 0.932 . S
H77 C59 0.929 . S
H78 C60 0.928 . S
H79 C62 0.932 . S
C80 C81 1.264 . S
C80 C85 1.479 . S
C80 C90 1.465 . S
C81 C80 1.264 . S
C81 C83 1.339 . S
C81 H108 0.931 . S
C82 C83 1.395 . S
C82 C84 1.320 . S
C83 C81 1.339 . S
C83 C82 1.395 . S
C83 H109 0.929 . S
C84 C82 1.320 . S
C84 C85 1.405 . S
C84 H110 0.930 . S
C85 C80 1.479 . S
C85 C84 1.405 . S
C85 H111 0.931 . S
U86 O87 2.454 . S
U86 O88 2.458 . S
U86 C89 2.984 . S
U86 C90 2.847 . S
U86 C103 2.882 . S
U86 O104 2.441 . S
U86 O105 2.420 . S
U86 O106 2.455 . S
U86 O107 2.449 . S
O87 U86 2.454 . S
O87 C89 1.353 . S
O88 U86 2.458 . S
O88 C89 1.286 . S
C89 U86 2.984 . S
C89 O87 1.353 . S
C89 O88 1.286 . S
C89 C91 1.363 . S
C90 C80 1.465 . S
C90 U86 2.847 . S
C90 O104 1.249 . S
C90 O105 1.202 . S
C91 C89 1.363 . S
C91 C93 1.408 . S
C91 C96 1.342 . S
C92 C93 1.310 . S
C92 C95 1.461 . S
C92 H112 0.932 . S
C93 C91 1.408 . S
C93 C92 1.310 . S
C93 H113 0.930 . S
C94 C95 1.474 . S
C94 C96 1.285 . S
C94 H114 0.929 . S
C95 C92 1.461 . S
C95 C94 1.474 . S
C96 C91 1.342 . S
C96 C94 1.285 . S
C96 H115 0.930 . S
C97 C100 1.424 . S
C97 C102 1.245 . S
C97 C103 1.428 . S
C98 C101 1.260 . S
C98 C102 1.477 . S
C98 H116 0.932 . S
C99 C100 1.384 . S
C99 C101 1.479 . S
C99 H117 0.929 . S
C100 C97 1.424 . S
C100 C99 1.384 . S
C100 H118 0.928 . S
C101 C98 1.260 . S
C101 C99 1.479 . S
C102 C97 1.245 . S
C102 C98 1.477 . S
C102 H119 0.932 . S
C103 U86 2.882 . S
C103 C97 1.428 . S
C103 O106 1.301 . S
C103 O107 1.282 . S
O104 U86 2.441 . S
O104 C90 1.249 . S
O105 U86 2.420 . S
O105 C90 1.202 . S
O106 U86 2.455 . S
O106 C103 1.301 . S
O107 U86 2.449 . S
O107 C103 1.282 . S
H108 C81 0.931 . S
H109 C83 0.929 . S
H110 C84 0.930 . S
H111 C85 0.931 . S
H112 C92 0.932 . S
H113 C93 0.930 . S
H114 C94 0.929 . S
H115 C96 0.930 . S
H116 C98 0.932 . S
H117 C99 0.929 . S
H118 C100 0.928 . S
H119 C102 0.932 . S
C120 C121 1.264 . S
C120 C125 1.479 . S
C120 C130 1.465 . S
C121 C120 1.264 . S
C121 C123 1.339 . S
C121 H148 0.931 . S
C122 C123 1.395 . S
C122 C124 1.320 . S
C123 C121 1.339 . S
C123 C122 1.395 . S
C123 H149 0.929 . S
C124 C122 1.320 . S
C124 C125 1.405 . S
C124 H150 0.930 . S
C125 C120 1.479 . S
C125 C124 1.405 . S
C125 H151 0.931 . S
U126 O127 2.454 . S
U126 O128 2.458 . S
U126 C129 2.984 . S
U126 C130 2.847 1_556 S
U126 C143 2.882 1_556 S
U126 O144 2.438 1_556 S
U126 O145 2.420 1_556 S
U126 O146 2.455 . S
U126 O147 2.449 1_556 S
O127 U126 2.454 . S
O127 C129 1.353 . S
O128 U126 2.458 . S
O128 C129 1.286 . S
C129 U126 2.984 . S
C129 O127 1.353 . S
C129 O128 1.286 . S
C129 C131 1.363 . S
C130 C120 1.465 . S
C130 U126 2.847 1_554 S
C130 O144 1.272 . S
C130 O145 1.202 . S
C131 C129 1.363 . S
C131 C133 1.408 . S
C131 C136 1.342 . S
C132 C133 1.310 . S
C132 C135 1.461 . S
C132 H152 0.932 . S
C133 C131 1.408 . S
C133 C132 1.310 . S
C133 H153 0.930 . S
C134 C135 1.474 . S
C134 C136 1.285 . S
C134 H154 0.929 . S
C135 C132 1.461 . S
C135 C134 1.474 . S
C136 C131 1.342 . S
C136 C134 1.285 . S
C136 H155 0.930 . S
C137 C140 1.424 . S
C137 C142 1.245 . S
C137 C143 1.428 . S
C138 C141 1.260 . S
C138 C142 1.477 . S
C138 H156 0.932 . S
C139 C140 1.384 . S
C139 C141 1.479 . S
C139 H157 0.929 . S
C140 C137 1.424 . S
C140 C139 1.384 . S
C140 H158 0.928 . S
C141 C138 1.260 . S
C141 C139 1.479 . S
C142 C137 1.245 . S
C142 C138 1.477 . S
C142 H159 1.023 . S
C143 U126 2.882 1_554 S
C143 C137 1.428 . S
C143 O146 1.301 1_554 S
C143 O147 1.282 . S
O144 U126 2.438 1_554 S
O144 C130 1.272 . S
O145 U126 2.420 1_554 S
O145 C130 1.202 . S
O146 U126 2.455 . S
O146 C143 1.301 1_556 S
O147 U126 2.449 1_554 S
O147 C143 1.282 . S
H148 C121 0.931 . S
H149 C123 0.929 . S
H150 C124 0.930 . S
H151 C125 0.931 . S
H152 C132 0.932 . S
H153 C133 0.930 . S
H154 C134 0.929 . S
H155 C136 0.930 . S
H156 C138 0.932 . S
H157 C139 0.929 . S
H158 C140 0.928 . S
H159 C142 1.023 . S
C160 C161 1.264 . S
C160 C165 1.479 . S
C160 C170 1.465 . S
C161 C160 1.264 . S
C161 C163 1.339 . S
C161 H188 0.931 . S
C162 C163 1.395 . S
C162 C164 1.320 . S
C163 C161 1.339 . S
C163 C162 1.395 . S
C163 H189 0.929 . S
C164 C162 1.320 . S
C164 C165 1.405 . S
C164 H190 0.930 . S
C165 C160 1.479 . S
C165 C164 1.405 . S
C165 H191 0.931 . S
U166 O167 2.454 . S
U166 O168 2.458 . S
U166 C169 2.984 . S
U166 C170 2.847 . S
U166 C183 2.882 . S
U166 O184 2.441 . S
U166 O185 2.420 . S
U166 O186 2.455 . S
U166 O187 2.449 . S
O167 U166 2.454 . S
O167 C169 1.353 . S
O168 U166 2.458 . S
O168 C169 1.286 . S
C169 U166 2.984 . S
C169 O167 1.353 . S
C169 O168 1.286 . S
C169 C171 1.363 . S
C170 C160 1.465 . S
C170 U166 2.847 . S
C170 O184 1.249 . S
C170 O185 1.202 . S
C171 C169 1.363 . S
C171 C173 1.408 . S
C171 C176 1.342 . S
C172 C173 1.310 . S
C172 C175 1.461 . S
C172 H192 0.932 . S
C173 C171 1.408 . S
C173 C172 1.310 . S
C173 H193 0.930 . S
C174 C175 1.474 . S
C174 C176 1.285 . S
C174 H194 0.929 . S
C175 C172 1.461 . S
C175 C174 1.474 . S
C176 C171 1.342 . S
C176 C174 1.285 . S
C176 H195 0.930 . S
C177 C180 1.424 . S
C177 C182 1.245 . S
C177 C183 1.428 . S
C178 C181 1.260 . S
C178 C182 1.477 . S
C178 H196 0.932 . S
C179 C180 1.384 . S
C179 C181 1.479 . S
C179 H197 0.929 . S
C180 C177 1.424 . S
C180 C179 1.384 . S
C180 H198 0.928 . S
C181 C178 1.260 . S
C181 C179 1.479 . S
C182 C177 1.245 . S
C182 C178 1.477 . S
C182 H199 0.932 . S
C183 U166 2.882 . S
C183 C177 1.428 . S
C183 O186 1.301 . S
C183 O187 1.282 . S
O184 U166 2.441 . S
O184 C170 1.249 . S
O185 U166 2.420 . S
O185 C170 1.202 . S
O186 U166 2.455 . S
O186 C183 1.301 . S
O187 U166 2.449 . S
O187 C183 1.282 . S
H188 C161 0.931 . S
H189 C163 0.929 . S
H190 C164 0.930 . S
H191 C165 0.931 . S
H192 C172 0.932 . S
H193 C173 0.930 . S
H194 C174 0.929 . S
H195 C176 0.930 . S
H196 C178 0.932 . S
H197 C179 0.929 . S
H198 C180 0.928 . S
H199 C182 0.932 . S
C200 C201 1.264 . S
C200 C205 1.479 . S
C200 C210 1.465 . S
C201 C200 1.264 . S
C201 C203 1.339 . S
C201 H228 0.931 . S
C202 C203 1.395 . S
C202 C204 1.320 . S
C203 C201 1.339 . S
C203 C202 1.395 . S
C203 H229 0.929 . S
C204 C202 1.320 . S
C204 C205 1.405 . S
C204 H230 0.930 . S
C205 C200 1.479 . S
C205 C204 1.405 . S
C205 H231 0.931 . S
U206 O207 2.454 . S
U206 O208 2.458 . S
U206 C209 2.984 . S
U206 C210 2.847 . S
U206 C223 2.882 . S
U206 O224 2.441 . S
U206 O225 2.420 . S
U206 O226 2.455 . S
U206 O227 2.449 . S
O207 U206 2.454 . S
O207 C209 1.353 . S
O208 U206 2.458 . S
O208 C209 1.286 . S
C209 U206 2.984 . S
C209 O207 1.353 . S
C209 O208 1.286 . S
C209 C211 1.363 . S
C210 C200 1.465 . S
C210 U206 2.847 . S
C210 O224 1.249 . S
C210 O225 1.202 . S
C211 C209 1.363 . S
C211 C213 1.408 . S
C211 C216 1.342 . S
C212 C213 1.310 . S
C212 C215 1.461 . S
C212 H232 0.932 . S
C213 C211 1.408 . S
C213 C212 1.310 . S
C213 H233 0.930 . S
C214 C215 1.474 . S
C214 C216 1.285 . S
C214 H234 0.929 . S
C215 C212 1.461 . S
C215 C214 1.474 . S
C216 C211 1.342 . S
C216 C214 1.285 . S
C216 H235 0.930 . S
C217 C220 1.424 . S
C217 C222 1.245 . S
C217 C223 1.428 . S
C218 C221 1.260 . S
C218 C222 1.477 . S
C218 H236 0.932 . S
C219 C220 1.384 . S
C219 C221 1.479 . S
C219 H237 0.929 . S
C220 C217 1.424 . S
C220 C219 1.384 . S
C220 H238 0.928 . S
C221 C218 1.260 . S
C221 C219 1.479 . S
C222 C217 1.245 . S
C222 C218 1.477 . S
C222 H239 0.932 . S
C223 U206 2.882 . S
C223 C217 1.428 . S
C223 O226 1.301 . S
C223 O227 1.282 . S
O224 U206 2.441 . S
O224 C210 1.249 . S
O225 U206 2.420 . S
O225 C210 1.202 . S
O226 U206 2.455 . S
O226 C223 1.301 . S
O227 U206 2.449 . S
O227 C223 1.282 . S
H228 C201 0.931 . S
H229 C203 0.929 . S
H230 C204 0.930 . S
H231 C205 0.931 . S
H232 C212 0.932 . S
H233 C213 0.930 . S
H234 C214 0.929 . S
H235 C216 0.930 . S
H236 C218 0.932 . S
H237 C219 0.929 . S
H238 C220 0.928 . S
H239 C222 0.932 . S
C240 C241 1.264 . S
C240 C245 1.479 . S
C240 C250 1.465 . S
C241 C240 1.264 . S
C241 C243 1.339 . S
C241 H268 0.931 . S
C242 C243 1.395 . S
C242 C244 1.320 . S
C243 C241 1.339 . S
C243 C242 1.395 . S
C243 H269 0.929 . S
C244 C242 1.320 . S
C244 C245 1.405 . S
C244 H270 0.930 . S
C245 C240 1.479 . S
C245 C244 1.405 . S
C245 H271 0.931 . S
U246 O247 2.454 . S
U246 O248 2.458 . S
U246 C249 2.984 . S
U246 C250 2.847 . S
U246 C263 2.882 . S
U246 O264 2.441 . S
U246 O265 2.420 . S
U246 O266 2.455 . S
U246 O267 2.449 . S
O247 U246 2.454 . S
O247 C249 1.353 . S
O248 U246 2.458 . S
O248 C249 1.286 . S
C249 U246 2.984 . S
C249 O247 1.353 . S
C249 O248 1.286 . S
C249 C251 1.363 . S
C250 C240 1.465 . S
C250 U246 2.847 . S
C250 O264 1.249 . S
C250 O265 1.202 . S
C251 C249 1.363 . S
C251 C253 1.408 . S
C251 C256 1.342 . S
C252 C253 1.310 . S
C252 C255 1.461 . S
C252 H272 0.932 . S
C253 C251 1.408 . S
C253 C252 1.310 . S
C253 H273 0.930 . S
C254 C255 1.474 . S
C254 C256 1.285 . S
C254 H274 0.929 . S
C255 C252 1.461 . S
C255 C254 1.474 . S
C256 C251 1.342 . S
C256 C254 1.285 . S
C256 H275 0.930 . S
C257 C260 1.424 . S
C257 C262 1.245 . S
C257 C263 1.428 . S
C258 C261 1.260 . S
C258 C262 1.477 . S
C258 H276 0.932 . S
C259 C260 1.384 . S
C259 C261 1.479 . S
C259 H277 0.929 . S
C260 C257 1.424 . S
C260 C259 1.384 . S
C260 H278 0.928 . S
C261 C258 1.260 . S
C261 C259 1.479 . S
C262 C257 1.245 . S
C262 C258 1.477 . S
C262 H279 0.932 . S
C263 U246 2.882 . S
C263 C257 1.428 . S
C263 O266 1.301 . S
C263 O267 1.282 . S
O264 U246 2.441 . S
O264 C250 1.249 . S
O265 U246 2.420 . S
O265 C250 1.202 . S
O266 U246 2.455 . S
O266 C263 1.301 . S
O267 U246 2.449 . S
O267 C263 1.282 . S
H268 C241 0.931 . S
H269 C243 0.929 . S
H270 C244 0.930 . S
H271 C245 0.931 . S
H272 C252 0.932 . S
H273 C253 0.930 . S
H274 C254 0.929 . S
H275 C256 0.930 . S
H276 C258 0.932 . S
H277 C259 0.929 . S
H278 C260 0.928 . S
H279 C262 0.932 . S
C280 C281 1.264 . S
C280 C285 1.479 . S
C280 C290 1.465 . S
C281 C280 1.264 . S
C281 C283 1.339 . S
C281 H308 0.931 . S
C282 C283 1.395 . S
C282 C284 1.320 . S
C283 C281 1.339 . S
C283 C282 1.395 . S
C283 H309 0.929 . S
C284 C282 1.320 . S
C284 C285 1.405 . S
C284 H310 0.930 . S
C285 C280 1.479 . S
C285 C284 1.405 . S
C285 H311 0.931 . S
U286 O287 2.424 1_556 S
U286 O288 2.496 . S
U286 C289 2.991 . S
U286 C290 2.777 1_556 S
U286 C303 2.948 . S
U286 O304 2.362 1_556 S
U286 O305 2.373 1_556 S
U286 O306 2.533 . S
U286 O307 2.491 . S
O287 U286 2.424 1_554 S
O287 C289 1.353 1_554 S
O288 U286 2.496 . S
O288 C289 1.286 . S
C289 U286 2.991 . S
C289 O287 1.353 1_556 S
C289 O288 1.286 . S
C289 C291 1.363 . S
C290 C280 1.465 . S
C290 U286 2.777 1_554 S
C290 O304 1.249 . S
C290 O305 1.202 . S
C291 C289 1.363 . S
C291 C293 1.408 1_556 S
C291 C296 1.342 . S
C292 C293 1.310 . S
C292 C295 1.461 1_554 S
C292 H312 0.932 . S
C293 C291 1.408 1_554 S
C293 C292 1.310 . S
C293 H313 0.930 . S
C294 C295 1.474 . S
C294 C296 1.285 . S
C294 H314 0.929 . S
C295 C292 1.461 1_556 S
C295 C294 1.474 . S
C296 C291 1.342 . S
C296 C294 1.285 . S
C296 H315 0.930 . S
C297 C300 1.424 . S
C297 C302 1.245 . S
C297 C303 1.428 . S
C298 C301 1.260 . S
C298 C302 1.477 . S
C298 H316 0.932 . S
C299 C300 1.384 . S
C299 C301 1.479 . S
C299 H317 0.929 . S
C300 C297 1.424 . S
C300 C299 1.384 . S
C300 H318 0.928 . S
C301 C298 1.260 . S
C301 C299 1.479 . S
C302 C297 1.245 . S
C302 C298 1.477 . S
C302 H319 0.932 . S
C303 U286 2.948 . S
C303 C297 1.428 . S
C303 O306 1.301 . S
C303 O307 1.282 . S
O304 U286 2.362 1_554 S
O304 C290 1.249 . S
O305 U286 2.373 1_554 S
O305 C290 1.202 . S
O306 U286 2.533 . S
O306 C303 1.301 . S
O307 U286 2.491 . S
O307 C303 1.282 . S
H308 C281 0.931 . S
H309 C283 0.929 . S
H310 C284 0.930 . S
H311 C285 0.931 . S
H312 C292 0.932 . S
H313 C293 0.930 . S
H314 C294 0.929 . S
H315 C296 0.930 . S
H316 C298 0.932 . S
H317 C299 0.929 . S
H318 C300 0.928 . S
H319 C302 0.932 . S
C320 C321 1.264 . S
C320 C325 1.479 . S
C320 C330 1.465 . S
C321 C320 1.264 . S
C321 C323 1.339 . S
C321 H348 0.931 . S
C322 C323 1.395 . S
C322 C324 1.320 . S
C323 C321 1.339 . S
C323 C322 1.395 . S
C323 H349 0.929 . S
C324 C322 1.320 . S
C324 C325 1.405 . S
C324 H350 0.930 . S
C325 C320 1.479 . S
C325 C324 1.405 . S
C325 H351 0.931 . S
U326 O327 2.454 . S
U326 O328 2.458 . S
U326 C329 2.984 . S
U326 C330 2.847 . S
U326 C343 2.882 . S
U326 O344 2.441 . S
U326 O345 2.420 . S
U326 O346 2.455 . S
U326 O347 2.449 . S
O327 U326 2.454 . S
O327 C329 1.353 . S
O328 U326 2.458 . S
O328 C329 1.286 . S
C329 U326 2.984 . S
C329 O327 1.353 . S
C329 O328 1.286 . S
C329 C331 1.363 . S
C330 C320 1.465 . S
C330 U326 2.847 . S
C330 O344 1.249 . S
C330 O345 1.202 . S
C331 C329 1.363 . S
C331 C333 1.408 1_545 S
C331 C336 1.341 . S
C332 C333 1.310 . S
C332 C335 1.461 . S
C332 H352 0.932 . S
C333 C331 1.408 1_565 S
C333 C332 1.310 . S
C333 H353 0.930 . S
C334 C335 1.474 . S
C334 C336 1.287 1_565 S
C334 H354 0.929 . S
C335 C332 1.461 . S
C335 C334 1.474 . S
C336 C331 1.341 . S
C336 C334 1.287 1_545 S
C336 H355 0.930 . S
C337 C340 1.424 . S
C337 C342 1.245 . S
C337 C343 1.428 . S
C338 C341 1.260 . S
C338 C342 1.477 . S
C338 H356 0.932 . S
C339 C340 1.384 . S
C339 C341 1.479 . S
C339 H357 0.929 . S
C340 C337 1.424 . S
C340 C339 1.384 . S
C340 H358 0.928 . S
C341 C338 1.260 . S
C341 C339 1.479 . S
C342 C337 1.245 . S
C342 C338 1.477 . S
C342 H359 0.932 . S
C343 U326 2.882 . S
C343 C337 1.428 . S
C343 O346 1.301 . S
C343 O347 1.282 . S
O344 U326 2.441 . S
O344 C330 1.249 . S
O345 U326 2.420 . S
O345 C330 1.202 . S
O346 U326 2.455 . S
O346 C343 1.301 . S
O347 U326 2.449 . S
O347 C343 1.282 . S
H348 C321 0.931 . S
H349 C323 0.929 . S
H350 C324 0.930 . S
H351 C325 0.931 . S
H352 C332 0.932 . S
H353 C333 0.930 . S
H354 C334 0.929 . S
H355 C336 0.930 . S
H356 C338 0.932 . S
H357 C339 0.929 . S
H358 C340 0.928 . S
H359 C342 0.932 . S
C360 C361 1.264 . S
C360 C365 1.479 . S
C360 C370 1.465 . S
C361 C360 1.264 . S
C361 C363 1.339 . S
C361 H388 0.931 . S
C362 C363 1.395 . S
C362 C364 1.320 . S
C363 C361 1.339 . S
C363 C362 1.395 . S
C363 H389 0.929 . S
C364 C362 1.320 . S
C364 C365 1.405 . S
C364 H390 0.930 . S
C365 C360 1.479 . S
C365 C364 1.405 . S
C365 H391 0.931 . S
U366 O367 2.454 . S
U366 O368 2.458 . S
U366 C369 2.984 . S
U366 C370 2.847 . S
U366 C383 2.882 . S
U366 O384 2.441 . S
U366 O385 2.420 . S
U366 O386 2.455 . S
U366 O387 2.449 . S
O367 U366 2.454 . S
O367 C369 1.353 . S
O368 U366 2.458 . S
O368 C369 1.286 . S
C369 U366 2.984 . S
C369 O367 1.353 . S
C369 O368 1.286 . S
C369 C371 1.363 . S
C370 C360 1.465 . S
C370 U366 2.847 . S
C370 O384 1.249 . S
C370 O385 1.202 . S
C371 C369 1.363 . S
C371 C373 1.408 . S
C371 C376 1.342 . S
C372 C373 1.310 . S
C372 C375 1.461 . S
C372 H392 0.932 . S
C373 C371 1.408 . S
C373 C372 1.310 . S
C373 H393 0.930 . S
C374 C375 1.474 . S
C374 C376 1.285 . S
C374 H394 0.929 . S
C375 C372 1.461 . S
C375 C374 1.474 . S
C376 C371 1.342 . S
C376 C374 1.285 . S
C376 H395 0.930 . S
C377 C380 1.424 . S
C377 C382 1.245 . S
C377 C383 1.428 . S
C378 C381 1.260 . S
C378 C382 1.477 . S
C378 H396 0.932 . S
C379 C380 1.384 . S
C379 C381 1.479 . S
C379 H397 0.929 . S
C380 C377 1.424 . S
C380 C379 1.384 . S
C380 H398 0.928 . S
C381 C378 1.260 . S
C381 C379 1.479 . S
C382 C377 1.245 . S
C382 C378 1.477 . S
C382 H399 0.932 . S
C383 U366 2.882 . S
C383 C377 1.428 . S
C383 O386 1.301 . S
C383 O387 1.282 . S
O384 U366 2.441 . S
O384 C370 1.249 . S
O385 U366 2.420 . S
O385 C370 1.202 . S
O386 U366 2.455 . S
O386 C383 1.301 . S
O387 U366 2.449 . S
O387 C383 1.282 . S
H388 C361 0.931 . S
H389 C363 0.929 . S
H390 C364 0.930 . S
H391 C365 0.931 . S
H392 C372 0.932 . S
H393 C373 0.930 . S
H394 C374 0.929 . S
H395 C376 0.930 . S
H396 C378 0.932 . S
H397 C379 0.929 . S
H398 C380 0.928 . S
H399 C382 0.932 . S
C400 C401 1.264 . S
C400 C405 1.479 1_565 S
C400 C410 1.465 . S
C401 C400 1.264 . S
C401 C403 1.339 1_565 S
C401 H428 0.931 . S
C402 C403 1.395 . S
C402 C404 1.320 . S
C403 C401 1.339 1_545 S
C403 C402 1.395 . S
C403 H429 0.929 . S
C404 C402 1.320 . S
C404 C405 1.405 . S
C404 H430 0.930 . S
C405 C400 1.479 1_545 S
C405 C404 1.405 . S
C405 H431 0.931 . S
U406 O407 2.454 . S
U406 O408 2.458 . S
U406 C409 2.984 . S
U406 C410 2.847 . S
U406 C423 2.882 . S
U406 O424 2.441 . S
U406 O425 2.420 . S
U406 O426 2.455 . S
U406 O427 2.449 . S
O407 U406 2.454 . S
O407 C409 1.353 . S
O408 U406 2.458 . S
O408 C409 1.286 . S
C409 U406 2.984 . S
C409 O407 1.353 . S
C409 O408 1.286 . S
C409 C411 1.363 . S
C410 C400 1.465 . S
C410 U406 2.847 . S
C410 O424 1.249 . S
C410 O425 1.202 . S
C411 C409 1.363 . S
C411 C413 1.408 . S
C411 C416 1.342 . S
C412 C413 1.310 . S
C412 C415 1.461 . S
C412 H432 0.932 . S
C413 C411 1.408 . S
C413 C412 1.310 . S
C413 H433 0.930 . S
C414 C415 1.474 . S
C414 C416 1.285 . S
C414 H434 0.929 . S
C415 C412 1.461 . S
C415 C414 1.474 . S
C416 C411 1.342 . S
C416 C414 1.285 . S
C416 H435 0.930 . S
C417 C420 1.424 . S
C417 C422 1.245 . S
C417 C423 1.428 . S
C418 C421 1.260 . S
C418 C422 1.477 . S
C418 H436 0.932 . S
C419 C420 1.384 . S
C419 C421 1.479 . S
C419 H437 0.929 . S
C420 C417 1.424 . S
C420 C419 1.384 . S
C420 H438 0.928 . S
C421 C418 1.260 . S
C421 C419 1.479 . S
C422 C417 1.245 . S
C422 C418 1.477 . S
C422 H439 0.932 . S
C423 U406 2.882 . S
C423 C417 1.428 . S
C423 O426 1.301 . S
C423 O427 1.282 . S
O424 U406 2.441 . S
O424 C410 1.249 . S
O425 U406 2.420 . S
O425 C410 1.202 . S
O426 U406 2.455 . S
O426 C423 1.301 . S
O427 U406 2.449 . S
O427 C423 1.282 . S
H428 C401 0.931 . S
H429 C403 0.929 . S
H430 C404 0.930 . S
H431 C405 0.931 . S
H432 C412 0.932 . S
H433 C413 0.930 . S
H434 C414 0.929 . S
H435 C416 0.930 . S
H436 C418 0.932 . S
H437 C419 0.929 . S
H438 C420 0.928 . S
H439 C422 0.932 . S
C440 C441 1.264 . S
C440 C445 1.479 . S
C440 C450 1.465 . S
C441 C440 1.264 . S
C441 C443 1.339 . S
C441 H468 0.931 . S
C442 C443 1.395 . S
C442 C444 1.320 . S
C443 C441 1.339 . S
C443 C442 1.395 . S
C443 H469 0.929 . S
C444 C442 1.320 . S
C444 C445 1.405 . S
C444 H470 0.930 . S
C445 C440 1.479 . S
C445 C444 1.405 . S
C445 H471 0.931 . S
U446 O447 2.454 . S
U446 O448 2.458 . S
U446 C449 2.984 . S
U446 C450 2.847 . S
U446 C463 2.882 . S
U446 O464 2.441 . S
U446 O465 2.420 . S
U446 O466 2.455 . S
U446 O467 2.449 . S
O447 U446 2.454 . S
O447 C449 1.353 . S
O448 U446 2.458 . S
O448 C449 1.286 . S
C449 U446 2.984 . S
C449 O447 1.353 . S
C449 O448 1.286 . S
C449 C451 1.363 . S
C450 C440 1.465 . S
C450 U446 2.847 . S
C450 O464 1.249 . S
C450 O465 1.202 . S
C451 C449 1.363 . S
C451 C453 1.408 . S
C451 C456 1.342 . S
C452 C453 1.310 . S
C452 C455 1.461 . S
C452 H472 0.932 . S
C453 C451 1.408 . S
C453 C452 1.310 . S
C453 H473 0.930 . S
C454 C455 1.474 . S
C454 C456 1.285 . S
C454 H474 0.929 . S
C455 C452 1.461 . S
C455 C454 1.474 . S
C456 C451 1.342 . S
C456 C454 1.285 . S
C456 H475 0.930 . S
C457 C460 1.424 . S
C457 C462 1.245 . S
C457 C463 1.428 . S
C458 C461 1.260 . S
C458 C462 1.477 . S
C458 H476 0.932 . S
C459 C460 1.384 . S
C459 C461 1.479 . S
C459 H477 0.929 . S
C460 C457 1.424 . S
C460 C459 1.384 . S
C460 H478 0.928 . S
C461 C458 1.260 . S
C461 C459 1.479 . S
C462 C457 1.245 . S
C462 C458 1.477 . S
C462 H479 0.932 . S
C463 U446 2.882 . S
C463 C457 1.428 . S
C463 O466 1.301 . S
C463 O467 1.282 . S
O464 U446 2.441 . S
O464 C450 1.249 . S
O465 U446 2.420 . S
O465 C450 1.202 . S
O466 U446 2.455 . S
O466 C463 1.301 . S
O467 U446 2.449 . S
O467 C463 1.282 . S
H468 C441 0.931 . S
H469 C443 0.929 . S
H470 C444 0.930 . S
H471 C445 0.931 . S
H472 C452 0.932 . S
H473 C453 0.930 . S
H474 C454 0.929 . S
H475 C456 0.930 . S
H476 C458 0.932 . S
H477 C459 0.929 . S
H478 C460 0.928 . S
H479 C462 0.932 . S
C480 C481 1.264 . S
C480 C485 1.479 . S
C480 C490 1.465 . S
C481 C480 1.264 . S
C481 C483 1.339 . S
C481 H508 0.931 . S
C482 C483 1.395 . S
C482 C484 1.320 . S
C483 C481 1.339 . S
C483 C482 1.395 . S
C483 H509 0.929 . S
C484 C482 1.320 . S
C484 C485 1.405 . S
C484 H510 0.930 . S
C485 C480 1.479 . S
C485 C484 1.405 . S
C485 H511 0.931 . S
U486 O487 2.454 1_554 S
U486 O488 2.458 1_554 S
U486 C489 2.984 1_554 S
U486 C490 2.847 . S
U486 C503 2.882 . S
U486 O504 2.441 . S
U486 O505 2.420 . S
U486 O506 2.455 . S
U486 O507 2.449 . S
O487 U486 2.454 1_556 S
O487 C489 1.353 . S
O488 U486 2.458 1_556 S
O488 C489 1.286 . S
C489 U486 2.984 1_556 S
C489 O487 1.353 . S
C489 O488 1.286 . S
C489 C491 1.363 . S
C490 C480 1.465 . S
C490 U486 2.847 . S
C490 O504 1.249 . S
C490 O505 1.202 . S
C491 C489 1.363 . S
C491 C493 1.408 . S
C491 C496 1.342 . S
C492 C493 1.310 . S
C492 C495 1.461 . S
C492 H512 0.932 . S
C493 C491 1.408 . S
C493 C492 1.310 . S
C493 H513 0.930 . S
C494 C495 1.474 . S
C494 C496 1.285 . S
C494 H514 0.929 . S
C495 C492 1.461 . S
C495 C494 1.474 . S
C496 C491 1.342 . S
C496 C494 1.285 . S
C496 H515 0.930 . S
C497 C500 1.424 . S
C497 C502 1.245 . S
C497 C503 1.428 . S
C498 C501 1.260 . S
C498 C502 1.477 . S
C498 H516 0.932 . S
C499 C500 1.384 . S
C499 C501 1.479 . S
C499 H517 0.929 . S
C500 C497 1.424 . S
C500 C499 1.384 . S
C500 H518 0.928 . S
C501 C498 1.260 . S
C501 C499 1.479 . S
C502 C497 1.245 . S
C502 C498 1.477 . S
C502 H519 0.932 . S
C503 U486 2.882 . S
C503 C497 1.428 . S
C503 O506 1.301 . S
C503 O507 1.282 . S
O504 U486 2.441 . S
O504 C490 1.249 . S
O505 U486 2.420 . S
O505 C490 1.202 . S
O506 U486 2.455 . S
O506 C503 1.301 . S
O507 U486 2.449 . S
O507 C503 1.282 . S
H508 C481 0.931 . S
H509 C483 0.929 . S
H510 C484 0.930 . S
H511 C485 0.931 . S
H512 C492 0.932 . S
H513 C493 0.930 . S
H514 C494 0.929 . S
H515 C496 0.930 . S
H516 C498 0.932 . S
H517 C499 0.929 . S
H518 C500 0.928 . S
H519 C502 0.932 . S
C520 C521 1.264 . S
C520 C525 1.479 . S
C520 C530 1.465 . S
C521 C520 1.264 . S
C521 C523 1.339 . S
C521 H548 0.931 . S
C522 C523 1.395 . S
C522 C524 1.320 . S
C523 C521 1.339 . S
C523 C522 1.395 . S
C523 H549 0.929 . S
C524 C522 1.320 . S
C524 C525 1.405 . S
C524 H550 0.930 . S
C525 C520 1.479 . S
C525 C524 1.405 . S
C525 H551 0.931 . S
U526 O527 2.454 . S
U526 O528 2.458 . S
U526 C529 2.984 . S
U526 C530 2.847 . S
U526 C543 2.882 . S
U526 O544 2.441 . S
U526 O545 2.420 . S
U526 O546 2.455 . S
U526 O547 2.449 . S
O527 U526 2.454 . S
O527 C529 1.353 . S
O528 U526 2.458 . S
O528 C529 1.286 . S
C529 U526 2.984 . S
C529 O527 1.353 . S
C529 O528 1.286 . S
C529 C531 1.363 . S
C530 C520 1.465 . S
C530 U526 2.847 . S
C530 O544 1.249 . S
C530 O545 1.202 . S
C531 C529 1.363 . S
C531 C533 1.408 . S
C531 C536 1.342 . S
C532 C533 1.310 . S
C532 C535 1.461 . S
C532 H552 0.932 . S
C533 C531 1.408 . S
C533 C532 1.310 . S
C533 H553 0.930 . S
C534 C535 1.474 . S
C534 C536 1.285 . S
C534 H554 0.929 . S
C535 C532 1.461 . S
C535 C534 1.474 . S
C536 C531 1.342 . S
C536 C534 1.285 . S
C536 H555 0.930 . S
C537 C540 1.424 . S
C537 C542 1.245 . S
C537 C543 1.428 . S
C538 C541 1.260 . S
C538 C542 1.477 . S
C538 H556 0.932 . S
C539 C540 1.384 . S
C539 C541 1.479 . S
C539 H557 0.929 . S
C540 C537 1.424 . S
C540 C539 1.384 . S
C540 H558 0.928 . S
C541 C538 1.260 . S
C541 C539 1.479 . S
C542 C537 1.245 . S
C542 C538 1.477 . S
C542 H559 0.932 . S
C543 U526 2.882 . S
C543 C537 1.428 . S
C543 O546 1.301 . S
C543 O547 1.282 . S
O544 U526 2.441 . S
O544 C530 1.249 . S
O545 U526 2.420 . S
O545 C530 1.202 . S
O546 U526 2.455 . S
O546 C543 1.301 . S
O547 U526 2.449 . S
O547 C543 1.282 . S
H548 C521 0.931 . S
H549 C523 0.929 . S
H550 C524 0.930 . S
H551 C525 0.931 . S
H552 C532 0.932 . S
H553 C533 0.930 . S
H554 C534 0.929 . S
H555 C536 0.930 . S
H556 C538 0.932 . S
H557 C539 0.929 . S
H558 C540 0.928 . S
H559 C542 0.932 . S
C560 C561 1.264 . S
C560 C565 1.479 . S
C560 C570 1.465 . S
C561 C560 1.264 . S
C561 C563 1.339 . S
C561 H588 0.931 . S
C562 C563 1.395 . S
C562 C564 1.320 . S
C563 C561 1.339 . S
C563 C562 1.395 . S
C563 H589 0.929 . S
C564 C562 1.320 . S
C564 C565 1.405 . S
C564 H590 0.930 . S
C565 C560 1.479 . S
C565 C564 1.405 . S
C565 H591 0.931 . S
U566 O567 2.454 . S
U566 O568 2.458 . S
U566 C569 2.984 . S
U566 C570 2.847 . S
U566 C583 2.882 . S
U566 O584 2.441 . S
U566 O585 2.420 . S
U566 O586 2.455 . S
U566 O587 2.449 . S
O567 U566 2.454 . S
O567 C569 1.353 . S
O568 U566 2.458 . S
O568 C569 1.286 . S
C569 U566 2.984 . S
C569 O567 1.353 . S
C569 O568 1.286 . S
C569 C571 1.363 . S
C570 C560 1.465 . S
C570 U566 2.847 . S
C570 O584 1.249 . S
C570 O585 1.202 . S
C571 C569 1.363 . S
C571 C573 1.408 . S
C571 C576 1.342 . S
C572 C573 1.310 . S
C572 C575 1.461 . S
C572 H592 0.932 . S
C573 C571 1.408 . S
C573 C572 1.310 . S
C573 H593 0.930 . S
C574 C575 1.474 . S
C574 C576 1.285 . S
C574 H594 0.929 . S
C575 C572 1.461 . S
C575 C574 1.474 . S
C576 C571 1.342 . S
C576 C574 1.285 . S
C576 H595 0.930 . S
C577 C580 1.424 . S
C577 C582 1.245 . S
C577 C583 1.428 . S
C578 C581 1.260 . S
C578 C582 1.477 . S
C578 H596 0.932 . S
C579 C580 1.384 . S
C579 C581 1.479 . S
C579 H597 0.929 . S
C580 C577 1.424 . S
C580 C579 1.384 . S
C580 H598 0.928 . S
C581 C578 1.260 . S
C581 C579 1.479 . S
C582 C577 1.245 . S
C582 C578 1.477 . S
C582 H599 0.932 . S
C583 U566 2.882 . S
C583 C577 1.428 . S
C583 O586 1.301 . S
C583 O587 1.282 . S
O584 U566 2.441 . S
O584 C570 1.249 . S
O585 U566 2.420 . S
O585 C570 1.202 . S
O586 U566 2.455 . S
O586 C583 1.301 . S
O587 U566 2.449 . S
O587 C583 1.282 . S
H588 C561 0.931 . S
H589 C563 0.929 . S
H590 C564 0.930 . S
H591 C565 0.931 . S
H592 C572 0.932 . S
H593 C573 0.930 . S
H594 C574 0.929 . S
H595 C576 0.930 . S
H596 C578 0.932 . S
H597 C579 0.929 . S
H598 C580 0.928 . S
H599 C582 0.932 . S
C600 C601 1.264 . S
C600 C605 1.479 . S
C600 C610 1.465 . S
C601 C600 1.264 . S
C601 C603 1.339 . S
C601 H628 0.931 . S
C602 C603 1.395 . S
C602 C604 1.320 . S
C603 C601 1.339 . S
C603 C602 1.395 . S
C603 H629 0.929 . S
C604 C602 1.320 . S
C604 C605 1.405 . S
C604 H630 0.930 . S
C605 C600 1.479 . S
C605 C604 1.405 . S
C605 H631 0.931 . S
U606 O607 2.454 . S
U606 O608 2.458 . S
U606 C609 2.984 . S
U606 C610 2.847 . S
U606 C623 2.882 . S
U606 O624 2.441 . S
U606 O625 2.420 . S
U606 O626 2.455 . S
U606 O627 2.449 . S
O607 U606 2.454 . S
O607 C609 1.353 . S
O608 U606 2.458 . S
O608 C609 1.286 . S
C609 U606 2.984 . S
C609 O607 1.353 . S
C609 O608 1.286 . S
C609 C611 1.363 . S
C610 C600 1.465 . S
C610 U606 2.847 . S
C610 O624 1.249 . S
C610 O625 1.202 . S
C611 C609 1.363 . S
C611 C613 1.408 1_655 S
C611 C616 1.342 . S
C612 C613 1.310 . S
C612 C615 1.461 . S
C612 H632 0.932 . S
C613 C611 1.408 1_455 S
C613 C612 1.310 . S
C613 H633 0.930 . S
C614 C615 1.474 . S
C614 C616 1.285 1_455 S
C614 H634 0.929 . S
C615 C612 1.461 . S
C615 C614 1.474 . S
C616 C611 1.342 . S
C616 C614 1.285 1_655 S
C616 H635 0.930 . S
C617 C620 1.424 . S
C617 C622 1.245 . S
C617 C623 1.428 . S
C618 C621 1.260 . S
C618 C622 1.477 . S
C618 H636 0.932 . S
C619 C620 1.384 . S
C619 C621 1.479 . S
C619 H637 0.929 . S
C620 C617 1.424 . S
C620 C619 1.384 . S
C620 H638 0.928 . S
C621 C618 1.260 . S
C621 C619 1.479 . S
C622 C617 1.245 . S
C622 C618 1.477 . S
C622 H639 0.932 . S
C623 U606 2.882 . S
C623 C617 1.428 . S
C623 O626 1.301 . S
C623 O627 1.282 . S
O624 U606 2.441 . S
O624 C610 1.249 . S
O625 U606 2.420 . S
O625 C610 1.202 . S
O626 U606 2.455 . S
O626 C623 1.301 . S
O627 U606 2.449 . S
O627 C623 1.282 . S
H628 C601 0.931 . S
H629 C603 0.929 . S
H630 C604 0.930 . S
H631 C605 0.931 . S
H632 C612 0.932 . S
H633 C613 0.930 . S
H634 C614 0.929 . S
H635 C616 0.930 . S
H636 C618 0.932 . S
H637 C619 0.929 . S
H638 C620 0.928 . S
H639 C622 0.932 . S
C640 C641 1.264 . S
C640 C645 1.479 . S
C640 C650 1.465 . S
C641 C640 1.264 . S
C641 C643 1.339 . S
C641 H668 0.931 . S
C642 C643 1.395 . S
C642 C644 1.320 . S
C643 C641 1.339 . S
C643 C642 1.395 . S
C643 H669 0.929 . S
C644 C642 1.320 . S
C644 C645 1.405 . S
C644 H670 0.930 . S
C645 C640 1.479 . S
C645 C644 1.405 . S
C645 H671 0.931 . S
U646 O647 2.454 . S
U646 O648 2.458 . S
U646 C649 2.984 . S
U646 C650 2.847 . S
U646 C663 2.882 . S
U646 O664 2.441 . S
U646 O665 2.420 . S
U646 O666 2.455 . S
U646 O667 2.449 . S
O647 U646 2.454 . S
O647 C649 1.353 . S
O648 U646 2.458 . S
O648 C649 1.286 . S
C649 U646 2.984 . S
C649 O647 1.353 . S
C649 O648 1.286 . S
C649 C651 1.363 . S
C650 C640 1.465 . S
C650 U646 2.847 . S
C650 O664 1.249 . S
C650 O665 1.202 . S
C651 C649 1.363 . S
C651 C653 1.408 . S
C651 C656 1.342 . S
C652 C653 1.310 . S
C652 C655 1.461 . S
C652 H672 0.932 . S
C653 C651 1.408 . S
C653 C652 1.310 . S
C653 H673 0.930 . S
C654 C655 1.474 . S
C654 C656 1.285 . S
C654 H674 0.929 . S
C655 C652 1.461 . S
C655 C654 1.474 . S
C656 C651 1.342 . S
C656 C654 1.285 . S
C656 H675 0.930 . S
C657 C660 1.424 . S
C657 C662 1.245 . S
C657 C663 1.428 . S
C658 C661 1.260 . S
C658 C662 1.477 . S
C658 H676 0.932 . S
C659 C660 1.384 . S
C659 C661 1.479 . S
C659 H677 0.929 . S
C660 C657 1.424 . S
C660 C659 1.384 . S
C660 H678 0.928 . S
C661 C658 1.260 . S
C661 C659 1.479 . S
C662 C657 1.245 . S
C662 C658 1.477 . S
C662 H679 0.932 . S
C663 U646 2.882 . S
C663 C657 1.428 . S
C663 O666 1.301 . S
C663 O667 1.282 . S
O664 U646 2.441 . S
O664 C650 1.249 . S
O665 U646 2.420 . S
O665 C650 1.202 . S
O666 U646 2.455 . S
O666 C663 1.301 . S
O667 U646 2.449 . S
O667 C663 1.282 . S
H668 C641 0.931 . S
H669 C643 0.929 . S
H670 C644 0.930 . S
H671 C645 0.931 . S
H672 C652 0.932 . S
H673 C653 0.930 . S
H674 C654 0.929 . S
H675 C656 0.930 . S
H676 C658 0.932 . S
H677 C659 0.929 . S
H678 C660 0.928 . S
H679 C662 0.932 . S
C680 C681 1.264 . S
C680 C685 1.479 . S
C680 C690 1.465 . S
C681 C680 1.264 . S
C681 C683 1.339 . S
C681 H708 0.931 . S
C682 C683 1.395 . S
C682 C684 1.320 . S
C683 C681 1.339 . S
C683 C682 1.395 . S
C683 H709 0.929 . S
C684 C682 1.320 . S
C684 C685 1.405 . S
C684 H710 0.930 . S
C685 C680 1.479 . S
C685 C684 1.405 . S
C685 H711 0.931 . S
U686 O687 2.454 . S
U686 O688 2.458 . S
U686 C689 2.984 . S
U686 C690 2.847 . S
U686 C703 2.882 . S
U686 O704 2.441 . S
U686 O705 2.420 . S
U686 O706 2.455 . S
U686 O707 2.449 . S
O687 U686 2.454 . S
O687 C689 1.353 . S
O688 U686 2.458 . S
O688 C689 1.286 . S
C689 U686 2.984 . S
C689 O687 1.353 . S
C689 O688 1.286 . S
C689 C691 1.363 . S
C690 C680 1.465 . S
C690 U686 2.847 . S
C690 O704 1.249 . S
C690 O705 1.202 . S
C691 C689 1.363 . S
C691 C693 1.408 . S
C691 C696 1.342 . S
C692 C693 1.310 . S
C692 C695 1.461 . S
C692 H712 0.932 . S
C693 C691 1.408 . S
C693 C692 1.310 . S
C693 H713 0.930 . S
C694 C695 1.474 . S
C694 C696 1.285 . S
C694 H714 0.929 . S
C695 C692 1.461 . S
C695 C694 1.474 . S
C696 C691 1.342 . S
C696 C694 1.285 . S
C696 H715 0.930 . S
C697 C700 1.424 . S
C697 C702 1.245 . S
C697 C703 1.428 . S
C698 C701 1.260 . S
C698 C702 1.477 . S
C698 H716 0.932 . S
C699 C700 1.384 . S
C699 C701 1.479 . S
C699 H717 0.929 . S
C700 C697 1.424 . S
C700 C699 1.384 . S
C700 H718 0.928 . S
C701 C698 1.260 . S
C701 C699 1.479 . S
C702 C697 1.245 . S
C702 C698 1.477 . S
C702 H719 0.932 . S
C703 U686 2.882 . S
C703 C697 1.428 . S
C703 O706 1.301 . S
C703 O707 1.282 . S
O704 U686 2.441 . S
O704 C690 1.249 . S
O705 U686 2.420 . S
O705 C690 1.202 . S
O706 U686 2.455 . S
O706 C703 1.301 . S
O707 U686 2.449 . S
O707 C703 1.282 . S
H708 C681 0.931 . S
H709 C683 0.929 . S
H710 C684 0.930 . S
H711 C685 0.931 . S
H712 C692 0.932 . S
H713 C693 0.930 . S
H714 C694 0.929 . S
H715 C696 0.930 . S
H716 C698 0.932 . S
H717 C699 0.929 . S
H718 C700 0.928 . S
H719 C702 0.932 . S
C720 C721 1.264 . S
C720 C725 1.479 . S
C720 C730 1.465 . S
C721 C720 1.264 . S
C721 C723 1.339 . S
C721 H748 0.931 . S
C722 C723 1.395 . S
C722 C724 1.320 . S
C723 C721 1.339 . S
C723 C722 1.395 . S
C723 H749 0.929 . S
C724 C722 1.320 . S
C724 C725 1.405 . S
C724 H750 0.930 . S
C725 C720 1.479 . S
C725 C724 1.405 . S
C725 H751 0.931 . S
U726 O727 2.441 1_556 S
U726 O728 2.446 1_556 S
U726 C729 2.971 1_556 S
U726 C730 2.853 . S
U726 C743 2.890 . S
U726 O744 2.441 . S
U726 O745 2.431 . S
U726 O746 2.457 . S
U726 O747 2.461 . S
O727 U726 2.441 1_554 S
O727 C729 1.353 . S
O728 U726 2.446 1_554 S
O728 C729 1.286 . S
C729 U726 2.971 1_554 S
C729 O727 1.353 . S
C729 O728 1.286 . S
C729 C731 1.363 . S
C730 C720 1.465 . S
C730 U726 2.853 . S
C730 O744 1.308 . S
C730 O745 1.202 . S
C731 C729 1.363 . S
C731 C733 1.408 . S
C731 C736 1.342 . S
C732 C733 1.310 . S
C732 C735 1.461 . S
C732 H752 0.932 . S
C733 C731 1.408 . S
C733 C732 1.310 . S
C733 H753 0.930 . S
C734 C735 1.474 . S
C734 C736 1.285 . S
C734 H754 0.929 . S
C735 C732 1.461 . S
C735 C734 1.474 . S
C736 C731 1.342 . S
C736 C734 1.285 . S
C736 H755 0.930 . S
C737 C740 1.424 . S
C737 C742 1.245 . S
C737 C743 1.428 . S
C738 C741 1.260 . S
C738 C742 1.477 . S
C738 H756 0.932 . S
C739 C740 1.384 . S
C739 C741 1.479 . S
C739 H757 0.929 . S
C740 C737 1.424 . S
C740 C739 1.384 . S
C740 H758 0.928 . S
C741 C738 1.260 . S
C741 C739 1.479 . S
C742 C737 1.245 . S
C742 C738 1.477 . S
C742 H759 0.932 . S
C743 U726 2.890 . S
C743 C737 1.428 . S
C743 O746 1.301 . S
C743 O747 1.282 . S
O744 U726 2.441 . S
O744 C730 1.308 . S
O745 U726 2.431 . S
O745 C730 1.202 . S
O746 U726 2.457 . S
O746 C743 1.301 . S
O747 U726 2.461 . S
O747 C743 1.282 . S
H748 C721 0.931 . S
H749 C723 0.929 . S
H750 C724 0.930 . S
H751 C725 0.931 . S
H752 C732 0.932 . S
H753 C733 0.930 . S
H754 C734 0.929 . S
H755 C736 0.930 . S
H756 C738 0.932 . S
H757 C739 0.929 . S
H758 C740 0.928 . S
H759 C742 0.932 . S
C760 C761 1.264 . S
C760 C765 1.479 . S
C760 C770 1.465 . S
C761 C760 1.264 . S
C761 C763 1.339 . S
C761 H788 0.931 . S
C762 C763 1.395 . S
C762 C764 1.320 . S
C763 C761 1.339 . S
C763 C762 1.395 . S
C763 H789 0.929 . S
C764 C762 1.320 . S
C764 C765 1.405 . S
C764 H790 0.930 . S
C765 C760 1.479 . S
C765 C764 1.405 . S
C765 H791 0.931 . S
U766 O767 2.454 . S
U766 O768 2.458 . S
U766 C769 2.984 . S
U766 C770 2.847 . S
U766 C783 2.882 . S
U766 O784 2.441 . S
U766 O785 2.420 . S
U766 O786 2.455 . S
U766 O787 2.449 . S
O767 U766 2.454 . S
O767 C769 1.353 . S
O768 U766 2.458 . S
O768 C769 1.286 . S
C769 U766 2.984 . S
C769 O767 1.353 . S
C769 O768 1.286 . S
C769 C771 1.363 . S
C770 C760 1.465 . S
C770 U766 2.847 . S
C770 O784 1.249 . S
C770 O785 1.202 . S
C771 C769 1.363 . S
C771 C773 1.408 . S
C771 C776 1.342 . S
C772 C773 1.310 . S
C772 C775 1.461 . S
C772 H792 0.932 . S
C773 C771 1.408 . S
C773 C772 1.310 . S
C773 H793 0.930 . S
C774 C775 1.474 . S
C774 C776 1.285 . S
C774 H794 0.929 . S
C775 C772 1.461 . S
C775 C774 1.474 . S
C776 C771 1.342 . S
C776 C774 1.285 . S
C776 H795 0.930 . S
C777 C780 1.424 . S
C777 C782 1.245 . S
C777 C783 1.428 . S
C778 C781 1.260 . S
C778 C782 1.477 . S
C778 H796 0.932 . S
C779 C780 1.384 . S
C779 C781 1.479 . S
C779 H797 0.929 . S
C780 C777 1.424 . S
C780 C779 1.384 . S
C780 H798 0.928 . S
C781 C778 1.260 . S
C781 C779 1.479 . S
C782 C777 1.245 . S
C782 C778 1.477 . S
C782 H799 0.932 . S
C783 U766 2.882 . S
C783 C777 1.428 . S
C783 O786 1.301 . S
C783 O787 1.282 . S
O784 U766 2.441 . S
O784 C770 1.249 . S
O785 U766 2.420 . S
O785 C770 1.202 . S
O786 U766 2.455 . S
O786 C783 1.301 . S
O787 U766 2.449 . S
O787 C783 1.282 . S
H788 C761 0.931 . S
H789 C763 0.929 . S
H790 C764 0.930 . S
H791 C765 0.931 . S
H792 C772 0.932 . S
H793 C773 0.930 . S
H794 C774 0.929 . S
H795 C776 0.930 . S
H796 C778 0.932 . S
H797 C779 0.929 . S
H798 C780 0.928 . S
H799 C782 0.932 . S
C800 C801 1.264 . S
C800 C805 1.479 . S
C800 C810 1.465 . S
C801 C800 1.264 . S
C801 C803 1.339 . S
C801 H828 0.931 . S
C802 C803 1.395 . S
C802 C804 1.320 . S
C803 C801 1.339 . S
C803 C802 1.395 . S
C803 H829 0.929 . S
C804 C802 1.320 . S
C804 C805 1.405 . S
C804 H830 0.930 . S
C805 C800 1.479 . S
C805 C804 1.405 . S
C805 H831 0.931 . S
U806 O807 2.454 . S
U806 O808 2.458 . S
U806 C809 2.984 . S
U806 C810 2.847 . S
U806 C823 2.882 . S
U806 O824 2.441 . S
U806 O825 2.420 . S
U806 O826 2.455 . S
U806 O827 2.449 . S
O807 U806 2.454 . S
O807 C809 1.353 . S
O808 U806 2.458 . S
O808 C809 1.286 . S
C809 U806 2.984 . S
C809 O807 1.353 . S
C809 O808 1.286 . S
C809 C811 1.363 . S
C810 C800 1.465 . S
C810 U806 2.847 . S
C810 O824 1.249 . S
C810 O825 1.202 . S
C811 C809 1.363 . S
C811 C813 1.408 . S
C811 C816 1.342 . S
C812 C813 1.310 . S
C812 C815 1.461 . S
C812 H832 0.932 . S
C813 C811 1.408 . S
C813 C812 1.310 . S
C813 H833 0.930 . S
C814 C815 1.474 . S
C814 C816 1.285 . S
C814 H834 0.929 . S
C815 C812 1.461 . S
C815 C814 1.474 . S
C816 C811 1.342 . S
C816 C814 1.285 . S
C816 H835 0.930 . S
C817 C820 1.424 . S
C817 C822 1.245 . S
C817 C823 1.428 . S
C818 C821 1.260 . S
C818 C822 1.477 . S
C818 H836 0.932 . S
C819 C820 1.384 . S
C819 C821 1.479 . S
C819 H837 0.929 . S
C820 C817 1.424 . S
C820 C819 1.384 . S
C820 H838 0.928 . S
C821 C818 1.260 . S
C821 C819 1.479 . S
C822 C817 1.245 . S
C822 C818 1.477 . S
C822 H839 0.932 . S
C823 U806 2.882 . S
C823 C817 1.428 . S
C823 O826 1.301 . S
C823 O827 1.282 . S
O824 U806 2.441 . S
O824 C810 1.249 . S
O825 U806 2.420 . S
O825 C810 1.202 . S
O826 U806 2.455 . S
O826 C823 1.301 . S
O827 U806 2.449 . S
O827 C823 1.282 . S
H828 C801 0.931 . S
H829 C803 0.929 . S
H830 C804 0.930 . S
H831 C805 0.931 . S
H832 C812 0.932 . S
H833 C813 0.930 . S
H834 C814 0.929 . S
H835 C816 0.930 . S
H836 C818 0.932 . S
H837 C819 0.929 . S
H838 C820 0.928 . S
H839 C822 0.932 . S
C840 C841 1.264 . S
C840 C845 1.479 . S
C840 C850 1.465 . S
C841 C840 1.264 . S
C841 C843 1.339 . S
C841 H868 0.931 . S
C842 C843 1.395 . S
C842 C844 1.320 . S
C843 C841 1.339 . S
C843 C842 1.395 . S
C843 H869 0.929 . S
C844 C842 1.320 . S
C844 C845 1.405 . S
C844 H870 0.930 . S
C845 C840 1.479 . S
C845 C844 1.405 . S
C845 H871 0.931 . S
U846 O847 2.454 . S
U846 O848 2.458 . S
U846 C849 2.984 . S
U846 C850 2.847 . S
U846 C863 2.882 . S
U846 O864 2.441 . S
U846 O865 2.420 . S
U846 O866 2.455 . S
U846 O867 2.449 . S
O847 U846 2.454 . S
O847 C849 1.353 . S
O848 U846 2.458 . S
O848 C849 1.286 . S
C849 U846 2.984 . S
C849 O847 1.353 . S
C849 O848 1.286 . S
C849 C851 1.363 . S
C850 C840 1.465 . S
C850 U846 2.847 . S
C850 O864 1.249 . S
C850 O865 1.202 . S
C851 C849 1.363 . S
C851 C853 1.408 . S
C851 C856 1.342 . S
C852 C853 1.310 . S
C852 C855 1.461 . S
C852 H872 0.932 . S
C853 C851 1.408 . S
C853 C852 1.310 . S
C853 H873 0.930 . S
C854 C855 1.474 . S
C854 C856 1.285 . S
C854 H874 0.929 . S
C855 C852 1.461 . S
C855 C854 1.474 . S
C856 C851 1.342 . S
C856 C854 1.285 . S
C856 H875 0.930 . S
C857 C860 1.424 . S
C857 C862 1.245 . S
C857 C863 1.428 . S
C858 C861 1.260 . S
C858 C862 1.477 . S
C858 H876 0.932 . S
C859 C860 1.384 . S
C859 C861 1.479 . S
C859 H877 0.929 . S
C860 C857 1.424 . S
C860 C859 1.384 . S
C860 H878 0.928 . S
C861 C858 1.260 . S
C861 C859 1.479 . S
C862 C857 1.245 . S
C862 C858 1.477 . S
C862 H879 0.932 . S
C863 U846 2.882 . S
C863 C857 1.428 . S
C863 O866 1.301 . S
C863 O867 1.282 . S
O864 U846 2.441 . S
O864 C850 1.249 . S
O865 U846 2.420 . S
O865 C850 1.202 . S
O866 U846 2.455 . S
O866 C863 1.301 . S
O867 U846 2.449 . S
O867 C863 1.282 . S
H868 C841 0.931 . S
H869 C843 0.929 . S
H870 C844 0.930 . S
H871 C845 0.931 . S
H872 C852 0.932 . S
H873 C853 0.930 . S
H874 C854 0.929 . S
H875 C856 0.930 . S
H876 C858 0.932 . S
H877 C859 0.929 . S
H878 C860 0.928 . S
H879 C862 0.932 . S
C880 C881 1.264 . S
C880 C885 1.479 . S
C880 C890 1.465 . S
C881 C880 1.264 . S
C881 C883 1.339 . S
C881 H908 0.931 . S
C882 C883 1.395 . S
C882 C884 1.320 . S
C883 C881 1.339 . S
C883 C882 1.395 . S
C883 H909 0.929 . S
C884 C882 1.320 . S
C884 C885 1.405 . S
C884 H910 0.930 . S
C885 C880 1.479 . S
C885 C884 1.405 . S
C885 H911 0.931 . S
U886 O887 2.454 . S
U886 O888 2.458 1_556 S
U886 C889 2.984 1_556 S
U886 C890 2.847 . S
U886 C903 2.882 1_556 S
U886 O904 2.441 . S
U886 O905 2.420 . S
U886 O906 2.455 1_556 S
U886 O907 2.449 1_556 S
O887 U886 2.454 . S
O887 C889 1.353 1_556 S
O888 U886 2.458 1_554 S
O888 C889 1.286 . S
C889 U886 2.984 1_554 S
C889 O887 1.353 1_554 S
C889 O888 1.286 . S
C889 C891 1.363 . S
C890 C880 1.465 . S
C890 U886 2.847 . S
C890 O904 1.249 . S
C890 O905 1.202 . S
C891 C889 1.363 . S
C891 C893 1.408 1_554 S
C891 C896 1.342 . S
C892 C893 1.340 . S
C892 C895 1.361 1_556 S
C892 H912 1.009 . S
C893 C891 1.408 1_556 S
C893 C892 1.340 . S
C893 H913 0.930 . S
C894 C895 1.474 . S
C894 C896 1.285 . S
C894 H914 0.929 . S
C895 C892 1.361 1_554 S
C895 C894 1.474 . S
C896 C891 1.342 . S
C896 C894 1.285 . S
C896 H915 0.930 . S
C897 C900 1.424 . S
C897 C902 1.245 . S
C897 C903 1.428 . S
C898 C901 1.260 . S
C898 C902 1.477 . S
C898 H916 0.932 . S
C899 C900 1.384 . S
C899 C901 1.479 . S
C899 H917 0.929 . S
C900 C897 1.424 . S
C900 C899 1.384 . S
C900 H918 0.928 . S
C901 C898 1.260 . S
C901 C899 1.479 . S
C902 C897 1.245 . S
C902 C898 1.477 . S
C902 H919 0.932 . S
C903 U886 2.882 1_554 S
C903 C897 1.428 . S
C903 O906 1.301 . S
C903 O907 1.282 . S
O904 U886 2.441 . S
O904 C890 1.249 . S
O905 U886 2.420 . S
O905 C890 1.202 . S
O906 U886 2.455 1_554 S
O906 C903 1.301 . S
O907 U886 2.449 1_554 S
O907 C903 1.282 . S
H908 C881 0.931 . S
H909 C883 0.929 . S
H910 C884 0.930 . S
H911 C885 0.931 . S
H912 C892 1.009 . S
H913 C893 0.930 . S
H914 C894 0.929 . S
H915 C896 0.930 . S
H916 C898 0.932 . S
H917 C899 0.929 . S
H918 C900 0.928 . S
H919 C902 0.932 . S
C920 C921 1.264 . S
C920 C925 1.479 . S
C920 C930 1.465 . S
C921 C920 1.264 . S
C921 C923 1.339 . S
C921 H948 0.931 . S
C922 C923 1.395 . S
C922 C924 1.320 . S
C923 C921 1.339 . S
C923 C922 1.395 . S
C923 H949 0.929 . S
C924 C922 1.320 . S
C924 C925 1.405 . S
C924 H950 0.930 . S
C925 C920 1.479 . S
C925 C924 1.405 . S
C925 H951 0.931 . S
U926 O927 2.454 . S
U926 O928 2.458 . S
U926 C929 2.984 . S
U926 C930 2.847 . S
U926 C943 2.882 . S
U926 O944 2.441 . S
U926 O945 2.420 . S
U926 O946 2.455 . S
U926 O947 2.449 . S
O927 U926 2.454 . S
O927 C929 1.353 . S
O928 U926 2.458 . S
O928 C929 1.286 . S
C929 U926 2.984 . S
C929 O927 1.353 . S
C929 O928 1.286 . S
C929 C931 1.363 . S
C930 C920 1.465 . S
C930 U926 2.847 . S
C930 O944 1.249 . S
C930 O945 1.202 . S
C931 C929 1.363 . S
C931 C933 1.408 1_565 S
C931 C936 1.342 . S
C932 C933 1.310 . S
C932 C935 1.461 . S
C932 H952 0.932 . S
C933 C931 1.408 1_545 S
C933 C932 1.310 . S
C933 H953 0.957 . S
C934 C935 1.474 . S
C934 C936 1.285 1_545 S
C934 H954 0.929 . S
C935 C932 1.461 . S
C935 C934 1.474 . S
C936 C931 1.342 . S
C936 C934 1.285 1_565 S
C936 H955 0.930 . S
C937 C940 1.424 . S
C937 C942 1.245 . S
C937 C943 1.428 . S
C938 C941 1.260 . S
C938 C942 1.477 . S
C938 H956 0.932 . S
C939 C940 1.384 . S
C939 C941 1.479 . S
C939 H957 0.929 . S
C940 C937 1.424 . S
C940 C939 1.384 . S
C940 H958 0.928 . S
C941 C938 1.260 . S
C941 C939 1.479 . S
C942 C937 1.245 . S
C942 C938 1.477 . S
C942 H959 0.932 . S
C943 U926 2.882 . S
C943 C937 1.428 . S
C943 O946 1.301 . S
C943 O947 1.282 . S
O944 U926 2.441 . S
O944 C930 1.249 . S
O945 U926 2.420 . S
O945 C930 1.202 . S
O946 U926 2.455 . S
O946 C943 1.301 . S
O947 U926 2.449 . S
O947 C943 1.282 . S
H948 C921 0.931 . S
H949 C923 0.929 . S
H950 C924 0.930 . S
H951 C925 0.931 . S
H952 C932 0.932 . S
H953 C933 0.957 . S
H954 C934 0.929 . S
H955 C936 0.930 . S
H956 C938 0.932 . S
H957 C939 0.929 . S
H958 C940 0.928 . S
H959 C942 0.932 . S
C960 C961 1.264 . S
C960 C965 1.479 . S
C960 C970 1.465 . S
C961 C960 1.264 . S
C961 C963 1.339 . S
C961 H988 0.931 . S
C962 C963 1.395 . S
C962 C964 1.320 . S
C963 C961 1.339 . S
C963 C962 1.395 . S
C963 H989 0.929 . S
C964 C962 1.320 . S
C964 C965 1.405 . S
C964 H990 0.930 . S
C965 C960 1.479 . S
C965 C964 1.405 . S
C965 H991 0.931 . S
U966 O967 2.454 . S
U966 O968 2.458 . S
U966 C969 2.984 . S
U966 C970 2.847 . S
U966 C983 2.882 . S
U966 O984 2.441 . S
U966 O985 2.420 . S
U966 O986 2.455 . S
U966 O987 2.449 . S
O967 U966 2.454 . S
O967 C969 1.353 . S
O968 U966 2.458 . S
O968 C969 1.286 . S
C969 U966 2.984 . S
C969 O967 1.353 . S
C969 O968 1.286 . S
C969 C971 1.363 . S
C970 C960 1.465 . S
C970 U966 2.847 . S
C970 O984 1.249 . S
C970 O985 1.202 . S
C971 C969 1.363 . S
C971 C973 1.408 . S
C971 C976 1.342 . S
C972 C973 1.310 . S
C972 C975 1.461 . S
C972 H992 0.932 . S
C973 C971 1.408 . S
C973 C972 1.310 . S
C973 H993 0.930 . S
C974 C975 1.474 . S
C974 C976 1.285 . S
C974 H994 0.929 . S
C975 C972 1.461 . S
C975 C974 1.474 . S
C976 C971 1.342 . S
C976 C974 1.285 . S
C976 H995 0.930 . S
C977 C980 1.424 . S
C977 C982 1.245 . S
C977 C983 1.428 . S
C978 C981 1.260 . S
C978 C982 1.477 . S
C978 H996 0.932 . S
C979 C980 1.384 . S
C979 C981 1.479 . S
C979 H997 0.929 . S
C980 C977 1.424 . S
C980 C979 1.384 . S
C980 H998 0.928 . S
C981 C978 1.260 . S
C981 C979 1.479 . S
C982 C977 1.245 . S
C982 C978 1.477 . S
C982 H999 0.932 . S
C983 U966 2.882 . S
C983 C977 1.428 . S
C983 O986 1.301 . S
C983 O987 1.282 . S
O984 U966 2.441 . S
O984 C970 1.249 . S
O985 U966 2.420 . S
O985 C970 1.202 . S
O986 U966 2.455 . S
O986 C983 1.301 . S
O987 U966 2.449 . S
O987 C983 1.282 . S
H988 C961 0.931 . S
H989 C963 0.929 . S
H990 C964 0.930 . S
H991 C965 0.931 . S
H992 C972 0.932 . S
H993 C973 0.930 . S
H994 C974 0.929 . S
H995 C976 0.930 . S
H996 C978 0.932 . S
H997 C979 0.929 . S
H998 C980 0.928 . S
H999 C982 0.932 . S
C1000 C1001 1.264 . S
C1000 C1005 1.479 . S
C1000 C1010 1.465 1_565 S
C1001 C1000 1.264 . S
C1001 C1003 1.339 . S
C1001 H1028 0.931 1_565 S
C1002 C1003 1.395 . S
C1002 C1004 1.320 . S
C1003 C1001 1.339 . S
C1003 C1002 1.395 . S
C1003 H1029 0.929 . S
C1004 C1002 1.320 . S
C1004 C1005 1.405 . S
C1004 H1030 0.930 . S
C1005 C1000 1.479 . S
C1005 C1004 1.405 . S
C1005 H1031 0.931 . S
U1006 O1007 2.454 . S
U1006 O1008 2.458 . S
U1006 C1009 2.984 . S
U1006 C1010 2.847 . S
U1006 C1023 2.882 . S
U1006 O1024 2.441 . S
U1006 O1025 2.420 . S
U1006 O1026 2.455 . S
U1006 O1027 2.449 . S
O1007 U1006 2.454 . S
O1007 C1009 1.353 . S
O1008 U1006 2.458 . S
O1008 C1009 1.286 . S
C1009 U1006 2.984 . S
C1009 O1007 1.353 . S
C1009 O1008 1.286 . S
C1009 C1011 1.363 . S
C1010 C1000 1.465 1_545 S
C1010 U1006 2.847 . S
C1010 O1024 1.249 . S
C1010 O1025 1.202 . S
C1011 C1009 1.363 . S
C1011 C1013 1.408 . S
C1011 C1016 1.342 . S
C1012 C1013 1.310 . S
C1012 C1015 1.461 . S
C1012 H1032 0.932 . S
C1013 C1011 1.408 . S
C1013 C1012 1.310 . S
C1013 H1033 0.930 . S
C1014 C1015 1.474 . S
C1014 C1016 1.285 . S
C1014 H1034 0.929 . S
C1015 C1012 1.461 . S
C1015 C1014 1.474 . S
C1016 C1011 1.342 . S
C1016 C1014 1.285 . S
C1016 H1035 0.930 . S
C1017 C1020 1.424 . S
C1017 C1022 1.245 . S
C1017 C1023 1.428 . S
C1018 C1021 1.260 . S
C1018 C1022 1.477 . S
C1018 H1036 0.932 . S
C1019 C1020 1.384 . S
C1019 C1021 1.479 . S
C1019 H1037 0.929 . S
C1020 C1017 1.424 . S
C1020 C1019 1.384 . S
C1020 H1038 0.928 . S
C1021 C1018 1.260 . S
C1021 C1019 1.479 . S
C1022 C1017 1.245 . S
C1022 C1018 1.477 . S
C1022 H1039 0.932 . S
C1023 U1006 2.882 . S
C1023 C1017 1.428 . S
C1023 O1026 1.301 . S
C1023 O1027 1.282 . S
O1024 U1006 2.441 . S
O1024 C1010 1.249 . S
O1025 U1006 2.420 . S
O1025 C1010 1.202 . S
O1026 U1006 2.455 . S
O1026 C1023 1.301 . S
O1027 U1006 2.449 . S
O1027 C1023 1.282 . S
H1028 C1001 0.931 1_545 S
H1029 C1003 0.929 . S
H1030 C1004 0.930 . S
H1031 C1005 0.931 . S
H1032 C1012 0.932 . S
H1033 C1013 0.930 . S
H1034 C1014 0.929 . S
H1035 C1016 0.930 . S
H1036 C1018 0.932 . S
H1037 C1019 0.929 . S
H1038 C1020 0.928 . S
H1039 C1022 0.932 . S
C1040 C1041 1.264 . S
C1040 C1045 1.479 . S
C1040 C1050 1.465 . S
C1041 C1040 1.264 . S
C1041 C1043 1.339 . S
C1041 H1068 0.931 . S
C1042 C1043 1.395 . S
C1042 C1044 1.320 . S
C1043 C1041 1.339 . S
C1043 C1042 1.395 . S
C1043 H1069 0.929 . S
C1044 C1042 1.320 . S
C1044 C1045 1.405 . S
C1044 H1070 0.930 . S
C1045 C1040 1.479 . S
C1045 C1044 1.405 . S
C1045 H1071 0.931 . S
U1046 O1047 2.454 . S
U1046 O1048 2.458 . S
U1046 C1049 2.984 . S
U1046 C1050 2.847 . S
U1046 C1063 2.882 . S
U1046 O1064 2.441 . S
U1046 O1065 2.420 . S
U1046 O1066 2.455 . S
U1046 O1067 2.449 . S
O1047 U1046 2.454 . S
O1047 C1049 1.353 . S
O1048 U1046 2.458 . S
O1048 C1049 1.286 . S
C1049 U1046 2.984 . S
C1049 O1047 1.353 . S
C1049 O1048 1.286 . S
C1049 C1051 1.363 . S
C1050 C1040 1.465 . S
C1050 U1046 2.847 . S
C1050 O1064 1.249 . S
C1050 O1065 1.202 . S
C1051 C1049 1.363 . S
C1051 C1053 1.408 . S
C1051 C1056 1.342 . S
C1052 C1053 1.310 . S
C1052 C1055 1.461 . S
C1052 H1072 0.932 . S
C1053 C1051 1.408 . S
C1053 C1052 1.310 . S
C1053 H1073 0.930 . S
C1054 C1055 1.474 . S
C1054 C1056 1.285 . S
C1054 H1074 0.929 . S
C1055 C1052 1.461 . S
C1055 C1054 1.474 . S
C1056 C1051 1.342 . S
C1056 C1054 1.285 . S
C1056 H1075 0.930 . S
C1057 C1060 1.424 . S
C1057 C1062 1.245 . S
C1057 C1063 1.428 . S
C1058 C1061 1.260 . S
C1058 C1062 1.477 . S
C1058 H1076 0.932 . S
C1059 C1060 1.384 . S
C1059 C1061 1.479 . S
C1059 H1077 0.929 . S
C1060 C1057 1.424 . S
C1060 C1059 1.384 . S
C1060 H1078 0.928 . S
C1061 C1058 1.260 . S
C1061 C1059 1.479 . S
C1062 C1057 1.245 . S
C1062 C1058 1.477 . S
C1062 H1079 0.932 . S
C1063 U1046 2.882 . S
C1063 C1057 1.428 . S
C1063 O1066 1.301 . S
C1063 O1067 1.282 . S
O1064 U1046 2.441 . S
O1064 C1050 1.249 . S
O1065 U1046 2.420 . S
O1065 C1050 1.202 . S
O1066 U1046 2.455 . S
O1066 C1063 1.301 . S
O1067 U1046 2.449 . S
O1067 C1063 1.282 . S
H1068 C1041 0.931 . S
H1069 C1043 0.929 . S
H1070 C1044 0.930 . S
H1071 C1045 0.931 . S
H1072 C1052 0.932 . S
H1073 C1053 0.930 . S
H1074 C1054 0.929 . S
H1075 C1056 0.930 . S
H1076 C1058 0.932 . S
H1077 C1059 0.929 . S
H1078 C1060 0.928 . S
H1079 C1062 0.932 . S
C1080 C1081 1.264 . S
C1080 C1085 1.479 . S
C1080 C1090 1.465 . S
C1081 C1080 1.264 . S
C1081 C1083 1.339 . S
C1081 H1108 0.931 . S
C1082 C1083 1.395 . S
C1082 C1084 1.320 . S
C1083 C1081 1.339 . S
C1083 C1082 1.395 . S
C1083 H1109 0.929 . S
C1084 C1082 1.320 . S
C1084 C1085 1.405 . S
C1084 H1110 0.930 . S
C1085 C1080 1.479 . S
C1085 C1084 1.405 . S
C1085 H1111 0.931 . S
U1086 O1087 2.454 1_556 S
U1086 O1088 2.458 1_556 S
U1086 C1089 2.984 1_556 S
U1086 C1090 2.847 . S
U1086 C1103 2.882 . S
U1086 O1104 2.441 . S
U1086 O1105 2.420 . S
U1086 O1106 2.455 . S
U1086 O1107 2.449 . S
O1087 U1086 2.454 1_554 S
O1087 C1089 1.353 . S
O1088 U1086 2.458 1_554 S
O1088 C1089 1.286 . S
C1089 U1086 2.984 1_554 S
C1089 O1087 1.353 . S
C1089 O1088 1.286 . S
C1089 C1091 1.363 . S
C1090 C1080 1.465 . S
C1090 U1086 2.847 . S
C1090 O1104 1.249 . S
C1090 O1105 1.202 . S
C1091 C1089 1.363 . S
C1091 C1093 1.408 . S
C1091 C1096 1.342 . S
C1092 C1093 1.310 . S
C1092 C1095 1.461 . S
C1092 H1112 0.932 . S
C1093 C1091 1.408 . S
C1093 C1092 1.310 . S
C1093 H1113 0.930 . S
C1094 C1095 1.474 . S
C1094 C1096 1.285 . S
C1094 H1114 0.929 . S
C1095 C1092 1.461 . S
C1095 C1094 1.474 . S
C1096 C1091 1.342 . S
C1096 C1094 1.285 . S
C1096 H1115 0.930 . S
C1097 C1100 1.424 . S
C1097 C1102 1.245 . S
C1097 C1103 1.428 . S
C1098 C1101 1.260 . S
C1098 C1102 1.477 . S
C1098 H1116 0.932 . S
C1099 C1100 1.384 . S
C1099 C1101 1.479 . S
C1099 H1117 0.929 . S
C1100 C1097 1.424 . S
C1100 C1099 1.384 . S
C1100 H1118 0.928 . S
C1101 C1098 1.260 . S
C1101 C1099 1.479 . S
C1102 C1097 1.245 . S
C1102 C1098 1.477 . S
C1102 H1119 0.932 . S
C1103 U1086 2.882 . S
C1103 C1097 1.428 . S
C1103 O1106 1.301 . S
C1103 O1107 1.282 . S
O1104 U1086 2.441 . S
O1104 C1090 1.249 . S
O1105 U1086 2.420 . S
O1105 C1090 1.202 . S
O1106 U1086 2.455 . S
O1106 C1103 1.301 . S
O1107 U1086 2.449 . S
O1107 C1103 1.282 . S
H1108 C1081 0.931 . S
H1109 C1083 0.929 . S
H1110 C1084 0.930 . S
H1111 C1085 0.931 . S
H1112 C1092 0.932 . S
H1113 C1093 0.930 . S
H1114 C1094 0.929 . S
H1115 C1096 0.930 . S
H1116 C1098 0.932 . S
H1117 C1099 0.929 . S
H1118 C1100 0.928 . S
H1119 C1102 0.932 . S
C1120 C1121 1.264 . S
C1120 C1125 1.479 . S
C1120 C1130 1.465 . S
C1121 C1120 1.264 . S
C1121 C1123 1.339 . S
C1121 H1148 0.931 . S
C1122 C1123 1.395 . S
C1122 C1124 1.320 . S
C1123 C1121 1.339 . S
C1123 C1122 1.395 . S
C1123 H1149 0.929 . S
C1124 C1122 1.320 . S
C1124 C1125 1.405 . S
C1124 H1150 0.930 . S
C1125 C1120 1.479 . S
C1125 C1124 1.405 . S
C1125 H1151 0.931 . S
U1126 O1127 2.454 . S
U1126 O1128 2.458 . S
U1126 C1129 2.984 . S
U1126 C1130 2.847 . S
U1126 C1143 2.882 . S
U1126 O1144 2.441 . S
U1126 O1145 2.420 . S
U1126 O1146 2.455 . S
U1126 O1147 2.449 . S
O1127 U1126 2.454 . S
O1127 C1129 1.353 . S
O1128 U1126 2.458 . S
O1128 C1129 1.286 . S
C1129 U1126 2.984 . S
C1129 O1127 1.353 . S
C1129 O1128 1.286 . S
C1129 C1131 1.363 . S
C1130 C1120 1.465 . S
C1130 U1126 2.847 . S
C1130 O1144 1.249 . S
C1130 O1145 1.202 . S
C1131 C1129 1.363 . S
C1131 C1133 1.408 . S
C1131 C1136 1.342 . S
C1132 C1133 1.310 . S
C1132 C1135 1.461 . S
C1132 H1152 0.932 . S
C1133 C1131 1.408 . S
C1133 C1132 1.310 . S
C1133 H1153 0.930 . S
C1134 C1135 1.474 . S
C1134 C1136 1.285 . S
C1134 H1154 0.929 . S
C1135 C1132 1.461 . S
C1135 C1134 1.474 . S
C1136 C1131 1.342 . S
C1136 C1134 1.285 . S
C1136 H1155 0.930 . S
C1137 C1140 1.424 . S
C1137 C1142 1.245 . S
C1137 C1143 1.428 . S
C1138 C1141 1.260 . S
C1138 C1142 1.477 . S
C1138 H1156 0.932 . S
C1139 C1140 1.384 . S
C1139 C1141 1.479 . S
C1139 H1157 0.929 . S
C1140 C1137 1.424 . S
C1140 C1139 1.384 . S
C1140 H1158 0.928 . S
C1141 C1138 1.260 . S
C1141 C1139 1.479 . S
C1142 C1137 1.245 . S
C1142 C1138 1.477 . S
C1142 H1159 0.932 . S
C1143 U1126 2.882 . S
C1143 C1137 1.428 . S
C1143 O1146 1.301 . S
C1143 O1147 1.282 . S
O1144 U1126 2.441 . S
O1144 C1130 1.249 . S
O1145 U1126 2.420 . S
O1145 C1130 1.202 . S
O1146 U1126 2.455 . S
O1146 C1143 1.301 . S
O1147 U1126 2.449 . S
O1147 C1143 1.282 . S
H1148 C1121 0.931 . S
H1149 C1123 0.929 . S
H1150 C1124 0.930 . S
H1151 C1125 0.931 . S
H1152 C1132 0.932 . S
H1153 C1133 0.930 . S
H1154 C1134 0.929 . S
H1155 C1136 0.930 . S
H1156 C1138 0.932 . S
H1157 C1139 0.929 . S
H1158 C1140 0.928 . S
H1159 C1142 0.932 . S
C1160 C1161 1.264 . S
C1160 C1165 1.479 . S
C1160 C1170 1.465 . S
C1161 C1160 1.264 . S
C1161 C1163 1.339 . S
C1161 H1188 0.931 . S
C1162 C1163 1.395 . S
C1162 C1164 1.320 . S
C1163 C1161 1.339 . S
C1163 C1162 1.395 . S
C1163 H1189 0.929 . S
C1164 C1162 1.320 . S
C1164 C1165 1.405 . S
C1164 H1190 0.930 . S
C1165 C1160 1.479 . S
C1165 C1164 1.405 . S
C1165 H1191 0.931 . S
U1166 O1167 2.454 . S
U1166 O1168 2.458 . S
U1166 C1169 2.984 . S
U1166 C1170 2.847 . S
U1166 C1183 2.882 . S
U1166 O1184 2.441 . S
U1166 O1185 2.420 . S
U1166 O1186 2.455 . S
U1166 O1187 2.449 . S
O1167 U1166 2.454 . S
O1167 C1169 1.353 . S
O1168 U1166 2.458 . S
O1168 C1169 1.286 . S
C1169 U1166 2.984 . S
C1169 O1167 1.353 . S
C1169 O1168 1.286 . S
C1169 C1171 1.363 . S
C1170 C1160 1.465 . S
C1170 U1166 2.847 . S
C1170 O1184 1.249 . S
C1170 O1185 1.202 . S
C1171 C1169 1.363 . S
C1171 C1173 1.408 . S
C1171 C1176 1.342 . S
C1172 C1173 1.310 . S
C1172 C1175 1.461 . S
C1172 H1192 0.932 . S
C1173 C1171 1.408 . S
C1173 C1172 1.310 . S
C1173 H1193 0.930 . S
C1174 C1175 1.474 . S
C1174 C1176 1.285 . S
C1174 H1194 0.929 . S
C1175 C1172 1.461 . S
C1175 C1174 1.474 . S
C1176 C1171 1.342 . S
C1176 C1174 1.285 . S
C1176 H1195 0.930 . S
C1177 C1180 1.424 . S
C1177 C1182 1.245 . S
C1177 C1183 1.428 . S
C1178 C1181 1.260 . S
C1178 C1182 1.477 . S
C1178 H1196 0.932 . S
C1179 C1180 1.384 . S
C1179 C1181 1.479 . S
C1179 H1197 0.929 . S
C1180 C1177 1.424 . S
C1180 C1179 1.384 . S
C1180 H1198 0.928 . S
C1181 C1178 1.260 . S
C1181 C1179 1.479 . S
C1182 C1177 1.245 . S
C1182 C1178 1.477 . S
C1182 H1199 0.932 . S
C1183 U1166 2.882 . S
C1183 C1177 1.428 . S
C1183 O1186 1.301 . S
C1183 O1187 1.282 . S
O1184 U1166 2.441 . S
O1184 C1170 1.249 . S
O1185 U1166 2.420 . S
O1185 C1170 1.202 . S
O1186 U1166 2.455 . S
O1186 C1183 1.301 . S
O1187 U1166 2.449 . S
O1187 C1183 1.282 . S
H1188 C1161 0.931 . S
H1189 C1163 0.929 . S
H1190 C1164 0.930 . S
H1191 C1165 0.931 . S
H1192 C1172 0.932 . S
H1193 C1173 0.930 . S
H1194 C1174 0.929 . S
H1195 C1176 0.930 . S
H1196 C1178 0.932 . S
H1197 C1179 0.929 . S
H1198 C1180 0.928 . S
H1199 C1182 0.932 . S
C1200 C1201 1.264 . S
C1200 C1205 1.479 . S
C1200 C1210 1.465 . S
C1201 C1200 1.264 . S
C1201 C1203 1.339 . S
C1201 H1228 0.931 . S
C1202 C1203 1.395 . S
C1202 C1204 1.320 . S
C1203 C1201 1.339 . S
C1203 C1202 1.395 . S
C1203 H1229 0.929 . S
C1204 C1202 1.320 . S
C1204 C1205 1.405 . S
C1204 H1230 0.930 . S
C1205 C1200 1.479 . S
C1205 C1204 1.405 . S
C1205 H1231 0.931 . S
U1206 O1207 2.454 . S
U1206 O1208 2.458 . S
U1206 C1209 2.984 . S
U1206 C1210 2.847 . S
U1206 C1223 2.882 . S
U1206 O1224 2.441 . S
U1206 O1225 2.420 . S
U1206 O1226 2.455 . S
U1206 O1227 2.449 . S
O1207 U1206 2.454 . S
O1207 C1209 1.353 . S
O1208 U1206 2.458 . S
O1208 C1209 1.286 . S
C1209 U1206 2.984 . S
C1209 O1207 1.353 . S
C1209 O1208 1.286 . S
C1209 C1211 1.363 . S
C1210 C1200 1.465 . S
C1210 U1206 2.847 . S
C1210 O1224 1.249 . S
C1210 O1225 1.202 . S
C1211 C1209 1.363 . S
C1211 C1213 1.408 . S
C1211 C1216 1.342 . S
C1212 C1213 1.310 . S
C1212 C1215 1.461 . S
C1212 H1232 0.932 . S
C1213 C1211 1.408 . S
C1213 C1212 1.310 . S
C1213 H1233 0.930 . S
C1214 C1215 1.474 . S
C1214 C1216 1.285 . S
C1214 H1234 0.929 . S
C1215 C1212 1.461 . S
C1215 C1214 1.474 . S
C1216 C1211 1.342 . S
C1216 C1214 1.285 . S
C1216 H1235 0.930 . S
C1217 C1220 1.424 . S
C1217 C1222 1.245 . S
C1217 C1223 1.428 . S
C1218 C1221 1.260 . S
C1218 C1222 1.477 . S
C1218 H1236 0.932 . S
C1219 C1220 1.384 . S
C1219 C1221 1.479 . S
C1219 H1237 0.929 . S
C1220 C1217 1.424 . S
C1220 C1219 1.384 . S
C1220 H1238 0.928 . S
C1221 C1218 1.260 . S
C1221 C1219 1.479 . S
C1222 C1217 1.245 . S
C1222 C1218 1.477 . S
C1222 H1239 0.932 . S
C1223 U1206 2.882 . S
C1223 C1217 1.428 . S
C1223 O1226 1.301 . S
C1223 O1227 1.282 . S
O1224 U1206 2.441 . S
O1224 C1210 1.249 . S
O1225 U1206 2.420 . S
O1225 C1210 1.202 . S
O1226 U1206 2.455 . S
O1226 C1223 1.301 . S
O1227 U1206 2.449 . S
O1227 C1223 1.282 . S
H1228 C1201 0.931 . S
H1229 C1203 0.929 . S
H1230 C1204 0.930 . S
H1231 C1205 0.931 . S
H1232 C1212 0.932 . S
H1233 C1213 0.930 . S
H1234 C1214 0.929 . S
H1235 C1216 0.930 . S
H1236 C1218 0.932 . S
H1237 C1219 0.929 . S
H1238 C1220 0.928 . S
H1239 C1222 0.932 . S
C1240 C1241 1.264 . S
C1240 C1245 1.479 . S
C1240 C1250 1.465 . S
C1241 C1240 1.264 . S
C1241 C1243 1.339 . S
C1241 H1268 0.931 . S
C1242 C1243 1.395 . S
C1242 C1244 1.320 . S
C1243 C1241 1.339 . S
C1243 C1242 1.395 . S
C1243 H1269 0.929 . S
C1244 C1242 1.320 . S
C1244 C1245 1.405 . S
C1244 H1270 0.930 . S
C1245 C1240 1.479 . S
C1245 C1244 1.405 . S
C1245 H1271 0.931 . S
U1246 O1247 2.454 . S
U1246 O1248 2.458 . S
U1246 C1249 2.984 . S
U1246 C1250 2.847 . S
U1246 C1263 2.882 . S
U1246 O1264 2.441 . S
U1246 O1265 2.420 . S
U1246 O1266 2.455 . S
U1246 O1267 2.449 . S
O1247 U1246 2.454 . S
O1247 C1249 1.353 . S
O1248 U1246 2.458 . S
O1248 C1249 1.286 . S
C1249 U1246 2.984 . S
C1249 O1247 1.353 . S
C1249 O1248 1.286 . S
C1249 C1251 1.363 . S
C1250 C1240 1.465 . S
C1250 U1246 2.847 . S
C1250 O1264 1.249 . S
C1250 O1265 1.202 . S
C1251 C1249 1.363 . S
C1251 C1253 1.408 1_655 S
C1251 C1256 1.342 . S
C1252 C1253 1.310 . S
C1252 C1255 1.461 . S
C1252 H1272 0.932 . S
C1253 C1251 1.408 1_455 S
C1253 C1252 1.310 . S
C1253 H1273 0.930 . S
C1254 C1255 1.474 . S
C1254 C1256 1.285 1_455 S
C1254 H1274 0.929 . S
C1255 C1252 1.461 . S
C1255 C1254 1.474 . S
C1256 C1251 1.342 . S
C1256 C1254 1.285 1_655 S
C1256 H1275 0.930 . S
C1257 C1260 1.424 . S
C1257 C1262 1.245 . S
C1257 C1263 1.428 . S
C1258 C1261 1.260 . S
C1258 C1262 1.477 . S
C1258 H1276 0.932 . S
C1259 C1260 1.384 . S
C1259 C1261 1.479 . S
C1259 H1277 0.929 . S
C1260 C1257 1.424 . S
C1260 C1259 1.384 . S
C1260 H1278 0.928 . S
C1261 C1258 1.260 . S
C1261 C1259 1.479 . S
C1262 C1257 1.245 . S
C1262 C1258 1.477 . S
C1262 H1279 0.932 . S
C1263 U1246 2.882 . S
C1263 C1257 1.428 . S
C1263 O1266 1.301 . S
C1263 O1267 1.282 . S
O1264 U1246 2.441 . S
O1264 C1250 1.249 . S
O1265 U1246 2.420 . S
O1265 C1250 1.202 . S
O1266 U1246 2.455 . S
O1266 C1263 1.301 . S
O1267 U1246 2.449 . S
O1267 C1263 1.282 . S
H1268 C1241 0.931 . S
H1269 C1243 0.929 . S
H1270 C1244 0.930 . S
H1271 C1245 0.931 . S
H1272 C1252 0.932 . S
H1273 C1253 0.930 . S
H1274 C1254 0.929 . S
H1275 C1256 0.930 . S
H1276 C1258 0.932 . S
H1277 C1259 0.929 . S
H1278 C1260 0.928 . S
H1279 C1262 0.932 . S
C1280 C1281 1.264 . S
C1280 C1285 1.479 . S
C1280 C1290 1.465 . S
C1281 C1280 1.264 . S
C1281 C1283 1.339 . S
C1281 H1308 0.931 . S
C1282 C1283 1.395 . S
C1282 C1284 1.320 . S
C1283 C1281 1.339 . S
C1283 C1282 1.395 . S
C1283 H1309 0.929 . S
C1284 C1282 1.320 . S
C1284 C1285 1.405 . S
C1284 H1310 0.930 . S
C1285 C1280 1.479 . S
C1285 C1284 1.405 . S
C1285 H1311 0.931 . S
U1286 O1287 2.454 . S
U1286 O1288 2.458 . S
U1286 C1289 2.984 . S
U1286 C1290 2.847 . S
U1286 C1303 2.882 . S
U1286 O1304 2.441 . S
U1286 O1305 2.420 . S
U1286 O1306 2.455 . S
U1286 O1307 2.449 . S
O1287 U1286 2.454 . S
O1287 C1289 1.353 . S
O1288 U1286 2.458 . S
O1288 C1289 1.286 . S
C1289 U1286 2.984 . S
C1289 O1287 1.353 . S
C1289 O1288 1.286 . S
C1289 C1291 1.363 . S
C1290 C1280 1.465 . S
C1290 U1286 2.847 . S
C1290 O1304 1.249 . S
C1290 O1305 1.202 . S
C1291 C1289 1.363 . S
C1291 C1293 1.408 . S
C1291 C1296 1.342 . S
C1292 C1293 1.310 . S
C1292 C1295 1.461 . S
C1292 H1312 0.932 . S
C1293 C1291 1.408 . S
C1293 C1292 1.310 . S
C1293 H1313 0.930 . S
C1294 C1295 1.474 . S
C1294 C1296 1.285 . S
C1294 H1314 0.929 . S
C1295 C1292 1.461 . S
C1295 C1294 1.474 . S
C1296 C1291 1.342 . S
C1296 C1294 1.285 . S
C1296 H1315 0.930 . S
C1297 C1300 1.424 . S
C1297 C1302 1.245 . S
C1297 C1303 1.428 . S
C1298 C1301 1.260 . S
C1298 C1302 1.477 . S
C1298 H1316 0.932 . S
C1299 C1300 1.384 . S
C1299 C1301 1.479 . S
C1299 H1317 0.929 . S
C1300 C1297 1.424 . S
C1300 C1299 1.384 . S
C1300 H1318 0.928 . S
C1301 C1298 1.260 . S
C1301 C1299 1.479 . S
C1302 C1297 1.245 . S
C1302 C1298 1.477 . S
C1302 H1319 0.932 . S
C1303 U1286 2.882 . S
C1303 C1297 1.428 . S
C1303 O1306 1.301 . S
C1303 O1307 1.282 . S
O1304 U1286 2.441 . S
O1304 C1290 1.249 . S
O1305 U1286 2.420 . S
O1305 C1290 1.202 . S
O1306 U1286 2.455 . S
O1306 C1303 1.301 . S
O1307 U1286 2.449 . S
O1307 C1303 1.282 . S
H1308 C1281 0.931 . S
H1309 C1283 0.929 . S
H1310 C1284 0.930 . S
H1311 C1285 0.931 . S
H1312 C1292 0.932 . S
H1313 C1293 0.930 . S
H1314 C1294 0.929 . S
H1315 C1296 0.930 . S
H1316 C1298 0.932 . S
H1317 C1299 0.929 . S
H1318 C1300 0.928 . S
H1319 C1302 0.932 . S
C1320 C1321 1.264 . S
C1320 C1325 1.479 . S
C1320 C1330 1.465 . S
C1321 C1320 1.264 . S
C1321 C1323 1.339 . S
C1321 H1348 0.931 . S
C1322 C1323 1.395 . S
C1322 C1324 1.320 . S
C1323 C1321 1.339 . S
C1323 C1322 1.395 . S
C1323 H1349 0.929 . S
C1324 C1322 1.320 . S
C1324 C1325 1.405 . S
C1324 H1350 0.930 . S
C1325 C1320 1.479 . S
C1325 C1324 1.405 . S
C1325 H1351 0.931 1_556 S
U1326 O1327 2.454 . S
U1326 O1328 2.458 . S
U1326 C1329 2.984 . S
U1326 C1330 2.847 1_554 S
U1326 C1343 2.882 1_554 S
U1326 O1344 2.441 . S
U1326 O1345 2.420 1_554 S
U1326 O1346 2.455 1_554 S
U1326 O1347 2.449 1_554 S
O1327 U1326 2.454 . S
O1327 C1329 1.353 . S
O1328 U1326 2.458 . S
O1328 C1329 1.286 . S
C1329 U1326 2.984 . S
C1329 O1327 1.353 . S
C1329 O1328 1.286 . S
C1329 C1331 1.363 . S
C1330 C1320 1.465 . S
C1330 U1326 2.847 1_556 S
C1330 O1344 1.249 1_556 S
C1330 O1345 1.202 . S
C1331 C1329 1.363 . S
C1331 C1333 1.408 . S
C1331 C1336 1.342 . S
C1332 C1333 1.310 . S
C1332 C1335 1.461 . S
C1332 H1352 0.932 . S
C1333 C1331 1.408 . S
C1333 C1332 1.310 . S
C1333 H1353 0.930 . S
C1334 C1335 1.474 . S
C1334 C1336 1.285 . S
C1334 H1354 0.929 . S
C1335 C1332 1.461 . S
C1335 C1334 1.474 . S
C1336 C1331 1.342 . S
C1336 C1334 1.285 . S
C1336 H1355 0.930 . S
C1337 C1340 1.424 . S
C1337 C1342 1.245 . S
C1337 C1343 1.428 . S
C1338 C1341 1.260 . S
C1338 C1342 1.477 . S
C1338 H1356 0.932 . S
C1339 C1340 1.384 . S
C1339 C1341 1.479 . S
C1339 H1357 0.929 . S
C1340 C1337 1.424 . S
C1340 C1339 1.384 . S
C1340 H1358 0.928 . S
C1341 C1338 1.260 . S
C1341 C1339 1.479 . S
C1342 C1337 1.245 . S
C1342 C1338 1.477 . S
C1342 H1359 0.932 . S
C1343 U1326 2.882 1_556 S
C1343 C1337 1.428 . S
C1343 O1346 1.301 . S
C1343 O1347 1.282 . S
O1344 U1326 2.441 . S
O1344 C1330 1.249 1_554 S
O1345 U1326 2.420 1_556 S
O1345 C1330 1.202 . S
O1346 U1326 2.455 1_556 S
O1346 C1343 1.301 . S
O1347 U1326 2.449 1_556 S
O1347 C1343 1.282 . S
H1348 C1321 0.931 . S
H1349 C1323 0.929 . S
H1350 C1324 0.930 . S
H1351 C1325 0.931 1_554 S
H1352 C1332 0.932 . S
H1353 C1333 0.930 . S
H1354 C1334 0.929 . S
H1355 C1336 0.930 . S
H1356 C1338 0.932 . S
H1357 C1339 0.929 . S
H1358 C1340 0.928 . S
H1359 C1342 0.932 . S
C1360 C1361 1.264 . S
C1360 C1365 1.479 . S
C1360 C1370 1.465 . S
C1361 C1360 1.264 . S
C1361 C1363 1.339 . S
C1361 H1388 0.931 . S
C1362 C1363 1.395 . S
C1362 C1364 1.320 . S
C1363 C1361 1.339 . S
C1363 C1362 1.395 . S
C1363 H1389 0.929 . S
C1364 C1362 1.320 . S
C1364 C1365 1.405 . S
C1364 H1390 0.930 . S
C1365 C1360 1.479 . S
C1365 C1364 1.405 . S
C1365 H1391 0.931 . S
U1366 O1367 2.454 . S
U1366 O1368 2.458 . S
U1366 C1369 2.984 . S
U1366 C1370 2.847 . S
U1366 C1383 2.882 . S
U1366 O1384 2.441 . S
U1366 O1385 2.420 . S
U1366 O1386 2.455 . S
U1366 O1387 2.449 . S
O1367 U1366 2.454 . S
O1367 C1369 1.353 . S
O1368 U1366 2.458 . S
O1368 C1369 1.286 . S
C1369 U1366 2.984 . S
C1369 O1367 1.353 . S
C1369 O1368 1.286 . S
C1369 C1371 1.363 . S
C1370 C1360 1.465 . S
C1370 U1366 2.847 . S
C1370 O1384 1.249 . S
C1370 O1385 1.202 . S
C1371 C1369 1.363 . S
C1371 C1373 1.408 . S
C1371 C1376 1.342 . S
C1372 C1373 1.310 . S
C1372 C1375 1.461 . S
C1372 H1392 0.932 . S
C1373 C1371 1.408 . S
C1373 C1372 1.310 . S
C1373 H1393 0.930 . S
C1374 C1375 1.474 . S
C1374 C1376 1.285 . S
C1374 H1394 0.929 . S
C1375 C1372 1.461 . S
C1375 C1374 1.474 . S
C1376 C1371 1.342 . S
C1376 C1374 1.285 . S
C1376 H1395 0.930 . S
C1377 C1380 1.424 . S
C1377 C1382 1.245 . S
C1377 C1383 1.428 . S
C1378 C1381 1.260 . S
C1378 C1382 1.477 . S
C1378 H1396 0.932 . S
C1379 C1380 1.384 . S
C1379 C1381 1.479 . S
C1379 H1397 0.929 . S
C1380 C1377 1.424 . S
C1380 C1379 1.384 . S
C1380 H1398 0.928 . S
C1381 C1378 1.260 . S
C1381 C1379 1.479 . S
C1382 C1377 1.245 . S
C1382 C1378 1.477 . S
C1382 H1399 0.932 . S
C1383 U1366 2.882 . S
C1383 C1377 1.428 . S
C1383 O1386 1.301 . S
C1383 O1387 1.282 . S
O1384 U1366 2.441 . S
O1384 C1370 1.249 . S
O1385 U1366 2.420 . S
O1385 C1370 1.202 . S
O1386 U1366 2.455 . S
O1386 C1383 1.301 . S
O1387 U1366 2.449 . S
O1387 C1383 1.282 . S
H1388 C1361 0.931 . S
H1389 C1363 0.929 . S
H1390 C1364 0.930 . S
H1391 C1365 0.931 . S
H1392 C1372 0.932 . S
H1393 C1373 0.930 . S
H1394 C1374 0.929 . S
H1395 C1376 0.930 . S
H1396 C1378 0.932 . S
H1397 C1379 0.929 . S
H1398 C1380 0.928 . S
H1399 C1382 0.932 . S
C1400 C1401 1.264 . S
C1400 C1405 1.479 . S
C1400 C1410 1.465 . S
C1401 C1400 1.264 . S
C1401 C1403 1.339 . S
C1401 H1428 0.931 . S
C1402 C1403 1.395 . S
C1402 C1404 1.320 . S
C1403 C1401 1.339 . S
C1403 C1402 1.395 . S
C1403 H1429 0.929 . S
C1404 C1402 1.320 . S
C1404 C1405 1.405 . S
C1404 H1430 0.930 . S
C1405 C1400 1.479 . S
C1405 C1404 1.405 . S
C1405 H1431 0.931 . S
U1406 O1407 2.454 . S
U1406 O1408 2.458 . S
U1406 C1409 2.984 . S
U1406 C1410 2.847 . S
U1406 C1423 2.882 . S
U1406 O1424 2.441 . S
U1406 O1425 2.420 . S
U1406 O1426 2.455 . S
U1406 O1427 2.449 . S
O1407 U1406 2.454 . S
O1407 C1409 1.353 . S
O1408 U1406 2.458 . S
O1408 C1409 1.286 . S
C1409 U1406 2.984 . S
C1409 O1407 1.353 . S
C1409 O1408 1.286 . S
C1409 C1411 1.363 . S
C1410 C1400 1.465 . S
C1410 U1406 2.847 . S
C1410 O1424 1.249 . S
C1410 O1425 1.202 . S
C1411 C1409 1.363 . S
C1411 C1413 1.408 . S
C1411 C1416 1.342 . S
C1412 C1413 1.310 . S
C1412 C1415 1.461 . S
C1412 H1432 0.932 . S
C1413 C1411 1.408 . S
C1413 C1412 1.310 . S
C1413 H1433 0.930 . S
C1414 C1415 1.474 . S
C1414 C1416 1.285 . S
C1414 H1434 0.929 . S
C1415 C1412 1.461 . S
C1415 C1414 1.474 . S
C1416 C1411 1.342 . S
C1416 C1414 1.285 . S
C1416 H1435 0.930 . S
C1417 C1420 1.424 . S
C1417 C1422 1.245 . S
C1417 C1423 1.428 . S
C1418 C1421 1.260 . S
C1418 C1422 1.477 . S
C1418 H1436 0.932 . S
C1419 C1420 1.384 . S
C1419 C1421 1.479 . S
C1419 H1437 0.929 . S
C1420 C1417 1.424 . S
C1420 C1419 1.384 . S
C1420 H1438 0.928 . S
C1421 C1418 1.260 . S
C1421 C1419 1.479 . S
C1422 C1417 1.245 . S
C1422 C1418 1.477 . S
C1422 H1439 0.932 . S
C1423 U1406 2.882 . S
C1423 C1417 1.428 . S
C1423 O1426 1.301 . S
C1423 O1427 1.282 . S
O1424 U1406 2.441 . S
O1424 C1410 1.249 . S
O1425 U1406 2.420 . S
O1425 C1410 1.202 . S
O1426 U1406 2.455 . S
O1426 C1423 1.301 . S
O1427 U1406 2.449 . S
O1427 C1423 1.282 . S
H1428 C1401 0.931 . S
H1429 C1403 0.929 . S
H1430 C1404 0.930 . S
H1431 C1405 0.931 . S
H1432 C1412 0.932 . S
H1433 C1413 0.930 . S
H1434 C1414 0.929 . S
H1435 C1416 0.930 . S
H1436 C1418 0.932 . S
H1437 C1419 0.929 . S
H1438 C1420 0.928 . S
H1439 C1422 0.932 . S
C1440 C1441 1.264 . S
C1440 C1445 1.479 . S
C1440 C1450 1.465 . S
C1441 C1440 1.264 . S
C1441 C1443 1.339 . S
C1441 H1468 0.931 . S
C1442 C1443 1.395 . S
C1442 C1444 1.320 . S
C1443 C1441 1.339 . S
C1443 C1442 1.395 . S
C1443 H1469 0.929 . S
C1444 C1442 1.320 . S
C1444 C1445 1.405 . S
C1444 H1470 0.930 . S
C1445 C1440 1.479 . S
C1445 C1444 1.405 . S
C1445 H1471 0.931 . S
U1446 O1447 2.454 . S
U1446 O1448 2.458 . S
U1446 C1449 2.984 . S
U1446 C1450 2.847 . S
U1446 C1463 2.882 . S
U1446 O1464 2.441 . S
U1446 O1465 2.420 . S
U1446 O1466 2.455 . S
U1446 O1467 2.449 . S
O1447 U1446 2.454 . S
O1447 C1449 1.353 . S
O1448 U1446 2.458 . S
O1448 C1449 1.286 . S
C1449 U1446 2.984 . S
C1449 O1447 1.353 . S
C1449 O1448 1.286 . S
C1449 C1451 1.363 . S
C1450 C1440 1.465 . S
C1450 U1446 2.847 . S
C1450 O1464 1.249 . S
C1450 O1465 1.202 . S
C1451 C1449 1.363 . S
C1451 C1453 1.408 . S
C1451 C1456 1.342 . S
C1452 C1453 1.310 . S
C1452 C1455 1.461 . S
C1452 H1472 0.932 . S
C1453 C1451 1.408 . S
C1453 C1452 1.310 . S
C1453 H1473 0.930 . S
C1454 C1455 1.474 . S
C1454 C1456 1.285 . S
C1454 H1474 0.929 . S
C1455 C1452 1.461 . S
C1455 C1454 1.474 . S
C1456 C1451 1.342 . S
C1456 C1454 1.285 . S
C1456 H1475 0.930 . S
C1457 C1460 1.424 . S
C1457 C1462 1.245 . S
C1457 C1463 1.428 . S
C1458 C1461 1.260 . S
C1458 C1462 1.477 . S
C1458 H1476 0.932 . S
C1459 C1460 1.384 . S
C1459 C1461 1.479 . S
C1459 H1477 0.929 . S
C1460 C1457 1.424 . S
C1460 C1459 1.384 . S
C1460 H1478 0.928 . S
C1461 C1458 1.260 . S
C1461 C1459 1.479 . S
C1462 C1457 1.245 . S
C1462 C1458 1.477 . S
C1462 H1479 0.932 . S
C1463 U1446 2.882 . S
C1463 C1457 1.428 . S
C1463 O1466 1.301 . S
C1463 O1467 1.282 . S
O1464 U1446 2.441 . S
O1464 C1450 1.249 . S
O1465 U1446 2.420 . S
O1465 C1450 1.202 . S
O1466 U1446 2.455 . S
O1466 C1463 1.301 . S
O1467 U1446 2.449 . S
O1467 C1463 1.282 . S
H1468 C1441 0.931 . S
H1469 C1443 0.929 . S
H1470 C1444 0.930 . S
H1471 C1445 0.931 . S
H1472 C1452 0.932 . S
H1473 C1453 0.930 . S
H1474 C1454 0.929 . S
H1475 C1456 0.930 . S
H1476 C1458 0.932 . S
H1477 C1459 0.929 . S
H1478 C1460 0.928 . S
H1479 C1462 0.932 . S
C1480 C1481 1.264 . S
C1480 C1485 1.479 . S
C1480 C1490 1.465 . S
C1481 C1480 1.264 . S
C1481 C1483 1.339 . S
C1481 H1508 0.931 . S
C1482 C1483 1.395 . S
C1482 C1484 1.320 . S
C1483 C1481 1.339 . S
C1483 C1482 1.395 . S
C1483 H1509 0.929 . S
C1484 C1482 1.320 . S
C1484 C1485 1.405 . S
C1484 H1510 0.930 . S
C1485 C1480 1.479 . S
C1485 C1484 1.405 . S
C1485 H1511 0.931 . S
U1486 O1487 2.454 . S
U1486 O1488 2.458 . S
U1486 C1489 2.984 . S
U1486 C1490 2.847 . S
U1486 C1503 2.882 . S
U1486 O1504 2.441 . S
U1486 O1505 2.420 . S
U1486 O1506 2.455 . S
U1486 O1507 2.449 . S
O1487 U1486 2.454 . S
O1487 C1489 1.353 . S
O1488 U1486 2.458 . S
O1488 C1489 1.286 . S
C1489 U1486 2.984 . S
C1489 O1487 1.353 . S
C1489 O1488 1.286 . S
C1489 C1491 1.363 . S
C1490 C1480 1.465 . S
C1490 U1486 2.847 . S
C1490 O1504 1.249 . S
C1490 O1505 1.202 . S
C1491 C1489 1.363 . S
C1491 C1493 1.408 . S
C1491 C1496 1.342 . S
C1492 C1493 1.310 . S
C1492 C1495 1.461 . S
C1492 H1512 0.932 . S
C1493 C1491 1.408 . S
C1493 C1492 1.310 . S
C1493 H1513 0.930 . S
C1494 C1495 1.474 . S
C1494 C1496 1.285 . S
C1494 H1514 0.929 . S
C1495 C1492 1.461 . S
C1495 C1494 1.474 . S
C1496 C1491 1.342 . S
C1496 C1494 1.285 . S
C1496 H1515 0.930 . S
C1497 C1500 1.424 . S
C1497 C1502 1.245 . S
C1497 C1503 1.428 . S
C1498 C1501 1.260 . S
C1498 C1502 1.477 . S
C1498 H1516 0.932 . S
C1499 C1500 1.384 . S
C1499 C1501 1.479 . S
C1499 H1517 0.929 . S
C1500 C1497 1.424 . S
C1500 C1499 1.384 . S
C1500 H1518 0.928 . S
C1501 C1498 1.260 . S
C1501 C1499 1.479 . S
C1502 C1497 1.245 . S
C1502 C1498 1.477 . S
C1502 H1519 0.932 . S
C1503 U1486 2.882 . S
C1503 C1497 1.428 . S
C1503 O1506 1.301 . S
C1503 O1507 1.282 . S
O1504 U1486 2.441 . S
O1504 C1490 1.249 . S
O1505 U1486 2.420 . S
O1505 C1490 1.202 . S
O1506 U1486 2.455 . S
O1506 C1503 1.301 . S
O1507 U1486 2.449 . S
O1507 C1503 1.282 . S
H1508 C1481 0.931 . S
H1509 C1483 0.929 . S
H1510 C1484 0.930 . S
H1511 C1485 0.931 . S
H1512 C1492 0.932 . S
H1513 C1493 0.930 . S
H1514 C1494 0.929 . S
H1515 C1496 0.930 . S
H1516 C1498 0.932 . S
H1517 C1499 0.929 . S
H1518 C1500 0.928 . S
H1519 C1502 0.932 . S
C1520 C1521 1.264 . S
C1520 C1525 1.479 . S
C1520 C1530 1.465 . S
C1521 C1520 1.264 . S
C1521 C1523 1.339 . S
C1521 H1548 0.931 . S
C1522 C1523 1.395 . S
C1522 C1524 1.320 . S
C1523 C1521 1.339 . S
C1523 C1522 1.395 . S
C1523 H1549 0.929 . S
C1524 C1522 1.320 . S
C1524 C1525 1.405 . S
C1524 H1550 0.930 . S
C1525 C1520 1.479 . S
C1525 C1524 1.405 . S
C1525 H1551 0.931 . S
U1526 O1527 2.454 . S
U1526 O1528 2.458 . S
U1526 C1529 2.984 . S
U1526 C1530 2.847 . S
U1526 C1543 2.882 . S
U1526 O1544 2.441 . S
U1526 O1545 2.420 . S
U1526 O1546 2.455 . S
U1526 O1547 2.449 . S
O1527 U1526 2.454 . S
O1527 C1529 1.353 . S
O1528 U1526 2.458 . S
O1528 C1529 1.286 . S
C1529 U1526 2.984 . S
C1529 O1527 1.353 . S
C1529 O1528 1.286 . S
C1529 C1531 1.363 . S
C1530 C1520 1.465 . S
C1530 U1526 2.847 . S
C1530 O1544 1.249 . S
C1530 O1545 1.202 . S
C1531 C1529 1.363 . S
C1531 C1533 1.408 . S
C1531 C1536 1.342 . S
C1532 C1533 1.310 . S
C1532 C1535 1.461 . S
C1532 H1552 0.932 . S
C1533 C1531 1.408 . S
C1533 C1532 1.310 . S
C1533 H1553 0.930 . S
C1534 C1535 1.474 . S
C1534 C1536 1.285 . S
C1534 H1554 0.929 . S
C1535 C1532 1.461 . S
C1535 C1534 1.474 . S
C1536 C1531 1.342 . S
C1536 C1534 1.285 . S
C1536 H1555 0.930 . S
C1537 C1540 1.424 . S
C1537 C1542 1.245 . S
C1537 C1543 1.428 . S
C1538 C1541 1.260 . S
C1538 C1542 1.477 . S
C1538 H1556 0.932 . S
C1539 C1540 1.384 . S
C1539 C1541 1.479 . S
C1539 H1557 0.929 . S
C1540 C1537 1.424 . S
C1540 C1539 1.384 . S
C1540 H1558 0.928 . S
C1541 C1538 1.260 . S
C1541 C1539 1.479 . S
C1542 C1537 1.245 . S
C1542 C1538 1.477 . S
C1542 H1559 0.932 . S
C1543 U1526 2.882 . S
C1543 C1537 1.428 . S
C1543 O1546 1.301 . S
C1543 O1547 1.282 . S
O1544 U1526 2.441 . S
O1544 C1530 1.249 . S
O1545 U1526 2.420 . S
O1545 C1530 1.202 . S
O1546 U1526 2.455 . S
O1546 C1543 1.301 . S
O1547 U1526 2.449 . S
O1547 C1543 1.282 . S
H1548 C1521 0.931 . S
H1549 C1523 0.929 . S
H1550 C1524 0.930 . S
H1551 C1525 0.931 . S
H1552 C1532 0.932 . S
H1553 C1533 0.930 . S
H1554 C1534 0.929 . S
H1555 C1536 0.930 . S
H1556 C1538 0.932 . S
H1557 C1539 0.929 . S
H1558 C1540 0.928 . S
H1559 C1542 0.932 . S
C1560 C1561 1.264 . S
C1560 C1565 1.479 . S
C1560 C1570 1.465 . S
C1561 C1560 1.264 . S
C1561 C1563 1.339 . S
C1561 H1588 0.931 . S
C1562 C1563 1.395 . S
C1562 C1564 1.320 . S
C1563 C1561 1.339 . S
C1563 C1562 1.395 . S
C1563 H1589 0.929 . S
C1564 C1562 1.320 . S
C1564 C1565 1.405 . S
C1564 H1590 0.930 . S
C1565 C1560 1.479 . S
C1565 C1564 1.405 . S
C1565 H1591 0.931 . S
U1566 O1567 2.454 . S
U1566 O1568 2.458 . S
U1566 C1569 2.984 . S
U1566 C1570 2.847 . S
U1566 C1583 2.882 . S
U1566 O1584 2.441 . S
U1566 O1585 2.420 . S
U1566 O1586 2.455 . S
U1566 O1587 2.449 . S
O1567 U1566 2.454 . S
O1567 C1569 1.353 . S
O1568 U1566 2.458 . S
O1568 C1569 1.286 . S
C1569 U1566 2.984 . S
C1569 O1567 1.353 . S
C1569 O1568 1.286 . S
C1569 C1571 1.363 . S
C1570 C1560 1.465 . S
C1570 U1566 2.847 . S
C1570 O1584 1.249 . S
C1570 O1585 1.202 . S
C1571 C1569 1.363 . S
C1571 C1573 1.408 . S
C1571 C1576 1.342 . S
C1572 C1573 1.310 . S
C1572 C1575 1.461 . S
C1572 H1592 0.932 . S
C1573 C1571 1.408 . S
C1573 C1572 1.310 . S
C1573 H1593 0.930 . S
C1574 C1575 1.474 . S
C1574 C1576 1.285 . S
C1574 H1594 0.929 . S
C1575 C1572 1.461 . S
C1575 C1574 1.474 . S
C1576 C1571 1.342 . S
C1576 C1574 1.285 . S
C1576 H1595 0.930 . S
C1577 C1580 1.424 . S
C1577 C1582 1.245 . S
C1577 C1583 1.428 . S
C1578 C1581 1.260 . S
C1578 C1582 1.477 . S
C1578 H1596 0.932 . S
C1579 C1580 1.384 . S
C1579 C1581 1.479 . S
C1579 H1597 0.929 . S
C1580 C1577 1.424 . S
C1580 C1579 1.384 . S
C1580 H1598 0.928 . S
C1581 C1578 1.260 . S
C1581 C1579 1.479 . S
C1582 C1577 1.245 . S
C1582 C1578 1.477 . S
C1582 H1599 0.932 . S
C1583 U1566 2.882 . S
C1583 C1577 1.428 . S
C1583 O1586 1.301 . S
C1583 O1587 1.282 . S
O1584 U1566 2.441 . S
O1584 C1570 1.249 . S
O1585 U1566 2.420 . S
O1585 C1570 1.202 . S
O1586 U1566 2.455 . S
O1586 C1583 1.301 . S
O1587 U1566 2.449 . S
O1587 C1583 1.282 . S
H1588 C1561 0.931 . S
H1589 C1563 0.929 . S
H1590 C1564 0.930 . S
H1591 C1565 0.931 . S
H1592 C1572 0.932 . S
H1593 C1573 0.930 . S
H1594 C1574 0.929 . S
H1595 C1576 0.930 . S
H1596 C1578 0.932 . S
H1597 C1579 0.929 . S
H1598 C1580 0.928 . S
H1599 C1582 0.932 . S
C1600 C1601 1.264 . S
C1600 C1605 1.479 . S
C1600 C1610 1.465 . S
C1601 C1600 1.264 . S
C1601 C1603 1.339 . S
C1601 H1628 0.931 . S
C1602 C1603 1.395 . S
C1602 C1604 1.320 . S
C1603 C1601 1.339 . S
C1603 C1602 1.395 . S
C1603 H1629 0.929 . S
C1604 C1602 1.320 . S
C1604 C1605 1.405 . S
C1604 H1630 0.936 . S
C1605 C1600 1.479 . S
C1605 C1604 1.405 . S
C1605 H1631 0.931 . S
U1606 O1607 2.454 . S
U1606 O1608 2.458 . S
U1606 C1609 2.984 . S
U1606 C1610 2.847 . S
U1606 C1623 2.882 . S
U1606 O1624 2.441 . S
U1606 O1625 2.420 . S
U1606 O1626 2.455 . S
U1606 O1627 2.449 . S
O1607 U1606 2.454 . S
O1607 C1609 1.353 . S
O1608 U1606 2.458 . S
O1608 C1609 1.286 . S
C1609 U1606 2.984 . S
C1609 O1607 1.353 . S
C1609 O1608 1.286 . S
C1609 C1611 1.363 . S
C1610 C1600 1.465 . S
C1610 U1606 2.847 . S
C1610 O1624 1.249 . S
C1610 O1625 1.202 . S
C1611 C1609 1.363 . S
C1611 C1613 1.408 . S
C1611 C1616 1.342 . S
C1612 C1613 1.310 . S
C1612 C1615 1.461 . S
C1612 H1632 0.932 . S
C1613 C1611 1.408 . S
C1613 C1612 1.310 . S
C1613 H1633 0.930 . S
C1614 C1615 1.474 . S
C1614 C1616 1.285 . S
C1614 H1634 0.929 . S
C1615 C1612 1.461 . S
C1615 C1614 1.474 . S
C1616 C1611 1.342 . S
C1616 C1614 1.285 . S
C1616 H1635 0.930 . S
C1617 C1620 1.424 . S
C1617 C1622 1.245 . S
C1617 C1623 1.428 . S
C1618 C1621 1.260 . S
C1618 C1622 1.477 . S
C1618 H1636 0.932 . S
C1619 C1620 1.384 . S
C1619 C1621 1.479 . S
C1619 H1637 0.929 . S
C1620 C1617 1.424 . S
C1620 C1619 1.384 . S
C1620 H1638 0.928 . S
C1621 C1618 1.260 . S
C1621 C1619 1.479 . S
C1622 C1617 1.245 . S
C1622 C1618 1.477 . S
C1622 H1639 0.932 . S
C1623 U1606 2.882 . S
C1623 C1617 1.428 . S
C1623 O1626 1.301 . S
C1623 O1627 1.282 . S
O1624 U1606 2.441 . S
O1624 C1610 1.249 . S
O1625 U1606 2.420 . S
O1625 C1610 1.202 . S
O1626 U1606 2.455 . S
O1626 C1623 1.301 . S
O1627 U1606 2.449 . S
O1627 C1623 1.282 . S
H1628 C1601 0.931 . S
H1629 C1603 0.929 . S
H1630 C1604 0.936 . S
H1631 C1605 0.931 . S
H1632 C1612 0.932 . S
H1633 C1613 0.930 . S
H1634 C1614 0.929 . S
H1635 C1616 0.930 . S
H1636 C1618 0.932 . S
H1637 C1619 0.929 . S
H1638 C1620 0.928 . S
H1639 C1622 0.932 . S
C1640 C1641 1.264 . S
C1640 C1645 1.479 . S
C1640 C1650 1.465 . S
C1641 C1640 1.264 . S
C1641 C1643 1.339 . S
C1641 H1668 0.931 . S
C1642 C1643 1.395 . S
C1642 C1644 1.320 . S
C1643 C1641 1.339 . S
C1643 C1642 1.395 . S
C1643 H1669 0.929 . S
C1644 C1642 1.320 . S
C1644 C1645 1.405 . S
C1644 H1670 0.930 . S
C1645 C1640 1.479 . S
C1645 C1644 1.405 . S
C1645 H1671 0.931 . S
U1646 O1647 2.454 . S
U1646 O1648 2.458 . S
U1646 C1649 2.984 . S
U1646 C1650 2.847 . S
U1646 C1663 2.882 . S
U1646 O1664 2.441 . S
U1646 O1665 2.420 . S
U1646 O1666 2.455 . S
U1646 O1667 2.449 . S
O1647 U1646 2.454 . S
O1647 C1649 1.353 . S
O1648 U1646 2.458 . S
O1648 C1649 1.286 . S
C1649 U1646 2.984 . S
C1649 O1647 1.353 . S
C1649 O1648 1.286 . S
C1649 C1651 1.363 . S
C1650 C1640 1.465 . S
C1650 U1646 2.847 . S
C1650 O1664 1.249 . S
C1650 O1665 1.202 . S
C1651 C1649 1.363 . S
C1651 C1653 1.408 . S
C1651 C1656 1.342 . S
C1652 C1653 1.310 . S
C1652 C1655 1.461 . S
C1652 H1672 0.932 . S
C1653 C1651 1.408 . S
C1653 C1652 1.310 . S
C1653 H1673 0.930 . S
C1654 C1655 1.474 . S
C1654 C1656 1.285 . S
C1654 H1674 0.929 . S
C1655 C1652 1.461 . S
C1655 C1654 1.474 . S
C1656 C1651 1.342 . S
C1656 C1654 1.285 . S
C1656 H1675 0.930 . S
C1657 C1660 1.424 . S
C1657 C1662 1.245 . S
C1657 C1663 1.428 . S
C1658 C1661 1.260 . S
C1658 C1662 1.477 . S
C1658 H1676 0.932 . S
C1659 C1660 1.384 . S
C1659 C1661 1.479 . S
C1659 H1677 0.929 . S
C1660 C1657 1.424 . S
C1660 C1659 1.384 . S
C1660 H1678 0.928 . S
C1661 C1658 1.260 . S
C1661 C1659 1.479 . S
C1662 C1657 1.245 . S
C1662 C1658 1.477 . S
C1662 H1679 0.932 . S
C1663 U1646 2.882 . S
C1663 C1657 1.428 . S
C1663 O1666 1.301 . S
C1663 O1667 1.282 . S
O1664 U1646 2.441 . S
O1664 C1650 1.249 . S
O1665 U1646 2.420 . S
O1665 C1650 1.202 . S
O1666 U1646 2.455 . S
O1666 C1663 1.301 . S
O1667 U1646 2.449 . S
O1667 C1663 1.282 . S
H1668 C1641 0.931 . S
H1669 C1643 0.929 . S
H1670 C1644 0.930 . S
H1671 C1645 0.931 . S
H1672 C1652 0.932 . S
H1673 C1653 0.930 . S
H1674 C1654 0.929 . S
H1675 C1656 0.930 . S
H1676 C1658 0.932 . S
H1677 C1659 0.929 . S
H1678 C1660 0.928 . S
H1679 C1662 0.932 . S
C1680 C1681 1.264 . S
C1680 C1685 1.479 1_554 S
C1680 C1690 1.465 . S
C1681 C1680 1.264 . S
C1681 C1683 1.339 . S
C1681 H1708 0.931 . S
C1682 C1683 1.395 . S
C1682 C1684 1.320 . S
C1683 C1681 1.339 . S
C1683 C1682 1.395 . S
C1683 H1709 0.929 . S
C1684 C1682 1.320 . S
C1684 C1685 1.405 1_554 S
C1684 H1710 0.930 1_554 S
C1685 C1680 1.479 1_556 S
C1685 C1684 1.405 1_556 S
C1685 H1711 0.931 . S
U1686 O1687 2.462 1_554 S
U1686 O1688 2.463 1_554 S
U1686 C1689 2.992 1_554 S
U1686 C1690 2.846 . S
U1686 C1703 2.876 . S
U1686 O1704 2.443 1_554 S
U1686 O1705 2.416 . S
U1686 O1706 2.451 . S
U1686 O1707 2.441 . S
O1687 U1686 2.462 1_556 S
O1687 C1689 1.353 . S
O1688 U1686 2.463 1_556 S
O1688 C1689 1.286 . S
C1689 U1686 2.992 1_556 S
C1689 O1687 1.353 . S
C1689 O1688 1.286 . S
C1689 C1691 1.363 . S
C1690 C1680 1.465 . S
C1690 U1686 2.846 . S
C1690 O1704 1.249 1_554 S
C1690 O1705 1.202 . S
C1691 C1689 1.363 . S
C1691 C1693 1.408 . S
C1691 C1696 1.342 . S
C1692 C1693 1.310 . S
C1692 C1695 1.461 . S
C1692 H1712 0.932 . S
C1693 C1691 1.408 . S
C1693 C1692 1.310 . S
C1693 H1713 0.930 . S
C1694 C1695 1.474 . S
C1694 C1696 1.285 . S
C1694 H1714 0.929 . S
C1695 C1692 1.461 . S
C1695 C1694 1.474 . S
C1696 C1691 1.342 . S
C1696 C1694 1.285 . S
C1696 H1715 0.930 . S
C1697 C1700 1.424 . S
C1697 C1702 1.245 . S
C1697 C1703 1.428 . S
C1698 C1701 1.260 . S
C1698 C1702 1.477 . S
C1698 H1716 0.932 . S
C1699 C1700 1.384 . S
C1699 C1701 1.479 . S
C1699 H1717 0.929 . S
C1700 C1697 1.424 . S
C1700 C1699 1.384 . S
C1700 H1718 0.928 . S
C1701 C1698 1.260 . S
C1701 C1699 1.479 . S
C1702 C1697 1.245 . S
C1702 C1698 1.477 . S
C1702 H1719 0.932 . S
C1703 U1686 2.876 . S
C1703 C1697 1.428 . S
C1703 O1706 1.301 . S
C1703 O1707 1.282 . S
O1704 U1686 2.443 1_556 S
O1704 C1690 1.249 1_556 S
O1705 U1686 2.416 . S
O1705 C1690 1.202 . S
O1706 U1686 2.451 . S
O1706 C1703 1.301 . S
O1707 U1686 2.441 . S
O1707 C1703 1.282 . S
H1708 C1681 0.931 . S
H1709 C1683 0.929 . S
H1710 C1684 0.930 1_556 S
H1711 C1685 0.931 . S
H1712 C1692 0.932 . S
H1713 C1693 0.930 . S
H1714 C1694 0.929 . S
H1715 C1696 0.930 . S
H1716 C1698 0.932 . S
H1717 C1699 0.929 . S
H1718 C1700 0.928 . S
H1719 C1702 0.932 . S
C1720 C1721 1.264 . S
C1720 C1725 1.479 . S
C1720 C1730 1.465 . S
C1721 C1720 1.264 . S
C1721 C1723 1.339 . S
C1721 H1748 0.931 . S
C1722 C1723 1.395 . S
C1722 C1724 1.320 . S
C1723 C1721 1.339 . S
C1723 C1722 1.395 . S
C1723 H1749 0.929 . S
C1724 C1722 1.320 . S
C1724 C1725 1.405 . S
C1724 H1750 0.930 . S
C1725 C1720 1.479 . S
C1725 C1724 1.405 . S
C1725 H1751 0.931 . S
U1726 O1727 2.454 . S
U1726 O1728 2.458 . S
U1726 C1729 2.984 . S
U1726 C1730 2.847 . S
U1726 C1743 2.882 . S
U1726 O1744 2.441 . S
U1726 O1745 2.420 . S
U1726 O1746 2.455 . S
U1726 O1747 2.449 . S
O1727 U1726 2.454 . S
O1727 C1729 1.353 . S
O1728 U1726 2.458 . S
O1728 C1729 1.286 . S
C1729 U1726 2.984 . S
C1729 O1727 1.353 . S
C1729 O1728 1.286 . S
C1729 C1731 1.363 . S
C1730 C1720 1.465 . S
C1730 U1726 2.847 . S
C1730 O1744 1.249 . S
C1730 O1745 1.202 . S
C1731 C1729 1.363 . S
C1731 C1733 1.408 . S
C1731 C1736 1.342 . S
C1732 C1733 1.310 . S
C1732 C1735 1.461 . S
C1732 H1752 0.932 . S
C1733 C1731 1.408 . S
C1733 C1732 1.310 . S
C1733 H1753 0.930 . S
C1734 C1735 1.474 . S
C1734 C1736 1.285 . S
C1734 H1754 0.929 . S
C1735 C1732 1.461 . S
C1735 C1734 1.474 . S
C1736 C1731 1.342 . S
C1736 C1734 1.285 . S
C1736 H1755 0.930 . S
C1737 C1740 1.424 . S
C1737 C1742 1.245 . S
C1737 C1743 1.428 . S
C1738 C1741 1.260 . S
C1738 C1742 1.477 . S
C1738 H1756 0.932 . S
C1739 C1740 1.384 . S
C1739 C1741 1.479 . S
C1739 H1757 0.929 . S
C1740 C1737 1.424 . S
C1740 C1739 1.384 . S
C1740 H1758 0.928 . S
C1741 C1738 1.260 . S
C1741 C1739 1.479 . S
C1742 C1737 1.245 . S
C1742 C1738 1.477 . S
C1742 H1759 0.932 . S
C1743 U1726 2.882 . S
C1743 C1737 1.428 . S
C1743 O1746 1.301 . S
C1743 O1747 1.282 . S
O1744 U1726 2.441 . S
O1744 C1730 1.249 . S
O1745 U1726 2.420 . S
O1745 C1730 1.202 . S
O1746 U1726 2.455 . S
O1746 C1743 1.301 . S
O1747 U1726 2.449 . S
O1747 C1743 1.282 . S
H1748 C1721 0.931 . S
H1749 C1723 0.929 . S
H1750 C1724 0.930 . S
H1751 C1725 0.931 . S
H1752 C1732 0.932 . S
H1753 C1733 0.930 . S
H1754 C1734 0.929 . S
H1755 C1736 0.930 . S
H1756 C1738 0.932 . S
H1757 C1739 0.929 . S
H1758 C1740 0.928 . S
H1759 C1742 0.932 . S
C1760 C1761 1.264 . S
C1760 C1765 1.479 . S
C1760 C1770 1.465 . S
C1761 C1760 1.264 . S
C1761 C1763 1.339 . S
C1761 H1788 0.931 . S
C1762 C1763 1.395 . S
C1762 C1764 1.320 . S
C1763 C1761 1.339 . S
C1763 C1762 1.395 . S
C1763 H1789 0.929 . S
C1764 C1762 1.320 . S
C1764 C1765 1.405 . S
C1764 H1790 0.930 . S
C1765 C1760 1.479 . S
C1765 C1764 1.405 . S
C1765 H1791 0.931 . S
U1766 O1767 2.454 . S
U1766 O1768 2.458 . S
U1766 C1769 2.984 . S
U1766 C1770 2.847 . S
U1766 C1783 2.882 . S
U1766 O1784 2.441 . S
U1766 O1785 2.420 . S
U1766 O1786 2.455 . S
U1766 O1787 2.449 . S
O1767 U1766 2.454 . S
O1767 C1769 1.353 . S
O1768 U1766 2.458 . S
O1768 C1769 1.286 . S
C1769 U1766 2.984 . S
C1769 O1767 1.353 . S
C1769 O1768 1.286 . S
C1769 C1771 1.363 . S
C1770 C1760 1.465 . S
C1770 U1766 2.847 . S
C1770 O1784 1.249 . S
C1770 O1785 1.202 . S
C1771 C1769 1.363 . S
C1771 C1773 1.408 . S
C1771 C1776 1.342 . S
C1772 C1773 1.310 . S
C1772 C1775 1.461 . S
C1772 H1792 0.932 . S
C1773 C1771 1.408 . S
C1773 C1772 1.310 . S
C1773 H1793 0.930 . S
C1774 C1775 1.474 . S
C1774 C1776 1.285 . S
C1774 H1794 0.929 . S
C1775 C1772 1.461 . S
C1775 C1774 1.474 . S
C1776 C1771 1.342 . S
C1776 C1774 1.285 . S
C1776 H1795 0.930 . S
C1777 C1780 1.424 . S
C1777 C1782 1.245 . S
C1777 C1783 1.428 . S
C1778 C1781 1.260 . S
C1778 C1782 1.477 . S
C1778 H1796 0.932 . S
C1779 C1780 1.384 . S
C1779 C1781 1.479 . S
C1779 H1797 0.929 . S
C1780 C1777 1.424 . S
C1780 C1779 1.384 . S
C1780 H1798 0.928 . S
C1781 C1778 1.260 . S
C1781 C1779 1.479 . S
C1782 C1777 1.245 . S
C1782 C1778 1.477 . S
C1782 H1799 0.932 . S
C1783 U1766 2.882 . S
C1783 C1777 1.428 . S
C1783 O1786 1.301 . S
C1783 O1787 1.282 . S
O1784 U1766 2.441 . S
O1784 C1770 1.249 . S
O1785 U1766 2.420 . S
O1785 C1770 1.202 . S
O1786 U1766 2.455 . S
O1786 C1783 1.301 . S
O1787 U1766 2.449 . S
O1787 C1783 1.282 . S
H1788 C1761 0.931 . S
H1789 C1763 0.929 . S
H1790 C1764 0.930 . S
H1791 C1765 0.931 . S
H1792 C1772 0.932 . S
H1793 C1773 0.930 . S
H1794 C1774 0.929 . S
H1795 C1776 0.930 . S
H1796 C1778 0.932 . S
H1797 C1779 0.929 . S
H1798 C1780 0.928 . S
H1799 C1782 0.932 . S
C1800 C1801 1.264 . S
C1800 C1805 1.479 . S
C1800 C1810 1.465 . S
C1801 C1800 1.264 . S
C1801 C1803 1.339 . S
C1801 H1828 0.931 . S
C1802 C1803 1.395 . S
C1802 C1804 1.320 . S
C1803 C1801 1.339 . S
C1803 C1802 1.395 . S
C1803 H1829 0.929 . S
C1804 C1802 1.320 . S
C1804 C1805 1.405 . S
C1804 H1830 0.930 . S
C1805 C1800 1.479 . S
C1805 C1804 1.405 . S
C1805 H1831 0.931 . S
U1806 O1807 2.454 . S
U1806 O1808 2.458 . S
U1806 C1809 2.984 . S
U1806 C1810 2.847 . S
U1806 C1823 2.882 . S
U1806 O1824 2.441 . S
U1806 O1825 2.420 . S
U1806 O1826 2.455 . S
U1806 O1827 2.449 . S
O1807 U1806 2.454 . S
O1807 C1809 1.353 . S
O1808 U1806 2.458 . S
O1808 C1809 1.286 . S
C1809 U1806 2.984 . S
C1809 O1807 1.353 . S
C1809 O1808 1.286 . S
C1809 C1811 1.363 . S
C1810 C1800 1.465 . S
C1810 U1806 2.847 . S
C1810 O1824 1.249 . S
C1810 O1825 1.202 . S
C1811 C1809 1.363 . S
C1811 C1813 1.408 . S
C1811 C1816 1.342 . S
C1812 C1813 1.310 . S
C1812 C1815 1.461 . S
C1812 H1832 0.932 . S
C1813 C1811 1.408 . S
C1813 C1812 1.310 . S
C1813 H1833 0.930 . S
C1814 C1815 1.474 . S
C1814 C1816 1.285 . S
C1814 H1834 0.929 . S
C1815 C1812 1.461 . S
C1815 C1814 1.474 . S
C1816 C1811 1.342 . S
C1816 C1814 1.285 . S
C1816 H1835 0.930 . S
C1817 C1820 1.424 . S
C1817 C1822 1.245 . S
C1817 C1823 1.428 . S
C1818 C1821 1.260 . S
C1818 C1822 1.477 . S
C1818 H1836 0.932 . S
C1819 C1820 1.384 . S
C1819 C1821 1.479 . S
C1819 H1837 0.929 . S
C1820 C1817 1.424 . S
C1820 C1819 1.384 . S
C1820 H1838 0.928 . S
C1821 C1818 1.260 . S
C1821 C1819 1.479 . S
C1822 C1817 1.245 . S
C1822 C1818 1.477 . S
C1822 H1839 0.932 . S
C1823 U1806 2.882 . S
C1823 C1817 1.428 . S
C1823 O1826 1.301 . S
C1823 O1827 1.282 . S
O1824 U1806 2.441 . S
O1824 C1810 1.249 . S
O1825 U1806 2.420 . S
O1825 C1810 1.202 . S
O1826 U1806 2.455 . S
O1826 C1823 1.301 . S
O1827 U1806 2.449 . S
O1827 C1823 1.282 . S
H1828 C1801 0.931 . S
H1829 C1803 0.929 . S
H1830 C1804 0.930 . S
H1831 C1805 0.931 . S
H1832 C1812 0.932 . S
H1833 C1813 0.930 . S
H1834 C1814 0.929 . S
H1835 C1816 0.930 . S
H1836 C1818 0.932 . S
H1837 C1819 0.929 . S
H1838 C1820 0.928 . S
H1839 C1822 0.932 . S
C1840 C1841 1.264 . S
C1840 C1845 1.479 . S
C1840 C1850 1.465 . S
C1841 C1840 1.264 . S
C1841 C1843 1.339 . S
C1841 H1868 0.931 . S
C1842 C1843 1.395 . S
C1842 C1844 1.320 . S
C1843 C1841 1.339 . S
C1843 C1842 1.395 . S
C1843 H1869 0.929 . S
C1844 C1842 1.320 . S
C1844 C1845 1.405 . S
C1844 H1870 0.930 . S
C1845 C1840 1.479 . S
C1845 C1844 1.405 . S
C1845 H1871 0.931 . S
U1846 O1847 2.454 . S
U1846 O1848 2.458 . S
U1846 C1849 2.984 . S
U1846 C1850 2.847 . S
U1846 C1863 2.882 . S
U1846 O1864 2.441 . S
U1846 O1865 2.420 . S
U1846 O1866 2.455 . S
U1846 O1867 2.449 . S
O1847 U1846 2.454 . S
O1847 C1849 1.353 . S
O1848 U1846 2.458 . S
O1848 C1849 1.286 . S
C1849 U1846 2.984 . S
C1849 O1847 1.353 . S
C1849 O1848 1.286 . S
C1849 C1851 1.363 . S
C1850 C1840 1.465 . S
C1850 U1846 2.847 . S
C1850 O1864 1.249 . S
C1850 O1865 1.202 . S
C1851 C1849 1.363 . S
C1851 C1853 1.408 . S
C1851 C1856 1.342 . S
C1852 C1853 1.310 . S
C1852 C1855 1.461 . S
C1852 H1872 0.932 . S
C1853 C1851 1.408 . S
C1853 C1852 1.310 . S
C1853 H1873 0.930 . S
C1854 C1855 1.474 . S
C1854 C1856 1.285 . S
C1854 H1874 0.929 . S
C1855 C1852 1.461 . S
C1855 C1854 1.474 . S
C1856 C1851 1.342 . S
C1856 C1854 1.285 . S
C1856 H1875 0.930 . S
C1857 C1860 1.424 . S
C1857 C1862 1.245 . S
C1857 C1863 1.428 . S
C1858 C1861 1.260 . S
C1858 C1862 1.477 . S
C1858 H1876 0.932 . S
C1859 C1860 1.384 . S
C1859 C1861 1.479 . S
C1859 H1877 0.929 . S
C1860 C1857 1.424 . S
C1860 C1859 1.384 . S
C1860 H1878 0.928 . S
C1861 C1858 1.260 . S
C1861 C1859 1.479 . S
C1862 C1857 1.245 . S
C1862 C1858 1.477 . S
C1862 H1879 0.932 . S
C1863 U1846 2.882 . S
C1863 C1857 1.428 . S
C1863 O1866 1.301 . S
C1863 O1867 1.282 . S
O1864 U1846 2.441 . S
O1864 C1850 1.249 . S
O1865 U1846 2.420 . S
O1865 C1850 1.202 . S
O1866 U1846 2.455 . S
O1866 C1863 1.301 . S
O1867 U1846 2.449 . S
O1867 C1863 1.282 . S
H1868 C1841 0.931 . S
H1869 C1843 0.929 . S
H1870 C1844 0.930 . S
H1871 C1845 0.931 . S
H1872 C1852 0.932 . S
H1873 C1853 0.930 . S
H1874 C1854 0.929 . S
H1875 C1856 0.930 . S
H1876 C1858 0.932 . S
H1877 C1859 0.929 . S
H1878 C1860 0.928 . S
H1879 C1862 0.932 . S
C1880 C1881 1.264 . S
C1880 C1885 1.479 . S
C1880 C1890 1.465 . S
C1881 C1880 1.264 . S
C1881 C1883 1.339 . S
C1881 H1908 0.931 . S
C1882 C1883 1.395 . S
C1882 C1884 1.320 . S
C1883 C1881 1.339 . S
C1883 C1882 1.395 . S
C1883 H1909 0.929 . S
C1884 C1882 1.320 . S
C1884 C1885 1.405 . S
C1884 H1910 0.930 . S
C1885 C1880 1.479 . S
C1885 C1884 1.405 . S
C1885 H1911 0.931 . S
U1886 O1887 2.454 . S
U1886 O1888 2.458 . S
U1886 C1889 2.984 . S
U1886 C1890 2.847 . S
U1886 C1903 2.882 . S
U1886 O1904 2.441 . S
U1886 O1905 2.420 . S
U1886 O1906 2.455 . S
U1886 O1907 2.449 . S
O1887 U1886 2.454 . S
O1887 C1889 1.353 . S
O1888 U1886 2.458 . S
O1888 C1889 1.286 . S
C1889 U1886 2.984 . S
C1889 O1887 1.353 . S
C1889 O1888 1.286 . S
C1889 C1891 1.363 . S
C1890 C1880 1.465 . S
C1890 U1886 2.847 . S
C1890 O1904 1.249 . S
C1890 O1905 1.202 . S
C1891 C1889 1.363 . S
C1891 C1893 1.408 . S
C1891 C1896 1.342 . S
C1892 C1893 1.310 . S
C1892 C1895 1.461 . S
C1892 H1912 0.932 . S
C1893 C1891 1.408 . S
C1893 C1892 1.310 . S
C1893 H1913 0.930 . S
C1894 C1895 1.474 . S
C1894 C1896 1.285 . S
C1894 H1914 0.929 . S
C1895 C1892 1.461 . S
C1895 C1894 1.474 . S
C1896 C1891 1.342 . S
C1896 C1894 1.285 . S
C1896 H1915 0.930 . S
C1897 C1900 1.424 . S
C1897 C1902 1.245 . S
C1897 C1903 1.428 . S
C1898 C1901 1.260 . S
C1898 C1902 1.477 . S
C1898 H1916 0.932 . S
C1899 C1900 1.384 . S
C1899 C1901 1.479 . S
C1899 H1917 0.929 . S
C1900 C1897 1.424 . S
C1900 C1899 1.384 . S
C1900 H1918 0.928 . S
C1901 C1898 1.260 . S
C1901 C1899 1.479 . S
C1902 C1897 1.245 . S
C1902 C1898 1.477 . S
C1902 H1919 0.932 . S
C1903 U1886 2.882 . S
C1903 C1897 1.428 . S
C1903 O1906 1.301 . S
C1903 O1907 1.282 . S
O1904 U1886 2.441 . S
O1904 C1890 1.249 . S
O1905 U1886 2.420 . S
O1905 C1890 1.202 . S
O1906 U1886 2.455 . S
O1906 C1903 1.301 . S
O1907 U1886 2.449 . S
O1907 C1903 1.282 . S
H1908 C1881 0.931 . S
H1909 C1883 0.929 . S
H1910 C1884 0.930 . S
H1911 C1885 0.931 . S
H1912 C1892 0.932 . S
H1913 C1893 0.930 . S
H1914 C1894 0.929 . S
H1915 C1896 0.930 . S
H1916 C1898 0.932 . S
H1917 C1899 0.929 . S
H1918 C1900 0.928 . S
H1919 C1902 0.932 . S
H1920 C1923 0.929 . S
H1921 C1926 0.929 . S
H1922 C1928 0.930 . S
C1923 H1920 0.929 . S
C1923 C1924 1.398 . S
C1923 C1925 1.396 . S
C1924 C1923 1.398 . S
C1924 C1928 1.407 . S
C1925 C1923 1.396 . S
C1925 C1926 1.394 . S
C1926 H1921 0.929 . S
C1926 C1925 1.394 . S
C1926 C1927 1.382 . S
C1927 C1926 1.382 . S
C1927 C1928 1.392 . S
C1927 N1929 1.420 . S
C1928 H1922 0.930 . S
C1928 C1924 1.407 . S
C1928 C1927 1.392 . S
N1929 C1927 1.420 . S
N1929 C1930 1.244 . S
C1930 N1929 1.244 . S
H1931 C1934 0.929 . S
H1932 C1937 0.929 . S
H1933 C1939 0.930 . S
C1934 H1931 0.929 . S
C1934 C1935 1.398 . S
C1934 C1936 1.396 . S
C1935 C1934 1.398 . S
C1935 C1939 1.407 . S
C1936 C1934 1.396 . S
C1936 C1937 1.394 . S
C1937 H1932 0.929 . S
C1937 C1936 1.394 . S
C1937 C1938 1.382 . S
C1938 C1937 1.382 . S
C1938 C1939 1.392 . S
C1938 N1940 1.420 . S
C1939 H1933 0.930 . S
C1939 C1935 1.407 . S
C1939 C1938 1.392 . S
N1940 C1938 1.420 . S
N1940 C1941 1.244 . S
C1941 N1940 1.244 . S
H1942 C1945 0.929 . S
H1943 C1948 0.929 . S
H1944 C1950 0.930 . S
C1945 H1942 0.929 . S
C1945 C1946 1.398 . S
C1945 C1947 1.396 . S
C1946 C1945 1.398 . S
C1946 C1950 1.407 . S
C1947 C1945 1.396 . S
C1947 C1948 1.394 . S
C1948 H1943 0.929 . S
C1948 C1947 1.394 . S
C1948 C1949 1.382 . S
C1949 C1948 1.382 . S
C1949 C1950 1.392 . S
C1949 N1951 1.420 . S
C1950 H1944 0.930 . S
C1950 C1946 1.407 . S
C1950 C1949 1.392 . S
N1951 C1949 1.420 . S
N1951 C1952 1.244 . S
C1952 N1951 1.244 . S
H1953 C1956 0.929 . S
H1954 C1959 0.929 . S
H1955 C1961 0.930 . S
C1956 H1953 0.929 . S
C1956 C1957 1.398 . S
C1956 C1958 1.396 . S
C1957 C1956 1.398 . S
C1957 C1961 1.407 . S
C1958 C1956 1.396 . S
C1958 C1959 1.394 . S
C1959 H1954 0.929 . S
C1959 C1958 1.394 . S
C1959 C1960 1.382 . S
C1960 C1959 1.382 . S
C1960 C1961 1.392 . S
C1960 N1962 1.420 . S
C1961 H1955 0.930 . S
C1961 C1957 1.407 . S
C1961 C1960 1.392 . S
N1962 C1960 1.420 . S
N1962 C1963 1.244 . S
C1963 N1962 1.244 . S
H1964 C1967 0.929 . S
H1965 C1970 0.929 . S
H1966 C1972 0.930 . S
C1967 H1964 0.929 . S
C1967 C1968 1.398 . S
C1967 C1969 1.396 . S
C1968 C1967 1.398 . S
C1968 C1972 1.407 . S
C1969 C1967 1.396 . S
C1969 C1970 1.394 . S
C1970 H1965 0.929 . S
C1970 C1969 1.394 . S
C1970 C1971 1.382 . S
C1971 C1970 1.382 . S
C1971 C1972 1.392 . S
C1971 N1973 1.420 . S
C1972 H1966 0.930 . S
C1972 C1968 1.407 . S
C1972 C1971 1.392 . S
N1973 C1971 1.420 . S
N1973 C1974 1.244 . S
C1974 N1973 1.244 . S
H1975 C1978 0.929 . S
H1976 C1981 0.929 . S
H1977 C1983 0.930 . S
C1978 H1975 0.929 . S
C1978 C1979 1.398 . S
C1978 C1980 1.396 . S
C1979 C1978 1.398 . S
C1979 C1983 1.407 . S
C1980 C1978 1.396 . S
C1980 C1981 1.394 . S
C1981 H1976 0.929 . S
C1981 C1980 1.394 . S
C1981 C1982 1.382 . S
C1982 C1981 1.382 . S
C1982 C1983 1.392 . S
C1982 N1984 1.420 . S
C1983 H1977 0.930 . S
C1983 C1979 1.407 . S
C1983 C1982 1.392 . S
N1984 C1982 1.420 . S
N1984 C1985 1.244 . S
C1985 N1984 1.244 . S
H1986 C1989 0.929 . S
H1987 C1992 0.929 . S
H1988 C1994 0.930 . S
C1989 H1986 0.929 . S
C1989 C1990 1.398 . S
C1989 C1991 1.396 . S
C1990 C1989 1.398 . S
C1990 C1994 1.407 . S
C1991 C1989 1.396 . S
C1991 C1992 1.394 . S
C1992 H1987 0.929 . S
C1992 C1991 1.394 . S
C1992 C1993 1.382 . S
C1993 C1992 1.382 . S
C1993 C1994 1.392 . S
C1993 N1995 1.420 . S
C1994 H1988 0.930 . S
C1994 C1990 1.407 . S
C1994 C1993 1.392 . S
N1995 C1993 1.420 . S
N1995 C1996 1.244 . S
C1996 N1995 1.244 . S
H1997 C2000 0.929 . S
H1998 C2003 0.929 . S
H1999 C2005 0.930 . S
C2000 H1997 0.929 . S
C2000 C2001 1.398 . S
C2000 C2002 1.396 . S
C2001 C2000 1.398 . S
C2001 C2005 1.407 . S
C2002 C2000 1.396 . S
C2002 C2003 1.394 . S
C2003 H1998 0.929 . S
C2003 C2002 1.394 . S
C2003 C2004 1.382 . S
C2004 C2003 1.382 . S
C2004 C2005 1.392 . S
C2004 N2006 1.420 . S
C2005 H1999 0.930 . S
C2005 C2001 1.407 . S
C2005 C2004 1.392 . S
N2006 C2004 1.420 . S
N2006 C2007 1.244 . S
C2007 N2006 1.244 . S
H2008 C2011 0.929 . S
H2009 C2014 0.929 . S
H2010 C2016 0.930 . S
C2011 H2008 0.929 . S
C2011 C2012 1.398 . S
C2011 C2013 1.396 . S
C2012 C2011 1.398 . S
C2012 C2016 1.407 . S
C2013 C2011 1.396 . S
C2013 C2014 1.394 . S
C2014 H2009 0.929 . S
C2014 C2013 1.394 . S
C2014 C2015 1.382 . S
C2015 C2014 1.382 . S
C2015 C2016 1.392 . S
C2015 N2017 1.420 . S
C2016 H2010 0.930 . S
C2016 C2012 1.407 . S
C2016 C2015 1.392 . S
N2017 C2015 1.420 . S
N2017 C2018 1.244 . S
C2018 N2017 1.244 . S
H2019 C2022 0.929 . S
H2020 C2025 0.929 . S
H2021 C2027 0.930 . S
C2022 H2019 0.929 . S
C2022 C2023 1.398 . S
C2022 C2024 1.396 . S
C2023 C2022 1.398 . S
C2023 C2027 1.407 . S
C2024 C2022 1.396 . S
C2024 C2025 1.394 . S
C2025 H2020 0.929 . S
C2025 C2024 1.394 . S
C2025 C2026 1.382 . S
C2026 C2025 1.382 . S
C2026 C2027 1.392 . S
C2026 N2028 1.420 . S
C2027 H2021 0.930 . S
C2027 C2023 1.407 . S
C2027 C2026 1.392 . S
N2028 C2026 1.420 . S
N2028 C2029 1.244 . S
C2029 N2028 1.244 . S
H2030 C2033 0.929 . S
H2031 C2036 0.929 . S
H2032 C2038 0.930 . S
C2033 H2030 0.929 . S
C2033 C2034 1.398 . S
C2033 C2035 1.396 . S
C2034 C2033 1.398 . S
C2034 C2038 1.407 . S
C2035 C2033 1.396 . S
C2035 C2036 1.394 . S
C2036 H2031 0.929 . S
C2036 C2035 1.394 . S
C2036 C2037 1.382 . S
C2037 C2036 1.382 . S
C2037 C2038 1.392 . S
C2037 N2039 1.420 . S
C2038 H2032 0.930 . S
C2038 C2034 1.407 . S
C2038 C2037 1.392 . S
N2039 C2037 1.420 . S
N2039 C2040 1.244 . S
C2040 N2039 1.244 . S
H2041 C2044 0.929 . S
H2042 C2047 0.929 . S
H2043 C2049 0.930 . S
C2044 H2041 0.929 . S
C2044 C2045 1.398 . S
C2044 C2046 1.396 . S
C2045 C2044 1.398 . S
C2045 C2049 1.407 . S
C2046 C2044 1.396 . S
C2046 C2047 1.394 . S
C2047 H2042 0.929 . S
C2047 C2046 1.394 . S
C2047 C2048 1.382 . S
C2048 C2047 1.382 . S
C2048 C2049 1.392 . S
C2048 N2050 1.420 . S
C2049 H2043 0.930 . S
C2049 C2045 1.407 . S
C2049 C2048 1.392 . S
N2050 C2048 1.420 . S
N2050 C2051 1.244 . S
C2051 N2050 1.244 . S
H2052 C2055 0.929 . S
H2053 C2058 0.929 . S
H2054 C2060 0.930 . S
C2055 H2052 0.929 . S
C2055 C2056 1.398 . S
C2055 C2057 1.396 . S
C2056 C2055 1.398 . S
C2056 C2060 1.407 . S
C2057 C2055 1.396 . S
C2057 C2058 1.394 . S
C2058 H2053 0.929 . S
C2058 C2057 1.394 . S
C2058 C2059 1.382 . S
C2059 C2058 1.382 . S
C2059 C2060 1.392 . S
C2059 N2061 1.420 . S
C2060 H2054 0.930 . S
C2060 C2056 1.407 . S
C2060 C2059 1.392 . S
N2061 C2059 1.420 . S
N2061 C2062 1.244 1_455 S
C2062 N2061 1.244 1_655 S
H2063 C2066 0.929 . S
H2064 C2069 0.929 . S
H2065 C2071 0.930 . S
C2066 H2063 0.929 . S
C2066 C2067 1.398 . S
C2066 C2068 1.396 . S
C2067 C2066 1.398 . S
C2067 C2071 1.407 . S
C2068 C2066 1.396 . S
C2068 C2069 1.394 . S
C2069 H2064 0.929 . S
C2069 C2068 1.394 . S
C2069 C2070 1.382 . S
C2070 C2069 1.382 . S
C2070 C2071 1.392 . S
C2070 N2072 1.420 . S
C2071 H2065 0.930 . S
C2071 C2067 1.407 . S
C2071 C2070 1.392 . S
N2072 C2070 1.420 . S
N2072 C2073 1.244 . S
C2073 N2072 1.244 . S
H2074 C2077 0.929 . S
H2075 C2080 0.929 . S
H2076 C2082 0.930 . S
C2077 H2074 0.929 . S
C2077 C2078 1.398 . S
C2077 C2079 1.396 . S
C2078 C2077 1.398 . S
C2078 C2082 1.407 . S
C2079 C2077 1.396 . S
C2079 C2080 1.394 . S
C2080 H2075 0.929 . S
C2080 C2079 1.394 . S
C2080 C2081 1.382 . S
C2081 C2080 1.382 . S
C2081 C2082 1.392 . S
C2081 N2083 1.420 . S
C2082 H2076 0.930 . S
C2082 C2078 1.407 . S
C2082 C2081 1.392 . S
N2083 C2081 1.420 . S
N2083 C2084 1.244 . S
C2084 N2083 1.244 . S
H2085 C2088 0.929 . S
H2086 C2091 0.929 . S
H2087 C2093 0.930 . S
C2088 H2085 0.929 . S
C2088 C2089 1.398 . S
C2088 C2090 1.396 . S
C2089 C2088 1.398 . S
C2089 C2093 1.407 . S
C2090 C2088 1.396 . S
C2090 C2091 1.394 . S
C2091 H2086 0.929 . S
C2091 C2090 1.394 . S
C2091 C2092 1.382 . S
C2092 C2091 1.382 . S
C2092 C2093 1.392 . S
C2092 N2094 1.420 . S
C2093 H2087 0.930 . S
C2093 C2089 1.407 . S
C2093 C2092 1.392 . S
N2094 C2092 1.420 . S
N2094 C2095 1.244 . S
C2095 N2094 1.244 . S
H2096 C2099 0.929 . S
H2097 C2102 0.929 . S
H2098 C2104 0.930 . S
C2099 H2096 0.929 . S
C2099 C2100 1.398 . S
C2099 C2101 1.396 . S
C2100 C2099 1.398 . S
C2100 C2104 1.407 . S
C2101 C2099 1.396 . S
C2101 C2102 1.394 . S
C2102 H2097 0.929 . S
C2102 C2101 1.394 . S
C2102 C2103 1.382 . S
C2103 C2102 1.382 . S
C2103 C2104 1.392 . S
C2103 N2105 1.420 . S
C2104 H2098 0.930 . S
C2104 C2100 1.407 . S
C2104 C2103 1.392 . S
N2105 C2103 1.420 . S
N2105 C2106 1.244 . S
C2106 N2105 1.244 . S
H2107 C2110 0.929 . S
H2108 C2113 0.929 . S
H2109 C2115 0.930 . S
C2110 H2107 0.929 . S
C2110 C2111 1.398 . S
C2110 C2112 1.396 . S
C2111 C2110 1.398 . S
C2111 C2115 1.407 . S
C2112 C2110 1.396 . S
C2112 C2113 1.394 1_655 S
C2113 H2108 0.929 . S
C2113 C2112 1.394 1_455 S
C2113 C2114 1.382 . S
C2114 C2113 1.382 . S
C2114 C2115 1.392 1_455 S
C2114 N2116 1.420 . S
C2115 H2109 0.930 . S
C2115 C2111 1.407 . S
C2115 C2114 1.392 1_655 S
N2116 C2114 1.420 . S
N2116 C2117 1.244 . S
C2117 N2116 1.244 . S
H2118 C2121 0.929 . S
H2119 C2124 0.929 . S
H2120 C2126 0.930 . S
C2121 H2118 0.929 . S
C2121 C2122 1.398 . S
C2121 C2123 1.396 . S
C2122 C2121 1.398 . S
C2122 C2126 1.407 . S
C2123 C2121 1.396 . S
C2123 C2124 1.394 . S
C2124 H2119 0.929 . S
C2124 C2123 1.394 . S
C2124 C2125 1.382 . S
C2125 C2124 1.382 . S
C2125 C2126 1.392 . S
C2125 N2127 1.420 . S
C2126 H2120 0.930 . S
C2126 C2122 1.407 . S
C2126 C2125 1.392 . S
N2127 C2125 1.420 . S
N2127 C2128 1.244 . S
C2128 N2127 1.244 . S
H2129 C2132 0.929 . S
H2130 C2135 0.929 . S
H2131 C2137 0.930 . S
C2132 H2129 0.929 . S
C2132 C2133 1.398 . S
C2132 C2134 1.396 . S
C2133 C2132 1.398 . S
C2133 C2137 1.407 . S
C2134 C2132 1.396 . S
C2134 C2135 1.394 . S
C2135 H2130 0.929 . S
C2135 C2134 1.394 . S
C2135 C2136 1.382 . S
C2136 C2135 1.382 . S
C2136 C2137 1.392 . S
C2136 N2138 1.420 . S
C2137 H2131 0.930 . S
C2137 C2133 1.407 . S
C2137 C2136 1.392 . S
N2138 C2136 1.420 . S
N2138 C2139 1.244 . S
C2139 N2138 1.244 . S
H2140 C2143 0.929 . S
H2141 C2146 0.929 . S
H2142 C2148 0.930 . S
C2143 H2140 0.929 . S
C2143 C2144 1.398 . S
C2143 C2145 1.396 . S
C2144 C2143 1.398 . S
C2144 C2148 1.407 . S
C2145 C2143 1.396 . S
C2145 C2146 1.394 . S
C2146 H2141 0.929 . S
C2146 C2145 1.394 . S
C2146 C2147 1.382 . S
C2147 C2146 1.382 . S
C2147 C2148 1.392 . S
C2147 N2149 1.420 . S
C2148 H2142 0.930 . S
C2148 C2144 1.407 . S
C2148 C2147 1.392 . S
N2149 C2147 1.420 . S
N2149 C2150 1.244 . S
C2150 N2149 1.244 . S
H2151 C2154 0.929 . S
H2152 C2157 0.929 . S
H2153 C2159 0.930 . S
C2154 H2151 0.929 . S
C2154 C2155 1.398 . S
C2154 C2156 1.396 . S
C2155 C2154 1.398 . S
C2155 C2159 1.407 . S
C2156 C2154 1.396 . S
C2156 C2157 1.394 . S
C2157 H2152 0.929 . S
C2157 C2156 1.394 . S
C2157 C2158 1.382 . S
C2158 C2157 1.382 . S
C2158 C2159 1.392 . S
C2158 N2160 1.420 . S
C2159 H2153 0.930 . S
C2159 C2155 1.407 . S
C2159 C2158 1.392 . S
N2160 C2158 1.420 . S
N2160 C2161 1.244 . S
C2161 N2160 1.244 . S
H2162 C2165 0.929 . S
H2163 C2168 0.929 . S
H2164 C2170 0.930 . S
C2165 H2162 0.929 . S
C2165 C2166 1.398 . S
C2165 C2167 1.396 . S
C2166 C2165 1.398 . S
C2166 C2170 1.407 . S
C2167 C2165 1.396 . S
C2167 C2168 1.394 . S
C2168 H2163 0.929 . S
C2168 C2167 1.394 . S
C2168 C2169 1.382 . S
C2169 C2168 1.382 . S
C2169 C2170 1.392 . S
C2169 N2171 1.420 . S
C2170 H2164 0.930 . S
C2170 C2166 1.407 . S
C2170 C2169 1.392 . S
N2171 C2169 1.420 . S
N2171 C2172 1.244 . S
C2172 N2171 1.244 . S
H2173 C2176 0.929 . S
H2174 C2179 0.929 . S
H2175 C2181 0.930 . S
C2176 H2173 0.929 . S
C2176 C2177 1.398 . S
C2176 C2178 1.396 . S
C2177 C2176 1.398 . S
C2177 C2181 1.407 . S
C2178 C2176 1.396 . S
C2178 C2179 1.394 . S
C2179 H2174 0.929 . S
C2179 C2178 1.394 . S
C2179 C2180 1.382 . S
C2180 C2179 1.382 . S
C2180 C2181 1.392 . S
C2180 N2182 1.420 . S
C2181 H2175 0.930 . S
C2181 C2177 1.407 . S
C2181 C2180 1.392 . S
N2182 C2180 1.420 . S
N2182 C2183 1.244 . S
C2183 N2182 1.244 . S
H2184 C2187 0.929 . S
H2185 C2190 0.929 . S
H2186 C2192 0.930 . S
C2187 H2184 0.929 . S
C2187 C2188 1.398 . S
C2187 C2189 1.396 . S
C2188 C2187 1.398 . S
C2188 C2192 1.407 . S
C2189 C2187 1.396 . S
C2189 C2190 1.394 . S
C2190 H2185 0.929 . S
C2190 C2189 1.394 . S
C2190 C2191 1.382 . S
C2191 C2190 1.382 . S
C2191 C2192 1.392 . S
C2191 N2193 1.420 . S
C2192 H2186 0.930 . S
C2192 C2188 1.407 . S
C2192 C2191 1.392 . S
N2193 C2191 1.420 . S
N2193 C2194 1.244 . S
C2194 N2193 1.244 . S
H2195 C2198 0.929 . S
H2196 C2201 0.929 . S
H2197 C2203 0.930 . S
C2198 H2195 0.929 . S
C2198 C2199 1.398 . S
C2198 C2200 1.396 . S
C2199 C2198 1.398 . S
C2199 C2203 1.407 . S
C2200 C2198 1.396 . S
C2200 C2201 1.394 . S
C2201 H2196 0.929 . S
C2201 C2200 1.394 . S
C2201 C2202 1.382 . S
C2202 C2201 1.382 . S
C2202 C2203 1.392 . S
C2202 N2204 1.420 . S
C2203 H2197 0.930 . S
C2203 C2199 1.407 . S
C2203 C2202 1.392 . S
N2204 C2202 1.420 . S
N2204 C2205 1.244 . S
C2205 N2204 1.244 . S
H2206 C2209 0.929 . S
H2207 C2212 0.929 . S
H2208 C2214 0.930 . S
C2209 H2206 0.929 . S
C2209 C2210 1.398 . S
C2209 C2211 1.396 . S
C2210 C2209 1.398 . S
C2210 C2214 1.407 . S
C2211 C2209 1.396 . S
C2211 C2212 1.394 . S
C2212 H2207 0.929 . S
C2212 C2211 1.394 . S
C2212 C2213 1.382 . S
C2213 C2212 1.382 . S
C2213 C2214 1.392 . S
C2213 N2215 1.420 . S
C2214 H2208 0.930 . S
C2214 C2210 1.407 . S
C2214 C2213 1.392 . S
N2215 C2213 1.420 . S
N2215 C2216 1.244 . S
C2216 N2215 1.244 . S
H2217 C2220 0.929 . S
H2218 C2223 0.929 . S
H2219 C2225 0.930 . S
C2220 H2217 0.929 . S
C2220 C2221 1.398 . S
C2220 C2222 1.396 . S
C2221 C2220 1.398 . S
C2221 C2225 1.407 . S
C2222 C2220 1.396 . S
C2222 C2223 1.394 . S
C2223 H2218 0.929 . S
C2223 C2222 1.394 . S
C2223 C2224 1.382 . S
C2224 C2223 1.382 . S
C2224 C2225 1.392 . S
C2224 N2226 1.420 . S
C2225 H2219 0.930 . S
C2225 C2221 1.407 . S
C2225 C2224 1.392 . S
N2226 C2224 1.420 . S
N2226 C2227 1.244 . S
C2227 N2226 1.244 . S
H2228 C2231 0.929 . S
H2229 C2234 0.929 . S
H2230 C2236 0.930 . S
C2231 H2228 0.929 . S
C2231 C2232 1.398 . S
C2231 C2233 1.396 . S
C2232 C2231 1.398 . S
C2232 C2236 1.407 . S
C2233 C2231 1.396 . S
C2233 C2234 1.394 . S
C2234 H2229 0.929 . S
C2234 C2233 1.394 . S
C2234 C2235 1.382 . S
C2235 C2234 1.382 . S
C2235 C2236 1.392 . S
C2235 N2237 1.420 . S
C2236 H2230 0.930 . S
C2236 C2232 1.407 . S
C2236 C2235 1.392 . S
N2237 C2235 1.420 . S
N2237 C2238 1.244 . S
C2238 N2237 1.244 . S
H2239 C2242 0.929 . S
H2240 C2245 0.929 . S
H2241 C2247 0.930 . S
C2242 H2239 0.929 . S
C2242 C2243 1.398 . S
C2242 C2244 1.396 . S
C2243 C2242 1.398 . S
C2243 C2247 1.407 . S
C2244 C2242 1.396 . S
C2244 C2245 1.394 . S
C2245 H2240 0.929 . S
C2245 C2244 1.394 . S
C2245 C2246 1.382 . S
C2246 C2245 1.382 . S
C2246 C2247 1.392 . S
C2246 N2248 1.420 . S
C2247 H2241 0.930 . S
C2247 C2243 1.407 . S
C2247 C2246 1.392 . S
N2248 C2246 1.420 . S
N2248 C2249 1.244 . S
C2249 N2248 1.244 . S
H2250 C2253 0.929 . S
H2251 C2256 0.929 . S
H2252 C2258 0.930 . S
C2253 H2250 0.929 . S
C2253 C2254 1.398 . S
C2253 C2255 1.396 . S
C2254 C2253 1.398 . S
C2254 C2258 1.407 . S
C2255 C2253 1.396 . S
C2255 C2256 1.394 . S
C2256 H2251 0.929 . S
C2256 C2255 1.394 . S
C2256 C2257 1.382 . S
C2257 C2256 1.382 . S
C2257 C2258 1.392 . S
C2257 N2259 1.420 . S
C2258 H2252 0.930 . S
C2258 C2254 1.407 . S
C2258 C2257 1.392 . S
N2259 C2257 1.420 . S
N2259 C2260 1.244 . S
C2260 N2259 1.244 . S
H2261 C2264 0.929 . S
H2262 C2267 0.929 . S
H2263 C2269 0.930 . S
C2264 H2261 0.929 . S
C2264 C2265 1.398 . S
C2264 C2266 1.396 . S
C2265 C2264 1.398 . S
C2265 C2269 1.407 . S
C2266 C2264 1.396 . S
C2266 C2267 1.394 . S
C2267 H2262 0.929 . S
C2267 C2266 1.394 . S
C2267 C2268 1.382 . S
C2268 C2267 1.382 . S
C2268 C2269 1.392 . S
C2268 N2270 1.420 . S
C2269 H2263 0.930 . S
C2269 C2265 1.407 . S
C2269 C2268 1.392 . S
N2270 C2268 1.420 . S
N2270 C2271 1.244 . S
C2271 N2270 1.244 . S
H2272 C2275 0.929 . S
H2273 C2278 0.929 . S
H2274 C2280 0.930 . S
C2275 H2272 0.929 . S
C2275 C2276 1.398 . S
C2275 C2277 1.396 . S
C2276 C2275 1.398 . S
C2276 C2280 1.407 . S
C2277 C2275 1.396 . S
C2277 C2278 1.394 . S
C2278 H2273 0.929 . S
C2278 C2277 1.394 . S
C2278 C2279 1.382 . S
C2279 C2278 1.382 . S
C2279 C2280 1.392 . S
C2279 N2281 1.420 . S
C2280 H2274 0.930 . S
C2280 C2276 1.407 . S
C2280 C2279 1.392 . S
N2281 C2279 1.420 . S
N2281 C2282 1.244 . S
C2282 N2281 1.244 . S
H2283 C2286 0.929 . S
H2284 C2289 0.929 . S
H2285 C2291 0.930 . S
C2286 H2283 0.929 . S
C2286 C2287 1.398 . S
C2286 C2288 1.396 . S
C2287 C2286 1.398 . S
C2287 C2291 1.407 . S
C2288 C2286 1.396 . S
C2288 C2289 1.394 1_655 S
C2289 H2284 0.929 . S
C2289 C2288 1.394 1_455 S
C2289 C2290 1.382 . S
C2290 C2289 1.382 . S
C2290 C2291 1.392 1_455 S
C2290 N2292 1.420 . S
C2291 H2285 0.930 . S
C2291 C2287 1.407 . S
C2291 C2290 1.392 1_655 S
N2292 C2290 1.420 . S
N2292 C2293 1.244 . S
C2293 N2292 1.244 . S
H2294 C2297 0.929 . S
H2295 C2300 0.929 . S
H2296 C2302 0.930 . S
C2297 H2294 0.929 . S
C2297 C2298 1.398 . S
C2297 C2299 1.396 . S
C2298 C2297 1.398 . S
C2298 C2302 1.407 . S
C2299 C2297 1.396 . S
C2299 C2300 1.394 . S
C2300 H2295 0.929 . S
C2300 C2299 1.394 . S
C2300 C2301 1.382 . S
C2301 C2300 1.382 . S
C2301 C2302 1.392 . S
C2301 N2303 1.420 . S
C2302 H2296 0.930 . S
C2302 C2298 1.407 . S
C2302 C2301 1.392 . S
N2303 C2301 1.420 . S
N2303 C2304 1.244 . S
C2304 N2303 1.244 . S
H2305 C2308 0.929 . S
H2306 C2311 0.929 . S
H2307 C2313 0.930 . S
C2308 H2305 0.929 . S
C2308 C2309 1.398 . S
C2308 C2310 1.396 . S
C2309 C2308 1.398 . S
C2309 C2313 1.407 . S
C2310 C2308 1.396 . S
C2310 C2311 1.394 . S
C2311 H2306 0.929 . S
C2311 C2310 1.394 . S
C2311 C2312 1.382 . S
C2312 C2311 1.382 . S
C2312 C2313 1.392 . S
C2312 N2314 1.420 . S
C2313 H2307 0.930 . S
C2313 C2309 1.407 . S
C2313 C2312 1.392 . S
N2314 C2312 1.420 . S
N2314 C2315 1.244 . S
C2315 N2314 1.244 . S
H2316 C2319 0.929 . S
H2317 C2322 0.929 . S
H2318 C2324 0.930 . S
C2319 H2316 0.929 . S
C2319 C2320 1.398 . S
C2319 C2321 1.396 . S
C2320 C2319 1.398 . S
C2320 C2324 1.407 . S
C2321 C2319 1.396 . S
C2321 C2322 1.394 . S
C2322 H2317 0.929 . S
C2322 C2321 1.394 . S
C2322 C2323 1.382 . S
C2323 C2322 1.382 . S
C2323 C2324 1.392 . S
C2323 N2325 1.420 . S
C2324 H2318 0.930 . S
C2324 C2320 1.407 . S
C2324 C2323 1.392 . S
N2325 C2323 1.420 . S
N2325 C2326 1.244 . S
C2326 N2325 1.244 . S
H2327 C2330 0.929 . S
H2328 C2333 0.929 . S
H2329 C2335 0.930 . S
C2330 H2327 0.929 . S
C2330 C2331 1.398 . S
C2330 C2332 1.396 . S
C2331 C2330 1.398 . S
C2331 C2335 1.407 . S
C2332 C2330 1.396 . S
C2332 C2333 1.394 . S
C2333 H2328 0.929 . S
C2333 C2332 1.394 . S
C2333 C2334 1.382 . S
C2334 C2333 1.382 . S
C2334 C2335 1.392 . S
C2334 N2336 1.420 . S
C2335 H2329 0.930 . S
C2335 C2331 1.407 . S
C2335 C2334 1.392 . S
N2336 C2334 1.420 . S
N2336 C2337 1.244 . S
C2337 N2336 1.244 . S
H2338 C2341 0.929 . S
H2339 C2344 0.929 . S
H2340 C2346 0.930 . S
C2341 H2338 0.929 . S
C2341 C2342 1.398 . S
C2341 C2343 1.396 . S
C2342 C2341 1.398 . S
C2342 C2346 1.407 . S
C2343 C2341 1.396 . S
C2343 C2344 1.394 1_455 S
C2344 H2339 0.929 . S
C2344 C2343 1.394 1_655 S
C2344 C2345 1.382 . S
C2345 C2344 1.382 . S
C2345 C2346 1.392 1_655 S
C2345 N2347 1.420 . S
C2346 H2340 0.930 . S
C2346 C2342 1.407 . S
C2346 C2345 1.392 1_455 S
N2347 C2345 1.420 . S
N2347 C2348 1.244 . S
C2348 N2347 1.244 . S
H2349 C2352 0.929 . S
H2350 C2355 0.929 . S
H2351 C2357 0.930 . S
C2352 H2349 0.929 . S
C2352 C2353 1.398 . S
C2352 C2354 1.396 . S
C2353 C2352 1.398 . S
C2353 C2357 1.407 . S
C2354 C2352 1.396 . S
C2354 C2355 1.394 . S
C2355 H2350 0.929 . S
C2355 C2354 1.394 . S
C2355 C2356 1.382 . S
C2356 C2355 1.382 . S
C2356 C2357 1.392 . S
C2356 N2358 1.420 . S
C2357 H2351 0.930 . S
C2357 C2353 1.407 . S
C2357 C2356 1.392 . S
N2358 C2356 1.420 . S
N2358 C2359 1.244 . S
C2359 N2358 1.244 . S
H2360 C2363 0.929 . S
H2361 C2366 0.929 . S
H2362 C2368 0.930 . S
C2363 H2360 0.929 . S
C2363 C2364 1.398 . S
C2363 C2365 1.396 . S
C2364 C2363 1.398 . S
C2364 C2368 1.407 . S
C2365 C2363 1.396 . S
C2365 C2366 1.394 . S
C2366 H2361 0.929 . S
C2366 C2365 1.394 . S
C2366 C2367 1.382 . S
C2367 C2366 1.382 . S
C2367 C2368 1.392 . S
C2367 N2369 1.420 . S
C2368 H2362 0.930 . S
C2368 C2364 1.407 . S
C2368 C2367 1.392 . S
N2369 C2367 1.420 . S
N2369 C2370 1.244 . S
C2370 N2369 1.244 . S
H2371 C2374 0.929 . S
H2372 C2377 0.929 . S
H2373 C2379 0.930 . S
C2374 H2371 0.929 . S
C2374 C2375 1.398 . S
C2374 C2376 1.396 . S
C2375 C2374 1.398 . S
C2375 C2379 1.407 . S
C2376 C2374 1.396 . S
C2376 C2377 1.394 . S
C2377 H2372 0.929 . S
C2377 C2376 1.394 . S
C2377 C2378 1.382 . S
C2378 C2377 1.382 . S
C2378 C2379 1.392 . S
C2378 N2380 1.420 . S
C2379 H2373 0.930 . S
C2379 C2375 1.407 . S
C2379 C2378 1.392 . S
N2380 C2378 1.420 . S
N2380 C2381 1.244 . S
C2381 N2380 1.244 . S
H2382 C2385 0.929 . S
H2383 C2388 0.929 . S
H2384 C2390 0.930 . S
C2385 H2382 0.929 . S
C2385 C2386 1.398 . S
C2385 C2387 1.396 . S
C2386 C2385 1.398 . S
C2386 C2390 1.407 . S
C2387 C2385 1.396 . S
C2387 C2388 1.394 . S
C2388 H2383 0.929 . S
C2388 C2387 1.394 . S
C2388 C2389 1.382 . S
C2389 C2388 1.382 . S
C2389 C2390 1.392 . S
C2389 N2391 1.420 . S
C2390 H2384 0.930 . S
C2390 C2386 1.407 . S
C2390 C2389 1.392 . S
N2391 C2389 1.420 . S
N2391 C2392 1.244 . S
C2392 N2391 1.244 . S
H2393 C2396 0.929 . S
H2394 C2399 0.929 . S
H2395 C2401 0.930 . S
C2396 H2393 0.929 . S
C2396 C2397 1.398 . S
C2396 C2398 1.396 . S
C2397 C2396 1.398 . S
C2397 C2401 1.407 . S
C2398 C2396 1.396 . S
C2398 C2399 1.394 . S
C2399 H2394 0.929 . S
C2399 C2398 1.394 . S
C2399 C2400 1.382 . S
C2400 C2399 1.382 . S
C2400 C2401 1.392 . S
C2400 N2402 1.420 . S
C2401 H2395 0.930 . S
C2401 C2397 1.407 . S
C2401 C2400 1.392 . S
N2402 C2400 1.420 . S
N2402 C2403 1.244 . S
C2403 N2402 1.244 . S
H2404 C2407 0.929 . S
H2405 C2410 0.929 . S
H2406 C2412 0.930 . S
C2407 H2404 0.929 . S
C2407 C2408 1.398 . S
C2407 C2409 1.396 . S
C2408 C2407 1.398 . S
C2408 C2412 1.407 . S
C2409 C2407 1.396 . S
C2409 C2410 1.394 . S
C2410 H2405 0.929 . S
C2410 C2409 1.394 . S
C2410 C2411 1.382 . S
C2411 C2410 1.382 . S
C2411 C2412 1.392 . S
C2411 N2413 1.420 . S
C2412 H2406 0.930 . S
C2412 C2408 1.407 . S
C2412 C2411 1.392 . S
N2413 C2411 1.420 . S
N2413 C2414 1.244 . S
C2414 N2413 1.244 . S
H2415 C2418 0.929 . S
H2416 C2421 0.929 . S
H2417 C2423 0.930 . S
C2418 H2415 0.929 . S
C2418 C2419 1.398 . S
C2418 C2420 1.396 . S
C2419 C2418 1.398 . S
C2419 C2423 1.407 . S
C2420 C2418 1.396 . S
C2420 C2421 1.394 . S
C2421 H2416 0.929 . S
C2421 C2420 1.394 . S
C2421 C2422 1.382 . S
C2422 C2421 1.382 . S
C2422 C2423 1.392 . S
C2422 N2424 1.420 . S
C2423 H2417 0.930 . S
C2423 C2419 1.407 . S
C2423 C2422 1.392 . S
N2424 C2422 1.420 . S
N2424 C2425 1.244 . S
C2425 N2424 1.244 . S
H2426 C2429 0.929 . S
H2427 C2432 0.929 . S
H2428 C2434 0.930 . S
C2429 H2426 0.929 . S
C2429 C2430 1.398 . S
C2429 C2431 1.396 . S
C2430 C2429 1.398 . S
C2430 C2434 1.407 . S
C2431 C2429 1.396 . S
C2431 C2432 1.394 . S
C2432 H2427 0.929 . S
C2432 C2431 1.394 . S
C2432 C2433 1.382 . S
C2433 C2432 1.382 . S
C2433 C2434 1.392 . S
C2433 N2435 1.420 . S
C2434 H2428 0.930 . S
C2434 C2430 1.407 . S
C2434 C2433 1.392 . S
N2435 C2433 1.420 . S
N2435 C2436 1.244 . S
C2436 N2435 1.244 . S
H2437 C2440 0.929 . S
H2438 C2443 0.929 . S
H2439 C2445 0.930 . S
C2440 H2437 0.929 . S
C2440 C2441 1.398 . S
C2440 C2442 1.396 . S
C2441 C2440 1.398 . S
C2441 C2445 1.407 . S
C2442 C2440 1.396 . S
C2442 C2443 1.394 . S
C2443 H2438 0.929 . S
C2443 C2442 1.394 . S
C2443 C2444 1.382 . S
C2444 C2443 1.382 . S
C2444 C2445 1.392 . S
C2444 N2446 1.420 . S
C2445 H2439 0.930 . S
C2445 C2441 1.407 . S
C2445 C2444 1.392 . S
N2446 C2444 1.420 . S
N2446 C2447 1.244 . S
C2447 N2446 1.244 . S
C2448 C2449 1.349 . S
C2448 C2450 1.327 . S
C2448 H2473 0.950 . S
C2449 C2448 1.349 . S
C2449 C2465 1.349 . S
C2450 C2448 1.327 . S
C2450 C2469 1.429 . S
C2450 H2474 0.950 . S
C2451 C2468 1.574 . S
C2451 C2470 1.368 . S
C2451 H2475 0.949 . S
H2452 C2456 0.949 . S
C2453 C2454 1.349 . S
C2453 C2455 1.327 . S
C2453 H2476 0.950 . S
C2454 C2453 1.349 . S
C2454 C2466 1.349 . S
C2455 C2453 1.327 . S
C2455 C2471 1.429 . S
C2455 H2477 0.950 . S
C2456 H2452 0.949 . S
C2456 C2464 1.574 . S
C2456 C2472 1.368 . S
H2457 C2465 0.950 . S
H2458 C2463 0.950 . S
H2459 C2464 0.949 . S
H2460 C2466 0.950 . S
H2461 C2467 0.950 . S
H2462 C2468 0.949 . S
C2463 H2458 0.950 . S
C2463 C2465 1.327 . S
C2463 C2469 1.429 . S
C2464 C2456 1.574 . S
C2464 H2459 0.949 . S
C2464 C2470 1.368 . S
C2465 C2449 1.349 . S
C2465 H2457 0.950 . S
C2465 C2463 1.327 . S
C2466 C2454 1.349 . S
C2466 H2460 0.950 . S
C2466 C2467 1.327 . S
C2467 H2461 0.950 . S
C2467 C2466 1.327 . S
C2467 C2471 1.429 . S
C2468 C2451 1.574 . S
C2468 H2462 0.949 . S
C2468 C2472 1.368 . S
C2469 C2450 1.429 . S
C2469 C2463 1.429 . S
C2469 C2470 1.523 . S
C2470 C2451 1.368 . S
C2470 C2464 1.368 . S
C2470 C2469 1.523 . S
C2471 C2455 1.429 . S
C2471 C2467 1.429 . S
C2471 C2472 1.523 . S
C2472 C2456 1.368 . S
C2472 C2468 1.368 . S
C2472 C2471 1.523 . S
H2473 C2448 0.950 . S
H2474 C2450 0.950 . S
H2475 C2451 0.949 . S
H2476 C2453 0.950 . S
H2477 C2455 0.950 . S
C2478 C2479 1.349 . S
C2478 C2480 1.327 . S
C2478 H2503 0.950 . S
C2479 C2478 1.349 . S
C2479 C2495 1.349 . S
C2480 C2478 1.327 . S
C2480 C2499 1.429 . S
C2480 H2504 0.950 . S
C2481 C2498 1.574 . S
C2481 C2500 1.368 . S
C2481 H2505 0.949 . S
H2482 C2486 0.949 . S
C2483 C2484 1.349 . S
C2483 C2485 1.327 . S
C2483 H2506 0.950 . S
C2484 C2483 1.349 . S
C2484 C2496 1.349 . S
C2485 C2483 1.327 . S
C2485 C2501 1.429 . S
C2485 H2507 0.950 . S
C2486 H2482 0.949 . S
C2486 C2494 1.574 . S
C2486 C2502 1.368 . S
H2487 C2495 0.950 . S
H2488 C2493 0.950 . S
H2489 C2494 0.949 . S
H2490 C2496 0.950 . S
H2491 C2497 0.950 . S
H2492 C2498 0.949 . S
C2493 H2488 0.950 . S
C2493 C2495 1.327 . S
C2493 C2499 1.429 . S
C2494 C2486 1.574 . S
C2494 H2489 0.949 . S
C2494 C2500 1.368 . S
C2495 C2479 1.349 . S
C2495 H2487 0.950 . S
C2495 C2493 1.327 . S
C2496 C2484 1.349 . S
C2496 H2490 0.950 . S
C2496 C2497 1.327 . S
C2497 H2491 0.950 . S
C2497 C2496 1.327 . S
C2497 C2501 1.429 . S
C2498 C2481 1.574 . S
C2498 H2492 0.949 . S
C2498 C2502 1.368 . S
C2499 C2480 1.429 . S
C2499 C2493 1.429 . S
C2499 C2500 1.523 . S
C2500 C2481 1.368 . S
C2500 C2494 1.368 . S
C2500 C2499 1.523 . S
C2501 C2485 1.429 . S
C2501 C2497 1.429 . S
C2501 C2502 1.523 . S
C2502 C2486 1.368 . S
C2502 C2498 1.368 . S
C2502 C2501 1.523 . S
H2503 C2478 0.950 . S
H2504 C2480 0.950 . S
H2505 C2481 0.949 . S
H2506 C2483 0.950 . S
H2507 C2485 0.950 . S
C2508 C2509 1.349 . S
C2508 C2510 1.327 . S
C2508 H2533 0.950 . S
C2509 C2508 1.349 . S
C2509 C2525 1.349 . S
C2510 C2508 1.327 . S
C2510 C2529 1.429 . S
C2510 H2534 0.950 . S
C2511 C2528 1.574 . S
C2511 C2530 1.368 . S
C2511 H2535 0.949 . S
H2512 C2516 0.949 . S
C2513 C2514 1.349 . S
C2513 C2515 1.327 . S
C2513 H2536 0.950 . S
C2514 C2513 1.349 . S
C2514 C2526 1.349 . S
C2515 C2513 1.327 . S
C2515 C2531 1.429 . S
C2515 H2537 0.950 . S
C2516 H2512 0.949 . S
C2516 C2524 1.574 . S
C2516 C2532 1.368 . S
H2517 C2525 0.950 . S
H2518 C2523 0.950 . S
H2519 C2524 0.949 . S
H2520 C2526 0.950 . S
H2521 C2527 0.950 . S
H2522 C2528 0.949 . S
C2523 H2518 0.950 . S
C2523 C2525 1.327 . S
C2523 C2529 1.429 . S
C2524 C2516 1.574 . S
C2524 H2519 0.949 . S
C2524 C2530 1.368 . S
C2525 C2509 1.349 . S
C2525 H2517 0.950 . S
C2525 C2523 1.327 . S
C2526 C2514 1.349 . S
C2526 H2520 0.950 . S
C2526 C2527 1.327 . S
C2527 H2521 0.950 . S
C2527 C2526 1.327 . S
C2527 C2531 1.429 . S
C2528 C2511 1.574 . S
C2528 H2522 0.949 . S
C2528 C2532 1.368 . S
C2529 C2510 1.429 . S
C2529 C2523 1.429 . S
C2529 C2530 1.523 . S
C2530 C2511 1.368 . S
C2530 C2524 1.368 . S
C2530 C2529 1.523 . S
C2531 C2515 1.429 . S
C2531 C2527 1.429 . S
C2531 C2532 1.523 . S
C2532 C2516 1.368 . S
C2532 C2528 1.368 . S
C2532 C2531 1.523 . S
H2533 C2508 0.950 . S
H2534 C2510 0.950 . S
H2535 C2511 0.949 . S
H2536 C2513 0.950 . S
H2537 C2515 0.950 . S
C2538 C2539 1.349 . S
C2538 C2540 1.327 . S
C2538 H2563 0.950 . S
C2539 C2538 1.349 . S
C2539 C2555 1.349 . S
C2540 C2538 1.327 . S
C2540 C2559 1.429 . S
C2540 H2564 0.950 . S
C2541 C2558 1.574 . S
C2541 C2560 1.368 . S
C2541 H2565 0.949 . S
H2542 C2546 0.949 . S
C2543 C2544 1.349 . S
C2543 C2545 1.327 . S
C2543 H2566 0.950 . S
C2544 C2543 1.349 . S
C2544 C2556 1.349 . S
C2545 C2543 1.327 . S
C2545 C2561 1.429 . S
C2545 H2567 0.950 . S
C2546 H2542 0.949 . S
C2546 C2554 1.574 . S
C2546 C2562 1.368 . S
H2547 C2555 0.950 . S
H2548 C2553 0.950 . S
H2549 C2554 0.949 . S
H2550 C2556 0.950 . S
H2551 C2557 0.950 . S
H2552 C2558 0.949 . S
C2553 H2548 0.950 . S
C2553 C2555 1.327 . S
C2553 C2559 1.429 . S
C2554 C2546 1.574 . S
C2554 H2549 0.949 . S
C2554 C2560 1.368 . S
C2555 C2539 1.349 . S
C2555 H2547 0.950 . S
C2555 C2553 1.327 . S
C2556 C2544 1.349 . S
C2556 H2550 0.950 . S
C2556 C2557 1.327 . S
C2557 H2551 0.950 . S
C2557 C2556 1.327 . S
C2557 C2561 1.429 . S
C2558 C2541 1.574 . S
C2558 H2552 0.949 . S
C2558 C2562 1.368 . S
C2559 C2540 1.429 . S
C2559 C2553 1.429 . S
C2559 C2560 1.523 . S
C2560 C2541 1.368 . S
C2560 C2554 1.368 . S
C2560 C2559 1.523 . S
C2561 C2545 1.429 . S
C2561 C2557 1.429 . S
C2561 C2562 1.523 . S
C2562 C2546 1.368 . S
C2562 C2558 1.368 . S
C2562 C2561 1.523 . S
H2563 C2538 0.950 . S
H2564 C2540 0.950 . S
H2565 C2541 0.949 . S
H2566 C2543 0.950 . S
H2567 C2545 0.950 . S
C2568 C2569 1.349 . S
C2568 C2570 1.327 . S
C2568 H2593 0.950 . S
C2569 C2568 1.349 . S
C2569 C2585 1.349 . S
C2570 C2568 1.327 . S
C2570 C2589 1.429 . S
C2570 H2594 0.950 . S
C2571 C2588 1.574 . S
C2571 C2590 1.368 . S
C2571 H2595 0.949 . S
H2572 C2576 0.949 . S
C2573 C2574 1.349 . S
C2573 C2575 1.327 . S
C2573 H2596 0.950 . S
C2574 C2573 1.349 . S
C2574 C2586 1.349 . S
C2575 C2573 1.327 . S
C2575 C2591 1.429 . S
C2575 H2597 0.950 . S
C2576 H2572 0.949 . S
C2576 C2584 1.574 . S
C2576 C2592 1.368 . S
H2577 C2585 0.950 . S
H2578 C2583 0.950 . S
H2579 C2584 0.949 . S
H2580 C2586 0.950 . S
H2581 C2587 0.950 . S
H2582 C2588 0.949 . S
C2583 H2578 0.950 . S
C2583 C2585 1.327 . S
C2583 C2589 1.429 . S
C2584 C2576 1.574 . S
C2584 H2579 0.949 . S
C2584 C2590 1.368 . S
C2585 C2569 1.349 . S
C2585 H2577 0.950 . S
C2585 C2583 1.327 . S
C2586 C2574 1.349 . S
C2586 H2580 0.950 . S
C2586 C2587 1.327 . S
C2587 H2581 0.950 . S
C2587 C2586 1.327 . S
C2587 C2591 1.429 . S
C2588 C2571 1.574 . S
C2588 H2582 0.949 . S
C2588 C2592 1.368 . S
C2589 C2570 1.429 . S
C2589 C2583 1.429 . S
C2589 C2590 1.523 . S
C2590 C2571 1.368 . S
C2590 C2584 1.368 . S
C2590 C2589 1.523 . S
C2591 C2575 1.429 . S
C2591 C2587 1.429 . S
C2591 C2592 1.523 . S
C2592 C2576 1.368 . S
C2592 C2588 1.368 . S
C2592 C2591 1.523 . S
H2593 C2568 0.950 . S
H2594 C2570 0.950 . S
H2595 C2571 0.949 . S
H2596 C2573 0.950 . S
H2597 C2575 0.950 . S
C2598 C2599 1.349 . S
C2598 C2600 1.327 . S
C2598 H2623 0.950 . S
C2599 C2598 1.349 . S
C2599 C2615 1.349 . S
C2600 C2598 1.327 . S
C2600 C2619 1.429 . S
C2600 H2624 0.950 . S
C2601 C2618 1.574 . S
C2601 C2620 1.368 . S
C2601 H2625 0.949 . S
H2602 C2606 0.949 . S
C2603 C2604 1.349 . S
C2603 C2605 1.327 . S
C2603 H2626 0.950 . S
C2604 C2603 1.349 . S
C2604 C2616 1.349 . S
C2605 C2603 1.327 . S
C2605 C2621 1.429 . S
C2605 H2627 0.950 . S
C2606 H2602 0.949 . S
C2606 C2614 1.574 . S
C2606 C2622 1.368 . S
H2607 C2615 0.950 . S
H2608 C2613 0.950 . S
H2609 C2614 0.949 . S
H2610 C2616 0.950 . S
H2611 C2617 0.950 . S
H2612 C2618 0.949 . S
C2613 H2608 0.950 . S
C2613 C2615 1.327 . S
C2613 C2619 1.429 . S
C2614 C2606 1.574 . S
C2614 H2609 0.949 . S
C2614 C2620 1.368 . S
C2615 C2599 1.349 . S
C2615 H2607 0.950 . S
C2615 C2613 1.327 . S
C2616 C2604 1.349 . S
C2616 H2610 0.950 . S
C2616 C2617 1.327 . S
C2617 H2611 0.950 . S
C2617 C2616 1.327 . S
C2617 C2621 1.429 . S
C2618 C2601 1.574 . S
C2618 H2612 0.949 . S
C2618 C2622 1.368 . S
C2619 C2600 1.429 . S
C2619 C2613 1.429 . S
C2619 C2620 1.523 . S
C2620 C2601 1.368 . S
C2620 C2614 1.368 . S
C2620 C2619 1.523 . S
C2621 C2605 1.429 . S
C2621 C2617 1.429 . S
C2621 C2622 1.523 . S
C2622 C2606 1.368 . S
C2622 C2618 1.368 . S
C2622 C2621 1.523 . S
H2623 C2598 0.950 . S
H2624 C2600 0.950 . S
H2625 C2601 0.949 . S
H2626 C2603 0.950 . S
H2627 C2605 0.950 . S
C2628 C2629 1.349 . S
C2628 C2630 1.327 . S
C2628 H2653 0.950 . S
C2629 C2628 1.349 . S
C2629 C2645 1.349 . S
C2630 C2628 1.327 . S
C2630 C2649 1.429 . S
C2630 H2654 0.950 . S
C2631 C2648 1.574 . S
C2631 C2650 1.368 . S
C2631 H2655 0.949 . S
H2632 C2636 0.949 . S
C2633 C2634 1.349 . S
C2633 C2635 1.327 . S
C2633 H2656 0.950 . S
C2634 C2633 1.349 . S
C2634 C2646 1.349 . S
C2635 C2633 1.327 . S
C2635 C2651 1.429 . S
C2635 H2657 0.950 . S
C2636 H2632 0.949 . S
C2636 C2644 1.574 . S
C2636 C2652 1.368 . S
H2637 C2645 0.950 . S
H2638 C2643 0.950 . S
H2639 C2644 0.949 . S
H2640 C2646 0.950 . S
H2641 C2647 0.950 . S
H2642 C2648 0.949 . S
C2643 H2638 0.950 . S
C2643 C2645 1.327 . S
C2643 C2649 1.429 . S
C2644 C2636 1.574 . S
C2644 H2639 0.949 . S
C2644 C2650 1.368 . S
C2645 C2629 1.349 . S
C2645 H2637 0.950 . S
C2645 C2643 1.327 . S
C2646 C2634 1.349 . S
C2646 H2640 0.950 . S
C2646 C2647 1.327 . S
C2647 H2641 0.950 . S
C2647 C2646 1.327 . S
C2647 C2651 1.429 . S
C2648 C2631 1.574 . S
C2648 H2642 0.949 . S
C2648 C2652 1.368 . S
C2649 C2630 1.429 . S
C2649 C2643 1.429 . S
C2649 C2650 1.523 . S
C2650 C2631 1.368 . S
C2650 C2644 1.368 . S
C2650 C2649 1.523 . S
C2651 C2635 1.429 . S
C2651 C2647 1.429 . S
C2651 C2652 1.523 . S
C2652 C2636 1.368 . S
C2652 C2648 1.368 . S
C2652 C2651 1.523 . S
H2653 C2628 0.950 . S
H2654 C2630 0.950 . S
H2655 C2631 0.949 . S
H2656 C2633 0.950 . S
H2657 C2635 0.950 . S
C2658 C2659 1.349 . S
C2658 C2660 1.327 . S
C2658 H2683 0.950 . S
C2659 C2658 1.349 . S
C2659 C2675 1.349 . S
C2660 C2658 1.327 . S
C2660 C2679 1.429 . S
C2660 H2684 0.950 . S
C2661 C2678 1.574 . S
C2661 C2680 1.368 . S
C2661 H2685 0.949 . S
H2662 C2666 0.949 . S
C2663 C2664 1.349 . S
C2663 C2665 1.327 . S
C2663 H2686 0.950 . S
C2664 C2663 1.349 . S
C2664 C2676 1.349 . S
C2665 C2663 1.327 . S
C2665 C2681 1.429 . S
C2665 H2687 0.950 . S
C2666 H2662 0.949 . S
C2666 C2674 1.574 . S
C2666 C2682 1.368 . S
H2667 C2675 0.950 . S
H2668 C2673 0.950 . S
H2669 C2674 0.949 . S
H2670 C2676 0.950 . S
H2671 C2677 0.950 . S
H2672 C2678 0.949 . S
C2673 H2668 0.950 . S
C2673 C2675 1.327 . S
C2673 C2679 1.429 . S
C2674 C2666 1.574 . S
C2674 H2669 0.949 . S
C2674 C2680 1.368 . S
C2675 C2659 1.349 . S
C2675 H2667 0.950 . S
C2675 C2673 1.327 . S
C2676 C2664 1.349 . S
C2676 H2670 0.950 . S
C2676 C2677 1.327 . S
C2677 H2671 0.950 . S
C2677 C2676 1.327 . S
C2677 C2681 1.429 . S
C2678 C2661 1.574 . S
C2678 H2672 0.949 . S
C2678 C2682 1.368 . S
C2679 C2660 1.429 . S
C2679 C2673 1.429 . S
C2679 C2680 1.523 . S
C2680 C2661 1.368 . S
C2680 C2674 1.368 . S
C2680 C2679 1.523 . S
C2681 C2665 1.429 . S
C2681 C2677 1.429 . S
C2681 C2682 1.523 . S
C2682 C2666 1.368 . S
C2682 C2678 1.368 . S
C2682 C2681 1.523 . S
H2683 C2658 0.950 . S
H2684 C2660 0.950 . S
H2685 C2661 0.949 . S
H2686 C2663 0.950 . S
H2687 C2665 0.950 . S
C2688 C2689 1.349 . S
C2688 C2690 1.327 . S
C2688 H2713 0.950 . S
C2689 C2688 1.349 . S
C2689 C2705 1.349 . S
C2690 C2688 1.327 . S
C2690 C2709 1.429 . S
C2690 H2714 0.950 . S
C2691 C2708 1.574 . S
C2691 C2710 1.368 . S
C2691 H2715 0.949 . S
H2692 C2696 0.949 . S
C2693 C2694 1.349 . S
C2693 C2695 1.327 . S
C2693 H2716 0.950 . S
C2694 C2693 1.349 . S
C2694 C2706 1.349 . S
C2695 C2693 1.327 . S
C2695 C2711 1.429 . S
C2695 H2717 0.950 . S
C2696 H2692 0.949 . S
C2696 C2704 1.574 . S
C2696 C2712 1.368 . S
H2697 C2705 0.950 . S
H2698 C2703 0.950 . S
H2699 C2704 0.949 . S
H2700 C2706 0.950 . S
H2701 C2707 0.950 . S
H2702 C2708 0.949 . S
C2703 H2698 0.950 . S
C2703 C2705 1.327 . S
C2703 C2709 1.429 . S
C2704 C2696 1.574 . S
C2704 H2699 0.949 . S
C2704 C2710 1.368 . S
C2705 C2689 1.349 . S
C2705 H2697 0.950 . S
C2705 C2703 1.327 . S
C2706 C2694 1.349 . S
C2706 H2700 0.950 . S
C2706 C2707 1.327 . S
C2707 H2701 0.950 . S
C2707 C2706 1.327 . S
C2707 C2711 1.429 . S
C2708 C2691 1.574 . S
C2708 H2702 0.949 . S
C2708 C2712 1.368 . S
C2709 C2690 1.429 . S
C2709 C2703 1.429 . S
C2709 C2710 1.523 . S
C2710 C2691 1.368 . S
C2710 C2704 1.368 . S
C2710 C2709 1.523 . S
C2711 C2695 1.429 . S
C2711 C2707 1.429 . S
C2711 C2712 1.523 . S
C2712 C2696 1.368 . S
C2712 C2708 1.368 . S
C2712 C2711 1.523 . S
H2713 C2688 0.950 . S
H2714 C2690 0.950 . S
H2715 C2691 0.949 . S
H2716 C2693 0.950 . S
H2717 C2695 0.950 . S
C2718 C2719 1.349 . S
C2718 C2720 1.327 . S
C2718 H2743 0.950 . S
C2719 C2718 1.349 . S
C2719 C2735 1.349 . S
C2720 C2718 1.327 . S
C2720 C2739 1.429 . S
C2720 H2744 0.950 . S
C2721 C2738 1.574 . S
C2721 C2740 1.368 . S
C2721 H2745 0.949 . S
H2722 C2726 0.949 . S
C2723 C2724 1.349 . S
C2723 C2725 1.327 . S
C2723 H2746 0.950 . S
C2724 C2723 1.349 . S
C2724 C2736 1.349 . S
C2725 C2723 1.327 . S
C2725 C2741 1.429 . S
C2725 H2747 0.950 . S
C2726 H2722 0.949 . S
C2726 C2734 1.574 . S
C2726 C2742 1.368 . S
H2727 C2735 0.950 . S
H2728 C2733 0.950 . S
H2729 C2734 0.949 . S
H2730 C2736 0.950 . S
H2731 C2737 0.950 . S
H2732 C2738 0.949 . S
C2733 H2728 0.950 . S
C2733 C2735 1.327 . S
C2733 C2739 1.429 . S
C2734 C2726 1.574 . S
C2734 H2729 0.949 . S
C2734 C2740 1.368 . S
C2735 C2719 1.349 . S
C2735 H2727 0.950 . S
C2735 C2733 1.327 . S
C2736 C2724 1.349 . S
C2736 H2730 0.950 . S
C2736 C2737 1.327 . S
C2737 H2731 0.950 . S
C2737 C2736 1.327 . S
C2737 C2741 1.429 . S
C2738 C2721 1.574 . S
C2738 H2732 0.949 . S
C2738 C2742 1.368 . S
C2739 C2720 1.429 . S
C2739 C2733 1.429 . S
C2739 C2740 1.523 . S
C2740 C2721 1.368 . S
C2740 C2734 1.368 . S
C2740 C2739 1.523 . S
C2741 C2725 1.429 . S
C2741 C2737 1.429 . S
C2741 C2742 1.523 . S
C2742 C2726 1.368 . S
C2742 C2738 1.368 . S
C2742 C2741 1.523 . S
H2743 C2718 0.950 . S
H2744 C2720 0.950 . S
H2745 C2721 0.949 . S
H2746 C2723 0.950 . S
H2747 C2725 0.950 . S
C2748 C2749 1.349 . S
C2748 C2750 1.327 . S
C2748 H2773 0.950 . S
C2749 C2748 1.349 . S
C2749 C2765 1.349 . S
C2750 C2748 1.327 . S
C2750 C2769 1.429 . S
C2750 H2774 0.950 . S
C2751 C2768 1.574 . S
C2751 C2770 1.368 . S
C2751 H2775 0.949 . S
H2752 C2756 0.949 . S
C2753 C2754 1.349 . S
C2753 C2755 1.327 . S
C2753 H2776 0.950 . S
C2754 C2753 1.349 . S
C2754 C2766 1.349 . S
C2755 C2753 1.327 . S
C2755 C2771 1.429 . S
C2755 H2777 0.950 . S
C2756 H2752 0.949 . S
C2756 C2764 1.574 . S
C2756 C2772 1.368 . S
H2757 C2765 0.950 . S
H2758 C2763 0.950 . S
H2759 C2764 0.949 . S
H2760 C2766 0.950 . S
H2761 C2767 0.950 . S
H2762 C2768 0.949 . S
C2763 H2758 0.950 . S
C2763 C2765 1.327 . S
C2763 C2769 1.429 . S
C2764 C2756 1.574 . S
C2764 H2759 0.949 . S
C2764 C2770 1.368 . S
C2765 C2749 1.349 . S
C2765 H2757 0.950 . S
C2765 C2763 1.327 . S
C2766 C2754 1.349 . S
C2766 H2760 0.950 . S
C2766 C2767 1.327 . S
C2767 H2761 0.950 . S
C2767 C2766 1.327 . S
C2767 C2771 1.429 . S
C2768 C2751 1.574 . S
C2768 H2762 0.949 . S
C2768 C2772 1.368 . S
C2769 C2750 1.429 . S
C2769 C2763 1.429 . S
C2769 C2770 1.523 . S
C2770 C2751 1.368 . S
C2770 C2764 1.368 . S
C2770 C2769 1.523 . S
C2771 C2755 1.429 . S
C2771 C2767 1.429 . S
C2771 C2772 1.523 . S
C2772 C2756 1.368 . S
C2772 C2768 1.368 . S
C2772 C2771 1.523 . S
H2773 C2748 0.950 . S
H2774 C2750 0.950 . S
H2775 C2751 0.949 . S
H2776 C2753 0.950 . S
H2777 C2755 0.950 . S
C2778 C2779 1.349 . S
C2778 C2780 1.327 . S
C2778 H2803 0.950 . S
C2779 C2778 1.349 . S
C2779 C2795 1.349 . S
C2780 C2778 1.327 . S
C2780 C2799 1.429 . S
C2780 H2804 0.950 . S
C2781 C2798 1.574 . S
C2781 C2800 1.368 . S
C2781 H2805 0.949 . S
H2782 C2786 0.949 . S
C2783 C2784 1.349 . S
C2783 C2785 1.327 . S
C2783 H2806 0.950 . S
C2784 C2783 1.349 . S
C2784 C2796 1.349 . S
C2785 C2783 1.327 . S
C2785 C2801 1.429 . S
C2785 H2807 0.950 . S
C2786 H2782 0.949 . S
C2786 C2794 1.574 . S
C2786 C2802 1.368 . S
H2787 C2795 0.950 . S
H2788 C2793 0.950 . S
H2789 C2794 0.949 . S
H2790 C2796 0.950 . S
H2791 C2797 0.950 . S
H2792 C2798 0.949 . S
C2793 H2788 0.950 . S
C2793 C2795 1.327 . S
C2793 C2799 1.429 . S
C2794 C2786 1.574 . S
C2794 H2789 0.949 . S
C2794 C2800 1.368 . S
C2795 C2779 1.349 . S
C2795 H2787 0.950 . S
C2795 C2793 1.327 . S
C2796 C2784 1.349 . S
C2796 H2790 0.950 . S
C2796 C2797 1.327 . S
C2797 H2791 0.950 . S
C2797 C2796 1.327 . S
C2797 C2801 1.429 . S
C2798 C2781 1.574 . S
C2798 H2792 0.949 . S
C2798 C2802 1.368 . S
C2799 C2780 1.429 . S
C2799 C2793 1.429 . S
C2799 C2800 1.523 . S
C2800 C2781 1.368 . S
C2800 C2794 1.368 . S
C2800 C2799 1.523 . S
C2801 C2785 1.429 . S
C2801 C2797 1.429 . S
C2801 C2802 1.523 . S
C2802 C2786 1.368 . S
C2802 C2798 1.368 . S
C2802 C2801 1.523 . S
H2803 C2778 0.950 . S
H2804 C2780 0.950 . S
H2805 C2781 0.949 . S
H2806 C2783 0.950 . S
H2807 C2785 0.950 . S
C2808 C2809 1.349 . S
C2808 C2810 1.327 . S
C2808 H2833 0.950 . S
C2809 C2808 1.349 . S
C2809 C2825 1.349 . S
C2810 C2808 1.327 . S
C2810 C2829 1.429 . S
C2810 H2834 0.950 . S
C2811 C2828 1.574 . S
C2811 C2830 1.368 . S
C2811 H2835 0.949 . S
H2812 C2816 0.949 . S
C2813 C2814 1.349 . S
C2813 C2815 1.327 . S
C2813 H2836 0.950 . S
C2814 C2813 1.349 . S
C2814 C2826 1.349 . S
C2815 C2813 1.327 . S
C2815 C2831 1.429 . S
C2815 H2837 0.950 . S
C2816 H2812 0.949 . S
C2816 C2824 1.574 . S
C2816 C2832 1.368 . S
H2817 C2825 0.950 . S
H2818 C2823 0.950 . S
H2819 C2824 0.949 . S
H2820 C2826 0.950 . S
H2821 C2827 0.950 . S
H2822 C2828 0.949 . S
C2823 H2818 0.950 . S
C2823 C2825 1.327 . S
C2823 C2829 1.429 . S
C2824 C2816 1.574 . S
C2824 H2819 0.949 . S
C2824 C2830 1.368 . S
C2825 C2809 1.349 . S
C2825 H2817 0.950 . S
C2825 C2823 1.327 . S
C2826 C2814 1.349 . S
C2826 H2820 0.950 . S
C2826 C2827 1.327 . S
C2827 H2821 0.950 . S
C2827 C2826 1.327 . S
C2827 C2831 1.429 . S
C2828 C2811 1.574 . S
C2828 H2822 0.949 . S
C2828 C2832 1.368 . S
C2829 C2810 1.429 . S
C2829 C2823 1.429 . S
C2829 C2830 1.523 . S
C2830 C2811 1.368 . S
C2830 C2824 1.368 . S
C2830 C2829 1.523 . S
C2831 C2815 1.429 . S
C2831 C2827 1.429 . S
C2831 C2832 1.523 . S
C2832 C2816 1.368 . S
C2832 C2828 1.368 . S
C2832 C2831 1.523 . S
H2833 C2808 0.950 . S
H2834 C2810 0.950 . S
H2835 C2811 0.949 . S
H2836 C2813 0.950 . S
H2837 C2815 0.950 . S
C2838 C2839 1.349 . S
C2838 C2840 1.327 . S
C2838 H2863 0.950 . S
C2839 C2838 1.349 . S
C2839 C2855 1.349 . S
C2840 C2838 1.327 . S
C2840 C2859 1.429 . S
C2840 H2864 0.950 . S
C2841 C2858 1.574 . S
C2841 C2860 1.368 . S
C2841 H2865 0.949 . S
H2842 C2846 0.949 . S
C2843 C2844 1.349 . S
C2843 C2845 1.327 . S
C2843 H2866 0.950 . S
C2844 C2843 1.349 . S
C2844 C2856 1.349 . S
C2845 C2843 1.327 . S
C2845 C2861 1.429 . S
C2845 H2867 0.950 . S
C2846 H2842 0.949 . S
C2846 C2854 1.574 . S
C2846 C2862 1.368 . S
H2847 C2855 0.950 . S
H2848 C2853 0.950 . S
H2849 C2854 0.949 . S
H2850 C2856 0.950 . S
H2851 C2857 0.950 . S
H2852 C2858 0.949 . S
C2853 H2848 0.950 . S
C2853 C2855 1.327 . S
C2853 C2859 1.429 . S
C2854 C2846 1.574 . S
C2854 H2849 0.949 . S
C2854 C2860 1.368 . S
C2855 C2839 1.349 . S
C2855 H2847 0.950 . S
C2855 C2853 1.327 . S
C2856 C2844 1.349 . S
C2856 H2850 0.950 . S
C2856 C2857 1.327 . S
C2857 H2851 0.950 . S
C2857 C2856 1.327 . S
C2857 C2861 1.429 . S
C2858 C2841 1.574 . S
C2858 H2852 0.949 . S
C2858 C2862 1.368 . S
C2859 C2840 1.429 . S
C2859 C2853 1.429 . S
C2859 C2860 1.523 . S
C2860 C2841 1.368 . S
C2860 C2854 1.368 . S
C2860 C2859 1.523 . S
C2861 C2845 1.429 . S
C2861 C2857 1.429 . S
C2861 C2862 1.523 . S
C2862 C2846 1.368 . S
C2862 C2858 1.368 . S
C2862 C2861 1.523 . S
H2863 C2838 0.950 . S
H2864 C2840 0.950 . S
H2865 C2841 0.949 . S
H2866 C2843 0.950 . S
H2867 C2845 0.950 . S
C2868 C2869 1.349 . S
C2868 C2870 1.327 . S
C2868 H2893 0.950 . S
C2869 C2868 1.349 . S
C2869 C2885 1.349 . S
C2870 C2868 1.327 . S
C2870 C2889 1.429 . S
C2870 H2894 0.950 . S
C2871 C2888 1.574 . S
C2871 C2890 1.368 . S
C2871 H2895 0.949 . S
H2872 C2876 0.949 . S
C2873 C2874 1.349 . S
C2873 C2875 1.327 . S
C2873 H2896 0.950 . S
C2874 C2873 1.349 . S
C2874 C2886 1.349 . S
C2875 C2873 1.327 . S
C2875 C2891 1.429 . S
C2875 H2897 0.950 . S
C2876 H2872 0.949 . S
C2876 C2884 1.574 . S
C2876 C2892 1.368 . S
H2877 C2885 0.950 . S
H2878 C2883 0.950 . S
H2879 C2884 0.949 . S
H2880 C2886 0.950 . S
H2881 C2887 0.950 . S
H2882 C2888 0.949 . S
C2883 H2878 0.950 . S
C2883 C2885 1.327 . S
C2883 C2889 1.429 . S
C2884 C2876 1.574 . S
C2884 H2879 0.949 . S
C2884 C2890 1.368 . S
C2885 C2869 1.349 . S
C2885 H2877 0.950 . S
C2885 C2883 1.327 . S
C2886 C2874 1.349 . S
C2886 H2880 0.950 . S
C2886 C2887 1.327 . S
C2887 H2881 0.950 . S
C2887 C2886 1.327 . S
C2887 C2891 1.429 . S
C2888 C2871 1.574 . S
C2888 H2882 0.949 . S
C2888 C2892 1.368 . S
C2889 C2870 1.429 . S
C2889 C2883 1.429 . S
C2889 C2890 1.523 . S
C2890 C2871 1.368 . S
C2890 C2884 1.368 . S
C2890 C2889 1.523 . S
C2891 C2875 1.429 . S
C2891 C2887 1.429 . S
C2891 C2892 1.523 . S
C2892 C2876 1.368 . S
C2892 C2888 1.368 . S
C2892 C2891 1.523 . S
H2893 C2868 0.950 . S
H2894 C2870 0.950 . S
H2895 C2871 0.949 . S
H2896 C2873 0.950 . S
H2897 C2875 0.950 . S
C2898 C2899 1.349 . S
C2898 C2900 1.327 . S
C2898 H2923 0.950 . S
C2899 C2898 1.349 . S
C2899 C2915 1.349 . S
C2900 C2898 1.327 . S
C2900 C2919 1.429 . S
C2900 H2924 0.950 . S
C2901 C2918 1.574 . S
C2901 C2920 1.368 . S
C2901 H2925 0.949 . S
H2902 C2906 0.949 . S
C2903 C2904 1.349 . S
C2903 C2905 1.327 . S
C2903 H2926 0.950 . S
C2904 C2903 1.349 . S
C2904 C2916 1.349 . S
C2905 C2903 1.327 . S
C2905 C2921 1.429 . S
C2905 H2927 0.950 . S
C2906 H2902 0.949 . S
C2906 C2914 1.574 . S
C2906 C2922 1.368 . S
H2907 C2915 0.950 . S
H2908 C2913 0.950 . S
H2909 C2914 0.949 . S
H2910 C2916 0.950 . S
H2911 C2917 0.950 . S
H2912 C2918 0.949 . S
C2913 H2908 0.950 . S
C2913 C2915 1.327 . S
C2913 C2919 1.429 . S
C2914 C2906 1.574 . S
C2914 H2909 0.949 . S
C2914 C2920 1.368 . S
C2915 C2899 1.349 . S
C2915 H2907 0.950 . S
C2915 C2913 1.327 . S
C2916 C2904 1.349 . S
C2916 H2910 0.950 . S
C2916 C2917 1.327 . S
C2917 H2911 0.950 . S
C2917 C2916 1.327 . S
C2917 C2921 1.429 . S
C2918 C2901 1.574 . S
C2918 H2912 0.949 . S
C2918 C2922 1.368 . S
C2919 C2900 1.429 . S
C2919 C2913 1.429 . S
C2919 C2920 1.523 . S
C2920 C2901 1.368 . S
C2920 C2914 1.368 . S
C2920 C2919 1.523 . S
C2921 C2905 1.429 . S
C2921 C2917 1.429 . S
C2921 C2922 1.523 . S
C2922 C2906 1.368 . S
C2922 C2918 1.368 . S
C2922 C2921 1.523 . S
H2923 C2898 0.950 . S
H2924 C2900 0.950 . S
H2925 C2901 0.949 . S
H2926 C2903 0.950 . S
H2927 C2905 0.950 . S
C2928 C2929 1.349 . S
C2928 C2930 1.327 . S
C2928 H2953 0.950 . S
C2929 C2928 1.349 . S
C2929 C2945 1.349 . S
C2930 C2928 1.327 . S
C2930 C2949 1.429 . S
C2930 H2954 0.950 . S
C2931 C2948 1.574 . S
C2931 C2950 1.368 . S
C2931 H2955 0.949 . S
H2932 C2936 0.949 . S
C2933 C2934 1.349 . S
C2933 C2935 1.327 . S
C2933 H2956 0.950 . S
C2934 C2933 1.349 . S
C2934 C2946 1.349 . S
C2935 C2933 1.327 . S
C2935 C2951 1.429 . S
C2935 H2957 0.950 . S
C2936 H2932 0.949 . S
C2936 C2944 1.574 . S
C2936 C2952 1.368 . S
H2937 C2945 0.950 . S
H2938 C2943 0.950 . S
H2939 C2944 0.949 . S
H2940 C2946 0.950 . S
H2941 C2947 0.950 . S
H2942 C2948 0.949 . S
C2943 H2938 0.950 . S
C2943 C2945 1.327 . S
C2943 C2949 1.429 . S
C2944 C2936 1.574 . S
C2944 H2939 0.949 . S
C2944 C2950 1.368 . S
C2945 C2929 1.349 . S
C2945 H2937 0.950 . S
C2945 C2943 1.327 . S
C2946 C2934 1.349 . S
C2946 H2940 0.950 . S
C2946 C2947 1.327 . S
C2947 H2941 0.950 . S
C2947 C2946 1.327 . S
C2947 C2951 1.429 . S
C2948 C2931 1.574 . S
C2948 H2942 0.949 . S
C2948 C2952 1.368 . S
C2949 C2930 1.429 . S
C2949 C2943 1.429 . S
C2949 C2950 1.523 . S
C2950 C2931 1.368 . S
C2950 C2944 1.368 . S
C2950 C2949 1.523 . S
C2951 C2935 1.429 . S
C2951 C2947 1.429 . S
C2951 C2952 1.523 . S
C2952 C2936 1.368 . S
C2952 C2948 1.368 . S
C2952 C2951 1.523 . S
H2953 C2928 0.950 . S
H2954 C2930 0.950 . S
H2955 C2931 0.949 . S
H2956 C2933 0.950 . S
H2957 C2935 0.950 . S
C2958 C2959 1.349 . S
C2958 C2960 1.327 . S
C2958 H2983 0.950 . S
C2959 C2958 1.349 . S
C2959 C2975 1.349 . S
C2960 C2958 1.327 . S
C2960 C2979 1.429 . S
C2960 H2984 0.950 . S
C2961 C2978 1.574 . S
C2961 C2980 1.368 . S
C2961 H2985 0.949 . S
H2962 C2966 0.949 . S
C2963 C2964 1.349 . S
C2963 C2965 1.327 . S
C2963 H2986 0.950 1_655 S
C2964 C2963 1.349 . S
C2964 C2976 1.349 . S
C2965 C2963 1.327 . S
C2965 C2981 1.429 . S
C2965 H2987 0.950 1_655 S
C2966 H2962 0.949 . S
C2966 C2974 1.574 . S
C2966 C2982 1.368 . S
H2967 C2975 0.950 . S
H2968 C2973 0.950 . S
H2969 C2974 0.949 . S
H2970 C2976 0.950 . S
H2971 C2977 0.950 . S
H2972 C2978 0.949 . S
C2973 H2968 0.950 . S
C2973 C2975 1.327 . S
C2973 C2979 1.429 . S
C2974 C2966 1.574 . S
C2974 H2969 0.949 . S
C2974 C2980 1.368 . S
C2975 C2959 1.349 . S
C2975 H2967 0.950 . S
C2975 C2973 1.327 . S
C2976 C2964 1.349 . S
C2976 H2970 0.950 . S
C2976 C2977 1.327 . S
C2977 H2971 0.950 . S
C2977 C2976 1.327 . S
C2977 C2981 1.429 . S
C2978 C2961 1.574 . S
C2978 H2972 0.949 . S
C2978 C2982 1.368 . S
C2979 C2960 1.429 . S
C2979 C2973 1.429 . S
C2979 C2980 1.523 . S
C2980 C2961 1.368 . S
C2980 C2974 1.368 . S
C2980 C2979 1.523 . S
C2981 C2965 1.429 . S
C2981 C2977 1.429 . S
C2981 C2982 1.523 . S
C2982 C2966 1.368 . S
C2982 C2978 1.368 . S
C2982 C2981 1.523 . S
H2983 C2958 0.950 . S
H2984 C2960 0.950 . S
H2985 C2961 0.949 . S
H2986 C2963 0.950 1_455 S
H2987 C2965 0.950 1_455 S
C2988 C2989 1.349 . S
C2988 C2990 1.327 . S
C2988 H3013 0.950 . S
C2989 C2988 1.349 . S
C2989 C3005 1.349 . S
C2990 C2988 1.327 . S
C2990 C3009 1.429 . S
C2990 H3014 0.950 . S
C2991 C3008 1.574 . S
C2991 C3010 1.368 . S
C2991 H3015 0.949 . S
H2992 C2996 0.949 . S
C2993 C2994 1.349 . S
C2993 C2995 1.327 . S
C2993 H3016 0.950 . S
C2994 C2993 1.349 . S
C2994 C3006 1.349 . S
C2995 C2993 1.327 . S
C2995 C3011 1.429 . S
C2995 H3017 0.950 . S
C2996 H2992 0.949 . S
C2996 C3004 1.574 . S
C2996 C3012 1.368 . S
H2997 C3005 0.950 . S
H2998 C3003 0.950 . S
H2999 C3004 0.949 . S
H3000 C3006 0.950 . S
H3001 C3007 0.950 . S
H3002 C3008 0.949 . S
C3003 H2998 0.950 . S
C3003 C3005 1.327 . S
C3003 C3009 1.429 . S
C3004 C2996 1.574 . S
C3004 H2999 0.949 . S
C3004 C3010 1.368 . S
C3005 C2989 1.349 . S
C3005 H2997 0.950 . S
C3005 C3003 1.327 . S
C3006 C2994 1.349 . S
C3006 H3000 0.950 . S
C3006 C3007 1.327 . S
C3007 H3001 0.950 . S
C3007 C3006 1.327 . S
C3007 C3011 1.429 . S
C3008 C2991 1.574 . S
C3008 H3002 0.949 . S
C3008 C3012 1.368 . S
C3009 C2990 1.429 . S
C3009 C3003 1.429 . S
C3009 C3010 1.523 . S
C3010 C2991 1.368 . S
C3010 C3004 1.368 . S
C3010 C3009 1.523 . S
C3011 C2995 1.429 . S
C3011 C3007 1.429 . S
C3011 C3012 1.523 . S
C3012 C2996 1.368 . S
C3012 C3008 1.368 . S
C3012 C3011 1.523 . S
H3013 C2988 0.950 . S
H3014 C2990 0.950 . S
H3015 C2991 0.949 . S
H3016 C2993 0.950 . S
H3017 C2995 0.950 . S
C3018 C3019 1.349 . S
C3018 C3020 1.327 . S
C3018 H3043 0.950 . S
C3019 C3018 1.349 . S
C3019 C3035 1.349 . S
C3020 C3018 1.327 . S
C3020 C3039 1.429 . S
C3020 H3044 0.950 . S
C3021 C3038 1.574 . S
C3021 C3040 1.368 . S
C3021 H3045 0.949 . S
H3022 C3026 0.949 . S
C3023 C3024 1.349 . S
C3023 C3025 1.327 . S
C3023 H3046 0.950 . S
C3024 C3023 1.349 . S
C3024 C3036 1.349 . S
C3025 C3023 1.327 . S
C3025 C3041 1.429 . S
C3025 H3047 0.950 . S
C3026 H3022 0.949 . S
C3026 C3034 1.574 . S
C3026 C3042 1.368 . S
H3027 C3035 0.950 . S
H3028 C3033 0.950 . S
H3029 C3034 0.949 . S
H3030 C3036 0.950 . S
H3031 C3037 0.950 . S
H3032 C3038 0.949 . S
C3033 H3028 0.950 . S
C3033 C3035 1.327 . S
C3033 C3039 1.429 . S
C3034 C3026 1.574 . S
C3034 H3029 0.949 . S
C3034 C3040 1.368 . S
C3035 C3019 1.349 . S
C3035 H3027 0.950 . S
C3035 C3033 1.327 . S
C3036 C3024 1.349 . S
C3036 H3030 0.950 . S
C3036 C3037 1.327 . S
C3037 H3031 0.950 . S
C3037 C3036 1.327 . S
C3037 C3041 1.429 . S
C3038 C3021 1.574 . S
C3038 H3032 0.949 . S
C3038 C3042 1.368 . S
C3039 C3020 1.429 . S
C3039 C3033 1.429 . S
C3039 C3040 1.523 . S
C3040 C3021 1.368 . S
C3040 C3034 1.368 . S
C3040 C3039 1.523 . S
C3041 C3025 1.429 . S
C3041 C3037 1.429 . S
C3041 C3042 1.523 . S
C3042 C3026 1.368 . S
C3042 C3038 1.368 . S
C3042 C3041 1.523 . S
H3043 C3018 0.950 . S
H3044 C3020 0.950 . S
H3045 C3021 0.949 . S
H3046 C3023 0.950 . S
H3047 C3025 0.950 . S
C3048 C3049 1.349 . S
C3048 C3050 1.327 . S
C3048 H3073 0.950 . S
C3049 C3048 1.349 . S
C3049 C3065 1.349 . S
C3050 C3048 1.327 . S
C3050 C3069 1.429 . S
C3050 H3074 0.950 . S
C3051 C3068 1.574 . S
C3051 C3070 1.368 . S
C3051 H3075 0.949 . S
H3052 C3056 0.949 . S
C3053 C3054 1.349 . S
C3053 C3055 1.327 . S
C3053 H3076 0.950 . S
C3054 C3053 1.349 . S
C3054 C3066 1.349 . S
C3055 C3053 1.327 . S
C3055 C3071 1.429 . S
C3055 H3077 0.950 . S
C3056 H3052 0.949 . S
C3056 C3064 1.574 . S
C3056 C3072 1.368 . S
H3057 C3065 0.950 . S
H3058 C3063 0.950 . S
H3059 C3064 0.949 . S
H3060 C3066 0.950 . S
H3061 C3067 0.950 . S
H3062 C3068 0.949 . S
C3063 H3058 0.950 . S
C3063 C3065 1.327 . S
C3063 C3069 1.429 . S
C3064 C3056 1.574 . S
C3064 H3059 0.949 . S
C3064 C3070 1.368 . S
C3065 C3049 1.349 . S
C3065 H3057 0.950 . S
C3065 C3063 1.327 . S
C3066 C3054 1.349 . S
C3066 H3060 0.950 . S
C3066 C3067 1.327 . S
C3067 H3061 0.950 . S
C3067 C3066 1.327 . S
C3067 C3071 1.429 . S
C3068 C3051 1.574 . S
C3068 H3062 0.949 . S
C3068 C3072 1.368 . S
C3069 C3050 1.429 . S
C3069 C3063 1.429 . S
C3069 C3070 1.523 . S
C3070 C3051 1.368 . S
C3070 C3064 1.368 . S
C3070 C3069 1.523 . S
C3071 C3055 1.429 . S
C3071 C3067 1.429 . S
C3071 C3072 1.523 . S
C3072 C3056 1.368 . S
C3072 C3068 1.368 . S
C3072 C3071 1.523 . S
H3073 C3048 0.950 . S
H3074 C3050 0.950 . S
H3075 C3051 0.949 . S
H3076 C3053 0.950 . S
H3077 C3055 0.950 . S
C3078 C3079 1.349 . S
C3078 C3080 1.327 . S
C3078 H3103 0.950 . S
C3079 C3078 1.349 . S
C3079 C3095 1.349 . S
C3080 C3078 1.327 . S
C3080 C3099 1.429 . S
C3080 H3104 0.950 . S
C3081 C3098 1.574 . S
C3081 C3100 1.368 . S
C3081 H3105 0.949 . S
H3082 C3086 0.949 . S
C3083 C3084 1.349 . S
C3083 C3085 1.327 . S
C3083 H3106 0.950 . S
C3084 C3083 1.349 . S
C3084 C3096 1.349 . S
C3085 C3083 1.327 . S
C3085 C3101 1.429 . S
C3085 H3107 0.950 . S
C3086 H3082 0.949 . S
C3086 C3094 1.574 . S
C3086 C3102 1.368 . S
H3087 C3095 0.950 . S
H3088 C3093 0.950 . S
H3089 C3094 0.949 . S
H3090 C3096 0.950 . S
H3091 C3097 0.950 . S
H3092 C3098 0.949 . S
C3093 H3088 0.950 . S
C3093 C3095 1.327 . S
C3093 C3099 1.429 . S
C3094 C3086 1.574 . S
C3094 H3089 0.949 . S
C3094 C3100 1.368 . S
C3095 C3079 1.349 . S
C3095 H3087 0.950 . S
C3095 C3093 1.327 . S
C3096 C3084 1.349 . S
C3096 H3090 0.950 . S
C3096 C3097 1.327 . S
C3097 H3091 0.950 . S
C3097 C3096 1.327 . S
C3097 C3101 1.429 . S
C3098 C3081 1.574 . S
C3098 H3092 0.949 . S
C3098 C3102 1.368 . S
C3099 C3080 1.429 . S
C3099 C3093 1.429 . S
C3099 C3100 1.523 . S
C3100 C3081 1.368 . S
C3100 C3094 1.368 . S
C3100 C3099 1.523 . S
C3101 C3085 1.429 . S
C3101 C3097 1.429 . S
C3101 C3102 1.523 . S
C3102 C3086 1.368 . S
C3102 C3098 1.368 . S
C3102 C3101 1.523 . S
H3103 C3078 0.950 . S
H3104 C3080 0.950 . S
H3105 C3081 0.949 . S
H3106 C3083 0.950 . S
H3107 C3085 0.950 . S
C3108 C3109 1.349 . S
C3108 C3110 1.327 . S
C3108 H3133 0.950 . S
C3109 C3108 1.349 . S
C3109 C3125 1.349 . S
C3110 C3108 1.327 . S
C3110 C3129 1.429 . S
C3110 H3134 0.950 . S
C3111 C3128 1.574 . S
C3111 C3130 1.368 . S
C3111 H3135 0.949 . S
H3112 C3116 0.949 . S
C3113 C3114 1.349 . S
C3113 C3115 1.327 . S
C3113 H3136 0.950 . S
C3114 C3113 1.349 . S
C3114 C3126 1.349 . S
C3115 C3113 1.327 . S
C3115 C3131 1.429 . S
C3115 H3137 0.950 . S
C3116 H3112 0.949 . S
C3116 C3124 1.574 . S
C3116 C3132 1.368 . S
H3117 C3125 0.950 . S
H3118 C3123 0.950 . S
H3119 C3124 0.949 . S
H3120 C3126 0.950 . S
H3121 C3127 0.950 . S
H3122 C3128 0.949 . S
C3123 H3118 0.950 . S
C3123 C3125 1.327 . S
C3123 C3129 1.429 . S
C3124 C3116 1.574 . S
C3124 H3119 0.949 . S
C3124 C3130 1.368 . S
C3125 C3109 1.349 . S
C3125 H3117 0.950 . S
C3125 C3123 1.327 . S
C3126 C3114 1.349 . S
C3126 H3120 0.950 . S
C3126 C3127 1.327 . S
C3127 H3121 0.950 . S
C3127 C3126 1.327 . S
C3127 C3131 1.429 . S
C3128 C3111 1.574 . S
C3128 H3122 0.949 . S
C3128 C3132 1.368 . S
C3129 C3110 1.429 . S
C3129 C3123 1.429 . S
C3129 C3130 1.523 . S
C3130 C3111 1.368 . S
C3130 C3124 1.368 . S
C3130 C3129 1.523 . S
C3131 C3115 1.429 . S
C3131 C3127 1.429 . S
C3131 C3132 1.523 . S
C3132 C3116 1.368 . S
C3132 C3128 1.368 . S
C3132 C3131 1.523 . S
H3133 C3108 0.950 . S
H3134 C3110 0.950 . S
H3135 C3111 0.949 . S
H3136 C3113 0.950 . S
H3137 C3115 0.950 . S
C3138 C3139 1.349 . S
C3138 C3140 1.327 . S
C3138 H3163 0.950 . S
C3139 C3138 1.349 . S
C3139 C3155 1.349 . S
C3140 C3138 1.327 . S
C3140 C3159 1.429 . S
C3140 H3164 0.950 . S
C3141 C3158 1.574 . S
C3141 C3160 1.368 . S
C3141 H3165 0.949 . S
H3142 C3146 0.949 . S
C3143 C3144 1.349 . S
C3143 C3145 1.327 . S
C3143 H3166 0.950 . S
C3144 C3143 1.349 . S
C3144 C3156 1.349 . S
C3145 C3143 1.327 . S
C3145 C3161 1.429 . S
C3145 H3167 0.950 . S
C3146 H3142 0.949 . S
C3146 C3154 1.574 . S
C3146 C3162 1.368 . S
H3147 C3155 0.950 . S
H3148 C3153 0.950 . S
H3149 C3154 0.949 . S
H3150 C3156 0.950 . S
H3151 C3157 0.950 . S
H3152 C3158 0.949 . S
C3153 H3148 0.950 . S
C3153 C3155 1.327 . S
C3153 C3159 1.429 . S
C3154 C3146 1.574 . S
C3154 H3149 0.949 . S
C3154 C3160 1.368 . S
C3155 C3139 1.349 . S
C3155 H3147 0.950 . S
C3155 C3153 1.327 . S
C3156 C3144 1.349 . S
C3156 H3150 0.950 . S
C3156 C3157 1.327 . S
C3157 H3151 0.950 . S
C3157 C3156 1.327 . S
C3157 C3161 1.429 . S
C3158 C3141 1.574 . S
C3158 H3152 0.949 . S
C3158 C3162 1.368 . S
C3159 C3140 1.429 . S
C3159 C3153 1.429 . S
C3159 C3160 1.523 . S
C3160 C3141 1.368 . S
C3160 C3154 1.368 . S
C3160 C3159 1.523 . S
C3161 C3145 1.429 . S
C3161 C3157 1.429 . S
C3161 C3162 1.523 . S
C3162 C3146 1.368 . S
C3162 C3158 1.368 . S
C3162 C3161 1.523 . S
H3163 C3138 0.950 . S
H3164 C3140 0.950 . S
H3165 C3141 0.949 . S
H3166 C3143 0.950 . S
H3167 C3145 0.950 . S
C3168 C3169 1.349 . S
C3168 C3170 1.327 . S
C3168 H3193 0.950 . S
C3169 C3168 1.349 . S
C3169 C3185 1.349 . S
C3170 C3168 1.327 . S
C3170 C3189 1.429 . S
C3170 H3194 0.950 . S
C3171 C3188 1.574 . S
C3171 C3190 1.368 . S
C3171 H3195 0.949 . S
H3172 C3176 0.949 . S
C3173 C3174 1.349 . S
C3173 C3175 1.327 . S
C3173 H3196 0.950 . S
C3174 C3173 1.349 . S
C3174 C3186 1.349 . S
C3175 C3173 1.327 . S
C3175 C3191 1.429 . S
C3175 H3197 0.950 . S
C3176 H3172 0.949 . S
C3176 C3184 1.574 . S
C3176 C3192 1.368 . S
H3177 C3185 0.950 . S
H3178 C3183 0.950 . S
H3179 C3184 0.949 . S
H3180 C3186 0.950 . S
H3181 C3187 0.950 . S
H3182 C3188 0.949 . S
C3183 H3178 0.950 . S
C3183 C3185 1.327 . S
C3183 C3189 1.429 . S
C3184 C3176 1.574 . S
C3184 H3179 0.949 . S
C3184 C3190 1.368 . S
C3185 C3169 1.349 . S
C3185 H3177 0.950 . S
C3185 C3183 1.327 . S
C3186 C3174 1.349 . S
C3186 H3180 0.950 . S
C3186 C3187 1.327 . S
C3187 H3181 0.950 . S
C3187 C3186 1.327 . S
C3187 C3191 1.429 . S
C3188 C3171 1.574 . S
C3188 H3182 0.949 . S
C3188 C3192 1.368 . S
C3189 C3170 1.429 . S
C3189 C3183 1.429 . S
C3189 C3190 1.523 . S
C3190 C3171 1.368 . S
C3190 C3184 1.368 . S
C3190 C3189 1.523 . S
C3191 C3175 1.429 . S
C3191 C3187 1.429 . S
C3191 C3192 1.523 . S
C3192 C3176 1.368 . S
C3192 C3188 1.368 . S
C3192 C3191 1.523 . S
H3193 C3168 0.950 . S
H3194 C3170 0.950 . S
H3195 C3171 0.949 . S
H3196 C3173 0.950 . S
H3197 C3175 0.950 . S
C3198 C3199 1.349 . S
C3198 C3200 1.327 . S
C3198 H3223 0.950 . S
C3199 C3198 1.349 . S
C3199 C3215 1.349 . S
C3200 C3198 1.327 . S
C3200 C3219 1.429 . S
C3200 H3224 0.950 . S
C3201 C3218 1.574 . S
C3201 C3220 1.368 . S
C3201 H3225 0.949 . S
H3202 C3206 0.949 . S
C3203 C3204 1.349 . S
C3203 C3205 1.327 . S
C3203 H3226 0.950 . S
C3204 C3203 1.349 . S
C3204 C3216 1.349 . S
C3205 C3203 1.327 . S
C3205 C3221 1.429 . S
C3205 H3227 0.950 . S
C3206 H3202 0.949 . S
C3206 C3214 1.574 . S
C3206 C3222 1.368 . S
H3207 C3215 0.950 . S
H3208 C3213 0.950 . S
H3209 C3214 0.949 . S
H3210 C3216 0.950 . S
H3211 C3217 0.950 . S
H3212 C3218 0.949 . S
C3213 H3208 0.950 . S
C3213 C3215 1.327 . S
C3213 C3219 1.429 . S
C3214 C3206 1.574 . S
C3214 H3209 0.949 . S
C3214 C3220 1.368 . S
C3215 C3199 1.349 . S
C3215 H3207 0.950 . S
C3215 C3213 1.327 . S
C3216 C3204 1.349 . S
C3216 H3210 0.950 . S
C3216 C3217 1.327 . S
C3217 H3211 0.950 . S
C3217 C3216 1.327 . S
C3217 C3221 1.429 . S
C3218 C3201 1.574 . S
C3218 H3212 0.949 . S
C3218 C3222 1.368 . S
C3219 C3200 1.429 . S
C3219 C3213 1.429 . S
C3219 C3220 1.523 . S
C3220 C3201 1.368 . S
C3220 C3214 1.368 . S
C3220 C3219 1.523 . S
C3221 C3205 1.429 . S
C3221 C3217 1.429 . S
C3221 C3222 1.523 . S
C3222 C3206 1.368 . S
C3222 C3218 1.368 . S
C3222 C3221 1.523 . S
H3223 C3198 0.950 . S
H3224 C3200 0.950 . S
H3225 C3201 0.949 . S
H3226 C3203 0.950 . S
H3227 C3205 0.950 . S
C3228 C3229 1.349 . S
C3228 C3230 1.327 . S
C3228 H3253 0.950 . S
C3229 C3228 1.349 . S
C3229 C3245 1.349 . S
C3230 C3228 1.327 . S
C3230 C3249 1.429 . S
C3230 H3254 0.950 . S
C3231 C3248 1.574 . S
C3231 C3250 1.368 . S
C3231 H3255 0.949 . S
H3232 C3236 0.949 . S
C3233 C3234 1.349 . S
C3233 C3235 1.327 . S
C3233 H3256 0.950 . S
C3234 C3233 1.349 . S
C3234 C3246 1.349 . S
C3235 C3233 1.327 . S
C3235 C3251 1.429 . S
C3235 H3257 0.950 . S
C3236 H3232 0.949 . S
C3236 C3244 1.574 . S
C3236 C3252 1.368 . S
H3237 C3245 0.950 . S
H3238 C3243 0.950 . S
H3239 C3244 0.949 . S
H3240 C3246 0.950 . S
H3241 C3247 0.950 . S
H3242 C3248 0.949 . S
C3243 H3238 0.950 . S
C3243 C3245 1.327 . S
C3243 C3249 1.429 . S
C3244 C3236 1.574 . S
C3244 H3239 0.949 . S
C3244 C3250 1.368 . S
C3245 C3229 1.349 . S
C3245 H3237 0.950 . S
C3245 C3243 1.327 . S
C3246 C3234 1.349 . S
C3246 H3240 0.950 . S
C3246 C3247 1.327 . S
C3247 H3241 0.950 . S
C3247 C3246 1.327 . S
C3247 C3251 1.429 . S
C3248 C3231 1.574 . S
C3248 H3242 0.949 . S
C3248 C3252 1.368 . S
C3249 C3230 1.429 . S
C3249 C3243 1.429 . S
C3249 C3250 1.523 . S
C3250 C3231 1.368 . S
C3250 C3244 1.368 . S
C3250 C3249 1.523 . S
C3251 C3235 1.429 . S
C3251 C3247 1.429 . S
C3251 C3252 1.523 . S
C3252 C3236 1.368 . S
C3252 C3248 1.368 . S
C3252 C3251 1.523 . S
H3253 C3228 0.950 . S
H3254 C3230 0.950 . S
H3255 C3231 0.949 . S
H3256 C3233 0.950 . S
H3257 C3235 0.950 . S
C3258 C3259 1.349 . S
C3258 C3260 1.327 . S
C3258 H3283 0.950 . S
C3259 C3258 1.349 . S
C3259 C3275 1.349 . S
C3260 C3258 1.327 . S
C3260 C3279 1.429 . S
C3260 H3284 0.950 . S
C3261 C3278 1.574 . S
C3261 C3280 1.368 . S
C3261 H3285 0.949 . S
H3262 C3266 0.949 . S
C3263 C3264 1.349 . S
C3263 C3265 1.327 . S
C3263 H3286 0.950 . S
C3264 C3263 1.349 . S
C3264 C3276 1.349 . S
C3265 C3263 1.327 . S
C3265 C3281 1.429 . S
C3265 H3287 0.950 . S
C3266 H3262 0.949 . S
C3266 C3274 1.574 . S
C3266 C3282 1.368 . S
H3267 C3275 0.950 . S
H3268 C3273 0.950 . S
H3269 C3274 0.949 . S
H3270 C3276 0.950 . S
H3271 C3277 0.950 . S
H3272 C3278 0.949 . S
C3273 H3268 0.950 . S
C3273 C3275 1.327 . S
C3273 C3279 1.429 . S
C3274 C3266 1.574 . S
C3274 H3269 0.949 . S
C3274 C3280 1.368 . S
C3275 C3259 1.349 . S
C3275 H3267 0.950 . S
C3275 C3273 1.327 . S
C3276 C3264 1.349 . S
C3276 H3270 0.950 . S
C3276 C3277 1.327 . S
C3277 H3271 0.950 . S
C3277 C3276 1.327 . S
C3277 C3281 1.429 . S
C3278 C3261 1.574 . S
C3278 H3272 0.949 . S
C3278 C3282 1.368 . S
C3279 C3260 1.429 . S
C3279 C3273 1.429 . S
C3279 C3280 1.523 . S
C3280 C3261 1.368 . S
C3280 C3274 1.368 . S
C3280 C3279 1.523 . S
C3281 C3265 1.429 . S
C3281 C3277 1.429 . S
C3281 C3282 1.523 . S
C3282 C3266 1.368 . S
C3282 C3278 1.368 . S
C3282 C3281 1.523 . S
H3283 C3258 0.950 . S
H3284 C3260 0.950 . S
H3285 C3261 0.949 . S
H3286 C3263 0.950 . S
H3287 C3265 0.950 . S
C3288 C3289 1.349 . S
C3288 C3290 1.327 . S
C3288 H3313 0.950 . S
C3289 C3288 1.349 . S
C3289 C3305 1.349 . S
C3290 C3288 1.327 . S
C3290 C3309 1.429 . S
C3290 H3314 0.950 . S
C3291 C3308 1.574 . S
C3291 C3310 1.368 . S
C3291 H3315 0.949 . S
H3292 C3296 0.949 . S
C3293 C3294 1.349 . S
C3293 C3295 1.327 . S
C3293 H3316 0.950 . S
C3294 C3293 1.349 . S
C3294 C3306 1.349 . S
C3295 C3293 1.327 . S
C3295 C3311 1.429 . S
C3295 H3317 0.950 . S
C3296 H3292 0.949 . S
C3296 C3304 1.574 . S
C3296 C3312 1.368 . S
H3297 C3305 0.950 . S
H3298 C3303 0.950 . S
H3299 C3304 0.949 . S
H3300 C3306 0.950 . S
H3301 C3307 0.950 . S
H3302 C3308 0.949 . S
C3303 H3298 0.950 . S
C3303 C3305 1.327 . S
C3303 C3309 1.429 . S
C3304 C3296 1.574 . S
C3304 H3299 0.949 . S
C3304 C3310 1.368 . S
C3305 C3289 1.349 . S
C3305 H3297 0.950 . S
C3305 C3303 1.327 . S
C3306 C3294 1.349 . S
C3306 H3300 0.950 . S
C3306 C3307 1.327 . S
C3307 H3301 0.950 . S
C3307 C3306 1.327 . S
C3307 C3311 1.429 . S
C3308 C3291 1.574 . S
C3308 H3302 0.949 . S
C3308 C3312 1.368 . S
C3309 C3290 1.429 . S
C3309 C3303 1.429 . S
C3309 C3310 1.523 . S
C3310 C3291 1.368 . S
C3310 C3304 1.368 . S
C3310 C3309 1.523 . S
C3311 C3295 1.429 . S
C3311 C3307 1.429 . S
C3311 C3312 1.523 . S
C3312 C3296 1.368 . S
C3312 C3308 1.368 . S
C3312 C3311 1.523 . S
H3313 C3288 0.950 . S
H3314 C3290 0.950 . S
H3315 C3291 0.949 . S
H3316 C3293 0.950 . S
H3317 C3295 0.950 . S
C3318 C3319 1.349 . S
C3318 C3320 1.327 . S
C3318 H3343 0.950 . S
C3319 C3318 1.349 . S
C3319 C3335 1.349 . S
C3320 C3318 1.327 . S
C3320 C3339 1.429 . S
C3320 H3344 0.950 . S
C3321 C3338 1.574 . S
C3321 C3340 1.368 . S
C3321 H3345 0.949 . S
H3322 C3326 0.949 . S
C3323 C3324 1.349 . S
C3323 C3325 1.327 . S
C3323 H3346 0.950 . S
C3324 C3323 1.349 . S
C3324 C3336 1.349 . S
C3325 C3323 1.327 . S
C3325 C3341 1.429 . S
C3325 H3347 0.950 . S
C3326 H3322 0.949 . S
C3326 C3334 1.574 . S
C3326 C3342 1.368 . S
H3327 C3335 0.950 . S
H3328 C3333 0.950 . S
H3329 C3334 0.949 . S
H3330 C3336 0.950 . S
H3331 C3337 0.950 . S
H3332 C3338 0.949 . S
C3333 H3328 0.950 . S
C3333 C3335 1.327 . S
C3333 C3339 1.429 . S
C3334 C3326 1.574 . S
C3334 H3329 0.949 . S
C3334 C3340 1.368 . S
C3335 C3319 1.349 . S
C3335 H3327 0.950 . S
C3335 C3333 1.327 . S
C3336 C3324 1.349 . S
C3336 H3330 0.950 . S
C3336 C3337 1.327 . S
C3337 H3331 0.950 . S
C3337 C3336 1.327 . S
C3337 C3341 1.429 . S
C3338 C3321 1.574 . S
C3338 H3332 0.949 . S
C3338 C3342 1.368 . S
C3339 C3320 1.429 . S
C3339 C3333 1.429 . S
C3339 C3340 1.523 . S
C3340 C3321 1.368 . S
C3340 C3334 1.368 . S
C3340 C3339 1.523 . S
C3341 C3325 1.429 . S
C3341 C3337 1.429 . S
C3341 C3342 1.523 . S
C3342 C3326 1.368 . S
C3342 C3338 1.368 . S
C3342 C3341 1.523 . S
H3343 C3318 0.950 . S
H3344 C3320 0.950 . S
H3345 C3321 0.949 . S
H3346 C3323 0.950 . S
H3347 C3325 0.950 . S
C3348 C3349 1.349 . S
C3348 C3350 1.327 . S
C3348 H3373 0.950 . S
C3349 C3348 1.349 . S
C3349 C3365 1.349 . S
C3350 C3348 1.327 . S
C3350 C3369 1.429 . S
C3350 H3374 0.950 . S
C3351 C3368 1.574 . S
C3351 C3370 1.368 . S
C3351 H3375 0.949 . S
H3352 C3356 0.949 . S
C3353 C3354 1.349 . S
C3353 C3355 1.327 . S
C3353 H3376 0.950 . S
C3354 C3353 1.349 . S
C3354 C3366 1.349 . S
C3355 C3353 1.327 . S
C3355 C3371 1.429 . S
C3355 H3377 0.950 . S
C3356 H3352 0.949 . S
C3356 C3364 1.574 . S
C3356 C3372 1.368 . S
H3357 C3365 0.950 . S
H3358 C3363 0.950 . S
H3359 C3364 0.949 . S
H3360 C3366 0.950 . S
H3361 C3367 0.950 . S
H3362 C3368 0.949 . S
C3363 H3358 0.950 . S
C3363 C3365 1.327 . S
C3363 C3369 1.429 . S
C3364 C3356 1.574 . S
C3364 H3359 0.949 . S
C3364 C3370 1.368 . S
C3365 C3349 1.349 . S
C3365 H3357 0.950 . S
C3365 C3363 1.327 . S
C3366 C3354 1.349 . S
C3366 H3360 0.950 . S
C3366 C3367 1.327 . S
C3367 H3361 0.950 . S
C3367 C3366 1.327 . S
C3367 C3371 1.429 . S
C3368 C3351 1.574 . S
C3368 H3362 0.949 . S
C3368 C3372 1.368 . S
C3369 C3350 1.429 . S
C3369 C3363 1.429 . S
C3369 C3370 1.523 . S
C3370 C3351 1.368 . S
C3370 C3364 1.368 . S
C3370 C3369 1.523 . S
C3371 C3355 1.429 . S
C3371 C3367 1.429 . S
C3371 C3372 1.523 . S
C3372 C3356 1.368 . S
C3372 C3368 1.368 . S
C3372 C3371 1.523 . S
H3373 C3348 0.950 . S
H3374 C3350 0.950 . S
H3375 C3351 0.949 . S
H3376 C3353 0.950 . S
H3377 C3355 0.950 . S
C3378 C3379 1.349 . S
C3378 C3380 1.327 . S
C3378 H3403 0.950 . S
C3379 C3378 1.349 . S
C3379 C3395 1.349 . S
C3380 C3378 1.327 . S
C3380 C3399 1.429 . S
C3380 H3404 0.950 . S
C3381 C3398 1.574 . S
C3381 C3400 1.368 . S
C3381 H3405 0.949 . S
H3382 C3386 0.949 . S
C3383 C3384 1.349 . S
C3383 C3385 1.327 . S
C3383 H3406 0.950 . S
C3384 C3383 1.349 . S
C3384 C3396 1.349 . S
C3385 C3383 1.327 . S
C3385 C3401 1.429 . S
C3385 H3407 0.950 . S
C3386 H3382 0.949 . S
C3386 C3394 1.574 . S
C3386 C3402 1.368 . S
H3387 C3395 0.950 . S
H3388 C3393 0.950 . S
H3389 C3394 0.949 . S
H3390 C3396 0.950 . S
H3391 C3397 0.950 . S
H3392 C3398 0.949 . S
C3393 H3388 0.950 . S
C3393 C3395 1.327 . S
C3393 C3399 1.429 . S
C3394 C3386 1.574 . S
C3394 H3389 0.949 . S
C3394 C3400 1.368 . S
C3395 C3379 1.349 . S
C3395 H3387 0.950 . S
C3395 C3393 1.327 . S
C3396 C3384 1.349 . S
C3396 H3390 0.950 . S
C3396 C3397 1.327 . S
C3397 H3391 0.950 . S
C3397 C3396 1.327 . S
C3397 C3401 1.429 . S
C3398 C3381 1.574 . S
C3398 H3392 0.949 . S
C3398 C3402 1.368 . S
C3399 C3380 1.429 . S
C3399 C3393 1.429 . S
C3399 C3400 1.523 . S
C3400 C3381 1.368 . S
C3400 C3394 1.368 . S
C3400 C3399 1.523 . S
C3401 C3385 1.429 . S
C3401 C3397 1.429 . S
C3401 C3402 1.523 . S
C3402 C3386 1.368 . S
C3402 C3398 1.368 . S
C3402 C3401 1.523 . S
H3403 C3378 0.950 . S
H3404 C3380 0.950 . S
H3405 C3381 0.949 . S
H3406 C3383 0.950 . S
H3407 C3385 0.950 . S
C3408 C3409 1.349 . S
C3408 C3410 1.327 . S
C3408 H3433 0.950 . S
C3409 C3408 1.349 . S
C3409 C3425 1.349 . S
C3410 C3408 1.327 . S
C3410 C3429 1.429 . S
C3410 H3434 0.950 . S
C3411 C3428 1.574 . S
C3411 C3430 1.368 . S
C3411 H3435 0.949 . S
H3412 C3416 0.949 . S
C3413 C3414 1.349 . S
C3413 C3415 1.327 . S
C3413 H3436 0.950 . S
C3414 C3413 1.349 . S
C3414 C3426 1.349 . S
C3415 C3413 1.327 . S
C3415 C3431 1.429 . S
C3415 H3437 0.950 . S
C3416 H3412 0.949 . S
C3416 C3424 1.574 . S
C3416 C3432 1.368 . S
H3417 C3425 0.950 . S
H3418 C3423 0.950 . S
H3419 C3424 0.949 . S
H3420 C3426 0.950 . S
H3421 C3427 0.950 . S
H3422 C3428 0.949 . S
C3423 H3418 0.950 . S
C3423 C3425 1.327 . S
C3423 C3429 1.429 . S
C3424 C3416 1.574 . S
C3424 H3419 0.949 . S
C3424 C3430 1.368 . S
C3425 C3409 1.349 . S
C3425 H3417 0.950 . S
C3425 C3423 1.327 . S
C3426 C3414 1.349 . S
C3426 H3420 0.950 . S
C3426 C3427 1.327 . S
C3427 H3421 0.950 . S
C3427 C3426 1.327 . S
C3427 C3431 1.429 . S
C3428 C3411 1.574 . S
C3428 H3422 0.949 . S
C3428 C3432 1.368 . S
C3429 C3410 1.429 . S
C3429 C3423 1.429 . S
C3429 C3430 1.523 . S
C3430 C3411 1.368 . S
C3430 C3424 1.368 . S
C3430 C3429 1.523 . S
C3431 C3415 1.429 . S
C3431 C3427 1.429 . S
C3431 C3432 1.523 . S
C3432 C3416 1.368 . S
C3432 C3428 1.368 . S
C3432 C3431 1.523 . S
H3433 C3408 0.950 . S
H3434 C3410 0.950 . S
H3435 C3411 0.949 . S
H3436 C3413 0.950 . S
H3437 C3415 0.950 . S
C3438 C3439 1.349 . S
C3438 C3440 1.327 . S
C3438 H3463 0.950 . S
C3439 C3438 1.349 . S
C3439 C3455 1.349 . S
C3440 C3438 1.327 . S
C3440 C3459 1.429 . S
C3440 H3464 0.950 . S
C3441 C3458 1.574 . S
C3441 C3460 1.368 . S
C3441 H3465 0.949 . S
H3442 C3446 0.949 . S
C3443 C3444 1.349 . S
C3443 C3445 1.327 . S
C3443 H3466 0.950 . S
C3444 C3443 1.349 . S
C3444 C3456 1.349 . S
C3445 C3443 1.327 . S
C3445 C3461 1.429 . S
C3445 H3467 0.950 . S
C3446 H3442 0.949 . S
C3446 C3454 1.574 . S
C3446 C3462 1.368 . S
H3447 C3455 0.950 . S
H3448 C3453 0.950 . S
H3449 C3454 0.949 . S
H3450 C3456 0.920 1_455 S
H3451 C3457 0.950 . S
H3452 C3458 0.949 . S
C3453 H3448 0.950 . S
C3453 C3455 1.327 . S
C3453 C3459 1.429 . S
C3454 C3446 1.574 . S
C3454 H3449 0.949 . S
C3454 C3460 1.368 . S
C3455 C3439 1.349 . S
C3455 H3447 0.950 . S
C3455 C3453 1.327 . S
C3456 C3444 1.349 . S
C3456 H3450 0.920 1_655 S
C3456 C3457 1.327 . S
C3457 H3451 0.950 . S
C3457 C3456 1.327 . S
C3457 C3461 1.429 . S
C3458 C3441 1.574 . S
C3458 H3452 0.949 . S
C3458 C3462 1.368 . S
C3459 C3440 1.429 . S
C3459 C3453 1.429 . S
C3459 C3460 1.523 . S
C3460 C3441 1.368 . S
C3460 C3454 1.368 . S
C3460 C3459 1.523 . S
C3461 C3445 1.429 . S
C3461 C3457 1.429 . S
C3461 C3462 1.523 . S
C3462 C3446 1.368 . S
C3462 C3458 1.368 . S
C3462 C3461 1.523 . S
H3463 C3438 0.950 . S
H3464 C3440 0.950 . S
H3465 C3441 0.949 . S
H3466 C3443 0.950 . S
H3467 C3445 0.950 . S
C3468 C3469 1.349 . S
C3468 C3470 1.327 . S
C3468 H3493 0.950 . S
C3469 C3468 1.349 . S
C3469 C3485 1.349 . S
C3470 C3468 1.327 . S
C3470 C3489 1.429 . S
C3470 H3494 0.950 . S
C3471 C3488 1.574 . S
C3471 C3490 1.368 . S
C3471 H3495 0.949 . S
H3472 C3476 0.949 . S
C3473 C3474 1.349 . S
C3473 C3475 1.327 . S
C3473 H3496 0.950 . S
C3474 C3473 1.349 . S
C3474 C3486 1.349 . S
C3475 C3473 1.327 . S
C3475 C3491 1.429 . S
C3475 H3497 0.950 . S
C3476 H3472 0.949 . S
C3476 C3484 1.574 . S
C3476 C3492 1.368 . S
H3477 C3485 0.950 . S
H3478 C3483 0.950 . S
H3479 C3484 0.949 . S
H3480 C3486 0.950 . S
H3481 C3487 0.950 . S
H3482 C3488 0.949 . S
C3483 H3478 0.950 . S
C3483 C3485 1.327 . S
C3483 C3489 1.429 . S
C3484 C3476 1.574 . S
C3484 H3479 0.949 . S
C3484 C3490 1.368 . S
C3485 C3469 1.349 . S
C3485 H3477 0.950 . S
C3485 C3483 1.327 . S
C3486 C3474 1.349 . S
C3486 H3480 0.950 . S
C3486 C3487 1.327 . S
C3487 H3481 0.950 . S
C3487 C3486 1.327 . S
C3487 C3491 1.429 . S
C3488 C3471 1.574 . S
C3488 H3482 0.949 . S
C3488 C3492 1.368 . S
C3489 C3470 1.429 . S
C3489 C3483 1.429 . S
C3489 C3490 1.523 . S
C3490 C3471 1.368 . S
C3490 C3484 1.368 . S
C3490 C3489 1.523 . S
C3491 C3475 1.429 . S
C3491 C3487 1.429 . S
C3491 C3492 1.523 . S
C3492 C3476 1.368 . S
C3492 C3488 1.368 . S
C3492 C3491 1.523 . S
H3493 C3468 0.950 . S
H3494 C3470 0.950 . S
H3495 C3471 0.949 . S
H3496 C3473 0.950 . S
H3497 C3475 0.950 . S
C3498 C3499 1.349 . S
C3498 C3500 1.327 . S
C3498 H3523 0.950 . S
C3499 C3498 1.349 . S
C3499 C3515 1.349 . S
C3500 C3498 1.327 . S
C3500 C3519 1.429 . S
C3500 H3524 0.950 . S
C3501 C3518 1.574 . S
C3501 C3520 1.368 . S
C3501 H3525 0.949 . S
H3502 C3506 0.949 . S
C3503 C3504 1.349 . S
C3503 C3505 1.327 . S
C3503 H3526 0.950 . S
C3504 C3503 1.349 . S
C3504 C3516 1.349 . S
C3505 C3503 1.327 . S
C3505 C3521 1.429 . S
C3505 H3527 0.950 . S
C3506 H3502 0.949 . S
C3506 C3514 1.574 . S
C3506 C3522 1.368 . S
H3507 C3515 0.950 . S
H3508 C3513 0.950 . S
H3509 C3514 0.949 . S
H3510 C3516 0.950 . S
H3511 C3517 0.950 . S
H3512 C3518 0.949 . S
C3513 H3508 0.950 . S
C3513 C3515 1.327 . S
C3513 C3519 1.429 . S
C3514 C3506 1.574 . S
C3514 H3509 0.949 . S
C3514 C3520 1.368 . S
C3515 C3499 1.349 . S
C3515 H3507 0.950 . S
C3515 C3513 1.327 . S
C3516 C3504 1.349 . S
C3516 H3510 0.950 . S
C3516 C3517 1.327 . S
C3517 H3511 0.950 . S
C3517 C3516 1.327 . S
C3517 C3521 1.429 . S
C3518 C3501 1.574 . S
C3518 H3512 0.949 . S
C3518 C3522 1.368 . S
C3519 C3500 1.429 . S
C3519 C3513 1.429 . S
C3519 C3520 1.523 . S
C3520 C3501 1.368 . S
C3520 C3514 1.368 . S
C3520 C3519 1.523 . S
C3521 C3505 1.429 . S
C3521 C3517 1.429 . S
C3521 C3522 1.523 . S
C3522 C3506 1.368 . S
C3522 C3518 1.368 . S
C3522 C3521 1.523 . S
H3523 C3498 0.950 . S
H3524 C3500 0.950 . S
H3525 C3501 0.949 . S
H3526 C3503 0.950 . S
H3527 C3505 0.950 . S
C3528 C3529 1.349 . S
C3528 C3530 1.327 . S
C3528 H3553 0.950 . S
C3529 C3528 1.349 . S
C3529 C3545 1.349 . S
C3530 C3528 1.327 . S
C3530 C3549 1.429 . S
C3530 H3554 0.950 . S
C3531 C3548 1.574 . S
C3531 C3550 1.368 . S
C3531 H3555 0.949 . S
H3532 C3536 0.949 . S
C3533 C3534 1.349 . S
C3533 C3535 1.327 . S
C3533 H3556 0.950 . S
C3534 C3533 1.349 . S
C3534 C3546 1.349 . S
C3535 C3533 1.327 . S
C3535 C3551 1.429 . S
C3535 H3557 0.950 . S
C3536 H3532 0.949 . S
C3536 C3544 1.574 . S
C3536 C3552 1.368 . S
H3537 C3545 0.950 . S
H3538 C3543 0.950 . S
H3539 C3544 0.949 . S
H3540 C3546 0.950 . S
H3541 C3547 0.950 . S
H3542 C3548 0.949 . S
C3543 H3538 0.950 . S
C3543 C3545 1.327 . S
C3543 C3549 1.429 . S
C3544 C3536 1.574 . S
C3544 H3539 0.949 . S
C3544 C3550 1.368 . S
C3545 C3529 1.349 . S
C3545 H3537 0.950 . S
C3545 C3543 1.327 . S
C3546 C3534 1.349 . S
C3546 H3540 0.950 . S
C3546 C3547 1.327 . S
C3547 H3541 0.950 . S
C3547 C3546 1.327 . S
C3547 C3551 1.429 . S
C3548 C3531 1.574 . S
C3548 H3542 0.949 . S
C3548 C3552 1.368 . S
C3549 C3530 1.429 . S
C3549 C3543 1.429 . S
C3549 C3550 1.523 . S
C3550 C3531 1.368 . S
C3550 C3544 1.368 . S
C3550 C3549 1.523 . S
C3551 C3535 1.429 . S
C3551 C3547 1.429 . S
C3551 C3552 1.523 . S
C3552 C3536 1.368 . S
C3552 C3548 1.368 . S
C3552 C3551 1.523 . S
H3553 C3528 0.950 . S
H3554 C3530 0.950 . S
H3555 C3531 0.949 . S
H3556 C3533 0.950 . S
H3557 C3535 0.950 . S
C3558 C3559 1.349 . S
C3558 C3560 1.327 . S
C3558 H3583 0.950 . S
C3559 C3558 1.349 . S
C3559 C3575 1.349 . S
C3560 C3558 1.327 . S
C3560 C3579 1.429 . S
C3560 H3584 0.950 . S
C3561 C3578 1.574 . S
C3561 C3580 1.368 . S
C3561 H3585 0.949 . S
H3562 C3566 0.949 . S
C3563 C3564 1.349 . S
C3563 C3565 1.327 . S
C3563 H3586 0.950 . S
C3564 C3563 1.349 . S
C3564 C3576 1.349 . S
C3565 C3563 1.327 . S
C3565 C3581 1.429 . S
C3565 H3587 0.950 . S
C3566 H3562 0.949 . S
C3566 C3574 1.574 . S
C3566 C3582 1.368 . S
H3567 C3575 0.950 . S
H3568 C3573 0.950 . S
H3569 C3574 0.949 . S
H3570 C3576 0.950 . S
H3571 C3577 0.950 . S
H3572 C3578 0.949 . S
C3573 H3568 0.950 . S
C3573 C3575 1.327 . S
C3573 C3579 1.429 . S
C3574 C3566 1.574 . S
C3574 H3569 0.949 . S
C3574 C3580 1.368 . S
C3575 C3559 1.349 . S
C3575 H3567 0.950 . S
C3575 C3573 1.327 . S
C3576 C3564 1.349 . S
C3576 H3570 0.950 . S
C3576 C3577 1.327 . S
C3577 H3571 0.950 . S
C3577 C3576 1.327 . S
C3577 C3581 1.429 . S
C3578 C3561 1.574 . S
C3578 H3572 0.949 . S
C3578 C3582 1.368 . S
C3579 C3560 1.429 . S
C3579 C3573 1.429 . S
C3579 C3580 1.523 . S
C3580 C3561 1.368 . S
C3580 C3574 1.368 . S
C3580 C3579 1.523 . S
C3581 C3565 1.429 . S
C3581 C3577 1.429 . S
C3581 C3582 1.523 . S
C3582 C3566 1.368 . S
C3582 C3578 1.368 . S
C3582 C3581 1.523 . S
H3583 C3558 0.950 . S
H3584 C3560 0.950 . S
H3585 C3561 0.949 . S
H3586 C3563 0.950 . S
H3587 C3565 0.950 . S
C3588 C3589 1.349 . S
C3588 C3590 1.327 . S
C3588 H3613 0.953 . S
C3589 C3588 1.349 . S
C3589 C3605 1.349 . S
C3590 C3588 1.327 . S
C3590 C3609 1.429 . S
C3590 H3614 0.950 1_455 S
C3591 C3608 1.574 . S
C3591 C3610 1.368 . S
C3591 H3615 0.949 . S
H3592 C3596 0.914 1_655 S
C3593 C3594 1.349 . S
C3593 C3595 1.327 . S
C3593 H3616 0.950 . S
C3594 C3593 1.349 . S
C3594 C3606 1.343 1_455 S
C3595 C3593 1.327 . S
C3595 C3611 1.429 . S
C3595 H3617 0.950 . S
C3596 H3592 0.914 1_455 S
C3596 C3604 1.605 . S
C3596 C3612 1.383 . S
H3597 C3605 0.950 . S
H3598 C3603 0.950 . S
H3599 C3604 0.949 1_655 S
H3600 C3606 1.001 . S
H3601 C3607 0.954 . S
H3602 C3608 0.949 . S
C3603 H3598 0.950 . S
C3603 C3605 1.327 . S
C3603 C3609 1.429 . S
C3604 C3596 1.605 . S
C3604 H3599 0.949 1_455 S
C3604 C3610 1.368 . S
C3605 C3589 1.349 . S
C3605 H3597 0.950 . S
C3605 C3603 1.327 . S
C3606 C3594 1.343 1_655 S
C3606 H3600 1.001 . S
C3606 C3607 1.305 . S
C3607 H3601 0.954 . S
C3607 C3606 1.305 . S
C3607 C3611 1.412 1_655 S
C3608 C3591 1.574 . S
C3608 H3602 0.949 . S
C3608 C3612 1.368 . S
C3609 C3590 1.429 . S
C3609 C3603 1.429 . S
C3609 C3610 1.523 . S
C3610 C3591 1.368 . S
C3610 C3604 1.368 . S
C3610 C3609 1.523 . S
C3611 C3595 1.429 . S
C3611 C3607 1.412 1_455 S
C3611 C3612 1.523 . S
C3612 C3596 1.383 . S
C3612 C3608 1.368 . S
C3612 C3611 1.523 . S
H3613 C3588 0.953 . S
H3614 C3590 0.950 1_655 S
H3615 C3591 0.949 . S
H3616 C3593 0.950 . S
H3617 C3595 0.950 . S
C3618 C3619 1.349 . S
C3618 C3620 1.327 . S
C3618 H3643 0.950 . S
C3619 C3618 1.349 . S
C3619 C3635 1.349 . S
C3620 C3618 1.327 . S
C3620 C3639 1.429 . S
C3620 H3644 0.950 . S
C3621 C3638 1.574 . S
C3621 C3640 1.368 . S
C3621 H3645 0.949 . S
H3622 C3626 0.949 . S
C3623 C3624 1.349 . S
C3623 C3625 1.327 . S
C3623 H3646 0.950 . S
C3624 C3623 1.349 . S
C3624 C3636 1.349 . S
C3625 C3623 1.327 . S
C3625 C3641 1.429 . S
C3625 H3647 0.950 . S
C3626 H3622 0.949 . S
C3626 C3634 1.574 . S
C3626 C3642 1.368 . S
H3627 C3635 0.950 . S
H3628 C3633 0.950 . S
H3629 C3634 0.949 . S
H3630 C3636 0.950 . S
H3631 C3637 0.950 . S
H3632 C3638 0.949 . S
C3633 H3628 0.950 . S
C3633 C3635 1.327 . S
C3633 C3639 1.429 . S
C3634 C3626 1.574 . S
C3634 H3629 0.949 . S
C3634 C3640 1.368 . S
C3635 C3619 1.349 . S
C3635 H3627 0.950 . S
C3635 C3633 1.327 . S
C3636 C3624 1.349 . S
C3636 H3630 0.950 . S
C3636 C3637 1.327 . S
C3637 H3631 0.950 . S
C3637 C3636 1.327 . S
C3637 C3641 1.429 . S
C3638 C3621 1.574 . S
C3638 H3632 0.949 . S
C3638 C3642 1.368 . S
C3639 C3620 1.429 . S
C3639 C3633 1.429 . S
C3639 C3640 1.523 . S
C3640 C3621 1.368 . S
C3640 C3634 1.368 . S
C3640 C3639 1.523 . S
C3641 C3625 1.429 . S
C3641 C3637 1.429 . S
C3641 C3642 1.523 . S
C3642 C3626 1.368 . S
C3642 C3638 1.368 . S
C3642 C3641 1.523 . S
H3643 C3618 0.950 . S
H3644 C3620 0.950 . S
H3645 C3621 0.949 . S
H3646 C3623 0.950 . S
H3647 C3625 0.950 . S
C3648 C3649 1.349 . S
C3648 C3650 1.327 . S
C3648 H3673 0.950 . S
C3649 C3648 1.349 . S
C3649 C3665 1.349 . S
C3650 C3648 1.327 . S
C3650 C3669 1.429 . S
C3650 H3674 0.950 . S
C3651 C3668 1.574 . S
C3651 C3670 1.368 . S
C3651 H3675 0.949 . S
H3652 C3656 0.949 . S
C3653 C3654 1.349 . S
C3653 C3655 1.327 . S
C3653 H3676 0.950 . S
C3654 C3653 1.349 . S
C3654 C3666 1.349 . S
C3655 C3653 1.327 . S
C3655 C3671 1.429 . S
C3655 H3677 0.950 . S
C3656 H3652 0.949 . S
C3656 C3664 1.574 . S
C3656 C3672 1.368 . S
H3657 C3665 0.950 . S
H3658 C3663 0.950 . S
H3659 C3664 0.949 . S
H3660 C3666 0.950 . S
H3661 C3667 0.950 . S
H3662 C3668 0.949 . S
C3663 H3658 0.950 . S
C3663 C3665 1.327 . S
C3663 C3669 1.429 . S
C3664 C3656 1.574 . S
C3664 H3659 0.949 . S
C3664 C3670 1.368 . S
C3665 C3649 1.349 . S
C3665 H3657 0.950 . S
C3665 C3663 1.327 . S
C3666 C3654 1.349 . S
C3666 H3660 0.950 . S
C3666 C3667 1.327 . S
C3667 H3661 0.950 . S
C3667 C3666 1.327 . S
C3667 C3671 1.429 . S
C3668 C3651 1.574 . S
C3668 H3662 0.949 . S
C3668 C3672 1.368 . S
C3669 C3650 1.429 . S
C3669 C3663 1.429 . S
C3669 C3670 1.523 . S
C3670 C3651 1.368 . S
C3670 C3664 1.368 . S
C3670 C3669 1.523 . S
C3671 C3655 1.429 . S
C3671 C3667 1.429 . S
C3671 C3672 1.523 . S
C3672 C3656 1.368 . S
C3672 C3668 1.368 . S
C3672 C3671 1.523 . S
H3673 C3648 0.950 . S
H3674 C3650 0.950 . S
H3675 C3651 0.949 . S
H3676 C3653 0.950 . S
H3677 C3655 0.950 . S
C3678 C3679 1.349 . S
C3678 C3680 1.327 . S
C3678 H3703 0.950 . S
C3679 C3678 1.349 . S
C3679 C3695 1.349 . S
C3680 C3678 1.327 . S
C3680 C3699 1.429 . S
C3680 H3704 0.950 . S
C3681 C3698 1.574 . S
C3681 C3700 1.368 . S
C3681 H3705 0.949 . S
H3682 C3686 0.949 . S
C3683 C3684 1.349 . S
C3683 C3685 1.327 . S
C3683 H3706 0.950 . S
C3684 C3683 1.349 . S
C3684 C3696 1.349 . S
C3685 C3683 1.327 . S
C3685 C3701 1.429 . S
C3685 H3707 0.950 . S
C3686 H3682 0.949 . S
C3686 C3694 1.574 . S
C3686 C3702 1.368 . S
H3687 C3695 0.950 . S
H3688 C3693 0.950 . S
H3689 C3694 0.949 . S
H3690 C3696 0.950 . S
H3691 C3697 0.950 . S
H3692 C3698 0.949 . S
C3693 H3688 0.950 . S
C3693 C3695 1.327 . S
C3693 C3699 1.429 . S
C3694 C3686 1.574 . S
C3694 H3689 0.949 . S
C3694 C3700 1.368 . S
C3695 C3679 1.349 . S
C3695 H3687 0.950 . S
C3695 C3693 1.327 . S
C3696 C3684 1.349 . S
C3696 H3690 0.950 . S
C3696 C3697 1.327 . S
C3697 H3691 0.950 . S
C3697 C3696 1.327 . S
C3697 C3701 1.429 . S
C3698 C3681 1.574 . S
C3698 H3692 0.949 . S
C3698 C3702 1.368 . S
C3699 C3680 1.429 . S
C3699 C3693 1.429 . S
C3699 C3700 1.523 . S
C3700 C3681 1.368 . S
C3700 C3694 1.368 . S
C3700 C3699 1.523 . S
C3701 C3685 1.429 . S
C3701 C3697 1.429 . S
C3701 C3702 1.523 . S
C3702 C3686 1.368 . S
C3702 C3698 1.368 . S
C3702 C3701 1.523 . S
H3703 C3678 0.950 . S
H3704 C3680 0.950 . S
H3705 C3681 0.949 . S
H3706 C3683 0.950 . S
H3707 C3685 0.950 . S
C3708 C3709 1.349 . S
C3708 C3710 1.327 . S
C3708 H3733 0.950 . S
C3709 C3708 1.349 . S
C3709 C3725 1.349 . S
C3710 C3708 1.327 . S
C3710 C3729 1.429 . S
C3710 H3734 0.950 . S
C3711 C3728 1.574 . S
C3711 C3730 1.368 . S
C3711 H3735 0.949 . S
H3712 C3716 0.949 . S
C3713 C3714 1.349 . S
C3713 C3715 1.327 . S
C3713 H3736 0.950 . S
C3714 C3713 1.349 . S
C3714 C3726 1.349 . S
C3715 C3713 1.327 . S
C3715 C3731 1.429 . S
C3715 H3737 0.950 . S
C3716 H3712 0.949 . S
C3716 C3724 1.574 . S
C3716 C3732 1.368 . S
H3717 C3725 0.950 . S
H3718 C3723 0.950 . S
H3719 C3724 0.949 . S
H3720 C3726 0.950 . S
H3721 C3727 0.950 . S
H3722 C3728 0.949 . S
C3723 H3718 0.950 . S
C3723 C3725 1.327 . S
C3723 C3729 1.429 . S
C3724 C3716 1.574 . S
C3724 H3719 0.949 . S
C3724 C3730 1.368 . S
C3725 C3709 1.349 . S
C3725 H3717 0.950 . S
C3725 C3723 1.327 . S
C3726 C3714 1.349 . S
C3726 H3720 0.950 . S
C3726 C3727 1.327 . S
C3727 H3721 0.950 . S
C3727 C3726 1.327 . S
C3727 C3731 1.429 . S
C3728 C3711 1.574 . S
C3728 H3722 0.949 . S
C3728 C3732 1.368 . S
C3729 C3710 1.429 . S
C3729 C3723 1.429 . S
C3729 C3730 1.523 . S
C3730 C3711 1.368 . S
C3730 C3724 1.368 . S
C3730 C3729 1.523 . S
C3731 C3715 1.429 . S
C3731 C3727 1.429 . S
C3731 C3732 1.523 . S
C3732 C3716 1.368 . S
C3732 C3728 1.368 . S
C3732 C3731 1.523 . S
H3733 C3708 0.950 . S
H3734 C3710 0.950 . S
H3735 C3711 0.949 . S
H3736 C3713 0.950 . S
H3737 C3715 0.950 . S
C3738 C3739 1.349 . S
C3738 C3740 1.327 . S
C3738 H3763 0.950 . S
C3739 C3738 1.349 . S
C3739 C3755 1.349 . S
C3740 C3738 1.327 . S
C3740 C3759 1.429 . S
C3740 H3764 0.950 . S
C3741 C3758 1.574 . S
C3741 C3760 1.368 . S
C3741 H3765 0.949 . S
H3742 C3746 0.949 . S
C3743 C3744 1.349 . S
C3743 C3745 1.327 . S
C3743 H3766 0.950 . S
C3744 C3743 1.349 . S
C3744 C3756 1.349 . S
C3745 C3743 1.327 . S
C3745 C3761 1.429 . S
C3745 H3767 0.950 . S
C3746 H3742 0.949 . S
C3746 C3754 1.574 . S
C3746 C3762 1.368 . S
H3747 C3755 0.950 . S
H3748 C3753 0.950 . S
H3749 C3754 0.949 . S
H3750 C3756 0.950 . S
H3751 C3757 0.950 . S
H3752 C3758 0.949 . S
C3753 H3748 0.950 . S
C3753 C3755 1.327 . S
C3753 C3759 1.429 . S
C3754 C3746 1.574 . S
C3754 H3749 0.949 . S
C3754 C3760 1.368 . S
C3755 C3739 1.349 . S
C3755 H3747 0.950 . S
C3755 C3753 1.327 . S
C3756 C3744 1.349 . S
C3756 H3750 0.950 . S
C3756 C3757 1.327 . S
C3757 H3751 0.950 . S
C3757 C3756 1.327 . S
C3757 C3761 1.429 . S
C3758 C3741 1.574 . S
C3758 H3752 0.949 . S
C3758 C3762 1.368 . S
C3759 C3740 1.429 . S
C3759 C3753 1.429 . S
C3759 C3760 1.523 . S
C3760 C3741 1.368 . S
C3760 C3754 1.368 . S
C3760 C3759 1.523 . S
C3761 C3745 1.429 . S
C3761 C3757 1.429 . S
C3761 C3762 1.523 . S
C3762 C3746 1.368 . S
C3762 C3758 1.368 . S
C3762 C3761 1.523 . S
H3763 C3738 0.950 . S
H3764 C3740 0.950 . S
H3765 C3741 0.949 . S
H3766 C3743 0.950 . S
H3767 C3745 0.950 . S
C3768 C3769 1.349 . S
C3768 C3770 1.327 . S
C3768 H3793 0.950 . S
C3769 C3768 1.349 . S
C3769 C3785 1.349 . S
C3770 C3768 1.327 . S
C3770 C3789 1.429 . S
C3770 H3794 0.950 . S
C3771 C3788 1.574 . S
C3771 C3790 1.368 . S
C3771 H3795 0.949 . S
H3772 C3776 0.949 . S
C3773 C3774 1.349 . S
C3773 C3775 1.327 . S
C3773 H3796 0.950 . S
C3774 C3773 1.349 . S
C3774 C3786 1.349 . S
C3775 C3773 1.327 . S
C3775 C3791 1.429 . S
C3775 H3797 0.950 . S
C3776 H3772 0.949 . S
C3776 C3784 1.574 . S
C3776 C3792 1.368 . S
H3777 C3785 0.950 . S
H3778 C3783 0.950 . S
H3779 C3784 0.949 . S
H3780 C3786 0.950 . S
H3781 C3787 0.950 . S
H3782 C3788 0.949 . S
C3783 H3778 0.950 . S
C3783 C3785 1.327 . S
C3783 C3789 1.429 . S
C3784 C3776 1.574 . S
C3784 H3779 0.949 . S
C3784 C3790 1.368 . S
C3785 C3769 1.349 . S
C3785 H3777 0.950 . S
C3785 C3783 1.327 . S
C3786 C3774 1.349 . S
C3786 H3780 0.950 . S
C3786 C3787 1.327 . S
C3787 H3781 0.950 . S
C3787 C3786 1.327 . S
C3787 C3791 1.429 . S
C3788 C3771 1.574 . S
C3788 H3782 0.949 . S
C3788 C3792 1.368 . S
C3789 C3770 1.429 . S
C3789 C3783 1.429 . S
C3789 C3790 1.523 . S
C3790 C3771 1.368 . S
C3790 C3784 1.368 . S
C3790 C3789 1.523 . S
C3791 C3775 1.429 . S
C3791 C3787 1.429 . S
C3791 C3792 1.523 . S
C3792 C3776 1.368 . S
C3792 C3788 1.368 . S
C3792 C3791 1.523 . S
H3793 C3768 0.950 . S
H3794 C3770 0.950 . S
H3795 C3771 0.949 . S
H3796 C3773 0.950 . S
H3797 C3775 0.950 . S
C3798 C3799 1.349 . S
C3798 C3800 1.327 . S
C3798 H3823 0.950 . S
C3799 C3798 1.349 . S
C3799 C3815 1.349 . S
C3800 C3798 1.327 . S
C3800 C3819 1.429 . S
C3800 H3824 0.950 . S
C3801 C3818 1.574 . S
C3801 C3820 1.368 . S
C3801 H3825 0.949 . S
H3802 C3806 0.949 . S
C3803 C3804 1.349 . S
C3803 C3805 1.327 . S
C3803 H3826 0.950 . S
C3804 C3803 1.349 . S
C3804 C3816 1.349 . S
C3805 C3803 1.327 . S
C3805 C3821 1.429 . S
C3805 H3827 0.950 . S
C3806 H3802 0.949 . S
C3806 C3814 1.574 . S
C3806 C3822 1.368 . S
H3807 C3815 0.950 . S
H3808 C3813 0.950 . S
H3809 C3814 0.949 . S
H3810 C3816 0.950 . S
H3811 C3817 0.950 . S
H3812 C3818 0.949 . S
C3813 H3808 0.950 . S
C3813 C3815 1.327 . S
C3813 C3819 1.429 . S
C3814 C3806 1.574 . S
C3814 H3809 0.949 . S
C3814 C3820 1.368 . S
C3815 C3799 1.349 . S
C3815 H3807 0.950 . S
C3815 C3813 1.327 . S
C3816 C3804 1.349 . S
C3816 H3810 0.950 . S
C3816 C3817 1.327 . S
C3817 H3811 0.950 . S
C3817 C3816 1.327 . S
C3817 C3821 1.429 . S
C3818 C3801 1.574 . S
C3818 H3812 0.949 . S
C3818 C3822 1.368 . S
C3819 C3800 1.429 . S
C3819 C3813 1.429 . S
C3819 C3820 1.523 . S
C3820 C3801 1.368 . S
C3820 C3814 1.368 . S
C3820 C3819 1.523 . S
C3821 C3805 1.429 . S
C3821 C3817 1.429 . S
C3821 C3822 1.523 . S
C3822 C3806 1.368 . S
C3822 C3818 1.368 . S
C3822 C3821 1.523 . S
H3823 C3798 0.950 . S
H3824 C3800 0.950 . S
H3825 C3801 0.949 . S
H3826 C3803 0.950 . S
H3827 C3805 0.950 . S
C3828 C3829 1.349 . S
C3828 C3830 1.327 . S
C3828 H3853 0.950 . S
C3829 C3828 1.349 . S
C3829 C3845 1.349 . S
C3830 C3828 1.327 . S
C3830 C3849 1.429 . S
C3830 H3854 0.950 . S
C3831 C3848 1.574 . S
C3831 C3850 1.368 . S
C3831 H3855 0.949 . S
H3832 C3836 0.949 . S
C3833 C3834 1.349 . S
C3833 C3835 1.327 . S
C3833 H3856 0.950 . S
C3834 C3833 1.349 . S
C3834 C3846 1.349 . S
C3835 C3833 1.327 . S
C3835 C3851 1.429 . S
C3835 H3857 0.950 . S
C3836 H3832 0.949 . S
C3836 C3844 1.574 . S
C3836 C3852 1.368 . S
H3837 C3845 0.950 . S
H3838 C3843 0.950 . S
H3839 C3844 0.949 . S
H3840 C3846 0.950 . S
H3841 C3847 0.950 . S
H3842 C3848 0.949 . S
C3843 H3838 0.950 . S
C3843 C3845 1.327 . S
C3843 C3849 1.429 . S
C3844 C3836 1.574 . S
C3844 H3839 0.949 . S
C3844 C3850 1.368 . S
C3845 C3829 1.349 . S
C3845 H3837 0.950 . S
C3845 C3843 1.327 . S
C3846 C3834 1.349 . S
C3846 H3840 0.950 . S
C3846 C3847 1.327 . S
C3847 H3841 0.950 . S
C3847 C3846 1.327 . S
C3847 C3851 1.429 . S
C3848 C3831 1.574 . S
C3848 H3842 0.949 . S
C3848 C3852 1.368 . S
C3849 C3830 1.429 . S
C3849 C3843 1.429 . S
C3849 C3850 1.523 . S
C3850 C3831 1.368 . S
C3850 C3844 1.368 . S
C3850 C3849 1.523 . S
C3851 C3835 1.429 . S
C3851 C3847 1.429 . S
C3851 C3852 1.523 . S
C3852 C3836 1.368 . S
C3852 C3848 1.368 . S
C3852 C3851 1.523 . S
H3853 C3828 0.950 . S
H3854 C3830 0.950 . S
H3855 C3831 0.949 . S
H3856 C3833 0.950 . S
H3857 C3835 0.950 . S
C3858 C3859 1.349 . S
C3858 C3860 1.327 . S
C3858 H3883 0.950 . S
C3859 C3858 1.349 . S
C3859 C3875 1.349 . S
C3860 C3858 1.327 . S
C3860 C3879 1.429 . S
C3860 H3884 0.950 . S
C3861 C3878 1.574 . S
C3861 C3880 1.368 . S
C3861 H3885 0.949 . S
H3862 C3866 0.949 . S
C3863 C3864 1.349 . S
C3863 C3865 1.327 . S
C3863 H3886 0.950 . S
C3864 C3863 1.349 . S
C3864 C3876 1.349 . S
C3865 C3863 1.327 . S
C3865 C3881 1.429 . S
C3865 H3887 0.950 . S
C3866 H3862 0.949 . S
C3866 C3874 1.574 . S
C3866 C3882 1.368 . S
H3867 C3875 0.950 . S
H3868 C3873 0.950 . S
H3869 C3874 0.949 . S
H3870 C3876 0.950 . S
H3871 C3877 0.950 . S
H3872 C3878 0.949 . S
C3873 H3868 0.950 . S
C3873 C3875 1.327 . S
C3873 C3879 1.429 . S
C3874 C3866 1.574 . S
C3874 H3869 0.949 . S
C3874 C3880 1.368 . S
C3875 C3859 1.349 . S
C3875 H3867 0.950 . S
C3875 C3873 1.327 . S
C3876 C3864 1.349 . S
C3876 H3870 0.950 . S
C3876 C3877 1.327 . S
C3877 H3871 0.950 . S
C3877 C3876 1.327 . S
C3877 C3881 1.429 . S
C3878 C3861 1.574 . S
C3878 H3872 0.949 . S
C3878 C3882 1.368 . S
C3879 C3860 1.429 . S
C3879 C3873 1.429 . S
C3879 C3880 1.523 . S
C3880 C3861 1.368 . S
C3880 C3874 1.368 . S
C3880 C3879 1.523 . S
C3881 C3865 1.429 . S
C3881 C3877 1.429 . S
C3881 C3882 1.523 . S
C3882 C3866 1.368 . S
C3882 C3878 1.368 . S
C3882 C3881 1.523 . S
H3883 C3858 0.950 . S
H3884 C3860 0.950 . S
H3885 C3861 0.949 . S
H3886 C3863 0.950 . S
H3887 C3865 0.950 . S
C3888 C3889 1.349 . S
C3888 C3890 1.327 . S
C3888 H3913 0.950 . S
C3889 C3888 1.349 . S
C3889 C3905 1.349 . S
C3890 C3888 1.327 . S
C3890 C3909 1.429 . S
C3890 H3914 0.950 . S
C3891 C3908 1.574 . S
C3891 C3910 1.368 . S
C3891 H3915 0.949 . S
H3892 C3896 0.949 . S
C3893 C3894 1.349 . S
C3893 C3895 1.327 . S
C3893 H3916 0.950 . S
C3894 C3893 1.349 . S
C3894 C3906 1.349 . S
C3895 C3893 1.327 . S
C3895 C3911 1.429 . S
C3895 H3917 0.950 . S
C3896 H3892 0.949 . S
C3896 C3904 1.574 . S
C3896 C3912 1.368 . S
H3897 C3905 0.950 . S
H3898 C3903 0.950 . S
H3899 C3904 0.949 . S
H3900 C3906 0.950 . S
H3901 C3907 0.950 . S
H3902 C3908 0.949 . S
C3903 H3898 0.950 . S
C3903 C3905 1.327 . S
C3903 C3909 1.429 . S
C3904 C3896 1.574 . S
C3904 H3899 0.949 . S
C3904 C3910 1.368 . S
C3905 C3889 1.349 . S
C3905 H3897 0.950 . S
C3905 C3903 1.327 . S
C3906 C3894 1.349 . S
C3906 H3900 0.950 . S
C3906 C3907 1.327 . S
C3907 H3901 0.950 . S
C3907 C3906 1.327 . S
C3907 C3911 1.429 . S
C3908 C3891 1.574 . S
C3908 H3902 0.949 . S
C3908 C3912 1.368 . S
C3909 C3890 1.429 . S
C3909 C3903 1.429 . S
C3909 C3910 1.523 . S
C3910 C3891 1.368 . S
C3910 C3904 1.368 . S
C3910 C3909 1.523 . S
C3911 C3895 1.429 . S
C3911 C3907 1.429 . S
C3911 C3912 1.523 . S
C3912 C3896 1.368 . S
C3912 C3908 1.368 . S
C3912 C3911 1.523 . S
H3913 C3888 0.950 . S
H3914 C3890 0.950 . S
H3915 C3891 0.949 . S
H3916 C3893 0.950 . S
H3917 C3895 0.950 . S
C3918 C3919 1.349 . S
C3918 C3920 1.327 . S
C3918 H3943 0.950 . S
C3919 C3918 1.349 . S
C3919 C3935 1.349 . S
C3920 C3918 1.327 . S
C3920 C3939 1.429 . S
C3920 H3944 0.950 . S
C3921 C3938 1.574 . S
C3921 C3940 1.368 . S
C3921 H3945 0.949 . S
H3922 C3926 0.949 . S
C3923 C3924 1.349 . S
C3923 C3925 1.327 . S
C3923 H3946 0.950 . S
C3924 C3923 1.349 . S
C3924 C3936 1.349 . S
C3925 C3923 1.327 . S
C3925 C3941 1.429 . S
C3925 H3947 0.950 . S
C3926 H3922 0.949 . S
C3926 C3934 1.574 . S
C3926 C3942 1.368 . S
H3927 C3935 0.950 . S
H3928 C3933 0.950 . S
H3929 C3934 0.949 . S
H3930 C3936 0.950 . S
H3931 C3937 0.950 . S
H3932 C3938 0.949 . S
C3933 H3928 0.950 . S
C3933 C3935 1.327 . S
C3933 C3939 1.429 . S
C3934 C3926 1.574 . S
C3934 H3929 0.949 . S
C3934 C3940 1.368 . S
C3935 C3919 1.349 . S
C3935 H3927 0.950 . S
C3935 C3933 1.327 . S
C3936 C3924 1.349 . S
C3936 H3930 0.950 . S
C3936 C3937 1.327 . S
C3937 H3931 0.950 . S
C3937 C3936 1.327 . S
C3937 C3941 1.429 . S
C3938 C3921 1.574 . S
C3938 H3932 0.949 . S
C3938 C3942 1.368 . S
C3939 C3920 1.429 . S
C3939 C3933 1.429 . S
C3939 C3940 1.523 . S
C3940 C3921 1.368 . S
C3940 C3934 1.368 . S
C3940 C3939 1.523 . S
C3941 C3925 1.429 . S
C3941 C3937 1.429 . S
C3941 C3942 1.523 . S
C3942 C3926 1.368 . S
C3942 C3938 1.368 . S
C3942 C3941 1.523 . S
H3943 C3918 0.950 . S
H3944 C3920 0.950 . S
H3945 C3921 0.949 . S
H3946 C3923 0.950 . S
H3947 C3925 0.950 . S
C3948 C3949 1.349 . S
C3948 C3950 1.327 . S
C3948 H3973 0.950 . S
C3949 C3948 1.349 . S
C3949 C3965 1.349 . S
C3950 C3948 1.327 . S
C3950 C3969 1.429 . S
C3950 H3974 0.950 . S
C3951 C3968 1.574 . S
C3951 C3970 1.368 . S
C3951 H3975 0.949 . S
H3952 C3956 0.949 . S
C3953 C3954 1.349 . S
C3953 C3955 1.327 . S
C3953 H3976 0.950 . S
C3954 C3953 1.349 . S
C3954 C3966 1.349 . S
C3955 C3953 1.327 . S
C3955 C3971 1.429 . S
C3955 H3977 0.950 . S
C3956 H3952 0.949 . S
C3956 C3964 1.574 . S
C3956 C3972 1.368 . S
H3957 C3965 0.950 . S
H3958 C3963 0.950 . S
H3959 C3964 0.949 . S
H3960 C3966 0.950 . S
H3961 C3967 0.950 . S
H3962 C3968 0.949 . S
C3963 H3958 0.950 . S
C3963 C3965 1.327 . S
C3963 C3969 1.429 . S
C3964 C3956 1.574 . S
C3964 H3959 0.949 . S
C3964 C3970 1.368 . S
C3965 C3949 1.349 . S
C3965 H3957 0.950 . S
C3965 C3963 1.327 . S
C3966 C3954 1.349 . S
C3966 H3960 0.950 . S
C3966 C3967 1.327 . S
C3967 H3961 0.950 . S
C3967 C3966 1.327 . S
C3967 C3971 1.429 . S
C3968 C3951 1.574 . S
C3968 H3962 0.949 . S
C3968 C3972 1.368 . S
C3969 C3950 1.429 . S
C3969 C3963 1.429 . S
C3969 C3970 1.523 . S
C3970 C3951 1.368 . S
C3970 C3964 1.368 . S
C3970 C3969 1.523 . S
C3971 C3955 1.429 . S
C3971 C3967 1.429 . S
C3971 C3972 1.523 . S
C3972 C3956 1.368 . S
C3972 C3968 1.368 . S
C3972 C3971 1.523 . S
H3973 C3948 0.950 . S
H3974 C3950 0.950 . S
H3975 C3951 0.949 . S
H3976 C3953 0.950 . S
H3977 C3955 0.950 . S
C3978 C3979 1.349 . S
C3978 C3980 1.327 . S
C3978 H4003 0.950 . S
C3979 C3978 1.349 . S
C3979 C3995 1.349 . S
C3980 C3978 1.327 . S
C3980 C3999 1.429 . S
C3980 H4004 0.950 . S
C3981 C3998 1.574 . S
C3981 C4000 1.368 . S
C3981 H4005 0.949 . S
H3982 C3986 0.949 . S
C3983 C3984 1.349 . S
C3983 C3985 1.327 . S
C3983 H4006 0.950 . S
C3984 C3983 1.349 . S
C3984 C3996 1.349 . S
C3985 C3983 1.327 . S
C3985 C4001 1.429 . S
C3985 H4007 0.950 . S
C3986 H3982 0.949 . S
C3986 C3994 1.574 . S
C3986 C4002 1.368 . S
H3987 C3995 0.950 . S
H3988 C3993 0.950 . S
H3989 C3994 0.949 . S
H3990 C3996 0.950 . S
H3991 C3997 0.950 . S
H3992 C3998 0.949 . S
C3993 H3988 0.950 . S
C3993 C3995 1.327 . S
C3993 C3999 1.429 . S
C3994 C3986 1.574 . S
C3994 H3989 0.949 . S
C3994 C4000 1.368 . S
C3995 C3979 1.349 . S
C3995 H3987 0.950 . S
C3995 C3993 1.327 . S
C3996 C3984 1.349 . S
C3996 H3990 0.950 . S
C3996 C3997 1.327 . S
C3997 H3991 0.950 . S
C3997 C3996 1.327 . S
C3997 C4001 1.429 . S
C3998 C3981 1.574 . S
C3998 H3992 0.949 . S
C3998 C4002 1.368 . S
C3999 C3980 1.429 . S
C3999 C3993 1.429 . S
C3999 C4000 1.523 . S
C4000 C3981 1.368 . S
C4000 C3994 1.368 . S
C4000 C3999 1.523 . S
C4001 C3985 1.429 . S
C4001 C3997 1.429 . S
C4001 C4002 1.523 . S
C4002 C3986 1.368 . S
C4002 C3998 1.368 . S
C4002 C4001 1.523 . S
H4003 C3978 0.950 . S
H4004 C3980 0.950 . S
H4005 C3981 0.949 . S
H4006 C3983 0.950 . S
H4007 C3985 0.950 . S
C4008 C4009 1.349 . S
C4008 C4010 1.327 . S
C4008 H4033 0.950 . S
C4009 C4008 1.349 . S
C4009 C4025 1.349 . S
C4010 C4008 1.327 . S
C4010 C4029 1.429 . S
C4010 H4034 0.950 . S
C4011 C4028 1.574 . S
C4011 C4030 1.368 . S
C4011 H4035 0.949 . S
H4012 C4016 0.949 . S
C4013 C4014 1.349 . S
C4013 C4015 1.327 . S
C4013 H4036 0.950 . S
C4014 C4013 1.349 . S
C4014 C4026 1.349 . S
C4015 C4013 1.327 . S
C4015 C4031 1.429 . S
C4015 H4037 0.950 . S
C4016 H4012 0.949 . S
C4016 C4024 1.574 . S
C4016 C4032 1.368 . S
H4017 C4025 0.950 . S
H4018 C4023 0.950 . S
H4019 C4024 0.949 . S
H4020 C4026 0.950 . S
H4021 C4027 0.950 . S
H4022 C4028 0.949 . S
C4023 H4018 0.950 . S
C4023 C4025 1.327 . S
C4023 C4029 1.429 . S
C4024 C4016 1.574 . S
C4024 H4019 0.949 . S
C4024 C4030 1.368 . S
C4025 C4009 1.349 . S
C4025 H4017 0.950 . S
C4025 C4023 1.327 . S
C4026 C4014 1.349 . S
C4026 H4020 0.950 . S
C4026 C4027 1.327 . S
C4027 H4021 0.950 . S
C4027 C4026 1.327 . S
C4027 C4031 1.429 . S
C4028 C4011 1.574 . S
C4028 H4022 0.949 . S
C4028 C4032 1.368 . S
C4029 C4010 1.429 . S
C4029 C4023 1.429 . S
C4029 C4030 1.523 . S
C4030 C4011 1.368 . S
C4030 C4024 1.368 . S
C4030 C4029 1.523 . S
C4031 C4015 1.429 . S
C4031 C4027 1.429 . S
C4031 C4032 1.523 . S
C4032 C4016 1.368 . S
C4032 C4028 1.368 . S
C4032 C4031 1.523 . S
H4033 C4008 0.950 . S
H4034 C4010 0.950 . S
H4035 C4011 0.949 . S
H4036 C4013 0.950 . S
H4037 C4015 0.950 . S
C4038 C4039 1.349 . S
C4038 C4040 1.327 . S
C4038 H4063 0.950 . S
C4039 C4038 1.349 . S
C4039 C4055 1.349 . S
C4040 C4038 1.327 . S
C4040 C4059 1.429 . S
C4040 H4064 0.950 . S
C4041 C4058 1.574 . S
C4041 C4060 1.368 . S
C4041 H4065 0.949 . S
H4042 C4046 0.949 . S
C4043 C4044 1.349 . S
C4043 C4045 1.327 . S
C4043 H4066 0.950 . S
C4044 C4043 1.349 . S
C4044 C4056 1.349 . S
C4045 C4043 1.327 . S
C4045 C4061 1.429 . S
C4045 H4067 0.950 . S
C4046 H4042 0.949 . S
C4046 C4054 1.574 . S
C4046 C4062 1.368 . S
H4047 C4055 0.950 . S
H4048 C4053 0.950 . S
H4049 C4054 0.949 . S
H4050 C4056 0.950 . S
H4051 C4057 0.950 . S
H4052 C4058 0.949 . S
C4053 H4048 0.950 . S
C4053 C4055 1.327 . S
C4053 C4059 1.429 . S
C4054 C4046 1.574 . S
C4054 H4049 0.949 . S
C4054 C4060 1.368 . S
C4055 C4039 1.349 . S
C4055 H4047 0.950 . S
C4055 C4053 1.327 . S
C4056 C4044 1.349 . S
C4056 H4050 0.950 . S
C4056 C4057 1.327 . S
C4057 H4051 0.950 . S
C4057 C4056 1.327 . S
C4057 C4061 1.429 . S
C4058 C4041 1.574 . S
C4058 H4052 0.949 . S
C4058 C4062 1.368 . S
C4059 C4040 1.429 . S
C4059 C4053 1.429 . S
C4059 C4060 1.523 . S
C4060 C4041 1.368 . S
C4060 C4054 1.368 . S
C4060 C4059 1.523 . S
C4061 C4045 1.429 . S
C4061 C4057 1.429 . S
C4061 C4062 1.523 . S
C4062 C4046 1.368 . S
C4062 C4058 1.368 . S
C4062 C4061 1.523 . S
H4063 C4038 0.950 . S
H4064 C4040 0.950 . S
H4065 C4041 0.949 . S
H4066 C4043 0.950 . S
H4067 C4045 0.950 . S
C4068 C4069 1.349 . S
C4068 C4070 1.327 . S
C4068 H4093 0.950 . S
C4069 C4068 1.349 . S
C4069 C4085 1.349 . S
C4070 C4068 1.327 . S
C4070 C4089 1.429 . S
C4070 H4094 0.950 . S
C4071 C4088 1.574 . S
C4071 C4090 1.368 . S
C4071 H4095 0.949 . S
H4072 C4076 0.949 . S
C4073 C4074 1.349 . S
C4073 C4075 1.327 . S
C4073 H4096 0.950 . S
C4074 C4073 1.349 . S
C4074 C4086 1.349 . S
C4075 C4073 1.327 . S
C4075 C4091 1.429 . S
C4075 H4097 0.950 . S
C4076 H4072 0.949 . S
C4076 C4084 1.574 . S
C4076 C4092 1.368 . S
H4077 C4085 0.950 . S
H4078 C4083 0.950 . S
H4079 C4084 0.949 . S
H4080 C4086 0.950 . S
H4081 C4087 0.950 . S
H4082 C4088 0.949 . S
C4083 H4078 0.950 . S
C4083 C4085 1.327 . S
C4083 C4089 1.429 . S
C4084 C4076 1.574 . S
C4084 H4079 0.949 . S
C4084 C4090 1.368 . S
C4085 C4069 1.349 . S
C4085 H4077 0.950 . S
C4085 C4083 1.327 . S
C4086 C4074 1.349 . S
C4086 H4080 0.950 . S
C4086 C4087 1.327 . S
C4087 H4081 0.950 . S
C4087 C4086 1.327 . S
C4087 C4091 1.429 . S
C4088 C4071 1.574 . S
C4088 H4082 0.949 . S
C4088 C4092 1.368 . S
C4089 C4070 1.429 . S
C4089 C4083 1.429 . S
C4089 C4090 1.523 . S
C4090 C4071 1.368 . S
C4090 C4084 1.368 . S
C4090 C4089 1.523 . S
C4091 C4075 1.429 . S
C4091 C4087 1.429 . S
C4091 C4092 1.523 . S
C4092 C4076 1.368 . S
C4092 C4088 1.368 . S
C4092 C4091 1.523 . S
H4093 C4068 0.950 . S
H4094 C4070 0.950 . S
H4095 C4071 0.949 . S
H4096 C4073 0.950 . S
H4097 C4075 0.950 . S
C4098 C4099 1.349 . S
C4098 C4100 1.327 . S
C4098 H4123 0.950 . S
C4099 C4098 1.349 . S
C4099 C4115 1.349 . S
C4100 C4098 1.327 . S
C4100 C4119 1.429 . S
C4100 H4124 0.950 . S
C4101 C4118 1.574 . S
C4101 C4120 1.368 . S
C4101 H4125 0.949 . S
H4102 C4106 0.949 . S
C4103 C4104 1.349 . S
C4103 C4105 1.327 . S
C4103 H4126 0.950 . S
C4104 C4103 1.349 . S
C4104 C4116 1.349 . S
C4105 C4103 1.327 . S
C4105 C4121 1.429 . S
C4105 H4127 0.950 . S
C4106 H4102 0.949 . S
C4106 C4114 1.574 . S
C4106 C4122 1.368 . S
H4107 C4115 0.950 . S
H4108 C4113 0.950 . S
H4109 C4114 0.949 . S
H4110 C4116 0.950 . S
H4111 C4117 0.950 . S
H4112 C4118 0.949 . S
C4113 H4108 0.950 . S
C4113 C4115 1.327 . S
C4113 C4119 1.429 . S
C4114 C4106 1.574 . S
C4114 H4109 0.949 . S
C4114 C4120 1.368 . S
C4115 C4099 1.349 . S
C4115 H4107 0.950 . S
C4115 C4113 1.327 . S
C4116 C4104 1.349 . S
C4116 H4110 0.950 . S
C4116 C4117 1.327 . S
C4117 H4111 0.950 . S
C4117 C4116 1.327 . S
C4117 C4121 1.429 . S
C4118 C4101 1.574 . S
C4118 H4112 0.949 . S
C4118 C4122 1.368 . S
C4119 C4100 1.429 . S
C4119 C4113 1.429 . S
C4119 C4120 1.523 . S
C4120 C4101 1.368 . S
C4120 C4114 1.368 . S
C4120 C4119 1.523 . S
C4121 C4105 1.429 . S
C4121 C4117 1.429 . S
C4121 C4122 1.523 . S
C4122 C4106 1.368 . S
C4122 C4118 1.368 . S
C4122 C4121 1.523 . S
H4123 C4098 0.950 . S
H4124 C4100 0.950 . S
H4125 C4101 0.949 . S
H4126 C4103 0.950 . S
H4127 C4105 0.950 . S
C4128 C4129 1.349 . S
C4128 C4130 1.327 . S
C4128 H4153 0.950 . S
C4129 C4128 1.349 . S
C4129 C4145 1.349 . S
C4130 C4128 1.327 . S
C4130 C4149 1.429 . S
C4130 H4154 0.950 . S
C4131 C4148 1.574 . S
C4131 C4150 1.368 . S
C4131 H4155 0.949 . S
H4132 C4136 0.949 . S
C4133 C4134 1.349 . S
C4133 C4135 1.327 . S
C4133 H4156 0.950 . S
C4134 C4133 1.349 . S
C4134 C4146 1.349 . S
C4135 C4133 1.327 . S
C4135 C4151 1.429 . S
C4135 H4157 0.950 . S
C4136 H4132 0.949 . S
C4136 C4144 1.574 . S
C4136 C4152 1.368 . S
H4137 C4145 0.950 . S
H4138 C4143 0.950 . S
H4139 C4144 0.949 . S
H4140 C4146 0.950 . S
H4141 C4147 0.950 . S
H4142 C4148 0.949 . S
C4143 H4138 0.950 . S
C4143 C4145 1.327 . S
C4143 C4149 1.429 . S
C4144 C4136 1.574 . S
C4144 H4139 0.949 . S
C4144 C4150 1.368 . S
C4145 C4129 1.349 . S
C4145 H4137 0.950 . S
C4145 C4143 1.327 . S
C4146 C4134 1.349 . S
C4146 H4140 0.950 . S
C4146 C4147 1.327 . S
C4147 H4141 0.950 . S
C4147 C4146 1.327 . S
C4147 C4151 1.429 . S
C4148 C4131 1.574 . S
C4148 H4142 0.949 . S
C4148 C4152 1.368 . S
C4149 C4130 1.429 . S
C4149 C4143 1.429 . S
C4149 C4150 1.523 . S
C4150 C4131 1.368 . S
C4150 C4144 1.368 . S
C4150 C4149 1.523 . S
C4151 C4135 1.429 . S
C4151 C4147 1.429 . S
C4151 C4152 1.523 . S
C4152 C4136 1.368 . S
C4152 C4148 1.368 . S
C4152 C4151 1.523 . S
H4153 C4128 0.950 . S
H4154 C4130 0.950 . S
H4155 C4131 0.949 . S
H4156 C4133 0.950 . S
H4157 C4135 0.950 . S
C4158 C4159 1.349 . S
C4158 C4160 1.327 . S
C4158 H4183 0.950 . S
C4159 C4158 1.349 . S
C4159 C4175 1.349 . S
C4160 C4158 1.327 . S
C4160 C4179 1.429 . S
C4160 H4184 0.950 . S
C4161 C4178 1.574 . S
C4161 C4180 1.368 . S
C4161 H4185 0.949 . S
H4162 C4166 0.949 . S
C4163 C4164 1.349 . S
C4163 C4165 1.327 . S
C4163 H4186 0.950 . S
C4164 C4163 1.349 . S
C4164 C4176 1.349 . S
C4165 C4163 1.327 . S
C4165 C4181 1.429 . S
C4165 H4187 0.950 . S
C4166 H4162 0.949 . S
C4166 C4174 1.574 . S
C4166 C4182 1.368 . S
H4167 C4175 0.950 . S
H4168 C4173 0.950 . S
H4169 C4174 0.949 . S
H4170 C4176 0.950 . S
H4171 C4177 0.950 . S
H4172 C4178 0.949 . S
C4173 H4168 0.950 . S
C4173 C4175 1.327 . S
C4173 C4179 1.429 . S
C4174 C4166 1.574 . S
C4174 H4169 0.949 . S
C4174 C4180 1.368 . S
C4175 C4159 1.349 . S
C4175 H4167 0.950 . S
C4175 C4173 1.327 . S
C4176 C4164 1.349 . S
C4176 H4170 0.950 . S
C4176 C4177 1.327 . S
C4177 H4171 0.950 . S
C4177 C4176 1.327 . S
C4177 C4181 1.429 . S
C4178 C4161 1.574 . S
C4178 H4172 0.949 . S
C4178 C4182 1.368 . S
C4179 C4160 1.429 . S
C4179 C4173 1.429 . S
C4179 C4180 1.523 . S
C4180 C4161 1.368 . S
C4180 C4174 1.368 . S
C4180 C4179 1.523 . S
C4181 C4165 1.429 . S
C4181 C4177 1.429 . S
C4181 C4182 1.523 . S
C4182 C4166 1.368 . S
C4182 C4178 1.368 . S
C4182 C4181 1.523 . S
H4183 C4158 0.950 . S
H4184 C4160 0.950 . S
H4185 C4161 0.949 . S
H4186 C4163 0.950 . S
H4187 C4165 0.950 . S
C4188 C4189 1.349 . S
C4188 C4190 1.327 . S
C4188 H4213 0.950 . S
C4189 C4188 1.349 . S
C4189 C4205 1.349 . S
C4190 C4188 1.327 . S
C4190 C4209 1.429 . S
C4190 H4214 0.950 . S
C4191 C4208 1.574 . S
C4191 C4210 1.368 . S
C4191 H4215 0.949 . S
H4192 C4196 0.949 . S
C4193 C4194 1.349 . S
C4193 C4195 1.327 . S
C4193 H4216 0.950 . S
C4194 C4193 1.349 . S
C4194 C4206 1.349 . S
C4195 C4193 1.327 . S
C4195 C4211 1.429 . S
C4195 H4217 0.950 . S
C4196 H4192 0.949 . S
C4196 C4204 1.574 . S
C4196 C4212 1.368 . S
H4197 C4205 0.950 . S
H4198 C4203 0.950 . S
H4199 C4204 0.949 . S
H4200 C4206 0.950 . S
H4201 C4207 0.950 . S
H4202 C4208 0.949 . S
C4203 H4198 0.950 . S
C4203 C4205 1.327 . S
C4203 C4209 1.429 . S
C4204 C4196 1.574 . S
C4204 H4199 0.949 . S
C4204 C4210 1.368 . S
C4205 C4189 1.349 . S
C4205 H4197 0.950 . S
C4205 C4203 1.327 . S
C4206 C4194 1.349 . S
C4206 H4200 0.950 . S
C4206 C4207 1.327 . S
C4207 H4201 0.950 . S
C4207 C4206 1.327 . S
C4207 C4211 1.429 . S
C4208 C4191 1.574 . S
C4208 H4202 0.949 . S
C4208 C4212 1.368 . S
C4209 C4190 1.429 . S
C4209 C4203 1.429 . S
C4209 C4210 1.523 . S
C4210 C4191 1.368 . S
C4210 C4204 1.368 . S
C4210 C4209 1.523 . S
C4211 C4195 1.429 . S
C4211 C4207 1.429 . S
C4211 C4212 1.523 . S
C4212 C4196 1.368 . S
C4212 C4208 1.368 . S
C4212 C4211 1.523 . S
H4213 C4188 0.950 . S
H4214 C4190 0.950 . S
H4215 C4191 0.949 . S
H4216 C4193 0.950 . S
H4217 C4195 0.950 . S
C4218 C4219 1.349 . S
C4218 C4220 1.327 . S
C4218 H4243 0.950 . S
C4219 C4218 1.349 . S
C4219 C4235 1.349 . S
C4220 C4218 1.327 . S
C4220 C4239 1.429 . S
C4220 H4244 0.950 . S
C4221 C4238 1.574 . S
C4221 C4240 1.368 . S
C4221 H4245 0.949 . S
H4222 C4226 0.949 . S
C4223 C4224 1.349 . S
C4223 C4225 1.327 . S
C4223 H4246 0.950 . S
C4224 C4223 1.349 . S
C4224 C4236 1.349 . S
C4225 C4223 1.327 . S
C4225 C4241 1.429 . S
C4225 H4247 0.950 . S
C4226 H4222 0.949 . S
C4226 C4234 1.574 . S
C4226 C4242 1.368 . S
H4227 C4235 0.950 . S
H4228 C4233 0.950 . S
H4229 C4234 0.949 . S
H4230 C4236 0.950 . S
H4231 C4237 0.950 . S
H4232 C4238 0.949 . S
C4233 H4228 0.950 . S
C4233 C4235 1.327 . S
C4233 C4239 1.429 . S
C4234 C4226 1.574 . S
C4234 H4229 0.949 . S
C4234 C4240 1.368 . S
C4235 C4219 1.349 . S
C4235 H4227 0.950 . S
C4235 C4233 1.327 . S
C4236 C4224 1.349 . S
C4236 H4230 0.950 . S
C4236 C4237 1.327 . S
C4237 H4231 0.950 . S
C4237 C4236 1.327 . S
C4237 C4241 1.429 . S
C4238 C4221 1.574 . S
C4238 H4232 0.949 . S
C4238 C4242 1.368 . S
C4239 C4220 1.429 . S
C4239 C4233 1.429 . S
C4239 C4240 1.523 . S
C4240 C4221 1.368 . S
C4240 C4234 1.368 . S
C4240 C4239 1.523 . S
C4241 C4225 1.429 . S
C4241 C4237 1.429 . S
C4241 C4242 1.523 . S
C4242 C4226 1.368 . S
C4242 C4238 1.368 . S
C4242 C4241 1.523 . S
H4243 C4218 0.950 . S
H4244 C4220 0.950 . S
H4245 C4221 0.949 . S
H4246 C4223 0.950 . S
H4247 C4225 0.950 . S
C4248 C4249 1.349 . S
C4248 C4250 1.327 . S
C4248 H4273 0.950 . S
C4249 C4248 1.349 . S
C4249 C4265 1.349 . S
C4250 C4248 1.327 . S
C4250 C4269 1.429 . S
C4250 H4274 0.950 . S
C4251 C4268 1.574 . S
C4251 C4270 1.368 . S
C4251 H4275 0.949 . S
H4252 C4256 0.949 . S
C4253 C4254 1.349 . S
C4253 C4255 1.327 . S
C4253 H4276 0.950 . S
C4254 C4253 1.349 . S
C4254 C4266 1.349 . S
C4255 C4253 1.327 . S
C4255 C4271 1.429 . S
C4255 H4277 0.950 . S
C4256 H4252 0.949 . S
C4256 C4264 1.574 . S
C4256 C4272 1.368 . S
H4257 C4265 0.950 . S
H4258 C4263 0.950 . S
H4259 C4264 0.949 . S
H4260 C4266 0.950 . S
H4261 C4267 0.950 . S
H4262 C4268 0.949 . S
C4263 H4258 0.950 . S
C4263 C4265 1.327 . S
C4263 C4269 1.429 . S
C4264 C4256 1.574 . S
C4264 H4259 0.949 . S
C4264 C4270 1.368 . S
C4265 C4249 1.349 . S
C4265 H4257 0.950 . S
C4265 C4263 1.327 . S
C4266 C4254 1.349 . S
C4266 H4260 0.950 . S
C4266 C4267 1.327 . S
C4267 H4261 0.950 . S
C4267 C4266 1.327 . S
C4267 C4271 1.429 . S
C4268 C4251 1.574 . S
C4268 H4262 0.949 . S
C4268 C4272 1.368 . S
C4269 C4250 1.429 . S
C4269 C4263 1.429 . S
C4269 C4270 1.523 . S
C4270 C4251 1.368 . S
C4270 C4264 1.368 . S
C4270 C4269 1.523 . S
C4271 C4255 1.429 . S
C4271 C4267 1.429 . S
C4271 C4272 1.523 . S
C4272 C4256 1.368 . S
C4272 C4268 1.368 . S
C4272 C4271 1.523 . S
H4273 C4248 0.950 . S
H4274 C4250 0.950 . S
H4275 C4251 0.949 . S
H4276 C4253 0.950 . S
H4277 C4255 0.950 . S
C4278 C4279 1.349 . S
C4278 C4280 1.327 . S
C4278 H4303 0.950 . S
C4279 C4278 1.349 . S
C4279 C4295 1.349 . S
C4280 C4278 1.327 . S
C4280 C4299 1.429 . S
C4280 H4304 0.950 . S
C4281 C4298 1.574 . S
C4281 C4300 1.368 . S
C4281 H4305 0.949 . S
H4282 C4286 0.949 . S
C4283 C4284 1.349 . S
C4283 C4285 1.327 . S
C4283 H4306 0.950 . S
C4284 C4283 1.349 . S
C4284 C4296 1.349 . S
C4285 C4283 1.327 . S
C4285 C4301 1.429 . S
C4285 H4307 0.950 . S
C4286 H4282 0.949 . S
C4286 C4294 1.574 . S
C4286 C4302 1.368 . S
H4287 C4295 0.950 . S
H4288 C4293 0.950 . S
H4289 C4294 0.949 . S
H4290 C4296 0.950 . S
H4291 C4297 0.950 . S
H4292 C4298 0.949 . S
C4293 H4288 0.950 . S
C4293 C4295 1.327 . S
C4293 C4299 1.429 . S
C4294 C4286 1.574 . S
C4294 H4289 0.949 . S
C4294 C4300 1.368 . S
C4295 C4279 1.349 . S
C4295 H4287 0.950 . S
C4295 C4293 1.327 . S
C4296 C4284 1.349 . S
C4296 H4290 0.950 . S
C4296 C4297 1.327 . S
C4297 H4291 0.950 . S
C4297 C4296 1.327 . S
C4297 C4301 1.429 . S
C4298 C4281 1.574 . S
C4298 H4292 0.949 . S
C4298 C4302 1.368 . S
C4299 C4280 1.429 . S
C4299 C4293 1.429 . S
C4299 C4300 1.523 . S
C4300 C4281 1.368 . S
C4300 C4294 1.368 . S
C4300 C4299 1.523 . S
C4301 C4285 1.429 . S
C4301 C4297 1.429 . S
C4301 C4302 1.523 . S
C4302 C4286 1.368 . S
C4302 C4298 1.368 . S
C4302 C4301 1.523 . S
H4303 C4278 0.950 . S
H4304 C4280 0.950 . S
H4305 C4281 0.949 . S
H4306 C4283 0.950 . S
H4307 C4285 0.950 . S
C4308 C4309 1.349 . S
C4308 C4310 1.327 . S
C4308 H4333 0.950 . S
C4309 C4308 1.349 . S
C4309 C4325 1.349 . S
C4310 C4308 1.327 . S
C4310 C4329 1.429 . S
C4310 H4334 0.950 . S
C4311 C4328 1.574 . S
C4311 C4330 1.368 . S
C4311 H4335 0.949 . S
H4312 C4316 0.949 . S
C4313 C4314 1.349 . S
C4313 C4315 1.327 . S
C4313 H4336 0.950 . S
C4314 C4313 1.349 . S
C4314 C4326 1.349 . S
C4315 C4313 1.327 . S
C4315 C4331 1.429 . S
C4315 H4337 0.950 . S
C4316 H4312 0.949 . S
C4316 C4324 1.574 . S
C4316 C4332 1.368 . S
H4317 C4325 0.950 . S
H4318 C4323 0.950 . S
H4319 C4324 0.949 . S
H4320 C4326 0.950 . S
H4321 C4327 0.950 . S
H4322 C4328 0.949 . S
C4323 H4318 0.950 . S
C4323 C4325 1.327 . S
C4323 C4329 1.429 . S
C4324 C4316 1.574 . S
C4324 H4319 0.949 . S
C4324 C4330 1.368 . S
C4325 C4309 1.349 . S
C4325 H4317 0.950 . S
C4325 C4323 1.327 . S
C4326 C4314 1.349 . S
C4326 H4320 0.950 . S
C4326 C4327 1.327 . S
C4327 H4321 0.950 . S
C4327 C4326 1.327 . S
C4327 C4331 1.429 . S
C4328 C4311 1.574 . S
C4328 H4322 0.949 . S
C4328 C4332 1.368 . S
C4329 C4310 1.429 . S
C4329 C4323 1.429 . S
C4329 C4330 1.523 . S
C4330 C4311 1.368 . S
C4330 C4324 1.368 . S
C4330 C4329 1.523 . S
C4331 C4315 1.429 . S
C4331 C4327 1.429 . S
C4331 C4332 1.523 . S
C4332 C4316 1.368 . S
C4332 C4328 1.368 . S
C4332 C4331 1.523 . S
H4333 C4308 0.950 . S
H4334 C4310 0.950 . S
H4335 C4311 0.949 . S
H4336 C4313 0.950 . S
H4337 C4315 0.950 . S
C4338 C4339 1.349 . S
C4338 C4340 1.327 . S
C4338 H4363 0.950 . S
C4339 C4338 1.349 . S
C4339 C4355 1.349 . S
C4340 C4338 1.327 . S
C4340 C4359 1.429 . S
C4340 H4364 0.950 . S
C4341 C4358 1.574 . S
C4341 C4360 1.368 . S
C4341 H4365 0.949 . S
H4342 C4346 0.949 . S
C4343 C4344 1.349 . S
C4343 C4345 1.327 . S
C4343 H4366 0.950 . S
C4344 C4343 1.349 . S
C4344 C4356 1.349 . S
C4345 C4343 1.327 . S
C4345 C4361 1.429 . S
C4345 H4367 0.950 . S
C4346 H4342 0.949 . S
C4346 C4354 1.574 . S
C4346 C4362 1.368 . S
H4347 C4355 0.950 . S
H4348 C4353 0.950 . S
H4349 C4354 0.949 . S
H4350 C4356 0.950 . S
H4351 C4357 0.950 . S
H4352 C4358 0.949 . S
C4353 H4348 0.950 . S
C4353 C4355 1.327 . S
C4353 C4359 1.429 . S
C4354 C4346 1.574 . S
C4354 H4349 0.949 . S
C4354 C4360 1.368 . S
C4355 C4339 1.349 . S
C4355 H4347 0.950 . S
C4355 C4353 1.327 . S
C4356 C4344 1.349 . S
C4356 H4350 0.950 . S
C4356 C4357 1.327 . S
C4357 H4351 0.950 . S
C4357 C4356 1.327 . S
C4357 C4361 1.429 . S
C4358 C4341 1.574 . S
C4358 H4352 0.949 . S
C4358 C4362 1.368 . S
C4359 C4340 1.429 . S
C4359 C4353 1.429 . S
C4359 C4360 1.523 . S
C4360 C4341 1.368 . S
C4360 C4354 1.368 . S
C4360 C4359 1.523 . S
C4361 C4345 1.429 . S
C4361 C4357 1.429 . S
C4361 C4362 1.523 . S
C4362 C4346 1.368 . S
C4362 C4358 1.368 . S
C4362 C4361 1.523 . S
H4363 C4338 0.950 . S
H4364 C4340 0.950 . S
H4365 C4341 0.949 . S
H4366 C4343 0.950 . S
H4367 C4345 0.950 . S
C4368 C4369 1.349 . S
C4368 C4370 1.327 . S
C4368 H4393 0.950 . S
C4369 C4368 1.349 . S
C4369 C4385 1.349 . S
C4370 C4368 1.327 . S
C4370 C4389 1.429 . S
C4370 H4394 0.950 . S
C4371 C4388 1.574 . S
C4371 C4390 1.368 . S
C4371 H4395 0.949 . S
H4372 C4376 0.949 . S
C4373 C4374 1.349 . S
C4373 C4375 1.327 . S
C4373 H4396 0.950 . S
C4374 C4373 1.349 . S
C4374 C4386 1.349 . S
C4375 C4373 1.327 . S
C4375 C4391 1.429 1_545 S
C4375 H4397 0.977 . S
C4376 H4372 0.949 . S
C4376 C4384 1.574 . S
C4376 C4392 1.368 . S
H4377 C4385 0.950 . S
H4378 C4383 0.950 . S
H4379 C4384 0.949 . S
H4380 C4386 0.950 . S
H4381 C4387 0.950 1_565 S
H4382 C4388 0.949 . S
C4383 H4378 0.950 . S
C4383 C4385 1.327 . S
C4383 C4389 1.429 . S
C4384 C4376 1.574 . S
C4384 H4379 0.949 . S
C4384 C4390 1.368 . S
C4385 C4369 1.349 . S
C4385 H4377 0.950 . S
C4385 C4383 1.327 . S
C4386 C4374 1.349 . S
C4386 H4380 0.950 . S
C4386 C4387 1.327 . S
C4387 H4381 0.950 1_545 S
C4387 C4386 1.327 . S
C4387 C4391 1.429 1_545 S
C4388 C4371 1.574 . S
C4388 H4382 0.949 . S
C4388 C4392 1.368 . S
C4389 C4370 1.429 . S
C4389 C4383 1.429 . S
C4389 C4390 1.523 . S
C4390 C4371 1.368 . S
C4390 C4384 1.368 . S
C4390 C4389 1.523 . S
C4391 C4375 1.429 1_565 S
C4391 C4387 1.429 1_565 S
C4391 C4392 1.523 . S
C4392 C4376 1.368 . S
C4392 C4388 1.368 . S
C4392 C4391 1.523 . S
H4393 C4368 0.950 . S
H4394 C4370 0.950 . S
H4395 C4371 0.949 . S
H4396 C4373 0.950 . S
H4397 C4375 0.977 . S
C4398 C4399 1.349 . S
C4398 C4400 1.327 . S
C4398 H4423 0.950 . S
C4399 C4398 1.349 . S
C4399 C4415 1.349 . S
C4400 C4398 1.327 . S
C4400 C4419 1.429 . S
C4400 H4424 0.950 . S
C4401 C4418 1.574 . S
C4401 C4420 1.368 . S
C4401 H4425 0.949 . S
H4402 C4406 0.949 . S
C4403 C4404 1.349 . S
C4403 C4405 1.327 . S
C4403 H4426 0.950 . S
C4404 C4403 1.349 . S
C4404 C4416 1.349 . S
C4405 C4403 1.327 . S
C4405 C4421 1.429 . S
C4405 H4427 0.950 . S
C4406 H4402 0.949 . S
C4406 C4414 1.574 . S
C4406 C4422 1.368 . S
H4407 C4415 0.950 . S
H4408 C4413 0.950 . S
H4409 C4414 0.949 . S
H4410 C4416 0.950 . S
H4411 C4417 0.950 . S
H4412 C4418 0.949 . S
C4413 H4408 0.950 . S
C4413 C4415 1.327 . S
C4413 C4419 1.429 . S
C4414 C4406 1.574 . S
C4414 H4409 0.949 . S
C4414 C4420 1.368 . S
C4415 C4399 1.349 . S
C4415 H4407 0.950 . S
C4415 C4413 1.327 . S
C4416 C4404 1.349 . S
C4416 H4410 0.950 . S
C4416 C4417 1.327 . S
C4417 H4411 0.950 . S
C4417 C4416 1.327 . S
C4417 C4421 1.429 . S
C4418 C4401 1.574 . S
C4418 H4412 0.949 . S
C4418 C4422 1.368 . S
C4419 C4400 1.429 . S
C4419 C4413 1.429 . S
C4419 C4420 1.523 . S
C4420 C4401 1.368 . S
C4420 C4414 1.368 . S
C4420 C4419 1.523 . S
C4421 C4405 1.429 . S
C4421 C4417 1.429 . S
C4421 C4422 1.523 . S
C4422 C4406 1.368 . S
C4422 C4418 1.368 . S
C4422 C4421 1.523 . S
H4423 C4398 0.950 . S
H4424 C4400 0.950 . S
H4425 C4401 0.949 . S
H4426 C4403 0.950 . S
H4427 C4405 0.950 . S
C4428 C4429 1.349 . S
C4428 C4430 1.327 . S
C4428 H4453 0.950 . S
C4429 C4428 1.349 . S
C4429 C4445 1.349 . S
C4430 C4428 1.327 . S
C4430 C4449 1.429 . S
C4430 H4454 0.950 . S
C4431 C4448 1.574 . S
C4431 C4450 1.368 . S
C4431 H4455 0.949 . S
H4432 C4436 0.949 . S
C4433 C4434 1.349 . S
C4433 C4435 1.327 . S
C4433 H4456 0.950 . S
C4434 C4433 1.349 . S
C4434 C4446 1.349 . S
C4435 C4433 1.327 . S
C4435 C4451 1.429 . S
C4435 H4457 0.950 . S
C4436 H4432 0.949 . S
C4436 C4444 1.574 . S
C4436 C4452 1.368 . S
H4437 C4445 0.950 . S
H4438 C4443 0.950 . S
H4439 C4444 0.949 . S
H4440 C4446 0.950 . S
H4441 C4447 0.950 . S
H4442 C4448 0.949 . S
C4443 H4438 0.950 . S
C4443 C4445 1.327 . S
C4443 C4449 1.429 . S
C4444 C4436 1.574 . S
C4444 H4439 0.949 . S
C4444 C4450 1.368 . S
C4445 C4429 1.349 . S
C4445 H4437 0.950 . S
C4445 C4443 1.327 . S
C4446 C4434 1.349 . S
C4446 H4440 0.950 . S
C4446 C4447 1.327 . S
C4447 H4441 0.950 . S
C4447 C4446 1.327 . S
C4447 C4451 1.429 . S
C4448 C4431 1.574 . S
C4448 H4442 0.949 . S
C4448 C4452 1.368 . S
C4449 C4430 1.429 . S
C4449 C4443 1.429 . S
C4449 C4450 1.523 . S
C4450 C4431 1.368 . S
C4450 C4444 1.368 . S
C4450 C4449 1.523 . S
C4451 C4435 1.429 . S
C4451 C4447 1.429 . S
C4451 C4452 1.523 . S
C4452 C4436 1.368 . S
C4452 C4448 1.368 . S
C4452 C4451 1.523 . S
H4453 C4428 0.950 . S
H4454 C4430 0.950 . S
H4455 C4431 0.949 . S
H4456 C4433 0.950 . S
H4457 C4435 0.950 . S
C4458 C4459 1.349 . S
C4458 C4460 1.327 . S
C4458 H4483 0.950 . S
C4459 C4458 1.349 . S
C4459 C4475 1.349 . S
C4460 C4458 1.327 . S
C4460 C4479 1.429 . S
C4460 H4484 0.950 . S
C4461 C4478 1.574 . S
C4461 C4480 1.368 . S
C4461 H4485 0.949 . S
H4462 C4466 0.949 . S
C4463 C4464 1.349 . S
C4463 C4465 1.327 . S
C4463 H4486 0.950 . S
C4464 C4463 1.349 . S
C4464 C4476 1.349 . S
C4465 C4463 1.327 . S
C4465 C4481 1.429 . S
C4465 H4487 0.950 . S
C4466 H4462 0.949 . S
C4466 C4474 1.574 . S
C4466 C4482 1.368 . S
H4467 C4475 0.950 . S
H4468 C4473 0.950 . S
H4469 C4474 0.949 . S
H4470 C4476 0.950 . S
H4471 C4477 0.950 . S
H4472 C4478 0.949 . S
C4473 H4468 0.950 . S
C4473 C4475 1.327 . S
C4473 C4479 1.429 . S
C4474 C4466 1.574 . S
C4474 H4469 0.949 . S
C4474 C4480 1.368 . S
C4475 C4459 1.349 . S
C4475 H4467 0.950 . S
C4475 C4473 1.327 . S
C4476 C4464 1.349 . S
C4476 H4470 0.950 . S
C4476 C4477 1.327 . S
C4477 H4471 0.950 . S
C4477 C4476 1.327 . S
C4477 C4481 1.429 . S
C4478 C4461 1.574 . S
C4478 H4472 0.949 . S
C4478 C4482 1.368 . S
C4479 C4460 1.429 . S
C4479 C4473 1.429 . S
C4479 C4480 1.523 . S
C4480 C4461 1.368 . S
C4480 C4474 1.368 . S
C4480 C4479 1.523 . S
C4481 C4465 1.429 . S
C4481 C4477 1.429 . S
C4481 C4482 1.523 . S
C4482 C4466 1.368 . S
C4482 C4478 1.368 . S
C4482 C4481 1.523 . S
H4483 C4458 0.950 . S
H4484 C4460 0.950 . S
H4485 C4461 0.949 . S
H4486 C4463 0.950 . S
H4487 C4465 0.950 . S
C4488 C4489 1.349 . S
C4488 C4490 1.327 . S
C4488 H4513 0.950 . S
C4489 C4488 1.349 . S
C4489 C4505 1.349 . S
C4490 C4488 1.327 . S
C4490 C4509 1.429 . S
C4490 H4514 0.950 . S
C4491 C4508 1.574 . S
C4491 C4510 1.368 . S
C4491 H4515 0.949 . S
H4492 C4496 0.949 . S
C4493 C4494 1.349 . S
C4493 C4495 1.327 . S
C4493 H4516 0.950 . S
C4494 C4493 1.349 . S
C4494 C4506 1.349 . S
C4495 C4493 1.327 . S
C4495 C4511 1.429 . S
C4495 H4517 0.950 . S
C4496 H4492 0.949 . S
C4496 C4504 1.574 . S
C4496 C4512 1.368 . S
H4497 C4505 0.950 . S
H4498 C4503 0.950 . S
H4499 C4504 0.949 . S
H4500 C4506 0.950 . S
H4501 C4507 0.950 . S
H4502 C4508 0.949 . S
C4503 H4498 0.950 . S
C4503 C4505 1.327 . S
C4503 C4509 1.429 . S
C4504 C4496 1.574 . S
C4504 H4499 0.949 . S
C4504 C4510 1.368 . S
C4505 C4489 1.349 . S
C4505 H4497 0.950 . S
C4505 C4503 1.327 . S
C4506 C4494 1.349 . S
C4506 H4500 0.950 . S
C4506 C4507 1.327 . S
C4507 H4501 0.950 . S
C4507 C4506 1.327 . S
C4507 C4511 1.429 . S
C4508 C4491 1.574 . S
C4508 H4502 0.949 . S
C4508 C4512 1.368 . S
C4509 C4490 1.429 . S
C4509 C4503 1.429 . S
C4509 C4510 1.523 . S
C4510 C4491 1.368 . S
C4510 C4504 1.368 . S
C4510 C4509 1.523 . S
C4511 C4495 1.429 . S
C4511 C4507 1.429 . S
C4511 C4512 1.523 . S
C4512 C4496 1.368 . S
C4512 C4508 1.368 . S
C4512 C4511 1.523 . S
H4513 C4488 0.950 . S
H4514 C4490 0.950 . S
H4515 C4491 0.949 . S
H4516 C4493 0.950 . S
H4517 C4495 0.950 . S
C4518 C4519 1.349 . S
C4518 C4520 1.327 . S
C4518 H4543 0.950 . S
C4519 C4518 1.349 . S
C4519 C4535 1.349 . S
C4520 C4518 1.327 . S
C4520 C4539 1.429 . S
C4520 H4544 0.950 . S
C4521 C4538 1.574 . S
C4521 C4540 1.368 . S
C4521 H4545 0.949 . S
H4522 C4526 0.949 . S
C4523 C4524 1.349 . S
C4523 C4525 1.327 . S
C4523 H4546 0.950 . S
C4524 C4523 1.349 . S
C4524 C4536 1.349 . S
C4525 C4523 1.327 . S
C4525 C4541 1.429 . S
C4525 H4547 0.950 . S
C4526 H4522 0.949 . S
C4526 C4534 1.574 . S
C4526 C4542 1.368 . S
H4527 C4535 0.950 . S
H4528 C4533 0.950 . S
H4529 C4534 0.949 . S
H4530 C4536 0.950 . S
H4531 C4537 0.950 . S
H4532 C4538 0.949 . S
C4533 H4528 0.950 . S
C4533 C4535 1.327 . S
C4533 C4539 1.429 . S
C4534 C4526 1.574 . S
C4534 H4529 0.949 . S
C4534 C4540 1.368 . S
C4535 C4519 1.349 . S
C4535 H4527 0.950 . S
C4535 C4533 1.327 . S
C4536 C4524 1.349 . S
C4536 H4530 0.950 . S
C4536 C4537 1.327 . S
C4537 H4531 0.950 . S
C4537 C4536 1.327 . S
C4537 C4541 1.429 . S
C4538 C4521 1.574 . S
C4538 H4532 0.949 . S
C4538 C4542 1.368 . S
C4539 C4520 1.429 . S
C4539 C4533 1.429 . S
C4539 C4540 1.523 . S
C4540 C4521 1.368 . S
C4540 C4534 1.368 . S
C4540 C4539 1.523 . S
C4541 C4525 1.429 . S
C4541 C4537 1.429 . S
C4541 C4542 1.523 1_565 S
C4542 C4526 1.368 . S
C4542 C4538 1.368 . S
C4542 C4541 1.523 1_545 S
H4543 C4518 0.950 . S
H4544 C4520 0.950 . S
H4545 C4521 0.949 . S
H4546 C4523 0.950 . S
H4547 C4525 0.950 . S
C4548 C4549 1.349 . S
C4548 C4550 1.327 . S
C4548 H4573 0.950 . S
C4549 C4548 1.349 . S
C4549 C4565 1.349 . S
C4550 C4548 1.327 . S
C4550 C4569 1.429 . S
C4550 H4574 0.950 . S
C4551 C4568 1.574 . S
C4551 C4570 1.368 . S
C4551 H4575 0.949 . S
H4552 C4556 0.949 . S
C4553 C4554 1.349 . S
C4553 C4555 1.327 . S
C4553 H4576 0.950 . S
C4554 C4553 1.349 . S
C4554 C4566 1.349 . S
C4555 C4553 1.327 . S
C4555 C4571 1.429 . S
C4555 H4577 0.950 . S
C4556 H4552 0.949 . S
C4556 C4564 1.574 . S
C4556 C4572 1.368 . S
H4557 C4565 0.950 . S
H4558 C4563 0.950 . S
H4559 C4564 0.949 . S
H4560 C4566 0.950 . S
H4561 C4567 0.950 . S
H4562 C4568 0.949 . S
C4563 H4558 0.950 . S
C4563 C4565 1.327 . S
C4563 C4569 1.429 . S
C4564 C4556 1.574 . S
C4564 H4559 0.949 . S
C4564 C4570 1.368 . S
C4565 C4549 1.349 . S
C4565 H4557 0.950 . S
C4565 C4563 1.327 . S
C4566 C4554 1.349 . S
C4566 H4560 0.950 . S
C4566 C4567 1.327 . S
C4567 H4561 0.950 . S
C4567 C4566 1.327 . S
C4567 C4571 1.429 . S
C4568 C4551 1.574 . S
C4568 H4562 0.949 . S
C4568 C4572 1.368 . S
C4569 C4550 1.429 . S
C4569 C4563 1.429 . S
C4569 C4570 1.523 . S
C4570 C4551 1.368 . S
C4570 C4564 1.368 . S
C4570 C4569 1.523 . S
C4571 C4555 1.429 . S
C4571 C4567 1.429 . S
C4571 C4572 1.523 . S
C4572 C4556 1.368 . S
C4572 C4568 1.368 . S
C4572 C4571 1.523 . S
H4573 C4548 0.950 . S
H4574 C4550 0.950 . S
H4575 C4551 0.949 . S
H4576 C4553 0.950 . S
H4577 C4555 0.950 . S
C4578 C4579 1.349 . S
C4578 C4580 1.327 . S
C4578 H4603 0.950 . S
C4579 C4578 1.349 . S
C4579 C4595 1.349 . S
C4580 C4578 1.327 . S
C4580 C4599 1.429 . S
C4580 H4604 0.950 . S
C4581 C4598 1.574 . S
C4581 C4600 1.368 . S
C4581 H4605 0.949 . S
H4582 C4586 0.949 . S
C4583 C4584 1.349 . S
C4583 C4585 1.327 . S
C4583 H4606 0.950 . S
C4584 C4583 1.349 . S
C4584 C4596 1.349 . S
C4585 C4583 1.327 . S
C4585 C4601 1.429 . S
C4585 H4607 0.950 . S
C4586 H4582 0.949 . S
C4586 C4594 1.574 . S
C4586 C4602 1.368 . S
H4587 C4595 0.950 . S
H4588 C4593 0.950 . S
H4589 C4594 0.949 . S
H4590 C4596 0.950 . S
H4591 C4597 0.950 . S
H4592 C4598 0.949 . S
C4593 H4588 0.950 . S
C4593 C4595 1.327 . S
C4593 C4599 1.429 . S
C4594 C4586 1.574 . S
C4594 H4589 0.949 . S
C4594 C4600 1.368 . S
C4595 C4579 1.349 . S
C4595 H4587 0.950 . S
C4595 C4593 1.327 . S
C4596 C4584 1.349 . S
C4596 H4590 0.950 . S
C4596 C4597 1.327 . S
C4597 H4591 0.950 . S
C4597 C4596 1.327 . S
C4597 C4601 1.429 . S
C4598 C4581 1.574 . S
C4598 H4592 0.949 . S
C4598 C4602 1.368 . S
C4599 C4580 1.429 . S
C4599 C4593 1.429 . S
C4599 C4600 1.523 . S
C4600 C4581 1.368 . S
C4600 C4594 1.368 . S
C4600 C4599 1.523 . S
C4601 C4585 1.429 . S
C4601 C4597 1.429 . S
C4601 C4602 1.523 . S
C4602 C4586 1.368 . S
C4602 C4598 1.368 . S
C4602 C4601 1.523 . S
H4603 C4578 0.950 . S
H4604 C4580 0.950 . S
H4605 C4581 0.949 . S
H4606 C4583 0.950 . S
H4607 C4585 0.950 . S
C4608 C4609 1.349 . S
C4608 C4610 1.327 . S
C4608 H4633 0.950 . S
C4609 C4608 1.349 . S
C4609 C4625 1.349 . S
C4610 C4608 1.327 . S
C4610 C4629 1.429 . S
C4610 H4634 0.950 . S
C4611 C4628 1.574 . S
C4611 C4630 1.368 . S
C4611 H4635 0.949 . S
H4612 C4616 0.949 . S
C4613 C4614 1.349 . S
C4613 C4615 1.327 . S
C4613 H4636 0.950 . S
C4614 C4613 1.349 . S
C4614 C4626 1.349 . S
C4615 C4613 1.327 . S
C4615 C4631 1.429 . S
C4615 H4637 0.950 . S
C4616 H4612 0.949 . S
C4616 C4624 1.574 . S
C4616 C4632 1.368 . S
H4617 C4625 0.950 . S
H4618 C4623 0.950 . S
H4619 C4624 0.949 . S
H4620 C4626 0.950 . S
H4621 C4627 0.950 . S
H4622 C4628 0.949 . S
C4623 H4618 0.950 . S
C4623 C4625 1.327 . S
C4623 C4629 1.429 . S
C4624 C4616 1.574 . S
C4624 H4619 0.949 . S
C4624 C4630 1.368 . S
C4625 C4609 1.349 . S
C4625 H4617 0.950 . S
C4625 C4623 1.327 . S
C4626 C4614 1.349 . S
C4626 H4620 0.950 . S
C4626 C4627 1.327 . S
C4627 H4621 0.950 . S
C4627 C4626 1.327 . S
C4627 C4631 1.429 . S
C4628 C4611 1.574 . S
C4628 H4622 0.949 . S
C4628 C4632 1.368 . S
C4629 C4610 1.429 . S
C4629 C4623 1.429 . S
C4629 C4630 1.523 . S
C4630 C4611 1.368 . S
C4630 C4624 1.368 . S
C4630 C4629 1.523 . S
C4631 C4615 1.429 . S
C4631 C4627 1.429 . S
C4631 C4632 1.523 . S
C4632 C4616 1.368 . S
C4632 C4628 1.368 . S
C4632 C4631 1.523 . S
H4633 C4608 0.950 . S
H4634 C4610 0.950 . S
H4635 C4611 0.949 . S
H4636 C4613 0.950 . S
H4637 C4615 0.950 . S
C4638 C4639 1.349 . S
C4638 C4640 1.327 . S
C4638 H4663 0.950 . S
C4639 C4638 1.349 . S
C4639 C4655 1.349 . S
C4640 C4638 1.327 . S
C4640 C4659 1.429 . S
C4640 H4664 0.950 . S
C4641 C4658 1.574 . S
C4641 C4660 1.368 . S
C4641 H4665 0.949 . S
H4642 C4646 0.949 . S
C4643 C4644 1.349 . S
C4643 C4645 1.327 . S
C4643 H4666 0.950 . S
C4644 C4643 1.349 . S
C4644 C4656 1.349 . S
C4645 C4643 1.327 . S
C4645 C4661 1.429 . S
C4645 H4667 0.950 . S
C4646 H4642 0.949 . S
C4646 C4654 1.574 . S
C4646 C4662 1.368 . S
H4647 C4655 0.950 . S
H4648 C4653 0.950 . S
H4649 C4654 0.949 . S
H4650 C4656 0.950 . S
H4651 C4657 0.950 . S
H4652 C4658 0.949 . S
C4653 H4648 0.950 . S
C4653 C4655 1.327 . S
C4653 C4659 1.429 . S
C4654 C4646 1.574 . S
C4654 H4649 0.949 . S
C4654 C4660 1.368 . S
C4655 C4639 1.349 . S
C4655 H4647 0.950 . S
C4655 C4653 1.327 . S
C4656 C4644 1.349 . S
C4656 H4650 0.950 . S
C4656 C4657 1.327 . S
C4657 H4651 0.950 . S
C4657 C4656 1.327 . S
C4657 C4661 1.429 . S
C4658 C4641 1.574 . S
C4658 H4652 0.949 . S
C4658 C4662 1.368 . S
C4659 C4640 1.429 . S
C4659 C4653 1.429 . S
C4659 C4660 1.523 . S
C4660 C4641 1.368 . S
C4660 C4654 1.368 . S
C4660 C4659 1.523 . S
C4661 C4645 1.429 . S
C4661 C4657 1.429 . S
C4661 C4662 1.523 . S
C4662 C4646 1.368 . S
C4662 C4658 1.368 . S
C4662 C4661 1.523 . S
H4663 C4638 0.950 . S
H4664 C4640 0.950 . S
H4665 C4641 0.949 . S
H4666 C4643 0.950 . S
H4667 C4645 0.950 . S
C4668 C4669 1.349 . S
C4668 C4670 1.327 . S
C4668 H4693 0.950 . S
C4669 C4668 1.349 . S
C4669 C4685 1.349 . S
C4670 C4668 1.327 . S
C4670 C4689 1.429 . S
C4670 H4694 0.950 . S
C4671 C4688 1.574 . S
C4671 C4690 1.368 . S
C4671 H4695 0.949 . S
H4672 C4676 0.949 . S
C4673 C4674 1.349 . S
C4673 C4675 1.327 . S
C4673 H4696 0.950 . S
C4674 C4673 1.349 . S
C4674 C4686 1.349 . S
C4675 C4673 1.327 . S
C4675 C4691 1.429 . S
C4675 H4697 0.950 . S
C4676 H4672 0.949 . S
C4676 C4684 1.574 . S
C4676 C4692 1.368 . S
H4677 C4685 0.950 . S
H4678 C4683 0.950 . S
H4679 C4684 0.949 . S
H4680 C4686 0.950 . S
H4681 C4687 0.950 . S
H4682 C4688 0.949 . S
C4683 H4678 0.950 . S
C4683 C4685 1.327 . S
C4683 C4689 1.429 . S
C4684 C4676 1.574 . S
C4684 H4679 0.949 . S
C4684 C4690 1.368 . S
C4685 C4669 1.349 . S
C4685 H4677 0.950 . S
C4685 C4683 1.327 . S
C4686 C4674 1.349 . S
C4686 H4680 0.950 . S
C4686 C4687 1.327 . S
C4687 H4681 0.950 . S
C4687 C4686 1.327 . S
C4687 C4691 1.429 . S
C4688 C4671 1.574 . S
C4688 H4682 0.949 . S
C4688 C4692 1.368 . S
C4689 C4670 1.429 . S
C4689 C4683 1.429 . S
C4689 C4690 1.523 . S
C4690 C4671 1.368 . S
C4690 C4684 1.368 . S
C4690 C4689 1.523 . S
C4691 C4675 1.429 . S
C4691 C4687 1.429 . S
C4691 C4692 1.523 . S
C4692 C4676 1.368 . S
C4692 C4688 1.368 . S
C4692 C4691 1.523 . S
H4693 C4668 0.950 . S
H4694 C4670 0.950 . S
H4695 C4671 0.949 . S
H4696 C4673 0.950 . S
H4697 C4675 0.950 . S
C4698 C4699 1.349 . S
C4698 C4700 1.327 . S
C4698 H4723 0.950 . S
C4699 C4698 1.349 . S
C4699 C4715 1.349 . S
C4700 C4698 1.327 . S
C4700 C4719 1.429 . S
C4700 H4724 0.950 . S
C4701 C4718 1.574 . S
C4701 C4720 1.368 . S
C4701 H4725 0.949 . S
H4702 C4706 0.949 . S
C4703 C4704 1.349 . S
C4703 C4705 1.327 . S
C4703 H4726 0.950 . S
C4704 C4703 1.349 . S
C4704 C4716 1.349 . S
C4705 C4703 1.327 . S
C4705 C4721 1.429 . S
C4705 H4727 0.950 . S
C4706 H4702 0.949 . S
C4706 C4714 1.574 . S
C4706 C4722 1.368 . S
H4707 C4715 0.950 . S
H4708 C4713 0.950 . S
H4709 C4714 0.949 . S
H4710 C4716 0.950 . S
H4711 C4717 0.950 . S
H4712 C4718 0.949 . S
C4713 H4708 0.950 . S
C4713 C4715 1.327 . S
C4713 C4719 1.429 . S
C4714 C4706 1.574 . S
C4714 H4709 0.949 . S
C4714 C4720 1.368 . S
C4715 C4699 1.349 . S
C4715 H4707 0.950 . S
C4715 C4713 1.327 . S
C4716 C4704 1.349 . S
C4716 H4710 0.950 . S
C4716 C4717 1.327 . S
C4717 H4711 0.950 . S
C4717 C4716 1.327 . S
C4717 C4721 1.429 . S
C4718 C4701 1.574 . S
C4718 H4712 0.949 . S
C4718 C4722 1.368 . S
C4719 C4700 1.429 . S
C4719 C4713 1.429 . S
C4719 C4720 1.523 . S
C4720 C4701 1.368 . S
C4720 C4714 1.368 . S
C4720 C4719 1.523 . S
C4721 C4705 1.429 . S
C4721 C4717 1.429 . S
C4721 C4722 1.523 . S
C4722 C4706 1.368 . S
C4722 C4718 1.368 . S
C4722 C4721 1.523 . S
H4723 C4698 0.950 . S
H4724 C4700 0.950 . S
H4725 C4701 0.949 . S
H4726 C4703 0.950 . S
H4727 C4705 0.950 . S
C4728 C4729 1.349 . S
C4728 C4730 1.327 . S
C4728 H4753 0.950 . S
C4729 C4728 1.349 . S
C4729 C4745 1.349 . S
C4730 C4728 1.327 . S
C4730 C4749 1.429 . S
C4730 H4754 0.950 . S
C4731 C4748 1.574 . S
C4731 C4750 1.368 . S
C4731 H4755 0.949 . S
H4732 C4736 0.949 . S
C4733 C4734 1.349 . S
C4733 C4735 1.327 . S
C4733 H4756 0.950 . S
C4734 C4733 1.349 . S
C4734 C4746 1.349 . S
C4735 C4733 1.327 . S
C4735 C4751 1.429 . S
C4735 H4757 0.950 . S
C4736 H4732 0.949 . S
C4736 C4744 1.574 . S
C4736 C4752 1.368 . S
H4737 C4745 0.950 . S
H4738 C4743 0.950 . S
H4739 C4744 0.949 . S
H4740 C4746 0.950 . S
H4741 C4747 0.950 . S
H4742 C4748 0.949 . S
C4743 H4738 0.950 . S
C4743 C4745 1.327 . S
C4743 C4749 1.429 . S
C4744 C4736 1.574 . S
C4744 H4739 0.949 . S
C4744 C4750 1.368 . S
C4745 C4729 1.349 . S
C4745 H4737 0.950 . S
C4745 C4743 1.327 . S
C4746 C4734 1.349 . S
C4746 H4740 0.950 . S
C4746 C4747 1.327 . S
C4747 H4741 0.950 . S
C4747 C4746 1.327 . S
C4747 C4751 1.429 . S
C4748 C4731 1.574 . S
C4748 H4742 0.949 . S
C4748 C4752 1.368 . S
C4749 C4730 1.429 . S
C4749 C4743 1.429 . S
C4749 C4750 1.523 . S
C4750 C4731 1.368 . S
C4750 C4744 1.368 . S
C4750 C4749 1.523 . S
C4751 C4735 1.429 . S
C4751 C4747 1.429 . S
C4751 C4752 1.523 . S
C4752 C4736 1.368 . S
C4752 C4748 1.368 . S
C4752 C4751 1.523 . S
H4753 C4728 0.950 . S
H4754 C4730 0.950 . S
H4755 C4731 0.949 . S
H4756 C4733 0.950 . S
H4757 C4735 0.950 . S
C4758 C4759 1.349 . S
C4758 C4760 1.327 . S
C4758 H4783 0.950 . S
C4759 C4758 1.349 . S
C4759 C4775 1.349 . S
C4760 C4758 1.327 . S
C4760 C4779 1.429 . S
C4760 H4784 0.950 . S
C4761 C4778 1.574 . S
C4761 C4780 1.368 . S
C4761 H4785 0.949 . S
H4762 C4766 0.949 . S
C4763 C4764 1.349 . S
C4763 C4765 1.327 . S
C4763 H4786 0.950 . S
C4764 C4763 1.349 . S
C4764 C4776 1.349 . S
C4765 C4763 1.327 . S
C4765 C4781 1.429 . S
C4765 H4787 0.950 . S
C4766 H4762 0.949 . S
C4766 C4774 1.574 . S
C4766 C4782 1.368 . S
H4767 C4775 0.950 . S
H4768 C4773 0.950 . S
H4769 C4774 0.949 . S
H4770 C4776 0.950 . S
H4771 C4777 0.950 . S
H4772 C4778 0.949 . S
C4773 H4768 0.950 . S
C4773 C4775 1.327 . S
C4773 C4779 1.429 . S
C4774 C4766 1.574 . S
C4774 H4769 0.949 . S
C4774 C4780 1.368 . S
C4775 C4759 1.349 . S
C4775 H4767 0.950 . S
C4775 C4773 1.327 . S
C4776 C4764 1.349 . S
C4776 H4770 0.950 . S
C4776 C4777 1.327 . S
C4777 H4771 0.950 . S
C4777 C4776 1.327 . S
C4777 C4781 1.429 . S
C4778 C4761 1.574 . S
C4778 H4772 0.949 . S
C4778 C4782 1.368 . S
C4779 C4760 1.429 . S
C4779 C4773 1.429 . S
C4779 C4780 1.523 . S
C4780 C4761 1.368 . S
C4780 C4774 1.368 . S
C4780 C4779 1.523 . S
C4781 C4765 1.429 . S
C4781 C4777 1.429 . S
C4781 C4782 1.523 . S
C4782 C4766 1.368 . S
C4782 C4778 1.368 . S
C4782 C4781 1.523 . S
H4783 C4758 0.950 . S
H4784 C4760 0.950 . S
H4785 C4761 0.949 . S
H4786 C4763 0.950 . S
H4787 C4765 0.950 . S
C4788 C4789 1.349 . S
C4788 C4790 1.327 . S
C4788 H4813 0.950 . S
C4789 C4788 1.349 . S
C4789 C4805 1.349 . S
C4790 C4788 1.327 . S
C4790 C4809 1.429 . S
C4790 H4814 0.950 . S
C4791 C4808 1.574 . S
C4791 C4810 1.368 . S
C4791 H4815 0.949 . S
H4792 C4796 0.949 . S
C4793 C4794 1.349 . S
C4793 C4795 1.327 . S
C4793 H4816 0.950 . S
C4794 C4793 1.349 . S
C4794 C4806 1.349 . S
C4795 C4793 1.327 . S
C4795 C4811 1.429 . S
C4795 H4817 0.950 . S
C4796 H4792 0.949 . S
C4796 C4804 1.574 . S
C4796 C4812 1.368 . S
H4797 C4805 0.950 . S
H4798 C4803 0.950 . S
H4799 C4804 0.949 . S
H4800 C4806 0.950 . S
H4801 C4807 0.950 . S
H4802 C4808 0.949 . S
C4803 H4798 0.950 . S
C4803 C4805 1.327 . S
C4803 C4809 1.429 . S
C4804 C4796 1.574 . S
C4804 H4799 0.949 . S
C4804 C4810 1.368 . S
C4805 C4789 1.349 . S
C4805 H4797 0.950 . S
C4805 C4803 1.327 . S
C4806 C4794 1.349 . S
C4806 H4800 0.950 . S
C4806 C4807 1.327 . S
C4807 H4801 0.950 . S
C4807 C4806 1.327 . S
C4807 C4811 1.429 . S
C4808 C4791 1.574 . S
C4808 H4802 0.949 . S
C4808 C4812 1.368 . S
C4809 C4790 1.429 . S
C4809 C4803 1.429 . S
C4809 C4810 1.523 . S
C4810 C4791 1.368 . S
C4810 C4804 1.368 . S
C4810 C4809 1.523 . S
C4811 C4795 1.429 . S
C4811 C4807 1.429 . S
C4811 C4812 1.523 . S
C4812 C4796 1.368 . S
C4812 C4808 1.368 . S
C4812 C4811 1.523 . S
H4813 C4788 0.950 . S
H4814 C4790 0.950 . S
H4815 C4791 0.949 . S
H4816 C4793 0.950 . S
H4817 C4795 0.950 . S
C4818 C4819 1.349 . S
C4818 C4820 1.327 . S
C4818 H4843 0.950 . S
C4819 C4818 1.349 . S
C4819 C4835 1.349 . S
C4820 C4818 1.327 . S
C4820 C4839 1.429 . S
C4820 H4844 0.950 . S
C4821 C4838 1.574 . S
C4821 C4840 1.368 . S
C4821 H4845 0.949 . S
H4822 C4826 0.949 . S
C4823 C4824 1.349 . S
C4823 C4825 1.327 . S
C4823 H4846 0.950 . S
C4824 C4823 1.349 . S
C4824 C4836 1.349 . S
C4825 C4823 1.327 . S
C4825 C4841 1.429 . S
C4825 H4847 0.950 . S
C4826 H4822 0.949 . S
C4826 C4834 1.574 . S
C4826 C4842 1.368 . S
H4827 C4835 0.950 . S
H4828 C4833 0.950 . S
H4829 C4834 0.949 . S
H4830 C4836 0.950 . S
H4831 C4837 0.950 . S
H4832 C4838 0.949 . S
C4833 H4828 0.950 . S
C4833 C4835 1.327 . S
C4833 C4839 1.429 . S
C4834 C4826 1.574 . S
C4834 H4829 0.949 . S
C4834 C4840 1.368 . S
C4835 C4819 1.349 . S
C4835 H4827 0.950 . S
C4835 C4833 1.327 . S
C4836 C4824 1.349 . S
C4836 H4830 0.950 . S
C4836 C4837 1.327 . S
C4837 H4831 0.950 . S
C4837 C4836 1.327 . S
C4837 C4841 1.429 . S
C4838 C4821 1.574 . S
C4838 H4832 0.949 . S
C4838 C4842 1.368 . S
C4839 C4820 1.429 . S
C4839 C4833 1.429 . S
C4839 C4840 1.523 . S
C4840 C4821 1.368 . S
C4840 C4834 1.368 . S
C4840 C4839 1.523 . S
C4841 C4825 1.429 . S
C4841 C4837 1.429 . S
C4841 C4842 1.523 . S
C4842 C4826 1.368 . S
C4842 C4838 1.368 . S
C4842 C4841 1.523 . S
H4843 C4818 0.950 . S
H4844 C4820 0.950 . S
H4845 C4821 0.949 . S
H4846 C4823 0.950 . S
H4847 C4825 0.950 . S
C4848 C4849 1.349 . S
C4848 C4850 1.327 . S
C4848 H4873 0.950 . S
C4849 C4848 1.349 . S
C4849 C4865 1.349 . S
C4850 C4848 1.327 . S
C4850 C4869 1.429 . S
C4850 H4874 0.950 . S
C4851 C4868 1.574 . S
C4851 C4870 1.368 . S
C4851 H4875 0.949 . S
H4852 C4856 0.949 . S
C4853 C4854 1.349 . S
C4853 C4855 1.327 . S
C4853 H4876 0.950 . S
C4854 C4853 1.349 . S
C4854 C4866 1.349 . S
C4855 C4853 1.327 . S
C4855 C4871 1.429 . S
C4855 H4877 0.950 . S
C4856 H4852 0.949 . S
C4856 C4864 1.574 . S
C4856 C4872 1.368 . S
H4857 C4865 0.950 1_455 S
H4858 C4863 0.950 . S
H4859 C4864 0.949 . S
H4860 C4866 0.950 . S
H4861 C4867 0.950 . S
H4862 C4868 0.949 . S
C4863 H4858 0.950 . S
C4863 C4865 1.327 . S
C4863 C4869 1.429 . S
C4864 C4856 1.574 . S
C4864 H4859 0.949 . S
C4864 C4870 1.368 . S
C4865 C4849 1.349 . S
C4865 H4857 0.950 1_655 S
C4865 C4863 1.327 . S
C4866 C4854 1.349 . S
C4866 H4860 0.950 . S
C4866 C4867 1.327 . S
C4867 H4861 0.950 . S
C4867 C4866 1.327 . S
C4867 C4871 1.429 . S
C4868 C4851 1.574 . S
C4868 H4862 0.949 . S
C4868 C4872 1.368 . S
C4869 C4850 1.429 . S
C4869 C4863 1.429 . S
C4869 C4870 1.523 . S
C4870 C4851 1.368 . S
C4870 C4864 1.368 . S
C4870 C4869 1.523 . S
C4871 C4855 1.429 . S
C4871 C4867 1.429 . S
C4871 C4872 1.523 . S
C4872 C4856 1.368 . S
C4872 C4868 1.368 . S
C4872 C4871 1.523 . S
H4873 C4848 0.950 . S
H4874 C4850 0.950 . S
H4875 C4851 0.949 . S
H4876 C4853 0.950 . S
H4877 C4855 0.950 . S
C4878 C4879 1.349 . S
C4878 C4880 1.327 . S
C4878 H4903 0.950 . S
C4879 C4878 1.349 . S
C4879 C4895 1.349 . S
C4880 C4878 1.327 . S
C4880 C4899 1.429 . S
C4880 H4904 0.950 . S
C4881 C4898 1.574 . S
C4881 C4900 1.368 . S
C4881 H4905 0.949 . S
H4882 C4886 0.949 . S
C4883 C4884 1.349 . S
C4883 C4885 1.327 . S
C4883 H4906 0.950 . S
C4884 C4883 1.349 . S
C4884 C4896 1.349 . S
C4885 C4883 1.327 . S
C4885 C4901 1.429 . S
C4885 H4907 0.950 . S
C4886 H4882 0.949 . S
C4886 C4894 1.574 . S
C4886 C4902 1.368 . S
H4887 C4895 0.950 . S
H4888 C4893 0.950 . S
H4889 C4894 0.949 . S
H4890 C4896 0.950 . S
H4891 C4897 0.950 . S
H4892 C4898 0.949 . S
C4893 H4888 0.950 . S
C4893 C4895 1.327 . S
C4893 C4899 1.429 . S
C4894 C4886 1.574 . S
C4894 H4889 0.949 . S
C4894 C4900 1.368 . S
C4895 C4879 1.349 . S
C4895 H4887 0.950 . S
C4895 C4893 1.327 . S
C4896 C4884 1.349 . S
C4896 H4890 0.950 . S
C4896 C4897 1.327 . S
C4897 H4891 0.950 . S
C4897 C4896 1.327 . S
C4897 C4901 1.429 . S
C4898 C4881 1.574 . S
C4898 H4892 0.949 . S
C4898 C4902 1.368 . S
C4899 C4880 1.429 . S
C4899 C4893 1.429 . S
C4899 C4900 1.523 . S
C4900 C4881 1.368 . S
C4900 C4894 1.368 . S
C4900 C4899 1.523 . S
C4901 C4885 1.429 . S
C4901 C4897 1.429 . S
C4901 C4902 1.523 . S
C4902 C4886 1.368 . S
C4902 C4898 1.368 . S
C4902 C4901 1.523 . S
H4903 C4878 0.950 . S
H4904 C4880 0.950 . S
H4905 C4881 0.949 . S
H4906 C4883 0.950 . S
H4907 C4885 0.950 . S
C4908 C4909 1.349 . S
C4908 C4910 1.327 . S
C4908 H4933 0.950 . S
C4909 C4908 1.349 . S
C4909 C4925 1.349 . S
C4910 C4908 1.327 . S
C4910 C4929 1.429 . S
C4910 H4934 0.950 . S
C4911 C4928 1.574 . S
C4911 C4930 1.368 . S
C4911 H4935 0.949 . S
H4912 C4916 0.949 . S
C4913 C4914 1.349 . S
C4913 C4915 1.327 . S
C4913 H4936 0.950 . S
C4914 C4913 1.349 . S
C4914 C4926 1.349 . S
C4915 C4913 1.327 . S
C4915 C4931 1.429 . S
C4915 H4937 0.950 . S
C4916 H4912 0.949 . S
C4916 C4924 1.574 . S
C4916 C4932 1.368 . S
H4917 C4925 0.950 . S
H4918 C4923 0.950 . S
H4919 C4924 0.949 . S
H4920 C4926 0.950 . S
H4921 C4927 0.950 . S
H4922 C4928 0.949 . S
C4923 H4918 0.950 . S
C4923 C4925 1.327 . S
C4923 C4929 1.429 . S
C4924 C4916 1.574 . S
C4924 H4919 0.949 . S
C4924 C4930 1.368 . S
C4925 C4909 1.349 . S
C4925 H4917 0.950 . S
C4925 C4923 1.327 . S
C4926 C4914 1.349 . S
C4926 H4920 0.950 . S
C4926 C4927 1.327 . S
C4927 H4921 0.950 . S
C4927 C4926 1.327 . S
C4927 C4931 1.429 . S
C4928 C4911 1.574 . S
C4928 H4922 0.949 . S
C4928 C4932 1.368 . S
C4929 C4910 1.429 . S
C4929 C4923 1.429 . S
C4929 C4930 1.523 . S
C4930 C4911 1.368 . S
C4930 C4924 1.368 . S
C4930 C4929 1.523 . S
C4931 C4915 1.429 . S
C4931 C4927 1.429 . S
C4931 C4932 1.523 . S
C4932 C4916 1.368 . S
C4932 C4928 1.368 . S
C4932 C4931 1.523 . S
H4933 C4908 0.950 . S
H4934 C4910 0.950 . S
H4935 C4911 0.949 . S
H4936 C4913 0.950 . S
H4937 C4915 0.950 . S
C4938 C4939 1.349 . S
C4938 C4940 1.327 . S
C4938 H4963 0.950 . S
C4939 C4938 1.349 . S
C4939 C4955 1.349 . S
C4940 C4938 1.327 . S
C4940 C4959 1.429 . S
C4940 H4964 0.950 . S
C4941 C4958 1.574 . S
C4941 C4960 1.368 . S
C4941 H4965 0.949 . S
H4942 C4946 0.949 . S
C4943 C4944 1.349 . S
C4943 C4945 1.327 . S
C4943 H4966 0.950 . S
C4944 C4943 1.349 . S
C4944 C4956 1.349 . S
C4945 C4943 1.327 . S
C4945 C4961 1.429 . S
C4945 H4967 0.950 . S
C4946 H4942 0.949 . S
C4946 C4954 1.574 . S
C4946 C4962 1.368 . S
H4947 C4955 0.950 . S
H4948 C4953 0.950 . S
H4949 C4954 0.949 . S
H4950 C4956 0.950 . S
H4951 C4957 0.950 . S
H4952 C4958 0.949 . S
C4953 H4948 0.950 . S
C4953 C4955 1.327 . S
C4953 C4959 1.429 . S
C4954 C4946 1.574 . S
C4954 H4949 0.949 . S
C4954 C4960 1.368 . S
C4955 C4939 1.349 . S
C4955 H4947 0.950 . S
C4955 C4953 1.327 . S
C4956 C4944 1.349 . S
C4956 H4950 0.950 . S
C4956 C4957 1.327 . S
C4957 H4951 0.950 . S
C4957 C4956 1.327 . S
C4957 C4961 1.429 . S
C4958 C4941 1.574 . S
C4958 H4952 0.949 . S
C4958 C4962 1.368 . S
C4959 C4940 1.429 . S
C4959 C4953 1.429 . S
C4959 C4960 1.523 . S
C4960 C4941 1.368 . S
C4960 C4954 1.368 . S
C4960 C4959 1.523 . S
C4961 C4945 1.429 . S
C4961 C4957 1.429 . S
C4961 C4962 1.523 . S
C4962 C4946 1.368 . S
C4962 C4958 1.368 . S
C4962 C4961 1.523 . S
H4963 C4938 0.950 . S
H4964 C4940 0.950 . S
H4965 C4941 0.949 . S
H4966 C4943 0.950 . S
H4967 C4945 0.950 . S
C4968 C4969 1.349 . S
C4968 C4970 1.327 . S
C4968 H4993 0.950 . S
C4969 C4968 1.349 . S
C4969 C4985 1.349 . S
C4970 C4968 1.327 . S
C4970 C4989 1.429 . S
C4970 H4994 0.950 . S
C4971 C4988 1.574 . S
C4971 C4990 1.368 . S
C4971 H4995 0.949 . S
H4972 C4976 0.949 . S
C4973 C4974 1.349 . S
C4973 C4975 1.327 . S
C4973 H4996 0.950 . S
C4974 C4973 1.349 . S
C4974 C4986 1.349 . S
C4975 C4973 1.327 . S
C4975 C4991 1.429 . S
C4975 H4997 0.950 . S
C4976 H4972 0.949 . S
C4976 C4984 1.574 . S
C4976 C4992 1.368 . S
H4977 C4985 0.950 . S
H4978 C4983 0.950 . S
H4979 C4984 0.949 . S
H4980 C4986 0.950 . S
H4981 C4987 0.950 . S
H4982 C4988 0.949 . S
C4983 H4978 0.950 . S
C4983 C4985 1.327 . S
C4983 C4989 1.429 . S
C4984 C4976 1.574 . S
C4984 H4979 0.949 . S
C4984 C4990 1.368 . S
C4985 C4969 1.349 . S
C4985 H4977 0.950 . S
C4985 C4983 1.327 . S
C4986 C4974 1.349 . S
C4986 H4980 0.950 . S
C4986 C4987 1.327 . S
C4987 H4981 0.950 . S
C4987 C4986 1.327 . S
C4987 C4991 1.429 . S
C4988 C4971 1.574 . S
C4988 H4982 0.949 . S
C4988 C4992 1.368 . S
C4989 C4970 1.429 . S
C4989 C4983 1.429 . S
C4989 C4990 1.523 . S
C4990 C4971 1.368 . S
C4990 C4984 1.368 . S
C4990 C4989 1.523 . S
C4991 C4975 1.429 . S
C4991 C4987 1.429 . S
C4991 C4992 1.523 . S
C4992 C4976 1.368 . S
C4992 C4988 1.368 . S
C4992 C4991 1.523 . S
H4993 C4968 0.950 . S
H4994 C4970 0.950 . S
H4995 C4971 0.949 . S
H4996 C4973 0.950 . S
H4997 C4975 0.950 . S
C4998 C4999 1.349 . S
C4998 C5000 1.327 . S
C4998 H5023 0.950 . S
C4999 C4998 1.349 . S
C4999 C5015 1.349 . S
C5000 C4998 1.327 . S
C5000 C5019 1.429 . S
C5000 H5024 0.950 . S
C5001 C5018 1.574 . S
C5001 C5020 1.368 . S
C5001 H5025 0.949 . S
H5002 C5006 0.949 . S
C5003 C5004 1.349 . S
C5003 C5005 1.327 . S
C5003 H5026 0.950 . S
C5004 C5003 1.349 . S
C5004 C5016 1.349 . S
C5005 C5003 1.327 . S
C5005 C5021 1.429 . S
C5005 H5027 0.950 . S
C5006 H5002 0.949 . S
C5006 C5014 1.574 . S
C5006 C5022 1.368 . S
H5007 C5015 0.950 . S
H5008 C5013 0.950 . S
H5009 C5014 0.949 . S
H5010 C5016 0.950 . S
H5011 C5017 0.950 . S
H5012 C5018 0.949 . S
C5013 H5008 0.950 . S
C5013 C5015 1.327 . S
C5013 C5019 1.429 . S
C5014 C5006 1.574 . S
C5014 H5009 0.949 . S
C5014 C5020 1.368 . S
C5015 C4999 1.349 . S
C5015 H5007 0.950 . S
C5015 C5013 1.327 . S
C5016 C5004 1.349 . S
C5016 H5010 0.950 . S
C5016 C5017 1.327 . S
C5017 H5011 0.950 . S
C5017 C5016 1.327 . S
C5017 C5021 1.429 . S
C5018 C5001 1.574 . S
C5018 H5012 0.949 . S
C5018 C5022 1.368 . S
C5019 C5000 1.429 . S
C5019 C5013 1.429 . S
C5019 C5020 1.523 . S
C5020 C5001 1.368 . S
C5020 C5014 1.368 . S
C5020 C5019 1.523 . S
C5021 C5005 1.429 . S
C5021 C5017 1.429 . S
C5021 C5022 1.523 . S
C5022 C5006 1.368 . S
C5022 C5018 1.368 . S
C5022 C5021 1.523 . S
H5023 C4998 0.950 . S
H5024 C5000 0.950 . S
H5025 C5001 0.949 . S
H5026 C5003 0.950 . S
H5027 C5005 0.950 . S
C5028 C5029 1.349 . S
C5028 C5030 1.327 . S
C5028 H5053 0.950 . S
C5029 C5028 1.349 . S
C5029 C5045 1.349 . S
C5030 C5028 1.327 . S
C5030 C5049 1.429 . S
C5030 H5054 0.950 . S
C5031 C5048 1.574 . S
C5031 C5050 1.368 . S
C5031 H5055 0.949 . S
H5032 C5036 0.949 . S
C5033 C5034 1.349 . S
C5033 C5035 1.327 . S
C5033 H5056 0.950 . S
C5034 C5033 1.349 . S
C5034 C5046 1.349 . S
C5035 C5033 1.327 . S
C5035 C5051 1.429 . S
C5035 H5057 0.950 . S
C5036 H5032 0.949 . S
C5036 C5044 1.574 . S
C5036 C5052 1.368 . S
H5037 C5045 0.950 . S
H5038 C5043 0.950 . S
H5039 C5044 0.949 . S
H5040 C5046 0.950 . S
H5041 C5047 0.950 . S
H5042 C5048 0.949 . S
C5043 H5038 0.950 . S
C5043 C5045 1.327 . S
C5043 C5049 1.429 . S
C5044 C5036 1.574 . S
C5044 H5039 0.949 . S
C5044 C5050 1.368 . S
C5045 C5029 1.349 . S
C5045 H5037 0.950 . S
C5045 C5043 1.327 . S
C5046 C5034 1.349 . S
C5046 H5040 0.950 . S
C5046 C5047 1.327 . S
C5047 H5041 0.950 . S
C5047 C5046 1.327 . S
C5047 C5051 1.429 . S
C5048 C5031 1.574 . S
C5048 H5042 0.949 . S
C5048 C5052 1.368 . S
C5049 C5030 1.429 . S
C5049 C5043 1.429 . S
C5049 C5050 1.523 . S
C5050 C5031 1.368 . S
C5050 C5044 1.368 . S
C5050 C5049 1.523 . S
C5051 C5035 1.429 . S
C5051 C5047 1.429 . S
C5051 C5052 1.523 . S
C5052 C5036 1.368 . S
C5052 C5048 1.368 . S
C5052 C5051 1.523 . S
H5053 C5028 0.950 . S
H5054 C5030 0.950 . S
H5055 C5031 0.949 . S
H5056 C5033 0.950 . S
H5057 C5035 0.950 . S
C5058 C5059 1.349 . S
C5058 C5060 1.327 . S
C5058 H5083 0.950 . S
C5059 C5058 1.349 . S
C5059 C5075 1.349 . S
C5060 C5058 1.327 . S
C5060 C5079 1.429 . S
C5060 H5084 0.950 . S
C5061 C5078 1.574 . S
C5061 C5080 1.368 . S
C5061 H5085 0.949 . S
H5062 C5066 0.949 . S
C5063 C5064 1.349 . S
C5063 C5065 1.327 . S
C5063 H5086 0.950 . S
C5064 C5063 1.349 . S
C5064 C5076 1.349 . S
C5065 C5063 1.327 . S
C5065 C5081 1.429 . S
C5065 H5087 0.950 . S
C5066 H5062 0.949 . S
C5066 C5074 1.574 . S
C5066 C5082 1.368 . S
H5067 C5075 0.950 . S
H5068 C5073 0.950 . S
H5069 C5074 0.949 . S
H5070 C5076 0.950 . S
H5071 C5077 0.950 . S
H5072 C5078 0.949 . S
C5073 H5068 0.950 . S
C5073 C5075 1.327 . S
C5073 C5079 1.429 . S
C5074 C5066 1.574 . S
C5074 H5069 0.949 . S
C5074 C5080 1.368 . S
C5075 C5059 1.349 . S
C5075 H5067 0.950 . S
C5075 C5073 1.327 . S
C5076 C5064 1.349 . S
C5076 H5070 0.950 . S
C5076 C5077 1.327 . S
C5077 H5071 0.950 . S
C5077 C5076 1.327 . S
C5077 C5081 1.429 . S
C5078 C5061 1.574 . S
C5078 H5072 0.949 . S
C5078 C5082 1.368 . S
C5079 C5060 1.429 . S
C5079 C5073 1.429 . S
C5079 C5080 1.523 . S
C5080 C5061 1.368 . S
C5080 C5074 1.368 . S
C5080 C5079 1.523 . S
C5081 C5065 1.429 . S
C5081 C5077 1.429 . S
C5081 C5082 1.523 . S
C5082 C5066 1.368 . S
C5082 C5078 1.368 . S
C5082 C5081 1.523 . S
H5083 C5058 0.950 . S
H5084 C5060 0.950 . S
H5085 C5061 0.949 . S
H5086 C5063 0.950 . S
H5087 C5065 0.950 . S
C5088 C5089 1.349 . S
C5088 C5090 1.327 . S
C5088 H5113 0.950 . S
C5089 C5088 1.349 . S
C5089 C5105 1.349 . S
C5090 C5088 1.327 . S
C5090 C5109 1.429 . S
C5090 H5114 0.950 . S
C5091 C5108 1.574 . S
C5091 C5110 1.368 . S
C5091 H5115 0.949 . S
H5092 C5096 0.949 . S
C5093 C5094 1.349 . S
C5093 C5095 1.327 . S
C5093 H5116 0.950 . S
C5094 C5093 1.349 . S
C5094 C5106 1.349 . S
C5095 C5093 1.327 . S
C5095 C5111 1.429 . S
C5095 H5117 0.950 . S
C5096 H5092 0.949 . S
C5096 C5104 1.574 . S
C5096 C5112 1.368 . S
H5097 C5105 0.950 . S
H5098 C5103 0.950 . S
H5099 C5104 0.949 . S
H5100 C5106 0.950 . S
H5101 C5107 0.950 . S
H5102 C5108 0.949 . S
C5103 H5098 0.950 . S
C5103 C5105 1.327 . S
C5103 C5109 1.429 . S
C5104 C5096 1.574 . S
C5104 H5099 0.949 . S
C5104 C5110 1.368 . S
C5105 C5089 1.349 . S
C5105 H5097 0.950 . S
C5105 C5103 1.327 . S
C5106 C5094 1.349 . S
C5106 H5100 0.950 . S
C5106 C5107 1.327 . S
C5107 H5101 0.950 . S
C5107 C5106 1.327 . S
C5107 C5111 1.429 . S
C5108 C5091 1.574 . S
C5108 H5102 0.949 . S
C5108 C5112 1.368 . S
C5109 C5090 1.429 . S
C5109 C5103 1.429 . S
C5109 C5110 1.523 . S
C5110 C5091 1.368 . S
C5110 C5104 1.368 . S
C5110 C5109 1.523 . S
C5111 C5095 1.429 . S
C5111 C5107 1.429 . S
C5111 C5112 1.523 . S
C5112 C5096 1.368 . S
C5112 C5108 1.368 . S
C5112 C5111 1.523 . S
H5113 C5088 0.950 . S
H5114 C5090 0.950 . S
H5115 C5091 0.949 . S
H5116 C5093 0.950 . S
H5117 C5095 0.950 . S
C5118 C5119 1.349 . S
C5118 C5120 1.327 . S
C5118 H5143 0.950 . S
C5119 C5118 1.349 . S
C5119 C5135 1.349 . S
C5120 C5118 1.327 . S
C5120 C5139 1.429 . S
C5120 H5144 0.950 . S
C5121 C5138 1.574 . S
C5121 C5140 1.368 . S
C5121 H5145 0.949 . S
H5122 C5126 0.949 . S
C5123 C5124 1.349 . S
C5123 C5125 1.327 . S
C5123 H5146 0.950 . S
C5124 C5123 1.349 . S
C5124 C5136 1.349 . S
C5125 C5123 1.327 . S
C5125 C5141 1.429 . S
C5125 H5147 0.950 . S
C5126 H5122 0.949 . S
C5126 C5134 1.574 . S
C5126 C5142 1.368 . S
H5127 C5135 0.950 . S
H5128 C5133 0.950 . S
H5129 C5134 0.949 . S
H5130 C5136 0.950 . S
H5131 C5137 0.950 . S
H5132 C5138 0.949 . S
C5133 H5128 0.950 . S
C5133 C5135 1.327 . S
C5133 C5139 1.429 . S
C5134 C5126 1.574 . S
C5134 H5129 0.949 . S
C5134 C5140 1.368 . S
C5135 C5119 1.349 . S
C5135 H5127 0.950 . S
C5135 C5133 1.327 . S
C5136 C5124 1.349 . S
C5136 H5130 0.950 . S
C5136 C5137 1.327 . S
C5137 H5131 0.950 . S
C5137 C5136 1.327 . S
C5137 C5141 1.429 . S
C5138 C5121 1.574 . S
C5138 H5132 0.949 . S
C5138 C5142 1.368 . S
C5139 C5120 1.429 . S
C5139 C5133 1.429 . S
C5139 C5140 1.523 . S
C5140 C5121 1.368 . S
C5140 C5134 1.368 . S
C5140 C5139 1.523 . S
C5141 C5125 1.429 . S
C5141 C5137 1.429 . S
C5141 C5142 1.523 . S
C5142 C5126 1.368 . S
C5142 C5138 1.368 . S
C5142 C5141 1.523 . S
H5143 C5118 0.950 . S
H5144 C5120 0.950 . S
H5145 C5121 0.949 . S
H5146 C5123 0.950 . S
H5147 C5125 0.950 . S
C5148 C5149 1.349 . S
C5148 C5150 1.327 . S
C5148 H5173 0.950 . S
C5149 C5148 1.349 . S
C5149 C5165 1.349 . S
C5150 C5148 1.327 . S
C5150 C5169 1.429 . S
C5150 H5174 0.950 . S
C5151 C5168 1.574 . S
C5151 C5170 1.368 . S
C5151 H5175 0.949 . S
H5152 C5156 0.949 . S
C5153 C5154 1.349 . S
C5153 C5155 1.327 . S
C5153 H5176 0.950 . S
C5154 C5153 1.349 . S
C5154 C5166 1.349 . S
C5155 C5153 1.327 . S
C5155 C5171 1.429 . S
C5155 H5177 0.950 . S
C5156 H5152 0.949 . S
C5156 C5164 1.574 . S
C5156 C5172 1.368 . S
H5157 C5165 0.950 . S
H5158 C5163 0.950 . S
H5159 C5164 0.949 . S
H5160 C5166 0.950 . S
H5161 C5167 0.950 . S
H5162 C5168 0.949 . S
C5163 H5158 0.950 . S
C5163 C5165 1.327 . S
C5163 C5169 1.429 . S
C5164 C5156 1.574 . S
C5164 H5159 0.949 . S
C5164 C5170 1.368 . S
C5165 C5149 1.349 . S
C5165 H5157 0.950 . S
C5165 C5163 1.327 . S
C5166 C5154 1.349 . S
C5166 H5160 0.950 . S
C5166 C5167 1.327 . S
C5167 H5161 0.950 . S
C5167 C5166 1.327 . S
C5167 C5171 1.429 . S
C5168 C5151 1.574 . S
C5168 H5162 0.949 . S
C5168 C5172 1.368 . S
C5169 C5150 1.429 . S
C5169 C5163 1.429 . S
C5169 C5170 1.523 . S
C5170 C5151 1.368 . S
C5170 C5164 1.368 . S
C5170 C5169 1.523 . S
C5171 C5155 1.429 . S
C5171 C5167 1.429 . S
C5171 C5172 1.523 . S
C5172 C5156 1.368 . S
C5172 C5168 1.368 . S
C5172 C5171 1.523 . S
H5173 C5148 0.950 . S
H5174 C5150 0.950 . S
H5175 C5151 0.949 . S
H5176 C5153 0.950 . S
H5177 C5155 0.950 . S
C5178 C5179 1.349 . S
C5178 C5180 1.327 . S
C5178 H5203 0.950 . S
C5179 C5178 1.349 . S
C5179 C5195 1.349 . S
C5180 C5178 1.327 . S
C5180 C5199 1.429 . S
C5180 H5204 0.950 . S
C5181 C5198 1.574 . S
C5181 C5200 1.368 . S
C5181 H5205 0.949 . S
H5182 C5186 0.949 . S
C5183 C5184 1.349 . S
C5183 C5185 1.327 . S
C5183 H5206 0.950 . S
C5184 C5183 1.349 . S
C5184 C5196 1.349 . S
C5185 C5183 1.327 . S
C5185 C5201 1.429 . S
C5185 H5207 0.950 . S
C5186 H5182 0.949 . S
C5186 C5194 1.574 . S
C5186 C5202 1.368 . S
H5187 C5195 0.950 . S
H5188 C5193 0.950 . S
H5189 C5194 0.949 . S
H5190 C5196 0.950 . S
H5191 C5197 0.950 . S
H5192 C5198 0.949 . S
C5193 H5188 0.950 . S
C5193 C5195 1.327 . S
C5193 C5199 1.429 . S
C5194 C5186 1.574 . S
C5194 H5189 0.949 . S
C5194 C5200 1.368 . S
C5195 C5179 1.349 . S
C5195 H5187 0.950 . S
C5195 C5193 1.327 . S
C5196 C5184 1.349 . S
C5196 H5190 0.950 . S
C5196 C5197 1.327 . S
C5197 H5191 0.950 . S
C5197 C5196 1.327 . S
C5197 C5201 1.429 . S
C5198 C5181 1.574 . S
C5198 H5192 0.949 . S
C5198 C5202 1.368 . S
C5199 C5180 1.429 . S
C5199 C5193 1.429 . S
C5199 C5200 1.523 . S
C5200 C5181 1.368 . S
C5200 C5194 1.368 . S
C5200 C5199 1.523 . S
C5201 C5185 1.429 . S
C5201 C5197 1.429 . S
C5201 C5202 1.523 . S
C5202 C5186 1.368 . S
C5202 C5198 1.368 . S
C5202 C5201 1.523 . S
H5203 C5178 0.950 . S
H5204 C5180 0.950 . S
H5205 C5181 0.949 . S
H5206 C5183 0.950 . S
H5207 C5185 0.950 . S
C5208 C5209 1.349 . S
C5208 C5210 1.327 . S
C5208 H5233 0.950 . S
C5209 C5208 1.349 . S
C5209 C5225 1.349 . S
C5210 C5208 1.327 . S
C5210 C5229 1.429 . S
C5210 H5234 0.950 . S
C5211 C5228 1.574 . S
C5211 C5230 1.368 . S
C5211 H5235 0.949 . S
H5212 C5216 0.949 . S
C5213 C5214 1.349 . S
C5213 C5215 1.327 . S
C5213 H5236 0.950 . S
C5214 C5213 1.349 . S
C5214 C5226 1.349 . S
C5215 C5213 1.327 . S
C5215 C5231 1.429 . S
C5215 H5237 0.950 . S
C5216 H5212 0.949 . S
C5216 C5224 1.574 . S
C5216 C5232 1.368 . S
H5217 C5225 0.950 . S
H5218 C5223 0.950 . S
H5219 C5224 0.949 . S
H5220 C5226 0.950 . S
H5221 C5227 0.950 . S
H5222 C5228 0.949 . S
C5223 H5218 0.950 . S
C5223 C5225 1.327 . S
C5223 C5229 1.429 . S
C5224 C5216 1.574 . S
C5224 H5219 0.949 . S
C5224 C5230 1.368 . S
C5225 C5209 1.349 . S
C5225 H5217 0.950 . S
C5225 C5223 1.327 . S
C5226 C5214 1.349 . S
C5226 H5220 0.950 . S
C5226 C5227 1.327 . S
C5227 H5221 0.950 . S
C5227 C5226 1.327 . S
C5227 C5231 1.429 . S
C5228 C5211 1.574 . S
C5228 H5222 0.949 . S
C5228 C5232 1.368 . S
C5229 C5210 1.429 . S
C5229 C5223 1.429 . S
C5229 C5230 1.523 . S
C5230 C5211 1.368 . S
C5230 C5224 1.368 . S
C5230 C5229 1.523 . S
C5231 C5215 1.429 . S
C5231 C5227 1.429 . S
C5231 C5232 1.523 . S
C5232 C5216 1.368 . S
C5232 C5228 1.368 . S
C5232 C5231 1.523 . S
H5233 C5208 0.950 . S
H5234 C5210 0.950 . S
H5235 C5211 0.949 . S
H5236 C5213 0.950 . S
H5237 C5215 0.950 . S
C5238 C5239 1.349 . S
C5238 C5240 1.327 . S
C5238 H5263 0.950 . S
C5239 C5238 1.349 . S
C5239 C5255 1.349 . S
C5240 C5238 1.327 . S
C5240 C5259 1.429 . S
C5240 H5264 0.950 . S
C5241 C5258 1.574 . S
C5241 C5260 1.368 . S
C5241 H5265 0.949 . S
H5242 C5246 0.949 . S
C5243 C5244 1.349 . S
C5243 C5245 1.327 . S
C5243 H5266 0.950 . S
C5244 C5243 1.349 . S
C5244 C5256 1.349 . S
C5245 C5243 1.327 . S
C5245 C5261 1.429 . S
C5245 H5267 0.950 . S
C5246 H5242 0.949 . S
C5246 C5254 1.574 . S
C5246 C5262 1.368 . S
H5247 C5255 0.950 . S
H5248 C5253 0.950 . S
H5249 C5254 0.949 . S
H5250 C5256 0.950 . S
H5251 C5257 0.950 . S
H5252 C5258 0.949 . S
C5253 H5248 0.950 . S
C5253 C5255 1.327 . S
C5253 C5259 1.429 . S
C5254 C5246 1.574 . S
C5254 H5249 0.949 . S
C5254 C5260 1.368 . S
C5255 C5239 1.349 . S
C5255 H5247 0.950 . S
C5255 C5253 1.327 . S
C5256 C5244 1.349 . S
C5256 H5250 0.950 . S
C5256 C5257 1.327 . S
C5257 H5251 0.950 . S
C5257 C5256 1.327 . S
C5257 C5261 1.429 . S
C5258 C5241 1.574 . S
C5258 H5252 0.949 . S
C5258 C5262 1.368 . S
C5259 C5240 1.429 . S
C5259 C5253 1.429 . S
C5259 C5260 1.523 . S
C5260 C5241 1.368 . S
C5260 C5254 1.368 . S
C5260 C5259 1.523 . S
C5261 C5245 1.429 . S
C5261 C5257 1.429 . S
C5261 C5262 1.523 1_545 S
C5262 C5246 1.368 . S
C5262 C5258 1.368 . S
C5262 C5261 1.523 1_565 S
H5263 C5238 0.950 . S
H5264 C5240 0.950 . S
H5265 C5241 0.949 . S
H5266 C5243 0.950 . S
H5267 C5245 0.950 . S
C5268 C5269 1.349 . S
C5268 C5270 1.327 . S
C5268 H5293 0.950 . S
C5269 C5268 1.349 . S
C5269 C5285 1.349 . S
C5270 C5268 1.327 . S
C5270 C5289 1.429 . S
C5270 H5294 0.950 . S
C5271 C5288 1.574 . S
C5271 C5290 1.368 . S
C5271 H5295 0.949 . S
H5272 C5276 0.949 . S
C5273 C5274 1.349 . S
C5273 C5275 1.327 . S
C5273 H5296 0.950 . S
C5274 C5273 1.349 . S
C5274 C5286 1.349 . S
C5275 C5273 1.327 . S
C5275 C5291 1.429 . S
C5275 H5297 0.950 . S
C5276 H5272 0.949 . S
C5276 C5284 1.574 . S
C5276 C5292 1.368 . S
H5277 C5285 0.950 . S
H5278 C5283 0.950 . S
H5279 C5284 0.949 . S
H5280 C5286 0.950 . S
H5281 C5287 0.950 . S
H5282 C5288 0.949 . S
C5283 H5278 0.950 . S
C5283 C5285 1.327 . S
C5283 C5289 1.429 . S
C5284 C5276 1.574 . S
C5284 H5279 0.949 . S
C5284 C5290 1.368 . S
C5285 C5269 1.349 . S
C5285 H5277 0.950 . S
C5285 C5283 1.327 . S
C5286 C5274 1.349 . S
C5286 H5280 0.950 . S
C5286 C5287 1.327 . S
C5287 H5281 0.950 . S
C5287 C5286 1.327 . S
C5287 C5291 1.429 . S
C5288 C5271 1.574 . S
C5288 H5282 0.949 . S
C5288 C5292 1.368 . S
C5289 C5270 1.429 . S
C5289 C5283 1.429 . S
C5289 C5290 1.523 . S
C5290 C5271 1.368 . S
C5290 C5284 1.368 . S
C5290 C5289 1.523 . S
C5291 C5275 1.429 . S
C5291 C5287 1.429 . S
C5291 C5292 1.523 . S
C5292 C5276 1.368 . S
C5292 C5288 1.368 . S
C5292 C5291 1.523 . S
H5293 C5268 0.950 . S
H5294 C5270 0.950 . S
H5295 C5271 0.949 . S
H5296 C5273 0.950 . S
H5297 C5275 0.950 . S
C5298 C5299 1.349 . S
C5298 C5300 1.327 . S
C5298 H5323 0.950 . S
C5299 C5298 1.349 . S
C5299 C5315 1.349 . S
C5300 C5298 1.327 . S
C5300 C5319 1.429 . S
C5300 H5324 0.950 . S
C5301 C5318 1.574 . S
C5301 C5320 1.368 . S
C5301 H5325 0.949 . S
H5302 C5306 0.949 . S
C5303 C5304 1.349 . S
C5303 C5305 1.327 . S
C5303 H5326 0.950 . S
C5304 C5303 1.349 . S
C5304 C5316 1.349 . S
C5305 C5303 1.327 . S
C5305 C5321 1.429 . S
C5305 H5327 0.950 . S
C5306 H5302 0.949 . S
C5306 C5314 1.574 . S
C5306 C5322 1.368 . S
H5307 C5315 0.950 . S
H5308 C5313 0.950 . S
H5309 C5314 0.949 . S
H5310 C5316 0.950 . S
H5311 C5317 0.950 . S
H5312 C5318 0.949 . S
C5313 H5308 0.950 . S
C5313 C5315 1.327 . S
C5313 C5319 1.429 . S
C5314 C5306 1.574 . S
C5314 H5309 0.949 . S
C5314 C5320 1.368 . S
C5315 C5299 1.349 . S
C5315 H5307 0.950 . S
C5315 C5313 1.327 . S
C5316 C5304 1.349 . S
C5316 H5310 0.950 . S
C5316 C5317 1.327 . S
C5317 H5311 0.950 . S
C5317 C5316 1.327 . S
C5317 C5321 1.429 . S
C5318 C5301 1.574 . S
C5318 H5312 0.949 . S
C5318 C5322 1.368 . S
C5319 C5300 1.429 . S
C5319 C5313 1.429 . S
C5319 C5320 1.523 . S
C5320 C5301 1.368 . S
C5320 C5314 1.368 . S
C5320 C5319 1.523 . S
C5321 C5305 1.429 . S
C5321 C5317 1.429 . S
C5321 C5322 1.523 . S
C5322 C5306 1.368 . S
C5322 C5318 1.368 . S
C5322 C5321 1.523 . S
H5323 C5298 0.950 . S
H5324 C5300 0.950 . S
H5325 C5301 0.949 . S
H5326 C5303 0.950 . S
H5327 C5305 0.950 . S
C5328 C5329 1.349 . S
C5328 C5330 1.327 . S
C5328 H5353 0.950 . S
C5329 C5328 1.349 . S
C5329 C5345 1.349 . S
C5330 C5328 1.327 . S
C5330 C5349 1.429 . S
C5330 H5354 0.950 . S
C5331 C5348 1.574 . S
C5331 C5350 1.368 . S
C5331 H5355 0.949 . S
H5332 C5336 0.949 . S
C5333 C5334 1.349 . S
C5333 C5335 1.327 . S
C5333 H5356 0.950 . S
C5334 C5333 1.349 . S
C5334 C5346 1.349 . S
C5335 C5333 1.327 . S
C5335 C5351 1.429 . S
C5335 H5357 0.950 . S
C5336 H5332 0.949 . S
C5336 C5344 1.574 . S
C5336 C5352 1.368 . S
H5337 C5345 0.950 . S
H5338 C5343 0.950 . S
H5339 C5344 0.949 . S
H5340 C5346 0.950 . S
H5341 C5347 0.950 . S
H5342 C5348 0.949 . S
C5343 H5338 0.950 . S
C5343 C5345 1.327 . S
C5343 C5349 1.429 . S
C5344 C5336 1.574 . S
C5344 H5339 0.949 . S
C5344 C5350 1.368 . S
C5345 C5329 1.349 . S
C5345 H5337 0.950 . S
C5345 C5343 1.327 . S
C5346 C5334 1.349 . S
C5346 H5340 0.950 . S
C5346 C5347 1.327 . S
C5347 H5341 0.950 . S
C5347 C5346 1.327 . S
C5347 C5351 1.429 . S
C5348 C5331 1.574 . S
C5348 H5342 0.949 . S
C5348 C5352 1.368 . S
C5349 C5330 1.429 . S
C5349 C5343 1.429 . S
C5349 C5350 1.523 . S
C5350 C5331 1.368 . S
C5350 C5344 1.368 . S
C5350 C5349 1.523 . S
C5351 C5335 1.429 . S
C5351 C5347 1.429 . S
C5351 C5352 1.523 . S
C5352 C5336 1.368 . S
C5352 C5348 1.368 . S
C5352 C5351 1.523 . S
H5353 C5328 0.950 . S
H5354 C5330 0.950 . S
H5355 C5331 0.949 . S
H5356 C5333 0.950 . S
H5357 C5335 0.950 . S
C5358 C5359 1.349 . S
C5358 C5360 1.327 . S
C5358 H5383 0.950 . S
C5359 C5358 1.349 . S
C5359 C5375 1.349 . S
C5360 C5358 1.327 . S
C5360 C5379 1.429 . S
C5360 H5384 0.950 . S
C5361 C5378 1.574 . S
C5361 C5380 1.368 . S
C5361 H5385 0.949 . S
H5362 C5366 0.949 . S
C5363 C5364 1.349 . S
C5363 C5365 1.327 . S
C5363 H5386 0.950 . S
C5364 C5363 1.349 . S
C5364 C5376 1.349 . S
C5365 C5363 1.327 . S
C5365 C5381 1.429 . S
C5365 H5387 0.950 . S
C5366 H5362 0.949 . S
C5366 C5374 1.574 . S
C5366 C5382 1.368 . S
H5367 C5375 0.950 . S
H5368 C5373 0.950 . S
H5369 C5374 0.949 . S
H5370 C5376 0.950 . S
H5371 C5377 0.950 . S
H5372 C5378 0.949 . S
C5373 H5368 0.950 . S
C5373 C5375 1.327 . S
C5373 C5379 1.429 . S
C5374 C5366 1.574 . S
C5374 H5369 0.949 . S
C5374 C5380 1.368 . S
C5375 C5359 1.349 . S
C5375 H5367 0.950 . S
C5375 C5373 1.327 . S
C5376 C5364 1.349 . S
C5376 H5370 0.950 . S
C5376 C5377 1.327 . S
C5377 H5371 0.950 . S
C5377 C5376 1.327 . S
C5377 C5381 1.429 . S
C5378 C5361 1.574 . S
C5378 H5372 0.949 . S
C5378 C5382 1.368 . S
C5379 C5360 1.429 . S
C5379 C5373 1.429 . S
C5379 C5380 1.523 . S
C5380 C5361 1.368 . S
C5380 C5374 1.368 . S
C5380 C5379 1.523 . S
C5381 C5365 1.429 . S
C5381 C5377 1.429 . S
C5381 C5382 1.523 . S
C5382 C5366 1.368 . S
C5382 C5378 1.368 . S
C5382 C5381 1.523 . S
H5383 C5358 0.950 . S
H5384 C5360 0.950 . S
H5385 C5361 0.949 . S
H5386 C5363 0.950 . S
H5387 C5365 0.950 . S
C5388 C5389 1.349 . S
C5388 C5390 1.327 . S
C5388 H5413 0.950 . S
C5389 C5388 1.349 . S
C5389 C5405 1.349 . S
C5390 C5388 1.327 . S
C5390 C5409 1.429 . S
C5390 H5414 0.950 . S
C5391 C5408 1.574 . S
C5391 C5410 1.368 . S
C5391 H5415 0.949 . S
H5392 C5396 0.949 . S
C5393 C5394 1.349 . S
C5393 C5395 1.327 . S
C5393 H5416 0.950 . S
C5394 C5393 1.349 . S
C5394 C5406 1.349 . S
C5395 C5393 1.327 . S
C5395 C5411 1.429 . S
C5395 H5417 0.950 . S
C5396 H5392 0.949 . S
C5396 C5404 1.574 . S
C5396 C5412 1.368 . S
H5397 C5405 0.950 . S
H5398 C5403 0.950 . S
H5399 C5404 0.949 . S
H5400 C5406 0.950 . S
H5401 C5407 0.950 . S
H5402 C5408 0.949 . S
C5403 H5398 0.950 . S
C5403 C5405 1.327 . S
C5403 C5409 1.429 . S
C5404 C5396 1.574 . S
C5404 H5399 0.949 . S
C5404 C5410 1.368 . S
C5405 C5389 1.349 . S
C5405 H5397 0.950 . S
C5405 C5403 1.327 . S
C5406 C5394 1.349 . S
C5406 H5400 0.950 . S
C5406 C5407 1.327 . S
C5407 H5401 0.950 . S
C5407 C5406 1.327 . S
C5407 C5411 1.429 . S
C5408 C5391 1.574 . S
C5408 H5402 0.949 . S
C5408 C5412 1.368 . S
C5409 C5390 1.429 . S
C5409 C5403 1.429 . S
C5409 C5410 1.523 . S
C5410 C5391 1.368 . S
C5410 C5404 1.368 . S
C5410 C5409 1.523 . S
C5411 C5395 1.429 . S
C5411 C5407 1.429 . S
C5411 C5412 1.523 . S
C5412 C5396 1.368 . S
C5412 C5408 1.368 . S
C5412 C5411 1.523 . S
H5413 C5388 0.950 . S
H5414 C5390 0.950 . S
H5415 C5391 0.949 . S
H5416 C5393 0.950 . S
H5417 C5395 0.950 . S
C5418 C5419 1.349 . S
C5418 C5420 1.327 . S
C5418 H5443 0.950 . S
C5419 C5418 1.349 . S
C5419 C5435 1.349 . S
C5420 C5418 1.327 . S
C5420 C5439 1.429 . S
C5420 H5444 0.950 . S
C5421 C5438 1.574 . S
C5421 C5440 1.368 . S
C5421 H5445 0.949 . S
H5422 C5426 0.949 . S
C5423 C5424 1.349 . S
C5423 C5425 1.327 . S
C5423 H5446 0.950 . S
C5424 C5423 1.349 . S
C5424 C5436 1.349 . S
C5425 C5423 1.327 . S
C5425 C5441 1.429 . S
C5425 H5447 0.950 . S
C5426 H5422 0.949 . S
C5426 C5434 1.574 . S
C5426 C5442 1.368 . S
H5427 C5435 0.950 . S
H5428 C5433 0.950 . S
H5429 C5434 0.949 . S
H5430 C5436 0.950 . S
H5431 C5437 0.950 . S
H5432 C5438 0.949 . S
C5433 H5428 0.950 . S
C5433 C5435 1.327 . S
C5433 C5439 1.429 . S
C5434 C5426 1.574 . S
C5434 H5429 0.949 . S
C5434 C5440 1.368 . S
C5435 C5419 1.349 . S
C5435 H5427 0.950 . S
C5435 C5433 1.327 . S
C5436 C5424 1.349 . S
C5436 H5430 0.950 . S
C5436 C5437 1.327 . S
C5437 H5431 0.950 . S
C5437 C5436 1.327 . S
C5437 C5441 1.429 . S
C5438 C5421 1.574 . S
C5438 H5432 0.949 . S
C5438 C5442 1.368 . S
C5439 C5420 1.429 . S
C5439 C5433 1.429 . S
C5439 C5440 1.523 . S
C5440 C5421 1.368 . S
C5440 C5434 1.368 . S
C5440 C5439 1.523 . S
C5441 C5425 1.429 . S
C5441 C5437 1.429 . S
C5441 C5442 1.523 . S
C5442 C5426 1.368 . S
C5442 C5438 1.368 . S
C5442 C5441 1.523 . S
H5443 C5418 0.950 . S
H5444 C5420 0.950 . S
H5445 C5421 0.949 . S
H5446 C5423 0.950 . S
H5447 C5425 0.950 . S
C5448 C5449 1.349 . S
C5448 C5450 1.327 . S
C5448 H5473 0.950 . S
C5449 C5448 1.349 . S
C5449 C5465 1.349 . S
C5450 C5448 1.327 . S
C5450 C5469 1.429 . S
C5450 H5474 0.950 . S
C5451 C5468 1.574 . S
C5451 C5470 1.368 . S
C5451 H5475 0.949 . S
H5452 C5456 0.949 . S
C5453 C5454 1.349 . S
C5453 C5455 1.327 . S
C5453 H5476 0.950 . S
C5454 C5453 1.349 . S
C5454 C5466 1.349 . S
C5455 C5453 1.327 . S
C5455 C5471 1.429 . S
C5455 H5477 0.950 . S
C5456 H5452 0.949 . S
C5456 C5464 1.574 . S
C5456 C5472 1.368 . S
H5457 C5465 0.950 . S
H5458 C5463 0.950 . S
H5459 C5464 0.949 . S
H5460 C5466 0.950 . S
H5461 C5467 0.950 . S
H5462 C5468 0.949 . S
C5463 H5458 0.950 . S
C5463 C5465 1.327 . S
C5463 C5469 1.429 . S
C5464 C5456 1.574 . S
C5464 H5459 0.949 . S
C5464 C5470 1.368 . S
C5465 C5449 1.349 . S
C5465 H5457 0.950 . S
C5465 C5463 1.327 . S
C5466 C5454 1.349 . S
C5466 H5460 0.950 . S
C5466 C5467 1.327 . S
C5467 H5461 0.950 . S
C5467 C5466 1.327 . S
C5467 C5471 1.429 . S
C5468 C5451 1.574 . S
C5468 H5462 0.949 . S
C5468 C5472 1.368 . S
C5469 C5450 1.429 . S
C5469 C5463 1.429 . S
C5469 C5470 1.523 . S
C5470 C5451 1.368 . S
C5470 C5464 1.368 . S
C5470 C5469 1.523 . S
C5471 C5455 1.429 . S
C5471 C5467 1.429 . S
C5471 C5472 1.523 . S
C5472 C5456 1.368 . S
C5472 C5468 1.368 . S
C5472 C5471 1.523 . S
H5473 C5448 0.950 . S
H5474 C5450 0.950 . S
H5475 C5451 0.949 . S
H5476 C5453 0.950 . S
H5477 C5455 0.950 . S
C5478 C5479 1.349 . S
C5478 C5480 1.327 . S
C5478 H5503 0.950 . S
C5479 C5478 1.349 . S
C5479 C5495 1.349 . S
C5480 C5478 1.327 . S
C5480 C5499 1.429 . S
C5480 H5504 0.950 . S
C5481 C5498 1.574 . S
C5481 C5500 1.368 . S
C5481 H5505 0.949 . S
H5482 C5486 0.949 . S
C5483 C5484 1.349 . S
C5483 C5485 1.327 . S
C5483 H5506 0.950 . S
C5484 C5483 1.349 . S
C5484 C5496 1.349 . S
C5485 C5483 1.327 . S
C5485 C5501 1.429 . S
C5485 H5507 0.950 . S
C5486 H5482 0.949 . S
C5486 C5494 1.574 . S
C5486 C5502 1.368 . S
H5487 C5495 0.950 . S
H5488 C5493 0.950 . S
H5489 C5494 0.949 . S
H5490 C5496 0.950 . S
H5491 C5497 0.950 . S
H5492 C5498 0.949 . S
C5493 H5488 0.950 . S
C5493 C5495 1.327 . S
C5493 C5499 1.429 . S
C5494 C5486 1.574 . S
C5494 H5489 0.949 . S
C5494 C5500 1.368 . S
C5495 C5479 1.349 . S
C5495 H5487 0.950 . S
C5495 C5493 1.327 . S
C5496 C5484 1.349 . S
C5496 H5490 0.950 . S
C5496 C5497 1.327 . S
C5497 H5491 0.950 . S
C5497 C5496 1.327 . S
C5497 C5501 1.429 . S
C5498 C5481 1.574 . S
C5498 H5492 0.949 . S
C5498 C5502 1.368 . S
C5499 C5480 1.429 . S
C5499 C5493 1.429 . S
C5499 C5500 1.523 . S
C5500 C5481 1.368 . S
C5500 C5494 1.368 . S
C5500 C5499 1.523 . S
C5501 C5485 1.429 . S
C5501 C5497 1.429 . S
C5501 C5502 1.523 . S
C5502 C5486 1.368 . S
C5502 C5498 1.368 . S
C5502 C5501 1.523 . S
H5503 C5478 0.950 . S
H5504 C5480 0.950 . S
H5505 C5481 0.949 . S
H5506 C5483 0.950 . S
H5507 C5485 0.950 . S
C5508 C5509 1.349 . S
C5508 C5510 1.327 . S
C5508 H5533 0.950 . S
C5509 C5508 1.349 . S
C5509 C5525 1.349 . S
C5510 C5508 1.327 . S
C5510 C5529 1.429 . S
C5510 H5534 0.950 . S
C5511 C5528 1.574 . S
C5511 C5530 1.368 . S
C5511 H5535 0.949 . S
H5512 C5516 0.949 . S
C5513 C5514 1.349 . S
C5513 C5515 1.327 . S
C5513 H5536 0.950 . S
C5514 C5513 1.349 . S
C5514 C5526 1.349 . S
C5515 C5513 1.327 . S
C5515 C5531 1.429 . S
C5515 H5537 0.950 . S
C5516 H5512 0.949 . S
C5516 C5524 1.574 . S
C5516 C5532 1.368 . S
H5517 C5525 0.950 . S
H5518 C5523 0.950 . S
H5519 C5524 0.949 . S
H5520 C5526 0.950 . S
H5521 C5527 0.950 . S
H5522 C5528 0.949 . S
C5523 H5518 0.950 . S
C5523 C5525 1.327 . S
C5523 C5529 1.429 . S
C5524 C5516 1.574 . S
C5524 H5519 0.949 . S
C5524 C5530 1.368 . S
C5525 C5509 1.349 . S
C5525 H5517 0.950 . S
C5525 C5523 1.327 . S
C5526 C5514 1.349 . S
C5526 H5520 0.950 . S
C5526 C5527 1.327 . S
C5527 H5521 0.950 . S
C5527 C5526 1.327 . S
C5527 C5531 1.429 . S
C5528 C5511 1.574 . S
C5528 H5522 0.949 . S
C5528 C5532 1.368 . S
C5529 C5510 1.429 . S
C5529 C5523 1.429 . S
C5529 C5530 1.523 . S
C5530 C5511 1.368 . S
C5530 C5524 1.368 . S
C5530 C5529 1.523 . S
C5531 C5515 1.429 . S
C5531 C5527 1.429 . S
C5531 C5532 1.523 . S
C5532 C5516 1.368 . S
C5532 C5528 1.368 . S
C5532 C5531 1.523 . S
H5533 C5508 0.950 . S
H5534 C5510 0.950 . S
H5535 C5511 0.949 . S
H5536 C5513 0.950 . S
H5537 C5515 0.950 . S
C5538 C5539 1.349 . S
C5538 C5540 1.327 . S
C5538 H5563 0.950 . S
C5539 C5538 1.349 . S
C5539 C5555 1.349 . S
C5540 C5538 1.327 . S
C5540 C5559 1.429 . S
C5540 H5564 0.950 . S
C5541 C5558 1.574 . S
C5541 C5560 1.368 . S
C5541 H5565 0.949 . S
H5542 C5546 0.949 . S
C5543 C5544 1.349 . S
C5543 C5545 1.327 . S
C5543 H5566 0.950 . S
C5544 C5543 1.349 . S
C5544 C5556 1.349 . S
C5545 C5543 1.327 . S
C5545 C5561 1.429 . S
C5545 H5567 0.950 . S
C5546 H5542 0.949 . S
C5546 C5554 1.574 . S
C5546 C5562 1.368 . S
H5547 C5555 0.950 . S
H5548 C5553 0.950 . S
H5549 C5554 0.949 . S
H5550 C5556 0.950 . S
H5551 C5557 0.950 . S
H5552 C5558 0.949 . S
C5553 H5548 0.950 . S
C5553 C5555 1.327 . S
C5553 C5559 1.429 . S
C5554 C5546 1.574 . S
C5554 H5549 0.949 . S
C5554 C5560 1.368 . S
C5555 C5539 1.349 . S
C5555 H5547 0.950 . S
C5555 C5553 1.327 . S
C5556 C5544 1.349 . S
C5556 H5550 0.950 . S
C5556 C5557 1.327 . S
C5557 H5551 0.950 . S
C5557 C5556 1.327 . S
C5557 C5561 1.429 . S
C5558 C5541 1.574 . S
C5558 H5552 0.949 . S
C5558 C5562 1.368 . S
C5559 C5540 1.429 . S
C5559 C5553 1.429 . S
C5559 C5560 1.523 . S
C5560 C5541 1.368 . S
C5560 C5554 1.368 . S
C5560 C5559 1.523 . S
C5561 C5545 1.429 . S
C5561 C5557 1.429 . S
C5561 C5562 1.523 . S
C5562 C5546 1.368 . S
C5562 C5558 1.368 . S
C5562 C5561 1.523 . S
H5563 C5538 0.950 . S
H5564 C5540 0.950 . S
H5565 C5541 0.949 . S
H5566 C5543 0.950 . S
H5567 C5545 0.950 . S
C5568 C5569 1.349 . S
C5568 C5570 1.327 . S
C5568 H5593 0.950 . S
C5569 C5568 1.349 . S
C5569 C5585 1.349 . S
C5570 C5568 1.327 . S
C5570 C5589 1.429 . S
C5570 H5594 0.950 . S
C5571 C5588 1.574 . S
C5571 C5590 1.368 . S
C5571 H5595 0.949 . S
H5572 C5576 0.949 . S
C5573 C5574 1.349 . S
C5573 C5575 1.327 . S
C5573 H5596 0.950 . S
C5574 C5573 1.349 . S
C5574 C5586 1.349 . S
C5575 C5573 1.327 . S
C5575 C5591 1.429 . S
C5575 H5597 0.950 . S
C5576 H5572 0.949 . S
C5576 C5584 1.574 . S
C5576 C5592 1.368 . S
H5577 C5585 0.950 . S
H5578 C5583 0.950 . S
H5579 C5584 0.949 . S
H5580 C5586 0.950 . S
H5581 C5587 0.950 . S
H5582 C5588 0.949 . S
C5583 H5578 0.950 . S
C5583 C5585 1.327 . S
C5583 C5589 1.429 . S
C5584 C5576 1.574 . S
C5584 H5579 0.949 . S
C5584 C5590 1.368 . S
C5585 C5569 1.349 . S
C5585 H5577 0.950 . S
C5585 C5583 1.327 . S
C5586 C5574 1.349 . S
C5586 H5580 0.950 . S
C5586 C5587 1.327 . S
C5587 H5581 0.950 . S
C5587 C5586 1.327 . S
C5587 C5591 1.429 . S
C5588 C5571 1.574 . S
C5588 H5582 0.949 . S
C5588 C5592 1.368 . S
C5589 C5570 1.429 . S
C5589 C5583 1.429 . S
C5589 C5590 1.523 . S
C5590 C5571 1.368 . S
C5590 C5584 1.368 . S
C5590 C5589 1.523 . S
C5591 C5575 1.429 . S
C5591 C5587 1.429 . S
C5591 C5592 1.523 . S
C5592 C5576 1.368 . S
C5592 C5588 1.368 . S
C5592 C5591 1.523 . S
H5593 C5568 0.950 . S
H5594 C5570 0.950 . S
H5595 C5571 0.949 . S
H5596 C5573 0.950 . S
H5597 C5575 0.950 . S
C5598 C5599 1.349 . S
C5598 C5600 1.327 . S
C5598 H5623 0.950 . S
C5599 C5598 1.349 . S
C5599 C5615 1.349 . S
C5600 C5598 1.327 . S
C5600 C5619 1.429 . S
C5600 H5624 0.950 . S
C5601 C5618 1.574 . S
C5601 C5620 1.368 . S
C5601 H5625 0.949 . S
H5602 C5606 0.949 . S
C5603 C5604 1.349 . S
C5603 C5605 1.327 . S
C5603 H5626 0.950 . S
C5604 C5603 1.349 . S
C5604 C5616 1.349 . S
C5605 C5603 1.327 . S
C5605 C5621 1.429 . S
C5605 H5627 0.950 . S
C5606 H5602 0.949 . S
C5606 C5614 1.574 . S
C5606 C5622 1.368 . S
H5607 C5615 0.950 . S
H5608 C5613 0.950 . S
H5609 C5614 0.949 . S
H5610 C5616 0.950 . S
H5611 C5617 0.950 . S
H5612 C5618 0.949 . S
C5613 H5608 0.950 . S
C5613 C5615 1.327 . S
C5613 C5619 1.429 . S
C5614 C5606 1.574 . S
C5614 H5609 0.949 . S
C5614 C5620 1.368 . S
C5615 C5599 1.349 . S
C5615 H5607 0.950 . S
C5615 C5613 1.327 . S
C5616 C5604 1.349 . S
C5616 H5610 0.950 . S
C5616 C5617 1.327 . S
C5617 H5611 0.950 . S
C5617 C5616 1.327 . S
C5617 C5621 1.429 . S
C5618 C5601 1.574 . S
C5618 H5612 0.949 . S
C5618 C5622 1.368 . S
C5619 C5600 1.429 . S
C5619 C5613 1.429 . S
C5619 C5620 1.523 . S
C5620 C5601 1.368 . S
C5620 C5614 1.368 . S
C5620 C5619 1.523 . S
C5621 C5605 1.429 . S
C5621 C5617 1.429 . S
C5621 C5622 1.523 . S
C5622 C5606 1.368 . S
C5622 C5618 1.368 . S
C5622 C5621 1.523 . S
H5623 C5598 0.950 . S
H5624 C5600 0.950 . S
H5625 C5601 0.949 . S
H5626 C5603 0.950 . S
H5627 C5605 0.950 . S
C5628 C5629 1.349 . S
C5628 C5630 1.327 1_455 S
C5628 H5653 0.950 . S
C5629 C5628 1.349 . S
C5629 C5645 1.408 . S
C5630 C5628 1.327 1_655 S
C5630 C5649 1.429 . S
C5630 H5654 0.950 . S
C5631 C5648 1.574 . S
C5631 C5650 1.368 . S
C5631 H5655 0.949 . S
H5632 C5636 0.949 . S
C5633 C5634 1.349 . S
C5633 C5635 1.327 . S
C5633 H5656 0.950 . S
C5634 C5633 1.349 . S
C5634 C5646 1.349 . S
C5635 C5633 1.327 . S
C5635 C5651 1.429 . S
C5635 H5657 0.950 . S
C5636 H5632 0.949 . S
C5636 C5644 1.574 . S
C5636 C5652 1.368 . S
H5637 C5645 0.951 . S
H5638 C5643 0.950 . S
H5639 C5644 0.949 . S
H5640 C5646 0.950 . S
H5641 C5647 0.950 . S
H5642 C5648 0.949 . S
C5643 H5638 0.950 . S
C5643 C5645 1.271 1_655 S
C5643 C5649 1.429 . S
C5644 C5636 1.574 . S
C5644 H5639 0.949 . S
C5644 C5650 1.368 . S
C5645 C5629 1.408 . S
C5645 H5637 0.951 . S
C5645 C5643 1.271 1_455 S
C5646 C5634 1.349 . S
C5646 H5640 0.950 . S
C5646 C5647 1.327 . S
C5647 H5641 0.950 . S
C5647 C5646 1.327 . S
C5647 C5651 1.429 . S
C5648 C5631 1.574 . S
C5648 H5642 0.949 . S
C5648 C5652 1.368 . S
C5649 C5630 1.429 . S
C5649 C5643 1.429 . S
C5649 C5650 1.523 . S
C5650 C5631 1.368 . S
C5650 C5644 1.368 . S
C5650 C5649 1.523 . S
C5651 C5635 1.429 . S
C5651 C5647 1.429 . S
C5651 C5652 1.523 . S
C5652 C5636 1.368 . S
C5652 C5648 1.368 . S
C5652 C5651 1.523 . S
H5653 C5628 0.950 . S
H5654 C5630 0.950 . S
H5655 C5631 0.949 . S
H5656 C5633 0.950 . S
H5657 C5635 0.950 . S
C5658 C5659 1.349 . S
C5658 C5660 1.327 . S
C5658 H5683 0.950 . S
C5659 C5658 1.349 . S
C5659 C5675 1.349 . S
C5660 C5658 1.327 . S
C5660 C5679 1.429 . S
C5660 H5684 0.950 . S
C5661 C5678 1.574 . S
C5661 C5680 1.368 . S
C5661 H5685 0.949 . S
H5662 C5666 0.949 . S
C5663 C5664 1.349 . S
C5663 C5665 1.327 . S
C5663 H5686 0.950 . S
C5664 C5663 1.349 . S
C5664 C5676 1.349 . S
C5665 C5663 1.327 . S
C5665 C5681 1.429 . S
C5665 H5687 0.950 . S
C5666 H5662 0.949 . S
C5666 C5674 1.574 . S
C5666 C5682 1.368 . S
H5667 C5675 0.950 . S
H5668 C5673 0.950 . S
H5669 C5674 0.949 . S
H5670 C5676 0.950 . S
H5671 C5677 0.950 . S
H5672 C5678 0.949 . S
C5673 H5668 0.950 . S
C5673 C5675 1.327 . S
C5673 C5679 1.429 . S
C5674 C5666 1.574 . S
C5674 H5669 0.949 . S
C5674 C5680 1.368 . S
C5675 C5659 1.349 . S
C5675 H5667 0.950 . S
C5675 C5673 1.327 . S
C5676 C5664 1.349 . S
C5676 H5670 0.950 . S
C5676 C5677 1.327 . S
C5677 H5671 0.950 . S
C5677 C5676 1.327 . S
C5677 C5681 1.429 . S
C5678 C5661 1.574 . S
C5678 H5672 0.949 . S
C5678 C5682 1.368 . S
C5679 C5660 1.429 . S
C5679 C5673 1.429 . S
C5679 C5680 1.523 . S
C5680 C5661 1.368 . S
C5680 C5674 1.368 . S
C5680 C5679 1.523 . S
C5681 C5665 1.429 . S
C5681 C5677 1.429 . S
C5681 C5682 1.523 . S
C5682 C5666 1.368 . S
C5682 C5678 1.368 . S
C5682 C5681 1.523 . S
H5683 C5658 0.950 . S
H5684 C5660 0.950 . S
H5685 C5661 0.949 . S
H5686 C5663 0.950 . S
H5687 C5665 0.950 . S
C5688 C5689 1.349 . S
C5688 C5690 1.327 . S
C5688 H5713 0.950 . S
C5689 C5688 1.349 . S
C5689 C5705 1.349 . S
C5690 C5688 1.327 . S
C5690 C5709 1.429 . S
C5690 H5714 0.950 . S
C5691 C5708 1.574 . S
C5691 C5710 1.368 . S
C5691 H5715 0.949 . S
H5692 C5696 0.949 . S
C5693 C5694 1.349 . S
C5693 C5695 1.327 . S
C5693 H5716 0.950 . S
C5694 C5693 1.349 . S
C5694 C5706 1.349 . S
C5695 C5693 1.327 . S
C5695 C5711 1.429 . S
C5695 H5717 0.950 . S
C5696 H5692 0.949 . S
C5696 C5704 1.574 . S
C5696 C5712 1.368 . S
H5697 C5705 0.950 . S
H5698 C5703 0.950 . S
H5699 C5704 0.949 . S
H5700 C5706 0.950 . S
H5701 C5707 0.950 . S
H5702 C5708 0.949 . S
C5703 H5698 0.950 . S
C5703 C5705 1.327 . S
C5703 C5709 1.429 . S
C5704 C5696 1.574 . S
C5704 H5699 0.949 . S
C5704 C5710 1.368 . S
C5705 C5689 1.349 . S
C5705 H5697 0.950 . S
C5705 C5703 1.327 . S
C5706 C5694 1.349 . S
C5706 H5700 0.950 . S
C5706 C5707 1.327 . S
C5707 H5701 0.950 . S
C5707 C5706 1.327 . S
C5707 C5711 1.429 . S
C5708 C5691 1.574 . S
C5708 H5702 0.949 . S
C5708 C5712 1.368 . S
C5709 C5690 1.429 . S
C5709 C5703 1.429 . S
C5709 C5710 1.523 . S
C5710 C5691 1.368 . S
C5710 C5704 1.368 . S
C5710 C5709 1.523 . S
C5711 C5695 1.429 . S
C5711 C5707 1.429 . S
C5711 C5712 1.523 . S
C5712 C5696 1.368 . S
C5712 C5708 1.368 . S
C5712 C5711 1.523 . S
H5713 C5688 0.950 . S
H5714 C5690 0.950 . S
H5715 C5691 0.949 . S
H5716 C5693 0.950 . S
H5717 C5695 0.950 . S
C5718 C5719 1.349 . S
C5718 C5720 1.327 . S
C5718 H5743 0.950 . S
C5719 C5718 1.349 . S
C5719 C5735 1.349 . S
C5720 C5718 1.327 . S
C5720 C5739 1.429 . S
C5720 H5744 0.950 . S
C5721 C5738 1.574 . S
C5721 C5740 1.368 . S
C5721 H5745 0.949 . S
H5722 C5726 0.949 . S
C5723 C5724 1.349 . S
C5723 C5725 1.327 . S
C5723 H5746 0.950 . S
C5724 C5723 1.349 . S
C5724 C5736 1.349 . S
C5725 C5723 1.327 . S
C5725 C5741 1.429 . S
C5725 H5747 0.950 . S
C5726 H5722 0.949 . S
C5726 C5734 1.574 . S
C5726 C5742 1.368 . S
H5727 C5735 0.950 . S
H5728 C5733 0.950 . S
H5729 C5734 0.949 . S
H5730 C5736 0.950 . S
H5731 C5737 0.950 . S
H5732 C5738 0.949 . S
C5733 H5728 0.950 . S
C5733 C5735 1.327 . S
C5733 C5739 1.429 . S
C5734 C5726 1.574 . S
C5734 H5729 0.949 . S
C5734 C5740 1.368 . S
C5735 C5719 1.349 . S
C5735 H5727 0.950 . S
C5735 C5733 1.327 . S
C5736 C5724 1.349 . S
C5736 H5730 0.950 . S
C5736 C5737 1.327 . S
C5737 H5731 0.950 . S
C5737 C5736 1.327 . S
C5737 C5741 1.429 . S
C5738 C5721 1.574 . S
C5738 H5732 0.949 . S
C5738 C5742 1.368 . S
C5739 C5720 1.429 . S
C5739 C5733 1.429 . S
C5739 C5740 1.523 . S
C5740 C5721 1.368 . S
C5740 C5734 1.368 . S
C5740 C5739 1.523 . S
C5741 C5725 1.429 . S
C5741 C5737 1.429 . S
C5741 C5742 1.523 . S
C5742 C5726 1.368 . S
C5742 C5738 1.368 . S
C5742 C5741 1.523 . S
H5743 C5718 0.950 . S
H5744 C5720 0.950 . S
H5745 C5721 0.949 . S
H5746 C5723 0.950 . S
H5747 C5725 0.950 . S
C5748 C5749 1.349 . S
C5748 C5750 1.327 . S
C5748 H5773 0.950 . S
C5749 C5748 1.349 . S
C5749 C5765 1.349 . S
C5750 C5748 1.327 . S
C5750 C5769 1.429 . S
C5750 H5774 0.950 . S
C5751 C5768 1.574 . S
C5751 C5770 1.368 . S
C5751 H5775 0.949 . S
H5752 C5756 0.949 . S
C5753 C5754 1.349 . S
C5753 C5755 1.327 . S
C5753 H5776 0.950 . S
C5754 C5753 1.349 . S
C5754 C5766 1.349 . S
C5755 C5753 1.327 . S
C5755 C5771 1.429 . S
C5755 H5777 0.950 . S
C5756 H5752 0.949 . S
C5756 C5764 1.574 . S
C5756 C5772 1.368 . S
H5757 C5765 0.950 . S
H5758 C5763 0.950 . S
H5759 C5764 0.949 . S
H5760 C5766 0.950 . S
H5761 C5767 0.950 . S
H5762 C5768 0.949 . S
C5763 H5758 0.950 . S
C5763 C5765 1.327 . S
C5763 C5769 1.429 . S
C5764 C5756 1.574 . S
C5764 H5759 0.949 . S
C5764 C5770 1.368 . S
C5765 C5749 1.349 . S
C5765 H5757 0.950 . S
C5765 C5763 1.327 . S
C5766 C5754 1.349 . S
C5766 H5760 0.950 . S
C5766 C5767 1.327 . S
C5767 H5761 0.950 . S
C5767 C5766 1.327 . S
C5767 C5771 1.429 . S
C5768 C5751 1.574 . S
C5768 H5762 0.949 . S
C5768 C5772 1.368 . S
C5769 C5750 1.429 . S
C5769 C5763 1.429 . S
C5769 C5770 1.523 . S
C5770 C5751 1.368 . S
C5770 C5764 1.368 . S
C5770 C5769 1.523 . S
C5771 C5755 1.429 . S
C5771 C5767 1.429 . S
C5771 C5772 1.523 . S
C5772 C5756 1.368 . S
C5772 C5768 1.368 . S
C5772 C5771 1.523 . S
H5773 C5748 0.950 . S
H5774 C5750 0.950 . S
H5775 C5751 0.949 . S
H5776 C5753 0.950 . S
H5777 C5755 0.950 . S
C5778 C5779 1.349 . S
C5778 C5780 1.327 . S
C5778 H5803 0.950 . S
C5779 C5778 1.349 . S
C5779 C5795 1.349 . S
C5780 C5778 1.327 . S
C5780 C5799 1.429 . S
C5780 H5804 0.950 . S
C5781 C5798 1.574 . S
C5781 C5800 1.368 . S
C5781 H5805 0.949 . S
H5782 C5786 0.949 . S
C5783 C5784 1.349 . S
C5783 C5785 1.327 . S
C5783 H5806 0.950 . S
C5784 C5783 1.349 . S
C5784 C5796 1.349 . S
C5785 C5783 1.327 . S
C5785 C5801 1.429 . S
C5785 H5807 0.950 . S
C5786 H5782 0.949 . S
C5786 C5794 1.574 . S
C5786 C5802 1.368 . S
H5787 C5795 0.950 . S
H5788 C5793 0.950 . S
H5789 C5794 0.949 . S
H5790 C5796 0.950 . S
H5791 C5797 0.950 . S
H5792 C5798 0.949 . S
C5793 H5788 0.950 . S
C5793 C5795 1.327 . S
C5793 C5799 1.429 . S
C5794 C5786 1.574 . S
C5794 H5789 0.949 . S
C5794 C5800 1.368 . S
C5795 C5779 1.349 . S
C5795 H5787 0.950 . S
C5795 C5793 1.327 . S
C5796 C5784 1.349 . S
C5796 H5790 0.950 . S
C5796 C5797 1.327 . S
C5797 H5791 0.950 . S
C5797 C5796 1.327 . S
C5797 C5801 1.429 . S
C5798 C5781 1.574 . S
C5798 H5792 0.949 . S
C5798 C5802 1.368 . S
C5799 C5780 1.429 . S
C5799 C5793 1.429 . S
C5799 C5800 1.523 . S
C5800 C5781 1.368 . S
C5800 C5794 1.368 . S
C5800 C5799 1.523 . S
C5801 C5785 1.429 . S
C5801 C5797 1.429 . S
C5801 C5802 1.523 . S
C5802 C5786 1.368 . S
C5802 C5798 1.368 . S
C5802 C5801 1.523 . S
H5803 C5778 0.950 . S
H5804 C5780 0.950 . S
H5805 C5781 0.949 . S
H5806 C5783 0.950 . S
H5807 C5785 0.950 . S
C5808 C5809 1.349 . S
C5808 C5810 1.327 . S
C5808 H5833 0.950 . S
C5809 C5808 1.349 . S
C5809 C5825 1.349 . S
C5810 C5808 1.327 . S
C5810 C5829 1.429 . S
C5810 H5834 0.950 . S
C5811 C5828 1.574 . S
C5811 C5830 1.368 . S
C5811 H5835 0.949 . S
H5812 C5816 0.949 . S
C5813 C5814 1.349 . S
C5813 C5815 1.327 . S
C5813 H5836 0.950 . S
C5814 C5813 1.349 . S
C5814 C5826 1.349 . S
C5815 C5813 1.327 . S
C5815 C5831 1.429 . S
C5815 H5837 0.950 . S
C5816 H5812 0.949 . S
C5816 C5824 1.574 . S
C5816 C5832 1.368 . S
H5817 C5825 0.950 . S
H5818 C5823 0.950 . S
H5819 C5824 0.949 . S
H5820 C5826 0.950 . S
H5821 C5827 0.950 . S
H5822 C5828 0.949 . S
C5823 H5818 0.950 . S
C5823 C5825 1.327 . S
C5823 C5829 1.429 . S
C5824 C5816 1.574 . S
C5824 H5819 0.949 . S
C5824 C5830 1.368 . S
C5825 C5809 1.349 . S
C5825 H5817 0.950 . S
C5825 C5823 1.327 . S
C5826 C5814 1.349 . S
C5826 H5820 0.950 . S
C5826 C5827 1.327 . S
C5827 H5821 0.950 . S
C5827 C5826 1.327 . S
C5827 C5831 1.429 . S
C5828 C5811 1.574 . S
C5828 H5822 0.949 . S
C5828 C5832 1.368 . S
C5829 C5810 1.429 . S
C5829 C5823 1.429 . S
C5829 C5830 1.523 . S
C5830 C5811 1.368 . S
C5830 C5824 1.368 . S
C5830 C5829 1.523 . S
C5831 C5815 1.429 . S
C5831 C5827 1.429 . S
C5831 C5832 1.523 . S
C5832 C5816 1.368 . S
C5832 C5828 1.368 . S
C5832 C5831 1.523 . S
H5833 C5808 0.950 . S
H5834 C5810 0.950 . S
H5835 C5811 0.949 . S
H5836 C5813 0.950 . S
H5837 C5815 0.950 . S
C5838 C5839 1.349 . S
C5838 C5840 1.327 . S
C5838 H5863 0.950 . S
C5839 C5838 1.349 . S
C5839 C5855 1.349 . S
C5840 C5838 1.327 . S
C5840 C5859 1.429 . S
C5840 H5864 0.950 . S
C5841 C5858 1.574 . S
C5841 C5860 1.368 . S
C5841 H5865 0.949 . S
H5842 C5846 0.949 . S
C5843 C5844 1.349 . S
C5843 C5845 1.327 . S
C5843 H5866 0.950 . S
C5844 C5843 1.349 . S
C5844 C5856 1.349 . S
C5845 C5843 1.327 . S
C5845 C5861 1.429 . S
C5845 H5867 0.950 . S
C5846 H5842 0.949 . S
C5846 C5854 1.574 . S
C5846 C5862 1.368 . S
H5847 C5855 0.950 . S
H5848 C5853 0.950 . S
H5849 C5854 0.949 . S
H5850 C5856 0.950 . S
H5851 C5857 0.950 . S
H5852 C5858 0.949 . S
C5853 H5848 0.950 . S
C5853 C5855 1.327 . S
C5853 C5859 1.429 . S
C5854 C5846 1.574 . S
C5854 H5849 0.949 . S
C5854 C5860 1.368 . S
C5855 C5839 1.349 . S
C5855 H5847 0.950 . S
C5855 C5853 1.327 . S
C5856 C5844 1.349 . S
C5856 H5850 0.950 . S
C5856 C5857 1.327 . S
C5857 H5851 0.950 . S
C5857 C5856 1.327 . S
C5857 C5861 1.429 . S
C5858 C5841 1.574 . S
C5858 H5852 0.949 . S
C5858 C5862 1.368 . S
C5859 C5840 1.429 . S
C5859 C5853 1.429 . S
C5859 C5860 1.523 . S
C5860 C5841 1.368 . S
C5860 C5854 1.368 . S
C5860 C5859 1.523 . S
C5861 C5845 1.429 . S
C5861 C5857 1.429 . S
C5861 C5862 1.523 . S
C5862 C5846 1.368 . S
C5862 C5858 1.368 . S
C5862 C5861 1.523 . S
H5863 C5838 0.950 . S
H5864 C5840 0.950 . S
H5865 C5841 0.949 . S
H5866 C5843 0.950 . S
H5867 C5845 0.950 . S
C5868 C5869 1.349 . S
C5868 C5870 1.327 . S
C5868 H5893 0.950 . S
C5869 C5868 1.349 . S
C5869 C5885 1.349 . S
C5870 C5868 1.327 . S
C5870 C5889 1.429 . S
C5870 H5894 0.950 . S
C5871 C5888 1.574 . S
C5871 C5890 1.368 . S
C5871 H5895 0.949 . S
H5872 C5876 0.949 . S
C5873 C5874 1.349 . S
C5873 C5875 1.327 . S
C5873 H5896 0.950 . S
C5874 C5873 1.349 . S
C5874 C5886 1.349 . S
C5875 C5873 1.327 . S
C5875 C5891 1.429 . S
C5875 H5897 0.950 . S
C5876 H5872 0.949 . S
C5876 C5884 1.574 . S
C5876 C5892 1.368 . S
H5877 C5885 0.950 . S
H5878 C5883 0.950 . S
H5879 C5884 0.949 . S
H5880 C5886 0.950 . S
H5881 C5887 0.950 . S
H5882 C5888 0.949 . S
C5883 H5878 0.950 . S
C5883 C5885 1.327 . S
C5883 C5889 1.429 . S
C5884 C5876 1.574 . S
C5884 H5879 0.949 . S
C5884 C5890 1.368 . S
C5885 C5869 1.349 . S
C5885 H5877 0.950 . S
C5885 C5883 1.327 . S
C5886 C5874 1.349 . S
C5886 H5880 0.950 . S
C5886 C5887 1.327 . S
C5887 H5881 0.950 . S
C5887 C5886 1.327 . S
C5887 C5891 1.429 . S
C5888 C5871 1.574 . S
C5888 H5882 0.949 . S
C5888 C5892 1.368 . S
C5889 C5870 1.429 . S
C5889 C5883 1.429 . S
C5889 C5890 1.523 . S
C5890 C5871 1.368 . S
C5890 C5884 1.368 . S
C5890 C5889 1.523 . S
C5891 C5875 1.429 . S
C5891 C5887 1.429 . S
C5891 C5892 1.523 . S
C5892 C5876 1.368 . S
C5892 C5888 1.368 . S
C5892 C5891 1.523 . S
H5893 C5868 0.950 . S
H5894 C5870 0.950 . S
H5895 C5871 0.949 . S
H5896 C5873 0.950 . S
H5897 C5875 0.950 . S
C5898 C5899 1.349 . S
C5898 C5900 1.327 . S
C5898 H5923 0.950 . S
C5899 C5898 1.349 . S
C5899 C5915 1.349 . S
C5900 C5898 1.327 . S
C5900 C5919 1.429 . S
C5900 H5924 0.950 . S
C5901 C5918 1.574 . S
C5901 C5920 1.368 . S
C5901 H5925 0.949 . S
H5902 C5906 0.949 . S
C5903 C5904 1.349 . S
C5903 C5905 1.327 . S
C5903 H5926 0.950 . S
C5904 C5903 1.349 . S
C5904 C5916 1.349 . S
C5905 C5903 1.327 . S
C5905 C5921 1.429 . S
C5905 H5927 0.950 . S
C5906 H5902 0.949 . S
C5906 C5914 1.574 . S
C5906 C5922 1.368 . S
H5907 C5915 0.950 . S
H5908 C5913 0.950 . S
H5909 C5914 0.949 . S
H5910 C5916 0.950 . S
H5911 C5917 0.950 . S
H5912 C5918 0.949 . S
C5913 H5908 0.950 . S
C5913 C5915 1.327 . S
C5913 C5919 1.429 . S
C5914 C5906 1.574 . S
C5914 H5909 0.949 . S
C5914 C5920 1.368 . S
C5915 C5899 1.349 . S
C5915 H5907 0.950 . S
C5915 C5913 1.327 . S
C5916 C5904 1.349 . S
C5916 H5910 0.950 . S
C5916 C5917 1.327 . S
C5917 H5911 0.950 . S
C5917 C5916 1.327 . S
C5917 C5921 1.429 . S
C5918 C5901 1.574 . S
C5918 H5912 0.949 . S
C5918 C5922 1.368 . S
C5919 C5900 1.429 . S
C5919 C5913 1.429 . S
C5919 C5920 1.523 . S
C5920 C5901 1.368 . S
C5920 C5914 1.368 . S
C5920 C5919 1.523 . S
C5921 C5905 1.429 . S
C5921 C5917 1.429 . S
C5921 C5922 1.523 . S
C5922 C5906 1.368 . S
C5922 C5918 1.368 . S
C5922 C5921 1.523 . S
H5923 C5898 0.950 . S
H5924 C5900 0.950 . S
H5925 C5901 0.949 . S
H5926 C5903 0.950 . S
H5927 C5905 0.950 . S
C5928 C5929 1.349 . S
C5928 C5930 1.327 . S
C5928 H5953 0.950 . S
C5929 C5928 1.349 . S
C5929 C5945 1.349 . S
C5930 C5928 1.327 . S
C5930 C5949 1.429 . S
C5930 H5954 0.950 . S
C5931 C5948 1.574 . S
C5931 C5950 1.368 . S
C5931 H5955 0.949 . S
H5932 C5936 0.949 . S
C5933 C5934 1.349 . S
C5933 C5935 1.327 . S
C5933 H5956 0.950 . S
C5934 C5933 1.349 . S
C5934 C5946 1.349 . S
C5935 C5933 1.327 . S
C5935 C5951 1.429 . S
C5935 H5957 0.950 . S
C5936 H5932 0.949 . S
C5936 C5944 1.574 . S
C5936 C5952 1.368 . S
H5937 C5945 0.950 . S
H5938 C5943 0.950 . S
H5939 C5944 0.949 . S
H5940 C5946 0.950 . S
H5941 C5947 0.950 . S
H5942 C5948 0.949 . S
C5943 H5938 0.950 . S
C5943 C5945 1.327 . S
C5943 C5949 1.429 . S
C5944 C5936 1.574 . S
C5944 H5939 0.949 . S
C5944 C5950 1.368 . S
C5945 C5929 1.349 . S
C5945 H5937 0.950 . S
C5945 C5943 1.327 . S
C5946 C5934 1.349 . S
C5946 H5940 0.950 . S
C5946 C5947 1.327 . S
C5947 H5941 0.950 . S
C5947 C5946 1.327 . S
C5947 C5951 1.429 . S
C5948 C5931 1.574 . S
C5948 H5942 0.949 . S
C5948 C5952 1.368 . S
C5949 C5930 1.429 . S
C5949 C5943 1.429 . S
C5949 C5950 1.523 . S
C5950 C5931 1.368 . S
C5950 C5944 1.368 . S
C5950 C5949 1.523 . S
C5951 C5935 1.429 . S
C5951 C5947 1.429 . S
C5951 C5952 1.523 . S
C5952 C5936 1.368 . S
C5952 C5948 1.368 . S
C5952 C5951 1.523 . S
H5953 C5928 0.950 . S
H5954 C5930 0.950 . S
H5955 C5931 0.949 . S
H5956 C5933 0.950 . S
H5957 C5935 0.950 . S
C5958 C5959 1.349 . S
C5958 C5960 1.327 . S
C5958 H5983 0.950 . S
C5959 C5958 1.349 . S
C5959 C5975 1.349 . S
C5960 C5958 1.327 . S
C5960 C5979 1.429 . S
C5960 H5984 0.950 . S
C5961 C5978 1.574 . S
C5961 C5980 1.368 . S
C5961 H5985 0.949 . S
H5962 C5966 0.949 . S
C5963 C5964 1.349 . S
C5963 C5965 1.327 . S
C5963 H5986 0.950 . S
C5964 C5963 1.349 . S
C5964 C5976 1.349 . S
C5965 C5963 1.327 . S
C5965 C5981 1.429 . S
C5965 H5987 0.950 . S
C5966 H5962 0.949 . S
C5966 C5974 1.574 . S
C5966 C5982 1.368 . S
H5967 C5975 0.950 . S
H5968 C5973 0.950 . S
H5969 C5974 0.949 . S
H5970 C5976 0.950 . S
H5971 C5977 0.950 . S
H5972 C5978 0.949 . S
C5973 H5968 0.950 . S
C5973 C5975 1.327 . S
C5973 C5979 1.429 . S
C5974 C5966 1.574 . S
C5974 H5969 0.949 . S
C5974 C5980 1.368 . S
C5975 C5959 1.349 . S
C5975 H5967 0.950 . S
C5975 C5973 1.327 . S
C5976 C5964 1.349 . S
C5976 H5970 0.950 . S
C5976 C5977 1.327 . S
C5977 H5971 0.950 . S
C5977 C5976 1.327 . S
C5977 C5981 1.429 . S
C5978 C5961 1.574 . S
C5978 H5972 0.949 . S
C5978 C5982 1.368 . S
C5979 C5960 1.429 . S
C5979 C5973 1.429 . S
C5979 C5980 1.523 . S
C5980 C5961 1.368 . S
C5980 C5974 1.368 . S
C5980 C5979 1.523 . S
C5981 C5965 1.429 . S
C5981 C5977 1.429 . S
C5981 C5982 1.523 . S
C5982 C5966 1.368 . S
C5982 C5978 1.368 . S
C5982 C5981 1.523 . S
H5983 C5958 0.950 . S
H5984 C5960 0.950 . S
H5985 C5961 0.949 . S
H5986 C5963 0.950 . S
H5987 C5965 0.950 . S
C5988 C5989 1.349 . S
C5988 C5990 1.327 . S
C5988 H6013 0.950 . S
C5989 C5988 1.349 . S
C5989 C6005 1.349 . S
C5990 C5988 1.327 . S
C5990 C6009 1.429 . S
C5990 H6014 0.950 . S
C5991 C6008 1.574 . S
C5991 C6010 1.368 . S
C5991 H6015 0.949 . S
H5992 C5996 0.949 . S
C5993 C5994 1.349 . S
C5993 C5995 1.327 . S
C5993 H6016 0.950 . S
C5994 C5993 1.349 . S
C5994 C6006 1.349 . S
C5995 C5993 1.327 . S
C5995 C6011 1.429 . S
C5995 H6017 0.950 . S
C5996 H5992 0.949 . S
C5996 C6004 1.574 . S
C5996 C6012 1.368 . S
H5997 C6005 0.950 . S
H5998 C6003 0.950 . S
H5999 C6004 0.949 . S
H6000 C6006 0.950 . S
H6001 C6007 0.950 . S
H6002 C6008 0.949 . S
C6003 H5998 0.950 . S
C6003 C6005 1.327 . S
C6003 C6009 1.429 . S
C6004 C5996 1.574 . S
C6004 H5999 0.949 . S
C6004 C6010 1.368 . S
C6005 C5989 1.349 . S
C6005 H5997 0.950 . S
C6005 C6003 1.327 . S
C6006 C5994 1.349 . S
C6006 H6000 0.950 . S
C6006 C6007 1.327 . S
C6007 H6001 0.950 . S
C6007 C6006 1.327 . S
C6007 C6011 1.429 . S
C6008 C5991 1.574 . S
C6008 H6002 0.949 . S
C6008 C6012 1.368 . S
C6009 C5990 1.429 . S
C6009 C6003 1.429 . S
C6009 C6010 1.523 . S
C6010 C5991 1.368 . S
C6010 C6004 1.368 . S
C6010 C6009 1.523 . S
C6011 C5995 1.429 . S
C6011 C6007 1.429 . S
C6011 C6012 1.523 . S
C6012 C5996 1.368 . S
C6012 C6008 1.368 . S
C6012 C6011 1.523 . S
H6013 C5988 0.950 . S
H6014 C5990 0.950 . S
H6015 C5991 0.949 . S
H6016 C5993 0.950 . S
H6017 C5995 0.950 . S
C6018 C6019 1.349 . S
C6018 C6020 1.327 . S
C6018 H6043 0.950 . S
C6019 C6018 1.349 . S
C6019 C6035 1.349 . S
C6020 C6018 1.327 . S
C6020 C6039 1.429 . S
C6020 H6044 0.950 . S
C6021 C6038 1.574 . S
C6021 C6040 1.368 . S
C6021 H6045 0.949 . S
H6022 C6026 0.949 . S
C6023 C6024 1.349 . S
C6023 C6025 1.327 . S
C6023 H6046 0.950 . S
C6024 C6023 1.349 . S
C6024 C6036 1.349 . S
C6025 C6023 1.327 . S
C6025 C6041 1.429 . S
C6025 H6047 0.950 . S
C6026 H6022 0.949 . S
C6026 C6034 1.574 . S
C6026 C6042 1.368 . S
H6027 C6035 0.950 . S
H6028 C6033 0.950 . S
H6029 C6034 0.949 . S
H6030 C6036 0.950 . S
H6031 C6037 0.950 . S
H6032 C6038 0.949 . S
C6033 H6028 0.950 . S
C6033 C6035 1.327 . S
C6033 C6039 1.429 . S
C6034 C6026 1.574 . S
C6034 H6029 0.949 . S
C6034 C6040 1.368 . S
C6035 C6019 1.349 . S
C6035 H6027 0.950 . S
C6035 C6033 1.327 . S
C6036 C6024 1.349 . S
C6036 H6030 0.950 . S
C6036 C6037 1.327 . S
C6037 H6031 0.950 . S
C6037 C6036 1.327 . S
C6037 C6041 1.429 . S
C6038 C6021 1.574 . S
C6038 H6032 0.949 . S
C6038 C6042 1.368 . S
C6039 C6020 1.429 . S
C6039 C6033 1.429 . S
C6039 C6040 1.523 . S
C6040 C6021 1.368 . S
C6040 C6034 1.368 . S
C6040 C6039 1.523 . S
C6041 C6025 1.429 . S
C6041 C6037 1.429 . S
C6041 C6042 1.523 . S
C6042 C6026 1.368 . S
C6042 C6038 1.368 . S
C6042 C6041 1.523 . S
H6043 C6018 0.950 . S
H6044 C6020 0.950 . S
H6045 C6021 0.949 . S
H6046 C6023 0.950 . S
H6047 C6025 0.950 . S
C6048 C6049 1.349 . S
C6048 C6050 1.327 . S
C6048 H6073 0.950 . S
C6049 C6048 1.349 . S
C6049 C6065 1.349 . S
C6050 C6048 1.327 . S
C6050 C6069 1.429 . S
C6050 H6074 0.950 . S
C6051 C6068 1.574 . S
C6051 C6070 1.368 . S
C6051 H6075 0.949 . S
H6052 C6056 0.949 . S
C6053 C6054 1.349 . S
C6053 C6055 1.327 . S
C6053 H6076 0.950 . S
C6054 C6053 1.349 . S
C6054 C6066 1.349 . S
C6055 C6053 1.327 . S
C6055 C6071 1.429 . S
C6055 H6077 0.950 . S
C6056 H6052 0.949 . S
C6056 C6064 1.574 . S
C6056 C6072 1.368 . S
H6057 C6065 0.950 . S
H6058 C6063 0.950 . S
H6059 C6064 0.949 . S
H6060 C6066 0.950 . S
H6061 C6067 0.950 . S
H6062 C6068 0.949 . S
C6063 H6058 0.950 . S
C6063 C6065 1.327 . S
C6063 C6069 1.429 . S
C6064 C6056 1.574 . S
C6064 H6059 0.949 . S
C6064 C6070 1.368 . S
C6065 C6049 1.349 . S
C6065 H6057 0.950 . S
C6065 C6063 1.327 . S
C6066 C6054 1.349 . S
C6066 H6060 0.950 . S
C6066 C6067 1.327 . S
C6067 H6061 0.950 . S
C6067 C6066 1.327 . S
C6067 C6071 1.429 . S
C6068 C6051 1.574 . S
C6068 H6062 0.949 . S
C6068 C6072 1.368 . S
C6069 C6050 1.429 . S
C6069 C6063 1.429 . S
C6069 C6070 1.523 . S
C6070 C6051 1.368 . S
C6070 C6064 1.368 . S
C6070 C6069 1.523 . S
C6071 C6055 1.429 . S
C6071 C6067 1.429 . S
C6071 C6072 1.523 . S
C6072 C6056 1.368 . S
C6072 C6068 1.368 . S
C6072 C6071 1.523 . S
H6073 C6048 0.950 . S
H6074 C6050 0.950 . S
H6075 C6051 0.949 . S
H6076 C6053 0.950 . S
H6077 C6055 0.950 . S
C6078 C6079 1.349 . S
C6078 C6080 1.327 . S
C6078 H6103 0.950 . S
C6079 C6078 1.349 . S
C6079 C6095 1.349 . S
C6080 C6078 1.327 . S
C6080 C6099 1.429 . S
C6080 H6104 0.950 . S
C6081 C6098 1.574 . S
C6081 C6100 1.368 . S
C6081 H6105 0.949 . S
H6082 C6086 0.949 . S
C6083 C6084 1.349 . S
C6083 C6085 1.327 . S
C6083 H6106 0.950 . S
C6084 C6083 1.349 . S
C6084 C6096 1.349 . S
C6085 C6083 1.327 . S
C6085 C6101 1.429 . S
C6085 H6107 0.950 . S
C6086 H6082 0.949 . S
C6086 C6094 1.574 . S
C6086 C6102 1.368 . S
H6087 C6095 0.950 . S
H6088 C6093 0.950 . S
H6089 C6094 0.949 . S
H6090 C6096 0.950 . S
H6091 C6097 0.950 . S
H6092 C6098 0.949 . S
C6093 H6088 0.950 . S
C6093 C6095 1.327 . S
C6093 C6099 1.429 . S
C6094 C6086 1.574 . S
C6094 H6089 0.949 . S
C6094 C6100 1.368 . S
C6095 C6079 1.349 . S
C6095 H6087 0.950 . S
C6095 C6093 1.327 . S
C6096 C6084 1.349 . S
C6096 H6090 0.950 . S
C6096 C6097 1.327 . S
C6097 H6091 0.950 . S
C6097 C6096 1.327 . S
C6097 C6101 1.429 . S
C6098 C6081 1.574 . S
C6098 H6092 0.949 . S
C6098 C6102 1.368 . S
C6099 C6080 1.429 . S
C6099 C6093 1.429 . S
C6099 C6100 1.523 . S
C6100 C6081 1.368 . S
C6100 C6094 1.368 . S
C6100 C6099 1.523 . S
C6101 C6085 1.429 . S
C6101 C6097 1.429 . S
C6101 C6102 1.523 . S
C6102 C6086 1.368 . S
C6102 C6098 1.368 . S
C6102 C6101 1.523 . S
H6103 C6078 0.950 . S
H6104 C6080 0.950 . S
H6105 C6081 0.949 . S
H6106 C6083 0.950 . S
H6107 C6085 0.950 . S
C6108 C6109 1.349 . S
C6108 C6110 1.327 . S
C6108 H6133 0.950 . S
C6109 C6108 1.349 . S
C6109 C6125 1.349 . S
C6110 C6108 1.327 . S
C6110 C6129 1.429 . S
C6110 H6134 0.950 . S
C6111 C6128 1.574 . S
C6111 C6130 1.368 . S
C6111 H6135 0.949 . S
H6112 C6116 0.949 . S
C6113 C6114 1.349 . S
C6113 C6115 1.327 . S
C6113 H6136 0.950 . S
C6114 C6113 1.349 . S
C6114 C6126 1.349 . S
C6115 C6113 1.327 . S
C6115 C6131 1.429 . S
C6115 H6137 0.950 . S
C6116 H6112 0.949 . S
C6116 C6124 1.574 . S
C6116 C6132 1.368 . S
H6117 C6125 0.950 . S
H6118 C6123 0.950 . S
H6119 C6124 0.949 . S
H6120 C6126 0.950 . S
H6121 C6127 0.950 . S
H6122 C6128 0.949 . S
C6123 H6118 0.950 . S
C6123 C6125 1.327 . S
C6123 C6129 1.429 . S
C6124 C6116 1.574 . S
C6124 H6119 0.949 . S
C6124 C6130 1.368 . S
C6125 C6109 1.349 . S
C6125 H6117 0.950 . S
C6125 C6123 1.327 . S
C6126 C6114 1.349 . S
C6126 H6120 0.950 . S
C6126 C6127 1.327 . S
C6127 H6121 0.950 . S
C6127 C6126 1.327 . S
C6127 C6131 1.429 . S
C6128 C6111 1.574 . S
C6128 H6122 0.949 . S
C6128 C6132 1.368 . S
C6129 C6110 1.429 . S
C6129 C6123 1.429 . S
C6129 C6130 1.523 . S
C6130 C6111 1.368 . S
C6130 C6124 1.368 . S
C6130 C6129 1.523 . S
C6131 C6115 1.429 . S
C6131 C6127 1.429 . S
C6131 C6132 1.523 . S
C6132 C6116 1.368 . S
C6132 C6128 1.368 . S
C6132 C6131 1.523 . S
H6133 C6108 0.950 . S
H6134 C6110 0.950 . S
H6135 C6111 0.949 . S
H6136 C6113 0.950 . S
H6137 C6115 0.950 . S
C6138 C6139 1.349 . S
C6138 C6140 1.327 . S
C6138 H6163 0.950 . S
C6139 C6138 1.349 . S
C6139 C6155 1.349 . S
C6140 C6138 1.327 . S
C6140 C6159 1.429 . S
C6140 H6164 0.950 . S
C6141 C6158 1.574 . S
C6141 C6160 1.368 . S
C6141 H6165 0.949 . S
H6142 C6146 0.949 . S
C6143 C6144 1.349 . S
C6143 C6145 1.327 . S
C6143 H6166 0.950 . S
C6144 C6143 1.349 . S
C6144 C6156 1.349 . S
C6145 C6143 1.327 . S
C6145 C6161 1.429 . S
C6145 H6167 0.950 . S
C6146 H6142 0.949 . S
C6146 C6154 1.574 . S
C6146 C6162 1.368 . S
H6147 C6155 0.950 . S
H6148 C6153 0.950 . S
H6149 C6154 0.949 . S
H6150 C6156 0.950 . S
H6151 C6157 0.950 . S
H6152 C6158 0.949 . S
C6153 H6148 0.950 . S
C6153 C6155 1.327 . S
C6153 C6159 1.429 . S
C6154 C6146 1.574 . S
C6154 H6149 0.949 . S
C6154 C6160 1.368 . S
C6155 C6139 1.349 . S
C6155 H6147 0.950 . S
C6155 C6153 1.327 . S
C6156 C6144 1.349 . S
C6156 H6150 0.950 . S
C6156 C6157 1.327 . S
C6157 H6151 0.950 . S
C6157 C6156 1.327 . S
C6157 C6161 1.429 . S
C6158 C6141 1.574 . S
C6158 H6152 0.949 . S
C6158 C6162 1.368 . S
C6159 C6140 1.429 . S
C6159 C6153 1.429 . S
C6159 C6160 1.523 . S
C6160 C6141 1.368 . S
C6160 C6154 1.368 . S
C6160 C6159 1.523 . S
C6161 C6145 1.429 . S
C6161 C6157 1.429 . S
C6161 C6162 1.523 . S
C6162 C6146 1.368 . S
C6162 C6158 1.368 . S
C6162 C6161 1.523 . S
H6163 C6138 0.950 . S
H6164 C6140 0.950 . S
H6165 C6141 0.949 . S
H6166 C6143 0.950 . S
H6167 C6145 0.950 . S
C6168 C6169 1.349 . S
C6168 C6170 1.327 . S
C6168 H6193 0.950 . S
C6169 C6168 1.349 . S
C6169 C6185 1.349 . S
C6170 C6168 1.327 . S
C6170 C6189 1.429 . S
C6170 H6194 0.950 . S
C6171 C6188 1.574 . S
C6171 C6190 1.368 . S
C6171 H6195 0.949 . S
H6172 C6176 0.949 . S
C6173 C6174 1.349 . S
C6173 C6175 1.327 . S
C6173 H6196 0.950 . S
C6174 C6173 1.349 . S
C6174 C6186 1.349 . S
C6175 C6173 1.327 . S
C6175 C6191 1.429 . S
C6175 H6197 0.950 . S
C6176 H6172 0.949 . S
C6176 C6184 1.574 . S
C6176 C6192 1.368 . S
H6177 C6185 0.950 . S
H6178 C6183 0.950 . S
H6179 C6184 0.949 . S
H6180 C6186 0.950 . S
H6181 C6187 0.950 . S
H6182 C6188 0.949 . S
C6183 H6178 0.950 . S
C6183 C6185 1.327 . S
C6183 C6189 1.429 . S
C6184 C6176 1.574 . S
C6184 H6179 0.949 . S
C6184 C6190 1.368 . S
C6185 C6169 1.349 . S
C6185 H6177 0.950 . S
C6185 C6183 1.327 . S
C6186 C6174 1.349 . S
C6186 H6180 0.950 . S
C6186 C6187 1.327 . S
C6187 H6181 0.950 . S
C6187 C6186 1.327 . S
C6187 C6191 1.429 . S
C6188 C6171 1.574 . S
C6188 H6182 0.949 . S
C6188 C6192 1.368 . S
C6189 C6170 1.429 . S
C6189 C6183 1.429 . S
C6189 C6190 1.523 . S
C6190 C6171 1.368 . S
C6190 C6184 1.368 . S
C6190 C6189 1.523 . S
C6191 C6175 1.429 . S
C6191 C6187 1.429 . S
C6191 C6192 1.523 . S
C6192 C6176 1.368 . S
C6192 C6188 1.368 . S
C6192 C6191 1.523 . S
H6193 C6168 0.950 . S
H6194 C6170 0.950 . S
H6195 C6171 0.949 . S
H6196 C6173 0.950 . S
H6197 C6175 0.950 . S
C6198 C6199 1.349 . S
C6198 C6200 1.327 . S
C6198 H6223 0.950 . S
C6199 C6198 1.349 . S
C6199 C6215 1.349 . S
C6200 C6198 1.327 . S
C6200 C6219 1.429 . S
C6200 H6224 0.950 . S
C6201 C6218 1.574 . S
C6201 C6220 1.368 . S
C6201 H6225 0.949 . S
H6202 C6206 0.949 . S
C6203 C6204 1.349 . S
C6203 C6205 1.327 . S
C6203 H6226 0.950 . S
C6204 C6203 1.349 . S
C6204 C6216 1.349 . S
C6205 C6203 1.327 . S
C6205 C6221 1.429 . S
C6205 H6227 0.950 . S
C6206 H6202 0.949 . S
C6206 C6214 1.574 . S
C6206 C6222 1.368 . S
H6207 C6215 0.950 . S
H6208 C6213 0.950 . S
H6209 C6214 0.949 . S
H6210 C6216 0.950 . S
H6211 C6217 0.950 . S
H6212 C6218 0.949 . S
C6213 H6208 0.950 . S
C6213 C6215 1.327 . S
C6213 C6219 1.429 . S
C6214 C6206 1.574 . S
C6214 H6209 0.949 . S
C6214 C6220 1.368 . S
C6215 C6199 1.349 . S
C6215 H6207 0.950 . S
C6215 C6213 1.327 . S
C6216 C6204 1.349 . S
C6216 H6210 0.950 . S
C6216 C6217 1.327 . S
C6217 H6211 0.950 . S
C6217 C6216 1.327 . S
C6217 C6221 1.429 . S
C6218 C6201 1.574 . S
C6218 H6212 0.949 . S
C6218 C6222 1.368 . S
C6219 C6200 1.429 . S
C6219 C6213 1.429 . S
C6219 C6220 1.523 . S
C6220 C6201 1.368 . S
C6220 C6214 1.368 . S
C6220 C6219 1.523 . S
C6221 C6205 1.429 . S
C6221 C6217 1.429 . S
C6221 C6222 1.523 . S
C6222 C6206 1.368 . S
C6222 C6218 1.368 . S
C6222 C6221 1.523 . S
H6223 C6198 0.950 . S
H6224 C6200 0.950 . S
H6225 C6201 0.949 . S
H6226 C6203 0.950 . S
H6227 C6205 0.950 . S
C6228 C6229 1.349 . S
C6228 C6230 1.327 . S
C6228 H6253 0.950 . S
C6229 C6228 1.349 . S
C6229 C6245 1.349 . S
C6230 C6228 1.327 . S
C6230 C6249 1.429 . S
C6230 H6254 0.950 . S
C6231 C6248 1.574 . S
C6231 C6250 1.368 . S
C6231 H6255 0.949 . S
H6232 C6236 0.949 . S
C6233 C6234 1.349 . S
C6233 C6235 1.327 . S
C6233 H6256 0.950 . S
C6234 C6233 1.349 . S
C6234 C6246 1.349 . S
C6235 C6233 1.327 . S
C6235 C6251 1.429 . S
C6235 H6257 0.950 . S
C6236 H6232 0.949 . S
C6236 C6244 1.574 . S
C6236 C6252 1.368 . S
H6237 C6245 0.950 . S
H6238 C6243 0.950 . S
H6239 C6244 0.949 . S
H6240 C6246 0.950 . S
H6241 C6247 0.950 . S
H6242 C6248 0.949 . S
C6243 H6238 0.950 . S
C6243 C6245 1.327 . S
C6243 C6249 1.429 . S
C6244 C6236 1.574 . S
C6244 H6239 0.949 . S
C6244 C6250 1.368 . S
C6245 C6229 1.349 . S
C6245 H6237 0.950 . S
C6245 C6243 1.327 . S
C6246 C6234 1.349 . S
C6246 H6240 0.950 . S
C6246 C6247 1.327 . S
C6247 H6241 0.950 . S
C6247 C6246 1.327 . S
C6247 C6251 1.429 . S
C6248 C6231 1.574 . S
C6248 H6242 0.949 . S
C6248 C6252 1.368 . S
C6249 C6230 1.429 . S
C6249 C6243 1.429 . S
C6249 C6250 1.523 . S
C6250 C6231 1.368 . S
C6250 C6244 1.368 . S
C6250 C6249 1.523 . S
C6251 C6235 1.429 . S
C6251 C6247 1.429 . S
C6251 C6252 1.523 . S
C6252 C6236 1.368 . S
C6252 C6248 1.368 . S
C6252 C6251 1.523 . S
H6253 C6228 0.950 . S
H6254 C6230 0.950 . S
H6255 C6231 0.949 . S
H6256 C6233 0.950 . S
H6257 C6235 0.950 . S
C6258 C6259 1.349 . S
C6258 C6260 1.327 . S
C6258 H6283 0.950 . S
C6259 C6258 1.349 . S
C6259 C6275 1.349 . S
C6260 C6258 1.327 . S
C6260 C6279 1.429 . S
C6260 H6284 0.950 . S
C6261 C6278 1.574 . S
C6261 C6280 1.368 . S
C6261 H6285 0.949 . S
H6262 C6266 0.949 . S
C6263 C6264 1.349 . S
C6263 C6265 1.327 . S
C6263 H6286 0.950 . S
C6264 C6263 1.349 . S
C6264 C6276 1.349 . S
C6265 C6263 1.327 . S
C6265 C6281 1.429 . S
C6265 H6287 0.950 . S
C6266 H6262 0.949 . S
C6266 C6274 1.574 . S
C6266 C6282 1.368 . S
H6267 C6275 0.950 . S
H6268 C6273 0.950 . S
H6269 C6274 0.949 . S
H6270 C6276 0.950 . S
H6271 C6277 0.950 . S
H6272 C6278 0.949 . S
C6273 H6268 0.950 . S
C6273 C6275 1.327 . S
C6273 C6279 1.429 . S
C6274 C6266 1.574 . S
C6274 H6269 0.949 . S
C6274 C6280 1.368 . S
C6275 C6259 1.349 . S
C6275 H6267 0.950 . S
C6275 C6273 1.327 . S
C6276 C6264 1.349 . S
C6276 H6270 0.950 . S
C6276 C6277 1.327 . S
C6277 H6271 0.950 . S
C6277 C6276 1.327 . S
C6277 C6281 1.429 . S
C6278 C6261 1.574 . S
C6278 H6272 0.949 . S
C6278 C6282 1.368 . S
C6279 C6260 1.429 . S
C6279 C6273 1.429 . S
C6279 C6280 1.523 . S
C6280 C6261 1.368 . S
C6280 C6274 1.368 . S
C6280 C6279 1.523 . S
C6281 C6265 1.429 . S
C6281 C6277 1.429 . S
C6281 C6282 1.523 . S
C6282 C6266 1.368 . S
C6282 C6278 1.368 . S
C6282 C6281 1.523 . S
H6283 C6258 0.950 . S
H6284 C6260 0.950 . S
H6285 C6261 0.949 . S
H6286 C6263 0.950 . S
H6287 C6265 0.950 . S
C6288 C6289 1.349 . S
C6288 C6290 1.327 . S
C6288 H6313 0.950 . S
C6289 C6288 1.349 . S
C6289 C6305 1.349 . S
C6290 C6288 1.327 . S
C6290 C6309 1.429 . S
C6290 H6314 0.950 . S
C6291 C6308 1.574 . S
C6291 C6310 1.368 . S
C6291 H6315 0.949 . S
H6292 C6296 0.949 . S
C6293 C6294 1.349 . S
C6293 C6295 1.327 . S
C6293 H6316 0.950 . S
C6294 C6293 1.349 . S
C6294 C6306 1.349 . S
C6295 C6293 1.327 . S
C6295 C6311 1.429 . S
C6295 H6317 0.950 . S
C6296 H6292 0.949 . S
C6296 C6304 1.574 . S
C6296 C6312 1.368 . S
H6297 C6305 0.950 . S
H6298 C6303 0.950 . S
H6299 C6304 0.949 . S
H6300 C6306 0.950 . S
H6301 C6307 0.950 . S
H6302 C6308 0.949 . S
C6303 H6298 0.950 . S
C6303 C6305 1.327 . S
C6303 C6309 1.429 . S
C6304 C6296 1.574 . S
C6304 H6299 0.949 . S
C6304 C6310 1.368 . S
C6305 C6289 1.349 . S
C6305 H6297 0.950 . S
C6305 C6303 1.327 . S
C6306 C6294 1.349 . S
C6306 H6300 0.950 . S
C6306 C6307 1.327 . S
C6307 H6301 0.950 . S
C6307 C6306 1.327 . S
C6307 C6311 1.429 . S
C6308 C6291 1.574 . S
C6308 H6302 0.949 . S
C6308 C6312 1.368 . S
C6309 C6290 1.429 . S
C6309 C6303 1.429 . S
C6309 C6310 1.523 . S
C6310 C6291 1.368 . S
C6310 C6304 1.368 . S
C6310 C6309 1.523 . S
C6311 C6295 1.429 . S
C6311 C6307 1.429 . S
C6311 C6312 1.523 . S
C6312 C6296 1.368 . S
C6312 C6308 1.368 . S
C6312 C6311 1.523 . S
H6313 C6288 0.950 . S
H6314 C6290 0.950 . S
H6315 C6291 0.949 . S
H6316 C6293 0.950 . S
H6317 C6295 0.950 . S
C6318 C6319 1.349 . S
C6318 C6320 1.327 . S
C6318 H6343 0.950 . S
C6319 C6318 1.349 . S
C6319 C6335 1.349 . S
C6320 C6318 1.327 . S
C6320 C6339 1.429 . S
C6320 H6344 0.950 . S
C6321 C6338 1.574 . S
C6321 C6340 1.368 . S
C6321 H6345 0.949 . S
H6322 C6326 0.949 . S
C6323 C6324 1.349 . S
C6323 C6325 1.327 . S
C6323 H6346 0.950 . S
C6324 C6323 1.349 . S
C6324 C6336 1.349 . S
C6325 C6323 1.327 . S
C6325 C6341 1.429 . S
C6325 H6347 0.950 . S
C6326 H6322 0.949 . S
C6326 C6334 1.574 . S
C6326 C6342 1.368 . S
H6327 C6335 0.950 . S
H6328 C6333 0.950 . S
H6329 C6334 0.949 . S
H6330 C6336 0.950 . S
H6331 C6337 0.950 . S
H6332 C6338 0.949 . S
C6333 H6328 0.950 . S
C6333 C6335 1.327 . S
C6333 C6339 1.429 . S
C6334 C6326 1.574 . S
C6334 H6329 0.949 . S
C6334 C6340 1.368 . S
C6335 C6319 1.349 . S
C6335 H6327 0.950 . S
C6335 C6333 1.327 . S
C6336 C6324 1.349 . S
C6336 H6330 0.950 . S
C6336 C6337 1.327 . S
C6337 H6331 0.950 . S
C6337 C6336 1.327 . S
C6337 C6341 1.429 . S
C6338 C6321 1.574 . S
C6338 H6332 0.949 . S
C6338 C6342 1.368 . S
C6339 C6320 1.429 . S
C6339 C6333 1.429 . S
C6339 C6340 1.523 . S
C6340 C6321 1.368 . S
C6340 C6334 1.368 . S
C6340 C6339 1.523 . S
C6341 C6325 1.429 . S
C6341 C6337 1.429 . S
C6341 C6342 1.523 . S
C6342 C6326 1.368 . S
C6342 C6338 1.368 . S
C6342 C6341 1.523 . S
H6343 C6318 0.950 . S
H6344 C6320 0.950 . S
H6345 C6321 0.949 . S
H6346 C6323 0.950 . S
H6347 C6325 0.950 . S
C6348 C6349 1.349 . S
C6348 C6350 1.327 . S
C6348 H6373 0.950 . S
C6349 C6348 1.349 . S
C6349 C6365 1.349 . S
C6350 C6348 1.327 . S
C6350 C6369 1.429 . S
C6350 H6374 0.950 . S
C6351 C6368 1.574 . S
C6351 C6370 1.368 . S
C6351 H6375 0.949 . S
H6352 C6356 0.949 . S
C6353 C6354 1.349 . S
C6353 C6355 1.327 . S
C6353 H6376 0.950 . S
C6354 C6353 1.349 . S
C6354 C6366 1.349 . S
C6355 C6353 1.327 . S
C6355 C6371 1.429 . S
C6355 H6377 0.950 . S
C6356 H6352 0.949 . S
C6356 C6364 1.574 . S
C6356 C6372 1.368 . S
H6357 C6365 0.950 . S
H6358 C6363 0.950 . S
H6359 C6364 0.949 . S
H6360 C6366 0.950 . S
H6361 C6367 0.950 . S
H6362 C6368 0.949 . S
C6363 H6358 0.950 . S
C6363 C6365 1.327 . S
C6363 C6369 1.429 . S
C6364 C6356 1.574 . S
C6364 H6359 0.949 . S
C6364 C6370 1.368 . S
C6365 C6349 1.349 . S
C6365 H6357 0.950 . S
C6365 C6363 1.327 . S
C6366 C6354 1.349 . S
C6366 H6360 0.950 . S
C6366 C6367 1.327 . S
C6367 H6361 0.950 . S
C6367 C6366 1.327 . S
C6367 C6371 1.429 . S
C6368 C6351 1.574 . S
C6368 H6362 0.949 . S
C6368 C6372 1.368 . S
C6369 C6350 1.429 . S
C6369 C6363 1.429 . S
C6369 C6370 1.523 . S
C6370 C6351 1.368 . S
C6370 C6364 1.368 . S
C6370 C6369 1.523 . S
C6371 C6355 1.429 . S
C6371 C6367 1.429 . S
C6371 C6372 1.523 . S
C6372 C6356 1.368 . S
C6372 C6368 1.368 . S
C6372 C6371 1.523 . S
H6373 C6348 0.950 . S
H6374 C6350 0.950 . S
H6375 C6351 0.949 . S
H6376 C6353 0.950 . S
H6377 C6355 0.950 . S
C6378 C6379 1.349 . S
C6378 C6380 1.327 . S
C6378 H6403 0.950 . S
C6379 C6378 1.349 . S
C6379 C6395 1.349 . S
C6380 C6378 1.327 . S
C6380 C6399 1.429 . S
C6380 H6404 0.950 . S
C6381 C6398 1.574 . S
C6381 C6400 1.368 . S
C6381 H6405 0.949 . S
H6382 C6386 0.949 . S
C6383 C6384 1.349 . S
C6383 C6385 1.327 . S
C6383 H6406 0.950 . S
C6384 C6383 1.349 . S
C6384 C6396 1.349 . S
C6385 C6383 1.327 . S
C6385 C6401 1.429 . S
C6385 H6407 0.950 . S
C6386 H6382 0.949 . S
C6386 C6394 1.574 . S
C6386 C6402 1.368 . S
H6387 C6395 0.950 . S
H6388 C6393 0.950 . S
H6389 C6394 0.949 . S
H6390 C6396 0.950 . S
H6391 C6397 0.950 . S
H6392 C6398 0.949 . S
C6393 H6388 0.950 . S
C6393 C6395 1.327 . S
C6393 C6399 1.429 . S
C6394 C6386 1.574 . S
C6394 H6389 0.949 . S
C6394 C6400 1.368 . S
C6395 C6379 1.349 . S
C6395 H6387 0.950 . S
C6395 C6393 1.327 . S
C6396 C6384 1.349 . S
C6396 H6390 0.950 . S
C6396 C6397 1.327 . S
C6397 H6391 0.950 . S
C6397 C6396 1.327 . S
C6397 C6401 1.429 . S
C6398 C6381 1.574 . S
C6398 H6392 0.949 . S
C6398 C6402 1.368 . S
C6399 C6380 1.429 . S
C6399 C6393 1.429 . S
C6399 C6400 1.523 . S
C6400 C6381 1.368 . S
C6400 C6394 1.368 . S
C6400 C6399 1.523 . S
C6401 C6385 1.429 . S
C6401 C6397 1.429 . S
C6401 C6402 1.523 . S
C6402 C6386 1.368 . S
C6402 C6398 1.368 . S
C6402 C6401 1.523 . S
H6403 C6378 0.950 . S
H6404 C6380 0.950 . S
H6405 C6381 0.949 . S
H6406 C6383 0.950 . S
H6407 C6385 0.950 . S
C6408 C6409 1.349 . S
C6408 C6410 1.327 . S
C6408 H6433 0.950 . S
C6409 C6408 1.349 . S
C6409 C6425 1.349 . S
C6410 C6408 1.327 . S
C6410 C6429 1.429 . S
C6410 H6434 0.950 . S
C6411 C6428 1.574 . S
C6411 C6430 1.368 . S
C6411 H6435 0.949 . S
H6412 C6416 0.949 . S
C6413 C6414 1.349 . S
C6413 C6415 1.327 . S
C6413 H6436 0.950 . S
C6414 C6413 1.349 . S
C6414 C6426 1.349 . S
C6415 C6413 1.327 . S
C6415 C6431 1.429 . S
C6415 H6437 0.950 . S
C6416 H6412 0.949 . S
C6416 C6424 1.574 . S
C6416 C6432 1.368 . S
H6417 C6425 0.950 . S
H6418 C6423 0.950 . S
H6419 C6424 0.949 . S
H6420 C6426 0.950 . S
H6421 C6427 0.950 . S
H6422 C6428 0.949 . S
C6423 H6418 0.950 . S
C6423 C6425 1.327 . S
C6423 C6429 1.429 . S
C6424 C6416 1.574 . S
C6424 H6419 0.949 . S
C6424 C6430 1.368 . S
C6425 C6409 1.349 . S
C6425 H6417 0.950 . S
C6425 C6423 1.327 . S
C6426 C6414 1.349 . S
C6426 H6420 0.950 . S
C6426 C6427 1.327 . S
C6427 H6421 0.950 . S
C6427 C6426 1.327 . S
C6427 C6431 1.429 . S
C6428 C6411 1.574 . S
C6428 H6422 0.949 . S
C6428 C6432 1.368 . S
C6429 C6410 1.429 . S
C6429 C6423 1.429 . S
C6429 C6430 1.523 . S
C6430 C6411 1.368 . S
C6430 C6424 1.368 . S
C6430 C6429 1.523 . S
C6431 C6415 1.429 . S
C6431 C6427 1.429 . S
C6431 C6432 1.523 . S
C6432 C6416 1.368 . S
C6432 C6428 1.368 . S
C6432 C6431 1.523 . S
H6433 C6408 0.950 . S
H6434 C6410 0.950 . S
H6435 C6411 0.949 . S
H6436 C6413 0.950 . S
H6437 C6415 0.950 . S
C6438 C6439 1.349 . S
C6438 C6440 1.327 . S
C6438 H6463 0.950 . S
C6439 C6438 1.349 . S
C6439 C6455 1.349 . S
C6440 C6438 1.327 . S
C6440 C6459 1.429 . S
C6440 H6464 0.950 . S
C6441 C6458 1.574 . S
C6441 C6460 1.368 . S
C6441 H6465 0.949 . S
H6442 C6446 0.949 . S
C6443 C6444 1.349 . S
C6443 C6445 1.327 . S
C6443 H6466 0.950 . S
C6444 C6443 1.349 . S
C6444 C6456 1.349 . S
C6445 C6443 1.327 . S
C6445 C6461 1.429 . S
C6445 H6467 0.950 . S
C6446 H6442 0.949 . S
C6446 C6454 1.574 . S
C6446 C6462 1.368 . S
H6447 C6455 0.950 . S
H6448 C6453 0.950 . S
H6449 C6454 0.949 . S
H6450 C6456 0.950 . S
H6451 C6457 0.950 . S
H6452 C6458 0.949 . S
C6453 H6448 0.950 . S
C6453 C6455 1.327 . S
C6453 C6459 1.429 . S
C6454 C6446 1.574 . S
C6454 H6449 0.949 . S
C6454 C6460 1.368 . S
C6455 C6439 1.349 . S
C6455 H6447 0.950 . S
C6455 C6453 1.327 . S
C6456 C6444 1.349 . S
C6456 H6450 0.950 . S
C6456 C6457 1.327 . S
C6457 H6451 0.950 . S
C6457 C6456 1.327 . S
C6457 C6461 1.429 . S
C6458 C6441 1.574 . S
C6458 H6452 0.949 . S
C6458 C6462 1.368 . S
C6459 C6440 1.429 . S
C6459 C6453 1.429 . S
C6459 C6460 1.523 . S
C6460 C6441 1.368 . S
C6460 C6454 1.368 . S
C6460 C6459 1.523 . S
C6461 C6445 1.429 . S
C6461 C6457 1.429 . S
C6461 C6462 1.523 . S
C6462 C6446 1.368 . S
C6462 C6458 1.368 . S
C6462 C6461 1.523 . S
H6463 C6438 0.950 . S
H6464 C6440 0.950 . S
H6465 C6441 0.949 . S
H6466 C6443 0.950 . S
H6467 C6445 0.950 . S
C6468 C6469 1.349 . S
C6468 C6470 1.327 . S
C6468 H6493 0.950 . S
C6469 C6468 1.349 . S
C6469 C6485 1.349 . S
C6470 C6468 1.327 . S
C6470 C6489 1.429 . S
C6470 H6494 0.950 . S
C6471 C6488 1.574 . S
C6471 C6490 1.368 . S
C6471 H6495 0.949 . S
H6472 C6476 0.949 . S
C6473 C6474 1.349 . S
C6473 C6475 1.327 . S
C6473 H6496 0.950 . S
C6474 C6473 1.349 . S
C6474 C6486 1.349 . S
C6475 C6473 1.327 . S
C6475 C6491 1.429 . S
C6475 H6497 0.950 . S
C6476 H6472 0.949 . S
C6476 C6484 1.574 . S
C6476 C6492 1.368 . S
H6477 C6485 0.950 . S
H6478 C6483 0.950 . S
H6479 C6484 0.949 . S
H6480 C6486 0.950 . S
H6481 C6487 0.950 . S
H6482 C6488 0.949 . S
C6483 H6478 0.950 . S
C6483 C6485 1.327 . S
C6483 C6489 1.429 . S
C6484 C6476 1.574 . S
C6484 H6479 0.949 . S
C6484 C6490 1.368 . S
C6485 C6469 1.349 . S
C6485 H6477 0.950 . S
C6485 C6483 1.327 . S
C6486 C6474 1.349 . S
C6486 H6480 0.950 . S
C6486 C6487 1.327 . S
C6487 H6481 0.950 . S
C6487 C6486 1.327 . S
C6487 C6491 1.429 . S
C6488 C6471 1.574 . S
C6488 H6482 0.949 . S
C6488 C6492 1.368 . S
C6489 C6470 1.429 . S
C6489 C6483 1.429 . S
C6489 C6490 1.523 . S
C6490 C6471 1.368 . S
C6490 C6484 1.368 . S
C6490 C6489 1.523 . S
C6491 C6475 1.429 . S
C6491 C6487 1.429 . S
C6491 C6492 1.523 . S
C6492 C6476 1.368 . S
C6492 C6488 1.368 . S
C6492 C6491 1.523 . S
H6493 C6468 0.950 . S
H6494 C6470 0.950 . S
H6495 C6471 0.949 . S
H6496 C6473 0.950 . S
H6497 C6475 0.950 . S
C6498 C6499 1.349 . S
C6498 C6500 1.327 . S
C6498 H6523 0.950 . S
C6499 C6498 1.349 . S
C6499 C6515 1.349 . S
C6500 C6498 1.327 . S
C6500 C6519 1.429 . S
C6500 H6524 0.950 . S
C6501 C6518 1.574 . S
C6501 C6520 1.368 . S
C6501 H6525 0.949 . S
H6502 C6506 0.949 . S
C6503 C6504 1.349 . S
C6503 C6505 1.327 . S
C6503 H6526 0.950 . S
C6504 C6503 1.349 . S
C6504 C6516 1.349 . S
C6505 C6503 1.327 . S
C6505 C6521 1.429 . S
C6505 H6527 0.950 . S
C6506 H6502 0.949 . S
C6506 C6514 1.574 . S
C6506 C6522 1.368 . S
H6507 C6515 0.950 . S
H6508 C6513 0.950 . S
H6509 C6514 0.949 . S
H6510 C6516 0.950 . S
H6511 C6517 0.950 . S
H6512 C6518 0.949 . S
C6513 H6508 0.950 . S
C6513 C6515 1.327 . S
C6513 C6519 1.429 . S
C6514 C6506 1.574 . S
C6514 H6509 0.949 . S
C6514 C6520 1.368 . S
C6515 C6499 1.349 . S
C6515 H6507 0.950 . S
C6515 C6513 1.327 . S
C6516 C6504 1.349 . S
C6516 H6510 0.950 . S
C6516 C6517 1.327 . S
C6517 H6511 0.950 . S
C6517 C6516 1.327 . S
C6517 C6521 1.429 . S
C6518 C6501 1.574 . S
C6518 H6512 0.949 . S
C6518 C6522 1.368 . S
C6519 C6500 1.429 . S
C6519 C6513 1.429 . S
C6519 C6520 1.523 . S
C6520 C6501 1.368 . S
C6520 C6514 1.368 . S
C6520 C6519 1.523 . S
C6521 C6505 1.429 . S
C6521 C6517 1.429 . S
C6521 C6522 1.523 . S
C6522 C6506 1.368 . S
C6522 C6518 1.368 . S
C6522 C6521 1.523 . S
H6523 C6498 0.950 . S
H6524 C6500 0.950 . S
H6525 C6501 0.949 . S
H6526 C6503 0.950 . S
H6527 C6505 0.950 . S
C6528 C6529 1.349 . S
C6528 C6530 1.327 . S
C6528 H6553 0.950 . S
C6529 C6528 1.349 . S
C6529 C6545 1.349 . S
C6530 C6528 1.327 . S
C6530 C6549 1.429 . S
C6530 H6554 0.950 . S
C6531 C6548 1.574 . S
C6531 C6550 1.368 . S
C6531 H6555 0.949 . S
H6532 C6536 0.949 . S
C6533 C6534 1.349 . S
C6533 C6535 1.327 . S
C6533 H6556 0.950 . S
C6534 C6533 1.349 . S
C6534 C6546 1.349 . S
C6535 C6533 1.327 . S
C6535 C6551 1.429 . S
C6535 H6557 0.950 . S
C6536 H6532 0.949 . S
C6536 C6544 1.574 . S
C6536 C6552 1.368 . S
H6537 C6545 0.950 . S
H6538 C6543 0.950 . S
H6539 C6544 0.949 . S
H6540 C6546 0.950 . S
H6541 C6547 0.950 . S
H6542 C6548 0.949 . S
C6543 H6538 0.950 . S
C6543 C6545 1.327 . S
C6543 C6549 1.429 . S
C6544 C6536 1.574 . S
C6544 H6539 0.949 . S
C6544 C6550 1.368 . S
C6545 C6529 1.349 . S
C6545 H6537 0.950 . S
C6545 C6543 1.327 . S
C6546 C6534 1.349 . S
C6546 H6540 0.950 . S
C6546 C6547 1.327 . S
C6547 H6541 0.950 . S
C6547 C6546 1.327 . S
C6547 C6551 1.429 . S
C6548 C6531 1.574 . S
C6548 H6542 0.949 . S
C6548 C6552 1.368 . S
C6549 C6530 1.429 . S
C6549 C6543 1.429 . S
C6549 C6550 1.523 . S
C6550 C6531 1.368 . S
C6550 C6544 1.368 . S
C6550 C6549 1.523 . S
C6551 C6535 1.429 . S
C6551 C6547 1.429 . S
C6551 C6552 1.523 . S
C6552 C6536 1.368 . S
C6552 C6548 1.368 . S
C6552 C6551 1.523 . S
H6553 C6528 0.950 . S
H6554 C6530 0.950 . S
H6555 C6531 0.949 . S
H6556 C6533 0.950 . S
H6557 C6535 0.950 . S
C6558 C6559 1.349 . S
C6558 C6560 1.327 . S
C6558 H6583 0.950 . S
C6559 C6558 1.349 . S
C6559 C6575 1.349 . S
C6560 C6558 1.327 . S
C6560 C6579 1.429 . S
C6560 H6584 0.950 . S
C6561 C6578 1.574 . S
C6561 C6580 1.368 . S
C6561 H6585 0.949 . S
H6562 C6566 0.949 . S
C6563 C6564 1.349 . S
C6563 C6565 1.327 . S
C6563 H6586 0.950 . S
C6564 C6563 1.349 . S
C6564 C6576 1.349 . S
C6565 C6563 1.327 . S
C6565 C6581 1.429 . S
C6565 H6587 0.950 . S
C6566 H6562 0.949 . S
C6566 C6574 1.574 . S
C6566 C6582 1.368 . S
H6567 C6575 0.950 . S
H6568 C6573 0.950 . S
H6569 C6574 0.949 . S
H6570 C6576 0.950 . S
H6571 C6577 0.950 . S
H6572 C6578 0.949 . S
C6573 H6568 0.950 . S
C6573 C6575 1.327 . S
C6573 C6579 1.429 . S
C6574 C6566 1.574 . S
C6574 H6569 0.949 . S
C6574 C6580 1.368 . S
C6575 C6559 1.349 . S
C6575 H6567 0.950 . S
C6575 C6573 1.327 . S
C6576 C6564 1.349 . S
C6576 H6570 0.950 . S
C6576 C6577 1.327 . S
C6577 H6571 0.950 . S
C6577 C6576 1.327 . S
C6577 C6581 1.429 . S
C6578 C6561 1.574 . S
C6578 H6572 0.949 . S
C6578 C6582 1.368 . S
C6579 C6560 1.429 . S
C6579 C6573 1.429 . S
C6579 C6580 1.523 . S
C6580 C6561 1.368 . S
C6580 C6574 1.368 . S
C6580 C6579 1.523 . S
C6581 C6565 1.429 . S
C6581 C6577 1.429 . S
C6581 C6582 1.523 . S
C6582 C6566 1.368 . S
C6582 C6578 1.368 . S
C6582 C6581 1.523 . S
H6583 C6558 0.950 . S
H6584 C6560 0.950 . S
H6585 C6561 0.949 . S
H6586 C6563 0.950 . S
H6587 C6565 0.950 . S
C6588 C6589 1.349 . S
C6588 C6590 1.327 . S
C6588 H6613 0.950 . S
C6589 C6588 1.349 . S
C6589 C6605 1.349 . S
C6590 C6588 1.327 . S
C6590 C6609 1.429 . S
C6590 H6614 0.950 . S
C6591 C6608 1.574 . S
C6591 C6610 1.368 . S
C6591 H6615 0.949 . S
H6592 C6596 0.949 . S
C6593 C6594 1.349 . S
C6593 C6595 1.327 . S
C6593 H6616 0.950 . S
C6594 C6593 1.349 . S
C6594 C6606 1.349 . S
C6595 C6593 1.327 . S
C6595 C6611 1.429 . S
C6595 H6617 0.950 . S
C6596 H6592 0.949 . S
C6596 C6604 1.574 . S
C6596 C6612 1.368 . S
H6597 C6605 0.950 . S
H6598 C6603 0.950 . S
H6599 C6604 0.949 . S
H6600 C6606 0.950 . S
H6601 C6607 0.950 . S
H6602 C6608 0.949 . S
C6603 H6598 0.950 . S
C6603 C6605 1.327 . S
C6603 C6609 1.429 . S
C6604 C6596 1.574 . S
C6604 H6599 0.949 . S
C6604 C6610 1.368 . S
C6605 C6589 1.349 . S
C6605 H6597 0.950 . S
C6605 C6603 1.327 . S
C6606 C6594 1.349 . S
C6606 H6600 0.950 . S
C6606 C6607 1.327 . S
C6607 H6601 0.950 . S
C6607 C6606 1.327 . S
C6607 C6611 1.429 . S
C6608 C6591 1.574 . S
C6608 H6602 0.949 . S
C6608 C6612 1.368 . S
C6609 C6590 1.429 . S
C6609 C6603 1.429 . S
C6609 C6610 1.523 . S
C6610 C6591 1.368 . S
C6610 C6604 1.368 . S
C6610 C6609 1.523 . S
C6611 C6595 1.429 . S
C6611 C6607 1.429 . S
C6611 C6612 1.523 . S
C6612 C6596 1.368 . S
C6612 C6608 1.368 . S
C6612 C6611 1.523 . S
H6613 C6588 0.950 . S
H6614 C6590 0.950 . S
H6615 C6591 0.949 . S
H6616 C6593 0.950 . S
H6617 C6595 0.950 . S
C6618 C6619 1.349 . S
C6618 C6620 1.327 . S
C6618 H6643 0.950 . S
C6619 C6618 1.349 . S
C6619 C6635 1.349 . S
C6620 C6618 1.327 . S
C6620 C6639 1.429 . S
C6620 H6644 0.950 . S
C6621 C6638 1.574 . S
C6621 C6640 1.368 . S
C6621 H6645 0.949 . S
H6622 C6626 0.949 . S
C6623 C6624 1.349 . S
C6623 C6625 1.327 . S
C6623 H6646 0.950 . S
C6624 C6623 1.349 . S
C6624 C6636 1.349 . S
C6625 C6623 1.327 . S
C6625 C6641 1.429 . S
C6625 H6647 0.950 . S
C6626 H6622 0.949 . S
C6626 C6634 1.574 . S
C6626 C6642 1.368 . S
H6627 C6635 0.950 . S
H6628 C6633 0.950 . S
H6629 C6634 0.949 . S
H6630 C6636 0.950 . S
H6631 C6637 0.950 . S
H6632 C6638 0.949 . S
C6633 H6628 0.950 . S
C6633 C6635 1.327 . S
C6633 C6639 1.429 . S
C6634 C6626 1.574 . S
C6634 H6629 0.949 . S
C6634 C6640 1.368 . S
C6635 C6619 1.349 . S
C6635 H6627 0.950 . S
C6635 C6633 1.327 . S
C6636 C6624 1.349 . S
C6636 H6630 0.950 . S
C6636 C6637 1.327 . S
C6637 H6631 0.950 . S
C6637 C6636 1.327 . S
C6637 C6641 1.429 . S
C6638 C6621 1.574 . S
C6638 H6632 0.949 . S
C6638 C6642 1.368 . S
C6639 C6620 1.429 . S
C6639 C6633 1.429 . S
C6639 C6640 1.523 . S
C6640 C6621 1.368 . S
C6640 C6634 1.368 . S
C6640 C6639 1.523 . S
C6641 C6625 1.429 . S
C6641 C6637 1.429 . S
C6641 C6642 1.523 . S
C6642 C6626 1.368 . S
C6642 C6638 1.368 . S
C6642 C6641 1.523 . S
H6643 C6618 0.950 . S
H6644 C6620 0.950 . S
H6645 C6621 0.949 . S
H6646 C6623 0.950 . S
H6647 C6625 0.950 . S
C6648 C6649 1.349 . S
C6648 C6650 1.327 . S
C6648 H6673 0.950 . S
C6649 C6648 1.349 . S
C6649 C6665 1.349 . S
C6650 C6648 1.327 . S
C6650 C6669 1.429 . S
C6650 H6674 0.950 . S
C6651 C6668 1.574 . S
C6651 C6670 1.368 . S
C6651 H6675 0.949 . S
H6652 C6656 0.949 . S
C6653 C6654 1.349 . S
C6653 C6655 1.327 . S
C6653 H6676 0.950 . S
C6654 C6653 1.349 . S
C6654 C6666 1.349 . S
C6655 C6653 1.327 . S
C6655 C6671 1.429 . S
C6655 H6677 0.950 . S
C6656 H6652 0.949 . S
C6656 C6664 1.574 . S
C6656 C6672 1.368 . S
H6657 C6665 0.950 . S
H6658 C6663 0.950 . S
H6659 C6664 0.949 . S
H6660 C6666 0.950 . S
H6661 C6667 0.950 . S
H6662 C6668 0.949 . S
C6663 H6658 0.950 . S
C6663 C6665 1.327 . S
C6663 C6669 1.429 . S
C6664 C6656 1.574 . S
C6664 H6659 0.949 . S
C6664 C6670 1.368 . S
C6665 C6649 1.349 . S
C6665 H6657 0.950 . S
C6665 C6663 1.327 . S
C6666 C6654 1.349 . S
C6666 H6660 0.950 . S
C6666 C6667 1.327 . S
C6667 H6661 0.950 . S
C6667 C6666 1.327 . S
C6667 C6671 1.429 . S
C6668 C6651 1.574 . S
C6668 H6662 0.949 . S
C6668 C6672 1.368 . S
C6669 C6650 1.429 . S
C6669 C6663 1.429 . S
C6669 C6670 1.523 . S
C6670 C6651 1.368 . S
C6670 C6664 1.368 . S
C6670 C6669 1.523 . S
C6671 C6655 1.429 . S
C6671 C6667 1.429 . S
C6671 C6672 1.523 . S
C6672 C6656 1.368 . S
C6672 C6668 1.368 . S
C6672 C6671 1.523 . S
H6673 C6648 0.950 . S
H6674 C6650 0.950 . S
H6675 C6651 0.949 . S
H6676 C6653 0.950 . S
H6677 C6655 0.950 . S
C6678 C6679 1.349 . S
C6678 C6680 1.327 . S
C6678 H6703 0.950 . S
C6679 C6678 1.349 . S
C6679 C6695 1.349 . S
C6680 C6678 1.327 . S
C6680 C6699 1.429 . S
C6680 H6704 0.950 . S
C6681 C6698 1.574 . S
C6681 C6700 1.368 . S
C6681 H6705 0.949 . S
H6682 C6686 0.949 . S
C6683 C6684 1.349 . S
C6683 C6685 1.327 . S
C6683 H6706 0.950 . S
C6684 C6683 1.349 . S
C6684 C6696 1.349 . S
C6685 C6683 1.327 . S
C6685 C6701 1.429 . S
C6685 H6707 0.950 . S
C6686 H6682 0.949 . S
C6686 C6694 1.574 . S
C6686 C6702 1.368 . S
H6687 C6695 0.950 . S
H6688 C6693 0.950 . S
H6689 C6694 0.949 . S
H6690 C6696 0.950 . S
H6691 C6697 0.950 . S
H6692 C6698 0.949 . S
C6693 H6688 0.950 . S
C6693 C6695 1.327 . S
C6693 C6699 1.429 . S
C6694 C6686 1.574 . S
C6694 H6689 0.949 . S
C6694 C6700 1.368 . S
C6695 C6679 1.349 . S
C6695 H6687 0.950 . S
C6695 C6693 1.327 . S
C6696 C6684 1.349 . S
C6696 H6690 0.950 . S
C6696 C6697 1.327 . S
C6697 H6691 0.950 . S
C6697 C6696 1.327 . S
C6697 C6701 1.429 . S
C6698 C6681 1.574 . S
C6698 H6692 0.949 . S
C6698 C6702 1.368 . S
C6699 C6680 1.429 . S
C6699 C6693 1.429 . S
C6699 C6700 1.523 . S
C6700 C6681 1.368 . S
C6700 C6694 1.368 . S
C6700 C6699 1.523 . S
C6701 C6685 1.429 . S
C6701 C6697 1.429 . S
C6701 C6702 1.523 . S
C6702 C6686 1.368 . S
C6702 C6698 1.368 . S
C6702 C6701 1.523 . S
H6703 C6678 0.950 . S
H6704 C6680 0.950 . S
H6705 C6681 0.949 . S
H6706 C6683 0.950 . S
H6707 C6685 0.950 . S
C6708 C6709 1.349 . S
C6708 C6710 1.327 . S
C6708 H6733 0.950 . S
C6709 C6708 1.349 . S
C6709 C6725 1.349 . S
C6710 C6708 1.327 . S
C6710 C6729 1.429 . S
C6710 H6734 0.950 . S
C6711 C6728 1.574 . S
C6711 C6730 1.368 . S
C6711 H6735 0.949 . S
H6712 C6716 0.949 . S
C6713 C6714 1.349 . S
C6713 C6715 1.327 . S
C6713 H6736 0.950 . S
C6714 C6713 1.349 . S
C6714 C6726 1.349 . S
C6715 C6713 1.327 . S
C6715 C6731 1.429 . S
C6715 H6737 0.950 . S
C6716 H6712 0.949 . S
C6716 C6724 1.574 . S
C6716 C6732 1.368 . S
H6717 C6725 0.950 . S
H6718 C6723 0.950 . S
H6719 C6724 0.949 . S
H6720 C6726 0.950 . S
H6721 C6727 0.950 . S
H6722 C6728 0.949 . S
C6723 H6718 0.950 . S
C6723 C6725 1.327 . S
C6723 C6729 1.429 . S
C6724 C6716 1.574 . S
C6724 H6719 0.949 . S
C6724 C6730 1.368 . S
C6725 C6709 1.349 . S
C6725 H6717 0.950 . S
C6725 C6723 1.327 . S
C6726 C6714 1.349 . S
C6726 H6720 0.950 . S
C6726 C6727 1.327 . S
C6727 H6721 0.950 . S
C6727 C6726 1.327 . S
C6727 C6731 1.429 . S
C6728 C6711 1.574 . S
C6728 H6722 0.949 . S
C6728 C6732 1.368 . S
C6729 C6710 1.429 . S
C6729 C6723 1.429 . S
C6729 C6730 1.523 . S
C6730 C6711 1.368 . S
C6730 C6724 1.368 . S
C6730 C6729 1.523 . S
C6731 C6715 1.429 . S
C6731 C6727 1.429 . S
C6731 C6732 1.523 . S
C6732 C6716 1.368 . S
C6732 C6728 1.368 . S
C6732 C6731 1.523 . S
H6733 C6708 0.950 . S
H6734 C6710 0.950 . S
H6735 C6711 0.949 . S
H6736 C6713 0.950 . S
H6737 C6715 0.950 . S
C6738 C6739 1.349 . S
C6738 C6740 1.327 . S
C6738 H6763 0.950 . S
C6739 C6738 1.349 . S
C6739 C6755 1.349 . S
C6740 C6738 1.327 . S
C6740 C6759 1.429 . S
C6740 H6764 0.950 . S
C6741 C6758 1.574 . S
C6741 C6760 1.368 . S
C6741 H6765 0.949 . S
H6742 C6746 0.949 . S
C6743 C6744 1.349 . S
C6743 C6745 1.327 . S
C6743 H6766 0.950 . S
C6744 C6743 1.349 . S
C6744 C6756 1.349 . S
C6745 C6743 1.327 . S
C6745 C6761 1.429 . S
C6745 H6767 0.950 . S
C6746 H6742 0.949 . S
C6746 C6754 1.574 . S
C6746 C6762 1.368 . S
H6747 C6755 0.950 . S
H6748 C6753 0.950 . S
H6749 C6754 0.949 . S
H6750 C6756 0.950 . S
H6751 C6757 0.950 . S
H6752 C6758 0.949 . S
C6753 H6748 0.950 . S
C6753 C6755 1.327 . S
C6753 C6759 1.429 . S
C6754 C6746 1.574 . S
C6754 H6749 0.949 . S
C6754 C6760 1.368 . S
C6755 C6739 1.349 . S
C6755 H6747 0.950 . S
C6755 C6753 1.327 . S
C6756 C6744 1.349 . S
C6756 H6750 0.950 . S
C6756 C6757 1.327 . S
C6757 H6751 0.950 . S
C6757 C6756 1.327 . S
C6757 C6761 1.429 . S
C6758 C6741 1.574 . S
C6758 H6752 0.949 . S
C6758 C6762 1.368 . S
C6759 C6740 1.429 . S
C6759 C6753 1.429 . S
C6759 C6760 1.523 . S
C6760 C6741 1.368 . S
C6760 C6754 1.368 . S
C6760 C6759 1.523 . S
C6761 C6745 1.429 . S
C6761 C6757 1.429 . S
C6761 C6762 1.523 . S
C6762 C6746 1.368 . S
C6762 C6758 1.368 . S
C6762 C6761 1.523 . S
H6763 C6738 0.950 . S
H6764 C6740 0.950 . S
H6765 C6741 0.949 . S
H6766 C6743 0.950 . S
H6767 C6745 0.950 . S
C2449 C1781 1.404 . S
C2454 C1925 1.383 . S
C2479 C981 1.165 . S
C2484 C1936 1.163 . S
C2514 C1947 1.561 . S
C2509 C1861 1.576 . S
C2539 C1061 1.719 . S
C2544 C1958 1.793 . S
C2569 C1901 1.717 . S
C2574 C1969 1.676 . S
C2599 C941 1.512 . S
C2604 C1980 1.491 . S
C2629 C1821 1.145 . S
C2634 C1991 1.142 . S
C2659 C1021 1.529 . S
C2664 C2002 1.511 . S
C2689 C661 1.826 . S
C2694 C2013 1.794 . S
C2719 C1621 1.650 . S
C2724 C2024 1.637 . S
C2749 C741 1.690 . S
C2754 C2035 1.720 . S
C2779 C1581 1.686 . S
C2784 C2046 1.702 . S
C2809 C901 1.740 . S
C2814 C2057 1.740 . S
C2844 C2068 1.712 . S
C2839 C1661 1.678 . S
C2874 C2079 1.977 . S
C2869 C821 1.878 . S
C2899 C1141 1.489 . S
C2904 C2090 1.505 . S
C2934 C2101 1.444 . S
C2929 C781 1.443 . S
C2964 C2112 1.644 . S
C2959 C1701 1.551 . S
C2989 C861 1.673 . S
C2994 C2123 1.707 . S
C3019 C1181 1.952 . S
C3024 C2134 2.025 . S
C3054 C2145 1.801 . S
C3049 C1101 1.830 . S
C3079 C1421 1.448 . S
C3084 C2156 1.431 . S
C3114 C2167 1.651 . S
C3109 C381 1.680 . S
C3144 C2178 1.522 . S
C3139 C1501 1.549 . S
C3174 C2189 1.349 . S
C3169 C461 1.326 . S
C3204 C2200 1.538 . S
C3199 C1541 1.486 . S
C3229 C341 1.445 . S
C3234 C2211 1.435 . S
C3264 C2222 1.773 . S
C3259 C1461 1.801 . S
C3289 C421 1.491 . S
C3294 C2233 1.460 . S
C3324 C2244 1.851 . S
C3319 C61 1.830 . S
C3354 C2255 1.551 . S
C3349 C1261 1.566 . S
C3379 C141 1.821 . S
C3384 C2266 1.790 . S
C3414 C2277 1.727 . S
C3409 C1221 1.718 . S
C3444 C2288 1.807 . S
C3439 C301 1.716 . S
C3469 C1301 1.490 . S
C3474 C2299 1.449 . S
C3504 C2310 1.785 . S
C3499 C221 1.769 . S
C3534 C2321 1.361 . S
C3529 C541 1.423 . S
C3559 C181 1.452 . S
C3564 C2332 1.411 . S
C3594 C2343 1.715 . S
C3589 C1341 1.685 . S
C3619 C261 1.704 . S
C3624 C2354 1.656 . S
C3654 C2365 1.859 . S
C3649 C581 1.880 . S
C3679 C501 1.814 . S
C3684 C2376 1.830 . S
C3709 C701 1.565 . S
C3714 C2387 1.549 . S
C3744 C2398 1.778 . S
C3739 C621 1.757 . S
C3769 C1741 1.938 . S
C3774 C2409 1.951 . S
C3799 C101 1.487 . S
C3804 C2420 1.490 . S
C3834 C2431 1.832 . S
C3829 C21 1.801 . S
C3864 C2442 1.949 . S
C3859 C1381 1.858 . S
C3889 C1335 1.949 . S
C3894 C1930 1.974 . S
C3919 C535 1.393 . S
C3924 C1941 1.384 . S
C3949 C1362 1.897 . S
C3954 C1946 1.984 . S
C3984 C1957 1.634 . S
C3979 C1295 1.623 . S
C4009 C575 1.646 . S
C4014 C1974 1.635 . S
C4039 C1215 1.584 . S
C4044 C1979 1.562 . S
C4074 C1990 1.513 . S
C4069 C495 1.520 . S
C4099 C1242 1.520 . S
C4104 C2007 1.502 . S
C4129 C1255 1.712 . S
C4134 C2018 1.688 . S
C4164 C2029 1.458 . S
C4159 C562 1.491 . S
C4189 C1202 1.758 . S
C4194 C2034 1.792 . S
C4224 C2051 1.467 . S
C4219 C482 1.456 . S
C4249 C522 1.507 . S
C4254 C2062 1.490 . S
C4279 C1375 2.109 . S
C4284 C2067 2.121 . S
C4314 C2084 1.630 . S
C4309 C1282 1.642 . S
C4344 C2089 2.165 . S
C4339 C1322 2.168 . S
C4369 C455 1.556 . S
C4374 C2045 1.549 . S
C4399 C1415 1.912 . S
C4404 C2106 1.884 . S
C4429 C1455 1.727 . S
C4434 C2111 1.772 . S
C4464 C2128 1.851 . S
C4459 C1482 1.914 . S
C4494 C2056 1.481 . S
C4489 C442 1.473 . S
C4519 C362 1.980 . S
C4524 C2023 1.969 . S
C4549 C1495 1.726 . S
C4554 C2139 1.730 . S
C4584 C2144 1.590 . S
C4579 C1402 1.608 . S
C4614 C2155 1.694 . S
C4609 C1695 1.706 . S
C4639 C1135 1.466 . S
C4644 C2166 1.465 . S
C4674 C2183 1.891 . S
C4669 C1722 1.905 . S
C4704 C2194 1.664 . S
C4699 C1655 1.645 . S
C4729 C1175 1.806 . S
C4734 C2205 1.836 . S
C4759 C1562 1.599 . S
C4764 C2216 1.607 . S
C4789 C1095 1.546 . S
C4794 C2227 1.527 . S
C4824 C2232 1.707 . S
C4819 C1615 1.744 . S
C4854 C2249 2.002 . S
C4849 C1602 2.004 1_655 S
C4879 C1162 1.588 . S
C4884 C2254 1.635 . S
C4914 C2265 1.588 . S
C4909 C1575 1.583 . S
C4939 C1082 1.639 . S
C4944 C2282 1.620 . S
C4974 C2293 1.595 . S
C4969 C1122 1.572 . S
C4999 C1735 2.136 . S
C5004 C2298 2.129 . S
C5034 C2315 1.585 . S
C5029 C1642 1.517 . S
C5059 C1682 1.781 . S
C5064 C2320 1.796 . S
C5089 C1042 2.054 . S
C5094 C2276 2.117 1_545 S
C5119 C1775 1.873 . S
C5124 C2337 1.832 . S
C5149 C1815 1.134 . S
C5154 C2342 1.116 . S
C5184 C2359 1.782 . S
C5179 C1842 1.802 . S
C5209 C1055 1.712 . S
C5214 C2287 1.750 . S
C5239 C975 1.384 . S
C5244 C2260 1.391 . S
C5274 C2370 1.605 . S
C5269 C1855 1.622 . S
C5299 C1762 1.488 . S
C5304 C2375 1.485 . S
C5334 C1985 1.914 . S
C5329 C215 1.881 . S
C5364 C1996 1.514 . S
C5359 C255 1.507 . S
C5394 C2001 1.973 . S
C5389 C282 1.914 . S
C5424 C1968 1.509 . S
C5419 C175 1.504 . S
C5454 C1963 1.579 . S
C5449 C135 1.604 . S
C5479 C15 1.690 . S
C5484 C1924 1.657 . S
C5509 C55 1.528 . S
C5514 C1935 1.511 . S
C5539 C82 1.504 . S
C5544 C1952 1.502 . S
C5569 C95 1.641 . S
C5574 C2150 1.617 . S
C5599 C122 1.482 . S
C5604 C2392 1.434 . S
C5629 C2 1.842 . S
C5634 C2133 1.894 . S
C5659 C42 1.444 . S
C5664 C2403 1.464 . S
C5689 C242 1.582 . S
C5694 C2414 1.569 . S
C5724 C2100 2.073 . S
C5719 C295 2.069 . S
C5749 C162 1.500 . S
C5754 C2117 1.491 . S
C5779 C202 2.358 . S
C5784 C2122 2.358 . S
C5814 C2397 2.007 . S
C5809 C1535 1.977 . S
C5839 C335 2.007 . S
C5844 C2073 1.971 . S
C5869 C375 1.888 . S
C5874 C2078 1.943 . S
C5899 C402 1.807 . S
C5904 C2095 1.752 . S
C5934 C2408 1.972 . S
C5929 C1522 1.878 . S
C5964 C2386 2.008 . S
C5959 C1442 2.028 . S
C5994 C2040 1.602 . S
C5989 C415 1.602 . S
C6019 C322 1.652 . S
C6024 C2012 1.639 . S
C6049 C815 1.705 . S
C6054 C2210 1.730 . S
C6079 C855 1.610 . S
C6084 C2221 1.619 . S
C6109 C882 2.005 . S
C6114 C2238 2.000 . S
C6139 C775 1.504 . S
C6144 C2199 1.509 . S
C6174 C2188 1.907 . S
C6169 C735 1.902 . S
C6204 C2161 1.645 . S
C6199 C602 1.651 . S
C6234 C2172 1.448 . S
C6229 C655 1.471 . S
C6259 C695 1.757 . S
C6264 C2177 1.736 . S
C6294 C2381 2.003 . S
C6289 C682 2.002 . S
C6319 C722 1.332 . S
C6324 C2419 1.349 . S
C6349 C615 1.760 . S
C6354 C2364 1.762 . S
C6384 C2436 1.492 . S
C6379 C642 1.504 . S
C6409 C842 1.583 . S
C6414 C2447 1.633 . S
C6444 C2331 2.192 . S
C6439 C895 2.193 . S
C6469 C762 1.475 . S
C6474 C2348 1.525 . S
C6499 C802 1.972 . S
C6504 C2353 2.017 . S
C6529 C1895 2.023 . S
C6534 C2430 2.029 . S
C6564 C2304 1.910 . S
C6559 C935 1.954 . S
C6589 C962 1.323 . S
C6594 C2309 1.322 . S
C6619 C1002 1.773 . S
C6624 C2326 1.756 . S
C6649 C1882 1.933 . S
C6654 C2441 1.934 . S
C6679 C1802 1.194 . S
C6684 C2425 1.195 . S
C6714 C2271 1.564 . S
C6709 C1015 1.576 . S
C6744 C2243 1.564 . S
C6739 C922 1.567 . S
