# Generated by pormake.
# Topology pth, (4,4)-cn, num edge types: 1
# Building blocks:
#     Node 0, Type 0, BuildingBlock: TATPOV_clean_sbu_0, # of connection points: 4
#     Node 1, Type 0, BuildingBlock: TATPOV_clean_sbu_0, # of connection points: 4
#     Node 2, Type 0, BuildingBlock: TATPOV_clean_sbu_0, # of connection points: 4
#     Node 3, Type 1, BuildingBlock: NAWXER_clean_linker_0, # of connection points: 4
#     Node 4, Type 1, BuildingBlock: NAWXER_clean_linker_0, # of connection points: 4
#     Node 5, Type 1, BuildingBlock: NAWXER_clean_linker_0, # of connection points: 4
#     Edge 6, Type (0, 1), BuildingBlock: XIVTED_clean_linker_0, # of connection points: 2
#     Edge 7, Type (0, 1), BuildingBlock: XIVTED_clean_linker_0, # of connection points: 2
#     Edge 8, Type (0, 1), BuildingBlock: XIVTED_clean_linker_0, # of connection points: 2
#     Edge 9, Type (0, 1), BuildingBlock: XIVTED_clean_linker_0, # of connection points: 2
#     Edge 10, Type (0, 1), BuildingBlock: XIVTED_clean_linker_0, # of connection points: 2
#     Edge 11, Type (0, 1), BuildingBlock: XIVTED_clean_linker_0, # of connection points: 2
#     Edge 12, Type (0, 1), BuildingBlock: XIVTED_clean_linker_0, # of connection points: 2
#     Edge 13, Type (0, 1), BuildingBlock: XIVTED_clean_linker_0, # of connection points: 2
#     Edge 14, Type (0, 1), BuildingBlock: XIVTED_clean_linker_0, # of connection points: 2
#     Edge 15, Type (0, 1), BuildingBlock: XIVTED_clean_linker_0, # of connection points: 2
#     Edge 16, Type (0, 1), BuildingBlock: XIVTED_clean_linker_0, # of connection points: 2
#     Edge 17, Type (0, 1), BuildingBlock: XIVTED_clean_linker_0, # of connection points: 2
# Relax obj value: 0.037
# Max RMSD: 0.160
# Mean RMSD: 0.080
data_MOF--net-pth--node1-TATPOV_clean_sbu_0--node2-NAWXER_clean_linker_0--edge1-XIVTED_clean_linker_0
_symmetry_space_group_name_H-M    P1
_symmetry_Int_Tables_number       1
_symmetry_cell_setting            triclinic
loop_
_symmetry_equiv_pos_as_xyz
'x, y, z'
_cell_length_a     29.294085
_cell_length_b     29.304203
_cell_length_c     63.93742
_cell_angle_alpha  92.658332
_cell_angle_beta   92.269451
_cell_angle_gamma 120.73256
loop_
_atom_site_label
_atom_site_type_symbol
_atom_site_fract_x
_atom_site_fract_y
_atom_site_fract_z
_atom_type_partial_charge
Zn0 Zn 0.13446 -0.00257 0.03171 0.0
Zn1 Zn 0.09085 0.04399 0.0526 0.0
O2 O 0.10059 -0.00178 0.0741 0.0
O3 O 0.14188 0.96418 0.05738 0.0
O4 O 0.06928 0.08811 0.06999 0.0
O5 O 0.19367 0.06593 0.02252 0.0
O6 O 0.15547 0.10341 0.03913 0.0
C7 C 0.12136 0.9691 0.07375 0.0
C8 C 0.02676 0.96627 0.01562 0.0
O9 O 0.02925 -0.0016 0.0304 0.0
O10 O 0.06559 0.95922 0.01339 0.0
C11 C 0.02292 0.07542 0.075 0.0
O12 O 0.98225 0.02809 0.06872 0.0
C13 C 0.19161 0.10699 0.02767 0.0
Zn14 Zn 0.13361 0.07777 0.35148 0.0
Zn15 Zn 0.06406 0.06409 0.38004 0.0
O16 O 0.13159 0.08122 0.39804 0.0
O17 O 0.1854 0.08277 0.37462 0.0
O18 O 0.01206 0.06028 0.40074 0.0
O19 O 0.13473 0.14239 0.34156 0.0
O20 O 0.06803 0.12112 0.36139 0.0
C21 C 0.17535 0.08503 0.3936 0.0
C22 C 0.03608 0.97479 0.34703 0.0
O23 O 0.02665 -0.01024 0.36452 0.0
O24 O 0.07714 0.00579 0.33787 0.0
C25 C 0.02012 0.06556 0.42064 0.0
O26 O 0.06488 0.07242 0.42922 0.0
C27 C 0.09786 0.14928 0.34752 0.0
Zn28 Zn 0.08545 0.91362 0.74131 0.0
Zn29 Zn 0.04081 0.95652 0.71805 0.0
O30 O 0.08718 0.94398 0.69776 0.0
O31 O 0.12164 0.90607 0.71635 0.0
O32 O -0.00059 0.97809 0.6992 0.0
O33 O 0.01407 0.85407 0.74882 0.0
O34 O 0.97939 0.89283 0.73099 0.0
C35 C 0.11697 0.92414 0.6993 0.0
C36 C 0.1165 0.02303 0.75536 0.0
O37 O 0.08583 0.01929 0.73982 0.0
O38 O 0.12223 0.98402 0.75908 0.0
C39 C 0.00884 0.02471 0.69643 0.0
O40 O 0.05073 0.06605 0.70638 0.0
C41 C 0.97376 0.85622 0.74251 0.0
C42 C 0.94801 0.33063 0.24248 0.0
C43 C 0.99075 0.3548 0.25797 0.0
C44 C 0.93543 0.36198 0.23041 0.0
C45 C 0.96523 0.41768 0.2339 0.0
C46 C 0.01994 0.41045 0.26145 0.0
C47 C 0.00707 0.44149 0.24964 0.0
C48 C 0.95402 0.45276 0.22172 0.0
C49 C 0.01276 0.37287 0.1778 0.0
C50 C 0.97463 0.34172 0.16121 0.0
C51 C 0.0075 0.41018 0.19023 0.0
C52 C 0.9637 0.41669 0.18647 0.0
C53 C 0.93139 0.3492 0.15723 0.0
C54 C 0.92619 0.38659 0.16969 0.0
C55 C 0.95704 0.4551 0.19985 0.0
C56 C 0.02379 0.68091 0.19036 0.0
C57 C 0.00367 0.67678 0.16963 0.0
C58 C 0.00718 0.63524 0.20119 0.0
C59 C 0.96866 0.58477 0.19176 0.0
C60 C 0.96534 0.62642 0.16017 0.0
C61 C 0.94797 0.58088 0.17114 0.0
C62 C 0.9549 0.5357 0.20225 0.0
C63 C 0.91316 0.63287 0.24545 0.0
C64 C 0.93127 0.63969 0.26678 0.0
C65 C 0.91579 0.59607 0.23154 0.0
C66 C 0.93954 0.56748 0.2383 0.0
C67 C 0.95017 0.60711 0.27379 0.0
C68 C 0.95525 0.57254 0.25975 0.0
C69 C 0.94648 0.53024 0.22392 0.0
H70 H 0.92494 0.28771 0.23954 0.0
H71 H 0.90261 0.34291 0.21846 0.0
H72 H 0.05253 0.43002 0.27349 0.0
H73 H 0.03039 0.48442 0.25263 0.0
H74 H 0.04636 0.36794 0.18139 0.0
H75 H 0.03757 0.43381 0.20283 0.0
H76 H 0.90184 0.32652 0.14437 0.0
H77 H 0.89247 0.39153 0.16639 0.0
H78 H 0.05409 0.71917 0.19785 0.0
H79 H 0.0256 0.63932 0.21672 0.0
H80 H 0.9493 0.62225 0.14417 0.0
H81 H 0.91902 0.54241 0.16338 0.0
H82 H 0.89801 0.65662 0.23919 0.0
H83 H 0.89987 0.59083 0.21548 0.0
H84 H 0.96191 0.60844 0.29016 0.0
H85 H 0.97217 0.55005 0.26583 0.0
N86 N 0.94768 0.48953 0.23268 0.0
N87 N 0.9579 0.49679 0.19096 0.0
C88 C 0.76188 0.11201 0.5259 0.0
C89 C 0.74776 0.07763 0.50761 0.0
C90 C 0.72251 0.11112 0.53789 0.0
C91 C 0.66839 0.07528 0.53195 0.0
C92 C 0.69353 0.04248 0.50158 0.0
C93 C 0.65435 0.04151 0.51357 0.0
C94 C 0.62562 0.07278 0.54433 0.0
C95 C 0.71803 0.02384 0.58588 0.0
C96 C 0.74254 0.0577 0.60427 0.0
C97 C 0.67963 0.02719 0.5735 0.0
C98 C 0.6655 0.06502 0.57907 0.0
C99 C 0.72778 0.09511 0.60994 0.0
C100 C 0.68938 0.09848 0.59751 0.0
C101 C 0.62435 0.06837 0.56621 0.0
C102 C 0.39677 -0.00645 0.58075 0.0
C103 C 0.40378 0.01744 0.60109 0.0
C104 C 0.44055 0.00831 0.56881 0.0
C105 C 0.49193 0.04843 0.57675 0.0
C106 C 0.45509 0.05738 0.60904 0.0
C107 C 0.49869 0.07271 0.59699 0.0
C108 C 0.53936 0.0616 0.56507 0.0
C109 C 0.43597 0.09751 0.52293 0.0
C110 C 0.42299 0.07222 0.50249 0.0
C111 C 0.47454 0.09665 0.5363 0.0
C112 C 0.49976 0.06906 0.52975 0.0
C113 C 0.44975 0.04623 0.49584 0.0
C114 C 0.48724 0.0444 0.50931 0.0
C115 C 0.54158 0.06795 0.54325 0.0
H116 H 0.8033 0.14012 0.53077 0.0
H117 H 0.73434 0.13858 0.55171 0.0
H118 H 0.68128 0.01502 0.48774 0.0
H119 H 0.61287 0.01363 0.50863 0.0
H120 H 0.72866 -0.00518 0.58097 0.0
H121 H 0.66078 -2e-05 0.55963 0.0
H122 H 0.7452 0.12115 0.62418 0.0
H123 H 0.67847 0.12742 0.60225 0.0
H124 H 0.35776 0.96203 0.57441 0.0
H125 H 0.43435 0.9873 0.55362 0.0
H126 H 0.46153 0.07653 0.62467 0.0
H127 H 0.53792 0.10321 0.60359 0.0
H128 H 0.41631 0.11786 0.52871 0.0
H129 H 0.48479 0.11788 0.55167 0.0
H130 H 0.4425 0.02781 0.48005 0.0
H131 H 0.50666 0.02365 0.50364 0.0
N132 N 0.58438 0.07262 0.53381 0.0
N133 N 0.58132 0.06299 0.57571 0.0
C134 C 0.37012 0.36937 0.86134 0.0
C135 C 0.34096 0.36806 0.84305 0.0
C136 C 0.40711 0.41775 0.87221 0.0
C137 C 0.41451 0.46585 0.86549 0.0
C138 C 0.34852 0.41637 0.83635 0.0
C139 C 0.38506 0.46477 0.84743 0.0
C140 C 0.45698 0.51744 0.87576 0.0
C141 C 0.34428 0.42591 0.92411 0.0
C142 C 0.36936 0.42011 0.94211 0.0
C143 C 0.37439 0.46345 0.91003 0.0
C144 C 0.43024 0.49389 0.91331 0.0
C145 C 0.42452 0.45318 0.94616 0.0
C146 C 0.45465 0.48944 0.93187 0.0
C147 C 0.46469 0.52992 0.89777 0.0
C148 C 0.66727 0.74634 0.90884 0.0
C149 C 0.69283 0.73436 0.92486 0.0
C150 C 0.61973 0.70578 0.89832 0.0
C151 C 0.59712 0.65314 0.90397 0.0
C152 C 0.66964 0.68187 0.9306 0.0
C153 C 0.62206 0.64179 0.92039 0.0
C154 C 0.54749 0.60894 0.89324 0.0
C155 C 0.6718 0.65274 0.84672 0.0
C156 C 0.66045 0.66712 0.82737 0.0
C157 C 0.63319 0.63109 0.86121 0.0
C158 C 0.58261 0.62432 0.85692 0.0
C159 C 0.60976 0.66034 0.82308 0.0
C160 C 0.5711 0.63879 0.83768 0.0
C161 C 0.54006 0.59638 0.87134 0.0
H162 H 0.36498 0.33302 0.86715 0.0
H163 H 0.43066 0.41754 0.88566 0.0
H164 H 0.32758 0.41706 0.82214 0.0
H165 H 0.39104 0.50152 0.8417 0.0
H166 H 0.30158 0.40095 0.92082 0.0
H167 H 0.35412 0.46758 0.89637 0.0
H168 H 0.4447 0.44913 0.95989 0.0
H169 H 0.49751 0.51265 0.93502 0.0
H170 H 0.68462 0.78668 0.90422 0.0
H171 H 0.60068 0.71539 0.88585 0.0
H172 H 0.68843 0.67186 0.94305 0.0
H173 H 0.60523 0.6015 0.92504 0.0
H174 H 0.71054 0.6579 0.85066 0.0
H175 H 0.64256 0.61828 0.87553 0.0
H176 H 0.59948 0.67035 0.80822 0.0
H177 H 0.53195 0.63277 0.83383 0.0
N178 N 0.49475 0.55149 0.86346 0.0
N179 N 0.50962 0.57528 0.90547 0.0
H180 H 0.09893 0.17647 0.08993 0.0
H181 H 0.89644 0.24075 0.1462 0.0
H182 H 0.93004 0.06373 0.08891 0.0
H183 H 0.0655 0.35158 0.14631 0.0
H184 H 0.90707 0.17553 0.12498 0.0
H185 H 0.08665 0.24083 0.11055 0.0
C186 C 0.05917 0.16515 0.09405 0.0
C187 C 0.01543 0.11447 0.08766 0.0
C188 C 0.94181 0.21413 0.12965 0.0
C189 C 0.00107 0.18842 0.11137 0.0
C190 C 0.93574 0.25152 0.14166 0.0
C191 C 0.98017 0.30177 0.1481 0.0
C192 C -0.00733 0.22706 0.12398 0.0
C193 C 0.03023 0.31315 0.14199 0.0
C194 C 0.0522 0.20205 0.10585 0.0
C195 C 0.96491 0.10228 0.09349 0.0
N196 N 0.03507 0.27616 0.1303 0.0
N197 N 0.95911 0.139 0.10503 0.0
H198 H 0.02403 0.07676 0.46364 0.0
H199 H 0.74801 0.07136 0.46477 0.0
H200 H 0.9256 0.05705 0.40789 0.0
H201 H 0.84164 0.08486 0.52111 0.0
H202 H 0.81398 0.06784 0.44379 0.0
H203 H 0.95878 0.08106 0.48507 0.0
C204 C 0.98867 0.0732 0.45589 0.0
C205 C 0.98032 0.06654 0.43391 0.0
C206 C 0.82021 0.07161 0.46074 0.0
C207 C 0.90562 0.07167 0.45835 0.0
C208 C 0.7824 0.07341 0.47274 0.0
C209 C 0.7891 0.07807 0.49475 0.0
C210 C 0.86525 0.0745 0.47076 0.0
C211 C 0.83506 0.08167 0.50419 0.0
C212 C 0.95147 0.07573 0.46815 0.0
C213 C 0.93376 0.06219 0.42476 0.0
N214 N 0.87131 0.07962 0.49214 0.0
N215 N 0.89828 0.06491 0.43702 0.0
H216 H 0.88308 0.86162 0.73881 0.0
H217 H 0.7297 0.63422 0.8172 0.0
H218 H 0.94517 0.76913 0.76486 0.0
H219 H 0.68419 0.74807 0.80171 0.0
H220 H 0.80087 0.67359 0.7934 0.0
H221 H 0.80159 0.8098 0.75666 0.0
C222 C 0.87931 0.8299 0.74801 0.0
C223 C 0.92133 0.82011 0.75052 0.0
C224 C 0.77516 0.68981 0.79512 0.0
C225 C 0.82827 0.76092 0.77107 0.0
C226 C 0.73469 0.66758 0.80883 0.0
C227 C 0.70135 0.68839 0.81175 0.0
C228 C 0.78242 0.73316 0.78415 0.0
C229 C 0.70881 0.73065 0.79995 0.0
C230 C 0.83286 0.80054 0.75829 0.0
C231 C 0.91408 0.77844 0.76263 0.0
N232 N 0.7488 0.75189 0.78678 0.0
N233 N 0.86865 0.75067 0.77257 0.0
H234 H 0.15687 0.8996 0.07666 0.0
H235 H 0.01429 0.77373 0.18043 0.0
H236 H 0.07099 0.95979 0.11023 0.0
H237 H 0.04297 0.68777 0.13121 0.0
H238 H 0.05053 0.85159 0.15936 0.0
H239 H 0.13327 0.83246 0.1018 0.0
C240 C 0.13369 0.8993 0.08949 0.0
C241 C 0.11527 0.93506 0.09113 0.0
C242 C 0.0489 0.81564 0.15326 0.0
C243 C 0.08789 0.85775 0.11996 0.0
C244 C 0.02839 0.77142 0.16523 0.0
C245 C 0.02526 0.72428 0.15739 0.0
C246 C 0.06738 0.81282 0.13359 0.0
C247 C 0.04402 0.72314 0.13766 0.0
C248 C 0.11999 0.86067 0.10378 0.0
C249 C 0.08572 0.93279 0.10826 0.0
N250 N 0.06444 0.76679 0.12648 0.0
N251 N 0.07253 0.89441 0.12196 0.0
H252 H 0.19036 0.12497 0.43469 0.0
H253 H 0.35377 -0.00509 0.4723 0.0
H254 H 0.24396 0.04895 0.39085 0.0
H255 H 0.39893 0.1517 0.49925 0.0
H256 H 0.29441 0.00074 0.44626 0.0
H257 H 0.24985 0.12307 0.46258 0.0
C258 C 0.21471 0.10811 0.43094 0.0
C259 C 0.21253 0.0873 0.41045 0.0
C260 C 0.31731 0.0337 0.45796 0.0
C261 C 0.27872 0.0837 0.44213 0.0
C262 C 0.3516 0.03072 0.47278 0.0
C263 C 0.38268 0.0734 0.48786 0.0
C264 C 0.31272 0.07897 0.45846 0.0
C265 C 0.37584 0.11765 0.48808 0.0
C266 C 0.24851 0.10716 0.44679 0.0
C267 C 0.24477 0.06581 0.40639 0.0
N268 N 0.3415 0.1193 0.47357 0.0
N269 N 0.27602 0.06394 0.42215 0.0
H270 H 0.1942 0.04747 0.7862 0.0
H271 H 0.24454 0.33539 0.82135 0.0
H272 H 0.10876 0.11292 0.75552 0.0
H273 H 0.3557 0.28376 0.83574 0.0
H274 H 0.18796 0.25131 0.80008 0.0
H275 H 0.2465 0.1306 0.80789 0.0
C276 C 0.18624 0.07927 0.78404 0.0
C277 C 0.14707 0.07319 0.76892 0.0
C278 C 0.22473 0.25855 0.80796 0.0
C279 C 0.20714 0.16886 0.79385 0.0
C280 C 0.25719 0.30659 0.82004 0.0
C281 C 0.30502 0.3168 0.83049 0.0
C282 C 0.23998 0.22032 0.80647 0.0
C283 C 0.31879 0.27748 0.82842 0.0
C284 C 0.21633 0.12687 0.79642 0.0
C285 C 0.1387 0.11596 0.76692 0.0
N286 N 0.28644 0.23109 0.81671 0.0
N287 N 0.16851 0.16209 0.77928 0.0
H288 H 0.01404 0.11778 0.68683 0.0
H289 H 0.73996 0.96678 0.61458 0.0
H290 H 0.91828 0.94709 0.67422 0.0
H291 H 0.8359 0.138 0.62468 0.0
H292 H 0.80573 0.95959 0.63641 0.0
H293 H 0.95005 0.12686 0.6642 0.0
C294 C 0.9797 0.08225 0.67929 0.0
C295 C 0.97155 0.0316 0.68247 0.0
C296 C 0.81254 -0.0012 0.63385 0.0
C297 C 0.89819 0.04169 0.65662 0.0
C298 C 0.77508 0.00295 0.62126 0.0
C299 C 0.78243 0.0531 0.61768 0.0
C300 C 0.8579 0.04512 0.64304 0.0
C301 C 0.82828 0.0985 0.62716 0.0
C302 C 0.94318 0.08747 0.66639 0.0
C303 C 0.9263 0.98696 0.67228 0.0
N304 N 0.8643 0.09344 0.63939 0.0
N305 N 0.89141 -0.00691 0.65988 0.0
H306 H 0.00983 0.89377 0.98356 0.0
H307 H 0.7182 0.82955 0.94545 0.0
H308 H 0.93511 0.97135 0.01361 0.0
H309 H 0.78367 0.73156 0.92866 0.0
H310 H 0.80175 0.89144 0.96654 0.0
H311 H 0.93136 0.84342 0.95947 0.0
C312 C 0.9769 0.90034 0.98511 0.0
C313 C 0.97899 0.93662 1.0008 0.0
C314 C 0.79783 0.85658 0.95808 0.0
C315 C 0.88847 0.87866 0.97304 0.0
C316 C 0.75052 0.82165 0.94598 0.0
C317 C 0.74432 0.7755 0.9355 0.0
C318 C 0.83901 0.84528 0.95938 0.0
C319 C 0.78691 0.76656 0.9367 0.0
C320 C 0.93198 0.87145 0.9713 0.0
C321 C 0.93504 0.94351 0.00186 0.0
N322 N 0.83235 0.80102 0.94847 0.0
N323 N 0.89135 0.91459 0.98817 0.0
H324 H -0.00714 0.94442 0.30695 0.0
H325 H -6e-05 0.69253 0.30195 0.0
H326 H 0.00349 0.88234 0.36557 0.0
H327 H 0.86894 0.68634 0.26536 0.0
H328 H 0.00722 0.76507 0.32428 0.0
H329 H 0.95123 0.85431 0.28952 0.0
C330 C 0.98514 0.91144 0.31619 0.0
C331 C 0.00142 0.92029 0.33763 0.0
C332 C 0.97632 0.74703 0.31155 0.0
C333 C 0.95591 0.8185 0.31783 0.0
C334 C 0.97167 0.70507 0.29871 0.0
C335 C 0.93346 0.68221 0.28145 0.0
C336 C 0.94415 0.7681 0.30679 0.0
C337 C 0.89996 0.70298 0.27799 0.0
C338 C 0.96133 0.86028 0.3063 0.0
C339 C 0.9911 0.87672 0.34901 0.0
N340 N 0.9069 0.74559 0.29026 0.0
N341 N 0.97028 0.82766 0.33883 0.0
H342 H 0.1206 0.96188 0.66034 0.0
H343 H 0.39961 -0.01031 0.6413 0.0
H344 H 0.19296 0.89646 0.69962 0.0
H345 H 0.30473 0.00257 0.59122 0.0
H346 H 0.32518 0.96004 0.66357 0.0
H347 H 0.18735 0.97976 0.63493 0.0
C348 C 0.14995 0.95058 0.6635 0.0
C349 C 0.15137 0.92801 0.68225 0.0
C350 C 0.32042 0.96907 0.64768 0.0
C351 C 0.22815 0.94918 0.65347 0.0
C352 C 0.36304 0.9864 0.63504 0.0
C353 C 0.35832 -0.00112 0.61447 0.0
C354 C 0.27284 0.96485 0.63983 0.0
C355 C 0.30981 -0.0068 0.60701 0.0
C356 C 0.18805 0.96088 0.64901 0.0
C357 C 0.19036 0.91419 0.68548 0.0
N358 N 0.26899 0.97706 0.61977 0.0
N359 N 0.2275 0.9256 0.67139 0.0
H360 H 0.24866 0.11949 0.99354 0.0
H361 H 0.36235 0.42699 0.98457 0.0
H362 H 0.20965 0.20725 0.03821 0.0
H363 H 0.31146 0.31438 0.93047 0.0
H364 H 0.32179 0.35226 0.0072 0.0
H365 H 0.29112 0.19749 0.97326 0.0
C366 C 0.24987 0.15545 0.99933 0.0
C367 C 0.22528 0.15674 0.01756 0.0
C368 C 0.31917 0.34414 0.99036 0.0
C369 C 0.27367 0.24594 0.99432 0.0
C370 C 0.34203 0.38649 0.97751 0.0
C371 C 0.3396 0.37645 0.9557 0.0
C372 C 0.29535 0.29179 0.98129 0.0
C373 C 0.31346 0.32354 0.9472 0.0
C374 C 0.27362 0.19971 0.9876 0.0
C375 C 0.22793 0.2045 0.02419 0.0
N376 N 0.29288 0.28311 0.96005 0.0
N377 N 0.25173 0.24739 0.01254 0.0
H378 H 0.15994 0.22538 0.32154 0.0
H379 H 0.92544 0.26781 0.27897 0.0
H380 H 0.00672 0.15359 0.34773 0.0
H381 H 0.08968 0.36993 0.26611 0.0
H382 H 0.95255 0.22005 0.30217 0.0
H383 H 0.13376 0.27556 0.2997 0.0
C384 C 0.12102 0.22063 0.32288 0.0
C385 C 0.08544 0.18519 0.33645 0.0
C386 C 0.9826 0.25294 0.29427 0.0
C387 C 0.05486 0.24173 0.31122 0.0
C388 C 0.96709 0.27975 0.2809 0.0
C389 C 0.00545 0.32282 0.27072 0.0
C390 C 0.03673 0.26904 0.29721 0.0
C391 C 0.05897 0.33718 0.27386 0.0
C392 C 0.10604 0.24918 0.31036 0.0
C393 C 0.03548 0.18061 0.33753 0.0
N394 N 0.07302 0.3103 0.2868 0.0
N395 N 0.02145 0.20817 0.3249 0.0
loop_
_geom_bond_atom_site_label_1
_geom_bond_atom_site_label_2
_geom_bond_distance
_geom_bond_site_symmetry_2
_ccdc_geom_bond_type
Zn0 O3 2.031 1_545 S
Zn0 O5 2.049 . S
Zn0 O10 2.067 1_545 S
Zn1 O2 1.962 . S
Zn1 O4 1.986 . S
Zn1 O6 1.996 . S
Zn1 O9 1.943 . S
O2 Zn1 1.962 . S
O2 C7 1.254 1_545 S
O3 Zn0 2.031 1_565 S
O3 C7 1.269 . S
O4 Zn1 1.986 . S
O4 C11 1.262 . S
O5 Zn0 2.049 . S
O5 C13 1.260 . S
O6 Zn1 1.996 . S
O6 C13 1.257 . S
C7 O2 1.254 1_565 S
C7 O3 1.269 . S
C8 O9 1.249 1_565 S
C8 O10 1.270 . S
O9 Zn1 1.943 . S
O9 C8 1.249 1_545 S
O10 Zn0 2.067 1_565 S
O10 C8 1.270 . S
C11 O4 1.262 . S
C11 O12 1.232 . S
O12 C11 1.232 . S
C13 O5 1.260 . S
C13 O6 1.257 . S
Zn14 O17 2.031 . S
Zn14 O19 2.049 . S
Zn14 O24 2.067 . S
Zn15 O16 1.962 . S
Zn15 O18 1.986 1_455 S
Zn15 O20 1.996 . S
Zn15 O23 1.943 1_455 S
O16 Zn15 1.962 . S
O16 C21 1.254 . S
O17 Zn14 2.031 . S
O17 C21 1.269 . S
O18 Zn15 1.986 1_655 S
O18 C25 1.262 . S
O19 Zn14 2.049 . S
O19 C27 1.260 . S
O20 Zn15 1.996 . S
O20 C27 1.257 . S
C21 O16 1.254 . S
C21 O17 1.269 . S
C22 O23 1.249 1_465 S
C22 O24 1.270 1_565 S
O23 Zn15 1.943 1_655 S
O23 C22 1.249 1_645 S
O24 Zn14 2.067 . S
O24 C22 1.270 1_545 S
C25 O18 1.262 . S
C25 O26 1.232 . S
O26 C25 1.232 . S
C27 O19 1.260 . S
C27 O20 1.257 . S
Zn28 O31 2.031 1_565 S
Zn28 O33 2.049 . S
Zn28 O38 2.067 1_565 S
Zn29 O30 1.962 1_545 S
Zn29 O32 1.986 1_445 S
Zn29 O34 1.996 1_445 S
Zn29 O37 1.943 . S
O30 Zn29 1.962 1_565 S
O30 C35 1.254 . S
O31 Zn28 2.031 1_545 S
O31 C35 1.269 1_545 S
O32 Zn29 1.986 1_665 S
O32 C39 1.262 1_565 S
O33 Zn28 2.049 . S
O33 C41 1.260 1_455 S
O34 Zn29 1.996 1_665 S
O34 C41 1.257 . S
C35 O30 1.254 . S
C35 O31 1.269 1_565 S
C36 O37 1.249 . S
C36 O38 1.270 . S
O37 Zn29 1.943 . S
O37 C36 1.249 . S
O38 Zn28 2.067 1_545 S
O38 C36 1.270 . S
C39 O32 1.262 1_545 S
C39 O40 1.232 1_655 S
O40 C39 1.232 1_455 S
C41 O33 1.260 1_655 S
C41 O34 1.257 . S
C42 C43 1.384 . S
C42 C44 1.384 . S
C42 H70 0.931 1_455 S
C43 C42 1.384 . S
C43 C46 1.382 . S
C44 C42 1.384 . S
C44 C45 1.381 . S
C44 H71 0.930 1_455 S
C45 C44 1.381 . S
C45 C47 1.381 . S
C45 C48 1.487 . S
C46 C43 1.382 . S
C46 C47 1.387 . S
C46 H72 0.930 . S
C47 C45 1.381 . S
C47 C46 1.387 . S
C47 H73 0.931 . S
C48 C45 1.487 . S
C48 C55 1.399 . S
C48 N86 1.343 . S
C49 C50 1.384 . S
C49 C51 1.384 . S
C49 H74 0.931 . S
C50 C49 1.384 . S
C50 C53 1.382 . S
C51 C49 1.384 . S
C51 C52 1.381 . S
C51 H75 0.930 . S
C52 C51 1.381 . S
C52 C54 1.381 . S
C52 C55 1.487 . S
C53 C50 1.382 . S
C53 C54 1.387 . S
C53 H76 0.930 1_455 S
C54 C52 1.381 . S
C54 C53 1.387 . S
C54 H77 0.931 1_455 S
C55 C48 1.399 . S
C55 C52 1.487 . S
C55 N87 1.343 . S
C56 C57 1.384 . S
C56 C58 1.384 . S
C56 H78 0.931 . S
C57 C56 1.384 . S
C57 C60 1.382 . S
C58 C56 1.384 . S
C58 C59 1.381 . S
C58 H79 0.930 . S
C59 C58 1.381 . S
C59 C61 1.381 . S
C59 C62 1.487 . S
C60 C57 1.382 . S
C60 C61 1.387 . S
C60 H80 0.930 1_455 S
C61 C59 1.381 . S
C61 C60 1.387 . S
C61 H81 0.931 1_455 S
C62 C59 1.487 . S
C62 C69 1.399 . S
C62 N87 1.343 . S
C63 C64 1.384 . S
C63 C65 1.384 . S
C63 H82 0.931 1_455 S
C64 C63 1.384 . S
C64 C67 1.382 . S
C65 C63 1.384 . S
C65 C66 1.381 . S
C65 H83 0.930 1_455 S
C66 C65 1.381 . S
C66 C68 1.381 . S
C66 C69 1.487 . S
C67 C64 1.382 . S
C67 C68 1.387 . S
C67 H84 0.930 . S
C68 C66 1.381 . S
C68 C67 1.387 . S
C68 H85 0.931 . S
C69 C62 1.399 . S
C69 C66 1.487 . S
C69 N86 1.343 . S
H70 C42 0.931 1_655 S
H71 C44 0.930 1_655 S
H72 C46 0.930 . S
H73 C47 0.931 . S
H74 C49 0.931 . S
H75 C51 0.930 . S
H76 C53 0.930 1_655 S
H77 C54 0.931 1_655 S
H78 C56 0.931 . S
H79 C58 0.930 . S
H80 C60 0.930 1_655 S
H81 C61 0.931 1_655 S
H82 C63 0.931 1_655 S
H83 C65 0.930 1_655 S
H84 C67 0.930 . S
H85 C68 0.931 . S
N86 C48 1.343 . S
N86 C69 1.343 . S
N87 C55 1.343 . S
N87 C62 1.343 . S
C88 C89 1.384 . S
C88 C90 1.384 . S
C88 H116 0.931 . S
C89 C88 1.384 . S
C89 C92 1.382 . S
C90 C88 1.384 . S
C90 C91 1.381 . S
C90 H117 0.930 . S
C91 C90 1.381 . S
C91 C93 1.381 . S
C91 C94 1.487 . S
C92 C89 1.382 . S
C92 C93 1.387 . S
C92 H118 0.930 1_545 S
C93 C91 1.381 . S
C93 C92 1.387 . S
C93 H119 0.931 1_545 S
C94 C91 1.487 . S
C94 C101 1.399 . S
C94 N132 1.343 . S
C95 C96 1.384 1_565 S
C95 C97 1.379 1_565 S
C95 H120 0.931 . S
C96 C95 1.384 1_545 S
C96 C99 1.382 . S
C97 C95 1.379 1_545 S
C97 C98 1.391 . S
C97 H121 0.925 1_545 S
C98 C97 1.391 . S
C98 C100 1.381 . S
C98 C101 1.487 . S
C99 C96 1.382 . S
C99 C100 1.387 . S
C99 H122 0.930 . S
C100 C98 1.381 . S
C100 C99 1.387 . S
C100 H123 0.931 . S
C101 C94 1.399 . S
C101 C98 1.487 . S
C101 N133 1.343 . S
C102 C103 1.384 1_565 S
C102 C104 1.388 1_565 S
C102 H124 0.931 . S
C103 C102 1.384 1_545 S
C103 C106 1.382 . S
C104 C102 1.388 1_545 S
C104 C105 1.383 . S
C104 H125 0.924 1_545 S
C105 C104 1.383 . S
C105 C107 1.381 . S
C105 C108 1.487 . S
C106 C103 1.382 . S
C106 C107 1.387 . S
C106 H126 0.930 . S
C107 C105 1.381 . S
C107 C106 1.387 . S
C107 H127 0.931 . S
C108 C105 1.487 . S
C108 C115 1.399 . S
C108 N133 1.343 . S
C109 C110 1.384 . S
C109 C111 1.384 . S
C109 H128 0.931 . S
C110 C109 1.384 . S
C110 C113 1.382 . S
C111 C109 1.384 . S
C111 C112 1.381 . S
C111 H129 0.930 . S
C112 C111 1.381 . S
C112 C114 1.381 . S
C112 C115 1.487 . S
C113 C110 1.382 . S
C113 C114 1.387 . S
C113 H130 0.930 1_545 S
C114 C112 1.381 . S
C114 C113 1.387 . S
C114 H131 0.931 1_545 S
C115 C108 1.399 . S
C115 C112 1.487 . S
C115 N132 1.343 . S
H116 C88 0.931 . S
H117 C90 0.930 . S
H118 C92 0.930 1_565 S
H119 C93 0.931 1_565 S
H120 C95 0.931 . S
H121 C97 0.925 1_565 S
H122 C99 0.930 . S
H123 C100 0.931 . S
H124 C102 0.931 . S
H125 C104 0.924 1_565 S
H126 C106 0.930 . S
H127 C107 0.931 . S
H128 C109 0.931 . S
H129 C111 0.930 . S
H130 C113 0.930 1_565 S
H131 C114 0.931 1_565 S
N132 C94 1.343 . S
N132 C115 1.343 . S
N133 C101 1.343 . S
N133 C108 1.343 . S
C134 C135 1.384 . S
C134 C136 1.384 . S
C134 H162 0.931 . S
C135 C134 1.384 . S
C135 C138 1.382 . S
C136 C134 1.384 . S
C136 C137 1.381 . S
C136 H163 0.930 . S
C137 C136 1.381 . S
C137 C139 1.381 . S
C137 C140 1.487 . S
C138 C135 1.382 . S
C138 C139 1.387 . S
C138 H164 0.930 . S
C139 C137 1.381 . S
C139 C138 1.387 . S
C139 H165 0.931 . S
C140 C137 1.487 . S
C140 C147 1.399 . S
C140 N178 1.343 . S
C141 C142 1.384 . S
C141 C143 1.384 . S
C141 H166 0.931 . S
C142 C141 1.384 . S
C142 C145 1.382 . S
C143 C141 1.384 . S
C143 C144 1.381 . S
C143 H167 0.930 . S
C144 C143 1.381 . S
C144 C146 1.381 . S
C144 C147 1.487 . S
C145 C142 1.382 . S
C145 C146 1.387 . S
C145 H168 0.930 . S
C146 C144 1.381 . S
C146 C145 1.387 . S
C146 H169 0.931 . S
C147 C140 1.399 . S
C147 C144 1.487 . S
C147 N179 1.343 . S
C148 C149 1.384 . S
C148 C150 1.384 . S
C148 H170 0.931 . S
C149 C148 1.384 . S
C149 C152 1.382 . S
C150 C148 1.384 . S
C150 C151 1.381 . S
C150 H171 0.930 . S
C151 C150 1.381 . S
C151 C153 1.381 . S
C151 C154 1.487 . S
C152 C149 1.382 . S
C152 C153 1.387 . S
C152 H172 0.930 . S
C153 C151 1.381 . S
C153 C152 1.387 . S
C153 H173 0.931 . S
C154 C151 1.487 . S
C154 C161 1.399 . S
C154 N179 1.343 . S
C155 C156 1.384 . S
C155 C157 1.384 . S
C155 H174 0.931 . S
C156 C155 1.384 . S
C156 C159 1.382 . S
C157 C155 1.384 . S
C157 C158 1.381 . S
C157 H175 0.930 . S
C158 C157 1.381 . S
C158 C160 1.381 . S
C158 C161 1.487 . S
C159 C156 1.382 . S
C159 C160 1.387 . S
C159 H176 0.930 . S
C160 C158 1.381 . S
C160 C159 1.387 . S
C160 H177 0.931 . S
C161 C154 1.399 . S
C161 C158 1.487 . S
C161 N178 1.343 . S
H162 C134 0.931 . S
H163 C136 0.930 . S
H164 C138 0.930 . S
H165 C139 0.931 . S
H166 C141 0.931 . S
H167 C143 0.930 . S
H168 C145 0.930 . S
H169 C146 0.931 . S
H170 C148 0.931 . S
H171 C150 0.930 . S
H172 C152 0.930 . S
H173 C153 0.931 . S
H174 C155 0.931 . S
H175 C157 0.930 . S
H176 C159 0.930 . S
H177 C160 0.931 . S
N178 C140 1.343 . S
N178 C161 1.343 . S
N179 C147 1.343 . S
N179 C154 1.343 . S
H180 C186 0.930 . S
H181 C190 0.930 1_655 S
H182 C195 0.937 . S
H183 C193 0.929 . S
H184 C188 0.929 1_655 S
H185 C194 0.929 . S
C186 H180 0.930 . S
C186 C187 1.367 . S
C186 C194 1.378 . S
C187 C186 1.367 . S
C187 C195 1.419 1_455 S
C188 H184 0.929 1_455 S
C188 C190 1.378 . S
C188 C192 1.350 . S
C189 C192 1.463 . S
C189 C194 1.350 . S
C189 N197 1.427 . S
C190 H181 0.930 1_455 S
C190 C188 1.378 . S
C190 C191 1.367 . S
C191 C190 1.367 . S
C191 C193 1.433 . S
C192 C188 1.350 . S
C192 C189 1.463 . S
C192 N196 1.427 . S
C193 H183 0.929 . S
C193 C191 1.433 . S
C193 N196 1.384 . S
C194 H185 0.929 . S
C194 C186 1.378 . S
C194 C189 1.350 . S
C195 H182 0.937 . S
C195 C187 1.419 1_655 S
C195 N197 1.390 1_655 S
N196 C192 1.427 . S
N196 C193 1.384 . S
N197 C189 1.427 . S
N197 C195 1.390 1_455 S
H198 C204 0.930 . S
H199 C208 0.930 . S
H200 C213 0.929 . S
H201 C211 0.929 . S
H202 C206 0.929 . S
H203 C212 0.929 . S
C204 H198 0.930 . S
C204 C205 1.367 . S
C204 C212 1.378 . S
C205 C204 1.367 . S
C205 C213 1.433 . S
C206 H202 0.929 . S
C206 C208 1.378 . S
C206 C210 1.350 . S
C207 C210 1.463 . S
C207 C212 1.350 . S
C207 N215 1.427 . S
C208 H199 0.930 . S
C208 C206 1.378 . S
C208 C209 1.367 . S
C209 C208 1.367 . S
C209 C211 1.433 . S
C210 C206 1.350 . S
C210 C207 1.463 . S
C210 N214 1.427 . S
C211 H201 0.929 . S
C211 C209 1.433 . S
C211 N214 1.384 . S
C212 H203 0.929 . S
C212 C204 1.378 . S
C212 C207 1.350 . S
C213 H200 0.929 . S
C213 C205 1.433 . S
C213 N215 1.384 . S
N214 C210 1.427 . S
N214 C211 1.384 . S
N215 C207 1.427 . S
N215 C213 1.384 . S
H216 C222 0.930 . S
H217 C226 0.930 . S
H218 C231 0.929 . S
H219 C229 0.929 . S
H220 C224 0.929 . S
H221 C230 0.929 . S
C222 H216 0.930 . S
C222 C223 1.367 . S
C222 C230 1.378 . S
C223 C222 1.367 . S
C223 C231 1.433 . S
C224 H220 0.929 . S
C224 C226 1.378 . S
C224 C228 1.350 . S
C225 C228 1.463 . S
C225 C230 1.350 . S
C225 N233 1.427 . S
C226 H217 0.930 . S
C226 C224 1.378 . S
C226 C227 1.367 . S
C227 C226 1.367 . S
C227 C229 1.433 . S
C228 C224 1.350 . S
C228 C225 1.463 . S
C228 N232 1.427 . S
C229 H219 0.929 . S
C229 C227 1.433 . S
C229 N232 1.384 . S
C230 H221 0.929 . S
C230 C222 1.378 . S
C230 C225 1.350 . S
C231 H218 0.929 . S
C231 C223 1.433 . S
C231 N233 1.384 . S
N232 C228 1.427 . S
N232 C229 1.384 . S
N233 C225 1.427 . S
N233 C231 1.384 . S
H234 C240 0.930 . S
H235 C244 0.930 . S
H236 C249 0.929 . S
H237 C247 0.929 . S
H238 C242 0.929 . S
H239 C248 0.929 . S
C240 H234 0.930 . S
C240 C241 1.367 . S
C240 C248 1.378 . S
C241 C240 1.367 . S
C241 C249 1.433 . S
C242 H238 0.929 . S
C242 C244 1.378 . S
C242 C246 1.350 . S
C243 C246 1.463 . S
C243 C248 1.350 . S
C243 N251 1.427 . S
C244 H235 0.930 . S
C244 C242 1.378 . S
C244 C245 1.367 . S
C245 C244 1.367 . S
C245 C247 1.433 . S
C246 C242 1.350 . S
C246 C243 1.463 . S
C246 N250 1.427 . S
C247 H237 0.929 . S
C247 C245 1.433 . S
C247 N250 1.384 . S
C248 H239 0.929 . S
C248 C240 1.378 . S
C248 C243 1.350 . S
C249 H236 0.929 . S
C249 C241 1.433 . S
C249 N251 1.384 . S
N250 C246 1.427 . S
N250 C247 1.384 . S
N251 C243 1.427 . S
N251 C249 1.384 . S
H252 C258 0.930 . S
H253 C262 0.930 1_565 S
H254 C267 0.929 . S
H255 C265 0.929 . S
H256 C260 0.929 1_565 S
H257 C266 0.929 . S
C258 H252 0.930 . S
C258 C259 1.367 . S
C258 C266 1.378 . S
C259 C258 1.367 . S
C259 C267 1.433 . S
C260 H256 0.929 1_545 S
C260 C262 1.378 . S
C260 C264 1.350 . S
C261 C264 1.463 . S
C261 C266 1.350 . S
C261 N269 1.427 . S
C262 H253 0.930 1_545 S
C262 C260 1.378 . S
C262 C263 1.367 . S
C263 C262 1.367 . S
C263 C265 1.433 . S
C264 C260 1.350 . S
C264 C261 1.463 . S
C264 N268 1.427 . S
C265 H255 0.929 . S
C265 C263 1.433 . S
C265 N268 1.384 . S
C266 H257 0.929 . S
C266 C258 1.378 . S
C266 C261 1.350 . S
C267 H254 0.929 . S
C267 C259 1.433 . S
C267 N269 1.384 . S
N268 C264 1.427 . S
N268 C265 1.384 . S
N269 C261 1.427 . S
N269 C267 1.384 . S
H270 C276 0.930 . S
H271 C280 0.930 . S
H272 C285 0.929 . S
H273 C283 0.929 . S
H274 C278 0.929 . S
H275 C284 0.929 . S
C276 H270 0.930 . S
C276 C277 1.367 . S
C276 C284 1.378 . S
C277 C276 1.367 . S
C277 C285 1.433 . S
C278 H274 0.929 . S
C278 C280 1.378 . S
C278 C282 1.350 . S
C279 C282 1.463 . S
C279 C284 1.350 . S
C279 N287 1.427 . S
C280 H271 0.930 . S
C280 C278 1.378 . S
C280 C281 1.367 . S
C281 C280 1.367 . S
C281 C283 1.433 . S
C282 C278 1.350 . S
C282 C279 1.463 . S
C282 N286 1.427 . S
C283 H273 0.929 . S
C283 C281 1.433 . S
C283 N286 1.384 . S
C284 H275 0.929 . S
C284 C276 1.378 . S
C284 C279 1.350 . S
C285 H272 0.929 . S
C285 C277 1.433 . S
C285 N287 1.384 . S
N286 C282 1.427 . S
N286 C283 1.384 . S
N287 C279 1.427 . S
N287 C285 1.384 . S
H288 C294 0.930 . S
H289 C298 0.930 . S
H290 C303 0.929 . S
H291 C301 0.929 . S
H292 C296 0.929 . S
H293 C302 0.929 . S
C294 H288 0.930 . S
C294 C295 1.367 . S
C294 C302 1.378 . S
C295 C294 1.367 . S
C295 C303 1.433 1_545 S
C296 H292 0.929 . S
C296 C298 1.378 . S
C296 C300 1.350 1_565 S
C297 C300 1.463 . S
C297 C302 1.350 . S
C297 N305 1.427 1_545 S
C298 H289 0.930 . S
C298 C296 1.378 . S
C298 C299 1.367 1_565 S
C299 C298 1.367 1_545 S
C299 C301 1.433 . S
C300 C296 1.350 1_545 S
C300 C297 1.463 . S
C300 N304 1.427 . S
C301 H291 0.929 . S
C301 C299 1.433 . S
C301 N304 1.384 . S
C302 H293 0.929 . S
C302 C294 1.378 . S
C302 C297 1.350 . S
C303 H290 0.929 . S
C303 C295 1.433 1_565 S
C303 N305 1.384 . S
N304 C300 1.427 . S
N304 C301 1.384 . S
N305 C297 1.427 1_565 S
N305 C303 1.384 . S
H306 C312 0.930 . S
H307 C316 0.930 . S
H308 C321 0.934 . S
H309 C319 0.929 . S
H310 C314 0.929 . S
H311 C320 0.929 . S
C312 H306 0.930 . S
C312 C313 1.367 . S
C312 C320 1.378 . S
C313 C312 1.367 . S
C313 C321 1.410 1_554 S
C314 H310 0.929 . S
C314 C316 1.378 . S
C314 C318 1.350 . S
C315 C318 1.463 . S
C315 C320 1.350 1_556 S
C315 N323 1.427 . S
C316 H307 0.930 . S
C316 C314 1.378 . S
C316 C317 1.367 . S
C317 C316 1.367 . S
C317 C319 1.433 . S
C318 C314 1.350 . S
C318 C315 1.463 . S
C318 N322 1.427 . S
C319 H309 0.929 . S
C319 C317 1.433 . S
C319 N322 1.384 . S
C320 H311 0.929 . S
C320 C312 1.378 . S
C320 C315 1.350 1_554 S
C321 H308 0.934 . S
C321 C313 1.410 1_556 S
C321 N323 1.404 . S
N322 C318 1.427 . S
N322 C319 1.384 . S
N323 C315 1.427 . S
N323 C321 1.404 . S
H324 C330 0.930 . S
H325 C334 0.930 . S
H326 C339 0.929 . S
H327 C337 0.929 . S
H328 C332 0.929 . S
H329 C338 0.929 . S
C330 H324 0.930 . S
C330 C331 1.367 1_655 S
C330 C338 1.378 . S
C331 C330 1.367 1_455 S
C331 C339 1.433 . S
C332 H328 0.929 . S
C332 C334 1.378 . S
C332 C336 1.350 . S
C333 C336 1.463 . S
C333 C338 1.350 1_455 S
C333 N341 1.427 . S
C334 H325 0.930 . S
C334 C332 1.378 . S
C334 C335 1.367 . S
C335 C334 1.367 . S
C335 C337 1.433 1_455 S
C336 C332 1.350 . S
C336 C333 1.463 . S
C336 N340 1.427 1_455 S
C337 H327 0.929 . S
C337 C335 1.433 1_655 S
C337 N340 1.384 . S
C338 H329 0.929 . S
C338 C330 1.378 . S
C338 C333 1.350 1_655 S
C339 H326 0.929 . S
C339 C331 1.433 . S
C339 N341 1.384 . S
N340 C336 1.427 1_655 S
N340 C337 1.384 . S
N341 C333 1.427 . S
N341 C339 1.384 . S
H342 C348 0.930 . S
H343 C352 0.930 . S
H344 C357 0.929 . S
H345 C355 0.929 1_565 S
H346 C350 0.929 . S
H347 C356 0.929 . S
C348 H342 0.930 . S
C348 C349 1.368 . S
C348 C356 1.378 . S
C349 C348 1.368 . S
C349 C357 1.434 1_565 S
C350 H346 0.929 . S
C350 C352 1.378 . S
C350 C354 1.350 . S
C351 C354 1.463 . S
C351 C356 1.350 1_545 S
C351 N359 1.427 . S
C352 H343 0.930 . S
C352 C350 1.378 . S
C352 C353 1.367 . S
C353 C352 1.367 . S
C353 C355 1.433 . S
C354 C350 1.350 . S
C354 C351 1.463 . S
C354 N358 1.427 1_545 S
C355 H345 0.929 1_545 S
C355 C353 1.433 . S
C355 N358 1.384 1_545 S
C356 H347 0.929 . S
C356 C348 1.378 . S
C356 C351 1.350 1_565 S
C357 H344 0.929 . S
C357 C349 1.434 1_545 S
C357 N359 1.384 . S
N358 C354 1.427 1_565 S
N358 C355 1.384 1_565 S
N359 C351 1.427 . S
N359 C357 1.384 . S
H360 C366 0.930 . S
H361 C370 0.930 . S
H362 C375 0.929 . S
H363 C373 0.929 . S
H364 C368 0.929 . S
H365 C374 0.929 . S
C366 H360 0.930 . S
C366 C367 1.367 1_556 S
C366 C374 1.378 . S
C367 C366 1.367 1_554 S
C367 C375 1.433 . S
C368 H364 0.929 . S
C368 C370 1.378 . S
C368 C372 1.350 . S
C369 C372 1.463 . S
C369 C374 1.350 . S
C369 N377 1.427 1_556 S
C370 H361 0.930 . S
C370 C368 1.378 . S
C370 C371 1.367 . S
C371 C370 1.367 . S
C371 C373 1.433 . S
C372 C368 1.350 . S
C372 C369 1.463 . S
C372 N376 1.427 . S
C373 H363 0.929 . S
C373 C371 1.433 . S
C373 N376 1.384 . S
C374 H365 0.929 . S
C374 C366 1.378 . S
C374 C369 1.350 . S
C375 H362 0.929 . S
C375 C367 1.433 . S
C375 N377 1.384 . S
N376 C372 1.427 . S
N376 C373 1.384 . S
N377 C369 1.427 1_554 S
N377 C375 1.384 . S
H378 C384 0.930 . S
H379 C388 0.930 . S
H380 C393 0.929 1_655 S
H381 C391 0.929 . S
H382 C386 0.929 . S
H383 C392 0.929 . S
C384 H378 0.930 . S
C384 C385 1.367 . S
C384 C392 1.378 . S
C385 C384 1.367 . S
C385 C393 1.433 . S
C386 H382 0.929 . S
C386 C388 1.378 . S
C386 C390 1.350 1_655 S
C387 C390 1.463 . S
C387 C392 1.350 . S
C387 N395 1.429 . S
C388 H379 0.930 . S
C388 C386 1.378 . S
C388 C389 1.367 1_655 S
C389 C388 1.367 1_455 S
C389 C391 1.433 . S
C390 C386 1.350 1_455 S
C390 C387 1.463 . S
C390 N394 1.427 . S
C391 H381 0.929 . S
C391 C389 1.433 . S
C391 N394 1.384 . S
C392 H383 0.929 . S
C392 C384 1.378 . S
C392 C387 1.350 . S
C393 H380 0.929 1_455 S
C393 C385 1.433 . S
C393 N395 1.385 . S
N394 C390 1.427 . S
N394 C391 1.384 . S
N395 C387 1.429 . S
N395 C393 1.385 . S
C191 C50 1.330 . S
C187 C11 1.316 . S
C205 C25 1.383 . S
C209 C89 1.400 . S
C223 C41 1.377 . S
C227 C156 1.439 . S
C241 C7 1.356 . S
C245 C57 1.360 . S
C263 C110 1.424 . S
C259 C21 1.421 . S
C277 C36 1.390 . S
C281 C135 1.454 . S
C299 C96 1.394 . S
C295 C39 1.384 . S
C313 C8 1.392 1_655 S
C317 C149 1.457 . S
C335 C64 1.505 . S
C331 C22 1.448 . S
C353 C103 1.418 . S
C349 C35 1.414 . S
C371 C142 1.437 . S
C367 C13 1.363 . S
C385 C27 1.422 . S
C389 C43 1.477 . S
