# Generated by pormake.
# Topology apo, (3,6)-cn, num edge types: 1
# Building blocks:
#     Node 0, Type 0, BuildingBlock: MIDCAF_clean_linker_0, # of connection points: 3
#     Node 1, Type 0, BuildingBlock: MIDCAF_clean_linker_0, # of connection points: 3
#     Node 2, Type 0, BuildingBlock: MIDCAF_clean_linker_0, # of connection points: 3
#     Node 3, Type 0, BuildingBlock: MIDCAF_clean_linker_0, # of connection points: 3
#     Node 4, Type 0, BuildingBlock: MIDCAF_clean_linker_0, # of connection points: 3
#     Node 5, Type 0, BuildingBlock: MIDCAF_clean_linker_0, # of connection points: 3
#     Node 6, Type 0, BuildingBlock: MIDCAF_clean_linker_0, # of connection points: 3
#     Node 7, Type 0, BuildingBlock: MIDCAF_clean_linker_0, # of connection points: 3
#     Node 8, Type 1, BuildingBlock: KUMJIN_clean_sbu_1, # of connection points: 6
#     Node 9, Type 1, BuildingBlock: KUMJIN_clean_sbu_1, # of connection points: 6
#     Node 10, Type 1, BuildingBlock: KUMJIN_clean_sbu_1, # of connection points: 6
#     Node 11, Type 1, BuildingBlock: KUMJIN_clean_sbu_1, # of connection points: 6
#     Edge 12, Type (0, 1), None
#     Edge 13, Type (0, 1), None
#     Edge 14, Type (0, 1), None
#     Edge 15, Type (0, 1), None
#     Edge 16, Type (0, 1), None
#     Edge 17, Type (0, 1), None
#     Edge 18, Type (0, 1), None
#     Edge 19, Type (0, 1), None
#     Edge 20, Type (0, 1), None
#     Edge 21, Type (0, 1), None
#     Edge 22, Type (0, 1), None
#     Edge 23, Type (0, 1), None
#     Edge 24, Type (0, 1), None
#     Edge 25, Type (0, 1), None
#     Edge 26, Type (0, 1), None
#     Edge 27, Type (0, 1), None
#     Edge 28, Type (0, 1), None
#     Edge 29, Type (0, 1), None
#     Edge 30, Type (0, 1), None
#     Edge 31, Type (0, 1), None
#     Edge 32, Type (0, 1), None
#     Edge 33, Type (0, 1), None
#     Edge 34, Type (0, 1), None
#     Edge 35, Type (0, 1), None
# Relax obj value: 0.006
# Max RMSD: 0.139
# Mean RMSD: 0.105
data_MOF--net-apo--node1-KUMJIN_clean_sbu_1--node2-MIDCAF_clean_linker_0--edge1-none
_symmetry_space_group_name_H-M    P1
_symmetry_Int_Tables_number       1
_symmetry_cell_setting            triclinic
loop_
_symmetry_equiv_pos_as_xyz
'x, y, z'
_cell_length_a     16.090484
_cell_length_b     28.270545
_cell_length_c     38.839447
_cell_angle_alpha  89.979498
_cell_angle_beta   89.906295
_cell_angle_gamma 90.263891
loop_
_atom_site_label
_atom_site_type_symbol
_atom_site_fract_x
_atom_site_fract_y
_atom_site_fract_z
_atom_type_partial_charge
C0 C 0.3188 0.41029 0.52297 0.0
C1 C 0.25939 0.38561 0.54259 0.0
C2 C 0.20812 0.35242 0.52586 0.0
C3 C 0.21452 0.34504 0.49012 0.0
H4 H 0.27389 0.23998 0.37365 0.0
H5 H 0.21197 0.1786 0.33665 0.0
H6 H 0.02187 0.27671 0.30526 0.0
H7 H 0.08574 0.33828 0.34114 0.0
H8 H 0.25506 0.43194 0.31217 0.0
H9 H 0.31397 0.4951 0.27757 0.0
H10 H 0.47946 0.53237 0.36054 0.0
H11 H 0.41999 0.46903 0.39557 0.0
H12 H 0.36925 0.42432 0.47284 0.0
H13 H 0.35799 0.43672 0.53507 0.0
H14 H 0.16062 0.33362 0.54025 0.0
H15 H 0.17208 0.32032 0.47801 0.0
N16 N 0.23155 0.33232 0.4147 0.0
N17 N 0.25798 0.3691 0.36145 0.0
N18 N 0.30374 0.40493 0.41251 0.0
C19 C 0.2258 0.33231 0.37963 0.0
C20 C 0.2977 0.40536 0.37752 0.0
C21 C 0.27024 0.36885 0.43145 0.0
C22 C 0.18357 0.29352 0.3607 0.0
C23 C 0.21825 0.24805 0.35917 0.0
C24 C 0.18325 0.21315 0.33778 0.0
C25 C 0.11175 0.22276 0.31817 0.0
C26 C 0.0764 0.26806 0.32029 0.0
C27 C 0.11273 0.30324 0.34087 0.0
C28 C 0.3328 0.44514 0.35677 0.0
C29 C 0.30409 0.45355 0.32313 0.0
C30 C 0.33779 0.49011 0.30311 0.0
C31 C 0.4017 0.51925 0.31578 0.0
C32 C 0.43018 0.51095 0.34961 0.0
C33 C 0.39592 0.47458 0.36987 0.0
C34 C 0.27118 0.37148 0.47006 0.0
C35 C 0.32454 0.40341 0.48721 0.0
C36 C 0.18978 0.07383 0.02295 0.0
C37 C 0.24895 0.09868 0.04248 0.0
C38 C 0.29981 0.13209 0.0257 0.0
C39 C 0.29327 0.13954 0.98998 0.0
H40 H 0.23544 0.24474 0.8743 0.0
H41 H 0.29738 0.30627 0.83732 0.0
H42 H 0.48546 0.20772 0.80442 0.0
H43 H 0.42147 0.14598 0.84024 0.0
H44 H 0.25736 0.05056 0.81316 0.0
H45 H 0.19845 0.98748 0.77856 0.0
H46 H 0.02416 0.95476 0.85968 0.0
H47 H 0.08394 0.01782 0.89477 0.0
H48 H 0.13935 0.05975 0.9729 0.0
H49 H 0.15089 0.04723 0.03509 0.0
H50 H 0.34711 0.15104 0.04003 0.0
H51 H 0.33542 0.16444 0.97783 0.0
N52 N 0.27655 0.15217 0.91461 0.0
N53 N 0.25034 0.11539 0.8614 0.0
N54 N 0.2042 0.07962 0.91251 0.0
C55 C 0.28246 0.15217 0.87954 0.0
C56 C 0.21042 0.07919 0.87752 0.0
C57 C 0.23775 0.11565 0.9314 0.0
C58 C 0.32472 0.19096 0.86057 0.0
C59 C 0.29064 0.23659 0.85948 0.0
C60 C 0.32564 0.27158 0.83812 0.0
C61 C 0.39661 0.26188 0.81812 0.0
C62 C 0.43136 0.21641 0.81977 0.0
C63 C 0.39497 0.18114 0.84031 0.0
C64 C 0.17532 0.03949 0.85683 0.0
C65 C 0.2064 0.02995 0.8237 0.0
C66 C 0.17266 -0.00653 0.80367 0.0
C67 C 0.10618 0.96571 0.8158 0.0
C68 C 0.07535 0.97516 0.84915 0.0
C69 C 0.10979 0.01134 0.86945 0.0
C70 C 0.23685 0.11296 0.97 0.0
C71 C 0.18386 0.08079 0.98721 0.0
C72 C 0.81879 0.1056 0.49554 0.0
C73 C 0.81271 0.15136 0.48158 0.0
C74 C 0.81762 0.19037 0.50388 0.0
C75 C 0.82116 0.18396 0.53946 0.0
H76 H 0.69283 0.24882 0.62073 0.0
H77 H 0.61731 0.30782 0.65455 0.0
H78 H 0.62872 0.21673 0.74367 0.0
H79 H 0.70393 0.15844 0.71061 0.0
H80 H 0.78943 0.07134 0.71157 0.0
H81 H 0.83905 0.00628 0.74646 0.0
H82 H 0.9639 0.94854 0.65733 0.0
H83 H 0.91474 0.01384 0.62239 0.0
H84 H 0.82257 0.06347 0.54169 0.0
H85 H 0.81429 0.07493 0.47893 0.0
H86 H 0.81337 0.22604 0.49381 0.0
H87 H 0.82065 0.21499 0.55583 0.0
N88 N 0.7667 0.16723 0.60911 0.0
N89 N 0.77824 0.12383 0.65992 0.0
N90 N 0.8341 0.09334 0.60882 0.0
C91 C 0.75135 0.16275 0.64331 0.0
C92 C 0.81955 0.0891 0.64337 0.0
C93 C 0.80797 0.13274 0.59158 0.0
C94 C 0.70503 0.19899 0.66291 0.0
C95 C 0.67929 0.24147 0.64753 0.0
C96 C 0.636 0.27514 0.66683 0.0
C97 C 0.61807 0.26688 0.70176 0.0
C98 C 0.6428 0.2243 0.71693 0.0
C99 C 0.68589 0.19083 0.69781 0.0
C100 C 0.84824 0.04802 0.66392 0.0
C101 C 0.82756 0.0448 0.69924 0.0
C102 C 0.85601 0.00741 0.71947 0.0
C103 C 0.90569 0.97212 0.70496 0.0
C104 C 0.92584 0.9751 0.6696 0.0
C105 C 0.89749 0.01256 0.64934 0.0
C106 C 0.82043 0.13831 0.55381 0.0
C107 C 0.823 0.0991 0.53145 0.0
C108 C 0.68954 0.37899 0.99554 0.0
C109 C 0.69533 0.33321 0.98161 0.0
C110 C 0.69037 0.29422 1.00396 0.0
C111 C 0.6871 0.30067 0.03955 0.0
H112 H 0.81609 0.23587 0.12073 0.0
H113 H 0.89162 0.17696 0.15456 0.0
H114 H 0.88017 0.26825 0.24354 0.0
H115 H 0.80499 0.32645 0.21047 0.0
H116 H 0.71835 0.41303 0.21164 0.0
H117 H 0.66891 0.47818 0.24653 0.0
H118 H 0.54566 0.53643 0.15732 0.0
H119 H 0.59461 0.47106 0.12239 0.0
H120 H 0.68619 0.42117 0.04166 0.0
H121 H 0.69408 0.40965 0.97889 0.0
H122 H 0.69438 0.25854 0.99393 0.0
H123 H 0.68757 0.26966 0.05595 0.0
N124 N 0.74208 0.31747 0.10908 0.0
N125 N 0.73048 0.36088 0.15988 0.0
N126 N 0.6745 0.3913 0.10885 0.0
C127 C 0.75746 0.32197 0.14326 0.0
C128 C 0.68906 0.39556 0.14338 0.0
C129 C 0.7007 0.35192 0.09159 0.0
C130 C 0.80388 0.2858 0.16284 0.0
C131 C 0.82963 0.24329 0.1475 0.0
C132 C 0.87293 0.20966 0.16681 0.0
C133 C 0.89083 0.218 0.20171 0.0
C134 C 0.86611 0.26062 0.21683 0.0
C135 C 0.82304 0.29404 0.1977 0.0
C136 C 0.66033 0.43662 0.16395 0.0
C137 C 0.6806 0.4397 0.19929 0.0
C138 C 0.65226 0.47714 0.21953 0.0
C139 C 0.6031 0.51261 0.20499 0.0
C140 C 0.58332 0.50975 0.16962 0.0
C141 C 0.61154 0.47224 0.14936 0.0
C142 C 0.68809 0.34633 0.05385 0.0
C143 C 0.68557 0.38553 0.03145 0.0
C144 C 0.69423 0.57646 0.4932 0.0
C145 C 0.74674 0.60716 0.47469 0.0
C146 C 0.78852 0.64316 0.49276 0.0
C147 C 0.77991 0.6476 0.52862 0.0
H148 H 0.74707 0.7488 0.63498 0.0
H149 H 0.8133 0.81014 0.67083 0.0
H150 H 0.95942 0.70317 0.72133 0.0
H151 H 0.89031 0.64186 0.68692 0.0
H152 H 0.66743 0.57837 0.70928 0.0
H153 H 0.60727 0.51502 0.74353 0.0
H154 H 0.58168 0.42902 0.65241 0.0
H155 H 0.63939 0.49339 0.6175 0.0
H156 H 0.64722 0.55524 0.54263 0.0
H157 H 0.66272 0.54776 0.48006 0.0
H158 H 0.83071 0.66672 0.47925 0.0
H159 H 0.81508 0.67503 0.5416 0.0
N160 N 0.7668 0.65317 0.60362 0.0
N161 N 0.73584 0.61646 0.65636 0.0
N162 N 0.69413 0.58065 0.60467 0.0
C163 C 0.77043 0.65294 0.63867 0.0
C164 C 0.69682 0.58037 0.6398 0.0
C165 C 0.72904 0.61692 0.58626 0.0
C166 C 0.81427 0.69073 0.65799 0.0
C167 C 0.79369 0.7386 0.65361 0.0
C168 C 0.83106 0.77352 0.67423 0.0
C169 C 0.89171 0.76128 0.69865 0.0
C170 C 0.91335 0.71354 0.7025 0.0
C171 C 0.8739 0.67856 0.68283 0.0
C172 C 0.65899 0.54114 0.66043 0.0
C173 C 0.64931 0.54601 0.69634 0.0
C174 C 0.61537 0.50939 0.71621 0.0
C175 C 0.59142 0.46641 0.70102 0.0
C176 C 0.59989 0.46158 0.66507 0.0
C177 C 0.63306 0.49853 0.64501 0.0
C178 C 0.73039 0.61554 0.54758 0.0
C179 C 0.68618 0.58054 0.52917 0.0
C180 C 0.8133 0.90895 0.99327 0.0
C181 C 0.76153 0.87785 0.97485 0.0
C182 C 0.72057 0.84155 0.99298 0.0
C183 C 0.72924 0.83719 0.02884 0.0
H184 H 0.76172 0.73636 0.13519 0.0
H185 H 0.6953 0.67491 0.17101 0.0
H186 H 0.54824 0.78166 0.22142 0.0
H187 H 0.61756 0.84309 0.18706 0.0
H188 H 0.84096 0.9066 0.20933 0.0
H189 H 0.90121 0.96986 0.24352 0.0
H190 H 0.92681 0.05603 0.15241 0.0
H191 H 0.86901 0.99175 0.11755 0.0
H192 H 0.85983 0.93053 0.04262 0.0
H193 H 0.84415 0.93789 0.98007 0.0
H194 H 0.67893 0.81768 0.97955 0.0
H195 H 0.69469 0.80951 0.04187 0.0
N196 N 0.74163 0.83197 0.10379 0.0
N197 N 0.7725 0.86862 0.15649 0.0
N198 N 0.81424 0.9045 0.10475 0.0
C199 C 0.73795 0.83215 0.13884 0.0
C200 C 0.81152 0.90473 0.13989 0.0
C201 C 0.77937 0.86823 0.08639 0.0
C202 C 0.69409 0.79432 0.15818 0.0
C203 C 0.71487 0.74649 0.1538 0.0
C204 C 0.67738 0.7115 0.17439 0.0
C205 C 0.6164 0.72366 0.19878 0.0
C206 C 0.59456 0.77137 0.20262 0.0
C207 C 0.63414 0.80641 0.18298 0.0
C208 C 0.84938 0.94392 0.16048 0.0
C209 C 0.85909 0.93898 0.19637 0.0
C210 C 0.89309 0.97554 0.21621 0.0
C211 C 0.91707 0.01855 0.20101 0.0
C212 C 0.90857 0.02345 0.16508 0.0
C213 C 0.87535 0.98656 0.14504 0.0
C214 C 0.77803 0.86961 0.04772 0.0
C215 C 0.82146 0.90493 0.02923 0.0
C216 C 0.11597 0.86319 0.51557 0.0
C217 C 0.12257 0.81684 0.52851 0.0
C218 C 0.15395 0.7814 0.50684 0.0
C219 C 0.17764 0.79176 0.47307 0.0
H220 H 0.30485 0.73197 0.39278 0.0
H221 H 0.37677 0.67211 0.35846 0.0
H222 H 0.38905 0.76926 0.2728 0.0
H223 H 0.31677 0.82839 0.30629 0.0
H224 H 0.23069 0.91826 0.30668 0.0
H225 H 0.18422 0.98563 0.27352 0.0
H226 H 0.0646 0.0423 0.36422 0.0
H227 H 0.11013 0.97414 0.39751 0.0
H228 H 0.13267 0.90949 0.47218 0.0
H229 H 0.09166 0.89125 0.53162 0.0
H230 H 0.16094 0.74549 0.5161 0.0
H231 H 0.20132 0.7632 0.45733 0.0
N232 N 0.23751 0.81419 0.40555 0.0
N233 N 0.23946 0.86276 0.35697 0.0
N234 N 0.17502 0.88927 0.40754 0.0
C235 C 0.25996 0.82153 0.37231 0.0
C236 C 0.19727 0.89682 0.37402 0.0
C237 C 0.19527 0.84778 0.42349 0.0
C238 C 0.30444 0.78495 0.35229 0.0
C239 C 0.32249 0.74044 0.36657 0.0
C240 C 0.36349 0.70616 0.34697 0.0
C241 C 0.38659 0.71576 0.31278 0.0
C242 C 0.36957 0.76033 0.29872 0.0
C243 C 0.32876 0.79444 0.31816 0.0
C244 C 0.17339 0.94029 0.35491 0.0
C245 C 0.19471 0.94506 0.3198 0.0
C246 C 0.1682 0.98392 0.3006 0.0
C247 C 0.11988 0.01925 0.31594 0.0
C248 C 0.10115 0.0155 0.35136 0.0
C249 C 0.12728 0.97639 0.37058 0.0
C250 C 0.17021 0.83789 0.45976 0.0
C251 C 0.13903 0.87356 0.48146 0.0
C252 C 0.39205 0.62159 0.01543 0.0
C253 C 0.38533 0.66792 0.02841 0.0
C254 C 0.35372 0.70335 0.0068 0.0
C255 C 0.32993 0.693 0.97307 0.0
H256 H 0.20232 0.75276 0.89285 0.0
H257 H 0.13034 0.81254 0.85851 0.0
H258 H 0.11844 0.71524 0.773 0.0
H259 H 0.19075 0.65622 0.80648 0.0
H260 H 0.27762 0.56663 0.80671 0.0
H261 H 0.32423 0.49926 0.77356 0.0
H262 H 0.44299 0.44243 0.86426 0.0
H263 H 0.39732 0.51058 0.89754 0.0
H264 H 0.37536 0.57533 0.97208 0.0
H265 H 0.41654 0.59354 0.03142 0.0
H266 H 0.34664 0.73923 0.01609 0.0
H267 H 0.30608 0.72155 0.95739 0.0
N268 N 0.27002 0.67057 0.90562 0.0
N269 N 0.26816 0.62198 0.85706 0.0
N270 N 0.33273 0.59554 0.90754 0.0
C271 C 0.24755 0.6632 0.87241 0.0
C272 C 0.31048 0.58797 0.87407 0.0
C273 C 0.31239 0.63701 0.92351 0.0
C274 C 0.20293 0.69973 0.85242 0.0
C275 C 0.18474 0.74425 0.86666 0.0
C276 C 0.14369 0.77847 0.84706 0.0
C277 C 0.1207 0.76882 0.8129 0.0
C278 C 0.13782 0.72423 0.79889 0.0
C279 C 0.17866 0.69018 0.81833 0.0
C280 C 0.33448 0.54452 0.85494 0.0
C281 C 0.31344 0.53979 0.81983 0.0
C282 C 0.34003 0.50094 0.80063 0.0
C283 C 0.38816 0.46556 0.81597 0.0
C284 C 0.4066 0.46926 0.85139 0.0
C285 C 0.38041 0.50838 0.87061 0.0
C286 C 0.33749 0.6469 0.95974 0.0
C287 C 0.36889 0.61124 0.98137 0.0
Eu288 Eu 0.11142 0.12607 0.22565 0.0
C289 C 0.74737 0.07804 0.25699 0.0
N290 N 0.78776 0.12028 0.25959 0.0
C291 C 0.67758 0.15822 0.22864 0.0
C292 C 0.67238 0.07393 0.2384 0.0
C293 C 0.75095 0.16055 0.24781 0.0
C294 C 0.63897 0.11454 0.22328 0.0
C295 C 0.73489 -0.00411 0.27471 0.0
C296 C 0.77781 0.03947 0.27503 0.0
C297 C 0.66251 0.99108 0.25486 0.0
C298 C 0.63136 0.02999 0.23671 0.0
Eu299 Eu 0.91328 0.11982 0.2917 0.0
N300 N 0.84877 0.04488 0.29356 0.0
C301 C 0.76541 0.95869 0.29483 0.0
C302 C 0.87686 0.00957 0.31439 0.0
C303 C 0.83618 0.96575 0.31505 0.0
H304 H 0.77652 0.19476 0.25404 0.0
H305 H 0.85932 0.93749 0.33116 0.0
H306 H 0.26573 0.07313 0.26745 0.0
H307 H 0.08735 0.30997 0.18126 0.0
H308 H 0.93099 0.0153 0.33023 0.0
H309 H 0.73399 0.92476 0.29538 0.0
H310 H 0.05254 0.22526 0.1821 0.0
H311 H 0.64988 0.19024 0.21868 0.0
H312 H 0.62918 0.95771 0.25396 0.0
H313 H 0.57416 0.02611 0.22227 0.0
H314 H 0.3968 0.09492 0.29694 0.0
H315 H 0.58143 0.1129 0.20886 0.0
H316 H 0.20711 0.3398 0.21483 0.0
N317 N 0.23795 0.1438 0.2532 0.0
C318 C 0.26322 0.18973 0.25264 0.0
C319 C 0.35951 0.12194 0.28478 0.0
C320 C 0.33688 0.20385 0.26942 0.0
C321 C 0.28538 0.10971 0.26819 0.0
C322 C 0.38504 0.16926 0.28566 0.0
N323 N 0.14376 0.20777 0.21951 0.0
C324 C 0.10122 0.23803 0.19866 0.0
C325 C 0.23843 0.27074 0.23503 0.0
C326 C 0.21401 0.22275 0.23584 0.0
C327 C 0.19045 0.30265 0.21612 0.0
C328 C 0.1225 0.28601 0.19731 0.0
H329 H 0.44222 0.17865 0.29873 0.0
H330 H 0.41596 0.26342 0.28248 0.0
H331 H 0.32999 0.32197 0.25229 0.0
O332 O 0.16412 0.13913 0.1744 0.0
O333 O 0.12203 0.15416 0.2809 0.0
O334 O 0.99381 0.18607 0.2901 0.0
O335 O 0.18299 0.07046 0.199 0.0
O336 O 0.98801 0.1545 0.20668 0.0
O337 O 0.92674 0.18314 0.25608 0.0
O338 O 0.91769 0.12045 0.34935 0.0
O339 O 0.94045 0.05708 0.25608 0.0
O340 O 0.99065 0.09274 0.20739 0.0
O341 O 0.8112 0.14781 0.32112 0.0
O342 O 0.03351 0.08749 0.31059 0.0
O343 O 0.10615 0.06189 0.26185 0.0
C344 C 0.07434 0.1861 0.29542 0.0
C345 C 0.24125 0.0812 0.14073 0.0
C346 C 0.26817 0.08324 0.07831 0.0
C347 C 0.33287 0.05079 0.0831 0.0
C348 C 0.30566 0.04833 0.14444 0.0
C349 C 0.35128 0.03348 0.11586 0.0
C350 C 0.22238 0.09868 0.10735 0.0
C351 C 0.93564 0.18272 0.22242 0.0
C352 C 0.19511 0.09694 0.17186 0.0
C353 C 0.35991 0.25181 0.2695 0.0
C354 C 0.31078 0.28517 0.2524 0.0
C355 C 0.9509 0.05785 0.22248 0.0
C356 C 0.79933 0.15361 0.38286 0.0
C357 C 0.78433 0.15914 0.44561 0.0
C358 C 0.70955 0.18382 0.4409 0.0
C359 C 0.72414 0.17846 0.37933 0.0
C360 C 0.82917 0.14349 0.41637 0.0
C361 C 0.67978 0.19325 0.40807 0.0
C362 C 0.08567 0.05854 0.295 0.0
C363 C 0.84446 0.13992 0.35098 0.0
H364 H 0.36872 0.03839 0.06128 0.0
H365 H 0.32142 0.03445 0.1696 0.0
H366 H 0.40112 0.0083 0.1191 0.0
H367 H 0.17223 0.12368 0.10395 0.0
H368 H 0.67366 0.19578 0.46285 0.0
H369 H 0.69927 0.18688 0.35417 0.0
H370 H 0.887 0.12457 0.41968 0.0
H371 H 0.62212 0.21233 0.40488 0.0
Eu372 Eu 0.3972 0.3587 0.72573 0.0
C373 C 0.76106 0.40699 0.75701 0.0
N374 N 0.72072 0.36472 0.7596 0.0
C375 C 0.83117 0.3269 0.7286 0.0
C376 C 0.83616 0.41118 0.7384 0.0
C377 C 0.75768 0.32449 0.7478 0.0
C378 C 0.86974 0.37061 0.72326 0.0
C379 C 0.77326 0.48911 0.77476 0.0
C380 C 0.73042 0.4455 0.77507 0.0
C381 C 0.84577 0.494 0.75489 0.0
C382 C 0.87711 0.45514 0.73672 0.0
Eu383 Eu 0.595 0.36505 0.79174 0.0
N384 N 0.65935 0.44002 0.79361 0.0
C385 C 0.74253 0.52626 0.79489 0.0
C386 C 0.63104 0.47528 0.81446 0.0
C387 C 0.67163 0.51913 0.81513 0.0
H388 H 0.73212 0.29026 0.754 0.0
H389 H 0.64833 0.54735 0.83125 0.0
H390 H 0.24264 0.41161 0.76758 0.0
H391 H 0.42186 0.17472 0.68164 0.0
H392 H 0.57682 0.46949 0.83031 0.0
H393 H 0.77388 0.56021 0.79546 0.0
H394 H 0.45648 0.25946 0.68232 0.0
H395 H 0.85899 0.29491 0.71863 0.0
H396 H 0.87904 0.5274 0.754 0.0
H397 H 0.93439 0.45908 0.72228 0.0
H398 H 0.11153 0.38979 0.79722 0.0
H399 H 0.92737 0.37231 0.70883 0.0
H400 H 0.30203 0.14488 0.71534 0.0
N401 N 0.27061 0.34094 0.75341 0.0
C402 C 0.24542 0.29499 0.75293 0.0
C403 C 0.14891 0.36277 0.78507 0.0
C404 C 0.17175 0.28086 0.76979 0.0
C405 C 0.22306 0.37502 0.76839 0.0
C406 C 0.12348 0.31544 0.78604 0.0
N407 N 0.36505 0.27697 0.71974 0.0
C408 C 0.40775 0.2467 0.69893 0.0
C409 C 0.27045 0.21396 0.73543 0.0
C410 C 0.29475 0.26198 0.73614 0.0
C411 C 0.31859 0.18205 0.71654 0.0
C412 C 0.38658 0.19869 0.69767 0.0
H413 H 0.06628 0.30602 0.79917 0.0
H414 H 0.09276 0.22125 0.78301 0.0
H415 H 0.17896 0.16271 0.75285 0.0
O416 O 0.34484 0.34549 0.67449 0.0
O417 O 0.38647 0.33064 0.781 0.0
O418 O 0.51466 0.29875 0.79011 0.0
O419 O 0.32551 0.41415 0.69903 0.0
O420 O 0.52078 0.33035 0.70672 0.0
O421 O 0.58188 0.30177 0.75612 0.0
O422 O 0.59019 0.36425 0.84941 0.0
O423 O 0.56797 0.42779 0.75611 0.0
O424 O 0.51799 0.39216 0.70744 0.0
O425 O 0.69694 0.3371 0.82113 0.0
O426 O 0.47458 0.39732 0.81063 0.0
O427 O 0.40218 0.4229 0.7619 0.0
C428 C 0.4341 0.29866 0.79544 0.0
C429 C 0.26744 0.40329 0.64083 0.0
C430 C 0.24029 0.40108 0.57845 0.0
C431 C 0.17546 0.43344 0.58333 0.0
C432 C 0.20291 0.43608 0.64461 0.0
C433 C 0.15712 0.4508 0.6161 0.0
C434 C 0.28628 0.38577 0.60744 0.0
C435 C 0.57317 0.30219 0.72246 0.0
C436 C 0.31361 0.38763 0.67193 0.0
C437 C 0.14882 0.23287 0.76997 0.0
C438 C 0.19808 0.19951 0.75288 0.0
C439 C 0.55761 0.42706 0.72251 0.0
C440 C 0.70845 0.33097 0.88284 0.0
C441 C 0.7235 0.32534 0.94557 0.0
C442 C 0.798 0.30041 0.94074 0.0
C443 C 0.78334 0.30584 0.87919 0.0
C444 C 0.67878 0.34118 0.91639 0.0
C445 C 0.82759 0.29088 0.90786 0.0
C446 C 0.42249 0.42626 0.79503 0.0
C447 C 0.66346 0.34482 0.851 0.0
H448 H 0.13945 0.44574 0.56156 0.0
H449 H 0.18715 0.44998 0.66977 0.0
H450 H 0.10717 0.47592 0.6194 0.0
H451 H 0.33651 0.36082 0.60398 0.0
H452 H 0.83382 0.28832 0.96262 0.0
H453 H 0.80808 0.29733 0.85399 0.0
H454 H 0.62116 0.36031 0.9198 0.0
H455 H 0.88503 0.27159 0.90458 0.0
Eu456 Eu 0.09533 0.86111 0.72162 0.0
C457 C 0.74258 0.80061 0.75939 0.0
N458 N 0.7713 0.84597 0.76002 0.0
C459 C 0.6538 0.87205 0.72758 0.0
C460 C 0.66873 0.78911 0.74174 0.0
C461 C 0.72789 0.88175 0.74504 0.0
C462 C 0.62423 0.82554 0.72581 0.0
C463 C 0.76275 0.71776 0.7735 0.0
C464 C 0.78977 0.76527 0.77494 0.0
C465 C 0.68931 0.7062 0.75581 0.0
C466 C 0.64241 0.74175 0.74003 0.0
Eu467 Eu 0.89688 0.85871 0.78949 0.0
N468 N 0.86219 0.77719 0.79109 0.0
C469 C 0.81018 0.68321 0.79004 0.0
C470 C 0.90523 0.74408 0.80924 0.0
C471 C 0.88097 0.69655 0.80842 0.0
H472 H 0.75069 0.9177 0.74646 0.0
H473 H 0.91624 0.6703 0.82239 0.0
H474 H 0.21054 0.76523 0.7393 0.0
H475 H 0.19644 0.04203 0.69712 0.0
H476 H 0.95671 0.75414 0.82529 0.0
H477 H 0.79155 0.64638 0.78948 0.0
H478 H 0.09729 0.97457 0.69887 0.0
H479 H 0.61962 0.9004 0.71546 0.0
H480 H 0.6681 0.66982 0.75426 0.0
H481 H 0.58598 0.73222 0.72646 0.0
H482 H 0.35259 0.74673 0.75913 0.0
H483 H 0.5671 0.81815 0.71205 0.0
H484 H 0.34036 0.03151 0.71818 0.0
N485 N 0.23047 0.83951 0.73915 0.0
C486 C 0.28704 0.87519 0.74144 0.0
C487 C 0.33471 0.78309 0.75468 0.0
C488 C 0.36982 0.86618 0.75131 0.0
C489 C 0.25384 0.79371 0.74413 0.0
C490 C 0.39276 0.81955 0.75871 0.0
N491 N 0.18367 0.92775 0.72186 0.0
C492 C 0.15988 0.97014 0.70831 0.0
C493 C 0.32211 0.95766 0.73129 0.0
C494 C 0.26343 0.92045 0.73187 0.0
C495 C 0.29714 0.00203 0.71906 0.0
C496 C 0.21589 0.00814 0.70716 0.0
H497 H 0.45568 0.81116 0.76643 0.0
H498 H 0.49107 0.89745 0.76033 0.0
H499 H 0.44961 0.97742 0.74239 0.0
O500 O 0.06609 0.87718 0.66804 0.0
O501 O 0.10143 0.91839 0.76349 0.0
O502 O 0.00171 0.9065 0.8066 0.0
O503 O 0.16824 0.83074 0.67946 0.0
O504 O 0.97576 0.8986 0.70934 0.0
O505 O 0.91007 0.92676 0.75814 0.0
O506 O 0.85885 0.84205 0.84275 0.0
O507 O 0.88828 0.83203 0.7337 0.0
O508 O 0.01316 0.7959 0.72521 0.0
O509 O 0.80776 0.90401 0.81676 0.0
O510 O 0.02061 0.83042 0.80832 0.0
O511 O 0.07671 0.80025 0.75863 0.0
C512 C 0.06815 0.92772 0.79396 0.0
C513 C 0.09888 0.81994 0.6263 0.0
C514 C 0.09648 0.80473 0.56431 0.0
C515 C 0.04984 0.76334 0.57063 0.0
C516 C 0.05335 0.7783 0.63197 0.0
C517 C 0.02838 0.75037 0.60421 0.0
C518 C 0.11999 0.83324 0.59246 0.0
C519 C 0.93632 0.93202 0.726 0.0
C520 C 0.12376 0.85016 0.65536 0.0
C521 C 0.42751 0.90361 0.75243 0.0
C522 C 0.40385 0.94918 0.74226 0.0
C523 C 0.93269 0.79791 0.72006 0.0
C524 C 0.76068 0.8901 0.87605 0.0
C525 C 0.73697 0.88886 0.93871 0.0
C526 C 0.66072 0.91163 0.93345 0.0
C527 C 0.68446 0.91336 0.87191 0.0
C528 C 0.78712 0.87786 0.90978 0.0
C529 C 0.6349 0.92383 0.90037 0.0
C530 C 0.07552 0.8041 0.7923 0.0
C531 C 0.81033 0.87862 0.8448 0.0
H532 H 0.0298 0.74099 0.54954 0.0
H533 H 0.03743 0.76739 0.65783 0.0
H534 H 0.99263 0.71843 0.60875 0.0
H535 H 0.15614 0.86517 0.58816 0.0
H536 H 0.62121 0.92034 0.95515 0.0
H537 H 0.66255 0.92299 0.8465 0.0
H538 H 0.84597 0.86012 0.9135 0.0
H539 H 0.57602 0.94151 0.89677 0.0
Eu540 Eu 0.41335 0.62319 0.22151 0.0
C541 C 0.76531 0.68417 0.25947 0.0
N542 N 0.73654 0.63881 0.26008 0.0
C543 C 0.85456 0.61273 0.22781 0.0
C544 C 0.83938 0.69568 0.24186 0.0
C545 C 0.78022 0.60304 0.24519 0.0
C546 C 0.88412 0.65925 0.22601 0.0
C547 C 0.74497 0.76701 0.27354 0.0
C548 C 0.71799 0.71949 0.27501 0.0
C549 C 0.81857 0.77859 0.25587 0.0
C550 C 0.86568 0.74304 0.24014 0.0
Eu551 Eu 0.61071 0.62599 0.28956 0.0
N552 N 0.64544 0.70753 0.29115 0.0
C553 C 0.69732 0.80154 0.29003 0.0
C554 C 0.60214 0.74064 0.30923 0.0
C555 C 0.62634 0.78819 0.30838 0.0
H556 H 0.75746 0.56708 0.24664 0.0
H557 H 0.59087 0.81443 0.3223 0.0
H558 H 0.29755 0.71891 0.2392 0.0
H559 H 0.31185 0.44268 0.19608 0.0
H560 H 0.55047 0.73058 0.32525 0.0
H561 H 0.7159 0.83839 0.28944 0.0
H562 H 0.41089 0.51019 0.19785 0.0
H563 H 0.88896 0.58438 0.21576 0.0
H564 H 0.83976 0.81497 0.2543 0.0
H565 H 0.92225 0.75259 0.2266 0.0
H566 H 0.15558 0.73724 0.25933 0.0
H567 H 0.94143 0.66665 0.2123 0.0
H568 H 0.16837 0.45277 0.21794 0.0
N569 N 0.27817 0.64458 0.23941 0.0
C570 C 0.22174 0.60884 0.24185 0.0
C571 C 0.17364 0.7009 0.25496 0.0
C572 C 0.13893 0.61776 0.25185 0.0
C573 C 0.25451 0.69037 0.24425 0.0
C574 C 0.1158 0.66436 0.25921 0.0
N575 N 0.32496 0.55656 0.2217 0.0
C576 C 0.34849 0.51441 0.20765 0.0
C577 C 0.18675 0.52644 0.23151 0.0
C578 C 0.2454 0.56366 0.23212 0.0
C579 C 0.21157 0.48226 0.21886 0.0
C580 C 0.29256 0.4764 0.2065 0.0
H581 H 0.05284 0.67269 0.267 0.0
H582 H 0.01771 0.58638 0.26097 0.0
H583 H 0.05931 0.50653 0.24278 0.0
O584 O 0.44381 0.60763 0.16794 0.0
O585 O 0.41011 0.56463 0.26257 0.0
O586 O 0.50238 0.58103 0.30753 0.0
O587 O 0.34026 0.65308 0.17928 0.0
O588 O 0.53365 0.58633 0.20933 0.0
O589 O 0.59816 0.55789 0.25822 0.0
O590 O 0.65046 0.64308 0.34246 0.0
O591 O 0.61983 0.6529 0.23382 0.0
O592 O 0.49478 0.68869 0.22513 0.0
O593 O 0.69799 0.57977 0.31699 0.0
O594 O 0.48692 0.65433 0.30834 0.0
O595 O 0.43084 0.68412 0.25856 0.0
C596 C 0.43963 0.55744 0.29397 0.0
C597 C 0.40986 0.66453 0.12614 0.0
C598 C 0.41156 0.67999 0.06416 0.0
C599 C 0.45804 0.72143 0.0704 0.0
C600 C 0.45527 0.70622 0.13174 0.0
C601 C 0.47979 0.7343 0.10394 0.0
C602 C 0.38846 0.65134 0.09234 0.0
C603 C 0.57261 0.55277 0.226 0.0
C604 C 0.38554 0.63409 0.15521 0.0
C605 C 0.08132 0.58028 0.25301 0.0
C606 C 0.10505 0.53478 0.24269 0.0
C607 C 0.57538 0.68696 0.22017 0.0
C608 C 0.74679 0.59423 0.37591 0.0
C609 C 0.77103 0.59595 0.43852 0.0
C610 C 0.84722 0.57312 0.43314 0.0
C611 C 0.82291 0.57089 0.37167 0.0
C612 C 0.72065 0.60675 0.40967 0.0
C613 C 0.87272 0.56064 0.40004 0.0
C614 C 0.43196 0.68046 0.29225 0.0
C615 C 0.69723 0.60583 0.34473 0.0
H616 H 0.47779 0.74389 0.04929 0.0
H617 H 0.47148 0.71702 0.15756 0.0
H618 H 0.51545 0.76628 0.10842 0.0
H619 H 0.35245 0.61937 0.0881 0.0
H620 H 0.88692 0.56456 0.45476 0.0
H621 H 0.84462 0.56112 0.34623 0.0
H622 H 0.6619 0.6246 0.41346 0.0
H623 H 0.93157 0.54293 0.39635 0.0
loop_
_geom_bond_atom_site_label_1
_geom_bond_atom_site_label_2
_geom_bond_distance
_geom_bond_site_symmetry_2
_ccdc_geom_bond_type
C0 C1 1.384 . S
C0 H13 0.947 . S
C0 C35 1.382 . S
C1 C0 1.384 . S
C1 C2 1.378 . S
C2 C1 1.378 . S
C2 C3 1.378 . S
C2 H14 0.952 . S
C3 C2 1.378 . S
C3 H15 0.950 . S
C3 C34 1.383 . S
H4 C23 0.947 . S
H5 C24 0.946 . S
H6 C26 0.953 . S
H7 C27 0.945 . S
H8 C29 0.952 . S
H9 C30 0.949 . S
H10 C32 0.950 . S
H11 C33 0.948 . S
H12 C35 0.951 . S
H13 C0 0.947 . S
H14 C2 0.952 . S
H15 C3 0.950 . S
N16 C19 1.382 . S
N16 C21 1.363 . S
N17 C19 1.371 . S
N17 C20 1.372 . S
N18 C20 1.361 . S
N18 C21 1.377 . S
C19 N16 1.382 . S
C19 N17 1.371 . S
C19 C22 1.480 . S
C20 N17 1.372 . S
C20 N18 1.361 . S
C20 C28 1.457 . S
C21 N16 1.363 . S
C21 N18 1.377 . S
C21 C34 1.479 . S
C22 C19 1.480 . S
C22 C23 1.383 . S
C22 C27 1.385 . S
C23 H4 0.947 . S
C23 C22 1.383 . S
C23 C24 1.388 . S
C24 H5 0.946 . S
C24 C23 1.388 . S
C24 C25 1.384 . S
C25 C24 1.384 . S
C25 C26 1.377 . S
C26 H6 0.953 . S
C26 C25 1.377 . S
C26 C27 1.369 . S
C27 H7 0.945 . S
C27 C22 1.385 . S
C27 C26 1.369 . S
C28 C20 1.457 . S
C28 C29 1.372 . S
C28 C33 1.364 . S
C29 H8 0.952 . S
C29 C28 1.372 . S
C29 C30 1.389 . S
C30 H9 0.949 . S
C30 C29 1.389 . S
C30 C31 1.387 . S
C31 C30 1.387 . S
C31 C32 1.372 . S
C32 H10 0.950 . S
C32 C31 1.372 . S
C32 C33 1.379 . S
C33 H11 0.948 . S
C33 C28 1.364 . S
C33 C32 1.379 . S
C34 C3 1.383 . S
C34 C21 1.479 . S
C34 C35 1.398 . S
C35 C0 1.382 . S
C35 H12 0.951 . S
C35 C34 1.398 . S
C36 C37 1.384 . S
C36 H49 0.947 . S
C36 C71 1.382 1_554 S
C37 C36 1.384 . S
C37 C38 1.378 . S
C38 C37 1.378 . S
C38 C39 1.378 1_554 S
C38 H50 0.952 . S
C39 C38 1.378 1_556 S
C39 H51 0.950 . S
C39 C70 1.383 . S
H40 C59 0.947 . S
H41 C60 0.946 . S
H42 C62 0.953 . S
H43 C63 0.945 . S
H44 C65 0.952 . S
H45 C66 0.949 . S
H46 C68 0.950 . S
H47 C69 0.948 . S
H48 C71 0.951 . S
H49 C36 0.947 . S
H50 C38 0.952 . S
H51 C39 0.950 . S
N52 C55 1.382 . S
N52 C57 1.363 . S
N53 C55 1.371 . S
N53 C56 1.372 . S
N54 C56 1.361 . S
N54 C57 1.377 . S
C55 N52 1.382 . S
C55 N53 1.371 . S
C55 C58 1.480 . S
C56 N53 1.372 . S
C56 N54 1.361 . S
C56 C64 1.457 . S
C57 N52 1.363 . S
C57 N54 1.377 . S
C57 C70 1.479 . S
C58 C55 1.480 . S
C58 C59 1.383 . S
C58 C63 1.385 . S
C59 H40 0.947 . S
C59 C58 1.383 . S
C59 C60 1.388 . S
C60 H41 0.946 . S
C60 C59 1.388 . S
C60 C61 1.384 . S
C61 C60 1.384 . S
C61 C62 1.377 . S
C62 H42 0.953 . S
C62 C61 1.377 . S
C62 C63 1.369 . S
C63 H43 0.945 . S
C63 C58 1.385 . S
C63 C62 1.369 . S
C64 C56 1.457 . S
C64 C65 1.372 . S
C64 C69 1.364 . S
C65 H44 0.952 . S
C65 C64 1.372 . S
C65 C66 1.389 1_545 S
C66 H45 0.949 . S
C66 C65 1.389 1_565 S
C66 C67 1.387 . S
C67 C66 1.387 . S
C67 C68 1.372 . S
C68 H46 0.950 . S
C68 C67 1.372 . S
C68 C69 1.379 1_565 S
C69 H47 0.948 . S
C69 C64 1.364 . S
C69 C68 1.379 1_545 S
C70 C39 1.383 . S
C70 C57 1.479 . S
C70 C71 1.398 . S
C71 C36 1.382 1_556 S
C71 H48 0.951 . S
C71 C70 1.398 . S
C72 C73 1.384 . S
C72 H85 0.947 . S
C72 C107 1.382 . S
C73 C72 1.384 . S
C73 C74 1.378 . S
C74 C73 1.378 . S
C74 C75 1.378 . S
C74 H86 0.952 . S
C75 C74 1.378 . S
C75 H87 0.950 . S
C75 C106 1.383 . S
H76 C95 0.947 . S
H77 C96 0.946 . S
H78 C98 0.953 . S
H79 C99 0.945 . S
H80 C101 0.952 . S
H81 C102 0.949 . S
H82 C104 0.950 . S
H83 C105 0.948 . S
H84 C107 0.951 . S
H85 C72 0.947 . S
H86 C74 0.952 . S
H87 C75 0.950 . S
N88 C91 1.382 . S
N88 C93 1.363 . S
N89 C91 1.371 . S
N89 C92 1.372 . S
N90 C92 1.361 . S
N90 C93 1.377 . S
C91 N88 1.382 . S
C91 N89 1.371 . S
C91 C94 1.480 . S
C92 N89 1.372 . S
C92 N90 1.361 . S
C92 C100 1.457 . S
C93 N88 1.363 . S
C93 N90 1.377 . S
C93 C106 1.479 . S
C94 C91 1.480 . S
C94 C95 1.383 . S
C94 C99 1.385 . S
C95 H76 0.947 . S
C95 C94 1.383 . S
C95 C96 1.388 . S
C96 H77 0.946 . S
C96 C95 1.388 . S
C96 C97 1.384 . S
C97 C96 1.384 . S
C97 C98 1.377 . S
C98 H78 0.953 . S
C98 C97 1.377 . S
C98 C99 1.369 . S
C99 H79 0.945 . S
C99 C94 1.385 . S
C99 C98 1.369 . S
C100 C92 1.457 . S
C100 C101 1.372 . S
C100 C105 1.364 . S
C101 H80 0.952 . S
C101 C100 1.372 . S
C101 C102 1.389 1_545 S
C102 H81 0.949 . S
C102 C101 1.389 1_565 S
C102 C103 1.387 . S
C103 C102 1.387 . S
C103 C104 1.372 . S
C104 H82 0.950 . S
C104 C103 1.372 . S
C104 C105 1.379 1_565 S
C105 H83 0.948 . S
C105 C100 1.364 . S
C105 C104 1.379 1_545 S
C106 C75 1.383 . S
C106 C93 1.479 . S
C106 C107 1.398 . S
C107 C72 1.382 . S
C107 H84 0.951 . S
C107 C106 1.398 . S
C108 C109 1.384 . S
C108 H121 0.947 . S
C108 C143 1.382 1_556 S
C109 C108 1.384 . S
C109 C110 1.378 . S
C110 C109 1.378 . S
C110 C111 1.378 1_556 S
C110 H122 0.952 . S
C111 C110 1.378 1_554 S
C111 H123 0.950 . S
C111 C142 1.383 . S
H112 C131 0.947 . S
H113 C132 0.946 . S
H114 C134 0.953 . S
H115 C135 0.945 . S
H116 C137 0.952 . S
H117 C138 0.949 . S
H118 C140 0.950 . S
H119 C141 0.948 . S
H120 C143 0.951 . S
H121 C108 0.947 . S
H122 C110 0.952 . S
H123 C111 0.950 . S
N124 C127 1.382 . S
N124 C129 1.363 . S
N125 C127 1.371 . S
N125 C128 1.372 . S
N126 C128 1.361 . S
N126 C129 1.377 . S
C127 N124 1.382 . S
C127 N125 1.371 . S
C127 C130 1.480 . S
C128 N125 1.372 . S
C128 N126 1.361 . S
C128 C136 1.457 . S
C129 N124 1.363 . S
C129 N126 1.377 . S
C129 C142 1.479 . S
C130 C127 1.480 . S
C130 C131 1.383 . S
C130 C135 1.385 . S
C131 H112 0.947 . S
C131 C130 1.383 . S
C131 C132 1.388 . S
C132 H113 0.946 . S
C132 C131 1.388 . S
C132 C133 1.384 . S
C133 C132 1.384 . S
C133 C134 1.377 . S
C134 H114 0.953 . S
C134 C133 1.377 . S
C134 C135 1.369 . S
C135 H115 0.945 . S
C135 C130 1.385 . S
C135 C134 1.369 . S
C136 C128 1.457 . S
C136 C137 1.372 . S
C136 C141 1.364 . S
C137 H116 0.952 . S
C137 C136 1.372 . S
C137 C138 1.389 . S
C138 H117 0.949 . S
C138 C137 1.389 . S
C138 C139 1.387 . S
C139 C138 1.387 . S
C139 C140 1.372 . S
C140 H118 0.950 . S
C140 C139 1.372 . S
C140 C141 1.379 . S
C141 H119 0.948 . S
C141 C136 1.364 . S
C141 C140 1.379 . S
C142 C111 1.383 . S
C142 C129 1.479 . S
C142 C143 1.398 . S
C143 C108 1.382 1_554 S
C143 H120 0.951 . S
C143 C142 1.398 . S
C144 C145 1.384 . S
C144 H157 0.947 . S
C144 C179 1.382 . S
C145 C144 1.384 . S
C145 C146 1.378 . S
C146 C145 1.378 . S
C146 C147 1.378 . S
C146 H158 0.952 . S
C147 C146 1.378 . S
C147 H159 0.950 . S
C147 C178 1.383 . S
H148 C167 0.947 . S
H149 C168 0.946 . S
H150 C170 0.953 . S
H151 C171 0.945 . S
H152 C173 0.952 . S
H153 C174 0.949 . S
H154 C176 0.950 . S
H155 C177 0.948 . S
H156 C179 0.951 . S
H157 C144 0.947 . S
H158 C146 0.952 . S
H159 C147 0.950 . S
N160 C163 1.382 . S
N160 C165 1.363 . S
N161 C163 1.371 . S
N161 C164 1.372 . S
N162 C164 1.361 . S
N162 C165 1.377 . S
C163 N160 1.382 . S
C163 N161 1.371 . S
C163 C166 1.480 . S
C164 N161 1.372 . S
C164 N162 1.361 . S
C164 C172 1.457 . S
C165 N160 1.363 . S
C165 N162 1.377 . S
C165 C178 1.479 . S
C166 C163 1.480 . S
C166 C167 1.383 . S
C166 C171 1.385 . S
C167 H148 0.947 . S
C167 C166 1.383 . S
C167 C168 1.388 . S
C168 H149 0.946 . S
C168 C167 1.388 . S
C168 C169 1.384 . S
C169 C168 1.384 . S
C169 C170 1.377 . S
C170 H150 0.953 . S
C170 C169 1.377 . S
C170 C171 1.369 . S
C171 H151 0.945 . S
C171 C166 1.385 . S
C171 C170 1.369 . S
C172 C164 1.457 . S
C172 C173 1.372 . S
C172 C177 1.364 . S
C173 H152 0.952 . S
C173 C172 1.372 . S
C173 C174 1.389 . S
C174 H153 0.949 . S
C174 C173 1.389 . S
C174 C175 1.387 . S
C175 C174 1.387 . S
C175 C176 1.372 . S
C176 H154 0.950 . S
C176 C175 1.372 . S
C176 C177 1.379 . S
C177 H155 0.948 . S
C177 C172 1.364 . S
C177 C176 1.379 . S
C178 C147 1.383 . S
C178 C165 1.479 . S
C178 C179 1.398 . S
C179 C144 1.382 . S
C179 H156 0.951 . S
C179 C178 1.398 . S
C180 C181 1.384 . S
C180 H193 0.947 . S
C180 C215 1.382 1_556 S
C181 C180 1.384 . S
C181 C182 1.378 . S
C182 C181 1.378 . S
C182 C183 1.378 1_556 S
C182 H194 0.952 . S
C183 C182 1.378 1_554 S
C183 H195 0.950 . S
C183 C214 1.383 . S
H184 C203 0.947 . S
H185 C204 0.946 . S
H186 C206 0.953 . S
H187 C207 0.945 . S
H188 C209 0.952 . S
H189 C210 0.949 . S
H190 C212 0.950 . S
H191 C213 0.948 . S
H192 C215 0.951 . S
H193 C180 0.947 . S
H194 C182 0.952 . S
H195 C183 0.950 . S
N196 C199 1.382 . S
N196 C201 1.363 . S
N197 C199 1.371 . S
N197 C200 1.372 . S
N198 C200 1.361 . S
N198 C201 1.377 . S
C199 N196 1.382 . S
C199 N197 1.371 . S
C199 C202 1.480 . S
C200 N197 1.372 . S
C200 N198 1.361 . S
C200 C208 1.457 . S
C201 N196 1.363 . S
C201 N198 1.377 . S
C201 C214 1.479 . S
C202 C199 1.480 . S
C202 C203 1.383 . S
C202 C207 1.385 . S
C203 H184 0.947 . S
C203 C202 1.383 . S
C203 C204 1.388 . S
C204 H185 0.946 . S
C204 C203 1.388 . S
C204 C205 1.384 . S
C205 C204 1.384 . S
C205 C206 1.377 . S
C206 H186 0.953 . S
C206 C205 1.377 . S
C206 C207 1.369 . S
C207 H187 0.945 . S
C207 C202 1.385 . S
C207 C206 1.369 . S
C208 C200 1.457 . S
C208 C209 1.372 . S
C208 C213 1.364 1_565 S
C209 H188 0.952 . S
C209 C208 1.372 . S
C209 C210 1.389 1_565 S
C210 H189 0.949 . S
C210 C209 1.389 1_545 S
C210 C211 1.387 . S
C211 C210 1.387 . S
C211 C212 1.372 . S
C212 H190 0.950 . S
C212 C211 1.372 . S
C212 C213 1.379 . S
C213 H191 0.948 . S
C213 C208 1.364 1_545 S
C213 C212 1.379 . S
C214 C183 1.383 . S
C214 C201 1.479 . S
C214 C215 1.398 . S
C215 C180 1.382 1_554 S
C215 H192 0.951 . S
C215 C214 1.398 . S
C216 C217 1.384 . S
C216 H229 0.947 . S
C216 C251 1.382 . S
C217 C216 1.384 . S
C217 C218 1.378 . S
C218 C217 1.378 . S
C218 C219 1.378 . S
C218 H230 0.952 . S
C219 C218 1.378 . S
C219 H231 0.950 . S
C219 C250 1.383 . S
H220 C239 0.947 . S
H221 C240 0.946 . S
H222 C242 0.953 . S
H223 C243 0.945 . S
H224 C245 0.952 . S
H225 C246 0.949 . S
H226 C248 0.950 . S
H227 C249 0.948 . S
H228 C251 0.951 . S
H229 C216 0.947 . S
H230 C218 0.952 . S
H231 C219 0.950 . S
N232 C235 1.382 . S
N232 C237 1.363 . S
N233 C235 1.371 . S
N233 C236 1.372 . S
N234 C236 1.361 . S
N234 C237 1.377 . S
C235 N232 1.382 . S
C235 N233 1.371 . S
C235 C238 1.480 . S
C236 N233 1.372 . S
C236 N234 1.361 . S
C236 C244 1.457 . S
C237 N232 1.363 . S
C237 N234 1.377 . S
C237 C250 1.479 . S
C238 C235 1.480 . S
C238 C239 1.383 . S
C238 C243 1.385 . S
C239 H220 0.947 . S
C239 C238 1.383 . S
C239 C240 1.388 . S
C240 H221 0.946 . S
C240 C239 1.388 . S
C240 C241 1.384 . S
C241 C240 1.384 . S
C241 C242 1.377 . S
C242 H222 0.953 . S
C242 C241 1.377 . S
C242 C243 1.369 . S
C243 H223 0.945 . S
C243 C238 1.385 . S
C243 C242 1.369 . S
C244 C236 1.457 . S
C244 C245 1.372 . S
C244 C249 1.364 1_565 S
C245 H224 0.952 . S
C245 C244 1.372 . S
C245 C246 1.389 1_565 S
C246 H225 0.949 . S
C246 C245 1.389 1_545 S
C246 C247 1.387 . S
C247 C246 1.387 . S
C247 C248 1.372 . S
C248 H226 0.950 . S
C248 C247 1.372 . S
C248 C249 1.379 . S
C249 H227 0.948 . S
C249 C244 1.364 1_545 S
C249 C248 1.379 . S
C250 C219 1.383 . S
C250 C237 1.479 . S
C250 C251 1.398 . S
C251 C216 1.382 . S
C251 H228 0.951 . S
C251 C250 1.398 . S
C252 C253 1.384 . S
C252 H265 0.947 . S
C252 C287 1.382 1_554 S
C253 C252 1.384 . S
C253 C254 1.378 . S
C254 C253 1.378 . S
C254 C255 1.378 1_554 S
C254 H266 0.952 . S
C255 C254 1.378 1_556 S
C255 H267 0.950 . S
C255 C286 1.383 . S
H256 C275 0.947 . S
H257 C276 0.946 . S
H258 C278 0.953 . S
H259 C279 0.945 . S
H260 C281 0.952 . S
H261 C282 0.949 . S
H262 C284 0.950 . S
H263 C285 0.948 . S
H264 C287 0.951 . S
H265 C252 0.947 . S
H266 C254 0.952 . S
H267 C255 0.950 . S
N268 C271 1.382 . S
N268 C273 1.363 . S
N269 C271 1.371 . S
N269 C272 1.372 . S
N270 C272 1.361 . S
N270 C273 1.377 . S
C271 N268 1.382 . S
C271 N269 1.371 . S
C271 C274 1.480 . S
C272 N269 1.372 . S
C272 N270 1.361 . S
C272 C280 1.457 . S
C273 N268 1.363 . S
C273 N270 1.377 . S
C273 C286 1.479 . S
C274 C271 1.480 . S
C274 C275 1.383 . S
C274 C279 1.385 . S
C275 H256 0.947 . S
C275 C274 1.383 . S
C275 C276 1.388 . S
C276 H257 0.946 . S
C276 C275 1.388 . S
C276 C277 1.384 . S
C277 C276 1.384 . S
C277 C278 1.377 . S
C278 H258 0.953 . S
C278 C277 1.377 . S
C278 C279 1.369 . S
C279 H259 0.945 . S
C279 C274 1.385 . S
C279 C278 1.369 . S
C280 C272 1.457 . S
C280 C281 1.372 . S
C280 C285 1.364 . S
C281 H260 0.952 . S
C281 C280 1.372 . S
C281 C282 1.389 . S
C282 H261 0.949 . S
C282 C281 1.389 . S
C282 C283 1.387 . S
C283 C282 1.387 . S
C283 C284 1.372 . S
C284 H262 0.950 . S
C284 C283 1.372 . S
C284 C285 1.379 . S
C285 H263 0.948 . S
C285 C280 1.364 . S
C285 C284 1.379 . S
C286 C255 1.383 . S
C286 C273 1.479 . S
C286 C287 1.398 . S
C287 C252 1.382 1_556 S
C287 H264 0.951 . S
C287 C286 1.398 . S
Eu288 N317 2.600 . S
Eu288 N323 2.562 . S
Eu288 O332 2.462 . S
Eu288 O333 2.373 . S
Eu288 O335 2.432 . S
Eu288 O336 2.291 1_455 S
Eu288 O340 2.330 1_455 S
Eu288 O343 2.372 . S
Eu288 C352 2.787 . S
C289 N290 1.365 . S
C289 C292 1.405 . S
C289 C296 1.448 . S
N290 C289 1.365 . S
N290 C293 1.319 . S
N290 Eu299 2.600 . S
C291 C293 1.397 . S
C291 C294 1.367 . S
C291 H311 0.931 . S
C292 C289 1.405 . S
C292 C294 1.403 . S
C292 C298 1.439 . S
C293 N290 1.319 . S
C293 C291 1.397 . S
C293 H304 0.930 . S
C294 C291 1.367 . S
C294 C292 1.403 . S
C294 H315 0.929 . S
C295 C296 1.430 . S
C295 C297 1.387 . S
C295 C301 1.404 1_545 S
C296 C289 1.448 . S
C296 C295 1.430 . S
C296 N300 1.351 . S
C297 C295 1.387 . S
C297 C298 1.374 . S
C297 H312 0.931 1_545 S
C298 C292 1.439 . S
C298 C297 1.374 . S
C298 H313 0.931 . S
Eu299 N290 2.600 . S
Eu299 N300 2.562 . S
Eu299 O334 2.335 1_655 S
Eu299 O337 2.372 . S
Eu299 O338 2.462 . S
Eu299 O339 2.373 . S
Eu299 O341 2.432 . S
Eu299 O342 2.291 1_655 S
Eu299 C363 2.787 . S
N300 C296 1.351 . S
N300 Eu299 2.562 . S
N300 C302 1.325 . S
C301 C295 1.404 1_565 S
C301 C303 1.366 . S
C301 H309 0.930 . S
C302 N300 1.325 . S
C302 C303 1.416 1_545 S
C302 H308 0.929 . S
C303 C301 1.366 . S
C303 C302 1.416 1_565 S
C303 H305 0.930 . S
H304 C293 0.930 . S
H305 C303 0.930 . S
H306 C321 0.930 . S
H307 C328 0.930 . S
H308 C302 0.929 . S
H309 C301 0.930 . S
H310 C324 0.929 . S
H311 C291 0.931 . S
H312 C297 0.931 1_565 S
H313 C298 0.931 . S
H314 C319 0.931 . S
H315 C294 0.929 . S
H316 C327 0.930 . S
N317 Eu288 2.600 . S
N317 C318 1.365 . S
N317 C321 1.319 . S
C318 N317 1.365 . S
C318 C320 1.405 . S
C318 C326 1.448 . S
C319 H314 0.931 . S
C319 C321 1.397 . S
C319 C322 1.367 . S
C320 C318 1.405 . S
C320 C322 1.403 . S
C320 C353 1.439 . S
C321 H306 0.930 . S
C321 N317 1.319 . S
C321 C319 1.397 . S
C322 C319 1.367 . S
C322 C320 1.403 . S
C322 H329 0.929 . S
N323 Eu288 2.562 . S
N323 C324 1.325 . S
N323 C326 1.351 . S
C324 H310 0.929 . S
C324 N323 1.325 . S
C324 C328 1.416 . S
C325 C326 1.430 . S
C325 C327 1.404 . S
C325 C354 1.387 . S
C326 C318 1.448 . S
C326 N323 1.351 . S
C326 C325 1.430 . S
C327 H316 0.930 . S
C327 C325 1.404 . S
C327 C328 1.366 . S
C328 H307 0.930 . S
C328 C324 1.416 . S
C328 C327 1.366 . S
H329 C322 0.929 . S
H330 C353 0.931 . S
H331 C354 0.931 . S
O332 Eu288 2.462 . S
O332 C352 1.252 . S
O333 Eu288 2.373 . S
O333 C344 1.249 . S
O334 Eu299 2.335 1_455 S
O334 C344 1.264 . S
O335 Eu288 2.432 . S
O335 C352 1.268 . S
O336 Eu288 2.291 1_655 S
O336 C351 1.255 . S
O337 Eu299 2.372 . S
O337 C351 1.257 . S
O338 Eu299 2.462 . S
O338 C363 1.252 . S
O339 Eu299 2.373 . S
O339 C355 1.249 . S
O340 Eu288 2.330 1_655 S
O340 C355 1.270 . S
O341 Eu299 2.432 . S
O341 C363 1.268 . S
O342 Eu299 2.291 1_455 S
O342 C362 1.255 . S
O343 Eu288 2.372 . S
O343 C362 1.257 . S
C344 O333 1.249 . S
C344 O334 1.264 . S
C345 C348 1.382 . S
C345 C350 1.390 . S
C345 C352 1.506 . S
C346 C347 1.398 . S
C346 C350 1.392 . S
C347 C346 1.398 . S
C347 C349 1.372 . S
C347 H364 0.931 . S
C348 C345 1.382 . S
C348 C349 1.390 . S
C348 H365 0.931 . S
C349 C347 1.372 . S
C349 C348 1.390 . S
C349 H366 0.929 . S
C350 C345 1.390 . S
C350 C346 1.392 . S
C350 H367 0.930 . S
C351 O336 1.255 . S
C351 O337 1.257 . S
C352 Eu288 2.787 . S
C352 O332 1.252 . S
C352 O335 1.268 . S
C352 C345 1.506 . S
C353 C320 1.439 . S
C353 H330 0.931 . S
C353 C354 1.374 . S
C354 C325 1.387 . S
C354 H331 0.931 . S
C354 C353 1.374 . S
C355 O339 1.249 . S
C355 O340 1.270 . S
C356 C359 1.382 . S
C356 C360 1.390 . S
C356 C363 1.506 . S
C357 C358 1.398 . S
C357 C360 1.392 . S
C358 C357 1.398 . S
C358 C361 1.372 . S
C358 H368 0.931 . S
C359 C356 1.382 . S
C359 C361 1.390 . S
C359 H369 0.931 . S
C360 C356 1.390 . S
C360 C357 1.392 . S
C360 H370 0.930 . S
C361 C358 1.372 . S
C361 C359 1.390 . S
C361 H371 0.929 . S
C362 O342 1.255 . S
C362 O343 1.257 . S
C363 Eu299 2.787 . S
C363 O338 1.252 . S
C363 O341 1.268 . S
C363 C356 1.506 . S
H364 C347 0.931 . S
H365 C348 0.931 . S
H366 C349 0.929 . S
H367 C350 0.930 . S
H368 C358 0.931 . S
H369 C359 0.931 . S
H370 C360 0.930 . S
H371 C361 0.929 . S
Eu372 N401 2.600 . S
Eu372 N407 2.562 . S
Eu372 O416 2.462 . S
Eu372 O417 2.373 . S
Eu372 O419 2.432 . S
Eu372 O420 2.291 . S
Eu372 O424 2.335 . S
Eu372 O427 2.372 . S
Eu372 C436 2.787 . S
C373 N374 1.365 . S
C373 C376 1.405 . S
C373 C380 1.448 . S
N374 C373 1.365 . S
N374 C377 1.319 . S
N374 Eu383 2.600 . S
C375 C377 1.397 . S
C375 C378 1.367 . S
C375 H395 0.931 . S
C376 C373 1.405 . S
C376 C378 1.403 . S
C376 C382 1.439 . S
C377 N374 1.319 . S
C377 C375 1.397 . S
C377 H388 0.930 . S
C378 C375 1.367 . S
C378 C376 1.403 . S
C378 H399 0.929 . S
C379 C380 1.430 . S
C379 C381 1.387 . S
C379 C385 1.404 . S
C380 C373 1.448 . S
C380 C379 1.430 . S
C380 N384 1.351 . S
C381 C379 1.387 . S
C381 C382 1.374 . S
C381 H396 0.931 . S
C382 C376 1.439 . S
C382 C381 1.374 . S
C382 H397 0.931 . S
Eu383 N374 2.600 . S
Eu383 N384 2.562 . S
Eu383 O418 2.335 . S
Eu383 O421 2.372 . S
Eu383 O422 2.462 . S
Eu383 O423 2.373 . S
Eu383 O425 2.432 . S
Eu383 O426 2.291 . S
Eu383 C447 2.787 . S
N384 C380 1.351 . S
N384 Eu383 2.562 . S
N384 C386 1.325 . S
C385 C379 1.404 . S
C385 C387 1.366 . S
C385 H393 0.930 . S
C386 N384 1.325 . S
C386 C387 1.416 . S
C386 H392 0.929 . S
C387 C385 1.366 . S
C387 C386 1.416 . S
C387 H389 0.930 . S
H388 C377 0.930 . S
H389 C387 0.930 . S
H390 C405 0.930 . S
H391 C412 0.930 . S
H392 C386 0.929 . S
H393 C385 0.930 . S
H394 C408 0.929 . S
H395 C375 0.931 . S
H396 C381 0.931 . S
H397 C382 0.931 . S
H398 C403 0.931 . S
H399 C378 0.929 . S
H400 C411 0.930 . S
N401 Eu372 2.600 . S
N401 C402 1.365 . S
N401 C405 1.319 . S
C402 N401 1.365 . S
C402 C404 1.405 . S
C402 C410 1.448 . S
C403 H398 0.931 . S
C403 C405 1.397 . S
C403 C406 1.367 . S
C404 C402 1.405 . S
C404 C406 1.403 . S
C404 C437 1.439 . S
C405 H390 0.930 . S
C405 N401 1.319 . S
C405 C403 1.397 . S
C406 C403 1.367 . S
C406 C404 1.403 . S
C406 H413 0.929 . S
N407 Eu372 2.562 . S
N407 C408 1.325 . S
N407 C410 1.351 . S
C408 H394 0.929 . S
C408 N407 1.325 . S
C408 C412 1.416 . S
C409 C410 1.430 . S
C409 C411 1.404 . S
C409 C438 1.387 . S
C410 C402 1.448 . S
C410 N407 1.351 . S
C410 C409 1.430 . S
C411 H400 0.930 . S
C411 C409 1.404 . S
C411 C412 1.366 . S
C412 H391 0.930 . S
C412 C408 1.416 . S
C412 C411 1.366 . S
H413 C406 0.929 . S
H414 C437 0.931 . S
H415 C438 0.931 . S
O416 Eu372 2.462 . S
O416 C436 1.252 . S
O417 Eu372 2.373 . S
O417 C428 1.249 . S
O418 Eu383 2.335 . S
O418 C428 1.264 . S
O419 Eu372 2.432 . S
O419 C436 1.268 . S
O420 Eu372 2.291 . S
O420 C435 1.255 . S
O421 Eu383 2.372 . S
O421 C435 1.257 . S
O422 Eu383 2.462 . S
O422 C447 1.252 . S
O423 Eu383 2.373 . S
O423 C439 1.249 . S
O424 Eu372 2.335 . S
O424 C439 1.264 . S
O425 Eu383 2.432 . S
O425 C447 1.268 . S
O426 Eu383 2.291 . S
O426 C446 1.255 . S
O427 Eu372 2.372 . S
O427 C446 1.257 . S
C428 O417 1.249 . S
C428 O418 1.264 . S
C429 C432 1.382 . S
C429 C434 1.390 . S
C429 C436 1.506 . S
C430 C431 1.398 . S
C430 C434 1.392 . S
C431 C430 1.398 . S
C431 C433 1.372 . S
C431 H448 0.931 . S
C432 C429 1.382 . S
C432 C433 1.390 . S
C432 H449 0.931 . S
C433 C431 1.372 . S
C433 C432 1.390 . S
C433 H450 0.929 . S
C434 C429 1.390 . S
C434 C430 1.392 . S
C434 H451 0.930 . S
C435 O420 1.255 . S
C435 O421 1.257 . S
C436 Eu372 2.787 . S
C436 O416 1.252 . S
C436 O419 1.268 . S
C436 C429 1.506 . S
C437 C404 1.439 . S
C437 H414 0.931 . S
C437 C438 1.374 . S
C438 C409 1.387 . S
C438 H415 0.931 . S
C438 C437 1.374 . S
C439 O423 1.249 . S
C439 O424 1.264 . S
C440 C443 1.382 . S
C440 C444 1.390 . S
C440 C447 1.506 . S
C441 C442 1.398 . S
C441 C444 1.392 . S
C442 C441 1.398 . S
C442 C445 1.372 . S
C442 H452 0.931 . S
C443 C440 1.382 . S
C443 C445 1.390 . S
C443 H453 0.931 . S
C444 C440 1.390 . S
C444 C441 1.392 . S
C444 H454 0.930 . S
C445 C442 1.372 . S
C445 C443 1.390 . S
C445 H455 0.929 . S
C446 O426 1.255 . S
C446 O427 1.257 . S
C447 Eu383 2.787 . S
C447 O422 1.252 . S
C447 O425 1.268 . S
C447 C440 1.506 . S
H448 C431 0.931 . S
H449 C432 0.931 . S
H450 C433 0.929 . S
H451 C434 0.930 . S
H452 C442 0.931 . S
H453 C443 0.931 . S
H454 C444 0.930 . S
H455 C445 0.929 . S
Eu456 N485 2.600 . S
Eu456 N491 2.562 . S
Eu456 O500 2.462 . S
Eu456 O501 2.373 . S
Eu456 O503 2.432 . S
Eu456 O504 2.291 . S
Eu456 O508 2.335 . S
Eu456 O511 2.372 . S
Eu456 C520 2.787 . S
C457 N458 1.365 . S
C457 C460 1.405 . S
C457 C464 1.448 . S
N458 C457 1.365 . S
N458 C461 1.319 . S
N458 Eu467 2.600 . S
C459 C461 1.397 . S
C459 C462 1.367 . S
C459 H479 0.931 . S
C460 C457 1.405 . S
C460 C462 1.403 . S
C460 C466 1.439 . S
C461 N458 1.319 . S
C461 C459 1.397 . S
C461 H472 0.930 . S
C462 C459 1.367 . S
C462 C460 1.403 . S
C462 H483 0.929 . S
C463 C464 1.430 . S
C463 C465 1.387 . S
C463 C469 1.404 . S
C464 C457 1.448 . S
C464 C463 1.430 . S
C464 N468 1.351 . S
C465 C463 1.387 . S
C465 C466 1.374 . S
C465 H480 0.931 . S
C466 C460 1.439 . S
C466 C465 1.374 . S
C466 H481 0.931 . S
Eu467 N458 2.600 . S
Eu467 N468 2.562 . S
Eu467 O502 2.335 1_655 S
Eu467 O505 2.372 . S
Eu467 O506 2.462 . S
Eu467 O507 2.373 . S
Eu467 O509 2.432 . S
Eu467 O510 2.291 1_655 S
Eu467 C531 2.787 . S
N468 C464 1.351 . S
N468 Eu467 2.562 . S
N468 C470 1.325 . S
C469 C463 1.404 . S
C469 C471 1.366 . S
C469 H477 0.930 . S
C470 N468 1.325 . S
C470 C471 1.416 . S
C470 H476 0.929 . S
C471 C469 1.366 . S
C471 C470 1.416 . S
C471 H473 0.930 . S
H472 C461 0.930 . S
H473 C471 0.930 . S
H474 C489 0.930 . S
H475 C496 0.930 . S
H476 C470 0.929 . S
H477 C469 0.930 . S
H478 C492 0.929 . S
H479 C459 0.931 . S
H480 C465 0.931 . S
H481 C466 0.931 . S
H482 C487 0.931 . S
H483 C462 0.929 . S
H484 C495 0.930 . S
N485 Eu456 2.600 . S
N485 C486 1.365 . S
N485 C489 1.319 . S
C486 N485 1.365 . S
C486 C488 1.405 . S
C486 C494 1.448 . S
C487 H482 0.931 . S
C487 C489 1.397 . S
C487 C490 1.367 . S
C488 C486 1.405 . S
C488 C490 1.403 . S
C488 C521 1.439 . S
C489 H474 0.930 . S
C489 N485 1.319 . S
C489 C487 1.397 . S
C490 C487 1.367 . S
C490 C488 1.403 . S
C490 H497 0.929 . S
N491 Eu456 2.562 . S
N491 C492 1.325 . S
N491 C494 1.351 . S
C492 H478 0.929 . S
C492 N491 1.325 . S
C492 C496 1.416 1_565 S
C493 C494 1.430 . S
C493 C495 1.404 1_565 S
C493 C522 1.387 . S
C494 C486 1.448 . S
C494 N491 1.351 . S
C494 C493 1.430 . S
C495 H484 0.930 . S
C495 C493 1.404 1_545 S
C495 C496 1.366 . S
C496 H475 0.930 . S
C496 C492 1.416 1_545 S
C496 C495 1.366 . S
H497 C490 0.929 . S
H498 C521 0.931 . S
H499 C522 0.931 1_545 S
O500 Eu456 2.462 . S
O500 C520 1.252 . S
O501 Eu456 2.373 . S
O501 C512 1.249 . S
O502 Eu467 2.335 1_455 S
O502 C512 1.264 . S
O503 Eu456 2.432 . S
O503 C520 1.268 . S
O504 Eu456 2.291 . S
O504 C519 1.255 1_455 S
O505 Eu467 2.372 . S
O505 C519 1.257 . S
O506 Eu467 2.462 . S
O506 C531 1.252 . S
O507 Eu467 2.373 . S
O507 C523 1.249 . S
O508 Eu456 2.335 . S
O508 C523 1.264 1_455 S
O509 Eu467 2.432 . S
O509 C531 1.268 . S
O510 Eu467 2.291 1_455 S
O510 C530 1.255 . S
O511 Eu456 2.372 . S
O511 C530 1.257 . S
C512 O501 1.249 . S
C512 O502 1.264 . S
C513 C516 1.382 . S
C513 C518 1.390 . S
C513 C520 1.506 . S
C514 C515 1.398 . S
C514 C518 1.392 . S
C515 C514 1.398 . S
C515 C517 1.372 . S
C515 H532 0.931 . S
C516 C513 1.382 . S
C516 C517 1.390 . S
C516 H533 0.931 . S
C517 C515 1.372 . S
C517 C516 1.390 . S
C517 H534 0.929 . S
C518 C513 1.390 . S
C518 C514 1.392 . S
C518 H535 0.930 . S
C519 O504 1.255 1_655 S
C519 O505 1.257 . S
C520 Eu456 2.787 . S
C520 O500 1.252 . S
C520 O503 1.268 . S
C520 C513 1.506 . S
C521 C488 1.439 . S
C521 H498 0.931 . S
C521 C522 1.374 . S
C522 C493 1.387 . S
C522 H499 0.931 1_565 S
C522 C521 1.374 . S
C523 O507 1.249 . S
C523 O508 1.264 1_655 S
C524 C527 1.382 . S
C524 C528 1.390 . S
C524 C531 1.506 . S
C525 C526 1.398 . S
C525 C528 1.392 . S
C526 C525 1.398 . S
C526 C529 1.372 . S
C526 H536 0.931 . S
C527 C524 1.382 . S
C527 C529 1.390 . S
C527 H537 0.931 . S
C528 C524 1.390 . S
C528 C525 1.392 . S
C528 H538 0.930 . S
C529 C526 1.372 . S
C529 C527 1.390 . S
C529 H539 0.929 . S
C530 O510 1.255 . S
C530 O511 1.257 . S
C531 Eu467 2.787 . S
C531 O506 1.252 . S
C531 O509 1.268 . S
C531 C524 1.506 . S
H532 C515 0.931 . S
H533 C516 0.931 . S
H534 C517 0.929 . S
H535 C518 0.930 . S
H536 C526 0.931 . S
H537 C527 0.931 . S
H538 C528 0.930 . S
H539 C529 0.929 . S
Eu540 N569 2.600 . S
Eu540 N575 2.562 . S
Eu540 O584 2.462 . S
Eu540 O585 2.373 . S
Eu540 O587 2.432 . S
Eu540 O588 2.291 . S
Eu540 O592 2.335 . S
Eu540 O595 2.372 . S
Eu540 C604 2.787 . S
C541 N542 1.365 . S
C541 C544 1.405 . S
C541 C548 1.448 . S
N542 C541 1.365 . S
N542 C545 1.319 . S
N542 Eu551 2.600 . S
C543 C545 1.397 . S
C543 C546 1.367 . S
C543 H563 0.931 . S
C544 C541 1.405 . S
C544 C546 1.403 . S
C544 C550 1.439 . S
C545 N542 1.319 . S
C545 C543 1.397 . S
C545 H556 0.930 . S
C546 C543 1.367 . S
C546 C544 1.403 . S
C546 H567 0.929 . S
C547 C548 1.430 . S
C547 C549 1.387 . S
C547 C553 1.404 . S
C548 C541 1.448 . S
C548 C547 1.430 . S
C548 N552 1.351 . S
C549 C547 1.387 . S
C549 C550 1.374 . S
C549 H564 0.931 . S
C550 C544 1.439 . S
C550 C549 1.374 . S
C550 H565 0.931 . S
Eu551 N542 2.600 . S
Eu551 N552 2.562 . S
Eu551 O586 2.335 . S
Eu551 O589 2.372 . S
Eu551 O590 2.462 . S
Eu551 O591 2.373 . S
Eu551 O593 2.432 . S
Eu551 O594 2.291 . S
Eu551 C615 2.787 . S
N552 C548 1.351 . S
N552 Eu551 2.562 . S
N552 C554 1.325 . S
C553 C547 1.404 . S
C553 C555 1.366 . S
C553 H561 0.930 . S
C554 N552 1.325 . S
C554 C555 1.416 . S
C554 H560 0.929 . S
C555 C553 1.366 . S
C555 C554 1.416 . S
C555 H557 0.930 . S
H556 C545 0.930 . S
H557 C555 0.930 . S
H558 C573 0.930 . S
H559 C580 0.930 . S
H560 C554 0.929 . S
H561 C553 0.930 . S
H562 C576 0.929 . S
H563 C543 0.931 . S
H564 C549 0.931 . S
H565 C550 0.931 . S
H566 C571 0.931 . S
H567 C546 0.929 . S
H568 C579 0.930 . S
N569 Eu540 2.600 . S
N569 C570 1.365 . S
N569 C573 1.319 . S
C570 N569 1.365 . S
C570 C572 1.405 . S
C570 C578 1.448 . S
C571 H566 0.931 . S
C571 C573 1.397 . S
C571 C574 1.367 . S
C572 C570 1.405 . S
C572 C574 1.403 . S
C572 C605 1.439 . S
C573 H558 0.930 . S
C573 N569 1.319 . S
C573 C571 1.397 . S
C574 C571 1.367 . S
C574 C572 1.403 . S
C574 H581 0.929 . S
N575 Eu540 2.562 . S
N575 C576 1.325 . S
N575 C578 1.351 . S
C576 H562 0.929 . S
C576 N575 1.325 . S
C576 C580 1.416 . S
C577 C578 1.430 . S
C577 C579 1.404 . S
C577 C606 1.387 . S
C578 C570 1.448 . S
C578 N575 1.351 . S
C578 C577 1.430 . S
C579 H568 0.930 . S
C579 C577 1.404 . S
C579 C580 1.366 . S
C580 H559 0.930 . S
C580 C576 1.416 . S
C580 C579 1.366 . S
H581 C574 0.929 . S
H582 C605 0.931 . S
H583 C606 0.931 . S
O584 Eu540 2.462 . S
O584 C604 1.252 . S
O585 Eu540 2.373 . S
O585 C596 1.249 . S
O586 Eu551 2.335 . S
O586 C596 1.264 . S
O587 Eu540 2.432 . S
O587 C604 1.268 . S
O588 Eu540 2.291 . S
O588 C603 1.255 . S
O589 Eu551 2.372 . S
O589 C603 1.257 . S
O590 Eu551 2.462 . S
O590 C615 1.252 . S
O591 Eu551 2.373 . S
O591 C607 1.249 . S
O592 Eu540 2.335 . S
O592 C607 1.264 . S
O593 Eu551 2.432 . S
O593 C615 1.268 . S
O594 Eu551 2.291 . S
O594 C614 1.255 . S
O595 Eu540 2.372 . S
O595 C614 1.257 . S
C596 O585 1.249 . S
C596 O586 1.264 . S
C597 C600 1.382 . S
C597 C602 1.390 . S
C597 C604 1.506 . S
C598 C599 1.398 . S
C598 C602 1.392 . S
C599 C598 1.398 . S
C599 C601 1.372 . S
C599 H616 0.931 . S
C600 C597 1.382 . S
C600 C601 1.390 . S
C600 H617 0.931 . S
C601 C599 1.372 . S
C601 C600 1.390 . S
C601 H618 0.929 . S
C602 C597 1.390 . S
C602 C598 1.392 . S
C602 H619 0.930 . S
C603 O588 1.255 . S
C603 O589 1.257 . S
C604 Eu540 2.787 . S
C604 O584 1.252 . S
C604 O587 1.268 . S
C604 C597 1.506 . S
C605 C572 1.439 . S
C605 H582 0.931 . S
C605 C606 1.374 . S
C606 C577 1.387 . S
C606 H583 0.931 . S
C606 C605 1.374 . S
C607 O591 1.249 . S
C607 O592 1.264 . S
C608 C611 1.382 . S
C608 C612 1.390 . S
C608 C615 1.506 . S
C609 C610 1.398 . S
C609 C612 1.392 . S
C610 C609 1.398 . S
C610 C613 1.372 . S
C610 H620 0.931 . S
C611 C608 1.382 . S
C611 C613 1.390 . S
C611 H621 0.931 . S
C612 C608 1.390 . S
C612 C609 1.392 . S
C612 H622 0.930 . S
C613 C610 1.372 . S
C613 C611 1.390 . S
C613 H623 0.929 . S
C614 O594 1.255 . S
C614 O595 1.257 . S
C615 Eu551 2.787 . S
C615 O590 1.252 . S
C615 O593 1.268 . S
C615 C608 1.506 . S
H616 C599 0.931 . S
H617 C600 0.931 . S
H618 C601 0.929 . S
H619 C602 0.930 . S
H620 C610 0.931 . S
H621 C611 0.931 . S
H622 C612 0.930 . S
H623 C613 0.929 . S
C247 C362 1.524 . S
C446 C283 1.524 . S
C439 C175 1.505 . S
C211 C355 1.505 . S
C519 C103 1.463 . S
C603 C139 1.463 . S
C31 C596 1.449 . S
C67 C512 1.449 . S
C346 C37 1.225 . S
C430 C1 1.224 . S
C441 C109 1.441 . S
C357 C73 1.441 . S
C525 C181 1.226 . S
C145 C609 1.226 . S
C598 C253 1.470 . S
C217 C514 1.470 . S
C344 C25 1.624 . S
C428 C61 1.624 . S
C97 C435 1.640 . S
C351 C133 1.640 . S
C523 C169 1.715 . S
C205 C607 1.716 . S
C241 C614 1.709 . S
C277 C530 1.709 . S
