# Generated by pormake.
# Topology tsx, (6,3)-cn, num edge types: 1
# Building blocks:
#     Node 0, Type 0, BuildingBlock: JUFBIX_clean_sbu_0, # of connection points: 6
#     Node 1, Type 0, BuildingBlock: JUFBIX_clean_sbu_0, # of connection points: 6
#     Node 2, Type 1, BuildingBlock: VETTIZ_charged_linker_0, # of connection points: 3
#     Node 3, Type 1, BuildingBlock: VETTIZ_charged_linker_0, # of connection points: 3
#     Node 4, Type 1, BuildingBlock: VETTIZ_charged_linker_0, # of connection points: 3
#     Node 5, Type 1, BuildingBlock: VETTIZ_charged_linker_0, # of connection points: 3
#     Edge 6, Type (0, 1), BuildingBlock: AJUNOK_clean_linker_0, # of connection points: 2
#     Edge 7, Type (0, 1), BuildingBlock: AJUNOK_clean_linker_0, # of connection points: 2
#     Edge 8, Type (0, 1), BuildingBlock: AJUNOK_clean_linker_0, # of connection points: 2
#     Edge 9, Type (0, 1), BuildingBlock: AJUNOK_clean_linker_0, # of connection points: 2
#     Edge 10, Type (0, 1), BuildingBlock: AJUNOK_clean_linker_0, # of connection points: 2
#     Edge 11, Type (0, 1), BuildingBlock: AJUNOK_clean_linker_0, # of connection points: 2
#     Edge 12, Type (0, 1), BuildingBlock: AJUNOK_clean_linker_0, # of connection points: 2
#     Edge 13, Type (0, 1), BuildingBlock: AJUNOK_clean_linker_0, # of connection points: 2
#     Edge 14, Type (0, 1), BuildingBlock: AJUNOK_clean_linker_0, # of connection points: 2
#     Edge 15, Type (0, 1), BuildingBlock: AJUNOK_clean_linker_0, # of connection points: 2
#     Edge 16, Type (0, 1), BuildingBlock: AJUNOK_clean_linker_0, # of connection points: 2
#     Edge 17, Type (0, 1), BuildingBlock: AJUNOK_clean_linker_0, # of connection points: 2
# Relax obj value: 0.165
# Max RMSD: 0.171
# Mean RMSD: 0.140
data_MOF--net-tsx--node1-JUFBIX_clean_sbu_0--node2-VETTIZ_charged_linker_0--edge1-AJUNOK_clean_linker_0
_symmetry_space_group_name_H-M    P1
_symmetry_Int_Tables_number       1
_symmetry_cell_setting            triclinic
loop_
_symmetry_equiv_pos_as_xyz
'x, y, z'
_cell_length_a     18.115322
_cell_length_b     21.346051
_cell_length_c     36.009626
_cell_angle_alpha  93.254571
_cell_angle_beta   89.826068
_cell_angle_gamma 100.09659
loop_
_atom_site_label
_atom_site_type_symbol
_atom_site_fract_x
_atom_site_fract_y
_atom_site_fract_z
_atom_type_partial_charge
Co0 Co 0.05038 0.95369 -0.01359 0.0
C1 C 1.00866 0.95814 0.91301 0.0
Co2 Co 0.958 1.00737 -0.02144 0.0
C3 C 0.13548 0.85071 -0.02313 0.0
C4 C 0.1899 0.92631 0.01409 0.0
N5 N 0.12818 0.90836 -0.00738 0.0
N6 N 0.19966 0.83214 -0.01259 0.0
C7 C 0.23373 0.8797 0.01099 0.0
H8 H 0.09396 0.82287 0.95824 0.0
H9 H 0.20257 0.97079 0.03068 0.0
C10 C 1.00259 1.00586 0.0512 0.0
N11 N 0.87896 0.05125 0.97318 0.0
C12 C 0.87164 0.09831 0.95061 0.0
C13 C 0.81516 0.04255 -0.00687 0.0
N14 N 0.80544 0.11863 0.95551 0.0
C15 C 0.77001 0.08377 -0.01763 0.0
C16 C 0.9086 0.87922 -0.00967 0.0
O17 O 0.04879 0.97256 0.03774 0.0
O18 O 0.95588 1.02434 0.03009 0.0
O19 O 0.88838 0.93117 -0.01692 0.0
O20 O 0.97839 0.87751 -0.00779 0.0
O21 O 0.96179 0.99069 0.92682 0.0
H22 H 0.80285 1.00914 0.01474 0.0
H23 H 0.91412 0.11749 0.9311 0.0
O24 O 0.0521 0.93615 0.93452 0.0
O25 O 0.12107 0.03154 -0.01817 0.0
O26 O 1.02829 0.08363 -0.02491 0.0
C27 C 0.09824 0.08424 -0.02144 0.0
H28 H 0.2877 0.88157 0.02424 0.0
H29 H 0.71643 0.08919 -0.00568 0.0
Co30 Co 0.59558 0.55801 0.49631 0.0
C31 C 0.51564 0.55855 0.43186 0.0
Co32 Co 0.50509 0.61519 0.50283 0.0
C33 C 0.67438 0.44936 0.48594 0.0
C34 C 0.74725 0.53707 0.50127 0.0
N35 N 0.67509 0.51255 0.49277 0.0
N36 N 0.743 0.43367 0.49035 0.0
C37 C 0.78897 0.48911 0.4995 0.0
H38 H 0.6242 0.4152 0.47883 0.0
H39 H 0.76825 0.58662 0.50914 0.0
C40 C 0.58646 0.61345 0.56654 0.0
N41 N 0.42645 0.65955 0.50831 0.0
C42 C 0.40188 0.69739 0.48414 0.0
C43 C 0.37925 0.65892 0.5374 0.0
N44 N 0.34139 0.72063 0.49704 0.0
C45 C 0.32671 0.69623 0.53048 0.0
C46 C 0.46074 0.48711 0.51768 0.0
O47 O 0.61933 0.57664 0.54634 0.0
O48 O 0.53305 0.63679 0.55335 0.0
O49 O 0.44055 0.54091 0.51666 0.0
O50 O 0.52797 0.4826 0.50912 0.0
O51 O 0.47884 0.59301 0.45202 0.0
H52 H 0.38232 0.63234 0.56189 0.0
H53 H 0.42671 0.70614 0.45713 0.0
O54 O 0.57124 0.53898 0.44585 0.0
O55 O 0.66148 0.6358 0.48433 0.0
O56 O 0.56941 0.68978 0.48963 0.0
C57 C 0.63843 0.68897 0.48405 0.0
H58 H 0.84884 0.49498 0.5041 0.0
H59 H 0.2813 0.70481 0.5486 0.0
C60 C 0.1159 0.90583 0.43477 0.0
C61 C 0.16691 0.87119 0.41733 0.0
C62 C 0.17761 0.87355 0.3787 0.0
C63 C 0.09353 0.94958 0.37593 0.0
C64 C 0.08011 0.94499 0.41349 0.0
C65 C 1.03125 0.99121 0.42785 0.0
H66 H 0.86147 0.24324 0.39298 0.0
C67 C 0.05585 1.00021 0.36293 0.0
C68 C 1.01987 1.02584 0.39325 0.0
H69 H 0.86959 0.15705 0.49826 0.0
H70 H 0.93892 0.07886 0.4691 0.0
H71 H 1.02757 0.2412 0.37089 0.0
H72 H 0.82059 0.115 0.34461 0.0
H73 H 0.87377 0.11512 0.30392 0.0
H74 H 0.84807 0.18856 0.32248 0.0
H75 H 0.96005 0.25949 0.3387 0.0
H76 H 1.03333 0.21654 0.3238 0.0
C77 C 0.07514 0.03629 0.45816 0.0
C78 C 0.95691 0.95254 0.44109 0.0
C79 C 0.06348 0.04353 0.22679 0.0
C80 C 1.03121 0.08563 0.20618 0.0
C81 C 0.9992 0.13401 0.2247 0.0
C82 C 0.9944 0.13727 0.26347 0.0
C83 C 1.02204 0.09169 0.28362 0.0
C84 C 0.05809 0.04726 0.26533 0.0
C85 C 0.08443 1.00287 0.29108 0.0
C86 C 0.0541 1.02562 0.32766 0.0
C87 C 1.01779 0.0774 0.32309 0.0
C88 C 0.17151 1.01486 0.29056 0.0
C89 C 0.04669 0.93372 0.27912 0.0
C90 C 0.87706 0.20717 0.40991 0.0
C91 C 0.85965 0.20627 0.44783 0.0
C92 C 0.8826 0.15904 0.46893 0.0
C93 C 0.92248 0.11378 0.45212 0.0
C94 C 0.94008 0.11623 0.4141 0.0
C95 C 0.91686 0.16244 0.39384 0.0
C96 C 0.93967 0.15902 0.35396 0.0
C97 C 0.98137 0.10357 0.3534 0.0
C98 C 0.98182 0.07809 0.3885 0.0
C99 C 0.99249 0.22231 0.34605 0.0
C100 C 0.86726 0.14411 0.32972 0.0
H101 H 0.15313 0.91318 0.32877 0.0
H102 H 0.10712 0.90502 0.46453 0.0
H103 H 0.91314 0.98208 0.44556 0.0
H104 H 0.96593 0.9293 0.4671 0.0
H105 H 0.93397 0.91435 0.41979 0.0
H106 H 0.13651 0.04432 0.45278 0.0
H107 H 0.06588 1.01622 0.48593 0.0
H108 H 0.06016 0.08418 0.45838 0.0
H109 H 0.08848 1.00589 0.21312 0.0
H110 H 0.97565 0.16783 0.20911 0.0
H111 H 0.96731 0.17387 0.27606 0.0
H112 H 0.19506 0.06335 0.28164 0.0
H113 H 0.19287 0.98004 0.27108 0.0
H114 H 0.19623 1.01318 0.31849 0.0
H115 H 0.98732 0.93213 0.27068 0.0
H116 H 0.0441 0.90062 0.30173 0.0
H117 H 0.07611 0.91455 0.25509 0.0
H118 H 0.21552 0.84613 0.36469 0.0
C119 C 0.14134 0.91257 0.35793 0.0
C120 C 0.18762 0.24885 0.56763 0.0
C121 C 0.26281 0.27209 0.57852 0.0
C122 C 0.29583 0.24047 0.60562 0.0
C123 C 0.17929 0.1679 0.61265 0.0
C124 C 0.14726 0.19542 0.58448 0.0
C125 C 0.07512 0.15314 0.5707 0.0
H126 H 0.89784 0.84034 0.55816 0.0
C127 C 0.1313 0.10798 0.62009 0.0
C128 C 0.07429 0.09421 0.59323 0.0
H129 H 0.82917 0.99367 0.50156 0.0
H130 H 0.92103 0.07059 0.53791 0.0
H131 H 0.08189 0.88659 0.56825 0.0
H132 H 0.88208 0.89179 0.6262 0.0
H133 H 0.94507 0.93129 0.66063 0.0
H134 H 0.94754 0.84961 0.64504 0.0
H135 H 1.01713 0.82408 0.58841 0.0
H136 H 0.09317 0.87001 0.61553 0.0
C137 C 0.08083 0.139 0.52878 0.0
C138 C 1.00871 0.1869 0.58077 0.0
C139 C 0.11526 1.01735 0.74556 0.0
C140 C 0.08135 0.95747 0.75715 0.0
C141 C 0.06416 0.9056 0.73095 0.0
C142 C 0.07308 0.91523 0.69293 0.0
C143 C 0.09737 0.97725 0.68165 0.0
C144 C 0.12371 0.02607 0.70757 0.0
C145 C 0.15464 0.08709 0.68975 0.0
C146 C 0.13602 0.0671 0.64894 0.0
C147 C 0.09658 1.00458 0.64525 0.0
C148 C 0.23912 0.10475 0.69883 0.0
C149 C 0.11258 0.14068 0.70383 0.0
C150 C 0.90524 0.89005 0.55177 0.0
C151 C 0.85936 0.9102 0.52528 0.0
C152 C 0.8658 0.97635 0.52073 0.0
C153 C 0.92044 1.02076 0.54082 0.0
C154 C 0.96942 0.99878 0.56523 0.0
C155 C 0.95763 0.93466 0.57198 0.0
C156 C 0.99929 0.92089 0.60557 0.0
C157 C 0.0449 0.98628 0.61543 0.0
C158 C 1.0294 0.03187 0.59102 0.0
C159 C 0.05059 0.87253 0.59397 0.0
C160 C 0.94115 0.89722 0.63598 0.0
H161 H 0.28492 0.15897 0.63779 0.0
H162 H 0.16265 0.26947 0.54506 0.0
H163 H 0.95429 0.15591 0.57423 0.0
H164 H 1.01198 0.23086 0.56528 0.0
H165 H 1.00925 0.20067 0.61104 0.0
H166 H 0.13091 0.11688 0.52236 0.0
H167 H 0.08492 0.18306 0.51335 0.0
H168 H 1.03083 0.10665 0.51828 0.0
H169 H 0.13112 0.05714 0.76566 0.0
H170 H 0.04011 0.85873 0.73975 0.0
H171 H 0.05914 0.87493 0.67353 0.0
H172 H 0.25073 0.09606 0.72822 0.0
H173 H 0.25988 0.15633 0.69624 0.0
H174 H 0.27201 0.07601 0.68076 0.0
H175 H 0.05117 0.12629 0.69901 0.0
H176 H 0.1321 0.18482 0.68909 0.0
H177 H 0.12262 0.15235 0.73406 0.0
H178 H 0.3543 0.25536 0.61333 0.0
C179 C 0.25506 0.18724 0.62166 0.0
C180 C 0.64164 0.35509 0.90358 0.0
C181 C 0.7058 0.33166 0.89067 0.0
C182 C 0.7497 0.36383 0.86293 0.0
C183 C 0.66685 0.44123 0.86158 0.0
C184 C 0.62322 0.40981 0.88861 0.0
C185 C 0.56198 0.44539 0.90156 0.0
H186 H 0.4058 0.71311 0.89258 0.0
C187 C 0.63704 0.49934 0.85416 0.0
C188 C 0.57649 0.50331 0.87813 0.0
H189 H 0.34117 0.56122 0.96658 0.0
H190 H 0.43608 0.50417 0.93871 0.0
H191 H 0.5841 0.72125 0.89811 0.0
H192 H 0.40778 0.6326 0.82473 0.0
H193 H 0.48669 0.63518 0.79623 0.0
H194 H 0.46139 0.7085 0.81544 0.0
H195 H 0.53313 0.76128 0.86704 0.0
H196 H 0.61703 0.73257 0.85242 0.0
C197 C 0.57388 0.46449 0.9432 0.0
C198 C 0.48527 0.40327 0.89224 0.0
C199 C 0.71394 0.61468 0.73864 0.0
C200 C 0.67564 0.65618 0.72054 0.0
C201 C 0.63607 0.69624 0.74196 0.0
C202 C 0.62339 0.68662 0.77963 0.0
C203 C 0.64807 0.63505 0.79524 0.0
C204 C 0.69629 0.60225 0.77561 0.0
C205 C 0.71169 0.5456 0.79547 0.0
C206 C 0.65848 0.54638 0.82812 0.0
C207 C 0.622 0.59899 0.82783 0.0
C208 C 0.795 0.55877 0.80813 0.0
C209 C 0.68968 0.48481 0.76935 0.0
C210 C 0.41156 0.66744 0.90285 0.0
C211 C 0.36543 0.64122 0.9313 0.0
C212 C 0.37577 0.58211 0.94433 0.0
C213 C 0.43062 0.54932 0.92829 0.0
C214 C 0.47648 0.57683 0.89972 0.0
C215 C 0.4658 0.6349 0.88761 0.0
C216 C 0.51608 0.65686 0.85622 0.0
C217 C 0.56223 0.60426 0.85255 0.0
C218 C 0.53899 0.55682 0.8777 0.0
C219 C 0.56509 0.72162 0.86877 0.0
C220 C 0.46596 0.65882 0.82135 0.0
H221 H 0.7676 0.4415 0.82813 0.0
H222 H 0.60824 0.33294 0.92586 0.0
H223 H 0.43846 0.43 0.89522 0.0
H224 H 0.47444 0.36233 0.91043 0.0
H225 H 0.48391 0.38388 0.86287 0.0
H226 H 0.63386 0.47007 0.95157 0.0
H227 H 0.54096 0.42856 0.96069 0.0
H228 H 0.55878 0.51159 0.94952 0.0
H229 H 0.74769 0.58563 0.72284 0.0
H230 H 0.60787 0.7301 0.72891 0.0
H231 H 0.5893 0.71608 0.7941 0.0
H232 H 0.81905 0.61053 0.80925 0.0
H233 H 0.83013 0.53428 0.78884 0.0
H234 H 0.80204 0.54401 0.83675 0.0
H235 H 0.63394 0.48414 0.75631 0.0
H236 H 0.68436 0.44009 0.78369 0.0
H237 H 0.73132 0.48295 0.74679 0.0
H238 H 0.79912 0.34678 0.85241 0.0
C239 C 0.7311 0.41867 0.84868 0.0
C240 C 0.62408 0.65449 0.04438 0.0
C241 C 0.69595 0.68226 0.05802 0.0
C242 C 0.71959 0.66439 0.09256 0.0
C243 C 0.6004 0.59479 0.09987 0.0
C244 C 0.57766 0.61023 0.0655 0.0
C245 C 0.50298 0.5703 0.05427 0.0
H246 H 0.23544 0.31311 0.08136 0.0
C247 C 0.54265 0.54409 0.11352 0.0
C248 C 0.4936 0.52143 0.08398 0.0
H249 H 0.37228 0.3319 -0.01689 0.0
H250 H 0.45812 0.41902 0.01525 0.0
H251 H 0.38337 0.32064 0.12848 0.0
H252 H 0.25377 0.47036 0.11578 0.0
H253 H 0.27964 0.46881 0.16281 0.0
H254 H 0.21864 0.40101 0.14082 0.0
H255 H 0.28975 0.31565 0.14617 0.0
H256 H 0.36919 0.3576 0.17225 0.0
C257 C 0.50564 0.54213 0.01473 0.0
C258 C 0.44132 0.61162 0.05784 0.0
C259 C 0.51323 0.52913 0.25245 0.0
C260 C 0.45427 0.50151 0.27473 0.0
C261 C 0.38865 0.46649 0.25787 0.0
C262 C 0.3827 0.45821 0.21895 0.0
C263 C 0.443 0.48533 0.19696 0.0
C264 C 0.50603 0.52154 0.21385 0.0
C265 C 0.56221 0.55139 0.18646 0.0
C266 C 0.52247 0.52709 0.15012 0.0
C267 C 0.45351 0.48707 0.15637 0.0
C268 C 0.6361 0.52533 0.191 0.0
C269 C 0.57149 0.62466 0.19295 0.0
C270 C 0.28029 0.33959 0.06562 0.0
C271 C 0.29405 0.3191 0.02879 0.0
C272 C 0.35776 0.34989 0.01041 0.0
C273 C 0.40523 0.40216 0.02798 0.0
C274 C 0.38663 0.42606 0.06324 0.0
C275 C 0.32899 0.3916 0.08279 0.0
C276 C 0.33676 0.40848 0.12416 0.0
C277 C 0.40904 0.45738 0.12562 0.0
C278 C 0.43269 0.47155 0.0896 0.0
C279 C 0.34484 0.34763 0.14412 0.0
C280 C 0.26854 0.43844 0.13689 0.0
H281 H 0.69421 0.60698 0.13881 0.0
H282 H 0.60555 0.66584 0.01745 0.0
H283 H 0.38545 0.58245 0.05099 0.0
H284 H 0.45223 0.651 0.03856 0.0
H285 H 0.43925 0.633 0.08664 0.0
H286 H 0.54646 0.50896 0.01342 0.0
H287 H 0.52295 0.58017 -0.00486 0.0
H288 H 0.4491 0.51807 0.00545 0.0
H289 H 0.56372 0.55704 0.26494 0.0
H290 H 0.34253 0.4451 0.27481 0.0
H291 H 0.33161 0.43112 0.20744 0.0
H292 H 0.67606 0.55767 0.20983 0.0
H293 H 0.66358 0.5179 0.16401 0.0
H294 H 0.62583 0.47758 0.20286 0.0
H295 H 0.5166 0.64047 0.18987 0.0
H296 H 0.61073 0.6509 0.17356 0.0
H297 H 0.59337 0.64018 0.22139 0.0
H298 H 0.77464 0.68471 0.10367 0.0
C299 C 0.67267 0.62018 0.11322 0.0
C300 C 0.22634 0.14705 -0.00561 0.0
C301 C 0.15057 0.14622 -0.01495 0.0
C302 C 0.27342 0.20372 0.00711 0.0
C303 C 0.24637 0.26152 0.01127 0.0
H304 H 0.24884 0.1032 -0.00668 0.0
H305 H 0.33054 0.20185 0.01517 0.0
S306 S 0.05607 0.28775 -0.0128 0.0
N307 N 0.05337 0.21073 -0.02209 0.0
N308 N 0.14183 0.31618 0.00262 0.0
C309 C 0.17229 0.26227 0.00054 0.0
C310 C 0.12448 0.20495 -0.01286 0.0
C311 C 0.27552 0.74867 -0.00183 0.0
C312 C 0.2299 0.77635 0.97448 0.0
C313 C 0.31441 0.70049 -0.01515 0.0
C314 C 0.30945 0.67842 0.94729 0.0
H315 H 0.28326 0.76596 0.02698 0.0
H316 H 0.35213 0.68335 0.0035 0.0
S317 S 0.19263 0.73015 0.87442 0.0
N318 N 0.17861 0.77444 0.91198 0.0
N319 N 0.25031 0.68341 0.88734 0.0
C320 C 0.26033 0.70261 0.92391 0.0
C321 C 0.22089 0.75164 0.93738 0.0
C322 C 0.87481 0.77127 0.01619 0.0
C323 C 0.85167 0.82469 0.00177 0.0
C324 C 0.82368 0.72446 0.03313 0.0
C325 C 0.74727 0.72906 0.03643 0.0
H326 H 0.9334 0.7666 0.0157 0.0
H327 H 0.84458 0.68493 0.04445 0.0
S328 S 0.65635 0.85669 0.0007 0.0
N329 N 0.74539 0.87664 -0.01057 0.0
N330 N 0.6503 0.78979 0.02223 0.0
C331 C 0.72264 0.78057 0.02061 0.0
C332 C 0.77454 0.82804 0.00308 0.0
C333 C 0.83021 0.22663 0.93203 0.0
C334 C 0.77995 0.17017 0.93807 0.0
C335 C 0.80559 0.27856 0.91693 0.0
C336 C 0.72981 0.27586 0.907 0.0
H337 H 0.88865 0.23121 0.93989 0.0
H338 H 0.84615 0.32155 0.9135 0.0
S339 S 0.57729 0.13642 0.91411 0.0
N340 N 0.65195 0.11305 0.93107 0.0
N341 N 0.60574 0.21036 0.9023 0.0
C342 C 0.67929 0.21912 0.91225 0.0
C343 C 0.70435 0.16636 0.92781 0.0
C344 C 0.77023 0.74919 0.48151 0.0
C345 C 0.693 0.75021 0.48461 0.0
C346 C 0.82382 0.80338 0.49139 0.0
C347 C 0.80265 0.86079 0.50517 0.0
H348 H 0.78972 0.70519 0.47358 0.0
H349 H 0.88255 0.79911 0.49049 0.0
S350 S 0.60804 0.89213 0.51267 0.0
N351 N 0.59827 0.81681 0.49723 0.0
N352 N 0.69923 0.91761 0.51697 0.0
C353 C 0.72595 0.86435 0.5051 0.0
C354 C 0.67112 0.8093 0.49459 0.0
C355 C 0.73154 0.32936 0.45534 0.0
C356 C 0.76439 0.3717 0.48442 0.0
C357 C 0.75929 0.27335 0.44547 0.0
C358 C 0.82086 0.25723 0.46435 0.0
H359 H 0.68678 0.3413 0.43876 0.0
H360 H 0.73449 0.24381 0.4217 0.0
S361 S 0.91924 0.34689 0.5463 0.0
N362 N 0.85543 0.38934 0.53518 0.0
N363 N 0.90887 0.2851 0.51586 0.0
C364 C 0.85065 0.29672 0.49518 0.0
C365 C 0.82229 0.35378 0.50531 0.0
C366 C 0.43045 0.37262 0.5338 0.0
C367 C 0.4071 0.43151 0.5304 0.0
C368 C 0.38266 0.32093 0.54831 0.0
C369 C 0.30953 0.32591 0.56012 0.0
H370 H 0.48658 0.36654 0.52583 0.0
H371 H 0.40356 0.27678 0.55067 0.0
S372 S 0.21944 0.46845 0.55586 0.0
N373 N 0.30399 0.49068 0.53873 0.0
N374 N 0.2153 0.39373 0.56652 0.0
C375 C 0.28455 0.38374 0.55589 0.0
C376 C 0.33306 0.43646 0.54101 0.0
C377 C 0.2202 0.75094 0.48139 0.0
C378 C 0.29887 0.76053 0.47832 0.0
C379 C 0.17761 0.78779 0.46222 0.0
C380 C 0.21237 0.83521 0.43926 0.0
H381 H 0.19127 0.71367 0.49801 0.0
H382 H 0.1171 0.7781 0.46461 0.0
S383 S 0.4169 0.88477 0.42575 0.0
N384 N 0.40995 0.82501 0.45345 0.0
N385 N 0.33 0.89368 0.41706 0.0
C386 C 0.29102 0.84673 0.43698 0.0
C387 C 0.33428 0.80948 0.45656 0.0
C388 C 0.07858 0.03808 0.10815 0.0
C389 C 1.00837 0.02841 0.0903 0.0
C390 C 0.08646 0.06064 0.14524 0.0
C391 C 1.02422 0.07354 0.16571 0.0
H392 H 0.12789 0.02831 0.09336 0.0
H393 H 0.14125 0.06652 0.15831 0.0
S394 S 0.82829 0.05585 0.13147 0.0
N395 N 0.87593 0.03459 0.09514 0.0
N396 N 0.89016 0.07516 0.16561 0.0
C397 C 0.95393 0.06533 0.14795 0.0
C398 C 0.94611 0.04304 0.11001 0.0
C399 C 0.06916 0.91371 0.85741 0.0
C400 C 1.01841 0.95147 0.87234 0.0
C401 C 0.08758 0.91367 0.8196 0.0
C402 C 0.05631 0.9518 0.79579 0.0
H403 H 0.09667 0.88545 0.8752 0.0
H404 H 0.1285 0.88567 0.80924 0.0
S405 S 0.9151 0.05364 0.81947 0.0
N406 N 0.93262 1.02373 0.85912 0.0
N407 N 0.96819 1.02373 0.78824 0.0
C408 C 1.00297 0.98716 0.80975 0.0
C409 C 0.98365 0.98691 0.84802 0.0
C410 C 0.63203 0.68698 0.62091 0.0
C411 C 0.60827 0.62489 0.60551 0.0
C412 C 0.65766 0.69713 0.65784 0.0
C413 C 0.65938 0.64542 0.68025 0.0
H414 H 0.63178 0.7276 0.60421 0.0
H415 H 0.67535 0.7456 0.66906 0.0
S416 S 0.59588 0.4738 0.65243 0.0
N417 N 0.58532 0.5116 0.61464 0.0
N418 N 0.62945 0.52989 0.68439 0.0
C419 C 0.63434 0.58307 0.6648 0.0
C420 C 0.6097 0.57303 0.62728 0.0
C421 C 0.54083 0.50769 0.37021 0.0
C422 C 0.49484 0.54115 0.39241 0.0
C423 C 0.52531 0.49286 0.33245 0.0
C424 C 0.46286 0.5103 0.31548 0.0
H425 H 0.59032 0.49387 0.38178 0.0
H426 H 0.56335 0.46862 0.31616 0.0
S427 S 0.32281 0.59589 0.36098 0.0
N428 N 0.38231 0.58935 0.39461 0.0
N429 N 0.35352 0.56105 0.32331 0.0
C430 C 0.41493 0.54187 0.33732 0.0
C431 C 0.43091 0.55749 0.37587 0.0
loop_
_geom_bond_atom_site_label_1
_geom_bond_atom_site_label_2
_geom_bond_distance
_geom_bond_site_symmetry_2
_ccdc_geom_bond_type
Co0 N5 2.057 . S
Co0 O17 2.021 . S
Co0 O20 2.062 1_455 S
Co0 O24 2.117 1_554 S
Co0 O25 2.020 1_565 S
C1 O21 1.259 1_455 S
C1 O24 1.258 1_545 S
Co2 N11 2.057 . S
Co2 O18 2.117 . S
Co2 O19 2.020 1_545 S
Co2 O21 2.021 1_554 S
Co2 O26 2.062 1_655 S
C3 N5 1.316 . S
C3 N6 1.347 . S
C3 H8 0.931 . S
C4 N5 1.375 1_556 S
C4 C7 1.350 . S
C4 H9 0.930 . S
N5 Co0 2.057 . S
N5 C3 1.316 . S
N5 C4 1.375 1_554 S
N6 C3 1.347 . S
N6 C7 1.373 1_554 S
C7 C4 1.350 . S
C7 N6 1.373 1_556 S
C7 H28 0.931 . S
H8 C3 0.931 . S
H9 C4 0.930 . S
C10 O17 1.259 1_545 S
C10 O18 1.258 1_455 S
N11 Co2 2.057 . S
N11 C12 1.316 . S
N11 C13 1.375 . S
C12 N11 1.316 . S
C12 N14 1.347 . S
C12 H23 0.931 1_554 S
C13 N11 1.375 . S
C13 C15 1.350 . S
C13 H22 0.930 . S
N14 C12 1.347 . S
N14 C15 1.373 . S
C15 C13 1.350 . S
C15 N14 1.373 . S
C15 H29 0.931 . S
C16 O19 1.256 . S
C16 O20 1.255 . S
O17 Co0 2.021 . S
O17 C10 1.259 1_565 S
O18 Co2 2.117 . S
O18 C10 1.258 1_655 S
O19 Co2 2.020 1_565 S
O19 C16 1.256 . S
O20 Co0 2.062 1_655 S
O20 C16 1.255 . S
O21 C1 1.259 1_655 S
O21 Co2 2.021 1_556 S
H22 C13 0.930 . S
H23 C12 0.931 1_556 S
O24 Co0 2.117 1_556 S
O24 C1 1.258 1_565 S
O25 Co0 2.020 1_545 S
O25 C27 1.256 . S
O26 Co2 2.062 1_455 S
O26 C27 1.255 . S
C27 O25 1.256 . S
C27 O26 1.255 . S
H28 C7 0.931 . S
H29 C15 0.931 . S
Co30 N35 2.057 . S
Co30 O47 2.021 . S
Co30 O50 2.062 . S
Co30 O54 2.117 . S
Co30 O55 2.020 . S
C31 O51 1.259 . S
C31 O54 1.258 . S
Co32 N41 2.057 . S
Co32 O48 2.117 . S
Co32 O49 2.020 . S
Co32 O51 2.021 . S
Co32 O56 2.062 . S
C33 N35 1.316 . S
C33 N36 1.347 . S
C33 H38 0.931 . S
C34 N35 1.375 . S
C34 C37 1.350 . S
C34 H39 0.930 . S
N35 Co30 2.057 . S
N35 C33 1.316 . S
N35 C34 1.375 . S
N36 C33 1.347 . S
N36 C37 1.373 . S
C37 C34 1.350 . S
C37 N36 1.373 . S
C37 H58 0.931 . S
H38 C33 0.931 . S
H39 C34 0.930 . S
C40 O47 1.259 . S
C40 O48 1.258 . S
N41 Co32 2.057 . S
N41 C42 1.316 . S
N41 C43 1.375 . S
C42 N41 1.316 . S
C42 N44 1.347 . S
C42 H53 0.931 . S
C43 N41 1.375 . S
C43 C45 1.350 . S
C43 H52 0.930 . S
N44 C42 1.347 . S
N44 C45 1.373 . S
C45 C43 1.350 . S
C45 N44 1.373 . S
C45 H59 0.931 . S
C46 O49 1.256 . S
C46 O50 1.255 . S
O47 Co30 2.021 . S
O47 C40 1.259 . S
O48 Co32 2.117 . S
O48 C40 1.258 . S
O49 Co32 2.020 . S
O49 C46 1.256 . S
O50 Co30 2.062 . S
O50 C46 1.255 . S
O51 C31 1.259 . S
O51 Co32 2.021 . S
H52 C43 0.930 . S
H53 C42 0.931 . S
O54 Co30 2.117 . S
O54 C31 1.258 . S
O55 Co30 2.020 . S
O55 C57 1.256 . S
O56 Co32 2.062 . S
O56 C57 1.255 . S
C57 O55 1.256 . S
C57 O56 1.255 . S
H58 C37 0.931 . S
H59 C45 0.931 . S
C60 C61 1.391 . S
C60 C64 1.391 . S
C60 H102 0.948 . S
C61 C60 1.391 . S
C61 C62 1.391 . S
C62 C61 1.391 . S
C62 H118 0.947 . S
C62 C119 1.392 . S
C63 C64 1.391 . S
C63 C67 1.397 . S
C63 C119 1.419 . S
C64 C60 1.391 . S
C64 C63 1.391 . S
C64 C65 1.399 . S
C65 C64 1.399 . S
C65 C68 1.396 . S
C65 C77 1.453 1_565 S
C65 C78 1.684 1_455 S
H66 C90 0.948 . S
C67 C63 1.397 . S
C67 C68 1.394 . S
C67 C86 1.723 . S
C68 C65 1.396 . S
C68 C67 1.394 . S
C68 C98 1.723 1_465 S
H69 C92 0.947 . S
H70 C93 0.948 . S
H71 C99 0.982 . S
H72 C100 0.979 . S
H73 C100 0.980 . S
H74 C100 0.983 . S
H75 C99 0.979 . S
H76 C99 0.977 . S
C77 C65 1.453 1_545 S
C77 H106 0.982 . S
C77 H107 0.979 1_545 S
C77 H108 0.977 . S
C78 C65 1.684 1_655 S
C78 H103 0.979 . S
C78 H104 0.980 . S
C78 H105 0.983 . S
C79 C80 1.391 1_465 S
C79 C84 1.391 . S
C79 H109 0.948 . S
C80 C79 1.391 1_645 S
C80 C81 1.391 . S
C81 C80 1.391 . S
C81 C82 1.392 . S
C81 H110 0.947 . S
C82 C81 1.392 . S
C82 C83 1.419 . S
C82 H111 0.948 . S
C83 C82 1.419 . S
C83 C84 1.391 1_645 S
C83 C87 1.397 . S
C84 C79 1.391 . S
C84 C83 1.391 1_465 S
C84 C85 1.399 . S
C85 C84 1.399 . S
C85 C86 1.396 . S
C85 C88 1.453 . S
C85 C89 1.684 . S
C86 C67 1.723 . S
C86 C85 1.396 . S
C86 C87 1.394 1_465 S
C87 C83 1.397 . S
C87 C86 1.394 1_645 S
C87 C97 1.723 . S
C88 C85 1.453 . S
C88 H112 0.982 . S
C88 H113 0.979 . S
C88 H114 0.977 . S
C89 C85 1.684 . S
C89 H115 0.979 1_455 S
C89 H116 0.980 . S
C89 H117 0.983 . S
C90 H66 0.948 . S
C90 C91 1.391 . S
C90 C95 1.391 . S
C91 C90 1.391 . S
C91 C92 1.391 . S
C92 H69 0.947 . S
C92 C91 1.391 . S
C92 C93 1.392 . S
C93 H70 0.948 . S
C93 C92 1.392 . S
C93 C94 1.419 . S
C94 C93 1.419 . S
C94 C95 1.391 . S
C94 C98 1.397 . S
C95 C90 1.391 . S
C95 C94 1.391 . S
C95 C96 1.399 . S
C96 C95 1.399 . S
C96 C97 1.396 . S
C96 C99 1.453 . S
C96 C100 1.684 . S
C97 C87 1.723 . S
C97 C96 1.396 . S
C97 C98 1.394 . S
C98 C68 1.723 1_645 S
C98 C94 1.397 . S
C98 C97 1.394 . S
C99 H71 0.982 . S
C99 H75 0.979 . S
C99 H76 0.977 . S
C99 C96 1.453 . S
C100 H72 0.979 . S
C100 H73 0.980 . S
C100 H74 0.983 . S
C100 C96 1.684 . S
H101 C119 0.948 . S
H102 C60 0.948 . S
H103 C78 0.979 . S
H104 C78 0.980 . S
H105 C78 0.983 . S
H106 C77 0.982 . S
H107 C77 0.979 1_565 S
H108 C77 0.977 . S
H109 C79 0.948 . S
H110 C81 0.947 . S
H111 C82 0.948 . S
H112 C88 0.982 . S
H113 C88 0.979 . S
H114 C88 0.977 . S
H115 C89 0.979 1_655 S
H116 C89 0.980 . S
H117 C89 0.983 . S
H118 C62 0.947 . S
C119 C62 1.392 . S
C119 C63 1.419 . S
C119 H101 0.948 . S
C120 C121 1.391 . S
C120 C124 1.391 . S
C120 H162 0.948 . S
C121 C120 1.391 . S
C121 C122 1.391 . S
C122 C121 1.391 . S
C122 H178 0.947 . S
C122 C179 1.392 . S
C123 C124 1.391 . S
C123 C127 1.397 . S
C123 C179 1.419 . S
C124 C120 1.391 . S
C124 C123 1.391 . S
C124 C125 1.399 . S
C125 C124 1.399 . S
C125 C128 1.396 . S
C125 C137 1.453 . S
C125 C138 1.684 1_455 S
H126 C150 0.948 . S
C127 C123 1.397 . S
C127 C128 1.394 . S
C127 C146 1.723 . S
C128 C125 1.396 . S
C128 C127 1.394 . S
C128 C158 1.723 1_445 S
H129 C152 0.947 . S
H130 C153 0.948 . S
H131 C159 0.982 . S
H132 C160 0.979 . S
H133 C160 0.980 . S
H134 C160 0.983 . S
H135 C159 0.979 . S
H136 C159 0.977 . S
C137 C125 1.453 . S
C137 H166 0.982 . S
C137 H167 0.979 . S
C137 H168 0.977 1_545 S
C138 C125 1.684 1_655 S
C138 H163 0.979 . S
C138 H164 0.980 . S
C138 H165 0.983 1_655 S
C139 C140 1.391 1_455 S
C139 C144 1.391 . S
C139 H169 0.948 . S
C140 C139 1.391 1_655 S
C140 C141 1.391 1_545 S
C141 C140 1.391 1_565 S
C141 C142 1.392 . S
C141 H170 0.947 . S
C142 C141 1.392 . S
C142 C143 1.419 1_565 S
C142 H171 0.948 . S
C143 C142 1.419 1_545 S
C143 C144 1.391 1_655 S
C143 C147 1.397 . S
C144 C139 1.391 . S
C144 C143 1.391 1_455 S
C144 C145 1.399 . S
C145 C144 1.399 . S
C145 C146 1.396 . S
C145 C148 1.453 . S
C145 C149 1.684 . S
C146 C127 1.723 . S
C146 C145 1.396 . S
C146 C147 1.394 1_455 S
C147 C143 1.397 . S
C147 C146 1.394 1_655 S
C147 C157 1.723 1_545 S
C148 C145 1.453 . S
C148 H172 0.982 . S
C148 H173 0.979 . S
C148 H174 0.977 . S
C149 C145 1.684 . S
C149 H175 0.979 . S
C149 H176 0.980 . S
C149 H177 0.983 . S
C150 H126 0.948 . S
C150 C151 1.391 . S
C150 C155 1.391 . S
C151 C150 1.391 . S
C151 C152 1.391 . S
C152 H129 0.947 . S
C152 C151 1.391 . S
C152 C153 1.392 . S
C153 H130 0.948 . S
C153 C152 1.392 . S
C153 C154 1.419 . S
C154 C153 1.419 . S
C154 C155 1.391 . S
C154 C158 1.397 . S
C155 C150 1.391 . S
C155 C154 1.391 . S
C155 C156 1.399 . S
C156 C155 1.399 . S
C156 C157 1.396 . S
C156 C159 1.453 . S
C156 C160 1.684 . S
C157 C147 1.723 1_565 S
C157 C156 1.396 . S
C157 C158 1.394 . S
C158 C128 1.723 1_665 S
C158 C154 1.397 . S
C158 C157 1.394 . S
C159 H131 0.982 . S
C159 H135 0.979 . S
C159 H136 0.977 . S
C159 C156 1.453 . S
C160 H132 0.979 . S
C160 H133 0.980 . S
C160 H134 0.983 . S
C160 C156 1.684 . S
H161 C179 0.948 . S
H162 C120 0.948 . S
H163 C138 0.979 . S
H164 C138 0.980 . S
H165 C138 0.983 1_455 S
H166 C137 0.982 . S
H167 C137 0.979 . S
H168 C137 0.977 1_565 S
H169 C139 0.948 . S
H170 C141 0.947 . S
H171 C142 0.948 . S
H172 C148 0.982 . S
H173 C148 0.979 . S
H174 C148 0.977 . S
H175 C149 0.979 . S
H176 C149 0.980 . S
H177 C149 0.983 . S
H178 C122 0.947 . S
C179 C122 1.392 . S
C179 C123 1.419 . S
C179 H161 0.948 . S
C180 C181 1.391 1_554 S
C180 C184 1.391 1_554 S
C180 H222 0.948 . S
C181 C180 1.391 1_556 S
C181 C182 1.391 . S
C182 C181 1.391 . S
C182 H238 0.947 . S
C182 C239 1.392 . S
C183 C184 1.391 . S
C183 C187 1.397 . S
C183 C239 1.419 . S
C184 C180 1.391 1_556 S
C184 C183 1.391 . S
C184 C185 1.399 1_556 S
C185 C184 1.399 1_554 S
C185 C188 1.395 1_554 S
C185 C197 1.454 . S
C185 C198 1.685 . S
H186 C210 0.948 . S
C187 C183 1.397 . S
C187 C188 1.394 . S
C187 C206 1.723 . S
C188 C185 1.395 1_556 S
C188 C187 1.394 . S
C188 C218 1.723 . S
H189 C212 0.947 . S
H190 C213 0.948 . S
H191 C219 0.982 . S
H192 C220 0.979 . S
H193 C220 0.980 . S
H194 C220 0.983 . S
H195 C219 0.979 . S
H196 C219 0.977 . S
C197 C185 1.454 . S
C197 H226 0.982 . S
C197 H227 0.979 . S
C197 H228 0.977 . S
C198 C185 1.685 . S
C198 H223 0.979 . S
C198 H224 0.980 . S
C198 H225 0.983 . S
C199 C200 1.391 . S
C199 C204 1.391 . S
C199 H229 0.948 . S
C200 C199 1.391 . S
C200 C201 1.391 . S
C201 C200 1.391 . S
C201 C202 1.392 . S
C201 H230 0.947 . S
C202 C201 1.392 . S
C202 C203 1.419 . S
C202 H231 0.948 . S
C203 C202 1.419 . S
C203 C204 1.391 . S
C203 C207 1.397 . S
C204 C199 1.391 . S
C204 C203 1.391 . S
C204 C205 1.399 . S
C205 C204 1.399 . S
C205 C206 1.396 . S
C205 C208 1.453 . S
C205 C209 1.684 . S
C206 C187 1.723 . S
C206 C205 1.396 . S
C206 C207 1.394 . S
C207 C203 1.397 . S
C207 C206 1.394 . S
C207 C217 1.723 . S
C208 C205 1.453 . S
C208 H232 0.982 . S
C208 H233 0.979 . S
C208 H234 0.977 . S
C209 C205 1.684 . S
C209 H235 0.979 . S
C209 H236 0.980 . S
C209 H237 0.983 . S
C210 H186 0.948 . S
C210 C211 1.391 1_556 S
C210 C215 1.391 . S
C211 C210 1.391 1_554 S
C211 C212 1.391 . S
C212 H189 0.947 . S
C212 C211 1.391 . S
C212 C213 1.392 . S
C213 H190 0.948 . S
C213 C212 1.392 . S
C213 C214 1.419 1_554 S
C214 C213 1.419 1_556 S
C214 C215 1.391 . S
C214 C218 1.397 . S
C215 C210 1.391 . S
C215 C214 1.391 . S
C215 C216 1.399 . S
C216 C215 1.399 . S
C216 C217 1.396 . S
C216 C219 1.453 . S
C216 C220 1.684 . S
C217 C207 1.723 . S
C217 C216 1.396 . S
C217 C218 1.394 . S
C218 C188 1.723 . S
C218 C214 1.397 . S
C218 C217 1.394 . S
C219 H191 0.982 . S
C219 H195 0.979 . S
C219 H196 0.977 . S
C219 C216 1.453 . S
C220 H192 0.979 . S
C220 H193 0.980 . S
C220 H194 0.983 . S
C220 C216 1.684 . S
H221 C239 0.948 . S
H222 C180 0.948 . S
H223 C198 0.979 . S
H224 C198 0.980 . S
H225 C198 0.983 . S
H226 C197 0.982 . S
H227 C197 0.979 . S
H228 C197 0.977 . S
H229 C199 0.948 . S
H230 C201 0.947 . S
H231 C202 0.948 . S
H232 C208 0.982 . S
H233 C208 0.979 . S
H234 C208 0.977 . S
H235 C209 0.979 . S
H236 C209 0.980 . S
H237 C209 0.983 . S
H238 C182 0.947 . S
C239 C182 1.392 . S
C239 C183 1.419 . S
C239 H221 0.948 . S
C240 C241 1.391 . S
C240 C244 1.391 . S
C240 H282 0.948 1_554 S
C241 C240 1.391 . S
C241 C242 1.391 . S
C242 C241 1.391 . S
C242 H298 0.947 . S
C242 C299 1.392 . S
C243 C244 1.391 . S
C243 C247 1.397 . S
C243 C299 1.419 . S
C244 C240 1.391 . S
C244 C243 1.391 . S
C244 C245 1.399 . S
C245 C244 1.399 . S
C245 C248 1.396 . S
C245 C257 1.453 1_554 S
C245 C258 1.684 1_554 S
H246 C270 0.948 . S
C247 C243 1.397 . S
C247 C248 1.394 . S
C247 C266 1.723 . S
C248 C245 1.396 . S
C248 C247 1.394 . S
C248 C278 1.723 . S
H249 C272 0.947 . S
H250 C273 0.948 1_556 S
H251 C279 0.982 . S
H252 C280 0.979 . S
H253 C280 0.980 . S
H254 C280 0.983 . S
H255 C279 0.979 . S
H256 C279 0.977 . S
C257 C245 1.453 1_556 S
C257 H286 0.982 1_556 S
C257 H287 0.979 . S
C257 H288 0.977 . S
C258 C245 1.684 1_556 S
C258 H283 0.979 . S
C258 H284 0.980 . S
C258 H285 0.983 . S
C259 C260 1.391 . S
C259 C264 1.391 . S
C259 H289 0.948 . S
C260 C259 1.391 . S
C260 C261 1.391 . S
C261 C260 1.391 . S
C261 C262 1.392 . S
C261 H290 0.947 . S
C262 C261 1.392 . S
C262 C263 1.419 . S
C262 H291 0.948 . S
C263 C262 1.419 . S
C263 C264 1.391 . S
C263 C267 1.397 . S
C264 C259 1.391 . S
C264 C263 1.391 . S
C264 C265 1.399 . S
C265 C264 1.399 . S
C265 C266 1.396 . S
C265 C268 1.453 . S
C265 C269 1.684 . S
C266 C247 1.723 . S
C266 C265 1.396 . S
C266 C267 1.394 . S
C267 C263 1.397 . S
C267 C266 1.394 . S
C267 C277 1.723 . S
C268 C265 1.453 . S
C268 H292 0.982 . S
C268 H293 0.979 . S
C268 H294 0.977 . S
C269 C265 1.684 . S
C269 H295 0.979 . S
C269 H296 0.980 . S
C269 H297 0.983 . S
C270 H246 0.948 . S
C270 C271 1.391 . S
C270 C275 1.391 . S
C271 C270 1.391 . S
C271 C272 1.391 1_554 S
C272 H249 0.947 . S
C272 C271 1.391 1_556 S
C272 C273 1.392 1_556 S
C273 H250 0.948 1_554 S
C273 C272 1.392 1_554 S
C273 C274 1.419 . S
C274 C273 1.419 . S
C274 C275 1.391 . S
C274 C278 1.397 . S
C275 C270 1.391 . S
C275 C274 1.391 . S
C275 C276 1.399 . S
C276 C275 1.399 . S
C276 C277 1.396 . S
C276 C279 1.453 . S
C276 C280 1.684 . S
C277 C267 1.723 . S
C277 C276 1.396 . S
C277 C278 1.394 . S
C278 C248 1.723 . S
C278 C274 1.397 . S
C278 C277 1.394 . S
C279 H251 0.982 . S
C279 H255 0.979 . S
C279 H256 0.977 . S
C279 C276 1.453 . S
C280 H252 0.979 . S
C280 H253 0.980 . S
C280 H254 0.983 . S
C280 C276 1.684 . S
H281 C299 0.948 . S
H282 C240 0.948 1_556 S
H283 C258 0.979 . S
H284 C258 0.980 . S
H285 C258 0.983 . S
H286 C257 0.982 1_554 S
H287 C257 0.979 . S
H288 C257 0.977 . S
H289 C259 0.948 . S
H290 C261 0.947 . S
H291 C262 0.948 . S
H292 C268 0.982 . S
H293 C268 0.979 . S
H294 C268 0.977 . S
H295 C269 0.979 . S
H296 C269 0.980 . S
H297 C269 0.983 . S
H298 C242 0.947 . S
C299 C242 1.392 . S
C299 C243 1.419 . S
C299 H281 0.948 . S
C300 C301 1.369 1_556 S
C300 C302 1.419 . S
C300 H304 0.930 . S
C301 C300 1.369 1_554 S
C301 C310 1.429 . S
C302 C300 1.419 . S
C302 C303 1.363 1_556 S
C302 H305 0.929 . S
C303 C302 1.363 1_554 S
C303 C309 1.428 . S
H304 C300 0.930 . S
H305 C302 0.929 . S
S306 N307 1.613 . S
S306 N308 1.610 . S
N307 S306 1.613 . S
N307 C310 1.350 . S
N308 S306 1.610 . S
N308 C309 1.351 . S
C309 C303 1.428 . S
C309 N308 1.351 . S
C309 C310 1.434 . S
C310 C301 1.429 . S
C310 N307 1.350 . S
C310 C309 1.434 . S
C311 C312 1.369 . S
C311 C313 1.419 . S
C311 H315 0.930 . S
C312 C311 1.369 . S
C312 C321 1.429 . S
C313 C311 1.419 . S
C313 C314 1.363 . S
C313 H316 0.929 . S
C314 C313 1.363 . S
C314 C320 1.428 . S
H315 C311 0.930 . S
H316 C313 0.929 . S
S317 N318 1.613 . S
S317 N319 1.610 . S
N318 S317 1.613 . S
N318 C321 1.350 . S
N319 S317 1.610 . S
N319 C320 1.351 . S
C320 C314 1.428 . S
C320 N319 1.351 . S
C320 C321 1.434 . S
C321 C312 1.429 . S
C321 N318 1.350 . S
C321 C320 1.434 . S
C322 C323 1.369 . S
C322 C324 1.419 . S
C322 H326 0.930 . S
C323 C322 1.369 . S
C323 C332 1.429 1_554 S
C324 C322 1.419 . S
C324 C325 1.363 . S
C324 H327 0.929 . S
C325 C324 1.363 . S
C325 C331 1.428 1_554 S
H326 C322 0.930 . S
H327 C324 0.929 . S
S328 N329 1.613 . S
S328 N330 1.610 . S
N329 S328 1.613 . S
N329 C332 1.350 . S
N330 S328 1.610 . S
N330 C331 1.351 . S
C331 C325 1.428 1_556 S
C331 N330 1.351 . S
C331 C332 1.434 . S
C332 C323 1.429 1_556 S
C332 N329 1.350 . S
C332 C331 1.434 . S
C333 C334 1.369 1_556 S
C333 C335 1.419 . S
C333 H337 0.930 . S
C334 C333 1.369 1_554 S
C334 C343 1.429 . S
C335 C333 1.419 . S
C335 C336 1.363 1_556 S
C335 H338 0.929 . S
C336 C335 1.363 1_554 S
C336 C342 1.428 . S
H337 C333 0.930 . S
H338 C335 0.929 . S
S339 N340 1.613 . S
S339 N341 1.610 . S
N340 S339 1.613 . S
N340 C343 1.350 . S
N341 S339 1.610 . S
N341 C342 1.351 . S
C342 C336 1.428 . S
C342 N341 1.351 . S
C342 C343 1.434 . S
C343 C334 1.429 . S
C343 N340 1.350 . S
C343 C342 1.434 . S
C344 C345 1.369 . S
C344 C346 1.419 . S
C344 H348 0.930 . S
C345 C344 1.369 . S
C345 C354 1.429 . S
C346 C344 1.419 . S
C346 C347 1.363 . S
C346 H349 0.929 . S
C347 C346 1.363 . S
C347 C353 1.428 . S
H348 C344 0.930 . S
H349 C346 0.929 . S
S350 N351 1.613 . S
S350 N352 1.610 . S
N351 S350 1.613 . S
N351 C354 1.350 . S
N352 S350 1.610 . S
N352 C353 1.351 . S
C353 C347 1.428 . S
C353 N352 1.351 . S
C353 C354 1.434 . S
C354 C345 1.429 . S
C354 N351 1.350 . S
C354 C353 1.434 . S
C355 C356 1.369 . S
C355 C357 1.419 . S
C355 H359 0.930 . S
C356 C355 1.369 . S
C356 C365 1.429 . S
C357 C355 1.419 . S
C357 C358 1.363 . S
C357 H360 0.929 . S
C358 C357 1.363 . S
C358 C364 1.428 . S
H359 C355 0.930 . S
H360 C357 0.929 . S
S361 N362 1.613 . S
S361 N363 1.610 . S
N362 S361 1.613 . S
N362 C365 1.350 . S
N363 S361 1.610 . S
N363 C364 1.351 . S
C364 C358 1.428 . S
C364 N363 1.351 . S
C364 C365 1.434 . S
C365 C356 1.429 . S
C365 N362 1.350 . S
C365 C364 1.434 . S
C366 C367 1.369 . S
C366 C368 1.419 . S
C366 H370 0.930 . S
C367 C366 1.369 . S
C367 C376 1.429 . S
C368 C366 1.419 . S
C368 C369 1.363 . S
C368 H371 0.929 . S
C369 C368 1.363 . S
C369 C375 1.428 . S
H370 C366 0.930 . S
H371 C368 0.929 . S
S372 N373 1.613 . S
S372 N374 1.610 . S
N373 S372 1.613 . S
N373 C376 1.350 . S
N374 S372 1.610 . S
N374 C375 1.351 . S
C375 C369 1.428 . S
C375 N374 1.351 . S
C375 C376 1.434 . S
C376 C367 1.429 . S
C376 N373 1.350 . S
C376 C375 1.434 . S
C377 C378 1.369 . S
C377 C379 1.419 . S
C377 H381 0.930 . S
C378 C377 1.369 . S
C378 C387 1.429 . S
C379 C377 1.419 . S
C379 C380 1.363 . S
C379 H382 0.929 . S
C380 C379 1.363 . S
C380 C386 1.428 . S
H381 C377 0.930 . S
H382 C379 0.929 . S
S383 N384 1.613 . S
S383 N385 1.610 . S
N384 S383 1.613 . S
N384 C387 1.350 . S
N385 S383 1.610 . S
N385 C386 1.351 . S
C386 C380 1.428 . S
C386 N385 1.351 . S
C386 C387 1.434 . S
C387 C378 1.429 . S
C387 N384 1.350 . S
C387 C386 1.434 . S
C388 C389 1.369 1_565 S
C388 C390 1.419 . S
C388 H392 0.930 . S
C389 C388 1.369 1_545 S
C389 C398 1.429 1_455 S
C390 C388 1.419 . S
C390 C391 1.363 1_565 S
C390 H393 0.929 . S
C391 C390 1.363 1_545 S
C391 C397 1.428 1_455 S
H392 C388 0.930 . S
H393 C390 0.929 . S
S394 N395 1.613 . S
S394 N396 1.610 . S
N395 S394 1.613 . S
N395 C398 1.350 . S
N396 S394 1.610 . S
N396 C397 1.351 . S
C397 C391 1.428 1_655 S
C397 N396 1.351 . S
C397 C398 1.434 . S
C398 C389 1.429 1_655 S
C398 N395 1.350 . S
C398 C397 1.434 . S
C399 C400 1.369 . S
C399 C401 1.419 . S
C399 H403 0.930 . S
C400 C399 1.369 . S
C400 C409 1.429 1_445 S
C401 C399 1.419 . S
C401 C402 1.363 . S
C401 H404 0.929 . S
C402 C401 1.363 . S
C402 C408 1.428 1_445 S
H403 C399 0.930 . S
H404 C401 0.929 . S
S405 N406 1.613 . S
S405 N407 1.610 . S
N406 S405 1.613 . S
N406 C409 1.350 . S
N407 S405 1.610 . S
N407 C408 1.351 . S
C408 C402 1.428 1_665 S
C408 N407 1.351 . S
C408 C409 1.434 . S
C409 C400 1.429 1_665 S
C409 N406 1.350 . S
C409 C408 1.434 . S
C410 C411 1.369 . S
C410 C412 1.419 . S
C410 H414 0.930 . S
C411 C410 1.369 . S
C411 C420 1.429 . S
C412 C410 1.419 . S
C412 C413 1.363 . S
C412 H415 0.929 . S
C413 C412 1.363 . S
C413 C419 1.428 . S
H414 C410 0.930 . S
H415 C412 0.929 . S
S416 N417 1.613 . S
S416 N418 1.610 . S
N417 S416 1.613 . S
N417 C420 1.350 . S
N418 S416 1.610 . S
N418 C419 1.351 . S
C419 C413 1.428 . S
C419 N418 1.351 . S
C419 C420 1.434 . S
C420 C411 1.429 . S
C420 N417 1.350 . S
C420 C419 1.434 . S
C421 C422 1.369 . S
C421 C423 1.419 . S
C421 H425 0.930 . S
C422 C421 1.369 . S
C422 C431 1.429 . S
C423 C421 1.419 . S
C423 C424 1.363 . S
C423 H426 0.929 . S
C424 C423 1.363 . S
C424 C430 1.428 . S
H425 C421 0.930 . S
H426 C423 0.929 . S
S427 N428 1.613 . S
S427 N429 1.610 . S
N428 S427 1.613 . S
N428 C431 1.350 . S
N429 S427 1.610 . S
N429 C430 1.351 . S
C430 C424 1.428 . S
C430 N429 1.351 . S
C430 C431 1.434 . S
C431 C422 1.429 . S
C431 N428 1.350 . S
C431 C430 1.434 . S
C303 C271 1.568 . S
C301 C27 1.588 . S
C312 N6 1.490 . S
C314 C211 1.510 . S
C323 C16 1.558 . S
C325 C241 1.416 . S
C334 N14 1.461 . S
C336 C181 1.381 1_554 S
C345 C57 1.588 . S
C347 C151 1.569 . S
C356 N36 1.484 . S
C358 C91 1.511 . S
C369 C121 1.412 . S
C367 C46 1.558 . S
C380 C61 1.382 . S
C378 N44 1.463 . S
C389 C10 1.393 . S
C391 C80 1.369 1_455 S
C400 C1 1.537 . S
C402 C140 1.512 1_455 S
C413 C200 1.372 . S
C411 C40 1.392 . S
C422 C31 1.536 . S
C424 C260 1.514 . S
