# Generated by pormake.
# Topology anh, (6,3)-cn, num edge types: 1
# Building blocks:
#     Node 0, Type 0, BuildingBlock: VOLQOD_clean_sbu_1, # of connection points: 6
#     Node 1, Type 0, BuildingBlock: VOLQOD_clean_sbu_1, # of connection points: 6
#     Node 2, Type 0, BuildingBlock: VOLQOD_clean_sbu_1, # of connection points: 6
#     Node 3, Type 1, BuildingBlock: MIDCAF_clean_linker_0, # of connection points: 3
#     Node 4, Type 1, BuildingBlock: MIDCAF_clean_linker_0, # of connection points: 3
#     Node 5, Type 1, BuildingBlock: MIDCAF_clean_linker_0, # of connection points: 3
#     Node 6, Type 1, BuildingBlock: MIDCAF_clean_linker_0, # of connection points: 3
#     Node 7, Type 1, BuildingBlock: MIDCAF_clean_linker_0, # of connection points: 3
#     Node 8, Type 1, BuildingBlock: MIDCAF_clean_linker_0, # of connection points: 3
#     Edge 9, Type (0, 1), BuildingBlock: TEMPAE_clean_linker_10, # of connection points: 2
#     Edge 10, Type (0, 1), BuildingBlock: TEMPAE_clean_linker_10, # of connection points: 2
#     Edge 11, Type (0, 1), BuildingBlock: TEMPAE_clean_linker_10, # of connection points: 2
#     Edge 12, Type (0, 1), BuildingBlock: TEMPAE_clean_linker_10, # of connection points: 2
#     Edge 13, Type (0, 1), BuildingBlock: TEMPAE_clean_linker_10, # of connection points: 2
#     Edge 14, Type (0, 1), BuildingBlock: TEMPAE_clean_linker_10, # of connection points: 2
#     Edge 15, Type (0, 1), BuildingBlock: TEMPAE_clean_linker_10, # of connection points: 2
#     Edge 16, Type (0, 1), BuildingBlock: TEMPAE_clean_linker_10, # of connection points: 2
#     Edge 17, Type (0, 1), BuildingBlock: TEMPAE_clean_linker_10, # of connection points: 2
#     Edge 18, Type (0, 1), BuildingBlock: TEMPAE_clean_linker_10, # of connection points: 2
#     Edge 19, Type (0, 1), BuildingBlock: TEMPAE_clean_linker_10, # of connection points: 2
#     Edge 20, Type (0, 1), BuildingBlock: TEMPAE_clean_linker_10, # of connection points: 2
#     Edge 21, Type (0, 1), BuildingBlock: TEMPAE_clean_linker_10, # of connection points: 2
#     Edge 22, Type (0, 1), BuildingBlock: TEMPAE_clean_linker_10, # of connection points: 2
#     Edge 23, Type (0, 1), BuildingBlock: TEMPAE_clean_linker_10, # of connection points: 2
#     Edge 24, Type (0, 1), BuildingBlock: TEMPAE_clean_linker_10, # of connection points: 2
#     Edge 25, Type (0, 1), BuildingBlock: TEMPAE_clean_linker_10, # of connection points: 2
#     Edge 26, Type (0, 1), BuildingBlock: TEMPAE_clean_linker_10, # of connection points: 2
# Relax obj value: 0.167
# Max RMSD: 0.230
# Mean RMSD: 0.115
data_MOF--net-anh--node1-VOLQOD_clean_sbu_1--node2-MIDCAF_clean_linker_0--edge1-TEMPAE_clean_linker_10
_symmetry_space_group_name_H-M    P1
_symmetry_Int_Tables_number       1
_symmetry_cell_setting            triclinic
loop_
_symmetry_equiv_pos_as_xyz
'x, y, z'
_cell_length_a     34.783253
_cell_length_b     34.818251
_cell_length_c     74.929485
_cell_angle_alpha  89.989846
_cell_angle_beta   89.757756
_cell_angle_gamma 119.97944
loop_
_atom_site_label
_atom_site_type_symbol
_atom_site_fract_x
_atom_site_fract_y
_atom_site_fract_z
_atom_type_partial_charge
O0 O -0.00407 0.5442 0.19117 0.0
Zn1 Zn 0.0025 0.5651 0.16571 0.0
O2 O 0.011 0.52578 0.14952 0.0
Zn3 Zn 0.96489 0.50293 0.13135 0.0
Zn4 Zn 0.00803 0.47712 0.16331 0.0
Zn5 Zn 0.06864 0.55716 0.13783 0.0
O6 O 0.9902 0.51915 0.10643 0.0
O7 O 0.06235 0.56155 0.11144 0.0
O8 O 0.94706 0.56718 0.15996 0.0
O9 O 0.9247 0.52782 0.135 0.0
O10 O 0.92444 0.43679 0.13396 0.0
O11 O 0.95318 0.42076 0.15725 0.0
O12 O 0.05981 0.46889 0.15869 0.0
O13 O 0.05606 0.62634 0.1651 0.0
O14 O 0.10355 0.52564 0.14118 0.0
O15 O 0.10352 0.61874 0.14755 0.0
C16 C -0.00049 0.51333 0.19865 0.0
C17 C 0.02969 0.54398 0.10075 0.0
C18 C 0.9235 0.40914 0.14533 0.0
C19 C 0.92013 0.55113 0.14699 0.0
C20 C 0.09545 0.4908 0.14977 0.0
C21 C 0.09418 0.64216 0.1578 0.0
O22 O 0.00602 0.48621 0.1896 0.0
O23 O 0.47252 0.0276 0.45927 0.0
Zn24 Zn 0.44818 0.02045 0.48428 0.0
O25 O 0.48455 0.00968 0.50109 0.0
Zn26 Zn 0.50701 0.05558 0.51906 0.0
Zn27 Zn 0.53385 0.01053 0.48855 0.0
Zn28 Zn 0.45033 0.95256 0.51269 0.0
O29 O 0.49811 0.0304 0.54372 0.0
O30 O 0.45209 0.95851 0.53939 0.0
O31 O 0.4438 0.07452 0.49097 0.0
O32 O 0.47543 0.08987 0.51772 0.0
O33 O 0.57172 0.09945 0.51483 0.0
O34 O 0.59002 0.06673 0.49371 0.0
O35 O 0.5418 0.95925 0.49544 0.0
O36 O 0.38623 0.9676 0.484 0.0
O37 O 0.4767 0.91384 0.50806 0.0
O38 O 0.38766 0.92139 0.5041 0.0
C39 C 0.50136 0.01956 0.45241 0.0
C40 C 0.47408 0.99124 0.54974 0.0
C41 C 0.60026 0.09907 0.50424 0.0
C42 C 0.45389 0.09622 0.50553 0.0
C43 C 0.5145 0.92192 0.5023 0.0
C44 C 0.36701 0.93104 0.49257 0.0
O45 O 0.5251 0.00945 0.46204 0.0
O46 O 0.4532 0.44859 0.80162 0.0
Zn47 Zn 0.43233 0.42237 0.82615 0.0
O48 O 0.47284 0.46168 0.84463 0.0
Zn49 Zn 0.44043 0.47601 0.86216 0.0
Zn50 Zn 0.51885 0.51576 0.83345 0.0
Zn51 Zn 0.50061 0.4331 0.85707 0.0
O52 O 0.44532 0.45744 0.88717 0.0
O53 O 0.48178 0.42101 0.88269 0.0
O54 O 0.37046 0.41314 0.82946 0.0
O55 O 0.37646 0.4458 0.8556 0.0
O56 O 0.46013 0.54102 0.86176 0.0
O57 O 0.51497 0.56807 0.84182 0.0
O58 O 0.5795 0.52669 0.83894 0.0
O59 O 0.43143 0.3639 0.82591 0.0
O60 O 0.56736 0.46988 0.85618 0.0
O61 O 0.48307 0.37509 0.84586 0.0
C62 C 0.48595 0.4847 0.79598 0.0
C63 C 0.46129 0.43395 0.89293 0.0
C64 C 0.4903 0.57335 0.85295 0.0
C65 C 0.35344 0.42379 0.84227 0.0
C66 C 0.59382 0.50593 0.84819 0.0
C67 C 0.45497 0.351 0.83415 0.0
O68 O 0.51352 0.51332 0.80678 0.0
C69 C 0.36353 0.90287 0.22922 0.0
C70 C 0.35813 0.90307 0.21067 0.0
C71 C 0.39281 0.93553 0.20025 0.0
C72 C 0.4324 0.96683 0.20822 0.0
H73 H 0.55138 0.07367 0.1968 0.0
H74 H 0.61093 0.12875 0.17822 0.0
H75 H 0.69526 0.17941 0.2245 0.0
H76 H 0.63551 0.12496 0.24325 0.0
H77 H 0.5708 0.09927 0.28327 0.0
H78 H 0.57117 0.09827 0.31581 0.0
H79 H 0.48855 0.9554 0.31518 0.0
H80 H 0.48617 0.95698 0.28279 0.0
H81 H 0.4061 0.93286 0.25154 0.0
H82 H 0.33711 0.87852 0.2376 0.0
H83 H 0.38974 0.93612 0.18589 0.0
H84 H 0.45862 0.99114 0.19977 0.0
N85 N 0.51369 0.03059 0.2252 0.0
N86 N 0.55694 0.06062 0.25085 0.0
N87 N 0.48555 -0.00152 0.25312 0.0
C88 C 0.55221 0.06132 0.23286 0.0
C89 C 0.52371 0.02906 0.26101 0.0
C90 C 0.48017 -0.00082 0.23523 0.0
C91 C 0.58854 0.09491 0.22158 0.0
C92 C 0.58256 0.09654 0.20308 0.0
C93 C 0.61677 0.12794 0.19237 0.0
C94 C 0.65771 0.15842 0.19989 0.0
C95 C 0.66381 0.15673 0.21835 0.0
C96 C 0.6296 0.12537 0.22909 0.0
C97 C 0.52807 0.02828 0.28056 0.0
C98 C 0.55303 0.06771 0.29014 0.0
C99 C 0.55337 0.06704 0.3088 0.0
C100 C 0.52945 0.02677 0.31822 0.0
C101 C 0.50628 0.98717 0.30847 0.0
C102 C 0.50516 0.98798 0.28988 0.0
C103 C 0.43808 0.96632 0.22678 0.0
C104 C 0.40306 0.93413 0.2372 0.0
C105 C 0.51587 0.38614 0.5651 0.0
C106 C 0.49906 0.38174 0.54775 0.0
C107 C 0.49373 0.41589 0.5405 0.0
C108 C 0.50584 0.45431 0.55035 0.0
H109 H 0.53099 0.58111 0.54527 0.0
H110 H 0.53886 0.64632 0.53031 0.0
H111 H 0.60834 0.72635 0.57607 0.0
H112 H 0.59865 0.66029 0.59144 0.0
H113 H 0.56186 0.60189 0.62936 0.0
H114 H 0.55549 0.59694 0.66179 0.0
H115 H 0.52728 0.46135 0.65959 0.0
H116 H 0.53429 0.46625 0.62726 0.0
H117 H 0.54023 0.42664 0.58839 0.0
H118 H 0.51988 0.35994 0.571 0.0
H119 H 0.48088 0.41313 0.52713 0.0
H120 H 0.50166 0.48032 0.54439 0.0
N121 N 0.54431 0.53734 0.5697 0.0
N122 N 0.55803 0.57404 0.59716 0.0
N123 N 0.53797 0.49897 0.59622 0.0
C124 C 0.55588 0.57486 0.57907 0.0
C125 C 0.54899 0.53612 0.60585 0.0
C126 C 0.53557 0.49939 0.57815 0.0
C127 C 0.56386 0.61544 0.56962 0.0
C128 C 0.54831 0.61264 0.55212 0.0
C129 C 0.55317 0.65022 0.54345 0.0
C130 C 0.57428 0.6917 0.55196 0.0
C131 C 0.59126 0.69479 0.56924 0.0
C132 C 0.58583 0.65698 0.57803 0.0
C133 C 0.54837 0.53439 0.62563 0.0
C134 C 0.55469 0.5711 0.63576 0.0
C135 C 0.55077 0.56823 0.65435 0.0
C136 C 0.54064 0.5287 0.66323 0.0
C137 C 0.53551 0.49241 0.65316 0.0
C138 C 0.53931 0.4952 0.63458 0.0
C139 C 0.52271 0.45878 0.56774 0.0
C140 C 0.52728 0.42416 0.57506 0.0
C141 C 0.92908 0.62245 0.8832 0.0
C142 C 0.91689 0.61153 0.86526 0.0
C143 C 0.94551 0.60548 0.85378 0.0
C144 C 0.98423 0.60791 0.86034 0.0
H145 H 0.06282 0.54884 0.85175 0.0
H146 H 0.09929 0.51419 0.83582 0.0
H147 H 0.2035 0.56547 0.87517 0.0
H148 H 0.16745 0.59983 0.89103 0.0
H149 H 0.12727 0.59553 0.93189 0.0
H150 H 0.12835 0.59064 0.96432 0.0
H151 H 0.0286 0.62959 0.96828 0.0
H152 H 0.02809 0.63549 0.93602 0.0
H153 H 0.97511 0.63218 0.90376 0.0
H154 H 0.9076 0.62671 0.8925 0.0
H155 H 0.93739 0.59771 0.83982 0.0
H156 H 0.00478 0.60159 0.85128 0.0
N157 N 0.05628 0.60019 0.87598 0.0
N158 N 0.09606 0.60045 0.90126 0.0
N159 N 0.04076 0.61961 0.90393 0.0
C160 C 0.08834 0.59404 0.88344 0.0
C161 C 0.07237 0.61327 0.91161 0.0
C162 C 0.03261 0.61343 0.88616 0.0
C163 C 0.11222 0.57693 0.87269 0.0
C164 C 0.09389 0.55326 0.85682 0.0
C165 C 0.11454 0.53324 0.84775 0.0
C166 C 0.15421 0.53732 0.85424 0.0
C167 C 0.17323 0.56228 0.86973 0.0
C168 C 0.15239 0.5817 0.8789 0.0
C169 C 0.07728 0.61549 0.93128 0.0
C170 C 0.10602 0.60369 0.93966 0.0
C171 C 0.10646 0.60059 0.95825 0.0
C172 C 0.07826 0.60931 0.96885 0.0
C173 C 0.05101 0.62301 0.96051 0.0
C174 C 0.05056 0.62614 0.94196 0.0
C175 C -0.00486 0.61661 0.8785 0.0
C176 C 0.96779 0.62518 0.88971 0.0
C177 C 0.10537 0.66372 0.42174 0.0
C178 C 0.10366 0.67018 0.44016 0.0
C179 C 0.06987 0.63646 0.45047 0.0
C180 C 0.03888 0.59659 0.44257 0.0
H181 H 0.93499 0.47444 0.45427 0.0
H182 H 0.88 0.41396 0.4726 0.0
H183 H 0.83064 0.3311 0.42583 0.0
H184 H 0.88489 0.39157 0.40739 0.0
H185 H 0.91115 0.45626 0.36754 0.0
H186 H 0.91356 0.45437 0.33504 0.0
H187 H 0.05676 0.53494 0.33646 0.0
H188 H 0.05373 0.53907 0.36878 0.0
H189 H 0.07699 0.62009 0.39961 0.0
H190 H 0.13081 0.68941 0.41345 0.0
H191 H 0.06807 0.64045 0.46474 0.0
H192 H 0.01356 0.57104 0.45094 0.0
N193 N 0.97757 0.51363 0.4258 0.0
N194 N 0.94914 0.46974 0.40019 0.0
N195 N 0.01036 0.54161 0.39793 0.0
C196 C 0.9477 0.4747 0.41814 0.0
C197 C 0.98058 0.50307 0.39006 0.0
C198 C 0.00888 0.54729 0.41578 0.0
C199 C 0.9143 0.438 0.4293 0.0
C200 C 0.9124 0.44338 0.44785 0.0
C201 C 0.88108 0.40867 0.4584 0.0
C202 C 0.85098 0.3679 0.45064 0.0
C203 C 0.85301 0.36241 0.43214 0.0
C204 C 0.88427 0.39706 0.42159 0.0
C205 C 0.9822 0.49817 0.3706 0.0
C206 C 0.94307 0.47331 0.36083 0.0
C207 C 0.94456 0.47207 0.34221 0.0
C208 C 0.98536 0.49488 0.33301 0.0
C209 C 0.02462 0.51806 0.34298 0.0
C210 C 0.02298 0.52017 0.36152 0.0
C211 C 0.04104 0.58978 0.42417 0.0
C212 C 0.07441 0.62399 0.41383 0.0
C213 C 0.52725 0.12118 0.76844 0.0
C214 C 0.51595 0.11888 0.78657 0.0
C215 C 0.51529 0.08556 0.79732 0.0
C216 C 0.52368 0.05375 0.78989 0.0
H217 H 0.56101 0.95079 0.79864 0.0
H218 H 0.55119 0.88973 0.81761 0.0
H219 H 0.46475 0.79628 0.778 0.0
H220 H 0.47713 0.85757 0.75864 0.0
H221 H 0.48331 0.90055 0.71775 0.0
H222 H 0.47274 0.89513 0.68533 0.0
H223 H 0.55873 0.03665 0.68049 0.0
H224 H 0.56859 0.04243 0.71284 0.0
H225 H 0.5424 0.09098 0.7468 0.0
H226 H 0.52794 0.14659 0.75987 0.0
H227 H 0.50742 0.0836 0.81141 0.0
H228 H 0.52146 0.02767 0.79846 0.0
N229 N 0.53045 0.98304 0.77339 0.0
N230 N 0.52486 0.94206 0.74771 0.0
N231 N 0.53388 0.01325 0.74513 0.0
C232 C 0.52603 0.94575 0.76577 0.0
C233 C 0.52949 0.97611 0.73733 0.0
C234 C 0.5341 0.01685 0.76317 0.0
C235 C 0.52015 0.90877 0.77714 0.0
C236 C 0.54009 0.91712 0.79401 0.0
C237 C 0.53407 0.88208 0.80494 0.0
C238 C 0.50713 0.83793 0.79939 0.0
C239 C 0.48654 0.82979 0.78258 0.0
C240 C 0.49347 0.86486 0.77148 0.0
C241 C 0.52664 0.97194 0.71776 0.0
C242 C 0.50038 0.93038 0.70973 0.0
C243 C 0.49415 0.92726 0.69126 0.0
C244 C 0.51497 0.96548 0.68058 0.0
C245 C 0.54258 0.00674 0.68852 0.0
C246 C 0.54803 0.01002 0.70698 0.0
C247 C 0.53252 0.05447 0.77152 0.0
C248 C 0.53541 0.08924 0.76097 0.0
C249 C 0.59377 0.40045 0.12107 0.0
C250 C 0.60196 0.42879 0.13566 0.0
C251 C 0.56767 0.43514 0.14219 0.0
C252 C 0.52612 0.41427 0.13394 0.0
H253 H 0.38846 0.36364 0.14186 0.0
H254 H 0.32985 0.37502 0.15404 0.0
H255 H 0.27019 0.35251 0.10181 0.0
H256 H 0.32743 0.33965 0.08979 0.0
H257 H 0.37533 0.29877 0.05756 0.0
H258 H 0.37759 0.30373 0.02507 0.0
H259 H 0.51339 0.41179 0.02767 0.0
H260 H 0.5118 0.40414 0.05983 0.0
H261 H 0.5478 0.35969 0.10109 0.0
H262 H 0.61984 0.39539 0.11565 0.0
H263 H 0.57329 0.45684 0.15344 0.0
H264 H 0.50056 0.42065 0.13892 0.0
N265 N 0.43954 0.3648 0.11644 0.0
N266 N 0.4033 0.34554 0.08882 0.0
N267 N 0.47781 0.36417 0.0907 0.0
C268 C 0.40227 0.352 0.10666 0.0
C269 C 0.4409 0.35154 0.08078 0.0
C270 C 0.47722 0.37035 0.10856 0.0
C271 C 0.36312 0.35143 0.11477 0.0
C272 C 0.36234 0.36024 0.13304 0.0
C273 C 0.3289 0.36702 0.14002 0.0
C274 C 0.2957 0.3653 0.12886 0.0
C275 C 0.29497 0.3537 0.11085 0.0
C276 C 0.32813 0.34662 0.10391 0.0
C277 C 0.4434 0.35094 0.06115 0.0
C278 C 0.40583 0.3229 0.05106 0.0
C279 C 0.40707 0.32617 0.03244 0.0
C280 C 0.44553 0.35853 0.02358 0.0
C281 C 0.4834 0.38581 0.03382 0.0
C282 C 0.4825 0.38163 0.05234 0.0
C283 C 0.51866 0.38753 0.11882 0.0
C284 C 0.55264 0.38025 0.11267 0.0
C285 C 0.12456 0.4432 0.16149 0.0
C286 C 0.12697 0.47412 0.14887 0.0
C287 C 0.1522 0.42475 0.16017 0.0
C288 C 0.18242 0.43705 0.14574 0.0
C289 C 0.18566 0.46891 0.13316 0.0
C290 C 0.15809 0.48736 0.13496 0.0
C291 C 0.14849 0.39151 0.17401 0.0
C292 C 0.2173 0.48253 0.11749 0.0
C293 C 0.28015 0.41754 0.14616 0.0
C294 C 0.2646 0.3798 0.13534 0.0
C295 C 0.25302 0.43545 0.15035 0.0
C296 C 0.20959 0.4155 0.14334 0.0
C297 C 0.193 0.37632 0.13307 0.0
C298 C 0.22061 0.35874 0.12932 0.0
C299 C 0.27156 0.47689 0.16158 0.0
C300 C 0.14679 0.35415 0.12535 0.0
H301 H 0.10082 0.43315 0.17238 0.0
H302 H 0.15996 0.5111 0.12513 0.0
H303 H 0.13655 0.35871 0.16767 0.0
H304 H 0.18158 0.40181 0.17977 0.0
H305 H 0.12532 0.38765 0.18503 0.0
H306 H 0.21645 0.50844 0.10913 0.0
H307 H 0.25172 0.49534 0.12226 0.0
H308 H 0.20874 0.45323 0.109 0.0
H309 H 0.31424 0.43439 0.1507 0.0
H310 H 0.20814 0.32912 0.12122 0.0
H311 H 0.24798 0.47276 0.17243 0.0
H312 H 0.2762 0.50518 0.15319 0.0
H313 H 0.304 0.48545 0.1676 0.0
H314 H 0.12194 0.34701 0.13604 0.0
H315 H 0.13816 0.32266 0.11843 0.0
H316 H 0.14414 0.37682 0.11566 0.0
C317 C 0.67712 0.13757 0.49182 0.0
C318 C 0.64434 0.13921 0.50221 0.0
C319 C 0.715 0.17653 0.48625 0.0
C320 C 0.72011 0.21803 0.4912 0.0
C321 C 0.68931 0.21986 0.50307 0.0
C322 C 0.6517 0.1803 0.50849 0.0
C323 C 0.74739 0.17318 0.47377 0.0
C324 C 0.69393 0.26354 0.50878 0.0
C325 C 0.8285 0.32042 0.47817 0.0
C326 C 0.81716 0.33118 0.4617 0.0
C327 C 0.79694 0.28436 0.48828 0.0
C328 C 0.75327 0.2586 0.48169 0.0
C329 C 0.74143 0.27007 0.46531 0.0
C330 C 0.7735 0.30627 0.45554 0.0
C331 C 0.8106 0.2731 0.50572 0.0
C332 C 0.69508 0.24347 0.45785 0.0
H333 H 0.67201 0.10588 0.48717 0.0
H334 H 0.62668 0.18186 0.51663 0.0
H335 H 0.74311 0.18263 0.46008 0.0
H336 H 0.78208 0.19635 0.47783 0.0
H337 H 0.74229 0.13904 0.47331 0.0
H338 H 0.67205 0.25955 0.52032 0.0
H339 H 0.72877 0.28753 0.51239 0.0
H340 H 0.68479 0.27802 0.4975 0.0
H341 H 0.86233 0.33947 0.48292 0.0
H342 H 0.76442 0.31504 0.443 0.0
H343 H 0.80981 0.24097 0.50446 0.0
H344 H 0.7869 0.26921 0.51648 0.0
H345 H 0.84453 0.29883 0.50978 0.0
H346 H 0.68732 0.20896 0.45522 0.0
H347 H 0.69096 0.25776 0.44523 0.0
H348 H 0.67041 0.24182 0.46771 0.0
C349 C 0.45302 0.61818 0.85285 0.0
C350 C 0.49242 0.61653 0.85323 0.0
C351 C 0.45346 0.657 0.84754 0.0
C352 C 0.4944 0.69493 0.84297 0.0
C353 C 0.53463 0.69484 0.8456 0.0
C354 C 0.53311 0.65528 0.85043 0.0
C355 C 0.40973 0.65542 0.84478 0.0
C356 C 0.57905 0.73509 0.84146 0.0
C357 C 0.49927 0.76291 0.80288 0.0
C358 C 0.50169 0.80056 0.81078 0.0
C359 C 0.4952 0.72773 0.81329 0.0
C360 C 0.4949 0.73073 0.83212 0.0
C361 C 0.49713 0.76839 0.84027 0.0
C362 C 0.49998 0.80271 0.82948 0.0
C363 C 0.49221 0.68771 0.80406 0.0
C364 C 0.49745 0.77281 0.86031 0.0
H365 H 0.42148 0.58806 0.85495 0.0
H366 H 0.56359 0.65396 0.85094 0.0
H367 H 0.41214 0.68766 0.84794 0.0
H368 H 0.40005 0.64789 0.83056 0.0
H369 H 0.38299 0.62915 0.8531 0.0
H370 H 0.60682 0.73252 0.84748 0.0
H371 H 0.58416 0.73836 0.82678 0.0
H372 H 0.5803 0.76573 0.84638 0.0
H373 H 0.50154 0.76119 0.78851 0.0
H374 H 0.50103 0.83127 0.83573 0.0
H375 H 0.46295 0.65692 0.80905 0.0
H376 H 0.52216 0.68536 0.80707 0.0
H377 H 0.48947 0.68917 0.78933 0.0
H378 H 0.46806 0.74374 0.86626 0.0
H379 H 0.49757 0.80344 0.86456 0.0
H380 H 0.52731 0.77342 0.86583 0.0
C381 C 0.85862 0.55269 0.16358 0.0
C382 C 0.8784 0.55242 0.14726 0.0
C383 C 0.81359 0.5405 0.16441 0.0
C384 C 0.78834 0.52826 0.14855 0.0
C385 C 0.80958 0.53301 0.13187 0.0
C386 C 0.85439 0.54487 0.13144 0.0
C387 C 0.79226 0.53649 0.18241 0.0
C388 C 0.78404 0.52124 0.11458 0.0
C389 C 0.6712 0.43232 0.14647 0.0
C390 C 0.64741 0.45406 0.14288 0.0
C391 C 0.71684 0.45639 0.14976 0.0
C392 C 0.73914 0.50335 0.14934 0.0
C393 C 0.71463 0.52545 0.14716 0.0
C394 C 0.66883 0.50042 0.14395 0.0
C395 C 0.74166 0.43147 0.15231 0.0
C396 C 0.73714 0.57539 0.14678 0.0
H397 H 0.8771 0.55862 0.17586 0.0
H398 H 0.86983 0.5453 0.11878 0.0
H399 H 0.76746 0.5476 0.18179 0.0
H400 H 0.77461 0.50119 0.18663 0.0
H401 H 0.8173 0.55609 0.19274 0.0
H402 H 0.80639 0.53246 0.10274 0.0
H403 H 0.76225 0.48472 0.11378 0.0
H404 H 0.76248 0.53626 0.11401 0.0
H405 H 0.6544 0.39642 0.14586 0.0
H406 H 0.65042 0.51727 0.14111 0.0
H407 H 0.76389 0.44446 0.16403 0.0
H408 H 0.76274 0.43627 0.14041 0.0
H409 H 0.71889 0.39532 0.15421 0.0
H410 H 0.76326 0.59029 0.15713 0.0
H411 H 0.71305 0.58713 0.14886 0.0
H412 H 0.75342 0.58767 0.13361 0.0
C413 C 0.29971 0.904 0.47336 0.0
C414 C 0.32123 0.89703 0.48775 0.0
C415 C 0.25984 0.86928 0.46668 0.0
C416 C 0.24126 0.82674 0.47458 0.0
C417 C 0.26092 0.82041 0.48995 0.0
C418 C 0.30066 0.85568 0.49638 0.0
C419 C 0.23948 0.87735 0.45038 0.0
C420 C 0.24193 0.77553 0.4988 0.0
C421 C 0.1272 0.73376 0.46129 0.0
C422 C 0.13837 0.71119 0.44866 0.0
C423 C 0.16027 0.77208 0.46968 0.0
C424 C 0.20534 0.78772 0.46537 0.0
C425 C 0.21669 0.76518 0.45253 0.0
C426 C 0.18304 0.72722 0.44433 0.0
C427 C 0.14709 0.79554 0.48323 0.0
C428 C 0.26448 0.78069 0.44766 0.0
H429 H 0.31507 0.93596 0.46672 0.0
H430 H 0.31669 0.85009 0.50766 0.0
H431 H 0.24554 0.86174 0.4386 0.0
H432 H 0.20302 0.862 0.45203 0.0
H433 H 0.25375 0.91328 0.44756 0.0
H434 H 0.25764 0.77747 0.5119 0.0
H435 H 0.20562 0.76046 0.50083 0.0
H436 H 0.24735 0.75299 0.49002 0.0
H437 H 0.09259 0.72157 0.46454 0.0
H438 H 0.19178 0.70943 0.43477 0.0
H439 H 0.16112 0.83084 0.4794 0.0
H440 H 0.16097 0.79497 0.49646 0.0
H441 H 0.11049 0.78008 0.48455 0.0
H442 H 0.28098 0.81549 0.44285 0.0
H443 H 0.26753 0.75987 0.43715 0.0
H444 H 0.2827 0.7799 0.45965 0.0
C445 C 0.47673 0.29371 0.83895 0.0
C446 C 0.45351 0.30943 0.82888 0.0
C447 C 0.48264 0.25918 0.83268 0.0
C448 C 0.46469 0.2398 0.81598 0.0
C449 C 0.43861 0.25334 0.80631 0.0
C450 C 0.43328 0.28811 0.8129 0.0
C451 C 0.51044 0.24539 0.84343 0.0
C452 C 0.41861 0.23297 0.78852 0.0
C453 C 0.52812 0.19531 0.79046 0.0
C454 C 0.50278 0.14985 0.79406 0.0
C455 C 0.51565 0.22489 0.79735 0.0
C456 C 0.47678 0.20841 0.80797 0.0
C457 C 0.45078 0.16247 0.81148 0.0
C458 C 0.4642 0.13368 0.80451 0.0
C459 C 0.54441 0.27383 0.79347 0.0
C460 C 0.40902 0.14384 0.82266 0.0
H461 H 0.49198 0.30962 0.85145 0.0
H462 H 0.41515 0.29997 0.80507 0.0
H463 H 0.49297 0.20884 0.84502 0.0
H464 H 0.54202 0.25535 0.83623 0.0
H465 H 0.51844 0.26079 0.85688 0.0
H466 H 0.3949 0.2433 0.78377 0.0
H467 H 0.44543 0.24326 0.77842 0.0
H468 H 0.4011 0.19626 0.78938 0.0
H469 H 0.55808 0.20779 0.78247 0.0
H470 H 0.44421 0.09837 0.80704 0.0
H471 H 0.55734 0.29226 0.80615 0.0
H472 H 0.52445 0.28668 0.78701 0.0
H473 H 0.57301 0.28105 0.78465 0.0
H474 H 0.41717 0.15784 0.83632 0.0
H475 H 0.3918 0.1071 0.82365 0.0
H476 H 0.3858 0.15355 0.81686 0.0
C477 C 0.57332 0.90232 0.50781 0.0
C478 C 0.52833 0.88881 0.50551 0.0
C479 C 0.58627 0.87237 0.51388 0.0
C480 C 0.55342 0.8279 0.5174 0.0
C481 C 0.50825 0.81347 0.51392 0.0
C482 C 0.49621 0.84424 0.50816 0.0
C483 C 0.63468 0.88901 0.51764 0.0
C484 C 0.47235 0.76605 0.51717 0.0
C485 C 0.58086 0.73662 0.5247 0.0
C486 C 0.57537 0.73059 0.54326 0.0
C487 C 0.57556 0.76941 0.51607 0.0
C488 C 0.56533 0.79727 0.5263 0.0
C489 C 0.56255 0.79326 0.54513 0.0
C490 C 0.56722 0.75973 0.55336 0.0
C491 C 0.57856 0.77265 0.49597 0.0
C492 C 0.55231 0.82287 0.55652 0.0
H493 H 0.59824 0.93684 0.50586 0.0
H494 H 0.46143 0.83363 0.50622 0.0
H495 H 0.63977 0.89004 0.53228 0.0
H496 H 0.64513 0.86623 0.51195 0.0
H497 H 0.65647 0.9228 0.51214 0.0
H498 H 0.4396 0.75922 0.51205 0.0
H499 H 0.48123 0.74285 0.5107 0.0
H500 H 0.46909 0.75893 0.5317 0.0
H501 H 0.58812 0.71489 0.51683 0.0
H502 H 0.56239 0.75512 0.56767 0.0
H503 H 0.6006 0.80748 0.49169 0.0
H504 H 0.54517 0.76181 0.4904 0.0
H505 H 0.59117 0.7517 0.49013 0.0
H506 H 0.57457 0.85818 0.55291 0.0
H507 H 0.55597 0.81861 0.57099 0.0
H508 H 0.51773 0.81514 0.55407 0.0
C509 C 0.67083 0.55472 0.83673 0.0
C510 C 0.64218 0.5239 0.84941 0.0
C511 C 0.71678 0.5717 0.83754 0.0
C512 C 0.73443 0.55804 0.85152 0.0
C513 C 0.70573 0.52725 0.86445 0.0
C514 C 0.65986 0.51024 0.86315 0.0
C515 C 0.74637 0.60387 0.82336 0.0
C516 C 0.72351 0.5124 0.87971 0.0
C517 C 0.84643 0.56526 0.84852 0.0
C518 C 0.87249 0.60231 0.85924 0.0
C519 C 0.80191 0.55185 0.84506 0.0
C520 C 0.78292 0.5757 0.85273 0.0
C521 C 0.8096 0.61446 0.86275 0.0
C522 C 0.85422 0.62754 0.86574 0.0
C523 C 0.77461 0.51076 0.83404 0.0
C524 C 0.79043 0.6407 0.87116 0.0
H525 H 0.65729 0.56513 0.82598 0.0
H526 H 0.63787 0.48663 0.87303 0.0
H527 H 0.77111 0.63555 0.82959 0.0
H528 H 0.7651 0.59022 0.81637 0.0
H529 H 0.72732 0.61099 0.81332 0.0
H530 H 0.6968 0.489 0.88885 0.0
H531 H 0.74146 0.49593 0.87444 0.0
H532 H 0.74765 0.54159 0.88752 0.0
H533 H 0.86005 0.54527 0.84357 0.0
H534 H 0.87443 0.65673 0.87373 0.0
H535 H 0.75555 0.5171 0.82376 0.0
H536 H 0.75026 0.48368 0.84276 0.0
H537 H 0.79547 0.49918 0.82729 0.0
H538 H 0.77251 0.64904 0.86107 0.0
H539 H 0.81636 0.6719 0.87736 0.0
H540 H 0.76599 0.62029 0.88162 0.0
C541 C 0.17209 0.70481 0.15494 0.0
C542 C 0.12981 0.68713 0.16271 0.0
C543 C 0.2081 0.74388 0.16146 0.0
C544 C 0.20161 0.76574 0.17608 0.0
C545 C 0.15848 0.74991 0.18315 0.0
C546 C 0.12301 0.71074 0.17636 0.0
C547 C 0.25361 0.75998 0.15349 0.0
C548 C 0.15031 0.77259 0.19867 0.0
C549 C 0.29906 0.82404 0.20734 0.0
C550 C 0.31706 0.86842 0.20214 0.0
C551 C 0.26106 0.79047 0.19911 0.0
C552 C 0.24061 0.80159 0.18532 0.0
C553 C 0.25824 0.84638 0.18014 0.0
C554 C 0.29641 0.87936 0.18862 0.0
C555 C 0.24329 0.74298 0.20495 0.0
C556 C 0.23708 0.85933 0.16555 0.0
H557 H 0.17758 0.68713 0.14424 0.0
H558 H 0.0904 0.69755 0.18236 0.0
H559 H 0.27037 0.79611 0.15076 0.0
H560 H 0.2744 0.75439 0.16316 0.0
H561 H 0.25219 0.7425 0.14089 0.0
H562 H 0.11436 0.7599 0.20096 0.0
H563 H 0.16445 0.76694 0.21097 0.0
H564 H 0.16708 0.80893 0.19643 0.0
H565 H 0.31531 0.8154 0.2176 0.0
H566 H 0.31005 0.91374 0.18471 0.0
H567 H 0.24441 0.72311 0.19359 0.0
H568 H 0.20808 0.72813 0.20916 0.0
H569 H 0.26247 0.74014 0.21618 0.0
H570 H 0.23805 0.84362 0.1528 0.0
H571 H 0.25401 0.8958 0.16353 0.0
H572 H 0.20165 0.84705 0.16878 0.0
C573 C 0.43433 0.14082 0.52526 0.0
C574 C 0.44446 0.13255 0.5081 0.0
C575 C 0.43579 0.18076 0.52922 0.0
C576 C 0.44868 0.21348 0.51575 0.0
C577 C 0.45503 0.20367 0.49801 0.0
C578 C 0.4525 0.16291 0.49434 0.0
C579 C 0.42773 0.18947 0.54823 0.0
C580 C 0.46869 0.23767 0.4833 0.0
C581 C 0.44496 0.316 0.5301 0.0
C582 C 0.48747 0.34146 0.53734 0.0
C583 C 0.43224 0.27499 0.52202 0.0
C584 C 0.46302 0.2597 0.5211 0.0
C585 C 0.50687 0.2868 0.5274 0.0
C586 C 0.51843 0.32724 0.53557 0.0
C587 C 0.38523 0.24698 0.5155 0.0
C588 C 0.54096 0.27204 0.52641 0.0
H589 H 0.42761 0.11697 0.53584 0.0
H590 H 0.46043 0.15645 0.48106 0.0
H591 H 0.45988 0.21297 0.55452 0.0
H592 H 0.40652 0.20492 0.54859 0.0
H593 H 0.41162 0.15862 0.55636 0.0
H594 H 0.46339 0.22226 0.46989 0.0
H595 H 0.45006 0.25578 0.4842 0.0
H596 H 0.50449 0.26237 0.48467 0.0
H597 H 0.42106 0.32717 0.5315 0.0
H598 H 0.55151 0.34741 0.54095 0.0
H599 H 0.36631 0.21946 0.52507 0.0
H600 H 0.38459 0.23193 0.50237 0.0
H601 H 0.36806 0.26651 0.51427 0.0
H602 H 0.53115 0.24345 0.53552 0.0
H603 H 0.57461 0.29885 0.53024 0.0
H604 H 0.54265 0.26091 0.51271 0.0
C605 C 0.29302 0.42175 0.82372 0.0
C606 C 0.30876 0.41833 0.84051 0.0
C607 C 0.259 0.43219 0.82231 0.0
C608 C 0.24073 0.43923 0.83804 0.0
C609 C 0.25247 0.42986 0.85489 0.0
C610 C 0.28641 0.4195 0.85591 0.0
C611 C 0.24625 0.44041 0.80408 0.0
C612 C 0.23311 0.43597 0.87202 0.0
C613 C 0.22085 0.53536 0.8433 0.0
C614 C 0.17481 0.5135 0.84581 0.0
C615 C 0.24241 0.51167 0.83915 0.0
C616 C 0.21719 0.46491 0.83745 0.0
C617 C 0.17029 0.44322 0.83822 0.0
C618 C 0.14954 0.46785 0.84247 0.0
C619 C 0.29254 0.53638 0.83819 0.0
C620 C 0.14216 0.39366 0.83604 0.0
H621 H 0.30999 0.42053 0.81175 0.0
H622 H 0.29799 0.416 0.8689 0.0
H623 H 0.21037 0.42951 0.80353 0.0
H624 H 0.26507 0.47647 0.80113 0.0
H625 H 0.25414 0.42299 0.79352 0.0
H626 H 0.24122 0.42171 0.8837 0.0
H627 H 0.2466 0.47191 0.87443 0.0
H628 H 0.19652 0.42023 0.87105 0.0
H629 H 0.24026 0.57081 0.84554 0.0
H630 H 0.11386 0.45085 0.84436 0.0
H631 H 0.30412 0.52622 0.82623 0.0
H632 H 0.30598 0.52824 0.85011 0.0
H633 H 0.30664 0.57288 0.83771 0.0
H634 H 0.15658 0.38112 0.82594 0.0
H635 H 0.10772 0.38388 0.83208 0.0
H636 H 0.14054 0.37723 0.84893 0.0
C637 C 0.88591 0.33181 0.1569 0.0
C638 C 0.88385 0.36462 0.1468 0.0
C639 C 0.84713 0.2939 0.16259 0.0
C640 C 0.8054 0.2889 0.15811 0.0
C641 C 0.80312 0.31971 0.14646 0.0
C642 C 0.84254 0.35728 0.14086 0.0
C643 C 0.85099 0.26154 0.17484 0.0
C644 C 0.75922 0.31534 0.14128 0.0
C645 C 0.70381 0.1807 0.17191 0.0
C646 C 0.69395 0.19215 0.18858 0.0
C647 C 0.73917 0.21218 0.16147 0.0
C648 C 0.76524 0.25592 0.16794 0.0
C649 C 0.75469 0.26789 0.18454 0.0
C650 C 0.71912 0.23589 0.19463 0.0
C651 C 0.74937 0.19841 0.14378 0.0
C652 C 0.78163 0.31432 0.19188 0.0
H653 H 0.91783 0.33707 0.16132 0.0
H654 H 0.84071 0.3825 0.13302 0.0
H655 H 0.84228 0.26595 0.18866 0.0
H656 H 0.82751 0.22688 0.17085 0.0
H657 H 0.88514 0.26653 0.1749 0.0
H658 H 0.76265 0.33661 0.12963 0.0
H659 H 0.73456 0.28044 0.13807 0.0
H660 H 0.7459 0.32556 0.15267 0.0
H661 H 0.68459 0.14684 0.16723 0.0
H662 H 0.71103 0.2451 0.20733 0.0
H663 H 0.78175 0.1995 0.14454 0.0
H664 H 0.75229 0.22185 0.13312 0.0
H665 H 0.72352 0.16437 0.13991 0.0
H666 H 0.81637 0.32225 0.19408 0.0
H667 H 0.76807 0.31854 0.20472 0.0
H668 H 0.78254 0.33876 0.18214 0.0
C669 C 0.00246 0.53809 0.0694 0.0
C670 C 0.03797 0.55328 0.08139 0.0
C671 C 0.00999 0.54761 0.0511 0.0
C672 C 0.05407 0.57275 0.04463 0.0
C673 C 0.09005 0.5879 0.05661 0.0
C674 C 0.08158 0.57805 0.07484 0.0
C675 C 0.97077 0.53099 0.0387 0.0
C676 C 0.13751 0.61463 0.05017 0.0
C677 C 0.07336 0.56334 0.99536 0.0
C678 C 0.07513 0.60161 0.98842 0.0
C679 C 0.06717 0.55386 0.01369 0.0
C680 C 0.06249 0.58329 0.02532 0.0
C681 C 0.06507 0.62239 0.01845 0.0
C682 C 0.07143 0.63112 8e-05 0.0
C683 C 0.06468 0.51187 0.02054 0.0
C684 C 0.06037 0.65463 0.03048 0.0
H685 H 0.96866 0.51902 0.07432 0.0
H686 H 0.10928 0.58987 0.08396 0.0
H687 H 0.97115 0.5594 0.03182 0.0
H688 H 0.973 0.50962 0.02825 0.0
H689 H 0.93858 0.51174 0.04584 0.0
H690 H 0.16176 0.62364 0.06119 0.0
H691 H 0.14435 0.59552 0.04005 0.0
H692 H 0.14294 0.64553 0.04361 0.0
H693 H 0.07551 0.54005 0.9864 0.0
H694 H 0.07329 0.661 0.99481 0.0
H695 H 0.03145 0.4899 0.02647 0.0
H696 H 0.08948 0.51981 0.03124 0.0
H697 H 0.07068 0.49337 0.00984 0.0
H698 H 0.02731 0.6378 0.03707 0.0
H699 H 0.06409 0.68396 0.02308 0.0
H700 H 0.08566 0.66623 0.04118 0.0
C701 C 0.49539 0.04775 0.4225 0.0
C702 C 0.50735 0.02185 0.43284 0.0
C703 C 0.50089 0.05016 0.4039 0.0
C704 C 0.51779 0.02526 0.39545 0.0
C705 C 0.52989 -0.00098 0.40583 0.0
C706 C 0.52498 -0.00198 0.42444 0.0
C707 C 0.48844 0.07918 0.39328 0.0
C708 C 0.54709 0.97126 0.39725 0.0
C709 C 0.4875 -0.00385 0.34687 0.0
C710 C 0.52708 0.02607 0.33808 0.0
C711 C 0.48435 -0.00494 0.36553 0.0
C712 C 0.52128 0.02542 0.37569 0.0
C713 C 0.56122 0.056 0.36699 0.0
C714 C 0.5638 0.05565 0.34829 0.0
C715 C 0.44137 0.96151 0.37436 0.0
C716 C 0.60107 0.0893 0.37742 0.0
H717 H 0.48214 0.06655 0.42897 0.0
H718 H 0.53403 0.97775 0.43238 0.0
H719 H 0.51703 0.10292 0.38499 0.0
H720 H 0.46089 0.05851 0.38406 0.0
H721 H 0.47794 0.09819 0.40197 0.0
H722 H 0.55551 0.95307 0.40724 0.0
H723 H 0.52171 0.94681 0.38806 0.0
H724 H 0.57711 0.99255 0.38914 0.0
H725 H 0.45855 0.97383 0.33918 0.0
H726 H 0.59472 0.07847 0.3417 0.0
H727 H 0.42696 0.97881 0.38187 0.0
H728 H 0.44769 0.94132 0.3841 0.0
H729 H 0.41645 0.93886 0.36456 0.0
H730 H 0.59199 0.11 0.38571 0.0
H731 H 0.62937 0.11144 0.36862 0.0
H732 H 0.61212 0.07186 0.38665 0.0
C733 C 0.52987 0.53192 0.77006 0.0
C734 C 0.49305 0.49298 0.77651 0.0
C735 C 0.53814 0.53936 0.75168 0.0
C736 C 0.50888 0.50714 0.73945 0.0
C737 C 0.47129 0.46811 0.74583 0.0
C738 C 0.46382 0.46149 0.76428 0.0
C739 C 0.57855 0.58141 0.74536 0.0
C740 C 0.43929 0.43305 0.73317 0.0
C741 C 0.50876 0.54082 0.69127 0.0
C742 C 0.53396 0.52469 0.68286 0.0
C743 C 0.50058 0.53562 0.70971 0.0
C744 C 0.51807 0.51382 0.71997 0.0
C745 C 0.54397 0.49793 0.71161 0.0
C746 C 0.55159 0.50354 0.69314 0.0
C747 C 0.4727 0.55288 0.71817 0.0
C748 C 0.56338 0.47473 0.72214 0.0
H749 H 0.55265 0.55651 0.77937 0.0
H750 H 0.43526 0.43133 0.76911 0.0
H751 H 0.60093 0.57313 0.7378 0.0
H752 H 0.56852 0.59974 0.73614 0.0
H753 H 0.59745 0.60364 0.75658 0.0
H754 H 0.411 0.40514 0.74025 0.0
H755 H 0.42598 0.44783 0.72362 0.0
H756 H 0.45689 0.41961 0.72523 0.0
H757 H 0.49455 0.55664 0.68335 0.0
H758 H 0.57151 0.49149 0.68674 0.0
H759 H 0.49148 0.57643 0.72903 0.0
H760 H 0.44248 0.52504 0.72427 0.0
H761 H 0.46239 0.56994 0.70838 0.0
H762 H 0.5849 0.49672 0.73292 0.0
H763 H 0.58327 0.46488 0.71366 0.0
H764 H 0.53635 0.44457 0.72862 0.0
C765 C 0.46797 0.94269 0.57532 0.0
C766 C 0.47408 0.98333 0.56906 0.0
C767 C 0.47239 0.93627 0.5935 0.0
C768 C 0.48208 0.97098 0.60568 0.0
C769 C 0.48638 0.01139 0.59951 0.0
C770 C 0.48288 0.01728 0.58121 0.0
C771 C 0.46848 0.89309 0.59957 0.0
C772 C 0.49571 0.04878 0.61217 0.0
C773 C 0.46267 0.9464 0.65522 0.0
C774 C 0.50615 0.96307 0.66129 0.0
C775 C 0.45413 0.94809 0.63705 0.0
C776 C 0.48994 0.96606 0.62475 0.0
C777 C 0.53376 0.98135 0.63079 0.0
C778 C 0.5414 0.98016 0.64907 0.0
C779 C 0.40714 0.93233 0.63113 0.0
C780 C 0.57265 -0.00011 0.61801 0.0
H781 H 0.46154 0.91652 0.56591 0.0
H782 H 0.48728 0.0486 0.57638 0.0
H783 H 0.5007 0.89944 0.60508 0.0
H784 H 0.44346 0.87809 0.61042 0.0
H785 H 0.45897 0.86876 0.58853 0.0
H786 H 0.49463 0.07663 0.60541 0.0
H787 H 0.47116 0.03653 0.62326 0.0
H788 H 0.52903 0.06169 0.61816 0.0
H789 H 0.43557 0.93365 0.66479 0.0
H790 H 0.57497 0.9929 0.65388 0.0
H791 H 0.39763 0.9074 0.62036 0.0
H792 H 0.40483 0.96065 0.62557 0.0
H793 H 0.38285 0.91746 0.64226 0.0
H794 H 0.56614 0.97611 0.607 0.0
H795 H 0.60404 0.00722 0.62469 0.0
H796 H 0.57724 0.03095 0.61191 0.0
C797 C 0.44802 0.37887 0.91673 0.0
C798 C 0.45594 0.42108 0.91188 0.0
C799 C 0.44372 0.36621 0.93471 0.0
C800 C 0.44914 0.39714 0.94811 0.0
C801 C 0.45724 0.43989 0.94325 0.0
C802 C 0.45975 0.45109 0.92513 0.0
C803 C 0.43349 0.31982 0.93937 0.0
C804 C 0.46449 0.47419 0.95718 0.0
C805 C 0.40717 0.35939 0.99529 0.0
C806 C 0.44566 0.36559 0.00393 0.0
C807 C 0.40748 0.36822 0.97701 0.0
C808 C 0.44758 0.38521 0.96723 0.0
C809 C 0.48647 0.39141 0.97575 0.0
C810 C 0.48482 0.38067 0.99388 0.0
C811 C 0.365 0.35992 0.96822 0.0
C812 C 0.53012 0.41031 0.96583 0.0
H813 H 0.44464 0.35554 0.90642 0.0
H814 H 0.46618 0.48383 0.92131 0.0
H815 H 0.46156 0.32112 0.94684 0.0
H816 H 0.4038 0.30359 0.94817 0.0
H817 H 0.42734 0.29893 0.92733 0.0
H818 H 0.47079 0.506 0.95117 0.0
H819 H 0.43507 0.46161 0.96608 0.0
H820 H 0.49324 0.48072 0.96565 0.0
H821 H 0.37685 0.34858 0.00284 0.0
H822 H 0.51451 0.38456 0.00018 0.0
H823 H 0.35849 0.33908 0.95616 0.0
H824 H 0.36823 0.39181 0.9638 0.0
H825 H 0.33591 0.34319 0.97733 0.0
H826 H 0.5271 0.38837 0.95455 0.0
H827 H 0.55763 0.41434 0.97455 0.0
H828 H 0.53902 0.44314 0.96009 0.0
C829 C 0.01819 0.4904 0.22735 0.0
C830 C -0.00381 0.50891 0.21824 0.0
C831 C 0.01624 0.48694 0.24601 0.0
C832 C 0.99072 0.50129 0.2557 0.0
C833 C 0.96756 0.51904 0.24653 0.0
C834 C 0.97108 0.52321 0.2279 0.0
C835 C 0.04228 0.4689 0.25537 0.0
C836 C 0.93918 0.53371 0.25641 0.0
C837 C 0.95706 0.45897 0.30312 0.0
C838 C 0.98698 0.49595 0.31314 0.0
C839 C 0.95756 0.46033 0.2844 0.0
C840 C 0.98948 0.49919 0.27548 0.0
C841 C 0.02023 0.53633 0.28545 0.0
C842 C 0.01818 0.53449 0.30413 0.0
C843 C 0.92375 0.42036 0.27417 0.0
C844 C 0.05526 0.57811 0.27639 0.0
H845 H 0.03786 0.47958 0.2199 0.0
H846 H 0.95367 0.53712 0.22085 0.0
H847 H 0.06678 0.49438 0.26451 0.0
H848 H 0.01977 0.43973 0.26364 0.0
H849 H 0.06028 0.45892 0.24586 0.0
H850 H 0.92141 0.54451 0.24721 0.0
H851 H 0.91437 0.50621 0.26485 0.0
H852 H 0.96015 0.56164 0.26543 0.0
H853 H 0.93327 0.42878 0.30989 0.0
H854 H 0.04079 0.56367 0.31164 0.0
H855 H 0.94076 0.40758 0.2655 0.0
H856 H 0.90437 0.42991 0.26533 0.0
H857 H 0.90035 0.39315 0.28312 0.0
H858 H 0.07518 0.57016 0.26708 0.0
H859 H 0.07807 0.60324 0.28609 0.0
H860 H 0.03926 0.59298 0.26837 0.0
loop_
_geom_bond_atom_site_label_1
_geom_bond_atom_site_label_2
_geom_bond_distance
_geom_bond_site_symmetry_2
_ccdc_geom_bond_type
O0 Zn1 1.953 . S
O0 C16 1.225 1_655 S
Zn1 O0 1.953 . S
Zn1 O2 1.949 1_655 S
Zn1 O8 1.919 . S
Zn1 O13 1.924 1_655 S
O2 Zn1 1.949 1_455 S
O2 Zn3 1.923 1_455 S
O2 Zn4 1.950 . S
O2 Zn5 1.945 . S
Zn3 O2 1.923 1_655 S
Zn3 O6 1.933 . S
Zn3 O9 1.941 . S
Zn3 O10 1.965 . S
Zn4 O2 1.950 . S
Zn4 O11 1.938 1_455 S
Zn4 O12 1.906 . S
Zn4 O22 1.953 . S
Zn5 O2 1.945 . S
Zn5 O7 1.932 . S
Zn5 O14 1.977 . S
Zn5 O15 1.910 . S
O6 Zn3 1.933 . S
O6 C17 1.226 1_655 S
O7 Zn5 1.932 . S
O7 C17 1.307 . S
O8 Zn1 1.919 . S
O8 C19 1.253 . S
O9 Zn3 1.941 . S
O9 C19 1.283 . S
O10 Zn3 1.965 . S
O10 C18 1.303 . S
O11 Zn4 1.938 1_655 S
O11 C18 1.247 . S
O12 Zn4 1.906 . S
O12 C20 1.304 . S
O13 Zn1 1.924 1_455 S
O13 C21 1.311 . S
O14 Zn5 1.977 . S
O14 C20 1.272 . S
O15 Zn5 1.910 . S
O15 C21 1.231 . S
C16 O0 1.225 1_455 S
C16 O22 1.298 . S
C17 O6 1.226 1_455 S
C17 O7 1.307 . S
C18 O10 1.303 . S
C18 O11 1.247 . S
C19 O8 1.253 . S
C19 O9 1.283 . S
C20 O12 1.304 . S
C20 O14 1.272 . S
C21 O13 1.311 . S
C21 O15 1.231 . S
O22 Zn4 1.953 . S
O22 C16 1.298 . S
O23 Zn24 1.953 . S
O23 C39 1.225 . S
Zn24 O23 1.953 . S
Zn24 O25 1.949 . S
Zn24 O31 1.919 . S
Zn24 O36 1.924 1_545 S
O25 Zn24 1.949 . S
O25 Zn26 1.923 . S
O25 Zn27 1.950 1_545 S
O25 Zn28 1.945 1_545 S
Zn26 O25 1.923 . S
Zn26 O29 1.933 . S
Zn26 O32 1.941 . S
Zn26 O33 1.965 . S
Zn27 O25 1.950 1_565 S
Zn27 O34 1.938 1_565 S
Zn27 O35 1.906 . S
Zn27 O45 1.953 . S
Zn28 O25 1.945 1_565 S
Zn28 O30 1.932 . S
Zn28 O37 1.977 . S
Zn28 O38 1.910 . S
O29 Zn26 1.933 . S
O29 C40 1.226 . S
O30 Zn28 1.932 . S
O30 C40 1.307 1_565 S
O31 Zn24 1.919 . S
O31 C42 1.253 . S
O32 Zn26 1.941 . S
O32 C42 1.283 . S
O33 Zn26 1.965 . S
O33 C41 1.303 . S
O34 Zn27 1.938 1_545 S
O34 C41 1.247 . S
O35 Zn27 1.906 . S
O35 C43 1.304 . S
O36 Zn24 1.924 1_565 S
O36 C44 1.311 . S
O37 Zn28 1.977 . S
O37 C43 1.272 . S
O38 Zn28 1.910 . S
O38 C44 1.231 . S
C39 O23 1.225 . S
C39 O45 1.298 1_545 S
C40 O29 1.226 . S
C40 O30 1.307 1_545 S
C41 O33 1.303 . S
C41 O34 1.247 . S
C42 O31 1.253 . S
C42 O32 1.283 . S
C43 O35 1.304 . S
C43 O37 1.272 . S
C44 O36 1.311 . S
C44 O38 1.231 . S
O45 Zn27 1.953 . S
O45 C39 1.298 1_565 S
O46 Zn47 1.953 . S
O46 C62 1.225 . S
Zn47 O46 1.953 . S
Zn47 O48 1.949 . S
Zn47 O54 1.919 . S
Zn47 O59 1.924 . S
O48 Zn47 1.949 . S
O48 Zn49 1.923 . S
O48 Zn50 1.950 . S
O48 Zn51 1.945 . S
Zn49 O48 1.923 . S
Zn49 O52 1.933 . S
Zn49 O55 1.941 . S
Zn49 O56 1.965 . S
Zn50 O48 1.950 . S
Zn50 O57 1.938 . S
Zn50 O58 1.906 . S
Zn50 O68 1.953 . S
Zn51 O48 1.945 . S
Zn51 O53 1.932 . S
Zn51 O60 1.977 . S
Zn51 O61 1.910 . S
O52 Zn49 1.933 . S
O52 C63 1.226 . S
O53 Zn51 1.932 . S
O53 C63 1.307 . S
O54 Zn47 1.919 . S
O54 C65 1.253 . S
O55 Zn49 1.941 . S
O55 C65 1.283 . S
O56 Zn49 1.965 . S
O56 C64 1.303 . S
O57 Zn50 1.938 . S
O57 C64 1.247 . S
O58 Zn50 1.906 . S
O58 C66 1.304 . S
O59 Zn47 1.924 . S
O59 C67 1.311 . S
O60 Zn51 1.977 . S
O60 C66 1.272 . S
O61 Zn51 1.910 . S
O61 C67 1.231 . S
C62 O46 1.225 . S
C62 O68 1.298 . S
C63 O52 1.226 . S
C63 O53 1.307 . S
C64 O56 1.303 . S
C64 O57 1.247 . S
C65 O54 1.253 . S
C65 O55 1.283 . S
C66 O58 1.304 . S
C66 O60 1.272 . S
C67 O59 1.311 . S
C67 O61 1.231 . S
O68 Zn50 1.953 . S
O68 C62 1.298 . S
C69 C70 1.384 . S
C69 H82 0.947 . S
C69 C104 1.382 . S
C70 C69 1.384 . S
C70 C71 1.378 . S
C71 C70 1.378 . S
C71 C72 1.378 . S
C71 H83 0.952 . S
C72 C71 1.378 . S
C72 H84 0.950 . S
C72 C103 1.383 . S
H73 C92 0.947 . S
H74 C93 0.946 . S
H75 C95 0.953 . S
H76 C96 0.945 . S
H77 C98 0.952 . S
H78 C99 0.949 . S
H79 C101 0.950 . S
H80 C102 0.948 . S
H81 C104 0.951 . S
H82 C69 0.947 . S
H83 C71 0.952 . S
H84 C72 0.950 . S
N85 C88 1.382 . S
N85 C90 1.363 1_545 S
N86 C88 1.371 . S
N86 C89 1.372 . S
N87 C89 1.361 1_565 S
N87 C90 1.377 . S
C88 N85 1.382 . S
C88 N86 1.371 . S
C88 C91 1.480 . S
C89 N86 1.372 . S
C89 N87 1.361 1_545 S
C89 C97 1.457 . S
C90 N85 1.363 1_565 S
C90 N87 1.377 . S
C90 C103 1.479 . S
C91 C88 1.480 . S
C91 C92 1.383 . S
C91 C96 1.385 . S
C92 H73 0.947 . S
C92 C91 1.383 . S
C92 C93 1.388 . S
C93 H74 0.946 . S
C93 C92 1.388 . S
C93 C94 1.384 . S
C94 C93 1.384 . S
C94 C95 1.377 . S
C95 H75 0.953 . S
C95 C94 1.377 . S
C95 C96 1.369 . S
C96 H76 0.945 . S
C96 C91 1.385 . S
C96 C95 1.369 . S
C97 C89 1.457 . S
C97 C98 1.372 . S
C97 C102 1.364 1_545 S
C98 H77 0.952 . S
C98 C97 1.372 . S
C98 C99 1.389 . S
C99 H78 0.949 . S
C99 C98 1.389 . S
C99 C100 1.387 . S
C100 C99 1.387 . S
C100 C101 1.372 1_545 S
C101 H79 0.950 . S
C101 C100 1.372 1_565 S
C101 C102 1.379 . S
C102 H80 0.948 . S
C102 C97 1.364 1_565 S
C102 C101 1.379 . S
C103 C72 1.383 . S
C103 C90 1.479 . S
C103 C104 1.398 . S
C104 C69 1.382 . S
C104 H81 0.951 . S
C104 C103 1.398 . S
C105 C106 1.384 . S
C105 H118 0.947 . S
C105 C140 1.382 . S
C106 C105 1.384 . S
C106 C107 1.378 . S
C107 C106 1.378 . S
C107 C108 1.378 . S
C107 H119 0.952 . S
C108 C107 1.378 . S
C108 H120 0.950 . S
C108 C139 1.383 . S
H109 C128 0.947 . S
H110 C129 0.946 . S
H111 C131 0.953 . S
H112 C132 0.945 . S
H113 C134 0.952 . S
H114 C135 0.949 . S
H115 C137 0.950 . S
H116 C138 0.948 . S
H117 C140 0.951 . S
H118 C105 0.947 . S
H119 C107 0.952 . S
H120 C108 0.950 . S
N121 C124 1.382 . S
N121 C126 1.363 . S
N122 C124 1.371 . S
N122 C125 1.372 . S
N123 C125 1.361 . S
N123 C126 1.377 . S
C124 N121 1.382 . S
C124 N122 1.371 . S
C124 C127 1.480 . S
C125 N122 1.372 . S
C125 N123 1.361 . S
C125 C133 1.457 . S
C126 N121 1.363 . S
C126 N123 1.377 . S
C126 C139 1.479 . S
C127 C124 1.480 . S
C127 C128 1.383 . S
C127 C132 1.385 . S
C128 H109 0.947 . S
C128 C127 1.383 . S
C128 C129 1.388 . S
C129 H110 0.946 . S
C129 C128 1.388 . S
C129 C130 1.384 . S
C130 C129 1.384 . S
C130 C131 1.377 . S
C131 H111 0.953 . S
C131 C130 1.377 . S
C131 C132 1.369 . S
C132 H112 0.945 . S
C132 C127 1.385 . S
C132 C131 1.369 . S
C133 C125 1.457 . S
C133 C134 1.372 . S
C133 C138 1.364 . S
C134 H113 0.952 . S
C134 C133 1.372 . S
C134 C135 1.389 . S
C135 H114 0.949 . S
C135 C134 1.389 . S
C135 C136 1.387 . S
C136 C135 1.387 . S
C136 C137 1.372 . S
C137 H115 0.950 . S
C137 C136 1.372 . S
C137 C138 1.379 . S
C138 H116 0.948 . S
C138 C133 1.364 . S
C138 C137 1.379 . S
C139 C108 1.383 . S
C139 C126 1.479 . S
C139 C140 1.398 . S
C140 C105 1.382 . S
C140 H117 0.951 . S
C140 C139 1.398 . S
C141 C142 1.384 . S
C141 H154 0.947 . S
C141 C176 1.382 . S
C142 C141 1.384 . S
C142 C143 1.378 . S
C143 C142 1.378 . S
C143 C144 1.378 . S
C143 H155 0.952 . S
C144 C143 1.378 . S
C144 H156 0.950 . S
C144 C175 1.383 . S
H145 C164 0.947 . S
H146 C165 0.946 . S
H147 C167 0.953 . S
H148 C168 0.945 . S
H149 C170 0.952 . S
H150 C171 0.949 . S
H151 C173 0.950 . S
H152 C174 0.948 . S
H153 C176 0.951 . S
H154 C141 0.947 . S
H155 C143 0.952 . S
H156 C144 0.950 . S
N157 C160 1.382 . S
N157 C162 1.363 1_455 S
N158 C160 1.371 . S
N158 C161 1.372 . S
N159 C161 1.361 1_655 S
N159 C162 1.377 . S
C160 N157 1.382 . S
C160 N158 1.371 . S
C160 C163 1.480 . S
C161 N158 1.372 . S
C161 N159 1.361 1_455 S
C161 C169 1.457 . S
C162 N157 1.363 1_655 S
C162 N159 1.377 . S
C162 C175 1.479 . S
C163 C160 1.480 . S
C163 C164 1.383 . S
C163 C168 1.385 . S
C164 H145 0.947 . S
C164 C163 1.383 . S
C164 C165 1.388 . S
C165 H146 0.946 . S
C165 C164 1.388 . S
C165 C166 1.384 . S
C166 C165 1.384 . S
C166 C167 1.377 . S
C167 H147 0.953 . S
C167 C166 1.377 . S
C167 C168 1.369 . S
C168 H148 0.945 . S
C168 C163 1.385 . S
C168 C167 1.369 . S
C169 C161 1.457 . S
C169 C170 1.372 . S
C169 C174 1.364 1_455 S
C170 H149 0.952 . S
C170 C169 1.372 . S
C170 C171 1.389 . S
C171 H150 0.949 . S
C171 C170 1.389 . S
C171 C172 1.387 . S
C172 C171 1.387 . S
C172 C173 1.372 1_455 S
C173 H151 0.950 . S
C173 C172 1.372 1_655 S
C173 C174 1.379 . S
C174 H152 0.948 . S
C174 C169 1.364 1_655 S
C174 C173 1.379 . S
C175 C144 1.383 . S
C175 C162 1.479 . S
C175 C176 1.398 . S
C176 C141 1.382 . S
C176 H153 0.951 . S
C176 C175 1.398 . S
C177 C178 1.384 . S
C177 H190 0.947 . S
C177 C212 1.382 . S
C178 C177 1.384 . S
C178 C179 1.378 . S
C179 C178 1.378 . S
C179 C180 1.378 . S
C179 H191 0.952 . S
C180 C179 1.378 . S
C180 H192 0.950 . S
C180 C211 1.383 . S
H181 C200 0.947 . S
H182 C201 0.946 . S
H183 C203 0.953 . S
H184 C204 0.945 . S
H185 C206 0.952 . S
H186 C207 0.949 . S
H187 C209 0.950 . S
H188 C210 0.948 . S
H189 C212 0.951 . S
H190 C177 0.947 . S
H191 C179 0.952 . S
H192 C180 0.950 . S
N193 C196 1.382 1_455 S
N193 C198 1.363 . S
N194 C196 1.371 . S
N194 C197 1.372 1_655 S
N195 C197 1.361 . S
N195 C198 1.377 . S
C196 N193 1.382 1_655 S
C196 N194 1.371 . S
C196 C199 1.480 . S
C197 N194 1.372 1_455 S
C197 N195 1.361 . S
C197 C205 1.457 . S
C198 N193 1.363 . S
C198 N195 1.377 . S
C198 C211 1.479 . S
C199 C196 1.480 . S
C199 C200 1.383 . S
C199 C204 1.385 . S
C200 H181 0.947 . S
C200 C199 1.383 . S
C200 C201 1.388 . S
C201 H182 0.946 . S
C201 C200 1.388 . S
C201 C202 1.384 . S
C202 C201 1.384 . S
C202 C203 1.377 . S
C203 H183 0.953 . S
C203 C202 1.377 . S
C203 C204 1.369 . S
C204 H184 0.945 . S
C204 C199 1.385 . S
C204 C203 1.369 . S
C205 C197 1.457 . S
C205 C206 1.372 1_455 S
C205 C210 1.364 . S
C206 H185 0.952 . S
C206 C205 1.372 1_655 S
C206 C207 1.389 . S
C207 H186 0.949 . S
C207 C206 1.389 . S
C207 C208 1.387 1_655 S
C208 C207 1.387 1_455 S
C208 C209 1.372 . S
C209 H187 0.950 . S
C209 C208 1.372 . S
C209 C210 1.379 . S
C210 H188 0.948 . S
C210 C205 1.364 . S
C210 C209 1.379 . S
C211 C180 1.383 . S
C211 C198 1.479 . S
C211 C212 1.398 . S
C212 C177 1.382 . S
C212 H189 0.951 . S
C212 C211 1.398 . S
C213 C214 1.384 . S
C213 H226 0.947 . S
C213 C248 1.382 . S
C214 C213 1.384 . S
C214 C215 1.378 . S
C215 C214 1.378 . S
C215 C216 1.378 . S
C215 H227 0.952 . S
C216 C215 1.378 . S
C216 H228 0.950 . S
C216 C247 1.383 . S
H217 C236 0.947 . S
H218 C237 0.946 . S
H219 C239 0.953 . S
H220 C240 0.945 . S
H221 C242 0.952 . S
H222 C243 0.949 . S
H223 C245 0.950 . S
H224 C246 0.948 . S
H225 C248 0.951 . S
H226 C213 0.947 . S
H227 C215 0.952 . S
H228 C216 0.950 . S
N229 C232 1.382 1_545 S
N229 C234 1.363 . S
N230 C232 1.371 . S
N230 C233 1.372 1_565 S
N231 C233 1.361 . S
N231 C234 1.377 . S
C232 N229 1.382 1_565 S
C232 N230 1.371 . S
C232 C235 1.480 . S
C233 N230 1.372 1_545 S
C233 N231 1.361 . S
C233 C241 1.457 . S
C234 N229 1.363 . S
C234 N231 1.377 . S
C234 C247 1.479 . S
C235 C232 1.480 . S
C235 C236 1.383 . S
C235 C240 1.385 . S
C236 H217 0.947 . S
C236 C235 1.383 . S
C236 C237 1.388 . S
C237 H218 0.946 . S
C237 C236 1.388 . S
C237 C238 1.384 . S
C238 C237 1.384 . S
C238 C239 1.377 . S
C239 H219 0.953 . S
C239 C238 1.377 . S
C239 C240 1.369 . S
C240 H220 0.945 . S
C240 C235 1.385 . S
C240 C239 1.369 . S
C241 C233 1.457 . S
C241 C242 1.372 1_545 S
C241 C246 1.364 . S
C242 H221 0.952 . S
C242 C241 1.372 1_565 S
C242 C243 1.389 . S
C243 H222 0.949 . S
C243 C242 1.389 . S
C243 C244 1.387 1_565 S
C244 C243 1.387 1_545 S
C244 C245 1.372 . S
C245 H223 0.950 . S
C245 C244 1.372 . S
C245 C246 1.379 . S
C246 H224 0.948 . S
C246 C241 1.364 . S
C246 C245 1.379 . S
C247 C216 1.383 . S
C247 C234 1.479 . S
C247 C248 1.398 . S
C248 C213 1.382 . S
C248 H225 0.951 . S
C248 C247 1.398 . S
C249 C250 1.384 . S
C249 H262 0.947 . S
C249 C284 1.382 . S
C250 C249 1.384 . S
C250 C251 1.378 . S
C251 C250 1.378 . S
C251 C252 1.378 . S
C251 H263 0.952 . S
C252 C251 1.378 . S
C252 H264 0.950 . S
C252 C283 1.383 . S
H253 C272 0.947 . S
H254 C273 0.946 . S
H255 C275 0.953 . S
H256 C276 0.945 . S
H257 C278 0.952 . S
H258 C279 0.949 . S
H259 C281 0.950 . S
H260 C282 0.948 . S
H261 C284 0.951 . S
H262 C249 0.947 . S
H263 C251 0.952 . S
H264 C252 0.950 . S
N265 C268 1.382 . S
N265 C270 1.363 . S
N266 C268 1.371 . S
N266 C269 1.372 . S
N267 C269 1.361 . S
N267 C270 1.377 . S
C268 N265 1.382 . S
C268 N266 1.371 . S
C268 C271 1.480 . S
C269 N266 1.372 . S
C269 N267 1.361 . S
C269 C277 1.457 . S
C270 N265 1.363 . S
C270 N267 1.377 . S
C270 C283 1.479 . S
C271 C268 1.480 . S
C271 C272 1.383 . S
C271 C276 1.385 . S
C272 H253 0.947 . S
C272 C271 1.383 . S
C272 C273 1.388 . S
C273 H254 0.946 . S
C273 C272 1.388 . S
C273 C274 1.384 . S
C274 C273 1.384 . S
C274 C275 1.377 . S
C275 H255 0.953 . S
C275 C274 1.377 . S
C275 C276 1.369 . S
C276 H256 0.945 . S
C276 C271 1.385 . S
C276 C275 1.369 . S
C277 C269 1.457 . S
C277 C278 1.372 . S
C277 C282 1.364 . S
C278 H257 0.952 . S
C278 C277 1.372 . S
C278 C279 1.389 . S
C279 H258 0.949 . S
C279 C278 1.389 . S
C279 C280 1.387 . S
C280 C279 1.387 . S
C280 C281 1.372 . S
C281 H259 0.950 . S
C281 C280 1.372 . S
C281 C282 1.379 . S
C282 H260 0.948 . S
C282 C277 1.364 . S
C282 C281 1.379 . S
C283 C252 1.383 . S
C283 C270 1.479 . S
C283 C284 1.398 . S
C284 C249 1.382 . S
C284 H261 0.951 . S
C284 C283 1.398 . S
C285 C286 1.391 . S
C285 C287 1.394 . S
C285 H301 0.931 . S
C286 C285 1.391 . S
C286 C290 1.376 . S
C287 C285 1.394 . S
C287 C288 1.369 . S
C287 C291 1.531 . S
C288 C287 1.369 . S
C288 C289 1.410 . S
C288 C296 1.503 . S
C289 C288 1.410 . S
C289 C290 1.392 . S
C289 C292 1.511 . S
C290 C286 1.376 . S
C290 C289 1.392 . S
C290 H302 0.929 . S
C291 C287 1.531 . S
C291 H303 0.960 . S
C291 H304 0.962 . S
C291 H305 0.960 . S
C292 C289 1.511 . S
C292 H306 0.961 . S
C292 H307 0.961 . S
C292 H308 0.961 . S
C293 C294 1.370 . S
C293 C295 1.363 . S
C293 H309 0.931 . S
C294 C293 1.370 . S
C294 C298 1.408 . S
C295 C293 1.363 . S
C295 C296 1.370 . S
C295 C299 1.524 . S
C296 C288 1.503 . S
C296 C295 1.370 . S
C296 C297 1.403 . S
C297 C296 1.403 . S
C297 C298 1.404 . S
C297 C300 1.539 . S
C298 C294 1.408 . S
C298 C297 1.404 . S
C298 H310 0.930 . S
C299 C295 1.524 . S
C299 H311 0.956 . S
C299 H312 0.961 . S
C299 H313 0.961 . S
C300 C297 1.539 . S
C300 H314 0.958 . S
C300 H315 0.961 . S
C300 H316 0.960 . S
H301 C285 0.931 . S
H302 C290 0.929 . S
H303 C291 0.960 . S
H304 C291 0.962 . S
H305 C291 0.960 . S
H306 C292 0.961 . S
H307 C292 0.961 . S
H308 C292 0.961 . S
H309 C293 0.931 . S
H310 C298 0.930 . S
H311 C299 0.956 . S
H312 C299 0.961 . S
H313 C299 0.961 . S
H314 C300 0.958 . S
H315 C300 0.961 . S
H316 C300 0.960 . S
C317 C318 1.391 . S
C317 C319 1.394 . S
C317 H333 0.931 . S
C318 C317 1.391 . S
C318 C322 1.376 . S
C319 C317 1.394 . S
C319 C320 1.369 . S
C319 C323 1.531 . S
C320 C319 1.369 . S
C320 C321 1.410 . S
C320 C328 1.503 . S
C321 C320 1.410 . S
C321 C322 1.392 . S
C321 C324 1.511 . S
C322 C318 1.376 . S
C322 C321 1.392 . S
C322 H334 0.929 . S
C323 C319 1.531 . S
C323 H335 0.960 . S
C323 H336 0.962 . S
C323 H337 0.960 . S
C324 C321 1.511 . S
C324 H338 0.961 . S
C324 H339 0.961 . S
C324 H340 0.961 . S
C325 C326 1.370 . S
C325 C327 1.363 . S
C325 H341 0.931 . S
C326 C325 1.370 . S
C326 C330 1.408 . S
C327 C325 1.363 . S
C327 C328 1.370 . S
C327 C331 1.524 . S
C328 C320 1.503 . S
C328 C327 1.370 . S
C328 C329 1.403 . S
C329 C328 1.403 . S
C329 C330 1.404 . S
C329 C332 1.539 . S
C330 C326 1.408 . S
C330 C329 1.404 . S
C330 H342 0.930 . S
C331 C327 1.524 . S
C331 H343 0.956 . S
C331 H344 0.961 . S
C331 H345 0.961 . S
C332 C329 1.539 . S
C332 H346 0.958 . S
C332 H347 0.961 . S
C332 H348 0.960 . S
H333 C317 0.931 . S
H334 C322 0.929 . S
H335 C323 0.960 . S
H336 C323 0.962 . S
H337 C323 0.960 . S
H338 C324 0.961 . S
H339 C324 0.961 . S
H340 C324 0.961 . S
H341 C325 0.931 . S
H342 C330 0.930 . S
H343 C331 0.956 . S
H344 C331 0.961 . S
H345 C331 0.961 . S
H346 C332 0.958 . S
H347 C332 0.961 . S
H348 C332 0.960 . S
C349 C350 1.391 . S
C349 C351 1.394 . S
C349 H365 0.931 . S
C350 C349 1.391 . S
C350 C354 1.376 . S
C351 C349 1.394 . S
C351 C352 1.369 . S
C351 C355 1.531 . S
C352 C351 1.369 . S
C352 C353 1.410 . S
C352 C360 1.503 . S
C353 C352 1.410 . S
C353 C354 1.392 . S
C353 C356 1.511 . S
C354 C350 1.376 . S
C354 C353 1.392 . S
C354 H366 0.929 . S
C355 C351 1.531 . S
C355 H367 0.960 . S
C355 H368 0.962 . S
C355 H369 0.960 . S
C356 C353 1.511 . S
C356 H370 0.961 . S
C356 H371 0.961 . S
C356 H372 0.961 . S
C357 C358 1.370 . S
C357 C359 1.363 . S
C357 H373 0.931 . S
C358 C357 1.370 . S
C358 C362 1.408 . S
C359 C357 1.363 . S
C359 C360 1.370 . S
C359 C363 1.524 . S
C360 C352 1.503 . S
C360 C359 1.370 . S
C360 C361 1.403 . S
C361 C360 1.403 . S
C361 C362 1.404 . S
C361 C364 1.539 . S
C362 C358 1.408 . S
C362 C361 1.404 . S
C362 H374 0.930 . S
C363 C359 1.524 . S
C363 H375 0.956 . S
C363 H376 0.961 . S
C363 H377 0.961 . S
C364 C361 1.539 . S
C364 H378 0.958 . S
C364 H379 0.961 . S
C364 H380 0.960 . S
H365 C349 0.931 . S
H366 C354 0.929 . S
H367 C355 0.960 . S
H368 C355 0.962 . S
H369 C355 0.960 . S
H370 C356 0.961 . S
H371 C356 0.961 . S
H372 C356 0.961 . S
H373 C357 0.931 . S
H374 C362 0.930 . S
H375 C363 0.956 . S
H376 C363 0.961 . S
H377 C363 0.961 . S
H378 C364 0.958 . S
H379 C364 0.961 . S
H380 C364 0.960 . S
C381 C382 1.391 . S
C381 C383 1.394 . S
C381 H397 0.931 . S
C382 C381 1.391 . S
C382 C386 1.376 . S
C383 C381 1.394 . S
C383 C384 1.369 . S
C383 C387 1.531 . S
C384 C383 1.369 . S
C384 C385 1.410 . S
C384 C392 1.503 . S
C385 C384 1.410 . S
C385 C386 1.392 . S
C385 C388 1.511 . S
C386 C382 1.376 . S
C386 C385 1.392 . S
C386 H398 0.929 . S
C387 C383 1.531 . S
C387 H399 0.960 . S
C387 H400 0.962 . S
C387 H401 0.960 . S
C388 C385 1.511 . S
C388 H402 0.961 . S
C388 H403 0.961 . S
C388 H404 0.961 . S
C389 C390 1.370 . S
C389 C391 1.363 . S
C389 H405 0.931 . S
C390 C389 1.370 . S
C390 C394 1.408 . S
C391 C389 1.363 . S
C391 C392 1.370 . S
C391 C395 1.524 . S
C392 C384 1.503 . S
C392 C391 1.370 . S
C392 C393 1.403 . S
C393 C392 1.403 . S
C393 C394 1.404 . S
C393 C396 1.539 . S
C394 C390 1.408 . S
C394 C393 1.404 . S
C394 H406 0.930 . S
C395 C391 1.524 . S
C395 H407 0.956 . S
C395 H408 0.961 . S
C395 H409 0.961 . S
C396 C393 1.539 . S
C396 H410 0.958 . S
C396 H411 0.961 . S
C396 H412 0.960 . S
H397 C381 0.931 . S
H398 C386 0.929 . S
H399 C387 0.960 . S
H400 C387 0.962 . S
H401 C387 0.960 . S
H402 C388 0.961 . S
H403 C388 0.961 . S
H404 C388 0.961 . S
H405 C389 0.931 . S
H406 C394 0.930 . S
H407 C395 0.956 . S
H408 C395 0.961 . S
H409 C395 0.961 . S
H410 C396 0.958 . S
H411 C396 0.961 . S
H412 C396 0.960 . S
C413 C414 1.391 . S
C413 C415 1.394 . S
C413 H429 0.931 . S
C414 C413 1.391 . S
C414 C418 1.376 . S
C415 C413 1.394 . S
C415 C416 1.369 . S
C415 C419 1.531 . S
C416 C415 1.369 . S
C416 C417 1.410 . S
C416 C424 1.503 . S
C417 C416 1.410 . S
C417 C418 1.392 . S
C417 C420 1.511 . S
C418 C414 1.376 . S
C418 C417 1.392 . S
C418 H430 0.929 . S
C419 C415 1.531 . S
C419 H431 0.960 . S
C419 H432 0.962 . S
C419 H433 0.960 . S
C420 C417 1.511 . S
C420 H434 0.961 . S
C420 H435 0.961 . S
C420 H436 0.961 . S
C421 C422 1.370 . S
C421 C423 1.363 . S
C421 H437 0.931 . S
C422 C421 1.370 . S
C422 C426 1.408 . S
C423 C421 1.363 . S
C423 C424 1.370 . S
C423 C427 1.524 . S
C424 C416 1.503 . S
C424 C423 1.370 . S
C424 C425 1.403 . S
C425 C424 1.403 . S
C425 C426 1.404 . S
C425 C428 1.539 . S
C426 C422 1.408 . S
C426 C425 1.404 . S
C426 H438 0.930 . S
C427 C423 1.524 . S
C427 H439 0.956 . S
C427 H440 0.961 . S
C427 H441 0.961 . S
C428 C425 1.539 . S
C428 H442 0.958 . S
C428 H443 0.961 . S
C428 H444 0.960 . S
H429 C413 0.931 . S
H430 C418 0.929 . S
H431 C419 0.960 . S
H432 C419 0.962 . S
H433 C419 0.960 . S
H434 C420 0.961 . S
H435 C420 0.961 . S
H436 C420 0.961 . S
H437 C421 0.931 . S
H438 C426 0.930 . S
H439 C427 0.956 . S
H440 C427 0.961 . S
H441 C427 0.961 . S
H442 C428 0.958 . S
H443 C428 0.961 . S
H444 C428 0.960 . S
C445 C446 1.391 . S
C445 C447 1.394 . S
C445 H461 0.931 . S
C446 C445 1.391 . S
C446 C450 1.376 . S
C447 C445 1.394 . S
C447 C448 1.369 . S
C447 C451 1.531 . S
C448 C447 1.369 . S
C448 C449 1.410 . S
C448 C456 1.503 . S
C449 C448 1.410 . S
C449 C450 1.392 . S
C449 C452 1.511 . S
C450 C446 1.376 . S
C450 C449 1.392 . S
C450 H462 0.929 . S
C451 C447 1.531 . S
C451 H463 0.960 . S
C451 H464 0.962 . S
C451 H465 0.960 . S
C452 C449 1.511 . S
C452 H466 0.961 . S
C452 H467 0.961 . S
C452 H468 0.961 . S
C453 C454 1.370 . S
C453 C455 1.363 . S
C453 H469 0.931 . S
C454 C453 1.370 . S
C454 C458 1.408 . S
C455 C453 1.363 . S
C455 C456 1.370 . S
C455 C459 1.524 . S
C456 C448 1.503 . S
C456 C455 1.370 . S
C456 C457 1.403 . S
C457 C456 1.403 . S
C457 C458 1.404 . S
C457 C460 1.539 . S
C458 C454 1.408 . S
C458 C457 1.404 . S
C458 H470 0.930 . S
C459 C455 1.524 . S
C459 H471 0.956 . S
C459 H472 0.961 . S
C459 H473 0.961 . S
C460 C457 1.539 . S
C460 H474 0.958 . S
C460 H475 0.961 . S
C460 H476 0.960 . S
H461 C445 0.931 . S
H462 C450 0.929 . S
H463 C451 0.960 . S
H464 C451 0.962 . S
H465 C451 0.960 . S
H466 C452 0.961 . S
H467 C452 0.961 . S
H468 C452 0.961 . S
H469 C453 0.931 . S
H470 C458 0.930 . S
H471 C459 0.956 . S
H472 C459 0.961 . S
H473 C459 0.961 . S
H474 C460 0.958 . S
H475 C460 0.961 . S
H476 C460 0.960 . S
C477 C478 1.391 . S
C477 C479 1.394 . S
C477 H493 0.931 . S
C478 C477 1.391 . S
C478 C482 1.376 . S
C479 C477 1.394 . S
C479 C480 1.369 . S
C479 C483 1.531 . S
C480 C479 1.369 . S
C480 C481 1.410 . S
C480 C488 1.503 . S
C481 C480 1.410 . S
C481 C482 1.392 . S
C481 C484 1.511 . S
C482 C478 1.376 . S
C482 C481 1.392 . S
C482 H494 0.929 . S
C483 C479 1.531 . S
C483 H495 0.960 . S
C483 H496 0.962 . S
C483 H497 0.960 . S
C484 C481 1.511 . S
C484 H498 0.961 . S
C484 H499 0.961 . S
C484 H500 0.961 . S
C485 C486 1.370 . S
C485 C487 1.363 . S
C485 H501 0.931 . S
C486 C485 1.370 . S
C486 C490 1.408 . S
C487 C485 1.363 . S
C487 C488 1.370 . S
C487 C491 1.524 . S
C488 C480 1.503 . S
C488 C487 1.370 . S
C488 C489 1.403 . S
C489 C488 1.403 . S
C489 C490 1.404 . S
C489 C492 1.539 . S
C490 C486 1.408 . S
C490 C489 1.404 . S
C490 H502 0.930 . S
C491 C487 1.524 . S
C491 H503 0.956 . S
C491 H504 0.961 . S
C491 H505 0.961 . S
C492 C489 1.539 . S
C492 H506 0.958 . S
C492 H507 0.961 . S
C492 H508 0.960 . S
H493 C477 0.931 . S
H494 C482 0.929 . S
H495 C483 0.960 . S
H496 C483 0.962 . S
H497 C483 0.960 . S
H498 C484 0.961 . S
H499 C484 0.961 . S
H500 C484 0.961 . S
H501 C485 0.931 . S
H502 C490 0.930 . S
H503 C491 0.956 . S
H504 C491 0.961 . S
H505 C491 0.961 . S
H506 C492 0.958 . S
H507 C492 0.961 . S
H508 C492 0.960 . S
C509 C510 1.391 . S
C509 C511 1.394 . S
C509 H525 0.931 . S
C510 C509 1.391 . S
C510 C514 1.376 . S
C511 C509 1.394 . S
C511 C512 1.369 . S
C511 C515 1.531 . S
C512 C511 1.369 . S
C512 C513 1.410 . S
C512 C520 1.503 . S
C513 C512 1.410 . S
C513 C514 1.392 . S
C513 C516 1.511 . S
C514 C510 1.376 . S
C514 C513 1.392 . S
C514 H526 0.929 . S
C515 C511 1.531 . S
C515 H527 0.960 . S
C515 H528 0.962 . S
C515 H529 0.960 . S
C516 C513 1.511 . S
C516 H530 0.961 . S
C516 H531 0.961 . S
C516 H532 0.961 . S
C517 C518 1.370 . S
C517 C519 1.363 . S
C517 H533 0.931 . S
C518 C517 1.370 . S
C518 C522 1.408 . S
C519 C517 1.363 . S
C519 C520 1.370 . S
C519 C523 1.524 . S
C520 C512 1.503 . S
C520 C519 1.370 . S
C520 C521 1.403 . S
C521 C520 1.403 . S
C521 C522 1.404 . S
C521 C524 1.539 . S
C522 C518 1.408 . S
C522 C521 1.404 . S
C522 H534 0.930 . S
C523 C519 1.524 . S
C523 H535 0.956 . S
C523 H536 0.961 . S
C523 H537 0.961 . S
C524 C521 1.539 . S
C524 H538 0.958 . S
C524 H539 0.961 . S
C524 H540 0.960 . S
H525 C509 0.931 . S
H526 C514 0.929 . S
H527 C515 0.960 . S
H528 C515 0.962 . S
H529 C515 0.960 . S
H530 C516 0.961 . S
H531 C516 0.961 . S
H532 C516 0.961 . S
H533 C517 0.931 . S
H534 C522 0.930 . S
H535 C523 0.956 . S
H536 C523 0.961 . S
H537 C523 0.961 . S
H538 C524 0.958 . S
H539 C524 0.961 . S
H540 C524 0.960 . S
C541 C542 1.391 . S
C541 C543 1.394 . S
C541 H557 0.931 . S
C542 C541 1.391 . S
C542 C546 1.376 . S
C543 C541 1.394 . S
C543 C544 1.369 . S
C543 C547 1.531 . S
C544 C543 1.369 . S
C544 C545 1.410 . S
C544 C552 1.503 . S
C545 C544 1.410 . S
C545 C546 1.392 . S
C545 C548 1.511 . S
C546 C542 1.376 . S
C546 C545 1.392 . S
C546 H558 0.929 . S
C547 C543 1.531 . S
C547 H559 0.960 . S
C547 H560 0.962 . S
C547 H561 0.960 . S
C548 C545 1.511 . S
C548 H562 0.961 . S
C548 H563 0.961 . S
C548 H564 0.961 . S
C549 C550 1.370 . S
C549 C551 1.363 . S
C549 H565 0.931 . S
C550 C549 1.370 . S
C550 C554 1.408 . S
C551 C549 1.363 . S
C551 C552 1.370 . S
C551 C555 1.524 . S
C552 C544 1.503 . S
C552 C551 1.370 . S
C552 C553 1.403 . S
C553 C552 1.403 . S
C553 C554 1.404 . S
C553 C556 1.539 . S
C554 C550 1.408 . S
C554 C553 1.404 . S
C554 H566 0.930 . S
C555 C551 1.524 . S
C555 H567 0.956 . S
C555 H568 0.961 . S
C555 H569 0.961 . S
C556 C553 1.539 . S
C556 H570 0.958 . S
C556 H571 0.961 . S
C556 H572 0.960 . S
H557 C541 0.931 . S
H558 C546 0.929 . S
H559 C547 0.960 . S
H560 C547 0.962 . S
H561 C547 0.960 . S
H562 C548 0.961 . S
H563 C548 0.961 . S
H564 C548 0.961 . S
H565 C549 0.931 . S
H566 C554 0.930 . S
H567 C555 0.956 . S
H568 C555 0.961 . S
H569 C555 0.961 . S
H570 C556 0.958 . S
H571 C556 0.961 . S
H572 C556 0.960 . S
C573 C574 1.391 . S
C573 C575 1.394 . S
C573 H589 0.931 . S
C574 C573 1.391 . S
C574 C578 1.376 . S
C575 C573 1.394 . S
C575 C576 1.369 . S
C575 C579 1.531 . S
C576 C575 1.369 . S
C576 C577 1.410 . S
C576 C584 1.503 . S
C577 C576 1.410 . S
C577 C578 1.392 . S
C577 C580 1.511 . S
C578 C574 1.376 . S
C578 C577 1.392 . S
C578 H590 0.929 . S
C579 C575 1.531 . S
C579 H591 0.960 . S
C579 H592 0.962 . S
C579 H593 0.960 . S
C580 C577 1.511 . S
C580 H594 0.961 . S
C580 H595 0.961 . S
C580 H596 0.961 . S
C581 C582 1.370 . S
C581 C583 1.363 . S
C581 H597 0.931 . S
C582 C581 1.370 . S
C582 C586 1.408 . S
C583 C581 1.363 . S
C583 C584 1.370 . S
C583 C587 1.524 . S
C584 C576 1.503 . S
C584 C583 1.370 . S
C584 C585 1.403 . S
C585 C584 1.403 . S
C585 C586 1.404 . S
C585 C588 1.539 . S
C586 C582 1.408 . S
C586 C585 1.404 . S
C586 H598 0.930 . S
C587 C583 1.524 . S
C587 H599 0.956 . S
C587 H600 0.961 . S
C587 H601 0.961 . S
C588 C585 1.539 . S
C588 H602 0.958 . S
C588 H603 0.961 . S
C588 H604 0.960 . S
H589 C573 0.931 . S
H590 C578 0.929 . S
H591 C579 0.960 . S
H592 C579 0.962 . S
H593 C579 0.960 . S
H594 C580 0.961 . S
H595 C580 0.961 . S
H596 C580 0.961 . S
H597 C581 0.931 . S
H598 C586 0.930 . S
H599 C587 0.956 . S
H600 C587 0.961 . S
H601 C587 0.961 . S
H602 C588 0.958 . S
H603 C588 0.961 . S
H604 C588 0.960 . S
C605 C606 1.391 . S
C605 C607 1.394 . S
C605 H621 0.931 . S
C606 C605 1.391 . S
C606 C610 1.376 . S
C607 C605 1.394 . S
C607 C608 1.369 . S
C607 C611 1.531 . S
C608 C607 1.369 . S
C608 C609 1.410 . S
C608 C616 1.503 . S
C609 C608 1.410 . S
C609 C610 1.392 . S
C609 C612 1.511 . S
C610 C606 1.376 . S
C610 C609 1.392 . S
C610 H622 0.929 . S
C611 C607 1.531 . S
C611 H623 0.960 . S
C611 H624 0.962 . S
C611 H625 0.960 . S
C612 C609 1.511 . S
C612 H626 0.961 . S
C612 H627 0.961 . S
C612 H628 0.961 . S
C613 C614 1.370 . S
C613 C615 1.363 . S
C613 H629 0.931 . S
C614 C613 1.370 . S
C614 C618 1.408 . S
C615 C613 1.363 . S
C615 C616 1.370 . S
C615 C619 1.524 . S
C616 C608 1.503 . S
C616 C615 1.370 . S
C616 C617 1.403 . S
C617 C616 1.403 . S
C617 C618 1.404 . S
C617 C620 1.539 . S
C618 C614 1.408 . S
C618 C617 1.404 . S
C618 H630 0.930 . S
C619 C615 1.524 . S
C619 H631 0.956 . S
C619 H632 0.961 . S
C619 H633 0.961 . S
C620 C617 1.539 . S
C620 H634 0.958 . S
C620 H635 0.961 . S
C620 H636 0.960 . S
H621 C605 0.931 . S
H622 C610 0.929 . S
H623 C611 0.960 . S
H624 C611 0.962 . S
H625 C611 0.960 . S
H626 C612 0.961 . S
H627 C612 0.961 . S
H628 C612 0.961 . S
H629 C613 0.931 . S
H630 C618 0.930 . S
H631 C619 0.956 . S
H632 C619 0.961 . S
H633 C619 0.961 . S
H634 C620 0.958 . S
H635 C620 0.961 . S
H636 C620 0.960 . S
C637 C638 1.391 . S
C637 C639 1.394 . S
C637 H653 0.931 . S
C638 C637 1.391 . S
C638 C642 1.376 . S
C639 C637 1.394 . S
C639 C640 1.369 . S
C639 C643 1.531 . S
C640 C639 1.369 . S
C640 C641 1.410 . S
C640 C648 1.503 . S
C641 C640 1.410 . S
C641 C642 1.392 . S
C641 C644 1.511 . S
C642 C638 1.376 . S
C642 C641 1.392 . S
C642 H654 0.929 . S
C643 C639 1.531 . S
C643 H655 0.960 . S
C643 H656 0.962 . S
C643 H657 0.960 . S
C644 C641 1.511 . S
C644 H658 0.961 . S
C644 H659 0.961 . S
C644 H660 0.961 . S
C645 C646 1.370 . S
C645 C647 1.363 . S
C645 H661 0.931 . S
C646 C645 1.370 . S
C646 C650 1.408 . S
C647 C645 1.363 . S
C647 C648 1.370 . S
C647 C651 1.524 . S
C648 C640 1.503 . S
C648 C647 1.370 . S
C648 C649 1.403 . S
C649 C648 1.403 . S
C649 C650 1.404 . S
C649 C652 1.539 . S
C650 C646 1.408 . S
C650 C649 1.404 . S
C650 H662 0.930 . S
C651 C647 1.524 . S
C651 H663 0.956 . S
C651 H664 0.961 . S
C651 H665 0.961 . S
C652 C649 1.539 . S
C652 H666 0.958 . S
C652 H667 0.961 . S
C652 H668 0.960 . S
H653 C637 0.931 . S
H654 C642 0.929 . S
H655 C643 0.960 . S
H656 C643 0.962 . S
H657 C643 0.960 . S
H658 C644 0.961 . S
H659 C644 0.961 . S
H660 C644 0.961 . S
H661 C645 0.931 . S
H662 C650 0.930 . S
H663 C651 0.956 . S
H664 C651 0.961 . S
H665 C651 0.961 . S
H666 C652 0.958 . S
H667 C652 0.961 . S
H668 C652 0.960 . S
C669 C670 1.391 1_655 S
C669 C671 1.394 . S
C669 H685 0.931 . S
C670 C669 1.391 1_455 S
C670 C674 1.376 . S
C671 C669 1.394 . S
C671 C672 1.369 1_655 S
C671 C675 1.531 . S
C672 C671 1.369 1_455 S
C672 C673 1.410 . S
C672 C680 1.503 . S
C673 C672 1.410 . S
C673 C674 1.392 . S
C673 C676 1.511 . S
C674 C670 1.376 . S
C674 C673 1.392 . S
C674 H686 0.929 . S
C675 C671 1.531 . S
C675 H687 0.960 . S
C675 H688 0.962 . S
C675 H689 0.960 . S
C676 C673 1.511 . S
C676 H690 0.961 . S
C676 H691 0.961 . S
C676 H692 0.961 . S
C677 C678 1.370 1_655 S
C677 C679 1.363 . S
C677 H693 0.931 . S
C678 C677 1.370 1_455 S
C678 C682 1.408 . S
C679 C677 1.363 . S
C679 C680 1.370 1_655 S
C679 C683 1.524 . S
C680 C672 1.503 . S
C680 C679 1.370 1_455 S
C680 C681 1.403 . S
C681 C680 1.403 . S
C681 C682 1.404 . S
C681 C684 1.539 . S
C682 C678 1.408 . S
C682 C681 1.404 . S
C682 H694 0.930 . S
C683 C679 1.524 . S
C683 H695 0.956 . S
C683 H696 0.961 . S
C683 H697 0.961 . S
C684 C681 1.539 . S
C684 H698 0.958 . S
C684 H699 0.961 . S
C684 H700 0.960 . S
H685 C669 0.931 . S
H686 C674 0.929 . S
H687 C675 0.960 . S
H688 C675 0.962 . S
H689 C675 0.960 . S
H690 C676 0.961 . S
H691 C676 0.961 . S
H692 C676 0.961 . S
H693 C677 0.931 . S
H694 C682 0.930 . S
H695 C683 0.956 . S
H696 C683 0.961 . S
H697 C683 0.961 . S
H698 C684 0.958 . S
H699 C684 0.961 . S
H700 C684 0.960 . S
C701 C702 1.391 . S
C701 C703 1.394 . S
C701 H717 0.931 . S
C702 C701 1.391 . S
C702 C706 1.376 1_545 S
C703 C701 1.394 . S
C703 C704 1.369 . S
C703 C707 1.531 . S
C704 C703 1.369 . S
C704 C705 1.410 1_545 S
C704 C712 1.503 . S
C705 C704 1.410 1_565 S
C705 C706 1.392 . S
C705 C708 1.511 . S
C706 C702 1.376 1_565 S
C706 C705 1.392 . S
C706 H718 0.929 . S
C707 C703 1.531 . S
C707 H719 0.960 . S
C707 H720 0.962 . S
C707 H721 0.960 . S
C708 C705 1.511 . S
C708 H722 0.961 . S
C708 H723 0.961 . S
C708 H724 0.961 . S
C709 C710 1.370 1_565 S
C709 C711 1.363 . S
C709 H725 0.931 . S
C710 C709 1.370 1_545 S
C710 C714 1.408 . S
C711 C709 1.363 . S
C711 C712 1.370 1_565 S
C711 C715 1.524 . S
C712 C704 1.503 . S
C712 C711 1.370 1_545 S
C712 C713 1.403 . S
C713 C712 1.403 . S
C713 C714 1.404 . S
C713 C716 1.539 . S
C714 C710 1.408 . S
C714 C713 1.404 . S
C714 H726 0.930 . S
C715 C711 1.524 . S
C715 H727 0.956 . S
C715 H728 0.961 . S
C715 H729 0.961 . S
C716 C713 1.539 . S
C716 H730 0.958 . S
C716 H731 0.961 . S
C716 H732 0.960 . S
H717 C701 0.931 . S
H718 C706 0.929 . S
H719 C707 0.960 . S
H720 C707 0.962 . S
H721 C707 0.960 . S
H722 C708 0.961 . S
H723 C708 0.961 . S
H724 C708 0.961 . S
H725 C709 0.931 . S
H726 C714 0.930 . S
H727 C715 0.956 . S
H728 C715 0.961 . S
H729 C715 0.961 . S
H730 C716 0.958 . S
H731 C716 0.961 . S
H732 C716 0.960 . S
C733 C734 1.391 . S
C733 C735 1.394 . S
C733 H749 0.931 . S
C734 C733 1.391 . S
C734 C738 1.376 . S
C735 C733 1.394 . S
C735 C736 1.369 . S
C735 C739 1.531 . S
C736 C735 1.369 . S
C736 C737 1.410 . S
C736 C744 1.503 . S
C737 C736 1.410 . S
C737 C738 1.392 . S
C737 C740 1.511 . S
C738 C734 1.376 . S
C738 C737 1.392 . S
C738 H750 0.929 . S
C739 C735 1.531 . S
C739 H751 0.960 . S
C739 H752 0.962 . S
C739 H753 0.960 . S
C740 C737 1.511 . S
C740 H754 0.961 . S
C740 H755 0.961 . S
C740 H756 0.961 . S
C741 C742 1.370 . S
C741 C743 1.363 . S
C741 H757 0.931 . S
C742 C741 1.370 . S
C742 C746 1.408 . S
C743 C741 1.363 . S
C743 C744 1.370 . S
C743 C747 1.524 . S
C744 C736 1.503 . S
C744 C743 1.370 . S
C744 C745 1.403 . S
C745 C744 1.403 . S
C745 C746 1.404 . S
C745 C748 1.539 . S
C746 C742 1.408 . S
C746 C745 1.404 . S
C746 H758 0.930 . S
C747 C743 1.524 . S
C747 H759 0.956 . S
C747 H760 0.961 . S
C747 H761 0.961 . S
C748 C745 1.539 . S
C748 H762 0.958 . S
C748 H763 0.961 . S
C748 H764 0.960 . S
H749 C733 0.931 . S
H750 C738 0.929 . S
H751 C739 0.960 . S
H752 C739 0.962 . S
H753 C739 0.960 . S
H754 C740 0.961 . S
H755 C740 0.961 . S
H756 C740 0.961 . S
H757 C741 0.931 . S
H758 C746 0.930 . S
H759 C747 0.956 . S
H760 C747 0.961 . S
H761 C747 0.961 . S
H762 C748 0.958 . S
H763 C748 0.961 . S
H764 C748 0.960 . S
C765 C766 1.391 . S
C765 C767 1.394 . S
C765 H781 0.941 . S
C766 C765 1.391 . S
C766 C770 1.376 . S
C767 C765 1.394 . S
C767 C768 1.369 . S
C767 C771 1.531 . S
C768 C767 1.369 . S
C768 C769 1.410 . S
C768 C776 1.503 . S
C769 C768 1.410 . S
C769 C770 1.392 . S
C769 C772 1.511 . S
C770 C766 1.376 . S
C770 C769 1.392 . S
C770 H782 0.929 . S
C771 C767 1.531 . S
C771 H783 0.960 . S
C771 H784 0.962 1_545 S
C771 H785 0.960 . S
C772 C769 1.511 . S
C772 H786 0.961 . S
C772 H787 0.961 . S
C772 H788 0.961 . S
C773 C774 1.370 1_565 S
C773 C775 1.363 . S
C773 H789 0.931 . S
C774 C773 1.370 1_545 S
C774 C778 1.408 . S
C775 C773 1.363 . S
C775 C776 1.370 1_565 S
C775 C779 1.524 . S
C776 C768 1.503 . S
C776 C775 1.370 1_545 S
C776 C777 1.403 . S
C777 C776 1.403 . S
C777 C778 1.404 . S
C777 C780 1.539 . S
C778 C774 1.408 . S
C778 C777 1.404 . S
C778 H790 0.930 . S
C779 C775 1.524 . S
C779 H791 0.956 . S
C779 H792 0.961 . S
C779 H793 0.961 . S
C780 C777 1.539 . S
C780 H794 0.958 . S
C780 H795 0.961 . S
C780 H796 0.960 . S
H781 C765 0.941 . S
H782 C770 0.929 . S
H783 C771 0.960 . S
H784 C771 0.962 1_565 S
H785 C771 0.960 . S
H786 C772 0.961 . S
H787 C772 0.961 . S
H788 C772 0.961 . S
H789 C773 0.931 . S
H790 C778 0.930 . S
H791 C779 0.956 . S
H792 C779 0.961 . S
H793 C779 0.961 . S
H794 C780 0.958 . S
H795 C780 0.961 . S
H796 C780 0.960 . S
C797 C798 1.391 . S
C797 C799 1.394 . S
C797 H813 0.931 . S
C798 C797 1.391 . S
C798 C802 1.376 . S
C799 C797 1.394 . S
C799 C800 1.369 . S
C799 C803 1.531 . S
C800 C799 1.369 . S
C800 C801 1.410 . S
C800 C808 1.503 . S
C801 C800 1.410 . S
C801 C802 1.392 . S
C801 C804 1.511 . S
C802 C798 1.376 . S
C802 C801 1.392 . S
C802 H814 0.929 . S
C803 C799 1.531 . S
C803 H815 0.960 . S
C803 H816 0.962 . S
C803 H817 0.960 . S
C804 C801 1.511 . S
C804 H818 0.961 . S
C804 H819 0.961 . S
C804 H820 0.961 . S
C805 C806 1.370 . S
C805 C807 1.363 . S
C805 H821 0.931 . S
C806 C805 1.370 . S
C806 C810 1.408 . S
C807 C805 1.363 . S
C807 C808 1.370 . S
C807 C811 1.524 . S
C808 C800 1.503 . S
C808 C807 1.370 . S
C808 C809 1.403 . S
C809 C808 1.403 . S
C809 C810 1.404 . S
C809 C812 1.539 . S
C810 C806 1.408 . S
C810 C809 1.404 . S
C810 H822 0.930 . S
C811 C807 1.524 . S
C811 H823 0.956 . S
C811 H824 0.961 . S
C811 H825 0.961 . S
C812 C809 1.539 . S
C812 H826 0.958 . S
C812 H827 0.961 . S
C812 H828 0.960 . S
H813 C797 0.931 . S
H814 C802 0.929 . S
H815 C803 0.960 . S
H816 C803 0.962 . S
H817 C803 0.960 . S
H818 C804 0.961 . S
H819 C804 0.961 . S
H820 C804 0.961 . S
H821 C805 0.931 . S
H822 C810 0.930 . S
H823 C811 0.956 . S
H824 C811 0.961 . S
H825 C811 0.961 . S
H826 C812 0.958 . S
H827 C812 0.961 . S
H828 C812 0.960 . S
C829 C830 1.391 . S
C829 C831 1.394 . S
C829 H845 0.931 . S
C830 C829 1.391 . S
C830 C834 1.376 1_455 S
C831 C829 1.394 . S
C831 C832 1.369 . S
C831 C835 1.531 . S
C832 C831 1.369 . S
C832 C833 1.410 1_455 S
C832 C840 1.503 . S
C833 C832 1.410 1_655 S
C833 C834 1.392 . S
C833 C836 1.511 . S
C834 C830 1.376 1_655 S
C834 C833 1.392 . S
C834 H846 0.929 . S
C835 C831 1.531 . S
C835 H847 0.960 . S
C835 H848 0.962 . S
C835 H849 0.960 . S
C836 C833 1.511 . S
C836 H850 0.961 . S
C836 H851 0.961 . S
C836 H852 0.961 . S
C837 C838 1.370 1_655 S
C837 C839 1.363 . S
C837 H853 0.931 . S
C838 C837 1.370 1_455 S
C838 C842 1.408 . S
C839 C837 1.363 . S
C839 C840 1.370 1_655 S
C839 C843 1.524 . S
C840 C832 1.503 . S
C840 C839 1.370 1_455 S
C840 C841 1.403 . S
C841 C840 1.403 . S
C841 C842 1.404 . S
C841 C844 1.539 . S
C842 C838 1.408 . S
C842 C841 1.404 . S
C842 H854 0.930 . S
C843 C839 1.524 . S
C843 H855 0.956 . S
C843 H856 0.961 . S
C843 H857 0.961 . S
C844 C841 1.539 . S
C844 H858 0.958 . S
C844 H859 0.961 . S
C844 H860 0.960 . S
H845 C829 0.931 . S
H846 C834 0.929 . S
H847 C835 0.960 . S
H848 C835 0.962 . S
H849 C835 0.960 . S
H850 C836 0.961 . S
H851 C836 0.961 . S
H852 C836 0.961 . S
H853 C837 0.931 . S
H854 C842 0.930 . S
H855 C843 0.956 . S
H856 C843 0.961 . S
H857 C843 0.961 . S
H858 C844 0.958 . S
H859 C844 0.961 . S
H860 C844 0.960 . S
C286 C20 1.203 . S
C294 C274 1.172 . S
C318 C41 1.235 . S
C326 C202 1.210 . S
C350 C64 1.247 . S
C358 C238 1.245 . S
C382 C19 1.200 . S
C390 C250 1.268 . S
C422 C178 1.224 . S
C414 C44 1.230 . S
C454 C214 1.219 . S
C446 C67 1.217 . S
C478 C43 1.161 . S
C486 C130 1.176 . S
C510 C66 1.201 . S
C518 C142 1.196 . S
C542 C21 1.231 . S
C550 C70 1.229 . S
C582 C106 1.245 . S
C574 C42 1.197 . S
C614 C166 1.227 . S
C606 C65 1.253 . S
C638 C18 1.237 . S
C646 C94 1.213 . S
C678 C172 1.458 1_554 S
C670 C17 1.457 . S
C702 C39 1.453 . S
C710 C100 1.452 . S
C734 C62 1.472 . S
C742 C136 1.469 . S
C774 C244 1.434 . S
C766 C40 1.437 . S
C806 C280 1.458 1_556 S
C798 C63 1.456 . S
C830 C16 1.450 . S
C838 C208 1.454 . S
