# Generated by pormake.
# Topology sqc, (4,8)-cn, num edge types: 1
# Building blocks:
#     Node 0, Type 0, BuildingBlock: NAWXER_clean_linker_0, # of connection points: 4
#     Node 1, Type 0, BuildingBlock: NAWXER_clean_linker_0, # of connection points: 4
#     Node 2, Type 0, BuildingBlock: NAWXER_clean_linker_0, # of connection points: 4
#     Node 3, Type 0, BuildingBlock: NAWXER_clean_linker_0, # of connection points: 4
#     Node 4, Type 0, BuildingBlock: NAWXER_clean_linker_0, # of connection points: 4
#     Node 5, Type 0, BuildingBlock: NAWXER_clean_linker_0, # of connection points: 4
#     Node 6, Type 0, BuildingBlock: NAWXER_clean_linker_0, # of connection points: 4
#     Node 7, Type 0, BuildingBlock: NAWXER_clean_linker_0, # of connection points: 4
#     Node 8, Type 1, BuildingBlock: TAGTUT_clean_sbu_3, # of connection points: 8
#     Node 9, Type 1, BuildingBlock: TAGTUT_clean_sbu_3, # of connection points: 8
#     Node 10, Type 1, BuildingBlock: TAGTUT_clean_sbu_3, # of connection points: 8
#     Node 11, Type 1, BuildingBlock: TAGTUT_clean_sbu_3, # of connection points: 8
#     Edge 12, Type (0, 1), BuildingBlock: OJICUG_clean_linker_0, # of connection points: 2
#     Edge 13, Type (0, 1), BuildingBlock: OJICUG_clean_linker_0, # of connection points: 2
#     Edge 14, Type (0, 1), BuildingBlock: OJICUG_clean_linker_0, # of connection points: 2
#     Edge 15, Type (0, 1), BuildingBlock: OJICUG_clean_linker_0, # of connection points: 2
#     Edge 16, Type (0, 1), BuildingBlock: OJICUG_clean_linker_0, # of connection points: 2
#     Edge 17, Type (0, 1), BuildingBlock: OJICUG_clean_linker_0, # of connection points: 2
#     Edge 18, Type (0, 1), BuildingBlock: OJICUG_clean_linker_0, # of connection points: 2
#     Edge 19, Type (0, 1), BuildingBlock: OJICUG_clean_linker_0, # of connection points: 2
#     Edge 20, Type (0, 1), BuildingBlock: OJICUG_clean_linker_0, # of connection points: 2
#     Edge 21, Type (0, 1), BuildingBlock: OJICUG_clean_linker_0, # of connection points: 2
#     Edge 22, Type (0, 1), BuildingBlock: OJICUG_clean_linker_0, # of connection points: 2
#     Edge 23, Type (0, 1), BuildingBlock: OJICUG_clean_linker_0, # of connection points: 2
#     Edge 24, Type (0, 1), BuildingBlock: OJICUG_clean_linker_0, # of connection points: 2
#     Edge 25, Type (0, 1), BuildingBlock: OJICUG_clean_linker_0, # of connection points: 2
#     Edge 26, Type (0, 1), BuildingBlock: OJICUG_clean_linker_0, # of connection points: 2
#     Edge 27, Type (0, 1), BuildingBlock: OJICUG_clean_linker_0, # of connection points: 2
#     Edge 28, Type (0, 1), BuildingBlock: OJICUG_clean_linker_0, # of connection points: 2
#     Edge 29, Type (0, 1), BuildingBlock: OJICUG_clean_linker_0, # of connection points: 2
#     Edge 30, Type (0, 1), BuildingBlock: OJICUG_clean_linker_0, # of connection points: 2
#     Edge 31, Type (0, 1), BuildingBlock: OJICUG_clean_linker_0, # of connection points: 2
#     Edge 32, Type (0, 1), BuildingBlock: OJICUG_clean_linker_0, # of connection points: 2
#     Edge 33, Type (0, 1), BuildingBlock: OJICUG_clean_linker_0, # of connection points: 2
#     Edge 34, Type (0, 1), BuildingBlock: OJICUG_clean_linker_0, # of connection points: 2
#     Edge 35, Type (0, 1), BuildingBlock: OJICUG_clean_linker_0, # of connection points: 2
#     Edge 36, Type (0, 1), BuildingBlock: OJICUG_clean_linker_0, # of connection points: 2
#     Edge 37, Type (0, 1), BuildingBlock: OJICUG_clean_linker_0, # of connection points: 2
#     Edge 38, Type (0, 1), BuildingBlock: OJICUG_clean_linker_0, # of connection points: 2
#     Edge 39, Type (0, 1), BuildingBlock: OJICUG_clean_linker_0, # of connection points: 2
#     Edge 40, Type (0, 1), BuildingBlock: OJICUG_clean_linker_0, # of connection points: 2
#     Edge 41, Type (0, 1), BuildingBlock: OJICUG_clean_linker_0, # of connection points: 2
#     Edge 42, Type (0, 1), BuildingBlock: OJICUG_clean_linker_0, # of connection points: 2
#     Edge 43, Type (0, 1), BuildingBlock: OJICUG_clean_linker_0, # of connection points: 2
# Relax obj value: 0.133
# Max RMSD: 0.254
# Mean RMSD: 0.158
data_MOF--net-sqc--node1-TAGTUT_clean_sbu_3--node2-NAWXER_clean_linker_0--edge1-OJICUG_clean_linker_0
_symmetry_space_group_name_H-M    P1
_symmetry_Int_Tables_number       1
_symmetry_cell_setting            triclinic
loop_
_symmetry_equiv_pos_as_xyz
'x, y, z'
_cell_length_a     22.188503
_cell_length_b     22.155852
_cell_length_c     68.53994
_cell_angle_alpha  91.07957
_cell_angle_beta   90.01565
_cell_angle_gamma 89.913151
loop_
_atom_site_label
_atom_site_type_symbol
_atom_site_fract_x
_atom_site_fract_y
_atom_site_fract_z
_atom_type_partial_charge
C0 C 0.26293 0.99419 0.46036 0.0
C1 C 0.26741 0.93537 0.45224 0.0
C2 C 0.2084 0.01534 0.46819 0.0
C3 C 0.15799 0.97717 0.46898 0.0
C4 C 0.21522 0.89915 0.45184 0.0
C5 C 0.16152 0.91961 0.46024 0.0
C6 C 0.10183 0.99494 0.47934 0.0
C7 C 0.25756 0.01294 0.52082 0.0
C8 C 0.26119 0.07028 0.53005 0.0
C9 C 0.20453 0.9941 0.51155 0.0
C10 C 0.15518 0.03351 0.51018 0.0
C11 C 0.20973 0.10767 0.5298 0.0
C12 C 0.15779 0.08977 0.51982 0.0
C13 C 0.10053 0.01764 0.49879 0.0
C14 C 0.88145 0.02174 0.53974 0.0
C15 C 0.83343 0.05533 0.53203 0.0
C16 C 0.93218 0.00827 0.52845 0.0
C17 C 0.93636 0.02807 0.50918 0.0
C18 C 0.83699 0.07368 0.5125 0.0
C19 C 0.88826 0.06098 0.5013 0.0
C20 C 0.99283 0.01707 0.49812 0.0
C21 C 0.8796 0.00048 0.43819 0.0
C22 C 0.84064 0.95299 0.44306 0.0
C23 C 0.92899 0.01476 0.44998 0.0
C24 C 0.93942 0.98314 0.46715 0.0
C25 C 0.85001 0.92297 0.46074 0.0
C26 C 0.89896 0.93807 0.47272 0.0
C27 C 0.99422 -0.00417 0.47862 0.0
H28 H 0.30158 0.02384 0.46102 0.0
H29 H 0.20629 0.0608 0.47425 0.0
H30 H 0.21532 0.85479 0.44498 0.0
H31 H 0.1229 0.88972 0.46025 0.0
H32 H 0.29565 0.98245 0.52047 0.0
H33 H 0.20283 0.94932 0.50496 0.0
H34 H 0.20885 0.15087 0.53741 0.0
H35 H 0.11973 0.12044 0.51943 0.0
H36 H 0.88131 0.00803 0.55482 0.0
H37 H 0.96886 0.98327 0.53493 0.0
H38 H 0.80088 0.09936 0.506 0.0
H39 H 0.89087 0.07866 0.48672 0.0
H40 H 0.87315 0.0253 0.42489 0.0
H41 H 0.95954 0.05011 0.44558 0.0
H42 H 0.82159 0.8856 0.46483 0.0
H43 H 0.90657 0.91304 0.48592 0.0
N44 N 0.04849 0.98513 0.47004 0.0
N45 N 0.04608 0.02761 0.50737 0.0
C46 C 0.44134 0.49415 0.72205 0.0
C47 C 0.42693 0.49225 0.70206 0.0
C48 C 0.42231 0.54288 0.73385 0.0
C49 C 0.38889 0.59002 0.7257 0.0
C50 C 0.39416 0.53996 0.69404 0.0
C51 C 0.37544 0.58822 0.70572 0.0
C52 C 0.36984 0.64368 0.73711 0.0
C53 C 0.26487 0.48856 0.76211 0.0
C54 C 0.2755 0.48082 0.78213 0.0
C55 C 0.28542 0.5402 0.75283 0.0
C56 C 0.31728 0.58473 0.76339 0.0
C57 C 0.30901 0.5247 0.79249 0.0
C58 C 0.32933 0.57639 0.78322 0.0
C59 C 0.33469 0.64176 0.75421 0.0
C60 C 0.20808 0.8614 0.77199 0.0
C61 C 0.24423 0.91036 0.77821 0.0
C62 C 0.23429 0.80862 0.76437 0.0
C63 C 0.29697 0.8042 0.76235 0.0
C64 C 0.30722 0.90555 0.77603 0.0
C65 C 0.33323 0.85318 0.76807 0.0
C66 C 0.32416 0.74899 0.75376 0.0
C67 C 0.43906 0.86083 0.70535 0.0
C68 C 0.39027 0.88847 0.69596 0.0
C69 C 0.42897 0.81894 0.71986 0.0
C70 C 0.37007 0.80477 0.72544 0.0
C71 C 0.33129 0.87648 0.70227 0.0
C72 C 0.32125 0.83472 0.71691 0.0
C73 C 0.35998 0.75046 0.73687 0.0
H74 H 0.46664 0.45782 0.72854 0.0
H75 H 0.43415 0.54408 0.74919 0.0
H76 H 0.38341 0.54029 0.67862 0.0
H77 H 0.35015 0.62438 0.69909 0.0
H78 H 0.23899 0.4556 0.75379 0.0
H79 H 0.27468 0.54626 0.73757 0.0
H80 H 0.31685 0.52068 0.80801 0.0
H81 H 0.35347 0.61049 0.79162 0.0
H82 H 0.15946 0.8636 0.77308 0.0
H83 H 0.20553 0.7715 0.75978 0.0
H84 H 0.33682 0.94142 0.78103 0.0
H85 H 0.38181 0.85049 0.76669 0.0
H86 H 0.48506 0.87034 0.70112 0.0
H87 H 0.46709 0.79568 0.72616 0.0
H88 H 0.29284 0.89693 0.69523 0.0
H89 H 0.27535 0.82305 0.72066 0.0
N90 N 0.3812 0.69797 0.72921 0.0
N91 N 0.313 0.69462 0.76197 0.0
C92 C 0.4584 0.02278 0.94953 0.0
C93 C 0.46384 0.07679 0.93913 0.0
C94 C 0.49947 0.00866 0.96421 0.0
C95 C 0.54539 0.04941 0.96946 0.0
C96 C 0.50976 0.11749 0.94452 0.0
C97 C 0.54935 0.1043 0.95962 0.0
C98 C 0.5954 0.03218 0.98257 0.0
C99 C 0.4387 -0.00117 0.02413 0.0
C100 C 0.43822 0.94156 0.03277 0.0
C101 C 0.48605 0.01546 0.01185 0.0
C102 C 0.53284 0.97452 0.00764 0.0
C103 C 0.48401 0.90016 0.02774 0.0
C104 C 0.53019 0.91624 0.01521 0.0
C105 C 0.58997 0.99403 -0.00124 0.0
C106 C 0.83793 0.98374 0.03315 0.0
C107 C 0.83733 0.92251 0.03828 0.0
C108 C 0.79324 0.00694 0.02108 0.0
C109 C 0.74799 0.96897 0.01359 0.0
C110 C 0.79226 0.88457 0.03059 0.0
C111 C 0.74802 0.90765 0.01839 0.0
C112 C 0.69703 0.99297 0.00233 0.0
C113 C 0.85754 0.03195 0.96401 0.0
C114 C 0.86114 0.09133 0.95716 0.0
C115 C 0.80712 0.01308 0.97437 0.0
C116 C 0.7603 0.05382 0.97867 0.0
C117 C 0.81524 0.13257 0.96214 0.0
C118 C 0.76538 0.11395 0.9728 0.0
C119 C 0.70249 0.033 0.98673 0.0
H120 H 0.42302 0.99066 0.9462 0.0
H121 H 0.49642 0.96479 0.97079 0.0
H122 H 0.51673 0.15891 0.93673 0.0
H123 H 0.58482 0.13633 0.96309 0.0
H124 H 0.40363 0.03156 0.02732 0.0
H125 H 0.48761 0.06114 0.00653 0.0
H126 H 0.48647 0.85613 0.03427 0.0
H127 H 0.56598 0.88395 0.01231 0.0
H128 H 0.87255 0.01399 0.03864 0.0
H129 H 0.79329 0.05471 0.01801 0.0
H130 H 0.79 0.83747 0.03447 0.0
H131 H 0.71305 0.87768 0.01293 0.0
H132 H 0.89259 -0.00073 0.9607 0.0
H133 H 0.80368 0.96601 0.97817 0.0
H134 H 0.81603 0.17838 0.95691 0.0
H135 H 0.72947 0.14602 0.97579 0.0
N136 N 0.65154 0.05046 0.97746 0.0
N137 N 0.6411 0.97578 0.00776 0.0
C138 C 0.31878 0.07426 0.21439 0.0
C139 C 0.26213 0.06991 0.2052 0.0
C140 C 0.33771 0.12851 0.22311 0.0
C141 C 0.29941 0.17912 0.22375 0.0
C142 C 0.22457 0.12132 0.20543 0.0
C143 C 0.24286 0.17499 0.21468 0.0
C144 C 0.31882 0.23729 0.23287 0.0
C145 C 0.33726 0.10334 0.28197 0.0
C146 C 0.394 0.10302 0.29119 0.0
C147 C 0.32322 0.14749 0.26838 0.0
C148 C 0.36651 0.19058 0.26325 0.0
C149 C 0.4364 0.14729 0.28627 0.0
C150 C 0.4231 0.18985 0.27232 0.0
C151 C 0.35225 0.24143 0.25045 0.0
C152 C 0.35672 0.49518 0.27512 0.0
C153 C 0.41681 0.49901 0.28161 0.0
C154 C 0.33876 0.44828 0.26254 0.0
C155 C 0.38059 0.40455 0.2563 0.0
C156 C 0.45919 0.45703 0.27436 0.0
C157 C 0.44106 0.40988 0.26197 0.0
C158 C 0.35997 0.34781 0.24708 0.0
C159 C 0.34397 0.48407 0.19977 0.0
C160 C 0.2837 0.50067 0.19673 0.0
C161 C 0.35767 0.43359 0.21086 0.0
C162 C 0.31121 0.39848 0.21867 0.0
C163 C 0.23739 0.46615 0.20492 0.0
C164 C 0.25107 0.41499 0.21564 0.0
C165 C 0.3253 0.3445 0.22998 0.0
H166 H 0.34907 0.03599 0.21477 0.0
H167 H 0.38269 0.13076 0.22919 0.0
H168 H 0.18149 0.12101 0.19803 0.0
H169 H 0.2128 0.21357 0.21459 0.0
H170 H 0.30356 0.06978 0.28527 0.0
H171 H 0.27837 0.14845 0.26217 0.0
H172 H 0.47978 0.15017 0.29345 0.0
H173 H 0.45691 0.22334 0.26894 0.0
H174 H 0.32283 0.52639 0.28058 0.0
H175 H 0.29155 0.44403 0.25873 0.0
H176 H 0.50606 0.45951 0.27872 0.0
H177 H 0.47385 0.37619 0.25739 0.0
H178 H 0.38024 0.50971 0.19337 0.0
H179 H 0.40441 0.42118 0.21302 0.0
H180 H 0.19054 0.4775 0.20242 0.0
H181 H 0.21476 0.38837 0.22159 0.0
N182 N 0.30596 0.28943 0.22342 0.0
N183 N 0.37172 0.29642 0.25663 0.0
C184 C 0.91712 -0.00057 0.21556 0.0
C185 C 0.90778 0.9911 0.19547 0.0
C186 C 0.88573 0.04464 0.22577 0.0
C187 C 0.84307 0.08034 0.21608 0.0
C188 C 0.86577 0.02692 0.18576 0.0
C189 C 0.83348 0.07101 0.196 0.0
C190 C 0.81427 0.13276 0.22582 0.0
C191 C 0.75324 0.97331 0.25994 0.0
C192 C 0.76545 0.97569 0.28009 0.0
C193 C 0.76179 0.02414 0.24849 0.0
C194 C 0.7845 0.07801 0.25679 0.0
C195 C 0.78814 0.02979 0.28832 0.0
C196 C 0.79763 0.08018 0.2768 0.0
C197 C 0.79157 0.13324 0.24511 0.0
C198 C 0.69378 0.38422 0.25623 0.0
C199 C 0.72836 0.40582 0.27202 0.0
C200 C 0.70952 0.33011 0.24671 0.0
C201 C 0.75897 0.29642 0.25323 0.0
C202 C 0.77833 0.3724 0.27829 0.0
C203 C 0.79309 0.31769 0.2691 0.0
C204 C 0.77626 0.23965 0.24329 0.0
C205 C 0.87178 0.37769 0.20582 0.0
C206 C 0.84723 0.38133 0.18701 0.0
C207 C 0.85157 0.33377 0.21855 0.0
C208 C 0.80698 0.2927 0.21253 0.0
C209 C 0.80035 0.34232 0.18138 0.0
C210 C 0.78088 0.29768 0.194 0.0
C211 C 0.79637 0.23828 0.22389 0.0
H212 H 0.94952 0.97189 0.2232 0.0
H213 H 0.89592 0.05256 0.24104 0.0
H214 H 0.85764 0.02041 0.17027 0.0
H215 H 0.80151 0.09853 0.18816 0.0
H216 H 0.73592 0.93255 0.25304 0.0
H217 H 0.74941 0.02153 0.23322 0.0
H218 H 0.79651 0.03428 0.30383 0.0
H219 H 0.81452 0.12128 0.28364 0.0
H220 H 0.65471 0.40912 0.25134 0.0
H221 H 0.68277 0.31412 0.23444 0.0
H222 H 0.80495 0.38786 0.29066 0.0
H223 H 0.83153 0.29225 0.27423 0.0
H224 H 0.90781 0.40768 0.21044 0.0
H225 H 0.87327 0.32959 0.23262 0.0
H226 H 0.78104 0.34438 0.16688 0.0
H227 H 0.74718 0.26554 0.18904 0.0
N228 N 0.81491 0.18516 0.21596 0.0
N229 N 0.77416 0.18714 0.25323 0.0
C230 C 0.76343 0.99211 0.71637 0.0
C231 C 0.79671 -0.00381 0.69896 0.0
C232 C 0.77188 0.94354 0.7288 0.0
C233 C 0.81342 0.89776 0.72404 0.0
C234 C 0.84093 0.9519 0.6949 0.0
C235 C 0.84848 0.90271 0.70717 0.0
C236 C 0.81709 0.84304 0.73599 0.0
C237 C 0.91188 0.98399 0.77385 0.0
C238 C 0.88639 0.99295 0.79248 0.0
C239 C 0.89044 0.93815 0.76141 0.0
C240 C 0.84283 0.90111 0.76736 0.0
C241 C 0.83792 0.95653 0.79814 0.0
C242 C 0.81636 0.91125 0.7857 0.0
C243 C 0.82651 0.8459 0.75631 0.0
C244 C 0.85056 0.58932 0.77975 0.0
C245 C 0.82739 0.59669 0.79868 0.0
C246 C 0.84324 0.63479 0.76616 0.0
C247 C 0.81091 0.68743 0.77114 0.0
C248 C 0.79407 0.64849 0.80359 0.0
C249 C 0.78553 0.69335 0.78987 0.0
C250 C 0.81049 0.74004 0.75821 0.0
C251 C 0.71978 0.59151 0.7252 0.0
C252 C 0.75573 0.56782 0.71002 0.0
C253 C 0.73406 0.64692 0.73404 0.0
C254 C 0.7844 0.6797 0.72781 0.0
C255 C 0.80606 0.60079 0.70378 0.0
C256 C 0.81995 0.65661 0.7125 0.0
C257 C 0.80135 0.73666 0.73786 0.0
H258 H 0.72823 0.02438 0.7199 0.0
H259 H 0.74383 0.94025 0.74168 0.0
H260 H 0.86836 0.95402 0.68188 0.0
H261 H 0.88109 0.86803 0.70333 0.0
H262 H 0.94891 0.01176 0.76902 0.0
H263 H 0.91279 0.93006 0.74756 0.0
H264 H 0.81786 0.9615 0.81248 0.0
H265 H 0.78014 0.88265 0.79071 0.0
H266 H 0.87751 0.55008 0.77586 0.0
H267 H 0.86568 0.63 0.7522 0.0
H268 H 0.77627 0.65499 0.8182 0.0
H269 H 0.76099 0.73382 0.79413 0.0
H270 H 0.68051 0.56721 0.73018 0.0
H271 H 0.70582 0.66423 0.74577 0.0
H272 H 0.83375 0.58411 0.69183 0.0
H273 H 0.85898 0.68128 0.70752 0.0
N274 N 0.8051 0.7883 0.72742 0.0
N275 N 0.82271 0.79443 0.76654 0.0
C276 C 0.75565 0.50204 0.96289 0.0
C277 C 0.76284 0.44366 0.95469 0.0
C278 C 0.69959 0.52108 0.97011 0.0
C279 C 0.65027 0.48136 0.96991 0.0
C280 C 0.71194 0.40587 0.95334 0.0
C281 C 0.65653 0.42441 0.96094 0.0
C282 C 0.59304 0.49611 0.98001 0.0
C283 C 0.74699 0.50654 0.02206 0.0
C284 C 0.75024 0.5632 0.03173 0.0
C285 C 0.69386 0.48786 0.01279 0.0
C286 C 0.64387 0.52669 0.01206 0.0
C287 C 0.69811 0.59965 0.03223 0.0
C288 C 0.64588 0.58183 0.02238 0.0
C289 C 0.59003 0.51222 8e-05 0.0
C290 C 0.35925 0.48323 0.03499 0.0
C291 C 0.32133 0.53326 0.03205 0.0
C292 C 0.41118 0.47502 0.02377 0.0
C293 C 0.42521 0.51554 0.00902 0.0
C294 C 0.33416 0.57203 0.01652 0.0
C295 C 0.38557 0.56304 0.00505 0.0
C296 C 0.48276 0.5095 -0.00151 0.0
C297 C 0.37293 0.51416 0.93772 0.0
C298 C 0.33201 0.46717 0.94134 0.0
C299 C 0.42241 0.52393 0.94997 0.0
C300 C 0.43123 0.48782 0.96629 0.0
C301 C 0.34005 0.43241 0.95813 0.0
C302 C 0.3892 0.44268 0.97049 0.0
C303 C 0.48568 0.49602 0.97839 0.0
H304 H 0.79346 0.53267 0.96414 0.0
H305 H 0.69539 0.56589 0.97657 0.0
H306 H 0.71459 0.36169 0.94638 0.0
H307 H 0.61885 0.39336 0.96031 0.0
H308 H 0.78565 0.47682 0.02122 0.0
H309 H 0.6927 0.444 0.00556 0.0
H310 H 0.69724 0.64224 0.04021 0.0
H311 H 0.60737 0.61198 0.02243 0.0
H312 H 0.35019 0.45178 0.04653 0.0
H313 H 0.44104 0.43761 0.02682 0.0
H314 H 0.3067 0.61153 0.01396 0.0
H315 H 0.39586 0.59473 -0.00632 0.0
H316 H 0.36773 0.54228 0.92507 0.0
H317 H 0.45423 0.55928 0.94659 0.0
H318 H 0.31029 0.39508 0.9612 0.0
H319 H 0.39564 0.41383 0.98291 0.0
N320 N 0.54065 0.48893 0.96991 0.0
N321 N 0.53487 0.51802 0.00856 0.0
C322 C 0.94808 0.4844 0.52777 0.0
C323 C 0.94968 0.42916 0.53763 0.0
C324 C 0.99388 0.49933 0.51469 0.0
C325 C 0.04107 0.45852 0.51086 0.0
C326 C -0.00396 0.38785 0.53313 0.0
C327 C 0.04062 0.40211 0.51978 0.0
C328 C 0.09659 0.47715 0.50081 0.0
C329 C 0.95726 0.49739 0.45316 0.0
C330 C 0.96022 0.55033 0.44212 0.0
C331 C 0.0009 0.48539 0.46731 0.0
C332 C 0.04701 0.52726 0.47132 0.0
C333 C 0.00669 0.59183 0.44619 0.0
C334 C 0.04872 0.58088 0.46075 0.0
C335 C 0.09906 0.51273 0.48395 0.0
C336 C 0.35824 0.51874 0.46207 0.0
C337 C 0.35905 0.57754 0.45465 0.0
C338 C 0.30997 0.49942 0.47336 0.0
C339 C 0.26251 0.53912 0.4779 0.0
C340 C 0.31268 0.61788 0.45989 0.0
C341 C 0.26489 0.59878 0.47141 0.0
C342 C 0.20643 0.51731 0.48684 0.0
C343 C 0.34775 0.47838 0.53269 0.0
C344 C 0.34933 0.41793 0.53865 0.0
C345 C 0.30157 0.49861 0.5206 0.0
C346 C 0.25691 0.45842 0.51401 0.0
C347 C 0.30498 0.37774 0.53176 0.0
C348 C 0.25925 0.39785 0.51958 0.0
C349 C 0.204 0.47941 0.50305 0.0
H350 H 0.9125 0.51692 0.53053 0.0
H351 H 0.99386 0.54378 0.50839 0.0
H352 H 3e-05 0.34543 0.54059 0.0
H353 H 0.07684 0.37004 0.51722 0.0
H354 H 0.92183 0.46459 0.45076 0.0
H355 H -0.0005 0.44239 0.47451 0.0
H356 H 0.0122 0.63227 0.43778 0.0
H357 H 0.08421 0.6137 0.46323 0.0
H358 H 0.39382 0.48686 0.45854 0.0
H359 H 0.30851 0.45269 0.47768 0.0
H360 H 0.3115 0.66322 0.45426 0.0
H361 H 0.22839 0.63 0.47459 0.0
H362 H 0.38169 0.5103 0.53759 0.0
H363 H 0.29986 0.5459 0.51692 0.0
H364 H 0.3043 0.33118 0.53631 0.0
H365 H 0.2248 0.36621 0.51482 0.0
N366 N 0.14924 0.46157 0.50943 0.0
N367 N 0.15399 0.5318 0.4779 0.0
C368 C 0.17129 0.64101 0.14021 0.0
C369 C 0.95093 0.55412 0.13547 0.0
C370 C 0.94601 0.6422 0.08081 0.0
Mg371 Mg 0.22698 0.76115 0.12181 0.0
Mg372 Mg 0.14318 0.87742 0.11031 0.0
O373 O 0.15587 0.79423 0.10746 0.0
Mg374 Mg 0.09339 0.73605 0.11574 0.0
O375 O 0.03582 0.67274 0.12409 0.0
Mg376 Mg 0.06703 0.60213 0.10838 0.0
Mg377 Mg 0.95329 0.6873 0.12237 0.0
C378 C 0.02038 0.83808 0.09057 0.0
O379 O 0.05081 0.7996 0.13881 0.0
O380 O 0.28208 0.82551 0.1025 0.0
O381 O 0.95337 0.76969 0.13955 0.0
O382 O 0.22329 0.83505 0.14664 0.0
O383 O 0.22241 0.90386 0.09458 0.0
O384 O 0.15122 0.90211 0.1403 0.0
O385 O 0.13031 0.66868 0.09274 0.0
O386 O 0.22797 0.68882 0.09797 0.0
C387 C 0.1863 0.65852 0.08938 0.0
C388 C 0.27235 0.87491 0.09346 0.0
O389 O 0.0285 0.78183 0.09418 0.0
O390 O 0.00155 0.54433 0.12681 0.0
O391 O 0.05571 0.88004 0.09677 0.0
O392 O 0.99145 0.609 0.08489 0.0
O393 O 0.92434 0.60542 0.13541 0.0
O394 O 0.92794 0.68412 0.09238 0.0
O395 O 0.16099 0.6972 0.13749 0.0
O396 O 0.14073 0.59931 0.13159 0.0
C397 C 0.19153 0.88124 0.15152 0.0
C398 C -0.00362 0.80476 0.14502 0.0
C399 C 0.69972 0.8159 0.38874 0.0
C400 C 0.7825 0.60108 0.38315 0.0
C401 C 0.67719 0.58846 0.32914 0.0
Mg402 Mg 0.57673 0.87488 0.3741 0.0
Mg403 Mg 0.45412 0.79678 0.36281 0.0
O404 O 0.53743 0.80487 0.36029 0.0
Mg405 Mg 0.5957 0.73991 0.3666 0.0
O406 O 0.65991 0.68052 0.37263 0.0
Mg407 Mg 0.72549 0.71109 0.35534 0.0
Mg408 Mg 0.64738 0.5972 0.3724 0.0
C409 C 0.48634 0.67486 0.34041 0.0
O410 O 0.53913 0.69745 0.39105 0.0
O411 O 0.51111 0.93395 0.35694 0.0
O412 O 0.56633 0.59895 0.38978 0.0
O413 O 0.50698 0.8731 0.3997 0.0
O414 O 0.42927 0.87905 0.34875 0.0
O415 O 0.43498 0.80506 0.39319 0.0
O416 O 0.65552 0.77536 0.34188 0.0
O417 O 0.64177 0.87391 0.34844 0.0
C418 C 0.66648 0.83101 0.33857 0.0
C419 C 0.46001 0.92784 0.34838 0.0
O420 O 0.54219 0.67749 0.34546 0.0
O421 O 0.78799 0.64809 0.37262 0.0
O422 O 0.44644 0.71291 0.34639 0.0
O423 O 0.70963 0.63579 0.33162 0.0
O424 O 0.73244 0.57321 0.38518 0.0
O425 O 0.6443 0.56811 0.34274 0.0
O426 O 0.64269 0.80669 0.38782 0.0
O427 O 0.73703 0.78467 0.37847 0.0
C428 C 0.45935 0.84422 0.40454 0.0
C429 C 0.53327 0.64235 0.39637 0.0
C430 C 0.67375 0.13575 0.64267 0.0
C431 C 0.4542 0.05546 0.63648 0.0
C432 C 0.4518 0.14602 0.58164 0.0
Mg433 Mg 0.73171 0.25851 0.62662 0.0
Mg434 Mg 0.65139 0.37692 0.61366 0.0
O435 O 0.66197 0.29353 0.61218 0.0
Mg436 Mg 0.59811 0.23566 0.61927 0.0
O437 O 0.53896 0.17262 0.62606 0.0
Mg438 Mg 0.57067 0.10381 0.60967 0.0
Mg439 Mg 0.45676 0.18864 0.62356 0.0
C440 C 0.52965 0.3402 0.59314 0.0
O441 O 0.5537 0.2966 0.64305 0.0
O442 O 0.78988 0.3231 0.60841 0.0
O443 O 0.45533 0.27162 0.64036 0.0
O444 O 0.72501 0.33176 0.65205 0.0
O445 O 0.7324 0.4009 0.5987 0.0
O446 O 0.65753 0.4014 0.64341 0.0
O447 O 0.63571 0.17184 0.59539 0.0
O448 O 0.73346 0.18974 0.60142 0.0
C449 C 0.69171 0.16197 0.59199 0.0
C450 C 0.78218 0.37169 0.59877 0.0
O451 O 0.53578 0.2843 0.59751 0.0
O452 O 0.50379 0.04561 0.62721 0.0
O453 O 0.56564 0.38178 0.59914 0.0
O454 O 0.49736 0.11313 0.58572 0.0
O455 O 0.42805 0.10706 0.63683 0.0
O456 O 0.43218 0.18632 0.59351 0.0
O457 O 0.66448 0.19272 0.64106 0.0
O458 O 0.64257 0.09676 0.63305 0.0
C459 C 0.6939 0.37957 0.65579 0.0
C460 C 0.49785 0.30422 0.6476 0.0
C461 C 0.18898 0.34162 0.88532 0.0
C462 C 0.28504 0.12984 0.88124 0.0
C463 C 0.1714 0.10187 0.83042 0.0
Mg464 Mg 0.05733 0.3887 0.87267 0.0
Mg465 Mg 0.94191 0.29757 0.86764 0.0
O466 O 0.02148 0.31342 0.86104 0.0
Mg467 Mg 0.08631 0.25458 0.86702 0.0
O468 O 0.15616 0.20141 0.87264 0.0
Mg469 Mg 0.21592 0.23271 0.85334 0.0
Mg470 Mg 0.14822 0.11787 0.87382 0.0
C471 C 0.9765 0.17508 0.84624 0.0
O472 O 0.03787 0.21278 0.89337 0.0
O473 O 0.9794 0.43943 0.85757 0.0
O474 O 0.07087 0.11612 0.89279 0.0
O475 O -0.00266 0.3868 0.90062 0.0
O476 O 0.90333 0.37335 0.85316 0.0
O477 O 0.9324 0.31021 0.89832 0.0
O478 O 0.13825 0.28964 0.84073 0.0
O479 O 0.11392 0.3874 0.8448 0.0
C480 C 0.14152 0.34481 0.83556 0.0
C481 C 0.92658 0.42575 0.85119 0.0
O482 O 0.03348 0.1845 0.84821 0.0
O483 O 0.28637 0.17627 0.87027 0.0
O484 O 0.93642 0.20968 0.85402 0.0
O485 O 0.20096 0.15158 0.83128 0.0
O486 O 0.23682 0.10013 0.88459 0.0
O487 O 0.14161 0.08316 0.84497 0.0
O488 O 0.13267 0.32839 0.88566 0.0
O489 O 0.22661 0.31104 0.87494 0.0
C490 C 0.95523 0.35456 0.90781 0.0
C491 C 0.03643 0.15823 0.89949 0.0
C492 C 0.3374 0.8499 0.4425 0.0
C493 C 0.32493 0.91235 0.44341 0.0
H494 H 0.3898 0.77903 0.42923 0.0
C495 C 0.36576 0.95186 0.43446 0.0
H496 H 0.30895 0.81783 0.44983 0.0
C497 C 0.41451 0.9293 0.42364 0.0
C498 C 0.42259 0.8668 0.42105 0.0
H499 H 0.35815 9e-05 0.4346 0.0
H500 H 0.44237 0.96079 0.41578 0.0
C501 C 0.3848 0.82738 0.43108 0.0
C502 C 0.36936 0.98237 0.6774 0.0
C503 C 0.40128 0.92809 0.67923 0.0
H504 H 0.36024 0.06488 0.66214 0.0
C505 C 0.4454 0.91259 0.66529 0.0
H506 H 0.33506 -0.00459 0.6879 0.0
C507 C 0.46017 0.95245 0.65056 0.0
C508 C 0.43089 0.00849 0.64944 0.0
H509 H 0.46952 0.87015 0.66602 0.0
H510 H 0.49613 0.94026 0.64055 0.0
C511 C 0.3839 0.02213 0.6626 0.0
C512 C 0.39651 0.04364 0.91126 0.0
C513 C 0.42229 0.09047 0.92268 0.0
H514 H 0.33227 0.01952 0.88906 0.0
C515 C 0.40704 0.15059 0.91846 0.0
H516 H 0.40834 -0.0031 0.91352 0.0
C517 C 0.366 0.16334 0.90369 0.0
C518 C 0.33784 0.11632 0.89325 0.0
H519 H 0.42462 0.18807 0.92704 0.0
H520 H 0.35322 0.2099 0.90137 0.0
C521 C 0.3538 0.05644 0.89695 0.0
C522 C 0.18264 -0.00129 0.19181 0.0
C523 C 0.24393 0.01381 0.19423 0.0
H524 H 0.11781 0.94441 0.17633 0.0
C525 C 0.28747 0.97728 0.18475 0.0
H526 H 0.14765 0.02405 0.19933 0.0
C527 C 0.27012 0.92979 0.17228 0.0
C528 C 0.20894 0.91869 0.16859 0.0
H529 H 0.33504 0.98734 0.18588 0.0
H530 H 0.30466 0.90507 0.1643 0.0
C531 C 0.16535 0.95235 0.17888 0.0
C532 C 0.32969 0.15211 0.54355 0.0
C533 C 0.31694 0.09021 0.54064 0.0
H534 H 0.38147 0.21838 0.55926 0.0
C535 C 0.35606 0.04778 0.54905 0.0
H536 H 0.3027 0.18662 0.53679 0.0
C537 C 0.404 0.06662 0.56086 0.0
C538 C 0.41282 0.12816 0.56512 0.0
H539 H 0.34809 -0.00021 0.54757 0.0
H540 H 0.43104 0.03264 0.56793 0.0
C541 C 0.37603 0.17075 0.55606 0.0
C542 C 0.24353 0.02152 0.78724 0.0
C543 C 0.21721 0.96386 0.78849 0.0
H544 H 0.24918 0.11122 0.79937 0.0
C545 C 0.16814 0.95643 0.80119 0.0
H546 H 0.28014 0.02957 0.77719 0.0
C547 C 0.14941 0.00363 0.81349 0.0
C548 C 0.17985 0.0593 0.81369 0.0
H549 H 0.14657 0.91299 0.8027 0.0
H550 H 0.11369 0.99488 0.82383 0.0
C551 C 0.22521 0.06872 0.79978 0.0
C552 C 0.37537 0.86528 0.05016 0.0
C553 C 0.3931 0.92573 0.04791 0.0
H554 H 0.32531 0.80208 0.06683 0.0
C555 C 0.37032 0.96984 0.06107 0.0
H556 H 0.39 0.83017 0.04003 0.0
C557 C 0.33119 0.95366 0.07609 0.0
C558 C 0.31592 0.89296 0.0786 0.0
H559 H 0.38351 0.01669 0.06007 0.0
H560 H 0.31366 0.98831 0.08592 0.0
C561 C 0.3382 0.84901 0.06553 0.0
C562 C 0.46956 0.03756 0.30774 0.0
C563 C 0.40961 0.05747 0.30599 0.0
H564 H 0.53222 0.98268 0.32301 0.0
C565 C 0.36577 0.03444 0.31873 0.0
H566 H 0.50431 0.05226 0.29783 0.0
C567 C 0.38176 0.99238 0.3328 0.0
C568 C 0.44202 0.97444 0.33472 0.0
H569 H 0.31932 0.04921 0.31801 0.0
H570 H 0.34738 0.97442 0.34228 0.0
C571 C 0.4857 -0.00255 0.32215 0.0
C572 C 0.76213 0.13651 0.54341 0.0
C573 C 0.78392 0.07713 0.54505 0.0
H574 H 0.71369 0.20929 0.55715 0.0
C575 C 0.76382 0.04224 0.56076 0.0
H576 H 0.77706 0.16524 0.53177 0.0
C577 C 0.72789 0.06815 0.57547 0.0
C578 C 0.71041 0.12871 0.5744 0.0
H579 H 0.77869 -0.004 0.5623 0.0
H580 H 0.71731 0.04224 0.58828 0.0
C581 C 0.72568 0.16194 0.55795 0.0
C582 C 0.78142 0.91395 0.31017 0.0
C583 C 0.7488 0.92477 0.29294 0.0
H584 H 0.78047 0.87405 0.33846 0.0
C585 C 0.69547 0.89185 0.28946 0.0
H586 H 0.82344 0.93714 0.31315 0.0
C587 C 0.67239 0.85391 0.30367 0.0
C588 C 0.70188 0.8486 0.32163 0.0
H589 H 0.66863 0.89917 0.27653 0.0
H590 H 0.62849 0.83356 0.3014 0.0
C591 C 0.75761 0.87692 0.32453 0.0
C592 C 0.90003 0.9344 0.06837 0.0
C593 C 0.88218 0.89888 0.0522 0.0
H594 H 0.95743 0.94239 0.09329 0.0
C595 C 0.90733 0.84094 0.04954 0.0
H596 H 0.88037 0.9785 0.07115 0.0
C597 C 0.95063 0.8197 0.06254 0.0
C598 C 0.9698 0.85636 0.07822 0.0
H599 H 0.89479 0.81265 0.03714 0.0
H600 H 0.9708 0.77575 0.05988 0.0
C601 C 0.94368 0.91352 0.08116 0.0
C602 C 0.97285 0.0488 0.80816 0.0
C603 C 0.91045 0.03918 0.80625 0.0
H604 H 0.04288 0.09945 0.82232 0.0
C605 C 0.87071 0.07298 0.81805 0.0
H606 H 0.00469 0.02283 0.79944 0.0
C607 C 0.89261 0.11531 0.83147 0.0
C608 C 0.95488 0.12571 0.83327 0.0
H609 H 0.82238 0.06737 0.81676 0.0
H610 H 0.86029 0.14071 0.84018 0.0
C611 C -0.00516 0.0919 0.8215 0.0
C612 C 0.74093 0.90421 0.43432 0.0
C613 C 0.79638 0.92923 0.42855 0.0
H614 H 0.66514 0.84909 0.4259 0.0
C615 C 0.81308 0.92492 0.40879 0.0
H616 H 0.72633 0.90755 0.44938 0.0
C617 C 0.77806 0.8923 0.39552 0.0
C618 C 0.7255 0.86304 0.40161 0.0
H619 H 0.85556 0.94286 0.40375 0.0
H620 H 0.79422 0.88675 0.38067 0.0
C621 C 0.70551 0.87144 0.42088 0.0
C622 C 0.97718 0.95751 0.16891 0.0
C623 C 0.93919 0.94319 0.18453 0.0
H624 H 0.02652 0.9236 0.1441 0.0
C625 C 0.92514 0.88289 0.18815 0.0
H626 H 0.98806 0.0041 0.16594 0.0
C627 C 0.94585 0.83749 0.17554 0.0
C628 C 0.98187 0.85187 0.15946 0.0
H629 H 0.89545 0.87133 0.20005 0.0
H630 H 0.93237 0.79127 0.17802 0.0
C631 C -0.00089 0.91182 0.15653 0.0
C632 C 0.92763 0.06667 0.92872 0.0
C633 C 0.90894 0.10834 0.94321 0.0
H634 H 0.98243 0.05008 0.90361 0.0
C635 C 0.93326 0.16698 0.94331 0.0
H636 H 0.9088 0.02164 0.92783 0.0
C637 C 0.97437 0.18385 0.92896 0.0
C638 C 0.99262 0.14196 0.91455 0.0
H639 H 0.92044 0.19985 0.95445 0.0
H640 H 0.99245 0.22926 0.92929 0.0
C641 C 0.96939 0.08314 0.91468 0.0
C642 C 0.75507 0.09791 0.68911 0.0
C643 C 0.77902 0.04075 0.6839 0.0
H644 H 0.70328 0.17446 0.67983 0.0
C645 C 0.77817 0.02271 0.66413 0.0
H646 H 0.7561 0.11394 0.70413 0.0
C647 C 0.7491 0.05772 0.65035 0.0
C648 C 0.7198 0.11151 0.65591 0.0
H649 H 0.79544 0.97913 0.65941 0.0
H650 H 0.74558 0.04025 0.63551 0.0
C651 C 0.72561 0.13311 0.67519 0.0
C652 C 0.86098 0.46254 0.93725 0.0
C653 C 0.82194 0.4225 0.94671 0.0
H654 H 0.93622 0.47211 0.91806 0.0
C655 C 0.83715 0.36074 0.9468 0.0
H656 H 0.85114 0.51035 0.9368 0.0
C657 C 0.88522 0.33872 0.93562 0.0
C658 C 0.92048 0.37813 0.92466 0.0
H659 H 0.8098 0.32867 0.95457 0.0
H660 H 0.89198 0.29044 0.93443 0.0
C661 C 0.91021 0.44058 0.92652 0.0
C662 C 0.83613 0.46493 0.16344 0.0
C663 C 0.87307 0.42337 0.17292 0.0
H664 H 0.83218 0.53934 0.14404 0.0
C665 C 0.93516 0.42212 0.16897 0.0
H666 H 0.78809 0.46636 0.16625 0.0
C667 C 0.96026 0.46287 0.15602 0.0
C668 C 0.92372 0.50618 0.14712 0.0
H669 H 0.96426 0.38978 0.17601 0.0
H670 H 0.00848 0.46194 0.15355 0.0
C671 C 0.86136 0.50647 0.15077 0.0
C672 C 0.88846 0.51478 0.41559 0.0
C673 C 0.91594 0.56235 0.42627 0.0
H674 H 0.82393 0.48965 0.39349 0.0
C675 C 0.90095 0.62214 0.42159 0.0
H676 H 0.89953 0.46815 0.41836 0.0
C677 C 0.86042 0.63405 0.40667 0.0
C678 C 0.83195 0.58664 0.3965 0.0
H679 H 0.91911 0.66023 0.42974 0.0
H680 H 0.84897 0.68061 0.40377 0.0
C681 C 0.84594 0.52687 0.40108 0.0
C682 C 0.6783 0.50667 0.69244 0.0
C683 C 0.7375 0.51202 0.69939 0.0
H684 H 0.61842 0.4606 0.67302 0.0
C685 C 0.77984 0.467 0.69439 0.0
H686 H 0.64486 0.54091 0.69591 0.0
C687 C 0.76404 0.41946 0.68162 0.0
C688 C 0.7061 0.41721 0.67336 0.0
H689 H 0.82573 0.47001 0.69971 0.0
H690 H 0.79842 0.38743 0.67706 0.0
C691 C 0.663 0.46023 0.67941 0.0
C692 C 0.81946 0.64581 0.04419 0.0
C693 C 0.80671 0.58376 0.04175 0.0
H694 H 0.8732 0.7131 0.0587 0.0
C695 C 0.84687 0.54187 0.0499 0.0
H696 H 0.79139 0.67978 0.03758 0.0
C697 C 0.89604 0.56143 0.06106 0.0
C698 C 0.90527 0.62323 0.06484 0.0
H699 H 0.83886 0.49381 0.04868 0.0
H700 H 0.92394 0.52789 0.06801 0.0
C701 C 0.86735 0.66524 0.05594 0.0
C702 C 0.75109 0.50728 0.28668 0.0
C703 C 0.70997 0.46019 0.28321 0.0
H704 H 0.77188 0.58673 0.30361 0.0
C705 C 0.65411 0.46117 0.29272 0.0
H706 H 0.79447 0.50719 0.27943 0.0
C707 C 0.64171 0.50569 0.30681 0.0
C708 C 0.68429 0.5508 0.31127 0.0
H709 H 0.62196 0.42498 0.29035 0.0
H710 H 0.6004 0.50253 0.31505 0.0
C711 C 0.738 0.55279 0.30044 0.0
C712 C 0.88897 0.35523 0.55671 0.0
C713 C 0.90564 0.41537 0.55328 0.0
H714 H 0.83881 0.29464 0.5743 0.0
C715 C 0.88208 0.46145 0.56555 0.0
H716 H 0.90431 0.31856 0.5473 0.0
C717 C 0.84258 0.44758 0.58071 0.0
C718 C 0.82774 0.38734 0.58427 0.0
H719 H 0.89456 0.50817 0.56365 0.0
H720 H 0.82398 0.48373 0.58972 0.0
C721 C 0.85138 0.34135 0.57222 0.0
C722 C 0.87972 0.57378 0.82965 0.0
C723 C 0.8446 0.55382 0.81378 0.0
H724 H 0.93385 0.54831 0.85402 0.0
C725 C 0.83183 0.49224 0.81138 0.0
H726 H 0.89039 0.62122 0.83161 0.0
C727 C 0.85568 0.45073 0.82435 0.0
C728 C 0.89389 0.47025 0.83956 0.0
H729 H 0.80493 0.47619 0.79915 0.0
H730 H 0.84688 0.40314 0.82182 0.0
C731 C 0.90474 0.53219 0.84235 0.0
C732 C 0.28902 0.54484 0.06679 0.0
C733 C 0.27524 0.55072 0.04689 0.0
H734 H 0.2697 0.5738 0.09601 0.0
C735 C 0.22222 0.58175 0.04171 0.0
H736 H 0.3295 0.52191 0.07146 0.0
C737 C 0.1877 0.61181 0.05602 0.0
C738 C 0.20602 0.61112 0.07559 0.0
H739 H 0.20968 0.58615 0.02653 0.0
H740 H 0.15035 0.63997 0.05159 0.0
C741 C 0.25479 0.57478 0.08095 0.0
C742 C 0.27417 0.402 0.80804 0.0
C743 C 0.24477 0.43227 0.79286 0.0
H744 H 0.26365 0.34799 0.83353 0.0
C745 C 0.18283 0.42266 0.7899 0.0
H746 H 0.32195 0.40837 0.81055 0.0
C747 C 0.14992 0.38833 0.80297 0.0
C748 C 0.1785 0.36222 0.81896 0.0
H749 H 0.15874 0.44586 0.77852 0.0
H750 H 0.10136 0.38592 0.8014 0.0
C751 C 0.24114 0.36699 0.82102 0.0
C752 C 0.41234 0.43496 0.5685 0.0
C753 C 0.39526 0.39737 0.55273 0.0
H754 H 0.46804 0.44582 0.59378 0.0
C755 C 0.42121 0.33958 0.55082 0.0
H756 H 0.39228 0.47918 0.57064 0.0
C757 C 0.46342 0.31988 0.56442 0.0
C758 C 0.48104 0.35803 0.57992 0.0
H759 H 0.40962 0.30991 0.53866 0.0
H760 H 0.4837 0.27567 0.56244 0.0
C761 C 0.45517 0.41565 0.58187 0.0
C762 C 0.47442 0.52832 0.31179 0.0
C763 C 0.43452 0.54422 0.29675 0.0
H764 H 0.52227 0.55751 0.33747 0.0
C765 C 0.41064 0.60295 0.29664 0.0
H766 H 0.49198 0.48283 0.31266 0.0
C767 C 0.42668 0.64489 0.31115 0.0
C768 C 0.46767 0.62924 0.32583 0.0
H769 H 0.38015 0.61679 0.28522 0.0
H770 H 0.40812 0.69009 0.31061 0.0
C771 C 0.49143 0.57071 0.32607 0.0
C772 C 0.30316 0.44754 0.90659 0.0
C773 C 0.28671 0.44874 0.92639 0.0
H774 H 0.28361 0.41371 0.87792 0.0
C775 C 0.23048 0.42454 0.93173 0.0
H776 H 0.34611 0.46523 0.90187 0.0
C777 C 0.19442 0.3946 0.91783 0.0
C778 C 0.21443 0.38825 0.89848 0.0
H779 H 0.21599 0.42575 0.94682 0.0
H780 H 0.15372 0.37222 0.92255 0.0
C781 C 0.26741 0.41767 0.89281 0.0
C782 C 0.4035 0.41702 0.67579 0.0
C783 C 0.4451 0.44107 0.68924 0.0
H784 H 0.38788 0.35592 0.65197 0.0
C785 C 0.50433 0.4186 0.68937 0.0
H786 H 0.35727 0.43283 0.67558 0.0
C787 C 0.52209 0.37423 0.67573 0.0
C788 C 0.48069 0.35156 0.66193 0.0
H789 H 0.53721 0.4365 0.69962 0.0
H790 H 0.56797 0.35751 0.67602 0.0
C791 C 0.42106 0.37285 0.6623 0.0
C792 C 0.42856 0.65357 0.43976 0.0
C793 C 0.40473 0.59478 0.44003 0.0
H794 H 0.4878 0.71515 0.42548 0.0
C795 C 0.42252 0.55278 0.42554 0.0
H796 H 0.41609 0.6868 0.45083 0.0
C797 C 0.46377 0.56878 0.41128 0.0
C798 C 0.48754 0.62738 0.411 0.0
H799 H 0.40383 0.50766 0.42495 0.0
H800 H 0.47665 0.53525 0.40034 0.0
C801 C 0.4694 0.66987 0.42526 0.0
C802 C 0.28671 0.54471 0.1637 0.0
C803 C 0.26806 0.54931 0.18323 0.0
H804 H 0.26992 0.57188 0.13436 0.0
C805 C 0.22665 0.59442 0.18883 0.0
H806 H 0.31822 0.50989 0.15906 0.0
C807 C 0.20031 0.63096 0.17476 0.0
C808 C 0.21432 0.62173 0.15499 0.0
H809 H 0.21173 0.59857 0.20384 0.0
H810 H 0.16475 0.66198 0.1791 0.0
C811 C 0.25938 0.58022 0.14962 0.0
loop_
_geom_bond_atom_site_label_1
_geom_bond_atom_site_label_2
_geom_bond_distance
_geom_bond_site_symmetry_2
_ccdc_geom_bond_type
C0 C1 1.384 . S
C0 C2 1.384 . S
C0 H28 0.931 1_565 S
C1 C0 1.384 . S
C1 C4 1.382 . S
C2 C0 1.384 . S
C2 C3 1.381 . S
C2 H29 0.930 1_565 S
C3 C2 1.381 . S
C3 C5 1.381 . S
C3 C6 1.487 . S
C4 C1 1.382 . S
C4 C5 1.387 . S
C4 H30 0.930 . S
C5 C3 1.381 . S
C5 C4 1.387 . S
C5 H31 0.931 . S
C6 C3 1.487 . S
C6 C13 1.399 1_565 S
C6 N44 1.343 . S
C7 C8 1.384 . S
C7 C9 1.384 . S
C7 H32 0.931 1_545 S
C8 C7 1.384 . S
C8 C11 1.382 . S
C9 C7 1.384 . S
C9 C10 1.381 . S
C9 H33 0.930 1_545 S
C10 C9 1.381 . S
C10 C12 1.381 . S
C10 C13 1.487 . S
C11 C8 1.382 . S
C11 C12 1.387 . S
C11 H34 0.930 . S
C12 C10 1.381 . S
C12 C11 1.387 . S
C12 H35 0.931 . S
C13 C6 1.399 1_545 S
C13 C10 1.487 . S
C13 N45 1.343 . S
C14 C15 1.384 . S
C14 C16 1.384 . S
C14 H36 0.931 1_545 S
C15 C14 1.384 . S
C15 C18 1.382 . S
C16 C14 1.384 . S
C16 C17 1.381 . S
C16 H37 0.930 1_545 S
C17 C16 1.381 . S
C17 C19 1.381 . S
C17 C20 1.487 . S
C18 C15 1.382 . S
C18 C19 1.387 . S
C18 H38 0.930 . S
C19 C17 1.381 . S
C19 C18 1.387 . S
C19 H39 0.931 . S
C20 C17 1.487 . S
C20 C27 1.399 1_545 S
C20 N45 1.343 1_655 S
C21 C22 1.384 . S
C21 C23 1.384 . S
C21 H40 0.931 1_565 S
C22 C21 1.384 . S
C22 C25 1.382 . S
C23 C21 1.384 . S
C23 C24 1.381 . S
C23 H41 0.930 1_565 S
C24 C23 1.381 . S
C24 C26 1.381 . S
C24 C27 1.487 . S
C25 C22 1.382 . S
C25 C26 1.387 . S
C25 H42 0.930 . S
C26 C24 1.381 . S
C26 C25 1.387 . S
C26 H43 0.931 . S
C27 C20 1.399 1_565 S
C27 C24 1.487 . S
C27 N44 1.343 1_655 S
H28 C0 0.931 1_545 S
H29 C2 0.930 1_545 S
H30 C4 0.930 . S
H31 C5 0.931 . S
H32 C7 0.931 1_565 S
H33 C9 0.930 1_565 S
H34 C11 0.930 . S
H35 C12 0.931 . S
H36 C14 0.931 1_565 S
H37 C16 0.930 1_565 S
H38 C18 0.930 . S
H39 C19 0.931 . S
H40 C21 0.931 1_545 S
H41 C23 0.930 1_545 S
H42 C25 0.930 . S
H43 C26 0.931 . S
N44 C6 1.343 . S
N44 C27 1.343 1_455 S
N45 C13 1.343 . S
N45 C20 1.343 1_455 S
C46 C47 1.384 . S
C46 C48 1.384 . S
C46 H74 0.931 . S
C47 C46 1.384 . S
C47 C50 1.382 . S
C48 C46 1.384 . S
C48 C49 1.381 . S
C48 H75 0.930 . S
C49 C48 1.381 . S
C49 C51 1.381 . S
C49 C52 1.487 . S
C50 C47 1.382 . S
C50 C51 1.387 . S
C50 H76 0.930 . S
C51 C49 1.381 . S
C51 C50 1.387 . S
C51 H77 0.931 . S
C52 C49 1.487 . S
C52 C59 1.399 . S
C52 N90 1.343 . S
C53 C54 1.384 . S
C53 C55 1.384 . S
C53 H78 0.931 . S
C54 C53 1.384 . S
C54 C57 1.382 . S
C55 C53 1.384 . S
C55 C56 1.381 . S
C55 H79 0.930 . S
C56 C55 1.381 . S
C56 C58 1.381 . S
C56 C59 1.487 . S
C57 C54 1.382 . S
C57 C58 1.387 . S
C57 H80 0.930 . S
C58 C56 1.381 . S
C58 C57 1.387 . S
C58 H81 0.931 . S
C59 C52 1.399 . S
C59 C56 1.487 . S
C59 N91 1.343 . S
C60 C61 1.384 . S
C60 C62 1.384 . S
C60 H82 0.931 . S
C61 C60 1.384 . S
C61 C64 1.382 . S
C62 C60 1.384 . S
C62 C63 1.381 . S
C62 H83 0.930 . S
C63 C62 1.381 . S
C63 C65 1.381 . S
C63 C66 1.487 . S
C64 C61 1.382 . S
C64 C65 1.387 . S
C64 H84 0.930 . S
C65 C63 1.381 . S
C65 C64 1.387 . S
C65 H85 0.931 . S
C66 C63 1.487 . S
C66 C73 1.399 . S
C66 N91 1.343 . S
C67 C68 1.384 . S
C67 C69 1.384 . S
C67 H86 0.931 . S
C68 C67 1.384 . S
C68 C71 1.382 . S
C69 C67 1.384 . S
C69 C70 1.381 . S
C69 H87 0.930 . S
C70 C69 1.381 . S
C70 C72 1.381 . S
C70 C73 1.487 . S
C71 C68 1.382 . S
C71 C72 1.387 . S
C71 H88 0.930 . S
C72 C70 1.381 . S
C72 C71 1.387 . S
C72 H89 0.931 . S
C73 C66 1.399 . S
C73 C70 1.487 . S
C73 N90 1.343 . S
H74 C46 0.931 . S
H75 C48 0.930 . S
H76 C50 0.930 . S
H77 C51 0.931 . S
H78 C53 0.931 . S
H79 C55 0.930 . S
H80 C57 0.930 . S
H81 C58 0.931 . S
H82 C60 0.931 . S
H83 C62 0.930 . S
H84 C64 0.930 . S
H85 C65 0.931 . S
H86 C67 0.931 . S
H87 C69 0.930 . S
H88 C71 0.930 . S
H89 C72 0.931 . S
N90 C52 1.343 . S
N90 C73 1.343 . S
N91 C59 1.343 . S
N91 C66 1.343 . S
C92 C93 1.384 . S
C92 C94 1.384 . S
C92 H120 0.931 1_545 S
C93 C92 1.384 . S
C93 C96 1.382 . S
C94 C92 1.384 . S
C94 C95 1.381 . S
C94 H121 0.930 1_545 S
C95 C94 1.381 . S
C95 C97 1.381 . S
C95 C98 1.487 . S
C96 C93 1.382 . S
C96 C97 1.387 . S
C96 H122 0.930 . S
C97 C95 1.381 . S
C97 C96 1.387 . S
C97 H123 0.931 . S
C98 C95 1.487 . S
C98 C105 1.399 1_546 S
C98 N136 1.343 . S
C99 C100 1.384 . S
C99 C101 1.384 . S
C99 H124 0.931 1_565 S
C100 C99 1.384 . S
C100 C103 1.382 . S
C101 C99 1.384 . S
C101 C102 1.381 . S
C101 H125 0.930 1_565 S
C102 C101 1.381 . S
C102 C104 1.381 . S
C102 C105 1.487 . S
C103 C100 1.382 . S
C103 C104 1.387 . S
C103 H126 0.930 . S
C104 C102 1.381 . S
C104 C103 1.387 . S
C104 H127 0.931 . S
C105 C98 1.399 1_564 S
C105 C102 1.487 . S
C105 N137 1.343 . S
C106 C107 1.384 . S
C106 C108 1.384 . S
C106 H128 0.931 1_565 S
C107 C106 1.384 . S
C107 C110 1.382 . S
C108 C106 1.384 . S
C108 C109 1.381 . S
C108 H129 0.930 1_565 S
C109 C108 1.381 . S
C109 C111 1.381 . S
C109 C112 1.487 . S
C110 C107 1.382 . S
C110 C111 1.387 . S
C110 H130 0.930 . S
C111 C109 1.381 . S
C111 C110 1.387 . S
C111 H131 0.931 . S
C112 C109 1.487 . S
C112 C119 1.399 1_564 S
C112 N137 1.343 . S
C113 C114 1.384 . S
C113 C115 1.384 . S
C113 H132 0.931 1_545 S
C114 C113 1.384 . S
C114 C117 1.382 . S
C115 C113 1.384 . S
C115 C116 1.381 . S
C115 H133 0.930 1_545 S
C116 C115 1.381 . S
C116 C118 1.381 . S
C116 C119 1.487 . S
C117 C114 1.382 . S
C117 C118 1.387 . S
C117 H134 0.930 . S
C118 C116 1.381 . S
C118 C117 1.387 . S
C118 H135 0.931 . S
C119 C112 1.399 1_546 S
C119 C116 1.487 . S
C119 N136 1.343 . S
H120 C92 0.931 1_565 S
H121 C94 0.930 1_565 S
H122 C96 0.930 . S
H123 C97 0.931 . S
H124 C99 0.931 1_545 S
H125 C101 0.930 1_545 S
H126 C103 0.930 . S
H127 C104 0.931 . S
H128 C106 0.931 1_545 S
H129 C108 0.930 1_545 S
H130 C110 0.930 . S
H131 C111 0.931 . S
H132 C113 0.931 1_565 S
H133 C115 0.930 1_565 S
H134 C117 0.930 . S
H135 C118 0.931 . S
N136 C98 1.343 . S
N136 C119 1.343 . S
N137 C105 1.343 . S
N137 C112 1.343 . S
C138 C139 1.384 . S
C138 C140 1.384 . S
C138 H166 0.931 . S
C139 C138 1.384 . S
C139 C142 1.382 . S
C140 C138 1.384 . S
C140 C141 1.381 . S
C140 H167 0.930 . S
C141 C140 1.381 . S
C141 C143 1.381 . S
C141 C144 1.487 . S
C142 C139 1.382 . S
C142 C143 1.387 . S
C142 H168 0.930 . S
C143 C141 1.381 . S
C143 C142 1.387 . S
C143 H169 0.931 . S
C144 C141 1.487 . S
C144 C151 1.399 . S
C144 N182 1.343 . S
C145 C146 1.384 . S
C145 C147 1.384 . S
C145 H170 0.931 . S
C146 C145 1.384 . S
C146 C149 1.382 . S
C147 C145 1.384 . S
C147 C148 1.381 . S
C147 H171 0.930 . S
C148 C147 1.381 . S
C148 C150 1.381 . S
C148 C151 1.487 . S
C149 C146 1.382 . S
C149 C150 1.387 . S
C149 H172 0.930 . S
C150 C148 1.381 . S
C150 C149 1.387 . S
C150 H173 0.931 . S
C151 C144 1.399 . S
C151 C148 1.487 . S
C151 N183 1.343 . S
C152 C153 1.384 . S
C152 C154 1.384 . S
C152 H174 0.931 . S
C153 C152 1.384 . S
C153 C156 1.382 . S
C154 C152 1.384 . S
C154 C155 1.381 . S
C154 H175 0.930 . S
C155 C154 1.381 . S
C155 C157 1.381 . S
C155 C158 1.487 . S
C156 C153 1.382 . S
C156 C157 1.387 . S
C156 H176 0.930 . S
C157 C155 1.381 . S
C157 C156 1.387 . S
C157 H177 0.931 . S
C158 C155 1.487 . S
C158 C165 1.399 . S
C158 N183 1.343 . S
C159 C160 1.384 . S
C159 C161 1.384 . S
C159 H178 0.931 . S
C160 C159 1.384 . S
C160 C163 1.382 . S
C161 C159 1.384 . S
C161 C162 1.381 . S
C161 H179 0.930 . S
C162 C161 1.381 . S
C162 C164 1.381 . S
C162 C165 1.487 . S
C163 C160 1.382 . S
C163 C164 1.387 . S
C163 H180 0.930 . S
C164 C162 1.381 . S
C164 C163 1.387 . S
C164 H181 0.931 . S
C165 C158 1.399 . S
C165 C162 1.487 . S
C165 N182 1.343 . S
H166 C138 0.931 . S
H167 C140 0.930 . S
H168 C142 0.930 . S
H169 C143 0.931 . S
H170 C145 0.931 . S
H171 C147 0.930 . S
H172 C149 0.930 . S
H173 C150 0.931 . S
H174 C152 0.931 . S
H175 C154 0.930 . S
H176 C156 0.930 . S
H177 C157 0.931 . S
H178 C159 0.931 . S
H179 C161 0.930 . S
H180 C163 0.930 . S
H181 C164 0.931 . S
N182 C144 1.343 . S
N182 C165 1.343 . S
N183 C151 1.343 . S
N183 C158 1.343 . S
C184 C185 1.384 . S
C184 C186 1.384 1_565 S
C184 H212 0.931 . S
C185 C184 1.384 . S
C185 C188 1.382 1_565 S
C186 C184 1.384 1_545 S
C186 C187 1.381 . S
C186 H213 0.930 . S
C187 C186 1.381 . S
C187 C189 1.381 . S
C187 C190 1.487 . S
C188 C185 1.382 1_545 S
C188 C189 1.387 . S
C188 H214 0.930 . S
C189 C187 1.381 . S
C189 C188 1.387 . S
C189 H215 0.931 . S
C190 C187 1.487 . S
C190 C197 1.399 . S
C190 N228 1.343 . S
C191 C192 1.384 . S
C191 C193 1.384 1_565 S
C191 H216 0.931 . S
C192 C191 1.384 . S
C192 C195 1.382 1_565 S
C193 C191 1.384 1_545 S
C193 C194 1.381 . S
C193 H217 0.930 . S
C194 C193 1.381 . S
C194 C196 1.381 . S
C194 C197 1.487 . S
C195 C192 1.382 1_545 S
C195 C196 1.387 . S
C195 H218 0.930 . S
C196 C194 1.381 . S
C196 C195 1.387 . S
C196 H219 0.931 . S
C197 C190 1.399 . S
C197 C194 1.487 . S
C197 N229 1.343 . S
C198 C199 1.384 . S
C198 C200 1.384 . S
C198 H220 0.931 . S
C199 C198 1.384 . S
C199 C202 1.382 . S
C200 C198 1.384 . S
C200 C201 1.381 . S
C200 H221 0.930 . S
C201 C200 1.381 . S
C201 C203 1.381 . S
C201 C204 1.487 . S
C202 C199 1.382 . S
C202 C203 1.387 . S
C202 H222 0.930 . S
C203 C201 1.381 . S
C203 C202 1.387 . S
C203 H223 0.931 . S
C204 C201 1.487 . S
C204 C211 1.399 . S
C204 N229 1.343 . S
C205 C206 1.384 . S
C205 C207 1.384 . S
C205 H224 0.931 . S
C206 C205 1.384 . S
C206 C209 1.382 . S
C207 C205 1.384 . S
C207 C208 1.381 . S
C207 H225 0.930 . S
C208 C207 1.381 . S
C208 C210 1.381 . S
C208 C211 1.487 . S
C209 C206 1.382 . S
C209 C210 1.387 . S
C209 H226 0.930 . S
C210 C208 1.381 . S
C210 C209 1.387 . S
C210 H227 0.931 . S
C211 C204 1.399 . S
C211 C208 1.487 . S
C211 N228 1.343 . S
H212 C184 0.931 . S
H213 C186 0.930 . S
H214 C188 0.930 . S
H215 C189 0.931 . S
H216 C191 0.931 . S
H217 C193 0.930 . S
H218 C195 0.930 . S
H219 C196 0.931 . S
H220 C198 0.931 . S
H221 C200 0.930 . S
H222 C202 0.930 . S
H223 C203 0.931 . S
H224 C205 0.931 . S
H225 C207 0.930 . S
H226 C209 0.930 . S
H227 C210 0.931 . S
N228 C190 1.343 . S
N228 C211 1.343 . S
N229 C197 1.343 . S
N229 C204 1.343 . S
C230 C231 1.384 . S
C230 C232 1.384 1_545 S
C230 H258 0.931 . S
C231 C230 1.384 . S
C231 C234 1.382 1_545 S
C232 C230 1.384 1_565 S
C232 C233 1.381 . S
C232 H259 0.930 . S
C233 C232 1.381 . S
C233 C235 1.381 . S
C233 C236 1.487 . S
C234 C231 1.382 1_565 S
C234 C235 1.387 . S
C234 H260 0.930 . S
C235 C233 1.381 . S
C235 C234 1.387 . S
C235 H261 0.931 . S
C236 C233 1.487 . S
C236 C243 1.399 . S
C236 N274 1.343 . S
C237 C238 1.384 . S
C237 C239 1.384 1_545 S
C237 H262 0.931 . S
C238 C237 1.384 . S
C238 C241 1.382 1_545 S
C239 C237 1.384 1_565 S
C239 C240 1.381 . S
C239 H263 0.930 . S
C240 C239 1.381 . S
C240 C242 1.381 . S
C240 C243 1.487 . S
C241 C238 1.382 1_565 S
C241 C242 1.387 . S
C241 H264 0.930 . S
C242 C240 1.381 . S
C242 C241 1.387 . S
C242 H265 0.931 . S
C243 C236 1.399 . S
C243 C240 1.487 . S
C243 N275 1.343 . S
C244 C245 1.384 . S
C244 C246 1.384 . S
C244 H266 0.931 . S
C245 C244 1.384 . S
C245 C248 1.382 . S
C246 C244 1.384 . S
C246 C247 1.381 . S
C246 H267 0.930 . S
C247 C246 1.381 . S
C247 C249 1.381 . S
C247 C250 1.487 . S
C248 C245 1.382 . S
C248 C249 1.387 . S
C248 H268 0.930 . S
C249 C247 1.381 . S
C249 C248 1.387 . S
C249 H269 0.931 . S
C250 C247 1.487 . S
C250 C257 1.399 . S
C250 N275 1.343 . S
C251 C252 1.384 . S
C251 C253 1.384 . S
C251 H270 0.931 . S
C252 C251 1.384 . S
C252 C255 1.382 . S
C253 C251 1.384 . S
C253 C254 1.381 . S
C253 H271 0.930 . S
C254 C253 1.381 . S
C254 C256 1.381 . S
C254 C257 1.487 . S
C255 C252 1.382 . S
C255 C256 1.387 . S
C255 H272 0.930 . S
C256 C254 1.381 . S
C256 C255 1.387 . S
C256 H273 0.931 . S
C257 C250 1.399 . S
C257 C254 1.487 . S
C257 N274 1.343 . S
H258 C230 0.931 . S
H259 C232 0.930 . S
H260 C234 0.930 . S
H261 C235 0.931 . S
H262 C237 0.931 . S
H263 C239 0.930 . S
H264 C241 0.930 . S
H265 C242 0.931 . S
H266 C244 0.931 . S
H267 C246 0.930 . S
H268 C248 0.930 . S
H269 C249 0.931 . S
H270 C251 0.931 . S
H271 C253 0.930 . S
H272 C255 0.930 . S
H273 C256 0.931 . S
N274 C236 1.343 . S
N274 C257 1.343 . S
N275 C243 1.343 . S
N275 C250 1.343 . S
C276 C277 1.384 . S
C276 C278 1.384 . S
C276 H304 0.931 . S
C277 C276 1.384 . S
C277 C280 1.382 . S
C278 C276 1.384 . S
C278 C279 1.381 . S
C278 H305 0.930 . S
C279 C278 1.381 . S
C279 C281 1.381 . S
C279 C282 1.487 . S
C280 C277 1.382 . S
C280 C281 1.387 . S
C280 H306 0.930 . S
C281 C279 1.381 . S
C281 C280 1.387 . S
C281 H307 0.931 . S
C282 C279 1.487 . S
C282 C289 1.399 1_556 S
C282 N320 1.343 . S
C283 C284 1.384 . S
C283 C285 1.384 . S
C283 H308 0.931 . S
C284 C283 1.384 . S
C284 C287 1.382 . S
C285 C283 1.384 . S
C285 C286 1.381 . S
C285 H309 0.930 . S
C286 C285 1.381 . S
C286 C288 1.381 . S
C286 C289 1.487 . S
C287 C284 1.382 . S
C287 C288 1.387 . S
C287 H310 0.930 . S
C288 C286 1.381 . S
C288 C287 1.387 . S
C288 H311 0.931 . S
C289 C282 1.399 1_554 S
C289 C286 1.487 . S
C289 N321 1.343 . S
C290 C291 1.384 . S
C290 C292 1.384 . S
C290 H312 0.931 . S
C291 C290 1.384 . S
C291 C294 1.382 . S
C292 C290 1.384 . S
C292 C293 1.381 . S
C292 H313 0.930 . S
C293 C292 1.381 . S
C293 C295 1.381 . S
C293 C296 1.487 . S
C294 C291 1.382 . S
C294 C295 1.387 . S
C294 H314 0.930 . S
C295 C293 1.381 . S
C295 C294 1.387 . S
C295 H315 0.931 . S
C296 C293 1.487 . S
C296 C303 1.399 1_554 S
C296 N321 1.343 . S
C297 C298 1.384 . S
C297 C299 1.384 . S
C297 H316 0.931 . S
C298 C297 1.384 . S
C298 C301 1.382 . S
C299 C297 1.384 . S
C299 C300 1.381 . S
C299 H317 0.930 . S
C300 C299 1.381 . S
C300 C302 1.381 . S
C300 C303 1.487 . S
C301 C298 1.382 . S
C301 C302 1.387 . S
C301 H318 0.930 . S
C302 C300 1.381 . S
C302 C301 1.387 . S
C302 H319 0.931 . S
C303 C296 1.399 1_556 S
C303 C300 1.487 . S
C303 N320 1.343 . S
H304 C276 0.931 . S
H305 C278 0.930 . S
H306 C280 0.930 . S
H307 C281 0.931 . S
H308 C283 0.931 . S
H309 C285 0.930 . S
H310 C287 0.930 . S
H311 C288 0.931 . S
H312 C290 0.931 . S
H313 C292 0.930 . S
H314 C294 0.930 . S
H315 C295 0.931 . S
H316 C297 0.931 . S
H317 C299 0.930 . S
H318 C301 0.930 . S
H319 C302 0.931 . S
N320 C282 1.343 . S
N320 C303 1.343 . S
N321 C289 1.343 . S
N321 C296 1.343 . S
C322 C323 1.384 . S
C322 C324 1.384 1_655 S
C322 H350 0.931 . S
C323 C322 1.384 . S
C323 C326 1.382 1_655 S
C324 C322 1.384 1_455 S
C324 C325 1.381 . S
C324 H351 0.930 . S
C325 C324 1.381 . S
C325 C327 1.381 . S
C325 C328 1.487 . S
C326 C323 1.382 1_455 S
C326 C327 1.387 . S
C326 H352 0.930 . S
C327 C325 1.381 . S
C327 C326 1.387 . S
C327 H353 0.931 . S
C328 C325 1.487 . S
C328 C335 1.399 . S
C328 N366 1.343 . S
C329 C330 1.384 . S
C329 C331 1.384 1_655 S
C329 H354 0.931 . S
C330 C329 1.384 . S
C330 C333 1.382 1_655 S
C331 C329 1.384 1_455 S
C331 C332 1.381 . S
C331 H355 0.930 . S
C332 C331 1.381 . S
C332 C334 1.381 . S
C332 C335 1.487 . S
C333 C330 1.382 1_455 S
C333 C334 1.387 . S
C333 H356 0.930 . S
C334 C332 1.381 . S
C334 C333 1.387 . S
C334 H357 0.931 . S
C335 C328 1.399 . S
C335 C332 1.487 . S
C335 N367 1.343 . S
C336 C337 1.384 . S
C336 C338 1.384 . S
C336 H358 0.931 . S
C337 C336 1.384 . S
C337 C340 1.382 . S
C338 C336 1.384 . S
C338 C339 1.381 . S
C338 H359 0.930 . S
C339 C338 1.381 . S
C339 C341 1.381 . S
C339 C342 1.487 . S
C340 C337 1.382 . S
C340 C341 1.387 . S
C340 H360 0.930 . S
C341 C339 1.381 . S
C341 C340 1.387 . S
C341 H361 0.931 . S
C342 C339 1.487 . S
C342 C349 1.399 . S
C342 N367 1.343 . S
C343 C344 1.384 . S
C343 C345 1.384 . S
C343 H362 0.931 . S
C344 C343 1.384 . S
C344 C347 1.382 . S
C345 C343 1.384 . S
C345 C346 1.381 . S
C345 H363 0.930 . S
C346 C345 1.381 . S
C346 C348 1.381 . S
C346 C349 1.487 . S
C347 C344 1.382 . S
C347 C348 1.387 . S
C347 H364 0.930 . S
C348 C346 1.381 . S
C348 C347 1.387 . S
C348 H365 0.931 . S
C349 C342 1.399 . S
C349 C346 1.487 . S
C349 N366 1.343 . S
H350 C322 0.931 . S
H351 C324 0.930 . S
H352 C326 0.930 . S
H353 C327 0.931 . S
H354 C329 0.931 . S
H355 C331 0.930 . S
H356 C333 0.930 . S
H357 C334 0.931 . S
H358 C336 0.931 . S
H359 C338 0.930 . S
H360 C340 0.930 . S
H361 C341 0.931 . S
H362 C343 0.931 . S
H363 C345 0.930 . S
H364 C347 0.930 . S
H365 C348 0.931 . S
N366 C328 1.343 . S
N366 C349 1.343 . S
N367 C335 1.343 . S
N367 C342 1.343 . S
C368 O395 1.312 . S
C368 O396 1.208 . S
C369 O390 1.331 1_655 S
C369 O393 1.244 . S
C370 O392 1.264 1_655 S
C370 O394 1.273 . S
Mg371 O373 1.936 . S
Mg371 O380 2.081 . S
Mg371 O382 2.023 . S
Mg371 O386 2.031 . S
Mg371 O395 2.291 . S
Mg372 O373 1.963 . S
Mg372 O383 1.942 . S
Mg372 O384 1.955 . S
Mg372 O391 1.986 . S
O373 Mg371 1.936 . S
O373 Mg372 1.963 . S
O373 Mg374 1.915 . S
Mg374 O373 1.915 . S
Mg374 O375 1.915 . S
Mg374 O379 2.013 . S
Mg374 O385 2.114 . S
Mg374 O389 2.013 . S
Mg374 O395 2.114 . S
O375 Mg374 1.915 . S
O375 Mg376 1.936 . S
O375 Mg377 1.963 1_455 S
Mg376 O375 1.936 . S
Mg376 O385 2.291 . S
Mg376 O390 2.081 . S
Mg376 O392 2.023 . S
Mg376 O396 2.031 . S
Mg377 O375 1.963 1_655 S
Mg377 O381 1.986 . S
Mg377 O393 1.942 . S
Mg377 O394 1.955 . S
C378 O389 1.191 . S
C378 O391 1.307 . S
O379 Mg374 2.013 . S
O379 C398 1.191 . S
O380 Mg371 2.081 . S
O380 C388 1.331 . S
O381 Mg377 1.986 . S
O381 C398 1.307 1_655 S
O382 Mg371 2.023 . S
O382 C397 1.264 . S
O383 Mg372 1.942 . S
O383 C388 1.244 . S
O384 Mg372 1.955 . S
O384 C397 1.273 . S
O385 Mg374 2.114 . S
O385 Mg376 2.291 . S
O385 C387 1.312 . S
O386 Mg371 2.031 . S
O386 C387 1.208 . S
C387 O385 1.312 . S
C387 O386 1.208 . S
C388 O380 1.331 . S
C388 O383 1.244 . S
O389 Mg374 2.013 . S
O389 C378 1.191 . S
O390 C369 1.331 1_455 S
O390 Mg376 2.081 . S
O391 Mg372 1.986 . S
O391 C378 1.307 . S
O392 C370 1.264 1_455 S
O392 Mg376 2.023 . S
O393 C369 1.244 . S
O393 Mg377 1.942 . S
O394 C370 1.273 . S
O394 Mg377 1.955 . S
O395 C368 1.312 . S
O395 Mg371 2.291 . S
O395 Mg374 2.114 . S
O396 C368 1.208 . S
O396 Mg376 2.031 . S
C397 O382 1.264 . S
C397 O384 1.273 . S
C398 O379 1.191 . S
C398 O381 1.307 1_455 S
C399 O426 1.312 . S
C399 O427 1.208 . S
C400 O421 1.331 . S
C400 O424 1.244 . S
C401 O423 1.264 . S
C401 O425 1.273 . S
Mg402 O404 1.936 . S
Mg402 O411 2.081 . S
Mg402 O413 2.023 . S
Mg402 O417 2.031 . S
Mg402 O426 2.291 . S
Mg403 O404 1.963 . S
Mg403 O414 1.942 . S
Mg403 O415 1.955 . S
Mg403 O422 1.986 . S
O404 Mg402 1.936 . S
O404 Mg403 1.963 . S
O404 Mg405 1.915 . S
Mg405 O404 1.915 . S
Mg405 O406 1.915 . S
Mg405 O410 2.013 . S
Mg405 O416 2.114 . S
Mg405 O420 2.013 . S
Mg405 O426 2.114 . S
O406 Mg405 1.915 . S
O406 Mg407 1.936 . S
O406 Mg408 1.963 . S
Mg407 O406 1.936 . S
Mg407 O416 2.291 . S
Mg407 O421 2.081 . S
Mg407 O423 2.023 . S
Mg407 O427 2.031 . S
Mg408 O406 1.963 . S
Mg408 O412 1.986 . S
Mg408 O424 1.942 . S
Mg408 O425 1.955 . S
C409 O420 1.191 . S
C409 O422 1.307 . S
O410 Mg405 2.013 . S
O410 C429 1.191 . S
O411 Mg402 2.081 . S
O411 C419 1.331 . S
O412 Mg408 1.986 . S
O412 C429 1.307 . S
O413 Mg402 2.023 . S
O413 C428 1.264 . S
O414 Mg403 1.942 . S
O414 C419 1.244 . S
O415 Mg403 1.955 . S
O415 C428 1.273 . S
O416 Mg405 2.114 . S
O416 Mg407 2.291 . S
O416 C418 1.312 . S
O417 Mg402 2.031 . S
O417 C418 1.208 . S
C418 O416 1.312 . S
C418 O417 1.208 . S
C419 O411 1.331 . S
C419 O414 1.244 . S
O420 Mg405 2.013 . S
O420 C409 1.191 . S
O421 C400 1.331 . S
O421 Mg407 2.081 . S
O422 Mg403 1.986 . S
O422 C409 1.307 . S
O423 C401 1.264 . S
O423 Mg407 2.023 . S
O424 C400 1.244 . S
O424 Mg408 1.942 . S
O425 C401 1.273 . S
O425 Mg408 1.955 . S
O426 C399 1.312 . S
O426 Mg402 2.291 . S
O426 Mg405 2.114 . S
O427 C399 1.208 . S
O427 Mg407 2.031 . S
C428 O413 1.264 . S
C428 O415 1.273 . S
C429 O410 1.191 . S
C429 O412 1.307 . S
C430 O457 1.312 . S
C430 O458 1.208 . S
C431 O452 1.331 . S
C431 O455 1.244 . S
C432 O454 1.264 . S
C432 O456 1.273 . S
Mg433 O435 1.936 . S
Mg433 O442 2.081 . S
Mg433 O444 2.023 . S
Mg433 O448 2.031 . S
Mg433 O457 2.291 . S
Mg434 O435 1.963 . S
Mg434 O445 1.942 . S
Mg434 O446 1.955 . S
Mg434 O453 1.986 . S
O435 Mg433 1.936 . S
O435 Mg434 1.963 . S
O435 Mg436 1.915 . S
Mg436 O435 1.915 . S
Mg436 O437 1.915 . S
Mg436 O441 2.013 . S
Mg436 O447 2.114 . S
Mg436 O451 2.013 . S
Mg436 O457 2.114 . S
O437 Mg436 1.915 . S
O437 Mg438 1.936 . S
O437 Mg439 1.963 . S
Mg438 O437 1.936 . S
Mg438 O447 2.291 . S
Mg438 O452 2.081 . S
Mg438 O454 2.023 . S
Mg438 O458 2.031 . S
Mg439 O437 1.963 . S
Mg439 O443 1.986 . S
Mg439 O455 1.942 . S
Mg439 O456 1.955 . S
C440 O451 1.191 . S
C440 O453 1.307 . S
O441 Mg436 2.013 . S
O441 C460 1.191 . S
O442 Mg433 2.081 . S
O442 C450 1.331 . S
O443 Mg439 1.986 . S
O443 C460 1.307 . S
O444 Mg433 2.023 . S
O444 C459 1.264 . S
O445 Mg434 1.942 . S
O445 C450 1.244 . S
O446 Mg434 1.955 . S
O446 C459 1.273 . S
O447 Mg436 2.114 . S
O447 Mg438 2.291 . S
O447 C449 1.312 . S
O448 Mg433 2.031 . S
O448 C449 1.208 . S
C449 O447 1.312 . S
C449 O448 1.208 . S
C450 O442 1.331 . S
C450 O445 1.244 . S
O451 Mg436 2.013 . S
O451 C440 1.191 . S
O452 C431 1.331 . S
O452 Mg438 2.081 . S
O453 Mg434 1.986 . S
O453 C440 1.307 . S
O454 C432 1.264 . S
O454 Mg438 2.023 . S
O455 C431 1.244 . S
O455 Mg439 1.942 . S
O456 C432 1.273 . S
O456 Mg439 1.955 . S
O457 C430 1.312 . S
O457 Mg433 2.291 . S
O457 Mg436 2.114 . S
O458 C430 1.208 . S
O458 Mg438 2.031 . S
C459 O444 1.264 . S
C459 O446 1.273 . S
C460 O441 1.191 . S
C460 O443 1.307 . S
C461 O488 1.312 . S
C461 O489 1.208 . S
C462 O483 1.331 . S
C462 O486 1.244 . S
C463 O485 1.264 . S
C463 O487 1.273 . S
Mg464 O466 1.936 . S
Mg464 O473 2.081 . S
Mg464 O475 2.023 . S
Mg464 O479 2.031 . S
Mg464 O488 2.291 . S
Mg465 O466 1.963 1_655 S
Mg465 O476 1.942 . S
Mg465 O477 1.955 . S
Mg465 O484 1.986 . S
O466 Mg464 1.936 . S
O466 Mg465 1.963 1_455 S
O466 Mg467 1.915 . S
Mg467 O466 1.915 . S
Mg467 O468 1.915 . S
Mg467 O472 2.013 . S
Mg467 O478 2.114 . S
Mg467 O482 2.013 . S
Mg467 O488 2.114 . S
O468 Mg467 1.915 . S
O468 Mg469 1.936 . S
O468 Mg470 1.963 . S
Mg469 O468 1.936 . S
Mg469 O478 2.291 . S
Mg469 O483 2.081 . S
Mg469 O485 2.023 . S
Mg469 O489 2.031 . S
Mg470 O468 1.963 . S
Mg470 O474 1.986 . S
Mg470 O486 1.942 . S
Mg470 O487 1.955 . S
C471 O482 1.191 . S
C471 O484 1.307 1_455 S
O472 Mg467 2.013 . S
O472 C491 1.191 . S
O473 Mg464 2.081 . S
O473 C481 1.331 1_455 S
O474 Mg470 1.986 . S
O474 C491 1.307 . S
O475 Mg464 2.023 . S
O475 C490 1.264 1_455 S
O476 Mg465 1.942 . S
O476 C481 1.244 . S
O477 Mg465 1.955 . S
O477 C490 1.273 . S
O478 Mg467 2.114 . S
O478 Mg469 2.291 . S
O478 C480 1.312 . S
O479 Mg464 2.031 . S
O479 C480 1.208 . S
C480 O478 1.312 . S
C480 O479 1.208 . S
C481 O473 1.331 1_655 S
C481 O476 1.244 . S
O482 Mg467 2.013 . S
O482 C471 1.191 . S
O483 C462 1.331 . S
O483 Mg469 2.081 . S
O484 Mg465 1.986 . S
O484 C471 1.307 1_655 S
O485 C463 1.264 . S
O485 Mg469 2.023 . S
O486 C462 1.244 . S
O486 Mg470 1.942 . S
O487 C463 1.273 . S
O487 Mg470 1.955 . S
O488 C461 1.312 . S
O488 Mg464 2.291 . S
O488 Mg467 2.114 . S
O489 C461 1.208 . S
O489 Mg469 2.031 . S
C490 O475 1.264 1_655 S
C490 O477 1.273 . S
C491 O472 1.191 . S
C491 O474 1.307 . S
C492 C493 1.387 . S
C492 H496 0.950 . S
C492 C501 1.390 . S
C493 C492 1.387 . S
C493 C495 1.387 . S
H494 C501 0.950 . S
C495 C493 1.387 . S
C495 C497 1.390 . S
C495 H499 0.950 . S
H496 C492 0.950 . S
C497 C495 1.390 . S
C497 C498 1.387 . S
C497 H500 0.950 . S
C498 C497 1.387 . S
C498 C501 1.387 . S
H499 C495 0.950 . S
H500 C497 0.950 . S
C501 C492 1.390 . S
C501 H494 0.950 . S
C501 C498 1.387 . S
C502 C503 1.387 . S
C502 H506 0.950 . S
C502 C511 1.390 1_565 S
C503 C502 1.387 . S
C503 C505 1.387 . S
H504 C511 0.950 . S
C505 C503 1.387 . S
C505 C507 1.390 1_565 S
C505 H509 0.950 . S
H506 C502 0.950 . S
C507 C505 1.390 1_545 S
C507 C508 1.387 . S
C507 H510 0.950 . S
C508 C507 1.387 . S
C508 C511 1.387 . S
H509 C505 0.950 . S
H510 C507 0.950 . S
C511 C502 1.390 1_545 S
C511 H504 0.950 . S
C511 C508 1.387 . S
C512 C513 1.387 . S
C512 H516 0.950 . S
C512 C521 1.390 . S
C513 C512 1.387 . S
C513 C515 1.387 . S
H514 C521 0.950 . S
C515 C513 1.387 . S
C515 C517 1.390 . S
C515 H519 0.950 . S
H516 C512 0.950 . S
C517 C515 1.390 . S
C517 C518 1.387 . S
C517 H520 0.950 . S
C518 C517 1.387 . S
C518 C521 1.387 . S
H519 C515 0.950 . S
H520 C517 0.950 . S
C521 C512 1.390 . S
C521 H514 0.950 . S
C521 C518 1.387 . S
C522 C523 1.387 . S
C522 H526 0.950 . S
C522 C531 1.390 1_545 S
C523 C522 1.387 . S
C523 C525 1.387 . S
H524 C531 0.950 . S
C525 C523 1.387 . S
C525 C527 1.390 1_545 S
C525 H529 0.950 . S
H526 C522 0.950 . S
C527 C525 1.390 1_565 S
C527 C528 1.387 . S
C527 H530 0.950 . S
C528 C527 1.387 . S
C528 C531 1.387 . S
H529 C525 0.950 . S
H530 C527 0.950 . S
C531 C522 1.390 1_565 S
C531 H524 0.950 . S
C531 C528 1.387 . S
C532 C533 1.387 . S
C532 H536 0.950 . S
C532 C541 1.390 . S
C533 C532 1.387 . S
C533 C535 1.387 . S
H534 C541 0.950 . S
C535 C533 1.387 . S
C535 C537 1.390 . S
C535 H539 0.950 . S
H536 C532 0.950 . S
C537 C535 1.390 . S
C537 C538 1.387 . S
C537 H540 0.950 . S
C538 C537 1.387 . S
C538 C541 1.387 . S
H539 C535 0.950 . S
H540 C537 0.950 . S
C541 C532 1.390 . S
C541 H534 0.950 . S
C541 C538 1.387 . S
C542 C543 1.387 . S
C542 H546 0.950 . S
C542 C551 1.390 1_565 S
C543 C542 1.387 . S
C543 C545 1.387 . S
H544 C551 0.950 . S
C545 C543 1.387 . S
C545 C547 1.390 1_565 S
C545 H549 0.950 . S
H546 C542 0.950 . S
C547 C545 1.390 1_545 S
C547 C548 1.387 . S
C547 H550 0.950 . S
C548 C547 1.387 . S
C548 C551 1.387 . S
H549 C545 0.950 . S
H550 C547 0.950 . S
C551 C542 1.390 1_545 S
C551 H544 0.950 . S
C551 C548 1.387 . S
C552 C553 1.387 . S
C552 H556 0.950 . S
C552 C561 1.390 . S
C553 C552 1.387 . S
C553 C555 1.387 . S
H554 C561 0.950 . S
C555 C553 1.387 . S
C555 C557 1.390 . S
C555 H559 0.950 . S
H556 C552 0.950 . S
C557 C555 1.390 . S
C557 C558 1.387 . S
C557 H560 0.950 . S
C558 C557 1.387 . S
C558 C561 1.387 . S
H559 C555 0.950 . S
H560 C557 0.950 . S
C561 C552 1.390 . S
C561 H554 0.950 . S
C561 C558 1.387 . S
C562 C563 1.387 . S
C562 H566 0.950 . S
C562 C571 1.390 1_545 S
C563 C562 1.387 . S
C563 C565 1.387 . S
H564 C571 0.950 . S
C565 C563 1.387 . S
C565 C567 1.390 1_545 S
C565 H569 0.950 . S
H566 C562 0.950 . S
C567 C565 1.390 1_565 S
C567 C568 1.387 . S
C567 H570 0.950 . S
C568 C567 1.387 . S
C568 C571 1.387 . S
H569 C565 0.950 . S
H570 C567 0.950 . S
C571 C562 1.390 1_565 S
C571 H564 0.950 . S
C571 C568 1.387 . S
C572 C573 1.387 . S
C572 H576 0.950 . S
C572 C581 1.390 . S
C573 C572 1.387 . S
C573 C575 1.387 . S
H574 C581 0.950 . S
C575 C573 1.387 . S
C575 C577 1.390 . S
C575 H579 0.950 . S
H576 C572 0.950 . S
C577 C575 1.390 . S
C577 C578 1.387 . S
C577 H580 0.950 . S
C578 C577 1.387 . S
C578 C581 1.387 . S
H579 C575 0.950 . S
H580 C577 0.950 . S
C581 C572 1.390 . S
C581 H574 0.950 . S
C581 C578 1.387 . S
C582 C583 1.387 . S
C582 H586 0.950 . S
C582 C591 1.390 . S
C583 C582 1.387 . S
C583 C585 1.387 . S
H584 C591 0.950 . S
C585 C583 1.387 . S
C585 C587 1.390 . S
C585 H589 0.950 . S
H586 C582 0.950 . S
C587 C585 1.390 . S
C587 C588 1.387 . S
C587 H590 0.950 . S
C588 C587 1.387 . S
C588 C591 1.387 . S
H589 C585 0.950 . S
H590 C587 0.950 . S
C591 C582 1.390 . S
C591 H584 0.950 . S
C591 C588 1.387 . S
C592 C593 1.387 . S
C592 H596 0.950 . S
C592 C601 1.390 . S
C593 C592 1.387 . S
C593 C595 1.387 . S
H594 C601 0.950 . S
C595 C593 1.387 . S
C595 C597 1.390 . S
C595 H599 0.950 . S
H596 C592 0.950 . S
C597 C595 1.390 . S
C597 C598 1.387 . S
C597 H600 0.950 1_655 S
C598 C597 1.387 . S
C598 C601 1.387 . S
H599 C595 0.950 . S
H600 C597 0.950 1_455 S
C601 C592 1.390 . S
C601 H594 0.950 . S
C601 C598 1.387 . S
C602 C603 1.387 . S
C602 H606 0.950 . S
C602 C611 1.393 . S
C603 C602 1.387 . S
C603 C605 1.387 . S
H604 C611 0.946 1_455 S
C605 C603 1.387 . S
C605 C607 1.390 . S
C605 H609 0.950 . S
H606 C602 0.950 . S
C607 C605 1.390 . S
C607 C608 1.387 . S
C607 H610 0.950 . S
C608 C607 1.387 . S
C608 C611 1.388 . S
H609 C605 0.950 . S
H610 C607 0.950 . S
C611 C602 1.393 . S
C611 H604 0.946 1_655 S
C611 C608 1.388 . S
C612 C613 1.387 . S
C612 H616 0.950 . S
C612 C621 1.390 . S
C613 C612 1.387 . S
C613 C615 1.387 . S
H614 C621 0.950 . S
C615 C613 1.387 . S
C615 C617 1.390 . S
C615 H619 0.950 . S
H616 C612 0.950 . S
C617 C615 1.390 . S
C617 C618 1.387 . S
C617 H620 0.950 . S
C618 C617 1.387 . S
C618 C621 1.387 . S
H619 C615 0.950 . S
H620 C617 0.950 . S
C621 C612 1.390 . S
C621 H614 0.950 . S
C621 C618 1.387 . S
C622 C623 1.387 . S
C622 H626 0.950 . S
C622 C631 1.390 1_655 S
C623 C622 1.387 . S
C623 C625 1.387 . S
H624 C631 0.950 . S
C625 C623 1.387 . S
C625 C627 1.390 . S
C625 H629 0.950 . S
H626 C622 0.950 . S
C627 C625 1.390 . S
C627 C628 1.387 . S
C627 H630 0.950 . S
C628 C627 1.387 . S
C628 C631 1.387 1_655 S
H629 C625 0.950 . S
H630 C627 0.950 . S
C631 C622 1.390 1_455 S
C631 H624 0.950 . S
C631 C628 1.387 1_455 S
C632 C633 1.387 . S
C632 H636 0.950 . S
C632 C641 1.390 . S
C633 C632 1.387 . S
C633 C635 1.387 . S
H634 C641 0.950 . S
C635 C633 1.387 . S
C635 C637 1.390 . S
C635 H639 0.950 . S
H636 C632 0.950 . S
C637 C635 1.390 . S
C637 C638 1.387 . S
C637 H640 0.950 1_655 S
C638 C637 1.387 . S
C638 C641 1.387 . S
H639 C635 0.950 . S
H640 C637 0.950 1_455 S
C641 C632 1.390 . S
C641 H634 0.950 . S
C641 C638 1.387 . S
C642 C643 1.387 . S
C642 H646 0.950 . S
C642 C651 1.390 . S
C643 C642 1.387 . S
C643 C645 1.387 . S
H644 C651 0.950 . S
C645 C643 1.387 . S
C645 C647 1.390 . S
C645 H649 0.950 . S
H646 C642 0.950 . S
C647 C645 1.390 . S
C647 C648 1.387 . S
C647 H650 0.950 . S
C648 C647 1.387 . S
C648 C651 1.387 . S
H649 C645 0.950 . S
H650 C647 0.950 . S
C651 C642 1.390 . S
C651 H644 0.950 . S
C651 C648 1.387 . S
C652 C653 1.387 . S
C652 H656 0.950 . S
C652 C661 1.390 . S
C653 C652 1.387 . S
C653 C655 1.387 . S
H654 C661 0.950 . S
C655 C653 1.387 . S
C655 C657 1.390 . S
C655 H659 0.950 . S
H656 C652 0.950 . S
C657 C655 1.390 . S
C657 C658 1.387 . S
C657 H660 0.950 . S
C658 C657 1.387 . S
C658 C661 1.387 . S
H659 C655 0.950 . S
H660 C657 0.950 . S
C661 C652 1.390 . S
C661 H654 0.950 . S
C661 C658 1.387 . S
C662 C663 1.387 . S
C662 H666 0.950 . S
C662 C671 1.390 . S
C663 C662 1.387 . S
C663 C665 1.387 . S
H664 C671 0.950 . S
C665 C663 1.387 . S
C665 C667 1.390 . S
C665 H669 0.950 1_655 S
H666 C662 0.950 . S
C667 C665 1.390 . S
C667 C668 1.387 . S
C667 H670 0.950 1_655 S
C668 C667 1.387 . S
C668 C671 1.387 . S
H669 C665 0.950 1_455 S
H670 C667 0.950 1_455 S
C671 C662 1.390 . S
C671 H664 0.950 . S
C671 C668 1.387 . S
C672 C673 1.387 . S
C672 H676 0.950 . S
C672 C681 1.390 . S
C673 C672 1.387 . S
C673 C675 1.387 . S
H674 C681 0.950 . S
C675 C673 1.387 . S
C675 C677 1.390 . S
C675 H679 0.950 . S
H676 C672 0.950 . S
C677 C675 1.390 . S
C677 C678 1.387 . S
C677 H680 0.950 . S
C678 C677 1.387 . S
C678 C681 1.387 . S
H679 C675 0.950 . S
H680 C677 0.950 . S
C681 C672 1.390 . S
C681 H674 0.950 . S
C681 C678 1.387 . S
C682 C683 1.387 . S
C682 H686 0.950 . S
C682 C691 1.390 . S
C683 C682 1.387 . S
C683 C685 1.387 . S
H684 C691 0.950 . S
C685 C683 1.387 . S
C685 C687 1.390 . S
C685 H689 0.950 . S
H686 C682 0.950 . S
C687 C685 1.390 . S
C687 C688 1.387 . S
C687 H690 0.950 . S
C688 C687 1.387 . S
C688 C691 1.387 . S
H689 C685 0.950 . S
H690 C687 0.950 . S
C691 C682 1.390 . S
C691 H684 0.950 . S
C691 C688 1.387 . S
C692 C693 1.387 . S
C692 H696 0.950 . S
C692 C701 1.390 . S
C693 C692 1.387 . S
C693 C695 1.387 . S
H694 C701 0.950 . S
C695 C693 1.387 . S
C695 C697 1.390 . S
C695 H699 0.950 . S
H696 C692 0.950 . S
C697 C695 1.390 . S
C697 C698 1.387 . S
C697 H700 0.950 . S
C698 C697 1.387 . S
C698 C701 1.387 . S
H699 C695 0.950 . S
H700 C697 0.950 . S
C701 C692 1.390 . S
C701 H694 0.950 . S
C701 C698 1.387 . S
C702 C703 1.387 . S
C702 H706 0.950 . S
C702 C711 1.390 . S
C703 C702 1.387 . S
C703 C705 1.387 . S
H704 C711 0.950 . S
C705 C703 1.387 . S
C705 C707 1.390 . S
C705 H709 0.950 . S
H706 C702 0.950 . S
C707 C705 1.390 . S
C707 C708 1.387 . S
C707 H710 0.950 . S
C708 C707 1.387 . S
C708 C711 1.387 . S
H709 C705 0.950 . S
H710 C707 0.950 . S
C711 C702 1.390 . S
C711 H704 0.950 . S
C711 C708 1.387 . S
C712 C713 1.387 . S
C712 H716 0.950 . S
C712 C721 1.390 . S
C713 C712 1.387 . S
C713 C715 1.387 . S
H714 C721 0.950 . S
C715 C713 1.387 . S
C715 C717 1.390 . S
C715 H719 0.950 . S
H716 C712 0.950 . S
C717 C715 1.390 . S
C717 C718 1.387 . S
C717 H720 0.950 . S
C718 C717 1.387 . S
C718 C721 1.387 . S
H719 C715 0.950 . S
H720 C717 0.950 . S
C721 C712 1.390 . S
C721 H714 0.950 . S
C721 C718 1.387 . S
C722 C723 1.387 . S
C722 H726 0.950 1_655 S
C722 C731 1.390 . S
C723 C722 1.387 . S
C723 C725 1.387 . S
H724 C731 0.950 1_455 S
C725 C723 1.387 . S
C725 C727 1.390 . S
C725 H729 0.950 . S
H726 C722 0.950 1_455 S
C727 C725 1.390 . S
C727 C728 1.387 . S
C727 H730 0.950 . S
C728 C727 1.387 . S
C728 C731 1.387 . S
H729 C725 0.950 . S
H730 C727 0.950 . S
C731 C722 1.390 . S
C731 H724 0.950 1_655 S
C731 C728 1.387 . S
C732 C733 1.387 . S
C732 H736 0.950 . S
C732 C741 1.390 . S
C733 C732 1.387 . S
C733 C735 1.387 . S
H734 C741 0.950 . S
C735 C733 1.387 . S
C735 C737 1.390 . S
C735 H739 0.950 . S
H736 C732 0.950 . S
C737 C735 1.390 . S
C737 C738 1.387 . S
C737 H740 0.950 . S
C738 C737 1.387 . S
C738 C741 1.387 . S
H739 C735 0.950 . S
H740 C737 0.950 . S
C741 C732 1.390 . S
C741 H734 0.950 . S
C741 C738 1.387 . S
C742 C743 1.387 . S
C742 H746 0.950 . S
C742 C751 1.390 . S
C743 C742 1.387 . S
C743 C745 1.387 . S
H744 C751 0.950 . S
C745 C743 1.387 . S
C745 C747 1.390 . S
C745 H749 0.950 . S
H746 C742 0.950 . S
C747 C745 1.390 . S
C747 C748 1.387 . S
C747 H750 0.950 . S
C748 C747 1.387 . S
C748 C751 1.387 . S
H749 C745 0.950 . S
H750 C747 0.950 . S
C751 C742 1.390 . S
C751 H744 0.950 . S
C751 C748 1.387 . S
C752 C753 1.387 . S
C752 H756 0.950 . S
C752 C761 1.390 . S
C753 C752 1.387 . S
C753 C755 1.387 . S
H754 C761 0.950 . S
C755 C753 1.387 . S
C755 C757 1.390 . S
C755 H759 0.950 . S
H756 C752 0.950 . S
C757 C755 1.390 . S
C757 C758 1.387 . S
C757 H760 0.950 . S
C758 C757 1.387 . S
C758 C761 1.387 . S
H759 C755 0.950 . S
H760 C757 0.950 . S
C761 C752 1.390 . S
C761 H754 0.950 . S
C761 C758 1.387 . S
C762 C763 1.387 . S
C762 H766 0.950 . S
C762 C771 1.390 . S
C763 C762 1.387 . S
C763 C765 1.387 . S
H764 C771 0.950 . S
C765 C763 1.387 . S
C765 C767 1.390 . S
C765 H769 0.950 . S
H766 C762 0.950 . S
C767 C765 1.390 . S
C767 C768 1.387 . S
C767 H770 0.950 . S
C768 C767 1.387 . S
C768 C771 1.387 . S
H769 C765 0.950 . S
H770 C767 0.950 . S
C771 C762 1.390 . S
C771 H764 0.950 . S
C771 C768 1.387 . S
C772 C773 1.387 . S
C772 H776 0.950 . S
C772 C781 1.390 . S
C773 C772 1.387 . S
C773 C775 1.387 . S
H774 C781 0.950 . S
C775 C773 1.387 . S
C775 C777 1.390 . S
C775 H779 0.950 . S
H776 C772 0.950 . S
C777 C775 1.390 . S
C777 C778 1.387 . S
C777 H780 0.950 . S
C778 C777 1.387 . S
C778 C781 1.387 . S
H779 C775 0.950 . S
H780 C777 0.950 . S
C781 C772 1.390 . S
C781 H774 0.950 . S
C781 C778 1.387 . S
C782 C783 1.387 . S
C782 H786 0.950 . S
C782 C791 1.390 . S
C783 C782 1.387 . S
C783 C785 1.387 . S
H784 C791 0.950 . S
C785 C783 1.387 . S
C785 C787 1.390 . S
C785 H789 0.950 . S
H786 C782 0.950 . S
C787 C785 1.390 . S
C787 C788 1.387 . S
C787 H790 0.950 . S
C788 C787 1.387 . S
C788 C791 1.387 . S
H789 C785 0.950 . S
H790 C787 0.950 . S
C791 C782 1.390 . S
C791 H784 0.950 . S
C791 C788 1.387 . S
C792 C793 1.387 . S
C792 H796 0.950 . S
C792 C801 1.390 . S
C793 C792 1.387 . S
C793 C795 1.387 . S
H794 C801 0.950 . S
C795 C793 1.387 . S
C795 C797 1.390 . S
C795 H799 0.950 . S
H796 C792 0.950 . S
C797 C795 1.390 . S
C797 C798 1.387 . S
C797 H800 0.950 . S
C798 C797 1.387 . S
C798 C801 1.387 . S
H799 C795 0.950 . S
H800 C797 0.950 . S
C801 C792 1.390 . S
C801 H794 0.950 . S
C801 C798 1.387 . S
C802 C803 1.387 . S
C802 H806 0.950 . S
C802 C811 1.390 . S
C803 C802 1.387 . S
C803 C805 1.387 . S
H804 C811 0.950 . S
C805 C803 1.387 . S
C805 C807 1.390 . S
C805 H809 0.950 . S
H806 C802 0.950 . S
C807 C805 1.390 . S
C807 C808 1.387 . S
C807 H810 0.950 . S
C808 C807 1.387 . S
C808 C811 1.387 . S
H809 C805 0.950 . S
H810 C807 0.950 . S
C811 C802 1.390 . S
C811 H804 0.950 . S
C811 C808 1.387 . S
C498 C428 1.755 . S
C493 C1 1.821 . S
C503 C68 1.733 . S
C508 C431 1.705 . S
C513 C93 1.722 . S
C518 C462 1.682 . S
C528 C397 1.730 . S
C523 C139 1.799 . S
C538 C432 1.755 . S
C533 C8 1.820 . S
C548 C463 1.733 . S
C543 C61 1.791 . S
C558 C388 1.679 . S
C553 C100 1.721 . S
C568 C419 1.703 . S
C563 C146 1.742 . S
C573 C15 1.397 . S
C578 C449 1.327 . S
C583 C192 1.383 . S
C588 C418 1.314 . S
C593 C107 1.321 . S
C598 C378 1.313 1_655 S
C608 C471 1.328 1_655 S
C603 C238 1.332 . S
C618 C399 1.328 . S
C613 C22 1.398 . S
C623 C185 1.332 . S
C628 C398 1.328 1_655 S
C633 C114 1.320 . S
C638 C491 1.315 1_655 S
C648 C430 1.316 . S
C643 C231 1.383 . S
C653 C277 1.821 . S
C658 C490 1.759 . S
C663 C206 1.733 . S
C668 C369 1.705 . S
C673 C330 1.723 . S
C678 C400 1.682 . S
C683 C252 1.791 . S
C688 C459 1.731 . S
C698 C370 1.755 . S
C693 C284 1.819 . S
C703 C199 1.791 . S
C708 C401 1.733 . S
C713 C323 1.722 . S
C718 C450 1.679 . S
C728 C481 1.703 . S
C723 C245 1.733 . S
C733 C291 1.398 . S
C738 C387 1.323 . S
C743 C54 1.384 . S
C748 C480 1.314 . S
C753 C344 1.321 . S
C758 C440 1.314 . S
C768 C409 1.328 . S
C763 C153 1.333 . S
C778 C461 1.324 . S
C773 C298 1.399 . S
C788 C460 1.327 . S
C783 C47 1.333 . S
C798 C429 1.315 . S
C793 C337 1.319 . S
C808 C368 1.315 . S
C803 C160 1.385 . S
