# Generated by pormake.
# Topology anh, (6,3)-cn, num edge types: 1
# Building blocks:
#     Node 0, Type 0, BuildingBlock: HISSIN_clean_sbu_0, # of connection points: 6
#     Node 1, Type 0, BuildingBlock: HISSIN_clean_sbu_0, # of connection points: 6
#     Node 2, Type 0, BuildingBlock: HISSIN_clean_sbu_0, # of connection points: 6
#     Node 3, Type 1, BuildingBlock: ESEHIV_clean_linker_0, # of connection points: 3
#     Node 4, Type 1, BuildingBlock: ESEHIV_clean_linker_0, # of connection points: 3
#     Node 5, Type 1, BuildingBlock: ESEHIV_clean_linker_0, # of connection points: 3
#     Node 6, Type 1, BuildingBlock: ESEHIV_clean_linker_0, # of connection points: 3
#     Node 7, Type 1, BuildingBlock: ESEHIV_clean_linker_0, # of connection points: 3
#     Node 8, Type 1, BuildingBlock: ESEHIV_clean_linker_0, # of connection points: 3
#     Edge 9, Type (0, 1), BuildingBlock: XIVTED_clean_linker_0, # of connection points: 2
#     Edge 10, Type (0, 1), BuildingBlock: XIVTED_clean_linker_0, # of connection points: 2
#     Edge 11, Type (0, 1), BuildingBlock: XIVTED_clean_linker_0, # of connection points: 2
#     Edge 12, Type (0, 1), BuildingBlock: XIVTED_clean_linker_0, # of connection points: 2
#     Edge 13, Type (0, 1), BuildingBlock: XIVTED_clean_linker_0, # of connection points: 2
#     Edge 14, Type (0, 1), BuildingBlock: XIVTED_clean_linker_0, # of connection points: 2
#     Edge 15, Type (0, 1), BuildingBlock: XIVTED_clean_linker_0, # of connection points: 2
#     Edge 16, Type (0, 1), BuildingBlock: XIVTED_clean_linker_0, # of connection points: 2
#     Edge 17, Type (0, 1), BuildingBlock: XIVTED_clean_linker_0, # of connection points: 2
#     Edge 18, Type (0, 1), BuildingBlock: XIVTED_clean_linker_0, # of connection points: 2
#     Edge 19, Type (0, 1), BuildingBlock: XIVTED_clean_linker_0, # of connection points: 2
#     Edge 20, Type (0, 1), BuildingBlock: XIVTED_clean_linker_0, # of connection points: 2
#     Edge 21, Type (0, 1), BuildingBlock: XIVTED_clean_linker_0, # of connection points: 2
#     Edge 22, Type (0, 1), BuildingBlock: XIVTED_clean_linker_0, # of connection points: 2
#     Edge 23, Type (0, 1), BuildingBlock: XIVTED_clean_linker_0, # of connection points: 2
#     Edge 24, Type (0, 1), BuildingBlock: XIVTED_clean_linker_0, # of connection points: 2
#     Edge 25, Type (0, 1), BuildingBlock: XIVTED_clean_linker_0, # of connection points: 2
#     Edge 26, Type (0, 1), BuildingBlock: XIVTED_clean_linker_0, # of connection points: 2
# Relax obj value: 0.302
# Max RMSD: 0.197
# Mean RMSD: 0.163
data_MOF--net-anh--node1-HISSIN_clean_sbu_0--node2-ESEHIV_clean_linker_0--edge1-XIVTED_clean_linker_0
_symmetry_space_group_name_H-M    P1
_symmetry_Int_Tables_number       1
_symmetry_cell_setting            triclinic
loop_
_symmetry_equiv_pos_as_xyz
'x, y, z'
_cell_length_a     28.370651
_cell_length_b     28.460221
_cell_length_c     52.01491
_cell_angle_alpha  91.992209
_cell_angle_beta   89.936867
_cell_angle_gamma 120.08982
loop_
_atom_site_label
_atom_site_type_symbol
_atom_site_fract_x
_atom_site_fract_y
_atom_site_fract_z
_atom_type_partial_charge
Eu0 Eu 1.09183 0.48134 0.16109 0.0
Eu1 Eu 0.16205 0.60951 0.16821 0.0
C2 C 1.11475 0.53842 0.21819 0.0
C3 C 0.96376 0.35776 0.15045 0.0
C4 C 0.93024 0.32474 0.16978 0.0
C5 C 0.89613 0.38369 0.14069 0.0
C6 C 0.88245 0.32492 0.1759 0.0
C7 C 0.94429 0.38403 0.13473 0.0
C8 C 0.8672 0.35745 0.1625 0.0
C9 C 1.02291 0.37896 0.15269 0.0
O10 O 0.22834 0.58515 0.17083 0.0
O11 O 0.17885 0.4956 0.15677 0.0
C12 C 0.22634 0.53926 0.16301 0.0
O13 O 1.09709 0.51941 0.12268 0.0
O14 O 0.22306 0.68634 0.18652 0.0
O15 O 0.17627 0.68574 0.15324 0.0
O16 O 0.18291 0.58709 0.13028 0.0
C17 C 0.14432 0.55577 0.114 0.0
O18 O 1.02637 0.50521 0.16757 0.0
O19 O 1.07677 0.59219 0.15498 0.0
O20 O 0.12637 0.58376 0.20732 0.0
O21 O 1.05276 0.4102 0.13453 0.0
O22 O 1.04348 0.39973 0.17546 0.0
O23 O 1.10951 0.49646 0.20427 0.0
C24 C 0.267 0.7547 0.15637 0.0
C25 C 0.30733 0.7424 0.14895 0.0
C26 C 0.32071 0.84456 0.14001 0.0
C27 C 0.35532 0.78201 0.13798 0.0
C28 C 0.27315 0.80521 0.15109 0.0
C29 C 0.36314 0.83409 0.1341 0.0
C30 C 0.21746 0.71491 0.16887 0.0
C31 C 1.02871 0.54997 0.15994 0.0
H32 H 0.94418 0.30409 0.18213 0.0
H33 H 0.88477 0.40851 0.1299 0.0
H34 H 0.85978 0.30318 0.19245 0.0
H35 H 0.96906 0.40986 0.11961 0.0
H36 H 0.30238 0.70281 0.15231 0.0
H37 H 0.32558 0.88445 0.1378 0.0
H38 H 0.38722 0.77279 0.13361 0.0
H39 H 0.24185 0.81483 0.15628 0.0
Eu40 Eu 0.59552 1.00979 0.49113 0.0
Eu41 Eu 0.53612 1.07595 0.50697 0.0
C42 C 0.57761 1.03054 0.55034 0.0
C43 C 0.63727 0.90473 0.46772 0.0
C44 C 0.60631 0.8564 0.48063 0.0
C45 C 0.67368 0.85977 0.44062 0.0
C46 C 0.61225 0.8115 0.47487 0.0
C47 C 0.66828 0.90503 0.44665 0.0
C48 C 0.64921 0.81415 0.45606 0.0
C49 C 0.64551 0.95672 0.47865 0.0
O50 O 0.628 0.14171 0.50897 0.0
O51 O 0.66177 0.09735 0.4847 0.0
C52 C 0.66833 0.14274 0.49564 0.0
O53 O 0.55327 1.01297 0.4549 0.0
O54 O 0.51934 0.12172 0.53631 0.0
O55 O 0.48637 0.11228 0.49768 0.0
O56 O 0.55979 0.09376 0.46612 0.0
C57 C 0.55248 1.05676 0.44859 0.0
O58 O 0.50716 0.94146 0.49582 0.0
O59 O 0.46361 0.99116 0.49534 0.0
O60 O 0.5347 1.03137 0.54192 0.0
O61 O 0.6408 0.9893 0.46322 0.0
O62 O 0.62617 0.9567 0.50143 0.0
O63 O 0.61429 1.03408 0.53385 0.0
C64 C 0.535 0.20049 0.51728 0.0
C65 C 0.57065 0.22077 0.49645 0.0
C66 C 0.595 0.28248 0.54243 0.0
C67 C 0.6198 0.26975 0.49926 0.0
C68 C 0.54574 0.23358 0.53959 0.0
C69 C 0.63396 0.29898 0.52293 0.0
C70 C 0.50074 0.14132 0.51929 0.0
C71 C 0.46166 0.94352 0.49434 0.0
H72 H 0.58123 0.85467 0.4967 0.0
H73 H 0.70103 0.86256 0.42545 0.0
H74 H 0.59233 0.77727 0.48722 0.0
H75 H 0.69188 0.94172 0.43616 0.0
H76 H 0.56371 0.19609 0.479 0.0
H77 H 0.60433 0.30531 0.56063 0.0
H78 H 0.64879 0.28176 0.48383 0.0
H79 H 0.51909 0.21878 0.55592 0.0
Eu80 Eu 0.5723 0.5141 0.82448 0.0
Eu81 Eu 0.7025 0.57697 0.83103 0.0
C82 C 0.62996 0.54659 0.88139 0.0
C83 C 0.43679 0.49643 0.80957 0.0
C84 C 0.46293 0.54489 0.79623 0.0
C85 C 0.36367 0.51426 0.81988 0.0
C86 C 0.44072 0.57886 0.79565 0.0
C87 C 0.38593 0.48019 0.82042 0.0
C88 C 0.3923 0.5652 0.80862 0.0
C89 C 0.46762 0.47006 0.81695 0.0
O90 O 0.67999 0.48735 0.83447 0.0
O91 O 0.59168 0.44482 0.81894 0.0
C92 C 0.63541 0.44258 0.82598 0.0
O93 O 0.61075 0.55395 0.78708 0.0
O94 O 0.77827 0.62745 0.81141 0.0
O95 O 0.78036 0.60213 0.85014 0.0
O96 O 0.6768 0.53429 0.79264 0.0
C97 C 0.65028 0.54838 0.77739 0.0
O98 O 0.59243 0.6027 0.82948 0.0
O99 O 0.68412 0.64558 0.8223 0.0
O100 O 0.67465 0.58345 0.87076 0.0
O101 O 0.5 0.46781 0.79971 0.0
O102 O 0.49126 0.48619 0.83957 0.0
O103 O 0.58869 0.50987 0.86709 0.0
C104 C 0.85152 0.6878 0.83818 0.0
C105 C 0.84117 0.72257 0.85391 0.0
C106 C 0.94641 0.75737 0.83649 0.0
C107 C 0.8839 0.7741 0.86163 0.0
C108 C 0.90384 0.70607 0.82889 0.0
C109 C 0.93738 0.79143 0.85359 0.0
C110 C 0.80856 0.63233 0.83127 0.0
C111 C 0.6386 0.64748 0.82482 0.0
H112 H 0.50258 0.55857 0.78794 0.0
H113 H 0.32654 0.50278 0.83024 0.0
H114 H 0.46339 0.61758 0.7866 0.0
H115 H 0.36555 0.44331 0.83107 0.0
H116 H 0.8005 0.70923 0.86084 0.0
H117 H 0.98704 0.76862 0.83026 0.0
H118 H 0.87555 0.79941 0.87468 0.0
H119 H 0.91223 0.67985 0.81647 0.0
H120 H 0.51957 0.08244 0.24882 0.0
H121 H 0.56667 0.24217 0.28041 0.0
H122 H 0.57225 0.21469 0.19877 0.0
C123 C 0.53323 0.12498 0.24622 0.0
C124 C 0.54425 0.14496 0.22142 0.0
C125 C 0.54108 0.15957 0.26769 0.0
C126 C 0.55817 0.21461 0.26391 0.0
C127 C 0.56926 0.23526 0.23904 0.0
C128 C 0.56085 0.19941 0.21792 0.0
H129 H 0.78864 0.7083 0.59227 0.0
H130 H 0.87398 0.63056 0.61993 0.0
H131 H 0.85621 0.64306 0.5385 0.0
C132 C 0.81311 0.68937 0.58865 0.0
C133 C 0.82412 0.68056 0.56327 0.0
C134 C 0.83041 0.67078 0.60921 0.0
C135 C 0.86142 0.64549 0.60404 0.0
C136 C 0.86952 0.63276 0.57855 0.0
C137 C 0.85298 0.65342 0.55838 0.0
H138 H 0.20685 0.80993 0.96852 0.0
H139 H 0.28011 0.72231 0.93539 0.0
H140 H 0.25684 0.83091 0.88929 0.0
C141 C 0.22553 0.80135 0.95223 0.0
C142 C 0.23009 0.82635 0.92874 0.0
C143 C 0.24198 0.76269 0.95458 0.0
C144 C 0.26818 0.75289 0.93401 0.0
C145 C 0.27465 0.77855 0.91073 0.0
C146 C 0.25498 0.81451 0.90799 0.0
H147 H 0.99651 0.45927 0.41289 0.0
H148 H 0.14385 0.61406 0.41709 0.0
H149 H 1.06112 0.54133 0.48695 0.0
C150 C 1.02742 0.49312 0.42448 0.0
C151 C 1.02241 0.49327 0.45158 0.0
C152 C 1.07049 0.53638 0.41186 0.0
C153 C 1.11 0.5812 0.42668 0.0
C154 C 1.10795 0.58431 0.45365 0.0
C155 C 1.06342 0.5399 0.46618 0.0
H156 H 0.62303 0.10951 0.74738 0.0
H157 H 0.62998 0.96209 0.7461 0.0
H158 H 0.63892 1.04514 0.81875 0.0
C159 C 0.62624 1.07873 0.7577 0.0
C160 C 0.6311 0.08383 0.78472 0.0
C161 C 0.62607 1.03551 0.7436 0.0
C162 C 0.63097 0.99585 0.75692 0.0
C163 C 0.63537 0.99785 0.784 0.0
C164 C 0.63589 1.04277 0.79795 0.0
H165 H 0.5455 0.53573 0.08035 0.0
H166 H 0.70183 0.54676 0.0787 0.0
H167 H 0.62826 0.54514 0.15176 0.0
C168 C 0.57988 0.53803 0.09062 0.0
C169 C 0.58012 0.5395 0.11776 0.0
C170 C 0.62363 0.54137 0.07642 0.0
C171 C 0.66888 0.54563 0.08974 0.0
C172 C 0.6722 0.54703 0.11687 0.0
C173 C 0.62697 0.54396 0.13094 0.0
H174 H 0.24021 0.45499 0.14339 0.0
H175 H 0.57138 0.61457 0.15091 0.0
H176 H 0.33489 0.6198 0.17366 0.0
H177 H 0.47266 0.45898 0.11201 0.0
H178 H 0.48724 0.61479 0.16346 0.0
H179 H 0.32481 0.45368 0.13556 0.0
C180 C 0.2786 0.49098 0.14863 0.0
C181 C 0.27917 0.53753 0.15938 0.0
C182 C 0.48386 0.58017 0.1525 0.0
C183 C 0.37859 0.53624 0.15023 0.0
C184 C 0.5322 0.57971 0.14558 0.0
C185 C 0.52997 0.5362 0.13065 0.0
C186 C 0.43204 0.53671 0.14459 0.0
C187 C 0.47717 0.49317 0.12378 0.0
C188 C 0.3274 0.4902 0.14404 0.0
C189 C 0.33139 0.58269 0.16544 0.0
N190 N 0.43116 0.49458 0.13068 0.0
N191 N 0.37835 0.58088 0.16084 0.0
H192 H 0.755 0.15887 0.46556 0.0
H193 H 0.94675 0.48544 0.48911 0.0
H194 H 0.70675 0.24895 0.5166 0.0
H195 H 0.98489 0.38495 0.4397 0.0
H196 H 0.86223 0.40267 0.50155 0.0
H197 H 0.84003 0.24237 0.4578 0.0
C198 C 0.76195 0.19613 0.47529 0.0
C199 C 0.72217 0.19571 0.49176 0.0
C200 C 0.88925 0.39874 0.48809 0.0
C201 C 0.82238 0.29437 0.48261 0.0
C202 C 0.93815 0.44624 0.48113 0.0
C203 C 0.97402 0.44324 0.46309 0.0
C204 C 0.87547 0.3471 0.4771 0.0
C205 C 0.95913 0.39042 0.4534 0.0
C206 C 0.81116 0.24442 0.47074 0.0
C207 C 0.73519 0.24656 0.50354 0.0
N208 N 0.9118 0.34548 0.46034 0.0
N209 N 0.78358 0.29335 0.49874 0.0
H210 H 0.55113 0.66606 0.82427 0.0
H211 H 0.72534 0.9873 0.79461 0.0
H212 H 0.7256 0.75228 0.81687 0.0
H213 H 0.55058 0.89811 0.79819 0.0
H214 H 0.72715 0.90452 0.8056 0.0
H215 H 0.55096 0.75098 0.81724 0.0
C216 C 0.58962 0.70268 0.82131 0.0
C217 C 0.6385 0.70081 0.82129 0.0
C218 C 0.68832 0.90301 0.80443 0.0
C219 C 0.63842 0.80032 0.81308 0.0
C220 C 0.68732 0.9508 0.79844 0.0
C221 C 0.63783 0.95099 0.79624 0.0
C222 C 0.63933 0.85373 0.80802 0.0
C223 C 0.58991 0.90105 0.80041 0.0
C224 C 0.58939 0.75156 0.81723 0.0
C225 C 0.68669 0.7507 0.81714 0.0
N226 N 0.59188 0.85512 0.806 0.0
N227 N 0.68537 0.79769 0.81326 0.0
H228 H 1.01326 0.6255 0.13427 0.0
H229 H 0.68576 0.48381 0.15355 0.0
H230 H 0.92325 0.48007 0.17648 0.0
H231 H 0.77916 0.62039 0.10617 0.0
H232 H 0.77102 0.48534 0.16559 0.0
H233 H 0.92857 0.62699 0.12676 0.0
C234 C 0.97582 0.59376 0.14209 0.0
C235 C 0.97632 0.55222 0.15593 0.0
C236 C 0.77292 0.51516 0.15266 0.0
C237 C 0.87694 0.55377 0.1473 0.0
C238 C 0.72401 0.5148 0.14603 0.0
C239 C 0.72427 0.55221 0.12877 0.0
C240 C 0.82329 0.5532 0.14209 0.0
C241 C 0.77598 0.59055 0.11947 0.0
C242 C 0.92696 0.59457 0.13771 0.0
C243 C 0.92543 0.51251 0.16541 0.0
N244 N 0.82244 0.58986 0.12607 0.0
N245 N 0.87842 0.5142 0.16096 0.0
H246 H 0.3577 0.92764 0.48473 0.0
H247 H 0.20078 0.59748 0.47827 0.0
H248 H 0.43929 0.83651 0.49603 0.0
H249 H 0.12512 0.68879 0.45625 0.0
H250 H 0.28515 0.68355 0.48948 0.0
H251 H 0.27108 0.84155 0.4783 0.0
C252 C 0.35774 0.88977 0.48601 0.0
C253 C 0.40702 0.89047 0.49099 0.0
C254 C 0.24985 0.68496 0.48269 0.0
C255 C 0.30596 0.78983 0.48364 0.0
C256 C 0.20108 0.63546 0.47664 0.0
C257 C 0.15438 0.63503 0.46705 0.0
C258 C 0.25298 0.73543 0.47905 0.0
C259 C 0.15903 0.68643 0.46428 0.0
C260 C 0.30783 0.84021 0.48227 0.0
C261 C 0.40313 0.83901 0.49225 0.0
N262 N 0.20679 0.73387 0.47017 0.0
N263 N 0.35416 0.79151 0.48868 0.0
H264 H 0.71824 0.41897 0.83602 0.0
H265 H 0.54633 0.10434 0.784 0.0
H266 H 0.55169 0.34088 0.80868 0.0
H267 H 0.71186 0.17674 0.81177 0.0
H268 H 0.54706 0.18906 0.79543 0.0
H269 H 0.71673 0.33197 0.8294 0.0
C270 C 0.68113 0.38375 0.82875 0.0
C271 C 0.63498 0.38848 0.82301 0.0
C272 C 0.58316 0.18659 0.79947 0.0
C273 C 0.63309 0.28685 0.81519 0.0
C274 C 0.58256 0.13758 0.79317 0.0
C275 C 0.62861 0.13193 0.7974 0.0
C276 C 0.63055 0.2321 0.80994 0.0
C277 C 0.67476 0.17792 0.80867 0.0
C278 C 0.68038 0.33369 0.82493 0.0
C279 C 0.58849 0.34035 0.81352 0.0
N280 N 0.67462 0.2256 0.81434 0.0
N281 N 0.58888 0.29244 0.80994 0.0
H282 H 0.75523 0.83944 0.44933 0.0
H283 H 0.71616 0.64457 0.55718 0.0
H284 H 0.59678 0.70516 0.46709 0.0
H285 H 0.87025 0.73592 0.51981 0.0
H286 H 0.67097 0.65991 0.52119 0.0
H287 H 0.79734 0.79324 0.46869 0.0
C288 C 0.72885 0.79929 0.45638 0.0
C289 C 0.67211 0.77736 0.45754 0.0
C290 C 0.71458 0.67613 0.52065 0.0
C291 C 0.72088 0.72533 0.48082 0.0
C292 C 0.74041 0.66817 0.54137 0.0
C293 C 0.79704 0.69041 0.54165 0.0
C294 C 0.74576 0.70737 0.50027 0.0
C295 C 0.82656 0.71908 0.52041 0.0
C296 C 0.75328 0.77311 0.46778 0.0
C297 C 0.64078 0.7249 0.46687 0.0
N298 N 0.80067 0.72761 0.50071 0.0
N299 N 0.66564 0.70146 0.479 0.0
H300 H 1.03447 0.8665 0.8326 0.0
H301 H 0.25687 0.91216 0.89689 0.0
H302 H 0.94981 0.82383 0.9045 0.0
H303 H 0.13548 0.81058 0.95098 0.0
H304 H 0.19494 0.94214 0.88198 0.0
H305 H 0.12068 0.91133 0.85621 0.0
C306 C 1.034 0.86844 0.85343 0.0
C307 C 0.985 0.83867 0.86655 0.0
C308 C 0.18229 0.91389 0.89736 0.0
C309 C 1.0836 0.89031 0.89391 0.0
C310 C 0.21766 0.8966 0.90589 0.0
C311 C 0.20079 0.85677 0.92449 0.0
C312 C 0.12969 0.8909 0.90748 0.0
C313 C 0.15069 0.84057 0.93636 0.0
C314 C 1.08353 0.8945 0.86704 0.0
C315 C 0.98659 0.84458 0.89347 0.0
N316 N 1.11673 0.85691 0.92732 0.0
N317 N 1.0352 0.86813 0.90626 0.0
H318 H 0.39226 0.92094 0.10328 0.0
H319 H 0.58692 1.07769 0.21896 0.0
H320 H 0.4598 0.85481 0.15558 0.0
H321 H 0.49989 0.13449 0.17341 0.0
H322 H 0.57334 1.01147 0.18442 0.0
H323 H 0.4665 1.0121 0.11505 0.0
C324 C 0.42398 0.92541 0.11643 0.0
C325 C 0.41811 0.88073 0.12971 0.0
C326 C 0.55814 1.03913 0.18173 0.0
C327 C 0.50207 0.98423 0.14349 0.0
C328 C 0.56521 1.07635 0.20157 0.0
C329 C 0.54245 0.10988 0.19937 0.0
C330 C 0.52718 1.03475 0.15979 0.0
C331 C 0.51687 0.10834 0.17607 0.0
C332 C 0.46624 0.97749 0.12323 0.0
C333 C 0.46146 0.88836 0.14562 0.0
N334 N 0.50878 1.0704 0.15739 0.0
N335 N 0.50069 0.93949 0.15286 0.0
H336 H 0.70371 0.38175 0.49225 0.0
H337 H 0.85297 0.54807 0.6098 0.0
H338 H 0.69508 0.31219 0.56568 0.0
H339 H 0.90945 0.60737 0.53399 0.0
H340 H 0.8205 0.45743 0.59339 0.0
H341 H 0.79426 0.45725 0.50446 0.0
C342 C 0.72115 0.38211 0.51082 0.0
C343 C 0.69086 0.34228 0.52853 0.0
C344 C 0.84073 0.49022 0.58026 0.0
C345 C 0.79434 0.4278 0.54251 0.0
C346 C 0.86013 0.54314 0.58976 0.0
C347 C 0.87896 0.5861 0.57271 0.0
C348 C 0.83851 0.48015 0.55358 0.0
C349 C 0.88968 0.57516 0.5474 0.0
C350 C 0.77306 0.42489 0.51771 0.0
C351 C 0.71591 0.34373 0.55201 0.0
N352 N 0.86631 0.52289 0.53813 0.0
N353 N 0.76569 0.38634 0.55852 0.0
H354 H 0.46005 0.67084 0.82372 0.0
H355 H 0.21929 0.72208 0.8672 0.0
H356 H 0.29031 0.55487 0.80825 0.0
H357 H 0.37679 0.79469 0.90489 0.0
H358 H 0.25 0.6787 0.8348 0.0
H359 H 0.43449 0.73477 0.84189 0.0
C360 C 0.41747 0.65939 0.8234 0.0
C361 C 0.37722 0.60726 0.81457 0.0
C362 C 0.27813 0.70512 0.84984 0.0
C363 C 0.34766 0.67994 0.83595 0.0
C364 C 0.26082 0.73002 0.86814 0.0
C365 C 0.29579 0.76174 0.88856 0.0
C366 C 0.33084 0.71267 0.85198 0.0
C367 C 0.34887 0.77042 0.88935 0.0
C368 C 0.40291 0.69575 0.83406 0.0
C369 C 0.32255 0.59438 0.81518 0.0
N370 N 0.36476 0.74573 0.87137 0.0
N371 N 0.30926 0.63029 0.826 0.0
H372 H 0.77962 0.35566 0.13868 0.0
H373 H 0.65335 0.31302 0.26946 0.0
H374 H 0.86589 0.39229 0.2114 0.0
H375 H 0.56423 0.2951 0.19927 0.0
H376 H 0.73508 0.38283 0.25039 0.0
H377 H 0.70837 0.36697 0.15984 0.0
C378 C 0.78373 0.36668 0.15903 0.0
C379 C 0.82687 0.37021 0.17368 0.0
C380 C 0.69743 0.36486 0.23921 0.0
C381 C 0.74676 0.38428 0.19788 0.0
C382 C 0.65005 0.32519 0.25036 0.0
C383 C 0.60286 0.29461 0.23505 0.0
C384 C 0.69732 0.37191 0.21258 0.0
C385 C 0.60114 0.31486 0.211 0.0
C386 C 0.74347 0.37368 0.17108 0.0
C387 C 0.83161 0.38641 0.19974 0.0
N388 N 0.64858 0.35004 0.19977 0.0
N389 N 0.79161 0.39194 0.21109 0.0
H390 H 0.23806 0.59141 0.0883 0.0
H391 H 0.14306 0.71345 0.97773 0.0
H392 H 1.07193 0.55472 0.07875 0.0
H393 H 0.30276 0.73029 0.98189 0.0
H394 H 1.11486 0.65219 0.0135 0.0
H395 H 0.26022 0.63596 0.04731 0.0
C396 C 0.20594 0.59171 0.07717 0.0
C397 C 0.15319 0.56964 0.08682 0.0
C398 C 0.15602 0.66914 0.00656 0.0
C399 C 0.17853 0.62199 0.04028 0.0
C400 C 0.17239 0.7047 0.98637 0.0
C401 C 0.22564 0.72763 0.97708 0.0
C402 C 0.1932 0.65656 0.01765 0.0
C403 C 0.26142 0.71364 0.98851 0.0
C404 C 0.21866 0.61743 0.05385 0.0
C405 C 1.11301 0.57105 0.07181 0.0
N406 N 0.24464 0.67927 0.0083 0.0
N407 N 0.12675 0.59777 0.0494 0.0
H408 H 0.52383 0.1285 0.43194 0.0
H409 H 0.57433 0.09033 0.28441 0.0
H410 H 0.56212 1.00702 0.40411 0.0
H411 H 0.50027 0.18329 0.31113 0.0
H412 H 0.57056 1.05945 0.32782 0.0
H413 H 0.51573 0.14926 0.38779 0.0
C414 C 0.53039 0.10599 0.41649 0.0
C415 C 0.54412 1.0662 0.4217 0.0
C416 C 0.55467 0.08618 0.32415 0.0
C417 C 0.53504 0.09011 0.37095 0.0
C418 C 0.55646 0.10367 0.2993 0.0
C419 C 0.53717 0.13928 0.29399 0.0
C420 C 0.5341 0.10489 0.34401 0.0
C421 C 0.51604 0.1563 0.31433 0.0
C422 C 0.52553 0.1178 0.39125 0.0
C423 C 0.55155 1.03803 0.40091 0.0
N424 N 0.51529 0.13913 0.33846 0.0
N425 N 0.54742 1.05091 0.37638 0.0
H426 H 0.60956 0.58264 0.73848 0.0
H427 H 0.88072 0.68707 0.65647 0.0
H428 H 0.74646 0.56384 0.75918 0.0
H429 H 0.72598 0.64459 0.62112 0.0
H430 H 0.83622 0.66267 0.69805 0.0
H431 H 0.65535 0.62292 0.69807 0.0
C432 C 0.64892 0.58674 0.73452 0.0
C433 C 0.67397 0.56948 0.75214 0.0
C434 C 0.81223 0.65941 0.68119 0.0
C435 C 0.72683 0.61665 0.70674 0.0
C436 C 0.83763 0.6734 0.65748 0.0
C437 C 0.80709 0.66734 0.63517 0.0
C438 C 0.7559 0.6394 0.68267 0.0
C439 C 0.75141 0.65036 0.63778 0.0
C440 C 0.67505 0.60989 0.71161 0.0
C441 C 0.72524 0.57614 0.74617 0.0
N442 N 0.72746 0.63645 0.66106 0.0
N443 N 0.74996 0.59937 0.72411 0.0
H444 H 0.51326 1.03386 0.58861 0.0
H445 H 0.68141 1.01046 0.70674 0.0
H446 H 0.65804 1.02267 0.57713 0.0
H447 H 0.55476 1.05137 0.7147 0.0
H448 H 0.67038 1.00727 0.65965 0.0
H449 H 0.52484 1.03288 0.63483 0.0
C450 C 0.54754 1.03099 0.59574 0.0
C451 C 0.58475 1.02839 0.57869 0.0
C452 C 0.64507 1.01695 0.67174 0.0
C453 C 0.59832 1.02725 0.63235 0.0
C454 C 0.6511 1.01847 0.69864 0.0
C455 C 0.6192 1.03154 0.71485 0.0
C456 C 0.60638 1.02794 0.66088 0.0
C457 C 0.58087 1.0419 0.70313 0.0
C458 C 0.5542 1.03058 0.62232 0.0
C459 C 0.62834 1.02483 0.58943 0.0
N460 N 0.57556 1.03979 0.67704 0.0
N461 N 0.6339 1.02431 0.61554 0.0
H462 H 0.71017 0.61324 0.91631 0.0
H463 H 0.53761 0.47893 0.04254 0.0
H464 H 0.5448 0.479 0.91249 0.0
H465 H 0.70717 0.60369 0.044 0.0
H466 H 0.53743 0.48002 0.99538 0.0
H467 H 0.70768 0.61178 0.9631 0.0
C468 C 0.67312 0.5834 0.92524 0.0
C469 C 0.62759 0.54612 0.91016 0.0
C470 C 0.57468 0.5071 0.00603 0.0
C471 C 0.62457 0.54428 0.9644 0.0
C472 C 0.57478 0.50675 0.03303 0.0
C473 C 0.62255 0.5412 0.0475 0.0
C474 C 0.62261 0.54241 0.9932 0.0
C475 C 0.66953 0.57581 0.03385 0.0
C476 C 0.67182 0.58258 0.95212 0.0
C477 C 0.58094 0.50853 0.92317 0.0
N478 N 0.66829 0.57556 0.00765 0.0
N479 N 0.58063 0.50859 0.94946 0.0
H480 H 1.0854 0.45105 0.24935 0.0
H481 H 1.09898 0.62008 0.37919 0.0
H482 H 0.12698 0.61927 0.25247 0.0
H483 H 1.0516 0.4504 0.37846 0.0
H484 H 1.10941 0.61935 0.33266 0.0
H485 H 1.07296 0.44879 0.2962 0.0
C486 C 1.09202 0.48751 0.25979 0.0
C487 C 1.10738 0.53544 0.24673 0.0
C488 C 1.09667 0.58214 0.34258 0.0
C489 C 1.09306 0.53307 0.30052 0.0
C490 C 1.09093 0.5826 0.3693 0.0
C491 C 1.07466 0.53532 0.38304 0.0
C492 C 1.08623 0.53406 0.32912 0.0
C493 C 1.06384 0.48778 0.36881 0.0
C494 C 1.08481 0.48615 0.28658 0.0
C495 C 1.11516 0.58129 0.26147 0.0
N496 N 1.07001 0.48842 0.34273 0.0
N497 N 1.108 0.57893 0.28737 0.0
loop_
_geom_bond_atom_site_label_1
_geom_bond_atom_site_label_2
_geom_bond_distance
_geom_bond_site_symmetry_2
_ccdc_geom_bond_type
Eu0 C9 2.828 . S
Eu0 O11 2.392 1_655 S
Eu0 O13 2.418 . S
Eu0 O18 2.373 . S
Eu0 O21 2.488 . S
Eu0 O22 2.471 . S
Eu0 O23 2.349 . S
Eu1 O10 2.373 . S
Eu1 O14 2.488 . S
Eu1 O15 2.471 . S
Eu1 O16 2.349 . S
Eu1 O19 2.392 1_455 S
Eu1 O20 2.418 . S
Eu1 C30 2.828 . S
C2 O20 1.244 . S
C2 O23 1.265 1_455 S
C3 C4 1.379 . S
C3 C7 1.373 . S
C3 C9 1.505 . S
C4 C3 1.379 . S
C4 C6 1.369 . S
C4 H32 0.930 . S
C5 C7 1.383 . S
C5 C8 1.382 . S
C5 H33 0.930 . S
C6 C4 1.369 . S
C6 C8 1.392 . S
C6 H34 0.930 . S
C7 C3 1.373 . S
C7 C5 1.383 . S
C7 H35 0.931 . S
C8 C5 1.382 . S
C8 C6 1.392 . S
C9 Eu0 2.828 . S
C9 C3 1.505 . S
C9 O21 1.249 . S
C9 O22 1.244 . S
O10 Eu1 2.373 . S
O10 C12 1.258 . S
O11 Eu0 2.392 1_455 S
O11 C12 1.242 . S
C12 O10 1.258 . S
C12 O11 1.242 . S
O13 Eu0 2.418 . S
O13 C17 1.247 . S
O14 Eu1 2.488 . S
O14 C30 1.249 . S
O15 Eu1 2.471 . S
O15 C30 1.244 . S
O16 Eu1 2.349 . S
O16 C17 1.263 1_455 S
C17 O13 1.247 . S
C17 O16 1.263 1_655 S
O18 Eu0 2.373 . S
O18 C31 1.258 . S
O19 Eu1 2.392 1_655 S
O19 C31 1.242 . S
O20 Eu1 2.418 . S
O20 C2 1.244 . S
O21 Eu0 2.488 . S
O21 C9 1.249 . S
O22 Eu0 2.471 . S
O22 C9 1.244 . S
O23 Eu0 2.349 . S
O23 C2 1.265 1_655 S
C24 C25 1.379 . S
C24 C28 1.373 . S
C24 C30 1.505 . S
C25 C24 1.379 . S
C25 C27 1.369 . S
C25 H36 0.930 . S
C26 C28 1.383 . S
C26 C29 1.382 . S
C26 H37 0.930 . S
C27 C25 1.369 . S
C27 C29 1.392 . S
C27 H38 0.930 . S
C28 C24 1.373 . S
C28 C26 1.383 . S
C28 H39 0.931 . S
C29 C26 1.382 . S
C29 C27 1.392 . S
C30 Eu1 2.828 . S
C30 O14 1.249 . S
C30 O15 1.244 . S
C30 C24 1.505 . S
C31 O18 1.258 . S
C31 O19 1.242 . S
H32 C4 0.930 . S
H33 C5 0.930 . S
H34 C6 0.930 . S
H35 C7 0.931 . S
H36 C25 0.930 . S
H37 C26 0.930 . S
H38 C27 0.930 . S
H39 C28 0.931 . S
Eu40 C49 2.828 . S
Eu40 O51 2.392 1_565 S
Eu40 O53 2.418 . S
Eu40 O58 2.373 . S
Eu40 O61 2.488 . S
Eu40 O62 2.471 . S
Eu40 O63 2.349 . S
Eu41 O50 2.373 . S
Eu41 O54 2.488 . S
Eu41 O55 2.471 . S
Eu41 O56 2.349 . S
Eu41 O59 2.392 1_545 S
Eu41 O60 2.418 . S
Eu41 C70 2.828 . S
C42 O60 1.244 . S
C42 O63 1.265 1_545 S
C43 C44 1.379 . S
C43 C47 1.373 . S
C43 C49 1.505 . S
C44 C43 1.379 . S
C44 C46 1.369 . S
C44 H72 0.930 . S
C45 C47 1.383 . S
C45 C48 1.382 . S
C45 H73 0.930 . S
C46 C44 1.369 . S
C46 C48 1.392 . S
C46 H74 0.930 . S
C47 C43 1.373 . S
C47 C45 1.383 . S
C47 H75 0.931 . S
C48 C45 1.382 . S
C48 C46 1.392 . S
C49 Eu40 2.828 . S
C49 C43 1.505 . S
C49 O61 1.249 . S
C49 O62 1.244 . S
O50 Eu41 2.373 . S
O50 C52 1.258 . S
O51 Eu40 2.392 1_545 S
O51 C52 1.242 . S
C52 O50 1.258 . S
C52 O51 1.242 . S
O53 Eu40 2.418 . S
O53 C57 1.244 1_565 S
O54 Eu41 2.488 . S
O54 C70 1.249 . S
O55 Eu41 2.471 . S
O55 C70 1.244 . S
O56 Eu41 2.349 . S
O56 C57 1.265 . S
C57 O53 1.244 1_545 S
C57 O56 1.265 . S
O58 Eu40 2.373 . S
O58 C71 1.258 . S
O59 Eu41 2.392 1_565 S
O59 C71 1.242 . S
O60 Eu41 2.418 . S
O60 C42 1.244 . S
O61 Eu40 2.488 . S
O61 C49 1.249 . S
O62 Eu40 2.471 . S
O62 C49 1.244 . S
O63 Eu40 2.349 . S
O63 C42 1.265 1_565 S
C64 C65 1.379 . S
C64 C68 1.373 . S
C64 C70 1.505 . S
C65 C64 1.379 . S
C65 C67 1.369 . S
C65 H76 0.930 . S
C66 C68 1.383 . S
C66 C69 1.382 . S
C66 H77 0.930 . S
C67 C65 1.369 . S
C67 C69 1.392 . S
C67 H78 0.930 . S
C68 C64 1.373 . S
C68 C66 1.383 . S
C68 H79 0.931 . S
C69 C66 1.382 . S
C69 C67 1.392 . S
C70 Eu41 2.828 . S
C70 O54 1.249 . S
C70 O55 1.244 . S
C70 C64 1.505 . S
C71 O58 1.258 . S
C71 O59 1.242 . S
H72 C44 0.930 . S
H73 C45 0.930 . S
H74 C46 0.930 . S
H75 C47 0.931 . S
H76 C65 0.930 . S
H77 C66 0.930 . S
H78 C67 0.930 . S
H79 C68 0.931 . S
Eu80 C89 2.828 . S
Eu80 O91 2.392 . S
Eu80 O93 2.418 . S
Eu80 O98 2.373 . S
Eu80 O101 2.488 . S
Eu80 O102 2.471 . S
Eu80 O103 2.349 . S
Eu81 O90 2.373 . S
Eu81 O94 2.488 . S
Eu81 O95 2.471 . S
Eu81 O96 2.349 . S
Eu81 O99 2.392 . S
Eu81 O100 2.418 . S
Eu81 C110 2.828 . S
C82 O100 1.244 . S
C82 O103 1.265 . S
C83 C84 1.379 . S
C83 C87 1.373 . S
C83 C89 1.505 . S
C84 C83 1.379 . S
C84 C86 1.369 . S
C84 H112 0.930 . S
C85 C87 1.383 . S
C85 C88 1.382 . S
C85 H113 0.930 . S
C86 C84 1.369 . S
C86 C88 1.392 . S
C86 H114 0.930 . S
C87 C83 1.373 . S
C87 C85 1.383 . S
C87 H115 0.931 . S
C88 C85 1.382 . S
C88 C86 1.392 . S
C89 Eu80 2.828 . S
C89 C83 1.505 . S
C89 O101 1.249 . S
C89 O102 1.244 . S
O90 Eu81 2.373 . S
O90 C92 1.258 . S
O91 Eu80 2.392 . S
O91 C92 1.242 . S
C92 O90 1.258 . S
C92 O91 1.242 . S
O93 Eu80 2.418 . S
O93 C97 1.244 . S
O94 Eu81 2.488 . S
O94 C110 1.249 . S
O95 Eu81 2.471 . S
O95 C110 1.244 . S
O96 Eu81 2.349 . S
O96 C97 1.265 . S
C97 O93 1.244 . S
C97 O96 1.265 . S
O98 Eu80 2.373 . S
O98 C111 1.258 . S
O99 Eu81 2.392 . S
O99 C111 1.242 . S
O100 Eu81 2.418 . S
O100 C82 1.244 . S
O101 Eu80 2.488 . S
O101 C89 1.249 . S
O102 Eu80 2.471 . S
O102 C89 1.244 . S
O103 Eu80 2.349 . S
O103 C82 1.265 . S
C104 C105 1.379 . S
C104 C108 1.373 . S
C104 C110 1.505 . S
C105 C104 1.379 . S
C105 C107 1.369 . S
C105 H116 0.930 . S
C106 C108 1.383 . S
C106 C109 1.382 . S
C106 H117 0.930 . S
C107 C105 1.369 . S
C107 C109 1.392 . S
C107 H118 0.930 . S
C108 C104 1.373 . S
C108 C106 1.383 . S
C108 H119 0.931 . S
C109 C106 1.382 . S
C109 C107 1.392 . S
C110 Eu81 2.828 . S
C110 O94 1.249 . S
C110 O95 1.244 . S
C110 C104 1.505 . S
C111 O98 1.258 . S
C111 O99 1.242 . S
H112 C84 0.930 . S
H113 C85 0.930 . S
H114 C86 0.930 . S
H115 C87 0.931 . S
H116 C105 0.930 . S
H117 C106 0.930 . S
H118 C107 0.930 . S
H119 C108 0.931 . S
H120 C123 0.931 . S
H121 C126 0.928 . S
H122 C128 0.930 . S
C123 H120 0.931 . S
C123 C124 1.413 . S
C123 C125 1.360 1_565 S
C124 C123 1.413 . S
C124 C128 1.429 1_565 S
C125 C123 1.360 1_545 S
C125 C126 1.372 . S
C126 H121 0.928 . S
C126 C125 1.372 . S
C126 C127 1.404 . S
C127 C126 1.404 . S
C127 C128 1.391 . S
C128 H122 0.930 . S
C128 C124 1.429 1_545 S
C128 C127 1.391 . S
H129 C132 0.931 . S
H130 C135 0.928 . S
H131 C137 0.930 . S
C132 H129 0.931 . S
C132 C133 1.413 . S
C132 C134 1.360 . S
C133 C132 1.413 . S
C133 C137 1.429 . S
C134 C132 1.360 . S
C134 C135 1.372 . S
C135 H130 0.928 . S
C135 C134 1.372 . S
C135 C136 1.404 . S
C136 C135 1.404 . S
C136 C137 1.391 . S
C137 H131 0.930 . S
C137 C133 1.429 . S
C137 C136 1.391 . S
H138 C141 0.931 1_655 S
H139 C144 0.928 . S
H140 C146 0.930 . S
C141 H138 0.931 1_455 S
C141 C142 1.413 . S
C141 C143 1.360 . S
C142 C141 1.413 . S
C142 C146 1.429 . S
C143 C141 1.360 . S
C143 C144 1.372 . S
C144 H139 0.928 . S
C144 C143 1.372 . S
C144 C145 1.404 . S
C145 C144 1.404 . S
C145 C146 1.391 . S
C146 H140 0.930 . S
C146 C142 1.429 . S
C146 C145 1.391 . S
H147 C150 0.931 . S
H148 C153 0.928 . S
H149 C155 0.930 . S
C150 H147 0.931 . S
C150 C151 1.413 . S
C150 C152 1.360 1_655 S
C151 C150 1.413 . S
C151 C155 1.429 1_655 S
C152 C150 1.360 1_455 S
C152 C153 1.372 . S
C153 H148 0.928 . S
C153 C152 1.372 . S
C153 C154 1.404 . S
C154 C153 1.404 . S
C154 C155 1.391 . S
C155 H149 0.930 . S
C155 C151 1.429 1_455 S
C155 C154 1.391 . S
H156 C159 0.931 . S
H157 C162 0.928 . S
H158 C164 0.930 . S
C159 H156 0.931 . S
C159 C160 1.413 . S
C159 C161 1.360 . S
C160 C159 1.413 . S
C160 C164 1.429 . S
C161 C159 1.360 . S
C161 C162 1.372 1_545 S
C162 H157 0.928 . S
C162 C161 1.372 1_565 S
C162 C163 1.404 . S
C163 C162 1.404 . S
C163 C164 1.391 1_565 S
C164 H158 0.930 . S
C164 C160 1.429 . S
C164 C163 1.391 1_545 S
H165 C168 0.931 . S
H166 C171 0.928 . S
H167 C173 0.930 . S
C168 H165 0.931 . S
C168 C169 1.413 . S
C168 C170 1.360 . S
C169 C168 1.413 . S
C169 C173 1.429 . S
C170 C168 1.360 . S
C170 C171 1.372 . S
C171 H166 0.928 . S
C171 C170 1.372 . S
C171 C172 1.404 . S
C172 C171 1.404 . S
C172 C173 1.391 . S
C173 H167 0.930 . S
C173 C169 1.429 . S
C173 C172 1.391 . S
H174 C180 0.930 . S
H175 C184 0.930 . S
H176 C189 0.929 . S
H177 C187 0.929 . S
H178 C182 0.929 . S
H179 C188 0.929 . S
C180 H174 0.930 . S
C180 C181 1.367 . S
C180 C188 1.378 . S
C181 C180 1.367 . S
C181 C189 1.433 . S
C182 H178 0.929 . S
C182 C184 1.378 . S
C182 C186 1.350 . S
C183 C186 1.463 . S
C183 C188 1.350 . S
C183 N191 1.427 . S
C184 H175 0.930 . S
C184 C182 1.378 . S
C184 C185 1.367 . S
C185 C184 1.367 . S
C185 C187 1.433 . S
C186 C182 1.350 . S
C186 C183 1.463 . S
C186 N190 1.427 . S
C187 H177 0.929 . S
C187 C185 1.433 . S
C187 N190 1.384 . S
C188 H179 0.929 . S
C188 C180 1.378 . S
C188 C183 1.350 . S
C189 H176 0.929 . S
C189 C181 1.433 . S
C189 N191 1.384 . S
N190 C186 1.427 . S
N190 C187 1.384 . S
N191 C183 1.427 . S
N191 C189 1.384 . S
H192 C198 0.930 . S
H193 C202 0.930 . S
H194 C207 0.929 . S
H195 C205 0.929 . S
H196 C200 0.929 . S
H197 C206 0.929 . S
C198 H192 0.930 . S
C198 C199 1.367 . S
C198 C206 1.378 . S
C199 C198 1.367 . S
C199 C207 1.433 . S
C200 H196 0.929 . S
C200 C202 1.378 . S
C200 C204 1.350 . S
C201 C204 1.463 . S
C201 C206 1.350 . S
C201 N209 1.427 . S
C202 H193 0.930 . S
C202 C200 1.378 . S
C202 C203 1.367 . S
C203 C202 1.367 . S
C203 C205 1.433 . S
C204 C200 1.350 . S
C204 C201 1.463 . S
C204 N208 1.427 . S
C205 H195 0.929 . S
C205 C203 1.433 . S
C205 N208 1.384 . S
C206 H197 0.929 . S
C206 C198 1.378 . S
C206 C201 1.350 . S
C207 H194 0.929 . S
C207 C199 1.433 . S
C207 N209 1.384 . S
N208 C204 1.427 . S
N208 C205 1.384 . S
N209 C201 1.427 . S
N209 C207 1.384 . S
H210 C216 0.930 . S
H211 C220 0.930 . S
H212 C225 0.929 . S
H213 C223 0.929 . S
H214 C218 0.929 . S
H215 C224 0.929 . S
C216 H210 0.930 . S
C216 C217 1.367 . S
C216 C224 1.378 . S
C217 C216 1.367 . S
C217 C225 1.433 . S
C218 H214 0.929 . S
C218 C220 1.378 . S
C218 C222 1.350 . S
C219 C222 1.463 . S
C219 C224 1.350 . S
C219 N227 1.427 . S
C220 H211 0.930 . S
C220 C218 1.378 . S
C220 C221 1.367 . S
C221 C220 1.367 . S
C221 C223 1.433 . S
C222 C218 1.350 . S
C222 C219 1.463 . S
C222 N226 1.427 . S
C223 H213 0.929 . S
C223 C221 1.433 . S
C223 N226 1.384 . S
C224 H215 0.929 . S
C224 C216 1.378 . S
C224 C219 1.350 . S
C225 H212 0.929 . S
C225 C217 1.433 . S
C225 N227 1.384 . S
N226 C222 1.427 . S
N226 C223 1.384 . S
N227 C219 1.427 . S
N227 C225 1.384 . S
H228 C234 0.930 . S
H229 C238 0.930 . S
H230 C243 0.929 . S
H231 C241 0.929 . S
H232 C236 0.929 . S
H233 C242 0.929 . S
C234 H228 0.930 . S
C234 C235 1.367 . S
C234 C242 1.378 . S
C235 C234 1.367 . S
C235 C243 1.433 . S
C236 H232 0.929 . S
C236 C238 1.378 . S
C236 C240 1.350 . S
C237 C240 1.463 . S
C237 C242 1.350 . S
C237 N245 1.427 . S
C238 H229 0.930 . S
C238 C236 1.378 . S
C238 C239 1.367 . S
C239 C238 1.367 . S
C239 C241 1.433 . S
C240 C236 1.350 . S
C240 C237 1.463 . S
C240 N244 1.427 . S
C241 H231 0.929 . S
C241 C239 1.433 . S
C241 N244 1.384 . S
C242 H233 0.929 . S
C242 C234 1.378 . S
C242 C237 1.350 . S
C243 H230 0.929 . S
C243 C235 1.433 . S
C243 N245 1.384 . S
N244 C240 1.427 . S
N244 C241 1.384 . S
N245 C237 1.427 . S
N245 C243 1.384 . S
H246 C252 0.930 . S
H247 C256 0.930 . S
H248 C261 0.929 . S
H249 C259 0.929 . S
H250 C254 0.929 . S
H251 C260 0.929 . S
C252 H246 0.930 . S
C252 C253 1.367 . S
C252 C260 1.378 . S
C253 C252 1.367 . S
C253 C261 1.433 . S
C254 H250 0.929 . S
C254 C256 1.378 . S
C254 C258 1.350 . S
C255 C258 1.463 . S
C255 C260 1.350 . S
C255 N263 1.427 . S
C256 H247 0.930 . S
C256 C254 1.378 . S
C256 C257 1.367 . S
C257 C256 1.367 . S
C257 C259 1.433 . S
C258 C254 1.350 . S
C258 C255 1.463 . S
C258 N262 1.427 . S
C259 H249 0.929 . S
C259 C257 1.433 . S
C259 N262 1.384 . S
C260 H251 0.929 . S
C260 C252 1.378 . S
C260 C255 1.350 . S
C261 H248 0.929 . S
C261 C253 1.433 . S
C261 N263 1.384 . S
N262 C258 1.427 . S
N262 C259 1.384 . S
N263 C255 1.427 . S
N263 C261 1.384 . S
H264 C270 0.930 . S
H265 C274 0.930 . S
H266 C279 0.929 . S
H267 C277 0.929 . S
H268 C272 0.929 . S
H269 C278 0.929 . S
C270 H264 0.930 . S
C270 C271 1.367 . S
C270 C278 1.378 . S
C271 C270 1.367 . S
C271 C279 1.433 . S
C272 H268 0.929 . S
C272 C274 1.378 . S
C272 C276 1.350 . S
C273 C276 1.463 . S
C273 C278 1.350 . S
C273 N281 1.427 . S
C274 H265 0.930 . S
C274 C272 1.378 . S
C274 C275 1.367 . S
C275 C274 1.367 . S
C275 C277 1.433 . S
C276 C272 1.350 . S
C276 C273 1.463 . S
C276 N280 1.427 . S
C277 H267 0.929 . S
C277 C275 1.433 . S
C277 N280 1.384 . S
C278 H269 0.929 . S
C278 C270 1.378 . S
C278 C273 1.350 . S
C279 H266 0.929 . S
C279 C271 1.433 . S
C279 N281 1.384 . S
N280 C276 1.427 . S
N280 C277 1.384 . S
N281 C273 1.427 . S
N281 C279 1.384 . S
H282 C288 0.930 . S
H283 C292 0.930 . S
H284 C297 0.929 . S
H285 C295 0.929 . S
H286 C290 0.929 . S
H287 C296 0.929 . S
C288 H282 0.930 . S
C288 C289 1.367 . S
C288 C296 1.378 . S
C289 C288 1.367 . S
C289 C297 1.433 . S
C290 H286 0.929 . S
C290 C292 1.378 . S
C290 C294 1.350 . S
C291 C294 1.463 . S
C291 C296 1.350 . S
C291 N299 1.427 . S
C292 H283 0.930 . S
C292 C290 1.378 . S
C292 C293 1.367 . S
C293 C292 1.367 . S
C293 C295 1.433 . S
C294 C290 1.350 . S
C294 C291 1.463 . S
C294 N298 1.427 . S
C295 H285 0.929 . S
C295 C293 1.433 . S
C295 N298 1.384 . S
C296 H287 0.929 . S
C296 C288 1.378 . S
C296 C291 1.350 . S
C297 H284 0.929 . S
C297 C289 1.433 . S
C297 N299 1.384 . S
N298 C294 1.427 . S
N298 C295 1.384 . S
N299 C291 1.427 . S
N299 C297 1.384 . S
H300 C306 0.930 . S
H301 C310 0.930 1_455 S
H302 C315 0.929 . S
H303 C313 0.929 . S
H304 C308 0.929 . S
H305 C314 0.929 . S
C306 H300 0.930 . S
C306 C307 1.367 . S
C306 C314 1.378 . S
C307 C306 1.367 . S
C307 C315 1.433 . S
C308 H304 0.929 . S
C308 C310 1.378 . S
C308 C312 1.350 . S
C309 C312 1.463 . S
C309 C314 1.350 . S
C309 N317 1.427 . S
C310 H301 0.930 1_655 S
C310 C308 1.378 . S
C310 C311 1.367 . S
C311 C310 1.367 . S
C311 C313 1.433 . S
C312 C308 1.350 . S
C312 C309 1.463 . S
C312 N316 1.427 . S
C313 H303 0.929 . S
C313 C311 1.433 . S
C313 N316 1.384 . S
C314 H305 0.929 . S
C314 C306 1.378 . S
C314 C309 1.350 . S
C315 H302 0.929 . S
C315 C307 1.433 . S
C315 N317 1.384 . S
N316 C312 1.427 . S
N316 C313 1.384 . S
N317 C309 1.427 . S
N317 C315 1.384 . S
H318 C324 0.930 . S
H319 C328 0.930 . S
H320 C333 0.929 . S
H321 C331 0.929 1_545 S
H322 C326 0.929 . S
H323 C332 0.929 . S
C324 H318 0.930 . S
C324 C325 1.367 . S
C324 C332 1.378 . S
C325 C324 1.367 . S
C325 C333 1.433 . S
C326 H322 0.929 . S
C326 C328 1.378 . S
C326 C330 1.350 . S
C327 C330 1.463 . S
C327 C332 1.350 . S
C327 N335 1.427 . S
C328 H319 0.930 . S
C328 C326 1.378 . S
C328 C329 1.367 . S
C329 C328 1.367 . S
C329 C331 1.433 . S
C330 C326 1.350 . S
C330 C327 1.463 . S
C330 N334 1.427 . S
C331 H321 0.929 1_565 S
C331 C329 1.433 . S
C331 N334 1.384 . S
C332 H323 0.929 . S
C332 C324 1.378 . S
C332 C327 1.350 . S
C333 H320 0.929 . S
C333 C325 1.433 . S
C333 N335 1.384 . S
N334 C330 1.427 . S
N334 C331 1.384 . S
N335 C327 1.427 . S
N335 C333 1.384 . S
H336 C342 0.930 . S
H337 C346 0.930 . S
H338 C351 0.929 . S
H339 C349 0.929 . S
H340 C344 0.929 . S
H341 C350 0.929 . S
C342 H336 0.930 . S
C342 C343 1.367 . S
C342 C350 1.378 . S
C343 C342 1.367 . S
C343 C351 1.433 . S
C344 H340 0.929 . S
C344 C346 1.378 . S
C344 C348 1.350 . S
C345 C348 1.463 . S
C345 C350 1.350 . S
C345 N353 1.427 . S
C346 H337 0.930 . S
C346 C344 1.378 . S
C346 C347 1.367 . S
C347 C346 1.367 . S
C347 C349 1.433 . S
C348 C344 1.350 . S
C348 C345 1.463 . S
C348 N352 1.427 . S
C349 H339 0.929 . S
C349 C347 1.433 . S
C349 N352 1.384 . S
C350 H341 0.929 . S
C350 C342 1.378 . S
C350 C345 1.350 . S
C351 H338 0.929 . S
C351 C343 1.433 . S
C351 N353 1.384 . S
N352 C348 1.427 . S
N352 C349 1.384 . S
N353 C345 1.427 . S
N353 C351 1.384 . S
H354 C360 0.930 . S
H355 C364 0.930 . S
H356 C369 0.929 . S
H357 C367 0.929 . S
H358 C362 0.929 . S
H359 C368 0.929 . S
C360 H354 0.930 . S
C360 C361 1.367 . S
C360 C368 1.378 . S
C361 C360 1.367 . S
C361 C369 1.433 . S
C362 H358 0.929 . S
C362 C364 1.378 . S
C362 C366 1.350 . S
C363 C366 1.463 . S
C363 C368 1.350 . S
C363 N371 1.427 . S
C364 H355 0.930 . S
C364 C362 1.378 . S
C364 C365 1.367 . S
C365 C364 1.367 . S
C365 C367 1.433 . S
C366 C362 1.350 . S
C366 C363 1.463 . S
C366 N370 1.427 . S
C367 H357 0.929 . S
C367 C365 1.433 . S
C367 N370 1.384 . S
C368 H359 0.929 . S
C368 C360 1.378 . S
C368 C363 1.350 . S
C369 H356 0.929 . S
C369 C361 1.433 . S
C369 N371 1.384 . S
N370 C366 1.427 . S
N370 C367 1.384 . S
N371 C363 1.427 . S
N371 C369 1.384 . S
H372 C378 0.930 . S
H373 C382 0.930 . S
H374 C387 0.929 . S
H375 C385 0.929 . S
H376 C380 0.929 . S
H377 C386 0.929 . S
C378 H372 0.930 . S
C378 C379 1.367 . S
C378 C386 1.378 . S
C379 C378 1.367 . S
C379 C387 1.433 . S
C380 H376 0.929 . S
C380 C382 1.378 . S
C380 C384 1.350 . S
C381 C384 1.463 . S
C381 C386 1.350 . S
C381 N389 1.427 . S
C382 H373 0.930 . S
C382 C380 1.378 . S
C382 C383 1.367 . S
C383 C382 1.367 . S
C383 C385 1.433 . S
C384 C380 1.350 . S
C384 C381 1.463 . S
C384 N388 1.427 . S
C385 H375 0.929 . S
C385 C383 1.433 . S
C385 N388 1.384 . S
C386 H377 0.929 . S
C386 C378 1.378 . S
C386 C381 1.350 . S
C387 H374 0.929 . S
C387 C379 1.433 . S
C387 N389 1.384 . S
N388 C384 1.427 . S
N388 C385 1.384 . S
N389 C381 1.427 . S
N389 C387 1.384 . S
H390 C396 0.930 . S
H391 C400 0.930 . S
H392 C405 0.929 . S
H393 C403 0.929 . S
H394 C398 0.914 1_554 S
H395 C404 0.929 . S
C396 H390 0.930 . S
C396 C397 1.367 . S
C396 C404 1.378 . S
C397 C396 1.367 . S
C397 C405 1.433 1_455 S
C398 H394 0.914 1_556 S
C398 C400 1.418 . S
C398 C402 1.325 1_656 S
C399 C402 1.463 . S
C399 C404 1.350 . S
C399 N407 1.427 1_455 S
C400 H391 0.930 . S
C400 C398 1.418 . S
C400 C401 1.367 1_655 S
C401 C400 1.367 1_455 S
C401 C403 1.433 . S
C402 C398 1.325 1_454 S
C402 C399 1.463 . S
C402 N406 1.427 . S
C403 H393 0.929 . S
C403 C401 1.433 . S
C403 N406 1.384 1_556 S
C404 H395 0.929 . S
C404 C396 1.378 . S
C404 C399 1.350 . S
C405 H392 0.929 . S
C405 C397 1.433 1_655 S
C405 N407 1.384 . S
N406 C402 1.427 . S
N406 C403 1.384 1_554 S
N407 C399 1.427 1_655 S
N407 C405 1.384 . S
H408 C414 0.930 . S
H409 C418 0.930 . S
H410 C423 0.929 . S
H411 C421 0.929 . S
H412 C416 0.929 . S
H413 C422 0.929 . S
C414 H408 0.930 . S
C414 C415 1.367 . S
C414 C422 1.378 . S
C415 C414 1.367 . S
C415 C423 1.433 1_545 S
C416 H412 0.929 . S
C416 C418 1.378 . S
C416 C420 1.350 1_565 S
C417 C420 1.463 . S
C417 C422 1.350 . S
C417 N425 1.427 1_545 S
C418 H409 0.930 . S
C418 C416 1.378 . S
C418 C419 1.367 1_565 S
C419 C418 1.367 1_545 S
C419 C421 1.433 . S
C420 C416 1.350 1_545 S
C420 C417 1.463 . S
C420 N424 1.427 . S
C421 H411 0.929 . S
C421 C419 1.433 . S
C421 N424 1.384 . S
C422 H413 0.929 . S
C422 C414 1.378 . S
C422 C417 1.350 . S
C423 H410 0.929 . S
C423 C415 1.433 1_565 S
C423 N425 1.384 . S
N424 C420 1.427 . S
N424 C421 1.384 . S
N425 C417 1.427 1_565 S
N425 C423 1.384 . S
H426 C432 0.930 . S
H427 C436 0.930 . S
H428 C441 0.929 . S
H429 C439 0.929 . S
H430 C434 0.929 . S
H431 C440 0.929 . S
C432 H426 0.930 . S
C432 C433 1.367 . S
C432 C440 1.378 . S
C433 C432 1.367 . S
C433 C441 1.433 . S
C434 H430 0.929 . S
C434 C436 1.378 . S
C434 C438 1.350 . S
C435 C438 1.463 . S
C435 C440 1.350 . S
C435 N443 1.427 . S
C436 H427 0.930 . S
C436 C434 1.378 . S
C436 C437 1.367 . S
C437 C436 1.367 . S
C437 C439 1.433 . S
C438 C434 1.350 . S
C438 C435 1.463 . S
C438 N442 1.427 . S
C439 H429 0.929 . S
C439 C437 1.433 . S
C439 N442 1.384 . S
C440 H431 0.929 . S
C440 C432 1.378 . S
C440 C435 1.350 . S
C441 H428 0.929 . S
C441 C433 1.433 . S
C441 N443 1.384 . S
N442 C438 1.427 . S
N442 C439 1.384 . S
N443 C435 1.427 . S
N443 C441 1.384 . S
H444 C450 0.930 . S
H445 C454 0.930 . S
H446 C459 0.929 . S
H447 C457 0.929 . S
H448 C452 0.929 . S
H449 C458 0.929 . S
C450 H444 0.930 . S
C450 C451 1.367 . S
C450 C458 1.378 . S
C451 C450 1.367 . S
C451 C459 1.433 1_545 S
C452 H448 0.929 . S
C452 C454 1.378 . S
C452 C456 1.350 1_565 S
C453 C456 1.463 . S
C453 C458 1.350 . S
C453 N461 1.427 1_545 S
C454 H445 0.930 . S
C454 C452 1.378 . S
C454 C455 1.367 1_565 S
C455 C454 1.367 1_545 S
C455 C457 1.433 . S
C456 C452 1.350 1_545 S
C456 C453 1.463 . S
C456 N460 1.427 . S
C457 H447 0.929 . S
C457 C455 1.433 . S
C457 N460 1.384 . S
C458 H449 0.929 . S
C458 C450 1.378 . S
C458 C453 1.350 . S
C459 H446 0.929 . S
C459 C451 1.433 1_565 S
C459 N461 1.384 . S
N460 C456 1.427 . S
N460 C457 1.384 . S
N461 C453 1.427 1_565 S
N461 C459 1.384 . S
H462 C468 0.930 . S
H463 C472 0.930 . S
H464 C477 0.929 . S
H465 C475 0.929 . S
H466 C470 0.929 1_556 S
H467 C476 0.929 . S
C468 H462 0.930 . S
C468 C469 1.367 . S
C468 C476 1.378 . S
C469 C468 1.367 . S
C469 C477 1.433 . S
C470 H466 0.929 1_554 S
C470 C472 1.378 . S
C470 C474 1.350 1_554 S
C471 C474 1.463 . S
C471 C476 1.350 . S
C471 N479 1.427 . S
C472 H463 0.930 . S
C472 C470 1.378 . S
C472 C473 1.367 . S
C473 C472 1.367 . S
C473 C475 1.433 . S
C474 C470 1.350 1_556 S
C474 C471 1.463 . S
C474 N478 1.427 1_556 S
C475 H465 0.929 . S
C475 C473 1.433 . S
C475 N478 1.384 . S
C476 H467 0.929 . S
C476 C468 1.378 . S
C476 C471 1.350 . S
C477 H464 0.929 . S
C477 C469 1.433 . S
C477 N479 1.384 . S
N478 C474 1.427 1_554 S
N478 C475 1.384 . S
N479 C471 1.427 . S
N479 C477 1.384 . S
H480 C486 0.930 . S
H481 C490 0.930 . S
H482 C495 0.929 . S
H483 C493 0.929 . S
H484 C488 0.929 . S
H485 C494 0.929 . S
C486 H480 0.930 . S
C486 C487 1.367 1_655 S
C486 C494 1.378 . S
C487 C486 1.367 1_455 S
C487 C495 1.433 . S
C488 H484 0.929 . S
C488 C490 1.378 . S
C488 C492 1.350 . S
C489 C492 1.463 . S
C489 C494 1.350 1_455 S
C489 N497 1.427 . S
C490 H481 0.930 . S
C490 C488 1.378 . S
C490 C491 1.367 . S
C491 C490 1.367 . S
C491 C493 1.433 . S
C492 C488 1.350 . S
C492 C489 1.463 . S
C492 N496 1.427 . S
C493 H483 0.929 . S
C493 C491 1.433 . S
C493 N496 1.384 . S
C494 H485 0.929 . S
C494 C486 1.378 . S
C494 C489 1.350 1_655 S
C495 H482 0.929 . S
C495 C487 1.433 . S
C495 N497 1.384 . S
N496 C492 1.427 . S
N496 C493 1.384 . S
N497 C489 1.427 . S
N497 C495 1.384 . S
C181 C12 2.864 . S
C185 C169 2.849 . S
C199 C52 2.876 . S
C203 C151 2.864 . S
C217 C111 2.890 . S
C221 C163 2.867 . S
C235 C31 2.984 . S
C239 C172 2.948 . S
C257 C154 2.934 . S
C253 C71 2.975 . S
C275 C160 2.924 . S
C271 C92 2.953 . S
C289 C48 0.577 . S
C293 C133 0.537 . S
C307 C109 0.685 . S
C311 C142 0.637 1_655 S
C325 C29 0.647 . S
C329 C124 0.582 . S
C347 C136 0.518 . S
C343 C69 0.620 . S
C365 C145 0.417 . S
C361 C88 0.457 . S
C379 C8 0.496 . S
C383 C127 0.418 . S
C401 C143 1.017 . S
C397 C17 1.011 1_455 S
C415 C57 1.004 . S
C419 C125 1.013 . S
C433 C97 1.004 . S
C437 C134 1.026 . S
C455 C161 1.809 . S
C451 C42 1.734 . S
C473 C170 1.804 . S
C469 C82 1.747 . S
C487 C2 1.758 . S
C491 C152 1.808 . S
