# Generated by pormake.
# Topology tsx, (6,3)-cn, num edge types: 1
# Building blocks:
#     Node 0, Type 0, BuildingBlock: FUNLAD_clean_sbu_0, # of connection points: 6
#     Node 1, Type 0, BuildingBlock: FUNLAD_clean_sbu_0, # of connection points: 6
#     Node 2, Type 1, BuildingBlock: KAKCAD_clean_linker_0, # of connection points: 3
#     Node 3, Type 1, BuildingBlock: KAKCAD_clean_linker_0, # of connection points: 3
#     Node 4, Type 1, BuildingBlock: KAKCAD_clean_linker_0, # of connection points: 3
#     Node 5, Type 1, BuildingBlock: KAKCAD_clean_linker_0, # of connection points: 3
#     Edge 6, Type (0, 1), BuildingBlock: AJUNOK_clean_linker_0, # of connection points: 2
#     Edge 7, Type (0, 1), BuildingBlock: AJUNOK_clean_linker_0, # of connection points: 2
#     Edge 8, Type (0, 1), BuildingBlock: AJUNOK_clean_linker_0, # of connection points: 2
#     Edge 9, Type (0, 1), BuildingBlock: AJUNOK_clean_linker_0, # of connection points: 2
#     Edge 10, Type (0, 1), BuildingBlock: AJUNOK_clean_linker_0, # of connection points: 2
#     Edge 11, Type (0, 1), BuildingBlock: AJUNOK_clean_linker_0, # of connection points: 2
#     Edge 12, Type (0, 1), BuildingBlock: AJUNOK_clean_linker_0, # of connection points: 2
#     Edge 13, Type (0, 1), BuildingBlock: AJUNOK_clean_linker_0, # of connection points: 2
#     Edge 14, Type (0, 1), BuildingBlock: AJUNOK_clean_linker_0, # of connection points: 2
#     Edge 15, Type (0, 1), BuildingBlock: AJUNOK_clean_linker_0, # of connection points: 2
#     Edge 16, Type (0, 1), BuildingBlock: AJUNOK_clean_linker_0, # of connection points: 2
#     Edge 17, Type (0, 1), BuildingBlock: AJUNOK_clean_linker_0, # of connection points: 2
# Relax obj value: 0.164
# Max RMSD: 0.154
# Mean RMSD: 0.080
data_MOF--net-tsx--node1-FUNLAD_clean_sbu_0--node2-KAKCAD_clean_linker_0--edge1-AJUNOK_clean_linker_0
_symmetry_space_group_name_H-M    P1
_symmetry_Int_Tables_number       1
_symmetry_cell_setting            triclinic
loop_
_symmetry_equiv_pos_as_xyz
'x, y, z'
_cell_length_a     18.066351
_cell_length_b     20.116631
_cell_length_c     41.188487
_cell_angle_alpha  91.383326
_cell_angle_beta   92.098648
_cell_angle_gamma 89.844277
loop_
_atom_site_label
_atom_site_type_symbol
_atom_site_fract_x
_atom_site_fract_y
_atom_site_fract_z
_atom_type_partial_charge
C0 C 0.9174 0.90279 -0.00439 0.0
N1 N 0.01641 0.99241 0.07818 0.0
C2 C 0.94702 0.99175 0.08994 0.0
C3 C 0.93698 0.991 0.12331 0.0
C4 C 0.99892 0.99152 0.14486 0.0
C5 C 0.07 0.99157 0.13213 0.0
C6 C 0.07754 0.99212 0.09849 0.0
Zn7 Zn 0.0261 0.99441 0.02905 0.0
C8 C 0.13024 0.89488 0.00351 0.0
N9 N 0.03823 0.00104 0.92642 0.0
C10 C 0.97609 0.0054 0.90691 0.0
C11 C 0.10679 -0.00162 0.91383 0.0
C12 C 0.11484 0.0004 0.88034 0.0
C13 C 0.05174 0.00553 0.85969 0.0
C14 C 0.98163 0.0076 0.87326 0.0
Zn15 Zn 0.02961 -0.00106 0.97546 0.0
O16 O 0.94513 0.91998 0.02326 0.0
C17 C 0.92181 0.09533 -0.00094 0.0
O18 O 0.9408 0.92899 0.97017 0.0
H19 H 0.1554 0.99461 0.92981 0.0
H20 H 0.89916 0.99168 0.07339 0.0
H21 H 0.92217 0.00743 0.91747 0.0
O22 O 0.94087 0.06999 0.02614 0.0
O23 O 0.95358 0.0757 0.97364 0.0
H24 H 0.13216 0.99254 0.08858 0.0
O25 O 0.11714 0.07008 0.98148 0.0
O26 O 0.10798 0.06857 0.03436 0.0
O27 O 0.10501 0.9202 0.97744 0.0
O28 O 0.10957 0.91818 0.03072 0.0
C29 C 0.13819 0.09145 0.00962 0.0
H30 H 0.88129 0.98934 0.13213 0.0
H31 H 0.11909 0.9919 0.14804 0.0
H32 H 0.16975 0.99733 0.87069 0.0
H33 H 0.93174 0.01161 0.85802 0.0
C34 C 0.41954 0.42161 0.49406 0.0
N35 N 0.51544 0.51868 0.57548 0.0
C36 C 0.44854 0.51788 0.58962 0.0
C37 C 0.4446 0.5135 0.62331 0.0
C38 C 0.51011 0.5098 0.6426 0.0
C39 C 0.57835 0.51238 0.62743 0.0
C40 C 0.57976 0.51655 0.59368 0.0
Zn41 Zn 0.52022 0.52037 0.52596 0.0
C42 C 0.6338 0.42277 0.50132 0.0
N43 N 0.53391 0.52116 0.42302 0.0
C44 C 0.46903 0.51587 0.40532 0.0
C45 C 0.59915 0.53153 0.40844 0.0
C46 C 0.60041 0.53856 0.3748 0.0
C47 C 0.53397 0.53465 0.35607 0.0
C48 C 0.4679 0.52188 0.37168 0.0
Zn49 Zn 0.53037 0.51867 0.4724 0.0
O50 O 0.43651 0.44873 0.52141 0.0
C51 C 0.41438 0.61408 0.49549 0.0
O52 O 0.45178 0.43924 0.46877 0.0
H53 H 0.65011 0.5355 0.42297 0.0
H54 H 0.39807 0.51972 0.5747 0.0
H55 H 0.41775 0.50782 0.41736 0.0
O56 O 0.43741 0.5971 0.52368 0.0
O57 O 0.44403 0.58798 0.47083 0.0
H58 H 0.63234 0.51751 0.58197 0.0
O59 O 0.60863 0.59731 0.47687 0.0
O60 O 0.60479 0.59287 0.52989 0.0
O61 O 0.61637 0.44901 0.47437 0.0
O62 O 0.60151 0.44181 0.5269 0.0
C63 C 0.63157 0.61787 0.50483 0.0
H64 H 0.3909 0.51164 0.63411 0.0
H65 H 0.63014 0.51123 0.64151 0.0
H66 H 0.65257 0.54814 0.36365 0.0
H67 H 0.41577 0.51649 0.35806 0.0
C68 C 0.94873 0.91954 0.29869 0.0
C69 C 0.96042 0.98107 0.28429 0.0
C70 C 0.94291 0.91571 0.33234 0.0
C71 C 0.94863 0.97337 0.35222 0.0
C72 C 0.9598 0.03493 0.33775 0.0
C73 C 0.96595 0.0387 0.30416 0.0
C74 C 0.94705 0.96927 0.38809 0.0
C75 C 0.98895 0.92066 0.40438 0.0
C76 C 0.99453 0.92069 0.4385 0.0
C77 C 0.95724 0.96986 0.45627 0.0
C78 C 0.91335 0.01748 0.44039 0.0
C79 C 0.90821 0.01678 0.40632 0.0
C80 C 0.87559 0.07053 0.4589 0.0
C81 C 0.91691 0.11698 0.47798 0.0
C82 C 0.79876 0.07906 0.45477 0.0
C83 C 0.76411 0.1348 0.46826 0.0
C84 C 0.80599 0.18345 0.48558 0.0
C85 C 0.0439 0.87204 0.455 0.0
C86 C 0.04278 0.80499 0.44473 0.0
C87 C 0.09786 0.8934 0.47842 0.0
C88 C 0.15354 0.84977 0.48919 0.0
C89 C 0.1559 0.78436 0.47662 0.0
C90 C 0.09819 0.76152 0.4555 0.0
C91 C 0.8824 0.1735 0.49099 0.0
H92 H 0.94401 0.8744 0.2839 0.0
H93 H 0.93396 0.86765 0.34283 0.0
H94 H 0.96605 0.08002 0.3525 0.0
H95 H 0.97683 0.08654 0.29383 0.0
H96 H 0.02065 0.88489 0.39048 0.0
H97 H 0.87544 0.05445 0.39401 0.0
H98 H 0.96192 0.97072 0.48236 0.0
H99 H 0.97638 0.11148 0.48125 0.0
H100 H 0.766 0.04373 0.44013 0.0
H101 H 0.70522 0.14182 0.46362 0.0
H102 H 0.00095 0.78696 0.42718 0.0
H103 H 0.10006 0.94485 0.48668 0.0
H104 H 0.91565 0.2106 0.50422 0.0
H105 H 0.09827 0.71086 0.44594 0.0
H106 H 0.19745 0.86838 0.50554 0.0
C107 C 0.06113 0.07299 0.7034 0.0
C108 C 0.07117 0.01266 0.71943 0.0
C109 C 0.0588 0.07424 0.66951 0.0
C110 C 0.06612 0.01511 0.65102 0.0
C111 C 0.07724 0.95488 0.66711 0.0
C112 C 0.07959 0.95367 0.70101 0.0
C113 C 0.05866 0.01607 0.61509 0.0
C114 C 0.09212 0.06638 0.59778 0.0
C115 C 0.08183 0.0697 0.56384 0.0
C116 C 0.03729 0.02182 0.54729 0.0
C117 C 0.00484 0.97054 0.5643 0.0
C118 C 0.01584 0.96784 0.59806 0.0
C119 C 0.95763 0.91992 0.54754 0.0
C120 C 0.88795 0.93736 0.53413 0.0
C121 C 0.97851 0.85278 0.54835 0.0
C122 C 0.9292 0.80341 0.53711 0.0
C123 C 0.85835 0.82051 0.52483 0.0
C124 C 0.11924 0.12247 0.54598 0.0
C125 C 0.12403 0.18736 0.55923 0.0
C126 C 0.15449 0.10765 0.51677 0.0
C127 C 0.19705 0.15582 0.50217 0.0
C128 C 0.20535 0.21951 0.5166 0.0
C129 C 0.16677 0.2352 0.54479 0.0
C130 C 0.83878 0.88793 0.52258 0.0
H131 H 0.05287 0.11896 0.71704 0.0
H132 H 0.04891 0.12123 0.65779 0.0
H133 H 0.08385 0.90864 0.65349 0.0
H134 H 0.0877 0.90657 0.71286 0.0
H135 H 0.12745 0.10229 0.61078 0.0
H136 H 0.98878 0.92919 0.61117 0.0
H137 H 0.02818 0.02462 0.52133 0.0
H138 H 0.87073 0.98898 0.53363 0.0
H139 H 0.03199 0.8385 0.55877 0.0
H140 H 0.94535 0.75171 0.53905 0.0
H141 H 0.0962 0.20079 0.58131 0.0
H142 H 0.15181 0.05811 0.50592 0.0
H143 H 0.78409 0.90217 0.51354 0.0
H144 H 0.17205 0.28381 0.55654 0.0
H145 H 0.22491 0.14276 0.48006 0.0
C146 C 0.47976 0.42264 0.79643 0.0
C147 C 0.49238 0.48473 0.78276 0.0
C148 C 0.47529 0.41698 0.83004 0.0
C149 C 0.4827 0.47338 0.8507 0.0
C150 C 0.49395 0.53571 0.83698 0.0
C151 C 0.4987 0.54131 0.80334 0.0
C152 C 0.47935 0.46687 0.88647 0.0
C153 C 0.51709 0.41485 0.90217 0.0
C154 C 0.51454 0.4081 0.93603 0.0
C155 C 0.47256 0.4534 0.95408 0.0
C156 C 0.43648 0.50651 0.93888 0.0
C157 C 0.4397 0.51305 0.90516 0.0
C158 C 0.39563 0.55612 0.95796 0.0
C159 C 0.32004 0.54721 0.9627 0.0
C160 C 0.43029 0.61548 0.96862 0.0
C161 C 0.38882 0.66683 0.98252 0.0
C162 C 0.31207 0.65956 0.98547 0.0
C163 C 0.5602 0.35671 0.95255 0.0
C164 C 0.56685 0.29292 0.93836 0.0
C165 C 0.60328 0.37306 0.98079 0.0
C166 C 0.65631 0.32839 0.99293 0.0
C167 C 0.66677 0.26678 0.97705 0.0
C168 C 0.61971 0.24847 0.95046 0.0
C169 C 0.27849 0.59861 0.97637 0.0
H170 H 0.47269 0.37844 0.7811 0.0
H171 H 0.46526 0.36847 0.83984 0.0
H172 H 0.50054 0.57999 0.85228 0.0
H173 H 0.50859 0.58977 0.79344 0.0
H174 H 0.55084 0.38107 0.88809 0.0
H175 H 0.41053 0.55373 0.89351 0.0
H176 H 0.46839 0.44725 0.97988 0.0
H177 H 0.29263 0.50164 0.95455 0.0
H178 H 0.48874 0.62301 0.96496 0.0
H179 H 0.41576 0.71362 0.98894 0.0
H180 H 0.53327 0.27838 0.91705 0.0
H181 H 0.59948 0.42193 0.99226 0.0
H182 H 0.21935 0.592 0.97837 0.0
H183 H 0.62635 0.20083 0.93805 0.0
H184 H 0.69234 0.34375 0.01333 0.0
C185 C 0.51777 0.60871 0.19775 0.0
C186 C 0.52647 0.54962 0.21504 0.0
C187 C 0.51152 0.60686 0.16379 0.0
C188 C 0.51477 0.54593 0.14641 0.0
C189 C 0.5257 0.48714 0.16379 0.0
C190 C 0.53109 0.48895 0.19766 0.0
C191 C 0.50657 0.54316 0.11034 0.0
C192 C 0.53907 0.59169 0.09144 0.0
C193 C 0.53484 0.58667 0.05731 0.0
C194 C 0.49668 0.5332 0.04206 0.0
C195 C 0.46376 0.48472 0.0606 0.0
C196 C 0.46844 0.49015 0.09455 0.0
C197 C 0.42651 0.42639 0.04516 0.0
C198 C 0.35722 0.43299 0.02909 0.0
C199 C 0.4565 0.3628 0.0498 0.0
C200 C 0.41589 0.30632 0.04018 0.0
C201 C 0.34429 0.31257 0.0261 0.0
C202 C 0.57702 0.63357 0.03798 0.0
C203 C 0.57246 0.70239 0.04416 0.0
C204 C 0.62817 0.60913 0.01572 0.0
C205 C 0.67786 0.65228 0.00184 0.0
C206 C 0.67614 0.72061 0.00952 0.0
C207 C 0.62142 0.74567 0.02987 0.0
C208 C 0.3164 0.37636 0.01947 0.0
H209 H 0.51584 0.65642 0.21044 0.0
H210 H 0.50302 0.65307 0.15122 0.0
H211 H 0.53033 0.43946 0.15124 0.0
H212 H 0.53783 0.44258 0.21028 0.0
H213 H 0.57107 0.63151 0.10322 0.0
H214 H 0.44199 0.45271 0.10864 0.0
H215 H 0.49443 0.5288 0.01592 0.0
H216 H 0.33313 0.48176 0.02558 0.0
H217 H 0.51017 0.3569 0.06202 0.0
H218 H 0.43917 0.25769 0.04496 0.0
H219 H 0.53307 0.72234 0.06107 0.0
H220 H 0.63293 0.55622 0.01065 0.0
H221 H 0.26135 0.38245 0.00863 0.0
H222 H 0.61969 0.79812 0.03641 0.0
H223 H 0.71993 0.63197 0.98634 0.0
C224 C 0.20964 0.18605 0.98749 0.0
C225 C 0.19487 0.14457 0.01357 0.0
C226 C 0.2588 0.23986 0.99147 0.0
C227 C 0.29595 0.25334 0.02148 0.0
H228 H 0.18151 0.17807 0.96405 0.0
H229 H 0.26752 0.27138 0.971 0.0
S230 S 0.27875 0.15891 0.09712 0.0
N231 N 0.22318 0.12003 0.07027 0.0
N232 N 0.3153 0.22081 0.07761 0.0
C233 C 0.283 0.21145 0.04751 0.0
C234 C 0.23256 0.15719 0.04359 0.0
C235 C 0.1671 0.79273 0.97345 0.0
C236 C 0.17709 0.83474 0.00106 0.0
C237 C 0.20989 0.73556 0.96933 0.0
C238 C 0.26523 0.71827 0.99242 0.0
H239 H 0.12546 0.80389 0.95475 0.0
H240 H 0.20065 0.70534 0.94742 0.0
S241 S 0.31402 0.81094 0.06907 0.0
N242 N 0.24583 0.85467 0.05223 0.0
N243 N 0.32807 0.74709 0.044 0.0
C244 C 0.27613 0.7595 0.02024 0.0
C245 C 0.2314 0.81761 0.02474 0.0
C246 C 0.86865 0.79278 0.00976 0.0
C247 C 0.85788 0.85316 0.99386 0.0
C248 C 0.81003 0.74836 0.01288 0.0
C249 C 0.73826 0.7637 0.00094 0.0
H250 H 0.92239 0.78066 0.02064 0.0
H251 H 0.82011 0.70324 0.0262 0.0
S252 S 0.68185 0.91504 0.95679 0.0
N253 N 0.77142 0.92524 0.96495 0.0
N254 N 0.66005 0.84246 0.97179 0.0
C255 C 0.72713 0.82324 0.98429 0.0
C256 C 0.78738 0.86783 0.98045 0.0
C257 C 0.84267 0.16942 0.96499 0.0
C258 C 0.85977 0.14343 -0.00417 0.0
C259 C 0.78057 0.20946 0.95955 0.0
C260 C 0.73288 0.22572 0.98468 0.0
H261 H 0.87672 0.15785 0.94448 0.0
H262 H 0.76961 0.22774 0.9353 0.0
S263 S 0.75337 0.17371 0.07023 0.0
N264 N 0.82459 0.13895 0.05228 0.0
N265 N 0.70745 0.21532 0.04182 0.0
C266 C 0.75002 0.20226 0.01591 0.0
C267 C 0.8135 0.1608 0.02153 0.0
C268 C 0.72998 0.67649 0.53841 0.0
C269 C 0.69 0.66932 0.50856 0.0
C270 C 0.78533 0.72461 0.54305 0.0
C271 C 0.80227 0.76806 0.5182 0.0
H272 H 0.71871 0.6445 0.55843 0.0
H273 H 0.81419 0.72872 0.56655 0.0
S274 S 0.71523 0.7701 0.4354 0.0
N275 N 0.67239 0.70951 0.45347 0.0
N276 N 0.77611 0.80084 0.46262 0.0
C277 C 0.7632 0.76165 0.48821 0.0
C278 C 0.70728 0.71195 0.48327 0.0
C279 C 0.6694 0.30882 0.51895 0.0
C280 C 0.68601 0.36626 0.50181 0.0
C281 C 0.71061 0.2501 0.51479 0.0
C282 C 0.77084 0.2477 0.49411 0.0
H283 H 0.6216 0.30801 0.53407 0.0
H284 H 0.69385 0.20571 0.52695 0.0
S285 S 0.84031 0.3862 0.44599 0.0
N286 N 0.76876 0.41812 0.4648 0.0
N287 N 0.84744 0.30847 0.45778 0.0
C288 C 0.7904 0.30584 0.47833 0.0
C289 C 0.74762 0.365 0.48198 0.0
C290 C 0.28931 0.38545 0.49702 0.0
C291 C 0.36373 0.36896 0.49251 0.0
C292 C 0.23706 0.33604 0.50246 0.0
C293 C 0.25793 0.26866 0.5042 0.0
H294 H 0.27207 0.4371 0.4977 0.0
H295 H 0.18055 0.351 0.50681 0.0
S296 S 0.44712 0.20089 0.49334 0.0
N297 N 0.45604 0.28179 0.48878 0.0
N298 N 0.35866 0.18844 0.50001 0.0
C299 C 0.33203 0.25156 0.49832 0.0
C300 C 0.38488 0.30197 0.49235 0.0
C301 C 0.31211 0.68575 0.51752 0.0
C302 C 0.35112 0.66076 0.49078 0.0
C303 C 0.24929 0.72649 0.51304 0.0
C304 C 0.22297 0.74285 0.48169 0.0
H305 H 0.32951 0.67306 0.54204 0.0
H306 H 0.22031 0.74423 0.53413 0.0
S307 S 0.30768 0.69554 0.40377 0.0
N308 N 0.36043 0.65954 0.43179 0.0
N309 N 0.24283 0.7352 0.42376 0.0
C310 C 0.26234 0.71981 0.4549 0.0
C311 C 0.32626 0.67901 0.45934 0.0
C312 C 0.02823 0.94434 0.19952 0.0
C313 C 0.98924 0.99079 0.18044 0.0
C314 C 0.01813 0.94123 0.23302 0.0
C315 C 0.96909 0.98478 0.24871 0.0
H316 H 0.06606 0.90949 0.18839 0.0
H317 H 0.04951 0.90485 0.24681 0.0
S318 S 0.85467 0.11618 0.20978 0.0
N319 N 0.90094 0.08225 0.17975 0.0
N320 N 0.88081 0.07547 0.2426 0.0
C321 C 0.93005 0.03167 0.22994 0.0
C322 C 0.9403 0.03482 0.19584 0.0
C323 C 0.01617 0.96465 0.80358 0.0
C324 C 0.05872 0.0078 0.82405 0.0
C325 C 0.02151 0.96589 0.76979 0.0
C326 C 0.06911 0.0107 0.75527 0.0
H327 H 0.97877 0.9294 0.81378 0.0
H328 H 0.98717 0.93226 0.75487 0.0
S329 S 0.19247 0.13383 0.79813 0.0
N330 N 0.14979 0.09674 0.82748 0.0
N331 N 0.16053 0.09842 0.76386 0.0
C332 C 0.11221 0.05391 0.77545 0.0
C333 C 0.10696 0.05252 0.80988 0.0
C334 C 0.4611 0.54498 0.69654 0.0
C335 C 0.50704 0.50283 0.67835 0.0
C336 C 0.45716 0.53919 0.7303 0.0
C337 C 0.49849 0.49063 0.74708 0.0
H338 H 0.42836 0.58311 0.68462 0.0
H339 H 0.42074 0.57244 0.74331 0.0
S340 S 0.62705 0.36798 0.71074 0.0
N341 N 0.59407 0.41041 0.67957 0.0
N342 N 0.58781 0.40045 0.74306 0.0
C343 C 0.54475 0.44828 0.72919 0.0
C344 C 0.54885 0.45423 0.69485 0.0
C345 C 0.58578 0.50839 0.30168 0.0
C346 C 0.53362 0.54268 0.32033 0.0
C347 C 0.58399 0.51211 0.26775 0.0
C348 C 0.53002 0.55032 0.25114 0.0
H349 H 0.62725 0.47709 0.31333 0.0
H350 H 0.62491 0.48437 0.25439 0.0
S351 S 0.38311 0.65222 0.28885 0.0
N352 N 0.42904 0.61914 0.31987 0.0
N353 N 0.42386 0.62408 0.25601 0.0
C354 C 0.47849 0.58602 0.26954 0.0
C355 C 0.48062 0.58256 0.30412 0.0
loop_
_geom_bond_atom_site_label_1
_geom_bond_atom_site_label_2
_geom_bond_distance
_geom_bond_site_symmetry_2
_ccdc_geom_bond_type
C0 O16 1.251 . S
C0 O18 1.254 1_554 S
N1 C2 1.333 1_445 S
N1 C6 1.307 . S
N1 Zn7 2.020 . S
C2 N1 1.333 1_665 S
C2 C3 1.379 . S
C2 H20 0.952 . S
C3 C2 1.379 . S
C3 C4 1.390 1_665 S
C3 H30 0.949 . S
C4 C3 1.390 1_445 S
C4 C5 1.357 . S
C5 C4 1.357 . S
C5 C6 1.370 . S
C5 H31 0.950 . S
C6 N1 1.307 . S
C6 C5 1.370 . S
C6 H24 0.948 . S
Zn7 N1 2.020 . S
Zn7 O16 2.039 1_445 S
Zn7 O22 2.034 1_455 S
Zn7 O26 2.025 . S
Zn7 O28 2.024 1_545 S
C8 O27 1.246 1_554 S
C8 O28 1.249 . S
N9 C10 1.307 1_445 S
N9 C11 1.333 . S
N9 Zn15 2.020 . S
C10 N9 1.307 1_665 S
C10 C14 1.370 . S
C10 H21 0.948 . S
C11 N9 1.333 . S
C11 C12 1.379 . S
C11 H19 0.952 . S
C12 C11 1.379 . S
C12 C13 1.390 . S
C12 H32 0.949 . S
C13 C12 1.390 . S
C13 C14 1.357 1_445 S
C14 C10 1.370 . S
C14 C13 1.357 1_665 S
C14 H33 0.950 . S
Zn15 N9 2.020 . S
Zn15 O18 2.025 1_445 S
Zn15 O23 2.024 1_455 S
Zn15 O25 2.039 . S
Zn15 O27 2.034 1_545 S
O16 C0 1.251 . S
O16 Zn7 2.039 1_665 S
C17 O22 1.246 . S
C17 O23 1.249 1_554 S
O18 C0 1.254 1_556 S
O18 Zn15 2.025 1_665 S
H19 C11 0.952 . S
H20 C2 0.952 . S
H21 C10 0.948 . S
O22 Zn7 2.034 1_655 S
O22 C17 1.246 . S
O23 Zn15 2.024 1_655 S
O23 C17 1.249 1_556 S
H24 C6 0.948 . S
O25 Zn15 2.039 . S
O25 C29 1.251 1_556 S
O26 Zn7 2.025 . S
O26 C29 1.254 . S
O27 C8 1.246 1_556 S
O27 Zn15 2.034 1_565 S
O28 Zn7 2.024 1_565 S
O28 C8 1.249 . S
C29 O25 1.251 1_554 S
C29 O26 1.254 . S
H30 C3 0.949 . S
H31 C5 0.950 . S
H32 C12 0.949 . S
H33 C14 0.950 . S
C34 O50 1.251 . S
C34 O52 1.254 . S
N35 C36 1.333 . S
N35 C40 1.307 . S
N35 Zn41 2.020 . S
C36 N35 1.333 . S
C36 C37 1.379 . S
C36 H54 0.952 . S
C37 C36 1.379 . S
C37 C38 1.390 . S
C37 H64 0.949 . S
C38 C37 1.390 . S
C38 C39 1.357 . S
C39 C38 1.357 . S
C39 C40 1.370 . S
C39 H65 0.950 . S
C40 N35 1.307 . S
C40 C39 1.370 . S
C40 H58 0.948 . S
Zn41 N35 2.020 . S
Zn41 O50 2.039 . S
Zn41 O56 2.034 . S
Zn41 O60 2.025 . S
Zn41 O62 2.024 . S
C42 O61 1.246 . S
C42 O62 1.249 . S
N43 C44 1.307 . S
N43 C45 1.333 . S
N43 Zn49 2.020 . S
C44 N43 1.307 . S
C44 C48 1.370 . S
C44 H55 0.948 . S
C45 N43 1.333 . S
C45 C46 1.379 . S
C45 H53 0.952 . S
C46 C45 1.379 . S
C46 C47 1.390 . S
C46 H66 0.949 . S
C47 C46 1.390 . S
C47 C48 1.357 . S
C48 C44 1.370 . S
C48 C47 1.357 . S
C48 H67 0.950 . S
Zn49 N43 2.020 . S
Zn49 O52 2.025 . S
Zn49 O57 2.024 . S
Zn49 O59 2.039 . S
Zn49 O61 2.034 . S
O50 C34 1.251 . S
O50 Zn41 2.039 . S
C51 O56 1.246 . S
C51 O57 1.249 . S
O52 C34 1.254 . S
O52 Zn49 2.025 . S
H53 C45 0.952 . S
H54 C36 0.952 . S
H55 C44 0.948 . S
O56 Zn41 2.034 . S
O56 C51 1.246 . S
O57 Zn49 2.024 . S
O57 C51 1.249 . S
H58 C40 0.948 . S
O59 Zn49 2.039 . S
O59 C63 1.251 . S
O60 Zn41 2.025 . S
O60 C63 1.254 . S
O61 C42 1.246 . S
O61 Zn49 2.034 . S
O62 Zn41 2.024 . S
O62 C42 1.249 . S
C63 O59 1.251 . S
C63 O60 1.254 . S
H64 C37 0.949 . S
H65 C39 0.950 . S
H66 C46 0.949 . S
H67 C48 0.950 . S
C68 C69 1.386 1_565 S
C68 C70 1.397 . S
C68 H92 0.931 . S
C69 C68 1.386 1_545 S
C69 C73 1.397 1_655 S
C70 C68 1.397 . S
C70 C71 1.384 1_655 S
C70 H93 0.930 . S
C71 C70 1.384 1_455 S
C71 C72 1.377 1_565 S
C71 C74 1.481 . S
C72 C71 1.377 1_545 S
C72 C73 1.389 . S
C72 H94 0.929 . S
C73 C69 1.397 1_455 S
C73 C72 1.389 . S
C73 H95 0.931 . S
C74 C71 1.481 . S
C74 C75 1.388 . S
C74 C79 1.389 1_465 S
C75 C74 1.388 . S
C75 C76 1.401 . S
C75 H96 0.930 . S
C76 C75 1.401 . S
C76 C77 1.369 1_455 S
C76 C85 1.511 . S
C77 C76 1.369 1_655 S
C77 C78 1.399 1_565 S
C77 H98 0.932 . S
C78 C77 1.399 1_545 S
C78 C79 1.361 . S
C78 C80 1.500 . S
C79 C74 1.389 1_645 S
C79 C78 1.361 . S
C79 H97 0.931 . S
C80 C78 1.500 . S
C80 C81 1.371 . S
C80 C82 1.365 . S
C81 C80 1.371 . S
C81 C91 1.386 . S
C81 H99 0.931 . S
C82 C80 1.365 . S
C82 C83 1.409 . S
C82 H100 0.929 . S
C83 C82 1.409 . S
C83 C84 1.380 . S
C83 H101 0.930 . S
C84 C83 1.380 . S
C84 C91 1.357 . S
C85 C76 1.511 . S
C85 C86 1.341 . S
C85 C87 1.371 . S
C86 C85 1.341 . S
C86 C90 1.394 . S
C86 H102 0.930 . S
C87 C85 1.371 . S
C87 C88 1.392 . S
C87 H103 0.931 . S
C88 C87 1.392 . S
C88 C89 1.331 . S
C88 H106 0.932 . S
C89 C88 1.331 . S
C89 C90 1.336 . S
C90 C86 1.394 . S
C90 C89 1.336 . S
C90 H105 0.929 . S
C91 C81 1.386 . S
C91 C84 1.357 . S
C91 H104 0.928 . S
H92 C68 0.931 . S
H93 C70 0.930 . S
H94 C72 0.929 . S
H95 C73 0.931 . S
H96 C75 0.930 . S
H97 C79 0.931 . S
H98 C77 0.932 . S
H99 C81 0.931 . S
H100 C82 0.929 . S
H101 C83 0.930 . S
H102 C86 0.930 . S
H103 C87 0.931 . S
H104 C91 0.928 . S
H105 C90 0.929 . S
H106 C88 0.932 . S
C107 C108 1.386 . S
C107 C109 1.397 . S
C107 H131 0.931 . S
C108 C107 1.386 . S
C108 C112 1.397 1_545 S
C109 C107 1.397 . S
C109 C110 1.384 . S
C109 H132 0.930 . S
C110 C109 1.384 . S
C110 C111 1.377 1_545 S
C110 C113 1.481 . S
C111 C110 1.377 1_565 S
C111 C112 1.389 . S
C111 H133 0.929 . S
C112 C108 1.397 1_565 S
C112 C111 1.389 . S
C112 H134 0.931 . S
C113 C110 1.481 . S
C113 C114 1.387 . S
C113 C118 1.390 1_445 S
C114 C113 1.387 . S
C114 C115 1.401 . S
C114 H135 0.930 . S
C115 C114 1.401 . S
C115 C116 1.376 . S
C115 C124 1.511 . S
C116 C115 1.376 . S
C116 C117 1.392 1_445 S
C116 H137 0.931 . S
C117 C116 1.392 1_665 S
C117 C118 1.361 . S
C117 C119 1.500 . S
C118 C113 1.390 1_665 S
C118 C117 1.361 . S
C118 H136 0.931 . S
C119 C117 1.500 . S
C119 C120 1.371 . S
C119 C121 1.365 . S
C120 C119 1.371 . S
C120 C130 1.386 . S
C120 H138 0.931 . S
C121 C119 1.365 . S
C121 C122 1.409 . S
C121 H139 0.929 . S
C122 C121 1.409 . S
C122 C123 1.380 . S
C122 H140 0.930 . S
C123 C122 1.380 . S
C123 C130 1.357 . S
C124 C115 1.511 . S
C124 C125 1.341 . S
C124 C126 1.371 . S
C125 C124 1.341 . S
C125 C129 1.394 . S
C125 H141 0.930 . S
C126 C124 1.371 . S
C126 C127 1.392 . S
C126 H142 0.931 . S
C127 C126 1.392 . S
C127 C128 1.331 . S
C127 H145 0.932 . S
C128 C127 1.331 . S
C128 C129 1.336 . S
C129 C125 1.394 . S
C129 C128 1.336 . S
C129 H144 0.929 . S
C130 C120 1.386 . S
C130 C123 1.357 . S
C130 H143 0.928 . S
H131 C107 0.931 . S
H132 C109 0.930 . S
H133 C111 0.929 . S
H134 C112 0.931 . S
H135 C114 0.930 . S
H136 C118 0.931 . S
H137 C116 0.931 . S
H138 C120 0.931 . S
H139 C121 0.929 . S
H140 C122 0.930 . S
H141 C125 0.930 . S
H142 C126 0.931 . S
H143 C130 0.928 . S
H144 C129 0.929 . S
H145 C127 0.932 . S
C146 C147 1.386 . S
C146 C148 1.397 . S
C146 H170 0.931 . S
C147 C146 1.386 . S
C147 C151 1.397 . S
C148 C146 1.397 . S
C148 C149 1.384 . S
C148 H171 0.930 . S
C149 C148 1.384 . S
C149 C150 1.377 . S
C149 C152 1.481 . S
C150 C149 1.377 . S
C150 C151 1.389 . S
C150 H172 0.929 . S
C151 C147 1.397 . S
C151 C150 1.389 . S
C151 H173 0.931 . S
C152 C149 1.481 . S
C152 C153 1.387 . S
C152 C157 1.390 . S
C153 C152 1.387 . S
C153 C154 1.401 . S
C153 H174 0.930 . S
C154 C153 1.401 . S
C154 C155 1.376 . S
C154 C163 1.511 . S
C155 C154 1.376 . S
C155 C156 1.392 . S
C155 H176 0.895 1_556 S
C156 C155 1.392 . S
C156 C157 1.361 . S
C156 C158 1.500 . S
C157 C152 1.390 . S
C157 C156 1.361 . S
C157 H175 0.931 . S
C158 C156 1.500 . S
C158 C159 1.371 1_556 S
C158 C160 1.365 . S
C159 C158 1.371 1_554 S
C159 C169 1.386 . S
C159 H177 0.931 . S
C160 C158 1.365 . S
C160 C161 1.409 . S
C160 H178 0.929 . S
C161 C160 1.409 . S
C161 C162 1.380 1_556 S
C161 H179 0.930 . S
C162 C161 1.380 1_554 S
C162 C169 1.357 . S
C163 C154 1.511 . S
C163 C164 1.341 . S
C163 C165 1.371 1_556 S
C164 C163 1.341 . S
C164 C168 1.394 . S
C164 H180 0.930 . S
C165 C163 1.371 1_554 S
C165 C166 1.392 . S
C165 H181 0.931 . S
C166 C165 1.392 . S
C166 C167 1.331 . S
C166 H184 0.932 . S
C167 C166 1.331 . S
C167 C168 1.336 1_554 S
C168 C164 1.394 . S
C168 C167 1.336 1_556 S
C168 H183 0.929 . S
C169 C159 1.386 . S
C169 C162 1.357 . S
C169 H182 0.928 . S
H170 C146 0.931 . S
H171 C148 0.930 . S
H172 C150 0.929 . S
H173 C151 0.931 . S
H174 C153 0.930 . S
H175 C157 0.931 . S
H176 C155 0.895 1_554 S
H177 C159 0.931 . S
H178 C160 0.929 . S
H179 C161 0.930 . S
H180 C164 0.930 . S
H181 C165 0.931 . S
H182 C169 0.928 . S
H183 C168 0.929 . S
H184 C166 0.932 . S
C185 C186 1.386 . S
C185 C187 1.397 . S
C185 H209 0.931 . S
C186 C185 1.386 . S
C186 C190 1.397 . S
C187 C185 1.397 . S
C187 C188 1.384 . S
C187 H210 0.930 . S
C188 C187 1.384 . S
C188 C189 1.377 . S
C188 C191 1.481 . S
C189 C188 1.377 . S
C189 C190 1.389 . S
C189 H211 0.929 . S
C190 C186 1.397 . S
C190 C189 1.389 . S
C190 H212 0.931 . S
C191 C188 1.481 . S
C191 C192 1.387 . S
C191 C196 1.390 . S
C192 C191 1.387 . S
C192 C193 1.401 . S
C192 H213 0.930 . S
C193 C192 1.401 . S
C193 C194 1.376 . S
C193 C202 1.511 . S
C194 C193 1.376 . S
C194 C195 1.392 . S
C194 H215 0.931 . S
C195 C194 1.392 . S
C195 C196 1.361 . S
C195 C197 1.500 . S
C196 C191 1.390 . S
C196 C195 1.361 . S
C196 H214 0.931 . S
C197 C195 1.500 . S
C197 C198 1.371 . S
C197 C199 1.365 . S
C198 C197 1.371 . S
C198 C208 1.386 1_554 S
C198 H216 0.931 1_554 S
C199 C197 1.365 . S
C199 C200 1.409 . S
C199 H217 0.929 . S
C200 C199 1.409 . S
C200 C201 1.380 1_554 S
C200 H218 0.930 . S
C201 C200 1.380 1_556 S
C201 C208 1.357 . S
C202 C193 1.511 . S
C202 C203 1.341 . S
C202 C204 1.371 . S
C203 C202 1.341 . S
C203 C207 1.394 . S
C203 H219 0.930 . S
C204 C202 1.371 . S
C204 C205 1.392 1_554 S
C204 H220 0.931 1_554 S
C205 C204 1.392 1_556 S
C205 C206 1.331 1_556 S
C205 H223 0.932 . S
C206 C205 1.331 1_554 S
C206 C207 1.336 . S
C207 C203 1.394 . S
C207 C206 1.336 . S
C207 H222 0.929 . S
C208 C198 1.386 1_556 S
C208 C201 1.357 . S
C208 H221 0.928 . S
H209 C185 0.931 . S
H210 C187 0.930 . S
H211 C189 0.929 . S
H212 C190 0.931 . S
H213 C192 0.930 . S
H214 C196 0.931 . S
H215 C194 0.931 . S
H216 C198 0.931 1_556 S
H217 C199 0.929 . S
H218 C200 0.930 . S
H219 C203 0.930 . S
H220 C204 0.931 1_556 S
H221 C208 0.928 . S
H222 C207 0.929 . S
H223 C205 0.932 . S
C224 C225 1.369 1_556 S
C224 C226 1.419 . S
C224 H228 0.930 . S
C225 C224 1.369 1_554 S
C225 C234 1.429 . S
C226 C224 1.419 . S
C226 C227 1.363 . S
C226 H229 0.929 . S
C227 C226 1.363 . S
C227 C233 1.428 1_556 S
H228 C224 0.930 . S
H229 C226 0.929 . S
S230 N231 1.613 . S
S230 N232 1.610 . S
N231 S230 1.613 . S
N231 C234 1.350 . S
N232 S230 1.610 . S
N232 C233 1.351 . S
C233 C227 1.428 1_554 S
C233 N232 1.351 . S
C233 C234 1.434 . S
C234 C225 1.429 . S
C234 N231 1.350 . S
C234 C233 1.434 . S
C235 C236 1.369 . S
C235 C237 1.419 . S
C235 H239 0.930 . S
C236 C235 1.369 . S
C236 C245 1.429 . S
C237 C235 1.419 . S
C237 C238 1.363 . S
C237 H240 0.929 . S
C238 C237 1.363 . S
C238 C244 1.428 . S
H239 C235 0.930 . S
H240 C237 0.929 . S
S241 N242 1.613 . S
S241 N243 1.610 . S
N242 S241 1.613 . S
N242 C245 1.350 . S
N243 S241 1.610 . S
N243 C244 1.351 . S
C244 C238 1.428 . S
C244 N243 1.351 . S
C244 C245 1.434 . S
C245 C236 1.429 . S
C245 N242 1.350 . S
C245 C244 1.434 . S
C246 C247 1.369 1_556 S
C246 C248 1.419 . S
C246 H250 0.930 . S
C247 C246 1.369 1_554 S
C247 C256 1.429 . S
C248 C246 1.419 . S
C248 C249 1.363 . S
C248 H251 0.929 . S
C249 C248 1.363 . S
C249 C255 1.428 1_556 S
H250 C246 0.930 . S
H251 C248 0.929 . S
S252 N253 1.613 . S
S252 N254 1.610 . S
N253 S252 1.613 . S
N253 C256 1.350 . S
N254 S252 1.610 . S
N254 C255 1.351 . S
C255 C249 1.428 1_554 S
C255 N254 1.351 . S
C255 C256 1.434 . S
C256 C247 1.429 . S
C256 N253 1.350 . S
C256 C255 1.434 . S
C257 C258 1.369 1_556 S
C257 C259 1.424 . S
C257 H261 0.930 . S
C258 C257 1.369 1_554 S
C258 C267 1.429 . S
C259 C257 1.424 . S
C259 C260 1.339 1_556 S
C259 H262 0.949 . S
C260 C259 1.339 1_554 S
C260 C266 1.428 . S
H261 C257 0.930 . S
H262 C259 0.949 . S
S263 N264 1.613 . S
S263 N265 1.610 . S
N264 S263 1.613 . S
N264 C267 1.350 . S
N265 S263 1.610 . S
N265 C266 1.351 . S
C266 C260 1.428 . S
C266 N265 1.351 . S
C266 C267 1.434 . S
C267 C258 1.429 . S
C267 N264 1.350 . S
C267 C266 1.434 . S
C268 C269 1.369 . S
C268 C270 1.419 . S
C268 H272 0.930 . S
C269 C268 1.369 . S
C269 C278 1.429 . S
C270 C268 1.419 . S
C270 C271 1.363 . S
C270 H273 0.929 . S
C271 C270 1.363 . S
C271 C277 1.428 . S
H272 C268 0.930 . S
H273 C270 0.929 . S
S274 N275 1.613 . S
S274 N276 1.610 . S
N275 S274 1.613 . S
N275 C278 1.350 . S
N276 S274 1.610 . S
N276 C277 1.351 . S
C277 C271 1.428 . S
C277 N276 1.351 . S
C277 C278 1.434 . S
C278 C269 1.429 . S
C278 N275 1.350 . S
C278 C277 1.434 . S
C279 C280 1.369 . S
C279 C281 1.419 . S
C279 H283 0.930 . S
C280 C279 1.369 . S
C280 C289 1.429 . S
C281 C279 1.419 . S
C281 C282 1.363 . S
C281 H284 0.929 . S
C282 C281 1.363 . S
C282 C288 1.428 . S
H283 C279 0.930 . S
H284 C281 0.929 . S
S285 N286 1.613 . S
S285 N287 1.610 . S
N286 S285 1.613 . S
N286 C289 1.350 . S
N287 S285 1.610 . S
N287 C288 1.351 . S
C288 C282 1.428 . S
C288 N287 1.351 . S
C288 C289 1.434 . S
C289 C280 1.429 . S
C289 N286 1.350 . S
C289 C288 1.434 . S
C290 C291 1.369 . S
C290 C292 1.419 . S
C290 H294 0.930 . S
C291 C290 1.369 . S
C291 C300 1.429 . S
C292 C290 1.419 . S
C292 C293 1.363 . S
C292 H295 0.929 . S
C293 C292 1.363 . S
C293 C299 1.428 . S
H294 C290 0.930 . S
H295 C292 0.929 . S
S296 N297 1.613 . S
S296 N298 1.610 . S
N297 S296 1.613 . S
N297 C300 1.350 . S
N298 S296 1.610 . S
N298 C299 1.351 . S
C299 C293 1.428 . S
C299 N298 1.351 . S
C299 C300 1.434 . S
C300 C291 1.429 . S
C300 N297 1.350 . S
C300 C299 1.434 . S
C301 C302 1.369 . S
C301 C303 1.419 . S
C301 H305 0.930 . S
C302 C301 1.369 . S
C302 C311 1.429 . S
C303 C301 1.419 . S
C303 C304 1.363 . S
C303 H306 0.929 . S
C304 C303 1.363 . S
C304 C310 1.428 . S
H305 C301 0.930 . S
H306 C303 0.929 . S
S307 N308 1.613 . S
S307 N309 1.610 . S
N308 S307 1.613 . S
N308 C311 1.350 . S
N309 S307 1.610 . S
N309 C310 1.351 . S
C310 C304 1.428 . S
C310 N309 1.351 . S
C310 C311 1.434 . S
C311 C302 1.429 . S
C311 N308 1.350 . S
C311 C310 1.434 . S
C312 C313 1.369 1_565 S
C312 C314 1.419 . S
C312 H316 0.930 . S
C313 C312 1.369 1_545 S
C313 C322 1.429 1_455 S
C314 C312 1.419 . S
C314 C315 1.363 1_465 S
C314 H317 0.929 . S
C315 C314 1.363 1_645 S
C315 C321 1.428 . S
H316 C312 0.930 . S
H317 C314 0.929 . S
S318 N319 1.613 . S
S318 N320 1.610 . S
N319 S318 1.613 . S
N319 C322 1.350 . S
N320 S318 1.610 . S
N320 C321 1.351 . S
C321 C315 1.428 . S
C321 N320 1.351 . S
C321 C322 1.434 . S
C322 C313 1.429 1_655 S
C322 N319 1.350 . S
C322 C321 1.434 . S
C323 C324 1.369 1_665 S
C323 C325 1.419 . S
C323 H327 0.930 . S
C324 C323 1.369 1_445 S
C324 C333 1.429 . S
C325 C323 1.419 . S
C325 C326 1.363 1_665 S
C325 H328 0.929 . S
C326 C325 1.363 1_445 S
C326 C332 1.428 . S
H327 C323 0.930 . S
H328 C325 0.929 . S
S329 N330 1.613 . S
S329 N331 1.610 . S
N330 S329 1.613 . S
N330 C333 1.350 . S
N331 S329 1.610 . S
N331 C332 1.351 . S
C332 C326 1.428 . S
C332 N331 1.351 . S
C332 C333 1.434 . S
C333 C324 1.429 . S
C333 N330 1.350 . S
C333 C332 1.434 . S
C334 C335 1.369 . S
C334 C336 1.419 . S
C334 H338 0.930 . S
C335 C334 1.369 . S
C335 C344 1.429 . S
C336 C334 1.419 . S
C336 C337 1.363 . S
C336 H339 0.929 . S
C337 C336 1.363 . S
C337 C343 1.428 . S
H338 C334 0.930 . S
H339 C336 0.929 . S
S340 N341 1.613 . S
S340 N342 1.610 . S
N341 S340 1.613 . S
N341 C344 1.350 . S
N342 S340 1.610 . S
N342 C343 1.351 . S
C343 C337 1.428 . S
C343 N342 1.351 . S
C343 C344 1.434 . S
C344 C335 1.429 . S
C344 N341 1.350 . S
C344 C343 1.434 . S
C345 C346 1.369 . S
C345 C347 1.419 . S
C345 H349 0.930 . S
C346 C345 1.369 . S
C346 C355 1.429 . S
C347 C345 1.419 . S
C347 C348 1.363 . S
C347 H350 0.929 . S
C348 C347 1.363 . S
C348 C354 1.428 . S
H349 C345 0.930 . S
H350 C347 0.929 . S
S351 N352 1.613 . S
S351 N353 1.610 . S
N352 S351 1.613 . S
N352 C355 1.350 . S
N353 S351 1.610 . S
N353 C354 1.351 . S
C354 C348 1.428 . S
C354 N353 1.351 . S
C354 C355 1.434 . S
C355 C346 1.429 . S
C355 N352 1.350 . S
C355 C354 1.434 . S
C227 C201 1.534 . S
C225 C29 1.625 . S
C236 C8 1.594 . S
C238 C162 1.520 . S
C247 C0 1.587 . S
C249 C206 1.516 1_556 S
C258 C17 1.614 . S
C260 C167 1.543 . S
C269 C63 1.623 . S
C271 C123 1.542 . S
C280 C42 1.595 . S
C282 C84 1.517 . S
C293 C128 1.522 . S
C291 C34 1.585 . S
C304 C89 1.537 . S
C302 C51 1.617 . S
C313 C4 1.490 . S
C315 C69 1.492 . S
C324 C13 1.489 . S
C326 C108 1.490 . S
C337 C147 1.491 . S
C335 C38 1.491 . S
C346 C47 1.489 . S
C348 C186 1.490 . S
