# Generated by pormake.
# Topology zzz, (3,6)-cn, num edge types: 1
# Building blocks:
#     Node 0, Type 0, BuildingBlock: MIDCAF_clean_linker_0, # of connection points: 3
#     Node 1, Type 0, BuildingBlock: MIDCAF_clean_linker_0, # of connection points: 3
#     Node 2, Type 0, BuildingBlock: MIDCAF_clean_linker_0, # of connection points: 3
#     Node 3, Type 0, BuildingBlock: MIDCAF_clean_linker_0, # of connection points: 3
#     Node 4, Type 0, BuildingBlock: MIDCAF_clean_linker_0, # of connection points: 3
#     Node 5, Type 0, BuildingBlock: MIDCAF_clean_linker_0, # of connection points: 3
#     Node 6, Type 0, BuildingBlock: MIDCAF_clean_linker_0, # of connection points: 3
#     Node 7, Type 0, BuildingBlock: MIDCAF_clean_linker_0, # of connection points: 3
#     Node 8, Type 1, BuildingBlock: CUWYAW_clean_sbu_0, # of connection points: 6
#     Node 9, Type 1, BuildingBlock: CUWYAW_clean_sbu_0, # of connection points: 6
#     Node 10, Type 1, BuildingBlock: CUWYAW_clean_sbu_0, # of connection points: 6
#     Node 11, Type 1, BuildingBlock: CUWYAW_clean_sbu_0, # of connection points: 6
#     Edge 12, Type (0, 1), BuildingBlock: XUDNAN_clean_linker_2, # of connection points: 2
#     Edge 13, Type (0, 1), BuildingBlock: XUDNAN_clean_linker_2, # of connection points: 2
#     Edge 14, Type (0, 1), BuildingBlock: XUDNAN_clean_linker_2, # of connection points: 2
#     Edge 15, Type (0, 1), BuildingBlock: XUDNAN_clean_linker_2, # of connection points: 2
#     Edge 16, Type (0, 1), BuildingBlock: XUDNAN_clean_linker_2, # of connection points: 2
#     Edge 17, Type (0, 1), BuildingBlock: XUDNAN_clean_linker_2, # of connection points: 2
#     Edge 18, Type (0, 1), BuildingBlock: XUDNAN_clean_linker_2, # of connection points: 2
#     Edge 19, Type (0, 1), BuildingBlock: XUDNAN_clean_linker_2, # of connection points: 2
#     Edge 20, Type (0, 1), BuildingBlock: XUDNAN_clean_linker_2, # of connection points: 2
#     Edge 21, Type (0, 1), BuildingBlock: XUDNAN_clean_linker_2, # of connection points: 2
#     Edge 22, Type (0, 1), BuildingBlock: XUDNAN_clean_linker_2, # of connection points: 2
#     Edge 23, Type (0, 1), BuildingBlock: XUDNAN_clean_linker_2, # of connection points: 2
#     Edge 24, Type (0, 1), BuildingBlock: XUDNAN_clean_linker_2, # of connection points: 2
#     Edge 25, Type (0, 1), BuildingBlock: XUDNAN_clean_linker_2, # of connection points: 2
#     Edge 26, Type (0, 1), BuildingBlock: XUDNAN_clean_linker_2, # of connection points: 2
#     Edge 27, Type (0, 1), BuildingBlock: XUDNAN_clean_linker_2, # of connection points: 2
#     Edge 28, Type (0, 1), BuildingBlock: XUDNAN_clean_linker_2, # of connection points: 2
#     Edge 29, Type (0, 1), BuildingBlock: XUDNAN_clean_linker_2, # of connection points: 2
#     Edge 30, Type (0, 1), BuildingBlock: XUDNAN_clean_linker_2, # of connection points: 2
#     Edge 31, Type (0, 1), BuildingBlock: XUDNAN_clean_linker_2, # of connection points: 2
#     Edge 32, Type (0, 1), BuildingBlock: XUDNAN_clean_linker_2, # of connection points: 2
#     Edge 33, Type (0, 1), BuildingBlock: XUDNAN_clean_linker_2, # of connection points: 2
#     Edge 34, Type (0, 1), BuildingBlock: XUDNAN_clean_linker_2, # of connection points: 2
#     Edge 35, Type (0, 1), BuildingBlock: XUDNAN_clean_linker_2, # of connection points: 2
# Relax obj value: 0.431
# Max RMSD: 0.251
# Mean RMSD: 0.232
data_MOF--net-zzz--node1-CUWYAW_clean_sbu_0--node2-MIDCAF_clean_linker_0--edge1-XUDNAN_clean_linker_2
_symmetry_space_group_name_H-M    P1
_symmetry_Int_Tables_number       1
_symmetry_cell_setting            triclinic
loop_
_symmetry_equiv_pos_as_xyz
'x, y, z'
_cell_length_a     58.597792
_cell_length_b     58.549132
_cell_length_c     19.178007
_cell_angle_alpha  89.775889
_cell_angle_beta   89.866099
_cell_angle_gamma 89.913893
loop_
_atom_site_label
_atom_site_type_symbol
_atom_site_fract_x
_atom_site_fract_y
_atom_site_fract_z
_atom_type_partial_charge
C0 C 0.77166 0.50652 0.38975 0.0
C1 C 0.79522 0.50348 0.37655 0.0
C2 C 0.8018 0.49438 0.31187 0.0
C3 C 0.78551 0.48731 0.26372 0.0
H4 H 0.6972 0.5181 0.15948 0.0
H5 H 0.66493 0.53281 0.0917 0.0
H6 H 0.64573 0.46371 0.03974 0.0
H7 H 0.67709 0.44922 0.10867 0.0
H8 H 0.7206 0.41723 0.06028 0.0
H9 H 0.74047 0.38973 0.98657 0.0
H10 H 0.80172 0.39956 0.10875 0.0
H11 H 0.78171 0.42533 0.18356 0.0
H12 H 0.73726 0.50091 0.35378 0.0
H13 H 0.76593 0.51373 0.43865 0.0
H14 H 0.81961 0.49141 0.29966 0.0
H15 H 0.79137 0.47943 0.21586 0.0
N16 N 0.72509 0.4853 0.21304 0.0
N17 N 0.71937 0.45288 0.14251 0.0
N18 N 0.75291 0.45644 0.20634 0.0
C19 C 0.71168 0.47318 0.16783 0.0
C20 C 0.7399 0.44435 0.16167 0.0
C21 C 0.74584 0.47669 0.23263 0.0
C22 C 0.68997 0.48249 0.13894 0.0
C23 C 0.68569 0.50609 0.13511 0.0
C24 C 0.66731 0.51451 0.09553 0.0
C25 C 0.65276 0.4995 0.05917 0.0
C26 C 0.65627 0.47589 0.06714 0.0
C27 C 0.67453 0.46754 0.10643 0.0
C28 C 0.74973 0.42403 0.12667 0.0
C29 C 0.73812 0.4129 0.07244 0.0
C30 C 0.7496 0.39721 0.02984 0.0
C31 C 0.77297 0.39261 0.04005 0.0
C32 C 0.78375 0.40218 0.09865 0.0
C33 C 0.77224 0.41745 0.1416 0.0
C34 C 0.76204 0.48909 0.27833 0.0
C35 C 0.75521 0.49947 0.34089 0.0
C36 C 0.98534 0.79614 0.3823 0.0
C37 C 1.00027 0.81051 0.41992 0.0
C38 C 0.02337 0.80413 0.42382 0.0
C39 C 0.03156 0.78511 0.3876 0.0
H40 H 0.98467 0.70434 0.24124 0.0
H41 H 0.96882 0.67041 0.18431 0.0
H42 H 0.03271 0.66035 0.07567 0.0
H43 H 0.04854 0.69296 0.1336 0.0
H44 H 0.08313 0.73039 0.10986 0.0
H45 H 0.1082 0.75022 0.02821 0.0
H46 H 0.10112 0.8119 0.15014 0.0
H47 H 0.07754 0.79193 0.23256 0.0
H48 H 0.98197 0.76718 0.3139 0.0
H49 H 0.96733 0.80014 0.37902 0.0
H50 H 0.03558 0.81461 0.45129 0.0
H51 H 0.04971 0.7816 0.38919 0.0
N52 N 0.01725 0.73627 0.27106 0.0
N53 N 0.04801 0.73057 0.19361 0.0
N54 N 0.04765 0.76246 0.26556 0.0
C55 C 0.02788 0.72323 0.22108 0.0
C56 C 0.05798 0.75009 0.21521 0.0
C57 C 0.02752 0.75589 0.29423 0.0
C58 C 0.01787 0.70172 0.19209 0.0
C59 C 0.99537 0.69465 0.20599 0.0
C60 C 0.98625 0.67524 0.17277 0.0
C61 C 0.9994 0.66241 0.12489 0.0
C62 C 0.02203 0.66927 0.11283 0.0
C63 C 0.03108 0.6884 0.14591 0.0
C64 C 0.07767 0.75978 0.17654 0.0
C65 C 0.08757 0.748 0.12025 0.0
C66 C 0.10189 0.75942 0.07318 0.0
C67 C 0.10627 0.78291 0.08088 0.0
C68 C 0.09842 0.79384 0.14173 0.0
C69 C 0.08448 0.78237 0.18916 0.0
C70 C 0.01702 0.77176 0.34594 0.0
C71 C 0.99362 0.77697 0.34575 0.0
C72 C 0.70345 0.99842 0.4166 0.0
C73 C 0.70096 0.0123 0.47608 0.0
C74 C 0.71719 0.02962 0.48723 0.0
C75 C 0.73428 0.03405 0.438 0.0
H76 H 0.80919 1.00458 0.27667 0.0
H77 H 0.84407 0.9925 0.21549 0.0
H78 H 0.82198 0.02897 0.03152 0.0
H79 H 0.78755 0.04081 0.09157 0.0
H80 H 0.76153 0.09267 0.13526 0.0
H81 H 0.73907 0.12256 0.07795 0.0
H82 H 0.68009 0.10196 0.19922 0.0
H83 H 0.70257 0.07384 0.25831 0.0
H84 H 0.72107 0.99312 0.31938 0.0
H85 H 0.69147 0.98477 0.40656 0.0
H86 H 0.71577 0.04094 0.53154 0.0
H87 H 0.74523 0.04874 0.44534 0.0
N88 N 0.76608 0.02247 0.28414 0.0
N89 N 0.76496 0.05219 0.20074 0.0
N90 N 0.73762 0.05075 0.28924 0.0
C91 C 0.77511 0.03295 0.22632 0.0
C92 C 0.74623 0.06116 0.23197 0.0
C93 C 0.74724 0.0316 0.3157 0.0
C94 C 0.79556 0.02377 0.18934 0.0
C95 C 0.81171 0.00976 0.22293 0.0
C96 C 0.83175 1.00297 0.18802 0.0
C97 C 0.83584 1.00972 0.11845 0.0
C98 C 0.81933 0.02318 0.08464 0.0
C99 C 0.79959 0.03015 0.11953 0.0
C100 C 0.73383 0.08077 0.20106 0.0
C101 C 0.74386 0.09499 0.15036 0.0
C102 C 0.73093 0.11208 0.1174 0.0
C103 C 0.70762 0.11496 0.13356 0.0
C104 C 0.69804 0.10111 0.18618 0.0
C105 C 0.71099 0.08453 0.21985 0.0
C106 C 0.73581 0.02118 0.37662 0.0
C107 C 0.72071 1.00285 0.36731 0.0
C108 C 0.57049 0.72029 0.07997 0.0
C109 C 0.56711 0.73073 0.01457 0.0
C110 C 0.56516 0.75465 0.0114 0.0
C111 C 0.56336 0.7674 0.07267 0.0
H112 H 0.49255 0.81904 0.2323 0.0
H113 H 0.48478 0.85723 0.18383 0.0
H114 H 0.55693 0.87222 0.18938 0.0
H115 H 0.56434 0.83457 0.23797 0.0
H116 H 0.49077 0.75453 0.35018 0.0
H117 H 0.47854 0.71946 0.40998 0.0
H118 H 0.54901 0.70108 0.44424 0.0
H119 H 0.56102 0.73594 0.3848 0.0
H120 H 0.56959 0.72403 0.19044 0.0
H121 H 0.57205 0.70193 0.08497 0.0
H122 H 0.56315 0.7633 0.96175 0.0
H123 H 0.5598 0.7855 0.0684 0.0
N124 N 0.54774 0.79006 0.19733 0.0
N125 N 0.52764 0.78644 0.30354 0.0
N126 N 0.54739 0.75511 0.25583 0.0
C127 C 0.53493 0.79961 0.24856 0.0
C128 C 0.53448 0.76407 0.30772 0.0
C129 C 0.55391 0.76781 0.20019 0.0
C130 C 0.529 0.82405 0.2402 0.0
C131 C 0.50653 0.83096 0.22579 0.0
C132 C 0.50217 0.85268 0.19686 0.0
C133 C 0.52022 0.86791 0.18213 0.0
C134 C 0.5425 0.86128 0.20071 0.0
C135 C 0.5468 0.83966 0.2289 0.0
C136 C 0.52684 0.74807 0.36326 0.0
C137 C 0.50355 0.7435 0.37336 0.0
C138 C 0.4966 0.72322 0.40675 0.0
C139 C 0.5128 0.7072 0.43118 0.0
C140 C 0.53603 0.71295 0.42667 0.0
C141 C 0.54294 0.73302 0.39266 0.0
C142 C 0.56352 0.75638 0.138 0.0
C143 C 0.56881 0.733 0.14099 0.0
C144 C 0.1741 0.48277 0.05586 0.0
C145 C 0.17841 0.49047 0.98762 0.0
C146 C 0.20126 0.49492 0.96822 0.0
C147 C 0.21907 0.49299 0.0171 0.0
H148 H 0.30387 0.5152 0.14595 0.0
H149 H 0.34326 0.5117 0.18669 0.0
H150 H 0.32659 0.44745 0.28568 0.0
H151 H 0.28721 0.45124 0.24515 0.0
H152 H 0.2598 0.53361 0.34343 0.0
H153 H 0.24302 0.55513 0.44069 0.0
H154 H 0.17905 0.52012 0.40963 0.0
H155 H 0.1955 0.49909 0.31271 0.0
H156 H 0.1875 0.47618 0.1575 0.0
H157 H 0.15684 0.47937 0.07328 0.0
H158 H 0.20529 0.5006 0.91583 0.0
H159 H 0.23622 0.49774 1.00179 0.0
N160 N 0.25395 0.48519 0.13656 0.0
N161 N 0.2601 0.49894 0.25052 0.0
N162 N 0.2234 0.49931 0.20366 0.0
C163 C 0.26833 0.4894 0.19124 0.0
C164 C 0.23769 0.50391 0.25702 0.0
C165 C 0.23119 0.49015 0.14326 0.0
C166 C 0.2927 0.4832 0.19084 0.0
C167 C 0.30899 0.4998 0.17333 0.0
C168 C 0.33151 0.49787 0.19741 0.0
C169 C 0.33807 0.47942 0.24039 0.0
C170 C 0.32207 0.46203 0.25359 0.0
C171 C 0.29963 0.46395 0.22924 0.0
C172 C 0.22884 0.51484 0.32048 0.0
C173 C 0.24228 0.53028 0.35846 0.0
C174 C 0.23275 0.54259 0.41379 0.0
C175 C 0.20988 0.5391 0.43278 0.0
C176 C 0.19685 0.52286 0.39673 0.0
C177 C 0.20618 0.51098 0.34086 0.0
C178 C 0.21432 0.48679 0.08644 0.0
C179 C 0.19175 0.48102 0.10444 0.0
C180 C 1.00683 0.19832 0.05297 0.0
C181 C 0.01589 0.20101 0.9855 0.0
C182 C 0.02524 0.22242 0.96718 0.0
C183 C 0.02625 0.24035 0.01601 0.0
H184 H 0.98422 0.31293 0.17939 0.0
H185 H 0.97602 0.35091 0.22749 0.0
H186 H 0.04806 0.36165 0.26007 0.0
H187 H 0.05605 0.32389 0.21269 0.0
H188 H 0.03857 0.28003 0.38229 0.0
H189 H 0.04683 0.26277 0.49544 0.0
H190 H 0.0646 0.19953 0.39377 0.0
H191 H 0.05615 0.21656 0.28063 0.0
H192 H 1.0022 0.21282 0.15447 0.0
H193 H 0.99971 0.18209 0.0693 0.0
H194 H 0.03231 0.22512 0.91557 0.0
H195 H 0.0344 0.25625 1.00132 0.0
N196 N 0.01985 0.27661 0.1356 0.0
N197 N 0.03434 0.28157 0.24896 0.0
N198 N 0.03268 0.24499 0.20154 0.0
C199 C 0.02531 0.29065 0.19015 0.0
C200 C 0.03809 0.25892 0.25534 0.0
C201 C 0.02374 0.25354 0.1414 0.0
C202 C 0.0208 0.31556 0.19131 0.0
C203 C 0.99832 0.32391 0.19359 0.0
C204 C 0.99364 0.34557 0.22203 0.0
C205 C 0.01136 0.35917 0.24918 0.0
C206 C 0.03395 0.3515 0.24112 0.0
C207 C 0.03858 0.33 0.21275 0.0
C208 C 0.04635 0.24951 0.32243 0.0
C209 C 0.04473 0.26259 0.38378 0.0
C210 C 0.04954 0.25281 0.44865 0.0
C211 C 0.05647 0.22993 0.45327 0.0
C212 C 0.05965 0.21736 0.39164 0.0
C213 C 0.0545 0.22701 0.32687 0.0
C214 C 0.01838 0.23706 0.08462 0.0
C215 C 1.00829 0.21597 0.10192 0.0
C216 C 0.30615 0.03973 0.06027 0.0
C217 C 0.3026 0.03107 0.99292 0.0
C218 C 0.28016 0.02459 0.97457 0.0
C219 C 0.26216 0.02565 0.02347 0.0
H220 H 0.18581 0.98812 0.19851 0.0
H221 H 0.14696 0.98656 0.24462 0.0
H222 H 0.1434 0.06018 0.23903 0.0
H223 H 0.18232 0.06157 0.19228 0.0
H224 H 0.22401 1.00097 0.38025 0.0
H225 H 0.24313 0.98767 0.48635 0.0
H226 H 0.30502 0.02141 0.41924 0.0
H227 H 0.28606 0.03482 0.31516 0.0
H228 H 0.29219 0.04704 0.16033 0.0
H229 H 0.32301 0.04462 0.0776 0.0
H230 H 0.27654 0.0182 0.92288 0.0
H231 H 0.24542 0.01953 0.00881 0.0
N232 N 0.22611 0.02957 0.13923 0.0
N233 N 0.22099 0.02264 0.25969 0.0
N234 N 0.25762 0.02745 0.21472 0.0
C235 C 0.21199 0.02587 0.19532 0.0
C236 C 0.24375 0.02353 0.26985 0.0
C237 C 0.24926 0.03043 0.14941 0.0
C238 C 0.1869 0.02493 0.19043 0.0
C239 C 0.17623 1.00389 0.20338 0.0
C240 C 0.15412 1.00304 0.23107 0.0
C241 C 0.14221 0.02326 0.24687 0.0
C242 C 0.15202 0.04428 0.22724 0.0
C243 C 0.17424 0.0451 0.19964 0.0
C244 C 0.25367 0.01865 0.33894 0.0
C245 C 0.24153 1.00599 0.38929 0.0
C246 C 0.25245 0.99833 0.44987 0.0
C247 C 0.27554 1.00348 0.46131 0.0
C248 C 0.2871 0.01743 0.41293 0.0
C249 C 0.2763 0.0249 0.35255 0.0
C250 C 0.26623 0.03321 0.09179 0.0
C251 C 0.28832 0.04091 0.10846 0.0
C252 C 0.61228 0.27713 0.17972 0.0
C253 C 0.61146 0.27985 0.25264 0.0
C254 C 0.59577 0.26654 0.29101 0.0
C255 C 0.57961 0.25315 0.2569 0.0
H256 H 0.49742 0.22351 0.26511 0.0
H257 H 0.48671 0.19079 0.33782 0.0
H258 H 0.51604 0.14522 0.18508 0.0
H259 H 0.52607 0.17807 0.1121 0.0
H260 H 0.48875 0.27776 0.0612 0.0
H261 H 0.48027 0.30897 0.97847 0.0
H262 H 0.5421 0.29332 0.86547 0.0
H263 H 0.5505 0.26269 0.94782 0.0
H264 H 0.59545 0.26413 0.08908 0.0
H265 H 0.62462 0.28639 0.14848 0.0
H266 H 0.59437 0.26806 0.34706 0.0
H267 H 0.56661 0.24468 0.28777 0.0
N268 N 0.54502 0.22806 0.17685 0.0
N269 N 0.51567 0.23516 0.09555 0.0
N270 N 0.54927 0.25716 0.09413 0.0
C271 C 0.52433 0.22264 0.14994 0.0
C272 C 0.52839 0.25251 0.06732 0.0
C273 C 0.55762 0.24518 0.14894 0.0
C274 C 0.51199 0.20327 0.18218 0.0
C275 C 0.50066 0.20642 0.24597 0.0
C276 C 0.49494 0.18764 0.28817 0.0
C277 C 0.50075 0.16522 0.2681 0.0
C278 C 0.51101 0.16209 0.20224 0.0
C279 C 0.51666 0.18091 0.16 0.0
C280 C 0.52006 0.2675 0.01011 0.0
C281 C 0.50007 0.28062 0.01733 0.0
C282 C 0.49544 0.29871 0.97065 0.0
C283 C 0.51051 0.30372 0.91525 0.0
C284 C 0.52995 0.28986 0.90683 0.0
C285 C 0.53475 0.2722 0.95389 0.0
C286 C 0.57851 0.25317 0.18387 0.0
C287 C 0.59567 0.26427 0.14557 0.0
C288 C 0.95672 0.04607 0.57208 0.0
Eu289 Eu 0.97589 0.01691 0.65344 0.0
C290 C 0.96381 0.07034 0.5717 0.0
C291 C 0.95663 0.0849 0.62596 0.0
C292 C 0.96971 0.10388 0.64431 0.0
C293 C 0.99005 0.10859 0.6086 0.0
C294 C 0.9957 0.09573 0.54933 0.0
C295 C 0.98257 0.07693 0.53057 0.0
C296 C 0.95773 0.99826 0.77068 0.0
C297 C 1.0046 0.04998 0.76052 0.0
C298 C 0.02923 0.97267 0.85748 0.0
Eu299 Eu 0.01105 0.99537 0.75552 0.0
C300 C 0.04553 0.95369 0.85906 0.0
C301 C 0.05223 0.94418 0.92277 0.0
C302 C 0.06726 0.92565 0.92415 0.0
C303 C 0.07591 0.9164 0.86168 0.0
C304 C 0.06943 0.92636 0.79788 0.0
C305 C 0.05433 0.94484 0.79661 0.0
C306 C 0.03275 1.00559 0.63302 0.0
C307 C 0.987 0.96379 0.63362 0.0
O308 O 0.97212 0.03156 0.5494 0.0
O309 O 0.94694 0.039 0.62972 0.0
O310 O 0.94853 0.99688 0.70917 0.0
O311 O 0.97606 1.00966 0.76747 0.0
O312 O 0.99189 0.04817 0.70403 0.0
O313 O 0.01273 0.03191 0.7938 0.0
O314 O 1.00907 0.96784 0.8318 0.0
O315 O 0.03744 0.99207 0.83428 0.0
O316 O 0.04275 0.99616 0.68599 0.0
O317 O 0.01214 1.00879 0.64859 0.0
O318 O 0.99764 0.96453 0.69475 0.0
O319 O 0.97868 0.98237 0.60325 0.0
H320 H 0.94209 0.08054 0.65831 0.0
H321 H 0.9647 0.11394 0.68899 0.0
H322 H 0.01084 0.09966 0.51907 0.0
H323 H 0.98838 0.06637 0.48775 0.0
H324 H 0.04552 0.95082 0.97136 0.0
H325 H 0.07145 0.9181 0.97414 0.0
H326 H 0.07583 0.91972 0.74895 0.0
H327 H 0.0493 0.95207 0.74686 0.0
C328 C 0.48546 0.97297 0.58033 0.0
Eu329 Eu 0.49591 0.99953 0.68238 0.0
C330 C 0.46435 0.95951 0.57475 0.0
C331 C 0.45537 0.94864 0.63447 0.0
C332 C 0.43207 0.94389 0.63911 0.0
C333 C 0.41763 0.94985 0.58403 0.0
C334 C 0.42694 0.95826 0.52152 0.0
C335 C 0.45023 0.96297 0.51676 0.0
C336 C 0.49709 0.98417 0.81696 0.0
C337 C 0.4547 0.02071 0.77096 0.0
C338 C 0.52029 0.05938 0.90193 0.0
Eu339 Eu 0.50729 0.0366 0.79323 0.0
C340 C 0.53795 0.07707 0.90927 0.0
C341 C 0.53445 0.09596 0.95277 0.0
C342 C 0.55142 0.11266 0.95941 0.0
C343 C 0.5722 0.11065 0.92275 0.0
C344 C 0.57523 0.09191 0.87791 0.0
C345 C 0.55828 0.07547 0.87086 0.0
C346 C 0.50097 0.05756 0.66619 0.0
C347 C 0.5486 0.01682 0.69705 0.0
O348 O 0.48201 0.99511 0.5784 0.0
O349 O 0.49982 0.96684 0.62938 0.0
O350 O 0.48315 0.97683 0.76993 0.0
O351 O 0.51044 0.9987 0.79008 0.0
O352 O 0.46069 0.0123 0.70971 0.0
O353 O 0.47003 0.0283 0.81601 0.0
O354 O 0.52771 0.03883 0.88741 0.0
O355 O 0.50249 0.06517 0.86479 0.0
O356 O 0.5064 0.06812 0.7228 0.0
O357 O 0.49952 0.0366 0.68037 0.0
O358 O 0.54273 0.02912 0.75209 0.0
O359 O 0.53355 1.00517 0.66004 0.0
H360 H 0.46582 0.94581 0.68018 0.0
H361 H 0.42509 0.93759 0.68787 0.0
H362 H 0.41589 0.96308 0.47866 0.0
H363 H 0.4567 0.97153 0.4706 0.0
H364 H 0.51869 0.09769 0.98197 0.0
H365 H 0.54839 0.12694 0.99395 0.0
H366 H 0.59111 0.0893 0.85005 0.0
H367 H 0.56133 0.06124 0.83616 0.0
C368 C 0.53803 0.47664 0.45774 0.0
Eu369 Eu 0.51812 0.49409 0.56662 0.0
C370 C 0.55559 0.45923 0.44516 0.0
C371 C 0.57338 0.45548 0.49286 0.0
C372 C 0.58951 0.43829 0.48082 0.0
C373 C 0.58797 0.42447 0.42119 0.0
C374 C 0.57007 0.42845 0.37366 0.0
C375 C 0.55413 0.44571 0.38545 0.0
C376 C 0.54245 0.50937 0.67784 0.0
C377 C 0.50184 0.45383 0.6774 0.0
C378 C 0.47454 0.52914 0.79163 0.0
Eu379 Eu 0.48941 0.50643 0.68543 0.0
C380 C 0.48373 0.55129 0.8137 0.0
C381 C 0.46924 0.56876 0.83671 0.0
C382 C 0.47774 0.59089 0.84587 0.0
C383 C 0.50081 0.59582 0.83141 0.0
C384 C 0.51528 0.57809 0.80959 0.0
C385 C 0.50686 0.5561 0.80111 0.0
C386 C 0.46501 0.49164 0.57348 0.0
C387 C 0.50405 0.54517 0.57457 0.0
O388 O 0.51854 0.4692 0.48221 0.0
O389 O 0.54485 0.49538 0.48802 0.0
O390 O 0.54713 0.51438 0.61369 0.0
O391 O 0.52572 0.49592 0.6805 0.0
O392 O 0.5107 0.45917 0.61574 0.0
O393 O 0.4934 0.46971 0.71872 0.0
O394 O 0.48853 0.51182 0.7978 0.0
O395 O 0.46428 0.52954 0.73121 0.0
O396 O 0.45948 0.4872 0.6378 0.0
O397 O 0.48209 0.50463 0.57178 0.0
O398 O 0.50307 0.54045 0.64186 0.0
O399 O 0.50512 0.52823 0.5298 0.0
H400 H 0.5747 0.46569 0.53967 0.0
H401 H 0.60306 0.43574 0.51834 0.0
H402 H 0.56789 0.41776 0.3282 0.0
H403 H 0.54039 0.44824 0.34848 0.0
H404 H 0.45127 0.56545 0.84554 0.0
H405 H 0.46623 0.60414 0.86361 0.0
H406 H 0.53299 0.58133 0.79672 0.0
H407 H 0.51832 0.54305 0.78178 0.0
C408 C 1.00642 0.55949 0.56863 0.0
Eu409 Eu 0.98875 0.52884 0.65124 0.0
C410 C 0.02704 0.57332 0.57742 0.0
C411 C 0.03668 0.5756 0.64401 0.0
C412 C 0.05886 0.58388 0.65135 0.0
C413 C 0.07158 0.59004 0.59226 0.0
C414 C 0.06116 0.58972 0.52633 0.0
C415 C 0.039 0.58126 0.5189 0.0
C416 C 0.97295 0.54283 0.77792 0.0
C417 C 0.0301 0.50888 0.74867 0.0
C418 C 0.96279 0.46086 0.82369 0.0
Eu419 Eu 0.97978 0.49156 0.73944 0.0
C420 C 0.94333 0.44501 0.82078 0.0
C421 C 0.94588 0.42242 0.84409 0.0
C422 C 0.92744 0.40727 0.8419 0.0
C423 C 0.9061 0.41451 0.81639 0.0
C424 C 0.90386 0.43707 0.79162 0.0
C425 C 0.92228 0.45209 0.79353 0.0
C426 C 0.9946 0.47774 0.61071 0.0
C427 C 0.93848 0.51152 0.64262 0.0
O428 O 0.01018 0.53759 0.56199 0.0
O429 O 0.98976 0.56381 0.6119 0.0
O430 O 0.96539 0.55 0.71848 0.0
O431 O 0.98796 0.52757 0.76859 0.0
O432 O 0.0246 0.51963 0.69033 0.0
O433 O 0.01421 0.4986 0.78549 0.0
O434 O 0.95801 0.48265 0.82767 0.0
O435 O 0.97938 0.45669 0.78016 0.0
O436 O 1.00203 0.46973 0.6693 0.0
O437 O 0.98011 0.49323 0.62236 0.0
O438 O 0.9439 0.5016 0.7024 0.0
O439 O 0.9546 0.52087 0.60425 0.0
H440 H 0.02771 0.56944 0.68985 0.0
H441 H 0.06667 0.58385 0.70251 0.0
H442 H 0.07083 0.59408 0.47994 0.0
H443 H 0.03184 0.57949 0.46717 0.0
H444 H 0.96209 0.41655 0.86452 0.0
H445 H 0.92981 0.39 0.86092 0.0
H446 H 0.88762 0.44349 0.77305 0.0
H447 H 0.91991 0.46937 0.77479 0.0
H448 H 0.13608 0.99788 0.36508 0.0
H449 H 0.10194 0.04767 0.23382 0.0
H450 H 0.06893 0.04773 0.3153 0.0
H451 H 0.08582 0.96567 0.41771 0.0
H452 H 0.09627 0.96126 0.50506 0.0
H453 H 0.1161 0.96423 0.43369 0.0
H454 H 0.13603 0.99754 0.49802 0.0
H455 H 0.11623 0.99473 0.56938 0.0
H456 H 0.11939 0.02183 0.5255 0.0
H457 H 0.03959 0.04245 0.4157 0.0
H458 H 0.01848 0.03367 0.52525 0.0
H459 H 0.07326 0.98853 0.58932 0.0
C460 C 0.12146 1.00843 0.35241 0.0
C461 C 0.12146 0.02248 0.29226 0.0
C462 C 0.10228 0.03665 0.27928 0.0
C463 C 0.08344 0.03675 0.32524 0.0
C464 C 0.08411 0.02272 0.38435 0.0
C465 C 0.10275 1.0089 0.39788 0.0
C466 C 0.1001 0.99631 0.46646 0.0
C467 C 0.09953 0.97033 0.45502 0.0
C468 C 0.11906 1.00302 0.51785 0.0
C469 C 0.07709 1.0052 0.48994 0.0
C470 C 0.0679 0.02026 0.44189 0.0
C471 C 0.04669 0.03062 0.45337 0.0
C472 C 0.03476 0.02551 0.51554 0.0
C473 C 0.04421 0.01042 0.56558 0.0
C474 C 0.06559 1.00018 0.55208 0.0
H475 H 0.50725 0.16486 0.41034 0.0
H476 H 0.48832 0.12063 0.239 0.0
H477 H 0.48593 0.08793 0.32091 0.0
H478 H 0.542 0.125 0.50035 0.0
H479 H 0.53324 0.13426 0.58586 0.0
H480 H 0.53283 0.15406 0.51385 0.0
H481 H 0.49005 0.16249 0.53696 0.0
H482 H 0.49036 0.14281 0.60935 0.0
H483 H 0.47 0.13917 0.53997 0.0
H484 H 0.48664 0.05935 0.42454 0.0
H485 H 0.48981 0.03884 0.53796 0.0
H486 H 0.50738 0.10254 0.63868 0.0
C487 C 0.50215 0.14845 0.38986 0.0
C488 C 0.49786 0.14552 0.31778 0.0
C489 C 0.49187 0.12343 0.29366 0.0
C490 C 0.49037 0.10471 0.33997 0.0
C491 C 0.49488 0.10825 0.41057 0.0
C492 C 0.50056 0.12966 0.43522 0.0
C493 C 0.50499 0.12909 0.51297 0.0
C494 C 0.52973 0.13601 0.52917 0.0
C495 C 0.48782 0.14429 0.55211 0.0
C496 C 0.50098 0.10403 0.52851 0.0
C497 C 0.49518 0.09215 0.46905 0.0
C498 C 0.49107 0.0686 0.47133 0.0
C499 C 0.49291 0.05704 0.53589 0.0
C500 C 0.49876 0.06905 0.59721 0.0
C501 C 0.50279 0.09283 0.59287 0.0
H502 H 0.34709 0.46831 0.37715 0.0
H503 H 0.37998 0.49157 0.18683 0.0
H504 H 0.41655 0.49492 0.25008 0.0
H505 H 0.37557 0.50542 0.49085 0.0
H506 H 0.37801 0.48518 0.56151 0.0
H507 H 0.35493 0.4828 0.50023 0.0
H508 H 0.36688 0.44117 0.47295 0.0
H509 H 0.38997 0.44337 0.53447 0.0
H510 H 0.39574 0.43526 0.44557 0.0
H511 H 0.44898 0.49804 0.3359 0.0
H512 H 0.47471 0.50082 0.43736 0.0
H513 H 0.42091 0.47515 0.57203 0.0
C514 C 0.36209 0.47356 0.34822 0.0
C515 C 0.36063 0.47951 0.27663 0.0
C516 C 0.3806 0.48698 0.24155 0.0
C517 C 0.40148 0.48883 0.27702 0.0
C518 C 0.40221 0.48313 0.3477 0.0
C519 C 0.38305 0.47556 0.38288 0.0
C520 C 0.38812 0.47164 0.45963 0.0
C521 C 0.37328 0.48719 0.50575 0.0
C522 C 0.38499 0.44635 0.4793 0.0
C523 C 0.41305 0.47851 0.46245 0.0
C524 C 0.42087 0.48495 0.39718 0.0
C525 C 0.44307 0.49284 0.38705 0.0
C526 C 0.45756 0.49439 0.44505 0.0
C527 C 0.44986 0.48813 0.51255 0.0
C528 C 0.42736 0.47983 0.521 0.0
H529 H 0.03076 0.37169 0.37348 0.0
H530 H 0.98037 0.3937 0.22213 0.0
H531 H 0.97191 0.42766 0.2947 0.0
H532 H 0.99927 0.38776 0.52402 0.0
H533 H 0.02398 0.39668 0.57257 0.0
H534 H 0.02672 0.37499 0.50683 0.0
H535 H 0.058 0.39885 0.44482 0.0
H536 H 0.05533 0.42066 0.51036 0.0
H537 H 0.05196 0.42793 0.41954 0.0
H538 H 0.96875 0.45933 0.38658 0.0
H539 H 0.96957 0.48407 0.49111 0.0
H540 H 0.02164 0.44063 0.58228 0.0
C541 C 0.0182 0.38383 0.35481 0.0
C542 C 1.00644 0.38011 0.29138 0.0
C543 C 0.98964 0.39614 0.27031 0.0
C544 C 0.9848 0.41555 0.31111 0.0
C545 C 0.99678 0.41867 0.37328 0.0
C546 C 0.01306 0.40313 0.39509 0.0
C547 C 0.02284 0.40973 0.46537 0.0
C548 C 0.0179 0.39119 0.52043 0.0
C549 C 0.04856 0.41458 0.45964 0.0
C550 C 0.0095 0.43139 0.48012 0.0
C551 C 0.99467 0.43643 0.4262 0.0
C552 C 0.98036 0.45551 0.42887 0.0
C553 C 0.98099 0.46953 0.48841 0.0
C554 C 0.99569 0.46434 0.54491 0.0
C555 C 0.01027 0.44513 0.53993 0.0
H556 H 0.84115 0.99552 0.98287 0.0
H557 H 0.87966 0.01141 0.16925 0.0
H558 H 0.91568 1.00638 0.10335 0.0
H559 H 0.88162 0.95296 0.91122 0.0
H560 H 0.87667 0.96222 0.82279 0.0
H561 H 0.85423 0.96451 0.88681 0.0
H562 H 0.85042 1.00775 0.85975 0.0
H563 H 0.87284 1.0056 0.79588 0.0
H564 H 0.87523 0.0258 0.86618 0.0
H565 H 0.9475 1.00417 0.01227 0.0
H566 H 0.97178 1.00364 0.90618 0.0
H567 H 0.91226 0.98835 0.78097 0.0
C568 C 0.85716 0.99763 0.01017 0.0
C569 C 0.85753 1.00385 0.08141 0.0
C570 C 0.87889 1.00635 0.11506 0.0
C571 C 0.89946 1.00363 0.07789 0.0
C572 C 0.89844 0.99808 0.00722 0.0
C573 C 0.87779 0.99484 0.97401 0.0
C574 C 0.88118 0.99015 0.89702 0.0
C575 C 0.87294 0.96602 0.87838 0.0
C576 C 0.86921 1.00841 0.85209 0.0
C577 C 0.90691 0.99195 0.89142 0.0
C578 C 0.91665 0.9964 0.95553 0.0
C579 C 0.94006 1.00031 0.9621 0.0
C580 C 0.95373 0.99998 0.90161 0.0
C581 C 0.94398 0.99575 0.83542 0.0
C582 C 0.92032 0.99127 0.83089 0.0
H583 H 0.49123 0.8759 0.07102 0.0
H584 H 0.54127 0.90941 0.20192 0.0
H585 H 0.53935 0.94363 0.1267 0.0
H586 H 0.51129 0.8963 0.91126 0.0
H587 H 0.48362 0.90041 0.87228 0.0
H588 H 0.48738 0.87924 0.93954 0.0
H589 H 0.45525 0.89799 0.01263 0.0
H590 H 0.45125 0.91915 0.94521 0.0
H591 H 0.45698 0.92794 0.03341 0.0
H592 H 0.53505 0.97284 0.02939 0.0
H593 H 0.52664 0.99527 0.92272 0.0
H594 H 0.47782 0.94386 0.85934 0.0
C595 C 0.50132 0.89064 0.08521 0.0
C596 C 0.51649 0.88976 0.14264 0.0
C597 C 0.52973 0.9094 0.15791 0.0
C598 C 0.52868 0.92903 0.11559 0.0
C599 C 0.51408 0.92904 0.05834 0.0
C600 C 0.50037 0.91047 0.0437 0.0
C601 C 0.48677 0.91452 0.97749 0.0
C602 C 0.49262 0.89655 0.92188 0.0
C603 C 0.46103 0.91493 0.99315 0.0
C604 C 0.49534 0.93802 0.95642 0.0
C605 C 0.51108 0.94613 1.00369 0.0
C606 C 0.52241 0.96682 0.99276 0.0
C607 C 0.51754 0.97949 0.93202 0.0
C608 C 0.50135 0.97156 0.88315 0.0
C609 C 0.49002 0.95062 0.89621 0.0
H610 H 0.61007 0.48176 0.02877 0.0
H611 H 0.65672 0.53617 0.97021 0.0
H612 H 0.63106 0.5472 0.87431 0.0
H613 H 0.59799 0.4641 0.86029 0.0
H614 H 0.56831 0.45767 0.87556 0.0
H615 H 0.58834 0.45617 0.94638 0.0
H616 H 0.56372 0.48464 0.01734 0.0
H617 H 0.54353 0.48612 0.94666 0.0
H618 H 0.55631 0.51189 0.97958 0.0
H619 H 0.60328 0.54915 0.77531 0.0
H620 H 0.5747 0.54256 0.68303 0.0
H621 H 0.5458 0.48694 0.80405 0.0
C622 C 0.61478 0.49623 0.99652 0.0
C623 C 0.63551 0.50814 0.00782 0.0
C624 C 0.64082 0.527 0.96411 0.0
C625 C 0.62638 0.53334 0.90897 0.0
C626 C 0.60651 0.52079 0.8981 0.0
C627 C 0.60055 0.50276 0.94106 0.0
C628 C 0.5791 0.49104 0.91497 0.0
C629 C 0.58373 0.46575 0.8983 0.0
C630 C 0.5595 0.49358 0.9678 0.0
C631 C 0.57443 0.50475 0.84921 0.0
C632 C 0.59034 0.52199 0.84091 0.0
C633 C 0.59055 0.53595 0.78184 0.0
C634 C 0.57431 0.53202 0.72957 0.0
C635 C 0.55804 0.51432 0.73654 0.0
C636 C 0.55786 0.5008 0.79781 0.0
H637 H 0.02092 0.62267 0.08021 0.0
H638 H 0.95567 0.65795 0.07405 0.0
H639 H 0.94066 0.6282 0.99619 0.0
H640 H 0.02237 0.60898 0.90238 0.0
H641 H 0.03577 0.58148 0.91371 0.0
H642 H 0.04051 0.6037 0.97657 0.0
H643 H 0.02639 0.57687 0.07528 0.0
H644 H 0.02158 0.55456 0.01252 0.0
H645 H 0.99866 0.56378 0.06866 0.0
H646 H 0.93401 0.59738 0.90777 0.0
H647 H 0.93625 0.56783 0.81639 0.0
H648 H 1.00572 0.55227 0.87755 0.0
C649 C 1.00339 0.62415 0.06314 0.0
C650 C 0.98953 0.64288 0.08412 0.0
C651 C 0.96662 0.64374 0.06046 0.0
C652 C 0.95794 0.62691 0.01564 0.0
C653 C 0.97225 0.60912 0.99476 0.0
C654 C 0.99447 0.60755 0.01799 0.0
C655 C 1.0068 0.58761 0.98375 0.0
C656 C 0.02759 0.59595 0.94161 0.0
C657 C 0.01377 0.56964 0.03832 0.0
C658 C 0.98821 0.57856 0.93621 0.0
C659 C 0.96835 0.59113 0.94396 0.0
C660 C 0.94932 0.58718 0.90225 0.0
C661 C 0.95074 0.57034 0.85049 0.0
C662 C 0.97096 0.55747 0.84073 0.0
C663 C 0.9898 0.56136 0.88518 0.0
H664 H 0.02211 0.22956 0.54642 0.0
H665 H 0.08905 0.2014 0.50711 0.0
H666 H 0.08163 0.17079 0.59216 0.0
H667 H 0.01547 0.20116 0.74147 0.0
H668 H 0.98568 0.19695 0.7226 0.0
H669 H 0.9999 0.22261 0.69342 0.0
H670 H 0.98661 0.2144 0.56748 0.0
H671 H 0.97281 0.1889 0.59578 0.0
H672 H 0.99403 0.18749 0.52756 0.0
H673 H 0.06298 0.13713 0.63454 0.0
H674 H 0.03589 0.10525 0.62791 0.0
H675 H 0.97936 0.15259 0.63931 0.0
C676 C 0.03569 0.21781 0.55993 0.0
C677 C 0.05611 0.21773 0.5209 0.0
C678 C 0.07335 0.20174 0.53704 0.0
C679 C 0.06926 0.18437 0.58576 0.0
C680 C 0.04786 0.18324 0.61789 0.0
C681 C 0.03147 0.20004 0.60729 0.0
C682 C 1.00821 0.19214 0.63265 0.0
C683 C 1.00196 0.20392 0.70163 0.0
C684 C 0.98937 0.19591 0.57749 0.0
C685 C 0.01316 0.16709 0.6452 0.0
C686 C 0.03641 0.16272 0.64197 0.0
C687 C 0.04487 0.14046 0.63931 0.0
C688 C 0.02937 0.12243 0.63463 0.0
C689 C 1.00566 0.12674 0.63225 0.0
C690 C 0.99747 0.14908 0.64219 0.0
H691 H 0.30841 0.02208 0.5433 0.0
H692 H 0.27379 0.95845 0.4996 0.0
H693 H 0.30441 0.93722 0.55894 0.0
H694 H 0.35747 1.00469 0.48681 0.0
H695 H 0.37569 0.01956 0.54709 0.0
H696 H 0.34775 0.03044 0.52895 0.0
H697 H 0.33703 0.02911 0.66024 0.0
H698 H 0.36552 0.01923 0.67851 0.0
H699 H 0.34121 1.00307 0.7088 0.0
H700 H 0.34302 0.92255 0.58663 0.0
H701 H 0.38494 0.91637 0.58583 0.0
H702 H 0.39549 0.98912 0.60599 0.0
C703 C 0.3068 1.00375 0.54929 0.0
C704 C 0.28883 0.99192 0.51681 0.0
C705 C 0.28724 0.96794 0.52503 0.0
C706 C 0.30468 0.9557 0.55849 0.0
C707 C 0.32343 0.96773 0.58378 0.0
C708 C 0.32438 0.99135 0.58062 0.0
C709 C 0.34803 1.00007 0.59699 0.0
C710 C 0.35778 0.0145 0.53634 0.0
C711 C 0.34795 0.01366 0.66529 0.0
C712 C 0.36063 0.97768 0.6049 0.0
C713 C 0.34611 0.95916 0.59906 0.0
C714 C 0.35445 0.93684 0.59378 0.0
C715 C 0.37818 0.93344 0.5929 0.0
C716 C 0.39303 0.95232 0.59635 0.0
C717 C 0.38419 0.9745 0.6046 0.0
H718 H 0.61923 0.32194 0.19575 0.0
H719 H 0.62804 0.2834 0.38749 0.0
H720 H 0.63294 0.31939 0.45157 0.0
H721 H 0.65866 0.37322 0.25038 0.0
H722 H 0.63972 0.39234 0.20457 0.0
H723 H 0.645 0.36406 0.17118 0.0
H724 H 0.60149 0.35666 0.17005 0.0
H725 H 0.596 0.38439 0.20499 0.0
H726 H 0.58542 0.35946 0.24996 0.0
H727 H 0.62363 0.35776 0.49778 0.0
H728 H 0.60482 0.39466 0.5196 0.0
H729 H 0.60576 0.40932 0.29786 0.0
C730 C 0.62369 0.3208 0.25032 0.0
C731 C 0.62284 0.29971 0.28645 0.0
C732 C 0.62809 0.29932 0.35856 0.0
C733 C 0.63115 0.31973 0.39542 0.0
C734 C 0.62975 0.34037 0.35907 0.0
C735 C 0.62698 0.341 0.28746 0.0
C736 C 0.6223 0.36506 0.26186 0.0
C737 C 0.64264 0.37421 0.21951 0.0
C738 C 0.59999 0.36643 0.21935 0.0
C739 C 0.62019 0.37734 0.33075 0.0
C740 C 0.62524 0.36304 0.38624 0.0
C741 C 0.62059 0.36942 0.45486 0.0
C742 C 0.60986 0.39049 0.46681 0.0
C743 C 0.60376 0.4049 0.41033 0.0
C744 C 0.61015 0.39864 0.34204 0.0
H745 H 0.18369 0.52534 0.5414 0.0
H746 H 0.20872 0.58562 0.43516 0.0
H747 H 0.17953 0.609 0.49451 0.0
H748 H 0.1303 0.53474 0.50998 0.0
H749 H 0.11828 0.52405 0.59032 0.0
H750 H 0.14548 0.51383 0.56142 0.0
H751 H 0.16492 0.52672 0.67727 0.0
H752 H 0.13687 0.53483 0.70604 0.0
H753 H 0.15987 0.55527 0.70888 0.0
H754 H 0.14125 0.62232 0.53046 0.0
H755 H 0.09951 0.62499 0.54934 0.0
H756 H 0.09945 0.55684 0.63698 0.0
C757 C 0.18372 0.54368 0.53385 0.0
C758 C 0.19837 0.55378 0.4844 0.0
C759 C 0.19783 0.57769 0.47398 0.0
C760 C 0.18123 0.59106 0.50735 0.0
C761 C 0.16566 0.58026 0.55167 0.0
C762 C 0.16716 0.55712 0.56627 0.0
C763 C 0.14623 0.54863 0.60445 0.0
C764 C 0.1344 0.52921 0.56407 0.0
C765 C 0.15237 0.54096 0.67865 0.0
C766 C 0.13196 0.57018 0.60478 0.0
C767 C 0.14355 0.58838 0.57504 0.0
C768 C 0.13231 0.60861 0.55682 0.0
C769 C 0.10864 0.61001 0.56741 0.0
C770 C 0.09664 0.59139 0.59662 0.0
C771 C 0.10859 0.57167 0.61783 0.0
H772 H 0.13157 0.82252 0.08435 0.0
H773 H 0.09815 0.77612 0.94151 0.0
H774 H 0.09862 0.80555 0.8512 0.0
H775 H 0.09681 0.86334 0.06062 0.0
H776 H 0.11577 0.88751 0.0651 0.0
H777 H 0.12356 0.86124 0.10662 0.0
H778 H 0.16126 0.85984 0.03623 0.0
H779 H 0.15379 0.88656 0.99496 0.0
H780 H 0.16058 0.86199 0.94247 0.0
H781 H 0.08933 0.84144 0.79398 0.0
H782 H 0.07273 0.87948 0.77519 0.0
H783 H 0.10958 0.90495 0.95447 0.0
C784 C 0.12518 0.81829 0.03314 0.0
C785 C 0.11453 0.79702 0.02095 0.0
C786 C 0.10669 0.79205 0.95281 0.0
C787 C 0.10679 0.80885 0.90069 0.0
C788 C 0.11484 0.83055 0.9171 0.0
C789 C 0.1244 0.83522 0.98147 0.0
C790 C 0.12686 0.86075 0.99228 0.0
C791 C 0.11502 0.86864 0.06007 0.0
C792 C 0.15213 0.86769 0.99139 0.0
C793 C 0.1147 0.86962 0.92805 0.0
C794 C 0.1089 0.85199 0.88371 0.0
C795 C 0.09451 0.85549 0.82681 0.0
C796 C 0.0851 0.87724 0.81652 0.0
C797 C 0.08987 0.89521 0.86344 0.0
C798 C 0.10569 0.89152 0.91778 0.0
H799 H 0.66871 0.13753 0.1748 0.0
H800 H 0.71114 0.12501 0.99325 0.0
H801 H 0.68016 0.13798 0.91766 0.0
H802 H 0.62755 0.10746 0.11856 0.0
H803 H 0.60375 0.12354 0.15258 0.0
H804 H 0.63102 0.12568 0.19343 0.0
H805 H 0.63041 0.1696 0.17634 0.0
H806 H 0.60285 0.16751 0.13507 0.0
H807 H 0.6261 0.18151 0.09057 0.0
H808 H 0.64297 0.13979 0.86076 0.0
H809 H 0.60474 0.12605 0.83001 0.0
H810 H 0.58457 0.12961 0.04734 0.0
C811 C 0.67173 0.13814 0.11917 0.0
C812 C 0.69235 0.12979 0.09044 0.0
C813 C 0.69575 0.13149 0.01743 0.0
C814 C 0.67807 0.13888 0.97366 0.0
C815 C 0.65698 0.14431 1.00329 0.0
C816 C 0.65377 0.14413 0.07484 0.0
C817 C 0.62859 0.14412 0.09341 0.0
C818 C 0.6224 0.12399 0.14221 0.0
C819 C 0.62158 0.16706 0.12574 0.0
C820 C 0.61827 0.14143 0.02161 0.0
C821 C 0.63477 0.14326 0.97016 0.0
C822 C 0.62988 0.13868 0.90054 0.0
C823 C 0.60814 0.13056 0.88368 0.0
C824 C 0.59178 0.12617 0.9366 0.0
C825 C 0.59653 0.13306 1.00558 0.0
H826 H 0.58483 0.68909 0.97656 0.0
H827 H 0.5334 0.73914 0.91944 0.0
H828 H 0.51427 0.71062 0.84706 0.0
H829 H 0.58167 0.65303 0.80859 0.0
H830 H 0.58488 0.62725 0.85932 0.0
H831 H 0.59889 0.65314 0.88638 0.0
H832 H 0.57945 0.64946 0.00736 0.0
H833 H 0.56494 0.62404 0.9804 0.0
H834 H 0.54875 0.64802 0.01251 0.0
H835 H 0.49508 0.6752 0.80838 0.0
H836 H 0.47988 0.63617 0.79501 0.0
H837 H 0.54224 0.60861 0.88362 0.0
C838 C 0.57009 0.69429 0.94648 0.0
C839 C 0.56068 0.71637 0.954 0.0
C840 C 0.5413 0.72252 0.91387 0.0
C841 C 0.53014 0.70631 0.87276 0.0
C842 C 0.53866 0.68412 0.87169 0.0
C843 C 0.55854 0.67819 0.90621 0.0
C844 C 0.56211 0.65257 0.90627 0.0
C845 C 0.58314 0.64612 0.86251 0.0
C846 C 0.56389 0.64299 0.98105 0.0
C847 C 0.54034 0.645 0.87115 0.0
C848 C 0.52729 0.66342 0.85007 0.0
C849 C 0.50541 0.66063 0.82302 0.0
C850 C 0.49676 0.63842 0.81676 0.0
C851 C 0.50991 0.61932 0.83797 0.0
C852 C 0.53201 0.6228 0.86514 0.0
H853 H 0.8123 0.36728 0.05549 0.0
H854 H 0.76673 0.39461 0.89782 0.0
H855 H 0.79643 0.3897 0.80973 0.0
H856 H 0.85256 0.40173 0.01861 0.0
H857 H 0.87691 0.38352 0.0339 0.0
H858 H 0.85043 0.37745 0.07643 0.0
H859 H 0.85036 0.33671 0.02435 0.0
H860 H 0.8772 0.34264 0.98173 0.0
H861 H 0.85316 0.33293 0.93148 0.0
H862 H 0.83261 0.39484 0.74864 0.0
H863 H 0.87067 0.41054 0.72347 0.0
H864 H 0.89464 0.38594 0.92383 0.0
C865 C 0.80831 0.37152 1.00195 0.0
C866 C 0.78719 0.38174 0.98449 0.0
C867 C 0.78253 0.3865 0.91339 0.0
C868 C 0.79949 0.38383 0.86247 0.0
C869 C 0.8211 0.37648 0.88315 0.0
C870 C 0.8255 0.3701 0.95141 0.0
C871 C 0.85096 0.36866 0.96491 0.0
C872 C 0.8581 0.38376 0.027 0.0
C873 C 0.85835 0.34375 0.97626 0.0
C874 C 0.86007 0.37779 0.89632 0.0
C875 C 0.84268 0.38089 0.84851 0.0
C876 C 0.84642 0.39198 0.78502 0.0
C877 C 0.86806 0.40111 0.77151 0.0
C878 C 0.88559 0.39969 0.82208 0.0
C879 C 0.88177 0.38686 0.88355 0.0
H880 H 0.98246 0.16924 0.95427 0.0
H881 H 0.05292 0.18661 0.90985 0.0
H882 H 0.05729 0.15078 0.84325 0.0
H883 H 0.9898 0.11042 0.9798 0.0
H884 H 0.96387 0.1019 0.93679 0.0
H885 H 0.96575 0.12963 0.97655 0.0
H886 H 0.95478 0.14863 0.85974 0.0
H887 H 0.95301 0.12109 0.81846 0.0
H888 H 0.97143 0.14289 0.78272 0.0
H889 H 0.05547 0.11026 0.79582 0.0
H890 H 0.0459 0.07114 0.75625 0.0
H891 H 0.97588 0.08117 0.82203 0.0
C892 C 0.99872 0.16565 0.92972 0.0
C893 C 0.01737 0.18084 0.93757 0.0
C894 C 0.03832 0.17547 0.90419 0.0
C895 C 0.041 0.15503 0.86656 0.0
C896 C 0.02249 0.14016 0.86152 0.0
C897 C 1.00158 0.14548 0.89084 0.0
C898 C 0.9844 0.12655 0.87775 0.0
C899 C 0.97544 0.11654 0.94684 0.0
C900 C 0.96474 0.1353 0.83191 0.0
C901 C 0.9991 0.10935 0.83892 0.0
C902 C 0.02108 0.11748 0.83049 0.0
C903 C 0.03821 0.10394 0.80112 0.0
C904 C 0.03269 0.08169 0.77919 0.0
C905 C 0.01021 0.07322 0.78599 0.0
C906 C 0.99318 0.08734 0.81575 0.0
H907 H 0.34207 0.05703 0.9806 0.0
H908 H 0.3094 0.99637 0.89784 0.0
H909 H 0.34387 0.98826 0.82832 0.0
H910 H 0.3745 0.07306 0.82637 0.0
H911 H 0.39919 0.08154 0.87575 0.0
H912 H 0.37114 0.08381 0.91378 0.0
H913 H 0.38422 0.05897 0.01845 0.0
H914 H 0.41228 0.05658 0.9807 0.0
H915 H 0.39642 0.03118 1.00258 0.0
H916 H 0.38262 0.98646 0.76797 0.0
H917 H 0.42275 0.98974 0.7292 0.0
H918 H 0.43134 0.04935 0.86009 0.0
C919 C 0.34196 0.04206 0.94774 0.0
C920 C 0.32263 0.02748 0.9449 0.0
C921 C 0.32352 1.00823 0.90018 0.0
C922 C 0.34318 1.00337 0.86058 0.0
C923 C 0.36195 0.0179 0.8657 0.0
C924 C 0.36152 0.0368 0.90851 0.0
C925 C 0.38444 0.04887 0.90848 0.0
C926 C 0.38217 0.07327 0.87935 0.0
C927 C 0.39496 0.04889 0.98191 0.0
C928 C 0.39794 0.03376 0.85924 0.0
C929 C 0.38456 0.01616 0.8343 0.0
C930 C 0.3932 1.00017 0.78735 0.0
C931 C 0.41602 1.00223 0.7654 0.0
C932 C 0.43023 0.01978 0.79167 0.0
C933 C 0.42096 0.0357 0.83931 0.0
H934 H 0.49835 0.34823 0.94832 0.0
H935 H 0.5149 0.30445 0.77327 0.0
H936 H 0.513 0.33767 0.69397 0.0
H937 H 0.45871 0.38628 0.85325 0.0
H938 H 0.46811 0.41149 0.89849 0.0
H939 H 0.46926 0.38405 0.94126 0.0
H940 H 0.51234 0.38982 0.965 0.0
H941 H 0.51136 0.41719 0.92195 0.0
H942 H 0.53133 0.39575 0.89308 0.0
H943 H 0.51196 0.37582 0.63434 0.0
H944 H 0.51045 0.41616 0.59755 0.0
H945 H 0.49396 0.43601 0.80971 0.0
C946 C 0.50109 0.34557 0.89309 0.0
C947 C 0.50677 0.32361 0.86715 0.0
C948 C 0.51068 0.32103 0.79461 0.0
C949 C 0.50957 0.33983 0.74903 0.0
C950 C 0.50447 0.36126 0.77637 0.0
C951 C 0.50012 0.36427 0.8466 0.0
C952 C 0.49587 0.38937 0.86251 0.0
C953 C 0.47154 0.39301 0.89053 0.0
C954 C 0.51379 0.39857 0.91366 0.0
C955 C 0.49873 0.39997 0.79044 0.0
C956 C 0.50367 0.38338 0.74162 0.0
C957 C 0.50789 0.38893 0.67202 0.0
C958 C 0.50705 0.41198 0.65163 0.0
C959 C 0.50196 0.42941 0.70041 0.0
C960 C 0.49764 0.42317 0.77081 0.0
H961 H 0.13811 0.46642 0.97048 0.0
H962 H 0.17374 0.52713 0.89899 0.0
H963 H 0.14013 0.53814 0.82958 0.0
H964 H 0.10774 0.45422 0.80994 0.0
H965 H 0.08205 0.44545 0.85435 0.0
H966 H 0.10935 0.44178 0.89593 0.0
H967 H 0.09503 0.46495 1.00225 0.0
H968 H 0.06772 0.46874 0.96091 0.0
H969 H 0.08373 0.49329 0.98897 0.0
H970 H 0.10226 0.54242 0.76578 0.0
H971 H 0.06316 0.54031 0.71859 0.0
H972 H 0.05116 0.47838 0.83745 0.0
C973 C 0.13901 0.4819 0.93952 0.0
C974 C 0.15888 0.49571 0.93976 0.0
C975 C 0.15911 0.51586 0.89847 0.0
C976 C 0.14 0.52231 0.85877 0.0
C977 C 0.12075 0.50833 0.85983 0.0
C978 C 0.12009 0.48856 0.89936 0.0
C979 C 0.09694 0.47709 0.89412 0.0
C980 C 0.09916 0.45322 0.86164 0.0
C981 C 0.08516 0.47596 0.96583 0.0
C982 C 0.08465 0.49346 0.84541 0.0
C983 C 0.09875 0.51128 0.82577 0.0
C984 C 0.09126 0.52838 0.78035 0.0
C985 C 0.06894 0.52712 0.75397 0.0
C986 C 0.05402 0.50932 0.7745 0.0
C987 C 0.06209 0.49231 0.82102 0.0
H988 H 0.01519 0.83287 0.53964 0.0
H989 H 0.9685 0.84022 0.36529 0.0
H990 H 0.95867 0.87893 0.40502 0.0
H991 H 0.98176 0.86584 0.66645 0.0
H992 H 1.00664 0.87871 0.70491 0.0
H993 H 1.00858 0.8507 0.66668 0.0
H994 H 0.04148 0.86467 0.58695 0.0
H995 H 0.03955 0.8927 0.62485 0.0
H996 H 0.03711 0.88929 0.53178 0.0
H997 H 0.95605 0.91814 0.4576 0.0
H998 H 0.95975 0.95434 0.5216 0.0
H999 H 1.00854 0.92247 0.66175 0.0
C1000 C 1.00278 0.84248 0.50984 0.0
C1001 C 0.99256 0.83309 0.44917 0.0
C1002 C 0.97628 0.8465 0.4126 0.0
C1003 C 0.9707 0.86872 0.43447 0.0
C1004 C 0.98146 0.87752 0.49331 0.0
C1005 C 0.99705 0.86479 0.53084 0.0
C1006 C 1.00678 0.87869 0.59076 0.0
C1007 C 1.00056 0.86784 0.66139 0.0
C1008 C 0.03277 0.8815 0.58309 0.0
C1009 C 0.99448 0.90133 0.58031 0.0
C1010 C 0.97991 0.90021 0.52386 0.0
C1011 C 0.96727 0.91912 0.50224 0.0
C1012 C 0.96955 0.9397 0.53899 0.0
C1013 C 0.98436 0.94141 0.59717 0.0
C1014 C 0.99687 0.92178 0.6181 0.0
H1015 H 0.65612 1.00319 0.4405 0.0
H1016 H 0.69935 0.01752 0.61861 0.0
H1017 H 0.66528 0.01953 0.69401 0.0
H1018 H 0.6109 0.0398 0.48503 0.0
H1019 H 0.58844 0.02102 0.45671 0.0
H1020 H 0.61623 0.01937 0.41677 0.0
H1021 H 0.61875 0.97635 0.44764 0.0
H1022 H 0.59084 0.97779 0.48703 0.0
H1023 H 0.61474 0.96728 0.53677 0.0
H1024 H 0.62633 0.02343 0.74831 0.0
H1025 H 0.58552 0.02532 0.77991 0.0
H1026 H 0.56733 1.00619 0.5688 0.0
C1027 C 0.65855 1.00616 0.49566 0.0
C1028 C 0.6806 0.01033 0.52322 0.0
C1029 C 0.68275 0.01462 0.59568 0.0
C1030 C 0.66346 0.0157 0.63915 0.0
C1031 C 0.64201 0.01216 0.6099 0.0
C1032 C 0.63944 1.00711 0.54006 0.0
C1033 C 0.61438 1.00442 0.52163 0.0
C1034 C 0.60707 0.02221 0.46679 0.0
C1035 C 0.60939 0.98 0.49681 0.0
C1036 C 0.60327 1.00909 0.59178 0.0
C1037 C 0.61954 0.01363 0.64186 0.0
C1038 C 0.61346 0.01958 0.70974 0.0
C1039 C 0.59019 0.02073 0.72711 0.0
C1040 C 0.57315 0.01575 0.67711 0.0
C1041 C 0.57991 0.00979 0.60855 0.0
H1042 H 0.52908 0.67997 0.53983 0.0
H1043 H 0.4817 0.68005 0.36613 0.0
H1044 H 0.4734 0.63944 0.3878 0.0
H1045 H 0.55217 0.625 0.51034 0.0
H1046 H 0.55447 0.61702 0.60095 0.0
H1047 H 0.55573 0.64667 0.57594 0.0
H1048 H 0.52223 0.65587 0.65958 0.0
H1049 H 0.52121 0.62623 0.68503 0.0
H1050 H 0.49593 0.64013 0.65215 0.0
H1051 H 0.47352 0.59798 0.41816 0.0
H1052 H 0.47862 0.55893 0.46465 0.0
H1053 H 0.52361 0.58494 0.62495 0.0
C1054 C 0.51668 0.67152 0.5071 0.0
C1055 C 0.50589 0.68344 0.45149 0.0
C1056 C 0.48986 0.67161 0.40981 0.0
C1057 C 0.48516 0.64841 0.42136 0.0
C1058 C 0.49635 0.63712 0.4755 0.0
C1059 C 0.51148 0.64831 0.51863 0.0
C1060 C 0.52143 0.63185 0.57233 0.0
C1061 C 0.5475 0.63003 0.56437 0.0
C1062 C 0.51479 0.63896 0.64667 0.0
C1063 C 0.50978 0.60966 0.55181 0.0
C1064 C 0.49559 0.61315 0.49525 0.0
C1065 C 0.48425 0.59512 0.46324 0.0
C1066 C 0.48734 0.57297 0.48978 0.0
C1067 C 0.5013 0.56894 0.54867 0.0
C1068 C 0.51253 0.5876 0.58052 0.0
H1069 H 0.83894 0.52041 0.35925 0.0
H1070 H 0.79221 0.49516 0.51767 0.0
H1071 H 0.82309 0.49688 0.60481 0.0
H1072 H 0.88596 0.48761 0.41232 0.0
H1073 H 0.90701 0.50921 0.39359 0.0
H1074 H 0.88065 0.50875 0.34565 0.0
H1075 H 0.87247 0.55059 0.38147 0.0
H1076 H 0.89892 0.55125 0.42916 0.0
H1077 H 0.87248 0.55815 0.47251 0.0
H1078 H 0.86025 0.49787 0.67257 0.0
H1079 H 0.8999 0.49958 0.71569 0.0
H1080 H 0.92258 0.52297 0.51209 0.0
C1081 C 0.83504 0.51544 0.41239 0.0
C1082 C 0.81294 0.50769 0.43124 0.0
C1083 C 0.80875 0.50157 0.50176 0.0
C1084 C 0.82629 0.5023 0.55168 0.0
C1085 C 0.848 0.5093 0.53063 0.0
C1086 C 0.85237 0.51596 0.46273 0.0
C1087 C 0.87742 0.52162 0.45247 0.0
C1088 C 0.8884 0.50585 0.39778 0.0
C1089 C 0.8805 0.54691 0.43275 0.0
C1090 C 0.88658 0.51669 0.52486 0.0
C1091 C 0.86934 0.50972 0.56934 0.0
C1092 C 0.87383 0.50347 0.63823 0.0
C1093 C 0.89647 0.50435 0.66217 0.0
C1094 C 0.91446 0.51132 0.61741 0.0
C1095 C 0.90927 0.51771 0.54795 0.0
loop_
_geom_bond_atom_site_label_1
_geom_bond_atom_site_label_2
_geom_bond_distance
_geom_bond_site_symmetry_2
_ccdc_geom_bond_type
C0 C1 1.384 . S
C0 H13 0.947 . S
C0 C35 1.382 . S
C1 C0 1.384 . S
C1 C2 1.378 . S
C2 C1 1.378 . S
C2 C3 1.378 . S
C2 H14 0.952 . S
C3 C2 1.378 . S
C3 H15 0.950 . S
C3 C34 1.383 . S
H4 C23 0.947 . S
H5 C24 0.946 . S
H6 C26 0.953 . S
H7 C27 0.945 . S
H8 C29 0.952 . S
H9 C30 0.949 . S
H10 C32 0.950 . S
H11 C33 0.948 . S
H12 C35 0.951 . S
H13 C0 0.947 . S
H14 C2 0.952 . S
H15 C3 0.950 . S
N16 C19 1.382 . S
N16 C21 1.363 . S
N17 C19 1.371 . S
N17 C20 1.372 . S
N18 C20 1.361 . S
N18 C21 1.377 . S
C19 N16 1.382 . S
C19 N17 1.371 . S
C19 C22 1.480 . S
C20 N17 1.372 . S
C20 N18 1.361 . S
C20 C28 1.457 . S
C21 N16 1.363 . S
C21 N18 1.377 . S
C21 C34 1.479 . S
C22 C19 1.480 . S
C22 C23 1.383 . S
C22 C27 1.385 . S
C23 H4 0.947 . S
C23 C22 1.383 . S
C23 C24 1.388 . S
C24 H5 0.946 . S
C24 C23 1.388 . S
C24 C25 1.384 . S
C25 C24 1.384 . S
C25 C26 1.377 . S
C26 H6 0.953 . S
C26 C25 1.377 . S
C26 C27 1.369 . S
C27 H7 0.945 . S
C27 C22 1.385 . S
C27 C26 1.369 . S
C28 C20 1.457 . S
C28 C29 1.372 . S
C28 C33 1.364 . S
C29 H8 0.952 . S
C29 C28 1.372 . S
C29 C30 1.389 . S
C30 H9 0.949 . S
C30 C29 1.389 . S
C30 C31 1.387 . S
C31 C30 1.387 . S
C31 C32 1.372 . S
C32 H10 0.950 . S
C32 C31 1.372 . S
C32 C33 1.379 . S
C33 H11 0.948 . S
C33 C28 1.364 . S
C33 C32 1.379 . S
C34 C3 1.383 . S
C34 C21 1.479 . S
C34 C35 1.398 . S
C35 C0 1.382 . S
C35 H12 0.951 . S
C35 C34 1.398 . S
C36 C37 1.384 1_655 S
C36 H49 0.948 . S
C36 C71 1.382 1_655 S
C37 C36 1.384 1_455 S
C37 C38 1.378 . S
C38 C37 1.378 . S
C38 C39 1.378 . S
C38 H50 0.952 . S
C39 C38 1.378 . S
C39 H51 0.950 . S
C39 C70 1.383 . S
H40 C59 0.947 . S
H41 C60 0.952 . S
H42 C62 0.953 . S
H43 C63 0.945 . S
H44 C65 0.949 1_655 S
H45 C66 0.956 . S
H46 C68 0.950 . S
H47 C69 0.948 . S
H48 C71 0.951 1_655 S
H49 C36 0.948 . S
H50 C38 0.952 . S
H51 C39 0.950 . S
N52 C55 1.382 . S
N52 C57 1.363 . S
N53 C55 1.371 . S
N53 C56 1.372 . S
N54 C56 1.361 . S
N54 C57 1.377 . S
C55 N52 1.382 . S
C55 N53 1.371 . S
C55 C58 1.480 . S
C56 N53 1.372 . S
C56 N54 1.361 . S
C56 C64 1.457 . S
C57 N52 1.363 . S
C57 N54 1.377 . S
C57 C70 1.479 . S
C58 C55 1.480 . S
C58 C59 1.383 . S
C58 C63 1.385 . S
C59 H40 0.947 . S
C59 C58 1.383 . S
C59 C60 1.386 1_455 S
C60 H41 0.952 . S
C60 C59 1.386 1_655 S
C60 C61 1.381 1_655 S
C61 C60 1.381 1_455 S
C61 C62 1.377 . S
C62 H42 0.953 . S
C62 C61 1.377 . S
C62 C63 1.369 . S
C63 H43 0.945 . S
C63 C58 1.385 . S
C63 C62 1.369 . S
C64 C56 1.457 . S
C64 C65 1.376 . S
C64 C69 1.364 . S
C65 H44 0.949 1_455 S
C65 C64 1.376 . S
C65 C66 1.386 1_455 S
C66 H45 0.956 . S
C66 C65 1.386 1_655 S
C66 C67 1.383 1_655 S
C67 C66 1.383 1_455 S
C67 C68 1.372 . S
C68 H46 0.950 . S
C68 C67 1.372 . S
C68 C69 1.379 . S
C69 H47 0.948 . S
C69 C64 1.364 . S
C69 C68 1.379 . S
C70 C39 1.383 . S
C70 C57 1.479 . S
C70 C71 1.398 . S
C71 C36 1.382 1_455 S
C71 H48 0.951 1_455 S
C71 C70 1.398 . S
C72 C73 1.384 1_565 S
C72 H85 0.948 . S
C72 C107 1.382 1_565 S
C73 C72 1.384 1_545 S
C73 C74 1.378 . S
C74 C73 1.378 . S
C74 C75 1.378 . S
C74 H86 0.952 . S
C75 C74 1.378 . S
C75 H87 0.950 . S
C75 C106 1.383 . S
H76 C95 0.947 . S
H77 C96 0.952 . S
H78 C98 0.953 . S
H79 C99 0.945 . S
H80 C101 0.949 1_565 S
H81 C102 0.957 . S
H82 C104 0.950 . S
H83 C105 0.948 . S
H84 C107 0.951 1_565 S
H85 C72 0.948 . S
H86 C74 0.952 . S
H87 C75 0.950 . S
N88 C91 1.382 . S
N88 C93 1.363 . S
N89 C91 1.371 . S
N89 C92 1.372 . S
N90 C92 1.361 . S
N90 C93 1.377 . S
C91 N88 1.382 . S
C91 N89 1.371 . S
C91 C94 1.480 . S
C92 N89 1.372 . S
C92 N90 1.361 . S
C92 C100 1.457 . S
C93 N88 1.363 . S
C93 N90 1.377 . S
C93 C106 1.479 . S
C94 C91 1.480 . S
C94 C95 1.383 . S
C94 C99 1.385 . S
C95 H76 0.947 . S
C95 C94 1.383 . S
C95 C96 1.386 1_545 S
C96 H77 0.952 . S
C96 C95 1.386 1_565 S
C96 C97 1.382 1_565 S
C97 C96 1.382 1_545 S
C97 C98 1.377 . S
C98 H78 0.953 . S
C98 C97 1.377 . S
C98 C99 1.369 . S
C99 H79 0.945 . S
C99 C94 1.385 . S
C99 C98 1.369 . S
C100 C92 1.457 . S
C100 C101 1.376 . S
C100 C105 1.364 . S
C101 H80 0.949 1_545 S
C101 C100 1.376 . S
C101 C102 1.386 1_545 S
C102 H81 0.957 . S
C102 C101 1.386 1_565 S
C102 C103 1.383 1_565 S
C103 C102 1.383 1_545 S
C103 C104 1.372 . S
C104 H82 0.950 . S
C104 C103 1.372 . S
C104 C105 1.379 . S
C105 H83 0.948 . S
C105 C100 1.364 . S
C105 C104 1.379 . S
C106 C75 1.383 . S
C106 C93 1.479 . S
C106 C107 1.398 . S
C107 C72 1.382 1_545 S
C107 H84 0.951 1_545 S
C107 C106 1.398 . S
C108 C109 1.384 . S
C108 H121 0.947 . S
C108 C143 1.382 . S
C109 C108 1.384 . S
C109 C110 1.378 . S
C110 C109 1.378 . S
C110 C111 1.378 . S
C110 H122 0.952 . S
C111 C110 1.378 . S
C111 H123 0.950 . S
C111 C142 1.383 . S
H112 C131 0.947 . S
H113 C132 0.946 . S
H114 C134 0.953 . S
H115 C135 0.945 . S
H116 C137 0.952 . S
H117 C138 0.949 . S
H118 C140 0.950 . S
H119 C141 0.948 . S
H120 C143 0.951 . S
H121 C108 0.947 . S
H122 C110 0.952 . S
H123 C111 0.950 . S
N124 C127 1.382 . S
N124 C129 1.363 . S
N125 C127 1.371 . S
N125 C128 1.372 . S
N126 C128 1.361 . S
N126 C129 1.377 . S
C127 N124 1.382 . S
C127 N125 1.371 . S
C127 C130 1.480 . S
C128 N125 1.372 . S
C128 N126 1.361 . S
C128 C136 1.457 . S
C129 N124 1.363 . S
C129 N126 1.377 . S
C129 C142 1.479 . S
C130 C127 1.480 . S
C130 C131 1.383 . S
C130 C135 1.385 . S
C131 H112 0.947 . S
C131 C130 1.383 . S
C131 C132 1.388 . S
C132 H113 0.946 . S
C132 C131 1.388 . S
C132 C133 1.384 . S
C133 C132 1.384 . S
C133 C134 1.377 . S
C134 H114 0.953 . S
C134 C133 1.377 . S
C134 C135 1.369 . S
C135 H115 0.945 . S
C135 C130 1.385 . S
C135 C134 1.369 . S
C136 C128 1.457 . S
C136 C137 1.372 . S
C136 C141 1.364 . S
C137 H116 0.952 . S
C137 C136 1.372 . S
C137 C138 1.389 . S
C138 H117 0.949 . S
C138 C137 1.389 . S
C138 C139 1.387 . S
C139 C138 1.387 . S
C139 C140 1.372 . S
C140 H118 0.950 . S
C140 C139 1.372 . S
C140 C141 1.379 . S
C141 H119 0.948 . S
C141 C136 1.364 . S
C141 C140 1.379 . S
C142 C111 1.383 . S
C142 C129 1.479 . S
C142 C143 1.398 . S
C143 C108 1.382 . S
C143 H120 0.951 . S
C143 C142 1.398 . S
C144 C145 1.384 . S
C144 H157 0.947 . S
C144 C179 1.382 . S
C145 C144 1.384 . S
C145 C146 1.378 . S
C146 C145 1.378 . S
C146 C147 1.378 . S
C146 H158 0.952 . S
C147 C146 1.378 . S
C147 H159 0.950 . S
C147 C178 1.383 . S
H148 C167 0.947 1_556 S
H149 C168 0.946 . S
H150 C170 0.953 . S
H151 C171 0.945 . S
H152 C173 0.952 . S
H153 C174 0.949 . S
H154 C176 0.950 . S
H155 C177 0.948 . S
H156 C179 0.951 . S
H157 C144 0.947 . S
H158 C146 0.952 . S
H159 C147 0.950 . S
N160 C163 1.382 . S
N160 C165 1.363 1_554 S
N161 C163 1.371 . S
N161 C164 1.372 . S
N162 C164 1.361 . S
N162 C165 1.377 1_554 S
C163 N160 1.382 . S
C163 N161 1.371 . S
C163 C166 1.480 . S
C164 N161 1.372 . S
C164 N162 1.361 . S
C164 C172 1.457 . S
C165 N160 1.363 1_556 S
C165 N162 1.377 1_556 S
C165 C178 1.479 . S
C166 C163 1.480 . S
C166 C167 1.383 . S
C166 C171 1.385 . S
C167 H148 0.947 1_554 S
C167 C166 1.383 . S
C167 C168 1.388 . S
C168 H149 0.946 . S
C168 C167 1.388 . S
C168 C169 1.384 . S
C169 C168 1.384 . S
C169 C170 1.377 . S
C170 H150 0.953 . S
C170 C169 1.377 . S
C170 C171 1.369 . S
C171 H151 0.945 . S
C171 C166 1.385 . S
C171 C170 1.369 . S
C172 C164 1.457 . S
C172 C173 1.372 . S
C172 C177 1.364 . S
C173 H152 0.952 . S
C173 C172 1.372 . S
C173 C174 1.389 . S
C174 H153 0.949 . S
C174 C173 1.389 . S
C174 C175 1.387 . S
C175 C174 1.387 . S
C175 C176 1.372 . S
C176 H154 0.950 . S
C176 C175 1.372 . S
C176 C177 1.379 . S
C177 H155 0.948 . S
C177 C172 1.364 . S
C177 C176 1.379 . S
C178 C147 1.383 . S
C178 C165 1.479 . S
C178 C179 1.398 . S
C179 C144 1.382 . S
C179 H156 0.951 . S
C179 C178 1.398 . S
C180 C181 1.384 . S
C180 H193 0.948 1_455 S
C180 C215 1.382 . S
C181 C180 1.384 . S
C181 C182 1.378 . S
C182 C181 1.378 . S
C182 C183 1.378 . S
C182 H194 0.952 . S
C183 C182 1.378 . S
C183 H195 0.950 . S
C183 C214 1.383 . S
H184 C203 0.947 1_556 S
H185 C204 0.949 . S
H186 C206 0.953 . S
H187 C207 0.945 . S
H188 C209 0.947 1_655 S
H189 C210 0.954 . S
H190 C212 0.950 . S
H191 C213 0.948 . S
H192 C215 0.950 1_655 S
H193 C180 0.948 1_655 S
H194 C182 0.952 . S
H195 C183 0.950 . S
N196 C199 1.382 . S
N196 C201 1.363 1_554 S
N197 C199 1.371 . S
N197 C200 1.372 . S
N198 C200 1.361 . S
N198 C201 1.377 1_554 S
C199 N196 1.382 . S
C199 N197 1.371 . S
C199 C202 1.480 . S
C200 N197 1.372 . S
C200 N198 1.361 . S
C200 C208 1.457 . S
C201 N196 1.363 1_556 S
C201 N198 1.377 1_556 S
C201 C214 1.479 . S
C202 C199 1.480 . S
C202 C203 1.383 . S
C202 C207 1.385 . S
C203 H184 0.947 1_554 S
C203 C202 1.383 . S
C203 C204 1.387 1_455 S
C204 H185 0.949 . S
C204 C203 1.387 1_655 S
C204 C205 1.382 1_655 S
C205 C204 1.382 1_455 S
C205 C206 1.377 . S
C206 H186 0.953 . S
C206 C205 1.377 . S
C206 C207 1.369 . S
C207 H187 0.945 . S
C207 C202 1.385 . S
C207 C206 1.369 . S
C208 C200 1.457 . S
C208 C209 1.379 . S
C208 C213 1.364 . S
C209 H188 0.947 1_455 S
C209 C208 1.379 . S
C209 C210 1.387 1_455 S
C210 H189 0.954 . S
C210 C209 1.387 1_655 S
C210 C211 1.384 1_655 S
C211 C210 1.384 1_455 S
C211 C212 1.372 . S
C212 H190 0.950 . S
C212 C211 1.372 . S
C212 C213 1.379 . S
C213 H191 0.948 . S
C213 C208 1.364 . S
C213 C212 1.379 . S
C214 C183 1.383 . S
C214 C201 1.479 . S
C214 C215 1.399 . S
C215 C180 1.382 . S
C215 H192 0.950 1_455 S
C215 C214 1.399 . S
C216 C217 1.384 . S
C216 H229 0.948 1_545 S
C216 C251 1.382 . S
C217 C216 1.384 . S
C217 C218 1.378 . S
C218 C217 1.378 . S
C218 C219 1.378 . S
C218 H230 0.952 . S
C219 C218 1.378 . S
C219 H231 0.950 . S
C219 C250 1.383 . S
H220 C239 0.947 1_556 S
H221 C240 0.949 . S
H222 C242 0.953 . S
H223 C243 0.945 . S
H224 C245 0.947 1_565 S
H225 C246 0.954 . S
H226 C248 0.950 . S
H227 C249 0.948 . S
H228 C251 0.950 1_565 S
H229 C216 0.948 1_565 S
H230 C218 0.952 . S
H231 C219 0.950 . S
N232 C235 1.382 . S
N232 C237 1.363 1_554 S
N233 C235 1.371 . S
N233 C236 1.372 . S
N234 C236 1.361 . S
N234 C237 1.377 1_554 S
C235 N232 1.382 . S
C235 N233 1.371 . S
C235 C238 1.480 . S
C236 N233 1.372 . S
C236 N234 1.361 . S
C236 C244 1.457 . S
C237 N232 1.363 1_556 S
C237 N234 1.377 1_556 S
C237 C250 1.479 . S
C238 C235 1.480 . S
C238 C239 1.383 . S
C238 C243 1.385 . S
C239 H220 0.947 1_554 S
C239 C238 1.383 . S
C239 C240 1.387 1_545 S
C240 H221 0.949 . S
C240 C239 1.387 1_565 S
C240 C241 1.382 1_565 S
C241 C240 1.382 1_545 S
C241 C242 1.377 . S
C242 H222 0.953 . S
C242 C241 1.377 . S
C242 C243 1.369 . S
C243 H223 0.945 . S
C243 C238 1.385 . S
C243 C242 1.369 . S
C244 C236 1.457 . S
C244 C245 1.379 . S
C244 C249 1.364 . S
C245 H224 0.947 1_545 S
C245 C244 1.379 . S
C245 C246 1.387 1_545 S
C246 H225 0.954 . S
C246 C245 1.387 1_565 S
C246 C247 1.384 1_565 S
C247 C246 1.384 1_545 S
C247 C248 1.372 . S
C248 H226 0.950 . S
C248 C247 1.372 . S
C248 C249 1.379 . S
C249 H227 0.948 . S
C249 C244 1.364 . S
C249 C248 1.379 . S
C250 C219 1.383 . S
C250 C237 1.479 . S
C250 C251 1.399 . S
C251 C216 1.382 . S
C251 H228 0.950 1_545 S
C251 C250 1.399 . S
C252 C253 1.384 . S
C252 H265 0.947 . S
C252 C287 1.382 . S
C253 C252 1.384 . S
C253 C254 1.378 . S
C254 C253 1.378 . S
C254 C255 1.378 . S
C254 H266 0.952 . S
C255 C254 1.378 . S
C255 H267 0.950 . S
C255 C286 1.383 . S
H256 C275 0.947 . S
H257 C276 0.946 . S
H258 C278 0.953 . S
H259 C279 0.945 1_556 S
H260 C281 0.952 . S
H261 C282 0.949 . S
H262 C284 0.950 . S
H263 C285 0.948 . S
H264 C287 0.951 . S
H265 C252 0.947 . S
H266 C254 0.952 . S
H267 C255 0.950 . S
N268 C271 1.382 . S
N268 C273 1.363 . S
N269 C271 1.371 1_556 S
N269 C272 1.372 . S
N270 C272 1.361 1_554 S
N270 C273 1.377 . S
C271 N268 1.382 . S
C271 N269 1.371 1_554 S
C271 C274 1.480 . S
C272 N269 1.372 . S
C272 N270 1.361 1_556 S
C272 C280 1.457 . S
C273 N268 1.363 . S
C273 N270 1.377 . S
C273 C286 1.479 . S
C274 C271 1.480 . S
C274 C275 1.383 . S
C274 C279 1.385 . S
C275 H256 0.947 . S
C275 C274 1.383 . S
C275 C276 1.388 . S
C276 H257 0.946 . S
C276 C275 1.388 . S
C276 C277 1.384 . S
C277 C276 1.384 . S
C277 C278 1.377 . S
C278 H258 0.953 . S
C278 C277 1.377 . S
C278 C279 1.369 . S
C279 H259 0.945 1_554 S
C279 C274 1.385 . S
C279 C278 1.369 . S
C280 C272 1.457 . S
C280 C281 1.372 . S
C280 C285 1.364 . S
C281 H260 0.952 . S
C281 C280 1.372 . S
C281 C282 1.389 . S
C282 H261 0.949 . S
C282 C281 1.389 . S
C282 C283 1.387 . S
C283 C282 1.387 . S
C283 C284 1.372 . S
C284 H262 0.950 . S
C284 C283 1.372 . S
C284 C285 1.379 . S
C285 H263 0.948 . S
C285 C280 1.364 . S
C285 C284 1.379 . S
C286 C255 1.383 . S
C286 C273 1.479 . S
C286 C287 1.398 . S
C287 C252 1.382 . S
C287 H264 0.951 . S
C287 C286 1.398 . S
C288 Eu289 2.835 . S
C288 C290 1.500 . S
C288 O308 1.257 . S
C288 O309 1.260 . S
Eu289 C288 2.835 . S
Eu289 O308 2.473 . S
Eu289 O309 2.480 . S
Eu289 O310 2.430 . S
Eu289 O311 2.670 1_545 S
Eu289 O312 2.394 . S
Eu289 O317 2.355 1_655 S
Eu289 O319 2.374 1_545 S
C290 C288 1.500 . S
C290 C291 1.377 . S
C290 C295 1.377 . S
C291 C290 1.377 . S
C291 C292 1.395 . S
C291 H320 0.931 . S
C292 C291 1.395 . S
C292 C293 1.383 . S
C292 H321 0.931 . S
C293 C292 1.383 . S
C293 C294 1.394 . S
C294 C293 1.394 . S
C294 C295 1.378 . S
C294 H322 0.931 1_655 S
C295 C290 1.377 . S
C295 C294 1.378 . S
C295 H323 0.931 1_655 S
C296 O310 1.259 . S
C296 O311 1.270 1_545 S
C297 O312 1.251 1_455 S
C297 O313 1.251 . S
C298 Eu299 2.835 . S
C298 C300 1.500 . S
C298 O314 1.257 . S
C298 O315 1.260 . S
Eu299 C298 2.835 . S
Eu299 O311 2.355 1_455 S
Eu299 O313 2.374 1_565 S
Eu299 O314 2.473 . S
Eu299 O315 2.480 . S
Eu299 O316 2.430 . S
Eu299 O317 2.670 1_565 S
Eu299 O318 2.394 . S
C300 C298 1.500 . S
C300 C301 1.377 . S
C300 C305 1.377 . S
C301 C300 1.377 . S
C301 C302 1.395 . S
C301 H324 0.931 . S
C302 C301 1.395 . S
C302 C303 1.383 . S
C302 H325 0.931 . S
C303 C302 1.383 . S
C303 C304 1.394 . S
C304 C303 1.394 . S
C304 C305 1.378 . S
C304 H326 0.931 1_455 S
C305 C300 1.377 . S
C305 C304 1.378 . S
C305 H327 0.931 1_455 S
C306 O316 1.280 . S
C306 O317 1.255 1_565 S
C307 O318 1.251 1_655 S
C307 O319 1.251 . S
O308 C288 1.257 . S
O308 Eu289 2.473 . S
O309 C288 1.260 . S
O309 Eu289 2.480 . S
O310 Eu289 2.430 . S
O310 C296 1.259 . S
O311 Eu289 2.670 1_565 S
O311 C296 1.270 1_565 S
O311 Eu299 2.355 1_655 S
O312 Eu289 2.394 . S
O312 C297 1.251 1_655 S
O313 C297 1.251 . S
O313 Eu299 2.374 1_545 S
O314 C298 1.257 . S
O314 Eu299 2.473 . S
O315 C298 1.260 . S
O315 Eu299 2.480 . S
O316 Eu299 2.430 . S
O316 C306 1.280 . S
O317 Eu289 2.355 1_455 S
O317 Eu299 2.670 1_545 S
O317 C306 1.255 1_545 S
O318 Eu299 2.394 . S
O318 C307 1.251 1_455 S
O319 Eu289 2.374 1_565 S
O319 C307 1.251 . S
H320 C291 0.931 . S
H321 C292 0.931 . S
H322 C294 0.931 1_455 S
H323 C295 0.931 1_455 S
H324 C301 0.931 . S
H325 C302 0.931 . S
H326 C304 0.931 1_655 S
H327 C305 0.931 1_655 S
C328 Eu329 2.835 . S
C328 C330 1.500 . S
C328 O348 1.257 . S
C328 O349 1.260 . S
Eu329 C328 2.835 . S
Eu329 O348 2.473 . S
Eu329 O349 2.480 . S
Eu329 O350 2.430 . S
Eu329 O351 2.670 . S
Eu329 O352 2.394 . S
Eu329 O357 2.355 1_565 S
Eu329 O359 2.374 . S
C330 C328 1.500 . S
C330 C331 1.377 . S
C330 C335 1.377 . S
C331 C330 1.377 . S
C331 C332 1.395 . S
C331 H360 0.931 . S
C332 C331 1.395 . S
C332 C333 1.383 . S
C332 H361 0.931 . S
C333 C332 1.383 . S
C333 C334 1.394 . S
C334 C333 1.394 . S
C334 C335 1.378 . S
C334 H362 0.931 1_565 S
C335 C330 1.377 . S
C335 C334 1.378 . S
C335 H363 0.931 1_565 S
C336 O350 1.259 . S
C336 O351 1.270 . S
C337 O352 1.251 1_545 S
C337 O353 1.251 . S
C338 Eu339 2.835 . S
C338 C340 1.500 . S
C338 O354 1.257 . S
C338 O355 1.260 . S
Eu339 C338 2.835 . S
Eu339 O351 2.355 1_545 S
Eu339 O353 2.374 . S
Eu339 O354 2.473 . S
Eu339 O355 2.480 . S
Eu339 O356 2.430 . S
Eu339 O357 2.670 . S
Eu339 O358 2.394 . S
C340 C338 1.500 . S
C340 C341 1.377 . S
C340 C345 1.377 . S
C341 C340 1.377 . S
C341 C342 1.395 . S
C341 H364 0.931 . S
C342 C341 1.395 . S
C342 C343 1.383 . S
C342 H365 0.931 . S
C343 C342 1.383 . S
C343 C344 1.394 . S
C344 C343 1.394 . S
C344 C345 1.378 . S
C344 H366 0.931 1_545 S
C345 C340 1.377 . S
C345 C344 1.378 . S
C345 H367 0.931 1_545 S
C346 O356 1.259 . S
C346 O357 1.270 . S
C347 O358 1.251 1_565 S
C347 O359 1.251 . S
O348 C328 1.257 . S
O348 Eu329 2.473 . S
O349 C328 1.260 . S
O349 Eu329 2.480 . S
O350 Eu329 2.430 . S
O350 C336 1.259 . S
O351 Eu329 2.670 . S
O351 C336 1.270 . S
O351 Eu339 2.355 1_565 S
O352 Eu329 2.394 . S
O352 C337 1.251 1_565 S
O353 C337 1.251 . S
O353 Eu339 2.374 . S
O354 C338 1.257 . S
O354 Eu339 2.473 . S
O355 C338 1.260 . S
O355 Eu339 2.480 . S
O356 Eu339 2.430 . S
O356 C346 1.259 . S
O357 Eu329 2.355 1_545 S
O357 Eu339 2.670 . S
O357 C346 1.270 . S
O358 Eu339 2.394 . S
O358 C347 1.251 1_545 S
O359 Eu329 2.374 . S
O359 C347 1.251 . S
H360 C331 0.931 . S
H361 C332 0.931 . S
H362 C334 0.931 1_545 S
H363 C335 0.931 1_545 S
H364 C341 0.931 . S
H365 C342 0.931 . S
H366 C344 0.931 1_565 S
H367 C345 0.931 1_565 S
C368 Eu369 2.835 . S
C368 C370 1.500 . S
C368 O388 1.257 . S
C368 O389 1.260 . S
Eu369 C368 2.835 . S
Eu369 O388 2.473 . S
Eu369 O389 2.480 . S
Eu369 O390 2.430 . S
Eu369 O391 2.670 . S
Eu369 O392 2.394 . S
Eu369 O397 2.355 . S
Eu369 O399 2.374 . S
C370 C368 1.500 . S
C370 C371 1.377 . S
C370 C375 1.377 . S
C371 C370 1.377 . S
C371 C372 1.395 . S
C371 H400 0.931 . S
C372 C371 1.395 . S
C372 C373 1.383 . S
C372 H401 0.931 . S
C373 C372 1.383 . S
C373 C374 1.394 . S
C374 C373 1.394 . S
C374 C375 1.378 . S
C374 H402 0.931 . S
C375 C370 1.377 . S
C375 C374 1.378 . S
C375 H403 0.931 . S
C376 O390 1.259 . S
C376 O391 1.270 . S
C377 O392 1.251 . S
C377 O393 1.251 . S
C378 Eu379 2.835 . S
C378 C380 1.500 . S
C378 O394 1.257 . S
C378 O395 1.260 . S
Eu379 C378 2.835 . S
Eu379 O391 2.355 . S
Eu379 O393 2.374 . S
Eu379 O394 2.473 . S
Eu379 O395 2.480 . S
Eu379 O396 2.430 . S
Eu379 O397 2.670 . S
Eu379 O398 2.394 . S
C380 C378 1.500 . S
C380 C381 1.377 . S
C380 C385 1.377 . S
C381 C380 1.377 . S
C381 C382 1.395 . S
C381 H404 0.931 . S
C382 C381 1.395 . S
C382 C383 1.383 . S
C382 H405 0.931 . S
C383 C382 1.383 . S
C383 C384 1.394 . S
C384 C383 1.394 . S
C384 C385 1.378 . S
C384 H406 0.931 . S
C385 C380 1.377 . S
C385 C384 1.378 . S
C385 H407 0.931 . S
C386 O396 1.259 . S
C386 O397 1.270 . S
C387 O398 1.251 . S
C387 O399 1.251 . S
O388 C368 1.257 . S
O388 Eu369 2.473 . S
O389 C368 1.260 . S
O389 Eu369 2.480 . S
O390 Eu369 2.430 . S
O390 C376 1.259 . S
O391 Eu369 2.670 . S
O391 C376 1.270 . S
O391 Eu379 2.355 . S
O392 Eu369 2.394 . S
O392 C377 1.251 . S
O393 C377 1.251 . S
O393 Eu379 2.374 . S
O394 C378 1.257 . S
O394 Eu379 2.473 . S
O395 C378 1.260 . S
O395 Eu379 2.480 . S
O396 Eu379 2.430 . S
O396 C386 1.259 . S
O397 Eu369 2.355 . S
O397 Eu379 2.670 . S
O397 C386 1.270 . S
O398 Eu379 2.394 . S
O398 C387 1.251 . S
O399 Eu369 2.374 . S
O399 C387 1.251 . S
H400 C371 0.931 . S
H401 C372 0.931 . S
H402 C374 0.931 . S
H403 C375 0.931 . S
H404 C381 0.931 . S
H405 C382 0.931 . S
H406 C384 0.931 . S
H407 C385 0.931 . S
C408 Eu409 2.835 . S
C408 C410 1.500 . S
C408 O428 1.257 . S
C408 O429 1.260 . S
Eu409 C408 2.835 . S
Eu409 O428 2.473 . S
Eu409 O429 2.480 . S
Eu409 O430 2.430 . S
Eu409 O431 2.670 1_455 S
Eu409 O432 2.394 . S
Eu409 O437 2.355 . S
Eu409 O439 2.374 1_455 S
C410 C408 1.500 . S
C410 C411 1.377 . S
C410 C415 1.377 . S
C411 C410 1.377 . S
C411 C412 1.395 . S
C411 H440 0.931 . S
C412 C411 1.395 . S
C412 C413 1.383 . S
C412 H441 0.931 . S
C413 C412 1.383 . S
C413 C414 1.394 . S
C414 C413 1.394 . S
C414 C415 1.378 . S
C414 H442 0.931 . S
C415 C410 1.377 . S
C415 C414 1.378 . S
C415 H443 0.931 . S
C416 O430 1.267 . S
C416 O431 1.264 1_455 S
C417 O432 1.251 . S
C417 O433 1.251 . S
C418 Eu419 2.835 . S
C418 C420 1.500 . S
C418 O434 1.257 . S
C418 O435 1.260 . S
Eu419 C418 2.835 . S
Eu419 O431 2.355 . S
Eu419 O433 2.374 1_655 S
Eu419 O434 2.473 . S
Eu419 O435 2.480 . S
Eu419 O436 2.430 . S
Eu419 O437 2.670 1_655 S
Eu419 O438 2.394 . S
C420 C418 1.500 . S
C420 C421 1.377 . S
C420 C425 1.377 . S
C421 C420 1.377 . S
C421 C422 1.395 . S
C421 H444 0.931 . S
C422 C421 1.395 . S
C422 C423 1.383 . S
C422 H445 0.931 . S
C423 C422 1.383 . S
C423 C424 1.394 . S
C424 C423 1.394 . S
C424 C425 1.378 . S
C424 H446 0.931 . S
C425 C420 1.377 . S
C425 C424 1.378 . S
C425 H447 0.931 . S
C426 O436 1.261 . S
C426 O437 1.268 1_655 S
C427 O438 1.251 . S
C427 O439 1.251 . S
O428 C408 1.257 . S
O428 Eu409 2.473 . S
O429 C408 1.260 . S
O429 Eu409 2.480 . S
O430 Eu409 2.430 . S
O430 C416 1.267 . S
O431 Eu409 2.670 1_655 S
O431 C416 1.264 1_655 S
O431 Eu419 2.355 . S
O432 Eu409 2.394 . S
O432 C417 1.251 . S
O433 C417 1.251 . S
O433 Eu419 2.374 1_455 S
O434 C418 1.257 . S
O434 Eu419 2.473 . S
O435 C418 1.260 . S
O435 Eu419 2.480 . S
O436 Eu419 2.430 . S
O436 C426 1.261 . S
O437 Eu409 2.355 . S
O437 Eu419 2.670 1_455 S
O437 C426 1.268 1_455 S
O438 Eu419 2.394 . S
O438 C427 1.251 . S
O439 Eu409 2.374 1_655 S
O439 C427 1.251 . S
H440 C411 0.931 . S
H441 C412 0.931 . S
H442 C414 0.931 . S
H443 C415 0.931 . S
H444 C421 0.931 . S
H445 C422 0.931 . S
H446 C424 0.931 . S
H447 C425 0.931 . S
H448 C460 0.930 . S
H449 C462 0.930 . S
H450 C463 0.930 . S
H451 C467 0.959 . S
H452 C467 0.959 . S
H453 C467 0.961 . S
H454 C468 0.960 . S
H455 C468 0.961 . S
H456 C468 0.959 . S
H457 C471 0.929 . S
H458 C472 0.931 . S
H459 C474 0.930 . S
C460 H448 0.930 . S
C460 C461 1.399 1_545 S
C460 C465 1.399 . S
C461 C460 1.399 1_565 S
C461 C462 1.376 . S
C462 H449 0.930 . S
C462 C461 1.376 . S
C462 C463 1.388 . S
C463 H450 0.930 . S
C463 C462 1.388 . S
C463 C464 1.390 . S
C464 C463 1.390 . S
C464 C465 1.394 1_565 S
C464 C470 1.465 . S
C465 C460 1.399 . S
C465 C464 1.394 1_545 S
C465 C466 1.516 . S
C466 C465 1.516 . S
C466 C467 1.502 . S
C466 C468 1.561 . S
C466 C469 1.526 . S
C467 H451 0.959 . S
C467 H452 0.959 . S
C467 H453 0.961 . S
C467 C466 1.502 . S
C468 H454 0.960 . S
C468 H455 0.961 . S
C468 H456 0.959 . S
C468 C466 1.561 . S
C469 C466 1.526 . S
C469 C470 1.396 1_545 S
C469 C474 1.390 . S
C470 C464 1.465 . S
C470 C469 1.396 1_565 S
C470 C471 1.399 . S
C471 H457 0.929 . S
C471 C470 1.399 . S
C471 C472 1.385 . S
C472 H458 0.931 . S
C472 C471 1.385 . S
C472 C473 1.389 . S
C473 C472 1.389 . S
C473 C474 1.387 1_565 S
C474 H459 0.930 . S
C474 C469 1.390 . S
C474 C473 1.387 1_545 S
H475 C487 0.930 . S
H476 C489 0.930 . S
H477 C490 0.930 . S
H478 C494 0.959 . S
H479 C494 0.959 . S
H480 C494 0.961 . S
H481 C495 0.960 . S
H482 C495 0.961 . S
H483 C495 0.959 . S
H484 C498 0.929 . S
H485 C499 0.931 . S
H486 C501 0.930 . S
C487 H475 0.930 . S
C487 C488 1.399 . S
C487 C492 1.399 . S
C488 C487 1.399 . S
C488 C489 1.376 . S
C489 H476 0.930 . S
C489 C488 1.376 . S
C489 C490 1.388 . S
C490 H477 0.930 . S
C490 C489 1.388 . S
C490 C491 1.390 . S
C491 C490 1.390 . S
C491 C492 1.394 . S
C491 C497 1.465 . S
C492 C487 1.399 . S
C492 C491 1.394 . S
C492 C493 1.516 . S
C493 C492 1.516 . S
C493 C494 1.502 . S
C493 C495 1.561 . S
C493 C496 1.526 . S
C494 H478 0.959 . S
C494 H479 0.959 . S
C494 H480 0.961 . S
C494 C493 1.502 . S
C495 H481 0.960 . S
C495 H482 0.961 . S
C495 H483 0.959 . S
C495 C493 1.561 . S
C496 C493 1.526 . S
C496 C497 1.396 . S
C496 C501 1.390 . S
C497 C491 1.465 . S
C497 C496 1.396 . S
C497 C498 1.399 . S
C498 H484 0.929 . S
C498 C497 1.399 . S
C498 C499 1.385 . S
C499 H485 0.931 . S
C499 C498 1.385 . S
C499 C500 1.389 . S
C500 C499 1.389 . S
C500 C501 1.387 . S
C501 H486 0.930 . S
C501 C496 1.390 . S
C501 C500 1.387 . S
H502 C514 0.930 . S
H503 C516 0.930 . S
H504 C517 0.930 . S
H505 C521 0.959 . S
H506 C521 0.959 . S
H507 C521 0.961 . S
H508 C522 0.960 . S
H509 C522 0.961 . S
H510 C522 0.959 . S
H511 C525 0.929 . S
H512 C526 0.931 . S
H513 C528 0.930 . S
C514 H502 0.930 . S
C514 C515 1.399 . S
C514 C519 1.399 . S
C515 C514 1.399 . S
C515 C516 1.376 . S
C516 H503 0.930 . S
C516 C515 1.376 . S
C516 C517 1.388 . S
C517 H504 0.930 . S
C517 C516 1.388 . S
C517 C518 1.390 . S
C518 C517 1.390 . S
C518 C519 1.394 . S
C518 C524 1.465 . S
C519 C514 1.399 . S
C519 C518 1.394 . S
C519 C520 1.516 . S
C520 C519 1.516 . S
C520 C521 1.502 . S
C520 C522 1.561 . S
C520 C523 1.526 . S
C521 H505 0.959 . S
C521 H506 0.959 . S
C521 H507 0.961 . S
C521 C520 1.502 . S
C522 H508 0.960 . S
C522 H509 0.961 . S
C522 H510 0.959 . S
C522 C520 1.561 . S
C523 C520 1.526 . S
C523 C524 1.396 . S
C523 C528 1.390 . S
C524 C518 1.465 . S
C524 C523 1.396 . S
C524 C525 1.399 . S
C525 H511 0.929 . S
C525 C524 1.399 . S
C525 C526 1.385 . S
C526 H512 0.931 . S
C526 C525 1.385 . S
C526 C527 1.389 . S
C527 C526 1.389 . S
C527 C528 1.387 . S
C528 H513 0.930 . S
C528 C523 1.390 . S
C528 C527 1.387 . S
H529 C541 0.927 1_655 S
H530 C543 0.930 . S
H531 C544 0.930 . S
H532 C548 0.959 . S
H533 C548 0.959 . S
H534 C548 0.961 . S
H535 C549 0.960 . S
H536 C549 0.961 . S
H537 C549 0.959 . S
H538 C552 0.929 . S
H539 C553 0.931 . S
H540 C555 0.930 . S
C541 H529 0.927 1_455 S
C541 C542 1.401 . S
C541 C546 1.403 . S
C542 C541 1.401 . S
C542 C543 1.376 . S
C543 H530 0.930 . S
C543 C542 1.376 . S
C543 C544 1.388 . S
C544 H531 0.930 . S
C544 C543 1.388 . S
C544 C545 1.390 . S
C545 C544 1.390 . S
C545 C546 1.394 . S
C545 C551 1.465 . S
C546 C541 1.403 . S
C546 C545 1.394 . S
C546 C547 1.516 . S
C547 C546 1.516 . S
C547 C548 1.502 1_455 S
C547 C549 1.561 . S
C547 C550 1.526 . S
C548 H532 0.959 . S
C548 H533 0.959 . S
C548 H534 0.961 . S
C548 C547 1.502 1_655 S
C549 H535 0.960 . S
C549 H536 0.961 . S
C549 H537 0.959 . S
C549 C547 1.561 . S
C550 C547 1.526 . S
C550 C551 1.396 . S
C550 C555 1.390 . S
C551 C545 1.465 . S
C551 C550 1.396 . S
C551 C552 1.399 . S
C552 H538 0.929 . S
C552 C551 1.399 . S
C552 C553 1.385 . S
C553 H539 0.931 . S
C553 C552 1.385 . S
C553 C554 1.389 . S
C554 C553 1.389 . S
C554 C555 1.387 . S
C555 H540 0.930 . S
C555 C550 1.390 . S
C555 C554 1.387 . S
H556 C568 0.930 . S
H557 C570 0.930 . S
H558 C571 0.930 . S
H559 C575 0.959 . S
H560 C575 0.959 . S
H561 C575 0.961 . S
H562 C576 0.960 . S
H563 C576 0.961 1_556 S
H564 C576 0.959 1_556 S
H565 C579 0.929 . S
H566 C580 0.931 . S
H567 C582 0.930 . S
C568 H556 0.930 . S
C568 C569 1.399 1_565 S
C568 C573 1.399 . S
C569 C568 1.399 1_545 S
C569 C570 1.376 . S
C570 H557 0.930 . S
C570 C569 1.376 . S
C570 C571 1.388 . S
C571 H558 0.930 . S
C571 C570 1.388 . S
C571 C572 1.390 . S
C572 C571 1.390 . S
C572 C573 1.394 1_545 S
C572 C578 1.465 1_554 S
C573 C568 1.399 . S
C573 C572 1.394 1_565 S
C573 C574 1.516 . S
C574 C573 1.516 . S
C574 C575 1.502 . S
C574 C576 1.561 . S
C574 C577 1.526 1_554 S
C575 H559 0.959 . S
C575 H560 0.959 . S
C575 H561 0.961 . S
C575 C574 1.502 . S
C576 H562 0.960 . S
C576 H563 0.961 1_554 S
C576 H564 0.959 1_554 S
C576 C574 1.561 . S
C577 C574 1.526 1_556 S
C577 C578 1.396 1_565 S
C577 C582 1.390 . S
C578 C572 1.465 1_556 S
C578 C577 1.396 1_545 S
C578 C579 1.399 . S
C579 H565 0.929 . S
C579 C578 1.399 . S
C579 C580 1.385 . S
C580 H566 0.931 . S
C580 C579 1.385 . S
C580 C581 1.389 . S
C581 C580 1.389 . S
C581 C582 1.387 1_545 S
C582 H567 0.930 . S
C582 C577 1.390 . S
C582 C581 1.387 1_565 S
H583 C595 0.930 . S
H584 C597 0.930 . S
H585 C598 0.930 . S
H586 C602 0.959 . S
H587 C602 0.959 . S
H588 C602 0.961 1_554 S
H589 C603 0.960 1_554 S
H590 C603 0.961 . S
H591 C603 0.959 . S
H592 C606 0.929 1_554 S
H593 C607 0.931 . S
H594 C609 0.930 . S
C595 H583 0.930 . S
C595 C596 1.399 . S
C595 C600 1.399 . S
C596 C595 1.399 . S
C596 C597 1.376 . S
C597 H584 0.930 . S
C597 C596 1.376 . S
C597 C598 1.388 . S
C598 H585 0.930 . S
C598 C597 1.388 . S
C598 C599 1.390 . S
C599 C598 1.390 . S
C599 C600 1.394 . S
C599 C605 1.465 . S
C600 C595 1.399 . S
C600 C599 1.394 . S
C600 C601 1.516 1_554 S
C601 C600 1.516 1_556 S
C601 C602 1.502 . S
C601 C603 1.561 . S
C601 C604 1.526 . S
C602 H586 0.959 . S
C602 H587 0.959 . S
C602 H588 0.961 1_556 S
C602 C601 1.502 . S
C603 H589 0.960 1_556 S
C603 H590 0.961 . S
C603 H591 0.959 . S
C603 C601 1.561 . S
C604 C601 1.526 . S
C604 C605 1.396 1_556 S
C604 C609 1.390 . S
C605 C599 1.465 . S
C605 C604 1.396 1_554 S
C605 C606 1.399 1_554 S
C606 H592 0.929 1_556 S
C606 C605 1.399 1_556 S
C606 C607 1.385 . S
C607 H593 0.931 . S
C607 C606 1.385 . S
C607 C608 1.389 . S
C608 C607 1.389 . S
C608 C609 1.387 . S
C609 H594 0.930 . S
C609 C604 1.390 . S
C609 C608 1.387 . S
H610 C622 0.930 . S
H611 C624 0.930 . S
H612 C625 0.930 . S
H613 C629 0.959 1_556 S
H614 C629 0.959 1_556 S
H615 C629 0.961 . S
H616 C630 0.960 . S
H617 C630 0.961 . S
H618 C630 0.959 . S
H619 C633 0.929 . S
H620 C634 0.931 . S
H621 C636 0.930 . S
C622 H610 0.930 . S
C622 C623 1.399 . S
C622 C627 1.399 . S
C623 C622 1.399 . S
C623 C624 1.376 . S
C624 H611 0.930 . S
C624 C623 1.376 . S
C624 C625 1.388 . S
C625 H612 0.930 . S
C625 C624 1.388 . S
C625 C626 1.390 . S
C626 C625 1.390 . S
C626 C627 1.394 . S
C626 C632 1.465 1_554 S
C627 C622 1.399 . S
C627 C626 1.394 . S
C627 C628 1.516 . S
C628 C627 1.516 . S
C628 C629 1.502 . S
C628 C630 1.561 . S
C628 C631 1.526 1_554 S
C629 H613 0.959 1_554 S
C629 H614 0.959 1_554 S
C629 H615 0.961 . S
C629 C628 1.502 . S
C630 H616 0.960 . S
C630 H617 0.961 . S
C630 H618 0.959 . S
C630 C628 1.561 . S
C631 C628 1.526 1_556 S
C631 C632 1.396 . S
C631 C636 1.390 . S
C632 C626 1.465 1_556 S
C632 C631 1.396 . S
C632 C633 1.399 . S
C633 H619 0.929 . S
C633 C632 1.399 . S
C633 C634 1.385 . S
C634 H620 0.931 . S
C634 C633 1.385 . S
C634 C635 1.389 . S
C635 C634 1.389 . S
C635 C636 1.387 . S
C636 H621 0.930 . S
C636 C631 1.390 . S
C636 C635 1.387 . S
H637 C649 0.930 . S
H638 C651 0.930 . S
H639 C652 0.930 . S
H640 C656 0.959 . S
H641 C656 0.959 . S
H642 C656 0.961 . S
H643 C657 0.960 . S
H644 C657 0.961 . S
H645 C657 0.959 . S
H646 C660 0.929 . S
H647 C661 0.931 . S
H648 C663 0.930 . S
C649 H637 0.930 . S
C649 C650 1.399 1_455 S
C649 C654 1.399 . S
C650 C649 1.399 1_655 S
C650 C651 1.376 . S
C651 H638 0.930 . S
C651 C650 1.376 . S
C651 C652 1.388 . S
C652 H639 0.930 . S
C652 C651 1.388 . S
C652 C653 1.390 . S
C653 C652 1.390 . S
C653 C654 1.394 1_655 S
C653 C659 1.465 1_554 S
C654 C649 1.399 . S
C654 C653 1.394 1_455 S
C654 C655 1.516 . S
C655 C654 1.516 . S
C655 C656 1.502 . S
C655 C657 1.561 1_455 S
C655 C658 1.526 1_554 S
C656 H640 0.959 . S
C656 H641 0.959 . S
C656 H642 0.961 . S
C656 C655 1.502 . S
C657 H643 0.960 . S
C657 H644 0.961 . S
C657 H645 0.959 . S
C657 C655 1.561 1_655 S
C658 C655 1.526 1_556 S
C658 C659 1.396 1_455 S
C658 C663 1.390 . S
C659 C653 1.465 1_556 S
C659 C658 1.396 1_655 S
C659 C660 1.399 . S
C660 H646 0.929 . S
C660 C659 1.399 . S
C660 C661 1.385 . S
C661 H647 0.931 . S
C661 C660 1.385 . S
C661 C662 1.389 . S
C662 C661 1.389 . S
C662 C663 1.387 1_655 S
C663 H648 0.930 . S
C663 C658 1.390 . S
C663 C662 1.387 1_455 S
H664 C676 0.930 . S
H665 C678 0.930 . S
H666 C679 0.930 . S
H667 C683 0.959 . S
H668 C683 0.959 . S
H669 C683 0.961 . S
H670 C684 0.960 . S
H671 C684 0.961 . S
H672 C684 0.959 . S
H673 C687 0.929 . S
H674 C688 0.928 . S
H675 C690 0.930 . S
C676 H664 0.930 . S
C676 C677 1.399 1_655 S
C676 C681 1.399 . S
C677 C676 1.399 1_455 S
C677 C678 1.376 . S
C678 H665 0.930 . S
C678 C677 1.376 . S
C678 C679 1.388 . S
C679 H666 0.930 . S
C679 C678 1.388 . S
C679 C680 1.346 1_455 S
C680 C679 1.346 1_655 S
C680 C681 1.432 . S
C680 C686 1.480 . S
C681 C676 1.399 . S
C681 C680 1.432 . S
C681 C682 1.516 . S
C682 C681 1.516 . S
C682 C683 1.502 . S
C682 C684 1.561 . S
C682 C685 1.526 . S
C683 H667 0.959 . S
C683 H668 0.959 . S
C683 H669 0.961 . S
C683 C682 1.502 . S
C684 H670 0.960 . S
C684 H671 0.961 . S
C684 H672 0.959 . S
C684 C682 1.561 . S
C685 C682 1.526 . S
C685 C686 1.396 . S
C685 C690 1.390 . S
C686 C680 1.480 . S
C686 C685 1.396 . S
C686 C687 1.399 1_655 S
C687 H673 0.929 . S
C687 C686 1.399 1_455 S
C687 C688 1.385 1_455 S
C688 H674 0.928 . S
C688 C687 1.385 1_655 S
C688 C689 1.389 . S
C689 C688 1.389 . S
C689 C690 1.387 . S
C690 H675 0.930 . S
C690 C685 1.390 . S
C690 C689 1.387 . S
H691 C703 0.930 . S
H692 C705 0.930 . S
H693 C706 0.930 . S
H694 C710 0.959 . S
H695 C710 0.959 . S
H696 C710 0.961 . S
H697 C711 0.960 . S
H698 C711 0.961 . S
H699 C711 0.959 1_565 S
H700 C714 0.929 . S
H701 C715 0.931 . S
H702 C717 0.930 . S
C703 H691 0.930 . S
C703 C704 1.397 . S
C703 C708 1.394 1_545 S
C704 C703 1.397 . S
C704 C705 1.380 1_545 S
C705 H692 0.930 . S
C705 C704 1.380 1_565 S
C705 C706 1.388 . S
C706 H693 0.930 . S
C706 C705 1.388 . S
C706 C707 1.390 . S
C707 C706 1.390 . S
C707 C708 1.403 . S
C707 C713 1.465 . S
C708 C703 1.394 1_565 S
C708 C707 1.403 . S
C708 C709 1.513 1_565 S
C709 C708 1.513 1_545 S
C709 C710 1.502 . S
C709 C711 1.561 . S
C709 C712 1.526 1_545 S
C710 H694 0.959 . S
C710 H695 0.959 . S
C710 H696 0.961 . S
C710 C709 1.502 . S
C711 H697 0.960 . S
C711 H698 0.961 . S
C711 H699 0.959 1_545 S
C711 C709 1.561 . S
C712 C709 1.526 1_565 S
C712 C713 1.396 . S
C712 C717 1.390 . S
C713 C707 1.465 . S
C713 C712 1.396 . S
C713 C714 1.399 . S
C714 H700 0.929 . S
C714 C713 1.399 . S
C714 C715 1.385 . S
C715 H701 0.931 . S
C715 C714 1.385 . S
C715 C716 1.389 . S
C716 C715 1.389 . S
C716 C717 1.387 . S
C717 H702 0.930 . S
C717 C712 1.390 . S
C717 C716 1.387 . S
H718 C730 0.930 . S
H719 C732 0.930 . S
H720 C733 0.930 . S
H721 C737 0.959 . S
H722 C737 0.959 . S
H723 C737 0.961 . S
H724 C738 0.960 . S
H725 C738 0.961 . S
H726 C738 0.959 . S
H727 C741 0.929 . S
H728 C742 0.931 . S
H729 C744 0.930 . S
C730 H718 0.930 . S
C730 C731 1.399 . S
C730 C735 1.399 . S
C731 C730 1.399 . S
C731 C732 1.376 . S
C732 H719 0.930 . S
C732 C731 1.376 . S
C732 C733 1.388 . S
C733 H720 0.930 . S
C733 C732 1.388 . S
C733 C734 1.390 . S
C734 C733 1.390 . S
C734 C735 1.394 . S
C734 C740 1.465 . S
C735 C730 1.399 . S
C735 C734 1.394 . S
C735 C736 1.516 . S
C736 C735 1.516 . S
C736 C737 1.502 . S
C736 C738 1.561 . S
C736 C739 1.526 . S
C737 H721 0.959 . S
C737 H722 0.959 . S
C737 H723 0.961 . S
C737 C736 1.502 . S
C738 H724 0.960 . S
C738 H725 0.961 . S
C738 H726 0.959 . S
C738 C736 1.561 . S
C739 C736 1.526 . S
C739 C740 1.396 . S
C739 C744 1.390 . S
C740 C734 1.465 . S
C740 C739 1.396 . S
C740 C741 1.399 . S
C741 H727 0.929 . S
C741 C740 1.399 . S
C741 C742 1.385 . S
C742 H728 0.931 . S
C742 C741 1.385 . S
C742 C743 1.389 . S
C743 C742 1.389 . S
C743 C744 1.387 . S
C744 H729 0.930 . S
C744 C739 1.390 . S
C744 C743 1.387 . S
H745 C757 0.930 . S
H746 C759 0.930 . S
H747 C760 0.930 . S
H748 C764 0.959 . S
H749 C764 0.959 . S
H750 C764 0.961 . S
H751 C765 0.960 . S
H752 C765 0.961 . S
H753 C765 0.959 . S
H754 C768 0.929 . S
H755 C769 0.931 . S
H756 C771 0.930 . S
C757 H745 0.930 . S
C757 C758 1.399 . S
C757 C762 1.399 . S
C758 C757 1.399 . S
C758 C759 1.376 . S
C759 H746 0.930 . S
C759 C758 1.376 . S
C759 C760 1.388 . S
C760 H747 0.930 . S
C760 C759 1.388 . S
C760 C761 1.390 . S
C761 C760 1.390 . S
C761 C762 1.394 . S
C761 C767 1.465 . S
C762 C757 1.399 . S
C762 C761 1.394 . S
C762 C763 1.516 . S
C763 C762 1.516 . S
C763 C764 1.502 . S
C763 C765 1.561 . S
C763 C766 1.526 . S
C764 H748 0.959 . S
C764 H749 0.959 . S
C764 H750 0.961 . S
C764 C763 1.502 . S
C765 H751 0.960 . S
C765 H752 0.961 . S
C765 H753 0.959 . S
C765 C763 1.561 . S
C766 C763 1.526 . S
C766 C767 1.396 . S
C766 C771 1.390 . S
C767 C761 1.465 . S
C767 C766 1.396 . S
C767 C768 1.399 . S
C768 H754 0.929 . S
C768 C767 1.399 . S
C768 C769 1.385 . S
C769 H755 0.931 . S
C769 C768 1.385 . S
C769 C770 1.389 . S
C770 C769 1.389 . S
C770 C771 1.387 . S
C771 H756 0.930 . S
C771 C766 1.390 . S
C771 C770 1.387 . S
H772 C784 0.937 . S
H773 C786 0.925 1_655 S
H774 C787 0.930 . S
H775 C791 0.959 . S
H776 C791 0.959 . S
H777 C791 0.961 . S
H778 C792 0.960 . S
H779 C792 0.961 . S
H780 C792 0.959 . S
H781 C795 0.929 . S
H782 C796 0.931 . S
H783 C798 0.930 . S
C784 H772 0.937 . S
C784 C785 1.403 . S
C784 C789 1.389 1_655 S
C785 C784 1.403 . S
C785 C786 1.369 1_655 S
C786 H773 0.925 1_455 S
C786 C785 1.369 1_455 S
C786 C787 1.403 . S
C787 H774 0.930 . S
C787 C786 1.403 . S
C787 C788 1.390 . S
C788 C787 1.390 . S
C788 C789 1.394 . S
C788 C794 1.465 . S
C789 C784 1.389 1_455 S
C789 C788 1.394 . S
C789 C790 1.516 1_554 S
C790 C789 1.516 1_556 S
C790 C791 1.502 . S
C790 C792 1.561 1_455 S
C790 C793 1.526 . S
C791 H775 0.959 . S
C791 H776 0.959 . S
C791 H777 0.961 . S
C791 C790 1.502 . S
C792 H778 0.960 . S
C792 H779 0.961 . S
C792 H780 0.959 . S
C792 C790 1.561 1_655 S
C793 C790 1.526 . S
C793 C794 1.396 1_556 S
C793 C798 1.390 . S
C794 C788 1.465 . S
C794 C793 1.396 1_554 S
C794 C795 1.399 . S
C795 H781 0.929 . S
C795 C794 1.399 . S
C795 C796 1.385 . S
C796 H782 0.931 . S
C796 C795 1.385 . S
C796 C797 1.389 1_554 S
C797 C796 1.389 1_556 S
C797 C798 1.387 . S
C798 H783 0.930 . S
C798 C793 1.390 . S
C798 C797 1.387 . S
H799 C811 0.930 . S
H800 C813 0.930 . S
H801 C814 0.930 . S
H802 C818 0.959 . S
H803 C818 0.959 . S
H804 C818 0.961 . S
H805 C819 0.960 . S
H806 C819 0.961 . S
H807 C819 0.959 . S
H808 C822 0.929 1_554 S
H809 C823 0.928 . S
H810 C825 0.930 . S
C811 H799 0.930 . S
C811 C812 1.399 1_545 S
C811 C816 1.399 . S
C812 C811 1.399 1_565 S
C812 C813 1.376 . S
C813 H800 0.930 . S
C813 C812 1.376 . S
C813 C814 1.388 . S
C814 H801 0.930 . S
C814 C813 1.388 . S
C814 C815 1.379 1_565 S
C815 C814 1.379 1_545 S
C815 C816 1.404 . S
C815 C821 1.469 . S
C816 C811 1.399 . S
C816 C815 1.404 . S
C816 C817 1.516 . S
C817 C816 1.516 . S
C817 C818 1.502 . S
C817 C819 1.561 1_554 S
C817 C820 1.526 1_554 S
C818 H802 0.959 . S
C818 H803 0.959 . S
C818 H804 0.961 . S
C818 C817 1.502 . S
C819 H805 0.960 . S
C819 H806 0.961 . S
C819 H807 0.959 . S
C819 C817 1.561 1_556 S
C820 C817 1.526 1_556 S
C820 C821 1.396 1_556 S
C820 C825 1.390 . S
C821 C815 1.469 . S
C821 C820 1.396 1_554 S
C821 C822 1.399 1_544 S
C822 H808 0.929 1_556 S
C822 C821 1.399 1_566 S
C822 C823 1.385 1_565 S
C823 H809 0.928 . S
C823 C822 1.385 1_545 S
C823 C824 1.389 . S
C824 C823 1.389 . S
C824 C825 1.387 . S
C825 H810 0.930 . S
C825 C820 1.390 . S
C825 C824 1.387 . S
H826 C838 0.930 . S
H827 C840 0.930 . S
H828 C841 0.933 . S
H829 C845 0.959 . S
H830 C845 0.959 . S
H831 C845 0.961 . S
H832 C846 0.960 . S
H833 C846 0.961 . S
H834 C846 0.959 . S
H835 C849 0.929 . S
H836 C850 0.931 . S
H837 C852 0.930 . S
C838 H826 0.930 . S
C838 C839 1.399 . S
C838 C843 1.399 . S
C839 C838 1.399 . S
C839 C840 1.376 . S
C840 H827 0.930 . S
C840 C839 1.376 . S
C840 C841 1.386 1_554 S
C841 H828 0.933 . S
C841 C840 1.386 1_556 S
C841 C842 1.389 1_556 S
C842 C841 1.389 1_554 S
C842 C843 1.394 . S
C842 C848 1.465 1_554 S
C843 C838 1.399 . S
C843 C842 1.394 . S
C843 C844 1.516 . S
C844 C843 1.516 . S
C844 C845 1.502 . S
C844 C846 1.561 . S
C844 C847 1.526 . S
C845 H829 0.959 . S
C845 H830 0.959 . S
C845 H831 0.961 . S
C845 C844 1.502 . S
C846 H832 0.960 . S
C846 H833 0.961 . S
C846 H834 0.959 . S
C846 C844 1.561 . S
C847 C844 1.526 . S
C847 C848 1.396 1_554 S
C847 C852 1.390 . S
C848 C842 1.465 1_556 S
C848 C847 1.396 1_556 S
C848 C849 1.399 . S
C849 H835 0.929 . S
C849 C848 1.399 . S
C849 C850 1.385 . S
C850 H836 0.931 . S
C850 C849 1.385 . S
C850 C851 1.389 . S
C851 C850 1.389 . S
C851 C852 1.387 1_556 S
C852 H837 0.930 . S
C852 C847 1.390 . S
C852 C851 1.387 1_554 S
H853 C865 0.930 . S
H854 C867 0.930 . S
H855 C868 0.930 1_556 S
H856 C872 0.959 . S
H857 C872 0.959 . S
H858 C872 0.961 . S
H859 C873 0.960 . S
H860 C873 0.961 . S
H861 C873 0.959 . S
H862 C876 0.929 . S
H863 C877 0.931 . S
H864 C879 0.930 . S
C865 H853 0.930 . S
C865 C866 1.399 . S
C865 C870 1.399 . S
C866 C865 1.399 . S
C866 C867 1.376 . S
C867 H854 0.930 . S
C867 C866 1.376 . S
C867 C868 1.388 . S
C868 H855 0.930 1_554 S
C868 C867 1.388 . S
C868 C869 1.390 . S
C869 C868 1.390 . S
C869 C870 1.394 . S
C869 C875 1.465 1_554 S
C870 C865 1.399 . S
C870 C869 1.394 . S
C870 C871 1.516 . S
C871 C870 1.516 . S
C871 C872 1.502 . S
C871 C873 1.561 . S
C871 C874 1.526 . S
C872 H856 0.959 . S
C872 H857 0.959 . S
C872 H858 0.961 . S
C872 C871 1.502 . S
C873 H859 0.960 . S
C873 H860 0.961 . S
C873 H861 0.959 . S
C873 C871 1.561 . S
C874 C871 1.526 . S
C874 C875 1.396 1_554 S
C874 C879 1.390 . S
C875 C869 1.465 1_556 S
C875 C874 1.396 1_556 S
C875 C876 1.399 . S
C876 H862 0.929 . S
C876 C875 1.399 . S
C876 C877 1.385 . S
C877 H863 0.931 . S
C877 C876 1.385 . S
C877 C878 1.389 . S
C878 C877 1.389 . S
C878 C879 1.387 1_556 S
C879 H864 0.930 . S
C879 C874 1.390 . S
C879 C878 1.387 1_554 S
H880 C892 0.930 . S
H881 C894 0.930 . S
H882 C895 0.930 . S
H883 C899 0.959 . S
H884 C899 0.959 . S
H885 C899 0.961 . S
H886 C900 0.960 . S
H887 C900 0.961 . S
H888 C900 0.959 . S
H889 C903 0.929 . S
H890 C904 0.931 . S
H891 C906 0.930 1_655 S
C892 H880 0.930 . S
C892 C893 1.399 1_655 S
C892 C897 1.390 1_655 S
C893 C892 1.399 1_455 S
C893 C894 1.376 . S
C894 H881 0.930 . S
C894 C893 1.376 . S
C894 C895 1.388 . S
C895 H882 0.930 . S
C895 C894 1.388 . S
C895 C896 1.390 . S
C896 C895 1.390 . S
C896 C897 1.419 . S
C896 C902 1.465 . S
C897 C892 1.390 1_455 S
C897 C896 1.419 . S
C897 C898 1.506 1_455 S
C898 C897 1.506 1_655 S
C898 C899 1.502 . S
C898 C900 1.561 1_655 S
C898 C901 1.526 1_655 S
C899 H883 0.959 . S
C899 H884 0.959 . S
C899 H885 0.961 . S
C899 C898 1.502 . S
C900 H886 0.960 . S
C900 H887 0.961 . S
C900 H888 0.959 . S
C900 C898 1.561 1_455 S
C901 C898 1.526 1_455 S
C901 C902 1.396 . S
C901 C906 1.390 . S
C902 C896 1.465 . S
C902 C901 1.396 . S
C902 C903 1.399 . S
C903 H889 0.929 . S
C903 C902 1.399 . S
C903 C904 1.385 . S
C904 H890 0.931 . S
C904 C903 1.385 . S
C904 C905 1.389 . S
C905 C904 1.389 . S
C905 C906 1.387 . S
C906 H891 0.930 1_455 S
C906 C901 1.390 . S
C906 C905 1.387 . S
H907 C919 0.930 . S
H908 C921 0.930 . S
H909 C922 0.930 . S
H910 C926 0.959 . S
H911 C926 0.959 . S
H912 C926 0.961 . S
H913 C927 0.960 . S
H914 C927 0.961 . S
H915 C927 0.959 . S
H916 C930 0.929 . S
H917 C931 0.927 1_565 S
H918 C933 0.930 . S
C919 H907 0.930 . S
C919 C920 1.409 . S
C919 C924 1.399 . S
C920 C919 1.409 . S
C920 C921 1.366 1_545 S
C921 H908 0.930 . S
C921 C920 1.366 1_565 S
C921 C922 1.388 . S
C922 H909 0.930 . S
C922 C921 1.388 . S
C922 C923 1.396 . S
C923 C922 1.396 . S
C923 C924 1.388 1_565 S
C923 C929 1.464 1_565 S
C924 C919 1.399 . S
C924 C923 1.388 1_545 S
C924 C925 1.516 . S
C925 C924 1.516 . S
C925 C926 1.502 . S
C925 C927 1.561 1_545 S
C925 C928 1.526 . S
C926 H910 0.959 . S
C926 H911 0.959 . S
C926 H912 0.961 . S
C926 C925 1.502 . S
C927 H913 0.960 . S
C927 H914 0.961 . S
C927 H915 0.959 . S
C927 C925 1.561 1_565 S
C928 C925 1.526 . S
C928 C929 1.396 . S
C928 C933 1.390 . S
C929 C923 1.464 1_545 S
C929 C928 1.396 . S
C929 C930 1.399 1_545 S
C930 H916 0.929 . S
C930 C929 1.399 1_565 S
C930 C931 1.385 1_565 S
C931 H917 0.927 1_545 S
C931 C930 1.385 1_545 S
C931 C932 1.389 . S
C932 C931 1.389 . S
C932 C933 1.387 . S
C933 H918 0.930 . S
C933 C928 1.390 . S
C933 C932 1.387 . S
H934 C946 0.930 . S
H935 C948 0.930 . S
H936 C949 0.930 . S
H937 C953 0.959 . S
H938 C953 0.959 . S
H939 C953 0.961 . S
H940 C954 0.960 . S
H941 C954 0.961 . S
H942 C954 0.959 . S
H943 C957 0.929 . S
H944 C958 0.931 . S
H945 C960 0.930 . S
C946 H934 0.930 . S
C946 C947 1.399 . S
C946 C951 1.399 . S
C947 C946 1.399 . S
C947 C948 1.376 . S
C948 H935 0.930 . S
C948 C947 1.376 . S
C948 C949 1.388 . S
C949 H936 0.930 . S
C949 C948 1.388 . S
C949 C950 1.390 . S
C950 C949 1.390 . S
C950 C951 1.394 . S
C950 C956 1.465 . S
C951 C946 1.399 . S
C951 C950 1.394 . S
C951 C952 1.516 . S
C952 C951 1.516 . S
C952 C953 1.502 . S
C952 C954 1.561 . S
C952 C955 1.526 . S
C953 H937 0.959 . S
C953 H938 0.959 . S
C953 H939 0.961 . S
C953 C952 1.502 . S
C954 H940 0.960 . S
C954 H941 0.961 . S
C954 H942 0.959 . S
C954 C952 1.561 . S
C955 C952 1.526 . S
C955 C956 1.396 . S
C955 C960 1.390 . S
C956 C950 1.465 . S
C956 C955 1.396 . S
C956 C957 1.399 . S
C957 H943 0.929 . S
C957 C956 1.399 . S
C957 C958 1.385 . S
C958 H944 0.931 . S
C958 C957 1.385 . S
C958 C959 1.389 . S
C959 C958 1.389 . S
C959 C960 1.387 . S
C960 H945 0.930 . S
C960 C955 1.390 . S
C960 C959 1.387 . S
H961 C973 0.930 . S
H962 C975 0.930 . S
H963 C976 0.930 . S
H964 C980 0.959 . S
H965 C980 0.959 . S
H966 C980 0.961 . S
H967 C981 0.960 . S
H968 C981 0.961 . S
H969 C981 0.959 . S
H970 C984 0.929 . S
H971 C985 0.931 . S
H972 C987 0.930 . S
C973 H961 0.930 . S
C973 C974 1.399 . S
C973 C978 1.399 . S
C974 C973 1.399 . S
C974 C975 1.376 . S
C975 H962 0.930 . S
C975 C974 1.376 . S
C975 C976 1.388 . S
C976 H963 0.930 . S
C976 C975 1.388 . S
C976 C977 1.390 . S
C977 C976 1.390 . S
C977 C978 1.394 . S
C977 C983 1.465 . S
C978 C973 1.399 . S
C978 C977 1.394 . S
C978 C979 1.516 . S
C979 C978 1.516 . S
C979 C980 1.502 . S
C979 C981 1.561 . S
C979 C982 1.526 . S
C980 H964 0.959 . S
C980 H965 0.959 . S
C980 H966 0.961 . S
C980 C979 1.502 . S
C981 H967 0.960 . S
C981 H968 0.961 . S
C981 H969 0.959 . S
C981 C979 1.561 . S
C982 C979 1.526 . S
C982 C983 1.396 . S
C982 C987 1.390 . S
C983 C977 1.465 . S
C983 C982 1.396 . S
C983 C984 1.399 . S
C984 H970 0.929 . S
C984 C983 1.399 . S
C984 C985 1.385 . S
C985 H971 0.931 . S
C985 C984 1.385 . S
C985 C986 1.389 . S
C986 C985 1.389 . S
C986 C987 1.387 . S
C987 H972 0.930 . S
C987 C982 1.390 . S
C987 C986 1.387 . S
H988 C1000 0.930 . S
H989 C1002 0.930 . S
H990 C1003 0.930 . S
H991 C1007 0.959 . S
H992 C1007 0.959 . S
H993 C1007 0.961 . S
H994 C1008 0.960 . S
H995 C1008 0.961 . S
H996 C1008 0.959 . S
H997 C1011 0.929 . S
H998 C1012 0.927 1_455 S
H999 C1014 0.930 . S
C1000 H988 0.930 . S
C1000 C1001 1.408 . S
C1000 C1005 1.399 . S
C1001 C1000 1.408 . S
C1001 C1002 1.367 1_655 S
C1002 H989 0.930 . S
C1002 C1001 1.367 1_455 S
C1002 C1003 1.388 . S
C1003 H990 0.930 . S
C1003 C1002 1.388 . S
C1003 C1004 1.396 . S
C1004 C1003 1.396 . S
C1004 C1005 1.387 1_455 S
C1004 C1010 1.463 1_455 S
C1005 C1000 1.399 . S
C1005 C1004 1.387 1_655 S
C1005 C1006 1.516 . S
C1006 C1005 1.516 . S
C1006 C1007 1.502 . S
C1006 C1008 1.561 1_655 S
C1006 C1009 1.526 . S
C1007 H991 0.959 . S
C1007 H992 0.959 . S
C1007 H993 0.961 . S
C1007 C1006 1.502 . S
C1008 H994 0.960 . S
C1008 H995 0.961 . S
C1008 H996 0.959 . S
C1008 C1006 1.561 1_455 S
C1009 C1006 1.526 . S
C1009 C1010 1.396 . S
C1009 C1014 1.390 . S
C1010 C1004 1.463 1_655 S
C1010 C1009 1.396 . S
C1010 C1011 1.399 1_655 S
C1011 H997 0.929 . S
C1011 C1010 1.399 1_455 S
C1011 C1012 1.385 1_455 S
C1012 H998 0.927 1_655 S
C1012 C1011 1.385 1_655 S
C1012 C1013 1.389 . S
C1013 C1012 1.389 . S
C1013 C1014 1.387 . S
C1014 H999 0.930 . S
C1014 C1009 1.390 . S
C1014 C1013 1.387 . S
H1015 C1027 0.922 1_545 S
H1016 C1029 0.930 . S
H1017 C1030 0.930 . S
H1018 C1034 0.959 . S
H1019 C1034 0.959 . S
H1020 C1034 0.961 . S
H1021 C1035 0.960 . S
H1022 C1035 0.961 . S
H1023 C1035 0.959 . S
H1024 C1038 0.929 . S
H1025 C1039 0.931 . S
H1026 C1041 0.930 . S
C1027 H1015 0.922 1_565 S
C1027 C1028 1.403 . S
C1027 C1032 1.404 . S
C1028 C1027 1.403 . S
C1028 C1029 1.376 . S
C1029 H1016 0.930 . S
C1029 C1028 1.376 . S
C1029 C1030 1.388 . S
C1030 H1017 0.930 . S
C1030 C1029 1.388 . S
C1030 C1031 1.390 . S
C1031 C1030 1.390 . S
C1031 C1032 1.394 . S
C1031 C1037 1.465 . S
C1032 C1027 1.404 . S
C1032 C1031 1.394 . S
C1032 C1033 1.516 . S
C1033 C1032 1.516 . S
C1033 C1034 1.502 1_565 S
C1033 C1035 1.561 . S
C1033 C1036 1.526 . S
C1034 H1018 0.959 . S
C1034 H1019 0.959 . S
C1034 H1020 0.961 . S
C1034 C1033 1.502 1_545 S
C1035 H1021 0.960 . S
C1035 H1022 0.961 . S
C1035 H1023 0.959 . S
C1035 C1033 1.561 . S
C1036 C1033 1.526 . S
C1036 C1037 1.396 . S
C1036 C1041 1.390 . S
C1037 C1031 1.465 . S
C1037 C1036 1.396 . S
C1037 C1038 1.399 . S
C1038 H1024 0.929 . S
C1038 C1037 1.399 . S
C1038 C1039 1.385 . S
C1039 H1025 0.931 . S
C1039 C1038 1.385 . S
C1039 C1040 1.389 . S
C1040 C1039 1.389 . S
C1040 C1041 1.387 . S
C1041 H1026 0.930 . S
C1041 C1036 1.390 . S
C1041 C1040 1.387 . S
H1042 C1054 0.930 . S
H1043 C1056 0.930 . S
H1044 C1057 0.930 . S
H1045 C1061 0.959 . S
H1046 C1061 0.959 . S
H1047 C1061 0.961 . S
H1048 C1062 0.960 . S
H1049 C1062 0.961 . S
H1050 C1062 0.959 . S
H1051 C1065 0.929 . S
H1052 C1066 0.931 . S
H1053 C1068 0.930 . S
C1054 H1042 0.930 . S
C1054 C1055 1.399 . S
C1054 C1059 1.399 . S
C1055 C1054 1.399 . S
C1055 C1056 1.376 . S
C1056 H1043 0.930 . S
C1056 C1055 1.376 . S
C1056 C1057 1.388 . S
C1057 H1044 0.930 . S
C1057 C1056 1.388 . S
C1057 C1058 1.390 . S
C1058 C1057 1.390 . S
C1058 C1059 1.394 . S
C1058 C1064 1.465 . S
C1059 C1054 1.399 . S
C1059 C1058 1.394 . S
C1059 C1060 1.516 . S
C1060 C1059 1.516 . S
C1060 C1061 1.502 . S
C1060 C1062 1.561 . S
C1060 C1063 1.526 . S
C1061 H1045 0.959 . S
C1061 H1046 0.959 . S
C1061 H1047 0.961 . S
C1061 C1060 1.502 . S
C1062 H1048 0.960 . S
C1062 H1049 0.961 . S
C1062 H1050 0.959 . S
C1062 C1060 1.561 . S
C1063 C1060 1.526 . S
C1063 C1064 1.396 . S
C1063 C1068 1.390 . S
C1064 C1058 1.465 . S
C1064 C1063 1.396 . S
C1064 C1065 1.399 . S
C1065 H1051 0.929 . S
C1065 C1064 1.399 . S
C1065 C1066 1.385 . S
C1066 H1052 0.931 . S
C1066 C1065 1.385 . S
C1066 C1067 1.389 . S
C1067 C1066 1.389 . S
C1067 C1068 1.387 . S
C1068 H1053 0.930 . S
C1068 C1063 1.390 . S
C1068 C1067 1.387 . S
H1069 C1081 0.930 . S
H1070 C1083 0.930 . S
H1071 C1084 0.930 . S
H1072 C1088 0.959 . S
H1073 C1088 0.959 . S
H1074 C1088 0.961 . S
H1075 C1089 0.960 . S
H1076 C1089 0.961 . S
H1077 C1089 0.959 . S
H1078 C1092 0.929 . S
H1079 C1093 0.931 . S
H1080 C1095 0.930 . S
C1081 H1069 0.930 . S
C1081 C1082 1.399 . S
C1081 C1086 1.399 . S
C1082 C1081 1.399 . S
C1082 C1083 1.376 . S
C1083 H1070 0.930 . S
C1083 C1082 1.376 . S
C1083 C1084 1.388 . S
C1084 H1071 0.930 . S
C1084 C1083 1.388 . S
C1084 C1085 1.390 . S
C1085 C1084 1.390 . S
C1085 C1086 1.394 . S
C1085 C1091 1.465 . S
C1086 C1081 1.399 . S
C1086 C1085 1.394 . S
C1086 C1087 1.516 . S
C1087 C1086 1.516 . S
C1087 C1088 1.502 . S
C1087 C1089 1.561 . S
C1087 C1090 1.526 . S
C1088 H1072 0.959 . S
C1088 H1073 0.959 . S
C1088 H1074 0.961 . S
C1088 C1087 1.502 . S
C1089 H1075 0.960 . S
C1089 H1076 0.961 . S
C1089 H1077 0.959 . S
C1089 C1087 1.561 . S
C1090 C1087 1.526 . S
C1090 C1091 1.396 . S
C1090 C1095 1.390 . S
C1091 C1085 1.465 . S
C1091 C1090 1.396 . S
C1091 C1092 1.399 . S
C1092 H1078 0.929 . S
C1092 C1091 1.399 . S
C1092 C1093 1.385 . S
C1093 H1079 0.931 . S
C1093 C1092 1.385 . S
C1093 C1094 1.389 . S
C1094 C1093 1.389 . S
C1094 C1095 1.387 . S
C1095 H1080 0.930 . S
C1095 C1090 1.390 . S
C1095 C1094 1.387 . S
C461 C241 2.171 1_565 S
C473 C306 2.382 . S
C500 C346 2.416 . S
C488 C277 2.261 . S
C527 C386 2.397 . S
C515 C169 2.188 . S
C554 C426 2.399 1_455 S
C542 C205 2.186 . S
C581 C296 2.386 . S
C569 C97 2.102 . S
C596 C133 2.262 . S
C608 C336 2.417 . S
C623 C25 2.176 . S
C635 C376 2.411 . S
C650 C61 2.128 1_655 S
C662 C416 2.407 1_655 S
C689 C293 0.290 . S
C677 C211 0.382 . S
C716 C333 0.521 . S
C704 C247 0.362 . S
C743 C373 0.382 . S
C731 C253 0.488 . S
C758 C175 0.410 . S
C770 C413 0.499 . S
C785 C67 0.408 1_655 S
C797 C303 0.436 . S
C824 C343 0.297 . S
C812 C103 0.555 1_565 S
C851 C383 0.409 . S
C839 C109 0.393 . S
C866 C31 0.547 . S
C878 C423 0.322 . S
C893 C181 2.807 . S
C905 C297 3.185 . S
C920 C217 2.827 . S
C932 C337 3.133 . S
C959 C377 3.130 . S
C947 C283 2.754 . S
C986 C417 3.153 . S
C974 C145 2.840 . S
C1001 C37 2.808 1_655 S
C1013 C307 3.185 . S
C1040 C347 3.143 . S
C1028 C73 2.833 1_565 S
C1067 C387 3.138 . S
C1055 C139 2.691 . S
C1082 C1 2.851 . S
C1094 C427 3.163 . S
