# Generated by pormake.
# Topology pth, (4,4)-cn, num edge types: 1
# Building blocks:
#     Node 0, Type 0, BuildingBlock: NAHDIM_clean_sbu_0, # of connection points: 4
#     Node 1, Type 0, BuildingBlock: NAHDIM_clean_sbu_0, # of connection points: 4
#     Node 2, Type 0, BuildingBlock: NAHDIM_clean_sbu_0, # of connection points: 4
#     Node 3, Type 1, BuildingBlock: NAHDIM_clean_linker_0, # of connection points: 4
#     Node 4, Type 1, BuildingBlock: NAHDIM_clean_linker_0, # of connection points: 4
#     Node 5, Type 1, BuildingBlock: NAHDIM_clean_linker_0, # of connection points: 4
#     Edge 6, Type (0, 1), BuildingBlock: MIFKUJ_clean_linker_0, # of connection points: 2
#     Edge 7, Type (0, 1), BuildingBlock: MIFKUJ_clean_linker_0, # of connection points: 2
#     Edge 8, Type (0, 1), BuildingBlock: MIFKUJ_clean_linker_0, # of connection points: 2
#     Edge 9, Type (0, 1), BuildingBlock: MIFKUJ_clean_linker_0, # of connection points: 2
#     Edge 10, Type (0, 1), BuildingBlock: MIFKUJ_clean_linker_0, # of connection points: 2
#     Edge 11, Type (0, 1), BuildingBlock: MIFKUJ_clean_linker_0, # of connection points: 2
#     Edge 12, Type (0, 1), BuildingBlock: MIFKUJ_clean_linker_0, # of connection points: 2
#     Edge 13, Type (0, 1), BuildingBlock: MIFKUJ_clean_linker_0, # of connection points: 2
#     Edge 14, Type (0, 1), BuildingBlock: MIFKUJ_clean_linker_0, # of connection points: 2
#     Edge 15, Type (0, 1), BuildingBlock: MIFKUJ_clean_linker_0, # of connection points: 2
#     Edge 16, Type (0, 1), BuildingBlock: MIFKUJ_clean_linker_0, # of connection points: 2
#     Edge 17, Type (0, 1), BuildingBlock: MIFKUJ_clean_linker_0, # of connection points: 2
# Relax obj value: 0.059
# Max RMSD: 0.179
# Mean RMSD: 0.115
data_MOF--net-pth--node1-NAHDIM_clean_sbu_0--node2-NAHDIM_clean_linker_0--edge1-MIFKUJ_clean_linker_0
_symmetry_space_group_name_H-M    P1
_symmetry_Int_Tables_number       1
_symmetry_cell_setting            triclinic
loop_
_symmetry_equiv_pos_as_xyz
'x, y, z'
_cell_length_a     38.442525
_cell_length_b     38.60625
_cell_length_c     96.311629
_cell_angle_alpha  91.636047
_cell_angle_beta   90.449278
_cell_angle_gamma 120.50529
loop_
_atom_site_label
_atom_site_type_symbol
_atom_site_fract_x
_atom_site_fract_y
_atom_site_fract_z
_atom_type_partial_charge
C0 C 0.04168 0.97535 0.08613 0.0
O1 O 0.03263 0.96691 0.07281 0.0
O2 O 0.02813 0.08254 0.09204 0.0
Zn3 Zn 0.03437 0.04339 0.07956 0.0
O4 O 0.98555 0.00712 0.06731 0.0
C5 C 0.07535 0.10227 0.0603 0.0
O6 O 0.04223 0.10357 0.06218 0.0
O7 O 0.04592 0.00794 0.09135 0.0
C8 C 0.9584 0.01295 0.06223 0.0
O9 O 0.95879 0.04647 0.0654 0.0
C10 C 0.99738 0.08026 0.09775 0.0
O11 O 0.9618 0.04764 0.09582 0.0
O12 O 0.08039 0.07713 0.06698 0.0
C13 C 0.07345 0.13086 0.38107 0.0
O14 O 0.04302 0.0961 0.37652 0.0
O15 O 0.04388 0.03415 0.39201 0.0
Zn16 Zn 0.06616 0.08395 0.40454 0.0
O17 O 0.02167 0.08275 0.41587 0.0
C18 C 0.12967 0.07004 0.41358 0.0
O19 O 0.12369 0.05342 0.40104 0.0
O20 O 0.08935 0.13321 0.39294 0.0
C21 C 0.01545 0.0712 0.4283 0.0
O22 O 0.03802 0.05852 0.43394 0.0
C23 C 0.02539 0.99904 0.39676 0.0
O24 O 0.01962 0.99498 0.41019 0.0
O25 O 0.10927 0.08615 0.4173 0.0
C26 C 0.1049 0.03024 0.72074 0.0
O27 O 0.09736 0.05775 0.71637 0.0
O28 O 0.0287 0.04944 0.73046 0.0
Zn29 Zn 0.05662 0.03025 0.74329 0.0
O30 O 0.09204 0.07572 0.75688 0.0
C31 C 0.98057 0.95895 0.74678 0.0
O32 O 0.97613 0.96515 0.73372 0.0
O33 O 0.09061 0.01391 0.7322 0.0
C34 C 0.08076 0.07834 0.76904 0.0
O35 O 0.04545 0.04983 0.77313 0.0
C36 C 0.00656 0.06229 0.73536 0.0
O37 O 0.00284 0.06366 0.74888 0.0
O38 O 0.01369 0.98267 0.75323 0.0
C39 C 0.90791 0.65521 0.29407 0.0
C40 C 0.94289 0.66466 0.30419 0.0
C41 C 0.98922 0.65259 0.28998 0.0
C42 C 0.02675 0.67154 0.28371 0.0
C43 C 0.0402 0.64944 0.276 0.0
C44 C 0.01508 0.6072 0.27436 0.0
C45 C 0.9772 0.58761 0.28081 0.0
C46 C 0.9647 0.61046 0.28864 0.0
C47 C 0.08108 0.67131 0.26946 0.0
C48 C 0.94971 0.5426 0.27924 0.0
C49 C 0.18816 0.47411 0.28681 0.0
C50 C 0.15632 0.46623 0.2977 0.0
C51 C 0.10663 0.47765 0.28532 0.0
C52 C 0.06726 0.45837 0.27981 0.0
C53 C 0.05194 0.47992 0.27321 0.0
C54 C 0.07702 0.52193 0.27191 0.0
C55 C 0.11684 0.54188 0.27759 0.0
C56 C 0.13122 0.51959 0.28434 0.0
C57 C 0.009 0.45768 0.26755 0.0
C58 C 0.14433 0.58663 0.27635 0.0
C59 C 0.10596 0.48674 0.1813 0.0
C60 C 0.06942 0.46181 0.18779 0.0
C61 C 0.04974 0.47838 0.19526 0.0
C62 C 0.06781 0.52077 0.19662 0.0
C63 C 0.10415 0.54582 0.18974 0.0
C64 C 0.12232 0.52833 0.18193 0.0
C65 C 0.00997 0.45058 0.20183 0.0
C66 C 0.12428 0.59109 0.19084 0.0
C67 C 0.88349 0.66684 0.18682 0.0
C68 C 0.92549 0.67237 0.18508 0.0
C69 C 0.94462 0.62126 0.18715 0.0
C70 C 0.927 0.57991 0.18871 0.0
C71 C 0.94863 0.56389 0.19493 0.0
C72 C 0.98928 0.58996 0.19933 0.0
C73 C 0.00803 0.63166 0.19701 0.0
C74 C 0.98538 0.64697 0.19105 0.0
C75 C 0.92774 0.51925 0.19712 0.0
C76 C 0.05179 0.66011 0.20106 0.0
C77 C 0.02818 0.58385 0.26558 0.0
C78 C 0.04644 0.565 0.27211 0.0
C79 C 0.06154 0.54458 0.26435 0.0
C80 C 0.05973 0.54407 0.24966 0.0
C81 C 0.07721 0.52636 0.24154 0.0
C82 C 0.07462 0.52536 0.2271 0.0
C83 C 0.05356 0.54113 0.22022 0.0
C84 C 0.04954 0.53904 0.20554 0.0
C85 C 0.02853 0.55522 0.19908 0.0
C86 C 0.01154 0.57378 0.20685 0.0
C87 C 0.01532 0.57624 0.22153 0.0
C88 C 0.99853 0.59464 0.22968 0.0
C89 C 0.00289 0.5974 0.24409 0.0
C90 C 0.02355 0.58119 0.25094 0.0
C91 C 0.0399 0.56171 0.24295 0.0
C92 C 0.03626 0.5597 0.22822 0.0
C93 C 0.17469 0.4518 0.1769 0.0
C94 C 0.1305 0.43998 0.17848 0.0
O95 O 0.97805 0.67632 0.29702 0.0
O96 O 0.92138 0.63522 0.18189 0.0
O97 O 0.12606 0.47161 0.1743 0.0
O98 O 0.11934 0.45436 0.29129 0.0
H99 H 0.93509 0.63748 0.31015 0.0
H100 H 0.90162 0.62968 0.28685 0.0
H101 H 0.91529 0.6817 0.28779 0.0
H102 H 0.88003 0.64677 0.29989 0.0
H103 H 0.04553 0.70399 0.28485 0.0
H104 H 0.93565 0.59515 0.29349 0.0
H105 H 0.09895 0.65708 0.27223 0.0
H106 H 0.09847 0.70365 0.27277 0.0
H107 H 0.07717 0.66903 0.25797 0.0
H108 H 0.92045 0.53202 0.28441 0.0
H109 H 0.96483 0.52739 0.2838 0.0
H110 H 0.94368 0.53336 0.26805 0.0
H111 H 0.16623 0.4941 0.30422 0.0
H112 H 0.21754 0.48282 0.292 0.0
H113 H 0.19277 0.49897 0.28014 0.0
H114 H 0.17858 0.44681 0.28003 0.0
H115 H 0.04846 0.42608 0.28067 0.0
H116 H 0.16169 0.53512 0.28864 0.0
H117 H 0.00913 0.45768 0.25603 0.0
H118 H 0.99272 0.47308 0.27112 0.0
H119 H 0.99211 0.42597 0.27078 0.0
H120 H 0.17523 0.59736 0.28062 0.0
H121 H 0.13145 0.60281 0.28202 0.0
H122 H 0.14644 0.59456 0.26527 0.0
H123 H 0.12359 0.43465 0.18971 0.0
H124 H 0.05615 0.42946 0.18692 0.0
H125 H 0.15028 0.54717 0.17669 0.0
H126 H 0.01476 0.45066 0.2132 0.0
H127 H 0.99638 0.41914 0.19763 0.0
H128 H 0.98821 0.46103 0.20011 0.0
H129 H 0.15445 0.60625 0.18606 0.0
H130 H 0.12784 0.60143 0.20192 0.0
H131 H 0.10498 0.60066 0.18554 0.0
H132 H 0.94194 0.68458 0.19526 0.0
H133 H 0.88585 0.6961 0.18963 0.0
H134 H 0.86776 0.64578 0.19527 0.0
H135 H 0.86506 0.65425 0.17706 0.0
H136 H 0.8957 0.56032 0.18547 0.0
H137 H 0.99954 0.67892 0.18942 0.0
H138 H 0.92965 0.51379 0.20828 0.0
H139 H 0.94323 0.50609 0.19121 0.0
H140 H 0.89545 0.50335 0.19371 0.0
H141 H 0.06326 0.69054 0.19695 0.0
H142 H 0.07076 0.64797 0.19715 0.0
H143 H 0.05524 0.66303 0.21255 0.0
H144 H 0.04873 0.56606 0.28337 0.0
H145 H 0.09338 0.51331 0.24625 0.0
H146 H 0.08903 0.51168 0.22142 0.0
H147 H 0.02547 0.55344 0.18783 0.0
H148 H 0.98196 0.60734 0.22502 0.0
H149 H 0.98951 0.61208 0.24981 0.0
H150 H 0.18338 0.45719 0.16584 0.0
H151 H 0.17981 0.42773 0.18063 0.0
H152 H 0.19448 0.47982 0.18317 0.0
C153 C 0.33633 0.92042 0.62189 0.0
C154 C 0.36088 0.95125 0.63364 0.0
C155 C 0.42315 0.00091 0.62224 0.0
C156 C 0.44435 0.04048 0.61793 0.0
C157 C 0.48118 0.05548 0.61121 0.0
C158 C 0.49683 0.02985 0.60849 0.0
C159 C 0.47598 0.98991 0.61305 0.0
C160 C 0.43947 0.97589 0.62 0.0
C161 C 0.50308 0.09861 0.60684 0.0
C162 C 0.49196 0.96189 0.61034 0.0
C163 C 0.80083 0.19194 0.63424 0.0
C164 C 0.7718 0.15433 0.64207 0.0
C165 C 0.71585 0.11204 0.62543 0.0
C166 C 0.69698 0.07548 0.61781 0.0
C167 C 0.66149 0.06308 0.60993 0.0
C168 C 0.64488 0.0884 0.60945 0.0
C169 C 0.66385 0.1256 0.61708 0.0
C170 C 0.69901 0.13697 0.62506 0.0
C171 C 0.64172 0.02287 0.60213 0.0
C172 C 0.64707 0.15344 0.61671 0.0
C173 C 0.72241 0.1551 0.5224 0.0
C174 C 0.70713 0.11502 0.52596 0.0
C175 C 0.66917 0.09318 0.53201 0.0
C176 C 0.64668 0.11229 0.53487 0.0
C177 C 0.66152 0.15229 0.53081 0.0
C178 C 0.69897 0.17292 0.52439 0.0
C179 C 0.65349 0.04998 0.53555 0.0
C180 C 0.63833 0.17362 0.53355 0.0
C181 C 0.31988 0.9616 0.52442 0.0
C182 C 0.35306 0.00095 0.51861 0.0
C183 C 0.42151 0.01201 0.52014 0.0
C184 C 0.43975 0.98866 0.52067 0.0
C185 C 0.47731 0.00329 0.52748 0.0
C186 C 0.49731 0.04256 0.53366 0.0
C187 C 0.48002 0.06717 0.53247 0.0
C188 C 0.44227 0.05165 0.52568 0.0
C189 C 0.49511 0.97644 0.52844 0.0
C190 C 0.50109 0.10958 0.5386 0.0
C191 C 0.53435 0.0447 0.60051 0.0
C192 C 0.57079 0.05853 0.60786 0.0
C193 C 0.60752 0.07575 0.60103 0.0
C194 C 0.60817 0.08019 0.58649 0.0
C195 C 0.6447 0.09957 0.5794 0.0
C196 C 0.64498 0.10365 0.56508 0.0
C197 C 0.60868 0.08787 0.55724 0.0
C198 C 0.60858 0.09126 0.54264 0.0
C199 C 0.57191 0.07573 0.53523 0.0
C200 C 0.53512 0.0571 0.54203 0.0
C201 C 0.53462 0.05322 0.55659 0.0
C202 C 0.49811 0.03447 0.56374 0.0
C203 C 0.49792 0.03146 0.57809 0.0
C204 C 0.53421 0.04688 0.58587 0.0
C205 C 0.5713 0.06513 0.57886 0.0
C206 C 0.57153 0.0686 0.56421 0.0
C207 C 0.82824 0.21997 0.5241 0.0
C208 C 0.79382 0.1767 0.52131 0.0
O209 O 0.38705 0.98841 0.6283 0.0
O210 O 0.3842 0.99554 0.51407 0.0
O211 O 0.75964 0.17739 0.51707 0.0
O212 O 0.75018 0.1219 0.63281 0.0
H213 H 0.37834 0.94057 0.6396 0.0
H214 H 0.35643 0.9157 0.61489 0.0
H215 H 0.3193 0.93087 0.61559 0.0
H216 H 0.31464 0.891 0.62627 0.0
H217 H 0.43169 0.05964 0.61981 0.0
H218 H 0.42377 0.94532 0.62344 0.0
H219 H 0.53536 0.11384 0.61023 0.0
H220 H 0.48952 0.11588 0.61122 0.0
H221 H 0.50196 0.09927 0.59534 0.0
H222 H 0.47121 0.93109 0.61392 0.0
H223 H 0.52169 0.97401 0.61577 0.0
H224 H 0.49672 0.96001 0.59905 0.0
H225 H 0.7507 0.16046 0.64803 0.0
H226 H 0.81866 0.21769 0.64171 0.0
H227 H 0.78384 0.20039 0.62708 0.0
H228 H 0.8219 0.1865 0.628 0.0
H229 H 0.71013 0.05643 0.61815 0.0
H230 H 0.71317 0.16544 0.63085 0.0
H231 H 0.64346 0.02761 0.59078 0.0
H232 H 0.60926 0.00501 0.60467 0.0
H233 H 0.65635 0.0052 0.60457 0.0
H234 H 0.66711 0.18273 0.62228 0.0
H235 H 0.61707 0.13893 0.62159 0.0
H236 H 0.64267 0.15912 0.60578 0.0
H237 H 0.78849 0.16109 0.53131 0.0
H238 H 0.72481 0.10081 0.52398 0.0
H239 H 0.71089 0.20369 0.52138 0.0
H240 H 0.65586 0.04807 0.54696 0.0
H241 H 0.67085 0.03753 0.53046 0.0
H242 H 0.62114 0.03097 0.53237 0.0
H243 H 0.65585 0.20588 0.53099 0.0
H244 H 0.62999 0.17146 0.54464 0.0
H245 H 0.60993 0.15884 0.52718 0.0
H246 H 0.3635 0.02405 0.52726 0.0
H247 H 0.29453 0.96517 0.52812 0.0
H248 H 0.33222 0.9532 0.53334 0.0
H249 H 0.30815 0.93682 0.51635 0.0
H250 H 0.4238 0.95838 0.51611 0.0
H251 H 0.42917 0.07056 0.52469 0.0
H252 H 0.49868 0.97136 0.53952 0.0
H253 H 0.5256 0.99142 0.52391 0.0
H254 H 0.47602 0.94682 0.52294 0.0
H255 H 0.48517 0.12586 0.53591 0.0
H256 H 0.53248 0.12665 0.53486 0.0
H257 H 0.50291 0.10884 0.55009 0.0
H258 H 0.57059 0.05616 0.61906 0.0
H259 H 0.67356 0.1121 0.58486 0.0
H260 H 0.67407 0.11922 0.56024 0.0
H261 H 0.57202 0.07865 0.52406 0.0
H262 H 0.4692 0.02201 0.55832 0.0
H263 H 0.4689 0.0168 0.58301 0.0
H264 H 0.83508 0.23747 0.51452 0.0
H265 H 0.85592 0.22036 0.52777 0.0
H266 H 0.81951 0.2348 0.53228 0.0
C267 C 0.62022 0.61796 0.80974 0.0
C268 C 0.63525 0.65773 0.81801 0.0
C269 C 0.61562 0.63673 0.84153 0.0
C270 C 0.59111 0.65259 0.84513 0.0
C271 C 0.56211 0.63507 0.85542 0.0
C272 C 0.55723 0.6006 0.86202 0.0
C273 C 0.58222 0.58475 0.8584 0.0
C274 C 0.61175 0.60367 0.84839 0.0
C275 C 0.53677 0.65342 0.85923 0.0
C276 C 0.57742 0.54747 0.86489 0.0
C277 C 0.27259 0.4878 0.83089 0.0
C278 C 0.29729 0.46934 0.83586 0.0
C279 C 0.33658 0.48499 0.85731 0.0
C280 C 0.36025 0.46779 0.85419 0.0
C281 C 0.3976 0.48166 0.86107 0.0
C282 C 0.41203 0.51428 0.87093 0.0
C283 C 0.38754 0.53097 0.87429 0.0
C284 C 0.34958 0.51522 0.86767 0.0
C285 C 0.42194 0.46205 0.8575 0.0
C286 C 0.40195 0.5666 0.88436 0.0
C287 C 0.4089 0.45324 0.96313 0.0
C288 C 0.43489 0.44393 0.95608 0.0
C289 C 0.46156 0.46966 0.94626 0.0
C290 C 0.46231 0.5058 0.94347 0.0
C291 C 0.43575 0.51529 0.95041 0.0
C292 C 0.40907 0.48879 0.9601 0.0
C293 C 0.48927 0.45846 0.93897 0.0
C294 C 0.4359 0.55366 0.94767 0.0
C295 C 0.76699 0.76031 0.93491 0.0
C296 C 0.73463 0.74985 0.94579 0.0
C297 C 0.67824 0.68021 0.94509 0.0
C298 C 0.67078 0.64167 0.94149 0.0
C299 C 0.63215 0.61098 0.93699 0.0
C300 C 0.60027 0.61915 0.93623 0.0
C301 C 0.60709 0.65742 0.94065 0.0
C302 C 0.64597 0.68751 0.94515 0.0
C303 C 0.62565 0.57023 0.93264 0.0
C304 C 0.57343 0.66675 0.94033 0.0
C305 C 0.52531 0.58024 0.87241 0.0
C306 C 0.48534 0.5567 0.86756 0.0
C307 C 0.45416 0.53384 0.87659 0.0
C308 C 0.46339 0.53265 0.89075 0.0
C309 C 0.43373 0.50676 0.89985 0.0
C310 C 0.44306 0.50665 0.91386 0.0
C311 C 0.48218 0.53314 0.91934 0.0
C312 C 0.49183 0.53415 0.93361 0.0
C313 C 0.53056 0.56215 0.93879 0.0
C314 C 0.56044 0.58866 0.93002 0.0
C315 C 0.55197 0.58677 0.91561 0.0
C316 C 0.58188 0.61181 0.9064 0.0
C317 C 0.57333 0.60954 0.89224 0.0
C318 C 0.53432 0.58283 0.88679 0.0
C319 C 0.50342 0.55819 0.89593 0.0
C320 C 0.51254 0.55932 0.9103 0.0
C321 C 0.38142 0.46215 0.99337 0.0
C322 C 0.35826 0.43126 0.98147 0.0
O323 O 0.64371 0.65324 0.83163 0.0
O324 O 0.71672 0.70932 0.94854 0.0
O325 O 0.38482 0.42735 0.97282 0.0
O326 O 0.30164 0.47375 0.85021 0.0
H327 H 0.6112 0.66569 0.81764 0.0
H328 H 0.59239 0.59379 0.8144 0.0
H329 H 0.64357 0.60908 0.80985 0.0
H330 H 0.61284 0.62074 0.79881 0.0
H331 H 0.59507 0.67896 0.84003 0.0
H332 H 0.63119 0.59198 0.84556 0.0
H333 H 0.50533 0.6333 0.85528 0.0
H334 H 0.54841 0.68343 0.85475 0.0
H335 H 0.53584 0.65652 0.87071 0.0
H336 H 0.59481 0.53565 0.85942 0.0
H337 H 0.5451 0.52346 0.86481 0.0
H338 H 0.58833 0.55462 0.87588 0.0
H339 H 0.32747 0.48656 0.83106 0.0
H340 H 0.26897 0.48486 0.81938 0.0
H341 H 0.28841 0.52029 0.834 0.0
H342 H 0.24224 0.47277 0.83555 0.0
H343 H 0.34961 0.44366 0.84635 0.0
H344 H 0.33077 0.52799 0.87003 0.0
H345 H 0.4367 0.459 0.86698 0.0
H346 H 0.446 0.48114 0.85027 0.0
H347 H 0.40292 0.43183 0.85237 0.0
H348 H 0.3826 0.58028 0.88386 0.0
H349 H 0.4335 0.59011 0.88224 0.0
H350 H 0.40138 0.55678 0.89511 0.0
H351 H 0.34035 0.44119 0.97539 0.0
H352 H 0.43446 0.41641 0.95842 0.0
H353 H 0.3889 0.49639 0.96531 0.0
H354 H 0.48542 0.45868 0.92754 0.0
H355 H 0.48352 0.4283 0.94176 0.0
H356 H 0.52116 0.48112 0.94176 0.0
H357 H 0.41381 0.55706 0.95407 0.0
H358 H 0.42861 0.55415 0.93653 0.0
H359 H 0.46652 0.57995 0.94993 0.0
H360 H 0.71252 0.75698 0.94115 0.0
H361 H 0.78224 0.79284 0.93272 0.0
H362 H 0.75273 0.74275 0.92508 0.0
H363 H 0.78996 0.75298 0.93851 0.0
H364 H 0.69568 0.63607 0.94179 0.0
H365 H 0.65095 0.71657 0.9487 0.0
H366 H 0.61754 0.56431 0.92138 0.0
H367 H 0.60006 0.54644 0.93834 0.0
H368 H 0.65293 0.56795 0.93459 0.0
H369 H 0.58328 0.69754 0.94454 0.0
H370 H 0.5478 0.64465 0.94647 0.0
H371 H 0.56214 0.66391 0.92947 0.0
H372 H 0.47836 0.55646 0.85661 0.0
H373 H 0.40306 0.48612 0.8962 0.0
H374 H 0.41909 0.48599 0.92038 0.0
H375 H 0.53752 0.56335 0.94979 0.0
H376 H 0.61238 0.63321 0.91001 0.0
H377 H 0.59755 0.62936 0.88562 0.0
H378 H 0.40026 0.45333 0.99942 0.0
H379 H 0.35993 0.46441 0.00046 0.0
H380 H 0.40157 0.49238 0.9893 0.0
H381 H 0.93852 0.09546 0.10678 0.0
H382 H 0.94856 0.15611 0.11947 0.0
H383 H 0.07722 0.20349 0.12076 0.0
H384 H 0.06763 0.14409 0.10787 0.0
H385 H 0.97941 0.19101 0.14418 0.0
H386 H 0.12866 0.30103 0.11662 0.0
H387 H 0.1582 0.30743 0.09353 0.0
H388 H 0.03954 0.23667 0.07489 0.0
H389 H 0.00924 0.23036 0.09783 0.0
H390 H 0.10553 0.36333 0.18555 0.0
H391 H 0.07 0.30157 0.17115 0.0
H392 H 0.05884 0.36822 0.13788 0.0
H393 H 0.09651 0.43044 0.15201 0.0
H394 H 0.08279 0.32425 0.12759 0.0
H395 H 0.9745 0.29595 0.15684 0.0
H396 H 0.9392 0.28981 0.1787 0.0
H397 H 0.96433 0.19902 0.19162 0.0
H398 H 0.00033 0.20502 0.16993 0.0
C399 C 0.9689 0.11883 0.10981 0.0
C400 C 0.00231 0.1152 0.10618 0.0
C401 C 0.97458 0.15341 0.11706 0.0
C402 C 0.01371 0.18474 0.12079 0.0
C403 C 0.04683 0.18026 0.11766 0.0
C404 C 0.04126 0.14612 0.11033 0.0
C405 C 0.02066 0.22243 0.12792 0.0
C406 C 0.00175 0.22021 0.14053 0.0
C407 C 0.04865 0.26061 0.12288 0.0
C408 C 0.06669 0.26504 0.10898 0.0
C409 C 0.10884 0.28708 0.10759 0.0
C410 C 0.12573 0.29063 0.09452 0.0
C411 C 0.10077 0.2724 0.08276 0.0
C412 C 0.05885 0.25069 0.08402 0.0
C413 C 0.04181 0.24709 0.09705 0.0
C414 C 0.09481 0.3646 0.17525 0.0
C415 C 0.10336 0.40162 0.17001 0.0
C416 C 0.07421 0.32923 0.16704 0.0
C417 C 0.06096 0.32992 0.15346 0.0
C418 C 0.06853 0.36678 0.14833 0.0
C419 C 0.08986 0.40235 0.15646 0.0
C420 C 0.04297 0.29295 0.14426 0.0
C421 C 0.05985 0.29525 0.1312 0.0
C422 C 0.01215 0.25506 0.1487 0.0
C423 C 0.99031 0.2511 0.16176 0.0
C424 C 0.97273 0.27484 0.16437 0.0
C425 C 0.95256 0.27137 0.17673 0.0
C426 C 0.94956 0.24407 0.18655 0.0
C427 C 0.96667 0.22014 0.184 0.0
C428 C 0.9869 0.22352 0.17166 0.0
H429 H 0.93395 0.24143 0.19611 0.0
H430 H 0.11391 0.27512 0.07266 0.0
H431 H 0.99823 0.05412 0.45562 0.0
H432 H 0.95147 0.06433 0.46972 0.0
H433 H 0.91658 0.10562 0.43396 0.0
H434 H 0.96383 0.09614 0.41982 0.0
H435 H 0.9338 0.15598 0.4557 0.0
H436 H 0.85194 0.01369 0.4476 0.0
H437 H 0.8362 0.94328 0.44692 0.0
H438 H 0.85758 0.95026 0.49101 0.0
H439 H 0.874 0.02092 0.49194 0.0
H440 H 0.78787 0.17751 0.49271 0.0
H441 H 0.81566 0.15126 0.47535 0.0
H442 H 0.85807 0.10662 0.50804 0.0
H443 H 0.82921 0.13174 0.52538 0.0
H444 H 0.83113 0.05473 0.48612 0.0
H445 H 0.91972 0.19789 0.49386 0.0
H446 H 0.93685 0.26875 0.4949 0.0
H447 H 0.90437 0.26024 0.45165 0.0
H448 H 0.88646 0.18909 0.45041 0.0
C449 C 0.98034 0.06499 0.4507 0.0
C450 C 0.98489 0.07444 0.4366 0.0
C451 C 0.95341 0.0706 0.45877 0.0
C452 C 0.93021 0.08539 0.45287 0.0
C453 C 0.93413 0.09413 0.43873 0.0
C454 C 0.96113 0.08863 0.43066 0.0
C455 C 0.90392 0.09423 0.46168 0.0
C456 C 0.91077 0.13359 0.46213 0.0
C457 C 0.87454 0.06529 0.47033 0.0
C458 C 0.8645 0.02273 0.46982 0.0
C459 C 0.85358 0.00031 0.45714 0.0
C460 C 0.84448 0.96033 0.45671 0.0
C461 C 0.84597 0.94233 0.46891 0.0
C462 C 0.85646 0.96425 0.48157 0.0
C463 C 0.86562 0.00425 0.48205 0.0
C464 C 0.80222 0.16121 0.49615 0.0
C465 C 0.80595 0.15617 0.51038 0.0
C466 C 0.81837 0.1465 0.48624 0.0
C467 C 0.8394 0.12741 0.49041 0.0
C468 C 0.84188 0.12112 0.50458 0.0
C469 C 0.82544 0.1355 0.51447 0.0
C470 C 0.86129 0.11649 0.48019 0.0
C471 C 0.85375 0.07688 0.47952 0.0
C472 C 0.89024 0.14522 0.47138 0.0
C473 C 0.90134 0.18807 0.47208 0.0
C474 C 0.91597 0.21106 0.4846 0.0
C475 C 0.92584 0.25127 0.48522 0.0
C476 C 0.9216 0.26895 0.47336 0.0
C477 C 0.90757 0.24648 0.46084 0.0
C478 C 0.89756 0.20622 0.46017 0.0
H479 H 0.92926 0.3001 0.47386 0.0
H480 H 0.83892 0.91138 0.46855 0.0
H481 H 0.90211 0.91381 0.73768 0.0
H482 H 0.84486 0.86277 0.75027 0.0
H483 H 0.92413 0.87947 0.78497 0.0
H484 H 0.98175 0.93096 0.77249 0.0
H485 H 0.86678 0.79666 0.77684 0.0
H486 H 0.87113 0.92204 0.78778 0.0
H487 H 0.87376 0.98479 0.78147 0.0
H488 H 0.76146 0.91654 0.75852 0.0
H489 H 0.75845 0.85338 0.76452 0.0
H490 H 0.71622 0.68911 0.82538 0.0
H491 H 0.77532 0.74084 0.81385 0.0
H492 H 0.69781 0.75006 0.78335 0.0
H493 H 0.63842 0.69988 0.79537 0.0
H494 H 0.75589 0.82099 0.78954 0.0
H495 H 0.74942 0.69716 0.77707 0.0
H496 H 0.74551 0.63239 0.78089 0.0
H497 H 0.85859 0.69371 0.80371 0.0
H498 H 0.8629 0.75883 0.8002 0.0
C499 C 0.90749 0.90648 0.74795 0.0
C500 C 0.94645 0.9265 0.75411 0.0
C501 C 0.87472 0.8774 0.75513 0.0
C502 C 0.88033 0.86767 0.76856 0.0
C503 C 0.91929 0.8867 0.77461 0.0
C504 C 0.95209 0.91613 0.76748 0.0
C505 C 0.84525 0.83829 0.7764 0.0
C506 C 0.84274 0.80208 0.77983 0.0
C507 C 0.81344 0.84507 0.77984 0.0
C508 C 0.81474 0.883 0.77651 0.0
C509 C 0.84711 0.92042 0.78132 0.0
C510 C 0.84866 0.95607 0.77781 0.0
C511 C 0.81785 0.95466 0.76957 0.0
C512 C 0.78533 0.91759 0.76489 0.0
C513 C 0.78366 0.88186 0.76836 0.0
C514 C 0.71168 0.70259 0.81636 0.0
C515 C 0.67254 0.69091 0.81141 0.0
C516 C 0.74558 0.73187 0.80966 0.0
C517 C 0.74114 0.74901 0.79758 0.0
C518 C 0.70211 0.73743 0.79266 0.0
C519 C 0.6682 0.70874 0.79951 0.0
C520 C 0.77708 0.77889 0.79005 0.0
C521 C 0.77984 0.81534 0.78665 0.0
C522 C 0.80874 0.77193 0.78636 0.0
C523 C 0.80626 0.73283 0.7885 0.0
C524 C 0.7733 0.6968 0.783 0.0
C525 C 0.77103 0.66003 0.78509 0.0
C526 C 0.80172 0.65893 0.79257 0.0
C527 C 0.8348 0.69461 0.79794 0.0
C528 C 0.83719 0.73146 0.79589 0.0
H529 H 0.79992 0.63043 0.79417 0.0
H530 H 0.81914 0.98229 0.76684 0.0
H531 H 0.02336 0.89884 0.07882 0.0
H532 H 0.01344 0.84578 0.09436 0.0
H533 H 0.04862 0.92937 0.12954 0.0
H534 H 0.05877 0.98275 0.11408 0.0
H535 H 0.07764 0.87569 0.13157 0.0
H536 H 0.95211 0.8723 0.12161 0.0
H537 H 0.89911 0.869 0.10608 0.0
H538 H 0.87616 0.75549 0.08862 0.0
H539 H 0.92947 0.75843 0.10393 0.0
H540 H 0.97702 0.75347 0.18809 0.0
H541 H 0.0059 0.80273 0.16996 0.0
H542 H 0.95087 0.70694 0.13853 0.0
H543 H 0.92093 0.65769 0.15669 0.0
H544 H 0.93563 0.76338 0.13284 0.0
H545 H 0.05509 0.76194 0.14478 0.0
H546 H 0.10797 0.76473 0.16021 0.0
H547 H 0.14316 0.88538 0.17366 0.0
H548 H 0.09004 0.88312 0.15846 0.0
C549 C 0.02967 0.90619 0.08983 0.0
C550 C 0.04136 0.94493 0.09523 0.0
C551 C 0.02394 0.87578 0.0987 0.0
C552 C 0.0298 0.88356 0.11311 0.0
C553 C 0.0439 0.92277 0.11844 0.0
C554 C 0.0495 0.95318 0.1096 0.0
C555 C 0.01767 0.85019 0.12271 0.0
C556 C 0.0466 0.85118 0.13194 0.0
C557 C 0.97735 0.81777 0.1229 0.0
C558 C 0.94506 0.81581 0.11379 0.0
C559 C 0.93597 0.84679 0.11438 0.0
C560 C 0.90585 0.84497 0.10564 0.0
C561 C 0.88436 0.81211 0.09634 0.0
C562 C 0.89288 0.78096 0.09581 0.0
C563 C 0.92302 0.78267 0.10452 0.0
C564 C 0.97182 0.74293 0.17731 0.0
C565 C 0.94737 0.70175 0.1738 0.0
C566 C 0.98845 0.77105 0.16695 0.0
C567 C 0.98112 0.75854 0.15285 0.0
C568 C 0.95719 0.71729 0.14933 0.0
C569 C 0.94031 0.68917 0.1597 0.0
C570 C 0.99552 0.78875 0.14188 0.0
C571 C 0.9669 0.78737 0.13239 0.0
C572 C 0.03616 0.82061 0.14144 0.0
C573 C 0.06834 0.82223 0.15054 0.0
C574 C 0.07389 0.78897 0.1511 0.0
C575 C 0.10395 0.79047 0.1598 0.0
C576 C 0.12886 0.82518 0.16793 0.0
C577 C 0.12383 0.8585 0.16735 0.0
C578 C 0.09377 0.85714 0.15869 0.0
H579 H 0.15212 0.82628 0.17465 0.0
H580 H 0.86105 0.81075 0.08957 0.0
H581 H 0.15449 0.10679 0.43942 0.0
H582 H 0.19763 0.09906 0.45636 0.0
H583 H 0.21074 0.01935 0.42742 0.0
H584 H 0.16776 0.02693 0.41041 0.0
H585 H 0.18955 0.98858 0.45348 0.0
H586 H 0.28821 0.11181 0.43351 0.0
H587 H 0.3166 0.18146 0.42606 0.0
H588 H 0.31602 0.22113 0.46812 0.0
H589 H 0.28707 0.15158 0.4758 0.0
H590 H 0.33722 0.97142 0.49151 0.0
H591 H 0.30414 0.9872 0.47296 0.0
H592 H 0.2955 0.07215 0.50068 0.0
H593 H 0.32918 0.0569 0.5192 0.0
H594 H 0.31585 0.10123 0.47487 0.0
H595 H 0.21552 0.9795 0.49492 0.0
H596 H 0.18585 0.9102 0.50287 0.0
H597 H 0.18737 0.86798 0.46127 0.0
H598 H 0.21766 0.9372 0.4531 0.0
C599 C 0.16683 0.08789 0.43661 0.0
C600 C 0.15769 0.06748 0.42356 0.0
C601 C 0.19158 0.08362 0.44628 0.0
C602 C 0.20752 0.05879 0.44311 0.0
C603 C 0.19876 0.03869 0.43006 0.0
C604 C 0.1743 0.04318 0.42034 0.0
C605 C 0.23185 0.05233 0.45362 0.0
C606 C 0.21752 0.01311 0.458 0.0
C607 C 0.26767 0.08455 0.45979 0.0
C608 C 0.28509 0.1264 0.45521 0.0
C609 C 0.2938 0.13532 0.44115 0.0
C610 C 0.31006 0.1748 0.4369 0.0
C611 C 0.31801 0.20568 0.44661 0.0
C612 C 0.3098 0.19717 0.46061 0.0
C613 C 0.2935 0.15773 0.46492 0.0
C614 C 0.32888 0.99396 0.49355 0.0
C615 C 0.33618 0.0133 0.50674 0.0
C616 C 0.30976 0.00275 0.48299 0.0
C617 C 0.29701 0.03058 0.48548 0.0
C618 C 0.30518 0.05068 0.49852 0.0
C619 C 0.32437 0.04194 0.50909 0.0
C620 C 0.27364 0.03742 0.47468 0.0
C621 C 0.28801 0.07668 0.47029 0.0
C622 C 0.23761 0.00529 0.46857 0.0
C623 C 0.21927 0.9636 0.47343 0.0
C624 C 0.20984 0.95549 0.48749 0.0
C625 C 0.19286 0.91622 0.49203 0.0
C626 C 0.18483 0.88472 0.48259 0.0
C627 C 0.19367 0.89243 0.46858 0.0
C628 C 0.21073 0.93167 0.46398 0.0
H629 H 0.17167 0.85433 0.48613 0.0
H630 H 0.33062 0.23623 0.44329 0.0
H631 H 0.06187 0.09728 0.79438 0.0
H632 H 0.10033 0.16009 0.80817 0.0
H633 H 0.19385 0.20475 0.77782 0.0
H634 H 0.15577 0.14197 0.76399 0.0
H635 H 0.22502 0.22421 0.80467 0.0
H636 H 0.12463 0.23175 0.77676 0.0
H637 H 0.05567 0.20869 0.76786 0.0
H638 H 0.01833 0.21605 0.80921 0.0
H639 H 0.08699 0.23859 0.81839 0.0
H640 H 0.3181 0.43562 0.81454 0.0
H641 H 0.28264 0.36562 0.80581 0.0
H642 H 0.19443 0.33456 0.83771 0.0
H643 H 0.22982 0.40486 0.84642 0.0
H644 H 0.15939 0.30535 0.81227 0.0
H645 H 0.26308 0.30537 0.83977 0.0
H646 H 0.33297 0.33065 0.84811 0.0
H647 H 0.36512 0.31053 0.80733 0.0
H648 H 0.29559 0.28585 0.79866 0.0
C649 C 0.09082 0.12026 0.7907 0.0
C650 C 0.10559 0.11477 0.77802 0.0
C651 C 0.11271 0.15616 0.79859 0.0
C652 C 0.1497 0.18721 0.79393 0.0
C653 C 0.16535 0.18116 0.78159 0.0
C654 C 0.14344 0.14532 0.77367 0.0
C655 C 0.17095 0.22688 0.80146 0.0
C656 C 0.21084 0.24212 0.80627 0.0
C657 C 0.15205 0.24979 0.80378 0.0
C658 C 0.1108 0.23638 0.79828 0.0
C659 C 0.10162 0.22811 0.78397 0.0
C660 C 0.06261 0.21519 0.77887 0.0
C661 C 0.0326 0.21079 0.78797 0.0
C662 C 0.04158 0.2194 0.80218 0.0
C663 C 0.08054 0.23226 0.80734 0.0
C664 C 0.29146 0.41372 0.8198 0.0
C665 C 0.27693 0.42547 0.83125 0.0
C666 C 0.27129 0.37376 0.81483 0.0
C667 C 0.23618 0.34481 0.82122 0.0
C668 C 0.22161 0.35642 0.83268 0.0
C669 C 0.24186 0.39642 0.83768 0.0
C670 C 0.21364 0.30291 0.81542 0.0
C671 C 0.17348 0.28728 0.81087 0.0
C672 C 0.23239 0.27978 0.81332 0.0
C673 C 0.27414 0.29403 0.81854 0.0
C674 C 0.28511 0.3066 0.83255 0.0
C675 C 0.32467 0.3208 0.83734 0.0
C676 C 0.35348 0.32225 0.82825 0.0
C677 C 0.34277 0.30941 0.81436 0.0
C678 C 0.30327 0.29528 0.8095 0.0
H679 H 0.3841 0.33327 0.83198 0.0
H680 H 0.00242 0.20079 0.784 0.0
H681 H 0.95855 0.09298 0.74247 0.0
H682 H 0.91911 0.1097 0.72693 0.0
H683 H 0.9628 0.07354 0.69149 0.0
H684 H 0.00292 0.05744 0.70695 0.0
H685 H 0.96363 0.14194 0.68691 0.0
H686 H 0.86837 0.01214 0.70368 0.0
H687 H 0.83286 0.96271 0.72165 0.0
H688 H 0.78608 0.03503 0.73812 0.0
H689 H 0.82183 0.08524 0.72037 0.0
H690 H 0.81935 0.1217 0.63625 0.0
H691 H 0.85915 0.10707 0.65249 0.0
H692 H 0.81809 0.15027 0.68676 0.0
H693 H 0.77808 0.16485 0.67055 0.0
H694 H 0.81566 0.07934 0.69231 0.0
H695 H 0.91043 0.20858 0.67514 0.0
H696 H 0.94636 0.25779 0.65715 0.0
H697 H 0.99402 0.18561 0.64129 0.0
H698 H 0.95785 0.13562 0.65906 0.0
C699 C 0.95988 0.08869 0.73137 0.0
C700 C 0.98373 0.07369 0.72595 0.0
C701 C 0.93718 0.09811 0.7225 0.0
C702 C 0.93756 0.09232 0.70806 0.0
C703 C 0.96199 0.07815 0.7026 0.0
C704 C 0.98483 0.06888 0.71146 0.0
C705 C 0.91233 0.10081 0.69861 0.0
C706 C 0.93121 0.12786 0.68798 0.0
C707 C 0.87013 0.0831 0.70022 0.0
C708 C 0.8481 0.05265 0.71077 0.0
C709 C 0.85073 0.01764 0.71119 0.0
C710 C 0.83053 0.98947 0.72133 0.0
C711 C 0.80731 0.99578 0.73105 0.0
C712 C 0.80413 0.03021 0.73061 0.0
C713 C 0.82432 0.05853 0.7205 0.0
C714 C 0.81869 0.12787 0.64726 0.0
C715 C 0.7954 0.14414 0.65215 0.0
C716 C 0.84151 0.11966 0.65651 0.0
C717 C 0.84176 0.12785 0.67082 0.0
C718 C 0.81823 0.14367 0.67576 0.0
C719 C 0.79547 0.15202 0.6665 0.0
C720 C 0.86698 0.12028 0.68058 0.0
C721 C 0.84809 0.09343 0.69126 0.0
C722 C 0.90915 0.13805 0.67901 0.0
C723 C 0.93111 0.16817 0.66835 0.0
C724 C 0.92831 0.20303 0.66774 0.0
C725 C 0.94876 0.23109 0.6576 0.0
C726 C 0.97238 0.22478 0.64806 0.0
C727 C 0.97567 0.19043 0.64868 0.0
C728 C 0.95523 0.16224 0.65879 0.0
H729 H 0.9882 0.24654 0.64022 0.0
H730 H 0.79171 0.97394 0.73889 0.0
H731 H 0.95287 0.94319 0.05258 0.0
H732 H 0.91022 0.89858 0.03351 0.0
H733 H 0.85568 0.9715 0.02864 0.0
H734 H 0.89848 0.01668 0.04783 0.0
H735 H 0.79978 0.88796 0.0261 0.0
H736 H 0.92488 0.98493 0.0071 0.0
H737 H 0.99896 0.02579 0.00549 0.0
H738 H 0.00519 0.91844 0.99955 0.0
H739 H 0.93116 0.87688 0.00131 0.0
H740 H 0.72472 0.81085 0.95661 0.0
H741 H 0.75801 0.85446 0.97727 0.0
H742 H 0.82 0.78982 0.98517 0.0
H743 H 0.78658 0.74598 0.96459 0.0
H744 H 0.87102 0.87248 0.98577 0.0
H745 H 0.74425 0.77579 0.00507 0.0
H746 H 0.67003 0.73654 0.00636 0.0
H747 H 0.66673 0.84575 0.01115 0.0
H748 H 0.74094 0.88569 0.00968 0.0
C749 C 0.93159 0.94968 0.04758 0.0
C750 C 0.92939 0.9838 0.05165 0.0
C751 C 0.90728 0.92413 0.03665 0.0
C752 C 0.88027 0.93211 0.02955 0.0
C753 C 0.8765 0.96498 0.03397 0.0
C754 C 0.90102 0.99077 0.04491 0.0
C755 C 0.85759 0.90701 0.01712 0.0
C756 C 0.81525 0.88498 0.01718 0.0
C757 C 0.87793 0.90291 0.00557 0.0
C758 C 0.92248 0.92777 0.00446 0.0
C759 C 0.94207 0.97001 0.00556 0.0
C760 C 0.98405 0.99331 0.0046 0.0
C761 C 0.00677 0.97472 0.00245 0.0
C762 C 0.98755 0.93279 0.00123 0.0
C763 C 0.94557 0.90935 0.00219 0.0
C764 C 0.74512 0.80572 0.96285 0.0
C765 C 0.75305 0.77502 0.95903 0.0
C766 C 0.76404 0.83057 0.97464 0.0
C767 C 0.79134 0.82524 0.98276 0.0
C768 C 0.79904 0.7944 0.97903 0.0
C769 C 0.77991 0.76937 0.96732 0.0
C770 C 0.81316 0.85279 0.99483 0.0
C771 C 0.85546 0.87548 0.99466 0.0
C772 C 0.79272 0.85771 0.00619 0.0
C773 C 0.74812 0.83374 0.00711 0.0
C774 C 0.72768 0.79145 0.00627 0.0
C775 C 0.68561 0.76907 0.00706 0.0
C776 C 0.66367 0.78864 0.00879 0.0
C777 C 0.68376 0.83063 0.00978 0.0
C778 C 0.72582 0.85315 0.00898 0.0
H779 H 0.6311 0.77126 0.00941 0.0
H780 H 0.03926 0.99281 0.00171 0.0
H781 H 0.98492 0.91976 0.40342 0.0
H782 H 0.96718 0.86127 0.38807 0.0
H783 H 0.02036 0.93909 0.35368 0.0
H784 H 0.03756 0.99763 0.36888 0.0
H785 H 0.95055 0.87368 0.34579 0.0
H786 H 0.07083 0.90106 0.37103 0.0
H787 H 0.11308 0.91245 0.39199 0.0
H788 H 0.02739 0.79464 0.40556 0.0
H789 H 0.98432 0.78277 0.38475 0.0
H790 H 0.97914 0.7454 0.29941 0.0
H791 H 0.9894 0.80004 0.31556 0.0
H792 H 0.93112 0.71477 0.34766 0.0
H793 H 0.92118 0.65995 0.33153 0.0
H794 H 8e-05 0.78142 0.35733 0.0
H795 H 0.8815 0.75323 0.33111 0.0
H796 H 0.84057 0.7425 0.30985 0.0
H797 H 0.92448 0.86262 0.2978 0.0
H798 H 0.96626 0.87389 0.3189 0.0
C799 C 0.99267 0.92443 0.39257 0.0
C800 C 0.01286 0.96339 0.38739 0.0
C801 C 0.98264 0.89097 0.38383 0.0
C802 C 0.99295 0.89586 0.36977 0.0
C803 C 0.01218 0.93461 0.3645 0.0
C804 C 0.02208 0.96806 0.37322 0.0
C805 C 0.98437 0.86075 0.36058 0.0
C806 C 0.96172 0.85374 0.34824 0.0
C807 C 0.99819 0.83421 0.36394 0.0
C808 C 0.02415 0.8412 0.37641 0.0
C809 C 0.06085 0.8777 0.37853 0.0
C810 C 0.08496 0.88423 0.39038 0.0
C811 C 0.07287 0.85433 0.40012 0.0
C812 C 0.03668 0.8178 0.39801 0.0
C813 C 0.01242 0.81115 0.38619 0.0
C814 C 0.96872 0.73838 0.30993 0.0
C815 C 0.94981 0.6985 0.31428 0.0
C816 C 0.97434 0.76954 0.31912 0.0
C817 C 0.96073 0.76141 0.33278 0.0
C818 C 0.9419 0.72167 0.33716 0.0
C819 C 0.93623 0.69043 0.32796 0.0
C820 C 0.96653 0.79455 0.34249 0.0
C821 C 0.98868 0.8012 0.35492 0.0
C822 C 0.95242 0.82087 0.33919 0.0
C823 C 0.9272 0.81428 0.32654 0.0
C824 C 0.89139 0.77726 0.32388 0.0
C825 C 0.86801 0.77109 0.31187 0.0
C826 C 0.87997 0.80183 0.30247 0.0
C827 C 0.91528 0.83883 0.30509 0.0
C828 C 0.9388 0.84513 0.31708 0.0
H829 H 0.86182 0.79699 0.29317 0.0
H830 H 0.09158 0.85944 0.40928 0.0
H831 H 0.13287 0.05362 0.69471 0.0
H832 H 0.17355 0.03429 0.6808 0.0
H833 H 0.17364 0.96095 0.71373 0.0
H834 H 0.13287 0.98023 0.72779 0.0
H835 H 0.24937 0.00838 0.70294 0.0
H836 H 0.11551 0.91585 0.68584 0.0
H837 H 0.04744 0.89496 0.67655 0.0
H838 H 0.0991 0.96509 0.64062 0.0
H839 H 0.16755 0.98689 0.64979 0.0
H840 H 0.33701 0.92066 0.6596 0.0
H841 H 0.29113 0.92862 0.67518 0.0
H842 H 0.27476 0.99963 0.64485 0.0
H843 H 0.31997 0.99124 0.62923 0.0
H844 H 0.20426 0.94656 0.65551 0.0
H845 H 0.33756 0.04361 0.67337 0.0
H846 H 0.40607 0.0661 0.68262 0.0
H847 H 0.35579 0.98873 0.71703 0.0
H848 H 0.28694 0.96537 0.70786 0.0
C849 C 0.14146 0.03335 0.69901 0.0
C850 C 0.12954 0.01839 0.71235 0.0
C851 C 0.16458 0.0222 0.69102 0.0
C852 C 0.17623 0.99587 0.69619 0.0
C853 C 0.16483 0.98121 0.70955 0.0
C854 C 0.14146 0.99217 0.71754 0.0
C855 C 0.20083 0.98427 0.68763 0.0
C856 C 0.23926 0.99417 0.69267 0.0
C857 C 0.18784 0.96641 0.67414 0.0
C858 C 0.14669 0.95326 0.66856 0.0
C859 C 0.11238 0.92708 0.67601 0.0
C860 C 0.07372 0.91502 0.67076 0.0
C861 C 0.06895 0.92875 0.65802 0.0
C862 C 0.10284 0.9545 0.65049 0.0
C863 C 0.14158 0.96668 0.6557 0.0
C864 C 0.32367 0.93805 0.65632 0.0
C865 C 0.3326 0.95595 0.64332 0.0
C866 C 0.29756 0.94263 0.66521 0.0
C867 C 0.27995 0.96517 0.66124 0.0
C868 C 0.2881 0.98222 0.64814 0.0
C869 C 0.31408 0.97761 0.63926 0.0
C870 C 0.25314 0.97135 0.6707 0.0
C871 C 0.21424 0.96037 0.66583 0.0
C872 C 0.26578 0.98836 0.68432 0.0
C873 C 0.30713 0.00239 0.68984 0.0
C874 C 0.34112 0.03114 0.68284 0.0
C875 C 0.38001 0.04409 0.68808 0.0
C876 C 0.38528 0.02876 0.70038 0.0
C877 C 0.35166 0.00052 0.70749 0.0
C878 C 0.3127 0.98743 0.70228 0.0
H879 H 0.41541 0.03883 0.70443 0.0
H880 H 0.03899 0.91938 0.65397 0.0
H881 H 0.06842 0.15299 0.04302 0.0
H882 H 0.11922 0.20157 0.02795 0.0
H883 H 0.20285 0.16462 0.04083 0.0
H884 H 0.15184 0.11562 0.05613 0.0
H885 H 0.23693 0.24697 0.04161 0.0
H886 H 0.16175 0.13838 0.009 0.0
H887 H 0.10022 0.08382 0.99724 0.0
H888 H 0.07105 0.17 0.9823 0.0
H889 H 0.13201 0.22505 0.99419 0.0
H890 H 0.37602 0.37691 0.99257 0.0
H891 H 0.33037 0.31449 0.00408 0.0
H892 H 0.23081 0.33335 0.99594 0.0
H893 H 0.27627 0.39562 0.98435 0.0
H894 H 0.20925 0.25387 0.99164 0.0
H895 H 0.27813 0.35998 0.02685 0.0
H896 H 0.33795 0.41492 0.03928 0.0
H897 H 0.37778 0.33287 0.04957 0.0
H898 H 0.31845 0.27753 0.03701 0.0
C899 C 0.0975 0.15491 0.04263 0.0
C900 C 0.1061 0.13041 0.05078 0.0
C901 C 0.12646 0.1826 0.03393 0.0
C902 C 0.16463 0.18637 0.03314 0.0
C903 C 0.17345 0.16199 0.04124 0.0
C904 C 0.1443 0.13399 0.04994 0.0
C905 C 0.19554 0.21717 0.02426 0.0
C906 C 0.23135 0.24798 0.0306 0.0
C907 C 0.18779 0.21883 0.00997 0.0
C908 C 0.1514 0.18587 0.00257 0.0
C909 C 0.1421 0.14571 0.00328 0.0
C910 C 0.10732 0.11468 0.99659 0.0
C911 C 0.08172 0.12343 0.98904 0.0
C912 C 0.09091 0.16326 0.98815 0.0
C913 C 0.12561 0.1944 0.99485 0.0
C914 C 0.34426 0.36734 0.99305 0.0
C915 C 0.32959 0.3909 0.98745 0.0
C916 C 0.31829 0.33183 -0.00033 0.0
C917 C 0.27726 0.31942 0.00092 0.0
C918 C 0.26233 0.34229 0.99502 0.0
C919 C 0.2883 0.37785 0.98843 0.0
C920 C 0.25026 0.28394 0.00906 0.0
C921 C 0.21517 0.25237 0.00258 0.0
C922 C 0.25859 0.28157 0.02324 0.0
C923 C 0.29414 0.31475 0.03085 0.0
C924 C 0.29983 0.35373 0.03167 0.0
C925 C 0.33361 0.38493 0.03875 0.0
C926 C 0.36172 0.37742 0.04518 0.0
C927 C 0.35603 0.33866 0.04456 0.0
C928 C 0.32233 0.30737 0.03746 0.0
H929 H 0.38784 0.40161 0.05066 0.0
H930 H 0.05478 0.09936 0.98388 0.0
H931 H 0.12745 0.20939 0.38885 0.0
H932 H 0.14764 0.26915 0.37529 0.0
H933 H 0.07145 0.19392 0.34097 0.0
H934 H 0.05117 0.13414 0.3544 0.0
H935 H 0.14591 0.25346 0.33256 0.0
H936 H 0.03926 0.24134 0.36196 0.0
H937 H 0.00649 0.23613 0.38434 0.0
H938 H 0.10711 0.35002 0.3984 0.0
H939 H 0.14074 0.35563 0.37616 0.0
H940 H 0.11559 0.38474 0.29187 0.0
H941 H 0.10802 0.33113 0.30668 0.0
H942 H 0.18049 0.41934 0.33891 0.0
H943 H 0.18748 0.47321 0.32415 0.0
H944 H 0.115 0.35725 0.34952 0.0
H945 H 0.21932 0.3726 0.31944 0.0
H946 H 0.25231 0.37828 0.29709 0.0
H947 H 0.15787 0.25937 0.2844 0.0
H948 H 0.12397 0.25319 0.3066 0.0
C949 C 0.11519 0.20555 0.37838 0.0
C950 C 0.08754 0.16702 0.37272 0.0
C951 C 0.12666 0.23973 0.37068 0.0
C952 C 0.11076 0.23595 0.35718 0.0
C953 C 0.08405 0.19749 0.35138 0.0
C954 C 0.07238 0.16336 0.35909 0.0
C955 C 0.12104 0.27199 0.34915 0.0
C956 C 0.13891 0.27603 0.3362 0.0
C957 C 0.11294 0.30198 0.35411 0.0
C958 C 0.09272 0.29867 0.36747 0.0
C959 C 0.05455 0.2651 0.36987 0.0
C960 C 0.0358 0.26211 0.38252 0.0
C961 C 0.05477 0.29267 0.3928 0.0
C962 C 0.09249 0.32634 0.39044 0.0
C963 C 0.1114 0.32945 0.37781 0.0
C964 C 0.12972 0.39267 0.30214 0.0
C965 C 0.1516 0.4331 0.30695 0.0
C966 C 0.12567 0.36206 0.31056 0.0
C967 C 0.14402 0.37124 0.32386 0.0
C968 C 0.16606 0.41158 0.32868 0.0
C969 C 0.17003 0.44228 0.32027 0.0
C970 C 0.13934 0.33847 0.33278 0.0
C971 C 0.1225 0.335 0.34591 0.0
C972 C 0.14854 0.30908 0.32801 0.0
C973 C 0.16894 0.31257 0.31465 0.0
C974 C 0.20542 0.34777 0.31185 0.0
C975 C 0.22431 0.35106 0.29921 0.0
C976 C 0.20716 0.31924 0.28932 0.0
C977 C 0.17111 0.28401 0.29207 0.0
C978 C 0.15207 0.28058 0.30468 0.0
H979 H 0.22183 0.32184 0.27954 0.0
H980 H 0.04019 0.2903 0.40259 0.0
loop_
_geom_bond_atom_site_label_1
_geom_bond_atom_site_label_2
_geom_bond_distance
_geom_bond_site_symmetry_2
_ccdc_geom_bond_type
C0 O1 1.160 1_565 S
C0 O7 1.185 1_565 S
O1 C0 1.160 1_545 S
O2 Zn3 1.899 . S
O2 C10 1.284 . S
Zn3 O2 1.899 . S
Zn3 O4 2.032 1_455 S
Zn3 O7 2.086 . S
Zn3 O12 1.977 . S
O4 Zn3 2.032 1_655 S
O4 C8 1.278 . S
C5 O6 1.203 . S
C5 O12 1.267 . S
O6 C5 1.203 . S
O7 C0 1.185 1_545 S
O7 Zn3 2.086 . S
C8 O4 1.278 . S
C8 O9 1.211 . S
O9 C8 1.211 . S
C10 O2 1.284 . S
C10 O11 1.273 1_455 S
O11 C10 1.273 1_655 S
O12 Zn3 1.977 . S
O12 C5 1.267 . S
C13 O14 1.160 . S
C13 O20 1.185 . S
O14 C13 1.160 . S
O15 Zn16 1.899 . S
O15 C23 1.284 . S
Zn16 O15 1.899 . S
Zn16 O17 2.032 . S
Zn16 O20 2.086 . S
Zn16 O25 1.977 . S
O17 Zn16 2.032 . S
O17 C21 1.278 . S
C18 O19 1.203 . S
C18 O25 1.267 . S
O19 C18 1.203 . S
O20 C13 1.185 . S
O20 Zn16 2.086 . S
C21 O17 1.278 . S
C21 O22 1.211 . S
O22 C21 1.211 . S
C23 O15 1.284 . S
C23 O24 1.273 . S
O24 C23 1.273 . S
O25 Zn16 1.977 . S
O25 C18 1.267 . S
C26 O27 1.160 . S
C26 O33 1.185 . S
O27 C26 1.160 . S
O28 Zn29 1.890 1_655 S
O28 C36 1.294 . S
Zn29 O28 1.890 1_455 S
Zn29 O30 2.032 . S
Zn29 O33 2.086 . S
Zn29 O38 1.977 1_545 S
O30 Zn29 2.032 . S
O30 C34 1.278 . S
C31 O32 1.203 . S
C31 O38 1.267 1_655 S
O32 C31 1.203 . S
O33 C26 1.185 . S
O33 Zn29 2.086 . S
C34 O30 1.278 . S
C34 O35 1.211 . S
O35 C34 1.211 . S
C36 O28 1.294 . S
C36 O37 1.273 1_655 S
O37 C36 1.273 1_455 S
O38 Zn29 1.977 1_565 S
O38 C31 1.267 1_455 S
C39 C40 1.560 1_655 S
C39 H100 0.959 . S
C39 H101 0.959 . S
C39 H102 0.960 . S
C40 C39 1.560 1_455 S
C40 O95 1.426 1_455 S
C40 H99 0.980 . S
C41 C42 1.407 . S
C41 C46 1.418 1_455 S
C41 O95 1.334 1_455 S
C42 C41 1.407 . S
C42 C43 1.360 . S
C42 H103 0.929 . S
C43 C42 1.360 . S
C43 C44 1.401 . S
C43 C47 1.527 . S
C44 C43 1.401 . S
C44 C45 1.405 1_455 S
C44 C77 1.587 . S
C45 C44 1.405 1_655 S
C45 C46 1.332 . S
C45 C48 1.496 . S
C46 C41 1.418 1_655 S
C46 C45 1.332 . S
C46 H104 0.929 . S
C47 C43 1.527 . S
C47 H105 0.959 . S
C47 H106 0.961 . S
C47 H107 0.961 . S
C48 C45 1.496 . S
C48 H108 0.960 . S
C48 H109 0.960 . S
C48 H110 0.961 . S
C49 C50 1.517 . S
C49 H112 0.961 . S
C49 H113 0.960 . S
C49 H114 0.959 . S
C50 C49 1.517 . S
C50 O98 1.468 . S
C50 H111 0.980 . S
C51 C52 1.349 . S
C51 C56 1.367 . S
C51 O98 1.408 . S
C52 C51 1.349 . S
C52 C53 1.407 . S
C52 H115 0.930 . S
C53 C52 1.407 . S
C53 C54 1.449 . S
C53 C57 1.535 1_455 S
C54 C53 1.449 . S
C54 C55 1.384 . S
C54 C79 1.553 . S
C55 C54 1.384 . S
C55 C56 1.364 . S
C55 C58 1.450 . S
C56 C51 1.367 . S
C56 C55 1.364 . S
C56 H116 0.931 . S
C57 C53 1.535 1_655 S
C57 H117 0.959 . S
C57 H118 0.961 . S
C57 H119 0.959 . S
C58 C55 1.450 . S
C58 H120 0.960 . S
C58 H121 0.960 . S
C58 H122 0.960 . S
C59 C60 1.309 . S
C59 C64 1.304 . S
C59 O97 1.435 . S
C60 C59 1.309 . S
C60 C61 1.476 . S
C60 H124 0.938 . S
C61 C60 1.476 . S
C61 C62 1.400 . S
C61 C65 1.567 1_455 S
C62 C61 1.400 . S
C62 C63 1.373 . S
C62 C84 1.432 . S
C63 C62 1.373 . S
C63 C64 1.339 . S
C63 C66 1.530 . S
C64 C59 1.304 . S
C64 C63 1.339 . S
C64 H125 0.930 . S
C65 C61 1.567 1_655 S
C65 H126 0.961 . S
C65 H127 0.960 . S
C65 H128 0.958 . S
C66 C63 1.530 . S
C66 H129 0.961 . S
C66 H130 0.960 . S
C66 H131 0.960 . S
C67 C68 1.530 1_655 S
C67 H133 0.959 1_655 S
C67 H134 0.961 . S
C67 H135 0.959 . S
C68 C67 1.530 1_455 S
C68 O96 1.412 1_455 S
C68 H132 0.980 . S
C69 C70 1.288 . S
C69 C74 1.377 1_655 S
C69 O96 1.393 . S
C70 C69 1.288 . S
C70 C71 1.369 . S
C70 H136 0.932 . S
C71 C70 1.369 . S
C71 C72 1.398 1_655 S
C71 C75 1.527 . S
C72 C71 1.398 1_455 S
C72 C73 1.380 . S
C72 C86 1.497 . S
C73 C72 1.380 . S
C73 C74 1.383 . S
C73 C76 1.603 . S
C74 C69 1.377 1_455 S
C74 C73 1.383 . S
C74 H137 0.929 . S
C75 C71 1.527 . S
C75 H138 0.961 . S
C75 H139 0.959 . S
C75 H140 0.959 . S
C76 C73 1.603 . S
C76 H141 0.960 . S
C76 H142 0.962 . S
C76 H143 0.961 . S
C77 C44 1.587 . S
C77 C78 1.360 . S
C77 C90 1.412 . S
C78 C77 1.360 . S
C78 C79 1.365 . S
C78 H144 0.929 . S
C79 C54 1.553 . S
C79 C78 1.365 . S
C79 C80 1.404 . S
C80 C79 1.404 . S
C80 C81 1.395 . S
C80 C91 1.451 . S
C81 C80 1.395 . S
C81 C82 1.322 . S
C81 H145 0.930 . S
C82 C81 1.322 . S
C82 C83 1.459 . S
C82 H146 0.929 . S
C83 C82 1.459 . S
C83 C84 1.445 . S
C83 C92 1.395 . S
C84 C62 1.432 . S
C84 C83 1.445 . S
C84 C85 1.370 . S
C85 C84 1.370 . S
C85 C86 1.438 . S
C85 H147 0.930 . S
C86 C72 1.497 . S
C86 C85 1.438 . S
C86 C87 1.360 . S
C87 C86 1.360 . S
C87 C88 1.401 . S
C87 C92 1.446 . S
C88 C87 1.401 . S
C88 C89 1.347 . S
C88 H148 0.929 . S
C89 C88 1.347 . S
C89 C90 1.455 . S
C89 H149 0.930 . S
C90 C77 1.412 . S
C90 C89 1.455 . S
C90 C91 1.331 . S
C91 C80 1.451 . S
C91 C90 1.331 . S
C91 C92 1.497 . S
C92 C83 1.395 . S
C92 C87 1.446 . S
C92 C91 1.497 . S
C93 C94 1.582 . S
C93 H150 0.962 . S
C93 H151 0.959 . S
C93 H152 0.958 . S
C94 C93 1.582 . S
C94 O97 1.458 . S
C94 H123 0.980 . S
O95 C40 1.426 1_655 S
O95 C41 1.334 1_655 S
O96 C68 1.412 1_655 S
O96 C69 1.393 . S
O97 C59 1.435 . S
O97 C94 1.458 . S
O98 C50 1.468 . S
O98 C51 1.408 . S
H99 C40 0.980 . S
H100 C39 0.959 . S
H101 C39 0.959 . S
H102 C39 0.960 . S
H103 C42 0.929 . S
H104 C46 0.929 . S
H105 C47 0.959 . S
H106 C47 0.961 . S
H107 C47 0.961 . S
H108 C48 0.960 . S
H109 C48 0.960 . S
H110 C48 0.961 . S
H111 C50 0.980 . S
H112 C49 0.961 . S
H113 C49 0.960 . S
H114 C49 0.959 . S
H115 C52 0.930 . S
H116 C56 0.931 . S
H117 C57 0.959 . S
H118 C57 0.961 . S
H119 C57 0.959 . S
H120 C58 0.960 . S
H121 C58 0.960 . S
H122 C58 0.960 . S
H123 C94 0.980 . S
H124 C60 0.938 . S
H125 C64 0.930 . S
H126 C65 0.961 . S
H127 C65 0.960 . S
H128 C65 0.958 . S
H129 C66 0.961 . S
H130 C66 0.960 . S
H131 C66 0.960 . S
H132 C68 0.980 . S
H133 C67 0.959 1_455 S
H134 C67 0.961 . S
H135 C67 0.959 . S
H136 C70 0.932 . S
H137 C74 0.929 . S
H138 C75 0.961 . S
H139 C75 0.959 . S
H140 C75 0.959 . S
H141 C76 0.960 . S
H142 C76 0.962 . S
H143 C76 0.961 . S
H144 C78 0.929 . S
H145 C81 0.930 . S
H146 C82 0.929 . S
H147 C85 0.930 . S
H148 C88 0.929 . S
H149 C89 0.930 . S
H150 C93 0.962 . S
H151 C93 0.959 . S
H152 C93 0.958 . S
C153 C154 1.560 1_565 S
C153 H214 0.959 . S
C153 H215 0.959 . S
C153 H216 0.960 . S
C154 C153 1.560 1_545 S
C154 O209 1.416 1_545 S
C154 H213 0.980 . S
C155 C156 1.407 . S
C155 C160 1.418 1_545 S
C155 O209 1.334 1_545 S
C156 C155 1.407 . S
C156 C157 1.360 . S
C156 H217 0.929 . S
C157 C156 1.360 . S
C157 C158 1.401 . S
C157 C161 1.527 . S
C158 C157 1.401 . S
C158 C159 1.405 . S
C158 C191 1.587 . S
C159 C158 1.405 . S
C159 C160 1.332 1_545 S
C159 C162 1.496 1_545 S
C160 C155 1.418 1_565 S
C160 C159 1.332 1_565 S
C160 H218 0.929 . S
C161 C157 1.527 . S
C161 H219 0.959 . S
C161 H220 0.961 . S
C161 H221 0.961 . S
C162 C159 1.496 1_565 S
C162 H222 0.960 . S
C162 H223 0.960 . S
C162 H224 0.961 . S
C163 C164 1.517 . S
C163 H226 0.961 . S
C163 H227 0.960 . S
C163 H228 0.959 . S
C164 C163 1.517 . S
C164 O212 1.468 . S
C164 H225 0.980 . S
C165 C166 1.349 . S
C165 C170 1.367 . S
C165 O212 1.408 . S
C166 C165 1.349 . S
C166 C167 1.407 . S
C166 H229 0.930 . S
C167 C166 1.407 . S
C167 C168 1.449 . S
C167 C171 1.535 . S
C168 C167 1.449 . S
C168 C169 1.384 . S
C168 C193 1.553 . S
C169 C168 1.384 . S
C169 C170 1.364 . S
C169 C172 1.450 . S
C170 C165 1.367 . S
C170 C169 1.364 . S
C170 H230 0.931 . S
C171 C167 1.535 . S
C171 H231 0.959 . S
C171 H232 0.961 1_545 S
C171 H233 0.959 1_545 S
C172 C169 1.450 . S
C172 H234 0.960 . S
C172 H235 0.960 . S
C172 H236 0.960 . S
C173 C174 1.309 . S
C173 C178 1.304 . S
C173 O211 1.435 . S
C174 C173 1.309 . S
C174 C175 1.476 . S
C174 H238 0.930 . S
C175 C174 1.476 . S
C175 C176 1.400 . S
C175 C179 1.567 . S
C176 C175 1.400 . S
C176 C177 1.373 . S
C176 C198 1.432 . S
C177 C176 1.373 . S
C177 C178 1.339 . S
C177 C180 1.530 . S
C178 C173 1.304 . S
C178 C177 1.339 . S
C178 H239 0.930 . S
C179 C175 1.567 . S
C179 H240 0.961 . S
C179 H241 0.960 1_545 S
C179 H242 0.958 1_545 S
C180 C177 1.530 . S
C180 H243 0.961 . S
C180 H244 0.960 . S
C180 H245 0.960 . S
C181 C182 1.530 . S
C181 H247 0.961 . S
C181 H248 0.961 . S
C181 H249 0.959 . S
C182 C181 1.530 . S
C182 O210 1.412 . S
C182 H246 0.980 . S
C183 C184 1.288 . S
C183 C188 1.377 . S
C183 O210 1.393 . S
C184 C183 1.288 . S
C184 C185 1.369 . S
C184 H250 0.932 1_545 S
C185 C184 1.369 . S
C185 C186 1.398 . S
C185 C189 1.527 1_545 S
C186 C185 1.398 . S
C186 C187 1.380 . S
C186 C200 1.497 . S
C187 C186 1.380 . S
C187 C188 1.383 . S
C187 C190 1.603 . S
C188 C183 1.377 . S
C188 C187 1.383 . S
C188 H251 0.929 . S
C189 C185 1.527 1_565 S
C189 H252 0.961 . S
C189 H253 0.959 . S
C189 H254 0.959 . S
C190 C187 1.603 . S
C190 H255 0.960 . S
C190 H256 0.962 . S
C190 H257 0.961 . S
C191 C158 1.587 . S
C191 C192 1.360 . S
C191 C204 1.412 . S
C192 C191 1.360 . S
C192 C193 1.365 . S
C192 H258 0.929 . S
C193 C168 1.553 . S
C193 C192 1.365 . S
C193 C194 1.404 . S
C194 C193 1.404 . S
C194 C195 1.395 . S
C194 C205 1.451 . S
C195 C194 1.395 . S
C195 C196 1.322 . S
C195 H259 0.930 . S
C196 C195 1.322 . S
C196 C197 1.459 . S
C196 H260 0.929 . S
C197 C196 1.459 . S
C197 C198 1.445 . S
C197 C206 1.395 . S
C198 C176 1.432 . S
C198 C197 1.445 . S
C198 C199 1.370 . S
C199 C198 1.370 . S
C199 C200 1.438 . S
C199 H261 0.930 . S
C200 C186 1.497 . S
C200 C199 1.438 . S
C200 C201 1.360 . S
C201 C200 1.360 . S
C201 C202 1.401 . S
C201 C206 1.446 . S
C202 C201 1.401 . S
C202 C203 1.347 . S
C202 H262 0.929 . S
C203 C202 1.347 . S
C203 C204 1.455 . S
C203 H263 0.930 . S
C204 C191 1.412 . S
C204 C203 1.455 . S
C204 C205 1.331 . S
C205 C194 1.451 . S
C205 C204 1.331 . S
C205 C206 1.497 . S
C206 C197 1.395 . S
C206 C201 1.446 . S
C206 C205 1.497 . S
C207 C208 1.582 . S
C207 H264 0.962 . S
C207 H265 0.959 . S
C207 H266 0.958 . S
C208 C207 1.582 . S
C208 O211 1.458 . S
C208 H237 0.980 . S
O209 C154 1.416 1_565 S
O209 C155 1.334 1_565 S
O210 C182 1.412 . S
O210 C183 1.393 . S
O211 C173 1.435 . S
O211 C208 1.458 . S
O212 C164 1.468 . S
O212 C165 1.408 . S
H213 C154 0.980 . S
H214 C153 0.959 . S
H215 C153 0.959 . S
H216 C153 0.960 . S
H217 C156 0.929 . S
H218 C160 0.929 . S
H219 C161 0.959 . S
H220 C161 0.961 . S
H221 C161 0.961 . S
H222 C162 0.960 . S
H223 C162 0.960 . S
H224 C162 0.961 . S
H225 C164 0.980 . S
H226 C163 0.961 . S
H227 C163 0.960 . S
H228 C163 0.959 . S
H229 C166 0.930 . S
H230 C170 0.931 . S
H231 C171 0.959 . S
H232 C171 0.961 1_565 S
H233 C171 0.959 1_565 S
H234 C172 0.960 . S
H235 C172 0.960 . S
H236 C172 0.960 . S
H237 C208 0.980 . S
H238 C174 0.930 . S
H239 C178 0.930 . S
H240 C179 0.961 . S
H241 C179 0.960 1_565 S
H242 C179 0.958 1_565 S
H243 C180 0.961 . S
H244 C180 0.960 . S
H245 C180 0.960 . S
H246 C182 0.980 . S
H247 C181 0.961 . S
H248 C181 0.961 . S
H249 C181 0.959 . S
H250 C184 0.932 1_565 S
H251 C188 0.929 . S
H252 C189 0.961 . S
H253 C189 0.959 . S
H254 C189 0.959 . S
H255 C190 0.960 . S
H256 C190 0.962 . S
H257 C190 0.961 . S
H258 C192 0.929 . S
H259 C195 0.930 . S
H260 C196 0.929 . S
H261 C199 0.930 . S
H262 C202 0.929 . S
H263 C203 0.930 . S
H264 C207 0.962 . S
H265 C207 0.959 . S
H266 C207 0.958 . S
C267 C268 1.560 . S
C267 H328 0.959 . S
C267 H329 0.959 . S
C267 H330 0.960 . S
C268 C267 1.560 . S
C268 O323 1.426 . S
C268 H327 0.980 . S
C269 C270 1.407 . S
C269 C274 1.418 . S
C269 O323 1.334 . S
C270 C269 1.407 . S
C270 C271 1.360 . S
C270 H331 0.929 . S
C271 C270 1.360 . S
C271 C272 1.401 . S
C271 C275 1.527 . S
C272 C271 1.401 . S
C272 C273 1.405 . S
C272 C305 1.587 . S
C273 C272 1.405 . S
C273 C274 1.332 . S
C273 C276 1.496 . S
C274 C269 1.418 . S
C274 C273 1.332 . S
C274 H332 0.929 . S
C275 C271 1.527 . S
C275 H333 0.959 . S
C275 H334 0.961 . S
C275 H335 0.961 . S
C276 C273 1.496 . S
C276 H336 0.960 . S
C276 H337 0.960 . S
C276 H338 0.961 . S
C277 C278 1.517 . S
C277 H340 0.961 . S
C277 H341 0.960 . S
C277 H342 0.959 . S
C278 C277 1.517 . S
C278 O326 1.468 . S
C278 H339 0.980 . S
C279 C280 1.349 . S
C279 C284 1.367 . S
C279 O326 1.408 . S
C280 C279 1.349 . S
C280 C281 1.407 . S
C280 H343 0.930 . S
C281 C280 1.407 . S
C281 C282 1.449 . S
C281 C285 1.535 . S
C282 C281 1.449 . S
C282 C283 1.384 . S
C282 C307 1.553 . S
C283 C282 1.384 . S
C283 C284 1.364 . S
C283 C286 1.450 . S
C284 C279 1.367 . S
C284 C283 1.364 . S
C284 H344 0.931 . S
C285 C281 1.535 . S
C285 H345 0.959 . S
C285 H346 0.961 . S
C285 H347 0.959 . S
C286 C283 1.450 . S
C286 H348 0.960 . S
C286 H349 0.960 . S
C286 H350 0.960 . S
C287 C288 1.309 . S
C287 C292 1.304 . S
C287 O325 1.435 . S
C288 C287 1.309 . S
C288 C289 1.476 . S
C288 H352 0.930 . S
C289 C288 1.476 . S
C289 C290 1.400 . S
C289 C293 1.567 . S
C290 C289 1.400 . S
C290 C291 1.373 . S
C290 C312 1.432 . S
C291 C290 1.373 . S
C291 C292 1.339 . S
C291 C294 1.530 . S
C292 C287 1.304 . S
C292 C291 1.339 . S
C292 H353 0.930 . S
C293 C289 1.567 . S
C293 H354 0.961 . S
C293 H355 0.960 . S
C293 H356 0.958 . S
C294 C291 1.530 . S
C294 H357 0.961 . S
C294 H358 0.960 . S
C294 H359 0.960 . S
C295 C296 1.530 . S
C295 H361 0.961 . S
C295 H362 0.961 . S
C295 H363 0.959 . S
C296 C295 1.530 . S
C296 O324 1.412 . S
C296 H360 0.980 . S
C297 C298 1.288 . S
C297 C302 1.377 . S
C297 O324 1.393 . S
C298 C297 1.288 . S
C298 C299 1.369 . S
C298 H364 0.932 . S
C299 C298 1.369 . S
C299 C300 1.398 . S
C299 C303 1.527 . S
C300 C299 1.398 . S
C300 C301 1.380 . S
C300 C314 1.497 . S
C301 C300 1.380 . S
C301 C302 1.383 . S
C301 C304 1.603 . S
C302 C297 1.377 . S
C302 C301 1.383 . S
C302 H365 0.929 . S
C303 C299 1.527 . S
C303 H366 0.961 . S
C303 H367 0.959 . S
C303 H368 0.959 . S
C304 C301 1.603 . S
C304 H369 0.960 . S
C304 H370 0.962 . S
C304 H371 0.961 . S
C305 C272 1.587 . S
C305 C306 1.360 . S
C305 C318 1.412 . S
C306 C305 1.360 . S
C306 C307 1.365 . S
C306 H372 0.929 . S
C307 C282 1.553 . S
C307 C306 1.365 . S
C307 C308 1.404 . S
C308 C307 1.404 . S
C308 C309 1.395 . S
C308 C319 1.451 . S
C309 C308 1.395 . S
C309 C310 1.322 . S
C309 H373 0.930 . S
C310 C309 1.322 . S
C310 C311 1.459 . S
C310 H374 0.929 . S
C311 C310 1.459 . S
C311 C312 1.445 . S
C311 C320 1.395 . S
C312 C290 1.432 . S
C312 C311 1.445 . S
C312 C313 1.370 . S
C313 C312 1.370 . S
C313 C314 1.438 . S
C313 H375 0.930 . S
C314 C300 1.497 . S
C314 C313 1.438 . S
C314 C315 1.360 . S
C315 C314 1.360 . S
C315 C316 1.401 . S
C315 C320 1.446 . S
C316 C315 1.401 . S
C316 C317 1.347 . S
C316 H376 0.929 . S
C317 C316 1.347 . S
C317 C318 1.455 . S
C317 H377 0.930 . S
C318 C305 1.412 . S
C318 C317 1.455 . S
C318 C319 1.331 . S
C319 C308 1.451 . S
C319 C318 1.331 . S
C319 C320 1.497 . S
C320 C311 1.395 . S
C320 C315 1.446 . S
C320 C319 1.497 . S
C321 C322 1.582 . S
C321 H378 0.962 . S
C321 H379 0.959 . S
C321 H380 0.958 . S
C322 C321 1.582 . S
C322 O325 1.458 . S
C322 H351 0.980 . S
O323 C268 1.426 . S
O323 C269 1.334 . S
O324 C296 1.412 . S
O324 C297 1.393 . S
O325 C287 1.435 . S
O325 C322 1.458 . S
O326 C278 1.468 . S
O326 C279 1.408 . S
H327 C268 0.980 . S
H328 C267 0.959 . S
H329 C267 0.959 . S
H330 C267 0.960 . S
H331 C270 0.929 . S
H332 C274 0.929 . S
H333 C275 0.959 . S
H334 C275 0.961 . S
H335 C275 0.961 . S
H336 C276 0.960 . S
H337 C276 0.960 . S
H338 C276 0.961 . S
H339 C278 0.980 . S
H340 C277 0.961 . S
H341 C277 0.960 . S
H342 C277 0.959 . S
H343 C280 0.930 . S
H344 C284 0.931 . S
H345 C285 0.959 . S
H346 C285 0.961 . S
H347 C285 0.959 . S
H348 C286 0.960 . S
H349 C286 0.960 . S
H350 C286 0.960 . S
H351 C322 0.980 . S
H352 C288 0.930 . S
H353 C292 0.930 . S
H354 C293 0.961 . S
H355 C293 0.960 . S
H356 C293 0.958 . S
H357 C294 0.961 . S
H358 C294 0.960 . S
H359 C294 0.960 . S
H360 C296 0.980 . S
H361 C295 0.961 . S
H362 C295 0.961 . S
H363 C295 0.959 . S
H364 C298 0.932 . S
H365 C302 0.929 . S
H366 C303 0.961 . S
H367 C303 0.959 . S
H368 C303 0.959 . S
H369 C304 0.960 . S
H370 C304 0.962 . S
H371 C304 0.961 . S
H372 C306 0.929 . S
H373 C309 0.930 . S
H374 C310 0.929 . S
H375 C313 0.930 . S
H376 C316 0.929 . S
H377 C317 0.930 . S
H378 C321 0.962 . S
H379 C321 0.959 . S
H380 C321 0.958 . S
H381 C399 0.951 1_655 S
H382 C401 0.951 1_655 S
H383 C403 0.950 . S
H384 C404 0.950 . S
H385 C406 0.950 . S
H386 C409 0.950 . S
H387 C410 0.950 . S
H388 C412 0.950 . S
H389 C413 0.950 . S
H390 C414 0.951 . S
H391 C416 0.951 . S
H392 C418 0.950 . S
H393 C419 0.950 . S
H394 C421 0.950 . S
H395 C424 0.950 . S
H396 C425 0.950 . S
H397 C427 0.959 . S
H398 C428 0.950 . S
C399 H381 0.951 1_455 S
C399 C400 1.366 . S
C399 C401 1.388 . S
C400 C399 1.366 . S
C400 C404 1.385 . S
C401 H382 0.951 1_455 S
C401 C399 1.388 . S
C401 C402 1.366 . S
C402 C401 1.366 . S
C402 C403 1.414 . S
C402 C405 1.499 . S
C403 H383 0.950 . S
C403 C402 1.414 . S
C403 C404 1.374 . S
C404 H384 0.950 . S
C404 C400 1.385 . S
C404 C403 1.374 . S
C405 C402 1.499 . S
C405 C406 1.373 . S
C405 C407 1.389 . S
C406 H385 0.950 . S
C406 C405 1.373 . S
C406 C422 1.377 . S
C407 C405 1.389 . S
C407 C408 1.524 . S
C407 C421 1.377 . S
C408 C407 1.524 . S
C408 C409 1.397 . S
C408 C413 1.363 . S
C409 H386 0.950 . S
C409 C408 1.397 . S
C409 C410 1.334 . S
C410 H387 0.950 . S
C410 C409 1.334 . S
C410 C411 1.287 . S
C411 C410 1.287 . S
C411 C412 1.524 . S
C411 H430 0.913 . S
C412 H388 0.950 . S
C412 C411 1.524 . S
C412 C413 1.415 . S
C413 H389 0.950 . S
C413 C408 1.363 . S
C413 C412 1.415 . S
C414 H390 0.951 . S
C414 C415 1.366 . S
C414 C416 1.388 . S
C415 C414 1.366 . S
C415 C419 1.385 1_455 S
C416 H391 0.951 . S
C416 C414 1.388 . S
C416 C417 1.366 . S
C417 C416 1.366 . S
C417 C418 1.414 1_455 S
C417 C420 1.499 . S
C418 H392 0.950 . S
C418 C417 1.414 1_655 S
C418 C419 1.374 . S
C419 H393 0.950 . S
C419 C415 1.385 1_655 S
C419 C418 1.374 . S
C420 C417 1.499 . S
C420 C421 1.373 . S
C420 C422 1.389 . S
C421 H394 0.950 . S
C421 C407 1.377 . S
C421 C420 1.373 . S
C422 C406 1.377 . S
C422 C420 1.389 . S
C422 C423 1.524 1_455 S
C423 C422 1.524 1_655 S
C423 C424 1.397 . S
C423 C428 1.363 1_655 S
C424 H395 0.950 . S
C424 C423 1.397 . S
C424 C425 1.334 . S
C425 H396 0.950 . S
C425 C424 1.334 . S
C425 C426 1.287 . S
C426 C425 1.287 . S
C426 C427 1.524 . S
C426 H429 0.999 . S
C427 H397 0.959 . S
C427 C426 1.524 . S
C427 C428 1.415 1_655 S
C428 H398 0.950 . S
C428 C423 1.363 1_455 S
C428 C427 1.415 1_455 S
H429 C426 0.999 . S
H430 C411 0.913 . S
H431 C449 0.951 1_455 S
H432 C451 0.951 . S
H433 C453 0.950 . S
H434 C454 0.950 . S
H435 C456 0.950 . S
H436 C459 0.950 . S
H437 C460 0.950 . S
H438 C462 0.949 1_545 S
H439 C463 0.950 . S
H440 C464 0.951 . S
H441 C466 0.951 . S
H442 C468 0.950 . S
H443 C469 0.950 . S
H444 C471 0.950 . S
H445 C474 0.950 . S
H446 C475 0.950 . S
H447 C477 0.950 . S
H448 C478 0.950 . S
C449 H431 0.951 1_655 S
C449 C450 1.366 . S
C449 C451 1.388 . S
C450 C449 1.366 . S
C450 C454 1.385 . S
C451 H432 0.951 . S
C451 C449 1.388 . S
C451 C452 1.366 . S
C452 C451 1.366 . S
C452 C453 1.414 . S
C452 C455 1.499 . S
C453 H433 0.950 . S
C453 C452 1.414 . S
C453 C454 1.374 . S
C454 H434 0.950 . S
C454 C450 1.385 . S
C454 C453 1.374 . S
C455 C452 1.499 . S
C455 C456 1.373 . S
C455 C457 1.389 . S
C456 H435 0.950 . S
C456 C455 1.373 . S
C456 C472 1.377 . S
C457 C455 1.389 . S
C457 C458 1.524 . S
C457 C471 1.377 . S
C458 C457 1.524 . S
C458 C459 1.397 1_545 S
C458 C463 1.363 . S
C459 H436 0.950 . S
C459 C458 1.397 1_565 S
C459 C460 1.334 . S
C460 H437 0.950 . S
C460 C459 1.334 . S
C460 C461 1.287 . S
C461 C460 1.287 . S
C461 C462 1.523 . S
C461 H480 0.913 . S
C462 H438 0.949 1_565 S
C462 C461 1.523 . S
C462 C463 1.416 1_565 S
C463 H439 0.950 . S
C463 C458 1.363 . S
C463 C462 1.416 1_545 S
C464 H440 0.951 . S
C464 C465 1.366 . S
C464 C466 1.388 . S
C465 C464 1.366 . S
C465 C469 1.385 . S
C466 H441 0.951 . S
C466 C464 1.388 . S
C466 C467 1.366 . S
C467 C466 1.366 . S
C467 C468 1.414 . S
C467 C470 1.499 . S
C468 H442 0.950 . S
C468 C467 1.414 . S
C468 C469 1.374 . S
C469 H443 0.950 . S
C469 C465 1.385 . S
C469 C468 1.374 . S
C470 C467 1.499 . S
C470 C471 1.373 . S
C470 C472 1.389 . S
C471 H444 0.950 . S
C471 C457 1.377 . S
C471 C470 1.373 . S
C472 C456 1.377 . S
C472 C470 1.389 . S
C472 C473 1.524 . S
C473 C472 1.524 . S
C473 C474 1.397 . S
C473 C478 1.363 . S
C474 H445 0.950 . S
C474 C473 1.397 . S
C474 C475 1.334 . S
C475 H446 0.950 . S
C475 C474 1.334 . S
C475 C476 1.287 . S
C476 C475 1.287 . S
C476 C477 1.524 . S
C476 H479 0.999 . S
C477 H447 0.950 . S
C477 C476 1.524 . S
C477 C478 1.415 . S
C478 H448 0.950 . S
C478 C473 1.363 . S
C478 C477 1.415 . S
H479 C476 0.999 . S
H480 C461 0.913 . S
H481 C499 0.951 . S
H482 C501 0.951 . S
H483 C503 0.950 . S
H484 C504 0.950 . S
H485 C506 0.950 . S
H486 C509 0.950 . S
H487 C510 0.950 1_545 S
H488 C512 0.950 . S
H489 C513 0.950 . S
H490 C514 0.951 . S
H491 C516 0.951 . S
H492 C518 0.950 . S
H493 C519 0.950 . S
H494 C521 0.950 . S
H495 C524 0.950 . S
H496 C525 0.950 . S
H497 C527 0.950 . S
H498 C528 0.950 . S
C499 H481 0.951 . S
C499 C500 1.366 . S
C499 C501 1.388 . S
C500 C499 1.366 . S
C500 C504 1.385 . S
C501 H482 0.951 . S
C501 C499 1.388 . S
C501 C502 1.366 . S
C502 C501 1.366 . S
C502 C503 1.414 . S
C502 C505 1.499 . S
C503 H483 0.950 . S
C503 C502 1.414 . S
C503 C504 1.374 . S
C504 H484 0.950 . S
C504 C500 1.385 . S
C504 C503 1.374 . S
C505 C502 1.499 . S
C505 C506 1.373 . S
C505 C507 1.389 . S
C506 H485 0.950 . S
C506 C505 1.373 . S
C506 C522 1.377 . S
C507 C505 1.389 . S
C507 C508 1.524 . S
C507 C521 1.377 . S
C508 C507 1.524 . S
C508 C509 1.397 . S
C508 C513 1.363 . S
C509 H486 0.950 . S
C509 C508 1.397 . S
C509 C510 1.334 . S
C510 H487 0.950 1_565 S
C510 C509 1.334 . S
C510 C511 1.287 1_565 S
C511 C510 1.287 1_545 S
C511 C512 1.524 1_545 S
C511 H530 0.913 . S
C512 H488 0.950 . S
C512 C511 1.524 1_565 S
C512 C513 1.415 . S
C513 H489 0.950 . S
C513 C508 1.363 . S
C513 C512 1.415 . S
C514 H490 0.951 . S
C514 C515 1.366 . S
C514 C516 1.388 . S
C515 C514 1.366 . S
C515 C519 1.385 . S
C516 H491 0.951 . S
C516 C514 1.388 . S
C516 C517 1.366 . S
C517 C516 1.366 . S
C517 C518 1.414 . S
C517 C520 1.499 . S
C518 H492 0.950 . S
C518 C517 1.414 . S
C518 C519 1.374 . S
C519 H493 0.950 . S
C519 C515 1.385 . S
C519 C518 1.374 . S
C520 C517 1.499 . S
C520 C521 1.373 . S
C520 C522 1.389 . S
C521 H494 0.950 . S
C521 C507 1.377 . S
C521 C520 1.373 . S
C522 C506 1.377 . S
C522 C520 1.389 . S
C522 C523 1.524 . S
C523 C522 1.524 . S
C523 C524 1.397 . S
C523 C528 1.363 . S
C524 H495 0.950 . S
C524 C523 1.397 . S
C524 C525 1.334 . S
C525 H496 0.950 . S
C525 C524 1.334 . S
C525 C526 1.287 . S
C526 C525 1.287 . S
C526 C527 1.524 . S
C526 H529 0.999 . S
C527 H497 0.950 . S
C527 C526 1.524 . S
C527 C528 1.415 . S
C528 H498 0.950 . S
C528 C523 1.363 . S
C528 C527 1.415 . S
H529 C526 0.999 . S
H530 C511 0.913 . S
H531 C549 0.951 . S
H532 C551 0.951 . S
H533 C553 0.950 . S
H534 C554 0.950 1_545 S
H535 C556 0.950 . S
H536 C559 0.950 . S
H537 C560 0.950 . S
H538 C562 0.950 . S
H539 C563 0.950 . S
H540 C564 0.951 . S
H541 C566 0.951 . S
H542 C568 0.951 . S
H543 C569 0.950 1_655 S
H544 C571 0.950 1_655 S
H545 C574 0.950 . S
H546 C575 0.950 . S
H547 C577 0.950 . S
H548 C578 0.950 . S
C549 H531 0.951 . S
C549 C550 1.366 . S
C549 C551 1.388 . S
C550 C549 1.366 . S
C550 C554 1.385 . S
C551 H532 0.951 . S
C551 C549 1.388 . S
C551 C552 1.366 . S
C552 C551 1.366 . S
C552 C553 1.414 . S
C552 C555 1.499 . S
C553 H533 0.950 . S
C553 C552 1.414 . S
C553 C554 1.374 . S
C554 H534 0.950 1_565 S
C554 C550 1.385 . S
C554 C553 1.374 . S
C555 C552 1.499 . S
C555 C556 1.373 . S
C555 C557 1.389 . S
C556 H535 0.950 . S
C556 C555 1.373 . S
C556 C572 1.377 . S
C557 C555 1.389 . S
C557 C558 1.524 1_455 S
C557 C571 1.377 . S
C558 C557 1.524 1_655 S
C558 C559 1.397 . S
C558 C563 1.363 . S
C559 H536 0.950 . S
C559 C558 1.397 . S
C559 C560 1.334 . S
C560 H537 0.950 . S
C560 C559 1.334 . S
C560 C561 1.287 . S
C561 C560 1.287 . S
C561 C562 1.524 . S
C561 H580 0.913 . S
C562 H538 0.950 . S
C562 C561 1.524 . S
C562 C563 1.415 . S
C563 H539 0.950 . S
C563 C558 1.363 . S
C563 C562 1.415 . S
C564 H540 0.951 . S
C564 C565 1.366 . S
C564 C566 1.388 . S
C565 C564 1.366 . S
C565 C569 1.385 . S
C566 H541 0.951 . S
C566 C564 1.388 . S
C566 C567 1.366 . S
C567 C566 1.366 . S
C567 C568 1.414 . S
C567 C570 1.499 . S
C568 H542 0.951 . S
C568 C567 1.414 . S
C568 C569 1.374 . S
C569 H543 0.950 1_455 S
C569 C565 1.385 . S
C569 C568 1.374 . S
C570 C567 1.499 . S
C570 C571 1.373 . S
C570 C572 1.389 . S
C571 H544 0.950 1_455 S
C571 C557 1.377 . S
C571 C570 1.373 . S
C572 C556 1.377 . S
C572 C570 1.389 . S
C572 C573 1.524 . S
C573 C572 1.524 . S
C573 C574 1.397 . S
C573 C578 1.363 . S
C574 H545 0.950 . S
C574 C573 1.397 . S
C574 C575 1.334 . S
C575 H546 0.950 . S
C575 C574 1.334 . S
C575 C576 1.287 . S
C576 C575 1.287 . S
C576 C577 1.524 . S
C576 H579 0.999 . S
C577 H547 0.950 . S
C577 C576 1.524 . S
C577 C578 1.415 . S
C578 H548 0.950 . S
C578 C573 1.363 . S
C578 C577 1.415 . S
H579 C576 0.999 . S
H580 C561 0.913 . S
H581 C599 0.951 . S
H582 C601 0.951 . S
H583 C603 0.950 . S
H584 C604 0.950 . S
H585 C606 0.950 . S
H586 C609 0.950 . S
H587 C610 0.950 . S
H588 C612 0.950 . S
H589 C613 0.950 . S
H590 C614 0.951 . S
H591 C616 0.951 . S
H592 C618 0.950 . S
H593 C619 0.950 . S
H594 C621 0.950 . S
H595 C624 0.950 . S
H596 C625 0.950 . S
H597 C627 0.950 . S
H598 C628 0.950 . S
C599 H581 0.951 . S
C599 C600 1.366 . S
C599 C601 1.388 . S
C600 C599 1.366 . S
C600 C604 1.385 . S
C601 H582 0.951 . S
C601 C599 1.388 . S
C601 C602 1.366 . S
C602 C601 1.366 . S
C602 C603 1.414 . S
C602 C605 1.499 . S
C603 H583 0.950 . S
C603 C602 1.414 . S
C603 C604 1.374 . S
C604 H584 0.950 . S
C604 C600 1.385 . S
C604 C603 1.374 . S
C605 C602 1.499 . S
C605 C606 1.373 . S
C605 C607 1.389 . S
C606 H585 0.950 . S
C606 C605 1.373 . S
C606 C622 1.377 . S
C607 C605 1.389 . S
C607 C608 1.524 . S
C607 C621 1.377 . S
C608 C607 1.524 . S
C608 C609 1.397 . S
C608 C613 1.363 . S
C609 H586 0.950 . S
C609 C608 1.397 . S
C609 C610 1.334 . S
C610 H587 0.950 . S
C610 C609 1.334 . S
C610 C611 1.287 . S
C611 C610 1.287 . S
C611 C612 1.524 . S
C611 H630 0.913 . S
C612 H588 0.950 . S
C612 C611 1.524 . S
C612 C613 1.415 . S
C613 H589 0.950 . S
C613 C608 1.363 . S
C613 C612 1.415 . S
C614 H590 0.951 . S
C614 C615 1.366 . S
C614 C616 1.388 . S
C615 C614 1.366 . S
C615 C619 1.385 . S
C616 H591 0.951 . S
C616 C614 1.388 . S
C616 C617 1.366 . S
C617 C616 1.366 . S
C617 C618 1.414 . S
C617 C620 1.499 . S
C618 H592 0.950 . S
C618 C617 1.414 . S
C618 C619 1.374 . S
C619 H593 0.950 . S
C619 C615 1.385 . S
C619 C618 1.374 . S
C620 C617 1.499 . S
C620 C621 1.373 . S
C620 C622 1.389 . S
C621 H594 0.950 . S
C621 C607 1.377 . S
C621 C620 1.373 . S
C622 C606 1.377 . S
C622 C620 1.389 . S
C622 C623 1.524 . S
C623 C622 1.524 . S
C623 C624 1.397 . S
C623 C628 1.363 1_545 S
C624 H595 0.950 . S
C624 C623 1.397 . S
C624 C625 1.334 . S
C625 H596 0.950 . S
C625 C624 1.334 . S
C625 C626 1.287 1_545 S
C626 C625 1.287 1_565 S
C626 C627 1.524 . S
C626 H629 0.999 . S
C627 H597 0.950 . S
C627 C626 1.524 . S
C627 C628 1.415 . S
C628 H598 0.950 . S
C628 C623 1.363 1_565 S
C628 C627 1.415 . S
H629 C626 0.999 . S
H630 C611 0.913 . S
H631 C649 0.951 . S
H632 C651 0.951 . S
H633 C653 0.950 . S
H634 C654 0.950 . S
H635 C656 0.950 . S
H636 C659 0.950 . S
H637 C660 0.950 . S
H638 C662 0.950 . S
H639 C663 0.950 . S
H640 C664 0.951 . S
H641 C666 0.951 . S
H642 C668 0.950 . S
H643 C669 0.950 . S
H644 C671 0.950 . S
H645 C674 0.950 . S
H646 C675 0.950 . S
H647 C677 0.950 . S
H648 C678 0.950 . S
C649 H631 0.951 . S
C649 C650 1.366 . S
C649 C651 1.388 . S
C650 C649 1.366 . S
C650 C654 1.385 . S
C651 H632 0.951 . S
C651 C649 1.388 . S
C651 C652 1.366 . S
C652 C651 1.366 . S
C652 C653 1.414 . S
C652 C655 1.499 . S
C653 H633 0.950 . S
C653 C652 1.414 . S
C653 C654 1.374 . S
C654 H634 0.950 . S
C654 C650 1.385 . S
C654 C653 1.374 . S
C655 C652 1.499 . S
C655 C656 1.373 . S
C655 C657 1.389 . S
C656 H635 0.950 . S
C656 C655 1.373 . S
C656 C672 1.377 . S
C657 C655 1.389 . S
C657 C658 1.524 . S
C657 C671 1.377 . S
C658 C657 1.524 . S
C658 C659 1.397 . S
C658 C663 1.363 . S
C659 H636 0.950 . S
C659 C658 1.397 . S
C659 C660 1.334 . S
C660 H637 0.950 . S
C660 C659 1.334 . S
C660 C661 1.287 . S
C661 C660 1.287 . S
C661 C662 1.524 . S
C661 H680 0.913 . S
C662 H638 0.950 . S
C662 C661 1.524 . S
C662 C663 1.415 . S
C663 H639 0.950 . S
C663 C658 1.363 . S
C663 C662 1.415 . S
C664 H640 0.951 . S
C664 C665 1.366 . S
C664 C666 1.388 . S
C665 C664 1.366 . S
C665 C669 1.385 . S
C666 H641 0.951 . S
C666 C664 1.388 . S
C666 C667 1.366 . S
C667 C666 1.366 . S
C667 C668 1.414 . S
C667 C670 1.499 . S
C668 H642 0.950 . S
C668 C667 1.414 . S
C668 C669 1.374 . S
C669 H643 0.950 . S
C669 C665 1.385 . S
C669 C668 1.374 . S
C670 C667 1.499 . S
C670 C671 1.373 . S
C670 C672 1.389 . S
C671 H644 0.950 . S
C671 C657 1.377 . S
C671 C670 1.373 . S
C672 C656 1.377 . S
C672 C670 1.389 . S
C672 C673 1.524 . S
C673 C672 1.524 . S
C673 C674 1.397 . S
C673 C678 1.363 . S
C674 H645 0.950 . S
C674 C673 1.397 . S
C674 C675 1.334 . S
C675 H646 0.950 . S
C675 C674 1.334 . S
C675 C676 1.287 . S
C676 C675 1.287 . S
C676 C677 1.524 . S
C676 H679 0.999 . S
C677 H647 0.950 . S
C677 C676 1.524 . S
C677 C678 1.415 . S
C678 H648 0.950 . S
C678 C673 1.363 . S
C678 C677 1.415 . S
H679 C676 0.999 . S
H680 C661 0.913 . S
H681 C699 0.951 . S
H682 C701 0.951 . S
H683 C703 0.950 . S
H684 C704 0.950 . S
H685 C706 0.950 . S
H686 C709 0.950 . S
H687 C710 0.950 . S
H688 C712 0.950 . S
H689 C713 0.950 . S
H690 C714 0.951 . S
H691 C716 0.951 . S
H692 C718 0.950 . S
H693 C719 0.950 . S
H694 C721 0.955 . S
H695 C724 0.950 . S
H696 C725 0.950 . S
H697 C727 0.950 . S
H698 C728 0.950 . S
C699 H681 0.951 . S
C699 C700 1.366 . S
C699 C701 1.388 . S
C700 C699 1.366 . S
C700 C704 1.385 . S
C701 H682 0.951 . S
C701 C699 1.388 . S
C701 C702 1.366 . S
C702 C701 1.366 . S
C702 C703 1.414 . S
C702 C705 1.499 . S
C703 H683 0.950 . S
C703 C702 1.414 . S
C703 C704 1.374 . S
C704 H684 0.950 . S
C704 C700 1.385 . S
C704 C703 1.374 . S
C705 C702 1.499 . S
C705 C706 1.373 . S
C705 C707 1.389 . S
C706 H685 0.950 . S
C706 C705 1.373 . S
C706 C722 1.377 . S
C707 C705 1.389 . S
C707 C708 1.524 1_545 S
C707 C721 1.377 . S
C708 C707 1.524 1_565 S
C708 C709 1.397 . S
C708 C713 1.363 . S
C709 H686 0.950 . S
C709 C708 1.397 . S
C709 C710 1.334 . S
C710 H687 0.950 . S
C710 C709 1.334 . S
C710 C711 1.287 . S
C711 C710 1.287 . S
C711 C712 1.524 . S
C711 H730 0.913 . S
C712 H688 0.950 . S
C712 C711 1.524 . S
C712 C713 1.415 . S
C713 H689 0.950 . S
C713 C708 1.363 . S
C713 C712 1.415 . S
C714 H690 0.951 . S
C714 C715 1.366 . S
C714 C716 1.388 . S
C715 C714 1.366 . S
C715 C719 1.385 . S
C716 H691 0.951 . S
C716 C714 1.388 . S
C716 C717 1.366 . S
C717 C716 1.366 . S
C717 C718 1.414 . S
C717 C720 1.499 . S
C718 H692 0.950 . S
C718 C717 1.414 . S
C718 C719 1.374 . S
C719 H693 0.950 . S
C719 C715 1.385 . S
C719 C718 1.374 . S
C720 C717 1.499 . S
C720 C721 1.373 . S
C720 C722 1.389 . S
C721 H694 0.955 . S
C721 C707 1.377 . S
C721 C720 1.373 . S
C722 C706 1.377 . S
C722 C720 1.389 . S
C722 C723 1.524 . S
C723 C722 1.524 . S
C723 C724 1.397 . S
C723 C728 1.363 . S
C724 H695 0.950 . S
C724 C723 1.397 . S
C724 C725 1.334 . S
C725 H696 0.950 . S
C725 C724 1.334 . S
C725 C726 1.287 . S
C726 C725 1.287 . S
C726 C727 1.524 . S
C726 H729 0.999 . S
C727 H697 0.950 . S
C727 C726 1.524 . S
C727 C728 1.415 . S
C728 H698 0.950 . S
C728 C723 1.363 . S
C728 C727 1.415 . S
H729 C726 0.999 . S
H730 C711 0.913 . S
H731 C749 0.951 . S
H732 C751 0.951 . S
H733 C753 0.950 . S
H734 C754 0.950 . S
H735 C756 0.950 . S
H736 C759 0.950 . S
H737 C760 0.950 1_545 S
H738 C762 0.950 . S
H739 C763 0.950 . S
H740 C764 0.951 . S
H741 C766 0.959 . S
H742 C768 0.950 . S
H743 C769 0.950 . S
H744 C771 0.950 . S
H745 C774 0.950 . S
H746 C775 0.950 . S
H747 C777 0.950 . S
H748 C778 0.950 . S
C749 H731 0.951 . S
C749 C750 1.366 . S
C749 C751 1.388 . S
C750 C749 1.366 . S
C750 C754 1.385 . S
C751 H732 0.951 . S
C751 C749 1.388 . S
C751 C752 1.366 . S
C752 C751 1.366 . S
C752 C753 1.414 . S
C752 C755 1.499 . S
C753 H733 0.950 . S
C753 C752 1.414 . S
C753 C754 1.374 . S
C754 H734 0.950 . S
C754 C750 1.385 . S
C754 C753 1.374 . S
C755 C752 1.499 . S
C755 C756 1.373 . S
C755 C757 1.389 . S
C756 H735 0.950 . S
C756 C755 1.373 . S
C756 C772 1.377 . S
C757 C755 1.389 . S
C757 C758 1.527 1_554 S
C757 C771 1.377 1_554 S
C758 C757 1.527 1_556 S
C758 C759 1.397 1_556 S
C758 C763 1.360 . S
C759 H736 0.950 . S
C759 C758 1.397 1_554 S
C759 C760 1.334 1_554 S
C760 H737 0.950 1_565 S
C760 C759 1.334 1_556 S
C760 C761 1.287 . S
C761 C760 1.287 . S
C761 C762 1.524 . S
C761 H780 0.913 . S
C762 H738 0.950 . S
C762 C761 1.524 . S
C762 C763 1.415 . S
C763 H739 0.950 . S
C763 C758 1.360 . S
C763 C762 1.415 . S
C764 H740 0.951 . S
C764 C765 1.366 . S
C764 C766 1.388 . S
C765 C764 1.366 . S
C765 C769 1.385 . S
C766 H741 0.959 . S
C766 C764 1.388 . S
C766 C767 1.366 . S
C767 C766 1.366 . S
C767 C768 1.414 . S
C767 C770 1.499 1_556 S
C768 H742 0.950 . S
C768 C767 1.414 . S
C768 C769 1.374 . S
C769 H743 0.950 . S
C769 C765 1.385 . S
C769 C768 1.374 . S
C770 C767 1.499 1_554 S
C770 C771 1.373 1_554 S
C770 C772 1.389 . S
C771 H744 0.950 . S
C771 C757 1.377 1_556 S
C771 C770 1.373 1_556 S
C772 C756 1.377 . S
C772 C770 1.389 . S
C772 C773 1.524 . S
C773 C772 1.524 . S
C773 C774 1.397 . S
C773 C778 1.363 . S
C774 H745 0.950 . S
C774 C773 1.397 . S
C774 C775 1.334 . S
C775 H746 0.950 . S
C775 C774 1.334 . S
C775 C776 1.287 . S
C776 C775 1.287 . S
C776 C777 1.524 . S
C776 H779 0.999 . S
C777 H747 0.950 . S
C777 C776 1.524 . S
C777 C778 1.415 . S
C778 H748 0.950 . S
C778 C773 1.363 . S
C778 C777 1.415 . S
H779 C776 0.999 . S
H780 C761 0.913 . S
H781 C799 0.951 . S
H782 C801 0.951 . S
H783 C803 0.950 . S
H784 C804 0.950 . S
H785 C806 0.950 . S
H786 C809 0.950 . S
H787 C810 0.950 . S
H788 C812 0.950 . S
H789 C813 0.950 . S
H790 C814 0.951 . S
H791 C816 0.951 . S
H792 C818 0.950 . S
H793 C819 0.950 1_655 S
H794 C821 0.950 . S
H795 C824 0.950 . S
H796 C825 0.950 . S
H797 C827 0.950 1_455 S
H798 C828 0.950 . S
C799 H781 0.951 . S
C799 C800 1.366 . S
C799 C801 1.388 . S
C800 C799 1.366 . S
C800 C804 1.385 1_565 S
C801 H782 0.951 . S
C801 C799 1.388 . S
C801 C802 1.366 . S
C802 C801 1.366 . S
C802 C803 1.414 . S
C802 C805 1.499 . S
C803 H783 0.950 . S
C803 C802 1.414 . S
C803 C804 1.374 1_565 S
C804 H784 0.950 . S
C804 C800 1.385 1_545 S
C804 C803 1.374 1_545 S
C805 C802 1.499 . S
C805 C806 1.373 . S
C805 C807 1.389 . S
C806 H785 0.950 . S
C806 C805 1.373 . S
C806 C822 1.377 . S
C807 C805 1.389 . S
C807 C808 1.524 . S
C807 C821 1.377 . S
C808 C807 1.524 . S
C808 C809 1.397 . S
C808 C813 1.363 . S
C809 H786 0.950 . S
C809 C808 1.397 . S
C809 C810 1.334 . S
C810 H787 0.950 . S
C810 C809 1.334 . S
C810 C811 1.287 . S
C811 C810 1.287 . S
C811 C812 1.524 . S
C811 H830 0.913 . S
C812 H788 0.950 . S
C812 C811 1.524 . S
C812 C813 1.415 . S
C813 H789 0.950 . S
C813 C808 1.363 . S
C813 C812 1.415 . S
C814 H790 0.951 . S
C814 C815 1.366 . S
C814 C816 1.388 . S
C815 C814 1.366 . S
C815 C819 1.385 . S
C816 H791 0.951 . S
C816 C814 1.388 . S
C816 C817 1.366 . S
C817 C816 1.366 . S
C817 C818 1.414 . S
C817 C820 1.499 . S
C818 H792 0.950 . S
C818 C817 1.414 . S
C818 C819 1.374 . S
C819 H793 0.950 1_455 S
C819 C815 1.385 . S
C819 C818 1.374 . S
C820 C817 1.499 . S
C820 C821 1.373 . S
C820 C822 1.389 . S
C821 H794 0.950 . S
C821 C807 1.377 . S
C821 C820 1.373 . S
C822 C806 1.377 . S
C822 C820 1.389 . S
C822 C823 1.524 . S
C823 C822 1.524 . S
C823 C824 1.397 1_455 S
C823 C828 1.363 . S
C824 H795 0.950 . S
C824 C823 1.397 1_655 S
C824 C825 1.334 . S
C825 H796 0.950 . S
C825 C824 1.334 . S
C825 C826 1.287 . S
C826 C825 1.287 . S
C826 C827 1.524 . S
C826 H829 0.999 . S
C827 H797 0.950 1_655 S
C827 C826 1.524 . S
C827 C828 1.415 1_655 S
C828 H798 0.950 . S
C828 C823 1.363 . S
C828 C827 1.415 1_455 S
H829 C826 0.999 . S
H830 C811 0.913 . S
H831 C849 0.951 . S
H832 C851 0.951 . S
H833 C853 0.950 . S
H834 C854 0.942 1_565 S
H835 C856 0.950 . S
H836 C859 0.950 . S
H837 C860 0.950 . S
H838 C862 0.950 . S
H839 C863 0.950 1_545 S
H840 C864 0.951 . S
H841 C866 0.951 . S
H842 C868 0.950 . S
H843 C869 0.950 . S
H844 C871 0.950 1_565 S
H845 C874 0.950 . S
H846 C875 0.950 . S
H847 C877 0.950 . S
H848 C878 0.950 . S
C849 H831 0.951 . S
C849 C850 1.366 . S
C849 C851 1.388 . S
C850 C849 1.366 . S
C850 C854 1.385 . S
C851 H832 0.951 . S
C851 C849 1.388 . S
C851 C852 1.366 . S
C852 C851 1.366 . S
C852 C853 1.414 . S
C852 C855 1.499 . S
C853 H833 0.950 . S
C853 C852 1.414 . S
C853 C854 1.374 . S
C854 H834 0.942 1_545 S
C854 C850 1.385 . S
C854 C853 1.374 . S
C855 C852 1.499 . S
C855 C856 1.373 . S
C855 C857 1.389 . S
C856 H835 0.950 . S
C856 C855 1.373 . S
C856 C872 1.377 . S
C857 C855 1.389 . S
C857 C858 1.524 1_545 S
C857 C871 1.377 . S
C858 C857 1.524 1_565 S
C858 C859 1.397 . S
C858 C863 1.363 . S
C859 H836 0.950 . S
C859 C858 1.397 . S
C859 C860 1.334 . S
C860 H837 0.950 . S
C860 C859 1.334 . S
C860 C861 1.287 . S
C861 C860 1.287 . S
C861 C862 1.524 . S
C861 H880 0.913 . S
C862 H838 0.950 . S
C862 C861 1.524 . S
C862 C863 1.415 . S
C863 H839 0.950 1_565 S
C863 C858 1.363 . S
C863 C862 1.415 . S
C864 H840 0.951 . S
C864 C865 1.366 . S
C864 C866 1.388 . S
C865 C864 1.366 . S
C865 C869 1.385 . S
C866 H841 0.951 . S
C866 C864 1.388 . S
C866 C867 1.366 . S
C867 C866 1.366 . S
C867 C868 1.414 . S
C867 C870 1.499 . S
C868 H842 0.950 . S
C868 C867 1.414 . S
C868 C869 1.374 . S
C869 H843 0.950 . S
C869 C865 1.385 . S
C869 C868 1.374 . S
C870 C867 1.499 . S
C870 C871 1.373 . S
C870 C872 1.389 . S
C871 H844 0.950 1_545 S
C871 C857 1.377 . S
C871 C870 1.373 . S
C872 C856 1.377 . S
C872 C870 1.389 . S
C872 C873 1.524 . S
C873 C872 1.524 . S
C873 C874 1.397 . S
C873 C878 1.363 . S
C874 H845 0.950 . S
C874 C873 1.397 . S
C874 C875 1.334 . S
C875 H846 0.950 . S
C875 C874 1.334 . S
C875 C876 1.287 . S
C876 C875 1.287 . S
C876 C877 1.524 . S
C876 H879 0.999 . S
C877 H847 0.950 . S
C877 C876 1.524 . S
C877 C878 1.415 . S
C878 H848 0.950 . S
C878 C873 1.363 . S
C878 C877 1.415 . S
H879 C876 0.999 . S
H880 C861 0.913 . S
H881 C899 0.951 . S
H882 C901 0.951 . S
H883 C903 0.950 . S
H884 C904 0.950 . S
H885 C906 0.950 . S
H886 C909 0.950 1_554 S
H887 C910 0.950 . S
H888 C912 0.950 . S
H889 C913 0.950 . S
H890 C914 0.951 . S
H891 C916 0.951 . S
H892 C918 0.950 . S
H893 C919 0.950 . S
H894 C921 0.950 . S
H895 C924 0.950 . S
H896 C925 0.950 . S
H897 C927 0.950 . S
H898 C928 0.950 . S
C899 H881 0.951 . S
C899 C900 1.366 . S
C899 C901 1.388 . S
C900 C899 1.366 . S
C900 C904 1.385 . S
C901 H882 0.951 . S
C901 C899 1.388 . S
C901 C902 1.366 . S
C902 C901 1.366 . S
C902 C903 1.414 . S
C902 C905 1.499 . S
C903 H883 0.950 . S
C903 C902 1.414 . S
C903 C904 1.374 . S
C904 H884 0.950 . S
C904 C900 1.385 . S
C904 C903 1.374 . S
C905 C902 1.499 . S
C905 C906 1.373 . S
C905 C907 1.389 . S
C906 H885 0.950 . S
C906 C905 1.373 . S
C906 C922 1.377 . S
C907 C905 1.389 . S
C907 C908 1.524 1_554 S
C907 C921 1.377 1_554 S
C908 C907 1.524 1_556 S
C908 C909 1.397 . S
C908 C913 1.363 . S
C909 H886 0.950 1_556 S
C909 C908 1.397 . S
C909 C910 1.334 . S
C910 H887 0.950 . S
C910 C909 1.334 . S
C910 C911 1.287 . S
C911 C910 1.287 . S
C911 C912 1.524 . S
C911 H930 0.913 . S
C912 H888 0.950 . S
C912 C911 1.524 . S
C912 C913 1.415 . S
C913 H889 0.950 . S
C913 C908 1.363 . S
C913 C912 1.415 . S
C914 H890 0.951 . S
C914 C915 1.366 . S
C914 C916 1.388 . S
C915 C914 1.366 . S
C915 C919 1.385 . S
C916 H891 0.951 . S
C916 C914 1.388 . S
C916 C917 1.366 . S
C917 C916 1.366 . S
C917 C918 1.414 . S
C917 C920 1.518 . S
C918 H892 0.950 . S
C918 C917 1.414 . S
C918 C919 1.374 . S
C919 H893 0.950 . S
C919 C915 1.385 . S
C919 C918 1.374 . S
C920 C917 1.518 . S
C920 C921 1.383 . S
C920 C922 1.361 1_556 S
C921 H894 0.950 . S
C921 C907 1.377 1_556 S
C921 C920 1.383 . S
C922 C906 1.377 . S
C922 C920 1.361 1_554 S
C922 C923 1.524 . S
C923 C922 1.524 . S
C923 C924 1.397 . S
C923 C928 1.363 . S
C924 H895 0.950 . S
C924 C923 1.397 . S
C924 C925 1.334 . S
C925 H896 0.950 . S
C925 C924 1.334 . S
C925 C926 1.287 . S
C926 C925 1.287 . S
C926 C927 1.524 . S
C926 H929 0.999 . S
C927 H897 0.950 . S
C927 C926 1.524 . S
C927 C928 1.415 . S
C928 H898 0.950 . S
C928 C923 1.363 . S
C928 C927 1.415 . S
H929 C926 0.999 . S
H930 C911 0.913 . S
H931 C949 0.951 . S
H932 C951 0.951 . S
H933 C953 0.950 . S
H934 C954 0.950 . S
H935 C956 0.950 . S
H936 C959 0.950 . S
H937 C960 0.950 . S
H938 C962 0.950 . S
H939 C963 0.949 1_455 S
H940 C964 0.951 . S
H941 C966 0.951 . S
H942 C968 0.950 . S
H943 C969 0.950 . S
H944 C971 0.950 . S
H945 C974 0.950 . S
H946 C975 0.950 . S
H947 C977 0.950 . S
H948 C978 0.950 . S
C949 H931 0.951 . S
C949 C950 1.366 . S
C949 C951 1.388 . S
C950 C949 1.366 . S
C950 C954 1.385 . S
C951 H932 0.951 . S
C951 C949 1.388 . S
C951 C952 1.366 . S
C952 C951 1.366 . S
C952 C953 1.414 . S
C952 C955 1.499 . S
C953 H933 0.950 . S
C953 C952 1.414 . S
C953 C954 1.374 . S
C954 H934 0.950 . S
C954 C950 1.385 . S
C954 C953 1.374 . S
C955 C952 1.499 . S
C955 C956 1.373 . S
C955 C957 1.389 . S
C956 H935 0.950 . S
C956 C955 1.373 . S
C956 C972 1.377 . S
C957 C955 1.389 . S
C957 C958 1.524 . S
C957 C971 1.377 . S
C958 C957 1.524 . S
C958 C959 1.397 1_455 S
C958 C963 1.352 1_455 S
C959 H936 0.950 . S
C959 C958 1.397 1_655 S
C959 C960 1.334 . S
C960 H937 0.950 . S
C960 C959 1.334 . S
C960 C961 1.287 . S
C961 C960 1.287 . S
C961 C962 1.524 . S
C961 H980 0.913 . S
C962 H938 0.950 . S
C962 C961 1.524 . S
C962 C963 1.427 . S
C963 H939 0.949 1_655 S
C963 C958 1.352 1_655 S
C963 C962 1.427 . S
C964 H940 0.951 . S
C964 C965 1.366 . S
C964 C966 1.388 . S
C965 C964 1.366 . S
C965 C969 1.385 . S
C966 H941 0.951 . S
C966 C964 1.388 . S
C966 C967 1.366 . S
C967 C966 1.366 . S
C967 C968 1.414 . S
C967 C970 1.499 . S
C968 H942 0.950 . S
C968 C967 1.414 . S
C968 C969 1.374 . S
C969 H943 0.950 . S
C969 C965 1.385 . S
C969 C968 1.374 . S
C970 C967 1.499 . S
C970 C971 1.373 . S
C970 C972 1.389 . S
C971 H944 0.950 . S
C971 C957 1.377 . S
C971 C970 1.373 . S
C972 C956 1.377 . S
C972 C970 1.389 . S
C972 C973 1.524 . S
C973 C972 1.524 . S
C973 C974 1.397 . S
C973 C978 1.363 . S
C974 H945 0.950 . S
C974 C973 1.397 . S
C974 C975 1.334 . S
C975 H946 0.950 . S
C975 C974 1.334 . S
C975 C976 1.287 . S
C976 C975 1.287 . S
C976 C977 1.524 . S
C976 H979 0.999 . S
C977 H947 0.950 . S
C977 C976 1.524 . S
C977 C978 1.415 . S
C978 H948 0.950 . S
C978 C973 1.363 . S
C978 C977 1.415 . S
H979 C976 0.999 . S
H980 C961 0.913 . S
C415 C94 1.057 . S
C400 C10 1.462 . S
C450 C21 1.494 1_655 S
C465 C208 1.126 . S
C500 C31 1.173 . S
C515 C268 0.955 . S
C550 C0 1.243 . S
C565 C68 1.057 . S
C615 C182 1.068 . S
C600 C18 1.253 . S
C650 C34 1.358 . S
C665 C278 0.885 . S
C715 C164 0.824 . S
C700 C36 1.354 . S
C750 C8 1.285 1_565 S
C765 C296 1.034 . S
C815 C40 0.978 . S
C800 C23 1.204 1_565 S
C865 C154 0.917 . S
C850 C26 1.096 . S
C915 C322 1.140 . S
C900 C5 1.419 . S
C950 C13 1.312 . S
C965 C50 0.812 . S
