# Generated by pormake.
# Topology ctn, (3,4)-cn, num edge types: 1
# Building blocks:
#     Node 0, Type 0, BuildingBlock: VETTIZ_charged_linker_0, # of connection points: 3
#     Node 1, Type 0, BuildingBlock: VETTIZ_charged_linker_0, # of connection points: 3
#     Node 2, Type 0, BuildingBlock: VETTIZ_charged_linker_0, # of connection points: 3
#     Node 3, Type 0, BuildingBlock: VETTIZ_charged_linker_0, # of connection points: 3
#     Node 4, Type 0, BuildingBlock: VETTIZ_charged_linker_0, # of connection points: 3
#     Node 5, Type 0, BuildingBlock: VETTIZ_charged_linker_0, # of connection points: 3
#     Node 6, Type 0, BuildingBlock: VETTIZ_charged_linker_0, # of connection points: 3
#     Node 7, Type 0, BuildingBlock: VETTIZ_charged_linker_0, # of connection points: 3
#     Node 8, Type 0, BuildingBlock: VETTIZ_charged_linker_0, # of connection points: 3
#     Node 9, Type 0, BuildingBlock: VETTIZ_charged_linker_0, # of connection points: 3
#     Node 10, Type 0, BuildingBlock: VETTIZ_charged_linker_0, # of connection points: 3
#     Node 11, Type 0, BuildingBlock: VETTIZ_charged_linker_0, # of connection points: 3
#     Node 12, Type 0, BuildingBlock: VETTIZ_charged_linker_0, # of connection points: 3
#     Node 13, Type 0, BuildingBlock: VETTIZ_charged_linker_0, # of connection points: 3
#     Node 14, Type 0, BuildingBlock: VETTIZ_charged_linker_0, # of connection points: 3
#     Node 15, Type 0, BuildingBlock: VETTIZ_charged_linker_0, # of connection points: 3
#     Node 16, Type 1, BuildingBlock: UXUYUI_clean_sbu_0, # of connection points: 4
#     Node 17, Type 1, BuildingBlock: UXUYUI_clean_sbu_0, # of connection points: 4
#     Node 18, Type 1, BuildingBlock: UXUYUI_clean_sbu_0, # of connection points: 4
#     Node 19, Type 1, BuildingBlock: UXUYUI_clean_sbu_0, # of connection points: 4
#     Node 20, Type 1, BuildingBlock: UXUYUI_clean_sbu_0, # of connection points: 4
#     Node 21, Type 1, BuildingBlock: UXUYUI_clean_sbu_0, # of connection points: 4
#     Node 22, Type 1, BuildingBlock: UXUYUI_clean_sbu_0, # of connection points: 4
#     Node 23, Type 1, BuildingBlock: UXUYUI_clean_sbu_0, # of connection points: 4
#     Node 24, Type 1, BuildingBlock: UXUYUI_clean_sbu_0, # of connection points: 4
#     Node 25, Type 1, BuildingBlock: UXUYUI_clean_sbu_0, # of connection points: 4
#     Node 26, Type 1, BuildingBlock: UXUYUI_clean_sbu_0, # of connection points: 4
#     Node 27, Type 1, BuildingBlock: UXUYUI_clean_sbu_0, # of connection points: 4
#     Edge 28, Type (0, 1), BuildingBlock: KIFKEQ_clean_linker_1, # of connection points: 2
#     Edge 29, Type (0, 1), BuildingBlock: KIFKEQ_clean_linker_1, # of connection points: 2
#     Edge 30, Type (0, 1), BuildingBlock: KIFKEQ_clean_linker_1, # of connection points: 2
#     Edge 31, Type (0, 1), BuildingBlock: KIFKEQ_clean_linker_1, # of connection points: 2
#     Edge 32, Type (0, 1), BuildingBlock: KIFKEQ_clean_linker_1, # of connection points: 2
#     Edge 33, Type (0, 1), BuildingBlock: KIFKEQ_clean_linker_1, # of connection points: 2
#     Edge 34, Type (0, 1), BuildingBlock: KIFKEQ_clean_linker_1, # of connection points: 2
#     Edge 35, Type (0, 1), BuildingBlock: KIFKEQ_clean_linker_1, # of connection points: 2
#     Edge 36, Type (0, 1), BuildingBlock: KIFKEQ_clean_linker_1, # of connection points: 2
#     Edge 37, Type (0, 1), BuildingBlock: KIFKEQ_clean_linker_1, # of connection points: 2
#     Edge 38, Type (0, 1), BuildingBlock: KIFKEQ_clean_linker_1, # of connection points: 2
#     Edge 39, Type (0, 1), BuildingBlock: KIFKEQ_clean_linker_1, # of connection points: 2
#     Edge 40, Type (0, 1), BuildingBlock: KIFKEQ_clean_linker_1, # of connection points: 2
#     Edge 41, Type (0, 1), BuildingBlock: KIFKEQ_clean_linker_1, # of connection points: 2
#     Edge 42, Type (0, 1), BuildingBlock: KIFKEQ_clean_linker_1, # of connection points: 2
#     Edge 43, Type (0, 1), BuildingBlock: KIFKEQ_clean_linker_1, # of connection points: 2
#     Edge 44, Type (0, 1), BuildingBlock: KIFKEQ_clean_linker_1, # of connection points: 2
#     Edge 45, Type (0, 1), BuildingBlock: KIFKEQ_clean_linker_1, # of connection points: 2
#     Edge 46, Type (0, 1), BuildingBlock: KIFKEQ_clean_linker_1, # of connection points: 2
#     Edge 47, Type (0, 1), BuildingBlock: KIFKEQ_clean_linker_1, # of connection points: 2
#     Edge 48, Type (0, 1), BuildingBlock: KIFKEQ_clean_linker_1, # of connection points: 2
#     Edge 49, Type (0, 1), BuildingBlock: KIFKEQ_clean_linker_1, # of connection points: 2
#     Edge 50, Type (0, 1), BuildingBlock: KIFKEQ_clean_linker_1, # of connection points: 2
#     Edge 51, Type (0, 1), BuildingBlock: KIFKEQ_clean_linker_1, # of connection points: 2
#     Edge 52, Type (0, 1), BuildingBlock: KIFKEQ_clean_linker_1, # of connection points: 2
#     Edge 53, Type (0, 1), BuildingBlock: KIFKEQ_clean_linker_1, # of connection points: 2
#     Edge 54, Type (0, 1), BuildingBlock: KIFKEQ_clean_linker_1, # of connection points: 2
#     Edge 55, Type (0, 1), BuildingBlock: KIFKEQ_clean_linker_1, # of connection points: 2
#     Edge 56, Type (0, 1), BuildingBlock: KIFKEQ_clean_linker_1, # of connection points: 2
#     Edge 57, Type (0, 1), BuildingBlock: KIFKEQ_clean_linker_1, # of connection points: 2
#     Edge 58, Type (0, 1), BuildingBlock: KIFKEQ_clean_linker_1, # of connection points: 2
#     Edge 59, Type (0, 1), BuildingBlock: KIFKEQ_clean_linker_1, # of connection points: 2
#     Edge 60, Type (0, 1), BuildingBlock: KIFKEQ_clean_linker_1, # of connection points: 2
#     Edge 61, Type (0, 1), BuildingBlock: KIFKEQ_clean_linker_1, # of connection points: 2
#     Edge 62, Type (0, 1), BuildingBlock: KIFKEQ_clean_linker_1, # of connection points: 2
#     Edge 63, Type (0, 1), BuildingBlock: KIFKEQ_clean_linker_1, # of connection points: 2
#     Edge 64, Type (0, 1), BuildingBlock: KIFKEQ_clean_linker_1, # of connection points: 2
#     Edge 65, Type (0, 1), BuildingBlock: KIFKEQ_clean_linker_1, # of connection points: 2
#     Edge 66, Type (0, 1), BuildingBlock: KIFKEQ_clean_linker_1, # of connection points: 2
#     Edge 67, Type (0, 1), BuildingBlock: KIFKEQ_clean_linker_1, # of connection points: 2
#     Edge 68, Type (0, 1), BuildingBlock: KIFKEQ_clean_linker_1, # of connection points: 2
#     Edge 69, Type (0, 1), BuildingBlock: KIFKEQ_clean_linker_1, # of connection points: 2
#     Edge 70, Type (0, 1), BuildingBlock: KIFKEQ_clean_linker_1, # of connection points: 2
#     Edge 71, Type (0, 1), BuildingBlock: KIFKEQ_clean_linker_1, # of connection points: 2
#     Edge 72, Type (0, 1), BuildingBlock: KIFKEQ_clean_linker_1, # of connection points: 2
#     Edge 73, Type (0, 1), BuildingBlock: KIFKEQ_clean_linker_1, # of connection points: 2
#     Edge 74, Type (0, 1), BuildingBlock: KIFKEQ_clean_linker_1, # of connection points: 2
#     Edge 75, Type (0, 1), BuildingBlock: KIFKEQ_clean_linker_1, # of connection points: 2
# Relax obj value: 0.000
# Max RMSD: 0.002
# Mean RMSD: 0.001
data_MOF--net-ctn--node1-UXUYUI_clean_sbu_0--node2-VETTIZ_charged_linker_0--edge1-KIFKEQ_clean_linker_1
_symmetry_space_group_name_H-M    P1
_symmetry_Int_Tables_number       1
_symmetry_cell_setting            triclinic
loop_
_symmetry_equiv_pos_as_xyz
'x, y, z'
_cell_length_a     81.291917
_cell_length_b     81.329402
_cell_length_c     81.290851
_cell_angle_alpha  89.989588
_cell_angle_beta   90.001286
_cell_angle_gamma 89.965804
loop_
_atom_site_label
_atom_site_type_symbol
_atom_site_fract_x
_atom_site_fract_y
_atom_site_fract_z
_atom_type_partial_charge
C0 C 0.04162 0.08686 0.00354 0.0
C1 C 0.02836 0.09798 0.00466 0.0
C2 C 0.01657 0.09559 0.0172 0.0
C3 C 0.03138 0.07167 0.02718 0.0
C4 C 0.04284 0.07385 0.01481 0.0
C5 C 0.05605 0.06086 0.01518 0.0
H6 H 0.08734 0.99161 0.04955 0.0
C7 C 0.03626 0.05704 0.0369 0.0
C8 C 0.05069 0.05061 0.02987 0.0
H9 H 0.10647 0.01925 0.00826 0.0
H10 H 0.08432 0.03872 0.01084 0.0
H11 H 0.08066 0.02286 0.07166 0.0
H12 H 0.04867 0.99477 0.04025 0.0
H13 H 0.03818 0.9986 0.0588 0.0
H14 H 0.05703 0.98696 0.05915 0.0
H15 H 0.07233 0.00345 0.07797 0.0
H16 H 0.06139 0.02248 0.08136 0.0
C17 C 0.07279 0.06943 0.01825 0.0
C18 C 0.05511 0.05102 0.99889 0.0
C19 C 1.00245 0.03988 0.08681 0.0
C20 C 0.00433 0.02728 0.09855 0.0
C21 C 0.0176 0.01623 0.09691 0.0
C22 C 0.02882 0.01769 0.08389 0.0
C23 C 0.02687 0.03041 0.07235 0.0
C24 C 0.01387 0.04126 0.07393 0.0
C25 C 0.01399 0.05424 0.06071 0.0
C26 C 0.02922 0.04942 0.05099 0.0
C27 C 0.03666 0.03539 0.05781 0.0
C28 C 0.01598 0.07122 0.0691 0.0
C29 C 0.99807 0.05237 0.05039 0.0
C30 C 0.08689 1.0019 0.04111 0.0
C31 C 0.09872 0.00368 0.02856 0.0
C32 C 0.09741 0.01727 0.01782 0.0
C33 C 0.08456 0.02869 0.0194 0.0
C34 C 0.07282 0.02665 0.03192 0.0
C35 C 0.07419 0.0135 0.0426 0.0
C36 C 0.06087 0.01356 0.05547 0.0
C37 C 0.05112 0.02873 0.05056 0.0
C38 C 0.05813 0.03633 0.03672 0.0
C39 C 0.06911 0.01557 0.07256 0.0
C40 C 0.05064 0.99763 0.05349 0.0
H41 H 0.00864 0.08148 0.03764 0.0
H42 H 0.05101 0.08833 0.9942 0.0
H43 H 0.0421 0.04936 0.99497 0.0
H44 H 0.06006 0.03843 0.99998 0.0
H45 H 0.06167 0.05752 0.98883 0.0
H46 H 0.07132 0.0801 0.02669 0.0
H47 H 0.07815 0.07408 0.00658 0.0
H48 H 0.08183 0.06136 0.02439 0.0
H49 H 0.99249 0.04867 0.08781 0.0
H50 H 0.01923 0.00631 0.10565 0.0
H51 H 0.0386 0.00885 0.08334 0.0
H52 H 0.02456 0.0704 0.07974 0.0
H53 H 0.00399 0.07583 0.07378 0.0
H54 H 0.02142 0.08059 0.06094 0.0
H55 H 0.99446 0.03921 0.04932 0.0
H56 H 0.99955 0.0566 0.03756 0.0
H57 H 0.98764 0.05906 0.05614 0.0
H58 H 0.00604 0.10368 0.01824 0.0
C59 C 0.01803 0.08257 0.02843 0.0
C60 C 0.26145 0.66481 0.22716 0.0
C61 C 0.24812 0.66069 0.21685 0.0
C62 C 0.24531 0.67037 0.20269 0.0
C63 C 0.26847 0.68789 0.20949 0.0
C64 C 0.27145 0.67831 0.22321 0.0
C65 C 0.28636 0.68404 0.23259 0.0
H66 H 0.34929 0.73811 0.24106 0.0
C67 C 0.28106 0.70104 0.20892 0.0
C68 C 0.29165 0.69878 0.22239 0.0
H69 H 0.33819 0.69576 0.27124 0.0
H70 H 0.31464 0.68962 0.25428 0.0
H71 H 0.3115 0.75053 0.23706 0.0
H72 H 0.3427 0.7204 0.20665 0.0
H73 H 0.33168 0.73358 0.19355 0.0
H74 H 0.34556 0.7422 0.20855 0.0
H75 H 0.32837 0.75884 0.22551 0.0
H76 H 0.30823 0.75643 0.21653 0.0
C77 C 0.28077 0.68915 0.25007 0.0
C78 C 0.29936 0.67008 0.23225 0.0
C79 C 0.27903 0.74424 0.16361 0.0
C80 C 0.28887 0.75802 0.15994 0.0
C81 C 0.30233 0.76161 0.17029 0.0
C82 C 0.30596 0.75171 0.18395 0.0
C83 C 0.29605 0.73799 0.18741 0.0
C84 C 0.28283 0.73446 0.17732 0.0
C85 C 0.27368 0.71935 0.18286 0.0
C86 C 0.28355 0.71443 0.19796 0.0
C87 C 0.29665 0.72539 0.20057 0.0
C88 C 0.25591 0.72455 0.18736 0.0
C89 C 0.27482 0.70627 0.16903 0.0
C90 C 0.3417 0.7276 0.24409 0.0
C91 C 0.34565 0.7174 0.25752 0.0
C92 C 0.33555 0.7037 0.26087 0.0
C93 C 0.32182 0.70019 0.25103 0.0
C94 C 0.31811 0.7104 0.23759 0.0
C95 C 0.32799 0.72383 0.23429 0.0
C96 C 0.32233 0.73312 0.21929 0.0
C97 C 0.30747 0.72304 0.21412 0.0
C98 C 0.30501 0.70979 0.22494 0.0
C99 C 0.31743 0.75071 0.22472 0.0
C100 C 0.33625 0.73247 0.20629 0.0
H101 H 0.25247 0.69071 0.18807 0.0
H102 H 0.26402 0.6578 0.23819 0.0
H103 H 0.29848 0.66279 0.2207 0.0
H104 H 0.31213 0.67474 0.23237 0.0
H105 H 0.29764 0.66146 0.24271 0.0
H106 H 0.26884 0.69585 0.24955 0.0
H107 H 0.27906 0.67822 0.25807 0.0
H108 H 0.28938 0.69771 0.25612 0.0
H109 H 0.26871 0.74097 0.15584 0.0
H110 H 0.30999 0.77225 0.16796 0.0
H111 H 0.31635 0.75516 0.19131 0.0
H112 H 0.25588 0.73663 0.19379 0.0
H113 H 0.24818 0.7258 0.17616 0.0
H114 H 0.24986 0.71598 0.19596 0.0
H115 H 0.28667 0.70727 0.16226 0.0
H116 H 0.27467 0.69354 0.17379 0.0
H117 H 0.26473 0.70779 0.15995 0.0
H118 H 0.23546 0.66737 0.19425 0.0
C119 C 0.25532 0.68391 0.19901 0.0
C120 C 0.97781 0.41314 0.00968 0.0
C121 C 0.96708 0.4086 0.99688 0.0
C122 C 0.95266 0.4179 0.99433 0.0
C123 C 0.95991 0.43598 0.01695 0.0
C124 C 0.97393 0.42672 0.01959 0.0
C125 C 0.98371 0.43283 0.03408 0.0
H126 H 0.99136 0.48577 0.09795 0.0
C127 C 0.9595 0.44927 0.02941 0.0
C128 C 0.97338 0.4474 0.03956 0.0
H129 H 0.02422 0.44626 0.08392 0.0
H130 H 0.00691 0.43988 0.06081 0.0
H131 H 0.95693 0.46715 0.09005 0.0
H132 H 0.98772 0.4997 0.06194 0.0
H133 H 0.96741 0.50416 0.05618 0.0
H134 H 0.97377 0.5073 0.07724 0.0
H135 H 0.95974 0.48851 0.09491 0.0
H136 H 0.94427 0.48193 0.0805 0.0
C137 C 0.9841 0.41901 0.04721 0.0
C138 C 1.00088 0.43824 0.02782 0.0
C139 C 0.91362 0.49201 0.02832 0.0
C140 C 0.91045 0.50611 0.03786 0.0
C141 C 0.92108 0.50986 0.05104 0.0
C142 C 0.93465 0.49984 0.05464 0.0
C143 C 0.93776 0.48589 0.04492 0.0
C144 C 0.92736 0.48219 0.03199 0.0
C145 C 0.93284 0.46707 0.02278 0.0
C146 C 0.9483 0.46242 0.03222 0.0
C147 C 0.95105 0.47344 0.04525 0.0
C148 C 0.91923 0.45383 0.02445 0.0
C149 C 0.93672 0.47213 0.00483 0.0
C150 C 0.99496 0.47582 0.08987 0.0
C151 C 0.00918 0.46641 0.09306 0.0
C152 C 0.01318 0.4535 0.08214 0.0
C153 C 1.00315 0.44986 0.06858 0.0
C154 C 0.98892 0.45925 0.06572 0.0
C155 C 0.98514 0.47211 0.07616 0.0
C156 C 0.96988 0.48116 0.07084 0.0
C157 C 0.96489 0.47133 0.05575 0.0
C158 C 0.97604 0.45846 0.05285 0.0
C159 C 0.95697 0.47977 0.08477 0.0
C160 C 0.9748 0.49905 0.0664 0.0
H161 H 0.93794 0.43818 1.00159 0.0
H162 H 0.98886 0.40609 0.01211 0.0
H163 H 0.99999 0.44383 0.01536 0.0
H164 H 0.00654 0.44786 0.03556 0.0
H165 H 0.00941 0.42759 0.02699 0.0
H166 H 0.97217 0.41231 0.04756 0.0
H167 H 0.9939 0.4099 0.04447 0.0
H168 H 0.98581 0.42369 0.05983 0.0
H169 H 0.90578 0.48886 0.01802 0.0
H170 H 0.91882 0.52053 0.05869 0.0
H171 H 0.9422 0.50336 0.06486 0.0
H172 H 0.91297 0.45472 0.03659 0.0
H173 H 0.9097 0.4553 0.01477 0.0
H174 H 0.92413 0.44116 0.02402 0.0
H175 H 0.94303 0.48427 0.0045 0.0
H176 H 0.94519 0.46357 0.99858 0.0
H177 H 0.92527 0.4732 0.99745 0.0
H178 H 0.94425 0.41471 0.9845 0.0
C179 C 0.94905 0.43157 0.00423 0.0
C180 C 0.66977 0.7897 0.25418 0.0
C181 C 0.65853 0.77658 0.2528 0.0
C182 C 0.66071 0.76511 0.23995 0.0
C183 C 0.68464 0.77998 0.23011 0.0
C184 C 0.68266 0.79113 0.24278 0.0
C185 C 0.69567 0.8043 0.24254 0.0
H186 H 0.76213 0.83866 0.20579 0.0
C187 C 0.6991 0.78509 0.22027 0.0
C188 C 0.70564 0.79934 0.22753 0.0
H189 H 0.73772 0.85397 0.25056 0.0
H190 H 0.71847 0.83169 0.2479 0.0
H191 H 0.72963 0.83002 0.18536 0.0
H192 H 0.76178 0.7999 0.21478 0.0
H193 H 0.75682 0.7887 0.19699 0.0
H194 H 0.76777 0.80788 0.19509 0.0
H195 H 0.74988 0.82432 0.17865 0.0
H196 H 0.7323 0.8113 0.17492 0.0
C197 C 0.68703 0.8211 0.24008 0.0
C198 C 0.70583 0.80293 0.25862 0.0
C199 C 0.71585 0.75201 0.16977 0.0
C200 C 0.7284 0.75391 0.15796 0.0
C201 C 0.73917 0.76745 0.15941 0.0
C202 C 0.73756 0.77877 0.17234 0.0
C203 C 0.72501 0.77664 0.18404 0.0
C204 C 0.71437 0.76347 0.18259 0.0
C205 C 0.70163 0.7633 0.19603 0.0
C206 C 0.70644 0.77845 0.20584 0.0
C207 C 0.72018 0.78621 0.19878 0.0
C208 C 0.68447 0.76521 0.18793 0.0
C209 C 0.70385 0.7473 0.20614 0.0
C210 C 0.75275 0.83717 0.21512 0.0
C211 C 0.75148 0.84831 0.22835 0.0
C212 C 0.73887 0.84587 0.24006 0.0
C213 C 0.72774 0.83279 0.23857 0.0
C214 C 0.72916 0.82185 0.22528 0.0
C215 C 0.74157 0.82407 0.21389 0.0
C216 C 0.74139 0.81102 0.20075 0.0
C217 C 0.72682 0.80062 0.20614 0.0
C218 C 0.71964 0.80709 0.22047 0.0
C219 C 0.73826 0.81949 0.18397 0.0
C220 C 0.7578 0.80136 0.20177 0.0
H221 H 0.67458 0.75758 0.21919 0.0
H222 H 0.66846 0.79883 0.26379 0.0
H223 H 0.70658 0.78996 0.2629 0.0
H224 H 0.71878 0.80675 0.25702 0.0
H225 H 0.70019 0.81027 0.26868 0.0
H226 H 0.6768 0.82001 0.23106 0.0
H227 H 0.68174 0.82566 0.25183 0.0
H228 H 0.69524 0.83062 0.23498 0.0
H229 H 0.70744 0.74171 0.1692 0.0
H230 H 0.74876 0.76946 0.15039 0.0
H231 H 0.74613 0.78878 0.17267 0.0
H232 H 0.68508 0.77359 0.17712 0.0
H233 H 0.67973 0.75318 0.18356 0.0
H234 H 0.67529 0.77087 0.19618 0.0
H235 H 0.71709 0.74402 0.20723 0.0
H236 H 0.69949 0.74848 0.21895 0.0
H237 H 0.69745 0.7368 0.2002 0.0
H238 H 0.6525 0.7547 0.23871 0.0
C239 C 0.67364 0.76674 0.22864 0.0
C240 C 0.04221 0.91833 0.50403 0.0
C241 C 0.02902 0.90716 0.50296 0.0
C242 C 0.01746 0.9091 0.49016 0.0
C243 C 0.03215 0.93297 0.47995 0.0
C244 C 0.04347 0.93112 0.49251 0.0
C245 C 0.05649 0.94428 0.49213 0.0
H246 H 0.0877 0.01315 0.457 0.0
C247 C 0.03689 0.94759 0.47016 0.0
C248 C 0.05111 0.95432 0.4773 0.0
H249 H 0.10645 0.9863 0.49897 0.0
H250 H 0.08433 0.96678 0.49658 0.0
H251 H 0.04978 0.01086 0.4666 0.0
H252 H 0.07987 0.98069 0.43514 0.0
H253 H 0.06089 0.98353 0.42523 0.0
H254 H 0.07365 1.00112 0.42957 0.0
H255 H 0.05654 0.01765 0.44671 0.0
H256 H 0.03792 0.00587 0.44925 0.0
C257 C 0.05527 0.95428 0.50831 0.0
C258 C 0.07336 0.93587 0.4893 0.0
C259 C 1.00309 0.96397 0.41998 0.0
C260 C 0.00429 0.977 0.40861 0.0
C261 C 0.01702 0.98864 0.41068 0.0
C262 C 0.02837 0.98724 0.4236 0.0
C263 C 0.02707 0.97409 0.43473 0.0
C264 C 0.01452 0.96279 0.43288 0.0
C265 C 0.01486 0.9498 0.44608 0.0
C266 C 0.02981 0.95505 0.45601 0.0
C267 C 0.03694 0.96927 0.44927 0.0
C268 C 0.99874 0.95116 0.45619 0.0
C269 C 0.01751 0.9329 0.4377 0.0
C270 C 0.08715 1.00299 0.4656 0.0
C271 C 0.09889 1.00141 0.47826 0.0
C272 C 0.09748 0.98805 0.48928 0.0
C273 C 0.08465 0.97662 0.48781 0.0
C274 C 0.07301 0.97843 0.47515 0.0
C275 C 0.07441 0.99142 0.46428 0.0
C276 C 0.061 0.9913 0.4515 0.0
C277 C 0.05129 0.97615 0.45655 0.0
C278 C 0.05836 0.96868 0.47044 0.0
C279 C 0.05076 0.00726 0.45343 0.0
C280 C 0.06915 0.98917 0.4344 0.0
H281 H 0.00979 0.9226 0.46922 0.0
H282 H 0.0512 0.91732 0.51381 0.0
H283 H 0.07211 0.92512 0.48093 0.0
H284 H 0.08237 0.94398 0.48318 0.0
H285 H 0.07866 0.93137 0.50106 0.0
H286 H 0.04222 0.95568 0.5122 0.0
H287 H 0.06197 0.94805 0.51846 0.0
H288 H 0.05991 0.96697 0.50708 0.0
H289 H 0.9936 0.95471 0.41878 0.0
H290 H 0.01811 0.99901 0.40239 0.0
H291 H 0.03771 0.99652 0.42443 0.0
H292 H 0.9944 0.96412 0.45682 0.0
H293 H 0.98875 0.94374 0.45056 0.0
H294 H 1.00032 0.94743 0.46916 0.0
H295 H 0.0265 0.93395 0.42742 0.0
H296 H 0.02277 0.92358 0.44605 0.0
H297 H 0.00582 0.92811 0.43252 0.0
H298 H 0.00729 0.90058 0.48893 0.0
C299 C 0.01897 0.92187 0.47867 0.0
C300 C 0.2539 0.66765 0.79195 0.0
C301 C 0.25179 0.65567 0.77963 0.0
C302 C 0.23823 0.65704 0.76888 0.0
C303 C 0.22937 0.68201 0.78262 0.0
C304 C 0.24255 0.68059 0.79327 0.0
C305 C 0.24276 0.69408 0.80594 0.0
H306 H 0.20806 0.76283 0.83796 0.0
C307 C 0.21992 0.69689 0.78727 0.0
C308 C 0.22768 0.70397 0.801 0.0
H309 H 0.25099 0.73661 0.85532 0.0
H310 H 0.24826 0.7171 0.83318 0.0
H311 H 0.18615 0.73025 0.83002 0.0
H312 H 0.21714 0.76107 0.80014 0.0
H313 H 0.2003 0.75544 0.78787 0.0
H314 H 0.1969 0.76735 0.8063 0.0
H315 H 0.18088 0.75101 0.82465 0.0
H316 H 0.17583 0.73402 0.81138 0.0
C317 C 0.24074 0.68612 0.82315 0.0
C318 C 0.25883 0.70406 0.80372 0.0
C319 C 0.16968 0.7139 0.75384 0.0
C320 C 0.15889 0.72742 0.75479 0.0
C321 C 0.16127 0.73913 0.76737 0.0
C322 C 0.1741 0.73743 0.77877 0.0
C323 C 0.18481 0.7239 0.77763 0.0
C324 C 0.18255 0.71245 0.76527 0.0
C325 C 0.19537 0.69909 0.76574 0.0
C326 C 0.20567 0.7044 0.78042 0.0
C327 C 0.19936 0.71889 0.7874 0.0
C328 C 0.18656 0.68249 0.76888 0.0
C329 C 0.20528 0.6998 0.74947 0.0
C330 C 0.21679 0.7528 0.83709 0.0
C331 C 0.22976 0.75131 0.84848 0.0
C332 C 0.241 0.7382 0.84665 0.0
C333 C 0.23933 0.72679 0.83382 0.0
C334 C 0.22627 0.72841 0.8226 0.0
C335 C 0.2153 0.74129 0.82432 0.0
C336 C 0.20227 0.74116 0.81115 0.0
C337 C 0.20708 0.72595 0.80142 0.0
C338 C 0.22116 0.71853 0.80817 0.0
C339 C 0.18532 0.73912 0.81962 0.0
C340 C 0.20406 0.75709 0.80083 0.0
H341 H 0.21707 0.67048 0.76167 0.0
H342 H 0.26404 0.66683 0.80056 0.0
H343 H 0.26186 0.70546 0.79044 0.0
H344 H 0.25791 0.71674 0.80847 0.0
H345 H 0.26938 0.6978 0.80975 0.0
H346 H 0.2327 0.67507 0.82253 0.0
H347 H 0.2528 0.68217 0.82821 0.0
H348 H 0.23462 0.6943 0.8321 0.0
H349 H 0.16833 0.70479 0.74422 0.0
H350 H 0.15305 0.74956 0.7685 0.0
H351 H 0.17518 0.74675 0.78805 0.0
H352 H 0.17582 0.68416 0.77721 0.0
H353 H 0.18195 0.67709 0.75721 0.0
H354 H 0.19446 0.67341 0.77518 0.0
H355 H 0.20718 0.71276 0.74552 0.0
H356 H 0.21778 0.69463 0.75061 0.0
H357 H 0.19868 0.69333 0.73942 0.0
H358 H 0.23638 0.64807 0.75921 0.0
C359 C 0.22707 0.67012 0.77028 0.0
C360 C 0.91587 0.51079 0.47747 0.0
C361 C 0.912 0.49732 0.46728 0.0
C362 C 0.92196 0.49423 0.45341 0.0
C363 C 0.93924 0.51761 0.46008 0.0
C364 C 0.92948 0.52069 0.47367 0.0
C365 C 0.93539 0.53537 0.48329 0.0
H366 H 0.9895 0.59823 0.49199 0.0
C367 C 0.95246 0.53012 0.45966 0.0
C368 C 0.95028 0.54057 0.47325 0.0
H369 H 0.94848 0.58573 0.52344 0.0
H370 H 0.94206 0.56249 0.50616 0.0
H371 H 0.97072 0.59099 0.45697 0.0
H372 H 1.00249 0.562 0.48788 0.0
H373 H 0.00741 0.55697 0.46748 0.0
H374 H 0.0104 0.57777 0.47464 0.0
H375 H 0.99217 0.59543 0.45982 0.0
H376 H 0.98531 0.58114 0.44436 0.0
C377 C 0.92164 0.54856 0.48297 0.0
C378 C 0.94028 0.52949 0.50075 0.0
C379 C 0.99492 0.52909 0.41362 0.0
C380 C 0.00891 0.53874 0.41015 0.0
C381 C 0.0128 0.55182 0.42089 0.0
C382 C 1.00298 0.5553 0.43465 0.0
C383 C 0.98908 0.54556 0.4379 0.0
C384 C 0.98532 0.53264 0.42752 0.0
C385 C 0.97035 0.52333 0.43314 0.0
C386 C 0.96572 0.53281 0.44857 0.0
C387 C 0.97668 0.54589 0.45124 0.0
C388 C 0.957 0.52482 0.41962 0.0
C389 C 0.97563 0.50544 0.4371 0.0
C390 C 0.97905 0.59057 0.49506 0.0
C391 C 0.96946 0.59388 0.50909 0.0
C392 C 0.95615 0.58339 0.5128 0.0
C393 C 0.95238 0.56994 0.50268 0.0
C394 C 0.96205 0.56681 0.48869 0.0
C395 C 0.97518 0.577 0.48513 0.0
C396 C 0.98435 0.57153 0.46999 0.0
C397 C 0.97442 0.55654 0.46493 0.0
C398 C 0.96133 0.55386 0.47589 0.0
C399 C 0.98325 0.58547 0.45705 0.0
C400 C 1.00214 0.56691 0.47511 0.0
H401 H 0.94251 0.50124 0.439 0.0
H402 H 0.90862 0.51344 0.48832 0.0
H403 H 0.94563 0.5169 0.50036 0.0
H404 H 0.94995 0.53716 0.50641 0.0
H405 H 0.92943 0.52913 0.50905 0.0
H406 H 0.91546 0.54885 0.47076 0.0
H407 H 0.91209 0.54593 0.49238 0.0
H408 H 0.9263 0.56116 0.48482 0.0
H409 H 0.99139 0.51904 0.40564 0.0
H410 H 0.02363 0.55929 0.41883 0.0
H411 H 0.00665 0.5654 0.44228 0.0
H412 H 0.95718 0.53728 0.41397 0.0
H413 H 0.95907 0.51571 0.40965 0.0
H414 H 0.94438 0.52334 0.42442 0.0
H415 H 0.98832 0.50509 0.44222 0.0
H416 H 0.96792 0.49962 0.44665 0.0
H417 H 0.97549 0.49766 0.42587 0.0
H418 H 0.91916 0.48411 0.44521 0.0
C419 C 0.9355 0.50427 0.44976 0.0
C420 C 0.7932 0.7536 0.83882 0.0
C421 C 0.78057 0.75543 0.85053 0.0
C422 C 0.76945 0.76865 0.84882 0.0
C423 C 0.78342 0.77771 0.82405 0.0
C424 C 0.79442 0.76486 0.82578 0.0
C425 C 0.80727 0.76483 0.81243 0.0
H426 H 0.83791 0.79828 0.7424 0.0
C427 C 0.78796 0.78705 0.80908 0.0
C428 C 0.80194 0.77956 0.80221 0.0
H429 H 0.8574 0.75755 0.77048 0.0
H430 H 0.83529 0.76025 0.79012 0.0
H431 H 0.82991 0.82096 0.77383 0.0
H432 H 0.79974 0.78808 0.74533 0.0
H433 H 0.78771 0.80542 0.74993 0.0
H434 H 0.80609 0.80778 0.7377 0.0
H435 H 0.82346 0.82558 0.75322 0.0
H436 H 0.81082 0.83061 0.77073 0.0
C437 C 0.82432 0.76754 0.82053 0.0
C438 C 0.80569 0.74854 0.80271 0.0
C439 C 0.75375 0.83654 0.79156 0.0
C440 C 0.75446 0.84714 0.77789 0.0
C441 C 0.76678 0.84458 0.76594 0.0
C442 C 0.77827 0.83182 0.76763 0.0
C443 C 0.77745 0.82137 0.78139 0.0
C444 C 0.76525 0.82374 0.79299 0.0
C445 C 0.76595 0.81111 0.80652 0.0
C446 C 0.78074 0.80095 0.80127 0.0
C447 C 0.78749 0.80707 0.78658 0.0
C448 C 0.76906 0.82019 0.82298 0.0
C449 C 0.7498 0.801 0.80603 0.0
C450 C 0.83732 0.78986 0.75271 0.0
C451 C 0.84942 0.77766 0.75487 0.0
C452 C 0.84833 0.76714 0.76861 0.0
C453 C 0.83544 0.76869 0.77998 0.0
C454 C 0.82348 0.78098 0.77771 0.0
C455 C 0.8246 0.79137 0.76429 0.0
C456 C 0.81108 0.80403 0.76414 0.0
C457 C 0.80168 0.79952 0.77965 0.0
C458 C 0.80893 0.78593 0.78749 0.0
C459 C 0.8191 0.82126 0.76543 0.0
C460 C 0.8006 0.80137 0.74844 0.0
H461 H 0.7619 0.78948 0.83508 0.0
H462 H 0.8021 0.74374 0.83988 0.0
H463 H 0.79252 0.74538 0.80072 0.0
H464 H 0.81112 0.74918 0.79029 0.0
H465 H 0.81147 0.7382 0.80952 0.0
H466 H 0.82327 0.77521 0.83182 0.0
H467 H 0.83003 0.75566 0.82414 0.0
H468 H 0.83292 0.77438 0.81253 0.0
H469 H 0.74429 0.83801 0.80083 0.0
H470 H 0.76768 0.85264 0.75537 0.0
H471 H 0.78737 0.8306 0.75816 0.0
H472 H 0.77768 0.83067 0.82118 0.0
H473 H 0.75743 0.82521 0.82811 0.0
H474 H 0.77501 0.81234 0.83234 0.0
H475 H 0.74539 0.79944 0.79316 0.0
H476 H 0.75133 0.78834 0.81069 0.0
H477 H 0.73988 0.8072 0.81308 0.0
H478 H 0.75951 0.77028 0.85755 0.0
C479 C 0.77079 0.77975 0.83568 0.0
C480 C 0.29282 0.25278 0.33848 0.0
C481 C 0.2802 0.25467 0.3502 0.0
C482 C 0.26911 0.26791 0.34847 0.0
C483 C 0.28305 0.27684 0.32363 0.0
C484 C 0.29404 0.26398 0.3254 0.0
C485 C 0.30685 0.26387 0.31202 0.0
H486 H 0.33695 0.29662 0.24149 0.0
C487 C 0.28755 0.28609 0.30859 0.0
C488 C 0.3015 0.27854 0.30173 0.0
H489 H 0.357 0.25653 0.27026 0.0
H490 H 0.33485 0.25921 0.2897 0.0
H491 H 0.32921 0.31979 0.27307 0.0
H492 H 0.29931 0.2866 0.24466 0.0
H493 H 0.28703 0.30373 0.24937 0.0
H494 H 0.30528 0.30643 0.23702 0.0
H495 H 0.32298 0.3241 0.25233 0.0
H496 H 0.31015 0.3294 0.26962 0.0
C497 C 0.32393 0.26662 0.32006 0.0
C498 C 0.30525 0.24752 0.3024 0.0
C499 C 0.25332 0.33548 0.29082 0.0
C500 C 0.25392 0.34589 0.277 0.0
C501 C 0.26612 0.34316 0.26497 0.0
C502 C 0.27762 0.33042 0.26674 0.0
C503 C 0.27693 0.32017 0.28065 0.0
C504 C 0.26481 0.32268 0.29232 0.0
C505 C 0.26557 0.31017 0.30595 0.0
C506 C 0.28031 0.29993 0.30071 0.0
C507 C 0.28698 0.30591 0.28593 0.0
C508 C 0.2688 0.31937 0.32232 0.0
C509 C 0.24939 0.30009 0.30564 0.0
C510 C 0.33671 0.28849 0.25204 0.0
C511 C 0.34883 0.27626 0.25416 0.0
C512 C 0.34775 0.26585 0.26803 0.0
C513 C 0.33492 0.26751 0.27945 0.0
C514 C 0.32297 0.27979 0.27714 0.0
C515 C 0.32405 0.29008 0.26366 0.0
C516 C 0.3105 0.30271 0.26343 0.0
C517 C 0.30115 0.29832 0.27901 0.0
C518 C 0.30844 0.2848 0.28693 0.0
C519 C 0.3185 0.31996 0.26456 0.0
C520 C 0.29997 0.29991 0.24779 0.0
H521 H 0.26157 0.2887 0.33466 0.0
H522 H 0.3017 0.24291 0.33957 0.0
H523 H 0.29207 0.24438 0.30042 0.0
H524 H 0.3107 0.24807 0.28999 0.0
H525 H 0.311 0.23721 0.30929 0.0
H526 H 0.3229 0.27432 0.33134 0.0
H527 H 0.32967 0.25477 0.32367 0.0
H528 H 0.33248 0.27347 0.31202 0.0
H529 H 0.24394 0.3371 0.30015 0.0
H530 H 0.2669 0.35105 0.25427 0.0
H531 H 0.28663 0.32906 0.25719 0.0
H532 H 0.27752 0.32974 0.3204 0.0
H533 H 0.25722 0.32457 0.3274 0.0
H534 H 0.27465 0.31156 0.33175 0.0
H535 H 0.24484 0.29853 0.29282 0.0
H536 H 0.25095 0.28743 0.31029 0.0
H537 H 0.23955 0.30631 0.31279 0.0
H538 H 0.25918 0.26958 0.3572 0.0
C539 C 0.27045 0.27895 0.33528 0.0
C540 C 0.47666 0.9126 0.51225 0.0
C541 C 0.46628 0.90848 0.49901 0.0
C542 C 0.45235 0.91837 0.49592 0.0
C543 C 0.45938 0.9361 0.51888 0.0
C544 C 0.47295 0.92634 0.52201 0.0
C545 C 0.48251 0.93221 0.53675 0.0
H546 H 0.49217 0.98732 0.59858 0.0
C547 C 0.45908 0.9495 0.53123 0.0
C548 C 0.4726 0.94725 0.54176 0.0
H549 H 0.5218 0.94444 0.58795 0.0
H550 H 0.50458 0.93807 0.56467 0.0
H551 H 0.45722 0.96988 0.59215 0.0
H552 H 0.48846 0.99926 0.5611 0.0
H553 H 0.4681 0.00508 0.5569 0.0
H554 H 0.47635 0.0081 0.5773 0.0
H555 H 0.46001 0.99157 0.59516 0.0
H556 H 0.44459 0.9837 0.58132 0.0
C557 C 0.48197 0.91855 0.55004 0.0
C558 C 0.50005 0.93687 0.53096 0.0
C559 C 0.41406 0.99307 0.52914 0.0
C560 C 0.41097 0.0073 0.53851 0.0
C561 C 0.42174 0.01123 0.55153 0.0
C562 C 0.43528 1.00119 0.55521 0.0
C563 C 0.43821 0.98702 0.54575 0.0
C564 C 0.42774 0.98321 0.5329 0.0
C565 C 0.43302 0.9679 0.52393 0.0
C566 C 0.44829 0.96307 0.53359 0.0
C567 C 0.45123 0.97429 0.54641 0.0
C568 C 0.41916 0.95494 0.52563 0.0
C569 C 0.43719 0.97269 0.50596 0.0
C570 C 0.49503 0.97663 0.59115 0.0
C571 C 0.50839 0.96636 0.59518 0.0
C572 C 0.51149 0.95245 0.58528 0.0
C573 C 0.5015 0.94881 0.57169 0.0
C574 C 0.48816 0.95913 0.5679 0.0
C575 C 0.4851 0.97277 0.57757 0.0
C576 C 0.47024 0.98221 0.57181 0.0
C577 C 0.46484 0.97195 0.55715 0.0
C578 C 0.47543 0.95848 0.55487 0.0
C579 C 0.45729 0.982 0.58579 0.0
C580 C 0.47593 0.99963 0.56658 0.0
H581 H 0.43813 0.93915 0.50267 0.0
H582 H 0.48733 0.90514 0.51512 0.0
H583 H 0.49961 0.94316 0.51881 0.0
H584 H 0.50624 0.94564 0.53926 0.0
H585 H 0.50789 0.92576 0.52961 0.0
H586 H 0.47018 0.91161 0.54948 0.0
H587 H 0.49213 0.90958 0.54833 0.0
H588 H 0.48244 0.92346 0.5627 0.0
H589 H 0.40616 0.9898 0.51893 0.0
H590 H 0.41956 0.02202 0.55904 0.0
H591 H 0.44293 0.00485 0.56531 0.0
H592 H 0.41327 0.9557 0.53796 0.0
H593 H 0.40942 0.9569 0.51625 0.0
H594 H 0.4237 0.94218 0.52471 0.0
H595 H 0.44305 0.98504 0.50545 0.0
H596 H 0.44619 0.96434 0.50017 0.0
H597 H 0.42591 0.97314 0.49825 0.0
H598 H 0.44424 0.91558 0.48573 0.0
C599 C 0.44887 0.93213 0.50573 0.0
C600 C 0.16966 0.28961 0.75346 0.0
C601 C 0.15886 0.27612 0.75243 0.0
C602 C 0.16124 0.26447 0.73979 0.0
C603 C 0.18468 0.27981 0.72952 0.0
C604 C 0.18246 0.29116 0.74198 0.0
C605 C 0.19522 0.30457 0.74153 0.0
H606 H 0.26297 0.33777 0.70602 0.0
C607 C 0.19903 0.28505 0.71958 0.0
C608 C 0.2053 0.29954 0.7266 0.0
H609 H 0.2363 0.35525 0.74865 0.0
H610 H 0.21712 0.33287 0.74605 0.0
H611 H 0.23121 0.3306 0.68457 0.0
H612 H 0.26087 0.29876 0.71476 0.0
H613 H 0.25694 0.28866 0.696 0.0
H614 H 0.26808 0.30779 0.69593 0.0
H615 H 0.25069 0.32288 0.67765 0.0
H616 H 0.23187 0.31148 0.67459 0.0
C617 C 0.18628 0.32117 0.73879 0.0
C618 C 0.20538 0.30363 0.75764 0.0
C619 C 0.21615 0.25173 0.66937 0.0
C620 C 0.22835 0.254 0.6573 0.0
C621 C 0.2389 0.2677 0.65852 0.0
C622 C 0.23738 0.27892 0.67155 0.0
C623 C 0.2251 0.27653 0.68349 0.0
C624 C 0.21467 0.26317 0.68221 0.0
C625 C 0.20196 0.26293 0.69568 0.0
C626 C 0.20653 0.2783 0.70529 0.0
C627 C 0.22017 0.28614 0.69816 0.0
C628 C 0.18474 0.26442 0.68763 0.0
C629 C 0.20452 0.24711 0.70599 0.0
C630 C 0.25294 0.33688 0.71473 0.0
C631 C 0.25133 0.34832 0.72766 0.0
C632 C 0.23811 0.3465 0.73877 0.0
C633 C 0.22687 0.33352 0.73718 0.0
C634 C 0.22874 0.32214 0.72431 0.0
C635 C 0.24156 0.32399 0.71329 0.0
C636 C 0.24147 0.31086 0.70023 0.0
C637 C 0.22666 0.30068 0.70539 0.0
C638 C 0.21926 0.30735 0.71952 0.0
C639 C 0.2388 0.31927 0.68332 0.0
C640 C 0.2577 0.30098 0.70163 0.0
H641 H 0.17511 0.25699 0.71902 0.0
H642 H 0.16833 0.29866 0.76315 0.0
H643 H 0.20693 0.29065 0.7617 0.0
H644 H 0.21804 0.30832 0.75622 0.0
H645 H 0.1992 0.31041 0.76776 0.0
H646 H 0.17572 0.31966 0.73022 0.0
H647 H 0.1814 0.32613 0.75055 0.0
H648 H 0.19418 0.33055 0.73297 0.0
H649 H 0.20772 0.24145 0.66865 0.0
H650 H 0.24846 0.26966 0.64945 0.0
H651 H 0.24584 0.28903 0.67181 0.0
H652 H 0.18516 0.27267 0.67671 0.0
H653 H 0.18021 0.25224 0.68344 0.0
H654 H 0.17549 0.27002 0.69583 0.0
H655 H 0.21783 0.2441 0.70708 0.0
H656 H 0.20017 0.24835 0.71879 0.0
H657 H 0.19833 0.23641 0.70018 0.0
H658 H 0.15302 0.25406 0.7386 0.0
C659 C 0.17403 0.26625 0.72836 0.0
C660 C 0.76111 0.16457 0.72756 0.0
C661 C 0.74674 0.16153 0.71838 0.0
C662 C 0.7426 0.17238 0.70549 0.0
C663 C 0.76687 0.18883 0.71105 0.0
C664 C 0.77089 0.17827 0.72376 0.0
C665 C 0.78631 0.18351 0.73256 0.0
H666 H 0.84912 0.23774 0.74092 0.0
C667 C 0.77955 0.20188 0.71033 0.0
C668 C 0.79095 0.19887 0.72297 0.0
H669 H 0.8391 0.19443 0.77011 0.0
H670 H 0.81529 0.18849 0.75347 0.0
H671 H 0.81114 0.25008 0.73808 0.0
H672 H 0.84184 0.22087 0.70629 0.0
H673 H 0.83 0.23374 0.69362 0.0
H674 H 0.84427 0.24273 0.70805 0.0
H675 H 0.82817 0.25852 0.72684 0.0
H676 H 0.80801 0.25683 0.71776 0.0
C677 C 0.78176 0.1875 0.75064 0.0
C678 C 0.7993 0.1697 0.73056 0.0
C679 C 0.77635 0.24602 0.66602 0.0
C680 C 0.78635 0.25961 0.66209 0.0
C681 C 0.80032 0.26276 0.6719 0.0
C682 C 0.80427 0.25262 0.6853 0.0
C683 C 0.79419 0.23908 0.68901 0.0
C684 C 0.78049 0.23598 0.67943 0.0
C685 C 0.77121 0.22104 0.68519 0.0
C686 C 0.78168 0.21559 0.69969 0.0
C687 C 0.79512 0.22622 0.7019 0.0
C688 C 0.7538 0.22657 0.69065 0.0
C689 C 0.77136 0.20821 0.6711 0.0
C690 C 0.84171 0.22706 0.74381 0.0
C691 C 0.84603 0.21656 0.75689 0.0
C692 C 0.83618 0.20263 0.76002 0.0
C693 C 0.82228 0.19925 0.75038 0.0
C694 C 0.8181 0.20986 0.73739 0.0
C695 C 0.82781 0.22345 0.73423 0.0
C696 C 0.82166 0.23317 0.7197 0.0
C697 C 0.80655 0.22331 0.71482 0.0
C698 C 0.80451 0.20968 0.72525 0.0
C699 C 0.81707 0.25063 0.72576 0.0
C700 C 0.8351 0.23279 0.70618 0.0
H701 H 0.74874 0.19367 0.69177 0.0
H702 H 0.76454 0.1566 0.73768 0.0
H703 H 0.79839 0.16393 0.71818 0.0
H704 H 0.81206 0.17426 0.73133 0.0
H705 H 0.7975 0.15987 0.73987 0.0
H706 H 0.76936 0.19325 0.75139 0.0
H707 H 0.78154 0.17618 0.75828 0.0
H708 H 0.79012 0.19653 0.75636 0.0
H709 H 0.76541 0.24332 0.65892 0.0
H710 H 0.8084 0.27297 0.66908 0.0
H711 H 0.81509 0.25568 0.69221 0.0
H712 H 0.7541 0.23915 0.69604 0.0
H713 H 0.74515 0.22683 0.68008 0.0
H714 H 0.74861 0.21876 0.70048 0.0
H715 H 0.78346 0.20817 0.6647 0.0
H716 H 0.76966 0.19548 0.67547 0.0
H717 H 0.76176 0.21103 0.66179 0.0
H718 H 0.73171 0.17025 0.69812 0.0
C719 C 0.75257 0.18595 0.70177 0.0
C720 C 0.54107 0.5867 0.50449 0.0
C721 C 0.52793 0.59793 0.5058 0.0
C722 C 0.51657 0.59597 0.51879 0.0
C723 C 0.53137 0.57199 0.52867 0.0
C724 C 0.54253 0.5739 0.51599 0.0
C725 C 0.55576 0.56094 0.51635 0.0
H726 H 0.58819 0.49251 0.55144 0.0
C727 C 0.53638 0.55748 0.53849 0.0
C728 C 0.55069 0.55095 0.53132 0.0
H729 H 0.60657 0.51972 0.50964 0.0
H730 H 0.58423 0.53912 0.51216 0.0
H731 H 0.58101 0.52358 0.57315 0.0
H732 H 0.54885 0.49528 0.54206 0.0
H733 H 0.53863 0.49903 0.56079 0.0
H734 H 0.55755 0.48749 0.56081 0.0
H735 H 0.5728 0.50414 0.57959 0.0
H736 H 0.56179 0.52314 0.58295 0.0
C737 C 0.57255 0.56959 0.51892 0.0
C738 C 0.55452 0.55078 0.50028 0.0
C739 C 0.50268 0.54035 0.58846 0.0
C740 C 0.50458 0.52779 0.60023 0.0
C741 C 0.51794 0.51683 0.59869 0.0
C742 C 0.52919 0.51831 0.58569 0.0
C743 C 0.52718 0.53096 0.57408 0.0
C744 C 0.51413 0.54176 0.57562 0.0
C745 C 0.51422 0.55473 0.56239 0.0
C746 C 0.52946 0.54993 0.55267 0.0
C747 C 0.53694 0.53593 0.55951 0.0
C748 C 0.51618 0.57174 0.57076 0.0
C749 C 0.49831 0.5528 0.55208 0.0
C750 C 0.58727 0.50257 0.54275 0.0
C751 C 0.59911 0.50455 0.53028 0.0
C752 C 0.59767 0.51799 0.51941 0.0
C753 C 0.58464 0.52921 0.52086 0.0
C754 C 0.57292 0.5271 0.53339 0.0
C755 C 0.57442 0.51402 0.54415 0.0
C756 C 0.56118 0.51411 0.55711 0.0
C757 C 0.55134 0.52923 0.55218 0.0
C758 C 0.55822 0.53674 0.53822 0.0
C759 C 0.56951 0.51623 0.57415 0.0
C760 C 0.551 0.49813 0.55527 0.0
H761 H 0.50917 0.58237 0.53976 0.0
H762 H 0.54994 0.58769 0.4946 0.0
H763 H 0.54142 0.54866 0.4969 0.0
H764 H 0.55993 0.53838 0.50138 0.0
H765 H 0.56049 0.5573 0.48987 0.0
H766 H 0.57117 0.58076 0.5267 0.0
H767 H 0.57796 0.5735 0.507 0.0
H768 H 0.58153 0.56186 0.52557 0.0
H769 H 0.49267 0.5491 0.58941 0.0
H770 H 0.51961 0.50697 0.60749 0.0
H771 H 0.53903 0.50954 0.5852 0.0
H772 H 0.52417 0.57085 0.58184 0.0
H773 H 0.50409 0.57669 0.57476 0.0
H774 H 0.52231 0.58088 0.56281 0.0
H775 H 0.49516 0.53959 0.55047 0.0
H776 H 0.49952 0.55767 0.53947 0.0
H777 H 0.48772 0.55888 0.55821 0.0
H778 H 0.50648 0.60454 0.5203 0.0
C779 C 0.51821 0.58311 0.53018 0.0
C780 C 0.54349 0.418 0.00354 0.0
C781 C 0.53035 0.40676 1.00246 0.0
C782 C 0.5186 0.40892 0.98984 0.0
C783 C 0.53321 0.43288 0.9797 0.0
C784 C 0.54463 0.43092 0.99214 0.0
C785 C 0.55772 0.44401 0.99171 0.0
H786 H 0.58915 0.51267 0.95641 0.0
C787 C 0.53798 0.44747 0.96988 0.0
C788 C 0.55232 0.45408 0.97691 0.0
H789 H 0.60769 0.48599 0.99858 0.0
H790 H 0.58559 0.46645 0.99615 0.0
H791 H 0.55078 0.51017 0.9658 0.0
H792 H 0.5818 0.48054 0.93475 0.0
H793 H 0.56268 0.48219 0.92486 0.0
H794 H 0.57466 0.50049 0.92858 0.0
H795 H 0.55848 0.51727 0.94636 0.0
H796 H 0.53966 0.50565 0.94781 0.0
C797 C 0.55663 0.45399 0.00791 0.0
C798 C 0.57454 0.43553 0.98877 0.0
C799 C 0.50409 0.464 0.9198 0.0
C800 C 0.50568 0.47668 0.90811 0.0
C801 C 0.51879 0.48794 0.90976 0.0
C802 C 0.53011 0.48656 0.92271 0.0
C803 C 0.52842 0.47377 0.93421 0.0
C804 C 0.51557 0.46276 0.93265 0.0
C805 C 0.51579 0.44987 0.94596 0.0
C806 C 0.53093 0.45492 0.9557 0.0
C807 C 0.53826 0.46895 0.94878 0.0
C808 C 0.49982 0.45163 0.95621 0.0
C809 C 0.51802 0.43286 0.93768 0.0
C810 C 0.58856 0.50256 0.96505 0.0
C811 C 0.60023 0.50103 0.97779 0.0
C812 C 0.59877 0.48771 0.98884 0.0
C813 C 0.58595 0.47628 0.98735 0.0
C814 C 0.57436 0.47805 0.97464 0.0
C815 C 0.57583 0.49099 0.96371 0.0
C816 C 0.56249 0.49081 0.95086 0.0
C817 C 0.55268 0.47574 0.95598 0.0
C818 C 0.55969 0.46833 0.96994 0.0
C819 C 0.55231 0.50682 0.95262 0.0
C820 C 0.57071 0.48851 0.93381 0.0
H821 H 0.51062 0.42276 0.96923 0.0
H822 H 0.55285 0.41671 0.01293 0.0
H823 H 0.57321 0.42488 0.98029 0.0
H824 H 0.5836 0.44365 0.98275 0.0
H825 H 0.57981 0.43087 1.00049 0.0
H826 H 0.54362 0.45533 0.01196 0.0
H827 H 0.56349 0.4478 0.01798 0.0
H828 H 0.56117 0.46672 0.00662 0.0
H829 H 0.49429 0.45504 0.91884 0.0
H830 H 0.5202 0.49797 0.90111 0.0
H831 H 0.53975 0.49554 0.92326 0.0
H832 H 0.49598 0.46474 0.9571 0.0
H833 H 0.48952 0.44469 0.95053 0.0
H834 H 0.50134 0.4476 0.9691 0.0
H835 H 0.52671 0.4337 0.92713 0.0
H836 H 0.52346 0.42358 0.94596 0.0
H837 H 0.50613 0.42813 0.9329 0.0
H838 H 0.50816 0.40072 0.98883 0.0
C839 C 0.51997 0.42185 0.9785 0.0
C840 C 0.75421 0.16867 0.29142 0.0
C841 C 0.75216 0.15669 0.27904 0.0
C842 C 0.73836 0.15792 0.26855 0.0
C843 C 0.72935 0.18271 0.2825 0.0
C844 C 0.74268 0.18142 0.29296 0.0
C845 C 0.74288 0.1949 0.30566 0.0
H846 H 0.70767 0.26314 0.33825 0.0
C847 C 0.71978 0.19746 0.2873 0.0
C848 C 0.72761 0.20461 0.30094 0.0
H849 H 0.75116 0.2375 0.35504 0.0
H850 H 0.74844 0.21798 0.33289 0.0
H851 H 0.68607 0.23029 0.33038 0.0
H852 H 0.7164 0.26166 0.30042 0.0
H853 H 0.69963 0.25578 0.28819 0.0
H854 H 0.69608 0.2676 0.30665 0.0
H855 H 0.68054 0.25104 0.32522 0.0
H856 H 0.67552 0.2341 0.31187 0.0
C857 C 0.74119 0.18687 0.32287 0.0
C858 C 0.75879 0.20509 0.30326 0.0
C859 C 0.6692 0.21416 0.25422 0.0
C860 C 0.65833 0.2276 0.25526 0.0
C861 C 0.66065 0.23926 0.2679 0.0
C862 C 0.67353 0.2376 0.27926 0.0
C863 C 0.68434 0.22417 0.27801 0.0
C864 C 0.68211 0.21275 0.26561 0.0
C865 C 0.69505 0.19949 0.26596 0.0
C866 C 0.70539 0.20484 0.28059 0.0
C867 C 0.699 0.21925 0.28766 0.0
C868 C 0.6864 0.18281 0.26909 0.0
C869 C 0.70484 0.20035 0.24963 0.0
C870 C 0.71652 0.25323 0.33726 0.0
C871 C 0.72964 0.2519 0.34849 0.0
C872 C 0.74104 0.23896 0.3465 0.0
C873 C 0.73937 0.22754 0.33367 0.0
C874 C 0.72616 0.229 0.32261 0.0
C875 C 0.71504 0.24173 0.32448 0.0
C876 C 0.70189 0.24149 0.31144 0.0
C877 C 0.70678 0.22636 0.30162 0.0
C878 C 0.72101 0.21909 0.30821 0.0
C879 C 0.68505 0.23922 0.32005 0.0
C880 C 0.70339 0.25746 0.30114 0.0
H881 H 0.71684 0.171 0.26179 0.0
H882 H 0.76467 0.16828 0.29966 0.0
H883 H 0.76165 0.20654 0.28995 0.0
H884 H 0.75775 0.21776 0.30804 0.0
H885 H 0.76949 0.19898 0.30917 0.0
H886 H 0.73321 0.17577 0.32234 0.0
H887 H 0.75336 0.18298 0.32772 0.0
H888 H 0.73517 0.19498 0.33195 0.0
H889 H 0.66788 0.20508 0.24457 0.0
H890 H 0.65236 0.24963 0.2691 0.0
H891 H 0.67456 0.24688 0.28858 0.0
H892 H 0.67557 0.18438 0.27732 0.0
H893 H 0.68195 0.17729 0.25741 0.0
H894 H 0.69435 0.17386 0.27552 0.0
H895 H 0.70674 0.21335 0.24579 0.0
H896 H 0.71733 0.19513 0.25061 0.0
H897 H 0.69816 0.19399 0.23955 0.0
H898 H 0.73616 0.14876 0.25915 0.0
C899 C 0.72702 0.17083 0.27018 0.0
C900 C 0.41499 0.01209 0.97627 0.0
C901 C 0.41083 0.99892 0.96582 0.0
C902 C 0.42078 0.99583 0.95193 0.0
C903 C 0.43849 0.01875 0.95901 0.0
C904 C 0.42878 0.02181 0.97263 0.0
C905 C 0.43482 0.03637 0.98235 0.0
H906 H 0.48931 0.09888 0.99128 0.0
C907 C 0.45184 0.03113 0.95869 0.0
C908 C 0.44974 0.04151 0.97233 0.0
H909 H 0.44832 0.0864 0.02279 0.0
H910 H 0.44174 0.06328 0.0054 0.0
H911 H 0.47048 0.09209 0.95644 0.0
H912 H 0.50203 0.06229 0.98683 0.0
H913 H 0.50707 0.05788 0.96631 0.0
H914 H 0.50998 0.07846 0.97409 0.0
H915 H 0.49205 0.09612 0.95895 0.0
H916 H 0.48465 0.08202 0.94355 0.0
C917 C 0.42118 0.04968 0.98216 0.0
C918 C 0.43968 0.0303 0.99976 0.0
C919 C 0.49445 0.02978 0.91281 0.0
C920 C 0.50837 0.03947 0.90926 0.0
C921 C 0.51219 0.05269 0.91986 0.0
C922 C 0.50239 0.0562 0.93362 0.0
C923 C 0.48856 0.0464 0.93697 0.0
C924 C 0.48482 0.03342 0.92666 0.0
C925 C 0.46976 0.02421 0.93224 0.0
C926 C 0.46511 0.03377 0.94761 0.0
C927 C 0.47613 0.0468 0.9503 0.0
C928 C 0.45649 0.02574 0.91863 0.0
C929 C 0.47492 0.00632 0.93628 0.0
C930 C 0.47883 0.09124 0.99434 0.0
C931 C 0.4693 0.09452 0.00842 0.0
C932 C 0.45595 0.08407 0.01211 0.0
C933 C 0.4521 0.07069 1.00194 0.0
C934 C 0.4617 0.0676 0.98789 0.0
C935 C 0.47488 0.07774 0.98435 0.0
C936 C 0.48397 0.07231 0.96915 0.0
C937 C 0.47395 0.0574 0.96403 0.0
C938 C 0.46087 0.05473 0.97502 0.0
C939 C 0.4829 0.08633 0.9563 0.0
C940 C 0.50174 0.06757 0.9742 0.0
H941 H 0.44157 1.00258 0.93775 0.0
H942 H 0.40755 0.01494 0.98695 0.0
H943 H 0.44499 0.0177 0.99925 0.0
H944 H 0.44937 0.03789 0.0055 0.0
H945 H 0.42882 0.02989 0.00805 0.0
H946 H 0.41495 0.05007 0.96998 0.0
H947 H 0.41165 0.04709 0.99161 0.0
H948 H 0.42596 0.06223 0.98404 0.0
H949 H 0.49098 0.01966 0.9049 0.0
H950 H 0.52295 0.06022 0.91766 0.0
H951 H 0.50601 0.0664 0.94116 0.0
H952 H 0.45706 0.03802 0.91261 0.0
H953 H 0.45828 0.0163 0.90893 0.0
H954 H 0.44382 0.02484 0.92344 0.0
H955 H 0.48743 0.00597 0.94184 0.0
H956 H 0.46688 1.00042 0.9455 0.0
H957 H 0.4752 0.99861 0.925 0.0
H958 H 0.41804 0.98565 0.94379 0.0
C959 C 0.43453 0.00563 0.94849 0.0
Li960 Li 0.26873 0.88873 0.99787 0.0
Li961 Li 0.2576 0.86798 0.0172 0.0
Li962 Li 0.25179 0.86732 0.98772 0.0
Li963 Li 0.23953 0.88935 0.00506 0.0
C964 C 0.28065 0.85259 0.98988 0.0
N965 N 0.29407 0.82749 0.97124 0.0
C966 C 0.28329 0.83709 0.99683 0.0
C967 C 0.2852 0.85539 0.97353 0.0
C968 C 0.29 0.82455 0.98719 0.0
C969 C 0.29184 0.84254 0.96428 0.0
C970 C 0.27 0.89793 0.03088 0.0
C971 C 0.2784 0.91617 0.05271 0.0
N972 N 0.29356 0.90909 0.05269 0.0
C973 C 0.28568 0.89084 0.03107 0.0
C974 C 0.26633 0.91072 0.04176 0.0
C975 C 0.29742 0.89665 0.04219 0.0
C976 C 0.2856 0.91923 0.99706 0.0
N977 N 0.28718 0.90292 0.99371 0.0
C978 C 0.31498 0.90694 0.98493 0.0
C979 C 0.30154 0.89663 0.98789 0.0
C980 C 0.31367 0.9239 0.98807 0.0
C981 C 0.29871 0.92998 0.99426 0.0
H982 H 0.2741 0.92388 1.00187 0.0
H983 H 0.30263 0.88359 0.98565 0.0
C984 C 0.25777 0.83797 0.0347 0.0
N985 N 0.26047 0.85438 0.03653 0.0
C986 C 0.26005 0.82719 0.04792 0.0
C987 C 0.26697 0.85045 0.065 0.0
C988 C 0.26454 0.86076 0.05146 0.0
C989 C 0.26496 0.83337 0.06331 0.0
H990 H 0.25397 0.83322 0.02286 0.0
H991 H 0.26584 0.87384 0.05302 0.0
C992 C 0.25432 0.90433 0.97356 0.0
N993 N 0.26481 0.93134 0.95574 0.0
C994 C 0.24783 0.91991 0.97681 0.0
C995 C 0.26597 0.90247 0.96104 0.0
C996 C 0.25332 0.93341 0.96771 0.0
C997 C 0.27118 0.91627 0.95224 0.0
C998 C 0.22433 0.86128 0.01789 0.0
C999 C 0.21322 0.84846 0.01517 0.0
C1000 C 0.2236 0.87022 0.03256 0.0
C1001 C 0.20148 0.84483 0.02718 0.0
C1002 C 0.21168 0.86621 0.04426 0.0
N1003 N 0.20095 0.85371 0.04135 0.0
C1004 C 0.24573 0.83631 0.97284 0.0
C1005 C 0.2469 0.85863 0.95414 0.0
C1006 C 0.24342 0.82522 0.95989 0.0
N1007 N 0.24756 0.85264 0.96974 0.0
C1008 C 0.24465 0.84798 0.94083 0.0
C1009 C 0.24296 0.831 0.94358 0.0
H1010 H 0.24634 0.83188 0.98538 0.0
H1011 H 0.24822 0.87167 0.952 0.0
C1012 C 0.22303 0.91798 0.01605 0.0
N1013 N 0.2207 0.90297 0.00911 0.0
C1014 C 0.2097 0.9285 0.01876 0.0
C1015 C 0.19168 0.90773 0.00754 0.0
C1016 C 0.20541 0.89769 0.00486 0.0
C1017 C 0.1937 0.92347 0.01448 0.0
H1018 H 0.23535 0.92196 0.01912 0.0
H1019 H 0.20388 0.88568 0.99937 0.0
O1020 O 0.27376 0.86495 0.99903 0.0
O1021 O 0.25842 0.8927 0.01985 0.0
O1022 O 0.24933 0.89102 0.9826 0.0
O1023 O 0.23599 0.86484 0.00629 0.0
H1024 H 0.28031 0.83477 0.00956 0.0
H1025 H 0.28342 0.86731 0.96798 0.0
H1026 H 0.29202 0.81248 0.99242 0.0
H1027 H 0.29521 0.84452 0.95156 0.0
H1028 H 0.27572 0.92605 0.06121 0.0
H1029 H 0.28878 0.88094 0.02275 0.0
H1030 H 0.25427 0.91635 0.04179 0.0
H1031 H 0.30959 0.89128 0.04247 0.0
H1032 H 0.32634 0.90163 0.98045 0.0
H1033 H 0.29705 0.94296 0.99674 0.0
H1034 H 0.25831 0.81414 0.046 0.0
H1035 H 0.27026 0.85584 0.07673 0.0
H1036 H 0.2387 0.92162 0.98629 0.0
H1037 H 0.27107 0.89055 0.95822 0.0
H1038 H 0.24846 0.94555 0.97019 0.0
H1039 H 0.2803 0.91501 0.94263 0.0
H1040 H 0.2137 0.84139 0.0039 0.0
H1041 H 0.23215 0.88012 0.03493 0.0
H1042 H 0.19279 0.83495 0.02524 0.0
H1043 H 0.21096 0.87302 0.05567 0.0
H1044 H 0.24235 0.81223 0.9626 0.0
H1045 H 0.24412 0.85303 0.92851 0.0
H1046 H 0.21201 0.94058 0.02383 0.0
H1047 H 0.17963 0.90314 0.00427 0.0
Li1048 Li 0.1183 0.50519 0.2673 0.0
Li1049 Li 0.13928 0.48666 0.25476 0.0
Li1050 Li 0.1393 0.51748 0.24881 0.0
Li1051 Li 0.11802 0.49897 0.23662 0.0
C1052 C 0.14836 0.5093 0.28524 0.0
N1053 N 0.15979 0.51684 0.31633 0.0
C1054 C 0.15397 0.49681 0.29564 0.0
C1055 C 0.14876 0.52564 0.29055 0.0
C1056 C 0.15965 0.50087 0.31134 0.0
C1057 C 0.15453 0.52919 0.30634 0.0
C1058 C 0.10979 0.46815 0.25778 0.0
C1059 C 0.10515 0.4409 0.24708 0.0
N1060 N 0.09953 0.43607 0.26208 0.0
C1061 C 0.10385 0.46297 0.27306 0.0
C1062 C 0.11034 0.45709 0.24464 0.0
C1063 C 0.09877 0.44668 0.275 0.0
C1064 C 0.08928 0.51565 0.28314 0.0
N1065 N 0.10435 0.50896 0.28599 0.0
C1066 C 0.09883 0.50784 0.31489 0.0
C1067 C 0.10915 0.50484 0.30147 0.0
C1068 C 0.08321 0.51489 0.31239 0.0
C1069 C 0.07848 0.51871 0.29618 0.0
H1070 H 0.0856 0.51854 0.27068 0.0
H1071 H 0.12097 0.49916 0.30346 0.0
C1072 C 0.16823 0.4681 0.25051 0.0
N1073 N 0.15338 0.46802 0.2582 0.0
C1074 C 0.17917 0.45498 0.25251 0.0
C1075 C 0.15939 0.4419 0.27038 0.0
C1076 C 0.14892 0.45536 0.26817 0.0
C1077 C 0.17481 0.44153 0.2625 0.0
H1078 H 0.17163 0.47844 0.24287 0.0
H1079 H 0.13727 0.4557 0.27451 0.0
C1080 C 0.10978 0.53624 0.24838 0.0
N1081 N 0.09952 0.5686 0.24862 0.0
C1082 C 0.10224 0.54299 0.23449 0.0
C1083 C 0.11197 0.54586 0.26244 0.0
C1084 C 0.09718 0.55941 0.23484 0.0
C1085 C 0.10673 0.56222 0.26231 0.0
C1086 C 0.14715 0.49363 0.21829 0.0
C1087 C 0.15353 0.50505 0.20714 0.0
C1088 C 0.14579 0.47712 0.21375 0.0
C1089 C 0.15823 0.49976 0.19148 0.0
C1090 C 0.15064 0.47233 0.19798 0.0
N1091 N 0.15669 0.48365 0.18726 0.0
C1092 C 0.16825 0.53646 0.25202 0.0
C1093 C 0.14807 0.5485 0.23482 0.0
C1094 C 0.17887 0.54972 0.24934 0.0
N1095 N 0.15314 0.53613 0.24486 0.0
C1096 C 0.15819 0.5621 0.23197 0.0
C1097 C 0.1739 0.56287 0.23922 0.0
H1098 H 0.17211 0.52633 0.25974 0.0
H1099 H 0.13618 0.54783 0.22895 0.0
C1100 C 0.08937 0.48762 0.22057 0.0
N1101 N 0.10397 0.49536 0.21802 0.0
C1102 C 0.07865 0.48469 0.20744 0.0
C1103 C 0.09813 0.49781 0.18926 0.0
C1104 C 0.10836 0.50067 0.20279 0.0
C1105 C 0.08299 0.48968 0.19143 0.0
H1106 H 0.086 0.4838 0.23286 0.0
H1107 H 0.1198 0.50717 0.20109 0.0
O1108 O 0.1428 0.50554 0.26983 0.0
O1109 O 0.11481 0.48404 0.25568 0.0
O1110 O 0.11486 0.52022 0.2482 0.0
O1111 O 0.14245 0.49862 0.23364 0.0
H1112 H 0.15383 0.48412 0.29166 0.0
H1113 H 0.14476 0.53547 0.28253 0.0
H1114 H 0.16393 0.49133 0.31957 0.0
H1115 H 0.15487 0.54177 0.31064 0.0
H1116 H 0.10555 0.43219 0.23703 0.0
H1117 H 0.10328 0.47142 0.28332 0.0
H1118 H 0.11466 0.46099 0.23268 0.0
H1119 H 0.09422 0.44246 0.28677 0.0
H1120 H 0.10316 0.5048 0.32711 0.0
H1121 H 0.06648 0.52382 0.29351 0.0
H1122 H 0.19101 0.45552 0.24646 0.0
H1123 H 0.15533 0.43183 0.27808 0.0
H1124 H 0.10042 0.53565 0.22353 0.0
H1125 H 0.11757 0.54073 0.27336 0.0
H1126 H 0.09139 0.56484 0.22415 0.0
H1127 H 0.10836 0.56983 0.27309 0.0
H1128 H 0.15473 0.51787 0.21053 0.0
H1129 H 0.14112 0.46811 0.22234 0.0
H1130 H 0.16311 0.50847 0.18268 0.0
H1131 H 0.14962 0.45959 0.19427 0.0
H1132 H 0.19095 0.5495 0.25495 0.0
H1133 H 0.15364 0.57194 0.22424 0.0
H1134 H 0.067 0.47874 0.2099 0.0
H1135 H 0.10218 0.50178 0.17722 0.0
Li1136 Li 0.7391 0.61754 1.00057 0.0
Li1137 Li 0.75056 0.63817 0.01812 0.0
Li1138 Li 0.75709 0.63875 0.98926 0.0
Li1139 Li 0.76855 0.617 0.00762 0.0
C1140 C 0.72402 0.64529 0.98753 0.0
N1141 N 0.70156 0.6526 0.96309 0.0
C1142 C 0.71254 0.65787 0.98983 0.0
C1143 C 0.7241 0.63643 0.97279 0.0
C1144 C 0.70128 0.66138 0.97733 0.0
C1145 C 0.71264 0.64032 0.96059 0.0
C1146 C 0.73752 0.61019 0.03365 0.0
C1147 C 0.7271 0.59261 0.05514 0.0
N1148 N 0.71321 0.60192 0.0559 0.0
C1149 C 0.72314 0.61958 0.03464 0.0
C1150 C 0.73953 0.5966 0.04396 0.0
C1151 C 0.711 0.6152 0.04597 0.0
C1152 C 0.72369 0.58761 0.99221 0.0
N1153 N 0.7206 0.60346 0.99654 0.0
C1154 C 0.6916 0.59845 0.99599 0.0
C1155 C 0.70493 0.60901 0.99847 0.0
C1156 C 0.69436 0.58195 0.99157 0.0
C1157 C 0.71072 0.57661 0.98965 0.0
H1158 H 0.73628 0.58347 0.99095 0.0
H1159 H 0.70275 0.62161 1.00208 0.0
C1160 C 0.74187 0.66804 0.03373 0.0
N1161 N 0.74668 0.65231 0.03671 0.0
C1162 C 0.73952 0.67902 0.04676 0.0
C1163 C 0.74696 0.65738 0.06571 0.0
C1164 C 0.74923 0.64684 0.05231 0.0
C1165 C 0.74209 0.67377 0.06305 0.0
H1166 H 0.74011 0.67212 0.02119 0.0
H1167 H 0.75321 0.63432 0.05437 0.0
C1168 C 0.76963 0.60947 0.9744 0.0
N1169 N 0.79331 0.5994 0.95221 0.0
C1170 C 0.78481 0.61751 0.97371 0.0
C1171 C 0.76651 0.59628 0.96386 0.0
C1172 C 0.79662 0.61224 0.9624 0.0
C1173 C 0.77863 0.59138 0.9527 0.0
C1174 C 0.78039 0.64993 0.01984 0.0
C1175 C 0.78254 0.66688 0.018 0.0
C1176 C 0.78555 0.64222 0.03433 0.0
C1177 C 0.78974 0.67587 0.03075 0.0
C1178 C 0.79272 0.65164 0.04678 0.0
N1179 N 0.79462 0.66813 0.04476 0.0
C1180 C 0.76043 0.66946 0.97368 0.0
C1181 C 0.76267 0.64716 0.95509 0.0
C1182 C 0.76266 0.68073 0.96088 0.0
N1183 N 0.76071 0.65302 0.97066 0.0
C1184 C 0.76507 0.65799 0.94194 0.0
C1185 C 0.76513 0.67504 0.94475 0.0
H1186 H 0.7583 0.67382 0.98606 0.0
H1187 H 0.76214 0.63411 0.95276 0.0
C1188 C 0.7841 0.58637 0.013 0.0
N1189 N 0.78691 0.60277 0.01145 0.0
C1190 C 0.79721 0.5755 0.01552 0.0
C1191 C 0.81585 0.59861 0.01483 0.0
C1192 C 0.80241 0.60901 0.01217 0.0
C1193 C 0.81335 0.5816 0.01656 0.0
H1194 H 0.77164 0.58174 0.01225 0.0
H1195 H 0.80436 0.62206 0.01059 0.0
O1196 O 0.73516 0.64186 0.99968 0.0
O1197 O 0.74956 0.61411 0.02256 0.0
O1198 O 0.75796 0.6142 0.98556 0.0
O1199 O 0.77291 0.64096 0.00773 0.0
H1200 H 0.71235 0.66485 1.00117 0.0
H1201 H 0.73286 0.62665 0.97075 0.0
H1202 H 0.69232 0.67108 0.97894 0.0
H1203 H 0.71256 0.63356 0.94912 0.0
H1204 H 0.72848 0.58212 0.06319 0.0
H1205 H 0.72135 0.63014 0.02676 0.0
H1206 H 0.75058 0.58919 0.0433 0.0
H1207 H 0.69981 0.62235 0.04686 0.0
H1208 H 0.67924 0.60322 0.99743 0.0
H1209 H 0.71352 0.56397 0.98654 0.0
H1210 H 0.73604 0.69159 0.04404 0.0
H1211 H 0.74891 0.65268 0.07801 0.0
H1212 H 0.78745 0.62775 0.98178 0.0
H1213 H 0.75484 0.58989 0.96429 0.0
H1214 H 0.80841 0.61836 0.96171 0.0
H1215 H 0.77638 0.5812 0.94444 0.0
H1216 H 0.77865 0.67304 0.00689 0.0
H1217 H 0.78376 0.62915 0.03606 0.0
H1218 H 0.79141 0.689 0.02952 0.0
H1219 H 0.79666 0.64585 0.0581 0.0
H1220 H 0.76259 0.69376 0.96362 0.0
H1221 H 0.76654 0.65306 0.92965 0.0
H1222 H 0.79472 0.56249 0.01688 0.0
H1223 H 0.82811 0.60381 0.0153 0.0
Li1224 Li 0.86872 0.01767 0.25663 0.0
Li1225 Li 0.88852 0.99978 0.26901 0.0
Li1226 Li 0.88997 0.00556 0.23913 0.0
Li1227 Li 0.86658 0.98806 0.25182 0.0
C1228 C 0.9002 0.03565 0.2577 0.0
N1229 N 0.91525 0.06611 0.25766 0.0
C1230 C 0.90616 0.04237 0.27236 0.0
C1231 C 0.90209 0.04435 0.24298 0.0
C1232 C 0.91367 0.05781 0.2721 0.0
C1233 C 0.90968 0.05975 0.24323 0.0
C1234 C 0.86034 0.00578 0.28807 0.0
C1235 C 0.84457 0.00403 0.31313 0.0
N1236 N 0.85221 0.01778 0.3188 0.0
C1237 C 0.86801 0.0199 0.29413 0.0
C1238 C 0.8485 0.99778 0.29761 0.0
C1239 C 0.86374 0.02578 0.3097 0.0
C1240 C 0.83856 0.03338 0.26286 0.0
N1241 N 0.85473 0.03666 0.26005 0.0
C1242 C 0.84954 0.06558 0.26209 0.0
C1243 C 0.86035 0.05241 0.25968 0.0
C1244 C 0.83274 0.06255 0.26474 0.0
C1245 C 0.82729 0.04617 0.2651 0.0
H1246 H 0.83438 0.02076 0.26325 0.0
H1247 H 0.87315 0.05489 0.25745 0.0
C1248 C 0.91843 1.001 0.28627 0.0
N1249 N 0.90256 0.99595 0.28763 0.0
C1250 C 0.92946 0.99867 0.29925 0.0
C1251 C 0.90764 0.9859 0.31485 0.0
C1252 C 0.89705 0.98838 0.3015 0.0
C1253 C 0.92412 0.99114 0.31388 0.0
H1254 H 0.92255 0.00677 0.27501 0.0
H1255 H 0.88443 0.98427 0.30223 0.0
C1256 C 0.85403 0.01587 0.22786 0.0
N1257 N 0.83031 0.0362 0.21446 0.0
C1258 C 0.83751 0.01114 0.22799 0.0
C1259 C 0.85852 0.03085 0.22072 0.0
C1260 C 0.82569 0.02161 0.22119 0.0
C1261 C 0.84633 0.04099 0.21407 0.0
C1262 C 0.90019 0.97196 0.25813 0.0
C1263 C 0.9172 0.97164 0.2557 0.0
C1264 C 0.89292 0.96079 0.26898 0.0
C1265 C 0.9267 0.96016 0.26427 0.0
C1266 C 0.90284 0.9495 0.27732 0.0
N1267 N 0.91939 0.94943 0.27482 0.0
C1268 C 0.92074 0.00932 0.22347 0.0
C1269 C 0.89797 0.00956 0.20527 0.0
C1270 C 0.93164 0.01147 0.21034 0.0
N1271 N 0.90428 0.00833 0.22071 0.0
C1272 C 0.90841 0.01187 0.19178 0.0
C1273 C 0.92551 0.01279 0.19422 0.0
H1274 H 0.9254 0.00855 0.23592 0.0
H1275 H 0.88482 0.00876 0.20343 0.0
C1276 C 0.83647 0.97086 0.25409 0.0
N1277 N 0.85217 0.96984 0.24844 0.0
C1278 C 0.82551 0.95784 0.25167 0.0
C1279 C 0.8472 0.94278 0.238 0.0
C1280 C 0.85769 0.95618 0.24053 0.0
C1281 C 0.83082 0.94354 0.24353 0.0
H1282 H 0.83244 0.98185 0.26042 0.0
H1283 H 0.87026 0.95569 0.23618 0.0
O1284 O 0.89299 0.02045 0.25772 0.0
O1285 O 0.86428 0.99979 0.27286 0.0
O1286 O 0.86571 0.006 0.23488 0.0
O1287 O 0.89073 0.98346 0.25033 0.0
H1288 H 0.90505 0.03572 0.28384 0.0
H1289 H 0.89771 0.03932 0.2315 0.0
H1290 H 0.91829 0.06317 0.28336 0.0
H1291 H 0.91116 0.06664 0.23194 0.0
H1292 H 0.83545 0.99795 0.32066 0.0
H1293 H 0.87709 0.02629 0.28686 0.0
H1294 H 0.84244 0.98683 0.29306 0.0
H1295 H 0.86958 0.0367 0.31453 0.0
H1296 H 0.85423 0.07803 0.26158 0.0
H1297 H 0.81447 0.04328 0.26728 0.0
H1298 H 0.94209 1.00261 0.29772 0.0
H1299 H 0.90289 0.98016 0.32588 0.0
H1300 H 0.83383 0.99957 0.23341 0.0
H1301 H 0.87124 0.03467 0.22047 0.0
H1302 H 0.81285 0.01815 0.22131 0.0
H1303 H 0.84962 0.05267 0.20863 0.0
H1304 H 0.92302 0.98025 0.2474 0.0
H1305 H 0.87978 0.961 0.27112 0.0
H1306 H 0.9399 0.95982 0.26258 0.0
H1307 H 0.8974 0.94084 0.28583 0.0
H1308 H 0.9447 0.01233 0.21281 0.0
H1309 H 0.90318 0.0127 0.17956 0.0
H1310 H 0.81306 0.95887 0.2563 0.0
H1311 H 0.85177 0.93206 0.23156 0.0
Li1312 Li 0.24998 0.13786 0.51801 0.0
Li1313 Li 0.2385 0.11717 0.50048 0.0
Li1314 Li 0.26794 0.11659 0.50764 0.0
Li1315 Li 0.25658 0.13827 0.48912 0.0
C1316 C 0.23679 0.10984 0.53354 0.0
N1317 N 0.21234 0.10148 0.5556 0.0
C1318 C 0.22242 0.11925 0.5345 0.0
C1319 C 0.23871 0.09617 0.54377 0.0
C1320 C 0.21021 0.11483 0.54574 0.0
C1321 C 0.22622 0.09215 0.55486 0.0
C1322 C 0.22354 0.14495 0.48734 0.0
C1323 C 0.21215 0.13995 0.4604 0.0
N1324 N 0.20116 0.15232 0.46284 0.0
C1325 C 0.21215 0.15762 0.48957 0.0
C1326 C 0.22357 0.13603 0.47263 0.0
C1327 C 0.20092 0.16116 0.47704 0.0
C1328 C 0.24271 0.16823 0.53323 0.0
N1329 N 0.24618 0.15219 0.53647 0.0
C1330 C 0.24528 0.15738 0.56545 0.0
C1331 C 0.24758 0.14665 0.55221 0.0
C1332 C 0.24181 0.17404 0.56247 0.0
C1333 C 0.24057 0.17944 0.54609 0.0
H1334 H 0.24181 0.17234 0.5206 0.0
H1335 H 0.25071 0.13393 0.55451 0.0
C1336 C 0.22291 0.08728 0.49217 0.0
N1337 N 0.21993 0.10316 0.49647 0.0
C1338 C 0.20986 0.07635 0.48967 0.0
C1339 C 0.19089 0.09833 0.49598 0.0
C1340 C 0.20429 0.10881 0.49841 0.0
C1341 C 0.19354 0.0818 0.49161 0.0
H1342 H 0.23547 0.08306 0.4909 0.0
H1343 H 0.2022 0.12143 0.50199 0.0
C1344 C 0.27988 0.14958 0.51962 0.0
N1345 N 0.29421 0.16799 0.54432 0.0
C1346 C 0.28261 0.16639 0.51736 0.0
C1347 C 0.28452 0.14211 0.5344 0.0
C1348 C 0.28985 0.17549 0.53001 0.0
C1349 C 0.29174 0.15163 0.54674 0.0
C1350 C 0.2691 0.10891 0.47443 0.0
C1351 C 0.2843 0.11691 0.47377 0.0
C1352 C 0.26597 0.09571 0.46389 0.0
C1353 C 0.29613 0.11158 0.4625 0.0
C1354 C 0.27811 0.09076 0.45278 0.0
N1355 N 0.29281 0.09873 0.45232 0.0
C1356 C 0.28371 0.08604 0.51319 0.0
C1357 C 0.30178 0.10889 0.51249 0.0
C1358 C 0.29692 0.07532 0.51583 0.0
N1359 N 0.28635 0.10248 0.51164 0.0
C1360 C 0.31531 0.09865 0.51528 0.0
C1361 C 0.31299 0.08161 0.517 0.0
H1362 H 0.27132 0.08127 0.51234 0.0
H1363 H 0.30359 0.12196 0.51092 0.0
C1364 C 0.26001 0.16891 0.4735 0.0
N1365 N 0.26027 0.15247 0.4705 0.0
C1366 C 0.26225 0.18016 0.46068 0.0
C1367 C 0.26467 0.15738 0.44178 0.0
C1368 C 0.26225 0.14658 0.45495 0.0
C1369 C 0.26472 0.17444 0.44455 0.0
H1370 H 0.25788 0.1733 0.48587 0.0
H1371 H 0.26172 0.13353 0.45265 0.0
O1372 O 0.24888 0.11379 0.52252 0.0
O1373 O 0.23464 0.1415 0.49951 0.0
O1374 O 0.27232 0.14053 0.50762 0.0
O1375 O 0.2574 0.11369 0.48554 0.0
H1376 H 0.2207 0.12987 0.52668 0.0
H1377 H 0.24975 0.08874 0.54312 0.0
H1378 H 0.19903 0.122 0.54662 0.0
H1379 H 0.22754 0.0816 0.56286 0.0
H1380 H 0.21204 0.13315 0.44896 0.0
H1381 H 0.212 0.16466 0.50088 0.0
H1382 H 0.23228 0.12619 0.47064 0.0
H1383 H 0.19203 0.17093 0.47861 0.0
H1384 H 0.24657 0.15277 0.57788 0.0
H1385 H 0.23784 0.19216 0.54327 0.0
H1386 H 0.21257 0.06369 0.48658 0.0
H1387 H 0.17857 0.10317 0.49744 0.0
H1388 H 0.27914 0.17237 0.50601 0.0
H1389 H 0.2823 0.12914 0.53642 0.0
H1390 H 0.29198 0.18853 0.52846 0.0
H1391 H 0.29528 0.14603 0.55828 0.0
H1392 H 0.28695 0.12715 0.48183 0.0
H1393 H 0.25428 0.08936 0.4643 0.0
H1394 H 0.30794 0.11767 0.46184 0.0
H1395 H 0.27586 0.08057 0.44453 0.0
H1396 H 0.29457 0.06229 0.51718 0.0
H1397 H 0.3275 0.10399 0.51584 0.0
H1398 H 0.26219 0.19319 0.4634 0.0
H1399 H 0.26614 0.15244 0.4295 0.0
Li1400 Li 0.38947 0.49802 0.76875 0.0
Li1401 Li 0.3679 0.51626 0.75746 0.0
Li1402 Li 0.36708 0.48765 0.75035 0.0
Li1403 Li 0.38896 0.50546 0.73975 0.0
C1404 C 0.35687 0.48562 0.78106 0.0
N1405 N 0.3397 0.46063 0.79639 0.0
C1406 C 0.34076 0.48826 0.78646 0.0
C1407 C 0.36428 0.4703 0.78354 0.0
C1408 C 0.33228 0.47546 0.79417 0.0
C1409 C 0.35538 0.45782 0.79129 0.0
C1410 C 0.3964 0.5312 0.77063 0.0
C1411 C 0.41366 0.55315 0.7806 0.0
N1412 N 0.40519 0.55314 0.79503 0.0
C1413 C 0.3879 0.53137 0.78558 0.0
C1414 C 0.40941 0.54213 0.76812 0.0
C1415 C 0.39252 0.54257 0.79775 0.0
C1416 C 0.42022 0.49572 0.78446 0.0
N1417 N 0.40379 0.49406 0.78707 0.0
C1418 C 0.40846 0.48836 0.81559 0.0
C1419 C 0.39775 0.4906 0.80229 0.0
C1420 C 0.42553 0.48989 0.81326 0.0
C1421 C 0.43135 0.49365 0.7974 0.0
H1422 H 0.42466 0.49886 0.77232 0.0
H1423 H 0.38463 0.48985 0.8042 0.0
C1424 C 0.33736 0.53176 0.76317 0.0
N1425 N 0.35371 0.53486 0.76148 0.0
C1426 C 0.3262 0.54467 0.76531 0.0
C1427 C 0.34888 0.5638 0.76401 0.0
C1428 C 0.35958 0.55053 0.76169 0.0
C1429 C 0.33192 0.56096 0.7658 0.0
H1430 H 0.33295 0.51924 0.7625 0.0
H1431 H 0.37252 0.5528 0.75976 0.0
C1432 C 0.40072 0.47552 0.73819 0.0
N1433 N 0.4204 0.46203 0.71399 0.0
C1434 C 0.39402 0.47142 0.72289 0.0
C1435 C 0.41739 0.47265 0.74122 0.0
C1436 C 0.40418 0.46464 0.7108 0.0
C1437 C 0.42715 0.46584 0.72882 0.0
C1438 C 0.35667 0.51854 0.72736 0.0
C1439 C 0.33991 0.51668 0.72404 0.0
C1440 C 0.36459 0.53323 0.72323 0.0
C1441 C 0.3313 0.52963 0.71672 0.0
C1442 C 0.35555 0.54588 0.71593 0.0
N1443 N 0.33922 0.54384 0.71287 0.0
C1444 C 0.33608 0.47229 0.74669 0.0
C1445 C 0.35869 0.45414 0.74371 0.0
C1446 C 0.325 0.45933 0.7445 0.0
N1447 N 0.35256 0.4695 0.74625 0.0
C1448 C 0.34805 0.44083 0.74133 0.0
C1449 C 0.33094 0.44332 0.74176 0.0
H1450 H 0.33153 0.48457 0.74899 0.0
H1451 H 0.37184 0.45216 0.74379 0.0
C1452 C 0.41962 0.51153 0.72455 0.0
N1453 N 0.40329 0.50959 0.72147 0.0
C1454 C 0.43069 0.51372 0.71158 0.0
C1455 C 0.40792 0.51231 0.69253 0.0
C1456 C 0.3973 0.50993 0.70586 0.0
C1457 C 0.42488 0.51413 0.6953 0.0
H1458 H 0.42404 0.51114 0.7371 0.0
H1459 H 0.38429 0.50813 0.70373 0.0
O1460 O 0.36521 0.49778 0.77296 0.0
O1461 O 0.39233 0.52021 0.75857 0.0
O1462 O 0.39107 0.48268 0.74996 0.0
O1463 O 0.36521 0.50624 0.73502 0.0
H1464 H 0.33485 0.50004 0.78469 0.0
H1465 H 0.3767 0.46801 0.77931 0.0
H1466 H 0.31979 0.47731 0.79837 0.0
H1467 H 0.36093 0.44587 0.7932 0.0
H1468 H 0.42369 0.5617 0.77881 0.0
H1469 H 0.37784 0.52298 0.7878 0.0
H1470 H 0.41617 0.54208 0.75664 0.0
H1471 H 0.38604 0.54285 0.80937 0.0
H1472 H 0.40338 0.4858 0.82764 0.0
H1473 H 0.44439 0.49487 0.79499 0.0
H1474 H 0.31324 0.54192 0.76664 0.0
H1475 H 0.35377 0.57618 0.764 0.0
H1476 H 0.38116 0.47372 0.7203 0.0
H1477 H 0.42277 0.47572 0.753 0.0
H1478 H 0.39919 0.46154 0.69887 0.0
H1479 H 0.44009 0.46362 0.73096 0.0
H1480 H 0.3336 0.50541 0.72717 0.0
H1481 H 0.37753 0.53492 0.72589 0.0
H1482 H 0.3183 0.5284 0.71415 0.0
H1483 H 0.36149 0.55736 0.71277 0.0
H1484 H 0.31192 0.46184 0.74484 0.0
H1485 H 0.35317 0.42867 0.73953 0.0
H1486 H 0.44366 0.5152 0.71427 0.0
H1487 H 0.40296 0.51236 0.68017 0.0
Li1488 Li 0.76847 0.38874 0.49885 0.0
Li1489 Li 0.75747 0.36769 0.51754 0.0
Li1490 Li 0.75173 0.3676 0.48796 0.0
Li1491 Li 0.73961 0.39047 0.50584 0.0
C1492 C 0.78045 0.35227 0.49067 0.0
N1493 N 0.79385 0.32654 0.47287 0.0
C1494 C 0.78223 0.33676 0.49785 0.0
C1495 C 0.7859 0.35476 0.47455 0.0
C1496 C 0.78893 0.32389 0.48864 0.0
C1497 C 0.79251 0.34159 0.46571 0.0
C1498 C 0.77059 0.39999 0.52952 0.0
C1499 C 0.78097 0.42391 0.54365 0.0
N1500 N 0.79587 0.41645 0.54517 0.0
C1501 C 0.78598 0.39251 0.53135 0.0
C1502 C 0.76802 0.41577 0.53581 0.0
C1503 C 0.79862 0.40105 0.53925 0.0
C1504 C 0.78535 0.41936 0.49644 0.0
N1505 N 0.78711 0.40282 0.49468 0.0
C1506 C 0.81548 0.40616 0.48757 0.0
C1507 C 0.80182 0.39611 0.4904 0.0
C1508 C 0.81403 0.42332 0.48923 0.0
C1509 C 0.79867 0.42987 0.49374 0.0
H1510 H 0.77358 0.42439 0.50007 0.0
H1511 H 0.80299 0.38292 0.48925 0.0
C1512 C 0.75644 0.33752 0.53525 0.0
N1513 N 0.75994 0.35381 0.53665 0.0
C1514 C 0.7583 0.327 0.54873 0.0
C1515 C 0.7667 0.35029 0.56511 0.0
C1516 C 0.7647 0.36035 0.5513 0.0
C1517 C 0.76365 0.33331 0.56391 0.0
H1518 H 0.75224 0.33265 0.52361 0.0
H1519 H 0.76696 0.37338 0.55233 0.0
C1520 C 0.75484 0.4041 0.47342 0.0
N1521 N 0.76596 0.42951 0.45372 0.0
C1522 C 0.74822 0.41987 0.47506 0.0
C1523 C 0.76686 0.4012 0.46147 0.0
C1524 C 0.75405 0.43257 0.46506 0.0
C1525 C 0.7724 0.41421 0.45172 0.0
C1526 C 0.72521 0.35874 0.51729 0.0
C1527 C 0.71838 0.34337 0.51384 0.0
C1528 C 0.72165 0.3665 0.53222 0.0
C1529 C 0.70806 0.33597 0.52542 0.0
C1530 C 0.71129 0.3587 0.54348 0.0
N1531 N 0.70477 0.34372 0.53988 0.0
C1532 C 0.74608 0.33667 0.47284 0.0
C1533 C 0.7463 0.35917 0.45435 0.0
C1534 C 0.74374 0.32564 0.45985 0.0
N1535 N 0.74743 0.35307 0.46987 0.0
C1536 C 0.74401 0.3486 0.44098 0.0
C1537 C 0.74278 0.33155 0.44362 0.0
H1538 H 0.7471 0.33212 0.48531 0.0
H1539 H 0.74726 0.37226 0.45231 0.0
C1540 C 0.72371 0.42043 0.51372 0.0
N1541 N 0.72095 0.40437 0.50998 0.0
C1542 C 0.71054 0.43118 0.51628 0.0
C1543 C 0.69182 0.40859 0.51165 0.0
C1544 C 0.70538 0.39831 0.50891 0.0
C1545 C 0.69434 0.4253 0.51523 0.0
H1546 H 0.73617 0.42499 0.51433 0.0
H1547 H 0.70346 0.38554 0.50578 0.0
O1548 O 0.77359 0.36496 0.4994 0.0
O1549 O 0.75822 0.39194 0.52141 0.0
O1550 O 0.74945 0.39157 0.48334 0.0
O1551 O 0.73565 0.366 0.5063 0.0
H1552 H 0.77861 0.33466 0.51044 0.0
H1553 H 0.78497 0.36669 0.46887 0.0
H1554 H 0.79026 0.31181 0.49405 0.0
H1555 H 0.79659 0.34334 0.45317 0.0
H1556 H 0.77917 0.43615 0.54853 0.0
H1557 H 0.78819 0.38029 0.52656 0.0
H1558 H 0.75618 0.4217 0.53469 0.0
H1559 H 0.81061 0.39546 0.54063 0.0
H1560 H 0.82701 0.40055 0.48397 0.0
H1561 H 0.79699 0.44297 0.49544 0.0
H1562 H 0.75546 0.31407 0.5473 0.0
H1563 H 0.77088 0.35573 0.57652 0.0
H1564 H 0.73866 0.42233 0.48393 0.0
H1565 H 0.77194 0.38907 0.45977 0.0
H1566 H 0.74909 0.44485 0.4663 0.0
H1567 H 0.78182 0.41213 0.44255 0.0
H1568 H 0.72106 0.33719 0.50235 0.0
H1569 H 0.72698 0.37834 0.53513 0.0
H1570 H 0.7027 0.32406 0.52293 0.0
H1571 H 0.70847 0.36452 0.55511 0.0
H1572 H 0.74305 0.31261 0.46246 0.0
H1573 H 0.7431 0.35373 0.42873 0.0
H1574 H 0.71302 0.44395 0.51911 0.0
H1575 H 0.67951 0.40361 0.51059 0.0
Li1576 Li 0.64029 0.9873 0.75465 0.0
Li1577 Li 0.61659 0.0056 0.76621 0.0
Li1578 Li 0.61887 0.99921 0.73723 0.0
Li1579 Li 0.63903 0.01738 0.74848 0.0
C1580 C 0.60611 0.97141 0.74936 0.0
N1581 N 0.58595 0.94778 0.73561 0.0
C1582 C 0.58994 0.96958 0.7549 0.0
C1583 C 0.6121 0.96109 0.737 0.0
C1584 C 0.57992 0.95759 0.74775 0.0
C1585 C 0.6017 0.94927 0.73015 0.0
C1586 C 0.65136 0.01699 0.77832 0.0
C1587 C 0.65627 0.04359 0.79046 0.0
N1588 N 0.67239 0.03956 0.79252 0.0
C1589 C 0.66795 0.01308 0.7806 0.0
C1590 C 0.64544 0.03233 0.78333 0.0
C1591 C 0.67839 0.02468 0.7878 0.0
C1592 C 0.67101 0.97109 0.75606 0.0
N1593 N 0.6546 0.96911 0.75861 0.0
C1594 C 0.65867 0.94091 0.76598 0.0
C1595 C 0.6483 0.95442 0.76352 0.0
C1596 C 0.67571 0.94259 0.76352 0.0
C1597 C 0.68185 0.95796 0.75855 0.0
H1598 H 0.67566 0.98286 0.75195 0.0
H1599 H 0.6352 0.95318 0.76546 0.0
C1600 C 0.5859 0.00936 0.78247 0.0
N1601 N 0.60248 0.00918 0.7847 0.0
C1602 C 0.57536 0.01226 0.79576 0.0
C1603 C 0.59913 0.01464 0.81344 0.0
C1604 C 0.6092 0.01159 0.79983 0.0
C1605 C 0.58195 0.01507 0.8115 0.0
H1606 H 0.58086 0.0073 0.77034 0.0
H1607 H 0.6224 0.01115 0.80135 0.0
C1608 C 0.65084 0.99562 0.71938 0.0
N1609 N 0.6669 0.98903 0.69017 0.0
C1610 C 0.65537 0.00849 0.70892 0.0
C1611 C 0.65465 0.97942 0.71508 0.0
C1612 C 0.66343 0.0049 0.69418 0.0
C1613 C 0.66273 0.97634 0.70023 0.0
C1614 C 0.60577 0.02908 0.73607 0.0
C1615 C 0.61281 0.03345 0.72102 0.0
C1616 C 0.58918 0.0325 0.73902 0.0
C1617 C 0.60305 0.04095 0.70902 0.0
C1618 C 0.57983 0.04003 0.72671 0.0
N1619 N 0.5869 0.04404 0.71208 0.0
C1620 C 0.58833 0.99469 0.72098 0.0
C1621 C 0.61106 0.9928 0.70289 0.0
C1622 C 0.57739 0.99186 0.70802 0.0
N1623 N 0.60486 0.99502 0.71828 0.0
C1624 C 0.60056 0.99004 0.68955 0.0
C1625 C 0.58347 0.98949 0.69202 0.0
H1626 H 0.58361 0.99674 0.73324 0.0
H1627 H 0.62413 0.9932 0.70083 0.0
C1628 C 0.66935 0.03374 0.74323 0.0
N1629 N 0.65288 0.03609 0.74496 0.0
C1630 C 0.67982 0.04716 0.7408 0.0
C1631 C 0.65617 0.06514 0.74181 0.0
C1632 C 0.64617 0.05139 0.74437 0.0
C1633 C 0.67325 0.06313 0.73998 0.0
H1634 H 0.67434 0.02142 0.74374 0.0
H1635 H 0.63305 0.05294 0.74596 0.0
O1636 O 0.61601 0.98328 0.75598 0.0
O1637 O 0.64105 0.00604 0.77081 0.0
O1638 O 0.643 0.99889 0.7339 0.0
O1639 O 0.61505 0.02134 0.74778 0.0
H1640 H 0.58515 0.97738 0.76455 0.0
H1641 H 0.62459 0.96233 0.73262 0.0
H1642 H 0.56735 0.95609 0.75184 0.0
H1643 H 0.60614 0.94128 0.72047 0.0
H1644 H 0.65189 0.05555 0.79429 0.0
H1645 H 0.67272 1.00128 0.77678 0.0
H1646 H 0.63265 0.03559 0.78149 0.0
H1647 H 0.69127 0.02186 0.78958 0.0
H1648 H 0.65344 0.92932 0.76993 0.0
H1649 H 0.69486 0.95974 0.75632 0.0
H1650 H 0.5622 0.0126 0.79367 0.0
H1651 H 0.60473 0.01648 0.82538 0.0
H1652 H 0.6527 0.02111 0.71213 0.0
H1653 H 0.65144 0.96933 0.72312 0.0
H1654 H 0.66696 0.01473 0.68593 0.0
H1655 H 0.6657 0.96386 0.69672 0.0
H1656 H 0.62563 0.0309 0.71856 0.0
H1657 H 0.58356 0.0293 0.75064 0.0
H1658 H 0.60832 0.04427 0.69726 0.0
H1659 H 0.56695 0.04266 0.72878 0.0
H1660 H 0.5643 0.99178 0.71047 0.0
H1661 H 0.60581 0.98814 0.67746 0.0
H1662 H 0.69289 0.04503 0.73932 0.0
H1663 H 0.65061 0.07724 0.74146 0.0
Li1664 Li 0.01802 0.25388 0.8669 0.0
Li1665 Li 1.00059 0.26662 0.88752 0.0
Li1666 Li 0.00572 0.23704 0.88819 0.0
Li1667 Li 0.98842 0.24883 0.86692 0.0
C1668 C 0.03678 0.24865 0.89538 0.0
N1669 N 0.06676 0.2353 0.9042 0.0
C1670 C 0.04547 0.25504 0.90875 0.0
C1671 C 0.04332 0.23546 0.88649 0.0
C1672 C 0.06062 0.24813 0.91301 0.0
C1673 C 0.0585 0.22889 0.89115 0.0
C1674 C 0.00666 0.28476 0.85874 0.0
C1675 C 0.00772 0.30814 0.84052 0.0
N1676 N 0.02037 0.31443 0.84948 0.0
C1677 C 0.01967 0.29145 0.86777 0.0
C1678 C 1.00063 0.29314 0.845 0.0
C1679 C 0.02643 0.30647 0.86289 0.0
C1680 C 0.03551 0.25151 0.83704 0.0
N1681 N 0.0367 0.25703 0.85278 0.0
C1682 C 0.06391 0.26704 0.84767 0.0
C1683 C 0.0505 0.26477 0.8582 0.0
C1684 C 0.0631 0.26144 0.83132 0.0
C1685 C 0.04859 0.25361 0.82606 0.0
H1686 H 0.02432 0.24556 0.833 0.0
H1687 H 0.05113 0.2692 0.87072 0.0
C1688 C 1.00065 0.284 0.91752 0.0
N1689 N 0.99686 0.28545 0.90129 0.0
C1690 C 0.99779 0.29707 0.92834 0.0
C1691 C 0.98734 0.31299 0.90552 0.0
C1692 C 0.99017 0.29954 0.8952 0.0
C1693 C 0.99112 0.31185 0.92234 0.0
H1694 H 0.00581 0.27261 0.92207 0.0
H1695 H 0.98688 0.30032 0.88234 0.0
C1696 C 0.99985 0.21756 0.86038 0.0
N1697 N 0.98628 0.18738 0.85271 0.0
C1698 C 0.98685 0.2113 0.86974 0.0
C1699 C 0.00594 0.20848 0.84712 0.0
C1700 C 0.98016 0.19602 0.86566 0.0
C1701 C 0.99892 0.19324 0.84344 0.0
C1702 C 0.96948 0.25535 0.8949 0.0
C1703 C 0.96045 0.24933 0.90823 0.0
C1704 C 0.96322 0.26837 0.88557 0.0
C1705 C 0.94526 0.25643 0.91199 0.0
C1706 C 0.94798 0.27514 0.88973 0.0
N1707 N 0.93939 0.26909 0.90275 0.0
C1708 C 0.00393 0.22021 0.9185 0.0
C1709 C 0.01683 0.2048 0.8974 0.0
C1710 C 0.00625 0.20736 0.9297 0.0
N1711 N 0.00917 0.21871 0.90269 0.0
C1712 C 0.01928 0.1916 0.90815 0.0
C1713 C 0.01397 0.19277 0.92456 0.0
H1714 H 0.99794 0.23144 0.9224 0.0
H1715 H 0.02111 0.20395 0.88484 0.0
C1716 C 0.97081 0.24987 0.83696 0.0
N1717 N 0.96977 0.24502 0.85293 0.0
C1718 C 0.95771 0.24709 0.82614 0.0
C1719 C 0.94268 0.23444 0.84842 0.0
C1720 C 0.95609 0.23738 0.85877 0.0
C1721 C 0.94335 0.23926 0.83181 0.0
H1722 H 0.9819 0.25578 0.83259 0.0
H1723 H 0.95557 0.2335 0.87148 0.0
O1724 O 0.02188 0.25526 0.89117 0.0
O1725 O 0.99991 0.27 0.86313 0.0
O1726 O 0.00657 0.23254 0.86402 0.0
O1727 O 0.98442 0.24855 0.89119 0.0
H1728 H 0.04054 0.26523 0.91576 0.0
H1729 H 0.03679 0.23035 0.8761 0.0
H1730 H 0.06749 0.25295 0.92334 0.0
H1731 H 0.06371 0.21868 0.88438 0.0
H1732 H 1.00317 0.31476 0.82991 0.0
H1733 H 0.0245 0.28516 0.87845 0.0
H1734 H 0.99058 0.2881 0.83787 0.0
H1735 H 0.0365 0.31179 0.86976 0.0
H1736 H 0.07486 0.27296 0.85239 0.0
H1737 H 0.04722 0.24933 0.81353 0.0
H1738 H 1.00093 0.29571 0.94121 0.0
H1739 H 0.98195 0.32408 0.90045 0.0
H1740 H 0.98198 0.21812 0.88006 0.0
H1741 H 0.01599 0.21317 0.83976 0.0
H1742 H 0.9701 0.19103 0.8728 0.0
H1743 H 0.00351 0.18607 0.83322 0.0
H1744 H 0.96515 0.23927 0.91558 0.0
H1745 H 0.97 0.27319 0.8752 0.0
H1746 H 0.93814 0.25189 0.92227 0.0
H1747 H 0.94299 0.28522 0.88261 0.0
H1748 H 1.00184 0.20875 0.9422 0.0
H1749 H 0.02549 0.18068 0.90372 0.0
H1750 H 0.95895 0.2508 0.81341 0.0
H1751 H 0.93185 0.22857 0.85346 0.0
Li1752 Li 0.51843 0.75489 0.36812 0.0
Li1753 Li 0.50036 0.76675 0.3887 0.0
Li1754 Li 0.50573 0.73704 0.38921 0.0
Li1755 Li 0.48821 0.74954 0.36733 0.0
C1756 C 0.53685 0.7496 0.39688 0.0
N1757 N 0.56753 0.73783 0.40556 0.0
C1758 C 0.5465 0.75819 0.40821 0.0
C1759 C 0.54277 0.73502 0.38999 0.0
C1760 C 0.56199 0.75205 0.41243 0.0
C1761 C 0.55831 0.72926 0.39454 0.0
C1762 C 0.5066 0.78583 0.36061 0.0
C1763 C 0.5073 0.8101 0.34359 0.0
N1764 N 0.5201 0.81596 0.35263 0.0
C1765 C 0.51976 0.79208 0.36974 0.0
C1766 C 0.50031 0.79489 0.34742 0.0
C1767 C 0.52641 0.80734 0.36551 0.0
C1768 C 0.5354 0.75388 0.33803 0.0
N1769 N 0.53714 0.75815 0.3541 0.0
C1770 C 0.56481 0.76697 0.3492 0.0
C1771 C 0.55143 0.76474 0.35979 0.0
C1772 C 0.56347 0.76248 0.33254 0.0
C1773 C 0.54844 0.75592 0.32701 0.0
H1774 H 0.52382 0.7489 0.33377 0.0
H1775 H 0.55247 0.76834 0.37254 0.0
C1776 C 0.50133 0.78446 0.4186 0.0
N1777 N 0.49627 0.78531 0.40268 0.0
C1778 C 0.49835 0.79754 0.42938 0.0
C1779 C 0.48507 0.81215 0.40718 0.0
C1780 C 0.48821 0.79876 0.39687 0.0
C1781 C 0.4901 0.81168 0.42374 0.0
H1782 H 0.50758 0.77354 0.42294 0.0
H1783 H 0.48416 0.7991 0.3842 0.0
C1784 C 0.50728 0.71919 0.35713 0.0
N1785 N 0.50827 0.68923 0.34114 0.0
C1786 C 0.49298 0.70979 0.35553 0.0
C1787 C 0.52207 0.71336 0.35057 0.0
C1788 C 0.49373 0.69467 0.3474 0.0
C1789 C 0.52232 0.69818 0.34255 0.0
C1790 C 0.46981 0.75495 0.39708 0.0
C1791 C 0.46313 0.74959 0.41197 0.0
C1792 C 0.46182 0.76723 0.38807 0.0
C1793 C 0.44844 0.75655 0.41757 0.0
C1794 C 0.44718 0.7739 0.3941 0.0
N1795 N 0.44084 0.76846 0.40859 0.0
C1796 C 0.51121 0.7216 0.41972 0.0
C1797 C 0.50891 0.70266 0.39773 0.0
C1798 C 0.51365 0.70875 0.43092 0.0
N1799 N 0.50888 0.71837 0.40347 0.0
C1800 C 0.51123 0.68945 0.40849 0.0
C1801 C 0.51361 0.69237 0.42536 0.0
H1802 H 0.51115 0.7342 0.42398 0.0
H1803 H 0.50718 0.70028 0.38482 0.0
C1804 C 0.4708 0.75054 0.33713 0.0
N1805 N 0.46979 0.74573 0.35311 0.0
C1806 C 0.45766 0.74777 0.32636 0.0
C1807 C 0.44265 0.73523 0.34872 0.0
C1808 C 0.4561 0.73815 0.35901 0.0
C1809 C 0.44329 0.74 0.33209 0.0
H1810 H 0.48189 0.75644 0.33273 0.0
H1811 H 0.45564 0.7343 0.37174 0.0
O1812 O 0.52171 0.75555 0.39262 0.0
O1813 O 0.49992 0.77088 0.36441 0.0
O1814 O 0.5068 0.73408 0.36492 0.0
O1815 O 0.48428 0.74842 0.39152 0.0
H1816 H 0.54207 0.76952 0.41363 0.0
H1817 H 0.53545 0.72819 0.38126 0.0
H1818 H 0.56961 0.75859 0.42115 0.0
H1819 H 0.56305 0.71799 0.38931 0.0
H1820 H 0.50256 0.81725 0.33341 0.0
H1821 H 0.52479 0.78527 0.37999 0.0
H1822 H 0.49013 0.79019 0.34023 0.0
H1823 H 0.5366 0.81232 0.37246 0.0
H1824 H 0.57614 0.77196 0.35409 0.0
H1825 H 0.54667 0.75258 0.31424 0.0
H1826 H 0.50224 0.79643 0.44207 0.0
H1827 H 0.47887 0.82282 0.40216 0.0
H1828 H 0.48148 0.714 0.36069 0.0
H1829 H 0.53327 0.72047 0.35169 0.0
H1830 H 0.48277 0.68725 0.34611 0.0
H1831 H 0.53369 0.69351 0.33745 0.0
H1832 H 0.46923 0.74015 0.41912 0.0
H1833 H 0.46693 0.77164 0.3766 0.0
H1834 H 0.44309 0.75251 0.42907 0.0
H1835 H 0.44087 0.78342 0.38726 0.0
H1836 H 0.51527 0.71161 0.44382 0.0
H1837 H 0.51135 0.67707 0.40358 0.0
H1838 H 0.45888 0.75145 0.31362 0.0
H1839 H 0.43181 0.72942 0.35381 0.0
Li1840 Li 0.00642 0.76731 0.61841 0.0
Li1841 Li 0.98854 0.75512 0.63833 0.0
Li1842 Li 0.01819 0.75031 0.64046 0.0
Li1843 Li 1.00062 0.73744 0.61722 0.0
C1844 C 1.0004 0.78657 0.64647 0.0
N1845 N 0.9883 0.8173 0.65441 0.0
C1846 C 0.9863 0.79258 0.63869 0.0
C1847 C 0.00833 0.79615 0.65832 0.0
C1848 C 0.98037 0.80815 0.64287 0.0
C1849 C 1.00203 0.81167 0.66215 0.0
C1850 C 0.97052 0.75591 0.60682 0.0
C1851 C 0.94641 0.74136 0.5975 0.0
N1852 N 0.94006 0.75571 0.59171 0.0
C1853 C 0.96382 0.7705 0.60065 0.0
C1854 C 0.96181 0.74119 0.60512 0.0
C1855 C 0.94838 0.77015 0.59311 0.0
C1856 C 0.00515 0.78453 0.58843 0.0
N1857 N 0.01026 0.78585 0.60429 0.0
C1858 C 0.02039 0.81301 0.59922 0.0
C1859 C 0.01791 0.79966 0.60979 0.0
C1860 C 0.01508 0.8121 0.58276 0.0
C1861 C 0.00747 0.79751 0.57742 0.0
H1862 H 0.99931 0.77331 0.58432 0.0
H1863 H 0.02207 0.80035 0.6224 0.0
C1864 C 0.97277 0.76162 0.66844 0.0
N1865 N 0.96954 0.75864 0.6523 0.0
C1866 C 0.95993 0.76394 0.67965 0.0
C1867 C 0.94058 0.7606 0.6574 0.0
C1868 C 0.95379 0.75816 0.64665 0.0
C1869 C 0.94351 0.76345 0.67422 0.0
H1870 H 0.98538 0.762 0.67266 0.0
H1871 H 0.95135 0.75589 0.63384 0.0
C1872 C 0.03413 0.75626 0.60664 0.0
N1873 N 0.05645 0.7727 0.58701 0.0
C1874 C 0.03418 0.75372 0.58964 0.0
C1875 C 0.04546 0.76709 0.61368 0.0
C1876 C 0.04555 0.76217 0.57992 0.0
C1877 C 0.05664 0.7753 0.60354 0.0
C1878 C 0.99045 0.72653 0.65335 0.0
C1879 C 0.99534 0.7268 0.66983 0.0
C1880 C 0.97543 0.71939 0.64905 0.0
C1881 C 0.98497 0.72011 0.68179 0.0
C1882 C 0.96539 0.71285 0.66137 0.0
N1883 N 0.97032 0.71336 0.67735 0.0
C1884 C 0.03566 0.75303 0.67041 0.0
C1885 C 0.05006 0.73897 0.64934 0.0
C1886 C 0.04883 0.75086 0.68126 0.0
N1887 N 0.03649 0.74706 0.65482 0.0
C1888 C 0.06358 0.73664 0.65974 0.0
C1889 C 0.06311 0.74259 0.67599 0.0
H1890 H 0.02469 0.75941 0.67444 0.0
H1891 H 0.05042 0.73443 0.63684 0.0
C1892 C 0.99642 0.72115 0.58671 0.0
N1893 N 0.9977 0.71882 0.60323 0.0
C1894 C 0.99381 0.70776 0.57623 0.0
C1895 C 0.99369 0.68987 0.59997 0.0
C1896 C 0.99645 0.70358 0.60997 0.0
C1897 C 0.99232 0.69186 0.58284 0.0
H1898 H 0.99722 0.73344 0.58171 0.0
H1899 H 0.99751 0.70208 0.62315 0.0
O1900 O 0.00644 0.77135 0.64262 0.0
O1901 O 0.98572 0.75601 0.61406 0.0
O1902 O 0.02273 0.74858 0.61631 0.0
O1903 O 1.00024 0.73342 0.64152 0.0
H1904 H 0.97997 0.78528 0.6296 0.0
H1905 H 0.01926 0.79164 0.66446 0.0
H1906 H 0.96946 0.81295 0.63694 0.0
H1907 H 0.00805 0.81924 0.67129 0.0
H1908 H 0.93951 0.73007 0.59617 0.0
H1909 H 0.97047 0.78198 0.60163 0.0
H1910 H 0.96682 0.72977 0.60969 0.0
H1911 H 0.94302 0.78136 0.58833 0.0
H1912 H 0.02618 0.82401 0.60398 0.0
H1913 H 0.00348 0.79604 0.5648 0.0
H1914 H 0.9629 0.76584 0.69249 0.0
H1915 H 0.92821 0.7604 0.65249 0.0
H1916 H 0.02544 0.74543 0.58401 0.0
H1917 H 0.04546 0.76931 0.62681 0.0
H1918 H 0.04569 0.76039 0.56673 0.0
H1919 H 0.06542 0.78379 0.6088 0.0
H1920 H 0.00694 0.73224 0.67336 0.0
H1921 H 0.97148 0.71904 0.63636 0.0
H1922 H 0.98854 0.72033 0.6946 0.0
H1923 H 0.95367 0.70741 0.65822 0.0
H1924 H 0.04772 0.75545 0.69371 0.0
H1925 H 0.07437 0.73043 0.65498 0.0
H1926 H 0.99262 0.70988 0.56313 0.0
H1927 H 0.99277 0.67782 0.60557 0.0
Li1928 Li 0.50648 0.26756 0.1183 0.0
Li1929 Li 0.48848 0.25537 0.1381 0.0
Li1930 Li 0.51811 0.25048 0.14036 0.0
Li1931 Li 0.50061 0.23771 0.117 0.0
C1932 C 0.5004 0.28678 0.14636 0.0
N1933 N 0.48839 0.31755 0.15429 0.0
C1934 C 0.48633 0.29283 0.13857 0.0
C1935 C 0.50835 0.29634 0.15822 0.0
C1936 C 0.48045 0.30842 0.14274 0.0
C1937 C 0.5021 0.31188 0.16204 0.0
C1938 C 0.47058 0.25631 0.10655 0.0
C1939 C 0.44644 0.24184 0.09716 0.0
N1940 N 0.44013 0.25624 0.09143 0.0
C1941 C 0.46392 0.27093 0.10043 0.0
C1942 C 0.46183 0.24161 0.1048 0.0
C1943 C 0.44848 0.27065 0.09288 0.0
C1944 C 0.50558 0.28486 0.08833 0.0
N1945 N 0.51052 0.28612 0.10426 0.0
C1946 C 0.52112 0.31313 0.09929 0.0
C1947 C 0.51827 0.29985 0.10986 0.0
C1948 C 0.51614 0.31218 0.08276 0.0
C1949 C 0.50832 0.29777 0.07732 0.0
H1950 H 0.49956 0.27376 0.08417 0.0
H1951 H 0.52235 0.30045 0.1225 0.0
C1952 C 0.47267 0.26167 0.1682 0.0
N1953 N 0.46945 0.25886 0.15202 0.0
C1954 C 0.45983 0.2638 0.17943 0.0
C1955 C 0.44049 0.26069 0.15712 0.0
C1956 C 0.45371 0.25841 0.14635 0.0
C1957 C 0.44346 0.26331 0.17393 0.0
H1958 H 0.48529 0.26212 0.17241 0.0
H1959 H 0.45128 0.25617 0.13353 0.0
C1960 C 0.53421 0.25643 0.10659 0.0
N1961 N 0.55661 0.27282 0.08703 0.0
C1962 C 0.53426 0.25394 0.08959 0.0
C1963 C 0.54559 0.26719 0.11367 0.0
C1964 C 0.54568 0.26236 0.0799 0.0
C1965 C 0.55681 0.27537 0.10356 0.0
C1966 C 0.49027 0.22672 0.15305 0.0
C1967 C 0.49509 0.22691 0.16955 0.0
C1968 C 0.47524 0.21963 0.14866 0.0
C1969 C 0.48465 0.22022 0.18145 0.0
C1970 C 0.46513 0.21309 0.16092 0.0
N1971 N 0.47 0.21354 0.17693 0.0
C1972 C 0.53539 0.25311 0.17041 0.0
C1973 C 0.54994 0.23912 0.14939 0.0
C1974 C 0.54849 0.25092 0.18133 0.0
N1975 N 0.53632 0.24717 0.15481 0.0
C1976 C 0.56339 0.23677 0.15986 0.0
C1977 C 0.56281 0.24268 0.17613 0.0
H1978 H 0.52439 0.25946 0.17439 0.0
H1979 H 0.55038 0.23461 0.13688 0.0
C1980 C 0.49645 0.22149 0.08644 0.0
N1981 N 0.4977 0.21913 0.10295 0.0
C1982 C 0.49384 0.20813 0.07592 0.0
C1983 C 0.49369 0.19018 0.09962 0.0
C1984 C 0.49644 0.20387 0.10966 0.0
C1985 C 0.49234 0.19221 0.0825 0.0
H1986 H 0.49725 0.2338 0.08147 0.0
H1987 H 0.49747 0.20234 0.12284 0.0
O1988 O 0.5064 0.27155 0.14252 0.0
O1989 O 0.48577 0.25634 0.1138 0.0
O1990 O 0.52276 0.24879 0.11623 0.0
O1991 O 0.50011 0.23363 0.14129 0.0
H1992 H 0.47998 0.28555 0.12948 0.0
H1993 H 0.51926 0.29179 0.16437 0.0
H1994 H 0.46956 0.31326 0.1368 0.0
H1995 H 0.50813 0.31943 0.17118 0.0
H1996 H 0.43951 0.23057 0.09579 0.0
H1997 H 0.47061 0.28239 0.10145 0.0
H1998 H 0.46681 0.23016 0.10932 0.0
H1999 H 0.44316 0.28189 0.08814 0.0
H2000 H 0.52738 0.32391 0.10395 0.0
H2001 H 0.50415 0.29655 0.06472 0.0
H2002 H 0.46268 0.26596 0.19226 0.0
H2003 H 0.42805 0.26009 0.15238 0.0
H2004 H 0.52548 0.24571 0.08392 0.0
H2005 H 0.54558 0.26937 0.12681 0.0
H2006 H 0.54581 0.26063 0.06671 0.0
H2007 H 0.56562 0.28381 0.10885 0.0
H2008 H 0.5067 0.23231 0.17315 0.0
H2009 H 0.47134 0.21933 0.13596 0.0
H2010 H 0.48817 0.2204 0.19428 0.0
H2011 H 0.4534 0.20769 0.15772 0.0
H2012 H 0.5473 0.25548 0.19379 0.0
H2013 H 0.57422 0.2306 0.15516 0.0
H2014 H 0.49267 0.21028 0.06283 0.0
H2015 H 0.49276 0.17812 0.10519 0.0
H2016 H 0.25811 0.7652 0.8603 0.0
H2017 H 0.20553 0.76453 0.86789 0.0
H2018 H 0.26119 0.78423 0.88326 0.0
H2019 H 0.20856 0.78399 0.89054 0.0
H2020 H 0.22245 0.8043 0.9415 0.0
H2021 H 0.21932 0.78516 0.91859 0.0
H2022 H 0.25527 0.81261 0.89074 0.0
H2023 H 0.25878 0.83141 0.91383 0.0
C2024 C 0.2472 0.7691 0.86687 0.0
C2025 C 0.23158 0.76328 0.86225 0.0
C2026 C 0.24895 0.78016 0.87994 0.0
C2027 C 0.23512 0.78566 0.88877 0.0
C2028 C 0.21949 0.77988 0.88413 0.0
C2029 C 0.21773 0.76886 0.87101 0.0
C2030 C 0.22978 0.80617 0.93054 0.0
C2031 C 0.24087 0.8194 0.92953 0.0
C2032 C 0.22786 0.7953 0.91733 0.0
C2033 C 0.23703 0.79734 0.90279 0.0
C2034 C 0.24813 0.81057 0.90179 0.0
C2035 C 0.25 0.82147 0.91497 0.0
H2036 H 0.02489 0.56069 0.39002 0.0
H2037 H 0.01695 0.50861 0.39701 0.0
H2038 H 0.04285 0.55484 0.36687 0.0
H2039 H 0.03397 0.50282 0.37312 0.0
H2040 H 0.07901 0.4966 0.34056 0.0
H2041 H 0.06141 0.50252 0.36397 0.0
H2042 H 0.04333 0.54604 0.33937 0.0
H2043 H 0.0618 0.54077 0.31648 0.0
C2044 C 0.02694 0.54797 0.38664 0.0
C2045 C 0.01946 0.53514 0.39553 0.0
C2046 C 0.03707 0.54462 0.37314 0.0
C2047 C 0.03991 0.52834 0.368 0.0
C2048 C 0.0323 0.51551 0.37679 0.0
C2049 C 0.02229 0.51886 0.39039 0.0
C2050 C 0.07148 0.50758 0.34021 0.0
C2051 C 0.07197 0.51823 0.32656 0.0
C2052 C 0.06114 0.51085 0.35358 0.0
C2053 C 0.05085 0.52477 0.35365 0.0
C2054 C 0.05121 0.53532 0.33993 0.0
C2055 C 0.06167 0.53215 0.32663 0.0
H2056 H 0.7742 0.76229 0.88287 0.0
H2057 H 0.78306 0.72185 0.84963 0.0
H2058 H 0.77083 0.74298 0.90555 0.0
H2059 H 0.77939 0.70246 0.87223 0.0
H2060 H 0.78733 0.67301 0.91948 0.0
H2061 H 0.7915 0.69236 0.89694 0.0
H2062 H 0.75237 0.72288 0.91602 0.0
H2063 H 0.74845 0.70367 0.93868 0.0
C2064 C 0.7753 0.74925 0.88038 0.0
C2065 C 0.77886 0.74362 0.86443 0.0
C2066 C 0.77332 0.73815 0.89339 0.0
C2067 C 0.77476 0.7211 0.89077 0.0
C2068 C 0.77844 0.71549 0.8748 0.0
C2069 C 0.78052 0.72661 0.86181 0.0
C2070 C 0.77956 0.68381 0.9188 0.0
C2071 C 0.76758 0.6868 0.93091 0.0
C2072 C 0.78193 0.69491 0.90585 0.0
C2073 C 0.7723 0.70925 0.90461 0.0
C2074 C 0.76025 0.71217 0.9167 0.0
C2075 C 0.75796 0.70112 0.92971 0.0
H2076 H 0.97107 0.97045 0.40854 0.0
H2077 H 0.01051 0.987 0.37696 0.0
H2078 H 0.95169 0.97345 0.3858 0.0
H2079 H 0.99106 0.99029 0.35442 0.0
H2080 H 0.94832 0.01211 0.32454 0.0
H2081 H 0.96752 0.00825 0.3472 0.0
H2082 H 0.9452 0.96141 0.35831 0.0
H2083 H 0.92614 0.96505 0.33539 0.0
C2084 C 0.97567 0.97459 0.39675 0.0
C2085 C 0.9924 0.97855 0.39468 0.0
C2086 C 0.96452 0.97634 0.38371 0.0
C2087 C 0.96981 0.9822 0.36832 0.0
C2088 C 0.98653 0.98602 0.3662 0.0
C2089 C 0.99768 0.98416 0.37917 0.0
C2090 C 0.94759 1.00087 0.33165 0.0
C2091 C 0.93567 0.98886 0.32801 0.0
C2092 C 0.9586 0.99869 0.34469 0.0
C2093 C 0.95793 0.9845 0.35454 0.0
C2094 C 0.94592 0.97256 0.35107 0.0
C2095 C 0.93496 0.97468 0.33793 0.0
H2096 H 0.22889 0.2204 0.65862 0.0
H2097 H 0.2316 0.26104 0.62461 0.0
H2098 H 0.23232 0.20111 0.63591 0.0
H2099 H 0.23437 0.24185 0.60176 0.0
H2100 H 0.25556 0.20446 0.56605 0.0
H2101 H 0.25246 0.22353 0.58896 0.0
H2102 H 0.21961 0.18926 0.61294 0.0
H2103 H 0.22331 0.17 0.59026 0.0
C2104 C 0.23003 0.22519 0.64623 0.0
C2105 C 0.23004 0.24223 0.6434 0.0
C2106 C 0.23193 0.21413 0.63317 0.0
C2107 C 0.23366 0.21983 0.61688 0.0
C2108 C 0.23345 0.23693 0.6141 0.0
C2109 C 0.23178 0.24797 0.6272 0.0
C2110 C 0.24764 0.20107 0.57621 0.0
C2111 C 0.23968 0.18574 0.57636 0.0
C2112 C 0.24578 0.21203 0.58935 0.0
C2113 C 0.23573 0.20805 0.6029 0.0
C2114 C 0.2277 0.1927 0.60294 0.0
C2115 C 0.22974 0.18165 0.58989 0.0
H2116 H 0.51165 0.52286 0.63272 0.0
H2117 H 0.47095 0.52906 0.59921 0.0
H2118 H 0.49249 0.51998 0.65557 0.0
H2119 H 0.45166 0.52566 0.62195 0.0
H2120 H 0.42163 0.53437 0.66859 0.0
H2121 H 0.4408 0.53809 0.64581 0.0
H2122 H 0.47327 0.5019 0.66739 0.0
H2123 H 0.45431 0.49864 0.69036 0.0
C2124 C 0.49857 0.52344 0.63023 0.0
C2125 C 0.49281 0.52615 0.61416 0.0
C2126 C 0.48755 0.52172 0.64333 0.0
C2127 C 0.47044 0.52249 0.64069 0.0
C2128 C 0.46471 0.52525 0.62457 0.0
C2129 C 0.47576 0.52715 0.61149 0.0
C2130 C 0.43285 0.52719 0.66841 0.0
C2131 C 0.43648 0.51626 0.6813 0.0
C2132 C 0.44385 0.52927 0.65531 0.0
C2133 C 0.45868 0.52032 0.65468 0.0
C2134 C 0.46219 0.50928 0.66756 0.0
C2135 C 0.45128 0.50734 0.68073 0.0
H2136 H 0.77486 0.25046 0.63169 0.0
H2137 H 0.78878 0.29319 0.66 0.0
H2138 H 0.7685 0.26806 0.60825 0.0
H2139 H 0.7831 0.3107 0.63636 0.0
H2140 H 0.75592 0.33912 0.59626 0.0
H2141 H 0.7608 0.32131 0.61991 0.0
H2142 H 0.78224 0.28472 0.58789 0.0
H2143 H 0.7773 0.3025 0.56427 0.0
C2144 C 0.77652 0.26361 0.63295 0.0
C2145 C 0.78235 0.27038 0.64777 0.0
C2146 C 0.77306 0.2737 0.61943 0.0
C2147 C 0.77532 0.29083 0.62036 0.0
C2148 C 0.78104 0.2976 0.63522 0.0
C2149 C 0.7845 0.28752 0.64874 0.0
C2150 C 0.76176 0.32731 0.59428 0.0
C2151 C 0.76623 0.32227 0.57834 0.0
C2152 C 0.76457 0.31709 0.60785 0.0
C2153 C 0.77195 0.30157 0.60585 0.0
C2154 C 0.7763 0.29648 0.58989 0.0
C2155 C 0.77347 0.30668 0.57632 0.0
H2156 H 0.52047 0.99624 0.60507 0.0
H2157 H 0.52035 0.94475 0.61808 0.0
H2158 H 0.53809 1.00213 0.6287 0.0
H2159 H 0.53827 0.95057 0.64144 0.0
H2160 H 0.55627 0.96963 0.69133 0.0
H2161 H 0.53772 0.96449 0.66828 0.0
H2162 H 0.56656 0.99702 0.63778 0.0
H2163 H 0.58487 1.00248 0.66095 0.0
C2164 C 0.52415 0.98619 0.613 0.0
C2165 C 0.51901 0.97002 0.60966 0.0
C2166 C 0.53438 0.98954 0.62645 0.0
C2167 C 0.53962 0.97682 0.63695 0.0
C2168 C 0.53435 0.96068 0.63369 0.0
C2169 C 0.52422 0.95732 0.62019 0.0
C2170 C 0.55856 0.97581 0.67975 0.0
C2171 C 0.57207 0.98646 0.67799 0.0
C2172 C 0.54802 0.97273 0.66649 0.0
C2173 C 0.55067 0.98031 0.65116 0.0
C2174 C 0.56408 0.99109 0.64945 0.0
C2175 C 0.57468 0.99408 0.66268 0.0
H2176 H 0.85589 0.24619 0.76954 0.0
H2177 H 0.86933 0.19486 0.76782 0.0
H2178 H 0.87938 0.25173 0.78738 0.0
H2179 H 0.89298 0.20039 0.78538 0.0
H2180 H 0.92317 0.21221 0.83095 0.0
H2181 H 0.89982 0.20713 0.81297 0.0
H2182 H 0.90868 0.25336 0.78831 0.0
H2183 H 0.93148 0.25888 0.80693 0.0
C2184 C 0.86399 0.23612 0.77282 0.0
C2185 C 0.86069 0.22007 0.76731 0.0
C2186 C 0.87749 0.23929 0.78303 0.0
C2187 C 0.88811 0.22651 0.78792 0.0
C2188 C 0.88492 0.2105 0.78218 0.0
C2189 C 0.87136 0.20732 0.77206 0.0
C2190 C 0.92004 0.22142 0.82185 0.0
C2191 C 0.92924 0.236 0.82049 0.0
C2192 C 0.90675 0.21839 0.81134 0.0
C2193 C 0.90233 0.22979 0.79909 0.0
C2194 C 0.91157 0.24436 0.79769 0.0
C2195 C 0.92482 0.24743 0.80826 0.0
H2196 H 0.49601 0.89901 0.48628 0.0
H2197 H 0.44478 0.88518 0.48778 0.0
H2198 H 0.50181 0.87573 0.46828 0.0
H2199 H 0.45057 0.86169 0.4701 0.0
H2200 H 0.46272 0.83147 0.42471 0.0
H2201 H 0.45736 0.85476 0.44265 0.0
H2202 H 0.50385 0.84661 0.46712 0.0
H2203 H 0.50967 0.82392 0.44848 0.0
C2204 C 0.48602 0.89087 0.48291 0.0
C2205 C 0.46992 0.89399 0.48841 0.0
C2206 C 0.48934 0.87748 0.47261 0.0
C2207 C 0.47667 0.86678 0.46764 0.0
C2208 C 0.4606 0.86982 0.47336 0.0
C2209 C 0.45727 0.88327 0.48355 0.0
C2210 C 0.47193 0.83476 0.43375 0.0
C2211 C 0.48668 0.82577 0.43504 0.0
C2212 C 0.46873 0.84801 0.44425 0.0
C2213 C 0.48013 0.85261 0.45644 0.0
C2214 C 0.49485 0.84359 0.45778 0.0
C2215 C 0.4981 0.83039 0.4472 0.0
H2216 H 0.14899 0.24804 0.76813 0.0
H2217 H 0.13767 0.29972 0.76381 0.0
H2218 H 0.12624 0.24462 0.78733 0.0
H2219 H 0.11466 0.2963 0.78276 0.0
H2220 H 0.08415 0.2878 0.82904 0.0
H2221 H 0.10756 0.29123 0.8107 0.0
H2222 H 0.09709 0.24411 0.78853 0.0
H2223 H 0.0743 0.24025 0.8075 0.0
C2224 C 0.14154 0.25866 0.77118 0.0
C2225 C 0.14513 0.27414 0.7644 0.0
C2226 C 0.12844 0.2567 0.78218 0.0
C2227 C 0.11849 0.27016 0.7866 0.0
C2228 C 0.12217 0.28569 0.77987 0.0
C2229 C 0.13535 0.28766 0.76896 0.0
C2230 C 0.08696 0.27805 0.82041 0.0
C2231 C 0.07728 0.26372 0.81984 0.0
C2232 C 0.10029 0.28013 0.80971 0.0
C2233 C 0.10429 0.26796 0.79806 0.0
C2234 C 0.09457 0.25366 0.79745 0.0
C2235 C 0.0813 0.25155 0.80821 0.0
H2236 H 0.49945 0.60967 0.49205 0.0
H2237 H 0.55204 0.61728 0.49218 0.0
H2238 H 0.49616 0.63249 0.47293 0.0
H2239 H 0.5488 0.63971 0.4725 0.0
H2240 H 0.53492 0.69032 0.45149 0.0
H2241 H 0.53836 0.66761 0.4708 0.0
H2242 H 0.50137 0.63986 0.44467 0.0
H2243 H 0.4975 0.66278 0.42575 0.0
C2244 C 0.51032 0.61621 0.48802 0.0
C2245 C 0.52601 0.61163 0.49374 0.0
C2246 C 0.50845 0.62919 0.47687 0.0
C2247 C 0.52221 0.63796 0.47113 0.0
C2248 C 0.53791 0.63335 0.47679 0.0
C2249 C 0.53979 0.62035 0.48793 0.0
C2250 C 0.52741 0.67944 0.44995 0.0
C2251 C 0.51591 0.67842 0.43706 0.0
C2252 C 0.52953 0.66632 0.46092 0.0
C2253 C 0.52015 0.65187 0.45932 0.0
C2254 C 0.50868 0.65086 0.4464 0.0
C2255 C 0.50659 0.66394 0.43542 0.0
H2256 H 0.88215 0.77372 0.76156 0.0
H2257 H 0.84781 0.77774 0.72123 0.0
H2258 H 0.90476 0.7705 0.742 0.0
H2259 H 0.87047 0.77462 0.70165 0.0
H2260 H 0.9132 0.74841 0.67407 0.0
H2261 H 0.89047 0.75237 0.69321 0.0
H2262 H 0.91946 0.7874 0.72055 0.0
H2263 H 0.94206 0.78391 0.70115 0.0
C2264 C 0.87943 0.77387 0.74851 0.0
C2265 C 0.86319 0.77595 0.74294 0.0
C2266 C 0.8924 0.77217 0.73731 0.0
C2267 C 0.8894 0.7723 0.72028 0.0
C2268 C 0.87315 0.77435 0.7147 0.0
C2269 C 0.86021 0.77626 0.7259 0.0
C2270 C 0.9147 0.75716 0.68399 0.0
C2271 C 0.92957 0.76584 0.68597 0.0
C2272 C 0.90165 0.75938 0.695 0.0
C2273 C 0.90317 0.77018 0.7084 0.0
C2274 C 0.91799 0.77883 0.71045 0.0
C2275 C 0.93098 0.77676 0.69934 0.0
H2276 H 0.05294 0.88665 0.51496 0.0
H2277 H 1.00099 0.89703 0.51853 0.0
H2278 H 0.04975 0.86389 0.53426 0.0
H2279 H 0.9978 0.87456 0.53808 0.0
H2280 H 0.99401 0.82286 0.55867 0.0
H2281 H 0.99776 0.84551 0.53956 0.0
H2282 H 0.04447 0.8569 0.56223 0.0
H2283 H 0.04116 0.83358 0.58073 0.0
C2284 C 0.04087 0.88418 0.52002 0.0
C2285 C 0.02721 0.8936 0.51513 0.0
C2286 C 0.03903 0.87114 0.53113 0.0
C2287 C 0.02349 0.86727 0.53774 0.0
C2288 C 0.00989 0.8769 0.53302 0.0
C2289 C 0.01171 0.88984 0.52182 0.0
C2290 C 0.0052 0.83002 0.55946 0.0
C2291 C 0.0173 0.82627 0.57127 0.0
C2292 C 0.00725 0.84322 0.54862 0.0
C2293 C 0.0214 0.85316 0.54933 0.0
C2294 C 0.03349 0.84945 0.56116 0.0
C2295 C 0.03148 0.83617 0.57196 0.0
H2296 H 0.14941 0.75543 0.73877 0.0
H2297 H 0.1375 0.70394 0.74357 0.0
H2298 H 0.12675 0.75895 0.71948 0.0
H2299 H 0.11454 0.70747 0.72455 0.0
H2300 H 0.0838 0.71591 0.67845 0.0
H2301 H 0.10729 0.71233 0.69667 0.0
H2302 H 0.09771 0.75993 0.71826 0.0
H2303 H 0.0749 0.76395 0.69937 0.0
C2304 C 0.14184 0.74488 0.7358 0.0
C2305 C 0.14523 0.72942 0.74275 0.0
C2306 C 0.1288 0.7469 0.72476 0.0
C2307 C 0.11868 0.73353 0.72046 0.0
C2308 C 0.12217 0.71802 0.72734 0.0
C2309 C 0.13532 0.71598 0.73829 0.0
C2310 C 0.08683 0.72574 0.68691 0.0
C2311 C 0.07739 0.74025 0.68735 0.0
C2312 C 0.1002 0.72357 0.69755 0.0
C2313 C 0.10447 0.73582 0.70901 0.0
C2314 C 0.09499 0.7503 0.70948 0.0
C2315 C 0.0817 0.75251 0.69877 0.0
H2316 H 0.9705 0.59474 0.54271 0.0
H2317 H 0.97703 0.62534 0.49982 0.0
H2318 H 0.9764 0.61818 0.56041 0.0
H2319 H 0.98254 0.64895 0.51748 0.0
H2320 H 0.00699 0.68446 0.55342 0.0
H2321 H 1.00196 0.66078 0.53572 0.0
H2322 H 0.96513 0.64327 0.56985 0.0
H2323 H 0.97051 0.66673 0.58767 0.0
C2324 C 0.97306 0.60654 0.53707 0.0
C2325 C 0.97327 0.60818 0.51986 0.0
C2326 C 0.9764 0.62002 0.54722 0.0
C2327 C 0.9799 0.63556 0.54043 0.0
C2328 C 0.98016 0.63716 0.52318 0.0
C2329 C 0.97696 0.62362 0.51303 0.0
C2330 C 0.99778 0.67557 0.55709 0.0
C2331 C 0.98919 0.67746 0.57198 0.0
C2332 C 0.99484 0.66199 0.54692 0.0
C2333 C 0.98313 0.65002 0.5513 0.0
C2334 C 0.97447 0.65201 0.56618 0.0
C2335 C 0.97752 0.66551 0.57641 0.0
H2336 H 0.78459 0.84895 0.22132 0.0
H2337 H 0.74503 0.87962 0.23922 0.0
H2338 H 0.80361 0.8719 0.22408 0.0
H2339 H 0.76422 0.90219 0.24298 0.0
H2340 H 0.79888 0.94475 0.23304 0.0
H2341 H 0.77997 0.92193 0.22871 0.0
H2342 H 0.81781 0.8878 0.24394 0.0
H2343 H 0.83681 0.91067 0.24784 0.0
C2344 C 0.77991 0.86058 0.22582 0.0
C2345 C 0.76321 0.86235 0.23004 0.0
C2346 C 0.7909 0.87371 0.22764 0.0
C2347 C 0.78553 0.88897 0.23382 0.0
C2348 C 0.76882 0.89074 0.23799 0.0
C2349 C 0.75782 0.87766 0.23606 0.0
C2350 C 0.80312 0.93237 0.23551 0.0
C2351 C 0.81934 0.92954 0.24081 0.0
C2352 C 0.79226 0.91925 0.23308 0.0
C2353 C 0.79728 0.90294 0.23602 0.0
C2354 C 0.81355 0.90013 0.24127 0.0
C2355 C 0.82445 0.91326 0.24357 0.0
H2356 H 0.76288 0.1423 0.25037 0.0
H2357 H 0.76904 0.13989 0.30315 0.0
H2358 H 0.78209 0.11953 0.24713 0.0
H2359 H 0.78868 0.11745 0.29976 0.0
H2360 H 0.83632 0.0898 0.28416 0.0
H2361 H 0.81701 0.11263 0.2877 0.0
H2362 H 0.78324 0.0893 0.25401 0.0
H2363 H 0.80258 0.06653 0.25041 0.0
C2364 C 0.7682 0.13688 0.26131 0.0
C2365 C 0.76426 0.14298 0.27705 0.0
C2366 C 0.77928 0.12385 0.25942 0.0
C2367 C 0.78688 0.11668 0.27319 0.0
C2368 C 0.78315 0.12285 0.2889 0.0
C2369 C 0.77192 0.13577 0.29082 0.0
C2370 C 0.8248 0.0896 0.27747 0.0
C2371 C 0.82097 0.07638 0.267 0.0
C2372 C 0.81369 0.10259 0.2796 0.0
C2373 C 0.79861 0.10277 0.27113 0.0
C2374 C 0.79482 0.08957 0.26061 0.0
C2375 C 0.80582 0.07648 0.25865 0.0
H2376 H 0.38822 0.98703 0.94387 0.0
H2377 H 0.40031 0.98701 0.9956 0.0
H2378 H 0.36474 0.96926 0.94932 0.0
H2379 H 0.37683 0.96915 1.00107 0.0
H2380 H 0.32411 0.95001 0.00676 0.0
H2381 H 0.34705 0.96855 1.00138 0.0
H2382 H 0.35867 0.94136 0.95724 0.0
H2383 H 0.33534 0.92327 0.96224 0.0
C2384 C 0.38594 0.98313 0.9564 0.0
C2385 C 0.39622 0.98841 0.96928 0.0
C2386 C 0.37247 0.97292 0.95953 0.0
C2387 C 0.3689 0.96768 0.97563 0.0
C2388 C 0.37907 0.9731 0.98855 0.0
C2389 C 0.39255 0.98335 0.98542 0.0
C2390 C 0.33144 0.94809 0.99581 0.0
C2391 C 0.32782 0.93513 0.98493 0.0
C2392 C 0.34473 0.95861 0.99283 0.0
C2393 C 0.35474 0.95647 0.97887 0.0
C2394 C 0.35112 0.94351 0.968 0.0
C2395 C 0.33785 0.93299 0.97099 0.0
H2396 H 0.24452 0.36853 0.30001 0.0
H2397 H 0.23626 0.35412 0.24961 0.0
H2398 H 0.22558 0.39154 0.29659 0.0
H2399 H 0.21684 0.37671 0.24626 0.0
H2400 H 0.19596 0.42795 0.23985 0.0
H2401 H 0.21505 0.40531 0.24363 0.0
H2402 H 0.19793 0.39921 0.2936 0.0
H2403 H 0.17974 0.42267 0.29021 0.0
C2404 C 0.23847 0.37018 0.28826 0.0
C2405 C 0.24192 0.35956 0.27507 0.0
C2406 C 0.22754 0.38334 0.28628 0.0
C2407 C 0.21961 0.38611 0.27111 0.0
C2408 C 0.22293 0.37527 0.25801 0.0
C2409 C 0.23401 0.36224 0.25994 0.0
C2410 C 0.19642 0.42199 0.25175 0.0
C2411 C 0.18625 0.42729 0.26472 0.0
C2412 C 0.20722 0.40875 0.25384 0.0
C2413 C 0.20807 0.40027 0.26892 0.0
C2414 C 0.19784 0.40551 0.28187 0.0
C2415 C 0.18716 0.41887 0.27983 0.0
H2416 H 0.11691 0.0163 0.45384 0.0
H2417 H 0.11187 0.01409 0.50671 0.0
H2418 H 0.13919 0.03612 0.45681 0.0
H2419 H 0.13465 0.03324 0.50969 0.0
H2420 H 0.16495 0.08015 0.50949 0.0
H2421 H 0.14189 0.06144 0.50581 0.0
H2422 H 0.16735 0.038 0.46549 0.0
H2423 H 0.19007 0.05726 0.46863 0.0
C2424 C 0.12051 0.02005 0.46611 0.0
C2425 C 0.11255 0.01355 0.48003 0.0
C2426 C 0.13346 0.03127 0.46782 0.0
C2427 C 0.1388 0.03629 0.4835 0.0
C2428 C 0.13079 0.02984 0.49741 0.0
C2429 C 0.11783 0.01865 0.4957 0.0
C2430 C 0.16556 0.07117 0.49968 0.0
C2431 C 0.17942 0.07028 0.48935 0.0
C2432 C 0.15239 0.06027 0.49771 0.0
C2433 C 0.15273 0.04812 0.48538 0.0
C2434 C 0.16655 0.04728 0.475 0.0
C2435 C 0.17971 0.05821 0.47695 0.0
H2436 H 0.71319 0.16076 0.72049 0.0
H2437 H 0.75614 0.12984 0.72485 0.0
H2438 H 0.69558 0.13721 0.72617 0.0
H2439 H 0.73855 0.10613 0.73015 0.0
H2440 H 0.703 0.0699 0.75428 0.0
H2441 H 0.72069 0.09369 0.74965 0.0
H2442 H 0.68584 0.11257 0.71418 0.0
H2443 H 0.66805 0.089 0.71915 0.0
C2444 C 0.71886 0.14888 0.72253 0.0
C2445 C 0.73606 0.14717 0.72217 0.0
C2446 C 0.70876 0.13533 0.72574 0.0
C2447 C 0.71558 0.11967 0.72855 0.0
C2448 C 0.73283 0.11801 0.7283 0.0
C2449 C 0.74294 0.1316 0.72522 0.0
C2450 C 0.69917 0.07912 0.74545 0.0
C2451 C 0.6841 0.07758 0.73711 0.0
C2452 C 0.70933 0.09275 0.74275 0.0
C2453 C 0.70474 0.10514 0.73154 0.0
C2454 C 0.68967 0.1035 0.72315 0.0
C2455 C 0.67947 0.08994 0.72595 0.0
H2456 H 0.41023 0.04087 0.53687 0.0
H2457 H 0.37928 0.99807 0.5317 0.0
H2458 H 0.38672 0.0586 0.5313 0.0
H2459 H 0.3556 0.01578 0.52652 0.0
H2460 H 0.3196 0.05186 0.50261 0.0
H2461 H 0.34324 0.03394 0.50727 0.0
H2462 H 0.36204 0.06826 0.54324 0.0
H2463 H 0.33863 0.08628 0.53824 0.0
C2464 C 0.39834 0.03526 0.53468 0.0
C2465 C 0.39662 0.01806 0.53478 0.0
C2466 C 0.38482 0.04543 0.53154 0.0
C2467 C 0.36915 0.03869 0.52855 0.0
C2468 C 0.36748 0.02145 0.52853 0.0
C2469 C 0.38106 0.01127 0.53154 0.0
C2470 C 0.32876 0.05551 0.51157 0.0
C2471 C 0.32726 0.07052 0.52002 0.0
C2472 C 0.34231 0.04522 0.51428 0.0
C2473 C 0.35465 0.04961 0.52562 0.0
C2474 C 0.35301 0.06458 0.53417 0.0
C2475 C 0.33954 0.07492 0.53135 0.0
H2476 H 0.59787 0.47093 0.53028 0.0
H2477 H 0.6317 0.5116 0.52654 0.0
H2478 H 0.62057 0.45164 0.52652 0.0
H2479 H 0.65453 0.49245 0.52347 0.0
H2480 H 0.68987 0.45553 0.50142 0.0
H2481 H 0.66681 0.47429 0.50503 0.0
H2482 H 0.64399 0.43971 0.53839 0.0
H2483 H 0.66685 0.4207 0.53415 0.0
C2484 C 0.61022 0.47572 0.52885 0.0
C2485 C 0.613 0.49277 0.52861 0.0
C2486 C 0.62328 0.46467 0.52676 0.0
C2487 C 0.6395 0.4704 0.5246 0.0
C2488 C 0.64224 0.4875 0.52468 0.0
C2489 C 0.62915 0.49852 0.52654 0.0
C2490 C 0.67993 0.45199 0.50956 0.0
C2491 C 0.68018 0.43667 0.51753 0.0
C2492 C 0.66671 0.46278 0.51171 0.0
C2493 C 0.65347 0.45867 0.52211 0.0
C2494 C 0.65377 0.44327 0.53008 0.0
C2495 C 0.66691 0.43237 0.52772 0.0
H2496 H 0.7579 0.26628 0.35993 0.0
H2497 H 0.70546 0.26462 0.36827 0.0
H2498 H 0.76094 0.28537 0.38287 0.0
H2499 H 0.70844 0.2841 0.39092 0.0
H2500 H 0.72279 0.30445 0.44176 0.0
H2501 H 0.71968 0.28534 0.41882 0.0
H2502 H 0.75449 0.31369 0.39044 0.0
H2503 H 0.75798 0.3325 0.41354 0.0
C2504 C 0.74702 0.26997 0.36666 0.0
C2505 C 0.73144 0.26387 0.36227 0.0
C2506 C 0.74874 0.28106 0.37971 0.0
C2507 C 0.73494 0.28629 0.38875 0.0
C2508 C 0.71935 0.28021 0.38433 0.0
C2509 C 0.71762 0.26918 0.37123 0.0
C2510 C 0.72988 0.30654 0.43067 0.0
C2511 C 0.74065 0.32002 0.42952 0.0
C2512 C 0.72796 0.29568 0.41745 0.0
C2513 C 0.73682 0.29797 0.40276 0.0
C2514 C 0.74759 0.31146 0.40162 0.0
C2515 C 0.74945 0.32235 0.41481 0.0
H2516 H 0.51733 0.00928 0.89701 0.0
H2517 H 0.52332 0.06137 0.88836 0.0
H2518 H 0.53477 0.00337 0.87332 0.0
H2519 H 0.54096 0.05541 0.86486 0.0
H2520 H 0.58619 0.03812 0.83566 0.0
H2521 H 0.56839 0.0438 0.85915 0.0
H2522 H 0.53492 0.00588 0.84299 0.0
H2523 H 0.55293 0.99994 0.81966 0.0
C2524 C 0.52222 0.01948 0.89 0.0
C2525 C 0.5189 0.03582 0.89467 0.0
C2526 C 0.53226 0.01608 0.87642 0.0
C2527 C 0.5393 0.02892 0.86722 0.0
C2528 C 0.53594 0.04523 0.87183 0.0
C2529 C 0.52584 0.04864 0.88535 0.0
C2530 C 0.5751 0.03091 0.83718 0.0
C2531 C 0.57101 0.01856 0.82578 0.0
C2532 C 0.56481 0.03428 0.85056 0.0
C2533 C 0.55021 0.02532 0.85294 0.0
C2534 C 0.54614 0.01292 0.84159 0.0
C2535 C 0.55638 0.00963 0.82813 0.0
H2536 H 0.27381 0.26158 0.38253 0.0
H2537 H 0.28267 0.22109 0.34936 0.0
H2538 H 0.27042 0.24232 0.40523 0.0
H2539 H 0.279 0.20174 0.37199 0.0
H2540 H 0.28694 0.17237 0.4193 0.0
H2541 H 0.29111 0.19169 0.39673 0.0
H2542 H 0.25195 0.22222 0.41574 0.0
H2543 H 0.24803 0.20305 0.43843 0.0
C2544 C 0.2749 0.24854 0.38006 0.0
C2545 C 0.27848 0.24288 0.36412 0.0
C2546 C 0.27292 0.23746 0.39309 0.0
C2547 C 0.27435 0.22041 0.3905 0.0
C2548 C 0.27804 0.21477 0.37454 0.0
C2549 C 0.28013 0.22587 0.36154 0.0
C2550 C 0.27917 0.18317 0.41859 0.0
C2551 C 0.26718 0.18618 0.4307 0.0
C2552 C 0.28153 0.19425 0.40562 0.0
C2553 C 0.27189 0.20858 0.40436 0.0
C2554 C 0.25984 0.21151 0.41644 0.0
C2555 C 0.25755 0.20049 0.42946 0.0
H2556 H 0.47214 0.47294 0.90878 0.0
H2557 H 0.51239 0.48384 0.87588 0.0
H2558 H 0.45275 0.47602 0.88606 0.0
H2559 H 0.49308 0.48679 0.85317 0.0
H2560 H 0.45287 0.50824 0.82038 0.0
H2561 H 0.47198 0.50488 0.84321 0.0
H2562 H 0.44375 0.46344 0.86076 0.0
H2563 H 0.42454 0.46691 0.83796 0.0
C2564 C 0.47687 0.47583 0.89666 0.0
C2565 C 0.49383 0.47821 0.89419 0.0
C2566 C 0.46575 0.47759 0.88362 0.0
C2567 C 0.47131 0.48172 0.86774 0.0
C2568 C 0.4883 0.48392 0.86526 0.0
C2569 C 0.4994 0.48221 0.8783 0.0
C2570 C 0.4508 0.49832 0.82903 0.0
C2571 C 0.43718 0.48783 0.82728 0.0
C2572 C 0.46179 0.49638 0.84214 0.0
C2573 C 0.45948 0.48384 0.85385 0.0
C2574 C 0.44581 0.47337 0.85213 0.0
C2575 C 0.43479 0.47535 0.83904 0.0
H2576 H 0.75698 0.74196 0.14451 0.0
H2577 H 0.70412 0.73855 0.14015 0.0
H2578 H 0.76012 0.72296 0.12162 0.0
H2579 H 0.70727 0.71885 0.11781 0.0
H2580 H 0.7186 0.69777 0.06692 0.0
H2581 H 0.71545 0.71706 0.08962 0.0
H2582 H 0.75693 0.69477 0.11428 0.0
H2583 H 0.76062 0.67608 0.0912 0.0
C2584 C 0.74601 0.73717 0.13868 0.0
C2585 C 0.73029 0.74189 0.1442 0.0
C2586 C 0.74781 0.72607 0.12566 0.0
C2587 C 0.73396 0.71929 0.11782 0.0
C2588 C 0.71823 0.72394 0.12339 0.0
C2589 C 0.71643 0.73509 0.13638 0.0
C2590 C 0.72718 0.69709 0.07709 0.0
C2591 C 0.7399 0.68534 0.07715 0.0
C2592 C 0.72523 0.70803 0.09024 0.0
C2593 C 0.73592 0.70751 0.10386 0.0
C2594 C 0.74858 0.6957 0.10395 0.0
C2595 C 0.75056 0.6848 0.09078 0.0
H2596 H 0.97068 0.02914 0.09787 0.0
H2597 H 0.01159 0.02184 0.13091 0.0
H2598 H 0.95155 0.02564 0.12075 0.0
H2599 H 0.9926 0.01875 0.15386 0.0
H2600 H 0.95447 0.99675 0.18828 0.0
H2601 H 0.97319 1.00035 0.16517 0.0
H2602 H 0.94123 0.03786 0.14518 0.0
H2603 H 0.92231 0.0339 0.16814 0.0
C2604 C 0.97558 0.02697 0.11007 0.0
C2605 C 0.99264 0.02567 0.11256 0.0
C2606 C 0.96462 0.025 0.12322 0.0
C2607 C 0.97047 0.02183 0.13922 0.0
C2608 C 0.98758 0.02081 0.1417 0.0
C2609 C 0.9985 0.02263 0.12853 0.0
C2610 C 0.95149 0.00582 0.17898 0.0
C2611 C 0.93691 0.01505 0.18006 0.0
C2612 C 0.96226 0.00794 0.16573 0.0
C2613 C 0.95882 0.01946 0.15326 0.0
C2614 C 0.9442 0.02869 0.15437 0.0
C2615 C 0.93335 0.02646 0.16756 0.0
H2616 H 0.25869 0.76828 0.14875 0.0
H2617 H 0.31065 0.77177 0.13822 0.0
H2618 H 0.25276 0.78616 0.12537 0.0
H2619 H 0.30473 0.78961 0.11488 0.0
H2620 H 0.28972 0.83533 0.08605 0.0
H2621 H 0.29509 0.81715 0.10923 0.0
H2622 H 0.2534 0.78726 0.09546 0.0
H2623 H 0.24763 0.80586 0.07258 0.0
C2624 C 0.26884 0.77272 0.14135 0.0
C2625 C 0.28516 0.76863 0.14544 0.0
C2626 C 0.26544 0.78298 0.12794 0.0
C2627 C 0.27826 0.78941 0.11826 0.0
C2628 C 0.29456 0.78515 0.12224 0.0
C2629 C 0.29796 0.7749 0.13564 0.0
C2630 C 0.28157 0.825 0.08805 0.0
C2631 C 0.2682 0.82212 0.07744 0.0
C2632 C 0.28478 0.81443 0.10124 0.0
C2633 C 0.27472 0.80067 0.1042 0.0
C2634 C 0.26132 0.79781 0.09364 0.0
C2635 C 0.25812 0.80838 0.0804 0.0
H2636 H 0.02605 0.44445 0.1125 0.0
H2637 H 0.01647 0.49644 0.10694 0.0
H2638 H 0.04394 0.45019 0.13566 0.0
H2639 H 0.03333 0.50207 0.13096 0.0
H2640 H 0.07778 0.50896 0.16405 0.0
H2641 H 0.06045 0.5032 0.14043 0.0
H2642 H 0.04446 0.45794 0.16326 0.0
H2643 H 0.06279 0.46304 0.18625 0.0
C2644 C 0.02772 0.45713 0.11618 0.0
C2645 C 0.0198 0.46996 0.10767 0.0
C2646 C 0.03781 0.46041 0.12973 0.0
C2647 C 0.04013 0.47662 0.13534 0.0
C2648 C 0.03209 0.48944 0.12692 0.0
C2649 C 0.02215 0.48617 0.11324 0.0
C2650 C 0.0708 0.49763 0.16396 0.0
C2651 C 0.07185 0.48645 0.17715 0.0
C2652 C 0.06059 0.49445 0.15046 0.0
C2653 C 0.05095 0.48009 0.14982 0.0
C2654 C 0.05185 0.46901 0.1631 0.0
C2655 C 0.06221 0.47209 0.1765 0.0
H2656 H 0.3558 0.74711 0.26977 0.0
H2657 H 0.3686 0.6956 0.26889 0.0
H2658 H 0.37934 0.75265 0.28756 0.0
H2659 H 0.39233 0.70112 0.28633 0.0
H2660 H 0.42291 0.7131 0.33148 0.0
H2661 H 0.39944 0.70809 0.31368 0.0
H2662 H 0.40856 0.75404 0.28859 0.0
H2663 H 0.43148 0.75953 0.30709 0.0
C2664 C 0.36376 0.737 0.27323 0.0
C2665 C 0.36028 0.7209 0.26799 0.0
C2666 C 0.3773 0.74017 0.28341 0.0
C2667 C 0.38778 0.72733 0.28849 0.0
C2668 C 0.38438 0.71127 0.283 0.0
C2669 C 0.37079 0.7081 0.27295 0.0
C2670 C 0.41981 0.72227 0.32233 0.0
C2671 C 0.42913 0.73677 0.32083 0.0
C2672 C 0.40645 0.71927 0.31191 0.0
C2673 C 0.40206 0.73061 0.29959 0.0
C2674 C 0.41142 0.74509 0.29804 0.0
C2675 C 0.42474 0.74814 0.30853 0.0
H2676 H 0.94637 0.38375 0.98773 0.0
H2677 H 0.99628 0.40095 0.98202 0.0
H2678 H 0.95245 0.36024 0.96995 0.0
H2679 H 1.00236 0.37743 0.96423 0.0
H2680 H 0.99895 0.34418 0.91757 0.0
H2681 H 0.99338 0.36743 0.93585 0.0
H2682 H 0.97049 0.33458 0.97071 0.0
H2683 H 0.97608 0.31131 0.95243 0.0
C2684 C 0.95863 0.38251 0.98264 0.0
C2685 C 0.97084 0.3942 0.98625 0.0
C2686 C 0.96214 0.369 0.97257 0.0
C2687 C 0.97788 0.367 0.96569 0.0
C2688 C 0.99009 0.37871 0.96926 0.0
C2689 C 0.98664 0.39209 0.97953 0.0
C2690 C 0.99271 0.34194 0.92913 0.0
C2691 C 0.98795 0.32593 0.93357 0.0
C2692 C 0.98963 0.35522 0.93964 0.0
C2693 C 0.98149 0.35282 0.95471 0.0
C2694 C 0.97669 0.33682 0.95913 0.0
C2695 C 0.97999 0.3235 0.94873 0.0
H2696 H 0.62689 0.76686 0.24629 0.0
H2697 H 0.65845 0.78239 0.28613 0.0
H2698 H 0.60421 0.76349 0.26558 0.0
H2699 H 0.63565 0.77921 0.30539 0.0
H2700 H 0.58574 0.78788 0.33125 0.0
H2701 H 0.6087 0.79139 0.31225 0.0
H2702 H 0.5961 0.74561 0.28852 0.0
H2703 H 0.57329 0.74196 0.30761 0.0
C2704 C 0.62906 0.76943 0.25917 0.0
C2705 C 0.64458 0.77483 0.26462 0.0
C2706 C 0.61602 0.76752 0.27024 0.0
C2707 C 0.61811 0.77103 0.28705 0.0
C2708 C 0.63356 0.77659 0.29249 0.0
C2709 C 0.64664 0.77843 0.28143 0.0
C2710 C 0.58796 0.77846 0.32211 0.0
C2711 C 0.57759 0.76464 0.32099 0.0
C2712 C 0.60113 0.78049 0.31119 0.0
C2713 C 0.60423 0.76881 0.29882 0.0
C2714 C 0.59391 0.75498 0.29772 0.0
C2715 C 0.58079 0.75291 0.30867 0.0
H2716 H 0.01758 0.12937 0.01093 0.0
H2717 H 0.03544 0.09843 0.97158 0.0
H2718 H 0.014 0.15189 0.9916 0.0
H2719 H 0.03279 0.12129 0.95242 0.0
H2720 H 0.0091 0.15992 0.919 0.0
H2721 H 0.0128 0.13719 0.9382 0.0
H2722 H 0.02858 0.17144 0.97566 0.0
H2723 H 0.02453 0.19416 0.95652 0.0
C2724 C 0.02076 0.12734 0.99815 0.0
C2725 C 0.02672 0.11198 0.99286 0.0
C2726 C 0.01893 0.14038 0.98708 0.0
C2727 C 0.02312 0.1385 0.97039 0.0
C2728 C 0.02923 0.12318 0.96511 0.0
C2729 C 0.03097 0.11009 0.97618 0.0
C2730 C 0.01346 0.16257 0.93131 0.0
C2731 C 0.01648 0.17887 0.93623 0.0
C2732 C 0.01563 0.14952 0.94233 0.0
C2733 C 0.02099 0.1524 0.95855 0.0
C2734 C 0.02414 0.16872 0.9634 0.0
C2735 C 0.02185 0.18178 0.95241 0.0
H2736 H 0.36367 0.24778 0.24354 0.0
H2737 H 0.36534 0.30055 0.23732 0.0
H2738 H 0.38657 0.24484 0.22442 0.0
H2739 H 0.3879 0.29746 0.21779 0.0
H2740 H 0.41595 0.28239 0.17032 0.0
H2741 H 0.393 0.28555 0.18954 0.0
H2742 H 0.4167 0.25209 0.2233 0.0
H2743 H 0.43958 0.24885 0.20404 0.0
C2744 C 0.36895 0.25878 0.23822 0.0
C2745 C 0.3626 0.27442 0.2421 0.0
C2746 C 0.38205 0.25706 0.22719 0.0
C2747 C 0.38905 0.27092 0.2196 0.0
C2748 C 0.38264 0.28654 0.22329 0.0
C2749 C 0.36964 0.28828 0.23447 0.0
C2750 C 0.41621 0.27567 0.18182 0.0
C2751 C 0.42957 0.26537 0.18567 0.0
C2752 C 0.40314 0.27758 0.19287 0.0
C2753 C 0.40303 0.26906 0.20793 0.0
C2754 C 0.41636 0.25872 0.21174 0.0
C2755 C 0.42953 0.25697 0.20079 0.0
H2756 H 0.51998 0.37521 0.99641 0.0
H2757 H 0.53729 0.40666 0.03558 0.0
H2758 H 0.51665 0.35279 0.01588 0.0
H2759 H 0.53489 0.3839 0.05491 0.0
H2760 H 0.51134 0.34504 0.08838 0.0
H2761 H 0.51509 0.36778 0.06919 0.0
H2762 H 0.53151 0.33357 0.03195 0.0
H2763 H 0.5274 0.31086 0.05107 0.0
C2764 C 0.52309 0.37738 0.00917 0.0
C2765 C 0.52883 0.39285 0.01437 0.0
C2766 C 0.52141 0.3644 0.02034 0.0
C2767 C 0.52553 0.36644 0.03703 0.0
C2768 C 0.5314 0.38188 0.04221 0.0
C2769 C 0.533 0.3949 0.03105 0.0
C2770 C 0.51587 0.34241 0.07613 0.0
C2771 C 0.519 0.32613 0.07123 0.0
C2772 C 0.51807 0.35546 0.06511 0.0
C2773 C 0.52357 0.35258 0.04894 0.0
C2774 C 0.52694 0.33628 0.04416 0.0
C2775 C 0.52462 0.32323 0.05514 0.0
H2776 H 0.64875 0.25563 0.23936 0.0
H2777 H 0.63705 0.20408 0.24393 0.0
H2778 H 0.62614 0.25913 0.22001 0.0
H2779 H 0.61413 0.20759 0.22486 0.0
H2780 H 0.58357 0.21606 0.17863 0.0
H2781 H 0.60697 0.2125 0.19697 0.0
H2782 H 0.59712 0.26001 0.21864 0.0
H2783 H 0.57441 0.26401 0.19964 0.0
C2784 C 0.64123 0.24507 0.23633 0.0
C2785 C 0.64466 0.22959 0.24323 0.0
C2786 C 0.62821 0.24707 0.22526 0.0
C2787 C 0.61817 0.23367 0.22087 0.0
C2788 C 0.6217 0.21815 0.22771 0.0
C2789 C 0.63483 0.21613 0.23869 0.0
C2790 C 0.58652 0.22587 0.18713 0.0
C2791 C 0.57703 0.24035 0.18756 0.0
C2792 C 0.59984 0.22372 0.19785 0.0
C2793 C 0.604 0.23594 0.20937 0.0
C2794 C 0.59448 0.2504 0.20982 0.0
C2795 C 0.58124 0.25259 0.19904 0.0
H2796 H 0.4704 0.09525 0.04204 0.0
H2797 H 0.47696 0.12599 0.99926 0.0
H2798 H 0.47638 0.11861 0.05983 0.0
H2799 H 0.48254 0.14952 0.017 0.0
H2800 H 0.50703 0.18489 0.05307 0.0
H2801 H 0.50198 0.16126 0.03529 0.0
H2802 H 0.46513 0.14368 0.06935 0.0
H2803 H 0.47052 0.16708 0.08725 0.0
C2804 C 0.47298 0.10706 0.03644 0.0
C2805 C 0.47318 0.10877 0.01924 0.0
C2806 C 0.47637 0.12049 0.04664 0.0
C2807 C 0.47989 0.13605 0.03991 0.0
C2808 C 0.48015 0.13771 0.02267 0.0
C2809 C 0.4769 0.12423 0.01247 0.0
C2810 C 0.49781 0.17599 0.0567 0.0
C2811 C 0.48921 0.17784 0.07159 0.0
C2812 C 0.49487 0.16245 0.04649 0.0
C2813 C 0.48314 0.15047 0.05083 0.0
C2814 C 0.47449 0.15242 0.06571 0.0
C2815 C 0.47754 0.16588 0.07598 0.0
H2816 H 0.26395 0.36102 0.75628 0.0
H2817 H 0.26604 0.36687 0.70348 0.0
H2818 H 0.28308 0.38383 0.75956 0.0
H2819 H 0.28541 0.38953 0.70681 0.0
H2820 H 0.33281 0.41813 0.71944 0.0
H2821 H 0.31391 0.39502 0.71605 0.0
H2822 H 0.28381 0.41387 0.75555 0.0
H2823 H 0.30288 0.43675 0.75918 0.0
C2824 C 0.26837 0.36723 0.74536 0.0
C2825 C 0.26333 0.36209 0.72961 0.0
C2826 C 0.27938 0.3803 0.74725 0.0
C2827 C 0.28575 0.38854 0.73345 0.0
C2828 C 0.28089 0.38332 0.71769 0.0
C2829 C 0.26979 0.37029 0.7158 0.0
C2830 C 0.32222 0.41727 0.72747 0.0
C2831 C 0.31936 0.42929 0.73958 0.0
C2832 C 0.3113 0.40412 0.72542 0.0
C2833 C 0.29734 0.40259 0.73552 0.0
C2834 C 0.29452 0.41459 0.74766 0.0
C2835 C 0.30536 0.4278 0.74963 0.0
H2836 H 0.28543 0.65683 0.78049 0.0
H2837 H 0.24484 0.6231 0.77501 0.0
H2838 H 0.30479 0.63417 0.77706 0.0
H2839 H 0.2641 0.60034 0.77204 0.0
H2840 H 0.30238 0.56572 0.75043 0.0
H2841 H 0.28328 0.58857 0.75376 0.0
H2842 H 0.31582 0.61043 0.78968 0.0
H2843 H 0.33511 0.58774 0.78593 0.0
C2844 C 0.28065 0.64453 0.77874 0.0
C2845 C 0.2636 0.64178 0.77796 0.0
C2846 C 0.29175 0.63149 0.77682 0.0
C2847 C 0.28608 0.61533 0.77423 0.0
C2848 C 0.26899 0.61261 0.77366 0.0
C2849 C 0.25791 0.62566 0.77542 0.0
C2850 C 0.3054 0.57537 0.7591 0.0
C2851 C 0.32025 0.5749 0.76793 0.0
C2852 C 0.29442 0.58848 0.76106 0.0
C2853 C 0.29791 0.60141 0.77204 0.0
C2854 C 0.31279 0.60089 0.7809 0.0
C2855 C 0.32385 0.58785 0.77881 0.0
H2856 H 0.91031 0.46375 0.46524 0.0
H2857 H 0.88126 0.50642 0.47782 0.0
H2858 H 0.88668 0.44609 0.47057 0.0
H2859 H 0.85775 0.48868 0.48367 0.0
H2860 H 0.81453 0.45336 0.47386 0.0
H2861 H 0.83809 0.47126 0.46906 0.0
H2862 H 0.86977 0.43608 0.49319 0.0
H2863 H 0.8462 0.41821 0.49808 0.0
C2864 C 0.89887 0.46937 0.46914 0.0
C2865 C 0.89768 0.48652 0.47104 0.0
C2866 C 0.88537 0.45922 0.47238 0.0
C2867 C 0.87029 0.46595 0.47756 0.0
C2868 C 0.86912 0.4831 0.47954 0.0
C2869 C 0.88265 0.49325 0.47636 0.0
C2870 C 0.82648 0.4495 0.4783 0.0
C2871 C 0.82843 0.4343 0.48634 0.0
C2872 C 0.84 0.45978 0.47555 0.0
C2873 C 0.85584 0.45512 0.48073 0.0
C2874 C 0.85779 0.43995 0.48881 0.0
C2875 C 0.84427 0.42968 0.49159 0.0
H2876 H 0.73754 0.85625 0.75027 0.0
H2877 H 0.74432 0.86903 0.80136 0.0
H2878 H 0.71833 0.87917 0.74706 0.0
H2879 H 0.72498 0.89188 0.7982 0.0
H2880 H 0.70532 0.9422 0.77954 0.0
H2881 H 0.72405 0.91894 0.78322 0.0
H2882 H 0.69026 0.8876 0.75686 0.0
H2883 H 0.6716 0.91088 0.75306 0.0
C2884 C 0.73493 0.86397 0.76081 0.0
C2885 C 0.74247 0.86085 0.77606 0.0
C2886 C 0.72383 0.87701 0.75901 0.0
C2887 C 0.72015 0.88734 0.77237 0.0
C2888 C 0.72767 0.88421 0.78764 0.0
C2889 C 0.73863 0.87105 0.78949 0.0
C2890 C 0.70192 0.93035 0.77448 0.0
C2891 C 0.68699 0.92838 0.76599 0.0
C2892 C 0.71258 0.91701 0.77671 0.0
C2893 C 0.70863 0.90143 0.77033 0.0
C2894 C 0.6937 0.89947 0.76182 0.0
C2895 C 0.68296 0.91277 0.75976 0.0
H2896 H 0.61833 0.51596 0.95345 0.0
H2897 H 0.61302 0.51378 0.00628 0.0
H2898 H 0.64048 0.5359 0.95652 0.0
H2899 H 0.63569 0.53304 0.00937 0.0
H2900 H 0.6657 0.5801 0.00934 0.0
H2901 H 0.64278 0.56126 0.00554 0.0
H2902 H 0.66856 0.53801 0.9653 0.0
H2903 H 0.69114 0.55742 0.96855 0.0
C2904 C 0.62185 0.51974 0.96572 0.0
C2905 C 0.61384 0.51321 0.97961 0.0
C2906 C 0.63472 0.53104 0.96749 0.0
C2907 C 0.63995 0.5361 0.9832 0.0
C2908 C 0.6319 0.52961 0.99707 0.0
C2909 C 0.61901 0.51835 0.9953 0.0
C2910 C 0.66641 0.57114 0.99952 0.0
C2911 C 0.68032 0.57035 0.98924 0.0
C2912 C 0.65333 0.56015 0.99748 0.0
C2913 C 0.65379 0.54802 0.98515 0.0
C2914 C 0.66766 0.54728 0.97482 0.0
C2915 C 0.68074 0.5583 0.97682 0.0
H2916 H 0.21481 0.6578 0.21171 0.0
H2917 H 0.25661 0.63097 0.2308 0.0
H2918 H 0.19726 0.63414 0.21702 0.0
H2919 H 0.23878 0.60757 0.2367 0.0
H2920 H 0.196 0.57729 0.26051 0.0
H2921 H 0.21414 0.60061 0.25531 0.0
H2922 H 0.19486 0.60477 0.20605 0.0
H2923 H 0.1772 0.58108 0.21087 0.0
C2924 C 0.22033 0.64687 0.21694 0.0
C2925 C 0.23724 0.64637 0.22069 0.0
C2926 C 0.21021 0.63333 0.22006 0.0
C2927 C 0.21665 0.619 0.22724 0.0
C2928 C 0.23344 0.61852 0.23129 0.0
C2929 C 0.24364 0.63199 0.22796 0.0
C2930 C 0.19576 0.58296 0.24846 0.0
C2931 C 0.18502 0.5772 0.23614 0.0
C2932 C 0.20614 0.59639 0.24554 0.0
C2933 C 0.20587 0.60455 0.23031 0.0
C2934 C 0.19517 0.59887 0.21799 0.0
C2935 C 0.18497 0.58531 0.22082 0.0
H2936 H 0.91006 0.53966 0.03636 0.0
H2937 H 0.87872 0.49722 0.03079 0.0
H2938 H 0.88679 0.55767 0.03077 0.0
H2939 H 0.85522 0.51521 0.02563 0.0
H2940 H 0.81958 0.55184 1.00203 0.0
H2941 H 0.84301 0.53362 0.00657 0.0
H2942 H 0.86226 0.56757 0.04267 0.0
H2943 H 0.83908 0.5859 0.03775 0.0
C2944 C 0.89813 0.53418 0.03408 0.0
C2945 C 0.89622 0.51701 0.03409 0.0
C2946 C 0.88474 0.54451 0.03093 0.0
C2947 C 0.86901 0.53796 0.02785 0.0
C2948 C 0.86715 0.52074 0.02771 0.0
C2949 C 0.88061 0.5104 0.03072 0.0
C2950 C 0.8288 0.55535 0.01098 0.0
C2951 C 0.8275 0.57034 0.01949 0.0
C2952 C 0.84223 0.54488 0.01363 0.0
C2953 C 0.85463 0.54907 0.02498 0.0
C2954 C 0.85319 0.56403 0.03358 0.0
C2955 C 0.83985 0.57455 0.03081 0.0
H2956 H 0.11275 0.99229 0.99998 0.0
H2957 H 0.11575 0.9873 0.05283 0.0
H2958 H 0.13549 0.97318 0.99689 0.0
H2959 H 0.13773 0.96727 0.04968 0.0
H2960 H 0.18837 0.94552 0.0396 0.0
H2961 H 0.16571 0.96473 0.04281 0.0
H2962 H 0.14305 0.94537 0.99879 0.0
H2963 H 0.16629 0.927 0.99493 0.0
C2964 C 0.11822 0.98713 0.01097 0.0
C2965 C 0.11237 0.99149 0.02667 0.0
C2966 C 0.13115 0.97591 0.00918 0.0
C2967 C 0.13852 0.96856 0.02302 0.0
C2968 C 0.13256 0.9728 0.03872 0.0
C2969 C 0.11973 0.98415 0.04052 0.0
C2970 C 0.17868 0.94548 0.03046 0.0
C2971 C 0.17932 0.93468 0.01693 0.0
C2972 C 0.1655 0.95637 0.03245 0.0
C2973 C 0.15245 0.95669 0.02107 0.0
C2974 C 0.15295 0.94571 0.00769 0.0
C2975 C 0.16622 0.93493 0.00561 0.0
loop_
_geom_bond_atom_site_label_1
_geom_bond_atom_site_label_2
_geom_bond_distance
_geom_bond_site_symmetry_2
_ccdc_geom_bond_type
C0 C1 1.391 . S
C0 C4 1.391 . S
C0 H42 0.948 . S
C1 C0 1.391 . S
C1 C2 1.391 1_556 S
C2 C1 1.391 1_554 S
C2 H58 0.947 1_455 S
C2 C59 1.392 . S
C3 C4 1.391 1_554 S
C3 C7 1.397 . S
C3 C59 1.419 . S
C4 C0 1.391 . S
C4 C3 1.391 1_556 S
C4 C5 1.396 1_556 S
C5 C4 1.396 1_554 S
C5 C8 1.434 . S
C5 C17 1.456 . S
C5 C18 1.649 1_554 S
H6 C30 0.948 . S
C7 C3 1.397 . S
C7 C8 1.394 . S
C7 C26 1.723 . S
C8 C5 1.434 . S
C8 C7 1.394 . S
C8 C38 1.723 . S
H9 C32 0.947 1_556 S
H10 C33 0.918 1_556 S
H11 C39 0.982 . S
H12 C40 0.979 . S
H13 C40 0.980 . S
H14 C40 0.983 . S
H15 C39 0.979 1_565 S
H16 C39 0.977 . S
C17 C5 1.456 . S
C17 H46 0.982 . S
C17 H47 0.979 1_554 S
C17 H48 0.977 . S
C18 C5 1.649 1_556 S
C18 H43 0.979 . S
C18 H44 0.980 . S
C18 H45 0.983 . S
C19 C20 1.391 . S
C19 C24 1.391 . S
C19 H49 0.948 . S
C20 C19 1.391 . S
C20 C21 1.391 1_655 S
C21 C20 1.391 1_455 S
C21 C22 1.392 . S
C21 H50 0.947 1_545 S
C22 C21 1.392 . S
C22 C23 1.419 . S
C22 H51 0.918 1_545 S
C23 C22 1.419 . S
C23 C24 1.391 1_455 S
C23 C27 1.397 . S
C24 C19 1.391 . S
C24 C23 1.391 1_655 S
C24 C25 1.396 1_655 S
C25 C24 1.396 1_455 S
C25 C26 1.434 . S
C25 C28 1.456 . S
C25 C29 1.649 1_455 S
C26 C7 1.723 . S
C26 C25 1.434 . S
C26 C27 1.394 . S
C27 C23 1.397 . S
C27 C26 1.394 . S
C27 C37 1.723 . S
C28 C25 1.456 . S
C28 H52 0.982 . S
C28 H53 0.979 1_455 S
C28 H54 0.977 . S
C29 C25 1.649 1_655 S
C29 H55 0.979 . S
C29 H56 0.980 . S
C29 H57 0.983 . S
C30 H6 0.948 . S
C30 C31 1.391 . S
C30 C35 1.391 . S
C31 C30 1.391 . S
C31 C32 1.391 1_565 S
C32 H9 0.947 1_554 S
C32 C31 1.391 1_545 S
C32 C33 1.392 . S
C33 H10 0.918 1_554 S
C33 C32 1.392 . S
C33 C34 1.419 . S
C34 C33 1.419 . S
C34 C35 1.391 1_545 S
C34 C38 1.397 . S
C35 C30 1.391 . S
C35 C34 1.391 1_565 S
C35 C36 1.396 1_565 S
C36 C35 1.396 1_545 S
C36 C37 1.434 . S
C36 C39 1.456 . S
C36 C40 1.649 1_545 S
C37 C27 1.723 . S
C37 C36 1.434 . S
C37 C38 1.394 . S
C38 C8 1.723 . S
C38 C34 1.397 . S
C38 C37 1.394 . S
C39 H11 0.982 . S
C39 H15 0.979 1_545 S
C39 H16 0.977 . S
C39 C36 1.456 . S
C40 H12 0.979 . S
C40 H13 0.980 . S
C40 H14 0.983 . S
C40 C36 1.649 1_565 S
H41 C59 0.918 1_655 S
H42 C0 0.948 . S
H43 C18 0.979 . S
H44 C18 0.980 . S
H45 C18 0.983 . S
H46 C17 0.982 . S
H47 C17 0.979 1_556 S
H48 C17 0.977 . S
H49 C19 0.948 . S
H50 C21 0.947 1_565 S
H51 C22 0.918 1_565 S
H52 C28 0.982 . S
H53 C28 0.979 1_655 S
H54 C28 0.977 . S
H55 C29 0.979 . S
H56 C29 0.980 . S
H57 C29 0.983 . S
H58 C2 0.947 1_655 S
C59 C2 1.392 . S
C59 C3 1.419 . S
C59 H41 0.918 1_455 S
C60 C61 1.391 . S
C60 C64 1.391 . S
C60 H102 0.948 . S
C61 C60 1.391 . S
C61 C62 1.391 . S
C62 C61 1.391 . S
C62 H118 0.947 . S
C62 C119 1.392 . S
C63 C64 1.391 . S
C63 C67 1.397 . S
C63 C119 1.419 . S
C64 C60 1.391 . S
C64 C63 1.391 . S
C64 C65 1.399 . S
C65 C64 1.399 . S
C65 C68 1.396 . S
C65 C77 1.453 . S
C65 C78 1.684 . S
H66 C90 0.948 . S
C67 C63 1.397 . S
C67 C68 1.394 . S
C67 C86 1.723 . S
C68 C65 1.396 . S
C68 C67 1.394 . S
C68 C98 1.723 . S
H69 C92 0.947 . S
H70 C93 0.948 . S
H71 C99 0.982 . S
H72 C100 0.979 . S
H73 C100 0.980 . S
H74 C100 0.983 . S
H75 C99 0.979 . S
H76 C99 0.977 . S
C77 C65 1.453 . S
C77 H106 0.982 . S
C77 H107 0.979 . S
C77 H108 0.977 . S
C78 C65 1.684 . S
C78 H103 0.979 . S
C78 H104 0.980 . S
C78 H105 0.983 . S
C79 C80 1.391 . S
C79 C84 1.391 . S
C79 H109 0.948 . S
C80 C79 1.391 . S
C80 C81 1.391 . S
C81 C80 1.391 . S
C81 C82 1.392 . S
C81 H110 0.947 . S
C82 C81 1.392 . S
C82 C83 1.419 . S
C82 H111 0.948 . S
C83 C82 1.419 . S
C83 C84 1.391 . S
C83 C87 1.397 . S
C84 C79 1.391 . S
C84 C83 1.391 . S
C84 C85 1.399 . S
C85 C84 1.399 . S
C85 C86 1.396 . S
C85 C88 1.453 . S
C85 C89 1.684 . S
C86 C67 1.723 . S
C86 C85 1.396 . S
C86 C87 1.394 . S
C87 C83 1.397 . S
C87 C86 1.394 . S
C87 C97 1.723 . S
C88 C85 1.453 . S
C88 H112 0.982 . S
C88 H113 0.979 . S
C88 H114 0.977 . S
C89 C85 1.684 . S
C89 H115 0.979 . S
C89 H116 0.980 . S
C89 H117 0.983 . S
C90 H66 0.948 . S
C90 C91 1.391 . S
C90 C95 1.391 . S
C91 C90 1.391 . S
C91 C92 1.391 . S
C92 H69 0.947 . S
C92 C91 1.391 . S
C92 C93 1.392 . S
C93 H70 0.948 . S
C93 C92 1.392 . S
C93 C94 1.419 . S
C94 C93 1.419 . S
C94 C95 1.391 . S
C94 C98 1.397 . S
C95 C90 1.391 . S
C95 C94 1.391 . S
C95 C96 1.399 . S
C96 C95 1.399 . S
C96 C97 1.396 . S
C96 C99 1.453 . S
C96 C100 1.684 . S
C97 C87 1.723 . S
C97 C96 1.396 . S
C97 C98 1.394 . S
C98 C68 1.723 . S
C98 C94 1.397 . S
C98 C97 1.394 . S
C99 H71 0.982 . S
C99 H75 0.979 . S
C99 H76 0.977 . S
C99 C96 1.453 . S
C100 H72 0.979 . S
C100 H73 0.980 . S
C100 H74 0.983 . S
C100 C96 1.684 . S
H101 C119 0.948 . S
H102 C60 0.948 . S
H103 C78 0.979 . S
H104 C78 0.980 . S
H105 C78 0.983 . S
H106 C77 0.982 . S
H107 C77 0.979 . S
H108 C77 0.977 . S
H109 C79 0.948 . S
H110 C81 0.947 . S
H111 C82 0.948 . S
H112 C88 0.982 . S
H113 C88 0.979 . S
H114 C88 0.977 . S
H115 C89 0.979 . S
H116 C89 0.980 . S
H117 C89 0.983 . S
H118 C62 0.947 . S
C119 C62 1.392 . S
C119 C63 1.419 . S
C119 H101 0.948 . S
C120 C121 1.394 1_554 S
C120 C124 1.389 . S
C120 H162 0.947 . S
C121 C120 1.394 1_556 S
C121 C122 1.391 . S
C122 C121 1.391 . S
C122 H178 0.947 . S
C122 C179 1.392 . S
C123 C124 1.391 . S
C123 C127 1.397 . S
C123 C179 1.419 1_554 S
C124 C120 1.389 . S
C124 C123 1.391 . S
C124 C125 1.399 . S
C125 C124 1.399 . S
C125 C128 1.396 . S
C125 C137 1.453 . S
C125 C138 1.684 1_655 S
H126 C150 0.947 . S
C127 C123 1.397 . S
C127 C128 1.394 . S
C127 C146 1.723 . S
C128 C125 1.396 . S
C128 C127 1.394 . S
C128 C158 1.723 . S
H129 C152 0.947 . S
H130 C153 0.948 . S
H131 C159 0.982 . S
H132 C160 0.979 . S
H133 C160 0.980 . S
H134 C160 0.983 . S
H135 C159 0.979 . S
H136 C159 0.977 . S
C137 C125 1.453 . S
C137 H166 0.982 . S
C137 H167 0.974 1_655 S
C137 H168 0.977 . S
C138 C125 1.684 1_455 S
C138 H163 0.979 . S
C138 H164 0.980 . S
C138 H165 0.983 . S
C139 C140 1.391 . S
C139 C144 1.391 . S
C139 H169 0.948 . S
C140 C139 1.391 . S
C140 C141 1.391 . S
C141 C140 1.391 . S
C141 C142 1.392 . S
C141 H170 0.947 . S
C142 C141 1.392 . S
C142 C143 1.419 . S
C142 H171 0.948 . S
C143 C142 1.419 . S
C143 C144 1.391 . S
C143 C147 1.397 . S
C144 C139 1.391 . S
C144 C143 1.391 . S
C144 C145 1.399 . S
C145 C144 1.399 . S
C145 C146 1.396 . S
C145 C148 1.453 . S
C145 C149 1.684 1_554 S
C146 C127 1.723 . S
C146 C145 1.396 . S
C146 C147 1.394 . S
C147 C143 1.397 . S
C147 C146 1.394 . S
C147 C157 1.723 . S
C148 C145 1.453 . S
C148 H172 0.982 . S
C148 H173 0.974 1_554 S
C148 H174 0.977 . S
C149 C145 1.684 1_556 S
C149 H175 0.979 . S
C149 H176 0.980 . S
C149 H177 0.983 . S
C150 H126 0.947 . S
C150 C151 1.395 1_655 S
C150 C155 1.389 . S
C151 C150 1.395 1_455 S
C151 C152 1.391 . S
C152 H129 0.947 . S
C152 C151 1.391 . S
C152 C153 1.392 . S
C153 H130 0.948 . S
C153 C152 1.392 . S
C153 C154 1.419 1_455 S
C154 C153 1.419 1_655 S
C154 C155 1.391 . S
C154 C158 1.397 . S
C155 C150 1.389 . S
C155 C154 1.391 . S
C155 C156 1.399 . S
C156 C155 1.399 . S
C156 C157 1.396 . S
C156 C159 1.453 . S
C156 C160 1.684 . S
C157 C147 1.723 . S
C157 C156 1.396 . S
C157 C158 1.394 . S
C158 C128 1.723 . S
C158 C154 1.397 . S
C158 C157 1.394 . S
C159 H131 0.982 . S
C159 H135 0.979 . S
C159 H136 0.977 . S
C159 C156 1.453 . S
C160 H132 0.979 . S
C160 H133 0.980 . S
C160 H134 0.983 . S
C160 C156 1.684 . S
H161 C179 0.948 . S
H162 C120 0.947 . S
H163 C138 0.979 . S
H164 C138 0.980 . S
H165 C138 0.983 . S
H166 C137 0.982 . S
H167 C137 0.974 1_455 S
H168 C137 0.977 . S
H169 C139 0.948 . S
H170 C141 0.947 . S
H171 C142 0.948 . S
H172 C148 0.982 . S
H173 C148 0.974 1_556 S
H174 C148 0.977 . S
H175 C149 0.979 . S
H176 C149 0.980 . S
H177 C149 0.983 . S
H178 C122 0.947 . S
C179 C122 1.392 . S
C179 C123 1.419 1_556 S
C179 H161 0.948 . S
C180 C181 1.391 . S
C180 C184 1.391 . S
C180 H222 0.948 . S
C181 C180 1.391 . S
C181 C182 1.391 . S
C182 C181 1.391 . S
C182 H238 0.947 . S
C182 C239 1.392 . S
C183 C184 1.391 . S
C183 C187 1.397 . S
C183 C239 1.419 . S
C184 C180 1.391 . S
C184 C183 1.391 . S
C184 C185 1.399 . S
C185 C184 1.399 . S
C185 C188 1.396 . S
C185 C197 1.453 . S
C185 C198 1.684 . S
H186 C210 0.948 . S
C187 C183 1.397 . S
C187 C188 1.394 . S
C187 C206 1.723 . S
C188 C185 1.396 . S
C188 C187 1.394 . S
C188 C218 1.723 . S
H189 C212 0.947 . S
H190 C213 0.948 . S
H191 C219 0.982 . S
H192 C220 0.979 . S
H193 C220 0.980 . S
H194 C220 0.983 . S
H195 C219 0.979 . S
H196 C219 0.977 . S
C197 C185 1.453 . S
C197 H226 0.982 . S
C197 H227 0.979 . S
C197 H228 0.977 . S
C198 C185 1.684 . S
C198 H223 0.979 . S
C198 H224 0.980 . S
C198 H225 0.983 . S
C199 C200 1.391 . S
C199 C204 1.391 . S
C199 H229 0.948 . S
C200 C199 1.391 . S
C200 C201 1.391 . S
C201 C200 1.391 . S
C201 C202 1.392 . S
C201 H230 0.947 . S
C202 C201 1.392 . S
C202 C203 1.419 . S
C202 H231 0.948 . S
C203 C202 1.419 . S
C203 C204 1.391 . S
C203 C207 1.397 . S
C204 C199 1.391 . S
C204 C203 1.391 . S
C204 C205 1.399 . S
C205 C204 1.399 . S
C205 C206 1.396 . S
C205 C208 1.453 . S
C205 C209 1.684 . S
C206 C187 1.723 . S
C206 C205 1.396 . S
C206 C207 1.394 . S
C207 C203 1.397 . S
C207 C206 1.394 . S
C207 C217 1.723 . S
C208 C205 1.453 . S
C208 H232 0.982 . S
C208 H233 0.979 . S
C208 H234 0.977 . S
C209 C205 1.684 . S
C209 H235 0.979 . S
C209 H236 0.980 . S
C209 H237 0.983 . S
C210 H186 0.948 . S
C210 C211 1.391 . S
C210 C215 1.391 . S
C211 C210 1.391 . S
C211 C212 1.391 . S
C212 H189 0.947 . S
C212 C211 1.391 . S
C212 C213 1.392 . S
C213 H190 0.948 . S
C213 C212 1.392 . S
C213 C214 1.419 . S
C214 C213 1.419 . S
C214 C215 1.391 . S
C214 C218 1.397 . S
C215 C210 1.391 . S
C215 C214 1.391 . S
C215 C216 1.399 . S
C216 C215 1.399 . S
C216 C217 1.396 . S
C216 C219 1.453 . S
C216 C220 1.684 . S
C217 C207 1.723 . S
C217 C216 1.396 . S
C217 C218 1.394 . S
C218 C188 1.723 . S
C218 C214 1.397 . S
C218 C217 1.394 . S
C219 H191 0.982 . S
C219 H195 0.979 . S
C219 H196 0.977 . S
C219 C216 1.453 . S
C220 H192 0.979 . S
C220 H193 0.980 . S
C220 H194 0.983 . S
C220 C216 1.684 . S
H221 C239 0.948 . S
H222 C180 0.948 . S
H223 C198 0.979 . S
H224 C198 0.980 . S
H225 C198 0.983 . S
H226 C197 0.982 . S
H227 C197 0.979 . S
H228 C197 0.977 . S
H229 C199 0.948 . S
H230 C201 0.947 . S
H231 C202 0.948 . S
H232 C208 0.982 . S
H233 C208 0.979 . S
H234 C208 0.977 . S
H235 C209 0.979 . S
H236 C209 0.980 . S
H237 C209 0.983 . S
H238 C182 0.947 . S
C239 C182 1.392 . S
C239 C183 1.419 . S
C239 H221 0.948 . S
C240 C241 1.391 . S
C240 C244 1.391 . S
C240 H282 0.948 . S
C241 C240 1.391 . S
C241 C242 1.391 . S
C242 C241 1.391 . S
C242 H298 0.940 1_455 S
C242 C299 1.392 . S
C243 C244 1.391 . S
C243 C247 1.397 . S
C243 C299 1.419 . S
C244 C240 1.391 . S
C244 C243 1.391 . S
C244 C245 1.399 . S
C245 C244 1.399 . S
C245 C248 1.396 . S
C245 C257 1.453 . S
C245 C258 1.684 . S
H246 C270 0.948 . S
C247 C243 1.397 . S
C247 C248 1.394 . S
C247 C266 1.723 . S
C248 C245 1.396 . S
C248 C247 1.394 . S
C248 C278 1.723 . S
H249 C272 0.947 . S
H250 C273 0.948 . S
H251 C279 0.982 . S
H252 C280 0.974 . S
H253 C280 0.980 . S
H254 C280 0.988 1_545 S
H255 C279 0.979 . S
H256 C279 0.977 . S
C257 C245 1.453 . S
C257 H286 0.982 . S
C257 H287 0.979 . S
C257 H288 0.977 . S
C258 C245 1.684 . S
C258 H283 0.979 . S
C258 H284 0.980 . S
C258 H285 0.983 . S
C259 C260 1.391 . S
C259 C264 1.391 1_655 S
C259 H289 0.948 . S
C260 C259 1.391 . S
C260 C261 1.391 1_655 S
C261 C260 1.391 1_455 S
C261 C262 1.392 . S
C261 H290 0.940 1_565 S
C262 C261 1.392 . S
C262 C263 1.419 . S
C262 H291 0.948 . S
C263 C262 1.419 . S
C263 C264 1.391 . S
C263 C267 1.397 . S
C264 C259 1.391 1_455 S
C264 C263 1.391 . S
C264 C265 1.399 . S
C265 C264 1.399 . S
C265 C266 1.396 . S
C265 C268 1.453 1_455 S
C265 C269 1.683 . S
C266 C247 1.723 . S
C266 C265 1.396 . S
C266 C267 1.394 . S
C267 C263 1.397 . S
C267 C266 1.394 . S
C267 C277 1.723 . S
C268 C265 1.453 1_655 S
C268 H292 0.982 . S
C268 H293 0.979 . S
C268 H294 0.977 . S
C269 C265 1.683 . S
C269 H295 0.975 . S
C269 H296 0.980 . S
C269 H297 0.988 1_455 S
C270 H246 0.948 . S
C270 C271 1.391 . S
C270 C275 1.391 1_545 S
C271 C270 1.391 . S
C271 C272 1.391 1_545 S
C272 H249 0.947 . S
C272 C271 1.391 1_565 S
C272 C273 1.392 . S
C273 H250 0.948 . S
C273 C272 1.392 . S
C273 C274 1.419 . S
C274 C273 1.419 . S
C274 C275 1.391 . S
C274 C278 1.397 . S
C275 C270 1.391 1_565 S
C275 C274 1.391 . S
C275 C276 1.399 . S
C276 C275 1.399 . S
C276 C277 1.396 . S
C276 C279 1.453 1_565 S
C276 C280 1.683 . S
C277 C267 1.723 . S
C277 C276 1.396 . S
C277 C278 1.394 . S
C278 C248 1.723 . S
C278 C274 1.397 . S
C278 C277 1.394 . S
C279 H251 0.982 . S
C279 H255 0.979 . S
C279 H256 0.977 . S
C279 C276 1.453 1_545 S
C280 H252 0.974 . S
C280 H253 0.980 . S
C280 H254 0.988 1_565 S
C280 C276 1.683 . S
H281 C299 0.948 . S
H282 C240 0.948 . S
H283 C258 0.979 . S
H284 C258 0.980 . S
H285 C258 0.983 . S
H286 C257 0.982 . S
H287 C257 0.979 . S
H288 C257 0.977 . S
H289 C259 0.948 . S
H290 C261 0.940 1_545 S
H291 C262 0.948 . S
H292 C268 0.982 . S
H293 C268 0.979 . S
H294 C268 0.977 . S
H295 C269 0.975 . S
H296 C269 0.980 . S
H297 C269 0.988 1_655 S
H298 C242 0.940 1_655 S
C299 C242 1.392 . S
C299 C243 1.419 . S
C299 H281 0.948 . S
C300 C301 1.391 . S
C300 C304 1.391 . S
C300 H342 0.948 . S
C301 C300 1.391 . S
C301 C302 1.391 . S
C302 C301 1.391 . S
C302 H358 0.947 . S
C302 C359 1.392 . S
C303 C304 1.391 . S
C303 C307 1.397 . S
C303 C359 1.419 . S
C304 C300 1.391 . S
C304 C303 1.391 . S
C304 C305 1.399 . S
C305 C304 1.399 . S
C305 C308 1.396 . S
C305 C317 1.453 . S
C305 C318 1.684 . S
H306 C330 0.948 . S
C307 C303 1.397 . S
C307 C308 1.394 . S
C307 C326 1.723 . S
C308 C305 1.396 . S
C308 C307 1.394 . S
C308 C338 1.723 . S
H309 C332 0.947 . S
H310 C333 0.948 . S
H311 C339 0.982 . S
H312 C340 0.979 . S
H313 C340 0.980 . S
H314 C340 0.983 . S
H315 C339 0.979 . S
H316 C339 0.977 . S
C317 C305 1.453 . S
C317 H346 0.982 . S
C317 H347 0.979 . S
C317 H348 0.977 . S
C318 C305 1.684 . S
C318 H343 0.979 . S
C318 H344 0.980 . S
C318 H345 0.983 . S
C319 C320 1.391 . S
C319 C324 1.391 . S
C319 H349 0.948 . S
C320 C319 1.391 . S
C320 C321 1.391 . S
C321 C320 1.391 . S
C321 C322 1.392 . S
C321 H350 0.947 . S
C322 C321 1.392 . S
C322 C323 1.419 . S
C322 H351 0.948 . S
C323 C322 1.419 . S
C323 C324 1.391 . S
C323 C327 1.397 . S
C324 C319 1.391 . S
C324 C323 1.391 . S
C324 C325 1.399 . S
C325 C324 1.399 . S
C325 C326 1.396 . S
C325 C328 1.453 . S
C325 C329 1.684 . S
C326 C307 1.723 . S
C326 C325 1.396 . S
C326 C327 1.394 . S
C327 C323 1.397 . S
C327 C326 1.394 . S
C327 C337 1.723 . S
C328 C325 1.453 . S
C328 H352 0.982 . S
C328 H353 0.979 . S
C328 H354 0.977 . S
C329 C325 1.684 . S
C329 H355 0.979 . S
C329 H356 0.980 . S
C329 H357 0.983 . S
C330 H306 0.948 . S
C330 C331 1.391 . S
C330 C335 1.391 . S
C331 C330 1.391 . S
C331 C332 1.391 . S
C332 H309 0.947 . S
C332 C331 1.391 . S
C332 C333 1.392 . S
C333 H310 0.948 . S
C333 C332 1.392 . S
C333 C334 1.419 . S
C334 C333 1.419 . S
C334 C335 1.391 . S
C334 C338 1.397 . S
C335 C330 1.391 . S
C335 C334 1.391 . S
C335 C336 1.399 . S
C336 C335 1.399 . S
C336 C337 1.396 . S
C336 C339 1.453 . S
C336 C340 1.684 . S
C337 C327 1.723 . S
C337 C336 1.396 . S
C337 C338 1.394 . S
C338 C308 1.723 . S
C338 C334 1.397 . S
C338 C337 1.394 . S
C339 H311 0.982 . S
C339 H315 0.979 . S
C339 H316 0.977 . S
C339 C336 1.453 . S
C340 H312 0.979 . S
C340 H313 0.980 . S
C340 H314 0.983 . S
C340 C336 1.684 . S
H341 C359 0.948 . S
H342 C300 0.948 . S
H343 C318 0.979 . S
H344 C318 0.980 . S
H345 C318 0.983 . S
H346 C317 0.982 . S
H347 C317 0.979 . S
H348 C317 0.977 . S
H349 C319 0.948 . S
H350 C321 0.947 . S
H351 C322 0.948 . S
H352 C328 0.982 . S
H353 C328 0.979 . S
H354 C328 0.977 . S
H355 C329 0.979 . S
H356 C329 0.980 . S
H357 C329 0.983 . S
H358 C302 0.947 . S
C359 C302 1.392 . S
C359 C303 1.419 . S
C359 H341 0.948 . S
C360 C361 1.391 . S
C360 C364 1.391 . S
C360 H402 0.948 . S
C361 C360 1.391 . S
C361 C362 1.391 . S
C362 C361 1.391 . S
C362 H418 0.947 . S
C362 C419 1.392 . S
C363 C364 1.391 . S
C363 C367 1.397 . S
C363 C419 1.419 . S
C364 C360 1.391 . S
C364 C363 1.391 . S
C364 C365 1.399 . S
C365 C364 1.399 . S
C365 C368 1.396 . S
C365 C377 1.453 . S
C365 C378 1.684 . S
H366 C390 0.948 . S
C367 C363 1.397 . S
C367 C368 1.394 . S
C367 C386 1.723 . S
C368 C365 1.396 . S
C368 C367 1.394 . S
C368 C398 1.723 . S
H369 C392 0.947 . S
H370 C393 0.948 . S
H371 C399 0.982 . S
H372 C400 0.979 . S
H373 C400 0.980 . S
H374 C400 0.983 . S
H375 C399 0.974 1_455 S
H376 C399 0.977 . S
C377 C365 1.453 . S
C377 H406 0.982 . S
C377 H407 0.979 . S
C377 H408 0.977 . S
C378 C365 1.684 . S
C378 H403 0.979 . S
C378 H404 0.980 . S
C378 H405 0.983 . S
C379 C380 1.395 1_655 S
C379 C384 1.389 . S
C379 H409 0.947 . S
C380 C379 1.395 1_455 S
C380 C381 1.391 . S
C381 C380 1.391 . S
C381 C382 1.392 . S
C381 H410 0.947 . S
C382 C381 1.392 . S
C382 C383 1.419 1_455 S
C382 H411 0.948 . S
C383 C382 1.419 1_655 S
C383 C384 1.391 . S
C383 C387 1.397 . S
C384 C379 1.389 . S
C384 C383 1.391 . S
C384 C385 1.399 . S
C385 C384 1.399 . S
C385 C386 1.396 . S
C385 C388 1.453 . S
C385 C389 1.684 . S
C386 C367 1.723 . S
C386 C385 1.396 . S
C386 C387 1.394 . S
C387 C383 1.397 . S
C387 C386 1.394 . S
C387 C397 1.723 . S
C388 C385 1.453 . S
C388 H412 0.982 . S
C388 H413 0.979 . S
C388 H414 0.977 . S
C389 C385 1.684 . S
C389 H415 0.979 . S
C389 H416 0.980 . S
C389 H417 0.983 . S
C390 H366 0.948 . S
C390 C391 1.391 . S
C390 C395 1.391 . S
C391 C390 1.391 . S
C391 C392 1.391 . S
C392 H369 0.947 . S
C392 C391 1.391 . S
C392 C393 1.392 . S
C393 H370 0.948 . S
C393 C392 1.392 . S
C393 C394 1.419 . S
C394 C393 1.419 . S
C394 C395 1.391 . S
C394 C398 1.397 . S
C395 C390 1.391 . S
C395 C394 1.391 . S
C395 C396 1.399 . S
C396 C395 1.399 . S
C396 C397 1.396 . S
C396 C399 1.453 . S
C396 C400 1.684 1_655 S
C397 C387 1.723 . S
C397 C396 1.396 . S
C397 C398 1.394 . S
C398 C368 1.723 . S
C398 C394 1.397 . S
C398 C397 1.394 . S
C399 H371 0.982 . S
C399 H375 0.974 1_655 S
C399 H376 0.977 . S
C399 C396 1.453 . S
C400 H372 0.979 . S
C400 H373 0.980 . S
C400 H374 0.983 . S
C400 C396 1.684 1_455 S
H401 C419 0.948 . S
H402 C360 0.948 . S
H403 C378 0.979 . S
H404 C378 0.980 . S
H405 C378 0.983 . S
H406 C377 0.982 . S
H407 C377 0.979 . S
H408 C377 0.977 . S
H409 C379 0.947 . S
H410 C381 0.947 . S
H411 C382 0.948 . S
H412 C388 0.982 . S
H413 C388 0.979 . S
H414 C388 0.977 . S
H415 C389 0.979 . S
H416 C389 0.980 . S
H417 C389 0.983 . S
H418 C362 0.947 . S
C419 C362 1.392 . S
C419 C363 1.419 . S
C419 H401 0.948 . S
C420 C421 1.391 . S
C420 C424 1.391 . S
C420 H462 0.948 . S
C421 C420 1.391 . S
C421 C422 1.391 . S
C422 C421 1.391 . S
C422 H478 0.947 . S
C422 C479 1.392 . S
C423 C424 1.391 . S
C423 C427 1.397 . S
C423 C479 1.419 . S
C424 C420 1.391 . S
C424 C423 1.391 . S
C424 C425 1.399 . S
C425 C424 1.399 . S
C425 C428 1.396 . S
C425 C437 1.453 . S
C425 C438 1.684 . S
H426 C450 0.948 . S
C427 C423 1.397 . S
C427 C428 1.394 . S
C427 C446 1.723 . S
C428 C425 1.396 . S
C428 C427 1.394 . S
C428 C458 1.723 . S
H429 C452 0.947 . S
H430 C453 0.948 . S
H431 C459 0.982 . S
H432 C460 0.979 . S
H433 C460 0.980 . S
H434 C460 0.983 . S
H435 C459 0.979 . S
H436 C459 0.977 . S
C437 C425 1.453 . S
C437 H466 0.982 . S
C437 H467 0.979 . S
C437 H468 0.977 . S
C438 C425 1.684 . S
C438 H463 0.979 . S
C438 H464 0.980 . S
C438 H465 0.983 . S
C439 C440 1.391 . S
C439 C444 1.391 . S
C439 H469 0.948 . S
C440 C439 1.391 . S
C440 C441 1.391 . S
C441 C440 1.391 . S
C441 C442 1.392 . S
C441 H470 0.947 . S
C442 C441 1.392 . S
C442 C443 1.419 . S
C442 H471 0.948 . S
C443 C442 1.419 . S
C443 C444 1.391 . S
C443 C447 1.397 . S
C444 C439 1.391 . S
C444 C443 1.391 . S
C444 C445 1.399 . S
C445 C444 1.399 . S
C445 C446 1.396 . S
C445 C448 1.453 . S
C445 C449 1.684 . S
C446 C427 1.723 . S
C446 C445 1.396 . S
C446 C447 1.394 . S
C447 C443 1.397 . S
C447 C446 1.394 . S
C447 C457 1.723 . S
C448 C445 1.453 . S
C448 H472 0.982 . S
C448 H473 0.979 . S
C448 H474 0.977 . S
C449 C445 1.684 . S
C449 H475 0.979 . S
C449 H476 0.980 . S
C449 H477 0.983 . S
C450 H426 0.948 . S
C450 C451 1.391 . S
C450 C455 1.391 . S
C451 C450 1.391 . S
C451 C452 1.391 . S
C452 H429 0.947 . S
C452 C451 1.391 . S
C452 C453 1.392 . S
C453 H430 0.948 . S
C453 C452 1.392 . S
C453 C454 1.419 . S
C454 C453 1.419 . S
C454 C455 1.391 . S
C454 C458 1.397 . S
C455 C450 1.391 . S
C455 C454 1.391 . S
C455 C456 1.399 . S
C456 C455 1.399 . S
C456 C457 1.396 . S
C456 C459 1.453 . S
C456 C460 1.684 . S
C457 C447 1.723 . S
C457 C456 1.396 . S
C457 C458 1.394 . S
C458 C428 1.723 . S
C458 C454 1.397 . S
C458 C457 1.394 . S
C459 H431 0.982 . S
C459 H435 0.979 . S
C459 H436 0.977 . S
C459 C456 1.453 . S
C460 H432 0.979 . S
C460 H433 0.980 . S
C460 H434 0.983 . S
C460 C456 1.684 . S
H461 C479 0.948 . S
H462 C420 0.948 . S
H463 C438 0.979 . S
H464 C438 0.980 . S
H465 C438 0.983 . S
H466 C437 0.982 . S
H467 C437 0.979 . S
H468 C437 0.977 . S
H469 C439 0.948 . S
H470 C441 0.947 . S
H471 C442 0.948 . S
H472 C448 0.982 . S
H473 C448 0.979 . S
H474 C448 0.977 . S
H475 C449 0.979 . S
H476 C449 0.980 . S
H477 C449 0.983 . S
H478 C422 0.947 . S
C479 C422 1.392 . S
C479 C423 1.419 . S
C479 H461 0.948 . S
C480 C481 1.391 . S
C480 C484 1.391 . S
C480 H522 0.948 . S
C481 C480 1.391 . S
C481 C482 1.391 . S
C482 C481 1.391 . S
C482 H538 0.947 . S
C482 C539 1.392 . S
C483 C484 1.391 . S
C483 C487 1.397 . S
C483 C539 1.419 . S
C484 C480 1.391 . S
C484 C483 1.391 . S
C484 C485 1.399 . S
C485 C484 1.399 . S
C485 C488 1.396 . S
C485 C497 1.453 . S
C485 C498 1.684 . S
H486 C510 0.948 . S
C487 C483 1.397 . S
C487 C488 1.394 . S
C487 C506 1.723 . S
C488 C485 1.396 . S
C488 C487 1.394 . S
C488 C518 1.723 . S
H489 C512 0.947 . S
H490 C513 0.948 . S
H491 C519 0.982 . S
H492 C520 0.979 . S
H493 C520 0.980 . S
H494 C520 0.983 . S
H495 C519 0.979 . S
H496 C519 0.977 . S
C497 C485 1.453 . S
C497 H526 0.982 . S
C497 H527 0.979 . S
C497 H528 0.977 . S
C498 C485 1.684 . S
C498 H523 0.979 . S
C498 H524 0.980 . S
C498 H525 0.983 . S
C499 C500 1.391 . S
C499 C504 1.391 . S
C499 H529 0.948 . S
C500 C499 1.391 . S
C500 C501 1.391 . S
C501 C500 1.391 . S
C501 C502 1.392 . S
C501 H530 0.947 . S
C502 C501 1.392 . S
C502 C503 1.419 . S
C502 H531 0.948 . S
C503 C502 1.419 . S
C503 C504 1.391 . S
C503 C507 1.397 . S
C504 C499 1.391 . S
C504 C503 1.391 . S
C504 C505 1.399 . S
C505 C504 1.399 . S
C505 C506 1.396 . S
C505 C508 1.453 . S
C505 C509 1.684 . S
C506 C487 1.723 . S
C506 C505 1.396 . S
C506 C507 1.394 . S
C507 C503 1.397 . S
C507 C506 1.394 . S
C507 C517 1.723 . S
C508 C505 1.453 . S
C508 H532 0.982 . S
C508 H533 0.979 . S
C508 H534 0.977 . S
C509 C505 1.684 . S
C509 H535 0.979 . S
C509 H536 0.980 . S
C509 H537 0.983 . S
C510 H486 0.948 . S
C510 C511 1.391 . S
C510 C515 1.391 . S
C511 C510 1.391 . S
C511 C512 1.391 . S
C512 H489 0.947 . S
C512 C511 1.391 . S
C512 C513 1.392 . S
C513 H490 0.948 . S
C513 C512 1.392 . S
C513 C514 1.419 . S
C514 C513 1.419 . S
C514 C515 1.391 . S
C514 C518 1.397 . S
C515 C510 1.391 . S
C515 C514 1.391 . S
C515 C516 1.399 . S
C516 C515 1.399 . S
C516 C517 1.396 . S
C516 C519 1.453 . S
C516 C520 1.684 . S
C517 C507 1.723 . S
C517 C516 1.396 . S
C517 C518 1.394 . S
C518 C488 1.723 . S
C518 C514 1.397 . S
C518 C517 1.394 . S
C519 H491 0.982 . S
C519 H495 0.979 . S
C519 H496 0.977 . S
C519 C516 1.453 . S
C520 H492 0.979 . S
C520 H493 0.980 . S
C520 H494 0.983 . S
C520 C516 1.684 . S
H521 C539 0.948 . S
H522 C480 0.948 . S
H523 C498 0.979 . S
H524 C498 0.980 . S
H525 C498 0.983 . S
H526 C497 0.982 . S
H527 C497 0.979 . S
H528 C497 0.977 . S
H529 C499 0.948 . S
H530 C501 0.947 . S
H531 C502 0.948 . S
H532 C508 0.982 . S
H533 C508 0.979 . S
H534 C508 0.977 . S
H535 C509 0.979 . S
H536 C509 0.980 . S
H537 C509 0.983 . S
H538 C482 0.947 . S
C539 C482 1.392 . S
C539 C483 1.419 . S
C539 H521 0.948 . S
C540 C541 1.391 . S
C540 C544 1.391 . S
C540 H582 0.948 . S
C541 C540 1.391 . S
C541 C542 1.391 . S
C542 C541 1.391 . S
C542 H598 0.947 . S
C542 C599 1.392 . S
C543 C544 1.391 . S
C543 C547 1.397 . S
C543 C599 1.419 . S
C544 C540 1.391 . S
C544 C543 1.391 . S
C544 C545 1.399 . S
C545 C544 1.399 . S
C545 C548 1.396 . S
C545 C557 1.453 . S
C545 C558 1.684 . S
H546 C570 0.948 . S
C547 C543 1.397 . S
C547 C548 1.394 . S
C547 C566 1.723 . S
C548 C545 1.396 . S
C548 C547 1.394 . S
C548 C578 1.723 . S
H549 C572 0.947 . S
H550 C573 0.948 . S
H551 C579 0.982 . S
H552 C580 0.979 . S
H553 C580 0.980 . S
H554 C580 0.983 . S
H555 C579 0.974 1_545 S
H556 C579 0.977 . S
C557 C545 1.453 . S
C557 H586 0.982 . S
C557 H587 0.979 . S
C557 H588 0.977 . S
C558 C545 1.684 . S
C558 H583 0.979 . S
C558 H584 0.980 . S
C558 H585 0.983 . S
C559 C560 1.395 1_565 S
C559 C564 1.389 . S
C559 H589 0.947 . S
C560 C559 1.395 1_545 S
C560 C561 1.391 . S
C561 C560 1.391 . S
C561 C562 1.392 . S
C561 H590 0.947 . S
C562 C561 1.392 . S
C562 C563 1.419 1_545 S
C562 H591 0.948 . S
C563 C562 1.419 1_565 S
C563 C564 1.391 . S
C563 C567 1.397 . S
C564 C559 1.389 . S
C564 C563 1.391 . S
C564 C565 1.399 . S
C565 C564 1.399 . S
C565 C566 1.396 . S
C565 C568 1.453 . S
C565 C569 1.684 . S
C566 C547 1.723 . S
C566 C565 1.396 . S
C566 C567 1.394 . S
C567 C563 1.397 . S
C567 C566 1.394 . S
C567 C577 1.723 . S
C568 C565 1.453 . S
C568 H592 0.982 . S
C568 H593 0.979 . S
C568 H594 0.977 . S
C569 C565 1.684 . S
C569 H595 0.979 . S
C569 H596 0.980 . S
C569 H597 0.983 . S
C570 H546 0.948 . S
C570 C571 1.391 . S
C570 C575 1.391 . S
C571 C570 1.391 . S
C571 C572 1.391 . S
C572 H549 0.947 . S
C572 C571 1.391 . S
C572 C573 1.392 . S
C573 H550 0.948 . S
C573 C572 1.392 . S
C573 C574 1.419 . S
C574 C573 1.419 . S
C574 C575 1.391 . S
C574 C578 1.397 . S
C575 C570 1.391 . S
C575 C574 1.391 . S
C575 C576 1.399 . S
C576 C575 1.399 . S
C576 C577 1.396 . S
C576 C579 1.453 . S
C576 C580 1.684 1_565 S
C577 C567 1.723 . S
C577 C576 1.396 . S
C577 C578 1.394 . S
C578 C548 1.723 . S
C578 C574 1.397 . S
C578 C577 1.394 . S
C579 H551 0.982 . S
C579 H555 0.974 1_565 S
C579 H556 0.977 . S
C579 C576 1.453 . S
C580 H552 0.979 . S
C580 H553 0.980 . S
C580 H554 0.983 . S
C580 C576 1.684 1_545 S
H581 C599 0.948 . S
H582 C540 0.948 . S
H583 C558 0.979 . S
H584 C558 0.980 . S
H585 C558 0.983 . S
H586 C557 0.982 . S
H587 C557 0.979 . S
H588 C557 0.977 . S
H589 C559 0.947 . S
H590 C561 0.947 . S
H591 C562 0.948 . S
H592 C568 0.982 . S
H593 C568 0.979 . S
H594 C568 0.977 . S
H595 C569 0.979 . S
H596 C569 0.980 . S
H597 C569 0.983 . S
H598 C542 0.947 . S
C599 C542 1.392 . S
C599 C543 1.419 . S
C599 H581 0.948 . S
C600 C601 1.391 . S
C600 C604 1.391 . S
C600 H642 0.948 . S
C601 C600 1.391 . S
C601 C602 1.391 . S
C602 C601 1.391 . S
C602 H658 0.947 . S
C602 C659 1.392 . S
C603 C604 1.391 . S
C603 C607 1.397 . S
C603 C659 1.419 . S
C604 C600 1.391 . S
C604 C603 1.391 . S
C604 C605 1.399 . S
C605 C604 1.399 . S
C605 C608 1.396 . S
C605 C617 1.453 . S
C605 C618 1.684 . S
H606 C630 0.948 . S
C607 C603 1.397 . S
C607 C608 1.394 . S
C607 C626 1.723 . S
C608 C605 1.396 . S
C608 C607 1.394 . S
C608 C638 1.723 . S
H609 C632 0.947 . S
H610 C633 0.948 . S
H611 C639 0.982 . S
H612 C640 0.979 . S
H613 C640 0.980 . S
H614 C640 0.983 . S
H615 C639 0.979 . S
H616 C639 0.977 . S
C617 C605 1.453 . S
C617 H646 0.982 . S
C617 H647 0.979 . S
C617 H648 0.977 . S
C618 C605 1.684 . S
C618 H643 0.979 . S
C618 H644 0.980 . S
C618 H645 0.983 . S
C619 C620 1.391 . S
C619 C624 1.391 . S
C619 H649 0.948 . S
C620 C619 1.391 . S
C620 C621 1.391 . S
C621 C620 1.391 . S
C621 C622 1.392 . S
C621 H650 0.947 . S
C622 C621 1.392 . S
C622 C623 1.419 . S
C622 H651 0.948 . S
C623 C622 1.419 . S
C623 C624 1.391 . S
C623 C627 1.397 . S
C624 C619 1.391 . S
C624 C623 1.391 . S
C624 C625 1.399 . S
C625 C624 1.399 . S
C625 C626 1.396 . S
C625 C628 1.453 . S
C625 C629 1.684 . S
C626 C607 1.723 . S
C626 C625 1.396 . S
C626 C627 1.394 . S
C627 C623 1.397 . S
C627 C626 1.394 . S
C627 C637 1.723 . S
C628 C625 1.453 . S
C628 H652 0.982 . S
C628 H653 0.979 . S
C628 H654 0.977 . S
C629 C625 1.684 . S
C629 H655 0.979 . S
C629 H656 0.980 . S
C629 H657 0.983 . S
C630 H606 0.948 . S
C630 C631 1.391 . S
C630 C635 1.391 . S
C631 C630 1.391 . S
C631 C632 1.391 . S
C632 H609 0.947 . S
C632 C631 1.391 . S
C632 C633 1.392 . S
C633 H610 0.948 . S
C633 C632 1.392 . S
C633 C634 1.419 . S
C634 C633 1.419 . S
C634 C635 1.391 . S
C634 C638 1.397 . S
C635 C630 1.391 . S
C635 C634 1.391 . S
C635 C636 1.399 . S
C636 C635 1.399 . S
C636 C637 1.396 . S
C636 C639 1.453 . S
C636 C640 1.684 . S
C637 C627 1.723 . S
C637 C636 1.396 . S
C637 C638 1.394 . S
C638 C608 1.723 . S
C638 C634 1.397 . S
C638 C637 1.394 . S
C639 H611 0.982 . S
C639 H615 0.979 . S
C639 H616 0.977 . S
C639 C636 1.453 . S
C640 H612 0.979 . S
C640 H613 0.980 . S
C640 H614 0.983 . S
C640 C636 1.684 . S
H641 C659 0.948 . S
H642 C600 0.948 . S
H643 C618 0.979 . S
H644 C618 0.980 . S
H645 C618 0.983 . S
H646 C617 0.982 . S
H647 C617 0.979 . S
H648 C617 0.977 . S
H649 C619 0.948 . S
H650 C621 0.947 . S
H651 C622 0.948 . S
H652 C628 0.982 . S
H653 C628 0.979 . S
H654 C628 0.977 . S
H655 C629 0.979 . S
H656 C629 0.980 . S
H657 C629 0.983 . S
H658 C602 0.947 . S
C659 C602 1.392 . S
C659 C603 1.419 . S
C659 H641 0.948 . S
C660 C661 1.391 . S
C660 C664 1.391 . S
C660 H702 0.948 . S
C661 C660 1.391 . S
C661 C662 1.391 . S
C662 C661 1.391 . S
C662 H718 0.947 . S
C662 C719 1.392 . S
C663 C664 1.391 . S
C663 C667 1.397 . S
C663 C719 1.419 . S
C664 C660 1.391 . S
C664 C663 1.391 . S
C664 C665 1.399 . S
C665 C664 1.399 . S
C665 C668 1.396 . S
C665 C677 1.453 . S
C665 C678 1.684 . S
H666 C690 0.948 . S
C667 C663 1.397 . S
C667 C668 1.394 . S
C667 C686 1.723 . S
C668 C665 1.396 . S
C668 C667 1.394 . S
C668 C698 1.723 . S
H669 C692 0.947 . S
H670 C693 0.948 . S
H671 C699 0.982 . S
H672 C700 0.979 . S
H673 C700 0.980 . S
H674 C700 0.983 . S
H675 C699 0.979 . S
H676 C699 0.977 . S
C677 C665 1.453 . S
C677 H706 0.982 . S
C677 H707 0.979 . S
C677 H708 0.977 . S
C678 C665 1.684 . S
C678 H703 0.979 . S
C678 H704 0.980 . S
C678 H705 0.983 . S
C679 C680 1.391 . S
C679 C684 1.391 . S
C679 H709 0.948 . S
C680 C679 1.391 . S
C680 C681 1.391 . S
C681 C680 1.391 . S
C681 C682 1.392 . S
C681 H710 0.947 . S
C682 C681 1.392 . S
C682 C683 1.419 . S
C682 H711 0.948 . S
C683 C682 1.419 . S
C683 C684 1.391 . S
C683 C687 1.397 . S
C684 C679 1.391 . S
C684 C683 1.391 . S
C684 C685 1.399 . S
C685 C684 1.399 . S
C685 C686 1.396 . S
C685 C688 1.453 . S
C685 C689 1.684 . S
C686 C667 1.723 . S
C686 C685 1.396 . S
C686 C687 1.394 . S
C687 C683 1.397 . S
C687 C686 1.394 . S
C687 C697 1.723 . S
C688 C685 1.453 . S
C688 H712 0.982 . S
C688 H713 0.979 . S
C688 H714 0.977 . S
C689 C685 1.684 . S
C689 H715 0.979 . S
C689 H716 0.980 . S
C689 H717 0.983 . S
C690 H666 0.948 . S
C690 C691 1.391 . S
C690 C695 1.391 . S
C691 C690 1.391 . S
C691 C692 1.391 . S
C692 H669 0.947 . S
C692 C691 1.391 . S
C692 C693 1.392 . S
C693 H670 0.948 . S
C693 C692 1.392 . S
C693 C694 1.419 . S
C694 C693 1.419 . S
C694 C695 1.391 . S
C694 C698 1.397 . S
C695 C690 1.391 . S
C695 C694 1.391 . S
C695 C696 1.399 . S
C696 C695 1.399 . S
C696 C697 1.396 . S
C696 C699 1.453 . S
C696 C700 1.684 . S
C697 C687 1.723 . S
C697 C696 1.396 . S
C697 C698 1.394 . S
C698 C668 1.723 . S
C698 C694 1.397 . S
C698 C697 1.394 . S
C699 H671 0.982 . S
C699 H675 0.979 . S
C699 H676 0.977 . S
C699 C696 1.453 . S
C700 H672 0.979 . S
C700 H673 0.980 . S
C700 H674 0.983 . S
C700 C696 1.684 . S
H701 C719 0.948 . S
H702 C660 0.948 . S
H703 C678 0.979 . S
H704 C678 0.980 . S
H705 C678 0.983 . S
H706 C677 0.982 . S
H707 C677 0.979 . S
H708 C677 0.977 . S
H709 C679 0.948 . S
H710 C681 0.947 . S
H711 C682 0.948 . S
H712 C688 0.982 . S
H713 C688 0.979 . S
H714 C688 0.977 . S
H715 C689 0.979 . S
H716 C689 0.980 . S
H717 C689 0.983 . S
H718 C662 0.947 . S
C719 C662 1.392 . S
C719 C663 1.419 . S
C719 H701 0.948 . S
C720 C721 1.391 . S
C720 C724 1.391 . S
C720 H762 0.948 . S
C721 C720 1.391 . S
C721 C722 1.391 . S
C722 C721 1.391 . S
C722 H778 0.947 . S
C722 C779 1.392 . S
C723 C724 1.391 . S
C723 C727 1.397 . S
C723 C779 1.419 . S
C724 C720 1.391 . S
C724 C723 1.391 . S
C724 C725 1.399 . S
C725 C724 1.399 . S
C725 C728 1.396 . S
C725 C737 1.453 . S
C725 C738 1.684 . S
H726 C750 0.948 . S
C727 C723 1.397 . S
C727 C728 1.394 . S
C727 C746 1.723 . S
C728 C725 1.396 . S
C728 C727 1.394 . S
C728 C758 1.723 . S
H729 C752 0.947 . S
H730 C753 0.948 . S
H731 C759 0.982 . S
H732 C760 0.979 . S
H733 C760 0.980 . S
H734 C760 0.983 . S
H735 C759 0.979 . S
H736 C759 0.977 . S
C737 C725 1.453 . S
C737 H766 0.982 . S
C737 H767 0.979 . S
C737 H768 0.977 . S
C738 C725 1.684 . S
C738 H763 0.979 . S
C738 H764 0.980 . S
C738 H765 0.983 . S
C739 C740 1.391 . S
C739 C744 1.391 . S
C739 H769 0.948 . S
C740 C739 1.391 . S
C740 C741 1.391 . S
C741 C740 1.391 . S
C741 C742 1.392 . S
C741 H770 0.947 . S
C742 C741 1.392 . S
C742 C743 1.419 . S
C742 H771 0.948 . S
C743 C742 1.419 . S
C743 C744 1.391 . S
C743 C747 1.397 . S
C744 C739 1.391 . S
C744 C743 1.391 . S
C744 C745 1.399 . S
C745 C744 1.399 . S
C745 C746 1.396 . S
C745 C748 1.453 . S
C745 C749 1.684 . S
C746 C727 1.723 . S
C746 C745 1.396 . S
C746 C747 1.394 . S
C747 C743 1.397 . S
C747 C746 1.394 . S
C747 C757 1.723 . S
C748 C745 1.453 . S
C748 H772 0.982 . S
C748 H773 0.979 . S
C748 H774 0.977 . S
C749 C745 1.684 . S
C749 H775 0.979 . S
C749 H776 0.980 . S
C749 H777 0.983 . S
C750 H726 0.948 . S
C750 C751 1.391 . S
C750 C755 1.391 . S
C751 C750 1.391 . S
C751 C752 1.391 . S
C752 H729 0.947 . S
C752 C751 1.391 . S
C752 C753 1.392 . S
C753 H730 0.948 . S
C753 C752 1.392 . S
C753 C754 1.419 . S
C754 C753 1.419 . S
C754 C755 1.391 . S
C754 C758 1.397 . S
C755 C750 1.391 . S
C755 C754 1.391 . S
C755 C756 1.399 . S
C756 C755 1.399 . S
C756 C757 1.396 . S
C756 C759 1.453 . S
C756 C760 1.684 . S
C757 C747 1.723 . S
C757 C756 1.396 . S
C757 C758 1.394 . S
C758 C728 1.723 . S
C758 C754 1.397 . S
C758 C757 1.394 . S
C759 H731 0.982 . S
C759 H735 0.979 . S
C759 H736 0.977 . S
C759 C756 1.453 . S
C760 H732 0.979 . S
C760 H733 0.980 . S
C760 H734 0.983 . S
C760 C756 1.684 . S
H761 C779 0.948 . S
H762 C720 0.948 . S
H763 C738 0.979 . S
H764 C738 0.980 . S
H765 C738 0.983 . S
H766 C737 0.982 . S
H767 C737 0.979 . S
H768 C737 0.977 . S
H769 C739 0.948 . S
H770 C741 0.947 . S
H771 C742 0.948 . S
H772 C748 0.982 . S
H773 C748 0.979 . S
H774 C748 0.977 . S
H775 C749 0.979 . S
H776 C749 0.980 . S
H777 C749 0.983 . S
H778 C722 0.947 . S
C779 C722 1.392 . S
C779 C723 1.419 . S
C779 H761 0.948 . S
C780 C781 1.391 . S
C780 C784 1.391 1_554 S
C780 H822 0.948 . S
C781 C780 1.391 . S
C781 C782 1.391 1_554 S
C782 C781 1.391 1_556 S
C782 H838 0.947 . S
C782 C839 1.392 . S
C783 C784 1.391 . S
C783 C787 1.397 . S
C783 C839 1.419 . S
C784 C780 1.391 1_556 S
C784 C783 1.391 . S
C784 C785 1.399 . S
C785 C784 1.399 . S
C785 C788 1.396 . S
C785 C797 1.453 1_556 S
C785 C798 1.683 . S
H786 C810 0.948 . S
C787 C783 1.397 . S
C787 C788 1.394 . S
C787 C806 1.723 . S
C788 C785 1.396 . S
C788 C787 1.394 . S
C788 C818 1.723 . S
H789 C812 0.940 1_554 S
H790 C813 0.948 . S
H791 C819 0.982 . S
H792 C820 0.979 . S
H793 C820 0.980 . S
H794 C820 0.983 . S
H795 C819 0.979 . S
H796 C819 0.977 . S
C797 C785 1.453 1_554 S
C797 H826 0.982 . S
C797 H827 0.979 . S
C797 H828 0.977 . S
C798 C785 1.683 . S
C798 H823 0.974 . S
C798 H824 0.980 . S
C798 H825 0.988 1_556 S
C799 C800 1.391 . S
C799 C804 1.391 . S
C799 H829 0.948 . S
C800 C799 1.391 . S
C800 C801 1.391 . S
C801 C800 1.391 . S
C801 C802 1.392 . S
C801 H830 0.947 . S
C802 C801 1.392 . S
C802 C803 1.419 . S
C802 H831 0.948 . S
C803 C802 1.419 . S
C803 C804 1.391 . S
C803 C807 1.397 . S
C804 C799 1.391 . S
C804 C803 1.391 . S
C804 C805 1.399 . S
C805 C804 1.399 . S
C805 C806 1.396 . S
C805 C808 1.453 . S
C805 C809 1.684 . S
C806 C787 1.723 . S
C806 C805 1.396 . S
C806 C807 1.394 . S
C807 C803 1.397 . S
C807 C806 1.394 . S
C807 C817 1.723 . S
C808 C805 1.453 . S
C808 H832 0.982 . S
C808 H833 0.979 . S
C808 H834 0.977 . S
C809 C805 1.684 . S
C809 H835 0.979 . S
C809 H836 0.980 . S
C809 H837 0.983 . S
C810 H786 0.948 . S
C810 C811 1.391 . S
C810 C815 1.391 . S
C811 C810 1.391 . S
C811 C812 1.391 . S
C812 H789 0.940 1_556 S
C812 C811 1.391 . S
C812 C813 1.392 . S
C813 H790 0.948 . S
C813 C812 1.392 . S
C813 C814 1.419 . S
C814 C813 1.419 . S
C814 C815 1.391 . S
C814 C818 1.397 . S
C815 C810 1.391 . S
C815 C814 1.391 . S
C815 C816 1.399 . S
C816 C815 1.399 . S
C816 C817 1.396 . S
C816 C819 1.453 . S
C816 C820 1.684 . S
C817 C807 1.723 . S
C817 C816 1.396 . S
C817 C818 1.394 . S
C818 C788 1.723 . S
C818 C814 1.397 . S
C818 C817 1.394 . S
C819 H791 0.982 . S
C819 H795 0.979 . S
C819 H796 0.977 . S
C819 C816 1.453 . S
C820 H792 0.979 . S
C820 H793 0.980 . S
C820 H794 0.983 . S
C820 C816 1.684 . S
H821 C839 0.948 . S
H822 C780 0.948 . S
H823 C798 0.974 . S
H824 C798 0.980 . S
H825 C798 0.988 1_554 S
H826 C797 0.982 . S
H827 C797 0.979 . S
H828 C797 0.977 . S
H829 C799 0.948 . S
H830 C801 0.947 . S
H831 C802 0.948 . S
H832 C808 0.982 . S
H833 C808 0.979 . S
H834 C808 0.977 . S
H835 C809 0.979 . S
H836 C809 0.980 . S
H837 C809 0.983 . S
H838 C782 0.947 . S
C839 C782 1.392 . S
C839 C783 1.419 . S
C839 H821 0.948 . S
C840 C841 1.391 . S
C840 C844 1.391 . S
C840 H882 0.948 . S
C841 C840 1.391 . S
C841 C842 1.391 . S
C842 C841 1.391 . S
C842 H898 0.947 . S
C842 C899 1.392 . S
C843 C844 1.391 . S
C843 C847 1.397 . S
C843 C899 1.419 . S
C844 C840 1.391 . S
C844 C843 1.391 . S
C844 C845 1.399 . S
C845 C844 1.399 . S
C845 C848 1.396 . S
C845 C857 1.453 . S
C845 C858 1.684 . S
H846 C870 0.948 . S
C847 C843 1.397 . S
C847 C848 1.394 . S
C847 C866 1.723 . S
C848 C845 1.396 . S
C848 C847 1.394 . S
C848 C878 1.723 . S
H849 C872 0.947 . S
H850 C873 0.948 . S
H851 C879 0.982 . S
H852 C880 0.979 . S
H853 C880 0.980 . S
H854 C880 0.983 . S
H855 C879 0.979 . S
H856 C879 0.977 . S
C857 C845 1.453 . S
C857 H886 0.982 . S
C857 H887 0.979 . S
C857 H888 0.977 . S
C858 C845 1.684 . S
C858 H883 0.979 . S
C858 H884 0.980 . S
C858 H885 0.983 . S
C859 C860 1.391 . S
C859 C864 1.391 . S
C859 H889 0.948 . S
C860 C859 1.391 . S
C860 C861 1.391 . S
C861 C860 1.391 . S
C861 C862 1.392 . S
C861 H890 0.947 . S
C862 C861 1.392 . S
C862 C863 1.419 . S
C862 H891 0.948 . S
C863 C862 1.419 . S
C863 C864 1.391 . S
C863 C867 1.397 . S
C864 C859 1.391 . S
C864 C863 1.391 . S
C864 C865 1.399 . S
C865 C864 1.399 . S
C865 C866 1.396 . S
C865 C868 1.453 . S
C865 C869 1.684 . S
C866 C847 1.723 . S
C866 C865 1.396 . S
C866 C867 1.394 . S
C867 C863 1.397 . S
C867 C866 1.394 . S
C867 C877 1.723 . S
C868 C865 1.453 . S
C868 H892 0.982 . S
C868 H893 0.979 . S
C868 H894 0.977 . S
C869 C865 1.684 . S
C869 H895 0.979 . S
C869 H896 0.980 . S
C869 H897 0.983 . S
C870 H846 0.948 . S
C870 C871 1.391 . S
C870 C875 1.391 . S
C871 C870 1.391 . S
C871 C872 1.391 . S
C872 H849 0.947 . S
C872 C871 1.391 . S
C872 C873 1.392 . S
C873 H850 0.948 . S
C873 C872 1.392 . S
C873 C874 1.419 . S
C874 C873 1.419 . S
C874 C875 1.391 . S
C874 C878 1.397 . S
C875 C870 1.391 . S
C875 C874 1.391 . S
C875 C876 1.399 . S
C876 C875 1.399 . S
C876 C877 1.396 . S
C876 C879 1.453 . S
C876 C880 1.684 . S
C877 C867 1.723 . S
C877 C876 1.396 . S
C877 C878 1.394 . S
C878 C848 1.723 . S
C878 C874 1.397 . S
C878 C877 1.394 . S
C879 H851 0.982 . S
C879 H855 0.979 . S
C879 H856 0.977 . S
C879 C876 1.453 . S
C880 H852 0.979 . S
C880 H853 0.980 . S
C880 H854 0.983 . S
C880 C876 1.684 . S
H881 C899 0.948 . S
H882 C840 0.948 . S
H883 C858 0.979 . S
H884 C858 0.980 . S
H885 C858 0.983 . S
H886 C857 0.982 . S
H887 C857 0.979 . S
H888 C857 0.977 . S
H889 C859 0.948 . S
H890 C861 0.947 . S
H891 C862 0.948 . S
H892 C868 0.982 . S
H893 C868 0.979 . S
H894 C868 0.977 . S
H895 C869 0.979 . S
H896 C869 0.980 . S
H897 C869 0.983 . S
H898 C842 0.947 . S
C899 C842 1.392 . S
C899 C843 1.419 . S
C899 H881 0.948 . S
C900 C901 1.394 1_545 S
C900 C904 1.389 . S
C900 H942 0.947 . S
C901 C900 1.394 1_565 S
C901 C902 1.391 . S
C902 C901 1.391 . S
C902 H958 0.947 . S
C902 C959 1.392 . S
C903 C904 1.391 . S
C903 C907 1.397 . S
C903 C959 1.419 1_545 S
C904 C900 1.389 . S
C904 C903 1.391 . S
C904 C905 1.399 . S
C905 C904 1.399 . S
C905 C908 1.396 . S
C905 C917 1.453 . S
C905 C918 1.684 1_556 S
H906 C930 0.947 . S
C907 C903 1.397 . S
C907 C908 1.394 . S
C907 C926 1.723 . S
C908 C905 1.396 . S
C908 C907 1.394 . S
C908 C938 1.723 . S
H909 C932 0.947 . S
H910 C933 0.948 . S
H911 C939 0.982 . S
H912 C940 0.979 . S
H913 C940 0.980 . S
H914 C940 0.983 . S
H915 C939 0.979 . S
H916 C939 0.977 . S
C917 C905 1.453 . S
C917 H946 0.982 . S
C917 H947 0.974 1_556 S
C917 H948 0.977 . S
C918 C905 1.684 1_554 S
C918 H943 0.979 . S
C918 H944 0.980 . S
C918 H945 0.983 . S
C919 C920 1.391 . S
C919 C924 1.391 . S
C919 H949 0.948 . S
C920 C919 1.391 . S
C920 C921 1.391 . S
C921 C920 1.391 . S
C921 C922 1.392 . S
C921 H950 0.947 . S
C922 C921 1.392 . S
C922 C923 1.419 . S
C922 H951 0.948 . S
C923 C922 1.419 . S
C923 C924 1.391 . S
C923 C927 1.397 . S
C924 C919 1.391 . S
C924 C923 1.391 . S
C924 C925 1.399 . S
C925 C924 1.399 . S
C925 C926 1.396 . S
C925 C928 1.453 . S
C925 C929 1.684 1_545 S
C926 C907 1.723 . S
C926 C925 1.396 . S
C926 C927 1.394 . S
C927 C923 1.397 . S
C927 C926 1.394 . S
C927 C937 1.723 . S
C928 C925 1.453 . S
C928 H952 0.982 . S
C928 H953 0.974 1_545 S
C928 H954 0.977 . S
C929 C925 1.684 1_565 S
C929 H955 0.979 . S
C929 H956 0.980 . S
C929 H957 0.983 . S
C930 H906 0.947 . S
C930 C931 1.395 1_556 S
C930 C935 1.389 . S
C931 C930 1.395 1_554 S
C931 C932 1.391 . S
C932 H909 0.947 . S
C932 C931 1.391 . S
C932 C933 1.392 . S
C933 H910 0.948 . S
C933 C932 1.392 . S
C933 C934 1.419 1_554 S
C934 C933 1.419 1_556 S
C934 C935 1.391 . S
C934 C938 1.397 . S
C935 C930 1.389 . S
C935 C934 1.391 . S
C935 C936 1.399 . S
C936 C935 1.399 . S
C936 C937 1.396 . S
C936 C939 1.453 . S
C936 C940 1.684 . S
C937 C927 1.723 . S
C937 C936 1.396 . S
C937 C938 1.394 . S
C938 C908 1.723 . S
C938 C934 1.397 . S
C938 C937 1.394 . S
C939 H911 0.982 . S
C939 H915 0.979 . S
C939 H916 0.977 . S
C939 C936 1.453 . S
C940 H912 0.979 . S
C940 H913 0.980 . S
C940 H914 0.983 . S
C940 C936 1.684 . S
H941 C959 0.948 . S
H942 C900 0.947 . S
H943 C918 0.979 . S
H944 C918 0.980 . S
H945 C918 0.983 . S
H946 C917 0.982 . S
H947 C917 0.974 1_554 S
H948 C917 0.977 . S
H949 C919 0.948 . S
H950 C921 0.947 . S
H951 C922 0.948 . S
H952 C928 0.982 . S
H953 C928 0.974 1_565 S
H954 C928 0.977 . S
H955 C929 0.979 . S
H956 C929 0.980 . S
H957 C929 0.983 . S
H958 C902 0.947 . S
C959 C902 1.392 . S
C959 C903 1.419 1_565 S
C959 H941 0.948 . S
Li960 N977 1.990 . S
Li960 O1020 1.956 . S
Li960 O1021 1.970 1_556 S
Li960 O1022 1.961 . S
Li961 N985 1.990 . S
Li961 O1020 1.970 1_554 S
Li961 O1021 1.956 . S
Li961 O1023 1.961 . S
Li962 N1007 1.990 . S
Li962 O1020 1.961 . S
Li962 O1022 1.956 . S
Li962 O1023 1.970 1_556 S
Li963 N1013 1.990 . S
Li963 O1021 1.961 . S
Li963 O1022 1.970 1_554 S
Li963 O1023 1.956 . S
C964 C966 1.348 1_556 S
C964 C967 1.356 . S
C964 O1020 1.325 . S
N965 C968 1.314 1_556 S
N965 C969 1.279 . S
C966 C964 1.348 1_554 S
C966 C968 1.353 . S
C966 H1024 0.929 . S
C967 C964 1.356 . S
C967 C969 1.358 . S
C967 H1025 0.930 . S
C968 N965 1.314 1_554 S
C968 C966 1.353 . S
C968 H1026 0.930 . S
C969 N965 1.279 . S
C969 C967 1.358 . S
C969 H1027 0.930 . S
C970 C973 1.348 . S
C970 C974 1.356 . S
C970 O1021 1.325 . S
C971 N972 1.279 . S
C971 C974 1.358 . S
C971 H1028 0.930 . S
N972 C971 1.279 . S
N972 C975 1.314 . S
C973 C970 1.348 . S
C973 C975 1.353 . S
C973 H1029 0.929 . S
C974 C970 1.356 . S
C974 C971 1.358 . S
C974 H1030 0.930 . S
C975 N972 1.314 . S
C975 C973 1.353 . S
C975 H1031 0.930 . S
C976 N977 1.314 . S
C976 C981 1.353 . S
C976 H982 0.930 . S
N977 Li960 1.990 . S
N977 C976 1.314 . S
N977 C979 1.279 . S
C978 C979 1.358 . S
C978 C980 1.356 . S
C978 H1032 0.930 . S
C979 N977 1.279 . S
C979 C978 1.358 . S
C979 H983 0.930 . S
C980 C978 1.356 . S
C980 C981 1.348 . S
C981 C976 1.353 . S
C981 C980 1.348 . S
C981 H1033 0.929 . S
H982 C976 0.930 . S
H983 C979 0.930 . S
C984 N985 1.314 . S
C984 C986 1.353 . S
C984 H990 0.930 . S
N985 Li961 1.990 . S
N985 C984 1.314 . S
N985 C988 1.279 . S
C986 C984 1.353 . S
C986 C989 1.348 . S
C986 H1034 0.929 . S
C987 C988 1.358 . S
C987 C989 1.356 . S
C987 H1035 0.930 . S
C988 N985 1.279 . S
C988 C987 1.358 . S
C988 H991 0.930 . S
C989 C986 1.348 . S
C989 C987 1.356 . S
H990 C984 0.930 . S
H991 C988 0.930 . S
C992 C994 1.348 . S
C992 C995 1.356 . S
C992 O1022 1.325 . S
N993 C996 1.314 . S
N993 C997 1.279 . S
C994 C992 1.348 . S
C994 C996 1.353 . S
C994 H1036 0.929 . S
C995 C992 1.356 . S
C995 C997 1.358 . S
C995 H1037 0.930 . S
C996 N993 1.314 . S
C996 C994 1.353 . S
C996 H1038 0.930 . S
C997 N993 1.279 . S
C997 C995 1.358 . S
C997 H1039 0.930 . S
C998 C999 1.348 1_554 S
C998 C1000 1.356 . S
C998 O1023 1.325 . S
C999 C998 1.348 1_556 S
C999 C1001 1.353 . S
C999 H1040 0.929 . S
C1000 C998 1.356 . S
C1000 C1002 1.358 . S
C1000 H1041 0.930 . S
C1001 C999 1.353 . S
C1001 N1003 1.314 1_556 S
C1001 H1042 0.930 . S
C1002 C1000 1.358 . S
C1002 N1003 1.279 . S
C1002 H1043 0.930 . S
N1003 C1001 1.314 1_554 S
N1003 C1002 1.279 . S
C1004 C1006 1.353 . S
C1004 N1007 1.314 . S
C1004 H1010 0.930 . S
C1005 N1007 1.279 . S
C1005 C1008 1.358 . S
C1005 H1011 0.930 . S
C1006 C1004 1.353 . S
C1006 C1009 1.348 . S
C1006 H1044 0.929 . S
N1007 Li962 1.990 . S
N1007 C1004 1.314 . S
N1007 C1005 1.279 . S
C1008 C1005 1.358 . S
C1008 C1009 1.356 . S
C1008 H1045 0.930 . S
C1009 C1006 1.348 . S
C1009 C1008 1.356 . S
H1010 C1004 0.930 . S
H1011 C1005 0.930 . S
C1012 N1013 1.314 . S
C1012 C1014 1.353 . S
C1012 H1018 0.930 . S
N1013 Li963 1.990 . S
N1013 C1012 1.314 . S
N1013 C1016 1.279 . S
C1014 C1012 1.353 . S
C1014 C1017 1.348 . S
C1014 H1046 0.929 . S
C1015 C1016 1.358 . S
C1015 C1017 1.356 . S
C1015 H1047 0.930 . S
C1016 N1013 1.279 . S
C1016 C1015 1.358 . S
C1016 H1019 0.930 . S
C1017 C1014 1.348 . S
C1017 C1015 1.356 . S
H1018 C1012 0.930 . S
H1019 C1016 0.930 . S
O1020 Li960 1.956 . S
O1020 Li961 1.970 1_556 S
O1020 Li962 1.961 . S
O1020 C964 1.325 . S
O1021 Li960 1.970 1_554 S
O1021 Li961 1.956 . S
O1021 Li963 1.961 . S
O1021 C970 1.325 . S
O1022 Li960 1.961 . S
O1022 Li962 1.956 . S
O1022 Li963 1.970 1_556 S
O1022 C992 1.325 . S
O1023 Li961 1.961 . S
O1023 Li962 1.970 1_554 S
O1023 Li963 1.956 . S
O1023 C998 1.325 . S
H1024 C966 0.929 . S
H1025 C967 0.930 . S
H1026 C968 0.930 . S
H1027 C969 0.930 . S
H1028 C971 0.930 . S
H1029 C973 0.929 . S
H1030 C974 0.930 . S
H1031 C975 0.930 . S
H1032 C978 0.930 . S
H1033 C981 0.929 . S
H1034 C986 0.929 . S
H1035 C987 0.930 . S
H1036 C994 0.929 . S
H1037 C995 0.930 . S
H1038 C996 0.930 . S
H1039 C997 0.930 . S
H1040 C999 0.929 . S
H1041 C1000 0.930 . S
H1042 C1001 0.930 . S
H1043 C1002 0.930 . S
H1044 C1006 0.929 . S
H1045 C1008 0.930 . S
H1046 C1014 0.929 . S
H1047 C1015 0.930 . S
Li1048 N1065 1.990 . S
Li1048 O1108 1.956 . S
Li1048 O1109 1.970 . S
Li1048 O1110 1.961 . S
Li1049 N1073 1.990 . S
Li1049 O1108 1.970 . S
Li1049 O1109 1.956 . S
Li1049 O1111 1.961 . S
Li1050 N1095 1.990 . S
Li1050 O1108 1.961 . S
Li1050 O1110 1.956 . S
Li1050 O1111 1.970 . S
Li1051 N1101 1.990 . S
Li1051 O1109 1.961 . S
Li1051 O1110 1.970 . S
Li1051 O1111 1.956 . S
C1052 C1054 1.348 . S
C1052 C1055 1.356 . S
C1052 O1108 1.325 . S
N1053 C1056 1.314 . S
N1053 C1057 1.279 . S
C1054 C1052 1.348 . S
C1054 C1056 1.353 . S
C1054 H1112 0.929 . S
C1055 C1052 1.356 . S
C1055 C1057 1.358 . S
C1055 H1113 0.930 . S
C1056 N1053 1.314 . S
C1056 C1054 1.353 . S
C1056 H1114 0.930 . S
C1057 N1053 1.279 . S
C1057 C1055 1.358 . S
C1057 H1115 0.930 . S
C1058 C1061 1.348 . S
C1058 C1062 1.356 . S
C1058 O1109 1.325 . S
C1059 N1060 1.279 . S
C1059 C1062 1.358 . S
C1059 H1116 0.930 . S
N1060 C1059 1.279 . S
N1060 C1063 1.314 . S
C1061 C1058 1.348 . S
C1061 C1063 1.353 . S
C1061 H1117 0.929 . S
C1062 C1058 1.356 . S
C1062 C1059 1.358 . S
C1062 H1118 0.930 . S
C1063 N1060 1.314 . S
C1063 C1061 1.353 . S
C1063 H1119 0.930 . S
C1064 N1065 1.314 . S
C1064 C1069 1.353 . S
C1064 H1070 0.930 . S
N1065 Li1048 1.990 . S
N1065 C1064 1.314 . S
N1065 C1067 1.279 . S
C1066 C1067 1.358 . S
C1066 C1068 1.356 . S
C1066 H1120 0.930 . S
C1067 N1065 1.279 . S
C1067 C1066 1.358 . S
C1067 H1071 0.930 . S
C1068 C1066 1.356 . S
C1068 C1069 1.348 . S
C1069 C1064 1.353 . S
C1069 C1068 1.348 . S
C1069 H1121 0.929 . S
H1070 C1064 0.930 . S
H1071 C1067 0.930 . S
C1072 N1073 1.314 . S
C1072 C1074 1.353 . S
C1072 H1078 0.930 . S
N1073 Li1049 1.990 . S
N1073 C1072 1.314 . S
N1073 C1076 1.279 . S
C1074 C1072 1.353 . S
C1074 C1077 1.348 . S
C1074 H1122 0.929 . S
C1075 C1076 1.358 . S
C1075 C1077 1.356 . S
C1075 H1123 0.930 . S
C1076 N1073 1.279 . S
C1076 C1075 1.358 . S
C1076 H1079 0.930 . S
C1077 C1074 1.348 . S
C1077 C1075 1.356 . S
H1078 C1072 0.930 . S
H1079 C1076 0.930 . S
C1080 C1082 1.348 . S
C1080 C1083 1.356 . S
C1080 O1110 1.325 . S
N1081 C1084 1.314 . S
N1081 C1085 1.279 . S
C1082 C1080 1.348 . S
C1082 C1084 1.353 . S
C1082 H1124 0.929 . S
C1083 C1080 1.356 . S
C1083 C1085 1.358 . S
C1083 H1125 0.930 . S
C1084 N1081 1.314 . S
C1084 C1082 1.353 . S
C1084 H1126 0.930 . S
C1085 N1081 1.279 . S
C1085 C1083 1.358 . S
C1085 H1127 0.930 . S
C1086 C1087 1.348 . S
C1086 C1088 1.356 . S
C1086 O1111 1.325 . S
C1087 C1086 1.348 . S
C1087 C1089 1.353 . S
C1087 H1128 0.929 . S
C1088 C1086 1.356 . S
C1088 C1090 1.358 . S
C1088 H1129 0.930 . S
C1089 C1087 1.353 . S
C1089 N1091 1.314 . S
C1089 H1130 0.930 . S
C1090 C1088 1.358 . S
C1090 N1091 1.279 . S
C1090 H1131 0.930 . S
N1091 C1089 1.314 . S
N1091 C1090 1.279 . S
C1092 C1094 1.353 . S
C1092 N1095 1.314 . S
C1092 H1098 0.930 . S
C1093 N1095 1.279 . S
C1093 C1096 1.358 . S
C1093 H1099 0.930 . S
C1094 C1092 1.353 . S
C1094 C1097 1.348 . S
C1094 H1132 0.929 . S
N1095 Li1050 1.990 . S
N1095 C1092 1.314 . S
N1095 C1093 1.279 . S
C1096 C1093 1.358 . S
C1096 C1097 1.356 . S
C1096 H1133 0.930 . S
C1097 C1094 1.348 . S
C1097 C1096 1.356 . S
H1098 C1092 0.930 . S
H1099 C1093 0.930 . S
C1100 N1101 1.314 . S
C1100 C1102 1.353 . S
C1100 H1106 0.930 . S
N1101 Li1051 1.990 . S
N1101 C1100 1.314 . S
N1101 C1104 1.279 . S
C1102 C1100 1.353 . S
C1102 C1105 1.348 . S
C1102 H1134 0.929 . S
C1103 C1104 1.358 . S
C1103 C1105 1.356 . S
C1103 H1135 0.930 . S
C1104 N1101 1.279 . S
C1104 C1103 1.358 . S
C1104 H1107 0.930 . S
C1105 C1102 1.348 . S
C1105 C1103 1.356 . S
H1106 C1100 0.930 . S
H1107 C1104 0.930 . S
O1108 Li1048 1.956 . S
O1108 Li1049 1.970 . S
O1108 Li1050 1.961 . S
O1108 C1052 1.325 . S
O1109 Li1048 1.970 . S
O1109 Li1049 1.956 . S
O1109 Li1051 1.961 . S
O1109 C1058 1.325 . S
O1110 Li1048 1.961 . S
O1110 Li1050 1.956 . S
O1110 Li1051 1.970 . S
O1110 C1080 1.325 . S
O1111 Li1049 1.961 . S
O1111 Li1050 1.970 . S
O1111 Li1051 1.956 . S
O1111 C1086 1.325 . S
H1112 C1054 0.929 . S
H1113 C1055 0.930 . S
H1114 C1056 0.930 . S
H1115 C1057 0.930 . S
H1116 C1059 0.930 . S
H1117 C1061 0.929 . S
H1118 C1062 0.930 . S
H1119 C1063 0.930 . S
H1120 C1066 0.930 . S
H1121 C1069 0.929 . S
H1122 C1074 0.929 . S
H1123 C1075 0.930 . S
H1124 C1082 0.929 . S
H1125 C1083 0.930 . S
H1126 C1084 0.930 . S
H1127 C1085 0.930 . S
H1128 C1087 0.929 . S
H1129 C1088 0.930 . S
H1130 C1089 0.930 . S
H1131 C1090 0.930 . S
H1132 C1094 0.929 . S
H1133 C1096 0.930 . S
H1134 C1102 0.929 . S
H1135 C1103 0.930 . S
Li1136 N1153 1.990 . S
Li1136 O1196 1.956 . S
Li1136 O1197 1.970 1_556 S
Li1136 O1198 1.961 . S
Li1137 N1161 1.990 . S
Li1137 O1196 1.970 1_554 S
Li1137 O1197 1.956 . S
Li1137 O1199 1.961 . S
Li1138 N1183 1.990 . S
Li1138 O1196 1.961 . S
Li1138 O1198 1.956 . S
Li1138 O1199 1.970 1_556 S
Li1139 N1189 1.990 . S
Li1139 O1197 1.961 . S
Li1139 O1198 1.970 1_554 S
Li1139 O1199 1.956 . S
C1140 C1142 1.348 1_556 S
C1140 C1143 1.356 . S
C1140 O1196 1.325 . S
N1141 C1144 1.314 1_556 S
N1141 C1145 1.279 . S
C1142 C1140 1.348 1_554 S
C1142 C1144 1.353 . S
C1142 H1200 0.929 . S
C1143 C1140 1.356 . S
C1143 C1145 1.358 . S
C1143 H1201 0.930 . S
C1144 N1141 1.314 1_554 S
C1144 C1142 1.353 . S
C1144 H1202 0.930 . S
C1145 N1141 1.279 . S
C1145 C1143 1.358 . S
C1145 H1203 0.930 . S
C1146 C1149 1.348 . S
C1146 C1150 1.356 . S
C1146 O1197 1.325 . S
C1147 N1148 1.279 . S
C1147 C1150 1.358 . S
C1147 H1204 0.930 . S
N1148 C1147 1.279 . S
N1148 C1151 1.314 . S
C1149 C1146 1.348 . S
C1149 C1151 1.353 . S
C1149 H1205 0.929 . S
C1150 C1146 1.356 . S
C1150 C1147 1.358 . S
C1150 H1206 0.930 . S
C1151 N1148 1.314 . S
C1151 C1149 1.353 . S
C1151 H1207 0.930 . S
C1152 N1153 1.314 . S
C1152 C1157 1.353 . S
C1152 H1158 0.930 . S
N1153 Li1136 1.990 . S
N1153 C1152 1.314 . S
N1153 C1155 1.279 . S
C1154 C1155 1.358 . S
C1154 C1156 1.356 . S
C1154 H1208 0.930 . S
C1155 N1153 1.279 . S
C1155 C1154 1.358 . S
C1155 H1159 0.930 . S
C1156 C1154 1.356 . S
C1156 C1157 1.348 . S
C1157 C1152 1.353 . S
C1157 C1156 1.348 . S
C1157 H1209 0.929 . S
H1158 C1152 0.930 . S
H1159 C1155 0.930 . S
C1160 N1161 1.314 . S
C1160 C1162 1.353 . S
C1160 H1166 0.930 . S
N1161 Li1137 1.990 . S
N1161 C1160 1.314 . S
N1161 C1164 1.279 . S
C1162 C1160 1.353 . S
C1162 C1165 1.348 . S
C1162 H1210 0.929 . S
C1163 C1164 1.358 . S
C1163 C1165 1.356 . S
C1163 H1211 0.930 . S
C1164 N1161 1.279 . S
C1164 C1163 1.358 . S
C1164 H1167 0.930 . S
C1165 C1162 1.348 . S
C1165 C1163 1.356 . S
H1166 C1160 0.930 . S
H1167 C1164 0.930 . S
C1168 C1170 1.348 . S
C1168 C1171 1.356 . S
C1168 O1198 1.325 . S
N1169 C1172 1.314 . S
N1169 C1173 1.279 . S
C1170 C1168 1.348 . S
C1170 C1172 1.353 . S
C1170 H1212 0.929 . S
C1171 C1168 1.356 . S
C1171 C1173 1.358 . S
C1171 H1213 0.930 . S
C1172 N1169 1.314 . S
C1172 C1170 1.353 . S
C1172 H1214 0.930 . S
C1173 N1169 1.279 . S
C1173 C1171 1.358 . S
C1173 H1215 0.930 . S
C1174 C1175 1.348 1_554 S
C1174 C1176 1.356 . S
C1174 O1199 1.325 . S
C1175 C1174 1.348 1_556 S
C1175 C1177 1.353 . S
C1175 H1216 0.929 . S
C1176 C1174 1.356 . S
C1176 C1178 1.358 . S
C1176 H1217 0.930 . S
C1177 C1175 1.353 . S
C1177 N1179 1.314 1_556 S
C1177 H1218 0.930 . S
C1178 C1176 1.358 . S
C1178 N1179 1.279 . S
C1178 H1219 0.930 . S
N1179 C1177 1.314 1_554 S
N1179 C1178 1.279 . S
C1180 C1182 1.353 . S
C1180 N1183 1.314 . S
C1180 H1186 0.930 . S
C1181 N1183 1.279 . S
C1181 C1184 1.358 . S
C1181 H1187 0.930 . S
C1182 C1180 1.353 . S
C1182 C1185 1.348 . S
C1182 H1220 0.929 . S
N1183 Li1138 1.990 . S
N1183 C1180 1.314 . S
N1183 C1181 1.279 . S
C1184 C1181 1.358 . S
C1184 C1185 1.356 . S
C1184 H1221 0.930 . S
C1185 C1182 1.348 . S
C1185 C1184 1.356 . S
H1186 C1180 0.930 . S
H1187 C1181 0.930 . S
C1188 N1189 1.314 . S
C1188 C1190 1.353 . S
C1188 H1194 0.930 . S
N1189 Li1139 1.990 . S
N1189 C1188 1.314 . S
N1189 C1192 1.279 . S
C1190 C1188 1.353 . S
C1190 C1193 1.348 . S
C1190 H1222 0.929 . S
C1191 C1192 1.358 . S
C1191 C1193 1.356 . S
C1191 H1223 0.930 . S
C1192 N1189 1.279 . S
C1192 C1191 1.358 . S
C1192 H1195 0.930 . S
C1193 C1190 1.348 . S
C1193 C1191 1.356 . S
H1194 C1188 0.930 . S
H1195 C1192 0.930 . S
O1196 Li1136 1.956 . S
O1196 Li1137 1.970 1_556 S
O1196 Li1138 1.961 . S
O1196 C1140 1.325 . S
O1197 Li1136 1.970 1_554 S
O1197 Li1137 1.956 . S
O1197 Li1139 1.961 . S
O1197 C1146 1.325 . S
O1198 Li1136 1.961 . S
O1198 Li1138 1.956 . S
O1198 Li1139 1.970 1_556 S
O1198 C1168 1.325 . S
O1199 Li1137 1.961 . S
O1199 Li1138 1.970 1_554 S
O1199 Li1139 1.956 . S
O1199 C1174 1.325 . S
H1200 C1142 0.929 . S
H1201 C1143 0.930 . S
H1202 C1144 0.930 . S
H1203 C1145 0.930 . S
H1204 C1147 0.930 . S
H1205 C1149 0.929 . S
H1206 C1150 0.930 . S
H1207 C1151 0.930 . S
H1208 C1154 0.930 . S
H1209 C1157 0.929 . S
H1210 C1162 0.929 . S
H1211 C1163 0.930 . S
H1212 C1170 0.929 . S
H1213 C1171 0.930 . S
H1214 C1172 0.930 . S
H1215 C1173 0.930 . S
H1216 C1175 0.929 . S
H1217 C1176 0.930 . S
H1218 C1177 0.930 . S
H1219 C1178 0.930 . S
H1220 C1182 0.929 . S
H1221 C1184 0.930 . S
H1222 C1190 0.929 . S
H1223 C1191 0.930 . S
Li1224 N1241 1.990 . S
Li1224 O1284 1.956 . S
Li1224 O1285 1.970 1_545 S
Li1224 O1286 1.961 . S
Li1225 N1249 1.990 . S
Li1225 O1284 1.970 1_565 S
Li1225 O1285 1.956 . S
Li1225 O1287 1.961 . S
Li1226 N1271 1.990 . S
Li1226 O1284 1.961 . S
Li1226 O1286 1.956 . S
Li1226 O1287 1.970 1_545 S
Li1227 N1277 1.990 . S
Li1227 O1285 1.961 . S
Li1227 O1286 1.970 1_565 S
Li1227 O1287 1.956 . S
C1228 C1230 1.348 . S
C1228 C1231 1.356 . S
C1228 O1284 1.325 . S
N1229 C1232 1.314 . S
N1229 C1233 1.279 . S
C1230 C1228 1.348 . S
C1230 C1232 1.353 . S
C1230 H1288 0.929 . S
C1231 C1228 1.356 . S
C1231 C1233 1.358 . S
C1231 H1289 0.930 . S
C1232 N1229 1.314 . S
C1232 C1230 1.353 . S
C1232 H1290 0.930 . S
C1233 N1229 1.279 . S
C1233 C1231 1.358 . S
C1233 H1291 0.930 . S
C1234 C1237 1.348 1_565 S
C1234 C1238 1.356 . S
C1234 O1285 1.325 . S
C1235 N1236 1.279 . S
C1235 C1238 1.358 . S
C1235 H1292 0.930 . S
N1236 C1235 1.279 . S
N1236 C1239 1.314 1_565 S
C1237 C1234 1.348 1_545 S
C1237 C1239 1.353 . S
C1237 H1293 0.929 . S
C1238 C1234 1.356 . S
C1238 C1235 1.358 . S
C1238 H1294 0.930 . S
C1239 N1236 1.314 1_545 S
C1239 C1237 1.353 . S
C1239 H1295 0.930 . S
C1240 N1241 1.314 . S
C1240 C1245 1.353 . S
C1240 H1246 0.930 . S
N1241 Li1224 1.990 . S
N1241 C1240 1.314 . S
N1241 C1243 1.279 . S
C1242 C1243 1.358 . S
C1242 C1244 1.356 . S
C1242 H1296 0.930 . S
C1243 N1241 1.279 . S
C1243 C1242 1.358 . S
C1243 H1247 0.930 . S
C1244 C1242 1.356 . S
C1244 C1245 1.348 . S
C1245 C1240 1.353 . S
C1245 C1244 1.348 . S
C1245 H1297 0.929 . S
H1246 C1240 0.930 . S
H1247 C1243 0.930 . S
C1248 N1249 1.314 . S
C1248 C1250 1.353 . S
C1248 H1254 0.930 . S
N1249 Li1225 1.990 . S
N1249 C1248 1.314 . S
N1249 C1252 1.279 . S
C1250 C1248 1.353 . S
C1250 C1253 1.348 . S
C1250 H1298 0.929 . S
C1251 C1252 1.358 . S
C1251 C1253 1.356 . S
C1251 H1299 0.930 . S
C1252 N1249 1.279 . S
C1252 C1251 1.358 . S
C1252 H1255 0.930 . S
C1253 C1250 1.348 . S
C1253 C1251 1.356 . S
H1254 C1248 0.930 . S
H1255 C1252 0.930 . S
C1256 C1258 1.348 1_545 S
C1256 C1259 1.356 . S
C1256 O1286 1.325 . S
N1257 C1260 1.314 1_545 S
N1257 C1261 1.279 . S
C1258 C1256 1.348 1_565 S
C1258 C1260 1.353 . S
C1258 H1300 0.929 . S
C1259 C1256 1.356 . S
C1259 C1261 1.358 . S
C1259 H1301 0.930 . S
C1260 N1257 1.314 1_565 S
C1260 C1258 1.353 . S
C1260 H1302 0.930 . S
C1261 N1257 1.279 . S
C1261 C1259 1.358 . S
C1261 H1303 0.930 . S
C1262 C1263 1.348 . S
C1262 C1264 1.356 . S
C1262 O1287 1.325 . S
C1263 C1262 1.348 . S
C1263 C1265 1.353 . S
C1263 H1304 0.929 . S
C1264 C1262 1.356 . S
C1264 C1266 1.358 . S
C1264 H1305 0.930 . S
C1265 C1263 1.353 . S
C1265 N1267 1.314 . S
C1265 H1306 0.930 . S
C1266 C1264 1.358 . S
C1266 N1267 1.279 . S
C1266 H1307 0.930 . S
N1267 C1265 1.314 . S
N1267 C1266 1.279 . S
C1268 C1270 1.353 . S
C1268 N1271 1.314 . S
C1268 H1274 0.930 . S
C1269 N1271 1.279 . S
C1269 C1272 1.358 . S
C1269 H1275 0.930 . S
C1270 C1268 1.353 . S
C1270 C1273 1.348 . S
C1270 H1308 0.929 . S
N1271 Li1226 1.990 . S
N1271 C1268 1.314 . S
N1271 C1269 1.279 . S
C1272 C1269 1.358 . S
C1272 C1273 1.356 . S
C1272 H1309 0.930 . S
C1273 C1270 1.348 . S
C1273 C1272 1.356 . S
H1274 C1268 0.930 . S
H1275 C1269 0.930 . S
C1276 N1277 1.314 . S
C1276 C1278 1.353 . S
C1276 H1282 0.930 . S
N1277 Li1227 1.990 . S
N1277 C1276 1.314 . S
N1277 C1280 1.279 . S
C1278 C1276 1.353 . S
C1278 C1281 1.348 . S
C1278 H1310 0.929 . S
C1279 C1280 1.358 . S
C1279 C1281 1.356 . S
C1279 H1311 0.930 . S
C1280 N1277 1.279 . S
C1280 C1279 1.358 . S
C1280 H1283 0.930 . S
C1281 C1278 1.348 . S
C1281 C1279 1.356 . S
H1282 C1276 0.930 . S
H1283 C1280 0.930 . S
O1284 Li1224 1.956 . S
O1284 Li1225 1.970 1_545 S
O1284 Li1226 1.961 . S
O1284 C1228 1.325 . S
O1285 Li1224 1.970 1_565 S
O1285 Li1225 1.956 . S
O1285 Li1227 1.961 . S
O1285 C1234 1.325 . S
O1286 Li1224 1.961 . S
O1286 Li1226 1.956 . S
O1286 Li1227 1.970 1_545 S
O1286 C1256 1.325 . S
O1287 Li1225 1.961 . S
O1287 Li1226 1.970 1_565 S
O1287 Li1227 1.956 . S
O1287 C1262 1.325 . S
H1288 C1230 0.929 . S
H1289 C1231 0.930 . S
H1290 C1232 0.930 . S
H1291 C1233 0.930 . S
H1292 C1235 0.930 . S
H1293 C1237 0.929 . S
H1294 C1238 0.930 . S
H1295 C1239 0.930 . S
H1296 C1242 0.930 . S
H1297 C1245 0.929 . S
H1298 C1250 0.929 . S
H1299 C1251 0.930 . S
H1300 C1258 0.929 . S
H1301 C1259 0.930 . S
H1302 C1260 0.930 . S
H1303 C1261 0.930 . S
H1304 C1263 0.929 . S
H1305 C1264 0.930 . S
H1306 C1265 0.930 . S
H1307 C1266 0.930 . S
H1308 C1270 0.929 . S
H1309 C1272 0.930 . S
H1310 C1278 0.929 . S
H1311 C1279 0.930 . S
Li1312 N1329 1.990 . S
Li1312 O1372 1.956 . S
Li1312 O1373 1.970 . S
Li1312 O1374 1.961 . S
Li1313 N1337 1.990 . S
Li1313 O1372 1.970 . S
Li1313 O1373 1.956 . S
Li1313 O1375 1.961 . S
Li1314 N1359 1.990 . S
Li1314 O1372 1.961 . S
Li1314 O1374 1.956 . S
Li1314 O1375 1.970 . S
Li1315 N1365 1.990 . S
Li1315 O1373 1.961 . S
Li1315 O1374 1.970 . S
Li1315 O1375 1.956 . S
C1316 C1318 1.348 . S
C1316 C1319 1.356 . S
C1316 O1372 1.325 . S
N1317 C1320 1.314 . S
N1317 C1321 1.279 . S
C1318 C1316 1.348 . S
C1318 C1320 1.353 . S
C1318 H1376 0.929 . S
C1319 C1316 1.356 . S
C1319 C1321 1.358 . S
C1319 H1377 0.930 . S
C1320 N1317 1.314 . S
C1320 C1318 1.353 . S
C1320 H1378 0.930 . S
C1321 N1317 1.279 . S
C1321 C1319 1.358 . S
C1321 H1379 0.930 . S
C1322 C1325 1.348 . S
C1322 C1326 1.356 . S
C1322 O1373 1.325 . S
C1323 N1324 1.279 . S
C1323 C1326 1.358 . S
C1323 H1380 0.930 . S
N1324 C1323 1.279 . S
N1324 C1327 1.314 . S
C1325 C1322 1.348 . S
C1325 C1327 1.353 . S
C1325 H1381 0.929 . S
C1326 C1322 1.356 . S
C1326 C1323 1.358 . S
C1326 H1382 0.930 . S
C1327 N1324 1.314 . S
C1327 C1325 1.353 . S
C1327 H1383 0.930 . S
C1328 N1329 1.314 . S
C1328 C1333 1.353 . S
C1328 H1334 0.930 . S
N1329 Li1312 1.990 . S
N1329 C1328 1.314 . S
N1329 C1331 1.279 . S
C1330 C1331 1.358 . S
C1330 C1332 1.356 . S
C1330 H1384 0.930 . S
C1331 N1329 1.279 . S
C1331 C1330 1.358 . S
C1331 H1335 0.930 . S
C1332 C1330 1.356 . S
C1332 C1333 1.348 . S
C1333 C1328 1.353 . S
C1333 C1332 1.348 . S
C1333 H1385 0.929 . S
H1334 C1328 0.930 . S
H1335 C1331 0.930 . S
C1336 N1337 1.314 . S
C1336 C1338 1.353 . S
C1336 H1342 0.930 . S
N1337 Li1313 1.990 . S
N1337 C1336 1.314 . S
N1337 C1340 1.279 . S
C1338 C1336 1.353 . S
C1338 C1341 1.348 . S
C1338 H1386 0.929 . S
C1339 C1340 1.358 . S
C1339 C1341 1.356 . S
C1339 H1387 0.930 . S
C1340 N1337 1.279 . S
C1340 C1339 1.358 . S
C1340 H1343 0.930 . S
C1341 C1338 1.348 . S
C1341 C1339 1.356 . S
H1342 C1336 0.930 . S
H1343 C1340 0.930 . S
C1344 C1346 1.348 . S
C1344 C1347 1.356 . S
C1344 O1374 1.325 . S
N1345 C1348 1.314 . S
N1345 C1349 1.279 . S
C1346 C1344 1.348 . S
C1346 C1348 1.353 . S
C1346 H1388 0.929 . S
C1347 C1344 1.356 . S
C1347 C1349 1.358 . S
C1347 H1389 0.930 . S
C1348 N1345 1.314 . S
C1348 C1346 1.353 . S
C1348 H1390 0.930 . S
C1349 N1345 1.279 . S
C1349 C1347 1.358 . S
C1349 H1391 0.930 . S
C1350 C1351 1.348 . S
C1350 C1352 1.356 . S
C1350 O1375 1.325 . S
C1351 C1350 1.348 . S
C1351 C1353 1.353 . S
C1351 H1392 0.929 . S
C1352 C1350 1.356 . S
C1352 C1354 1.358 . S
C1352 H1393 0.930 . S
C1353 C1351 1.353 . S
C1353 N1355 1.314 . S
C1353 H1394 0.930 . S
C1354 C1352 1.358 . S
C1354 N1355 1.279 . S
C1354 H1395 0.930 . S
N1355 C1353 1.314 . S
N1355 C1354 1.279 . S
C1356 C1358 1.353 . S
C1356 N1359 1.314 . S
C1356 H1362 0.930 . S
C1357 N1359 1.279 . S
C1357 C1360 1.358 . S
C1357 H1363 0.930 . S
C1358 C1356 1.353 . S
C1358 C1361 1.348 . S
C1358 H1396 0.929 . S
N1359 Li1314 1.990 . S
N1359 C1356 1.314 . S
N1359 C1357 1.279 . S
C1360 C1357 1.358 . S
C1360 C1361 1.356 . S
C1360 H1397 0.930 . S
C1361 C1358 1.348 . S
C1361 C1360 1.356 . S
H1362 C1356 0.930 . S
H1363 C1357 0.930 . S
C1364 N1365 1.314 . S
C1364 C1366 1.353 . S
C1364 H1370 0.930 . S
N1365 Li1315 1.990 . S
N1365 C1364 1.314 . S
N1365 C1368 1.279 . S
C1366 C1364 1.353 . S
C1366 C1369 1.348 . S
C1366 H1398 0.929 . S
C1367 C1368 1.358 . S
C1367 C1369 1.356 . S
C1367 H1399 0.930 . S
C1368 N1365 1.279 . S
C1368 C1367 1.358 . S
C1368 H1371 0.930 . S
C1369 C1366 1.348 . S
C1369 C1367 1.356 . S
H1370 C1364 0.930 . S
H1371 C1368 0.930 . S
O1372 Li1312 1.956 . S
O1372 Li1313 1.970 . S
O1372 Li1314 1.961 . S
O1372 C1316 1.325 . S
O1373 Li1312 1.970 . S
O1373 Li1313 1.956 . S
O1373 Li1315 1.961 . S
O1373 C1322 1.325 . S
O1374 Li1312 1.961 . S
O1374 Li1314 1.956 . S
O1374 Li1315 1.970 . S
O1374 C1344 1.325 . S
O1375 Li1313 1.961 . S
O1375 Li1314 1.970 . S
O1375 Li1315 1.956 . S
O1375 C1350 1.325 . S
H1376 C1318 0.929 . S
H1377 C1319 0.930 . S
H1378 C1320 0.930 . S
H1379 C1321 0.930 . S
H1380 C1323 0.930 . S
H1381 C1325 0.929 . S
H1382 C1326 0.930 . S
H1383 C1327 0.930 . S
H1384 C1330 0.930 . S
H1385 C1333 0.929 . S
H1386 C1338 0.929 . S
H1387 C1339 0.930 . S
H1388 C1346 0.929 . S
H1389 C1347 0.930 . S
H1390 C1348 0.930 . S
H1391 C1349 0.930 . S
H1392 C1351 0.929 . S
H1393 C1352 0.930 . S
H1394 C1353 0.930 . S
H1395 C1354 0.930 . S
H1396 C1358 0.929 . S
H1397 C1360 0.930 . S
H1398 C1366 0.929 . S
H1399 C1367 0.930 . S
Li1400 N1417 1.990 . S
Li1400 O1460 1.956 . S
Li1400 O1461 1.970 . S
Li1400 O1462 1.961 . S
Li1401 N1425 1.990 . S
Li1401 O1460 1.970 . S
Li1401 O1461 1.956 . S
Li1401 O1463 1.961 . S
Li1402 N1447 1.990 . S
Li1402 O1460 1.961 . S
Li1402 O1462 1.956 . S
Li1402 O1463 1.970 . S
Li1403 N1453 1.990 . S
Li1403 O1461 1.961 . S
Li1403 O1462 1.970 . S
Li1403 O1463 1.956 . S
C1404 C1406 1.348 . S
C1404 C1407 1.356 . S
C1404 O1460 1.325 . S
N1405 C1408 1.314 . S
N1405 C1409 1.279 . S
C1406 C1404 1.348 . S
C1406 C1408 1.353 . S
C1406 H1464 0.929 . S
C1407 C1404 1.356 . S
C1407 C1409 1.358 . S
C1407 H1465 0.930 . S
C1408 N1405 1.314 . S
C1408 C1406 1.353 . S
C1408 H1466 0.930 . S
C1409 N1405 1.279 . S
C1409 C1407 1.358 . S
C1409 H1467 0.930 . S
C1410 C1413 1.348 . S
C1410 C1414 1.356 . S
C1410 O1461 1.325 . S
C1411 N1412 1.279 . S
C1411 C1414 1.358 . S
C1411 H1468 0.930 . S
N1412 C1411 1.279 . S
N1412 C1415 1.314 . S
C1413 C1410 1.348 . S
C1413 C1415 1.353 . S
C1413 H1469 0.929 . S
C1414 C1410 1.356 . S
C1414 C1411 1.358 . S
C1414 H1470 0.930 . S
C1415 N1412 1.314 . S
C1415 C1413 1.353 . S
C1415 H1471 0.930 . S
C1416 N1417 1.314 . S
C1416 C1421 1.353 . S
C1416 H1422 0.930 . S
N1417 Li1400 1.990 . S
N1417 C1416 1.314 . S
N1417 C1419 1.279 . S
C1418 C1419 1.358 . S
C1418 C1420 1.356 . S
C1418 H1472 0.930 . S
C1419 N1417 1.279 . S
C1419 C1418 1.358 . S
C1419 H1423 0.930 . S
C1420 C1418 1.356 . S
C1420 C1421 1.348 . S
C1421 C1416 1.353 . S
C1421 C1420 1.348 . S
C1421 H1473 0.929 . S
H1422 C1416 0.930 . S
H1423 C1419 0.930 . S
C1424 N1425 1.314 . S
C1424 C1426 1.353 . S
C1424 H1430 0.930 . S
N1425 Li1401 1.990 . S
N1425 C1424 1.314 . S
N1425 C1428 1.279 . S
C1426 C1424 1.353 . S
C1426 C1429 1.348 . S
C1426 H1474 0.929 . S
C1427 C1428 1.358 . S
C1427 C1429 1.356 . S
C1427 H1475 0.930 . S
C1428 N1425 1.279 . S
C1428 C1427 1.358 . S
C1428 H1431 0.930 . S
C1429 C1426 1.348 . S
C1429 C1427 1.356 . S
H1430 C1424 0.930 . S
H1431 C1428 0.930 . S
C1432 C1434 1.348 . S
C1432 C1435 1.356 . S
C1432 O1462 1.325 . S
N1433 C1436 1.314 . S
N1433 C1437 1.279 . S
C1434 C1432 1.348 . S
C1434 C1436 1.353 . S
C1434 H1476 0.929 . S
C1435 C1432 1.356 . S
C1435 C1437 1.358 . S
C1435 H1477 0.930 . S
C1436 N1433 1.314 . S
C1436 C1434 1.353 . S
C1436 H1478 0.930 . S
C1437 N1433 1.279 . S
C1437 C1435 1.358 . S
C1437 H1479 0.930 . S
C1438 C1439 1.348 . S
C1438 C1440 1.356 . S
C1438 O1463 1.325 . S
C1439 C1438 1.348 . S
C1439 C1441 1.353 . S
C1439 H1480 0.929 . S
C1440 C1438 1.356 . S
C1440 C1442 1.358 . S
C1440 H1481 0.930 . S
C1441 C1439 1.353 . S
C1441 N1443 1.314 . S
C1441 H1482 0.930 . S
C1442 C1440 1.358 . S
C1442 N1443 1.279 . S
C1442 H1483 0.930 . S
N1443 C1441 1.314 . S
N1443 C1442 1.279 . S
C1444 C1446 1.353 . S
C1444 N1447 1.314 . S
C1444 H1450 0.930 . S
C1445 N1447 1.279 . S
C1445 C1448 1.358 . S
C1445 H1451 0.930 . S
C1446 C1444 1.353 . S
C1446 C1449 1.348 . S
C1446 H1484 0.929 . S
N1447 Li1402 1.990 . S
N1447 C1444 1.314 . S
N1447 C1445 1.279 . S
C1448 C1445 1.358 . S
C1448 C1449 1.356 . S
C1448 H1485 0.930 . S
C1449 C1446 1.348 . S
C1449 C1448 1.356 . S
H1450 C1444 0.930 . S
H1451 C1445 0.930 . S
C1452 N1453 1.314 . S
C1452 C1454 1.353 . S
C1452 H1458 0.930 . S
N1453 Li1403 1.990 . S
N1453 C1452 1.314 . S
N1453 C1456 1.279 . S
C1454 C1452 1.353 . S
C1454 C1457 1.348 . S
C1454 H1486 0.929 . S
C1455 C1456 1.358 . S
C1455 C1457 1.356 . S
C1455 H1487 0.930 . S
C1456 N1453 1.279 . S
C1456 C1455 1.358 . S
C1456 H1459 0.930 . S
C1457 C1454 1.348 . S
C1457 C1455 1.356 . S
H1458 C1452 0.930 . S
H1459 C1456 0.930 . S
O1460 Li1400 1.956 . S
O1460 Li1401 1.970 . S
O1460 Li1402 1.961 . S
O1460 C1404 1.325 . S
O1461 Li1400 1.970 . S
O1461 Li1401 1.956 . S
O1461 Li1403 1.961 . S
O1461 C1410 1.325 . S
O1462 Li1400 1.961 . S
O1462 Li1402 1.956 . S
O1462 Li1403 1.970 . S
O1462 C1432 1.325 . S
O1463 Li1401 1.961 . S
O1463 Li1402 1.970 . S
O1463 Li1403 1.956 . S
O1463 C1438 1.325 . S
H1464 C1406 0.929 . S
H1465 C1407 0.930 . S
H1466 C1408 0.930 . S
H1467 C1409 0.930 . S
H1468 C1411 0.930 . S
H1469 C1413 0.929 . S
H1470 C1414 0.930 . S
H1471 C1415 0.930 . S
H1472 C1418 0.930 . S
H1473 C1421 0.929 . S
H1474 C1426 0.929 . S
H1475 C1427 0.930 . S
H1476 C1434 0.929 . S
H1477 C1435 0.930 . S
H1478 C1436 0.930 . S
H1479 C1437 0.930 . S
H1480 C1439 0.929 . S
H1481 C1440 0.930 . S
H1482 C1441 0.930 . S
H1483 C1442 0.930 . S
H1484 C1446 0.929 . S
H1485 C1448 0.930 . S
H1486 C1454 0.929 . S
H1487 C1455 0.930 . S
Li1488 N1505 1.990 . S
Li1488 O1548 1.956 . S
Li1488 O1549 1.970 . S
Li1488 O1550 1.961 . S
Li1489 N1513 1.990 . S
Li1489 O1548 1.970 . S
Li1489 O1549 1.956 . S
Li1489 O1551 1.961 . S
Li1490 N1535 1.990 . S
Li1490 O1548 1.961 . S
Li1490 O1550 1.956 . S
Li1490 O1551 1.970 . S
Li1491 N1541 1.990 . S
Li1491 O1549 1.961 . S
Li1491 O1550 1.970 . S
Li1491 O1551 1.956 . S
C1492 C1494 1.348 . S
C1492 C1495 1.356 . S
C1492 O1548 1.325 . S
N1493 C1496 1.314 . S
N1493 C1497 1.279 . S
C1494 C1492 1.348 . S
C1494 C1496 1.353 . S
C1494 H1552 0.929 . S
C1495 C1492 1.356 . S
C1495 C1497 1.358 . S
C1495 H1553 0.930 . S
C1496 N1493 1.314 . S
C1496 C1494 1.353 . S
C1496 H1554 0.930 . S
C1497 N1493 1.279 . S
C1497 C1495 1.358 . S
C1497 H1555 0.930 . S
C1498 C1501 1.348 . S
C1498 C1502 1.356 . S
C1498 O1549 1.325 . S
C1499 N1500 1.279 . S
C1499 C1502 1.358 . S
C1499 H1556 0.930 . S
N1500 C1499 1.279 . S
N1500 C1503 1.314 . S
C1501 C1498 1.348 . S
C1501 C1503 1.353 . S
C1501 H1557 0.929 . S
C1502 C1498 1.356 . S
C1502 C1499 1.358 . S
C1502 H1558 0.930 . S
C1503 N1500 1.314 . S
C1503 C1501 1.353 . S
C1503 H1559 0.930 . S
C1504 N1505 1.314 . S
C1504 C1509 1.353 . S
C1504 H1510 0.930 . S
N1505 Li1488 1.990 . S
N1505 C1504 1.314 . S
N1505 C1507 1.279 . S
C1506 C1507 1.358 . S
C1506 C1508 1.356 . S
C1506 H1560 0.930 . S
C1507 N1505 1.279 . S
C1507 C1506 1.358 . S
C1507 H1511 0.930 . S
C1508 C1506 1.356 . S
C1508 C1509 1.348 . S
C1509 C1504 1.353 . S
C1509 C1508 1.348 . S
C1509 H1561 0.929 . S
H1510 C1504 0.930 . S
H1511 C1507 0.930 . S
C1512 N1513 1.314 . S
C1512 C1514 1.353 . S
C1512 H1518 0.930 . S
N1513 Li1489 1.990 . S
N1513 C1512 1.314 . S
N1513 C1516 1.279 . S
C1514 C1512 1.353 . S
C1514 C1517 1.348 . S
C1514 H1562 0.929 . S
C1515 C1516 1.358 . S
C1515 C1517 1.356 . S
C1515 H1563 0.930 . S
C1516 N1513 1.279 . S
C1516 C1515 1.358 . S
C1516 H1519 0.930 . S
C1517 C1514 1.348 . S
C1517 C1515 1.356 . S
H1518 C1512 0.930 . S
H1519 C1516 0.930 . S
C1520 C1522 1.348 . S
C1520 C1523 1.356 . S
C1520 O1550 1.325 . S
N1521 C1524 1.314 . S
N1521 C1525 1.279 . S
C1522 C1520 1.348 . S
C1522 C1524 1.353 . S
C1522 H1564 0.929 . S
C1523 C1520 1.356 . S
C1523 C1525 1.358 . S
C1523 H1565 0.930 . S
C1524 N1521 1.314 . S
C1524 C1522 1.353 . S
C1524 H1566 0.930 . S
C1525 N1521 1.279 . S
C1525 C1523 1.358 . S
C1525 H1567 0.930 . S
C1526 C1527 1.348 . S
C1526 C1528 1.356 . S
C1526 O1551 1.325 . S
C1527 C1526 1.348 . S
C1527 C1529 1.353 . S
C1527 H1568 0.929 . S
C1528 C1526 1.356 . S
C1528 C1530 1.358 . S
C1528 H1569 0.930 . S
C1529 C1527 1.353 . S
C1529 N1531 1.314 . S
C1529 H1570 0.930 . S
C1530 C1528 1.358 . S
C1530 N1531 1.279 . S
C1530 H1571 0.930 . S
N1531 C1529 1.314 . S
N1531 C1530 1.279 . S
C1532 C1534 1.353 . S
C1532 N1535 1.314 . S
C1532 H1538 0.930 . S
C1533 N1535 1.279 . S
C1533 C1536 1.358 . S
C1533 H1539 0.930 . S
C1534 C1532 1.353 . S
C1534 C1537 1.348 . S
C1534 H1572 0.929 . S
N1535 Li1490 1.990 . S
N1535 C1532 1.314 . S
N1535 C1533 1.279 . S
C1536 C1533 1.358 . S
C1536 C1537 1.356 . S
C1536 H1573 0.930 . S
C1537 C1534 1.348 . S
C1537 C1536 1.356 . S
H1538 C1532 0.930 . S
H1539 C1533 0.930 . S
C1540 N1541 1.314 . S
C1540 C1542 1.353 . S
C1540 H1546 0.930 . S
N1541 Li1491 1.990 . S
N1541 C1540 1.314 . S
N1541 C1544 1.279 . S
C1542 C1540 1.353 . S
C1542 C1545 1.348 . S
C1542 H1574 0.929 . S
C1543 C1544 1.358 . S
C1543 C1545 1.356 . S
C1543 H1575 0.930 . S
C1544 N1541 1.279 . S
C1544 C1543 1.358 . S
C1544 H1547 0.930 . S
C1545 C1542 1.348 . S
C1545 C1543 1.356 . S
H1546 C1540 0.930 . S
H1547 C1544 0.930 . S
O1548 Li1488 1.956 . S
O1548 Li1489 1.970 . S
O1548 Li1490 1.961 . S
O1548 C1492 1.325 . S
O1549 Li1488 1.970 . S
O1549 Li1489 1.956 . S
O1549 Li1491 1.961 . S
O1549 C1498 1.325 . S
O1550 Li1488 1.961 . S
O1550 Li1490 1.956 . S
O1550 Li1491 1.970 . S
O1550 C1520 1.325 . S
O1551 Li1489 1.961 . S
O1551 Li1490 1.970 . S
O1551 Li1491 1.956 . S
O1551 C1526 1.325 . S
H1552 C1494 0.929 . S
H1553 C1495 0.930 . S
H1554 C1496 0.930 . S
H1555 C1497 0.930 . S
H1556 C1499 0.930 . S
H1557 C1501 0.929 . S
H1558 C1502 0.930 . S
H1559 C1503 0.930 . S
H1560 C1506 0.930 . S
H1561 C1509 0.929 . S
H1562 C1514 0.929 . S
H1563 C1515 0.930 . S
H1564 C1522 0.929 . S
H1565 C1523 0.930 . S
H1566 C1524 0.930 . S
H1567 C1525 0.930 . S
H1568 C1527 0.929 . S
H1569 C1528 0.930 . S
H1570 C1529 0.930 . S
H1571 C1530 0.930 . S
H1572 C1534 0.929 . S
H1573 C1536 0.930 . S
H1574 C1542 0.929 . S
H1575 C1543 0.930 . S
Li1576 N1593 1.990 . S
Li1576 O1636 1.956 . S
Li1576 O1637 1.970 1_565 S
Li1576 O1638 1.961 . S
Li1577 N1601 1.990 . S
Li1577 O1636 1.970 1_545 S
Li1577 O1637 1.956 . S
Li1577 O1639 1.961 . S
Li1578 N1623 1.990 . S
Li1578 O1636 1.961 . S
Li1578 O1638 1.956 . S
Li1578 O1639 1.970 1_565 S
Li1579 N1629 1.990 . S
Li1579 O1637 1.961 . S
Li1579 O1638 1.970 1_545 S
Li1579 O1639 1.956 . S
C1580 C1582 1.348 . S
C1580 C1583 1.356 . S
C1580 O1636 1.325 . S
N1581 C1584 1.314 . S
N1581 C1585 1.279 . S
C1582 C1580 1.348 . S
C1582 C1584 1.353 . S
C1582 H1640 0.929 . S
C1583 C1580 1.356 . S
C1583 C1585 1.358 . S
C1583 H1641 0.930 . S
C1584 N1581 1.314 . S
C1584 C1582 1.353 . S
C1584 H1642 0.930 . S
C1585 N1581 1.279 . S
C1585 C1583 1.358 . S
C1585 H1643 0.930 . S
C1586 C1589 1.348 1_545 S
C1586 C1590 1.356 . S
C1586 O1637 1.325 . S
C1587 N1588 1.279 . S
C1587 C1590 1.358 . S
C1587 H1644 0.930 . S
N1588 C1587 1.279 . S
N1588 C1591 1.314 1_545 S
C1589 C1586 1.348 1_565 S
C1589 C1591 1.353 . S
C1589 H1645 0.929 . S
C1590 C1586 1.356 . S
C1590 C1587 1.358 . S
C1590 H1646 0.930 . S
C1591 N1588 1.314 1_565 S
C1591 C1589 1.353 . S
C1591 H1647 0.930 . S
C1592 N1593 1.314 . S
C1592 C1597 1.353 . S
C1592 H1598 0.930 . S
N1593 Li1576 1.990 . S
N1593 C1592 1.314 . S
N1593 C1595 1.279 . S
C1594 C1595 1.358 . S
C1594 C1596 1.356 . S
C1594 H1648 0.930 . S
C1595 N1593 1.279 . S
C1595 C1594 1.358 . S
C1595 H1599 0.930 . S
C1596 C1594 1.356 . S
C1596 C1597 1.348 . S
C1597 C1592 1.353 . S
C1597 C1596 1.348 . S
C1597 H1649 0.929 . S
H1598 C1592 0.930 . S
H1599 C1595 0.930 . S
C1600 N1601 1.314 . S
C1600 C1602 1.353 . S
C1600 H1606 0.930 . S
N1601 Li1577 1.990 . S
N1601 C1600 1.314 . S
N1601 C1604 1.279 . S
C1602 C1600 1.353 . S
C1602 C1605 1.348 . S
C1602 H1650 0.929 . S
C1603 C1604 1.358 . S
C1603 C1605 1.356 . S
C1603 H1651 0.930 . S
C1604 N1601 1.279 . S
C1604 C1603 1.358 . S
C1604 H1607 0.930 . S
C1605 C1602 1.348 . S
C1605 C1603 1.356 . S
H1606 C1600 0.930 . S
H1607 C1604 0.930 . S
C1608 C1610 1.348 1_565 S
C1608 C1611 1.356 . S
C1608 O1638 1.325 . S
N1609 C1612 1.314 1_565 S
N1609 C1613 1.279 . S
C1610 C1608 1.348 1_545 S
C1610 C1612 1.353 . S
C1610 H1652 0.929 . S
C1611 C1608 1.356 . S
C1611 C1613 1.358 . S
C1611 H1653 0.930 . S
C1612 N1609 1.314 1_545 S
C1612 C1610 1.353 . S
C1612 H1654 0.930 . S
C1613 N1609 1.279 . S
C1613 C1611 1.358 . S
C1613 H1655 0.930 . S
C1614 C1615 1.348 . S
C1614 C1616 1.356 . S
C1614 O1639 1.325 . S
C1615 C1614 1.348 . S
C1615 C1617 1.353 . S
C1615 H1656 0.929 . S
C1616 C1614 1.356 . S
C1616 C1618 1.358 . S
C1616 H1657 0.930 . S
C1617 C1615 1.353 . S
C1617 N1619 1.314 . S
C1617 H1658 0.930 . S
C1618 C1616 1.358 . S
C1618 N1619 1.279 . S
C1618 H1659 0.930 . S
N1619 C1617 1.314 . S
N1619 C1618 1.279 . S
C1620 C1622 1.353 . S
C1620 N1623 1.314 . S
C1620 H1626 0.930 . S
C1621 N1623 1.279 . S
C1621 C1624 1.358 . S
C1621 H1627 0.930 . S
C1622 C1620 1.353 . S
C1622 C1625 1.348 . S
C1622 H1660 0.929 . S
N1623 Li1578 1.990 . S
N1623 C1620 1.314 . S
N1623 C1621 1.279 . S
C1624 C1621 1.358 . S
C1624 C1625 1.356 . S
C1624 H1661 0.930 . S
C1625 C1622 1.348 . S
C1625 C1624 1.356 . S
H1626 C1620 0.930 . S
H1627 C1621 0.930 . S
C1628 N1629 1.314 . S
C1628 C1630 1.353 . S
C1628 H1634 0.930 . S
N1629 Li1579 1.990 . S
N1629 C1628 1.314 . S
N1629 C1632 1.279 . S
C1630 C1628 1.353 . S
C1630 C1633 1.348 . S
C1630 H1662 0.929 . S
C1631 C1632 1.358 . S
C1631 C1633 1.356 . S
C1631 H1663 0.930 . S
C1632 N1629 1.279 . S
C1632 C1631 1.358 . S
C1632 H1635 0.930 . S
C1633 C1630 1.348 . S
C1633 C1631 1.356 . S
H1634 C1628 0.930 . S
H1635 C1632 0.930 . S
O1636 Li1576 1.956 . S
O1636 Li1577 1.970 1_565 S
O1636 Li1578 1.961 . S
O1636 C1580 1.325 . S
O1637 Li1576 1.970 1_545 S
O1637 Li1577 1.956 . S
O1637 Li1579 1.961 . S
O1637 C1586 1.325 . S
O1638 Li1576 1.961 . S
O1638 Li1578 1.956 . S
O1638 Li1579 1.970 1_565 S
O1638 C1608 1.325 . S
O1639 Li1577 1.961 . S
O1639 Li1578 1.970 1_545 S
O1639 Li1579 1.956 . S
O1639 C1614 1.325 . S
H1640 C1582 0.929 . S
H1641 C1583 0.930 . S
H1642 C1584 0.930 . S
H1643 C1585 0.930 . S
H1644 C1587 0.930 . S
H1645 C1589 0.929 . S
H1646 C1590 0.930 . S
H1647 C1591 0.930 . S
H1648 C1594 0.930 . S
H1649 C1597 0.929 . S
H1650 C1602 0.929 . S
H1651 C1603 0.930 . S
H1652 C1610 0.929 . S
H1653 C1611 0.930 . S
H1654 C1612 0.930 . S
H1655 C1613 0.930 . S
H1656 C1615 0.929 . S
H1657 C1616 0.930 . S
H1658 C1617 0.930 . S
H1659 C1618 0.930 . S
H1660 C1622 0.929 . S
H1661 C1624 0.930 . S
H1662 C1630 0.929 . S
H1663 C1631 0.930 . S
Li1664 N1681 1.990 . S
Li1664 O1724 1.956 . S
Li1664 O1725 1.970 1_455 S
Li1664 O1726 1.961 . S
Li1665 N1689 1.990 . S
Li1665 O1724 1.970 1_655 S
Li1665 O1725 1.956 . S
Li1665 O1727 1.961 . S
Li1666 N1711 1.990 . S
Li1666 O1724 1.961 . S
Li1666 O1726 1.956 . S
Li1666 O1727 1.970 1_455 S
Li1667 N1717 1.990 . S
Li1667 O1725 1.961 . S
Li1667 O1726 1.970 1_655 S
Li1667 O1727 1.956 . S
C1668 C1670 1.348 . S
C1668 C1671 1.356 . S
C1668 O1724 1.325 . S
N1669 C1672 1.314 . S
N1669 C1673 1.279 . S
C1670 C1668 1.348 . S
C1670 C1672 1.353 . S
C1670 H1728 0.929 . S
C1671 C1668 1.356 . S
C1671 C1673 1.358 . S
C1671 H1729 0.930 . S
C1672 N1669 1.314 . S
C1672 C1670 1.353 . S
C1672 H1730 0.930 . S
C1673 N1669 1.279 . S
C1673 C1671 1.358 . S
C1673 H1731 0.930 . S
C1674 C1677 1.348 1_655 S
C1674 C1678 1.356 . S
C1674 O1725 1.325 . S
C1675 N1676 1.279 . S
C1675 C1678 1.358 . S
C1675 H1732 0.930 . S
N1676 C1675 1.279 . S
N1676 C1679 1.314 1_655 S
C1677 C1674 1.348 1_455 S
C1677 C1679 1.353 . S
C1677 H1733 0.929 . S
C1678 C1674 1.356 . S
C1678 C1675 1.358 . S
C1678 H1734 0.930 . S
C1679 N1676 1.314 1_455 S
C1679 C1677 1.353 . S
C1679 H1735 0.930 . S
C1680 N1681 1.314 . S
C1680 C1685 1.353 . S
C1680 H1686 0.930 . S
N1681 Li1664 1.990 . S
N1681 C1680 1.314 . S
N1681 C1683 1.279 . S
C1682 C1683 1.358 . S
C1682 C1684 1.356 . S
C1682 H1736 0.930 . S
C1683 N1681 1.279 . S
C1683 C1682 1.358 . S
C1683 H1687 0.930 . S
C1684 C1682 1.356 . S
C1684 C1685 1.348 . S
C1685 C1680 1.353 . S
C1685 C1684 1.348 . S
C1685 H1737 0.929 . S
H1686 C1680 0.930 . S
H1687 C1683 0.930 . S
C1688 N1689 1.314 . S
C1688 C1690 1.353 . S
C1688 H1694 0.930 . S
N1689 Li1665 1.990 . S
N1689 C1688 1.314 . S
N1689 C1692 1.279 . S
C1690 C1688 1.353 . S
C1690 C1693 1.348 . S
C1690 H1738 0.929 . S
C1691 C1692 1.358 . S
C1691 C1693 1.356 . S
C1691 H1739 0.930 . S
C1692 N1689 1.279 . S
C1692 C1691 1.358 . S
C1692 H1695 0.930 . S
C1693 C1690 1.348 . S
C1693 C1691 1.356 . S
H1694 C1688 0.930 . S
H1695 C1692 0.930 . S
C1696 C1698 1.348 1_455 S
C1696 C1699 1.356 . S
C1696 O1726 1.325 . S
N1697 C1700 1.314 1_455 S
N1697 C1701 1.279 . S
C1698 C1696 1.348 1_655 S
C1698 C1700 1.353 . S
C1698 H1740 0.929 . S
C1699 C1696 1.356 . S
C1699 C1701 1.358 . S
C1699 H1741 0.930 . S
C1700 N1697 1.314 1_655 S
C1700 C1698 1.353 . S
C1700 H1742 0.930 . S
C1701 N1697 1.279 . S
C1701 C1699 1.358 . S
C1701 H1743 0.930 . S
C1702 C1703 1.348 . S
C1702 C1704 1.356 . S
C1702 O1727 1.325 . S
C1703 C1702 1.348 . S
C1703 C1705 1.353 . S
C1703 H1744 0.929 . S
C1704 C1702 1.356 . S
C1704 C1706 1.358 . S
C1704 H1745 0.930 . S
C1705 C1703 1.353 . S
C1705 N1707 1.314 . S
C1705 H1746 0.930 . S
C1706 C1704 1.358 . S
C1706 N1707 1.279 . S
C1706 H1747 0.930 . S
N1707 C1705 1.314 . S
N1707 C1706 1.279 . S
C1708 C1710 1.353 . S
C1708 N1711 1.314 . S
C1708 H1714 0.930 . S
C1709 N1711 1.279 . S
C1709 C1712 1.358 . S
C1709 H1715 0.930 . S
C1710 C1708 1.353 . S
C1710 C1713 1.348 . S
C1710 H1748 0.929 . S
N1711 Li1666 1.990 . S
N1711 C1708 1.314 . S
N1711 C1709 1.279 . S
C1712 C1709 1.358 . S
C1712 C1713 1.356 . S
C1712 H1749 0.930 . S
C1713 C1710 1.348 . S
C1713 C1712 1.356 . S
H1714 C1708 0.930 . S
H1715 C1709 0.930 . S
C1716 N1717 1.314 . S
C1716 C1718 1.353 . S
C1716 H1722 0.930 . S
N1717 Li1667 1.990 . S
N1717 C1716 1.314 . S
N1717 C1720 1.279 . S
C1718 C1716 1.353 . S
C1718 C1721 1.348 . S
C1718 H1750 0.929 . S
C1719 C1720 1.358 . S
C1719 C1721 1.356 . S
C1719 H1751 0.930 . S
C1720 N1717 1.279 . S
C1720 C1719 1.358 . S
C1720 H1723 0.930 . S
C1721 C1718 1.348 . S
C1721 C1719 1.356 . S
H1722 C1716 0.930 . S
H1723 C1720 0.930 . S
O1724 Li1664 1.956 . S
O1724 Li1665 1.970 1_455 S
O1724 Li1666 1.961 . S
O1724 C1668 1.325 . S
O1725 Li1664 1.970 1_655 S
O1725 Li1665 1.956 . S
O1725 Li1667 1.961 . S
O1725 C1674 1.325 . S
O1726 Li1664 1.961 . S
O1726 Li1666 1.956 . S
O1726 Li1667 1.970 1_455 S
O1726 C1696 1.325 . S
O1727 Li1665 1.961 . S
O1727 Li1666 1.970 1_655 S
O1727 Li1667 1.956 . S
O1727 C1702 1.325 . S
H1728 C1670 0.929 . S
H1729 C1671 0.930 . S
H1730 C1672 0.930 . S
H1731 C1673 0.930 . S
H1732 C1675 0.930 . S
H1733 C1677 0.929 . S
H1734 C1678 0.930 . S
H1735 C1679 0.930 . S
H1736 C1682 0.930 . S
H1737 C1685 0.929 . S
H1738 C1690 0.929 . S
H1739 C1691 0.930 . S
H1740 C1698 0.929 . S
H1741 C1699 0.930 . S
H1742 C1700 0.930 . S
H1743 C1701 0.930 . S
H1744 C1703 0.929 . S
H1745 C1704 0.930 . S
H1746 C1705 0.930 . S
H1747 C1706 0.930 . S
H1748 C1710 0.929 . S
H1749 C1712 0.930 . S
H1750 C1718 0.929 . S
H1751 C1719 0.930 . S
Li1752 N1769 1.990 . S
Li1752 O1812 1.956 . S
Li1752 O1813 1.970 . S
Li1752 O1814 1.961 . S
Li1753 N1777 1.990 . S
Li1753 O1812 1.970 . S
Li1753 O1813 1.956 . S
Li1753 O1815 1.961 . S
Li1754 N1799 1.990 . S
Li1754 O1812 1.961 . S
Li1754 O1814 1.956 . S
Li1754 O1815 1.970 . S
Li1755 N1805 1.990 . S
Li1755 O1813 1.961 . S
Li1755 O1814 1.970 . S
Li1755 O1815 1.956 . S
C1756 C1758 1.348 . S
C1756 C1759 1.356 . S
C1756 O1812 1.325 . S
N1757 C1760 1.314 . S
N1757 C1761 1.279 . S
C1758 C1756 1.348 . S
C1758 C1760 1.353 . S
C1758 H1816 0.929 . S
C1759 C1756 1.356 . S
C1759 C1761 1.358 . S
C1759 H1817 0.930 . S
C1760 N1757 1.314 . S
C1760 C1758 1.353 . S
C1760 H1818 0.930 . S
C1761 N1757 1.279 . S
C1761 C1759 1.358 . S
C1761 H1819 0.930 . S
C1762 C1765 1.348 . S
C1762 C1766 1.356 . S
C1762 O1813 1.325 . S
C1763 N1764 1.279 . S
C1763 C1766 1.358 . S
C1763 H1820 0.930 . S
N1764 C1763 1.279 . S
N1764 C1767 1.314 . S
C1765 C1762 1.348 . S
C1765 C1767 1.353 . S
C1765 H1821 0.929 . S
C1766 C1762 1.356 . S
C1766 C1763 1.358 . S
C1766 H1822 0.930 . S
C1767 N1764 1.314 . S
C1767 C1765 1.353 . S
C1767 H1823 0.930 . S
C1768 N1769 1.314 . S
C1768 C1773 1.353 . S
C1768 H1774 0.930 . S
N1769 Li1752 1.990 . S
N1769 C1768 1.314 . S
N1769 C1771 1.279 . S
C1770 C1771 1.358 . S
C1770 C1772 1.356 . S
C1770 H1824 0.930 . S
C1771 N1769 1.279 . S
C1771 C1770 1.358 . S
C1771 H1775 0.930 . S
C1772 C1770 1.356 . S
C1772 C1773 1.348 . S
C1773 C1768 1.353 . S
C1773 C1772 1.348 . S
C1773 H1825 0.929 . S
H1774 C1768 0.930 . S
H1775 C1771 0.930 . S
C1776 N1777 1.314 . S
C1776 C1778 1.353 . S
C1776 H1782 0.930 . S
N1777 Li1753 1.990 . S
N1777 C1776 1.314 . S
N1777 C1780 1.279 . S
C1778 C1776 1.353 . S
C1778 C1781 1.348 . S
C1778 H1826 0.929 . S
C1779 C1780 1.358 . S
C1779 C1781 1.356 . S
C1779 H1827 0.930 . S
C1780 N1777 1.279 . S
C1780 C1779 1.358 . S
C1780 H1783 0.930 . S
C1781 C1778 1.348 . S
C1781 C1779 1.356 . S
H1782 C1776 0.930 . S
H1783 C1780 0.930 . S
C1784 C1786 1.348 . S
C1784 C1787 1.356 . S
C1784 O1814 1.325 . S
N1785 C1788 1.314 . S
N1785 C1789 1.279 . S
C1786 C1784 1.348 . S
C1786 C1788 1.353 . S
C1786 H1828 0.929 . S
C1787 C1784 1.356 . S
C1787 C1789 1.358 . S
C1787 H1829 0.930 . S
C1788 N1785 1.314 . S
C1788 C1786 1.353 . S
C1788 H1830 0.930 . S
C1789 N1785 1.279 . S
C1789 C1787 1.358 . S
C1789 H1831 0.930 . S
C1790 C1791 1.348 . S
C1790 C1792 1.356 . S
C1790 O1815 1.325 . S
C1791 C1790 1.348 . S
C1791 C1793 1.353 . S
C1791 H1832 0.929 . S
C1792 C1790 1.356 . S
C1792 C1794 1.358 . S
C1792 H1833 0.930 . S
C1793 C1791 1.353 . S
C1793 N1795 1.314 . S
C1793 H1834 0.930 . S
C1794 C1792 1.358 . S
C1794 N1795 1.279 . S
C1794 H1835 0.930 . S
N1795 C1793 1.314 . S
N1795 C1794 1.279 . S
C1796 C1798 1.353 . S
C1796 N1799 1.314 . S
C1796 H1802 0.930 . S
C1797 N1799 1.279 . S
C1797 C1800 1.358 . S
C1797 H1803 0.930 . S
C1798 C1796 1.353 . S
C1798 C1801 1.348 . S
C1798 H1836 0.929 . S
N1799 Li1754 1.990 . S
N1799 C1796 1.314 . S
N1799 C1797 1.279 . S
C1800 C1797 1.358 . S
C1800 C1801 1.356 . S
C1800 H1837 0.930 . S
C1801 C1798 1.348 . S
C1801 C1800 1.356 . S
H1802 C1796 0.930 . S
H1803 C1797 0.930 . S
C1804 N1805 1.314 . S
C1804 C1806 1.353 . S
C1804 H1810 0.930 . S
N1805 Li1755 1.990 . S
N1805 C1804 1.314 . S
N1805 C1808 1.279 . S
C1806 C1804 1.353 . S
C1806 C1809 1.348 . S
C1806 H1838 0.929 . S
C1807 C1808 1.358 . S
C1807 C1809 1.356 . S
C1807 H1839 0.930 . S
C1808 N1805 1.279 . S
C1808 C1807 1.358 . S
C1808 H1811 0.930 . S
C1809 C1806 1.348 . S
C1809 C1807 1.356 . S
H1810 C1804 0.930 . S
H1811 C1808 0.930 . S
O1812 Li1752 1.956 . S
O1812 Li1753 1.970 . S
O1812 Li1754 1.961 . S
O1812 C1756 1.325 . S
O1813 Li1752 1.970 . S
O1813 Li1753 1.956 . S
O1813 Li1755 1.961 . S
O1813 C1762 1.325 . S
O1814 Li1752 1.961 . S
O1814 Li1754 1.956 . S
O1814 Li1755 1.970 . S
O1814 C1784 1.325 . S
O1815 Li1753 1.961 . S
O1815 Li1754 1.970 . S
O1815 Li1755 1.956 . S
O1815 C1790 1.325 . S
H1816 C1758 0.929 . S
H1817 C1759 0.930 . S
H1818 C1760 0.930 . S
H1819 C1761 0.930 . S
H1820 C1763 0.930 . S
H1821 C1765 0.929 . S
H1822 C1766 0.930 . S
H1823 C1767 0.930 . S
H1824 C1770 0.930 . S
H1825 C1773 0.929 . S
H1826 C1778 0.929 . S
H1827 C1779 0.930 . S
H1828 C1786 0.929 . S
H1829 C1787 0.930 . S
H1830 C1788 0.930 . S
H1831 C1789 0.930 . S
H1832 C1791 0.929 . S
H1833 C1792 0.930 . S
H1834 C1793 0.930 . S
H1835 C1794 0.930 . S
H1836 C1798 0.929 . S
H1837 C1800 0.930 . S
H1838 C1806 0.929 . S
H1839 C1807 0.930 . S
Li1840 N1857 1.990 . S
Li1840 O1900 1.956 . S
Li1840 O1901 1.970 1_455 S
Li1840 O1902 1.961 . S
Li1841 N1865 1.990 . S
Li1841 O1900 1.970 1_655 S
Li1841 O1901 1.956 . S
Li1841 O1903 1.961 . S
Li1842 N1887 1.990 . S
Li1842 O1900 1.961 . S
Li1842 O1902 1.956 . S
Li1842 O1903 1.970 1_455 S
Li1843 N1893 1.990 . S
Li1843 O1901 1.961 . S
Li1843 O1902 1.970 1_655 S
Li1843 O1903 1.956 . S
C1844 C1846 1.348 1_455 S
C1844 C1847 1.356 . S
C1844 O1900 1.325 . S
N1845 C1848 1.314 1_455 S
N1845 C1849 1.279 . S
C1846 C1844 1.348 1_655 S
C1846 C1848 1.353 . S
C1846 H1904 0.929 . S
C1847 C1844 1.356 . S
C1847 C1849 1.358 . S
C1847 H1905 0.930 . S
C1848 N1845 1.314 1_655 S
C1848 C1846 1.353 . S
C1848 H1906 0.930 . S
C1849 N1845 1.279 . S
C1849 C1847 1.358 . S
C1849 H1907 0.930 . S
C1850 C1853 1.348 . S
C1850 C1854 1.356 . S
C1850 O1901 1.325 . S
C1851 N1852 1.279 . S
C1851 C1854 1.358 . S
C1851 H1908 0.930 . S
N1852 C1851 1.279 . S
N1852 C1855 1.314 . S
C1853 C1850 1.348 . S
C1853 C1855 1.353 . S
C1853 H1909 0.929 . S
C1854 C1850 1.356 . S
C1854 C1851 1.358 . S
C1854 H1910 0.930 . S
C1855 N1852 1.314 . S
C1855 C1853 1.353 . S
C1855 H1911 0.930 . S
C1856 N1857 1.314 . S
C1856 C1861 1.353 . S
C1856 H1862 0.930 . S
N1857 Li1840 1.990 . S
N1857 C1856 1.314 . S
N1857 C1859 1.279 . S
C1858 C1859 1.358 . S
C1858 C1860 1.356 . S
C1858 H1912 0.930 . S
C1859 N1857 1.279 . S
C1859 C1858 1.358 . S
C1859 H1863 0.930 . S
C1860 C1858 1.356 . S
C1860 C1861 1.348 . S
C1861 C1856 1.353 . S
C1861 C1860 1.348 . S
C1861 H1913 0.929 . S
H1862 C1856 0.930 . S
H1863 C1859 0.930 . S
C1864 N1865 1.314 . S
C1864 C1866 1.353 . S
C1864 H1870 0.930 . S
N1865 Li1841 1.990 . S
N1865 C1864 1.314 . S
N1865 C1868 1.279 . S
C1866 C1864 1.353 . S
C1866 C1869 1.348 . S
C1866 H1914 0.929 . S
C1867 C1868 1.358 . S
C1867 C1869 1.356 . S
C1867 H1915 0.930 . S
C1868 N1865 1.279 . S
C1868 C1867 1.358 . S
C1868 H1871 0.930 . S
C1869 C1866 1.348 . S
C1869 C1867 1.356 . S
H1870 C1864 0.930 . S
H1871 C1868 0.930 . S
C1872 C1874 1.348 . S
C1872 C1875 1.356 . S
C1872 O1902 1.325 . S
N1873 C1876 1.314 . S
N1873 C1877 1.279 . S
C1874 C1872 1.348 . S
C1874 C1876 1.353 . S
C1874 H1916 0.929 . S
C1875 C1872 1.356 . S
C1875 C1877 1.358 . S
C1875 H1917 0.930 . S
C1876 N1873 1.314 . S
C1876 C1874 1.353 . S
C1876 H1918 0.930 . S
C1877 N1873 1.279 . S
C1877 C1875 1.358 . S
C1877 H1919 0.930 . S
C1878 C1879 1.348 1_655 S
C1878 C1880 1.356 . S
C1878 O1903 1.325 . S
C1879 C1878 1.348 1_455 S
C1879 C1881 1.353 . S
C1879 H1920 0.929 . S
C1880 C1878 1.356 . S
C1880 C1882 1.358 . S
C1880 H1921 0.930 . S
C1881 C1879 1.353 . S
C1881 N1883 1.314 1_455 S
C1881 H1922 0.930 . S
C1882 C1880 1.358 . S
C1882 N1883 1.279 . S
C1882 H1923 0.930 . S
N1883 C1881 1.314 1_655 S
N1883 C1882 1.279 . S
C1884 C1886 1.353 . S
C1884 N1887 1.314 . S
C1884 H1890 0.930 . S
C1885 N1887 1.279 . S
C1885 C1888 1.358 . S
C1885 H1891 0.930 . S
C1886 C1884 1.353 . S
C1886 C1889 1.348 . S
C1886 H1924 0.929 . S
N1887 Li1842 1.990 . S
N1887 C1884 1.314 . S
N1887 C1885 1.279 . S
C1888 C1885 1.358 . S
C1888 C1889 1.356 . S
C1888 H1925 0.930 . S
C1889 C1886 1.348 . S
C1889 C1888 1.356 . S
H1890 C1884 0.930 . S
H1891 C1885 0.930 . S
C1892 N1893 1.314 . S
C1892 C1894 1.353 . S
C1892 H1898 0.930 . S
N1893 Li1843 1.990 . S
N1893 C1892 1.314 . S
N1893 C1896 1.279 . S
C1894 C1892 1.353 . S
C1894 C1897 1.348 . S
C1894 H1926 0.929 . S
C1895 C1896 1.358 . S
C1895 C1897 1.356 . S
C1895 H1927 0.930 . S
C1896 N1893 1.279 . S
C1896 C1895 1.358 . S
C1896 H1899 0.930 . S
C1897 C1894 1.348 . S
C1897 C1895 1.356 . S
H1898 C1892 0.930 . S
H1899 C1896 0.930 . S
O1900 Li1840 1.956 . S
O1900 Li1841 1.970 1_455 S
O1900 Li1842 1.961 . S
O1900 C1844 1.325 . S
O1901 Li1840 1.970 1_655 S
O1901 Li1841 1.956 . S
O1901 Li1843 1.961 . S
O1901 C1850 1.325 . S
O1902 Li1840 1.961 . S
O1902 Li1842 1.956 . S
O1902 Li1843 1.970 1_455 S
O1902 C1872 1.325 . S
O1903 Li1841 1.961 . S
O1903 Li1842 1.970 1_655 S
O1903 Li1843 1.956 . S
O1903 C1878 1.325 . S
H1904 C1846 0.929 . S
H1905 C1847 0.930 . S
H1906 C1848 0.930 . S
H1907 C1849 0.930 . S
H1908 C1851 0.930 . S
H1909 C1853 0.929 . S
H1910 C1854 0.930 . S
H1911 C1855 0.930 . S
H1912 C1858 0.930 . S
H1913 C1861 0.929 . S
H1914 C1866 0.929 . S
H1915 C1867 0.930 . S
H1916 C1874 0.929 . S
H1917 C1875 0.930 . S
H1918 C1876 0.930 . S
H1919 C1877 0.930 . S
H1920 C1879 0.929 . S
H1921 C1880 0.930 . S
H1922 C1881 0.930 . S
H1923 C1882 0.930 . S
H1924 C1886 0.929 . S
H1925 C1888 0.930 . S
H1926 C1894 0.929 . S
H1927 C1895 0.930 . S
Li1928 N1945 1.990 . S
Li1928 O1988 1.956 . S
Li1928 O1989 1.970 . S
Li1928 O1990 1.961 . S
Li1929 N1953 1.990 . S
Li1929 O1988 1.970 . S
Li1929 O1989 1.956 . S
Li1929 O1991 1.961 . S
Li1930 N1975 1.990 . S
Li1930 O1988 1.961 . S
Li1930 O1990 1.956 . S
Li1930 O1991 1.970 . S
Li1931 N1981 1.990 . S
Li1931 O1989 1.961 . S
Li1931 O1990 1.970 . S
Li1931 O1991 1.956 . S
C1932 C1934 1.348 . S
C1932 C1935 1.356 . S
C1932 O1988 1.325 . S
N1933 C1936 1.314 . S
N1933 C1937 1.279 . S
C1934 C1932 1.348 . S
C1934 C1936 1.353 . S
C1934 H1992 0.929 . S
C1935 C1932 1.356 . S
C1935 C1937 1.358 . S
C1935 H1993 0.930 . S
C1936 N1933 1.314 . S
C1936 C1934 1.353 . S
C1936 H1994 0.930 . S
C1937 N1933 1.279 . S
C1937 C1935 1.358 . S
C1937 H1995 0.930 . S
C1938 C1941 1.348 . S
C1938 C1942 1.356 . S
C1938 O1989 1.325 . S
C1939 N1940 1.279 . S
C1939 C1942 1.358 . S
C1939 H1996 0.930 . S
N1940 C1939 1.279 . S
N1940 C1943 1.314 . S
C1941 C1938 1.348 . S
C1941 C1943 1.353 . S
C1941 H1997 0.929 . S
C1942 C1938 1.356 . S
C1942 C1939 1.358 . S
C1942 H1998 0.930 . S
C1943 N1940 1.314 . S
C1943 C1941 1.353 . S
C1943 H1999 0.930 . S
C1944 N1945 1.314 . S
C1944 C1949 1.353 . S
C1944 H1950 0.930 . S
N1945 Li1928 1.990 . S
N1945 C1944 1.314 . S
N1945 C1947 1.279 . S
C1946 C1947 1.358 . S
C1946 C1948 1.356 . S
C1946 H2000 0.930 . S
C1947 N1945 1.279 . S
C1947 C1946 1.358 . S
C1947 H1951 0.930 . S
C1948 C1946 1.356 . S
C1948 C1949 1.348 . S
C1949 C1944 1.353 . S
C1949 C1948 1.348 . S
C1949 H2001 0.929 . S
H1950 C1944 0.930 . S
H1951 C1947 0.930 . S
C1952 N1953 1.314 . S
C1952 C1954 1.353 . S
C1952 H1958 0.930 . S
N1953 Li1929 1.990 . S
N1953 C1952 1.314 . S
N1953 C1956 1.279 . S
C1954 C1952 1.353 . S
C1954 C1957 1.348 . S
C1954 H2002 0.929 . S
C1955 C1956 1.358 . S
C1955 C1957 1.356 . S
C1955 H2003 0.930 . S
C1956 N1953 1.279 . S
C1956 C1955 1.358 . S
C1956 H1959 0.930 . S
C1957 C1954 1.348 . S
C1957 C1955 1.356 . S
H1958 C1952 0.930 . S
H1959 C1956 0.930 . S
C1960 C1962 1.348 . S
C1960 C1963 1.356 . S
C1960 O1990 1.325 . S
N1961 C1964 1.314 . S
N1961 C1965 1.279 . S
C1962 C1960 1.348 . S
C1962 C1964 1.353 . S
C1962 H2004 0.929 . S
C1963 C1960 1.356 . S
C1963 C1965 1.358 . S
C1963 H2005 0.930 . S
C1964 N1961 1.314 . S
C1964 C1962 1.353 . S
C1964 H2006 0.930 . S
C1965 N1961 1.279 . S
C1965 C1963 1.358 . S
C1965 H2007 0.930 . S
C1966 C1967 1.348 . S
C1966 C1968 1.356 . S
C1966 O1991 1.325 . S
C1967 C1966 1.348 . S
C1967 C1969 1.353 . S
C1967 H2008 0.929 . S
C1968 C1966 1.356 . S
C1968 C1970 1.358 . S
C1968 H2009 0.930 . S
C1969 C1967 1.353 . S
C1969 N1971 1.314 . S
C1969 H2010 0.930 . S
C1970 C1968 1.358 . S
C1970 N1971 1.279 . S
C1970 H2011 0.930 . S
N1971 C1969 1.314 . S
N1971 C1970 1.279 . S
C1972 C1974 1.353 . S
C1972 N1975 1.314 . S
C1972 H1978 0.930 . S
C1973 N1975 1.279 . S
C1973 C1976 1.358 . S
C1973 H1979 0.930 . S
C1974 C1972 1.353 . S
C1974 C1977 1.348 . S
C1974 H2012 0.929 . S
N1975 Li1930 1.990 . S
N1975 C1972 1.314 . S
N1975 C1973 1.279 . S
C1976 C1973 1.358 . S
C1976 C1977 1.356 . S
C1976 H2013 0.930 . S
C1977 C1974 1.348 . S
C1977 C1976 1.356 . S
H1978 C1972 0.930 . S
H1979 C1973 0.930 . S
C1980 N1981 1.314 . S
C1980 C1982 1.353 . S
C1980 H1986 0.930 . S
N1981 Li1931 1.990 . S
N1981 C1980 1.314 . S
N1981 C1984 1.279 . S
C1982 C1980 1.353 . S
C1982 C1985 1.348 . S
C1982 H2014 0.929 . S
C1983 C1984 1.358 . S
C1983 C1985 1.356 . S
C1983 H2015 0.930 . S
C1984 N1981 1.279 . S
C1984 C1983 1.358 . S
C1984 H1987 0.930 . S
C1985 C1982 1.348 . S
C1985 C1983 1.356 . S
H1986 C1980 0.930 . S
H1987 C1984 0.930 . S
O1988 Li1928 1.956 . S
O1988 Li1929 1.970 . S
O1988 Li1930 1.961 . S
O1988 C1932 1.325 . S
O1989 Li1928 1.970 . S
O1989 Li1929 1.956 . S
O1989 Li1931 1.961 . S
O1989 C1938 1.325 . S
O1990 Li1928 1.961 . S
O1990 Li1930 1.956 . S
O1990 Li1931 1.970 . S
O1990 C1960 1.325 . S
O1991 Li1929 1.961 . S
O1991 Li1930 1.970 . S
O1991 Li1931 1.956 . S
O1991 C1966 1.325 . S
H1992 C1934 0.929 . S
H1993 C1935 0.930 . S
H1994 C1936 0.930 . S
H1995 C1937 0.930 . S
H1996 C1939 0.930 . S
H1997 C1941 0.929 . S
H1998 C1942 0.930 . S
H1999 C1943 0.930 . S
H2000 C1946 0.930 . S
H2001 C1949 0.929 . S
H2002 C1954 0.929 . S
H2003 C1955 0.930 . S
H2004 C1962 0.929 . S
H2005 C1963 0.930 . S
H2006 C1964 0.930 . S
H2007 C1965 0.930 . S
H2008 C1967 0.929 . S
H2009 C1968 0.930 . S
H2010 C1969 0.930 . S
H2011 C1970 0.930 . S
H2012 C1974 0.929 . S
H2013 C1976 0.930 . S
H2014 C1982 0.929 . S
H2015 C1983 0.930 . S
H2016 C2024 0.950 . S
H2017 C2029 0.950 . S
H2018 C2026 0.950 . S
H2019 C2028 0.950 . S
H2020 C2030 0.950 . S
H2021 C2032 0.950 . S
H2022 C2034 0.950 . S
H2023 C2035 0.950 . S
C2024 H2016 0.950 . S
C2024 C2025 1.386 . S
C2024 C2026 1.391 . S
C2025 C2024 1.386 . S
C2025 C2029 1.393 . S
C2026 H2018 0.950 . S
C2026 C2024 1.391 . S
C2026 C2027 1.400 . S
C2027 C2026 1.400 . S
C2027 C2028 1.398 . S
C2027 C2033 1.491 . S
C2028 H2019 0.950 . S
C2028 C2027 1.398 . S
C2028 C2029 1.391 . S
C2029 H2017 0.950 . S
C2029 C2025 1.393 . S
C2029 C2028 1.391 . S
C2030 H2020 0.950 . S
C2030 C2031 1.386 . S
C2030 C2032 1.391 . S
C2031 C2030 1.386 . S
C2031 C2035 1.393 . S
C2032 H2021 0.950 . S
C2032 C2030 1.391 . S
C2032 C2033 1.400 . S
C2033 C2027 1.491 . S
C2033 C2032 1.400 . S
C2033 C2034 1.398 . S
C2034 H2022 0.950 . S
C2034 C2033 1.398 . S
C2034 C2035 1.391 . S
C2035 H2023 0.950 . S
C2035 C2031 1.393 . S
C2035 C2034 1.391 . S
H2036 C2044 0.950 . S
H2037 C2049 0.950 . S
H2038 C2046 0.950 . S
H2039 C2048 0.950 . S
H2040 C2050 0.950 . S
H2041 C2052 0.950 . S
H2042 C2054 0.950 . S
H2043 C2055 0.950 . S
C2044 H2036 0.950 . S
C2044 C2045 1.386 . S
C2044 C2046 1.391 . S
C2045 C2044 1.386 . S
C2045 C2049 1.393 . S
C2046 H2038 0.950 . S
C2046 C2044 1.391 . S
C2046 C2047 1.400 . S
C2047 C2046 1.400 . S
C2047 C2048 1.398 . S
C2047 C2053 1.491 . S
C2048 H2039 0.950 . S
C2048 C2047 1.398 . S
C2048 C2049 1.391 . S
C2049 H2037 0.950 . S
C2049 C2045 1.393 . S
C2049 C2048 1.391 . S
C2050 H2040 0.950 . S
C2050 C2051 1.386 . S
C2050 C2052 1.391 . S
C2051 C2050 1.386 . S
C2051 C2055 1.393 . S
C2052 H2041 0.950 . S
C2052 C2050 1.391 . S
C2052 C2053 1.400 . S
C2053 C2047 1.491 . S
C2053 C2052 1.400 . S
C2053 C2054 1.398 . S
C2054 H2042 0.950 . S
C2054 C2053 1.398 . S
C2054 C2055 1.391 . S
C2055 H2043 0.950 . S
C2055 C2051 1.393 . S
C2055 C2054 1.391 . S
H2056 C2064 0.950 . S
H2057 C2069 0.950 . S
H2058 C2066 0.950 . S
H2059 C2068 0.950 . S
H2060 C2070 0.950 . S
H2061 C2072 0.950 . S
H2062 C2074 0.950 . S
H2063 C2075 0.950 . S
C2064 H2056 0.950 . S
C2064 C2065 1.386 . S
C2064 C2066 1.391 . S
C2065 C2064 1.386 . S
C2065 C2069 1.393 . S
C2066 H2058 0.950 . S
C2066 C2064 1.391 . S
C2066 C2067 1.400 . S
C2067 C2066 1.400 . S
C2067 C2068 1.398 . S
C2067 C2073 1.491 . S
C2068 H2059 0.950 . S
C2068 C2067 1.398 . S
C2068 C2069 1.391 . S
C2069 H2057 0.950 . S
C2069 C2065 1.393 . S
C2069 C2068 1.391 . S
C2070 H2060 0.950 . S
C2070 C2071 1.386 . S
C2070 C2072 1.391 . S
C2071 C2070 1.386 . S
C2071 C2075 1.393 . S
C2072 H2061 0.950 . S
C2072 C2070 1.391 . S
C2072 C2073 1.400 . S
C2073 C2067 1.491 . S
C2073 C2072 1.400 . S
C2073 C2074 1.398 . S
C2074 H2062 0.950 . S
C2074 C2073 1.398 . S
C2074 C2075 1.391 . S
C2075 H2063 0.950 . S
C2075 C2071 1.393 . S
C2075 C2074 1.391 . S
H2076 C2084 0.950 . S
H2077 C2089 0.950 . S
H2078 C2086 0.950 . S
H2079 C2088 0.950 1_545 S
H2080 C2090 0.950 1_545 S
H2081 C2092 0.950 1_545 S
H2082 C2094 0.950 . S
H2083 C2095 0.950 . S
C2084 H2076 0.950 . S
C2084 C2085 1.386 . S
C2084 C2086 1.391 . S
C2085 C2084 1.386 . S
C2085 C2089 1.393 . S
C2086 H2078 0.950 . S
C2086 C2084 1.391 . S
C2086 C2087 1.400 . S
C2087 C2086 1.400 . S
C2087 C2088 1.398 . S
C2087 C2093 1.491 . S
C2088 H2079 0.950 1_565 S
C2088 C2087 1.398 . S
C2088 C2089 1.391 . S
C2089 H2077 0.950 . S
C2089 C2085 1.393 . S
C2089 C2088 1.391 . S
C2090 H2080 0.950 1_565 S
C2090 C2091 1.386 . S
C2090 C2092 1.391 . S
C2091 C2090 1.386 . S
C2091 C2095 1.393 . S
C2092 H2081 0.950 1_565 S
C2092 C2090 1.391 . S
C2092 C2093 1.400 . S
C2093 C2087 1.491 . S
C2093 C2092 1.400 . S
C2093 C2094 1.398 . S
C2094 H2082 0.950 . S
C2094 C2093 1.398 . S
C2094 C2095 1.391 . S
C2095 H2083 0.950 . S
C2095 C2091 1.393 . S
C2095 C2094 1.391 . S
H2096 C2104 0.950 . S
H2097 C2109 0.950 . S
H2098 C2106 0.950 . S
H2099 C2108 0.950 . S
H2100 C2110 0.950 . S
H2101 C2112 0.950 . S
H2102 C2114 0.950 . S
H2103 C2115 0.950 . S
C2104 H2096 0.950 . S
C2104 C2105 1.386 . S
C2104 C2106 1.391 . S
C2105 C2104 1.386 . S
C2105 C2109 1.393 . S
C2106 H2098 0.950 . S
C2106 C2104 1.391 . S
C2106 C2107 1.400 . S
C2107 C2106 1.400 . S
C2107 C2108 1.398 . S
C2107 C2113 1.491 . S
C2108 H2099 0.950 . S
C2108 C2107 1.398 . S
C2108 C2109 1.391 . S
C2109 H2097 0.950 . S
C2109 C2105 1.393 . S
C2109 C2108 1.391 . S
C2110 H2100 0.950 . S
C2110 C2111 1.386 . S
C2110 C2112 1.391 . S
C2111 C2110 1.386 . S
C2111 C2115 1.393 . S
C2112 H2101 0.950 . S
C2112 C2110 1.391 . S
C2112 C2113 1.400 . S
C2113 C2107 1.491 . S
C2113 C2112 1.400 . S
C2113 C2114 1.398 . S
C2114 H2102 0.950 . S
C2114 C2113 1.398 . S
C2114 C2115 1.391 . S
C2115 H2103 0.950 . S
C2115 C2111 1.393 . S
C2115 C2114 1.391 . S
H2116 C2124 0.950 . S
H2117 C2129 0.950 . S
H2118 C2126 0.950 . S
H2119 C2128 0.950 . S
H2120 C2130 0.950 . S
H2121 C2132 0.950 . S
H2122 C2134 0.950 . S
H2123 C2135 0.950 . S
C2124 H2116 0.950 . S
C2124 C2125 1.386 . S
C2124 C2126 1.391 . S
C2125 C2124 1.386 . S
C2125 C2129 1.393 . S
C2126 H2118 0.950 . S
C2126 C2124 1.391 . S
C2126 C2127 1.400 . S
C2127 C2126 1.400 . S
C2127 C2128 1.398 . S
C2127 C2133 1.491 . S
C2128 H2119 0.950 . S
C2128 C2127 1.398 . S
C2128 C2129 1.391 . S
C2129 H2117 0.950 . S
C2129 C2125 1.393 . S
C2129 C2128 1.391 . S
C2130 H2120 0.950 . S
C2130 C2131 1.386 . S
C2130 C2132 1.391 . S
C2131 C2130 1.386 . S
C2131 C2135 1.393 . S
C2132 H2121 0.950 . S
C2132 C2130 1.391 . S
C2132 C2133 1.400 . S
C2133 C2127 1.491 . S
C2133 C2132 1.400 . S
C2133 C2134 1.398 . S
C2134 H2122 0.950 . S
C2134 C2133 1.398 . S
C2134 C2135 1.391 . S
C2135 H2123 0.950 . S
C2135 C2131 1.393 . S
C2135 C2134 1.391 . S
H2136 C2144 0.950 . S
H2137 C2149 0.950 . S
H2138 C2146 0.950 . S
H2139 C2148 0.950 . S
H2140 C2150 0.950 . S
H2141 C2152 0.950 . S
H2142 C2154 0.950 . S
H2143 C2155 0.950 . S
C2144 H2136 0.950 . S
C2144 C2145 1.386 . S
C2144 C2146 1.391 . S
C2145 C2144 1.386 . S
C2145 C2149 1.393 . S
C2146 H2138 0.950 . S
C2146 C2144 1.391 . S
C2146 C2147 1.400 . S
C2147 C2146 1.400 . S
C2147 C2148 1.398 . S
C2147 C2153 1.491 . S
C2148 H2139 0.950 . S
C2148 C2147 1.398 . S
C2148 C2149 1.391 . S
C2149 H2137 0.950 . S
C2149 C2145 1.393 . S
C2149 C2148 1.391 . S
C2150 H2140 0.950 . S
C2150 C2151 1.386 . S
C2150 C2152 1.391 . S
C2151 C2150 1.386 . S
C2151 C2155 1.393 . S
C2152 H2141 0.950 . S
C2152 C2150 1.391 . S
C2152 C2153 1.400 . S
C2153 C2147 1.491 . S
C2153 C2152 1.400 . S
C2153 C2154 1.398 . S
C2154 H2142 0.950 . S
C2154 C2153 1.398 . S
C2154 C2155 1.391 . S
C2155 H2143 0.950 . S
C2155 C2151 1.393 . S
C2155 C2154 1.391 . S
H2156 C2164 0.950 . S
H2157 C2169 0.950 . S
H2158 C2166 0.950 1_545 S
H2159 C2168 0.950 . S
H2160 C2170 0.950 . S
H2161 C2172 0.950 . S
H2162 C2174 0.950 1_545 S
H2163 C2175 0.950 1_545 S
C2164 H2156 0.950 . S
C2164 C2165 1.386 . S
C2164 C2166 1.391 . S
C2165 C2164 1.386 . S
C2165 C2169 1.393 . S
C2166 H2158 0.950 1_565 S
C2166 C2164 1.391 . S
C2166 C2167 1.400 . S
C2167 C2166 1.400 . S
C2167 C2168 1.398 . S
C2167 C2173 1.491 . S
C2168 H2159 0.950 . S
C2168 C2167 1.398 . S
C2168 C2169 1.391 . S
C2169 H2157 0.950 . S
C2169 C2165 1.393 . S
C2169 C2168 1.391 . S
C2170 H2160 0.950 . S
C2170 C2171 1.386 . S
C2170 C2172 1.391 . S
C2171 C2170 1.386 . S
C2171 C2175 1.393 . S
C2172 H2161 0.950 . S
C2172 C2170 1.391 . S
C2172 C2173 1.400 . S
C2173 C2167 1.491 . S
C2173 C2172 1.400 . S
C2173 C2174 1.398 . S
C2174 H2162 0.950 1_565 S
C2174 C2173 1.398 . S
C2174 C2175 1.391 . S
C2175 H2163 0.950 1_565 S
C2175 C2171 1.393 . S
C2175 C2174 1.391 . S
H2176 C2184 0.950 . S
H2177 C2189 0.950 . S
H2178 C2186 0.950 . S
H2179 C2188 0.950 . S
H2180 C2190 0.950 . S
H2181 C2192 0.950 . S
H2182 C2194 0.950 . S
H2183 C2195 0.950 . S
C2184 H2176 0.950 . S
C2184 C2185 1.386 . S
C2184 C2186 1.391 . S
C2185 C2184 1.386 . S
C2185 C2189 1.393 . S
C2186 H2178 0.950 . S
C2186 C2184 1.391 . S
C2186 C2187 1.400 . S
C2187 C2186 1.400 . S
C2187 C2188 1.398 . S
C2187 C2193 1.491 . S
C2188 H2179 0.950 . S
C2188 C2187 1.398 . S
C2188 C2189 1.391 . S
C2189 H2177 0.950 . S
C2189 C2185 1.393 . S
C2189 C2188 1.391 . S
C2190 H2180 0.950 . S
C2190 C2191 1.386 . S
C2190 C2192 1.391 . S
C2191 C2190 1.386 . S
C2191 C2195 1.393 . S
C2192 H2181 0.950 . S
C2192 C2190 1.391 . S
C2192 C2193 1.400 . S
C2193 C2187 1.491 . S
C2193 C2192 1.400 . S
C2193 C2194 1.398 . S
C2194 H2182 0.950 . S
C2194 C2193 1.398 . S
C2194 C2195 1.391 . S
C2195 H2183 0.950 . S
C2195 C2191 1.393 . S
C2195 C2194 1.391 . S
H2196 C2204 0.950 . S
H2197 C2209 0.950 . S
H2198 C2206 0.950 . S
H2199 C2208 0.950 . S
H2200 C2210 0.950 . S
H2201 C2212 0.950 . S
H2202 C2214 0.950 . S
H2203 C2215 0.950 . S
C2204 H2196 0.950 . S
C2204 C2205 1.386 . S
C2204 C2206 1.391 . S
C2205 C2204 1.386 . S
C2205 C2209 1.393 . S
C2206 H2198 0.950 . S
C2206 C2204 1.391 . S
C2206 C2207 1.400 . S
C2207 C2206 1.400 . S
C2207 C2208 1.398 . S
C2207 C2213 1.491 . S
C2208 H2199 0.950 . S
C2208 C2207 1.398 . S
C2208 C2209 1.391 . S
C2209 H2197 0.950 . S
C2209 C2205 1.393 . S
C2209 C2208 1.391 . S
C2210 H2200 0.950 . S
C2210 C2211 1.386 . S
C2210 C2212 1.391 . S
C2211 C2210 1.386 . S
C2211 C2215 1.393 . S
C2212 H2201 0.950 . S
C2212 C2210 1.391 . S
C2212 C2213 1.400 . S
C2213 C2207 1.491 . S
C2213 C2212 1.400 . S
C2213 C2214 1.398 . S
C2214 H2202 0.950 . S
C2214 C2213 1.398 . S
C2214 C2215 1.391 . S
C2215 H2203 0.950 . S
C2215 C2211 1.393 . S
C2215 C2214 1.391 . S
H2216 C2224 0.950 . S
H2217 C2229 0.950 . S
H2218 C2226 0.950 . S
H2219 C2228 0.950 . S
H2220 C2230 0.950 . S
H2221 C2232 0.950 . S
H2222 C2234 0.950 . S
H2223 C2235 0.950 . S
C2224 H2216 0.950 . S
C2224 C2225 1.386 . S
C2224 C2226 1.391 . S
C2225 C2224 1.386 . S
C2225 C2229 1.393 . S
C2226 H2218 0.950 . S
C2226 C2224 1.391 . S
C2226 C2227 1.400 . S
C2227 C2226 1.400 . S
C2227 C2228 1.398 . S
C2227 C2233 1.491 . S
C2228 H2219 0.950 . S
C2228 C2227 1.398 . S
C2228 C2229 1.391 . S
C2229 H2217 0.950 . S
C2229 C2225 1.393 . S
C2229 C2228 1.391 . S
C2230 H2220 0.950 . S
C2230 C2231 1.386 . S
C2230 C2232 1.391 . S
C2231 C2230 1.386 . S
C2231 C2235 1.393 . S
C2232 H2221 0.950 . S
C2232 C2230 1.391 . S
C2232 C2233 1.400 . S
C2233 C2227 1.491 . S
C2233 C2232 1.400 . S
C2233 C2234 1.398 . S
C2234 H2222 0.950 . S
C2234 C2233 1.398 . S
C2234 C2235 1.391 . S
C2235 H2223 0.950 . S
C2235 C2231 1.393 . S
C2235 C2234 1.391 . S
H2236 C2244 0.950 . S
H2237 C2249 0.950 . S
H2238 C2246 0.950 . S
H2239 C2248 0.950 . S
H2240 C2250 0.950 . S
H2241 C2252 0.950 . S
H2242 C2254 0.950 . S
H2243 C2255 0.950 . S
C2244 H2236 0.950 . S
C2244 C2245 1.386 . S
C2244 C2246 1.391 . S
C2245 C2244 1.386 . S
C2245 C2249 1.393 . S
C2246 H2238 0.950 . S
C2246 C2244 1.391 . S
C2246 C2247 1.400 . S
C2247 C2246 1.400 . S
C2247 C2248 1.398 . S
C2247 C2253 1.491 . S
C2248 H2239 0.950 . S
C2248 C2247 1.398 . S
C2248 C2249 1.391 . S
C2249 H2237 0.950 . S
C2249 C2245 1.393 . S
C2249 C2248 1.391 . S
C2250 H2240 0.950 . S
C2250 C2251 1.386 . S
C2250 C2252 1.391 . S
C2251 C2250 1.386 . S
C2251 C2255 1.393 . S
C2252 H2241 0.950 . S
C2252 C2250 1.391 . S
C2252 C2253 1.400 . S
C2253 C2247 1.491 . S
C2253 C2252 1.400 . S
C2253 C2254 1.398 . S
C2254 H2242 0.950 . S
C2254 C2253 1.398 . S
C2254 C2255 1.391 . S
C2255 H2243 0.950 . S
C2255 C2251 1.393 . S
C2255 C2254 1.391 . S
H2256 C2264 0.950 . S
H2257 C2269 0.950 . S
H2258 C2266 0.950 . S
H2259 C2268 0.950 . S
H2260 C2270 0.950 . S
H2261 C2272 0.950 . S
H2262 C2274 0.950 . S
H2263 C2275 0.950 . S
C2264 H2256 0.950 . S
C2264 C2265 1.386 . S
C2264 C2266 1.391 . S
C2265 C2264 1.386 . S
C2265 C2269 1.393 . S
C2266 H2258 0.950 . S
C2266 C2264 1.391 . S
C2266 C2267 1.400 . S
C2267 C2266 1.400 . S
C2267 C2268 1.398 . S
C2267 C2273 1.491 . S
C2268 H2259 0.950 . S
C2268 C2267 1.398 . S
C2268 C2269 1.391 . S
C2269 H2257 0.950 . S
C2269 C2265 1.393 . S
C2269 C2268 1.391 . S
C2270 H2260 0.950 . S
C2270 C2271 1.386 . S
C2270 C2272 1.391 . S
C2271 C2270 1.386 . S
C2271 C2275 1.393 . S
C2272 H2261 0.950 . S
C2272 C2270 1.391 . S
C2272 C2273 1.400 . S
C2273 C2267 1.491 . S
C2273 C2272 1.400 . S
C2273 C2274 1.398 . S
C2274 H2262 0.950 . S
C2274 C2273 1.398 . S
C2274 C2275 1.391 . S
C2275 H2263 0.950 . S
C2275 C2271 1.393 . S
C2275 C2274 1.391 . S
H2276 C2284 0.950 . S
H2277 C2289 0.950 1_655 S
H2278 C2286 0.950 . S
H2279 C2288 0.950 1_655 S
H2280 C2290 0.950 . S
H2281 C2292 0.950 . S
H2282 C2294 0.950 . S
H2283 C2295 0.950 . S
C2284 H2276 0.950 . S
C2284 C2285 1.386 . S
C2284 C2286 1.391 . S
C2285 C2284 1.386 . S
C2285 C2289 1.393 . S
C2286 H2278 0.950 . S
C2286 C2284 1.391 . S
C2286 C2287 1.400 . S
C2287 C2286 1.400 . S
C2287 C2288 1.398 . S
C2287 C2293 1.491 . S
C2288 H2279 0.950 1_455 S
C2288 C2287 1.398 . S
C2288 C2289 1.391 . S
C2289 H2277 0.950 1_455 S
C2289 C2285 1.393 . S
C2289 C2288 1.391 . S
C2290 H2280 0.950 . S
C2290 C2291 1.386 1_655 S
C2290 C2292 1.391 . S
C2291 C2290 1.386 1_455 S
C2291 C2295 1.393 . S
C2292 H2281 0.950 . S
C2292 C2290 1.391 . S
C2292 C2293 1.400 1_655 S
C2293 C2287 1.491 . S
C2293 C2292 1.400 1_455 S
C2293 C2294 1.398 . S
C2294 H2282 0.950 . S
C2294 C2293 1.398 . S
C2294 C2295 1.391 . S
C2295 H2283 0.950 . S
C2295 C2291 1.393 . S
C2295 C2294 1.391 . S
H2296 C2304 0.950 . S
H2297 C2309 0.950 . S
H2298 C2306 0.950 . S
H2299 C2308 0.950 . S
H2300 C2310 0.950 . S
H2301 C2312 0.950 . S
H2302 C2314 0.950 . S
H2303 C2315 0.950 . S
C2304 H2296 0.950 . S
C2304 C2305 1.386 . S
C2304 C2306 1.391 . S
C2305 C2304 1.386 . S
C2305 C2309 1.393 . S
C2306 H2298 0.950 . S
C2306 C2304 1.391 . S
C2306 C2307 1.400 . S
C2307 C2306 1.400 . S
C2307 C2308 1.398 . S
C2307 C2313 1.491 . S
C2308 H2299 0.950 . S
C2308 C2307 1.398 . S
C2308 C2309 1.391 . S
C2309 H2297 0.950 . S
C2309 C2305 1.393 . S
C2309 C2308 1.391 . S
C2310 H2300 0.950 . S
C2310 C2311 1.386 . S
C2310 C2312 1.391 . S
C2311 C2310 1.386 . S
C2311 C2315 1.393 . S
C2312 H2301 0.950 . S
C2312 C2310 1.391 . S
C2312 C2313 1.400 . S
C2313 C2307 1.491 . S
C2313 C2312 1.400 . S
C2313 C2314 1.398 . S
C2314 H2302 0.950 . S
C2314 C2313 1.398 . S
C2314 C2315 1.391 . S
C2315 H2303 0.950 . S
C2315 C2311 1.393 . S
C2315 C2314 1.391 . S
H2316 C2324 0.950 . S
H2317 C2329 0.950 . S
H2318 C2326 0.950 . S
H2319 C2328 0.961 . S
H2320 C2330 0.950 1_455 S
H2321 C2332 0.937 1_455 S
H2322 C2334 0.950 . S
H2323 C2335 0.950 . S
C2324 H2316 0.950 . S
C2324 C2325 1.386 . S
C2324 C2326 1.391 . S
C2325 C2324 1.386 . S
C2325 C2329 1.393 . S
C2326 H2318 0.950 . S
C2326 C2324 1.391 . S
C2326 C2327 1.400 . S
C2327 C2326 1.400 . S
C2327 C2328 1.398 . S
C2327 C2333 1.491 . S
C2328 H2319 0.961 . S
C2328 C2327 1.398 . S
C2328 C2329 1.391 . S
C2329 H2317 0.950 . S
C2329 C2325 1.393 . S
C2329 C2328 1.391 . S
C2330 H2320 0.950 1_655 S
C2330 C2331 1.386 . S
C2330 C2332 1.391 . S
C2331 C2330 1.386 . S
C2331 C2335 1.393 . S
C2332 H2321 0.937 1_655 S
C2332 C2330 1.391 . S
C2332 C2333 1.400 . S
C2333 C2327 1.491 . S
C2333 C2332 1.400 . S
C2333 C2334 1.398 . S
C2334 H2322 0.950 . S
C2334 C2333 1.398 . S
C2334 C2335 1.391 . S
C2335 H2323 0.950 . S
C2335 C2331 1.393 . S
C2335 C2334 1.391 . S
H2336 C2344 0.950 . S
H2337 C2349 0.950 . S
H2338 C2346 0.950 . S
H2339 C2348 0.950 . S
H2340 C2350 0.950 . S
H2341 C2352 0.950 . S
H2342 C2354 0.950 . S
H2343 C2355 0.950 . S
C2344 H2336 0.950 . S
C2344 C2345 1.386 . S
C2344 C2346 1.391 . S
C2345 C2344 1.386 . S
C2345 C2349 1.393 . S
C2346 H2338 0.950 . S
C2346 C2344 1.391 . S
C2346 C2347 1.400 . S
C2347 C2346 1.400 . S
C2347 C2348 1.398 . S
C2347 C2353 1.491 . S
C2348 H2339 0.950 . S
C2348 C2347 1.398 . S
C2348 C2349 1.391 . S
C2349 H2337 0.950 . S
C2349 C2345 1.393 . S
C2349 C2348 1.391 . S
C2350 H2340 0.950 . S
C2350 C2351 1.386 . S
C2350 C2352 1.391 . S
C2351 C2350 1.386 . S
C2351 C2355 1.393 . S
C2352 H2341 0.950 . S
C2352 C2350 1.391 . S
C2352 C2353 1.400 . S
C2353 C2347 1.491 . S
C2353 C2352 1.400 . S
C2353 C2354 1.398 . S
C2354 H2342 0.950 . S
C2354 C2353 1.398 . S
C2354 C2355 1.391 . S
C2355 H2343 0.950 . S
C2355 C2351 1.393 . S
C2355 C2354 1.391 . S
H2356 C2364 0.950 . S
H2357 C2369 0.950 . S
H2358 C2366 0.950 . S
H2359 C2368 0.950 . S
H2360 C2370 0.950 . S
H2361 C2372 0.950 . S
H2362 C2374 0.950 . S
H2363 C2375 0.950 . S
C2364 H2356 0.950 . S
C2364 C2365 1.386 . S
C2364 C2366 1.391 . S
C2365 C2364 1.386 . S
C2365 C2369 1.393 . S
C2366 H2358 0.950 . S
C2366 C2364 1.391 . S
C2366 C2367 1.400 . S
C2367 C2366 1.400 . S
C2367 C2368 1.398 . S
C2367 C2373 1.491 . S
C2368 H2359 0.950 . S
C2368 C2367 1.398 . S
C2368 C2369 1.391 . S
C2369 H2357 0.950 . S
C2369 C2365 1.393 . S
C2369 C2368 1.391 . S
C2370 H2360 0.950 . S
C2370 C2371 1.386 . S
C2370 C2372 1.391 . S
C2371 C2370 1.386 . S
C2371 C2375 1.393 . S
C2372 H2361 0.950 . S
C2372 C2370 1.391 . S
C2372 C2373 1.400 . S
C2373 C2367 1.491 . S
C2373 C2372 1.400 . S
C2373 C2374 1.398 . S
C2374 H2362 0.950 . S
C2374 C2373 1.398 . S
C2374 C2375 1.391 . S
C2375 H2363 0.950 . S
C2375 C2371 1.393 . S
C2375 C2374 1.391 . S
H2376 C2384 0.950 . S
H2377 C2389 0.950 1_554 S
H2378 C2386 0.950 . S
H2379 C2388 0.950 1_554 S
H2380 C2390 0.950 . S
H2381 C2392 0.984 . S
H2382 C2394 0.950 . S
H2383 C2395 0.950 . S
C2384 H2376 0.950 . S
C2384 C2385 1.386 . S
C2384 C2386 1.391 . S
C2385 C2384 1.386 . S
C2385 C2389 1.393 . S
C2386 H2378 0.950 . S
C2386 C2384 1.391 . S
C2386 C2387 1.400 . S
C2387 C2386 1.400 . S
C2387 C2388 1.398 . S
C2387 C2393 1.491 . S
C2388 H2379 0.950 1_556 S
C2388 C2387 1.398 . S
C2388 C2389 1.391 . S
C2389 H2377 0.950 1_556 S
C2389 C2385 1.393 . S
C2389 C2388 1.391 . S
C2390 H2380 0.950 . S
C2390 C2391 1.386 1_554 S
C2390 C2392 1.396 . S
C2391 C2390 1.386 1_556 S
C2391 C2395 1.393 . S
C2392 H2381 0.984 . S
C2392 C2390 1.396 . S
C2392 C2393 1.364 1_554 S
C2393 C2387 1.491 . S
C2393 C2392 1.364 1_556 S
C2393 C2394 1.398 . S
C2394 H2382 0.950 . S
C2394 C2393 1.398 . S
C2394 C2395 1.391 . S
C2395 H2383 0.950 . S
C2395 C2391 1.393 . S
C2395 C2394 1.391 . S
H2396 C2404 0.950 . S
H2397 C2409 0.950 . S
H2398 C2406 0.950 . S
H2399 C2408 0.950 . S
H2400 C2410 0.950 . S
H2401 C2412 0.950 . S
H2402 C2414 0.950 . S
H2403 C2415 0.950 . S
C2404 H2396 0.950 . S
C2404 C2405 1.386 . S
C2404 C2406 1.391 . S
C2405 C2404 1.386 . S
C2405 C2409 1.393 . S
C2406 H2398 0.950 . S
C2406 C2404 1.391 . S
C2406 C2407 1.400 . S
C2407 C2406 1.400 . S
C2407 C2408 1.398 . S
C2407 C2413 1.491 . S
C2408 H2399 0.950 . S
C2408 C2407 1.398 . S
C2408 C2409 1.391 . S
C2409 H2397 0.950 . S
C2409 C2405 1.393 . S
C2409 C2408 1.391 . S
C2410 H2400 0.950 . S
C2410 C2411 1.386 . S
C2410 C2412 1.391 . S
C2411 C2410 1.386 . S
C2411 C2415 1.393 . S
C2412 H2401 0.950 . S
C2412 C2410 1.391 . S
C2412 C2413 1.400 . S
C2413 C2407 1.491 . S
C2413 C2412 1.400 . S
C2413 C2414 1.398 . S
C2414 H2402 0.950 . S
C2414 C2413 1.398 . S
C2414 C2415 1.391 . S
C2415 H2403 0.950 . S
C2415 C2411 1.393 . S
C2415 C2414 1.391 . S
H2416 C2424 0.950 . S
H2417 C2429 0.950 . S
H2418 C2426 0.950 . S
H2419 C2428 0.950 . S
H2420 C2430 0.950 . S
H2421 C2432 0.950 . S
H2422 C2434 0.950 . S
H2423 C2435 0.950 . S
C2424 H2416 0.950 . S
C2424 C2425 1.386 . S
C2424 C2426 1.391 . S
C2425 C2424 1.386 . S
C2425 C2429 1.393 . S
C2426 H2418 0.950 . S
C2426 C2424 1.391 . S
C2426 C2427 1.400 . S
C2427 C2426 1.400 . S
C2427 C2428 1.398 . S
C2427 C2433 1.491 . S
C2428 H2419 0.950 . S
C2428 C2427 1.398 . S
C2428 C2429 1.391 . S
C2429 H2417 0.950 . S
C2429 C2425 1.393 . S
C2429 C2428 1.391 . S
C2430 H2420 0.950 . S
C2430 C2431 1.386 . S
C2430 C2432 1.391 . S
C2431 C2430 1.386 . S
C2431 C2435 1.393 . S
C2432 H2421 0.950 . S
C2432 C2430 1.391 . S
C2432 C2433 1.400 . S
C2433 C2427 1.491 . S
C2433 C2432 1.400 . S
C2433 C2434 1.398 . S
C2434 H2422 0.950 . S
C2434 C2433 1.398 . S
C2434 C2435 1.391 . S
C2435 H2423 0.950 . S
C2435 C2431 1.393 . S
C2435 C2434 1.391 . S
H2436 C2444 0.950 . S
H2437 C2449 0.950 . S
H2438 C2446 0.950 . S
H2439 C2448 0.950 . S
H2440 C2450 0.950 . S
H2441 C2452 0.950 . S
H2442 C2454 0.950 . S
H2443 C2455 0.950 . S
C2444 H2436 0.950 . S
C2444 C2445 1.386 . S
C2444 C2446 1.391 . S
C2445 C2444 1.386 . S
C2445 C2449 1.393 . S
C2446 H2438 0.950 . S
C2446 C2444 1.391 . S
C2446 C2447 1.400 . S
C2447 C2446 1.400 . S
C2447 C2448 1.398 . S
C2447 C2453 1.491 . S
C2448 H2439 0.950 . S
C2448 C2447 1.398 . S
C2448 C2449 1.391 . S
C2449 H2437 0.950 . S
C2449 C2445 1.393 . S
C2449 C2448 1.391 . S
C2450 H2440 0.950 . S
C2450 C2451 1.386 . S
C2450 C2452 1.391 . S
C2451 C2450 1.386 . S
C2451 C2455 1.393 . S
C2452 H2441 0.950 . S
C2452 C2450 1.391 . S
C2452 C2453 1.400 . S
C2453 C2447 1.491 . S
C2453 C2452 1.400 . S
C2453 C2454 1.398 . S
C2454 H2442 0.950 . S
C2454 C2453 1.398 . S
C2454 C2455 1.391 . S
C2455 H2443 0.950 . S
C2455 C2451 1.393 . S
C2455 C2454 1.391 . S
H2456 C2464 0.950 . S
H2457 C2469 0.950 . S
H2458 C2466 0.950 . S
H2459 C2468 0.950 . S
H2460 C2470 0.950 . S
H2461 C2472 0.950 . S
H2462 C2474 0.950 . S
H2463 C2475 0.950 . S
C2464 H2456 0.950 . S
C2464 C2465 1.386 . S
C2464 C2466 1.391 . S
C2465 C2464 1.386 . S
C2465 C2469 1.393 . S
C2466 H2458 0.950 . S
C2466 C2464 1.391 . S
C2466 C2467 1.400 . S
C2467 C2466 1.400 . S
C2467 C2468 1.398 . S
C2467 C2473 1.491 . S
C2468 H2459 0.950 . S
C2468 C2467 1.398 . S
C2468 C2469 1.391 . S
C2469 H2457 0.950 . S
C2469 C2465 1.393 . S
C2469 C2468 1.391 . S
C2470 H2460 0.950 . S
C2470 C2471 1.386 . S
C2470 C2472 1.391 . S
C2471 C2470 1.386 . S
C2471 C2475 1.393 . S
C2472 H2461 0.950 . S
C2472 C2470 1.391 . S
C2472 C2473 1.400 . S
C2473 C2467 1.491 . S
C2473 C2472 1.400 . S
C2473 C2474 1.398 . S
C2474 H2462 0.950 . S
C2474 C2473 1.398 . S
C2474 C2475 1.391 . S
C2475 H2463 0.950 . S
C2475 C2471 1.393 . S
C2475 C2474 1.391 . S
H2476 C2484 0.950 . S
H2477 C2489 0.950 . S
H2478 C2486 0.950 . S
H2479 C2488 0.950 . S
H2480 C2490 0.950 . S
H2481 C2492 0.950 . S
H2482 C2494 0.950 . S
H2483 C2495 0.950 . S
C2484 H2476 0.950 . S
C2484 C2485 1.386 . S
C2484 C2486 1.391 . S
C2485 C2484 1.386 . S
C2485 C2489 1.393 . S
C2486 H2478 0.950 . S
C2486 C2484 1.391 . S
C2486 C2487 1.400 . S
C2487 C2486 1.400 . S
C2487 C2488 1.398 . S
C2487 C2493 1.491 . S
C2488 H2479 0.950 . S
C2488 C2487 1.398 . S
C2488 C2489 1.391 . S
C2489 H2477 0.950 . S
C2489 C2485 1.393 . S
C2489 C2488 1.391 . S
C2490 H2480 0.950 . S
C2490 C2491 1.386 . S
C2490 C2492 1.391 . S
C2491 C2490 1.386 . S
C2491 C2495 1.393 . S
C2492 H2481 0.950 . S
C2492 C2490 1.391 . S
C2492 C2493 1.400 . S
C2493 C2487 1.491 . S
C2493 C2492 1.400 . S
C2493 C2494 1.398 . S
C2494 H2482 0.950 . S
C2494 C2493 1.398 . S
C2494 C2495 1.391 . S
C2495 H2483 0.950 . S
C2495 C2491 1.393 . S
C2495 C2494 1.391 . S
H2496 C2504 0.950 . S
H2497 C2509 0.950 . S
H2498 C2506 0.950 . S
H2499 C2508 0.950 . S
H2500 C2510 0.950 . S
H2501 C2512 0.950 . S
H2502 C2514 0.950 . S
H2503 C2515 0.950 . S
C2504 H2496 0.950 . S
C2504 C2505 1.386 . S
C2504 C2506 1.391 . S
C2505 C2504 1.386 . S
C2505 C2509 1.393 . S
C2506 H2498 0.950 . S
C2506 C2504 1.391 . S
C2506 C2507 1.400 . S
C2507 C2506 1.400 . S
C2507 C2508 1.398 . S
C2507 C2513 1.491 . S
C2508 H2499 0.950 . S
C2508 C2507 1.398 . S
C2508 C2509 1.391 . S
C2509 H2497 0.950 . S
C2509 C2505 1.393 . S
C2509 C2508 1.391 . S
C2510 H2500 0.950 . S
C2510 C2511 1.386 . S
C2510 C2512 1.391 . S
C2511 C2510 1.386 . S
C2511 C2515 1.393 . S
C2512 H2501 0.950 . S
C2512 C2510 1.391 . S
C2512 C2513 1.400 . S
C2513 C2507 1.491 . S
C2513 C2512 1.400 . S
C2513 C2514 1.398 . S
C2514 H2502 0.950 . S
C2514 C2513 1.398 . S
C2514 C2515 1.391 . S
C2515 H2503 0.950 . S
C2515 C2511 1.393 . S
C2515 C2514 1.391 . S
H2516 C2524 0.950 1_565 S
H2517 C2529 0.950 . S
H2518 C2526 0.950 1_565 S
H2519 C2528 0.950 . S
H2520 C2530 0.950 . S
H2521 C2532 0.950 . S
H2522 C2534 0.950 . S
H2523 C2535 0.950 . S
C2524 H2516 0.950 1_545 S
C2524 C2525 1.386 . S
C2524 C2526 1.391 . S
C2525 C2524 1.386 . S
C2525 C2529 1.393 . S
C2526 H2518 0.950 1_545 S
C2526 C2524 1.391 . S
C2526 C2527 1.400 . S
C2527 C2526 1.400 . S
C2527 C2528 1.398 . S
C2527 C2533 1.491 . S
C2528 H2519 0.950 . S
C2528 C2527 1.398 . S
C2528 C2529 1.391 . S
C2529 H2517 0.950 . S
C2529 C2525 1.393 . S
C2529 C2528 1.391 . S
C2530 H2520 0.950 . S
C2530 C2531 1.386 . S
C2530 C2532 1.391 . S
C2531 C2530 1.386 . S
C2531 C2535 1.393 1_545 S
C2532 H2521 0.950 . S
C2532 C2530 1.391 . S
C2532 C2533 1.400 . S
C2533 C2527 1.491 . S
C2533 C2532 1.400 . S
C2533 C2534 1.398 1_545 S
C2534 H2522 0.950 . S
C2534 C2533 1.398 1_565 S
C2534 C2535 1.391 . S
C2535 H2523 0.950 . S
C2535 C2531 1.393 1_565 S
C2535 C2534 1.391 . S
H2536 C2544 0.950 . S
H2537 C2549 0.950 . S
H2538 C2546 0.950 . S
H2539 C2548 0.950 . S
H2540 C2550 0.950 . S
H2541 C2552 0.950 . S
H2542 C2554 0.950 . S
H2543 C2555 0.950 . S
C2544 H2536 0.950 . S
C2544 C2545 1.386 . S
C2544 C2546 1.391 . S
C2545 C2544 1.386 . S
C2545 C2549 1.393 . S
C2546 H2538 0.950 . S
C2546 C2544 1.391 . S
C2546 C2547 1.400 . S
C2547 C2546 1.400 . S
C2547 C2548 1.398 . S
C2547 C2553 1.491 . S
C2548 H2539 0.950 . S
C2548 C2547 1.398 . S
C2548 C2549 1.391 . S
C2549 H2537 0.950 . S
C2549 C2545 1.393 . S
C2549 C2548 1.391 . S
C2550 H2540 0.950 . S
C2550 C2551 1.386 . S
C2550 C2552 1.391 . S
C2551 C2550 1.386 . S
C2551 C2555 1.393 . S
C2552 H2541 0.950 . S
C2552 C2550 1.391 . S
C2552 C2553 1.400 . S
C2553 C2547 1.491 . S
C2553 C2552 1.400 . S
C2553 C2554 1.398 . S
C2554 H2542 0.950 . S
C2554 C2553 1.398 . S
C2554 C2555 1.391 . S
C2555 H2543 0.950 . S
C2555 C2551 1.393 . S
C2555 C2554 1.391 . S
H2556 C2564 0.950 . S
H2557 C2569 0.950 . S
H2558 C2566 0.950 . S
H2559 C2568 0.950 . S
H2560 C2570 0.950 . S
H2561 C2572 0.950 . S
H2562 C2574 0.950 . S
H2563 C2575 0.950 . S
C2564 H2556 0.950 . S
C2564 C2565 1.386 . S
C2564 C2566 1.391 . S
C2565 C2564 1.386 . S
C2565 C2569 1.393 . S
C2566 H2558 0.950 . S
C2566 C2564 1.391 . S
C2566 C2567 1.400 . S
C2567 C2566 1.400 . S
C2567 C2568 1.398 . S
C2567 C2573 1.491 . S
C2568 H2559 0.950 . S
C2568 C2567 1.398 . S
C2568 C2569 1.391 . S
C2569 H2557 0.950 . S
C2569 C2565 1.393 . S
C2569 C2568 1.391 . S
C2570 H2560 0.950 . S
C2570 C2571 1.386 . S
C2570 C2572 1.391 . S
C2571 C2570 1.386 . S
C2571 C2575 1.393 . S
C2572 H2561 0.950 . S
C2572 C2570 1.391 . S
C2572 C2573 1.400 . S
C2573 C2567 1.491 . S
C2573 C2572 1.400 . S
C2573 C2574 1.398 . S
C2574 H2562 0.950 . S
C2574 C2573 1.398 . S
C2574 C2575 1.391 . S
C2575 H2563 0.950 . S
C2575 C2571 1.393 . S
C2575 C2574 1.391 . S
H2576 C2584 0.950 . S
H2577 C2589 0.950 . S
H2578 C2586 0.950 . S
H2579 C2588 0.950 . S
H2580 C2590 0.950 . S
H2581 C2592 0.950 . S
H2582 C2594 0.950 . S
H2583 C2595 0.950 . S
C2584 H2576 0.950 . S
C2584 C2585 1.386 . S
C2584 C2586 1.391 . S
C2585 C2584 1.386 . S
C2585 C2589 1.393 . S
C2586 H2578 0.950 . S
C2586 C2584 1.391 . S
C2586 C2587 1.400 . S
C2587 C2586 1.400 . S
C2587 C2588 1.398 . S
C2587 C2593 1.491 . S
C2588 H2579 0.950 . S
C2588 C2587 1.398 . S
C2588 C2589 1.391 . S
C2589 H2577 0.950 . S
C2589 C2585 1.393 . S
C2589 C2588 1.391 . S
C2590 H2580 0.950 . S
C2590 C2591 1.386 . S
C2590 C2592 1.391 . S
C2591 C2590 1.386 . S
C2591 C2595 1.393 . S
C2592 H2581 0.950 . S
C2592 C2590 1.391 . S
C2592 C2593 1.400 . S
C2593 C2587 1.491 . S
C2593 C2592 1.400 . S
C2593 C2594 1.398 . S
C2594 H2582 0.950 . S
C2594 C2593 1.398 . S
C2594 C2595 1.391 . S
C2595 H2583 0.950 . S
C2595 C2591 1.393 . S
C2595 C2594 1.391 . S
H2596 C2604 0.950 . S
H2597 C2609 0.950 1_565 S
H2598 C2606 0.950 . S
H2599 C2608 0.950 1_565 S
H2600 C2610 0.950 1_565 S
H2601 C2612 0.950 1_565 S
H2602 C2614 0.950 . S
H2603 C2615 0.950 . S
C2604 H2596 0.950 . S
C2604 C2605 1.386 . S
C2604 C2606 1.391 . S
C2605 C2604 1.386 . S
C2605 C2609 1.393 . S
C2606 H2598 0.950 . S
C2606 C2604 1.391 . S
C2606 C2607 1.400 . S
C2607 C2606 1.400 . S
C2607 C2608 1.398 . S
C2607 C2613 1.491 . S
C2608 H2599 0.950 1_545 S
C2608 C2607 1.398 . S
C2608 C2609 1.391 . S
C2609 H2597 0.950 1_545 S
C2609 C2605 1.393 . S
C2609 C2608 1.391 . S
C2610 H2600 0.950 1_545 S
C2610 C2611 1.386 . S
C2610 C2612 1.391 . S
C2611 C2610 1.386 . S
C2611 C2615 1.393 . S
C2612 H2601 0.950 1_545 S
C2612 C2610 1.391 . S
C2612 C2613 1.400 . S
C2613 C2607 1.491 . S
C2613 C2612 1.400 . S
C2613 C2614 1.398 . S
C2614 H2602 0.950 . S
C2614 C2613 1.398 . S
C2614 C2615 1.391 . S
C2615 H2603 0.950 . S
C2615 C2611 1.393 . S
C2615 C2614 1.391 . S
H2616 C2624 0.950 . S
H2617 C2629 0.950 . S
H2618 C2626 0.950 . S
H2619 C2628 0.950 . S
H2620 C2630 0.950 . S
H2621 C2632 0.950 . S
H2622 C2634 0.950 . S
H2623 C2635 0.950 . S
C2624 H2616 0.950 . S
C2624 C2625 1.386 . S
C2624 C2626 1.391 . S
C2625 C2624 1.386 . S
C2625 C2629 1.393 . S
C2626 H2618 0.950 . S
C2626 C2624 1.391 . S
C2626 C2627 1.400 . S
C2627 C2626 1.400 . S
C2627 C2628 1.398 . S
C2627 C2633 1.491 . S
C2628 H2619 0.950 . S
C2628 C2627 1.398 . S
C2628 C2629 1.391 . S
C2629 H2617 0.950 . S
C2629 C2625 1.393 . S
C2629 C2628 1.391 . S
C2630 H2620 0.950 . S
C2630 C2631 1.386 . S
C2630 C2632 1.391 . S
C2631 C2630 1.386 . S
C2631 C2635 1.393 . S
C2632 H2621 0.950 . S
C2632 C2630 1.391 . S
C2632 C2633 1.400 . S
C2633 C2627 1.491 . S
C2633 C2632 1.400 . S
C2633 C2634 1.398 . S
C2634 H2622 0.950 . S
C2634 C2633 1.398 . S
C2634 C2635 1.391 . S
C2635 H2623 0.950 . S
C2635 C2631 1.393 . S
C2635 C2634 1.391 . S
H2636 C2644 0.950 . S
H2637 C2649 0.950 . S
H2638 C2646 0.950 . S
H2639 C2648 0.950 . S
H2640 C2650 0.950 . S
H2641 C2652 0.950 . S
H2642 C2654 0.950 . S
H2643 C2655 0.950 . S
C2644 H2636 0.950 . S
C2644 C2645 1.386 . S
C2644 C2646 1.391 . S
C2645 C2644 1.386 . S
C2645 C2649 1.393 . S
C2646 H2638 0.950 . S
C2646 C2644 1.391 . S
C2646 C2647 1.400 . S
C2647 C2646 1.400 . S
C2647 C2648 1.398 . S
C2647 C2653 1.491 . S
C2648 H2639 0.950 . S
C2648 C2647 1.398 . S
C2648 C2649 1.391 . S
C2649 H2637 0.950 . S
C2649 C2645 1.393 . S
C2649 C2648 1.391 . S
C2650 H2640 0.950 . S
C2650 C2651 1.386 . S
C2650 C2652 1.391 . S
C2651 C2650 1.386 . S
C2651 C2655 1.393 . S
C2652 H2641 0.950 . S
C2652 C2650 1.391 . S
C2652 C2653 1.400 . S
C2653 C2647 1.491 . S
C2653 C2652 1.400 . S
C2653 C2654 1.398 . S
C2654 H2642 0.950 . S
C2654 C2653 1.398 . S
C2654 C2655 1.391 . S
C2655 H2643 0.950 . S
C2655 C2651 1.393 . S
C2655 C2654 1.391 . S
H2656 C2664 0.950 . S
H2657 C2669 0.950 . S
H2658 C2666 0.950 . S
H2659 C2668 0.950 . S
H2660 C2670 0.950 . S
H2661 C2672 0.950 . S
H2662 C2674 0.950 . S
H2663 C2675 0.950 . S
C2664 H2656 0.950 . S
C2664 C2665 1.386 . S
C2664 C2666 1.391 . S
C2665 C2664 1.386 . S
C2665 C2669 1.393 . S
C2666 H2658 0.950 . S
C2666 C2664 1.391 . S
C2666 C2667 1.400 . S
C2667 C2666 1.400 . S
C2667 C2668 1.398 . S
C2667 C2673 1.491 . S
C2668 H2659 0.950 . S
C2668 C2667 1.398 . S
C2668 C2669 1.391 . S
C2669 H2657 0.950 . S
C2669 C2665 1.393 . S
C2669 C2668 1.391 . S
C2670 H2660 0.950 . S
C2670 C2671 1.386 . S
C2670 C2672 1.391 . S
C2671 C2670 1.386 . S
C2671 C2675 1.393 . S
C2672 H2661 0.950 . S
C2672 C2670 1.391 . S
C2672 C2673 1.400 . S
C2673 C2667 1.491 . S
C2673 C2672 1.400 . S
C2673 C2674 1.398 . S
C2674 H2662 0.950 . S
C2674 C2673 1.398 . S
C2674 C2675 1.391 . S
C2675 H2663 0.950 . S
C2675 C2671 1.393 . S
C2675 C2674 1.391 . S
H2676 C2684 0.950 . S
H2677 C2689 0.950 1_455 S
H2678 C2686 0.950 . S
H2679 C2688 0.950 1_455 S
H2680 C2690 0.950 . S
H2681 C2692 0.950 . S
H2682 C2694 0.950 . S
H2683 C2695 0.950 . S
C2684 H2676 0.950 . S
C2684 C2685 1.386 . S
C2684 C2686 1.391 . S
C2685 C2684 1.386 . S
C2685 C2689 1.393 . S
C2686 H2678 0.950 . S
C2686 C2684 1.391 . S
C2686 C2687 1.400 . S
C2687 C2686 1.400 . S
C2687 C2688 1.398 . S
C2687 C2693 1.491 . S
C2688 H2679 0.950 1_655 S
C2688 C2687 1.398 . S
C2688 C2689 1.391 . S
C2689 H2677 0.950 1_655 S
C2689 C2685 1.393 . S
C2689 C2688 1.391 . S
C2690 H2680 0.950 . S
C2690 C2691 1.386 1_455 S
C2690 C2692 1.391 . S
C2691 C2690 1.386 1_655 S
C2691 C2695 1.393 . S
C2692 H2681 0.950 . S
C2692 C2690 1.391 . S
C2692 C2693 1.400 1_455 S
C2693 C2687 1.491 . S
C2693 C2692 1.400 1_655 S
C2693 C2694 1.398 . S
C2694 H2682 0.950 . S
C2694 C2693 1.398 . S
C2694 C2695 1.391 . S
C2695 H2683 0.950 . S
C2695 C2691 1.393 . S
C2695 C2694 1.391 . S
H2696 C2704 0.950 . S
H2697 C2709 0.950 . S
H2698 C2706 0.950 . S
H2699 C2708 0.950 . S
H2700 C2710 0.950 . S
H2701 C2712 0.950 . S
H2702 C2714 0.950 . S
H2703 C2715 0.950 . S
C2704 H2696 0.950 . S
C2704 C2705 1.386 . S
C2704 C2706 1.391 . S
C2705 C2704 1.386 . S
C2705 C2709 1.393 . S
C2706 H2698 0.950 . S
C2706 C2704 1.391 . S
C2706 C2707 1.400 . S
C2707 C2706 1.400 . S
C2707 C2708 1.398 . S
C2707 C2713 1.491 . S
C2708 H2699 0.950 . S
C2708 C2707 1.398 . S
C2708 C2709 1.391 . S
C2709 H2697 0.950 . S
C2709 C2705 1.393 . S
C2709 C2708 1.391 . S
C2710 H2700 0.950 . S
C2710 C2711 1.386 . S
C2710 C2712 1.391 . S
C2711 C2710 1.386 . S
C2711 C2715 1.393 . S
C2712 H2701 0.950 . S
C2712 C2710 1.391 . S
C2712 C2713 1.400 . S
C2713 C2707 1.491 . S
C2713 C2712 1.400 . S
C2713 C2714 1.398 . S
C2714 H2702 0.950 . S
C2714 C2713 1.398 . S
C2714 C2715 1.391 . S
C2715 H2703 0.950 . S
C2715 C2711 1.393 . S
C2715 C2714 1.391 . S
H2716 C2724 0.950 . S
H2717 C2729 0.950 . S
H2718 C2726 0.950 . S
H2719 C2728 0.950 . S
H2720 C2730 0.950 1_655 S
H2721 C2732 0.950 1_655 S
H2722 C2734 0.950 . S
H2723 C2735 0.950 . S
C2724 H2716 0.950 . S
C2724 C2725 1.386 . S
C2724 C2726 1.391 . S
C2725 C2724 1.386 . S
C2725 C2729 1.393 . S
C2726 H2718 0.950 . S
C2726 C2724 1.391 . S
C2726 C2727 1.400 . S
C2727 C2726 1.400 . S
C2727 C2728 1.398 . S
C2727 C2733 1.491 . S
C2728 H2719 0.950 . S
C2728 C2727 1.398 . S
C2728 C2729 1.391 . S
C2729 H2717 0.950 . S
C2729 C2725 1.393 . S
C2729 C2728 1.391 . S
C2730 H2720 0.950 1_455 S
C2730 C2731 1.386 . S
C2730 C2732 1.391 . S
C2731 C2730 1.386 . S
C2731 C2735 1.393 . S
C2732 H2721 0.950 1_455 S
C2732 C2730 1.391 . S
C2732 C2733 1.400 . S
C2733 C2727 1.491 . S
C2733 C2732 1.400 . S
C2733 C2734 1.398 . S
C2734 H2722 0.950 . S
C2734 C2733 1.398 . S
C2734 C2735 1.391 . S
C2735 H2723 0.950 . S
C2735 C2731 1.393 . S
C2735 C2734 1.391 . S
H2736 C2744 0.950 . S
H2737 C2749 0.950 . S
H2738 C2746 0.950 . S
H2739 C2748 0.950 . S
H2740 C2750 0.950 . S
H2741 C2752 0.950 . S
H2742 C2754 0.950 . S
H2743 C2755 0.950 . S
C2744 H2736 0.950 . S
C2744 C2745 1.386 . S
C2744 C2746 1.391 . S
C2745 C2744 1.386 . S
C2745 C2749 1.393 . S
C2746 H2738 0.950 . S
C2746 C2744 1.391 . S
C2746 C2747 1.400 . S
C2747 C2746 1.400 . S
C2747 C2748 1.398 . S
C2747 C2753 1.491 . S
C2748 H2739 0.950 . S
C2748 C2747 1.398 . S
C2748 C2749 1.391 . S
C2749 H2737 0.950 . S
C2749 C2745 1.393 . S
C2749 C2748 1.391 . S
C2750 H2740 0.950 . S
C2750 C2751 1.386 . S
C2750 C2752 1.391 . S
C2751 C2750 1.386 . S
C2751 C2755 1.393 . S
C2752 H2741 0.950 . S
C2752 C2750 1.391 . S
C2752 C2753 1.400 . S
C2753 C2747 1.491 . S
C2753 C2752 1.400 . S
C2753 C2754 1.398 . S
C2754 H2742 0.950 . S
C2754 C2753 1.398 . S
C2754 C2755 1.391 . S
C2755 H2743 0.950 . S
C2755 C2751 1.393 . S
C2755 C2754 1.391 . S
H2756 C2764 0.950 . S
H2757 C2769 0.950 . S
H2758 C2766 0.950 . S
H2759 C2768 0.950 . S
H2760 C2770 0.950 . S
H2761 C2772 0.950 . S
H2762 C2774 0.950 . S
H2763 C2775 0.950 . S
C2764 H2756 0.950 . S
C2764 C2765 1.386 . S
C2764 C2766 1.391 . S
C2765 C2764 1.386 . S
C2765 C2769 1.393 . S
C2766 H2758 0.950 . S
C2766 C2764 1.391 . S
C2766 C2767 1.400 . S
C2767 C2766 1.400 . S
C2767 C2768 1.398 . S
C2767 C2773 1.491 . S
C2768 H2759 0.950 . S
C2768 C2767 1.398 . S
C2768 C2769 1.391 . S
C2769 H2757 0.950 . S
C2769 C2765 1.393 . S
C2769 C2768 1.391 . S
C2770 H2760 0.950 . S
C2770 C2771 1.386 . S
C2770 C2772 1.391 . S
C2771 C2770 1.386 . S
C2771 C2775 1.393 . S
C2772 H2761 0.950 . S
C2772 C2770 1.391 . S
C2772 C2773 1.400 . S
C2773 C2767 1.491 . S
C2773 C2772 1.400 . S
C2773 C2774 1.398 . S
C2774 H2762 0.950 . S
C2774 C2773 1.398 . S
C2774 C2775 1.391 . S
C2775 H2763 0.950 . S
C2775 C2771 1.393 . S
C2775 C2774 1.391 . S
H2776 C2784 0.950 . S
H2777 C2789 0.950 . S
H2778 C2786 0.950 . S
H2779 C2788 0.950 . S
H2780 C2790 0.950 . S
H2781 C2792 0.950 . S
H2782 C2794 0.950 . S
H2783 C2795 0.950 . S
C2784 H2776 0.950 . S
C2784 C2785 1.386 . S
C2784 C2786 1.391 . S
C2785 C2784 1.386 . S
C2785 C2789 1.393 . S
C2786 H2778 0.950 . S
C2786 C2784 1.391 . S
C2786 C2787 1.400 . S
C2787 C2786 1.400 . S
C2787 C2788 1.398 . S
C2787 C2793 1.491 . S
C2788 H2779 0.950 . S
C2788 C2787 1.398 . S
C2788 C2789 1.391 . S
C2789 H2777 0.950 . S
C2789 C2785 1.393 . S
C2789 C2788 1.391 . S
C2790 H2780 0.950 . S
C2790 C2791 1.386 . S
C2790 C2792 1.391 . S
C2791 C2790 1.386 . S
C2791 C2795 1.393 . S
C2792 H2781 0.950 . S
C2792 C2790 1.391 . S
C2792 C2793 1.400 . S
C2793 C2787 1.491 . S
C2793 C2792 1.400 . S
C2793 C2794 1.398 . S
C2794 H2782 0.950 . S
C2794 C2793 1.398 . S
C2794 C2795 1.391 . S
C2795 H2783 0.950 . S
C2795 C2791 1.393 . S
C2795 C2794 1.391 . S
H2796 C2804 0.950 . S
H2797 C2809 0.950 . S
H2798 C2806 0.950 . S
H2799 C2808 0.950 . S
H2800 C2810 0.950 . S
H2801 C2812 0.950 . S
H2802 C2814 0.950 . S
H2803 C2815 0.950 . S
C2804 H2796 0.950 . S
C2804 C2805 1.386 . S
C2804 C2806 1.391 . S
C2805 C2804 1.386 . S
C2805 C2809 1.393 . S
C2806 H2798 0.950 . S
C2806 C2804 1.391 . S
C2806 C2807 1.400 . S
C2807 C2806 1.400 . S
C2807 C2808 1.398 . S
C2807 C2813 1.491 . S
C2808 H2799 0.950 . S
C2808 C2807 1.398 . S
C2808 C2809 1.391 . S
C2809 H2797 0.950 . S
C2809 C2805 1.393 . S
C2809 C2808 1.391 . S
C2810 H2800 0.950 . S
C2810 C2811 1.386 . S
C2810 C2812 1.391 . S
C2811 C2810 1.386 . S
C2811 C2815 1.393 . S
C2812 H2801 0.950 . S
C2812 C2810 1.391 . S
C2812 C2813 1.400 . S
C2813 C2807 1.491 . S
C2813 C2812 1.400 . S
C2813 C2814 1.398 . S
C2814 H2802 0.950 . S
C2814 C2813 1.398 . S
C2814 C2815 1.391 . S
C2815 H2803 0.950 . S
C2815 C2811 1.393 . S
C2815 C2814 1.391 . S
H2816 C2824 0.950 . S
H2817 C2829 0.950 . S
H2818 C2826 0.950 . S
H2819 C2828 0.950 . S
H2820 C2830 0.950 . S
H2821 C2832 0.950 . S
H2822 C2834 0.950 . S
H2823 C2835 0.950 . S
C2824 H2816 0.950 . S
C2824 C2825 1.386 . S
C2824 C2826 1.391 . S
C2825 C2824 1.386 . S
C2825 C2829 1.393 . S
C2826 H2818 0.950 . S
C2826 C2824 1.391 . S
C2826 C2827 1.400 . S
C2827 C2826 1.400 . S
C2827 C2828 1.398 . S
C2827 C2833 1.491 . S
C2828 H2819 0.950 . S
C2828 C2827 1.398 . S
C2828 C2829 1.391 . S
C2829 H2817 0.950 . S
C2829 C2825 1.393 . S
C2829 C2828 1.391 . S
C2830 H2820 0.950 . S
C2830 C2831 1.386 . S
C2830 C2832 1.391 . S
C2831 C2830 1.386 . S
C2831 C2835 1.393 . S
C2832 H2821 0.950 . S
C2832 C2830 1.391 . S
C2832 C2833 1.400 . S
C2833 C2827 1.491 . S
C2833 C2832 1.400 . S
C2833 C2834 1.398 . S
C2834 H2822 0.950 . S
C2834 C2833 1.398 . S
C2834 C2835 1.391 . S
C2835 H2823 0.950 . S
C2835 C2831 1.393 . S
C2835 C2834 1.391 . S
H2836 C2844 0.950 . S
H2837 C2849 0.950 . S
H2838 C2846 0.950 . S
H2839 C2848 0.950 . S
H2840 C2850 0.950 . S
H2841 C2852 0.950 . S
H2842 C2854 0.950 . S
H2843 C2855 0.950 . S
C2844 H2836 0.950 . S
C2844 C2845 1.386 . S
C2844 C2846 1.391 . S
C2845 C2844 1.386 . S
C2845 C2849 1.393 . S
C2846 H2838 0.950 . S
C2846 C2844 1.391 . S
C2846 C2847 1.400 . S
C2847 C2846 1.400 . S
C2847 C2848 1.398 . S
C2847 C2853 1.491 . S
C2848 H2839 0.950 . S
C2848 C2847 1.398 . S
C2848 C2849 1.391 . S
C2849 H2837 0.950 . S
C2849 C2845 1.393 . S
C2849 C2848 1.391 . S
C2850 H2840 0.950 . S
C2850 C2851 1.386 . S
C2850 C2852 1.391 . S
C2851 C2850 1.386 . S
C2851 C2855 1.393 . S
C2852 H2841 0.950 . S
C2852 C2850 1.391 . S
C2852 C2853 1.400 . S
C2853 C2847 1.491 . S
C2853 C2852 1.400 . S
C2853 C2854 1.398 . S
C2854 H2842 0.950 . S
C2854 C2853 1.398 . S
C2854 C2855 1.391 . S
C2855 H2843 0.950 . S
C2855 C2851 1.393 . S
C2855 C2854 1.391 . S
H2856 C2864 0.950 . S
H2857 C2869 0.950 . S
H2858 C2866 0.950 . S
H2859 C2868 0.950 . S
H2860 C2870 0.950 . S
H2861 C2872 0.950 . S
H2862 C2874 0.950 . S
H2863 C2875 0.950 . S
C2864 H2856 0.950 . S
C2864 C2865 1.386 . S
C2864 C2866 1.391 . S
C2865 C2864 1.386 . S
C2865 C2869 1.393 . S
C2866 H2858 0.950 . S
C2866 C2864 1.391 . S
C2866 C2867 1.400 . S
C2867 C2866 1.400 . S
C2867 C2868 1.398 . S
C2867 C2873 1.491 . S
C2868 H2859 0.950 . S
C2868 C2867 1.398 . S
C2868 C2869 1.391 . S
C2869 H2857 0.950 . S
C2869 C2865 1.393 . S
C2869 C2868 1.391 . S
C2870 H2860 0.950 . S
C2870 C2871 1.386 . S
C2870 C2872 1.391 . S
C2871 C2870 1.386 . S
C2871 C2875 1.393 . S
C2872 H2861 0.950 . S
C2872 C2870 1.391 . S
C2872 C2873 1.400 . S
C2873 C2867 1.491 . S
C2873 C2872 1.400 . S
C2873 C2874 1.398 . S
C2874 H2862 0.950 . S
C2874 C2873 1.398 . S
C2874 C2875 1.391 . S
C2875 H2863 0.950 . S
C2875 C2871 1.393 . S
C2875 C2874 1.391 . S
H2876 C2884 0.950 . S
H2877 C2889 0.950 . S
H2878 C2886 0.950 . S
H2879 C2888 0.950 . S
H2880 C2890 0.950 . S
H2881 C2892 0.950 . S
H2882 C2894 0.950 . S
H2883 C2895 0.950 . S
C2884 H2876 0.950 . S
C2884 C2885 1.386 . S
C2884 C2886 1.391 . S
C2885 C2884 1.386 . S
C2885 C2889 1.393 . S
C2886 H2878 0.950 . S
C2886 C2884 1.391 . S
C2886 C2887 1.400 . S
C2887 C2886 1.400 . S
C2887 C2888 1.398 . S
C2887 C2893 1.491 . S
C2888 H2879 0.950 . S
C2888 C2887 1.398 . S
C2888 C2889 1.391 . S
C2889 H2877 0.950 . S
C2889 C2885 1.393 . S
C2889 C2888 1.391 . S
C2890 H2880 0.950 . S
C2890 C2891 1.386 . S
C2890 C2892 1.391 . S
C2891 C2890 1.386 . S
C2891 C2895 1.393 . S
C2892 H2881 0.950 . S
C2892 C2890 1.391 . S
C2892 C2893 1.400 . S
C2893 C2887 1.491 . S
C2893 C2892 1.400 . S
C2893 C2894 1.398 . S
C2894 H2882 0.950 . S
C2894 C2893 1.398 . S
C2894 C2895 1.391 . S
C2895 H2883 0.950 . S
C2895 C2891 1.393 . S
C2895 C2894 1.391 . S
H2896 C2904 0.950 . S
H2897 C2909 0.950 1_554 S
H2898 C2906 0.950 . S
H2899 C2908 0.950 1_554 S
H2900 C2910 0.950 . S
H2901 C2912 0.934 1_554 S
H2902 C2914 0.950 . S
H2903 C2915 0.950 . S
C2904 H2896 0.950 . S
C2904 C2905 1.386 . S
C2904 C2906 1.391 . S
C2905 C2904 1.386 . S
C2905 C2909 1.393 . S
C2906 H2898 0.950 . S
C2906 C2904 1.391 . S
C2906 C2907 1.400 . S
C2907 C2906 1.400 . S
C2907 C2908 1.398 . S
C2907 C2913 1.491 . S
C2908 H2899 0.950 1_556 S
C2908 C2907 1.398 . S
C2908 C2909 1.391 . S
C2909 H2897 0.950 1_556 S
C2909 C2905 1.393 . S
C2909 C2908 1.391 . S
C2910 H2900 0.950 . S
C2910 C2911 1.386 1_554 S
C2910 C2912 1.389 1_554 S
C2911 C2910 1.386 1_556 S
C2911 C2915 1.393 . S
C2912 H2901 0.934 1_556 S
C2912 C2910 1.389 1_556 S
C2912 C2913 1.418 . S
C2913 C2907 1.491 . S
C2913 C2912 1.418 . S
C2913 C2914 1.398 . S
C2914 H2902 0.950 . S
C2914 C2913 1.398 . S
C2914 C2915 1.391 . S
C2915 H2903 0.950 . S
C2915 C2911 1.393 . S
C2915 C2914 1.391 . S
H2916 C2924 0.950 . S
H2917 C2929 0.950 . S
H2918 C2926 0.950 . S
H2919 C2928 0.950 . S
H2920 C2930 0.950 . S
H2921 C2932 0.950 . S
H2922 C2934 0.950 . S
H2923 C2935 0.950 . S
C2924 H2916 0.950 . S
C2924 C2925 1.386 . S
C2924 C2926 1.391 . S
C2925 C2924 1.386 . S
C2925 C2929 1.393 . S
C2926 H2918 0.950 . S
C2926 C2924 1.391 . S
C2926 C2927 1.400 . S
C2927 C2926 1.400 . S
C2927 C2928 1.398 . S
C2927 C2933 1.491 . S
C2928 H2919 0.950 . S
C2928 C2927 1.398 . S
C2928 C2929 1.391 . S
C2929 H2917 0.950 . S
C2929 C2925 1.393 . S
C2929 C2928 1.391 . S
C2930 H2920 0.950 . S
C2930 C2931 1.386 . S
C2930 C2932 1.391 . S
C2931 C2930 1.386 . S
C2931 C2935 1.393 . S
C2932 H2921 0.950 . S
C2932 C2930 1.391 . S
C2932 C2933 1.400 . S
C2933 C2927 1.491 . S
C2933 C2932 1.400 . S
C2933 C2934 1.398 . S
C2934 H2922 0.950 . S
C2934 C2933 1.398 . S
C2934 C2935 1.391 . S
C2935 H2923 0.950 . S
C2935 C2931 1.393 . S
C2935 C2934 1.391 . S
H2936 C2944 0.950 . S
H2937 C2949 0.950 . S
H2938 C2946 0.950 . S
H2939 C2948 0.950 . S
H2940 C2950 0.950 . S
H2941 C2952 0.950 . S
H2942 C2954 0.950 . S
H2943 C2955 0.950 . S
C2944 H2936 0.950 . S
C2944 C2945 1.386 . S
C2944 C2946 1.391 . S
C2945 C2944 1.386 . S
C2945 C2949 1.393 . S
C2946 H2938 0.950 . S
C2946 C2944 1.391 . S
C2946 C2947 1.400 . S
C2947 C2946 1.400 . S
C2947 C2948 1.398 . S
C2947 C2953 1.491 . S
C2948 H2939 0.950 . S
C2948 C2947 1.398 . S
C2948 C2949 1.391 . S
C2949 H2937 0.950 . S
C2949 C2945 1.393 . S
C2949 C2948 1.391 . S
C2950 H2940 0.950 . S
C2950 C2951 1.386 . S
C2950 C2952 1.391 . S
C2951 C2950 1.386 . S
C2951 C2955 1.393 . S
C2952 H2941 0.950 . S
C2952 C2950 1.391 . S
C2952 C2953 1.400 . S
C2953 C2947 1.491 . S
C2953 C2952 1.400 . S
C2953 C2954 1.398 . S
C2954 H2942 0.950 . S
C2954 C2953 1.398 . S
C2954 C2955 1.391 . S
C2955 H2943 0.950 . S
C2955 C2951 1.393 . S
C2955 C2954 1.391 . S
H2956 C2964 0.950 1_556 S
H2957 C2969 0.950 . S
H2958 C2966 0.950 1_556 S
H2959 C2968 0.950 . S
H2960 C2970 0.950 . S
H2961 C2972 0.950 . S
H2962 C2974 0.950 1_556 S
H2963 C2975 0.974 . S
C2964 H2956 0.950 1_554 S
C2964 C2965 1.386 . S
C2964 C2966 1.391 . S
C2965 C2964 1.386 . S
C2965 C2969 1.393 . S
C2966 H2958 0.950 1_554 S
C2966 C2964 1.391 . S
C2966 C2967 1.400 . S
C2967 C2966 1.400 . S
C2967 C2968 1.398 . S
C2967 C2973 1.491 . S
C2968 H2959 0.950 . S
C2968 C2967 1.398 . S
C2968 C2969 1.391 . S
C2969 H2957 0.950 . S
C2969 C2965 1.393 . S
C2969 C2968 1.391 . S
C2970 H2960 0.950 . S
C2970 C2971 1.386 . S
C2970 C2972 1.391 . S
C2971 C2970 1.386 . S
C2971 C2975 1.372 1_554 S
C2972 H2961 0.950 . S
C2972 C2970 1.391 . S
C2972 C2973 1.400 . S
C2973 C2967 1.491 . S
C2973 C2972 1.400 . S
C2973 C2974 1.398 . S
C2974 H2962 0.950 1_554 S
C2974 C2973 1.398 . S
C2974 C2975 1.388 1_554 S
C2975 H2963 0.974 . S
C2975 C2971 1.372 1_556 S
C2975 C2974 1.388 1_556 S
C2031 C1009 1.510 . S
C2025 C331 1.504 . S
C2051 C1068 1.522 . S
C2045 C380 1.497 . S
C2065 C421 1.489 . S
C2071 C1185 1.517 . S
C2091 C1253 1.522 . S
C2085 C260 1.492 . S
C2111 C1332 1.508 . S
C2105 C620 1.493 . S
C2131 C1457 1.520 . S
C2125 C740 1.509 . S
C2145 C680 1.486 . S
C2151 C1517 1.510 . S
C2171 C1625 1.520 . S
C2165 C571 1.512 . S
C2185 C691 1.474 . S
C2191 C1721 1.517 . S
C2211 C1781 1.519 . S
C2205 C541 1.507 . S
C2225 C601 1.496 . S
C2231 C1684 1.504 . S
C2251 C1801 1.519 . S
C2245 C721 1.496 . S
C2265 C451 1.487 . S
C2271 C1869 1.517 . S
C2285 C241 1.496 . S
C2291 C1860 1.521 . S
C2305 C320 1.495 . S
C2311 C1889 1.505 . S
C2325 C391 1.504 . S
C2331 C1897 1.523 . S
C2345 C211 1.499 . S
C2351 C1281 1.515 . S
C2365 C841 1.491 . S
C2371 C1244 1.505 . S
C2391 C980 1.522 . S
C2385 C901 1.501 . S
C2411 C1077 1.508 . S
C2405 C500 1.489 . S
C2425 C271 1.496 . S
C2431 C1341 1.522 . S
C2451 C1633 1.508 . S
C2445 C661 1.463 . S
C2471 C1361 1.521 . S
C2465 C560 1.507 . S
C2491 C1545 1.521 . S
C2485 C751 1.497 . S
C2511 C1537 1.510 . S
C2505 C871 1.498 . S
C2525 C920 1.507 . S
C2531 C1605 1.519 . S
C2545 C481 1.490 . S
C2551 C1369 1.511 . S
C2571 C1420 1.522 . S
C2565 C800 1.490 . S
C2585 C200 1.498 . S
C2591 C1165 1.504 . S
C2611 C1273 1.522 . S
C2605 C20 1.499 . S
C2631 C989 1.511 . S
C2625 C80 1.476 . S
C2651 C1105 1.522 . S
C2645 C151 1.496 . S
C2665 C91 1.479 . S
C2671 C1809 1.511 . S
C2685 C121 1.497 . S
C2691 C1693 1.523 . S
C2705 C181 1.489 . S
C2711 C1772 1.511 . S
C2725 C1 1.509 . S
C2731 C1713 1.521 . S
C2751 C1957 1.510 . S
C2745 C511 1.497 . S
C2771 C1948 1.522 . S
C2765 C781 1.496 . S
C2791 C1977 1.511 . S
C2785 C860 1.495 . S
C2805 C931 1.505 . S
C2811 C1985 1.521 . S
C2825 C631 1.492 . S
C2831 C1449 1.511 . S
C2851 C1429 1.508 . S
C2845 C301 1.496 . S
C2871 C1508 1.520 . S
C2865 C361 1.511 . S
C2891 C1596 1.510 . S
C2885 C440 1.504 . S
C2905 C811 1.497 . S
C2911 C1156 1.523 . S
C2931 C1097 1.508 . S
C2925 C61 1.470 . S
C2945 C140 1.509 . S
C2951 C1193 1.519 . S
C2971 C1017 1.519 . S
C2965 C31 1.498 . S
