# Generated by pormake.
# Topology anh, (6,3)-cn, num edge types: 1
# Building blocks:
#     Node 0, Type 0, BuildingBlock: BETDEL_clean_sbu_0, # of connection points: 6
#     Node 1, Type 0, BuildingBlock: BETDEL_clean_sbu_0, # of connection points: 6
#     Node 2, Type 0, BuildingBlock: BETDEL_clean_sbu_0, # of connection points: 6
#     Node 3, Type 1, BuildingBlock: MIDCAF_clean_linker_0, # of connection points: 3
#     Node 4, Type 1, BuildingBlock: MIDCAF_clean_linker_0, # of connection points: 3
#     Node 5, Type 1, BuildingBlock: MIDCAF_clean_linker_0, # of connection points: 3
#     Node 6, Type 1, BuildingBlock: MIDCAF_clean_linker_0, # of connection points: 3
#     Node 7, Type 1, BuildingBlock: MIDCAF_clean_linker_0, # of connection points: 3
#     Node 8, Type 1, BuildingBlock: MIDCAF_clean_linker_0, # of connection points: 3
#     Edge 9, Type (0, 1), BuildingBlock: CIFDUS_clean_linker_0, # of connection points: 2
#     Edge 10, Type (0, 1), BuildingBlock: CIFDUS_clean_linker_0, # of connection points: 2
#     Edge 11, Type (0, 1), BuildingBlock: CIFDUS_clean_linker_0, # of connection points: 2
#     Edge 12, Type (0, 1), BuildingBlock: CIFDUS_clean_linker_0, # of connection points: 2
#     Edge 13, Type (0, 1), BuildingBlock: CIFDUS_clean_linker_0, # of connection points: 2
#     Edge 14, Type (0, 1), BuildingBlock: CIFDUS_clean_linker_0, # of connection points: 2
#     Edge 15, Type (0, 1), BuildingBlock: CIFDUS_clean_linker_0, # of connection points: 2
#     Edge 16, Type (0, 1), BuildingBlock: CIFDUS_clean_linker_0, # of connection points: 2
#     Edge 17, Type (0, 1), BuildingBlock: CIFDUS_clean_linker_0, # of connection points: 2
#     Edge 18, Type (0, 1), BuildingBlock: CIFDUS_clean_linker_0, # of connection points: 2
#     Edge 19, Type (0, 1), BuildingBlock: CIFDUS_clean_linker_0, # of connection points: 2
#     Edge 20, Type (0, 1), BuildingBlock: CIFDUS_clean_linker_0, # of connection points: 2
#     Edge 21, Type (0, 1), BuildingBlock: CIFDUS_clean_linker_0, # of connection points: 2
#     Edge 22, Type (0, 1), BuildingBlock: CIFDUS_clean_linker_0, # of connection points: 2
#     Edge 23, Type (0, 1), BuildingBlock: CIFDUS_clean_linker_0, # of connection points: 2
#     Edge 24, Type (0, 1), BuildingBlock: CIFDUS_clean_linker_0, # of connection points: 2
#     Edge 25, Type (0, 1), BuildingBlock: CIFDUS_clean_linker_0, # of connection points: 2
#     Edge 26, Type (0, 1), BuildingBlock: CIFDUS_clean_linker_0, # of connection points: 2
# Relax obj value: 0.144
# Max RMSD: 0.166
# Mean RMSD: 0.134
data_MOF--net-anh--node1-BETDEL_clean_sbu_0--node2-MIDCAF_clean_linker_0--edge1-CIFDUS_clean_linker_0
_symmetry_space_group_name_H-M    P1
_symmetry_Int_Tables_number       1
_symmetry_cell_setting            triclinic
loop_
_symmetry_equiv_pos_as_xyz
'x, y, z'
_cell_length_a     31.722936
_cell_length_b     31.65716
_cell_length_c     58.1719
_cell_angle_alpha  90.619572
_cell_angle_beta   88.128805
_cell_angle_gamma 119.5342
loop_
_atom_site_label
_atom_site_type_symbol
_atom_site_fract_x
_atom_site_fract_y
_atom_site_fract_z
_atom_type_partial_charge
Dy0 Dy 0.05267 0.48381 0.16514 0.0
C1 C 0.94938 0.58591 0.18038 0.0
C2 C 0.11023 0.44355 0.15626 0.0
Dy3 Dy 1.00885 0.54927 0.16808 0.0
O4 O 0.09305 0.44642 0.17637 0.0
O5 O 0.09514 0.46187 0.14078 0.0
O6 O 1.01417 0.44895 0.19845 0.0
O7 O 0.04027 0.52355 0.19284 0.0
C8 C 1.01631 0.4884 0.20642 0.0
C9 C 0.0438 0.54519 0.12619 0.0
O10 O 0.08289 0.60384 0.17934 0.0
O11 O 0.11859 0.55927 0.166 0.0
O12 O 0.98128 0.60187 0.16348 0.0
O13 O 0.95074 0.55057 0.19075 0.0
O14 O 0.04387 0.58352 0.13436 0.0
O15 O 1.02104 0.50964 0.13981 0.0
O16 O 0.97744 0.42641 0.15664 0.0
O17 O 0.94291 0.47442 0.16591 0.0
C18 C 0.12201 0.60046 0.17384 0.0
C19 C 0.93882 0.43163 0.16054 0.0
Dy20 Dy 0.51486 0.06621 0.48486 0.0
C21 C 0.71423 0.20084 0.51746 0.0
C22 C 0.43019 1.00942 0.46377 0.0
Dy23 Dy 0.62989 0.13853 0.49705 0.0
O24 O 0.43668 0.04179 0.47928 0.0
O25 O 0.47047 1.00901 0.45933 0.0
O26 O 0.48868 0.04642 0.52202 0.0
O27 O 0.55968 0.09661 0.51366 0.0
C28 C 0.53109 0.07521 0.53026 0.0
C29 C 0.61335 0.12731 0.45129 0.0
O30 O 0.6181 0.06397 0.50528 0.0
O31 O 0.5444 1.01434 0.48723 0.0
O32 O 0.70863 0.16592 0.50362 0.0
O33 O 0.6732 0.20031 0.5206 0.0
O34 O 0.65596 0.15533 0.45945 0.0
O35 O 0.58457 0.10862 0.46807 0.0
O36 O 0.52366 0.14145 0.48135 0.0
O37 O 0.59946 0.18918 0.49792 0.0
C38 C 0.58381 0.02079 0.4979 0.0
C39 C 0.55843 0.18347 0.48958 0.0
Dy40 Dy 0.62138 0.59304 0.82921 0.0
C41 C 0.50957 0.38778 0.84131 0.0
C42 C 0.65854 0.69099 0.82596 0.0
Dy43 Dy 0.55931 0.48379 0.8298 0.0
O44 O 0.63632 0.66438 0.84384 0.0
O45 O 0.66132 0.66406 0.80952 0.0
O46 O 0.65128 0.58896 0.86308 0.0
O47 O 0.57917 0.53916 0.85567 0.0
C48 C 0.61171 0.55085 0.87009 0.0
C49 C 0.59624 0.52093 0.78772 0.0
O50 O 0.4985 0.50067 0.8333 0.0
O51 O 0.54644 0.58429 0.82882 0.0
O52 O 0.49903 0.40736 0.82443 0.0
O53 O 0.54619 0.42108 0.85215 0.0
O54 O 0.58839 0.47909 0.79507 0.0
O55 O 0.58081 0.53965 0.8027 0.0
O56 O 0.67923 0.57319 0.82088 0.0
O57 O 0.63381 0.49609 0.83639 0.0
C58 C 0.5034 0.54467 0.83168 0.0
C59 C 0.67571 0.53217 0.8285 0.0
C60 C 0.39245 0.85161 0.21039 0.0
C61 C 0.3674 0.85405 0.19143 0.0
C62 C 0.38754 0.89794 0.17884 0.0
C63 C 0.43099 0.93869 0.18548 0.0
H64 H 0.61688 0.05644 0.17147 0.0
H65 H 0.69103 0.12515 0.15469 0.0
H66 H 0.67993 0.22072 0.20505 0.0
H67 H 0.60678 0.15302 0.22141 0.0
H68 H 0.61532 0.07841 0.27286 0.0
H69 H 0.62083 0.08884 0.3142 0.0
H70 H 0.46592 0.99411 0.32211 0.0
H71 H 0.46101 0.98171 0.28055 0.0
H72 H 0.45238 0.88946 0.23245 0.0
H73 H 0.37793 0.81867 0.22059 0.0
H74 H 0.36928 0.90096 0.16406 0.0
H75 H 0.44481 0.97231 0.1759 0.0
N76 N 0.53043 0.01761 0.20125 0.0
N77 N 0.56865 0.0607 0.23449 0.0
N78 N 0.4986 0.98506 0.23815 0.0
C79 C 0.56705 0.05781 0.21122 0.0
C80 C 0.53485 0.02473 0.24806 0.0
C81 C 0.49594 0.98094 0.21485 0.0
C82 C 0.60591 0.09925 0.19776 0.0
C83 C 0.62973 0.09243 0.17847 0.0
C84 C 0.6725 0.13172 0.16906 0.0
C85 C 0.69177 0.17869 0.17853 0.0
C86 C 0.66619 0.18551 0.19704 0.0
C87 C 0.62416 0.14646 0.20653 0.0
C88 C 0.53769 0.02944 0.2734 0.0
C89 C 0.58241 0.0597 0.28341 0.0
C90 C 0.58547 0.06599 0.30719 0.0
C91 C 0.54371 0.04301 0.32165 0.0
C92 C 0.49895 1.01211 0.31162 0.0
C93 C 0.49605 1.00511 0.28777 0.0
C94 C 0.4546 0.93667 0.20514 0.0
C95 C 0.43512 0.89237 0.21724 0.0
C96 C 0.53492 0.43076 0.53382 0.0
C97 C 0.5636 0.43605 0.51399 0.0
C98 C 0.58972 0.48242 0.50361 0.0
C99 C 0.58848 0.52274 0.51336 0.0
H100 H 0.54978 0.65136 0.50593 0.0
H101 H 0.54811 0.72269 0.49085 0.0
H102 H 0.59304 0.79338 0.55646 0.0
H103 H 0.59545 0.72359 0.57126 0.0
H104 H 0.54441 0.63576 0.61754 0.0
H105 H 0.55214 0.63176 0.65893 0.0
H106 H 0.63732 0.56051 0.64671 0.0
H107 H 0.626 0.56128 0.60568 0.0
H108 H 0.5138 0.46593 0.5597 0.0
H109 H 0.51474 0.39585 0.5424 0.0
H110 H 0.6121 0.48771 0.48827 0.0
H111 H 0.61035 0.55821 0.50551 0.0
N112 N 0.56781 0.59957 0.53694 0.0
N113 N 0.57696 0.63648 0.57319 0.0
N114 N 0.57256 0.56072 0.57028 0.0
C115 C 0.57241 0.63781 0.55005 0.0
C116 C 0.57744 0.59843 0.58337 0.0
C117 C 0.56744 0.5606 0.54717 0.0
C118 C 0.57266 0.68125 0.53987 0.0
C119 C 0.55964 0.68229 0.51705 0.0
C120 C 0.55841 0.72314 0.50845 0.0
C121 C 0.57067 0.76417 0.52237 0.0
C122 C 0.58416 0.76309 0.54503 0.0
C123 C 0.5851 0.72249 0.55361 0.0
C124 C 0.58406 0.59827 0.60844 0.0
C125 C 0.56464 0.61916 0.62383 0.0
C126 C 0.56951 0.61719 0.6476 0.0
C127 C 0.59506 0.59539 0.65652 0.0
C128 C 0.61598 0.57617 0.64083 0.0
C129 C 0.60987 0.57691 0.61718 0.0
C130 C 0.562 0.51769 0.53398 0.0
C131 C 0.53455 0.47105 0.54379 0.0
C132 C 0.91813 0.50988 0.87159 0.0
C133 C 0.92626 0.53826 0.85179 0.0
C134 C 0.97299 0.56105 0.84127 0.0
C135 C 1.0107 0.55594 0.85057 0.0
H136 H 0.13031 0.49837 0.84126 0.0
H137 H 0.20218 0.49578 0.82589 0.0
H138 H 0.28236 0.57623 0.88464 0.0
H139 H 0.21107 0.5783 0.89997 0.0
H140 H 0.14622 0.54432 0.94881 0.0
H141 H 0.1377 0.53556 0.99066 0.0
H142 H 0.98273 0.47317 0.98649 0.0
H143 H 0.991 0.48216 0.94469 0.0
H144 H 0.9479 0.4839 0.89654 0.0
H145 H 0.88293 0.49229 0.88036 0.0
H146 H 0.98042 0.583 0.82593 0.0
H147 H 0.04647 0.57468 0.8424 0.0
N148 N 0.08386 0.53359 0.8714 0.0
N149 N 0.11531 0.5278 0.90662 0.0
N150 N 0.0385 0.52071 0.906 0.0
C151 C 0.12031 0.5337 0.88339 0.0
C152 C 0.07449 0.52099 0.91804 0.0
C153 C 0.04276 0.52736 0.88281 0.0
C154 C 0.16497 0.53847 0.87184 0.0
C155 C 0.16363 0.51631 0.85059 0.0
C156 C 0.20462 0.51447 0.84191 0.0
C157 C 0.24799 0.53569 0.85408 0.0
C158 C 0.24978 0.55987 0.87472 0.0
C159 C 0.20878 0.56089 0.88356 0.0
C160 C 0.06931 0.51417 0.94338 0.0
C161 C 0.11027 0.52846 0.95677 0.0
C162 C 0.10547 0.5236 0.98074 0.0
C163 C 0.05956 0.50361 0.99179 0.0
C164 C 1.01851 0.48827 0.9784 0.0
C165 C 1.02335 0.49381 0.95447 0.0
C166 C 1.0026 0.52868 0.87082 0.0
C167 C 0.95566 0.50531 0.88097 0.0
C168 C 0.17715 0.74299 0.41227 0.0
C169 C 0.19261 0.7652 0.43365 0.0
C170 C 0.16208 0.74524 0.45324 0.0
C171 C 0.11675 0.70358 0.45144 0.0
H172 H 1.02235 0.54089 0.47781 0.0
H173 H 0.97626 0.47787 0.50712 0.0
H174 H 0.84276 0.46074 0.48122 0.0
H175 H 0.88831 0.52202 0.45173 0.0
H176 H 0.96646 0.50131 0.38252 0.0
H177 H 0.96077 0.48667 0.34136 0.0
H178 H 0.96766 0.62515 0.33057 0.0
H179 H 0.97771 0.641 0.37169 0.0
H180 H 0.12084 0.68579 0.39359 0.0
H181 H 0.19996 0.75787 0.39691 0.0
H182 H 0.1735 0.76163 0.46996 0.0
H183 H 0.09388 0.68893 0.46679 0.0
N184 N 0.02864 0.609 0.44584 0.0
N185 N 0.96601 0.55691 0.42169 0.0
N186 N 0.03299 0.62685 0.40653 0.0
C187 C 0.98499 0.56843 0.44297 0.0
C188 C 0.98985 0.58635 0.40349 0.0
C189 C 0.05274 0.63844 0.42755 0.0
C190 C 0.95867 0.53587 0.46251 0.0
C191 C 0.9832 0.52417 0.47876 0.0
C192 C 0.95701 0.48831 0.49545 0.0
C193 C 0.90614 0.46499 0.4965 0.0
C194 C 0.88201 0.47875 0.481 0.0
C195 C 0.90798 0.51344 0.46401 0.0
C196 C 0.97284 0.57232 0.38004 0.0
C197 C 0.96546 0.52789 0.3713 0.0
C198 C 0.96203 0.51956 0.34763 0.0
C199 C 0.96473 0.55516 0.33234 0.0
C200 C 0.96719 0.5976 0.3416 0.0
C201 C 0.97224 0.60651 0.36518 0.0
C202 C 0.10097 0.68175 0.42995 0.0
C203 C 0.1317 0.7019 0.4104 0.0
C204 C 0.52346 0.15661 0.79526 0.0
C205 C 0.52946 0.1579 0.81911 0.0
C206 C 0.54852 0.13022 0.82848 0.0
C207 C 0.56147 0.10212 0.81417 0.0
H208 H 0.6428 0.01915 0.80709 0.0
H209 H 0.67619 0.96648 0.817 0.0
H210 H 0.62748 0.89097 0.75259 0.0
H211 H 0.59568 0.94319 0.74264 0.0
H212 H 0.55437 0.97729 0.70515 0.0
H213 H 0.53851 0.97775 0.66438 0.0
H214 H 0.55959 0.12276 0.67084 0.0
H215 H 0.57446 0.1222 0.71192 0.0
H216 H 0.53127 0.12969 0.76282 0.0
H217 H 0.51038 0.17849 0.78724 0.0
H218 H 0.55373 0.13057 0.84681 0.0
H219 H 0.57627 0.08139 0.82179 0.0
N220 N 0.58764 0.04464 0.78206 0.0
N221 N 0.59116 0.02025 0.74408 0.0
N222 N 0.56359 0.07511 0.75147 0.0
C223 C 0.59837 0.01801 0.76678 0.0
C224 C 0.57409 0.04876 0.7363 0.0
C225 C 0.56983 0.0732 0.77436 0.0
C226 C 0.61691 0.98568 0.77404 0.0
C227 C 0.63939 0.99126 0.79514 0.0
C228 C 0.6586 0.96122 0.80074 0.0
C229 C 0.65541 0.92511 0.78536 0.0
C230 C 0.63219 0.91937 0.76451 0.0
C231 C 0.61342 0.94922 0.75892 0.0
C232 C 0.56558 0.04972 0.71165 0.0
C233 C 0.55577 1.00934 0.69789 0.0
C234 C 0.54653 1.00945 0.67465 0.0
C235 C 0.54795 0.05028 0.66472 0.0
C236 C 0.55853 0.09102 0.67828 0.0
C237 C 0.56677 0.09054 0.70169 0.0
C238 C 0.55584 0.10155 0.79025 0.0
C239 C 0.53626 0.12888 0.78112 0.0
C240 C 0.70208 0.56131 0.13656 0.0
C241 C 0.69441 0.54911 0.16007 0.0
C242 C 0.64642 0.52287 0.16893 0.0
C243 C 0.60717 0.50747 0.15434 0.0
H244 H 0.45689 0.48309 0.1451 0.0
H245 H 0.37439 0.46853 0.15225 0.0
H246 H 0.33045 0.38961 0.08847 0.0
H247 H 0.41247 0.40446 0.08117 0.0
H248 H 0.4934 0.467 0.03987 0.0
H249 H 0.51631 0.47944 -0.00064 0.0
H250 H 0.65975 0.50599 0.0148 0.0
H251 H 0.6373 0.49542 0.05567 0.0
H252 H 0.67104 0.55517 0.10401 0.0
H253 H 0.73831 0.58054 0.1289 0.0
H254 H 0.63926 0.51309 0.18699 0.0
H255 H 0.57067 0.48597 0.16145 0.0
N256 N 0.52829 0.4799 0.12134 0.0
N257 N 0.50435 0.461 0.08309 0.0
N258 N 0.58615 0.49614 0.09154 0.0
C259 C 0.49254 0.46148 0.1057 0.0
C260 C 0.55096 0.47813 0.07587 0.0
C261 C 0.57535 0.4972 0.11425 0.0
C262 C 0.44148 0.44572 0.11238 0.0
C263 C 0.42939 0.46179 0.13286 0.0
C264 C 0.38211 0.45337 0.13697 0.0
C265 C 0.34619 0.4286 0.12071 0.0
C266 C 0.35761 0.40971 0.10106 0.0
C267 C 0.40466 0.41817 0.09694 0.0
C268 C 0.56362 0.48058 0.05105 0.0
C269 C 0.52969 0.47494 0.03467 0.0
C270 C 0.54278 0.48177 0.01134 0.0
C271 C 0.58995 0.49376 0.00376 0.0
C272 C 0.62337 0.49756 0.02008 0.0
C273 C 0.61041 0.49127 0.04349 0.0
C274 C 0.61536 0.51771 0.13063 0.0
C275 C 0.66322 0.54598 0.12211 0.0
H276 H 0.15779 0.44723 0.11618 0.0
H277 H 0.14804 0.41049 0.18806 0.0
H278 H 0.21888 0.39956 0.18321 0.0
H279 H 0.28753 0.40697 0.15915 0.0
H280 H 0.29809 0.44592 0.0875 0.0
H281 H 0.22289 0.44889 0.09157 0.0
C282 C 0.17077 0.43607 0.13067 0.0
C283 C 0.14807 0.42992 0.15243 0.0
C284 C 0.21191 0.43058 0.12783 0.0
C285 C 0.16512 0.41551 0.17111 0.0
C286 C 0.20572 0.40947 0.16839 0.0
C287 C 0.27319 0.4159 0.14445 0.0
C288 C 0.29841 0.42629 0.1231 0.0
C289 C 0.23011 0.41806 0.14694 0.0
C290 C 0.27912 0.43723 0.10408 0.0
C291 C 0.23626 0.43926 0.10641 0.0
H292 H 0.72946 0.28325 0.53852 0.0
H293 H 0.80438 0.2154 0.50554 0.0
H294 H 0.87762 0.2945 0.50094 0.0
H295 H 0.91236 0.38308 0.4979 0.0
H296 H 0.83352 0.45026 0.52718 0.0
H297 H 0.7701 0.37163 0.54194 0.0
C298 C 0.76234 0.28563 0.53102 0.0
C299 C 0.76139 0.2439 0.52192 0.0
C300 C 0.80334 0.33138 0.5274 0.0
C301 C 0.80421 0.24723 0.51245 0.0
C302 C 0.84594 0.29251 0.50963 0.0
C303 C 0.88221 0.38062 0.50831 0.0
C304 C 0.87712 0.422 0.51133 0.0
C305 C 0.84487 0.33498 0.51577 0.0
C306 C 0.83779 0.41861 0.52459 0.0
C307 C 0.80147 0.37367 0.53289 0.0
H308 H 0.69589 0.75041 0.78845 0.0
H309 H 0.64418 0.74461 0.8585 0.0
H310 H 0.64497 0.82119 0.8531 0.0
H311 H 0.64807 0.88255 0.82681 0.0
H312 H 0.70158 0.89015 0.75695 0.0
H313 H 0.71262 0.82047 0.76399 0.0
C314 C 0.6859 0.76657 0.80264 0.0
C315 C 0.66922 0.74162 0.82367 0.0
C316 C 0.68602 0.81056 0.79937 0.0
C317 C 0.65669 0.76298 0.84202 0.0
C318 C 0.65696 0.80671 0.83895 0.0
C319 C 0.66355 0.87 0.81332 0.0
C320 C 0.6727 0.89076 0.79123 0.0
C321 C 0.66977 0.82985 0.81745 0.0
C322 C 0.69279 0.87387 0.77395 0.0
C323 C 0.69927 0.83408 0.77796 0.0
H324 H 0.86234 0.52986 0.20155 0.0
H325 H 0.94575 0.66407 0.1639 0.0
H326 H 0.87268 0.67033 0.15918 0.0
H327 H 0.78406 0.62962 0.15928 0.0
H328 H 0.70018 0.48926 0.19196 0.0
H329 H 0.77408 0.49436 0.20599 0.0
C330 C 0.86468 0.5612 0.19292 0.0
C331 C 0.90904 0.59624 0.18285 0.0
C332 C 0.82216 0.56313 0.18923 0.0
C333 C 0.91178 0.63655 0.17163 0.0
C334 C 0.87 0.63997 0.16884 0.0
C335 C 0.78188 0.60042 0.16975 0.0
C336 C 0.73667 0.55859 0.17402 0.0
C337 C 0.82472 0.60217 0.17652 0.0
C338 C 0.73435 0.52188 0.1883 0.0
C339 C 0.77675 0.52447 0.19611 0.0
H340 H 0.4102 0.93203 0.43679 0.0
H341 H 0.34304 1.00225 0.47474 0.0
H342 H 0.26291 0.93294 0.46817 0.0
H343 H 0.21252 0.84975 0.45425 0.0
H344 H 0.27953 0.77909 0.41664 0.0
H345 H 0.35926 0.85113 0.42046 0.0
C346 C 0.37793 0.93241 0.44327 0.0
C347 C 0.38231 0.97186 0.45632 0.0
C348 C 0.33211 0.89213 0.43977 0.0
C349 C 0.3404 0.97212 0.46465 0.0
C350 C 0.29465 0.93242 0.46103 0.0
C351 C 0.24467 0.85027 0.44694 0.0
C352 C 0.24048 0.80925 0.43543 0.0
C353 C 0.29018 0.89175 0.44914 0.0
C354 C 0.28209 0.81042 0.4256 0.0
C355 C 0.32758 0.85149 0.42779 0.0
H356 H 0.55333 0.34708 0.86415 0.0
H357 H 0.43194 0.31232 0.82145 0.0
H358 H 0.42019 0.23066 0.81537 0.0
H359 H 0.45467 0.17644 0.81588 0.0
H360 H 0.58376 0.21702 0.8538 0.0
H361 H 0.5812 0.28798 0.86883 0.0
C362 C 0.5234 0.32111 0.85408 0.0
C363 C 0.49385 0.33567 0.843 0.0
C364 C 0.51869 0.27536 0.84962 0.0
C365 C 0.45527 0.30186 0.83 0.0
C366 C 0.44879 0.25534 0.82641 0.0
C367 C 0.48189 0.20048 0.8277 0.0
C368 C 0.5201 0.1921 0.83319 0.0
C369 C 0.48194 0.24278 0.83511 0.0
C370 C 0.55406 0.22258 0.84916 0.0
C371 C 0.55295 0.26357 0.85757 0.0
H372 H 0.52429 0.92525 0.48573 0.0
H373 H 0.65613 0.01807 0.52107 0.0
H374 H 0.66459 0.94807 0.53062 0.0
H375 H 0.63399 0.86022 0.53014 0.0
H376 H 0.50192 0.76629 0.49547 0.0
H377 H 0.49492 0.83678 0.48418 0.0
C378 C 0.55501 0.93031 0.49544 0.0
C379 C 0.58935 0.97737 0.50269 0.0
C380 C 0.55984 0.88951 0.501 0.0
C381 C 0.62894 0.9827 0.51521 0.0
C382 C 0.63389 0.9425 0.52075 0.0
C383 C 0.60351 0.85499 0.52017 0.0
C384 C 0.56838 0.80762 0.51386 0.0
C385 C 0.5994 0.8957 0.51393 0.0
C386 C 0.52979 0.80209 0.50048 0.0
C387 C 0.52554 0.84248 0.49414 0.0
H388 H 0.7728 0.60176 0.82485 0.0
H389 H 0.67667 0.44806 0.83539 0.0
H390 H 0.74536 0.4362 0.84171 0.0
H391 H 0.83207 0.46924 0.84684 0.0
H392 H 0.92986 0.62247 0.83728 0.0
H393 H 0.86179 0.63439 0.82754 0.0
C394 C 0.76698 0.56564 0.82825 0.0
C395 C 0.71928 0.52603 0.82985 0.0
C396 C 0.80709 0.55884 0.83211 0.0
C397 C 0.71267 0.47946 0.83429 0.0
C398 C 0.75206 0.47248 0.83791 0.0
C399 C 0.8386 0.50528 0.84256 0.0
C400 C 0.88606 0.54491 0.84303 0.0
C401 C 0.79929 0.51194 0.83731 0.0
C402 C 0.89381 0.59119 0.83696 0.0
C403 C 0.85477 0.5981 0.83156 0.0
H404 H 0.14787 0.69684 0.1746 0.0
H405 H 0.20702 0.60046 0.17955 0.0
H406 H 0.28776 0.66978 0.18482 0.0
H407 H 0.34188 0.75802 0.18873 0.0
H408 H 0.28383 0.85491 0.18216 0.0
H409 H 0.203 0.78562 0.17651 0.0
C410 C 0.17842 0.69101 0.17689 0.0
C411 C 0.1711 0.64329 0.17687 0.0
C412 C 0.22522 0.73131 0.17948 0.0
C413 C 0.21138 0.63662 0.1795 0.0
C414 C 0.25769 0.67633 0.18254 0.0
C415 C 0.31155 0.76397 0.18599 0.0
C416 C 0.31908 0.81177 0.18593 0.0
C417 C 0.26508 0.72386 0.18263 0.0
C418 C 0.27935 0.8187 0.18207 0.0
C419 C 0.23295 0.77899 0.17901 0.0
H420 H 0.62708 0.27935 0.49013 0.0
H421 H 0.47223 0.18414 0.49208 0.0
H422 H 0.45978 0.2538 0.49877 0.0
H423 H 0.49322 0.3416 0.5067 0.0
H424 H 0.64808 0.43648 0.50327 0.0
H425 H 0.66008 0.36746 0.49435 0.0
C426 C 0.59053 0.27379 0.49181 0.0
C427 C 0.55064 0.2263 0.49077 0.0
C428 C 0.58364 0.31413 0.49546 0.0
C429 C 0.50361 0.22011 0.49272 0.0
C430 C 0.49648 0.26 0.49668 0.0
C431 C 0.52956 0.34718 0.50377 0.0
C432 C 0.56972 0.39434 0.50573 0.0
C433 C 0.53623 0.30713 0.49848 0.0
C434 C 0.61651 0.40087 0.50167 0.0
C435 C 0.62343 0.36127 0.49673 0.0
H436 H 0.4072 0.47531 0.82909 0.0
H437 H 0.50145 0.62851 0.84029 0.0
H438 H 0.4314 0.63959 0.84703 0.0
H439 H 0.34325 0.60566 0.85157 0.0
H440 H 0.24819 0.45326 0.83957 0.0
H441 H 0.31826 0.44227 0.83102 0.0
C442 C 0.41242 0.51115 0.8329 0.0
C443 C 0.45982 0.55088 0.8343 0.0
C444 C 0.37168 0.51754 0.83659 0.0
C445 C 0.46564 0.59714 0.83905 0.0
C446 C 0.42549 0.6036 0.84298 0.0
C447 C 0.33787 0.57008 0.84695 0.0
C448 C 0.29047 0.53032 0.84632 0.0
C449 C 0.37835 0.56403 0.84206 0.0
C450 C 0.28419 0.48459 0.84001 0.0
C451 C 0.32432 0.47821 0.83529 0.0
H452 H 0.9123 0.33467 0.15729 0.0
H453 H 0.85249 0.43094 0.16374 0.0
H454 H 0.77122 0.36165 0.16791 0.0
H455 H 0.717 0.27397 0.17246 0.0
H456 H 0.77559 0.17678 0.16711 0.0
H457 H 0.85658 0.24567 0.15925 0.0
C458 C 0.88147 0.34052 0.15929 0.0
C459 C 0.88904 0.38837 0.16033 0.0
C460 C 0.83425 0.30014 0.16192 0.0
C461 C 0.8483 0.39486 0.16299 0.0
C462 C 0.80153 0.3551 0.16541 0.0
C463 C 0.74741 0.26771 0.16949 0.0
C464 C 0.73991 0.21999 0.17059 0.0
C465 C 0.79411 0.30763 0.16537 0.0
C466 C 0.77987 0.21284 0.16622 0.0
C467 C 0.82644 0.2524 0.16192 0.0
H468 H 1.00369 0.46642 0.09798 0.0
H469 H 0.11293 0.61754 0.10021 0.0
H470 H 0.13043 0.61694 0.05904 0.0
H471 H 0.11029 0.57545 0.0219 0.0
H472 H 0.99693 0.42615 0.01868 0.0
H473 H 0.98512 0.42389 0.06059 0.0
C474 C 0.03177 0.49888 0.08944 0.0
C475 C 0.05711 0.54196 0.10199 0.0
C476 C 0.04045 0.49871 0.06554 0.0
C477 C 0.09297 0.58403 0.09078 0.0
C478 C 0.10291 0.58374 0.06726 0.0
C479 C 0.08352 0.54223 0.03043 0.0
C480 C 0.05459 0.50102 0.01728 0.0
C481 C 0.07623 0.5416 0.05439 0.0
C482 C 1.01944 0.45842 0.02848 0.0
C483 C 1.01276 0.4571 0.05242 0.0
H484 H 0.54417 0.04617 0.43074 0.0
H485 H 0.65915 0.192 0.41693 0.0
H486 H 0.64536 0.17991 0.3757 0.0
H487 H 0.60269 0.12734 0.3437 0.0
H488 H 0.49244 0.97861 0.35685 0.0
H489 H 0.50094 0.99282 0.39822 0.0
C490 C 0.56538 0.07541 0.41867 0.0
C491 C 0.60211 0.12005 0.42674 0.0
C492 C 0.5581 0.06768 0.39492 0.0
C493 C 0.63059 0.15737 0.41101 0.0
C494 C 0.62273 0.15047 0.38747 0.0
C495 C 0.58085 0.09767 0.35551 0.0
C496 C 0.54726 0.05181 0.34697 0.0
C497 C 0.58706 0.10557 0.37922 0.0
C498 C 0.51831 1.01446 0.36277 0.0
C499 C 0.52341 0.02242 0.38649 0.0
H500 H 0.59893 0.599 0.766 0.0
H501 H 0.60614 0.46803 0.7534 0.0
H502 H 0.60626 0.47945 0.71215 0.0
H503 H 0.5989 0.52287 0.67984 0.0
H504 H 0.59881 0.65797 0.69107 0.0
H505 H 0.59994 0.64781 0.73254 0.0
C506 C 0.60104 0.57335 0.75417 0.0
C507 C 0.60193 0.53242 0.76281 0.0
C508 C 0.60154 0.58031 0.7302 0.0
C509 C 0.60504 0.49966 0.74727 0.0
C510 C 0.60499 0.50605 0.72362 0.0
C511 C 0.60037 0.55099 0.69112 0.0
C512 C 0.59853 0.59106 0.68197 0.0
C513 C 0.60254 0.5458 0.71491 0.0
C514 C 0.59909 0.62607 0.69736 0.0
C515 C 0.60021 0.62057 0.72118 0.0
H516 H 0.47288 0.0171 0.56408 0.0
H517 H 0.6154 0.13883 0.55071 0.0
H518 H 0.63289 0.14329 0.59168 0.0
H519 H 0.60694 0.1117 0.63135 0.0
H520 H 0.46577 0.98705 0.64378 0.0
H521 H 0.44798 0.9844 0.60301 0.0
C522 C 0.50778 0.04462 0.57016 0.0
C523 C 0.54284 0.07786 0.55459 0.0
C524 C 0.51754 0.04633 0.5935 0.0
C525 C 0.588 0.11306 0.56252 0.0
C526 C 0.59788 0.11557 0.58589 0.0
C527 C 0.5723 0.08425 0.62501 0.0
C528 C 0.53749 0.04975 0.64028 0.0
C529 C 0.56284 0.0824 0.60153 0.0
C530 C 0.4929 1.01382 0.63212 0.0
C531 C 0.48279 1.01234 0.60892 0.0
H532 H 0.67322 0.58321 0.90539 0.0
H533 H 0.53036 0.47198 0.88683 0.0
H534 H 0.51315 0.44077 0.92623 0.0
H535 H 0.53651 0.44888 0.96639 0.0
H536 H 0.67662 0.56499 0.98566 0.0
H537 H 0.69759 0.58963 0.94549 0.0
C538 C 0.63853 0.55187 0.90997 0.0
C539 C 0.60306 0.52992 0.89335 0.0
C540 C 0.62842 0.53499 0.93277 0.0
C541 C 0.55823 0.48939 0.8994 0.0
C542 C 0.54833 0.47163 0.92192 0.0
C543 C 0.57161 0.47967 0.96184 0.0
C544 C 0.6047 0.50521 0.97911 0.0
C545 C 0.58279 0.4948 0.93883 0.0
C546 C 0.65053 0.54425 0.97277 0.0
C547 C 0.66243 0.55873 0.9498 0.0
H548 H 0.03627 0.57094 0.2288 0.0
H549 H 0.95259 0.41499 0.23458 0.0
H550 H 0.92381 0.42199 0.27325 0.0
H551 H 0.92683 0.47247 0.30614 0.0
H552 H 1.01884 0.6283 0.30134 0.0
H553 H 0.03808 0.62126 0.26135 0.0
C554 C 1.01146 0.53853 0.2385 0.0
C555 C 0.99682 0.49256 0.22907 0.0
C556 C 0.99616 0.54282 0.26084 0.0
C557 C 0.96466 0.45079 0.24168 0.0
C558 C 0.94816 0.45478 0.26373 0.0
C559 C 0.95128 0.50497 0.29646 0.0
C560 C 0.97122 0.5508 0.30707 0.0
C561 C 0.96446 0.50065 0.27365 0.0
C562 C 1.00186 0.59247 0.29381 0.0
C563 C 1.01361 0.58854 0.27089 0.0
loop_
_geom_bond_atom_site_label_1
_geom_bond_atom_site_label_2
_geom_bond_distance
_geom_bond_site_symmetry_2
_ccdc_geom_bond_type
Dy0 O4 2.398 . S
Dy0 O5 2.491 . S
Dy0 O6 2.403 . S
Dy0 O7 2.664 . S
Dy0 O11 2.326 . S
Dy0 O15 2.310 . S
Dy0 O16 2.351 1_455 S
C1 O12 1.185 . S
C1 O13 1.355 . S
C2 O4 1.185 . S
C2 O5 1.355 . S
Dy3 O7 2.310 1_655 S
Dy3 O10 2.351 1_655 S
Dy3 O12 2.398 . S
Dy3 O13 2.491 . S
Dy3 O14 2.403 1_655 S
Dy3 O15 2.664 1_655 S
Dy3 O17 2.326 . S
O4 Dy0 2.398 . S
O4 C2 1.185 . S
O5 Dy0 2.491 . S
O5 C2 1.355 . S
O6 Dy0 2.403 . S
O6 C8 1.254 . S
O7 Dy0 2.664 . S
O7 Dy3 2.310 1_455 S
O7 C8 1.268 . S
C8 O6 1.254 . S
C8 O7 1.268 . S
C9 O14 1.254 . S
C9 O15 1.268 . S
O10 Dy3 2.351 1_455 S
O10 C18 1.249 . S
O11 Dy0 2.326 . S
O11 C18 1.267 . S
O12 C1 1.185 . S
O12 Dy3 2.398 . S
O13 C1 1.355 . S
O13 Dy3 2.491 . S
O14 Dy3 2.403 1_455 S
O14 C9 1.254 . S
O15 Dy0 2.310 . S
O15 Dy3 2.664 1_455 S
O15 C9 1.268 . S
O16 Dy0 2.351 1_655 S
O16 C19 1.249 . S
O17 Dy3 2.326 . S
O17 C19 1.267 . S
C18 O10 1.249 . S
C18 O11 1.267 . S
C19 O16 1.249 . S
C19 O17 1.267 . S
Dy20 O24 2.398 1_545 S
Dy20 O25 2.491 1_545 S
Dy20 O26 2.403 . S
Dy20 O27 2.664 . S
Dy20 O31 2.326 1_545 S
Dy20 O35 2.310 . S
Dy20 O36 2.352 . S
C21 O32 1.185 . S
C21 O33 1.355 . S
C22 O24 1.185 . S
C22 O25 1.355 . S
Dy23 O27 2.310 . S
Dy23 O30 2.351 1_545 S
Dy23 O32 2.398 . S
Dy23 O33 2.491 . S
Dy23 O34 2.403 . S
Dy23 O35 2.664 . S
Dy23 O37 2.326 . S
O24 Dy20 2.398 1_565 S
O24 C22 1.185 . S
O25 Dy20 2.491 1_565 S
O25 C22 1.355 . S
O26 Dy20 2.403 . S
O26 C28 1.254 . S
O27 Dy20 2.664 . S
O27 Dy23 2.310 . S
O27 C28 1.268 . S
C28 O26 1.254 . S
C28 O27 1.268 . S
C29 O34 1.254 . S
C29 O35 1.268 . S
O30 Dy23 2.351 1_565 S
O30 C38 1.249 . S
O31 Dy20 2.326 1_565 S
O31 C38 1.267 . S
O32 C21 1.185 . S
O32 Dy23 2.398 . S
O33 C21 1.355 . S
O33 Dy23 2.491 . S
O34 Dy23 2.403 . S
O34 C29 1.254 . S
O35 Dy20 2.310 . S
O35 Dy23 2.664 . S
O35 C29 1.268 . S
O36 Dy20 2.352 . S
O36 C39 1.249 . S
O37 Dy23 2.326 . S
O37 C39 1.267 . S
C38 O30 1.249 . S
C38 O31 1.267 . S
C39 O36 1.249 . S
C39 O37 1.267 . S
Dy40 O44 2.398 . S
Dy40 O45 2.491 . S
Dy40 O46 2.403 . S
Dy40 O47 2.664 . S
Dy40 O51 2.326 . S
Dy40 O55 2.310 . S
Dy40 O56 2.351 . S
C41 O52 1.185 . S
C41 O53 1.355 . S
C42 O44 1.185 . S
C42 O45 1.355 . S
Dy43 O47 2.310 . S
Dy43 O50 2.351 . S
Dy43 O52 2.398 . S
Dy43 O53 2.491 . S
Dy43 O54 2.403 . S
Dy43 O55 2.664 . S
Dy43 O57 2.326 . S
O44 Dy40 2.398 . S
O44 C42 1.185 . S
O45 Dy40 2.491 . S
O45 C42 1.355 . S
O46 Dy40 2.403 . S
O46 C48 1.254 . S
O47 Dy40 2.664 . S
O47 Dy43 2.310 . S
O47 C48 1.268 . S
C48 O46 1.254 . S
C48 O47 1.268 . S
C49 O54 1.254 . S
C49 O55 1.268 . S
O50 Dy43 2.351 . S
O50 C58 1.249 . S
O51 Dy40 2.326 . S
O51 C58 1.267 . S
O52 C41 1.185 . S
O52 Dy43 2.398 . S
O53 C41 1.355 . S
O53 Dy43 2.491 . S
O54 Dy43 2.403 . S
O54 C49 1.254 . S
O55 Dy40 2.310 . S
O55 Dy43 2.664 . S
O55 C49 1.268 . S
O56 Dy40 2.351 . S
O56 C59 1.249 . S
O57 Dy43 2.326 . S
O57 C59 1.267 . S
C58 O50 1.249 . S
C58 O51 1.267 . S
C59 O56 1.249 . S
C59 O57 1.267 . S
C60 C61 1.384 . S
C60 H73 0.947 . S
C60 C95 1.382 . S
C61 C60 1.384 . S
C61 C62 1.378 . S
C62 C61 1.378 . S
C62 C63 1.378 . S
C62 H74 0.952 . S
C63 C62 1.378 . S
C63 H75 0.950 . S
C63 C94 1.383 . S
H64 C83 0.947 . S
H65 C84 0.946 . S
H66 C86 0.953 . S
H67 C87 0.945 . S
H68 C89 0.952 . S
H69 C90 0.949 . S
H70 C92 0.950 . S
H71 C93 0.948 . S
H72 C95 0.951 . S
H73 C60 0.947 . S
H74 C62 0.952 . S
H75 C63 0.950 . S
N76 C79 1.382 . S
N76 C81 1.363 1_545 S
N77 C79 1.371 . S
N77 C80 1.372 . S
N78 C80 1.361 1_565 S
N78 C81 1.377 . S
C79 N76 1.382 . S
C79 N77 1.371 . S
C79 C82 1.480 . S
C80 N77 1.372 . S
C80 N78 1.361 1_545 S
C80 C88 1.457 . S
C81 N76 1.363 1_565 S
C81 N78 1.377 . S
C81 C94 1.479 . S
C82 C79 1.480 . S
C82 C83 1.383 . S
C82 C87 1.385 . S
C83 H64 0.947 . S
C83 C82 1.383 . S
C83 C84 1.388 . S
C84 H65 0.946 . S
C84 C83 1.388 . S
C84 C85 1.384 . S
C85 C84 1.384 . S
C85 C86 1.377 . S
C86 H66 0.953 . S
C86 C85 1.377 . S
C86 C87 1.369 . S
C87 H67 0.945 . S
C87 C82 1.385 . S
C87 C86 1.369 . S
C88 C80 1.457 . S
C88 C89 1.372 . S
C88 C93 1.364 1_545 S
C89 H68 0.952 . S
C89 C88 1.372 . S
C89 C90 1.389 . S
C90 H69 0.949 . S
C90 C89 1.389 . S
C90 C91 1.387 . S
C91 C90 1.387 . S
C91 C92 1.372 1_545 S
C92 H70 0.950 . S
C92 C91 1.372 1_565 S
C92 C93 1.379 . S
C93 H71 0.948 . S
C93 C88 1.364 1_565 S
C93 C92 1.379 . S
C94 C63 1.383 . S
C94 C81 1.479 . S
C94 C95 1.398 . S
C95 C60 1.382 . S
C95 H72 0.951 . S
C95 C94 1.398 . S
C96 C97 1.384 . S
C96 H109 0.947 . S
C96 C131 1.382 . S
C97 C96 1.384 . S
C97 C98 1.378 . S
C98 C97 1.378 . S
C98 C99 1.378 . S
C98 H110 0.952 . S
C99 C98 1.378 . S
C99 H111 0.950 . S
C99 C130 1.383 . S
H100 C119 0.947 . S
H101 C120 0.946 . S
H102 C122 0.953 . S
H103 C123 0.945 . S
H104 C125 0.952 . S
H105 C126 0.949 . S
H106 C128 0.950 . S
H107 C129 0.948 . S
H108 C131 0.951 . S
H109 C96 0.947 . S
H110 C98 0.952 . S
H111 C99 0.950 . S
N112 C115 1.382 . S
N112 C117 1.363 . S
N113 C115 1.371 . S
N113 C116 1.372 . S
N114 C116 1.361 . S
N114 C117 1.377 . S
C115 N112 1.382 . S
C115 N113 1.371 . S
C115 C118 1.480 . S
C116 N113 1.372 . S
C116 N114 1.361 . S
C116 C124 1.457 . S
C117 N112 1.363 . S
C117 N114 1.377 . S
C117 C130 1.479 . S
C118 C115 1.480 . S
C118 C119 1.383 . S
C118 C123 1.385 . S
C119 H100 0.947 . S
C119 C118 1.383 . S
C119 C120 1.388 . S
C120 H101 0.946 . S
C120 C119 1.388 . S
C120 C121 1.384 . S
C121 C120 1.384 . S
C121 C122 1.377 . S
C122 H102 0.953 . S
C122 C121 1.377 . S
C122 C123 1.369 . S
C123 H103 0.945 . S
C123 C118 1.385 . S
C123 C122 1.369 . S
C124 C116 1.457 . S
C124 C125 1.372 . S
C124 C129 1.364 . S
C125 H104 0.952 . S
C125 C124 1.372 . S
C125 C126 1.389 . S
C126 H105 0.949 . S
C126 C125 1.389 . S
C126 C127 1.387 . S
C127 C126 1.387 . S
C127 C128 1.372 . S
C128 H106 0.950 . S
C128 C127 1.372 . S
C128 C129 1.379 . S
C129 H107 0.948 . S
C129 C124 1.364 . S
C129 C128 1.379 . S
C130 C99 1.383 . S
C130 C117 1.479 . S
C130 C131 1.398 . S
C131 C96 1.382 . S
C131 H108 0.951 . S
C131 C130 1.398 . S
C132 C133 1.384 . S
C132 H145 0.947 . S
C132 C167 1.382 . S
C133 C132 1.384 . S
C133 C134 1.378 . S
C134 C133 1.378 . S
C134 C135 1.378 . S
C134 H146 0.952 . S
C135 C134 1.378 . S
C135 H147 0.950 1_655 S
C135 C166 1.383 . S
H136 C155 0.947 . S
H137 C156 0.946 . S
H138 C158 0.953 . S
H139 C159 0.945 . S
H140 C161 0.952 . S
H141 C162 0.949 . S
H142 C164 0.950 1_655 S
H143 C165 0.948 1_655 S
H144 C167 0.951 . S
H145 C132 0.947 . S
H146 C134 0.952 . S
H147 C135 0.950 1_455 S
N148 C151 1.382 . S
N148 C153 1.363 . S
N149 C151 1.371 . S
N149 C152 1.372 . S
N150 C152 1.361 . S
N150 C153 1.377 . S
C151 N148 1.382 . S
C151 N149 1.371 . S
C151 C154 1.480 . S
C152 N149 1.372 . S
C152 N150 1.361 . S
C152 C160 1.457 . S
C153 N148 1.363 . S
C153 N150 1.377 . S
C153 C166 1.479 1_455 S
C154 C151 1.480 . S
C154 C155 1.383 . S
C154 C159 1.385 . S
C155 H136 0.947 . S
C155 C154 1.383 . S
C155 C156 1.388 . S
C156 H137 0.946 . S
C156 C155 1.388 . S
C156 C157 1.384 . S
C157 C156 1.384 . S
C157 C158 1.377 . S
C158 H138 0.953 . S
C158 C157 1.377 . S
C158 C159 1.369 . S
C159 H139 0.945 . S
C159 C154 1.385 . S
C159 C158 1.369 . S
C160 C152 1.457 . S
C160 C161 1.372 . S
C160 C165 1.364 . S
C161 H140 0.952 . S
C161 C160 1.372 . S
C161 C162 1.389 . S
C162 H141 0.949 . S
C162 C161 1.389 . S
C162 C163 1.387 . S
C163 C162 1.387 . S
C163 C164 1.372 . S
C164 H142 0.950 1_455 S
C164 C163 1.372 . S
C164 C165 1.379 . S
C165 H143 0.948 1_455 S
C165 C160 1.364 . S
C165 C164 1.379 . S
C166 C135 1.383 . S
C166 C153 1.479 1_655 S
C166 C167 1.398 . S
C167 C132 1.382 . S
C167 H144 0.951 . S
C167 C166 1.398 . S
C168 C169 1.384 . S
C168 H181 0.947 . S
C168 C203 1.382 . S
C169 C168 1.384 . S
C169 C170 1.378 . S
C170 C169 1.378 . S
C170 C171 1.378 . S
C170 H182 0.952 . S
C171 C170 1.378 . S
C171 H183 0.950 . S
C171 C202 1.383 . S
H172 C191 0.947 . S
H173 C192 0.946 . S
H174 C194 0.953 . S
H175 C195 0.945 . S
H176 C197 0.952 . S
H177 C198 0.949 . S
H178 C200 0.950 . S
H179 C201 0.948 . S
H180 C203 0.951 . S
H181 C168 0.947 . S
H182 C170 0.952 . S
H183 C171 0.950 . S
N184 C187 1.382 1_455 S
N184 C189 1.363 . S
N185 C187 1.371 . S
N185 C188 1.372 1_655 S
N186 C188 1.361 . S
N186 C189 1.377 . S
C187 N184 1.382 1_655 S
C187 N185 1.371 . S
C187 C190 1.480 . S
C188 N185 1.372 1_455 S
C188 N186 1.361 . S
C188 C196 1.457 . S
C189 N184 1.363 . S
C189 N186 1.377 . S
C189 C202 1.479 . S
C190 C187 1.480 . S
C190 C191 1.383 . S
C190 C195 1.385 . S
C191 H172 0.947 . S
C191 C190 1.383 . S
C191 C192 1.388 . S
C192 H173 0.946 . S
C192 C191 1.388 . S
C192 C193 1.384 . S
C193 C192 1.384 . S
C193 C194 1.377 . S
C194 H174 0.953 . S
C194 C193 1.377 . S
C194 C195 1.369 . S
C195 H175 0.945 . S
C195 C190 1.385 . S
C195 C194 1.369 . S
C196 C188 1.457 . S
C196 C197 1.372 1_455 S
C196 C201 1.364 . S
C197 H176 0.952 . S
C197 C196 1.372 1_655 S
C197 C198 1.389 . S
C198 H177 0.949 . S
C198 C197 1.389 . S
C198 C199 1.387 1_655 S
C199 C198 1.387 1_455 S
C199 C200 1.372 . S
C200 H178 0.950 . S
C200 C199 1.372 . S
C200 C201 1.379 . S
C201 H179 0.948 . S
C201 C196 1.364 . S
C201 C200 1.379 . S
C202 C171 1.383 . S
C202 C189 1.479 . S
C202 C203 1.398 . S
C203 C168 1.382 . S
C203 H180 0.951 . S
C203 C202 1.398 . S
C204 C205 1.384 . S
C204 H217 0.947 . S
C204 C239 1.382 . S
C205 C204 1.384 . S
C205 C206 1.378 . S
C206 C205 1.378 . S
C206 C207 1.378 . S
C206 H218 0.952 . S
C207 C206 1.378 . S
C207 H219 0.950 . S
C207 C238 1.383 . S
H208 C227 0.947 1_545 S
H209 C228 0.946 . S
H210 C230 0.953 . S
H211 C231 0.945 . S
H212 C233 0.952 1_565 S
H213 C234 0.949 1_565 S
H214 C236 0.950 . S
H215 C237 0.948 . S
H216 C239 0.951 . S
H217 C204 0.947 . S
H218 C206 0.952 . S
H219 C207 0.950 . S
N220 C223 1.382 . S
N220 C225 1.363 . S
N221 C223 1.371 . S
N221 C224 1.372 . S
N222 C224 1.361 . S
N222 C225 1.377 . S
C223 N220 1.382 . S
C223 N221 1.371 . S
C223 C226 1.480 1_545 S
C224 N221 1.372 . S
C224 N222 1.361 . S
C224 C232 1.457 . S
C225 N220 1.363 . S
C225 N222 1.377 . S
C225 C238 1.479 . S
C226 C223 1.480 1_565 S
C226 C227 1.383 . S
C226 C231 1.385 . S
C227 H208 0.947 1_565 S
C227 C226 1.383 . S
C227 C228 1.388 . S
C228 H209 0.946 . S
C228 C227 1.388 . S
C228 C229 1.384 . S
C229 C228 1.384 . S
C229 C230 1.377 . S
C230 H210 0.953 . S
C230 C229 1.377 . S
C230 C231 1.369 . S
C231 H211 0.945 . S
C231 C226 1.385 . S
C231 C230 1.369 . S
C232 C224 1.457 . S
C232 C233 1.372 . S
C232 C237 1.364 . S
C233 H212 0.952 1_545 S
C233 C232 1.372 . S
C233 C234 1.389 . S
C234 H213 0.949 1_545 S
C234 C233 1.389 . S
C234 C235 1.387 . S
C235 C234 1.387 . S
C235 C236 1.372 . S
C236 H214 0.950 . S
C236 C235 1.372 . S
C236 C237 1.379 . S
C237 H215 0.948 . S
C237 C232 1.364 . S
C237 C236 1.379 . S
C238 C207 1.383 . S
C238 C225 1.479 . S
C238 C239 1.398 . S
C239 C204 1.382 . S
C239 H216 0.951 . S
C239 C238 1.398 . S
C240 C241 1.384 . S
C240 H253 0.947 . S
C240 C275 1.382 . S
C241 C240 1.384 . S
C241 C242 1.378 . S
C242 C241 1.378 . S
C242 C243 1.378 . S
C242 H254 0.952 . S
C243 C242 1.378 . S
C243 H255 0.950 . S
C243 C274 1.383 . S
H244 C263 0.947 . S
H245 C264 0.946 . S
H246 C266 0.953 . S
H247 C267 0.945 . S
H248 C269 0.952 . S
H249 C270 0.949 . S
H250 C272 0.950 . S
H251 C273 0.948 . S
H252 C275 0.951 . S
H253 C240 0.947 . S
H254 C242 0.952 . S
H255 C243 0.950 . S
N256 C259 1.382 . S
N256 C261 1.363 . S
N257 C259 1.371 . S
N257 C260 1.372 . S
N258 C260 1.361 . S
N258 C261 1.377 . S
C259 N256 1.382 . S
C259 N257 1.371 . S
C259 C262 1.480 . S
C260 N257 1.372 . S
C260 N258 1.361 . S
C260 C268 1.457 . S
C261 N256 1.363 . S
C261 N258 1.377 . S
C261 C274 1.479 . S
C262 C259 1.480 . S
C262 C263 1.383 . S
C262 C267 1.385 . S
C263 H244 0.947 . S
C263 C262 1.383 . S
C263 C264 1.388 . S
C264 H245 0.946 . S
C264 C263 1.388 . S
C264 C265 1.384 . S
C265 C264 1.384 . S
C265 C266 1.377 . S
C266 H246 0.953 . S
C266 C265 1.377 . S
C266 C267 1.369 . S
C267 H247 0.945 . S
C267 C262 1.385 . S
C267 C266 1.369 . S
C268 C260 1.457 . S
C268 C269 1.372 . S
C268 C273 1.364 . S
C269 H248 0.952 . S
C269 C268 1.372 . S
C269 C270 1.389 . S
C270 H249 0.949 . S
C270 C269 1.389 . S
C270 C271 1.387 . S
C271 C270 1.387 . S
C271 C272 1.372 . S
C272 H250 0.950 . S
C272 C271 1.372 . S
C272 C273 1.379 . S
C273 H251 0.948 . S
C273 C268 1.364 . S
C273 C272 1.379 . S
C274 C243 1.383 . S
C274 C261 1.479 . S
C274 C275 1.398 . S
C275 C240 1.382 . S
C275 H252 0.951 . S
C275 C274 1.398 . S
H276 C282 0.930 . S
H277 C285 0.930 . S
H278 C286 0.930 . S
H279 C287 0.930 . S
H280 C290 0.930 . S
H281 C291 0.930 . S
C282 H276 0.930 . S
C282 C283 1.355 . S
C282 C284 1.415 . S
C283 C282 1.355 . S
C283 C285 1.419 . S
C284 C282 1.415 . S
C284 C289 1.425 . S
C284 C291 1.409 . S
C285 H277 0.930 . S
C285 C283 1.419 . S
C285 C286 1.362 . S
C286 H278 0.930 . S
C286 C285 1.362 . S
C286 C289 1.409 . S
C287 H279 0.930 . S
C287 C288 1.355 . S
C287 C289 1.415 . S
C288 C287 1.355 . S
C288 C290 1.419 . S
C289 C284 1.425 . S
C289 C286 1.409 . S
C289 C287 1.415 . S
C290 H280 0.930 . S
C290 C288 1.419 . S
C290 C291 1.362 . S
C291 H281 0.930 . S
C291 C284 1.409 . S
C291 C290 1.362 . S
H292 C298 0.930 . S
H293 C301 0.930 . S
H294 C302 0.930 . S
H295 C303 0.930 . S
H296 C306 0.930 . S
H297 C307 0.930 . S
C298 H292 0.930 . S
C298 C299 1.355 . S
C298 C300 1.415 . S
C299 C298 1.355 . S
C299 C301 1.419 . S
C300 C298 1.415 . S
C300 C305 1.425 . S
C300 C307 1.409 . S
C301 H293 0.930 . S
C301 C299 1.419 . S
C301 C302 1.362 . S
C302 H294 0.930 . S
C302 C301 1.362 . S
C302 C305 1.409 . S
C303 H295 0.930 . S
C303 C304 1.355 . S
C303 C305 1.415 . S
C304 C303 1.355 . S
C304 C306 1.419 . S
C305 C300 1.425 . S
C305 C302 1.409 . S
C305 C303 1.415 . S
C306 H296 0.930 . S
C306 C304 1.419 . S
C306 C307 1.362 . S
C307 H297 0.930 . S
C307 C300 1.409 . S
C307 C306 1.362 . S
H308 C314 0.930 . S
H309 C317 0.930 . S
H310 C318 0.930 . S
H311 C319 0.930 . S
H312 C322 0.930 . S
H313 C323 0.930 . S
C314 H308 0.930 . S
C314 C315 1.355 . S
C314 C316 1.415 . S
C315 C314 1.355 . S
C315 C317 1.419 . S
C316 C314 1.415 . S
C316 C321 1.425 . S
C316 C323 1.409 . S
C317 H309 0.930 . S
C317 C315 1.419 . S
C317 C318 1.362 . S
C318 H310 0.930 . S
C318 C317 1.362 . S
C318 C321 1.409 . S
C319 H311 0.930 . S
C319 C320 1.355 . S
C319 C321 1.415 . S
C320 C319 1.355 . S
C320 C322 1.419 . S
C321 C316 1.425 . S
C321 C318 1.409 . S
C321 C319 1.415 . S
C322 H312 0.930 . S
C322 C320 1.419 . S
C322 C323 1.362 . S
C323 H313 0.930 . S
C323 C316 1.409 . S
C323 C322 1.362 . S
H324 C330 0.930 . S
H325 C333 0.930 . S
H326 C334 0.930 . S
H327 C335 0.930 . S
H328 C338 0.930 . S
H329 C339 0.930 . S
C330 H324 0.930 . S
C330 C331 1.355 . S
C330 C332 1.415 . S
C331 C330 1.355 . S
C331 C333 1.419 . S
C332 C330 1.415 . S
C332 C337 1.425 . S
C332 C339 1.409 . S
C333 H325 0.930 . S
C333 C331 1.419 . S
C333 C334 1.362 . S
C334 H326 0.930 . S
C334 C333 1.362 . S
C334 C337 1.409 . S
C335 H327 0.930 . S
C335 C336 1.355 . S
C335 C337 1.415 . S
C336 C335 1.355 . S
C336 C338 1.419 . S
C337 C332 1.425 . S
C337 C334 1.409 . S
C337 C335 1.415 . S
C338 H328 0.930 . S
C338 C336 1.419 . S
C338 C339 1.362 . S
C339 H329 0.930 . S
C339 C332 1.409 . S
C339 C338 1.362 . S
H340 C346 0.930 . S
H341 C349 0.930 . S
H342 C350 0.930 . S
H343 C351 0.930 . S
H344 C354 0.930 . S
H345 C355 0.930 . S
C346 H340 0.930 . S
C346 C347 1.355 . S
C346 C348 1.415 . S
C347 C346 1.355 . S
C347 C349 1.419 . S
C348 C346 1.415 . S
C348 C353 1.425 . S
C348 C355 1.409 . S
C349 H341 0.930 . S
C349 C347 1.419 . S
C349 C350 1.362 . S
C350 H342 0.930 . S
C350 C349 1.362 . S
C350 C353 1.409 . S
C351 H343 0.930 . S
C351 C352 1.355 . S
C351 C353 1.415 . S
C352 C351 1.355 . S
C352 C354 1.419 . S
C353 C348 1.425 . S
C353 C350 1.409 . S
C353 C351 1.415 . S
C354 H344 0.930 . S
C354 C352 1.419 . S
C354 C355 1.362 . S
C355 H345 0.930 . S
C355 C348 1.409 . S
C355 C354 1.362 . S
H356 C362 0.930 . S
H357 C365 0.930 . S
H358 C366 0.930 . S
H359 C367 0.930 . S
H360 C370 0.930 . S
H361 C371 0.930 . S
C362 H356 0.930 . S
C362 C363 1.355 . S
C362 C364 1.415 . S
C363 C362 1.355 . S
C363 C365 1.419 . S
C364 C362 1.415 . S
C364 C369 1.425 . S
C364 C371 1.409 . S
C365 H357 0.930 . S
C365 C363 1.419 . S
C365 C366 1.362 . S
C366 H358 0.930 . S
C366 C365 1.362 . S
C366 C369 1.409 . S
C367 H359 0.930 . S
C367 C368 1.355 . S
C367 C369 1.415 . S
C368 C367 1.355 . S
C368 C370 1.419 . S
C369 C364 1.425 . S
C369 C366 1.409 . S
C369 C367 1.415 . S
C370 H360 0.930 . S
C370 C368 1.419 . S
C370 C371 1.362 . S
C371 H361 0.930 . S
C371 C364 1.409 . S
C371 C370 1.362 . S
H372 C378 0.930 . S
H373 C381 0.930 . S
H374 C382 0.930 . S
H375 C383 0.930 . S
H376 C386 0.930 . S
H377 C387 0.930 . S
C378 H372 0.930 . S
C378 C379 1.355 . S
C378 C380 1.415 . S
C379 C378 1.355 . S
C379 C381 1.419 . S
C380 C378 1.415 . S
C380 C385 1.425 . S
C380 C387 1.409 . S
C381 H373 0.930 . S
C381 C379 1.419 . S
C381 C382 1.362 . S
C382 H374 0.930 . S
C382 C381 1.362 . S
C382 C385 1.409 . S
C383 H375 0.930 . S
C383 C384 1.355 . S
C383 C385 1.415 . S
C384 C383 1.355 . S
C384 C386 1.419 . S
C385 C380 1.425 . S
C385 C382 1.409 . S
C385 C383 1.415 . S
C386 H376 0.930 . S
C386 C384 1.419 . S
C386 C387 1.362 . S
C387 H377 0.930 . S
C387 C380 1.409 . S
C387 C386 1.362 . S
H388 C394 0.930 . S
H389 C397 0.930 . S
H390 C398 0.930 . S
H391 C399 0.930 . S
H392 C402 0.930 . S
H393 C403 0.930 . S
C394 H388 0.930 . S
C394 C395 1.355 . S
C394 C396 1.415 . S
C395 C394 1.355 . S
C395 C397 1.419 . S
C396 C394 1.415 . S
C396 C401 1.425 . S
C396 C403 1.409 . S
C397 H389 0.930 . S
C397 C395 1.419 . S
C397 C398 1.362 . S
C398 H390 0.930 . S
C398 C397 1.362 . S
C398 C401 1.409 . S
C399 H391 0.930 . S
C399 C400 1.355 . S
C399 C401 1.415 . S
C400 C399 1.355 . S
C400 C402 1.419 . S
C401 C396 1.425 . S
C401 C398 1.409 . S
C401 C399 1.415 . S
C402 H392 0.930 . S
C402 C400 1.419 . S
C402 C403 1.362 . S
C403 H393 0.930 . S
C403 C396 1.409 . S
C403 C402 1.362 . S
H404 C410 0.930 . S
H405 C413 0.930 . S
H406 C414 0.930 . S
H407 C415 0.930 . S
H408 C418 0.930 . S
H409 C419 0.930 . S
C410 H404 0.930 . S
C410 C411 1.355 . S
C410 C412 1.415 . S
C411 C410 1.355 . S
C411 C413 1.419 . S
C412 C410 1.415 . S
C412 C417 1.425 . S
C412 C419 1.409 . S
C413 H405 0.930 . S
C413 C411 1.419 . S
C413 C414 1.362 . S
C414 H406 0.930 . S
C414 C413 1.362 . S
C414 C417 1.409 . S
C415 H407 0.930 . S
C415 C416 1.355 . S
C415 C417 1.415 . S
C416 C415 1.355 . S
C416 C418 1.419 . S
C417 C412 1.425 . S
C417 C414 1.409 . S
C417 C415 1.415 . S
C418 H408 0.930 . S
C418 C416 1.419 . S
C418 C419 1.362 . S
C419 H409 0.930 . S
C419 C412 1.409 . S
C419 C418 1.362 . S
H420 C426 0.930 . S
H421 C429 0.930 . S
H422 C430 0.930 . S
H423 C431 0.930 . S
H424 C434 0.930 . S
H425 C435 0.930 . S
C426 H420 0.930 . S
C426 C427 1.355 . S
C426 C428 1.415 . S
C427 C426 1.355 . S
C427 C429 1.419 . S
C428 C426 1.415 . S
C428 C433 1.425 . S
C428 C435 1.409 . S
C429 H421 0.930 . S
C429 C427 1.419 . S
C429 C430 1.362 . S
C430 H422 0.930 . S
C430 C429 1.362 . S
C430 C433 1.409 . S
C431 H423 0.930 . S
C431 C432 1.355 . S
C431 C433 1.415 . S
C432 C431 1.355 . S
C432 C434 1.419 . S
C433 C428 1.425 . S
C433 C430 1.409 . S
C433 C431 1.415 . S
C434 H424 0.930 . S
C434 C432 1.419 . S
C434 C435 1.362 . S
C435 H425 0.930 . S
C435 C428 1.409 . S
C435 C434 1.362 . S
H436 C442 0.930 . S
H437 C445 0.930 . S
H438 C446 0.930 . S
H439 C447 0.930 . S
H440 C450 0.930 . S
H441 C451 0.930 . S
C442 H436 0.930 . S
C442 C443 1.355 . S
C442 C444 1.415 . S
C443 C442 1.355 . S
C443 C445 1.419 . S
C444 C442 1.415 . S
C444 C449 1.425 . S
C444 C451 1.409 . S
C445 H437 0.930 . S
C445 C443 1.419 . S
C445 C446 1.362 . S
C446 H438 0.930 . S
C446 C445 1.362 . S
C446 C449 1.409 . S
C447 H439 0.930 . S
C447 C448 1.355 . S
C447 C449 1.415 . S
C448 C447 1.355 . S
C448 C450 1.419 . S
C449 C444 1.425 . S
C449 C446 1.409 . S
C449 C447 1.415 . S
C450 H440 0.930 . S
C450 C448 1.419 . S
C450 C451 1.362 . S
C451 H441 0.930 . S
C451 C444 1.409 . S
C451 C450 1.362 . S
H452 C458 0.930 . S
H453 C461 0.930 . S
H454 C462 0.930 . S
H455 C463 0.930 . S
H456 C466 0.930 . S
H457 C467 0.930 . S
C458 H452 0.930 . S
C458 C459 1.355 . S
C458 C460 1.415 . S
C459 C458 1.355 . S
C459 C461 1.419 . S
C460 C458 1.415 . S
C460 C465 1.425 . S
C460 C467 1.409 . S
C461 H453 0.930 . S
C461 C459 1.419 . S
C461 C462 1.362 . S
C462 H454 0.930 . S
C462 C461 1.362 . S
C462 C465 1.409 . S
C463 H455 0.930 . S
C463 C464 1.355 . S
C463 C465 1.415 . S
C464 C463 1.355 . S
C464 C466 1.419 . S
C465 C460 1.425 . S
C465 C462 1.409 . S
C465 C463 1.415 . S
C466 H456 0.930 . S
C466 C464 1.419 . S
C466 C467 1.362 . S
C467 H457 0.930 . S
C467 C460 1.409 . S
C467 C466 1.362 . S
H468 C474 0.930 1_655 S
H469 C477 0.930 . S
H470 C478 0.930 . S
H471 C479 0.930 . S
H472 C482 0.930 . S
H473 C483 0.930 . S
C474 H468 0.930 1_455 S
C474 C475 1.355 . S
C474 C476 1.415 . S
C475 C474 1.355 . S
C475 C477 1.419 . S
C476 C474 1.415 . S
C476 C481 1.425 . S
C476 C483 1.409 1_455 S
C477 H469 0.930 . S
C477 C475 1.419 . S
C477 C478 1.362 . S
C478 H470 0.930 . S
C478 C477 1.362 . S
C478 C481 1.409 . S
C479 H471 0.930 . S
C479 C480 1.355 . S
C479 C481 1.415 . S
C480 C479 1.355 . S
C480 C482 1.419 1_455 S
C481 C476 1.425 . S
C481 C478 1.409 . S
C481 C479 1.415 . S
C482 H472 0.930 . S
C482 C480 1.419 1_655 S
C482 C483 1.362 . S
C483 H473 0.930 . S
C483 C476 1.409 1_655 S
C483 C482 1.362 . S
H484 C490 0.930 . S
H485 C493 0.930 . S
H486 C494 0.930 . S
H487 C495 0.930 . S
H488 C498 0.930 . S
H489 C499 0.930 . S
C490 H484 0.930 . S
C490 C491 1.355 1_565 S
C490 C492 1.415 1_565 S
C491 C490 1.355 1_545 S
C491 C493 1.419 . S
C492 C490 1.415 1_545 S
C492 C497 1.425 . S
C492 C499 1.409 1_545 S
C493 H485 0.930 . S
C493 C491 1.419 . S
C493 C494 1.362 . S
C494 H486 0.930 . S
C494 C493 1.362 . S
C494 C497 1.409 . S
C495 H487 0.930 . S
C495 C496 1.355 . S
C495 C497 1.415 . S
C496 C495 1.355 . S
C496 C498 1.419 1_545 S
C497 C492 1.425 . S
C497 C494 1.409 . S
C497 C495 1.415 . S
C498 H488 0.930 . S
C498 C496 1.419 1_565 S
C498 C499 1.362 . S
C499 H489 0.930 . S
C499 C492 1.409 1_565 S
C499 C498 1.362 . S
H500 C506 0.930 . S
H501 C509 0.930 . S
H502 C510 0.930 . S
H503 C511 0.930 . S
H504 C514 0.930 . S
H505 C515 0.930 . S
C506 H500 0.930 . S
C506 C507 1.355 . S
C506 C508 1.415 . S
C507 C506 1.355 . S
C507 C509 1.419 . S
C508 C506 1.415 . S
C508 C513 1.425 . S
C508 C515 1.409 . S
C509 H501 0.930 . S
C509 C507 1.419 . S
C509 C510 1.362 . S
C510 H502 0.930 . S
C510 C509 1.362 . S
C510 C513 1.409 . S
C511 H503 0.930 . S
C511 C512 1.355 . S
C511 C513 1.415 . S
C512 C511 1.355 . S
C512 C514 1.419 . S
C513 C508 1.425 . S
C513 C510 1.409 . S
C513 C511 1.415 . S
C514 H504 0.930 . S
C514 C512 1.419 . S
C514 C515 1.362 . S
C515 H505 0.930 . S
C515 C508 1.409 . S
C515 C514 1.362 . S
H516 C522 0.930 1_565 S
H517 C525 0.930 . S
H518 C526 0.930 . S
H519 C527 0.930 . S
H520 C530 0.939 . S
H521 C531 0.930 . S
C522 H516 0.930 1_545 S
C522 C523 1.355 . S
C522 C524 1.415 . S
C523 C522 1.355 . S
C523 C525 1.419 . S
C524 C522 1.415 . S
C524 C529 1.425 . S
C524 C531 1.409 1_545 S
C525 H517 0.930 . S
C525 C523 1.419 . S
C525 C526 1.362 . S
C526 H518 0.930 . S
C526 C525 1.362 . S
C526 C529 1.409 . S
C527 H519 0.930 . S
C527 C528 1.355 . S
C527 C529 1.415 . S
C528 C527 1.355 . S
C528 C530 1.408 1_545 S
C529 C524 1.425 . S
C529 C526 1.409 . S
C529 C527 1.415 . S
C530 H520 0.939 . S
C530 C528 1.408 1_565 S
C530 C531 1.364 . S
C531 H521 0.930 . S
C531 C524 1.409 1_565 S
C531 C530 1.364 . S
H532 C538 0.930 . S
H533 C541 0.930 . S
H534 C542 0.930 . S
H535 C543 0.930 . S
H536 C546 0.930 . S
H537 C547 0.930 . S
C538 H532 0.930 . S
C538 C539 1.355 . S
C538 C540 1.415 . S
C539 C538 1.355 . S
C539 C541 1.419 . S
C540 C538 1.415 . S
C540 C545 1.425 . S
C540 C547 1.409 . S
C541 H533 0.930 . S
C541 C539 1.419 . S
C541 C542 1.362 . S
C542 H534 0.930 . S
C542 C541 1.362 . S
C542 C545 1.409 . S
C543 H535 0.930 . S
C543 C544 1.355 . S
C543 C545 1.415 . S
C544 C543 1.355 . S
C544 C546 1.419 . S
C545 C540 1.425 . S
C545 C542 1.409 . S
C545 C543 1.415 . S
C546 H536 0.930 . S
C546 C544 1.419 . S
C546 C547 1.362 . S
C547 H537 0.930 . S
C547 C540 1.409 . S
C547 C546 1.362 . S
H548 C554 0.930 . S
H549 C557 0.930 . S
H550 C558 0.930 . S
H551 C559 0.930 . S
H552 C562 0.930 . S
H553 C563 0.930 . S
C554 H548 0.930 . S
C554 C555 1.355 . S
C554 C556 1.415 . S
C555 C554 1.355 . S
C555 C557 1.419 1_455 S
C556 C554 1.415 . S
C556 C561 1.425 1_455 S
C556 C563 1.409 . S
C557 H549 0.930 . S
C557 C555 1.419 1_655 S
C557 C558 1.362 . S
C558 H550 0.930 . S
C558 C557 1.362 . S
C558 C561 1.409 . S
C559 H551 0.930 . S
C559 C560 1.355 1_655 S
C559 C561 1.415 . S
C560 C559 1.355 1_455 S
C560 C562 1.419 . S
C561 C556 1.425 1_655 S
C561 C558 1.409 . S
C561 C559 1.415 . S
C562 H552 0.930 . S
C562 C560 1.419 . S
C562 C563 1.362 . S
C563 H553 0.930 . S
C563 C556 1.409 . S
C563 C562 1.362 . S
C283 C2 1.087 . S
C288 C265 1.089 . S
C299 C21 1.049 . S
C304 C193 1.036 . S
C315 C42 1.114 . S
C320 C229 1.044 . S
C331 C1 1.060 . S
C336 C241 1.023 . S
C352 C169 1.114 . S
C347 C22 1.092 . S
C368 C205 1.067 . S
C363 C41 1.029 . S
C379 C38 1.949 . S
C384 C121 1.863 . S
C395 C59 1.996 . S
C400 C133 1.957 . S
C411 C18 1.952 . S
C416 C61 1.895 . S
C432 C97 1.953 . S
C427 C39 1.993 . S
C448 C157 1.893 . S
C443 C58 1.938 . S
C459 C19 2.007 . S
C464 C85 1.935 . S
C480 C163 1.560 1_554 S
C475 C9 1.532 . S
C491 C29 1.472 . S
C496 C91 1.560 . S
C507 C49 1.472 . S
C512 C127 1.553 . S
C528 C235 1.389 . S
C523 C28 1.371 . S
C544 C271 1.390 1_556 S
C539 C48 1.382 . S
C555 C8 1.362 . S
C560 C199 1.374 . S
