# Generated by pormake.
# Topology anh, (6,3)-cn, num edge types: 1
# Building blocks:
#     Node 0, Type 0, BuildingBlock: VOLQOD_clean_sbu_1, # of connection points: 6
#     Node 1, Type 0, BuildingBlock: VOLQOD_clean_sbu_1, # of connection points: 6
#     Node 2, Type 0, BuildingBlock: VOLQOD_clean_sbu_1, # of connection points: 6
#     Node 3, Type 1, BuildingBlock: PAMTOO_clean_linker_0, # of connection points: 3
#     Node 4, Type 1, BuildingBlock: PAMTOO_clean_linker_0, # of connection points: 3
#     Node 5, Type 1, BuildingBlock: PAMTOO_clean_linker_0, # of connection points: 3
#     Node 6, Type 1, BuildingBlock: PAMTOO_clean_linker_0, # of connection points: 3
#     Node 7, Type 1, BuildingBlock: PAMTOO_clean_linker_0, # of connection points: 3
#     Node 8, Type 1, BuildingBlock: PAMTOO_clean_linker_0, # of connection points: 3
#     Edge 9, Type (0, 1), BuildingBlock: KIFKEQ_clean_linker_1, # of connection points: 2
#     Edge 10, Type (0, 1), BuildingBlock: KIFKEQ_clean_linker_1, # of connection points: 2
#     Edge 11, Type (0, 1), BuildingBlock: KIFKEQ_clean_linker_1, # of connection points: 2
#     Edge 12, Type (0, 1), BuildingBlock: KIFKEQ_clean_linker_1, # of connection points: 2
#     Edge 13, Type (0, 1), BuildingBlock: KIFKEQ_clean_linker_1, # of connection points: 2
#     Edge 14, Type (0, 1), BuildingBlock: KIFKEQ_clean_linker_1, # of connection points: 2
#     Edge 15, Type (0, 1), BuildingBlock: KIFKEQ_clean_linker_1, # of connection points: 2
#     Edge 16, Type (0, 1), BuildingBlock: KIFKEQ_clean_linker_1, # of connection points: 2
#     Edge 17, Type (0, 1), BuildingBlock: KIFKEQ_clean_linker_1, # of connection points: 2
#     Edge 18, Type (0, 1), BuildingBlock: KIFKEQ_clean_linker_1, # of connection points: 2
#     Edge 19, Type (0, 1), BuildingBlock: KIFKEQ_clean_linker_1, # of connection points: 2
#     Edge 20, Type (0, 1), BuildingBlock: KIFKEQ_clean_linker_1, # of connection points: 2
#     Edge 21, Type (0, 1), BuildingBlock: KIFKEQ_clean_linker_1, # of connection points: 2
#     Edge 22, Type (0, 1), BuildingBlock: KIFKEQ_clean_linker_1, # of connection points: 2
#     Edge 23, Type (0, 1), BuildingBlock: KIFKEQ_clean_linker_1, # of connection points: 2
#     Edge 24, Type (0, 1), BuildingBlock: KIFKEQ_clean_linker_1, # of connection points: 2
#     Edge 25, Type (0, 1), BuildingBlock: KIFKEQ_clean_linker_1, # of connection points: 2
#     Edge 26, Type (0, 1), BuildingBlock: KIFKEQ_clean_linker_1, # of connection points: 2
# Relax obj value: 0.159
# Max RMSD: 0.218
# Mean RMSD: 0.138
data_MOF--net-anh--node1-VOLQOD_clean_sbu_1--node2-PAMTOO_clean_linker_0--edge1-KIFKEQ_clean_linker_1
_symmetry_space_group_name_H-M    P1
_symmetry_Int_Tables_number       1
_symmetry_cell_setting            triclinic
loop_
_symmetry_equiv_pos_as_xyz
'x, y, z'
_cell_length_a     30.143452
_cell_length_b     30.042024
_cell_length_c     57.369181
_cell_angle_alpha  84.753698
_cell_angle_beta   92.475997
_cell_angle_gamma 120.54321
loop_
_atom_site_label
_atom_site_type_symbol
_atom_site_fract_x
_atom_site_fract_y
_atom_site_fract_z
_atom_type_partial_charge
O0 O 0.11225 0.57202 0.21113 0.0
Zn1 Zn 0.11418 0.58921 0.17623 0.0
O2 O 0.12265 0.54027 0.15929 0.0
Zn3 Zn 0.06539 0.50482 0.13811 0.0
Zn4 Zn 0.1257 0.48896 0.18176 0.0
Zn5 Zn 0.18491 0.5773 0.14034 0.0
O6 O 0.08806 0.51082 0.1049 0.0
O7 O 0.16974 0.57386 0.10578 0.0
O8 O 0.04935 0.5901 0.16603 0.0
O9 O 0.02147 0.53706 0.13735 0.0
O10 O 0.01943 0.42991 0.14942 0.0
O11 O 0.06048 0.41985 0.18066 0.0
O12 O 0.18684 0.48142 0.17521 0.0
O13 O 0.17544 0.66125 0.17074 0.0
O14 O 0.22791 0.54422 0.14704 0.0
O15 O 0.22628 0.6523 0.14704 0.0
C16 C 0.1209 0.5402 0.22384 0.0
C17 C 0.13025 0.54299 0.09445 0.0
C18 C 0.02197 0.40204 0.16693 0.0
C19 C 0.01789 0.56843 0.14954 0.0
C20 C 0.22423 0.50671 0.1608 0.0
C21 C 0.21721 0.68023 0.1592 0.0
O22 O 0.12917 0.50783 0.21485 0.0
O23 O 0.55838 0.06158 0.44325 0.0
Zn24 Zn 0.53449 0.05233 0.47666 0.0
O25 O 0.57974 0.04034 0.49846 0.0
Zn26 Zn 0.61738 0.09756 0.51774 0.0
Zn27 Zn 0.62894 0.03267 0.4809 0.0
Zn28 Zn 0.53873 0.97964 0.5195 0.0
O29 O 0.6156 0.07447 0.55186 0.0
O30 O 0.54619 0.99586 0.55338 0.0
O31 O 0.53009 0.11425 0.48492 0.0
O32 O 0.58299 0.13928 0.51551 0.0
O33 O 0.69079 0.14353 0.50692 0.0
O34 O 0.69997 0.09604 0.48221 0.0
O35 O 0.63026 0.96787 0.49285 0.0
O36 O 0.46244 0.98941 0.47837 0.0
O37 O 0.56354 0.93005 0.51744 0.0
O38 O 0.46424 0.94251 0.51025 0.0
C39 C 0.58558 0.04625 0.43407 0.0
C40 C 0.58165 0.03406 0.56358 0.0
C41 C 0.71831 0.13732 0.4928 0.0
C42 C 0.55056 0.14308 0.50179 0.0
C43 C 0.5999 0.93 0.50698 0.0
C44 C 0.44005 0.9498 0.49299 0.0
O45 O 0.61069 0.02939 0.44665 0.0
O46 O 0.53688 0.49225 0.7852 0.0
Zn47 Zn 0.51684 0.46761 0.81919 0.0
O48 O 0.57065 0.51365 0.84002 0.0
Zn49 Zn 0.54539 0.54607 0.85904 0.0
Zn50 Zn 0.62882 0.56729 0.82118 0.0
Zn51 Zn 0.59162 0.47422 0.86163 0.0
O52 O 0.55912 0.53842 0.89332 0.0
O53 O 0.57318 0.47257 0.89532 0.0
O54 O 0.44851 0.46197 0.82578 0.0
O55 O 0.4693 0.51179 0.85549 0.0
O56 O 0.57513 0.62156 0.84867 0.0
O57 O 0.63279 0.63643 0.82171 0.0
O58 O 0.69572 0.57356 0.83293 0.0
O59 O 0.50871 0.39624 0.8234 0.0
O60 O 0.66833 0.50944 0.86125 0.0
O61 O 0.56273 0.40166 0.85209 0.0
C62 C 0.58026 0.52353 0.77541 0.0
C63 C 0.56573 0.50443 0.90528 0.0
C64 C 0.6091 0.65197 0.83351 0.0
C65 C 0.43612 0.48083 0.84162 0.0
C66 C 0.70453 0.54757 0.84935 0.0
C67 C 0.52998 0.37609 0.83668 0.0
O68 O 0.61981 0.55186 0.78738 0.0
H69 H 0.70422 0.12884 0.26014 0.0
H70 H 0.54535 0.01106 0.25158 0.0
H71 H 0.64502 0.07951 0.19173 0.0
H72 H 0.54069 0.05262 0.1791 0.0
C73 C 0.5201 0.02561 0.19458 0.0
O74 O 0.55213 0.01099 0.20637 0.0
H75 H 0.50871 0.04579 0.20627 0.0
C76 C 0.67252 0.10468 0.249 0.0
C77 C 0.68053 0.10862 0.22477 0.0
C78 C 0.62384 0.06967 0.25891 0.0
C79 C 0.58316 0.03837 0.2443 0.0
C80 C 0.59093 0.04233 0.22016 0.0
C81 C 0.63939 0.0773 0.21043 0.0
H82 H 0.62358 0.63975 0.59721 0.0
H83 H 0.59124 0.48312 0.5938 0.0
H84 H 0.6054 0.57689 0.53068 0.0
H85 H 0.52255 0.46984 0.52751 0.0
C86 C 0.53422 0.45152 0.54236 0.0
O87 O 0.58455 0.48564 0.54827 0.0
H88 H 0.50794 0.44191 0.55744 0.0
C89 C 0.61805 0.60848 0.58717 0.0
C90 C 0.61688 0.6146 0.56259 0.0
C91 C 0.60868 0.56113 0.59881 0.0
C92 C 0.59855 0.52003 0.5854 0.0
C93 C 0.59699 0.52595 0.56097 0.0
C94 C 0.60682 0.57313 0.54963 0.0
H95 H 0.04022 0.58409 0.92692 0.0
H96 H 0.15721 0.55293 0.90712 0.0
H97 H 0.05713 0.56583 0.85487 0.0
H98 H 0.09358 0.4917 0.8404 0.0
C99 C 0.11596 0.49835 0.85692 0.0
O100 O 0.13311 0.54842 0.86244 0.0
H101 H 0.0902 0.46927 0.87086 0.0
C102 C 0.06054 0.57813 0.9135 0.0
C103 C 0.04418 0.57654 0.89017 0.0
C104 C 0.10146 0.56992 0.91979 0.0
C105 C 0.12615 0.56017 0.90243 0.0
C106 C 0.11035 0.55922 0.87903 0.0
C107 C 0.06989 0.56801 0.8729 0.0
H108 H 0.02839 0.44091 0.39803 0.0
H109 H 0.1379 0.60179 0.40524 0.0
H110 H 0.04873 0.50501 0.46472 0.0
H111 H 0.07806 0.61505 0.46838 0.0
C112 C 0.10711 0.63183 0.45405 0.0
O113 O 0.12276 0.5972 0.45013 0.0
H114 H 0.08913 0.63945 0.43796 0.0
C115 C 0.04685 0.47326 0.40891 0.0
C116 C 0.0328 0.46634 0.43264 0.0
C117 C 0.08403 0.52202 0.39885 0.0
C118 C 0.1087 0.56405 0.41275 0.0
C119 C 0.0965 0.55735 0.43654 0.0
C120 C 0.05851 0.50889 0.44641 0.0
H121 H 0.60972 0.95669 0.74173 0.0
H122 H 0.563 0.06986 0.74456 0.0
H123 H 0.57802 0.99153 0.80807 0.0
H124 H 0.49229 0.01349 0.81018 0.0
C125 C 0.50571 0.04483 0.79572 0.0
O126 O 0.5561 0.06134 0.79017 0.0
H127 H 0.48022 0.02881 0.78037 0.0
C128 C 0.59946 0.97901 0.75178 0.0
C129 C 0.59589 0.97005 0.77628 0.0
C130 C 0.58708 0.01445 0.74009 0.0
C131 C 0.57216 0.04194 0.75322 0.0
C132 C 0.56918 0.03375 0.77767 0.0
C133 C 0.58071 -0.00229 0.78915 0.0
H134 H 0.69571 0.5417 0.07478 0.0
H135 H 0.53805 0.49098 0.09067 0.0
H136 H 0.64734 0.52516 0.14629 0.0
H137 H 0.5348 0.43829 0.16229 0.0
C138 C 0.51861 0.44546 0.14555 0.0
O139 O 0.55187 0.49493 0.13592 0.0
H140 H 0.51328 0.41575 0.13367 0.0
C141 C 0.66621 0.53279 0.08751 0.0
C142 C 0.67834 0.53587 0.1115 0.0
C143 C 0.61579 0.51657 0.07978 0.0
C144 C 0.57707 0.50301 0.0963 0.0
C145 C 0.58872 0.50584 0.12019 0.0
C146 C 0.63903 0.52227 0.12775 0.0
H147 H 0.29688 0.53858 0.12683 0.0
H148 H 0.24098 0.44089 0.19141 0.0
H149 H 0.36236 0.51496 0.12409 0.0
H150 H 0.3071 0.41714 0.18853 0.0
H151 H 0.48127 0.45649 0.18603 0.0
H152 H 0.40526 0.46462 0.19042 0.0
H153 H 0.36783 0.43664 0.11768 0.0
H154 H 0.4439 0.42876 0.11339 0.0
C155 C 0.29847 0.51198 0.14045 0.0
C156 C 0.26375 0.49174 0.15938 0.0
C157 C 0.33575 0.49808 0.13874 0.0
C158 C 0.33951 0.4639 0.156 0.0
C159 C 0.305 0.44363 0.17501 0.0
C160 C 0.26718 0.45715 0.17661 0.0
C161 C 0.45589 0.45073 0.17122 0.0
C162 C 0.46775 0.44134 0.14946 0.0
C163 C 0.4125 0.45534 0.17371 0.0
C164 C 0.38087 0.45148 0.15436 0.0
C165 C 0.39182 0.44017 0.13283 0.0
C166 C 0.43495 0.43526 0.1304 0.0
H167 H 0.77858 0.14885 0.45586 0.0
H168 H 0.77621 0.22535 0.51568 0.0
H169 H 0.85866 0.22624 0.4425 0.0
H170 H 0.85661 0.30264 0.50226 0.0
H171 H 0.02464 0.41858 0.47695 0.0
H172 H 0.95285 0.33632 0.49329 0.0
H173 H 0.87367 0.31585 0.42717 0.0
H174 H 0.9437 0.39854 0.4111 0.0
C175 C 0.79558 0.18173 0.46641 0.0
C176 C 0.7707 0.18106 0.48674 0.0
C177 C 0.8413 0.22612 0.45867 0.0
C178 C 0.86349 0.2705 0.47124 0.0
C179 C 0.84038 0.26887 0.49228 0.0
C180 C 0.79425 0.22468 0.49989 0.0
C181 C -0.00823 0.39682 0.46593 0.0
C182 C 0.99027 0.41537 0.44263 0.0
C183 C 0.95086 0.34958 0.47528 0.0
C184 C 0.90803 0.31958 0.46141 0.0
C185 C 0.90671 0.33772 0.43812 0.0
C186 C 0.94707 0.38514 0.42889 0.0
H187 H 0.65268 0.71667 0.79416 0.0
H188 H 0.584 0.70657 0.86043 0.0
H189 H 0.65514 0.79777 0.78275 0.0
H190 H 0.58864 0.7891 0.84951 0.0
H191 H 0.5346 0.89162 0.80824 0.0
H192 H 0.54474 0.81947 0.82426 0.0
H193 H 0.6897 0.88618 0.78735 0.0
H194 H 0.67805 0.95723 0.7706 0.0
C195 C 0.63926 0.73244 0.80654 0.0
C196 C 0.61766 0.7049 0.8281 0.0
C197 C 0.64089 0.77923 0.80004 0.0
C198 C 0.62163 0.8 0.8151 0.0
C199 C 0.60267 0.77375 0.83722 0.0
C200 C 0.60035 0.72658 0.84357 0.0
C201 C 0.56896 0.89115 0.80387 0.0
C202 C 0.60539 0.92974 0.7881 0.0
C203 C 0.57499 0.84989 0.81312 0.0
C204 C 0.618 0.84665 0.80705 0.0
C205 C 0.65557 0.8867 0.79204 0.0
C206 C 0.64912 0.92757 0.78253 0.0
H207 H 0.97169 0.56633 0.10779 0.0
H208 H 0.9658 0.58964 0.18052 0.0
H209 H 0.89301 0.56924 0.10031 0.0
H210 H 0.88602 0.59176 0.17303 0.0
H211 H 0.7083 0.49693 0.15012 0.0
H212 H 0.79538 0.51732 0.16088 0.0
H213 H 0.85614 0.63 0.10129 0.0
H214 H 0.76927 0.61119 0.09087 0.0
C215 C 0.95388 0.57283 0.1221 0.0
C216 C 0.97457 0.57748 0.14475 0.0
C217 C 0.90907 0.57481 0.11778 0.0
C218 C 0.88353 0.58063 0.13611 0.0
C219 C 0.90508 0.58712 0.15864 0.0
C220 C 0.95069 0.58617 0.16288 0.0
C221 C 0.74023 0.52709 0.13965 0.0
C222 C 0.73164 0.55192 0.11943 0.0
C223 C 0.79011 0.53874 0.14584 0.0
C224 C 0.83229 0.57503 0.13184 0.0
C225 C 0.8241 0.60151 0.11225 0.0
C226 C 0.77434 0.59036 0.1062 0.0
H227 H 0.37303 0.87291 0.5243 0.0
H228 H 0.38575 0.93345 0.45211 0.0
H229 H 0.28873 0.79941 0.51637 0.0
H230 H 0.30245 0.85884 0.44387 0.0
H231 H 0.13637 0.73199 0.43772 0.0
H232 H 0.2119 0.81224 0.44877 0.0
H233 H 0.25636 0.72294 0.4973 0.0
H234 H 0.1797 0.64342 0.48696 0.0
C235 C 0.35768 0.87064 0.50675 0.0
C236 C 0.38626 0.90884 0.4888 0.0
C237 C 0.30946 0.82824 0.50213 0.0
C238 C 0.28894 0.82256 0.47938 0.0
C239 C 0.31664 0.86201 0.46166 0.0
C240 C 0.3646 0.90482 0.46636 0.0
C241 C 0.1623 0.7298 0.45083 0.0
C242 C 0.15287 0.68156 0.46118 0.0
C243 C 0.20571 0.77569 0.4571 0.0
C244 C 0.24063 0.77427 0.47383 0.0
C245 C 0.23015 0.72584 0.48459 0.0
C246 C 0.18654 0.68013 0.4785 0.0
H247 H 0.46318 0.30968 0.80542 0.0
H248 H 0.57343 0.32321 0.85918 0.0
H249 H 0.45208 0.22673 0.79672 0.0
H250 H 0.56315 0.24095 0.85009 0.0
H251 H 0.50191 0.12063 0.76729 0.0
H252 H 0.50298 0.19778 0.77844 0.0
H253 H 0.50509 0.14831 0.85145 0.0
H254 H 0.50523 0.07183 0.84007 0.0
C255 C 0.4848 0.29488 0.8155 0.0
C256 C 0.51941 0.32336 0.83292 0.0
C257 C 0.47869 0.24744 0.81039 0.0
C258 C 0.50703 0.22736 0.82257 0.0
C259 C 0.54031 0.25498 0.84053 0.0
C260 C 0.54638 0.30236 0.84566 0.0
C261 C 0.50197 0.12616 0.78569 0.0
C262 C 0.50266 0.09013 0.80285 0.0
C263 C 0.50235 0.17011 0.79212 0.0
C264 C 0.50381 0.17911 0.81586 0.0
C265 C 0.50432 0.14276 0.83302 0.0
C266 C 0.50401 0.09883 0.82656 0.0
H267 H 0.52609 0.83255 0.52161 0.0
H268 H 0.68743 0.92456 0.50292 0.0
H269 H 0.53563 0.75757 0.53173 0.0
H270 H 0.697 0.84867 0.51338 0.0
H271 H 0.68713 0.71534 0.5705 0.0
H272 H 0.68754 0.7934 0.5534 0.0
H273 H 0.55685 0.69915 0.51068 0.0
H274 H 0.55586 0.62145 0.52787 0.0
C275 C 0.5636 0.83666 0.51956 0.0
C276 C 0.60609 0.88441 0.51157 0.0
C277 C 0.56892 0.79362 0.52519 0.0
C278 C 0.61698 0.79745 0.52323 0.0
C279 C 0.65958 0.84496 0.51503 0.0
C280 C 0.65404 0.88811 0.50898 0.0
C281 C 0.65891 0.71154 0.55727 0.0
C282 C 0.62129 0.66242 0.5506 0.0
C283 C 0.65949 0.7561 0.54735 0.0
C284 C 0.62211 0.75202 0.53083 0.0
C285 C 0.58593 0.70317 0.52347 0.0
C286 C 0.58558 0.65881 0.53322 0.0
H287 H 0.74294 0.54525 0.89251 0.0
H288 H 0.78555 0.58135 0.81943 0.0
H289 H 0.82831 0.56044 0.9027 0.0
H290 H 0.8705 0.59336 0.82934 0.0
H291 H 0.03158 0.63986 0.85655 0.0
H292 H 0.95214 0.64097 0.84692 0.0
H293 H 0.87124 0.51529 0.90025 0.0
H294 H 0.95072 0.51642 0.9104 0.0
C295 C 0.77079 0.55635 0.87862 0.0
C296 C 0.75776 0.56158 0.8552 0.0
C297 C 0.8196 0.56469 0.88441 0.0
C298 C 0.85605 0.57694 0.86682 0.0
C299 C 0.84359 0.58429 0.84337 0.0
C300 C 0.79493 0.57717 0.83764 0.0
C301 C -0.00333 0.61297 0.86624 0.0
C302 C -0.00294 0.57848 0.88435 0.0
C303 C 0.95118 0.61332 0.86069 0.0
C304 C 0.90523 0.57854 0.87293 0.0
C305 C 0.90602 0.54375 0.89089 0.0
C306 C 0.95147 0.54407 0.89666 0.0
H307 H 0.30036 0.74085 0.13055 0.0
H308 H 0.22543 0.7432 0.19256 0.0
H309 H 0.37081 0.82831 0.13598 0.0
H310 H 0.29676 0.82951 0.19864 0.0
H311 H 0.41841 -0.00225 0.19809 0.0
H312 H 0.34256 0.91872 0.18625 0.0
H313 H 0.44157 0.86791 0.16113 0.0
H314 H 0.51689 0.948 0.17192 0.0
C315 C 0.2989 0.76012 0.14531 0.0
C316 C 0.25752 0.73498 0.16121 0.0
C317 C 0.33944 0.81016 0.14853 0.0
C318 C 0.33991 0.8359 0.16791 0.0
C319 C 0.29753 0.81132 0.18334 0.0
C320 C 0.25666 0.76159 0.17994 0.0
C321 C 0.42368 0.9697 0.18987 0.0
C322 C 0.4733 0.97823 0.18638 0.0
C323 C 0.38033 0.92432 0.18319 0.0
C324 C 0.38577 0.88651 0.17295 0.0
C325 C 0.4357 0.89624 0.16871 0.0
C326 C 0.47893 0.94183 0.17513 0.0
H327 H 0.5403 0.21166 0.47053 0.0
H328 H 0.52831 0.15971 0.54384 0.0
H329 H 0.53013 0.28384 0.4801 0.0
H330 H 0.51497 0.2292 0.5534 0.0
H331 H 0.57289 0.39615 0.56605 0.0
H332 H 0.56962 0.31817 0.5554 0.0
H333 H 0.47869 0.31527 0.49446 0.0
H334 H 0.4846 0.39548 0.50471 0.0
C335 C 0.53408 0.21504 0.48859 0.0
C336 C 0.53585 0.18102 0.50652 0.0
C337 C 0.52808 0.25613 0.49411 0.0
C338 C 0.52282 0.263 0.51761 0.0
C339 C 0.52069 0.22623 0.53523 0.0
C340 C 0.52789 0.18617 0.52977 0.0
C341 C 0.55248 0.3789 0.55033 0.0
C342 C 0.53002 0.40225 0.5359 0.0
C343 C 0.54995 0.33381 0.54433 0.0
C344 C 0.52366 0.31017 0.52408 0.0
C345 C 0.49987 0.33286 0.50997 0.0
C346 C 0.50302 0.37854 0.51586 0.0
H347 H 0.38588 0.46931 0.88157 0.0
H348 H 0.36663 0.46661 0.80662 0.0
H349 H 0.30359 0.46461 0.88542 0.0
H350 H 0.28484 0.46436 0.81027 0.0
H351 H 0.12419 0.43537 0.8279 0.0
H352 H 0.19617 0.4202 0.82439 0.0
H353 H 0.27969 0.52824 0.87668 0.0
H354 H 0.20791 0.54172 0.88062 0.0
C355 C 0.36364 0.46724 0.86592 0.0
C356 C 0.38271 0.46901 0.84378 0.0
C357 C 0.31671 0.46492 0.86809 0.0
C358 C 0.28832 0.46553 0.8481 0.0
C359 C 0.30576 0.4638 0.82601 0.0
C360 C 0.35255 0.46518 0.82389 0.0
C361 C 0.15817 0.45584 0.83853 0.0
C362 C 0.16091 0.49054 0.85416 0.0
C363 C 0.19928 0.44722 0.83652 0.0
C364 C 0.24358 0.47281 0.85032 0.0
C365 C 0.24581 0.50705 0.8661 0.0
C366 C 0.20481 0.51534 0.86818 0.0
H367 H 0.94091 0.34237 0.13897 0.0
H368 H -0.00079 0.34625 0.20934 0.0
H369 H 0.85994 0.2649 0.15115 0.0
H370 H 0.9178 0.2708 0.22181 0.0
H371 H 0.77314 0.11933 0.23803 0.0
H372 H 0.85797 0.18249 0.22179 0.0
H373 H 0.78746 0.24609 0.17269 0.0
H374 H 0.70287 0.18124 0.18828 0.0
C375 C 0.93659 0.32638 0.15698 0.0
C376 C 0.97634 0.35065 0.17321 0.0
C377 C 0.88999 0.28223 0.16405 0.0
C378 C 0.88176 0.26189 0.18759 0.0
C379 C 0.92264 0.28476 0.20349 0.0
C380 C 0.96948 0.32834 0.19635 0.0
C381 C 0.77606 0.14673 0.22366 0.0
C382 C 0.73172 0.14573 0.21444 0.0
C383 C 0.8246 0.18304 0.21438 0.0
C384 C 0.82987 0.21975 0.19594 0.0
C385 C 0.78509 0.21794 0.18653 0.0
C386 C 0.73655 0.18106 0.19556 0.0
H387 H 0.20137 0.62229 0.06521 0.0
H388 H 0.06453 0.47052 0.06525 0.0
H389 H 0.20165 0.62972 0.02241 0.0
H390 H 0.06534 0.47795 0.0225 0.0
H391 H 0.12437 0.64285 0.9503 0.0
H392 H 0.13787 0.63615 0.99253 0.0
H393 H 0.12229 0.48623 0.9878 0.0
H394 H 0.10924 0.49322 0.94543 0.0
C395 C 0.17175 0.59027 0.05611 0.0
C396 C 0.13273 0.54592 0.06861 0.0
C397 C 0.17187 0.59465 0.03164 0.0
C398 C 0.13355 0.55441 0.01921 0.0
C399 C 0.0956 0.50934 0.03168 0.0
C400 C 0.09496 0.50528 0.05613 0.0
C401 C 0.12463 0.60887 0.95828 0.0
C402 C 0.11575 0.56853 0.94472 0.0
C403 C 0.13258 0.60514 0.98237 0.0
C404 C 0.13095 0.56061 0.99338 0.0
C405 C 0.12348 0.52085 0.97971 0.0
C406 C 0.11639 0.52498 0.95553 0.0
H407 H 0.61982 -0.00272 0.40845 0.0
H408 H 0.55843 0.10028 0.40129 0.0
H409 H 0.6267 0.00223 0.36596 0.0
H410 H 0.5657 0.10532 0.35872 0.0
H411 H 0.65186 0.14845 0.28692 0.0
H412 H 0.64025 0.14186 0.32931 0.0
H413 H 0.56596 0.97515 0.33087 0.0
H414 H 0.57761 0.98174 0.28848 0.0
C415 C 0.60775 0.02094 0.39783 0.0
C416 C 0.58864 0.04846 0.40826 0.0
C417 C 0.61142 0.02349 0.3735 0.0
C418 C 0.59673 0.05415 0.35909 0.0
C419 C 0.5776 0.08166 0.36946 0.0
C420 C 0.57322 0.07855 0.3938 0.0
C421 C 0.63308 0.11045 0.29636 0.0
C422 C 0.61571 0.0656 0.28448 0.0
C423 C 0.62609 0.10666 0.32054 0.0
C424 C 0.60224 0.058 0.33333 0.0
C425 C 0.58474 0.01315 0.32143 0.0
C426 C 0.59109 0.01689 0.29721 0.0
H427 H 0.66854 0.57226 0.74919 0.0
H428 H 0.50275 0.48345 0.74319 0.0
H429 H 0.6766 0.5791 0.70683 0.0
H430 H 0.51074 0.49188 0.70074 0.0
H431 H 0.54171 0.47504 0.6266 0.0
H432 H 0.53656 0.46415 0.6691 0.0
H433 H 0.66324 0.62126 0.67253 0.0
H434 H 0.6705 0.63101 0.63008 0.0
C435 C 0.63375 0.55443 0.73882 0.0
C436 C 0.58497 0.52735 0.7496 0.0
C437 C 0.63839 0.55861 0.71449 0.0
C438 C 0.59435 0.5362 0.70029 0.0
C439 C 0.54554 0.50894 0.7111 0.0
C440 C 0.54092 0.50437 0.73547 0.0
C441 C 0.56917 0.50695 0.63641 0.0
C442 C 0.6066 0.55392 0.62485 0.0
C443 C 0.56567 0.50096 0.66082 0.0
C444 C 0.59925 0.5419 0.67432 0.0
C445 C 0.63706 0.58866 0.66276 0.0
C446 C 0.64081 0.59452 0.63836 0.0
H447 H 0.66047 0.0982 0.59136 0.0
H448 H 0.50609 0.96525 0.59445 0.0
H449 H 0.66244 0.09545 0.63403 0.0
H450 H 0.50823 0.9628 0.63713 0.0
H451 H 0.51276 0.01402 0.71108 0.0
H452 H 0.51187 0.0198 0.66826 0.0
H453 H 0.66191 0.03432 0.66786 0.0
H454 H 0.66287 0.02874 0.71068 0.0
C455 C 0.62696 0.0684 0.60111 0.0
C456 C 0.58311 0.03191 0.58948 0.0
C457 C 0.62823 0.06675 0.62555 0.0
C458 C 0.58546 0.02901 0.63886 0.0
C459 C 0.54156 0.99263 0.62727 0.0
C460 C 0.5405 0.99385 0.60285 0.0
C461 C 0.54574 0.01902 0.70181 0.0
C462 C 0.58789 0.02095 0.71416 0.0
C463 C 0.54503 0.02183 0.67735 0.0
C464 C 0.58673 0.0273 0.66477 0.0
C465 C 0.62937 0.03038 0.67712 0.0
C466 C 0.6298 0.0269 0.70158 0.0
H467 H 0.57255 0.57837 0.93201 0.0
H468 H 0.56251 0.42903 0.93716 0.0
H469 H 0.58066 0.58014 0.97443 0.0
H470 H 0.57034 0.43091 0.97972 0.0
H471 H 0.66766 0.59135 0.04478 0.0
H472 H 0.65109 0.58668 0.00274 0.0
H473 H 0.52132 0.43159 0.01547 0.0
H474 H 0.53788 0.43637 0.05769 0.0
C475 C 0.57158 0.54568 0.94218 0.0
C476 C 0.56714 0.50365 0.93116 0.0
C477 C 0.57646 0.54687 0.96646 0.0
C478 C 0.57632 0.50577 0.98031 0.0
C479 C 0.57024 0.46296 0.96944 0.0
C480 C 0.56605 0.46206 0.94508 0.0
C481 C 0.63554 0.55634 0.03858 0.0
C482 C 0.6041 0.51418 0.05442 0.0
C483 C 0.62585 0.55379 0.01458 0.0
C484 C 0.58492 0.50878 0.00589 0.0
C485 C 0.55327 0.46663 0.02173 0.0
C486 C 0.56251 0.46949 0.04582 0.0
H487 H 0.09809 0.45913 0.25612 0.0
H488 H 0.14157 0.62057 0.24963 0.0
H489 H 0.09216 0.45699 0.29835 0.0
H490 H 0.139 0.61974 0.29204 0.0
H491 H 0.0726 0.58608 0.36583 0.0
H492 H 0.08379 0.59182 0.32363 0.0
H493 H 0.13545 0.48069 0.33321 0.0
H494 H 0.1207 0.47286 0.37525 0.0
C495 C 0.10725 0.49445 0.26381 0.0
C496 C 0.12007 0.53994 0.24959 0.0
C497 C 0.10426 0.49342 0.2881 0.0
C498 C 0.11516 0.53823 0.29885 0.0
C499 C 0.12921 0.58411 0.28452 0.0
C500 C 0.13106 0.58478 0.26017 0.0
C501 C 0.08666 0.56327 0.35878 0.0
C502 C 0.09569 0.52897 0.3736 0.0
C503 C 0.09343 0.56668 0.3346 0.0
C504 C 0.11041 0.53657 0.32477 0.0
C505 C 0.12112 0.50356 0.33992 0.0
C506 C 0.11321 0.49934 0.36403 0.0
loop_
_geom_bond_atom_site_label_1
_geom_bond_atom_site_label_2
_geom_bond_distance
_geom_bond_site_symmetry_2
_ccdc_geom_bond_type
O0 Zn1 1.953 . S
O0 C16 1.225 . S
Zn1 O0 1.953 . S
Zn1 O2 1.949 . S
Zn1 O8 1.919 1_455 S
Zn1 O13 1.924 . S
O2 Zn1 1.949 . S
O2 Zn3 1.923 1_455 S
O2 Zn4 1.950 . S
O2 Zn5 1.945 . S
Zn3 O2 1.923 1_655 S
Zn3 O6 1.929 1_655 S
Zn3 O9 1.941 . S
Zn3 O10 1.965 . S
Zn4 O2 1.950 . S
Zn4 O11 1.938 1_455 S
Zn4 O12 1.906 . S
Zn4 O22 1.953 . S
Zn5 O2 1.945 . S
Zn5 O7 1.932 . S
Zn5 O14 1.977 . S
Zn5 O15 1.910 . S
O6 Zn3 1.929 1_455 S
O6 C17 1.242 . S
O7 Zn5 1.932 . S
O7 C17 1.307 . S
O8 Zn1 1.919 1_655 S
O8 C19 1.253 . S
O9 Zn3 1.941 . S
O9 C19 1.283 . S
O10 Zn3 1.965 . S
O10 C18 1.303 . S
O11 Zn4 1.938 1_655 S
O11 C18 1.247 . S
O12 Zn4 1.906 . S
O12 C20 1.304 . S
O13 Zn1 1.924 . S
O13 C21 1.311 . S
O14 Zn5 1.977 . S
O14 C20 1.272 . S
O15 Zn5 1.910 . S
O15 C21 1.231 . S
C16 O0 1.225 . S
C16 O22 1.298 . S
C17 O6 1.242 . S
C17 O7 1.307 . S
C18 O10 1.303 . S
C18 O11 1.247 . S
C19 O8 1.253 . S
C19 O9 1.283 . S
C20 O12 1.304 . S
C20 O14 1.272 . S
C21 O13 1.311 . S
C21 O15 1.231 . S
O22 Zn4 1.953 . S
O22 C16 1.298 . S
O23 Zn24 1.953 . S
O23 C39 1.225 . S
Zn24 O23 1.953 . S
Zn24 O25 1.949 . S
Zn24 O31 1.919 . S
Zn24 O36 1.924 1_545 S
O25 Zn24 1.949 . S
O25 Zn26 1.923 . S
O25 Zn27 1.950 . S
O25 Zn28 1.945 1_545 S
Zn26 O25 1.923 . S
Zn26 O29 1.933 . S
Zn26 O32 1.941 . S
Zn26 O33 1.965 . S
Zn27 O25 1.950 . S
Zn27 O34 1.938 . S
Zn27 O35 1.906 1_545 S
Zn27 O45 1.953 . S
Zn28 O25 1.945 1_565 S
Zn28 O30 1.932 . S
Zn28 O37 1.977 . S
Zn28 O38 1.910 . S
O29 Zn26 1.933 . S
O29 C40 1.226 . S
O30 Zn28 1.932 . S
O30 C40 1.307 1_565 S
O31 Zn24 1.919 . S
O31 C42 1.253 . S
O32 Zn26 1.941 . S
O32 C42 1.283 . S
O33 Zn26 1.965 . S
O33 C41 1.303 . S
O34 Zn27 1.938 . S
O34 C41 1.247 . S
O35 Zn27 1.906 1_565 S
O35 C43 1.304 . S
O36 Zn24 1.924 1_565 S
O36 C44 1.311 . S
O37 Zn28 1.977 . S
O37 C43 1.272 . S
O38 Zn28 1.910 . S
O38 C44 1.231 . S
C39 O23 1.225 . S
C39 O45 1.298 . S
C40 O29 1.226 . S
C40 O30 1.307 1_545 S
C41 O33 1.303 . S
C41 O34 1.247 . S
C42 O31 1.253 . S
C42 O32 1.283 . S
C43 O35 1.304 . S
C43 O37 1.272 . S
C44 O36 1.311 . S
C44 O38 1.231 . S
O45 Zn27 1.953 . S
O45 C39 1.298 . S
O46 Zn47 1.953 . S
O46 C62 1.225 . S
Zn47 O46 1.953 . S
Zn47 O48 1.949 . S
Zn47 O54 1.919 . S
Zn47 O59 1.924 . S
O48 Zn47 1.949 . S
O48 Zn49 1.923 . S
O48 Zn50 1.950 . S
O48 Zn51 1.945 . S
Zn49 O48 1.923 . S
Zn49 O52 1.933 . S
Zn49 O55 1.941 . S
Zn49 O56 1.965 . S
Zn50 O48 1.950 . S
Zn50 O57 1.938 . S
Zn50 O58 1.906 . S
Zn50 O68 1.953 . S
Zn51 O48 1.945 . S
Zn51 O53 1.932 . S
Zn51 O60 1.977 . S
Zn51 O61 1.910 . S
O52 Zn49 1.933 . S
O52 C63 1.226 . S
O53 Zn51 1.932 . S
O53 C63 1.307 . S
O54 Zn47 1.919 . S
O54 C65 1.253 . S
O55 Zn49 1.941 . S
O55 C65 1.283 . S
O56 Zn49 1.965 . S
O56 C64 1.303 . S
O57 Zn50 1.938 . S
O57 C64 1.247 . S
O58 Zn50 1.906 . S
O58 C66 1.304 . S
O59 Zn47 1.924 . S
O59 C67 1.311 . S
O60 Zn51 1.977 . S
O60 C66 1.272 . S
O61 Zn51 1.910 . S
O61 C67 1.231 . S
C62 O46 1.225 . S
C62 O68 1.298 . S
C63 O52 1.226 . S
C63 O53 1.307 . S
C64 O56 1.303 . S
C64 O57 1.247 . S
C65 O54 1.253 . S
C65 O55 1.283 . S
C66 O58 1.304 . S
C66 O60 1.272 . S
C67 O59 1.311 . S
C67 O61 1.231 . S
O68 Zn50 1.953 . S
O68 C62 1.298 . S
H69 C76 0.929 . S
H70 C79 0.930 1_565 S
H71 C81 0.929 . S
H72 C73 0.969 . S
C73 H72 0.969 . S
C73 O74 1.550 . S
C73 H75 0.973 . S
O74 C73 1.550 . S
O74 C80 1.412 1_565 S
H75 C73 0.973 . S
C76 H69 0.929 . S
C76 C77 1.400 . S
C76 C78 1.364 . S
C77 C76 1.400 . S
C77 C81 1.377 . S
C78 C76 1.364 . S
C78 C79 1.374 . S
C79 H70 0.930 1_545 S
C79 C78 1.374 . S
C79 C80 1.383 . S
C80 O74 1.412 1_545 S
C80 C79 1.383 . S
C80 C81 1.394 . S
C81 H71 0.929 . S
C81 C77 1.377 . S
C81 C80 1.394 . S
H82 C89 0.929 . S
H83 C92 0.930 . S
H84 C94 0.929 . S
H85 C86 0.969 . S
C86 H85 0.969 . S
C86 O87 1.550 . S
C86 H88 0.973 . S
O87 C86 1.550 . S
O87 C93 1.412 . S
H88 C86 0.973 . S
C89 H82 0.929 . S
C89 C90 1.400 . S
C89 C91 1.364 . S
C90 C89 1.400 . S
C90 C94 1.377 . S
C91 C89 1.364 . S
C91 C92 1.374 . S
C92 H83 0.930 . S
C92 C91 1.374 . S
C92 C93 1.383 . S
C93 O87 1.412 . S
C93 C92 1.383 . S
C93 C94 1.394 . S
C94 H84 0.929 . S
C94 C90 1.377 . S
C94 C93 1.394 . S
H95 C102 0.929 . S
H96 C105 0.930 . S
H97 C107 0.929 . S
H98 C99 0.969 . S
C99 H98 0.969 . S
C99 O100 1.550 . S
C99 H101 0.973 . S
O100 C99 1.550 . S
O100 C106 1.412 . S
H101 C99 0.973 . S
C102 H95 0.929 . S
C102 C103 1.400 . S
C102 C104 1.364 . S
C103 C102 1.400 . S
C103 C107 1.377 . S
C104 C102 1.364 . S
C104 C105 1.374 . S
C105 H96 0.930 . S
C105 C104 1.374 . S
C105 C106 1.383 . S
C106 O100 1.412 . S
C106 C105 1.383 . S
C106 C107 1.394 . S
C107 H97 0.929 . S
C107 C103 1.377 . S
C107 C106 1.394 . S
H108 C115 0.929 . S
H109 C118 0.930 . S
H110 C120 0.929 . S
H111 C112 0.969 . S
C112 H111 0.969 . S
C112 O113 1.550 . S
C112 H114 0.973 . S
O113 C112 1.550 . S
O113 C119 1.412 . S
H114 C112 0.973 . S
C115 H108 0.929 . S
C115 C116 1.400 . S
C115 C117 1.364 . S
C116 C115 1.400 . S
C116 C120 1.377 . S
C117 C115 1.364 . S
C117 C118 1.374 . S
C118 H109 0.930 . S
C118 C117 1.374 . S
C118 C119 1.383 . S
C119 O113 1.412 . S
C119 C118 1.383 . S
C119 C120 1.394 . S
C120 H110 0.929 . S
C120 C116 1.377 . S
C120 C119 1.394 . S
H121 C128 0.929 . S
H122 C131 0.930 . S
H123 C133 0.929 . S
H124 C125 0.969 . S
C125 H124 0.969 . S
C125 O126 1.550 . S
C125 H127 0.973 . S
O126 C125 1.550 . S
O126 C132 1.412 . S
H127 C125 0.973 . S
C128 H121 0.929 . S
C128 C129 1.400 . S
C128 C130 1.364 1_565 S
C129 C128 1.400 . S
C129 C133 1.377 1_565 S
C130 C128 1.364 1_545 S
C130 C131 1.374 . S
C131 H122 0.930 . S
C131 C130 1.374 . S
C131 C132 1.383 . S
C132 O126 1.412 . S
C132 C131 1.383 . S
C132 C133 1.394 . S
C133 H123 0.929 . S
C133 C129 1.377 1_545 S
C133 C132 1.394 . S
H134 C141 0.929 . S
H135 C144 0.930 . S
H136 C146 0.929 . S
H137 C138 0.969 . S
C138 H137 0.969 . S
C138 O139 1.550 . S
C138 H140 0.973 . S
O139 C138 1.550 . S
O139 C145 1.412 . S
H140 C138 0.973 . S
C141 H134 0.929 . S
C141 C142 1.400 . S
C141 C143 1.364 . S
C142 C141 1.400 . S
C142 C146 1.377 . S
C143 C141 1.364 . S
C143 C144 1.374 . S
C144 H135 0.930 . S
C144 C143 1.374 . S
C144 C145 1.383 . S
C145 O139 1.412 . S
C145 C144 1.383 . S
C145 C146 1.394 . S
C146 H136 0.929 . S
C146 C142 1.377 . S
C146 C145 1.394 . S
H147 C155 0.950 . S
H148 C160 0.950 . S
H149 C157 0.950 . S
H150 C159 0.950 . S
H151 C161 0.950 . S
H152 C163 0.950 . S
H153 C165 0.950 . S
H154 C166 0.950 . S
C155 H147 0.950 . S
C155 C156 1.386 . S
C155 C157 1.391 . S
C156 C155 1.386 . S
C156 C160 1.393 . S
C157 H149 0.950 . S
C157 C155 1.391 . S
C157 C158 1.400 . S
C158 C157 1.400 . S
C158 C159 1.398 . S
C158 C164 1.491 . S
C159 H150 0.950 . S
C159 C158 1.398 . S
C159 C160 1.391 . S
C160 H148 0.950 . S
C160 C156 1.393 . S
C160 C159 1.391 . S
C161 H151 0.950 . S
C161 C162 1.386 . S
C161 C163 1.391 . S
C162 C161 1.386 . S
C162 C166 1.393 . S
C163 H152 0.950 . S
C163 C161 1.391 . S
C163 C164 1.400 . S
C164 C158 1.491 . S
C164 C163 1.400 . S
C164 C165 1.398 . S
C165 H153 0.950 . S
C165 C164 1.398 . S
C165 C166 1.391 . S
C166 H154 0.950 . S
C166 C162 1.393 . S
C166 C165 1.391 . S
H167 C175 0.950 . S
H168 C180 0.950 . S
H169 C177 0.950 . S
H170 C179 0.950 . S
H171 C181 0.950 . S
H172 C183 0.950 . S
H173 C185 0.950 . S
H174 C186 0.950 . S
C175 H167 0.950 . S
C175 C176 1.386 . S
C175 C177 1.391 . S
C176 C175 1.386 . S
C176 C180 1.393 . S
C177 H169 0.950 . S
C177 C175 1.391 . S
C177 C178 1.400 . S
C178 C177 1.400 . S
C178 C179 1.398 . S
C178 C184 1.491 . S
C179 H170 0.950 . S
C179 C178 1.398 . S
C179 C180 1.391 . S
C180 H168 0.950 . S
C180 C176 1.393 . S
C180 C179 1.391 . S
C181 H171 0.950 . S
C181 C182 1.385 . S
C181 C183 1.391 1_455 S
C182 C181 1.385 . S
C182 C186 1.394 1_455 S
C183 H172 0.950 . S
C183 C181 1.391 1_655 S
C183 C184 1.400 . S
C184 C178 1.491 . S
C184 C183 1.400 . S
C184 C185 1.398 . S
C185 H173 0.950 . S
C185 C184 1.398 . S
C185 C186 1.391 . S
C186 H174 0.950 . S
C186 C182 1.394 1_655 S
C186 C185 1.391 . S
H187 C195 0.950 . S
H188 C200 0.950 . S
H189 C197 0.950 . S
H190 C199 0.950 . S
H191 C201 0.950 . S
H192 C203 0.950 . S
H193 C205 0.950 . S
H194 C206 0.950 . S
C195 H187 0.950 . S
C195 C196 1.386 . S
C195 C197 1.391 . S
C196 C195 1.386 . S
C196 C200 1.393 . S
C197 H189 0.950 . S
C197 C195 1.391 . S
C197 C198 1.400 . S
C198 C197 1.400 . S
C198 C199 1.398 . S
C198 C204 1.491 . S
C199 H190 0.950 . S
C199 C198 1.398 . S
C199 C200 1.391 . S
C200 H188 0.950 . S
C200 C196 1.393 . S
C200 C199 1.391 . S
C201 H191 0.950 . S
C201 C202 1.386 . S
C201 C203 1.391 . S
C202 C201 1.386 . S
C202 C206 1.393 . S
C203 H192 0.950 . S
C203 C201 1.391 . S
C203 C204 1.400 . S
C204 C198 1.491 . S
C204 C203 1.400 . S
C204 C205 1.398 . S
C205 H193 0.950 . S
C205 C204 1.398 . S
C205 C206 1.391 . S
C206 H194 0.950 . S
C206 C202 1.393 . S
C206 C205 1.391 . S
H207 C215 0.950 . S
H208 C220 0.950 . S
H209 C217 0.950 . S
H210 C219 0.950 . S
H211 C221 0.950 . S
H212 C223 0.950 . S
H213 C225 0.950 . S
H214 C226 0.950 . S
C215 H207 0.950 . S
C215 C216 1.386 . S
C215 C217 1.391 . S
C216 C215 1.386 . S
C216 C220 1.393 . S
C217 H209 0.950 . S
C217 C215 1.391 . S
C217 C218 1.400 . S
C218 C217 1.400 . S
C218 C219 1.398 . S
C218 C224 1.491 . S
C219 H210 0.950 . S
C219 C218 1.398 . S
C219 C220 1.391 . S
C220 H208 0.950 . S
C220 C216 1.393 . S
C220 C219 1.391 . S
C221 H211 0.950 . S
C221 C222 1.386 . S
C221 C223 1.391 . S
C222 C221 1.386 . S
C222 C226 1.393 . S
C223 H212 0.950 . S
C223 C221 1.391 . S
C223 C224 1.400 . S
C224 C218 1.491 . S
C224 C223 1.400 . S
C224 C225 1.398 . S
C225 H213 0.950 . S
C225 C224 1.398 . S
C225 C226 1.391 . S
C226 H214 0.950 . S
C226 C222 1.393 . S
C226 C225 1.391 . S
H227 C235 0.950 . S
H228 C240 0.950 . S
H229 C237 0.950 . S
H230 C239 0.950 . S
H231 C241 0.950 . S
H232 C243 0.950 . S
H233 C245 0.950 . S
H234 C246 0.950 . S
C235 H227 0.950 . S
C235 C236 1.386 . S
C235 C237 1.391 . S
C236 C235 1.386 . S
C236 C240 1.393 . S
C237 H229 0.950 . S
C237 C235 1.391 . S
C237 C238 1.400 . S
C238 C237 1.400 . S
C238 C239 1.398 . S
C238 C244 1.491 . S
C239 H230 0.950 . S
C239 C238 1.398 . S
C239 C240 1.391 . S
C240 H228 0.950 . S
C240 C236 1.393 . S
C240 C239 1.391 . S
C241 H231 0.950 . S
C241 C242 1.386 . S
C241 C243 1.391 . S
C242 C241 1.386 . S
C242 C246 1.393 . S
C243 H232 0.950 . S
C243 C241 1.391 . S
C243 C244 1.400 . S
C244 C238 1.491 . S
C244 C243 1.400 . S
C244 C245 1.398 . S
C245 H233 0.950 . S
C245 C244 1.398 . S
C245 C246 1.391 . S
C246 H234 0.950 . S
C246 C242 1.393 . S
C246 C245 1.391 . S
H247 C255 0.950 . S
H248 C260 0.950 . S
H249 C257 0.950 . S
H250 C259 0.950 . S
H251 C261 0.950 . S
H252 C263 0.950 . S
H253 C265 0.950 . S
H254 C266 0.950 . S
C255 H247 0.950 . S
C255 C256 1.386 . S
C255 C257 1.391 . S
C256 C255 1.386 . S
C256 C260 1.393 . S
C257 H249 0.950 . S
C257 C255 1.391 . S
C257 C258 1.400 . S
C258 C257 1.400 . S
C258 C259 1.398 . S
C258 C264 1.491 . S
C259 H250 0.950 . S
C259 C258 1.398 . S
C259 C260 1.391 . S
C260 H248 0.950 . S
C260 C256 1.393 . S
C260 C259 1.391 . S
C261 H251 0.950 . S
C261 C262 1.386 . S
C261 C263 1.391 . S
C262 C261 1.386 . S
C262 C266 1.393 . S
C263 H252 0.950 . S
C263 C261 1.391 . S
C263 C264 1.400 . S
C264 C258 1.491 . S
C264 C263 1.400 . S
C264 C265 1.398 . S
C265 H253 0.950 . S
C265 C264 1.398 . S
C265 C266 1.391 . S
C266 H254 0.950 . S
C266 C262 1.393 . S
C266 C265 1.391 . S
H267 C275 0.950 . S
H268 C280 0.950 . S
H269 C277 0.950 . S
H270 C279 0.950 . S
H271 C281 0.950 . S
H272 C283 0.950 . S
H273 C285 0.950 . S
H274 C286 0.950 . S
C275 H267 0.950 . S
C275 C276 1.386 . S
C275 C277 1.391 . S
C276 C275 1.386 . S
C276 C280 1.393 . S
C277 H269 0.950 . S
C277 C275 1.391 . S
C277 C278 1.400 . S
C278 C277 1.400 . S
C278 C279 1.398 . S
C278 C284 1.491 . S
C279 H270 0.950 . S
C279 C278 1.398 . S
C279 C280 1.391 . S
C280 H268 0.950 . S
C280 C276 1.393 . S
C280 C279 1.391 . S
C281 H271 0.950 . S
C281 C282 1.386 . S
C281 C283 1.391 . S
C282 C281 1.386 . S
C282 C286 1.393 . S
C283 H272 0.950 . S
C283 C281 1.391 . S
C283 C284 1.400 . S
C284 C278 1.491 . S
C284 C283 1.400 . S
C284 C285 1.398 . S
C285 H273 0.950 . S
C285 C284 1.398 . S
C285 C286 1.391 . S
C286 H274 0.950 . S
C286 C282 1.393 . S
C286 C285 1.391 . S
H287 C295 0.950 . S
H288 C300 0.950 . S
H289 C297 0.950 . S
H290 C299 0.950 . S
H291 C301 0.950 . S
H292 C303 0.950 . S
H293 C305 0.950 . S
H294 C306 0.950 . S
C295 H287 0.950 . S
C295 C296 1.386 . S
C295 C297 1.391 . S
C296 C295 1.386 . S
C296 C300 1.393 . S
C297 H289 0.950 . S
C297 C295 1.391 . S
C297 C298 1.400 . S
C298 C297 1.400 . S
C298 C299 1.398 . S
C298 C304 1.491 . S
C299 H290 0.950 . S
C299 C298 1.398 . S
C299 C300 1.391 . S
C300 H288 0.950 . S
C300 C296 1.393 . S
C300 C299 1.391 . S
C301 H291 0.950 . S
C301 C302 1.386 . S
C301 C303 1.391 1_455 S
C302 C301 1.386 . S
C302 C306 1.393 1_455 S
C303 H292 0.950 . S
C303 C301 1.391 1_655 S
C303 C304 1.400 . S
C304 C298 1.491 . S
C304 C303 1.400 . S
C304 C305 1.398 . S
C305 H293 0.950 . S
C305 C304 1.398 . S
C305 C306 1.391 . S
C306 H294 0.950 . S
C306 C302 1.393 1_655 S
C306 C305 1.391 . S
H307 C315 0.950 . S
H308 C320 0.950 . S
H309 C317 0.950 . S
H310 C319 0.950 . S
H311 C321 0.950 . S
H312 C323 0.950 . S
H313 C325 0.950 . S
H314 C326 0.950 . S
C315 H307 0.950 . S
C315 C316 1.386 . S
C315 C317 1.391 . S
C316 C315 1.386 . S
C316 C320 1.393 . S
C317 H309 0.950 . S
C317 C315 1.391 . S
C317 C318 1.400 . S
C318 C317 1.400 . S
C318 C319 1.398 . S
C318 C324 1.491 . S
C319 H310 0.950 . S
C319 C318 1.398 . S
C319 C320 1.391 . S
C320 H308 0.950 . S
C320 C316 1.393 . S
C320 C319 1.391 . S
C321 H311 0.950 . S
C321 C322 1.386 . S
C321 C323 1.391 . S
C322 C321 1.386 . S
C322 C326 1.393 . S
C323 H312 0.950 . S
C323 C321 1.391 . S
C323 C324 1.400 . S
C324 C318 1.491 . S
C324 C323 1.400 . S
C324 C325 1.398 . S
C325 H313 0.950 . S
C325 C324 1.398 . S
C325 C326 1.391 . S
C326 H314 0.950 . S
C326 C322 1.393 . S
C326 C325 1.391 . S
H327 C335 0.950 . S
H328 C340 0.950 . S
H329 C337 0.950 . S
H330 C339 0.950 . S
H331 C341 0.950 . S
H332 C343 0.950 . S
H333 C345 0.950 . S
H334 C346 0.950 . S
C335 H327 0.950 . S
C335 C336 1.386 . S
C335 C337 1.391 . S
C336 C335 1.386 . S
C336 C340 1.393 . S
C337 H329 0.950 . S
C337 C335 1.391 . S
C337 C338 1.400 . S
C338 C337 1.400 . S
C338 C339 1.398 . S
C338 C344 1.491 . S
C339 H330 0.950 . S
C339 C338 1.398 . S
C339 C340 1.391 . S
C340 H328 0.950 . S
C340 C336 1.393 . S
C340 C339 1.391 . S
C341 H331 0.950 . S
C341 C342 1.386 . S
C341 C343 1.391 . S
C342 C341 1.386 . S
C342 C346 1.393 . S
C343 H332 0.950 . S
C343 C341 1.391 . S
C343 C344 1.400 . S
C344 C338 1.491 . S
C344 C343 1.400 . S
C344 C345 1.398 . S
C345 H333 0.950 . S
C345 C344 1.398 . S
C345 C346 1.391 . S
C346 H334 0.950 . S
C346 C342 1.393 . S
C346 C345 1.391 . S
H347 C355 0.950 . S
H348 C360 0.950 . S
H349 C357 0.950 . S
H350 C359 0.950 . S
H351 C361 0.950 . S
H352 C363 0.950 . S
H353 C365 0.950 . S
H354 C366 0.950 . S
C355 H347 0.950 . S
C355 C356 1.386 . S
C355 C357 1.391 . S
C356 C355 1.386 . S
C356 C360 1.393 . S
C357 H349 0.950 . S
C357 C355 1.391 . S
C357 C358 1.400 . S
C358 C357 1.400 . S
C358 C359 1.398 . S
C358 C364 1.491 . S
C359 H350 0.950 . S
C359 C358 1.398 . S
C359 C360 1.391 . S
C360 H348 0.950 . S
C360 C356 1.393 . S
C360 C359 1.391 . S
C361 H351 0.950 . S
C361 C362 1.386 . S
C361 C363 1.391 . S
C362 C361 1.386 . S
C362 C366 1.393 . S
C363 H352 0.950 . S
C363 C361 1.391 . S
C363 C364 1.400 . S
C364 C358 1.491 . S
C364 C363 1.400 . S
C364 C365 1.398 . S
C365 H353 0.950 . S
C365 C364 1.398 . S
C365 C366 1.391 . S
C366 H354 0.950 . S
C366 C362 1.393 . S
C366 C365 1.391 . S
H367 C375 0.950 . S
H368 C380 0.950 . S
H369 C377 0.950 . S
H370 C379 0.950 . S
H371 C381 0.950 . S
H372 C383 0.950 . S
H373 C385 0.950 . S
H374 C386 0.950 . S
C375 H367 0.950 . S
C375 C376 1.386 . S
C375 C377 1.391 . S
C376 C375 1.386 . S
C376 C380 1.393 . S
C377 H369 0.950 . S
C377 C375 1.391 . S
C377 C378 1.400 . S
C378 C377 1.400 . S
C378 C379 1.398 . S
C378 C384 1.491 . S
C379 H370 0.950 . S
C379 C378 1.398 . S
C379 C380 1.391 . S
C380 H368 0.950 . S
C380 C376 1.393 . S
C380 C379 1.391 . S
C381 H371 0.950 . S
C381 C382 1.386 . S
C381 C383 1.391 . S
C382 C381 1.386 . S
C382 C386 1.393 . S
C383 H372 0.950 . S
C383 C381 1.391 . S
C383 C384 1.400 . S
C384 C378 1.491 . S
C384 C383 1.400 . S
C384 C385 1.398 . S
C385 H373 0.950 . S
C385 C384 1.398 . S
C385 C386 1.391 . S
C386 H374 0.950 . S
C386 C382 1.393 . S
C386 C385 1.391 . S
H387 C395 0.950 . S
H388 C400 0.950 . S
H389 C397 0.950 . S
H390 C399 0.950 . S
H391 C401 0.950 . S
H392 C403 0.950 . S
H393 C405 0.950 1_554 S
H394 C406 0.950 . S
C395 H387 0.950 . S
C395 C396 1.386 . S
C395 C397 1.391 . S
C396 C395 1.386 . S
C396 C400 1.393 . S
C397 H389 0.950 . S
C397 C395 1.391 . S
C397 C398 1.400 . S
C398 C397 1.400 . S
C398 C399 1.398 . S
C398 C404 1.491 . S
C399 H390 0.950 . S
C399 C398 1.398 . S
C399 C400 1.391 . S
C400 H388 0.950 . S
C400 C396 1.393 . S
C400 C399 1.391 . S
C401 H391 0.950 . S
C401 C402 1.386 . S
C401 C403 1.391 . S
C402 C401 1.386 . S
C402 C406 1.393 . S
C403 H392 0.950 . S
C403 C401 1.391 . S
C403 C404 1.400 1_556 S
C404 C398 1.491 . S
C404 C403 1.400 1_554 S
C404 C405 1.398 1_554 S
C405 H393 0.950 1_556 S
C405 C404 1.398 1_556 S
C405 C406 1.391 . S
C406 H394 0.950 . S
C406 C402 1.393 . S
C406 C405 1.391 . S
H407 C415 0.950 1_565 S
H408 C420 0.950 . S
H409 C417 0.950 1_565 S
H410 C419 0.950 . S
H411 C421 0.950 . S
H412 C423 0.950 . S
H413 C425 0.950 1_565 S
H414 C426 0.950 1_565 S
C415 H407 0.950 1_545 S
C415 C416 1.386 . S
C415 C417 1.391 . S
C416 C415 1.386 . S
C416 C420 1.393 . S
C417 H409 0.950 1_545 S
C417 C415 1.391 . S
C417 C418 1.400 . S
C418 C417 1.400 . S
C418 C419 1.398 . S
C418 C424 1.491 . S
C419 H410 0.950 . S
C419 C418 1.398 . S
C419 C420 1.391 . S
C420 H408 0.950 . S
C420 C416 1.393 . S
C420 C419 1.391 . S
C421 H411 0.950 . S
C421 C422 1.386 . S
C421 C423 1.391 . S
C422 C421 1.386 . S
C422 C426 1.393 . S
C423 H412 0.950 . S
C423 C421 1.391 . S
C423 C424 1.400 . S
C424 C418 1.491 . S
C424 C423 1.400 . S
C424 C425 1.398 . S
C425 H413 0.950 1_545 S
C425 C424 1.398 . S
C425 C426 1.391 . S
C426 H414 0.950 1_545 S
C426 C422 1.393 . S
C426 C425 1.391 . S
H427 C435 0.950 . S
H428 C440 0.950 . S
H429 C437 0.950 . S
H430 C439 0.950 . S
H431 C441 0.950 . S
H432 C443 0.950 . S
H433 C445 0.950 . S
H434 C446 0.950 . S
C435 H427 0.950 . S
C435 C436 1.386 . S
C435 C437 1.391 . S
C436 C435 1.386 . S
C436 C440 1.393 . S
C437 H429 0.950 . S
C437 C435 1.391 . S
C437 C438 1.400 . S
C438 C437 1.400 . S
C438 C439 1.398 . S
C438 C444 1.491 . S
C439 H430 0.950 . S
C439 C438 1.398 . S
C439 C440 1.391 . S
C440 H428 0.950 . S
C440 C436 1.393 . S
C440 C439 1.391 . S
C441 H431 0.950 . S
C441 C442 1.386 . S
C441 C443 1.391 . S
C442 C441 1.386 . S
C442 C446 1.393 . S
C443 H432 0.950 . S
C443 C441 1.391 . S
C443 C444 1.400 . S
C444 C438 1.491 . S
C444 C443 1.400 . S
C444 C445 1.398 . S
C445 H433 0.950 . S
C445 C444 1.398 . S
C445 C446 1.391 . S
C446 H434 0.950 . S
C446 C442 1.393 . S
C446 C445 1.391 . S
H447 C455 0.950 . S
H448 C460 0.950 1_565 S
H449 C457 0.950 . S
H450 C459 0.950 1_565 S
H451 C461 0.950 1_565 S
H452 C463 0.950 1_565 S
H453 C465 0.950 . S
H454 C466 0.950 . S
C455 H447 0.950 . S
C455 C456 1.386 . S
C455 C457 1.391 . S
C456 C455 1.386 . S
C456 C460 1.393 . S
C457 H449 0.950 . S
C457 C455 1.391 . S
C457 C458 1.400 . S
C458 C457 1.400 . S
C458 C459 1.398 . S
C458 C464 1.491 . S
C459 H450 0.950 1_545 S
C459 C458 1.398 . S
C459 C460 1.391 . S
C460 H448 0.950 1_545 S
C460 C456 1.393 . S
C460 C459 1.391 . S
C461 H451 0.950 1_545 S
C461 C462 1.386 . S
C461 C463 1.391 . S
C462 C461 1.386 . S
C462 C466 1.393 . S
C463 H452 0.950 1_545 S
C463 C461 1.391 . S
C463 C464 1.400 . S
C464 C458 1.491 . S
C464 C463 1.400 . S
C464 C465 1.398 . S
C465 H453 0.950 . S
C465 C464 1.398 . S
C465 C466 1.391 . S
C466 H454 0.950 . S
C466 C462 1.393 . S
C466 C465 1.391 . S
H467 C475 0.950 . S
H468 C480 0.950 . S
H469 C477 0.950 . S
H470 C479 0.950 . S
H471 C481 0.950 . S
H472 C483 0.950 . S
H473 C485 0.950 1_556 S
H474 C486 0.950 . S
C475 H467 0.950 . S
C475 C476 1.386 . S
C475 C477 1.391 . S
C476 C475 1.386 . S
C476 C480 1.393 . S
C477 H469 0.950 . S
C477 C475 1.391 . S
C477 C478 1.400 . S
C478 C477 1.400 . S
C478 C479 1.398 . S
C478 C484 1.491 . S
C479 H470 0.950 . S
C479 C478 1.398 . S
C479 C480 1.391 . S
C480 H468 0.950 . S
C480 C476 1.393 . S
C480 C479 1.391 . S
C481 H471 0.950 . S
C481 C482 1.386 . S
C481 C483 1.391 . S
C482 C481 1.386 . S
C482 C486 1.393 . S
C483 H472 0.950 . S
C483 C481 1.391 . S
C483 C484 1.400 1_554 S
C484 C478 1.491 . S
C484 C483 1.400 1_556 S
C484 C485 1.398 1_556 S
C485 H473 0.950 1_554 S
C485 C484 1.398 1_554 S
C485 C486 1.391 . S
C486 H474 0.950 . S
C486 C482 1.393 . S
C486 C485 1.391 . S
H487 C495 0.950 1_655 S
H488 C500 0.950 . S
H489 C497 0.950 1_655 S
H490 C499 0.950 . S
H491 C501 0.950 . S
H492 C503 0.950 . S
H493 C505 0.950 . S
H494 C506 0.950 . S
C495 H487 0.950 1_455 S
C495 C496 1.386 . S
C495 C497 1.391 . S
C496 C495 1.386 . S
C496 C500 1.393 . S
C497 H489 0.950 1_455 S
C497 C495 1.391 . S
C497 C498 1.400 . S
C498 C497 1.400 . S
C498 C499 1.398 . S
C498 C504 1.491 . S
C499 H490 0.950 . S
C499 C498 1.398 . S
C499 C500 1.391 . S
C500 H488 0.950 . S
C500 C496 1.393 . S
C500 C499 1.391 . S
C501 H491 0.950 . S
C501 C502 1.386 . S
C501 C503 1.391 . S
C502 C501 1.386 . S
C502 C506 1.393 . S
C503 H492 0.950 . S
C503 C501 1.391 . S
C503 C504 1.400 . S
C504 C498 1.491 . S
C504 C503 1.400 . S
C504 C505 1.398 . S
C505 H493 0.950 . S
C505 C504 1.398 . S
C505 C506 1.391 . S
C506 H494 0.950 . S
C506 C502 1.393 . S
C506 C505 1.391 . S
C156 C20 1.260 . S
C162 C138 1.233 . S
C176 C41 1.293 . S
C182 C116 1.284 . S
C196 C64 1.320 . S
C202 C129 1.314 . S
C216 C19 1.216 . S
C222 C142 1.272 . S
C242 C112 1.240 . S
C236 C44 1.316 . S
C262 C125 1.252 . S
C256 C67 1.314 . S
C276 C43 1.190 . S
C282 C90 1.252 . S
C296 C66 1.187 . S
C302 C103 1.246 . S
C316 C21 1.314 . S
C322 C73 1.234 . S
C342 C86 1.244 . S
C336 C42 1.296 . S
C362 C99 1.217 . S
C356 C65 1.276 . S
C376 C18 1.264 . S
C382 C77 1.256 . S
C402 C104 1.519 . S
C396 C17 1.521 . S
C416 C39 1.526 . S
C422 C78 1.525 . S
C436 C62 1.538 . S
C442 C91 1.536 . S
C462 C130 1.507 . S
C456 C40 1.516 . S
C482 C143 1.534 . S
C476 C63 1.542 . S
C496 C16 1.520 . S
C502 C117 1.516 . S
