# Generated by pormake.
# Topology zzz, (3,6)-cn, num edge types: 1
# Building blocks:
#     Node 0, Type 0, BuildingBlock: BETDAH_clean_linker_0, # of connection points: 3
#     Node 1, Type 0, BuildingBlock: BETDAH_clean_linker_0, # of connection points: 3
#     Node 2, Type 0, BuildingBlock: BETDAH_clean_linker_0, # of connection points: 3
#     Node 3, Type 0, BuildingBlock: BETDAH_clean_linker_0, # of connection points: 3
#     Node 4, Type 0, BuildingBlock: BETDAH_clean_linker_0, # of connection points: 3
#     Node 5, Type 0, BuildingBlock: BETDAH_clean_linker_0, # of connection points: 3
#     Node 6, Type 0, BuildingBlock: BETDAH_clean_linker_0, # of connection points: 3
#     Node 7, Type 0, BuildingBlock: BETDAH_clean_linker_0, # of connection points: 3
#     Node 8, Type 1, BuildingBlock: GEDQOX_clean_sbu_0, # of connection points: 6
#     Node 9, Type 1, BuildingBlock: GEDQOX_clean_sbu_0, # of connection points: 6
#     Node 10, Type 1, BuildingBlock: GEDQOX_clean_sbu_0, # of connection points: 6
#     Node 11, Type 1, BuildingBlock: GEDQOX_clean_sbu_0, # of connection points: 6
#     Edge 12, Type (0, 1), BuildingBlock: EZIPEK_clean_linker_0, # of connection points: 2
#     Edge 13, Type (0, 1), BuildingBlock: EZIPEK_clean_linker_0, # of connection points: 2
#     Edge 14, Type (0, 1), BuildingBlock: EZIPEK_clean_linker_0, # of connection points: 2
#     Edge 15, Type (0, 1), BuildingBlock: EZIPEK_clean_linker_0, # of connection points: 2
#     Edge 16, Type (0, 1), BuildingBlock: EZIPEK_clean_linker_0, # of connection points: 2
#     Edge 17, Type (0, 1), BuildingBlock: EZIPEK_clean_linker_0, # of connection points: 2
#     Edge 18, Type (0, 1), BuildingBlock: EZIPEK_clean_linker_0, # of connection points: 2
#     Edge 19, Type (0, 1), BuildingBlock: EZIPEK_clean_linker_0, # of connection points: 2
#     Edge 20, Type (0, 1), BuildingBlock: EZIPEK_clean_linker_0, # of connection points: 2
#     Edge 21, Type (0, 1), BuildingBlock: EZIPEK_clean_linker_0, # of connection points: 2
#     Edge 22, Type (0, 1), BuildingBlock: EZIPEK_clean_linker_0, # of connection points: 2
#     Edge 23, Type (0, 1), BuildingBlock: EZIPEK_clean_linker_0, # of connection points: 2
#     Edge 24, Type (0, 1), BuildingBlock: EZIPEK_clean_linker_0, # of connection points: 2
#     Edge 25, Type (0, 1), BuildingBlock: EZIPEK_clean_linker_0, # of connection points: 2
#     Edge 26, Type (0, 1), BuildingBlock: EZIPEK_clean_linker_0, # of connection points: 2
#     Edge 27, Type (0, 1), BuildingBlock: EZIPEK_clean_linker_0, # of connection points: 2
#     Edge 28, Type (0, 1), BuildingBlock: EZIPEK_clean_linker_0, # of connection points: 2
#     Edge 29, Type (0, 1), BuildingBlock: EZIPEK_clean_linker_0, # of connection points: 2
#     Edge 30, Type (0, 1), BuildingBlock: EZIPEK_clean_linker_0, # of connection points: 2
#     Edge 31, Type (0, 1), BuildingBlock: EZIPEK_clean_linker_0, # of connection points: 2
#     Edge 32, Type (0, 1), BuildingBlock: EZIPEK_clean_linker_0, # of connection points: 2
#     Edge 33, Type (0, 1), BuildingBlock: EZIPEK_clean_linker_0, # of connection points: 2
#     Edge 34, Type (0, 1), BuildingBlock: EZIPEK_clean_linker_0, # of connection points: 2
#     Edge 35, Type (0, 1), BuildingBlock: EZIPEK_clean_linker_0, # of connection points: 2
# Relax obj value: 0.143
# Max RMSD: 0.232
# Mean RMSD: 0.081
data_MOF--net-zzz--node1-GEDQOX_clean_sbu_0--node2-BETDAH_clean_linker_0--edge1-EZIPEK_clean_linker_0
_symmetry_space_group_name_H-M    P1
_symmetry_Int_Tables_number       1
_symmetry_cell_setting            triclinic
loop_
_symmetry_equiv_pos_as_xyz
'x, y, z'
_cell_length_a     40.593435
_cell_length_b     39.753078
_cell_length_c     13.762536
_cell_angle_alpha  76.844902
_cell_angle_beta   89.313759
_cell_angle_gamma 102.71992
loop_
_atom_site_label
_atom_site_type_symbol
_atom_site_fract_x
_atom_site_fract_y
_atom_site_fract_z
_atom_type_partial_charge
H0 H 0.87967 0.54039 0.13047 0.0
H1 H 0.79827 0.55726 0.94448 0.0
H2 H 0.7874 0.55076 0.26153 0.0
C3 C 0.85378 0.54312 0.12405 0.0
C4 C 0.83596 0.54586 0.208 0.0
C5 C 0.84057 0.54649 0.02978 0.0
C6 C 0.80789 0.55238 0.01823 0.0
C7 C 0.78876 0.55416 0.10256 0.0
C8 C 0.80245 0.54962 0.19732 0.0
N9 N 0.75734 0.5643 0.09395 0.0
C10 C 0.73473 0.55907 0.02077 0.0
H11 H 0.02225 0.87141 0.21574 0.0
H12 H 0.99747 0.78689 0.06345 0.0
H13 H 0.9921 0.76393 0.38657 0.0
C14 C 0.01516 0.84318 0.21882 0.0
C15 C 0.00686 0.81983 0.31146 0.0
C16 C 0.00907 0.83186 0.13031 0.0
C17 C 1.00168 0.79557 0.13235 0.0
C18 C 0.99787 0.77057 0.22488 0.0
C19 C 0.99831 0.78286 0.31507 0.0
N20 N 0.99066 0.73329 0.22914 0.0
C21 C 1.00217 0.71714 0.15819 0.0
H22 H 0.69087 0.01036 0.18274 0.0
H23 H 0.76095 0.99146 0.97525 0.0
H24 H 0.76962 0.9586 0.29302 0.0
C25 C 0.71357 1.00155 0.1683 0.0
C26 C 0.72884 0.9846 0.24909 0.0
C27 C 0.72404 1.00317 0.06958 0.0
C28 C 0.75324 0.9914 0.05094 0.0
C29 C 0.7709 0.97691 0.13185 0.0
C30 C 0.75778 0.97232 0.23088 0.0
N31 N 0.79845 0.96172 0.11537 0.0
C32 C 0.82951 0.98115 0.06667 0.0
H33 H 0.56399 0.73229 0.51153 0.0
H34 H 0.55382 0.83631 0.37017 0.0
H35 H 0.53747 0.7989 0.69157 0.0
C36 C 0.56095 0.7581 0.5188 0.0
C37 C 0.55317 0.76276 0.61335 0.0
C38 C 0.55938 0.78391 0.43231 0.0
C39 C 0.55467 0.81691 0.43888 0.0
C40 C 0.54628 0.8228 0.53184 0.0
C41 C 0.54555 0.79546 0.61991 0.0
N42 N 0.53512 0.8542 0.53595 0.0
C43 C 0.53047 0.87958 0.45063 0.0
H44 H 0.19182 0.54315 0.7559 0.0
H45 H 0.27643 0.54015 0.94023 0.0
H46 H 0.27847 0.51231 0.65497 0.0
C47 C 0.21712 0.53876 0.76713 0.0
C48 C 0.23323 0.52746 0.69469 0.0
C49 C 0.23287 0.54451 0.85378 0.0
C50 C 0.26495 0.53736 0.87099 0.0
C51 C 0.28116 0.525 0.79947 0.0
C52 C 0.26566 0.52122 0.7105 0.0
N53 N 0.3119 0.51389 0.81617 0.0
C54 C 0.33561 0.52414 0.88198 0.0
H55 H 0.08806 0.22443 0.67761 0.0
H56 H 0.06477 0.30239 0.82103 0.0
H57 H 0.07756 0.32438 0.49901 0.0
C58 C 0.08548 0.25144 0.67225 0.0
C59 C 0.0842 0.27274 0.57816 0.0
C60 C 0.07603 0.26092 0.75846 0.0
C61 C 0.072 0.29544 0.75359 0.0
C62 C 0.07414 0.31951 0.66001 0.0
C63 C 0.07905 0.30743 0.57172 0.0
N64 N 0.06814 0.35435 0.65095 0.0
C65 C 0.06407 0.37196 0.72721 0.0
H66 H 0.39182 0.08703 0.71601 0.0
H67 H 0.30105 0.07899 0.89287 0.0
H68 H 0.31114 0.12959 0.57721 0.0
C69 C 0.36682 0.09235 0.7216 0.0
C70 C 0.35379 0.1092 0.6357 0.0
C71 C 0.34767 0.08012 0.813 0.0
C72 C 0.3153 0.08718 0.82125 0.0
C73 C 0.30231 0.10601 0.73615 0.0
C74 C 0.32154 0.11637 0.64343 0.0
N75 N 0.27125 0.11698 0.74038 0.0
C76 C 0.24231 0.10059 0.80461 0.0
H77 H 0.53385 0.36248 0.37089 0.0
H78 H 0.54078 0.25707 0.50843 0.0
H79 H 0.50915 0.28127 0.20574 0.0
C80 C 0.53125 0.33518 0.36558 0.0
C81 C 0.52179 0.32575 0.27655 0.0
C82 C 0.53709 0.31021 0.44865 0.0
C83 C 0.53489 0.27536 0.44346 0.0
C84 C 0.52444 0.2642 0.35675 0.0
C85 C 0.51757 0.28957 0.27275 0.0
N86 N 0.52044 0.22775 0.3545 0.0
C87 C 0.52452 0.20162 0.43841 0.0
Nd88 Nd 0.03481 0.04029 0.83267 0.0
Nd89 Nd 0.03815 0.04802 0.05243 0.0
C90 C 0.02112 0.02197 0.65967 0.0
C91 C 0.01884 0.98867 0.62132 0.0
C92 C 0.9934 0.95755 0.65924 0.0
C93 C 0.99057 0.92713 0.62028 0.0
C94 C 0.01296 0.92666 0.54176 0.0
C95 C 0.03866 0.95749 0.50466 0.0
C96 C 0.04151 0.98796 0.54362 0.0
C97 C 0.09906 0.04576 0.90723 0.0
C98 C 0.03067 0.97106 0.00964 0.0
C99 C 0.05203 0.07186 0.21831 0.0
C100 C 0.05834 0.10466 0.25906 0.0
C101 C 0.07636 0.13822 0.20368 0.0
C102 C 0.08157 0.16827 0.24542 0.0
C103 C 0.06904 0.16557 0.34378 0.0
C104 C 0.0511 0.13197 0.39871 0.0
C105 C 0.04581 0.10211 0.357 0.0
C106 C 0.97333 0.02256 0.99951 0.0
C107 C 0.03958 0.11856 0.8747 0.0
O108 O 0.99789 0.02153 0.72709 0.0
O109 O 0.05101 0.03939 0.67677 0.0
O110 O 0.08605 0.02429 0.85261 0.0
O111 O 0.07743 0.06277 0.92242 0.0
O112 O 0.01836 0.98452 0.9263 0.0
O113 O 0.04573 0.99094 0.0691 0.0
O114 O 0.07518 0.06752 0.15802 0.0
O115 O 0.02146 0.06021 0.19313 0.0
O116 O 0.98477 0.01302 0.0867 0.0
O117 O 0.99582 0.04683 0.94335 0.0
O118 O 0.03679 0.10341 0.97043 0.0
O119 O 0.03945 0.10096 0.80315 0.0
H120 H 0.97533 0.95668 0.71877 0.0
H121 H 0.97048 0.90399 0.65069 0.0
H122 H 0.05632 0.95818 0.44424 0.0
H123 H 0.06134 0.01122 0.51195 0.0
H124 H 0.08633 0.14128 0.1281 0.0
H125 H 0.09537 0.19371 0.2008 0.0
H126 H 0.04102 0.12884 0.4743 0.0
H127 H 0.03183 0.07677 0.40181 0.0
Nd128 Nd 0.53351 0.02626 0.86866 0.0
Nd129 Nd 0.53854 0.06463 0.0266 0.0
C130 C 0.54705 0.99001 0.73795 0.0
C131 C 0.57823 0.98739 0.68264 0.0
C132 C 0.59459 0.95941 0.71593 0.0
C133 C 0.62246 0.95609 0.65957 0.0
C134 C 0.63434 0.98039 0.56787 0.0
C135 C 0.6187 0.00884 0.53608 0.0
C136 C 0.59115 0.01233 0.59249 0.0
C137 C 0.53097 0.09619 0.79405 0.0
C138 C 0.60799 0.04867 0.95119 0.0
C139 C 0.53843 0.11 0.14128 0.0
C140 C 0.5109 0.11511 0.2061 0.0
C141 C 0.48442 0.13025 0.16407 0.0
C142 C 0.45725 0.1324 0.22473 0.0
C143 C 0.45608 0.11995 0.32903 0.0
C144 C 0.48284 0.10569 0.37154 0.0
C145 C 0.50988 0.10326 0.31086 0.0
C146 C 0.51736 0.99188 0.10697 0.0
C147 C 0.4634 0.03844 0.9493 0.0
O148 O 0.54223 0.97616 0.83434 0.0
O149 O 0.53801 0.02014 0.71336 0.0
O150 O 0.51043 0.06898 0.77495 0.0
O151 O 0.55154 0.08592 0.85765 0.0
O152 O 0.59093 0.04068 0.87611 0.0
O153 O 0.59382 0.05876 0.02327 0.0
O154 O 0.53557 0.11799 0.04465 0.0
O155 O 0.54932 0.08094 0.17022 0.0
O156 O 0.5039 0.01583 0.13066 0.0
O157 O 0.53958 0.00692 0.03557 0.0
O158 O 0.48328 0.05942 0.99583 0.0
O159 O 0.47582 0.01682 0.90609 0.0
H160 H 0.58554 0.93974 0.78478 0.0
H161 H 0.63421 0.93404 0.68618 0.0
H162 H 0.62735 0.02801 0.46597 0.0
H163 H 0.57937 0.03418 0.56355 0.0
H164 H 0.48421 0.13978 0.08391 0.0
H165 H 0.43681 0.14321 0.19014 0.0
H166 H 0.48238 0.09567 0.45176 0.0
H167 H 0.5297 0.09143 0.34589 0.0
Nd168 Nd 0.53531 0.55102 0.04643 0.0
Nd169 Nd 0.53534 0.53672 0.84913 0.0
C170 C 0.52519 0.57749 0.19877 0.0
C171 C 0.52986 0.61478 0.20221 0.0
C172 C 0.51682 0.63869 0.12952 0.0
C173 C 0.52279 0.67443 0.13153 0.0
C174 C 0.54148 0.68631 0.20689 0.0
C175 C 0.55595 0.66292 0.27598 0.0
C176 C 0.55018 0.62734 0.27363 0.0
C177 C 0.59785 0.54593 0.98324 0.0
C178 C 0.54319 0.61892 0.84451 0.0
C179 C 0.54745 0.51145 0.69595 0.0
C180 C 0.54695 0.47488 0.69081 0.0
C181 C 0.56938 0.45632 0.74439 0.0
C182 C 0.56825 0.42138 0.74077 0.0
C183 C 0.54583 0.40535 0.67948 0.0
C184 C 0.52228 0.42305 0.62996 0.0
C185 C 0.52275 0.45763 0.63594 0.0
C186 C 0.47281 0.54032 0.91649 0.0
C187 C 0.52476 0.46764 0.04688 0.0
O188 O 0.50044 0.565 0.14736 0.0
O189 O 0.55311 0.56787 0.18276 0.0
O190 O 0.5851 0.53453 0.0747 0.0
O191 O 0.5784 0.56202 0.92914 0.0
O192 O 0.53639 0.60691 0.94225 0.0
O193 O 0.54764 0.59717 0.7888 0.0
O194 O 0.57157 0.52637 0.74521 0.0
O195 O 0.51805 0.51773 0.71504 0.0
O196 O 0.48549 0.55376 0.82544 0.0
O197 O 0.49269 0.52451 0.96905 0.0
O198 O 0.5295 0.47966 0.94875 0.0
O199 O 0.5238 0.49 0.1044 0.0
H200 H 0.50159 0.62977 0.07221 0.0
H201 H 0.5113 0.69228 0.07838 0.0
H202 H 0.57042 0.67193 0.33463 0.0
H203 H 0.56121 0.60951 0.32833 0.0
H204 H 0.58845 0.46902 0.78694 0.0
H205 H 0.58658 0.40791 0.77898 0.0
H206 H 0.50471 0.41075 0.58263 0.0
H207 H 0.50482 0.47119 0.59566 0.0
Nd208 Nd 0.03813 0.5595 0.83112 0.0
Nd209 Nd 0.03516 0.52924 0.05489 0.0
C210 C 0.02982 0.59004 0.64487 0.0
C211 C 0.99833 0.58305 0.59118 0.0
C212 C 0.98625 0.61105 0.53217 0.0
C213 C 0.95611 0.60412 0.48339 0.0
C214 C 0.93723 0.56908 0.49405 0.0
C215 C 0.94835 0.54139 0.55783 0.0
C216 C 0.97862 0.54822 0.6049 0.0
C217 C 0.03152 0.48584 0.88367 0.0
C218 C 0.96502 0.5318 0.95111 0.0
C219 C 0.04736 0.49134 0.22933 0.0
C220 C 0.07775 0.49612 0.28919 0.0
C221 C 0.10893 0.49126 0.25545 0.0
C222 C 0.13786 0.49774 0.30904 0.0
C223 C 0.1361 0.50827 0.39924 0.0
C224 C 0.10521 0.51365 0.43252 0.0
C225 C 0.07634 0.50754 0.37835 0.0
C226 C 0.03508 0.60043 0.03338 0.0
C227 C 0.1096 0.56419 0.93778 0.0
O228 O 0.02802 0.60544 0.71848 0.0
O229 O 0.0456 0.56418 0.66777 0.0
O230 O 0.01358 0.50218 0.82044 0.0
O231 O 0.0498 0.50882 0.92249 0.0
O232 O 0.9838 0.55505 0.87764 0.0
O233 O 0.9784 0.51311 0.02601 0.0
O234 O 0.05083 0.48214 0.14506 0.0
O235 O 0.02936 0.51523 0.2214 0.0
O236 O 0.03401 0.57743 0.11712 0.0
O237 O 0.03618 0.58564 0.96056 0.0
O238 O 0.09179 0.55075 0.02354 0.0
O239 O 0.09557 0.57224 0.85159 0.0
H240 H 1.00032 0.63822 0.52292 0.0
H241 H 0.94796 0.62602 0.43543 0.0
H242 H 0.9342 0.51418 0.56808 0.0
H243 H 0.98665 0.52606 0.65164 0.0
H244 H 0.11106 0.48242 0.18758 0.0
H245 H 0.16149 0.49384 0.28126 0.0
H246 H 0.1034 0.52252 0.50077 0.0
H247 H 0.05292 0.51194 0.40595 0.0
C248 C 0.19526 0.06185 0.92972 0.0
C249 C 0.20676 0.09002 0.84411 0.0
C250 C 0.14804 0.09162 0.807 0.0
C251 C 0.1361 0.06288 0.89133 0.0
N252 N 0.14765 0.02487 0.04341 0.0
N253 N 0.19463 0.13925 0.72318 0.0
C254 C 0.15959 0.04937 0.9563 0.0
C255 C 0.18327 0.10729 0.78998 0.0
N256 N 0.21846 0.047 0.98465 0.0
N257 N 0.12597 0.1029 0.73963 0.0
H258 H 0.22022 0.15182 0.70947 0.0
H259 H 0.17864 0.15507 0.68955 0.0
H260 H 0.09995 0.09246 0.748 0.0
H261 H 0.1337 0.12063 0.67077 0.0
H262 H 0.21227 0.02455 0.04341 0.0
H263 H 0.24445 0.05698 0.96922 0.0
H264 H 0.16295 0.01556 0.09845 0.0
H265 H 0.12183 0.01536 0.06372 0.0
C266 C 0.5145 0.17793 0.62321 0.0
C267 C 0.52954 0.17668 0.53079 0.0
C268 C 0.55502 0.12831 0.61952 0.0
C269 C 0.53913 0.12925 0.71128 0.0
N270 N 0.51535 0.16322 0.80402 0.0
N271 N 0.5652 0.15216 0.43886 0.0
C272 C 0.52241 0.15666 0.71404 0.0
C273 C 0.55051 0.15251 0.52852 0.0
N274 N 0.49127 0.19808 0.6241 0.0
N275 N 0.5745 0.10424 0.62071 0.0
H276 H 0.5618 0.1691 0.37163 0.0
H277 H 0.5805 0.13524 0.42929 0.0
H278 H 0.5795 0.08796 0.68711 0.0
H279 H 0.58681 0.10095 0.55813 0.0
H280 H 0.477 0.19731 0.68831 0.0
H281 H 0.4839 0.21299 0.55892 0.0
H282 H 0.50562 0.18469 0.81176 0.0
H283 H 0.52306 0.14918 0.87001 0.0
C284 C 0.38949 0.56595 0.89175 0.0
C285 C 0.36699 0.5328 0.92963 0.0
C286 C 0.41366 0.50603 0.99042 0.0
C287 C 0.43682 0.53856 0.94461 0.0
N288 N 0.44602 0.60214 0.89041 0.0
N289 N 0.35535 0.47699 0.0498 0.0
C290 C 0.42438 0.56951 0.90846 0.0
C291 C 0.37839 0.50493 0.99221 0.0
N292 N 0.37774 0.59332 0.83551 0.0
N293 N 0.42457 0.47552 0.02282 0.0
H294 H 0.32943 0.47613 0.05022 0.0
H295 H 0.36214 0.45714 0.1039 0.0
H296 H 0.44968 0.47414 0.01581 0.0
H297 H 0.40824 0.45072 0.04864 0.0
H298 H 0.39353 0.61683 0.79503 0.0
H299 H 0.35196 0.59165 0.8266 0.0
H300 H 0.43819 0.62588 0.86973 0.0
H301 H 0.47137 0.60526 0.90677 0.0
C302 C 0.07752 0.43541 0.73854 0.0
C303 C 0.06085 0.39959 0.78162 0.0
C304 C 0.03109 0.41991 0.90807 0.0
C305 C 0.04471 0.45592 0.85731 0.0
N306 N 0.0865 0.49812 0.73801 0.0
N307 N 0.02783 0.3568 0.91937 0.0
C308 C 0.06981 0.46364 0.77699 0.0
C309 C 0.03957 0.39156 0.87067 0.0
N310 N 0.10039 0.44233 0.65878 0.0
N311 N 0.00988 0.41308 0.99162 0.0
H312 H 0.03415 0.33615 0.89364 0.0
H313 H 0.01325 0.34814 0.98669 0.0
H314 H 0.00448 0.43328 0.02163 0.0
H315 H 0.99765 0.38788 0.03191 0.0
H316 H 0.11196 0.46748 0.6174 0.0
H317 H 0.10796 0.42237 0.6328 0.0
H318 H 0.107 0.50618 0.68567 0.0
H319 H 0.0812 0.5194 0.76218 0.0
C320 C 0.88079 0.98341 0.96148 0.0
C321 C 0.86468 0.99761 0.02953 0.0
C322 C 0.91908 0.03719 0.04577 0.0
C323 C 0.93601 0.01875 0.99179 0.0
N324 N 0.93331 0.97431 0.8972 0.0
N325 N 0.86773 0.03799 0.13714 0.0
C326 C 0.91689 0.99222 0.94791 0.0
C327 C 0.88356 0.02489 0.07072 0.0
N328 N 0.86149 0.96155 0.90986 0.0
N329 N 0.93712 0.06658 0.07284 0.0
H330 H 0.84159 0.03077 0.15345 0.0
H331 H 0.88051 0.05457 0.17991 0.0
H332 H 0.96305 0.07629 0.055 0.0
H333 H 0.92611 0.08318 0.1046 0.0
H334 H 0.87122 0.95275 0.85238 0.0
H335 H 0.8351 0.95467 0.91891 0.0
H336 H 0.92147 0.95172 0.87405 0.0
H337 H 0.95938 0.98139 0.88191 0.0
C338 C 0.51176 0.89827 0.27583 0.0
C339 C 0.52695 0.90727 0.36218 0.0
C340 C 0.54017 0.97025 0.27466 0.0
C341 C 0.52292 0.96202 0.19054 0.0
N342 N 0.49691 0.9182 0.10351 0.0
N343 N 0.5486 0.95222 0.45095 0.0
C344 C 0.51004 0.92589 0.18898 0.0
C345 C 0.53919 0.94333 0.36341 0.0
N346 N 0.49761 0.86344 0.27912 0.0
N347 N 0.55966 1.00352 0.26752 0.0
H348 H 0.5484 0.93347 0.51787 0.0
H349 H 0.55312 0.97818 0.45931 0.0
H350 H 0.56343 0.02299 0.20118 0.0
H351 H 0.57557 0.01031 0.32227 0.0
H352 H 0.48468 0.85438 0.22197 0.0
H353 H 0.49726 0.84319 0.34267 0.0
H354 H 0.48882 0.89272 0.09269 0.0
H355 H 0.49559 0.93791 0.03997 0.0
C356 C 0.68171 0.51824 0.00669 0.0
C357 C 0.70358 0.55163 0.97078 0.0
C358 C 0.65643 0.57513 0.89504 0.0
C359 C 0.63351 0.545 0.95624 0.0
N360 N 0.62479 0.4855 0.06213 0.0
N361 N 0.71482 0.60998 0.86372 0.0
C362 C 0.6463 0.51548 0.00753 0.0
C363 C 0.69191 0.57942 0.90805 0.0
N364 N 0.69506 0.48945 0.0421 0.0
N365 N 0.64456 0.59944 0.82605 0.0
H366 H 0.74084 0.61224 0.86883 0.0
H367 H 0.70838 0.63295 0.82399 0.0
H368 H 0.61935 0.59593 0.80907 0.0
H369 H 0.66004 0.62124 0.77731 0.0
H370 H 0.6807 0.46346 0.06186 0.0
H371 H 0.72117 0.49151 0.0415 0.0
H372 H 0.63278 0.46531 0.11156 0.0
H373 H 0.59864 0.48133 0.06195 0.0
C374 C 0.04273 0.67913 0.14658 0.0
C375 C 0.0159 0.69412 0.10511 0.0
C376 C 0.01049 0.6562 0.98268 0.0
C377 C 0.03451 0.63844 0.03317 0.0
N378 N 0.0828 0.64302 0.13197 0.0
N379 N 0.97816 0.70215 0.97286 0.0
C380 C 0.05355 0.65329 0.10516 0.0
C381 C 1.00123 0.68452 0.01871 0.0
N382 N 0.05693 0.68834 0.22917 0.0
N383 N 0.99655 0.64577 0.90154 0.0
H384 H 0.97162 0.7229 0.99765 0.0
H385 H 0.96618 0.69729 0.90951 0.0
H386 H 1.00423 0.62654 0.87248 0.0
H387 H 0.97789 0.656 0.86206 0.0
H388 H 0.0731 0.67481 0.27165 0.0
H389 H 0.05112 0.7084 0.25894 0.0
H390 H 0.09982 0.65489 0.17699 0.0
H391 H 0.09185 0.62518 0.09961 0.0
C392 C 0.02827 0.21259 0.82555 0.0
C393 C 0.06111 0.23051 0.84158 0.0
C394 C 0.0785 0.17461 0.88869 0.0
C395 C 0.04776 0.15751 0.85364 0.0
N396 N 0.99305 0.15949 0.78989 0.0
N397 N 0.11155 0.2288 0.92633 0.0
C398 C 0.02224 0.17618 0.82359 0.0
C399 C 0.08398 0.21117 0.88805 0.0
N400 N 1.00374 0.23136 0.80747 0.0
N401 N 0.10307 0.15633 0.91672 0.0
H402 H 0.11517 0.25593 0.92266 0.0
H403 H 0.12881 0.21656 0.96756 0.0
H404 H 0.10067 0.13001 0.91313 0.0
H405 H 0.12675 0.16762 0.93739 0.0
H406 H 0.97854 0.22011 0.79938 0.0
H407 H 0.00849 0.25806 0.80967 0.0
H408 H 0.97474 0.17246 0.75823 0.0
H409 H 0.98818 0.13283 0.78734 0.0
C410 C 0.38812 0.08262 0.94133 0.0
C411 C 0.36419 0.06089 0.89659 0.0
C412 C 0.40034 0.01777 0.91889 0.0
C413 C 0.42801 0.0443 0.93643 0.0
N414 N 0.44734 0.10764 0.92969 0.0
N415 N 0.34512 1.00406 0.85706 0.0
C416 C 0.42164 0.07811 0.94129 0.0
C417 C 0.36932 0.0272 0.89145 0.0
N418 N 0.37985 0.11026 0.97137 0.0
N419 N 0.40335 0.98385 0.92552 0.0
H420 H 0.32179 0.00942 0.83626 0.0
H421 H 0.32179 0.00942 0.83626 0.0
H422 H 0.42428 0.9746 0.95319 0.0
H423 H 0.38365 0.96446 0.90968 0.0
H424 H 0.39621 0.12602 0.0098 0.0
H425 H 0.35537 0.11451 0.96666 0.0
H426 H 0.44337 0.13276 0.92859 0.0
H427 H 0.47146 0.10863 0.90181 0.0
C428 C 0.57651 0.34728 0.53532 0.0
C429 C 0.5458 0.32206 0.54055 0.0
C430 C 0.52402 0.34206 0.67771 0.0
C431 C 0.55042 0.37303 0.6517 0.0
N432 N 0.60164 0.40639 0.55068 0.0
N433 N 0.49056 0.29264 0.6208 0.0
C434 C 0.57735 0.37563 0.58151 0.0
C435 C 0.51994 0.31777 0.61534 0.0
N436 N 0.60383 0.34529 0.47996 0.0
N437 N 0.50241 0.33687 0.75926 0.0
H438 H 0.48707 0.27425 0.5765 0.0
H439 H 0.46922 0.29101 0.66588 0.0
H440 H 0.50518 0.35484 0.80503 0.0
H441 H 0.48405 0.31356 0.78632 0.0
H442 H 0.62778 0.36171 0.47855 0.0
H443 H 0.60295 0.32471 0.44381 0.0
H444 H 0.61901 0.41089 0.49019 0.0
H445 H 0.60307 0.42863 0.57968 0.0
C446 C 0.18765 0.52659 0.98335 0.0
C447 C 0.21246 0.55474 0.92701 0.0
C448 C 0.17211 0.59316 0.90781 0.0
C449 C 0.14563 0.56228 0.9392 0.0
N450 N 0.12871 0.498 0.99654 0.0
N451 N 0.23239 0.61682 0.85889 0.0
C452 C 0.15346 0.52858 0.97682 0.0
C453 C 0.20602 0.58904 0.89912 0.0
N454 N 0.1968 0.49691 0.03543 0.0
N455 N 0.16468 0.62582 0.88519 0.0
H456 H 0.25709 0.61323 0.85546 0.0
H457 H 0.23008 0.64267 0.82973 0.0
H458 H 0.13998 0.62913 0.89078 0.0
H459 H 0.18283 0.6496 0.86549 0.0
H460 H 0.17995 0.47612 0.08409 0.0
H461 H 0.22213 0.49531 0.03704 0.0
H462 H 0.13382 0.47281 0.01335 0.0
H463 H 0.10325 0.49735 0.98742 0.0
C464 C 0.03607 0.87917 0.98965 0.0
C465 C 0.00553 0.85964 0.04229 0.0
C466 C 0.99139 0.91277 0.0703 0.0
C467 C 0.0246 0.93217 0.03362 0.0
N468 N 0.07734 0.93563 0.9447 0.0
N469 N 0.94792 0.85893 0.0809 0.0
C470 C 0.04649 0.91602 0.98723 0.0
C471 C 0.98062 0.87756 0.05974 0.0
N472 N 0.05497 0.86159 0.94593 0.0
N473 N 0.97149 0.92688 0.12279 0.0
H474 H 0.94109 0.83214 0.07935 0.0
H475 H 0.92795 0.87062 0.09123 0.0
H476 H 0.98082 0.95064 0.14321 0.0
H477 H 0.94781 0.91309 0.15693 0.0
H478 H 0.07751 0.87355 0.90295 0.0
H479 H 0.04627 0.83454 0.94926 0.0
H480 H 0.09456 0.92581 0.90909 0.0
H481 H 0.08638 0.96183 0.94923 0.0
C482 C 0.70141 0.04484 0.93524 0.0
C483 C 0.69896 0.01013 0.99408 0.0
C484 C 0.63829 1.00095 0.01874 0.0
C485 C 0.64008 0.03655 0.9656 0.0
N486 N 0.67157 0.08819 0.84582 0.0
N487 N 0.66494 0.95103 0.04687 0.0
C488 C 0.67111 0.05718 0.91386 0.0
C489 C 0.66702 0.98663 0.0167 0.0
N490 N 0.73263 0.06602 0.90338 0.0
N491 N 0.61022 0.98161 0.07772 0.0
H492 H 0.68655 0.94072 0.04899 0.0
H493 H 0.64199 0.93221 0.0596 0.0
H494 H 0.59016 0.9925 0.09053 0.0
H495 H 0.60889 0.95663 0.12435 0.0
H496 H 0.73672 0.09275 0.86729 0.0
H497 H 0.75453 0.05634 0.91537 0.0
H498 H 0.69281 0.10273 0.79943 0.0
H499 H 0.64988 0.09805 0.83135 0.0
C500 C 0.51839 0.75126 0.3376 0.0
C501 C 0.55153 0.77159 0.34048 0.0
C502 C 0.57165 0.74761 0.20937 0.0
C503 C 0.54124 0.72099 0.22716 0.0
N504 N 0.48482 0.69715 0.30655 0.0
N505 N 0.60887 0.79384 0.27172 0.0
C506 C 0.51384 0.72338 0.28803 0.0
C507 C 0.57783 0.77189 0.27204 0.0
N508 N 0.49173 0.75752 0.38673 0.0
N509 N 0.59463 0.74858 0.13503 0.0
H510 H 0.61316 0.81249 0.31542 0.0
H511 H 0.63025 0.79304 0.23062 0.0
H512 H 0.59 0.73068 0.08904 0.0
H513 H 0.61653 0.76855 0.11377 0.0
H514 H 0.46659 0.74539 0.38059 0.0
H515 H 0.49448 0.77739 0.42601 0.0
H516 H 0.46629 0.69471 0.36233 0.0
H517 H 0.47996 0.67642 0.2703 0.0
C518 C 0.86962 0.51744 0.92551 0.0
C519 C 0.86511 0.54952 0.94579 0.0
C520 C 0.92421 0.56751 0.97 0.0
C521 C 0.92953 0.53477 0.95694 0.0
N522 N 0.90947 0.48298 0.89194 0.0
N523 N 0.89003 0.61094 0.93146 0.0
C524 C 0.90294 0.51104 0.92395 0.0
C525 C 0.89375 0.57715 0.94171 0.0
N526 N 0.84179 0.49283 0.91344 0.0
N527 N 0.94625 0.58725 0.02053 0.0
H528 H 0.86649 0.61712 0.91851 0.0
H529 H 0.91061 0.63232 0.92787 0.0
H530 H 0.96697 0.57862 0.05244 0.0
H531 H 0.94135 0.60944 0.04118 0.0
H532 H 0.8425 0.46744 0.90659 0.0
H533 H 0.81779 0.49841 0.91217 0.0
H534 H 0.89166 0.46655 0.85931 0.0
H535 H 0.93349 0.47751 0.89327 0.0
C536 C 0.11017 0.2442 0.45911 0.0
C537 C 0.08113 0.25361 0.49412 0.0
C538 C 0.04525 0.21019 0.41361 0.0
C539 C 0.07384 0.19763 0.38958 0.0
N540 N 0.13345 0.20003 0.40229 0.0
N541 N 0.02031 0.24056 0.51887 0.0
C542 C 0.1064 0.21424 0.41476 0.0
C543 C 0.04849 0.23549 0.47416 0.0
N544 N 0.14148 0.26371 0.47019 0.0
N545 N 0.01481 0.19831 0.37723 0.0
H546 H 0.02117 0.25938 0.56116 0.0
H547 H 0.99629 0.22434 0.5199 0.0
H548 H 0.01141 0.18018 0.33202 0.0
H549 H 0.99387 0.20898 0.38379 0.0
H550 H 0.16383 0.26056 0.4393 0.0
H551 H 0.14473 0.28538 0.50294 0.0
H552 H 0.15698 0.20813 0.42943 0.0
H553 H 0.13168 0.17799 0.37193 0.0
C554 C 0.3774 0.0831 0.50886 0.0
C555 C 0.37327 0.11405 0.53835 0.0
C556 C 0.42022 0.15027 0.41823 0.0
C557 C 0.42561 0.11891 0.39357 0.0
N558 N 0.40456 0.05716 0.39578 0.0
N559 N 0.38557 0.17769 0.50827 0.0
C560 C 0.40266 0.08584 0.433 0.0
C561 C 0.39292 0.14793 0.48819 0.0
N562 N 0.35782 0.05074 0.55683 0.0
N563 N 0.44212 0.18202 0.37776 0.0
H564 H 0.36641 0.1766 0.56076 0.0
H565 H 0.39658 0.20341 0.46863 0.0
H566 H 0.46141 0.18474 0.32393 0.0
H567 H 0.4423 0.20543 0.39963 0.0
H568 H 0.36289 0.02661 0.55193 0.0
H569 H 0.33694 0.04793 0.60545 0.0
H570 H 0.38677 0.03309 0.41387 0.0
H571 H 0.42256 0.05823 0.33977 0.0
C572 C 0.49015 0.37291 0.21276 0.0
C573 C 0.51552 0.35541 0.19383 0.0
C574 C 0.54287 0.4084 0.06339 0.0
C575 C 0.52009 0.428 0.0924 0.0
N576 N 0.4717 0.42759 0.19816 0.0
N577 N 0.5602 0.35219 0.08374 0.0
C578 C 0.49341 0.40971 0.16724 0.0
C579 C 0.53992 0.37183 0.11311 0.0
N580 N 0.46242 0.3536 0.27402 0.0
N581 N 0.56918 0.42531 0.99423 0.0
H582 H 0.55899 0.3259 0.12011 0.0
H583 H 0.57605 0.36041 0.01876 0.0
H584 H 0.57306 0.45161 0.95578 0.0
H585 H 0.58906 0.41434 0.9787 0.0
H586 H 0.44099 0.36299 0.28465 0.0
H587 H 0.45955 0.32658 0.30641 0.0
H588 H 0.45536 0.41742 0.26208 0.0
H589 H 0.47084 0.45343 0.16342 0.0
C590 C 0.20615 0.55308 0.54087 0.0
C591 C 0.21511 0.52299 0.60283 0.0
C592 C 0.17754 0.48369 0.51543 0.0
C593 C 0.16635 0.51354 0.46005 0.0
N594 N 0.17523 0.57684 0.40125 0.0
N595 N 0.21351 0.46028 0.64129 0.0
C596 C 0.18233 0.54835 0.4672 0.0
C597 C 0.20251 0.48853 0.58643 0.0
N598 N 0.21994 0.58617 0.5549 0.0
N599 N 0.16265 0.45047 0.5044 0.0
H600 H 0.22893 0.46183 0.70067 0.0
H601 H 0.20867 0.43521 0.6266 0.0
H602 H 0.14392 0.44572 0.45501 0.0
H603 H 0.16722 0.42699 0.54696 0.0
H604 H 0.21129 0.60877 0.52386 0.0
H605 H 0.23991 0.59099 0.60067 0.0
H606 H 0.18767 0.60308 0.39602 0.0
H607 H 0.15834 0.57413 0.34549 0.0
C608 C 0.03228 0.84685 0.45205 0.0
C609 C 1.00375 0.83731 0.3971 0.0
C610 C 0.98066 0.88541 0.43893 0.0
C611 C 0.00885 0.89452 0.49624 0.0
N612 N 0.05766 0.87836 0.57483 0.0
N613 N 0.9474 0.84241 0.35651 0.0
C614 C 0.03344 0.87342 0.50824 0.0
C615 C 0.9767 0.85478 0.39791 0.0
N616 N 0.05913 0.83172 0.44636 0.0
N617 N 0.95874 0.90735 0.41789 0.0
H618 H 0.94407 0.82033 0.32553 0.0
H619 H 0.92553 0.85173 0.36123 0.0
H620 H 0.96102 0.93028 0.44436 0.0
H621 H 0.9401 0.90467 0.36711 0.0
H622 H 0.08255 0.84058 0.47319 0.0
H623 H 0.05833 0.81124 0.40993 0.0
H624 H 0.07429 0.86176 0.59446 0.0
H625 H 0.05918 0.89728 0.61715 0.0
C626 C 0.7176 1.00273 0.40802 0.0
C627 C 0.71082 0.97706 0.34997 0.0
C628 C 0.65608 0.94967 0.44571 0.0
C629 C 0.66237 0.97603 0.50232 0.0
N630 N 0.70231 0.02193 0.55451 0.0
N631 N 0.67788 0.92161 0.32697 0.0
C632 C 0.69427 1.0007 0.48892 0.0
C633 C 0.6815 0.94888 0.37411 0.0
N634 N 0.74557 0.03007 0.38237 0.0
N635 N 0.62509 0.92666 0.45617 0.0
H636 H 0.69596 0.92065 0.27371 0.0
H637 H 0.65875 0.89859 0.34636 0.0
H638 H 0.60625 0.92555 0.50957 0.0
H639 H 0.61716 0.90994 0.4086 0.0
H640 H 0.75001 0.05226 0.41263 0.0
H641 H 0.7638 0.03124 0.32679 0.0
H642 H 0.72616 0.03825 0.55493 0.0
H643 H 0.68586 0.02085 0.61457 0.0
C644 C 0.5181 0.70231 0.69051 0.0
C645 C 0.5464 0.72961 0.69703 0.0
C646 C 0.56939 0.6854 0.81716 0.0
C647 C 0.54402 0.65733 0.79602 0.0
N648 N 0.49652 0.6401 0.69907 0.0
N649 N 0.5995 0.74765 0.76637 0.0
C650 C 0.51891 0.66611 0.7294 0.0
C651 C 0.57198 0.72135 0.76169 0.0
N652 N 0.49041 0.7112 0.64531 0.0
N653 N 0.5915 0.6777 0.88841 0.0
H654 H 0.6011 0.7741 0.73005 0.0
H655 H 0.62108 0.7432 0.80242 0.0
H656 H 0.59192 0.65181 0.92534 0.0
H657 H 0.60816 0.69696 0.91506 0.0
H658 H 0.46759 0.69296 0.64592 0.0
H659 H 0.4892 0.73755 0.61669 0.0
H660 H 0.4805 0.64522 0.64171 0.0
H661 H 0.49586 0.61334 0.72463 0.0
C662 C 0.87839 0.52475 0.32372 0.0
C663 C 0.85501 0.54693 0.30144 0.0
C664 C 0.87964 0.57638 0.43168 0.0
C665 C 0.9079 0.56071 0.43147 0.0
N666 N 0.93726 0.52712 0.34875 0.0
N667 N 0.83868 0.59981 0.32777 0.0
C668 C 0.90815 0.53667 0.3699 0.0
C669 C 0.85654 0.57416 0.35467 0.0
N670 N 0.87294 0.49305 0.29708 0.0
N671 N 0.87471 0.59323 0.50467 0.0
H672 H 0.82446 0.60241 0.26541 0.0
H673 H 0.84136 0.62126 0.36109 0.0
H674 H 0.89077 0.59463 0.56297 0.0
H675 H 0.85276 0.60221 0.51255 0.0
H676 H 0.88909 0.47575 0.31529 0.0
H677 H 0.85066 0.48296 0.26592 0.0
H678 H 0.93872 0.51213 0.29633 0.0
H679 H 0.96059 0.53773 0.37349 0.0
loop_
_geom_bond_atom_site_label_1
_geom_bond_atom_site_label_2
_geom_bond_distance
_geom_bond_site_symmetry_2
_ccdc_geom_bond_type
H0 C3 0.929 . S
H1 C6 0.929 . S
H2 C8 0.930 . S
C3 H0 0.929 . S
C3 C4 1.398 . S
C3 C5 1.396 1_554 S
C4 C3 1.398 . S
C4 C8 1.407 . S
C5 C3 1.396 1_556 S
C5 C6 1.394 . S
C6 H1 0.929 . S
C6 C5 1.394 . S
C6 C7 1.382 1_556 S
C7 C6 1.382 1_554 S
C7 C8 1.392 . S
C7 N9 1.420 . S
C8 H2 0.930 . S
C8 C4 1.407 . S
C8 C7 1.392 . S
N9 C7 1.420 . S
N9 C10 1.244 1_554 S
C10 N9 1.244 1_556 S
H11 C14 0.929 . S
H12 C17 0.929 1_556 S
H13 C19 0.930 . S
C14 H11 0.929 . S
C14 C15 1.398 . S
C14 C16 1.396 . S
C15 C14 1.398 . S
C15 C19 1.407 . S
C16 C14 1.396 . S
C16 C17 1.394 . S
C17 H12 0.929 1_554 S
C17 C16 1.394 . S
C17 C18 1.382 . S
C18 C17 1.382 . S
C18 C19 1.392 . S
C18 N20 1.420 . S
C19 H13 0.930 . S
C19 C15 1.407 . S
C19 C18 1.392 . S
N20 C18 1.420 . S
N20 C21 1.244 . S
C21 N20 1.244 . S
H22 C25 0.929 . S
H23 C28 0.929 . S
H24 C30 0.930 . S
C25 H22 0.929 . S
C25 C26 1.398 . S
C25 C27 1.396 . S
C26 C25 1.398 . S
C26 C30 1.407 . S
C27 C25 1.396 . S
C27 C28 1.394 1_554 S
C28 H23 0.929 . S
C28 C27 1.394 1_556 S
C28 C29 1.382 1_556 S
C29 C28 1.382 1_554 S
C29 C30 1.392 . S
C29 N31 1.420 . S
C30 H24 0.930 . S
C30 C26 1.407 . S
C30 C29 1.392 . S
N31 C29 1.420 . S
N31 C32 1.244 . S
C32 N31 1.244 . S
H33 C36 0.929 . S
H34 C39 0.929 . S
H35 C41 0.930 . S
C36 H33 0.929 . S
C36 C37 1.398 . S
C36 C38 1.396 . S
C37 C36 1.398 . S
C37 C41 1.407 . S
C38 C36 1.396 . S
C38 C39 1.394 . S
C39 H34 0.929 . S
C39 C38 1.394 . S
C39 C40 1.382 . S
C40 C39 1.382 . S
C40 C41 1.392 . S
C40 N42 1.420 . S
C41 H35 0.930 . S
C41 C37 1.407 . S
C41 C40 1.392 . S
N42 C40 1.420 . S
N42 C43 1.244 . S
C43 N42 1.244 . S
H44 C47 0.929 . S
H45 C50 0.929 1_554 S
H46 C52 0.930 . S
C47 H44 0.929 . S
C47 C48 1.398 . S
C47 C49 1.396 . S
C48 C47 1.398 . S
C48 C52 1.407 . S
C49 C47 1.396 . S
C49 C50 1.394 . S
C50 H45 0.929 1_556 S
C50 C49 1.394 . S
C50 C51 1.382 . S
C51 C50 1.382 . S
C51 C52 1.392 . S
C51 N53 1.420 . S
C52 H46 0.930 . S
C52 C48 1.407 . S
C52 C51 1.392 . S
N53 C51 1.420 . S
N53 C54 1.244 . S
C54 N53 1.244 . S
H55 C58 0.929 . S
H56 C61 0.929 . S
H57 C63 0.930 . S
C58 H55 0.929 . S
C58 C59 1.398 . S
C58 C60 1.396 . S
C59 C58 1.398 . S
C59 C63 1.407 . S
C60 C58 1.396 . S
C60 C61 1.394 . S
C61 H56 0.929 . S
C61 C60 1.394 . S
C61 C62 1.382 . S
C62 C61 1.382 . S
C62 C63 1.392 . S
C62 N64 1.420 . S
C63 H57 0.930 . S
C63 C59 1.407 . S
C63 C62 1.392 . S
N64 C62 1.420 . S
N64 C65 1.244 . S
C65 N64 1.244 . S
H66 C69 0.929 . S
H67 C72 0.929 . S
H68 C74 0.930 . S
C69 H66 0.929 . S
C69 C70 1.398 . S
C69 C71 1.396 . S
C70 C69 1.398 . S
C70 C74 1.407 . S
C71 C69 1.396 . S
C71 C72 1.394 . S
C72 H67 0.929 . S
C72 C71 1.394 . S
C72 C73 1.382 . S
C73 C72 1.382 . S
C73 C74 1.392 . S
C73 N75 1.420 . S
C74 H68 0.930 . S
C74 C70 1.407 . S
C74 C73 1.392 . S
N75 C73 1.420 . S
N75 C76 1.244 . S
C76 N75 1.244 . S
H77 C80 0.929 . S
H78 C83 0.929 . S
H79 C85 0.930 . S
C80 H77 0.929 . S
C80 C81 1.398 . S
C80 C82 1.396 . S
C81 C80 1.398 . S
C81 C85 1.407 . S
C82 C80 1.396 . S
C82 C83 1.394 . S
C83 H78 0.929 . S
C83 C82 1.394 . S
C83 C84 1.382 . S
C84 C83 1.382 . S
C84 C85 1.392 . S
C84 N86 1.420 . S
C85 H79 0.930 . S
C85 C81 1.407 . S
C85 C84 1.392 . S
N86 C84 1.420 . S
N86 C87 1.244 . S
C87 N86 1.244 . S
Nd88 C90 2.836 1_545 S
Nd88 O108 2.500 1_445 S
Nd88 O109 2.492 . S
Nd88 O110 2.487 . S
Nd88 O111 2.682 . S
Nd88 O112 2.410 1_545 S
Nd88 O117 2.414 1_455 S
Nd88 O119 2.424 . S
Nd89 C99 2.836 . S
Nd89 O111 2.414 1_554 S
Nd89 O113 2.424 1_545 S
Nd89 O114 2.500 . S
Nd89 O115 2.492 . S
Nd89 O116 2.487 1_455 S
Nd89 O117 2.682 1_454 S
Nd89 O118 2.410 1_554 S
C90 Nd88 2.836 1_565 S
C90 C91 1.498 . S
C90 O108 1.258 1_455 S
C90 O109 1.239 1_565 S
C91 C90 1.498 . S
C91 C92 1.366 1_455 S
C91 C96 1.407 . S
C92 C91 1.366 1_655 S
C92 C93 1.392 . S
C92 H120 0.930 . S
C93 C92 1.392 . S
C93 C94 1.422 . S
C93 H121 0.929 . S
C94 C93 1.422 . S
C94 C95 1.328 1_655 S
C95 C94 1.328 1_455 S
C95 C96 1.384 . S
C95 H122 0.930 . S
C96 C91 1.407 . S
C96 C95 1.384 . S
C96 H123 0.929 . S
C97 O110 1.241 . S
C97 O111 1.273 . S
C98 O112 1.251 . S
C98 O113 1.268 1_556 S
C99 Nd89 2.836 . S
C99 C100 1.498 . S
C99 O114 1.258 . S
C99 O115 1.239 . S
C100 C99 1.498 . S
C100 C101 1.366 . S
C100 C105 1.407 . S
C101 C100 1.366 . S
C101 C102 1.392 . S
C101 H124 0.930 . S
C102 C101 1.392 . S
C102 C103 1.398 . S
C102 H125 0.929 . S
C103 C102 1.398 . S
C103 C104 1.352 . S
C104 C103 1.352 . S
C104 C105 1.384 . S
C104 H126 0.930 . S
C105 C100 1.407 . S
C105 C104 1.384 . S
C105 H127 0.929 . S
C106 O116 1.241 1_556 S
C106 O117 1.273 . S
C107 O118 1.251 . S
C107 O119 1.268 . S
O108 Nd88 2.500 1_665 S
O108 C90 1.258 1_655 S
O109 Nd88 2.492 . S
O109 C90 1.239 1_545 S
O110 Nd88 2.487 . S
O110 C97 1.241 . S
O111 Nd88 2.682 . S
O111 Nd89 2.414 1_556 S
O111 C97 1.273 . S
O112 Nd88 2.410 1_565 S
O112 C98 1.251 . S
O113 Nd89 2.424 1_565 S
O113 C98 1.268 1_554 S
O114 Nd89 2.500 . S
O114 C99 1.258 . S
O115 Nd89 2.492 . S
O115 C99 1.239 . S
O116 Nd89 2.487 1_655 S
O116 C106 1.241 1_554 S
O117 Nd88 2.414 1_655 S
O117 Nd89 2.682 1_656 S
O117 C106 1.273 . S
O118 Nd89 2.410 1_556 S
O118 C107 1.251 . S
O119 Nd88 2.424 . S
O119 C107 1.268 . S
H120 C92 0.930 . S
H121 C93 0.929 . S
H122 C95 0.930 . S
H123 C96 0.929 . S
H124 C101 0.930 . S
H125 C102 0.929 . S
H126 C104 0.930 . S
H127 C105 0.929 . S
Nd128 C130 2.836 1_545 S
Nd128 O148 2.500 1_545 S
Nd128 O149 2.492 . S
Nd128 O150 2.487 . S
Nd128 O151 2.682 . S
Nd128 O152 2.410 . S
Nd128 O157 2.414 1_545 S
Nd128 O159 2.424 . S
Nd129 C139 2.836 . S
Nd129 O151 2.414 1_554 S
Nd129 O153 2.424 . S
Nd129 O154 2.500 . S
Nd129 O155 2.492 . S
Nd129 O156 2.487 1_545 S
Nd129 O157 2.682 1_544 S
Nd129 O158 2.410 . S
C130 Nd128 2.836 1_565 S
C130 C131 1.498 . S
C130 O148 1.258 . S
C130 O149 1.239 1_565 S
C131 C130 1.498 . S
C131 C132 1.366 . S
C131 C136 1.408 . S
C132 C131 1.366 . S
C132 C133 1.392 . S
C132 H160 0.930 . S
C133 C132 1.392 . S
C133 C134 1.398 . S
C133 H161 0.929 . S
C134 C133 1.398 . S
C134 C135 1.352 . S
C135 C134 1.352 . S
C135 C136 1.387 . S
C135 H162 0.930 . S
C136 C131 1.408 . S
C136 C135 1.387 . S
C136 H163 0.925 1_565 S
C137 O150 1.241 . S
C137 O151 1.273 . S
C138 O152 1.251 . S
C138 O153 1.268 1_556 S
C139 Nd129 2.836 . S
C139 C140 1.498 . S
C139 O154 1.258 . S
C139 O155 1.239 . S
C140 C139 1.498 . S
C140 C141 1.366 . S
C140 C145 1.407 . S
C141 C140 1.366 . S
C141 C142 1.392 . S
C141 H164 0.930 . S
C142 C141 1.392 . S
C142 C143 1.398 . S
C142 H165 0.929 . S
C143 C142 1.398 . S
C143 C144 1.352 . S
C144 C143 1.352 . S
C144 C145 1.384 . S
C144 H166 0.930 . S
C145 C140 1.407 . S
C145 C144 1.384 . S
C145 H167 0.929 . S
C146 O156 1.241 . S
C146 O157 1.273 1_554 S
C147 O158 1.251 1_556 S
C147 O159 1.268 . S
O148 Nd128 2.500 1_565 S
O148 C130 1.258 . S
O149 Nd128 2.492 . S
O149 C130 1.239 1_545 S
O150 Nd128 2.487 . S
O150 C137 1.241 . S
O151 Nd128 2.682 . S
O151 Nd129 2.414 1_556 S
O151 C137 1.273 . S
O152 Nd128 2.410 . S
O152 C138 1.251 . S
O153 Nd129 2.424 . S
O153 C138 1.268 1_554 S
O154 Nd129 2.500 . S
O154 C139 1.258 . S
O155 Nd129 2.492 . S
O155 C139 1.239 . S
O156 Nd129 2.487 1_565 S
O156 C146 1.241 . S
O157 Nd128 2.414 1_565 S
O157 Nd129 2.682 1_566 S
O157 C146 1.273 1_556 S
O158 Nd129 2.410 . S
O158 C147 1.251 1_554 S
O159 Nd128 2.424 . S
O159 C147 1.268 . S
H160 C132 0.930 . S
H161 C133 0.929 . S
H162 C135 0.930 . S
H163 C136 0.925 1_545 S
H164 C141 0.930 . S
H165 C142 0.929 . S
H166 C144 0.930 . S
H167 C145 0.929 . S
Nd168 C170 2.836 . S
Nd168 O188 2.500 . S
Nd168 O189 2.492 . S
Nd168 O190 2.487 . S
Nd168 O191 2.682 1_554 S
Nd168 O192 2.410 1_554 S
Nd168 O197 2.414 1_554 S
Nd168 O199 2.424 . S
Nd169 C179 2.836 . S
Nd169 O191 2.414 . S
Nd169 O193 2.424 . S
Nd169 O194 2.500 . S
Nd169 O195 2.492 . S
Nd169 O196 2.487 . S
Nd169 O197 2.682 . S
Nd169 O198 2.410 . S
C170 Nd168 2.836 . S
C170 C171 1.498 . S
C170 O188 1.258 . S
C170 O189 1.239 . S
C171 C170 1.498 . S
C171 C172 1.366 . S
C171 C176 1.407 . S
C172 C171 1.366 . S
C172 C173 1.392 . S
C172 H200 0.930 . S
C173 C172 1.392 . S
C173 C174 1.398 . S
C173 H201 0.929 . S
C174 C173 1.398 . S
C174 C175 1.352 . S
C175 C174 1.352 . S
C175 C176 1.384 . S
C175 H202 0.930 . S
C176 C171 1.407 . S
C176 C175 1.384 . S
C176 H203 0.929 . S
C177 O190 1.241 1_556 S
C177 O191 1.273 . S
C178 O192 1.251 . S
C178 O193 1.268 . S
C179 Nd169 2.836 . S
C179 C180 1.498 . S
C179 O194 1.258 . S
C179 O195 1.239 . S
C180 C179 1.498 . S
C180 C181 1.366 . S
C180 C185 1.407 . S
C181 C180 1.366 . S
C181 C182 1.392 . S
C181 H204 0.930 . S
C182 C181 1.392 . S
C182 C183 1.398 . S
C182 H205 0.929 . S
C183 C182 1.398 . S
C183 C184 1.352 . S
C184 C183 1.352 . S
C184 C185 1.384 . S
C184 H206 0.930 . S
C185 C180 1.407 . S
C185 C184 1.384 . S
C185 H207 0.929 . S
C186 O196 1.241 . S
C186 O197 1.273 . S
C187 O198 1.251 1_554 S
C187 O199 1.268 . S
O188 Nd168 2.500 . S
O188 C170 1.258 . S
O189 Nd168 2.492 . S
O189 C170 1.239 . S
O190 Nd168 2.487 . S
O190 C177 1.241 1_554 S
O191 Nd168 2.682 1_556 S
O191 Nd169 2.414 . S
O191 C177 1.273 . S
O192 Nd168 2.410 1_556 S
O192 C178 1.251 . S
O193 Nd169 2.424 . S
O193 C178 1.268 . S
O194 Nd169 2.500 . S
O194 C179 1.258 . S
O195 Nd169 2.492 . S
O195 C179 1.239 . S
O196 Nd169 2.487 . S
O196 C186 1.241 . S
O197 Nd168 2.414 1_556 S
O197 Nd169 2.682 . S
O197 C186 1.273 . S
O198 Nd169 2.410 . S
O198 C187 1.251 1_556 S
O199 Nd168 2.424 . S
O199 C187 1.268 . S
H200 C172 0.930 . S
H201 C173 0.929 . S
H202 C175 0.930 . S
H203 C176 0.929 . S
H204 C181 0.930 . S
H205 C182 0.929 . S
H206 C184 0.930 . S
H207 C185 0.929 . S
Nd208 C210 2.836 1_455 S
Nd208 O228 2.500 1_455 S
Nd208 O229 2.492 1_455 S
Nd208 O230 2.487 . S
Nd208 O231 2.682 . S
Nd208 O232 2.410 1_455 S
Nd208 O237 2.414 . S
Nd208 O239 2.424 . S
Nd209 C219 2.836 . S
Nd209 O231 2.414 1_554 S
Nd209 O233 2.424 1_455 S
Nd209 O234 2.500 . S
Nd209 O235 2.492 . S
Nd209 O236 2.487 . S
Nd209 O237 2.682 1_554 S
Nd209 O238 2.410 . S
C210 Nd208 2.836 1_655 S
C210 C211 1.498 . S
C210 O228 1.258 . S
C210 O229 1.239 . S
C211 C210 1.498 . S
C211 C212 1.366 . S
C211 C216 1.407 . S
C212 C211 1.366 . S
C212 C213 1.392 . S
C212 H240 0.930 . S
C213 C212 1.392 . S
C213 C214 1.398 . S
C213 H241 0.929 . S
C214 C213 1.398 . S
C214 C215 1.352 . S
C215 C214 1.352 . S
C215 C216 1.384 . S
C215 H242 0.930 . S
C216 C211 1.407 . S
C216 C215 1.384 . S
C216 H243 0.929 . S
C217 O230 1.241 . S
C217 O231 1.273 . S
C218 O232 1.251 . S
C218 O233 1.268 1_556 S
C219 Nd209 2.836 . S
C219 C220 1.498 . S
C219 O234 1.258 . S
C219 O235 1.239 . S
C220 C219 1.498 . S
C220 C221 1.366 . S
C220 C225 1.407 . S
C221 C220 1.366 . S
C221 C222 1.392 . S
C221 H244 0.930 . S
C222 C221 1.392 . S
C222 C223 1.398 . S
C222 H245 0.929 . S
C223 C222 1.398 . S
C223 C224 1.352 . S
C224 C223 1.352 . S
C224 C225 1.384 . S
C224 H246 0.930 . S
C225 C220 1.407 . S
C225 C224 1.384 . S
C225 H247 0.929 . S
C226 O236 1.241 1_556 S
C226 O237 1.273 . S
C227 O238 1.251 1_556 S
C227 O239 1.268 . S
O228 Nd208 2.500 1_655 S
O228 C210 1.258 . S
O229 Nd208 2.492 1_655 S
O229 C210 1.239 . S
O230 Nd208 2.487 . S
O230 C217 1.241 . S
O231 Nd208 2.682 . S
O231 Nd209 2.414 1_556 S
O231 C217 1.273 . S
O232 Nd208 2.410 1_655 S
O232 C218 1.251 . S
O233 Nd209 2.424 1_655 S
O233 C218 1.268 1_554 S
O234 Nd209 2.500 . S
O234 C219 1.258 . S
O235 Nd209 2.492 . S
O235 C219 1.239 . S
O236 Nd209 2.487 . S
O236 C226 1.241 1_554 S
O237 Nd208 2.414 . S
O237 Nd209 2.682 1_556 S
O237 C226 1.273 . S
O238 Nd209 2.410 . S
O238 C227 1.251 1_554 S
O239 Nd208 2.424 . S
O239 C227 1.268 . S
H240 C212 0.930 . S
H241 C213 0.929 . S
H242 C215 0.930 . S
H243 C216 0.929 . S
H244 C221 0.930 . S
H245 C222 0.929 . S
H246 C224 0.930 . S
H247 C225 0.929 . S
C248 C249 1.363 . S
C248 C254 1.379 . S
C248 N256 1.356 1_556 S
C249 C248 1.363 . S
C249 C255 1.363 . S
C250 C251 1.363 . S
C250 C255 1.379 . S
C250 N257 1.356 . S
C251 C250 1.363 . S
C251 C254 1.363 . S
N252 C254 1.356 1_554 S
N252 H264 0.984 . S
N252 H265 0.985 . S
N253 C255 1.356 . S
N253 H258 0.984 . S
N253 H259 0.985 . S
C254 C248 1.379 . S
C254 C251 1.363 . S
C254 N252 1.356 1_556 S
C255 C249 1.363 . S
C255 C250 1.379 . S
C255 N253 1.356 . S
N256 C248 1.356 1_554 S
N256 H262 0.984 . S
N256 H263 0.984 1_554 S
N257 C250 1.356 . S
N257 H260 0.984 . S
N257 H261 0.985 . S
H258 N253 0.984 . S
H259 N253 0.985 . S
H260 N257 0.984 . S
H261 N257 0.985 . S
H262 N256 0.984 . S
H263 N256 0.984 1_556 S
H264 N252 0.984 . S
H265 N252 0.985 . S
C266 C267 1.363 . S
C266 C272 1.379 . S
C266 N274 1.356 . S
C267 C266 1.363 . S
C267 C273 1.363 . S
C268 C269 1.363 . S
C268 C273 1.379 . S
C268 N275 1.356 . S
C269 C268 1.363 . S
C269 C272 1.363 . S
N270 C272 1.356 . S
N270 H282 0.984 . S
N270 H283 0.985 . S
N271 C273 1.356 . S
N271 H276 0.984 . S
N271 H277 0.985 . S
C272 C266 1.379 . S
C272 C269 1.363 . S
C272 N270 1.356 . S
C273 C267 1.363 . S
C273 C268 1.379 . S
C273 N271 1.356 . S
N274 C266 1.356 . S
N274 H280 0.984 . S
N274 H281 0.984 . S
N275 C268 1.356 . S
N275 H278 0.984 . S
N275 H279 0.985 . S
H276 N271 0.984 . S
H277 N271 0.985 . S
H278 N275 0.984 . S
H279 N275 0.985 . S
H280 N274 0.984 . S
H281 N274 0.984 . S
H282 N270 0.984 . S
H283 N270 0.985 . S
C284 C285 1.363 . S
C284 C290 1.379 . S
C284 N292 1.356 . S
C285 C284 1.363 . S
C285 C291 1.363 1_556 S
C286 C287 1.363 . S
C286 C291 1.379 1_556 S
C286 N293 1.356 1_556 S
C287 C286 1.363 . S
C287 C290 1.363 . S
N288 C290 1.356 . S
N288 H300 0.984 . S
N288 H301 0.985 . S
N289 C291 1.356 . S
N289 H294 0.984 . S
N289 H295 0.985 . S
C290 C284 1.379 . S
C290 C287 1.363 . S
C290 N288 1.356 . S
C291 C285 1.363 1_554 S
C291 C286 1.379 1_554 S
C291 N289 1.356 . S
N292 C284 1.356 . S
N292 H298 0.984 . S
N292 H299 0.984 . S
N293 C286 1.356 1_554 S
N293 H296 0.984 . S
N293 H297 0.985 . S
H294 N289 0.984 . S
H295 N289 0.985 . S
H296 N293 0.984 . S
H297 N293 0.985 . S
H298 N292 0.984 . S
H299 N292 0.984 . S
H300 N288 0.984 . S
H301 N288 0.985 . S
C302 C303 1.363 . S
C302 C308 1.379 . S
C302 N310 1.356 . S
C303 C302 1.363 . S
C303 C309 1.363 . S
C304 C305 1.363 . S
C304 C309 1.379 . S
C304 N311 1.356 1_556 S
C305 C304 1.363 . S
C305 C308 1.363 . S
N306 C308 1.356 . S
N306 H318 0.984 . S
N306 H319 0.985 . S
N307 C309 1.356 . S
N307 H312 0.984 . S
N307 H313 0.985 1_556 S
C308 C302 1.379 . S
C308 C305 1.363 . S
C308 N306 1.356 . S
C309 C303 1.363 . S
C309 C304 1.379 . S
C309 N307 1.356 . S
N310 C302 1.356 . S
N310 H316 0.984 . S
N310 H317 0.984 . S
N311 C304 1.356 1_554 S
N311 H314 0.984 . S
N311 H315 0.985 . S
H312 N307 0.984 . S
H313 N307 0.985 1_554 S
H314 N311 0.984 . S
H315 N311 0.985 . S
H316 N310 0.984 . S
H317 N310 0.984 . S
H318 N306 0.984 . S
H319 N306 0.985 . S
C320 C321 1.363 . S
C320 C326 1.379 . S
C320 N328 1.356 . S
C321 C320 1.363 . S
C321 C327 1.363 1_566 S
C322 C323 1.363 1_554 S
C322 C327 1.379 . S
C322 N329 1.356 . S
C323 C322 1.363 1_556 S
C323 C326 1.363 1_545 S
N324 C326 1.356 . S
N324 H336 0.984 . S
N324 H337 0.985 . S
N325 C327 1.356 . S
N325 H330 0.984 1_545 S
N325 H331 0.985 . S
C326 C320 1.379 . S
C326 C323 1.363 1_565 S
C326 N324 1.356 . S
C327 C321 1.363 1_544 S
C327 C322 1.379 . S
C327 N325 1.356 . S
N328 C320 1.356 . S
N328 H334 0.984 . S
N328 H335 0.984 . S
N329 C322 1.356 . S
N329 H332 0.984 . S
N329 H333 0.985 . S
H330 N325 0.984 1_565 S
H331 N325 0.985 . S
H332 N329 0.984 . S
H333 N329 0.985 . S
H334 N328 0.984 . S
H335 N328 0.984 . S
H336 N324 0.984 . S
H337 N324 0.985 . S
C338 C339 1.363 . S
C338 C344 1.379 . S
C338 N346 1.356 . S
C339 C338 1.363 . S
C339 C345 1.363 . S
C340 C341 1.363 . S
C340 C345 1.379 . S
C340 N347 1.356 . S
C341 C340 1.363 . S
C341 C344 1.363 . S
N342 C344 1.356 . S
N342 H354 0.984 . S
N342 H355 0.985 . S
N343 C345 1.356 . S
N343 H348 0.984 . S
N343 H349 0.985 . S
C344 C338 1.379 . S
C344 C341 1.363 . S
C344 N342 1.356 . S
C345 C339 1.363 . S
C345 C340 1.379 . S
C345 N343 1.356 . S
N346 C338 1.356 . S
N346 H352 0.984 . S
N346 H353 0.984 . S
N347 C340 1.356 . S
N347 H350 0.984 1_565 S
N347 H351 0.985 1_565 S
H348 N343 0.984 . S
H349 N343 0.985 . S
H350 N347 0.984 1_545 S
H351 N347 0.985 1_545 S
H352 N346 0.984 . S
H353 N346 0.984 . S
H354 N342 0.984 . S
H355 N342 0.985 . S
C356 C357 1.363 . S
C356 C362 1.378 1_556 S
C356 N364 1.356 1_556 S
C357 C356 1.363 . S
C357 C363 1.363 . S
C358 C359 1.363 . S
C358 C363 1.379 . S
C358 N365 1.356 . S
C359 C358 1.363 . S
C359 C362 1.360 1_556 S
N360 C362 1.359 . S
N360 H372 0.984 . S
N360 H373 0.985 . S
N361 C363 1.356 . S
N361 H366 0.984 . S
N361 H367 0.985 . S
C362 C356 1.378 1_554 S
C362 C359 1.360 1_554 S
C362 N360 1.359 . S
C363 C357 1.363 . S
C363 C358 1.379 . S
C363 N361 1.356 . S
N364 C356 1.356 1_554 S
N364 H370 0.984 . S
N364 H371 0.984 . S
N365 C358 1.356 . S
N365 H368 0.984 . S
N365 H369 0.985 . S
H366 N361 0.984 . S
H367 N361 0.985 . S
H368 N365 0.984 . S
H369 N365 0.985 . S
H370 N364 0.984 . S
H371 N364 0.984 . S
H372 N360 0.984 . S
H373 N360 0.985 . S
C374 C375 1.363 1_455 S
C374 C380 1.379 . S
C374 N382 1.356 . S
C375 C374 1.363 1_655 S
C375 C381 1.363 1_554 S
C376 C377 1.363 1_655 S
C376 C381 1.379 . S
C376 N383 1.356 . S
C377 C376 1.363 1_455 S
C377 C380 1.363 1_556 S
N378 C380 1.356 . S
N378 H390 0.984 . S
N378 H391 0.985 . S
N379 C381 1.356 . S
N379 H384 0.984 . S
N379 H385 0.985 . S
C380 C374 1.379 . S
C380 C377 1.363 1_554 S
C380 N378 1.356 . S
C381 C375 1.363 1_556 S
C381 C376 1.379 . S
C381 N379 1.356 . S
N382 C374 1.356 . S
N382 H388 0.984 . S
N382 H389 0.984 . S
N383 C376 1.356 . S
N383 H386 0.984 1_655 S
N383 H387 0.985 . S
H384 N379 0.984 . S
H385 N379 0.985 . S
H386 N383 0.984 1_455 S
H387 N383 0.985 . S
H388 N382 0.984 . S
H389 N382 0.984 . S
H390 N378 0.984 . S
H391 N378 0.985 . S
C392 C393 1.363 . S
C392 C398 1.379 . S
C392 N400 1.356 . S
C393 C392 1.363 . S
C393 C399 1.363 . S
C394 C395 1.363 . S
C394 C399 1.379 . S
C394 N401 1.356 1_556 S
C395 C394 1.363 . S
C395 C398 1.363 . S
N396 C398 1.356 . S
N396 H408 0.984 . S
N396 H409 0.985 . S
N397 C399 1.356 1_554 S
N397 H402 0.984 1_554 S
N397 H403 0.985 . S
C398 C392 1.379 . S
C398 C395 1.363 . S
C398 N396 1.356 . S
C399 C393 1.363 . S
C399 C394 1.379 . S
C399 N397 1.356 1_556 S
N400 C392 1.356 . S
N400 H406 0.984 . S
N400 H407 0.984 . S
N401 C394 1.356 1_554 S
N401 H404 0.984 1_554 S
N401 H405 0.985 . S
H402 N397 0.984 1_556 S
H403 N397 0.985 . S
H404 N401 0.984 1_556 S
H405 N401 0.985 . S
H406 N400 0.984 . S
H407 N400 0.984 . S
H408 N396 0.984 . S
H409 N396 0.985 . S
C410 C411 1.363 . S
C410 C416 1.379 . S
C410 N418 1.356 1_556 S
C411 C410 1.363 . S
C411 C417 1.363 . S
C412 C413 1.363 . S
C412 C417 1.379 . S
C412 N419 1.356 . S
C413 C412 1.363 . S
C413 C416 1.363 . S
N414 C416 1.356 1_554 S
N414 H426 0.984 . S
N414 H427 0.985 . S
N415 C417 1.356 . S
N415 H420 0.984 . S
N415 H421 0.985 . S
C416 C410 1.379 . S
C416 C413 1.363 . S
C416 N414 1.356 1_556 S
C417 C411 1.363 . S
C417 C412 1.379 . S
C417 N415 1.356 . S
N418 C410 1.356 1_554 S
N418 H424 0.984 . S
N418 H425 0.984 . S
N419 C412 1.356 . S
N419 H422 0.984 . S
N419 H423 0.985 . S
H420 N415 0.984 . S
H421 N415 0.985 . S
H422 N419 0.984 . S
H423 N419 0.985 . S
H424 N418 0.984 . S
H425 N418 0.984 . S
H426 N414 0.984 . S
H427 N414 0.985 . S
C428 C429 1.363 . S
C428 C434 1.379 . S
C428 N436 1.356 . S
C429 C428 1.363 . S
C429 C435 1.363 . S
C430 C431 1.363 . S
C430 C435 1.379 . S
C430 N437 1.356 . S
C431 C430 1.363 . S
C431 C434 1.363 . S
N432 C434 1.356 . S
N432 H444 0.984 . S
N432 H445 0.985 . S
N433 C435 1.356 . S
N433 H438 0.984 . S
N433 H439 0.985 . S
C434 C428 1.379 . S
C434 C431 1.363 . S
C434 N432 1.356 . S
C435 C429 1.363 . S
C435 C430 1.379 . S
C435 N433 1.356 . S
N436 C428 1.356 . S
N436 H442 0.984 . S
N436 H443 0.984 . S
N437 C430 1.356 . S
N437 H440 0.984 . S
N437 H441 0.985 . S
H438 N433 0.984 . S
H439 N433 0.985 . S
H440 N437 0.984 . S
H441 N437 0.985 . S
H442 N436 0.984 . S
H443 N436 0.984 . S
H444 N432 0.984 . S
H445 N432 0.985 . S
C446 C447 1.363 . S
C446 C452 1.379 . S
C446 N454 1.356 1_556 S
C447 C446 1.363 . S
C447 C453 1.363 . S
C448 C449 1.363 . S
C448 C453 1.379 . S
C448 N455 1.356 . S
C449 C448 1.363 . S
C449 C452 1.363 . S
N450 C452 1.356 . S
N450 H462 0.984 1_556 S
N450 H463 0.985 . S
N451 C453 1.356 . S
N451 H456 0.984 . S
N451 H457 0.985 . S
C452 C446 1.379 . S
C452 C449 1.363 . S
C452 N450 1.356 . S
C453 C447 1.363 . S
C453 C448 1.379 . S
C453 N451 1.356 . S
N454 C446 1.356 1_554 S
N454 H460 0.984 . S
N454 H461 0.984 . S
N455 C448 1.356 . S
N455 H458 0.984 . S
N455 H459 0.985 . S
H456 N451 0.984 . S
H457 N451 0.985 . S
H458 N455 0.984 . S
H459 N455 0.985 . S
H460 N454 0.984 . S
H461 N454 0.984 . S
H462 N450 0.984 1_554 S
H463 N450 0.985 . S
C464 C465 1.363 1_455 S
C464 C470 1.379 . S
C464 N472 1.356 . S
C465 C464 1.363 1_655 S
C465 C471 1.363 1_556 S
C466 C467 1.363 1_654 S
C466 C471 1.379 . S
C466 N473 1.356 . S
C467 C466 1.363 1_456 S
C467 C470 1.363 . S
N468 C470 1.356 . S
N468 H480 0.984 . S
N468 H481 0.985 . S
N469 C471 1.356 . S
N469 H474 0.984 . S
N469 H475 0.985 . S
C470 C464 1.379 . S
C470 C467 1.363 . S
C470 N468 1.356 . S
C471 C465 1.363 1_554 S
C471 C466 1.379 . S
C471 N469 1.356 . S
N472 C464 1.356 . S
N472 H478 0.984 . S
N472 H479 0.984 . S
N473 C466 1.356 . S
N473 H476 0.984 1_655 S
N473 H477 0.985 . S
H474 N469 0.984 . S
H475 N469 0.985 . S
H476 N473 0.984 1_455 S
H477 N473 0.985 . S
H478 N472 0.984 . S
H479 N472 0.984 . S
H480 N468 0.984 . S
H481 N468 0.985 . S
C482 C483 1.363 1_545 S
C482 C488 1.379 . S
C482 N490 1.356 . S
C483 C482 1.363 1_565 S
C483 C489 1.363 1_556 S
C484 C485 1.363 1_564 S
C484 C489 1.379 . S
C484 N491 1.356 . S
C485 C484 1.363 1_546 S
C485 C488 1.363 . S
N486 C488 1.356 . S
N486 H498 0.984 . S
N486 H499 0.985 . S
N487 C489 1.356 . S
N487 H492 0.984 . S
N487 H493 0.985 . S
C488 C482 1.379 . S
C488 C485 1.363 . S
C488 N486 1.356 . S
C489 C483 1.363 1_554 S
C489 C484 1.379 . S
C489 N487 1.356 . S
N490 C482 1.356 . S
N490 H496 0.984 . S
N490 H497 0.984 1_545 S
N491 C484 1.356 . S
N491 H494 0.984 1_565 S
N491 H495 0.985 . S
H492 N487 0.984 . S
H493 N487 0.985 . S
H494 N491 0.984 1_545 S
H495 N491 0.985 . S
H496 N490 0.984 . S
H497 N490 0.984 1_565 S
H498 N486 0.984 . S
H499 N486 0.985 . S
C500 C501 1.363 . S
C500 C506 1.379 . S
C500 N508 1.356 . S
C501 C500 1.363 . S
C501 C507 1.363 . S
C502 C503 1.363 . S
C502 C507 1.379 . S
C502 N509 1.356 . S
C503 C502 1.363 . S
C503 C506 1.363 . S
N504 C506 1.356 . S
N504 H516 0.984 . S
N504 H517 0.985 . S
N505 C507 1.356 . S
N505 H510 0.984 . S
N505 H511 0.985 . S
C506 C500 1.379 . S
C506 C503 1.363 . S
C506 N504 1.356 . S
C507 C501 1.363 . S
C507 C502 1.379 . S
C507 N505 1.356 . S
N508 C500 1.356 . S
N508 H514 0.984 . S
N508 H515 0.984 . S
N509 C502 1.356 . S
N509 H512 0.984 . S
N509 H513 0.985 . S
H510 N505 0.984 . S
H511 N505 0.985 . S
H512 N509 0.984 . S
H513 N509 0.985 . S
H514 N508 0.984 . S
H515 N508 0.984 . S
H516 N504 0.984 . S
H517 N504 0.985 . S
C518 C519 1.363 . S
C518 C524 1.379 . S
C518 N526 1.356 . S
C519 C518 1.363 . S
C519 C525 1.363 . S
C520 C521 1.363 . S
C520 C525 1.379 . S
C520 N527 1.356 1_556 S
C521 C520 1.363 . S
C521 C524 1.363 . S
N522 C524 1.356 . S
N522 H534 0.984 . S
N522 H535 0.985 . S
N523 C525 1.356 1_554 S
N523 H528 0.984 1_554 S
N523 H529 0.985 . S
C524 C518 1.379 . S
C524 C521 1.363 . S
C524 N522 1.356 . S
C525 C519 1.363 . S
C525 C520 1.379 . S
C525 N523 1.356 1_556 S
N526 C518 1.356 . S
N526 H532 0.984 . S
N526 H533 0.984 . S
N527 C520 1.356 1_554 S
N527 H530 0.984 . S
N527 H531 0.985 . S
H528 N523 0.984 1_556 S
H529 N523 0.985 . S
H530 N527 0.984 . S
H531 N527 0.985 . S
H532 N526 0.984 . S
H533 N526 0.984 . S
H534 N522 0.984 . S
H535 N522 0.985 . S
C536 C537 1.363 . S
C536 C542 1.379 . S
C536 N544 1.356 . S
C537 C536 1.363 . S
C537 C543 1.363 . S
C538 C539 1.363 . S
C538 C543 1.379 . S
C538 N545 1.356 . S
C539 C538 1.363 . S
C539 C542 1.363 . S
N540 C542 1.356 . S
N540 H552 0.984 . S
N540 H553 0.985 . S
N541 C543 1.356 . S
N541 H546 0.984 . S
N541 H547 0.985 . S
C542 C536 1.379 . S
C542 C539 1.363 . S
C542 N540 1.356 . S
C543 C537 1.363 . S
C543 C538 1.379 . S
C543 N541 1.356 . S
N544 C536 1.356 . S
N544 H550 0.984 . S
N544 H551 0.984 . S
N545 C538 1.356 . S
N545 H548 0.984 . S
N545 H549 0.985 1_455 S
H546 N541 0.984 . S
H547 N541 0.985 . S
H548 N545 0.984 . S
H549 N545 0.985 1_655 S
H550 N544 0.984 . S
H551 N544 0.984 . S
H552 N540 0.984 . S
H553 N540 0.985 . S
C554 C555 1.363 . S
C554 C560 1.379 . S
C554 N562 1.356 . S
C555 C554 1.363 . S
C555 C561 1.363 . S
C556 C557 1.363 . S
C556 C561 1.379 . S
C556 N563 1.356 . S
C557 C556 1.363 . S
C557 C560 1.363 . S
N558 C560 1.356 . S
N558 H570 0.984 . S
N558 H571 0.985 . S
N559 C561 1.356 . S
N559 H564 0.984 . S
N559 H565 0.985 . S
C560 C554 1.379 . S
C560 C557 1.363 . S
C560 N558 1.356 . S
C561 C555 1.363 . S
C561 C556 1.379 . S
C561 N559 1.356 . S
N562 C554 1.356 . S
N562 H568 0.984 . S
N562 H569 0.984 . S
N563 C556 1.356 . S
N563 H566 0.984 . S
N563 H567 0.985 . S
H564 N559 0.984 . S
H565 N559 0.985 . S
H566 N563 0.984 . S
H567 N563 0.985 . S
H568 N562 0.984 . S
H569 N562 0.984 . S
H570 N558 0.984 . S
H571 N558 0.985 . S
C572 C573 1.363 . S
C572 C578 1.379 . S
C572 N580 1.356 . S
C573 C572 1.363 . S
C573 C579 1.363 . S
C574 C575 1.363 . S
C574 C579 1.379 . S
C574 N581 1.356 1_554 S
C575 C574 1.363 . S
C575 C578 1.363 . S
N576 C578 1.356 . S
N576 H588 0.984 . S
N576 H589 0.985 . S
N577 C579 1.356 . S
N577 H582 0.984 . S
N577 H583 0.985 1_554 S
C578 C572 1.379 . S
C578 C575 1.363 . S
C578 N576 1.356 . S
C579 C573 1.363 . S
C579 C574 1.379 . S
C579 N577 1.356 . S
N580 C572 1.356 . S
N580 H586 0.984 . S
N580 H587 0.984 . S
N581 C574 1.356 1_556 S
N581 H584 0.984 . S
N581 H585 0.985 . S
H582 N577 0.984 . S
H583 N577 0.985 1_556 S
H584 N581 0.984 . S
H585 N581 0.985 . S
H586 N580 0.984 . S
H587 N580 0.984 . S
H588 N576 0.984 . S
H589 N576 0.985 . S
C590 C591 1.363 . S
C590 C596 1.379 . S
C590 N598 1.356 . S
C591 C590 1.363 . S
C591 C597 1.363 . S
C592 C593 1.363 . S
C592 C597 1.379 . S
C592 N599 1.356 . S
C593 C592 1.363 . S
C593 C596 1.363 . S
N594 C596 1.356 . S
N594 H606 0.984 . S
N594 H607 0.985 . S
N595 C597 1.356 . S
N595 H600 0.984 . S
N595 H601 0.985 . S
C596 C590 1.379 . S
C596 C593 1.363 . S
C596 N594 1.356 . S
C597 C591 1.363 . S
C597 C592 1.379 . S
C597 N595 1.356 . S
N598 C590 1.356 . S
N598 H604 0.984 . S
N598 H605 0.984 . S
N599 C592 1.356 . S
N599 H602 0.984 . S
N599 H603 0.985 . S
H600 N595 0.984 . S
H601 N595 0.985 . S
H602 N599 0.984 . S
H603 N599 0.985 . S
H604 N598 0.984 . S
H605 N598 0.984 . S
H606 N594 0.984 . S
H607 N594 0.985 . S
C608 C609 1.363 1_455 S
C608 C614 1.379 . S
C608 N616 1.356 . S
C609 C608 1.363 1_655 S
C609 C615 1.363 . S
C610 C611 1.363 . S
C610 C615 1.379 . S
C610 N617 1.356 . S
C611 C610 1.363 . S
C611 C614 1.363 1_655 S
N612 C614 1.356 . S
N612 H624 0.984 . S
N612 H625 0.985 . S
N613 C615 1.356 . S
N613 H618 0.984 . S
N613 H619 0.985 . S
C614 C608 1.379 . S
C614 C611 1.363 1_455 S
C614 N612 1.356 . S
C615 C609 1.363 . S
C615 C610 1.379 . S
C615 N613 1.356 . S
N616 C608 1.356 . S
N616 H622 0.984 . S
N616 H623 0.984 . S
N617 C610 1.356 . S
N617 H620 0.984 . S
N617 H621 0.985 . S
H618 N613 0.984 . S
H619 N613 0.985 . S
H620 N617 0.984 . S
H621 N617 0.985 . S
H622 N616 0.984 . S
H623 N616 0.984 . S
H624 N612 0.984 . S
H625 N612 0.985 . S
C626 C627 1.363 . S
C626 C632 1.379 . S
C626 N634 1.356 1_565 S
C627 C626 1.363 . S
C627 C633 1.363 . S
C628 C629 1.363 . S
C628 C633 1.379 . S
C628 N635 1.356 . S
C629 C628 1.363 . S
C629 C632 1.363 . S
N630 C632 1.356 . S
N630 H642 0.984 1_565 S
N630 H643 0.985 . S
N631 C633 1.356 . S
N631 H636 0.984 . S
N631 H637 0.985 . S
C632 C626 1.379 . S
C632 C629 1.363 . S
C632 N630 1.356 . S
C633 C627 1.363 . S
C633 C628 1.379 . S
C633 N631 1.356 . S
N634 C626 1.356 1_545 S
N634 H640 0.984 . S
N634 H641 0.984 . S
N635 C628 1.356 . S
N635 H638 0.984 . S
N635 H639 0.985 . S
H636 N631 0.984 . S
H637 N631 0.985 . S
H638 N635 0.984 . S
H639 N635 0.985 . S
H640 N634 0.984 . S
H641 N634 0.984 . S
H642 N630 0.984 1_545 S
H643 N630 0.985 . S
C644 C645 1.363 . S
C644 C650 1.379 . S
C644 N652 1.356 . S
C645 C644 1.363 . S
C645 C651 1.363 . S
C646 C647 1.363 . S
C646 C651 1.379 . S
C646 N653 1.356 . S
C647 C646 1.363 . S
C647 C650 1.363 . S
N648 C650 1.356 . S
N648 H660 0.984 . S
N648 H661 0.985 . S
N649 C651 1.356 . S
N649 H654 0.984 . S
N649 H655 0.985 . S
C650 C644 1.379 . S
C650 C647 1.363 . S
C650 N648 1.356 . S
C651 C645 1.363 . S
C651 C646 1.379 . S
C651 N649 1.356 . S
N652 C644 1.356 . S
N652 H658 0.984 . S
N652 H659 0.984 . S
N653 C646 1.356 . S
N653 H656 0.984 . S
N653 H657 0.985 . S
H654 N649 0.984 . S
H655 N649 0.985 . S
H656 N653 0.984 . S
H657 N653 0.985 . S
H658 N652 0.984 . S
H659 N652 0.984 . S
H660 N648 0.984 . S
H661 N648 0.985 . S
C662 C663 1.363 . S
C662 C668 1.379 . S
C662 N670 1.356 . S
C663 C662 1.363 . S
C663 C669 1.363 . S
C664 C665 1.363 . S
C664 C669 1.379 . S
C664 N671 1.356 . S
C665 C664 1.363 . S
C665 C668 1.363 . S
N666 C668 1.356 . S
N666 H678 0.984 . S
N666 H679 0.985 . S
N667 C669 1.356 . S
N667 H672 0.984 . S
N667 H673 0.985 . S
C668 C662 1.379 . S
C668 C665 1.363 . S
C668 N666 1.356 . S
C669 C663 1.363 . S
C669 C664 1.379 . S
C669 N667 1.356 . S
N670 C662 1.356 . S
N670 H676 0.984 . S
N670 H677 0.984 . S
N671 C664 1.356 . S
N671 H674 0.984 . S
N671 H675 0.985 . S
H672 N667 0.984 . S
H673 N667 0.985 . S
H674 N671 0.984 . S
H675 N671 0.985 . S
H676 N670 0.984 . S
H677 N670 0.984 . S
H678 N666 0.984 . S
H679 N666 0.985 . S
C249 C76 1.657 . S
C251 C97 1.663 . S
C269 C137 1.399 . S
C267 C87 1.430 . S
C287 C186 1.430 . S
C285 C54 1.454 . S
C305 C217 1.787 . S
C303 C65 1.865 . S
C323 C106 1.663 . S
C321 C32 1.671 1_556 S
C339 C43 1.437 . S
C341 C146 1.400 . S
C357 C10 1.455 . S
C359 C177 1.429 . S
C375 C21 1.877 . S
C377 C226 1.787 . S
C395 C107 1.248 . S
C393 C60 1.083 . S
C413 C147 1.712 . S
C411 C71 1.492 . S
C431 C183 0.952 . S
C429 C82 0.970 . S
C447 C49 1.260 . S
C449 C227 1.455 . S
C465 C16 1.075 1_556 S
C467 C98 1.248 . S
C485 C138 1.711 . S
C483 C27 1.474 1_556 S
C503 C174 0.953 . S
C501 C38 0.968 . S
C519 C5 1.254 . S
C521 C218 1.455 . S
C537 C59 1.628 . S
C539 C103 1.659 . S
C555 C70 1.536 . S
C557 C143 1.490 . S
C575 C187 2.035 . S
C573 C81 1.840 . S
C593 C223 1.464 . S
C591 C48 1.493 . S
C609 C15 1.624 . S
C611 C94 1.659 . S
C629 C134 1.490 . S
C627 C26 1.543 . S
C647 C178 2.035 . S
C645 C37 1.838 . S
C663 C4 1.505 . S
C665 C214 1.462 . S
